# Generated by pormake.
# Topology zzz, (3,6)-cn, num edge types: 1
# Building blocks:
#     Node 0, Type 0, BuildingBlock: VETTIZ_charged_linker_0, # of connection points: 3
#     Node 1, Type 0, BuildingBlock: VETTIZ_charged_linker_0, # of connection points: 3
#     Node 2, Type 0, BuildingBlock: VETTIZ_charged_linker_0, # of connection points: 3
#     Node 3, Type 0, BuildingBlock: VETTIZ_charged_linker_0, # of connection points: 3
#     Node 4, Type 0, BuildingBlock: VETTIZ_charged_linker_0, # of connection points: 3
#     Node 5, Type 0, BuildingBlock: VETTIZ_charged_linker_0, # of connection points: 3
#     Node 6, Type 0, BuildingBlock: VETTIZ_charged_linker_0, # of connection points: 3
#     Node 7, Type 0, BuildingBlock: VETTIZ_charged_linker_0, # of connection points: 3
#     Node 8, Type 1, BuildingBlock: KUMBOL_clean_sbu_1, # of connection points: 6
#     Node 9, Type 1, BuildingBlock: KUMBOL_clean_sbu_1, # of connection points: 6
#     Node 10, Type 1, BuildingBlock: KUMBOL_clean_sbu_1, # of connection points: 6
#     Node 11, Type 1, BuildingBlock: KUMBOL_clean_sbu_1, # of connection points: 6
#     Edge 12, Type (0, 1), BuildingBlock: XUDNAN_clean_linker_2, # of connection points: 2
#     Edge 13, Type (0, 1), BuildingBlock: XUDNAN_clean_linker_2, # of connection points: 2
#     Edge 14, Type (0, 1), BuildingBlock: XUDNAN_clean_linker_2, # of connection points: 2
#     Edge 15, Type (0, 1), BuildingBlock: XUDNAN_clean_linker_2, # of connection points: 2
#     Edge 16, Type (0, 1), BuildingBlock: XUDNAN_clean_linker_2, # of connection points: 2
#     Edge 17, Type (0, 1), BuildingBlock: XUDNAN_clean_linker_2, # of connection points: 2
#     Edge 18, Type (0, 1), BuildingBlock: XUDNAN_clean_linker_2, # of connection points: 2
#     Edge 19, Type (0, 1), BuildingBlock: XUDNAN_clean_linker_2, # of connection points: 2
#     Edge 20, Type (0, 1), BuildingBlock: XUDNAN_clean_linker_2, # of connection points: 2
#     Edge 21, Type (0, 1), BuildingBlock: XUDNAN_clean_linker_2, # of connection points: 2
#     Edge 22, Type (0, 1), BuildingBlock: XUDNAN_clean_linker_2, # of connection points: 2
#     Edge 23, Type (0, 1), BuildingBlock: XUDNAN_clean_linker_2, # of connection points: 2
#     Edge 24, Type (0, 1), BuildingBlock: XUDNAN_clean_linker_2, # of connection points: 2
#     Edge 25, Type (0, 1), BuildingBlock: XUDNAN_clean_linker_2, # of connection points: 2
#     Edge 26, Type (0, 1), BuildingBlock: XUDNAN_clean_linker_2, # of connection points: 2
#     Edge 27, Type (0, 1), BuildingBlock: XUDNAN_clean_linker_2, # of connection points: 2
#     Edge 28, Type (0, 1), BuildingBlock: XUDNAN_clean_linker_2, # of connection points: 2
#     Edge 29, Type (0, 1), BuildingBlock: XUDNAN_clean_linker_2, # of connection points: 2
#     Edge 30, Type (0, 1), BuildingBlock: XUDNAN_clean_linker_2, # of connection points: 2
#     Edge 31, Type (0, 1), BuildingBlock: XUDNAN_clean_linker_2, # of connection points: 2
#     Edge 32, Type (0, 1), BuildingBlock: XUDNAN_clean_linker_2, # of connection points: 2
#     Edge 33, Type (0, 1), BuildingBlock: XUDNAN_clean_linker_2, # of connection points: 2
#     Edge 34, Type (0, 1), BuildingBlock: XUDNAN_clean_linker_2, # of connection points: 2
#     Edge 35, Type (0, 1), BuildingBlock: XUDNAN_clean_linker_2, # of connection points: 2
# Relax obj value: 0.320
# Max RMSD: 0.211
# Mean RMSD: 0.185
data_MOF--net-zzz--node1-KUMBOL_clean_sbu_1--node2-VETTIZ_charged_linker_0--edge1-XUDNAN_clean_linker_2
_symmetry_space_group_name_H-M    P1
_symmetry_Int_Tables_number       1
_symmetry_cell_setting            triclinic
loop_
_symmetry_equiv_pos_as_xyz
'x, y, z'
_cell_length_a     56.142689
_cell_length_b     56.199165
_cell_length_c     20.85942
_cell_angle_alpha  90.14966
_cell_angle_beta   90.166478
_cell_angle_gamma 90.445005
loop_
_atom_site_label
_atom_site_type_symbol
_atom_site_fract_x
_atom_site_fract_y
_atom_site_fract_z
_atom_type_partial_charge
C0 C 0.81564 0.54358 0.27047 0.0
C1 C 0.83593 0.55601 0.29623 0.0
C2 C 0.83941 0.57995 0.27755 0.0
C3 C 0.80681 0.57731 0.20254 0.0
C4 C 0.80082 0.55503 0.22436 0.0
C5 C 0.77683 0.5473 0.19493 0.0
H6 H 0.68966 0.5766 0.97095 0.0
C7 C 0.78976 0.58486 0.15413 0.0
C8 C 0.77074 0.56853 0.15097 0.0
H9 H 0.68951 0.51357 0.08906 0.0
H10 H 0.72619 0.52723 0.14132 0.0
H11 H 0.70626 0.61408 0.08513 0.0
H12 H 0.72896 0.58008 0.92307 0.0
H13 H 0.75788 0.58994 0.9442 0.0
H14 H 0.73463 0.61087 0.92456 0.0
H15 H 0.70201 0.61975 1.00106 0.0
H16 H 0.72616 0.63348 0.04524 0.0
C17 C 0.7585 0.54433 0.24908 0.0
C18 C 0.7804 0.52425 0.15631 0.0
C19 C 0.81944 0.62841 0.96057 0.0
C20 C 0.80696 0.6373 0.90701 0.0
C21 C 0.78299 0.64407 0.9151 0.0
C22 C 0.77059 0.63757 0.97062 0.0
C23 C 0.78229 0.62399 0.01706 0.0
C24 C 0.80667 0.62208 1.01562 0.0
C25 C 0.81611 0.61015 0.07485 0.0
C26 C 0.79267 0.60267 0.10722 0.0
C27 C 0.7732 0.60877 0.06885 0.0
C28 C 0.83102 0.62868 0.11272 0.0
C29 C 0.83121 0.58831 0.05634 0.0
C30 C 0.69689 0.5657 1.0089 0.0
C31 C 0.68609 0.54393 0.02512 0.0
C32 C 0.69723 0.53036 0.07416 0.0
C33 C 0.71854 0.5383 0.10491 0.0
C34 C 0.72915 0.56004 0.08662 0.0
C35 C 0.71809 0.57315 0.039 0.0
C36 C 0.73152 0.59536 0.02235 0.0
C37 C 0.75263 0.59381 0.068 0.0
C38 C 0.75147 0.57311 0.10667 0.0
C39 C 0.71567 0.61691 0.03887 0.0
C40 C 0.73871 0.59414 0.95021 0.0
H41 H 0.82607 0.60955 0.22526 0.0
H42 H 0.81135 0.52573 0.28625 0.0
H43 H 0.79488 0.52667 0.1206 0.0
H44 H 0.76414 0.519 0.12974 0.0
H45 H 0.78535 0.50937 0.18857 0.0
H46 H 0.75812 0.56058 0.2796 0.0
H47 H 0.76314 0.52897 0.28003 0.0
H48 H 0.74029 0.54152 0.23034 0.0
H49 H 0.83809 0.62391 0.95735 0.0
H50 H 0.77325 0.6522 0.87609 0.0
H51 H 0.75208 0.64198 0.97409 0.0
H52 H 0.84057 0.6411 0.08007 0.0
H53 H 0.84533 0.62014 0.14099 0.0
H54 H 0.81955 0.63955 0.14456 0.0
H55 H 0.82068 0.57574 0.02603 0.0
H56 H 0.83728 0.57864 0.09961 0.0
H57 H 0.84741 0.59375 0.02955 0.0
H58 H 0.85393 0.59055 0.29679 0.0
C59 C 0.82444 0.59074 0.23297 0.0
C60 C 0.8979 0.80505 1.01211 0.0
C61 C 0.88766 0.82592 0.03734 0.0
C62 C 0.88209 0.82649 0.10332 0.0
C63 C 0.90794 0.79312 0.11943 0.0
C64 C 0.90791 0.78865 0.05463 0.0
C65 C 0.92318 0.7676 0.03846 0.0
H66 H 0.02014 0.70673 0.06571 0.0
C67 C 0.92772 0.78004 0.14853 0.0
C68 C 0.93458 0.76275 0.10416 0.0
H69 H 0.95246 0.68029 0.99308 0.0
H70 H 0.93222 0.71134 0.05275 0.0
H71 H 1.00842 0.76961 0.06104 0.0
H72 H 0.99375 0.72098 0.21849 0.0
H73 H 0.01149 0.7466 0.23733 0.0
H74 H 0.02347 0.72369 0.18695 0.0
H75 H 0.03202 0.75201 0.09466 0.0
H76 H 0.02095 0.77745 0.13706 0.0
C77 C 0.94213 0.77448 0.98803 0.0
C78 C 0.90673 0.74751 1.01335 0.0
C79 C 0.97429 0.83065 0.30662 0.0
C80 C 0.99837 0.83324 0.32358 0.0
C81 C 0.01442 0.81602 0.29889 0.0
C82 C 1.00651 0.79735 0.25738 0.0
C83 C 0.98233 0.79587 0.23926 0.0
C84 C 0.9669 0.81273 0.26378 0.0
C85 C 0.9422 0.81041 0.23734 0.0
C86 C 0.94485 0.78897 0.19327 0.0
C87 C 0.9684 0.77991 0.19447 0.0
C88 C 0.93602 0.83386 0.20122 0.0
C89 C 0.92505 0.80481 0.29323 0.0
C90 C 1.00107 0.70834 0.05962 0.0
C91 C 0.98816 0.69189 0.0197 0.0
C92 C 0.9631 0.69359 0.01797 0.0
C93 C 0.95133 0.71191 0.04967 0.0
C94 C 0.96456 0.72967 0.08024 0.0
C95 C 0.98857 0.72717 0.09058 0.0
C96 C 0.99714 0.74613 0.13905 0.0
C97 C 0.97397 0.75977 0.15399 0.0
C98 C 0.95591 0.75036 0.11465 0.0
C99 C 0.01573 0.76224 0.10638 0.0
C100 C 1.00709 0.73373 0.19892 0.0
H101 H 0.88951 0.81179 0.19562 0.0
H102 H 0.90129 0.8033 0.96132 0.0
H103 H 0.89237 0.75473 0.98231 0.0
H104 H 0.89812 0.73781 0.05358 0.0
H105 H 0.9165 0.73491 0.98229 0.0
H106 H 0.95294 0.78997 1.00478 0.0
H107 H 0.93371 0.77907 0.9415 0.0
H108 H 0.95436 0.75945 0.97878 0.0
H109 H 0.96108 0.84272 0.32542 0.0
H110 H 0.03319 0.81719 0.31056 0.0
H111 H 0.01943 0.78494 0.23987 0.0
H112 H 0.94783 0.84904 0.21454 0.0
H113 H 0.91787 0.84013 0.21266 0.0
H114 H 0.9379 0.83182 0.14848 0.0
H115 H 0.93288 0.79139 0.3261 0.0
H116 H 0.908 0.79709 0.27627 0.0
H117 H 0.92127 0.82111 0.32159 0.0
H118 H 0.87287 0.84159 0.12363 0.0
C119 C 0.8923 0.80989 0.14494 0.0
C120 C 0.83319 0.99918 0.08041 0.0
C121 C 0.8502 0.98646 0.04264 0.0
C122 C 0.84786 0.9614 0.03965 0.0
C123 C 0.81073 0.96276 0.097 0.0
C124 C 0.81371 0.98663 0.10873 0.0
C125 C 0.79463 0.99502 0.15614 0.0
H126 H 0.68876 0.96404 0.30832 0.0
C127 C 0.78864 0.95434 0.12606 0.0
C128 C 0.77921 0.97238 0.16504 0.0
H129 H 0.72658 0.03078 0.33149 0.0
H130 H 0.75769 0.0167 0.25949 0.0
H131 H 0.68717 0.95696 0.18835 0.0
H132 H 0.73587 0.93007 0.31763 0.0
H133 H 0.73038 0.90765 0.25984 0.0
H134 H 0.70563 0.92147 0.30005 0.0
H135 H 0.68927 0.92568 0.19193 0.0
H136 H 0.7046 0.94233 0.13035 0.0
C137 C 0.78038 0.01537 0.12572 0.0
C138 C 0.80706 1.0025 0.21901 0.0
C139 C 0.73931 0.8957 1.00025 0.0
C140 C 0.71653 0.88597 1.01209 0.0
C141 C 0.70872 0.88441 0.07627 0.0
C142 C 0.72114 0.89634 0.12524 0.0
C143 C 0.74135 0.90989 0.10953 0.0
C144 C 0.75148 0.90745 0.04992 0.0
C145 C 0.77482 0.92065 0.04517 0.0
C146 C 0.77495 0.93403 0.10949 0.0
C147 C 0.75434 0.92879 0.14443 0.0
C148 C 0.77421 0.93793 0.98761 0.0
C149 C 0.79481 0.90199 0.03829 0.0
C150 C 0.70384 0.9757 0.29981 0.0
C151 C 0.70482 0.99858 0.32711 0.0
C152 C 0.72485 0.01308 0.31141 0.0
C153 C 0.74311 1.00487 0.26987 0.0
C154 C 0.74158 0.98184 0.24321 0.0
C155 C 0.72197 0.96788 0.25868 0.0
C156 C 0.7222 0.94412 0.22615 0.0
C157 C 0.74544 0.94565 0.18916 0.0
C158 C 0.75717 0.9678 0.19867 0.0
C159 C 0.69981 0.94202 0.18194 0.0
C160 C 0.72344 0.92467 0.27847 0.0
H161 H 0.82885 0.9306 0.07031 0.0
H162 H 0.83504 0.01817 0.08777 0.0
H163 H 0.81922 0.98825 0.23569 0.0
H164 H 0.79425 1.00568 0.25801 0.0
H165 H 0.81779 0.01898 0.21188 0.0
H166 H 0.77303 1.00973 0.07845 0.0
H167 H 0.79195 0.03124 0.11815 0.0
H168 H 0.76523 0.02072 0.15603 0.0
H169 H 0.74647 0.89639 0.95224 0.0
H170 H 0.69195 0.8758 0.08769 0.0
H171 H 0.71409 0.89555 0.17286 0.0
H172 H 0.75898 0.95037 0.99185 0.0
H173 H 0.7725 0.9281 0.94159 0.0
H174 H 0.79081 0.94863 0.98453 0.0
H175 H 0.78821 0.88514 0.01621 0.0
H176 H 0.80256 0.89737 0.0857 0.0
H177 H 0.80908 0.9082 1.00554 0.0
H178 H 0.86046 0.9506 1.0137 0.0
C179 C 0.82879 0.94963 0.06859 0.0
C180 C 0.53094 0.72055 0.29798 0.0
C181 C 0.53896 0.69711 0.31323 0.0
C182 C 0.55627 0.68683 0.27379 0.0
C183 C 0.55744 0.72172 0.20546 0.0
C184 C 0.54037 0.73253 0.2429 0.0
C185 C 0.53404 0.75696 0.21468 0.0
H186 H 0.56084 0.83965 0.97574 0.0
C187 C 0.56425 0.73788 0.15248 0.0
C188 C 0.551 0.75908 0.1568 0.0
H189 H 0.50368 0.84651 0.11256 0.0
H190 H 0.51551 0.80891 0.16236 0.0
H191 H 0.60053 0.81774 0.06965 0.0
H192 H 0.54824 0.79198 0.93733 0.0
H193 H 0.56947 0.76945 0.93621 0.0
H194 H 0.57777 0.79913 0.91151 0.0
H195 H 0.60234 0.82046 0.98407 0.0
H196 H 0.61424 0.79496 0.02531 0.0
C197 C 0.539 0.7765 0.26478 0.0
C198 C 0.50779 0.75631 0.1932 0.0
C199 C 0.61607 0.70485 0.97661 0.0
C200 C 0.622 0.7139 0.91579 0.0
C201 C 0.62175 0.73876 0.9069 0.0
C202 C 0.61199 0.75372 0.95375 0.0
C203 C 0.60224 0.74366 1.00969 0.0
C204 C 0.60583 0.7199 0.02213 0.0
C205 C 0.59405 0.71206 0.08314 0.0
C206 C 0.58093 0.73453 0.1023 0.0
C207 C 0.58564 0.75285 0.05896 0.0
C208 C 0.6141 0.70581 0.13165 0.0
C209 C 0.57653 0.69128 0.06687 0.0
C210 C 0.5503 0.83331 1.01562 0.0
C211 C 0.53093 0.84646 0.03845 0.0
C212 C 0.51872 0.83711 0.09281 0.0
C213 C 0.52541 0.81509 0.12157 0.0
C214 C 0.54438 0.80186 0.09567 0.0
C215 C 0.55625 0.81141 0.04333 0.0
C216 C 0.57468 0.79516 0.01707 0.0
C217 C 0.57256 0.77426 0.06221 0.0
C218 C 0.55498 0.77775 0.10985 0.0
C219 C 0.5993 0.80766 0.02374 0.0
C220 C 0.56742 0.7886 0.94697 0.0
H221 H 0.57858 0.6895 0.19406 0.0
H222 H 0.51761 0.72904 0.32738 0.0
H223 H 0.50439 0.74075 0.16133 0.0
H224 H 0.50287 0.77237 0.16606 0.0
H225 H 0.4958 0.75481 0.23533 0.0
H226 H 0.55771 0.77549 0.28211 0.0
H227 H 0.52699 0.77444 0.30667 0.0
H228 H 0.53638 0.79445 0.24452 0.0
H229 H 0.61618 0.68592 0.98592 0.0
H230 H 0.62691 0.74637 0.86129 0.0
H231 H 0.61083 0.77226 0.94235 0.0
H232 H 0.63117 0.71502 0.12003 0.0
H233 H 0.6177 0.68641 0.13195 0.0
H234 H 0.60997 0.71177 0.18103 0.0
H235 H 0.56835 0.69378 0.01872 0.0
H236 H 0.56118 0.69009 0.09964 0.0
H237 H 0.58582 0.67391 0.06653 0.0
H238 H 0.56296 0.6692 0.28425 0.0
C239 C 0.56556 0.69889 0.22118 0.0
C240 C 0.33359 0.49595 0.20221 0.0
C241 C 0.34858 0.48344 0.24638 0.0
C242 C 0.34259 0.45956 0.26047 0.0
C243 C 0.30545 0.4632 0.20367 0.0
C244 C 0.31218 0.48488 0.17955 0.0
C245 C 0.29431 0.49233 0.12739 0.0
H246 H 0.18078 0.46961 1.00243 0.0
C247 C 0.28146 0.45723 0.18204 0.0
C248 C 0.2746 0.47308 0.13335 0.0
H249 H 0.23125 0.51963 0.92311 0.0
H250 H 0.26032 0.50892 1.00652 0.0
H251 H 0.21695 0.42719 0.02531 0.0
H252 H 0.1841 0.48145 0.13034 0.0
H253 H 0.19647 0.46571 0.19485 0.0
H254 H 0.17463 0.45166 0.143 0.0
H255 H 0.18656 0.42882 0.05166 0.0
H256 H 0.20909 0.41467 0.09985 0.0
C257 C 0.30696 0.49099 0.06212 0.0
C258 C 0.28479 0.51735 0.14169 0.0
C259 C 0.22748 0.42328 0.35087 0.0
C260 C 0.20246 0.42131 0.35148 0.0
C261 C 0.1905 0.41838 0.29217 0.0
C262 C 0.20259 0.42158 0.23437 0.0
C263 C 0.22654 0.42865 0.23581 0.0
C264 C 0.23912 0.42752 0.29254 0.0
C265 C 0.26479 0.43461 0.28398 0.0
C266 C 0.26445 0.44285 0.21376 0.0
C267 C 0.24166 0.44034 0.1874 0.0
C268 C 0.2803 0.41238 0.29612 0.0
C269 C 0.27096 0.45524 0.33067 0.0
C270 C 0.19798 0.47849 1.00248 0.0
C271 C 0.20336 0.49561 0.95588 0.0
C272 C 0.22642 0.50625 0.95808 0.0
C273 C 0.24337 0.49995 1.00611 0.0
C274 C 0.23753 0.48244 0.05191 0.0
C275 C 0.21497 0.47222 0.04888 0.0
C276 C 0.21084 0.45422 0.10025 0.0
C277 C 0.23499 0.45402 0.13308 0.0
C278 C 0.25098 0.47076 0.1059 0.0
C279 C 0.2054 0.4299 0.06794 0.0
C280 C 0.19053 0.46353 0.14442 0.0
H281 H 0.31825 0.43076 0.24589 0.0
H282 H 0.33835 0.51368 0.18633 0.0
H283 H 0.27668 0.51792 0.19023 0.0
H284 H 0.27099 0.52252 0.10647 0.0
H285 H 0.29941 0.53076 0.13992 0.0
H286 H 0.31532 0.47327 0.05556 0.0
H287 H 0.3212 0.50479 0.05899 0.0
H288 H 0.29457 0.49349 0.0217 0.0
H289 H 0.23743 0.42393 0.39532 0.0
H290 H 0.17138 0.41608 0.28961 0.0
H291 H 0.19246 0.4201 0.19097 0.0
H292 H 0.27102 0.39893 0.3263 0.0
H293 H 0.29675 0.41693 0.32324 0.0
H294 H 0.28507 0.40343 0.25039 0.0
H295 H 0.25893 0.47059 0.32269 0.0
H296 H 0.28951 0.46158 0.32493 0.0
H297 H 0.26925 0.4495 0.38134 0.0
H298 H 0.3537 0.44886 0.29136 0.0
C299 C 0.32152 0.4493 0.23765 0.0
C300 C 0.07667 0.23668 0.39824 0.0
C301 C 0.09403 0.21882 0.40112 0.0
C302 C 0.10404 0.21057 0.34318 0.0
C303 C 0.07656 0.23495 0.28247 0.0
C304 C 0.06843 0.24458 0.33903 0.0
C305 C 0.04893 0.26232 0.32919 0.0
H306 H 0.04013 0.355 0.16462 0.0
C307 C 0.0628 0.24565 0.22967 0.0
C308 C 0.04733 0.26246 0.25626 0.0
H309 H 1.00646 0.33947 0.34708 0.0
H310 H 1.00716 0.29753 0.32195 0.0
H311 H 0.07832 0.30722 0.14855 0.0
H312 H 1.00519 0.30091 0.08004 0.0
H313 H 0.03002 0.30129 0.02481 0.0
H314 H 0.02111 0.32817 0.0634 0.0
H315 H 0.06728 0.32936 0.09374 0.0
H316 H 0.07206 0.29935 0.0664 0.0
C317 C 0.05689 0.2865 0.35898 0.0
C318 C 0.02585 0.2522 0.35933 0.0
C319 C 0.05748 0.20554 1.0142 0.0
C320 C 0.04253 0.20921 0.96113 0.0
C321 C 0.0296 0.23077 0.95816 0.0
C322 C 0.03133 0.24806 1.00794 0.0
C323 C 0.04682 0.24418 0.05993 0.0
C324 C 0.05912 0.22286 0.06301 0.0
C325 C 0.07162 0.21988 0.12639 0.0
C326 C 0.06252 0.24144 0.16275 0.0
C327 C 0.04981 0.25686 0.12247 0.0
C328 C 0.09885 0.22137 0.11523 0.0
C329 C 0.06326 0.19613 0.15682 0.0
C330 C 0.03297 0.34258 0.19926 0.0
C331 C 0.02433 0.35086 0.25987 0.0
C332 C 0.01388 0.33403 0.30151 0.0
C333 C 0.01477 0.30973 0.28808 0.0
C334 C 0.02659 0.30197 0.23329 0.0
C335 C 0.03272 0.31766 0.18576 0.0
C336 C 0.04029 0.30364 0.12596 0.0
C337 C 0.03868 0.27754 0.1493 0.0
C338 C 0.03461 0.27815 0.21572 0.0
C339 C 0.06601 0.31031 0.1076 0.0
C340 C 0.02309 0.30868 0.07034 0.0
H341 H 0.10307 0.21126 0.24115 0.0
H342 H 0.06807 0.24321 0.44114 0.0
H343 H 0.02398 0.2328 0.34939 0.0
H344 H 1.00968 0.26043 0.3393 0.0
H345 H 0.02592 0.25476 0.41218 0.0
H346 H 0.06973 0.28424 0.39907 0.0
H347 H 0.04181 0.29615 0.38069 0.0
H348 H 0.06578 0.29803 0.32291 0.0
H349 H 0.06738 0.18915 0.01818 0.0
H350 H 0.01763 0.23389 0.9183 0.0
H351 H 0.02002 0.26345 1.00652 0.0
H352 H 0.10322 0.23156 0.07108 0.0
H353 H 0.10668 0.20337 0.10995 0.0
H354 H 0.10819 0.23103 0.15435 0.0
H355 H 0.04347 0.19511 0.15776 0.0
H356 H 0.06941 0.19382 0.20652 0.0
H357 H 0.06988 0.18066 0.12903 0.0
H358 H 0.11755 0.19693 0.34378 0.0
C359 C 0.09548 0.2187 0.28379 0.0
C360 C 0.3201 0.05271 0.02934 0.0
C361 C 0.34005 0.06548 1.00305 0.0
C362 C 0.34318 0.08942 0.02236 0.0
C363 C 0.31305 0.08517 0.10358 0.0
C364 C 0.30634 0.0634 0.07923 0.0
C365 C 0.28278 0.05553 0.1106 0.0
H366 H 0.20123 0.08232 0.35252 0.0
C367 C 0.29787 0.09148 0.15763 0.0
C368 C 0.27873 0.07522 0.16132 0.0
H369 H 0.19197 0.02626 0.2134 0.0
H370 H 0.23094 0.03649 0.16554 0.0
H371 H 0.24741 0.07341 0.39181 0.0
H372 H 0.22047 0.12187 0.25781 0.0
H373 H 0.24349 0.13697 0.29927 0.0
H374 H 0.21939 0.12356 0.34377 0.0
H375 H 0.24746 0.10412 0.41176 0.0
H376 H 0.27357 0.09004 0.37891 0.0
C377 C 0.2858 0.031 0.14181 0.0
C378 C 0.26312 0.05549 0.05902 0.0
C379 C 0.33716 0.13376 0.34349 0.0
C380 C 0.32857 0.13937 0.40508 0.0
C381 C 0.3038 0.14148 0.41386 0.0
C382 C 0.28795 0.13464 0.36512 0.0
C383 C 0.29699 0.12519 0.3078 0.0
C384 C 0.32104 0.12669 0.29554 0.0
C385 C 0.3271 0.11766 0.22955 0.0
C386 C 0.3028 0.10767 0.20816 0.0
C387 C 0.28576 0.11112 0.25587 0.0
C388 C 0.34604 0.09792 0.23448 0.0
C389 C 0.33601 0.13911 0.18944 0.0
C390 C 0.20748 0.07207 0.31187 0.0
C391 C 0.1935 0.05351 0.28717 0.0
C392 C 0.20247 0.04062 0.23396 0.0
C393 C 0.22483 0.04677 0.20566 0.0
C394 C 0.23825 0.06612 0.23045 0.0
C395 C 0.22932 0.07797 0.28353 0.0
C396 C 0.24526 0.09754 0.30664 0.0
C397 C 0.26494 0.09664 0.25727 0.0
C398 C 0.26128 0.07822 0.21164 0.0
C399 C 0.2539 0.09115 0.37563 0.0
C400 C 0.2315 0.12131 0.3022 0.0
H401 H 0.33113 0.11797 0.08058 0.0
H402 H 0.31559 0.03503 1.01237 0.0
H403 H 0.26268 0.07292 0.03395 0.0
H404 H 0.2453 0.05247 0.07969 0.0
H405 H 0.26643 0.0414 0.02272 0.0
H406 H 0.30088 0.03138 0.17649 0.0
H407 H 0.28954 0.01724 0.10489 0.0
H408 H 0.26958 0.02556 0.16815 0.0
H409 H 0.35608 0.13253 0.33463 0.0
H410 H 0.29671 0.14652 0.46016 0.0
H411 H 0.26929 0.13572 0.37511 0.0
H412 H 0.36308 0.10505 0.25404 0.0
H413 H 0.35013 0.0902 0.18694 0.0
H414 H 0.33974 0.0833 0.26616 0.0
H415 H 0.34336 0.15366 0.22005 0.0
H416 H 0.32135 0.14685 0.1605 0.0
H417 H 0.35099 0.13413 0.15768 0.0
H418 H 0.35612 0.10083 0.999 0.0
C419 C 0.32951 0.09931 0.07116 0.0
C420 C 0.49391 0.31708 1.00977 0.0
C421 C 0.48624 0.34072 0.99563 0.0
C422 C 0.47127 0.35205 0.03972 0.0
C423 C 0.47019 0.31699 0.10772 0.0
C424 C 0.4858 0.30557 0.06709 0.0
C425 C 0.49228 0.28109 0.09475 0.0
H426 H 0.46269 0.19568 0.32561 0.0
C427 C 0.46316 0.3005 0.15992 0.0
C428 C 0.4756 0.27888 0.1532 0.0
H429 H 0.52493 0.19332 0.20592 0.0
H430 H 0.51241 0.23012 0.15184 0.0
H431 H 0.47276 0.24079 0.36943 0.0
H432 H 0.42383 0.21971 0.223 0.0
H433 H 0.40937 0.24154 0.26902 0.0
H434 H 0.41995 0.21482 0.30735 0.0
H435 H 0.44226 0.23477 0.38798 0.0
H436 H 0.4528 0.26437 0.3693 0.0
C437 C 0.51862 0.28208 0.11548 0.0
C438 C 0.4874 0.2614 0.04506 0.0
C439 C 0.40989 0.33091 0.33699 0.0
C440 C 0.40153 0.32012 0.3936 0.0
C441 C 0.40075 0.2951 0.39679 0.0
C442 C 0.4111 0.28128 0.34843 0.0
C443 C 0.42271 0.29264 0.29705 0.0
C444 C 0.42056 0.31688 0.28975 0.0
C445 C 0.43359 0.32584 0.23159 0.0
C446 C 0.44596 0.30333 0.20913 0.0
C447 C 0.43978 0.2841 0.24817 0.0
C448 C 0.45183 0.34517 0.25345 0.0
C449 C 0.41464 0.33452 0.18267 0.0
C450 C 0.47334 0.20252 0.2864 0.0
C451 C 0.49443 0.19109 0.26937 0.0
C452 C 0.50836 0.20156 0.21992 0.0
C453 C 0.50131 0.22308 0.18921 0.0
C454 C 0.4807 0.23502 0.21003 0.0
C455 C 0.4674 0.22444 0.25849 0.0
C456 C 0.44861 0.24047 0.28398 0.0
C457 C 0.45217 0.26234 0.24281 0.0
C458 C 0.47057 0.25946 0.19723 0.0
C459 C 0.45412 0.24534 0.35626 0.0
C460 C 0.42407 0.22857 0.27078 0.0
H461 H 0.45174 0.35047 0.12521 0.0
H462 H 0.50562 0.30787 0.97711 0.0
H463 H 0.46851 0.26189 0.02899 0.0
H464 H 0.4908 0.24357 0.06544 0.0
H465 H 0.49898 0.26373 1.0024 0.0
H466 H 0.52204 0.29782 0.14671 0.0
H467 H 0.53042 0.2835 0.07294 0.0
H468 H 0.52386 0.26628 0.14312 0.0
H469 H 0.4107 0.35009 0.33255 0.0
H470 H 0.39393 0.28631 0.43918 0.0
H471 H 0.41107 0.2624 0.3553 0.0
H472 H 0.46 0.34033 0.30025 0.0
H473 H 0.44315 0.36273 0.2594 0.0
H474 H 0.46704 0.34723 0.22041 0.0
H475 H 0.41887 0.32915 0.13286 0.0
H476 H 0.41258 0.35414 0.1847 0.0
H477 H 0.39678 0.32651 0.19182 0.0
H478 H 0.46515 0.36998 0.03053 0.0
C479 C 0.46322 0.34046 0.09473 0.0
C480 C 0.08121 0.0335 0.77054 0.0
C481 C 0.06811 0.05088 0.87081 0.0
C482 C 0.06341 0.03746 0.81499 0.0
C483 C 0.09056 0.06169 0.87897 0.0
C484 C 0.10424 0.04301 0.78058 0.0
C485 C 0.1086 0.05779 0.83386 0.0
N486 N 0.07655 0.0186 0.72065 0.0
C487 C 0.09464 1.01057 0.68293 0.0
C488 C 0.12243 0.03648 0.73843 0.0
C489 C 0.11771 0.0198 0.69018 0.0
Gd490 Gd 0.99288 0.03644 0.58495 0.0
Gd491 Gd 0.03655 1.00662 0.70788 0.0
N492 N 0.04197 0.02668 0.80581 0.0
C493 C 0.05045 0.05217 0.91791 0.0
C494 C 0.0253 0.02643 0.85344 0.0
C495 C 0.0291 0.03955 0.90966 0.0
H496 H 1.00885 0.0166 0.8472 0.0
H497 H 0.01561 0.03989 0.94659 0.0
H498 H 0.02263 0.05518 0.45369 0.0
H499 H 0.09128 0.99704 0.64705 0.0
H500 H 0.02353 0.04656 0.33816 0.0
H501 H 0.05343 0.06218 0.9617 0.0
H502 H 0.09442 0.07239 0.92109 0.0
H503 H 0.94739 1.00443 0.64449 0.0
H504 H 0.14037 0.04339 0.74445 0.0
H505 H 0.13187 0.01386 0.65906 0.0
H506 H 0.95936 0.99103 0.30647 0.0
H507 H 0.12609 0.06552 0.84193 0.0
H508 H 0.914 0.96693 0.4895 0.0
H509 H 0.91613 0.97706 0.60485 0.0
N510 N 0.96382 1.00854 0.55347 0.0
C511 C 0.96233 1.00409 0.48944 0.0
C512 C 0.94703 0.9997 0.59447 0.0
C513 C 0.92793 0.97878 0.5068 0.0
C514 C 0.92913 0.98436 0.57198 0.0
C515 C 0.94445 0.98886 0.4645 0.0
H516 H 0.93005 0.97249 0.37842 0.0
N517 N 0.99554 0.02974 0.47395 0.0
C518 C 0.97894 0.01458 0.44882 0.0
C519 C 0.99465 0.02119 0.34247 0.0
C520 C 0.97802 1.00998 0.3823 0.0
C521 C 0.01099 0.0416 0.43479 0.0
C522 C 0.0111 0.0372 0.36882 0.0
O523 O 0.02242 0.04341 0.73235 0.0
O524 O 0.02064 0.06048 0.63371 0.0
O525 O 0.97823 0.06432 0.525 0.0
O526 O 0.96282 0.05717 0.61772 0.0
O527 O 0.99679 1.00274 0.73186 0.0
O528 O 0.97937 0.03541 0.6863 0.0
O529 O 0.99633 0.99546 0.58509 0.0
O530 O 0.03556 0.99079 0.60873 0.0
O531 O 0.02289 0.97114 0.72436 0.0
O532 O 0.05738 0.98122 0.76266 0.0
O533 O 0.03172 0.04543 0.56342 0.0
O534 O 0.05423 0.01565 0.61046 0.0
C535 C 0.02398 0.06232 0.69604 0.0
C536 C 0.97967 0.01868 0.72991 0.0
C537 C 0.96452 0.09686 0.58523 0.0
C538 C 0.9884 0.13251 0.60683 0.0
C539 C 0.94504 0.13413 0.60896 0.0
C540 C 0.94364 0.10994 0.59357 0.0
C541 C 0.96723 0.14546 0.61499 0.0
C542 C 0.98666 0.10802 0.59375 0.0
C543 C 0.96343 0.07147 0.56886 0.0
C544 C 0.96031 0.99474 0.35742 0.0
C545 C 0.94359 0.98421 0.39838 0.0
H546 H 0.99456 0.01806 0.29118 0.0
C547 C 0.01608 0.98295 0.5809 0.0
C548 C 0.05162 0.03305 0.56802 0.0
C549 C 0.03366 0.95452 0.82442 0.0
C550 C 1.00448 0.93331 0.89077 0.0
C551 C 0.04455 0.94122 0.9311 0.0
C552 C 0.05056 0.95249 0.8738 0.0
C553 C 0.0218 0.93153 0.93949 0.0
C554 C 0.01059 0.94514 0.83367 0.0
C555 C 0.04035 0.96534 0.76236 0.0
H556 H 0.92888 0.14426 0.61496 0.0
H557 H 0.92635 0.10148 0.58805 0.0
H558 H 0.96768 0.16443 0.62393 0.0
H559 H 1.00259 0.09753 0.58876 0.0
H560 H 0.05773 0.93959 0.96877 0.0
H561 H 0.06849 0.95939 0.86794 0.0
H562 H 0.01808 0.92211 0.98357 0.0
H563 H 0.99738 0.94695 0.79611 0.0
C564 C 0.53692 0.98426 0.47659 0.0
C565 C 0.54543 0.94224 0.49119 0.0
C566 C 0.535 0.96355 0.51302 0.0
C567 C 0.55816 0.94207 0.43342 0.0
C568 C 0.5497 0.98399 0.41836 0.0
C569 C 0.56027 0.96286 0.39715 0.0
N570 N 0.52622 1.00453 0.49772 0.0
C571 C 0.5269 0.02466 0.46115 0.0
C572 C 0.5513 1.00493 0.38256 0.0
C573 C 0.5397 0.02528 0.40385 0.0
Gd574 Gd 0.5375 0.04014 0.72785 0.0
Gd575 Gd 0.50618 1.00102 0.59685 0.0
N576 N 0.52252 0.96406 0.56887 0.0
C577 C 0.54236 0.92151 0.52736 0.0
C578 C 0.51825 0.94353 0.60207 0.0
C579 C 0.52847 0.92212 0.58262 0.0
H580 H 0.50657 0.94335 0.64306 0.0
H581 H 0.52532 0.90601 0.60976 0.0
H582 H 0.57835 0.07388 0.65476 0.0
H583 H 0.51742 0.04029 0.47469 0.0
H584 H 0.59514 0.11437 0.66187 0.0
H585 H 0.5501 0.90483 0.51212 0.0
H586 H 0.56631 0.92587 0.41609 0.0
H587 H 0.51055 0.03025 0.86903 0.0
H588 H 0.56108 1.00545 0.33787 0.0
H589 H 0.54035 0.04143 0.37571 0.0
H590 H 0.5595 0.14708 0.85147 0.0
H591 H 0.57003 0.96237 0.35243 0.0
H592 H 0.51131 0.09454 0.97853 0.0
H593 H 0.49986 0.05216 0.96659 0.0
N594 N 0.52788 0.0597 0.82483 0.0
C595 C 0.5352 0.08256 0.83201 0.0
C596 C 0.51571 0.04864 0.87309 0.0
C597 C 0.51607 0.08496 0.93534 0.0
C598 C 0.50955 0.06107 0.92873 0.0
C599 C 0.5294 0.09593 0.88705 0.0
H600 H 0.53337 0.1301 0.93461 0.0
N601 N 0.55604 0.07782 0.73629 0.0
C602 C 0.54981 0.09199 0.78587 0.0
C603 C 0.57533 0.12349 0.7466 0.0
C604 C 0.55918 0.11523 0.79254 0.0
C605 C 0.57262 0.08539 0.69298 0.0
C606 C 0.58229 0.10837 0.69698 0.0
O607 O 0.51489 0.98131 0.68981 0.0
O608 O 0.51467 1.00992 0.76876 0.0
O609 O 0.5558 1.00646 0.7262 0.0
O610 O 0.57028 0.03589 0.78215 0.0
O611 O 0.47999 0.01815 0.66708 0.0
O612 O 0.49751 0.04297 0.74348 0.0
O613 O 0.52883 0.06132 0.63799 0.0
O614 O 0.50027 0.04104 0.57766 0.0
O615 O 0.48281 0.99627 0.51497 0.0
O616 O 0.47617 0.97646 0.6019 0.0
O617 O 0.55312 0.04026 0.62768 0.0
O618 O 0.54691 1.00166 0.60104 0.0
C619 C 0.51289 0.98747 0.75058 0.0
C620 C 0.47857 0.03295 0.71649 0.0
C621 C 0.59706 1.00753 0.73874 0.0
C622 C 0.62801 0.97736 0.73444 0.0
C623 C 0.63378 0.01568 0.68205 0.0
C624 C 0.61131 0.02299 0.70247 0.0
C625 C 0.64228 0.99317 0.6987 0.0
C626 C 0.60515 0.98466 0.75286 0.0
C627 C 0.57336 0.01417 0.76137 0.0
C628 C 0.55266 0.12912 0.84568 0.0
C629 C 0.53778 0.11946 0.89296 0.0
H630 H 0.58294 0.14123 0.74989 0.0
C631 C 0.51291 0.06051 0.59093 0.0
C632 C 0.55986 0.02115 0.59678 0.0
C633 C 0.44309 0.98992 0.54439 0.0
C634 C 0.41335 0.02115 0.55661 0.0
C635 C 0.4014 0.98053 0.52865 0.0
C636 C 0.42512 0.97337 0.53015 0.0
C637 C 0.39551 1.0042 0.54123 0.0
C638 C 0.43718 0.01362 0.55795 0.0
C639 C 0.46804 0.98251 0.54582 0.0
H640 H 0.64483 0.02764 0.65422 0.0
H641 H 0.6051 0.04056 0.68997 0.0
H642 H 0.66021 0.98845 0.685 0.0
H643 H 0.59357 0.97265 0.77914 0.0
H644 H 0.38752 0.96776 0.51688 0.0
H645 H 0.42945 0.955 0.51992 0.0
H646 H 0.377 1.00919 0.53708 0.0
H647 H 0.45128 0.02605 0.5702 0.0
C648 C 0.4674 0.49439 0.79808 0.0
C649 C 0.49066 0.49123 0.89571 0.0
C650 C 0.48717 0.50104 0.83425 0.0
C651 C 0.4747 0.47388 0.91866 0.0
C652 C 0.45091 0.47758 0.82175 0.0
C653 C 0.45493 0.46699 0.88167 0.0
N654 N 0.46422 0.50455 0.73964 0.0
C655 C 0.44383 0.50054 0.70521 0.0
C656 C 0.43068 0.47219 0.78485 0.0
C657 C 0.42696 0.48399 0.72679 0.0
Gd658 Gd 0.536 0.4998 0.57848 0.0
Gd659 Gd 0.49414 0.53094 0.70556 0.0
N660 N 0.50215 0.51809 0.81101 0.0
C661 C 0.5096 0.49975 0.93322 0.0
C662 C 0.51913 0.52804 0.85 0.0
C663 C 0.52359 0.51858 0.91075 0.0
H664 H 0.52915 0.5435 0.83492 0.0
H665 H 0.53757 0.52609 0.94059 0.0
H666 H 0.51322 0.51169 0.4357 0.0
H667 H 0.44101 0.50963 0.66028 0.0
H668 H 0.52303 0.53565 0.33957 0.0
H669 H 0.51294 0.49261 0.98058 0.0
H670 H 0.47714 0.46612 0.96568 0.0
H671 H 0.58869 0.49375 0.6566 0.0
H672 H 0.4176 0.45934 0.80136 0.0
H673 H 0.41112 0.48031 0.69863 0.0
H674 H 0.59843 0.57207 0.39177 0.0
H675 H 0.44258 0.45387 0.90046 0.0
H676 H 0.63776 0.5451 0.58215 0.0
H677 H 0.62769 0.51395 0.66139 0.0
N678 N 0.57526 0.51555 0.58151 0.0
C679 C 0.58118 0.53121 0.53467 0.0
C680 C 0.59221 0.50828 0.6242 0.0
C681 C 0.62025 0.53686 0.58129 0.0
C682 C 0.61463 0.51931 0.62611 0.0
C683 C 0.60374 0.54242 0.53338 0.0
H684 H 0.62662 0.56684 0.48124 0.0
N685 N 0.54444 0.52225 0.4864 0.0
C686 C 0.5654 0.53432 0.48472 0.0
C687 C 0.55603 0.54908 0.37913 0.0
C688 C 0.5716 0.54849 0.43162 0.0
C689 C 0.52956 0.522 0.43445 0.0
C690 C 0.53503 0.53556 0.38027 0.0
O691 O 0.49041 0.49106 0.68258 0.0
O692 O 0.52826 0.47862 0.66937 0.0
O693 O 0.52494 0.47305 0.51018 0.0
O694 O 0.5602 0.47125 0.55093 0.0
O695 O 0.53411 0.53629 0.72267 0.0
O696 O 0.5479 0.50097 0.68319 0.0
O697 O 0.52279 0.53746 0.55719 0.0
O698 O 0.52247 0.55383 0.6569 0.0
O699 O 0.47989 0.55456 0.77799 0.0
O700 O 0.46913 0.55865 0.67949 0.0
O701 O 0.49598 0.49671 0.55666 0.0
O702 O 0.47879 0.52948 0.6049 0.0
C703 C 0.50702 0.47526 0.69385 0.0
C704 C 0.55009 0.51924 0.72252 0.0
C705 C 0.53859 0.43523 0.53775 0.0
C706 C 0.50917 0.40532 0.57059 0.0
C707 C 0.54896 0.39356 0.53625 0.0
C708 C 0.55506 0.41731 0.52505 0.0
C709 C 0.52608 0.3875 0.55738 0.0
C710 C 0.51633 0.4292 0.56414 0.0
C711 C 0.54363 0.46001 0.51919 0.0
C712 C 0.59345 0.56081 0.43172 0.0
C713 C 0.60948 0.55786 0.48271 0.0
H714 H 0.56029 0.55951 0.33702 0.0
C715 C 0.52381 0.55636 0.59432 0.0
C716 C 0.47906 0.51296 0.55981 0.0
C717 C 0.47468 0.59325 0.74049 0.0
C718 C 0.50478 0.62479 0.74652 0.0
C719 C 0.46245 0.63425 0.75042 0.0
C720 C 0.4566 0.61014 0.74503 0.0
C721 C 0.48632 0.64157 0.75167 0.0
C722 C 0.49858 0.60062 0.74039 0.0
C723 C 0.4689 0.56784 0.73672 0.0
H724 H 0.56163 0.37968 0.52565 0.0
H725 H 0.57239 0.42163 0.50533 0.0
H726 H 0.52154 0.36881 0.56016 0.0
H727 H 0.5041 0.44326 0.57645 0.0
H728 H 0.44846 0.6473 0.75459 0.0
H729 H 0.43805 0.60467 0.74495 0.0
H730 H 0.49017 0.66031 0.75828 0.0
H731 H 0.51229 0.58732 0.73604 0.0
C732 C 1.00869 0.44564 0.73865 0.0
C733 C 0.02858 0.44588 0.84154 0.0
C734 C 0.01812 0.458 0.78963 0.0
C735 C 0.03037 0.42097 0.83934 0.0
C736 C 1.00908 0.42056 0.73769 0.0
C737 C 0.02058 0.4083 0.78745 0.0
N738 N 0.99738 0.45818 0.69254 0.0
C739 C 0.98438 0.44656 0.64646 0.0
C740 C 0.99704 0.40861 0.68825 0.0
C741 C 0.98426 0.42169 0.64311 0.0
Gd742 Gd 0.029 0.54676 0.57791 0.0
Gd743 Gd 1.00018 0.50018 0.69765 0.0
N744 N 0.01534 0.48187 0.79059 0.0
C745 C 0.03607 0.45912 0.89493 0.0
C746 C 0.02127 0.49469 0.84412 0.0
C747 C 0.03205 0.48361 0.89659 0.0
H748 H 0.01804 0.51358 0.84609 0.0
H749 H 0.03722 0.49396 0.93827 0.0
H750 H 0.05919 0.51733 0.46104 0.0
H751 H 0.97435 0.45648 0.61144 0.0
H752 H 0.05323 0.50585 0.34825 0.0
H753 H 0.04427 0.45053 0.93577 0.0
H754 H 0.03855 0.41131 0.87842 0.0
H755 H 0.9993 0.59702 0.59938 0.0
H756 H 0.9968 0.38935 0.68582 0.0
H757 H 0.97418 0.41261 0.60606 0.0
H758 H 0.98635 0.55223 0.28172 0.0
H759 H 0.02131 0.38904 0.78728 0.0
H760 H 0.96071 0.61271 0.42749 0.0
H761 H 0.97158 0.62275 0.53941 0.0
N762 N 1.00304 0.57216 0.52314 0.0
C763 C 0.9979 0.56678 0.46128 0.0
C764 C 0.99427 0.59228 0.55097 0.0
C765 C 0.97247 0.60112 0.45403 0.0
C766 C 0.97867 0.60692 0.51708 0.0
C767 C 0.9821 0.58084 0.42528 0.0
H768 H 0.96493 0.58523 0.33289 0.0
N769 N 0.02744 0.53746 0.46697 0.0
C770 C 1.01019 0.54847 0.43253 0.0
C771 C 0.02166 0.52698 0.33711 0.0
C772 C 1.00671 0.54344 0.3668 0.0
C773 C 0.04377 0.5237 0.43606 0.0
C774 C 0.04068 0.51754 0.37157 0.0
O775 O 0.03862 0.50964 0.7227 0.0
O776 O 0.05507 0.52079 0.62592 0.0
O777 O 0.05088 0.57233 0.52695 0.0
O778 O 0.05439 0.56931 0.62952 0.0
O779 O 0.01792 0.53338 0.74057 0.0
O780 O 1.0098 0.56131 0.66504 0.0
O781 O 0.98858 0.54409 0.58799 0.0
O782 O 0.98409 0.50427 0.59815 0.0
O783 O 0.97289 0.52663 0.71361 0.0
O784 O 0.96814 0.49093 0.7505 0.0
O785 O 0.03921 0.50798 0.55803 0.0
O786 O 1.00857 0.48499 0.59843 0.0
C787 C 0.05733 0.51399 0.6864 0.0
C788 C 0.01443 0.55572 0.72468 0.0
C789 C 0.08921 0.57527 0.56901 0.0
C790 C 0.12237 0.54902 0.54168 0.0
C791 C 0.12908 0.5915 0.55984 0.0
C792 C 0.10483 0.59473 0.57199 0.0
C793 C 0.13782 0.56891 0.54442 0.0
C794 C 0.09805 0.5527 0.55443 0.0
C795 C 0.06341 0.57815 0.57715 0.0
C796 C 0.98949 0.55606 0.33199 0.0
C797 C 0.97732 0.57487 0.36109 0.0
H798 H 0.01955 0.52257 0.28681 0.0
C799 C 0.97679 0.52449 0.57395 0.0
C800 C 0.02615 0.48833 0.55755 0.0
C801 C 0.93477 0.51033 0.70559 0.0
C802 C 0.89817 0.53106 0.67651 0.0
C803 C 0.90948 0.49464 0.62092 0.0
C804 C 0.92987 0.49302 0.65877 0.0
C805 C 0.89394 0.51366 0.62882 0.0
C806 C 0.91866 0.52886 0.71535 0.0
C807 C 0.95806 0.51123 0.73789 0.0
H808 H 0.14113 0.60661 0.56155 0.0
H809 H 0.09826 0.61236 0.58278 0.0
H810 H 0.15656 0.56731 0.53357 0.0
H811 H 0.08553 0.53809 0.55289 0.0
H812 H 0.90604 0.48146 0.58403 0.0
H813 H 0.94216 0.47868 0.65002 0.0
H814 H 0.87888 0.51472 0.59659 0.0
H815 H 0.92254 0.54162 0.75297 0.0
H816 H 0.1751 0.01776 0.3673 0.0
H817 H 0.15696 0.08387 0.27326 0.0
H818 H 0.1194 0.08544 0.33414 0.0
H819 H 0.11246 0.99391 0.3741 0.0
H820 H 0.11667 0.98052 0.4517 0.0
H821 H 0.14148 0.98346 0.39753 0.0
H822 H 0.16524 1.00628 0.48517 0.0
H823 H 0.14037 1.00345 0.53906 0.0
H824 H 0.1525 0.03246 0.52113 0.0
H825 H 0.08619 0.08273 0.41335 0.0
H826 H 0.05635 0.07315 0.49525 0.0
H827 H 0.0926 1.00689 0.53573 0.0
C828 C 0.16278 0.03207 0.35803 0.0
C829 C 0.16884 0.0505 0.31414 0.0
C830 C 0.15256 0.06936 0.30533 0.0
C831 C 0.13123 0.0705 0.34023 0.0
C832 C 0.12603 0.05254 0.38414 0.0
C833 C 0.14102 0.03338 0.39244 0.0
C834 C 0.13096 0.01675 0.44383 0.0
C835 C 0.12504 0.9922 0.41507 0.0
C836 C 0.14831 0.01462 0.50065 0.0
C837 C 0.10832 0.02979 0.46358 0.0
C838 C 0.10608 0.0505 0.42863 0.0
C839 C 0.08749 0.06624 0.43981 0.0
C840 C 0.07045 0.06053 0.48662 0.0
C841 C 0.07147 0.03898 0.52182 0.0
C842 C 0.09101 0.02351 0.51017 0.0
H843 H 0.472 0.14773 0.29751 0.0
H844 H 0.53541 0.18944 0.3395 0.0
H845 H 0.54628 0.16093 0.42461 0.0
H846 H 0.45659 0.1291 0.45442 0.0
H847 H 0.4485 0.0992 0.43015 0.0
H848 H 0.44668 0.12316 0.37357 0.0
H849 H 0.47372 0.09799 0.2984 0.0
H850 H 0.47604 0.07513 0.35857 0.0
H851 H 0.50259 0.0888 0.32669 0.0
H852 H 0.54808 0.13063 0.51293 0.0
H853 H 0.54461 0.0976 0.58823 0.0
H854 H 0.48155 0.07186 0.48794 0.0
C855 C 0.48849 0.15049 0.32363 0.0
C856 C 0.503 0.1709 0.31102 0.0
C857 C 0.52424 0.1739 0.34701 0.0
C858 C 0.53043 0.15784 0.39605 0.0
C859 C 0.51553 0.13832 0.40824 0.0
C860 C 0.49535 0.13411 0.37186 0.0
C861 C 0.48295 0.11122 0.39423 0.0
C862 C 0.45715 0.11601 0.41439 0.0
C863 C 0.48388 0.09216 0.34132 0.0
C864 C 0.49841 0.10411 0.45155 0.0
C865 C 0.51715 0.12006 0.45805 0.0
C866 C 0.53363 0.11791 0.50762 0.0
C867 C 0.53133 0.09893 0.55091 0.0
C868 C 0.51276 0.08166 0.54541 0.0
C869 C 0.49595 0.08455 0.49449 0.0
H870 H 0.39202 0.46307 0.2801 0.0
H871 H 0.35225 0.52869 0.29709 0.0
H872 H 0.38231 0.54393 0.37423 0.0
H873 H 0.40632 0.45748 0.44379 0.0
H874 H 0.43568 0.44563 0.43103 0.0
H875 H 0.41277 0.44104 0.37164 0.0
H876 H 0.44002 0.46005 0.28546 0.0
H877 H 0.46297 0.46458 0.34499 0.0
H878 H 0.45229 0.4894 0.29883 0.0
H879 H 0.41449 0.55027 0.45926 0.0
H880 H 0.44709 0.5486 0.53817 0.0
H881 H 0.46612 0.47841 0.46869 0.0
C882 C 0.38966 0.48081 0.29926 0.0
C883 C 0.36941 0.49461 0.28195 0.0
C884 C 0.36755 0.51781 0.3082 0.0
C885 C 0.3845 0.52654 0.35279 0.0
C886 C 0.4035 0.512 0.37083 0.0
C887 C 0.40635 0.48972 0.34416 0.0
C888 C 0.42776 0.47719 0.37366 0.0
C889 C 0.42016 0.45396 0.407 0.0
C890 C 0.4469 0.47254 0.32269 0.0
C891 C 0.43628 0.49568 0.42224 0.0
C892 C 0.42205 0.51565 0.41953 0.0
C893 C 0.4258 0.53478 0.46114 0.0
C894 C 0.44443 0.53357 0.50629 0.0
C895 C 0.45945 0.51338 0.51032 0.0
C896 C 0.45522 0.49421 0.46704 0.0
H897 H 0.99179 0.37924 0.32305 0.0
H898 H 0.06516 0.37832 0.25944 0.0
H899 H 0.07358 0.41428 0.32515 0.0
H900 H 0.9862 0.44551 0.33239 0.0
H901 H 0.96757 0.44383 0.40246 0.0
H902 H 0.96681 0.42017 0.34397 0.0
H903 H 0.97682 0.38948 0.43296 0.0
H904 H 0.97708 0.41331 0.49058 0.0
H905 H 1.00272 0.39439 0.48278 0.0
H906 H 0.07491 0.44796 0.41011 0.0
H907 H 0.0681 0.47753 0.49649 0.0
H908 H 0.99383 0.45651 0.50395 0.0
C909 C 1.0095 0.38696 0.32143 0.0
C910 C 0.02778 0.37586 0.28519 0.0
C911 C 0.05072 0.38659 0.28533 0.0
C912 C 0.05571 0.40693 0.3233 0.0
C913 C 0.03754 0.41669 0.36071 0.0
C914 C 0.01474 0.40727 0.35893 0.0
C915 C 0.99853 0.42037 0.40534 0.0
C916 C 0.9786 0.43323 0.36885 0.0
C917 C 0.98821 0.40335 0.45592 0.0
C918 C 0.01587 0.43811 0.4354 0.0
C919 C 0.03827 0.43589 0.4087 0.0
C920 C 0.05731 0.44999 0.43031 0.0
C921 C 0.05329 0.46684 0.47942 0.0
C922 C 0.03043 0.46971 0.50692 0.0
C923 C 0.01157 0.45488 0.48445 0.0
H924 H 0.89551 0.9694 1.01347 0.0
H925 H 0.84979 0.03019 0.98149 0.0
H926 H 0.87911 0.04613 0.904 0.0
H927 H 0.95335 0.99812 0.99185 0.0
H928 H 0.96553 0.97334 0.94828 0.0
H929 H 0.94275 0.96839 1.00758 0.0
H930 H 0.91671 0.94665 0.92228 0.0
H931 H 0.93912 0.95192 0.8621 0.0
H932 H 0.90912 0.96182 0.84928 0.0
H933 H 0.91217 0.0536 0.82192 0.0
H934 H 0.94544 0.05264 0.74578 0.0
H935 H 0.96853 0.98527 0.82517 0.0
C936 C 0.89144 0.98609 0.99056 0.0
C937 C 0.86984 0.99831 1.0041 0.0
C938 C 0.86608 0.02047 0.97337 0.0
C939 C 0.88264 0.02959 0.92859 0.0
C940 C 0.90305 0.01643 0.91448 0.0
C941 C 0.90751 0.99518 0.9449 0.0
C942 C 0.9297 0.98347 0.91763 0.0
C943 C 0.94897 0.98064 0.96943 0.0
C944 C 0.92329 0.95952 0.88606 0.0
C945 C 0.93732 1.00149 0.86747 0.0
C946 C 0.92167 0.0204 0.86649 0.0
C947 C 0.92449 0.0389 0.82282 0.0
C948 C 0.94358 0.03807 0.7793 0.0
C949 C 0.95991 0.01882 0.7787 0.0
C950 C 0.95662 1.00033 0.82407 0.0
H951 H 0.53646 0.85896 0.90928 0.0
H952 H 0.50979 0.88707 0.08932 0.0
H953 H 0.50079 0.92503 0.03511 0.0
H954 H 0.56612 0.91326 0.86038 0.0
H955 H 0.55971 0.9086 0.7766 0.0
H956 H 0.56274 0.88346 0.82932 0.0
H957 H 0.52082 0.86853 0.79422 0.0
H958 H 0.51767 0.89391 0.74234 0.0
H959 H 0.4956 0.88794 0.80291 0.0
H960 H 0.49577 0.96125 0.95993 0.0
H961 H 0.49557 0.99126 0.87351 0.0
H962 H 0.52792 0.94035 0.74458 0.0
C963 C 0.52899 0.87302 0.93825 0.0
C964 C 0.52408 0.8695 1.00476 0.0
C965 C 0.51357 0.88868 0.03869 0.0
C966 C 0.50853 0.91056 1.00816 0.0
C967 C 0.51408 0.91338 0.94322 0.0
C968 C 0.52416 0.89506 0.90879 0.0
C969 C 0.52917 0.90274 0.84 0.0
C970 C 0.55603 0.90196 0.82575 0.0
C971 C 0.51496 0.88736 0.79204 0.0
C972 C 0.52021 0.92823 0.8407 0.0
C973 C 0.51154 0.93405 0.90068 0.0
C974 C 0.50259 0.95674 0.91302 0.0
C975 C 0.50268 0.97382 0.86344 0.0
C976 C 0.51169 0.96846 0.80157 0.0
C977 C 0.52045 0.94514 0.79053 0.0
H978 H 0.64994 0.57063 0.96707 0.0
H979 H 0.67249 0.4976 0.99584 0.0
H980 H 0.63933 0.48376 0.92721 0.0
H981 H 0.58622 0.55979 0.95952 0.0
H982 H 0.5811 0.58083 0.89609 0.0
H983 H 0.6054 0.58549 0.95149 0.0
H984 H 0.63484 0.58794 0.85774 0.0
H985 H 0.61142 0.58268 0.80006 0.0
H986 H 0.63691 0.56352 0.80184 0.0
H987 H 0.60474 0.47773 0.84959 0.0
H988 H 0.57194 0.47999 0.77109 0.0
H989 H 0.57249 0.55695 0.78729 0.0
C990 C 0.64814 0.55167 0.95924 0.0
C991 C 0.66433 0.53532 0.98794 0.0
C992 C 0.66047 0.51068 0.97625 0.0
C993 C 0.64166 0.50259 0.93656 0.0
C994 C 0.62659 0.51922 0.90814 0.0
C995 C 0.6296 0.54328 0.91909 0.0
C996 C 0.61163 0.55754 0.8802 0.0
C997 C 0.59512 0.57176 0.92447 0.0
C998 C 0.62446 0.5739 0.83217 0.0
C999 C 0.59798 0.53778 0.84566 0.0
C1000 C 0.60692 0.5158 0.86267 0.0
C1001 C 0.59765 0.49487 0.83624 0.0
C1002 C 0.57898 0.49637 0.79131 0.0
C1003 C 0.56949 0.51863 0.77243 0.0
C1004 C 0.57914 0.53963 0.80071 0.0
H1005 H 0.97814 0.67879 0.8953 0.0
H1006 H 0.02249 0.6594 0.05701 0.0
H1007 H 0.03509 0.62306 0.99844 0.0
H1008 H 0.95716 0.62104 0.85834 0.0
H1009 H 0.95723 0.62511 0.77269 0.0
H1010 H 0.95336 0.65032 0.82495 0.0
H1011 H 0.98936 0.67162 0.77223 0.0
H1012 H 0.99319 0.64655 0.7193 0.0
H1013 H 0.01767 0.65676 0.76854 0.0
H1014 H 0.03948 0.5862 0.92431 0.0
H1015 H 0.03832 0.55515 0.83985 0.0
H1016 H 0.9918 0.59938 0.72546 0.0
C1017 C 0.99083 0.66712 0.91819 0.0
C1018 C 0.99934 0.67215 0.98116 0.0
C1019 C 0.01592 0.65628 1.00884 0.0
C1020 C 0.02299 0.63543 0.97595 0.0
C1021 C 0.01357 0.63068 0.91488 0.0
C1022 C 0.9981 0.64637 0.88597 0.0
C1023 C 0.99 0.6371 0.82071 0.0
C1024 C 0.96284 0.63316 0.81912 0.0
C1025 C 0.99804 0.65402 0.76702 0.0
C1026 C 1.00313 0.61359 0.81723 0.0
C1027 C 0.01653 0.61007 0.87217 0.0
C1028 C 0.02925 0.58904 0.88099 0.0
C1029 C 0.02838 0.57138 0.83273 0.0
C1030 C 0.01509 0.57472 0.77551 0.0
C1031 C 1.00241 0.59629 0.768 0.0
H1032 H 0.09664 0.17102 0.41529 0.0
H1033 H 0.09574 0.23645 0.52475 0.0
H1034 H 0.07547 0.21576 0.61283 0.0
H1035 H 0.04742 0.15379 0.42536 0.0
H1036 H 0.04946 0.12232 0.44139 0.0
H1037 H 0.07384 0.13735 0.40455 0.0
H1038 H 0.10178 0.12289 0.49341 0.0
H1039 H 0.07757 0.10814 0.53433 0.0
H1040 H 0.09561 0.12964 0.57625 0.0
H1041 H 0.04102 0.19472 0.66026 0.0
H1042 H 1.00369 0.1721 0.67583 0.0
H1043 H 0.02678 0.12094 0.53319 0.0
C1044 C 0.09394 0.18053 0.45976 0.0
C1045 C 0.09666 0.20547 0.46213 0.0
C1046 C 0.09304 0.21738 0.5212 0.0
C1047 C 0.08154 0.20572 0.57175 0.0
C1048 C 0.07521 0.18187 0.56365 0.0
C1049 C 0.08267 0.16892 0.51069 0.0
C1050 C 0.07023 0.14494 0.50769 0.0
C1051 C 0.05958 0.13937 0.44087 0.0
C1052 C 0.08733 0.12525 0.52912 0.0
C1053 C 0.05126 0.14873 0.55776 0.0
C1054 C 0.05522 0.16938 0.59238 0.0
C1055 C 0.03824 0.17806 0.63512 0.0
C1056 C 0.0168 0.16534 0.64263 0.0
C1057 C 0.01213 0.14457 0.60586 0.0
C1058 C 0.02992 0.13616 0.56391 0.0
H1059 H 0.31914 0.11435 0.51232 0.0
H1060 H 0.37473 0.15552 0.42042 0.0
H1061 H 0.40473 0.13549 0.48676 0.0
H1062 H 0.3553 0.1025 0.6766 0.0
H1063 H 0.34219 0.07313 0.67814 0.0
H1064 H 0.32494 0.09808 0.65056 0.0
H1065 H 0.31608 0.07535 0.5453 0.0
H1066 H 0.33366 0.05082 0.57091 0.0
H1067 H 0.34055 0.06544 0.49629 0.0
H1068 H 0.42777 0.10229 0.52597 0.0
H1069 H 0.44084 0.061 0.52962 0.0
H1070 H 0.37185 0.0399 0.60505 0.0
C1071 C 0.33744 0.12042 0.5097 0.0
C1072 C 0.34463 0.13638 0.46112 0.0
C1073 C 0.36884 0.1433 0.45731 0.0
C1074 C 0.38601 0.13204 0.49523 0.0
C1075 C 0.37864 0.1142 0.53747 0.0
C1076 C 0.35473 0.10894 0.54654 0.0
C1077 C 0.35153 0.08559 0.5821 0.0
C1078 C 0.34299 0.0901 0.65095 0.0
C1079 C 0.3345 0.06832 0.54641 0.0
C1080 C 0.37693 0.0768 0.58205 0.0
C1081 C 0.39244 0.09409 0.55964 0.0
C1082 C 0.41593 0.08876 0.54448 0.0
C1083 C 0.42326 0.06503 0.54735 0.0
C1084 C 0.40726 0.04675 0.56666 0.0
C1085 C 0.38438 0.05321 0.58843 0.0
H1086 H 0.42105 0.30969 0.50852 0.0
H1087 H 0.38134 0.36417 0.40992 0.0
H1088 H 0.39691 0.3941 0.48523 0.0
H1089 H 0.42453 0.34574 0.6797 0.0
H1090 H 0.45398 0.33379 0.69011 0.0
H1091 H 0.43062 0.31558 0.65553 0.0
H1092 H 0.45749 0.3075 0.55781 0.0
H1093 H 0.4805 0.32592 0.5905 0.0
H1094 H 0.46883 0.33228 0.51178 0.0
H1095 H 0.42889 0.41778 0.52734 0.0
H1096 H 0.46956 0.43183 0.53774 0.0
H1097 H 0.48971 0.36445 0.62307 0.0
C1098 C 0.41421 0.3276 0.50609 0.0
C1099 C 0.40032 0.33471 0.45298 0.0
C1100 C 0.39213 0.35838 0.45 0.0
C1101 C 0.40088 0.37552 0.493 0.0
C1102 C 0.41736 0.36859 0.53956 0.0
C1103 C 0.42316 0.34488 0.54847 0.0
C1104 C 0.44511 0.34257 0.59078 0.0
C1105 C 0.43813 0.33391 0.65802 0.0
C1106 C 0.46407 0.32616 0.56078 0.0
C1107 C 0.45329 0.36829 0.59325 0.0
C1108 C 0.43634 0.38314 0.56679 0.0
C1109 C 0.44185 0.40657 0.5507 0.0
C1110 C 0.4654 0.41447 0.5571 0.0
C1111 C 0.48343 0.39917 0.58076 0.0
C1112 C 0.47664 0.37647 0.60358 0.0
H1113 H 0.21625 0.45301 0.44553 0.0
H1114 H 0.15698 0.40754 0.38775 0.0
H1115 H 0.12971 0.43342 0.44694 0.0
H1116 H 0.18687 0.47015 0.61331 0.0
H1117 H 0.20064 0.49912 0.60739 0.0
H1118 H 0.21607 0.4732 0.57843 0.0
H1119 H 0.22092 0.49394 0.46872 0.0
H1120 H 0.2045 0.51932 0.49541 0.0
H1121 H 0.19475 0.50315 0.42524 0.0
H1122 H 0.10999 0.47136 0.46585 0.0
H1123 H 0.09746 0.51207 0.48414 0.0
H1124 H 0.16805 0.53019 0.55559 0.0
C1125 C 0.19785 0.44733 0.44862 0.0
C1126 C 0.18872 0.42871 0.40927 0.0
C1127 C 0.16437 0.42229 0.41495 0.0
C1128 C 0.14871 0.43678 0.44907 0.0
C1129 C 0.15793 0.45672 0.48058 0.0
C1130 C 0.18211 0.46117 0.48449 0.0
C1131 C 0.1871 0.48509 0.51623 0.0
C1132 C 0.19833 0.48168 0.5828 0.0
C1133 C 0.20272 0.5013 0.47381 0.0
C1134 C 0.16202 0.49454 0.52185 0.0
C1135 C 0.14555 0.47781 0.5011 0.0
C1136 C 0.12219 0.48398 0.48771 0.0
C1137 C 0.11521 0.50742 0.49854 0.0
C1138 C 0.13107 0.52454 0.52558 0.0
C1139 C 0.15498 0.51778 0.5368 0.0
H1140 H 0.90602 0.86662 0.08733 0.0
H1141 H 0.88146 0.83548 0.9083 0.0
H1142 H 0.90452 0.86574 0.8488 0.0
H1143 H 0.91258 0.93087 0.03062 0.0
H1144 H 0.93925 0.93416 0.07853 0.0
H1145 H 0.91525 0.91525 0.10539 0.0
H1146 H 0.94475 0.8807 0.11594 0.0
H1147 H 0.96883 0.89867 0.08642 0.0
H1148 H 0.9613 0.87108 0.04674 0.0
H1149 H 0.93878 0.89043 0.8114 0.0
H1150 H 0.97692 0.91149 0.79774 0.0
H1151 H 0.97809 0.9281 1.00129 0.0
C1152 C 0.90406 0.86701 0.03571 0.0
C1153 C 0.89183 0.84861 1.00256 0.0
C1154 C 0.89066 0.8494 0.93477 0.0
C1155 C 0.90377 0.86652 0.9006 0.0
C1156 C 0.91758 0.88292 0.93502 0.0
C1157 C 0.91725 0.88372 1.00123 0.0
C1158 C 0.93639 0.90021 0.02749 0.0
C1159 C 0.92521 0.92142 0.06249 0.0
C1160 C 0.95383 0.88685 0.07167 0.0
C1161 C 0.94835 0.90772 0.96586 0.0
C1162 C 0.9372 0.89768 0.91304 0.0
C1163 C 0.9471 0.89919 0.85204 0.0
C1164 C 0.96886 0.91129 0.8448 0.0
C1165 C 0.98055 0.92192 0.89824 0.0
C1166 C 0.96977 0.92032 0.95926 0.0
H1167 H 0.66998 0.89846 1.01424 0.0
H1168 H 0.72418 0.87107 0.88685 0.0
H1169 H 0.70073 0.88457 0.79398 0.0
H1170 H 0.61587 0.89066 0.89545 0.0
H1171 H 0.604 0.91797 0.92712 0.0
H1172 H 0.61985 0.89793 0.97905 0.0
H1173 H 0.64761 0.93309 1.01166 0.0
H1174 H 0.63264 0.95268 0.95791 0.0
H1175 H 0.66431 0.94847 0.95045 0.0
H1176 H 0.67873 0.91169 0.72019 0.0
H1177 H 0.65857 0.94641 0.67281 0.0
H1178 H 0.61995 0.95661 0.85047 0.0
C1179 C 0.67627 0.89375 0.96697 0.0
C1180 C 0.69914 0.88398 0.95819 0.0
C1181 C 0.70687 0.87886 0.89505 0.0
C1182 C 0.69356 0.88636 0.84183 0.0
C1183 C 0.67225 0.89834 0.85254 0.0
C1184 C 0.66326 0.9013 0.91377 0.0
C1185 C 0.64266 0.9185 0.91439 0.0
C1186 C 0.61921 0.90547 0.92987 0.0
C1187 C 0.64712 0.9394 0.96127 0.0
C1188 C 0.64305 0.9266 0.84544 0.0
C1189 C 0.65959 0.91424 0.80976 0.0
C1190 C 0.66521 0.92096 0.74716 0.0
C1191 C 0.65393 0.94095 0.72093 0.0
C1192 C 0.63753 0.95428 0.75772 0.0
C1193 C 0.63172 0.94646 0.82008 0.0
H1194 H 0.59923 0.72166 0.80296 0.0
H1195 H 0.63972 0.66836 0.90465 0.0
H1196 H 0.61872 0.63692 0.84446 0.0
H1197 H 0.54971 0.70098 0.81863 0.0
H1198 H 0.5358 0.70578 0.74179 0.0
H1199 H 0.56042 0.72408 0.76584 0.0
H1200 H 0.5844 0.71254 0.66497 0.0
H1201 H 0.55918 0.69504 0.63823 0.0
H1202 H 0.58813 0.6816 0.64457 0.0
H1203 H 0.58324 0.61399 0.8157 0.0
H1204 H 0.54234 0.60006 0.79932 0.0
H1205 H 0.52525 0.66682 0.70599 0.0
C1206 C 0.60506 0.70351 0.80909 0.0
C1207 C 0.6206 0.69745 0.85985 0.0
C1208 C 0.62749 0.67342 0.86691 0.0
C1209 C 0.61562 0.65539 0.83271 0.0
C1210 C 0.59772 0.66183 0.7897 0.0
C1211 C 0.59331 0.68541 0.77506 0.0
C1212 C 0.57043 0.68783 0.73672 0.0
C1213 C 0.5531 0.70569 0.7677 0.0
C1214 C 0.57587 0.69465 0.66697 0.0
C1215 C 0.56102 0.6626 0.74049 0.0
C1216 C 0.57732 0.64772 0.76937 0.0
C1217 C 0.57089 0.62495 0.7894 0.0
C1218 C 0.54737 0.61723 0.78007 0.0
C1219 C 0.53032 0.63221 0.75053 0.0
C1220 C 0.53766 0.65489 0.72886 0.0
H1221 H 0.85327 0.64193 0.86419 0.0
H1222 H 0.78232 0.62006 0.80421 0.0
H1223 H 0.79927 0.59681 0.71708 0.0
H1224 H 0.8822 0.63671 0.69068 0.0
H1225 H 0.9091 0.62568 0.72699 0.0
H1226 H 0.89181 0.64802 0.76756 0.0
H1227 H 0.88987 0.62088 0.86727 0.0
H1228 H 0.90634 0.5982 0.82679 0.0
H1229 H 0.87744 0.59129 0.85972 0.0
H1230 H 0.82206 0.56453 0.67148 0.0
H1231 H 0.84982 0.5322 0.65109 0.0
H1232 H 0.90781 0.57614 0.72578 0.0
C1233 C 0.84132 0.6333 0.83042 0.0
C1234 C 0.8165 0.63272 0.84174 0.0
C1235 C 0.80137 0.62117 0.79667 0.0
C1236 C 0.81088 0.60766 0.74682 0.0
C1237 C 0.83552 0.60634 0.74142 0.0
C1238 C 0.85065 0.61969 0.78008 0.0
C1239 C 0.87634 0.61219 0.77089 0.0
C1240 C 0.8907 0.63182 0.73698 0.0
C1241 C 0.88815 0.60522 0.83496 0.0
C1242 C 0.87281 0.5908 0.72741 0.0
C1243 C 0.8492 0.588 0.71014 0.0
C1244 C 0.84083 0.56717 0.68133 0.0
C1245 C 0.85691 0.54874 0.66997 0.0
C1246 C 0.88139 0.55132 0.68582 0.0
C1247 C 0.88934 0.57311 0.71322 0.0
H1248 H 0.01909 0.16571 0.96665 0.0
H1249 H 0.06261 0.20929 0.84171 0.0
H1250 H 0.06357 0.17646 0.76199 0.0
H1251 H 0.04612 0.10915 0.93239 0.0
H1252 H 0.01824 0.09298 0.93454 0.0
H1253 H 0.02182 0.11989 0.98056 0.0
H1254 H 0.98424 0.1367 0.92385 0.0
H1255 H 0.98143 0.10983 0.87704 0.0
H1256 H 0.98352 0.13824 0.83752 0.0
H1257 H 0.06146 0.13731 0.69785 0.0
H1258 H 0.05183 0.09829 0.64818 0.0
H1259 H 1.00912 0.07982 0.81361 0.0
C1260 C 0.02852 0.16842 0.92202 0.0
C1261 C 0.04063 0.19025 0.9102 0.0
C1262 C 0.05296 0.19294 0.8515 0.0
C1263 C 0.05368 0.17428 0.80605 0.0
C1264 C 0.04171 0.15292 0.81925 0.0
C1265 C 0.02903 0.15005 0.87548 0.0
C1266 C 0.01726 0.12551 0.87736 0.0
C1267 C 0.02644 0.11103 0.93461 0.0
C1268 C 0.98999 0.12771 0.87904 0.0
C1269 C 0.0255 0.11487 0.81397 0.0
C1270 C 0.0397 0.13094 0.78131 0.0
C1271 C 0.04972 0.125 0.72218 0.0
C1272 C 0.04423 0.1027 0.69434 0.0
C1273 C 0.02943 0.08604 0.72624 0.0
C1274 C 0.02033 0.09219 0.78756 0.0
H1275 H 0.38823 0.0754 0.99271 0.0
H1276 H 0.33249 0.03284 0.90318 0.0
H1277 H 0.36131 0.02009 0.81995 0.0
H1278 H 0.41419 0.09677 0.84661 0.0
H1279 H 0.44419 0.09639 0.87757 0.0
H1280 H 0.41953 0.10087 0.9312 0.0
H1281 H 0.43295 0.0649 0.99988 0.0
H1282 H 0.45779 0.06096 0.9468 0.0
H1283 H 0.43758 0.03652 0.96149 0.0
H1284 H 0.39752 0.01258 0.7441 0.0
H1285 H 0.436 1.0102 0.68796 0.0
H1286 H 0.46684 0.06048 0.82319 0.0
C1287 C 0.38177 0.06352 0.9555 0.0
C1288 C 0.35763 0.05543 0.95492 0.0
C1289 C 0.35067 0.03931 0.90572 0.0
C1290 C 0.36699 0.03211 0.85772 0.0
C1291 C 0.39036 0.04113 0.85902 0.0
C1292 C 0.39765 0.05648 0.90703 0.0
C1293 C 0.4235 0.0641 0.89789 0.0
C1294 C 0.42545 0.09114 0.88771 0.0
C1295 C 0.43885 0.05612 0.95493 0.0
C1296 C 0.42991 0.05061 0.83717 0.0
C1297 C 0.4106 0.0374 0.8154 0.0
C1298 C 0.41253 0.02311 0.76081 0.0
C1299 C 0.43458 0.02211 0.72844 0.0
C1300 C 0.4547 0.03559 0.74934 0.0
C1301 C 0.45201 0.0501 0.80477 0.0
H1302 H 0.52112 0.37488 0.9694 0.0
H1303 H 0.45979 0.33913 0.88651 0.0
H1304 H 0.45873 0.36894 0.79941 0.0
H1305 H 0.50393 0.43221 0.94169 0.0
H1306 H 0.53207 0.44503 0.91782 0.0
H1307 H 0.53134 0.41952 0.96992 0.0
H1308 H 0.55691 0.39471 0.89339 0.0
H1309 H 0.55959 0.42033 0.84197 0.0
H1310 H 0.54873 0.39244 0.80994 0.0
H1311 H 0.46031 0.4069 0.73114 0.0
H1312 H 0.46911 0.44499 0.67594 0.0
H1313 H 0.53194 0.45462 0.79422 0.0
C1314 C 0.5082 0.37268 0.93118 0.0
C1315 C 0.49097 0.35397 0.93402 0.0
C1316 C 0.47365 0.35262 0.8845 0.0
C1317 C 0.47273 0.36977 0.83517 0.0
C1318 C 0.48946 0.38833 0.83485 0.0
C1319 C 0.50739 0.38946 0.88041 0.0
C1320 C 0.52297 0.4115 0.86942 0.0
C1321 C 0.52256 0.42806 0.92818 0.0
C1322 C 0.54857 0.40431 0.85268 0.0
C1323 C 0.51065 0.4229 0.81193 0.0
C1324 C 0.49115 0.40938 0.79325 0.0
C1325 C 0.47592 0.41721 0.74454 0.0
C1326 C 0.481 0.43896 0.7134 0.0
C1327 C 0.50149 0.45259 0.72939 0.0
C1328 C 0.51646 0.44433 0.77962 0.0
H1329 H 0.15469 0.50222 0.97062 0.0
H1330 H 0.20973 0.50104 0.8253 0.0
H1331 H 0.17884 0.5054 0.74101 0.0
H1332 H 0.11091 0.46865 0.88416 0.0
H1333 H 0.08602 0.48575 0.91242 0.0
H1334 H 0.11246 0.48339 0.96096 0.0
H1335 H 0.11597 0.52936 0.96543 0.0
H1336 H 0.08945 0.53174 0.91707 0.0
H1337 H 0.11668 0.54604 0.89172 0.0
H1338 H 0.1407 0.50653 0.67122 0.0
H1339 H 0.10015 0.50868 0.62464 0.0
H1340 H 0.07017 0.51164 0.81517 0.0
C1341 C 0.16035 0.50305 0.92109 0.0
C1342 C 0.18492 0.50123 0.90505 0.0
C1343 C 0.19126 0.50263 0.83937 0.0
C1344 C 0.17372 0.50492 0.79098 0.0
C1345 C 0.14971 0.50612 0.80854 0.0
C1346 C 0.14308 0.5056 0.87226 0.0
C1347 C 0.11609 0.50731 0.87867 0.0
C1348 C 0.10577 0.48494 0.91097 0.0
C1349 C 0.10915 0.52996 0.9154 0.0
C1350 C 0.10847 0.50868 0.80869 0.0
C1351 C 0.1281 0.50779 0.76889 0.0
C1352 C 0.12536 0.50784 0.70227 0.0
C1353 C 0.10221 0.50933 0.67596 0.0
C1354 C 0.08181 0.51114 0.71543 0.0
C1355 C 0.08521 0.51049 0.78302 0.0
H1356 H 0.97934 0.87892 0.33053 0.0
H1357 H 0.03482 0.83533 0.41424 0.0
H1358 H 0.0455 0.86852 0.48728 0.0
H1359 H 0.01067 0.93468 0.34003 0.0
H1360 H 0.98486 0.95182 0.36044 0.0
H1361 H 0.98157 0.92522 0.31287 0.0
H1362 H 0.95164 0.90771 0.39369 0.0
H1363 H 0.95407 0.93425 0.44186 0.0
H1364 H 0.95976 0.90564 0.47717 0.0
H1365 H 0.0497 0.90724 0.55353 0.0
H1366 H 0.047 0.94665 0.60545 0.0
H1367 H 0.98722 0.96398 0.48297 0.0
C1368 C 0.99359 0.87599 0.36456 0.0
C1369 C 1.00603 0.85396 0.36615 0.0
C1370 C 0.02503 0.85179 0.41079 0.0
C1371 C 0.03113 0.87061 0.45309 0.0
C1372 C 0.01812 0.89174 0.45086 0.0
C1373 C 0.99972 0.89447 0.40758 0.0
C1374 C 0.98833 0.91884 0.41492 0.0
C1375 C 0.99154 0.93349 0.35339 0.0
C1376 C 0.96188 0.91646 0.43297 0.0
C1377 C 1.00286 0.92938 0.46992 0.0
C1378 C 0.02015 0.91357 0.4895 0.0
C1379 C 0.03612 0.9196 0.53844 0.0
C1380 C 0.03442 0.94218 0.56776 0.0
C1381 C 0.01669 0.95875 0.54921 0.0
C1382 C 1.00069 0.95195 0.49951 0.0
H1383 H 0.67515 0.97214 0.40837 0.0
H1384 H 0.68743 0.04439 0.3418 0.0
H1385 H 0.65282 0.05774 0.40458 0.0
H1386 H 0.6115 0.97372 0.39756 0.0
H1387 H 0.60685 0.95579 0.46826 0.0
H1388 H 0.63343 0.95221 0.4213 0.0
H1389 H 0.65847 0.95949 0.5223 0.0
H1390 H 0.63246 0.96457 0.57075 0.0
H1391 H 0.65561 0.98697 0.5659 0.0
H1392 H 0.61563 0.06324 0.47327 0.0
H1393 H 0.57963 0.0604 0.54053 0.0
H1394 H 0.58961 0.98425 0.55799 0.0
C1395 C 0.67063 0.9908 0.40616 0.0
C1396 C 0.6845 1.00709 0.36915 0.0
C1397 C 0.67776 0.03141 0.36996 0.0
C1398 C 0.65784 0.03919 0.40527 0.0
C1399 C 0.64446 0.02256 0.43987 0.0
C1400 C 0.65061 0.99884 0.44052 0.0
C1401 C 0.633 0.98445 0.48057 0.0
C1402 C 0.62043 0.96542 0.43944 0.0
C1403 C 0.64561 0.97319 0.53836 0.0
C1404 C 0.61572 1.00369 0.50176 0.0
C1405 C 0.62285 0.0256 0.47822 0.0
C1406 C 0.61 0.04615 0.49187 0.0
C1407 C 0.58952 0.04436 0.53048 0.0
C1408 C 0.58164 0.02215 0.55506 0.0
C1409 C 0.59498 1.00151 0.53986 0.0
H1410 H 0.5158 0.65388 0.31148 0.0
H1411 H 0.547 0.70549 0.44165 0.0
H1412 H 0.54506 0.67581 0.52955 0.0
H1413 H 0.4759 0.62432 0.43418 0.0
H1414 H 0.47995 0.59545 0.39816 0.0
H1415 H 0.48074 0.62179 0.34903 0.0
H1416 H 0.52292 0.61059 0.30714 0.0
H1417 H 0.52078 0.58404 0.35431 0.0
H1418 H 0.54599 0.60388 0.36454 0.0
H1419 H 0.54445 0.63786 0.60005 0.0
H1420 H 0.54161 0.59762 0.64809 0.0
H1421 H 0.5105 0.57065 0.47189 0.0
C1422 C 0.52126 0.65927 0.35922 0.0
C1423 C 0.53097 0.68241 0.36977 0.0
C1424 C 0.53877 0.68832 0.43254 0.0
C1425 C 0.538 0.67136 0.48266 0.0
C1426 C 0.52918 0.64843 0.46985 0.0
C1427 C 0.52043 0.64259 0.4098 0.0
C1428 C 0.51277 0.61652 0.40732 0.0
C1429 C 0.48573 0.6144 0.39653 0.0
C1430 C 0.52649 0.60298 0.35528 0.0
C1431 C 0.51958 0.60816 0.47429 0.0
C1432 C 0.52874 0.62689 0.51002 0.0
C1433 C 0.53677 0.6233 0.57278 0.0
C1434 C 0.53504 0.60031 0.59988 0.0
C1435 C 0.52554 0.5808 0.56462 0.0
C1436 C 0.51787 0.585 0.50059 0.0
H1437 H 0.8605 0.57724 0.39768 0.0
H1438 H 0.85329 0.50991 0.29693 0.0
H1439 H 0.88738 0.49422 0.35927 0.0
H1440 H 0.92457 0.5799 0.39729 0.0
H1441 H 0.92481 0.59426 0.47506 0.0
H1442 H 0.89971 0.59767 0.42261 0.0
H1443 H 0.87463 0.58375 0.51861 0.0
H1444 H 0.90003 0.57653 0.56767 0.0
H1445 H 0.878 0.55403 0.54825 0.0
H1446 H 0.92459 0.48687 0.429 0.0
H1447 H 0.9599 0.48795 0.49988 0.0
H1448 H 0.94467 0.56121 0.54974 0.0
C1449 C 0.86598 0.55917 0.38813 0.0
C1450 C 0.854 0.54498 0.34116 0.0
C1451 C 0.86172 0.5212 0.33263 0.0
C1452 C 0.88133 0.5122 0.36757 0.0
C1453 C 0.89326 0.52711 0.41118 0.0
C1454 C 0.88574 0.55009 0.42157 0.0
C1455 C 0.90189 0.56289 0.46944 0.0
C1456 C 0.91347 0.58496 0.43912 0.0
C1457 C 0.88784 0.56972 0.52968 0.0
C1458 C 0.92021 0.54373 0.48369 0.0
C1459 C 0.91471 0.52311 0.45008 0.0
C1460 C 0.92893 0.50294 0.45537 0.0
C1461 C 0.94907 0.50374 0.49588 0.0
C1462 C 0.95533 0.52466 0.53049 0.0
C1463 C 0.94061 0.54497 0.52377 0.0
loop_
_geom_bond_atom_site_label_1
_geom_bond_atom_site_label_2
_geom_bond_distance
_geom_bond_site_symmetry_2
_ccdc_geom_bond_type
C0 C1 1.391 . S
C0 C4 1.391 . S
C0 H42 0.948 . S
C1 C0 1.391 . S
C1 C2 1.391 . S
C2 C1 1.391 . S
C2 H58 0.947 . S
C2 C59 1.392 . S
C3 C4 1.391 . S
C3 C7 1.397 . S
C3 C59 1.419 . S
C4 C0 1.391 . S
C4 C3 1.391 . S
C4 C5 1.399 . S
C5 C4 1.399 . S
C5 C8 1.396 . S
C5 C17 1.453 . S
C5 C18 1.684 . S
H6 C30 0.948 . S
C7 C3 1.397 . S
C7 C8 1.394 . S
C7 C26 1.723 . S
C8 C5 1.396 . S
C8 C7 1.394 . S
C8 C38 1.723 . S
H9 C32 0.947 . S
H10 C33 0.948 . S
H11 C39 0.982 . S
H12 C40 0.979 . S
H13 C40 0.980 . S
H14 C40 0.983 . S
H15 C39 0.979 . S
H16 C39 0.977 . S
C17 C5 1.453 . S
C17 H46 0.982 . S
C17 H47 0.979 . S
C17 H48 0.977 . S
C18 C5 1.684 . S
C18 H43 0.979 . S
C18 H44 0.980 . S
C18 H45 0.983 . S
C19 C20 1.391 . S
C19 C24 1.391 . S
C19 H49 0.948 . S
C20 C19 1.391 . S
C20 C21 1.391 . S
C21 C20 1.391 . S
C21 C22 1.392 . S
C21 H50 0.947 1_554 S
C22 C21 1.392 . S
C22 C23 1.419 . S
C22 H51 0.948 . S
C23 C22 1.419 . S
C23 C24 1.391 . S
C23 C27 1.397 . S
C24 C19 1.391 . S
C24 C23 1.391 . S
C24 C25 1.399 . S
C25 C24 1.399 . S
C25 C26 1.396 . S
C25 C28 1.453 . S
C25 C29 1.684 . S
C26 C7 1.723 . S
C26 C25 1.396 . S
C26 C27 1.394 . S
C27 C23 1.397 . S
C27 C26 1.394 . S
C27 C37 1.723 . S
C28 C25 1.453 . S
C28 H52 0.982 . S
C28 H53 0.979 . S
C28 H54 0.977 . S
C29 C25 1.684 . S
C29 H55 0.979 . S
C29 H56 0.980 . S
C29 H57 0.983 . S
C30 H6 0.948 . S
C30 C31 1.391 . S
C30 C35 1.391 . S
C31 C30 1.391 . S
C31 C32 1.391 . S
C32 H9 0.947 . S
C32 C31 1.391 . S
C32 C33 1.392 . S
C33 H10 0.948 . S
C33 C32 1.392 . S
C33 C34 1.419 . S
C34 C33 1.419 . S
C34 C35 1.391 . S
C34 C38 1.397 . S
C35 C30 1.391 . S
C35 C34 1.391 . S
C35 C36 1.399 . S
C36 C35 1.399 . S
C36 C37 1.396 . S
C36 C39 1.453 . S
C36 C40 1.684 . S
C37 C27 1.723 . S
C37 C36 1.396 . S
C37 C38 1.394 . S
C38 C8 1.723 . S
C38 C34 1.397 . S
C38 C37 1.394 . S
C39 H11 0.982 . S
C39 H15 0.979 . S
C39 H16 0.977 . S
C39 C36 1.453 . S
C40 H12 0.979 . S
C40 H13 0.980 . S
C40 H14 0.983 . S
C40 C36 1.684 . S
H41 C59 0.948 . S
H42 C0 0.948 . S
H43 C18 0.979 . S
H44 C18 0.980 . S
H45 C18 0.983 . S
H46 C17 0.982 . S
H47 C17 0.979 . S
H48 C17 0.977 . S
H49 C19 0.948 . S
H50 C21 0.947 1_556 S
H51 C22 0.948 . S
H52 C28 0.982 . S
H53 C28 0.979 . S
H54 C28 0.977 . S
H55 C29 0.979 . S
H56 C29 0.980 . S
H57 C29 0.983 . S
H58 C2 0.947 . S
C59 C2 1.392 . S
C59 C3 1.419 . S
C59 H41 0.948 . S
C60 C61 1.391 . S
C60 C64 1.391 . S
C60 H102 0.948 . S
C61 C60 1.391 . S
C61 C62 1.391 . S
C62 C61 1.391 . S
C62 H118 0.947 . S
C62 C119 1.392 . S
C63 C64 1.391 . S
C63 C67 1.397 . S
C63 C119 1.419 . S
C64 C60 1.391 . S
C64 C63 1.391 . S
C64 C65 1.399 . S
C65 C64 1.399 . S
C65 C68 1.396 . S
C65 C77 1.453 . S
C65 C78 1.684 . S
H66 C90 0.948 . S
C67 C63 1.397 . S
C67 C68 1.394 . S
C67 C86 1.723 . S
C68 C65 1.396 . S
C68 C67 1.394 . S
C68 C98 1.723 . S
H69 C92 0.947 . S
H70 C93 0.948 . S
H71 C99 0.982 . S
H72 C100 0.979 . S
H73 C100 0.980 . S
H74 C100 0.983 . S
H75 C99 0.979 . S
H76 C99 0.977 . S
C77 C65 1.453 . S
C77 H106 0.982 . S
C77 H107 0.979 . S
C77 H108 0.977 . S
C78 C65 1.684 . S
C78 H103 0.979 . S
C78 H104 0.980 . S
C78 H105 0.983 . S
C79 C80 1.391 . S
C79 C84 1.391 . S
C79 H109 0.948 . S
C80 C79 1.391 . S
C80 C81 1.391 . S
C81 C80 1.391 . S
C81 C82 1.392 . S
C81 H110 0.947 . S
C82 C81 1.392 . S
C82 C83 1.419 . S
C82 H111 0.948 . S
C83 C82 1.419 . S
C83 C84 1.391 . S
C83 C87 1.397 . S
C84 C79 1.391 . S
C84 C83 1.391 . S
C84 C85 1.399 . S
C85 C84 1.399 . S
C85 C86 1.396 . S
C85 C88 1.453 . S
C85 C89 1.684 . S
C86 C67 1.723 . S
C86 C85 1.396 . S
C86 C87 1.394 . S
C87 C83 1.397 . S
C87 C86 1.394 . S
C87 C97 1.723 . S
C88 C85 1.453 . S
C88 H112 0.982 . S
C88 H113 0.979 . S
C88 H114 0.977 . S
C89 C85 1.684 . S
C89 H115 0.979 . S
C89 H116 0.980 . S
C89 H117 0.983 . S
C90 H66 0.948 . S
C90 C91 1.391 . S
C90 C95 1.391 . S
C91 C90 1.391 . S
C91 C92 1.391 . S
C92 H69 0.947 . S
C92 C91 1.391 . S
C92 C93 1.392 . S
C93 H70 0.948 . S
C93 C92 1.392 . S
C93 C94 1.419 . S
C94 C93 1.419 . S
C94 C95 1.391 . S
C94 C98 1.397 . S
C95 C90 1.391 . S
C95 C94 1.391 . S
C95 C96 1.399 . S
C96 C95 1.399 . S
C96 C97 1.396 . S
C96 C99 1.453 . S
C96 C100 1.684 . S
C97 C87 1.723 . S
C97 C96 1.396 . S
C97 C98 1.394 . S
C98 C68 1.723 . S
C98 C94 1.397 . S
C98 C97 1.394 . S
C99 H71 0.982 . S
C99 H75 0.979 . S
C99 H76 0.977 . S
C99 C96 1.453 . S
C100 H72 0.979 . S
C100 H73 0.980 . S
C100 H74 0.983 . S
C100 C96 1.684 . S
H101 C119 0.948 . S
H102 C60 0.948 . S
H103 C78 0.979 . S
H104 C78 0.980 . S
H105 C78 0.983 . S
H106 C77 0.982 . S
H107 C77 0.979 . S
H108 C77 0.977 . S
H109 C79 0.948 . S
H110 C81 0.947 . S
H111 C82 0.948 . S
H112 C88 0.982 . S
H113 C88 0.979 . S
H114 C88 0.977 . S
H115 C89 0.979 . S
H116 C89 0.980 . S
H117 C89 0.983 . S
H118 C62 0.947 . S
C119 C62 1.392 . S
C119 C63 1.419 . S
C119 H101 0.948 . S
C120 C121 1.391 . S
C120 C124 1.391 . S
C120 H162 0.948 . S
C121 C120 1.391 . S
C121 C122 1.391 . S
C122 C121 1.391 . S
C122 H178 0.947 . S
C122 C179 1.392 . S
C123 C124 1.391 . S
C123 C127 1.397 . S
C123 C179 1.419 . S
C124 C120 1.391 . S
C124 C123 1.391 . S
C124 C125 1.399 . S
C125 C124 1.399 . S
C125 C128 1.396 . S
C125 C137 1.453 . S
C125 C138 1.684 . S
H126 C150 0.948 . S
C127 C123 1.397 . S
C127 C128 1.394 . S
C127 C146 1.723 . S
C128 C125 1.396 . S
C128 C127 1.394 . S
C128 C158 1.723 . S
H129 C152 0.947 . S
H130 C153 0.948 . S
H131 C159 0.966 1_545 S
H132 C160 0.979 . S
H133 C160 0.980 . S
H134 C160 0.983 . S
H135 C159 0.979 . S
H136 C159 0.977 . S
C137 C125 1.453 . S
C137 H166 0.966 1_565 S
C137 H167 0.979 . S
C137 H168 0.977 . S
C138 C125 1.684 . S
C138 H163 0.979 . S
C138 H164 0.980 . S
C138 H165 0.983 . S
C139 C140 1.391 . S
C139 C144 1.391 . S
C139 H169 0.948 . S
C140 C139 1.391 . S
C140 C141 1.391 . S
C141 C140 1.391 . S
C141 C142 1.392 . S
C141 H170 0.947 . S
C142 C141 1.392 . S
C142 C143 1.419 . S
C142 H171 0.948 . S
C143 C142 1.419 . S
C143 C144 1.391 . S
C143 C147 1.397 . S
C144 C139 1.391 . S
C144 C143 1.391 . S
C144 C145 1.399 . S
C145 C144 1.399 . S
C145 C146 1.396 . S
C145 C148 1.453 . S
C145 C149 1.684 . S
C146 C127 1.723 . S
C146 C145 1.396 . S
C146 C147 1.394 . S
C147 C143 1.397 . S
C147 C146 1.394 . S
C147 C157 1.723 . S
C148 C145 1.453 . S
C148 H172 0.966 1_565 S
C148 H173 0.979 . S
C148 H174 0.977 . S
C149 C145 1.684 . S
C149 H175 0.979 . S
C149 H176 0.980 . S
C149 H177 0.983 . S
C150 H126 0.948 . S
C150 C151 1.391 . S
C150 C155 1.391 . S
C151 C150 1.391 . S
C151 C152 1.391 . S
C152 H129 0.947 . S
C152 C151 1.391 . S
C152 C153 1.392 . S
C153 H130 0.948 . S
C153 C152 1.392 . S
C153 C154 1.419 . S
C154 C153 1.419 . S
C154 C155 1.391 . S
C154 C158 1.397 . S
C155 C150 1.391 . S
C155 C154 1.391 . S
C155 C156 1.399 . S
C156 C155 1.399 . S
C156 C157 1.396 . S
C156 C159 1.453 . S
C156 C160 1.684 . S
C157 C147 1.723 . S
C157 C156 1.396 . S
C157 C158 1.394 . S
C158 C128 1.723 . S
C158 C154 1.397 . S
C158 C157 1.394 . S
C159 H131 0.966 1_565 S
C159 H135 0.979 . S
C159 H136 0.977 . S
C159 C156 1.453 . S
C160 H132 0.979 . S
C160 H133 0.980 . S
C160 H134 0.983 . S
C160 C156 1.684 . S
H161 C179 0.948 . S
H162 C120 0.948 . S
H163 C138 0.979 . S
H164 C138 0.980 . S
H165 C138 0.983 . S
H166 C137 0.966 1_545 S
H167 C137 0.979 . S
H168 C137 0.977 . S
H169 C139 0.948 . S
H170 C141 0.947 . S
H171 C142 0.948 . S
H172 C148 0.966 1_545 S
H173 C148 0.979 . S
H174 C148 0.977 . S
H175 C149 0.979 . S
H176 C149 0.980 . S
H177 C149 0.983 . S
H178 C122 0.947 . S
C179 C122 1.392 . S
C179 C123 1.419 . S
C179 H161 0.948 . S
C180 C181 1.391 . S
C180 C184 1.391 . S
C180 H222 0.948 . S
C181 C180 1.391 . S
C181 C182 1.391 . S
C182 C181 1.391 . S
C182 H238 0.947 . S
C182 C239 1.392 . S
C183 C184 1.391 . S
C183 C187 1.397 . S
C183 C239 1.419 . S
C184 C180 1.391 . S
C184 C183 1.391 . S
C184 C185 1.399 . S
C185 C184 1.399 . S
C185 C188 1.396 . S
C185 C197 1.453 . S
C185 C198 1.684 . S
H186 C210 0.948 . S
C187 C183 1.397 . S
C187 C188 1.394 . S
C187 C206 1.723 . S
C188 C185 1.396 . S
C188 C187 1.394 . S
C188 C218 1.723 . S
H189 C212 0.947 . S
H190 C213 0.948 . S
H191 C219 0.982 . S
H192 C220 0.979 . S
H193 C220 0.980 . S
H194 C220 0.983 . S
H195 C219 0.979 . S
H196 C219 0.977 . S
C197 C185 1.453 . S
C197 H226 0.982 . S
C197 H227 0.979 . S
C197 H228 0.977 . S
C198 C185 1.684 . S
C198 H223 0.979 . S
C198 H224 0.980 . S
C198 H225 0.983 . S
C199 C200 1.391 . S
C199 C204 1.391 . S
C199 H229 0.948 . S
C200 C199 1.391 . S
C200 C201 1.391 . S
C201 C200 1.391 . S
C201 C202 1.392 . S
C201 H230 0.947 1_554 S
C202 C201 1.392 . S
C202 C203 1.419 . S
C202 H231 0.948 . S
C203 C202 1.419 . S
C203 C204 1.391 . S
C203 C207 1.397 . S
C204 C199 1.391 . S
C204 C203 1.391 . S
C204 C205 1.399 . S
C205 C204 1.399 . S
C205 C206 1.396 . S
C205 C208 1.453 . S
C205 C209 1.684 . S
C206 C187 1.723 . S
C206 C205 1.396 . S
C206 C207 1.394 . S
C207 C203 1.397 . S
C207 C206 1.394 . S
C207 C217 1.723 . S
C208 C205 1.453 . S
C208 H232 0.982 . S
C208 H233 0.979 . S
C208 H234 0.977 . S
C209 C205 1.684 . S
C209 H235 0.979 . S
C209 H236 0.980 . S
C209 H237 0.983 . S
C210 H186 0.948 . S
C210 C211 1.391 . S
C210 C215 1.391 . S
C211 C210 1.391 . S
C211 C212 1.391 . S
C212 H189 0.947 . S
C212 C211 1.391 . S
C212 C213 1.392 . S
C213 H190 0.948 . S
C213 C212 1.392 . S
C213 C214 1.419 . S
C214 C213 1.419 . S
C214 C215 1.391 . S
C214 C218 1.397 . S
C215 C210 1.391 . S
C215 C214 1.391 . S
C215 C216 1.399 . S
C216 C215 1.399 . S
C216 C217 1.396 . S
C216 C219 1.453 . S
C216 C220 1.684 . S
C217 C207 1.723 . S
C217 C216 1.396 . S
C217 C218 1.394 . S
C218 C188 1.723 . S
C218 C214 1.397 . S
C218 C217 1.394 . S
C219 H191 0.982 . S
C219 H195 0.979 . S
C219 H196 0.977 . S
C219 C216 1.453 . S
C220 H192 0.979 . S
C220 H193 0.980 . S
C220 H194 0.983 . S
C220 C216 1.684 . S
H221 C239 0.948 . S
H222 C180 0.948 . S
H223 C198 0.979 . S
H224 C198 0.980 . S
H225 C198 0.983 . S
H226 C197 0.982 . S
H227 C197 0.979 . S
H228 C197 0.977 . S
H229 C199 0.948 . S
H230 C201 0.947 1_556 S
H231 C202 0.948 . S
H232 C208 0.982 . S
H233 C208 0.979 . S
H234 C208 0.977 . S
H235 C209 0.979 . S
H236 C209 0.980 . S
H237 C209 0.983 . S
H238 C182 0.947 . S
C239 C182 1.392 . S
C239 C183 1.419 . S
C239 H221 0.948 . S
C240 C241 1.391 . S
C240 C244 1.391 . S
C240 H282 0.948 . S
C241 C240 1.391 . S
C241 C242 1.391 . S
C242 C241 1.391 . S
C242 H298 0.947 . S
C242 C299 1.392 . S
C243 C244 1.391 . S
C243 C247 1.397 . S
C243 C299 1.419 . S
C244 C240 1.391 . S
C244 C243 1.391 . S
C244 C245 1.399 1_554 S
C245 C244 1.399 1_556 S
C245 C248 1.396 1_556 S
C245 C257 1.453 . S
C245 C258 1.684 . S
H246 C270 0.948 . S
C247 C243 1.397 . S
C247 C248 1.394 . S
C247 C266 1.723 . S
C248 C245 1.396 1_554 S
C248 C247 1.394 . S
C248 C278 1.723 1_554 S
H249 C272 0.947 . S
H250 C273 0.948 . S
H251 C279 0.982 . S
H252 C280 0.979 . S
H253 C280 0.980 1_554 S
H254 C280 0.983 . S
H255 C279 0.979 . S
H256 C279 0.977 1_554 S
C257 C245 1.453 . S
C257 H286 0.982 . S
C257 H287 0.979 . S
C257 H288 0.977 . S
C258 C245 1.684 . S
C258 H283 0.979 . S
C258 H284 0.980 . S
C258 H285 0.983 . S
C259 C260 1.391 . S
C259 C264 1.391 . S
C259 H289 0.948 . S
C260 C259 1.391 . S
C260 C261 1.391 . S
C261 C260 1.391 . S
C261 C262 1.392 . S
C261 H290 0.947 . S
C262 C261 1.392 . S
C262 C263 1.419 . S
C262 H291 0.948 . S
C263 C262 1.419 . S
C263 C264 1.391 . S
C263 C267 1.397 . S
C264 C259 1.391 . S
C264 C263 1.391 . S
C264 C265 1.399 . S
C265 C264 1.399 . S
C265 C266 1.396 . S
C265 C268 1.453 . S
C265 C269 1.684 . S
C266 C247 1.723 . S
C266 C265 1.396 . S
C266 C267 1.394 . S
C267 C263 1.397 . S
C267 C266 1.394 . S
C267 C277 1.723 . S
C268 C265 1.453 . S
C268 H292 0.982 . S
C268 H293 0.979 . S
C268 H294 0.977 . S
C269 C265 1.684 . S
C269 H295 0.979 . S
C269 H296 0.980 . S
C269 H297 0.983 . S
C270 H246 0.948 . S
C270 C271 1.391 . S
C270 C275 1.391 . S
C271 C270 1.391 . S
C271 C272 1.391 . S
C272 H249 0.947 . S
C272 C271 1.391 . S
C272 C273 1.392 . S
C273 H250 0.948 . S
C273 C272 1.392 . S
C273 C274 1.419 . S
C274 C273 1.419 . S
C274 C275 1.391 . S
C274 C278 1.397 . S
C275 C270 1.391 . S
C275 C274 1.391 . S
C275 C276 1.399 . S
C276 C275 1.399 . S
C276 C277 1.396 1_556 S
C276 C279 1.453 . S
C276 C280 1.684 . S
C277 C267 1.723 . S
C277 C276 1.396 1_554 S
C277 C278 1.394 1_554 S
C278 C248 1.723 1_556 S
C278 C274 1.397 . S
C278 C277 1.394 1_556 S
C279 H251 0.982 . S
C279 H255 0.979 . S
C279 H256 0.977 1_556 S
C279 C276 1.453 . S
C280 H252 0.979 . S
C280 H253 0.980 1_556 S
C280 H254 0.983 . S
C280 C276 1.684 . S
H281 C299 0.948 . S
H282 C240 0.948 . S
H283 C258 0.979 . S
H284 C258 0.980 . S
H285 C258 0.983 . S
H286 C257 0.982 . S
H287 C257 0.979 . S
H288 C257 0.977 . S
H289 C259 0.948 . S
H290 C261 0.947 . S
H291 C262 0.948 . S
H292 C268 0.982 . S
H293 C268 0.979 . S
H294 C268 0.977 . S
H295 C269 0.979 . S
H296 C269 0.980 . S
H297 C269 0.983 . S
H298 C242 0.947 . S
C299 C242 1.392 . S
C299 C243 1.419 . S
C299 H281 0.948 . S
C300 C301 1.391 . S
C300 C304 1.391 . S
C300 H342 0.948 . S
C301 C300 1.391 . S
C301 C302 1.391 . S
C302 C301 1.391 . S
C302 H358 0.947 . S
C302 C359 1.392 . S
C303 C304 1.391 . S
C303 C307 1.397 . S
C303 C359 1.419 . S
C304 C300 1.391 . S
C304 C303 1.391 . S
C304 C305 1.399 . S
C305 C304 1.399 . S
C305 C308 1.396 . S
C305 C317 1.453 . S
C305 C318 1.684 . S
H306 C330 0.948 . S
C307 C303 1.397 . S
C307 C308 1.394 . S
C307 C326 1.723 . S
C308 C305 1.396 . S
C308 C307 1.394 . S
C308 C338 1.723 . S
H309 C332 0.947 . S
H310 C333 0.948 . S
H311 C339 0.982 . S
H312 C340 0.979 . S
H313 C340 0.980 . S
H314 C340 0.983 . S
H315 C339 0.979 . S
H316 C339 0.977 . S
C317 C305 1.453 . S
C317 H346 0.982 . S
C317 H347 0.979 . S
C317 H348 0.977 . S
C318 C305 1.684 . S
C318 H343 0.979 . S
C318 H344 0.980 . S
C318 H345 0.983 . S
C319 C320 1.391 . S
C319 C324 1.391 . S
C319 H349 0.948 . S
C320 C319 1.391 . S
C320 C321 1.391 . S
C321 C320 1.391 . S
C321 C322 1.392 . S
C321 H350 0.947 . S
C322 C321 1.392 . S
C322 C323 1.419 . S
C322 H351 0.948 . S
C323 C322 1.419 . S
C323 C324 1.391 . S
C323 C327 1.397 . S
C324 C319 1.391 . S
C324 C323 1.391 . S
C324 C325 1.399 . S
C325 C324 1.399 . S
C325 C326 1.396 1_556 S
C325 C328 1.453 . S
C325 C329 1.684 . S
C326 C307 1.723 . S
C326 C325 1.396 1_554 S
C326 C327 1.394 1_554 S
C327 C323 1.397 . S
C327 C326 1.394 1_556 S
C327 C337 1.723 1_556 S
C328 C325 1.453 . S
C328 H352 0.982 . S
C328 H353 0.979 . S
C328 H354 0.977 1_556 S
C329 C325 1.684 . S
C329 H355 0.979 . S
C329 H356 0.980 1_556 S
C329 H357 0.983 . S
C330 H306 0.948 . S
C330 C331 1.391 . S
C330 C335 1.391 . S
C331 C330 1.391 . S
C331 C332 1.391 . S
C332 H309 0.947 . S
C332 C331 1.391 . S
C332 C333 1.392 . S
C333 H310 0.948 . S
C333 C332 1.392 . S
C333 C334 1.419 . S
C334 C333 1.419 . S
C334 C335 1.391 . S
C334 C338 1.397 . S
C335 C330 1.391 . S
C335 C334 1.391 . S
C335 C336 1.399 1_554 S
C336 C335 1.399 1_556 S
C336 C337 1.396 1_556 S
C336 C339 1.453 . S
C336 C340 1.684 . S
C337 C327 1.723 1_554 S
C337 C336 1.396 1_554 S
C337 C338 1.394 . S
C338 C308 1.723 . S
C338 C334 1.397 . S
C338 C337 1.394 . S
C339 H311 0.982 . S
C339 H315 0.979 . S
C339 H316 0.977 . S
C339 C336 1.453 . S
C340 H312 0.979 . S
C340 H313 0.980 . S
C340 H314 0.983 . S
C340 C336 1.684 . S
H341 C359 0.948 . S
H342 C300 0.948 . S
H343 C318 0.979 . S
H344 C318 0.980 . S
H345 C318 0.983 . S
H346 C317 0.982 . S
H347 C317 0.979 . S
H348 C317 0.977 . S
H349 C319 0.948 . S
H350 C321 0.947 . S
H351 C322 0.948 . S
H352 C328 0.982 . S
H353 C328 0.979 . S
H354 C328 0.977 1_554 S
H355 C329 0.979 . S
H356 C329 0.980 1_554 S
H357 C329 0.983 . S
H358 C302 0.947 . S
C359 C302 1.392 . S
C359 C303 1.419 . S
C359 H341 0.948 . S
C360 C361 1.391 . S
C360 C364 1.391 . S
C360 H402 0.948 . S
C361 C360 1.391 . S
C361 C362 1.391 . S
C362 C361 1.391 . S
C362 H418 0.947 . S
C362 C419 1.392 . S
C363 C364 1.391 . S
C363 C367 1.397 . S
C363 C419 1.419 . S
C364 C360 1.391 . S
C364 C363 1.391 . S
C364 C365 1.399 . S
C365 C364 1.399 . S
C365 C368 1.396 . S
C365 C377 1.453 . S
C365 C378 1.684 . S
H366 C390 0.948 . S
C367 C363 1.397 . S
C367 C368 1.394 . S
C367 C386 1.723 1_556 S
C368 C365 1.396 . S
C368 C367 1.394 . S
C368 C398 1.723 1_556 S
H369 C392 0.947 . S
H370 C393 0.948 1_556 S
H371 C399 0.982 . S
H372 C400 0.979 . S
H373 C400 0.980 . S
H374 C400 0.983 . S
H375 C399 0.979 . S
H376 C399 0.977 . S
C377 C365 1.453 . S
C377 H406 0.982 . S
C377 H407 0.979 . S
C377 H408 0.977 . S
C378 C365 1.684 . S
C378 H403 0.979 . S
C378 H404 0.980 . S
C378 H405 0.983 . S
C379 C380 1.391 . S
C379 C384 1.391 . S
C379 H409 0.948 . S
C380 C379 1.391 . S
C380 C381 1.391 . S
C381 C380 1.391 . S
C381 C382 1.392 . S
C381 H410 0.947 . S
C382 C381 1.392 . S
C382 C383 1.419 . S
C382 H411 0.948 . S
C383 C382 1.419 . S
C383 C384 1.391 . S
C383 C387 1.397 . S
C384 C379 1.391 . S
C384 C383 1.391 . S
C384 C385 1.399 . S
C385 C384 1.399 . S
C385 C386 1.396 . S
C385 C388 1.453 . S
C385 C389 1.684 . S
C386 C367 1.723 1_554 S
C386 C385 1.396 . S
C386 C387 1.394 . S
C387 C383 1.397 . S
C387 C386 1.394 . S
C387 C397 1.723 . S
C388 C385 1.453 . S
C388 H412 0.982 . S
C388 H413 0.979 . S
C388 H414 0.977 1_554 S
C389 C385 1.684 . S
C389 H415 0.979 . S
C389 H416 0.980 1_554 S
C389 H417 0.983 . S
C390 H366 0.948 . S
C390 C391 1.391 . S
C390 C395 1.391 . S
C391 C390 1.391 . S
C391 C392 1.391 . S
C392 H369 0.947 . S
C392 C391 1.391 . S
C392 C393 1.392 . S
C393 H370 0.948 1_554 S
C393 C392 1.392 . S
C393 C394 1.419 . S
C394 C393 1.419 . S
C394 C395 1.391 . S
C394 C398 1.397 . S
C395 C390 1.391 . S
C395 C394 1.391 . S
C395 C396 1.399 . S
C396 C395 1.399 . S
C396 C397 1.396 . S
C396 C399 1.453 . S
C396 C400 1.684 . S
C397 C387 1.723 . S
C397 C396 1.396 . S
C397 C398 1.394 . S
C398 C368 1.723 1_554 S
C398 C394 1.397 . S
C398 C397 1.394 . S
C399 H371 0.982 . S
C399 H375 0.979 . S
C399 H376 0.977 . S
C399 C396 1.453 . S
C400 H372 0.979 . S
C400 H373 0.980 . S
C400 H374 0.983 . S
C400 C396 1.684 . S
H401 C419 0.948 . S
H402 C360 0.948 . S
H403 C378 0.979 . S
H404 C378 0.980 . S
H405 C378 0.983 . S
H406 C377 0.982 . S
H407 C377 0.979 . S
H408 C377 0.977 . S
H409 C379 0.948 . S
H410 C381 0.947 . S
H411 C382 0.948 . S
H412 C388 0.982 . S
H413 C388 0.979 . S
H414 C388 0.977 1_556 S
H415 C389 0.979 . S
H416 C389 0.980 1_556 S
H417 C389 0.983 . S
H418 C362 0.947 . S
C419 C362 1.392 . S
C419 C363 1.419 . S
C419 H401 0.948 . S
C420 C421 1.391 . S
C420 C424 1.391 . S
C420 H462 0.948 . S
C421 C420 1.391 . S
C421 C422 1.391 . S
C422 C421 1.391 . S
C422 H478 0.947 . S
C422 C479 1.392 . S
C423 C424 1.391 . S
C423 C427 1.397 . S
C423 C479 1.419 . S
C424 C420 1.391 . S
C424 C423 1.391 . S
C424 C425 1.399 . S
C425 C424 1.399 . S
C425 C428 1.396 . S
C425 C437 1.453 . S
C425 C438 1.684 . S
H426 C450 0.948 . S
C427 C423 1.397 . S
C427 C428 1.394 . S
C427 C446 1.723 1_556 S
C428 C425 1.396 . S
C428 C427 1.394 . S
C428 C458 1.723 1_556 S
H429 C452 0.947 1_556 S
H430 C453 0.948 1_556 S
H431 C459 0.982 . S
H432 C460 0.979 . S
H433 C460 0.980 . S
H434 C460 0.983 . S
H435 C459 0.979 . S
H436 C459 0.977 . S
C437 C425 1.453 . S
C437 H466 0.982 . S
C437 H467 0.979 . S
C437 H468 0.977 . S
C438 C425 1.684 . S
C438 H463 0.979 . S
C438 H464 0.980 . S
C438 H465 0.983 . S
C439 C440 1.391 . S
C439 C444 1.391 . S
C439 H469 0.948 . S
C440 C439 1.391 . S
C440 C441 1.391 . S
C441 C440 1.391 . S
C441 C442 1.392 . S
C441 H470 0.947 . S
C442 C441 1.392 . S
C442 C443 1.419 . S
C442 H471 0.948 . S
C443 C442 1.419 . S
C443 C444 1.391 . S
C443 C447 1.397 . S
C444 C439 1.391 . S
C444 C443 1.391 . S
C444 C445 1.399 . S
C445 C444 1.399 . S
C445 C446 1.396 . S
C445 C448 1.453 . S
C445 C449 1.684 . S
C446 C427 1.723 1_554 S
C446 C445 1.396 . S
C446 C447 1.394 . S
C447 C443 1.397 . S
C447 C446 1.394 . S
C447 C457 1.723 . S
C448 C445 1.453 . S
C448 H472 0.982 . S
C448 H473 0.979 . S
C448 H474 0.977 1_554 S
C449 C445 1.684 . S
C449 H475 0.979 . S
C449 H476 0.980 1_554 S
C449 H477 0.983 . S
C450 H426 0.948 . S
C450 C451 1.391 . S
C450 C455 1.391 . S
C451 C450 1.391 . S
C451 C452 1.391 . S
C452 H429 0.947 1_554 S
C452 C451 1.391 . S
C452 C453 1.392 . S
C453 H430 0.948 1_554 S
C453 C452 1.392 . S
C453 C454 1.419 . S
C454 C453 1.419 . S
C454 C455 1.391 . S
C454 C458 1.397 . S
C455 C450 1.391 . S
C455 C454 1.391 . S
C455 C456 1.399 . S
C456 C455 1.399 . S
C456 C457 1.396 . S
C456 C459 1.453 . S
C456 C460 1.684 . S
C457 C447 1.723 . S
C457 C456 1.396 . S
C457 C458 1.394 . S
C458 C428 1.723 1_554 S
C458 C454 1.397 . S
C458 C457 1.394 . S
C459 H431 0.982 . S
C459 H435 0.979 . S
C459 H436 0.977 . S
C459 C456 1.453 . S
C460 H432 0.979 . S
C460 H433 0.980 . S
C460 H434 0.983 . S
C460 C456 1.684 . S
H461 C479 0.948 . S
H462 C420 0.948 . S
H463 C438 0.979 . S
H464 C438 0.980 . S
H465 C438 0.983 . S
H466 C437 0.982 . S
H467 C437 0.979 . S
H468 C437 0.977 . S
H469 C439 0.948 . S
H470 C441 0.947 . S
H471 C442 0.948 . S
H472 C448 0.982 . S
H473 C448 0.979 . S
H474 C448 0.977 1_556 S
H475 C449 0.979 . S
H476 C449 0.980 1_556 S
H477 C449 0.983 . S
H478 C422 0.947 . S
C479 C422 1.392 . S
C479 C423 1.419 . S
C479 H461 0.948 . S
C480 C482 1.422 . S
C480 C484 1.415 . S
C480 N486 1.369 . S
C481 C482 1.421 . S
C481 C483 1.417 . S
C481 C493 1.422 . S
C482 C480 1.422 . S
C482 C481 1.421 . S
C482 N492 1.359 . S
C483 C481 1.417 . S
C483 C485 1.329 . S
C483 H502 0.930 . S
C484 C480 1.415 . S
C484 C485 1.437 . S
C484 C488 1.413 . S
C485 C483 1.329 . S
C485 C484 1.437 . S
C485 H507 0.929 . S
N486 C480 1.369 . S
N486 C487 1.338 . S
N486 Gd491 2.622 1_545 S
C487 N486 1.338 . S
C487 C489 1.378 . S
C487 H499 0.929 1_545 S
C488 C484 1.413 . S
C488 C489 1.348 . S
C488 H504 0.931 . S
C489 C487 1.378 . S
C489 C488 1.348 . S
C489 H505 0.930 . S
Gd490 N510 2.622 . S
Gd490 N517 2.570 . S
Gd490 O524 2.353 1_655 S
Gd490 O525 2.468 . S
Gd490 O526 2.427 . S
Gd490 O528 2.388 . S
Gd490 O529 2.386 1_545 S
Gd490 O533 2.307 1_655 S
Gd490 C543 2.805 . S
Gd491 N486 2.622 1_565 S
Gd491 N492 2.570 1_565 S
Gd491 O523 2.386 1_565 S
Gd491 O527 2.307 1_465 S
Gd491 O530 2.353 . S
Gd491 O531 2.468 . S
Gd491 O532 2.427 . S
Gd491 O534 2.388 . S
Gd491 C555 2.805 . S
N492 C482 1.359 . S
N492 Gd491 2.570 1_545 S
N492 C494 1.343 . S
C493 C481 1.422 . S
C493 C495 1.321 . S
C493 H501 0.931 . S
C494 N492 1.343 . S
C494 C495 1.390 . S
C494 H496 0.905 1_455 S
C495 C493 1.321 . S
C495 C494 1.390 . S
C495 H497 0.930 . S
H496 C494 0.905 1_655 S
H497 C495 0.930 . S
H498 C521 0.931 1_455 S
H499 C487 0.929 1_565 S
H500 C522 0.930 1_455 S
H501 C493 0.931 . S
H502 C483 0.930 . S
H503 C512 0.929 . S
H504 C488 0.931 . S
H505 C489 0.930 . S
H506 C544 0.930 . S
H507 C485 0.929 . S
H508 C513 0.931 . S
H509 C514 0.930 . S
N510 Gd490 2.622 . S
N510 C511 1.369 . S
N510 C512 1.338 . S
C511 N510 1.369 . S
C511 C515 1.415 1_545 S
C511 C518 1.422 . S
C512 H503 0.929 . S
C512 N510 1.338 . S
C512 C514 1.378 . S
C513 H508 0.931 . S
C513 C514 1.348 1_565 S
C513 C515 1.413 . S
C514 H509 0.930 . S
C514 C512 1.378 . S
C514 C513 1.348 1_545 S
C515 C511 1.415 1_565 S
C515 C513 1.413 . S
C515 C545 1.437 . S
H516 C545 0.929 . S
N517 Gd490 2.570 . S
N517 C518 1.359 . S
N517 C521 1.343 . S
C518 C511 1.422 . S
C518 N517 1.359 . S
C518 C520 1.421 1_545 S
C519 C520 1.422 . S
C519 C522 1.321 . S
C519 H546 0.931 . S
C520 C518 1.421 1_565 S
C520 C519 1.422 . S
C520 C544 1.417 . S
C521 H498 0.931 1_655 S
C521 N517 1.343 . S
C521 C522 1.390 1_545 S
C522 H500 0.930 1_655 S
C522 C519 1.321 . S
C522 C521 1.390 1_565 S
O523 Gd491 2.386 1_545 S
O523 C535 1.265 . S
O524 Gd490 2.353 1_455 S
O524 C535 1.242 . S
O525 Gd490 2.468 . S
O525 C543 1.263 . S
O526 Gd490 2.427 . S
O526 C543 1.252 . S
O527 Gd491 2.307 1_645 S
O527 C536 1.261 . S
O528 Gd490 2.388 . S
O528 C536 1.252 . S
O529 Gd490 2.386 1_565 S
O529 C547 1.265 . S
O530 Gd491 2.353 . S
O530 C547 1.242 1_455 S
O531 Gd491 2.468 . S
O531 C555 1.263 . S
O532 Gd491 2.427 . S
O532 C555 1.252 . S
O533 Gd490 2.307 1_455 S
O533 C548 1.261 . S
O534 Gd491 2.388 . S
O534 C548 1.252 1_565 S
C535 O523 1.265 . S
C535 O524 1.242 . S
C536 O527 1.261 . S
C536 O528 1.252 . S
C537 C540 1.394 . S
C537 C542 1.370 . S
C537 C543 1.500 . S
C538 C541 1.383 . S
C538 C542 1.395 . S
C539 C540 1.396 . S
C539 C541 1.365 . S
C539 H556 0.929 . S
C540 C537 1.394 . S
C540 C539 1.396 . S
C540 H557 0.930 . S
C541 C538 1.383 . S
C541 C539 1.365 . S
C541 H558 0.931 . S
C542 C537 1.370 . S
C542 C538 1.395 . S
C542 H559 0.930 1_655 S
C543 Gd490 2.805 . S
C543 O525 1.263 . S
C543 O526 1.252 . S
C543 C537 1.500 . S
C544 H506 0.930 . S
C544 C520 1.417 . S
C544 C545 1.329 . S
C545 C515 1.437 . S
C545 H516 0.929 . S
C545 C544 1.329 . S
H546 C519 0.931 . S
C547 O529 1.265 . S
C547 O530 1.242 1_655 S
C548 O533 1.261 . S
C548 O534 1.252 1_545 S
C549 C552 1.394 . S
C549 C554 1.370 . S
C549 C555 1.500 . S
C550 C553 1.383 . S
C550 C554 1.395 . S
C551 C552 1.396 . S
C551 C553 1.365 . S
C551 H560 0.929 . S
C552 C549 1.394 . S
C552 C551 1.396 . S
C552 H561 0.930 . S
C553 C550 1.383 . S
C553 C551 1.365 . S
C553 H562 0.931 . S
C554 C549 1.370 . S
C554 C550 1.395 . S
C554 H563 0.930 . S
C555 Gd491 2.805 . S
C555 O531 1.263 . S
C555 O532 1.252 . S
C555 C549 1.500 . S
H556 C539 0.929 . S
H557 C540 0.930 . S
H558 C541 0.931 . S
H559 C542 0.930 1_455 S
H560 C551 0.929 . S
H561 C552 0.930 . S
H562 C553 0.931 . S
H563 C554 0.930 . S
C564 C566 1.422 . S
C564 C568 1.415 . S
C564 N570 1.369 . S
C565 C566 1.421 . S
C565 C567 1.417 . S
C565 C577 1.422 . S
C566 C564 1.422 . S
C566 C565 1.421 . S
C566 N576 1.359 . S
C567 C565 1.417 . S
C567 C569 1.329 . S
C567 H586 0.930 . S
C568 C564 1.415 . S
C568 C569 1.437 . S
C568 C572 1.413 . S
C569 C567 1.329 . S
C569 C568 1.437 . S
C569 H591 0.929 . S
N570 C564 1.369 . S
N570 C571 1.338 . S
N570 Gd575 2.622 . S
C571 N570 1.338 . S
C571 C573 1.378 . S
C571 H583 0.929 . S
C572 C568 1.413 . S
C572 C573 1.348 . S
C572 H588 0.931 . S
C573 C571 1.378 . S
C573 C572 1.348 . S
C573 H589 0.930 . S
Gd574 N594 2.622 . S
Gd574 N601 2.570 . S
Gd574 O608 2.353 1_545 S
Gd574 O609 2.468 . S
Gd574 O610 2.427 . S
Gd574 O612 2.388 . S
Gd574 O613 2.386 . S
Gd574 O617 2.307 . S
Gd574 C627 2.805 . S
Gd575 N570 2.622 . S
Gd575 N576 2.570 . S
Gd575 O607 2.386 . S
Gd575 O611 2.307 1_565 S
Gd575 O614 2.353 1_565 S
Gd575 O615 2.468 . S
Gd575 O616 2.427 . S
Gd575 O618 2.388 . S
Gd575 C639 2.805 . S
N576 C566 1.359 . S
N576 Gd575 2.570 . S
N576 C578 1.343 . S
C577 C565 1.422 . S
C577 C579 1.321 . S
C577 H585 0.931 . S
C578 N576 1.343 . S
C578 C579 1.390 . S
C578 H580 0.931 . S
C579 C577 1.321 . S
C579 C578 1.390 . S
C579 H581 0.930 . S
H580 C578 0.931 . S
H581 C579 0.930 . S
H582 C605 0.931 . S
H583 C571 0.929 . S
H584 C606 0.930 . S
H585 C577 0.931 . S
H586 C567 0.930 . S
H587 C596 0.929 . S
H588 C572 0.931 . S
H589 C573 0.930 . S
H590 C628 0.930 . S
H591 C569 0.929 . S
H592 C597 0.931 . S
H593 C598 0.930 . S
N594 Gd574 2.622 . S
N594 C595 1.369 . S
N594 C596 1.338 . S
C595 N594 1.369 . S
C595 C599 1.415 . S
C595 C602 1.422 . S
C596 H587 0.929 . S
C596 N594 1.338 . S
C596 C598 1.378 . S
C597 H592 0.931 . S
C597 C598 1.348 . S
C597 C599 1.413 . S
C598 H593 0.930 . S
C598 C596 1.378 . S
C598 C597 1.348 . S
C599 C595 1.415 . S
C599 C597 1.413 . S
C599 C629 1.437 . S
H600 C629 0.929 . S
N601 Gd574 2.570 . S
N601 C602 1.359 . S
N601 C605 1.343 . S
C602 C595 1.422 . S
C602 N601 1.359 . S
C602 C604 1.421 . S
C603 C604 1.422 . S
C603 C606 1.321 . S
C603 H630 0.931 . S
C604 C602 1.421 . S
C604 C603 1.422 . S
C604 C628 1.417 . S
C605 H582 0.931 . S
C605 N601 1.343 . S
C605 C606 1.390 . S
C606 H584 0.930 . S
C606 C603 1.321 . S
C606 C605 1.390 . S
O607 Gd575 2.386 . S
O607 C619 1.265 . S
O608 Gd574 2.353 1_565 S
O608 C619 1.242 . S
O609 Gd574 2.468 . S
O609 C627 1.263 . S
O610 Gd574 2.427 . S
O610 C627 1.252 . S
O611 Gd575 2.307 1_545 S
O611 C620 1.261 . S
O612 Gd574 2.388 . S
O612 C620 1.252 . S
O613 Gd574 2.386 . S
O613 C631 1.265 . S
O614 Gd575 2.353 1_545 S
O614 C631 1.242 . S
O615 Gd575 2.468 . S
O615 C639 1.263 . S
O616 Gd575 2.427 . S
O616 C639 1.252 . S
O617 Gd574 2.307 . S
O617 C632 1.244 1_545 S
O618 Gd575 2.388 . S
O618 C632 1.263 . S
C619 O607 1.265 . S
C619 O608 1.242 . S
C620 O611 1.261 . S
C620 O612 1.252 . S
C621 C624 1.394 . S
C621 C626 1.370 . S
C621 C627 1.500 . S
C622 C625 1.383 . S
C622 C626 1.395 . S
C623 C624 1.396 . S
C623 C625 1.365 . S
C623 H640 0.930 1_556 S
C624 C621 1.394 . S
C624 C623 1.396 . S
C624 H641 0.930 . S
C625 C622 1.383 . S
C625 C623 1.365 . S
C625 H642 0.931 . S
C626 C621 1.370 . S
C626 C622 1.395 . S
C626 H643 0.930 . S
C627 Gd574 2.805 . S
C627 O609 1.263 . S
C627 O610 1.252 . S
C627 C621 1.500 . S
C628 H590 0.930 . S
C628 C604 1.417 . S
C628 C629 1.329 . S
C629 C599 1.437 . S
C629 H600 0.929 . S
C629 C628 1.329 . S
H630 C603 0.931 . S
C631 O613 1.265 . S
C631 O614 1.242 . S
C632 O617 1.244 1_565 S
C632 O618 1.263 . S
C633 C636 1.394 . S
C633 C638 1.358 1_565 S
C633 C639 1.500 . S
C634 C637 1.383 1_545 S
C634 C638 1.397 . S
C635 C636 1.396 . S
C635 C637 1.365 . S
C635 H644 0.929 . S
C636 C633 1.394 . S
C636 C635 1.396 . S
C636 H645 0.930 . S
C637 C634 1.383 1_565 S
C637 C635 1.365 . S
C637 H646 0.931 . S
C638 C633 1.358 1_545 S
C638 C634 1.397 . S
C638 H647 0.942 . S
C639 Gd575 2.805 . S
C639 O615 1.263 . S
C639 O616 1.252 . S
C639 C633 1.500 . S
H640 C623 0.930 1_554 S
H641 C624 0.930 . S
H642 C625 0.931 . S
H643 C626 0.930 . S
H644 C635 0.929 . S
H645 C636 0.930 . S
H646 C637 0.931 . S
H647 C638 0.942 . S
C648 C650 1.422 . S
C648 C652 1.415 . S
C648 N654 1.369 . S
C649 C650 1.421 . S
C649 C651 1.417 . S
C649 C661 1.422 . S
C650 C648 1.422 . S
C650 C649 1.421 . S
C650 N660 1.359 . S
C651 C649 1.417 . S
C651 C653 1.329 . S
C651 H670 0.930 . S
C652 C648 1.415 . S
C652 C653 1.437 . S
C652 C656 1.413 . S
C653 C651 1.329 . S
C653 C652 1.437 . S
C653 H675 0.929 . S
N654 C648 1.369 . S
N654 C655 1.338 . S
N654 Gd659 2.622 . S
C655 N654 1.338 . S
C655 C657 1.378 . S
C655 H667 0.929 . S
C656 C652 1.413 . S
C656 C657 1.348 . S
C656 H672 0.931 . S
C657 C655 1.378 . S
C657 C656 1.348 . S
C657 H673 0.930 . S
Gd658 N678 2.622 . S
Gd658 N685 2.570 . S
Gd658 O692 2.353 . S
Gd658 O693 2.468 . S
Gd658 O694 2.427 . S
Gd658 O696 2.388 . S
Gd658 O697 2.386 . S
Gd658 O701 2.307 . S
Gd658 C711 2.805 . S
Gd659 N654 2.622 . S
Gd659 N660 2.570 . S
Gd659 O691 2.386 . S
Gd659 O695 2.307 . S
Gd659 O698 2.353 . S
Gd659 O699 2.468 . S
Gd659 O700 2.427 . S
Gd659 O702 2.388 . S
Gd659 C723 2.805 . S
N660 C650 1.359 . S
N660 Gd659 2.570 . S
N660 C662 1.343 . S
C661 C649 1.422 . S
C661 C663 1.321 . S
C661 H669 0.931 . S
C662 N660 1.343 . S
C662 C663 1.390 . S
C662 H664 0.931 . S
C663 C661 1.321 . S
C663 C662 1.390 . S
C663 H665 0.930 . S
H664 C662 0.931 . S
H665 C663 0.930 . S
H666 C689 0.931 . S
H667 C655 0.929 . S
H668 C690 0.930 . S
H669 C661 0.931 . S
H670 C651 0.930 . S
H671 C680 0.929 . S
H672 C656 0.931 . S
H673 C657 0.930 . S
H674 C712 0.930 . S
H675 C653 0.929 . S
H676 C681 0.931 . S
H677 C682 0.930 . S
N678 Gd658 2.622 . S
N678 C679 1.369 . S
N678 C680 1.338 . S
C679 N678 1.369 . S
C679 C683 1.415 . S
C679 C686 1.422 . S
C680 H671 0.929 . S
C680 N678 1.338 . S
C680 C682 1.378 . S
C681 H676 0.931 . S
C681 C682 1.348 . S
C681 C683 1.413 . S
C682 H677 0.930 . S
C682 C680 1.378 . S
C682 C681 1.348 . S
C683 C679 1.415 . S
C683 C681 1.413 . S
C683 C713 1.437 . S
H684 C713 0.929 . S
N685 Gd658 2.570 . S
N685 C686 1.359 . S
N685 C689 1.343 . S
C686 C679 1.422 . S
C686 N685 1.359 . S
C686 C688 1.421 . S
C687 C688 1.422 . S
C687 C690 1.321 . S
C687 H714 0.931 . S
C688 C686 1.421 . S
C688 C687 1.422 . S
C688 C712 1.417 . S
C689 H666 0.931 . S
C689 N685 1.343 . S
C689 C690 1.390 . S
C690 H668 0.930 . S
C690 C687 1.321 . S
C690 C689 1.390 . S
O691 Gd659 2.386 . S
O691 C703 1.265 . S
O692 Gd658 2.353 . S
O692 C703 1.242 . S
O693 Gd658 2.468 . S
O693 C711 1.263 . S
O694 Gd658 2.427 . S
O694 C711 1.252 . S
O695 Gd659 2.307 . S
O695 C704 1.261 . S
O696 Gd658 2.388 . S
O696 C704 1.252 . S
O697 Gd658 2.386 . S
O697 C715 1.265 . S
O698 Gd659 2.353 . S
O698 C715 1.242 . S
O699 Gd659 2.468 . S
O699 C723 1.263 . S
O700 Gd659 2.427 . S
O700 C723 1.252 . S
O701 Gd658 2.307 . S
O701 C716 1.261 . S
O702 Gd659 2.388 . S
O702 C716 1.252 . S
C703 O691 1.265 . S
C703 O692 1.242 . S
C704 O695 1.261 . S
C704 O696 1.252 . S
C705 C708 1.394 . S
C705 C710 1.370 . S
C705 C711 1.500 . S
C706 C709 1.383 . S
C706 C710 1.395 . S
C707 C708 1.396 . S
C707 C709 1.365 . S
C707 H724 0.929 . S
C708 C705 1.394 . S
C708 C707 1.396 . S
C708 H725 0.930 . S
C709 C706 1.383 . S
C709 C707 1.365 . S
C709 H726 0.931 . S
C710 C705 1.370 . S
C710 C706 1.395 . S
C710 H727 0.930 . S
C711 Gd658 2.805 . S
C711 O693 1.263 . S
C711 O694 1.252 . S
C711 C705 1.500 . S
C712 H674 0.930 . S
C712 C688 1.417 . S
C712 C713 1.329 . S
C713 C683 1.437 . S
C713 H684 0.929 . S
C713 C712 1.329 . S
H714 C687 0.931 . S
C715 O697 1.265 . S
C715 O698 1.242 . S
C716 O701 1.261 . S
C716 O702 1.252 . S
C717 C720 1.394 . S
C717 C722 1.370 . S
C717 C723 1.500 . S
C718 C721 1.383 . S
C718 C722 1.395 . S
C719 C720 1.396 . S
C719 C721 1.365 . S
C719 H728 0.929 . S
C720 C717 1.394 . S
C720 C719 1.396 . S
C720 H729 0.930 . S
C721 C718 1.383 . S
C721 C719 1.365 . S
C721 H730 0.931 . S
C722 C717 1.370 . S
C722 C718 1.395 . S
C722 H731 0.930 . S
C723 Gd659 2.805 . S
C723 O699 1.263 . S
C723 O700 1.252 . S
C723 C717 1.500 . S
H724 C707 0.929 . S
H725 C708 0.930 . S
H726 C709 0.931 . S
H727 C710 0.930 . S
H728 C719 0.929 . S
H729 C720 0.930 . S
H730 C721 0.931 . S
H731 C722 0.930 . S
C732 C734 1.422 . S
C732 C736 1.415 . S
C732 N738 1.369 1_455 S
C733 C734 1.421 . S
C733 C735 1.417 . S
C733 C745 1.422 . S
C734 C732 1.422 . S
C734 C733 1.421 . S
C734 N744 1.359 . S
C735 C733 1.417 . S
C735 C737 1.329 . S
C735 H754 0.930 . S
C736 C732 1.415 . S
C736 C737 1.437 . S
C736 C740 1.413 . S
C737 C735 1.329 . S
C737 C736 1.437 . S
C737 H759 0.929 . S
N738 C732 1.369 1_655 S
N738 C739 1.338 . S
N738 Gd743 2.622 . S
C739 N738 1.338 . S
C739 C741 1.378 1_655 S
C739 H751 0.929 . S
C740 C736 1.413 . S
C740 C741 1.348 . S
C740 H756 0.931 . S
C741 C739 1.378 1_455 S
C741 C740 1.348 . S
C741 H757 0.928 1_455 S
Gd742 N762 2.622 . S
Gd742 N769 2.570 . S
Gd742 O776 2.353 . S
Gd742 O777 2.468 . S
Gd742 O778 2.427 . S
Gd742 O780 2.388 . S
Gd742 O781 2.386 1_455 S
Gd742 O785 2.307 . S
Gd742 C795 2.805 . S
Gd743 N738 2.622 . S
Gd743 N744 2.570 1_655 S
Gd743 O775 2.386 1_655 S
Gd743 O779 2.307 . S
Gd743 O782 2.353 . S
Gd743 O783 2.468 . S
Gd743 O784 2.427 . S
Gd743 O786 2.388 . S
Gd743 C807 2.805 . S
N744 C734 1.359 . S
N744 Gd743 2.570 1_455 S
N744 C746 1.343 . S
C745 C733 1.422 . S
C745 C747 1.321 . S
C745 H753 0.931 . S
C746 N744 1.343 . S
C746 C747 1.390 . S
C746 H748 0.931 1_455 S
C747 C745 1.321 . S
C747 C746 1.390 . S
C747 H749 0.930 . S
H748 C746 0.931 1_655 S
H749 C747 0.930 . S
H750 C773 0.931 . S
H751 C739 0.929 . S
H752 C774 0.930 . S
H753 C745 0.931 . S
H754 C735 0.930 . S
H755 C764 0.929 . S
H756 C740 0.931 . S
H757 C741 0.928 1_655 S
H758 C796 0.930 . S
H759 C737 0.929 . S
H760 C765 0.931 . S
H761 C766 0.930 . S
N762 Gd742 2.622 . S
N762 C763 1.369 . S
N762 C764 1.338 . S
C763 N762 1.369 . S
C763 C767 1.415 1_455 S
C763 C770 1.424 . S
C764 H755 0.929 . S
C764 N762 1.338 . S
C764 C766 1.378 . S
C765 H760 0.931 . S
C765 C766 1.348 1_655 S
C765 C767 1.413 . S
C766 H761 0.930 . S
C766 C764 1.378 . S
C766 C765 1.348 1_455 S
C767 C763 1.415 1_655 S
C767 C765 1.413 . S
C767 C797 1.437 . S
H768 C797 0.929 . S
N769 Gd742 2.570 . S
N769 C770 1.365 . S
N769 C773 1.343 . S
C770 C763 1.424 . S
C770 N769 1.365 . S
C770 C772 1.414 1_455 S
C771 C772 1.422 . S
C771 C774 1.321 . S
C771 H798 0.931 . S
C772 C770 1.414 1_655 S
C772 C771 1.422 . S
C772 C796 1.417 . S
C773 H750 0.931 . S
C773 N769 1.343 . S
C773 C774 1.390 1_455 S
C774 H752 0.930 . S
C774 C771 1.321 . S
C774 C773 1.390 1_655 S
O775 Gd743 2.386 1_455 S
O775 C787 1.265 . S
O776 Gd742 2.353 . S
O776 C787 1.242 . S
O777 Gd742 2.468 . S
O777 C795 1.263 . S
O778 Gd742 2.427 . S
O778 C795 1.252 . S
O779 Gd743 2.307 . S
O779 C788 1.261 1_655 S
O780 Gd742 2.388 . S
O780 C788 1.252 . S
O781 Gd742 2.386 1_655 S
O781 C799 1.265 . S
O782 Gd743 2.353 . S
O782 C799 1.242 . S
O783 Gd743 2.468 . S
O783 C807 1.263 . S
O784 Gd743 2.427 . S
O784 C807 1.252 . S
O785 Gd742 2.307 . S
O785 C800 1.261 . S
O786 Gd743 2.388 . S
O786 C800 1.252 1_655 S
C787 O775 1.265 . S
C787 O776 1.242 . S
C788 O779 1.261 1_455 S
C788 O780 1.252 . S
C789 C792 1.394 . S
C789 C794 1.370 . S
C789 C795 1.500 . S
C790 C793 1.383 . S
C790 C794 1.395 . S
C791 C792 1.396 . S
C791 C793 1.365 . S
C791 H808 0.929 . S
C792 C789 1.394 . S
C792 C791 1.396 . S
C792 H809 0.930 . S
C793 C790 1.383 . S
C793 C791 1.365 . S
C793 H810 0.931 . S
C794 C789 1.370 . S
C794 C790 1.395 . S
C794 H811 0.930 . S
C795 Gd742 2.805 . S
C795 O777 1.263 . S
C795 O778 1.252 . S
C795 C789 1.500 . S
C796 H758 0.930 . S
C796 C772 1.417 . S
C796 C797 1.329 . S
C797 C767 1.437 . S
C797 H768 0.929 . S
C797 C796 1.329 . S
H798 C771 0.931 . S
C799 O781 1.265 . S
C799 O782 1.242 . S
C800 O785 1.261 . S
C800 O786 1.252 1_455 S
C801 C804 1.394 . S
C801 C806 1.370 . S
C801 C807 1.500 . S
C802 C805 1.383 . S
C802 C806 1.395 . S
C803 C804 1.396 . S
C803 C805 1.365 . S
C803 H812 0.929 . S
C804 C801 1.394 . S
C804 C803 1.396 . S
C804 H813 0.930 . S
C805 C802 1.383 . S
C805 C803 1.365 . S
C805 H814 0.931 . S
C806 C801 1.370 . S
C806 C802 1.395 . S
C806 H815 0.930 . S
C807 Gd743 2.805 . S
C807 O783 1.263 . S
C807 O784 1.252 . S
C807 C801 1.500 . S
H808 C791 0.929 . S
H809 C792 0.930 . S
H810 C793 0.931 . S
H811 C794 0.930 . S
H812 C803 0.929 . S
H813 C804 0.930 . S
H814 C805 0.931 . S
H815 C806 0.930 . S
H816 C828 0.930 . S
H817 C830 0.930 . S
H818 C831 0.930 . S
H819 C835 0.959 . S
H820 C835 0.959 1_565 S
H821 C835 0.961 1_565 S
H822 C836 0.960 . S
H823 C836 0.961 . S
H824 C836 0.959 . S
H825 C839 0.929 . S
H826 C840 0.931 . S
H827 C842 0.930 1_565 S
C828 H816 0.930 . S
C828 C829 1.399 . S
C828 C833 1.399 . S
C829 C828 1.399 . S
C829 C830 1.376 . S
C830 H817 0.930 . S
C830 C829 1.376 . S
C830 C831 1.388 . S
C831 H818 0.930 . S
C831 C830 1.388 . S
C831 C832 1.390 . S
C832 C831 1.390 . S
C832 C833 1.394 . S
C832 C838 1.465 . S
C833 C828 1.399 . S
C833 C832 1.394 . S
C833 C834 1.516 . S
C834 C833 1.516 . S
C834 C835 1.502 . S
C834 C836 1.561 1_545 S
C834 C837 1.526 . S
C835 H819 0.959 . S
C835 H820 0.959 1_545 S
C835 H821 0.961 1_545 S
C835 C834 1.502 . S
C836 H822 0.960 . S
C836 H823 0.961 . S
C836 H824 0.959 . S
C836 C834 1.561 1_565 S
C837 C834 1.526 . S
C837 C838 1.396 . S
C837 C842 1.390 . S
C838 C832 1.465 . S
C838 C837 1.396 . S
C838 C839 1.399 . S
C839 H825 0.929 . S
C839 C838 1.399 . S
C839 C840 1.385 . S
C840 H826 0.931 . S
C840 C839 1.385 . S
C840 C841 1.389 . S
C841 C840 1.389 . S
C841 C842 1.387 . S
C842 H827 0.930 1_545 S
C842 C837 1.390 . S
C842 C841 1.387 . S
H843 C855 0.930 . S
H844 C857 0.930 . S
H845 C858 0.930 . S
H846 C862 0.959 . S
H847 C862 0.959 . S
H848 C862 0.961 . S
H849 C863 0.960 . S
H850 C863 0.961 . S
H851 C863 0.959 . S
H852 C866 0.929 . S
H853 C867 0.931 . S
H854 C869 0.930 . S
C855 H843 0.930 . S
C855 C856 1.399 . S
C855 C860 1.399 . S
C856 C855 1.399 . S
C856 C857 1.376 . S
C857 H844 0.930 . S
C857 C856 1.376 . S
C857 C858 1.388 . S
C858 H845 0.930 . S
C858 C857 1.388 . S
C858 C859 1.390 . S
C859 C858 1.390 . S
C859 C860 1.394 . S
C859 C865 1.465 . S
C860 C855 1.399 . S
C860 C859 1.394 . S
C860 C861 1.516 . S
C861 C860 1.516 . S
C861 C862 1.502 . S
C861 C863 1.561 . S
C861 C864 1.526 . S
C862 H846 0.959 . S
C862 H847 0.959 . S
C862 H848 0.961 . S
C862 C861 1.502 . S
C863 H849 0.960 . S
C863 H850 0.961 . S
C863 H851 0.959 . S
C863 C861 1.561 . S
C864 C861 1.526 . S
C864 C865 1.396 . S
C864 C869 1.390 . S
C865 C859 1.465 . S
C865 C864 1.396 . S
C865 C866 1.399 . S
C866 H852 0.929 . S
C866 C865 1.399 . S
C866 C867 1.385 . S
C867 H853 0.931 . S
C867 C866 1.385 . S
C867 C868 1.389 . S
C868 C867 1.389 . S
C868 C869 1.387 . S
C869 H854 0.930 . S
C869 C864 1.390 . S
C869 C868 1.387 . S
H870 C882 0.930 . S
H871 C884 0.930 . S
H872 C885 0.930 . S
H873 C889 0.959 . S
H874 C889 0.959 . S
H875 C889 0.961 . S
H876 C890 0.960 . S
H877 C890 0.961 . S
H878 C890 0.959 . S
H879 C893 0.929 . S
H880 C894 0.931 . S
H881 C896 0.930 . S
C882 H870 0.930 . S
C882 C883 1.399 . S
C882 C887 1.399 . S
C883 C882 1.399 . S
C883 C884 1.376 . S
C884 H871 0.930 . S
C884 C883 1.376 . S
C884 C885 1.388 . S
C885 H872 0.930 . S
C885 C884 1.388 . S
C885 C886 1.390 . S
C886 C885 1.390 . S
C886 C887 1.394 . S
C886 C892 1.465 . S
C887 C882 1.399 . S
C887 C886 1.394 . S
C887 C888 1.516 . S
C888 C887 1.516 . S
C888 C889 1.502 . S
C888 C890 1.561 . S
C888 C891 1.526 . S
C889 H873 0.959 . S
C889 H874 0.959 . S
C889 H875 0.961 . S
C889 C888 1.502 . S
C890 H876 0.960 . S
C890 H877 0.961 . S
C890 H878 0.959 . S
C890 C888 1.561 . S
C891 C888 1.526 . S
C891 C892 1.396 . S
C891 C896 1.390 . S
C892 C886 1.465 . S
C892 C891 1.396 . S
C892 C893 1.399 . S
C893 H879 0.929 . S
C893 C892 1.399 . S
C893 C894 1.385 . S
C894 H880 0.931 . S
C894 C893 1.385 . S
C894 C895 1.389 . S
C895 C894 1.389 . S
C895 C896 1.387 . S
C896 H881 0.930 . S
C896 C891 1.390 . S
C896 C895 1.387 . S
H897 C909 0.930 . S
H898 C911 0.930 . S
H899 C912 0.930 . S
H900 C916 0.959 . S
H901 C916 0.959 . S
H902 C916 0.961 . S
H903 C917 0.960 . S
H904 C917 0.961 . S
H905 C917 0.959 . S
H906 C920 0.929 . S
H907 C921 0.931 . S
H908 C923 0.930 1_655 S
C909 H897 0.930 . S
C909 C910 1.399 . S
C909 C914 1.399 . S
C910 C909 1.399 . S
C910 C911 1.376 . S
C911 H898 0.930 . S
C911 C910 1.376 . S
C911 C912 1.388 . S
C912 H899 0.930 . S
C912 C911 1.388 . S
C912 C913 1.390 . S
C913 C912 1.390 . S
C913 C914 1.394 . S
C913 C919 1.465 . S
C914 C909 1.399 . S
C914 C913 1.394 . S
C914 C915 1.516 1_455 S
C915 C914 1.516 1_655 S
C915 C916 1.502 . S
C915 C917 1.561 . S
C915 C918 1.526 1_655 S
C916 H900 0.959 . S
C916 H901 0.959 . S
C916 H902 0.961 . S
C916 C915 1.502 . S
C917 H903 0.960 . S
C917 H904 0.961 . S
C917 H905 0.959 . S
C917 C915 1.561 . S
C918 C915 1.526 1_455 S
C918 C919 1.396 . S
C918 C923 1.390 . S
C919 C913 1.465 . S
C919 C918 1.396 . S
C919 C920 1.399 . S
C920 H906 0.929 . S
C920 C919 1.399 . S
C920 C921 1.385 . S
C921 H907 0.931 . S
C921 C920 1.385 . S
C921 C922 1.389 . S
C922 C921 1.389 . S
C922 C923 1.387 . S
C923 H908 0.930 1_455 S
C923 C918 1.390 . S
C923 C922 1.387 . S
H924 C936 0.930 . S
H925 C938 0.916 1_545 S
H926 C939 0.930 . S
H927 C943 0.959 . S
H928 C943 0.959 . S
H929 C943 0.961 . S
H930 C944 0.960 . S
H931 C944 0.961 . S
H932 C944 0.959 . S
H933 C947 0.929 . S
H934 C948 0.931 . S
H935 C950 0.930 . S
C936 H924 0.930 . S
C936 C937 1.399 . S
C936 C941 1.399 1_554 S
C937 C936 1.399 . S
C937 C938 1.401 . S
C938 H925 0.916 1_565 S
C938 C937 1.401 . S
C938 C939 1.379 1_565 S
C939 H926 0.930 . S
C939 C938 1.379 1_545 S
C939 C940 1.390 1_544 S
C940 C939 1.390 1_566 S
C940 C941 1.394 . S
C940 C946 1.465 . S
C941 C936 1.399 1_556 S
C941 C940 1.394 . S
C941 C942 1.516 . S
C942 C941 1.516 . S
C942 C943 1.502 . S
C942 C944 1.561 . S
C942 C945 1.526 . S
C943 H927 0.959 . S
C943 H928 0.959 . S
C943 H929 0.961 . S
C943 C942 1.502 . S
C944 H930 0.960 . S
C944 H931 0.961 . S
C944 H932 0.959 . S
C944 C942 1.561 . S
C945 C942 1.526 . S
C945 C946 1.396 . S
C945 C950 1.390 . S
C946 C940 1.465 . S
C946 C945 1.396 . S
C946 C947 1.399 1_565 S
C947 H933 0.929 . S
C947 C946 1.399 1_545 S
C947 C948 1.385 . S
C948 H934 0.931 . S
C948 C947 1.385 . S
C948 C949 1.348 1_545 S
C949 C948 1.348 1_565 S
C949 C950 1.429 . S
C950 H935 0.930 . S
C950 C945 1.390 . S
C950 C949 1.429 . S
H951 C963 0.930 . S
H952 C965 0.930 . S
H953 C966 0.930 . S
H954 C970 0.959 . S
H955 C970 0.959 . S
H956 C970 0.961 . S
H957 C971 0.960 . S
H958 C971 0.961 . S
H959 C971 0.959 . S
H960 C974 0.929 . S
H961 C975 0.931 . S
H962 C977 0.930 . S
C963 H951 0.930 . S
C963 C964 1.399 . S
C963 C968 1.399 1_554 S
C964 C963 1.399 . S
C964 C965 1.376 . S
C965 H952 0.930 . S
C965 C964 1.376 . S
C965 C966 1.388 . S
C966 H953 0.930 . S
C966 C965 1.388 . S
C966 C967 1.390 1_554 S
C967 C966 1.390 1_556 S
C967 C968 1.394 . S
C967 C973 1.465 . S
C968 C963 1.399 1_556 S
C968 C967 1.394 . S
C968 C969 1.516 . S
C969 C968 1.516 . S
C969 C970 1.502 . S
C969 C971 1.561 . S
C969 C972 1.526 . S
C970 H954 0.959 . S
C970 H955 0.959 . S
C970 H956 0.961 . S
C970 C969 1.502 . S
C971 H957 0.960 . S
C971 H958 0.961 . S
C971 H959 0.959 . S
C971 C969 1.561 . S
C972 C969 1.526 . S
C972 C973 1.396 . S
C972 C977 1.390 . S
C973 C967 1.465 . S
C973 C972 1.396 . S
C973 C974 1.399 . S
C974 H960 0.929 . S
C974 C973 1.399 . S
C974 C975 1.385 . S
C975 H961 0.931 . S
C975 C974 1.385 . S
C975 C976 1.389 . S
C976 C975 1.389 . S
C976 C977 1.387 . S
C977 H962 0.930 . S
C977 C972 1.390 . S
C977 C976 1.387 . S
H978 C990 0.930 . S
H979 C992 0.930 . S
H980 C993 0.930 . S
H981 C997 0.959 . S
H982 C997 0.959 . S
H983 C997 0.961 . S
H984 C998 0.960 . S
H985 C998 0.961 . S
H986 C998 0.959 . S
H987 C1001 0.929 . S
H988 C1002 0.931 . S
H989 C1004 0.930 . S
C990 H978 0.930 . S
C990 C991 1.399 . S
C990 C995 1.399 1_554 S
C991 C990 1.399 . S
C991 C992 1.376 . S
C992 H979 0.930 . S
C992 C991 1.376 . S
C992 C993 1.388 . S
C993 H980 0.930 . S
C993 C992 1.388 . S
C993 C994 1.390 1_554 S
C994 C993 1.390 1_556 S
C994 C995 1.394 . S
C994 C1000 1.465 . S
C995 C990 1.399 1_556 S
C995 C994 1.394 . S
C995 C996 1.516 . S
C996 C995 1.516 . S
C996 C997 1.502 . S
C996 C998 1.561 . S
C996 C999 1.526 . S
C997 H981 0.959 . S
C997 H982 0.959 . S
C997 H983 0.961 . S
C997 C996 1.502 . S
C998 H984 0.960 . S
C998 H985 0.961 . S
C998 H986 0.959 . S
C998 C996 1.561 . S
C999 C996 1.526 . S
C999 C1000 1.396 . S
C999 C1004 1.390 . S
C1000 C994 1.465 . S
C1000 C999 1.396 . S
C1000 C1001 1.399 . S
C1001 H987 0.929 . S
C1001 C1000 1.399 . S
C1001 C1002 1.385 . S
C1002 H988 0.931 . S
C1002 C1001 1.385 . S
C1002 C1003 1.389 . S
C1003 C1002 1.389 . S
C1003 C1004 1.387 . S
C1004 H989 0.930 . S
C1004 C999 1.390 . S
C1004 C1003 1.387 . S
H1005 C1017 0.930 . S
H1006 C1019 0.930 . S
H1007 C1020 0.930 . S
H1008 C1024 0.959 . S
H1009 C1024 0.959 1_455 S
H1010 C1024 0.960 1_455 S
H1011 C1025 0.960 . S
H1012 C1025 0.961 . S
H1013 C1025 0.959 . S
H1014 C1028 0.929 . S
H1015 C1029 0.931 . S
H1016 C1031 0.950 . S
C1017 H1005 0.930 . S
C1017 C1018 1.399 . S
C1017 C1022 1.399 1_554 S
C1018 C1017 1.399 . S
C1018 C1019 1.376 . S
C1019 H1006 0.930 . S
C1019 C1018 1.376 . S
C1019 C1020 1.388 . S
C1020 H1007 0.930 . S
C1020 C1019 1.388 . S
C1020 C1021 1.390 1_554 S
C1021 C1020 1.390 1_556 S
C1021 C1022 1.394 . S
C1021 C1027 1.465 . S
C1022 C1017 1.399 1_556 S
C1022 C1021 1.394 . S
C1022 C1023 1.516 1_655 S
C1023 C1022 1.516 1_455 S
C1023 C1024 1.502 1_455 S
C1023 C1025 1.561 . S
C1023 C1026 1.526 1_455 S
C1024 H1008 0.959 . S
C1024 H1009 0.959 1_655 S
C1024 H1010 0.960 1_655 S
C1024 C1023 1.502 1_655 S
C1025 H1011 0.960 . S
C1025 H1012 0.961 . S
C1025 H1013 0.959 . S
C1025 C1023 1.561 . S
C1026 C1023 1.526 1_655 S
C1026 C1027 1.396 . S
C1026 C1031 1.381 1_655 S
C1027 C1021 1.465 . S
C1027 C1026 1.396 . S
C1027 C1028 1.399 . S
C1028 H1014 0.929 . S
C1028 C1027 1.399 . S
C1028 C1029 1.385 . S
C1029 H1015 0.931 . S
C1029 C1028 1.385 . S
C1029 C1030 1.389 . S
C1030 C1029 1.389 . S
C1030 C1031 1.375 1_655 S
C1031 H1016 0.950 . S
C1031 C1026 1.381 1_455 S
C1031 C1030 1.375 1_455 S
H1032 C1044 0.930 . S
H1033 C1046 0.930 . S
H1034 C1047 0.930 . S
H1035 C1051 0.959 1_655 S
H1036 C1051 0.959 1_655 S
H1037 C1051 0.961 . S
H1038 C1052 0.960 . S
H1039 C1052 0.961 . S
H1040 C1052 0.959 . S
H1041 C1055 0.929 . S
H1042 C1056 0.935 . S
H1043 C1058 0.926 1_655 S
C1044 H1032 0.930 . S
C1044 C1045 1.399 . S
C1044 C1049 1.399 . S
C1045 C1044 1.399 . S
C1045 C1046 1.376 . S
C1046 H1033 0.930 . S
C1046 C1045 1.376 . S
C1046 C1047 1.388 . S
C1047 H1034 0.930 . S
C1047 C1046 1.388 . S
C1047 C1048 1.390 . S
C1048 C1047 1.390 . S
C1048 C1049 1.394 . S
C1048 C1054 1.465 . S
C1049 C1044 1.399 . S
C1049 C1048 1.394 . S
C1049 C1050 1.516 . S
C1050 C1049 1.516 . S
C1050 C1051 1.502 . S
C1050 C1052 1.561 . S
C1050 C1053 1.526 . S
C1051 H1035 0.959 1_455 S
C1051 H1036 0.959 1_455 S
C1051 H1037 0.961 . S
C1051 C1050 1.502 . S
C1052 H1038 0.960 . S
C1052 H1039 0.961 . S
C1052 H1040 0.959 . S
C1052 C1050 1.561 . S
C1053 C1050 1.526 . S
C1053 C1054 1.396 . S
C1053 C1058 1.390 . S
C1054 C1048 1.465 . S
C1054 C1053 1.396 . S
C1054 C1055 1.399 . S
C1055 H1041 0.929 . S
C1055 C1054 1.399 . S
C1055 C1056 1.385 . S
C1056 H1042 0.935 . S
C1056 C1055 1.385 . S
C1056 C1057 1.389 1_455 S
C1057 C1056 1.389 1_655 S
C1057 C1058 1.387 1_655 S
C1058 H1043 0.926 1_455 S
C1058 C1053 1.390 . S
C1058 C1057 1.387 1_455 S
H1059 C1071 0.930 . S
H1060 C1073 0.930 . S
H1061 C1074 0.930 . S
H1062 C1078 0.959 . S
H1063 C1078 0.959 . S
H1064 C1078 0.961 . S
H1065 C1079 0.960 . S
H1066 C1079 0.961 1_565 S
H1067 C1079 0.959 1_565 S
H1068 C1082 0.929 . S
H1069 C1083 0.942 . S
H1070 C1085 0.930 . S
C1071 H1059 0.930 . S
C1071 C1072 1.399 . S
C1071 C1076 1.399 . S
C1072 C1071 1.399 . S
C1072 C1073 1.376 . S
C1073 H1060 0.930 . S
C1073 C1072 1.376 . S
C1073 C1074 1.388 . S
C1074 H1061 0.930 . S
C1074 C1073 1.388 . S
C1074 C1075 1.390 . S
C1075 C1074 1.390 . S
C1075 C1076 1.394 . S
C1075 C1081 1.465 . S
C1076 C1071 1.399 . S
C1076 C1075 1.394 . S
C1076 C1077 1.516 . S
C1077 C1076 1.516 . S
C1077 C1078 1.502 . S
C1077 C1079 1.561 . S
C1077 C1080 1.526 . S
C1078 H1062 0.959 . S
C1078 H1063 0.959 . S
C1078 H1064 0.961 . S
C1078 C1077 1.502 . S
C1079 H1065 0.960 . S
C1079 H1066 0.961 1_545 S
C1079 H1067 0.959 1_545 S
C1079 C1077 1.561 . S
C1080 C1077 1.526 . S
C1080 C1081 1.396 . S
C1080 C1085 1.390 . S
C1081 C1075 1.465 . S
C1081 C1080 1.396 . S
C1081 C1082 1.399 . S
C1082 H1068 0.929 . S
C1082 C1081 1.399 . S
C1082 C1083 1.385 . S
C1083 H1069 0.942 . S
C1083 C1082 1.385 . S
C1083 C1084 1.389 . S
C1084 C1083 1.389 . S
C1084 C1085 1.387 . S
C1085 H1070 0.930 . S
C1085 C1080 1.390 . S
C1085 C1084 1.387 . S
H1086 C1098 0.930 . S
H1087 C1100 0.930 . S
H1088 C1101 0.930 . S
H1089 C1105 0.959 . S
H1090 C1105 0.959 . S
H1091 C1105 0.961 . S
H1092 C1106 0.960 . S
H1093 C1106 0.961 . S
H1094 C1106 0.959 . S
H1095 C1109 0.929 . S
H1096 C1110 0.931 . S
H1097 C1112 0.930 . S
C1098 H1086 0.930 . S
C1098 C1099 1.399 . S
C1098 C1103 1.399 . S
C1099 C1098 1.399 . S
C1099 C1100 1.376 . S
C1100 H1087 0.930 . S
C1100 C1099 1.376 . S
C1100 C1101 1.388 . S
C1101 H1088 0.930 . S
C1101 C1100 1.388 . S
C1101 C1102 1.390 . S
C1102 C1101 1.390 . S
C1102 C1103 1.394 . S
C1102 C1108 1.465 . S
C1103 C1098 1.399 . S
C1103 C1102 1.394 . S
C1103 C1104 1.516 . S
C1104 C1103 1.516 . S
C1104 C1105 1.502 . S
C1104 C1106 1.561 . S
C1104 C1107 1.526 . S
C1105 H1089 0.959 . S
C1105 H1090 0.959 . S
C1105 H1091 0.961 . S
C1105 C1104 1.502 . S
C1106 H1092 0.960 . S
C1106 H1093 0.961 . S
C1106 H1094 0.959 . S
C1106 C1104 1.561 . S
C1107 C1104 1.526 . S
C1107 C1108 1.396 . S
C1107 C1112 1.390 . S
C1108 C1102 1.465 . S
C1108 C1107 1.396 . S
C1108 C1109 1.399 . S
C1109 H1095 0.929 . S
C1109 C1108 1.399 . S
C1109 C1110 1.385 . S
C1110 H1096 0.931 . S
C1110 C1109 1.385 . S
C1110 C1111 1.389 . S
C1111 C1110 1.389 . S
C1111 C1112 1.387 . S
C1112 H1097 0.930 . S
C1112 C1107 1.390 . S
C1112 C1111 1.387 . S
H1113 C1125 0.930 . S
H1114 C1127 0.930 . S
H1115 C1128 0.930 . S
H1116 C1132 0.959 . S
H1117 C1132 0.959 . S
H1118 C1132 0.961 . S
H1119 C1133 0.960 . S
H1120 C1133 0.961 . S
H1121 C1133 0.959 . S
H1122 C1136 0.929 . S
H1123 C1137 0.931 . S
H1124 C1139 0.930 . S
C1125 H1113 0.930 . S
C1125 C1126 1.399 . S
C1125 C1130 1.399 . S
C1126 C1125 1.399 . S
C1126 C1127 1.376 . S
C1127 H1114 0.930 . S
C1127 C1126 1.376 . S
C1127 C1128 1.388 . S
C1128 H1115 0.930 . S
C1128 C1127 1.388 . S
C1128 C1129 1.390 . S
C1129 C1128 1.390 . S
C1129 C1130 1.394 . S
C1129 C1135 1.465 . S
C1130 C1125 1.399 . S
C1130 C1129 1.394 . S
C1130 C1131 1.516 . S
C1131 C1130 1.516 . S
C1131 C1132 1.502 . S
C1131 C1133 1.561 . S
C1131 C1134 1.526 . S
C1132 H1116 0.959 . S
C1132 H1117 0.959 . S
C1132 H1118 0.961 . S
C1132 C1131 1.502 . S
C1133 H1119 0.960 . S
C1133 H1120 0.961 . S
C1133 H1121 0.959 . S
C1133 C1131 1.561 . S
C1134 C1131 1.526 . S
C1134 C1135 1.396 . S
C1134 C1139 1.390 . S
C1135 C1129 1.465 . S
C1135 C1134 1.396 . S
C1135 C1136 1.399 . S
C1136 H1122 0.929 . S
C1136 C1135 1.399 . S
C1136 C1137 1.385 . S
C1137 H1123 0.931 . S
C1137 C1136 1.385 . S
C1137 C1138 1.389 . S
C1138 C1137 1.389 . S
C1138 C1139 1.387 . S
C1139 H1124 0.930 . S
C1139 C1134 1.390 . S
C1139 C1138 1.387 . S
H1140 C1152 0.930 . S
H1141 C1154 0.930 . S
H1142 C1155 0.930 . S
H1143 C1159 0.959 . S
H1144 C1159 0.959 . S
H1145 C1159 0.961 . S
H1146 C1160 0.960 . S
H1147 C1160 0.961 . S
H1148 C1160 0.959 . S
H1149 C1163 0.929 . S
H1150 C1164 0.931 . S
H1151 C1166 0.930 . S
C1152 H1140 0.930 . S
C1152 C1153 1.399 . S
C1152 C1157 1.399 1_554 S
C1153 C1152 1.399 . S
C1153 C1154 1.376 . S
C1154 H1141 0.930 . S
C1154 C1153 1.376 . S
C1154 C1155 1.388 1_654 S
C1155 H1142 0.930 . S
C1155 C1154 1.388 1_456 S
C1155 C1156 1.390 1_455 S
C1156 C1155 1.390 1_655 S
C1156 C1157 1.394 . S
C1156 C1162 1.465 1_655 S
C1157 C1152 1.399 1_556 S
C1157 C1156 1.394 . S
C1157 C1158 1.516 . S
C1158 C1157 1.516 . S
C1158 C1159 1.502 . S
C1158 C1160 1.561 1_556 S
C1158 C1161 1.526 . S
C1159 H1143 0.959 . S
C1159 H1144 0.959 . S
C1159 H1145 0.961 . S
C1159 C1158 1.502 . S
C1160 H1146 0.960 . S
C1160 H1147 0.961 . S
C1160 H1148 0.959 . S
C1160 C1158 1.561 1_554 S
C1161 C1158 1.526 . S
C1161 C1162 1.396 1_655 S
C1161 C1166 1.390 . S
C1162 C1156 1.465 1_455 S
C1162 C1161 1.396 1_455 S
C1162 C1163 1.399 . S
C1163 H1149 0.929 . S
C1163 C1162 1.399 . S
C1163 C1164 1.385 . S
C1164 H1150 0.931 . S
C1164 C1163 1.385 . S
C1164 C1165 1.389 . S
C1165 C1164 1.389 . S
C1165 C1166 1.387 1_455 S
C1166 H1151 0.930 . S
C1166 C1161 1.390 . S
C1166 C1165 1.387 1_655 S
H1167 C1179 0.930 . S
H1168 C1181 0.930 . S
H1169 C1182 0.930 . S
H1170 C1186 0.959 . S
H1171 C1186 0.959 . S
H1172 C1186 0.961 . S
H1173 C1187 0.960 . S
H1174 C1187 0.961 . S
H1175 C1187 0.959 . S
H1176 C1190 0.929 . S
H1177 C1191 0.931 . S
H1178 C1193 0.930 . S
C1179 H1167 0.930 . S
C1179 C1180 1.399 . S
C1179 C1184 1.399 . S
C1180 C1179 1.399 . S
C1180 C1181 1.376 1_554 S
C1181 H1168 0.930 . S
C1181 C1180 1.376 1_556 S
C1181 C1182 1.388 . S
C1182 H1169 0.930 . S
C1182 C1181 1.388 . S
C1182 C1183 1.390 . S
C1183 C1182 1.390 . S
C1183 C1184 1.394 1_556 S
C1183 C1189 1.465 . S
C1184 C1179 1.399 . S
C1184 C1183 1.394 1_554 S
C1184 C1185 1.501 1_565 S
C1185 C1184 1.501 1_545 S
C1185 C1186 1.488 1_545 S
C1185 C1187 1.589 . S
C1185 C1188 1.530 1_554 S
C1186 H1170 0.959 . S
C1186 H1171 0.959 . S
C1186 H1172 0.961 . S
C1186 C1185 1.488 1_565 S
C1187 H1173 0.960 . S
C1187 H1174 0.961 . S
C1187 H1175 0.959 . S
C1187 C1185 1.589 . S
C1188 C1185 1.530 1_556 S
C1188 C1189 1.396 1_545 S
C1188 C1193 1.390 . S
C1189 C1183 1.465 . S
C1189 C1188 1.396 1_565 S
C1189 C1190 1.399 . S
C1190 H1176 0.929 . S
C1190 C1189 1.399 . S
C1190 C1191 1.385 1_565 S
C1191 H1177 0.931 . S
C1191 C1190 1.385 1_545 S
C1191 C1192 1.389 . S
C1192 C1191 1.389 . S
C1192 C1193 1.387 . S
C1193 H1178 0.930 . S
C1193 C1188 1.390 . S
C1193 C1192 1.387 . S
H1194 C1206 0.930 . S
H1195 C1208 0.930 . S
H1196 C1209 0.930 . S
H1197 C1213 0.959 . S
H1198 C1213 0.959 . S
H1199 C1213 0.961 . S
H1200 C1214 0.960 . S
H1201 C1214 0.961 . S
H1202 C1214 0.959 . S
H1203 C1217 0.929 1_554 S
H1204 C1218 0.931 . S
H1205 C1220 0.930 . S
C1206 H1194 0.930 . S
C1206 C1207 1.399 1_556 S
C1206 C1211 1.399 . S
C1207 C1206 1.399 1_554 S
C1207 C1208 1.376 . S
C1208 H1195 0.930 . S
C1208 C1207 1.376 . S
C1208 C1209 1.388 . S
C1209 H1196 0.930 . S
C1209 C1208 1.388 . S
C1209 C1210 1.390 1_554 S
C1210 C1209 1.390 1_556 S
C1210 C1211 1.394 . S
C1210 C1216 1.465 . S
C1211 C1206 1.399 . S
C1211 C1210 1.394 . S
C1211 C1212 1.516 . S
C1212 C1211 1.516 . S
C1212 C1213 1.502 . S
C1212 C1214 1.561 . S
C1212 C1215 1.526 . S
C1213 H1197 0.959 . S
C1213 H1198 0.959 . S
C1213 H1199 0.961 . S
C1213 C1212 1.502 . S
C1214 H1200 0.960 . S
C1214 H1201 0.961 . S
C1214 H1202 0.959 . S
C1214 C1212 1.561 . S
C1215 C1212 1.526 . S
C1215 C1216 1.396 . S
C1215 C1220 1.390 . S
C1216 C1210 1.465 . S
C1216 C1215 1.396 . S
C1216 C1217 1.399 . S
C1217 H1203 0.929 1_556 S
C1217 C1216 1.399 . S
C1217 C1218 1.385 . S
C1218 H1204 0.931 . S
C1218 C1217 1.385 . S
C1218 C1219 1.389 . S
C1219 C1218 1.389 . S
C1219 C1220 1.387 . S
C1220 H1205 0.930 . S
C1220 C1215 1.390 . S
C1220 C1219 1.387 . S
H1221 C1233 0.930 . S
H1222 C1235 0.930 . S
H1223 C1236 0.930 . S
H1224 C1240 0.959 . S
H1225 C1240 0.959 . S
H1226 C1240 0.961 . S
H1227 C1241 0.960 . S
H1228 C1241 0.961 . S
H1229 C1241 0.959 . S
H1230 C1244 0.929 1_554 S
H1231 C1245 0.931 . S
H1232 C1247 0.930 . S
C1233 H1221 0.930 . S
C1233 C1234 1.399 1_556 S
C1233 C1238 1.399 . S
C1234 C1233 1.399 1_554 S
C1234 C1235 1.376 . S
C1235 H1222 0.930 . S
C1235 C1234 1.376 . S
C1235 C1236 1.388 . S
C1236 H1223 0.930 . S
C1236 C1235 1.388 . S
C1236 C1237 1.390 1_554 S
C1237 C1236 1.390 1_556 S
C1237 C1238 1.394 . S
C1237 C1243 1.465 . S
C1238 C1233 1.399 . S
C1238 C1237 1.394 . S
C1238 C1239 1.516 . S
C1239 C1238 1.516 . S
C1239 C1240 1.502 . S
C1239 C1241 1.561 . S
C1239 C1242 1.526 . S
C1240 H1224 0.959 . S
C1240 H1225 0.959 . S
C1240 H1226 0.961 . S
C1240 C1239 1.502 . S
C1241 H1227 0.960 . S
C1241 H1228 0.961 . S
C1241 H1229 0.959 . S
C1241 C1239 1.561 . S
C1242 C1239 1.526 . S
C1242 C1243 1.396 . S
C1242 C1247 1.390 . S
C1243 C1237 1.465 . S
C1243 C1242 1.396 . S
C1243 C1244 1.399 . S
C1244 H1230 0.929 1_556 S
C1244 C1243 1.399 . S
C1244 C1245 1.385 . S
C1245 H1231 0.931 . S
C1245 C1244 1.385 . S
C1245 C1246 1.389 . S
C1246 C1245 1.389 . S
C1246 C1247 1.387 . S
C1247 H1232 0.930 . S
C1247 C1242 1.390 . S
C1247 C1246 1.387 . S
H1248 C1260 0.930 . S
H1249 C1262 0.930 . S
H1250 C1263 0.930 . S
H1251 C1267 0.959 . S
H1252 C1267 0.959 . S
H1253 C1267 0.961 . S
H1254 C1268 0.960 . S
H1255 C1268 0.961 . S
H1256 C1268 0.959 . S
H1257 C1271 0.929 . S
H1258 C1272 0.931 . S
H1259 C1274 0.930 . S
C1260 H1248 0.930 . S
C1260 C1261 1.399 . S
C1260 C1265 1.399 . S
C1261 C1260 1.399 . S
C1261 C1262 1.376 . S
C1262 H1249 0.930 . S
C1262 C1261 1.376 . S
C1262 C1263 1.388 . S
C1263 H1250 0.930 . S
C1263 C1262 1.388 . S
C1263 C1264 1.390 . S
C1264 C1263 1.390 . S
C1264 C1265 1.394 . S
C1264 C1270 1.465 . S
C1265 C1260 1.399 . S
C1265 C1264 1.394 . S
C1265 C1266 1.516 . S
C1266 C1265 1.516 . S
C1266 C1267 1.502 1_455 S
C1266 C1268 1.561 . S
C1266 C1269 1.526 . S
C1267 H1251 0.959 . S
C1267 H1252 0.959 . S
C1267 H1253 0.961 . S
C1267 C1266 1.502 1_655 S
C1268 H1254 0.960 . S
C1268 H1255 0.961 . S
C1268 H1256 0.959 . S
C1268 C1266 1.561 . S
C1269 C1266 1.526 . S
C1269 C1270 1.396 . S
C1269 C1274 1.390 . S
C1270 C1264 1.465 . S
C1270 C1269 1.396 . S
C1270 C1271 1.399 . S
C1271 H1257 0.929 . S
C1271 C1270 1.399 . S
C1271 C1272 1.385 . S
C1272 H1258 0.931 . S
C1272 C1271 1.385 . S
C1272 C1273 1.389 . S
C1273 C1272 1.389 . S
C1273 C1274 1.387 . S
C1274 H1259 0.930 . S
C1274 C1269 1.390 . S
C1274 C1273 1.387 . S
H1275 C1287 0.930 . S
H1276 C1289 0.930 . S
H1277 C1290 0.930 . S
H1278 C1294 0.959 . S
H1279 C1294 0.959 . S
H1280 C1294 0.961 . S
H1281 C1295 0.960 . S
H1282 C1295 0.961 1_565 S
H1283 C1295 0.959 1_565 S
H1284 C1298 0.929 . S
H1285 C1299 0.931 . S
H1286 C1301 0.930 . S
C1287 H1275 0.930 . S
C1287 C1288 1.399 . S
C1287 C1292 1.399 . S
C1288 C1287 1.399 . S
C1288 C1289 1.376 . S
C1289 H1276 0.930 . S
C1289 C1288 1.376 . S
C1289 C1290 1.388 . S
C1290 H1277 0.930 . S
C1290 C1289 1.388 . S
C1290 C1291 1.390 . S
C1291 C1290 1.390 . S
C1291 C1292 1.394 . S
C1291 C1297 1.465 . S
C1292 C1287 1.399 . S
C1292 C1291 1.394 . S
C1292 C1293 1.516 . S
C1293 C1292 1.516 . S
C1293 C1294 1.502 . S
C1293 C1295 1.561 . S
C1293 C1296 1.526 . S
C1294 H1278 0.959 . S
C1294 H1279 0.959 . S
C1294 H1280 0.961 . S
C1294 C1293 1.502 . S
C1295 H1281 0.960 . S
C1295 H1282 0.961 1_545 S
C1295 H1283 0.959 1_545 S
C1295 C1293 1.561 . S
C1296 C1293 1.526 . S
C1296 C1297 1.396 . S
C1296 C1301 1.390 . S
C1297 C1291 1.465 . S
C1297 C1296 1.396 . S
C1297 C1298 1.399 . S
C1298 H1284 0.929 . S
C1298 C1297 1.399 . S
C1298 C1299 1.385 . S
C1299 H1285 0.931 . S
C1299 C1298 1.385 . S
C1299 C1300 1.389 . S
C1300 C1299 1.389 . S
C1300 C1301 1.387 . S
C1301 H1286 0.930 . S
C1301 C1296 1.390 . S
C1301 C1300 1.387 . S
H1302 C1314 0.930 . S
H1303 C1316 0.930 . S
H1304 C1317 0.930 . S
H1305 C1321 0.959 . S
H1306 C1321 0.959 . S
H1307 C1321 0.961 . S
H1308 C1322 0.960 . S
H1309 C1322 0.961 . S
H1310 C1322 0.959 . S
H1311 C1325 0.929 . S
H1312 C1326 0.931 . S
H1313 C1328 0.930 . S
C1314 H1302 0.930 . S
C1314 C1315 1.399 . S
C1314 C1319 1.399 . S
C1315 C1314 1.399 . S
C1315 C1316 1.376 . S
C1316 H1303 0.930 . S
C1316 C1315 1.376 . S
C1316 C1317 1.388 . S
C1317 H1304 0.930 . S
C1317 C1316 1.388 . S
C1317 C1318 1.390 . S
C1318 C1317 1.390 . S
C1318 C1319 1.394 . S
C1318 C1324 1.465 . S
C1319 C1314 1.399 . S
C1319 C1318 1.394 . S
C1319 C1320 1.516 . S
C1320 C1319 1.516 . S
C1320 C1321 1.502 . S
C1320 C1322 1.561 . S
C1320 C1323 1.526 . S
C1321 H1305 0.959 . S
C1321 H1306 0.959 . S
C1321 H1307 0.961 . S
C1321 C1320 1.502 . S
C1322 H1308 0.960 . S
C1322 H1309 0.961 . S
C1322 H1310 0.959 . S
C1322 C1320 1.561 . S
C1323 C1320 1.526 . S
C1323 C1324 1.396 . S
C1323 C1328 1.390 . S
C1324 C1318 1.465 . S
C1324 C1323 1.396 . S
C1324 C1325 1.399 . S
C1325 H1311 0.929 . S
C1325 C1324 1.399 . S
C1325 C1326 1.385 . S
C1326 H1312 0.931 . S
C1326 C1325 1.385 . S
C1326 C1327 1.389 . S
C1327 C1326 1.389 . S
C1327 C1328 1.387 . S
C1328 H1313 0.930 . S
C1328 C1323 1.390 . S
C1328 C1327 1.387 . S
H1329 C1341 0.930 . S
H1330 C1343 0.930 . S
H1331 C1344 0.930 . S
H1332 C1348 0.959 . S
H1333 C1348 0.959 . S
H1334 C1348 0.961 . S
H1335 C1349 0.960 . S
H1336 C1349 0.961 . S
H1337 C1349 0.959 . S
H1338 C1352 0.929 . S
H1339 C1353 0.931 . S
H1340 C1355 0.930 . S
C1341 H1329 0.930 . S
C1341 C1342 1.399 . S
C1341 C1346 1.399 . S
C1342 C1341 1.399 . S
C1342 C1343 1.376 . S
C1343 H1330 0.930 . S
C1343 C1342 1.376 . S
C1343 C1344 1.388 . S
C1344 H1331 0.930 . S
C1344 C1343 1.388 . S
C1344 C1345 1.390 . S
C1345 C1344 1.390 . S
C1345 C1346 1.394 . S
C1345 C1351 1.465 . S
C1346 C1341 1.399 . S
C1346 C1345 1.394 . S
C1346 C1347 1.516 . S
C1347 C1346 1.516 . S
C1347 C1348 1.502 . S
C1347 C1349 1.561 . S
C1347 C1350 1.526 . S
C1348 H1332 0.959 . S
C1348 H1333 0.959 . S
C1348 H1334 0.961 . S
C1348 C1347 1.502 . S
C1349 H1335 0.960 . S
C1349 H1336 0.961 . S
C1349 H1337 0.959 . S
C1349 C1347 1.561 . S
C1350 C1347 1.526 . S
C1350 C1351 1.396 . S
C1350 C1355 1.390 . S
C1351 C1345 1.465 . S
C1351 C1350 1.396 . S
C1351 C1352 1.399 . S
C1352 H1338 0.929 . S
C1352 C1351 1.399 . S
C1352 C1353 1.385 . S
C1353 H1339 0.931 . S
C1353 C1352 1.385 . S
C1353 C1354 1.389 . S
C1354 C1353 1.389 . S
C1354 C1355 1.387 . S
C1355 H1340 0.930 . S
C1355 C1350 1.390 . S
C1355 C1354 1.387 . S
H1356 C1368 0.930 . S
H1357 C1370 0.930 . S
H1358 C1371 0.930 . S
H1359 C1375 0.956 . S
H1360 C1375 0.958 . S
H1361 C1375 0.960 1_655 S
H1362 C1376 0.960 . S
H1363 C1376 0.961 . S
H1364 C1376 0.959 . S
H1365 C1379 0.929 . S
H1366 C1380 0.931 . S
H1367 C1382 0.930 . S
C1368 H1356 0.930 . S
C1368 C1369 1.399 . S
C1368 C1373 1.399 . S
C1369 C1368 1.399 . S
C1369 C1370 1.376 . S
C1370 H1357 0.930 . S
C1370 C1369 1.376 . S
C1370 C1371 1.388 . S
C1371 H1358 0.930 . S
C1371 C1370 1.388 . S
C1371 C1372 1.390 . S
C1372 C1371 1.390 . S
C1372 C1373 1.394 . S
C1372 C1378 1.465 . S
C1373 C1368 1.399 . S
C1373 C1372 1.394 . S
C1373 C1374 1.516 . S
C1374 C1373 1.516 . S
C1374 C1375 1.505 1_655 S
C1374 C1376 1.561 . S
C1374 C1377 1.526 . S
C1375 H1359 0.956 . S
C1375 H1360 0.958 . S
C1375 H1361 0.960 1_455 S
C1375 C1374 1.505 1_455 S
C1376 H1362 0.960 . S
C1376 H1363 0.961 . S
C1376 H1364 0.959 . S
C1376 C1374 1.561 . S
C1377 C1374 1.526 . S
C1377 C1378 1.396 . S
C1377 C1382 1.390 . S
C1378 C1372 1.465 . S
C1378 C1377 1.396 . S
C1378 C1379 1.399 . S
C1379 H1365 0.929 . S
C1379 C1378 1.399 . S
C1379 C1380 1.385 . S
C1380 H1366 0.931 . S
C1380 C1379 1.385 . S
C1380 C1381 1.389 . S
C1381 C1380 1.389 . S
C1381 C1382 1.387 . S
C1382 H1367 0.930 . S
C1382 C1377 1.390 . S
C1382 C1381 1.387 . S
H1383 C1395 0.930 . S
H1384 C1397 0.930 . S
H1385 C1398 0.930 . S
H1386 C1402 0.959 . S
H1387 C1402 0.959 . S
H1388 C1402 0.961 . S
H1389 C1403 0.960 . S
H1390 C1403 0.961 . S
H1391 C1403 0.959 . S
H1392 C1406 0.929 . S
H1393 C1407 0.931 . S
H1394 C1409 0.930 . S
C1395 H1383 0.930 . S
C1395 C1396 1.399 . S
C1395 C1400 1.399 . S
C1396 C1395 1.399 . S
C1396 C1397 1.376 . S
C1397 H1384 0.930 . S
C1397 C1396 1.376 . S
C1397 C1398 1.388 . S
C1398 H1385 0.930 . S
C1398 C1397 1.388 . S
C1398 C1399 1.390 . S
C1399 C1398 1.390 . S
C1399 C1400 1.394 . S
C1399 C1405 1.465 . S
C1400 C1395 1.399 . S
C1400 C1399 1.394 . S
C1400 C1401 1.516 . S
C1401 C1400 1.516 . S
C1401 C1402 1.502 . S
C1401 C1403 1.561 1_565 S
C1401 C1404 1.526 . S
C1402 H1386 0.959 . S
C1402 H1387 0.959 . S
C1402 H1388 0.961 . S
C1402 C1401 1.502 . S
C1403 H1389 0.960 . S
C1403 H1390 0.961 . S
C1403 H1391 0.959 . S
C1403 C1401 1.561 1_545 S
C1404 C1401 1.526 . S
C1404 C1405 1.396 . S
C1404 C1409 1.390 . S
C1405 C1399 1.465 . S
C1405 C1404 1.396 . S
C1405 C1406 1.399 . S
C1406 H1392 0.929 . S
C1406 C1405 1.399 . S
C1406 C1407 1.385 . S
C1407 H1393 0.931 . S
C1407 C1406 1.385 . S
C1407 C1408 1.389 . S
C1408 C1407 1.389 . S
C1408 C1409 1.387 . S
C1409 H1394 0.930 . S
C1409 C1404 1.390 . S
C1409 C1408 1.387 . S
H1410 C1422 0.930 . S
H1411 C1424 0.930 . S
H1412 C1425 0.930 . S
H1413 C1429 0.959 . S
H1414 C1429 0.959 . S
H1415 C1429 0.961 . S
H1416 C1430 0.960 . S
H1417 C1430 0.961 . S
H1418 C1430 0.959 . S
H1419 C1433 0.929 . S
H1420 C1434 0.931 . S
H1421 C1436 0.930 . S
C1422 H1410 0.930 . S
C1422 C1423 1.399 . S
C1422 C1427 1.399 . S
C1423 C1422 1.399 . S
C1423 C1424 1.376 . S
C1424 H1411 0.930 . S
C1424 C1423 1.376 . S
C1424 C1425 1.388 . S
C1425 H1412 0.930 . S
C1425 C1424 1.388 . S
C1425 C1426 1.390 . S
C1426 C1425 1.390 . S
C1426 C1427 1.394 . S
C1426 C1432 1.465 . S
C1427 C1422 1.399 . S
C1427 C1426 1.394 . S
C1427 C1428 1.516 . S
C1428 C1427 1.516 . S
C1428 C1429 1.502 . S
C1428 C1430 1.561 . S
C1428 C1431 1.526 . S
C1429 H1413 0.959 . S
C1429 H1414 0.959 . S
C1429 H1415 0.961 . S
C1429 C1428 1.502 . S
C1430 H1416 0.960 . S
C1430 H1417 0.961 . S
C1430 H1418 0.959 . S
C1430 C1428 1.561 . S
C1431 C1428 1.526 . S
C1431 C1432 1.396 . S
C1431 C1436 1.390 . S
C1432 C1426 1.465 . S
C1432 C1431 1.396 . S
C1432 C1433 1.399 . S
C1433 H1419 0.929 . S
C1433 C1432 1.399 . S
C1433 C1434 1.385 . S
C1434 H1420 0.931 . S
C1434 C1433 1.385 . S
C1434 C1435 1.389 . S
C1435 C1434 1.389 . S
C1435 C1436 1.387 . S
C1436 H1421 0.930 . S
C1436 C1431 1.390 . S
C1436 C1435 1.387 . S
H1437 C1449 0.930 . S
H1438 C1451 0.930 . S
H1439 C1452 0.930 . S
H1440 C1456 0.959 . S
H1441 C1456 0.959 . S
H1442 C1456 0.961 . S
H1443 C1457 0.960 . S
H1444 C1457 0.961 . S
H1445 C1457 0.959 . S
H1446 C1460 0.929 . S
H1447 C1461 0.931 . S
H1448 C1463 0.930 . S
C1449 H1437 0.930 . S
C1449 C1450 1.399 . S
C1449 C1454 1.399 . S
C1450 C1449 1.399 . S
C1450 C1451 1.376 . S
C1451 H1438 0.930 . S
C1451 C1450 1.376 . S
C1451 C1452 1.388 . S
C1452 H1439 0.930 . S
C1452 C1451 1.388 . S
C1452 C1453 1.390 . S
C1453 C1452 1.390 . S
C1453 C1454 1.394 . S
C1453 C1459 1.465 . S
C1454 C1449 1.399 . S
C1454 C1453 1.394 . S
C1454 C1455 1.516 . S
C1455 C1454 1.516 . S
C1455 C1456 1.502 . S
C1455 C1457 1.561 . S
C1455 C1458 1.526 . S
C1456 H1440 0.959 . S
C1456 H1441 0.959 . S
C1456 H1442 0.961 . S
C1456 C1455 1.502 . S
C1457 H1443 0.960 . S
C1457 H1444 0.961 . S
C1457 H1445 0.959 . S
C1457 C1455 1.561 . S
C1458 C1455 1.526 . S
C1458 C1459 1.396 . S
C1458 C1463 1.390 . S
C1459 C1453 1.465 . S
C1459 C1458 1.396 . S
C1459 C1460 1.399 . S
C1460 H1446 0.929 . S
C1460 C1459 1.399 . S
C1460 C1461 1.385 . S
C1461 H1447 0.931 . S
C1461 C1460 1.385 . S
C1461 C1462 1.389 . S
C1462 C1461 1.389 . S
C1462 C1463 1.387 . S
C1463 H1448 0.930 . S
C1463 C1458 1.390 . S
C1463 C1462 1.387 . S
C829 C391 2.369 . S
C841 C548 2.450 . S
C868 C631 2.465 . S
C856 C451 2.386 . S
C895 C716 2.412 . S
C883 C241 2.095 . S
C922 C800 2.423 . S
C910 C331 2.044 . S
C949 C536 2.417 1_565 S
C937 C121 2.092 . S
C964 C211 2.376 . S
C976 C619 2.434 . S
C991 C31 2.326 . S
C1003 C704 2.425 . S
C1018 C91 2.142 . S
C1030 C788 2.398 1_655 S
C1057 C538 0.469 . S
C1045 C301 0.701 . S
C1084 C634 0.399 . S
C1072 C380 0.418 . S
C1111 C706 0.558 . S
C1099 C440 0.467 . S
C1126 C260 0.458 . S
C1138 C790 0.560 . S
C1153 C61 0.479 . S
C1165 C550 0.396 . S
C1192 C622 0.660 . S
C1180 C140 0.600 . S
C1219 C718 0.591 . S
C1207 C200 0.624 . S
C1234 C20 0.490 . S
C1246 C802 0.481 . S
C1261 C320 2.724 . S
C1273 C535 2.919 . S
C1288 C361 2.447 . S
C1300 C620 2.948 . S
C1327 C703 2.946 . S
C1315 C421 2.393 . S
C1354 C787 2.918 . S
C1342 C271 2.784 . S
C1369 C80 2.783 . S
C1381 C547 2.891 . S
C1408 C632 2.955 . S
C1396 C151 2.725 . S
C1435 C715 2.918 . S
C1423 C181 2.436 . S
C1450 C1 2.389 . S
C1462 C799 2.940 . S
