# Generated by pormake.
# Topology zzz, (3,6)-cn, num edge types: 1
# Building blocks:
#     Node 0, Type 0, BuildingBlock: BETDIP_clean_linker_0, # of connection points: 3
#     Node 1, Type 0, BuildingBlock: BETDIP_clean_linker_0, # of connection points: 3
#     Node 2, Type 0, BuildingBlock: BETDIP_clean_linker_0, # of connection points: 3
#     Node 3, Type 0, BuildingBlock: BETDIP_clean_linker_0, # of connection points: 3
#     Node 4, Type 0, BuildingBlock: BETDIP_clean_linker_0, # of connection points: 3
#     Node 5, Type 0, BuildingBlock: BETDIP_clean_linker_0, # of connection points: 3
#     Node 6, Type 0, BuildingBlock: BETDIP_clean_linker_0, # of connection points: 3
#     Node 7, Type 0, BuildingBlock: BETDIP_clean_linker_0, # of connection points: 3
#     Node 8, Type 1, BuildingBlock: CIFDUS_clean_sbu_1, # of connection points: 6
#     Node 9, Type 1, BuildingBlock: CIFDUS_clean_sbu_1, # of connection points: 6
#     Node 10, Type 1, BuildingBlock: CIFDUS_clean_sbu_1, # of connection points: 6
#     Node 11, Type 1, BuildingBlock: CIFDUS_clean_sbu_1, # of connection points: 6
#     Edge 12, Type (0, 1), BuildingBlock: ZUJKAS_clean_linker_0, # of connection points: 2
#     Edge 13, Type (0, 1), BuildingBlock: ZUJKAS_clean_linker_0, # of connection points: 2
#     Edge 14, Type (0, 1), BuildingBlock: ZUJKAS_clean_linker_0, # of connection points: 2
#     Edge 15, Type (0, 1), BuildingBlock: ZUJKAS_clean_linker_0, # of connection points: 2
#     Edge 16, Type (0, 1), BuildingBlock: ZUJKAS_clean_linker_0, # of connection points: 2
#     Edge 17, Type (0, 1), BuildingBlock: ZUJKAS_clean_linker_0, # of connection points: 2
#     Edge 18, Type (0, 1), BuildingBlock: ZUJKAS_clean_linker_0, # of connection points: 2
#     Edge 19, Type (0, 1), BuildingBlock: ZUJKAS_clean_linker_0, # of connection points: 2
#     Edge 20, Type (0, 1), BuildingBlock: ZUJKAS_clean_linker_0, # of connection points: 2
#     Edge 21, Type (0, 1), BuildingBlock: ZUJKAS_clean_linker_0, # of connection points: 2
#     Edge 22, Type (0, 1), BuildingBlock: ZUJKAS_clean_linker_0, # of connection points: 2
#     Edge 23, Type (0, 1), BuildingBlock: ZUJKAS_clean_linker_0, # of connection points: 2
#     Edge 24, Type (0, 1), BuildingBlock: ZUJKAS_clean_linker_0, # of connection points: 2
#     Edge 25, Type (0, 1), BuildingBlock: ZUJKAS_clean_linker_0, # of connection points: 2
#     Edge 26, Type (0, 1), BuildingBlock: ZUJKAS_clean_linker_0, # of connection points: 2
#     Edge 27, Type (0, 1), BuildingBlock: ZUJKAS_clean_linker_0, # of connection points: 2
#     Edge 28, Type (0, 1), BuildingBlock: ZUJKAS_clean_linker_0, # of connection points: 2
#     Edge 29, Type (0, 1), BuildingBlock: ZUJKAS_clean_linker_0, # of connection points: 2
#     Edge 30, Type (0, 1), BuildingBlock: ZUJKAS_clean_linker_0, # of connection points: 2
#     Edge 31, Type (0, 1), BuildingBlock: ZUJKAS_clean_linker_0, # of connection points: 2
#     Edge 32, Type (0, 1), BuildingBlock: ZUJKAS_clean_linker_0, # of connection points: 2
#     Edge 33, Type (0, 1), BuildingBlock: ZUJKAS_clean_linker_0, # of connection points: 2
#     Edge 34, Type (0, 1), BuildingBlock: ZUJKAS_clean_linker_0, # of connection points: 2
#     Edge 35, Type (0, 1), BuildingBlock: ZUJKAS_clean_linker_0, # of connection points: 2
# Relax obj value: 0.143
# Max RMSD: 0.188
# Mean RMSD: 0.106
data_MOF--net-zzz--node1-CIFDUS_clean_sbu_1--node2-BETDIP_clean_linker_0--edge1-ZUJKAS_clean_linker_0
_symmetry_space_group_name_H-M    P1
_symmetry_Int_Tables_number       1
_symmetry_cell_setting            triclinic
loop_
_symmetry_equiv_pos_as_xyz
'x, y, z'
_cell_length_a     65.469493
_cell_length_b     65.533412
_cell_length_c     20.527072
_cell_angle_alpha  89.891602
_cell_angle_beta   90.055314
_cell_angle_gamma 90.037538
loop_
_atom_site_label
_atom_site_type_symbol
_atom_site_fract_x
_atom_site_fract_y
_atom_site_fract_z
_atom_type_partial_charge
H0 H 0.77121 0.54247 0.26823 0.0
H1 H 0.76705 0.55151 0.06005 0.0
H2 H 0.82539 0.55241 0.15322 0.0
H3 H 0.73912 0.5734 0.1082 0.0
C4 C 0.73262 0.55889 0.12359 0.0
C5 C 0.7784 0.54568 0.22185 0.0
C6 C 0.79995 0.54742 0.21772 0.0
C7 C 0.76627 0.54798 0.16494 0.0
C8 C 0.77591 0.55113 0.10469 0.0
C9 C 0.79698 0.55305 0.10097 0.0
C10 C 0.80887 0.55155 0.15723 0.0
N11 N 0.74453 0.54653 0.1666 0.0
H12 H 0.98126 0.77276 0.26501 0.0
H13 H 0.9661 0.76984 0.06049 0.0
H14 H 0.96487 0.82725 0.15991 0.0
H15 H 0.94583 0.74001 0.1249 0.0
C16 C 0.96149 0.73455 0.12835 0.0
C17 C 0.97655 0.78021 0.22033 0.0
C18 C 0.973 0.80151 0.2194 0.0
C19 C 0.97335 0.76856 0.16311 0.0
C20 C 0.96767 0.77847 0.10523 0.0
C21 C 0.96445 0.79946 0.10413 0.0
C22 C 0.96688 0.81081 0.16126 0.0
N23 N 0.97587 0.74696 0.16242 0.0
H24 H 0.74408 0.98296 0.2526 0.0
H25 H 0.74669 0.96325 0.05211 0.0
H26 H 0.68966 0.96281 0.15429 0.0
H27 H 0.77824 0.94589 0.12053 0.0
C28 C 0.78279 0.96186 0.11992 0.0
C29 C 0.73664 0.97681 0.20978 0.0
C30 C 0.71539 0.97292 0.21043 0.0
C31 C 0.74819 0.97263 0.15296 0.0
C32 C 0.73823 0.96537 0.09696 0.0
C33 C 0.71727 0.96164 0.09767 0.0
C34 C 0.70609 0.96511 0.15455 0.0
N35 N 0.76962 0.9763 0.15037 0.0
H36 H 0.53827 0.74054 0.25573 0.0
H37 H 0.55066 0.75126 0.05242 0.0
H38 H 0.55901 0.6916 0.13204 0.0
H39 H 0.57203 0.78117 0.14361 0.0
C40 C 0.55585 0.78443 0.13744 0.0
C41 C 0.5437 0.73501 0.2092 0.0
C42 C 0.54823 0.71401 0.20076 0.0
C43 C 0.54586 0.74875 0.15615 0.0
C44 C 0.55111 0.74125 0.09453 0.0
C45 C 0.55551 0.72068 0.08621 0.0
C46 C 0.55544 0.70757 0.13987 0.0
N47 N 0.54163 0.76993 0.1624 0.0
H48 H 0.24447 0.47228 0.18992 0.0
H49 H 0.24896 0.46047 0.39685 0.0
H50 H 0.19038 0.46617 0.30717 0.0
H51 H 0.2703 0.49768 0.35254 0.0
C52 C 0.27959 0.48472 0.33782 0.0
C53 C 0.23717 0.46955 0.23643 0.0
C54 C 0.21557 0.46825 0.24051 0.0
C55 C 0.24925 0.46755 0.29379 0.0
C56 C 0.23981 0.46289 0.35349 0.0
C57 C 0.21867 0.46129 0.35709 0.0
C58 C 0.20686 0.46552 0.30201 0.0
N59 N 0.27078 0.47058 0.29315 0.0
H60 H 0.04379 0.24397 0.19094 0.0
H61 H 0.05813 0.24736 0.39579 0.0
H62 H 0.06097 0.18994 0.29674 0.0
H63 H 0.02049 0.26794 0.35866 0.0
C64 C 0.03311 0.27741 0.34223 0.0
C65 C 0.04922 0.23674 0.23515 0.0
C66 C 0.05245 0.21539 0.23681 0.0
C67 C 0.05149 0.24838 0.29288 0.0
C68 C 0.05724 0.23867 0.35097 0.0
C69 C 0.06093 0.21773 0.35232 0.0
C70 C 0.05908 0.20639 0.29492 0.0
N71 N 0.04684 0.26957 0.29457 0.0
H72 H 0.27384 0.04535 0.18705 0.0
H73 H 0.27019 0.05661 0.39414 0.0
H74 H 0.32847 0.0516 0.30157 0.0
H75 H 0.24726 0.01813 0.33808 0.0
C76 C 0.23886 0.03224 0.33026 0.0
C77 C 0.28134 0.048 0.23331 0.0
C78 C 0.3029 0.04928 0.23662 0.0
C79 C 0.26954 0.05 0.291 0.0
C80 C 0.27922 0.05437 0.35049 0.0
C81 C 0.30041 0.05608 0.35333 0.0
C82 C 0.31195 0.05214 0.29754 0.0
N83 N 0.24797 0.04756 0.29053 0.0
H84 H 0.47846 0.27085 0.19072 0.0
H85 H 0.4586 0.27071 0.3912 0.0
H86 H 0.4542 0.32534 0.27683 0.0
H87 H 0.49359 0.25384 0.38768 0.0
C88 C 0.48584 0.24196 0.36013 0.0
C89 C 0.47147 0.27855 0.23166 0.0
C90 C 0.46553 0.29925 0.22603 0.0
C91 C 0.46898 0.26813 0.29174 0.0
C92 C 0.46041 0.2785 0.34494 0.0
C93 C 0.4551 0.29907 0.34017 0.0
C94 C 0.45735 0.30912 0.28031 0.0
N95 N 0.47598 0.24769 0.30071 0.0
O96 O 0.01879 0.03077 0.79452 0.0
Mn97 Mn 0.00834 0.01031 0.72299 0.0
O98 O 0.99623 0.05612 0.79287 0.0
Mn99 Mn 0.97658 0.04246 0.74483 0.0
O100 O -0.0005 0.9888 0.65212 0.0
O101 O 0.03955 0.00678 0.69561 0.0
Mn102 Mn 0.03923 0.98122 0.72581 0.0
O103 O 0.00609 0.98753 0.79372 0.0
O104 O 0.02283 0.9648 0.6739 0.0
O105 O 0.00761 0.03323 0.65123 0.0
O106 O 0.97686 0.04813 0.65798 0.0
O107 O 0.06458 0.98281 0.69915 0.0
O108 O 0.03737 0.97935 0.81434 0.0
C109 C 0.96337 0.01628 0.7878 0.0
C110 C 0.01281 0.04845 0.81273 0.0
C111 C 0.00733 0.97104 0.64213 0.0
C112 C 0.05862 0.00101 0.68312 0.0
C113 C 0.01894 0.97836 0.82967 0.0
C114 C 0.99347 0.04484 0.62768 0.0
O115 O 0.97779 0.01521 0.74377 0.0
O116 O 0.95583 0.03433 0.7963 0.0
O117 O 0.53114 0.00982 0.7922 0.0
Mn118 Mn 0.50841 0.00751 0.72198 0.0
O119 O 0.54861 0.03831 0.77359 0.0
Mn120 Mn 0.53706 0.04113 0.69287 0.0
O121 O 0.48507 0.00454 0.65198 0.0
O122 O 0.50682 0.97663 0.74678 0.0
Mn123 Mn 0.47956 0.97438 0.74242 0.0
O124 O 0.48728 0.01704 0.79305 0.0
O125 O 0.47501 0.97213 0.65546 0.0
O126 O 0.52999 -0.00175 0.65036 0.0
O127 O 0.54834 0.02606 0.62673 0.0
O128 O 0.48674 0.9552 0.80003 0.0
O129 O 0.4631 0.99366 0.78198 0.0
C130 C 0.51101 0.05779 0.67817 0.0
C131 C 0.54484 0.02279 0.80822 0.0
C132 C 0.47499 0.98944 0.62791 0.0
C133 C 0.50489 0.96266 0.79241 0.0
C134 C 0.46928 0.01042 0.80489 0.0
C135 C 0.54393 0.00749 0.61718 0.0
O136 O 0.50998 0.03834 0.69511 0.0
O137 O 0.52889 0.06609 0.6719 0.0
O138 O 0.51149 0.52839 0.79597 0.0
Mn139 Mn 0.50958 0.50745 0.72057 0.0
O140 O 0.48351 0.54706 0.79535 0.0
Mn141 Mn 0.47954 0.53943 0.71057 0.0
O142 O 0.50857 0.48574 0.64664 0.0
O143 O 0.53973 0.50264 0.74345 0.0
Mn144 Mn 0.5441 0.47683 0.72572 0.0
O145 O 0.50106 0.48453 0.78809 0.0
O146 O 0.54015 0.47382 0.63806 0.0
O147 O 0.51967 0.5295 0.65194 0.0
O148 O 0.49514 0.55302 0.6497 0.0
O149 O 0.56865 0.48576 0.75499 0.0
O150 O 0.52734 0.46227 0.78236 0.0
C151 C 0.45903 0.51712 0.68609 0.0
C152 C 0.50004 0.54179 0.82194 0.0
C153 C 0.52203 0.47502 0.61727 0.0
C154 C 0.55877 0.50269 0.76258 0.0
C155 C 0.5101 0.46783 0.80549 0.0
C156 C 0.51222 0.54635 0.63044 0.0
O157 O 0.47832 0.51224 0.6988 0.0
O158 O 0.45374 0.53618 0.68898 0.0
O159 O 0.03074 0.49684 0.79312 0.0
Mn160 Mn 0.00837 0.50664 0.72571 0.0
O161 O 0.05491 0.52035 0.77823 0.0
Mn162 Mn 0.03846 0.53774 0.72986 0.0
O163 O 0.9858 0.51621 0.6576 0.0
O164 O 0.00425 0.47631 0.70138 0.0
Mn165 Mn 0.97747 0.47295 0.7057 0.0
O166 O 0.98663 0.50605 0.79891 0.0
O167 O 0.9657 0.48884 0.64149 0.0
O168 O 0.02993 0.50608 0.65126 0.0
O169 O 0.04117 0.53723 0.64125 0.0
O170 O 0.98654 0.44795 0.68372 0.0
O171 O 0.96857 0.47734 0.78923 0.0
C172 C 0.01737 0.55666 0.76858 0.0
C173 C 0.04882 0.50378 0.80361 0.0
C174 C 0.97077 0.50716 0.62879 0.0
C175 C 0.00413 0.45702 0.68442 0.0
C176 C 0.97293 0.49365 0.81925 0.0
C177 C 0.03962 0.51952 0.61878 0.0
O178 O 0.01212 0.53766 0.75321 0.0
O179 O 0.03616 0.56251 0.76147 0.0
H180 H 0.21636 0.003 0.38751 0.0
H181 H 0.18587 0.00663 0.45471 0.0
H182 H 0.18826 0.07198 0.42961 0.0
H183 H 0.21854 0.06822 0.35968 0.0
H184 H 0.17992 0.02503 0.56823 0.0
H185 H 0.12978 0.06164 0.38273 0.0
H186 H 0.15416 0.05068 0.36186 0.0
H187 H 0.15294 0.07507 0.40167 0.0
C188 C 0.21021 0.01813 0.39553 0.0
C189 C 0.21961 0.03526 0.3674 0.0
C190 C 0.19285 0.02023 0.43445 0.0
C191 C 0.18447 0.03956 0.44697 0.0
C192 C 0.19402 0.05683 0.41953 0.0
H193 H 0.07091 0.04165 0.69435 0.0
H194 H 0.10205 0.05648 0.64408 0.0
C195 C 0.21135 0.05469 0.37955 0.0
C196 C 0.16573 0.04109 0.48841 0.0
H197 H 0.11481 0.05291 0.4825 0.0
C198 C 0.16581 0.03154 0.54989 0.0
C199 C 0.1472 0.04962 0.46502 0.0
C200 C 0.14585 0.05971 0.39907 0.0
C201 C 0.14777 0.0292 0.58635 0.0
C202 C 0.12911 0.03669 0.56114 0.0
C203 C 0.12919 0.04742 0.50201 0.0
C204 C 0.10923 0.02952 0.58776 0.0
C205 C 0.14849 0.01751 0.64968 0.0
C206 C 0.10262 0.00998 0.57056 0.0
C207 C 0.08494 0.00183 0.59771 0.0
C208 C 0.07339 0.01287 0.64347 0.0
C209 C 0.07931 0.03295 0.65847 0.0
C210 C 0.0972 0.04128 0.6305 0.0
H211 H 0.16425 0.01673 0.66974 0.0
H212 H 0.1383 0.02461 0.68641 0.0
H213 H 0.14305 0.00169 0.64117 0.0
H214 H 0.11156 0.0007 0.53753 0.0
H215 H 0.08087 0.98627 0.58531 0.0
H216 H 0.49732 0.23213 0.48217 0.0
H217 H 0.49367 0.19957 0.53939 0.0
H218 H 0.46434 0.17375 0.37043 0.0
H219 H 0.46791 0.20655 0.31268 0.0
H220 H 0.458 0.17532 0.56848 0.0
H221 H 0.51372 0.13549 0.40922 0.0
H222 H 0.51173 0.16293 0.41257 0.0
H223 H 0.49324 0.14838 0.36766 0.0
C224 C 0.49009 0.21951 0.4571 0.0
C225 C 0.48311 0.22183 0.39267 0.0
C226 C 0.4879 0.20094 0.49008 0.0
C227 C 0.47888 0.18413 0.45918 0.0
C228 C 0.47155 0.18646 0.39505 0.0
H229 H 0.4854 0.05638 0.57348 0.0
H230 H 0.47212 0.08737 0.52149 0.0
C231 C 0.47359 0.20518 0.36205 0.0
C232 C 0.47797 0.16406 0.4935 0.0
H233 H 0.49775 0.11588 0.49025 0.0
C234 C 0.46651 0.16222 0.55109 0.0
C235 C 0.4893 0.14707 0.47144 0.0
C236 C 0.50286 0.14848 0.4122 0.0
C237 C 0.46584 0.14378 0.58662 0.0
C238 C 0.47723 0.12672 0.56456 0.0
C239 C 0.48863 0.12866 0.50677 0.0
C240 C 0.47916 0.10727 0.60264 0.0
C241 C 0.45281 0.14285 0.64713 0.0
C242 C 0.48611 0.10767 0.6674 0.0
C243 C 0.49291 0.0898 0.69785 0.0
C244 C 0.49352 0.0712 0.66382 0.0
C245 C 0.48459 0.07031 0.60169 0.0
C246 C 0.47743 0.08819 0.57141 0.0
H247 H 0.4397 0.15355 0.6437 0.0
H248 H 0.44685 0.12723 0.656 0.0
H249 H 0.46213 0.14754 0.68976 0.0
H250 H 0.48821 0.12202 0.6925 0.0
H251 H 0.50028 0.09108 0.74499 0.0
H252 H 0.30642 0.45168 0.33313 0.0
H253 H 0.33769 0.44705 0.39902 0.0
H254 H 0.32723 0.50523 0.49069 0.0
H255 H 0.29636 0.50988 0.42575 0.0
H256 H 0.37294 0.47486 0.40571 0.0
H257 H 0.33577 0.46586 0.64629 0.0
H258 H 0.3223 0.46178 0.57048 0.0
H259 H 0.32664 0.48724 0.59993 0.0
C260 C 0.31089 0.46346 0.36721 0.0
C261 C 0.29899 0.48121 0.37409 0.0
C262 C 0.32868 0.46077 0.40502 0.0
C263 C 0.33465 0.47565 0.45069 0.0
C264 C 0.32278 0.49334 0.45692 0.0
H265 H 0.41923 0.52179 0.71126 0.0
H266 H 0.39078 0.50656 0.65548 0.0
C267 C 0.3052 0.49605 0.41928 0.0
C268 C 0.35371 0.47356 0.4902 0.0
H269 H 0.37106 0.47501 0.64704 0.0
C270 C 0.37266 0.47453 0.45853 0.0
C271 C 0.35328 0.47313 0.55907 0.0
C272 C 0.33341 0.47177 0.59607 0.0
C273 C 0.39108 0.47685 0.4936 0.0
C274 C 0.39066 0.47738 0.56286 0.0
C275 C 0.37167 0.47476 0.59425 0.0
C276 C 0.40867 0.48411 0.6032 0.0
C277 C 0.41048 0.48027 0.45549 0.0
C278 C 0.42866 0.47617 0.59594 0.0
C279 C 0.44552 0.48558 0.62693 0.0
C280 C 0.44248 0.50266 0.66709 0.0
C281 C 0.42229 0.50889 0.67973 0.0
C282 C 0.40579 0.50004 0.64778 0.0
H283 H 0.40739 0.4836 0.40332 0.0
H284 H 0.41938 0.49316 0.47602 0.0
H285 H 0.41998 0.46627 0.45771 0.0
H286 H 0.43139 0.46326 0.56442 0.0
H287 H 0.46083 0.48029 0.61643 0.0
H288 H 0.00592 0.30831 0.34755 0.0
H289 H 0.00832 0.33991 0.41073 0.0
H290 H 0.06791 0.32182 0.47978 0.0
H291 H 0.06589 0.2907 0.41323 0.0
H292 H 0.01065 0.34463 0.53795 0.0
H293 H 0.08012 0.37948 0.42949 0.0
H294 H 0.06728 0.35802 0.39271 0.0
H295 H 0.08377 0.3543 0.46188 0.0
C296 C 0.01975 0.31142 0.37482 0.0
C297 C 0.03597 0.29748 0.37397 0.0
C298 C 0.02107 0.32938 0.41144 0.0
C299 C 0.03845 0.33358 0.44948 0.0
C300 C 0.05464 0.31942 0.44926 0.0
H301 H 0.02545 0.4281 0.749 0.0
H302 H 0.03804 0.39715 0.69576 0.0
C303 C 0.0535 0.30164 0.4112 0.0
C304 C 0.039 0.35237 0.49087 0.0
H305 H 0.0652 0.39684 0.51827 0.0
C306 C 0.02267 0.35595 0.53381 0.0
C307 C 0.05466 0.36727 0.48578 0.0
C308 C 0.07237 0.36472 0.43962 0.0
C309 C 0.02132 0.37405 0.57036 0.0
C310 C 0.03687 0.389 0.56479 0.0
C311 C 0.0534 0.38532 0.52291 0.0
C312 C 0.03514 0.40916 0.59801 0.0
C313 C 0.00276 0.37741 0.61264 0.0
C314 C 0.03114 0.42683 0.56126 0.0
C315 C 0.02447 0.44475 0.59193 0.0
C316 C 0.02163 0.44526 0.65978 0.0
C317 C 0.028 0.42836 0.69685 0.0
C318 C 0.03475 0.41048 0.66628 0.0
H319 H 0.99073 0.36575 0.60411 0.0
H320 H 0.00727 0.37665 0.6647 0.0
H321 H 0.99615 0.39275 0.60341 0.0
H322 H 0.03136 0.42622 0.50852 0.0
H323 H 0.01907 0.45726 0.5619 0.0
H324 H 0.79579 0.00013 0.07857 0.0
H325 H 0.82533 0.00767 0.00826 0.0
H326 H 0.8404 0.94362 0.00375 0.0
H327 H 0.81082 0.93607 0.07178 0.0
H328 H 0.86496 0.00255 0.0262 0.0
H329 H 0.84327 0.95625 0.81342 0.0
H330 H 0.82555 0.96202 0.87807 0.0
H331 H 0.84299 0.94087 0.8857 0.0
C332 C 0.80545 0.98771 0.06252 0.0
C333 C 0.80105 0.96749 0.08082 0.0
C334 C 0.82227 0.992 0.02206 0.0
C335 C 0.83491 0.97615 -0.00085 0.0
C336 C 0.83061 0.95607 0.01867 0.0
H337 H 0.96158 0.99297 0.89675 0.0
H338 H 0.92964 0.98027 0.94342 0.0
C339 C 0.81382 0.95179 0.0584 0.0
C340 C 0.85332 0.98044 0.95827 0.0
H341 H 0.87921 0.96423 0.823 0.0
C342 C 0.86795 0.99429 0.98148 0.0
C343 C 0.85713 0.97015 0.89873 0.0
C344 C 0.84127 0.95669 0.86715 0.0
C345 C 0.88659 0.99738 0.94885 0.0
C346 C 0.89121 0.98567 0.89262 0.0
C347 C 0.87611 0.97265 0.86735 0.0
C348 C 0.91134 0.98746 0.85856 0.0
C349 C 0.90096 0.0135 0.97455 0.0
C350 C 0.91223 0.99322 0.79267 0.0
C351 C 0.93086 -0.00094 0.76457 0.0
C352 C 0.94887 -0.00033 0.80214 0.0
C353 C 0.94827 0.99185 0.86574 0.0
C354 C 0.92978 0.98534 0.89319 0.0
H355 H 0.89276 0.02498 0.00448 0.0
H356 H 0.91263 0.00619 0.00608 0.0
H357 H 0.90887 0.02156 0.93417 0.0
H358 H 0.89832 0.99487 0.76449 0.0
H359 H 0.93067 0.00566 0.7161 0.0
H360 H 0.581 0.81348 0.09187 0.0
H361 H 0.57346 0.84162 0.01774 0.0
H362 H 0.51079 0.82166 0.00496 0.0
H363 H 0.51825 0.79358 0.08123 0.0
H364 H 0.55979 0.84334 0.89273 0.0
H365 H 0.50364 0.8804 0.05793 0.0
H366 H 0.51949 0.85949 0.08452 0.0
H367 H 0.49769 0.8548 0.03336 0.0
C368 C 0.56555 0.81517 0.07372 0.0
C369 C 0.55016 0.80157 0.09343 0.0
C370 C 0.56129 0.83118 0.03082 0.0
C371 C 0.54151 0.83402 0.00612 0.0
C372 C 0.52609 0.82012 0.02437 0.0
H373 H 0.5156 0.93065 0.71824 0.0
H374 H 0.52591 0.89774 0.76307 0.0
C375 C 0.53035 0.80407 0.06802 0.0
C376 C 0.5373 0.85214 0.96385 0.0
H377 H 0.51159 0.89745 0.9611 0.0
C378 C 0.54917 0.85516 0.90744 0.0
C379 C 0.52341 0.86756 0.98277 0.0
C380 C 0.51041 0.86557 0.04313 0.0
C381 C 0.54809 0.87342 0.87108 0.0
C382 C 0.53471 0.88912 0.89153 0.0
C383 C 0.5222 0.88566 0.94613 0.0
C384 C 0.53338 0.90948 0.85872 0.0
C385 C 0.56183 0.87598 0.81266 0.0
C386 C 0.53475 0.92738 0.89627 0.0
C387 C 0.5283 0.94618 0.87101 0.0
C388 C 0.52104 0.94764 0.80691 0.0
C389 C 0.52194 0.93019 0.76702 0.0
C390 C 0.52769 0.91122 0.79292 0.0
H391 H 0.57462 0.86485 0.81309 0.0
H392 H 0.55282 0.87335 0.76763 0.0
H393 H 0.56824 0.89165 0.8105 0.0
H394 H 0.53911 0.92651 0.94713 0.0
H395 H 0.52687 0.95897 0.9039 0.0
H396 H 0.70481 0.5284 0.15385 0.0
H397 H 0.67397 0.51927 0.09097 0.0
H398 H 0.69099 0.56244 0.94186 0.0
H399 H 0.72129 0.57183 0.00462 0.0
H400 H 0.6436 0.55187 0.05343 0.0
H401 H 0.67391 0.50905 0.84104 0.0
H402 H 0.68758 0.51084 0.91738 0.0
H403 H 0.68728 0.5321 0.86211 0.0
C404 C 0.70205 0.53568 0.10727 0.0
C405 C 0.71525 0.55101 0.08446 0.0
C406 C 0.68448 0.53047 0.0714 0.0
C407 C 0.68022 0.54015 0.01161 0.0
C408 C 0.69401 0.55466 0.98749 0.0
H409 H 0.58437 0.53235 0.72041 0.0
H410 H 0.61324 0.54488 0.78496 0.0
C411 C 0.71125 0.56011 0.02367 0.0
C412 C 0.66044 0.53692 0.97739 0.0
H413 H 0.63944 0.51969 0.83544 0.0
C414 C 0.64261 0.54467 0.006 0.0
C415 C 0.6593 0.52797 0.9149 0.0
C416 C 0.67798 0.51936 0.88197 0.0
C417 C 0.62369 0.54403 0.97345 0.0
C418 C 0.62238 0.53478 0.91125 0.0
C419 C 0.64031 0.52694 0.88281 0.0
C420 C 0.60257 0.53199 0.87601 0.0
C421 C 0.60548 0.55392 0.00545 0.0
C422 C 0.58621 0.52178 0.90612 0.0
C423 C 0.56935 0.51532 0.86953 0.0
C424 C 0.56868 0.51856 0.8019 0.0
C425 C 0.58414 0.53027 0.77278 0.0
C426 C 0.60088 0.53703 0.80954 0.0
H427 H 0.61028 0.56647 0.03843 0.0
H428 H 0.59464 0.56019 0.96892 0.0
H429 H 0.59738 0.54239 0.03548 0.0
H430 H 0.58721 0.51717 0.95669 0.0
H431 H 0.55806 0.50564 0.89275 0.0
H432 H -0.00028 0.71741 0.1068 0.0
H433 H 0.00758 0.68792 0.03694 0.0
H434 H 0.94368 0.68203 0.98916 0.0
H435 H 0.93592 0.71145 0.05732 0.0
H436 H 0.9954 0.64911 0.04702 0.0
H437 H 0.96833 0.6787 0.81061 0.0
H438 H 0.97212 0.69496 0.88041 0.0
H439 H 0.94875 0.6807 0.87127 0.0
C440 C 0.98741 0.70981 0.08122 0.0
C441 C 0.96717 0.71663 0.08789 0.0
C442 C 0.9919 0.69301 0.04113 0.0
C443 C 0.97627 0.68287 0.00671 0.0
C444 C 0.95611 0.6898 0.01361 0.0
H445 H 0.9919 0.55602 0.8758 0.0
H446 H 0.97825 0.58634 0.93099 0.0
C447 C 0.95166 0.7065 0.05333 0.0
C448 C 0.98059 0.66429 0.96697 0.0
H449 H 0.97163 0.64233 0.8187 0.0
C450 C 0.99037 0.64768 0.99687 0.0
C451 C 0.97436 0.66245 0.90111 0.0
C452 C 0.96552 0.68024 0.86377 0.0
C453 C 0.99375 0.62923 0.96351 0.0
C454 C 0.98631 0.62687 0.8989 0.0
C455 C 0.97688 0.64371 0.86863 0.0
C456 C 0.98992 0.60788 0.85977 0.0
C457 C 0.00591 0.61282 0.9976 0.0
C458 C -0.00112 0.60951 0.79787 0.0
C459 C 0.0052 0.59211 0.76439 0.0
C460 C 0.00316 0.57257 0.79214 0.0
C461 C 0.99288 0.57068 0.85179 0.0
C462 C 0.98582 0.58818 0.88453 0.0
H463 H 0.01536 0.61919 0.03769 0.0
H464 H 0.99527 0.60155 0.01945 0.0
H465 H 0.01619 0.60479 0.96318 0.0
H466 H 0.00223 0.62433 0.77696 0.0
H467 H 0.01342 0.59411 0.719 0.0
H468 H 0.03407 0.22078 0.45165 0.0
H469 H 0.02397 0.19156 0.51756 0.0
H470 H 0.0777 0.15906 0.4548 0.0
H471 H 0.088 0.18835 0.38942 0.0
H472 H 0.01768 0.15973 0.4254 0.0
H473 H 0.06458 0.13379 0.63488 0.0
H474 H 0.06373 0.16012 0.60856 0.0
H475 H 0.07927 0.14196 0.56568 0.0
C476 C 0.04449 0.208 0.45559 0.0
C477 C 0.06153 0.20648 0.41436 0.0
C478 C 0.03861 0.19126 0.49298 0.0
C479 C 0.04992 0.17315 0.48983 0.0
C480 C 0.06884 0.17298 0.458 0.0
H481 H 0.02868 0.04674 0.55594 0.0
H482 H 0.04119 0.07754 0.50222 0.0
C483 C 0.07474 0.18972 0.42063 0.0
C484 C 0.03961 0.15361 0.50154 0.0
H485 H 0.04405 0.10862 0.58242 0.0
C486 C 0.02323 0.14857 0.46029 0.0
C487 C 0.04723 0.13914 0.54598 0.0
C488 C 0.06457 0.14405 0.59172 0.0
C489 C 0.01455 0.12909 0.46117 0.0
C490 C 0.02232 0.11448 0.50531 0.0
C491 C 0.03845 0.11971 0.54742 0.0
C492 C 0.01292 0.09427 0.51386 0.0
C493 C 0.99753 0.12432 0.41386 0.0
C494 C 0.99239 0.09299 0.53241 0.0
C495 C 0.98505 0.07526 0.56113 0.0
C496 C -0.00156 0.05896 0.57432 0.0
C497 C 0.01816 0.05923 0.54765 0.0
C498 C 0.02534 0.07684 0.51721 0.0
H499 H -0.00115 0.1337 0.36892 0.0
H500 H 0.99742 0.10796 0.39993 0.0
H501 H 0.98266 0.12807 0.43682 0.0
H502 H 0.98257 0.10627 0.53109 0.0
H503 H 0.96959 0.07539 0.57985 0.0
H504 H 0.29623 0.03873 0.47454 0.0
H505 H 0.3253 0.03401 0.54758 0.0
H506 H 0.36018 0.0765 0.43064 0.0
H507 H 0.33033 0.08399 0.36738 0.0
H508 H 0.351 0.01397 0.49414 0.0
H509 H 0.39554 0.08062 0.5743 0.0
H510 H 0.36921 0.08338 0.55019 0.0
H511 H 0.38951 0.08426 0.49035 0.0
C512 C 0.30958 0.04832 0.46841 0.0
C513 C 0.31158 0.06096 0.4137 0.0
C514 C 0.32637 0.0454 0.50941 0.0
C515 C 0.34539 0.05421 0.49341 0.0
C516 C 0.34598 0.06956 0.44568 0.0
H517 H 0.47101 0.01054 0.51312 0.0
H518 H 0.4387 0.02435 0.46951 0.0
C519 C 0.32879 0.07364 0.40837 0.0
C520 C 0.36459 0.04362 0.5118 0.0
H521 H 0.4153 0.05079 0.54298 0.0
C522 C 0.36485 0.02218 0.50646 0.0
C523 C 0.38307 0.05407 0.5256 0.0
C524 C 0.38417 0.07684 0.53594 0.0
C525 C 0.38281 0.01102 0.51447 0.0
C526 C 0.40115 0.02155 0.52717 0.0
C527 C 0.40116 0.04287 0.53177 0.0
C528 C 0.41994 0.01069 0.54478 0.0
C529 C 0.38192 0.98803 0.50911 0.0
C530 C 0.41976 -0.00172 0.60022 0.0
C531 C 0.43779 0.99002 0.62338 0.0
C532 C 0.4564 0.99449 0.59255 0.0
C533 C 0.45669 0.00664 0.53643 0.0
C534 C 0.43839 0.01455 0.51205 0.0
H535 H 0.369 0.98303 0.47786 0.0
H536 H 0.39632 0.98169 0.48909 0.0
H537 H 0.37945 0.98142 0.55832 0.0
H538 H 0.40585 0.99585 0.62769 0.0
H539 H 0.43732 0.98134 0.66838 0.0
H540 H 0.42749 0.32995 0.35627 0.0
H541 H 0.43464 0.35965 0.42338 0.0
H542 H 0.48051 0.32566 0.52831 0.0
H543 H 0.47477 0.29648 0.45756 0.0
H544 H 0.44165 0.37616 0.54099 0.0
H545 H 0.51502 0.36134 0.41198 0.0
H546 H 0.49271 0.34582 0.3989 0.0
H547 H 0.50812 0.34235 0.47085 0.0
C548 C 0.43859 0.32856 0.39521 0.0
C549 C 0.45138 0.3114 0.3992 0.0
C550 C 0.44257 0.34551 0.43384 0.0
C551 C 0.45889 0.34505 0.47796 0.0
C552 C 0.46842 0.32642 0.49231 0.0
H553 H 0.53532 0.43665 0.62941 0.0
H554 H 0.51878 0.40617 0.59018 0.0
C555 C 0.46491 0.30964 0.45223 0.0
C556 C 0.46879 0.36445 0.49533 0.0
H557 H 0.51241 0.39175 0.46999 0.0
C558 C 0.45716 0.37959 0.526 0.0
C559 C 0.48887 0.36895 0.47365 0.0
C560 C 0.50186 0.35386 0.4365 0.0
C561 C 0.46527 0.39905 0.53726 0.0
C562 C 0.48538 0.40333 0.51647 0.0
C563 C 0.49691 0.3883 0.48522 0.0
C564 C 0.49587 0.4223 0.53405 0.0
C565 C 0.45248 0.41467 0.57254 0.0
C566 C 0.48875 0.44149 0.51369 0.0
C567 C 0.49803 0.45921 0.5373 0.0
C568 C 0.51486 0.45766 0.57926 0.0
C569 C 0.52269 0.43836 0.59562 0.0
C570 C 0.51315 0.42087 0.57379 0.0
H571 H 0.43856 0.40782 0.59444 0.0
H572 H 0.46149 0.42215 0.61165 0.0
H573 H 0.44756 0.42665 0.53762 0.0
H574 H 0.4757 0.44274 0.48151 0.0
H575 H 0.49172 0.47398 0.52473 0.0
H576 H 0.1913 0.43099 0.37195 0.0
H577 H 0.15966 0.43813 0.42662 0.0
H578 H 0.18992 0.48389 0.54339 0.0
H579 H 0.22088 0.47946 0.47789 0.0
H580 H 0.1369 0.4436 0.51166 0.0
H581 H 0.15879 0.52323 0.44678 0.0
H582 H 0.1756 0.50221 0.43119 0.0
H583 H 0.17386 0.5132 0.51186 0.0
C584 C 0.19142 0.4421 0.41101 0.0
C585 C 0.20778 0.45581 0.41731 0.0
C586 C 0.17317 0.44629 0.44245 0.0
C587 C 0.17189 0.46304 0.4848 0.0
C588 C 0.19013 0.47232 0.50592 0.0
H589 H 0.07413 0.51016 0.67595 0.0
H590 H 0.10525 0.49733 0.62739 0.0
C591 C 0.20805 0.4693 0.47019 0.0
C592 C 0.15167 0.4727 0.49537 0.0
H593 H 0.12615 0.51822 0.49115 0.0
C594 C 0.13471 0.45989 0.50566 0.0
C595 C 0.14839 0.49403 0.48615 0.0
C596 C 0.16509 0.5089 0.4677 0.0
C597 C 0.11489 0.46771 0.50795 0.0
C598 C 0.11207 0.48893 0.50403 0.0
C599 C 0.12864 0.50185 0.49297 0.0
C600 C 0.09336 0.49795 0.52906 0.0
C601 C 0.09702 0.45345 0.51736 0.0
C602 C 0.07658 0.50262 0.48903 0.0
C603 C 0.05851 0.50988 0.51723 0.0
C604 C 0.05758 0.51233 0.58491 0.0
C605 C 0.0746 0.50805 0.62381 0.0
C606 C 0.09235 0.5009 0.59619 0.0
H607 H 0.10123 0.43731 0.50784 0.0
H608 H 0.09138 0.4547 0.56818 0.0
H609 H 0.08428 0.4578 0.48438 0.0
H610 H 0.0774 0.50036 0.43685 0.0
H611 H 0.04544 0.51339 0.48687 0.0
H612 H 0.98809 0.79751 0.99619 0.0
H613 H 0.99185 0.82542 0.91813 0.0
H614 H 0.93829 0.85446 0.99716 0.0
H615 H 0.93443 0.8266 0.07533 0.0
H616 H 0.95475 0.86358 0.84723 0.0
H617 H 0.00526 0.87336 0.06477 0.0
H618 H 0.0058 0.84942 0.02205 0.0
H619 H 0.98342 0.8566 0.06681 0.0
C620 C 0.97639 0.80918 0.99408 0.0
C621 C 0.96127 0.81035 0.04238 0.0
C622 C 0.97851 0.82505 0.94933 0.0
C623 C 0.96551 0.84198 0.95309 0.0
C624 C 0.94839 0.84141 0.99383 0.0
H625 H 0.98883 0.97196 0.91963 0.0
H626 H 0.97342 0.93862 0.94677 0.0
C627 C 0.94629 0.82561 0.03869 0.0
C628 C 0.9733 0.862 0.93372 0.0
H629 H 0.00442 0.89993 0.98891 0.0
C630 C 0.96563 0.87157 0.8778 0.0
C631 C 0.98736 0.87225 0.97464 0.0
C632 C 0.99595 0.86252 0.03562 0.0
C633 C 0.97196 0.89136 0.86139 0.0
C634 C 0.98586 0.90153 0.90272 0.0
C635 C 0.99346 0.89198 0.95843 0.0
C636 C 0.99428 0.92147 0.88619 0.0
C637 C 0.96402 0.90132 0.80015 0.0
C638 C 0.01135 0.92233 0.84567 0.0
C639 C 0.02026 0.94099 0.83161 0.0
C640 C 0.01211 0.95907 0.85764 0.0
C641 C 0.99523 0.95816 0.89939 0.0
C642 C 0.98642 0.93931 0.91425 0.0
H643 H 0.95191 0.89208 0.77629 0.0
H644 H 0.95783 0.91668 0.81152 0.0
H645 H 0.9768 0.90342 0.76526 0.0
H646 H 0.01763 0.90856 0.82448 0.0
H647 H 0.03293 0.94135 0.7977 0.0
H648 H 0.69151 0.93017 0.07228 0.0
H649 H 0.66084 0.9343 0.00579 0.0
H650 H 0.68557 0.98987 0.92505 0.0
H651 H 0.71621 0.98571 0.99102 0.0
H652 H 0.64389 0.97211 0.05176 0.0
H653 H 0.64609 0.96883 0.78114 0.0
H654 H 0.66285 0.95372 0.83209 0.0
H655 H 0.66797 0.98035 0.81934 0.0
C656 C 0.69095 0.94246 0.03692 0.0
C657 C 0.70585 0.95786 0.03735 0.0
C658 C 0.67344 0.94484 -0.00082 0.0
C659 C 0.67094 0.96252 0.96155 0.0
C660 C 0.68736 0.97603 0.95348 0.0
H661 H 0.57882 0.04409 0.84439 0.0
H662 H 0.6087 0.02924 0.89663 0.0
C663 C 0.7049 0.97363 0.99114 0.0
C664 C 0.65022 0.97002 0.94872 0.0
H665 H 0.61907 0.98805 0.82923 0.0
C666 C 0.63822 0.9752 0.00305 0.0
C667 C 0.64327 0.97442 0.88533 0.0
C668 C 0.65562 0.96893 0.82597 0.0
C669 C 0.61953 0.9852 0.99546 0.0
C670 C 0.61282 0.98992 0.93219 0.0
C671 C 0.62454 0.98437 0.87778 0.0
C672 C 0.5937 0.0008 0.92048 0.0
C673 C 0.60741 0.99142 0.05463 0.0
C674 C 0.57522 0.99008 0.92112 0.0
C675 C 0.55809 -0.00152 0.89113 0.0
C676 C 0.55951 0.01747 0.85967 0.0
C677 C 0.57734 0.02923 0.86712 0.0
C678 C 0.59445 0.02081 0.89688 0.0
H679 H 0.61556 0.98794 0.10083 0.0
H680 H 0.60412 0.00804 0.05269 0.0
H681 H 0.59253 0.98329 0.05475 0.0
H682 H 0.57452 0.97459 0.93955 0.0
H683 H 0.54442 0.98933 0.88716 0.0
H684 H 0.58559 0.70324 0.01307 0.0
H685 H 0.57926 0.67322 0.94528 0.0
H686 H 0.51433 0.68389 0.96146 0.0
H687 H 0.52086 0.71473 0.02192 0.0
H688 H 0.56399 0.64426 0.00703 0.0
H689 H 0.51232 0.65513 0.79838 0.0
H690 H 0.5253 0.67649 0.83519 0.0
H691 H 0.50122 0.66746 0.86727 0.0
C692 C 0.57015 0.70001 0.99711 0.0
C693 C 0.55368 0.71111 0.02218 0.0
C694 C 0.56647 0.6827 0.95939 0.0
C695 C 0.5463 0.67606 0.94879 0.0
C696 C 0.53003 0.68877 0.96697 0.0
H697 H 0.47939 0.56595 0.9071 0.0
H698 H 0.49292 0.59757 0.95287 0.0
C699 C 0.53377 0.70652 0.00186 0.0
C700 C 0.54216 0.65432 0.93456 0.0
H701 H 0.50882 0.62278 0.85677 0.0
C702 C 0.55224 0.63958 0.97292 0.0
C703 C 0.52662 0.6481 0.89101 0.0
C704 C 0.51596 0.66271 0.84535 0.0
C705 C 0.5467 0.61897 0.97064 0.0
C706 C 0.53057 0.61304 0.9294 0.0
C707 C 0.52086 0.62757 0.88973 0.0
C708 C 0.52406 0.59169 0.92295 0.0
C709 C 0.5578 0.60385 0.01347 0.0
C710 C 0.53744 0.5774 0.89574 0.0
C711 C 0.52982 0.55923 0.87063 0.0
C712 C 0.50868 0.55545 0.87124 0.0
C713 C 0.49573 0.56861 0.90575 0.0
C714 C 0.50341 0.58668 0.93157 0.0
H715 H 0.56544 0.61147 0.05521 0.0
H716 H 0.54722 0.59202 0.03258 0.0
H717 H 0.56976 0.59609 0.98432 0.0
H718 H 0.55337 0.58114 0.88787 0.0
H719 H 0.54012 0.54948 0.84376 0.0
H720 H 0.80069 0.52082 0.02209 0.0
H721 H 0.83003 0.5153 0.95153 0.0
H722 H 0.84614 0.57896 0.96782 0.0
H723 H 0.81735 0.58419 0.04214 0.0
H724 H 0.85399 0.5282 0.84946 0.0
H725 H 0.88588 0.55066 0.09101 0.0
H726 H 0.85888 0.54782 0.07725 0.0
H727 H 0.87203 0.5703 0.04903 0.0
C728 C 0.80988 0.53383 0.00769 0.0
C729 C 0.8073 0.55277 0.038 0.0
C730 C 0.82661 0.53069 0.96735 0.0
C731 C 0.84057 0.54659 0.95702 0.0
C732 C 0.83571 0.56645 0.97709 0.0
H733 H 0.96672 0.53272 0.85694 0.0
H734 H 0.93477 0.54614 0.89866 0.0
C735 C 0.81928 0.56947 0.01905 0.0
C736 C 0.86183 0.54114 0.94254 0.0
H737 H 0.90867 0.53745 0.0148 0.0
C738 C 0.86603 0.53045 0.88506 0.0
C739 C 0.87729 0.54361 0.99044 0.0
C740 C 0.87334 0.55354 0.05564 0.0
C741 C 0.88538 0.5221 0.87417 0.0
C742 C 0.90066 0.52459 0.92218 0.0
C743 C 0.89668 0.53562 0.97875 0.0
C744 C 0.92119 0.5164 0.91313 0.0
C745 C 0.88936 0.51058 0.81183 0.0
C746 C 0.92445 0.4953 0.9131 0.0
C747 C 0.9429 0.48756 0.89043 0.0
C748 C 0.95803 0.50094 0.86713 0.0
C749 C 0.95552 0.52206 0.87522 0.0
C750 C 0.93714 0.52977 0.89806 0.0
H751 H 0.87703 0.51294 0.77536 0.0
H752 H 0.90414 0.51535 0.79007 0.0
H753 H 0.89033 0.49401 0.82274 0.0
H754 H 0.91226 0.48488 0.9261 0.0
H755 H 0.94453 0.47118 0.88532 0.0
H756 H 0.06892 0.2118 0.1135 0.0
H757 H 0.06411 0.18292 0.03809 0.0
H758 H 0.02 0.15666 0.16985 0.0
H759 H 0.02396 0.1857 0.2424 0.0
H760 H 0.07245 0.14377 0.05712 0.0
H761 H 0.9897 0.14862 0.00648 0.0
H762 H 0.00333 0.16904 0.04607 0.0
H763 H 0.99441 0.14735 0.09228 0.0
C764 C 0.05759 0.20027 0.12465 0.0
C765 C 0.04655 0.20121 0.18322 0.0
C766 C 0.05505 0.18359 0.08213 0.0
C767 C 0.04145 0.16758 0.09747 0.0
C768 C 0.03009 0.16893 0.15531 0.0
H769 H 0.00922 0.04827 0.9442 0.0
H770 H 0.01943 0.076 0.01765 0.0
C771 C 0.03241 0.1856 0.197 0.0
C772 C 0.03992 0.14887 0.05579 0.0
H773 H 0.00564 0.11665 0.98315 0.0
C774 C 0.05784 0.13802 0.0403 0.0
C775 C 0.02088 0.14107 0.03403 0.0
C776 C 0.00105 0.15226 0.04505 0.0
C777 C 0.05717 0.11958 0.0049 0.0
C778 C 0.03811 0.11174 0.98425 0.0
C779 C 0.02025 0.12254 -0.00042 0.0
C780 C 0.03613 0.09285 0.94424 0.0
C781 C 0.07676 0.10835 0.99094 0.0
C782 C 0.04274 0.09267 0.87912 0.0
C783 C 0.03695 0.07678 0.83722 0.0
C784 C 0.02462 0.06071 0.85987 0.0
C785 C 0.01918 0.06019 0.92601 0.0
C786 C 0.02486 0.07613 0.96781 0.0
H787 H 0.08966 0.11414 0.02087 0.0
H788 H 0.07486 0.09176 0.00028 0.0
H789 H 0.08076 0.11032 0.93879 0.0
H790 H 0.05111 0.10554 0.85942 0.0
H791 H 0.04081 0.07783 0.786 0.0
H792 H 0.30326 0.02226 0.13202 0.0
H793 H 0.33132 0.0177 0.05277 0.0
H794 H 0.36321 0.06879 0.13694 0.0
H795 H 0.33527 0.07407 0.21272 0.0
H796 H 0.36162 0.067 0.99275 0.0
H797 H 0.39052 0.99622 0.11228 0.0
H798 H 0.3634 -0.00034 0.10153 0.0
H799 H 0.37701 0.01551 0.15781 0.0
C800 C 0.31601 0.0328 0.13233 0.0
C801 C 0.31706 0.04836 0.17936 0.0
C802 C 0.33217 0.03001 0.08777 0.0
C803 C 0.34957 0.04268 0.08992 0.0
C804 C 0.35006 0.05877 0.1345 0.0
H805 H 0.4727 0.02284 0.93257 0.0
H806 H 0.44417 0.03313 0.00371 0.0
C807 C 0.33399 0.06172 0.1779 0.0
C808 C 0.36757 0.03948 0.04673 0.0
H809 H 0.40976 0.00946 0.02535 0.0
C810 C 0.37204 0.0543 -0.00064 0.0
C811 C 0.38153 0.02331 0.05696 0.0
C812 C 0.37808 0.00772 0.10994 0.0
C813 C 0.38986 0.05322 0.96123 0.0
C814 C 0.40356 0.0367 0.96997 0.0
C815 C 0.39927 0.02208 0.01831 0.0
C816 C 0.42158 0.03352 0.92652 0.0
C817 C 0.39403 0.07004 0.91278 0.0
C818 C 0.41858 0.03086 0.85938 0.0
C819 C 0.43477 0.02511 0.81911 0.0
C820 C 0.45443 0.02196 0.84473 0.0
C821 C 0.45782 0.02565 0.91129 0.0
C822 C 0.44146 0.03127 0.952 0.0
H823 H 0.38616 0.0844 0.92665 0.0
H824 H 0.41065 0.07315 0.90847 0.0
H825 H 0.3882 0.06539 0.86426 0.0
H826 H 0.40343 0.03207 0.83853 0.0
H827 H 0.43167 0.02199 0.76821 0.0
H828 H 0.43726 0.31653 0.14646 0.0
H829 H 0.44235 0.34571 0.07326 0.0
H830 H 0.50719 0.343 0.10907 0.0
H831 H 0.50207 0.31355 0.18133 0.0
H832 H 0.45776 0.38323 0.10575 0.0
H833 H 0.5059 0.34885 0.91316 0.0
H834 H 0.49192 0.33356 0.97117 0.0
H835 H 0.51587 0.34505 0.99371 0.0
C836 C 0.45268 0.3216 0.13625 0.0
C837 C 0.46935 0.31223 0.16766 0.0
C838 C 0.45555 0.33852 0.09532 0.0
C839 C 0.47518 0.34657 0.08483 0.0
C840 C 0.49194 0.33686 0.11481 0.0
H841 H 0.5306 0.45052 0.90484 0.0
H842 H 0.51957 0.42275 0.97576 0.0
C843 C 0.48906 0.31985 0.15561 0.0
C844 C 0.47797 0.36558 0.04511 0.0
H845 H 0.50385 0.38509 0.91438 0.0
C846 C 0.46766 0.38356 0.06343 0.0
C847 C 0.49086 0.36616 0.9898 0.0
C848 C 0.50163 0.34734 0.96532 0.0
C849 C 0.4704 0.40208 0.02916 0.0
C850 C 0.48364 0.40265 0.97482 0.0
C851 C 0.49365 0.38465 0.95599 0.0
C852 C 0.48864 0.42189 0.93912 0.0
C853 C 0.45977 0.42111 0.05244 0.0
C854 C 0.4747 0.43125 0.89604 0.0
C855 C 0.481 0.44742 0.85516 0.0
C856 C 0.50138 0.45424 0.85655 0.0
C857 C 0.51483 0.44555 0.90235 0.0
C858 C 0.50856 0.42963 0.94299 0.0
H859 H 0.45126 0.41855 0.09855 0.0
H860 H 0.47112 0.43349 0.06013 0.0
H861 H 0.44887 0.42641 0.01461 0.0
H862 H 0.45928 0.42541 0.89172 0.0
H863 H 0.47037 0.45364 0.8199 0.0
H864 H 0.21581 0.49343 0.13047 0.0
H865 H 0.18791 0.49735 0.05003 0.0
H866 H 0.15416 0.44937 0.14505 0.0
H867 H 0.1819 0.44454 0.2218 0.0
H868 H 0.15709 0.4488 0.99676 0.0
H869 H 0.12812 0.52084 0.10703 0.0
H870 H 0.15525 0.51643 0.10034 0.0
H871 H 0.14043 0.50165 0.1566 0.0
C872 C 0.20266 0.48344 0.13319 0.0
C873 C 0.20108 0.46894 0.18366 0.0
C874 C 0.18661 0.48586 0.08778 0.0
C875 C 0.16876 0.47389 0.09241 0.0
C876 C 0.16765 0.45886 0.14065 0.0
H877 H 0.04576 0.49238 0.93255 0.0
H878 H 0.07437 0.48243 0.00414 0.0
C879 C 0.18362 0.45623 0.18483 0.0
C880 C 0.15092 0.47671 0.04803 0.0
H881 H 0.10857 0.50628 0.02317 0.0
C882 C 0.1466 0.4615 0.00191 0.0
C883 C 0.13687 0.49288 0.05636 0.0
C884 C 0.14021 0.50895 0.10773 0.0
C885 C 0.12881 0.46218 0.9633 0.0
C886 C 0.11495 0.47864 0.97042 0.0
C887 C 0.11914 0.49368 0.01741 0.0
C888 C 0.09683 0.48137 0.92678 0.0
C889 C 0.12482 0.44497 0.91626 0.0
C890 C 0.0997 0.48351 0.85939 0.0
C891 C 0.08345 0.4891 0.81888 0.0
C892 C 0.06386 0.49265 0.84446 0.0
C893 C 0.06059 0.48938 0.91132 0.0
C894 C 0.077 0.48392 0.95225 0.0
H895 H 0.13281 0.43078 0.93147 0.0
H896 H 0.10823 0.4417 0.91199 0.0
H897 H 0.13066 0.44932 0.86744 0.0
H898 H 0.11479 0.48202 0.83838 0.0
H899 H 0.08649 0.49167 0.76771 0.0
H900 H 0.0083 0.81845 0.26453 0.0
H901 H 0.01118 0.84847 0.33563 0.0
H902 H 0.94601 0.84748 0.36575 0.0
H903 H 0.94326 0.8174 0.29562 0.0
H904 H 0.99324 0.88584 0.31175 0.0
H905 H 0.96609 0.8563 0.54997 0.0
H906 H 0.97355 0.83963 0.4843 0.0
H907 H 0.94889 0.85169 0.48347 0.0
C908 C 0.99477 0.82409 0.28895 0.0
C909 C 0.97566 0.81511 0.27664 0.0
C910 C 0.99635 0.84145 0.32869 0.0
C911 C 0.97884 0.85021 0.35696 0.0
C912 C 0.95983 0.84082 0.34618 0.0
H913 H 0.96779 0.95975 0.60832 0.0
H914 H 0.95816 0.93234 0.53151 0.0
C915 C 0.95827 0.8235 0.30646 0.0
C916 C 0.98027 0.86988 0.39371 0.0
H917 H 0.971 0.89195 0.5418 0.0
C918 C 0.98838 0.88712 0.36209 0.0
C919 C 0.97359 0.87181 0.45907 0.0
C920 C 0.9652 0.85385 0.4965 0.0
C921 C 0.99026 0.90603 0.39412 0.0
C922 C 0.98422 0.90777 0.46017 0.0
C923 C 0.97552 0.89072 0.49114 0.0
C924 C 0.98915 0.92618 0.50022 0.0
C925 C -0.00129 0.92399 0.35671 0.0
C926 C 0.00961 0.93202 0.50771 0.0
C927 C 0.01503 0.94742 0.55125 0.0
C928 C 0.00018 0.9575 0.58879 0.0
C929 C 0.97952 0.9524 0.57956 0.0
C930 C 0.97406 0.93668 0.53601 0.0
H931 H 0.99571 0.92246 0.30365 0.0
H932 H 0.99204 0.93859 0.3739 0.0
H933 H 0.01551 0.92464 0.3636 0.0
H934 H 0.02161 0.92398 0.48208 0.0
H935 H 0.03109 0.95098 0.55728 0.0
H936 H 0.68888 0.00442 0.21994 0.0
H937 H 0.65895 0.00636 0.29136 0.0
H938 H 0.67901 0.95216 0.39203 0.0
H939 H 0.70903 0.95025 0.32032 0.0
H940 H 0.62898 0.97457 0.29901 0.0
H941 H 0.66282 0.99137 0.54165 0.0
H942 H 0.67623 0.99637 0.46645 0.0
H943 H 0.67421 0.97075 0.49684 0.0
C944 C 0.68736 0.99346 0.25927 0.0
C945 C 0.70166 0.97758 0.26606 0.0
C946 C 0.67008 0.99438 0.29938 0.0
C947 C 0.66671 0.97947 0.34743 0.0
C948 C 0.68142 0.96406 0.35617 0.0
H949 H 0.56594 0.97206 0.63119 0.0
H950 H 0.59454 0.96122 0.56146 0.0
C951 C 0.69871 0.96309 0.31573 0.0
C952 C 0.64717 0.97939 0.38509 0.0
H953 H 0.62738 0.98549 0.53791 0.0
C954 C 0.62864 0.97688 0.35132 0.0
C955 C 0.64666 0.98218 0.45338 0.0
C956 C 0.66599 0.98547 0.49197 0.0
C957 C 0.60969 0.9773 0.3838 0.0
C958 C 0.60913 0.98075 0.45193 0.0
C959 C 0.62771 0.98271 0.48586 0.0
C960 C 0.58962 0.98447 0.48798 0.0
C961 C 0.59046 0.97397 0.34467 0.0
C962 C 0.5769 0.00069 0.4692 0.0
C963 C 0.56063 0.00678 0.50871 0.0
C964 C 0.55657 0.99681 0.56802 0.0
C965 C 0.5684 0.97972 0.58504 0.0
C966 C 0.58489 0.97369 0.54554 0.0
H967 H 0.59351 0.96453 0.30083 0.0
H968 H 0.57843 0.9664 0.37418 0.0
H969 H 0.58456 0.98893 0.32773 0.0
H970 H 0.58036 0.0096 0.42611 0.0
H971 H 0.55199 0.02021 0.49493 0.0
H972 H 0.53067 0.67674 0.18128 0.0
H973 H 0.5285 0.64806 0.25628 0.0
H974 H 0.55278 0.6854 0.41044 0.0
H975 H 0.55598 0.71441 0.33401 0.0
H976 H 0.57012 0.6366 0.3602 0.0
H977 H 0.48996 0.6496 0.44146 0.0
H978 H 0.49772 0.65601 0.35959 0.0
H979 H 0.50691 0.67089 0.42658 0.0
C980 C 0.53577 0.67898 0.23098 0.0
C981 C 0.54405 0.69788 0.251 0.0
C982 C 0.53441 0.66249 0.27385 0.0
C983 C 0.54078 0.66446 0.33855 0.0
C984 C 0.54805 0.68351 0.36025 0.0
H985 H 0.52975 0.58188 0.66353 0.0
H986 H 0.5397 0.60961 0.58999 0.0
C987 C 0.54967 0.70012 0.31679 0.0
C988 C 0.53957 0.64644 0.38261 0.0
H989 H 0.50646 0.62008 0.48011 0.0
C990 C 0.55629 0.63304 0.38691 0.0
C991 C 0.52135 0.64159 0.41605 0.0
C992 C 0.50285 0.65518 0.41111 0.0
C993 C 0.55525 0.61502 0.42453 0.0
C994 C 0.53709 0.61033 0.4586 0.0
C995 C 0.52039 0.62371 0.45397 0.0
C996 C 0.53519 0.59217 0.50193 0.0
C997 C 0.5735 0.60107 0.4281 0.0
C998 C 0.53001 0.57286 0.47691 0.0
C999 C 0.52441 0.55686 0.51918 0.0
C1000 C 0.52399 0.56001 0.58692 0.0
C1001 C 0.53037 0.57895 0.61163 0.0
C1002 C 0.53592 0.59484 0.56964 0.0
H1003 H 0.58687 0.60732 0.40139 0.0
H1004 H 0.57784 0.59852 0.47979 0.0
H1005 H 0.56945 0.58601 0.40704 0.0
H1006 H 0.52914 0.57054 0.42474 0.0
H1007 H 0.51903 0.54259 0.49883 0.0
H1008 H 0.80831 0.57207 0.32258 0.0
H1009 H 0.83845 0.56971 0.39447 0.0
H1010 H 0.8552 0.51288 0.30376 0.0
H1011 H 0.82526 0.51519 0.23256 0.0
H1012 H 0.85317 0.53749 0.48326 0.0
H1013 H 0.90561 0.55062 0.27527 0.0
H1014 H 0.87867 0.55643 0.27133 0.0
H1015 H 0.88732 0.53056 0.26277 0.0
C1016 C 0.81803 0.55873 0.31987 0.0
C1017 C 0.81419 0.54359 0.27299 0.0
C1018 C 0.8354 0.55751 0.36027 0.0
C1019 C 0.84934 0.5413 0.35373 0.0
C1020 C 0.84489 0.52569 0.30915 0.0
H1021 H 0.95996 0.49326 0.50993 0.0
H1022 H 0.93162 0.50508 0.44224 0.0
C1023 C 0.82759 0.52685 0.2692 0.0
C1024 C 0.8688 0.54075 0.39187 0.0
H1025 H 0.9208 0.53942 0.37455 0.0
C1026 C 0.86797 0.53821 0.45972 0.0
C1027 C 0.88816 0.54166 0.36111 0.0
C1028 C 0.89011 0.54515 0.28868 0.0
C1029 C 0.88586 0.53557 0.49718 0.0
C1030 C 0.90524 0.53604 0.46628 0.0
C1031 C 0.90605 0.53918 0.39855 0.0
C1032 C 0.92456 0.53123 0.5023 0.0
C1033 C 0.88375 0.53121 0.56908 0.0
C1034 C 0.93095 0.5426 0.55692 0.0
C1035 C 0.94746 0.53593 0.59554 0.0
C1036 C 0.9578 0.5178 0.58007 0.0
C1037 C 0.95232 0.50735 0.52287 0.0
C1038 C 0.93603 0.51405 0.48424 0.0
H1039 H 0.86786 0.52697 0.58244 0.0
H1040 H 0.8941 0.51865 0.5842 0.0
H1041 H 0.88796 0.54506 0.59706 0.0
H1042 H 0.92266 0.55615 0.57122 0.0
H1043 H 0.95116 0.54414 0.63978 0.0
loop_
_geom_bond_atom_site_label_1
_geom_bond_atom_site_label_2
_geom_bond_distance
_geom_bond_site_symmetry_2
_ccdc_geom_bond_type
H0 C5 0.930 . S
H1 C8 0.930 . S
H2 C10 0.930 . S
H3 C4 1.016 . S
C4 H3 1.016 . S
C4 N11 1.286 . S
C5 H0 0.930 . S
C5 C6 1.397 . S
C5 C7 1.361 . S
C6 C5 1.397 . S
C6 C10 1.390 . S
C7 C5 1.361 . S
C7 C8 1.393 . S
C7 N11 1.413 . S
C8 H1 0.930 . S
C8 C7 1.393 . S
C8 C9 1.399 . S
C9 C8 1.399 . S
C9 C10 1.381 . S
C10 H2 0.930 . S
C10 C6 1.390 . S
C10 C9 1.381 . S
N11 C4 1.286 . S
N11 C7 1.413 . S
H12 C17 0.930 . S
H13 C20 0.930 . S
H14 C22 0.930 . S
H15 C16 1.016 . S
C16 H15 1.016 . S
C16 N23 1.286 . S
C17 H12 0.930 . S
C17 C18 1.397 . S
C17 C19 1.361 . S
C18 C17 1.397 . S
C18 C22 1.390 . S
C19 C17 1.361 . S
C19 C20 1.393 . S
C19 N23 1.413 . S
C20 H13 0.930 . S
C20 C19 1.393 . S
C20 C21 1.399 . S
C21 C20 1.399 . S
C21 C22 1.381 . S
C22 H14 0.930 . S
C22 C18 1.390 . S
C22 C21 1.381 . S
N23 C16 1.286 . S
N23 C19 1.413 . S
H24 C29 0.930 . S
H25 C32 0.930 . S
H26 C34 0.930 . S
H27 C28 1.016 . S
C28 H27 1.016 . S
C28 N35 1.286 . S
C29 H24 0.930 . S
C29 C30 1.397 . S
C29 C31 1.361 . S
C30 C29 1.397 . S
C30 C34 1.390 . S
C31 C29 1.361 . S
C31 C32 1.393 . S
C31 N35 1.413 . S
C32 H25 0.930 . S
C32 C31 1.393 . S
C32 C33 1.399 . S
C33 C32 1.399 . S
C33 C34 1.381 . S
C34 H26 0.930 . S
C34 C30 1.390 . S
C34 C33 1.381 . S
N35 C28 1.286 . S
N35 C31 1.413 . S
H36 C41 0.930 . S
H37 C44 0.930 . S
H38 C46 0.930 . S
H39 C40 1.016 . S
C40 H39 1.016 . S
C40 N47 1.286 . S
C41 H36 0.930 . S
C41 C42 1.397 . S
C41 C43 1.361 . S
C42 C41 1.397 . S
C42 C46 1.390 . S
C43 C41 1.361 . S
C43 C44 1.393 . S
C43 N47 1.413 . S
C44 H37 0.930 . S
C44 C43 1.393 . S
C44 C45 1.399 . S
C45 C44 1.399 . S
C45 C46 1.381 . S
C46 H38 0.930 . S
C46 C42 1.390 . S
C46 C45 1.381 . S
N47 C40 1.286 . S
N47 C43 1.413 . S
H48 C53 0.930 . S
H49 C56 0.930 . S
H50 C58 0.930 . S
H51 C52 1.016 . S
C52 H51 1.016 . S
C52 N59 1.286 . S
C53 H48 0.930 . S
C53 C54 1.397 . S
C53 C55 1.361 . S
C54 C53 1.397 . S
C54 C58 1.390 . S
C55 C53 1.361 . S
C55 C56 1.393 . S
C55 N59 1.413 . S
C56 H49 0.930 . S
C56 C55 1.393 . S
C56 C57 1.399 . S
C57 C56 1.399 . S
C57 C58 1.381 . S
C58 H50 0.930 . S
C58 C54 1.390 . S
C58 C57 1.381 . S
N59 C52 1.286 . S
N59 C55 1.413 . S
H60 C65 0.930 . S
H61 C68 0.930 . S
H62 C70 0.930 . S
H63 C64 1.016 . S
C64 H63 1.016 . S
C64 N71 1.286 . S
C65 H60 0.930 . S
C65 C66 1.397 . S
C65 C67 1.361 . S
C66 C65 1.397 . S
C66 C70 1.390 . S
C67 C65 1.361 . S
C67 C68 1.393 . S
C67 N71 1.413 . S
C68 H61 0.930 . S
C68 C67 1.393 . S
C68 C69 1.399 . S
C69 C68 1.399 . S
C69 C70 1.381 . S
C70 H62 0.930 . S
C70 C66 1.390 . S
C70 C69 1.381 . S
N71 C64 1.286 . S
N71 C67 1.413 . S
H72 C77 0.930 . S
H73 C80 0.930 . S
H74 C82 0.930 . S
H75 C76 1.016 . S
C76 H75 1.016 . S
C76 N83 1.286 . S
C77 H72 0.930 . S
C77 C78 1.397 . S
C77 C79 1.361 . S
C78 C77 1.397 . S
C78 C82 1.390 . S
C79 C77 1.361 . S
C79 C80 1.393 . S
C79 N83 1.413 . S
C80 H73 0.930 . S
C80 C79 1.393 . S
C80 C81 1.399 . S
C81 C80 1.399 . S
C81 C82 1.381 . S
C82 H74 0.930 . S
C82 C78 1.390 . S
C82 C81 1.381 . S
N83 C76 1.286 . S
N83 C79 1.413 . S
H84 C89 0.930 . S
H85 C92 0.930 . S
H86 C94 0.930 . S
H87 C88 1.016 . S
C88 H87 1.016 . S
C88 N95 1.286 . S
C89 H84 0.930 . S
C89 C90 1.397 . S
C89 C91 1.361 . S
C90 C89 1.397 . S
C90 C94 1.390 . S
C91 C89 1.361 . S
C91 C92 1.393 . S
C91 N95 1.413 . S
C92 H85 0.930 . S
C92 C91 1.393 . S
C92 C93 1.399 . S
C93 C92 1.399 . S
C93 C94 1.381 . S
C94 H86 0.930 . S
C94 C90 1.390 . S
C94 C93 1.381 . S
N95 C88 1.286 . S
N95 C91 1.413 . S
O96 Mn97 2.163 . S
O96 C110 1.244 . S
Mn97 O96 2.163 . S
Mn97 O100 2.160 1_445 S
Mn97 O101 2.221 . S
Mn97 O103 2.163 1_545 S
Mn97 O105 2.160 . S
Mn97 O115 2.221 1_455 S
O98 Mn99 2.106 . S
O98 C110 1.233 1_655 S
Mn99 O98 2.106 . S
Mn99 O106 2.089 . S
Mn99 O115 2.290 . S
Mn99 O116 2.251 . S
O100 Mn97 2.160 1_665 S
O100 C111 1.239 1_655 S
O101 Mn97 2.221 . S
O101 Mn102 2.290 1_545 S
O101 C112 1.278 . S
Mn102 O101 2.290 1_565 S
Mn102 O104 2.089 . S
Mn102 O107 2.251 . S
Mn102 O108 2.087 . S
O103 Mn97 2.163 1_565 S
O103 C113 1.244 . S
O104 Mn102 2.089 . S
O104 C111 1.256 . S
O105 Mn97 2.160 . S
O105 C114 1.239 . S
O106 Mn99 2.089 . S
O106 C114 1.256 1_655 S
O107 Mn102 2.251 . S
O107 C112 1.241 1_565 S
O108 Mn102 2.087 . S
O108 C113 1.256 . S
C109 O115 1.278 . S
C109 O116 1.241 . S
C110 O96 1.244 . S
C110 O98 1.233 1_455 S
C111 O100 1.239 1_455 S
C111 O104 1.256 . S
C112 O101 1.278 . S
C112 O107 1.241 1_545 S
C113 O103 1.244 . S
C113 O108 1.256 . S
C114 O105 1.239 . S
C114 O106 1.256 1_455 S
O115 Mn97 2.221 1_655 S
O115 Mn99 2.290 . S
O115 C109 1.278 . S
O116 Mn99 2.251 . S
O116 C109 1.241 . S
O117 Mn118 2.163 . S
O117 C131 1.244 . S
Mn118 O117 2.163 . S
Mn118 O121 2.160 . S
Mn118 O122 2.221 1_545 S
Mn118 O124 2.163 . S
Mn118 O126 2.160 1_545 S
Mn118 O136 2.221 . S
O119 Mn120 2.087 . S
O119 C131 1.256 . S
Mn120 O119 2.087 . S
Mn120 O127 2.089 . S
Mn120 O136 2.290 . S
Mn120 O137 2.251 . S
O121 Mn118 2.160 . S
O121 C132 1.239 . S
O122 Mn118 2.221 1_565 S
O122 Mn123 2.290 . S
O122 C133 1.278 . S
Mn123 O122 2.290 . S
Mn123 O125 2.089 . S
Mn123 O128 2.251 . S
Mn123 O129 2.096 . S
O124 Mn118 2.163 . S
O124 C134 1.244 . S
O125 Mn123 2.089 . S
O125 C132 1.256 1_565 S
O126 Mn118 2.160 1_565 S
O126 C135 1.239 1_565 S
O127 Mn120 2.089 . S
O127 C135 1.256 . S
O128 Mn123 2.251 . S
O128 C133 1.241 . S
O129 Mn123 2.096 . S
O129 C134 1.245 1_565 S
C130 O136 1.278 . S
C130 O137 1.241 . S
C131 O117 1.244 . S
C131 O119 1.256 . S
C132 O121 1.239 . S
C132 O125 1.256 1_545 S
C133 O122 1.278 . S
C133 O128 1.241 . S
C134 O124 1.244 . S
C134 O129 1.245 1_545 S
C135 O126 1.239 1_545 S
C135 O127 1.256 . S
O136 Mn118 2.221 . S
O136 Mn120 2.290 . S
O136 C130 1.278 . S
O137 Mn120 2.251 . S
O137 C130 1.241 . S
O138 Mn139 2.163 . S
O138 C152 1.244 . S
Mn139 O138 2.163 . S
Mn139 O142 2.160 . S
Mn139 O143 2.221 . S
Mn139 O145 2.163 . S
Mn139 O147 2.160 . S
Mn139 O157 2.221 . S
O140 Mn141 2.087 . S
O140 C152 1.256 . S
Mn141 O140 2.087 . S
Mn141 O148 2.089 . S
Mn141 O157 2.290 . S
Mn141 O158 2.251 . S
O142 Mn139 2.160 . S
O142 C153 1.239 . S
O143 Mn139 2.221 . S
O143 Mn144 2.290 . S
O143 C154 1.278 . S
Mn144 O143 2.290 . S
Mn144 O146 2.089 . S
Mn144 O149 2.251 . S
Mn144 O150 2.087 . S
O145 Mn139 2.163 . S
O145 C155 1.244 . S
O146 Mn144 2.089 . S
O146 C153 1.256 . S
O147 Mn139 2.160 . S
O147 C156 1.239 . S
O148 Mn141 2.089 . S
O148 C156 1.256 . S
O149 Mn144 2.251 . S
O149 C154 1.241 . S
O150 Mn144 2.087 . S
O150 C155 1.256 . S
C151 O157 1.278 . S
C151 O158 1.241 . S
C152 O138 1.244 . S
C152 O140 1.256 . S
C153 O142 1.239 . S
C153 O146 1.256 . S
C154 O143 1.278 . S
C154 O149 1.241 . S
C155 O145 1.244 . S
C155 O150 1.256 . S
C156 O147 1.239 . S
C156 O148 1.256 . S
O157 Mn139 2.221 . S
O157 Mn141 2.290 . S
O157 C151 1.278 . S
O158 Mn141 2.251 . S
O158 C151 1.241 . S
O159 Mn160 2.163 . S
O159 C173 1.244 . S
Mn160 O159 2.163 . S
Mn160 O163 2.160 1_455 S
Mn160 O164 2.221 . S
Mn160 O166 2.163 1_455 S
Mn160 O168 2.160 . S
Mn160 O178 2.221 . S
O161 Mn162 2.087 . S
O161 C173 1.256 . S
Mn162 O161 2.087 . S
Mn162 O169 2.089 . S
Mn162 O178 2.290 . S
Mn162 O179 2.251 . S
O163 Mn160 2.160 1_655 S
O163 C174 1.239 . S
O164 Mn160 2.221 . S
O164 Mn165 2.290 1_455 S
O164 C175 1.278 . S
Mn165 O164 2.290 1_655 S
Mn165 O167 2.089 . S
Mn165 O170 2.251 . S
Mn165 O171 2.087 . S
O166 Mn160 2.163 1_655 S
O166 C176 1.244 . S
O167 Mn165 2.089 . S
O167 C174 1.256 . S
O168 Mn160 2.160 . S
O168 C177 1.239 . S
O169 Mn162 2.089 . S
O169 C177 1.256 . S
O170 Mn165 2.251 . S
O170 C175 1.241 1_655 S
O171 Mn165 2.087 . S
O171 C176 1.256 . S
C172 O178 1.278 . S
C172 O179 1.241 . S
C173 O159 1.244 . S
C173 O161 1.256 . S
C174 O163 1.239 . S
C174 O167 1.256 . S
C175 O164 1.278 . S
C175 O170 1.241 1_455 S
C176 O166 1.244 . S
C176 O171 1.256 . S
C177 O168 1.239 . S
C177 O169 1.256 . S
O178 Mn160 2.221 . S
O178 Mn162 2.290 . S
O178 C172 1.278 . S
O179 Mn162 2.251 . S
O179 C172 1.241 . S
H180 C188 0.929 . S
H181 C190 0.930 . S
H182 C192 0.930 . S
H183 C195 0.929 . S
H184 C198 0.930 . S
H185 C200 0.960 . S
H186 C200 0.960 . S
H187 C200 0.960 . S
C188 H180 0.929 . S
C188 C189 1.377 . S
C188 C190 1.384 . S
C189 C188 1.377 . S
C189 C195 1.390 . S
C190 H181 0.930 . S
C190 C188 1.384 . S
C190 C191 1.372 . S
C191 C190 1.372 . S
C191 C192 1.400 . S
C191 C196 1.490 . S
C192 H182 0.930 . S
C192 C191 1.400 . S
C192 C195 1.386 . S
H193 C209 0.930 . S
H194 C210 0.931 . S
C195 H183 0.929 . S
C195 C189 1.390 . S
C195 C192 1.386 . S
C196 C191 1.490 . S
C196 C198 1.395 . S
C196 C199 1.403 . S
H197 C203 0.930 . S
C198 H184 0.930 . S
C198 C196 1.395 . S
C198 C201 1.403 . S
C199 C196 1.403 . S
C199 C200 1.524 . S
C199 C203 1.400 . S
C200 H185 0.960 . S
C200 H186 0.960 . S
C200 H187 0.960 . S
C200 C199 1.524 . S
C201 C198 1.403 . S
C201 C202 1.392 . S
C201 C205 1.495 . S
C202 C201 1.392 . S
C202 C203 1.385 . S
C202 C204 1.478 . S
C203 H197 0.930 . S
C203 C199 1.400 . S
C203 C202 1.385 . S
C204 C202 1.478 . S
C204 C206 1.381 . S
C204 C210 1.383 . S
C205 C201 1.495 . S
C205 H211 0.959 . S
C205 H212 0.961 . S
C205 H213 0.960 1_545 S
C206 C204 1.381 . S
C206 C207 1.394 . S
C206 H214 0.930 1_545 S
C207 C206 1.394 . S
C207 C208 1.380 . S
C207 H215 0.933 1_545 S
C208 C207 1.380 . S
C208 C209 1.377 . S
C209 H193 0.930 . S
C209 C208 1.377 . S
C209 C210 1.379 . S
C210 H194 0.931 . S
C210 C204 1.383 . S
C210 C209 1.379 . S
H211 C205 0.959 . S
H212 C205 0.961 . S
H213 C205 0.960 1_565 S
H214 C206 0.930 1_565 S
H215 C207 0.933 1_565 S
H216 C224 0.929 . S
H217 C226 0.930 . S
H218 C228 0.930 . S
H219 C231 0.929 . S
H220 C234 0.930 . S
H221 C236 0.960 . S
H222 C236 0.960 . S
H223 C236 0.960 . S
C224 H216 0.929 . S
C224 C225 1.377 . S
C224 C226 1.384 . S
C225 C224 1.377 . S
C225 C231 1.390 . S
C226 H217 0.930 . S
C226 C224 1.384 . S
C226 C227 1.372 . S
C227 C226 1.372 . S
C227 C228 1.400 . S
C227 C232 1.490 . S
C228 H218 0.930 . S
C228 C227 1.400 . S
C228 C231 1.386 . S
H229 C245 0.930 . S
H230 C246 0.931 . S
C231 H219 0.929 . S
C231 C225 1.390 . S
C231 C228 1.386 . S
C232 C227 1.490 . S
C232 C234 1.395 . S
C232 C235 1.403 . S
H233 C239 0.930 . S
C234 H220 0.930 . S
C234 C232 1.395 . S
C234 C237 1.403 . S
C235 C232 1.403 . S
C235 C236 1.524 . S
C235 C239 1.400 . S
C236 H221 0.960 . S
C236 H222 0.960 . S
C236 H223 0.960 . S
C236 C235 1.524 . S
C237 C234 1.403 . S
C237 C238 1.392 . S
C237 C241 1.495 . S
C238 C237 1.392 . S
C238 C239 1.385 . S
C238 C240 1.478 . S
C239 H233 0.930 . S
C239 C235 1.400 . S
C239 C238 1.385 . S
C240 C238 1.478 . S
C240 C242 1.381 . S
C240 C246 1.383 . S
C241 C237 1.495 . S
C241 H247 0.959 . S
C241 H248 0.961 . S
C241 H249 0.960 . S
C242 C240 1.381 . S
C242 C243 1.394 . S
C242 H250 0.930 . S
C243 C242 1.394 . S
C243 C244 1.383 . S
C243 H251 0.929 . S
C244 C243 1.383 . S
C244 C245 1.377 . S
C245 H229 0.930 . S
C245 C244 1.377 . S
C245 C246 1.379 . S
C246 H230 0.931 . S
C246 C240 1.383 . S
C246 C245 1.379 . S
H247 C241 0.959 . S
H248 C241 0.961 . S
H249 C241 0.960 . S
H250 C242 0.930 . S
H251 C243 0.929 . S
H252 C260 0.929 . S
H253 C262 0.930 . S
H254 C264 0.930 . S
H255 C267 0.929 . S
H256 C270 0.930 . S
H257 C272 0.960 . S
H258 C272 0.960 . S
H259 C272 0.960 . S
C260 H252 0.929 . S
C260 C261 1.377 . S
C260 C262 1.384 . S
C261 C260 1.377 . S
C261 C267 1.390 . S
C262 H253 0.930 . S
C262 C260 1.384 . S
C262 C263 1.372 . S
C263 C262 1.372 . S
C263 C264 1.400 . S
C263 C268 1.490 . S
C264 H254 0.930 . S
C264 C263 1.400 . S
C264 C267 1.386 . S
H265 C281 0.930 . S
H266 C282 0.931 . S
C267 H255 0.929 . S
C267 C261 1.390 . S
C267 C264 1.386 . S
C268 C263 1.490 . S
C268 C270 1.395 . S
C268 C271 1.403 . S
H269 C275 0.930 . S
C270 H256 0.930 . S
C270 C268 1.395 . S
C270 C273 1.403 . S
C271 C268 1.403 . S
C271 C272 1.524 . S
C271 C275 1.400 . S
C272 H257 0.960 . S
C272 H258 0.960 . S
C272 H259 0.960 . S
C272 C271 1.524 . S
C273 C270 1.403 . S
C273 C274 1.392 . S
C273 C277 1.495 . S
C274 C273 1.392 . S
C274 C275 1.385 . S
C274 C276 1.478 . S
C275 H269 0.930 . S
C275 C271 1.400 . S
C275 C274 1.385 . S
C276 C274 1.478 . S
C276 C278 1.381 . S
C276 C282 1.383 . S
C277 C273 1.495 . S
C277 H283 0.959 . S
C277 H284 0.961 . S
C277 H285 0.960 . S
C278 C276 1.381 . S
C278 C279 1.394 . S
C278 H286 0.930 . S
C279 C278 1.394 . S
C279 C280 1.383 . S
C279 H287 0.929 . S
C280 C279 1.383 . S
C280 C281 1.377 . S
C281 H265 0.930 . S
C281 C280 1.377 . S
C281 C282 1.379 . S
C282 H266 0.931 . S
C282 C276 1.383 . S
C282 C281 1.379 . S
H283 C277 0.959 . S
H284 C277 0.961 . S
H285 C277 0.960 . S
H286 C278 0.930 . S
H287 C279 0.929 . S
H288 C296 0.929 . S
H289 C298 0.930 . S
H290 C300 0.930 . S
H291 C303 0.929 . S
H292 C306 0.930 . S
H293 C308 0.960 . S
H294 C308 0.960 . S
H295 C308 0.960 . S
C296 H288 0.929 . S
C296 C297 1.377 . S
C296 C298 1.384 . S
C297 C296 1.377 . S
C297 C303 1.390 . S
C298 H289 0.930 . S
C298 C296 1.384 . S
C298 C299 1.372 . S
C299 C298 1.372 . S
C299 C300 1.400 . S
C299 C304 1.490 . S
C300 H290 0.930 . S
C300 C299 1.400 . S
C300 C303 1.386 . S
H301 C317 0.930 . S
H302 C318 0.931 . S
C303 H291 0.929 . S
C303 C297 1.390 . S
C303 C300 1.386 . S
C304 C299 1.490 . S
C304 C306 1.395 . S
C304 C307 1.403 . S
H305 C311 0.930 . S
C306 H292 0.930 . S
C306 C304 1.395 . S
C306 C309 1.403 . S
C307 C304 1.403 . S
C307 C308 1.524 . S
C307 C311 1.400 . S
C308 H293 0.960 . S
C308 H294 0.960 . S
C308 H295 0.960 . S
C308 C307 1.524 . S
C309 C306 1.403 . S
C309 C310 1.392 . S
C309 C313 1.495 1_455 S
C310 C309 1.392 . S
C310 C311 1.385 . S
C310 C312 1.478 . S
C311 H305 0.930 . S
C311 C307 1.400 . S
C311 C310 1.385 . S
C312 C310 1.478 . S
C312 C314 1.381 . S
C312 C318 1.383 . S
C313 C309 1.495 1_655 S
C313 H319 0.959 . S
C313 H320 0.961 . S
C313 H321 0.960 . S
C314 C312 1.381 . S
C314 C315 1.394 . S
C314 H322 0.930 1_455 S
C315 C314 1.394 . S
C315 C316 1.383 . S
C315 H323 0.929 1_455 S
C316 C315 1.383 . S
C316 C317 1.377 . S
C317 H301 0.930 . S
C317 C316 1.377 . S
C317 C318 1.379 . S
C318 H302 0.931 . S
C318 C312 1.383 . S
C318 C317 1.379 . S
H319 C313 0.959 . S
H320 C313 0.961 . S
H321 C313 0.960 . S
H322 C314 0.930 1_655 S
H323 C315 0.929 1_655 S
H324 C332 0.929 1_545 S
H325 C334 0.930 1_545 S
H326 C336 0.929 1_556 S
H327 C339 0.929 . S
H328 C342 0.930 1_554 S
H329 C344 0.960 . S
H330 C344 0.960 . S
H331 C344 0.960 . S
C332 H324 0.929 1_565 S
C332 C333 1.377 . S
C332 C334 1.384 1_554 S
C333 C332 1.377 . S
C333 C339 1.390 . S
C334 H325 0.930 1_565 S
C334 C332 1.384 1_556 S
C334 C335 1.372 . S
C335 C334 1.372 . S
C335 C336 1.400 1_556 S
C335 C340 1.490 . S
C336 H326 0.929 1_554 S
C336 C335 1.400 1_554 S
C336 C339 1.386 . S
H337 C353 0.930 . S
H338 C354 0.931 . S
C339 H327 0.929 . S
C339 C333 1.390 . S
C339 C336 1.386 . S
C340 C335 1.490 . S
C340 C342 1.395 1_565 S
C340 C343 1.403 . S
H341 C347 0.930 . S
C342 H328 0.930 1_556 S
C342 C340 1.395 1_545 S
C342 C345 1.403 . S
C343 C340 1.403 . S
C343 C344 1.524 . S
C343 C347 1.400 . S
C344 H329 0.960 . S
C344 H330 0.960 . S
C344 H331 0.960 . S
C344 C343 1.524 . S
C345 C342 1.403 . S
C345 C346 1.392 1_545 S
C345 C349 1.495 . S
C346 C345 1.392 1_565 S
C346 C347 1.385 . S
C346 C348 1.487 . S
C347 H341 0.930 . S
C347 C343 1.400 . S
C347 C346 1.385 . S
C348 C346 1.487 . S
C348 C350 1.335 1_565 S
C348 C354 1.422 . S
C349 C345 1.495 . S
C349 H355 0.959 1_556 S
C349 H356 0.964 . S
C349 H357 0.960 . S
C350 C348 1.335 1_545 S
C350 C351 1.394 . S
C350 H358 0.930 . S
C351 C350 1.394 . S
C351 C352 1.383 . S
C351 H359 0.929 . S
C352 C351 1.383 . S
C352 C353 1.377 1_545 S
C353 H337 0.930 . S
C353 C352 1.377 1_565 S
C353 C354 1.379 . S
C354 H338 0.931 . S
C354 C348 1.422 . S
C354 C353 1.379 . S
H355 C349 0.959 1_554 S
H356 C349 0.964 . S
H357 C349 0.960 . S
H358 C350 0.930 . S
H359 C351 0.929 . S
H360 C368 0.929 . S
H361 C370 0.930 . S
H362 C372 0.930 . S
H363 C375 0.929 . S
H364 C378 0.930 . S
H365 C380 0.960 . S
H366 C380 0.960 . S
H367 C380 0.960 . S
C368 H360 0.929 . S
C368 C369 1.377 . S
C368 C370 1.384 . S
C369 C368 1.377 . S
C369 C375 1.390 . S
C370 H361 0.930 . S
C370 C368 1.384 . S
C370 C371 1.372 1_554 S
C371 C370 1.372 1_556 S
C371 C372 1.400 . S
C371 C376 1.490 . S
C372 H362 0.930 . S
C372 C371 1.400 . S
C372 C375 1.386 1_556 S
H373 C389 0.930 . S
H374 C390 0.931 . S
C375 H363 0.929 . S
C375 C369 1.390 . S
C375 C372 1.386 1_554 S
C376 C371 1.490 . S
C376 C378 1.395 . S
C376 C379 1.403 . S
H377 C383 0.930 . S
C378 H364 0.930 . S
C378 C376 1.395 . S
C378 C381 1.403 . S
C379 C376 1.403 . S
C379 C380 1.524 1_556 S
C379 C383 1.400 . S
C380 H365 0.960 . S
C380 H366 0.960 . S
C380 H367 0.960 . S
C380 C379 1.524 1_554 S
C381 C378 1.403 . S
C381 C382 1.392 . S
C381 C385 1.495 . S
C382 C381 1.392 . S
C382 C383 1.385 . S
C382 C384 1.478 . S
C383 H377 0.930 . S
C383 C379 1.400 . S
C383 C382 1.385 . S
C384 C382 1.478 . S
C384 C386 1.381 . S
C384 C390 1.383 . S
C385 C381 1.495 . S
C385 H391 0.959 . S
C385 H392 0.961 . S
C385 H393 0.960 . S
C386 C384 1.381 . S
C386 C387 1.394 . S
C386 H394 0.930 . S
C387 C386 1.394 . S
C387 C388 1.383 . S
C387 H395 0.929 . S
C388 C387 1.383 . S
C388 C389 1.377 . S
C389 H373 0.930 . S
C389 C388 1.377 . S
C389 C390 1.379 . S
C390 H374 0.931 . S
C390 C384 1.383 . S
C390 C389 1.379 . S
H391 C385 0.959 . S
H392 C385 0.961 . S
H393 C385 0.960 . S
H394 C386 0.930 . S
H395 C387 0.929 . S
H396 C404 0.929 . S
H397 C406 0.930 . S
H398 C408 0.930 . S
H399 C411 0.929 . S
H400 C414 0.930 1_554 S
H401 C416 0.960 . S
H402 C416 0.960 . S
H403 C416 0.960 . S
C404 H396 0.929 . S
C404 C405 1.377 . S
C404 C406 1.384 . S
C405 C404 1.377 . S
C405 C411 1.390 1_554 S
C406 H397 0.930 . S
C406 C404 1.384 . S
C406 C407 1.372 1_554 S
C407 C406 1.372 1_556 S
C407 C408 1.400 . S
C407 C412 1.490 . S
C408 H398 0.930 . S
C408 C407 1.400 . S
C408 C411 1.386 . S
H409 C425 0.930 . S
H410 C426 0.931 . S
C411 H399 0.929 . S
C411 C405 1.390 1_556 S
C411 C408 1.386 . S
C412 C407 1.490 . S
C412 C414 1.395 . S
C412 C415 1.403 . S
H413 C419 0.930 . S
C414 H400 0.930 1_556 S
C414 C412 1.395 . S
C414 C417 1.403 . S
C415 C412 1.403 . S
C415 C416 1.524 . S
C415 C419 1.400 . S
C416 H401 0.960 . S
C416 H402 0.960 . S
C416 H403 0.960 . S
C416 C415 1.524 . S
C417 C414 1.403 . S
C417 C418 1.392 . S
C417 C421 1.495 . S
C418 C417 1.392 . S
C418 C419 1.385 . S
C418 C420 1.478 . S
C419 H413 0.930 . S
C419 C415 1.400 . S
C419 C418 1.385 . S
C420 C418 1.478 . S
C420 C422 1.381 . S
C420 C426 1.383 . S
C421 C417 1.495 . S
C421 H427 0.959 1_556 S
C421 H428 0.961 . S
C421 H429 0.960 1_556 S
C422 C420 1.381 . S
C422 C423 1.394 . S
C422 H430 0.930 . S
C423 C422 1.394 . S
C423 C424 1.383 . S
C423 H431 0.929 . S
C424 C423 1.383 . S
C424 C425 1.377 . S
C425 H409 0.930 . S
C425 C424 1.377 . S
C425 C426 1.379 . S
C426 H410 0.931 . S
C426 C420 1.383 . S
C426 C425 1.379 . S
H427 C421 0.959 1_554 S
H428 C421 0.961 . S
H429 C421 0.960 1_554 S
H430 C422 0.930 . S
H431 C423 0.929 . S
H432 C440 0.929 1_455 S
H433 C442 0.930 1_455 S
H434 C444 0.930 . S
H435 C447 0.929 . S
H436 C450 0.925 1_454 S
H437 C452 0.960 . S
H438 C452 0.960 . S
H439 C452 0.960 . S
C440 H432 0.929 1_655 S
C440 C441 1.377 . S
C440 C442 1.384 . S
C441 C440 1.377 . S
C441 C447 1.390 . S
C442 H433 0.930 1_655 S
C442 C440 1.384 . S
C442 C443 1.372 1_554 S
C443 C442 1.372 1_556 S
C443 C444 1.400 . S
C443 C448 1.490 . S
C444 H434 0.930 . S
C444 C443 1.400 . S
C444 C447 1.386 1_556 S
H445 C461 0.930 . S
H446 C462 0.931 . S
C447 H435 0.929 . S
C447 C441 1.390 . S
C447 C444 1.386 1_554 S
C448 C443 1.490 . S
C448 C450 1.395 . S
C448 C451 1.403 . S
H449 C455 0.930 . S
C450 H436 0.925 1_656 S
C450 C448 1.395 . S
C450 C453 1.398 1_655 S
C451 C448 1.403 . S
C451 C452 1.524 . S
C451 C455 1.400 . S
C452 H437 0.960 . S
C452 H438 0.960 . S
C452 H439 0.960 . S
C452 C451 1.524 . S
C453 C450 1.398 1_455 S
C453 C454 1.384 1_455 S
C453 C457 1.509 1_556 S
C454 C453 1.384 1_655 S
C454 C455 1.385 . S
C454 C456 1.478 . S
C455 H449 0.930 . S
C455 C451 1.400 . S
C455 C454 1.385 . S
C456 C454 1.478 . S
C456 C458 1.381 1_655 S
C456 C462 1.383 . S
C457 C453 1.509 1_554 S
C457 H463 0.959 . S
C457 H464 0.961 . S
C457 H465 0.960 1_554 S
C458 C456 1.381 1_455 S
C458 C459 1.394 . S
C458 H466 0.930 . S
C459 C458 1.394 . S
C459 C460 1.383 . S
C459 H467 0.929 . S
C460 C459 1.383 . S
C460 C461 1.377 1_455 S
C461 H445 0.930 . S
C461 C460 1.377 1_655 S
C461 C462 1.379 . S
C462 H446 0.931 . S
C462 C456 1.383 . S
C462 C461 1.379 . S
H463 C457 0.959 . S
H464 C457 0.961 . S
H465 C457 0.960 1_556 S
H466 C458 0.930 . S
H467 C459 0.929 . S
H468 C476 0.929 . S
H469 C478 0.930 . S
H470 C480 0.930 . S
H471 C483 0.929 . S
H472 C486 0.930 . S
H473 C488 0.960 . S
H474 C488 0.960 . S
H475 C488 0.960 . S
C476 H468 0.929 . S
C476 C477 1.377 . S
C476 C478 1.384 . S
C477 C476 1.377 . S
C477 C483 1.390 . S
C478 H469 0.930 . S
C478 C476 1.384 . S
C478 C479 1.372 . S
C479 C478 1.372 . S
C479 C480 1.400 . S
C479 C484 1.490 . S
C480 H470 0.930 . S
C480 C479 1.400 . S
C480 C483 1.386 . S
H481 C497 0.930 . S
H482 C498 0.931 . S
C483 H471 0.929 . S
C483 C477 1.390 . S
C483 C480 1.386 . S
C484 C479 1.490 . S
C484 C486 1.395 . S
C484 C487 1.403 . S
H485 C491 0.930 . S
C486 H472 0.930 . S
C486 C484 1.395 . S
C486 C489 1.403 . S
C487 C484 1.403 . S
C487 C488 1.524 . S
C487 C491 1.400 . S
C488 H473 0.960 . S
C488 H474 0.960 . S
C488 H475 0.960 . S
C488 C487 1.524 . S
C489 C486 1.403 . S
C489 C490 1.392 . S
C489 C493 1.495 1_455 S
C490 C489 1.392 . S
C490 C491 1.385 . S
C490 C492 1.478 . S
C491 H485 0.930 . S
C491 C487 1.400 . S
C491 C490 1.385 . S
C492 C490 1.478 . S
C492 C494 1.381 1_455 S
C492 C498 1.383 . S
C493 C489 1.495 1_655 S
C493 H499 0.959 . S
C493 H500 0.961 . S
C493 H501 0.960 . S
C494 C492 1.381 1_655 S
C494 C495 1.394 . S
C494 H502 0.930 . S
C495 C494 1.394 . S
C495 C496 1.383 1_655 S
C495 H503 0.929 . S
C496 C495 1.383 1_455 S
C496 C497 1.377 . S
C497 H481 0.930 . S
C497 C496 1.377 . S
C497 C498 1.379 . S
C498 H482 0.931 . S
C498 C492 1.383 . S
C498 C497 1.379 . S
H499 C493 0.959 . S
H500 C493 0.961 . S
H501 C493 0.960 . S
H502 C494 0.930 . S
H503 C495 0.929 . S
H504 C512 0.929 . S
H505 C514 0.930 . S
H506 C516 0.930 . S
H507 C519 0.929 . S
H508 C522 0.930 . S
H509 C524 0.960 . S
H510 C524 0.960 . S
H511 C524 0.960 . S
C512 H504 0.929 . S
C512 C513 1.377 . S
C512 C514 1.384 . S
C513 C512 1.377 . S
C513 C519 1.390 . S
C514 H505 0.930 . S
C514 C512 1.384 . S
C514 C515 1.372 . S
C515 C514 1.372 . S
C515 C516 1.400 . S
C515 C520 1.490 . S
C516 H506 0.930 . S
C516 C515 1.400 . S
C516 C519 1.386 . S
H517 C533 0.930 . S
H518 C534 0.931 . S
C519 H507 0.929 . S
C519 C513 1.390 . S
C519 C516 1.386 . S
C520 C515 1.490 . S
C520 C522 1.395 . S
C520 C523 1.403 . S
H521 C527 0.930 . S
C522 H508 0.930 . S
C522 C520 1.395 . S
C522 C525 1.403 . S
C523 C520 1.403 . S
C523 C524 1.524 . S
C523 C527 1.400 . S
C524 H509 0.960 . S
C524 H510 0.960 . S
C524 H511 0.960 . S
C524 C523 1.524 . S
C525 C522 1.403 . S
C525 C526 1.392 . S
C525 C529 1.495 1_545 S
C526 C525 1.392 . S
C526 C527 1.385 . S
C526 C528 1.478 . S
C527 H521 0.930 . S
C527 C523 1.400 . S
C527 C526 1.385 . S
C528 C526 1.478 . S
C528 C530 1.381 . S
C528 C534 1.383 . S
C529 C525 1.495 1_565 S
C529 H535 0.959 . S
C529 H536 0.961 . S
C529 H537 0.960 . S
C530 C528 1.381 . S
C530 C531 1.394 . S
C530 H538 0.930 . S
C531 C530 1.394 . S
C531 C532 1.383 . S
C531 H539 0.929 . S
C532 C531 1.383 . S
C532 C533 1.377 . S
C533 H517 0.930 . S
C533 C532 1.377 . S
C533 C534 1.379 . S
C534 H518 0.931 . S
C534 C528 1.383 . S
C534 C533 1.379 . S
H535 C529 0.959 . S
H536 C529 0.961 . S
H537 C529 0.960 . S
H538 C530 0.930 . S
H539 C531 0.929 . S
H540 C548 0.929 . S
H541 C550 0.930 . S
H542 C552 0.930 . S
H543 C555 0.929 . S
H544 C558 0.930 . S
H545 C560 0.960 . S
H546 C560 0.960 . S
H547 C560 0.960 . S
C548 H540 0.929 . S
C548 C549 1.377 . S
C548 C550 1.384 . S
C549 C548 1.377 . S
C549 C555 1.390 . S
C550 H541 0.930 . S
C550 C548 1.384 . S
C550 C551 1.372 . S
C551 C550 1.372 . S
C551 C552 1.400 . S
C551 C556 1.490 . S
C552 H542 0.930 . S
C552 C551 1.400 . S
C552 C555 1.386 . S
H553 C569 0.930 . S
H554 C570 0.931 . S
C555 H543 0.929 . S
C555 C549 1.390 . S
C555 C552 1.386 . S
C556 C551 1.490 . S
C556 C558 1.395 . S
C556 C559 1.403 . S
H557 C563 0.930 . S
C558 H544 0.930 . S
C558 C556 1.395 . S
C558 C561 1.403 . S
C559 C556 1.403 . S
C559 C560 1.524 . S
C559 C563 1.400 . S
C560 H545 0.960 . S
C560 H546 0.960 . S
C560 H547 0.960 . S
C560 C559 1.524 . S
C561 C558 1.403 . S
C561 C562 1.392 . S
C561 C565 1.495 . S
C562 C561 1.392 . S
C562 C563 1.385 . S
C562 C564 1.478 . S
C563 H557 0.930 . S
C563 C559 1.400 . S
C563 C562 1.385 . S
C564 C562 1.478 . S
C564 C566 1.381 . S
C564 C570 1.383 . S
C565 C561 1.495 . S
C565 H571 0.959 . S
C565 H572 0.961 . S
C565 H573 0.960 . S
C566 C564 1.381 . S
C566 C567 1.394 . S
C566 H574 0.930 . S
C567 C566 1.394 . S
C567 C568 1.383 . S
C567 H575 0.929 . S
C568 C567 1.383 . S
C568 C569 1.377 . S
C569 H553 0.930 . S
C569 C568 1.377 . S
C569 C570 1.379 . S
C570 H554 0.931 . S
C570 C564 1.383 . S
C570 C569 1.379 . S
H571 C565 0.959 . S
H572 C565 0.961 . S
H573 C565 0.960 . S
H574 C566 0.930 . S
H575 C567 0.929 . S
H576 C584 0.929 . S
H577 C586 0.930 . S
H578 C588 0.930 . S
H579 C591 0.929 . S
H580 C594 0.930 . S
H581 C596 0.960 . S
H582 C596 0.960 . S
H583 C596 0.960 . S
C584 H576 0.929 . S
C584 C585 1.377 . S
C584 C586 1.384 . S
C585 C584 1.377 . S
C585 C591 1.390 . S
C586 H577 0.930 . S
C586 C584 1.384 . S
C586 C587 1.372 . S
C587 C586 1.372 . S
C587 C588 1.400 . S
C587 C592 1.490 . S
C588 H578 0.930 . S
C588 C587 1.400 . S
C588 C591 1.386 . S
H589 C605 0.930 . S
H590 C606 0.931 . S
C591 H579 0.929 . S
C591 C585 1.390 . S
C591 C588 1.386 . S
C592 C587 1.490 . S
C592 C594 1.395 . S
C592 C595 1.403 . S
H593 C599 0.930 . S
C594 H580 0.930 . S
C594 C592 1.395 . S
C594 C597 1.403 . S
C595 C592 1.403 . S
C595 C596 1.524 . S
C595 C599 1.400 . S
C596 H581 0.960 . S
C596 H582 0.960 . S
C596 H583 0.960 . S
C596 C595 1.524 . S
C597 C594 1.403 . S
C597 C598 1.392 . S
C597 C601 1.495 . S
C598 C597 1.392 . S
C598 C599 1.385 . S
C598 C600 1.478 . S
C599 H593 0.930 . S
C599 C595 1.400 . S
C599 C598 1.385 . S
C600 C598 1.478 . S
C600 C602 1.381 . S
C600 C606 1.383 . S
C601 C597 1.495 . S
C601 H607 0.959 . S
C601 H608 0.961 . S
C601 H609 0.960 . S
C602 C600 1.381 . S
C602 C603 1.394 . S
C602 H610 0.930 . S
C603 C602 1.394 . S
C603 C604 1.383 . S
C603 H611 0.929 . S
C604 C603 1.383 . S
C604 C605 1.377 . S
C605 H589 0.930 . S
C605 C604 1.377 . S
C605 C606 1.379 . S
C606 H590 0.931 . S
C606 C600 1.383 . S
C606 C605 1.379 . S
H607 C601 0.959 . S
H608 C601 0.961 . S
H609 C601 0.960 . S
H610 C602 0.930 . S
H611 C603 0.929 . S
H612 C620 0.929 . S
H613 C622 0.930 . S
H614 C624 0.930 . S
H615 C627 0.929 . S
H616 C630 0.930 . S
H617 C632 0.960 . S
H618 C632 0.960 . S
H619 C632 0.960 . S
C620 H612 0.929 . S
C620 C621 1.377 1_556 S
C620 C622 1.384 . S
C621 C620 1.377 1_554 S
C621 C627 1.390 . S
C622 H613 0.930 . S
C622 C620 1.384 . S
C622 C623 1.372 . S
C623 C622 1.372 . S
C623 C624 1.400 1_556 S
C623 C628 1.490 . S
C624 H614 0.930 . S
C624 C623 1.400 1_554 S
C624 C627 1.386 . S
H625 C641 0.930 1_655 S
H626 C642 0.931 . S
C627 H615 0.929 . S
C627 C621 1.390 . S
C627 C624 1.386 . S
C628 C623 1.490 . S
C628 C630 1.395 . S
C628 C631 1.380 1_655 S
H629 C635 0.930 . S
C630 H616 0.930 . S
C630 C628 1.395 . S
C630 C633 1.403 . S
C631 C628 1.380 1_455 S
C631 C632 1.542 1_556 S
C631 C635 1.406 . S
C632 H617 0.960 . S
C632 H618 0.960 . S
C632 H619 0.960 . S
C632 C631 1.542 1_554 S
C633 C630 1.403 . S
C633 C634 1.392 . S
C633 C637 1.495 . S
C634 C633 1.392 . S
C634 C635 1.385 1_655 S
C634 C636 1.488 . S
C635 H629 0.930 . S
C635 C631 1.406 . S
C635 C634 1.385 1_455 S
C636 C634 1.488 . S
C636 C638 1.360 1_655 S
C636 C642 1.393 . S
C637 C633 1.495 . S
C637 H643 0.959 . S
C637 H644 0.961 . S
C637 H645 0.960 . S
C638 C636 1.360 1_455 S
C638 C639 1.394 . S
C638 H646 0.930 . S
C639 C638 1.394 . S
C639 C640 1.383 . S
C639 H647 0.929 . S
C640 C639 1.383 . S
C640 C641 1.376 . S
C641 H625 0.930 1_455 S
C641 C640 1.376 . S
C641 C642 1.380 1_455 S
C642 H626 0.931 . S
C642 C636 1.393 . S
C642 C641 1.380 1_655 S
H643 C637 0.959 . S
H644 C637 0.961 . S
H645 C637 0.960 . S
H646 C638 0.930 . S
H647 C639 0.929 . S
H648 C656 0.929 . S
H649 C658 0.930 . S
H650 C660 0.930 1_545 S
H651 C663 0.929 1_556 S
H652 C666 0.930 . S
H653 C668 0.960 . S
H654 C668 0.960 . S
H655 C668 0.960 . S
C656 H648 0.929 . S
C656 C657 1.377 . S
C656 C658 1.384 . S
C657 C656 1.377 . S
C657 C663 1.390 . S
C658 H649 0.930 . S
C658 C656 1.384 . S
C658 C659 1.372 1_554 S
C659 C658 1.372 1_556 S
C659 C660 1.400 . S
C659 C664 1.490 . S
C660 H650 0.930 1_565 S
C660 C659 1.400 . S
C660 C663 1.386 1_556 S
H661 C677 0.930 . S
H662 C678 0.931 . S
C663 H651 0.929 1_554 S
C663 C657 1.390 . S
C663 C660 1.386 1_554 S
C664 C659 1.490 . S
C664 C666 1.395 1_556 S
C664 C667 1.403 . S
H665 C671 0.930 . S
C666 H652 0.930 . S
C666 C664 1.395 1_554 S
C666 C669 1.403 1_554 S
C667 C664 1.403 . S
C667 C668 1.524 . S
C667 C671 1.400 . S
C668 H653 0.960 . S
C668 H654 0.960 . S
C668 H655 0.960 . S
C668 C667 1.524 . S
C669 C666 1.403 1_556 S
C669 C670 1.392 . S
C669 C673 1.495 1_566 S
C670 C669 1.392 . S
C670 C671 1.385 . S
C670 C672 1.478 1_565 S
C671 H665 0.930 . S
C671 C667 1.400 . S
C671 C670 1.385 . S
C672 C670 1.478 1_545 S
C672 C674 1.381 1_545 S
C672 C678 1.383 . S
C673 C669 1.495 1_544 S
C673 H679 0.959 . S
C673 H680 0.961 . S
C673 H681 0.960 1_545 S
C674 C672 1.381 1_565 S
C674 C675 1.394 . S
C674 H682 0.930 . S
C675 C674 1.394 . S
C675 C676 1.383 1_565 S
C675 H683 0.929 . S
C676 C675 1.383 1_545 S
C676 C677 1.377 . S
C677 H661 0.930 . S
C677 C676 1.377 . S
C677 C678 1.379 . S
C678 H662 0.931 . S
C678 C672 1.383 . S
C678 C677 1.379 . S
H679 C673 0.959 . S
H680 C673 0.961 . S
H681 C673 0.960 1_565 S
H682 C674 0.930 . S
H683 C675 0.929 . S
H684 C692 0.929 . S
H685 C694 0.930 . S
H686 C696 0.930 . S
H687 C699 0.929 . S
H688 C702 0.930 1_554 S
H689 C704 0.960 . S
H690 C704 0.960 . S
H691 C704 0.960 . S
C692 H684 0.929 . S
C692 C693 1.377 . S
C692 C694 1.384 1_554 S
C693 C692 1.377 . S
C693 C699 1.390 . S
C694 H685 0.930 . S
C694 C692 1.384 1_556 S
C694 C695 1.372 . S
C695 C694 1.372 . S
C695 C696 1.400 1_556 S
C695 C700 1.490 . S
C696 H686 0.930 . S
C696 C695 1.400 1_554 S
C696 C699 1.386 . S
H697 C713 0.930 . S
H698 C714 0.931 . S
C699 H687 0.929 . S
C699 C693 1.390 . S
C699 C696 1.386 . S
C700 C695 1.490 . S
C700 C702 1.395 . S
C700 C703 1.403 . S
H701 C707 0.930 . S
C702 H688 0.930 1_556 S
C702 C700 1.395 . S
C702 C705 1.403 . S
C703 C700 1.403 . S
C703 C704 1.524 . S
C703 C707 1.400 . S
C704 H689 0.960 . S
C704 H690 0.960 . S
C704 H691 0.960 . S
C704 C703 1.524 . S
C705 C702 1.403 . S
C705 C706 1.392 . S
C705 C709 1.495 . S
C706 C705 1.392 . S
C706 C707 1.385 . S
C706 C708 1.478 . S
C707 H701 0.930 . S
C707 C703 1.400 . S
C707 C706 1.385 . S
C708 C706 1.478 . S
C708 C710 1.381 . S
C708 C714 1.383 . S
C709 C705 1.495 . S
C709 H715 0.959 1_556 S
C709 H716 0.961 . S
C709 H717 0.960 . S
C710 C708 1.381 . S
C710 C711 1.394 . S
C710 H718 0.930 . S
C711 C710 1.394 . S
C711 C712 1.383 . S
C711 H719 0.929 . S
C712 C711 1.383 . S
C712 C713 1.377 . S
C713 H697 0.930 . S
C713 C712 1.377 . S
C713 C714 1.379 . S
C714 H698 0.931 . S
C714 C708 1.383 . S
C714 C713 1.379 . S
H715 C709 0.959 1_554 S
H716 C709 0.961 . S
H717 C709 0.960 . S
H718 C710 0.930 . S
H719 C711 0.929 . S
H720 C728 0.929 . S
H721 C730 0.930 . S
H722 C732 0.934 . S
H723 C735 0.929 . S
H724 C738 0.930 . S
H725 C740 0.960 . S
H726 C740 0.960 . S
H727 C740 0.960 . S
C728 H720 0.929 . S
C728 C729 1.377 . S
C728 C730 1.384 . S
C729 C728 1.377 . S
C729 C735 1.390 . S
C730 H721 0.930 . S
C730 C728 1.384 . S
C730 C731 1.372 1_554 S
C731 C730 1.372 1_556 S
C731 C732 1.402 . S
C731 C736 1.490 . S
C732 H722 0.934 . S
C732 C731 1.402 . S
C732 C735 1.380 1_556 S
H733 C749 0.930 . S
H734 C750 0.931 . S
C735 H723 0.929 . S
C735 C729 1.390 . S
C735 C732 1.380 1_554 S
C736 C731 1.490 . S
C736 C738 1.395 . S
C736 C739 1.403 . S
H737 C743 0.930 . S
C738 H724 0.930 . S
C738 C736 1.395 . S
C738 C741 1.403 . S
C739 C736 1.403 . S
C739 C740 1.524 1_556 S
C739 C743 1.400 . S
C740 H725 0.960 . S
C740 H726 0.960 . S
C740 H727 0.960 . S
C740 C739 1.524 1_554 S
C741 C738 1.403 . S
C741 C742 1.392 . S
C741 C745 1.495 . S
C742 C741 1.392 . S
C742 C743 1.385 . S
C742 C744 1.478 . S
C743 H737 0.930 . S
C743 C739 1.400 . S
C743 C742 1.385 . S
C744 C742 1.478 . S
C744 C746 1.381 . S
C744 C750 1.383 . S
C745 C741 1.495 . S
C745 H751 0.959 . S
C745 H752 0.961 . S
C745 H753 0.960 . S
C746 C744 1.381 . S
C746 C747 1.394 . S
C746 H754 0.930 . S
C747 C746 1.394 . S
C747 C748 1.383 . S
C747 H755 0.929 . S
C748 C747 1.383 . S
C748 C749 1.377 . S
C749 H733 0.930 . S
C749 C748 1.377 . S
C749 C750 1.379 . S
C750 H734 0.931 . S
C750 C744 1.383 . S
C750 C749 1.379 . S
H751 C745 0.959 . S
H752 C745 0.961 . S
H753 C745 0.960 . S
H754 C746 0.930 . S
H755 C747 0.929 . S
H756 C764 0.929 . S
H757 C766 0.930 . S
H758 C768 0.930 . S
H759 C771 0.929 . S
H760 C774 0.930 . S
H761 C776 0.960 1_655 S
H762 C776 0.960 . S
H763 C776 0.961 . S
C764 H756 0.929 . S
C764 C765 1.377 . S
C764 C766 1.384 . S
C765 C764 1.377 . S
C765 C771 1.390 . S
C766 H757 0.930 . S
C766 C764 1.384 . S
C766 C767 1.372 . S
C767 C766 1.372 . S
C767 C768 1.400 . S
C767 C772 1.490 . S
C768 H758 0.930 . S
C768 C767 1.400 . S
C768 C771 1.386 . S
H769 C785 0.930 . S
H770 C786 0.931 1_554 S
C771 H759 0.929 . S
C771 C765 1.390 . S
C771 C768 1.386 . S
C772 C767 1.490 . S
C772 C774 1.395 . S
C772 C775 1.403 . S
H773 C779 0.930 1_556 S
C774 H760 0.930 . S
C774 C772 1.395 . S
C774 C777 1.403 . S
C775 C772 1.403 . S
C775 C776 1.524 . S
C775 C779 1.400 . S
C776 H761 0.960 1_455 S
C776 H762 0.960 . S
C776 H763 0.961 . S
C776 C775 1.524 . S
C777 C774 1.403 . S
C777 C778 1.392 1_554 S
C777 C781 1.495 1_554 S
C778 C777 1.392 1_556 S
C778 C779 1.385 1_556 S
C778 C780 1.478 . S
C779 H773 0.930 1_554 S
C779 C775 1.400 . S
C779 C778 1.385 1_554 S
C780 C778 1.478 . S
C780 C782 1.381 . S
C780 C786 1.383 . S
C781 C777 1.495 1_556 S
C781 H787 0.959 1_556 S
C781 H788 0.961 1_556 S
C781 H789 0.960 . S
C782 C780 1.381 . S
C782 C783 1.394 . S
C782 H790 0.930 . S
C783 C782 1.394 . S
C783 C784 1.383 . S
C783 H791 0.929 . S
C784 C783 1.383 . S
C784 C785 1.377 . S
C785 H769 0.930 . S
C785 C784 1.377 . S
C785 C786 1.379 . S
C786 H770 0.931 1_556 S
C786 C780 1.383 . S
C786 C785 1.379 . S
H787 C781 0.959 1_554 S
H788 C781 0.961 1_554 S
H789 C781 0.960 . S
H790 C782 0.930 . S
H791 C783 0.929 . S
H792 C800 0.929 . S
H793 C802 0.930 . S
H794 C804 0.930 . S
H795 C807 0.929 . S
H796 C810 0.930 . S
H797 C812 0.960 1_565 S
H798 C812 0.958 . S
H799 C812 0.960 . S
C800 H792 0.929 . S
C800 C801 1.377 . S
C800 C802 1.384 . S
C801 C800 1.377 . S
C801 C807 1.390 . S
C802 H793 0.930 . S
C802 C800 1.384 . S
C802 C803 1.372 . S
C803 C802 1.372 . S
C803 C804 1.400 . S
C803 C808 1.490 . S
C804 H794 0.930 . S
C804 C803 1.400 . S
C804 C807 1.386 . S
H805 C821 0.930 . S
H806 C822 0.931 1_554 S
C807 H795 0.929 . S
C807 C801 1.390 . S
C807 C804 1.386 . S
C808 C803 1.490 . S
C808 C810 1.395 . S
C808 C811 1.403 . S
H809 C815 0.930 . S
C810 H796 0.930 . S
C810 C808 1.395 . S
C810 C813 1.403 1_554 S
C811 C808 1.403 . S
C811 C812 1.524 . S
C811 C815 1.400 . S
C812 H797 0.960 1_545 S
C812 H798 0.958 . S
C812 H799 0.960 . S
C812 C811 1.524 . S
C813 C810 1.403 1_556 S
C813 C814 1.392 . S
C813 C817 1.495 . S
C814 C813 1.392 . S
C814 C815 1.385 1_556 S
C814 C816 1.478 . S
C815 H809 0.930 . S
C815 C811 1.400 . S
C815 C814 1.385 1_554 S
C816 C814 1.478 . S
C816 C818 1.381 . S
C816 C822 1.383 . S
C817 C813 1.495 . S
C817 H823 0.959 . S
C817 H824 0.961 . S
C817 H825 0.960 . S
C818 C816 1.381 . S
C818 C819 1.394 . S
C818 H826 0.930 . S
C819 C818 1.394 . S
C819 C820 1.383 . S
C819 H827 0.929 . S
C820 C819 1.383 . S
C820 C821 1.377 . S
C821 H805 0.930 . S
C821 C820 1.377 . S
C821 C822 1.379 . S
C822 H806 0.931 1_556 S
C822 C816 1.383 . S
C822 C821 1.379 . S
H823 C817 0.959 . S
H824 C817 0.961 . S
H825 C817 0.960 . S
H826 C818 0.930 . S
H827 C819 0.929 . S
H828 C836 0.929 . S
H829 C838 0.930 . S
H830 C840 0.930 . S
H831 C843 0.929 . S
H832 C846 0.930 . S
H833 C848 0.960 . S
H834 C848 0.960 . S
H835 C848 0.960 1_554 S
C836 H828 0.929 . S
C836 C837 1.377 . S
C836 C838 1.384 . S
C837 C836 1.377 . S
C837 C843 1.390 . S
C838 H829 0.930 . S
C838 C836 1.384 . S
C838 C839 1.372 . S
C839 C838 1.372 . S
C839 C840 1.400 . S
C839 C844 1.490 . S
C840 H830 0.930 . S
C840 C839 1.400 . S
C840 C843 1.386 . S
H841 C857 0.930 . S
H842 C858 0.931 . S
C843 H831 0.929 . S
C843 C837 1.390 . S
C843 C840 1.386 . S
C844 C839 1.490 . S
C844 C846 1.395 . S
C844 C847 1.403 . S
H845 C851 0.930 . S
C846 H832 0.930 . S
C846 C844 1.395 . S
C846 C849 1.403 . S
C847 C844 1.403 . S
C847 C848 1.524 1_554 S
C847 C851 1.400 1_554 S
C848 H833 0.960 . S
C848 H834 0.960 . S
C848 H835 0.960 1_556 S
C848 C847 1.524 1_556 S
C849 C846 1.403 . S
C849 C850 1.392 . S
C849 C853 1.495 . S
C850 C849 1.392 . S
C850 C851 1.385 1_554 S
C850 C852 1.478 1_554 S
C851 H845 0.930 . S
C851 C847 1.400 1_556 S
C851 C850 1.385 1_556 S
C852 C850 1.478 1_556 S
C852 C854 1.381 . S
C852 C858 1.383 . S
C853 C849 1.495 . S
C853 H859 0.959 . S
C853 H860 0.961 . S
C853 H861 0.960 . S
C854 C852 1.381 . S
C854 C855 1.394 . S
C854 H862 0.930 . S
C855 C854 1.394 . S
C855 C856 1.383 . S
C855 H863 0.929 . S
C856 C855 1.383 . S
C856 C857 1.377 . S
C857 H841 0.930 . S
C857 C856 1.377 . S
C857 C858 1.379 . S
C858 H842 0.931 . S
C858 C852 1.383 . S
C858 C857 1.379 . S
H859 C853 0.959 . S
H860 C853 0.961 . S
H861 C853 0.960 . S
H862 C854 0.930 . S
H863 C855 0.929 . S
H864 C872 0.929 . S
H865 C874 0.930 . S
H866 C876 0.930 . S
H867 C879 0.929 . S
H868 C882 0.930 . S
H869 C884 0.960 . S
H870 C884 0.960 . S
H871 C884 0.960 . S
C872 H864 0.929 . S
C872 C873 1.377 . S
C872 C874 1.384 . S
C873 C872 1.377 . S
C873 C879 1.390 . S
C874 H865 0.930 . S
C874 C872 1.384 . S
C874 C875 1.372 . S
C875 C874 1.372 . S
C875 C876 1.400 . S
C875 C880 1.490 . S
C876 H866 0.930 . S
C876 C875 1.400 . S
C876 C879 1.386 . S
H877 C893 0.930 . S
H878 C894 0.931 1_554 S
C879 H867 0.929 . S
C879 C873 1.390 . S
C879 C876 1.386 . S
C880 C875 1.490 . S
C880 C882 1.395 . S
C880 C883 1.403 . S
H881 C887 0.930 . S
C882 H868 0.930 . S
C882 C880 1.395 . S
C882 C885 1.403 1_554 S
C883 C880 1.403 . S
C883 C884 1.524 . S
C883 C887 1.400 . S
C884 H869 0.960 . S
C884 H870 0.960 . S
C884 H871 0.960 . S
C884 C883 1.524 . S
C885 C882 1.403 1_556 S
C885 C886 1.392 . S
C885 C889 1.495 . S
C886 C885 1.392 . S
C886 C887 1.385 1_556 S
C886 C888 1.478 . S
C887 H881 0.930 . S
C887 C883 1.400 . S
C887 C886 1.385 1_554 S
C888 C886 1.478 . S
C888 C890 1.381 . S
C888 C894 1.383 . S
C889 C885 1.495 . S
C889 H895 0.959 . S
C889 H896 0.961 . S
C889 H897 0.960 . S
C890 C888 1.381 . S
C890 C891 1.394 . S
C890 H898 0.930 . S
C891 C890 1.394 . S
C891 C892 1.383 . S
C891 H899 0.929 . S
C892 C891 1.383 . S
C892 C893 1.377 . S
C893 H877 0.930 . S
C893 C892 1.377 . S
C893 C894 1.379 . S
C894 H878 0.931 1_556 S
C894 C888 1.383 . S
C894 C893 1.379 . S
H895 C889 0.959 . S
H896 C889 0.961 . S
H897 C889 0.960 . S
H898 C890 0.930 . S
H899 C891 0.929 . S
H900 C908 0.929 1_455 S
H901 C910 0.930 1_455 S
H902 C912 0.930 . S
H903 C915 0.929 . S
H904 C918 0.930 . S
H905 C920 0.960 . S
H906 C920 0.960 . S
H907 C920 0.960 . S
C908 H900 0.929 1_655 S
C908 C909 1.377 . S
C908 C910 1.384 . S
C909 C908 1.377 . S
C909 C915 1.390 . S
C910 H901 0.930 1_655 S
C910 C908 1.384 . S
C910 C911 1.372 . S
C911 C910 1.372 . S
C911 C912 1.400 . S
C911 C916 1.490 . S
C912 H902 0.930 . S
C912 C911 1.400 . S
C912 C915 1.386 . S
H913 C929 0.930 . S
H914 C930 0.931 . S
C915 H903 0.929 . S
C915 C909 1.390 . S
C915 C912 1.386 . S
C916 C911 1.490 . S
C916 C918 1.395 . S
C916 C919 1.403 . S
H917 C923 0.930 . S
C918 H904 0.930 . S
C918 C916 1.395 . S
C918 C921 1.403 . S
C919 C916 1.403 . S
C919 C920 1.524 . S
C919 C923 1.400 . S
C920 H905 0.960 . S
C920 H906 0.960 . S
C920 H907 0.960 . S
C920 C919 1.524 . S
C921 C918 1.403 . S
C921 C922 1.392 . S
C921 C925 1.495 1_655 S
C922 C921 1.392 . S
C922 C923 1.385 . S
C922 C924 1.478 . S
C923 H917 0.930 . S
C923 C919 1.400 . S
C923 C922 1.385 . S
C924 C922 1.478 . S
C924 C926 1.381 1_655 S
C924 C930 1.383 . S
C925 C921 1.495 1_455 S
C925 H931 0.959 . S
C925 H932 0.961 1_455 S
C925 H933 0.960 . S
C926 C924 1.381 1_455 S
C926 C927 1.394 . S
C926 H934 0.930 . S
C927 C926 1.394 . S
C927 C928 1.383 1_455 S
C927 H935 0.929 . S
C928 C927 1.383 1_655 S
C928 C929 1.377 . S
C929 H913 0.930 . S
C929 C928 1.377 . S
C929 C930 1.379 . S
C930 H914 0.931 . S
C930 C924 1.383 . S
C930 C929 1.379 . S
H931 C925 0.959 . S
H932 C925 0.961 1_655 S
H933 C925 0.960 . S
H934 C926 0.930 . S
H935 C927 0.929 . S
H936 C944 0.929 . S
H937 C946 0.930 1_545 S
H938 C948 0.930 . S
H939 C951 0.929 . S
H940 C954 0.930 . S
H941 C956 0.960 . S
H942 C956 0.960 1_545 S
H943 C956 0.960 . S
C944 H936 0.929 . S
C944 C945 1.377 . S
C944 C946 1.384 . S
C945 C944 1.377 . S
C945 C951 1.390 . S
C946 H937 0.930 1_565 S
C946 C944 1.384 . S
C946 C947 1.372 . S
C947 C946 1.372 . S
C947 C948 1.400 . S
C947 C952 1.490 . S
C948 H938 0.930 . S
C948 C947 1.400 . S
C948 C951 1.386 . S
H949 C965 0.930 . S
H950 C966 0.931 . S
C951 H939 0.929 . S
C951 C945 1.390 . S
C951 C948 1.386 . S
C952 C947 1.490 . S
C952 C954 1.395 . S
C952 C955 1.403 . S
H953 C959 0.930 . S
C954 H940 0.930 . S
C954 C952 1.395 . S
C954 C957 1.403 . S
C955 C952 1.403 . S
C955 C956 1.524 . S
C955 C959 1.400 . S
C956 H941 0.960 . S
C956 H942 0.960 1_565 S
C956 H943 0.960 . S
C956 C955 1.524 . S
C957 C954 1.403 . S
C957 C958 1.392 . S
C957 C961 1.495 . S
C958 C957 1.392 . S
C958 C959 1.385 . S
C958 C960 1.478 . S
C959 H953 0.930 . S
C959 C955 1.400 . S
C959 C958 1.385 . S
C960 C958 1.478 . S
C960 C962 1.381 1_565 S
C960 C966 1.383 . S
C961 C957 1.495 . S
C961 H967 0.959 . S
C961 H968 0.961 . S
C961 H969 0.960 . S
C962 C960 1.381 1_545 S
C962 C963 1.394 . S
C962 H970 0.930 . S
C963 C962 1.394 . S
C963 C964 1.383 1_545 S
C963 H971 0.929 . S
C964 C963 1.383 1_565 S
C964 C965 1.377 . S
C965 H949 0.930 . S
C965 C964 1.377 . S
C965 C966 1.379 . S
C966 H950 0.931 . S
C966 C960 1.383 . S
C966 C965 1.379 . S
H967 C961 0.959 . S
H968 C961 0.961 . S
H969 C961 0.960 . S
H970 C962 0.930 . S
H971 C963 0.929 . S
H972 C980 0.929 . S
H973 C982 0.930 . S
H974 C984 0.930 . S
H975 C987 0.929 . S
H976 C990 0.930 . S
H977 C992 0.960 . S
H978 C992 0.960 . S
H979 C992 0.960 . S
C980 H972 0.929 . S
C980 C981 1.377 . S
C980 C982 1.384 . S
C981 C980 1.377 . S
C981 C987 1.390 . S
C982 H973 0.930 . S
C982 C980 1.384 . S
C982 C983 1.372 . S
C983 C982 1.372 . S
C983 C984 1.400 . S
C983 C988 1.490 . S
C984 H974 0.930 . S
C984 C983 1.400 . S
C984 C987 1.386 . S
H985 C1001 0.930 . S
H986 C1002 0.931 . S
C987 H975 0.929 . S
C987 C981 1.390 . S
C987 C984 1.386 . S
C988 C983 1.490 . S
C988 C990 1.395 . S
C988 C991 1.403 . S
H989 C995 0.930 . S
C990 H976 0.930 . S
C990 C988 1.395 . S
C990 C993 1.403 . S
C991 C988 1.403 . S
C991 C992 1.524 . S
C991 C995 1.400 . S
C992 H977 0.960 . S
C992 H978 0.960 . S
C992 H979 0.960 . S
C992 C991 1.524 . S
C993 C990 1.403 . S
C993 C994 1.392 . S
C993 C997 1.495 . S
C994 C993 1.392 . S
C994 C995 1.385 . S
C994 C996 1.478 . S
C995 H989 0.930 . S
C995 C991 1.400 . S
C995 C994 1.385 . S
C996 C994 1.478 . S
C996 C998 1.381 . S
C996 C1002 1.383 . S
C997 C993 1.495 . S
C997 H1003 0.959 . S
C997 H1004 0.961 . S
C997 H1005 0.960 . S
C998 C996 1.381 . S
C998 C999 1.394 . S
C998 H1006 0.930 . S
C999 C998 1.394 . S
C999 C1000 1.383 . S
C999 H1007 0.929 . S
C1000 C999 1.383 . S
C1000 C1001 1.377 . S
C1001 H985 0.930 . S
C1001 C1000 1.377 . S
C1001 C1002 1.379 . S
C1002 H986 0.931 . S
C1002 C996 1.383 . S
C1002 C1001 1.379 . S
H1003 C997 0.959 . S
H1004 C997 0.961 . S
H1005 C997 0.960 . S
H1006 C998 0.930 . S
H1007 C999 0.929 . S
H1008 C1016 0.929 . S
H1009 C1018 0.930 . S
H1010 C1020 0.930 . S
H1011 C1023 0.929 . S
H1012 C1026 0.930 . S
H1013 C1028 0.960 . S
H1014 C1028 0.960 . S
H1015 C1028 0.960 . S
C1016 H1008 0.929 . S
C1016 C1017 1.377 . S
C1016 C1018 1.384 . S
C1017 C1016 1.377 . S
C1017 C1023 1.390 . S
C1018 H1009 0.930 . S
C1018 C1016 1.384 . S
C1018 C1019 1.372 . S
C1019 C1018 1.372 . S
C1019 C1020 1.400 . S
C1019 C1024 1.490 . S
C1020 H1010 0.930 . S
C1020 C1019 1.400 . S
C1020 C1023 1.386 . S
H1021 C1037 0.930 . S
H1022 C1038 0.931 . S
C1023 H1011 0.929 . S
C1023 C1017 1.390 . S
C1023 C1020 1.386 . S
C1024 C1019 1.490 . S
C1024 C1026 1.395 . S
C1024 C1027 1.403 . S
H1025 C1031 0.930 . S
C1026 H1012 0.930 . S
C1026 C1024 1.395 . S
C1026 C1029 1.403 . S
C1027 C1024 1.403 . S
C1027 C1028 1.524 . S
C1027 C1031 1.400 . S
C1028 H1013 0.960 . S
C1028 H1014 0.960 . S
C1028 H1015 0.960 . S
C1028 C1027 1.524 . S
C1029 C1026 1.403 . S
C1029 C1030 1.392 . S
C1029 C1033 1.495 . S
C1030 C1029 1.392 . S
C1030 C1031 1.385 . S
C1030 C1032 1.478 . S
C1031 H1025 0.930 . S
C1031 C1027 1.400 . S
C1031 C1030 1.385 . S
C1032 C1030 1.478 . S
C1032 C1034 1.381 . S
C1032 C1038 1.383 . S
C1033 C1029 1.495 . S
C1033 H1039 0.959 . S
C1033 H1040 0.961 . S
C1033 H1041 0.960 . S
C1034 C1032 1.381 . S
C1034 C1035 1.394 . S
C1034 H1042 0.930 . S
C1035 C1034 1.394 . S
C1035 C1036 1.383 . S
C1035 H1043 0.929 . S
C1036 C1035 1.383 . S
C1036 C1037 1.377 . S
C1037 H1021 0.930 . S
C1037 C1036 1.377 . S
C1037 C1038 1.379 . S
C1038 H1022 0.931 . S
C1038 C1032 1.383 . S
C1038 C1037 1.379 . S
H1039 C1033 0.959 . S
H1040 C1033 0.961 . S
H1041 C1033 0.960 . S
H1042 C1034 0.930 . S
H1043 C1035 0.929 . S
C189 C76 1.554 . S
C208 C112 1.402 . S
C244 C130 1.447 . S
C225 C88 1.548 . S
C280 C151 1.395 . S
C261 C52 1.551 . S
C316 C175 1.379 . S
C297 C64 1.556 . S
C352 C109 1.300 . S
C333 C28 1.480 . S
C369 C40 1.489 . S
C388 C133 1.376 . S
C405 C4 1.484 . S
C424 C154 1.351 . S
C441 C16 1.481 . S
C460 C172 1.310 . S
C496 C114 0.463 . S
C477 C69 0.440 . S
C532 C132 0.381 . S
C513 C81 0.441 . S
C568 C153 0.428 . S
C549 C93 0.405 . S
C585 C57 0.409 . S
C604 C177 0.472 . S
C621 C21 0.500 . S
C640 C113 0.461 . S
C676 C131 0.513 . S
C657 C33 0.514 . S
C712 C152 0.530 . S
C693 C45 0.519 . S
C729 C9 0.487 . S
C748 C176 0.412 . S
C765 C66 1.613 . S
C784 C110 1.595 . S
C801 C78 1.611 . S
C820 C134 1.587 . S
C856 C155 1.586 . S
C837 C90 1.612 . S
C892 C173 1.588 . S
C873 C54 1.611 . S
C909 C18 1.452 . S
C928 C111 1.422 1_655 S
C964 C135 1.439 1_565 S
C945 C30 1.449 . S
C1000 C156 1.446 . S
C981 C42 1.444 . S
C1017 C6 1.450 . S
C1036 C174 1.390 . S
