# Generated by pormake.
# Topology ana-f, (3,3)-cn, num edge types: 1
# Building blocks:
#     Node 0, Type 0, BuildingBlock: OLANEW_clean_sbu_2, # of connection points: 3
#     Node 1, Type 0, BuildingBlock: OLANEW_clean_sbu_2, # of connection points: 3
#     Node 2, Type 0, BuildingBlock: OLANEW_clean_sbu_2, # of connection points: 3
#     Node 3, Type 0, BuildingBlock: OLANEW_clean_sbu_2, # of connection points: 3
#     Node 4, Type 0, BuildingBlock: OLANEW_clean_sbu_2, # of connection points: 3
#     Node 5, Type 0, BuildingBlock: OLANEW_clean_sbu_2, # of connection points: 3
#     Node 6, Type 0, BuildingBlock: OLANEW_clean_sbu_2, # of connection points: 3
#     Node 7, Type 0, BuildingBlock: OLANEW_clean_sbu_2, # of connection points: 3
#     Node 8, Type 0, BuildingBlock: OLANEW_clean_sbu_2, # of connection points: 3
#     Node 9, Type 0, BuildingBlock: OLANEW_clean_sbu_2, # of connection points: 3
#     Node 10, Type 0, BuildingBlock: OLANEW_clean_sbu_2, # of connection points: 3
#     Node 11, Type 0, BuildingBlock: OLANEW_clean_sbu_2, # of connection points: 3
#     Node 12, Type 0, BuildingBlock: OLANEW_clean_sbu_2, # of connection points: 3
#     Node 13, Type 0, BuildingBlock: OLANEW_clean_sbu_2, # of connection points: 3
#     Node 14, Type 0, BuildingBlock: OLANEW_clean_sbu_2, # of connection points: 3
#     Node 15, Type 0, BuildingBlock: OLANEW_clean_sbu_2, # of connection points: 3
#     Node 16, Type 0, BuildingBlock: OLANEW_clean_sbu_2, # of connection points: 3
#     Node 17, Type 0, BuildingBlock: OLANEW_clean_sbu_2, # of connection points: 3
#     Node 18, Type 0, BuildingBlock: OLANEW_clean_sbu_2, # of connection points: 3
#     Node 19, Type 0, BuildingBlock: OLANEW_clean_sbu_2, # of connection points: 3
#     Node 20, Type 0, BuildingBlock: OLANEW_clean_sbu_2, # of connection points: 3
#     Node 21, Type 0, BuildingBlock: OLANEW_clean_sbu_2, # of connection points: 3
#     Node 22, Type 0, BuildingBlock: OLANEW_clean_sbu_2, # of connection points: 3
#     Node 23, Type 0, BuildingBlock: OLANEW_clean_sbu_2, # of connection points: 3
#     Node 24, Type 0, BuildingBlock: OLANEW_clean_sbu_2, # of connection points: 3
#     Node 25, Type 0, BuildingBlock: OLANEW_clean_sbu_2, # of connection points: 3
#     Node 26, Type 0, BuildingBlock: OLANEW_clean_sbu_2, # of connection points: 3
#     Node 27, Type 0, BuildingBlock: OLANEW_clean_sbu_2, # of connection points: 3
#     Node 28, Type 0, BuildingBlock: OLANEW_clean_sbu_2, # of connection points: 3
#     Node 29, Type 0, BuildingBlock: OLANEW_clean_sbu_2, # of connection points: 3
#     Node 30, Type 0, BuildingBlock: OLANEW_clean_sbu_2, # of connection points: 3
#     Node 31, Type 0, BuildingBlock: OLANEW_clean_sbu_2, # of connection points: 3
#     Node 32, Type 0, BuildingBlock: OLANEW_clean_sbu_2, # of connection points: 3
#     Node 33, Type 0, BuildingBlock: OLANEW_clean_sbu_2, # of connection points: 3
#     Node 34, Type 0, BuildingBlock: OLANEW_clean_sbu_2, # of connection points: 3
#     Node 35, Type 0, BuildingBlock: OLANEW_clean_sbu_2, # of connection points: 3
#     Node 36, Type 0, BuildingBlock: OLANEW_clean_sbu_2, # of connection points: 3
#     Node 37, Type 0, BuildingBlock: OLANEW_clean_sbu_2, # of connection points: 3
#     Node 38, Type 0, BuildingBlock: OLANEW_clean_sbu_2, # of connection points: 3
#     Node 39, Type 0, BuildingBlock: OLANEW_clean_sbu_2, # of connection points: 3
#     Node 40, Type 0, BuildingBlock: OLANEW_clean_sbu_2, # of connection points: 3
#     Node 41, Type 0, BuildingBlock: OLANEW_clean_sbu_2, # of connection points: 3
#     Node 42, Type 0, BuildingBlock: OLANEW_clean_sbu_2, # of connection points: 3
#     Node 43, Type 0, BuildingBlock: OLANEW_clean_sbu_2, # of connection points: 3
#     Node 44, Type 0, BuildingBlock: OLANEW_clean_sbu_2, # of connection points: 3
#     Node 45, Type 0, BuildingBlock: OLANEW_clean_sbu_2, # of connection points: 3
#     Node 46, Type 0, BuildingBlock: OLANEW_clean_sbu_2, # of connection points: 3
#     Node 47, Type 0, BuildingBlock: OLANEW_clean_sbu_2, # of connection points: 3
#     Node 48, Type 0, BuildingBlock: OLANEW_clean_sbu_2, # of connection points: 3
#     Node 49, Type 0, BuildingBlock: OLANEW_clean_sbu_2, # of connection points: 3
#     Node 50, Type 0, BuildingBlock: OLANEW_clean_sbu_2, # of connection points: 3
#     Node 51, Type 0, BuildingBlock: OLANEW_clean_sbu_2, # of connection points: 3
#     Node 52, Type 0, BuildingBlock: OLANEW_clean_sbu_2, # of connection points: 3
#     Node 53, Type 0, BuildingBlock: OLANEW_clean_sbu_2, # of connection points: 3
#     Node 54, Type 0, BuildingBlock: OLANEW_clean_sbu_2, # of connection points: 3
#     Node 55, Type 0, BuildingBlock: OLANEW_clean_sbu_2, # of connection points: 3
#     Node 56, Type 0, BuildingBlock: OLANEW_clean_sbu_2, # of connection points: 3
#     Node 57, Type 0, BuildingBlock: OLANEW_clean_sbu_2, # of connection points: 3
#     Node 58, Type 0, BuildingBlock: OLANEW_clean_sbu_2, # of connection points: 3
#     Node 59, Type 0, BuildingBlock: OLANEW_clean_sbu_2, # of connection points: 3
#     Node 60, Type 0, BuildingBlock: OLANEW_clean_sbu_2, # of connection points: 3
#     Node 61, Type 0, BuildingBlock: OLANEW_clean_sbu_2, # of connection points: 3
#     Node 62, Type 0, BuildingBlock: OLANEW_clean_sbu_2, # of connection points: 3
#     Node 63, Type 0, BuildingBlock: OLANEW_clean_sbu_2, # of connection points: 3
#     Node 64, Type 0, BuildingBlock: OLANEW_clean_sbu_2, # of connection points: 3
#     Node 65, Type 0, BuildingBlock: OLANEW_clean_sbu_2, # of connection points: 3
#     Node 66, Type 0, BuildingBlock: OLANEW_clean_sbu_2, # of connection points: 3
#     Node 67, Type 0, BuildingBlock: OLANEW_clean_sbu_2, # of connection points: 3
#     Node 68, Type 0, BuildingBlock: OLANEW_clean_sbu_2, # of connection points: 3
#     Node 69, Type 0, BuildingBlock: OLANEW_clean_sbu_2, # of connection points: 3
#     Node 70, Type 0, BuildingBlock: OLANEW_clean_sbu_2, # of connection points: 3
#     Node 71, Type 0, BuildingBlock: OLANEW_clean_sbu_2, # of connection points: 3
#     Node 72, Type 0, BuildingBlock: OLANEW_clean_sbu_2, # of connection points: 3
#     Node 73, Type 0, BuildingBlock: OLANEW_clean_sbu_2, # of connection points: 3
#     Node 74, Type 0, BuildingBlock: OLANEW_clean_sbu_2, # of connection points: 3
#     Node 75, Type 0, BuildingBlock: OLANEW_clean_sbu_2, # of connection points: 3
#     Node 76, Type 0, BuildingBlock: OLANEW_clean_sbu_2, # of connection points: 3
#     Node 77, Type 0, BuildingBlock: OLANEW_clean_sbu_2, # of connection points: 3
#     Node 78, Type 0, BuildingBlock: OLANEW_clean_sbu_2, # of connection points: 3
#     Node 79, Type 0, BuildingBlock: OLANEW_clean_sbu_2, # of connection points: 3
#     Node 80, Type 0, BuildingBlock: OLANEW_clean_sbu_2, # of connection points: 3
#     Node 81, Type 0, BuildingBlock: OLANEW_clean_sbu_2, # of connection points: 3
#     Node 82, Type 0, BuildingBlock: OLANEW_clean_sbu_2, # of connection points: 3
#     Node 83, Type 0, BuildingBlock: OLANEW_clean_sbu_2, # of connection points: 3
#     Node 84, Type 0, BuildingBlock: OLANEW_clean_sbu_2, # of connection points: 3
#     Node 85, Type 0, BuildingBlock: OLANEW_clean_sbu_2, # of connection points: 3
#     Node 86, Type 0, BuildingBlock: OLANEW_clean_sbu_2, # of connection points: 3
#     Node 87, Type 0, BuildingBlock: OLANEW_clean_sbu_2, # of connection points: 3
#     Node 88, Type 0, BuildingBlock: OLANEW_clean_sbu_2, # of connection points: 3
#     Node 89, Type 0, BuildingBlock: OLANEW_clean_sbu_2, # of connection points: 3
#     Node 90, Type 0, BuildingBlock: OLANEW_clean_sbu_2, # of connection points: 3
#     Node 91, Type 0, BuildingBlock: OLANEW_clean_sbu_2, # of connection points: 3
#     Node 92, Type 0, BuildingBlock: OLANEW_clean_sbu_2, # of connection points: 3
#     Node 93, Type 0, BuildingBlock: OLANEW_clean_sbu_2, # of connection points: 3
#     Node 94, Type 0, BuildingBlock: OLANEW_clean_sbu_2, # of connection points: 3
#     Node 95, Type 0, BuildingBlock: OLANEW_clean_sbu_2, # of connection points: 3
#     Node 96, Type 1, BuildingBlock: KAKCAD_clean_linker_0, # of connection points: 3
#     Node 97, Type 1, BuildingBlock: KAKCAD_clean_linker_0, # of connection points: 3
#     Node 98, Type 1, BuildingBlock: KAKCAD_clean_linker_0, # of connection points: 3
#     Node 99, Type 1, BuildingBlock: KAKCAD_clean_linker_0, # of connection points: 3
#     Node 100, Type 1, BuildingBlock: KAKCAD_clean_linker_0, # of connection points: 3
#     Node 101, Type 1, BuildingBlock: KAKCAD_clean_linker_0, # of connection points: 3
#     Node 102, Type 1, BuildingBlock: KAKCAD_clean_linker_0, # of connection points: 3
#     Node 103, Type 1, BuildingBlock: KAKCAD_clean_linker_0, # of connection points: 3
#     Node 104, Type 1, BuildingBlock: KAKCAD_clean_linker_0, # of connection points: 3
#     Node 105, Type 1, BuildingBlock: KAKCAD_clean_linker_0, # of connection points: 3
#     Node 106, Type 1, BuildingBlock: KAKCAD_clean_linker_0, # of connection points: 3
#     Node 107, Type 1, BuildingBlock: KAKCAD_clean_linker_0, # of connection points: 3
#     Node 108, Type 1, BuildingBlock: KAKCAD_clean_linker_0, # of connection points: 3
#     Node 109, Type 1, BuildingBlock: KAKCAD_clean_linker_0, # of connection points: 3
#     Node 110, Type 1, BuildingBlock: KAKCAD_clean_linker_0, # of connection points: 3
#     Node 111, Type 1, BuildingBlock: KAKCAD_clean_linker_0, # of connection points: 3
#     Node 112, Type 1, BuildingBlock: KAKCAD_clean_linker_0, # of connection points: 3
#     Node 113, Type 1, BuildingBlock: KAKCAD_clean_linker_0, # of connection points: 3
#     Node 114, Type 1, BuildingBlock: KAKCAD_clean_linker_0, # of connection points: 3
#     Node 115, Type 1, BuildingBlock: KAKCAD_clean_linker_0, # of connection points: 3
#     Node 116, Type 1, BuildingBlock: KAKCAD_clean_linker_0, # of connection points: 3
#     Node 117, Type 1, BuildingBlock: KAKCAD_clean_linker_0, # of connection points: 3
#     Node 118, Type 1, BuildingBlock: KAKCAD_clean_linker_0, # of connection points: 3
#     Node 119, Type 1, BuildingBlock: KAKCAD_clean_linker_0, # of connection points: 3
#     Node 120, Type 1, BuildingBlock: KAKCAD_clean_linker_0, # of connection points: 3
#     Node 121, Type 1, BuildingBlock: KAKCAD_clean_linker_0, # of connection points: 3
#     Node 122, Type 1, BuildingBlock: KAKCAD_clean_linker_0, # of connection points: 3
#     Node 123, Type 1, BuildingBlock: KAKCAD_clean_linker_0, # of connection points: 3
#     Node 124, Type 1, BuildingBlock: KAKCAD_clean_linker_0, # of connection points: 3
#     Node 125, Type 1, BuildingBlock: KAKCAD_clean_linker_0, # of connection points: 3
#     Node 126, Type 1, BuildingBlock: KAKCAD_clean_linker_0, # of connection points: 3
#     Node 127, Type 1, BuildingBlock: KAKCAD_clean_linker_0, # of connection points: 3
#     Node 128, Type 1, BuildingBlock: KAKCAD_clean_linker_0, # of connection points: 3
#     Node 129, Type 1, BuildingBlock: KAKCAD_clean_linker_0, # of connection points: 3
#     Node 130, Type 1, BuildingBlock: KAKCAD_clean_linker_0, # of connection points: 3
#     Node 131, Type 1, BuildingBlock: KAKCAD_clean_linker_0, # of connection points: 3
#     Node 132, Type 1, BuildingBlock: KAKCAD_clean_linker_0, # of connection points: 3
#     Node 133, Type 1, BuildingBlock: KAKCAD_clean_linker_0, # of connection points: 3
#     Node 134, Type 1, BuildingBlock: KAKCAD_clean_linker_0, # of connection points: 3
#     Node 135, Type 1, BuildingBlock: KAKCAD_clean_linker_0, # of connection points: 3
#     Node 136, Type 1, BuildingBlock: KAKCAD_clean_linker_0, # of connection points: 3
#     Node 137, Type 1, BuildingBlock: KAKCAD_clean_linker_0, # of connection points: 3
#     Node 138, Type 1, BuildingBlock: KAKCAD_clean_linker_0, # of connection points: 3
#     Node 139, Type 1, BuildingBlock: KAKCAD_clean_linker_0, # of connection points: 3
#     Node 140, Type 1, BuildingBlock: KAKCAD_clean_linker_0, # of connection points: 3
#     Node 141, Type 1, BuildingBlock: KAKCAD_clean_linker_0, # of connection points: 3
#     Node 142, Type 1, BuildingBlock: KAKCAD_clean_linker_0, # of connection points: 3
#     Node 143, Type 1, BuildingBlock: KAKCAD_clean_linker_0, # of connection points: 3
#     Node 144, Type 1, BuildingBlock: KAKCAD_clean_linker_0, # of connection points: 3
#     Node 145, Type 1, BuildingBlock: KAKCAD_clean_linker_0, # of connection points: 3
#     Node 146, Type 1, BuildingBlock: KAKCAD_clean_linker_0, # of connection points: 3
#     Node 147, Type 1, BuildingBlock: KAKCAD_clean_linker_0, # of connection points: 3
#     Node 148, Type 1, BuildingBlock: KAKCAD_clean_linker_0, # of connection points: 3
#     Node 149, Type 1, BuildingBlock: KAKCAD_clean_linker_0, # of connection points: 3
#     Node 150, Type 1, BuildingBlock: KAKCAD_clean_linker_0, # of connection points: 3
#     Node 151, Type 1, BuildingBlock: KAKCAD_clean_linker_0, # of connection points: 3
#     Node 152, Type 1, BuildingBlock: KAKCAD_clean_linker_0, # of connection points: 3
#     Node 153, Type 1, BuildingBlock: KAKCAD_clean_linker_0, # of connection points: 3
#     Node 154, Type 1, BuildingBlock: KAKCAD_clean_linker_0, # of connection points: 3
#     Node 155, Type 1, BuildingBlock: KAKCAD_clean_linker_0, # of connection points: 3
#     Node 156, Type 1, BuildingBlock: KAKCAD_clean_linker_0, # of connection points: 3
#     Node 157, Type 1, BuildingBlock: KAKCAD_clean_linker_0, # of connection points: 3
#     Node 158, Type 1, BuildingBlock: KAKCAD_clean_linker_0, # of connection points: 3
#     Node 159, Type 1, BuildingBlock: KAKCAD_clean_linker_0, # of connection points: 3
#     Node 160, Type 1, BuildingBlock: KAKCAD_clean_linker_0, # of connection points: 3
#     Node 161, Type 1, BuildingBlock: KAKCAD_clean_linker_0, # of connection points: 3
#     Node 162, Type 1, BuildingBlock: KAKCAD_clean_linker_0, # of connection points: 3
#     Node 163, Type 1, BuildingBlock: KAKCAD_clean_linker_0, # of connection points: 3
#     Node 164, Type 1, BuildingBlock: KAKCAD_clean_linker_0, # of connection points: 3
#     Node 165, Type 1, BuildingBlock: KAKCAD_clean_linker_0, # of connection points: 3
#     Node 166, Type 1, BuildingBlock: KAKCAD_clean_linker_0, # of connection points: 3
#     Node 167, Type 1, BuildingBlock: KAKCAD_clean_linker_0, # of connection points: 3
#     Node 168, Type 1, BuildingBlock: KAKCAD_clean_linker_0, # of connection points: 3
#     Node 169, Type 1, BuildingBlock: KAKCAD_clean_linker_0, # of connection points: 3
#     Node 170, Type 1, BuildingBlock: KAKCAD_clean_linker_0, # of connection points: 3
#     Node 171, Type 1, BuildingBlock: KAKCAD_clean_linker_0, # of connection points: 3
#     Node 172, Type 1, BuildingBlock: KAKCAD_clean_linker_0, # of connection points: 3
#     Node 173, Type 1, BuildingBlock: KAKCAD_clean_linker_0, # of connection points: 3
#     Node 174, Type 1, BuildingBlock: KAKCAD_clean_linker_0, # of connection points: 3
#     Node 175, Type 1, BuildingBlock: KAKCAD_clean_linker_0, # of connection points: 3
#     Node 176, Type 1, BuildingBlock: KAKCAD_clean_linker_0, # of connection points: 3
#     Node 177, Type 1, BuildingBlock: KAKCAD_clean_linker_0, # of connection points: 3
#     Node 178, Type 1, BuildingBlock: KAKCAD_clean_linker_0, # of connection points: 3
#     Node 179, Type 1, BuildingBlock: KAKCAD_clean_linker_0, # of connection points: 3
#     Node 180, Type 1, BuildingBlock: KAKCAD_clean_linker_0, # of connection points: 3
#     Node 181, Type 1, BuildingBlock: KAKCAD_clean_linker_0, # of connection points: 3
#     Node 182, Type 1, BuildingBlock: KAKCAD_clean_linker_0, # of connection points: 3
#     Node 183, Type 1, BuildingBlock: KAKCAD_clean_linker_0, # of connection points: 3
#     Node 184, Type 1, BuildingBlock: KAKCAD_clean_linker_0, # of connection points: 3
#     Node 185, Type 1, BuildingBlock: KAKCAD_clean_linker_0, # of connection points: 3
#     Node 186, Type 1, BuildingBlock: KAKCAD_clean_linker_0, # of connection points: 3
#     Node 187, Type 1, BuildingBlock: KAKCAD_clean_linker_0, # of connection points: 3
#     Node 188, Type 1, BuildingBlock: KAKCAD_clean_linker_0, # of connection points: 3
#     Node 189, Type 1, BuildingBlock: KAKCAD_clean_linker_0, # of connection points: 3
#     Node 190, Type 1, BuildingBlock: KAKCAD_clean_linker_0, # of connection points: 3
#     Node 191, Type 1, BuildingBlock: KAKCAD_clean_linker_0, # of connection points: 3
#     Edge 192, Type (0, 1), None
#     Edge 193, Type (0, 1), None
#     Edge 194, Type (0, 1), None
#     Edge 195, Type (0, 1), None
#     Edge 196, Type (0, 1), None
#     Edge 197, Type (0, 1), None
#     Edge 198, Type (0, 1), None
#     Edge 199, Type (0, 1), None
#     Edge 200, Type (0, 1), None
#     Edge 201, Type (0, 1), None
#     Edge 202, Type (0, 1), None
#     Edge 203, Type (0, 1), None
#     Edge 204, Type (0, 1), None
#     Edge 205, Type (0, 1), None
#     Edge 206, Type (0, 1), None
#     Edge 207, Type (0, 1), None
#     Edge 208, Type (0, 1), None
#     Edge 209, Type (0, 1), None
#     Edge 210, Type (0, 1), None
#     Edge 211, Type (0, 1), None
#     Edge 212, Type (0, 1), None
#     Edge 213, Type (0, 1), None
#     Edge 214, Type (0, 1), None
#     Edge 215, Type (0, 1), None
#     Edge 216, Type (0, 1), None
#     Edge 217, Type (0, 1), None
#     Edge 218, Type (0, 1), None
#     Edge 219, Type (0, 1), None
#     Edge 220, Type (0, 1), None
#     Edge 221, Type (0, 1), None
#     Edge 222, Type (0, 1), None
#     Edge 223, Type (0, 1), None
#     Edge 224, Type (0, 1), None
#     Edge 225, Type (0, 1), None
#     Edge 226, Type (0, 1), None
#     Edge 227, Type (0, 1), None
#     Edge 228, Type (0, 1), None
#     Edge 229, Type (0, 1), None
#     Edge 230, Type (0, 1), None
#     Edge 231, Type (0, 1), None
#     Edge 232, Type (0, 1), None
#     Edge 233, Type (0, 1), None
#     Edge 234, Type (0, 1), None
#     Edge 235, Type (0, 1), None
#     Edge 236, Type (0, 1), None
#     Edge 237, Type (0, 1), None
#     Edge 238, Type (0, 1), None
#     Edge 239, Type (0, 1), None
#     Edge 240, Type (0, 1), None
#     Edge 241, Type (0, 1), None
#     Edge 242, Type (0, 1), None
#     Edge 243, Type (0, 1), None
#     Edge 244, Type (0, 1), None
#     Edge 245, Type (0, 1), None
#     Edge 246, Type (0, 1), None
#     Edge 247, Type (0, 1), None
#     Edge 248, Type (0, 1), None
#     Edge 249, Type (0, 1), None
#     Edge 250, Type (0, 1), None
#     Edge 251, Type (0, 1), None
#     Edge 252, Type (0, 1), None
#     Edge 253, Type (0, 1), None
#     Edge 254, Type (0, 1), None
#     Edge 255, Type (0, 1), None
#     Edge 256, Type (0, 1), None
#     Edge 257, Type (0, 1), None
#     Edge 258, Type (0, 1), None
#     Edge 259, Type (0, 1), None
#     Edge 260, Type (0, 1), None
#     Edge 261, Type (0, 1), None
#     Edge 262, Type (0, 1), None
#     Edge 263, Type (0, 1), None
#     Edge 264, Type (0, 1), None
#     Edge 265, Type (0, 1), None
#     Edge 266, Type (0, 1), None
#     Edge 267, Type (0, 1), None
#     Edge 268, Type (0, 1), None
#     Edge 269, Type (0, 1), None
#     Edge 270, Type (0, 1), None
#     Edge 271, Type (0, 1), None
#     Edge 272, Type (0, 1), None
#     Edge 273, Type (0, 1), None
#     Edge 274, Type (0, 1), None
#     Edge 275, Type (0, 1), None
#     Edge 276, Type (0, 1), None
#     Edge 277, Type (0, 1), None
#     Edge 278, Type (0, 1), None
#     Edge 279, Type (0, 1), None
#     Edge 280, Type (0, 1), None
#     Edge 281, Type (0, 1), None
#     Edge 282, Type (0, 1), None
#     Edge 283, Type (0, 1), None
#     Edge 284, Type (0, 1), None
#     Edge 285, Type (0, 1), None
#     Edge 286, Type (0, 1), None
#     Edge 287, Type (0, 1), None
#     Edge 288, Type (0, 1), None
#     Edge 289, Type (0, 1), None
#     Edge 290, Type (0, 1), None
#     Edge 291, Type (0, 1), None
#     Edge 292, Type (0, 1), None
#     Edge 293, Type (0, 1), None
#     Edge 294, Type (0, 1), None
#     Edge 295, Type (0, 1), None
#     Edge 296, Type (0, 1), None
#     Edge 297, Type (0, 1), None
#     Edge 298, Type (0, 1), None
#     Edge 299, Type (0, 1), None
#     Edge 300, Type (0, 1), None
#     Edge 301, Type (0, 1), None
#     Edge 302, Type (0, 1), None
#     Edge 303, Type (0, 1), None
#     Edge 304, Type (0, 1), None
#     Edge 305, Type (0, 1), None
#     Edge 306, Type (0, 1), None
#     Edge 307, Type (0, 1), None
#     Edge 308, Type (0, 1), None
#     Edge 309, Type (0, 1), None
#     Edge 310, Type (0, 1), None
#     Edge 311, Type (0, 1), None
#     Edge 312, Type (0, 1), None
#     Edge 313, Type (0, 1), None
#     Edge 314, Type (0, 1), None
#     Edge 315, Type (0, 1), None
#     Edge 316, Type (0, 1), None
#     Edge 317, Type (0, 1), None
#     Edge 318, Type (0, 1), None
#     Edge 319, Type (0, 1), None
#     Edge 320, Type (0, 1), None
#     Edge 321, Type (0, 1), None
#     Edge 322, Type (0, 1), None
#     Edge 323, Type (0, 1), None
#     Edge 324, Type (0, 1), None
#     Edge 325, Type (0, 1), None
#     Edge 326, Type (0, 1), None
#     Edge 327, Type (0, 1), None
#     Edge 328, Type (0, 1), None
#     Edge 329, Type (0, 1), None
#     Edge 330, Type (0, 1), None
#     Edge 331, Type (0, 1), None
#     Edge 332, Type (0, 1), None
#     Edge 333, Type (0, 1), None
#     Edge 334, Type (0, 1), None
#     Edge 335, Type (0, 1), None
#     Edge 336, Type (0, 1), None
#     Edge 337, Type (0, 1), None
#     Edge 338, Type (0, 1), None
#     Edge 339, Type (0, 1), None
#     Edge 340, Type (0, 1), None
#     Edge 341, Type (0, 1), None
#     Edge 342, Type (0, 1), None
#     Edge 343, Type (0, 1), None
#     Edge 344, Type (0, 1), None
#     Edge 345, Type (0, 1), None
#     Edge 346, Type (0, 1), None
#     Edge 347, Type (0, 1), None
#     Edge 348, Type (0, 1), None
#     Edge 349, Type (0, 1), None
#     Edge 350, Type (0, 1), None
#     Edge 351, Type (0, 1), None
#     Edge 352, Type (0, 1), None
#     Edge 353, Type (0, 1), None
#     Edge 354, Type (0, 1), None
#     Edge 355, Type (0, 1), None
#     Edge 356, Type (0, 1), None
#     Edge 357, Type (0, 1), None
#     Edge 358, Type (0, 1), None
#     Edge 359, Type (0, 1), None
#     Edge 360, Type (0, 1), None
#     Edge 361, Type (0, 1), None
#     Edge 362, Type (0, 1), None
#     Edge 363, Type (0, 1), None
#     Edge 364, Type (0, 1), None
#     Edge 365, Type (0, 1), None
#     Edge 366, Type (0, 1), None
#     Edge 367, Type (0, 1), None
#     Edge 368, Type (0, 1), None
#     Edge 369, Type (0, 1), None
#     Edge 370, Type (0, 1), None
#     Edge 371, Type (0, 1), None
#     Edge 372, Type (0, 1), None
#     Edge 373, Type (0, 1), None
#     Edge 374, Type (0, 1), None
#     Edge 375, Type (0, 1), None
#     Edge 376, Type (0, 1), None
#     Edge 377, Type (0, 1), None
#     Edge 378, Type (0, 1), None
#     Edge 379, Type (0, 1), None
#     Edge 380, Type (0, 1), None
#     Edge 381, Type (0, 1), None
#     Edge 382, Type (0, 1), None
#     Edge 383, Type (0, 1), None
#     Edge 384, Type (0, 1), None
#     Edge 385, Type (0, 1), None
#     Edge 386, Type (0, 1), None
#     Edge 387, Type (0, 1), None
#     Edge 388, Type (0, 1), None
#     Edge 389, Type (0, 1), None
#     Edge 390, Type (0, 1), None
#     Edge 391, Type (0, 1), None
#     Edge 392, Type (0, 1), None
#     Edge 393, Type (0, 1), None
#     Edge 394, Type (0, 1), None
#     Edge 395, Type (0, 1), None
#     Edge 396, Type (0, 1), None
#     Edge 397, Type (0, 1), None
#     Edge 398, Type (0, 1), None
#     Edge 399, Type (0, 1), None
#     Edge 400, Type (0, 1), None
#     Edge 401, Type (0, 1), None
#     Edge 402, Type (0, 1), None
#     Edge 403, Type (0, 1), None
#     Edge 404, Type (0, 1), None
#     Edge 405, Type (0, 1), None
#     Edge 406, Type (0, 1), None
#     Edge 407, Type (0, 1), None
#     Edge 408, Type (0, 1), None
#     Edge 409, Type (0, 1), None
#     Edge 410, Type (0, 1), None
#     Edge 411, Type (0, 1), None
#     Edge 412, Type (0, 1), None
#     Edge 413, Type (0, 1), None
#     Edge 414, Type (0, 1), None
#     Edge 415, Type (0, 1), None
#     Edge 416, Type (0, 1), None
#     Edge 417, Type (0, 1), None
#     Edge 418, Type (0, 1), None
#     Edge 419, Type (0, 1), None
#     Edge 420, Type (0, 1), None
#     Edge 421, Type (0, 1), None
#     Edge 422, Type (0, 1), None
#     Edge 423, Type (0, 1), None
#     Edge 424, Type (0, 1), None
#     Edge 425, Type (0, 1), None
#     Edge 426, Type (0, 1), None
#     Edge 427, Type (0, 1), None
#     Edge 428, Type (0, 1), None
#     Edge 429, Type (0, 1), None
#     Edge 430, Type (0, 1), None
#     Edge 431, Type (0, 1), None
#     Edge 432, Type (0, 1), None
#     Edge 433, Type (0, 1), None
#     Edge 434, Type (0, 1), None
#     Edge 435, Type (0, 1), None
#     Edge 436, Type (0, 1), None
#     Edge 437, Type (0, 1), None
#     Edge 438, Type (0, 1), None
#     Edge 439, Type (0, 1), None
#     Edge 440, Type (0, 1), None
#     Edge 441, Type (0, 1), None
#     Edge 442, Type (0, 1), None
#     Edge 443, Type (0, 1), None
#     Edge 444, Type (0, 1), None
#     Edge 445, Type (0, 1), None
#     Edge 446, Type (0, 1), None
#     Edge 447, Type (0, 1), None
#     Edge 448, Type (0, 1), None
#     Edge 449, Type (0, 1), None
#     Edge 450, Type (0, 1), None
#     Edge 451, Type (0, 1), None
#     Edge 452, Type (0, 1), None
#     Edge 453, Type (0, 1), None
#     Edge 454, Type (0, 1), None
#     Edge 455, Type (0, 1), None
#     Edge 456, Type (0, 1), None
#     Edge 457, Type (0, 1), None
#     Edge 458, Type (0, 1), None
#     Edge 459, Type (0, 1), None
#     Edge 460, Type (0, 1), None
#     Edge 461, Type (0, 1), None
#     Edge 462, Type (0, 1), None
#     Edge 463, Type (0, 1), None
#     Edge 464, Type (0, 1), None
#     Edge 465, Type (0, 1), None
#     Edge 466, Type (0, 1), None
#     Edge 467, Type (0, 1), None
#     Edge 468, Type (0, 1), None
#     Edge 469, Type (0, 1), None
#     Edge 470, Type (0, 1), None
#     Edge 471, Type (0, 1), None
#     Edge 472, Type (0, 1), None
#     Edge 473, Type (0, 1), None
#     Edge 474, Type (0, 1), None
#     Edge 475, Type (0, 1), None
#     Edge 476, Type (0, 1), None
#     Edge 477, Type (0, 1), None
#     Edge 478, Type (0, 1), None
#     Edge 479, Type (0, 1), None
# Relax obj value: 0.042
# Max RMSD: 0.088
# Mean RMSD: 0.067
data_MOF--net-ana-f--node1-OLANEW_clean_sbu_2--node2-KAKCAD_clean_linker_0--edge1-none
_symmetry_space_group_name_H-M    P1
_symmetry_Int_Tables_number       1
_symmetry_cell_setting            triclinic
loop_
_symmetry_equiv_pos_as_xyz
'x, y, z'
_cell_length_a     101.83876
_cell_length_b     101.80018
_cell_length_c     101.81641
_cell_angle_alpha  89.966174
_cell_angle_beta   90.000001
_cell_angle_gamma 90.000009
loop_
_atom_site_label
_atom_site_type_symbol
_atom_site_fract_x
_atom_site_fract_y
_atom_site_fract_z
_atom_type_partial_charge
O0 O 0.04255 0.21466 0.40307 0.0
Cd1 Cd 0.02082 0.21152 0.41272 0.0
O2 O 0.04935 0.19602 0.41139 0.0
Cd3 Cd 0.0638 0.18124 0.41732 0.0
O4 O 0.07855 0.16753 0.42467 0.0
C5 C 0.07763 0.16321 0.43635 0.0
O6 O 0.06768 0.16699 0.44365 0.0
C7 C 0.05171 0.20635 0.40473 0.0
C8 C 0.00486 0.1948 0.39812 0.0
O9 O 0.00611 0.20696 0.39508 0.0
O10 O 0.01126 0.19046 0.40805 0.0
O11 O 0.03855 0.79401 0.64663 0.0
Cd12 Cd 0.03894 0.77273 0.65762 0.0
O13 O 0.05335 0.8013 0.66045 0.0
Cd14 Cd 0.06655 0.81636 0.66818 0.0
O15 O 0.07877 0.83213 0.67596 0.0
C16 C 0.08287 0.83157 0.68774 0.0
O17 O 0.07974 0.82136 0.69499 0.0
C18 C 0.04561 0.80337 0.65086 0.0
C19 C 0.05753 0.75541 0.64755 0.0
O20 O 0.04621 0.75668 0.64221 0.0
O21 O 0.06018 0.7625 0.65761 0.0
O22 O 0.45539 0.78934 0.89848 0.0
Cd23 Cd 0.47737 0.78943 0.90796 0.0
O24 O 0.44949 0.80505 0.91197 0.0
Cd25 Cd 0.4352 0.81897 0.91987 0.0
O26 O 0.42013 0.83177 0.92811 0.0
C27 C 0.4209 0.83513 0.94009 0.0
O28 O 0.43087 0.83093 0.94714 0.0
C29 C 0.44657 0.79693 0.90296 0.0
C30 C 0.49406 0.80815 0.8971 0.0
O31 O 0.49238 0.79693 0.89165 0.0
O32 O 0.48766 0.81064 0.90765 0.0
O33 O 0.46825 0.2064 0.15137 0.0
Cd34 Cd 0.46871 0.22842 0.16087 0.0
O35 O 0.45149 0.2013 0.16388 0.0
Cd36 Cd 0.43635 0.18789 0.17112 0.0
O37 O 0.42232 0.17368 0.1789 0.0
C38 C 0.41929 0.17409 0.19099 0.0
O39 O 0.42458 0.1832 0.19845 0.0
C40 C 0.46002 0.19794 0.1554 0.0
C41 C 0.44972 0.24557 0.1512 0.0
O42 O 0.46069 0.24394 0.14525 0.0
O43 O 0.44759 0.23888 0.16165 0.0
O44 O 0.04255 0.78487 0.09644 0.0
Cd45 Cd 0.02082 0.78801 0.08679 0.0
O46 O 0.04935 0.8035 0.08813 0.0
Cd47 Cd 0.0638 0.81828 0.0822 0.0
O48 O 0.07855 0.832 0.07484 0.0
C49 C 0.07763 0.83631 0.06316 0.0
O50 O 0.06768 0.83253 0.05586 0.0
C51 C 0.05171 0.79318 0.09478 0.0
C52 C 0.00486 0.80473 0.1014 0.0
O53 O 0.00611 0.79257 0.10443 0.0
O54 O 0.01126 0.80907 0.09146 0.0
O55 O 0.46825 0.79313 0.34815 0.0
Cd56 Cd 0.46871 0.77111 0.33864 0.0
O57 O 0.45149 0.79822 0.33564 0.0
Cd58 Cd 0.43635 0.81163 0.32839 0.0
O59 O 0.42232 0.82585 0.32062 0.0
C60 C 0.41929 0.82544 0.30852 0.0
O61 O 0.42458 0.81633 0.30107 0.0
C62 C 0.46002 0.80158 0.34412 0.0
C63 C 0.44972 0.75395 0.34832 0.0
O64 O 0.46069 0.75559 0.35427 0.0
O65 O 0.44759 0.76065 0.33787 0.0
O66 O 0.45539 0.21018 0.60104 0.0
Cd67 Cd 0.47737 0.21009 0.59155 0.0
O68 O 0.44949 0.19448 0.58754 0.0
Cd69 Cd 0.4352 0.18056 0.57964 0.0
O70 O 0.42013 0.16776 0.57141 0.0
C71 C 0.4209 0.16439 0.55942 0.0
O72 O 0.43087 0.1686 0.55238 0.0
C73 C 0.44657 0.2026 0.59656 0.0
C74 C 0.49406 0.19137 0.60241 0.0
O75 O 0.49238 0.20259 0.60786 0.0
O76 O 0.48766 0.18889 0.59186 0.0
O77 O 0.03855 0.20552 0.85289 0.0
Cd78 Cd 0.03894 0.2268 0.84189 0.0
O79 O 0.05335 0.19823 0.83907 0.0
Cd80 Cd 0.06655 0.18317 0.83134 0.0
O81 O 0.07877 0.1674 0.82355 0.0
C82 C 0.08287 0.16795 0.81178 0.0
O83 O 0.07974 0.17817 0.80453 0.0
C84 C 0.04561 0.19616 0.84865 0.0
C85 C 0.05753 0.24411 0.85196 0.0
O86 O 0.04621 0.24285 0.85731 0.0
O87 O 0.06018 0.23702 0.84191 0.0
O88 O 0.39245 0.04696 0.21338 0.0
Cd89 Cd 0.40077 0.02447 0.21347 0.0
O90 O 0.40607 0.05205 0.19749 0.0
Cd91 Cd 0.41485 0.06577 0.18348 0.0
O92 O 0.42413 0.08044 0.1709 0.0
C93 C 0.43629 0.07942 0.16832 0.0
O94 O 0.44289 0.06943 0.17316 0.0
C95 C 0.39738 0.05552 0.20576 0.0
C96 C 0.39066 0.00804 0.1941 0.0
O97 O 0.38459 0.00979 0.20499 0.0
O98 O 0.40139 0.01435 0.1922 0.0
O99 O 0.20552 0.14791 0.46153 0.0
Cd100 Cd 0.22726 0.15795 0.46159 0.0
O101 O 0.19921 0.16177 0.4463 0.0
Cd102 Cd 0.18477 0.1698 0.4326 0.0
O103 O 0.16951 0.17824 0.42018 0.0
C104 C 0.17008 0.19035 0.41722 0.0
O105 O 0.17995 0.1974 0.42161 0.0
C106 C 0.19656 0.15239 0.45412 0.0
C107 C 0.24413 0.14756 0.44278 0.0
O108 O 0.24256 0.14197 0.45395 0.0
O109 O 0.23757 0.15804 0.44039 0.0
O110 O 0.08955 0.95957 0.71022 0.0
Cd111 Cd 0.07899 0.98083 0.7069 0.0
O112 O 0.08167 0.95241 0.69155 0.0
Cd113 Cd 0.0766 0.93782 0.67661 0.0
O114 O 0.07024 0.9226 0.66294 0.0
C115 C 0.05866 0.92299 0.6583 0.0
O116 O 0.05088 0.93271 0.6617 0.0
C117 C 0.08844 0.95038 0.70187 0.0
C118 C 0.0938 0.99695 0.69055 0.0
O119 O 0.09647 0.99581 0.7028 0.0
O120 O 0.08404 0.99047 0.68596 0.0
O121 O 0.29298 0.84974 0.96727 0.0
Cd122 Cd 0.27134 0.83938 0.96726 0.0
O123 O 0.29906 0.83699 0.95103 0.0
Cd124 Cd 0.31313 0.82982 0.93646 0.0
O125 O 0.32785 0.82265 0.92262 0.0
C126 C 0.3273 0.8109 0.91845 0.0
O127 O 0.31771 0.80326 0.92249 0.0
C128 C 0.30184 0.8458 0.95943 0.0
C129 C 0.25383 0.84906 0.94859 0.0
O130 O 0.25521 0.85466 0.95978 0.0
O131 O 0.26096 0.83899 0.94609 0.0
O132 O 0.39245 0.95257 0.28613 0.0
Cd133 Cd 0.40077 0.97505 0.28605 0.0
O134 O 0.40607 0.94747 0.30202 0.0
Cd135 Cd 0.41485 0.93376 0.31604 0.0
O136 O 0.42413 0.91908 0.32861 0.0
C137 C 0.43629 0.92011 0.3312 0.0
O138 O 0.44289 0.93009 0.32635 0.0
C139 C 0.39738 0.94401 0.29375 0.0
C140 C 0.39066 0.99149 0.30542 0.0
O141 O 0.38459 0.98974 0.29453 0.0
O142 O 0.40139 0.98518 0.30731 0.0
O143 O 0.29298 0.14979 0.53224 0.0
Cd144 Cd 0.27134 0.16015 0.53226 0.0
O145 O 0.29906 0.16254 0.54849 0.0
Cd146 Cd 0.31313 0.1697 0.56306 0.0
O147 O 0.32785 0.17688 0.57689 0.0
C148 C 0.3273 0.18863 0.58106 0.0
O149 O 0.31771 0.19626 0.57702 0.0
C150 C 0.30184 0.15373 0.54009 0.0
C151 C 0.25383 0.15047 0.55092 0.0
O152 O 0.25521 0.14487 0.53973 0.0
O153 O 0.26096 0.16054 0.55343 0.0
O154 O 0.08955 0.03996 0.78929 0.0
Cd155 Cd 0.07899 0.0187 0.79261 0.0
O156 O 0.08167 0.04712 0.80796 0.0
Cd157 Cd 0.0766 0.06171 0.8229 0.0
O158 O 0.07024 0.07693 0.83658 0.0
C159 C 0.05866 0.07654 0.84122 0.0
O160 O 0.05088 0.06682 0.83781 0.0
C161 C 0.08844 0.04915 0.79765 0.0
C162 C 0.0938 0.00257 0.80896 0.0
O163 O 0.09647 0.00371 0.79672 0.0
O164 O 0.08404 0.00905 0.81356 0.0
O165 O 0.20552 0.85162 0.03798 0.0
Cd166 Cd 0.22726 0.84158 0.03793 0.0
O167 O 0.19921 0.83776 0.05322 0.0
Cd168 Cd 0.18477 0.82973 0.06692 0.0
O169 O 0.16951 0.82129 0.07934 0.0
C170 C 0.17008 0.80918 0.0823 0.0
O171 O 0.17995 0.80213 0.0779 0.0
C172 C 0.19656 0.84713 0.04539 0.0
C173 C 0.24413 0.85197 0.05674 0.0
O174 O 0.24256 0.85755 0.04556 0.0
O175 O 0.23757 0.84149 0.05913 0.0
O176 O 0.21211 0.39708 0.04122 0.0
Cd177 Cd 0.21215 0.4068 0.01934 0.0
O178 O 0.19634 0.4105 0.04708 0.0
Cd179 Cd 0.18221 0.41829 0.06122 0.0
O180 O 0.16919 0.4265 0.07611 0.0
C181 C 0.16623 0.43861 0.0756 0.0
O182 O 0.17098 0.44582 0.066 0.0
C183 C 0.20443 0.40146 0.05001 0.0
C184 C 0.19303 0.39656 0.00272 0.0
O185 O 0.20412 0.39081 0.00427 0.0
O186 O 0.19086 0.40713 0.00921 0.0
O187 O 0.71211 0.10244 0.95829 0.0
Cd188 Cd 0.71215 0.09273 0.98018 0.0
O189 O 0.69634 0.08902 0.95243 0.0
Cd190 Cd 0.68221 0.08123 0.93829 0.0
O191 O 0.66919 0.07303 0.92341 0.0
C192 C 0.66623 0.06092 0.92392 0.0
O193 O 0.67098 0.05371 0.93352 0.0
C194 C 0.70443 0.09807 0.94951 0.0
C195 C 0.69303 0.10296 0.99679 0.0
O196 O 0.70412 0.10872 0.99525 0.0
O197 O 0.69086 0.09239 0.99031 0.0
O198 O 0.14821 0.46228 0.20384 0.0
Cd199 Cd 0.15749 0.46154 0.22591 0.0
O200 O 0.16103 0.44607 0.1978 0.0
Cd201 Cd 0.16862 0.43183 0.18362 0.0
O202 O 0.1763 0.41844 0.16874 0.0
C203 C 0.18812 0.4145 0.1694 0.0
O204 O 0.19552 0.4185 0.17919 0.0
C205 C 0.15242 0.45465 0.19492 0.0
C206 C 0.14642 0.44271 0.24236 0.0
O207 O 0.14109 0.45402 0.24085 0.0
O208 O 0.1569 0.44017 0.23587 0.0
O209 O 0.78817 0.90008 0.45193 0.0
Cd210 Cd 0.79012 0.90924 0.47402 0.0
O211 O 0.80396 0.91297 0.445 0.0
Cd212 Cd 0.81745 0.92052 0.43004 0.0
O213 O 0.83014 0.9283 0.41459 0.0
C214 C 0.83456 0.93993 0.41548 0.0
O215 O 0.83146 0.94701 0.42582 0.0
C216 C 0.79529 0.90431 0.44261 0.0
C217 C 0.8067 0.895 0.49048 0.0
O218 O 0.79473 0.89156 0.48871 0.0
O219 O 0.81094 0.90514 0.48432 0.0
O220 O 0.84488 0.03248 0.211 0.0
Cd221 Cd 0.83303 0.03376 0.23181 0.0
O222 O 0.83579 0.05083 0.20447 0.0
Cd223 Cd 0.82983 0.06579 0.19025 0.0
O224 O 0.82219 0.0792 0.1754 0.0
C225 C 0.8102 0.08258 0.17601 0.0
O226 O 0.80293 0.07808 0.18567 0.0
C227 C 0.84333 0.04114 0.20215 0.0
C228 C 0.84312 0.0523 0.24919 0.0
O229 O 0.84807 0.04076 0.24833 0.0
O230 O 0.83344 0.05519 0.24168 0.0
O231 O 0.28817 0.59945 0.54758 0.0
Cd232 Cd 0.29012 0.59029 0.52549 0.0
O233 O 0.30396 0.58655 0.55452 0.0
Cd234 Cd 0.31745 0.579 0.56947 0.0
O235 O 0.33014 0.57123 0.58493 0.0
C236 C 0.33456 0.55959 0.58403 0.0
O237 O 0.33146 0.55251 0.5737 0.0
C238 C 0.29529 0.59522 0.55691 0.0
C239 C 0.3067 0.60453 0.50904 0.0
O240 O 0.29473 0.60797 0.5108 0.0
O241 O 0.31094 0.59439 0.51519 0.0
O242 O 0.14821 0.53725 0.29568 0.0
Cd243 Cd 0.15749 0.53798 0.2736 0.0
O244 O 0.16103 0.55346 0.30171 0.0
Cd245 Cd 0.16862 0.5677 0.31589 0.0
O246 O 0.1763 0.58109 0.33077 0.0
C247 C 0.18812 0.58503 0.33012 0.0
O248 O 0.19552 0.58103 0.32033 0.0
C249 C 0.15242 0.54488 0.30459 0.0
C250 C 0.14642 0.55682 0.25715 0.0
O251 O 0.14109 0.54551 0.25867 0.0
O252 O 0.1569 0.55935 0.26364 0.0
O253 O 0.34488 0.46705 0.78852 0.0
Cd254 Cd 0.33304 0.46577 0.7677 0.0
O255 O 0.33579 0.44869 0.79504 0.0
Cd256 Cd 0.32983 0.43374 0.80926 0.0
O257 O 0.32219 0.42033 0.82411 0.0
C258 C 0.3102 0.41694 0.8235 0.0
O259 O 0.30293 0.42145 0.81384 0.0
C260 C 0.34333 0.45838 0.79737 0.0
C261 C 0.34312 0.44723 0.75032 0.0
O262 O 0.34807 0.45877 0.75119 0.0
O263 O 0.33344 0.44434 0.75783 0.0
O264 O 0.94219 0.8472 0.5811 0.0
Cd265 Cd 0.95311 0.86401 0.56794 0.0
O266 O 0.93074 0.86186 0.59202 0.0
Cd267 Cd 0.93174 0.87562 0.5756 0.0
O268 O 0.9162 0.87762 0.56093 0.0
C269 C 0.91232 0.86675 0.55617 0.0
O270 O 0.91879 0.85602 0.55928 0.0
C271 C 0.93477 0.85011 0.5907 0.0
C272 C 0.9772 0.86836 0.58024 0.0
O273 O 0.9671 0.87529 0.58316 0.0
O274 O 0.97603 0.85978 0.57112 0.0
O275 O 0.8986 0.19514 0.33152 0.0
Cd276 Cd 0.87933 0.20618 0.32246 0.0
O277 O 0.90417 0.18419 0.31373 0.0
Cd278 Cd 0.88567 0.18716 0.30335 0.0
O279 O 0.87399 0.17037 0.29693 0.0
C280 C 0.86828 0.16392 0.30596 0.0
O281 O 0.86828 0.16875 0.31792 0.0
C282 C 0.90656 0.18767 0.32547 0.0
C283 C 0.87632 0.22956 0.33646 0.0
O284 O 0.87031 0.21908 0.34 0.0
O285 O 0.88338 0.22908 0.32605 0.0
O286 O 0.56648 0.13706 0.09553 0.0
Cd287 Cd 0.55374 0.11986 0.08475 0.0
O288 O 0.56113 0.15128 0.08021 0.0
Cd289 Cd 0.55949 0.13532 0.06599 0.0
O290 O 0.57648 0.12666 0.05615 0.0
C291 C 0.58438 0.12037 0.0635 0.0
O292 O 0.58095 0.11814 0.07574 0.0
C293 C 0.56595 0.14887 0.09148 0.0
C294 C 0.5289 0.12046 0.0963 0.0
O295 O 0.5379 0.11282 0.10066 0.0
O296 O 0.53149 0.12747 0.08617 0.0
O297 O 0.60988 0.81607 0.84037 0.0
Cd298 Cd 0.62652 0.80297 0.82917 0.0
O299 O 0.59517 0.8113 0.82533 0.0
Cd300 Cd 0.61079 0.80956 0.81074 0.0
O301 O 0.61962 0.82654 0.80099 0.0
C302 C 0.62618 0.8342 0.80834 0.0
O303 O 0.62852 0.83055 0.82049 0.0
C304 C 0.59798 0.81589 0.8366 0.0
C305 C 0.62641 0.77854 0.84163 0.0
O306 O 0.6342 0.78771 0.84534 0.0
O307 O 0.61903 0.78076 0.83168 0.0
O308 O 0.94219 0.15233 0.91842 0.0
Cd309 Cd 0.95311 0.13552 0.93157 0.0
O310 O 0.93074 0.13767 0.9075 0.0
Cd311 Cd 0.93174 0.12391 0.92391 0.0
O312 O 0.9162 0.1219 0.93858 0.0
C313 C 0.91232 0.13277 0.94335 0.0
O314 O 0.91879 0.14351 0.94023 0.0
C315 C 0.93477 0.14942 0.90881 0.0
C316 C 0.9772 0.13117 0.91927 0.0
O317 O 0.9671 0.12424 0.91636 0.0
O318 O 0.97603 0.13975 0.9284 0.0
O319 O 0.60988 0.18346 0.65914 0.0
Cd320 Cd 0.62652 0.19656 0.67035 0.0
O321 O 0.59517 0.18823 0.67418 0.0
Cd322 Cd 0.61079 0.18996 0.68877 0.0
O323 O 0.61962 0.17299 0.69853 0.0
C324 C 0.62618 0.16533 0.69118 0.0
O325 O 0.62852 0.16898 0.67902 0.0
C326 C 0.59798 0.18363 0.66291 0.0
C327 C 0.62641 0.22098 0.65789 0.0
O328 O 0.6342 0.21182 0.65417 0.0
O329 O 0.61903 0.21877 0.66784 0.0
O330 O 0.56648 0.86246 0.40398 0.0
Cd331 Cd 0.55374 0.87967 0.41476 0.0
O332 O 0.56113 0.84825 0.41931 0.0
Cd333 Cd 0.55949 0.8642 0.43353 0.0
O334 O 0.57648 0.87287 0.44336 0.0
C335 C 0.58438 0.87916 0.43602 0.0
O336 O 0.58095 0.88139 0.42377 0.0
C337 C 0.56595 0.85066 0.40804 0.0
C338 C 0.5289 0.87906 0.40321 0.0
O339 O 0.5379 0.88671 0.39885 0.0
O340 O 0.53149 0.87206 0.41335 0.0
O341 O 0.8986 0.80438 0.16799 0.0
Cd342 Cd 0.87933 0.79335 0.17706 0.0
O343 O 0.90417 0.81534 0.18578 0.0
Cd344 Cd 0.88567 0.81237 0.19617 0.0
O345 O 0.87399 0.82915 0.20259 0.0
C346 C 0.86828 0.83561 0.19356 0.0
O347 O 0.86828 0.83077 0.18159 0.0
C348 C 0.90656 0.81186 0.17404 0.0
C349 C 0.87632 0.76997 0.16305 0.0
O350 O 0.87031 0.78045 0.15951 0.0
O351 O 0.88338 0.77044 0.17347 0.0
O352 O 0.59239 0.93443 0.85967 0.0
Cd353 Cd 0.58141 0.94674 0.87708 0.0
O354 O 0.57697 0.93944 0.84544 0.0
Cd355 Cd 0.56277 0.94105 0.86142 0.0
O356 O 0.55306 0.92416 0.87046 0.0
C357 C 0.56049 0.91638 0.8768 0.0
O358 O 0.57275 0.91986 0.87882 0.0
C359 C 0.58832 0.93483 0.84787 0.0
C360 C 0.59317 0.97149 0.87774 0.0
O361 O 0.59732 0.96212 0.88506 0.0
O362 O 0.58316 0.96928 0.87044 0.0
O363 O 0.80579 0.82963 0.59797 0.0
Cd364 Cd 0.79484 0.82063 0.61732 0.0
O365 O 0.81751 0.81215 0.593 0.0
Cd366 Cd 0.81469 0.8018 0.61155 0.0
O367 O 0.83152 0.79501 0.62296 0.0
C368 C 0.83812 0.80383 0.62883 0.0
O369 O 0.83342 0.81584 0.62914 0.0
C370 C 0.81362 0.82369 0.59027 0.0
C371 C 0.77134 0.83446 0.62023 0.0
O372 O 0.78177 0.8381 0.62626 0.0
O373 O 0.77192 0.82403 0.61322 0.0
O374 O 0.91536 0.05881 0.34899 0.0
Cd375 Cd 0.92816 0.04692 0.3654 0.0
O376 O 0.9051 0.07047 0.36394 0.0
Cd377 Cd 0.92177 0.06892 0.37732 0.0
O378 O 0.93641 0.08451 0.37921 0.0
C379 C 0.94096 0.08856 0.36831 0.0
O380 O 0.93769 0.08221 0.35755 0.0
C381 C 0.90608 0.06653 0.35213 0.0
C382 C 0.91536 0.02282 0.36806 0.0
O383 O 0.91249 0.03254 0.37552 0.0
O384 O 0.92473 0.02432 0.35978 0.0
O385 O 0.68454 0.15786 0.11299 0.0
Cd386 Cd 0.69748 0.16908 0.12975 0.0
O387 O 0.68914 0.17308 0.0984 0.0
Cd388 Cd 0.69094 0.18755 0.11411 0.0
O389 O 0.67387 0.19709 0.12295 0.0
C390 C 0.66628 0.18964 0.12948 0.0
O391 O 0.67004 0.17752 0.13182 0.0
C392 C 0.68463 0.16175 0.10113 0.0
C393 C 0.72199 0.15682 0.12993 0.0
O394 O 0.71278 0.15305 0.13763 0.0
O395 O 0.71977 0.16672 0.12247 0.0
O396 O 0.59239 0.0651 0.63984 0.0
Cd397 Cd 0.58141 0.05279 0.62244 0.0
O398 O 0.57697 0.06008 0.65408 0.0
Cd399 Cd 0.56277 0.05848 0.6381 0.0
O400 O 0.55306 0.07536 0.62906 0.0
C401 C 0.56049 0.08315 0.62272 0.0
O402 O 0.57275 0.07967 0.6207 0.0
C403 C 0.58832 0.06469 0.65164 0.0
C404 C 0.59317 0.02804 0.62177 0.0
O405 O 0.59732 0.03741 0.61446 0.0
O406 O 0.58316 0.03025 0.62908 0.0
O407 O 0.68454 0.84166 0.38652 0.0
Cd408 Cd 0.69748 0.83044 0.36976 0.0
O409 O 0.68914 0.82645 0.40111 0.0
Cd410 Cd 0.69094 0.81198 0.38541 0.0
O411 O 0.67387 0.80244 0.37656 0.0
C412 C 0.66628 0.80989 0.37003 0.0
O413 O 0.67004 0.82201 0.3677 0.0
C414 C 0.68463 0.83778 0.39839 0.0
C415 C 0.72199 0.8427 0.36958 0.0
O416 O 0.71278 0.84648 0.36188 0.0
O417 O 0.71977 0.8328 0.37704 0.0
O418 O 0.91536 0.94072 0.15053 0.0
Cd419 Cd 0.92816 0.9526 0.13412 0.0
O420 O 0.9051 0.92905 0.13558 0.0
Cd421 Cd 0.92177 0.93061 0.1222 0.0
O422 O 0.93641 0.91502 0.12031 0.0
C423 C 0.94096 0.91097 0.13121 0.0
O424 O 0.93769 0.91732 0.14196 0.0
C425 C 0.90608 0.933 0.14738 0.0
C426 C 0.91536 0.9767 0.13146 0.0
O427 O 0.91249 0.96698 0.12399 0.0
O428 O 0.92473 0.9752 0.13973 0.0
O429 O 0.80579 0.16989 0.90154 0.0
Cd430 Cd 0.79484 0.1789 0.88219 0.0
O431 O 0.81751 0.18738 0.90652 0.0
Cd432 Cd 0.81469 0.19773 0.88797 0.0
O433 O 0.83152 0.20452 0.87655 0.0
C434 C 0.83812 0.1957 0.87069 0.0
O435 O 0.83342 0.18368 0.87037 0.0
C436 C 0.81362 0.17583 0.90924 0.0
C437 C 0.77134 0.16507 0.87928 0.0
O438 O 0.78177 0.16143 0.87326 0.0
O439 O 0.77192 0.1755 0.8863 0.0
O440 O 0.85948 0.58971 0.93322 0.0
Cd441 Cd 0.87592 0.57801 0.94614 0.0
O442 O 0.8445 0.57496 0.93803 0.0
Cd443 Cd 0.85979 0.55999 0.93945 0.0
O444 O 0.86811 0.55017 0.92227 0.0
C445 C 0.87478 0.5574 0.91458 0.0
O446 O 0.87753 0.56945 0.9183 0.0
C447 C 0.8475 0.58621 0.9335 0.0
C448 C 0.876 0.59015 0.97071 0.0
O449 O 0.8839 0.59382 0.96161 0.0
O450 O 0.86842 0.58039 0.96835 0.0
O451 O 0.35948 0.90981 0.0663 0.0
Cd452 Cd 0.37592 0.92152 0.05337 0.0
O453 O 0.3445 0.92457 0.06148 0.0
Cd454 Cd 0.35979 0.93954 0.06007 0.0
O455 O 0.36811 0.94936 0.07724 0.0
C456 C 0.37478 0.94213 0.08493 0.0
O457 O 0.37753 0.93008 0.08122 0.0
C458 C 0.3475 0.91332 0.06602 0.0
C459 C 0.376 0.90937 0.02881 0.0
O460 O 0.3839 0.90571 0.0379 0.0
O461 O 0.36842 0.91914 0.03116 0.0
O462 O 0.8418 0.61113 0.81561 0.0
Cd463 Cd 0.83132 0.62935 0.80401 0.0
O464 O 0.82589 0.59754 0.81036 0.0
Cd465 Cd 0.81221 0.61401 0.80918 0.0
O466 O 0.80272 0.62297 0.82622 0.0
C467 C 0.81029 0.629 0.8341 0.0
O468 O 0.82259 0.63082 0.83066 0.0
C469 C 0.83735 0.59948 0.81493 0.0
C470 C 0.84275 0.63046 0.77914 0.0
O471 O 0.84734 0.63724 0.78869 0.0
O472 O 0.83247 0.6235 0.78124 0.0
O473 O 0.14857 0.08523 0.55645 0.0
Cd474 Cd 0.13115 0.07293 0.54549 0.0
O475 O 0.1345 0.09707 0.56773 0.0
Cd476 Cd 0.11963 0.0817 0.56629 0.0
O477 O 0.11648 0.06688 0.58149 0.0
C478 C 0.12693 0.06119 0.58527 0.0
O479 O 0.13787 0.06356 0.57885 0.0
C480 C 0.14619 0.09499 0.56387 0.0
C481 C 0.12757 0.08508 0.52118 0.0
O482 O 0.12075 0.08851 0.53118 0.0
O483 O 0.13569 0.07556 0.52256 0.0
O484 O 0.16717 0.90207 0.80522 0.0
Cd485 Cd 0.17715 0.88437 0.79255 0.0
O486 O 0.18371 0.90678 0.81834 0.0
Cd487 Cd 0.19553 0.88934 0.81445 0.0
O488 O 0.20298 0.87813 0.83116 0.0
C489 C 0.19444 0.8718 0.83771 0.0
O490 O 0.18245 0.87099 0.83301 0.0
C491 C 0.17224 0.90923 0.81409 0.0
C492 C 0.16238 0.88231 0.76953 0.0
O493 O 0.15971 0.87524 0.7796 0.0
O494 O 0.17234 0.88998 0.77017 0.0
O495 O 0.64857 0.41429 0.44306 0.0
Cd496 Cd 0.63115 0.42659 0.45403 0.0
O497 O 0.6345 0.40246 0.43178 0.0
Cd498 Cd 0.61963 0.41783 0.43323 0.0
O499 O 0.61648 0.43264 0.41802 0.0
C500 C 0.62693 0.43834 0.41425 0.0
O501 O 0.63787 0.43597 0.42067 0.0
C502 C 0.64619 0.40454 0.43564 0.0
C503 C 0.62757 0.41444 0.47834 0.0
O504 O 0.62075 0.41102 0.46833 0.0
O505 O 0.63569 0.42397 0.47695 0.0
O506 O 0.8418 0.3884 0.6839 0.0
Cd507 Cd 0.83132 0.37018 0.6955 0.0
O508 O 0.82589 0.40199 0.68915 0.0
Cd509 Cd 0.81221 0.38552 0.69034 0.0
O510 O 0.80272 0.37656 0.6733 0.0
C511 C 0.81029 0.37052 0.66541 0.0
O512 O 0.82259 0.36871 0.66886 0.0
C513 C 0.83735 0.40005 0.68458 0.0
C514 C 0.84275 0.36907 0.72038 0.0
O515 O 0.84734 0.36229 0.71082 0.0
O516 O 0.83247 0.37603 0.71827 0.0
O517 O 0.66717 0.59746 0.1943 0.0
Cd518 Cd 0.67715 0.61516 0.20697 0.0
O519 O 0.68371 0.59275 0.18117 0.0
Cd520 Cd 0.69553 0.61019 0.18506 0.0
O521 O 0.70298 0.6214 0.16836 0.0
C522 C 0.69444 0.62772 0.16181 0.0
O523 O 0.68245 0.62854 0.1665 0.0
C524 C 0.67224 0.5903 0.18543 0.0
C525 C 0.66238 0.61721 0.22999 0.0
O526 O 0.65971 0.62428 0.21991 0.0
O527 O 0.67234 0.60955 0.22934 0.0
O528 O 0.54255 0.71466 0.90307 0.0
Cd529 Cd 0.52082 0.71152 0.91272 0.0
O530 O 0.54935 0.69602 0.91139 0.0
Cd531 Cd 0.5638 0.68124 0.91732 0.0
O532 O 0.57855 0.66753 0.92467 0.0
C533 C 0.57763 0.66321 0.93635 0.0
O534 O 0.56768 0.66699 0.94365 0.0
C535 C 0.55171 0.70635 0.90473 0.0
C536 C 0.50486 0.6948 0.89812 0.0
O537 O 0.50611 0.70696 0.89508 0.0
O538 O 0.51126 0.69046 0.90805 0.0
O539 O 0.53855 0.29401 0.14663 0.0
Cd540 Cd 0.53894 0.27273 0.15762 0.0
O541 O 0.55335 0.3013 0.16045 0.0
Cd542 Cd 0.56655 0.31636 0.16818 0.0
O543 O 0.57877 0.33213 0.17596 0.0
C544 C 0.58287 0.33157 0.18774 0.0
O545 O 0.57974 0.32136 0.19499 0.0
C546 C 0.54561 0.30337 0.15086 0.0
C547 C 0.55753 0.25541 0.14755 0.0
O548 O 0.54621 0.25668 0.14221 0.0
O549 O 0.56018 0.2625 0.15761 0.0
O550 O 0.95539 0.28934 0.39848 0.0
Cd551 Cd 0.97737 0.28943 0.40796 0.0
O552 O 0.94949 0.30505 0.41197 0.0
Cd553 Cd 0.9352 0.31897 0.41987 0.0
O554 O 0.92013 0.33177 0.42811 0.0
C555 C 0.9209 0.33513 0.44009 0.0
O556 O 0.93087 0.33093 0.44714 0.0
C557 C 0.94657 0.29693 0.40296 0.0
C558 C 0.99406 0.30815 0.3971 0.0
O559 O 0.99238 0.29693 0.39165 0.0
O560 O 0.98766 0.31064 0.40765 0.0
O561 O 0.96825 0.7064 0.65137 0.0
Cd562 Cd 0.96871 0.72842 0.66087 0.0
O563 O 0.95149 0.7013 0.66388 0.0
Cd564 Cd 0.93635 0.68789 0.67112 0.0
O565 O 0.92232 0.67368 0.6789 0.0
C566 C 0.91929 0.67409 0.69099 0.0
O567 O 0.92458 0.6832 0.69845 0.0
C568 C 0.96002 0.69794 0.6554 0.0
C569 C 0.94972 0.74557 0.6512 0.0
O570 O 0.96069 0.74394 0.64525 0.0
O571 O 0.94759 0.73888 0.66165 0.0
O572 O 0.54255 0.28487 0.59644 0.0
Cd573 Cd 0.52082 0.28801 0.58679 0.0
O574 O 0.54935 0.3035 0.58813 0.0
Cd575 Cd 0.5638 0.31828 0.5822 0.0
O576 O 0.57855 0.332 0.57484 0.0
C577 C 0.57763 0.33631 0.56316 0.0
O578 O 0.56768 0.33253 0.55586 0.0
C579 C 0.55171 0.29318 0.59478 0.0
C580 C 0.50486 0.30473 0.6014 0.0
O581 O 0.50611 0.29257 0.60444 0.0
O582 O 0.51126 0.30907 0.59146 0.0
O583 O 0.96825 0.29313 0.84815 0.0
Cd584 Cd 0.96871 0.27111 0.83864 0.0
O585 O 0.95149 0.29822 0.83564 0.0
Cd586 Cd 0.93635 0.31163 0.82839 0.0
O587 O 0.92232 0.32585 0.82062 0.0
C588 C 0.91929 0.32544 0.80852 0.0
O589 O 0.92458 0.31633 0.80107 0.0
C590 C 0.96002 0.30158 0.84412 0.0
C591 C 0.94972 0.25395 0.84832 0.0
O592 O 0.96069 0.25559 0.85427 0.0
O593 O 0.94759 0.26065 0.83787 0.0
O594 O 0.95539 0.71018 0.10104 0.0
Cd595 Cd 0.97737 0.71009 0.09155 0.0
O596 O 0.94949 0.69448 0.08754 0.0
Cd597 Cd 0.9352 0.68056 0.07964 0.0
O598 O 0.92013 0.66776 0.07141 0.0
C599 C 0.9209 0.66439 0.05942 0.0
O600 O 0.93087 0.6686 0.05238 0.0
C601 C 0.94657 0.7026 0.09656 0.0
C602 C 0.99406 0.69137 0.10241 0.0
O603 O 0.99238 0.70259 0.10786 0.0
O604 O 0.98766 0.68889 0.09186 0.0
O605 O 0.53855 0.70552 0.35289 0.0
Cd606 Cd 0.53894 0.7268 0.34189 0.0
O607 O 0.55335 0.69823 0.33907 0.0
Cd608 Cd 0.56655 0.68317 0.33134 0.0
O609 O 0.57877 0.6674 0.32355 0.0
C610 C 0.58287 0.66795 0.31178 0.0
O611 O 0.57974 0.67817 0.30453 0.0
C612 C 0.54561 0.69616 0.34865 0.0
C613 C 0.55753 0.74411 0.35196 0.0
O614 O 0.54621 0.74285 0.35731 0.0
O615 O 0.56018 0.73702 0.34191 0.0
O616 O 0.89245 0.54696 0.71338 0.0
Cd617 Cd 0.90077 0.52447 0.71347 0.0
O618 O 0.90607 0.55205 0.69749 0.0
Cd619 Cd 0.91485 0.56577 0.68348 0.0
O620 O 0.92413 0.58044 0.6709 0.0
C621 C 0.93629 0.57942 0.66832 0.0
O622 O 0.94289 0.56943 0.67316 0.0
C623 C 0.89738 0.55552 0.70576 0.0
C624 C 0.89066 0.50804 0.6941 0.0
O625 O 0.88459 0.50979 0.70499 0.0
O626 O 0.90139 0.51435 0.6922 0.0
O627 O 0.70552 0.64791 0.96153 0.0
Cd628 Cd 0.72726 0.65795 0.96159 0.0
O629 O 0.69921 0.66177 0.9463 0.0
Cd630 Cd 0.68477 0.6698 0.9326 0.0
O631 O 0.66951 0.67824 0.92018 0.0
C632 C 0.67008 0.69035 0.91722 0.0
O633 O 0.67995 0.6974 0.92161 0.0
C634 C 0.69656 0.65239 0.95412 0.0
C635 C 0.74413 0.64756 0.94278 0.0
O636 O 0.74256 0.64197 0.95395 0.0
O637 O 0.73757 0.65804 0.94039 0.0
O638 O 0.58955 0.45957 0.21022 0.0
Cd639 Cd 0.57899 0.48083 0.2069 0.0
O640 O 0.58167 0.45241 0.19155 0.0
Cd641 Cd 0.5766 0.43782 0.17661 0.0
O642 O 0.57024 0.4226 0.16294 0.0
C643 C 0.55866 0.42299 0.1583 0.0
O644 O 0.55088 0.43271 0.1617 0.0
C645 C 0.58844 0.45038 0.20187 0.0
C646 C 0.5938 0.49695 0.19055 0.0
O647 O 0.59647 0.49581 0.2028 0.0
O648 O 0.58404 0.49047 0.18596 0.0
O649 O 0.79298 0.34974 0.46727 0.0
Cd650 Cd 0.77134 0.33938 0.46726 0.0
O651 O 0.79906 0.33699 0.45103 0.0
Cd652 Cd 0.81313 0.32982 0.43646 0.0
O653 O 0.82785 0.32265 0.42262 0.0
C654 C 0.8273 0.3109 0.41845 0.0
O655 O 0.81771 0.30326 0.42249 0.0
C656 C 0.80184 0.3458 0.45943 0.0
C657 C 0.75383 0.34906 0.44859 0.0
O658 O 0.75521 0.35466 0.45978 0.0
O659 O 0.76096 0.33899 0.44609 0.0
O660 O 0.89245 0.45257 0.78613 0.0
Cd661 Cd 0.90077 0.47505 0.78605 0.0
O662 O 0.90607 0.44747 0.80202 0.0
Cd663 Cd 0.91485 0.43376 0.81604 0.0
O664 O 0.92413 0.41908 0.82861 0.0
C665 C 0.93629 0.42011 0.8312 0.0
O666 O 0.94289 0.43009 0.82635 0.0
C667 C 0.89738 0.44401 0.79375 0.0
C668 C 0.89066 0.49149 0.80542 0.0
O669 O 0.88459 0.48974 0.79453 0.0
O670 O 0.90139 0.48518 0.80731 0.0
O671 O 0.79298 0.64979 0.03224 0.0
Cd672 Cd 0.77134 0.66015 0.03226 0.0
O673 O 0.79906 0.66254 0.04849 0.0
Cd674 Cd 0.81313 0.6697 0.06306 0.0
O675 O 0.82785 0.67688 0.07689 0.0
C676 C 0.8273 0.68863 0.08106 0.0
O677 O 0.81771 0.69626 0.07702 0.0
C678 C 0.80184 0.65373 0.04009 0.0
C679 C 0.75383 0.65047 0.05092 0.0
O680 O 0.75521 0.64487 0.03973 0.0
O681 O 0.76096 0.66054 0.05343 0.0
O682 O 0.58955 0.53996 0.28929 0.0
Cd683 Cd 0.57899 0.5187 0.29261 0.0
O684 O 0.58167 0.54712 0.30796 0.0
Cd685 Cd 0.5766 0.56171 0.3229 0.0
O686 O 0.57024 0.57693 0.33658 0.0
C687 C 0.55866 0.57654 0.34122 0.0
O688 O 0.55088 0.56682 0.33781 0.0
C689 C 0.58844 0.54915 0.29765 0.0
C690 C 0.5938 0.50257 0.30896 0.0
O691 O 0.59647 0.50371 0.29672 0.0
O692 O 0.58404 0.50905 0.31356 0.0
O693 O 0.70552 0.35162 0.53798 0.0
Cd694 Cd 0.72726 0.34158 0.53793 0.0
O695 O 0.69921 0.33776 0.55322 0.0
Cd696 Cd 0.68477 0.32973 0.56692 0.0
O697 O 0.66951 0.32129 0.57934 0.0
C698 C 0.67008 0.30918 0.5823 0.0
O699 O 0.67995 0.30213 0.5779 0.0
C700 C 0.69656 0.34713 0.54539 0.0
C701 C 0.74413 0.35197 0.55674 0.0
O702 O 0.74256 0.35755 0.54556 0.0
O703 O 0.73757 0.34149 0.55913 0.0
O704 O 0.71211 0.89708 0.54122 0.0
Cd705 Cd 0.71215 0.9068 0.51934 0.0
O706 O 0.69634 0.9105 0.54708 0.0
Cd707 Cd 0.68221 0.91829 0.56122 0.0
O708 O 0.66919 0.9265 0.57611 0.0
C709 C 0.66623 0.93861 0.5756 0.0
O710 O 0.67098 0.94582 0.566 0.0
C711 C 0.70443 0.90146 0.55001 0.0
C712 C 0.69303 0.89656 0.50272 0.0
O713 O 0.70412 0.89081 0.50427 0.0
O714 O 0.69086 0.90713 0.50921 0.0
O715 O 0.21211 0.60244 0.45829 0.0
Cd716 Cd 0.21215 0.59273 0.48018 0.0
O717 O 0.19634 0.58902 0.45243 0.0
Cd718 Cd 0.18221 0.58123 0.43829 0.0
O719 O 0.16919 0.57303 0.42341 0.0
C720 C 0.16623 0.56092 0.42392 0.0
O721 O 0.17098 0.55371 0.43352 0.0
C722 C 0.20443 0.59807 0.44951 0.0
C723 C 0.19303 0.60296 0.49679 0.0
O724 O 0.20412 0.60872 0.49525 0.0
O725 O 0.19086 0.59239 0.49031 0.0
O726 O 0.64821 0.96228 0.70384 0.0
Cd727 Cd 0.65749 0.96154 0.72591 0.0
O728 O 0.66103 0.94607 0.6978 0.0
Cd729 Cd 0.66862 0.93183 0.68362 0.0
O730 O 0.6763 0.91844 0.66874 0.0
C731 C 0.68812 0.9145 0.6694 0.0
O732 O 0.69552 0.9185 0.67919 0.0
C733 C 0.65242 0.95465 0.69492 0.0
C734 C 0.64642 0.94271 0.74236 0.0
O735 O 0.64109 0.95402 0.74085 0.0
O736 O 0.6569 0.94017 0.73587 0.0
O737 O 0.28817 0.40008 0.95193 0.0
Cd738 Cd 0.29012 0.40924 0.97402 0.0
O739 O 0.30396 0.41297 0.945 0.0
Cd740 Cd 0.31745 0.42052 0.93004 0.0
O741 O 0.33014 0.4283 0.91459 0.0
C742 C 0.33456 0.43993 0.91548 0.0
O743 O 0.33146 0.44701 0.92582 0.0
C744 C 0.29529 0.40431 0.94261 0.0
C745 C 0.3067 0.395 0.99048 0.0
O746 O 0.29473 0.39156 0.98871 0.0
O747 O 0.31094 0.40514 0.98432 0.0
O748 O 0.34488 0.53248 0.711 0.0
Cd749 Cd 0.33304 0.53376 0.73181 0.0
O750 O 0.33579 0.55083 0.70447 0.0
Cd751 Cd 0.32983 0.56579 0.69025 0.0
O752 O 0.32219 0.5792 0.6754 0.0
C753 C 0.3102 0.58258 0.67601 0.0
O754 O 0.30293 0.57808 0.68567 0.0
C755 C 0.34333 0.54114 0.70215 0.0
C756 C 0.34312 0.5523 0.74919 0.0
O757 O 0.34807 0.54076 0.74833 0.0
O758 O 0.33344 0.55519 0.74168 0.0
O759 O 0.78817 0.09945 0.04758 0.0
Cd760 Cd 0.79012 0.09029 0.02549 0.0
O761 O 0.80396 0.08655 0.05452 0.0
Cd762 Cd 0.81745 0.079 0.06947 0.0
O763 O 0.83014 0.07123 0.08493 0.0
C764 C 0.83456 0.05959 0.08403 0.0
O765 O 0.83146 0.05251 0.0737 0.0
C766 C 0.79529 0.09522 0.05691 0.0
C767 C 0.8067 0.10453 0.00904 0.0
O768 O 0.79473 0.10797 0.0108 0.0
O769 O 0.81094 0.09439 0.01519 0.0
O770 O 0.64821 0.03725 0.79568 0.0
Cd771 Cd 0.65749 0.03798 0.7736 0.0
O772 O 0.66103 0.05346 0.80171 0.0
Cd773 Cd 0.66862 0.0677 0.81589 0.0
O774 O 0.6763 0.08109 0.83077 0.0
C775 C 0.68812 0.08503 0.83012 0.0
O776 O 0.69552 0.08103 0.82033 0.0
C777 C 0.65242 0.04488 0.80459 0.0
C778 C 0.64642 0.05682 0.75715 0.0
O779 O 0.64109 0.04551 0.75867 0.0
O780 O 0.6569 0.05935 0.76364 0.0
O781 O 0.84488 0.96705 0.28852 0.0
Cd782 Cd 0.83303 0.96577 0.2677 0.0
O783 O 0.83579 0.94869 0.29504 0.0
Cd784 Cd 0.82983 0.93374 0.30926 0.0
O785 O 0.82219 0.92033 0.32411 0.0
C786 C 0.8102 0.91694 0.3235 0.0
O787 O 0.80293 0.92145 0.31384 0.0
C788 C 0.84333 0.95838 0.29737 0.0
C789 C 0.84312 0.94723 0.25032 0.0
O790 O 0.84807 0.95877 0.25119 0.0
O791 O 0.83344 0.94434 0.25783 0.0
O792 O 0.44219 0.3472 0.0811 0.0
Cd793 Cd 0.45311 0.36401 0.06794 0.0
O794 O 0.43074 0.36186 0.09202 0.0
Cd795 Cd 0.43174 0.37562 0.0756 0.0
O796 O 0.4162 0.37762 0.06093 0.0
C797 C 0.41232 0.36675 0.05617 0.0
O798 O 0.41879 0.35602 0.05928 0.0
C799 C 0.43477 0.35011 0.0907 0.0
C800 C 0.4772 0.36836 0.08024 0.0
O801 O 0.4671 0.37529 0.08316 0.0
O802 O 0.47603 0.35978 0.07112 0.0
O803 O 0.3986 0.69514 0.83152 0.0
Cd804 Cd 0.37933 0.70618 0.82246 0.0
O805 O 0.40417 0.68419 0.81373 0.0
Cd806 Cd 0.38567 0.68716 0.80335 0.0
O807 O 0.37399 0.67037 0.79693 0.0
C808 C 0.36828 0.66392 0.80596 0.0
O809 O 0.36828 0.66875 0.81792 0.0
C810 C 0.40656 0.68767 0.82547 0.0
C811 C 0.37632 0.72956 0.83646 0.0
O812 O 0.37031 0.71908 0.84 0.0
O813 O 0.38338 0.72908 0.82605 0.0
O814 O 0.06648 0.63706 0.59553 0.0
Cd815 Cd 0.05374 0.61986 0.58475 0.0
O816 O 0.06113 0.65128 0.58021 0.0
Cd817 Cd 0.05949 0.63532 0.56599 0.0
O818 O 0.07648 0.62666 0.55615 0.0
C819 C 0.08438 0.62037 0.5635 0.0
O820 O 0.08095 0.61814 0.57574 0.0
C821 C 0.06595 0.64887 0.59148 0.0
C822 C 0.0289 0.62046 0.5963 0.0
O823 O 0.0379 0.61282 0.60066 0.0
O824 O 0.03149 0.62747 0.58617 0.0
O825 O 0.10988 0.31607 0.34037 0.0
Cd826 Cd 0.12652 0.30297 0.32917 0.0
O827 O 0.09517 0.3113 0.32533 0.0
Cd828 Cd 0.11079 0.30956 0.31074 0.0
O829 O 0.11962 0.32654 0.30099 0.0
C830 C 0.12618 0.3342 0.30834 0.0
O831 O 0.12852 0.33055 0.32049 0.0
C832 C 0.09798 0.31589 0.3366 0.0
C833 C 0.12641 0.27854 0.34163 0.0
O834 O 0.1342 0.28771 0.34534 0.0
O835 O 0.11903 0.28076 0.33168 0.0
O836 O 0.44219 0.65233 0.41842 0.0
Cd837 Cd 0.45311 0.63552 0.43157 0.0
O838 O 0.43074 0.63767 0.4075 0.0
Cd839 Cd 0.43174 0.62391 0.42391 0.0
O840 O 0.4162 0.6219 0.43858 0.0
C841 C 0.41232 0.63277 0.44335 0.0
O842 O 0.41879 0.64351 0.44023 0.0
C843 C 0.43477 0.64942 0.40881 0.0
C844 C 0.4772 0.63117 0.41927 0.0
O845 O 0.4671 0.62424 0.41636 0.0
O846 O 0.47603 0.63975 0.4284 0.0
O847 O 0.10988 0.68346 0.15914 0.0
Cd848 Cd 0.12652 0.69656 0.17035 0.0
O849 O 0.09517 0.68823 0.17418 0.0
Cd850 Cd 0.11079 0.68996 0.18877 0.0
O851 O 0.11962 0.67299 0.19853 0.0
C852 C 0.12618 0.66533 0.19118 0.0
O853 O 0.12852 0.66898 0.17902 0.0
C854 C 0.09798 0.68363 0.16291 0.0
C855 C 0.12641 0.72098 0.15789 0.0
O856 O 0.1342 0.71182 0.15417 0.0
O857 O 0.11903 0.71877 0.16784 0.0
O858 O 0.06648 0.36246 0.90398 0.0
Cd859 Cd 0.05374 0.37967 0.91476 0.0
O860 O 0.06113 0.34825 0.91931 0.0
Cd861 Cd 0.05949 0.3642 0.93353 0.0
O862 O 0.07648 0.37287 0.94336 0.0
C863 C 0.08438 0.37916 0.93602 0.0
O864 O 0.08095 0.38139 0.92377 0.0
C865 C 0.06595 0.35066 0.90804 0.0
C866 C 0.0289 0.37906 0.90321 0.0
O867 O 0.0379 0.38671 0.89885 0.0
O868 O 0.03149 0.37206 0.91335 0.0
O869 O 0.3986 0.30438 0.66799 0.0
Cd870 Cd 0.37933 0.29335 0.67706 0.0
O871 O 0.40417 0.31534 0.68578 0.0
Cd872 Cd 0.38567 0.31237 0.69617 0.0
O873 O 0.37399 0.32915 0.70259 0.0
C874 C 0.36828 0.33561 0.69356 0.0
O875 O 0.36828 0.33077 0.68159 0.0
C876 C 0.40656 0.31186 0.67404 0.0
C877 C 0.37632 0.26997 0.66305 0.0
O878 O 0.37031 0.28045 0.65951 0.0
O879 O 0.38338 0.27044 0.67347 0.0
O880 O 0.09239 0.43443 0.35967 0.0
Cd881 Cd 0.08141 0.44674 0.37708 0.0
O882 O 0.07697 0.43944 0.34544 0.0
Cd883 Cd 0.06277 0.44105 0.36142 0.0
O884 O 0.05306 0.42416 0.37046 0.0
C885 C 0.06049 0.41638 0.3768 0.0
O886 O 0.07275 0.41986 0.37882 0.0
C887 C 0.08832 0.43483 0.34787 0.0
C888 C 0.09317 0.47149 0.37774 0.0
O889 O 0.09732 0.46212 0.38506 0.0
O890 O 0.08316 0.46928 0.37044 0.0
O891 O 0.30579 0.32963 0.09797 0.0
Cd892 Cd 0.29484 0.32063 0.11732 0.0
O893 O 0.31751 0.31215 0.093 0.0
Cd894 Cd 0.31469 0.3018 0.11155 0.0
O895 O 0.33152 0.29501 0.12296 0.0
C896 C 0.33812 0.30383 0.12883 0.0
O897 O 0.33342 0.31584 0.12914 0.0
C898 C 0.31362 0.32369 0.09027 0.0
C899 C 0.27134 0.33446 0.12023 0.0
O900 O 0.28177 0.3381 0.12626 0.0
O901 O 0.27192 0.32403 0.11322 0.0
O902 O 0.41536 0.55881 0.84899 0.0
Cd903 Cd 0.42816 0.54692 0.8654 0.0
O904 O 0.4051 0.57047 0.86394 0.0
Cd905 Cd 0.42177 0.56892 0.87732 0.0
O906 O 0.43641 0.58451 0.87921 0.0
C907 C 0.44096 0.58856 0.86831 0.0
O908 O 0.43769 0.58221 0.85755 0.0
C909 C 0.40608 0.56653 0.85213 0.0
C910 C 0.41536 0.52282 0.86806 0.0
O911 O 0.41249 0.53254 0.87552 0.0
O912 O 0.42473 0.52432 0.85978 0.0
O913 O 0.18454 0.65786 0.61299 0.0
Cd914 Cd 0.19748 0.66908 0.62975 0.0
O915 O 0.18914 0.67308 0.5984 0.0
Cd916 Cd 0.19094 0.68755 0.61411 0.0
O917 O 0.17387 0.69709 0.62295 0.0
C918 C 0.16628 0.68964 0.62948 0.0
O919 O 0.17004 0.67752 0.63182 0.0
C920 C 0.18463 0.66175 0.60113 0.0
C921 C 0.22199 0.65682 0.62993 0.0
O922 O 0.21278 0.65305 0.63763 0.0
O923 O 0.21977 0.66672 0.62247 0.0
O924 O 0.09239 0.5651 0.13984 0.0
Cd925 Cd 0.08141 0.55279 0.12244 0.0
O926 O 0.07697 0.56008 0.15408 0.0
Cd927 Cd 0.06278 0.55848 0.1381 0.0
O928 O 0.05306 0.57536 0.12906 0.0
C929 C 0.06049 0.58315 0.12272 0.0
O930 O 0.07275 0.57967 0.1207 0.0
C931 C 0.08832 0.56469 0.15164 0.0
C932 C 0.09317 0.52804 0.12177 0.0
O933 O 0.09732 0.53741 0.11446 0.0
O934 O 0.08316 0.53025 0.12908 0.0
O935 O 0.18454 0.34166 0.88652 0.0
Cd936 Cd 0.19748 0.33044 0.86976 0.0
O937 O 0.18914 0.32645 0.90111 0.0
Cd938 Cd 0.19094 0.31198 0.88541 0.0
O939 O 0.17387 0.30244 0.87656 0.0
C940 C 0.16628 0.30989 0.87003 0.0
O941 O 0.17004 0.32201 0.8677 0.0
C942 C 0.18463 0.33778 0.89839 0.0
C943 C 0.22199 0.3427 0.86958 0.0
O944 O 0.21278 0.34648 0.86188 0.0
O945 O 0.21977 0.3328 0.87704 0.0
O946 O 0.41536 0.44072 0.65053 0.0
Cd947 Cd 0.42816 0.4526 0.63412 0.0
O948 O 0.4051 0.42905 0.63558 0.0
Cd949 Cd 0.42177 0.43061 0.6222 0.0
O950 O 0.43641 0.41502 0.62031 0.0
C951 C 0.44096 0.41097 0.63121 0.0
O952 O 0.43769 0.41732 0.64196 0.0
C953 C 0.40608 0.433 0.64738 0.0
C954 C 0.41536 0.4767 0.63146 0.0
O955 O 0.41249 0.46698 0.62399 0.0
O956 O 0.42473 0.4752 0.63973 0.0
O957 O 0.30579 0.66989 0.40154 0.0
Cd958 Cd 0.29484 0.6789 0.38219 0.0
O959 O 0.31751 0.68738 0.40652 0.0
Cd960 Cd 0.31469 0.69773 0.38797 0.0
O961 O 0.33152 0.70452 0.37655 0.0
C962 C 0.33812 0.6957 0.37069 0.0
O963 O 0.33342 0.68368 0.37037 0.0
C964 C 0.31362 0.67583 0.40924 0.0
C965 C 0.27134 0.66507 0.37928 0.0
O966 O 0.28177 0.66143 0.37326 0.0
O967 O 0.27192 0.6755 0.3863 0.0
O968 O 0.35948 0.08971 0.43322 0.0
Cd969 Cd 0.37592 0.07801 0.44614 0.0
O970 O 0.3445 0.07496 0.43803 0.0
Cd971 Cd 0.35979 0.05999 0.43945 0.0
O972 O 0.36811 0.05017 0.42227 0.0
C973 C 0.37478 0.0574 0.41458 0.0
O974 O 0.37753 0.06945 0.4183 0.0
C975 C 0.3475 0.08621 0.4335 0.0
C976 C 0.376 0.09015 0.47071 0.0
O977 O 0.3839 0.09382 0.46161 0.0
O978 O 0.36842 0.08039 0.46835 0.0
O979 O 0.85948 0.40982 0.5663 0.0
Cd980 Cd 0.87592 0.42152 0.55337 0.0
O981 O 0.8445 0.42457 0.56148 0.0
Cd982 Cd 0.85979 0.43954 0.56007 0.0
O983 O 0.86811 0.44936 0.57724 0.0
C984 C 0.87478 0.44213 0.58493 0.0
O985 O 0.87753 0.43008 0.58122 0.0
C986 C 0.8475 0.41332 0.56602 0.0
C987 C 0.876 0.40937 0.52881 0.0
O988 O 0.8839 0.40571 0.5379 0.0
O989 O 0.86842 0.41914 0.53116 0.0
O990 O 0.3418 0.11113 0.31561 0.0
Cd991 Cd 0.33132 0.12935 0.30401 0.0
O992 O 0.32589 0.09754 0.31036 0.0
Cd993 Cd 0.31221 0.11401 0.30918 0.0
O994 O 0.30272 0.12297 0.32622 0.0
C995 C 0.31029 0.129 0.3341 0.0
O996 O 0.32259 0.13082 0.33066 0.0
C997 C 0.33735 0.09948 0.31493 0.0
C998 C 0.34275 0.13046 0.27914 0.0
O999 O 0.34734 0.13724 0.28869 0.0
O1000 O 0.33247 0.1235 0.28124 0.0
O1001 O 0.64857 0.58523 0.05645 0.0
Cd1002 Cd 0.63115 0.57293 0.04549 0.0
O1003 O 0.6345 0.59707 0.06773 0.0
Cd1004 Cd 0.61963 0.5817 0.06629 0.0
O1005 O 0.61648 0.56688 0.08149 0.0
C1006 C 0.62693 0.56119 0.08527 0.0
O1007 O 0.63787 0.56356 0.07885 0.0
C1008 C 0.64619 0.59499 0.06387 0.0
C1009 C 0.62757 0.58508 0.02118 0.0
O1010 O 0.62075 0.58851 0.03118 0.0
O1011 O 0.63569 0.57556 0.02256 0.0
O1012 O 0.66717 0.40207 0.30522 0.0
Cd1013 Cd 0.67715 0.38437 0.29255 0.0
O1014 O 0.68371 0.40678 0.31834 0.0
Cd1015 Cd 0.69553 0.38934 0.31445 0.0
O1016 O 0.70298 0.37813 0.33116 0.0
C1017 C 0.69444 0.3718 0.33771 0.0
O1018 O 0.68245 0.37099 0.33301 0.0
C1019 C 0.67224 0.40923 0.31409 0.0
C1020 C 0.66238 0.38231 0.26953 0.0
O1021 O 0.65971 0.37524 0.2796 0.0
O1022 O 0.67234 0.38998 0.27017 0.0
O1023 O 0.14857 0.91429 0.94306 0.0
Cd1024 Cd 0.13115 0.92659 0.95403 0.0
O1025 O 0.1345 0.90246 0.93178 0.0
Cd1026 Cd 0.11963 0.91783 0.93323 0.0
O1027 O 0.11648 0.93264 0.91802 0.0
C1028 C 0.12693 0.93834 0.91425 0.0
O1029 O 0.13787 0.93597 0.92067 0.0
C1030 C 0.14619 0.90454 0.93564 0.0
C1031 C 0.12757 0.91444 0.97834 0.0
O1032 O 0.12075 0.91102 0.96833 0.0
O1033 O 0.13569 0.92397 0.97695 0.0
O1034 O 0.3418 0.8884 0.1839 0.0
Cd1035 Cd 0.33132 0.87018 0.1955 0.0
O1036 O 0.32589 0.90199 0.18915 0.0
Cd1037 Cd 0.31221 0.88552 0.19034 0.0
O1038 O 0.30272 0.87656 0.1733 0.0
C1039 C 0.31029 0.87052 0.16541 0.0
O1040 O 0.32259 0.86871 0.16886 0.0
C1041 C 0.33735 0.90005 0.18458 0.0
C1042 C 0.34275 0.86907 0.22038 0.0
O1043 O 0.34734 0.86229 0.21082 0.0
O1044 O 0.33247 0.87603 0.21827 0.0
O1045 O 0.16717 0.09746 0.6943 0.0
Cd1046 Cd 0.17715 0.11516 0.70697 0.0
O1047 O 0.18371 0.09275 0.68117 0.0
Cd1048 Cd 0.19553 0.11019 0.68506 0.0
O1049 O 0.20298 0.1214 0.66836 0.0
C1050 C 0.19444 0.12772 0.66181 0.0
O1051 O 0.18245 0.12854 0.6665 0.0
C1052 C 0.17224 0.0903 0.68543 0.0
C1053 C 0.16238 0.11721 0.72999 0.0
O1054 O 0.15971 0.12428 0.71991 0.0
O1055 O 0.17234 0.10955 0.72934 0.0
C1056 C 0.15981 0.21009 0.40674 0.0
C1057 C 0.15954 0.19654 0.40934 0.0
C1058 C 0.14961 0.21607 0.39978 0.0
C1059 C 0.13891 0.20862 0.39524 0.0
C1060 C 0.13875 0.19502 0.39764 0.0
C1061 C 0.14896 0.18904 0.40462 0.0
C1062 C 0.12771 0.21513 0.38851 0.0
C1063 C 0.12992 0.22532 0.37945 0.0
C1064 C 0.11938 0.23215 0.37374 0.0
C1065 C 0.10647 0.22855 0.37707 0.0
C1066 C 0.10406 0.21835 0.38607 0.0
C1067 C 0.11474 0.21166 0.39167 0.0
C1068 C 0.09045 0.21518 0.39027 0.0
C1069 C 0.08161 0.22529 0.39341 0.0
C1070 C 0.08634 0.20206 0.39158 0.0
C1071 C 0.0737 0.19912 0.39611 0.0
C1072 C 0.065 0.20924 0.39959 0.0
C1073 C 0.12183 0.24351 0.36489 0.0
C1074 C 0.13155 0.25282 0.36802 0.0
C1075 C 0.11417 0.24545 0.35357 0.0
C1076 C 0.11594 0.25662 0.34576 0.0
C1077 C 0.12539 0.26611 0.34912 0.0
C1078 C 0.1333 0.26398 0.36023 0.0
C1079 C 0.06902 0.22235 0.39799 0.0
H1080 H 0.16781 0.21616 0.41026 0.0
H1081 H 0.14994 0.22659 0.39827 0.0
H1082 H 0.13073 0.18898 0.39413 0.0
H1083 H 0.14848 0.17856 0.4064 0.0
H1084 H 0.1399 0.22792 0.3768 0.0
H1085 H 0.11294 0.20414 0.399 0.0
H1086 H 0.09827 0.23389 0.37288 0.0
H1087 H 0.08452 0.2355 0.39263 0.0
H1088 H 0.09286 0.19407 0.389 0.0
H1089 H 0.0707 0.18895 0.39663 0.0
H1090 H 0.13752 0.2517 0.37675 0.0
H1091 H 0.10672 0.23838 0.3508 0.0
H1092 H 0.06251 0.23038 0.40053 0.0
H1093 H 0.14065 0.27111 0.36312 0.0
H1094 H 0.1097 0.25795 0.33724 0.0
C1095 C 0.04214 0.81797 0.63145 0.0
C1096 C 0.04433 0.81655 0.64499 0.0
C1097 C 0.03994 0.8304 0.62602 0.0
C1098 C 0.03963 0.84164 0.63406 0.0
C1099 C 0.04192 0.84014 0.64762 0.0
C1100 C 0.04428 0.82775 0.653 0.0
C1101 C 0.03632 0.85477 0.62849 0.0
C1102 C 0.02658 0.85599 0.61878 0.0
C1103 C 0.02266 0.8684 0.61416 0.0
C1104 C 0.02859 0.87971 0.61938 0.0
C1105 C 0.03834 0.87871 0.62911 0.0
C1106 C 0.04224 0.8662 0.63346 0.0
C1107 C 0.04385 0.89066 0.63544 0.0
C1108 C 0.05722 0.89132 0.63881 0.0
C1109 C 0.03558 0.90114 0.63896 0.0
C1110 C 0.04047 0.91181 0.64607 0.0
C1111 C 0.05374 0.91222 0.64987 0.0
C1112 C 0.01173 0.86945 0.60454 0.0
C1113 C 0.01097 0.86078 0.59383 0.0
C1114 C 0.00152 0.87855 0.60649 0.0
C1115 C 0.99053 0.87856 0.59826 0.0
C1116 C 0.98952 0.8695 0.58789 0.0
C1117 C 1e-05 0.86082 0.58558 0.0
C1118 C 0.06211 0.90196 0.64597 0.0
H1119 H 0.04209 0.80945 0.62507 0.0
H1120 H 0.03839 0.83118 0.61552 0.0
H1121 H 0.04141 0.84848 0.65419 0.0
H1122 H 0.04547 0.82688 0.66353 0.0
H1123 H 0.02156 0.8473 0.61526 0.0
H1124 H 0.04966 0.86537 0.64104 0.0
H1125 H 0.02561 0.88931 0.61586 0.0
H1126 H 0.0639 0.8835 0.63607 0.0
H1127 H 0.0252 0.90089 0.63667 0.0
H1128 H 0.03376 0.91956 0.64891 0.0
H1129 H 0.01877 0.85378 0.59198 0.0
H1130 H 0.00176 0.88528 0.61472 0.0
H1131 H 0.07241 0.90202 0.64863 0.0
H1132 H 0.99957 0.85375 0.57764 0.0
H1133 H 0.98263 0.88538 0.60031 0.0
C1134 C 0.43055 0.79334 0.88475 0.0
C1135 C 0.43299 0.79578 0.89809 0.0
C1136 C 0.41773 0.79122 0.88031 0.0
C1137 C 0.40712 0.79117 0.88917 0.0
C1138 C 0.40964 0.79374 0.90253 0.0
C1139 C 0.42242 0.79608 0.90691 0.0
C1140 C 0.39359 0.78781 0.88468 0.0
C1141 C 0.39164 0.77807 0.8751 0.0
C1142 C 0.37893 0.77414 0.87144 0.0
C1143 C 0.36804 0.78002 0.87753 0.0
C1144 C 0.36976 0.78981 0.88712 0.0
C1145 C 0.38256 0.79373 0.89049 0.0
C1146 C 0.35831 0.79544 0.89421 0.0
C1147 C 0.35792 0.80888 0.89739 0.0
C1148 C 0.34804 0.78728 0.89852 0.0
C1149 C 0.33782 0.79236 0.90615 0.0
C1150 C 0.33766 0.8057 0.90967 0.0
C1151 C 0.37719 0.76337 0.86177 0.0
C1152 C 0.38477 0.76304 0.85025 0.0
C1153 C 0.36854 0.75293 0.86438 0.0
C1154 C 0.36792 0.74212 0.85592 0.0
C1155 C 0.37587 0.74158 0.84464 0.0
C1156 C 0.38409 0.75229 0.84175 0.0
C1157 C 0.34773 0.81395 0.90505 0.0
H1158 H 0.43857 0.79303 0.87777 0.0
H1159 H 0.41618 0.78949 0.86993 0.0
H1160 H 0.40183 0.79346 0.90973 0.0
H1161 H 0.42409 0.79752 0.91732 0.0
H1162 H 0.40002 0.77305 0.87088 0.0
H1163 H 0.38394 0.8012 0.89793 0.0
H1164 H 0.35822 0.77702 0.87475 0.0
H1165 H 0.36557 0.81547 0.89405 0.0
H1166 H 0.34811 0.77686 0.89638 0.0
H1167 H 0.33021 0.78574 0.90954 0.0
H1168 H 0.39141 0.77103 0.84791 0.0
H1169 H 0.36264 0.75286 0.87323 0.0
H1170 H 0.34784 0.8243 0.90749 0.0
H1171 H 0.39032 0.75221 0.83312 0.0
H1172 H 0.36147 0.73403 0.85842 0.0
C1173 C 0.46444 0.1816 0.13763 0.0
C1174 C 0.46087 0.18427 0.15068 0.0
C1175 C 0.46622 0.16865 0.13341 0.0
C1176 C 0.46472 0.15809 0.14223 0.0
C1177 C 0.46108 0.16085 0.15529 0.0
C1178 C 0.45914 0.17378 0.15944 0.0
C1179 C 0.4675 0.14434 0.13806 0.0
C1180 C 0.47806 0.14159 0.12957 0.0
C1181 C 0.48135 0.12858 0.12631 0.0
C1182 C 0.47393 0.11823 0.13162 0.0
C1183 C 0.46339 0.12074 0.14016 0.0
C1184 C 0.46014 0.13382 0.14316 0.0
C1185 C 0.45626 0.10973 0.14659 0.0
C1186 C 0.44258 0.11025 0.14836 0.0
C1187 C 0.46322 0.0989 0.15159 0.0
C1188 C 0.45669 0.08895 0.15842 0.0
C1189 C 0.44306 0.08962 0.16046 0.0
C1190 C 0.49302 0.12583 0.11799 0.0
C1191 C 0.49559 0.1334 0.10674 0.0
C1192 C 0.50197 0.11594 0.12158 0.0
C1193 C 0.51343 0.11394 0.1143 0.0
C1194 C 0.51619 0.12175 0.10325 0.0
C1195 C 0.50704 0.13137 0.09942 0.0
C1196 C 0.43605 0.1003 0.15522 0.0
H1197 H 0.46589 0.18955 0.1307 0.0
H1198 H 0.46885 0.16691 0.12326 0.0
H1199 H 0.46018 0.15305 0.16247 0.0
H1200 H 0.45688 0.17557 0.16967 0.0
H1201 H 0.48414 0.14955 0.12598 0.0
H1202 H 0.45206 0.13579 0.14979 0.0
H1203 H 0.47637 0.10819 0.12909 0.0
H1204 H 0.43691 0.11837 0.14448 0.0
H1205 H 0.47378 0.09828 0.15056 0.0
H1206 H 0.46239 0.08086 0.16233 0.0
H1207 H 0.48881 0.14099 0.10365 0.0
H1208 H 0.50034 0.11003 0.13027 0.0
H1209 H 0.42552 0.10108 0.15655 0.0
H1210 H 0.50885 0.13754 0.09095 0.0
H1211 H 0.52028 0.10647 0.11753 0.0
C1212 C 0.15981 0.78943 0.09278 0.0
C1213 C 0.15954 0.80299 0.09017 0.0
C1214 C 0.14961 0.78346 0.09973 0.0
C1215 C 0.13891 0.79091 0.10428 0.0
C1216 C 0.13875 0.80451 0.10188 0.0
C1217 C 0.14896 0.81048 0.0949 0.0
C1218 C 0.12771 0.78439 0.11101 0.0
C1219 C 0.12992 0.77421 0.12007 0.0
C1220 C 0.11938 0.76738 0.12577 0.0
C1221 C 0.10647 0.77098 0.12244 0.0
C1222 C 0.10406 0.78118 0.11345 0.0
C1223 C 0.11474 0.78787 0.10785 0.0
C1224 C 0.09045 0.78434 0.10925 0.0
C1225 C 0.08161 0.77423 0.10611 0.0
C1226 C 0.08634 0.79747 0.10794 0.0
C1227 C 0.0737 0.8004 0.10341 0.0
C1228 C 0.065 0.79029 0.09992 0.0
C1229 C 0.12183 0.75601 0.13462 0.0
C1230 C 0.13155 0.74671 0.13149 0.0
C1231 C 0.11417 0.75407 0.14595 0.0
C1232 C 0.11594 0.74291 0.15376 0.0
C1233 C 0.12539 0.73342 0.15039 0.0
C1234 C 0.1333 0.73554 0.13928 0.0
C1235 C 0.06902 0.77717 0.10152 0.0
H1236 H 0.16781 0.78336 0.08926 0.0
H1237 H 0.14994 0.77293 0.10124 0.0
H1238 H 0.13073 0.81055 0.10538 0.0
H1239 H 0.14848 0.82096 0.09312 0.0
H1240 H 0.1399 0.77161 0.12271 0.0
H1241 H 0.11294 0.79538 0.10052 0.0
H1242 H 0.09827 0.76564 0.12663 0.0
H1243 H 0.08452 0.76403 0.10688 0.0
H1244 H 0.09286 0.80546 0.11052 0.0
H1245 H 0.0707 0.81058 0.10289 0.0
H1246 H 0.13752 0.74783 0.12276 0.0
H1247 H 0.10672 0.76115 0.14871 0.0
H1248 H 0.06251 0.76915 0.09898 0.0
H1249 H 0.14065 0.72842 0.1364 0.0
H1250 H 0.1097 0.74158 0.16227 0.0
C1251 C 0.46444 0.81793 0.36188 0.0
C1252 C 0.46087 0.81526 0.34884 0.0
C1253 C 0.46622 0.83088 0.3661 0.0
C1254 C 0.46472 0.84143 0.35728 0.0
C1255 C 0.46108 0.83868 0.34422 0.0
C1256 C 0.45914 0.82575 0.34008 0.0
C1257 C 0.4675 0.85519 0.36146 0.0
C1258 C 0.47806 0.85794 0.36994 0.0
C1259 C 0.48135 0.87094 0.3732 0.0
C1260 C 0.47393 0.88129 0.36789 0.0
C1261 C 0.46339 0.87879 0.35936 0.0
C1262 C 0.46014 0.86571 0.35635 0.0
C1263 C 0.45626 0.88979 0.35293 0.0
C1264 C 0.44258 0.88928 0.35116 0.0
C1265 C 0.46322 0.90063 0.34793 0.0
C1266 C 0.45669 0.91058 0.34109 0.0
C1267 C 0.44306 0.90991 0.33906 0.0
C1268 C 0.49302 0.8737 0.38152 0.0
C1269 C 0.49559 0.86612 0.39278 0.0
C1270 C 0.50197 0.88359 0.37794 0.0
C1271 C 0.51343 0.88558 0.38521 0.0
C1272 C 0.51619 0.87777 0.39626 0.0
C1273 C 0.50704 0.86816 0.40009 0.0
C1274 C 0.43605 0.89922 0.34429 0.0
H1275 H 0.46589 0.80998 0.36882 0.0
H1276 H 0.46885 0.83261 0.37626 0.0
H1277 H 0.46018 0.84647 0.33704 0.0
H1278 H 0.45688 0.82396 0.32984 0.0
H1279 H 0.48414 0.84998 0.37353 0.0
H1280 H 0.45206 0.86374 0.34972 0.0
H1281 H 0.47637 0.89134 0.37043 0.0
H1282 H 0.43691 0.88115 0.35503 0.0
H1283 H 0.47378 0.90125 0.34895 0.0
H1284 H 0.46239 0.91867 0.33718 0.0
H1285 H 0.48881 0.85853 0.39587 0.0
H1286 H 0.50034 0.8895 0.36924 0.0
H1287 H 0.42552 0.89845 0.34296 0.0
H1288 H 0.50885 0.86198 0.40856 0.0
H1289 H 0.52028 0.89306 0.38198 0.0
C1290 C 0.43055 0.20618 0.61476 0.0
C1291 C 0.43299 0.20375 0.60142 0.0
C1292 C 0.41773 0.20831 0.61921 0.0
C1293 C 0.40712 0.20835 0.61034 0.0
C1294 C 0.40964 0.20579 0.59699 0.0
C1295 C 0.42242 0.20345 0.5926 0.0
C1296 C 0.39359 0.21171 0.61484 0.0
C1297 C 0.39164 0.22146 0.62442 0.0
C1298 C 0.37893 0.22539 0.62807 0.0
C1299 C 0.36804 0.21951 0.62198 0.0
C1300 C 0.36976 0.20972 0.61239 0.0
C1301 C 0.38256 0.20579 0.60902 0.0
C1302 C 0.35831 0.20408 0.60531 0.0
C1303 C 0.35792 0.19065 0.60213 0.0
C1304 C 0.34804 0.21225 0.60099 0.0
C1305 C 0.33782 0.20717 0.59337 0.0
C1306 C 0.33766 0.19382 0.58984 0.0
C1307 C 0.37719 0.23616 0.63775 0.0
C1308 C 0.38477 0.23648 0.64927 0.0
C1309 C 0.36854 0.2466 0.63514 0.0
C1310 C 0.36792 0.25741 0.6436 0.0
C1311 C 0.37587 0.25795 0.65488 0.0
C1312 C 0.38409 0.24724 0.65777 0.0
C1313 C 0.34773 0.18558 0.59446 0.0
H1314 H 0.43857 0.20649 0.62175 0.0
H1315 H 0.41618 0.21004 0.62958 0.0
H1316 H 0.40183 0.20607 0.58979 0.0
H1317 H 0.42409 0.20201 0.5822 0.0
H1318 H 0.40002 0.22647 0.62863 0.0
H1319 H 0.38394 0.19832 0.60158 0.0
H1320 H 0.35822 0.22251 0.62477 0.0
H1321 H 0.36557 0.18405 0.60546 0.0
H1322 H 0.34811 0.22267 0.60313 0.0
H1323 H 0.33021 0.21379 0.58998 0.0
H1324 H 0.39141 0.2285 0.6516 0.0
H1325 H 0.36264 0.24667 0.62629 0.0
H1326 H 0.34784 0.17523 0.59202 0.0
H1327 H 0.39032 0.24732 0.66639 0.0
H1328 H 0.36147 0.26549 0.6411 0.0
C1329 C 0.04214 0.18156 0.86806 0.0
C1330 C 0.04433 0.18298 0.85453 0.0
C1331 C 0.03994 0.16913 0.8735 0.0
C1332 C 0.03963 0.15789 0.86546 0.0
C1333 C 0.04192 0.15938 0.8519 0.0
C1334 C 0.04428 0.17178 0.84651 0.0
C1335 C 0.03632 0.14476 0.87102 0.0
C1336 C 0.02658 0.14353 0.88073 0.0
C1337 C 0.02266 0.13113 0.88535 0.0
C1338 C 0.02859 0.11981 0.88013 0.0
C1339 C 0.03834 0.12082 0.8704 0.0
C1340 C 0.04224 0.13333 0.86605 0.0
C1341 C 0.04385 0.10886 0.86407 0.0
C1342 C 0.05722 0.10821 0.8607 0.0
C1343 C 0.03558 0.09838 0.86055 0.0
C1344 C 0.04047 0.08771 0.85344 0.0
C1345 C 0.05374 0.08731 0.84965 0.0
C1346 C 0.01173 0.13008 0.89497 0.0
C1347 C 0.01097 0.13875 0.90568 0.0
C1348 C 0.00152 0.12098 0.89302 0.0
C1349 C 0.99053 0.12097 0.90125 0.0
C1350 C 0.98952 0.13002 0.91163 0.0
C1351 C 1e-05 0.1387 0.91394 0.0
C1352 C 0.06211 0.09757 0.85355 0.0
H1353 H 0.04209 0.19007 0.87444 0.0
H1354 H 0.03839 0.16835 0.88399 0.0
H1355 H 0.04141 0.15104 0.84532 0.0
H1356 H 0.04547 0.17265 0.83598 0.0
H1357 H 0.02156 0.15223 0.88426 0.0
H1358 H 0.04966 0.13415 0.85848 0.0
H1359 H 0.02561 0.11022 0.88365 0.0
H1360 H 0.0639 0.11602 0.86345 0.0
H1361 H 0.0252 0.09864 0.86285 0.0
H1362 H 0.03376 0.07997 0.85061 0.0
H1363 H 0.01877 0.14575 0.90754 0.0
H1364 H 0.00176 0.11424 0.8848 0.0
H1365 H 0.07241 0.0975 0.85089 0.0
H1366 H 0.99957 0.14577 0.92187 0.0
H1367 H 0.98263 0.11415 0.8992 0.0
C1368 C 0.38052 0.07275 0.21036 0.0
C1369 C 0.3935 0.06941 0.20715 0.0
C1370 C 0.37711 0.08582 0.21285 0.0
C1371 C 0.38668 0.0958 0.21242 0.0
C1372 C 0.39965 0.0924 0.20906 0.0
C1373 C 0.40301 0.07936 0.20643 0.0
C1374 C 0.38336 0.10955 0.21616 0.0
C1375 C 0.37485 0.11204 0.22675 0.0
C1376 C 0.37243 0.12493 0.23104 0.0
C1377 C 0.37862 0.13544 0.22459 0.0
C1378 C 0.3872 0.13318 0.21402 0.0
C1379 C 0.38936 0.12022 0.20978 0.0
C1380 C 0.3946 0.14422 0.20794 0.0
C1381 C 0.39675 0.14463 0.19431 0.0
C1382 C 0.40018 0.15406 0.21586 0.0
C1383 C 0.40797 0.1639 0.21031 0.0
C1384 C 0.4104 0.16411 0.19673 0.0
C1385 C 0.36413 0.12727 0.24282 0.0
C1386 C 0.35244 0.12018 0.24471 0.0
C1387 C 0.36823 0.13609 0.25262 0.0
C1388 C 0.36105 0.13745 0.26424 0.0
C1389 C 0.34959 0.13003 0.26631 0.0
C1390 C 0.34523 0.12156 0.25632 0.0
C1391 C 0.40457 0.15446 0.18876 0.0
H1392 H 0.37303 0.06522 0.21104 0.0
H1393 H 0.367 0.08809 0.21524 0.0
H1394 H 0.40736 0.09972 0.20897 0.0
H1395 H 0.41319 0.07701 0.20448 0.0
H1396 H 0.3706 0.10388 0.23211 0.0
H1397 H 0.39605 0.11841 0.20171 0.0
H1398 H 0.37675 0.14541 0.22781 0.0
H1399 H 0.39244 0.1373 0.18792 0.0
H1400 H 0.39888 0.15394 0.22642 0.0
H1401 H 0.41231 0.17118 0.21673 0.0
H1402 H 0.34894 0.11342 0.23728 0.0
H1403 H 0.37726 0.1416 0.25153 0.0
H1404 H 0.40618 0.15438 0.17825 0.0
H1405 H 0.33642 0.11573 0.25758 0.0
H1406 H 0.36468 0.14406 0.27174 0.0
C1407 C 0.18117 0.13357 0.45728 0.0
C1408 C 0.18314 0.14703 0.45505 0.0
C1409 C 0.16849 0.12861 0.4591 0.0
C1410 C 0.15755 0.13706 0.45897 0.0
C1411 C 0.1596 0.15054 0.45665 0.0
C1412 C 0.17225 0.15545 0.45467 0.0
C1413 C 0.14414 0.132 0.46191 0.0
C1414 C 0.14227 0.12246 0.47171 0.0
C1415 C 0.12961 0.11831 0.47528 0.0
C1416 C 0.11867 0.12383 0.46891 0.0
C1417 C 0.12032 0.13337 0.45905 0.0
C1418 C 0.1331 0.13726 0.45553 0.0
C1419 C 0.10879 0.13993 0.45295 0.0
C1420 C 0.10875 0.14304 0.43949 0.0
C1421 C 0.09809 0.1439 0.46073 0.0
C1422 C 0.08781 0.15117 0.45526 0.0
C1423 C 0.08802 0.15468 0.4419 0.0
C1424 C 0.12791 0.10886 0.48626 0.0
C1425 C 0.13613 0.09781 0.48731 0.0
C1426 C 0.11874 0.11131 0.49628 0.0
C1427 C 0.11824 0.10326 0.50741 0.0
C1428 C 0.12688 0.09256 0.50872 0.0
C1429 C 0.1356 0.08974 0.4984 0.0
C1430 C 0.0985 0.15035 0.43403 0.0
H1431 H 0.18944 0.12688 0.45766 0.0
H1432 H 0.16728 0.11816 0.4607 0.0
H1433 H 0.15149 0.15741 0.45682 0.0
H1434 H 0.17354 0.16594 0.45344 0.0
H1435 H 0.15067 0.1187 0.47706 0.0
H1436 H 0.13443 0.14471 0.44805 0.0
H1437 H 0.10888 0.12067 0.47162 0.0
H1438 H 0.11674 0.13995 0.43319 0.0
H1439 H 0.09788 0.14182 0.47116 0.0
H1440 H 0.07988 0.15434 0.4616 0.0
H1441 H 0.14319 0.09558 0.47966 0.0
H1442 H 0.11234 0.1198 0.4958 0.0
H1443 H 0.0989 0.15278 0.42368 0.0
H1444 H 0.14235 0.08154 0.49906 0.0
H1445 H 0.1114 0.1057 0.51517 0.0
C1446 C 0.09419 0.84243 0.70669 0.0
C1447 C 0.09058 0.84253 0.69337 0.0
C1448 C 0.10089 0.85309 0.71217 0.0
C1449 C 0.10415 0.86406 0.70444 0.0
C1450 C 0.10083 0.86401 0.69104 0.0
C1451 C 0.09411 0.85337 0.68557 0.0
C1452 C 0.11042 0.87578 0.71048 0.0
C1453 C 0.1203 0.87439 0.72003 0.0
C1454 C 0.12572 0.88545 0.72625 0.0
C1455 C 0.12116 0.89802 0.72281 0.0
C1456 C 0.1113 0.89959 0.71329 0.0
C1457 C 0.10606 0.88844 0.70713 0.0
C1458 C 0.10592 0.9128 0.71027 0.0
C1459 C 0.10242 0.92138 0.72047 0.0
C1460 C 0.1039 0.91676 0.6972 0.0
C1461 C 0.09838 0.92902 0.6944 0.0
C1462 C 0.09452 0.93745 0.70461 0.0
C1463 C 0.13574 0.88391 0.73675 0.0
C1464 C 0.13408 0.87445 0.74668 0.0
C1465 C 0.14671 0.89226 0.73726 0.0
C1466 C 0.15564 0.89142 0.74767 0.0
C1467 C 0.15372 0.88227 0.75784 0.0
C1468 C 0.14295 0.87366 0.75712 0.0
C1469 C 0.09677 0.93357 0.71768 0.0
H1470 H 0.09163 0.83424 0.71298 0.0
H1471 H 0.10316 0.85288 0.72256 0.0
H1472 H 0.10336 0.87223 0.68478 0.0
H1473 H 0.09155 0.85372 0.67525 0.0
H1474 H 0.12386 0.86467 0.72256 0.0
H1475 H 0.09813 0.88962 0.70012 0.0
H1476 H 0.12511 0.9066 0.72771 0.0
H1477 H 0.10376 0.91855 0.73064 0.0
H1478 H 0.10675 0.91042 0.68914 0.0
H1479 H 0.09742 0.93197 0.68425 0.0
H1480 H 0.12566 0.86794 0.74661 0.0
H1481 H 0.14834 0.89954 0.72967 0.0
H1482 H 0.09399 0.93988 0.72577 0.0
H1483 H 0.14119 0.8665 0.7648 0.0
H1484 H 0.16384 0.89818 0.7479 0.0
C1485 C 0.31744 0.86421 0.96397 0.0
C1486 C 0.31531 0.85101 0.96062 0.0
C1487 C 0.33019 0.8689 0.96607 0.0
C1488 C 0.34105 0.8604 0.96511 0.0
C1489 C 0.33883 0.84717 0.96172 0.0
C1490 C 0.32612 0.84256 0.95945 0.0
C1491 C 0.35459 0.86511 0.96814 0.0
C1492 C 0.3568 0.87399 0.9785 0.0
C1493 C 0.36961 0.87775 0.98202 0.0
C1494 C 0.3803 0.87255 0.97503 0.0
C1495 C 0.37833 0.8636 0.96472 0.0
C1496 C 0.36545 0.86011 0.96123 0.0
C1497 C 0.3897 0.85719 0.95818 0.0
C1498 C 0.38962 0.85481 0.94458 0.0
C1499 C 0.40043 0.85274 0.96565 0.0
C1500 C 0.41068 0.84582 0.95973 0.0
C1501 C 0.41042 0.84314 0.94619 0.0
C1502 C 0.37184 0.88647 0.99352 0.0
C1503 C 0.36381 0.89749 0.99569 0.0
C1504 C 0.38174 0.88352 0.00269 0.0
C1505 C 0.38334 0.8912 0.01395 0.0
C1506 C 0.37509 0.90202 0.01629 0.0
C1507 C 0.36544 0.9052 0.00694 0.0
C1508 C 0.39986 0.84785 0.93865 0.0
H1509 H 0.30923 0.87091 0.965 0.0
H1510 H 0.33151 0.87916 0.9685 0.0
H1511 H 0.34686 0.84022 0.96125 0.0
H1512 H 0.32473 0.83222 0.95737 0.0
H1513 H 0.34858 0.8775 0.98426 0.0
H1514 H 0.36389 0.85317 0.95332 0.0
H1515 H 0.39019 0.87546 0.97763 0.0
H1516 H 0.38159 0.85826 0.93851 0.0
H1517 H 0.40072 0.85423 0.97618 0.0
H1518 H 0.41867 0.84233 0.96583 0.0
H1519 H 0.35621 0.9001 0.98873 0.0
H1520 H 0.38799 0.87502 0.00139 0.0
H1521 H 0.39941 0.84604 0.92818 0.0
H1522 H 0.35893 0.91348 0.00844 0.0
H1523 H 0.39085 0.88846 0.02096 0.0
C1524 C 0.38052 0.92678 0.28916 0.0
C1525 C 0.3935 0.93012 0.29236 0.0
C1526 C 0.37711 0.91371 0.28667 0.0
C1527 C 0.38668 0.90373 0.28709 0.0
C1528 C 0.39965 0.90713 0.29045 0.0
C1529 C 0.40301 0.92016 0.29308 0.0
C1530 C 0.38336 0.88998 0.28335 0.0
C1531 C 0.37485 0.88749 0.27277 0.0
C1532 C 0.37243 0.8746 0.26847 0.0
C1533 C 0.37862 0.86409 0.27493 0.0
C1534 C 0.3872 0.86635 0.2855 0.0
C1535 C 0.38936 0.8793 0.28974 0.0
C1536 C 0.3946 0.85531 0.29157 0.0
C1537 C 0.39675 0.8549 0.30521 0.0
C1538 C 0.40018 0.84547 0.28366 0.0
C1539 C 0.40797 0.83563 0.2892 0.0
C1540 C 0.4104 0.83542 0.30279 0.0
C1541 C 0.36413 0.87226 0.25669 0.0
C1542 C 0.35244 0.87935 0.2548 0.0
C1543 C 0.36823 0.86343 0.2469 0.0
C1544 C 0.36105 0.86208 0.23528 0.0
C1545 C 0.34959 0.8695 0.23321 0.0
C1546 C 0.34523 0.87797 0.2432 0.0
C1547 C 0.40457 0.84507 0.31075 0.0
H1548 H 0.37303 0.9343 0.28848 0.0
H1549 H 0.367 0.91144 0.28427 0.0
H1550 H 0.40736 0.89981 0.29055 0.0
H1551 H 0.41319 0.92252 0.29503 0.0
H1552 H 0.3706 0.89565 0.2674 0.0
H1553 H 0.39605 0.88111 0.2978 0.0
H1554 H 0.37675 0.85412 0.2717 0.0
H1555 H 0.39244 0.86223 0.3116 0.0
H1556 H 0.39888 0.84559 0.2731 0.0
H1557 H 0.41231 0.82834 0.28278 0.0
H1558 H 0.34894 0.8861 0.26224 0.0
H1559 H 0.37727 0.85793 0.24799 0.0
H1560 H 0.40618 0.84514 0.32127 0.0
H1561 H 0.33642 0.8838 0.24193 0.0
H1562 H 0.36468 0.85547 0.22778 0.0
C1563 C 0.31744 0.13532 0.53555 0.0
C1564 C 0.31531 0.14852 0.5389 0.0
C1565 C 0.33019 0.13063 0.53345 0.0
C1566 C 0.34105 0.13913 0.5344 0.0
C1567 C 0.33883 0.15235 0.5378 0.0
C1568 C 0.32612 0.15697 0.54006 0.0
C1569 C 0.35459 0.13442 0.53137 0.0
C1570 C 0.3568 0.12554 0.52102 0.0
C1571 C 0.36961 0.12178 0.5175 0.0
C1572 C 0.3803 0.12698 0.52449 0.0
C1573 C 0.37833 0.13593 0.53479 0.0
C1574 C 0.36545 0.13942 0.53829 0.0
C1575 C 0.3897 0.14234 0.54134 0.0
C1576 C 0.38962 0.14471 0.55494 0.0
C1577 C 0.40043 0.14679 0.53386 0.0
C1578 C 0.41068 0.1537 0.53979 0.0
C1579 C 0.41042 0.15638 0.55332 0.0
C1580 C 0.37184 0.11306 0.506 0.0
C1581 C 0.36381 0.10204 0.50383 0.0
C1582 C 0.38174 0.116 0.49682 0.0
C1583 C 0.38334 0.10833 0.48557 0.0
C1584 C 0.37509 0.09751 0.48322 0.0
C1585 C 0.36544 0.09433 0.49257 0.0
C1586 C 0.39986 0.15167 0.56087 0.0
H1587 H 0.30923 0.12862 0.53452 0.0
H1588 H 0.33151 0.12036 0.53102 0.0
H1589 H 0.34686 0.1593 0.53827 0.0
H1590 H 0.32473 0.1673 0.54215 0.0
H1591 H 0.34858 0.12203 0.51525 0.0
H1592 H 0.36389 0.14636 0.5462 0.0
H1593 H 0.39019 0.12406 0.52189 0.0
H1594 H 0.38159 0.14127 0.561 0.0
H1595 H 0.40072 0.1453 0.52333 0.0
H1596 H 0.41867 0.1572 0.53369 0.0
H1597 H 0.35621 0.09942 0.51079 0.0
H1598 H 0.38799 0.12451 0.49812 0.0
H1599 H 0.39941 0.15349 0.57134 0.0
H1600 H 0.35893 0.08605 0.49107 0.0
H1601 H 0.39085 0.11107 0.47855 0.0
C1602 C 0.09419 0.15709 0.79282 0.0
C1603 C 0.09058 0.15699 0.80615 0.0
C1604 C 0.10089 0.14644 0.78734 0.0
C1605 C 0.10415 0.13546 0.79507 0.0
C1606 C 0.10083 0.13552 0.80847 0.0
C1607 C 0.09411 0.14616 0.81395 0.0
C1608 C 0.11042 0.12374 0.78903 0.0
C1609 C 0.1203 0.12514 0.77949 0.0
C1610 C 0.12572 0.11408 0.77327 0.0
C1611 C 0.12116 0.1015 0.77671 0.0
C1612 C 0.1113 0.09993 0.78622 0.0
C1613 C 0.10606 0.11108 0.79239 0.0
C1614 C 0.10592 0.08673 0.78924 0.0
C1615 C 0.10242 0.07815 0.77904 0.0
C1616 C 0.1039 0.08277 0.80231 0.0
C1617 C 0.09838 0.0705 0.80512 0.0
C1618 C 0.09452 0.06207 0.7949 0.0
C1619 C 0.13574 0.11562 0.76276 0.0
C1620 C 0.13408 0.12508 0.75284 0.0
C1621 C 0.14671 0.10727 0.76225 0.0
C1622 C 0.15564 0.10811 0.75185 0.0
C1623 C 0.15372 0.11726 0.74168 0.0
C1624 C 0.14295 0.12587 0.74239 0.0
C1625 C 0.09677 0.06596 0.78184 0.0
H1626 H 0.09163 0.16529 0.78654 0.0
H1627 H 0.10316 0.14664 0.77695 0.0
H1628 H 0.10336 0.1273 0.81474 0.0
H1629 H 0.09155 0.14581 0.82427 0.0
H1630 H 0.12386 0.13485 0.77696 0.0
H1631 H 0.09813 0.10991 0.79939 0.0
H1632 H 0.12511 0.09292 0.77181 0.0
H1633 H 0.10376 0.08098 0.76887 0.0
H1634 H 0.10675 0.08911 0.81037 0.0
H1635 H 0.09742 0.06755 0.81527 0.0
H1636 H 0.12566 0.13158 0.7529 0.0
H1637 H 0.14834 0.09999 0.76985 0.0
H1638 H 0.09399 0.05964 0.77374 0.0
H1639 H 0.14119 0.13303 0.73472 0.0
H1640 H 0.16384 0.10134 0.75161 0.0
C1641 C 0.18117 0.86596 0.04223 0.0
C1642 C 0.18314 0.8525 0.04446 0.0
C1643 C 0.16849 0.87092 0.04042 0.0
C1644 C 0.15755 0.86247 0.04054 0.0
C1645 C 0.1596 0.84899 0.04287 0.0
C1646 C 0.17225 0.84408 0.04484 0.0
C1647 C 0.14414 0.86753 0.03761 0.0
C1648 C 0.14227 0.87707 0.02781 0.0
C1649 C 0.12961 0.88122 0.02424 0.0
C1650 C 0.11867 0.8757 0.03061 0.0
C1651 C 0.12032 0.86616 0.04047 0.0
C1652 C 0.1331 0.86226 0.04398 0.0
C1653 C 0.10879 0.85959 0.04656 0.0
C1654 C 0.10875 0.85649 0.06002 0.0
C1655 C 0.09809 0.85562 0.03879 0.0
C1656 C 0.08781 0.84835 0.04426 0.0
C1657 C 0.08802 0.84485 0.05761 0.0
C1658 C 0.12791 0.89067 0.01325 0.0
C1659 C 0.13613 0.90171 0.0122 0.0
C1660 C 0.11874 0.88822 0.00324 0.0
C1661 C 0.11824 0.89626 0.99211 0.0
C1662 C 0.12688 0.90697 0.9908 0.0
C1663 C 0.1356 0.90979 0.00112 0.0
C1664 C 0.0985 0.84918 0.06548 0.0
H1665 H 0.18944 0.87264 0.04185 0.0
H1666 H 0.16728 0.88137 0.03882 0.0
H1667 H 0.15149 0.84212 0.0427 0.0
H1668 H 0.17354 0.83359 0.04607 0.0
H1669 H 0.15067 0.88082 0.02245 0.0
H1670 H 0.13443 0.85482 0.05147 0.0
H1671 H 0.10888 0.87886 0.02789 0.0
H1672 H 0.11674 0.85958 0.06633 0.0
H1673 H 0.09788 0.85771 0.02836 0.0
H1674 H 0.07988 0.84519 0.03792 0.0
H1675 H 0.14319 0.90395 0.01985 0.0
H1676 H 0.11234 0.87973 0.00372 0.0
H1677 H 0.0989 0.84675 0.07583 0.0
H1678 H 0.14235 0.91799 0.00045 0.0
H1679 H 0.1114 0.89383 0.98434 0.0
C1680 C 0.20792 0.38304 0.06582 0.0
C1681 C 0.20541 0.3964 0.06354 0.0
C1682 C 0.2099 0.37841 0.0786 0.0
C1683 C 0.2097 0.38711 0.08934 0.0
C1684 C 0.20706 0.40048 0.08699 0.0
C1685 C 0.20487 0.40506 0.07423 0.0
C1686 C 0.2129 0.38242 0.10285 0.0
C1687 C 0.22272 0.37292 0.10481 0.0
C1688 C 0.22649 0.36908 0.11752 0.0
C1689 C 0.22037 0.37492 0.12841 0.0
C1690 C 0.21049 0.38441 0.12669 0.0
C1691 C 0.20674 0.38798 0.11388 0.0
C1692 C 0.20454 0.39119 0.13817 0.0
C1693 C 0.19105 0.39414 0.13838 0.0
C1694 C 0.21244 0.39542 0.14867 0.0
C1695 C 0.20705 0.40274 0.15895 0.0
C1696 C 0.19365 0.40604 0.15895 0.0
C1697 C 0.23733 0.35949 0.11927 0.0
C1698 C 0.23784 0.34806 0.11156 0.0
C1699 C 0.24765 0.36209 0.12806 0.0
C1700 C 0.25853 0.35373 0.1287 0.0
C1701 C 0.25925 0.34254 0.12064 0.0
C1702 C 0.24866 0.33964 0.11228 0.0
C1703 C 0.18567 0.4015 0.14864 0.0
H1704 H 0.20841 0.37618 0.0577 0.0
H1705 H 0.21169 0.36802 0.08003 0.0
H1706 H 0.20715 0.40756 0.09492 0.0
H1707 H 0.20338 0.41548 0.0727 0.0
H1708 H 0.22792 0.3689 0.09644 0.0
H1709 H 0.1992 0.39536 0.1125 0.0
H1710 H 0.22324 0.37199 0.13823 0.0
H1711 H 0.18465 0.39086 0.13055 0.0
H1712 H 0.22289 0.39345 0.14874 0.0
H1713 H 0.21348 0.40608 0.16675 0.0
H1714 H 0.22995 0.34574 0.10481 0.0
H1715 H 0.24756 0.37088 0.13405 0.0
H1716 H 0.17528 0.40377 0.14839 0.0
H1717 H 0.24888 0.33109 0.10596 0.0
H1718 H 0.26652 0.35622 0.13526 0.0
C1719 C 0.70792 0.11649 0.9337 0.0
C1720 C 0.70541 0.10313 0.93598 0.0
C1721 C 0.7099 0.12112 0.92092 0.0
C1722 C 0.7097 0.11242 0.91017 0.0
C1723 C 0.70706 0.09904 0.91253 0.0
C1724 C 0.70487 0.09447 0.92528 0.0
C1725 C 0.7129 0.1171 0.89667 0.0
C1726 C 0.72272 0.12661 0.89471 0.0
C1727 C 0.72649 0.13044 0.882 0.0
C1728 C 0.72037 0.12461 0.8711 0.0
C1729 C 0.71049 0.11511 0.87283 0.0
C1730 C 0.70674 0.11155 0.88564 0.0
C1731 C 0.70454 0.10834 0.86134 0.0
C1732 C 0.69105 0.10538 0.86113 0.0
C1733 C 0.71244 0.10411 0.85084 0.0
C1734 C 0.70705 0.09678 0.84056 0.0
C1735 C 0.69365 0.09349 0.84057 0.0
C1736 C 0.73733 0.14003 0.88024 0.0
C1737 C 0.73784 0.15147 0.88795 0.0
C1738 C 0.74765 0.13743 0.87146 0.0
C1739 C 0.75853 0.1458 0.87082 0.0
C1740 C 0.75925 0.15699 0.87888 0.0
C1741 C 0.74866 0.15989 0.88724 0.0
C1742 C 0.68567 0.09803 0.85088 0.0
H1743 H 0.70841 0.12334 0.94181 0.0
H1744 H 0.71169 0.1315 0.91949 0.0
H1745 H 0.70715 0.09197 0.9046 0.0
H1746 H 0.70338 0.08405 0.92681 0.0
H1747 H 0.72792 0.13063 0.90308 0.0
H1748 H 0.6992 0.10417 0.88701 0.0
H1749 H 0.72324 0.12754 0.86128 0.0
H1750 H 0.68465 0.10867 0.86897 0.0
H1751 H 0.72289 0.10608 0.85077 0.0
H1752 H 0.71348 0.09345 0.83276 0.0
H1753 H 0.72995 0.15379 0.8947 0.0
H1754 H 0.74756 0.12865 0.86546 0.0
H1755 H 0.67528 0.09576 0.85113 0.0
H1756 H 0.74888 0.16844 0.89355 0.0
H1757 H 0.76652 0.14331 0.86426 0.0
C1758 C 0.13465 0.45989 0.17884 0.0
C1759 C 0.14772 0.45627 0.18131 0.0
C1760 C 0.13044 0.46248 0.16602 0.0
C1761 C 0.1393 0.46174 0.15543 0.0
C1762 C 0.15237 0.45802 0.15797 0.0
C1763 C 0.15651 0.45528 0.17076 0.0
C1764 C 0.13513 0.46539 0.14187 0.0
C1765 C 0.12661 0.47607 0.13979 0.0
C1766 C 0.12335 0.48017 0.12701 0.0
C1767 C 0.1287 0.47345 0.11622 0.0
C1768 C 0.13728 0.4628 0.11808 0.0
C1769 C 0.14028 0.45874 0.13093 0.0
C1770 C 0.1438 0.45643 0.10668 0.0
C1771 C 0.14572 0.44275 0.10638 0.0
C1772 C 0.14882 0.46409 0.09634 0.0
C1773 C 0.15585 0.45826 0.08611 0.0
C1774 C 0.15808 0.44464 0.08601 0.0
C1775 C 0.115 0.49197 0.12498 0.0
C1776 C 0.10377 0.49407 0.13274 0.0
C1777 C 0.11852 0.50151 0.11563 0.0
C1778 C 0.1112 0.51306 0.11433 0.0
C1779 C 0.10019 0.51531 0.12233 0.0
C1780 C 0.09643 0.5056 0.13141 0.0
C1781 C 0.15279 0.43693 0.09617 0.0
H1782 H 0.12769 0.46078 0.18684 0.0
H1783 H 0.12027 0.46514 0.16443 0.0
H1784 H 0.15958 0.45768 0.15016 0.0
H1785 H 0.16676 0.45298 0.17244 0.0
H1786 H 0.12299 0.48162 0.14811 0.0
H1787 H 0.14695 0.45058 0.13241 0.0
H1788 H 0.12618 0.47651 0.10634 0.0
H1789 H 0.14183 0.43655 0.1141 0.0
H1790 H 0.14768 0.47467 0.09635 0.0
H1791 H 0.15979 0.4645 0.07844 0.0
H1792 H 0.10072 0.48683 0.13992 0.0
H1793 H 0.12719 0.50026 0.1096 0.0
H1794 H 0.15425 0.42639 0.09633 0.0
H1795 H 0.08798 0.50702 0.13771 0.0
H1796 H 0.11438 0.52034 0.10726 0.0
C1797 C 0.78953 0.88634 0.42691 0.0
C1798 C 0.79308 0.89947 0.42913 0.0
C1799 C 0.78672 0.88193 0.4142 0.0
C1800 C 0.78719 0.89065 0.40348 0.0
C1801 C 0.7907 0.90383 0.40578 0.0
C1802 C 0.79365 0.90817 0.41845 0.0
C1803 C 0.78364 0.88619 0.38999 0.0
C1804 C 0.77312 0.87746 0.388 0.0
C1805 C 0.76918 0.8739 0.37525 0.0
C1806 C 0.77593 0.87915 0.36442 0.0
C1807 C 0.7864 0.88794 0.36619 0.0
C1808 C 0.79029 0.89125 0.379 0.0
C1809 C 0.79272 0.8944 0.35471 0.0
C1810 C 0.80635 0.89663 0.35447 0.0
C1811 C 0.78503 0.89908 0.34424 0.0
C1812 C 0.79076 0.90612 0.33395 0.0
C1813 C 0.80432 0.90869 0.33393 0.0
C1814 C 0.75752 0.86535 0.37324 0.0
C1815 C 0.75544 0.85424 0.38119 0.0
C1816 C 0.74812 0.86851 0.36363 0.0
C1817 C 0.73676 0.86095 0.36221 0.0
C1818 C 0.73454 0.85002 0.37036 0.0
C1819 C 0.74409 0.84664 0.37975 0.0
C1820 C 0.81208 0.90371 0.3442 0.0
H1821 H 0.78895 0.87946 0.43501 0.0
H1822 H 0.78418 0.8717 0.41279 0.0
H1823 H 0.7908 0.91093 0.39787 0.0
H1824 H 0.79585 0.91846 0.41994 0.0
H1825 H 0.76758 0.87389 0.39636 0.0
H1826 H 0.79832 0.89808 0.38041 0.0
H1827 H 0.77301 0.87638 0.35456 0.0
H1828 H 0.81258 0.89299 0.36229 0.0
H1829 H 0.77448 0.8977 0.3442 0.0
H1830 H 0.7845 0.90981 0.32619 0.0
H1831 H 0.76257 0.85147 0.38858 0.0
H1832 H 0.74933 0.87709 0.35745 0.0
H1833 H 0.82258 0.90544 0.34443 0.0
H1834 H 0.74268 0.83828 0.38618 0.0
H1835 H 0.72959 0.86384 0.3549 0.0
C1836 C 0.84675 0.04075 0.09413 0.0
C1837 C 0.84269 0.05393 0.09468 0.0
C1838 C 0.85392 0.03521 0.10445 0.0
C1839 C 0.85724 0.04274 0.11554 0.0
C1840 C 0.85342 0.05601 0.11595 0.0
C1841 C 0.84622 0.06154 0.10565 0.0
C1842 C 0.86409 0.03659 0.12688 0.0
C1843 C 0.87417 0.02735 0.12489 0.0
C1844 C 0.88005 0.02087 0.13557 0.0
C1845 C 0.87579 0.02379 0.14837 0.0
C1846 C 0.86575 0.03298 0.15056 0.0
C1847 C 0.86003 0.03941 0.13978 0.0
C1848 C 0.86059 0.03523 0.16401 0.0
C1849 C 0.85778 0.02452 0.17224 0.0
C1850 C 0.85809 0.04801 0.16857 0.0
C1851 C 0.85273 0.05002 0.18107 0.0
C1852 C 0.84953 0.03928 0.18913 0.0
C1853 C 0.89003 0.01043 0.13343 0.0
C1854 C 0.8881 0.0008 0.12372 0.0
C1855 C 0.90108 0.00949 0.14165 0.0
C1856 C 0.90967 0.99883 0.14059 0.0
C1857 C 0.90738 0.98887 0.13132 0.0
C1858 C 0.89667 0.99013 0.12269 0.0
C1859 C 0.85233 0.02652 0.18466 0.0
H1860 H 0.84419 0.0346 0.08584 0.0
H1861 H 0.85653 0.02491 0.10388 0.0
H1862 H 0.85596 0.06212 0.12427 0.0
H1863 H 0.84332 0.07175 0.10635 0.0
H1864 H 0.87747 0.0252 0.115 0.0
H1865 H 0.85194 0.04613 0.14142 0.0
H1866 H 0.88007 0.01866 0.15666 0.0
H1867 H 0.85949 0.01454 0.16895 0.0
H1868 H 0.86039 0.05646 0.16252 0.0
H1869 H 0.85131 0.05998 0.18446 0.0
H1870 H 0.87962 0.00119 0.11731 0.0
H1871 H 0.90293 0.01686 0.14909 0.0
H1872 H 0.85004 0.01803 0.19067 0.0
H1873 H 0.89463 0.98262 0.11543 0.0
H1874 H 0.91786 0.9982 0.14735 0.0
C1875 C 0.28953 0.61319 0.5726 0.0
C1876 C 0.29308 0.60005 0.57039 0.0
C1877 C 0.28672 0.61759 0.58531 0.0
C1878 C 0.28719 0.60888 0.59604 0.0
C1879 C 0.2907 0.5957 0.59373 0.0
C1880 C 0.29365 0.59136 0.58106 0.0
C1881 C 0.28364 0.61333 0.60952 0.0
C1882 C 0.27312 0.62207 0.61152 0.0
C1883 C 0.26918 0.62562 0.62427 0.0
C1884 C 0.27593 0.62038 0.6351 0.0
C1885 C 0.2864 0.61158 0.63333 0.0
C1886 C 0.29029 0.60828 0.62052 0.0
C1887 C 0.29272 0.60513 0.6448 0.0
C1888 C 0.30635 0.6029 0.64504 0.0
C1889 C 0.28503 0.60045 0.65528 0.0
C1890 C 0.29077 0.59341 0.66556 0.0
C1891 C 0.30432 0.59083 0.66559 0.0
C1892 C 0.25752 0.63418 0.62627 0.0
C1893 C 0.25544 0.64528 0.61832 0.0
C1894 C 0.24812 0.63101 0.63588 0.0
C1895 C 0.23676 0.63858 0.6373 0.0
C1896 C 0.23454 0.64951 0.62916 0.0
C1897 C 0.24409 0.65288 0.61977 0.0
C1898 C 0.31208 0.59581 0.65531 0.0
H1899 H 0.28895 0.62007 0.5645 0.0
H1900 H 0.28418 0.62783 0.58673 0.0
H1901 H 0.2908 0.5886 0.60165 0.0
H1902 H 0.29585 0.58107 0.57957 0.0
H1903 H 0.26758 0.62563 0.60316 0.0
H1904 H 0.29832 0.60144 0.6191 0.0
H1905 H 0.27301 0.62315 0.64495 0.0
H1906 H 0.31258 0.60654 0.63722 0.0
H1907 H 0.27448 0.60183 0.65532 0.0
H1908 H 0.2845 0.58971 0.67332 0.0
H1909 H 0.26257 0.64806 0.61093 0.0
H1910 H 0.24933 0.62244 0.64206 0.0
H1911 H 0.32258 0.59409 0.65509 0.0
H1912 H 0.24268 0.66125 0.61334 0.0
H1913 H 0.22959 0.63569 0.64461 0.0
C1914 C 0.13465 0.53964 0.32068 0.0
C1915 C 0.14772 0.54326 0.3182 0.0
C1916 C 0.13044 0.53705 0.3335 0.0
C1917 C 0.1393 0.53779 0.34409 0.0
C1918 C 0.15237 0.54151 0.34154 0.0
C1919 C 0.15651 0.54425 0.32875 0.0
C1920 C 0.13513 0.53414 0.35764 0.0
C1921 C 0.12661 0.52346 0.35973 0.0
C1922 C 0.12335 0.51936 0.37251 0.0
C1923 C 0.1287 0.52608 0.38329 0.0
C1924 C 0.13728 0.53673 0.38143 0.0
C1925 C 0.14028 0.54079 0.36858 0.0
C1926 C 0.1438 0.5431 0.39283 0.0
C1927 C 0.14572 0.55678 0.39313 0.0
C1928 C 0.14882 0.53543 0.40317 0.0
C1929 C 0.15585 0.54126 0.41341 0.0
C1930 C 0.15808 0.55488 0.41351 0.0
C1931 C 0.115 0.50755 0.37454 0.0
C1932 C 0.10377 0.50546 0.36678 0.0
C1933 C 0.11852 0.49801 0.38388 0.0
C1934 C 0.1112 0.48647 0.38518 0.0
C1935 C 0.10019 0.48421 0.37718 0.0
C1936 C 0.09643 0.49393 0.36811 0.0
C1937 C 0.15279 0.5626 0.40335 0.0
H1938 H 0.12769 0.53875 0.31267 0.0
H1939 H 0.12027 0.53438 0.33509 0.0
H1940 H 0.15958 0.54184 0.34935 0.0
H1941 H 0.16676 0.54654 0.32708 0.0
H1942 H 0.12299 0.51791 0.35141 0.0
H1943 H 0.14695 0.54894 0.3671 0.0
H1944 H 0.12618 0.52302 0.39317 0.0
H1945 H 0.14183 0.56298 0.38541 0.0
H1946 H 0.14768 0.52486 0.40316 0.0
H1947 H 0.15979 0.53503 0.42108 0.0
H1948 H 0.10072 0.5127 0.3596 0.0
H1949 H 0.12719 0.49926 0.38991 0.0
H1950 H 0.15425 0.57314 0.40318 0.0
H1951 H 0.08798 0.49251 0.36181 0.0
H1952 H 0.11438 0.47918 0.39226 0.0
C1953 C 0.34675 0.45878 0.90538 0.0
C1954 C 0.34269 0.4456 0.90483 0.0
C1955 C 0.35392 0.46432 0.89507 0.0
C1956 C 0.35724 0.45679 0.88398 0.0
C1957 C 0.35342 0.44352 0.88357 0.0
C1958 C 0.34622 0.43799 0.89387 0.0
C1959 C 0.36409 0.46294 0.87263 0.0
C1960 C 0.37417 0.47218 0.87463 0.0
C1961 C 0.38005 0.47866 0.86394 0.0
C1962 C 0.37579 0.47573 0.85114 0.0
C1963 C 0.36575 0.46654 0.84896 0.0
C1964 C 0.36003 0.46012 0.85974 0.0
C1965 C 0.36059 0.4643 0.83551 0.0
C1966 C 0.35778 0.47501 0.82727 0.0
C1967 C 0.35809 0.45152 0.83094 0.0
C1968 C 0.35273 0.44951 0.81845 0.0
C1969 C 0.34953 0.46025 0.81039 0.0
C1970 C 0.39003 0.48909 0.86609 0.0
C1971 C 0.3881 0.49872 0.87579 0.0
C1972 C 0.40108 0.49004 0.85787 0.0
C1973 C 0.40967 0.50069 0.85893 0.0
C1974 C 0.40738 0.51066 0.8682 0.0
C1975 C 0.39667 0.5094 0.87682 0.0
C1976 C 0.35233 0.47301 0.81485 0.0
H1977 H 0.34419 0.46493 0.91368 0.0
H1978 H 0.35653 0.47462 0.89563 0.0
H1979 H 0.35596 0.4374 0.87524 0.0
H1980 H 0.34332 0.42778 0.89317 0.0
H1981 H 0.37747 0.47433 0.88451 0.0
H1982 H 0.35194 0.4534 0.8581 0.0
H1983 H 0.38007 0.48087 0.84285 0.0
H1984 H 0.35949 0.48498 0.83056 0.0
H1985 H 0.36039 0.44307 0.837 0.0
H1986 H 0.35131 0.43955 0.81506 0.0
H1987 H 0.37962 0.49833 0.88221 0.0
H1988 H 0.40293 0.48267 0.85043 0.0
H1989 H 0.35004 0.48149 0.80885 0.0
H1990 H 0.39463 0.5169 0.88408 0.0
H1991 H 0.41786 0.50133 0.85217 0.0
C1992 C 0.93406 0.82661 0.59799 0.0
C1993 C 0.93023 0.83974 0.59985 0.0
C1994 C 0.92898 0.81666 0.60596 0.0
C1995 C 0.91996 0.81961 0.61598 0.0
C1996 C 0.91643 0.83279 0.6181 0.0
C1997 C 0.92151 0.84275 0.61013 0.0
C1998 C 0.91375 0.80888 0.6237 0.0
C1999 C 0.92114 0.79804 0.62788 0.0
C2000 C 0.91514 0.78732 0.6342 0.0
C2001 C 0.90151 0.78767 0.63657 0.0
C2002 C 0.89401 0.79859 0.63267 0.0
C2003 C 0.90022 0.80911 0.62624 0.0
C2004 C 0.87953 0.79885 0.63432 0.0
C2005 C 0.8718 0.78816 0.63027 0.0
C2006 C 0.87327 0.81042 0.63848 0.0
C2007 C 0.85965 0.81167 0.63762 0.0
C2008 C 0.85198 0.80139 0.63251 0.0
C2009 C 0.92322 0.7758 0.63816 0.0
C2010 C 0.93341 0.77132 0.62998 0.0
C2011 C 0.92123 0.76956 0.65033 0.0
C2012 C 0.92958 0.75941 0.65441 0.0
C2013 C 0.94011 0.75538 0.64644 0.0
C2014 C 0.94179 0.7613 0.63409 0.0
C2015 C 0.85814 0.78942 0.62937 0.0
H2016 H 0.94075 0.82394 0.59016 0.0
H2017 H 0.93179 0.80659 0.60396 0.0
H2018 H 0.90963 0.8354 0.62586 0.0
H2019 H 0.9184 0.85277 0.61187 0.0
H2020 H 0.93166 0.79802 0.62627 0.0
H2021 H 0.89436 0.81725 0.62265 0.0
H2022 H 0.89672 0.77941 0.64127 0.0
H2023 H 0.87636 0.77914 0.62697 0.0
H2024 H 0.87898 0.81874 0.64186 0.0
H2025 H 0.85522 0.82097 0.64028 0.0
H2026 H 0.93501 0.77568 0.6204 0.0
H2027 H 0.91353 0.7728 0.6569 0.0
H2028 H 0.85252 0.78128 0.62546 0.0
H2029 H 0.94971 0.75831 0.62766 0.0
H2030 H 0.92803 0.75504 0.66398 0.0
C2031 C 0.94991 0.10917 0.37858 0.0
C2032 C 0.94757 0.1015 0.36733 0.0
C2033 C 0.95393 0.12228 0.37735 0.0
C2034 C 0.95554 0.12793 0.36487 0.0
C2035 C 0.95408 0.12001 0.35369 0.0
C2036 C 0.95021 0.10692 0.3549 0.0
C2037 C 0.95702 0.14234 0.36341 0.0
C2038 C 0.96668 0.14933 0.37034 0.0
C2039 C 0.96743 0.16313 0.36936 0.0
C2040 C 0.95813 0.16981 0.36159 0.0
C2041 C 0.94852 0.16292 0.35455 0.0
C2042 C 0.94811 0.14919 0.35543 0.0
C2043 C 0.93854 0.17002 0.34668 0.0
C2044 C 0.9317 0.18073 0.35204 0.0
C2045 C 0.93537 0.16574 0.33396 0.0
C2046 C 0.92531 0.17181 0.32687 0.0
C2047 C 0.91811 0.18221 0.33242 0.0
C2048 C 0.97773 0.17069 0.37649 0.0
C2049 C 0.98182 0.16698 0.38917 0.0
C2050 C 0.98326 0.18202 0.3708 0.0
C2051 C 0.99216 0.18974 0.37778 0.0
C2052 C 0.996 0.18618 0.39053 0.0
C2053 C 0.99095 0.1746 0.39607 0.0
C2054 C 0.92154 0.18673 0.34501 0.0
H2055 H 0.94803 0.10527 0.3883 0.0
H2056 H 0.95495 0.12821 0.38613 0.0
H2057 H 0.95539 0.12413 0.34396 0.0
H2058 H 0.94862 0.10128 0.34603 0.0
H2059 H 0.97369 0.14397 0.37628 0.0
H2060 H 0.94044 0.14385 0.35033 0.0
H2061 H 0.95828 0.18044 0.36104 0.0
H2062 H 0.93389 0.18417 0.36187 0.0
H2063 H 0.94059 0.15758 0.32954 0.0
H2064 H 0.92294 0.16808 0.3172 0.0
H2065 H 0.9777 0.15842 0.39394 0.0
H2066 H 0.98066 0.18501 0.36093 0.0
H2067 H 0.91621 0.19473 0.34956 0.0
H2068 H 0.99371 0.17164 0.40591 0.0
H2069 H 0.99604 0.19853 0.37319 0.0
C2070 C 0.5697 0.1728 0.09583 0.0
C2071 C 0.57155 0.15961 0.09949 0.0
C2072 C 0.57565 0.1829 0.10295 0.0
C2073 C 0.58367 0.18002 0.11381 0.0
C2074 C 0.58535 0.16686 0.11761 0.0
C2075 C 0.57929 0.15677 0.11057 0.0
C2076 C 0.59063 0.19071 0.12083 0.0
C2077 C 0.584 0.20225 0.12428 0.0
C2078 C 0.59064 0.21273 0.13036 0.0
C2079 C 0.60417 0.21149 0.13299 0.0
C2080 C 0.61089 0.19986 0.12977 0.0
C2081 C 0.60402 0.18953 0.12373 0.0
C2082 C 0.6252 0.19848 0.13203 0.0
C2083 C 0.63401 0.20806 0.12744 0.0
C2084 C 0.63021 0.18684 0.13748 0.0
C2085 C 0.64369 0.18439 0.13749 0.0
C2086 C 0.65247 0.19351 0.13196 0.0
C2087 C 0.58323 0.22473 0.13416 0.0
C2088 C 0.57314 0.22955 0.12603 0.0
C2089 C 0.58551 0.23093 0.14629 0.0
C2090 C 0.5775 0.24129 0.15044 0.0
C2091 C 0.56697 0.24556 0.1426 0.0
C2092 C 0.56505 0.23976 0.13024 0.0
C2093 C 0.64754 0.20559 0.12738 0.0
H2094 H 0.56378 0.17532 0.08736 0.0
H2095 H 0.57427 0.19296 0.09975 0.0
H2096 H 0.59139 0.16439 0.12602 0.0
H2097 H 0.58092 0.14671 0.11365 0.0
H2098 H 0.57354 0.20293 0.12245 0.0
H2099 H 0.60925 0.18073 0.1208 0.0
H2100 H 0.60948 0.21953 0.13752 0.0
H2101 H 0.6304 0.21711 0.12317 0.0
H2102 H 0.62363 0.17937 0.14125 0.0
H2103 H 0.64715 0.17505 0.14123 0.0
H2104 H 0.57132 0.22524 0.11648 0.0
H2105 H 0.59313 0.22743 0.15283 0.0
H2106 H 0.65404 0.21284 0.1231 0.0
H2107 H 0.55713 0.24297 0.1239 0.0
H2108 H 0.57921 0.24558 0.16002 0.0
C2109 C 0.57427 0.82007 0.84171 0.0
C2110 C 0.58759 0.82162 0.84498 0.0
C2111 C 0.56451 0.82611 0.84923 0.0
C2112 C 0.56788 0.83393 0.86008 0.0
C2113 C 0.58117 0.83531 0.86349 0.0
C2114 C 0.59092 0.82917 0.85606 0.0
C2115 C 0.55756 0.84096 0.86756 0.0
C2116 C 0.54608 0.83446 0.87141 0.0
C2117 C 0.53597 0.84118 0.87802 0.0
C2118 C 0.53752 0.85466 0.88074 0.0
C2119 C 0.54909 0.86125 0.87709 0.0
C2120 C 0.55905 0.85431 0.87055 0.0
C2121 C 0.55081 0.87551 0.87946 0.0
C2122 C 0.54129 0.88454 0.8752 0.0
C2123 C 0.56269 0.88022 0.88461 0.0
C2124 C 0.56543 0.89365 0.88461 0.0
C2125 C 0.55637 0.90266 0.87936 0.0
C2126 C 0.52409 0.83386 0.88234 0.0
C2127 C 0.51875 0.82393 0.87435 0.0
C2128 C 0.51858 0.83604 0.89481 0.0
C2129 C 0.5084 0.82803 0.89943 0.0
C2130 C 0.50364 0.81763 0.8917 0.0
C2131 C 0.50872 0.81585 0.87902 0.0
C2132 C 0.54406 0.89802 0.87511 0.0
H2133 H 0.57138 0.81431 0.83325 0.0
H2134 H 0.55434 0.82495 0.84633 0.0
H2135 H 0.58402 0.84119 0.87188 0.0
H2136 H 0.60109 0.83056 0.85884 0.0
H2137 H 0.54517 0.82402 0.86949 0.0
H2138 H 0.56781 0.85944 0.86733 0.0
H2139 H 0.52977 0.86003 0.88567 0.0
H2140 H 0.53205 0.88115 0.87116 0.0
H2141 H 0.57012 0.87346 0.88812 0.0
H2142 H 0.57495 0.89688 0.88809 0.0
H2143 H 0.52253 0.8222 0.86456 0.0
H2144 H 0.5225 0.84353 0.90125 0.0
H2145 H 0.53684 0.9047 0.87107 0.0
H2146 H 0.50512 0.80803 0.87276 0.0
H2147 H 0.50466 0.82964 0.90926 0.0
C2148 C 0.93406 0.17292 0.90153 0.0
C2149 C 0.93023 0.15979 0.89967 0.0
C2150 C 0.92898 0.18287 0.89356 0.0
C2151 C 0.91996 0.17992 0.88353 0.0
C2152 C 0.91643 0.16674 0.88141 0.0
C2153 C 0.92151 0.15678 0.88939 0.0
C2154 C 0.91375 0.19065 0.87582 0.0
C2155 C 0.92114 0.20148 0.87164 0.0
C2156 C 0.91514 0.21221 0.86531 0.0
C2157 C 0.90151 0.21186 0.86295 0.0
C2158 C 0.89401 0.20093 0.86685 0.0
C2159 C 0.90022 0.19042 0.87327 0.0
C2160 C 0.87953 0.20067 0.8652 0.0
C2161 C 0.8718 0.21136 0.86925 0.0
C2162 C 0.87327 0.1891 0.86103 0.0
C2163 C 0.85965 0.18785 0.8619 0.0
C2164 C 0.85198 0.19814 0.867 0.0
C2165 C 0.92322 0.22373 0.86135 0.0
C2166 C 0.93341 0.2282 0.86954 0.0
C2167 C 0.92123 0.22997 0.84919 0.0
C2168 C 0.92958 0.24011 0.84511 0.0
C2169 C 0.94011 0.24415 0.85308 0.0
C2170 C 0.94179 0.23823 0.86542 0.0
C2171 C 0.85814 0.21011 0.87015 0.0
H2172 H 0.94075 0.17559 0.90935 0.0
H2173 H 0.93179 0.19293 0.89555 0.0
H2174 H 0.90963 0.16413 0.87366 0.0
H2175 H 0.9184 0.14676 0.88764 0.0
H2176 H 0.93166 0.20151 0.87324 0.0
H2177 H 0.89436 0.18228 0.87687 0.0
H2178 H 0.89672 0.22011 0.85824 0.0
H2179 H 0.87636 0.22039 0.87254 0.0
H2180 H 0.87898 0.18078 0.85766 0.0
H2181 H 0.85522 0.17855 0.85924 0.0
H2182 H 0.93501 0.22384 0.87911 0.0
H2183 H 0.91353 0.22672 0.84261 0.0
H2184 H 0.85252 0.21825 0.87405 0.0
H2185 H 0.94971 0.24122 0.87186 0.0
H2186 H 0.92803 0.24449 0.83553 0.0
C2187 C 0.57427 0.17946 0.65781 0.0
C2188 C 0.58759 0.1779 0.65454 0.0
C2189 C 0.56451 0.17342 0.65029 0.0
C2190 C 0.56788 0.1656 0.63943 0.0
C2191 C 0.58117 0.16421 0.63603 0.0
C2192 C 0.59092 0.17036 0.64346 0.0
C2193 C 0.55756 0.15857 0.63196 0.0
C2194 C 0.54608 0.16507 0.6281 0.0
C2195 C 0.53597 0.15835 0.62149 0.0
C2196 C 0.53752 0.14487 0.61878 0.0
C2197 C 0.54909 0.13828 0.62242 0.0
C2198 C 0.55905 0.14522 0.62897 0.0
C2199 C 0.55081 0.12402 0.62006 0.0
C2200 C 0.54129 0.11498 0.62432 0.0
C2201 C 0.56269 0.1193 0.61491 0.0
C2202 C 0.56543 0.10587 0.6149 0.0
C2203 C 0.55637 0.09687 0.62016 0.0
C2204 C 0.52409 0.16567 0.61718 0.0
C2205 C 0.51875 0.1756 0.62517 0.0
C2206 C 0.51858 0.16349 0.6047 0.0
C2207 C 0.5084 0.1715 0.60009 0.0
C2208 C 0.50364 0.1819 0.60781 0.0
C2209 C 0.50872 0.18368 0.6205 0.0
C2210 C 0.54406 0.10151 0.6244 0.0
H2211 H 0.57138 0.18522 0.66627 0.0
H2212 H 0.55434 0.17457 0.65318 0.0
H2213 H 0.58402 0.15833 0.62763 0.0
H2214 H 0.60109 0.16896 0.64067 0.0
H2215 H 0.54517 0.1755 0.63002 0.0
H2216 H 0.56781 0.14009 0.63218 0.0
H2217 H 0.52977 0.1395 0.61384 0.0
H2218 H 0.53205 0.11838 0.62836 0.0
H2219 H 0.57012 0.12607 0.6114 0.0
H2220 H 0.57495 0.10265 0.61143 0.0
H2221 H 0.52253 0.17733 0.63496 0.0
H2222 H 0.5225 0.15599 0.59826 0.0
H2223 H 0.53684 0.09482 0.62845 0.0
H2224 H 0.50512 0.1915 0.62676 0.0
H2225 H 0.50466 0.16989 0.59026 0.0
C2226 C 0.5697 0.82673 0.40368 0.0
C2227 C 0.57155 0.83991 0.40002 0.0
C2228 C 0.57565 0.81663 0.39656 0.0
C2229 C 0.58367 0.81951 0.38571 0.0
C2230 C 0.58535 0.83266 0.3819 0.0
C2231 C 0.57929 0.84276 0.38894 0.0
C2232 C 0.59063 0.80882 0.37868 0.0
C2233 C 0.584 0.79728 0.37523 0.0
C2234 C 0.59064 0.7868 0.36915 0.0
C2235 C 0.60417 0.78804 0.36652 0.0
C2236 C 0.61089 0.79967 0.36974 0.0
C2237 C 0.60402 0.80999 0.37579 0.0
C2238 C 0.6252 0.80105 0.36749 0.0
C2239 C 0.63401 0.79146 0.37207 0.0
C2240 C 0.63021 0.81269 0.36203 0.0
C2241 C 0.64369 0.81513 0.36202 0.0
C2242 C 0.65247 0.80602 0.36756 0.0
C2243 C 0.58323 0.77479 0.36536 0.0
C2244 C 0.57314 0.76998 0.37349 0.0
C2245 C 0.58551 0.7686 0.35323 0.0
C2246 C 0.5775 0.75823 0.34908 0.0
C2247 C 0.56697 0.75397 0.35692 0.0
C2248 C 0.56505 0.75976 0.36927 0.0
C2249 C 0.64754 0.79394 0.37214 0.0
H2250 H 0.56378 0.8242 0.41216 0.0
H2251 H 0.57427 0.80657 0.39977 0.0
H2252 H 0.59139 0.83514 0.3735 0.0
H2253 H 0.58092 0.85281 0.38586 0.0
H2254 H 0.57354 0.7966 0.37707 0.0
H2255 H 0.60925 0.8188 0.37871 0.0
H2256 H 0.60948 0.78 0.362 0.0
H2257 H 0.6304 0.78241 0.37635 0.0
H2258 H 0.62363 0.82016 0.35826 0.0
H2259 H 0.64715 0.82448 0.35829 0.0
H2260 H 0.57132 0.77429 0.38304 0.0
H2261 H 0.59313 0.7721 0.34668 0.0
H2262 H 0.65404 0.78669 0.37641 0.0
H2263 H 0.55713 0.75656 0.37562 0.0
H2264 H 0.57921 0.75394 0.3395 0.0
C2265 C 0.94991 0.89036 0.12093 0.0
C2266 C 0.94757 0.89803 0.13218 0.0
C2267 C 0.95393 0.87725 0.12216 0.0
C2268 C 0.95554 0.8716 0.13464 0.0
C2269 C 0.95408 0.87951 0.14583 0.0
C2270 C 0.95021 0.89261 0.14461 0.0
C2271 C 0.95702 0.85719 0.13611 0.0
C2272 C 0.96668 0.8502 0.12918 0.0
C2273 C 0.96743 0.8364 0.13016 0.0
C2274 C 0.95813 0.82972 0.13793 0.0
C2275 C 0.94852 0.83661 0.14496 0.0
C2276 C 0.94811 0.85033 0.14409 0.0
C2277 C 0.93854 0.82951 0.15284 0.0
C2278 C 0.9317 0.8188 0.14747 0.0
C2279 C 0.93537 0.83379 0.16556 0.0
C2280 C 0.92531 0.82772 0.17264 0.0
C2281 C 0.91811 0.81732 0.16709 0.0
C2282 C 0.97773 0.82883 0.12302 0.0
C2283 C 0.98182 0.83255 0.11034 0.0
C2284 C 0.98326 0.8175 0.12872 0.0
C2285 C 0.99216 0.80979 0.12173 0.0
C2286 C 0.996 0.81335 0.10899 0.0
C2287 C 0.99095 0.82493 0.10344 0.0
C2288 C 0.92154 0.8128 0.1545 0.0
H2289 H 0.94803 0.89426 0.11122 0.0
H2290 H 0.95495 0.87132 0.11339 0.0
H2291 H 0.95539 0.8754 0.15556 0.0
H2292 H 0.94862 0.89825 0.15349 0.0
H2293 H 0.97369 0.85556 0.12323 0.0
H2294 H 0.94044 0.85568 0.14919 0.0
H2295 H 0.95828 0.81909 0.13848 0.0
H2296 H 0.93389 0.81536 0.13765 0.0
H2297 H 0.94059 0.84194 0.16997 0.0
H2298 H 0.92294 0.83145 0.18231 0.0
H2299 H 0.9777 0.84111 0.10557 0.0
H2300 H 0.98066 0.81451 0.13859 0.0
H2301 H 0.91621 0.8048 0.14995 0.0
H2302 H 0.99371 0.82789 0.0936 0.0
H2303 H 0.99604 0.801 0.12633 0.0
C2304 C 0.59278 0.931 0.82396 0.0
C2305 C 0.59641 0.92925 0.83717 0.0
C2306 C 0.59993 0.92498 0.81392 0.0
C2307 C 0.61077 0.91698 0.81688 0.0
C2308 C 0.61456 0.91542 0.83006 0.0
C2309 C 0.6075 0.92155 0.84009 0.0
C2310 C 0.6178 0.90988 0.80629 0.0
C2311 C 0.62142 0.9164 0.79473 0.0
C2312 C 0.62764 0.90964 0.7844 0.0
C2313 C 0.63015 0.8961 0.78579 0.0
C2314 C 0.62672 0.88949 0.79742 0.0
C2315 C 0.62059 0.89647 0.80761 0.0
C2316 C 0.62891 0.87517 0.79898 0.0
C2317 C 0.62433 0.86627 0.7895 0.0
C2318 C 0.63429 0.87029 0.81071 0.0
C2319 C 0.63424 0.85683 0.81332 0.0
C2320 C 0.6287 0.84796 0.80431 0.0
C2321 C 0.6318 0.91697 0.77246 0.0
C2322 C 0.62389 0.92711 0.76739 0.0
C2323 C 0.64409 0.9146 0.76664 0.0
C2324 C 0.64863 0.92261 0.75643 0.0
C2325 C 0.64101 0.93321 0.75193 0.0
C2326 C 0.62848 0.93519 0.75732 0.0
C2327 C 0.6242 0.85277 0.79215 0.0
H2328 H 0.5843 0.93688 0.82138 0.0
H2329 H 0.59675 0.92628 0.80385 0.0
H2330 H 0.62296 0.90939 0.8326 0.0
H2331 H 0.61056 0.91999 0.85016 0.0
H2332 H 0.61966 0.92687 0.79395 0.0
H2333 H 0.61754 0.89133 0.81643 0.0
H2334 H 0.63478 0.8907 0.77787 0.0
H2335 H 0.62012 0.86979 0.78039 0.0
H2336 H 0.63805 0.87694 0.81811 0.0
H2337 H 0.63791 0.85348 0.82273 0.0
H2338 H 0.61423 0.929 0.77142 0.0
H2339 H 0.65048 0.90694 0.77035 0.0
H2340 H 0.61993 0.84619 0.78496 0.0
H2341 H 0.6223 0.94317 0.75393 0.0
H2342 H 0.65834 0.92084 0.75246 0.0
C2343 C 0.8917 0.87696 0.54715 0.0
C2344 C 0.89944 0.86574 0.54946 0.0
C2345 C 0.87864 0.87567 0.54302 0.0
C2346 C 0.8731 0.86316 0.54127 0.0
C2347 C 0.88109 0.85202 0.54272 0.0
C2348 C 0.89414 0.85329 0.54669 0.0
C2349 C 0.85873 0.86159 0.5397 0.0
C2350 C 0.85178 0.86835 0.52989 0.0
C2351 C 0.83801 0.86721 0.52898 0.0
C2352 C 0.8313 0.85947 0.5383 0.0
C2353 C 0.83817 0.85262 0.54807 0.0
C2354 C 0.85187 0.85365 0.54863 0.0
C2355 C 0.83107 0.84474 0.55806 0.0
C2356 C 0.82021 0.85001 0.56474 0.0
C2357 C 0.83554 0.83213 0.56145 0.0
C2358 C 0.82954 0.8251 0.57158 0.0
C2359 C 0.819 0.83057 0.57863 0.0
C2360 C 0.83051 0.87411 0.51848 0.0
C2361 C 0.8341 0.88679 0.51429 0.0
C2362 C 0.81939 0.86817 0.5128 0.0
C2363 C 0.81177 0.87491 0.50361 0.0
C2364 C 0.81522 0.88766 0.49965 0.0
C2365 C 0.82659 0.89346 0.50491 0.0
C2366 C 0.81427 0.84302 0.57497 0.0
H2367 H 0.89551 0.88669 0.54913 0.0
H2368 H 0.87265 0.88441 0.54201 0.0
H2369 H 0.87705 0.84227 0.54133 0.0
H2370 H 0.89983 0.84445 0.54826 0.0
H2371 H 0.85715 0.87427 0.52286 0.0
H2372 H 0.85719 0.84868 0.55641 0.0
H2373 H 0.82069 0.85878 0.53802 0.0
H2374 H 0.81662 0.85975 0.56239 0.0
H2375 H 0.84381 0.82778 0.55635 0.0
H2376 H 0.83342 0.81552 0.57412 0.0
H2377 H 0.8425 0.89175 0.51853 0.0
H2378 H 0.8165 0.8583 0.51549 0.0
H2379 H 0.80616 0.84751 0.58018 0.0
H2380 H 0.82945 0.9033 0.50207 0.0
H2381 H 0.80316 0.87012 0.49961 0.0
C2382 C 0.89827 0.06746 0.32883 0.0
C2383 C 0.89686 0.07139 0.34199 0.0
C2384 C 0.89015 0.07269 0.31909 0.0
C2385 C 0.88042 0.08196 0.32227 0.0
C2386 C 0.87879 0.08563 0.33548 0.0
C2387 C 0.88691 0.0804 0.34523 0.0
C2388 C 0.8725 0.08821 0.31173 0.0
C2389 C 0.86786 0.08077 0.30112 0.0
C2390 C 0.86144 0.08677 0.29045 0.0
C2391 C 0.85937 0.10045 0.29069 0.0
C2392 C 0.86365 0.108 0.30143 0.0
C2393 C 0.87022 0.10179 0.31186 0.0
C2394 C 0.86223 0.12251 0.30159 0.0
C2395 C 0.86613 0.13008 0.29072 0.0
C2396 C 0.85841 0.12894 0.31318 0.0
C2397 C 0.85946 0.14257 0.31426 0.0
C2398 C 0.8644 0.15006 0.30377 0.0
C2399 C 0.85711 0.07864 0.2791 0.0
C2400 C 0.86487 0.06804 0.27479 0.0
C2401 C 0.84504 0.08101 0.27282 0.0
C2402 C 0.84065 0.0727 0.26278 0.0
C2403 C 0.84818 0.06179 0.25894 0.0
C2404 C 0.86041 0.05966 0.26492 0.0
C2405 C 0.86721 0.14375 0.2918 0.0
H2406 H 0.90583 0.06054 0.32598 0.0
H2407 H 0.89178 0.06977 0.30899 0.0
H2408 H 0.87128 0.09263 0.33826 0.0
H2409 H 0.88553 0.08359 0.35528 0.0
H2410 H 0.86923 0.07021 0.30123 0.0
H2411 H 0.87413 0.10766 0.31983 0.0
H2412 H 0.85459 0.10526 0.28249 0.0
H2413 H 0.86916 0.12539 0.28167 0.0
H2414 H 0.85516 0.12335 0.32164 0.0
H2415 H 0.85706 0.14712 0.32356 0.0
H2416 H 0.87439 0.06612 0.27914 0.0
H2417 H 0.83877 0.08901 0.27593 0.0
H2418 H 0.87098 0.14924 0.28351 0.0
H2419 H 0.86652 0.05144 0.26205 0.0
H2420 H 0.83116 0.07457 0.25834 0.0
C2421 C 0.68031 0.1569 0.07739 0.0
C2422 C 0.67889 0.15344 0.09068 0.0
C2423 C 0.67427 0.14944 0.06759 0.0
C2424 C 0.66659 0.13846 0.07088 0.0
C2425 C 0.66532 0.13489 0.08414 0.0
C2426 C 0.67147 0.14226 0.09394 0.0
C2427 C 0.65962 0.131 0.06051 0.0
C2428 C 0.66614 0.12741 0.04895 0.0
C2429 C 0.6595 0.12082 0.03879 0.0
C2430 C 0.64608 0.11783 0.04035 0.0
C2431 C 0.63948 0.12121 0.05199 0.0
C2432 C 0.64634 0.12775 0.06201 0.0
C2433 C 0.62527 0.11857 0.05372 0.0
C2434 C 0.61614 0.12276 0.04426 0.0
C2435 C 0.62067 0.11323 0.06557 0.0
C2436 C 0.60725 0.11295 0.06833 0.0
C2437 C 0.59814 0.11811 0.05934 0.0
C2438 C 0.66686 0.11683 0.02682 0.0
C2439 C 0.67657 0.12513 0.02155 0.0
C2440 C 0.665 0.10435 0.02121 0.0
C2441 C 0.67315 0.10002 0.01102 0.0
C2442 C 0.68336 0.10805 0.00634 0.0
C2443 C 0.68478 0.12075 0.0115 0.0
C2444 C 0.60267 0.12256 0.04706 0.0
H2445 H 0.68598 0.16545 0.07455 0.0
H2446 H 0.67533 0.15247 0.05744 0.0
H2447 H 0.65954 0.1264 0.08693 0.0
H2448 H 0.67017 0.13934 0.10409 0.0
H2449 H 0.67653 0.12952 0.04803 0.0
H2450 H 0.64119 0.13077 0.07083 0.0
H2451 H 0.64078 0.11289 0.03255 0.0
H2452 H 0.61944 0.12695 0.03505 0.0
H2453 H 0.62751 0.10977 0.07296 0.0
H2454 H 0.6041 0.10932 0.07783 0.0
H2455 H 0.67804 0.13493 0.02541 0.0
H2456 H 0.65767 0.09768 0.02508 0.0
H2457 H 0.5959 0.12655 0.03988 0.0
H2458 H 0.69244 0.12724 0.00796 0.0
H2459 H 0.67181 0.09018 0.00722 0.0
C2460 C 0.59278 0.06853 0.67555 0.0
C2461 C 0.59641 0.07028 0.66235 0.0
C2462 C 0.59993 0.07455 0.6856 0.0
C2463 C 0.61077 0.08255 0.68263 0.0
C2464 C 0.61456 0.08411 0.66946 0.0
C2465 C 0.6075 0.07798 0.65943 0.0
C2466 C 0.6178 0.08964 0.69322 0.0
C2467 C 0.62142 0.08312 0.70478 0.0
C2468 C 0.62764 0.08989 0.71511 0.0
C2469 C 0.63015 0.10343 0.71372 0.0
C2470 C 0.62672 0.11004 0.70209 0.0
C2471 C 0.62059 0.10305 0.69191 0.0
C2472 C 0.62891 0.12435 0.70053 0.0
C2473 C 0.62433 0.13326 0.71002 0.0
C2474 C 0.63429 0.12924 0.68881 0.0
C2475 C 0.63424 0.1427 0.68619 0.0
C2476 C 0.6287 0.15156 0.69521 0.0
C2477 C 0.6318 0.08256 0.72705 0.0
C2478 C 0.62389 0.07242 0.73212 0.0
C2479 C 0.64409 0.08493 0.73288 0.0
C2480 C 0.64863 0.07692 0.74309 0.0
C2481 C 0.64101 0.06632 0.74758 0.0
C2482 C 0.62848 0.06434 0.7422 0.0
C2483 C 0.6242 0.14676 0.70736 0.0
H2484 H 0.5843 0.06264 0.67813 0.0
H2485 H 0.59675 0.07325 0.69567 0.0
H2486 H 0.62296 0.09013 0.66692 0.0
H2487 H 0.61056 0.07954 0.64936 0.0
H2488 H 0.61966 0.07265 0.70556 0.0
H2489 H 0.61754 0.10819 0.68309 0.0
H2490 H 0.63478 0.10883 0.72164 0.0
H2491 H 0.62012 0.12973 0.71913 0.0
H2492 H 0.63805 0.12258 0.68141 0.0
H2493 H 0.63791 0.14605 0.67679 0.0
H2494 H 0.61423 0.07053 0.72809 0.0
H2495 H 0.65048 0.09259 0.72917 0.0
H2496 H 0.61993 0.15334 0.71455 0.0
H2497 H 0.6223 0.05636 0.74558 0.0
H2498 H 0.65834 0.07869 0.74705 0.0
C2499 C 0.68031 0.84263 0.42212 0.0
C2500 C 0.67889 0.84608 0.40883 0.0
C2501 C 0.67427 0.85008 0.43193 0.0
C2502 C 0.66659 0.86107 0.42863 0.0
C2503 C 0.66532 0.86464 0.41537 0.0
C2504 C 0.67147 0.85727 0.40557 0.0
C2505 C 0.65962 0.86853 0.439 0.0
C2506 C 0.66614 0.87212 0.45056 0.0
C2507 C 0.6595 0.8787 0.46073 0.0
C2508 C 0.64608 0.8817 0.45917 0.0
C2509 C 0.63948 0.87832 0.44752 0.0
C2510 C 0.64634 0.87178 0.4375 0.0
C2511 C 0.62527 0.88095 0.44579 0.0
C2512 C 0.61614 0.87677 0.45525 0.0
C2513 C 0.62067 0.8863 0.43394 0.0
C2514 C 0.60725 0.88658 0.43118 0.0
C2515 C 0.59814 0.88142 0.44018 0.0
C2516 C 0.66686 0.8827 0.47269 0.0
C2517 C 0.67657 0.8744 0.47797 0.0
C2518 C 0.665 0.89518 0.47831 0.0
C2519 C 0.67315 0.89951 0.4885 0.0
C2520 C 0.68336 0.89148 0.49317 0.0
C2521 C 0.68478 0.87877 0.48801 0.0
C2522 C 0.60267 0.87697 0.45246 0.0
H2523 H 0.68598 0.83408 0.42496 0.0
H2524 H 0.67533 0.84706 0.44208 0.0
H2525 H 0.65954 0.87313 0.41258 0.0
H2526 H 0.67017 0.86019 0.39543 0.0
H2527 H 0.67653 0.87 0.45149 0.0
H2528 H 0.64119 0.86876 0.42868 0.0
H2529 H 0.64078 0.88664 0.46696 0.0
H2530 H 0.61944 0.87258 0.46446 0.0
H2531 H 0.62751 0.88976 0.42656 0.0
H2532 H 0.6041 0.89021 0.42169 0.0
H2533 H 0.67804 0.8646 0.4741 0.0
H2534 H 0.65767 0.90185 0.47444 0.0
H2535 H 0.5959 0.87298 0.45963 0.0
H2536 H 0.69244 0.87228 0.49155 0.0
H2537 H 0.67181 0.90935 0.4923 0.0
C2538 C 0.89827 0.93207 0.17068 0.0
C2539 C 0.89686 0.92814 0.15753 0.0
C2540 C 0.89015 0.92684 0.18042 0.0
C2541 C 0.88042 0.91757 0.17724 0.0
C2542 C 0.87879 0.91389 0.16404 0.0
C2543 C 0.88691 0.91912 0.15428 0.0
C2544 C 0.8725 0.91132 0.18779 0.0
C2545 C 0.86786 0.91876 0.1984 0.0
C2546 C 0.86144 0.91275 0.20906 0.0
C2547 C 0.85937 0.89907 0.20882 0.0
C2548 C 0.86365 0.89153 0.19808 0.0
C2549 C 0.87022 0.89774 0.18765 0.0
C2550 C 0.86223 0.87702 0.19793 0.0
C2551 C 0.86613 0.86945 0.20879 0.0
C2552 C 0.85841 0.87059 0.18633 0.0
C2553 C 0.85946 0.85696 0.18526 0.0
C2554 C 0.8644 0.84946 0.19575 0.0
C2555 C 0.85711 0.92089 0.22041 0.0
C2556 C 0.86487 0.93149 0.22472 0.0
C2557 C 0.84504 0.91852 0.2267 0.0
C2558 C 0.84065 0.92683 0.23674 0.0
C2559 C 0.84818 0.93774 0.24058 0.0
C2560 C 0.86041 0.93987 0.23459 0.0
C2561 C 0.86721 0.85578 0.20771 0.0
H2562 H 0.90583 0.93898 0.17353 0.0
H2563 H 0.89178 0.92975 0.19052 0.0
H2564 H 0.87128 0.90689 0.16125 0.0
H2565 H 0.88553 0.91593 0.14423 0.0
H2566 H 0.86923 0.92931 0.19829 0.0
H2567 H 0.87413 0.89186 0.17969 0.0
H2568 H 0.85459 0.89426 0.21703 0.0
H2569 H 0.86916 0.87414 0.21784 0.0
H2570 H 0.85516 0.87618 0.17788 0.0
H2571 H 0.85706 0.85241 0.17595 0.0
H2572 H 0.87439 0.93341 0.22038 0.0
H2573 H 0.83877 0.91051 0.22359 0.0
H2574 H 0.87098 0.85029 0.21601 0.0
H2575 H 0.86652 0.94809 0.23747 0.0
H2576 H 0.83116 0.92496 0.24117 0.0
C2577 C 0.8917 0.12257 0.95237 0.0
C2578 C 0.89944 0.13378 0.95005 0.0
C2579 C 0.87864 0.12386 0.95649 0.0
C2580 C 0.8731 0.13637 0.95824 0.0
C2581 C 0.88109 0.14751 0.95679 0.0
C2582 C 0.89414 0.14623 0.95283 0.0
C2583 C 0.85873 0.13793 0.95981 0.0
C2584 C 0.85178 0.13118 0.96963 0.0
C2585 C 0.83801 0.13232 0.97053 0.0
C2586 C 0.8313 0.14006 0.96122 0.0
C2587 C 0.83817 0.14691 0.95144 0.0
C2588 C 0.85187 0.14588 0.95089 0.0
C2589 C 0.83107 0.15479 0.94145 0.0
C2590 C 0.82021 0.14951 0.93477 0.0
C2591 C 0.83554 0.16739 0.93807 0.0
C2592 C 0.82954 0.17443 0.92794 0.0
C2593 C 0.819 0.16896 0.92088 0.0
C2594 C 0.83051 0.12541 0.98104 0.0
C2595 C 0.8341 0.11273 0.98522 0.0
C2596 C 0.81939 0.13135 0.98671 0.0
C2597 C 0.81177 0.12462 0.99591 0.0
C2598 C 0.81522 0.11187 -0.00014 0.0
C2599 C 0.82659 0.10607 0.99461 0.0
C2600 C 0.81427 0.1565 0.92455 0.0
H2601 H 0.89551 0.11284 0.95039 0.0
H2602 H 0.87265 0.11512 0.9575 0.0
H2603 H 0.87705 0.15726 0.95819 0.0
H2604 H 0.89983 0.15508 0.95126 0.0
H2605 H 0.85715 0.12526 0.97666 0.0
H2606 H 0.85719 0.15084 0.94311 0.0
H2607 H 0.82069 0.14074 0.96149 0.0
H2608 H 0.81662 0.13978 0.93713 0.0
H2609 H 0.84381 0.17175 0.94316 0.0
H2610 H 0.83342 0.184 0.9254 0.0
H2611 H 0.8425 0.10778 0.98099 0.0
H2612 H 0.8165 0.14123 0.98402 0.0
H2613 H 0.80616 0.15202 0.91933 0.0
H2614 H 0.82945 0.09622 0.99745 0.0
H2615 H 0.80316 0.1294 -9e-05 0.0
C2616 C 0.82387 0.59181 0.92957 0.0
C2617 C 0.83723 0.59488 0.92798 0.0
C2618 C 0.8142 0.59963 0.92374 0.0
C2619 C 0.81771 0.61058 0.91611 0.0
C2620 C 0.83105 0.61377 0.91469 0.0
C2621 C 0.84071 0.60604 0.92062 0.0
C2622 C 0.80748 0.61837 0.90928 0.0
C2623 C 0.79607 0.62221 0.91591 0.0
C2624 C 0.786 0.62906 0.90937 0.0
C2625 C 0.78753 0.63206 0.89594 0.0
C2626 C 0.79905 0.62844 0.88924 0.0
C2627 C 0.80896 0.62164 0.896 0.0
C2628 C 0.80073 0.63108 0.87502 0.0
C2629 C 0.79114 0.62711 0.86595 0.0
C2630 C 0.81267 0.63618 0.87036 0.0
C2631 C 0.81537 0.63638 0.85693 0.0
C2632 C 0.80623 0.6314 0.84787 0.0
C2633 C 0.77416 0.63328 0.9168 0.0
C2634 C 0.76882 0.62511 0.9266 0.0
C2635 C 0.76867 0.64581 0.91487 0.0
C2636 C 0.75851 0.65028 0.92297 0.0
C2637 C 0.75374 0.64236 0.93323 0.0
C2638 C 0.75881 0.62963 0.93478 0.0
C2639 C 0.79387 0.62724 0.85246 0.0
H2640 H 0.82086 0.58329 0.93519 0.0
H2641 H 0.80399 0.59689 0.92491 0.0
H2642 H 0.83401 0.62223 0.90895 0.0
H2643 H 0.85092 0.60867 0.91921 0.0
H2644 H 0.79518 0.62007 0.92631 0.0
H2645 H 0.81765 0.61842 0.89077 0.0
H2646 H 0.77981 0.63718 0.8907 0.0
H2647 H 0.78186 0.62312 0.8693 0.0
H2648 H 0.82016 0.63947 0.87716 0.0
H2649 H 0.82492 0.6398 0.85373 0.0
H2650 H 0.77257 0.61527 0.92813 0.0
H2651 H 0.77259 0.65239 0.90749 0.0
H2652 H 0.78659 0.6234 0.84574 0.0
H2653 H 0.7552 0.62323 0.94247 0.0
H2654 H 0.75478 0.66014 0.92154 0.0
C2655 C 0.32387 0.90771 0.06994 0.0
C2656 C 0.33723 0.90465 0.07153 0.0
C2657 C 0.3142 0.8999 0.07577 0.0
C2658 C 0.31771 0.88895 0.0834 0.0
C2659 C 0.33105 0.88576 0.08483 0.0
C2660 C 0.34071 0.89349 0.07889 0.0
C2661 C 0.30748 0.88116 0.09023 0.0
C2662 C 0.29607 0.87732 0.0836 0.0
C2663 C 0.286 0.87047 0.09015 0.0
C2664 C 0.28753 0.86747 0.10357 0.0
C2665 C 0.29905 0.87108 0.11027 0.0
C2666 C 0.30896 0.87789 0.10351 0.0
C2667 C 0.30073 0.86844 0.12449 0.0
C2668 C 0.29114 0.87242 0.13357 0.0
C2669 C 0.31267 0.86335 0.12915 0.0
C2670 C 0.31537 0.86314 0.14259 0.0
C2671 C 0.30623 0.86813 0.15165 0.0
C2672 C 0.27416 0.86625 0.08271 0.0
C2673 C 0.26882 0.87442 0.07292 0.0
C2674 C 0.26867 0.85372 0.08464 0.0
C2675 C 0.25851 0.84924 0.07654 0.0
C2676 C 0.25374 0.85717 0.06628 0.0
C2677 C 0.25881 0.86989 0.06474 0.0
C2678 C 0.29387 0.87229 0.14705 0.0
H2679 H 0.32086 0.91623 0.06432 0.0
H2680 H 0.30399 0.90264 0.0746 0.0
H2681 H 0.33401 0.87729 0.09056 0.0
H2682 H 0.35092 0.89085 0.08031 0.0
H2683 H 0.29518 0.87945 0.07321 0.0
H2684 H 0.31765 0.8811 0.10875 0.0
H2685 H 0.27981 0.86235 0.10881 0.0
H2686 H 0.28186 0.87641 0.13022 0.0
H2687 H 0.32016 0.86006 0.12235 0.0
H2688 H 0.32492 0.85973 0.14578 0.0
H2689 H 0.27257 0.88426 0.07138 0.0
H2690 H 0.27259 0.84714 0.09202 0.0
H2691 H 0.28659 0.87613 0.15378 0.0
H2692 H 0.2552 0.8763 0.05704 0.0
H2693 H 0.25478 0.83938 0.07797 0.0
C2694 C 0.84092 0.57534 0.81835 0.0
C2695 C 0.8451 0.58837 0.82022 0.0
C2696 C 0.84773 0.56493 0.82415 0.0
C2697 C 0.85879 0.56735 0.83205 0.0
C2698 C 0.86314 0.58033 0.83369 0.0
C2699 C 0.85641 0.59073 0.82778 0.0
C2700 C 0.86543 0.55639 0.83898 0.0
C2701 C 0.86842 0.54471 0.83237 0.0
C2702 C 0.87429 0.53409 0.839 0.0
C2703 C 0.87709 0.53529 0.85249 0.0
C2704 C 0.87425 0.54701 0.85921 0.0
C2705 C 0.86847 0.5575 0.85236 0.0
C2706 C 0.87668 0.54836 0.8735 0.0
C2707 C 0.8719 0.53895 0.88239 0.0
C2708 C 0.88252 0.55985 0.87842 0.0
C2709 C 0.88272 0.56234 0.89189 0.0
C2710 C 0.877 0.55342 0.90076 0.0
C2711 C 0.87781 0.52202 0.83157 0.0
C2712 C 0.86943 0.51722 0.82169 0.0
C2713 C 0.88997 0.51578 0.83358 0.0
C2714 C 0.89392 0.50543 0.82545 0.0
C2715 C 0.88583 0.50118 0.8151 0.0
C2716 C 0.87342 0.50697 0.81351 0.0
C2717 C 0.87203 0.54147 0.89591 0.0
H2718 H 0.83225 0.57319 0.81257 0.0
H2719 H 0.84411 0.55502 0.8228 0.0
H2720 H 0.87171 0.58245 0.83962 0.0
H2721 H 0.8599 0.60064 0.82941 0.0
H2722 H 0.86645 0.54404 0.82193 0.0
H2723 H 0.86587 0.56641 0.85758 0.0
H2724 H 0.88147 0.52714 0.85777 0.0
H2725 H 0.86733 0.53002 0.87885 0.0
H2726 H 0.88645 0.56719 0.87178 0.0
H2727 H 0.88676 0.57158 0.89528 0.0
H2728 H 0.85987 0.5216 0.82008 0.0
H2729 H 0.8967 0.51927 0.84104 0.0
H2730 H 0.8676 0.53437 0.90248 0.0
H2731 H 0.86689 0.50381 0.80574 0.0
H2732 H 0.90355 0.50116 0.82693 0.0
C2733 C 0.17009 0.10081 0.56481 0.0
C2734 C 0.15708 0.10338 0.56864 0.0
C2735 C 0.18048 0.108 0.57014 0.0
C2736 C 0.17811 0.11793 0.57943 0.0
C2737 C 0.16507 0.12078 0.58296 0.0
C2738 C 0.15467 0.11359 0.57761 0.0
C2739 C 0.18925 0.12477 0.58592 0.0
C2740 C 0.20032 0.12858 0.57867 0.0
C2741 C 0.21134 0.13414 0.58489 0.0
C2742 C 0.21107 0.13605 0.59859 0.0
C2743 C 0.19994 0.1325 0.60596 0.0
C2744 C 0.18911 0.12687 0.59952 0.0
C2745 C 0.19971 0.13375 0.62048 0.0
C2746 C 0.21016 0.12897 0.62813 0.0
C2747 C 0.18836 0.13836 0.62683 0.0
C2748 C 0.18705 0.13727 0.64043 0.0
C2749 C 0.19706 0.1315 0.64799 0.0
C2750 C 0.22303 0.13784 0.57696 0.0
C2751 C 0.22712 0.12985 0.56645 0.0
C2752 C 0.22984 0.14961 0.57939 0.0
C2753 C 0.24017 0.15352 0.5712 0.0
C2754 C 0.24383 0.14579 0.56037 0.0
C2755 C 0.23734 0.13381 0.55822 0.0
C2756 C 0.20885 0.12785 0.64177 0.0
H2757 H 0.1723 0.09301 0.55792 0.0
H2758 H 0.19042 0.10546 0.56732 0.0
H2759 H 0.16292 0.12849 0.58996 0.0
H2760 H 0.14476 0.11588 0.58074 0.0
H2761 H 0.20028 0.12733 0.5681 0.0
H2762 H 0.18077 0.12354 0.60524 0.0
H2763 H 0.21954 0.14017 0.60355 0.0
H2764 H 0.21901 0.12532 0.6235 0.0
H2765 H 0.18024 0.14229 0.62119 0.0
H2766 H 0.17791 0.14032 0.64491 0.0
H2767 H 0.22232 0.12057 0.56448 0.0
H2768 H 0.2269 0.15603 0.58734 0.0
H2769 H 0.21677 0.12342 0.64731 0.0
H2770 H 0.24002 0.12755 0.55004 0.0
H2771 H 0.24498 0.16282 0.57311 0.0
C2772 C 0.11604 0.94686 0.89377 0.0
C2773 C 0.12741 0.94529 0.90147 0.0
C2774 C 0.11699 0.95121 0.88075 0.0
C2775 C 0.12932 0.95393 0.87521 0.0
C2776 C 0.14055 0.95324 0.88316 0.0
C2777 C 0.1396 0.94906 0.89618 0.0
C2778 C 0.13073 0.95572 0.86085 0.0
C2779 C 0.12328 0.9651 0.85398 0.0
C2780 C 0.12431 0.96618 0.84021 0.0
C2781 C 0.13266 0.95748 0.83343 0.0
C2782 C 0.1402 0.94815 0.84019 0.0
C2783 C 0.13924 0.94742 0.8539 0.0
C2784 C 0.14875 0.93885 0.83294 0.0
C2785 C 0.14408 0.93234 0.82171 0.0
C2786 C 0.16148 0.93608 0.83748 0.0
C2787 C 0.16926 0.92675 0.83111 0.0
C2788 C 0.16446 0.91994 0.8201 0.0
C2789 C 0.11665 0.97619 0.83276 0.0
C2790 C 0.10377 0.97958 0.83648 0.0
C2791 C 0.12207 0.98215 0.82152 0.0
C2792 C 0.11465 0.99075 0.81387 0.0
C2793 C 0.10173 0.9939 0.81745 0.0
C2794 C 0.09643 0.98845 0.82896 0.0
C2795 C 0.15184 0.92297 0.81536 0.0
H2796 H 0.10649 0.94411 0.89757 0.0
H2797 H 0.10819 0.95162 0.87477 0.0
H2798 H 0.15015 0.95539 0.87912 0.0
H2799 H 0.14855 0.94808 0.90184 0.0
H2800 H 0.11691 0.97165 0.85943 0.0
H2801 H 0.14475 0.93996 0.85915 0.0
H2802 H 0.13329 0.95789 0.82282 0.0
H2803 H 0.13427 0.9342 0.81805 0.0
H2804 H 0.16539 0.94106 0.84603 0.0
H2805 H 0.17894 0.92469 0.83501 0.0
H2806 H 0.0992 0.97512 0.84498 0.0
H2807 H 0.13208 0.98013 0.81854 0.0
H2808 H 0.14783 0.91791 0.80691 0.0
H2809 H 0.08647 0.9907 0.83192 0.0
H2810 H 0.11906 0.99498 0.80515 0.0
C2811 C 0.67009 0.39872 0.43471 0.0
C2812 C 0.65708 0.39615 0.43088 0.0
C2813 C 0.68048 0.39153 0.42937 0.0
C2814 C 0.67811 0.3816 0.42008 0.0
C2815 C 0.66507 0.37875 0.41656 0.0
C2816 C 0.65467 0.38593 0.4219 0.0
C2817 C 0.68925 0.37476 0.4136 0.0
C2818 C 0.70032 0.37094 0.42084 0.0
C2819 C 0.71134 0.36539 0.41462 0.0
C2820 C 0.71107 0.36347 0.40092 0.0
C2821 C 0.69994 0.36703 0.39356 0.0
C2822 C 0.68911 0.37266 0.39999 0.0
C2823 C 0.69971 0.36578 0.37903 0.0
C2824 C 0.71016 0.37055 0.37139 0.0
C2825 C 0.68836 0.36117 0.37269 0.0
C2826 C 0.68705 0.36226 0.35908 0.0
C2827 C 0.69706 0.36803 0.35152 0.0
C2828 C 0.72303 0.36169 0.42256 0.0
C2829 C 0.72712 0.36968 0.43306 0.0
C2830 C 0.72984 0.34992 0.42012 0.0
C2831 C 0.74017 0.34601 0.42832 0.0
C2832 C 0.74383 0.35374 0.43915 0.0
C2833 C 0.73734 0.36572 0.4413 0.0
C2834 C 0.70885 0.37167 0.35775 0.0
H2835 H 0.6723 0.40652 0.4416 0.0
H2836 H 0.69042 0.39407 0.4322 0.0
H2837 H 0.66292 0.37104 0.40955 0.0
H2838 H 0.64476 0.38365 0.41878 0.0
H2839 H 0.70028 0.3722 0.43141 0.0
H2840 H 0.68077 0.37598 0.39427 0.0
H2841 H 0.71954 0.35936 0.39597 0.0
H2842 H 0.71901 0.3742 0.37602 0.0
H2843 H 0.68024 0.35723 0.37833 0.0
H2844 H 0.67791 0.3592 0.3546 0.0
H2845 H 0.72232 0.37896 0.43503 0.0
H2846 H 0.7269 0.34349 0.41218 0.0
H2847 H 0.71677 0.37611 0.3522 0.0
H2848 H 0.74002 0.37197 0.44947 0.0
H2849 H 0.74498 0.33671 0.42641 0.0
C2850 C 0.84092 0.42418 0.68117 0.0
C2851 C 0.8451 0.41116 0.6793 0.0
C2852 C 0.84773 0.4346 0.67536 0.0
C2853 C 0.85879 0.43218 0.66746 0.0
C2854 C 0.86314 0.4192 0.66583 0.0
C2855 C 0.85641 0.4088 0.67174 0.0
C2856 C 0.86543 0.44314 0.66053 0.0
C2857 C 0.86842 0.45482 0.66715 0.0
C2858 C 0.87429 0.46544 0.66052 0.0
C2859 C 0.87709 0.46424 0.64702 0.0
C2860 C 0.87425 0.45252 0.64031 0.0
C2861 C 0.86847 0.44203 0.64716 0.0
C2862 C 0.87668 0.45116 0.62601 0.0
C2863 C 0.8719 0.46058 0.61712 0.0
C2864 C 0.88252 0.43967 0.6211 0.0
C2865 C 0.88272 0.43719 0.60762 0.0
C2866 C 0.877 0.4461 0.59876 0.0
C2867 C 0.87781 0.47751 0.66795 0.0
C2868 C 0.86943 0.48231 0.67782 0.0
C2869 C 0.88997 0.48375 0.66593 0.0
C2870 C 0.89392 0.49409 0.67407 0.0
C2871 C 0.88583 0.49835 0.68441 0.0
C2872 C 0.87342 0.49255 0.686 0.0
C2873 C 0.87203 0.45806 0.6036 0.0
H2874 H 0.83225 0.42634 0.68695 0.0
H2875 H 0.84411 0.44451 0.67672 0.0
H2876 H 0.87171 0.41708 0.65989 0.0
H2877 H 0.8599 0.39888 0.6701 0.0
H2878 H 0.86645 0.45548 0.67759 0.0
H2879 H 0.86587 0.43312 0.64193 0.0
H2880 H 0.88147 0.47239 0.64174 0.0
H2881 H 0.86733 0.46951 0.62066 0.0
H2882 H 0.88645 0.43234 0.62774 0.0
H2883 H 0.88676 0.42795 0.60424 0.0
H2884 H 0.85987 0.47792 0.67944 0.0
H2885 H 0.8967 0.48025 0.65848 0.0
H2886 H 0.8676 0.46516 0.59703 0.0
H2887 H 0.86689 0.49572 0.69378 0.0
H2888 H 0.90355 0.49837 0.67259 0.0
C2889 C 0.61604 0.55267 0.10575 0.0
C2890 C 0.62741 0.55423 0.09805 0.0
C2891 C 0.61699 0.54832 0.11877 0.0
C2892 C 0.62932 0.5456 0.12431 0.0
C2893 C 0.64055 0.54629 0.11636 0.0
C2894 C 0.6396 0.55047 0.10334 0.0
C2895 C 0.63073 0.5438 0.13867 0.0
C2896 C 0.62328 0.53443 0.14553 0.0
C2897 C 0.62431 0.53335 0.1593 0.0
C2898 C 0.63266 0.54205 0.16608 0.0
C2899 C 0.6402 0.55137 0.15932 0.0
C2900 C 0.63924 0.55211 0.14562 0.0
C2901 C 0.64875 0.56068 0.16657 0.0
C2902 C 0.64408 0.56719 0.17781 0.0
C2903 C 0.66148 0.56345 0.16203 0.0
C2904 C 0.66926 0.57277 0.16841 0.0
C2905 C 0.66446 0.57958 0.17942 0.0
C2906 C 0.61665 0.52333 0.16675 0.0
C2907 C 0.60377 0.51994 0.16303 0.0
C2908 C 0.62207 0.51738 0.178 0.0
C2909 C 0.61465 0.50877 0.18565 0.0
C2910 C 0.60173 0.50562 0.18207 0.0
C2911 C 0.59643 0.51108 0.17056 0.0
C2912 C 0.65184 0.57656 0.18415 0.0
H2913 H 0.60649 0.55541 0.10194 0.0
H2914 H 0.60819 0.5479 0.12474 0.0
H2915 H 0.65015 0.54413 0.1204 0.0
H2916 H 0.64855 0.55145 0.09767 0.0
H2917 H 0.61691 0.52788 0.14009 0.0
H2918 H 0.64475 0.55957 0.14036 0.0
H2919 H 0.63329 0.54164 0.17669 0.0
H2920 H 0.63427 0.56533 0.18146 0.0
H2921 H 0.66539 0.55847 0.15349 0.0
H2922 H 0.67894 0.57484 0.16451 0.0
H2923 H 0.5992 0.52441 0.15453 0.0
H2924 H 0.63208 0.5194 0.18098 0.0
H2925 H 0.64783 0.58162 0.1926 0.0
H2926 H 0.58647 0.50883 0.1676 0.0
H2927 H 0.61906 0.50455 0.19437 0.0
C2928 C 0.65981 0.71009 0.90674 0.0
C2929 C 0.65954 0.69654 0.90934 0.0
C2930 C 0.64961 0.71607 0.89978 0.0
C2931 C 0.63891 0.70862 0.89524 0.0
C2932 C 0.63875 0.69502 0.89764 0.0
C2933 C 0.64896 0.68904 0.90462 0.0
C2934 C 0.62771 0.71513 0.88851 0.0
C2935 C 0.62992 0.72532 0.87945 0.0
C2936 C 0.61938 0.73215 0.87374 0.0
C2937 C 0.60647 0.72855 0.87707 0.0
C2938 C 0.60406 0.71835 0.88607 0.0
C2939 C 0.61474 0.71166 0.89167 0.0
C2940 C 0.59045 0.71518 0.89027 0.0
C2941 C 0.58161 0.72529 0.89341 0.0
C2942 C 0.58634 0.70206 0.89158 0.0
C2943 C 0.5737 0.69912 0.89611 0.0
C2944 C 0.565 0.70924 0.89959 0.0
C2945 C 0.62183 0.74351 0.86489 0.0
C2946 C 0.63155 0.75282 0.86802 0.0
C2947 C 0.61417 0.74545 0.85357 0.0
C2948 C 0.61594 0.75662 0.84576 0.0
C2949 C 0.62539 0.76611 0.84912 0.0
C2950 C 0.6333 0.76398 0.86023 0.0
C2951 C 0.56902 0.72235 0.89799 0.0
H2952 H 0.66781 0.71616 0.91026 0.0
H2953 H 0.64994 0.72659 0.89827 0.0
H2954 H 0.63073 0.68898 0.89413 0.0
H2955 H 0.64848 0.67856 0.9064 0.0
H2956 H 0.6399 0.72792 0.8768 0.0
H2957 H 0.61294 0.70414 0.899 0.0
H2958 H 0.59827 0.73389 0.87288 0.0
H2959 H 0.58452 0.7355 0.89263 0.0
H2960 H 0.59286 0.69407 0.889 0.0
H2961 H 0.5707 0.68895 0.89663 0.0
H2962 H 0.63752 0.7517 0.87675 0.0
H2963 H 0.60672 0.73838 0.8508 0.0
H2964 H 0.56251 0.73038 0.90053 0.0
H2965 H 0.64065 0.77111 0.86312 0.0
H2966 H 0.6097 0.75795 0.83724 0.0
C2967 C 0.54214 0.31797 0.13145 0.0
C2968 C 0.54433 0.31655 0.14499 0.0
C2969 C 0.53994 0.3304 0.12602 0.0
C2970 C 0.53963 0.34164 0.13406 0.0
C2971 C 0.54192 0.34014 0.14762 0.0
C2972 C 0.54428 0.32775 0.153 0.0
C2973 C 0.53632 0.35477 0.12849 0.0
C2974 C 0.52658 0.35599 0.11878 0.0
C2975 C 0.52266 0.3684 0.11416 0.0
C2976 C 0.52859 0.37971 0.11938 0.0
C2977 C 0.53834 0.37871 0.12911 0.0
C2978 C 0.54224 0.3662 0.13346 0.0
C2979 C 0.54385 0.39066 0.13544 0.0
C2980 C 0.55722 0.39132 0.13881 0.0
C2981 C 0.53558 0.40114 0.13896 0.0
C2982 C 0.54047 0.41181 0.14607 0.0
C2983 C 0.55374 0.41222 0.14987 0.0
C2984 C 0.51173 0.36945 0.10454 0.0
C2985 C 0.51097 0.36078 0.09383 0.0
C2986 C 0.50152 0.37855 0.10649 0.0
C2987 C 0.49053 0.37856 0.09826 0.0
C2988 C 0.48952 0.3695 0.08789 0.0
C2989 C 0.50001 0.36082 0.08558 0.0
C2990 C 0.56211 0.40196 0.14597 0.0
H2991 H 0.54209 0.30945 0.12507 0.0
H2992 H 0.53839 0.33118 0.11552 0.0
H2993 H 0.54141 0.34848 0.15419 0.0
H2994 H 0.54547 0.32688 0.16353 0.0
H2995 H 0.52156 0.3473 0.11526 0.0
H2996 H 0.54966 0.36537 0.14104 0.0
H2997 H 0.52561 0.38931 0.11586 0.0
H2998 H 0.5639 0.3835 0.13607 0.0
H2999 H 0.5252 0.40089 0.13667 0.0
H3000 H 0.53376 0.41956 0.14891 0.0
H3001 H 0.51877 0.35378 0.09198 0.0
H3002 H 0.50176 0.38528 0.11472 0.0
H3003 H 0.57241 0.40202 0.14863 0.0
H3004 H 0.49957 0.35375 0.07764 0.0
H3005 H 0.48263 0.38538 0.10031 0.0
C3006 C 0.93055 0.29334 0.38475 0.0
C3007 C 0.93299 0.29578 0.39809 0.0
C3008 C 0.91773 0.29122 0.38031 0.0
C3009 C 0.90712 0.29117 0.38917 0.0
C3010 C 0.90964 0.29374 0.40253 0.0
C3011 C 0.92242 0.29608 0.40691 0.0
C3012 C 0.89359 0.28781 0.38468 0.0
C3013 C 0.89164 0.27807 0.3751 0.0
C3014 C 0.87893 0.27414 0.37144 0.0
C3015 C 0.86804 0.28002 0.37753 0.0
C3016 C 0.86976 0.28981 0.38712 0.0
C3017 C 0.88256 0.29373 0.39049 0.0
C3018 C 0.85831 0.29544 0.39421 0.0
C3019 C 0.85792 0.30888 0.39739 0.0
C3020 C 0.84804 0.28728 0.39852 0.0
C3021 C 0.83782 0.29236 0.40615 0.0
C3022 C 0.83766 0.3057 0.40967 0.0
C3023 C 0.87719 0.26337 0.36177 0.0
C3024 C 0.88477 0.26304 0.35025 0.0
C3025 C 0.86854 0.25293 0.36438 0.0
C3026 C 0.86792 0.24212 0.35592 0.0
C3027 C 0.87587 0.24158 0.34464 0.0
C3028 C 0.88409 0.25229 0.34175 0.0
C3029 C 0.84773 0.31395 0.40505 0.0
H3030 H 0.93857 0.29303 0.37777 0.0
H3031 H 0.91618 0.28949 0.36993 0.0
H3032 H 0.90183 0.29346 0.40973 0.0
H3033 H 0.92409 0.29752 0.41732 0.0
H3034 H 0.90002 0.27305 0.37088 0.0
H3035 H 0.88394 0.3012 0.39793 0.0
H3036 H 0.85822 0.27702 0.37475 0.0
H3037 H 0.86557 0.31547 0.39405 0.0
H3038 H 0.84811 0.27686 0.39638 0.0
H3039 H 0.83021 0.28574 0.40954 0.0
H3040 H 0.89141 0.27103 0.34791 0.0
H3041 H 0.86264 0.25286 0.37323 0.0
H3042 H 0.84784 0.3243 0.40749 0.0
H3043 H 0.89032 0.25221 0.33312 0.0
H3044 H 0.86147 0.23403 0.35842 0.0
C3045 C 0.96444 0.6816 0.63763 0.0
C3046 C 0.96087 0.68427 0.65068 0.0
C3047 C 0.96622 0.66865 0.63341 0.0
C3048 C 0.96472 0.65809 0.64223 0.0
C3049 C 0.96108 0.66085 0.65529 0.0
C3050 C 0.95914 0.67378 0.65944 0.0
C3051 C 0.9675 0.64434 0.63806 0.0
C3052 C 0.97806 0.64159 0.62957 0.0
C3053 C 0.98135 0.62858 0.62631 0.0
C3054 C 0.97393 0.61823 0.63162 0.0
C3055 C 0.96339 0.62074 0.64016 0.0
C3056 C 0.96014 0.63382 0.64316 0.0
C3057 C 0.95626 0.60973 0.64659 0.0
C3058 C 0.94258 0.61025 0.64836 0.0
C3059 C 0.96322 0.5989 0.65159 0.0
C3060 C 0.95669 0.58895 0.65842 0.0
C3061 C 0.94306 0.58962 0.66046 0.0
C3062 C 0.99302 0.62583 0.61799 0.0
C3063 C 0.99559 0.6334 0.60674 0.0
C3064 C 0.00197 0.61594 0.62158 0.0
C3065 C 0.01343 0.61394 0.6143 0.0
C3066 C 0.01619 0.62175 0.60325 0.0
C3067 C 0.00704 0.63137 0.59942 0.0
C3068 C 0.93605 0.6003 0.65522 0.0
H3069 H 0.96589 0.68955 0.6307 0.0
H3070 H 0.96885 0.66691 0.62326 0.0
H3071 H 0.96018 0.65305 0.66247 0.0
H3072 H 0.95688 0.67557 0.66967 0.0
H3073 H 0.98414 0.64955 0.62598 0.0
H3074 H 0.95206 0.63579 0.64979 0.0
H3075 H 0.97637 0.60819 0.62909 0.0
H3076 H 0.93691 0.61837 0.64448 0.0
H3077 H 0.97378 0.59828 0.65056 0.0
H3078 H 0.96239 0.58086 0.66233 0.0
H3079 H 0.98881 0.64099 0.60365 0.0
H3080 H 0.00034 0.61003 0.63027 0.0
H3081 H 0.92552 0.60108 0.65655 0.0
H3082 H 0.00885 0.63754 0.59095 0.0
H3083 H 0.02028 0.60647 0.61753 0.0
C3084 C 0.65981 0.28943 0.59278 0.0
C3085 C 0.65954 0.30299 0.59017 0.0
C3086 C 0.64961 0.28346 0.59973 0.0
C3087 C 0.63891 0.29091 0.60428 0.0
C3088 C 0.63875 0.30451 0.60188 0.0
C3089 C 0.64896 0.31048 0.5949 0.0
C3090 C 0.62771 0.28439 0.61101 0.0
C3091 C 0.62992 0.27421 0.62007 0.0
C3092 C 0.61938 0.26738 0.62577 0.0
C3093 C 0.60647 0.27098 0.62244 0.0
C3094 C 0.60406 0.28118 0.61345 0.0
C3095 C 0.61474 0.28787 0.60785 0.0
C3096 C 0.59045 0.28434 0.60925 0.0
C3097 C 0.58161 0.27423 0.60611 0.0
C3098 C 0.58634 0.29747 0.60794 0.0
C3099 C 0.5737 0.3004 0.60341 0.0
C3100 C 0.565 0.29029 0.59992 0.0
C3101 C 0.62183 0.25601 0.63462 0.0
C3102 C 0.63155 0.24671 0.63149 0.0
C3103 C 0.61417 0.25407 0.64595 0.0
C3104 C 0.61594 0.24291 0.65376 0.0
C3105 C 0.62539 0.23342 0.65039 0.0
C3106 C 0.6333 0.23554 0.63928 0.0
C3107 C 0.56902 0.27717 0.60152 0.0
H3108 H 0.66781 0.28336 0.58926 0.0
H3109 H 0.64994 0.27293 0.60124 0.0
H3110 H 0.63073 0.31055 0.60538 0.0
H3111 H 0.64848 0.32096 0.59312 0.0
H3112 H 0.6399 0.27161 0.62271 0.0
H3113 H 0.61294 0.29538 0.60052 0.0
H3114 H 0.59827 0.26564 0.62663 0.0
H3115 H 0.58452 0.26403 0.60688 0.0
H3116 H 0.59286 0.30546 0.61052 0.0
H3117 H 0.5707 0.31058 0.60289 0.0
H3118 H 0.63752 0.24783 0.62276 0.0
H3119 H 0.60672 0.26115 0.64871 0.0
H3120 H 0.56251 0.26915 0.59898 0.0
H3121 H 0.64065 0.22842 0.6364 0.0
H3122 H 0.6097 0.24158 0.66227 0.0
C3123 C 0.96444 0.31793 0.86188 0.0
C3124 C 0.96087 0.31526 0.84884 0.0
C3125 C 0.96622 0.33088 0.8661 0.0
C3126 C 0.96472 0.34143 0.85728 0.0
C3127 C 0.96108 0.33868 0.84422 0.0
C3128 C 0.95914 0.32575 0.84008 0.0
C3129 C 0.9675 0.35519 0.86146 0.0
C3130 C 0.97806 0.35794 0.86994 0.0
C3131 C 0.98135 0.37094 0.8732 0.0
C3132 C 0.97393 0.38129 0.86789 0.0
C3133 C 0.96339 0.37879 0.85936 0.0
C3134 C 0.96014 0.36571 0.85635 0.0
C3135 C 0.95626 0.38979 0.85293 0.0
C3136 C 0.94258 0.38928 0.85116 0.0
C3137 C 0.96322 0.40063 0.84793 0.0
C3138 C 0.95669 0.41058 0.84109 0.0
C3139 C 0.94306 0.40991 0.83906 0.0
C3140 C 0.99302 0.3737 0.88152 0.0
C3141 C 0.99559 0.36612 0.89278 0.0
C3142 C 0.00197 0.38359 0.87794 0.0
C3143 C 0.01343 0.38558 0.88521 0.0
C3144 C 0.01619 0.37777 0.89626 0.0
C3145 C 0.00704 0.36816 0.90009 0.0
C3146 C 0.93605 0.39922 0.84429 0.0
H3147 H 0.96589 0.30998 0.86882 0.0
H3148 H 0.96885 0.33261 0.87626 0.0
H3149 H 0.96018 0.34647 0.83704 0.0
H3150 H 0.95688 0.32395 0.82984 0.0
H3151 H 0.98414 0.34998 0.87353 0.0
H3152 H 0.95206 0.36374 0.84972 0.0
H3153 H 0.97637 0.39134 0.87043 0.0
H3154 H 0.93691 0.38115 0.85503 0.0
H3155 H 0.97378 0.40125 0.84895 0.0
H3156 H 0.96239 0.41867 0.83718 0.0
H3157 H 0.98881 0.35853 0.89587 0.0
H3158 H 0.00034 0.3895 0.86924 0.0
H3159 H 0.92552 0.39845 0.84296 0.0
H3160 H 0.00885 0.36198 0.90856 0.0
H3161 H 0.02028 0.39306 0.88198 0.0
C3162 C 0.93055 0.70618 0.11476 0.0
C3163 C 0.93299 0.70375 0.10142 0.0
C3164 C 0.91773 0.70831 0.11921 0.0
C3165 C 0.90712 0.70835 0.11034 0.0
C3166 C 0.90964 0.70579 0.09699 0.0
C3167 C 0.92242 0.70345 0.0926 0.0
C3168 C 0.89359 0.71171 0.11484 0.0
C3169 C 0.89164 0.72146 0.12442 0.0
C3170 C 0.87893 0.72539 0.12807 0.0
C3171 C 0.86804 0.71951 0.12198 0.0
C3172 C 0.86976 0.70972 0.11239 0.0
C3173 C 0.88256 0.70579 0.10902 0.0
C3174 C 0.85831 0.70408 0.10531 0.0
C3175 C 0.85792 0.69065 0.10213 0.0
C3176 C 0.84804 0.71225 0.10099 0.0
C3177 C 0.83782 0.70717 0.09337 0.0
C3178 C 0.83766 0.69382 0.08984 0.0
C3179 C 0.87719 0.73616 0.13775 0.0
C3180 C 0.88477 0.73648 0.14927 0.0
C3181 C 0.86854 0.7466 0.13514 0.0
C3182 C 0.86792 0.75741 0.1436 0.0
C3183 C 0.87587 0.75795 0.15488 0.0
C3184 C 0.88409 0.74724 0.15777 0.0
C3185 C 0.84773 0.68558 0.09446 0.0
H3186 H 0.93857 0.70649 0.12175 0.0
H3187 H 0.91618 0.71004 0.12958 0.0
H3188 H 0.90183 0.70607 0.08979 0.0
H3189 H 0.92409 0.70201 0.0822 0.0
H3190 H 0.90002 0.72647 0.12863 0.0
H3191 H 0.88394 0.69832 0.10158 0.0
H3192 H 0.85822 0.72251 0.12477 0.0
H3193 H 0.86557 0.68405 0.10546 0.0
H3194 H 0.84811 0.72267 0.10313 0.0
H3195 H 0.83021 0.71379 0.08998 0.0
H3196 H 0.89141 0.7285 0.1516 0.0
H3197 H 0.86264 0.74667 0.12629 0.0
H3198 H 0.84784 0.67523 0.09202 0.0
H3199 H 0.89032 0.74732 0.16639 0.0
H3200 H 0.86147 0.76549 0.1411 0.0
C3201 C 0.54214 0.68156 0.36806 0.0
C3202 C 0.54433 0.68298 0.35453 0.0
C3203 C 0.53994 0.66913 0.3735 0.0
C3204 C 0.53963 0.65789 0.36546 0.0
C3205 C 0.54192 0.65938 0.3519 0.0
C3206 C 0.54428 0.67178 0.34651 0.0
C3207 C 0.53632 0.64476 0.37102 0.0
C3208 C 0.52658 0.64353 0.38073 0.0
C3209 C 0.52266 0.63113 0.38535 0.0
C3210 C 0.52859 0.61981 0.38013 0.0
C3211 C 0.53834 0.62082 0.3704 0.0
C3212 C 0.54224 0.63333 0.36605 0.0
C3213 C 0.54385 0.60886 0.36407 0.0
C3214 C 0.55722 0.60821 0.3607 0.0
C3215 C 0.53558 0.59838 0.36055 0.0
C3216 C 0.54047 0.58771 0.35344 0.0
C3217 C 0.55374 0.58731 0.34965 0.0
C3218 C 0.51173 0.63008 0.39497 0.0
C3219 C 0.51097 0.63875 0.40568 0.0
C3220 C 0.50152 0.62098 0.39302 0.0
C3221 C 0.49053 0.62097 0.40125 0.0
C3222 C 0.48952 0.63002 0.41163 0.0
C3223 C 0.50001 0.6387 0.41394 0.0
C3224 C 0.56211 0.59757 0.35355 0.0
H3225 H 0.54209 0.69007 0.37444 0.0
H3226 H 0.53839 0.66835 0.38399 0.0
H3227 H 0.54141 0.65104 0.34532 0.0
H3228 H 0.54547 0.67265 0.33598 0.0
H3229 H 0.52156 0.65223 0.38426 0.0
H3230 H 0.54966 0.63415 0.35848 0.0
H3231 H 0.52561 0.61022 0.38365 0.0
H3232 H 0.5639 0.61602 0.36345 0.0
H3233 H 0.5252 0.59864 0.36285 0.0
H3234 H 0.53376 0.57997 0.35061 0.0
H3235 H 0.51877 0.64575 0.40754 0.0
H3236 H 0.50176 0.61424 0.3848 0.0
H3237 H 0.57241 0.5975 0.35089 0.0
H3238 H 0.49957 0.64577 0.42187 0.0
H3239 H 0.48263 0.61415 0.3992 0.0
C3240 C 0.88052 0.57275 0.71036 0.0
C3241 C 0.8935 0.56941 0.70715 0.0
C3242 C 0.87711 0.58582 0.71285 0.0
C3243 C 0.88668 0.5958 0.71242 0.0
C3244 C 0.89965 0.5924 0.70906 0.0
C3245 C 0.90301 0.57936 0.70643 0.0
C3246 C 0.88336 0.60955 0.71616 0.0
C3247 C 0.87485 0.61204 0.72675 0.0
C3248 C 0.87243 0.62493 0.73104 0.0
C3249 C 0.87862 0.63544 0.72459 0.0
C3250 C 0.8872 0.63318 0.71402 0.0
C3251 C 0.88936 0.62022 0.70978 0.0
C3252 C 0.8946 0.64422 0.70794 0.0
C3253 C 0.89675 0.64463 0.69431 0.0
C3254 C 0.90018 0.65406 0.71586 0.0
C3255 C 0.90797 0.6639 0.71031 0.0
C3256 C 0.9104 0.66411 0.69673 0.0
C3257 C 0.86413 0.62727 0.74282 0.0
C3258 C 0.85244 0.62018 0.74471 0.0
C3259 C 0.86823 0.63609 0.75262 0.0
C3260 C 0.86105 0.63745 0.76424 0.0
C3261 C 0.84959 0.63003 0.76631 0.0
C3262 C 0.84523 0.62156 0.75632 0.0
C3263 C 0.90457 0.65446 0.68876 0.0
H3264 H 0.87303 0.56522 0.71104 0.0
H3265 H 0.867 0.58809 0.71524 0.0
H3266 H 0.90736 0.59972 0.70897 0.0
H3267 H 0.91319 0.57701 0.70448 0.0
H3268 H 0.8706 0.60388 0.73211 0.0
H3269 H 0.89605 0.61841 0.70171 0.0
H3270 H 0.87675 0.64541 0.72781 0.0
H3271 H 0.89244 0.6373 0.68792 0.0
H3272 H 0.89888 0.65394 0.72642 0.0
H3273 H 0.91231 0.67118 0.71673 0.0
H3274 H 0.84894 0.61342 0.73728 0.0
H3275 H 0.87726 0.6416 0.75153 0.0
H3276 H 0.90618 0.65438 0.67825 0.0
H3277 H 0.83642 0.61573 0.75758 0.0
H3278 H 0.86468 0.64406 0.77174 0.0
C3279 C 0.68117 0.63357 0.95728 0.0
C3280 C 0.68314 0.64703 0.95505 0.0
C3281 C 0.66849 0.62861 0.9591 0.0
C3282 C 0.65755 0.63706 0.95897 0.0
C3283 C 0.6596 0.65054 0.95665 0.0
C3284 C 0.67225 0.65545 0.95467 0.0
C3285 C 0.64414 0.632 0.96191 0.0
C3286 C 0.64227 0.62246 0.97171 0.0
C3287 C 0.62961 0.61831 0.97528 0.0
C3288 C 0.61867 0.62383 0.96891 0.0
C3289 C 0.62032 0.63337 0.95905 0.0
C3290 C 0.6331 0.63726 0.95553 0.0
C3291 C 0.60879 0.63993 0.95295 0.0
C3292 C 0.60875 0.64304 0.93949 0.0
C3293 C 0.59809 0.6439 0.96073 0.0
C3294 C 0.58781 0.65117 0.95526 0.0
C3295 C 0.58802 0.65468 0.9419 0.0
C3296 C 0.62791 0.60886 0.98626 0.0
C3297 C 0.63613 0.59781 0.98731 0.0
C3298 C 0.61874 0.61131 0.99628 0.0
C3299 C 0.61824 0.60326 0.00741 0.0
C3300 C 0.62688 0.59256 0.00872 0.0
C3301 C 0.6356 0.58974 0.9984 0.0
C3302 C 0.5985 0.65035 0.93404 0.0
H3303 H 0.68944 0.62688 0.95766 0.0
H3304 H 0.66728 0.61816 0.9607 0.0
H3305 H 0.65149 0.65741 0.95682 0.0
H3306 H 0.67354 0.66594 0.95344 0.0
H3307 H 0.65067 0.6187 0.97706 0.0
H3308 H 0.63443 0.64471 0.94805 0.0
H3309 H 0.60888 0.62067 0.97162 0.0
H3310 H 0.61674 0.63995 0.93319 0.0
H3311 H 0.59788 0.64182 0.97116 0.0
H3312 H 0.57988 0.65434 0.9616 0.0
H3313 H 0.64319 0.59558 0.97966 0.0
H3314 H 0.61234 0.6198 0.9958 0.0
H3315 H 0.5989 0.65278 0.92368 0.0
H3316 H 0.64235 0.58154 0.99906 0.0
H3317 H 0.6114 0.6057 0.01517 0.0
C3318 C 0.59419 0.34243 0.20669 0.0
C3319 C 0.59058 0.34253 0.19337 0.0
C3320 C 0.60089 0.35309 0.21217 0.0
C3321 C 0.60415 0.36406 0.20444 0.0
C3322 C 0.60083 0.364 0.19104 0.0
C3323 C 0.59411 0.35337 0.18557 0.0
C3324 C 0.61042 0.37578 0.21048 0.0
C3325 C 0.6203 0.37439 0.22003 0.0
C3326 C 0.62572 0.38545 0.22625 0.0
C3327 C 0.62116 0.39802 0.22281 0.0
C3328 C 0.6113 0.39959 0.21329 0.0
C3329 C 0.60606 0.38844 0.20713 0.0
C3330 C 0.60592 0.4128 0.21027 0.0
C3331 C 0.60242 0.42138 0.22047 0.0
C3332 C 0.6039 0.41676 0.1972 0.0
C3333 C 0.59838 0.42902 0.1944 0.0
C3334 C 0.59452 0.43745 0.20461 0.0
C3335 C 0.63574 0.38391 0.23675 0.0
C3336 C 0.63408 0.37445 0.24668 0.0
C3337 C 0.64671 0.39226 0.23726 0.0
C3338 C 0.65564 0.39142 0.24767 0.0
C3339 C 0.65372 0.38227 0.25784 0.0
C3340 C 0.64295 0.37366 0.25712 0.0
C3341 C 0.59677 0.43357 0.21768 0.0
H3342 H 0.59163 0.33424 0.21298 0.0
H3343 H 0.60316 0.35288 0.22256 0.0
H3344 H 0.60336 0.37223 0.18478 0.0
H3345 H 0.59155 0.35372 0.17525 0.0
H3346 H 0.62386 0.36467 0.22256 0.0
H3347 H 0.59813 0.38962 0.20012 0.0
H3348 H 0.62511 0.4066 0.22771 0.0
H3349 H 0.60376 0.41855 0.23064 0.0
H3350 H 0.60675 0.41042 0.18914 0.0
H3351 H 0.59742 0.43197 0.18425 0.0
H3352 H 0.62566 0.36794 0.24661 0.0
H3353 H 0.64834 0.39954 0.22967 0.0
H3354 H 0.59399 0.43988 0.22577 0.0
H3355 H 0.64119 0.3665 0.2648 0.0
H3356 H 0.66384 0.39818 0.2479 0.0
C3357 C 0.81744 0.36421 0.46397 0.0
C3358 C 0.81531 0.35101 0.46062 0.0
C3359 C 0.83019 0.3689 0.46607 0.0
C3360 C 0.84105 0.3604 0.46511 0.0
C3361 C 0.83883 0.34717 0.46172 0.0
C3362 C 0.82612 0.34256 0.45945 0.0
C3363 C 0.85459 0.36511 0.46814 0.0
C3364 C 0.8568 0.37399 0.4785 0.0
C3365 C 0.86961 0.37775 0.48202 0.0
C3366 C 0.8803 0.37255 0.47503 0.0
C3367 C 0.87833 0.3636 0.46472 0.0
C3368 C 0.86545 0.36011 0.46123 0.0
C3369 C 0.8897 0.35719 0.45818 0.0
C3370 C 0.88962 0.35481 0.44458 0.0
C3371 C 0.90043 0.35274 0.46565 0.0
C3372 C 0.91068 0.34582 0.45973 0.0
C3373 C 0.91042 0.34314 0.44619 0.0
C3374 C 0.87184 0.38647 0.49352 0.0
C3375 C 0.86381 0.39749 0.49569 0.0
C3376 C 0.88174 0.38352 0.50269 0.0
C3377 C 0.88334 0.3912 0.51395 0.0
C3378 C 0.87509 0.40202 0.51629 0.0
C3379 C 0.86544 0.4052 0.50694 0.0
C3380 C 0.89986 0.34785 0.43865 0.0
H3381 H 0.80923 0.37091 0.465 0.0
H3382 H 0.83151 0.37916 0.4685 0.0
H3383 H 0.84686 0.34022 0.46125 0.0
H3384 H 0.82473 0.33222 0.45737 0.0
H3385 H 0.84858 0.3775 0.48426 0.0
H3386 H 0.86389 0.35317 0.45332 0.0
H3387 H 0.89019 0.37546 0.47763 0.0
H3388 H 0.88159 0.35826 0.43851 0.0
H3389 H 0.90072 0.35423 0.47618 0.0
H3390 H 0.91867 0.34233 0.46583 0.0
H3391 H 0.85621 0.4001 0.48873 0.0
H3392 H 0.88799 0.37502 0.50139 0.0
H3393 H 0.89941 0.34604 0.42818 0.0
H3394 H 0.85893 0.41348 0.50844 0.0
H3395 H 0.89085 0.38846 0.52096 0.0
C3396 C 0.88052 0.42678 0.78916 0.0
C3397 C 0.8935 0.43012 0.79236 0.0
C3398 C 0.87711 0.41371 0.78667 0.0
C3399 C 0.88668 0.40373 0.78709 0.0
C3400 C 0.89965 0.40713 0.79045 0.0
C3401 C 0.90301 0.42016 0.79308 0.0
C3402 C 0.88336 0.38998 0.78335 0.0
C3403 C 0.87485 0.38749 0.77277 0.0
C3404 C 0.87243 0.3746 0.76847 0.0
C3405 C 0.87862 0.36409 0.77493 0.0
C3406 C 0.8872 0.36635 0.7855 0.0
C3407 C 0.88936 0.3793 0.78974 0.0
C3408 C 0.8946 0.35531 0.79157 0.0
C3409 C 0.89675 0.3549 0.80521 0.0
C3410 C 0.90018 0.34547 0.78366 0.0
C3411 C 0.90797 0.33563 0.7892 0.0
C3412 C 0.9104 0.33542 0.80279 0.0
C3413 C 0.86413 0.37226 0.75669 0.0
C3414 C 0.85244 0.37935 0.7548 0.0
C3415 C 0.86823 0.36343 0.7469 0.0
C3416 C 0.86105 0.36208 0.73528 0.0
C3417 C 0.84959 0.3695 0.73321 0.0
C3418 C 0.84523 0.37797 0.7432 0.0
C3419 C 0.90457 0.34507 0.81075 0.0
H3420 H 0.87303 0.4343 0.78848 0.0
H3421 H 0.867 0.41144 0.78427 0.0
H3422 H 0.90736 0.39981 0.79055 0.0
H3423 H 0.91319 0.42252 0.79503 0.0
H3424 H 0.8706 0.39565 0.7674 0.0
H3425 H 0.89605 0.38111 0.7978 0.0
H3426 H 0.87675 0.35412 0.7717 0.0
H3427 H 0.89244 0.36223 0.8116 0.0
H3428 H 0.89888 0.34559 0.7731 0.0
H3429 H 0.91231 0.32834 0.78278 0.0
H3430 H 0.84894 0.3861 0.76224 0.0
H3431 H 0.87726 0.35793 0.74799 0.0
H3432 H 0.90618 0.34514 0.82127 0.0
H3433 H 0.83642 0.3838 0.74193 0.0
H3434 H 0.86468 0.35547 0.72778 0.0
C3435 C 0.81744 0.63532 0.03555 0.0
C3436 C 0.81531 0.64852 0.0389 0.0
C3437 C 0.83019 0.63063 0.03345 0.0
C3438 C 0.84105 0.63913 0.0344 0.0
C3439 C 0.83883 0.65235 0.0378 0.0
C3440 C 0.82612 0.65697 0.04006 0.0
C3441 C 0.85459 0.63442 0.03137 0.0
C3442 C 0.8568 0.62554 0.02102 0.0
C3443 C 0.86961 0.62178 0.0175 0.0
C3444 C 0.8803 0.62698 0.02449 0.0
C3445 C 0.87833 0.63593 0.03479 0.0
C3446 C 0.86545 0.63942 0.03829 0.0
C3447 C 0.8897 0.64234 0.04134 0.0
C3448 C 0.88962 0.64471 0.05494 0.0
C3449 C 0.90043 0.64679 0.03386 0.0
C3450 C 0.91068 0.6537 0.03979 0.0
C3451 C 0.91042 0.65638 0.05332 0.0
C3452 C 0.87184 0.61306 0.006 0.0
C3453 C 0.86381 0.60204 0.00383 0.0
C3454 C 0.88174 0.616 0.99682 0.0
C3455 C 0.88334 0.60833 0.98557 0.0
C3456 C 0.87509 0.59751 0.98322 0.0
C3457 C 0.86544 0.59433 0.99257 0.0
C3458 C 0.89986 0.65167 0.06087 0.0
H3459 H 0.80923 0.62862 0.03452 0.0
H3460 H 0.83151 0.62036 0.03102 0.0
H3461 H 0.84686 0.6593 0.03827 0.0
H3462 H 0.82473 0.6673 0.04215 0.0
H3463 H 0.84858 0.62203 0.01525 0.0
H3464 H 0.86389 0.64636 0.0462 0.0
H3465 H 0.89019 0.62406 0.02189 0.0
H3466 H 0.88159 0.64127 0.061 0.0
H3467 H 0.90072 0.6453 0.02333 0.0
H3468 H 0.91867 0.6572 0.03369 0.0
H3469 H 0.85621 0.59942 0.01079 0.0
H3470 H 0.88799 0.62451 0.99812 0.0
H3471 H 0.89941 0.65349 0.07134 0.0
H3472 H 0.85893 0.58605 0.99107 0.0
H3473 H 0.89085 0.61107 0.97855 0.0
C3474 C 0.59419 0.65709 0.29282 0.0
C3475 C 0.59058 0.65699 0.30615 0.0
C3476 C 0.60089 0.64644 0.28734 0.0
C3477 C 0.60415 0.63546 0.29507 0.0
C3478 C 0.60083 0.63552 0.30847 0.0
C3479 C 0.59411 0.64616 0.31395 0.0
C3480 C 0.61042 0.62374 0.28903 0.0
C3481 C 0.6203 0.62514 0.27949 0.0
C3482 C 0.62572 0.61408 0.27327 0.0
C3483 C 0.62116 0.6015 0.27671 0.0
C3484 C 0.6113 0.59993 0.28622 0.0
C3485 C 0.60606 0.61108 0.29239 0.0
C3486 C 0.60592 0.58673 0.28924 0.0
C3487 C 0.60242 0.57815 0.27904 0.0
C3488 C 0.6039 0.58277 0.30231 0.0
C3489 C 0.59838 0.5705 0.30512 0.0
C3490 C 0.59452 0.56207 0.2949 0.0
C3491 C 0.63574 0.61562 0.26276 0.0
C3492 C 0.63408 0.62508 0.25284 0.0
C3493 C 0.64671 0.60727 0.26225 0.0
C3494 C 0.65564 0.60811 0.25185 0.0
C3495 C 0.65372 0.61726 0.24168 0.0
C3496 C 0.64295 0.62587 0.24239 0.0
C3497 C 0.59677 0.56596 0.28184 0.0
H3498 H 0.59163 0.66529 0.28654 0.0
H3499 H 0.60316 0.64664 0.27695 0.0
H3500 H 0.60336 0.6273 0.31474 0.0
H3501 H 0.59155 0.64581 0.32427 0.0
H3502 H 0.62386 0.63485 0.27696 0.0
H3503 H 0.59813 0.60991 0.29939 0.0
H3504 H 0.62511 0.59292 0.27181 0.0
H3505 H 0.60376 0.58098 0.26887 0.0
H3506 H 0.60675 0.58911 0.31037 0.0
H3507 H 0.59742 0.56755 0.31527 0.0
H3508 H 0.62566 0.63158 0.2529 0.0
H3509 H 0.64834 0.59999 0.26985 0.0
H3510 H 0.59399 0.55964 0.27374 0.0
H3511 H 0.64119 0.63303 0.23472 0.0
H3512 H 0.66384 0.60134 0.25161 0.0
C3513 C 0.68117 0.36596 0.54223 0.0
C3514 C 0.68314 0.3525 0.54446 0.0
C3515 C 0.66849 0.37092 0.54042 0.0
C3516 C 0.65755 0.36247 0.54054 0.0
C3517 C 0.6596 0.34899 0.54287 0.0
C3518 C 0.67225 0.34408 0.54484 0.0
C3519 C 0.64414 0.36753 0.53761 0.0
C3520 C 0.64227 0.37707 0.52781 0.0
C3521 C 0.62961 0.38122 0.52424 0.0
C3522 C 0.61867 0.3757 0.53061 0.0
C3523 C 0.62032 0.36616 0.54047 0.0
C3524 C 0.6331 0.36226 0.54398 0.0
C3525 C 0.60879 0.35959 0.54656 0.0
C3526 C 0.60875 0.35649 0.56002 0.0
C3527 C 0.59809 0.35562 0.53879 0.0
C3528 C 0.58781 0.34835 0.54426 0.0
C3529 C 0.58802 0.34485 0.55761 0.0
C3530 C 0.62791 0.39067 0.51325 0.0
C3531 C 0.63613 0.40171 0.5122 0.0
C3532 C 0.61874 0.38822 0.50324 0.0
C3533 C 0.61824 0.39626 0.49211 0.0
C3534 C 0.62688 0.40697 0.4908 0.0
C3535 C 0.6356 0.40979 0.50112 0.0
C3536 C 0.5985 0.34918 0.56548 0.0
H3537 H 0.68944 0.37264 0.54185 0.0
H3538 H 0.66728 0.38137 0.53882 0.0
H3539 H 0.65149 0.34212 0.5427 0.0
H3540 H 0.67354 0.33359 0.54607 0.0
H3541 H 0.65067 0.38082 0.52245 0.0
H3542 H 0.63443 0.35482 0.55147 0.0
H3543 H 0.60888 0.37886 0.52789 0.0
H3544 H 0.61674 0.35958 0.56633 0.0
H3545 H 0.59788 0.35771 0.52836 0.0
H3546 H 0.57988 0.34519 0.53792 0.0
H3547 H 0.64319 0.40395 0.51985 0.0
H3548 H 0.61234 0.37973 0.50372 0.0
H3549 H 0.5989 0.34675 0.57583 0.0
H3550 H 0.64235 0.41799 0.50045 0.0
H3551 H 0.6114 0.39383 0.48434 0.0
C3552 C 0.70792 0.88304 0.56582 0.0
C3553 C 0.70541 0.8964 0.56354 0.0
C3554 C 0.7099 0.87841 0.5786 0.0
C3555 C 0.7097 0.88711 0.58934 0.0
C3556 C 0.70706 0.90048 0.58699 0.0
C3557 C 0.70487 0.90506 0.57423 0.0
C3558 C 0.7129 0.88242 0.60285 0.0
C3559 C 0.72272 0.87292 0.60481 0.0
C3560 C 0.72649 0.86908 0.61752 0.0
C3561 C 0.72037 0.87492 0.62841 0.0
C3562 C 0.71049 0.88441 0.62669 0.0
C3563 C 0.70674 0.88798 0.61388 0.0
C3564 C 0.70454 0.89119 0.63817 0.0
C3565 C 0.69105 0.89414 0.63838 0.0
C3566 C 0.71244 0.89542 0.64867 0.0
C3567 C 0.70705 0.90274 0.65895 0.0
C3568 C 0.69365 0.90604 0.65895 0.0
C3569 C 0.73733 0.85949 0.61927 0.0
C3570 C 0.73784 0.84806 0.61156 0.0
C3571 C 0.74765 0.86209 0.62806 0.0
C3572 C 0.75853 0.85373 0.6287 0.0
C3573 C 0.75925 0.84254 0.62064 0.0
C3574 C 0.74866 0.83964 0.61228 0.0
C3575 C 0.68567 0.9015 0.64864 0.0
H3576 H 0.70841 0.87618 0.5577 0.0
H3577 H 0.71169 0.86802 0.58003 0.0
H3578 H 0.70715 0.90756 0.59492 0.0
H3579 H 0.70338 0.91548 0.5727 0.0
H3580 H 0.72792 0.8689 0.59644 0.0
H3581 H 0.6992 0.89536 0.6125 0.0
H3582 H 0.72324 0.87199 0.63823 0.0
H3583 H 0.68465 0.89086 0.63055 0.0
H3584 H 0.72289 0.89345 0.64874 0.0
H3585 H 0.71348 0.90608 0.66675 0.0
H3586 H 0.72995 0.84574 0.60481 0.0
H3587 H 0.74756 0.87088 0.63405 0.0
H3588 H 0.67528 0.90377 0.64839 0.0
H3589 H 0.74888 0.83109 0.60596 0.0
H3590 H 0.76652 0.85622 0.63526 0.0
C3591 C 0.20792 0.61649 0.4337 0.0
C3592 C 0.20541 0.60313 0.43598 0.0
C3593 C 0.2099 0.62112 0.42092 0.0
C3594 C 0.2097 0.61242 0.41017 0.0
C3595 C 0.20706 0.59904 0.41253 0.0
C3596 C 0.20487 0.59447 0.42528 0.0
C3597 C 0.2129 0.6171 0.39667 0.0
C3598 C 0.22272 0.62661 0.39471 0.0
C3599 C 0.22649 0.63044 0.382 0.0
C3600 C 0.22037 0.62461 0.3711 0.0
C3601 C 0.21049 0.61511 0.37283 0.0
C3602 C 0.20674 0.61155 0.38564 0.0
C3603 C 0.20454 0.60834 0.36134 0.0
C3604 C 0.19105 0.60538 0.36113 0.0
C3605 C 0.21244 0.60411 0.35084 0.0
C3606 C 0.20705 0.59678 0.34056 0.0
C3607 C 0.19365 0.59349 0.34057 0.0
C3608 C 0.23733 0.64003 0.38024 0.0
C3609 C 0.23784 0.65147 0.38795 0.0
C3610 C 0.24765 0.63743 0.37146 0.0
C3611 C 0.25853 0.6458 0.37082 0.0
C3612 C 0.25925 0.65699 0.37888 0.0
C3613 C 0.24866 0.65989 0.38724 0.0
C3614 C 0.18567 0.59803 0.35088 0.0
H3615 H 0.20841 0.62334 0.44181 0.0
H3616 H 0.21169 0.6315 0.41949 0.0
H3617 H 0.20715 0.59197 0.4046 0.0
H3618 H 0.20338 0.58405 0.42681 0.0
H3619 H 0.22792 0.63063 0.40308 0.0
H3620 H 0.1992 0.60417 0.38701 0.0
H3621 H 0.22324 0.62754 0.36128 0.0
H3622 H 0.18465 0.60867 0.36897 0.0
H3623 H 0.22289 0.60608 0.35077 0.0
H3624 H 0.21348 0.59345 0.33276 0.0
H3625 H 0.22995 0.65379 0.3947 0.0
H3626 H 0.24756 0.62865 0.36546 0.0
H3627 H 0.17528 0.59576 0.35113 0.0
H3628 H 0.24888 0.66844 0.39355 0.0
H3629 H 0.26652 0.64331 0.36426 0.0
C3630 C 0.63465 0.95989 0.67884 0.0
C3631 C 0.64772 0.95627 0.68131 0.0
C3632 C 0.63044 0.96248 0.66602 0.0
C3633 C 0.6393 0.96174 0.65543 0.0
C3634 C 0.65237 0.95802 0.65797 0.0
C3635 C 0.65651 0.95528 0.67076 0.0
C3636 C 0.63513 0.96539 0.64187 0.0
C3637 C 0.62661 0.97607 0.63979 0.0
C3638 C 0.62335 0.98017 0.62701 0.0
C3639 C 0.6287 0.97345 0.61622 0.0
C3640 C 0.63728 0.9628 0.61808 0.0
C3641 C 0.64028 0.95874 0.63093 0.0
C3642 C 0.6438 0.95643 0.60668 0.0
C3643 C 0.64572 0.94275 0.60638 0.0
C3644 C 0.64882 0.96409 0.59634 0.0
C3645 C 0.65585 0.95826 0.58611 0.0
C3646 C 0.65808 0.94464 0.58601 0.0
C3647 C 0.615 0.99197 0.62498 0.0
C3648 C 0.60377 0.99407 0.63274 0.0
C3649 C 0.61852 0.00151 0.61563 0.0
C3650 C 0.6112 0.01306 0.61433 0.0
C3651 C 0.60019 0.01531 0.62233 0.0
C3652 C 0.59643 0.0056 0.63141 0.0
C3653 C 0.65279 0.93693 0.59617 0.0
H3654 H 0.62769 0.96078 0.68684 0.0
H3655 H 0.62027 0.96514 0.66443 0.0
H3656 H 0.65958 0.95768 0.65016 0.0
H3657 H 0.66676 0.95298 0.67244 0.0
H3658 H 0.62299 0.98162 0.64811 0.0
H3659 H 0.64695 0.95058 0.63241 0.0
H3660 H 0.62618 0.97651 0.60634 0.0
H3661 H 0.64183 0.93655 0.6141 0.0
H3662 H 0.64768 0.97467 0.59635 0.0
H3663 H 0.65979 0.9645 0.57844 0.0
H3664 H 0.60072 0.98683 0.63992 0.0
H3665 H 0.62719 0.00026 0.6096 0.0
H3666 H 0.65425 0.92639 0.59633 0.0
H3667 H 0.58798 0.00702 0.63771 0.0
H3668 H 0.61438 0.02034 0.60726 0.0
C3669 C 0.28953 0.38634 0.92691 0.0
C3670 C 0.29308 0.39947 0.92913 0.0
C3671 C 0.28672 0.38193 0.9142 0.0
C3672 C 0.28719 0.39065 0.90348 0.0
C3673 C 0.2907 0.40383 0.90578 0.0
C3674 C 0.29365 0.40817 0.91845 0.0
C3675 C 0.28364 0.38619 0.88999 0.0
C3676 C 0.27312 0.37746 0.888 0.0
C3677 C 0.26918 0.3739 0.87525 0.0
C3678 C 0.27593 0.37915 0.86442 0.0
C3679 C 0.2864 0.38794 0.86619 0.0
C3680 C 0.29029 0.39125 0.879 0.0
C3681 C 0.29272 0.3944 0.85471 0.0
C3682 C 0.30635 0.39663 0.85447 0.0
C3683 C 0.28503 0.39908 0.84424 0.0
C3684 C 0.29077 0.40612 0.83395 0.0
C3685 C 0.30432 0.40869 0.83393 0.0
C3686 C 0.25752 0.36535 0.87324 0.0
C3687 C 0.25544 0.35424 0.88119 0.0
C3688 C 0.24812 0.36851 0.86363 0.0
C3689 C 0.23676 0.36095 0.86221 0.0
C3690 C 0.23454 0.35002 0.87036 0.0
C3691 C 0.24409 0.34664 0.87975 0.0
C3692 C 0.31208 0.40371 0.8442 0.0
H3693 H 0.28895 0.37946 0.93501 0.0
H3694 H 0.28418 0.3717 0.91279 0.0
H3695 H 0.2908 0.41093 0.89787 0.0
H3696 H 0.29585 0.41846 0.91994 0.0
H3697 H 0.26758 0.37389 0.89636 0.0
H3698 H 0.29832 0.39808 0.88041 0.0
H3699 H 0.27301 0.37638 0.85456 0.0
H3700 H 0.31258 0.39299 0.86229 0.0
H3701 H 0.27448 0.3977 0.8442 0.0
H3702 H 0.2845 0.40981 0.82619 0.0
H3703 H 0.26257 0.35147 0.88858 0.0
H3704 H 0.24933 0.37709 0.85745 0.0
H3705 H 0.32258 0.40544 0.84443 0.0
H3706 H 0.24268 0.33828 0.88618 0.0
H3707 H 0.22959 0.36384 0.8549 0.0
C3708 C 0.34675 0.54075 0.59413 0.0
C3709 C 0.34269 0.55393 0.59468 0.0
C3710 C 0.35392 0.53521 0.60445 0.0
C3711 C 0.35724 0.54274 0.61554 0.0
C3712 C 0.35342 0.55601 0.61595 0.0
C3713 C 0.34622 0.56154 0.60565 0.0
C3714 C 0.36409 0.53659 0.62688 0.0
C3715 C 0.37417 0.52735 0.62489 0.0
C3716 C 0.38005 0.52087 0.63557 0.0
C3717 C 0.37579 0.52379 0.64837 0.0
C3718 C 0.36575 0.53298 0.65056 0.0
C3719 C 0.36003 0.53941 0.63978 0.0
C3720 C 0.36059 0.53523 0.66401 0.0
C3721 C 0.35778 0.52452 0.67224 0.0
C3722 C 0.35809 0.54801 0.66857 0.0
C3723 C 0.35273 0.55002 0.68107 0.0
C3724 C 0.34953 0.53928 0.68913 0.0
C3725 C 0.39003 0.51043 0.63343 0.0
C3726 C 0.3881 0.5008 0.62372 0.0
C3727 C 0.40108 0.50949 0.64165 0.0
C3728 C 0.40967 0.49883 0.64059 0.0
C3729 C 0.40738 0.48887 0.63132 0.0
C3730 C 0.39667 0.49013 0.62269 0.0
C3731 C 0.35233 0.52652 0.68466 0.0
H3732 H 0.34419 0.5346 0.58584 0.0
H3733 H 0.35653 0.52491 0.60388 0.0
H3734 H 0.35596 0.56212 0.62427 0.0
H3735 H 0.34332 0.57175 0.60635 0.0
H3736 H 0.37747 0.5252 0.615 0.0
H3737 H 0.35194 0.54613 0.64142 0.0
H3738 H 0.38007 0.51866 0.65666 0.0
H3739 H 0.35949 0.51454 0.66895 0.0
H3740 H 0.36039 0.55646 0.66252 0.0
H3741 H 0.35131 0.55998 0.68446 0.0
H3742 H 0.37962 0.50119 0.61731 0.0
H3743 H 0.40293 0.51686 0.64909 0.0
H3744 H 0.35004 0.51803 0.69067 0.0
H3745 H 0.39463 0.48262 0.61543 0.0
H3746 H 0.41786 0.4982 0.64735 0.0
C3747 C 0.78953 0.11319 0.0726 0.0
C3748 C 0.79308 0.10005 0.07039 0.0
C3749 C 0.78672 0.11759 0.08531 0.0
C3750 C 0.78719 0.10888 0.09604 0.0
C3751 C 0.7907 0.0957 0.09373 0.0
C3752 C 0.79365 0.09136 0.08106 0.0
C3753 C 0.78364 0.11333 0.10952 0.0
C3754 C 0.77312 0.12207 0.11152 0.0
C3755 C 0.76918 0.12562 0.12427 0.0
C3756 C 0.77593 0.12038 0.1351 0.0
C3757 C 0.7864 0.11158 0.13333 0.0
C3758 C 0.79029 0.10828 0.12052 0.0
C3759 C 0.79272 0.10513 0.1448 0.0
C3760 C 0.80635 0.1029 0.14504 0.0
C3761 C 0.78503 0.10045 0.15528 0.0
C3762 C 0.79076 0.09341 0.16556 0.0
C3763 C 0.80432 0.09083 0.16559 0.0
C3764 C 0.75752 0.13418 0.12627 0.0
C3765 C 0.75544 0.14528 0.11832 0.0
C3766 C 0.74812 0.13101 0.13588 0.0
C3767 C 0.73676 0.13858 0.1373 0.0
C3768 C 0.73454 0.14951 0.12916 0.0
C3769 C 0.74409 0.15288 0.11977 0.0
C3770 C 0.81208 0.09581 0.15531 0.0
H3771 H 0.78895 0.12007 0.0645 0.0
H3772 H 0.78418 0.12783 0.08673 0.0
H3773 H 0.7908 0.0886 0.10165 0.0
H3774 H 0.79585 0.08107 0.07957 0.0
H3775 H 0.76758 0.12563 0.10316 0.0
H3776 H 0.79832 0.10144 0.1191 0.0
H3777 H 0.77301 0.12315 0.14495 0.0
H3778 H 0.81258 0.10654 0.13722 0.0
H3779 H 0.77448 0.10183 0.15532 0.0
H3780 H 0.7845 0.08971 0.17332 0.0
H3781 H 0.76257 0.14806 0.11093 0.0
H3782 H 0.74933 0.12244 0.14206 0.0
H3783 H 0.82258 0.09409 0.15509 0.0
H3784 H 0.74268 0.16125 0.11334 0.0
H3785 H 0.72959 0.13569 0.14461 0.0
C3786 C 0.63465 0.03964 0.82068 0.0
C3787 C 0.64772 0.04326 0.8182 0.0
C3788 C 0.63044 0.03705 0.8335 0.0
C3789 C 0.6393 0.03779 0.84409 0.0
C3790 C 0.65237 0.04151 0.84154 0.0
C3791 C 0.65651 0.04425 0.82875 0.0
C3792 C 0.63513 0.03414 0.85764 0.0
C3793 C 0.62661 0.02346 0.85973 0.0
C3794 C 0.62335 0.01936 0.87251 0.0
C3795 C 0.6287 0.02608 0.88329 0.0
C3796 C 0.63728 0.03673 0.88143 0.0
C3797 C 0.64028 0.04079 0.86858 0.0
C3798 C 0.6438 0.0431 0.89283 0.0
C3799 C 0.64572 0.05678 0.89313 0.0
C3800 C 0.64882 0.03543 0.90317 0.0
C3801 C 0.65585 0.04126 0.91341 0.0
C3802 C 0.65808 0.05488 0.91351 0.0
C3803 C 0.615 0.00755 0.87454 0.0
C3804 C 0.60377 0.00546 0.86678 0.0
C3805 C 0.61852 0.99801 0.88388 0.0
C3806 C 0.6112 0.98647 0.88518 0.0
C3807 C 0.60019 0.98421 0.87718 0.0
C3808 C 0.59643 0.99393 0.86811 0.0
C3809 C 0.65279 0.0626 0.90335 0.0
H3810 H 0.62769 0.03875 0.81267 0.0
H3811 H 0.62027 0.03438 0.83509 0.0
H3812 H 0.65958 0.04184 0.84935 0.0
H3813 H 0.66676 0.04654 0.82708 0.0
H3814 H 0.62299 0.01791 0.85141 0.0
H3815 H 0.64695 0.04894 0.8671 0.0
H3816 H 0.62618 0.02302 0.89317 0.0
H3817 H 0.64183 0.06298 0.88541 0.0
H3818 H 0.64768 0.02486 0.90316 0.0
H3819 H 0.65979 0.03503 0.92108 0.0
H3820 H 0.60072 0.0127 0.8596 0.0
H3821 H 0.62719 0.99926 0.88991 0.0
H3822 H 0.65425 0.07314 0.90318 0.0
H3823 H 0.58798 0.99251 0.86181 0.0
H3824 H 0.61438 0.97918 0.89226 0.0
C3825 C 0.84675 0.95878 0.40538 0.0
C3826 C 0.84269 0.9456 0.40483 0.0
C3827 C 0.85392 0.96432 0.39507 0.0
C3828 C 0.85724 0.95679 0.38398 0.0
C3829 C 0.85342 0.94352 0.38357 0.0
C3830 C 0.84622 0.93799 0.39387 0.0
C3831 C 0.86409 0.96294 0.37263 0.0
C3832 C 0.87417 0.97218 0.37463 0.0
C3833 C 0.88005 0.97866 0.36394 0.0
C3834 C 0.87579 0.97573 0.35114 0.0
C3835 C 0.86575 0.96654 0.34896 0.0
C3836 C 0.86003 0.96012 0.35974 0.0
C3837 C 0.86059 0.9643 0.33551 0.0
C3838 C 0.85778 0.97501 0.32727 0.0
C3839 C 0.85809 0.95152 0.33094 0.0
C3840 C 0.85273 0.94951 0.31845 0.0
C3841 C 0.84953 0.96025 0.31039 0.0
C3842 C 0.89003 0.98909 0.36609 0.0
C3843 C 0.8881 0.99872 0.37579 0.0
C3844 C 0.90108 0.99004 0.35787 0.0
C3845 C 0.90967 0.00069 0.35893 0.0
C3846 C 0.90738 0.01066 0.3682 0.0
C3847 C 0.89667 0.0094 0.37682 0.0
C3848 C 0.85233 0.97301 0.31485 0.0
H3849 H 0.84419 0.96493 0.41368 0.0
H3850 H 0.85653 0.97462 0.39563 0.0
H3851 H 0.85596 0.9374 0.37524 0.0
H3852 H 0.84332 0.92778 0.39317 0.0
H3853 H 0.87747 0.97433 0.38451 0.0
H3854 H 0.85194 0.9534 0.3581 0.0
H3855 H 0.88007 0.98087 0.34285 0.0
H3856 H 0.85949 0.98498 0.33056 0.0
H3857 H 0.86039 0.94307 0.337 0.0
H3858 H 0.85131 0.93955 0.31506 0.0
H3859 H 0.87962 0.99833 0.38221 0.0
H3860 H 0.90293 0.98267 0.35043 0.0
H3861 H 0.85004 0.98149 0.30885 0.0
H3862 H 0.89463 0.0169 0.38408 0.0
H3863 H 0.91786 0.00133 0.35217 0.0
C3864 C 0.43406 0.32661 0.09799 0.0
C3865 C 0.43023 0.33974 0.09985 0.0
C3866 C 0.42898 0.31666 0.10596 0.0
C3867 C 0.41996 0.31961 0.11598 0.0
C3868 C 0.41643 0.33279 0.1181 0.0
C3869 C 0.42151 0.34275 0.11013 0.0
C3870 C 0.41375 0.30888 0.1237 0.0
C3871 C 0.42114 0.29804 0.12788 0.0
C3872 C 0.41514 0.28732 0.1342 0.0
C3873 C 0.40151 0.28767 0.13657 0.0
C3874 C 0.39401 0.29859 0.13267 0.0
C3875 C 0.40022 0.30911 0.12624 0.0
C3876 C 0.37953 0.29885 0.13432 0.0
C3877 C 0.3718 0.28816 0.13027 0.0
C3878 C 0.37327 0.31042 0.13848 0.0
C3879 C 0.35965 0.31167 0.13762 0.0
C3880 C 0.35198 0.30139 0.13251 0.0
C3881 C 0.42322 0.2758 0.13816 0.0
C3882 C 0.43341 0.27132 0.12998 0.0
C3883 C 0.42123 0.26956 0.15033 0.0
C3884 C 0.42958 0.25941 0.15441 0.0
C3885 C 0.44011 0.25538 0.14644 0.0
C3886 C 0.44179 0.2613 0.13409 0.0
C3887 C 0.35814 0.28942 0.12937 0.0
H3888 H 0.44075 0.32394 0.09016 0.0
H3889 H 0.43179 0.30659 0.10396 0.0
H3890 H 0.40963 0.3354 0.12586 0.0
H3891 H 0.4184 0.35277 0.11187 0.0
H3892 H 0.43166 0.29802 0.12627 0.0
H3893 H 0.39436 0.31725 0.12265 0.0
H3894 H 0.39672 0.27941 0.14127 0.0
H3895 H 0.37636 0.27914 0.12697 0.0
H3896 H 0.37898 0.31874 0.14186 0.0
H3897 H 0.35522 0.32097 0.14028 0.0
H3898 H 0.43501 0.27568 0.1204 0.0
H3899 H 0.41353 0.2728 0.1569 0.0
H3900 H 0.35252 0.28128 0.12546 0.0
H3901 H 0.44971 0.25831 0.12766 0.0
H3902 H 0.42803 0.25504 0.16398 0.0
C3903 C 0.44991 0.60917 0.87858 0.0
C3904 C 0.44757 0.6015 0.86733 0.0
C3905 C 0.45393 0.62228 0.87735 0.0
C3906 C 0.45554 0.62793 0.86487 0.0
C3907 C 0.45408 0.62001 0.85369 0.0
C3908 C 0.45021 0.60692 0.8549 0.0
C3909 C 0.45702 0.64234 0.86341 0.0
C3910 C 0.46668 0.64933 0.87034 0.0
C3911 C 0.46743 0.66313 0.86936 0.0
C3912 C 0.45813 0.66981 0.86159 0.0
C3913 C 0.44852 0.66292 0.85455 0.0
C3914 C 0.44811 0.64919 0.85543 0.0
C3915 C 0.43854 0.67002 0.84668 0.0
C3916 C 0.4317 0.68073 0.85204 0.0
C3917 C 0.43537 0.66574 0.83396 0.0
C3918 C 0.42531 0.67181 0.82687 0.0
C3919 C 0.41811 0.68221 0.83242 0.0
C3920 C 0.47773 0.67069 0.87649 0.0
C3921 C 0.48182 0.66698 0.88917 0.0
C3922 C 0.48326 0.68202 0.8708 0.0
C3923 C 0.49216 0.68974 0.87778 0.0
C3924 C 0.496 0.68618 0.89053 0.0
C3925 C 0.49095 0.6746 0.89607 0.0
C3926 C 0.42154 0.68673 0.84501 0.0
H3927 H 0.44803 0.60527 0.8883 0.0
H3928 H 0.45495 0.62821 0.88613 0.0
H3929 H 0.45539 0.62413 0.84396 0.0
H3930 H 0.44862 0.60128 0.84603 0.0
H3931 H 0.47369 0.64397 0.87628 0.0
H3932 H 0.44044 0.64385 0.85033 0.0
H3933 H 0.45828 0.68044 0.86104 0.0
H3934 H 0.43389 0.68417 0.86187 0.0
H3935 H 0.44059 0.65758 0.82954 0.0
H3936 H 0.42294 0.66808 0.8172 0.0
H3937 H 0.4777 0.65842 0.89394 0.0
H3938 H 0.48066 0.68501 0.86093 0.0
H3939 H 0.41621 0.69473 0.84956 0.0
H3940 H 0.49371 0.67164 0.90591 0.0
H3941 H 0.49604 0.69853 0.87319 0.0
C3942 C 0.0697 0.6728 0.59583 0.0
C3943 C 0.07155 0.65961 0.59949 0.0
C3944 C 0.07565 0.6829 0.60295 0.0
C3945 C 0.08367 0.68002 0.61381 0.0
C3946 C 0.08535 0.66687 0.61761 0.0
C3947 C 0.07929 0.65677 0.61057 0.0
C3948 C 0.09063 0.69071 0.62083 0.0
C3949 C 0.084 0.70225 0.62428 0.0
C3950 C 0.09064 0.71273 0.63036 0.0
C3951 C 0.10417 0.71149 0.63299 0.0
C3952 C 0.11089 0.69986 0.62977 0.0
C3953 C 0.10402 0.68953 0.62373 0.0
C3954 C 0.1252 0.69848 0.63203 0.0
C3955 C 0.13401 0.70806 0.62744 0.0
C3956 C 0.13021 0.68684 0.63748 0.0
C3957 C 0.14369 0.68439 0.63749 0.0
C3958 C 0.15247 0.69351 0.63196 0.0
C3959 C 0.08323 0.72473 0.63416 0.0
C3960 C 0.07314 0.72955 0.62603 0.0
C3961 C 0.08551 0.73093 0.64629 0.0
C3962 C 0.0775 0.74129 0.65044 0.0
C3963 C 0.06697 0.74556 0.6426 0.0
C3964 C 0.06505 0.73976 0.63024 0.0
C3965 C 0.14754 0.70559 0.62738 0.0
H3966 H 0.06378 0.67532 0.58736 0.0
H3967 H 0.07427 0.69296 0.59975 0.0
H3968 H 0.09139 0.66439 0.62602 0.0
H3969 H 0.08092 0.64671 0.61365 0.0
H3970 H 0.07354 0.70293 0.62245 0.0
H3971 H 0.10925 0.68073 0.6208 0.0
H3972 H 0.10948 0.71953 0.63752 0.0
H3973 H 0.1304 0.71711 0.62317 0.0
H3974 H 0.12363 0.67937 0.64125 0.0
H3975 H 0.14715 0.67505 0.64123 0.0
H3976 H 0.07132 0.72524 0.61648 0.0
H3977 H 0.09313 0.72743 0.65283 0.0
H3978 H 0.15404 0.71284 0.6231 0.0
H3979 H 0.05713 0.74297 0.6239 0.0
H3980 H 0.07921 0.74558 0.66002 0.0
C3981 C 0.07427 0.32007 0.34171 0.0
C3982 C 0.08759 0.32162 0.34498 0.0
C3983 C 0.06451 0.32611 0.34923 0.0
C3984 C 0.06788 0.33393 0.36008 0.0
C3985 C 0.08117 0.33531 0.36349 0.0
C3986 C 0.09092 0.32917 0.35606 0.0
C3987 C 0.05756 0.34096 0.36756 0.0
C3988 C 0.04608 0.33446 0.37141 0.0
C3989 C 0.03597 0.34118 0.37802 0.0
C3990 C 0.03752 0.35466 0.38074 0.0
C3991 C 0.04909 0.36125 0.37709 0.0
C3992 C 0.05905 0.35431 0.37055 0.0
C3993 C 0.05081 0.37551 0.37946 0.0
C3994 C 0.04129 0.38454 0.3752 0.0
C3995 C 0.06269 0.38022 0.38461 0.0
C3996 C 0.06543 0.39365 0.38461 0.0
C3997 C 0.05637 0.40266 0.37936 0.0
C3998 C 0.02409 0.33386 0.38234 0.0
C3999 C 0.01875 0.32393 0.37435 0.0
C4000 C 0.01858 0.33604 0.39481 0.0
C4001 C 0.0084 0.32803 0.39943 0.0
C4002 C 0.00364 0.31763 0.3917 0.0
C4003 C 0.00872 0.31585 0.37902 0.0
C4004 C 0.04406 0.39802 0.37511 0.0
H4005 H 0.07138 0.31431 0.33325 0.0
H4006 H 0.05434 0.32495 0.34633 0.0
H4007 H 0.08402 0.34119 0.37188 0.0
H4008 H 0.10109 0.33056 0.35884 0.0
H4009 H 0.04517 0.32402 0.36949 0.0
H4010 H 0.06781 0.35944 0.36733 0.0
H4011 H 0.02977 0.36003 0.38567 0.0
H4012 H 0.03205 0.38115 0.37116 0.0
H4013 H 0.07012 0.37346 0.38812 0.0
H4014 H 0.07495 0.39688 0.38809 0.0
H4015 H 0.02253 0.3222 0.36456 0.0
H4016 H 0.0225 0.34353 0.40125 0.0
H4017 H 0.03684 0.4047 0.37107 0.0
H4018 H 0.00512 0.30803 0.37276 0.0
H4019 H 0.00466 0.32964 0.40926 0.0
C4020 C 0.43406 0.67292 0.40153 0.0
C4021 C 0.43023 0.65979 0.39967 0.0
C4022 C 0.42898 0.68287 0.39356 0.0
C4023 C 0.41996 0.67992 0.38353 0.0
C4024 C 0.41643 0.66674 0.38141 0.0
C4025 C 0.42151 0.65678 0.38939 0.0
C4026 C 0.41375 0.69065 0.37582 0.0
C4027 C 0.42114 0.70148 0.37164 0.0
C4028 C 0.41514 0.71221 0.36531 0.0
C4029 C 0.40151 0.71186 0.36295 0.0
C4030 C 0.39401 0.70093 0.36685 0.0
C4031 C 0.40022 0.69042 0.37327 0.0
C4032 C 0.37953 0.70067 0.3652 0.0
C4033 C 0.3718 0.71136 0.36925 0.0
C4034 C 0.37327 0.6891 0.36103 0.0
C4035 C 0.35965 0.68785 0.3619 0.0
C4036 C 0.35198 0.69814 0.367 0.0
C4037 C 0.42322 0.72373 0.36135 0.0
C4038 C 0.43341 0.7282 0.36954 0.0
C4039 C 0.42123 0.72997 0.34919 0.0
C4040 C 0.42958 0.74011 0.34511 0.0
C4041 C 0.44011 0.74415 0.35308 0.0
C4042 C 0.44179 0.73823 0.36542 0.0
C4043 C 0.35814 0.71011 0.37015 0.0
H4044 H 0.44075 0.67559 0.40935 0.0
H4045 H 0.43179 0.69293 0.39555 0.0
H4046 H 0.40963 0.66413 0.37366 0.0
H4047 H 0.4184 0.64676 0.38764 0.0
H4048 H 0.43166 0.70151 0.37324 0.0
H4049 H 0.39436 0.68228 0.37687 0.0
H4050 H 0.39672 0.72011 0.35824 0.0
H4051 H 0.37636 0.72039 0.37254 0.0
H4052 H 0.37898 0.68078 0.35766 0.0
H4053 H 0.35522 0.67855 0.35924 0.0
H4054 H 0.43501 0.72384 0.37911 0.0
H4055 H 0.41353 0.72672 0.34261 0.0
H4056 H 0.35252 0.71825 0.37405 0.0
H4057 H 0.44971 0.74122 0.37186 0.0
H4058 H 0.42803 0.74449 0.33553 0.0
C4059 C 0.07427 0.67946 0.15781 0.0
C4060 C 0.08759 0.6779 0.15454 0.0
C4061 C 0.06451 0.67342 0.15029 0.0
C4062 C 0.06788 0.6656 0.13943 0.0
C4063 C 0.08117 0.66421 0.13603 0.0
C4064 C 0.09092 0.67036 0.14346 0.0
C4065 C 0.05756 0.65857 0.13196 0.0
C4066 C 0.04608 0.66507 0.1281 0.0
C4067 C 0.03597 0.65835 0.12149 0.0
C4068 C 0.03752 0.64487 0.11878 0.0
C4069 C 0.04909 0.63828 0.12242 0.0
C4070 C 0.05905 0.64522 0.12897 0.0
C4071 C 0.05081 0.62402 0.12006 0.0
C4072 C 0.04129 0.61498 0.12432 0.0
C4073 C 0.06269 0.6193 0.11491 0.0
C4074 C 0.06543 0.60587 0.1149 0.0
C4075 C 0.05637 0.59687 0.12016 0.0
C4076 C 0.02409 0.66567 0.11718 0.0
C4077 C 0.01875 0.6756 0.12517 0.0
C4078 C 0.01858 0.66349 0.1047 0.0
C4079 C 0.0084 0.6715 0.10009 0.0
C4080 C 0.00364 0.6819 0.10781 0.0
C4081 C 0.00872 0.68368 0.1205 0.0
C4082 C 0.04406 0.60151 0.1244 0.0
H4083 H 0.07138 0.68522 0.16627 0.0
H4084 H 0.05434 0.67457 0.15318 0.0
H4085 H 0.08402 0.65833 0.12763 0.0
H4086 H 0.10109 0.66896 0.14067 0.0
H4087 H 0.04517 0.6755 0.13002 0.0
H4088 H 0.06781 0.64009 0.13218 0.0
H4089 H 0.02977 0.6395 0.11384 0.0
H4090 H 0.03205 0.61838 0.12836 0.0
H4091 H 0.07012 0.62607 0.1114 0.0
H4092 H 0.07495 0.60265 0.11143 0.0
H4093 H 0.02253 0.67733 0.13496 0.0
H4094 H 0.0225 0.65599 0.09826 0.0
H4095 H 0.03684 0.59482 0.12845 0.0
H4096 H 0.00512 0.6915 0.12676 0.0
H4097 H 0.00466 0.66989 0.09026 0.0
C4098 C 0.0697 0.32673 0.90368 0.0
C4099 C 0.07155 0.33991 0.90002 0.0
C4100 C 0.07565 0.31663 0.89656 0.0
C4101 C 0.08367 0.31951 0.88571 0.0
C4102 C 0.08535 0.33266 0.8819 0.0
C4103 C 0.07929 0.34276 0.88894 0.0
C4104 C 0.09063 0.30882 0.87868 0.0
C4105 C 0.084 0.29728 0.87523 0.0
C4106 C 0.09064 0.2868 0.86915 0.0
C4107 C 0.10417 0.28804 0.86652 0.0
C4108 C 0.11089 0.29967 0.86974 0.0
C4109 C 0.10402 0.30999 0.87579 0.0
C4110 C 0.1252 0.30105 0.86749 0.0
C4111 C 0.13401 0.29146 0.87207 0.0
C4112 C 0.13021 0.31269 0.86203 0.0
C4113 C 0.14369 0.31513 0.86202 0.0
C4114 C 0.15247 0.30602 0.86756 0.0
C4115 C 0.08323 0.27479 0.86536 0.0
C4116 C 0.07314 0.26998 0.87349 0.0
C4117 C 0.08551 0.2686 0.85323 0.0
C4118 C 0.0775 0.25823 0.84908 0.0
C4119 C 0.06697 0.25397 0.85692 0.0
C4120 C 0.06505 0.25976 0.86927 0.0
C4121 C 0.14754 0.29394 0.87214 0.0
H4122 H 0.06378 0.3242 0.91216 0.0
H4123 H 0.07427 0.30657 0.89977 0.0
H4124 H 0.09139 0.33514 0.8735 0.0
H4125 H 0.08092 0.35281 0.88586 0.0
H4126 H 0.07354 0.2966 0.87707 0.0
H4127 H 0.10925 0.3188 0.87871 0.0
H4128 H 0.10948 0.28 0.862 0.0
H4129 H 0.1304 0.28241 0.87635 0.0
H4130 H 0.12363 0.32016 0.85826 0.0
H4131 H 0.14715 0.32448 0.85829 0.0
H4132 H 0.07132 0.27429 0.88304 0.0
H4133 H 0.09313 0.2721 0.84668 0.0
H4134 H 0.15404 0.28669 0.87641 0.0
H4135 H 0.05713 0.25656 0.87562 0.0
H4136 H 0.07921 0.25394 0.8395 0.0
C4137 C 0.44991 0.39036 0.62093 0.0
C4138 C 0.44757 0.39803 0.63218 0.0
C4139 C 0.45393 0.37725 0.62216 0.0
C4140 C 0.45554 0.3716 0.63464 0.0
C4141 C 0.45408 0.37951 0.64583 0.0
C4142 C 0.45021 0.39261 0.64461 0.0
C4143 C 0.45702 0.35719 0.63611 0.0
C4144 C 0.46668 0.3502 0.62918 0.0
C4145 C 0.46743 0.3364 0.63016 0.0
C4146 C 0.45813 0.32972 0.63793 0.0
C4147 C 0.44852 0.33661 0.64496 0.0
C4148 C 0.44811 0.35033 0.64409 0.0
C4149 C 0.43854 0.32951 0.65284 0.0
C4150 C 0.4317 0.3188 0.64747 0.0
C4151 C 0.43537 0.33379 0.66556 0.0
C4152 C 0.42531 0.32772 0.67264 0.0
C4153 C 0.41811 0.31732 0.66709 0.0
C4154 C 0.47773 0.32883 0.62302 0.0
C4155 C 0.48182 0.33255 0.61034 0.0
C4156 C 0.48326 0.3175 0.62872 0.0
C4157 C 0.49216 0.30979 0.62173 0.0
C4158 C 0.496 0.31335 0.60899 0.0
C4159 C 0.49095 0.32493 0.60344 0.0
C4160 C 0.42154 0.3128 0.6545 0.0
H4161 H 0.44803 0.39426 0.61122 0.0
H4162 H 0.45495 0.37132 0.61339 0.0
H4163 H 0.45539 0.3754 0.65556 0.0
H4164 H 0.44862 0.39825 0.65349 0.0
H4165 H 0.47369 0.35556 0.62323 0.0
H4166 H 0.44044 0.35568 0.64919 0.0
H4167 H 0.45828 0.31909 0.63848 0.0
H4168 H 0.43389 0.31536 0.63765 0.0
H4169 H 0.44059 0.34194 0.66997 0.0
H4170 H 0.42294 0.33145 0.68231 0.0
H4171 H 0.4777 0.34111 0.60557 0.0
H4172 H 0.48066 0.31451 0.63859 0.0
H4173 H 0.41621 0.3048 0.64995 0.0
H4174 H 0.49371 0.32789 0.5936 0.0
H4175 H 0.49604 0.301 0.62633 0.0
C4176 C 0.09278 0.431 0.32396 0.0
C4177 C 0.09641 0.42925 0.33717 0.0
C4178 C 0.09993 0.42498 0.31392 0.0
C4179 C 0.11077 0.41698 0.31688 0.0
C4180 C 0.11456 0.41542 0.33006 0.0
C4181 C 0.1075 0.42155 0.34009 0.0
C4182 C 0.1178 0.40988 0.30629 0.0
C4183 C 0.12142 0.4164 0.29473 0.0
C4184 C 0.12764 0.40964 0.2844 0.0
C4185 C 0.13015 0.3961 0.28579 0.0
C4186 C 0.12672 0.38949 0.29742 0.0
C4187 C 0.12059 0.39647 0.30761 0.0
C4188 C 0.12891 0.37517 0.29898 0.0
C4189 C 0.12433 0.36627 0.2895 0.0
C4190 C 0.13429 0.37029 0.31071 0.0
C4191 C 0.13424 0.35683 0.31332 0.0
C4192 C 0.1287 0.34796 0.30431 0.0
C4193 C 0.1318 0.41697 0.27246 0.0
C4194 C 0.12389 0.42711 0.26739 0.0
C4195 C 0.14409 0.4146 0.26664 0.0
C4196 C 0.14863 0.42261 0.25643 0.0
C4197 C 0.14101 0.43321 0.25193 0.0
C4198 C 0.12848 0.43519 0.25732 0.0
C4199 C 0.1242 0.35277 0.29215 0.0
H4200 H 0.0843 0.43688 0.32138 0.0
H4201 H 0.09675 0.42628 0.30385 0.0
H4202 H 0.12296 0.40939 0.3326 0.0
H4203 H 0.11056 0.41999 0.35016 0.0
H4204 H 0.11966 0.42687 0.29395 0.0
H4205 H 0.11754 0.39133 0.31643 0.0
H4206 H 0.13478 0.3907 0.27787 0.0
H4207 H 0.12012 0.36979 0.28039 0.0
H4208 H 0.13805 0.37694 0.31811 0.0
H4209 H 0.13791 0.35348 0.32273 0.0
H4210 H 0.11423 0.429 0.27142 0.0
H4211 H 0.15048 0.40694 0.27035 0.0
H4212 H 0.11993 0.34619 0.28496 0.0
H4213 H 0.1223 0.44317 0.25393 0.0
H4214 H 0.15834 0.42084 0.25246 0.0
C4215 C 0.3917 0.37696 0.04715 0.0
C4216 C 0.39944 0.36574 0.04946 0.0
C4217 C 0.37864 0.37567 0.04302 0.0
C4218 C 0.3731 0.36316 0.04127 0.0
C4219 C 0.38109 0.35202 0.04272 0.0
C4220 C 0.39414 0.35329 0.04669 0.0
C4221 C 0.35873 0.36159 0.0397 0.0
C4222 C 0.35178 0.36835 0.02989 0.0
C4223 C 0.33801 0.36721 0.02898 0.0
C4224 C 0.3313 0.35947 0.0383 0.0
C4225 C 0.33817 0.35262 0.04807 0.0
C4226 C 0.35187 0.35365 0.04863 0.0
C4227 C 0.33107 0.34474 0.05806 0.0
C4228 C 0.32021 0.35001 0.06474 0.0
C4229 C 0.33554 0.33213 0.06145 0.0
C4230 C 0.32954 0.3251 0.07158 0.0
C4231 C 0.319 0.33057 0.07863 0.0
C4232 C 0.33051 0.37411 0.01848 0.0
C4233 C 0.3341 0.38679 0.01429 0.0
C4234 C 0.31939 0.36817 0.0128 0.0
C4235 C 0.31177 0.37491 0.00361 0.0
C4236 C 0.31522 0.38766 0.99965 0.0
C4237 C 0.32659 0.39346 0.00491 0.0
C4238 C 0.31427 0.34302 0.07497 0.0
H4239 H 0.39551 0.38669 0.04913 0.0
H4240 H 0.37265 0.38441 0.04201 0.0
H4241 H 0.37705 0.34227 0.04133 0.0
H4242 H 0.39983 0.34445 0.04826 0.0
H4243 H 0.35715 0.37427 0.02286 0.0
H4244 H 0.35719 0.34868 0.05641 0.0
H4245 H 0.32069 0.35878 0.03802 0.0
H4246 H 0.31662 0.35975 0.06239 0.0
H4247 H 0.34381 0.32778 0.05635 0.0
H4248 H 0.33342 0.31552 0.07412 0.0
H4249 H 0.3425 0.39175 0.01853 0.0
H4250 H 0.3165 0.3583 0.01549 0.0
H4251 H 0.30616 0.34751 0.08018 0.0
H4252 H 0.32945 0.4033 0.00207 0.0
H4253 H 0.30316 0.37012 0.99961 0.0
C4254 C 0.39827 0.56746 0.82883 0.0
C4255 C 0.39686 0.57139 0.84199 0.0
C4256 C 0.39015 0.57269 0.81909 0.0
C4257 C 0.38042 0.58196 0.82227 0.0
C4258 C 0.37879 0.58563 0.83548 0.0
C4259 C 0.38691 0.5804 0.84523 0.0
C4260 C 0.3725 0.58821 0.81173 0.0
C4261 C 0.36786 0.58077 0.80112 0.0
C4262 C 0.36144 0.58677 0.79045 0.0
C4263 C 0.35937 0.60045 0.79069 0.0
C4264 C 0.36365 0.608 0.80143 0.0
C4265 C 0.37022 0.60179 0.81186 0.0
C4266 C 0.36223 0.62251 0.80159 0.0
C4267 C 0.36613 0.63008 0.79072 0.0
C4268 C 0.35841 0.62894 0.81318 0.0
C4269 C 0.35946 0.64257 0.81426 0.0
C4270 C 0.3644 0.65006 0.80377 0.0
C4271 C 0.35711 0.57864 0.7791 0.0
C4272 C 0.36487 0.56804 0.77479 0.0
C4273 C 0.34504 0.58101 0.77282 0.0
C4274 C 0.34065 0.5727 0.76278 0.0
C4275 C 0.34818 0.56179 0.75894 0.0
C4276 C 0.36041 0.55966 0.76492 0.0
C4277 C 0.36721 0.64375 0.7918 0.0
H4278 H 0.40583 0.56054 0.82598 0.0
H4279 H 0.39178 0.56977 0.80899 0.0
H4280 H 0.37128 0.59263 0.83826 0.0
H4281 H 0.38553 0.58359 0.85528 0.0
H4282 H 0.36923 0.57021 0.80123 0.0
H4283 H 0.37413 0.60766 0.81983 0.0
H4284 H 0.35459 0.60526 0.78249 0.0
H4285 H 0.36916 0.62539 0.78167 0.0
H4286 H 0.35516 0.62335 0.82164 0.0
H4287 H 0.35706 0.64712 0.82356 0.0
H4288 H 0.37439 0.56612 0.77914 0.0
H4289 H 0.33877 0.58901 0.77593 0.0
H4290 H 0.37098 0.64924 0.78351 0.0
H4291 H 0.36652 0.55144 0.76205 0.0
H4292 H 0.33116 0.57457 0.75834 0.0
C4293 C 0.18031 0.6569 0.57739 0.0
C4294 C 0.17889 0.65344 0.59068 0.0
C4295 C 0.17427 0.64944 0.56759 0.0
C4296 C 0.16659 0.63846 0.57088 0.0
C4297 C 0.16532 0.63489 0.58414 0.0
C4298 C 0.17147 0.64226 0.59394 0.0
C4299 C 0.15962 0.631 0.56051 0.0
C4300 C 0.16614 0.62741 0.54895 0.0
C4301 C 0.1595 0.62082 0.53879 0.0
C4302 C 0.14608 0.61783 0.54035 0.0
C4303 C 0.13948 0.62121 0.55199 0.0
C4304 C 0.14634 0.62775 0.56201 0.0
C4305 C 0.12527 0.61857 0.55372 0.0
C4306 C 0.11614 0.62276 0.54426 0.0
C4307 C 0.12067 0.61323 0.56557 0.0
C4308 C 0.10725 0.61295 0.56833 0.0
C4309 C 0.09814 0.61811 0.55934 0.0
C4310 C 0.16686 0.61683 0.52682 0.0
C4311 C 0.17657 0.62513 0.52155 0.0
C4312 C 0.165 0.60435 0.52121 0.0
C4313 C 0.17315 0.60002 0.51102 0.0
C4314 C 0.18336 0.60805 0.50634 0.0
C4315 C 0.18478 0.62075 0.5115 0.0
C4316 C 0.10267 0.62256 0.54706 0.0
H4317 H 0.18598 0.66545 0.57455 0.0
H4318 H 0.17533 0.65247 0.55744 0.0
H4319 H 0.15954 0.6264 0.58693 0.0
H4320 H 0.17017 0.63934 0.60409 0.0
H4321 H 0.17653 0.62952 0.54803 0.0
H4322 H 0.14119 0.63077 0.57083 0.0
H4323 H 0.14078 0.61289 0.53255 0.0
H4324 H 0.11944 0.62695 0.53505 0.0
H4325 H 0.12751 0.60977 0.57296 0.0
H4326 H 0.1041 0.60932 0.57783 0.0
H4327 H 0.17804 0.63493 0.52541 0.0
H4328 H 0.15767 0.59768 0.52508 0.0
H4329 H 0.0959 0.62655 0.53988 0.0
H4330 H 0.19244 0.62724 0.50796 0.0
H4331 H 0.17181 0.59018 0.50722 0.0
C4332 C 0.09278 0.56853 0.17555 0.0
C4333 C 0.09641 0.57028 0.16235 0.0
C4334 C 0.09993 0.57455 0.1856 0.0
C4335 C 0.11077 0.58255 0.18263 0.0
C4336 C 0.11456 0.58411 0.16946 0.0
C4337 C 0.1075 0.57798 0.15943 0.0
C4338 C 0.1178 0.58964 0.19322 0.0
C4339 C 0.12142 0.58312 0.20478 0.0
C4340 C 0.12764 0.58989 0.21511 0.0
C4341 C 0.13015 0.60343 0.21372 0.0
C4342 C 0.12672 0.61004 0.20209 0.0
C4343 C 0.12059 0.60305 0.19191 0.0
C4344 C 0.12891 0.62435 0.20053 0.0
C4345 C 0.12433 0.63326 0.21002 0.0
C4346 C 0.13429 0.62924 0.18881 0.0
C4347 C 0.13424 0.6427 0.18619 0.0
C4348 C 0.1287 0.65156 0.19521 0.0
C4349 C 0.1318 0.58256 0.22705 0.0
C4350 C 0.12389 0.57242 0.23212 0.0
C4351 C 0.14409 0.58493 0.23288 0.0
C4352 C 0.14863 0.57692 0.24309 0.0
C4353 C 0.14101 0.56632 0.24758 0.0
C4354 C 0.12848 0.56434 0.2422 0.0
C4355 C 0.1242 0.64676 0.20736 0.0
H4356 H 0.0843 0.56264 0.17813 0.0
H4357 H 0.09675 0.57325 0.19567 0.0
H4358 H 0.12296 0.59013 0.16692 0.0
H4359 H 0.11056 0.57954 0.14936 0.0
H4360 H 0.11966 0.57265 0.20556 0.0
H4361 H 0.11754 0.60819 0.18309 0.0
H4362 H 0.13478 0.60883 0.22164 0.0
H4363 H 0.12012 0.62973 0.21913 0.0
H4364 H 0.13805 0.62258 0.18141 0.0
H4365 H 0.13791 0.64605 0.17679 0.0
H4366 H 0.11423 0.57053 0.22809 0.0
H4367 H 0.15048 0.59259 0.22917 0.0
H4368 H 0.11993 0.65334 0.21455 0.0
H4369 H 0.1223 0.55636 0.24558 0.0
H4370 H 0.15834 0.57869 0.24705 0.0
C4371 C 0.18031 0.34263 0.92212 0.0
C4372 C 0.17889 0.34608 0.90883 0.0
C4373 C 0.17427 0.35008 0.93193 0.0
C4374 C 0.16659 0.36107 0.92863 0.0
C4375 C 0.16532 0.36464 0.91537 0.0
C4376 C 0.17147 0.35727 0.90557 0.0
C4377 C 0.15962 0.36853 0.939 0.0
C4378 C 0.16614 0.37212 0.95056 0.0
C4379 C 0.1595 0.3787 0.96073 0.0
C4380 C 0.14608 0.3817 0.95917 0.0
C4381 C 0.13948 0.37832 0.94752 0.0
C4382 C 0.14634 0.37178 0.9375 0.0
C4383 C 0.12527 0.38095 0.94579 0.0
C4384 C 0.11614 0.37677 0.95525 0.0
C4385 C 0.12067 0.3863 0.93394 0.0
C4386 C 0.10725 0.38658 0.93118 0.0
C4387 C 0.09814 0.38142 0.94018 0.0
C4388 C 0.16686 0.3827 0.97269 0.0
C4389 C 0.17657 0.3744 0.97797 0.0
C4390 C 0.165 0.39518 0.97831 0.0
C4391 C 0.17315 0.39951 0.9885 0.0
C4392 C 0.18336 0.39148 0.99317 0.0
C4393 C 0.18478 0.37877 0.98801 0.0
C4394 C 0.10267 0.37697 0.95246 0.0
H4395 H 0.18598 0.33408 0.92496 0.0
H4396 H 0.17533 0.34706 0.94208 0.0
H4397 H 0.15954 0.37313 0.91258 0.0
H4398 H 0.17017 0.36019 0.89543 0.0
H4399 H 0.17653 0.37 0.95149 0.0
H4400 H 0.14119 0.36876 0.92868 0.0
H4401 H 0.14078 0.38664 0.96696 0.0
H4402 H 0.11944 0.37258 0.96446 0.0
H4403 H 0.12751 0.38976 0.92656 0.0
H4404 H 0.1041 0.39021 0.92169 0.0
H4405 H 0.17804 0.3646 0.9741 0.0
H4406 H 0.15767 0.40185 0.97444 0.0
H4407 H 0.0959 0.37298 0.95963 0.0
H4408 H 0.19244 0.37228 0.99155 0.0
H4409 H 0.17181 0.40935 0.9923 0.0
C4410 C 0.39827 0.43207 0.67068 0.0
C4411 C 0.39686 0.42814 0.65753 0.0
C4412 C 0.39015 0.42684 0.68042 0.0
C4413 C 0.38042 0.41757 0.67724 0.0
C4414 C 0.37879 0.41389 0.66404 0.0
C4415 C 0.38691 0.41912 0.65428 0.0
C4416 C 0.3725 0.41132 0.68779 0.0
C4417 C 0.36786 0.41876 0.6984 0.0
C4418 C 0.36144 0.41275 0.70906 0.0
C4419 C 0.35937 0.39907 0.70882 0.0
C4420 C 0.36365 0.39153 0.69808 0.0
C4421 C 0.37022 0.39774 0.68765 0.0
C4422 C 0.36223 0.37702 0.69793 0.0
C4423 C 0.36613 0.36945 0.70879 0.0
C4424 C 0.35841 0.37059 0.68633 0.0
C4425 C 0.35946 0.35696 0.68526 0.0
C4426 C 0.3644 0.34946 0.69575 0.0
C4427 C 0.35711 0.42089 0.72041 0.0
C4428 C 0.36487 0.43149 0.72472 0.0
C4429 C 0.34504 0.41852 0.7267 0.0
C4430 C 0.34065 0.42683 0.73674 0.0
C4431 C 0.34818 0.43774 0.74058 0.0
C4432 C 0.36041 0.43987 0.73459 0.0
C4433 C 0.36721 0.35578 0.70771 0.0
H4434 H 0.40583 0.43898 0.67353 0.0
H4435 H 0.39178 0.42975 0.69052 0.0
H4436 H 0.37128 0.40689 0.66125 0.0
H4437 H 0.38553 0.41593 0.64423 0.0
H4438 H 0.36923 0.42931 0.69829 0.0
H4439 H 0.37413 0.39186 0.67969 0.0
H4440 H 0.35459 0.39426 0.71703 0.0
H4441 H 0.36916 0.37414 0.71784 0.0
H4442 H 0.35516 0.37618 0.67788 0.0
H4443 H 0.35706 0.35241 0.67595 0.0
H4444 H 0.37439 0.43341 0.72038 0.0
H4445 H 0.33877 0.41051 0.72359 0.0
H4446 H 0.37098 0.35029 0.71601 0.0
H4447 H 0.36652 0.44809 0.73747 0.0
H4448 H 0.33116 0.42496 0.74117 0.0
C4449 C 0.3917 0.62257 0.45237 0.0
C4450 C 0.39944 0.63378 0.45005 0.0
C4451 C 0.37864 0.62386 0.45649 0.0
C4452 C 0.3731 0.63637 0.45824 0.0
C4453 C 0.38109 0.64751 0.45679 0.0
C4454 C 0.39414 0.64623 0.45283 0.0
C4455 C 0.35873 0.63793 0.45981 0.0
C4456 C 0.35178 0.63118 0.46963 0.0
C4457 C 0.33801 0.63232 0.47053 0.0
C4458 C 0.3313 0.64006 0.46122 0.0
C4459 C 0.33817 0.64691 0.45144 0.0
C4460 C 0.35187 0.64588 0.45089 0.0
C4461 C 0.33107 0.65479 0.44145 0.0
C4462 C 0.32021 0.64951 0.43477 0.0
C4463 C 0.33554 0.66739 0.43807 0.0
C4464 C 0.32954 0.67443 0.42794 0.0
C4465 C 0.319 0.66896 0.42088 0.0
C4466 C 0.33051 0.62541 0.48104 0.0
C4467 C 0.3341 0.61273 0.48522 0.0
C4468 C 0.31939 0.63135 0.48671 0.0
C4469 C 0.31177 0.62462 0.49591 0.0
C4470 C 0.31522 0.61187 0.49986 0.0
C4471 C 0.32659 0.60607 0.49461 0.0
C4472 C 0.31427 0.6565 0.42455 0.0
H4473 H 0.39551 0.61284 0.45039 0.0
H4474 H 0.37265 0.61512 0.4575 0.0
H4475 H 0.37705 0.65726 0.45819 0.0
H4476 H 0.39983 0.65508 0.45126 0.0
H4477 H 0.35715 0.62526 0.47666 0.0
H4478 H 0.35719 0.65084 0.44311 0.0
H4479 H 0.32069 0.64074 0.46149 0.0
H4480 H 0.31662 0.63978 0.43713 0.0
H4481 H 0.34381 0.67175 0.44316 0.0
H4482 H 0.33342 0.684 0.4254 0.0
H4483 H 0.3425 0.60778 0.48099 0.0
H4484 H 0.3165 0.64123 0.48402 0.0
H4485 H 0.30616 0.65202 0.41933 0.0
H4486 H 0.32945 0.59622 0.49745 0.0
H4487 H 0.30316 0.6294 0.49991 0.0
C4488 C 0.32387 0.09181 0.42957 0.0
C4489 C 0.33723 0.09488 0.42798 0.0
C4490 C 0.3142 0.09963 0.42374 0.0
C4491 C 0.31771 0.11058 0.41611 0.0
C4492 C 0.33105 0.11377 0.41469 0.0
C4493 C 0.34071 0.10604 0.42062 0.0
C4494 C 0.30748 0.11837 0.40928 0.0
C4495 C 0.29607 0.12221 0.41591 0.0
C4496 C 0.286 0.12906 0.40937 0.0
C4497 C 0.28753 0.13206 0.39594 0.0
C4498 C 0.29905 0.12844 0.38924 0.0
C4499 C 0.30896 0.12164 0.396 0.0
C4500 C 0.30073 0.13108 0.37502 0.0
C4501 C 0.29114 0.12711 0.36595 0.0
C4502 C 0.31267 0.13618 0.37036 0.0
C4503 C 0.31537 0.13638 0.35693 0.0
C4504 C 0.30623 0.1314 0.34787 0.0
C4505 C 0.27416 0.13328 0.4168 0.0
C4506 C 0.26882 0.12511 0.4266 0.0
C4507 C 0.26867 0.14581 0.41487 0.0
C4508 C 0.25851 0.15028 0.42297 0.0
C4509 C 0.25374 0.14236 0.43323 0.0
C4510 C 0.25881 0.12963 0.43478 0.0
C4511 C 0.29387 0.12724 0.35246 0.0
H4512 H 0.32086 0.08329 0.43519 0.0
H4513 H 0.30399 0.09689 0.42491 0.0
H4514 H 0.33401 0.12223 0.40895 0.0
H4515 H 0.35092 0.10867 0.41921 0.0
H4516 H 0.29518 0.12007 0.42631 0.0
H4517 H 0.31765 0.11842 0.39077 0.0
H4518 H 0.27981 0.13718 0.3907 0.0
H4519 H 0.28186 0.12312 0.3693 0.0
H4520 H 0.32016 0.13947 0.37716 0.0
H4521 H 0.32492 0.1398 0.35373 0.0
H4522 H 0.27257 0.11527 0.42813 0.0
H4523 H 0.27259 0.15239 0.40749 0.0
H4524 H 0.28659 0.1234 0.34574 0.0
H4525 H 0.2552 0.12323 0.44247 0.0
H4526 H 0.25478 0.16014 0.42154 0.0
C4527 C 0.82387 0.40771 0.56994 0.0
C4528 C 0.83723 0.40465 0.57153 0.0
C4529 C 0.8142 0.3999 0.57577 0.0
C4530 C 0.81771 0.38895 0.5834 0.0
C4531 C 0.83105 0.38576 0.58483 0.0
C4532 C 0.84071 0.39349 0.57889 0.0
C4533 C 0.80748 0.38116 0.59023 0.0
C4534 C 0.79607 0.37732 0.5836 0.0
C4535 C 0.786 0.37047 0.59015 0.0
C4536 C 0.78753 0.36747 0.60357 0.0
C4537 C 0.79905 0.37108 0.61027 0.0
C4538 C 0.80896 0.37789 0.60351 0.0
C4539 C 0.80073 0.36844 0.62449 0.0
C4540 C 0.79114 0.37242 0.63357 0.0
C4541 C 0.81267 0.36335 0.62915 0.0
C4542 C 0.81537 0.36314 0.64259 0.0
C4543 C 0.80623 0.36813 0.65165 0.0
C4544 C 0.77416 0.36625 0.58271 0.0
C4545 C 0.76882 0.37442 0.57292 0.0
C4546 C 0.76867 0.35372 0.58464 0.0
C4547 C 0.75851 0.34924 0.57654 0.0
C4548 C 0.75374 0.35717 0.56628 0.0
C4549 C 0.75881 0.36989 0.56474 0.0
C4550 C 0.79387 0.37229 0.64705 0.0
H4551 H 0.82086 0.41623 0.56432 0.0
H4552 H 0.80399 0.40264 0.5746 0.0
H4553 H 0.83401 0.37729 0.59056 0.0
H4554 H 0.85092 0.39085 0.58031 0.0
H4555 H 0.79518 0.37945 0.57321 0.0
H4556 H 0.81765 0.3811 0.60875 0.0
H4557 H 0.77981 0.36235 0.60881 0.0
H4558 H 0.78186 0.37641 0.63022 0.0
H4559 H 0.82016 0.36006 0.62235 0.0
H4560 H 0.82492 0.35973 0.64578 0.0
H4561 H 0.77257 0.38426 0.57138 0.0
H4562 H 0.77259 0.34714 0.59202 0.0
H4563 H 0.78659 0.37613 0.65378 0.0
H4564 H 0.7552 0.3763 0.55704 0.0
H4565 H 0.75478 0.33938 0.57797 0.0
C4566 C 0.34092 0.07534 0.31835 0.0
C4567 C 0.3451 0.08837 0.32022 0.0
C4568 C 0.34773 0.06493 0.32415 0.0
C4569 C 0.35879 0.06735 0.33205 0.0
C4570 C 0.36314 0.08033 0.33369 0.0
C4571 C 0.35641 0.09073 0.32778 0.0
C4572 C 0.36543 0.05639 0.33898 0.0
C4573 C 0.36842 0.04471 0.33237 0.0
C4574 C 0.37429 0.03409 0.339 0.0
C4575 C 0.37709 0.03529 0.35249 0.0
C4576 C 0.37425 0.04701 0.35921 0.0
C4577 C 0.36847 0.0575 0.35236 0.0
C4578 C 0.37668 0.04836 0.3735 0.0
C4579 C 0.3719 0.03895 0.38239 0.0
C4580 C 0.38252 0.05985 0.37842 0.0
C4581 C 0.38272 0.06234 0.39189 0.0
C4582 C 0.377 0.05342 0.40076 0.0
C4583 C 0.37781 0.02202 0.33157 0.0
C4584 C 0.36943 0.01722 0.32169 0.0
C4585 C 0.38997 0.01578 0.33358 0.0
C4586 C 0.39392 0.00543 0.32545 0.0
C4587 C 0.38583 0.00118 0.3151 0.0
C4588 C 0.37342 0.00697 0.31351 0.0
C4589 C 0.37203 0.04147 0.39591 0.0
H4590 H 0.33225 0.07319 0.31257 0.0
H4591 H 0.34411 0.05502 0.3228 0.0
H4592 H 0.37171 0.08245 0.33962 0.0
H4593 H 0.3599 0.10064 0.32941 0.0
H4594 H 0.36645 0.04404 0.32193 0.0
H4595 H 0.36587 0.06641 0.35758 0.0
H4596 H 0.38147 0.02714 0.35777 0.0
H4597 H 0.36733 0.03002 0.37885 0.0
H4598 H 0.38645 0.06719 0.37178 0.0
H4599 H 0.38676 0.07158 0.39528 0.0
H4600 H 0.35987 0.0216 0.32008 0.0
H4601 H 0.3967 0.01927 0.34104 0.0
H4602 H 0.3676 0.03437 0.40248 0.0
H4603 H 0.36689 0.00381 0.30574 0.0
H4604 H 0.40355 0.00116 0.32693 0.0
C4605 C 0.67009 0.60081 0.06481 0.0
C4606 C 0.65708 0.60338 0.06864 0.0
C4607 C 0.68048 0.608 0.07014 0.0
C4608 C 0.67811 0.61793 0.07943 0.0
C4609 C 0.66507 0.62078 0.08296 0.0
C4610 C 0.65467 0.61359 0.07761 0.0
C4611 C 0.68925 0.62477 0.08592 0.0
C4612 C 0.70032 0.62858 0.07867 0.0
C4613 C 0.71134 0.63414 0.08489 0.0
C4614 C 0.71107 0.63605 0.09859 0.0
C4615 C 0.69994 0.6325 0.10596 0.0
C4616 C 0.68911 0.62687 0.09952 0.0
C4617 C 0.69971 0.63375 0.12048 0.0
C4618 C 0.71016 0.62897 0.12813 0.0
C4619 C 0.68836 0.63836 0.12683 0.0
C4620 C 0.68705 0.63727 0.14043 0.0
C4621 C 0.69706 0.6315 0.14799 0.0
C4622 C 0.72303 0.63784 0.07696 0.0
C4623 C 0.72712 0.62985 0.06645 0.0
C4624 C 0.72984 0.64961 0.07939 0.0
C4625 C 0.74017 0.65352 0.0712 0.0
C4626 C 0.74383 0.64579 0.06037 0.0
C4627 C 0.73734 0.63381 0.05822 0.0
C4628 C 0.70885 0.62785 0.14177 0.0
H4629 H 0.6723 0.59301 0.05792 0.0
H4630 H 0.69042 0.60546 0.06732 0.0
H4631 H 0.66292 0.62849 0.08996 0.0
H4632 H 0.64476 0.61588 0.08074 0.0
H4633 H 0.70028 0.62733 0.0681 0.0
H4634 H 0.68077 0.62354 0.10524 0.0
H4635 H 0.71954 0.64017 0.10355 0.0
H4636 H 0.71901 0.62532 0.1235 0.0
H4637 H 0.68024 0.64229 0.12119 0.0
H4638 H 0.67791 0.64032 0.14491 0.0
H4639 H 0.72232 0.62057 0.06448 0.0
H4640 H 0.7269 0.65603 0.08734 0.0
H4641 H 0.71677 0.62342 0.14731 0.0
H4642 H 0.74002 0.62755 0.05004 0.0
H4643 H 0.74498 0.66282 0.07311 0.0
C4644 C 0.61604 0.44686 0.39377 0.0
C4645 C 0.62741 0.44529 0.40147 0.0
C4646 C 0.61699 0.45121 0.38075 0.0
C4647 C 0.62932 0.45393 0.37521 0.0
C4648 C 0.64055 0.45324 0.38316 0.0
C4649 C 0.6396 0.44906 0.39618 0.0
C4650 C 0.63073 0.45572 0.36085 0.0
C4651 C 0.62328 0.4651 0.35398 0.0
C4652 C 0.62431 0.46618 0.34021 0.0
C4653 C 0.63266 0.45748 0.33343 0.0
C4654 C 0.6402 0.44815 0.34019 0.0
C4655 C 0.63924 0.44742 0.3539 0.0
C4656 C 0.64875 0.43885 0.33294 0.0
C4657 C 0.64408 0.43234 0.32171 0.0
C4658 C 0.66148 0.43608 0.33748 0.0
C4659 C 0.66926 0.42675 0.33111 0.0
C4660 C 0.66446 0.41994 0.3201 0.0
C4661 C 0.61665 0.47619 0.33276 0.0
C4662 C 0.60377 0.47958 0.33648 0.0
C4663 C 0.62207 0.48215 0.32152 0.0
C4664 C 0.61465 0.49075 0.31387 0.0
C4665 C 0.60173 0.4939 0.31745 0.0
C4666 C 0.59643 0.48845 0.32896 0.0
C4667 C 0.65184 0.42297 0.31536 0.0
H4668 H 0.60649 0.44411 0.39757 0.0
H4669 H 0.60819 0.45162 0.37477 0.0
H4670 H 0.65015 0.45539 0.37912 0.0
H4671 H 0.64855 0.44808 0.40184 0.0
H4672 H 0.61691 0.47165 0.35943 0.0
H4673 H 0.64475 0.43996 0.35915 0.0
H4674 H 0.63329 0.45789 0.32282 0.0
H4675 H 0.63427 0.4342 0.31805 0.0
H4676 H 0.66539 0.44106 0.34603 0.0
H4677 H 0.67894 0.42469 0.33501 0.0
H4678 H 0.5992 0.47512 0.34498 0.0
H4679 H 0.63208 0.48013 0.31854 0.0
H4680 H 0.64783 0.41791 0.30691 0.0
H4681 H 0.58647 0.4907 0.33192 0.0
H4682 H 0.61906 0.49498 0.30515 0.0
C4683 C 0.17009 0.89872 0.93471 0.0
C4684 C 0.15708 0.89615 0.93088 0.0
C4685 C 0.18048 0.89153 0.92937 0.0
C4686 C 0.17811 0.8816 0.92008 0.0
C4687 C 0.16507 0.87875 0.91656 0.0
C4688 C 0.15467 0.88593 0.9219 0.0
C4689 C 0.18925 0.87476 0.9136 0.0
C4690 C 0.20032 0.87094 0.92084 0.0
C4691 C 0.21134 0.86539 0.91462 0.0
C4692 C 0.21107 0.86347 0.90092 0.0
C4693 C 0.19994 0.86703 0.89356 0.0
C4694 C 0.18911 0.87266 0.89999 0.0
C4695 C 0.19971 0.86578 0.87903 0.0
C4696 C 0.21016 0.87055 0.87139 0.0
C4697 C 0.18836 0.86117 0.87269 0.0
C4698 C 0.18705 0.86226 0.85908 0.0
C4699 C 0.19706 0.86803 0.85152 0.0
C4700 C 0.22303 0.86169 0.92256 0.0
C4701 C 0.22712 0.86968 0.93306 0.0
C4702 C 0.22984 0.84992 0.92012 0.0
C4703 C 0.24017 0.84601 0.92832 0.0
C4704 C 0.24383 0.85374 0.93915 0.0
C4705 C 0.23734 0.86572 0.9413 0.0
C4706 C 0.20885 0.87167 0.85775 0.0
H4707 H 0.1723 0.90652 0.9416 0.0
H4708 H 0.19042 0.89407 0.9322 0.0
H4709 H 0.16292 0.87104 0.90955 0.0
H4710 H 0.14476 0.88365 0.91878 0.0
H4711 H 0.20028 0.8722 0.93141 0.0
H4712 H 0.18077 0.87598 0.89427 0.0
H4713 H 0.21954 0.85936 0.89597 0.0
H4714 H 0.21901 0.8742 0.87602 0.0
H4715 H 0.18024 0.85723 0.87833 0.0
H4716 H 0.17791 0.8592 0.8546 0.0
H4717 H 0.22232 0.87896 0.93503 0.0
H4718 H 0.2269 0.84349 0.91218 0.0
H4719 H 0.21677 0.87611 0.8522 0.0
H4720 H 0.24002 0.87197 0.94947 0.0
H4721 H 0.24498 0.83671 0.92641 0.0
C4722 C 0.34092 0.92418 0.18117 0.0
C4723 C 0.3451 0.91116 0.1793 0.0
C4724 C 0.34773 0.9346 0.17536 0.0
C4725 C 0.35879 0.93218 0.16746 0.0
C4726 C 0.36314 0.9192 0.16583 0.0
C4727 C 0.35641 0.9088 0.17174 0.0
C4728 C 0.36543 0.94314 0.16053 0.0
C4729 C 0.36842 0.95482 0.16715 0.0
C4730 C 0.37429 0.96544 0.16052 0.0
C4731 C 0.37709 0.96424 0.14702 0.0
C4732 C 0.37425 0.95252 0.14031 0.0
C4733 C 0.36847 0.94203 0.14716 0.0
C4734 C 0.37668 0.95116 0.12601 0.0
C4735 C 0.3719 0.96058 0.11712 0.0
C4736 C 0.38252 0.93967 0.1211 0.0
C4737 C 0.38272 0.93719 0.10762 0.0
C4738 C 0.377 0.9461 0.09876 0.0
C4739 C 0.37781 0.97751 0.16795 0.0
C4740 C 0.36943 0.98231 0.17782 0.0
C4741 C 0.38997 0.98375 0.16593 0.0
C4742 C 0.39392 0.99409 0.17407 0.0
C4743 C 0.38583 0.99835 0.18441 0.0
C4744 C 0.37342 0.99255 0.186 0.0
C4745 C 0.37203 0.95806 0.1036 0.0
H4746 H 0.33225 0.92634 0.18695 0.0
H4747 H 0.34411 0.94451 0.17672 0.0
H4748 H 0.37171 0.91708 0.15989 0.0
H4749 H 0.3599 0.89888 0.1701 0.0
H4750 H 0.36646 0.95548 0.17759 0.0
H4751 H 0.36587 0.93312 0.14193 0.0
H4752 H 0.38147 0.97239 0.14174 0.0
H4753 H 0.36733 0.96951 0.12066 0.0
H4754 H 0.38645 0.93234 0.12774 0.0
H4755 H 0.38676 0.92795 0.10424 0.0
H4756 H 0.35987 0.97792 0.17944 0.0
H4757 H 0.3967 0.98025 0.15848 0.0
H4758 H 0.3676 0.96516 0.09703 0.0
H4759 H 0.36689 0.99572 0.19378 0.0
H4760 H 0.40355 0.99837 0.17259 0.0
C4761 C 0.11604 0.05267 0.60575 0.0
C4762 C 0.12741 0.05423 0.59805 0.0
C4763 C 0.11699 0.04832 0.61877 0.0
C4764 C 0.12932 0.0456 0.62431 0.0
C4765 C 0.14055 0.04629 0.61636 0.0
C4766 C 0.1396 0.05047 0.60334 0.0
C4767 C 0.13073 0.0438 0.63867 0.0
C4768 C 0.12328 0.03443 0.64553 0.0
C4769 C 0.12431 0.03335 0.6593 0.0
C4770 C 0.13266 0.04205 0.66608 0.0
C4771 C 0.1402 0.05137 0.65932 0.0
C4772 C 0.13924 0.05211 0.64562 0.0
C4773 C 0.14875 0.06068 0.66657 0.0
C4774 C 0.14408 0.06719 0.67781 0.0
C4775 C 0.16148 0.06345 0.66203 0.0
C4776 C 0.16926 0.07277 0.66841 0.0
C4777 C 0.16446 0.07958 0.67942 0.0
C4778 C 0.11665 0.02333 0.66675 0.0
C4779 C 0.10377 0.01994 0.66303 0.0
C4780 C 0.12207 0.01738 0.678 0.0
C4781 C 0.11465 0.00877 0.68565 0.0
C4782 C 0.10173 0.00562 0.68207 0.0
C4783 C 0.09643 0.01108 0.67056 0.0
C4784 C 0.15184 0.07656 0.68415 0.0
H4785 H 0.10649 0.05541 0.60194 0.0
H4786 H 0.10819 0.0479 0.62474 0.0
H4787 H 0.15015 0.04413 0.6204 0.0
H4788 H 0.14855 0.05145 0.59767 0.0
H4789 H 0.11691 0.02788 0.64009 0.0
H4790 H 0.14475 0.05957 0.64036 0.0
H4791 H 0.13329 0.04164 0.67669 0.0
H4792 H 0.13427 0.06533 0.68146 0.0
H4793 H 0.16539 0.05847 0.65349 0.0
H4794 H 0.17894 0.07484 0.66451 0.0
H4795 H 0.0992 0.02441 0.65453 0.0
H4796 H 0.13208 0.0194 0.68098 0.0
H4797 H 0.14783 0.08162 0.6926 0.0
H4798 H 0.08647 0.00883 0.6676 0.0
H4799 H 0.11906 0.00455 0.69437 0.0
loop_
_geom_bond_atom_site_label_1
_geom_bond_atom_site_label_2
_geom_bond_distance
_geom_bond_site_symmetry_2
_ccdc_geom_bond_type
O0 Cd1 2.300 . S
O0 C7 1.275 . S
Cd1 O0 2.300 . S
Cd1 O9 2.381 . S
Cd1 O10 2.378 . S
O2 Cd3 2.385 . S
O2 C7 1.255 . S
Cd3 O2 2.385 . S
Cd3 O4 2.317 . S
O4 Cd3 2.317 . S
O4 C5 1.232 . S
C5 O4 1.232 . S
C5 O6 1.218 . S
O6 C5 1.218 . S
C7 O0 1.275 . S
C7 O2 1.255 . S
C8 O9 1.258 . S
C8 O10 1.256 . S
O9 Cd1 2.381 . S
O9 C8 1.258 . S
O10 Cd1 2.378 . S
O10 C8 1.256 . S
O11 Cd12 2.300 . S
O11 C18 1.275 . S
Cd12 O11 2.300 . S
Cd12 O20 2.381 . S
Cd12 O21 2.378 . S
O13 Cd14 2.385 . S
O13 C18 1.255 . S
Cd14 O13 2.385 . S
Cd14 O15 2.317 . S
O15 Cd14 2.317 . S
O15 C16 1.232 . S
C16 O15 1.232 . S
C16 O17 1.218 . S
O17 C16 1.218 . S
C18 O11 1.275 . S
C18 O13 1.255 . S
C19 O20 1.258 . S
C19 O21 1.256 . S
O20 Cd12 2.381 . S
O20 C19 1.258 . S
O21 Cd12 2.378 . S
O21 C19 1.256 . S
O22 Cd23 2.300 . S
O22 C29 1.275 . S
Cd23 O22 2.300 . S
Cd23 O31 2.381 . S
Cd23 O32 2.378 . S
O24 Cd25 2.385 . S
O24 C29 1.255 . S
Cd25 O24 2.385 . S
Cd25 O26 2.317 . S
O26 Cd25 2.317 . S
O26 C27 1.232 . S
C27 O26 1.232 . S
C27 O28 1.218 . S
O28 C27 1.218 . S
C29 O22 1.275 . S
C29 O24 1.255 . S
C30 O31 1.258 . S
C30 O32 1.256 . S
O31 Cd23 2.381 . S
O31 C30 1.258 . S
O32 Cd23 2.378 . S
O32 C30 1.256 . S
O33 Cd34 2.300 . S
O33 C40 1.275 . S
Cd34 O33 2.300 . S
Cd34 O42 2.381 . S
Cd34 O43 2.378 . S
O35 Cd36 2.385 . S
O35 C40 1.255 . S
Cd36 O35 2.385 . S
Cd36 O37 2.317 . S
O37 Cd36 2.317 . S
O37 C38 1.232 . S
C38 O37 1.232 . S
C38 O39 1.218 . S
O39 C38 1.218 . S
C40 O33 1.275 . S
C40 O35 1.255 . S
C41 O42 1.258 . S
C41 O43 1.256 . S
O42 Cd34 2.381 . S
O42 C41 1.258 . S
O43 Cd34 2.378 . S
O43 C41 1.256 . S
O44 Cd45 2.300 . S
O44 C51 1.275 . S
Cd45 O44 2.300 . S
Cd45 O53 2.381 . S
Cd45 O54 2.378 . S
O46 Cd47 2.385 . S
O46 C51 1.255 . S
Cd47 O46 2.385 . S
Cd47 O48 2.317 . S
O48 Cd47 2.317 . S
O48 C49 1.232 . S
C49 O48 1.232 . S
C49 O50 1.218 . S
O50 C49 1.218 . S
C51 O44 1.275 . S
C51 O46 1.255 . S
C52 O53 1.258 . S
C52 O54 1.256 . S
O53 Cd45 2.381 . S
O53 C52 1.258 . S
O54 Cd45 2.378 . S
O54 C52 1.256 . S
O55 Cd56 2.300 . S
O55 C62 1.275 . S
Cd56 O55 2.300 . S
Cd56 O64 2.381 . S
Cd56 O65 2.378 . S
O57 Cd58 2.385 . S
O57 C62 1.255 . S
Cd58 O57 2.385 . S
Cd58 O59 2.317 . S
O59 Cd58 2.317 . S
O59 C60 1.232 . S
C60 O59 1.232 . S
C60 O61 1.218 . S
O61 C60 1.218 . S
C62 O55 1.275 . S
C62 O57 1.255 . S
C63 O64 1.258 . S
C63 O65 1.256 . S
O64 Cd56 2.381 . S
O64 C63 1.258 . S
O65 Cd56 2.378 . S
O65 C63 1.256 . S
O66 Cd67 2.300 . S
O66 C73 1.275 . S
Cd67 O66 2.300 . S
Cd67 O75 2.381 . S
Cd67 O76 2.378 . S
O68 Cd69 2.385 . S
O68 C73 1.255 . S
Cd69 O68 2.385 . S
Cd69 O70 2.317 . S
O70 Cd69 2.317 . S
O70 C71 1.232 . S
C71 O70 1.232 . S
C71 O72 1.218 . S
O72 C71 1.218 . S
C73 O66 1.275 . S
C73 O68 1.255 . S
C74 O75 1.258 . S
C74 O76 1.256 . S
O75 Cd67 2.381 . S
O75 C74 1.258 . S
O76 Cd67 2.378 . S
O76 C74 1.256 . S
O77 Cd78 2.300 . S
O77 C84 1.275 . S
Cd78 O77 2.300 . S
Cd78 O86 2.381 . S
Cd78 O87 2.378 . S
O79 Cd80 2.385 . S
O79 C84 1.255 . S
Cd80 O79 2.385 . S
Cd80 O81 2.317 . S
O81 Cd80 2.317 . S
O81 C82 1.232 . S
C82 O81 1.232 . S
C82 O83 1.218 . S
O83 C82 1.218 . S
C84 O77 1.275 . S
C84 O79 1.255 . S
C85 O86 1.258 . S
C85 O87 1.256 . S
O86 Cd78 2.381 . S
O86 C85 1.258 . S
O87 Cd78 2.378 . S
O87 C85 1.256 . S
O88 Cd89 2.300 . S
O88 C95 1.275 . S
Cd89 O88 2.300 . S
Cd89 O97 2.381 . S
Cd89 O98 2.378 . S
O90 Cd91 2.385 . S
O90 C95 1.255 . S
Cd91 O90 2.385 . S
Cd91 O92 2.317 . S
O92 Cd91 2.317 . S
O92 C93 1.232 . S
C93 O92 1.232 . S
C93 O94 1.218 . S
O94 C93 1.218 . S
C95 O88 1.275 . S
C95 O90 1.255 . S
C96 O97 1.258 . S
C96 O98 1.256 . S
O97 Cd89 2.381 . S
O97 C96 1.258 . S
O98 Cd89 2.378 . S
O98 C96 1.256 . S
O99 Cd100 2.300 . S
O99 C106 1.275 . S
Cd100 O99 2.300 . S
Cd100 O108 2.381 . S
Cd100 O109 2.378 . S
O101 Cd102 2.385 . S
O101 C106 1.255 . S
Cd102 O101 2.385 . S
Cd102 O103 2.317 . S
O103 Cd102 2.317 . S
O103 C104 1.232 . S
C104 O103 1.232 . S
C104 O105 1.218 . S
O105 C104 1.218 . S
C106 O99 1.275 . S
C106 O101 1.255 . S
C107 O108 1.258 . S
C107 O109 1.256 . S
O108 Cd100 2.381 . S
O108 C107 1.258 . S
O109 Cd100 2.378 . S
O109 C107 1.256 . S
O110 Cd111 2.300 . S
O110 C117 1.275 . S
Cd111 O110 2.300 . S
Cd111 O119 2.381 . S
Cd111 O120 2.378 . S
O112 Cd113 2.385 . S
O112 C117 1.255 . S
Cd113 O112 2.385 . S
Cd113 O114 2.317 . S
O114 Cd113 2.317 . S
O114 C115 1.232 . S
C115 O114 1.232 . S
C115 O116 1.218 . S
O116 C115 1.218 . S
C117 O110 1.275 . S
C117 O112 1.255 . S
C118 O119 1.258 . S
C118 O120 1.256 . S
O119 Cd111 2.381 . S
O119 C118 1.258 . S
O120 Cd111 2.378 . S
O120 C118 1.256 . S
O121 Cd122 2.300 . S
O121 C128 1.275 . S
Cd122 O121 2.300 . S
Cd122 O130 2.381 . S
Cd122 O131 2.378 . S
O123 Cd124 2.385 . S
O123 C128 1.255 . S
Cd124 O123 2.385 . S
Cd124 O125 2.317 . S
O125 Cd124 2.317 . S
O125 C126 1.232 . S
C126 O125 1.232 . S
C126 O127 1.218 . S
O127 C126 1.218 . S
C128 O121 1.275 . S
C128 O123 1.255 . S
C129 O130 1.258 . S
C129 O131 1.256 . S
O130 Cd122 2.381 . S
O130 C129 1.258 . S
O131 Cd122 2.378 . S
O131 C129 1.256 . S
O132 Cd133 2.300 . S
O132 C139 1.275 . S
Cd133 O132 2.300 . S
Cd133 O141 2.381 . S
Cd133 O142 2.378 . S
O134 Cd135 2.385 . S
O134 C139 1.255 . S
Cd135 O134 2.385 . S
Cd135 O136 2.317 . S
O136 Cd135 2.317 . S
O136 C137 1.232 . S
C137 O136 1.232 . S
C137 O138 1.218 . S
O138 C137 1.218 . S
C139 O132 1.275 . S
C139 O134 1.255 . S
C140 O141 1.258 . S
C140 O142 1.256 . S
O141 Cd133 2.381 . S
O141 C140 1.258 . S
O142 Cd133 2.378 . S
O142 C140 1.256 . S
O143 Cd144 2.300 . S
O143 C150 1.275 . S
Cd144 O143 2.300 . S
Cd144 O152 2.381 . S
Cd144 O153 2.378 . S
O145 Cd146 2.385 . S
O145 C150 1.255 . S
Cd146 O145 2.385 . S
Cd146 O147 2.317 . S
O147 Cd146 2.317 . S
O147 C148 1.232 . S
C148 O147 1.232 . S
C148 O149 1.218 . S
O149 C148 1.218 . S
C150 O143 1.275 . S
C150 O145 1.255 . S
C151 O152 1.258 . S
C151 O153 1.256 . S
O152 Cd144 2.381 . S
O152 C151 1.258 . S
O153 Cd144 2.378 . S
O153 C151 1.256 . S
O154 Cd155 2.300 . S
O154 C161 1.275 . S
Cd155 O154 2.300 . S
Cd155 O163 2.381 . S
Cd155 O164 2.378 . S
O156 Cd157 2.385 . S
O156 C161 1.255 . S
Cd157 O156 2.385 . S
Cd157 O158 2.317 . S
O158 Cd157 2.317 . S
O158 C159 1.232 . S
C159 O158 1.232 . S
C159 O160 1.218 . S
O160 C159 1.218 . S
C161 O154 1.275 . S
C161 O156 1.255 . S
C162 O163 1.258 . S
C162 O164 1.256 . S
O163 Cd155 2.381 . S
O163 C162 1.258 . S
O164 Cd155 2.378 . S
O164 C162 1.256 . S
O165 Cd166 2.300 . S
O165 C172 1.275 . S
Cd166 O165 2.300 . S
Cd166 O174 2.381 . S
Cd166 O175 2.378 . S
O167 Cd168 2.385 . S
O167 C172 1.255 . S
Cd168 O167 2.385 . S
Cd168 O169 2.317 . S
O169 Cd168 2.317 . S
O169 C170 1.232 . S
C170 O169 1.232 . S
C170 O171 1.218 . S
O171 C170 1.218 . S
C172 O165 1.275 . S
C172 O167 1.255 . S
C173 O174 1.258 . S
C173 O175 1.256 . S
O174 Cd166 2.381 . S
O174 C173 1.258 . S
O175 Cd166 2.378 . S
O175 C173 1.256 . S
O176 Cd177 2.300 . S
O176 C183 1.275 . S
Cd177 O176 2.300 . S
Cd177 O185 2.381 . S
Cd177 O186 2.378 . S
O178 Cd179 2.385 . S
O178 C183 1.255 . S
Cd179 O178 2.385 . S
Cd179 O180 2.317 . S
O180 Cd179 2.317 . S
O180 C181 1.232 . S
C181 O180 1.232 . S
C181 O182 1.218 . S
O182 C181 1.218 . S
C183 O176 1.275 . S
C183 O178 1.255 . S
C184 O185 1.258 . S
C184 O186 1.256 . S
O185 Cd177 2.381 . S
O185 C184 1.258 . S
O186 Cd177 2.378 . S
O186 C184 1.256 . S
O187 Cd188 2.300 . S
O187 C194 1.275 . S
Cd188 O187 2.300 . S
Cd188 O196 2.381 . S
Cd188 O197 2.378 . S
O189 Cd190 2.385 . S
O189 C194 1.255 . S
Cd190 O189 2.385 . S
Cd190 O191 2.317 . S
O191 Cd190 2.317 . S
O191 C192 1.232 . S
C192 O191 1.232 . S
C192 O193 1.218 . S
O193 C192 1.218 . S
C194 O187 1.275 . S
C194 O189 1.255 . S
C195 O196 1.258 . S
C195 O197 1.256 . S
O196 Cd188 2.381 . S
O196 C195 1.258 . S
O197 Cd188 2.378 . S
O197 C195 1.256 . S
O198 Cd199 2.300 . S
O198 C205 1.275 . S
Cd199 O198 2.300 . S
Cd199 O207 2.381 . S
Cd199 O208 2.378 . S
O200 Cd201 2.385 . S
O200 C205 1.255 . S
Cd201 O200 2.385 . S
Cd201 O202 2.317 . S
O202 Cd201 2.317 . S
O202 C203 1.232 . S
C203 O202 1.232 . S
C203 O204 1.218 . S
O204 C203 1.218 . S
C205 O198 1.275 . S
C205 O200 1.255 . S
C206 O207 1.258 . S
C206 O208 1.256 . S
O207 Cd199 2.381 . S
O207 C206 1.258 . S
O208 Cd199 2.378 . S
O208 C206 1.256 . S
O209 Cd210 2.300 . S
O209 C216 1.275 . S
Cd210 O209 2.300 . S
Cd210 O218 2.381 . S
Cd210 O219 2.378 . S
O211 Cd212 2.385 . S
O211 C216 1.255 . S
Cd212 O211 2.385 . S
Cd212 O213 2.317 . S
O213 Cd212 2.317 . S
O213 C214 1.232 . S
C214 O213 1.232 . S
C214 O215 1.218 . S
O215 C214 1.218 . S
C216 O209 1.275 . S
C216 O211 1.255 . S
C217 O218 1.258 . S
C217 O219 1.256 . S
O218 Cd210 2.381 . S
O218 C217 1.258 . S
O219 Cd210 2.378 . S
O219 C217 1.256 . S
O220 Cd221 2.300 . S
O220 C227 1.275 . S
Cd221 O220 2.300 . S
Cd221 O229 2.381 . S
Cd221 O230 2.378 . S
O222 Cd223 2.385 . S
O222 C227 1.255 . S
Cd223 O222 2.385 . S
Cd223 O224 2.317 . S
O224 Cd223 2.317 . S
O224 C225 1.232 . S
C225 O224 1.232 . S
C225 O226 1.218 . S
O226 C225 1.218 . S
C227 O220 1.275 . S
C227 O222 1.255 . S
C228 O229 1.258 . S
C228 O230 1.256 . S
O229 Cd221 2.381 . S
O229 C228 1.258 . S
O230 Cd221 2.378 . S
O230 C228 1.256 . S
O231 Cd232 2.300 . S
O231 C238 1.275 . S
Cd232 O231 2.300 . S
Cd232 O240 2.381 . S
Cd232 O241 2.378 . S
O233 Cd234 2.385 . S
O233 C238 1.255 . S
Cd234 O233 2.385 . S
Cd234 O235 2.317 . S
O235 Cd234 2.317 . S
O235 C236 1.232 . S
C236 O235 1.232 . S
C236 O237 1.218 . S
O237 C236 1.218 . S
C238 O231 1.275 . S
C238 O233 1.255 . S
C239 O240 1.258 . S
C239 O241 1.256 . S
O240 Cd232 2.381 . S
O240 C239 1.258 . S
O241 Cd232 2.378 . S
O241 C239 1.256 . S
O242 Cd243 2.300 . S
O242 C249 1.275 . S
Cd243 O242 2.300 . S
Cd243 O251 2.381 . S
Cd243 O252 2.378 . S
O244 Cd245 2.385 . S
O244 C249 1.255 . S
Cd245 O244 2.385 . S
Cd245 O246 2.317 . S
O246 Cd245 2.317 . S
O246 C247 1.232 . S
C247 O246 1.232 . S
C247 O248 1.218 . S
O248 C247 1.218 . S
C249 O242 1.275 . S
C249 O244 1.255 . S
C250 O251 1.258 . S
C250 O252 1.256 . S
O251 Cd243 2.381 . S
O251 C250 1.258 . S
O252 Cd243 2.378 . S
O252 C250 1.256 . S
O253 Cd254 2.300 . S
O253 C260 1.275 . S
Cd254 O253 2.300 . S
Cd254 O262 2.381 . S
Cd254 O263 2.378 . S
O255 Cd256 2.385 . S
O255 C260 1.255 . S
Cd256 O255 2.385 . S
Cd256 O257 2.317 . S
O257 Cd256 2.317 . S
O257 C258 1.232 . S
C258 O257 1.232 . S
C258 O259 1.218 . S
O259 C258 1.218 . S
C260 O253 1.275 . S
C260 O255 1.255 . S
C261 O262 1.258 . S
C261 O263 1.256 . S
O262 Cd254 2.381 . S
O262 C261 1.258 . S
O263 Cd254 2.378 . S
O263 C261 1.256 . S
O264 Cd265 2.300 . S
O264 C271 1.275 . S
Cd265 O264 2.300 . S
Cd265 O273 2.381 . S
Cd265 O274 2.378 . S
O266 Cd267 2.385 . S
O266 C271 1.255 . S
Cd267 O266 2.385 . S
Cd267 O268 2.317 . S
O268 Cd267 2.317 . S
O268 C269 1.232 . S
C269 O268 1.232 . S
C269 O270 1.218 . S
O270 C269 1.218 . S
C271 O264 1.275 . S
C271 O266 1.255 . S
C272 O273 1.258 . S
C272 O274 1.256 . S
O273 Cd265 2.381 . S
O273 C272 1.258 . S
O274 Cd265 2.378 . S
O274 C272 1.256 . S
O275 Cd276 2.300 . S
O275 C282 1.275 . S
Cd276 O275 2.300 . S
Cd276 O284 2.381 . S
Cd276 O285 2.378 . S
O277 Cd278 2.385 . S
O277 C282 1.255 . S
Cd278 O277 2.385 . S
Cd278 O279 2.317 . S
O279 Cd278 2.317 . S
O279 C280 1.232 . S
C280 O279 1.232 . S
C280 O281 1.218 . S
O281 C280 1.218 . S
C282 O275 1.275 . S
C282 O277 1.255 . S
C283 O284 1.258 . S
C283 O285 1.256 . S
O284 Cd276 2.381 . S
O284 C283 1.258 . S
O285 Cd276 2.378 . S
O285 C283 1.256 . S
O286 Cd287 2.300 . S
O286 C293 1.275 . S
Cd287 O286 2.300 . S
Cd287 O295 2.381 . S
Cd287 O296 2.378 . S
O288 Cd289 2.385 . S
O288 C293 1.255 . S
Cd289 O288 2.385 . S
Cd289 O290 2.317 . S
O290 Cd289 2.317 . S
O290 C291 1.232 . S
C291 O290 1.232 . S
C291 O292 1.218 . S
O292 C291 1.218 . S
C293 O286 1.275 . S
C293 O288 1.255 . S
C294 O295 1.258 . S
C294 O296 1.256 . S
O295 Cd287 2.381 . S
O295 C294 1.258 . S
O296 Cd287 2.378 . S
O296 C294 1.256 . S
O297 Cd298 2.300 . S
O297 C304 1.275 . S
Cd298 O297 2.300 . S
Cd298 O306 2.381 . S
Cd298 O307 2.378 . S
O299 Cd300 2.385 . S
O299 C304 1.255 . S
Cd300 O299 2.385 . S
Cd300 O301 2.317 . S
O301 Cd300 2.317 . S
O301 C302 1.232 . S
C302 O301 1.232 . S
C302 O303 1.218 . S
O303 C302 1.218 . S
C304 O297 1.275 . S
C304 O299 1.255 . S
C305 O306 1.258 . S
C305 O307 1.256 . S
O306 Cd298 2.381 . S
O306 C305 1.258 . S
O307 Cd298 2.378 . S
O307 C305 1.256 . S
O308 Cd309 2.300 . S
O308 C315 1.275 . S
Cd309 O308 2.300 . S
Cd309 O317 2.381 . S
Cd309 O318 2.378 . S
O310 Cd311 2.385 . S
O310 C315 1.255 . S
Cd311 O310 2.385 . S
Cd311 O312 2.317 . S
O312 Cd311 2.317 . S
O312 C313 1.232 . S
C313 O312 1.232 . S
C313 O314 1.218 . S
O314 C313 1.218 . S
C315 O308 1.275 . S
C315 O310 1.255 . S
C316 O317 1.258 . S
C316 O318 1.256 . S
O317 Cd309 2.381 . S
O317 C316 1.258 . S
O318 Cd309 2.378 . S
O318 C316 1.256 . S
O319 Cd320 2.300 . S
O319 C326 1.275 . S
Cd320 O319 2.300 . S
Cd320 O328 2.381 . S
Cd320 O329 2.378 . S
O321 Cd322 2.385 . S
O321 C326 1.255 . S
Cd322 O321 2.385 . S
Cd322 O323 2.317 . S
O323 Cd322 2.317 . S
O323 C324 1.232 . S
C324 O323 1.232 . S
C324 O325 1.218 . S
O325 C324 1.218 . S
C326 O319 1.275 . S
C326 O321 1.255 . S
C327 O328 1.258 . S
C327 O329 1.256 . S
O328 Cd320 2.381 . S
O328 C327 1.258 . S
O329 Cd320 2.378 . S
O329 C327 1.256 . S
O330 Cd331 2.300 . S
O330 C337 1.275 . S
Cd331 O330 2.300 . S
Cd331 O339 2.381 . S
Cd331 O340 2.378 . S
O332 Cd333 2.385 . S
O332 C337 1.255 . S
Cd333 O332 2.385 . S
Cd333 O334 2.317 . S
O334 Cd333 2.317 . S
O334 C335 1.232 . S
C335 O334 1.232 . S
C335 O336 1.218 . S
O336 C335 1.218 . S
C337 O330 1.275 . S
C337 O332 1.255 . S
C338 O339 1.258 . S
C338 O340 1.256 . S
O339 Cd331 2.381 . S
O339 C338 1.258 . S
O340 Cd331 2.378 . S
O340 C338 1.256 . S
O341 Cd342 2.300 . S
O341 C348 1.275 . S
Cd342 O341 2.300 . S
Cd342 O350 2.381 . S
Cd342 O351 2.378 . S
O343 Cd344 2.385 . S
O343 C348 1.255 . S
Cd344 O343 2.385 . S
Cd344 O345 2.317 . S
O345 Cd344 2.317 . S
O345 C346 1.232 . S
C346 O345 1.232 . S
C346 O347 1.218 . S
O347 C346 1.218 . S
C348 O341 1.275 . S
C348 O343 1.255 . S
C349 O350 1.258 . S
C349 O351 1.256 . S
O350 Cd342 2.381 . S
O350 C349 1.258 . S
O351 Cd342 2.378 . S
O351 C349 1.256 . S
O352 Cd353 2.300 . S
O352 C359 1.275 . S
Cd353 O352 2.300 . S
Cd353 O361 2.381 . S
Cd353 O362 2.378 . S
O354 Cd355 2.385 . S
O354 C359 1.255 . S
Cd355 O354 2.385 . S
Cd355 O356 2.317 . S
O356 Cd355 2.317 . S
O356 C357 1.232 . S
C357 O356 1.232 . S
C357 O358 1.218 . S
O358 C357 1.218 . S
C359 O352 1.275 . S
C359 O354 1.255 . S
C360 O361 1.258 . S
C360 O362 1.256 . S
O361 Cd353 2.381 . S
O361 C360 1.258 . S
O362 Cd353 2.378 . S
O362 C360 1.256 . S
O363 Cd364 2.300 . S
O363 C370 1.275 . S
Cd364 O363 2.300 . S
Cd364 O372 2.381 . S
Cd364 O373 2.378 . S
O365 Cd366 2.385 . S
O365 C370 1.255 . S
Cd366 O365 2.385 . S
Cd366 O367 2.317 . S
O367 Cd366 2.317 . S
O367 C368 1.232 . S
C368 O367 1.232 . S
C368 O369 1.218 . S
O369 C368 1.218 . S
C370 O363 1.275 . S
C370 O365 1.255 . S
C371 O372 1.258 . S
C371 O373 1.256 . S
O372 Cd364 2.381 . S
O372 C371 1.258 . S
O373 Cd364 2.378 . S
O373 C371 1.256 . S
O374 Cd375 2.300 . S
O374 C381 1.275 . S
Cd375 O374 2.300 . S
Cd375 O383 2.381 . S
Cd375 O384 2.378 . S
O376 Cd377 2.385 . S
O376 C381 1.255 . S
Cd377 O376 2.385 . S
Cd377 O378 2.317 . S
O378 Cd377 2.317 . S
O378 C379 1.232 . S
C379 O378 1.232 . S
C379 O380 1.218 . S
O380 C379 1.218 . S
C381 O374 1.275 . S
C381 O376 1.255 . S
C382 O383 1.258 . S
C382 O384 1.256 . S
O383 Cd375 2.381 . S
O383 C382 1.258 . S
O384 Cd375 2.378 . S
O384 C382 1.256 . S
O385 Cd386 2.300 . S
O385 C392 1.275 . S
Cd386 O385 2.300 . S
Cd386 O394 2.381 . S
Cd386 O395 2.378 . S
O387 Cd388 2.385 . S
O387 C392 1.255 . S
Cd388 O387 2.385 . S
Cd388 O389 2.317 . S
O389 Cd388 2.317 . S
O389 C390 1.232 . S
C390 O389 1.232 . S
C390 O391 1.218 . S
O391 C390 1.218 . S
C392 O385 1.275 . S
C392 O387 1.255 . S
C393 O394 1.258 . S
C393 O395 1.256 . S
O394 Cd386 2.381 . S
O394 C393 1.258 . S
O395 Cd386 2.378 . S
O395 C393 1.256 . S
O396 Cd397 2.300 . S
O396 C403 1.275 . S
Cd397 O396 2.300 . S
Cd397 O405 2.381 . S
Cd397 O406 2.378 . S
O398 Cd399 2.385 . S
O398 C403 1.255 . S
Cd399 O398 2.385 . S
Cd399 O400 2.317 . S
O400 Cd399 2.317 . S
O400 C401 1.232 . S
C401 O400 1.232 . S
C401 O402 1.218 . S
O402 C401 1.218 . S
C403 O396 1.275 . S
C403 O398 1.255 . S
C404 O405 1.258 . S
C404 O406 1.256 . S
O405 Cd397 2.381 . S
O405 C404 1.258 . S
O406 Cd397 2.378 . S
O406 C404 1.256 . S
O407 Cd408 2.300 . S
O407 C414 1.275 . S
Cd408 O407 2.300 . S
Cd408 O416 2.381 . S
Cd408 O417 2.378 . S
O409 Cd410 2.385 . S
O409 C414 1.255 . S
Cd410 O409 2.385 . S
Cd410 O411 2.317 . S
O411 Cd410 2.317 . S
O411 C412 1.232 . S
C412 O411 1.232 . S
C412 O413 1.218 . S
O413 C412 1.218 . S
C414 O407 1.275 . S
C414 O409 1.255 . S
C415 O416 1.258 . S
C415 O417 1.256 . S
O416 Cd408 2.381 . S
O416 C415 1.258 . S
O417 Cd408 2.378 . S
O417 C415 1.256 . S
O418 Cd419 2.300 . S
O418 C425 1.275 . S
Cd419 O418 2.300 . S
Cd419 O427 2.381 . S
Cd419 O428 2.378 . S
O420 Cd421 2.385 . S
O420 C425 1.255 . S
Cd421 O420 2.385 . S
Cd421 O422 2.317 . S
O422 Cd421 2.317 . S
O422 C423 1.232 . S
C423 O422 1.232 . S
C423 O424 1.218 . S
O424 C423 1.218 . S
C425 O418 1.275 . S
C425 O420 1.255 . S
C426 O427 1.258 . S
C426 O428 1.256 . S
O427 Cd419 2.381 . S
O427 C426 1.258 . S
O428 Cd419 2.378 . S
O428 C426 1.256 . S
O429 Cd430 2.300 . S
O429 C436 1.275 . S
Cd430 O429 2.300 . S
Cd430 O438 2.381 . S
Cd430 O439 2.378 . S
O431 Cd432 2.385 . S
O431 C436 1.255 . S
Cd432 O431 2.385 . S
Cd432 O433 2.317 . S
O433 Cd432 2.317 . S
O433 C434 1.232 . S
C434 O433 1.232 . S
C434 O435 1.218 . S
O435 C434 1.218 . S
C436 O429 1.275 . S
C436 O431 1.255 . S
C437 O438 1.258 . S
C437 O439 1.256 . S
O438 Cd430 2.381 . S
O438 C437 1.258 . S
O439 Cd430 2.378 . S
O439 C437 1.256 . S
O440 Cd441 2.300 . S
O440 C447 1.275 . S
Cd441 O440 2.300 . S
Cd441 O449 2.381 . S
Cd441 O450 2.378 . S
O442 Cd443 2.385 . S
O442 C447 1.255 . S
Cd443 O442 2.385 . S
Cd443 O444 2.317 . S
O444 Cd443 2.317 . S
O444 C445 1.232 . S
C445 O444 1.232 . S
C445 O446 1.218 . S
O446 C445 1.218 . S
C447 O440 1.275 . S
C447 O442 1.255 . S
C448 O449 1.258 . S
C448 O450 1.256 . S
O449 Cd441 2.381 . S
O449 C448 1.258 . S
O450 Cd441 2.378 . S
O450 C448 1.256 . S
O451 Cd452 2.300 . S
O451 C458 1.275 . S
Cd452 O451 2.300 . S
Cd452 O460 2.381 . S
Cd452 O461 2.378 . S
O453 Cd454 2.385 . S
O453 C458 1.255 . S
Cd454 O453 2.385 . S
Cd454 O455 2.317 . S
O455 Cd454 2.317 . S
O455 C456 1.232 . S
C456 O455 1.232 . S
C456 O457 1.218 . S
O457 C456 1.218 . S
C458 O451 1.275 . S
C458 O453 1.255 . S
C459 O460 1.258 . S
C459 O461 1.256 . S
O460 Cd452 2.381 . S
O460 C459 1.258 . S
O461 Cd452 2.378 . S
O461 C459 1.256 . S
O462 Cd463 2.300 . S
O462 C469 1.275 . S
Cd463 O462 2.300 . S
Cd463 O471 2.381 . S
Cd463 O472 2.378 . S
O464 Cd465 2.385 . S
O464 C469 1.255 . S
Cd465 O464 2.385 . S
Cd465 O466 2.317 . S
O466 Cd465 2.317 . S
O466 C467 1.232 . S
C467 O466 1.232 . S
C467 O468 1.218 . S
O468 C467 1.218 . S
C469 O462 1.275 . S
C469 O464 1.255 . S
C470 O471 1.258 . S
C470 O472 1.256 . S
O471 Cd463 2.381 . S
O471 C470 1.258 . S
O472 Cd463 2.378 . S
O472 C470 1.256 . S
O473 Cd474 2.300 . S
O473 C480 1.275 . S
Cd474 O473 2.300 . S
Cd474 O482 2.381 . S
Cd474 O483 2.378 . S
O475 Cd476 2.385 . S
O475 C480 1.255 . S
Cd476 O475 2.385 . S
Cd476 O477 2.317 . S
O477 Cd476 2.317 . S
O477 C478 1.232 . S
C478 O477 1.232 . S
C478 O479 1.218 . S
O479 C478 1.218 . S
C480 O473 1.275 . S
C480 O475 1.255 . S
C481 O482 1.258 . S
C481 O483 1.256 . S
O482 Cd474 2.381 . S
O482 C481 1.258 . S
O483 Cd474 2.378 . S
O483 C481 1.256 . S
O484 Cd485 2.300 . S
O484 C491 1.275 . S
Cd485 O484 2.300 . S
Cd485 O493 2.381 . S
Cd485 O494 2.378 . S
O486 Cd487 2.385 . S
O486 C491 1.255 . S
Cd487 O486 2.385 . S
Cd487 O488 2.317 . S
O488 Cd487 2.317 . S
O488 C489 1.232 . S
C489 O488 1.232 . S
C489 O490 1.218 . S
O490 C489 1.218 . S
C491 O484 1.275 . S
C491 O486 1.255 . S
C492 O493 1.258 . S
C492 O494 1.256 . S
O493 Cd485 2.381 . S
O493 C492 1.258 . S
O494 Cd485 2.378 . S
O494 C492 1.256 . S
O495 Cd496 2.300 . S
O495 C502 1.275 . S
Cd496 O495 2.300 . S
Cd496 O504 2.381 . S
Cd496 O505 2.378 . S
O497 Cd498 2.385 . S
O497 C502 1.255 . S
Cd498 O497 2.385 . S
Cd498 O499 2.317 . S
O499 Cd498 2.317 . S
O499 C500 1.232 . S
C500 O499 1.232 . S
C500 O501 1.218 . S
O501 C500 1.218 . S
C502 O495 1.275 . S
C502 O497 1.255 . S
C503 O504 1.258 . S
C503 O505 1.256 . S
O504 Cd496 2.381 . S
O504 C503 1.258 . S
O505 Cd496 2.378 . S
O505 C503 1.256 . S
O506 Cd507 2.300 . S
O506 C513 1.275 . S
Cd507 O506 2.300 . S
Cd507 O515 2.381 . S
Cd507 O516 2.378 . S
O508 Cd509 2.385 . S
O508 C513 1.255 . S
Cd509 O508 2.385 . S
Cd509 O510 2.317 . S
O510 Cd509 2.317 . S
O510 C511 1.232 . S
C511 O510 1.232 . S
C511 O512 1.218 . S
O512 C511 1.218 . S
C513 O506 1.275 . S
C513 O508 1.255 . S
C514 O515 1.258 . S
C514 O516 1.256 . S
O515 Cd507 2.381 . S
O515 C514 1.258 . S
O516 Cd507 2.378 . S
O516 C514 1.256 . S
O517 Cd518 2.300 . S
O517 C524 1.275 . S
Cd518 O517 2.300 . S
Cd518 O526 2.381 . S
Cd518 O527 2.378 . S
O519 Cd520 2.385 . S
O519 C524 1.255 . S
Cd520 O519 2.385 . S
Cd520 O521 2.317 . S
O521 Cd520 2.317 . S
O521 C522 1.232 . S
C522 O521 1.232 . S
C522 O523 1.218 . S
O523 C522 1.218 . S
C524 O517 1.275 . S
C524 O519 1.255 . S
C525 O526 1.258 . S
C525 O527 1.256 . S
O526 Cd518 2.381 . S
O526 C525 1.258 . S
O527 Cd518 2.378 . S
O527 C525 1.256 . S
O528 Cd529 2.300 . S
O528 C535 1.275 . S
Cd529 O528 2.300 . S
Cd529 O537 2.381 . S
Cd529 O538 2.378 . S
O530 Cd531 2.385 . S
O530 C535 1.255 . S
Cd531 O530 2.385 . S
Cd531 O532 2.317 . S
O532 Cd531 2.317 . S
O532 C533 1.232 . S
C533 O532 1.232 . S
C533 O534 1.218 . S
O534 C533 1.218 . S
C535 O528 1.275 . S
C535 O530 1.255 . S
C536 O537 1.258 . S
C536 O538 1.256 . S
O537 Cd529 2.381 . S
O537 C536 1.258 . S
O538 Cd529 2.378 . S
O538 C536 1.256 . S
O539 Cd540 2.300 . S
O539 C546 1.275 . S
Cd540 O539 2.300 . S
Cd540 O548 2.381 . S
Cd540 O549 2.378 . S
O541 Cd542 2.385 . S
O541 C546 1.255 . S
Cd542 O541 2.385 . S
Cd542 O543 2.317 . S
O543 Cd542 2.317 . S
O543 C544 1.232 . S
C544 O543 1.232 . S
C544 O545 1.218 . S
O545 C544 1.218 . S
C546 O539 1.275 . S
C546 O541 1.255 . S
C547 O548 1.258 . S
C547 O549 1.256 . S
O548 Cd540 2.381 . S
O548 C547 1.258 . S
O549 Cd540 2.378 . S
O549 C547 1.256 . S
O550 Cd551 2.300 . S
O550 C557 1.275 . S
Cd551 O550 2.300 . S
Cd551 O559 2.381 . S
Cd551 O560 2.378 . S
O552 Cd553 2.385 . S
O552 C557 1.255 . S
Cd553 O552 2.385 . S
Cd553 O554 2.317 . S
O554 Cd553 2.317 . S
O554 C555 1.232 . S
C555 O554 1.232 . S
C555 O556 1.218 . S
O556 C555 1.218 . S
C557 O550 1.275 . S
C557 O552 1.255 . S
C558 O559 1.258 . S
C558 O560 1.256 . S
O559 Cd551 2.381 . S
O559 C558 1.258 . S
O560 Cd551 2.378 . S
O560 C558 1.256 . S
O561 Cd562 2.300 . S
O561 C568 1.275 . S
Cd562 O561 2.300 . S
Cd562 O570 2.381 . S
Cd562 O571 2.378 . S
O563 Cd564 2.385 . S
O563 C568 1.255 . S
Cd564 O563 2.385 . S
Cd564 O565 2.317 . S
O565 Cd564 2.317 . S
O565 C566 1.232 . S
C566 O565 1.232 . S
C566 O567 1.218 . S
O567 C566 1.218 . S
C568 O561 1.275 . S
C568 O563 1.255 . S
C569 O570 1.258 . S
C569 O571 1.256 . S
O570 Cd562 2.381 . S
O570 C569 1.258 . S
O571 Cd562 2.378 . S
O571 C569 1.256 . S
O572 Cd573 2.300 . S
O572 C579 1.275 . S
Cd573 O572 2.300 . S
Cd573 O581 2.381 . S
Cd573 O582 2.378 . S
O574 Cd575 2.385 . S
O574 C579 1.255 . S
Cd575 O574 2.385 . S
Cd575 O576 2.317 . S
O576 Cd575 2.317 . S
O576 C577 1.232 . S
C577 O576 1.232 . S
C577 O578 1.218 . S
O578 C577 1.218 . S
C579 O572 1.275 . S
C579 O574 1.255 . S
C580 O581 1.258 . S
C580 O582 1.256 . S
O581 Cd573 2.381 . S
O581 C580 1.258 . S
O582 Cd573 2.378 . S
O582 C580 1.256 . S
O583 Cd584 2.300 . S
O583 C590 1.275 . S
Cd584 O583 2.300 . S
Cd584 O592 2.381 . S
Cd584 O593 2.378 . S
O585 Cd586 2.385 . S
O585 C590 1.255 . S
Cd586 O585 2.385 . S
Cd586 O587 2.317 . S
O587 Cd586 2.317 . S
O587 C588 1.232 . S
C588 O587 1.232 . S
C588 O589 1.218 . S
O589 C588 1.218 . S
C590 O583 1.275 . S
C590 O585 1.255 . S
C591 O592 1.258 . S
C591 O593 1.256 . S
O592 Cd584 2.381 . S
O592 C591 1.258 . S
O593 Cd584 2.378 . S
O593 C591 1.256 . S
O594 Cd595 2.300 . S
O594 C601 1.275 . S
Cd595 O594 2.300 . S
Cd595 O603 2.381 . S
Cd595 O604 2.378 . S
O596 Cd597 2.385 . S
O596 C601 1.255 . S
Cd597 O596 2.385 . S
Cd597 O598 2.317 . S
O598 Cd597 2.317 . S
O598 C599 1.232 . S
C599 O598 1.232 . S
C599 O600 1.218 . S
O600 C599 1.218 . S
C601 O594 1.275 . S
C601 O596 1.255 . S
C602 O603 1.258 . S
C602 O604 1.256 . S
O603 Cd595 2.381 . S
O603 C602 1.258 . S
O604 Cd595 2.378 . S
O604 C602 1.256 . S
O605 Cd606 2.300 . S
O605 C612 1.275 . S
Cd606 O605 2.300 . S
Cd606 O614 2.381 . S
Cd606 O615 2.378 . S
O607 Cd608 2.385 . S
O607 C612 1.255 . S
Cd608 O607 2.385 . S
Cd608 O609 2.317 . S
O609 Cd608 2.317 . S
O609 C610 1.232 . S
C610 O609 1.232 . S
C610 O611 1.218 . S
O611 C610 1.218 . S
C612 O605 1.275 . S
C612 O607 1.255 . S
C613 O614 1.258 . S
C613 O615 1.256 . S
O614 Cd606 2.381 . S
O614 C613 1.258 . S
O615 Cd606 2.378 . S
O615 C613 1.256 . S
O616 Cd617 2.300 . S
O616 C623 1.275 . S
Cd617 O616 2.300 . S
Cd617 O625 2.381 . S
Cd617 O626 2.378 . S
O618 Cd619 2.385 . S
O618 C623 1.255 . S
Cd619 O618 2.385 . S
Cd619 O620 2.317 . S
O620 Cd619 2.317 . S
O620 C621 1.232 . S
C621 O620 1.232 . S
C621 O622 1.218 . S
O622 C621 1.218 . S
C623 O616 1.275 . S
C623 O618 1.255 . S
C624 O625 1.258 . S
C624 O626 1.256 . S
O625 Cd617 2.381 . S
O625 C624 1.258 . S
O626 Cd617 2.378 . S
O626 C624 1.256 . S
O627 Cd628 2.300 . S
O627 C634 1.275 . S
Cd628 O627 2.300 . S
Cd628 O636 2.381 . S
Cd628 O637 2.378 . S
O629 Cd630 2.385 . S
O629 C634 1.255 . S
Cd630 O629 2.385 . S
Cd630 O631 2.317 . S
O631 Cd630 2.317 . S
O631 C632 1.232 . S
C632 O631 1.232 . S
C632 O633 1.218 . S
O633 C632 1.218 . S
C634 O627 1.275 . S
C634 O629 1.255 . S
C635 O636 1.258 . S
C635 O637 1.256 . S
O636 Cd628 2.381 . S
O636 C635 1.258 . S
O637 Cd628 2.378 . S
O637 C635 1.256 . S
O638 Cd639 2.300 . S
O638 C645 1.275 . S
Cd639 O638 2.300 . S
Cd639 O647 2.381 . S
Cd639 O648 2.378 . S
O640 Cd641 2.385 . S
O640 C645 1.255 . S
Cd641 O640 2.385 . S
Cd641 O642 2.317 . S
O642 Cd641 2.317 . S
O642 C643 1.232 . S
C643 O642 1.232 . S
C643 O644 1.218 . S
O644 C643 1.218 . S
C645 O638 1.275 . S
C645 O640 1.255 . S
C646 O647 1.258 . S
C646 O648 1.256 . S
O647 Cd639 2.381 . S
O647 C646 1.258 . S
O648 Cd639 2.378 . S
O648 C646 1.256 . S
O649 Cd650 2.300 . S
O649 C656 1.275 . S
Cd650 O649 2.300 . S
Cd650 O658 2.381 . S
Cd650 O659 2.378 . S
O651 Cd652 2.385 . S
O651 C656 1.255 . S
Cd652 O651 2.385 . S
Cd652 O653 2.317 . S
O653 Cd652 2.317 . S
O653 C654 1.232 . S
C654 O653 1.232 . S
C654 O655 1.218 . S
O655 C654 1.218 . S
C656 O649 1.275 . S
C656 O651 1.255 . S
C657 O658 1.258 . S
C657 O659 1.256 . S
O658 Cd650 2.381 . S
O658 C657 1.258 . S
O659 Cd650 2.378 . S
O659 C657 1.256 . S
O660 Cd661 2.300 . S
O660 C667 1.275 . S
Cd661 O660 2.300 . S
Cd661 O669 2.381 . S
Cd661 O670 2.378 . S
O662 Cd663 2.385 . S
O662 C667 1.255 . S
Cd663 O662 2.385 . S
Cd663 O664 2.317 . S
O664 Cd663 2.317 . S
O664 C665 1.232 . S
C665 O664 1.232 . S
C665 O666 1.218 . S
O666 C665 1.218 . S
C667 O660 1.275 . S
C667 O662 1.255 . S
C668 O669 1.258 . S
C668 O670 1.256 . S
O669 Cd661 2.381 . S
O669 C668 1.258 . S
O670 Cd661 2.378 . S
O670 C668 1.256 . S
O671 Cd672 2.300 . S
O671 C678 1.275 . S
Cd672 O671 2.300 . S
Cd672 O680 2.381 . S
Cd672 O681 2.378 . S
O673 Cd674 2.385 . S
O673 C678 1.255 . S
Cd674 O673 2.385 . S
Cd674 O675 2.317 . S
O675 Cd674 2.317 . S
O675 C676 1.232 . S
C676 O675 1.232 . S
C676 O677 1.218 . S
O677 C676 1.218 . S
C678 O671 1.275 . S
C678 O673 1.255 . S
C679 O680 1.258 . S
C679 O681 1.256 . S
O680 Cd672 2.381 . S
O680 C679 1.258 . S
O681 Cd672 2.378 . S
O681 C679 1.256 . S
O682 Cd683 2.300 . S
O682 C689 1.275 . S
Cd683 O682 2.300 . S
Cd683 O691 2.381 . S
Cd683 O692 2.378 . S
O684 Cd685 2.385 . S
O684 C689 1.255 . S
Cd685 O684 2.385 . S
Cd685 O686 2.317 . S
O686 Cd685 2.317 . S
O686 C687 1.232 . S
C687 O686 1.232 . S
C687 O688 1.218 . S
O688 C687 1.218 . S
C689 O682 1.275 . S
C689 O684 1.255 . S
C690 O691 1.258 . S
C690 O692 1.256 . S
O691 Cd683 2.381 . S
O691 C690 1.258 . S
O692 Cd683 2.378 . S
O692 C690 1.256 . S
O693 Cd694 2.300 . S
O693 C700 1.275 . S
Cd694 O693 2.300 . S
Cd694 O702 2.381 . S
Cd694 O703 2.378 . S
O695 Cd696 2.385 . S
O695 C700 1.255 . S
Cd696 O695 2.385 . S
Cd696 O697 2.317 . S
O697 Cd696 2.317 . S
O697 C698 1.232 . S
C698 O697 1.232 . S
C698 O699 1.218 . S
O699 C698 1.218 . S
C700 O693 1.275 . S
C700 O695 1.255 . S
C701 O702 1.258 . S
C701 O703 1.256 . S
O702 Cd694 2.381 . S
O702 C701 1.258 . S
O703 Cd694 2.378 . S
O703 C701 1.256 . S
O704 Cd705 2.300 . S
O704 C711 1.275 . S
Cd705 O704 2.300 . S
Cd705 O713 2.381 . S
Cd705 O714 2.378 . S
O706 Cd707 2.385 . S
O706 C711 1.255 . S
Cd707 O706 2.385 . S
Cd707 O708 2.317 . S
O708 Cd707 2.317 . S
O708 C709 1.232 . S
C709 O708 1.232 . S
C709 O710 1.218 . S
O710 C709 1.218 . S
C711 O704 1.275 . S
C711 O706 1.255 . S
C712 O713 1.258 . S
C712 O714 1.256 . S
O713 Cd705 2.381 . S
O713 C712 1.258 . S
O714 Cd705 2.378 . S
O714 C712 1.256 . S
O715 Cd716 2.300 . S
O715 C722 1.275 . S
Cd716 O715 2.300 . S
Cd716 O724 2.381 . S
Cd716 O725 2.378 . S
O717 Cd718 2.385 . S
O717 C722 1.255 . S
Cd718 O717 2.385 . S
Cd718 O719 2.317 . S
O719 Cd718 2.317 . S
O719 C720 1.232 . S
C720 O719 1.232 . S
C720 O721 1.218 . S
O721 C720 1.218 . S
C722 O715 1.275 . S
C722 O717 1.255 . S
C723 O724 1.258 . S
C723 O725 1.256 . S
O724 Cd716 2.381 . S
O724 C723 1.258 . S
O725 Cd716 2.378 . S
O725 C723 1.256 . S
O726 Cd727 2.300 . S
O726 C733 1.275 . S
Cd727 O726 2.300 . S
Cd727 O735 2.381 . S
Cd727 O736 2.378 . S
O728 Cd729 2.385 . S
O728 C733 1.255 . S
Cd729 O728 2.385 . S
Cd729 O730 2.317 . S
O730 Cd729 2.317 . S
O730 C731 1.232 . S
C731 O730 1.232 . S
C731 O732 1.218 . S
O732 C731 1.218 . S
C733 O726 1.275 . S
C733 O728 1.255 . S
C734 O735 1.258 . S
C734 O736 1.256 . S
O735 Cd727 2.381 . S
O735 C734 1.258 . S
O736 Cd727 2.378 . S
O736 C734 1.256 . S
O737 Cd738 2.300 . S
O737 C744 1.275 . S
Cd738 O737 2.300 . S
Cd738 O746 2.381 . S
Cd738 O747 2.378 . S
O739 Cd740 2.385 . S
O739 C744 1.255 . S
Cd740 O739 2.385 . S
Cd740 O741 2.317 . S
O741 Cd740 2.317 . S
O741 C742 1.232 . S
C742 O741 1.232 . S
C742 O743 1.218 . S
O743 C742 1.218 . S
C744 O737 1.275 . S
C744 O739 1.255 . S
C745 O746 1.258 . S
C745 O747 1.256 . S
O746 Cd738 2.381 . S
O746 C745 1.258 . S
O747 Cd738 2.378 . S
O747 C745 1.256 . S
O748 Cd749 2.300 . S
O748 C755 1.275 . S
Cd749 O748 2.300 . S
Cd749 O757 2.381 . S
Cd749 O758 2.378 . S
O750 Cd751 2.385 . S
O750 C755 1.255 . S
Cd751 O750 2.385 . S
Cd751 O752 2.317 . S
O752 Cd751 2.317 . S
O752 C753 1.232 . S
C753 O752 1.232 . S
C753 O754 1.218 . S
O754 C753 1.218 . S
C755 O748 1.275 . S
C755 O750 1.255 . S
C756 O757 1.258 . S
C756 O758 1.256 . S
O757 Cd749 2.381 . S
O757 C756 1.258 . S
O758 Cd749 2.378 . S
O758 C756 1.256 . S
O759 Cd760 2.300 . S
O759 C766 1.275 . S
Cd760 O759 2.300 . S
Cd760 O768 2.381 . S
Cd760 O769 2.378 . S
O761 Cd762 2.385 . S
O761 C766 1.255 . S
Cd762 O761 2.385 . S
Cd762 O763 2.317 . S
O763 Cd762 2.317 . S
O763 C764 1.232 . S
C764 O763 1.232 . S
C764 O765 1.218 . S
O765 C764 1.218 . S
C766 O759 1.275 . S
C766 O761 1.255 . S
C767 O768 1.258 . S
C767 O769 1.256 . S
O768 Cd760 2.381 . S
O768 C767 1.258 . S
O769 Cd760 2.378 . S
O769 C767 1.256 . S
O770 Cd771 2.300 . S
O770 C777 1.275 . S
Cd771 O770 2.300 . S
Cd771 O779 2.381 . S
Cd771 O780 2.378 . S
O772 Cd773 2.385 . S
O772 C777 1.255 . S
Cd773 O772 2.385 . S
Cd773 O774 2.317 . S
O774 Cd773 2.317 . S
O774 C775 1.232 . S
C775 O774 1.232 . S
C775 O776 1.218 . S
O776 C775 1.218 . S
C777 O770 1.275 . S
C777 O772 1.255 . S
C778 O779 1.258 . S
C778 O780 1.256 . S
O779 Cd771 2.381 . S
O779 C778 1.258 . S
O780 Cd771 2.378 . S
O780 C778 1.256 . S
O781 Cd782 2.300 . S
O781 C788 1.275 . S
Cd782 O781 2.300 . S
Cd782 O790 2.381 . S
Cd782 O791 2.378 . S
O783 Cd784 2.385 . S
O783 C788 1.255 . S
Cd784 O783 2.385 . S
Cd784 O785 2.317 . S
O785 Cd784 2.317 . S
O785 C786 1.232 . S
C786 O785 1.232 . S
C786 O787 1.218 . S
O787 C786 1.218 . S
C788 O781 1.275 . S
C788 O783 1.255 . S
C789 O790 1.258 . S
C789 O791 1.256 . S
O790 Cd782 2.381 . S
O790 C789 1.258 . S
O791 Cd782 2.378 . S
O791 C789 1.256 . S
O792 Cd793 2.300 . S
O792 C799 1.275 . S
Cd793 O792 2.300 . S
Cd793 O801 2.381 . S
Cd793 O802 2.378 . S
O794 Cd795 2.385 . S
O794 C799 1.255 . S
Cd795 O794 2.385 . S
Cd795 O796 2.317 . S
O796 Cd795 2.317 . S
O796 C797 1.232 . S
C797 O796 1.232 . S
C797 O798 1.218 . S
O798 C797 1.218 . S
C799 O792 1.275 . S
C799 O794 1.255 . S
C800 O801 1.258 . S
C800 O802 1.256 . S
O801 Cd793 2.381 . S
O801 C800 1.258 . S
O802 Cd793 2.378 . S
O802 C800 1.256 . S
O803 Cd804 2.300 . S
O803 C810 1.275 . S
Cd804 O803 2.300 . S
Cd804 O812 2.381 . S
Cd804 O813 2.378 . S
O805 Cd806 2.385 . S
O805 C810 1.255 . S
Cd806 O805 2.385 . S
Cd806 O807 2.317 . S
O807 Cd806 2.317 . S
O807 C808 1.232 . S
C808 O807 1.232 . S
C808 O809 1.218 . S
O809 C808 1.218 . S
C810 O803 1.275 . S
C810 O805 1.255 . S
C811 O812 1.258 . S
C811 O813 1.256 . S
O812 Cd804 2.381 . S
O812 C811 1.258 . S
O813 Cd804 2.378 . S
O813 C811 1.256 . S
O814 Cd815 2.300 . S
O814 C821 1.275 . S
Cd815 O814 2.300 . S
Cd815 O823 2.381 . S
Cd815 O824 2.378 . S
O816 Cd817 2.385 . S
O816 C821 1.255 . S
Cd817 O816 2.385 . S
Cd817 O818 2.317 . S
O818 Cd817 2.317 . S
O818 C819 1.232 . S
C819 O818 1.232 . S
C819 O820 1.218 . S
O820 C819 1.218 . S
C821 O814 1.275 . S
C821 O816 1.255 . S
C822 O823 1.258 . S
C822 O824 1.256 . S
O823 Cd815 2.381 . S
O823 C822 1.258 . S
O824 Cd815 2.378 . S
O824 C822 1.256 . S
O825 Cd826 2.300 . S
O825 C832 1.275 . S
Cd826 O825 2.300 . S
Cd826 O834 2.381 . S
Cd826 O835 2.378 . S
O827 Cd828 2.385 . S
O827 C832 1.255 . S
Cd828 O827 2.385 . S
Cd828 O829 2.317 . S
O829 Cd828 2.317 . S
O829 C830 1.232 . S
C830 O829 1.232 . S
C830 O831 1.218 . S
O831 C830 1.218 . S
C832 O825 1.275 . S
C832 O827 1.255 . S
C833 O834 1.258 . S
C833 O835 1.256 . S
O834 Cd826 2.381 . S
O834 C833 1.258 . S
O835 Cd826 2.378 . S
O835 C833 1.256 . S
O836 Cd837 2.300 . S
O836 C843 1.275 . S
Cd837 O836 2.300 . S
Cd837 O845 2.381 . S
Cd837 O846 2.378 . S
O838 Cd839 2.385 . S
O838 C843 1.255 . S
Cd839 O838 2.385 . S
Cd839 O840 2.317 . S
O840 Cd839 2.317 . S
O840 C841 1.232 . S
C841 O840 1.232 . S
C841 O842 1.218 . S
O842 C841 1.218 . S
C843 O836 1.275 . S
C843 O838 1.255 . S
C844 O845 1.258 . S
C844 O846 1.256 . S
O845 Cd837 2.381 . S
O845 C844 1.258 . S
O846 Cd837 2.378 . S
O846 C844 1.256 . S
O847 Cd848 2.300 . S
O847 C854 1.275 . S
Cd848 O847 2.300 . S
Cd848 O856 2.381 . S
Cd848 O857 2.378 . S
O849 Cd850 2.385 . S
O849 C854 1.255 . S
Cd850 O849 2.385 . S
Cd850 O851 2.317 . S
O851 Cd850 2.317 . S
O851 C852 1.232 . S
C852 O851 1.232 . S
C852 O853 1.218 . S
O853 C852 1.218 . S
C854 O847 1.275 . S
C854 O849 1.255 . S
C855 O856 1.258 . S
C855 O857 1.256 . S
O856 Cd848 2.381 . S
O856 C855 1.258 . S
O857 Cd848 2.378 . S
O857 C855 1.256 . S
O858 Cd859 2.300 . S
O858 C865 1.275 . S
Cd859 O858 2.300 . S
Cd859 O867 2.381 . S
Cd859 O868 2.378 . S
O860 Cd861 2.385 . S
O860 C865 1.255 . S
Cd861 O860 2.385 . S
Cd861 O862 2.317 . S
O862 Cd861 2.317 . S
O862 C863 1.232 . S
C863 O862 1.232 . S
C863 O864 1.218 . S
O864 C863 1.218 . S
C865 O858 1.275 . S
C865 O860 1.255 . S
C866 O867 1.258 . S
C866 O868 1.256 . S
O867 Cd859 2.381 . S
O867 C866 1.258 . S
O868 Cd859 2.378 . S
O868 C866 1.256 . S
O869 Cd870 2.300 . S
O869 C876 1.275 . S
Cd870 O869 2.300 . S
Cd870 O878 2.381 . S
Cd870 O879 2.378 . S
O871 Cd872 2.385 . S
O871 C876 1.255 . S
Cd872 O871 2.385 . S
Cd872 O873 2.317 . S
O873 Cd872 2.317 . S
O873 C874 1.232 . S
C874 O873 1.232 . S
C874 O875 1.218 . S
O875 C874 1.218 . S
C876 O869 1.275 . S
C876 O871 1.255 . S
C877 O878 1.258 . S
C877 O879 1.256 . S
O878 Cd870 2.381 . S
O878 C877 1.258 . S
O879 Cd870 2.378 . S
O879 C877 1.256 . S
O880 Cd881 2.300 . S
O880 C887 1.275 . S
Cd881 O880 2.300 . S
Cd881 O889 2.381 . S
Cd881 O890 2.378 . S
O882 Cd883 2.385 . S
O882 C887 1.255 . S
Cd883 O882 2.385 . S
Cd883 O884 2.317 . S
O884 Cd883 2.317 . S
O884 C885 1.232 . S
C885 O884 1.232 . S
C885 O886 1.218 . S
O886 C885 1.218 . S
C887 O880 1.275 . S
C887 O882 1.255 . S
C888 O889 1.258 . S
C888 O890 1.256 . S
O889 Cd881 2.381 . S
O889 C888 1.258 . S
O890 Cd881 2.378 . S
O890 C888 1.256 . S
O891 Cd892 2.300 . S
O891 C898 1.275 . S
Cd892 O891 2.300 . S
Cd892 O900 2.381 . S
Cd892 O901 2.378 . S
O893 Cd894 2.385 . S
O893 C898 1.255 . S
Cd894 O893 2.385 . S
Cd894 O895 2.317 . S
O895 Cd894 2.317 . S
O895 C896 1.232 . S
C896 O895 1.232 . S
C896 O897 1.218 . S
O897 C896 1.218 . S
C898 O891 1.275 . S
C898 O893 1.255 . S
C899 O900 1.258 . S
C899 O901 1.256 . S
O900 Cd892 2.381 . S
O900 C899 1.258 . S
O901 Cd892 2.378 . S
O901 C899 1.256 . S
O902 Cd903 2.300 . S
O902 C909 1.275 . S
Cd903 O902 2.300 . S
Cd903 O911 2.381 . S
Cd903 O912 2.378 . S
O904 Cd905 2.385 . S
O904 C909 1.255 . S
Cd905 O904 2.385 . S
Cd905 O906 2.317 . S
O906 Cd905 2.317 . S
O906 C907 1.232 . S
C907 O906 1.232 . S
C907 O908 1.218 . S
O908 C907 1.218 . S
C909 O902 1.275 . S
C909 O904 1.255 . S
C910 O911 1.258 . S
C910 O912 1.256 . S
O911 Cd903 2.381 . S
O911 C910 1.258 . S
O912 Cd903 2.378 . S
O912 C910 1.256 . S
O913 Cd914 2.300 . S
O913 C920 1.275 . S
Cd914 O913 2.300 . S
Cd914 O922 2.381 . S
Cd914 O923 2.378 . S
O915 Cd916 2.385 . S
O915 C920 1.255 . S
Cd916 O915 2.385 . S
Cd916 O917 2.317 . S
O917 Cd916 2.317 . S
O917 C918 1.232 . S
C918 O917 1.232 . S
C918 O919 1.218 . S
O919 C918 1.218 . S
C920 O913 1.275 . S
C920 O915 1.255 . S
C921 O922 1.258 . S
C921 O923 1.256 . S
O922 Cd914 2.381 . S
O922 C921 1.258 . S
O923 Cd914 2.378 . S
O923 C921 1.256 . S
O924 Cd925 2.300 . S
O924 C931 1.275 . S
Cd925 O924 2.300 . S
Cd925 O933 2.381 . S
Cd925 O934 2.378 . S
O926 Cd927 2.385 . S
O926 C931 1.255 . S
Cd927 O926 2.385 . S
Cd927 O928 2.317 . S
O928 Cd927 2.317 . S
O928 C929 1.232 . S
C929 O928 1.232 . S
C929 O930 1.218 . S
O930 C929 1.218 . S
C931 O924 1.275 . S
C931 O926 1.255 . S
C932 O933 1.258 . S
C932 O934 1.256 . S
O933 Cd925 2.381 . S
O933 C932 1.258 . S
O934 Cd925 2.378 . S
O934 C932 1.256 . S
O935 Cd936 2.300 . S
O935 C942 1.275 . S
Cd936 O935 2.300 . S
Cd936 O944 2.381 . S
Cd936 O945 2.378 . S
O937 Cd938 2.385 . S
O937 C942 1.255 . S
Cd938 O937 2.385 . S
Cd938 O939 2.317 . S
O939 Cd938 2.317 . S
O939 C940 1.232 . S
C940 O939 1.232 . S
C940 O941 1.218 . S
O941 C940 1.218 . S
C942 O935 1.275 . S
C942 O937 1.255 . S
C943 O944 1.258 . S
C943 O945 1.256 . S
O944 Cd936 2.381 . S
O944 C943 1.258 . S
O945 Cd936 2.378 . S
O945 C943 1.256 . S
O946 Cd947 2.300 . S
O946 C953 1.275 . S
Cd947 O946 2.300 . S
Cd947 O955 2.381 . S
Cd947 O956 2.378 . S
O948 Cd949 2.385 . S
O948 C953 1.255 . S
Cd949 O948 2.385 . S
Cd949 O950 2.317 . S
O950 Cd949 2.317 . S
O950 C951 1.232 . S
C951 O950 1.232 . S
C951 O952 1.218 . S
O952 C951 1.218 . S
C953 O946 1.275 . S
C953 O948 1.255 . S
C954 O955 1.258 . S
C954 O956 1.256 . S
O955 Cd947 2.381 . S
O955 C954 1.258 . S
O956 Cd947 2.378 . S
O956 C954 1.256 . S
O957 Cd958 2.300 . S
O957 C964 1.275 . S
Cd958 O957 2.300 . S
Cd958 O966 2.381 . S
Cd958 O967 2.378 . S
O959 Cd960 2.385 . S
O959 C964 1.255 . S
Cd960 O959 2.385 . S
Cd960 O961 2.317 . S
O961 Cd960 2.317 . S
O961 C962 1.232 . S
C962 O961 1.232 . S
C962 O963 1.218 . S
O963 C962 1.218 . S
C964 O957 1.275 . S
C964 O959 1.255 . S
C965 O966 1.258 . S
C965 O967 1.256 . S
O966 Cd958 2.381 . S
O966 C965 1.258 . S
O967 Cd958 2.378 . S
O967 C965 1.256 . S
O968 Cd969 2.300 . S
O968 C975 1.275 . S
Cd969 O968 2.300 . S
Cd969 O977 2.381 . S
Cd969 O978 2.378 . S
O970 Cd971 2.385 . S
O970 C975 1.255 . S
Cd971 O970 2.385 . S
Cd971 O972 2.317 . S
O972 Cd971 2.317 . S
O972 C973 1.232 . S
C973 O972 1.232 . S
C973 O974 1.218 . S
O974 C973 1.218 . S
C975 O968 1.275 . S
C975 O970 1.255 . S
C976 O977 1.258 . S
C976 O978 1.256 . S
O977 Cd969 2.381 . S
O977 C976 1.258 . S
O978 Cd969 2.378 . S
O978 C976 1.256 . S
O979 Cd980 2.300 . S
O979 C986 1.275 . S
Cd980 O979 2.300 . S
Cd980 O988 2.381 . S
Cd980 O989 2.378 . S
O981 Cd982 2.385 . S
O981 C986 1.255 . S
Cd982 O981 2.385 . S
Cd982 O983 2.317 . S
O983 Cd982 2.317 . S
O983 C984 1.232 . S
C984 O983 1.232 . S
C984 O985 1.218 . S
O985 C984 1.218 . S
C986 O979 1.275 . S
C986 O981 1.255 . S
C987 O988 1.258 . S
C987 O989 1.256 . S
O988 Cd980 2.381 . S
O988 C987 1.258 . S
O989 Cd980 2.378 . S
O989 C987 1.256 . S
O990 Cd991 2.300 . S
O990 C997 1.275 . S
Cd991 O990 2.300 . S
Cd991 O999 2.381 . S
Cd991 O1000 2.378 . S
O992 Cd993 2.385 . S
O992 C997 1.255 . S
Cd993 O992 2.385 . S
Cd993 O994 2.317 . S
O994 Cd993 2.317 . S
O994 C995 1.232 . S
C995 O994 1.232 . S
C995 O996 1.218 . S
O996 C995 1.218 . S
C997 O990 1.275 . S
C997 O992 1.255 . S
C998 O999 1.258 . S
C998 O1000 1.256 . S
O999 Cd991 2.381 . S
O999 C998 1.258 . S
O1000 Cd991 2.378 . S
O1000 C998 1.256 . S
O1001 Cd1002 2.300 . S
O1001 C1008 1.275 . S
Cd1002 O1001 2.300 . S
Cd1002 O1010 2.381 . S
Cd1002 O1011 2.378 . S
O1003 Cd1004 2.385 . S
O1003 C1008 1.255 . S
Cd1004 O1003 2.385 . S
Cd1004 O1005 2.317 . S
O1005 Cd1004 2.317 . S
O1005 C1006 1.232 . S
C1006 O1005 1.232 . S
C1006 O1007 1.218 . S
O1007 C1006 1.218 . S
C1008 O1001 1.275 . S
C1008 O1003 1.255 . S
C1009 O1010 1.258 . S
C1009 O1011 1.256 . S
O1010 Cd1002 2.381 . S
O1010 C1009 1.258 . S
O1011 Cd1002 2.378 . S
O1011 C1009 1.256 . S
O1012 Cd1013 2.300 . S
O1012 C1019 1.275 . S
Cd1013 O1012 2.300 . S
Cd1013 O1021 2.381 . S
Cd1013 O1022 2.378 . S
O1014 Cd1015 2.385 . S
O1014 C1019 1.255 . S
Cd1015 O1014 2.385 . S
Cd1015 O1016 2.317 . S
O1016 Cd1015 2.317 . S
O1016 C1017 1.232 . S
C1017 O1016 1.232 . S
C1017 O1018 1.218 . S
O1018 C1017 1.218 . S
C1019 O1012 1.275 . S
C1019 O1014 1.255 . S
C1020 O1021 1.258 . S
C1020 O1022 1.256 . S
O1021 Cd1013 2.381 . S
O1021 C1020 1.258 . S
O1022 Cd1013 2.378 . S
O1022 C1020 1.256 . S
O1023 Cd1024 2.300 . S
O1023 C1030 1.275 . S
Cd1024 O1023 2.300 . S
Cd1024 O1032 2.381 . S
Cd1024 O1033 2.378 . S
O1025 Cd1026 2.385 . S
O1025 C1030 1.255 . S
Cd1026 O1025 2.385 . S
Cd1026 O1027 2.317 . S
O1027 Cd1026 2.317 . S
O1027 C1028 1.232 . S
C1028 O1027 1.232 . S
C1028 O1029 1.218 . S
O1029 C1028 1.218 . S
C1030 O1023 1.275 . S
C1030 O1025 1.255 . S
C1031 O1032 1.258 . S
C1031 O1033 1.256 . S
O1032 Cd1024 2.381 . S
O1032 C1031 1.258 . S
O1033 Cd1024 2.378 . S
O1033 C1031 1.256 . S
O1034 Cd1035 2.300 . S
O1034 C1041 1.275 . S
Cd1035 O1034 2.300 . S
Cd1035 O1043 2.381 . S
Cd1035 O1044 2.378 . S
O1036 Cd1037 2.385 . S
O1036 C1041 1.255 . S
Cd1037 O1036 2.385 . S
Cd1037 O1038 2.317 . S
O1038 Cd1037 2.317 . S
O1038 C1039 1.232 . S
C1039 O1038 1.232 . S
C1039 O1040 1.218 . S
O1040 C1039 1.218 . S
C1041 O1034 1.275 . S
C1041 O1036 1.255 . S
C1042 O1043 1.258 . S
C1042 O1044 1.256 . S
O1043 Cd1035 2.381 . S
O1043 C1042 1.258 . S
O1044 Cd1035 2.378 . S
O1044 C1042 1.256 . S
O1045 Cd1046 2.300 . S
O1045 C1052 1.275 . S
Cd1046 O1045 2.300 . S
Cd1046 O1054 2.381 . S
Cd1046 O1055 2.378 . S
O1047 Cd1048 2.385 . S
O1047 C1052 1.255 . S
Cd1048 O1047 2.385 . S
Cd1048 O1049 2.317 . S
O1049 Cd1048 2.317 . S
O1049 C1050 1.232 . S
C1050 O1049 1.232 . S
C1050 O1051 1.218 . S
O1051 C1050 1.218 . S
C1052 O1045 1.275 . S
C1052 O1047 1.255 . S
C1053 O1054 1.258 . S
C1053 O1055 1.256 . S
O1054 Cd1046 2.381 . S
O1054 C1053 1.258 . S
O1055 Cd1046 2.378 . S
O1055 C1053 1.256 . S
C1056 C1057 1.386 . S
C1056 C1058 1.397 . S
C1056 H1080 0.931 . S
C1057 C1056 1.386 . S
C1057 C1061 1.397 . S
C1058 C1056 1.397 . S
C1058 C1059 1.384 . S
C1058 H1081 0.930 . S
C1059 C1058 1.384 . S
C1059 C1060 1.377 . S
C1059 C1062 1.481 . S
C1060 C1059 1.377 . S
C1060 C1061 1.389 . S
C1060 H1082 0.929 . S
C1061 C1057 1.397 . S
C1061 C1060 1.389 . S
C1061 H1083 0.931 . S
C1062 C1059 1.481 . S
C1062 C1063 1.387 . S
C1062 C1067 1.390 . S
C1063 C1062 1.387 . S
C1063 C1064 1.401 . S
C1063 H1084 0.930 . S
C1064 C1063 1.401 . S
C1064 C1065 1.376 . S
C1064 C1073 1.511 . S
C1065 C1064 1.376 . S
C1065 C1066 1.392 . S
C1065 H1086 0.931 . S
C1066 C1065 1.392 . S
C1066 C1067 1.361 . S
C1066 C1068 1.500 . S
C1067 C1062 1.390 . S
C1067 C1066 1.361 . S
C1067 H1085 0.931 . S
C1068 C1066 1.500 . S
C1068 C1069 1.371 . S
C1068 C1070 1.365 . S
C1069 C1068 1.371 . S
C1069 C1079 1.386 . S
C1069 H1087 0.931 . S
C1070 C1068 1.365 . S
C1070 C1071 1.409 . S
C1070 H1088 0.929 . S
C1071 C1070 1.409 . S
C1071 C1072 1.380 . S
C1071 H1089 0.930 . S
C1072 C1071 1.380 . S
C1072 C1079 1.357 . S
C1073 C1064 1.511 . S
C1073 C1074 1.341 . S
C1073 C1075 1.371 . S
C1074 C1073 1.341 . S
C1074 C1078 1.394 . S
C1074 H1090 0.930 . S
C1075 C1073 1.371 . S
C1075 C1076 1.392 . S
C1075 H1091 0.931 . S
C1076 C1075 1.392 . S
C1076 C1077 1.331 . S
C1076 H1094 0.932 . S
C1077 C1076 1.331 . S
C1077 C1078 1.336 . S
C1078 C1074 1.394 . S
C1078 C1077 1.336 . S
C1078 H1093 0.929 . S
C1079 C1069 1.386 . S
C1079 C1072 1.357 . S
C1079 H1092 0.928 . S
H1080 C1056 0.931 . S
H1081 C1058 0.930 . S
H1082 C1060 0.929 . S
H1083 C1061 0.931 . S
H1084 C1063 0.930 . S
H1085 C1067 0.931 . S
H1086 C1065 0.931 . S
H1087 C1069 0.931 . S
H1088 C1070 0.929 . S
H1089 C1071 0.930 . S
H1090 C1074 0.930 . S
H1091 C1075 0.931 . S
H1092 C1079 0.928 . S
H1093 C1078 0.929 . S
H1094 C1076 0.932 . S
C1095 C1096 1.386 . S
C1095 C1097 1.397 . S
C1095 H1119 0.931 . S
C1096 C1095 1.386 . S
C1096 C1100 1.397 . S
C1097 C1095 1.397 . S
C1097 C1098 1.384 . S
C1097 H1120 0.930 . S
C1098 C1097 1.384 . S
C1098 C1099 1.377 . S
C1098 C1101 1.481 . S
C1099 C1098 1.377 . S
C1099 C1100 1.389 . S
C1099 H1121 0.929 . S
C1100 C1096 1.397 . S
C1100 C1099 1.389 . S
C1100 H1122 0.931 . S
C1101 C1098 1.481 . S
C1101 C1102 1.387 . S
C1101 C1106 1.390 . S
C1102 C1101 1.387 . S
C1102 C1103 1.401 . S
C1102 H1123 0.930 . S
C1103 C1102 1.401 . S
C1103 C1104 1.376 . S
C1103 C1112 1.511 . S
C1104 C1103 1.376 . S
C1104 C1105 1.392 . S
C1104 H1125 0.931 . S
C1105 C1104 1.392 . S
C1105 C1106 1.361 . S
C1105 C1107 1.500 . S
C1106 C1101 1.390 . S
C1106 C1105 1.361 . S
C1106 H1124 0.931 . S
C1107 C1105 1.500 . S
C1107 C1108 1.371 . S
C1107 C1109 1.365 . S
C1108 C1107 1.371 . S
C1108 C1118 1.386 . S
C1108 H1126 0.931 . S
C1109 C1107 1.365 . S
C1109 C1110 1.409 . S
C1109 H1127 0.929 . S
C1110 C1109 1.409 . S
C1110 C1111 1.380 . S
C1110 H1128 0.930 . S
C1111 C1110 1.380 . S
C1111 C1118 1.357 . S
C1112 C1103 1.511 . S
C1112 C1113 1.341 . S
C1112 C1114 1.371 . S
C1113 C1112 1.341 . S
C1113 C1117 1.394 . S
C1113 H1129 0.930 . S
C1114 C1112 1.371 . S
C1114 C1115 1.392 . S
C1114 H1130 0.931 . S
C1115 C1114 1.392 . S
C1115 C1116 1.331 . S
C1115 H1133 0.932 1_455 S
C1116 C1115 1.331 . S
C1116 C1117 1.336 . S
C1117 C1113 1.394 . S
C1117 C1116 1.336 . S
C1117 H1132 0.929 . S
C1118 C1108 1.386 . S
C1118 C1111 1.357 . S
C1118 H1131 0.928 . S
H1119 C1095 0.931 . S
H1120 C1097 0.930 . S
H1121 C1099 0.929 . S
H1122 C1100 0.931 . S
H1123 C1102 0.930 . S
H1124 C1106 0.931 . S
H1125 C1104 0.931 . S
H1126 C1108 0.931 . S
H1127 C1109 0.929 . S
H1128 C1110 0.930 . S
H1129 C1113 0.930 . S
H1130 C1114 0.931 . S
H1131 C1118 0.928 . S
H1132 C1117 0.929 . S
H1133 C1115 0.932 1_655 S
C1134 C1135 1.386 . S
C1134 C1136 1.397 . S
C1134 H1158 0.931 . S
C1135 C1134 1.386 . S
C1135 C1139 1.397 . S
C1136 C1134 1.397 . S
C1136 C1137 1.384 . S
C1136 H1159 0.930 . S
C1137 C1136 1.384 . S
C1137 C1138 1.377 . S
C1137 C1140 1.481 . S
C1138 C1137 1.377 . S
C1138 C1139 1.389 . S
C1138 H1160 0.929 . S
C1139 C1135 1.397 . S
C1139 C1138 1.389 . S
C1139 H1161 0.931 . S
C1140 C1137 1.481 . S
C1140 C1141 1.387 . S
C1140 C1145 1.390 . S
C1141 C1140 1.387 . S
C1141 C1142 1.401 . S
C1141 H1162 0.930 . S
C1142 C1141 1.401 . S
C1142 C1143 1.376 . S
C1142 C1151 1.511 . S
C1143 C1142 1.376 . S
C1143 C1144 1.392 . S
C1143 H1164 0.931 . S
C1144 C1143 1.392 . S
C1144 C1145 1.361 . S
C1144 C1146 1.500 . S
C1145 C1140 1.390 . S
C1145 C1144 1.361 . S
C1145 H1163 0.931 . S
C1146 C1144 1.500 . S
C1146 C1147 1.371 . S
C1146 C1148 1.365 . S
C1147 C1146 1.371 . S
C1147 C1157 1.386 . S
C1147 H1165 0.931 . S
C1148 C1146 1.365 . S
C1148 C1149 1.409 . S
C1148 H1166 0.929 . S
C1149 C1148 1.409 . S
C1149 C1150 1.380 . S
C1149 H1167 0.930 . S
C1150 C1149 1.380 . S
C1150 C1157 1.357 . S
C1151 C1142 1.511 . S
C1151 C1152 1.341 . S
C1151 C1153 1.371 . S
C1152 C1151 1.341 . S
C1152 C1156 1.394 . S
C1152 H1168 0.930 . S
C1153 C1151 1.371 . S
C1153 C1154 1.392 . S
C1153 H1169 0.931 . S
C1154 C1153 1.392 . S
C1154 C1155 1.331 . S
C1154 H1172 0.932 . S
C1155 C1154 1.331 . S
C1155 C1156 1.336 . S
C1156 C1152 1.394 . S
C1156 C1155 1.336 . S
C1156 H1171 0.929 . S
C1157 C1147 1.386 . S
C1157 C1150 1.357 . S
C1157 H1170 0.928 . S
H1158 C1134 0.931 . S
H1159 C1136 0.930 . S
H1160 C1138 0.929 . S
H1161 C1139 0.931 . S
H1162 C1141 0.930 . S
H1163 C1145 0.931 . S
H1164 C1143 0.931 . S
H1165 C1147 0.931 . S
H1166 C1148 0.929 . S
H1167 C1149 0.930 . S
H1168 C1152 0.930 . S
H1169 C1153 0.931 . S
H1170 C1157 0.928 . S
H1171 C1156 0.929 . S
H1172 C1154 0.932 . S
C1173 C1174 1.386 . S
C1173 C1175 1.397 . S
C1173 H1197 0.931 . S
C1174 C1173 1.386 . S
C1174 C1178 1.397 . S
C1175 C1173 1.397 . S
C1175 C1176 1.384 . S
C1175 H1198 0.930 . S
C1176 C1175 1.384 . S
C1176 C1177 1.377 . S
C1176 C1179 1.481 . S
C1177 C1176 1.377 . S
C1177 C1178 1.389 . S
C1177 H1199 0.929 . S
C1178 C1174 1.397 . S
C1178 C1177 1.389 . S
C1178 H1200 0.931 . S
C1179 C1176 1.481 . S
C1179 C1180 1.387 . S
C1179 C1184 1.390 . S
C1180 C1179 1.387 . S
C1180 C1181 1.401 . S
C1180 H1201 0.930 . S
C1181 C1180 1.401 . S
C1181 C1182 1.376 . S
C1181 C1190 1.511 . S
C1182 C1181 1.376 . S
C1182 C1183 1.392 . S
C1182 H1203 0.931 . S
C1183 C1182 1.392 . S
C1183 C1184 1.361 . S
C1183 C1185 1.500 . S
C1184 C1179 1.390 . S
C1184 C1183 1.361 . S
C1184 H1202 0.931 . S
C1185 C1183 1.500 . S
C1185 C1186 1.371 . S
C1185 C1187 1.365 . S
C1186 C1185 1.371 . S
C1186 C1196 1.386 . S
C1186 H1204 0.931 . S
C1187 C1185 1.365 . S
C1187 C1188 1.409 . S
C1187 H1205 0.929 . S
C1188 C1187 1.409 . S
C1188 C1189 1.380 . S
C1188 H1206 0.930 . S
C1189 C1188 1.380 . S
C1189 C1196 1.357 . S
C1190 C1181 1.511 . S
C1190 C1191 1.341 . S
C1190 C1192 1.371 . S
C1191 C1190 1.341 . S
C1191 C1195 1.394 . S
C1191 H1207 0.930 . S
C1192 C1190 1.371 . S
C1192 C1193 1.392 . S
C1192 H1208 0.931 . S
C1193 C1192 1.392 . S
C1193 C1194 1.331 . S
C1193 H1211 0.932 . S
C1194 C1193 1.331 . S
C1194 C1195 1.336 . S
C1195 C1191 1.394 . S
C1195 C1194 1.336 . S
C1195 H1210 0.929 . S
C1196 C1186 1.386 . S
C1196 C1189 1.357 . S
C1196 H1209 0.928 . S
H1197 C1173 0.931 . S
H1198 C1175 0.930 . S
H1199 C1177 0.929 . S
H1200 C1178 0.931 . S
H1201 C1180 0.930 . S
H1202 C1184 0.931 . S
H1203 C1182 0.931 . S
H1204 C1186 0.931 . S
H1205 C1187 0.929 . S
H1206 C1188 0.930 . S
H1207 C1191 0.930 . S
H1208 C1192 0.931 . S
H1209 C1196 0.928 . S
H1210 C1195 0.929 . S
H1211 C1193 0.932 . S
C1212 C1213 1.386 . S
C1212 C1214 1.397 . S
C1212 H1236 0.931 . S
C1213 C1212 1.386 . S
C1213 C1217 1.397 . S
C1214 C1212 1.397 . S
C1214 C1215 1.384 . S
C1214 H1237 0.930 . S
C1215 C1214 1.384 . S
C1215 C1216 1.377 . S
C1215 C1218 1.481 . S
C1216 C1215 1.377 . S
C1216 C1217 1.389 . S
C1216 H1238 0.929 . S
C1217 C1213 1.397 . S
C1217 C1216 1.389 . S
C1217 H1239 0.931 . S
C1218 C1215 1.481 . S
C1218 C1219 1.387 . S
C1218 C1223 1.390 . S
C1219 C1218 1.387 . S
C1219 C1220 1.401 . S
C1219 H1240 0.930 . S
C1220 C1219 1.401 . S
C1220 C1221 1.376 . S
C1220 C1229 1.511 . S
C1221 C1220 1.376 . S
C1221 C1222 1.392 . S
C1221 H1242 0.931 . S
C1222 C1221 1.392 . S
C1222 C1223 1.361 . S
C1222 C1224 1.500 . S
C1223 C1218 1.390 . S
C1223 C1222 1.361 . S
C1223 H1241 0.931 . S
C1224 C1222 1.500 . S
C1224 C1225 1.371 . S
C1224 C1226 1.365 . S
C1225 C1224 1.371 . S
C1225 C1235 1.386 . S
C1225 H1243 0.931 . S
C1226 C1224 1.365 . S
C1226 C1227 1.409 . S
C1226 H1244 0.929 . S
C1227 C1226 1.409 . S
C1227 C1228 1.380 . S
C1227 H1245 0.930 . S
C1228 C1227 1.380 . S
C1228 C1235 1.357 . S
C1229 C1220 1.511 . S
C1229 C1230 1.341 . S
C1229 C1231 1.371 . S
C1230 C1229 1.341 . S
C1230 C1234 1.394 . S
C1230 H1246 0.930 . S
C1231 C1229 1.371 . S
C1231 C1232 1.392 . S
C1231 H1247 0.931 . S
C1232 C1231 1.392 . S
C1232 C1233 1.331 . S
C1232 H1250 0.932 . S
C1233 C1232 1.331 . S
C1233 C1234 1.336 . S
C1234 C1230 1.394 . S
C1234 C1233 1.336 . S
C1234 H1249 0.929 . S
C1235 C1225 1.386 . S
C1235 C1228 1.357 . S
C1235 H1248 0.928 . S
H1236 C1212 0.931 . S
H1237 C1214 0.930 . S
H1238 C1216 0.929 . S
H1239 C1217 0.931 . S
H1240 C1219 0.930 . S
H1241 C1223 0.931 . S
H1242 C1221 0.931 . S
H1243 C1225 0.931 . S
H1244 C1226 0.929 . S
H1245 C1227 0.930 . S
H1246 C1230 0.930 . S
H1247 C1231 0.931 . S
H1248 C1235 0.928 . S
H1249 C1234 0.929 . S
H1250 C1232 0.932 . S
C1251 C1252 1.386 . S
C1251 C1253 1.397 . S
C1251 H1275 0.931 . S
C1252 C1251 1.386 . S
C1252 C1256 1.397 . S
C1253 C1251 1.397 . S
C1253 C1254 1.384 . S
C1253 H1276 0.930 . S
C1254 C1253 1.384 . S
C1254 C1255 1.377 . S
C1254 C1257 1.481 . S
C1255 C1254 1.377 . S
C1255 C1256 1.389 . S
C1255 H1277 0.929 . S
C1256 C1252 1.397 . S
C1256 C1255 1.389 . S
C1256 H1278 0.931 . S
C1257 C1254 1.481 . S
C1257 C1258 1.387 . S
C1257 C1262 1.390 . S
C1258 C1257 1.387 . S
C1258 C1259 1.401 . S
C1258 H1279 0.930 . S
C1259 C1258 1.401 . S
C1259 C1260 1.376 . S
C1259 C1268 1.511 . S
C1260 C1259 1.376 . S
C1260 C1261 1.392 . S
C1260 H1281 0.931 . S
C1261 C1260 1.392 . S
C1261 C1262 1.361 . S
C1261 C1263 1.500 . S
C1262 C1257 1.390 . S
C1262 C1261 1.361 . S
C1262 H1280 0.931 . S
C1263 C1261 1.500 . S
C1263 C1264 1.371 . S
C1263 C1265 1.365 . S
C1264 C1263 1.371 . S
C1264 C1274 1.386 . S
C1264 H1282 0.931 . S
C1265 C1263 1.365 . S
C1265 C1266 1.409 . S
C1265 H1283 0.929 . S
C1266 C1265 1.409 . S
C1266 C1267 1.380 . S
C1266 H1284 0.930 . S
C1267 C1266 1.380 . S
C1267 C1274 1.357 . S
C1268 C1259 1.511 . S
C1268 C1269 1.341 . S
C1268 C1270 1.371 . S
C1269 C1268 1.341 . S
C1269 C1273 1.394 . S
C1269 H1285 0.930 . S
C1270 C1268 1.371 . S
C1270 C1271 1.392 . S
C1270 H1286 0.931 . S
C1271 C1270 1.392 . S
C1271 C1272 1.331 . S
C1271 H1289 0.932 . S
C1272 C1271 1.331 . S
C1272 C1273 1.336 . S
C1273 C1269 1.394 . S
C1273 C1272 1.336 . S
C1273 H1288 0.929 . S
C1274 C1264 1.386 . S
C1274 C1267 1.357 . S
C1274 H1287 0.928 . S
H1275 C1251 0.931 . S
H1276 C1253 0.930 . S
H1277 C1255 0.929 . S
H1278 C1256 0.931 . S
H1279 C1258 0.930 . S
H1280 C1262 0.931 . S
H1281 C1260 0.931 . S
H1282 C1264 0.931 . S
H1283 C1265 0.929 . S
H1284 C1266 0.930 . S
H1285 C1269 0.930 . S
H1286 C1270 0.931 . S
H1287 C1274 0.928 . S
H1288 C1273 0.929 . S
H1289 C1271 0.932 . S
C1290 C1291 1.386 . S
C1290 C1292 1.397 . S
C1290 H1314 0.931 . S
C1291 C1290 1.386 . S
C1291 C1295 1.397 . S
C1292 C1290 1.397 . S
C1292 C1293 1.384 . S
C1292 H1315 0.930 . S
C1293 C1292 1.384 . S
C1293 C1294 1.377 . S
C1293 C1296 1.481 . S
C1294 C1293 1.377 . S
C1294 C1295 1.389 . S
C1294 H1316 0.929 . S
C1295 C1291 1.397 . S
C1295 C1294 1.389 . S
C1295 H1317 0.931 . S
C1296 C1293 1.481 . S
C1296 C1297 1.387 . S
C1296 C1301 1.390 . S
C1297 C1296 1.387 . S
C1297 C1298 1.401 . S
C1297 H1318 0.930 . S
C1298 C1297 1.401 . S
C1298 C1299 1.376 . S
C1298 C1307 1.511 . S
C1299 C1298 1.376 . S
C1299 C1300 1.392 . S
C1299 H1320 0.931 . S
C1300 C1299 1.392 . S
C1300 C1301 1.361 . S
C1300 C1302 1.500 . S
C1301 C1296 1.390 . S
C1301 C1300 1.361 . S
C1301 H1319 0.931 . S
C1302 C1300 1.500 . S
C1302 C1303 1.371 . S
C1302 C1304 1.365 . S
C1303 C1302 1.371 . S
C1303 C1313 1.386 . S
C1303 H1321 0.931 . S
C1304 C1302 1.365 . S
C1304 C1305 1.409 . S
C1304 H1322 0.929 . S
C1305 C1304 1.409 . S
C1305 C1306 1.380 . S
C1305 H1323 0.930 . S
C1306 C1305 1.380 . S
C1306 C1313 1.357 . S
C1307 C1298 1.511 . S
C1307 C1308 1.341 . S
C1307 C1309 1.371 . S
C1308 C1307 1.341 . S
C1308 C1312 1.394 . S
C1308 H1324 0.930 . S
C1309 C1307 1.371 . S
C1309 C1310 1.392 . S
C1309 H1325 0.931 . S
C1310 C1309 1.392 . S
C1310 C1311 1.331 . S
C1310 H1328 0.932 . S
C1311 C1310 1.331 . S
C1311 C1312 1.336 . S
C1312 C1308 1.394 . S
C1312 C1311 1.336 . S
C1312 H1327 0.929 . S
C1313 C1303 1.386 . S
C1313 C1306 1.357 . S
C1313 H1326 0.928 . S
H1314 C1290 0.931 . S
H1315 C1292 0.930 . S
H1316 C1294 0.929 . S
H1317 C1295 0.931 . S
H1318 C1297 0.930 . S
H1319 C1301 0.931 . S
H1320 C1299 0.931 . S
H1321 C1303 0.931 . S
H1322 C1304 0.929 . S
H1323 C1305 0.930 . S
H1324 C1308 0.930 . S
H1325 C1309 0.931 . S
H1326 C1313 0.928 . S
H1327 C1312 0.929 . S
H1328 C1310 0.932 . S
C1329 C1330 1.386 . S
C1329 C1331 1.397 . S
C1329 H1353 0.931 . S
C1330 C1329 1.386 . S
C1330 C1334 1.397 . S
C1331 C1329 1.397 . S
C1331 C1332 1.384 . S
C1331 H1354 0.930 . S
C1332 C1331 1.384 . S
C1332 C1333 1.377 . S
C1332 C1335 1.481 . S
C1333 C1332 1.377 . S
C1333 C1334 1.389 . S
C1333 H1355 0.929 . S
C1334 C1330 1.397 . S
C1334 C1333 1.389 . S
C1334 H1356 0.931 . S
C1335 C1332 1.481 . S
C1335 C1336 1.387 . S
C1335 C1340 1.390 . S
C1336 C1335 1.387 . S
C1336 C1337 1.401 . S
C1336 H1357 0.930 . S
C1337 C1336 1.401 . S
C1337 C1338 1.376 . S
C1337 C1346 1.511 . S
C1338 C1337 1.376 . S
C1338 C1339 1.392 . S
C1338 H1359 0.931 . S
C1339 C1338 1.392 . S
C1339 C1340 1.361 . S
C1339 C1341 1.500 . S
C1340 C1335 1.390 . S
C1340 C1339 1.361 . S
C1340 H1358 0.931 . S
C1341 C1339 1.500 . S
C1341 C1342 1.371 . S
C1341 C1343 1.365 . S
C1342 C1341 1.371 . S
C1342 C1352 1.386 . S
C1342 H1360 0.931 . S
C1343 C1341 1.365 . S
C1343 C1344 1.409 . S
C1343 H1361 0.929 . S
C1344 C1343 1.409 . S
C1344 C1345 1.380 . S
C1344 H1362 0.930 . S
C1345 C1344 1.380 . S
C1345 C1352 1.357 . S
C1346 C1337 1.511 . S
C1346 C1347 1.341 . S
C1346 C1348 1.371 . S
C1347 C1346 1.341 . S
C1347 C1351 1.394 . S
C1347 H1363 0.930 . S
C1348 C1346 1.371 . S
C1348 C1349 1.392 . S
C1348 H1364 0.931 . S
C1349 C1348 1.392 . S
C1349 C1350 1.331 . S
C1349 H1367 0.932 1_455 S
C1350 C1349 1.331 . S
C1350 C1351 1.336 . S
C1351 C1347 1.394 . S
C1351 C1350 1.336 . S
C1351 H1366 0.929 . S
C1352 C1342 1.386 . S
C1352 C1345 1.357 . S
C1352 H1365 0.928 . S
H1353 C1329 0.931 . S
H1354 C1331 0.930 . S
H1355 C1333 0.929 . S
H1356 C1334 0.931 . S
H1357 C1336 0.930 . S
H1358 C1340 0.931 . S
H1359 C1338 0.931 . S
H1360 C1342 0.931 . S
H1361 C1343 0.929 . S
H1362 C1344 0.930 . S
H1363 C1347 0.930 . S
H1364 C1348 0.931 . S
H1365 C1352 0.928 . S
H1366 C1351 0.929 . S
H1367 C1349 0.932 1_655 S
C1368 C1369 1.386 . S
C1368 C1370 1.397 . S
C1368 H1392 0.931 . S
C1369 C1368 1.386 . S
C1369 C1373 1.397 . S
C1370 C1368 1.397 . S
C1370 C1371 1.384 . S
C1370 H1393 0.930 . S
C1371 C1370 1.384 . S
C1371 C1372 1.377 . S
C1371 C1374 1.481 . S
C1372 C1371 1.377 . S
C1372 C1373 1.389 . S
C1372 H1394 0.929 . S
C1373 C1369 1.397 . S
C1373 C1372 1.389 . S
C1373 H1395 0.931 . S
C1374 C1371 1.481 . S
C1374 C1375 1.387 . S
C1374 C1379 1.390 . S
C1375 C1374 1.387 . S
C1375 C1376 1.401 . S
C1375 H1396 0.930 . S
C1376 C1375 1.401 . S
C1376 C1377 1.376 . S
C1376 C1385 1.511 . S
C1377 C1376 1.376 . S
C1377 C1378 1.392 . S
C1377 H1398 0.931 . S
C1378 C1377 1.392 . S
C1378 C1379 1.361 . S
C1378 C1380 1.500 . S
C1379 C1374 1.390 . S
C1379 C1378 1.361 . S
C1379 H1397 0.931 . S
C1380 C1378 1.500 . S
C1380 C1381 1.371 . S
C1380 C1382 1.365 . S
C1381 C1380 1.371 . S
C1381 C1391 1.386 . S
C1381 H1399 0.931 . S
C1382 C1380 1.365 . S
C1382 C1383 1.409 . S
C1382 H1400 0.929 . S
C1383 C1382 1.409 . S
C1383 C1384 1.380 . S
C1383 H1401 0.930 . S
C1384 C1383 1.380 . S
C1384 C1391 1.357 . S
C1385 C1376 1.511 . S
C1385 C1386 1.341 . S
C1385 C1387 1.371 . S
C1386 C1385 1.341 . S
C1386 C1390 1.394 . S
C1386 H1402 0.930 . S
C1387 C1385 1.371 . S
C1387 C1388 1.392 . S
C1387 H1403 0.931 . S
C1388 C1387 1.392 . S
C1388 C1389 1.331 . S
C1388 H1406 0.932 . S
C1389 C1388 1.331 . S
C1389 C1390 1.336 . S
C1390 C1386 1.394 . S
C1390 C1389 1.336 . S
C1390 H1405 0.929 . S
C1391 C1381 1.386 . S
C1391 C1384 1.357 . S
C1391 H1404 0.928 . S
H1392 C1368 0.931 . S
H1393 C1370 0.930 . S
H1394 C1372 0.929 . S
H1395 C1373 0.931 . S
H1396 C1375 0.930 . S
H1397 C1379 0.931 . S
H1398 C1377 0.931 . S
H1399 C1381 0.931 . S
H1400 C1382 0.929 . S
H1401 C1383 0.930 . S
H1402 C1386 0.930 . S
H1403 C1387 0.931 . S
H1404 C1391 0.928 . S
H1405 C1390 0.929 . S
H1406 C1388 0.932 . S
C1407 C1408 1.386 . S
C1407 C1409 1.397 . S
C1407 H1431 0.931 . S
C1408 C1407 1.386 . S
C1408 C1412 1.397 . S
C1409 C1407 1.397 . S
C1409 C1410 1.384 . S
C1409 H1432 0.930 . S
C1410 C1409 1.384 . S
C1410 C1411 1.377 . S
C1410 C1413 1.481 . S
C1411 C1410 1.377 . S
C1411 C1412 1.389 . S
C1411 H1433 0.929 . S
C1412 C1408 1.397 . S
C1412 C1411 1.389 . S
C1412 H1434 0.931 . S
C1413 C1410 1.481 . S
C1413 C1414 1.387 . S
C1413 C1418 1.390 . S
C1414 C1413 1.387 . S
C1414 C1415 1.401 . S
C1414 H1435 0.930 . S
C1415 C1414 1.401 . S
C1415 C1416 1.376 . S
C1415 C1424 1.511 . S
C1416 C1415 1.376 . S
C1416 C1417 1.392 . S
C1416 H1437 0.931 . S
C1417 C1416 1.392 . S
C1417 C1418 1.361 . S
C1417 C1419 1.500 . S
C1418 C1413 1.390 . S
C1418 C1417 1.361 . S
C1418 H1436 0.931 . S
C1419 C1417 1.500 . S
C1419 C1420 1.371 . S
C1419 C1421 1.365 . S
C1420 C1419 1.371 . S
C1420 C1430 1.386 . S
C1420 H1438 0.931 . S
C1421 C1419 1.365 . S
C1421 C1422 1.409 . S
C1421 H1439 0.929 . S
C1422 C1421 1.409 . S
C1422 C1423 1.380 . S
C1422 H1440 0.930 . S
C1423 C1422 1.380 . S
C1423 C1430 1.357 . S
C1424 C1415 1.511 . S
C1424 C1425 1.341 . S
C1424 C1426 1.371 . S
C1425 C1424 1.341 . S
C1425 C1429 1.394 . S
C1425 H1441 0.930 . S
C1426 C1424 1.371 . S
C1426 C1427 1.392 . S
C1426 H1442 0.931 . S
C1427 C1426 1.392 . S
C1427 C1428 1.331 . S
C1427 H1445 0.932 . S
C1428 C1427 1.331 . S
C1428 C1429 1.336 . S
C1429 C1425 1.394 . S
C1429 C1428 1.336 . S
C1429 H1444 0.929 . S
C1430 C1420 1.386 . S
C1430 C1423 1.357 . S
C1430 H1443 0.928 . S
H1431 C1407 0.931 . S
H1432 C1409 0.930 . S
H1433 C1411 0.929 . S
H1434 C1412 0.931 . S
H1435 C1414 0.930 . S
H1436 C1418 0.931 . S
H1437 C1416 0.931 . S
H1438 C1420 0.931 . S
H1439 C1421 0.929 . S
H1440 C1422 0.930 . S
H1441 C1425 0.930 . S
H1442 C1426 0.931 . S
H1443 C1430 0.928 . S
H1444 C1429 0.929 . S
H1445 C1427 0.932 . S
C1446 C1447 1.386 . S
C1446 C1448 1.397 . S
C1446 H1470 0.931 . S
C1447 C1446 1.386 . S
C1447 C1451 1.397 . S
C1448 C1446 1.397 . S
C1448 C1449 1.384 . S
C1448 H1471 0.930 . S
C1449 C1448 1.384 . S
C1449 C1450 1.377 . S
C1449 C1452 1.481 . S
C1450 C1449 1.377 . S
C1450 C1451 1.389 . S
C1450 H1472 0.929 . S
C1451 C1447 1.397 . S
C1451 C1450 1.389 . S
C1451 H1473 0.931 . S
C1452 C1449 1.481 . S
C1452 C1453 1.387 . S
C1452 C1457 1.390 . S
C1453 C1452 1.387 . S
C1453 C1454 1.401 . S
C1453 H1474 0.930 . S
C1454 C1453 1.401 . S
C1454 C1455 1.376 . S
C1454 C1463 1.511 . S
C1455 C1454 1.376 . S
C1455 C1456 1.392 . S
C1455 H1476 0.931 . S
C1456 C1455 1.392 . S
C1456 C1457 1.361 . S
C1456 C1458 1.500 . S
C1457 C1452 1.390 . S
C1457 C1456 1.361 . S
C1457 H1475 0.931 . S
C1458 C1456 1.500 . S
C1458 C1459 1.371 . S
C1458 C1460 1.365 . S
C1459 C1458 1.371 . S
C1459 C1469 1.386 . S
C1459 H1477 0.931 . S
C1460 C1458 1.365 . S
C1460 C1461 1.409 . S
C1460 H1478 0.929 . S
C1461 C1460 1.409 . S
C1461 C1462 1.380 . S
C1461 H1479 0.930 . S
C1462 C1461 1.380 . S
C1462 C1469 1.357 . S
C1463 C1454 1.511 . S
C1463 C1464 1.341 . S
C1463 C1465 1.371 . S
C1464 C1463 1.341 . S
C1464 C1468 1.394 . S
C1464 H1480 0.930 . S
C1465 C1463 1.371 . S
C1465 C1466 1.392 . S
C1465 H1481 0.931 . S
C1466 C1465 1.392 . S
C1466 C1467 1.331 . S
C1466 H1484 0.932 . S
C1467 C1466 1.331 . S
C1467 C1468 1.336 . S
C1468 C1464 1.394 . S
C1468 C1467 1.336 . S
C1468 H1483 0.929 . S
C1469 C1459 1.386 . S
C1469 C1462 1.357 . S
C1469 H1482 0.928 . S
H1470 C1446 0.931 . S
H1471 C1448 0.930 . S
H1472 C1450 0.929 . S
H1473 C1451 0.931 . S
H1474 C1453 0.930 . S
H1475 C1457 0.931 . S
H1476 C1455 0.931 . S
H1477 C1459 0.931 . S
H1478 C1460 0.929 . S
H1479 C1461 0.930 . S
H1480 C1464 0.930 . S
H1481 C1465 0.931 . S
H1482 C1469 0.928 . S
H1483 C1468 0.929 . S
H1484 C1466 0.932 . S
C1485 C1486 1.386 . S
C1485 C1487 1.397 . S
C1485 H1509 0.931 . S
C1486 C1485 1.386 . S
C1486 C1490 1.397 . S
C1487 C1485 1.397 . S
C1487 C1488 1.384 . S
C1487 H1510 0.930 . S
C1488 C1487 1.384 . S
C1488 C1489 1.377 . S
C1488 C1491 1.481 . S
C1489 C1488 1.377 . S
C1489 C1490 1.389 . S
C1489 H1511 0.929 . S
C1490 C1486 1.397 . S
C1490 C1489 1.389 . S
C1490 H1512 0.931 . S
C1491 C1488 1.481 . S
C1491 C1492 1.387 . S
C1491 C1496 1.390 . S
C1492 C1491 1.387 . S
C1492 C1493 1.401 . S
C1492 H1513 0.930 . S
C1493 C1492 1.401 . S
C1493 C1494 1.376 . S
C1493 C1502 1.511 . S
C1494 C1493 1.376 . S
C1494 C1495 1.392 . S
C1494 H1515 0.931 . S
C1495 C1494 1.392 . S
C1495 C1496 1.361 . S
C1495 C1497 1.500 . S
C1496 C1491 1.390 . S
C1496 C1495 1.361 . S
C1496 H1514 0.931 . S
C1497 C1495 1.500 . S
C1497 C1498 1.371 . S
C1497 C1499 1.365 . S
C1498 C1497 1.371 . S
C1498 C1508 1.386 . S
C1498 H1516 0.931 . S
C1499 C1497 1.365 . S
C1499 C1500 1.409 . S
C1499 H1517 0.929 . S
C1500 C1499 1.409 . S
C1500 C1501 1.380 . S
C1500 H1518 0.930 . S
C1501 C1500 1.380 . S
C1501 C1508 1.357 . S
C1502 C1493 1.511 . S
C1502 C1503 1.341 . S
C1502 C1504 1.371 . S
C1503 C1502 1.341 . S
C1503 C1507 1.394 . S
C1503 H1519 0.930 . S
C1504 C1502 1.371 . S
C1504 C1505 1.392 . S
C1504 H1520 0.931 . S
C1505 C1504 1.392 . S
C1505 C1506 1.331 . S
C1505 H1523 0.932 1_556 S
C1506 C1505 1.331 . S
C1506 C1507 1.336 . S
C1507 C1503 1.394 . S
C1507 C1506 1.336 . S
C1507 H1522 0.929 . S
C1508 C1498 1.386 . S
C1508 C1501 1.357 . S
C1508 H1521 0.928 . S
H1509 C1485 0.931 . S
H1510 C1487 0.930 . S
H1511 C1489 0.929 . S
H1512 C1490 0.931 . S
H1513 C1492 0.930 . S
H1514 C1496 0.931 . S
H1515 C1494 0.931 . S
H1516 C1498 0.931 . S
H1517 C1499 0.929 . S
H1518 C1500 0.930 . S
H1519 C1503 0.930 . S
H1520 C1504 0.931 . S
H1521 C1508 0.928 . S
H1522 C1507 0.929 . S
H1523 C1505 0.932 1_554 S
C1524 C1525 1.386 . S
C1524 C1526 1.397 . S
C1524 H1548 0.931 . S
C1525 C1524 1.386 . S
C1525 C1529 1.397 . S
C1526 C1524 1.397 . S
C1526 C1527 1.384 . S
C1526 H1549 0.930 . S
C1527 C1526 1.384 . S
C1527 C1528 1.377 . S
C1527 C1530 1.481 . S
C1528 C1527 1.377 . S
C1528 C1529 1.389 . S
C1528 H1550 0.929 . S
C1529 C1525 1.397 . S
C1529 C1528 1.389 . S
C1529 H1551 0.931 . S
C1530 C1527 1.481 . S
C1530 C1531 1.387 . S
C1530 C1535 1.390 . S
C1531 C1530 1.387 . S
C1531 C1532 1.401 . S
C1531 H1552 0.930 . S
C1532 C1531 1.401 . S
C1532 C1533 1.376 . S
C1532 C1541 1.511 . S
C1533 C1532 1.376 . S
C1533 C1534 1.392 . S
C1533 H1554 0.931 . S
C1534 C1533 1.392 . S
C1534 C1535 1.361 . S
C1534 C1536 1.500 . S
C1535 C1530 1.390 . S
C1535 C1534 1.361 . S
C1535 H1553 0.931 . S
C1536 C1534 1.500 . S
C1536 C1537 1.371 . S
C1536 C1538 1.365 . S
C1537 C1536 1.371 . S
C1537 C1547 1.386 . S
C1537 H1555 0.931 . S
C1538 C1536 1.365 . S
C1538 C1539 1.409 . S
C1538 H1556 0.929 . S
C1539 C1538 1.409 . S
C1539 C1540 1.380 . S
C1539 H1557 0.930 . S
C1540 C1539 1.380 . S
C1540 C1547 1.357 . S
C1541 C1532 1.511 . S
C1541 C1542 1.341 . S
C1541 C1543 1.371 . S
C1542 C1541 1.341 . S
C1542 C1546 1.394 . S
C1542 H1558 0.930 . S
C1543 C1541 1.371 . S
C1543 C1544 1.392 . S
C1543 H1559 0.931 . S
C1544 C1543 1.392 . S
C1544 C1545 1.331 . S
C1544 H1562 0.932 . S
C1545 C1544 1.331 . S
C1545 C1546 1.336 . S
C1546 C1542 1.394 . S
C1546 C1545 1.336 . S
C1546 H1561 0.929 . S
C1547 C1537 1.386 . S
C1547 C1540 1.357 . S
C1547 H1560 0.928 . S
H1548 C1524 0.931 . S
H1549 C1526 0.930 . S
H1550 C1528 0.929 . S
H1551 C1529 0.931 . S
H1552 C1531 0.930 . S
H1553 C1535 0.931 . S
H1554 C1533 0.931 . S
H1555 C1537 0.931 . S
H1556 C1538 0.929 . S
H1557 C1539 0.930 . S
H1558 C1542 0.930 . S
H1559 C1543 0.931 . S
H1560 C1547 0.928 . S
H1561 C1546 0.929 . S
H1562 C1544 0.932 . S
C1563 C1564 1.386 . S
C1563 C1565 1.397 . S
C1563 H1587 0.931 . S
C1564 C1563 1.386 . S
C1564 C1568 1.397 . S
C1565 C1563 1.397 . S
C1565 C1566 1.384 . S
C1565 H1588 0.930 . S
C1566 C1565 1.384 . S
C1566 C1567 1.377 . S
C1566 C1569 1.481 . S
C1567 C1566 1.377 . S
C1567 C1568 1.389 . S
C1567 H1589 0.929 . S
C1568 C1564 1.397 . S
C1568 C1567 1.389 . S
C1568 H1590 0.931 . S
C1569 C1566 1.481 . S
C1569 C1570 1.387 . S
C1569 C1574 1.390 . S
C1570 C1569 1.387 . S
C1570 C1571 1.401 . S
C1570 H1591 0.930 . S
C1571 C1570 1.401 . S
C1571 C1572 1.376 . S
C1571 C1580 1.511 . S
C1572 C1571 1.376 . S
C1572 C1573 1.392 . S
C1572 H1593 0.931 . S
C1573 C1572 1.392 . S
C1573 C1574 1.361 . S
C1573 C1575 1.500 . S
C1574 C1569 1.390 . S
C1574 C1573 1.361 . S
C1574 H1592 0.931 . S
C1575 C1573 1.500 . S
C1575 C1576 1.371 . S
C1575 C1577 1.365 . S
C1576 C1575 1.371 . S
C1576 C1586 1.386 . S
C1576 H1594 0.931 . S
C1577 C1575 1.365 . S
C1577 C1578 1.409 . S
C1577 H1595 0.929 . S
C1578 C1577 1.409 . S
C1578 C1579 1.380 . S
C1578 H1596 0.930 . S
C1579 C1578 1.380 . S
C1579 C1586 1.357 . S
C1580 C1571 1.511 . S
C1580 C1581 1.341 . S
C1580 C1582 1.371 . S
C1581 C1580 1.341 . S
C1581 C1585 1.394 . S
C1581 H1597 0.930 . S
C1582 C1580 1.371 . S
C1582 C1583 1.392 . S
C1582 H1598 0.931 . S
C1583 C1582 1.392 . S
C1583 C1584 1.331 . S
C1583 H1601 0.932 . S
C1584 C1583 1.331 . S
C1584 C1585 1.336 . S
C1585 C1581 1.394 . S
C1585 C1584 1.336 . S
C1585 H1600 0.929 . S
C1586 C1576 1.386 . S
C1586 C1579 1.357 . S
C1586 H1599 0.928 . S
H1587 C1563 0.931 . S
H1588 C1565 0.930 . S
H1589 C1567 0.929 . S
H1590 C1568 0.931 . S
H1591 C1570 0.930 . S
H1592 C1574 0.931 . S
H1593 C1572 0.931 . S
H1594 C1576 0.931 . S
H1595 C1577 0.929 . S
H1596 C1578 0.930 . S
H1597 C1581 0.930 . S
H1598 C1582 0.931 . S
H1599 C1586 0.928 . S
H1600 C1585 0.929 . S
H1601 C1583 0.932 . S
C1602 C1603 1.386 . S
C1602 C1604 1.397 . S
C1602 H1626 0.931 . S
C1603 C1602 1.386 . S
C1603 C1607 1.397 . S
C1604 C1602 1.397 . S
C1604 C1605 1.384 . S
C1604 H1627 0.930 . S
C1605 C1604 1.384 . S
C1605 C1606 1.377 . S
C1605 C1608 1.481 . S
C1606 C1605 1.377 . S
C1606 C1607 1.389 . S
C1606 H1628 0.929 . S
C1607 C1603 1.397 . S
C1607 C1606 1.389 . S
C1607 H1629 0.931 . S
C1608 C1605 1.481 . S
C1608 C1609 1.387 . S
C1608 C1613 1.390 . S
C1609 C1608 1.387 . S
C1609 C1610 1.401 . S
C1609 H1630 0.930 . S
C1610 C1609 1.401 . S
C1610 C1611 1.376 . S
C1610 C1619 1.511 . S
C1611 C1610 1.376 . S
C1611 C1612 1.392 . S
C1611 H1632 0.931 . S
C1612 C1611 1.392 . S
C1612 C1613 1.361 . S
C1612 C1614 1.500 . S
C1613 C1608 1.390 . S
C1613 C1612 1.361 . S
C1613 H1631 0.931 . S
C1614 C1612 1.500 . S
C1614 C1615 1.371 . S
C1614 C1616 1.365 . S
C1615 C1614 1.371 . S
C1615 C1625 1.386 . S
C1615 H1633 0.931 . S
C1616 C1614 1.365 . S
C1616 C1617 1.409 . S
C1616 H1634 0.929 . S
C1617 C1616 1.409 . S
C1617 C1618 1.380 . S
C1617 H1635 0.930 . S
C1618 C1617 1.380 . S
C1618 C1625 1.357 . S
C1619 C1610 1.511 . S
C1619 C1620 1.341 . S
C1619 C1621 1.371 . S
C1620 C1619 1.341 . S
C1620 C1624 1.394 . S
C1620 H1636 0.930 . S
C1621 C1619 1.371 . S
C1621 C1622 1.392 . S
C1621 H1637 0.931 . S
C1622 C1621 1.392 . S
C1622 C1623 1.331 . S
C1622 H1640 0.932 . S
C1623 C1622 1.331 . S
C1623 C1624 1.336 . S
C1624 C1620 1.394 . S
C1624 C1623 1.336 . S
C1624 H1639 0.929 . S
C1625 C1615 1.386 . S
C1625 C1618 1.357 . S
C1625 H1638 0.928 . S
H1626 C1602 0.931 . S
H1627 C1604 0.930 . S
H1628 C1606 0.929 . S
H1629 C1607 0.931 . S
H1630 C1609 0.930 . S
H1631 C1613 0.931 . S
H1632 C1611 0.931 . S
H1633 C1615 0.931 . S
H1634 C1616 0.929 . S
H1635 C1617 0.930 . S
H1636 C1620 0.930 . S
H1637 C1621 0.931 . S
H1638 C1625 0.928 . S
H1639 C1624 0.929 . S
H1640 C1622 0.932 . S
C1641 C1642 1.386 . S
C1641 C1643 1.397 . S
C1641 H1665 0.931 . S
C1642 C1641 1.386 . S
C1642 C1646 1.397 . S
C1643 C1641 1.397 . S
C1643 C1644 1.384 . S
C1643 H1666 0.930 . S
C1644 C1643 1.384 . S
C1644 C1645 1.377 . S
C1644 C1647 1.481 . S
C1645 C1644 1.377 . S
C1645 C1646 1.389 . S
C1645 H1667 0.929 . S
C1646 C1642 1.397 . S
C1646 C1645 1.389 . S
C1646 H1668 0.931 . S
C1647 C1644 1.481 . S
C1647 C1648 1.387 . S
C1647 C1652 1.390 . S
C1648 C1647 1.387 . S
C1648 C1649 1.401 . S
C1648 H1669 0.930 . S
C1649 C1648 1.401 . S
C1649 C1650 1.376 . S
C1649 C1658 1.511 . S
C1650 C1649 1.376 . S
C1650 C1651 1.392 . S
C1650 H1671 0.931 . S
C1651 C1650 1.392 . S
C1651 C1652 1.361 . S
C1651 C1653 1.500 . S
C1652 C1647 1.390 . S
C1652 C1651 1.361 . S
C1652 H1670 0.931 . S
C1653 C1651 1.500 . S
C1653 C1654 1.371 . S
C1653 C1655 1.365 . S
C1654 C1653 1.371 . S
C1654 C1664 1.386 . S
C1654 H1672 0.931 . S
C1655 C1653 1.365 . S
C1655 C1656 1.409 . S
C1655 H1673 0.929 . S
C1656 C1655 1.409 . S
C1656 C1657 1.380 . S
C1656 H1674 0.930 . S
C1657 C1656 1.380 . S
C1657 C1664 1.357 . S
C1658 C1649 1.511 . S
C1658 C1659 1.341 . S
C1658 C1660 1.371 . S
C1659 C1658 1.341 . S
C1659 C1663 1.394 . S
C1659 H1675 0.930 . S
C1660 C1658 1.371 . S
C1660 C1661 1.392 . S
C1660 H1676 0.931 . S
C1661 C1660 1.392 . S
C1661 C1662 1.331 . S
C1661 H1679 0.932 1_554 S
C1662 C1661 1.331 . S
C1662 C1663 1.336 . S
C1663 C1659 1.394 . S
C1663 C1662 1.336 . S
C1663 H1678 0.929 . S
C1664 C1654 1.386 . S
C1664 C1657 1.357 . S
C1664 H1677 0.928 . S
H1665 C1641 0.931 . S
H1666 C1643 0.930 . S
H1667 C1645 0.929 . S
H1668 C1646 0.931 . S
H1669 C1648 0.930 . S
H1670 C1652 0.931 . S
H1671 C1650 0.931 . S
H1672 C1654 0.931 . S
H1673 C1655 0.929 . S
H1674 C1656 0.930 . S
H1675 C1659 0.930 . S
H1676 C1660 0.931 . S
H1677 C1664 0.928 . S
H1678 C1663 0.929 . S
H1679 C1661 0.932 1_556 S
C1680 C1681 1.386 . S
C1680 C1682 1.397 . S
C1680 H1704 0.931 . S
C1681 C1680 1.386 . S
C1681 C1685 1.397 . S
C1682 C1680 1.397 . S
C1682 C1683 1.384 . S
C1682 H1705 0.930 . S
C1683 C1682 1.384 . S
C1683 C1684 1.377 . S
C1683 C1686 1.481 . S
C1684 C1683 1.377 . S
C1684 C1685 1.389 . S
C1684 H1706 0.929 . S
C1685 C1681 1.397 . S
C1685 C1684 1.389 . S
C1685 H1707 0.931 . S
C1686 C1683 1.481 . S
C1686 C1687 1.387 . S
C1686 C1691 1.390 . S
C1687 C1686 1.387 . S
C1687 C1688 1.401 . S
C1687 H1708 0.930 . S
C1688 C1687 1.401 . S
C1688 C1689 1.376 . S
C1688 C1697 1.511 . S
C1689 C1688 1.376 . S
C1689 C1690 1.392 . S
C1689 H1710 0.931 . S
C1690 C1689 1.392 . S
C1690 C1691 1.361 . S
C1690 C1692 1.500 . S
C1691 C1686 1.390 . S
C1691 C1690 1.361 . S
C1691 H1709 0.931 . S
C1692 C1690 1.500 . S
C1692 C1693 1.371 . S
C1692 C1694 1.365 . S
C1693 C1692 1.371 . S
C1693 C1703 1.386 . S
C1693 H1711 0.931 . S
C1694 C1692 1.365 . S
C1694 C1695 1.409 . S
C1694 H1712 0.929 . S
C1695 C1694 1.409 . S
C1695 C1696 1.380 . S
C1695 H1713 0.930 . S
C1696 C1695 1.380 . S
C1696 C1703 1.357 . S
C1697 C1688 1.511 . S
C1697 C1698 1.341 . S
C1697 C1699 1.371 . S
C1698 C1697 1.341 . S
C1698 C1702 1.394 . S
C1698 H1714 0.930 . S
C1699 C1697 1.371 . S
C1699 C1700 1.392 . S
C1699 H1715 0.931 . S
C1700 C1699 1.392 . S
C1700 C1701 1.331 . S
C1700 H1718 0.932 . S
C1701 C1700 1.331 . S
C1701 C1702 1.336 . S
C1702 C1698 1.394 . S
C1702 C1701 1.336 . S
C1702 H1717 0.929 . S
C1703 C1693 1.386 . S
C1703 C1696 1.357 . S
C1703 H1716 0.928 . S
H1704 C1680 0.931 . S
H1705 C1682 0.930 . S
H1706 C1684 0.929 . S
H1707 C1685 0.931 . S
H1708 C1687 0.930 . S
H1709 C1691 0.931 . S
H1710 C1689 0.931 . S
H1711 C1693 0.931 . S
H1712 C1694 0.929 . S
H1713 C1695 0.930 . S
H1714 C1698 0.930 . S
H1715 C1699 0.931 . S
H1716 C1703 0.928 . S
H1717 C1702 0.929 . S
H1718 C1700 0.932 . S
C1719 C1720 1.386 . S
C1719 C1721 1.397 . S
C1719 H1743 0.931 . S
C1720 C1719 1.386 . S
C1720 C1724 1.397 . S
C1721 C1719 1.397 . S
C1721 C1722 1.384 . S
C1721 H1744 0.930 . S
C1722 C1721 1.384 . S
C1722 C1723 1.377 . S
C1722 C1725 1.481 . S
C1723 C1722 1.377 . S
C1723 C1724 1.389 . S
C1723 H1745 0.929 . S
C1724 C1720 1.397 . S
C1724 C1723 1.389 . S
C1724 H1746 0.931 . S
C1725 C1722 1.481 . S
C1725 C1726 1.387 . S
C1725 C1730 1.390 . S
C1726 C1725 1.387 . S
C1726 C1727 1.401 . S
C1726 H1747 0.930 . S
C1727 C1726 1.401 . S
C1727 C1728 1.376 . S
C1727 C1736 1.511 . S
C1728 C1727 1.376 . S
C1728 C1729 1.392 . S
C1728 H1749 0.931 . S
C1729 C1728 1.392 . S
C1729 C1730 1.361 . S
C1729 C1731 1.500 . S
C1730 C1725 1.390 . S
C1730 C1729 1.361 . S
C1730 H1748 0.931 . S
C1731 C1729 1.500 . S
C1731 C1732 1.371 . S
C1731 C1733 1.365 . S
C1732 C1731 1.371 . S
C1732 C1742 1.386 . S
C1732 H1750 0.931 . S
C1733 C1731 1.365 . S
C1733 C1734 1.409 . S
C1733 H1751 0.929 . S
C1734 C1733 1.409 . S
C1734 C1735 1.380 . S
C1734 H1752 0.930 . S
C1735 C1734 1.380 . S
C1735 C1742 1.357 . S
C1736 C1727 1.511 . S
C1736 C1737 1.341 . S
C1736 C1738 1.371 . S
C1737 C1736 1.341 . S
C1737 C1741 1.394 . S
C1737 H1753 0.930 . S
C1738 C1736 1.371 . S
C1738 C1739 1.392 . S
C1738 H1754 0.931 . S
C1739 C1738 1.392 . S
C1739 C1740 1.331 . S
C1739 H1757 0.932 . S
C1740 C1739 1.331 . S
C1740 C1741 1.336 . S
C1741 C1737 1.394 . S
C1741 C1740 1.336 . S
C1741 H1756 0.929 . S
C1742 C1732 1.386 . S
C1742 C1735 1.357 . S
C1742 H1755 0.928 . S
H1743 C1719 0.931 . S
H1744 C1721 0.930 . S
H1745 C1723 0.929 . S
H1746 C1724 0.931 . S
H1747 C1726 0.930 . S
H1748 C1730 0.931 . S
H1749 C1728 0.931 . S
H1750 C1732 0.931 . S
H1751 C1733 0.929 . S
H1752 C1734 0.930 . S
H1753 C1737 0.930 . S
H1754 C1738 0.931 . S
H1755 C1742 0.928 . S
H1756 C1741 0.929 . S
H1757 C1739 0.932 . S
C1758 C1759 1.386 . S
C1758 C1760 1.397 . S
C1758 H1782 0.931 . S
C1759 C1758 1.386 . S
C1759 C1763 1.397 . S
C1760 C1758 1.397 . S
C1760 C1761 1.384 . S
C1760 H1783 0.930 . S
C1761 C1760 1.384 . S
C1761 C1762 1.377 . S
C1761 C1764 1.481 . S
C1762 C1761 1.377 . S
C1762 C1763 1.389 . S
C1762 H1784 0.929 . S
C1763 C1759 1.397 . S
C1763 C1762 1.389 . S
C1763 H1785 0.931 . S
C1764 C1761 1.481 . S
C1764 C1765 1.387 . S
C1764 C1769 1.390 . S
C1765 C1764 1.387 . S
C1765 C1766 1.401 . S
C1765 H1786 0.930 . S
C1766 C1765 1.401 . S
C1766 C1767 1.376 . S
C1766 C1775 1.511 . S
C1767 C1766 1.376 . S
C1767 C1768 1.392 . S
C1767 H1788 0.931 . S
C1768 C1767 1.392 . S
C1768 C1769 1.361 . S
C1768 C1770 1.500 . S
C1769 C1764 1.390 . S
C1769 C1768 1.361 . S
C1769 H1787 0.931 . S
C1770 C1768 1.500 . S
C1770 C1771 1.371 . S
C1770 C1772 1.365 . S
C1771 C1770 1.371 . S
C1771 C1781 1.386 . S
C1771 H1789 0.931 . S
C1772 C1770 1.365 . S
C1772 C1773 1.409 . S
C1772 H1790 0.929 . S
C1773 C1772 1.409 . S
C1773 C1774 1.380 . S
C1773 H1791 0.930 . S
C1774 C1773 1.380 . S
C1774 C1781 1.357 . S
C1775 C1766 1.511 . S
C1775 C1776 1.341 . S
C1775 C1777 1.371 . S
C1776 C1775 1.341 . S
C1776 C1780 1.394 . S
C1776 H1792 0.930 . S
C1777 C1775 1.371 . S
C1777 C1778 1.392 . S
C1777 H1793 0.931 . S
C1778 C1777 1.392 . S
C1778 C1779 1.331 . S
C1778 H1796 0.932 . S
C1779 C1778 1.331 . S
C1779 C1780 1.336 . S
C1780 C1776 1.394 . S
C1780 C1779 1.336 . S
C1780 H1795 0.929 . S
C1781 C1771 1.386 . S
C1781 C1774 1.357 . S
C1781 H1794 0.928 . S
H1782 C1758 0.931 . S
H1783 C1760 0.930 . S
H1784 C1762 0.929 . S
H1785 C1763 0.931 . S
H1786 C1765 0.930 . S
H1787 C1769 0.931 . S
H1788 C1767 0.931 . S
H1789 C1771 0.931 . S
H1790 C1772 0.929 . S
H1791 C1773 0.930 . S
H1792 C1776 0.930 . S
H1793 C1777 0.931 . S
H1794 C1781 0.928 . S
H1795 C1780 0.929 . S
H1796 C1778 0.932 . S
C1797 C1798 1.386 . S
C1797 C1799 1.397 . S
C1797 H1821 0.931 . S
C1798 C1797 1.386 . S
C1798 C1802 1.397 . S
C1799 C1797 1.397 . S
C1799 C1800 1.384 . S
C1799 H1822 0.930 . S
C1800 C1799 1.384 . S
C1800 C1801 1.377 . S
C1800 C1803 1.481 . S
C1801 C1800 1.377 . S
C1801 C1802 1.389 . S
C1801 H1823 0.929 . S
C1802 C1798 1.397 . S
C1802 C1801 1.389 . S
C1802 H1824 0.931 . S
C1803 C1800 1.481 . S
C1803 C1804 1.387 . S
C1803 C1808 1.390 . S
C1804 C1803 1.387 . S
C1804 C1805 1.401 . S
C1804 H1825 0.930 . S
C1805 C1804 1.401 . S
C1805 C1806 1.376 . S
C1805 C1814 1.511 . S
C1806 C1805 1.376 . S
C1806 C1807 1.392 . S
C1806 H1827 0.931 . S
C1807 C1806 1.392 . S
C1807 C1808 1.361 . S
C1807 C1809 1.500 . S
C1808 C1803 1.390 . S
C1808 C1807 1.361 . S
C1808 H1826 0.931 . S
C1809 C1807 1.500 . S
C1809 C1810 1.371 . S
C1809 C1811 1.365 . S
C1810 C1809 1.371 . S
C1810 C1820 1.386 . S
C1810 H1828 0.931 . S
C1811 C1809 1.365 . S
C1811 C1812 1.409 . S
C1811 H1829 0.929 . S
C1812 C1811 1.409 . S
C1812 C1813 1.380 . S
C1812 H1830 0.930 . S
C1813 C1812 1.380 . S
C1813 C1820 1.357 . S
C1814 C1805 1.511 . S
C1814 C1815 1.341 . S
C1814 C1816 1.371 . S
C1815 C1814 1.341 . S
C1815 C1819 1.394 . S
C1815 H1831 0.930 . S
C1816 C1814 1.371 . S
C1816 C1817 1.392 . S
C1816 H1832 0.931 . S
C1817 C1816 1.392 . S
C1817 C1818 1.331 . S
C1817 H1835 0.932 . S
C1818 C1817 1.331 . S
C1818 C1819 1.336 . S
C1819 C1815 1.394 . S
C1819 C1818 1.336 . S
C1819 H1834 0.929 . S
C1820 C1810 1.386 . S
C1820 C1813 1.357 . S
C1820 H1833 0.928 . S
H1821 C1797 0.931 . S
H1822 C1799 0.930 . S
H1823 C1801 0.929 . S
H1824 C1802 0.931 . S
H1825 C1804 0.930 . S
H1826 C1808 0.931 . S
H1827 C1806 0.931 . S
H1828 C1810 0.931 . S
H1829 C1811 0.929 . S
H1830 C1812 0.930 . S
H1831 C1815 0.930 . S
H1832 C1816 0.931 . S
H1833 C1820 0.928 . S
H1834 C1819 0.929 . S
H1835 C1817 0.932 . S
C1836 C1837 1.386 . S
C1836 C1838 1.397 . S
C1836 H1860 0.931 . S
C1837 C1836 1.386 . S
C1837 C1841 1.397 . S
C1838 C1836 1.397 . S
C1838 C1839 1.384 . S
C1838 H1861 0.930 . S
C1839 C1838 1.384 . S
C1839 C1840 1.377 . S
C1839 C1842 1.481 . S
C1840 C1839 1.377 . S
C1840 C1841 1.389 . S
C1840 H1862 0.929 . S
C1841 C1837 1.397 . S
C1841 C1840 1.389 . S
C1841 H1863 0.931 . S
C1842 C1839 1.481 . S
C1842 C1843 1.387 . S
C1842 C1847 1.390 . S
C1843 C1842 1.387 . S
C1843 C1844 1.401 . S
C1843 H1864 0.930 . S
C1844 C1843 1.401 . S
C1844 C1845 1.376 . S
C1844 C1853 1.511 . S
C1845 C1844 1.376 . S
C1845 C1846 1.392 . S
C1845 H1866 0.931 . S
C1846 C1845 1.392 . S
C1846 C1847 1.361 . S
C1846 C1848 1.500 . S
C1847 C1842 1.390 . S
C1847 C1846 1.361 . S
C1847 H1865 0.931 . S
C1848 C1846 1.500 . S
C1848 C1849 1.371 . S
C1848 C1850 1.365 . S
C1849 C1848 1.371 . S
C1849 C1859 1.386 . S
C1849 H1867 0.931 . S
C1850 C1848 1.365 . S
C1850 C1851 1.409 . S
C1850 H1868 0.929 . S
C1851 C1850 1.409 . S
C1851 C1852 1.380 . S
C1851 H1869 0.930 . S
C1852 C1851 1.380 . S
C1852 C1859 1.357 . S
C1853 C1844 1.511 . S
C1853 C1854 1.341 . S
C1853 C1855 1.371 . S
C1854 C1853 1.341 . S
C1854 C1858 1.394 . S
C1854 H1870 0.930 . S
C1855 C1853 1.371 . S
C1855 C1856 1.392 . S
C1855 H1871 0.931 . S
C1856 C1855 1.392 . S
C1856 C1857 1.331 . S
C1856 H1874 0.932 . S
C1857 C1856 1.331 . S
C1857 C1858 1.336 . S
C1858 C1854 1.394 . S
C1858 C1857 1.336 . S
C1858 H1873 0.929 1_545 S
C1859 C1849 1.386 . S
C1859 C1852 1.357 . S
C1859 H1872 0.928 . S
H1860 C1836 0.931 . S
H1861 C1838 0.930 . S
H1862 C1840 0.929 . S
H1863 C1841 0.931 . S
H1864 C1843 0.930 . S
H1865 C1847 0.931 . S
H1866 C1845 0.931 . S
H1867 C1849 0.931 . S
H1868 C1850 0.929 . S
H1869 C1851 0.930 . S
H1870 C1854 0.930 . S
H1871 C1855 0.931 . S
H1872 C1859 0.928 . S
H1873 C1858 0.929 1_565 S
H1874 C1856 0.932 . S
C1875 C1876 1.386 . S
C1875 C1877 1.397 . S
C1875 H1899 0.931 . S
C1876 C1875 1.386 . S
C1876 C1880 1.397 . S
C1877 C1875 1.397 . S
C1877 C1878 1.384 . S
C1877 H1900 0.930 . S
C1878 C1877 1.384 . S
C1878 C1879 1.377 . S
C1878 C1881 1.481 . S
C1879 C1878 1.377 . S
C1879 C1880 1.389 . S
C1879 H1901 0.929 . S
C1880 C1876 1.397 . S
C1880 C1879 1.389 . S
C1880 H1902 0.931 . S
C1881 C1878 1.481 . S
C1881 C1882 1.387 . S
C1881 C1886 1.390 . S
C1882 C1881 1.387 . S
C1882 C1883 1.401 . S
C1882 H1903 0.930 . S
C1883 C1882 1.401 . S
C1883 C1884 1.376 . S
C1883 C1892 1.511 . S
C1884 C1883 1.376 . S
C1884 C1885 1.392 . S
C1884 H1905 0.931 . S
C1885 C1884 1.392 . S
C1885 C1886 1.361 . S
C1885 C1887 1.500 . S
C1886 C1881 1.390 . S
C1886 C1885 1.361 . S
C1886 H1904 0.931 . S
C1887 C1885 1.500 . S
C1887 C1888 1.371 . S
C1887 C1889 1.365 . S
C1888 C1887 1.371 . S
C1888 C1898 1.386 . S
C1888 H1906 0.931 . S
C1889 C1887 1.365 . S
C1889 C1890 1.409 . S
C1889 H1907 0.929 . S
C1890 C1889 1.409 . S
C1890 C1891 1.380 . S
C1890 H1908 0.930 . S
C1891 C1890 1.380 . S
C1891 C1898 1.357 . S
C1892 C1883 1.511 . S
C1892 C1893 1.341 . S
C1892 C1894 1.371 . S
C1893 C1892 1.341 . S
C1893 C1897 1.394 . S
C1893 H1909 0.930 . S
C1894 C1892 1.371 . S
C1894 C1895 1.392 . S
C1894 H1910 0.931 . S
C1895 C1894 1.392 . S
C1895 C1896 1.331 . S
C1895 H1913 0.932 . S
C1896 C1895 1.331 . S
C1896 C1897 1.336 . S
C1897 C1893 1.394 . S
C1897 C1896 1.336 . S
C1897 H1912 0.929 . S
C1898 C1888 1.386 . S
C1898 C1891 1.357 . S
C1898 H1911 0.928 . S
H1899 C1875 0.931 . S
H1900 C1877 0.930 . S
H1901 C1879 0.929 . S
H1902 C1880 0.931 . S
H1903 C1882 0.930 . S
H1904 C1886 0.931 . S
H1905 C1884 0.931 . S
H1906 C1888 0.931 . S
H1907 C1889 0.929 . S
H1908 C1890 0.930 . S
H1909 C1893 0.930 . S
H1910 C1894 0.931 . S
H1911 C1898 0.928 . S
H1912 C1897 0.929 . S
H1913 C1895 0.932 . S
C1914 C1915 1.386 . S
C1914 C1916 1.397 . S
C1914 H1938 0.931 . S
C1915 C1914 1.386 . S
C1915 C1919 1.397 . S
C1916 C1914 1.397 . S
C1916 C1917 1.384 . S
C1916 H1939 0.930 . S
C1917 C1916 1.384 . S
C1917 C1918 1.377 . S
C1917 C1920 1.481 . S
C1918 C1917 1.377 . S
C1918 C1919 1.389 . S
C1918 H1940 0.929 . S
C1919 C1915 1.397 . S
C1919 C1918 1.389 . S
C1919 H1941 0.931 . S
C1920 C1917 1.481 . S
C1920 C1921 1.387 . S
C1920 C1925 1.390 . S
C1921 C1920 1.387 . S
C1921 C1922 1.401 . S
C1921 H1942 0.930 . S
C1922 C1921 1.401 . S
C1922 C1923 1.376 . S
C1922 C1931 1.511 . S
C1923 C1922 1.376 . S
C1923 C1924 1.392 . S
C1923 H1944 0.931 . S
C1924 C1923 1.392 . S
C1924 C1925 1.361 . S
C1924 C1926 1.500 . S
C1925 C1920 1.390 . S
C1925 C1924 1.361 . S
C1925 H1943 0.931 . S
C1926 C1924 1.500 . S
C1926 C1927 1.371 . S
C1926 C1928 1.365 . S
C1927 C1926 1.371 . S
C1927 C1937 1.386 . S
C1927 H1945 0.931 . S
C1928 C1926 1.365 . S
C1928 C1929 1.409 . S
C1928 H1946 0.929 . S
C1929 C1928 1.409 . S
C1929 C1930 1.380 . S
C1929 H1947 0.930 . S
C1930 C1929 1.380 . S
C1930 C1937 1.357 . S
C1931 C1922 1.511 . S
C1931 C1932 1.341 . S
C1931 C1933 1.371 . S
C1932 C1931 1.341 . S
C1932 C1936 1.394 . S
C1932 H1948 0.930 . S
C1933 C1931 1.371 . S
C1933 C1934 1.392 . S
C1933 H1949 0.931 . S
C1934 C1933 1.392 . S
C1934 C1935 1.331 . S
C1934 H1952 0.932 . S
C1935 C1934 1.331 . S
C1935 C1936 1.336 . S
C1936 C1932 1.394 . S
C1936 C1935 1.336 . S
C1936 H1951 0.929 . S
C1937 C1927 1.386 . S
C1937 C1930 1.357 . S
C1937 H1950 0.928 . S
H1938 C1914 0.931 . S
H1939 C1916 0.930 . S
H1940 C1918 0.929 . S
H1941 C1919 0.931 . S
H1942 C1921 0.930 . S
H1943 C1925 0.931 . S
H1944 C1923 0.931 . S
H1945 C1927 0.931 . S
H1946 C1928 0.929 . S
H1947 C1929 0.930 . S
H1948 C1932 0.930 . S
H1949 C1933 0.931 . S
H1950 C1937 0.928 . S
H1951 C1936 0.929 . S
H1952 C1934 0.932 . S
C1953 C1954 1.386 . S
C1953 C1955 1.397 . S
C1953 H1977 0.931 . S
C1954 C1953 1.386 . S
C1954 C1958 1.397 . S
C1955 C1953 1.397 . S
C1955 C1956 1.384 . S
C1955 H1978 0.930 . S
C1956 C1955 1.384 . S
C1956 C1957 1.377 . S
C1956 C1959 1.481 . S
C1957 C1956 1.377 . S
C1957 C1958 1.389 . S
C1957 H1979 0.929 . S
C1958 C1954 1.397 . S
C1958 C1957 1.389 . S
C1958 H1980 0.931 . S
C1959 C1956 1.481 . S
C1959 C1960 1.387 . S
C1959 C1964 1.390 . S
C1960 C1959 1.387 . S
C1960 C1961 1.401 . S
C1960 H1981 0.930 . S
C1961 C1960 1.401 . S
C1961 C1962 1.376 . S
C1961 C1970 1.511 . S
C1962 C1961 1.376 . S
C1962 C1963 1.392 . S
C1962 H1983 0.931 . S
C1963 C1962 1.392 . S
C1963 C1964 1.361 . S
C1963 C1965 1.500 . S
C1964 C1959 1.390 . S
C1964 C1963 1.361 . S
C1964 H1982 0.931 . S
C1965 C1963 1.500 . S
C1965 C1966 1.371 . S
C1965 C1967 1.365 . S
C1966 C1965 1.371 . S
C1966 C1976 1.386 . S
C1966 H1984 0.931 . S
C1967 C1965 1.365 . S
C1967 C1968 1.409 . S
C1967 H1985 0.929 . S
C1968 C1967 1.409 . S
C1968 C1969 1.380 . S
C1968 H1986 0.930 . S
C1969 C1968 1.380 . S
C1969 C1976 1.357 . S
C1970 C1961 1.511 . S
C1970 C1971 1.341 . S
C1970 C1972 1.371 . S
C1971 C1970 1.341 . S
C1971 C1975 1.394 . S
C1971 H1987 0.930 . S
C1972 C1970 1.371 . S
C1972 C1973 1.392 . S
C1972 H1988 0.931 . S
C1973 C1972 1.392 . S
C1973 C1974 1.331 . S
C1973 H1991 0.932 . S
C1974 C1973 1.331 . S
C1974 C1975 1.336 . S
C1975 C1971 1.394 . S
C1975 C1974 1.336 . S
C1975 H1990 0.929 . S
C1976 C1966 1.386 . S
C1976 C1969 1.357 . S
C1976 H1989 0.928 . S
H1977 C1953 0.931 . S
H1978 C1955 0.930 . S
H1979 C1957 0.929 . S
H1980 C1958 0.931 . S
H1981 C1960 0.930 . S
H1982 C1964 0.931 . S
H1983 C1962 0.931 . S
H1984 C1966 0.931 . S
H1985 C1967 0.929 . S
H1986 C1968 0.930 . S
H1987 C1971 0.930 . S
H1988 C1972 0.931 . S
H1989 C1976 0.928 . S
H1990 C1975 0.929 . S
H1991 C1973 0.932 . S
C1992 C1993 1.386 . S
C1992 C1994 1.397 . S
C1992 H2016 0.931 . S
C1993 C1992 1.386 . S
C1993 C1997 1.397 . S
C1994 C1992 1.397 . S
C1994 C1995 1.384 . S
C1994 H2017 0.930 . S
C1995 C1994 1.384 . S
C1995 C1996 1.377 . S
C1995 C1998 1.481 . S
C1996 C1995 1.377 . S
C1996 C1997 1.389 . S
C1996 H2018 0.929 . S
C1997 C1993 1.397 . S
C1997 C1996 1.389 . S
C1997 H2019 0.931 . S
C1998 C1995 1.481 . S
C1998 C1999 1.387 . S
C1998 C2003 1.390 . S
C1999 C1998 1.387 . S
C1999 C2000 1.401 . S
C1999 H2020 0.930 . S
C2000 C1999 1.401 . S
C2000 C2001 1.376 . S
C2000 C2009 1.511 . S
C2001 C2000 1.376 . S
C2001 C2002 1.392 . S
C2001 H2022 0.931 . S
C2002 C2001 1.392 . S
C2002 C2003 1.361 . S
C2002 C2004 1.500 . S
C2003 C1998 1.390 . S
C2003 C2002 1.361 . S
C2003 H2021 0.931 . S
C2004 C2002 1.500 . S
C2004 C2005 1.371 . S
C2004 C2006 1.365 . S
C2005 C2004 1.371 . S
C2005 C2015 1.386 . S
C2005 H2023 0.931 . S
C2006 C2004 1.365 . S
C2006 C2007 1.409 . S
C2006 H2024 0.929 . S
C2007 C2006 1.409 . S
C2007 C2008 1.380 . S
C2007 H2025 0.930 . S
C2008 C2007 1.380 . S
C2008 C2015 1.357 . S
C2009 C2000 1.511 . S
C2009 C2010 1.341 . S
C2009 C2011 1.371 . S
C2010 C2009 1.341 . S
C2010 C2014 1.394 . S
C2010 H2026 0.930 . S
C2011 C2009 1.371 . S
C2011 C2012 1.392 . S
C2011 H2027 0.931 . S
C2012 C2011 1.392 . S
C2012 C2013 1.331 . S
C2012 H2030 0.932 . S
C2013 C2012 1.331 . S
C2013 C2014 1.336 . S
C2014 C2010 1.394 . S
C2014 C2013 1.336 . S
C2014 H2029 0.929 . S
C2015 C2005 1.386 . S
C2015 C2008 1.357 . S
C2015 H2028 0.928 . S
H2016 C1992 0.931 . S
H2017 C1994 0.930 . S
H2018 C1996 0.929 . S
H2019 C1997 0.931 . S
H2020 C1999 0.930 . S
H2021 C2003 0.931 . S
H2022 C2001 0.931 . S
H2023 C2005 0.931 . S
H2024 C2006 0.929 . S
H2025 C2007 0.930 . S
H2026 C2010 0.930 . S
H2027 C2011 0.931 . S
H2028 C2015 0.928 . S
H2029 C2014 0.929 . S
H2030 C2012 0.932 . S
C2031 C2032 1.386 . S
C2031 C2033 1.397 . S
C2031 H2055 0.931 . S
C2032 C2031 1.386 . S
C2032 C2036 1.397 . S
C2033 C2031 1.397 . S
C2033 C2034 1.384 . S
C2033 H2056 0.930 . S
C2034 C2033 1.384 . S
C2034 C2035 1.377 . S
C2034 C2037 1.481 . S
C2035 C2034 1.377 . S
C2035 C2036 1.389 . S
C2035 H2057 0.929 . S
C2036 C2032 1.397 . S
C2036 C2035 1.389 . S
C2036 H2058 0.931 . S
C2037 C2034 1.481 . S
C2037 C2038 1.387 . S
C2037 C2042 1.390 . S
C2038 C2037 1.387 . S
C2038 C2039 1.401 . S
C2038 H2059 0.930 . S
C2039 C2038 1.401 . S
C2039 C2040 1.376 . S
C2039 C2048 1.511 . S
C2040 C2039 1.376 . S
C2040 C2041 1.392 . S
C2040 H2061 0.931 . S
C2041 C2040 1.392 . S
C2041 C2042 1.361 . S
C2041 C2043 1.500 . S
C2042 C2037 1.390 . S
C2042 C2041 1.361 . S
C2042 H2060 0.931 . S
C2043 C2041 1.500 . S
C2043 C2044 1.371 . S
C2043 C2045 1.365 . S
C2044 C2043 1.371 . S
C2044 C2054 1.386 . S
C2044 H2062 0.931 . S
C2045 C2043 1.365 . S
C2045 C2046 1.409 . S
C2045 H2063 0.929 . S
C2046 C2045 1.409 . S
C2046 C2047 1.380 . S
C2046 H2064 0.930 . S
C2047 C2046 1.380 . S
C2047 C2054 1.357 . S
C2048 C2039 1.511 . S
C2048 C2049 1.341 . S
C2048 C2050 1.371 . S
C2049 C2048 1.341 . S
C2049 C2053 1.394 . S
C2049 H2065 0.930 . S
C2050 C2048 1.371 . S
C2050 C2051 1.392 . S
C2050 H2066 0.931 . S
C2051 C2050 1.392 . S
C2051 C2052 1.331 . S
C2051 H2069 0.932 . S
C2052 C2051 1.331 . S
C2052 C2053 1.336 . S
C2053 C2049 1.394 . S
C2053 C2052 1.336 . S
C2053 H2068 0.929 . S
C2054 C2044 1.386 . S
C2054 C2047 1.357 . S
C2054 H2067 0.928 . S
H2055 C2031 0.931 . S
H2056 C2033 0.930 . S
H2057 C2035 0.929 . S
H2058 C2036 0.931 . S
H2059 C2038 0.930 . S
H2060 C2042 0.931 . S
H2061 C2040 0.931 . S
H2062 C2044 0.931 . S
H2063 C2045 0.929 . S
H2064 C2046 0.930 . S
H2065 C2049 0.930 . S
H2066 C2050 0.931 . S
H2067 C2054 0.928 . S
H2068 C2053 0.929 . S
H2069 C2051 0.932 . S
C2070 C2071 1.386 . S
C2070 C2072 1.397 . S
C2070 H2094 0.931 . S
C2071 C2070 1.386 . S
C2071 C2075 1.397 . S
C2072 C2070 1.397 . S
C2072 C2073 1.384 . S
C2072 H2095 0.930 . S
C2073 C2072 1.384 . S
C2073 C2074 1.377 . S
C2073 C2076 1.481 . S
C2074 C2073 1.377 . S
C2074 C2075 1.389 . S
C2074 H2096 0.929 . S
C2075 C2071 1.397 . S
C2075 C2074 1.389 . S
C2075 H2097 0.931 . S
C2076 C2073 1.481 . S
C2076 C2077 1.387 . S
C2076 C2081 1.390 . S
C2077 C2076 1.387 . S
C2077 C2078 1.401 . S
C2077 H2098 0.930 . S
C2078 C2077 1.401 . S
C2078 C2079 1.376 . S
C2078 C2087 1.511 . S
C2079 C2078 1.376 . S
C2079 C2080 1.392 . S
C2079 H2100 0.931 . S
C2080 C2079 1.392 . S
C2080 C2081 1.361 . S
C2080 C2082 1.500 . S
C2081 C2076 1.390 . S
C2081 C2080 1.361 . S
C2081 H2099 0.931 . S
C2082 C2080 1.500 . S
C2082 C2083 1.371 . S
C2082 C2084 1.365 . S
C2083 C2082 1.371 . S
C2083 C2093 1.386 . S
C2083 H2101 0.931 . S
C2084 C2082 1.365 . S
C2084 C2085 1.409 . S
C2084 H2102 0.929 . S
C2085 C2084 1.409 . S
C2085 C2086 1.380 . S
C2085 H2103 0.930 . S
C2086 C2085 1.380 . S
C2086 C2093 1.357 . S
C2087 C2078 1.511 . S
C2087 C2088 1.341 . S
C2087 C2089 1.371 . S
C2088 C2087 1.341 . S
C2088 C2092 1.394 . S
C2088 H2104 0.930 . S
C2089 C2087 1.371 . S
C2089 C2090 1.392 . S
C2089 H2105 0.931 . S
C2090 C2089 1.392 . S
C2090 C2091 1.331 . S
C2090 H2108 0.932 . S
C2091 C2090 1.331 . S
C2091 C2092 1.336 . S
C2092 C2088 1.394 . S
C2092 C2091 1.336 . S
C2092 H2107 0.929 . S
C2093 C2083 1.386 . S
C2093 C2086 1.357 . S
C2093 H2106 0.928 . S
H2094 C2070 0.931 . S
H2095 C2072 0.930 . S
H2096 C2074 0.929 . S
H2097 C2075 0.931 . S
H2098 C2077 0.930 . S
H2099 C2081 0.931 . S
H2100 C2079 0.931 . S
H2101 C2083 0.931 . S
H2102 C2084 0.929 . S
H2103 C2085 0.930 . S
H2104 C2088 0.930 . S
H2105 C2089 0.931 . S
H2106 C2093 0.928 . S
H2107 C2092 0.929 . S
H2108 C2090 0.932 . S
C2109 C2110 1.386 . S
C2109 C2111 1.397 . S
C2109 H2133 0.931 . S
C2110 C2109 1.386 . S
C2110 C2114 1.397 . S
C2111 C2109 1.397 . S
C2111 C2112 1.384 . S
C2111 H2134 0.930 . S
C2112 C2111 1.384 . S
C2112 C2113 1.377 . S
C2112 C2115 1.481 . S
C2113 C2112 1.377 . S
C2113 C2114 1.389 . S
C2113 H2135 0.929 . S
C2114 C2110 1.397 . S
C2114 C2113 1.389 . S
C2114 H2136 0.931 . S
C2115 C2112 1.481 . S
C2115 C2116 1.387 . S
C2115 C2120 1.390 . S
C2116 C2115 1.387 . S
C2116 C2117 1.401 . S
C2116 H2137 0.930 . S
C2117 C2116 1.401 . S
C2117 C2118 1.376 . S
C2117 C2126 1.511 . S
C2118 C2117 1.376 . S
C2118 C2119 1.392 . S
C2118 H2139 0.931 . S
C2119 C2118 1.392 . S
C2119 C2120 1.361 . S
C2119 C2121 1.500 . S
C2120 C2115 1.390 . S
C2120 C2119 1.361 . S
C2120 H2138 0.931 . S
C2121 C2119 1.500 . S
C2121 C2122 1.371 . S
C2121 C2123 1.365 . S
C2122 C2121 1.371 . S
C2122 C2132 1.386 . S
C2122 H2140 0.931 . S
C2123 C2121 1.365 . S
C2123 C2124 1.409 . S
C2123 H2141 0.929 . S
C2124 C2123 1.409 . S
C2124 C2125 1.380 . S
C2124 H2142 0.930 . S
C2125 C2124 1.380 . S
C2125 C2132 1.357 . S
C2126 C2117 1.511 . S
C2126 C2127 1.341 . S
C2126 C2128 1.371 . S
C2127 C2126 1.341 . S
C2127 C2131 1.394 . S
C2127 H2143 0.930 . S
C2128 C2126 1.371 . S
C2128 C2129 1.392 . S
C2128 H2144 0.931 . S
C2129 C2128 1.392 . S
C2129 C2130 1.331 . S
C2129 H2147 0.932 . S
C2130 C2129 1.331 . S
C2130 C2131 1.336 . S
C2131 C2127 1.394 . S
C2131 C2130 1.336 . S
C2131 H2146 0.929 . S
C2132 C2122 1.386 . S
C2132 C2125 1.357 . S
C2132 H2145 0.928 . S
H2133 C2109 0.931 . S
H2134 C2111 0.930 . S
H2135 C2113 0.929 . S
H2136 C2114 0.931 . S
H2137 C2116 0.930 . S
H2138 C2120 0.931 . S
H2139 C2118 0.931 . S
H2140 C2122 0.931 . S
H2141 C2123 0.929 . S
H2142 C2124 0.930 . S
H2143 C2127 0.930 . S
H2144 C2128 0.931 . S
H2145 C2132 0.928 . S
H2146 C2131 0.929 . S
H2147 C2129 0.932 . S
C2148 C2149 1.386 . S
C2148 C2150 1.397 . S
C2148 H2172 0.931 . S
C2149 C2148 1.386 . S
C2149 C2153 1.397 . S
C2150 C2148 1.397 . S
C2150 C2151 1.384 . S
C2150 H2173 0.930 . S
C2151 C2150 1.384 . S
C2151 C2152 1.377 . S
C2151 C2154 1.481 . S
C2152 C2151 1.377 . S
C2152 C2153 1.389 . S
C2152 H2174 0.929 . S
C2153 C2149 1.397 . S
C2153 C2152 1.389 . S
C2153 H2175 0.931 . S
C2154 C2151 1.481 . S
C2154 C2155 1.387 . S
C2154 C2159 1.390 . S
C2155 C2154 1.387 . S
C2155 C2156 1.401 . S
C2155 H2176 0.930 . S
C2156 C2155 1.401 . S
C2156 C2157 1.376 . S
C2156 C2165 1.511 . S
C2157 C2156 1.376 . S
C2157 C2158 1.392 . S
C2157 H2178 0.931 . S
C2158 C2157 1.392 . S
C2158 C2159 1.361 . S
C2158 C2160 1.500 . S
C2159 C2154 1.390 . S
C2159 C2158 1.361 . S
C2159 H2177 0.931 . S
C2160 C2158 1.500 . S
C2160 C2161 1.371 . S
C2160 C2162 1.365 . S
C2161 C2160 1.371 . S
C2161 C2171 1.386 . S
C2161 H2179 0.931 . S
C2162 C2160 1.365 . S
C2162 C2163 1.409 . S
C2162 H2180 0.929 . S
C2163 C2162 1.409 . S
C2163 C2164 1.380 . S
C2163 H2181 0.930 . S
C2164 C2163 1.380 . S
C2164 C2171 1.357 . S
C2165 C2156 1.511 . S
C2165 C2166 1.341 . S
C2165 C2167 1.371 . S
C2166 C2165 1.341 . S
C2166 C2170 1.394 . S
C2166 H2182 0.930 . S
C2167 C2165 1.371 . S
C2167 C2168 1.392 . S
C2167 H2183 0.931 . S
C2168 C2167 1.392 . S
C2168 C2169 1.331 . S
C2168 H2186 0.932 . S
C2169 C2168 1.331 . S
C2169 C2170 1.336 . S
C2170 C2166 1.394 . S
C2170 C2169 1.336 . S
C2170 H2185 0.929 . S
C2171 C2161 1.386 . S
C2171 C2164 1.357 . S
C2171 H2184 0.928 . S
H2172 C2148 0.931 . S
H2173 C2150 0.930 . S
H2174 C2152 0.929 . S
H2175 C2153 0.931 . S
H2176 C2155 0.930 . S
H2177 C2159 0.931 . S
H2178 C2157 0.931 . S
H2179 C2161 0.931 . S
H2180 C2162 0.929 . S
H2181 C2163 0.930 . S
H2182 C2166 0.930 . S
H2183 C2167 0.931 . S
H2184 C2171 0.928 . S
H2185 C2170 0.929 . S
H2186 C2168 0.932 . S
C2187 C2188 1.386 . S
C2187 C2189 1.397 . S
C2187 H2211 0.931 . S
C2188 C2187 1.386 . S
C2188 C2192 1.397 . S
C2189 C2187 1.397 . S
C2189 C2190 1.384 . S
C2189 H2212 0.930 . S
C2190 C2189 1.384 . S
C2190 C2191 1.377 . S
C2190 C2193 1.481 . S
C2191 C2190 1.377 . S
C2191 C2192 1.389 . S
C2191 H2213 0.929 . S
C2192 C2188 1.397 . S
C2192 C2191 1.389 . S
C2192 H2214 0.931 . S
C2193 C2190 1.481 . S
C2193 C2194 1.387 . S
C2193 C2198 1.390 . S
C2194 C2193 1.387 . S
C2194 C2195 1.401 . S
C2194 H2215 0.930 . S
C2195 C2194 1.401 . S
C2195 C2196 1.376 . S
C2195 C2204 1.511 . S
C2196 C2195 1.376 . S
C2196 C2197 1.392 . S
C2196 H2217 0.931 . S
C2197 C2196 1.392 . S
C2197 C2198 1.361 . S
C2197 C2199 1.500 . S
C2198 C2193 1.390 . S
C2198 C2197 1.361 . S
C2198 H2216 0.931 . S
C2199 C2197 1.500 . S
C2199 C2200 1.371 . S
C2199 C2201 1.365 . S
C2200 C2199 1.371 . S
C2200 C2210 1.386 . S
C2200 H2218 0.931 . S
C2201 C2199 1.365 . S
C2201 C2202 1.409 . S
C2201 H2219 0.929 . S
C2202 C2201 1.409 . S
C2202 C2203 1.380 . S
C2202 H2220 0.930 . S
C2203 C2202 1.380 . S
C2203 C2210 1.357 . S
C2204 C2195 1.511 . S
C2204 C2205 1.341 . S
C2204 C2206 1.371 . S
C2205 C2204 1.341 . S
C2205 C2209 1.394 . S
C2205 H2221 0.930 . S
C2206 C2204 1.371 . S
C2206 C2207 1.392 . S
C2206 H2222 0.931 . S
C2207 C2206 1.392 . S
C2207 C2208 1.331 . S
C2207 H2225 0.932 . S
C2208 C2207 1.331 . S
C2208 C2209 1.336 . S
C2209 C2205 1.394 . S
C2209 C2208 1.336 . S
C2209 H2224 0.929 . S
C2210 C2200 1.386 . S
C2210 C2203 1.357 . S
C2210 H2223 0.928 . S
H2211 C2187 0.931 . S
H2212 C2189 0.930 . S
H2213 C2191 0.929 . S
H2214 C2192 0.931 . S
H2215 C2194 0.930 . S
H2216 C2198 0.931 . S
H2217 C2196 0.931 . S
H2218 C2200 0.931 . S
H2219 C2201 0.929 . S
H2220 C2202 0.930 . S
H2221 C2205 0.930 . S
H2222 C2206 0.931 . S
H2223 C2210 0.928 . S
H2224 C2209 0.929 . S
H2225 C2207 0.932 . S
C2226 C2227 1.386 . S
C2226 C2228 1.397 . S
C2226 H2250 0.931 . S
C2227 C2226 1.386 . S
C2227 C2231 1.397 . S
C2228 C2226 1.397 . S
C2228 C2229 1.384 . S
C2228 H2251 0.930 . S
C2229 C2228 1.384 . S
C2229 C2230 1.377 . S
C2229 C2232 1.481 . S
C2230 C2229 1.377 . S
C2230 C2231 1.389 . S
C2230 H2252 0.929 . S
C2231 C2227 1.397 . S
C2231 C2230 1.389 . S
C2231 H2253 0.931 . S
C2232 C2229 1.481 . S
C2232 C2233 1.387 . S
C2232 C2237 1.390 . S
C2233 C2232 1.387 . S
C2233 C2234 1.401 . S
C2233 H2254 0.930 . S
C2234 C2233 1.401 . S
C2234 C2235 1.376 . S
C2234 C2243 1.511 . S
C2235 C2234 1.376 . S
C2235 C2236 1.392 . S
C2235 H2256 0.931 . S
C2236 C2235 1.392 . S
C2236 C2237 1.361 . S
C2236 C2238 1.500 . S
C2237 C2232 1.390 . S
C2237 C2236 1.361 . S
C2237 H2255 0.931 . S
C2238 C2236 1.500 . S
C2238 C2239 1.371 . S
C2238 C2240 1.365 . S
C2239 C2238 1.371 . S
C2239 C2249 1.386 . S
C2239 H2257 0.931 . S
C2240 C2238 1.365 . S
C2240 C2241 1.409 . S
C2240 H2258 0.929 . S
C2241 C2240 1.409 . S
C2241 C2242 1.380 . S
C2241 H2259 0.930 . S
C2242 C2241 1.380 . S
C2242 C2249 1.357 . S
C2243 C2234 1.511 . S
C2243 C2244 1.341 . S
C2243 C2245 1.371 . S
C2244 C2243 1.341 . S
C2244 C2248 1.394 . S
C2244 H2260 0.930 . S
C2245 C2243 1.371 . S
C2245 C2246 1.392 . S
C2245 H2261 0.931 . S
C2246 C2245 1.392 . S
C2246 C2247 1.331 . S
C2246 H2264 0.932 . S
C2247 C2246 1.331 . S
C2247 C2248 1.336 . S
C2248 C2244 1.394 . S
C2248 C2247 1.336 . S
C2248 H2263 0.929 . S
C2249 C2239 1.386 . S
C2249 C2242 1.357 . S
C2249 H2262 0.928 . S
H2250 C2226 0.931 . S
H2251 C2228 0.930 . S
H2252 C2230 0.929 . S
H2253 C2231 0.931 . S
H2254 C2233 0.930 . S
H2255 C2237 0.931 . S
H2256 C2235 0.931 . S
H2257 C2239 0.931 . S
H2258 C2240 0.929 . S
H2259 C2241 0.930 . S
H2260 C2244 0.930 . S
H2261 C2245 0.931 . S
H2262 C2249 0.928 . S
H2263 C2248 0.929 . S
H2264 C2246 0.932 . S
C2265 C2266 1.386 . S
C2265 C2267 1.397 . S
C2265 H2289 0.931 . S
C2266 C2265 1.386 . S
C2266 C2270 1.397 . S
C2267 C2265 1.397 . S
C2267 C2268 1.384 . S
C2267 H2290 0.930 . S
C2268 C2267 1.384 . S
C2268 C2269 1.377 . S
C2268 C2271 1.481 . S
C2269 C2268 1.377 . S
C2269 C2270 1.389 . S
C2269 H2291 0.929 . S
C2270 C2266 1.397 . S
C2270 C2269 1.389 . S
C2270 H2292 0.931 . S
C2271 C2268 1.481 . S
C2271 C2272 1.387 . S
C2271 C2276 1.390 . S
C2272 C2271 1.387 . S
C2272 C2273 1.401 . S
C2272 H2293 0.930 . S
C2273 C2272 1.401 . S
C2273 C2274 1.376 . S
C2273 C2282 1.511 . S
C2274 C2273 1.376 . S
C2274 C2275 1.392 . S
C2274 H2295 0.931 . S
C2275 C2274 1.392 . S
C2275 C2276 1.361 . S
C2275 C2277 1.500 . S
C2276 C2271 1.390 . S
C2276 C2275 1.361 . S
C2276 H2294 0.931 . S
C2277 C2275 1.500 . S
C2277 C2278 1.371 . S
C2277 C2279 1.365 . S
C2278 C2277 1.371 . S
C2278 C2288 1.386 . S
C2278 H2296 0.931 . S
C2279 C2277 1.365 . S
C2279 C2280 1.409 . S
C2279 H2297 0.929 . S
C2280 C2279 1.409 . S
C2280 C2281 1.380 . S
C2280 H2298 0.930 . S
C2281 C2280 1.380 . S
C2281 C2288 1.357 . S
C2282 C2273 1.511 . S
C2282 C2283 1.341 . S
C2282 C2284 1.371 . S
C2283 C2282 1.341 . S
C2283 C2287 1.394 . S
C2283 H2299 0.930 . S
C2284 C2282 1.371 . S
C2284 C2285 1.392 . S
C2284 H2300 0.931 . S
C2285 C2284 1.392 . S
C2285 C2286 1.331 . S
C2285 H2303 0.932 . S
C2286 C2285 1.331 . S
C2286 C2287 1.336 . S
C2287 C2283 1.394 . S
C2287 C2286 1.336 . S
C2287 H2302 0.929 . S
C2288 C2278 1.386 . S
C2288 C2281 1.357 . S
C2288 H2301 0.928 . S
H2289 C2265 0.931 . S
H2290 C2267 0.930 . S
H2291 C2269 0.929 . S
H2292 C2270 0.931 . S
H2293 C2272 0.930 . S
H2294 C2276 0.931 . S
H2295 C2274 0.931 . S
H2296 C2278 0.931 . S
H2297 C2279 0.929 . S
H2298 C2280 0.930 . S
H2299 C2283 0.930 . S
H2300 C2284 0.931 . S
H2301 C2288 0.928 . S
H2302 C2287 0.929 . S
H2303 C2285 0.932 . S
C2304 C2305 1.386 . S
C2304 C2306 1.397 . S
C2304 H2328 0.931 . S
C2305 C2304 1.386 . S
C2305 C2309 1.397 . S
C2306 C2304 1.397 . S
C2306 C2307 1.384 . S
C2306 H2329 0.930 . S
C2307 C2306 1.384 . S
C2307 C2308 1.377 . S
C2307 C2310 1.481 . S
C2308 C2307 1.377 . S
C2308 C2309 1.389 . S
C2308 H2330 0.929 . S
C2309 C2305 1.397 . S
C2309 C2308 1.389 . S
C2309 H2331 0.931 . S
C2310 C2307 1.481 . S
C2310 C2311 1.387 . S
C2310 C2315 1.390 . S
C2311 C2310 1.387 . S
C2311 C2312 1.401 . S
C2311 H2332 0.930 . S
C2312 C2311 1.401 . S
C2312 C2313 1.376 . S
C2312 C2321 1.511 . S
C2313 C2312 1.376 . S
C2313 C2314 1.392 . S
C2313 H2334 0.931 . S
C2314 C2313 1.392 . S
C2314 C2315 1.361 . S
C2314 C2316 1.500 . S
C2315 C2310 1.390 . S
C2315 C2314 1.361 . S
C2315 H2333 0.931 . S
C2316 C2314 1.500 . S
C2316 C2317 1.371 . S
C2316 C2318 1.365 . S
C2317 C2316 1.371 . S
C2317 C2327 1.386 . S
C2317 H2335 0.931 . S
C2318 C2316 1.365 . S
C2318 C2319 1.409 . S
C2318 H2336 0.929 . S
C2319 C2318 1.409 . S
C2319 C2320 1.380 . S
C2319 H2337 0.930 . S
C2320 C2319 1.380 . S
C2320 C2327 1.357 . S
C2321 C2312 1.511 . S
C2321 C2322 1.341 . S
C2321 C2323 1.371 . S
C2322 C2321 1.341 . S
C2322 C2326 1.394 . S
C2322 H2338 0.930 . S
C2323 C2321 1.371 . S
C2323 C2324 1.392 . S
C2323 H2339 0.931 . S
C2324 C2323 1.392 . S
C2324 C2325 1.331 . S
C2324 H2342 0.932 . S
C2325 C2324 1.331 . S
C2325 C2326 1.336 . S
C2326 C2322 1.394 . S
C2326 C2325 1.336 . S
C2326 H2341 0.929 . S
C2327 C2317 1.386 . S
C2327 C2320 1.357 . S
C2327 H2340 0.928 . S
H2328 C2304 0.931 . S
H2329 C2306 0.930 . S
H2330 C2308 0.929 . S
H2331 C2309 0.931 . S
H2332 C2311 0.930 . S
H2333 C2315 0.931 . S
H2334 C2313 0.931 . S
H2335 C2317 0.931 . S
H2336 C2318 0.929 . S
H2337 C2319 0.930 . S
H2338 C2322 0.930 . S
H2339 C2323 0.931 . S
H2340 C2327 0.928 . S
H2341 C2326 0.929 . S
H2342 C2324 0.932 . S
C2343 C2344 1.386 . S
C2343 C2345 1.397 . S
C2343 H2367 0.931 . S
C2344 C2343 1.386 . S
C2344 C2348 1.397 . S
C2345 C2343 1.397 . S
C2345 C2346 1.384 . S
C2345 H2368 0.930 . S
C2346 C2345 1.384 . S
C2346 C2347 1.377 . S
C2346 C2349 1.481 . S
C2347 C2346 1.377 . S
C2347 C2348 1.389 . S
C2347 H2369 0.929 . S
C2348 C2344 1.397 . S
C2348 C2347 1.389 . S
C2348 H2370 0.931 . S
C2349 C2346 1.481 . S
C2349 C2350 1.387 . S
C2349 C2354 1.390 . S
C2350 C2349 1.387 . S
C2350 C2351 1.401 . S
C2350 H2371 0.930 . S
C2351 C2350 1.401 . S
C2351 C2352 1.376 . S
C2351 C2360 1.511 . S
C2352 C2351 1.376 . S
C2352 C2353 1.392 . S
C2352 H2373 0.931 . S
C2353 C2352 1.392 . S
C2353 C2354 1.361 . S
C2353 C2355 1.500 . S
C2354 C2349 1.390 . S
C2354 C2353 1.361 . S
C2354 H2372 0.931 . S
C2355 C2353 1.500 . S
C2355 C2356 1.371 . S
C2355 C2357 1.365 . S
C2356 C2355 1.371 . S
C2356 C2366 1.386 . S
C2356 H2374 0.931 . S
C2357 C2355 1.365 . S
C2357 C2358 1.409 . S
C2357 H2375 0.929 . S
C2358 C2357 1.409 . S
C2358 C2359 1.380 . S
C2358 H2376 0.930 . S
C2359 C2358 1.380 . S
C2359 C2366 1.357 . S
C2360 C2351 1.511 . S
C2360 C2361 1.341 . S
C2360 C2362 1.371 . S
C2361 C2360 1.341 . S
C2361 C2365 1.394 . S
C2361 H2377 0.930 . S
C2362 C2360 1.371 . S
C2362 C2363 1.392 . S
C2362 H2378 0.931 . S
C2363 C2362 1.392 . S
C2363 C2364 1.331 . S
C2363 H2381 0.932 . S
C2364 C2363 1.331 . S
C2364 C2365 1.336 . S
C2365 C2361 1.394 . S
C2365 C2364 1.336 . S
C2365 H2380 0.929 . S
C2366 C2356 1.386 . S
C2366 C2359 1.357 . S
C2366 H2379 0.928 . S
H2367 C2343 0.931 . S
H2368 C2345 0.930 . S
H2369 C2347 0.929 . S
H2370 C2348 0.931 . S
H2371 C2350 0.930 . S
H2372 C2354 0.931 . S
H2373 C2352 0.931 . S
H2374 C2356 0.931 . S
H2375 C2357 0.929 . S
H2376 C2358 0.930 . S
H2377 C2361 0.930 . S
H2378 C2362 0.931 . S
H2379 C2366 0.928 . S
H2380 C2365 0.929 . S
H2381 C2363 0.932 . S
C2382 C2383 1.386 . S
C2382 C2384 1.397 . S
C2382 H2406 0.931 . S
C2383 C2382 1.386 . S
C2383 C2387 1.397 . S
C2384 C2382 1.397 . S
C2384 C2385 1.384 . S
C2384 H2407 0.930 . S
C2385 C2384 1.384 . S
C2385 C2386 1.377 . S
C2385 C2388 1.481 . S
C2386 C2385 1.377 . S
C2386 C2387 1.389 . S
C2386 H2408 0.929 . S
C2387 C2383 1.397 . S
C2387 C2386 1.389 . S
C2387 H2409 0.931 . S
C2388 C2385 1.481 . S
C2388 C2389 1.387 . S
C2388 C2393 1.390 . S
C2389 C2388 1.387 . S
C2389 C2390 1.401 . S
C2389 H2410 0.930 . S
C2390 C2389 1.401 . S
C2390 C2391 1.376 . S
C2390 C2399 1.511 . S
C2391 C2390 1.376 . S
C2391 C2392 1.392 . S
C2391 H2412 0.931 . S
C2392 C2391 1.392 . S
C2392 C2393 1.361 . S
C2392 C2394 1.500 . S
C2393 C2388 1.390 . S
C2393 C2392 1.361 . S
C2393 H2411 0.931 . S
C2394 C2392 1.500 . S
C2394 C2395 1.371 . S
C2394 C2396 1.365 . S
C2395 C2394 1.371 . S
C2395 C2405 1.386 . S
C2395 H2413 0.931 . S
C2396 C2394 1.365 . S
C2396 C2397 1.409 . S
C2396 H2414 0.929 . S
C2397 C2396 1.409 . S
C2397 C2398 1.380 . S
C2397 H2415 0.930 . S
C2398 C2397 1.380 . S
C2398 C2405 1.357 . S
C2399 C2390 1.511 . S
C2399 C2400 1.341 . S
C2399 C2401 1.371 . S
C2400 C2399 1.341 . S
C2400 C2404 1.394 . S
C2400 H2416 0.930 . S
C2401 C2399 1.371 . S
C2401 C2402 1.392 . S
C2401 H2417 0.931 . S
C2402 C2401 1.392 . S
C2402 C2403 1.331 . S
C2402 H2420 0.932 . S
C2403 C2402 1.331 . S
C2403 C2404 1.336 . S
C2404 C2400 1.394 . S
C2404 C2403 1.336 . S
C2404 H2419 0.929 . S
C2405 C2395 1.386 . S
C2405 C2398 1.357 . S
C2405 H2418 0.928 . S
H2406 C2382 0.931 . S
H2407 C2384 0.930 . S
H2408 C2386 0.929 . S
H2409 C2387 0.931 . S
H2410 C2389 0.930 . S
H2411 C2393 0.931 . S
H2412 C2391 0.931 . S
H2413 C2395 0.931 . S
H2414 C2396 0.929 . S
H2415 C2397 0.930 . S
H2416 C2400 0.930 . S
H2417 C2401 0.931 . S
H2418 C2405 0.928 . S
H2419 C2404 0.929 . S
H2420 C2402 0.932 . S
C2421 C2422 1.386 . S
C2421 C2423 1.397 . S
C2421 H2445 0.931 . S
C2422 C2421 1.386 . S
C2422 C2426 1.397 . S
C2423 C2421 1.397 . S
C2423 C2424 1.384 . S
C2423 H2446 0.930 . S
C2424 C2423 1.384 . S
C2424 C2425 1.377 . S
C2424 C2427 1.481 . S
C2425 C2424 1.377 . S
C2425 C2426 1.389 . S
C2425 H2447 0.929 . S
C2426 C2422 1.397 . S
C2426 C2425 1.389 . S
C2426 H2448 0.931 . S
C2427 C2424 1.481 . S
C2427 C2428 1.387 . S
C2427 C2432 1.390 . S
C2428 C2427 1.387 . S
C2428 C2429 1.401 . S
C2428 H2449 0.930 . S
C2429 C2428 1.401 . S
C2429 C2430 1.376 . S
C2429 C2438 1.511 . S
C2430 C2429 1.376 . S
C2430 C2431 1.392 . S
C2430 H2451 0.931 . S
C2431 C2430 1.392 . S
C2431 C2432 1.361 . S
C2431 C2433 1.500 . S
C2432 C2427 1.390 . S
C2432 C2431 1.361 . S
C2432 H2450 0.931 . S
C2433 C2431 1.500 . S
C2433 C2434 1.371 . S
C2433 C2435 1.365 . S
C2434 C2433 1.371 . S
C2434 C2444 1.386 . S
C2434 H2452 0.931 . S
C2435 C2433 1.365 . S
C2435 C2436 1.409 . S
C2435 H2453 0.929 . S
C2436 C2435 1.409 . S
C2436 C2437 1.380 . S
C2436 H2454 0.930 . S
C2437 C2436 1.380 . S
C2437 C2444 1.357 . S
C2438 C2429 1.511 . S
C2438 C2439 1.341 . S
C2438 C2440 1.371 . S
C2439 C2438 1.341 . S
C2439 C2443 1.394 . S
C2439 H2455 0.930 . S
C2440 C2438 1.371 . S
C2440 C2441 1.392 . S
C2440 H2456 0.931 . S
C2441 C2440 1.392 . S
C2441 C2442 1.331 . S
C2441 H2459 0.932 . S
C2442 C2441 1.331 . S
C2442 C2443 1.336 . S
C2443 C2439 1.394 . S
C2443 C2442 1.336 . S
C2443 H2458 0.929 . S
C2444 C2434 1.386 . S
C2444 C2437 1.357 . S
C2444 H2457 0.928 . S
H2445 C2421 0.931 . S
H2446 C2423 0.930 . S
H2447 C2425 0.929 . S
H2448 C2426 0.931 . S
H2449 C2428 0.930 . S
H2450 C2432 0.931 . S
H2451 C2430 0.931 . S
H2452 C2434 0.931 . S
H2453 C2435 0.929 . S
H2454 C2436 0.930 . S
H2455 C2439 0.930 . S
H2456 C2440 0.931 . S
H2457 C2444 0.928 . S
H2458 C2443 0.929 . S
H2459 C2441 0.932 . S
C2460 C2461 1.386 . S
C2460 C2462 1.397 . S
C2460 H2484 0.931 . S
C2461 C2460 1.386 . S
C2461 C2465 1.397 . S
C2462 C2460 1.397 . S
C2462 C2463 1.384 . S
C2462 H2485 0.930 . S
C2463 C2462 1.384 . S
C2463 C2464 1.377 . S
C2463 C2466 1.481 . S
C2464 C2463 1.377 . S
C2464 C2465 1.389 . S
C2464 H2486 0.929 . S
C2465 C2461 1.397 . S
C2465 C2464 1.389 . S
C2465 H2487 0.931 . S
C2466 C2463 1.481 . S
C2466 C2467 1.387 . S
C2466 C2471 1.390 . S
C2467 C2466 1.387 . S
C2467 C2468 1.401 . S
C2467 H2488 0.930 . S
C2468 C2467 1.401 . S
C2468 C2469 1.376 . S
C2468 C2477 1.511 . S
C2469 C2468 1.376 . S
C2469 C2470 1.392 . S
C2469 H2490 0.931 . S
C2470 C2469 1.392 . S
C2470 C2471 1.361 . S
C2470 C2472 1.500 . S
C2471 C2466 1.390 . S
C2471 C2470 1.361 . S
C2471 H2489 0.931 . S
C2472 C2470 1.500 . S
C2472 C2473 1.371 . S
C2472 C2474 1.365 . S
C2473 C2472 1.371 . S
C2473 C2483 1.386 . S
C2473 H2491 0.931 . S
C2474 C2472 1.365 . S
C2474 C2475 1.409 . S
C2474 H2492 0.929 . S
C2475 C2474 1.409 . S
C2475 C2476 1.380 . S
C2475 H2493 0.930 . S
C2476 C2475 1.380 . S
C2476 C2483 1.357 . S
C2477 C2468 1.511 . S
C2477 C2478 1.341 . S
C2477 C2479 1.371 . S
C2478 C2477 1.341 . S
C2478 C2482 1.394 . S
C2478 H2494 0.930 . S
C2479 C2477 1.371 . S
C2479 C2480 1.392 . S
C2479 H2495 0.931 . S
C2480 C2479 1.392 . S
C2480 C2481 1.331 . S
C2480 H2498 0.932 . S
C2481 C2480 1.331 . S
C2481 C2482 1.336 . S
C2482 C2478 1.394 . S
C2482 C2481 1.336 . S
C2482 H2497 0.929 . S
C2483 C2473 1.386 . S
C2483 C2476 1.357 . S
C2483 H2496 0.928 . S
H2484 C2460 0.931 . S
H2485 C2462 0.930 . S
H2486 C2464 0.929 . S
H2487 C2465 0.931 . S
H2488 C2467 0.930 . S
H2489 C2471 0.931 . S
H2490 C2469 0.931 . S
H2491 C2473 0.931 . S
H2492 C2474 0.929 . S
H2493 C2475 0.930 . S
H2494 C2478 0.930 . S
H2495 C2479 0.931 . S
H2496 C2483 0.928 . S
H2497 C2482 0.929 . S
H2498 C2480 0.932 . S
C2499 C2500 1.386 . S
C2499 C2501 1.397 . S
C2499 H2523 0.931 . S
C2500 C2499 1.386 . S
C2500 C2504 1.397 . S
C2501 C2499 1.397 . S
C2501 C2502 1.384 . S
C2501 H2524 0.930 . S
C2502 C2501 1.384 . S
C2502 C2503 1.377 . S
C2502 C2505 1.481 . S
C2503 C2502 1.377 . S
C2503 C2504 1.389 . S
C2503 H2525 0.929 . S
C2504 C2500 1.397 . S
C2504 C2503 1.389 . S
C2504 H2526 0.931 . S
C2505 C2502 1.481 . S
C2505 C2506 1.387 . S
C2505 C2510 1.390 . S
C2506 C2505 1.387 . S
C2506 C2507 1.401 . S
C2506 H2527 0.930 . S
C2507 C2506 1.401 . S
C2507 C2508 1.376 . S
C2507 C2516 1.511 . S
C2508 C2507 1.376 . S
C2508 C2509 1.392 . S
C2508 H2529 0.931 . S
C2509 C2508 1.392 . S
C2509 C2510 1.361 . S
C2509 C2511 1.500 . S
C2510 C2505 1.390 . S
C2510 C2509 1.361 . S
C2510 H2528 0.931 . S
C2511 C2509 1.500 . S
C2511 C2512 1.371 . S
C2511 C2513 1.365 . S
C2512 C2511 1.371 . S
C2512 C2522 1.386 . S
C2512 H2530 0.931 . S
C2513 C2511 1.365 . S
C2513 C2514 1.409 . S
C2513 H2531 0.929 . S
C2514 C2513 1.409 . S
C2514 C2515 1.380 . S
C2514 H2532 0.930 . S
C2515 C2514 1.380 . S
C2515 C2522 1.357 . S
C2516 C2507 1.511 . S
C2516 C2517 1.341 . S
C2516 C2518 1.371 . S
C2517 C2516 1.341 . S
C2517 C2521 1.394 . S
C2517 H2533 0.930 . S
C2518 C2516 1.371 . S
C2518 C2519 1.392 . S
C2518 H2534 0.931 . S
C2519 C2518 1.392 . S
C2519 C2520 1.331 . S
C2519 H2537 0.932 . S
C2520 C2519 1.331 . S
C2520 C2521 1.336 . S
C2521 C2517 1.394 . S
C2521 C2520 1.336 . S
C2521 H2536 0.929 . S
C2522 C2512 1.386 . S
C2522 C2515 1.357 . S
C2522 H2535 0.928 . S
H2523 C2499 0.931 . S
H2524 C2501 0.930 . S
H2525 C2503 0.929 . S
H2526 C2504 0.931 . S
H2527 C2506 0.930 . S
H2528 C2510 0.931 . S
H2529 C2508 0.931 . S
H2530 C2512 0.931 . S
H2531 C2513 0.929 . S
H2532 C2514 0.930 . S
H2533 C2517 0.930 . S
H2534 C2518 0.931 . S
H2535 C2522 0.928 . S
H2536 C2521 0.929 . S
H2537 C2519 0.932 . S
C2538 C2539 1.386 . S
C2538 C2540 1.397 . S
C2538 H2562 0.931 . S
C2539 C2538 1.386 . S
C2539 C2543 1.397 . S
C2540 C2538 1.397 . S
C2540 C2541 1.384 . S
C2540 H2563 0.930 . S
C2541 C2540 1.384 . S
C2541 C2542 1.377 . S
C2541 C2544 1.481 . S
C2542 C2541 1.377 . S
C2542 C2543 1.389 . S
C2542 H2564 0.929 . S
C2543 C2539 1.397 . S
C2543 C2542 1.389 . S
C2543 H2565 0.931 . S
C2544 C2541 1.481 . S
C2544 C2545 1.387 . S
C2544 C2549 1.390 . S
C2545 C2544 1.387 . S
C2545 C2546 1.401 . S
C2545 H2566 0.930 . S
C2546 C2545 1.401 . S
C2546 C2547 1.376 . S
C2546 C2555 1.511 . S
C2547 C2546 1.376 . S
C2547 C2548 1.392 . S
C2547 H2568 0.931 . S
C2548 C2547 1.392 . S
C2548 C2549 1.361 . S
C2548 C2550 1.500 . S
C2549 C2544 1.390 . S
C2549 C2548 1.361 . S
C2549 H2567 0.931 . S
C2550 C2548 1.500 . S
C2550 C2551 1.371 . S
C2550 C2552 1.365 . S
C2551 C2550 1.371 . S
C2551 C2561 1.386 . S
C2551 H2569 0.931 . S
C2552 C2550 1.365 . S
C2552 C2553 1.409 . S
C2552 H2570 0.929 . S
C2553 C2552 1.409 . S
C2553 C2554 1.380 . S
C2553 H2571 0.930 . S
C2554 C2553 1.380 . S
C2554 C2561 1.357 . S
C2555 C2546 1.511 . S
C2555 C2556 1.341 . S
C2555 C2557 1.371 . S
C2556 C2555 1.341 . S
C2556 C2560 1.394 . S
C2556 H2572 0.930 . S
C2557 C2555 1.371 . S
C2557 C2558 1.392 . S
C2557 H2573 0.931 . S
C2558 C2557 1.392 . S
C2558 C2559 1.331 . S
C2558 H2576 0.932 . S
C2559 C2558 1.331 . S
C2559 C2560 1.336 . S
C2560 C2556 1.394 . S
C2560 C2559 1.336 . S
C2560 H2575 0.929 . S
C2561 C2551 1.386 . S
C2561 C2554 1.357 . S
C2561 H2574 0.928 . S
H2562 C2538 0.931 . S
H2563 C2540 0.930 . S
H2564 C2542 0.929 . S
H2565 C2543 0.931 . S
H2566 C2545 0.930 . S
H2567 C2549 0.931 . S
H2568 C2547 0.931 . S
H2569 C2551 0.931 . S
H2570 C2552 0.929 . S
H2571 C2553 0.930 . S
H2572 C2556 0.930 . S
H2573 C2557 0.931 . S
H2574 C2561 0.928 . S
H2575 C2560 0.929 . S
H2576 C2558 0.932 . S
C2577 C2578 1.386 . S
C2577 C2579 1.397 . S
C2577 H2601 0.931 . S
C2578 C2577 1.386 . S
C2578 C2582 1.397 . S
C2579 C2577 1.397 . S
C2579 C2580 1.384 . S
C2579 H2602 0.930 . S
C2580 C2579 1.384 . S
C2580 C2581 1.377 . S
C2580 C2583 1.481 . S
C2581 C2580 1.377 . S
C2581 C2582 1.389 . S
C2581 H2603 0.929 . S
C2582 C2578 1.397 . S
C2582 C2581 1.389 . S
C2582 H2604 0.931 . S
C2583 C2580 1.481 . S
C2583 C2584 1.387 . S
C2583 C2588 1.390 . S
C2584 C2583 1.387 . S
C2584 C2585 1.401 . S
C2584 H2605 0.930 . S
C2585 C2584 1.401 . S
C2585 C2586 1.376 . S
C2585 C2594 1.511 . S
C2586 C2585 1.376 . S
C2586 C2587 1.392 . S
C2586 H2607 0.931 . S
C2587 C2586 1.392 . S
C2587 C2588 1.361 . S
C2587 C2589 1.500 . S
C2588 C2583 1.390 . S
C2588 C2587 1.361 . S
C2588 H2606 0.931 . S
C2589 C2587 1.500 . S
C2589 C2590 1.371 . S
C2589 C2591 1.365 . S
C2590 C2589 1.371 . S
C2590 C2600 1.386 . S
C2590 H2608 0.931 . S
C2591 C2589 1.365 . S
C2591 C2592 1.409 . S
C2591 H2609 0.929 . S
C2592 C2591 1.409 . S
C2592 C2593 1.380 . S
C2592 H2610 0.930 . S
C2593 C2592 1.380 . S
C2593 C2600 1.357 . S
C2594 C2585 1.511 . S
C2594 C2595 1.341 . S
C2594 C2596 1.371 . S
C2595 C2594 1.341 . S
C2595 C2599 1.394 . S
C2595 H2611 0.930 . S
C2596 C2594 1.371 . S
C2596 C2597 1.392 . S
C2596 H2612 0.931 . S
C2597 C2596 1.392 . S
C2597 C2598 1.331 . S
C2597 H2615 0.932 . S
C2598 C2597 1.331 . S
C2598 C2599 1.336 . S
C2599 C2595 1.394 . S
C2599 C2598 1.336 . S
C2599 H2614 0.929 . S
C2600 C2590 1.386 . S
C2600 C2593 1.357 . S
C2600 H2613 0.928 . S
H2601 C2577 0.931 . S
H2602 C2579 0.930 . S
H2603 C2581 0.929 . S
H2604 C2582 0.931 . S
H2605 C2584 0.930 . S
H2606 C2588 0.931 . S
H2607 C2586 0.931 . S
H2608 C2590 0.931 . S
H2609 C2591 0.929 . S
H2610 C2592 0.930 . S
H2611 C2595 0.930 . S
H2612 C2596 0.931 . S
H2613 C2600 0.928 . S
H2614 C2599 0.929 . S
H2615 C2597 0.932 . S
C2616 C2617 1.386 . S
C2616 C2618 1.397 . S
C2616 H2640 0.931 . S
C2617 C2616 1.386 . S
C2617 C2621 1.397 . S
C2618 C2616 1.397 . S
C2618 C2619 1.384 . S
C2618 H2641 0.930 . S
C2619 C2618 1.384 . S
C2619 C2620 1.377 . S
C2619 C2622 1.481 . S
C2620 C2619 1.377 . S
C2620 C2621 1.389 . S
C2620 H2642 0.929 . S
C2621 C2617 1.397 . S
C2621 C2620 1.389 . S
C2621 H2643 0.931 . S
C2622 C2619 1.481 . S
C2622 C2623 1.387 . S
C2622 C2627 1.390 . S
C2623 C2622 1.387 . S
C2623 C2624 1.401 . S
C2623 H2644 0.930 . S
C2624 C2623 1.401 . S
C2624 C2625 1.376 . S
C2624 C2633 1.511 . S
C2625 C2624 1.376 . S
C2625 C2626 1.392 . S
C2625 H2646 0.931 . S
C2626 C2625 1.392 . S
C2626 C2627 1.361 . S
C2626 C2628 1.500 . S
C2627 C2622 1.390 . S
C2627 C2626 1.361 . S
C2627 H2645 0.931 . S
C2628 C2626 1.500 . S
C2628 C2629 1.371 . S
C2628 C2630 1.365 . S
C2629 C2628 1.371 . S
C2629 C2639 1.386 . S
C2629 H2647 0.931 . S
C2630 C2628 1.365 . S
C2630 C2631 1.409 . S
C2630 H2648 0.929 . S
C2631 C2630 1.409 . S
C2631 C2632 1.380 . S
C2631 H2649 0.930 . S
C2632 C2631 1.380 . S
C2632 C2639 1.357 . S
C2633 C2624 1.511 . S
C2633 C2634 1.341 . S
C2633 C2635 1.371 . S
C2634 C2633 1.341 . S
C2634 C2638 1.394 . S
C2634 H2650 0.930 . S
C2635 C2633 1.371 . S
C2635 C2636 1.392 . S
C2635 H2651 0.931 . S
C2636 C2635 1.392 . S
C2636 C2637 1.331 . S
C2636 H2654 0.932 . S
C2637 C2636 1.331 . S
C2637 C2638 1.336 . S
C2638 C2634 1.394 . S
C2638 C2637 1.336 . S
C2638 H2653 0.929 . S
C2639 C2629 1.386 . S
C2639 C2632 1.357 . S
C2639 H2652 0.928 . S
H2640 C2616 0.931 . S
H2641 C2618 0.930 . S
H2642 C2620 0.929 . S
H2643 C2621 0.931 . S
H2644 C2623 0.930 . S
H2645 C2627 0.931 . S
H2646 C2625 0.931 . S
H2647 C2629 0.931 . S
H2648 C2630 0.929 . S
H2649 C2631 0.930 . S
H2650 C2634 0.930 . S
H2651 C2635 0.931 . S
H2652 C2639 0.928 . S
H2653 C2638 0.929 . S
H2654 C2636 0.932 . S
C2655 C2656 1.386 . S
C2655 C2657 1.397 . S
C2655 H2679 0.931 . S
C2656 C2655 1.386 . S
C2656 C2660 1.397 . S
C2657 C2655 1.397 . S
C2657 C2658 1.384 . S
C2657 H2680 0.930 . S
C2658 C2657 1.384 . S
C2658 C2659 1.377 . S
C2658 C2661 1.481 . S
C2659 C2658 1.377 . S
C2659 C2660 1.389 . S
C2659 H2681 0.929 . S
C2660 C2656 1.397 . S
C2660 C2659 1.389 . S
C2660 H2682 0.931 . S
C2661 C2658 1.481 . S
C2661 C2662 1.387 . S
C2661 C2666 1.390 . S
C2662 C2661 1.387 . S
C2662 C2663 1.401 . S
C2662 H2683 0.930 . S
C2663 C2662 1.401 . S
C2663 C2664 1.376 . S
C2663 C2672 1.511 . S
C2664 C2663 1.376 . S
C2664 C2665 1.392 . S
C2664 H2685 0.931 . S
C2665 C2664 1.392 . S
C2665 C2666 1.361 . S
C2665 C2667 1.500 . S
C2666 C2661 1.390 . S
C2666 C2665 1.361 . S
C2666 H2684 0.931 . S
C2667 C2665 1.500 . S
C2667 C2668 1.371 . S
C2667 C2669 1.365 . S
C2668 C2667 1.371 . S
C2668 C2678 1.386 . S
C2668 H2686 0.931 . S
C2669 C2667 1.365 . S
C2669 C2670 1.409 . S
C2669 H2687 0.929 . S
C2670 C2669 1.409 . S
C2670 C2671 1.380 . S
C2670 H2688 0.930 . S
C2671 C2670 1.380 . S
C2671 C2678 1.357 . S
C2672 C2663 1.511 . S
C2672 C2673 1.341 . S
C2672 C2674 1.371 . S
C2673 C2672 1.341 . S
C2673 C2677 1.394 . S
C2673 H2689 0.930 . S
C2674 C2672 1.371 . S
C2674 C2675 1.392 . S
C2674 H2690 0.931 . S
C2675 C2674 1.392 . S
C2675 C2676 1.331 . S
C2675 H2693 0.932 . S
C2676 C2675 1.331 . S
C2676 C2677 1.336 . S
C2677 C2673 1.394 . S
C2677 C2676 1.336 . S
C2677 H2692 0.929 . S
C2678 C2668 1.386 . S
C2678 C2671 1.357 . S
C2678 H2691 0.928 . S
H2679 C2655 0.931 . S
H2680 C2657 0.930 . S
H2681 C2659 0.929 . S
H2682 C2660 0.931 . S
H2683 C2662 0.930 . S
H2684 C2666 0.931 . S
H2685 C2664 0.931 . S
H2686 C2668 0.931 . S
H2687 C2669 0.929 . S
H2688 C2670 0.930 . S
H2689 C2673 0.930 . S
H2690 C2674 0.931 . S
H2691 C2678 0.928 . S
H2692 C2677 0.929 . S
H2693 C2675 0.932 . S
C2694 C2695 1.386 . S
C2694 C2696 1.397 . S
C2694 H2718 0.931 . S
C2695 C2694 1.386 . S
C2695 C2699 1.397 . S
C2696 C2694 1.397 . S
C2696 C2697 1.384 . S
C2696 H2719 0.930 . S
C2697 C2696 1.384 . S
C2697 C2698 1.377 . S
C2697 C2700 1.481 . S
C2698 C2697 1.377 . S
C2698 C2699 1.389 . S
C2698 H2720 0.929 . S
C2699 C2695 1.397 . S
C2699 C2698 1.389 . S
C2699 H2721 0.931 . S
C2700 C2697 1.481 . S
C2700 C2701 1.387 . S
C2700 C2705 1.390 . S
C2701 C2700 1.387 . S
C2701 C2702 1.401 . S
C2701 H2722 0.930 . S
C2702 C2701 1.401 . S
C2702 C2703 1.376 . S
C2702 C2711 1.511 . S
C2703 C2702 1.376 . S
C2703 C2704 1.392 . S
C2703 H2724 0.931 . S
C2704 C2703 1.392 . S
C2704 C2705 1.361 . S
C2704 C2706 1.500 . S
C2705 C2700 1.390 . S
C2705 C2704 1.361 . S
C2705 H2723 0.931 . S
C2706 C2704 1.500 . S
C2706 C2707 1.371 . S
C2706 C2708 1.365 . S
C2707 C2706 1.371 . S
C2707 C2717 1.386 . S
C2707 H2725 0.931 . S
C2708 C2706 1.365 . S
C2708 C2709 1.409 . S
C2708 H2726 0.929 . S
C2709 C2708 1.409 . S
C2709 C2710 1.380 . S
C2709 H2727 0.930 . S
C2710 C2709 1.380 . S
C2710 C2717 1.357 . S
C2711 C2702 1.511 . S
C2711 C2712 1.341 . S
C2711 C2713 1.371 . S
C2712 C2711 1.341 . S
C2712 C2716 1.394 . S
C2712 H2728 0.930 . S
C2713 C2711 1.371 . S
C2713 C2714 1.392 . S
C2713 H2729 0.931 . S
C2714 C2713 1.392 . S
C2714 C2715 1.331 . S
C2714 H2732 0.932 . S
C2715 C2714 1.331 . S
C2715 C2716 1.336 . S
C2716 C2712 1.394 . S
C2716 C2715 1.336 . S
C2716 H2731 0.929 . S
C2717 C2707 1.386 . S
C2717 C2710 1.357 . S
C2717 H2730 0.928 . S
H2718 C2694 0.931 . S
H2719 C2696 0.930 . S
H2720 C2698 0.929 . S
H2721 C2699 0.931 . S
H2722 C2701 0.930 . S
H2723 C2705 0.931 . S
H2724 C2703 0.931 . S
H2725 C2707 0.931 . S
H2726 C2708 0.929 . S
H2727 C2709 0.930 . S
H2728 C2712 0.930 . S
H2729 C2713 0.931 . S
H2730 C2717 0.928 . S
H2731 C2716 0.929 . S
H2732 C2714 0.932 . S
C2733 C2734 1.386 . S
C2733 C2735 1.397 . S
C2733 H2757 0.931 . S
C2734 C2733 1.386 . S
C2734 C2738 1.397 . S
C2735 C2733 1.397 . S
C2735 C2736 1.384 . S
C2735 H2758 0.930 . S
C2736 C2735 1.384 . S
C2736 C2737 1.377 . S
C2736 C2739 1.481 . S
C2737 C2736 1.377 . S
C2737 C2738 1.389 . S
C2737 H2759 0.929 . S
C2738 C2734 1.397 . S
C2738 C2737 1.389 . S
C2738 H2760 0.931 . S
C2739 C2736 1.481 . S
C2739 C2740 1.387 . S
C2739 C2744 1.390 . S
C2740 C2739 1.387 . S
C2740 C2741 1.401 . S
C2740 H2761 0.930 . S
C2741 C2740 1.401 . S
C2741 C2742 1.376 . S
C2741 C2750 1.511 . S
C2742 C2741 1.376 . S
C2742 C2743 1.392 . S
C2742 H2763 0.931 . S
C2743 C2742 1.392 . S
C2743 C2744 1.361 . S
C2743 C2745 1.500 . S
C2744 C2739 1.390 . S
C2744 C2743 1.361 . S
C2744 H2762 0.931 . S
C2745 C2743 1.500 . S
C2745 C2746 1.371 . S
C2745 C2747 1.365 . S
C2746 C2745 1.371 . S
C2746 C2756 1.386 . S
C2746 H2764 0.931 . S
C2747 C2745 1.365 . S
C2747 C2748 1.409 . S
C2747 H2765 0.929 . S
C2748 C2747 1.409 . S
C2748 C2749 1.380 . S
C2748 H2766 0.930 . S
C2749 C2748 1.380 . S
C2749 C2756 1.357 . S
C2750 C2741 1.511 . S
C2750 C2751 1.341 . S
C2750 C2752 1.371 . S
C2751 C2750 1.341 . S
C2751 C2755 1.394 . S
C2751 H2767 0.930 . S
C2752 C2750 1.371 . S
C2752 C2753 1.392 . S
C2752 H2768 0.931 . S
C2753 C2752 1.392 . S
C2753 C2754 1.331 . S
C2753 H2771 0.932 . S
C2754 C2753 1.331 . S
C2754 C2755 1.336 . S
C2755 C2751 1.394 . S
C2755 C2754 1.336 . S
C2755 H2770 0.929 . S
C2756 C2746 1.386 . S
C2756 C2749 1.357 . S
C2756 H2769 0.928 . S
H2757 C2733 0.931 . S
H2758 C2735 0.930 . S
H2759 C2737 0.929 . S
H2760 C2738 0.931 . S
H2761 C2740 0.930 . S
H2762 C2744 0.931 . S
H2763 C2742 0.931 . S
H2764 C2746 0.931 . S
H2765 C2747 0.929 . S
H2766 C2748 0.930 . S
H2767 C2751 0.930 . S
H2768 C2752 0.931 . S
H2769 C2756 0.928 . S
H2770 C2755 0.929 . S
H2771 C2753 0.932 . S
C2772 C2773 1.386 . S
C2772 C2774 1.397 . S
C2772 H2796 0.931 . S
C2773 C2772 1.386 . S
C2773 C2777 1.397 . S
C2774 C2772 1.397 . S
C2774 C2775 1.384 . S
C2774 H2797 0.930 . S
C2775 C2774 1.384 . S
C2775 C2776 1.377 . S
C2775 C2778 1.481 . S
C2776 C2775 1.377 . S
C2776 C2777 1.389 . S
C2776 H2798 0.929 . S
C2777 C2773 1.397 . S
C2777 C2776 1.389 . S
C2777 H2799 0.931 . S
C2778 C2775 1.481 . S
C2778 C2779 1.387 . S
C2778 C2783 1.390 . S
C2779 C2778 1.387 . S
C2779 C2780 1.401 . S
C2779 H2800 0.930 . S
C2780 C2779 1.401 . S
C2780 C2781 1.376 . S
C2780 C2789 1.511 . S
C2781 C2780 1.376 . S
C2781 C2782 1.392 . S
C2781 H2802 0.931 . S
C2782 C2781 1.392 . S
C2782 C2783 1.361 . S
C2782 C2784 1.500 . S
C2783 C2778 1.390 . S
C2783 C2782 1.361 . S
C2783 H2801 0.931 . S
C2784 C2782 1.500 . S
C2784 C2785 1.371 . S
C2784 C2786 1.365 . S
C2785 C2784 1.371 . S
C2785 C2795 1.386 . S
C2785 H2803 0.931 . S
C2786 C2784 1.365 . S
C2786 C2787 1.409 . S
C2786 H2804 0.929 . S
C2787 C2786 1.409 . S
C2787 C2788 1.380 . S
C2787 H2805 0.930 . S
C2788 C2787 1.380 . S
C2788 C2795 1.357 . S
C2789 C2780 1.511 . S
C2789 C2790 1.341 . S
C2789 C2791 1.371 . S
C2790 C2789 1.341 . S
C2790 C2794 1.394 . S
C2790 H2806 0.930 . S
C2791 C2789 1.371 . S
C2791 C2792 1.392 . S
C2791 H2807 0.931 . S
C2792 C2791 1.392 . S
C2792 C2793 1.331 . S
C2792 H2810 0.932 . S
C2793 C2792 1.331 . S
C2793 C2794 1.336 . S
C2794 C2790 1.394 . S
C2794 C2793 1.336 . S
C2794 H2809 0.929 . S
C2795 C2785 1.386 . S
C2795 C2788 1.357 . S
C2795 H2808 0.928 . S
H2796 C2772 0.931 . S
H2797 C2774 0.930 . S
H2798 C2776 0.929 . S
H2799 C2777 0.931 . S
H2800 C2779 0.930 . S
H2801 C2783 0.931 . S
H2802 C2781 0.931 . S
H2803 C2785 0.931 . S
H2804 C2786 0.929 . S
H2805 C2787 0.930 . S
H2806 C2790 0.930 . S
H2807 C2791 0.931 . S
H2808 C2795 0.928 . S
H2809 C2794 0.929 . S
H2810 C2792 0.932 . S
C2811 C2812 1.386 . S
C2811 C2813 1.397 . S
C2811 H2835 0.931 . S
C2812 C2811 1.386 . S
C2812 C2816 1.397 . S
C2813 C2811 1.397 . S
C2813 C2814 1.384 . S
C2813 H2836 0.930 . S
C2814 C2813 1.384 . S
C2814 C2815 1.377 . S
C2814 C2817 1.481 . S
C2815 C2814 1.377 . S
C2815 C2816 1.389 . S
C2815 H2837 0.929 . S
C2816 C2812 1.397 . S
C2816 C2815 1.389 . S
C2816 H2838 0.931 . S
C2817 C2814 1.481 . S
C2817 C2818 1.387 . S
C2817 C2822 1.390 . S
C2818 C2817 1.387 . S
C2818 C2819 1.401 . S
C2818 H2839 0.930 . S
C2819 C2818 1.401 . S
C2819 C2820 1.376 . S
C2819 C2828 1.511 . S
C2820 C2819 1.376 . S
C2820 C2821 1.392 . S
C2820 H2841 0.931 . S
C2821 C2820 1.392 . S
C2821 C2822 1.361 . S
C2821 C2823 1.500 . S
C2822 C2817 1.390 . S
C2822 C2821 1.361 . S
C2822 H2840 0.931 . S
C2823 C2821 1.500 . S
C2823 C2824 1.371 . S
C2823 C2825 1.365 . S
C2824 C2823 1.371 . S
C2824 C2834 1.386 . S
C2824 H2842 0.931 . S
C2825 C2823 1.365 . S
C2825 C2826 1.409 . S
C2825 H2843 0.929 . S
C2826 C2825 1.409 . S
C2826 C2827 1.380 . S
C2826 H2844 0.930 . S
C2827 C2826 1.380 . S
C2827 C2834 1.357 . S
C2828 C2819 1.511 . S
C2828 C2829 1.341 . S
C2828 C2830 1.371 . S
C2829 C2828 1.341 . S
C2829 C2833 1.394 . S
C2829 H2845 0.930 . S
C2830 C2828 1.371 . S
C2830 C2831 1.392 . S
C2830 H2846 0.931 . S
C2831 C2830 1.392 . S
C2831 C2832 1.331 . S
C2831 H2849 0.932 . S
C2832 C2831 1.331 . S
C2832 C2833 1.336 . S
C2833 C2829 1.394 . S
C2833 C2832 1.336 . S
C2833 H2848 0.929 . S
C2834 C2824 1.386 . S
C2834 C2827 1.357 . S
C2834 H2847 0.928 . S
H2835 C2811 0.931 . S
H2836 C2813 0.930 . S
H2837 C2815 0.929 . S
H2838 C2816 0.931 . S
H2839 C2818 0.930 . S
H2840 C2822 0.931 . S
H2841 C2820 0.931 . S
H2842 C2824 0.931 . S
H2843 C2825 0.929 . S
H2844 C2826 0.930 . S
H2845 C2829 0.930 . S
H2846 C2830 0.931 . S
H2847 C2834 0.928 . S
H2848 C2833 0.929 . S
H2849 C2831 0.932 . S
C2850 C2851 1.386 . S
C2850 C2852 1.397 . S
C2850 H2874 0.931 . S
C2851 C2850 1.386 . S
C2851 C2855 1.397 . S
C2852 C2850 1.397 . S
C2852 C2853 1.384 . S
C2852 H2875 0.930 . S
C2853 C2852 1.384 . S
C2853 C2854 1.377 . S
C2853 C2856 1.481 . S
C2854 C2853 1.377 . S
C2854 C2855 1.389 . S
C2854 H2876 0.929 . S
C2855 C2851 1.397 . S
C2855 C2854 1.389 . S
C2855 H2877 0.931 . S
C2856 C2853 1.481 . S
C2856 C2857 1.387 . S
C2856 C2861 1.390 . S
C2857 C2856 1.387 . S
C2857 C2858 1.401 . S
C2857 H2878 0.930 . S
C2858 C2857 1.401 . S
C2858 C2859 1.376 . S
C2858 C2867 1.511 . S
C2859 C2858 1.376 . S
C2859 C2860 1.392 . S
C2859 H2880 0.931 . S
C2860 C2859 1.392 . S
C2860 C2861 1.361 . S
C2860 C2862 1.500 . S
C2861 C2856 1.390 . S
C2861 C2860 1.361 . S
C2861 H2879 0.931 . S
C2862 C2860 1.500 . S
C2862 C2863 1.371 . S
C2862 C2864 1.365 . S
C2863 C2862 1.371 . S
C2863 C2873 1.386 . S
C2863 H2881 0.931 . S
C2864 C2862 1.365 . S
C2864 C2865 1.409 . S
C2864 H2882 0.929 . S
C2865 C2864 1.409 . S
C2865 C2866 1.380 . S
C2865 H2883 0.930 . S
C2866 C2865 1.380 . S
C2866 C2873 1.357 . S
C2867 C2858 1.511 . S
C2867 C2868 1.341 . S
C2867 C2869 1.371 . S
C2868 C2867 1.341 . S
C2868 C2872 1.394 . S
C2868 H2884 0.930 . S
C2869 C2867 1.371 . S
C2869 C2870 1.392 . S
C2869 H2885 0.931 . S
C2870 C2869 1.392 . S
C2870 C2871 1.331 . S
C2870 H2888 0.932 . S
C2871 C2870 1.331 . S
C2871 C2872 1.336 . S
C2872 C2868 1.394 . S
C2872 C2871 1.336 . S
C2872 H2887 0.929 . S
C2873 C2863 1.386 . S
C2873 C2866 1.357 . S
C2873 H2886 0.928 . S
H2874 C2850 0.931 . S
H2875 C2852 0.930 . S
H2876 C2854 0.929 . S
H2877 C2855 0.931 . S
H2878 C2857 0.930 . S
H2879 C2861 0.931 . S
H2880 C2859 0.931 . S
H2881 C2863 0.931 . S
H2882 C2864 0.929 . S
H2883 C2865 0.930 . S
H2884 C2868 0.930 . S
H2885 C2869 0.931 . S
H2886 C2873 0.928 . S
H2887 C2872 0.929 . S
H2888 C2870 0.932 . S
C2889 C2890 1.386 . S
C2889 C2891 1.397 . S
C2889 H2913 0.931 . S
C2890 C2889 1.386 . S
C2890 C2894 1.397 . S
C2891 C2889 1.397 . S
C2891 C2892 1.384 . S
C2891 H2914 0.930 . S
C2892 C2891 1.384 . S
C2892 C2893 1.377 . S
C2892 C2895 1.481 . S
C2893 C2892 1.377 . S
C2893 C2894 1.389 . S
C2893 H2915 0.929 . S
C2894 C2890 1.397 . S
C2894 C2893 1.389 . S
C2894 H2916 0.931 . S
C2895 C2892 1.481 . S
C2895 C2896 1.387 . S
C2895 C2900 1.390 . S
C2896 C2895 1.387 . S
C2896 C2897 1.401 . S
C2896 H2917 0.930 . S
C2897 C2896 1.401 . S
C2897 C2898 1.376 . S
C2897 C2906 1.511 . S
C2898 C2897 1.376 . S
C2898 C2899 1.392 . S
C2898 H2919 0.931 . S
C2899 C2898 1.392 . S
C2899 C2900 1.361 . S
C2899 C2901 1.500 . S
C2900 C2895 1.390 . S
C2900 C2899 1.361 . S
C2900 H2918 0.931 . S
C2901 C2899 1.500 . S
C2901 C2902 1.371 . S
C2901 C2903 1.365 . S
C2902 C2901 1.371 . S
C2902 C2912 1.386 . S
C2902 H2920 0.931 . S
C2903 C2901 1.365 . S
C2903 C2904 1.409 . S
C2903 H2921 0.929 . S
C2904 C2903 1.409 . S
C2904 C2905 1.380 . S
C2904 H2922 0.930 . S
C2905 C2904 1.380 . S
C2905 C2912 1.357 . S
C2906 C2897 1.511 . S
C2906 C2907 1.341 . S
C2906 C2908 1.371 . S
C2907 C2906 1.341 . S
C2907 C2911 1.394 . S
C2907 H2923 0.930 . S
C2908 C2906 1.371 . S
C2908 C2909 1.392 . S
C2908 H2924 0.931 . S
C2909 C2908 1.392 . S
C2909 C2910 1.331 . S
C2909 H2927 0.932 . S
C2910 C2909 1.331 . S
C2910 C2911 1.336 . S
C2911 C2907 1.394 . S
C2911 C2910 1.336 . S
C2911 H2926 0.929 . S
C2912 C2902 1.386 . S
C2912 C2905 1.357 . S
C2912 H2925 0.928 . S
H2913 C2889 0.931 . S
H2914 C2891 0.930 . S
H2915 C2893 0.929 . S
H2916 C2894 0.931 . S
H2917 C2896 0.930 . S
H2918 C2900 0.931 . S
H2919 C2898 0.931 . S
H2920 C2902 0.931 . S
H2921 C2903 0.929 . S
H2922 C2904 0.930 . S
H2923 C2907 0.930 . S
H2924 C2908 0.931 . S
H2925 C2912 0.928 . S
H2926 C2911 0.929 . S
H2927 C2909 0.932 . S
C2928 C2929 1.386 . S
C2928 C2930 1.397 . S
C2928 H2952 0.931 . S
C2929 C2928 1.386 . S
C2929 C2933 1.397 . S
C2930 C2928 1.397 . S
C2930 C2931 1.384 . S
C2930 H2953 0.930 . S
C2931 C2930 1.384 . S
C2931 C2932 1.377 . S
C2931 C2934 1.481 . S
C2932 C2931 1.377 . S
C2932 C2933 1.389 . S
C2932 H2954 0.929 . S
C2933 C2929 1.397 . S
C2933 C2932 1.389 . S
C2933 H2955 0.931 . S
C2934 C2931 1.481 . S
C2934 C2935 1.387 . S
C2934 C2939 1.390 . S
C2935 C2934 1.387 . S
C2935 C2936 1.401 . S
C2935 H2956 0.930 . S
C2936 C2935 1.401 . S
C2936 C2937 1.376 . S
C2936 C2945 1.511 . S
C2937 C2936 1.376 . S
C2937 C2938 1.392 . S
C2937 H2958 0.931 . S
C2938 C2937 1.392 . S
C2938 C2939 1.361 . S
C2938 C2940 1.500 . S
C2939 C2934 1.390 . S
C2939 C2938 1.361 . S
C2939 H2957 0.931 . S
C2940 C2938 1.500 . S
C2940 C2941 1.371 . S
C2940 C2942 1.365 . S
C2941 C2940 1.371 . S
C2941 C2951 1.386 . S
C2941 H2959 0.931 . S
C2942 C2940 1.365 . S
C2942 C2943 1.409 . S
C2942 H2960 0.929 . S
C2943 C2942 1.409 . S
C2943 C2944 1.380 . S
C2943 H2961 0.930 . S
C2944 C2943 1.380 . S
C2944 C2951 1.357 . S
C2945 C2936 1.511 . S
C2945 C2946 1.341 . S
C2945 C2947 1.371 . S
C2946 C2945 1.341 . S
C2946 C2950 1.394 . S
C2946 H2962 0.930 . S
C2947 C2945 1.371 . S
C2947 C2948 1.392 . S
C2947 H2963 0.931 . S
C2948 C2947 1.392 . S
C2948 C2949 1.331 . S
C2948 H2966 0.932 . S
C2949 C2948 1.331 . S
C2949 C2950 1.336 . S
C2950 C2946 1.394 . S
C2950 C2949 1.336 . S
C2950 H2965 0.929 . S
C2951 C2941 1.386 . S
C2951 C2944 1.357 . S
C2951 H2964 0.928 . S
H2952 C2928 0.931 . S
H2953 C2930 0.930 . S
H2954 C2932 0.929 . S
H2955 C2933 0.931 . S
H2956 C2935 0.930 . S
H2957 C2939 0.931 . S
H2958 C2937 0.931 . S
H2959 C2941 0.931 . S
H2960 C2942 0.929 . S
H2961 C2943 0.930 . S
H2962 C2946 0.930 . S
H2963 C2947 0.931 . S
H2964 C2951 0.928 . S
H2965 C2950 0.929 . S
H2966 C2948 0.932 . S
C2967 C2968 1.386 . S
C2967 C2969 1.397 . S
C2967 H2991 0.931 . S
C2968 C2967 1.386 . S
C2968 C2972 1.397 . S
C2969 C2967 1.397 . S
C2969 C2970 1.384 . S
C2969 H2992 0.930 . S
C2970 C2969 1.384 . S
C2970 C2971 1.377 . S
C2970 C2973 1.481 . S
C2971 C2970 1.377 . S
C2971 C2972 1.389 . S
C2971 H2993 0.929 . S
C2972 C2968 1.397 . S
C2972 C2971 1.389 . S
C2972 H2994 0.931 . S
C2973 C2970 1.481 . S
C2973 C2974 1.387 . S
C2973 C2978 1.390 . S
C2974 C2973 1.387 . S
C2974 C2975 1.401 . S
C2974 H2995 0.930 . S
C2975 C2974 1.401 . S
C2975 C2976 1.376 . S
C2975 C2984 1.511 . S
C2976 C2975 1.376 . S
C2976 C2977 1.392 . S
C2976 H2997 0.931 . S
C2977 C2976 1.392 . S
C2977 C2978 1.361 . S
C2977 C2979 1.500 . S
C2978 C2973 1.390 . S
C2978 C2977 1.361 . S
C2978 H2996 0.931 . S
C2979 C2977 1.500 . S
C2979 C2980 1.371 . S
C2979 C2981 1.365 . S
C2980 C2979 1.371 . S
C2980 C2990 1.386 . S
C2980 H2998 0.931 . S
C2981 C2979 1.365 . S
C2981 C2982 1.409 . S
C2981 H2999 0.929 . S
C2982 C2981 1.409 . S
C2982 C2983 1.380 . S
C2982 H3000 0.930 . S
C2983 C2982 1.380 . S
C2983 C2990 1.357 . S
C2984 C2975 1.511 . S
C2984 C2985 1.341 . S
C2984 C2986 1.371 . S
C2985 C2984 1.341 . S
C2985 C2989 1.394 . S
C2985 H3001 0.930 . S
C2986 C2984 1.371 . S
C2986 C2987 1.392 . S
C2986 H3002 0.931 . S
C2987 C2986 1.392 . S
C2987 C2988 1.331 . S
C2987 H3005 0.932 . S
C2988 C2987 1.331 . S
C2988 C2989 1.336 . S
C2989 C2985 1.394 . S
C2989 C2988 1.336 . S
C2989 H3004 0.929 . S
C2990 C2980 1.386 . S
C2990 C2983 1.357 . S
C2990 H3003 0.928 . S
H2991 C2967 0.931 . S
H2992 C2969 0.930 . S
H2993 C2971 0.929 . S
H2994 C2972 0.931 . S
H2995 C2974 0.930 . S
H2996 C2978 0.931 . S
H2997 C2976 0.931 . S
H2998 C2980 0.931 . S
H2999 C2981 0.929 . S
H3000 C2982 0.930 . S
H3001 C2985 0.930 . S
H3002 C2986 0.931 . S
H3003 C2990 0.928 . S
H3004 C2989 0.929 . S
H3005 C2987 0.932 . S
C3006 C3007 1.386 . S
C3006 C3008 1.397 . S
C3006 H3030 0.931 . S
C3007 C3006 1.386 . S
C3007 C3011 1.397 . S
C3008 C3006 1.397 . S
C3008 C3009 1.384 . S
C3008 H3031 0.930 . S
C3009 C3008 1.384 . S
C3009 C3010 1.377 . S
C3009 C3012 1.481 . S
C3010 C3009 1.377 . S
C3010 C3011 1.389 . S
C3010 H3032 0.929 . S
C3011 C3007 1.397 . S
C3011 C3010 1.389 . S
C3011 H3033 0.931 . S
C3012 C3009 1.481 . S
C3012 C3013 1.387 . S
C3012 C3017 1.390 . S
C3013 C3012 1.387 . S
C3013 C3014 1.401 . S
C3013 H3034 0.930 . S
C3014 C3013 1.401 . S
C3014 C3015 1.376 . S
C3014 C3023 1.511 . S
C3015 C3014 1.376 . S
C3015 C3016 1.392 . S
C3015 H3036 0.931 . S
C3016 C3015 1.392 . S
C3016 C3017 1.361 . S
C3016 C3018 1.500 . S
C3017 C3012 1.390 . S
C3017 C3016 1.361 . S
C3017 H3035 0.931 . S
C3018 C3016 1.500 . S
C3018 C3019 1.371 . S
C3018 C3020 1.365 . S
C3019 C3018 1.371 . S
C3019 C3029 1.386 . S
C3019 H3037 0.931 . S
C3020 C3018 1.365 . S
C3020 C3021 1.409 . S
C3020 H3038 0.929 . S
C3021 C3020 1.409 . S
C3021 C3022 1.380 . S
C3021 H3039 0.930 . S
C3022 C3021 1.380 . S
C3022 C3029 1.357 . S
C3023 C3014 1.511 . S
C3023 C3024 1.341 . S
C3023 C3025 1.371 . S
C3024 C3023 1.341 . S
C3024 C3028 1.394 . S
C3024 H3040 0.930 . S
C3025 C3023 1.371 . S
C3025 C3026 1.392 . S
C3025 H3041 0.931 . S
C3026 C3025 1.392 . S
C3026 C3027 1.331 . S
C3026 H3044 0.932 . S
C3027 C3026 1.331 . S
C3027 C3028 1.336 . S
C3028 C3024 1.394 . S
C3028 C3027 1.336 . S
C3028 H3043 0.929 . S
C3029 C3019 1.386 . S
C3029 C3022 1.357 . S
C3029 H3042 0.928 . S
H3030 C3006 0.931 . S
H3031 C3008 0.930 . S
H3032 C3010 0.929 . S
H3033 C3011 0.931 . S
H3034 C3013 0.930 . S
H3035 C3017 0.931 . S
H3036 C3015 0.931 . S
H3037 C3019 0.931 . S
H3038 C3020 0.929 . S
H3039 C3021 0.930 . S
H3040 C3024 0.930 . S
H3041 C3025 0.931 . S
H3042 C3029 0.928 . S
H3043 C3028 0.929 . S
H3044 C3026 0.932 . S
C3045 C3046 1.386 . S
C3045 C3047 1.397 . S
C3045 H3069 0.931 . S
C3046 C3045 1.386 . S
C3046 C3050 1.397 . S
C3047 C3045 1.397 . S
C3047 C3048 1.384 . S
C3047 H3070 0.930 . S
C3048 C3047 1.384 . S
C3048 C3049 1.377 . S
C3048 C3051 1.481 . S
C3049 C3048 1.377 . S
C3049 C3050 1.389 . S
C3049 H3071 0.929 . S
C3050 C3046 1.397 . S
C3050 C3049 1.389 . S
C3050 H3072 0.931 . S
C3051 C3048 1.481 . S
C3051 C3052 1.387 . S
C3051 C3056 1.390 . S
C3052 C3051 1.387 . S
C3052 C3053 1.401 . S
C3052 H3073 0.930 . S
C3053 C3052 1.401 . S
C3053 C3054 1.376 . S
C3053 C3062 1.511 . S
C3054 C3053 1.376 . S
C3054 C3055 1.392 . S
C3054 H3075 0.931 . S
C3055 C3054 1.392 . S
C3055 C3056 1.361 . S
C3055 C3057 1.500 . S
C3056 C3051 1.390 . S
C3056 C3055 1.361 . S
C3056 H3074 0.931 . S
C3057 C3055 1.500 . S
C3057 C3058 1.371 . S
C3057 C3059 1.365 . S
C3058 C3057 1.371 . S
C3058 C3068 1.386 . S
C3058 H3076 0.931 . S
C3059 C3057 1.365 . S
C3059 C3060 1.409 . S
C3059 H3077 0.929 . S
C3060 C3059 1.409 . S
C3060 C3061 1.380 . S
C3060 H3078 0.930 . S
C3061 C3060 1.380 . S
C3061 C3068 1.357 . S
C3062 C3053 1.511 . S
C3062 C3063 1.341 . S
C3062 C3064 1.371 . S
C3063 C3062 1.341 . S
C3063 C3067 1.394 . S
C3063 H3079 0.930 . S
C3064 C3062 1.371 . S
C3064 C3065 1.392 . S
C3064 H3080 0.931 . S
C3065 C3064 1.392 . S
C3065 C3066 1.331 . S
C3065 H3083 0.932 1_655 S
C3066 C3065 1.331 . S
C3066 C3067 1.336 . S
C3067 C3063 1.394 . S
C3067 C3066 1.336 . S
C3067 H3082 0.929 . S
C3068 C3058 1.386 . S
C3068 C3061 1.357 . S
C3068 H3081 0.928 . S
H3069 C3045 0.931 . S
H3070 C3047 0.930 . S
H3071 C3049 0.929 . S
H3072 C3050 0.931 . S
H3073 C3052 0.930 . S
H3074 C3056 0.931 . S
H3075 C3054 0.931 . S
H3076 C3058 0.931 . S
H3077 C3059 0.929 . S
H3078 C3060 0.930 . S
H3079 C3063 0.930 . S
H3080 C3064 0.931 . S
H3081 C3068 0.928 . S
H3082 C3067 0.929 . S
H3083 C3065 0.932 1_455 S
C3084 C3085 1.386 . S
C3084 C3086 1.397 . S
C3084 H3108 0.931 . S
C3085 C3084 1.386 . S
C3085 C3089 1.397 . S
C3086 C3084 1.397 . S
C3086 C3087 1.384 . S
C3086 H3109 0.930 . S
C3087 C3086 1.384 . S
C3087 C3088 1.377 . S
C3087 C3090 1.481 . S
C3088 C3087 1.377 . S
C3088 C3089 1.389 . S
C3088 H3110 0.929 . S
C3089 C3085 1.397 . S
C3089 C3088 1.389 . S
C3089 H3111 0.931 . S
C3090 C3087 1.481 . S
C3090 C3091 1.387 . S
C3090 C3095 1.390 . S
C3091 C3090 1.387 . S
C3091 C3092 1.401 . S
C3091 H3112 0.930 . S
C3092 C3091 1.401 . S
C3092 C3093 1.376 . S
C3092 C3101 1.511 . S
C3093 C3092 1.376 . S
C3093 C3094 1.392 . S
C3093 H3114 0.931 . S
C3094 C3093 1.392 . S
C3094 C3095 1.361 . S
C3094 C3096 1.500 . S
C3095 C3090 1.390 . S
C3095 C3094 1.361 . S
C3095 H3113 0.931 . S
C3096 C3094 1.500 . S
C3096 C3097 1.371 . S
C3096 C3098 1.365 . S
C3097 C3096 1.371 . S
C3097 C3107 1.386 . S
C3097 H3115 0.931 . S
C3098 C3096 1.365 . S
C3098 C3099 1.409 . S
C3098 H3116 0.929 . S
C3099 C3098 1.409 . S
C3099 C3100 1.380 . S
C3099 H3117 0.930 . S
C3100 C3099 1.380 . S
C3100 C3107 1.357 . S
C3101 C3092 1.511 . S
C3101 C3102 1.341 . S
C3101 C3103 1.371 . S
C3102 C3101 1.341 . S
C3102 C3106 1.394 . S
C3102 H3118 0.930 . S
C3103 C3101 1.371 . S
C3103 C3104 1.392 . S
C3103 H3119 0.931 . S
C3104 C3103 1.392 . S
C3104 C3105 1.331 . S
C3104 H3122 0.932 . S
C3105 C3104 1.331 . S
C3105 C3106 1.336 . S
C3106 C3102 1.394 . S
C3106 C3105 1.336 . S
C3106 H3121 0.929 . S
C3107 C3097 1.386 . S
C3107 C3100 1.357 . S
C3107 H3120 0.928 . S
H3108 C3084 0.931 . S
H3109 C3086 0.930 . S
H3110 C3088 0.929 . S
H3111 C3089 0.931 . S
H3112 C3091 0.930 . S
H3113 C3095 0.931 . S
H3114 C3093 0.931 . S
H3115 C3097 0.931 . S
H3116 C3098 0.929 . S
H3117 C3099 0.930 . S
H3118 C3102 0.930 . S
H3119 C3103 0.931 . S
H3120 C3107 0.928 . S
H3121 C3106 0.929 . S
H3122 C3104 0.932 . S
C3123 C3124 1.386 . S
C3123 C3125 1.397 . S
C3123 H3147 0.931 . S
C3124 C3123 1.386 . S
C3124 C3128 1.397 . S
C3125 C3123 1.397 . S
C3125 C3126 1.384 . S
C3125 H3148 0.930 . S
C3126 C3125 1.384 . S
C3126 C3127 1.377 . S
C3126 C3129 1.481 . S
C3127 C3126 1.377 . S
C3127 C3128 1.389 . S
C3127 H3149 0.929 . S
C3128 C3124 1.397 . S
C3128 C3127 1.389 . S
C3128 H3150 0.931 . S
C3129 C3126 1.481 . S
C3129 C3130 1.387 . S
C3129 C3134 1.390 . S
C3130 C3129 1.387 . S
C3130 C3131 1.401 . S
C3130 H3151 0.930 . S
C3131 C3130 1.401 . S
C3131 C3132 1.376 . S
C3131 C3140 1.511 . S
C3132 C3131 1.376 . S
C3132 C3133 1.392 . S
C3132 H3153 0.931 . S
C3133 C3132 1.392 . S
C3133 C3134 1.361 . S
C3133 C3135 1.500 . S
C3134 C3129 1.390 . S
C3134 C3133 1.361 . S
C3134 H3152 0.931 . S
C3135 C3133 1.500 . S
C3135 C3136 1.371 . S
C3135 C3137 1.365 . S
C3136 C3135 1.371 . S
C3136 C3146 1.386 . S
C3136 H3154 0.931 . S
C3137 C3135 1.365 . S
C3137 C3138 1.409 . S
C3137 H3155 0.929 . S
C3138 C3137 1.409 . S
C3138 C3139 1.380 . S
C3138 H3156 0.930 . S
C3139 C3138 1.380 . S
C3139 C3146 1.357 . S
C3140 C3131 1.511 . S
C3140 C3141 1.341 . S
C3140 C3142 1.371 . S
C3141 C3140 1.341 . S
C3141 C3145 1.394 . S
C3141 H3157 0.930 . S
C3142 C3140 1.371 . S
C3142 C3143 1.392 . S
C3142 H3158 0.931 . S
C3143 C3142 1.392 . S
C3143 C3144 1.331 . S
C3143 H3161 0.932 1_655 S
C3144 C3143 1.331 . S
C3144 C3145 1.336 . S
C3145 C3141 1.394 . S
C3145 C3144 1.336 . S
C3145 H3160 0.929 . S
C3146 C3136 1.386 . S
C3146 C3139 1.357 . S
C3146 H3159 0.928 . S
H3147 C3123 0.931 . S
H3148 C3125 0.930 . S
H3149 C3127 0.929 . S
H3150 C3128 0.931 . S
H3151 C3130 0.930 . S
H3152 C3134 0.931 . S
H3153 C3132 0.931 . S
H3154 C3136 0.931 . S
H3155 C3137 0.929 . S
H3156 C3138 0.930 . S
H3157 C3141 0.930 . S
H3158 C3142 0.931 . S
H3159 C3146 0.928 . S
H3160 C3145 0.929 . S
H3161 C3143 0.932 1_455 S
C3162 C3163 1.386 . S
C3162 C3164 1.397 . S
C3162 H3186 0.931 . S
C3163 C3162 1.386 . S
C3163 C3167 1.397 . S
C3164 C3162 1.397 . S
C3164 C3165 1.384 . S
C3164 H3187 0.930 . S
C3165 C3164 1.384 . S
C3165 C3166 1.377 . S
C3165 C3168 1.481 . S
C3166 C3165 1.377 . S
C3166 C3167 1.389 . S
C3166 H3188 0.929 . S
C3167 C3163 1.397 . S
C3167 C3166 1.389 . S
C3167 H3189 0.931 . S
C3168 C3165 1.481 . S
C3168 C3169 1.387 . S
C3168 C3173 1.390 . S
C3169 C3168 1.387 . S
C3169 C3170 1.401 . S
C3169 H3190 0.930 . S
C3170 C3169 1.401 . S
C3170 C3171 1.376 . S
C3170 C3179 1.511 . S
C3171 C3170 1.376 . S
C3171 C3172 1.392 . S
C3171 H3192 0.931 . S
C3172 C3171 1.392 . S
C3172 C3173 1.361 . S
C3172 C3174 1.500 . S
C3173 C3168 1.390 . S
C3173 C3172 1.361 . S
C3173 H3191 0.931 . S
C3174 C3172 1.500 . S
C3174 C3175 1.371 . S
C3174 C3176 1.365 . S
C3175 C3174 1.371 . S
C3175 C3185 1.386 . S
C3175 H3193 0.931 . S
C3176 C3174 1.365 . S
C3176 C3177 1.409 . S
C3176 H3194 0.929 . S
C3177 C3176 1.409 . S
C3177 C3178 1.380 . S
C3177 H3195 0.930 . S
C3178 C3177 1.380 . S
C3178 C3185 1.357 . S
C3179 C3170 1.511 . S
C3179 C3180 1.341 . S
C3179 C3181 1.371 . S
C3180 C3179 1.341 . S
C3180 C3184 1.394 . S
C3180 H3196 0.930 . S
C3181 C3179 1.371 . S
C3181 C3182 1.392 . S
C3181 H3197 0.931 . S
C3182 C3181 1.392 . S
C3182 C3183 1.331 . S
C3182 H3200 0.932 . S
C3183 C3182 1.331 . S
C3183 C3184 1.336 . S
C3184 C3180 1.394 . S
C3184 C3183 1.336 . S
C3184 H3199 0.929 . S
C3185 C3175 1.386 . S
C3185 C3178 1.357 . S
C3185 H3198 0.928 . S
H3186 C3162 0.931 . S
H3187 C3164 0.930 . S
H3188 C3166 0.929 . S
H3189 C3167 0.931 . S
H3190 C3169 0.930 . S
H3191 C3173 0.931 . S
H3192 C3171 0.931 . S
H3193 C3175 0.931 . S
H3194 C3176 0.929 . S
H3195 C3177 0.930 . S
H3196 C3180 0.930 . S
H3197 C3181 0.931 . S
H3198 C3185 0.928 . S
H3199 C3184 0.929 . S
H3200 C3182 0.932 . S
C3201 C3202 1.386 . S
C3201 C3203 1.397 . S
C3201 H3225 0.931 . S
C3202 C3201 1.386 . S
C3202 C3206 1.397 . S
C3203 C3201 1.397 . S
C3203 C3204 1.384 . S
C3203 H3226 0.930 . S
C3204 C3203 1.384 . S
C3204 C3205 1.377 . S
C3204 C3207 1.481 . S
C3205 C3204 1.377 . S
C3205 C3206 1.389 . S
C3205 H3227 0.929 . S
C3206 C3202 1.397 . S
C3206 C3205 1.389 . S
C3206 H3228 0.931 . S
C3207 C3204 1.481 . S
C3207 C3208 1.387 . S
C3207 C3212 1.390 . S
C3208 C3207 1.387 . S
C3208 C3209 1.401 . S
C3208 H3229 0.930 . S
C3209 C3208 1.401 . S
C3209 C3210 1.376 . S
C3209 C3218 1.511 . S
C3210 C3209 1.376 . S
C3210 C3211 1.392 . S
C3210 H3231 0.931 . S
C3211 C3210 1.392 . S
C3211 C3212 1.361 . S
C3211 C3213 1.500 . S
C3212 C3207 1.390 . S
C3212 C3211 1.361 . S
C3212 H3230 0.931 . S
C3213 C3211 1.500 . S
C3213 C3214 1.371 . S
C3213 C3215 1.365 . S
C3214 C3213 1.371 . S
C3214 C3224 1.386 . S
C3214 H3232 0.931 . S
C3215 C3213 1.365 . S
C3215 C3216 1.409 . S
C3215 H3233 0.929 . S
C3216 C3215 1.409 . S
C3216 C3217 1.380 . S
C3216 H3234 0.930 . S
C3217 C3216 1.380 . S
C3217 C3224 1.357 . S
C3218 C3209 1.511 . S
C3218 C3219 1.341 . S
C3218 C3220 1.371 . S
C3219 C3218 1.341 . S
C3219 C3223 1.394 . S
C3219 H3235 0.930 . S
C3220 C3218 1.371 . S
C3220 C3221 1.392 . S
C3220 H3236 0.931 . S
C3221 C3220 1.392 . S
C3221 C3222 1.331 . S
C3221 H3239 0.932 . S
C3222 C3221 1.331 . S
C3222 C3223 1.336 . S
C3223 C3219 1.394 . S
C3223 C3222 1.336 . S
C3223 H3238 0.929 . S
C3224 C3214 1.386 . S
C3224 C3217 1.357 . S
C3224 H3237 0.928 . S
H3225 C3201 0.931 . S
H3226 C3203 0.930 . S
H3227 C3205 0.929 . S
H3228 C3206 0.931 . S
H3229 C3208 0.930 . S
H3230 C3212 0.931 . S
H3231 C3210 0.931 . S
H3232 C3214 0.931 . S
H3233 C3215 0.929 . S
H3234 C3216 0.930 . S
H3235 C3219 0.930 . S
H3236 C3220 0.931 . S
H3237 C3224 0.928 . S
H3238 C3223 0.929 . S
H3239 C3221 0.932 . S
C3240 C3241 1.386 . S
C3240 C3242 1.397 . S
C3240 H3264 0.931 . S
C3241 C3240 1.386 . S
C3241 C3245 1.397 . S
C3242 C3240 1.397 . S
C3242 C3243 1.384 . S
C3242 H3265 0.930 . S
C3243 C3242 1.384 . S
C3243 C3244 1.377 . S
C3243 C3246 1.481 . S
C3244 C3243 1.377 . S
C3244 C3245 1.389 . S
C3244 H3266 0.929 . S
C3245 C3241 1.397 . S
C3245 C3244 1.389 . S
C3245 H3267 0.931 . S
C3246 C3243 1.481 . S
C3246 C3247 1.387 . S
C3246 C3251 1.390 . S
C3247 C3246 1.387 . S
C3247 C3248 1.401 . S
C3247 H3268 0.930 . S
C3248 C3247 1.401 . S
C3248 C3249 1.376 . S
C3248 C3257 1.511 . S
C3249 C3248 1.376 . S
C3249 C3250 1.392 . S
C3249 H3270 0.931 . S
C3250 C3249 1.392 . S
C3250 C3251 1.361 . S
C3250 C3252 1.500 . S
C3251 C3246 1.390 . S
C3251 C3250 1.361 . S
C3251 H3269 0.931 . S
C3252 C3250 1.500 . S
C3252 C3253 1.371 . S
C3252 C3254 1.365 . S
C3253 C3252 1.371 . S
C3253 C3263 1.386 . S
C3253 H3271 0.931 . S
C3254 C3252 1.365 . S
C3254 C3255 1.409 . S
C3254 H3272 0.929 . S
C3255 C3254 1.409 . S
C3255 C3256 1.380 . S
C3255 H3273 0.930 . S
C3256 C3255 1.380 . S
C3256 C3263 1.357 . S
C3257 C3248 1.511 . S
C3257 C3258 1.341 . S
C3257 C3259 1.371 . S
C3258 C3257 1.341 . S
C3258 C3262 1.394 . S
C3258 H3274 0.930 . S
C3259 C3257 1.371 . S
C3259 C3260 1.392 . S
C3259 H3275 0.931 . S
C3260 C3259 1.392 . S
C3260 C3261 1.331 . S
C3260 H3278 0.932 . S
C3261 C3260 1.331 . S
C3261 C3262 1.336 . S
C3262 C3258 1.394 . S
C3262 C3261 1.336 . S
C3262 H3277 0.929 . S
C3263 C3253 1.386 . S
C3263 C3256 1.357 . S
C3263 H3276 0.928 . S
H3264 C3240 0.931 . S
H3265 C3242 0.930 . S
H3266 C3244 0.929 . S
H3267 C3245 0.931 . S
H3268 C3247 0.930 . S
H3269 C3251 0.931 . S
H3270 C3249 0.931 . S
H3271 C3253 0.931 . S
H3272 C3254 0.929 . S
H3273 C3255 0.930 . S
H3274 C3258 0.930 . S
H3275 C3259 0.931 . S
H3276 C3263 0.928 . S
H3277 C3262 0.929 . S
H3278 C3260 0.932 . S
C3279 C3280 1.386 . S
C3279 C3281 1.397 . S
C3279 H3303 0.931 . S
C3280 C3279 1.386 . S
C3280 C3284 1.397 . S
C3281 C3279 1.397 . S
C3281 C3282 1.384 . S
C3281 H3304 0.930 . S
C3282 C3281 1.384 . S
C3282 C3283 1.377 . S
C3282 C3285 1.481 . S
C3283 C3282 1.377 . S
C3283 C3284 1.389 . S
C3283 H3305 0.929 . S
C3284 C3280 1.397 . S
C3284 C3283 1.389 . S
C3284 H3306 0.931 . S
C3285 C3282 1.481 . S
C3285 C3286 1.387 . S
C3285 C3290 1.390 . S
C3286 C3285 1.387 . S
C3286 C3287 1.401 . S
C3286 H3307 0.930 . S
C3287 C3286 1.401 . S
C3287 C3288 1.376 . S
C3287 C3296 1.511 . S
C3288 C3287 1.376 . S
C3288 C3289 1.392 . S
C3288 H3309 0.931 . S
C3289 C3288 1.392 . S
C3289 C3290 1.361 . S
C3289 C3291 1.500 . S
C3290 C3285 1.390 . S
C3290 C3289 1.361 . S
C3290 H3308 0.931 . S
C3291 C3289 1.500 . S
C3291 C3292 1.371 . S
C3291 C3293 1.365 . S
C3292 C3291 1.371 . S
C3292 C3302 1.386 . S
C3292 H3310 0.931 . S
C3293 C3291 1.365 . S
C3293 C3294 1.409 . S
C3293 H3311 0.929 . S
C3294 C3293 1.409 . S
C3294 C3295 1.380 . S
C3294 H3312 0.930 . S
C3295 C3294 1.380 . S
C3295 C3302 1.357 . S
C3296 C3287 1.511 . S
C3296 C3297 1.341 . S
C3296 C3298 1.371 . S
C3297 C3296 1.341 . S
C3297 C3301 1.394 . S
C3297 H3313 0.930 . S
C3298 C3296 1.371 . S
C3298 C3299 1.392 . S
C3298 H3314 0.931 . S
C3299 C3298 1.392 . S
C3299 C3300 1.331 . S
C3299 H3317 0.932 1_556 S
C3300 C3299 1.331 . S
C3300 C3301 1.336 . S
C3301 C3297 1.394 . S
C3301 C3300 1.336 . S
C3301 H3316 0.929 . S
C3302 C3292 1.386 . S
C3302 C3295 1.357 . S
C3302 H3315 0.928 . S
H3303 C3279 0.931 . S
H3304 C3281 0.930 . S
H3305 C3283 0.929 . S
H3306 C3284 0.931 . S
H3307 C3286 0.930 . S
H3308 C3290 0.931 . S
H3309 C3288 0.931 . S
H3310 C3292 0.931 . S
H3311 C3293 0.929 . S
H3312 C3294 0.930 . S
H3313 C3297 0.930 . S
H3314 C3298 0.931 . S
H3315 C3302 0.928 . S
H3316 C3301 0.929 . S
H3317 C3299 0.932 1_554 S
C3318 C3319 1.386 . S
C3318 C3320 1.397 . S
C3318 H3342 0.931 . S
C3319 C3318 1.386 . S
C3319 C3323 1.397 . S
C3320 C3318 1.397 . S
C3320 C3321 1.384 . S
C3320 H3343 0.930 . S
C3321 C3320 1.384 . S
C3321 C3322 1.377 . S
C3321 C3324 1.481 . S
C3322 C3321 1.377 . S
C3322 C3323 1.389 . S
C3322 H3344 0.929 . S
C3323 C3319 1.397 . S
C3323 C3322 1.389 . S
C3323 H3345 0.931 . S
C3324 C3321 1.481 . S
C3324 C3325 1.387 . S
C3324 C3329 1.390 . S
C3325 C3324 1.387 . S
C3325 C3326 1.401 . S
C3325 H3346 0.930 . S
C3326 C3325 1.401 . S
C3326 C3327 1.376 . S
C3326 C3335 1.511 . S
C3327 C3326 1.376 . S
C3327 C3328 1.392 . S
C3327 H3348 0.931 . S
C3328 C3327 1.392 . S
C3328 C3329 1.361 . S
C3328 C3330 1.500 . S
C3329 C3324 1.390 . S
C3329 C3328 1.361 . S
C3329 H3347 0.931 . S
C3330 C3328 1.500 . S
C3330 C3331 1.371 . S
C3330 C3332 1.365 . S
C3331 C3330 1.371 . S
C3331 C3341 1.386 . S
C3331 H3349 0.931 . S
C3332 C3330 1.365 . S
C3332 C3333 1.409 . S
C3332 H3350 0.929 . S
C3333 C3332 1.409 . S
C3333 C3334 1.380 . S
C3333 H3351 0.930 . S
C3334 C3333 1.380 . S
C3334 C3341 1.357 . S
C3335 C3326 1.511 . S
C3335 C3336 1.341 . S
C3335 C3337 1.371 . S
C3336 C3335 1.341 . S
C3336 C3340 1.394 . S
C3336 H3352 0.930 . S
C3337 C3335 1.371 . S
C3337 C3338 1.392 . S
C3337 H3353 0.931 . S
C3338 C3337 1.392 . S
C3338 C3339 1.331 . S
C3338 H3356 0.932 . S
C3339 C3338 1.331 . S
C3339 C3340 1.336 . S
C3340 C3336 1.394 . S
C3340 C3339 1.336 . S
C3340 H3355 0.929 . S
C3341 C3331 1.386 . S
C3341 C3334 1.357 . S
C3341 H3354 0.928 . S
H3342 C3318 0.931 . S
H3343 C3320 0.930 . S
H3344 C3322 0.929 . S
H3345 C3323 0.931 . S
H3346 C3325 0.930 . S
H3347 C3329 0.931 . S
H3348 C3327 0.931 . S
H3349 C3331 0.931 . S
H3350 C3332 0.929 . S
H3351 C3333 0.930 . S
H3352 C3336 0.930 . S
H3353 C3337 0.931 . S
H3354 C3341 0.928 . S
H3355 C3340 0.929 . S
H3356 C3338 0.932 . S
C3357 C3358 1.386 . S
C3357 C3359 1.397 . S
C3357 H3381 0.931 . S
C3358 C3357 1.386 . S
C3358 C3362 1.397 . S
C3359 C3357 1.397 . S
C3359 C3360 1.384 . S
C3359 H3382 0.930 . S
C3360 C3359 1.384 . S
C3360 C3361 1.377 . S
C3360 C3363 1.481 . S
C3361 C3360 1.377 . S
C3361 C3362 1.389 . S
C3361 H3383 0.929 . S
C3362 C3358 1.397 . S
C3362 C3361 1.389 . S
C3362 H3384 0.931 . S
C3363 C3360 1.481 . S
C3363 C3364 1.387 . S
C3363 C3368 1.390 . S
C3364 C3363 1.387 . S
C3364 C3365 1.401 . S
C3364 H3385 0.930 . S
C3365 C3364 1.401 . S
C3365 C3366 1.376 . S
C3365 C3374 1.511 . S
C3366 C3365 1.376 . S
C3366 C3367 1.392 . S
C3366 H3387 0.931 . S
C3367 C3366 1.392 . S
C3367 C3368 1.361 . S
C3367 C3369 1.500 . S
C3368 C3363 1.390 . S
C3368 C3367 1.361 . S
C3368 H3386 0.931 . S
C3369 C3367 1.500 . S
C3369 C3370 1.371 . S
C3369 C3371 1.365 . S
C3370 C3369 1.371 . S
C3370 C3380 1.386 . S
C3370 H3388 0.931 . S
C3371 C3369 1.365 . S
C3371 C3372 1.409 . S
C3371 H3389 0.929 . S
C3372 C3371 1.409 . S
C3372 C3373 1.380 . S
C3372 H3390 0.930 . S
C3373 C3372 1.380 . S
C3373 C3380 1.357 . S
C3374 C3365 1.511 . S
C3374 C3375 1.341 . S
C3374 C3376 1.371 . S
C3375 C3374 1.341 . S
C3375 C3379 1.394 . S
C3375 H3391 0.930 . S
C3376 C3374 1.371 . S
C3376 C3377 1.392 . S
C3376 H3392 0.931 . S
C3377 C3376 1.392 . S
C3377 C3378 1.331 . S
C3377 H3395 0.932 . S
C3378 C3377 1.331 . S
C3378 C3379 1.336 . S
C3379 C3375 1.394 . S
C3379 C3378 1.336 . S
C3379 H3394 0.929 . S
C3380 C3370 1.386 . S
C3380 C3373 1.357 . S
C3380 H3393 0.928 . S
H3381 C3357 0.931 . S
H3382 C3359 0.930 . S
H3383 C3361 0.929 . S
H3384 C3362 0.931 . S
H3385 C3364 0.930 . S
H3386 C3368 0.931 . S
H3387 C3366 0.931 . S
H3388 C3370 0.931 . S
H3389 C3371 0.929 . S
H3390 C3372 0.930 . S
H3391 C3375 0.930 . S
H3392 C3376 0.931 . S
H3393 C3380 0.928 . S
H3394 C3379 0.929 . S
H3395 C3377 0.932 . S
C3396 C3397 1.386 . S
C3396 C3398 1.397 . S
C3396 H3420 0.931 . S
C3397 C3396 1.386 . S
C3397 C3401 1.397 . S
C3398 C3396 1.397 . S
C3398 C3399 1.384 . S
C3398 H3421 0.930 . S
C3399 C3398 1.384 . S
C3399 C3400 1.377 . S
C3399 C3402 1.481 . S
C3400 C3399 1.377 . S
C3400 C3401 1.389 . S
C3400 H3422 0.929 . S
C3401 C3397 1.397 . S
C3401 C3400 1.389 . S
C3401 H3423 0.931 . S
C3402 C3399 1.481 . S
C3402 C3403 1.387 . S
C3402 C3407 1.390 . S
C3403 C3402 1.387 . S
C3403 C3404 1.401 . S
C3403 H3424 0.930 . S
C3404 C3403 1.401 . S
C3404 C3405 1.376 . S
C3404 C3413 1.511 . S
C3405 C3404 1.376 . S
C3405 C3406 1.392 . S
C3405 H3426 0.931 . S
C3406 C3405 1.392 . S
C3406 C3407 1.361 . S
C3406 C3408 1.500 . S
C3407 C3402 1.390 . S
C3407 C3406 1.361 . S
C3407 H3425 0.931 . S
C3408 C3406 1.500 . S
C3408 C3409 1.371 . S
C3408 C3410 1.365 . S
C3409 C3408 1.371 . S
C3409 C3419 1.386 . S
C3409 H3427 0.931 . S
C3410 C3408 1.365 . S
C3410 C3411 1.409 . S
C3410 H3428 0.929 . S
C3411 C3410 1.409 . S
C3411 C3412 1.380 . S
C3411 H3429 0.930 . S
C3412 C3411 1.380 . S
C3412 C3419 1.357 . S
C3413 C3404 1.511 . S
C3413 C3414 1.341 . S
C3413 C3415 1.371 . S
C3414 C3413 1.341 . S
C3414 C3418 1.394 . S
C3414 H3430 0.930 . S
C3415 C3413 1.371 . S
C3415 C3416 1.392 . S
C3415 H3431 0.931 . S
C3416 C3415 1.392 . S
C3416 C3417 1.331 . S
C3416 H3434 0.932 . S
C3417 C3416 1.331 . S
C3417 C3418 1.336 . S
C3418 C3414 1.394 . S
C3418 C3417 1.336 . S
C3418 H3433 0.929 . S
C3419 C3409 1.386 . S
C3419 C3412 1.357 . S
C3419 H3432 0.928 . S
H3420 C3396 0.931 . S
H3421 C3398 0.930 . S
H3422 C3400 0.929 . S
H3423 C3401 0.931 . S
H3424 C3403 0.930 . S
H3425 C3407 0.931 . S
H3426 C3405 0.931 . S
H3427 C3409 0.931 . S
H3428 C3410 0.929 . S
H3429 C3411 0.930 . S
H3430 C3414 0.930 . S
H3431 C3415 0.931 . S
H3432 C3419 0.928 . S
H3433 C3418 0.929 . S
H3434 C3416 0.932 . S
C3435 C3436 1.386 . S
C3435 C3437 1.397 . S
C3435 H3459 0.931 . S
C3436 C3435 1.386 . S
C3436 C3440 1.397 . S
C3437 C3435 1.397 . S
C3437 C3438 1.384 . S
C3437 H3460 0.930 . S
C3438 C3437 1.384 . S
C3438 C3439 1.377 . S
C3438 C3441 1.481 . S
C3439 C3438 1.377 . S
C3439 C3440 1.389 . S
C3439 H3461 0.929 . S
C3440 C3436 1.397 . S
C3440 C3439 1.389 . S
C3440 H3462 0.931 . S
C3441 C3438 1.481 . S
C3441 C3442 1.387 . S
C3441 C3446 1.390 . S
C3442 C3441 1.387 . S
C3442 C3443 1.401 . S
C3442 H3463 0.930 . S
C3443 C3442 1.401 . S
C3443 C3444 1.376 . S
C3443 C3452 1.511 . S
C3444 C3443 1.376 . S
C3444 C3445 1.392 . S
C3444 H3465 0.931 . S
C3445 C3444 1.392 . S
C3445 C3446 1.361 . S
C3445 C3447 1.500 . S
C3446 C3441 1.390 . S
C3446 C3445 1.361 . S
C3446 H3464 0.931 . S
C3447 C3445 1.500 . S
C3447 C3448 1.371 . S
C3447 C3449 1.365 . S
C3448 C3447 1.371 . S
C3448 C3458 1.386 . S
C3448 H3466 0.931 . S
C3449 C3447 1.365 . S
C3449 C3450 1.409 . S
C3449 H3467 0.929 . S
C3450 C3449 1.409 . S
C3450 C3451 1.380 . S
C3450 H3468 0.930 . S
C3451 C3450 1.380 . S
C3451 C3458 1.357 . S
C3452 C3443 1.511 . S
C3452 C3453 1.341 . S
C3452 C3454 1.371 . S
C3453 C3452 1.341 . S
C3453 C3457 1.394 . S
C3453 H3469 0.930 . S
C3454 C3452 1.371 . S
C3454 C3455 1.392 . S
C3454 H3470 0.931 . S
C3455 C3454 1.392 . S
C3455 C3456 1.331 . S
C3455 H3473 0.932 1_554 S
C3456 C3455 1.331 . S
C3456 C3457 1.336 . S
C3457 C3453 1.394 . S
C3457 C3456 1.336 . S
C3457 H3472 0.929 . S
C3458 C3448 1.386 . S
C3458 C3451 1.357 . S
C3458 H3471 0.928 . S
H3459 C3435 0.931 . S
H3460 C3437 0.930 . S
H3461 C3439 0.929 . S
H3462 C3440 0.931 . S
H3463 C3442 0.930 . S
H3464 C3446 0.931 . S
H3465 C3444 0.931 . S
H3466 C3448 0.931 . S
H3467 C3449 0.929 . S
H3468 C3450 0.930 . S
H3469 C3453 0.930 . S
H3470 C3454 0.931 . S
H3471 C3458 0.928 . S
H3472 C3457 0.929 . S
H3473 C3455 0.932 1_556 S
C3474 C3475 1.386 . S
C3474 C3476 1.397 . S
C3474 H3498 0.931 . S
C3475 C3474 1.386 . S
C3475 C3479 1.397 . S
C3476 C3474 1.397 . S
C3476 C3477 1.384 . S
C3476 H3499 0.930 . S
C3477 C3476 1.384 . S
C3477 C3478 1.377 . S
C3477 C3480 1.481 . S
C3478 C3477 1.377 . S
C3478 C3479 1.389 . S
C3478 H3500 0.929 . S
C3479 C3475 1.397 . S
C3479 C3478 1.389 . S
C3479 H3501 0.931 . S
C3480 C3477 1.481 . S
C3480 C3481 1.387 . S
C3480 C3485 1.390 . S
C3481 C3480 1.387 . S
C3481 C3482 1.401 . S
C3481 H3502 0.930 . S
C3482 C3481 1.401 . S
C3482 C3483 1.376 . S
C3482 C3491 1.511 . S
C3483 C3482 1.376 . S
C3483 C3484 1.392 . S
C3483 H3504 0.931 . S
C3484 C3483 1.392 . S
C3484 C3485 1.361 . S
C3484 C3486 1.500 . S
C3485 C3480 1.390 . S
C3485 C3484 1.361 . S
C3485 H3503 0.931 . S
C3486 C3484 1.500 . S
C3486 C3487 1.371 . S
C3486 C3488 1.365 . S
C3487 C3486 1.371 . S
C3487 C3497 1.386 . S
C3487 H3505 0.931 . S
C3488 C3486 1.365 . S
C3488 C3489 1.409 . S
C3488 H3506 0.929 . S
C3489 C3488 1.409 . S
C3489 C3490 1.380 . S
C3489 H3507 0.930 . S
C3490 C3489 1.380 . S
C3490 C3497 1.357 . S
C3491 C3482 1.511 . S
C3491 C3492 1.341 . S
C3491 C3493 1.371 . S
C3492 C3491 1.341 . S
C3492 C3496 1.394 . S
C3492 H3508 0.930 . S
C3493 C3491 1.371 . S
C3493 C3494 1.392 . S
C3493 H3509 0.931 . S
C3494 C3493 1.392 . S
C3494 C3495 1.331 . S
C3494 H3512 0.932 . S
C3495 C3494 1.331 . S
C3495 C3496 1.336 . S
C3496 C3492 1.394 . S
C3496 C3495 1.336 . S
C3496 H3511 0.929 . S
C3497 C3487 1.386 . S
C3497 C3490 1.357 . S
C3497 H3510 0.928 . S
H3498 C3474 0.931 . S
H3499 C3476 0.930 . S
H3500 C3478 0.929 . S
H3501 C3479 0.931 . S
H3502 C3481 0.930 . S
H3503 C3485 0.931 . S
H3504 C3483 0.931 . S
H3505 C3487 0.931 . S
H3506 C3488 0.929 . S
H3507 C3489 0.930 . S
H3508 C3492 0.930 . S
H3509 C3493 0.931 . S
H3510 C3497 0.928 . S
H3511 C3496 0.929 . S
H3512 C3494 0.932 . S
C3513 C3514 1.386 . S
C3513 C3515 1.397 . S
C3513 H3537 0.931 . S
C3514 C3513 1.386 . S
C3514 C3518 1.397 . S
C3515 C3513 1.397 . S
C3515 C3516 1.384 . S
C3515 H3538 0.930 . S
C3516 C3515 1.384 . S
C3516 C3517 1.377 . S
C3516 C3519 1.481 . S
C3517 C3516 1.377 . S
C3517 C3518 1.389 . S
C3517 H3539 0.929 . S
C3518 C3514 1.397 . S
C3518 C3517 1.389 . S
C3518 H3540 0.931 . S
C3519 C3516 1.481 . S
C3519 C3520 1.387 . S
C3519 C3524 1.390 . S
C3520 C3519 1.387 . S
C3520 C3521 1.401 . S
C3520 H3541 0.930 . S
C3521 C3520 1.401 . S
C3521 C3522 1.376 . S
C3521 C3530 1.511 . S
C3522 C3521 1.376 . S
C3522 C3523 1.392 . S
C3522 H3543 0.931 . S
C3523 C3522 1.392 . S
C3523 C3524 1.361 . S
C3523 C3525 1.500 . S
C3524 C3519 1.390 . S
C3524 C3523 1.361 . S
C3524 H3542 0.931 . S
C3525 C3523 1.500 . S
C3525 C3526 1.371 . S
C3525 C3527 1.365 . S
C3526 C3525 1.371 . S
C3526 C3536 1.386 . S
C3526 H3544 0.931 . S
C3527 C3525 1.365 . S
C3527 C3528 1.409 . S
C3527 H3545 0.929 . S
C3528 C3527 1.409 . S
C3528 C3529 1.380 . S
C3528 H3546 0.930 . S
C3529 C3528 1.380 . S
C3529 C3536 1.357 . S
C3530 C3521 1.511 . S
C3530 C3531 1.341 . S
C3530 C3532 1.371 . S
C3531 C3530 1.341 . S
C3531 C3535 1.394 . S
C3531 H3547 0.930 . S
C3532 C3530 1.371 . S
C3532 C3533 1.392 . S
C3532 H3548 0.931 . S
C3533 C3532 1.392 . S
C3533 C3534 1.331 . S
C3533 H3551 0.932 . S
C3534 C3533 1.331 . S
C3534 C3535 1.336 . S
C3535 C3531 1.394 . S
C3535 C3534 1.336 . S
C3535 H3550 0.929 . S
C3536 C3526 1.386 . S
C3536 C3529 1.357 . S
C3536 H3549 0.928 . S
H3537 C3513 0.931 . S
H3538 C3515 0.930 . S
H3539 C3517 0.929 . S
H3540 C3518 0.931 . S
H3541 C3520 0.930 . S
H3542 C3524 0.931 . S
H3543 C3522 0.931 . S
H3544 C3526 0.931 . S
H3545 C3527 0.929 . S
H3546 C3528 0.930 . S
H3547 C3531 0.930 . S
H3548 C3532 0.931 . S
H3549 C3536 0.928 . S
H3550 C3535 0.929 . S
H3551 C3533 0.932 . S
C3552 C3553 1.386 . S
C3552 C3554 1.397 . S
C3552 H3576 0.931 . S
C3553 C3552 1.386 . S
C3553 C3557 1.397 . S
C3554 C3552 1.397 . S
C3554 C3555 1.384 . S
C3554 H3577 0.930 . S
C3555 C3554 1.384 . S
C3555 C3556 1.377 . S
C3555 C3558 1.481 . S
C3556 C3555 1.377 . S
C3556 C3557 1.389 . S
C3556 H3578 0.929 . S
C3557 C3553 1.397 . S
C3557 C3556 1.389 . S
C3557 H3579 0.931 . S
C3558 C3555 1.481 . S
C3558 C3559 1.387 . S
C3558 C3563 1.390 . S
C3559 C3558 1.387 . S
C3559 C3560 1.401 . S
C3559 H3580 0.930 . S
C3560 C3559 1.401 . S
C3560 C3561 1.376 . S
C3560 C3569 1.511 . S
C3561 C3560 1.376 . S
C3561 C3562 1.392 . S
C3561 H3582 0.931 . S
C3562 C3561 1.392 . S
C3562 C3563 1.361 . S
C3562 C3564 1.500 . S
C3563 C3558 1.390 . S
C3563 C3562 1.361 . S
C3563 H3581 0.931 . S
C3564 C3562 1.500 . S
C3564 C3565 1.371 . S
C3564 C3566 1.365 . S
C3565 C3564 1.371 . S
C3565 C3575 1.386 . S
C3565 H3583 0.931 . S
C3566 C3564 1.365 . S
C3566 C3567 1.409 . S
C3566 H3584 0.929 . S
C3567 C3566 1.409 . S
C3567 C3568 1.380 . S
C3567 H3585 0.930 . S
C3568 C3567 1.380 . S
C3568 C3575 1.357 . S
C3569 C3560 1.511 . S
C3569 C3570 1.341 . S
C3569 C3571 1.371 . S
C3570 C3569 1.341 . S
C3570 C3574 1.394 . S
C3570 H3586 0.930 . S
C3571 C3569 1.371 . S
C3571 C3572 1.392 . S
C3571 H3587 0.931 . S
C3572 C3571 1.392 . S
C3572 C3573 1.331 . S
C3572 H3590 0.932 . S
C3573 C3572 1.331 . S
C3573 C3574 1.336 . S
C3574 C3570 1.394 . S
C3574 C3573 1.336 . S
C3574 H3589 0.929 . S
C3575 C3565 1.386 . S
C3575 C3568 1.357 . S
C3575 H3588 0.928 . S
H3576 C3552 0.931 . S
H3577 C3554 0.930 . S
H3578 C3556 0.929 . S
H3579 C3557 0.931 . S
H3580 C3559 0.930 . S
H3581 C3563 0.931 . S
H3582 C3561 0.931 . S
H3583 C3565 0.931 . S
H3584 C3566 0.929 . S
H3585 C3567 0.930 . S
H3586 C3570 0.930 . S
H3587 C3571 0.931 . S
H3588 C3575 0.928 . S
H3589 C3574 0.929 . S
H3590 C3572 0.932 . S
C3591 C3592 1.386 . S
C3591 C3593 1.397 . S
C3591 H3615 0.931 . S
C3592 C3591 1.386 . S
C3592 C3596 1.397 . S
C3593 C3591 1.397 . S
C3593 C3594 1.384 . S
C3593 H3616 0.930 . S
C3594 C3593 1.384 . S
C3594 C3595 1.377 . S
C3594 C3597 1.481 . S
C3595 C3594 1.377 . S
C3595 C3596 1.389 . S
C3595 H3617 0.929 . S
C3596 C3592 1.397 . S
C3596 C3595 1.389 . S
C3596 H3618 0.931 . S
C3597 C3594 1.481 . S
C3597 C3598 1.387 . S
C3597 C3602 1.390 . S
C3598 C3597 1.387 . S
C3598 C3599 1.401 . S
C3598 H3619 0.930 . S
C3599 C3598 1.401 . S
C3599 C3600 1.376 . S
C3599 C3608 1.511 . S
C3600 C3599 1.376 . S
C3600 C3601 1.392 . S
C3600 H3621 0.931 . S
C3601 C3600 1.392 . S
C3601 C3602 1.361 . S
C3601 C3603 1.500 . S
C3602 C3597 1.390 . S
C3602 C3601 1.361 . S
C3602 H3620 0.931 . S
C3603 C3601 1.500 . S
C3603 C3604 1.371 . S
C3603 C3605 1.365 . S
C3604 C3603 1.371 . S
C3604 C3614 1.386 . S
C3604 H3622 0.931 . S
C3605 C3603 1.365 . S
C3605 C3606 1.409 . S
C3605 H3623 0.929 . S
C3606 C3605 1.409 . S
C3606 C3607 1.380 . S
C3606 H3624 0.930 . S
C3607 C3606 1.380 . S
C3607 C3614 1.357 . S
C3608 C3599 1.511 . S
C3608 C3609 1.341 . S
C3608 C3610 1.371 . S
C3609 C3608 1.341 . S
C3609 C3613 1.394 . S
C3609 H3625 0.930 . S
C3610 C3608 1.371 . S
C3610 C3611 1.392 . S
C3610 H3626 0.931 . S
C3611 C3610 1.392 . S
C3611 C3612 1.331 . S
C3611 H3629 0.932 . S
C3612 C3611 1.331 . S
C3612 C3613 1.336 . S
C3613 C3609 1.394 . S
C3613 C3612 1.336 . S
C3613 H3628 0.929 . S
C3614 C3604 1.386 . S
C3614 C3607 1.357 . S
C3614 H3627 0.928 . S
H3615 C3591 0.931 . S
H3616 C3593 0.930 . S
H3617 C3595 0.929 . S
H3618 C3596 0.931 . S
H3619 C3598 0.930 . S
H3620 C3602 0.931 . S
H3621 C3600 0.931 . S
H3622 C3604 0.931 . S
H3623 C3605 0.929 . S
H3624 C3606 0.930 . S
H3625 C3609 0.930 . S
H3626 C3610 0.931 . S
H3627 C3614 0.928 . S
H3628 C3613 0.929 . S
H3629 C3611 0.932 . S
C3630 C3631 1.386 . S
C3630 C3632 1.397 . S
C3630 H3654 0.931 . S
C3631 C3630 1.386 . S
C3631 C3635 1.397 . S
C3632 C3630 1.397 . S
C3632 C3633 1.384 . S
C3632 H3655 0.930 . S
C3633 C3632 1.384 . S
C3633 C3634 1.377 . S
C3633 C3636 1.481 . S
C3634 C3633 1.377 . S
C3634 C3635 1.389 . S
C3634 H3656 0.929 . S
C3635 C3631 1.397 . S
C3635 C3634 1.389 . S
C3635 H3657 0.931 . S
C3636 C3633 1.481 . S
C3636 C3637 1.387 . S
C3636 C3641 1.390 . S
C3637 C3636 1.387 . S
C3637 C3638 1.401 . S
C3637 H3658 0.930 . S
C3638 C3637 1.401 . S
C3638 C3639 1.376 . S
C3638 C3647 1.511 . S
C3639 C3638 1.376 . S
C3639 C3640 1.392 . S
C3639 H3660 0.931 . S
C3640 C3639 1.392 . S
C3640 C3641 1.361 . S
C3640 C3642 1.500 . S
C3641 C3636 1.390 . S
C3641 C3640 1.361 . S
C3641 H3659 0.931 . S
C3642 C3640 1.500 . S
C3642 C3643 1.371 . S
C3642 C3644 1.365 . S
C3643 C3642 1.371 . S
C3643 C3653 1.386 . S
C3643 H3661 0.931 . S
C3644 C3642 1.365 . S
C3644 C3645 1.409 . S
C3644 H3662 0.929 . S
C3645 C3644 1.409 . S
C3645 C3646 1.380 . S
C3645 H3663 0.930 . S
C3646 C3645 1.380 . S
C3646 C3653 1.357 . S
C3647 C3638 1.511 . S
C3647 C3648 1.341 . S
C3647 C3649 1.371 . S
C3648 C3647 1.341 . S
C3648 C3652 1.394 . S
C3648 H3664 0.930 . S
C3649 C3647 1.371 . S
C3649 C3650 1.392 . S
C3649 H3665 0.931 . S
C3650 C3649 1.392 . S
C3650 C3651 1.331 . S
C3650 H3668 0.932 1_565 S
C3651 C3650 1.331 . S
C3651 C3652 1.336 . S
C3652 C3648 1.394 . S
C3652 C3651 1.336 . S
C3652 H3667 0.929 . S
C3653 C3643 1.386 . S
C3653 C3646 1.357 . S
C3653 H3666 0.928 . S
H3654 C3630 0.931 . S
H3655 C3632 0.930 . S
H3656 C3634 0.929 . S
H3657 C3635 0.931 . S
H3658 C3637 0.930 . S
H3659 C3641 0.931 . S
H3660 C3639 0.931 . S
H3661 C3643 0.931 . S
H3662 C3644 0.929 . S
H3663 C3645 0.930 . S
H3664 C3648 0.930 . S
H3665 C3649 0.931 . S
H3666 C3653 0.928 . S
H3667 C3652 0.929 . S
H3668 C3650 0.932 1_545 S
C3669 C3670 1.386 . S
C3669 C3671 1.397 . S
C3669 H3693 0.931 . S
C3670 C3669 1.386 . S
C3670 C3674 1.397 . S
C3671 C3669 1.397 . S
C3671 C3672 1.384 . S
C3671 H3694 0.930 . S
C3672 C3671 1.384 . S
C3672 C3673 1.377 . S
C3672 C3675 1.481 . S
C3673 C3672 1.377 . S
C3673 C3674 1.389 . S
C3673 H3695 0.929 . S
C3674 C3670 1.397 . S
C3674 C3673 1.389 . S
C3674 H3696 0.931 . S
C3675 C3672 1.481 . S
C3675 C3676 1.387 . S
C3675 C3680 1.390 . S
C3676 C3675 1.387 . S
C3676 C3677 1.401 . S
C3676 H3697 0.930 . S
C3677 C3676 1.401 . S
C3677 C3678 1.376 . S
C3677 C3686 1.511 . S
C3678 C3677 1.376 . S
C3678 C3679 1.392 . S
C3678 H3699 0.931 . S
C3679 C3678 1.392 . S
C3679 C3680 1.361 . S
C3679 C3681 1.500 . S
C3680 C3675 1.390 . S
C3680 C3679 1.361 . S
C3680 H3698 0.931 . S
C3681 C3679 1.500 . S
C3681 C3682 1.371 . S
C3681 C3683 1.365 . S
C3682 C3681 1.371 . S
C3682 C3692 1.386 . S
C3682 H3700 0.931 . S
C3683 C3681 1.365 . S
C3683 C3684 1.409 . S
C3683 H3701 0.929 . S
C3684 C3683 1.409 . S
C3684 C3685 1.380 . S
C3684 H3702 0.930 . S
C3685 C3684 1.380 . S
C3685 C3692 1.357 . S
C3686 C3677 1.511 . S
C3686 C3687 1.341 . S
C3686 C3688 1.371 . S
C3687 C3686 1.341 . S
C3687 C3691 1.394 . S
C3687 H3703 0.930 . S
C3688 C3686 1.371 . S
C3688 C3689 1.392 . S
C3688 H3704 0.931 . S
C3689 C3688 1.392 . S
C3689 C3690 1.331 . S
C3689 H3707 0.932 . S
C3690 C3689 1.331 . S
C3690 C3691 1.336 . S
C3691 C3687 1.394 . S
C3691 C3690 1.336 . S
C3691 H3706 0.929 . S
C3692 C3682 1.386 . S
C3692 C3685 1.357 . S
C3692 H3705 0.928 . S
H3693 C3669 0.931 . S
H3694 C3671 0.930 . S
H3695 C3673 0.929 . S
H3696 C3674 0.931 . S
H3697 C3676 0.930 . S
H3698 C3680 0.931 . S
H3699 C3678 0.931 . S
H3700 C3682 0.931 . S
H3701 C3683 0.929 . S
H3702 C3684 0.930 . S
H3703 C3687 0.930 . S
H3704 C3688 0.931 . S
H3705 C3692 0.928 . S
H3706 C3691 0.929 . S
H3707 C3689 0.932 . S
C3708 C3709 1.386 . S
C3708 C3710 1.397 . S
C3708 H3732 0.931 . S
C3709 C3708 1.386 . S
C3709 C3713 1.397 . S
C3710 C3708 1.397 . S
C3710 C3711 1.384 . S
C3710 H3733 0.930 . S
C3711 C3710 1.384 . S
C3711 C3712 1.377 . S
C3711 C3714 1.481 . S
C3712 C3711 1.377 . S
C3712 C3713 1.389 . S
C3712 H3734 0.929 . S
C3713 C3709 1.397 . S
C3713 C3712 1.389 . S
C3713 H3735 0.931 . S
C3714 C3711 1.481 . S
C3714 C3715 1.387 . S
C3714 C3719 1.390 . S
C3715 C3714 1.387 . S
C3715 C3716 1.401 . S
C3715 H3736 0.930 . S
C3716 C3715 1.401 . S
C3716 C3717 1.376 . S
C3716 C3725 1.511 . S
C3717 C3716 1.376 . S
C3717 C3718 1.392 . S
C3717 H3738 0.931 . S
C3718 C3717 1.392 . S
C3718 C3719 1.361 . S
C3718 C3720 1.500 . S
C3719 C3714 1.390 . S
C3719 C3718 1.361 . S
C3719 H3737 0.931 . S
C3720 C3718 1.500 . S
C3720 C3721 1.371 . S
C3720 C3722 1.365 . S
C3721 C3720 1.371 . S
C3721 C3731 1.386 . S
C3721 H3739 0.931 . S
C3722 C3720 1.365 . S
C3722 C3723 1.409 . S
C3722 H3740 0.929 . S
C3723 C3722 1.409 . S
C3723 C3724 1.380 . S
C3723 H3741 0.930 . S
C3724 C3723 1.380 . S
C3724 C3731 1.357 . S
C3725 C3716 1.511 . S
C3725 C3726 1.341 . S
C3725 C3727 1.371 . S
C3726 C3725 1.341 . S
C3726 C3730 1.394 . S
C3726 H3742 0.930 . S
C3727 C3725 1.371 . S
C3727 C3728 1.392 . S
C3727 H3743 0.931 . S
C3728 C3727 1.392 . S
C3728 C3729 1.331 . S
C3728 H3746 0.932 . S
C3729 C3728 1.331 . S
C3729 C3730 1.336 . S
C3730 C3726 1.394 . S
C3730 C3729 1.336 . S
C3730 H3745 0.929 . S
C3731 C3721 1.386 . S
C3731 C3724 1.357 . S
C3731 H3744 0.928 . S
H3732 C3708 0.931 . S
H3733 C3710 0.930 . S
H3734 C3712 0.929 . S
H3735 C3713 0.931 . S
H3736 C3715 0.930 . S
H3737 C3719 0.931 . S
H3738 C3717 0.931 . S
H3739 C3721 0.931 . S
H3740 C3722 0.929 . S
H3741 C3723 0.930 . S
H3742 C3726 0.930 . S
H3743 C3727 0.931 . S
H3744 C3731 0.928 . S
H3745 C3730 0.929 . S
H3746 C3728 0.932 . S
C3747 C3748 1.386 . S
C3747 C3749 1.397 . S
C3747 H3771 0.931 . S
C3748 C3747 1.386 . S
C3748 C3752 1.397 . S
C3749 C3747 1.397 . S
C3749 C3750 1.384 . S
C3749 H3772 0.930 . S
C3750 C3749 1.384 . S
C3750 C3751 1.377 . S
C3750 C3753 1.481 . S
C3751 C3750 1.377 . S
C3751 C3752 1.389 . S
C3751 H3773 0.929 . S
C3752 C3748 1.397 . S
C3752 C3751 1.389 . S
C3752 H3774 0.931 . S
C3753 C3750 1.481 . S
C3753 C3754 1.387 . S
C3753 C3758 1.390 . S
C3754 C3753 1.387 . S
C3754 C3755 1.401 . S
C3754 H3775 0.930 . S
C3755 C3754 1.401 . S
C3755 C3756 1.376 . S
C3755 C3764 1.511 . S
C3756 C3755 1.376 . S
C3756 C3757 1.392 . S
C3756 H3777 0.931 . S
C3757 C3756 1.392 . S
C3757 C3758 1.361 . S
C3757 C3759 1.500 . S
C3758 C3753 1.390 . S
C3758 C3757 1.361 . S
C3758 H3776 0.931 . S
C3759 C3757 1.500 . S
C3759 C3760 1.371 . S
C3759 C3761 1.365 . S
C3760 C3759 1.371 . S
C3760 C3770 1.386 . S
C3760 H3778 0.931 . S
C3761 C3759 1.365 . S
C3761 C3762 1.409 . S
C3761 H3779 0.929 . S
C3762 C3761 1.409 . S
C3762 C3763 1.380 . S
C3762 H3780 0.930 . S
C3763 C3762 1.380 . S
C3763 C3770 1.357 . S
C3764 C3755 1.511 . S
C3764 C3765 1.341 . S
C3764 C3766 1.371 . S
C3765 C3764 1.341 . S
C3765 C3769 1.394 . S
C3765 H3781 0.930 . S
C3766 C3764 1.371 . S
C3766 C3767 1.392 . S
C3766 H3782 0.931 . S
C3767 C3766 1.392 . S
C3767 C3768 1.331 . S
C3767 H3785 0.932 . S
C3768 C3767 1.331 . S
C3768 C3769 1.336 . S
C3769 C3765 1.394 . S
C3769 C3768 1.336 . S
C3769 H3784 0.929 . S
C3770 C3760 1.386 . S
C3770 C3763 1.357 . S
C3770 H3783 0.928 . S
H3771 C3747 0.931 . S
H3772 C3749 0.930 . S
H3773 C3751 0.929 . S
H3774 C3752 0.931 . S
H3775 C3754 0.930 . S
H3776 C3758 0.931 . S
H3777 C3756 0.931 . S
H3778 C3760 0.931 . S
H3779 C3761 0.929 . S
H3780 C3762 0.930 . S
H3781 C3765 0.930 . S
H3782 C3766 0.931 . S
H3783 C3770 0.928 . S
H3784 C3769 0.929 . S
H3785 C3767 0.932 . S
C3786 C3787 1.386 . S
C3786 C3788 1.397 . S
C3786 H3810 0.931 . S
C3787 C3786 1.386 . S
C3787 C3791 1.397 . S
C3788 C3786 1.397 . S
C3788 C3789 1.384 . S
C3788 H3811 0.930 . S
C3789 C3788 1.384 . S
C3789 C3790 1.377 . S
C3789 C3792 1.481 . S
C3790 C3789 1.377 . S
C3790 C3791 1.389 . S
C3790 H3812 0.929 . S
C3791 C3787 1.397 . S
C3791 C3790 1.389 . S
C3791 H3813 0.931 . S
C3792 C3789 1.481 . S
C3792 C3793 1.387 . S
C3792 C3797 1.390 . S
C3793 C3792 1.387 . S
C3793 C3794 1.401 . S
C3793 H3814 0.930 . S
C3794 C3793 1.401 . S
C3794 C3795 1.376 . S
C3794 C3803 1.511 . S
C3795 C3794 1.376 . S
C3795 C3796 1.392 . S
C3795 H3816 0.931 . S
C3796 C3795 1.392 . S
C3796 C3797 1.361 . S
C3796 C3798 1.500 . S
C3797 C3792 1.390 . S
C3797 C3796 1.361 . S
C3797 H3815 0.931 . S
C3798 C3796 1.500 . S
C3798 C3799 1.371 . S
C3798 C3800 1.365 . S
C3799 C3798 1.371 . S
C3799 C3809 1.386 . S
C3799 H3817 0.931 . S
C3800 C3798 1.365 . S
C3800 C3801 1.409 . S
C3800 H3818 0.929 . S
C3801 C3800 1.409 . S
C3801 C3802 1.380 . S
C3801 H3819 0.930 . S
C3802 C3801 1.380 . S
C3802 C3809 1.357 . S
C3803 C3794 1.511 . S
C3803 C3804 1.341 . S
C3803 C3805 1.371 . S
C3804 C3803 1.341 . S
C3804 C3808 1.394 . S
C3804 H3820 0.930 . S
C3805 C3803 1.371 . S
C3805 C3806 1.392 . S
C3805 H3821 0.931 . S
C3806 C3805 1.392 . S
C3806 C3807 1.331 . S
C3806 H3824 0.932 1_545 S
C3807 C3806 1.331 . S
C3807 C3808 1.336 . S
C3808 C3804 1.394 . S
C3808 C3807 1.336 . S
C3808 H3823 0.929 . S
C3809 C3799 1.386 . S
C3809 C3802 1.357 . S
C3809 H3822 0.928 . S
H3810 C3786 0.931 . S
H3811 C3788 0.930 . S
H3812 C3790 0.929 . S
H3813 C3791 0.931 . S
H3814 C3793 0.930 . S
H3815 C3797 0.931 . S
H3816 C3795 0.931 . S
H3817 C3799 0.931 . S
H3818 C3800 0.929 . S
H3819 C3801 0.930 . S
H3820 C3804 0.930 . S
H3821 C3805 0.931 . S
H3822 C3809 0.928 . S
H3823 C3808 0.929 . S
H3824 C3806 0.932 1_565 S
C3825 C3826 1.386 . S
C3825 C3827 1.397 . S
C3825 H3849 0.931 . S
C3826 C3825 1.386 . S
C3826 C3830 1.397 . S
C3827 C3825 1.397 . S
C3827 C3828 1.384 . S
C3827 H3850 0.930 . S
C3828 C3827 1.384 . S
C3828 C3829 1.377 . S
C3828 C3831 1.481 . S
C3829 C3828 1.377 . S
C3829 C3830 1.389 . S
C3829 H3851 0.929 . S
C3830 C3826 1.397 . S
C3830 C3829 1.389 . S
C3830 H3852 0.931 . S
C3831 C3828 1.481 . S
C3831 C3832 1.387 . S
C3831 C3836 1.390 . S
C3832 C3831 1.387 . S
C3832 C3833 1.401 . S
C3832 H3853 0.930 . S
C3833 C3832 1.401 . S
C3833 C3834 1.376 . S
C3833 C3842 1.511 . S
C3834 C3833 1.376 . S
C3834 C3835 1.392 . S
C3834 H3855 0.931 . S
C3835 C3834 1.392 . S
C3835 C3836 1.361 . S
C3835 C3837 1.500 . S
C3836 C3831 1.390 . S
C3836 C3835 1.361 . S
C3836 H3854 0.931 . S
C3837 C3835 1.500 . S
C3837 C3838 1.371 . S
C3837 C3839 1.365 . S
C3838 C3837 1.371 . S
C3838 C3848 1.386 . S
C3838 H3856 0.931 . S
C3839 C3837 1.365 . S
C3839 C3840 1.409 . S
C3839 H3857 0.929 . S
C3840 C3839 1.409 . S
C3840 C3841 1.380 . S
C3840 H3858 0.930 . S
C3841 C3840 1.380 . S
C3841 C3848 1.357 . S
C3842 C3833 1.511 . S
C3842 C3843 1.341 . S
C3842 C3844 1.371 . S
C3843 C3842 1.341 . S
C3843 C3847 1.394 . S
C3843 H3859 0.930 . S
C3844 C3842 1.371 . S
C3844 C3845 1.392 . S
C3844 H3860 0.931 . S
C3845 C3844 1.392 . S
C3845 C3846 1.331 . S
C3845 H3863 0.932 . S
C3846 C3845 1.331 . S
C3846 C3847 1.336 . S
C3847 C3843 1.394 . S
C3847 C3846 1.336 . S
C3847 H3862 0.929 1_565 S
C3848 C3838 1.386 . S
C3848 C3841 1.357 . S
C3848 H3861 0.928 . S
H3849 C3825 0.931 . S
H3850 C3827 0.930 . S
H3851 C3829 0.929 . S
H3852 C3830 0.931 . S
H3853 C3832 0.930 . S
H3854 C3836 0.931 . S
H3855 C3834 0.931 . S
H3856 C3838 0.931 . S
H3857 C3839 0.929 . S
H3858 C3840 0.930 . S
H3859 C3843 0.930 . S
H3860 C3844 0.931 . S
H3861 C3848 0.928 . S
H3862 C3847 0.929 1_545 S
H3863 C3845 0.932 . S
C3864 C3865 1.386 . S
C3864 C3866 1.397 . S
C3864 H3888 0.931 . S
C3865 C3864 1.386 . S
C3865 C3869 1.397 . S
C3866 C3864 1.397 . S
C3866 C3867 1.384 . S
C3866 H3889 0.930 . S
C3867 C3866 1.384 . S
C3867 C3868 1.377 . S
C3867 C3870 1.481 . S
C3868 C3867 1.377 . S
C3868 C3869 1.389 . S
C3868 H3890 0.929 . S
C3869 C3865 1.397 . S
C3869 C3868 1.389 . S
C3869 H3891 0.931 . S
C3870 C3867 1.481 . S
C3870 C3871 1.387 . S
C3870 C3875 1.390 . S
C3871 C3870 1.387 . S
C3871 C3872 1.401 . S
C3871 H3892 0.930 . S
C3872 C3871 1.401 . S
C3872 C3873 1.376 . S
C3872 C3881 1.511 . S
C3873 C3872 1.376 . S
C3873 C3874 1.392 . S
C3873 H3894 0.931 . S
C3874 C3873 1.392 . S
C3874 C3875 1.361 . S
C3874 C3876 1.500 . S
C3875 C3870 1.390 . S
C3875 C3874 1.361 . S
C3875 H3893 0.931 . S
C3876 C3874 1.500 . S
C3876 C3877 1.371 . S
C3876 C3878 1.365 . S
C3877 C3876 1.371 . S
C3877 C3887 1.386 . S
C3877 H3895 0.931 . S
C3878 C3876 1.365 . S
C3878 C3879 1.409 . S
C3878 H3896 0.929 . S
C3879 C3878 1.409 . S
C3879 C3880 1.380 . S
C3879 H3897 0.930 . S
C3880 C3879 1.380 . S
C3880 C3887 1.357 . S
C3881 C3872 1.511 . S
C3881 C3882 1.341 . S
C3881 C3883 1.371 . S
C3882 C3881 1.341 . S
C3882 C3886 1.394 . S
C3882 H3898 0.930 . S
C3883 C3881 1.371 . S
C3883 C3884 1.392 . S
C3883 H3899 0.931 . S
C3884 C3883 1.392 . S
C3884 C3885 1.331 . S
C3884 H3902 0.932 . S
C3885 C3884 1.331 . S
C3885 C3886 1.336 . S
C3886 C3882 1.394 . S
C3886 C3885 1.336 . S
C3886 H3901 0.929 . S
C3887 C3877 1.386 . S
C3887 C3880 1.357 . S
C3887 H3900 0.928 . S
H3888 C3864 0.931 . S
H3889 C3866 0.930 . S
H3890 C3868 0.929 . S
H3891 C3869 0.931 . S
H3892 C3871 0.930 . S
H3893 C3875 0.931 . S
H3894 C3873 0.931 . S
H3895 C3877 0.931 . S
H3896 C3878 0.929 . S
H3897 C3879 0.930 . S
H3898 C3882 0.930 . S
H3899 C3883 0.931 . S
H3900 C3887 0.928 . S
H3901 C3886 0.929 . S
H3902 C3884 0.932 . S
C3903 C3904 1.386 . S
C3903 C3905 1.397 . S
C3903 H3927 0.931 . S
C3904 C3903 1.386 . S
C3904 C3908 1.397 . S
C3905 C3903 1.397 . S
C3905 C3906 1.384 . S
C3905 H3928 0.930 . S
C3906 C3905 1.384 . S
C3906 C3907 1.377 . S
C3906 C3909 1.481 . S
C3907 C3906 1.377 . S
C3907 C3908 1.389 . S
C3907 H3929 0.929 . S
C3908 C3904 1.397 . S
C3908 C3907 1.389 . S
C3908 H3930 0.931 . S
C3909 C3906 1.481 . S
C3909 C3910 1.387 . S
C3909 C3914 1.390 . S
C3910 C3909 1.387 . S
C3910 C3911 1.401 . S
C3910 H3931 0.930 . S
C3911 C3910 1.401 . S
C3911 C3912 1.376 . S
C3911 C3920 1.511 . S
C3912 C3911 1.376 . S
C3912 C3913 1.392 . S
C3912 H3933 0.931 . S
C3913 C3912 1.392 . S
C3913 C3914 1.361 . S
C3913 C3915 1.500 . S
C3914 C3909 1.390 . S
C3914 C3913 1.361 . S
C3914 H3932 0.931 . S
C3915 C3913 1.500 . S
C3915 C3916 1.371 . S
C3915 C3917 1.365 . S
C3916 C3915 1.371 . S
C3916 C3926 1.386 . S
C3916 H3934 0.931 . S
C3917 C3915 1.365 . S
C3917 C3918 1.409 . S
C3917 H3935 0.929 . S
C3918 C3917 1.409 . S
C3918 C3919 1.380 . S
C3918 H3936 0.930 . S
C3919 C3918 1.380 . S
C3919 C3926 1.357 . S
C3920 C3911 1.511 . S
C3920 C3921 1.341 . S
C3920 C3922 1.371 . S
C3921 C3920 1.341 . S
C3921 C3925 1.394 . S
C3921 H3937 0.930 . S
C3922 C3920 1.371 . S
C3922 C3923 1.392 . S
C3922 H3938 0.931 . S
C3923 C3922 1.392 . S
C3923 C3924 1.331 . S
C3923 H3941 0.932 . S
C3924 C3923 1.331 . S
C3924 C3925 1.336 . S
C3925 C3921 1.394 . S
C3925 C3924 1.336 . S
C3925 H3940 0.929 . S
C3926 C3916 1.386 . S
C3926 C3919 1.357 . S
C3926 H3939 0.928 . S
H3927 C3903 0.931 . S
H3928 C3905 0.930 . S
H3929 C3907 0.929 . S
H3930 C3908 0.931 . S
H3931 C3910 0.930 . S
H3932 C3914 0.931 . S
H3933 C3912 0.931 . S
H3934 C3916 0.931 . S
H3935 C3917 0.929 . S
H3936 C3918 0.930 . S
H3937 C3921 0.930 . S
H3938 C3922 0.931 . S
H3939 C3926 0.928 . S
H3940 C3925 0.929 . S
H3941 C3923 0.932 . S
C3942 C3943 1.386 . S
C3942 C3944 1.397 . S
C3942 H3966 0.931 . S
C3943 C3942 1.386 . S
C3943 C3947 1.397 . S
C3944 C3942 1.397 . S
C3944 C3945 1.384 . S
C3944 H3967 0.930 . S
C3945 C3944 1.384 . S
C3945 C3946 1.377 . S
C3945 C3948 1.481 . S
C3946 C3945 1.377 . S
C3946 C3947 1.389 . S
C3946 H3968 0.929 . S
C3947 C3943 1.397 . S
C3947 C3946 1.389 . S
C3947 H3969 0.931 . S
C3948 C3945 1.481 . S
C3948 C3949 1.387 . S
C3948 C3953 1.390 . S
C3949 C3948 1.387 . S
C3949 C3950 1.401 . S
C3949 H3970 0.930 . S
C3950 C3949 1.401 . S
C3950 C3951 1.376 . S
C3950 C3959 1.511 . S
C3951 C3950 1.376 . S
C3951 C3952 1.392 . S
C3951 H3972 0.931 . S
C3952 C3951 1.392 . S
C3952 C3953 1.361 . S
C3952 C3954 1.500 . S
C3953 C3948 1.390 . S
C3953 C3952 1.361 . S
C3953 H3971 0.931 . S
C3954 C3952 1.500 . S
C3954 C3955 1.371 . S
C3954 C3956 1.365 . S
C3955 C3954 1.371 . S
C3955 C3965 1.386 . S
C3955 H3973 0.931 . S
C3956 C3954 1.365 . S
C3956 C3957 1.409 . S
C3956 H3974 0.929 . S
C3957 C3956 1.409 . S
C3957 C3958 1.380 . S
C3957 H3975 0.930 . S
C3958 C3957 1.380 . S
C3958 C3965 1.357 . S
C3959 C3950 1.511 . S
C3959 C3960 1.341 . S
C3959 C3961 1.371 . S
C3960 C3959 1.341 . S
C3960 C3964 1.394 . S
C3960 H3976 0.930 . S
C3961 C3959 1.371 . S
C3961 C3962 1.392 . S
C3961 H3977 0.931 . S
C3962 C3961 1.392 . S
C3962 C3963 1.331 . S
C3962 H3980 0.932 . S
C3963 C3962 1.331 . S
C3963 C3964 1.336 . S
C3964 C3960 1.394 . S
C3964 C3963 1.336 . S
C3964 H3979 0.929 . S
C3965 C3955 1.386 . S
C3965 C3958 1.357 . S
C3965 H3978 0.928 . S
H3966 C3942 0.931 . S
H3967 C3944 0.930 . S
H3968 C3946 0.929 . S
H3969 C3947 0.931 . S
H3970 C3949 0.930 . S
H3971 C3953 0.931 . S
H3972 C3951 0.931 . S
H3973 C3955 0.931 . S
H3974 C3956 0.929 . S
H3975 C3957 0.930 . S
H3976 C3960 0.930 . S
H3977 C3961 0.931 . S
H3978 C3965 0.928 . S
H3979 C3964 0.929 . S
H3980 C3962 0.932 . S
C3981 C3982 1.386 . S
C3981 C3983 1.397 . S
C3981 H4005 0.931 . S
C3982 C3981 1.386 . S
C3982 C3986 1.397 . S
C3983 C3981 1.397 . S
C3983 C3984 1.384 . S
C3983 H4006 0.930 . S
C3984 C3983 1.384 . S
C3984 C3985 1.377 . S
C3984 C3987 1.481 . S
C3985 C3984 1.377 . S
C3985 C3986 1.389 . S
C3985 H4007 0.929 . S
C3986 C3982 1.397 . S
C3986 C3985 1.389 . S
C3986 H4008 0.931 . S
C3987 C3984 1.481 . S
C3987 C3988 1.387 . S
C3987 C3992 1.390 . S
C3988 C3987 1.387 . S
C3988 C3989 1.401 . S
C3988 H4009 0.930 . S
C3989 C3988 1.401 . S
C3989 C3990 1.376 . S
C3989 C3998 1.511 . S
C3990 C3989 1.376 . S
C3990 C3991 1.392 . S
C3990 H4011 0.931 . S
C3991 C3990 1.392 . S
C3991 C3992 1.361 . S
C3991 C3993 1.500 . S
C3992 C3987 1.390 . S
C3992 C3991 1.361 . S
C3992 H4010 0.931 . S
C3993 C3991 1.500 . S
C3993 C3994 1.371 . S
C3993 C3995 1.365 . S
C3994 C3993 1.371 . S
C3994 C4004 1.386 . S
C3994 H4012 0.931 . S
C3995 C3993 1.365 . S
C3995 C3996 1.409 . S
C3995 H4013 0.929 . S
C3996 C3995 1.409 . S
C3996 C3997 1.380 . S
C3996 H4014 0.930 . S
C3997 C3996 1.380 . S
C3997 C4004 1.357 . S
C3998 C3989 1.511 . S
C3998 C3999 1.341 . S
C3998 C4000 1.371 . S
C3999 C3998 1.341 . S
C3999 C4003 1.394 . S
C3999 H4015 0.930 . S
C4000 C3998 1.371 . S
C4000 C4001 1.392 . S
C4000 H4016 0.931 . S
C4001 C4000 1.392 . S
C4001 C4002 1.331 . S
C4001 H4019 0.932 . S
C4002 C4001 1.331 . S
C4002 C4003 1.336 . S
C4003 C3999 1.394 . S
C4003 C4002 1.336 . S
C4003 H4018 0.929 . S
C4004 C3994 1.386 . S
C4004 C3997 1.357 . S
C4004 H4017 0.928 . S
H4005 C3981 0.931 . S
H4006 C3983 0.930 . S
H4007 C3985 0.929 . S
H4008 C3986 0.931 . S
H4009 C3988 0.930 . S
H4010 C3992 0.931 . S
H4011 C3990 0.931 . S
H4012 C3994 0.931 . S
H4013 C3995 0.929 . S
H4014 C3996 0.930 . S
H4015 C3999 0.930 . S
H4016 C4000 0.931 . S
H4017 C4004 0.928 . S
H4018 C4003 0.929 . S
H4019 C4001 0.932 . S
C4020 C4021 1.386 . S
C4020 C4022 1.397 . S
C4020 H4044 0.931 . S
C4021 C4020 1.386 . S
C4021 C4025 1.397 . S
C4022 C4020 1.397 . S
C4022 C4023 1.384 . S
C4022 H4045 0.930 . S
C4023 C4022 1.384 . S
C4023 C4024 1.377 . S
C4023 C4026 1.481 . S
C4024 C4023 1.377 . S
C4024 C4025 1.389 . S
C4024 H4046 0.929 . S
C4025 C4021 1.397 . S
C4025 C4024 1.389 . S
C4025 H4047 0.931 . S
C4026 C4023 1.481 . S
C4026 C4027 1.387 . S
C4026 C4031 1.390 . S
C4027 C4026 1.387 . S
C4027 C4028 1.401 . S
C4027 H4048 0.930 . S
C4028 C4027 1.401 . S
C4028 C4029 1.376 . S
C4028 C4037 1.511 . S
C4029 C4028 1.376 . S
C4029 C4030 1.392 . S
C4029 H4050 0.931 . S
C4030 C4029 1.392 . S
C4030 C4031 1.361 . S
C4030 C4032 1.500 . S
C4031 C4026 1.390 . S
C4031 C4030 1.361 . S
C4031 H4049 0.931 . S
C4032 C4030 1.500 . S
C4032 C4033 1.371 . S
C4032 C4034 1.365 . S
C4033 C4032 1.371 . S
C4033 C4043 1.386 . S
C4033 H4051 0.931 . S
C4034 C4032 1.365 . S
C4034 C4035 1.409 . S
C4034 H4052 0.929 . S
C4035 C4034 1.409 . S
C4035 C4036 1.380 . S
C4035 H4053 0.930 . S
C4036 C4035 1.380 . S
C4036 C4043 1.357 . S
C4037 C4028 1.511 . S
C4037 C4038 1.341 . S
C4037 C4039 1.371 . S
C4038 C4037 1.341 . S
C4038 C4042 1.394 . S
C4038 H4054 0.930 . S
C4039 C4037 1.371 . S
C4039 C4040 1.392 . S
C4039 H4055 0.931 . S
C4040 C4039 1.392 . S
C4040 C4041 1.331 . S
C4040 H4058 0.932 . S
C4041 C4040 1.331 . S
C4041 C4042 1.336 . S
C4042 C4038 1.394 . S
C4042 C4041 1.336 . S
C4042 H4057 0.929 . S
C4043 C4033 1.386 . S
C4043 C4036 1.357 . S
C4043 H4056 0.928 . S
H4044 C4020 0.931 . S
H4045 C4022 0.930 . S
H4046 C4024 0.929 . S
H4047 C4025 0.931 . S
H4048 C4027 0.930 . S
H4049 C4031 0.931 . S
H4050 C4029 0.931 . S
H4051 C4033 0.931 . S
H4052 C4034 0.929 . S
H4053 C4035 0.930 . S
H4054 C4038 0.930 . S
H4055 C4039 0.931 . S
H4056 C4043 0.928 . S
H4057 C4042 0.929 . S
H4058 C4040 0.932 . S
C4059 C4060 1.386 . S
C4059 C4061 1.397 . S
C4059 H4083 0.931 . S
C4060 C4059 1.386 . S
C4060 C4064 1.397 . S
C4061 C4059 1.397 . S
C4061 C4062 1.384 . S
C4061 H4084 0.930 . S
C4062 C4061 1.384 . S
C4062 C4063 1.377 . S
C4062 C4065 1.481 . S
C4063 C4062 1.377 . S
C4063 C4064 1.389 . S
C4063 H4085 0.929 . S
C4064 C4060 1.397 . S
C4064 C4063 1.389 . S
C4064 H4086 0.931 . S
C4065 C4062 1.481 . S
C4065 C4066 1.387 . S
C4065 C4070 1.390 . S
C4066 C4065 1.387 . S
C4066 C4067 1.401 . S
C4066 H4087 0.930 . S
C4067 C4066 1.401 . S
C4067 C4068 1.376 . S
C4067 C4076 1.511 . S
C4068 C4067 1.376 . S
C4068 C4069 1.392 . S
C4068 H4089 0.931 . S
C4069 C4068 1.392 . S
C4069 C4070 1.361 . S
C4069 C4071 1.500 . S
C4070 C4065 1.390 . S
C4070 C4069 1.361 . S
C4070 H4088 0.931 . S
C4071 C4069 1.500 . S
C4071 C4072 1.371 . S
C4071 C4073 1.365 . S
C4072 C4071 1.371 . S
C4072 C4082 1.386 . S
C4072 H4090 0.931 . S
C4073 C4071 1.365 . S
C4073 C4074 1.409 . S
C4073 H4091 0.929 . S
C4074 C4073 1.409 . S
C4074 C4075 1.380 . S
C4074 H4092 0.930 . S
C4075 C4074 1.380 . S
C4075 C4082 1.357 . S
C4076 C4067 1.511 . S
C4076 C4077 1.341 . S
C4076 C4078 1.371 . S
C4077 C4076 1.341 . S
C4077 C4081 1.394 . S
C4077 H4093 0.930 . S
C4078 C4076 1.371 . S
C4078 C4079 1.392 . S
C4078 H4094 0.931 . S
C4079 C4078 1.392 . S
C4079 C4080 1.331 . S
C4079 H4097 0.932 . S
C4080 C4079 1.331 . S
C4080 C4081 1.336 . S
C4081 C4077 1.394 . S
C4081 C4080 1.336 . S
C4081 H4096 0.929 . S
C4082 C4072 1.386 . S
C4082 C4075 1.357 . S
C4082 H4095 0.928 . S
H4083 C4059 0.931 . S
H4084 C4061 0.930 . S
H4085 C4063 0.929 . S
H4086 C4064 0.931 . S
H4087 C4066 0.930 . S
H4088 C4070 0.931 . S
H4089 C4068 0.931 . S
H4090 C4072 0.931 . S
H4091 C4073 0.929 . S
H4092 C4074 0.930 . S
H4093 C4077 0.930 . S
H4094 C4078 0.931 . S
H4095 C4082 0.928 . S
H4096 C4081 0.929 . S
H4097 C4079 0.932 . S
C4098 C4099 1.386 . S
C4098 C4100 1.397 . S
C4098 H4122 0.931 . S
C4099 C4098 1.386 . S
C4099 C4103 1.397 . S
C4100 C4098 1.397 . S
C4100 C4101 1.384 . S
C4100 H4123 0.930 . S
C4101 C4100 1.384 . S
C4101 C4102 1.377 . S
C4101 C4104 1.481 . S
C4102 C4101 1.377 . S
C4102 C4103 1.389 . S
C4102 H4124 0.929 . S
C4103 C4099 1.397 . S
C4103 C4102 1.389 . S
C4103 H4125 0.931 . S
C4104 C4101 1.481 . S
C4104 C4105 1.387 . S
C4104 C4109 1.390 . S
C4105 C4104 1.387 . S
C4105 C4106 1.401 . S
C4105 H4126 0.930 . S
C4106 C4105 1.401 . S
C4106 C4107 1.376 . S
C4106 C4115 1.511 . S
C4107 C4106 1.376 . S
C4107 C4108 1.392 . S
C4107 H4128 0.931 . S
C4108 C4107 1.392 . S
C4108 C4109 1.361 . S
C4108 C4110 1.500 . S
C4109 C4104 1.390 . S
C4109 C4108 1.361 . S
C4109 H4127 0.931 . S
C4110 C4108 1.500 . S
C4110 C4111 1.371 . S
C4110 C4112 1.365 . S
C4111 C4110 1.371 . S
C4111 C4121 1.386 . S
C4111 H4129 0.931 . S
C4112 C4110 1.365 . S
C4112 C4113 1.409 . S
C4112 H4130 0.929 . S
C4113 C4112 1.409 . S
C4113 C4114 1.380 . S
C4113 H4131 0.930 . S
C4114 C4113 1.380 . S
C4114 C4121 1.357 . S
C4115 C4106 1.511 . S
C4115 C4116 1.341 . S
C4115 C4117 1.371 . S
C4116 C4115 1.341 . S
C4116 C4120 1.394 . S
C4116 H4132 0.930 . S
C4117 C4115 1.371 . S
C4117 C4118 1.392 . S
C4117 H4133 0.931 . S
C4118 C4117 1.392 . S
C4118 C4119 1.331 . S
C4118 H4136 0.932 . S
C4119 C4118 1.331 . S
C4119 C4120 1.336 . S
C4120 C4116 1.394 . S
C4120 C4119 1.336 . S
C4120 H4135 0.929 . S
C4121 C4111 1.386 . S
C4121 C4114 1.357 . S
C4121 H4134 0.928 . S
H4122 C4098 0.931 . S
H4123 C4100 0.930 . S
H4124 C4102 0.929 . S
H4125 C4103 0.931 . S
H4126 C4105 0.930 . S
H4127 C4109 0.931 . S
H4128 C4107 0.931 . S
H4129 C4111 0.931 . S
H4130 C4112 0.929 . S
H4131 C4113 0.930 . S
H4132 C4116 0.930 . S
H4133 C4117 0.931 . S
H4134 C4121 0.928 . S
H4135 C4120 0.929 . S
H4136 C4118 0.932 . S
C4137 C4138 1.386 . S
C4137 C4139 1.397 . S
C4137 H4161 0.931 . S
C4138 C4137 1.386 . S
C4138 C4142 1.397 . S
C4139 C4137 1.397 . S
C4139 C4140 1.384 . S
C4139 H4162 0.930 . S
C4140 C4139 1.384 . S
C4140 C4141 1.377 . S
C4140 C4143 1.481 . S
C4141 C4140 1.377 . S
C4141 C4142 1.389 . S
C4141 H4163 0.929 . S
C4142 C4138 1.397 . S
C4142 C4141 1.389 . S
C4142 H4164 0.931 . S
C4143 C4140 1.481 . S
C4143 C4144 1.387 . S
C4143 C4148 1.390 . S
C4144 C4143 1.387 . S
C4144 C4145 1.401 . S
C4144 H4165 0.930 . S
C4145 C4144 1.401 . S
C4145 C4146 1.376 . S
C4145 C4154 1.511 . S
C4146 C4145 1.376 . S
C4146 C4147 1.392 . S
C4146 H4167 0.931 . S
C4147 C4146 1.392 . S
C4147 C4148 1.361 . S
C4147 C4149 1.500 . S
C4148 C4143 1.390 . S
C4148 C4147 1.361 . S
C4148 H4166 0.931 . S
C4149 C4147 1.500 . S
C4149 C4150 1.371 . S
C4149 C4151 1.365 . S
C4150 C4149 1.371 . S
C4150 C4160 1.386 . S
C4150 H4168 0.931 . S
C4151 C4149 1.365 . S
C4151 C4152 1.409 . S
C4151 H4169 0.929 . S
C4152 C4151 1.409 . S
C4152 C4153 1.380 . S
C4152 H4170 0.930 . S
C4153 C4152 1.380 . S
C4153 C4160 1.357 . S
C4154 C4145 1.511 . S
C4154 C4155 1.341 . S
C4154 C4156 1.371 . S
C4155 C4154 1.341 . S
C4155 C4159 1.394 . S
C4155 H4171 0.930 . S
C4156 C4154 1.371 . S
C4156 C4157 1.392 . S
C4156 H4172 0.931 . S
C4157 C4156 1.392 . S
C4157 C4158 1.331 . S
C4157 H4175 0.932 . S
C4158 C4157 1.331 . S
C4158 C4159 1.336 . S
C4159 C4155 1.394 . S
C4159 C4158 1.336 . S
C4159 H4174 0.929 . S
C4160 C4150 1.386 . S
C4160 C4153 1.357 . S
C4160 H4173 0.928 . S
H4161 C4137 0.931 . S
H4162 C4139 0.930 . S
H4163 C4141 0.929 . S
H4164 C4142 0.931 . S
H4165 C4144 0.930 . S
H4166 C4148 0.931 . S
H4167 C4146 0.931 . S
H4168 C4150 0.931 . S
H4169 C4151 0.929 . S
H4170 C4152 0.930 . S
H4171 C4155 0.930 . S
H4172 C4156 0.931 . S
H4173 C4160 0.928 . S
H4174 C4159 0.929 . S
H4175 C4157 0.932 . S
C4176 C4177 1.386 . S
C4176 C4178 1.397 . S
C4176 H4200 0.931 . S
C4177 C4176 1.386 . S
C4177 C4181 1.397 . S
C4178 C4176 1.397 . S
C4178 C4179 1.384 . S
C4178 H4201 0.930 . S
C4179 C4178 1.384 . S
C4179 C4180 1.377 . S
C4179 C4182 1.481 . S
C4180 C4179 1.377 . S
C4180 C4181 1.389 . S
C4180 H4202 0.929 . S
C4181 C4177 1.397 . S
C4181 C4180 1.389 . S
C4181 H4203 0.931 . S
C4182 C4179 1.481 . S
C4182 C4183 1.387 . S
C4182 C4187 1.390 . S
C4183 C4182 1.387 . S
C4183 C4184 1.401 . S
C4183 H4204 0.930 . S
C4184 C4183 1.401 . S
C4184 C4185 1.376 . S
C4184 C4193 1.511 . S
C4185 C4184 1.376 . S
C4185 C4186 1.392 . S
C4185 H4206 0.931 . S
C4186 C4185 1.392 . S
C4186 C4187 1.361 . S
C4186 C4188 1.500 . S
C4187 C4182 1.390 . S
C4187 C4186 1.361 . S
C4187 H4205 0.931 . S
C4188 C4186 1.500 . S
C4188 C4189 1.371 . S
C4188 C4190 1.365 . S
C4189 C4188 1.371 . S
C4189 C4199 1.386 . S
C4189 H4207 0.931 . S
C4190 C4188 1.365 . S
C4190 C4191 1.409 . S
C4190 H4208 0.929 . S
C4191 C4190 1.409 . S
C4191 C4192 1.380 . S
C4191 H4209 0.930 . S
C4192 C4191 1.380 . S
C4192 C4199 1.357 . S
C4193 C4184 1.511 . S
C4193 C4194 1.341 . S
C4193 C4195 1.371 . S
C4194 C4193 1.341 . S
C4194 C4198 1.394 . S
C4194 H4210 0.930 . S
C4195 C4193 1.371 . S
C4195 C4196 1.392 . S
C4195 H4211 0.931 . S
C4196 C4195 1.392 . S
C4196 C4197 1.331 . S
C4196 H4214 0.932 . S
C4197 C4196 1.331 . S
C4197 C4198 1.336 . S
C4198 C4194 1.394 . S
C4198 C4197 1.336 . S
C4198 H4213 0.929 . S
C4199 C4189 1.386 . S
C4199 C4192 1.357 . S
C4199 H4212 0.928 . S
H4200 C4176 0.931 . S
H4201 C4178 0.930 . S
H4202 C4180 0.929 . S
H4203 C4181 0.931 . S
H4204 C4183 0.930 . S
H4205 C4187 0.931 . S
H4206 C4185 0.931 . S
H4207 C4189 0.931 . S
H4208 C4190 0.929 . S
H4209 C4191 0.930 . S
H4210 C4194 0.930 . S
H4211 C4195 0.931 . S
H4212 C4199 0.928 . S
H4213 C4198 0.929 . S
H4214 C4196 0.932 . S
C4215 C4216 1.386 . S
C4215 C4217 1.397 . S
C4215 H4239 0.931 . S
C4216 C4215 1.386 . S
C4216 C4220 1.397 . S
C4217 C4215 1.397 . S
C4217 C4218 1.384 . S
C4217 H4240 0.930 . S
C4218 C4217 1.384 . S
C4218 C4219 1.377 . S
C4218 C4221 1.481 . S
C4219 C4218 1.377 . S
C4219 C4220 1.389 . S
C4219 H4241 0.929 . S
C4220 C4216 1.397 . S
C4220 C4219 1.389 . S
C4220 H4242 0.931 . S
C4221 C4218 1.481 . S
C4221 C4222 1.387 . S
C4221 C4226 1.390 . S
C4222 C4221 1.387 . S
C4222 C4223 1.401 . S
C4222 H4243 0.930 . S
C4223 C4222 1.401 . S
C4223 C4224 1.376 . S
C4223 C4232 1.511 . S
C4224 C4223 1.376 . S
C4224 C4225 1.392 . S
C4224 H4245 0.931 . S
C4225 C4224 1.392 . S
C4225 C4226 1.361 . S
C4225 C4227 1.500 . S
C4226 C4221 1.390 . S
C4226 C4225 1.361 . S
C4226 H4244 0.931 . S
C4227 C4225 1.500 . S
C4227 C4228 1.371 . S
C4227 C4229 1.365 . S
C4228 C4227 1.371 . S
C4228 C4238 1.386 . S
C4228 H4246 0.931 . S
C4229 C4227 1.365 . S
C4229 C4230 1.409 . S
C4229 H4247 0.929 . S
C4230 C4229 1.409 . S
C4230 C4231 1.380 . S
C4230 H4248 0.930 . S
C4231 C4230 1.380 . S
C4231 C4238 1.357 . S
C4232 C4223 1.511 . S
C4232 C4233 1.341 . S
C4232 C4234 1.371 . S
C4233 C4232 1.341 . S
C4233 C4237 1.394 . S
C4233 H4249 0.930 . S
C4234 C4232 1.371 . S
C4234 C4235 1.392 . S
C4234 H4250 0.931 . S
C4235 C4234 1.392 . S
C4235 C4236 1.331 . S
C4235 H4253 0.932 . S
C4236 C4235 1.331 . S
C4236 C4237 1.336 . S
C4237 C4233 1.394 . S
C4237 C4236 1.336 . S
C4237 H4252 0.929 . S
C4238 C4228 1.386 . S
C4238 C4231 1.357 . S
C4238 H4251 0.928 . S
H4239 C4215 0.931 . S
H4240 C4217 0.930 . S
H4241 C4219 0.929 . S
H4242 C4220 0.931 . S
H4243 C4222 0.930 . S
H4244 C4226 0.931 . S
H4245 C4224 0.931 . S
H4246 C4228 0.931 . S
H4247 C4229 0.929 . S
H4248 C4230 0.930 . S
H4249 C4233 0.930 . S
H4250 C4234 0.931 . S
H4251 C4238 0.928 . S
H4252 C4237 0.929 . S
H4253 C4235 0.932 . S
C4254 C4255 1.386 . S
C4254 C4256 1.397 . S
C4254 H4278 0.931 . S
C4255 C4254 1.386 . S
C4255 C4259 1.397 . S
C4256 C4254 1.397 . S
C4256 C4257 1.384 . S
C4256 H4279 0.930 . S
C4257 C4256 1.384 . S
C4257 C4258 1.377 . S
C4257 C4260 1.481 . S
C4258 C4257 1.377 . S
C4258 C4259 1.389 . S
C4258 H4280 0.929 . S
C4259 C4255 1.397 . S
C4259 C4258 1.389 . S
C4259 H4281 0.931 . S
C4260 C4257 1.481 . S
C4260 C4261 1.387 . S
C4260 C4265 1.390 . S
C4261 C4260 1.387 . S
C4261 C4262 1.401 . S
C4261 H4282 0.930 . S
C4262 C4261 1.401 . S
C4262 C4263 1.376 . S
C4262 C4271 1.511 . S
C4263 C4262 1.376 . S
C4263 C4264 1.392 . S
C4263 H4284 0.931 . S
C4264 C4263 1.392 . S
C4264 C4265 1.361 . S
C4264 C4266 1.500 . S
C4265 C4260 1.390 . S
C4265 C4264 1.361 . S
C4265 H4283 0.931 . S
C4266 C4264 1.500 . S
C4266 C4267 1.371 . S
C4266 C4268 1.365 . S
C4267 C4266 1.371 . S
C4267 C4277 1.386 . S
C4267 H4285 0.931 . S
C4268 C4266 1.365 . S
C4268 C4269 1.409 . S
C4268 H4286 0.929 . S
C4269 C4268 1.409 . S
C4269 C4270 1.380 . S
C4269 H4287 0.930 . S
C4270 C4269 1.380 . S
C4270 C4277 1.357 . S
C4271 C4262 1.511 . S
C4271 C4272 1.341 . S
C4271 C4273 1.371 . S
C4272 C4271 1.341 . S
C4272 C4276 1.394 . S
C4272 H4288 0.930 . S
C4273 C4271 1.371 . S
C4273 C4274 1.392 . S
C4273 H4289 0.931 . S
C4274 C4273 1.392 . S
C4274 C4275 1.331 . S
C4274 H4292 0.932 . S
C4275 C4274 1.331 . S
C4275 C4276 1.336 . S
C4276 C4272 1.394 . S
C4276 C4275 1.336 . S
C4276 H4291 0.929 . S
C4277 C4267 1.386 . S
C4277 C4270 1.357 . S
C4277 H4290 0.928 . S
H4278 C4254 0.931 . S
H4279 C4256 0.930 . S
H4280 C4258 0.929 . S
H4281 C4259 0.931 . S
H4282 C4261 0.930 . S
H4283 C4265 0.931 . S
H4284 C4263 0.931 . S
H4285 C4267 0.931 . S
H4286 C4268 0.929 . S
H4287 C4269 0.930 . S
H4288 C4272 0.930 . S
H4289 C4273 0.931 . S
H4290 C4277 0.928 . S
H4291 C4276 0.929 . S
H4292 C4274 0.932 . S
C4293 C4294 1.386 . S
C4293 C4295 1.397 . S
C4293 H4317 0.931 . S
C4294 C4293 1.386 . S
C4294 C4298 1.397 . S
C4295 C4293 1.397 . S
C4295 C4296 1.384 . S
C4295 H4318 0.930 . S
C4296 C4295 1.384 . S
C4296 C4297 1.377 . S
C4296 C4299 1.481 . S
C4297 C4296 1.377 . S
C4297 C4298 1.389 . S
C4297 H4319 0.929 . S
C4298 C4294 1.397 . S
C4298 C4297 1.389 . S
C4298 H4320 0.931 . S
C4299 C4296 1.481 . S
C4299 C4300 1.387 . S
C4299 C4304 1.390 . S
C4300 C4299 1.387 . S
C4300 C4301 1.401 . S
C4300 H4321 0.930 . S
C4301 C4300 1.401 . S
C4301 C4302 1.376 . S
C4301 C4310 1.511 . S
C4302 C4301 1.376 . S
C4302 C4303 1.392 . S
C4302 H4323 0.931 . S
C4303 C4302 1.392 . S
C4303 C4304 1.361 . S
C4303 C4305 1.500 . S
C4304 C4299 1.390 . S
C4304 C4303 1.361 . S
C4304 H4322 0.931 . S
C4305 C4303 1.500 . S
C4305 C4306 1.371 . S
C4305 C4307 1.365 . S
C4306 C4305 1.371 . S
C4306 C4316 1.386 . S
C4306 H4324 0.931 . S
C4307 C4305 1.365 . S
C4307 C4308 1.409 . S
C4307 H4325 0.929 . S
C4308 C4307 1.409 . S
C4308 C4309 1.380 . S
C4308 H4326 0.930 . S
C4309 C4308 1.380 . S
C4309 C4316 1.357 . S
C4310 C4301 1.511 . S
C4310 C4311 1.341 . S
C4310 C4312 1.371 . S
C4311 C4310 1.341 . S
C4311 C4315 1.394 . S
C4311 H4327 0.930 . S
C4312 C4310 1.371 . S
C4312 C4313 1.392 . S
C4312 H4328 0.931 . S
C4313 C4312 1.392 . S
C4313 C4314 1.331 . S
C4313 H4331 0.932 . S
C4314 C4313 1.331 . S
C4314 C4315 1.336 . S
C4315 C4311 1.394 . S
C4315 C4314 1.336 . S
C4315 H4330 0.929 . S
C4316 C4306 1.386 . S
C4316 C4309 1.357 . S
C4316 H4329 0.928 . S
H4317 C4293 0.931 . S
H4318 C4295 0.930 . S
H4319 C4297 0.929 . S
H4320 C4298 0.931 . S
H4321 C4300 0.930 . S
H4322 C4304 0.931 . S
H4323 C4302 0.931 . S
H4324 C4306 0.931 . S
H4325 C4307 0.929 . S
H4326 C4308 0.930 . S
H4327 C4311 0.930 . S
H4328 C4312 0.931 . S
H4329 C4316 0.928 . S
H4330 C4315 0.929 . S
H4331 C4313 0.932 . S
C4332 C4333 1.386 . S
C4332 C4334 1.397 . S
C4332 H4356 0.931 . S
C4333 C4332 1.386 . S
C4333 C4337 1.397 . S
C4334 C4332 1.397 . S
C4334 C4335 1.384 . S
C4334 H4357 0.930 . S
C4335 C4334 1.384 . S
C4335 C4336 1.377 . S
C4335 C4338 1.481 . S
C4336 C4335 1.377 . S
C4336 C4337 1.389 . S
C4336 H4358 0.929 . S
C4337 C4333 1.397 . S
C4337 C4336 1.389 . S
C4337 H4359 0.931 . S
C4338 C4335 1.481 . S
C4338 C4339 1.387 . S
C4338 C4343 1.390 . S
C4339 C4338 1.387 . S
C4339 C4340 1.401 . S
C4339 H4360 0.930 . S
C4340 C4339 1.401 . S
C4340 C4341 1.376 . S
C4340 C4349 1.511 . S
C4341 C4340 1.376 . S
C4341 C4342 1.392 . S
C4341 H4362 0.931 . S
C4342 C4341 1.392 . S
C4342 C4343 1.361 . S
C4342 C4344 1.500 . S
C4343 C4338 1.390 . S
C4343 C4342 1.361 . S
C4343 H4361 0.931 . S
C4344 C4342 1.500 . S
C4344 C4345 1.371 . S
C4344 C4346 1.365 . S
C4345 C4344 1.371 . S
C4345 C4355 1.386 . S
C4345 H4363 0.931 . S
C4346 C4344 1.365 . S
C4346 C4347 1.409 . S
C4346 H4364 0.929 . S
C4347 C4346 1.409 . S
C4347 C4348 1.380 . S
C4347 H4365 0.930 . S
C4348 C4347 1.380 . S
C4348 C4355 1.357 . S
C4349 C4340 1.511 . S
C4349 C4350 1.341 . S
C4349 C4351 1.371 . S
C4350 C4349 1.341 . S
C4350 C4354 1.394 . S
C4350 H4366 0.930 . S
C4351 C4349 1.371 . S
C4351 C4352 1.392 . S
C4351 H4367 0.931 . S
C4352 C4351 1.392 . S
C4352 C4353 1.331 . S
C4352 H4370 0.932 . S
C4353 C4352 1.331 . S
C4353 C4354 1.336 . S
C4354 C4350 1.394 . S
C4354 C4353 1.336 . S
C4354 H4369 0.929 . S
C4355 C4345 1.386 . S
C4355 C4348 1.357 . S
C4355 H4368 0.928 . S
H4356 C4332 0.931 . S
H4357 C4334 0.930 . S
H4358 C4336 0.929 . S
H4359 C4337 0.931 . S
H4360 C4339 0.930 . S
H4361 C4343 0.931 . S
H4362 C4341 0.931 . S
H4363 C4345 0.931 . S
H4364 C4346 0.929 . S
H4365 C4347 0.930 . S
H4366 C4350 0.930 . S
H4367 C4351 0.931 . S
H4368 C4355 0.928 . S
H4369 C4354 0.929 . S
H4370 C4352 0.932 . S
C4371 C4372 1.386 . S
C4371 C4373 1.397 . S
C4371 H4395 0.931 . S
C4372 C4371 1.386 . S
C4372 C4376 1.397 . S
C4373 C4371 1.397 . S
C4373 C4374 1.384 . S
C4373 H4396 0.930 . S
C4374 C4373 1.384 . S
C4374 C4375 1.377 . S
C4374 C4377 1.481 . S
C4375 C4374 1.377 . S
C4375 C4376 1.389 . S
C4375 H4397 0.929 . S
C4376 C4372 1.397 . S
C4376 C4375 1.389 . S
C4376 H4398 0.931 . S
C4377 C4374 1.481 . S
C4377 C4378 1.387 . S
C4377 C4382 1.390 . S
C4378 C4377 1.387 . S
C4378 C4379 1.401 . S
C4378 H4399 0.930 . S
C4379 C4378 1.401 . S
C4379 C4380 1.376 . S
C4379 C4388 1.511 . S
C4380 C4379 1.376 . S
C4380 C4381 1.392 . S
C4380 H4401 0.931 . S
C4381 C4380 1.392 . S
C4381 C4382 1.361 . S
C4381 C4383 1.500 . S
C4382 C4377 1.390 . S
C4382 C4381 1.361 . S
C4382 H4400 0.931 . S
C4383 C4381 1.500 . S
C4383 C4384 1.371 . S
C4383 C4385 1.365 . S
C4384 C4383 1.371 . S
C4384 C4394 1.386 . S
C4384 H4402 0.931 . S
C4385 C4383 1.365 . S
C4385 C4386 1.409 . S
C4385 H4403 0.929 . S
C4386 C4385 1.409 . S
C4386 C4387 1.380 . S
C4386 H4404 0.930 . S
C4387 C4386 1.380 . S
C4387 C4394 1.357 . S
C4388 C4379 1.511 . S
C4388 C4389 1.341 . S
C4388 C4390 1.371 . S
C4389 C4388 1.341 . S
C4389 C4393 1.394 . S
C4389 H4405 0.930 . S
C4390 C4388 1.371 . S
C4390 C4391 1.392 . S
C4390 H4406 0.931 . S
C4391 C4390 1.392 . S
C4391 C4392 1.331 . S
C4391 H4409 0.932 . S
C4392 C4391 1.331 . S
C4392 C4393 1.336 . S
C4393 C4389 1.394 . S
C4393 C4392 1.336 . S
C4393 H4408 0.929 . S
C4394 C4384 1.386 . S
C4394 C4387 1.357 . S
C4394 H4407 0.928 . S
H4395 C4371 0.931 . S
H4396 C4373 0.930 . S
H4397 C4375 0.929 . S
H4398 C4376 0.931 . S
H4399 C4378 0.930 . S
H4400 C4382 0.931 . S
H4401 C4380 0.931 . S
H4402 C4384 0.931 . S
H4403 C4385 0.929 . S
H4404 C4386 0.930 . S
H4405 C4389 0.930 . S
H4406 C4390 0.931 . S
H4407 C4394 0.928 . S
H4408 C4393 0.929 . S
H4409 C4391 0.932 . S
C4410 C4411 1.386 . S
C4410 C4412 1.397 . S
C4410 H4434 0.931 . S
C4411 C4410 1.386 . S
C4411 C4415 1.397 . S
C4412 C4410 1.397 . S
C4412 C4413 1.384 . S
C4412 H4435 0.930 . S
C4413 C4412 1.384 . S
C4413 C4414 1.377 . S
C4413 C4416 1.481 . S
C4414 C4413 1.377 . S
C4414 C4415 1.389 . S
C4414 H4436 0.929 . S
C4415 C4411 1.397 . S
C4415 C4414 1.389 . S
C4415 H4437 0.931 . S
C4416 C4413 1.481 . S
C4416 C4417 1.387 . S
C4416 C4421 1.390 . S
C4417 C4416 1.387 . S
C4417 C4418 1.401 . S
C4417 H4438 0.930 . S
C4418 C4417 1.401 . S
C4418 C4419 1.376 . S
C4418 C4427 1.511 . S
C4419 C4418 1.376 . S
C4419 C4420 1.392 . S
C4419 H4440 0.931 . S
C4420 C4419 1.392 . S
C4420 C4421 1.361 . S
C4420 C4422 1.500 . S
C4421 C4416 1.390 . S
C4421 C4420 1.361 . S
C4421 H4439 0.931 . S
C4422 C4420 1.500 . S
C4422 C4423 1.371 . S
C4422 C4424 1.365 . S
C4423 C4422 1.371 . S
C4423 C4433 1.386 . S
C4423 H4441 0.931 . S
C4424 C4422 1.365 . S
C4424 C4425 1.409 . S
C4424 H4442 0.929 . S
C4425 C4424 1.409 . S
C4425 C4426 1.380 . S
C4425 H4443 0.930 . S
C4426 C4425 1.380 . S
C4426 C4433 1.357 . S
C4427 C4418 1.511 . S
C4427 C4428 1.341 . S
C4427 C4429 1.371 . S
C4428 C4427 1.341 . S
C4428 C4432 1.394 . S
C4428 H4444 0.930 . S
C4429 C4427 1.371 . S
C4429 C4430 1.392 . S
C4429 H4445 0.931 . S
C4430 C4429 1.392 . S
C4430 C4431 1.331 . S
C4430 H4448 0.932 . S
C4431 C4430 1.331 . S
C4431 C4432 1.336 . S
C4432 C4428 1.394 . S
C4432 C4431 1.336 . S
C4432 H4447 0.929 . S
C4433 C4423 1.386 . S
C4433 C4426 1.357 . S
C4433 H4446 0.928 . S
H4434 C4410 0.931 . S
H4435 C4412 0.930 . S
H4436 C4414 0.929 . S
H4437 C4415 0.931 . S
H4438 C4417 0.930 . S
H4439 C4421 0.931 . S
H4440 C4419 0.931 . S
H4441 C4423 0.931 . S
H4442 C4424 0.929 . S
H4443 C4425 0.930 . S
H4444 C4428 0.930 . S
H4445 C4429 0.931 . S
H4446 C4433 0.928 . S
H4447 C4432 0.929 . S
H4448 C4430 0.932 . S
C4449 C4450 1.386 . S
C4449 C4451 1.397 . S
C4449 H4473 0.931 . S
C4450 C4449 1.386 . S
C4450 C4454 1.397 . S
C4451 C4449 1.397 . S
C4451 C4452 1.384 . S
C4451 H4474 0.930 . S
C4452 C4451 1.384 . S
C4452 C4453 1.377 . S
C4452 C4455 1.481 . S
C4453 C4452 1.377 . S
C4453 C4454 1.389 . S
C4453 H4475 0.929 . S
C4454 C4450 1.397 . S
C4454 C4453 1.389 . S
C4454 H4476 0.931 . S
C4455 C4452 1.481 . S
C4455 C4456 1.387 . S
C4455 C4460 1.390 . S
C4456 C4455 1.387 . S
C4456 C4457 1.401 . S
C4456 H4477 0.930 . S
C4457 C4456 1.401 . S
C4457 C4458 1.376 . S
C4457 C4466 1.511 . S
C4458 C4457 1.376 . S
C4458 C4459 1.392 . S
C4458 H4479 0.931 . S
C4459 C4458 1.392 . S
C4459 C4460 1.361 . S
C4459 C4461 1.500 . S
C4460 C4455 1.390 . S
C4460 C4459 1.361 . S
C4460 H4478 0.931 . S
C4461 C4459 1.500 . S
C4461 C4462 1.371 . S
C4461 C4463 1.365 . S
C4462 C4461 1.371 . S
C4462 C4472 1.386 . S
C4462 H4480 0.931 . S
C4463 C4461 1.365 . S
C4463 C4464 1.409 . S
C4463 H4481 0.929 . S
C4464 C4463 1.409 . S
C4464 C4465 1.380 . S
C4464 H4482 0.930 . S
C4465 C4464 1.380 . S
C4465 C4472 1.357 . S
C4466 C4457 1.511 . S
C4466 C4467 1.341 . S
C4466 C4468 1.371 . S
C4467 C4466 1.341 . S
C4467 C4471 1.394 . S
C4467 H4483 0.930 . S
C4468 C4466 1.371 . S
C4468 C4469 1.392 . S
C4468 H4484 0.931 . S
C4469 C4468 1.392 . S
C4469 C4470 1.331 . S
C4469 H4487 0.932 . S
C4470 C4469 1.331 . S
C4470 C4471 1.336 . S
C4471 C4467 1.394 . S
C4471 C4470 1.336 . S
C4471 H4486 0.929 . S
C4472 C4462 1.386 . S
C4472 C4465 1.357 . S
C4472 H4485 0.928 . S
H4473 C4449 0.931 . S
H4474 C4451 0.930 . S
H4475 C4453 0.929 . S
H4476 C4454 0.931 . S
H4477 C4456 0.930 . S
H4478 C4460 0.931 . S
H4479 C4458 0.931 . S
H4480 C4462 0.931 . S
H4481 C4463 0.929 . S
H4482 C4464 0.930 . S
H4483 C4467 0.930 . S
H4484 C4468 0.931 . S
H4485 C4472 0.928 . S
H4486 C4471 0.929 . S
H4487 C4469 0.932 . S
C4488 C4489 1.386 . S
C4488 C4490 1.397 . S
C4488 H4512 0.931 . S
C4489 C4488 1.386 . S
C4489 C4493 1.397 . S
C4490 C4488 1.397 . S
C4490 C4491 1.384 . S
C4490 H4513 0.930 . S
C4491 C4490 1.384 . S
C4491 C4492 1.377 . S
C4491 C4494 1.481 . S
C4492 C4491 1.377 . S
C4492 C4493 1.389 . S
C4492 H4514 0.929 . S
C4493 C4489 1.397 . S
C4493 C4492 1.389 . S
C4493 H4515 0.931 . S
C4494 C4491 1.481 . S
C4494 C4495 1.387 . S
C4494 C4499 1.390 . S
C4495 C4494 1.387 . S
C4495 C4496 1.401 . S
C4495 H4516 0.930 . S
C4496 C4495 1.401 . S
C4496 C4497 1.376 . S
C4496 C4505 1.511 . S
C4497 C4496 1.376 . S
C4497 C4498 1.392 . S
C4497 H4518 0.931 . S
C4498 C4497 1.392 . S
C4498 C4499 1.361 . S
C4498 C4500 1.500 . S
C4499 C4494 1.390 . S
C4499 C4498 1.361 . S
C4499 H4517 0.931 . S
C4500 C4498 1.500 . S
C4500 C4501 1.371 . S
C4500 C4502 1.365 . S
C4501 C4500 1.371 . S
C4501 C4511 1.386 . S
C4501 H4519 0.931 . S
C4502 C4500 1.365 . S
C4502 C4503 1.409 . S
C4502 H4520 0.929 . S
C4503 C4502 1.409 . S
C4503 C4504 1.380 . S
C4503 H4521 0.930 . S
C4504 C4503 1.380 . S
C4504 C4511 1.357 . S
C4505 C4496 1.511 . S
C4505 C4506 1.341 . S
C4505 C4507 1.371 . S
C4506 C4505 1.341 . S
C4506 C4510 1.394 . S
C4506 H4522 0.930 . S
C4507 C4505 1.371 . S
C4507 C4508 1.392 . S
C4507 H4523 0.931 . S
C4508 C4507 1.392 . S
C4508 C4509 1.331 . S
C4508 H4526 0.932 . S
C4509 C4508 1.331 . S
C4509 C4510 1.336 . S
C4510 C4506 1.394 . S
C4510 C4509 1.336 . S
C4510 H4525 0.929 . S
C4511 C4501 1.386 . S
C4511 C4504 1.357 . S
C4511 H4524 0.928 . S
H4512 C4488 0.931 . S
H4513 C4490 0.930 . S
H4514 C4492 0.929 . S
H4515 C4493 0.931 . S
H4516 C4495 0.930 . S
H4517 C4499 0.931 . S
H4518 C4497 0.931 . S
H4519 C4501 0.931 . S
H4520 C4502 0.929 . S
H4521 C4503 0.930 . S
H4522 C4506 0.930 . S
H4523 C4507 0.931 . S
H4524 C4511 0.928 . S
H4525 C4510 0.929 . S
H4526 C4508 0.932 . S
C4527 C4528 1.386 . S
C4527 C4529 1.397 . S
C4527 H4551 0.931 . S
C4528 C4527 1.386 . S
C4528 C4532 1.397 . S
C4529 C4527 1.397 . S
C4529 C4530 1.384 . S
C4529 H4552 0.930 . S
C4530 C4529 1.384 . S
C4530 C4531 1.377 . S
C4530 C4533 1.481 . S
C4531 C4530 1.377 . S
C4531 C4532 1.389 . S
C4531 H4553 0.929 . S
C4532 C4528 1.397 . S
C4532 C4531 1.389 . S
C4532 H4554 0.931 . S
C4533 C4530 1.481 . S
C4533 C4534 1.387 . S
C4533 C4538 1.390 . S
C4534 C4533 1.387 . S
C4534 C4535 1.401 . S
C4534 H4555 0.930 . S
C4535 C4534 1.401 . S
C4535 C4536 1.376 . S
C4535 C4544 1.511 . S
C4536 C4535 1.376 . S
C4536 C4537 1.392 . S
C4536 H4557 0.931 . S
C4537 C4536 1.392 . S
C4537 C4538 1.361 . S
C4537 C4539 1.500 . S
C4538 C4533 1.390 . S
C4538 C4537 1.361 . S
C4538 H4556 0.931 . S
C4539 C4537 1.500 . S
C4539 C4540 1.371 . S
C4539 C4541 1.365 . S
C4540 C4539 1.371 . S
C4540 C4550 1.386 . S
C4540 H4558 0.931 . S
C4541 C4539 1.365 . S
C4541 C4542 1.409 . S
C4541 H4559 0.929 . S
C4542 C4541 1.409 . S
C4542 C4543 1.380 . S
C4542 H4560 0.930 . S
C4543 C4542 1.380 . S
C4543 C4550 1.357 . S
C4544 C4535 1.511 . S
C4544 C4545 1.341 . S
C4544 C4546 1.371 . S
C4545 C4544 1.341 . S
C4545 C4549 1.394 . S
C4545 H4561 0.930 . S
C4546 C4544 1.371 . S
C4546 C4547 1.392 . S
C4546 H4562 0.931 . S
C4547 C4546 1.392 . S
C4547 C4548 1.331 . S
C4547 H4565 0.932 . S
C4548 C4547 1.331 . S
C4548 C4549 1.336 . S
C4549 C4545 1.394 . S
C4549 C4548 1.336 . S
C4549 H4564 0.929 . S
C4550 C4540 1.386 . S
C4550 C4543 1.357 . S
C4550 H4563 0.928 . S
H4551 C4527 0.931 . S
H4552 C4529 0.930 . S
H4553 C4531 0.929 . S
H4554 C4532 0.931 . S
H4555 C4534 0.930 . S
H4556 C4538 0.931 . S
H4557 C4536 0.931 . S
H4558 C4540 0.931 . S
H4559 C4541 0.929 . S
H4560 C4542 0.930 . S
H4561 C4545 0.930 . S
H4562 C4546 0.931 . S
H4563 C4550 0.928 . S
H4564 C4549 0.929 . S
H4565 C4547 0.932 . S
C4566 C4567 1.386 . S
C4566 C4568 1.397 . S
C4566 H4590 0.931 . S
C4567 C4566 1.386 . S
C4567 C4571 1.397 . S
C4568 C4566 1.397 . S
C4568 C4569 1.384 . S
C4568 H4591 0.930 . S
C4569 C4568 1.384 . S
C4569 C4570 1.377 . S
C4569 C4572 1.481 . S
C4570 C4569 1.377 . S
C4570 C4571 1.389 . S
C4570 H4592 0.929 . S
C4571 C4567 1.397 . S
C4571 C4570 1.389 . S
C4571 H4593 0.931 . S
C4572 C4569 1.481 . S
C4572 C4573 1.387 . S
C4572 C4577 1.390 . S
C4573 C4572 1.387 . S
C4573 C4574 1.401 . S
C4573 H4594 0.930 . S
C4574 C4573 1.401 . S
C4574 C4575 1.376 . S
C4574 C4583 1.511 . S
C4575 C4574 1.376 . S
C4575 C4576 1.392 . S
C4575 H4596 0.931 . S
C4576 C4575 1.392 . S
C4576 C4577 1.361 . S
C4576 C4578 1.500 . S
C4577 C4572 1.390 . S
C4577 C4576 1.361 . S
C4577 H4595 0.931 . S
C4578 C4576 1.500 . S
C4578 C4579 1.371 . S
C4578 C4580 1.365 . S
C4579 C4578 1.371 . S
C4579 C4589 1.386 . S
C4579 H4597 0.931 . S
C4580 C4578 1.365 . S
C4580 C4581 1.409 . S
C4580 H4598 0.929 . S
C4581 C4580 1.409 . S
C4581 C4582 1.380 . S
C4581 H4599 0.930 . S
C4582 C4581 1.380 . S
C4582 C4589 1.357 . S
C4583 C4574 1.511 . S
C4583 C4584 1.341 . S
C4583 C4585 1.371 . S
C4584 C4583 1.341 . S
C4584 C4588 1.394 . S
C4584 H4600 0.930 . S
C4585 C4583 1.371 . S
C4585 C4586 1.392 . S
C4585 H4601 0.931 . S
C4586 C4585 1.392 . S
C4586 C4587 1.331 . S
C4586 H4604 0.932 . S
C4587 C4586 1.331 . S
C4587 C4588 1.336 . S
C4588 C4584 1.394 . S
C4588 C4587 1.336 . S
C4588 H4603 0.929 . S
C4589 C4579 1.386 . S
C4589 C4582 1.357 . S
C4589 H4602 0.928 . S
H4590 C4566 0.931 . S
H4591 C4568 0.930 . S
H4592 C4570 0.929 . S
H4593 C4571 0.931 . S
H4594 C4573 0.930 . S
H4595 C4577 0.931 . S
H4596 C4575 0.931 . S
H4597 C4579 0.931 . S
H4598 C4580 0.929 . S
H4599 C4581 0.930 . S
H4600 C4584 0.930 . S
H4601 C4585 0.931 . S
H4602 C4589 0.928 . S
H4603 C4588 0.929 . S
H4604 C4586 0.932 . S
C4605 C4606 1.386 . S
C4605 C4607 1.397 . S
C4605 H4629 0.931 . S
C4606 C4605 1.386 . S
C4606 C4610 1.397 . S
C4607 C4605 1.397 . S
C4607 C4608 1.384 . S
C4607 H4630 0.930 . S
C4608 C4607 1.384 . S
C4608 C4609 1.377 . S
C4608 C4611 1.481 . S
C4609 C4608 1.377 . S
C4609 C4610 1.389 . S
C4609 H4631 0.929 . S
C4610 C4606 1.397 . S
C4610 C4609 1.389 . S
C4610 H4632 0.931 . S
C4611 C4608 1.481 . S
C4611 C4612 1.387 . S
C4611 C4616 1.390 . S
C4612 C4611 1.387 . S
C4612 C4613 1.401 . S
C4612 H4633 0.930 . S
C4613 C4612 1.401 . S
C4613 C4614 1.376 . S
C4613 C4622 1.511 . S
C4614 C4613 1.376 . S
C4614 C4615 1.392 . S
C4614 H4635 0.931 . S
C4615 C4614 1.392 . S
C4615 C4616 1.361 . S
C4615 C4617 1.500 . S
C4616 C4611 1.390 . S
C4616 C4615 1.361 . S
C4616 H4634 0.931 . S
C4617 C4615 1.500 . S
C4617 C4618 1.371 . S
C4617 C4619 1.365 . S
C4618 C4617 1.371 . S
C4618 C4628 1.386 . S
C4618 H4636 0.931 . S
C4619 C4617 1.365 . S
C4619 C4620 1.409 . S
C4619 H4637 0.929 . S
C4620 C4619 1.409 . S
C4620 C4621 1.380 . S
C4620 H4638 0.930 . S
C4621 C4620 1.380 . S
C4621 C4628 1.357 . S
C4622 C4613 1.511 . S
C4622 C4623 1.341 . S
C4622 C4624 1.371 . S
C4623 C4622 1.341 . S
C4623 C4627 1.394 . S
C4623 H4639 0.930 . S
C4624 C4622 1.371 . S
C4624 C4625 1.392 . S
C4624 H4640 0.931 . S
C4625 C4624 1.392 . S
C4625 C4626 1.331 . S
C4625 H4643 0.932 . S
C4626 C4625 1.331 . S
C4626 C4627 1.336 . S
C4627 C4623 1.394 . S
C4627 C4626 1.336 . S
C4627 H4642 0.929 . S
C4628 C4618 1.386 . S
C4628 C4621 1.357 . S
C4628 H4641 0.928 . S
H4629 C4605 0.931 . S
H4630 C4607 0.930 . S
H4631 C4609 0.929 . S
H4632 C4610 0.931 . S
H4633 C4612 0.930 . S
H4634 C4616 0.931 . S
H4635 C4614 0.931 . S
H4636 C4618 0.931 . S
H4637 C4619 0.929 . S
H4638 C4620 0.930 . S
H4639 C4623 0.930 . S
H4640 C4624 0.931 . S
H4641 C4628 0.928 . S
H4642 C4627 0.929 . S
H4643 C4625 0.932 . S
C4644 C4645 1.386 . S
C4644 C4646 1.397 . S
C4644 H4668 0.931 . S
C4645 C4644 1.386 . S
C4645 C4649 1.397 . S
C4646 C4644 1.397 . S
C4646 C4647 1.384 . S
C4646 H4669 0.930 . S
C4647 C4646 1.384 . S
C4647 C4648 1.377 . S
C4647 C4650 1.481 . S
C4648 C4647 1.377 . S
C4648 C4649 1.389 . S
C4648 H4670 0.929 . S
C4649 C4645 1.397 . S
C4649 C4648 1.389 . S
C4649 H4671 0.931 . S
C4650 C4647 1.481 . S
C4650 C4651 1.387 . S
C4650 C4655 1.390 . S
C4651 C4650 1.387 . S
C4651 C4652 1.401 . S
C4651 H4672 0.930 . S
C4652 C4651 1.401 . S
C4652 C4653 1.376 . S
C4652 C4661 1.511 . S
C4653 C4652 1.376 . S
C4653 C4654 1.392 . S
C4653 H4674 0.931 . S
C4654 C4653 1.392 . S
C4654 C4655 1.361 . S
C4654 C4656 1.500 . S
C4655 C4650 1.390 . S
C4655 C4654 1.361 . S
C4655 H4673 0.931 . S
C4656 C4654 1.500 . S
C4656 C4657 1.371 . S
C4656 C4658 1.365 . S
C4657 C4656 1.371 . S
C4657 C4667 1.386 . S
C4657 H4675 0.931 . S
C4658 C4656 1.365 . S
C4658 C4659 1.409 . S
C4658 H4676 0.929 . S
C4659 C4658 1.409 . S
C4659 C4660 1.380 . S
C4659 H4677 0.930 . S
C4660 C4659 1.380 . S
C4660 C4667 1.357 . S
C4661 C4652 1.511 . S
C4661 C4662 1.341 . S
C4661 C4663 1.371 . S
C4662 C4661 1.341 . S
C4662 C4666 1.394 . S
C4662 H4678 0.930 . S
C4663 C4661 1.371 . S
C4663 C4664 1.392 . S
C4663 H4679 0.931 . S
C4664 C4663 1.392 . S
C4664 C4665 1.331 . S
C4664 H4682 0.932 . S
C4665 C4664 1.331 . S
C4665 C4666 1.336 . S
C4666 C4662 1.394 . S
C4666 C4665 1.336 . S
C4666 H4681 0.929 . S
C4667 C4657 1.386 . S
C4667 C4660 1.357 . S
C4667 H4680 0.928 . S
H4668 C4644 0.931 . S
H4669 C4646 0.930 . S
H4670 C4648 0.929 . S
H4671 C4649 0.931 . S
H4672 C4651 0.930 . S
H4673 C4655 0.931 . S
H4674 C4653 0.931 . S
H4675 C4657 0.931 . S
H4676 C4658 0.929 . S
H4677 C4659 0.930 . S
H4678 C4662 0.930 . S
H4679 C4663 0.931 . S
H4680 C4667 0.928 . S
H4681 C4666 0.929 . S
H4682 C4664 0.932 . S
C4683 C4684 1.386 . S
C4683 C4685 1.397 . S
C4683 H4707 0.931 . S
C4684 C4683 1.386 . S
C4684 C4688 1.397 . S
C4685 C4683 1.397 . S
C4685 C4686 1.384 . S
C4685 H4708 0.930 . S
C4686 C4685 1.384 . S
C4686 C4687 1.377 . S
C4686 C4689 1.481 . S
C4687 C4686 1.377 . S
C4687 C4688 1.389 . S
C4687 H4709 0.929 . S
C4688 C4684 1.397 . S
C4688 C4687 1.389 . S
C4688 H4710 0.931 . S
C4689 C4686 1.481 . S
C4689 C4690 1.387 . S
C4689 C4694 1.390 . S
C4690 C4689 1.387 . S
C4690 C4691 1.401 . S
C4690 H4711 0.930 . S
C4691 C4690 1.401 . S
C4691 C4692 1.376 . S
C4691 C4700 1.511 . S
C4692 C4691 1.376 . S
C4692 C4693 1.392 . S
C4692 H4713 0.931 . S
C4693 C4692 1.392 . S
C4693 C4694 1.361 . S
C4693 C4695 1.500 . S
C4694 C4689 1.390 . S
C4694 C4693 1.361 . S
C4694 H4712 0.931 . S
C4695 C4693 1.500 . S
C4695 C4696 1.371 . S
C4695 C4697 1.365 . S
C4696 C4695 1.371 . S
C4696 C4706 1.386 . S
C4696 H4714 0.931 . S
C4697 C4695 1.365 . S
C4697 C4698 1.409 . S
C4697 H4715 0.929 . S
C4698 C4697 1.409 . S
C4698 C4699 1.380 . S
C4698 H4716 0.930 . S
C4699 C4698 1.380 . S
C4699 C4706 1.357 . S
C4700 C4691 1.511 . S
C4700 C4701 1.341 . S
C4700 C4702 1.371 . S
C4701 C4700 1.341 . S
C4701 C4705 1.394 . S
C4701 H4717 0.930 . S
C4702 C4700 1.371 . S
C4702 C4703 1.392 . S
C4702 H4718 0.931 . S
C4703 C4702 1.392 . S
C4703 C4704 1.331 . S
C4703 H4721 0.932 . S
C4704 C4703 1.331 . S
C4704 C4705 1.336 . S
C4705 C4701 1.394 . S
C4705 C4704 1.336 . S
C4705 H4720 0.929 . S
C4706 C4696 1.386 . S
C4706 C4699 1.357 . S
C4706 H4719 0.928 . S
H4707 C4683 0.931 . S
H4708 C4685 0.930 . S
H4709 C4687 0.929 . S
H4710 C4688 0.931 . S
H4711 C4690 0.930 . S
H4712 C4694 0.931 . S
H4713 C4692 0.931 . S
H4714 C4696 0.931 . S
H4715 C4697 0.929 . S
H4716 C4698 0.930 . S
H4717 C4701 0.930 . S
H4718 C4702 0.931 . S
H4719 C4706 0.928 . S
H4720 C4705 0.929 . S
H4721 C4703 0.932 . S
C4722 C4723 1.386 . S
C4722 C4724 1.397 . S
C4722 H4746 0.931 . S
C4723 C4722 1.386 . S
C4723 C4727 1.397 . S
C4724 C4722 1.397 . S
C4724 C4725 1.384 . S
C4724 H4747 0.930 . S
C4725 C4724 1.384 . S
C4725 C4726 1.377 . S
C4725 C4728 1.481 . S
C4726 C4725 1.377 . S
C4726 C4727 1.389 . S
C4726 H4748 0.929 . S
C4727 C4723 1.397 . S
C4727 C4726 1.389 . S
C4727 H4749 0.931 . S
C4728 C4725 1.481 . S
C4728 C4729 1.387 . S
C4728 C4733 1.390 . S
C4729 C4728 1.387 . S
C4729 C4730 1.401 . S
C4729 H4750 0.930 . S
C4730 C4729 1.401 . S
C4730 C4731 1.376 . S
C4730 C4739 1.511 . S
C4731 C4730 1.376 . S
C4731 C4732 1.392 . S
C4731 H4752 0.931 . S
C4732 C4731 1.392 . S
C4732 C4733 1.361 . S
C4732 C4734 1.500 . S
C4733 C4728 1.390 . S
C4733 C4732 1.361 . S
C4733 H4751 0.931 . S
C4734 C4732 1.500 . S
C4734 C4735 1.371 . S
C4734 C4736 1.365 . S
C4735 C4734 1.371 . S
C4735 C4745 1.386 . S
C4735 H4753 0.931 . S
C4736 C4734 1.365 . S
C4736 C4737 1.409 . S
C4736 H4754 0.929 . S
C4737 C4736 1.409 . S
C4737 C4738 1.380 . S
C4737 H4755 0.930 . S
C4738 C4737 1.380 . S
C4738 C4745 1.357 . S
C4739 C4730 1.511 . S
C4739 C4740 1.341 . S
C4739 C4741 1.371 . S
C4740 C4739 1.341 . S
C4740 C4744 1.394 . S
C4740 H4756 0.930 . S
C4741 C4739 1.371 . S
C4741 C4742 1.392 . S
C4741 H4757 0.931 . S
C4742 C4741 1.392 . S
C4742 C4743 1.331 . S
C4742 H4760 0.932 . S
C4743 C4742 1.331 . S
C4743 C4744 1.336 . S
C4744 C4740 1.394 . S
C4744 C4743 1.336 . S
C4744 H4759 0.929 . S
C4745 C4735 1.386 . S
C4745 C4738 1.357 . S
C4745 H4758 0.928 . S
H4746 C4722 0.931 . S
H4747 C4724 0.930 . S
H4748 C4726 0.929 . S
H4749 C4727 0.931 . S
H4750 C4729 0.930 . S
H4751 C4733 0.931 . S
H4752 C4731 0.931 . S
H4753 C4735 0.931 . S
H4754 C4736 0.929 . S
H4755 C4737 0.930 . S
H4756 C4740 0.930 . S
H4757 C4741 0.931 . S
H4758 C4745 0.928 . S
H4759 C4744 0.929 . S
H4760 C4742 0.932 . S
C4761 C4762 1.386 . S
C4761 C4763 1.397 . S
C4761 H4785 0.931 . S
C4762 C4761 1.386 . S
C4762 C4766 1.397 . S
C4763 C4761 1.397 . S
C4763 C4764 1.384 . S
C4763 H4786 0.930 . S
C4764 C4763 1.384 . S
C4764 C4765 1.377 . S
C4764 C4767 1.481 . S
C4765 C4764 1.377 . S
C4765 C4766 1.389 . S
C4765 H4787 0.929 . S
C4766 C4762 1.397 . S
C4766 C4765 1.389 . S
C4766 H4788 0.931 . S
C4767 C4764 1.481 . S
C4767 C4768 1.387 . S
C4767 C4772 1.390 . S
C4768 C4767 1.387 . S
C4768 C4769 1.401 . S
C4768 H4789 0.930 . S
C4769 C4768 1.401 . S
C4769 C4770 1.376 . S
C4769 C4778 1.511 . S
C4770 C4769 1.376 . S
C4770 C4771 1.392 . S
C4770 H4791 0.931 . S
C4771 C4770 1.392 . S
C4771 C4772 1.361 . S
C4771 C4773 1.500 . S
C4772 C4767 1.390 . S
C4772 C4771 1.361 . S
C4772 H4790 0.931 . S
C4773 C4771 1.500 . S
C4773 C4774 1.371 . S
C4773 C4775 1.365 . S
C4774 C4773 1.371 . S
C4774 C4784 1.386 . S
C4774 H4792 0.931 . S
C4775 C4773 1.365 . S
C4775 C4776 1.409 . S
C4775 H4793 0.929 . S
C4776 C4775 1.409 . S
C4776 C4777 1.380 . S
C4776 H4794 0.930 . S
C4777 C4776 1.380 . S
C4777 C4784 1.357 . S
C4778 C4769 1.511 . S
C4778 C4779 1.341 . S
C4778 C4780 1.371 . S
C4779 C4778 1.341 . S
C4779 C4783 1.394 . S
C4779 H4795 0.930 . S
C4780 C4778 1.371 . S
C4780 C4781 1.392 . S
C4780 H4796 0.931 . S
C4781 C4780 1.392 . S
C4781 C4782 1.331 . S
C4781 H4799 0.932 . S
C4782 C4781 1.331 . S
C4782 C4783 1.336 . S
C4783 C4779 1.394 . S
C4783 C4782 1.336 . S
C4783 H4798 0.929 . S
C4784 C4774 1.386 . S
C4784 C4777 1.357 . S
C4784 H4797 0.928 . S
H4785 C4761 0.931 . S
H4786 C4763 0.930 . S
H4787 C4765 0.929 . S
H4788 C4766 0.931 . S
H4789 C4768 0.930 . S
H4790 C4772 0.931 . S
H4791 C4770 0.931 . S
H4792 C4774 0.931 . S
H4793 C4775 0.929 . S
H4794 C4776 0.930 . S
H4795 C4779 0.930 . S
H4796 C4780 0.931 . S
H4797 C4784 0.928 . S
H4798 C4783 0.929 . S
H4799 C4781 0.932 . S
C2052 C8 1.787 1_655 S
C3963 C19 1.756 . S
C2130 C30 1.755 . S
C3885 C41 1.750 . S
C2286 C52 1.787 1_655 S
C63 C4041 1.750 . S
C2208 C74 1.755 . S
C4119 C85 1.756 . S
C4743 C96 1.751 1_565 S
C107 C4509 1.758 . S
C4782 C118 1.786 1_545 S
C129 C4704 1.754 . S
C4587 C140 1.751 1_545 S
C2754 C151 1.754 . S
C2793 C162 1.786 1_565 S
C173 C2676 1.758 . S
C184 C4392 1.754 1_554 S
C2442 C195 1.754 1_554 S
C4197 C206 1.755 . S
C2364 C217 1.788 . S
C228 C2403 1.752 . S
C4470 C239 1.788 . S
C4353 C250 1.755 . S
C261 C4431 1.752 . S
C272 C1116 1.775 1_655 S
C283 C3027 1.767 . S
C1194 C294 1.766 . S
C305 C2949 1.726 . S
C1350 C316 1.775 1_455 S
C327 C3105 1.726 . S
C1272 C338 1.766 . S
C3183 C349 1.767 . S
C360 C3807 1.771 1_565 S
C3573 C371 1.765 . S
C382 C3846 1.727 1_545 S
C3768 C393 1.771 . S
C3651 C404 1.771 1_565 S
C415 C1818 1.771 . S
C426 C1857 1.727 1_565 S
C1740 C437 1.765 . S
C448 C3456 1.770 1_556 S
C1506 C459 1.770 1_556 S
C470 C3261 1.769 . S
C1428 C481 1.775 . S
C492 C1467 1.719 . S
C3534 C503 1.775 . S
C3417 C514 1.769 . S
C3495 C525 1.719 . S
C536 C3924 1.787 . S
C2091 C547 1.756 . S
C4002 C558 1.755 1_455 S
C2013 C569 1.750 . S
C580 C4158 1.787 . S
C2169 C591 1.750 . S
C4080 C602 1.755 1_455 S
C2247 C613 1.756 . S
C624 C2871 1.751 . S
C2637 C635 1.758 . S
C2910 C646 1.786 . S
C657 C2832 1.754 . S
C668 C2715 1.751 . S
C679 C4626 1.754 . S
C690 C4665 1.786 . S
C4548 C701 1.758 . S
C712 C2520 1.754 . S
C4314 C723 1.754 . S
C2325 C734 1.755 . S
C4236 C745 1.788 1_554 S
C756 C4275 1.752 . S
C767 C2598 1.788 1_554 S
C2481 C778 1.755 . S
C789 C2559 1.752 . S
C800 C2988 1.775 . S
C1155 C811 1.767 . S
C3066 C822 1.766 1_655 S
C833 C1077 1.726 . S
C3222 C844 1.775 . S
C1233 C855 1.726 . S
C866 C3144 1.766 1_455 S
C877 C1311 1.767 . S
C1935 C888 1.771 . S
C899 C1701 1.765 . S
C1974 C910 1.727 . S
C1896 C921 1.771 . S
C932 C1779 1.771 . S
C943 C3690 1.771 . S
C3729 C954 1.727 . S
C965 C3612 1.765 . S
C1584 C976 1.770 . S
C3378 C987 1.770 . S
C998 C1389 1.769 . S
C1009 C3300 1.775 1_554 S
C1020 C3339 1.719 . S
C1031 C1662 1.775 1_556 S
C1042 C1545 1.769 . S
C1623 C1053 1.719 . S
C1423 C5 1.645 . S
C1447 C16 1.658 . S
C27 C1501 1.662 . S
C38 C1384 1.663 . S
C49 C1657 1.645 . S
C1540 C60 1.663 . S
C1579 C71 1.662 . S
C82 C1603 1.658 . S
C93 C1189 1.658 . S
C104 C1057 1.659 . S
C115 C1111 1.656 . S
C1150 C126 1.656 . S
C137 C1267 1.658 . S
C148 C1306 1.656 . S
C159 C1345 1.656 . S
C170 C1213 1.659 . S
C1774 C181 1.660 . S
C192 C3802 1.660 . S
C1696 C203 1.657 . S
C3826 C214 1.657 . S
C225 C3763 1.655 . S
C236 C3709 1.657 . S
C3607 C247 1.657 . S
C3685 C258 1.655 . S
C2344 C269 2.643 . S
C2398 C280 2.621 . S
C2437 C291 2.620 . S
C302 C2320 2.616 . S
C313 C2578 2.643 . S
C2476 C324 2.616 . S
C335 C2515 2.620 . S
C2554 C346 2.621 . S
C357 C2125 2.628 . S
C2008 C368 2.612 . S
C379 C2032 2.625 . S
C2086 C390 2.632 . S
C2203 C401 2.628 . S
C412 C2242 2.632 . S
C2266 C423 2.625 . S
C2164 C434 2.612 . S
C2710 C445 2.622 . S
C4738 C456 2.622 . S
C2632 C467 2.632 . S
C478 C4762 2.645 . S
C489 C4699 2.600 . S
C4645 C500 2.645 . S
C4543 C511 2.632 . S
C4621 C522 2.600 . S
C533 C3295 1.645 . S
C3319 C544 1.658 . S
C555 C3373 1.662 . S
C3256 C566 1.663 . S
C577 C3529 1.645 . S
C588 C3412 1.663 . S
C599 C3451 1.662 . S
C610 C3475 1.658 . S
C621 C3061 1.658 . S
C2929 C632 1.659 . S
C2983 C643 1.656 . S
C654 C3022 1.656 . S
C665 C3139 1.658 . S
C676 C3178 1.656 . S
C687 C3217 1.656 . S
C698 C3085 1.659 . S
C3646 C709 1.660 . S
C1930 C720 1.660 . S
C3568 C731 1.657 . S
C1954 C742 1.657 . S
C1891 C753 1.655 . S
C1837 C764 1.657 . S
C775 C1735 1.657 . S
C1813 C786 1.655 . S
C797 C4216 2.643 . S
C808 C4270 2.621 . S
C4309 C819 2.620 . S
C830 C4192 2.616 . S
C4450 C841 2.643 . S
C852 C4348 2.616 . S
C863 C4387 2.620 . S
C4426 C874 2.621 . S
C3997 C885 2.628 . S
C3880 C896 2.612 . S
C3904 C907 2.625 . S
C3958 C918 2.632 . S
C929 C4075 2.628 . S
C4114 C940 2.632 . S
C951 C4138 2.625 . S
C962 C4036 2.612 . S
C973 C4582 2.622 . S
C984 C2866 2.622 . S
C995 C4504 2.632 . S
C2890 C1006 2.645 . S
C1017 C2827 2.600 . S
C1028 C2773 2.645 . S
C1039 C2671 2.632 . S
C2749 C1050 2.600 . S
C7 C1072 2.149 . S
C18 C1096 2.176 . S
C29 C1135 2.171 . S
C1174 C40 2.166 . S
C1228 C51 2.149 . S
C62 C1252 2.166 . S
C73 C1291 2.171 . S
C84 C1330 2.176 . S
C1369 C95 2.168 . S
C1408 C106 2.178 . S
C117 C1462 2.155 . S
C1486 C128 2.162 . S
C139 C1525 2.168 . S
C150 C1564 2.162 . S
C161 C1618 2.155 . S
C172 C1642 2.178 . S
C183 C1681 2.166 . S
C194 C1720 2.166 . S
C1759 C205 2.166 . S
C1798 C216 2.164 . S
C1852 C227 2.166 . S
C1876 C238 2.164 . S
C249 C1915 2.166 . S
C1969 C260 2.166 . S
C271 C1993 2.510 . S
C282 C2047 2.513 . S
C293 C2071 2.501 . S
C2110 C304 2.500 . S
C315 C2149 2.510 . S
C2188 C326 2.500 . S
C337 C2227 2.501 . S
C348 C2281 2.513 . S
C2305 C359 2.507 . S
C370 C2359 2.506 . S
C2383 C381 2.502 . S
C392 C2422 2.509 . S
C2461 C403 2.507 . S
C2500 C414 2.509 . S
C2539 C425 2.502 . S
C436 C2593 2.506 . S
C447 C2617 2.509 . S
C458 C2656 2.509 . S
C469 C2695 2.503 . S
C480 C2734 2.513 . S
C491 C2788 2.499 . S
C2812 C502 2.513 . S
C513 C2851 2.503 . S
C2905 C524 2.499 . S
C535 C2944 2.149 . S
C2968 C546 2.176 . S
C3007 C557 2.171 . S
C3046 C568 2.166 . S
C579 C3100 2.149 . S
C590 C3124 2.166 . S
C3163 C601 2.171 . S
C3202 C612 2.176 . S
C623 C3241 2.168 . S
C634 C3280 2.178 . S
C645 C3334 2.155 . S
C656 C3358 2.162 . S
C667 C3397 2.168 . S
C3436 C678 2.162 . S
C3490 C689 2.155 . S
C3514 C700 2.178 . S
C3553 C711 2.166 . S
C722 C3592 2.166 . S
C733 C3631 2.166 . S
C3670 C744 2.164 . S
C755 C3724 2.166 . S
C3748 C766 2.164 . S
C3787 C777 2.166 . S
C3841 C788 2.166 . S
C799 C3865 2.510 . S
C810 C3919 2.513 . S
C821 C3943 2.501 . S
C832 C3982 2.500 . S
C4021 C843 2.510 . S
C4060 C854 2.500 . S
C4099 C865 2.501 . S
C876 C4153 2.513 . S
C887 C4177 2.507 . S
C4231 C898 2.506 . S
C4255 C909 2.502 . S
C4294 C920 2.509 . S
C4333 C931 2.507 . S
C4372 C942 2.509 . S
C4411 C953 2.502 . S
C4465 C964 2.506 . S
C4489 C975 2.509 . S
C4528 C986 2.509 . S
C4567 C997 2.503 . S
C1008 C4606 2.513 . S
C4660 C1019 2.499 . S
C1030 C4684 2.513 . S
C4723 C1041 2.503 . S
C4777 C1052 2.499 . S
