# Generated by pormake.
# Topology pyr, (3,6)-cn, num edge types: 1
# Building blocks:
#     Node 0, Type 0, BuildingBlock: VETTIZ_charged_linker_0, # of connection points: 3
#     Node 1, Type 0, BuildingBlock: VETTIZ_charged_linker_0, # of connection points: 3
#     Node 2, Type 0, BuildingBlock: VETTIZ_charged_linker_0, # of connection points: 3
#     Node 3, Type 0, BuildingBlock: VETTIZ_charged_linker_0, # of connection points: 3
#     Node 4, Type 0, BuildingBlock: VETTIZ_charged_linker_0, # of connection points: 3
#     Node 5, Type 0, BuildingBlock: VETTIZ_charged_linker_0, # of connection points: 3
#     Node 6, Type 0, BuildingBlock: VETTIZ_charged_linker_0, # of connection points: 3
#     Node 7, Type 0, BuildingBlock: VETTIZ_charged_linker_0, # of connection points: 3
#     Node 8, Type 1, BuildingBlock: BETFAJ_clean_sbu_0, # of connection points: 6
#     Node 9, Type 1, BuildingBlock: BETFAJ_clean_sbu_0, # of connection points: 6
#     Node 10, Type 1, BuildingBlock: BETFAJ_clean_sbu_0, # of connection points: 6
#     Node 11, Type 1, BuildingBlock: BETFAJ_clean_sbu_0, # of connection points: 6
#     Edge 12, Type (0, 1), BuildingBlock: OJICUG_clean_linker_0, # of connection points: 2
#     Edge 13, Type (0, 1), BuildingBlock: OJICUG_clean_linker_0, # of connection points: 2
#     Edge 14, Type (0, 1), BuildingBlock: OJICUG_clean_linker_0, # of connection points: 2
#     Edge 15, Type (0, 1), BuildingBlock: OJICUG_clean_linker_0, # of connection points: 2
#     Edge 16, Type (0, 1), BuildingBlock: OJICUG_clean_linker_0, # of connection points: 2
#     Edge 17, Type (0, 1), BuildingBlock: OJICUG_clean_linker_0, # of connection points: 2
#     Edge 18, Type (0, 1), BuildingBlock: OJICUG_clean_linker_0, # of connection points: 2
#     Edge 19, Type (0, 1), BuildingBlock: OJICUG_clean_linker_0, # of connection points: 2
#     Edge 20, Type (0, 1), BuildingBlock: OJICUG_clean_linker_0, # of connection points: 2
#     Edge 21, Type (0, 1), BuildingBlock: OJICUG_clean_linker_0, # of connection points: 2
#     Edge 22, Type (0, 1), BuildingBlock: OJICUG_clean_linker_0, # of connection points: 2
#     Edge 23, Type (0, 1), BuildingBlock: OJICUG_clean_linker_0, # of connection points: 2
#     Edge 24, Type (0, 1), BuildingBlock: OJICUG_clean_linker_0, # of connection points: 2
#     Edge 25, Type (0, 1), BuildingBlock: OJICUG_clean_linker_0, # of connection points: 2
#     Edge 26, Type (0, 1), BuildingBlock: OJICUG_clean_linker_0, # of connection points: 2
#     Edge 27, Type (0, 1), BuildingBlock: OJICUG_clean_linker_0, # of connection points: 2
#     Edge 28, Type (0, 1), BuildingBlock: OJICUG_clean_linker_0, # of connection points: 2
#     Edge 29, Type (0, 1), BuildingBlock: OJICUG_clean_linker_0, # of connection points: 2
#     Edge 30, Type (0, 1), BuildingBlock: OJICUG_clean_linker_0, # of connection points: 2
#     Edge 31, Type (0, 1), BuildingBlock: OJICUG_clean_linker_0, # of connection points: 2
#     Edge 32, Type (0, 1), BuildingBlock: OJICUG_clean_linker_0, # of connection points: 2
#     Edge 33, Type (0, 1), BuildingBlock: OJICUG_clean_linker_0, # of connection points: 2
#     Edge 34, Type (0, 1), BuildingBlock: OJICUG_clean_linker_0, # of connection points: 2
#     Edge 35, Type (0, 1), BuildingBlock: OJICUG_clean_linker_0, # of connection points: 2
# Relax obj value: 0.137
# Max RMSD: 0.130
# Mean RMSD: 0.065
data_MOF--net-pyr--node1-BETFAJ_clean_sbu_0--node2-VETTIZ_charged_linker_0--edge1-OJICUG_clean_linker_0
_symmetry_space_group_name_H-M    P1
_symmetry_Int_Tables_number       1
_symmetry_cell_setting            triclinic
loop_
_symmetry_equiv_pos_as_xyz
'x, y, z'
_cell_length_a     37.168136
_cell_length_b     37.328089
_cell_length_c     32.767353
_cell_angle_alpha  90.064773
_cell_angle_beta   87.78929
_cell_angle_gamma 101.5858
loop_
_atom_site_label
_atom_site_type_symbol
_atom_site_fract_x
_atom_site_fract_y
_atom_site_fract_z
_atom_type_partial_charge
C0 C 0.33219 0.26612 0.42888 0.0
C1 C 0.2986 0.27087 0.44708 0.0
C2 C 0.28342 0.30042 0.434 0.0
C3 C 0.32741 0.31063 0.37672 0.0
C4 C 0.34529 0.28508 0.39272 0.0
C5 C 0.37364 0.27524 0.36304 0.0
H6 H 0.41291 0.24239 0.17 0.0
C7 C 0.34044 0.31754 0.33375 0.0
C8 C 0.36774 0.29715 0.32554 0.0
H9 H 0.4666 0.21567 0.27736 0.0
H10 H 0.43829 0.25795 0.31722 0.0
H11 H 0.42918 0.33147 0.19337 0.0
H12 H 0.33315 0.24511 0.20865 0.0
H13 H 0.32137 0.28397 0.18608 0.0
H14 H 0.35346 0.2613 0.15971 0.0
H15 H 0.39993 0.31659 0.15176 0.0
H16 H 0.39039 0.3509 0.18729 0.0
C17 C 0.41229 0.28851 0.3803 0.0
C18 C 0.36367 0.23334 0.35577 0.0
C19 C 0.26697 0.38254 0.24205 0.0
C20 C 0.26542 0.38593 0.19951 0.0
C21 C 0.29041 0.37132 0.17418 0.0
C22 C 0.31609 0.35317 0.19112 0.0
C23 C 0.31637 0.34904 0.23379 0.0
C24 C 0.29229 0.36402 0.2584 0.0
C25 C 0.29465 0.35535 0.30281 0.0
C26 C 0.32553 0.33419 0.30118 0.0
C27 C 0.33786 0.3301 0.26066 0.0
C28 C 0.30579 0.39173 0.3261 0.0
C29 C 0.25713 0.33149 0.31783 0.0
C30 C 0.41839 0.24564 0.20216 0.0
C31 C 0.44078 0.22471 0.22105 0.0
C32 C 0.44893 0.23095 0.26237 0.0
C33 C 0.43223 0.25503 0.28555 0.0
C34 C 0.40656 0.27225 0.26743 0.0
C35 C 0.40206 0.26979 0.22589 0.0
C36 C 0.37705 0.29413 0.21173 0.0
C37 C 0.36498 0.30882 0.25231 0.0
C38 C 0.38134 0.29447 0.28481 0.0
C39 C 0.40004 0.32482 0.18435 0.0
C40 C 0.3445 0.2701 0.19019 0.0
H41 H 0.28446 0.34173 0.38947 0.0
H42 H 0.34526 0.24463 0.43952 0.0
H43 H 0.33421 0.22486 0.34843 0.0
H44 H 0.3795 0.22386 0.33046 0.0
H45 H 0.36845 0.21791 0.38332 0.0
H46 H 0.41191 0.30813 0.40583 0.0
H47 H 0.4235 0.2653 0.39219 0.0
H48 H 0.43207 0.30354 0.35696 0.0
H49 H 0.24756 0.3925 0.26241 0.0
H50 H 0.28986 0.37367 0.14128 0.0
H51 H 0.33409 0.34222 0.17037 0.0
H52 H 0.32825 0.41065 0.30898 0.0
H53 H 0.28215 0.40567 0.33007 0.0
H54 H 0.31656 0.38788 0.35642 0.0
H55 H 0.23888 0.32171 0.29228 0.0
H56 H 0.26045 0.30611 0.33343 0.0
H57 H 0.24165 0.34697 0.33868 0.0
H58 H 0.258 0.30546 0.44784 0.0
C59 C 0.29821 0.32082 0.39928 0.0
C60 C 0.09111 0.86416 0.63916 0.0
C61 C 0.07334 0.87703 0.67347 0.0
C62 C 0.08016 0.86544 0.7128 0.0
C63 C 0.1302 0.8402 0.68456 0.0
C64 C 0.11933 0.84492 0.64552 0.0
C65 C 0.14487 0.83232 0.61399 0.0
H66 H 0.31476 0.80295 0.57168 0.0
C67 C 0.16698 0.83191 0.6821 0.0
C68 C 0.17429 0.82307 0.64131 0.0
H69 H 0.21783 0.727 0.53595 0.0
H70 H 0.1796 0.76156 0.57595 0.0
H71 H 0.2817 0.88376 0.59131 0.0
H72 H 0.29151 0.78343 0.65051 0.0
H73 H 0.29758 0.81659 0.68842 0.0
H74 H 0.32968 0.82137 0.6452 0.0
H75 H 0.32474 0.87376 0.6058 0.0
H76 H 0.29649 0.89438 0.64108 0.0
C77 C 0.16124 0.86367 0.58392 0.0
C78 C 0.1237 0.79904 0.59126 0.0
C79 C 0.25261 0.88856 0.79241 0.0
C80 C 0.29097 0.89998 0.79285 0.0
C81 C 0.31256 0.89508 0.75785 0.0
C82 C 0.29615 0.87863 0.72302 0.0
C83 C 0.25781 0.86664 0.72337 0.0
C84 C 0.23659 0.8725 0.75723 0.0
C85 C 0.19609 0.85993 0.75121 0.0
C86 C 0.19667 0.84485 0.70795 0.0
C87 C 0.23294 0.84847 0.69247 0.0
C88 C 0.17723 0.89348 0.75519 0.0
C89 C 0.18085 0.82926 0.78262 0.0
C90 C 0.28525 0.79564 0.56872 0.0
C91 C 0.2694 0.76324 0.54897 0.0
C92 C 0.23066 0.7527 0.54938 0.0
C93 C 0.20846 0.77304 0.57149 0.0
C94 C 0.22516 0.80406 0.59304 0.0
C95 C 0.26311 0.81366 0.59316 0.0
C96 C 0.27619 0.835 0.6307 0.0
C97 C 0.23994 0.83563 0.65299 0.0
C98 C 0.21056 0.82053 0.62903 0.0
C99 C 0.2961 0.87377 0.6168 0.0
C100 C 0.30022 0.81343 0.65503 0.0
H101 H 0.1136 0.83883 0.74879 0.0
H102 H 0.08564 0.87188 0.60853 0.0
H103 H 0.09658 0.80397 0.58216 0.0
H104 H 0.11885 0.7741 0.61083 0.0
H105 H 0.13863 0.79408 0.56256 0.0
H106 H 0.17509 0.88823 0.60065 0.0
H107 H 0.13948 0.87139 0.56548 0.0
H108 H 0.1818 0.85523 0.56244 0.0
H109 H 0.23537 0.89191 0.81899 0.0
H110 H 0.34214 0.90427 0.7573 0.0
H111 H 0.31401 0.8757 0.69729 0.0
H112 H 0.17225 0.90428 0.72478 0.0
H113 H 0.1941 0.91666 0.77151 0.0
H114 H 0.15094 0.88699 0.77332 0.0
H115 H 0.19976 0.80974 0.78464 0.0
H116 H 0.15409 0.8128 0.77408 0.0
H117 H 0.17763 0.84086 0.81349 0.0
H118 H 0.06559 0.87355 0.73942 0.0
C119 C 0.10839 0.8465 0.7184 0.0
C120 C 0.61683 0.2656 0.96458 0.0
C121 C 0.58314 0.24547 0.95113 0.0
C122 C 0.56562 0.26097 0.92003 0.0
C123 C 0.61388 0.31586 0.91782 0.0
C124 C 0.63144 0.30057 0.94779 0.0
C125 C 0.66609 0.3261 0.95998 0.0
H126 H 0.78724 0.48811 0.93972 0.0
C127 C 0.63564 0.35322 0.90799 0.0
C128 C 0.66627 0.3593 0.93285 0.0
H129 H 0.7906 0.39715 1.02041 0.0
H130 H 0.73414 0.36415 0.99463 0.0
H131 H 0.69936 0.48526 0.95675 0.0
H132 H 0.75621 0.43878 0.85897 0.0
H133 H 0.72406 0.46231 0.83883 0.0
H134 H 0.7618 0.48725 0.86659 0.0
H135 H 0.72593 0.51328 0.91738 0.0
H136 H 0.67871 0.49122 0.91055 0.0
C137 C 0.66174 0.33511 1.00589 0.0
C138 C 0.69893 0.30755 0.94911 0.0
C139 C 0.59242 0.43242 0.7998 0.0
C140 C 0.60507 0.46872 0.78584 0.0
C141 C 0.63666 0.4895 0.80338 0.0
C142 C 0.65553 0.47443 0.83346 0.0
C143 C 0.64262 0.43813 0.84697 0.0
C144 C 0.6112 0.41795 0.83049 0.0
C145 C 0.60016 0.38055 0.85007 0.0
C146 C 0.63042 0.38118 0.88032 0.0
C147 C 0.65562 0.41495 0.87822 0.0
C148 C 0.56202 0.37792 0.87198 0.0
C149 C 0.60119 0.35153 0.81654 0.0
C150 C 0.77579 0.46116 0.95201 0.0
C151 C 0.79447 0.44529 0.98192 0.0
C152 C 0.778 0.41 0.9967 0.0
C153 C 0.74474 0.39078 0.98185 0.0
C154 C 0.72685 0.40667 0.95178 0.0
C155 C 0.74218 0.44143 0.93748 0.0
C156 C 0.71844 0.45402 0.90607 0.0
C157 C 0.68693 0.42085 0.90339 0.0
C158 C 0.69214 0.39319 0.93042 0.0
C159 C 0.70496 0.48789 0.92317 0.0
C160 C 0.74118 0.46125 0.86536 0.0
H161 H 0.56584 0.30572 0.87992 0.0
H162 H 0.63098 0.25494 0.98862 0.0
H163 H 0.69441 0.2919 0.9202 0.0
H164 H 0.72502 0.32732 0.94344 0.0
H165 H 0.70264 0.28809 0.97347 0.0
H166 H 0.63271 0.33619 1.01441 0.0
H167 H 0.66985 0.31405 1.02552 0.0
H168 H 0.67758 0.36232 1.01398 0.0
H169 H 0.56798 0.41578 0.78756 0.0
H170 H 0.64721 0.51737 0.79324 0.0
H171 H 0.67956 0.49167 0.84508 0.0
H172 H 0.55904 0.40484 0.88478 0.0
H173 H 0.5395 0.36925 0.85056 0.0
H174 H 0.55772 0.35915 0.89853 0.0
H175 H 0.6258 0.35986 0.79569 0.0
H176 H 0.60336 0.32461 0.82896 0.0
H177 H 0.57646 0.3481 0.7978 0.0
H178 H 0.53997 0.24613 0.90853 0.0
C179 C 0.58074 0.29572 0.90334 0.0
C180 C 0.91166 0.8323 0.43793 0.0
C181 C 0.89664 0.85281 0.46819 0.0
C182 C 0.86024 0.83951 0.48296 0.0
C183 C 0.85586 0.78493 0.44199 0.0
C184 C 0.89061 0.79846 0.42517 0.0
C185 C 0.90146 0.77242 0.39361 0.0
H186 H 0.85523 0.61231 0.28869 0.0
C187 C 0.84165 0.74853 0.42437 0.0
C188 C 0.86788 0.74098 0.39534 0.0
H189 H 0.9565 0.69328 0.27697 0.0
H190 H 0.93408 0.72949 0.32914 0.0
H191 H 0.85449 0.61322 0.38795 0.0
H192 H 0.79815 0.66744 0.30164 0.0
H193 H 0.76677 0.64749 0.34096 0.0
H194 H 0.78864 0.61863 0.3084 0.0
H195 H 0.81722 0.58868 0.35937 0.0
H196 H 0.8092 0.61096 0.40677 0.0
C197 C 0.93632 0.76008 0.40771 0.0
C198 C 0.90649 0.79219 0.35174 0.0
C199 C 0.72113 0.67412 0.48305 0.0
C200 C 0.70023 0.63919 0.4751 0.0
C201 C 0.71255 0.6187 0.44307 0.0
C202 C 0.74534 0.63247 0.42016 0.0
C203 C 0.76623 0.66726 0.42915 0.0
C204 C 0.75364 0.68744 0.45997 0.0
C205 C 0.77847 0.72407 0.46514 0.0
C206 C 0.80887 0.72229 0.4333 0.0
C207 C 0.80172 0.68905 0.41208 0.0
C208 C 0.79258 0.72572 0.50917 0.0
C209 C 0.75669 0.75412 0.45482 0.0
C210 C 0.87297 0.63762 0.29727 0.0
C211 C 0.9078 0.64966 0.27742 0.0
C212 C 0.92922 0.68329 0.29021 0.0
C213 C 0.91626 0.70438 0.32103 0.0
C214 C 0.8815 0.69193 0.34016 0.0
C215 C 0.86069 0.65876 0.32851 0.0
C216 C 0.82527 0.64871 0.35374 0.0
C217 C 0.82759 0.68177 0.38141 0.0
C218 C 0.86063 0.70733 0.37328 0.0
C219 C 0.82619 0.61343 0.37816 0.0
C220 C 0.7928 0.64509 0.32487 0.0
H221 H 0.81297 0.79753 0.48375 0.0
H222 H 0.93931 0.8418 0.42539 0.0
H223 H 0.88441 0.80792 0.3477 0.0
H224 H 0.90454 0.77321 0.32575 0.0
H225 H 0.9333 0.81175 0.34916 0.0
H226 H 0.93452 0.75505 0.44126 0.0
H227 H 0.96132 0.78136 0.40073 0.0
H228 H 0.94003 0.73404 0.39388 0.0
H229 H 0.71218 0.69113 0.50659 0.0
H230 H 0.69711 0.59172 0.43612 0.0
H231 H 0.75325 0.61548 0.39637 0.0
H232 H 0.79947 0.69915 0.51789 0.0
H233 H 0.77134 0.73151 0.53161 0.0
H234 H 0.8181 0.74618 0.51288 0.0
H235 H 0.7336 0.74362 0.43458 0.0
H236 H 0.77377 0.77731 0.4375 0.0
H237 H 0.74476 0.76464 0.48288 0.0
H238 H 0.84722 0.85501 0.50497 0.0
C239 C 0.84007 0.80597 0.47032 0.0
C240 C 0.72679 0.73728 0.94344 0.0
C241 C 0.74843 0.7146 0.92434 0.0
C242 C 0.74074 0.70244 0.88421 0.0
C243 C 0.69646 0.74139 0.88021 0.0
C244 C 0.7004 0.74976 0.92089 0.0
C245 C 0.67416 0.77345 0.93559 0.0
H246 H 0.56251 0.88827 0.88771 0.0
C247 C 0.67043 0.76169 0.86362 0.0
C248 C 0.65528 0.7789 0.89617 0.0
H249 H 0.59675 0.86312 1.00689 0.0
H250 H 0.62486 0.81519 0.97802 0.0
H251 H 0.54381 0.79987 0.85263 0.0
H252 H 0.61914 0.89769 0.84295 0.0
H253 H 0.64557 0.87223 0.81334 0.0
H254 H 0.60142 0.87873 0.7968 0.0
H255 H 0.5431 0.84193 0.82623 0.0
H256 H 0.56099 0.80565 0.80142 0.0
C257 C 0.647 0.75183 0.96815 0.0
C258 C 0.69733 0.80968 0.95123 0.0
C259 C 0.69762 0.81523 0.72312 0.0
C260 C 0.68313 0.84261 0.70386 0.0
C261 C 0.64676 0.84587 0.71425 0.0
C262 C 0.62795 0.82692 0.74807 0.0
C263 C 0.64625 0.80575 0.77201 0.0
C264 C 0.67875 0.79715 0.75746 0.0
C265 C 0.69285 0.77216 0.78625 0.0
C266 C 0.66586 0.77184 0.82282 0.0
C267 C 0.6398 0.79323 0.8147 0.0
C268 C 0.68987 0.73416 0.76596 0.0
C269 C 0.7328 0.78954 0.79692 0.0
C270 C 0.57558 0.87193 0.90754 0.0
C271 C 0.5777 0.87939 0.94941 0.0
C272 C 0.59514 0.85791 0.9744 0.0
C273 C 0.61159 0.83031 0.95756 0.0
C274 C 0.61171 0.82498 0.91511 0.0
C275 C 0.59342 0.84522 0.8909 0.0
C276 C 0.59777 0.8371 0.84622 0.0
C277 C 0.62189 0.80852 0.84763 0.0
C278 C 0.62998 0.80172 0.88815 0.0
C279 C 0.55939 0.82039 0.8305 0.0
C280 C 0.61689 0.873 0.8235 0.0
H281 H 0.70835 0.70508 0.83224 0.0
H282 H 0.73083 0.7456 0.97489 0.0
H283 H 0.72048 0.82039 0.92915 0.0
H284 H 0.68174 0.8317 0.95487 0.0
H285 H 0.70919 0.80541 0.98102 0.0
H286 H 0.64331 0.72181 0.9634 0.0
H287 H 0.65696 0.75769 0.99946 0.0
H288 H 0.61902 0.75761 0.96651 0.0
H289 H 0.72496 0.81121 0.71482 0.0
H290 H 0.63422 0.86547 0.69855 0.0
H291 H 0.60084 0.83102 0.75598 0.0
H292 H 0.68484 0.73498 0.73275 0.0
H293 H 0.71576 0.72385 0.76802 0.0
H294 H 0.66691 0.71367 0.78007 0.0
H295 H 0.73429 0.81747 0.80948 0.0
H296 H 0.74383 0.77324 0.81964 0.0
H297 H 0.75166 0.79145 0.76956 0.0
H298 H 0.75615 0.68408 0.86925 0.0
C299 C 0.71422 0.71531 0.86231 0.0
C300 C 0.91231 0.24555 0.53004 0.0
C301 C 0.93039 0.22992 0.498 0.0
C302 C 0.92642 0.24034 0.45741 0.0
C303 C 0.87834 0.27105 0.48011 0.0
C304 C 0.88653 0.26676 0.52028 0.0
C305 C 0.86107 0.28257 0.54912 0.0
H306 H 0.69412 0.3216 0.57992 0.0
C307 C 0.8431 0.28267 0.47919 0.0
C308 C 0.83439 0.2931 0.51902 0.0
H309 H 0.79178 0.39145 0.62332 0.0
H310 H 0.82956 0.35591 0.58391 0.0
H311 H 0.7226 0.23873 0.56001 0.0
H312 H 0.72254 0.34238 0.50259 0.0
H313 H 0.71785 0.31061 0.46315 0.0
H314 H 0.68271 0.30606 0.50341 0.0
H315 H 0.68182 0.25268 0.54397 0.0
H316 H 0.70918 0.23048 0.50933 0.0
C317 C 0.84114 0.25315 0.57977 0.0
C318 C 0.88343 0.3155 0.57143 0.0
C319 C 0.76144 0.23141 0.36331 0.0
C320 C 0.7231 0.22296 0.36004 0.0
C321 C 0.70043 0.23104 0.39275 0.0
C322 C 0.71576 0.24733 0.4282 0.0
C323 C 0.75417 0.25576 0.43091 0.0
C324 C 0.77634 0.24718 0.39917 0.0
C325 C 0.81648 0.25601 0.40844 0.0
C326 C 0.81467 0.2721 0.45111 0.0
C327 C 0.77814 0.27215 0.46351 0.0
C328 C 0.83154 0.21997 0.40738 0.0
C329 C 0.83643 0.28512 0.37736 0.0
C330 C 0.72342 0.32713 0.58462 0.0
C331 C 0.7398 0.35791 0.60677 0.0
C332 C 0.77851 0.36667 0.60837 0.0
C333 C 0.80035 0.34574 0.58663 0.0
C334 C 0.78328 0.31598 0.56339 0.0
C335 C 0.74547 0.30856 0.56079 0.0
C336 C 0.73335 0.2887 0.52208 0.0
C337 C 0.77008 0.28592 0.50222 0.0
C338 C 0.79857 0.29899 0.52822 0.0
C339 C 0.71028 0.25066 0.53415 0.0
C340 C 0.71279 0.31277 0.4964 0.0
H341 H 0.89783 0.26842 0.41715 0.0
H342 H 0.91567 0.23865 0.56156 0.0
H343 H 0.9096 0.30918 0.58184 0.0
H344 H 0.89024 0.33994 0.5511 0.0
H345 H 0.86841 0.3221 0.59938 0.0
H346 H 0.82639 0.22876 0.56345 0.0
H347 H 0.86094 0.24436 0.60023 0.0
H348 H 0.82076 0.26401 0.59931 0.0
H349 H 0.77956 0.22563 0.33856 0.0
H350 H 0.67078 0.22417 0.39123 0.0
H351 H 0.69706 0.25253 0.45216 0.0
H352 H 0.83443 0.20966 0.43864 0.0
H353 H 0.81323 0.19741 0.39163 0.0
H354 H 0.85831 0.22332 0.39025 0.0
H355 H 0.82022 0.30675 0.37294 0.0
H356 H 0.86348 0.29936 0.38778 0.0
H357 H 0.84039 0.27252 0.3472 0.0
H358 H 0.94129 0.22991 0.4325 0.0
C359 C 0.90073 0.26149 0.44841 0.0
C360 C 0.41101 0.67723 0.36392 0.0
C361 C 0.39653 0.64149 0.37876 0.0
C362 C 0.3646 0.6216 0.36103 0.0
C363 C 0.36201 0.67259 0.31543 0.0
C364 C 0.39365 0.69198 0.33219 0.0
C365 C 0.40643 0.72885 0.31171 0.0
H366 H 0.38204 0.85401 0.16893 0.0
C367 C 0.35074 0.69571 0.283 0.0
C368 C 0.377 0.72873 0.28052 0.0
H369 H 0.4715 0.8614 0.25093 0.0
H370 H 0.4437 0.80251 0.28019 0.0
H371 H 0.31643 0.81864 0.23656 0.0
H372 H 0.37878 0.77194 0.14482 0.0
H373 H 0.33358 0.74659 0.14475 0.0
H374 H 0.34249 0.7947 0.13207 0.0
H375 H 0.31046 0.82322 0.18284 0.0
H376 H 0.28579 0.78426 0.21172 0.0
C377 C 0.40594 0.75879 0.34429 0.0
C378 C 0.44471 0.72965 0.29089 0.0
C379 C 0.2318 0.65086 0.20723 0.0
C380 C 0.21429 0.66641 0.17609 0.0
C381 C 0.23191 0.70099 0.16026 0.0
C382 C 0.26524 0.71988 0.17536 0.0
C383 C 0.28195 0.70432 0.20674 0.0
C384 C 0.26543 0.67019 0.22196 0.0
C385 C 0.28785 0.65772 0.25471 0.0
C386 C 0.32006 0.69018 0.25704 0.0
C387 C 0.31636 0.71748 0.22879 0.0
C388 C 0.26415 0.65238 0.29492 0.0
C389 C 0.30048 0.62276 0.23952 0.0
C390 C 0.39544 0.84318 0.19351 0.0
C391 C 0.42922 0.86273 0.2074 0.0
C392 C 0.44578 0.84702 0.23915 0.0
C393 C 0.42952 0.81269 0.25622 0.0
C394 C 0.39622 0.79319 0.24144 0.0
C395 C 0.37971 0.80861 0.21065 0.0
C396 C 0.34482 0.78365 0.19806 0.0
C397 C 0.34316 0.75075 0.22608 0.0
C398 C 0.3733 0.75643 0.25171 0.0
C399 C 0.31251 0.80331 0.20739 0.0
C400 C 0.34977 0.77374 0.15251 0.0
H401 H 0.32294 0.62032 0.31808 0.0
H402 H 0.43576 0.69318 0.37628 0.0
H403 H 0.44671 0.70225 0.2787 0.0
H404 H 0.45034 0.74813 0.26412 0.0
H405 H 0.46692 0.73762 0.31284 0.0
H406 H 0.38076 0.75182 0.36453 0.0
H407 H 0.43012 0.76155 0.3638 0.0
H408 H 0.40527 0.78575 0.33093 0.0
H409 H 0.21939 0.62449 0.22041 0.0
H410 H 0.22013 0.71354 0.13566 0.0
H411 H 0.27679 0.74602 0.16183 0.0
H412 H 0.24925 0.67523 0.29933 0.0
H413 H 0.24335 0.62647 0.29447 0.0
H414 H 0.28056 0.65243 0.32225 0.0
H415 H 0.30605 0.62388 0.20588 0.0
H416 H 0.32661 0.61942 0.25248 0.0
H417 H 0.27908 0.59793 0.24647 0.0
H418 H 0.3526 0.59424 0.37183 0.0
C419 C 0.34727 0.63691 0.32983 0.0
C420 C 0.08709 0.27528 0.73971 0.0
C421 C 0.09972 0.25516 0.70739 0.0
C422 C 0.13095 0.27227 0.68365 0.0
C423 C 0.13814 0.32653 0.72563 0.0
C424 C 0.10672 0.31093 0.74818 0.0
C425 C 0.09763 0.33676 0.78094 0.0
H426 H 0.14083 0.50267 0.87489 0.0
C427 C 0.15312 0.36306 0.74262 0.0
C428 C 0.12949 0.36958 0.77502 0.0
H429 H 0.0459 0.41631 0.89902 0.0
H430 H 0.0683 0.37863 0.84794 0.0
H431 H 0.14466 0.49524 0.77385 0.0
H432 H 0.1988 0.44786 0.86839 0.0
H433 H 0.23025 0.46074 0.82704 0.0
H434 H 0.21193 0.49538 0.85468 0.0
H435 H 0.17639 0.52231 0.80729 0.0
H436 H 0.19241 0.50181 0.7623 0.0
C437 C 0.0603 0.34655 0.77136 0.0
C438 C 0.09804 0.31816 0.82301 0.0
C439 C 0.27468 0.43409 0.68298 0.0
C440 C 0.29914 0.46635 0.69387 0.0
C441 C 0.28801 0.4871 0.72651 0.0
C442 C 0.25391 0.47556 0.74795 0.0
C443 C 0.23049 0.44262 0.73717 0.0
C444 C 0.24137 0.42257 0.7052 0.0
C445 C 0.2146 0.38731 0.69892 0.0
C446 C 0.18565 0.38921 0.73235 0.0
C447 C 0.19455 0.42187 0.75449 0.0
C448 C 0.19904 0.38848 0.65577 0.0
C449 C 0.23487 0.35543 0.70602 0.0
C450 C 0.12468 0.47578 0.86893 0.0
C451 C 0.09128 0.46275 0.89114 0.0
C452 C 0.07174 0.42713 0.88282 0.0
C453 C 0.08466 0.40531 0.85278 0.0
C454 C 0.11771 0.4189 0.83053 0.0
C455 C 0.13738 0.4535 0.8391 0.0
C456 C 0.17264 0.46292 0.81338 0.0
C457 C 0.17008 0.42913 0.78674 0.0
C458 C 0.13776 0.4032 0.79699 0.0
C459 C 0.17181 0.49752 0.78787 0.0
C460 C 0.2053 0.46727 0.84213 0.0
H461 H 0.17369 0.31822 0.6733 0.0
H462 H 0.06297 0.26343 0.75836 0.0
H463 H 0.1216 0.30396 0.82413 0.0
H464 H 0.10166 0.33781 0.84842 0.0
H465 H 0.0724 0.29747 0.82907 0.0
H466 H 0.05781 0.34947 0.73785 0.0
H467 H 0.03702 0.3249 0.78265 0.0
H468 H 0.05696 0.37308 0.78419 0.0
H469 H 0.2812 0.41757 0.65766 0.0
H470 H 0.30597 0.51188 0.73624 0.0
H471 H 0.24726 0.49249 0.77247 0.0
H472 H 0.19728 0.41687 0.64707 0.0
H473 H 0.21678 0.37838 0.6322 0.0
H474 H 0.17058 0.37273 0.654 0.0
H475 H 0.25589 0.36267 0.72955 0.0
H476 H 0.21656 0.33037 0.71809 0.0
H477 H 0.24924 0.34873 0.67754 0.0
H478 H 0.14072 0.25854 0.65761 0.0
C479 C 0.15009 0.3074 0.6926 0.0
Sm480 Sm 0.03279 1.05541 0.57085 0.0
Sm481 Sm 0.96297 1.05099 0.61247 0.0
C482 C 0.09257 0.06528 0.52271 0.0
C483 C 0.12471 0.09536 0.51759 0.0
C484 C 0.12065 0.13194 0.51611 0.0
C485 C 0.15153 0.1602 0.51199 0.0
C486 C 0.18706 0.15244 0.50976 0.0
C487 C 0.19095 0.1158 0.51279 0.0
C488 C 0.16005 0.08755 0.51647 0.0
C489 C 0.02418 1.00811 0.63673 0.0
C490 C 0.03147 0.1142 0.64279 0.0
C491 C 0.9013 1.04233 0.65743 0.0
C492 C 0.86783 1.01348 0.65989 0.0
C493 C 0.86979 0.97644 0.6635 0.0
C494 C 0.83782 0.94936 0.66336 0.0
C495 C 0.80329 0.95872 0.65905 0.0
C496 C 0.80163 0.99584 0.65463 0.0
C497 C 0.83356 1.02291 0.65526 0.0
C498 C 0.97276 0.09774 0.54618 0.0
C499 C 0.96519 0.99005 0.54319 0.0
O500 O 0.0611 0.07143 0.51082 0.0
O501 O 0.08975 1.04787 0.55757 0.0
O502 O 1.00019 1.00998 0.61119 0.0
O503 O 0.05278 1.03384 0.62966 0.0
O504 O 0.0487 0.10738 0.6087 0.0
O505 O 0.99916 0.09382 0.65373 0.0
O506 O 0.93157 1.03443 0.67085 0.0
O507 O 0.90653 0.06072 0.62315 0.0
O508 O 0.99599 0.09641 0.57272 0.0
O509 O 0.94441 0.07148 0.55215 0.0
O510 O 0.94917 0.99692 0.57804 0.0
O511 O 0.99596 1.01204 0.53014 0.0
H512 H 0.09363 0.13873 0.51776 0.0
H513 H 0.14744 0.18799 0.50921 0.0
H514 H 0.2179 0.10889 0.51187 0.0
H515 H 0.16374 0.05954 0.51844 0.0
H516 H 0.89597 0.96833 0.66639 0.0
H517 H 0.84017 0.92117 0.66757 0.0
H518 H 0.77565 1.00405 0.65065 0.0
H519 H 0.83153 1.05129 0.65166 0.0
Sm520 Sm 0.54567 0.06264 0.092 0.0
Sm521 Sm 0.47042 1.04486 1.06746 0.0
C522 C 0.61299 0.09278 0.11319 0.0
C523 C 0.6289 0.11361 0.14801 0.0
C524 C 0.66705 0.1248 0.14947 0.0
C525 C 0.68246 0.14365 0.18339 0.0
C526 C 0.65979 0.15153 0.21613 0.0
C527 C 0.62146 0.14063 0.2142 0.0
C528 C 0.60612 0.12166 0.18036 0.0
C529 C 0.50571 0.99988 0.13013 0.0
C530 C 0.4851 0.10304 0.1381 0.0
C531 C 0.40316 1.01426 1.04666 0.0
C532 C 0.38725 0.99617 1.01029 0.0
C533 C 0.34918 0.9843 1.00891 0.0
C534 C 0.33377 0.96823 0.97354 0.0
C535 C 0.35635 0.9639 0.93921 0.0
C536 C 0.39462 0.97551 0.94101 0.0
C537 C 0.40998 0.9916 0.97636 0.0
C538 C 0.50987 0.10762 1.02925 0.0
C539 C 0.53155 1.00485 1.02106 0.0
O540 O 0.59332 0.10923 0.09019 0.0
O541 O 0.59766 0.05876 0.12094 0.0
O542 O 0.49416 1.02929 0.12548 0.0
O543 O 0.53918 1.00358 0.11572 0.0
O544 O 0.51993 0.10568 0.12687 0.0
O545 O 0.45994 0.07606 0.12497 0.0
O546 O 0.42429 0.99688 1.06648 0.0
O547 O 0.41697 1.04909 1.04231 0.0
O548 O 0.52179 0.07839 1.03396 0.0
O549 O 0.47623 0.10347 1.04313 0.0
O550 O 0.49657 1.00228 1.03175 0.0
O551 O 0.55658 1.03164 1.03471 0.0
H552 H 0.68487 0.11872 0.12457 0.0
H553 H 0.71207 0.15212 0.184 0.0
H554 H 0.60342 0.14599 0.23923 0.0
H555 H 0.57655 0.11286 0.17966 0.0
H556 H 0.33142 0.9877 1.03504 0.0
H557 H 0.30422 0.95907 0.97308 0.0
H558 H 0.4126 0.97285 0.91485 0.0
H559 H 0.4395 1.00092 0.97707 0.0
Sm560 Sm 0.50591 0.52112 0.55724 0.0
Sm561 Sm 0.49551 0.59044 0.60912 0.0
C562 C 0.54443 0.47698 0.52227 0.0
C563 C 0.57573 0.46386 0.53925 0.0
C564 C 0.60457 0.48844 0.55711 0.0
C565 C 0.63212 0.47555 0.577 0.0
C566 C 0.63108 0.43784 0.58 0.0
C567 C 0.60221 0.41334 0.56215 0.0
C568 C 0.57486 0.42624 0.54193 0.0
C569 C 0.43935 0.5052 0.60143 0.0
C570 C 0.53306 0.53105 0.65444 0.0
C571 C 0.4644 0.64355 0.63626 0.0
C572 C 0.43425 0.65751 0.61787 0.0
C573 C 0.40629 0.63352 0.59803 0.0
C574 C 0.3792 0.64688 0.57788 0.0
C575 C 0.3799 0.68457 0.57652 0.0
C576 C 0.40822 0.70862 0.59581 0.0
C577 C 0.43513 0.69518 0.61636 0.0
C578 C 0.56363 0.59468 0.57148 0.0
C579 C 0.46438 0.57787 0.51257 0.0
O580 O 0.54989 0.51184 0.51313 0.0
O581 O 0.51256 0.46489 0.54098 0.0
O582 O 0.46288 0.53467 0.60081 0.0
O583 O 0.45034 0.48252 0.57593 0.0
O584 O 0.53632 0.51721 0.61748 0.0
O585 O 0.51513 0.55801 0.66108 0.0
O586 O 0.4559 0.6103 0.65152 0.0
O587 O 0.49546 0.64975 0.61476 0.0
O588 O 0.53302 0.58091 0.55674 0.0
O589 O 0.55876 0.60878 0.60721 0.0
O590 O 0.46736 0.59608 0.54756 0.0
O591 O 0.47738 0.54747 0.50729 0.0
H592 H 0.6056 0.51764 0.55636 0.0
H593 H 0.65401 0.49502 0.59044 0.0
H594 H 0.60108 0.38413 0.56326 0.0
H595 H 0.55269 0.40679 0.52892 0.0
H596 H 0.40559 0.60441 0.59757 0.0
H597 H 0.35785 0.62778 0.56313 0.0
H598 H 0.40912 0.7378 0.59576 0.0
H599 H 0.45677 0.7142 0.63078 0.0
Sm600 Sm 0.00556 0.51979 0.10596 0.0
Sm601 Sm 0.99653 0.59495 1.06515 0.0
C602 C 0.03049 0.4622 0.13076 0.0
C603 C 0.06686 0.45311 0.13734 0.0
C604 C 0.08986 0.44608 0.10439 0.0
C605 C 0.12414 0.43757 0.11138 0.0
C606 C 0.13618 0.43613 0.15137 0.0
C607 C 0.11309 0.44304 0.1842 0.0
C608 C 0.07881 0.45126 0.17726 0.0
C609 C 0.96628 0.56194 0.15208 0.0
C610 C 0.073 0.59413 0.11136 0.0
C611 C 0.97021 0.65501 1.05591 0.0
C612 C 0.94097 0.66644 1.03341 0.0
C613 C 0.92269 0.69233 1.05101 0.0
C614 C 0.89168 0.70034 1.03321 0.0
C615 C 0.87835 0.68268 0.99723 0.0
C616 C 0.8973 0.65718 0.97921 0.0
C617 C 0.92821 0.64894 0.99731 0.0
C618 C 0.0281 0.55333 1.00855 0.0
C619 C 0.93307 0.51905 1.05179 0.0
O620 O 0.02176 0.46669 0.09302 0.0
O621 O 0.02016 0.48586 0.15589 0.0
O622 O 0.99487 0.5736 0.12994 0.0
O623 O 0.95807 0.52636 0.15136 0.0
O624 O 0.06291 0.55792 0.11353 0.0
O625 O 0.0513 0.61487 0.09672 0.0
O626 O 0.95835 0.63055 0.08447 0.0
O627 O 0.9992 0.64888 1.03496 0.0
O628 O 0.01777 0.54574 1.0451 0.0
O629 O 0.02216 0.58573 1.00031 0.0
O630 O 0.94155 0.55532 1.05172 0.0
O631 O 0.95475 0.49887 1.06759 0.0
H632 H 0.08147 0.44715 1.0732 0.0
H633 H 0.14136 0.43246 0.08548 0.0
H634 H 0.12124 0.44143 0.21542 0.0
H635 H 0.06157 0.45612 0.20327 0.0
H636 H 0.93175 0.70554 1.07934 0.0
H637 H 0.87753 0.71958 1.04844 0.0
H638 H 0.8882 0.64341 0.95123 0.0
H639 H 0.94162 0.62839 0.98363 0.0
C640 C 0.24951 0.24638 0.50109 0.0
C641 C 0.27518 0.2402 0.47058 0.0
H642 H 0.20179 0.22327 0.5383 0.0
C643 C 0.27408 0.20414 0.45722 0.0
H644 H 0.24977 0.27373 0.51231 0.0
C645 C 0.24668 0.17552 0.47177 0.0
C646 C 0.21951 0.18199 0.50016 0.0
H647 H 0.29265 0.19818 0.43304 0.0
H648 H 0.24544 0.14874 0.4585 0.0
C649 C 0.22194 0.21752 0.51579 0.0
C650 C 0.29291 0.9431 0.85132 0.0
C651 C 0.30831 0.91697 0.82974 0.0
H652 H 0.2964 0.97878 0.9027 0.0
C653 C 0.33992 0.90668 0.84403 0.0
H654 H 0.26888 0.95193 0.84056 0.0
C655 C 0.35563 0.922 0.87959 0.0
C656 C 0.33998 0.94784 0.9014 0.0
H657 H 0.35205 0.88625 0.82819 0.0
H658 H 0.37962 0.91313 0.89041 0.0
C659 C 0.3086 0.9584 0.88685 0.0
C660 C 0.57693 0.51957 0.75673 0.0
C661 C 0.58589 0.4847 0.75276 0.0
H662 H 0.55272 0.56126 0.72968 0.0
C663 C 0.5769 0.46537 0.71646 0.0
H664 H 0.58332 0.53523 0.78428 0.0
C665 C 0.56002 0.48055 0.6849 0.0
C666 C 0.55075 0.51529 0.68886 0.0
H667 H 0.58362 0.43866 0.71207 0.0
H668 H 0.55406 0.46481 0.65731 0.0
C669 C 0.55922 0.53446 0.72545 0.0
C670 C 0.94726 0.64384 0.21318 0.0
C671 C 0.92202 0.6272 0.24429 0.0
H672 H 0.98145 0.63665 0.16067 0.0
C673 C 0.911 0.58873 0.2436 0.0
H674 H 0.95614 0.67325 0.21157 0.0
C675 C 0.92462 0.56786 0.21318 0.0
C676 C 0.95026 0.58456 0.18281 0.0
H677 H 0.89239 0.57434 0.26708 0.0
H678 H 0.91561 0.5384 0.21405 0.0
C679 C 0.96148 0.62283 0.18331 0.0
C680 C 0.42687 0.16812 0.1792 0.0
C681 C 0.45277 0.19413 0.19921 0.0
H682 H 0.41657 0.11846 0.14521 0.0
C683 C 0.4892 0.18922 0.20051 0.0
H684 H 0.39845 0.17094 0.1784 0.0
C685 C 0.49968 0.15915 0.18141 0.0
C686 C 0.47372 0.1331 0.16139 0.0
H687 H 0.50963 0.20882 0.21595 0.0
H688 H 0.52811 0.15641 0.18218 0.0
C689 C 0.43716 0.13779 0.16075 0.0
C690 C 0.02829 0.90817 0.63938 0.0
C691 C 0.05429 0.90798 0.66925 0.0
H692 H 0.99694 0.94015 0.60674 0.0
C693 C 0.06585 0.93974 0.69236 0.0
H694 H 0.01902 0.88407 0.62118 0.0
C695 C 0.05376 0.97185 0.68377 0.0
C696 C 0.02938 0.97265 0.65244 0.0
H697 H 0.08627 0.94054 0.71524 0.0
H698 H 0.06503 0.99658 0.70009 0.0
C699 C 0.01552 0.94018 0.63141 0.0
C700 C 0.85729 0.44497 1.00978 0.0
C701 C 0.83065 0.46479 0.99822 0.0
H702 H 0.90963 0.44599 1.03561 0.0
C703 C 0.83866 0.503 1.00372 0.0
H704 H 0.85295 0.41571 1.00526 0.0
C705 C 0.87178 0.52055 1.0208 0.0
C706 C 0.89791 0.50048 1.03316 0.0
H707 H 0.81901 0.51938 0.99569 0.0
H708 H 0.87663 0.54993 1.02478 0.0
C709 C 0.89017 0.46244 1.02712 0.0
C710 C 0.66428 0.63102 0.54253 0.0
C711 C 0.66576 0.62479 0.50014 0.0
H712 H 0.63121 0.62608 0.59813 0.0
C713 C 0.63364 0.60627 0.4819 0.0
H714 H 0.68855 0.6446 0.55783 0.0
C715 C 0.60066 0.59558 0.50517 0.0
C716 C 0.59907 0.6029 0.54727 0.0
H717 H 0.63361 0.60123 0.44935 0.0
H718 H 0.57615 0.5826 0.48989 0.0
C719 C 0.63142 0.62022 0.56574 0.0
C720 C 0.22609 0.43321 0.20065 0.0
C721 C 0.23589 0.40226 0.18236 0.0
H722 H 0.18726 0.46845 0.20477 0.0
C723 C 0.21471 0.38485 0.15067 0.0
H724 H 0.24223 0.44762 0.22466 0.0
C725 C 0.18313 0.39681 0.13927 0.0
C726 C 0.17213 0.42637 0.15939 0.0
H727 H 0.22134 0.36076 0.13622 0.0
H728 H 0.16632 0.38174 0.11618 0.0
C729 C 0.19457 0.44509 0.18934 0.0
C730 C 0.58518 0.18242 0.9801 0.0
C731 C 0.56511 0.20948 0.97057 0.0
H732 H 0.58367 0.12866 1.00525 0.0
C733 C 0.52711 0.20209 0.98013 0.0
H734 H 0.61446 0.18703 0.97308 0.0
C735 C 0.50972 0.16903 0.9987 0.0
C736 C 0.52953 0.14187 1.00804 0.0
H737 H 0.51074 0.22228 0.97395 0.0
H738 H 0.48048 0.16483 1.0059 0.0
C739 C 0.56753 0.14886 0.99832 0.0
C740 C 0.9408 0.91491 0.4629 0.0
C741 C 0.91804 0.88707 0.48649 0.0
H742 H 0.97379 0.96965 0.46203 0.0
C743 C 0.91359 0.89295 0.52864 0.0
H744 H 0.94497 0.91133 0.43038 0.0
C745 C 0.92918 0.92615 0.54629 0.0
C746 C 0.95059 0.95464 0.52275 0.0
H747 H 0.89738 0.8719 0.54823 0.0
H748 H 0.92428 0.9294 0.57877 0.0
C749 C 0.95711 0.94838 0.48094 0.0
C750 C 0.3295 0.74892 0.52443 0.0
C751 C 0.29354 0.73656 0.54074 0.0
H752 H 0.38548 0.74222 0.52353 0.0
C753 C 0.28509 0.7024 0.56072 0.0
H754 H 0.33675 0.77498 0.50856 0.0
C755 C 0.31297 0.68367 0.56925 0.0
C756 C 0.34973 0.69883 0.55802 0.0
H757 H 0.25781 0.69215 0.57396 0.0
H758 H 0.30619 0.6592 0.58803 0.0
C759 C 0.35745 0.73044 0.53342 0.0
C760 C 0.73825 0.86626 0.65736 0.0
C761 C 0.70877 0.87295 0.68238 0.0
H762 H 0.79105 0.88837 0.62937 0.0
C763 C 0.70831 0.90909 0.69418 0.0
H764 H 0.73921 0.83876 0.64747 0.0
C765 C 0.73813 0.93727 0.68451 0.0
C766 C 0.76907 0.93012 0.66248 0.0
H767 H 0.68643 0.91525 0.71407 0.0
H768 H 0.73791 0.96409 0.69701 0.0
C769 C 0.76808 0.89462 0.64738 0.0
C770 C 0.72137 0.17644 0.30497 0.0
C771 C 0.70685 0.20487 0.32307 0.0
H772 H 0.71757 0.1371 0.25709 0.0
C773 C 0.67673 0.21573 0.30572 0.0
H774 H 0.74414 0.16704 0.31814 0.0
C775 C 0.66146 0.19849 0.27085 0.0
C776 C 0.67612 0.17018 0.25271 0.0
H777 H 0.66529 0.23787 0.31879 0.0
H778 H 0.63847 0.20758 0.25778 0.0
C779 C 0.70619 0.15931 0.27008 0.0
C780 C 0.42505 0.64526 0.448 0.0
C781 C 0.41419 0.62503 0.41274 0.0
H782 H 0.4485 0.64637 0.5068 0.0
C783 C 0.4198 0.58877 0.41067 0.0
H784 H 0.42084 0.67304 0.451 0.0
C785 C 0.43616 0.5734 0.44268 0.0
C786 C 0.44678 0.5936 0.47808 0.0
H787 H 0.41194 0.57236 0.38397 0.0
H788 H 0.44025 0.54558 0.43975 0.0
C789 C 0.44076 0.62974 0.48022 0.0
C790 C 0.0597 0.4714 0.95952 0.0
C791 C 0.07633 0.48622 0.92219 0.0
H792 H 0.03165 0.48075 1.01589 0.0
C793 C 0.0775 0.52352 0.91424 0.0
H794 H 0.05849 0.44291 0.96696 0.0
C795 C 0.06198 0.54511 0.94235 0.0
C796 C 0.04527 0.53022 0.97949 0.0
H797 H 0.08964 0.53588 0.88575 0.0
H798 H 0.06298 0.57356 0.93488 0.0
C799 C 0.04454 0.49315 0.98783 0.0
C800 C 0.52948 0.91719 0.9616 0.0
C801 C 0.5655 0.91195 0.96618 0.0
H802 H 0.4902 0.95092 0.97564 0.0
C803 C 0.59066 0.93864 0.98611 0.0
H804 H 0.50972 0.89701 0.946 0.0
C805 C 0.57994 0.96972 1.00196 0.0
C806 C 0.54357 0.9745 0.99891 0.0
H807 H 0.61875 0.93545 0.98939 0.0
H808 H 0.59993 0.98936 1.01791 0.0
C809 C 0.51844 0.94803 0.97833 0.0
C810 C 0.97217 0.19824 0.53674 0.0
C811 C 0.94702 0.19792 0.50586 0.0
H812 H 1.00135 0.16654 0.57276 0.0
C813 C 0.93421 0.16516 0.48495 0.0
H814 H 0.98231 0.22313 0.5533 0.0
C815 C 0.94448 0.13279 0.49644 0.0
C816 C 0.96828 0.13272 0.5285 0.0
H817 H 0.9144 0.16408 0.46134 0.0
H818 H 0.93251 0.10752 0.48151 0.0
C819 C 0.98315 0.16593 0.54761 0.0
C820 C 0.16864 0.609 0.1563 0.0
C821 C 0.17789 0.64736 0.16002 0.0
H822 H 0.12894 0.56222 0.138 0.0
C823 C 0.15205 0.66772 0.14752 0.0
H824 H 0.18772 0.5922 0.16508 0.0
C825 C 0.11856 0.65052 0.1314 0.0
C826 C 0.10938 0.61227 0.1275 0.0
H827 H 0.1574 0.69715 0.15062 0.0
H828 H 0.09961 0.66742 0.12241 0.0
C829 C 0.1349 0.59171 0.14037 0.0
C830 C 0.35387 0.45024 0.65502 0.0
C831 C 0.33611 0.47723 0.67178 0.0
H832 H 0.39943 0.43802 0.61962 0.0
C833 C 0.35396 0.51419 0.66653 0.0
H834 H 0.34229 0.42145 0.65939 0.0
C835 C 0.38793 0.52363 0.64458 0.0
C836 C 0.4045 0.49645 0.62666 0.0
H837 H 0.34143 0.53598 0.67857 0.0
H838 H 0.40075 0.55214 0.64088 0.0
C839 C 0.38711 0.45971 0.63241 0.0
C840 C 0.80544 0.73346 0.96352 0.0
C841 C 0.7804 0.70564 0.94491 0.0
H842 H 0.85639 0.74846 0.9932 0.0
C843 C 0.78748 0.67007 0.94385 0.0
H844 H 0.80105 0.76129 0.96408 0.0
C845 C 0.81908 0.66253 0.96099 0.0
C846 C 0.84453 0.69051 0.97912 0.0
H847 H 0.76851 0.64805 0.92989 0.0
H848 H 0.82335 0.63468 0.96031 0.0
C849 C 0.83721 0.72606 0.9802 0.0
C850 C 0.48625 0.90505 0.1788 0.0
C851 C 0.44818 0.89843 0.18798 0.0
H852 H 0.53369 0.94161 0.15347 0.0
C853 C 0.42889 0.92606 0.17826 0.0
H854 H 0.50203 0.88442 0.1852 0.0
C855 C 0.44733 0.95942 0.16028 0.0
C856 C 0.48538 0.96567 0.15092 0.0
H857 H 0.3996 0.92205 0.185 0.0
H858 H 0.43176 0.98007 0.15326 0.0
C859 C 0.50444 0.93795 0.16038 0.0
C860 C 0.04267 0.20523 0.69864 0.0
C861 C 0.08125 0.21672 0.69726 0.0
H862 H 0.99641 0.16337 0.68294 0.0
C863 C 0.10259 0.19179 0.68276 0.0
H864 H 0.02525 0.22354 0.7095 0.0
C865 C 0.08615 0.15793 0.66693 0.0
C866 C 0.04778 0.14728 0.66617 0.0
H867 H 0.13232 0.19885 0.68241 0.0
H868 H 0.10362 0.14035 0.65425 0.0
C869 C 0.0261 0.17073 0.68342 0.0
C870 C 0.68091 0.37351 0.63268 0.0
C871 C 0.71674 0.38526 0.61589 0.0
H872 H 0.62526 0.38114 0.63423 0.0
C873 C 0.72559 0.41927 0.59566 0.0
H874 H 0.6734 0.34746 0.64854 0.0
C875 C 0.698 0.43839 0.58717 0.0
C876 C 0.66121 0.42377 0.59884 0.0
H877 H 0.75285 0.42892 0.58205 0.0
H878 H 0.70495 0.4626 0.56799 0.0
C879 C 0.65329 0.39248 0.62396 0.0
loop_
_geom_bond_atom_site_label_1
_geom_bond_atom_site_label_2
_geom_bond_distance
_geom_bond_site_symmetry_2
_ccdc_geom_bond_type
C0 C1 1.391 . S
C0 C4 1.391 . S
C0 H42 0.948 . S
C1 C0 1.391 . S
C1 C2 1.391 . S
C2 C1 1.391 . S
C2 H58 0.947 . S
C2 C59 1.392 . S
C3 C4 1.391 . S
C3 C7 1.397 . S
C3 C59 1.419 . S
C4 C0 1.391 . S
C4 C3 1.391 . S
C4 C5 1.399 . S
C5 C4 1.399 . S
C5 C8 1.396 . S
C5 C17 1.453 . S
C5 C18 1.684 . S
H6 C30 0.948 . S
C7 C3 1.397 . S
C7 C8 1.394 . S
C7 C26 1.723 . S
C8 C5 1.396 . S
C8 C7 1.394 . S
C8 C38 1.723 . S
H9 C32 0.947 . S
H10 C33 0.948 . S
H11 C39 0.982 . S
H12 C40 0.979 . S
H13 C40 0.980 . S
H14 C40 0.983 . S
H15 C39 0.979 . S
H16 C39 0.977 . S
C17 C5 1.453 . S
C17 H46 0.982 . S
C17 H47 0.979 . S
C17 H48 0.977 . S
C18 C5 1.684 . S
C18 H43 0.979 . S
C18 H44 0.980 . S
C18 H45 0.983 . S
C19 C20 1.391 . S
C19 C24 1.391 . S
C19 H49 0.948 . S
C20 C19 1.391 . S
C20 C21 1.391 . S
C21 C20 1.391 . S
C21 C22 1.392 . S
C21 H50 0.947 . S
C22 C21 1.392 . S
C22 C23 1.419 . S
C22 H51 0.948 . S
C23 C22 1.419 . S
C23 C24 1.391 . S
C23 C27 1.397 . S
C24 C19 1.391 . S
C24 C23 1.391 . S
C24 C25 1.399 . S
C25 C24 1.399 . S
C25 C26 1.396 . S
C25 C28 1.453 . S
C25 C29 1.684 . S
C26 C7 1.723 . S
C26 C25 1.396 . S
C26 C27 1.394 . S
C27 C23 1.397 . S
C27 C26 1.394 . S
C27 C37 1.723 . S
C28 C25 1.453 . S
C28 H52 0.982 . S
C28 H53 0.979 . S
C28 H54 0.977 . S
C29 C25 1.684 . S
C29 H55 0.979 . S
C29 H56 0.980 . S
C29 H57 0.983 . S
C30 H6 0.948 . S
C30 C31 1.391 . S
C30 C35 1.391 . S
C31 C30 1.391 . S
C31 C32 1.391 . S
C32 H9 0.947 . S
C32 C31 1.391 . S
C32 C33 1.392 . S
C33 H10 0.948 . S
C33 C32 1.392 . S
C33 C34 1.419 . S
C34 C33 1.419 . S
C34 C35 1.391 . S
C34 C38 1.397 . S
C35 C30 1.391 . S
C35 C34 1.391 . S
C35 C36 1.399 . S
C36 C35 1.399 . S
C36 C37 1.396 . S
C36 C39 1.453 . S
C36 C40 1.684 . S
C37 C27 1.723 . S
C37 C36 1.396 . S
C37 C38 1.394 . S
C38 C8 1.723 . S
C38 C34 1.397 . S
C38 C37 1.394 . S
C39 H11 0.982 . S
C39 H15 0.979 . S
C39 H16 0.977 . S
C39 C36 1.453 . S
C40 H12 0.979 . S
C40 H13 0.980 . S
C40 H14 0.983 . S
C40 C36 1.684 . S
H41 C59 0.948 . S
H42 C0 0.948 . S
H43 C18 0.979 . S
H44 C18 0.980 . S
H45 C18 0.983 . S
H46 C17 0.982 . S
H47 C17 0.979 . S
H48 C17 0.977 . S
H49 C19 0.948 . S
H50 C21 0.947 . S
H51 C22 0.948 . S
H52 C28 0.982 . S
H53 C28 0.979 . S
H54 C28 0.977 . S
H55 C29 0.979 . S
H56 C29 0.980 . S
H57 C29 0.983 . S
H58 C2 0.947 . S
C59 C2 1.392 . S
C59 C3 1.419 . S
C59 H41 0.948 . S
C60 C61 1.391 . S
C60 C64 1.391 . S
C60 H102 0.948 . S
C61 C60 1.391 . S
C61 C62 1.391 . S
C62 C61 1.391 . S
C62 H118 0.947 . S
C62 C119 1.392 . S
C63 C64 1.391 . S
C63 C67 1.397 . S
C63 C119 1.419 . S
C64 C60 1.391 . S
C64 C63 1.391 . S
C64 C65 1.399 . S
C65 C64 1.399 . S
C65 C68 1.396 . S
C65 C77 1.453 . S
C65 C78 1.684 . S
H66 C90 0.948 . S
C67 C63 1.397 . S
C67 C68 1.394 . S
C67 C86 1.723 . S
C68 C65 1.396 . S
C68 C67 1.394 . S
C68 C98 1.723 . S
H69 C92 0.947 . S
H70 C93 0.948 . S
H71 C99 0.982 . S
H72 C100 0.979 . S
H73 C100 0.980 . S
H74 C100 0.983 . S
H75 C99 0.979 . S
H76 C99 0.977 . S
C77 C65 1.453 . S
C77 H106 0.982 . S
C77 H107 0.979 . S
C77 H108 0.977 . S
C78 C65 1.684 . S
C78 H103 0.979 . S
C78 H104 0.980 . S
C78 H105 0.983 . S
C79 C80 1.391 . S
C79 C84 1.391 . S
C79 H109 0.948 . S
C80 C79 1.391 . S
C80 C81 1.391 . S
C81 C80 1.391 . S
C81 C82 1.392 . S
C81 H110 0.947 . S
C82 C81 1.392 . S
C82 C83 1.419 . S
C82 H111 0.948 . S
C83 C82 1.419 . S
C83 C84 1.391 . S
C83 C87 1.397 . S
C84 C79 1.391 . S
C84 C83 1.391 . S
C84 C85 1.399 . S
C85 C84 1.399 . S
C85 C86 1.396 . S
C85 C88 1.453 . S
C85 C89 1.684 . S
C86 C67 1.723 . S
C86 C85 1.396 . S
C86 C87 1.394 . S
C87 C83 1.397 . S
C87 C86 1.394 . S
C87 C97 1.723 . S
C88 C85 1.453 . S
C88 H112 0.982 . S
C88 H113 0.979 . S
C88 H114 0.977 . S
C89 C85 1.684 . S
C89 H115 0.979 . S
C89 H116 0.980 . S
C89 H117 0.983 . S
C90 H66 0.948 . S
C90 C91 1.391 . S
C90 C95 1.391 . S
C91 C90 1.391 . S
C91 C92 1.391 . S
C92 H69 0.947 . S
C92 C91 1.391 . S
C92 C93 1.392 . S
C93 H70 0.948 . S
C93 C92 1.392 . S
C93 C94 1.419 . S
C94 C93 1.419 . S
C94 C95 1.391 . S
C94 C98 1.397 . S
C95 C90 1.391 . S
C95 C94 1.391 . S
C95 C96 1.399 . S
C96 C95 1.399 . S
C96 C97 1.396 . S
C96 C99 1.453 . S
C96 C100 1.684 . S
C97 C87 1.723 . S
C97 C96 1.396 . S
C97 C98 1.394 . S
C98 C68 1.723 . S
C98 C94 1.397 . S
C98 C97 1.394 . S
C99 H71 0.982 . S
C99 H75 0.979 . S
C99 H76 0.977 . S
C99 C96 1.453 . S
C100 H72 0.979 . S
C100 H73 0.980 . S
C100 H74 0.983 . S
C100 C96 1.684 . S
H101 C119 0.948 . S
H102 C60 0.948 . S
H103 C78 0.979 . S
H104 C78 0.980 . S
H105 C78 0.983 . S
H106 C77 0.982 . S
H107 C77 0.979 . S
H108 C77 0.977 . S
H109 C79 0.948 . S
H110 C81 0.947 . S
H111 C82 0.948 . S
H112 C88 0.982 . S
H113 C88 0.979 . S
H114 C88 0.977 . S
H115 C89 0.979 . S
H116 C89 0.980 . S
H117 C89 0.983 . S
H118 C62 0.947 . S
C119 C62 1.392 . S
C119 C63 1.419 . S
C119 H101 0.948 . S
C120 C121 1.391 . S
C120 C124 1.391 . S
C120 H162 0.948 . S
C121 C120 1.391 . S
C121 C122 1.391 . S
C122 C121 1.391 . S
C122 H178 0.947 . S
C122 C179 1.392 . S
C123 C124 1.391 . S
C123 C127 1.397 . S
C123 C179 1.419 . S
C124 C120 1.391 . S
C124 C123 1.391 . S
C124 C125 1.399 . S
C125 C124 1.399 . S
C125 C128 1.396 . S
C125 C137 1.453 . S
C125 C138 1.684 . S
H126 C150 0.948 . S
C127 C123 1.397 . S
C127 C128 1.394 . S
C127 C146 1.723 . S
C128 C125 1.396 . S
C128 C127 1.394 . S
C128 C158 1.723 . S
H129 C152 0.947 . S
H130 C153 0.948 . S
H131 C159 0.982 . S
H132 C160 0.979 . S
H133 C160 0.980 . S
H134 C160 0.983 . S
H135 C159 0.979 . S
H136 C159 0.977 . S
C137 C125 1.453 . S
C137 H166 0.982 . S
C137 H167 0.979 . S
C137 H168 0.977 . S
C138 C125 1.684 . S
C138 H163 0.979 . S
C138 H164 0.980 . S
C138 H165 0.983 . S
C139 C140 1.391 . S
C139 C144 1.391 . S
C139 H169 0.948 . S
C140 C139 1.391 . S
C140 C141 1.391 . S
C141 C140 1.391 . S
C141 C142 1.392 . S
C141 H170 0.947 . S
C142 C141 1.392 . S
C142 C143 1.419 . S
C142 H171 0.948 . S
C143 C142 1.419 . S
C143 C144 1.391 . S
C143 C147 1.397 . S
C144 C139 1.391 . S
C144 C143 1.391 . S
C144 C145 1.399 . S
C145 C144 1.399 . S
C145 C146 1.396 . S
C145 C148 1.453 . S
C145 C149 1.684 . S
C146 C127 1.723 . S
C146 C145 1.396 . S
C146 C147 1.394 . S
C147 C143 1.397 . S
C147 C146 1.394 . S
C147 C157 1.723 . S
C148 C145 1.453 . S
C148 H172 0.982 . S
C148 H173 0.979 . S
C148 H174 0.977 . S
C149 C145 1.684 . S
C149 H175 0.979 . S
C149 H176 0.980 . S
C149 H177 0.983 . S
C150 H126 0.948 . S
C150 C151 1.391 . S
C150 C155 1.391 . S
C151 C150 1.391 . S
C151 C152 1.391 . S
C152 H129 0.947 . S
C152 C151 1.391 . S
C152 C153 1.392 . S
C153 H130 0.948 . S
C153 C152 1.392 . S
C153 C154 1.419 . S
C154 C153 1.419 . S
C154 C155 1.391 . S
C154 C158 1.397 . S
C155 C150 1.391 . S
C155 C154 1.391 . S
C155 C156 1.399 . S
C156 C155 1.399 . S
C156 C157 1.396 . S
C156 C159 1.453 . S
C156 C160 1.684 . S
C157 C147 1.723 . S
C157 C156 1.396 . S
C157 C158 1.394 . S
C158 C128 1.723 . S
C158 C154 1.397 . S
C158 C157 1.394 . S
C159 H131 0.982 . S
C159 H135 0.979 . S
C159 H136 0.977 . S
C159 C156 1.453 . S
C160 H132 0.979 . S
C160 H133 0.980 . S
C160 H134 0.983 . S
C160 C156 1.684 . S
H161 C179 0.948 . S
H162 C120 0.948 . S
H163 C138 0.979 . S
H164 C138 0.980 . S
H165 C138 0.983 . S
H166 C137 0.982 . S
H167 C137 0.979 . S
H168 C137 0.977 . S
H169 C139 0.948 . S
H170 C141 0.947 . S
H171 C142 0.948 . S
H172 C148 0.982 . S
H173 C148 0.979 . S
H174 C148 0.977 . S
H175 C149 0.979 . S
H176 C149 0.980 . S
H177 C149 0.983 . S
H178 C122 0.947 . S
C179 C122 1.392 . S
C179 C123 1.419 . S
C179 H161 0.948 . S
C180 C181 1.391 . S
C180 C184 1.391 . S
C180 H222 0.948 . S
C181 C180 1.391 . S
C181 C182 1.391 . S
C182 C181 1.391 . S
C182 H238 0.947 . S
C182 C239 1.392 . S
C183 C184 1.391 . S
C183 C187 1.397 . S
C183 C239 1.419 . S
C184 C180 1.391 . S
C184 C183 1.391 . S
C184 C185 1.399 . S
C185 C184 1.399 . S
C185 C188 1.396 . S
C185 C197 1.453 . S
C185 C198 1.684 . S
H186 C210 0.948 . S
C187 C183 1.397 . S
C187 C188 1.394 . S
C187 C206 1.723 . S
C188 C185 1.396 . S
C188 C187 1.394 . S
C188 C218 1.723 . S
H189 C212 0.947 . S
H190 C213 0.948 . S
H191 C219 0.982 . S
H192 C220 0.979 . S
H193 C220 0.980 . S
H194 C220 0.983 . S
H195 C219 0.979 . S
H196 C219 0.977 . S
C197 C185 1.453 . S
C197 H226 0.982 . S
C197 H227 0.979 . S
C197 H228 0.977 . S
C198 C185 1.684 . S
C198 H223 0.979 . S
C198 H224 0.980 . S
C198 H225 0.983 . S
C199 C200 1.391 . S
C199 C204 1.391 . S
C199 H229 0.948 . S
C200 C199 1.391 . S
C200 C201 1.391 . S
C201 C200 1.391 . S
C201 C202 1.392 . S
C201 H230 0.947 . S
C202 C201 1.392 . S
C202 C203 1.419 . S
C202 H231 0.948 . S
C203 C202 1.419 . S
C203 C204 1.391 . S
C203 C207 1.397 . S
C204 C199 1.391 . S
C204 C203 1.391 . S
C204 C205 1.399 . S
C205 C204 1.399 . S
C205 C206 1.396 . S
C205 C208 1.453 . S
C205 C209 1.684 . S
C206 C187 1.723 . S
C206 C205 1.396 . S
C206 C207 1.394 . S
C207 C203 1.397 . S
C207 C206 1.394 . S
C207 C217 1.723 . S
C208 C205 1.453 . S
C208 H232 0.982 . S
C208 H233 0.979 . S
C208 H234 0.977 . S
C209 C205 1.684 . S
C209 H235 0.979 . S
C209 H236 0.980 . S
C209 H237 0.983 . S
C210 H186 0.948 . S
C210 C211 1.391 . S
C210 C215 1.391 . S
C211 C210 1.391 . S
C211 C212 1.391 . S
C212 H189 0.947 . S
C212 C211 1.391 . S
C212 C213 1.392 . S
C213 H190 0.948 . S
C213 C212 1.392 . S
C213 C214 1.419 . S
C214 C213 1.419 . S
C214 C215 1.391 . S
C214 C218 1.397 . S
C215 C210 1.391 . S
C215 C214 1.391 . S
C215 C216 1.399 . S
C216 C215 1.399 . S
C216 C217 1.396 . S
C216 C219 1.453 . S
C216 C220 1.684 . S
C217 C207 1.723 . S
C217 C216 1.396 . S
C217 C218 1.394 . S
C218 C188 1.723 . S
C218 C214 1.397 . S
C218 C217 1.394 . S
C219 H191 0.982 . S
C219 H195 0.979 . S
C219 H196 0.977 . S
C219 C216 1.453 . S
C220 H192 0.979 . S
C220 H193 0.980 . S
C220 H194 0.983 . S
C220 C216 1.684 . S
H221 C239 0.948 . S
H222 C180 0.948 . S
H223 C198 0.979 . S
H224 C198 0.980 . S
H225 C198 0.983 . S
H226 C197 0.982 . S
H227 C197 0.979 . S
H228 C197 0.977 . S
H229 C199 0.948 . S
H230 C201 0.947 . S
H231 C202 0.948 . S
H232 C208 0.982 . S
H233 C208 0.979 . S
H234 C208 0.977 . S
H235 C209 0.979 . S
H236 C209 0.980 . S
H237 C209 0.983 . S
H238 C182 0.947 . S
C239 C182 1.392 . S
C239 C183 1.419 . S
C239 H221 0.948 . S
C240 C241 1.391 . S
C240 C244 1.391 . S
C240 H282 0.948 . S
C241 C240 1.391 . S
C241 C242 1.391 . S
C242 C241 1.391 . S
C242 H298 0.947 . S
C242 C299 1.392 . S
C243 C244 1.391 . S
C243 C247 1.397 . S
C243 C299 1.419 . S
C244 C240 1.391 . S
C244 C243 1.391 . S
C244 C245 1.399 . S
C245 C244 1.399 . S
C245 C248 1.396 . S
C245 C257 1.453 . S
C245 C258 1.684 . S
H246 C270 0.948 . S
C247 C243 1.397 . S
C247 C248 1.394 . S
C247 C266 1.723 . S
C248 C245 1.396 . S
C248 C247 1.394 . S
C248 C278 1.723 . S
H249 C272 0.947 . S
H250 C273 0.948 . S
H251 C279 0.982 . S
H252 C280 0.979 . S
H253 C280 0.980 . S
H254 C280 0.983 . S
H255 C279 0.979 . S
H256 C279 0.977 . S
C257 C245 1.453 . S
C257 H286 0.982 . S
C257 H287 0.979 . S
C257 H288 0.977 . S
C258 C245 1.684 . S
C258 H283 0.979 . S
C258 H284 0.980 . S
C258 H285 0.983 . S
C259 C260 1.391 . S
C259 C264 1.391 . S
C259 H289 0.948 . S
C260 C259 1.391 . S
C260 C261 1.391 . S
C261 C260 1.391 . S
C261 C262 1.392 . S
C261 H290 0.947 . S
C262 C261 1.392 . S
C262 C263 1.419 . S
C262 H291 0.948 . S
C263 C262 1.419 . S
C263 C264 1.391 . S
C263 C267 1.397 . S
C264 C259 1.391 . S
C264 C263 1.391 . S
C264 C265 1.399 . S
C265 C264 1.399 . S
C265 C266 1.396 . S
C265 C268 1.453 . S
C265 C269 1.684 . S
C266 C247 1.723 . S
C266 C265 1.396 . S
C266 C267 1.394 . S
C267 C263 1.397 . S
C267 C266 1.394 . S
C267 C277 1.723 . S
C268 C265 1.453 . S
C268 H292 0.982 . S
C268 H293 0.979 . S
C268 H294 0.977 . S
C269 C265 1.684 . S
C269 H295 0.979 . S
C269 H296 0.980 . S
C269 H297 0.983 . S
C270 H246 0.948 . S
C270 C271 1.391 . S
C270 C275 1.391 . S
C271 C270 1.391 . S
C271 C272 1.391 . S
C272 H249 0.947 . S
C272 C271 1.391 . S
C272 C273 1.392 . S
C273 H250 0.948 . S
C273 C272 1.392 . S
C273 C274 1.419 . S
C274 C273 1.419 . S
C274 C275 1.391 . S
C274 C278 1.397 . S
C275 C270 1.391 . S
C275 C274 1.391 . S
C275 C276 1.399 . S
C276 C275 1.399 . S
C276 C277 1.396 . S
C276 C279 1.453 . S
C276 C280 1.684 . S
C277 C267 1.723 . S
C277 C276 1.396 . S
C277 C278 1.394 . S
C278 C248 1.723 . S
C278 C274 1.397 . S
C278 C277 1.394 . S
C279 H251 0.982 . S
C279 H255 0.979 . S
C279 H256 0.977 . S
C279 C276 1.453 . S
C280 H252 0.979 . S
C280 H253 0.980 . S
C280 H254 0.983 . S
C280 C276 1.684 . S
H281 C299 0.948 . S
H282 C240 0.948 . S
H283 C258 0.979 . S
H284 C258 0.980 . S
H285 C258 0.983 . S
H286 C257 0.982 . S
H287 C257 0.979 . S
H288 C257 0.977 . S
H289 C259 0.948 . S
H290 C261 0.947 . S
H291 C262 0.948 . S
H292 C268 0.982 . S
H293 C268 0.979 . S
H294 C268 0.977 . S
H295 C269 0.979 . S
H296 C269 0.980 . S
H297 C269 0.983 . S
H298 C242 0.947 . S
C299 C242 1.392 . S
C299 C243 1.419 . S
C299 H281 0.948 . S
C300 C301 1.391 . S
C300 C304 1.391 . S
C300 H342 0.948 . S
C301 C300 1.391 . S
C301 C302 1.391 . S
C302 C301 1.391 . S
C302 H358 0.947 . S
C302 C359 1.392 . S
C303 C304 1.391 . S
C303 C307 1.397 . S
C303 C359 1.419 . S
C304 C300 1.391 . S
C304 C303 1.391 . S
C304 C305 1.399 . S
C305 C304 1.399 . S
C305 C308 1.396 . S
C305 C317 1.453 . S
C305 C318 1.684 . S
H306 C330 0.948 . S
C307 C303 1.397 . S
C307 C308 1.394 . S
C307 C326 1.723 . S
C308 C305 1.396 . S
C308 C307 1.394 . S
C308 C338 1.723 . S
H309 C332 0.947 . S
H310 C333 0.948 . S
H311 C339 0.982 . S
H312 C340 0.979 . S
H313 C340 0.980 . S
H314 C340 0.983 . S
H315 C339 0.979 . S
H316 C339 0.977 . S
C317 C305 1.453 . S
C317 H346 0.982 . S
C317 H347 0.979 . S
C317 H348 0.977 . S
C318 C305 1.684 . S
C318 H343 0.979 . S
C318 H344 0.980 . S
C318 H345 0.983 . S
C319 C320 1.391 . S
C319 C324 1.391 . S
C319 H349 0.948 . S
C320 C319 1.391 . S
C320 C321 1.391 . S
C321 C320 1.391 . S
C321 C322 1.392 . S
C321 H350 0.947 . S
C322 C321 1.392 . S
C322 C323 1.419 . S
C322 H351 0.948 . S
C323 C322 1.419 . S
C323 C324 1.391 . S
C323 C327 1.397 . S
C324 C319 1.391 . S
C324 C323 1.391 . S
C324 C325 1.399 . S
C325 C324 1.399 . S
C325 C326 1.396 . S
C325 C328 1.453 . S
C325 C329 1.684 . S
C326 C307 1.723 . S
C326 C325 1.396 . S
C326 C327 1.394 . S
C327 C323 1.397 . S
C327 C326 1.394 . S
C327 C337 1.723 . S
C328 C325 1.453 . S
C328 H352 0.982 . S
C328 H353 0.979 . S
C328 H354 0.977 . S
C329 C325 1.684 . S
C329 H355 0.979 . S
C329 H356 0.980 . S
C329 H357 0.983 . S
C330 H306 0.948 . S
C330 C331 1.391 . S
C330 C335 1.391 . S
C331 C330 1.391 . S
C331 C332 1.391 . S
C332 H309 0.947 . S
C332 C331 1.391 . S
C332 C333 1.392 . S
C333 H310 0.948 . S
C333 C332 1.392 . S
C333 C334 1.419 . S
C334 C333 1.419 . S
C334 C335 1.391 . S
C334 C338 1.397 . S
C335 C330 1.391 . S
C335 C334 1.391 . S
C335 C336 1.399 . S
C336 C335 1.399 . S
C336 C337 1.396 . S
C336 C339 1.453 . S
C336 C340 1.684 . S
C337 C327 1.723 . S
C337 C336 1.396 . S
C337 C338 1.394 . S
C338 C308 1.723 . S
C338 C334 1.397 . S
C338 C337 1.394 . S
C339 H311 0.982 . S
C339 H315 0.979 . S
C339 H316 0.977 . S
C339 C336 1.453 . S
C340 H312 0.979 . S
C340 H313 0.980 . S
C340 H314 0.983 . S
C340 C336 1.684 . S
H341 C359 0.948 . S
H342 C300 0.948 . S
H343 C318 0.979 . S
H344 C318 0.980 . S
H345 C318 0.983 . S
H346 C317 0.982 . S
H347 C317 0.979 . S
H348 C317 0.977 . S
H349 C319 0.948 . S
H350 C321 0.947 . S
H351 C322 0.948 . S
H352 C328 0.982 . S
H353 C328 0.979 . S
H354 C328 0.977 . S
H355 C329 0.979 . S
H356 C329 0.980 . S
H357 C329 0.983 . S
H358 C302 0.947 . S
C359 C302 1.392 . S
C359 C303 1.419 . S
C359 H341 0.948 . S
C360 C361 1.391 . S
C360 C364 1.391 . S
C360 H402 0.948 . S
C361 C360 1.391 . S
C361 C362 1.391 . S
C362 C361 1.391 . S
C362 H418 0.947 . S
C362 C419 1.392 . S
C363 C364 1.391 . S
C363 C367 1.397 . S
C363 C419 1.419 . S
C364 C360 1.391 . S
C364 C363 1.391 . S
C364 C365 1.399 . S
C365 C364 1.399 . S
C365 C368 1.396 . S
C365 C377 1.453 . S
C365 C378 1.684 . S
H366 C390 0.948 . S
C367 C363 1.397 . S
C367 C368 1.394 . S
C367 C386 1.723 . S
C368 C365 1.396 . S
C368 C367 1.394 . S
C368 C398 1.723 . S
H369 C392 0.947 . S
H370 C393 0.948 . S
H371 C399 0.982 . S
H372 C400 0.979 . S
H373 C400 0.980 . S
H374 C400 0.983 . S
H375 C399 0.979 . S
H376 C399 0.977 . S
C377 C365 1.453 . S
C377 H406 0.982 . S
C377 H407 0.979 . S
C377 H408 0.977 . S
C378 C365 1.684 . S
C378 H403 0.979 . S
C378 H404 0.980 . S
C378 H405 0.983 . S
C379 C380 1.391 . S
C379 C384 1.391 . S
C379 H409 0.948 . S
C380 C379 1.391 . S
C380 C381 1.391 . S
C381 C380 1.391 . S
C381 C382 1.392 . S
C381 H410 0.947 . S
C382 C381 1.392 . S
C382 C383 1.419 . S
C382 H411 0.948 . S
C383 C382 1.419 . S
C383 C384 1.391 . S
C383 C387 1.397 . S
C384 C379 1.391 . S
C384 C383 1.391 . S
C384 C385 1.399 . S
C385 C384 1.399 . S
C385 C386 1.396 . S
C385 C388 1.453 . S
C385 C389 1.684 . S
C386 C367 1.723 . S
C386 C385 1.396 . S
C386 C387 1.394 . S
C387 C383 1.397 . S
C387 C386 1.394 . S
C387 C397 1.723 . S
C388 C385 1.453 . S
C388 H412 0.982 . S
C388 H413 0.979 . S
C388 H414 0.977 . S
C389 C385 1.684 . S
C389 H415 0.979 . S
C389 H416 0.980 . S
C389 H417 0.983 . S
C390 H366 0.948 . S
C390 C391 1.391 . S
C390 C395 1.391 . S
C391 C390 1.391 . S
C391 C392 1.391 . S
C392 H369 0.947 . S
C392 C391 1.391 . S
C392 C393 1.392 . S
C393 H370 0.948 . S
C393 C392 1.392 . S
C393 C394 1.419 . S
C394 C393 1.419 . S
C394 C395 1.391 . S
C394 C398 1.397 . S
C395 C390 1.391 . S
C395 C394 1.391 . S
C395 C396 1.399 . S
C396 C395 1.399 . S
C396 C397 1.396 . S
C396 C399 1.453 . S
C396 C400 1.684 . S
C397 C387 1.723 . S
C397 C396 1.396 . S
C397 C398 1.394 . S
C398 C368 1.723 . S
C398 C394 1.397 . S
C398 C397 1.394 . S
C399 H371 0.982 . S
C399 H375 0.979 . S
C399 H376 0.977 . S
C399 C396 1.453 . S
C400 H372 0.979 . S
C400 H373 0.980 . S
C400 H374 0.983 . S
C400 C396 1.684 . S
H401 C419 0.948 . S
H402 C360 0.948 . S
H403 C378 0.979 . S
H404 C378 0.980 . S
H405 C378 0.983 . S
H406 C377 0.982 . S
H407 C377 0.979 . S
H408 C377 0.977 . S
H409 C379 0.948 . S
H410 C381 0.947 . S
H411 C382 0.948 . S
H412 C388 0.982 . S
H413 C388 0.979 . S
H414 C388 0.977 . S
H415 C389 0.979 . S
H416 C389 0.980 . S
H417 C389 0.983 . S
H418 C362 0.947 . S
C419 C362 1.392 . S
C419 C363 1.419 . S
C419 H401 0.948 . S
C420 C421 1.391 . S
C420 C424 1.391 . S
C420 H462 0.948 . S
C421 C420 1.391 . S
C421 C422 1.391 . S
C422 C421 1.391 . S
C422 H478 0.947 . S
C422 C479 1.392 . S
C423 C424 1.391 . S
C423 C427 1.397 . S
C423 C479 1.419 . S
C424 C420 1.391 . S
C424 C423 1.391 . S
C424 C425 1.399 . S
C425 C424 1.399 . S
C425 C428 1.396 . S
C425 C437 1.453 . S
C425 C438 1.684 . S
H426 C450 0.948 . S
C427 C423 1.397 . S
C427 C428 1.394 . S
C427 C446 1.723 . S
C428 C425 1.396 . S
C428 C427 1.394 . S
C428 C458 1.723 . S
H429 C452 0.947 . S
H430 C453 0.948 . S
H431 C459 0.982 . S
H432 C460 0.979 . S
H433 C460 0.980 . S
H434 C460 0.983 . S
H435 C459 0.979 . S
H436 C459 0.977 . S
C437 C425 1.453 . S
C437 H466 0.982 . S
C437 H467 0.979 . S
C437 H468 0.977 . S
C438 C425 1.684 . S
C438 H463 0.979 . S
C438 H464 0.980 . S
C438 H465 0.983 . S
C439 C440 1.391 . S
C439 C444 1.391 . S
C439 H469 0.948 . S
C440 C439 1.391 . S
C440 C441 1.391 . S
C441 C440 1.391 . S
C441 C442 1.392 . S
C441 H470 0.947 . S
C442 C441 1.392 . S
C442 C443 1.419 . S
C442 H471 0.948 . S
C443 C442 1.419 . S
C443 C444 1.391 . S
C443 C447 1.397 . S
C444 C439 1.391 . S
C444 C443 1.391 . S
C444 C445 1.399 . S
C445 C444 1.399 . S
C445 C446 1.396 . S
C445 C448 1.453 . S
C445 C449 1.684 . S
C446 C427 1.723 . S
C446 C445 1.396 . S
C446 C447 1.394 . S
C447 C443 1.397 . S
C447 C446 1.394 . S
C447 C457 1.723 . S
C448 C445 1.453 . S
C448 H472 0.982 . S
C448 H473 0.979 . S
C448 H474 0.977 . S
C449 C445 1.684 . S
C449 H475 0.979 . S
C449 H476 0.980 . S
C449 H477 0.983 . S
C450 H426 0.948 . S
C450 C451 1.391 . S
C450 C455 1.391 . S
C451 C450 1.391 . S
C451 C452 1.391 . S
C452 H429 0.947 . S
C452 C451 1.391 . S
C452 C453 1.392 . S
C453 H430 0.948 . S
C453 C452 1.392 . S
C453 C454 1.419 . S
C454 C453 1.419 . S
C454 C455 1.391 . S
C454 C458 1.397 . S
C455 C450 1.391 . S
C455 C454 1.391 . S
C455 C456 1.399 . S
C456 C455 1.399 . S
C456 C457 1.396 . S
C456 C459 1.453 . S
C456 C460 1.684 . S
C457 C447 1.723 . S
C457 C456 1.396 . S
C457 C458 1.394 . S
C458 C428 1.723 . S
C458 C454 1.397 . S
C458 C457 1.394 . S
C459 H431 0.982 . S
C459 H435 0.979 . S
C459 H436 0.977 . S
C459 C456 1.453 . S
C460 H432 0.979 . S
C460 H433 0.980 . S
C460 H434 0.983 . S
C460 C456 1.684 . S
H461 C479 0.948 . S
H462 C420 0.948 . S
H463 C438 0.979 . S
H464 C438 0.980 . S
H465 C438 0.983 . S
H466 C437 0.982 . S
H467 C437 0.979 . S
H468 C437 0.977 . S
H469 C439 0.948 . S
H470 C441 0.947 . S
H471 C442 0.948 . S
H472 C448 0.982 . S
H473 C448 0.979 . S
H474 C448 0.977 . S
H475 C449 0.979 . S
H476 C449 0.980 . S
H477 C449 0.983 . S
H478 C422 0.947 . S
C479 C422 1.392 . S
C479 C423 1.419 . S
C479 H461 0.948 . S
Sm480 C482 2.846 . S
Sm480 O500 2.543 . S
Sm480 O501 2.450 . S
Sm480 O502 2.681 1_545 S
Sm480 O503 2.464 1_545 S
Sm480 O504 2.396 . S
Sm480 O508 2.386 1_455 S
Sm480 O511 2.408 1_445 S
Sm481 C491 2.846 . S
Sm481 O502 2.386 1_655 S
Sm481 O505 2.408 1_665 S
Sm481 O506 2.543 . S
Sm481 O507 2.450 . S
Sm481 O508 2.681 1_565 S
Sm481 O509 2.464 1_565 S
Sm481 O510 2.396 . S
C482 Sm480 2.846 . S
C482 C483 1.506 . S
C482 O500 1.261 . S
C482 O501 1.242 . S
C483 C482 1.506 . S
C483 C484 1.358 . S
C483 C488 1.382 . S
C484 C483 1.358 . S
C484 C485 1.385 . S
C484 H512 0.930 . S
C485 C484 1.385 . S
C485 C486 1.395 . S
C485 H513 0.929 . S
C486 C485 1.395 . S
C486 C487 1.335 . S
C487 C486 1.335 . S
C487 C488 1.398 . S
C487 H514 0.930 . S
C488 C483 1.382 . S
C488 C487 1.398 . S
C488 H515 0.929 . S
C489 O502 1.271 . S
C489 O503 1.251 . S
C490 O504 1.252 . S
C490 O505 1.272 . S
C491 Sm481 2.846 . S
C491 C492 1.506 . S
C491 O506 1.261 . S
C491 O507 1.242 . S
C492 C491 1.506 . S
C492 C493 1.358 . S
C492 C497 1.382 . S
C493 C492 1.358 . S
C493 C494 1.385 . S
C493 H516 0.930 . S
C494 C493 1.385 . S
C494 C495 1.395 . S
C494 H517 0.929 . S
C495 C494 1.395 . S
C495 C496 1.335 . S
C496 C495 1.335 . S
C496 C497 1.398 . S
C496 H518 0.930 . S
C497 C492 1.382 . S
C497 C496 1.398 . S
C497 H519 0.929 . S
C498 O508 1.271 . S
C498 O509 1.251 . S
C499 O510 1.252 . S
C499 O511 1.272 . S
O500 Sm480 2.543 . S
O500 C482 1.261 . S
O501 Sm480 2.450 . S
O501 C482 1.242 . S
O502 Sm480 2.681 1_565 S
O502 Sm481 2.386 1_455 S
O502 C489 1.271 . S
O503 Sm480 2.464 1_565 S
O503 C489 1.251 . S
O504 Sm480 2.396 . S
O504 C490 1.252 . S
O505 Sm481 2.408 1_445 S
O505 C490 1.272 . S
O506 Sm481 2.543 . S
O506 C491 1.261 . S
O507 Sm481 2.450 . S
O507 C491 1.242 . S
O508 Sm480 2.386 1_655 S
O508 Sm481 2.681 1_545 S
O508 C498 1.271 . S
O509 Sm481 2.464 1_545 S
O509 C498 1.251 . S
O510 Sm481 2.396 . S
O510 C499 1.252 . S
O511 Sm480 2.408 1_665 S
O511 C499 1.272 . S
H512 C484 0.930 . S
H513 C485 0.929 . S
H514 C487 0.930 . S
H515 C488 0.929 . S
H516 C493 0.930 . S
H517 C494 0.929 . S
H518 C496 0.930 . S
H519 C497 0.929 . S
Sm520 C522 2.846 1_565 S
Sm520 O540 2.543 1_565 S
Sm520 O541 2.450 1_565 S
Sm520 O542 2.681 . S
Sm520 O543 2.464 . S
Sm520 O544 2.396 1_565 S
Sm520 O548 2.386 1_564 S
Sm520 O551 2.408 1_554 S
Sm521 C531 2.846 1_545 S
Sm521 O542 2.386 1_546 S
Sm521 O545 2.408 1_556 S
Sm521 O546 2.543 1_545 S
Sm521 O547 2.450 1_545 S
Sm521 O548 2.681 . S
Sm521 O549 2.464 . S
Sm521 O550 2.396 1_545 S
C522 Sm520 2.846 1_545 S
C522 C523 1.506 . S
C522 O540 1.261 . S
C522 O541 1.242 . S
C523 C522 1.506 . S
C523 C524 1.358 . S
C523 C528 1.382 . S
C524 C523 1.358 . S
C524 C525 1.385 . S
C524 H552 0.930 . S
C525 C524 1.385 . S
C525 C526 1.395 . S
C525 H553 0.929 . S
C526 C525 1.395 . S
C526 C527 1.335 . S
C527 C526 1.335 . S
C527 C528 1.398 . S
C527 H554 0.930 . S
C528 C523 1.382 . S
C528 C527 1.398 . S
C528 H555 0.929 . S
C529 O542 1.271 . S
C529 O543 1.251 . S
C530 O544 1.252 . S
C530 O545 1.272 . S
C531 Sm521 2.846 1_565 S
C531 C532 1.506 . S
C531 O546 1.261 . S
C531 O547 1.242 . S
C532 C531 1.506 . S
C532 C533 1.358 . S
C532 C537 1.382 . S
C533 C532 1.358 . S
C533 C534 1.385 . S
C533 H556 0.930 . S
C534 C533 1.385 . S
C534 C535 1.395 . S
C534 H557 0.929 . S
C535 C534 1.395 . S
C535 C536 1.335 . S
C536 C535 1.335 . S
C536 C537 1.398 . S
C536 H558 0.930 . S
C537 C532 1.382 . S
C537 C536 1.398 . S
C537 H559 0.929 . S
C538 O548 1.271 . S
C538 O549 1.251 . S
C539 O550 1.252 . S
C539 O551 1.272 . S
O540 Sm520 2.543 1_545 S
O540 C522 1.261 . S
O541 Sm520 2.450 1_545 S
O541 C522 1.242 . S
O542 Sm520 2.681 . S
O542 Sm521 2.386 1_564 S
O542 C529 1.271 . S
O543 Sm520 2.464 . S
O543 C529 1.251 . S
O544 Sm520 2.396 1_545 S
O544 C530 1.252 . S
O545 Sm521 2.408 1_554 S
O545 C530 1.272 . S
O546 Sm521 2.543 1_565 S
O546 C531 1.261 . S
O547 Sm521 2.450 1_565 S
O547 C531 1.242 . S
O548 Sm520 2.386 1_546 S
O548 Sm521 2.681 . S
O548 C538 1.271 . S
O549 Sm521 2.464 . S
O549 C538 1.251 . S
O550 Sm521 2.396 1_565 S
O550 C539 1.252 . S
O551 Sm520 2.408 1_556 S
O551 C539 1.272 . S
H552 C524 0.930 . S
H553 C525 0.929 . S
H554 C527 0.930 . S
H555 C528 0.929 . S
H556 C533 0.930 . S
H557 C534 0.929 . S
H558 C536 0.930 . S
H559 C537 0.929 . S
Sm560 C562 2.846 . S
Sm560 O580 2.543 . S
Sm560 O581 2.450 . S
Sm560 O582 2.681 . S
Sm560 O583 2.464 . S
Sm560 O584 2.396 . S
Sm560 O588 2.386 . S
Sm560 O591 2.408 . S
Sm561 C571 2.846 . S
Sm561 O582 2.386 . S
Sm561 O585 2.408 . S
Sm561 O586 2.543 . S
Sm561 O587 2.450 . S
Sm561 O588 2.681 . S
Sm561 O589 2.464 . S
Sm561 O590 2.396 . S
C562 Sm560 2.846 . S
C562 C563 1.506 . S
C562 O580 1.261 . S
C562 O581 1.242 . S
C563 C562 1.506 . S
C563 C564 1.358 . S
C563 C568 1.382 . S
C564 C563 1.358 . S
C564 C565 1.385 . S
C564 H592 0.930 . S
C565 C564 1.385 . S
C565 C566 1.395 . S
C565 H593 0.929 . S
C566 C565 1.395 . S
C566 C567 1.335 . S
C567 C566 1.335 . S
C567 C568 1.398 . S
C567 H594 0.930 . S
C568 C563 1.382 . S
C568 C567 1.398 . S
C568 H595 0.929 . S
C569 O582 1.271 . S
C569 O583 1.251 . S
C570 O584 1.252 . S
C570 O585 1.272 . S
C571 Sm561 2.846 . S
C571 C572 1.506 . S
C571 O586 1.261 . S
C571 O587 1.242 . S
C572 C571 1.506 . S
C572 C573 1.358 . S
C572 C577 1.382 . S
C573 C572 1.358 . S
C573 C574 1.385 . S
C573 H596 0.930 . S
C574 C573 1.385 . S
C574 C575 1.395 . S
C574 H597 0.929 . S
C575 C574 1.395 . S
C575 C576 1.335 . S
C576 C575 1.335 . S
C576 C577 1.398 . S
C576 H598 0.930 . S
C577 C572 1.382 . S
C577 C576 1.398 . S
C577 H599 0.929 . S
C578 O588 1.271 . S
C578 O589 1.251 . S
C579 O590 1.252 . S
C579 O591 1.272 . S
O580 Sm560 2.543 . S
O580 C562 1.261 . S
O581 Sm560 2.450 . S
O581 C562 1.242 . S
O582 Sm560 2.681 . S
O582 Sm561 2.386 . S
O582 C569 1.271 . S
O583 Sm560 2.464 . S
O583 C569 1.251 . S
O584 Sm560 2.396 . S
O584 C570 1.252 . S
O585 Sm561 2.408 . S
O585 C570 1.272 . S
O586 Sm561 2.543 . S
O586 C571 1.261 . S
O587 Sm561 2.450 . S
O587 C571 1.242 . S
O588 Sm560 2.386 . S
O588 Sm561 2.681 . S
O588 C578 1.271 . S
O589 Sm561 2.464 . S
O589 C578 1.251 . S
O590 Sm561 2.396 . S
O590 C579 1.252 . S
O591 Sm560 2.408 . S
O591 C579 1.272 . S
H592 C564 0.930 . S
H593 C565 0.929 . S
H594 C567 0.930 . S
H595 C568 0.929 . S
H596 C573 0.930 . S
H597 C574 0.929 . S
H598 C576 0.930 . S
H599 C577 0.929 . S
Sm600 C602 2.846 . S
Sm600 O620 2.543 . S
Sm600 O621 2.450 . S
Sm600 O622 2.681 1_455 S
Sm600 O623 2.464 1_455 S
Sm600 O624 2.396 . S
Sm600 O628 2.386 1_554 S
Sm600 O631 2.408 1_454 S
Sm601 C611 2.846 . S
Sm601 O622 2.386 1_556 S
Sm601 O625 2.408 1_656 S
Sm601 O626 2.543 . S
Sm601 O627 2.450 . S
Sm601 O628 2.681 1_655 S
Sm601 O629 2.464 1_655 S
Sm601 O630 2.396 . S
C602 Sm600 2.846 . S
C602 C603 1.506 . S
C602 O620 1.261 . S
C602 O621 1.242 . S
C603 C602 1.506 . S
C603 C604 1.358 . S
C603 C608 1.382 . S
C604 C603 1.358 . S
C604 C605 1.385 . S
C604 H632 0.930 . S
C605 C604 1.385 . S
C605 C606 1.395 . S
C605 H633 0.929 . S
C606 C605 1.395 . S
C606 C607 1.335 . S
C607 C606 1.335 . S
C607 C608 1.398 . S
C607 H634 0.930 . S
C608 C603 1.382 . S
C608 C607 1.398 . S
C608 H635 0.929 . S
C609 O622 1.271 . S
C609 O623 1.251 . S
C610 O624 1.252 . S
C610 O625 1.272 . S
C611 Sm601 2.846 . S
C611 C612 1.506 . S
C611 O626 1.261 . S
C611 O627 1.242 . S
C612 C611 1.506 . S
C612 C613 1.358 . S
C612 C617 1.382 . S
C613 C612 1.358 . S
C613 C614 1.385 . S
C613 H636 0.930 . S
C614 C613 1.385 . S
C614 C615 1.395 . S
C614 H637 0.929 . S
C615 C614 1.395 . S
C615 C616 1.335 . S
C616 C615 1.335 . S
C616 C617 1.398 . S
C616 H638 0.930 . S
C617 C612 1.382 . S
C617 C616 1.398 . S
C617 H639 0.929 . S
C618 O628 1.271 . S
C618 O629 1.251 . S
C619 O630 1.252 . S
C619 O631 1.272 . S
O620 Sm600 2.543 . S
O620 C602 1.261 . S
O621 Sm600 2.450 . S
O621 C602 1.242 . S
O622 Sm600 2.681 1_655 S
O622 Sm601 2.386 1_554 S
O622 C609 1.271 . S
O623 Sm600 2.464 1_655 S
O623 C609 1.251 . S
O624 Sm600 2.396 . S
O624 C610 1.252 . S
O625 Sm601 2.408 1_454 S
O625 C610 1.272 . S
O626 Sm601 2.543 . S
O626 C611 1.261 . S
O627 Sm601 2.450 . S
O627 C611 1.242 . S
O628 Sm600 2.386 1_556 S
O628 Sm601 2.681 1_455 S
O628 C618 1.271 . S
O629 Sm601 2.464 1_455 S
O629 C618 1.251 . S
O630 Sm601 2.396 . S
O630 C619 1.252 . S
O631 Sm600 2.408 1_656 S
O631 C619 1.272 . S
H632 C604 0.930 . S
H633 C605 0.929 . S
H634 C607 0.930 . S
H635 C608 0.929 . S
H636 C613 0.930 . S
H637 C614 0.929 . S
H638 C616 0.930 . S
H639 C617 0.929 . S
C640 C641 1.387 . S
C640 H644 0.950 . S
C640 C649 1.390 . S
C641 C640 1.387 . S
C641 C643 1.387 . S
H642 C649 0.950 . S
C643 C641 1.387 . S
C643 C645 1.390 . S
C643 H647 0.950 . S
H644 C640 0.950 . S
C645 C643 1.390 . S
C645 C646 1.387 . S
C645 H648 0.950 . S
C646 C645 1.387 . S
C646 C649 1.387 . S
H647 C643 0.950 . S
H648 C645 0.950 . S
C649 C640 1.390 . S
C649 H642 0.950 . S
C649 C646 1.387 . S
C650 C651 1.387 . S
C650 H654 0.950 . S
C650 C659 1.390 . S
C651 C650 1.387 . S
C651 C653 1.387 . S
H652 C659 0.950 . S
C653 C651 1.387 . S
C653 C655 1.390 . S
C653 H657 0.950 . S
H654 C650 0.950 . S
C655 C653 1.390 . S
C655 C656 1.387 . S
C655 H658 0.950 . S
C656 C655 1.387 . S
C656 C659 1.387 . S
H657 C653 0.950 . S
H658 C655 0.950 . S
C659 C650 1.390 . S
C659 H652 0.950 . S
C659 C656 1.387 . S
C660 C661 1.387 . S
C660 H664 0.950 . S
C660 C669 1.390 . S
C661 C660 1.387 . S
C661 C663 1.387 . S
H662 C669 0.950 . S
C663 C661 1.387 . S
C663 C665 1.390 . S
C663 H667 0.950 . S
H664 C660 0.950 . S
C665 C663 1.390 . S
C665 C666 1.387 . S
C665 H668 0.950 . S
C666 C665 1.387 . S
C666 C669 1.387 . S
H667 C663 0.950 . S
H668 C665 0.950 . S
C669 C660 1.390 . S
C669 H662 0.950 . S
C669 C666 1.387 . S
C670 C671 1.387 . S
C670 H674 0.950 . S
C670 C679 1.390 . S
C671 C670 1.387 . S
C671 C673 1.387 . S
H672 C679 0.950 . S
C673 C671 1.387 . S
C673 C675 1.390 . S
C673 H677 0.950 . S
H674 C670 0.950 . S
C675 C673 1.390 . S
C675 C676 1.387 . S
C675 H678 0.950 . S
C676 C675 1.387 . S
C676 C679 1.387 . S
H677 C673 0.950 . S
H678 C675 0.950 . S
C679 C670 1.390 . S
C679 H672 0.950 . S
C679 C676 1.387 . S
C680 C681 1.387 . S
C680 H684 0.950 . S
C680 C689 1.390 . S
C681 C680 1.387 . S
C681 C683 1.387 . S
H682 C689 0.950 . S
C683 C681 1.387 . S
C683 C685 1.390 . S
C683 H687 0.950 . S
H684 C680 0.950 . S
C685 C683 1.390 . S
C685 C686 1.387 . S
C685 H688 0.950 . S
C686 C685 1.387 . S
C686 C689 1.387 . S
H687 C683 0.950 . S
H688 C685 0.950 . S
C689 C680 1.390 . S
C689 H682 0.950 . S
C689 C686 1.387 . S
C690 C691 1.387 . S
C690 H694 0.950 . S
C690 C699 1.390 . S
C691 C690 1.387 . S
C691 C693 1.387 . S
H692 C699 0.950 . S
C693 C691 1.387 . S
C693 C695 1.390 . S
C693 H697 0.950 . S
H694 C690 0.950 . S
C695 C693 1.390 . S
C695 C696 1.387 . S
C695 H698 0.950 . S
C696 C695 1.387 . S
C696 C699 1.387 . S
H697 C693 0.950 . S
H698 C695 0.950 . S
C699 C690 1.390 . S
C699 H692 0.950 . S
C699 C696 1.387 . S
C700 C701 1.387 . S
C700 H704 0.950 . S
C700 C709 1.390 . S
C701 C700 1.387 . S
C701 C703 1.387 . S
H702 C709 0.950 . S
C703 C701 1.387 . S
C703 C705 1.390 . S
C703 H707 0.950 . S
H704 C700 0.950 . S
C705 C703 1.390 . S
C705 C706 1.387 . S
C705 H708 0.950 . S
C706 C705 1.387 . S
C706 C709 1.387 . S
H707 C703 0.950 . S
H708 C705 0.950 . S
C709 C700 1.390 . S
C709 H702 0.950 . S
C709 C706 1.387 . S
C710 C711 1.387 . S
C710 H714 0.950 . S
C710 C719 1.390 . S
C711 C710 1.387 . S
C711 C713 1.387 . S
H712 C719 0.950 . S
C713 C711 1.387 . S
C713 C715 1.390 . S
C713 H717 0.950 . S
H714 C710 0.950 . S
C715 C713 1.390 . S
C715 C716 1.387 . S
C715 H718 0.950 . S
C716 C715 1.387 . S
C716 C719 1.387 . S
H717 C713 0.950 . S
H718 C715 0.950 . S
C719 C710 1.390 . S
C719 H712 0.950 . S
C719 C716 1.387 . S
C720 C721 1.387 . S
C720 H724 0.950 . S
C720 C729 1.390 . S
C721 C720 1.387 . S
C721 C723 1.387 . S
H722 C729 0.950 . S
C723 C721 1.387 . S
C723 C725 1.390 . S
C723 H727 0.950 . S
H724 C720 0.950 . S
C725 C723 1.390 . S
C725 C726 1.387 . S
C725 H728 0.950 . S
C726 C725 1.387 . S
C726 C729 1.387 . S
H727 C723 0.950 . S
H728 C725 0.950 . S
C729 C720 1.390 . S
C729 H722 0.950 . S
C729 C726 1.387 . S
C730 C731 1.387 . S
C730 H734 0.950 . S
C730 C739 1.390 . S
C731 C730 1.387 . S
C731 C733 1.387 . S
H732 C739 0.950 . S
C733 C731 1.387 . S
C733 C735 1.390 . S
C733 H737 0.950 . S
H734 C730 0.950 . S
C735 C733 1.390 . S
C735 C736 1.387 . S
C735 H738 0.950 . S
C736 C735 1.387 . S
C736 C739 1.387 . S
H737 C733 0.950 . S
H738 C735 0.950 . S
C739 C730 1.390 . S
C739 H732 0.950 . S
C739 C736 1.387 . S
C740 C741 1.387 . S
C740 H744 0.950 . S
C740 C749 1.390 . S
C741 C740 1.387 . S
C741 C743 1.387 . S
H742 C749 0.950 . S
C743 C741 1.387 . S
C743 C745 1.390 . S
C743 H747 0.950 . S
H744 C740 0.950 . S
C745 C743 1.390 . S
C745 C746 1.387 . S
C745 H748 0.950 . S
C746 C745 1.387 . S
C746 C749 1.387 . S
H747 C743 0.950 . S
H748 C745 0.950 . S
C749 C740 1.390 . S
C749 H742 0.950 . S
C749 C746 1.387 . S
C750 C751 1.387 . S
C750 H754 0.950 . S
C750 C759 1.390 . S
C751 C750 1.387 . S
C751 C753 1.387 . S
H752 C759 0.950 . S
C753 C751 1.387 . S
C753 C755 1.390 . S
C753 H757 0.950 . S
H754 C750 0.950 . S
C755 C753 1.390 . S
C755 C756 1.387 . S
C755 H758 0.950 . S
C756 C755 1.387 . S
C756 C759 1.387 . S
H757 C753 0.950 . S
H758 C755 0.950 . S
C759 C750 1.390 . S
C759 H752 0.950 . S
C759 C756 1.387 . S
C760 C761 1.387 . S
C760 H764 0.950 . S
C760 C769 1.390 . S
C761 C760 1.387 . S
C761 C763 1.387 . S
H762 C769 0.950 . S
C763 C761 1.387 . S
C763 C765 1.390 . S
C763 H767 0.950 . S
H764 C760 0.950 . S
C765 C763 1.390 . S
C765 C766 1.387 . S
C765 H768 0.950 . S
C766 C765 1.387 . S
C766 C769 1.387 . S
H767 C763 0.950 . S
H768 C765 0.950 . S
C769 C760 1.390 . S
C769 H762 0.950 . S
C769 C766 1.387 . S
C770 C771 1.387 . S
C770 H774 0.950 . S
C770 C779 1.390 . S
C771 C770 1.387 . S
C771 C773 1.387 . S
H772 C779 0.950 . S
C773 C771 1.387 . S
C773 C775 1.390 . S
C773 H777 0.950 . S
H774 C770 0.950 . S
C775 C773 1.390 . S
C775 C776 1.387 . S
C775 H778 0.950 . S
C776 C775 1.387 . S
C776 C779 1.387 . S
H777 C773 0.950 . S
H778 C775 0.950 . S
C779 C770 1.390 . S
C779 H772 0.950 . S
C779 C776 1.387 . S
C780 C781 1.387 . S
C780 H784 0.950 . S
C780 C789 1.390 . S
C781 C780 1.387 . S
C781 C783 1.387 . S
H782 C789 0.950 . S
C783 C781 1.387 . S
C783 C785 1.390 . S
C783 H787 0.950 . S
H784 C780 0.950 . S
C785 C783 1.390 . S
C785 C786 1.387 . S
C785 H788 0.950 . S
C786 C785 1.387 . S
C786 C789 1.387 . S
H787 C783 0.950 . S
H788 C785 0.950 . S
C789 C780 1.390 . S
C789 H782 0.950 . S
C789 C786 1.387 . S
C790 C791 1.387 . S
C790 H794 0.950 . S
C790 C799 1.390 . S
C791 C790 1.387 . S
C791 C793 1.387 . S
H792 C799 0.950 . S
C793 C791 1.387 . S
C793 C795 1.390 . S
C793 H797 0.950 . S
H794 C790 0.950 . S
C795 C793 1.390 . S
C795 C796 1.387 . S
C795 H798 0.950 . S
C796 C795 1.387 . S
C796 C799 1.387 . S
H797 C793 0.950 . S
H798 C795 0.950 . S
C799 C790 1.390 . S
C799 H792 0.950 . S
C799 C796 1.387 . S
C800 C801 1.387 . S
C800 H804 0.950 . S
C800 C809 1.390 . S
C801 C800 1.387 . S
C801 C803 1.387 . S
H802 C809 0.950 . S
C803 C801 1.387 . S
C803 C805 1.390 . S
C803 H807 0.950 . S
H804 C800 0.950 . S
C805 C803 1.390 . S
C805 C806 1.387 . S
C805 H808 0.950 . S
C806 C805 1.387 . S
C806 C809 1.387 . S
H807 C803 0.950 . S
H808 C805 0.950 . S
C809 C800 1.390 . S
C809 H802 0.950 . S
C809 C806 1.387 . S
C810 C811 1.387 . S
C810 H814 0.950 . S
C810 C819 1.390 . S
C811 C810 1.387 . S
C811 C813 1.387 . S
H812 C819 0.950 . S
C813 C811 1.387 . S
C813 C815 1.390 . S
C813 H817 0.950 . S
H814 C810 0.950 . S
C815 C813 1.390 . S
C815 C816 1.387 . S
C815 H818 0.950 . S
C816 C815 1.387 . S
C816 C819 1.387 . S
H817 C813 0.950 . S
H818 C815 0.950 . S
C819 C810 1.390 . S
C819 H812 0.950 . S
C819 C816 1.387 . S
C820 C821 1.387 . S
C820 H824 0.950 . S
C820 C829 1.390 . S
C821 C820 1.387 . S
C821 C823 1.387 . S
H822 C829 0.950 . S
C823 C821 1.387 . S
C823 C825 1.390 . S
C823 H827 0.950 . S
H824 C820 0.950 . S
C825 C823 1.390 . S
C825 C826 1.387 . S
C825 H828 0.950 . S
C826 C825 1.387 . S
C826 C829 1.387 . S
H827 C823 0.950 . S
H828 C825 0.950 . S
C829 C820 1.390 . S
C829 H822 0.950 . S
C829 C826 1.387 . S
C830 C831 1.387 . S
C830 H834 0.950 . S
C830 C839 1.390 . S
C831 C830 1.387 . S
C831 C833 1.387 . S
H832 C839 0.950 . S
C833 C831 1.387 . S
C833 C835 1.390 . S
C833 H837 0.950 . S
H834 C830 0.950 . S
C835 C833 1.390 . S
C835 C836 1.387 . S
C835 H838 0.950 . S
C836 C835 1.387 . S
C836 C839 1.387 . S
H837 C833 0.950 . S
H838 C835 0.950 . S
C839 C830 1.390 . S
C839 H832 0.950 . S
C839 C836 1.387 . S
C840 C841 1.387 . S
C840 H844 0.950 . S
C840 C849 1.390 . S
C841 C840 1.387 . S
C841 C843 1.387 . S
H842 C849 0.950 . S
C843 C841 1.387 . S
C843 C845 1.390 . S
C843 H847 0.950 . S
H844 C840 0.950 . S
C845 C843 1.390 . S
C845 C846 1.387 . S
C845 H848 0.950 . S
C846 C845 1.387 . S
C846 C849 1.387 . S
H847 C843 0.950 . S
H848 C845 0.950 . S
C849 C840 1.390 . S
C849 H842 0.950 . S
C849 C846 1.387 . S
C850 C851 1.387 . S
C850 H854 0.950 . S
C850 C859 1.390 . S
C851 C850 1.387 . S
C851 C853 1.387 . S
H852 C859 0.950 . S
C853 C851 1.387 . S
C853 C855 1.390 . S
C853 H857 0.950 . S
H854 C850 0.950 . S
C855 C853 1.390 . S
C855 C856 1.387 . S
C855 H858 0.950 . S
C856 C855 1.387 . S
C856 C859 1.387 . S
H857 C853 0.950 . S
H858 C855 0.950 . S
C859 C850 1.390 . S
C859 H852 0.950 . S
C859 C856 1.387 . S
C860 C861 1.387 . S
C860 H864 0.950 . S
C860 C869 1.390 . S
C861 C860 1.387 . S
C861 C863 1.387 . S
H862 C869 0.950 . S
C863 C861 1.387 . S
C863 C865 1.390 . S
C863 H867 0.950 . S
H864 C860 0.950 . S
C865 C863 1.390 . S
C865 C866 1.387 . S
C865 H868 0.950 . S
C866 C865 1.387 . S
C866 C869 1.387 . S
H867 C863 0.950 . S
H868 C865 0.950 . S
C869 C860 1.390 . S
C869 H862 0.950 . S
C869 C866 1.387 . S
C870 C871 1.387 . S
C870 H874 0.950 . S
C870 C879 1.390 . S
C871 C870 1.387 . S
C871 C873 1.387 . S
H872 C879 0.950 . S
C873 C871 1.387 . S
C873 C875 1.390 . S
C873 H877 0.950 . S
H874 C870 0.950 . S
C875 C873 1.390 . S
C875 C876 1.387 . S
C875 H878 0.950 . S
C876 C875 1.387 . S
C876 C879 1.387 . S
H877 C873 0.950 . S
H878 C875 0.950 . S
C879 C870 1.390 . S
C879 H872 0.950 . S
C879 C876 1.387 . S
C641 C1 1.196 . S
C646 C486 1.410 . S
C651 C80 1.019 . S
C656 C535 1.089 . S
C666 C570 2.502 . S
C661 C140 2.497 . S
C671 C211 2.439 . S
C676 C609 2.408 . S
C686 C530 2.621 . S
C681 C31 2.233 . S
C696 C489 0.841 . S
C691 C61 0.837 . S
C706 C619 1.929 . S
C701 C151 1.961 . S
C716 C578 1.717 . S
C711 C200 1.720 . S
C721 C20 1.684 . S
C726 C606 1.824 . S
C736 C538 2.337 . S
C731 C121 2.435 . S
C741 C181 2.306 . S
C746 C499 2.355 . S
C751 C91 1.146 . S
C756 C575 1.129 . S
C766 C495 1.407 . S
C761 C260 1.293 . S
C771 C320 1.021 . S
C776 C526 1.089 . S
C781 C361 2.499 . S
C786 C579 2.501 . S
C791 C451 2.438 . S
C796 C618 2.410 . S
C801 C271 2.331 . S
C806 C539 2.622 . S
C816 C498 0.841 . S
C811 C301 0.834 . S
C826 C610 1.929 . S
C821 C380 1.931 . S
C836 C569 1.717 . S
C831 C440 1.719 . S
C841 C241 1.549 . S
C846 C615 1.825 . S
C856 C529 2.336 . S
C851 C391 2.432 . S
C866 C490 2.355 . S
C861 C421 2.304 . S
C871 C331 1.143 . S
C876 C566 1.125 . S
