# Generated by pormake.
# Topology ctn, (3,4)-cn, num edge types: 1
# Building blocks:
#     Node 0, Type 0, BuildingBlock: VETTIZ_charged_linker_0, # of connection points: 3
#     Node 1, Type 0, BuildingBlock: VETTIZ_charged_linker_0, # of connection points: 3
#     Node 2, Type 0, BuildingBlock: VETTIZ_charged_linker_0, # of connection points: 3
#     Node 3, Type 0, BuildingBlock: VETTIZ_charged_linker_0, # of connection points: 3
#     Node 4, Type 0, BuildingBlock: VETTIZ_charged_linker_0, # of connection points: 3
#     Node 5, Type 0, BuildingBlock: VETTIZ_charged_linker_0, # of connection points: 3
#     Node 6, Type 0, BuildingBlock: VETTIZ_charged_linker_0, # of connection points: 3
#     Node 7, Type 0, BuildingBlock: VETTIZ_charged_linker_0, # of connection points: 3
#     Node 8, Type 0, BuildingBlock: VETTIZ_charged_linker_0, # of connection points: 3
#     Node 9, Type 0, BuildingBlock: VETTIZ_charged_linker_0, # of connection points: 3
#     Node 10, Type 0, BuildingBlock: VETTIZ_charged_linker_0, # of connection points: 3
#     Node 11, Type 0, BuildingBlock: VETTIZ_charged_linker_0, # of connection points: 3
#     Node 12, Type 0, BuildingBlock: VETTIZ_charged_linker_0, # of connection points: 3
#     Node 13, Type 0, BuildingBlock: VETTIZ_charged_linker_0, # of connection points: 3
#     Node 14, Type 0, BuildingBlock: VETTIZ_charged_linker_0, # of connection points: 3
#     Node 15, Type 0, BuildingBlock: VETTIZ_charged_linker_0, # of connection points: 3
#     Node 16, Type 1, BuildingBlock: KUFVIS_clean_sbu_0, # of connection points: 4
#     Node 17, Type 1, BuildingBlock: KUFVIS_clean_sbu_0, # of connection points: 4
#     Node 18, Type 1, BuildingBlock: KUFVIS_clean_sbu_0, # of connection points: 4
#     Node 19, Type 1, BuildingBlock: KUFVIS_clean_sbu_0, # of connection points: 4
#     Node 20, Type 1, BuildingBlock: KUFVIS_clean_sbu_0, # of connection points: 4
#     Node 21, Type 1, BuildingBlock: KUFVIS_clean_sbu_0, # of connection points: 4
#     Node 22, Type 1, BuildingBlock: KUFVIS_clean_sbu_0, # of connection points: 4
#     Node 23, Type 1, BuildingBlock: KUFVIS_clean_sbu_0, # of connection points: 4
#     Node 24, Type 1, BuildingBlock: KUFVIS_clean_sbu_0, # of connection points: 4
#     Node 25, Type 1, BuildingBlock: KUFVIS_clean_sbu_0, # of connection points: 4
#     Node 26, Type 1, BuildingBlock: KUFVIS_clean_sbu_0, # of connection points: 4
#     Node 27, Type 1, BuildingBlock: KUFVIS_clean_sbu_0, # of connection points: 4
#     Edge 28, Type (0, 1), BuildingBlock: XUDNAN_clean_linker_2, # of connection points: 2
#     Edge 29, Type (0, 1), BuildingBlock: XUDNAN_clean_linker_2, # of connection points: 2
#     Edge 30, Type (0, 1), BuildingBlock: XUDNAN_clean_linker_2, # of connection points: 2
#     Edge 31, Type (0, 1), BuildingBlock: XUDNAN_clean_linker_2, # of connection points: 2
#     Edge 32, Type (0, 1), BuildingBlock: XUDNAN_clean_linker_2, # of connection points: 2
#     Edge 33, Type (0, 1), BuildingBlock: XUDNAN_clean_linker_2, # of connection points: 2
#     Edge 34, Type (0, 1), BuildingBlock: XUDNAN_clean_linker_2, # of connection points: 2
#     Edge 35, Type (0, 1), BuildingBlock: XUDNAN_clean_linker_2, # of connection points: 2
#     Edge 36, Type (0, 1), BuildingBlock: XUDNAN_clean_linker_2, # of connection points: 2
#     Edge 37, Type (0, 1), BuildingBlock: XUDNAN_clean_linker_2, # of connection points: 2
#     Edge 38, Type (0, 1), BuildingBlock: XUDNAN_clean_linker_2, # of connection points: 2
#     Edge 39, Type (0, 1), BuildingBlock: XUDNAN_clean_linker_2, # of connection points: 2
#     Edge 40, Type (0, 1), BuildingBlock: XUDNAN_clean_linker_2, # of connection points: 2
#     Edge 41, Type (0, 1), BuildingBlock: XUDNAN_clean_linker_2, # of connection points: 2
#     Edge 42, Type (0, 1), BuildingBlock: XUDNAN_clean_linker_2, # of connection points: 2
#     Edge 43, Type (0, 1), BuildingBlock: XUDNAN_clean_linker_2, # of connection points: 2
#     Edge 44, Type (0, 1), BuildingBlock: XUDNAN_clean_linker_2, # of connection points: 2
#     Edge 45, Type (0, 1), BuildingBlock: XUDNAN_clean_linker_2, # of connection points: 2
#     Edge 46, Type (0, 1), BuildingBlock: XUDNAN_clean_linker_2, # of connection points: 2
#     Edge 47, Type (0, 1), BuildingBlock: XUDNAN_clean_linker_2, # of connection points: 2
#     Edge 48, Type (0, 1), BuildingBlock: XUDNAN_clean_linker_2, # of connection points: 2
#     Edge 49, Type (0, 1), BuildingBlock: XUDNAN_clean_linker_2, # of connection points: 2
#     Edge 50, Type (0, 1), BuildingBlock: XUDNAN_clean_linker_2, # of connection points: 2
#     Edge 51, Type (0, 1), BuildingBlock: XUDNAN_clean_linker_2, # of connection points: 2
#     Edge 52, Type (0, 1), BuildingBlock: XUDNAN_clean_linker_2, # of connection points: 2
#     Edge 53, Type (0, 1), BuildingBlock: XUDNAN_clean_linker_2, # of connection points: 2
#     Edge 54, Type (0, 1), BuildingBlock: XUDNAN_clean_linker_2, # of connection points: 2
#     Edge 55, Type (0, 1), BuildingBlock: XUDNAN_clean_linker_2, # of connection points: 2
#     Edge 56, Type (0, 1), BuildingBlock: XUDNAN_clean_linker_2, # of connection points: 2
#     Edge 57, Type (0, 1), BuildingBlock: XUDNAN_clean_linker_2, # of connection points: 2
#     Edge 58, Type (0, 1), BuildingBlock: XUDNAN_clean_linker_2, # of connection points: 2
#     Edge 59, Type (0, 1), BuildingBlock: XUDNAN_clean_linker_2, # of connection points: 2
#     Edge 60, Type (0, 1), BuildingBlock: XUDNAN_clean_linker_2, # of connection points: 2
#     Edge 61, Type (0, 1), BuildingBlock: XUDNAN_clean_linker_2, # of connection points: 2
#     Edge 62, Type (0, 1), BuildingBlock: XUDNAN_clean_linker_2, # of connection points: 2
#     Edge 63, Type (0, 1), BuildingBlock: XUDNAN_clean_linker_2, # of connection points: 2
#     Edge 64, Type (0, 1), BuildingBlock: XUDNAN_clean_linker_2, # of connection points: 2
#     Edge 65, Type (0, 1), BuildingBlock: XUDNAN_clean_linker_2, # of connection points: 2
#     Edge 66, Type (0, 1), BuildingBlock: XUDNAN_clean_linker_2, # of connection points: 2
#     Edge 67, Type (0, 1), BuildingBlock: XUDNAN_clean_linker_2, # of connection points: 2
#     Edge 68, Type (0, 1), BuildingBlock: XUDNAN_clean_linker_2, # of connection points: 2
#     Edge 69, Type (0, 1), BuildingBlock: XUDNAN_clean_linker_2, # of connection points: 2
#     Edge 70, Type (0, 1), BuildingBlock: XUDNAN_clean_linker_2, # of connection points: 2
#     Edge 71, Type (0, 1), BuildingBlock: XUDNAN_clean_linker_2, # of connection points: 2
#     Edge 72, Type (0, 1), BuildingBlock: XUDNAN_clean_linker_2, # of connection points: 2
#     Edge 73, Type (0, 1), BuildingBlock: XUDNAN_clean_linker_2, # of connection points: 2
#     Edge 74, Type (0, 1), BuildingBlock: XUDNAN_clean_linker_2, # of connection points: 2
#     Edge 75, Type (0, 1), BuildingBlock: XUDNAN_clean_linker_2, # of connection points: 2
# Relax obj value: 0.012
# Max RMSD: 0.063
# Mean RMSD: 0.029
data_MOF--net-ctn--node1-KUFVIS_clean_sbu_0--node2-VETTIZ_charged_linker_0--edge1-XUDNAN_clean_linker_2
_symmetry_space_group_name_H-M    P1
_symmetry_Int_Tables_number       1
_symmetry_cell_setting            triclinic
loop_
_symmetry_equiv_pos_as_xyz
'x, y, z'
_cell_length_a     66.129827
_cell_length_b     65.986987
_cell_length_c     66.294563
_cell_angle_alpha  90.840817
_cell_angle_beta   90.239205
_cell_angle_gamma 91.448142
loop_
_atom_site_label
_atom_site_type_symbol
_atom_site_fract_x
_atom_site_fract_y
_atom_site_fract_z
_atom_type_partial_charge
C0 C 0.04443 0.09944 0.99437 0.0
C1 C 0.02788 0.11251 0.99486 0.0
C2 C 0.01375 0.11031 0.01068 0.0
C3 C 0.03259 0.08257 0.02458 0.0
C4 C 0.04625 0.0845 0.00899 0.0
C5 C 0.06197 0.06843 0.00931 0.0
H6 H 0.10121 0.98658 0.05372 0.0
C7 C 0.03882 0.06537 0.03713 0.0
C8 C 0.05591 0.05692 0.02807 0.0
H9 H 0.11841 0.01345 0.99691 0.0
H10 H 0.09383 0.03935 1.00185 0.0
H11 H 0.09541 0.02834 0.07851 0.0
H12 H 0.05392 0.98864 0.0458 0.0
H13 H 0.04192 0.996 0.06823 0.0
H14 H 0.06492 0.98198 0.06952 0.0
H15 H 0.08693 1.00438 0.08825 0.0
H16 H 0.07293 0.02718 0.09248 0.0
C17 C 0.08302 0.07899 0.01177 0.0
C18 C 0.05949 0.05517 0.98986 0.0
C19 C 1.00101 0.04854 0.10185 0.0
C20 C 1.00395 0.03409 0.11698 0.0
C21 C 0.02001 0.02056 0.11486 0.0
C22 C 0.03288 0.02141 0.09812 0.0
C23 C 0.02977 0.03596 0.08321 0.0
C24 C 0.01408 0.04925 0.08524 0.0
C25 C 0.01326 0.06387 0.06801 0.0
C26 C 0.03115 0.05724 0.05542 0.0
C27 C 0.04067 0.0408 0.06436 0.0
C28 C 0.01647 0.08561 0.07672 0.0
C29 C 0.99291 0.06031 0.05668 0.0
C30 C 0.09963 0.99787 0.04218 0.0
C31 C 0.11186 0.99773 0.02481 0.0
C32 C 0.10946 0.01318 0.01055 0.0
C33 C 0.09496 0.02812 0.01332 0.0
C34 C 0.08246 0.0276 0.03042 0.0
C35 C 0.08498 0.01268 0.04453 0.0
C36 C 0.06994 0.01407 0.06145 0.0
C37 C 0.05772 0.03204 0.05496 0.0
C38 C 0.06524 0.04002 0.03689 0.0
C39 C 0.08177 0.01858 0.08131 0.0
C40 C 0.057 0.99415 0.06148 0.0
H41 H 1.00477 0.09466 0.03708 0.0
H42 H 0.05586 0.10061 0.98279 0.0
H43 H 0.04378 0.05546 0.98383 0.0
H44 H 0.06212 0.03894 0.99254 0.0
H45 H 0.06978 0.06058 0.97776 0.0
H46 H 0.08249 0.0914 0.02328 0.0
H47 H 0.0881 0.08575 0.99735 0.0
H48 H 0.09473 0.06869 0.0171 0.0
H49 H 0.98871 0.05903 0.10281 0.0
H50 H 0.0229 0.00949 0.12636 0.0
H51 H 0.04484 0.01074 0.0975 0.0
H52 H 0.02868 0.086 0.08834 0.0
H53 H 1.00246 0.09103 0.08399 0.0
H54 H 0.02135 0.09666 0.0653 0.0
H55 H 0.98805 0.04405 0.057 0.0
H56 H 0.99392 0.0639 0.04049 0.0
H57 H 0.98072 0.06927 0.06368 0.0
H58 H 1.00057 0.11968 0.01143 0.0
C59 C 0.01608 0.09556 0.02554 0.0
C60 C 0.28066 0.6452 0.2219 0.0
C61 C 0.2626 0.64044 0.2114 0.0
C62 C 0.25848 0.65063 0.19336 0.0
C63 C 0.28935 0.67105 0.19752 0.0
C64 C 0.29376 0.6604 0.21471 0.0
C65 C 0.31318 0.6677 0.22455 0.0
H66 H 0.39066 0.73629 0.22972 0.0
C67 C 0.30561 0.68661 0.19479 0.0
C68 C 0.31977 0.68448 0.21043 0.0
H69 H 0.3764 0.68779 0.27093 0.0
H70 H 0.34923 0.67601 0.24915 0.0
H71 H 0.34404 0.74877 0.22279 0.0
H72 H 0.38402 0.71082 0.18879 0.0
H73 H 0.36877 0.72307 0.17121 0.0
H74 H 0.38566 0.73795 0.18741 0.0
H75 H 0.36645 0.75816 0.21047 0.0
H76 H 0.34284 0.75538 0.19719 0.0
C77 C 0.3081 0.67596 0.24592 0.0
C78 C 0.32813 0.64999 0.22429 0.0
C79 C 0.2979 0.74113 0.14213 0.0
C80 C 0.31017 0.75784 0.13663 0.0
C81 C 0.32973 0.76011 0.14493 0.0
C82 C 0.3365 0.74662 0.15952 0.0
C83 C 0.32355 0.73072 0.16586 0.0
C84 C 0.30496 0.72766 0.15655 0.0
C85 C 0.29373 0.70929 0.1644 0.0
C86 C 0.30818 0.70248 0.18069 0.0
C87 C 0.32545 0.71533 0.18174 0.0
C88 C 0.2734 0.71624 0.17333 0.0
C89 C 0.29147 0.69345 0.14699 0.0
C90 C 0.38167 0.72315 0.2341 0.0
C91 C 0.38568 0.71311 0.25225 0.0
C92 C 0.37385 0.69576 0.25703 0.0
C93 C 0.35788 0.68905 0.24443 0.0
C94 C 0.35346 0.69987 0.2269 0.0
C95 C 0.36549 0.71641 0.22181 0.0
C96 C 0.35829 0.72633 0.20287 0.0
C97 C 0.33978 0.71316 0.19756 0.0
C98 C 0.33699 0.69776 0.21177 0.0
C99 C 0.35266 0.74837 0.20842 0.0
C100 C 0.37502 0.72466 0.18668 0.0
H101 H 0.26758 0.67346 0.17281 0.0
H102 H 0.28439 0.63744 0.23567 0.0
H103 H 0.32627 0.64064 0.21026 0.0
H104 H 0.34413 0.65522 0.22425 0.0
H105 H 0.32555 0.63985 0.2373 0.0
H106 H 0.29316 0.68335 0.24599 0.0
H107 H 0.30741 0.66355 0.25706 0.0
H108 H 0.31886 0.68787 0.25138 0.0
H109 H 0.28289 0.73896 0.13572 0.0
H110 H 0.33938 0.7729 0.14084 0.0
H111 H 0.35131 0.74945 0.16577 0.0
H112 H 0.27575 0.73022 0.18273 0.0
H113 H 0.26246 0.71968 0.16116 0.0
H114 H 0.26626 0.705 0.18336 0.0
H115 H 0.30391 0.69514 0.13584 0.0
H116 H 0.29254 0.67769 0.15232 0.0
H117 H 0.27696 0.69508 0.13875 0.0
H118 H 0.24464 0.64728 0.18504 0.0
C119 C 0.27176 0.66591 0.18636 0.0
C120 C 0.99877 0.41601 0.00795 0.0
C121 C 0.98645 0.40783 0.99234 0.0
C122 C 0.96891 0.41833 0.9869 0.0
C123 C 0.97603 0.44402 0.01281 0.0
C124 C 0.99316 0.43375 0.01806 0.0
C125 C 1.00383 0.44314 0.03605 0.0
H126 H 1.00528 0.50984 0.11417 0.0
C127 C 0.97432 0.46161 0.02688 0.0
C128 C 0.99045 0.46096 0.04064 0.0
H129 H 0.04608 0.46122 0.10104 0.0
H130 H 0.02912 0.45426 0.06964 0.0
H131 H 0.96341 0.48738 0.09821 0.0
H132 H 0.00588 0.52673 0.06741 0.0
H133 H 0.98153 0.53192 0.05854 0.0
H134 H 0.98773 0.53656 0.0848 0.0
H135 H 0.96806 0.51348 0.10529 0.0
H136 H 0.95045 0.50658 0.08553 0.0
C137 C 1.00352 0.42734 0.05322 0.0
C138 C 0.02526 0.45027 0.02935 0.0
C139 C 0.91798 0.51169 0.0177 0.0
C140 C 0.91315 0.53012 0.02736 0.0
C141 C 0.92492 0.53661 0.04421 0.0
C142 C 0.94117 0.52517 0.05109 0.0
C143 C 0.94592 0.50703 0.04099 0.0
C144 C 0.93442 0.50064 0.02453 0.0
C145 C 0.942 0.48138 0.01516 0.0
C146 C 0.96021 0.47747 0.02839 0.0
C147 C 0.96232 0.49237 0.04376 0.0
C148 C 0.92532 0.46463 0.01726 0.0
C149 C 0.94815 0.4858 0.99311 0.0
C150 C 0.01055 0.49782 0.10437 0.0
C151 C 0.02671 0.48567 0.11036 0.0
C152 C 0.03334 0.47039 0.09707 0.0
C153 C 0.02346 0.46637 0.07877 0.0
C154 C 0.00662 0.47767 0.0735 0.0
C155 C 1.00068 0.4935 0.08584 0.0
C156 C 0.98277 0.50416 0.07702 0.0
C157 C 0.97832 0.49124 0.05815 0.0
C158 C 0.99239 0.47576 0.05633 0.0
C159 C 0.96517 0.503 0.09228 0.0
C160 C 0.98964 0.52605 0.07174 0.0
H161 H 0.9501 0.44348 0.99223 0.0
H162 H 0.0125 0.40869 0.01249 0.0
H163 H 0.02494 0.45615 0.01371 0.0
H164 H 0.03149 0.46301 0.03864 0.0
H165 H 0.03599 0.43759 0.02958 0.0
H166 H 0.99031 0.41662 0.05173 0.0
H167 H 0.01737 0.41817 0.05304 0.0
H168 H 1.00178 0.43429 0.06836 0.0
H169 H 0.90916 0.50587 1.005 0.0
H170 H 0.92189 0.5508 0.05189 0.0
H171 H 0.94952 0.53096 0.06392 0.0
H172 H 0.91671 0.46667 0.03151 0.0
H173 H 0.91434 0.46497 1.00455 0.0
H174 H 0.93151 0.44928 0.01822 0.0
H175 H 0.95609 0.50083 0.99216 0.0
H176 H 0.95885 0.47481 0.9869 0.0
H177 H 0.93465 0.48606 0.9831 0.0
H178 H 0.95887 0.41237 0.97519 0.0
C179 C 0.9637 0.43636 0.99697 0.0
C180 C 0.66446 0.80987 0.26188 0.0
C181 C 0.65084 0.79339 0.26435 0.0
C182 C 0.6527 0.77608 0.25184 0.0
C183 C 0.68075 0.79222 0.2342 0.0
C184 C 0.67927 0.80891 0.24689 0.0
C185 C 0.69497 0.82509 0.24244 0.0
H186 H 0.7761 0.85702 0.18878 0.0
C187 C 0.69747 0.79634 0.2199 0.0
C188 C 0.70597 0.81548 0.22481 0.0
H189 H 0.7453 0.88839 0.2371 0.0
H190 H 0.72147 0.86061 0.2397 0.0
H191 H 0.73441 0.84345 0.16606 0.0
H192 H 0.77301 0.81146 0.20665 0.0
H193 H 0.76647 0.79534 0.18606 0.0
H194 H 0.78063 0.81852 0.18169 0.0
H195 H 0.75818 0.83362 0.15808 0.0
H196 H 0.73523 0.81823 0.15743 0.0
C197 C 0.68392 0.8445 0.23621 0.0
C198 C 0.7088 0.82777 0.26129 0.0
C199 C 0.71021 0.74679 0.16229 0.0
C200 C 0.72354 0.74702 0.14579 0.0
C201 C 0.73843 0.76268 0.14482 0.0
C202 C 0.73944 0.77823 0.15954 0.0
C203 C 0.72538 0.77822 0.17542 0.0
C204 C 0.71129 0.76247 0.17674 0.0
C205 C 0.69742 0.76494 0.19448 0.0
C206 C 0.70505 0.78508 0.20326 0.0
C207 C 0.72148 0.79283 0.19208 0.0
C208 C 0.67547 0.76613 0.18639 0.0
C209 C 0.70088 0.74723 0.20911 0.0
C210 C 0.76415 0.85804 0.19982 0.0
C211 C 0.76301 0.87496 0.21302 0.0
C212 C 0.74708 0.87542 0.22713 0.0
C213 C 0.73307 0.85926 0.22854 0.0
C214 C 0.73468 0.84237 0.21558 0.0
C215 C 0.7498 0.84207 0.20128 0.0
C216 C 0.74839 0.82324 0.1881 0.0
C217 C 0.73042 0.81203 0.1974 0.0
C218 C 0.72255 0.82333 0.21354 0.0
C219 C 0.74397 0.82981 0.16621 0.0
C220 C 0.76817 0.81147 0.19055 0.0
H221 H 0.66799 0.76194 0.22756 0.0
H222 H 0.66362 0.82327 0.27146 0.0
H223 H 0.71129 0.81293 0.26854 0.0
H224 H 0.72411 0.83367 0.25771 0.0
H225 H 0.7019 0.83791 0.27272 0.0
H226 H 0.66948 0.84063 0.2282 0.0
H227 H 0.68022 0.854 0.24959 0.0
H228 H 0.69266 0.85378 0.22539 0.0
H229 H 0.69885 0.7348 0.16377 0.0
H230 H 0.74885 0.76332 0.13227 0.0
H231 H 0.7509 0.78987 0.15779 0.0
H232 H 0.675 0.77553 0.1726 0.0
H233 H 0.66921 0.75082 0.18235 0.0
H234 H 0.66511 0.77341 0.19711 0.0
H235 H 0.71679 0.74216 0.20847 0.0
H236 H 0.69856 0.75161 0.22507 0.0
H237 H 0.6909 0.73393 0.20525 0.0
H238 H 0.64233 0.76323 0.25338 0.0
C239 C 0.66754 0.77542 0.23678 0.0
C240 C 0.03947 0.91416 0.52768 0.0
C241 C 0.02215 0.90136 0.52836 0.0
C242 C 0.00744 0.9029 0.51298 0.0
C243 C 0.02688 0.93041 0.49761 0.0
C244 C 0.04145 0.9285 0.51244 0.0
C245 C 0.05866 0.9436 0.51039 0.0
H246 H 0.10237 0.02184 0.46067 0.0
C247 C 0.0334 0.94739 0.48444 0.0
C248 C 0.05204 0.95512 0.49201 0.0
H249 H 0.1252 0.99159 0.51314 0.0
H250 H 0.0954 0.96956 0.51343 0.0
H251 H 0.05826 0.02509 0.47558 0.0
H252 H 0.08673 0.98158 0.43711 0.0
H253 H 0.06318 0.98648 0.4261 0.0
H254 H 0.08151 0.00694 0.42958 0.0
H255 H 0.06264 0.0298 0.44938 0.0
H256 H 0.03961 0.01749 0.458 0.0
C257 C 0.05941 0.95726 0.52963 0.0
C258 C 0.07823 0.93177 0.50637 0.0
C259 C 0.98984 0.96934 0.42485 0.0
C260 C 0.99205 0.98552 0.4113 0.0
C261 C 0.00938 0.99828 0.41264 0.0
C262 C 0.02425 0.99522 0.42722 0.0
C263 C 0.02182 0.97928 0.44086 0.0
C264 C 1.00484 0.96664 0.43967 0.0
C265 C 1.00472 0.95106 0.45619 0.0
C266 C 0.02448 0.9564 0.46722 0.0
C267 C 0.03437 0.9729 0.458 0.0
C268 C 0.98606 0.95458 0.46966 0.0
C269 C 1.0051 0.92975 0.44622 0.0
C270 C 0.10105 0.01036 0.47214 0.0
C271 C 0.11626 0.00834 0.4868 0.0
C272 C 0.11366 0.99351 0.50173 0.0
C273 C 0.09639 0.98066 0.50178 0.0
C274 C 0.08144 0.98271 0.48681 0.0
C275 C 0.08391 0.99749 0.47243 0.0
C276 C 0.06649 0.9978 0.45784 0.0
C277 C 0.05321 0.98054 0.46561 0.0
C278 C 0.062 0.97173 0.48254 0.0
C279 C 0.0562 0.0186 0.46009 0.0
C280 C 0.07475 0.99311 0.43646 0.0
H281 H 0.99793 0.91792 0.4865 0.0
H282 H 0.05133 0.91316 0.53891 0.0
H283 H 0.07502 0.91823 0.49657 0.0
H284 H 0.08979 0.94071 0.49817 0.0
H285 H 0.0849 0.92641 0.52068 0.0
H286 H 0.04392 0.95988 0.53545 0.0
H287 H 0.06819 0.95015 0.54185 0.0
H288 H 0.06581 0.97258 0.52687 0.0
H289 H 0.97655 0.95941 0.42424 0.0
H290 H 0.01147 0.01069 0.40226 0.0
H291 H 0.03703 0.00553 0.42733 0.0
H292 H 0.98357 0.97108 0.47187 0.0
H293 H 0.97215 0.94772 0.46267 0.0
H294 H 0.98781 0.94858 0.48499 0.0
H295 H 0.01587 0.92961 0.43337 0.0
H296 H 0.01031 0.91802 0.45658 0.0
H297 H 0.98991 0.92514 0.44027 0.0
H298 H 0.99391 0.8933 0.5131 0.0
C299 C 0.00972 0.91733 0.49763 0.0
C300 C 0.25493 0.645 0.81584 0.0
C301 C 0.25466 0.63112 0.79961 0.0
C302 C 0.24087 0.63365 0.78364 0.0
C303 C 0.22757 0.66339 0.8005 0.0
C304 C 0.24152 0.66109 0.81583 0.0
C305 C 0.24083 0.6779 0.83132 0.0
H306 H 0.20287 0.7668 0.86349 0.0
C307 C 0.21597 0.68182 0.80511 0.0
C308 C 0.22392 0.69051 0.82298 0.0
H309 H 0.2519 0.73314 0.88876 0.0
H310 H 0.2465 0.70663 0.86397 0.0
H311 H 0.17272 0.72569 0.85493 0.0
H312 H 0.21412 0.7599 0.81763 0.0
H313 H 0.1922 0.75406 0.80336 0.0
H314 H 0.19038 0.76976 0.82573 0.0
H315 H 0.16754 0.75084 0.84668 0.0
H316 H 0.16131 0.72883 0.83123 0.0
C317 C 0.23508 0.66844 0.85184 0.0
C318 C 0.26156 0.68952 0.83121 0.0
C319 C 0.15516 0.69903 0.76212 0.0
C320 C 0.14104 0.7146 0.76312 0.0
C321 C 0.14402 0.73042 0.77741 0.0
C322 C 0.16028 0.73023 0.79111 0.0
C323 C 0.1738 0.71409 0.79046 0.0
C324 C 0.17135 0.69908 0.77582 0.0
C325 C 0.18741 0.68337 0.777 0.0
C326 C 0.19933 0.69085 0.79537 0.0
C327 C 0.19129 0.70886 0.80324 0.0
C328 C 0.17693 0.66249 0.78057 0.0
C329 C 0.20022 0.68437 0.75749 0.0
C330 C 0.21218 0.75354 0.86376 0.0
C331 C 0.22796 0.75208 0.87794 0.0
C332 C 0.23984 0.73467 0.87781 0.0
C333 C 0.23671 0.71931 0.86335 0.0
C334 C 0.22156 0.72131 0.84868 0.0
C335 C 0.20933 0.738 0.84918 0.0
C336 C 0.19407 0.73735 0.83218 0.0
C337 C 0.1997 0.71791 0.82111 0.0
C338 C 0.21578 0.70864 0.83095 0.0
C339 C 0.17272 0.73573 0.84158 0.0
C340 C 0.19766 0.75628 0.81901 0.0
H341 H 0.21693 0.65069 0.77158 0.0
H342 H 0.26566 0.6436 0.8281 0.0
H343 H 0.26895 0.68844 0.81619 0.0
H344 H 0.26017 0.70599 0.83397 0.0
H345 H 0.27213 0.68333 0.84248 0.0
H346 H 0.2236 0.65595 0.84972 0.0
H347 H 0.24849 0.66198 0.85929 0.0
H348 H 0.228 0.67928 0.86232 0.0
H349 H 0.15344 0.68685 0.75106 0.0
H350 H 0.13333 0.74256 0.77847 0.0
H351 H 0.16154 0.74249 0.80189 0.0
H352 H 0.16502 0.66381 0.79229 0.0
H353 H 0.1696 0.65652 0.76652 0.0
H354 H 0.18737 0.65104 0.78612 0.0
H355 H 0.20041 0.69986 0.75106 0.0
H356 H 0.21632 0.68115 0.76022 0.0
H357 H 0.19408 0.67373 0.74571 0.0
H358 H 0.24051 0.62308 0.77097 0.0
C359 C 0.22723 0.64964 0.78406 0.0
C360 C 0.90977 0.51664 0.49557 0.0
C361 C 0.90133 0.50049 0.48384 0.0
C362 C 0.91131 0.49493 0.46583 0.0
C363 C 0.93757 0.52061 0.47197 0.0
C364 C 0.92755 0.52661 0.48921 0.0
C365 C 0.93758 0.54491 0.49918 0.0
H366 H 0.01639 0.61246 0.5043 0.0
C367 C 0.95572 0.53395 0.4697 0.0
C368 C 0.95565 0.5484 0.48547 0.0
H369 H 0.9628 0.61046 0.54131 0.0
H370 H 0.94964 0.58162 0.52205 0.0
H371 H 0.99281 0.60662 0.46306 0.0
H372 H 0.02237 0.56357 0.50052 0.0
H373 H 0.02891 0.55833 0.47532 0.0
H374 H 0.03582 0.58261 0.48646 0.0
H375 H 0.01977 0.60427 0.46318 0.0
H376 H 1.00368 0.58893 0.44665 0.0
C377 C 0.92269 0.5627 0.49854 0.0
C378 C 0.94416 0.53902 0.5207 0.0
C379 C 0.00602 0.52029 0.41338 0.0
C380 C 0.02413 0.53018 0.40758 0.0
C381 C 0.03141 0.54698 0.41909 0.0
C382 C 0.02081 0.55394 0.43596 0.0
C383 C 1.0026 0.54411 0.44143 0.0
C384 C 0.99548 0.52757 0.43022 0.0
C385 C 0.97554 0.51944 0.43799 0.0
C386 C 0.97198 0.53376 0.45574 0.0
C387 C 0.98793 0.54813 0.45769 0.0
C388 C 0.95935 0.52154 0.42121 0.0
C389 C 0.97861 0.49742 0.44488 0.0
C390 C 1.00183 0.60575 0.50818 0.0
C391 C 0.99059 0.61361 0.52431 0.0
C392 C 0.9716 0.6047 0.52883 0.0
C393 C 0.96404 0.58793 0.51768 0.0
C394 C 0.97547 0.5801 0.50166 0.0
C395 C 0.99387 0.5892 0.49694 0.0
C396 C 1.00339 0.57947 0.47875 0.0
C397 C 0.98777 0.56292 0.4735 0.0
C398 C 0.9716 0.56318 0.48716 0.0
C399 C 1.00521 0.59557 0.46199 0.0
C400 C 0.02378 0.57059 0.48542 0.0
H401 H 0.93614 0.49966 0.44619 0.0
H402 H 0.90282 0.52151 0.5095 0.0
H403 H 0.95151 0.52403 0.52042 0.0
H404 H 0.95539 0.54976 0.52747 0.0
H405 H 0.93091 0.53791 0.5309 0.0
H406 H 0.91156 0.56072 0.48599 0.0
H407 H 0.91399 0.56391 0.51279 0.0
H408 H 0.93042 0.57742 0.49558 0.0
H409 H 0.99991 0.5075 0.40468 0.0
H410 H 0.04542 0.55473 0.41505 0.0
H411 H 0.02717 0.5668 0.44403 0.0
H412 H 0.96308 0.5345 0.41121 0.0
H413 H 0.95818 0.50764 0.41157 0.0
H414 H 0.94425 0.52494 0.42731 0.0
H415 H 0.99293 0.49636 0.45363 0.0
H416 H 0.96658 0.4918 0.45497 0.0
H417 H 0.97951 0.48691 0.43168 0.0
H418 H 0.90507 0.48317 0.45592 0.0
C419 C 0.92936 0.50473 0.45997 0.0
C420 C 0.80429 0.76924 0.87299 0.0
C421 C 0.79368 0.77512 0.8906 0.0
C422 C 0.78814 0.79567 0.89245 0.0
C423 C 0.79914 0.80237 0.85857 0.0
C424 C 0.80736 0.7834 0.85745 0.0
C425 C 0.82017 0.78116 0.83872 0.0
H426 H 0.85916 0.82639 0.75526 0.0
C427 C 0.80376 0.81327 0.83994 0.0
C428 C 0.81692 0.80144 0.82847 0.0
H429 H 0.87153 0.76629 0.77707 0.0
H430 H 0.84785 0.77105 0.80408 0.0
H431 H 0.85361 0.85128 0.79716 0.0
H432 H 0.81345 0.81835 0.75689 0.0
H433 H 0.7981 0.83598 0.76908 0.0
H434 H 0.81885 0.84481 0.75363 0.0
H435 H 0.84773 0.8584 0.77177 0.0
H436 H 0.83202 0.8659 0.79252 0.0
C437 C 0.84237 0.77876 0.84553 0.0
C438 C 0.8116 0.76314 0.82594 0.0
C439 C 0.75974 0.87161 0.82003 0.0
C440 C 0.75919 0.88376 0.80283 0.0
C441 C 0.77498 0.88264 0.7887 0.0
C442 C 0.79048 0.86869 0.79108 0.0
C443 C 0.7902 0.8558 0.80781 0.0
C444 C 0.77538 0.85786 0.82228 0.0
C445 C 0.77825 0.84381 0.8397 0.0
C446 C 0.7958 0.8313 0.83203 0.0
C447 C 0.80275 0.83848 0.81344 0.0
C448 C 0.78402 0.85679 0.85871 0.0
C449 C 0.75872 0.83073 0.84234 0.0
C450 C 0.8569 0.81402 0.76559 0.0
C451 C 0.86795 0.79606 0.76388 0.0
C452 C 0.86408 0.78066 0.77813 0.0
C453 C 0.85015 0.78336 0.79387 0.0
C454 C 0.83962 0.80153 0.79537 0.0
C455 C 0.84266 0.8162 0.78098 0.0
C456 C 0.82844 0.83349 0.78338 0.0
C457 C 0.81761 0.82764 0.80263 0.0
C458 C 0.82433 0.80897 0.80979 0.0
C459 C 0.84102 0.85342 0.78627 0.0
C460 C 0.81399 0.83334 0.76483 0.0
H461 H 0.7856 0.82423 0.87877 0.0
H462 H 0.8099 0.75409 0.8711 0.0
H463 H 0.7948 0.7635 0.82528 0.0
H464 H 0.81672 0.76351 0.81013 0.0
H465 H 0.81584 0.74846 0.83256 0.0
H466 H 0.846 0.78886 0.85871 0.0
H467 H 0.84513 0.76292 0.85008 0.0
H468 H 0.85342 0.78316 0.83389 0.0
H469 H 0.74802 0.87264 0.83133 0.0
H470 H 0.77487 0.892 0.77541 0.0
H471 H 0.80192 0.86822 0.77967 0.0
H472 H 0.78596 0.8732 0.85539 0.0
H473 H 0.7722 0.85559 0.87052 0.0
H474 H 0.7987 0.85227 0.86525 0.0
H475 H 0.75463 0.82268 0.82798 0.0
H476 H 0.76027 0.81918 0.85405 0.0
H477 H 0.74586 0.8403 0.8468 0.0
H478 H 0.78186 0.80169 0.90625 0.0
C479 C 0.79049 0.80906 0.87652 0.0
C480 C 0.32111 0.26752 0.37301 0.0
C481 C 0.30657 0.26847 0.38845 0.0
C482 C 0.29296 0.28462 0.38852 0.0
C483 C 0.30745 0.29751 0.35758 0.0
C484 C 0.32125 0.28213 0.3578 0.0
C485 C 0.33538 0.28312 0.34006 0.0
H486 H 0.36377 0.32726 0.25254 0.0
C487 C 0.31096 0.30956 0.33919 0.0
C488 C 0.32736 0.30124 0.32888 0.0
H489 H 0.39196 0.27798 0.28347 0.0
H490 H 0.36703 0.27965 0.3097 0.0
H491 H 0.35592 0.35478 0.29362 0.0
H492 H 0.31848 0.31225 0.25939 0.0
H493 H 0.30286 0.3318 0.26764 0.0
H494 H 0.32358 0.33753 0.25082 0.0
H495 H 0.34725 0.3595 0.26845 0.0
H496 H 0.33197 0.36528 0.29008 0.0
C497 C 0.35715 0.28718 0.34819 0.0
C498 C 0.33261 0.26321 0.32758 0.0
C499 C 0.2652 0.36824 0.32351 0.0
C500 C 0.26368 0.38119 0.30694 0.0
C501 C 0.27695 0.3787 0.29056 0.0
C502 C 0.29177 0.36384 0.29084 0.0
C503 C 0.29326 0.35113 0.30761 0.0
C504 C 0.27988 0.35327 0.32343 0.0
C505 C 0.28296 0.33774 0.33948 0.0
C506 C 0.30068 0.32623 0.33094 0.0
C507 C 0.30679 0.33425 0.31235 0.0
C508 C 0.28865 0.34905 0.35943 0.0
C509 C 0.26347 0.32423 0.3406 0.0
C510 C 0.36469 0.31696 0.26506 0.0
C511 C 0.37988 0.30238 0.26577 0.0
C512 C 0.38028 0.28912 0.28227 0.0
C513 C 0.36585 0.29021 0.29764 0.0
C514 C 0.35074 0.30474 0.29666 0.0
C515 C 0.35036 0.31787 0.28061 0.0
C516 C 0.33322 0.33242 0.28224 0.0
C517 C 0.32361 0.32603 0.30204 0.0
C518 C 0.33389 0.30972 0.31034 0.0
C519 C 0.34241 0.35422 0.28355 0.0
C520 C 0.31876 0.32852 0.26406 0.0
H521 H 0.28242 0.31082 0.37414 0.0
H522 H 0.33176 0.25533 0.3724 0.0
H523 H 0.31633 0.2586 0.32656 0.0
H524 H 0.33766 0.26465 0.31181 0.0
H525 H 0.34079 0.25064 0.33466 0.0
H526 H 0.35705 0.29604 0.3626 0.0
H527 H 0.3649 0.27277 0.35113 0.0
H528 H 0.36651 0.29651 0.33793 0.0
H529 H 0.25499 0.36958 0.33617 0.0
H530 H 0.27608 0.38854 0.27766 0.0
H531 H 0.30153 0.36284 0.278 0.0
H532 H 0.29856 0.36255 0.35645 0.0
H533 H 0.27495 0.35441 0.36731 0.0
H534 H 0.29744 0.33975 0.36984 0.0
H535 H 0.25632 0.32223 0.32545 0.0
H536 H 0.26636 0.30867 0.34555 0.0
H537 H 0.25213 0.3311 0.35076 0.0
H538 H 0.2819 0.28607 0.40043 0.0
C539 C 0.29331 0.29907 0.37324 0.0
C540 C 0.50224 0.91959 0.50957 0.0
C541 C 0.49021 0.91033 0.49422 0.0
C542 C 0.47118 0.9187 0.48998 0.0
C543 C 0.47667 0.94477 0.51572 0.0
C544 C 0.49507 0.93643 0.52026 0.0
C545 C 0.50528 0.94691 0.53803 0.0
H546 H 0.50123 0.01742 0.61309 0.0
C547 C 0.47352 0.962 0.52979 0.0
C548 C 0.49017 0.96315 0.5431 0.0
H549 H 0.54913 0.97533 0.60167 0.0
H550 H 0.53104 0.96216 0.57231 0.0
H551 H 0.46369 0.98778 0.60249 0.0
H552 H 0.4985 0.03152 0.56927 0.0
H553 H 0.47423 0.03207 0.55858 0.0
H554 H 0.47781 0.0389 0.58488 0.0
H555 H 0.4629 0.01467 0.6068 0.0
H556 H 0.4465 1.00202 0.58862 0.0
C557 C 0.50715 0.93131 0.55513 0.0
C558 C 0.52572 0.95619 0.53095 0.0
C559 C 0.41052 1.00515 0.52414 0.0
C560 C 0.40379 0.02162 0.53586 0.0
C561 C 0.4162 0.02953 0.55152 0.0
C562 C 0.43467 0.02087 0.55605 0.0
C563 C 0.44095 1.00398 0.54485 0.0
C564 C 0.42919 0.99653 0.52897 0.0
C565 C 0.43849 0.97825 0.51907 0.0
C566 C 0.45776 0.97623 0.53155 0.0
C567 C 0.45888 0.99126 0.54671 0.0
C568 C 0.4238 0.9598 0.52158 0.0
C569 C 0.44316 0.98351 0.49689 0.0
C570 C 0.50808 0.00552 0.60426 0.0
C571 C 0.52674 0.99749 0.6099 0.0
C572 C 0.53466 0.98166 0.59797 0.0
C573 C 0.52418 0.97411 0.58081 0.0
C574 C 0.50556 0.98244 0.57544 0.0
C575 C 0.49801 0.99804 0.58703 0.0
C576 C 0.47857 0.00584 0.57879 0.0
C577 C 0.47526 0.99194 0.56061 0.0
C578 C 0.49097 0.97813 0.55875 0.0
C579 C 0.46196 1.0026 0.59495 0.0
C580 C 0.48228 0.02826 0.57265 0.0
H581 H 0.44992 0.9414 0.49646 0.0
H582 H 0.51697 0.91394 0.51335 0.0
H583 H 0.52422 0.96264 0.51561 0.0
H584 H 0.53116 0.96895 0.54064 0.0
H585 H 0.53754 0.94454 0.53027 0.0
H586 H 0.49359 0.92098 0.5555 0.0
H587 H 0.52061 0.92181 0.55292 0.0
H588 H 0.50792 0.93839 0.5703 0.0
H589 H 0.40116 0.99868 0.51212 0.0
H590 H 0.41134 0.04227 0.56063 0.0
H591 H 0.4431 0.02744 0.56843 0.0
H592 H 0.41487 0.96117 0.53571 0.0
H593 H 0.41291 0.95846 0.5088 0.0
H594 H 0.43176 0.94536 0.52307 0.0
H595 H 0.45029 0.99892 0.49596 0.0
H596 H 0.45396 0.97317 0.48977 0.0
H597 H 0.42908 0.98335 0.48769 0.0
H598 H 0.46109 0.91178 0.47883 0.0
C599 C 0.4645 0.93588 0.50045 0.0
C600 C 0.15061 0.3216 0.75153 0.0
C601 C 0.13633 0.30558 0.75327 0.0
C602 C 0.13743 0.28873 0.74006 0.0
C603 C 0.16648 0.30409 0.72346 0.0
C604 C 0.16565 0.32043 0.73671 0.0
C605 C 0.18271 0.33555 0.73346 0.0
H606 H 0.26802 0.3624 0.68315 0.0
C607 C 0.18379 0.30759 0.70978 0.0
C608 C 0.19348 0.32593 0.71566 0.0
H609 H 0.24074 0.39331 0.7338 0.0
H610 H 0.21347 0.3684 0.73393 0.0
H611 H 0.22704 0.35513 0.65893 0.0
H612 H 0.25974 0.31631 0.69845 0.0
H613 H 0.2529 0.30255 0.67635 0.0
H614 H 0.2691 0.3247 0.6745 0.0
H615 H 0.24848 0.34139 0.6503 0.0
H616 H 0.22321 0.33032 0.64955 0.0
C617 C 0.17349 0.35607 0.72787 0.0
C618 C 0.19608 0.33635 0.75275 0.0
C619 C 0.19757 0.25677 0.65334 0.0
C620 C 0.21178 0.2564 0.63764 0.0
C621 C 0.22567 0.2728 0.63575 0.0
C622 C 0.22575 0.28909 0.64962 0.0
C623 C 0.21167 0.28908 0.66547 0.0
C624 C 0.19765 0.27328 0.66689 0.0
C625 C 0.18326 0.27625 0.68414 0.0
C626 C 0.19107 0.29635 0.69297 0.0
C627 C 0.20789 0.30365 0.68216 0.0
C628 C 0.16166 0.27784 0.67526 0.0
C629 C 0.18585 0.25862 0.69906 0.0
C630 C 0.2561 0.36396 0.69416 0.0
C631 C 0.25677 0.37983 0.70862 0.0
C632 C 0.24092 0.38106 0.72275 0.0
C633 C 0.225 0.36661 0.72275 0.0
C634 C 0.2248 0.35065 0.70847 0.0
C635 C 0.24006 0.34965 0.69435 0.0
C636 C 0.2372 0.33181 0.68012 0.0
C637 C 0.21808 0.32189 0.68847 0.0
C638 C 0.21088 0.33299 0.70508 0.0
C639 C 0.23394 0.33992 0.65854 0.0
C640 C 0.2557 0.31807 0.68227 0.0
H641 H 0.15228 0.27475 0.71548 0.0
H642 H 0.1503 0.33456 0.76174 0.0
H643 H 0.19605 0.32138 0.76028 0.0
H644 H 0.21218 0.33972 0.74957 0.0
H645 H 0.19051 0.34766 0.76384 0.0
H646 H 0.16034 0.35366 0.7175 0.0
H647 H 0.16808 0.36421 0.74152 0.0
H648 H 0.18414 0.36611 0.7197 0.0
H649 H 0.18654 0.24449 0.655 0.0
H650 H 0.23682 0.27277 0.62382 0.0
H651 H 0.23689 0.30096 0.64758 0.0
H652 H 0.16196 0.28633 0.66088 0.0
H653 H 0.15485 0.26258 0.672 0.0
H654 H 0.15138 0.28634 0.68514 0.0
H655 H 0.20183 0.25375 0.69952 0.0
H656 H 0.18238 0.26295 0.71481 0.0
H657 H 0.17629 0.24521 0.69456 0.0
H658 H 0.12655 0.27625 0.74116 0.0
C659 C 0.15233 0.28794 0.72513 0.0
C660 C 0.7651 0.15509 0.7142 0.0
C661 C 0.74712 0.15351 0.70277 0.0
C662 C 0.74237 0.16967 0.68994 0.0
C663 C 0.77324 0.18794 0.69978 0.0
C664 C 0.77765 0.1724 0.7127 0.0
C665 C 0.79655 0.17678 0.7248 0.0
H666 H 0.87856 0.23683 0.74505 0.0
C667 C 0.78957 0.20364 0.70173 0.0
C668 C 0.80314 0.19723 0.71654 0.0
H669 H 0.85869 0.18198 0.77501 0.0
H670 H 0.82984 0.17911 0.75316 0.0
H671 H 0.83401 0.25619 0.74399 0.0
H672 H 0.8673 0.22208 0.69997 0.0
H673 H 0.85501 0.24133 0.68708 0.0
H674 H 0.87361 0.24804 0.70618 0.0
H675 H 0.85556 0.26666 0.73105 0.0
H676 H 0.83044 0.26751 0.72045 0.0
C677 C 0.79069 0.17818 0.74744 0.0
C678 C 0.81192 0.16015 0.71969 0.0
C679 C 0.79133 0.26428 0.65496 0.0
C680 C 0.80564 0.28011 0.65207 0.0
C681 C 0.82267 0.28164 0.66493 0.0
C682 C 0.82567 0.26744 0.6801 0.0
C683 C 0.81158 0.25136 0.68244 0.0
C684 C 0.79468 0.25003 0.67008 0.0
C685 C 0.78164 0.23157 0.67446 0.0
C686 C 0.79359 0.22201 0.69133 0.0
C687 C 0.8111 0.23373 0.69598 0.0
C688 C 0.76075 0.23874 0.68177 0.0
C689 C 0.78078 0.21799 0.65521 0.0
C690 C 0.86793 0.22428 0.74703 0.0
C691 C 0.87129 0.20944 0.76169 0.0
C692 C 0.85697 0.19335 0.76356 0.0
C693 C 0.83998 0.1918 0.75097 0.0
C694 C 0.83693 0.2066 0.73637 0.0
C695 C 0.85063 0.22262 0.73468 0.0
C696 C 0.84444 0.23721 0.71864 0.0
C697 C 0.8247 0.22733 0.71116 0.0
C698 C 0.82058 0.20929 0.72148 0.0
C699 C 0.84103 0.25809 0.72888 0.0
C700 C 0.86092 0.2374 0.70209 0.0
H701 H 0.75082 0.19845 0.6783 0.0
H702 H 0.76949 0.14311 0.72417 0.0
H703 H 0.81193 0.15679 0.70319 0.0
H704 H 0.82767 0.16464 0.72351 0.0
H705 H 0.80801 0.14583 0.72755 0.0
H706 H 0.77456 0.18213 0.74941 0.0
H707 H 0.79294 0.16355 0.75511 0.0
H708 H 0.79924 0.19037 0.75566 0.0
H709 H 0.77822 0.26257 0.64519 0.0
H710 H 0.8338 0.2938 0.66313 0.0
H711 H 0.83902 0.26939 0.68924 0.0
H712 H 0.76228 0.25322 0.69053 0.0
H713 H 0.75046 0.24134 0.66883 0.0
H714 H 0.75337 0.228 0.69222 0.0
H715 H 0.79594 0.21739 0.64804 0.0
H716 H 0.77647 0.20209 0.65825 0.0
H717 H 0.77007 0.22399 0.64395 0.0
H718 H 0.72842 0.16938 0.68133 0.0
C719 C 0.75533 0.18675 0.68832 0.0
C720 C 0.54184 0.61178 0.50462 0.0
C721 C 0.52501 0.62401 0.50829 0.0
C722 C 0.5111 0.61807 0.52332 0.0
C723 C 0.53144 0.58939 0.53174 0.0
C724 C 0.54469 0.59453 0.51647 0.0
C725 C 0.56161 0.57969 0.51473 0.0
H726 H 0.60383 0.49234 0.54511 0.0
C727 C 0.53892 0.57114 0.54174 0.0
C728 C 0.5565 0.56518 0.53178 0.0
H729 H 0.62312 0.53222 0.49724 0.0
H730 H 0.59691 0.5553 0.50576 0.0
H731 H 0.59735 0.53013 0.57746 0.0
H732 H 0.55546 0.49592 0.53927 0.0
H733 H 0.54545 0.49794 0.56384 0.0
H734 H 0.5687 0.48489 0.55996 0.0
H735 H 0.58943 0.50466 0.58321 0.0
H736 H 0.57488 0.52617 0.591 0.0
C737 C 0.58191 0.59136 0.51858 0.0
C738 C 0.55987 0.56915 0.49374 0.0
C739 C 0.50305 0.54591 0.60422 0.0
C740 C 0.50686 0.53052 0.61806 0.0
C741 C 0.52272 0.51715 0.61401 0.0
C742 C 0.53498 0.51961 0.59685 0.0
C743 C 0.53138 0.53563 0.58359 0.0
C744 C 0.51547 0.54829 0.58738 0.0
C745 C 0.51387 0.56474 0.57211 0.0
C746 C 0.53178 0.56028 0.55872 0.0
C747 C 0.54196 0.54314 0.56535 0.0
C748 C 0.5165 0.58543 0.58336 0.0
C749 C 0.49345 0.56168 0.5607 0.0
C750 C 0.60251 0.50612 0.53659 0.0
C751 C 0.6153 0.51007 0.52007 0.0
C752 C 0.61311 0.52836 0.50957 0.0
C753 C 0.59787 0.54185 0.51457 0.0
C754 C 0.58461 0.53724 0.53038 0.0
C755 C 0.58733 0.51991 0.54148 0.0
C756 C 0.57222 0.51813 0.55839 0.0
C757 C 0.55944 0.53663 0.55487 0.0
C758 C 0.56677 0.54773 0.53836 0.0
C759 C 0.58394 0.51969 0.57865 0.0
C760 C 0.55979 0.49813 0.5554 0.0
H761 H 0.50317 0.59758 0.54631 0.0
H762 H 0.55278 0.61575 0.49313 0.0
H763 H 0.54374 0.5663 0.4895 0.0
H764 H 0.56669 0.55407 0.49324 0.0
H765 H 0.56687 0.57873 0.48189 0.0
H766 H 0.5801 0.60355 0.53016 0.0
H767 H 0.58754 0.59859 0.50459 0.0
H768 H 0.59378 0.58168 0.52471 0.0
H769 H 0.49072 0.55618 0.60655 0.0
H770 H 0.52601 0.50514 0.6244 0.0
H771 H 0.54695 0.50912 0.59468 0.0
H772 H 0.52823 0.58462 0.59539 0.0
H773 H 0.50216 0.58992 0.59063 0.0
H774 H 0.52182 0.59782 0.57355 0.0
H775 H 0.48836 0.54547 0.56045 0.0
H776 H 0.49452 0.56574 0.5446 0.0
H777 H 0.48132 0.57052 0.56794 0.0
H778 H 0.49764 0.62668 0.5261 0.0
C779 C 0.51424 0.60098 0.53502 0.0
C780 C 0.53561 0.40927 0.01583 0.0
C781 C 0.5171 0.39835 0.01342 0.0
C782 C 0.50323 0.405 0.99879 0.0
C783 C 0.52657 0.43187 0.98877 0.0
C784 C 0.53988 0.42602 1.00357 0.0
C785 C 0.55834 0.43986 1.00482 0.0
H786 H 0.61108 0.52167 0.97021 0.0
C787 C 0.53562 0.4496 0.97841 0.0
C788 C 0.55414 0.45453 0.9879 0.0
H789 H 0.62464 0.48488 0.02166 0.0
H790 H 0.59527 0.46341 0.01454 0.0
H791 H 0.56466 0.52447 0.97905 0.0
H792 H 0.59598 0.48335 0.93965 0.0
H793 H 0.57444 0.49175 0.92688 0.0
H794 H 0.59397 0.50987 0.9345 0.0
H795 H 0.57537 0.53246 0.95554 0.0
H796 H 0.55022 0.52135 0.95688 0.0
C797 C 0.55861 0.45054 0.02584 0.0
C798 C 0.57717 0.4271 1.00038 0.0
C799 C 0.50002 0.47823 0.91735 0.0
C800 C 0.50457 0.49443 0.90444 0.0
C801 C 0.52237 0.5062 0.90799 0.0
C802 C 0.53549 0.50178 0.92397 0.0
C803 C 0.53075 0.48548 0.9367 0.0
C804 C 0.51319 0.4741 0.93331 0.0
C805 C 0.51027 0.45767 0.9486 0.0
C806 C 0.52915 0.4608 0.96151 0.0
C807 C 0.54115 0.47709 0.95447 0.0
C808 C 0.4907 0.4619 0.96063 0.0
C809 C 0.51006 0.437 0.93723 0.0
C810 C 0.60785 0.50876 0.97969 0.0
C811 C 0.6202 0.50485 0.99645 0.0
C812 C 0.6153 0.48818 0.00871 0.0
C813 C 0.59821 0.47579 1.00458 0.0
C814 C 0.58565 0.48021 0.98815 0.0
C815 C 0.59059 0.49641 0.97595 0.0
C816 C 0.57497 0.49931 0.9597 0.0
C817 C 0.55976 0.48235 0.96431 0.0
C818 C 0.5662 0.47113 0.98092 0.0
C819 C 0.56582 0.52052 0.96272 0.0
C820 C 0.58526 0.49606 0.93901 0.0
H821 H 0.49674 0.42555 0.97555 0.0
H822 H 0.54672 0.40485 0.02684 0.0
H823 H 0.57419 0.41651 0.98744 0.0
H824 H 0.59051 0.4364 0.99603 0.0
H825 H 0.58122 0.4179 0.01363 0.0
H826 H 0.54309 0.45178 0.03206 0.0
H827 H 0.56768 0.44206 0.03687 0.0
H828 H 0.56444 0.46638 0.02527 0.0
H829 H 0.4863 0.4691 0.91526 0.0
H830 H 0.5263 0.51868 0.8982 0.0
H831 H 0.54882 0.51125 0.92579 0.0
H832 H 0.48729 0.47833 0.96089 0.0
H833 H 0.47741 0.45366 0.95389 0.0
H834 H 0.49203 0.4579 0.97673 0.0
H835 H 0.52219 0.43674 0.92565 0.0
H836 H 0.51301 0.4241 0.94712 0.0
H837 H 0.49536 0.43413 0.92939 0.0
H838 H 0.48854 0.39759 0.9969 0.0
C839 C 0.50791 0.42149 0.98644 0.0
C840 C 0.75687 0.15052 0.32344 0.0
C841 C 0.75895 0.13728 0.30678 0.0
C842 C 0.74508 0.13839 0.29063 0.0
C843 C 0.72826 0.16626 0.30738 0.0
C844 C 0.74154 0.16478 0.32343 0.0
C845 C 0.73767 0.18019 0.33981 0.0
H846 H 0.68678 0.26198 0.37223 0.0
C847 C 0.71451 0.18313 0.3119 0.0
C848 C 0.71991 0.19123 0.33098 0.0
H849 H 0.7343 0.23096 0.40342 0.0
H850 H 0.73589 0.20654 0.37606 0.0
H851 H 0.66198 0.22318 0.36068 0.0
H852 H 0.70536 0.25856 0.32734 0.0
H853 H 0.68432 0.25332 0.31156 0.0
H854 H 0.68093 0.26725 0.33474 0.0
H855 H 0.65475 0.24529 0.34732 0.0
H856 H 0.65443 0.22048 0.33536 0.0
C857 C 0.73178 0.16876 0.35926 0.0
C858 C 0.75676 0.19418 0.34197 0.0
C859 C 0.66183 0.20421 0.26022 0.0
C860 C 0.64664 0.21875 0.26095 0.0
C861 C 0.64434 0.23061 0.27854 0.0
C862 C 0.65722 0.22838 0.29511 0.0
C863 C 0.6725 0.21398 0.2942 0.0
C864 C 0.6744 0.20188 0.27714 0.0
C865 C 0.69074 0.18654 0.27958 0.0
C866 C 0.69856 0.19179 0.3007 0.0
C867 C 0.68798 0.20809 0.30898 0.0
C868 C 0.68076 0.16506 0.27842 0.0
C869 C 0.707 0.19055 0.26331 0.0
C870 C 0.69737 0.2498 0.37343 0.0
C871 C 0.71048 0.24859 0.39014 0.0
C872 C 0.72422 0.23256 0.39066 0.0
C873 C 0.72505 0.21829 0.37477 0.0
C874 C 0.712 0.21995 0.3581 0.0
C875 C 0.69828 0.23537 0.35781 0.0
C876 C 0.68516 0.23457 0.33924 0.0
C877 C 0.69355 0.21635 0.32816 0.0
C878 C 0.70935 0.20791 0.33918 0.0
C879 C 0.66289 0.23083 0.34585 0.0
C880 C 0.68894 0.25446 0.32754 0.0
H881 H 0.71993 0.15312 0.27795 0.0
H882 H 0.76708 0.1499 0.33622 0.0
H883 H 0.76335 0.19749 0.32692 0.0
H884 H 0.75359 0.20915 0.34868 0.0
H885 H 0.76858 0.18692 0.35114 0.0
H886 H 0.72307 0.15452 0.35559 0.0
H887 H 0.74542 0.16459 0.36795 0.0
H888 H 0.7217 0.17751 0.36915 0.0
H889 H 0.66366 0.19471 0.24692 0.0
H890 H 0.63271 0.24187 0.27933 0.0
H891 H 0.65483 0.23807 0.30795 0.0
H892 H 0.66522 0.16505 0.28479 0.0
H893 H 0.67957 0.15946 0.26257 0.0
H894 H 0.68889 0.15391 0.28748 0.0
H895 H 0.71028 0.2071 0.262 0.0
H896 H 0.72164 0.18377 0.26687 0.0
H897 H 0.70178 0.18477 0.2483 0.0
H898 H 0.74643 0.12851 0.27754 0.0
C899 C 0.72979 0.15281 0.29083 0.0
C900 C 0.41638 0.00843 1.00384 0.0
C901 C 0.40924 0.99103 0.99334 0.0
C902 C 0.41977 0.98439 0.9761 0.0
C903 C 0.44374 0.01268 0.97971 0.0
C904 C 0.43346 0.01906 0.99669 0.0
C905 C 0.44232 0.03848 1.00546 0.0
H906 H 0.51479 0.11271 1.00418 0.0
C907 C 0.46036 0.02757 0.97587 0.0
C908 C 0.45947 0.04281 0.99086 0.0
H909 H 0.46543 0.10536 0.04614 0.0
H910 H 0.45303 0.07584 0.02757 0.0
H911 H 0.48889 0.10569 0.96593 0.0
H912 H 0.52522 0.06413 0.99861 0.0
H913 H 0.53074 0.06211 0.97262 0.0
H914 H 0.53488 0.08596 0.98553 0.0
H915 H 0.51532 0.10344 0.96081 0.0
H916 H 0.49645 0.08764 0.94796 0.0
C917 C 0.42596 0.05488 1.00468 0.0
C918 C 0.45023 0.03401 0.02693 0.0
C919 C 0.50861 0.01729 0.91686 0.0
C920 C 0.52428 0.02955 0.90863 0.0
C921 C 0.52868 0.04857 0.91799 0.0
C922 C 0.51839 0.05489 0.93529 0.0
C923 C 0.50308 0.0424 0.94334 0.0
C924 C 0.49807 0.02415 0.93391 0.0
C925 C 0.48003 0.01385 0.94362 0.0
C926 C 0.47552 0.02869 0.96071 0.0
C927 C 0.48933 0.04521 0.9606 0.0
C928 C 0.46261 0.01237 0.92789 0.0
C929 C 0.48669 0.99315 0.95165 0.0
C930 C 0.50136 0.10463 0.00934 0.0
C931 C 0.49114 0.1112 0.02669 0.0
C932 C 0.47349 0.1006 0.03276 0.0
C933 C 0.4664 0.08338 0.02202 0.0
C934 C 0.47698 0.07673 1.00491 0.0
C935 C 0.49394 0.08752 0.99862 0.0
C936 C 0.50267 0.07875 0.97957 0.0
C937 C 0.48861 0.06046 0.97593 0.0
C938 C 0.47368 0.05931 0.99089 0.0
C939 C 0.50092 0.09464 0.96265 0.0
C940 C 0.52459 0.07244 0.98415 0.0
H941 H 0.44436 0.98923 0.95611 0.0
H942 H 0.40844 0.01406 0.01695 0.0
H943 H 0.45745 0.01897 0.02728 0.0
H944 H 0.46207 0.04492 0.03222 0.0
H945 H 0.43767 0.03377 0.03801 0.0
H946 H 0.41567 0.05234 0.99151 0.0
H947 H 0.4165 0.05472 0.01849 0.0
H948 H 0.43242 0.07032 1.00261 0.0
H949 H 0.50453 1.00265 0.9103 0.0
H950 H 0.53987 0.05895 0.91183 0.0
H951 H 0.52265 0.06942 0.94162 0.0
H952 H 0.46355 0.02512 0.91711 0.0
H953 H 0.46314 0.99802 0.91895 0.0
H954 H 0.44752 0.01361 0.93482 0.0
H955 H 0.50162 0.99475 0.95938 0.0
H956 H 0.47621 0.9868 0.96296 0.0
H957 H 0.48818 0.98193 0.93912 0.0
H958 H 0.41462 0.97093 0.96784 0.0
C959 C 0.43702 0.99504 0.9693 0.0
Mn960 Mn 0.25506 0.8769 0.01146 0.0
Mn961 Mn 0.25693 0.89764 0.96513 0.0
C962 C 0.24577 0.8578 0.98303 0.0
C963 C 0.26785 0.85968 0.03912 0.0
C964 C 0.22446 0.90695 0.9956 0.0
O965 O 0.27441 0.9015 0.01572 0.0
O966 O 0.27552 0.91269 0.98373 0.0
C967 C 0.29918 0.88857 0.95417 0.0
N968 N 0.27898 0.887 0.9501 0.0
C969 C 0.28501 0.86873 0.9191 0.0
C970 C 0.30586 0.87022 0.92294 0.0
C971 C 0.31297 0.88015 0.94057 0.0
C972 C 0.27199 0.87748 0.93318 0.0
H973 H 0.30473 0.89616 0.9677 0.0
C974 C 0.28141 0.91341 1.00217 0.0
O975 O 0.25307 0.87208 0.04069 0.0
O976 O 0.27608 0.85782 0.02141 0.0
N977 N 0.23989 0.88388 0.94566 0.0
C978 C 0.2193 0.88268 0.94481 0.0
C979 C 0.20976 0.87295 0.92824 0.0
C980 C 0.22147 0.8646 0.91272 0.0
C981 C 0.24262 0.86577 0.91406 0.0
C982 C 0.25128 0.87588 0.9308 0.0
H983 H 0.21023 0.88917 0.95665 0.0
O984 O 0.23877 0.85294 1.00063 0.0
O985 O 0.25758 0.87379 0.98261 0.0
O986 O 0.23076 0.89491 0.00884 0.0
O987 O 0.23336 0.90978 0.97881 0.0
C988 C 0.25543 0.85714 0.89953 0.0
C989 C 0.27661 0.85857 0.90208 0.0
H990 H 0.31655 0.86365 0.91253 0.0
H991 H 0.32904 0.88131 0.94366 0.0
H992 H 0.19342 0.87194 0.92738 0.0
H993 H 0.21407 0.85726 0.89987 0.0
H994 H 0.24914 0.84913 0.88647 0.0
H995 H 0.28629 0.85162 0.89095 0.0
Mn996 Mn 0.14377 0.50792 0.26072 0.0
Mn997 Mn 0.12152 0.55332 0.25753 0.0
C998 C 0.161 0.53555 0.24696 0.0
C999 C 0.16357 0.48448 0.27742 0.0
C1000 C 0.11069 0.51761 0.22999 0.0
O1001 O 0.12063 0.50535 0.28105 0.0
O1002 O 0.10814 0.53677 0.27866 0.0
C1003 C 0.13301 0.5704 0.29765 0.0
N1004 N 0.13308 0.57174 0.27717 0.0
C1005 C 0.15114 0.60385 0.27882 0.0
C1006 C 0.15115 0.60287 0.29994 0.0
C1007 C 0.14207 0.58605 0.30938 0.0
C1008 C 0.14178 0.58785 0.26792 0.0
H1009 H 0.12614 0.55747 0.30499 0.0
C1010 C 0.10843 0.51913 0.28655 0.0
O1011 O 0.15089 0.47888 0.2633 0.0
O1012 O 0.16425 0.50359 0.28237 0.0
N1013 N 0.13351 0.57081 0.2379 0.0
C1014 C 0.13333 0.56883 0.21742 0.0
C1015 C 0.14207 0.58424 0.20568 0.0
C1016 C 0.15089 0.60151 0.21513 0.0
C1017 C 0.15115 0.60309 0.23623 0.0
C1018 C 0.14195 0.58739 0.24713 0.0
H1019 H 0.12653 0.55561 0.21009 0.0
O1020 O 0.16608 0.51723 0.24222 0.0
O1021 O 0.1458 0.53704 0.25915 0.0
O1022 O 0.12351 0.50564 0.23739 0.0
O1023 O 0.10861 0.53578 0.23635 0.0
C1024 C 0.16036 0.61952 0.24687 0.0
C1025 C 0.1604 0.61987 0.26816 0.0
H1026 H 0.15823 0.61485 0.30904 0.0
H1027 H 0.1421 0.58513 0.32567 0.0
H1028 H 0.14198 0.58285 0.1894 0.0
H1029 H 0.15749 0.61344 0.20604 0.0
H1030 H 0.16769 0.63183 0.23884 0.0
H1031 H 0.16779 0.63244 0.27618 0.0
Mn1032 Mn 0.76102 0.62654 0.00586 0.0
Mn1033 Mn 0.71616 0.64144 0.98724 0.0
C1034 C 0.73271 0.60485 0.00682 0.0
C1035 C 0.79259 0.61148 1.00287 0.0
C1036 C 0.73077 0.65344 0.02883 0.0
O1037 O 0.76994 0.65112 0.98922 0.0
O1038 O 0.7387 0.66042 0.98063 0.0
C1039 C 0.72719 0.63504 0.94442 0.0
N1040 N 0.71424 0.63168 0.96002 0.0
C1041 C 0.68998 0.61487 0.93801 0.0
C1042 C 0.70303 0.61814 0.92169 0.0
C1043 C 0.72181 0.62809 0.92496 0.0
C1044 C 0.6965 0.62147 0.95718 0.0
H1045 H 0.74144 0.64308 0.94678 0.0
C1046 C 0.75785 0.66336 0.98107 0.0
O1047 O 0.78876 0.62411 0.01746 0.0
O1048 O 0.77837 0.60817 0.98958 0.0
N1049 N 0.69221 0.62534 0.99186 0.0
C1050 C 0.68095 0.62423 0.009 0.0
C1051 C 0.66182 0.6145 0.00837 0.0
C1052 C 0.65397 0.60703 0.98992 0.0
C1053 C 0.66538 0.60929 0.97229 0.0
C1054 C 0.6847 0.61836 0.97399 0.0
H1055 H 0.68658 0.63062 0.02307 0.0
O1056 O 0.74796 0.60255 0.0188 0.0
O1057 O 0.73448 0.61947 0.99386 0.0
O1058 O 0.74825 0.6457 0.02704 0.0
O1059 O 0.71701 0.65174 0.01527 0.0
C1060 C 0.65814 0.60335 0.95301 0.0
C1061 C 0.67058 0.60578 0.93594 0.0
H1062 H 0.69873 0.6132 0.90659 0.0
H1063 H 0.73196 0.63071 0.91245 0.0
H1064 H 0.65297 0.61314 0.022 0.0
H1065 H 0.63905 0.59989 0.98942 0.0
H1066 H 0.64315 0.59655 0.95119 0.0
H1067 H 0.66498 0.60079 0.92126 0.0
Mn1068 Mn 0.87846 0.01051 0.25895 0.0
Mn1069 Mn 0.90022 0.96493 0.25376 0.0
C1070 C 0.86296 0.98505 0.23949 0.0
C1071 C 0.8585 0.03414 0.27548 0.0
C1072 C 0.91499 1.00248 0.23194 0.0
O1073 O 0.89846 0.01025 0.28247 0.0
O1074 O 0.91066 0.97881 0.27875 0.0
C1075 C 0.88333 0.94392 0.28933 0.0
N1076 N 0.88581 0.94493 0.26898 0.0
C1077 C 0.86988 0.91205 0.26397 0.0
C1078 C 0.86721 0.91062 0.28488 0.0
C1079 C 0.8738 0.92671 0.29759 0.0
C1080 C 0.87908 0.92975 0.25658 0.0
H1081 H 0.88873 0.95607 0.29919 0.0
C1082 C 0.90941 0.99575 0.28836 0.0
O1083 O 0.87332 0.03955 0.26391 0.0
O1084 O 0.85513 0.0148 0.27775 0.0
N1085 N 0.89124 0.94972 0.23044 0.0
C1086 C 0.89499 0.95343 0.21061 0.0
C1087 C 0.88861 0.93914 0.19586 0.0
C1088 C 0.87881 0.92104 0.20166 0.0
C1089 C 0.87548 0.91738 0.22217 0.0
C1090 C 0.88191 0.9323 0.23618 0.0
H1091 H 0.90267 0.96722 0.20604 0.0
O1092 O 0.85886 1.00393 0.23652 0.0
O1093 O 0.87593 0.98163 0.25372 0.0
O1094 O 0.90148 0.01398 0.23889 0.0
O1095 O 0.91629 0.98394 0.23686 0.0
C1096 C 0.86634 0.89937 0.22929 0.0
C1097 C 0.86382 0.89659 0.25019 0.0
H1098 H 0.86004 0.89728 0.29133 0.0
H1099 H 0.87176 0.92573 0.31374 0.0
H1100 H 0.89134 0.94204 0.18007 0.0
H1101 H 0.87403 0.90999 0.19025 0.0
H1102 H 0.86132 0.8875 0.21883 0.0
H1103 H 0.85684 0.88263 0.25548 0.0
Mn1104 Mn 0.25865 0.12613 0.50938 0.0
Mn1105 Mn 0.2183 0.14518 0.48531 0.0
C1106 C 0.22917 0.10667 0.50511 0.0
C1107 C 0.28846 0.10818 0.51188 0.0
C1108 C 0.22989 0.15686 0.52811 0.0
O1109 O 0.27143 0.15002 0.49394 0.0
O1110 O 0.2433 0.16057 0.4783 0.0
C1111 C 0.22947 0.13453 0.44334 0.0
N1112 N 0.21606 0.13344 0.45884 0.0
C1113 C 0.1923 0.11377 0.43855 0.0
C1114 C 0.20583 0.11475 0.42234 0.0
C1115 C 0.2245 0.12514 0.42476 0.0
C1116 C 0.19804 0.12349 0.45667 0.0
H1117 H 0.24384 0.14249 0.44513 0.0
C1118 C 0.26235 0.16185 0.48191 0.0
O1119 O 0.2835 0.12173 0.52516 0.0
O1120 O 0.2769 0.10606 0.49603 0.0
N1121 N 0.19314 0.13137 0.4906 0.0
C1122 C 0.18229 0.13093 0.50802 0.0
C1123 C 0.16334 0.12085 0.50825 0.0
C1124 C 0.15575 0.11136 0.49058 0.0
C1125 C 0.16719 0.112 0.47285 0.0
C1126 C 0.18585 0.12249 0.47346 0.0
H1127 H 0.18805 0.13822 0.52164 0.0
O1128 O 0.24168 0.10291 0.51962 0.0
O1129 O 0.23412 0.12182 0.49366 0.0
O1130 O 0.24503 0.14543 0.52902 0.0
O1131 O 0.21879 0.15829 0.51245 0.0
C1132 C 0.16094 0.10238 0.45468 0.0
C1133 C 0.17351 0.10323 0.43755 0.0
H1134 H 0.20209 0.10744 0.40801 0.0
H1135 H 0.23505 0.12591 0.41234 0.0
H1136 H 0.15462 0.12035 0.52202 0.0
H1137 H 0.14117 0.10351 0.49082 0.0
H1138 H 0.14663 0.09406 0.45379 0.0
H1139 H 0.16867 0.09555 0.42374 0.0
Mn1140 Mn 0.37948 0.50676 0.75862 0.0
Mn1141 Mn 0.40277 0.4619 0.75508 0.0
C1142 C 0.36471 0.48011 0.74031 0.0
C1143 C 0.35759 0.52913 0.77443 0.0
C1144 C 0.41552 0.4986 0.73088 0.0
O1145 O 0.40019 0.50888 0.78148 0.0
O1146 O 0.41395 0.47807 0.77841 0.0
C1147 C 0.38792 0.44363 0.79294 0.0
N1148 N 0.38964 0.4429 0.77247 0.0
C1149 C 0.37342 0.40989 0.77076 0.0
C1150 C 0.37153 0.41023 0.79182 0.0
C1151 C 0.3787 0.42724 0.80294 0.0
C1152 C 0.38244 0.42679 0.7616 0.0
H1153 H 0.39362 0.45656 0.80157 0.0
C1154 C 0.41245 0.49542 0.78721 0.0
O1155 O 0.3717 0.53553 0.76238 0.0
O1156 O 0.35666 0.50982 0.77793 0.0
N1157 N 0.39331 0.44459 0.73344 0.0
C1158 C 0.39616 0.44669 0.71322 0.0
C1159 C 0.38919 0.43128 0.69991 0.0
C1160 C 0.37973 0.41372 0.70753 0.0
C1161 C 0.37737 0.41171 0.72842 0.0
C1162 C 0.38439 0.42767 0.74094 0.0
H1163 H 0.40354 0.46008 0.70728 0.0
O1164 O 0.35982 0.49865 0.73688 0.0
O1165 O 0.37797 0.47761 0.75456 0.0
O1166 O 0.4021 0.51026 0.73793 0.0
O1167 O 0.41719 0.48019 0.73621 0.0
C1168 C 0.36853 0.39441 0.73733 0.0
C1169 C 0.36671 0.39343 0.7585 0.0
H1170 H 0.36456 0.39756 0.7996 0.0
H1171 H 0.37727 0.42765 0.8192 0.0
H1172 H 0.39117 0.4329 0.68381 0.0
H1173 H 0.37444 0.40183 0.69722 0.0
H1174 H 0.36304 0.38177 0.72805 0.0
H1175 H 0.35981 0.38007 0.76517 0.0
Mn1176 Mn 0.75052 0.38143 0.51215 0.0
Mn1177 Mn 0.75352 0.39458 0.46328 0.0
C1178 C 0.7367 0.35995 0.48737 0.0
C1179 C 0.76613 0.36618 0.53953 0.0
C1180 C 0.72374 0.4129 0.49313 0.0
O1181 O 0.77144 0.40475 0.51244 0.0
O1182 O 0.77548 0.40881 0.47896 0.0
C1183 C 0.79266 0.37673 0.4523 0.0
N1184 N 0.77244 0.3784 0.44903 0.0
C1185 C 0.77408 0.3585 0.41844 0.0
C1186 C 0.79498 0.35673 0.42135 0.0
C1187 C 0.80427 0.3657 0.43849 0.0
C1188 C 0.76324 0.36923 0.43299 0.0
H1189 H 0.79987 0.38386 0.46529 0.0
C1190 C 0.7804 0.41265 0.49735 0.0
O1191 O 0.75185 0.3791 0.54229 0.0
O1192 O 0.77136 0.36238 0.52109 0.0
N1193 N 0.73344 0.38189 0.4461 0.0
C1194 C 0.71308 0.38458 0.44576 0.0
C1195 C 0.70133 0.37553 0.43022 0.0
C1196 C 0.7107 0.36427 0.41491 0.0
C1197 C 0.73173 0.36208 0.41534 0.0
C1198 C 0.74258 0.37104 0.43145 0.0
H1199 H 0.70581 0.39338 0.45735 0.0
O1200 O 0.73139 0.35814 0.50607 0.0
O1201 O 0.75046 0.37382 0.48378 0.0
O1202 O 0.72771 0.40183 0.50826 0.0
O1203 O 0.73325 0.4118 0.4764 0.0
C1204 C 0.74239 0.35164 0.40024 0.0
C1205 C 0.76359 0.35006 0.40167 0.0
H1206 H 0.80401 0.34844 0.41059 0.0
H1207 H 0.82037 0.36433 0.44091 0.0
H1208 H 0.68512 0.37737 0.42996 0.0
H1209 H 0.70162 0.35749 0.40284 0.0
H1210 H 0.73443 0.34472 0.38748 0.0
H1211 H 0.7716 0.34187 0.39004 0.0
Mn1212 Mn 0.64042 0.01255 0.75702 0.0
Mn1213 Mn 0.62354 0.06008 0.76425 0.0
C1214 C 0.65779 0.03976 0.74285 0.0
C1215 C 0.6587 0.98499 0.76806 0.0
C1216 C 0.60515 0.03017 0.73359 0.0
O1217 O 0.62 0.00915 0.77983 0.0
O1218 O 0.61224 0.0418 0.7852 0.0
C1219 C 0.64415 0.06951 0.80311 0.0
N1220 N 0.64016 0.07434 0.78363 0.0
C1221 C 0.65731 0.10672 0.78757 0.0
C1222 C 0.66144 0.10221 0.80776 0.0
C1223 C 0.65503 0.08341 0.81549 0.0
C1224 C 0.64698 0.092 0.7758 0.0
H1225 H 0.63898 0.05521 0.80915 0.0
C1226 C 0.61097 0.023 0.78958 0.0
O1227 O 0.64367 0.98268 0.75553 0.0
O1228 O 0.66301 1.00329 0.77445 0.0
N1229 N 0.63285 0.08005 0.74556 0.0
C1230 C 0.62755 0.08215 0.72582 0.0
C1231 C 0.63352 0.09977 0.71558 0.0
C1232 C 0.64417 0.11542 0.72593 0.0
C1233 C 0.64879 0.11326 0.74643 0.0
C1234 C 0.64301 0.09508 0.75568 0.0
H1235 H 0.61898 0.07039 0.71788 0.0
O1236 O 0.6604 0.02141 0.73627 0.0
O1237 O 0.64576 0.04172 0.75822 0.0
O1238 O 0.61726 0.01579 0.73674 0.0
O1239 O 0.60578 0.04689 0.74359 0.0
C1240 C 0.65846 0.12862 0.75818 0.0
C1241 C 0.6628 0.12533 0.77872 0.0
H1242 H 0.66952 0.11304 0.81744 0.0
H1243 H 0.65823 0.07976 0.83103 0.0
H1244 H 0.62969 0.1014 0.69981 0.0
H1245 H 0.64848 0.12912 0.71807 0.0
H1246 H 0.66289 0.14294 0.7515 0.0
H1247 H 0.67056 0.13713 0.78751 0.0
Mn1248 Mn 0.00837 0.25873 0.87363 0.0
Mn1249 Mn 0.96368 0.25396 0.89794 0.0
C1250 C 0.98111 0.24268 0.85768 0.0
C1251 C 0.03163 0.27648 0.85375 0.0
C1252 C 0.99953 0.22759 0.90638 0.0
O1253 O 0.0114 0.27911 0.89701 0.0
O1254 O 0.97998 0.27671 0.91015 0.0
C1255 C 0.9453 0.29273 0.88686 0.0
N1256 N 0.94454 0.27208 0.88704 0.0
C1257 C 0.91081 0.27113 0.87332 0.0
C1258 C 0.9112 0.29238 0.87302 0.0
C1259 C 0.92859 0.30322 0.87967 0.0
C1260 C 0.92808 0.26151 0.88021 0.0
H1261 H 0.95849 0.30111 0.8923 0.0
C1262 C 0.99778 0.28472 0.90933 0.0
O1263 O 0.03718 0.2625 0.86598 0.0
O1264 O 0.01255 0.28076 0.85354 0.0
N1265 N 0.94616 0.23271 0.88759 0.0
C1266 C 0.94822 0.21227 0.8888 0.0
C1267 C 0.93246 0.19923 0.88193 0.0
C1268 C 0.91455 0.20734 0.87443 0.0
C1269 C 0.91256 0.22843 0.87385 0.0
C1270 C 0.92893 0.24066 0.8805 0.0
H1271 H 0.96181 0.20593 0.89486 0.0
O1272 O 0.99943 0.2397 0.85159 0.0
O1273 O 0.97912 0.25546 0.87264 0.0
O1274 O 0.01092 0.23494 0.89275 0.0
O1275 O 0.98197 0.23419 0.91028 0.0
C1276 C 0.89486 0.23778 0.86725 0.0
C1277 C 0.89392 0.25913 0.86714 0.0
H1278 H 0.89824 0.30053 0.86769 0.0
H1279 H 0.92902 0.31962 0.87948 0.0
H1280 H 0.93405 0.18297 0.88259 0.0
H1281 H 0.90235 0.19724 0.86932 0.0
H1282 H 0.88188 0.22872 0.86216 0.0
H1283 H 0.88027 0.26614 0.86191 0.0
Mn1284 Mn 0.51324 0.75734 0.37821 0.0
Mn1285 Mn 0.466 0.76164 0.39564 0.0
C1286 C 0.48604 0.74503 0.35887 0.0
C1287 C 0.54037 0.7716 0.36054 0.0
C1288 C 0.49703 0.73316 0.41298 0.0
O1289 O 0.51571 0.77869 0.40109 0.0
O1290 O 0.48258 0.785 0.40614 0.0
C1291 C 0.45227 0.79878 0.37577 0.0
N1292 N 0.44996 0.77855 0.37914 0.0
C1293 C 0.4202 0.77636 0.3581 0.0
C1294 C 0.42224 0.79719 0.35447 0.0
C1295 C 0.43836 0.80844 0.36332 0.0
C1296 C 0.43448 0.76759 0.37072 0.0
H1297 H 0.4647 0.80744 0.38245 0.0
C1298 C 0.50148 0.78909 0.40881 0.0
O1299 O 0.54309 0.75743 0.37361 0.0
O1300 O 0.52208 0.77778 0.35817 0.0
N1301 N 0.44885 0.73979 0.38589 0.0
C1302 C 0.44971 0.71964 0.38995 0.0
C1303 C 0.43486 0.70621 0.38195 0.0
C1304 C 0.41928 0.71361 0.36987 0.0
C1305 C 0.41884 0.73435 0.36567 0.0
C1306 C 0.4339 0.74706 0.37429 0.0
H1307 H 0.46156 0.71385 0.39932 0.0
O1308 O 0.50409 0.73849 0.35554 0.0
O1309 O 0.48476 0.75829 0.37338 0.0
O1310 O 0.50998 0.73476 0.39889 0.0
O1311 O 0.48101 0.74358 0.41378 0.0
C1312 C 0.40418 0.74288 0.35311 0.0
C1313 C 0.40488 0.76386 0.34929 0.0
H1314 H 0.41163 0.80466 0.34475 0.0
H1315 H 0.44009 0.8245 0.36051 0.0
H1316 H 0.43537 0.69019 0.38514 0.0
H1317 H 0.40779 0.70319 0.36385 0.0
H1318 H 0.39243 0.7334 0.34612 0.0
H1319 H 0.39369 0.7702 0.33939 0.0
Mn1320 Mn 0.00829 0.75608 0.63893 0.0
Mn1321 Mn 0.9838 0.71337 0.65423 0.0
C1322 C 0.01098 0.7262 0.62045 0.0
C1323 C 0.00964 0.78688 0.62177 0.0
C1324 C 0.02325 0.72862 0.67285 0.0
O1325 O 0.98747 0.767 0.65859 0.0
O1326 O 0.97271 0.73756 0.66812 0.0
C1327 C 0.9435 0.72142 0.63694 0.0
N1328 N 0.95967 0.70918 0.63865 0.0
C1329 C 0.94233 0.68218 0.62037 0.0
C1330 C 0.92547 0.69448 0.6184 0.0
C1331 C 0.92614 0.71427 0.62654 0.0
C1332 C 0.95945 0.69039 0.63026 0.0
H1333 H 0.94377 0.73644 0.64364 0.0
C1334 C 0.97464 0.75689 0.66895 0.0
O1335 O 0.0214 0.78342 0.63697 0.0
O1336 O 0.99688 0.77246 0.61649 0.0
N1337 N 0.99237 0.68841 0.64245 0.0
C1338 C 0.00978 0.67836 0.64593 0.0
C1339 C 0.01184 0.65863 0.63811 0.0
C1340 C 0.9957 0.64912 0.62753 0.0
C1341 C 0.97767 0.65947 0.6248 0.0
C1342 C 0.97674 0.67936 0.63233 0.0
H1343 H 0.02205 0.68539 0.65447 0.0
O1344 O 0.02457 0.74065 0.61896 0.0
O1345 O 0.99587 0.72968 0.63245 0.0
O1346 O 0.02506 0.74464 0.66236 0.0
O1347 O 0.00844 0.71599 0.67085 0.0
C1348 C 0.96038 0.65065 0.6154 0.0
C1349 C 0.94272 0.662 0.61318 0.0
H1350 H 0.91191 0.68887 0.61073 0.0
H1351 H 0.91319 0.72385 0.62511 0.0
H1352 H 0.02574 0.65066 0.64049 0.0
H1353 H 0.99722 0.63377 0.62181 0.0
H1354 H 0.96056 0.63521 0.60964 0.0
H1355 H 0.92961 0.65513 0.60569 0.0
Mn1356 Mn 0.5111 0.25997 0.13188 0.0
Mn1357 Mn 0.49628 0.21787 0.15683 0.0
C1358 C 0.51487 0.22823 0.11714 0.0
C1359 C 0.50456 0.28668 0.11019 0.0
C1360 C 0.53537 0.24121 0.16603 0.0
O1361 O 0.49286 0.27123 0.15405 0.0
O1362 O 0.48268 0.24191 0.16819 0.0
C1363 C 0.45304 0.21575 0.14509 0.0
N1364 N 0.47151 0.20709 0.14574 0.0
C1365 C 0.45768 0.17537 0.13295 0.0
C1366 C 0.4385 0.18392 0.13216 0.0
C1367 C 0.43621 0.20426 0.13809 0.0
C1368 C 0.47397 0.18771 0.13957 0.0
H1369 H 0.45114 0.23125 0.15005 0.0
C1370 C 0.48223 0.26123 0.16674 0.0
O1371 O 0.5193 0.28782 0.12318 0.0
O1372 O 0.49314 0.2704 0.1104 0.0
N1373 N 0.50802 0.19331 0.14735 0.0
C1374 C 0.52751 0.18731 0.14911 0.0
C1375 C 0.53252 0.16762 0.14293 0.0
C1376 C 0.51736 0.15414 0.13558 0.0
C1377 C 0.49731 0.16048 0.13446 0.0
C1378 C 0.4933 0.18042 0.14038 0.0
H1379 H 0.53917 0.19748 0.15509 0.0
O1380 O 0.52556 0.24371 0.11108 0.0
O1381 O 0.50195 0.23177 0.13142 0.0
O1382 O 0.53354 0.25452 0.15243 0.0
O1383 O 0.52207 0.22732 0.1693 0.0
C1384 C 0.48109 0.14767 0.12807 0.0
C1385 C 0.46125 0.15505 0.12756 0.0
H1386 H 0.42544 0.17502 0.12701 0.0
H1387 H 0.42146 0.21097 0.13753 0.0
H1388 H 0.548 0.16279 0.14402 0.0
H1389 H 0.52124 0.1389 0.13103 0.0
H1390 H 0.48369 0.13212 0.12356 0.0
H1391 H 0.4489 0.14507 0.12257 0.0
H1392 H 0.2034 0.7725 0.90469 0.0
H1393 H 0.26498 0.76983 0.88264 0.0
H1394 H 0.27562 0.79659 0.90702 0.0
H1395 H 0.20242 0.82558 0.91287 0.0
H1396 H 0.18912 0.82582 0.93657 0.0
H1397 H 0.18465 0.80548 0.91851 0.0
H1398 H 0.19402 0.77803 0.94325 0.0
H1399 H 0.19707 0.79728 0.96266 0.0
H1400 H 0.21737 0.78031 0.95732 0.0
H1401 H 0.28044 0.82097 0.93496 0.0
H1402 H 0.27863 0.8455 0.96317 0.0
H1403 H 0.21383 0.8347 0.96701 0.0
C1404 C 0.21904 0.77777 0.90493 0.0
C1405 C 0.23344 0.76909 0.89188 0.0
C1406 C 0.25381 0.77617 0.89266 0.0
C1407 C 0.25999 0.79135 0.90643 0.0
C1408 C 0.24561 0.79928 0.91938 0.0
C1409 C 0.22555 0.7929 0.91879 0.0
C1410 C 0.21343 0.80393 0.93479 0.0
C1411 C 0.1964 0.81595 0.92513 0.0
C1412 C 0.20497 0.789 0.95043 0.0
C1413 C 0.22978 0.81779 0.94406 0.0
C1414 C 0.24826 0.81444 0.9351 0.0
C1415 C 0.266 0.82413 0.94179 0.0
C1416 C 0.26481 0.83809 0.95773 0.0
C1417 C 0.24599 0.84264 0.9665 0.0
C1418 C 0.22829 0.83195 0.96001 0.0
H1419 H 0.03905 0.55403 0.37758 0.0
H1420 H 0.03426 0.49146 0.39638 0.0
H1421 H 0.05429 0.48101 0.36659 0.0
H1422 H 0.03495 0.5438 0.32381 0.0
H1423 H 0.05271 0.56388 0.31753 0.0
H1424 H 0.03751 0.56598 0.33991 0.0
H1425 H 0.06999 0.57149 0.36157 0.0
H1426 H 0.08527 0.56938 0.33928 0.0
H1427 H 0.08959 0.55302 0.36031 0.0
H1428 H 0.07718 0.47812 0.33543 0.0
H1429 H 0.09897 0.48293 0.30542 0.0
H1430 H 0.08702 0.54734 0.30734 0.0
C1431 C 0.04221 0.53811 0.37543 0.0
C1432 C 0.03524 0.52355 0.38932 0.0
C1433 C 0.03941 0.50283 0.38583 0.0
C1434 C 0.05081 0.49679 0.36901 0.0
C1435 C 0.05768 0.51163 0.35571 0.0
C1436 C 0.05333 0.53184 0.3587 0.0
C1437 C 0.06248 0.54494 0.34243 0.0
C1438 C 0.04592 0.55525 0.3302 0.0
C1439 C 0.07774 0.56062 0.35144 0.0
C1440 C 0.07295 0.52904 0.32994 0.0
C1441 C 0.07013 0.50989 0.33775 0.0
C1442 C 0.07927 0.49304 0.32907 0.0
C1443 C 0.09165 0.4959 0.31204 0.0
C1444 C 0.09463 0.51546 0.30383 0.0
C1445 C 0.08493 0.5321 0.31294 0.0
H1446 H 0.81039 0.73749 0.90071 0.0
H1447 H 0.76172 0.77791 0.91692 0.0
H1448 H 0.75259 0.75626 0.94474 0.0
H1449 H 0.77892 0.69304 0.90804 0.0
H1450 H 0.79902 0.67765 0.91723 0.0
H1451 H 0.80461 0.69795 0.90011 0.0
H1452 H 0.83059 0.71332 0.92574 0.0
H1453 H 0.82487 0.69316 0.94305 0.0
H1454 H 0.82262 0.71922 0.95108 0.0
H1455 H 0.74738 0.73105 0.9703 0.0
H1456 H 0.74162 0.69932 0.98844 0.0
H1457 H 0.78967 0.67125 0.95444 0.0
C1458 C 0.7979 0.74198 0.91009 0.0
C1459 C 0.78776 0.76048 0.90692 0.0
C1460 C 0.77101 0.76496 0.91949 0.0
C1461 C 0.76539 0.75251 0.93541 0.0
C1462 C 0.77599 0.73494 0.9384 0.0
C1463 C 0.79144 0.72919 0.92581 0.0
C1464 C 0.79825 0.70798 0.93105 0.0
C1465 C 0.795 0.69328 0.91303 0.0
C1466 C 0.8204 0.70846 0.93816 0.0
C1467 C 0.78396 0.70284 0.94834 0.0
C1468 C 0.77171 0.71901 0.9525 0.0
C1469 C 0.75684 0.71824 0.96722 0.0
C1470 C 0.75371 0.70015 0.97747 0.0
C1471 C 0.76519 0.68289 0.97287 0.0
C1472 C 0.78095 0.68435 0.95849 0.0
H1473 H 0.97675 0.9599 0.38156 0.0
H1474 H 0.97316 0.02109 0.40571 0.0
H1475 H 0.9508 0.03016 0.37746 0.0
H1476 H 0.97995 0.97364 0.33056 0.0
H1477 H 0.96486 0.95253 0.32082 0.0
H1478 H 0.97883 0.95007 0.34398 0.0
H1479 H 0.94591 0.9396 0.36261 0.0
H1480 H 0.93186 0.94181 0.33943 0.0
H1481 H 0.9244 0.9558 0.36161 0.0
H1482 H 0.93066 0.03325 0.34552 0.0
H1483 H 0.91327 0.02986 0.31259 0.0
H1484 H 0.93052 0.96682 0.30862 0.0
C1485 C 0.97079 0.97503 0.38111 0.0
C1486 C 0.97648 0.98977 0.39586 0.0
C1487 C 0.96886 0.00959 0.39456 0.0
C1488 C 0.95618 0.01487 0.37859 0.0
C1489 C 0.95128 1.00018 0.36395 0.0
C1490 C 0.95822 0.98062 0.3651 0.0
C1491 C 0.95155 0.96808 0.34679 0.0
C1492 C 0.96989 0.96065 0.33483 0.0
C1493 C 0.9376 0.95027 0.35299 0.0
C1494 C 0.94003 0.98371 0.33511 0.0
C1495 C 0.93996 1.00209 0.34533 0.0
C1496 C 0.93052 0.0189 0.33742 0.0
C1497 C 0.92072 0.01683 0.31864 0.0
C1498 C 0.92052 0.99811 0.30786 0.0
C1499 C 0.93041 0.9814 0.31632 0.0
H1500 H 0.21303 0.25598 0.59614 0.0
H1501 H 0.21275 0.21667 0.648 0.0
H1502 H 0.21565 0.18679 0.62538 0.0
H1503 H 0.18318 0.22152 0.56318 0.0
H1504 H 0.19718 0.22821 0.54087 0.0
H1505 H 0.19455 0.24652 0.56108 0.0
H1506 H 0.23353 0.25107 0.56328 0.0
H1507 H 0.23627 0.23282 0.54309 0.0
H1508 H 0.24882 0.22917 0.5669 0.0
H1509 H 0.22149 0.16169 0.5976 0.0
H1510 H 0.22761 0.14244 0.56604 0.0
H1511 H 0.22168 0.19737 0.53166 0.0
C1512 C 0.21349 0.24105 0.60267 0.0
C1513 C 0.21267 0.23857 0.6238 0.0
C1514 C 0.21319 0.21884 0.63184 0.0
C1515 C 0.21489 0.20181 0.61912 0.0
C1516 C 0.21575 0.20475 0.59837 0.0
C1517 C 0.21484 0.22383 0.59014 0.0
C1518 C 0.21612 0.22272 0.5673 0.0
C1519 C 0.19659 0.23018 0.55753 0.0
C1520 C 0.2348 0.23465 0.5597 0.0
C1521 C 0.2183 0.20008 0.56402 0.0
C1522 C 0.21815 0.19005 0.58219 0.0
C1523 C 0.2213 0.1693 0.58326 0.0
C1524 C 0.2248 0.15852 0.5653 0.0
C1525 C 0.22481 0.16842 0.54651 0.0
C1526 C 0.22128 0.18942 0.54584 0.0
H1527 H 0.49147 0.49625 0.63689 0.0
H1528 H 0.49478 0.56195 0.64199 0.0
H1529 H 0.47258 0.56067 0.67164 0.0
H1530 H 0.43995 0.49001 0.65062 0.0
H1531 H 0.44337 0.46748 0.66517 0.0
H1532 H 0.46025 0.47322 0.64467 0.0
H1533 H 0.49099 0.47162 0.6689 0.0
H1534 H 0.47419 0.46574 0.68946 0.0
H1535 H 0.49161 0.48713 0.69152 0.0
H1536 H 0.44839 0.55277 0.69916 0.0
H1537 H 0.42507 0.53847 0.72443 0.0
H1538 H 0.43834 0.4777 0.70309 0.0
C1539 C 0.48778 0.51033 0.64444 0.0
C1540 C 0.4947 0.52922 0.63689 0.0
C1541 C 0.48935 0.54731 0.64716 0.0
C1542 C 0.47684 0.54675 0.66413 0.0
C1543 C 0.46993 0.52798 0.67089 0.0
C1544 C 0.47534 0.51006 0.66156 0.0
C1545 C 0.46547 0.49197 0.67186 0.0
C1546 C 0.45143 0.47996 0.6572 0.0
C1547 C 0.48152 0.47831 0.68098 0.0
C1548 C 0.45351 0.50259 0.68821 0.0
C1549 C 0.4563 0.52336 0.6873 0.0
C1550 C 0.44623 0.53651 0.70018 0.0
C1551 C 0.43293 0.52823 0.71444 0.0
C1552 C 0.42989 0.50696 0.71583 0.0
C1553 C 0.44047 0.49401 0.70257 0.0
H1554 H 0.7719 0.30068 0.64 0.0
H1555 H 0.83486 0.29114 0.6253 0.0
H1556 H 0.83195 0.31378 0.59622 0.0
H1557 H 0.75335 0.30147 0.58945 0.0
H1558 H 0.73548 0.32118 0.59404 0.0
H1559 H 0.74263 0.3048 0.61421 0.0
H1560 H 0.75352 0.33615 0.63598 0.0
H1561 H 0.74645 0.35264 0.61584 0.0
H1562 H 0.77171 0.35422 0.62616 0.0
H1563 H 0.82177 0.33508 0.56745 0.0
H1564 H 0.80522 0.35514 0.54126 0.0
H1565 H 0.74923 0.35294 0.57507 0.0
C1566 C 0.78506 0.30345 0.63067 0.0
C1567 C 0.80366 0.29423 0.63496 0.0
C1568 C 0.82056 0.29825 0.62246 0.0
C1569 C 0.81904 0.31103 0.60587 0.0
C1570 C 0.80054 0.31989 0.60205 0.0
C1571 C 0.78387 0.31644 0.61414 0.0
C1572 C 0.76573 0.32775 0.60645 0.0
C1573 C 0.74827 0.31291 0.60069 0.0
C1574 C 0.75896 0.34363 0.62204 0.0
C1575 C 0.77474 0.33777 0.58795 0.0
C1576 C 0.79485 0.33294 0.58573 0.0
C1577 C 0.80614 0.33923 0.56918 0.0
C1578 C 0.79662 0.35059 0.55438 0.0
C1579 C 0.77609 0.35581 0.55633 0.0
C1580 C 0.76509 0.34955 0.57348 0.0
H1581 H 0.55042 0.97732 0.63748 0.0
H1582 H 0.52856 0.03707 0.62326 0.0
H1583 H 0.54424 0.05089 0.6543 0.0
H1584 H 0.54529 0.98061 0.69118 0.0
H1585 H 0.56858 0.96809 0.69656 0.0
H1586 H 0.55498 0.96229 0.6735 0.0
H1587 H 0.5869 0.97144 0.65266 0.0
H1588 H 0.60065 0.97704 0.67567 0.0
H1589 H 0.59923 0.9959 0.65635 0.0
H1590 H 0.56105 0.05828 0.6872 0.0
H1591 H 0.58194 0.05993 0.71793 0.0
H1592 H 0.59583 0.99627 0.7099 0.0
C1593 C 0.54908 0.99335 0.64073 0.0
C1594 C 0.53774 0.00593 0.628 0.0
C1595 C 0.53647 0.02686 0.63299 0.0
C1596 C 0.54547 0.03494 0.65057 0.0
C1597 C 0.55607 0.02206 0.66294 0.0
C1598 C 0.55829 1.00182 0.65812 0.0
C1599 C 0.57132 0.9916 0.6737 0.0
C1600 C 0.55932 0.97464 0.68437 0.0
C1601 C 0.59068 0.98352 0.66402 0.0
C1602 C 0.57601 0.00931 0.68797 0.0
C1603 C 0.56679 0.02663 0.68157 0.0
C1604 C 0.56852 0.04487 0.6923 0.0
C1605 C 0.58041 0.0456 0.70982 0.0
C1606 C 0.59075 0.02828 0.71635 0.0
C1607 C 0.58823 0.00982 0.70533 0.0
H1608 H 0.89024 0.24367 0.77832 0.0
H1609 H 0.89341 0.17797 0.77599 0.0
H1610 H 0.92075 0.1795 0.80127 0.0
H1611 H 0.94649 0.2517 0.78429 0.0
H1612 H 0.94308 0.27389 0.79997 0.0
H1613 H 0.92489 0.26733 0.78049 0.0
H1614 H 0.8977 0.26919 0.8071 0.0
H1615 H 0.9147 0.27257 0.82823 0.0
H1616 H 0.89689 0.25126 0.82712 0.0
H1617 H 0.94794 0.18791 0.82637 0.0
H1618 H 0.97359 0.20295 0.8498 0.0
H1619 H 0.95201 0.26293 0.83732 0.0
C1620 C 0.89693 0.2296 0.78274 0.0
C1621 C 0.8893 0.21067 0.77532 0.0
C1622 C 0.89849 0.19266 0.78179 0.0
C1623 C 0.9142 0.19335 0.79604 0.0
C1624 C 0.92089 0.21219 0.80345 0.0
C1625 C 0.9129 0.23001 0.79673 0.0
C1626 C 0.92287 0.24825 0.80723 0.0
C1627 C 0.93506 0.26104 0.79209 0.0
C1628 C 0.90714 0.2611 0.81813 0.0
C1629 C 0.93684 0.2378 0.8218 0.0
C1630 C 0.93587 0.217 0.81886 0.0
C1631 C 0.94865 0.20412 0.82906 0.0
C1632 C 0.96307 0.21274 0.84236 0.0
C1633 C 0.96408 0.2339 0.8459 0.0
C1634 C 0.95081 0.2466 0.83552 0.0
H1635 H 0.48069 0.89774 0.45516 0.0
H1636 H 0.51503 0.88012 0.5079 0.0
H1637 H 0.52546 0.84937 0.4898 0.0
H1638 H 0.46027 0.84869 0.44563 0.0
H1639 H 0.46026 0.85118 0.41859 0.0
H1640 H 0.45812 0.87332 0.43451 0.0
H1641 H 0.48932 0.88977 0.41701 0.0
H1642 H 0.49164 0.86755 0.40113 0.0
H1643 H 0.51281 0.87649 0.41632 0.0
H1644 H 0.53092 0.81919 0.46627 0.0
H1645 H 0.52728 0.79097 0.44121 0.0
H1646 H 0.48636 0.8268 0.40611 0.0
C1647 C 0.49034 0.88752 0.46311 0.0
C1648 C 0.49711 0.89181 0.48307 0.0
C1649 C 0.51 0.8778 0.49248 0.0
C1650 C 0.51596 0.8601 0.48234 0.0
C1651 C 0.50877 0.85634 0.46283 0.0
C1652 C 0.49601 0.86956 0.45345 0.0
C1653 C 0.48865 0.86111 0.43329 0.0
C1654 C 0.46546 0.85841 0.433 0.0
C1655 C 0.49605 0.87453 0.41592 0.0
C1656 C 0.49894 0.84089 0.43297 0.0
C1657 C 0.51091 0.83857 0.44987 0.0
C1658 C 0.52164 0.8209 0.45295 0.0
C1659 C 0.5196 0.80501 0.43863 0.0
C1660 C 0.5066 0.80682 0.4218 0.0
C1661 C 0.49644 0.8251 0.41884 0.0
H1662 H 0.12721 0.27689 0.78129 0.0
H1663 H 0.10932 0.33561 0.76006 0.0
H1664 H 0.08106 0.33555 0.78454 0.0
H1665 H 0.0783 0.25578 0.78867 0.0
H1666 H 0.08475 0.24254 0.8113 0.0
H1667 H 0.10384 0.24774 0.79268 0.0
H1668 H 0.12617 0.26611 0.81986 0.0
H1669 H 0.10714 0.26094 0.8386 0.0
H1670 H 0.11588 0.28664 0.83449 0.0
H1671 H 0.05283 0.32726 0.80938 0.0
H1672 H 0.02885 0.31282 0.83435 0.0
H1673 H 0.06699 0.26077 0.84069 0.0
C1674 C 0.1174 0.28978 0.78193 0.0
C1675 C 0.1203 0.30623 0.7688 0.0
C1676 C 0.10732 0.32293 0.7701 0.0
C1677 C 0.09124 0.32297 0.78389 0.0
C1678 C 0.08862 0.30637 0.7965 0.0
C1679 C 0.10155 0.29023 0.79583 0.0
C1680 C 0.09552 0.27422 0.81092 0.0
C1681 C 0.09029 0.25387 0.80025 0.0
C1682 C 0.11217 0.27185 0.82692 0.0
C1683 C 0.07692 0.28363 0.81992 0.0
C1684 C 0.07306 0.30212 0.81137 0.0
C1685 C 0.0559 0.31296 0.81642 0.0
C1686 C 0.04236 0.30465 0.83056 0.0
C1687 C 0.04624 0.28586 0.83964 0.0
C1688 C 0.06384 0.27538 0.83432 0.0
H1689 H 0.53154 0.63181 0.46771 0.0
H1690 H 0.51139 0.6598 0.5236 0.0
H1691 H 0.50277 0.69049 0.50525 0.0
H1692 H 0.55414 0.67885 0.44697 0.0
H1693 H 0.54663 0.67246 0.42145 0.0
H1694 H 0.55189 0.65265 0.439 0.0
H1695 H 0.51636 0.63654 0.43212 0.0
H1696 H 0.51093 0.65638 0.41468 0.0
H1697 H 0.49429 0.65166 0.43565 0.0
H1698 H 0.49351 0.71685 0.48097 0.0
H1699 H 0.48723 0.73916 0.45223 0.0
H1700 H 0.51558 0.69605 0.41191 0.0
C1701 C 0.52564 0.64452 0.47614 0.0
C1702 C 0.5218 0.64314 0.4971 0.0
C1703 C 0.51396 0.66016 0.50748 0.0
C1704 C 0.50915 0.67778 0.49722 0.0
C1705 C 0.51256 0.67842 0.47656 0.0
C1706 C 0.52093 0.66244 0.46612 0.0
C1707 C 0.5229 0.66725 0.44385 0.0
C1708 C 0.54522 0.66784 0.43744 0.0
C1709 C 0.51037 0.65205 0.43081 0.0
C1710 C 0.51399 0.68825 0.44345 0.0
C1711 C 0.50803 0.69426 0.46252 0.0
C1712 C 0.49836 0.71247 0.46599 0.0
C1713 C 0.49475 0.72498 0.44956 0.0
C1714 C 0.50102 0.7194 0.4299 0.0
C1715 C 0.51089 0.70082 0.42684 0.0
H1716 H 0.90185 0.77177 0.76308 0.0
H1717 H 0.86865 0.81376 0.7261 0.0
H1718 H 0.89444 0.81108 0.69991 0.0
H1719 H 0.95226 0.78561 0.74818 0.0
H1720 H 0.9607 0.75987 0.74689 0.0
H1721 H 0.94083 0.7666 0.76405 0.0
H1722 H 0.91717 0.7388 0.74808 0.0
H1723 H 0.93705 0.73182 0.73108 0.0
H1724 H 0.91273 0.73861 0.72123 0.0
H1725 H 0.92435 0.80437 0.67751 0.0
H1726 H 0.95263 0.78945 0.65842 0.0
H1727 H 0.96323 0.74829 0.70748 0.0
C1728 C 0.89968 0.78034 0.7495 0.0
C1729 C 0.88317 0.79348 0.7473 0.0
C1730 C 0.88141 0.80428 0.72897 0.0
C1731 C 0.89598 0.80274 0.71375 0.0
C1732 C 0.91205 0.7899 0.71662 0.0
C1733 C 0.9137 0.77849 0.73381 0.0
C1734 C 0.93141 0.76439 0.73236 0.0
C1735 C 0.94724 0.76943 0.74885 0.0
C1736 C 0.92415 0.74209 0.73323 0.0
C1737 C 0.93939 0.76965 0.71163 0.0
C1738 C 0.92832 0.78478 0.70301 0.0
C1739 C 0.93306 0.79243 0.68405 0.0
C1740 C 0.9492 0.78401 0.67339 0.0
C1741 C 0.96002 0.76781 0.68154 0.0
C1742 C 0.95516 0.7607 0.70097 0.0
H1743 H 0.00675 0.86178 0.52753 0.0
H1744 H 0.03131 0.90856 0.56811 0.0
H1745 H 0.02957 0.8847 0.59622 0.0
H1746 H 0.97157 0.83918 0.56448 0.0
H1747 H 0.97528 0.81367 0.5554 0.0
H1748 H 0.9777 0.83462 0.53836 0.0
H1749 H 0.01373 0.82343 0.52889 0.0
H1750 H 0.01147 0.80252 0.54595 0.0
H1751 H 0.03232 0.82051 0.54853 0.0
H1752 H 0.02779 0.8555 0.61941 0.0
H1753 H 0.02405 0.82291 0.63692 0.0
H1754 H 0.99867 0.79497 0.5825 0.0
C1755 C 0.01145 0.8671 0.54239 0.0
C1756 C 0.01945 0.88705 0.54546 0.0
C1757 C 0.02558 0.89328 0.56517 0.0
C1758 C 0.02451 0.87987 0.58133 0.0
C1759 C 0.017 0.86026 0.57772 0.0
C1760 C 0.01034 0.85389 0.55883 0.0
C1761 C 1.00326 0.8318 0.55914 0.0
C1762 C 0.9806 0.8297 0.55404 0.0
C1763 C 0.01596 0.8188 0.54478 0.0
C1764 C 0.00731 0.82674 0.58106 0.0
C1765 C 0.01528 0.84343 0.59144 0.0
C1766 C 0.02131 0.84238 0.61154 0.0
C1767 C 0.01919 0.82378 0.62134 0.0
C1768 C 0.01092 0.80647 0.61114 0.0
C1769 C 1.00473 0.80805 0.59076 0.0
H1770 H 0.12446 0.74454 0.7399 0.0
H1771 H 0.11574 0.68192 0.75773 0.0
H1772 H 0.08462 0.67925 0.73715 0.0
H1773 H 0.0716 0.75758 0.73935 0.0
H1774 H 0.07368 0.77314 0.7173 0.0
H1775 H 0.09521 0.77048 0.73371 0.0
H1776 H 0.11651 0.75815 0.70343 0.0
H1777 H 0.09506 0.76081 0.68693 0.0
H1778 H 0.10743 0.73684 0.68833 0.0
H1779 H 0.05444 0.68325 0.7156 0.0
H1780 H 0.02752 0.69284 0.69235 0.0
H1781 H 0.05568 0.75274 0.68669 0.0
C1782 C 0.11592 0.73032 0.73947 0.0
C1783 C 0.12252 0.71339 0.75037 0.0
C1784 C 0.11107 0.69498 0.74933 0.0
C1785 C 0.09332 0.69335 0.73778 0.0
C1786 C 0.08725 0.71024 0.7272 0.0
C1787 C 0.09821 0.72834 0.72775 0.0
C1788 C 0.08844 0.74392 0.71441 0.0
C1789 C 0.08184 0.76237 0.72694 0.0
C1790 C 0.10271 0.7503 0.69726 0.0
C1791 C 0.07027 0.73171 0.70638 0.0
C1792 C 0.06989 0.7124 0.71415 0.0
C1793 C 0.05459 0.6983 0.70933 0.0
C1794 C 0.03931 0.70397 0.69608 0.0
C1795 C 0.0394 0.72357 0.68752 0.0
C1796 C 0.05516 0.73763 0.69285 0.0
H1797 H 0.97284 0.64965 0.53331 0.0
H1798 H 0.02663 0.61525 0.54435 0.0
H1799 H 0.03864 0.64142 0.56904 0.0
H1800 H 1.00056 0.70154 0.54052 0.0
H1801 H 0.97799 0.71217 0.551 0.0
H1802 H 0.97606 0.69264 0.53172 0.0
H1803 H 0.95254 0.67408 0.55494 0.0
H1804 H 0.95635 0.68966 0.57721 0.0
H1805 H 0.96206 0.66297 0.57734 0.0
H1806 H 0.04407 0.6707 0.59338 0.0
H1807 H 0.04173 0.70002 0.61697 0.0
H1808 H 0.98296 0.71361 0.59228 0.0
C1809 C 0.98737 0.64793 0.54061 0.0
C1810 C 0.99887 0.63052 0.53701 0.0
C1811 C 0.01774 0.62862 0.54683 0.0
C1812 C 0.02467 0.6434 0.56083 0.0
C1813 C 0.01273 0.66018 0.56444 0.0
C1814 C 0.99472 0.66279 0.55426 0.0
C1815 C 0.98432 0.68171 0.56164 0.0
C1816 C 0.98477 0.69798 0.54525 0.0
C1817 C 0.96253 0.67689 0.56826 0.0
C1818 C 0.99812 0.688 0.5791 0.0
C1819 C 0.01501 0.67607 0.57967 0.0
C1820 C 0.03083 0.68 0.59324 0.0
C1821 C 0.02937 0.69659 0.60659 0.0
C1822 C 0.01182 0.70836 0.60691 0.0
C1823 C 0.99611 0.70417 0.59286 0.0
H1824 H 0.77833 0.89778 0.24496 0.0
H1825 H 0.78276 0.89076 0.17987 0.0
H1826 H 0.80889 0.91815 0.17943 0.0
H1827 H 0.78513 0.95435 0.24407 0.0
H1828 H 0.7981 0.95447 0.26805 0.0
H1829 H 0.77874 0.93547 0.2625 0.0
H1830 H 0.80396 0.90927 0.27198 0.0
H1831 H 0.82556 0.92628 0.27448 0.0
H1832 H 0.82572 0.90525 0.25669 0.0
H1833 H 0.83334 0.94794 0.18607 0.0
H1834 H 0.8566 0.97493 0.19982 0.0
H1835 H 0.83787 0.96016 0.26045 0.0
C1836 C 0.78439 0.90218 0.23049 0.0
C1837 C 0.77837 0.89194 0.21244 0.0
C1838 C 0.78725 0.89804 0.19398 0.0
C1839 C 0.80197 0.91377 0.19353 0.0
C1840 C 0.80752 0.92344 0.21162 0.0
C1841 C 0.79883 0.91799 0.22972 0.0
C1842 C 0.80754 0.93056 0.24712 0.0
C1843 C 0.79142 0.94454 0.25595 0.0
C1844 C 0.81629 0.91709 0.26354 0.0
C1845 C 0.82368 0.94281 0.23621 0.0
C1846 C 0.82275 0.93924 0.21561 0.0
C1847 C 0.83452 0.95054 0.20219 0.0
C1848 C 0.84766 0.96578 0.21007 0.0
C1849 C 0.84956 0.96885 0.23112 0.0
C1850 C 0.8373 0.95736 0.24431 0.0
H1851 H 0.75873 0.09716 0.29407 0.0
H1852 H 0.7983 0.14581 0.31693 0.0
H1853 H 0.82742 0.12336 0.31441 0.0
H1854 H 0.78475 0.05563 0.3191 0.0
H1855 H 0.78115 0.03832 0.29803 0.0
H1856 H 0.76299 0.05771 0.30286 0.0
H1857 H 0.7677 0.07094 0.26654 0.0
H1858 H 0.78577 0.05156 0.26158 0.0
H1859 H 0.79273 0.07784 0.25792 0.0
H1860 H 0.85262 0.09725 0.30637 0.0
H1861 H 0.87245 0.06844 0.29396 0.0
H1862 H 0.81702 0.03561 0.27771 0.0
C1863 C 0.77351 0.10302 0.29866 0.0
C1864 C 0.77619 0.12323 0.30584 0.0
C1865 C 0.79578 0.13031 0.31171 0.0
C1866 C 0.81245 0.11769 0.31028 0.0
C1867 C 0.80931 0.09791 0.30312 0.0
C1868 C 0.79035 0.09052 0.29751 0.0
C1869 C 0.79137 0.06884 0.28962 0.0
C1870 C 0.77935 0.05426 0.30321 0.0
C1871 C 0.78396 0.06721 0.26761 0.0
C1872 C 0.81394 0.06542 0.2912 0.0
C1873 C 0.82394 0.08243 0.29908 0.0
C1874 C 0.84495 0.0837 0.30055 0.0
C1875 C 0.85608 0.06729 0.29347 0.0
C1876 C 0.84621 0.04975 0.28531 0.0
C1877 C 0.82485 0.04864 0.28448 0.0
H1878 H 0.37711 0.97946 0.96961 0.0
H1879 H 0.39862 0.97882 0.03143 0.0
H1880 H 0.367 0.96074 0.04162 0.0
H1881 H 0.32455 0.98792 0.98138 0.0
H1882 H 0.31532 0.97203 0.96083 0.0
H1883 H 0.33941 0.98518 0.95881 0.0
H1884 H 0.35682 0.9511 0.95131 0.0
H1885 H 0.33278 0.93789 0.95316 0.0
H1886 H 0.35369 0.93052 0.96871 0.0
H1887 H 0.33332 0.94027 0.04415 0.0
H1888 H 0.30127 0.92049 0.03874 0.0
H1889 H 0.30208 0.93722 0.97562 0.0
C1890 C 0.3752 0.97547 0.98529 0.0
C1891 C 0.39033 0.98036 0.99971 0.0
C1892 C 0.38714 0.9752 0.02015 0.0
C1893 C 0.36925 0.96494 0.02606 0.0
C1894 C 0.35461 0.96027 0.01139 0.0
C1895 C 0.35741 0.96554 0.99145 0.0
C1896 C 0.33961 0.95878 0.97847 0.0
C1897 C 0.3291 0.97707 0.96934 0.0
C1898 C 0.34612 0.94367 0.96195 0.0
C1899 C 0.32645 0.94855 0.99408 0.0
C1900 C 0.33523 0.94944 0.01301 0.0
C1901 C 0.3262 0.93975 0.02942 0.0
C1902 C 0.30795 0.92859 0.02624 0.0
C1903 C 0.29892 0.92734 0.00681 0.0
C1904 C 0.30825 0.93794 0.99077 0.0
H1905 H 0.23648 0.38983 0.27705 0.0
H1906 H 0.25682 0.40922 0.33669 0.0
H1907 H 0.23248 0.4371 0.33632 0.0
H1908 H 0.22928 0.43885 0.25692 0.0
H1909 H 0.20678 0.43164 0.24286 0.0
H1910 H 0.2255 0.41306 0.24807 0.0
H1911 H 0.19813 0.39019 0.26482 0.0
H1912 H 0.17931 0.40873 0.25969 0.0
H1913 H 0.18321 0.40032 0.28512 0.0
H1914 H 0.20764 0.46439 0.32827 0.0
H1915 H 0.18259 0.48761 0.3141 0.0
H1916 H 0.17682 0.44907 0.26073 0.0
C1917 C 0.23575 0.39995 0.29003 0.0
C1918 C 0.24855 0.39745 0.30689 0.0
C1919 C 0.24706 0.41084 0.32368 0.0
C1920 C 0.23333 0.42673 0.32357 0.0
C1921 C 0.22097 0.42884 0.30668 0.0
C1922 C 0.22189 0.41568 0.29031 0.0
C1923 C 0.20686 0.4212 0.27409 0.0
C1924 C 0.21776 0.42651 0.25432 0.0
C1925 C 0.19093 0.40409 0.27074 0.0
C1926 C 0.19761 0.43975 0.28372 0.0
C1927 C 0.20603 0.44398 0.30247 0.0
C1928 C 0.20073 0.46105 0.31373 0.0
C1929 C 0.18652 0.47416 0.30557 0.0
C1930 C 0.17758 0.46998 0.28648 0.0
C1931 C 0.1831 0.45243 0.27556 0.0
H1932 H 0.13587 0.02833 0.51838 0.0
H1933 H 0.1385 0.01815 0.45361 0.0
H1934 H 0.16827 0.04131 0.45175 0.0
H1935 H 0.14748 0.07937 0.51851 0.0
H1936 H 0.16408 0.08088 0.54016 0.0
H1937 H 0.1445 0.06145 0.53846 0.0
H1938 H 0.16931 0.03269 0.54202 0.0
H1939 H 0.18944 0.05134 0.54558 0.0
H1940 H 0.19144 0.03196 0.52629 0.0
H1941 H 0.19774 0.065 0.45669 0.0
H1942 H 0.22361 0.09045 0.46781 0.0
H1943 H 0.20128 0.08703 0.52905 0.0
C1944 C 0.14293 0.03072 0.50387 0.0
C1945 C 0.13484 0.02146 0.48612 0.0
C1946 C 0.1443 0.02525 0.46736 0.0
C1947 C 0.1613 0.03825 0.46617 0.0
C1948 C 0.16875 0.04731 0.48387 0.0
C1949 C 0.15994 0.04374 0.50239 0.0
C1950 C 0.17056 0.05612 0.51896 0.0
C1951 C 0.1558 0.07033 0.52964 0.0
C1952 C 0.1808 0.0422 0.5341 0.0
C1953 C 0.18619 0.06776 0.50669 0.0
C1954 C 0.18516 0.06199 0.48657 0.0
C1955 C 0.1985 0.06988 0.47234 0.0
C1956 C 0.213 0.08443 0.47873 0.0
C1957 C 0.21369 0.09132 0.49901 0.0
C1958 C 0.20054 0.08244 0.51331 0.0
H1959 H 0.74002 0.12973 0.73623 0.0
H1960 H 0.72256 0.13578 0.67333 0.0
H1961 H 0.69804 0.10741 0.67694 0.0
H1962 H 0.73483 0.07211 0.73435 0.0
H1963 H 0.72712 0.07182 0.76039 0.0
H1964 H 0.74467 0.09113 0.75178 0.0
H1965 H 0.72163 0.11645 0.76737 0.0
H1966 H 0.70063 0.09959 0.77291 0.0
H1967 H 0.69751 0.12085 0.7563 0.0
H1968 H 0.67593 0.07784 0.68706 0.0
H1969 H 0.65595 0.05075 0.70383 0.0
H1970 H 0.68627 0.06524 0.76044 0.0
C1971 C 0.73153 0.12486 0.72297 0.0
C1972 C 0.73325 0.13536 0.70452 0.0
C1973 C 0.7213 0.12851 0.68781 0.0
C1974 C 0.70748 0.11216 0.6896 0.0
C1975 C 0.70603 0.10245 0.70807 0.0
C1976 C 0.71801 0.10828 0.72434 0.0
C1977 C 0.71321 0.09551 0.74263 0.0
C1978 C 0.73101 0.08183 0.74757 0.0
C1979 C 0.70785 0.10883 0.76092 0.0
C1980 C 0.6953 0.08293 0.73463 0.0
C1981 C 0.69215 0.08646 0.71435 0.0
C1982 C 0.67799 0.07518 0.70299 0.0
C1983 C 0.66671 0.0599 0.7126 0.0
C1984 C 0.66899 0.0567 0.73351 0.0
C1985 C 0.6836 0.06819 0.74463 0.0
H1986 H 0.38682 0.03938 0.50237 0.0
H1987 H 0.37509 0.02308 0.56445 0.0
H1988 H 0.34328 0.04162 0.5637 0.0
H1989 H 0.36995 0.08882 0.50594 0.0
H1990 H 0.35787 0.08959 0.48155 0.0
H1991 H 0.37854 0.07286 0.48556 0.0
H1992 H 0.35622 0.04214 0.47369 0.0
H1993 H 0.33551 0.05883 0.46936 0.0
H1994 H 0.33214 0.03734 0.48559 0.0
H1995 H 0.31631 0.06549 0.55857 0.0
H1996 H 0.29219 0.09098 0.54791 0.0
H1997 H 0.31874 0.09144 0.48815 0.0
C1998 C 0.37715 0.03924 0.51552 0.0
C1999 C 0.38329 0.02979 0.53349 0.0
C2000 C 0.37058 0.03024 0.55059 0.0
C2001 C 0.35251 0.04071 0.5503 0.0
C2002 C 0.3472 0.05054 0.5327 0.0
C2003 C 0.35884 0.04967 0.51546 0.0
C2004 C 0.34988 0.06265 0.49901 0.0
C2005 C 0.36496 0.07947 0.49265 0.0
C2006 C 0.34303 0.04945 0.48083 0.0
C2007 C 0.33186 0.07139 0.51002 0.0
C2008 C 0.33078 0.06411 0.52945 0.0
C2009 C 0.3167 0.071 0.54328 0.0
C2010 C 0.30319 0.08562 0.53713 0.0
C2011 C 0.30359 0.09308 0.51723 0.0
C2012 C 0.31798 0.08574 0.50337 0.0
H2013 H 0.64021 0.4854 0.54258 0.0
H2014 H 0.62388 0.50014 0.48104 0.0
H2015 H 0.64943 0.47698 0.46824 0.0
H2016 H 0.69337 0.48121 0.53457 0.0
H2017 H 0.69642 0.45975 0.55071 0.0
H2018 H 0.67654 0.47732 0.55556 0.0
H2019 H 0.64997 0.44784 0.55398 0.0
H2020 H 0.66978 0.43015 0.54922 0.0
H2021 H 0.64872 0.43145 0.53198 0.0
H2022 H 0.67742 0.45423 0.46171 0.0
H2023 H 0.70544 0.43076 0.4614 0.0
H2024 H 0.70354 0.42798 0.52687 0.0
C2025 C 0.64187 0.48358 0.52643 0.0
C2026 C 0.6302 0.49499 0.51285 0.0
C2027 C 0.63294 0.49211 0.49181 0.0
C2028 C 0.64733 0.47883 0.48434 0.0
C2029 C 0.65881 0.4682 0.49804 0.0
C2030 C 0.65619 0.47015 0.51862 0.0
C2031 C 0.67073 0.45673 0.52984 0.0
C2032 C 0.68512 0.46952 0.54347 0.0
C2033 C 0.6591 0.44058 0.54197 0.0
C2034 C 0.68201 0.44719 0.51228 0.0
C2035 C 0.67481 0.4542 0.49415 0.0
C2036 C 0.68307 0.44843 0.47578 0.0
C2037 C 0.69909 0.43505 0.47582 0.0
C2038 C 0.70674 0.42726 0.49411 0.0
C2039 C 0.69796 0.43344 0.51263 0.0
H2040 H 0.74269 0.26504 0.41203 0.0
H2041 H 0.67744 0.2681 0.4054 0.0
H2042 H 0.67729 0.29699 0.42931 0.0
H2043 H 0.74229 0.27945 0.46781 0.0
H2044 H 0.76635 0.29264 0.46548 0.0
H2045 H 0.76056 0.27069 0.44981 0.0
H2046 H 0.7699 0.29204 0.41992 0.0
H2047 H 0.77245 0.31591 0.43329 0.0
H2048 H 0.75435 0.31258 0.41285 0.0
H2049 H 0.68408 0.3256 0.45381 0.0
H2050 H 0.69766 0.35265 0.47673 0.0
H2051 H 0.75853 0.33252 0.46587 0.0
C2052 C 0.72826 0.27134 0.41599 0.0
C2053 C 0.71011 0.26435 0.40651 0.0
C2054 C 0.69165 0.27342 0.41198 0.0
C2055 C 0.69135 0.28973 0.42575 0.0
C2056 C 0.70957 0.2966 0.43428 0.0
C2057 C 0.72763 0.28743 0.42998 0.0
C2058 C 0.74515 0.29818 0.44083 0.0
C2059 C 0.75411 0.28442 0.45694 0.0
C2060 C 0.76145 0.30518 0.42587 0.0
C2061 C 0.73432 0.31577 0.45061 0.0
C2062 C 0.71368 0.31404 0.4473 0.0
C2063 C 0.70022 0.3273 0.45628 0.0
C2064 C 0.70802 0.34263 0.46918 0.0
C2065 C 0.72909 0.34509 0.47225 0.0
C2066 C 0.74241 0.33146 0.46293 0.0
H2067 H 0.5635 0.04024 0.89772 0.0
H2068 H 0.5112 1.00429 0.877 0.0
H2069 H 0.52971 0.99503 0.84625 0.0
H2070 H 0.57253 0.06213 0.8504 0.0
H2071 H 0.59963 0.0633 0.85345 0.0
H2072 H 0.58359 0.06428 0.87527 0.0
H2073 H 0.60185 0.03352 0.89014 0.0
H2074 H 0.61786 0.03236 0.86825 0.0
H2075 H 0.60313 0.01033 0.87554 0.0
H2076 H 0.55371 0.99097 0.81648 0.0
H2077 H 0.579 0.99601 0.78929 0.0
H2078 H 0.61288 0.03819 0.82792 0.0
C2079 C 0.55567 0.03052 0.88682 0.0
C2080 C 0.53571 0.02302 0.8902 0.0
C2081 C 0.52658 0.00995 0.87535 0.0
C2082 C 0.53697 1.00465 0.85764 0.0
C2083 C 0.55641 0.01271 0.85474 0.0
C2084 C 0.56552 0.02559 0.86885 0.0
C2085 C 0.58556 0.03404 0.86132 0.0
C2086 C 0.5853 0.05731 0.86003 0.0
C2087 C 0.60314 0.02714 0.8746 0.0
C2088 C 0.58617 0.02418 0.8406 0.0
C2089 C 0.56951 0.01148 0.83723 0.0
C2090 C 0.56681 1.00085 0.81901 0.0
C2091 C 0.58125 1.0037 0.80371 0.0
C2092 C 0.59782 0.01742 0.80662 0.0
C2093 C 0.60038 0.02756 0.82537 0.0
H2094 H 0.27187 0.25121 0.40347 0.0
H2095 H 0.33721 0.24884 0.40819 0.0
H2096 H 0.33364 0.22174 0.43354 0.0
H2097 H 0.26123 0.24383 0.45615 0.0
H2098 H 0.23868 0.22869 0.45101 0.0
H2099 H 0.24674 0.24787 0.43353 0.0
H2100 H 0.24698 0.22091 0.40465 0.0
H2101 H 0.23892 0.20167 0.42204 0.0
H2102 H 0.26166 0.19847 0.40756 0.0
H2103 H 0.32213 0.194 0.45868 0.0
H2104 H 0.30398 0.1686 0.47972 0.0
H2105 H 0.24675 0.19097 0.45808 0.0
C2106 C 0.2855 0.24528 0.41001 0.0
C2107 C 0.30483 0.25232 0.40391 0.0
C2108 C 0.32221 0.24364 0.41252 0.0
C2109 C 0.32033 0.22831 0.42703 0.0
C2110 C 0.30097 0.22183 0.43276 0.0
C2111 C 0.2839 0.23011 0.42443 0.0
C2112 C 0.26476 0.22045 0.43264 0.0
C2113 C 0.25211 0.23615 0.44401 0.0
C2114 C 0.25236 0.20974 0.41572 0.0
C2115 C 0.27363 0.20536 0.4469 0.0
C2116 C 0.29451 0.20627 0.44691 0.0
C2117 C 0.30576 0.19327 0.45879 0.0
C2118 C 0.29534 0.17891 0.47074 0.0
C2119 C 0.27391 0.17768 0.47065 0.0
C2120 C 0.26312 0.19133 0.45865 0.0
H2121 H 0.48669 0.46752 0.87748 0.0
H2122 H 0.49135 0.53161 0.8928 0.0
H2123 H 0.46811 0.53906 0.86465 0.0
H2124 H 0.4858 0.47347 0.82372 0.0
H2125 H 0.46804 0.45267 0.81938 0.0
H2126 H 0.4848 0.45251 0.84086 0.0
H2127 H 0.45401 0.44816 0.86461 0.0
H2128 H 0.43716 0.44833 0.8432 0.0
H2129 H 0.43398 0.46616 0.86373 0.0
H2130 H 0.44351 0.53925 0.83505 0.0
H2131 H 0.42114 0.53235 0.80559 0.0
H2132 H 0.43351 0.4682 0.80946 0.0
C2133 C 0.48272 0.48312 0.87499 0.0
C2134 C 0.49079 0.49899 0.88738 0.0
C2135 C 0.48548 0.51923 0.88342 0.0
C2136 C 0.47221 0.52359 0.86753 0.0
C2137 C 0.46449 0.50756 0.85564 0.0
C2138 C 0.46966 0.48774 0.85912 0.0
C2139 C 0.45963 0.4733 0.84396 0.0
C2140 C 0.47552 0.46235 0.83123 0.0
C2141 C 0.44535 0.45809 0.85451 0.0
C2142 C 0.44795 0.48805 0.83142 0.0
C2143 C 0.45081 0.50773 0.83844 0.0
C2144 C 0.44124 0.52389 0.82938 0.0
C2145 C 0.42852 0.51982 0.81268 0.0
C2146 C 0.42561 0.49976 0.80507 0.0
C2147 C 0.4355 0.48375 0.81471 0.0
H2148 H 0.75313 0.7272 0.12415 0.0
H2149 H 0.68802 0.73266 0.12922 0.0
H2150 H 0.68311 0.70803 0.10132 0.0
H2151 H 0.75432 0.72411 0.0702 0.0
H2152 H 0.77417 0.70591 0.06913 0.0
H2153 H 0.77276 0.72327 0.09026 0.0
H2154 H 0.77186 0.69303 0.11476 0.0
H2155 H 0.77322 0.67557 0.09368 0.0
H2156 H 0.7528 0.67323 0.11148 0.0
H2157 H 0.68492 0.68433 0.07204 0.0
H2158 H 0.69336 0.66269 0.04294 0.0
H2159 H 0.75736 0.67186 0.05623 0.0
C2160 C 0.73785 0.72319 0.1194 0.0
C2161 C 0.72096 0.73176 0.12911 0.0
C2162 C 0.70121 0.72603 0.1224 0.0
C2163 C 0.69824 0.71211 0.10645 0.0
C2164 C 0.71515 0.70396 0.09728 0.0
C2165 C 0.73458 0.70921 0.10346 0.0
C2166 C 0.75008 0.69848 0.09058 0.0
C2167 C 0.76363 0.71386 0.07938 0.0
C2168 C 0.76274 0.68423 0.10339 0.0
C2169 C 0.73628 0.6866 0.07606 0.0
C2170 C 0.71621 0.69001 0.08029 0.0
C2171 C 0.70059 0.68141 0.06865 0.0
C2172 C 0.70557 0.66913 0.0521 0.0
C2173 C 0.72603 0.66542 0.04729 0.0
C2174 C 0.74157 0.67415 0.05964 0.0
H2175 H 0.98928 1.00036 0.13694 0.0
H2176 H 0.98858 0.06616 0.13826 0.0
H2177 H 0.96666 0.06512 0.16824 0.0
H2178 H 0.93801 0.99177 0.15212 0.0
H2179 H 0.94344 0.97026 0.16749 0.0
H2180 H 0.95917 0.9761 0.14613 0.0
H2181 H 0.99082 0.97748 0.16933 0.0
H2182 H 0.97518 0.97166 0.19078 0.0
H2183 H 0.99132 0.99409 0.19117 0.0
H2184 H 0.94434 0.05704 0.19763 0.0
H2185 H 0.92285 0.04251 0.22431 0.0
H2186 H 0.939 0.9819 0.20492 0.0
C2187 C 0.98472 0.01458 0.14363 0.0
C2188 C 0.99066 0.03336 0.1351 0.0
C2189 C 0.98401 0.05157 0.14423 0.0
C2190 C 0.97167 0.05115 0.16139 0.0
C2191 C 0.96616 0.03241 0.16938 0.0
C2192 C 0.97246 0.01444 0.16083 0.0
C2193 C 0.96417 0.99633 0.17229 0.0
C2194 C 0.95038 0.98282 0.1587 0.0
C2195 C 0.9814 0.98418 0.18143 0.0
C2196 C 0.95214 0.00693 0.18857 0.0
C2197 C 0.95351 0.02774 0.18658 0.0
C2198 C 0.94323 0.04078 0.1994 0.0
C2199 C 0.93103 0.03234 0.21452 0.0
C2200 C 0.92922 0.01103 0.21681 0.0
C2201 C 0.94018 0.99823 0.20374 0.0
H2202 H 0.32347 0.77205 0.09989 0.0
H2203 H 0.27783 0.7802 0.14587 0.0
H2204 H 0.26368 0.80838 0.12668 0.0
H2205 H 0.33106 0.82509 0.0873 0.0
H2206 H 0.33339 0.82035 0.06057 0.0
H2207 H 0.34075 0.80135 0.07823 0.0
H2208 H 0.31641 0.77513 0.06078 0.0
H2209 H 0.30908 0.794 0.043 0.0
H2210 H 0.2901 0.781 0.05776 0.0
H2211 H 0.25489 0.83564 0.10345 0.0
H2212 H 0.24899 0.85851 0.07533 0.0
H2213 H 0.29872 0.83201 0.04237 0.0
C2214 C 0.31053 0.77987 0.10582 0.0
C2215 C 0.30168 0.7741 0.12433 0.0
C2216 C 0.28468 0.78442 0.13166 0.0
C2217 C 0.27665 0.80048 0.12095 0.0
C2218 C 0.28566 0.80588 0.10279 0.0
C2219 C 0.30202 0.79576 0.09506 0.0
C2220 C 0.30799 0.80406 0.0746 0.0
C2221 C 0.32958 0.81326 0.07522 0.0
C2222 C 0.30575 0.78756 0.05806 0.0
C2223 C 0.29241 0.82038 0.07209 0.0
C2224 C 0.27994 0.82127 0.08875 0.0
C2225 C 0.26447 0.83506 0.09027 0.0
C2226 C 0.2613 0.84805 0.07417 0.0
C2227 C 0.27334 0.84707 0.05655 0.0
C2228 C 0.28928 0.83315 0.05562 0.0
H2229 H 0.04107 0.52039 0.13041 0.0
H2230 H 0.03413 0.45515 0.13608 0.0
H2231 H 0.05372 0.45667 0.16771 0.0
H2232 H 0.09132 0.5246 0.14798 0.0
H2233 H 0.08845 0.5479 0.1621 0.0
H2234 H 0.07242 0.54231 0.14061 0.0
H2235 H 0.04059 0.54655 0.16275 0.0
H2236 H 0.05653 0.55238 0.18429 0.0
H2237 H 0.03788 0.53204 0.18546 0.0
H2238 H 0.07671 0.46429 0.19638 0.0
H2239 H 0.09955 0.47817 0.22284 0.0
H2240 H 0.09099 0.5389 0.20045 0.0
C2241 C 0.04333 0.50654 0.13859 0.0
C2242 C 0.03625 0.48761 0.13068 0.0
C2243 C 0.03967 0.46976 0.1417 0.0
C2244 C 0.05071 0.47047 0.15972 0.0
C2245 C 0.05809 0.48919 0.16677 0.0
C2246 C 0.05435 0.50697 0.1568 0.0
C2247 C 0.06467 0.52494 0.16757 0.0
C2248 C 0.08013 0.53556 0.15374 0.0
C2249 C 0.04898 0.53986 0.17549 0.0
C2250 C 0.0751 0.51434 0.18479 0.0
C2251 C 0.07107 0.4937 0.18394 0.0
C2252 C 0.07977 0.48046 0.19742 0.0
C2253 C 0.09285 0.48849 0.21232 0.0
C2254 C 0.09703 0.50962 0.21379 0.0
C2255 C 0.08792 0.5227 0.19985 0.0
H2256 H 0.41203 0.69228 0.27651 0.0
H2257 H 0.39378 0.75305 0.26149 0.0
H2258 H 0.41801 0.76731 0.28646 0.0
H2259 H 0.41535 0.70106 0.3282 0.0
H2260 H 0.43758 0.68666 0.33347 0.0
H2261 H 0.42121 0.67951 0.31261 0.0
H2262 H 0.4495 0.68222 0.2866 0.0
H2263 H 0.46716 0.68762 0.30686 0.0
H2264 H 0.46553 0.7047 0.28597 0.0
H2265 H 0.44405 0.77521 0.31258 0.0
H2266 H 0.46933 0.77628 0.34004 0.0
H2267 H 0.46948 0.71062 0.34041 0.0
C2268 C 0.41316 0.70859 0.2784 0.0
C2269 C 0.4011 0.72152 0.26677 0.0
C2270 C 0.40314 0.7428 0.26978 0.0
C2271 C 0.41678 0.75107 0.28405 0.0
C2272 C 0.42831 0.73792 0.29528 0.0
C2273 C 0.42671 0.71715 0.29266 0.0
C2274 C 0.44038 0.70645 0.30733 0.0
C2275 C 0.42791 0.6926 0.32126 0.0
C2276 C 0.45661 0.69455 0.29601 0.0
C2277 C 0.44969 0.72449 0.31877 0.0
C2278 C 0.44265 0.74247 0.3113 0.0
C2279 C 0.44947 0.76125 0.31874 0.0
C2280 C 0.46369 0.76171 0.33442 0.0
C2281 C 0.47063 0.74356 0.34279 0.0
C2282 C 0.46391 0.72469 0.33459 0.0
H2283 H 0.98016 0.39565 0.95256 0.0
H2284 H 1.00387 0.37483 0.00967 0.0
H2285 H 0.01276 0.34254 0.9935 0.0
H2286 H 0.95656 0.34823 0.9387 0.0
H2287 H 0.96167 0.35073 0.91216 0.0
H2288 H 0.95887 0.37303 0.92776 0.0
H2289 H 0.9941 0.38644 0.91629 0.0
H2290 H 0.99708 0.36407 0.90078 0.0
H2291 H 0.01589 0.37093 0.9196 0.0
H2292 H 0.01781 0.31167 0.97163 0.0
H2293 H 0.01602 0.2838 0.94609 0.0
H2294 H 0.98769 0.32384 0.90387 0.0
C2295 C 0.98718 0.38435 0.96174 0.0
C2296 C 0.99159 0.38814 0.9824 0.0
C2297 C 1.00085 0.37275 0.9937 0.0
C2298 C 0.00588 0.35422 0.98468 0.0
C2299 C 1.00143 0.35108 0.96433 0.0
C2300 C 0.99209 0.36562 0.95303 0.0
C2301 C 0.98773 0.3579 0.93177 0.0
C2302 C 0.96485 0.35744 0.92734 0.0
C2303 C 0.9994 0.37059 0.91619 0.0
C2304 C 0.99586 0.33669 0.93297 0.0
C2305 C 1.00394 0.33312 0.95181 0.0
C2306 C 0.01171 0.31435 0.95676 0.0
C2307 C 0.01076 0.29867 0.9422 0.0
C2308 C 1.00208 0.30194 0.92307 0.0
C2309 C 0.99476 0.3212 0.91833 0.0
H2310 H 0.63853 0.76444 0.29147 0.0
H2311 H 0.62572 0.82496 0.271 0.0
H2312 H 0.59741 0.82681 0.29508 0.0
H2313 H 0.58757 0.74757 0.29743 0.0
H2314 H 0.59223 0.73324 0.31985 0.0
H2315 H 0.6121 0.73707 0.30172 0.0
H2316 H 0.63531 0.75265 0.32978 0.0
H2317 H 0.61547 0.74892 0.348 0.0
H2318 H 0.62669 0.77381 0.34465 0.0
H2319 H 0.56891 0.82104 0.3192 0.0
H2320 H 0.54282 0.80853 0.34285 0.0
H2321 H 0.57489 0.75241 0.34906 0.0
C2322 C 0.62979 0.77809 0.29213 0.0
C2323 C 0.63433 0.79459 0.2794 0.0
C2324 C 0.62264 0.81225 0.28078 0.0
C2325 C 0.60651 0.81342 0.29436 0.0
C2326 C 0.60238 0.79688 0.30664 0.0
C2327 C 0.61376 0.77961 0.3058 0.0
C2328 C 0.60587 0.76386 0.32042 0.0
C2329 C 0.59903 0.74428 0.30918 0.0
C2330 C 0.62179 0.75956 0.33668 0.0
C2331 C 0.58803 0.77481 0.32931 0.0
C2332 C 0.58629 0.79384 0.32112 0.0
C2333 C 0.57028 0.80631 0.32596 0.0
C2334 C 0.55553 0.79907 0.33937 0.0
C2335 C 0.55701 0.77965 0.34796 0.0
C2336 C 0.57364 0.76751 0.34306 0.0
H2337 H 0.00972 0.15009 0.99752 0.0
H2338 H 0.03942 0.10991 0.95495 0.0
H2339 H 0.03684 0.13562 0.92884 0.0
H2340 H 0.97331 0.16752 0.96086 0.0
H2341 H 0.97293 0.19285 0.97138 0.0
H2342 H 0.97818 0.17177 0.98738 0.0
H2343 H 0.01179 0.18953 0.99875 0.0
H2344 H 0.00673 0.21059 0.98266 0.0
H2345 H 0.03001 0.19721 0.98002 0.0
H2346 H 0.03237 0.16599 0.90747 0.0
H2347 H 0.0224 0.19752 0.89097 0.0
H2348 H 0.99191 0.21652 0.94565 0.0
C2349 C 0.01551 0.14646 0.98271 0.0
C2350 C 0.02527 0.12792 0.97871 0.0
C2351 C 0.03262 0.12415 0.95893 0.0
C2352 C 0.03104 0.13863 0.9438 0.0
C2353 C 0.02163 0.15672 0.94838 0.0
C2354 C 0.01361 0.16055 0.9672 0.0
C2355 C 1.0033 0.18086 0.96777 0.0
C2356 C 0.98058 0.17808 0.9721 0.0
C2357 C 0.01358 0.1954 0.98322 0.0
C2358 C 0.00693 0.18784 0.94635 0.0
C2359 C 0.01782 0.17378 0.93556 0.0
C2360 C 0.02369 0.17705 0.9157 0.0
C2361 C 0.01806 0.19505 0.9065 0.0
C2362 C 0.00637 0.20942 0.91702 0.0
C2363 C 1.00073 0.20572 0.93722 0.0
H2364 H 0.39507 0.26776 0.2489 0.0
H2365 H 0.39962 0.33335 0.24572 0.0
H2366 H 0.42599 0.33039 0.21952 0.0
H2367 H 0.44776 0.25887 0.2442 0.0
H2368 H 0.4441 0.23602 0.22926 0.0
H2369 H 0.42505 0.24349 0.247 0.0
H2370 H 0.39816 0.24254 0.2184 0.0
H2371 H 0.41713 0.23504 0.20057 0.0
H2372 H 0.40252 0.25722 0.19604 0.0
H2373 H 0.45292 0.31978 0.19391 0.0
H2374 H 0.47716 0.30257 0.1714 0.0
H2375 H 0.45479 0.24427 0.19268 0.0
C2376 C 0.40165 0.28155 0.24282 0.0
C2377 C 0.39526 0.3008 0.24947 0.0
C2378 C 0.40407 0.31842 0.24075 0.0
C2379 C 0.41916 0.31689 0.22593 0.0
C2380 C 0.42525 0.29764 0.21994 0.0
C2381 C 0.41668 0.2803 0.22812 0.0
C2382 C 0.42593 0.26139 0.21941 0.0
C2383 C 0.43633 0.24924 0.23595 0.0
C2384 C 0.40999 0.24828 0.20792 0.0
C2385 C 0.4412 0.27073 0.20516 0.0
C2386 C 0.44061 0.29164 0.20554 0.0
C2387 C 0.45347 0.3034 0.19351 0.0
C2388 C 0.46721 0.2935 0.18078 0.0
C2389 C 0.46804 0.27204 0.18025 0.0
C2390 C 0.45476 0.26068 0.19269 0.0
H2391 H 0.52896 0.3902 0.05275 0.0
H2392 H 0.49452 0.36435 1.00215 0.0
H2393 H 0.4855 0.33472 0.02247 0.0
H2394 H 0.55021 0.34288 0.06708 0.0
H2395 H 0.5498 0.34871 0.09372 0.0
H2396 H 0.55222 0.36886 0.0758 0.0
H2397 H 0.52085 0.38585 0.09124 0.0
H2398 H 0.51822 0.36565 0.10911 0.0
H2399 H 0.49732 0.37158 0.09287 0.0
H2400 H 0.48006 0.30769 0.04805 0.0
H2401 H 0.48169 0.28343 0.07593 0.0
H2402 H 0.52211 0.32498 0.10892 0.0
C2403 C 0.51964 0.37832 0.04578 0.0
C2404 C 0.51217 0.38007 0.0258 0.0
C2405 C 0.49993 0.36397 0.01756 0.0
C2406 C 0.49481 0.34689 0.02895 0.0
C2407 C 0.50228 0.34581 0.04854 0.0
C2408 C 0.51468 0.36092 0.05681 0.0
C2409 C 0.52169 0.35536 0.0778 0.0
C2410 C 0.54485 0.35386 0.07864 0.0
C2411 C 0.51406 0.37051 0.09369 0.0
C2412 C 0.51136 0.33471 0.07995 0.0
C2413 C 0.49997 0.32967 0.063 0.0
C2414 C 0.48897 0.31144 0.06139 0.0
C2415 C 0.48992 0.29779 0.07736 0.0
C2416 C 0.50203 0.30228 0.0946 0.0
C2417 C 0.51271 0.32111 0.09594 0.0
H2418 H 0.60566 0.21346 0.25939 0.0
H2419 H 0.65743 0.23179 0.22358 0.0
H2420 H 0.63451 0.24069 0.1955 0.0
H2421 H 0.57679 0.19048 0.21756 0.0
H2422 H 0.55286 0.19841 0.22746 0.0
H2423 H 0.57347 0.19354 0.24441 0.0
H2424 H 0.57043 0.22967 0.25982 0.0
H2425 H 0.54998 0.23473 0.24274 0.0
H2426 H 0.57207 0.25131 0.24357 0.0
H2427 H 0.6055 0.24971 0.17236 0.0
H2428 H 0.57318 0.25372 0.15406 0.0
H2429 H 0.54067 0.22726 0.20434 0.0
C2430 C 0.6121 0.21916 0.24552 0.0
C2431 C 0.6332 0.22199 0.24349 0.0
C2432 C 0.64125 0.22943 0.22523 0.0
C2433 C 0.62836 0.23462 0.20933 0.0
C2434 C 0.60753 0.23197 0.2119 0.0
C2435 C 0.59949 0.22403 0.2294 0.0
C2436 C 0.57665 0.22213 0.22818 0.0
C2437 C 0.56953 0.19982 0.22947 0.0
C2438 C 0.5667 0.23524 0.24455 0.0
C2439 C 0.57303 0.23045 0.20735 0.0
C2440 C 0.59099 0.2363 0.19829 0.0
C2441 C 0.59137 0.245 0.17924 0.0
C2442 C 0.57294 0.24737 0.16903 0.0
C2443 C 0.55444 0.24077 0.17777 0.0
C2444 C 0.55458 0.23234 0.19723 0.0
H2445 H 0.47056 0.14412 0.04042 0.0
H2446 H 0.52964 0.11711 0.0409 0.0
H2447 H 0.54231 0.14429 0.06416 0.0
H2448 H 0.491 0.19809 0.04356 0.0
H2449 H 0.46974 0.20573 0.05855 0.0
H2450 H 0.46667 0.18561 0.04003 0.0
H2451 H 0.4517 0.1641 0.0676 0.0
H2452 H 0.45725 0.18149 0.08817 0.0
H2453 H 0.46723 0.15617 0.08804 0.0
H2454 H 0.54837 0.17437 0.08742 0.0
H2455 H 0.54717 0.20474 0.1098 0.0
H2456 H 0.4834 0.21028 0.0965 0.0
C2457 C 0.48623 0.14413 0.04523 0.0
C2458 C 0.49916 0.12857 0.03895 0.0
C2459 C 0.51958 0.12903 0.04545 0.0
C2460 C 0.52688 0.14437 0.05866 0.0
C2461 C 0.51362 0.15926 0.06494 0.0
C2462 C 0.49384 0.1595 0.05813 0.0
C2463 C 0.48257 0.17694 0.06754 0.0
C2464 C 0.47718 0.19251 0.05146 0.0
C2465 C 0.46356 0.16927 0.07856 0.0
C2466 C 0.49864 0.18555 0.08187 0.0
C2467 C 0.51668 0.17563 0.07952 0.0
C2468 C 0.53427 0.18206 0.08964 0.0
C2469 C 0.53347 0.19921 0.10233 0.0
C2470 C 0.51504 0.20915 0.10542 0.0
C2471 C 0.49744 0.20228 0.09504 0.0
H2472 H 0.27581 0.39689 0.74202 0.0
H2473 H 0.27691 0.3968 0.67652 0.0
H2474 H 0.30619 0.42075 0.67754 0.0
H2475 H 0.28886 0.45099 0.7481 0.0
H2476 H 0.30339 0.44687 0.77068 0.0
H2477 H 0.28227 0.43019 0.76433 0.0
H2478 H 0.30579 0.40051 0.76735 0.0
H2479 H 0.32825 0.41609 0.77126 0.0
H2480 H 0.3267 0.39807 0.75042 0.0
H2481 H 0.33369 0.44674 0.68571 0.0
H2482 H 0.35839 0.47162 0.70058 0.0
H2483 H 0.34112 0.45289 0.76053 0.0
C2484 C 0.282 0.40206 0.72785 0.0
C2485 C 0.27403 0.39482 0.70918 0.0
C2486 C 0.28289 0.40182 0.69103 0.0
C2487 C 0.29946 0.41554 0.69145 0.0
C2488 C 0.30701 0.42221 0.71012 0.0
C2489 C 0.29846 0.41582 0.72797 0.0
C2490 C 0.30932 0.42537 0.74604 0.0
C2491 C 0.29512 0.43918 0.75798 0.0
C2492 C 0.31809 0.40907 0.75959 0.0
C2493 C 0.32573 0.43772 0.73556 0.0
C2494 C 0.32381 0.43605 0.71481 0.0
C2495 C 0.33567 0.4478 0.70191 0.0
C2496 C 0.34966 0.46183 0.71042 0.0
C2497 C 0.35218 0.46342 0.73157 0.0
C2498 C 0.34013 0.45116 0.74427 0.0
H2499 H 0.28334 0.62262 0.7713 0.0
H2500 H 0.2581 0.60176 0.82774 0.0
H2501 H 0.28212 0.57353 0.82793 0.0
H2502 H 0.29293 0.57379 0.74911 0.0
H2503 H 0.31655 0.58174 0.73787 0.0
H2504 H 0.29703 0.59985 0.74204 0.0
H2505 H 0.32223 0.62267 0.7627 0.0
H2506 H 0.34181 0.60457 0.75868 0.0
H2507 H 0.33525 0.61226 0.78398 0.0
H2508 H 0.30792 0.54671 0.821 0.0
H2509 H 0.33495 0.52449 0.80856 0.0
H2510 H 0.34518 0.56453 0.75812 0.0
C2511 C 0.28285 0.61199 0.78359 0.0
C2512 C 0.26882 0.61412 0.79942 0.0
C2513 C 0.26875 0.60023 0.81548 0.0
C2514 C 0.28231 0.58421 0.81569 0.0
C2515 C 0.29605 0.58253 0.7999 0.0
C2516 C 0.29656 0.59616 0.78425 0.0
C2517 C 0.31321 0.59132 0.76944 0.0
C2518 C 0.3044 0.58637 0.74837 0.0
C2519 C 0.32906 0.60874 0.76867 0.0
C2520 C 0.32181 0.5727 0.77905 0.0
C2521 C 0.31161 0.56776 0.79652 0.0
C2522 C 0.31619 0.55057 0.80748 0.0
C2523 C 0.33153 0.53805 0.80032 0.0
C2524 C 0.34231 0.54297 0.78258 0.0
C2525 C 0.33746 0.56063 0.77197 0.0
H2526 H 0.88915 0.46068 0.47574 0.0
H2527 H 0.86934 0.51568 0.50586 0.0
H2528 H 0.83795 0.49788 0.51584 0.0
H2529 H 0.84119 0.44878 0.45389 0.0
H2530 H 0.84387 0.42175 0.45575 0.0
H2531 H 0.86597 0.438 0.45334 0.0
H2532 H 0.88081 0.42315 0.48606 0.0
H2533 H 0.85865 0.40696 0.48865 0.0
H2534 H 0.86627 0.42394 0.50899 0.0
H2535 H 0.80786 0.474 0.52197 0.0
H2536 H 0.78044 0.44761 0.51989 0.0
H2537 H 0.81844 0.41036 0.48228 0.0
C2538 C 0.87829 0.46922 0.48429 0.0
C2539 C 0.88218 0.48971 0.49011 0.0
C2540 C 0.86732 0.49987 0.50162 0.0
C2541 C 0.84925 0.4899 0.5073 0.0
C2542 C 0.84597 0.46982 0.50113 0.0
C2543 C 0.85997 0.45972 0.48961 0.0
C2544 C 0.85212 0.43881 0.48333 0.0
C2545 C 0.8507 0.43673 0.46021 0.0
C2546 C 0.86525 0.42224 0.4923 0.0
C2547 C 0.83138 0.43882 0.49288 0.0
C2548 C 0.82825 0.45663 0.50351 0.0
C2549 C 0.81015 0.46001 0.51366 0.0
C2550 C 0.79473 0.44496 0.5125 0.0
C2551 C 0.79742 0.42709 0.50091 0.0
C2552 C 0.81603 0.42394 0.49119 0.0
H2553 H 0.75839 0.92479 0.79597 0.0
H2554 H 0.71997 0.87089 0.80077 0.0
H2555 H 0.68996 0.89103 0.79298 0.0
H2556 H 0.72275 0.95908 0.81961 0.0
H2557 H 0.72942 0.98 0.80356 0.0
H2558 H 0.74791 0.96134 0.80939 0.0
H2559 H 0.75347 0.95465 0.77123 0.0
H2560 H 0.73499 0.97327 0.76529 0.0
H2561 H 0.7321 0.94778 0.75537 0.0
H2562 H 0.66461 0.91641 0.78233 0.0
H2563 H 0.64494 0.94612 0.77251 0.0
H2564 H 0.69911 0.98433 0.77746 0.0
C2565 C 0.74362 0.91733 0.79542 0.0
C2566 C 0.74139 0.89633 0.79891 0.0
C2567 C 0.72189 0.887 0.79823 0.0
C2568 C 0.7048 0.89829 0.79377 0.0
C2569 C 0.70746 0.91897 0.79035 0.0
C2570 C 0.72631 0.92849 0.79141 0.0
C2571 C 0.72485 0.951 0.78749 0.0
C2572 C 0.73163 0.9636 0.80613 0.0
C2573 C 0.73708 0.95702 0.76873 0.0
C2574 C 0.70229 0.95257 0.78379 0.0
C2575 C 0.69259 0.93386 0.78531 0.0
C2576 C 0.67197 0.93119 0.78139 0.0
C2577 C 0.66094 0.94811 0.77578 0.0
C2578 C 0.67047 0.96748 0.77451 0.0
C2579 C 0.69139 0.96974 0.77871 0.0
H2580 H 0.65152 0.51864 0.97261 0.0
H2581 H 0.62688 0.52315 0.03297 0.0
H2582 H 0.65348 0.54861 0.0422 0.0
H2583 H 0.70627 0.52608 0.98983 0.0
H2584 H 0.71254 0.53955 0.96714 0.0
H2585 H 0.69322 0.51978 0.96658 0.0
H2586 H 0.67048 0.54491 0.95061 0.0
H2587 H 0.68653 0.56718 0.95402 0.0
H2588 H 0.66151 0.56587 0.96512 0.0
H2589 H 0.68241 0.57357 0.04487 0.0
H2590 H 0.71097 0.59798 0.0404 0.0
H2591 H 0.71566 0.57953 0.97763 0.0
C2592 C 0.65197 0.5248 0.98784 0.0
C2593 C 0.6372 0.51894 1.00212 0.0
C2594 C 0.63818 0.52731 0.02189 0.0
C2595 C 0.65323 0.54176 0.02727 0.0
C2596 C 0.66743 0.54742 0.0128 0.0
C2597 C 0.66721 0.53894 0.99361 0.0
C2598 C 0.68388 0.54823 0.98078 0.0
C2599 C 0.69993 0.53247 0.9758 0.0
C2600 C 0.67515 0.55716 0.96147 0.0
C2601 C 0.69241 0.56442 0.99523 0.0
C2602 C 0.68323 0.563 0.01389 0.0
C2603 C 0.68955 0.57502 0.03029 0.0
C2604 C 0.70572 0.58883 0.02762 0.0
C2605 C 0.71487 0.59112 0.00853 0.0
C2606 C 0.70826 0.57864 0.99215 0.0
H2607 H 0.24138 0.60915 0.19203 0.0
H2608 H 0.24974 0.63919 0.25027 0.0
H2609 H 0.22472 0.61558 0.26521 0.0
H2610 H 0.18914 0.60045 0.19527 0.0
H2611 H 0.18767 0.57515 0.18458 0.0
H2612 H 0.20754 0.59264 0.17711 0.0
H2613 H 0.23571 0.56912 0.1874 0.0
H2614 H 0.21673 0.55013 0.19348 0.0
H2615 H 0.23544 0.55796 0.21205 0.0
H2616 H 0.2 0.5886 0.27423 0.0
H2617 H 0.17521 0.56025 0.27665 0.0
H2618 H 0.18118 0.54778 0.2126 0.0
C2619 C 0.23789 0.61073 0.20791 0.0
C2620 C 0.24759 0.62592 0.22004 0.0
C2621 C 0.24272 0.62748 0.24078 0.0
C2622 C 0.22848 0.6142 0.24939 0.0
C2623 C 0.21928 0.59936 0.23709 0.0
C2624 C 0.22378 0.59742 0.21684 0.0
C2625 C 0.21166 0.57996 0.20715 0.0
C2626 C 0.19817 0.58747 0.19002 0.0
C2627 C 0.22573 0.56331 0.19958 0.0
C2628 C 0.19929 0.57278 0.22506 0.0
C2629 C 0.20423 0.58407 0.24219 0.0
C2630 C 0.19574 0.57986 0.26087 0.0
C2631 C 0.18159 0.56384 0.26207 0.0
C2632 C 0.1757 0.5525 0.24467 0.0
C2633 C 0.18501 0.55669 0.22599 0.0
H2634 H 0.88675 0.55408 0.04904 0.0
H2635 H 0.90113 0.5348 0.9879 0.0
H2636 H 0.8725 0.55397 0.97506 0.0
H2637 H 0.83334 0.55258 0.04398 0.0
H2638 H 0.82949 0.57512 0.05902 0.0
H2639 H 0.8512 0.55988 0.06355 0.0
H2640 H 0.87485 0.59129 0.05857 0.0
H2641 H 0.85319 0.60664 0.05404 0.0
H2642 H 0.87313 0.60551 0.03564 0.0
H2643 H 0.84101 0.57369 0.96888 0.0
H2644 H 0.81013 0.59409 0.96984 0.0
H2645 H 0.81786 0.60301 0.03439 0.0
C2646 C 0.88415 0.55408 0.03291 0.0
C2647 C 0.89623 0.54257 0.0196 0.0
C2648 C 0.89192 0.54294 0.9986 0.0
C2649 C 0.87575 0.55399 0.99107 0.0
C2650 C 0.8641 0.56494 1.00462 0.0
C2651 C 0.86822 0.56528 0.02507 0.0
C2652 C 0.85335 0.57835 0.03638 0.0
C2653 C 0.84112 0.56572 0.05163 0.0
C2654 C 0.86429 0.59653 0.04677 0.0
C2655 C 0.84011 0.5851 0.01912 0.0
C2656 C 0.84651 0.5771 1.00093 0.0
C2657 C 0.83602 0.58027 0.98299 0.0
C2658 C 0.8185 0.59185 0.98368 0.0
C2659 C 0.81177 0.60035 1.00211 0.0
C2660 C 0.82287 0.59705 0.02 0.0
H2661 H 0.14944 0.9998 0.00633 0.0
H2662 H 0.10719 0.95764 0.03477 0.0
H2663 H 0.13116 0.93021 0.02973 0.0
H2664 H 0.16606 0.96397 0.96773 0.0
H2665 H 0.19184 0.97352 0.96811 0.0
H2666 H 0.17149 0.9902 0.97414 0.0
H2667 H 0.18861 0.99937 0.0084 0.0
H2668 H 0.209 0.98273 1.00249 0.0
H2669 H 0.19486 0.9794 0.02544 0.0
H2670 H 0.15998 0.90767 0.02325 0.0
H2671 H 0.1916 0.89081 0.01414 0.0
H2672 H 0.21441 0.94632 0.98719 0.0
C2673 C 0.14506 0.98478 0.01129 0.0
C2674 C 0.12641 0.9811 0.02125 0.0
C2675 C 0.12153 0.96114 0.02765 0.0
C2676 C 0.13498 0.94534 0.02466 0.0
C2677 C 0.15318 0.94954 0.01494 0.0
C2678 C 0.15821 0.96869 0.00816 0.0
C2679 C 0.17878 0.96898 0.99805 0.0
C2680 C 0.17693 0.97449 0.97568 0.0
C2681 C 0.19369 0.98348 0.00927 0.0
C2682 C 0.18459 0.94704 1.00044 0.0
C2683 C 0.16959 0.93618 0.01033 0.0
C2684 C 0.17175 0.91593 0.01529 0.0
C2685 C 0.18977 0.90651 0.01011 0.0
C2686 C 0.20533 0.91723 0.99985 0.0
C2687 C 0.2026 0.93771 0.99473 0.0
loop_
_geom_bond_atom_site_label_1
_geom_bond_atom_site_label_2
_geom_bond_distance
_geom_bond_site_symmetry_2
_ccdc_geom_bond_type
C0 C1 1.391 . S
C0 C4 1.391 . S
C0 H42 0.948 . S
C1 C0 1.391 . S
C1 C2 1.391 . S
C2 C1 1.391 . S
C2 H58 0.947 1_455 S
C2 C59 1.392 1_556 S
C3 C4 1.391 1_554 S
C3 C7 1.397 . S
C3 C59 1.419 . S
C4 C0 1.391 . S
C4 C3 1.391 1_556 S
C4 C5 1.399 . S
C5 C4 1.399 . S
C5 C8 1.396 1_556 S
C5 C17 1.453 . S
C5 C18 1.684 . S
H6 C30 0.948 . S
C7 C3 1.397 . S
C7 C8 1.394 . S
C7 C26 1.723 . S
C8 C5 1.396 1_554 S
C8 C7 1.394 . S
C8 C38 1.723 . S
H9 C32 0.947 1_556 S
H10 C33 0.948 1_556 S
H11 C39 0.982 1_545 S
H12 C40 0.979 . S
H13 C40 0.980 . S
H14 C40 0.983 . S
H15 C39 0.979 . S
H16 C39 0.975 1_545 S
C17 C5 1.453 . S
C17 H46 0.982 1_556 S
C17 H47 0.979 . S
C17 H48 0.977 . S
C18 C5 1.684 . S
C18 H43 0.979 . S
C18 H44 0.980 . S
C18 H45 0.983 . S
C19 C20 1.391 . S
C19 C24 1.391 . S
C19 H49 0.948 . S
C20 C19 1.391 . S
C20 C21 1.391 . S
C21 C20 1.391 . S
C21 C22 1.392 1_655 S
C21 H50 0.947 1_545 S
C22 C21 1.392 1_455 S
C22 C23 1.419 . S
C22 H51 0.948 1_545 S
C23 C22 1.419 . S
C23 C24 1.391 1_455 S
C23 C27 1.397 . S
C24 C19 1.391 . S
C24 C23 1.391 1_655 S
C24 C25 1.399 . S
C25 C24 1.399 . S
C25 C26 1.396 1_655 S
C25 C28 1.453 . S
C25 C29 1.684 . S
C26 C7 1.723 . S
C26 C25 1.396 1_455 S
C26 C27 1.394 . S
C27 C23 1.397 . S
C27 C26 1.394 . S
C27 C37 1.723 . S
C28 C25 1.453 . S
C28 H52 0.982 1_655 S
C28 H53 0.979 . S
C28 H54 0.977 1_655 S
C29 C25 1.684 . S
C29 H55 0.979 . S
C29 H56 0.980 . S
C29 H57 0.983 . S
C30 H6 0.948 . S
C30 C31 1.391 . S
C30 C35 1.391 . S
C31 C30 1.391 . S
C31 C32 1.391 . S
C32 H9 0.947 1_554 S
C32 C31 1.391 . S
C32 C33 1.392 1_565 S
C33 H10 0.948 1_554 S
C33 C32 1.392 1_545 S
C33 C34 1.419 . S
C34 C33 1.419 . S
C34 C35 1.391 1_545 S
C34 C38 1.397 . S
C35 C30 1.391 . S
C35 C34 1.391 1_565 S
C35 C36 1.399 . S
C36 C35 1.399 . S
C36 C37 1.396 1_565 S
C36 C39 1.453 . S
C36 C40 1.684 . S
C37 C27 1.723 . S
C37 C36 1.396 1_545 S
C37 C38 1.394 . S
C38 C8 1.723 . S
C38 C34 1.397 . S
C38 C37 1.394 . S
C39 H11 0.982 1_565 S
C39 H15 0.979 . S
C39 H16 0.975 1_565 S
C39 C36 1.453 . S
C40 H12 0.979 . S
C40 H13 0.980 . S
C40 H14 0.983 . S
C40 C36 1.684 . S
H41 C59 0.948 1_655 S
H42 C0 0.948 . S
H43 C18 0.979 . S
H44 C18 0.980 . S
H45 C18 0.983 . S
H46 C17 0.982 1_554 S
H47 C17 0.979 . S
H48 C17 0.977 . S
H49 C19 0.948 . S
H50 C21 0.947 1_565 S
H51 C22 0.948 1_565 S
H52 C28 0.982 1_455 S
H53 C28 0.979 . S
H54 C28 0.977 1_455 S
H55 C29 0.979 . S
H56 C29 0.980 . S
H57 C29 0.983 . S
H58 C2 0.947 1_655 S
C59 C2 1.392 1_554 S
C59 C3 1.419 . S
C59 H41 0.948 1_455 S
C60 C61 1.391 . S
C60 C64 1.391 . S
C60 H102 0.948 . S
C61 C60 1.391 . S
C61 C62 1.391 . S
C62 C61 1.391 . S
C62 H118 0.947 . S
C62 C119 1.392 . S
C63 C64 1.391 . S
C63 C67 1.397 . S
C63 C119 1.419 . S
C64 C60 1.391 . S
C64 C63 1.391 . S
C64 C65 1.399 . S
C65 C64 1.399 . S
C65 C68 1.396 . S
C65 C77 1.453 . S
C65 C78 1.684 . S
H66 C90 0.948 . S
C67 C63 1.397 . S
C67 C68 1.394 . S
C67 C86 1.723 . S
C68 C65 1.396 . S
C68 C67 1.394 . S
C68 C98 1.723 . S
H69 C92 0.947 . S
H70 C93 0.948 . S
H71 C99 0.982 . S
H72 C100 0.979 . S
H73 C100 0.980 . S
H74 C100 0.983 . S
H75 C99 0.979 . S
H76 C99 0.977 . S
C77 C65 1.453 . S
C77 H106 0.982 . S
C77 H107 0.979 . S
C77 H108 0.977 . S
C78 C65 1.684 . S
C78 H103 0.979 . S
C78 H104 0.980 . S
C78 H105 0.983 . S
C79 C80 1.391 . S
C79 C84 1.391 . S
C79 H109 0.948 . S
C80 C79 1.391 . S
C80 C81 1.391 . S
C81 C80 1.391 . S
C81 C82 1.392 . S
C81 H110 0.947 . S
C82 C81 1.392 . S
C82 C83 1.419 . S
C82 H111 0.948 . S
C83 C82 1.419 . S
C83 C84 1.391 . S
C83 C87 1.397 . S
C84 C79 1.391 . S
C84 C83 1.391 . S
C84 C85 1.399 . S
C85 C84 1.399 . S
C85 C86 1.396 . S
C85 C88 1.453 . S
C85 C89 1.684 . S
C86 C67 1.723 . S
C86 C85 1.396 . S
C86 C87 1.394 . S
C87 C83 1.397 . S
C87 C86 1.394 . S
C87 C97 1.723 . S
C88 C85 1.453 . S
C88 H112 0.982 . S
C88 H113 0.979 . S
C88 H114 0.977 . S
C89 C85 1.684 . S
C89 H115 0.979 . S
C89 H116 0.980 . S
C89 H117 0.983 . S
C90 H66 0.948 . S
C90 C91 1.391 . S
C90 C95 1.391 . S
C91 C90 1.391 . S
C91 C92 1.391 . S
C92 H69 0.947 . S
C92 C91 1.391 . S
C92 C93 1.392 . S
C93 H70 0.948 . S
C93 C92 1.392 . S
C93 C94 1.419 . S
C94 C93 1.419 . S
C94 C95 1.391 . S
C94 C98 1.397 . S
C95 C90 1.391 . S
C95 C94 1.391 . S
C95 C96 1.399 . S
C96 C95 1.399 . S
C96 C97 1.396 . S
C96 C99 1.453 . S
C96 C100 1.684 . S
C97 C87 1.723 . S
C97 C96 1.396 . S
C97 C98 1.394 . S
C98 C68 1.723 . S
C98 C94 1.397 . S
C98 C97 1.394 . S
C99 H71 0.982 . S
C99 H75 0.979 . S
C99 H76 0.977 . S
C99 C96 1.453 . S
C100 H72 0.979 . S
C100 H73 0.980 . S
C100 H74 0.983 . S
C100 C96 1.684 . S
H101 C119 0.948 . S
H102 C60 0.948 . S
H103 C78 0.979 . S
H104 C78 0.980 . S
H105 C78 0.983 . S
H106 C77 0.982 . S
H107 C77 0.979 . S
H108 C77 0.977 . S
H109 C79 0.948 . S
H110 C81 0.947 . S
H111 C82 0.948 . S
H112 C88 0.982 . S
H113 C88 0.979 . S
H114 C88 0.977 . S
H115 C89 0.979 . S
H116 C89 0.980 . S
H117 C89 0.983 . S
H118 C62 0.947 . S
C119 C62 1.392 . S
C119 C63 1.419 . S
C119 H101 0.948 . S
C120 C121 1.391 . S
C120 C124 1.391 1_556 S
C120 H162 0.948 1_655 S
C121 C120 1.391 . S
C121 C122 1.391 . S
C122 C121 1.391 . S
C122 H178 0.947 . S
C122 C179 1.392 . S
C123 C124 1.391 . S
C123 C127 1.397 . S
C123 C179 1.419 1_554 S
C124 C120 1.391 1_554 S
C124 C123 1.391 . S
C124 C125 1.399 . S
C125 C124 1.399 . S
C125 C128 1.396 . S
C125 C137 1.453 . S
C125 C138 1.684 1_655 S
H126 C150 0.948 . S
C127 C123 1.397 . S
C127 C128 1.394 . S
C127 C146 1.723 . S
C128 C125 1.396 . S
C128 C127 1.394 . S
C128 C158 1.723 . S
H129 C152 0.947 . S
H130 C153 0.948 . S
H131 C159 0.982 . S
H132 C160 0.979 . S
H133 C160 0.980 . S
H134 C160 0.983 . S
H135 C159 0.979 . S
H136 C159 0.977 . S
C137 C125 1.453 . S
C137 H166 0.982 . S
C137 H167 0.979 1_655 S
C137 H168 0.977 1_655 S
C138 C125 1.684 1_455 S
C138 H163 0.979 . S
C138 H164 0.980 . S
C138 H165 0.983 . S
C139 C140 1.391 . S
C139 C144 1.391 . S
C139 H169 0.952 . S
C140 C139 1.391 . S
C140 C141 1.391 . S
C141 C140 1.391 . S
C141 C142 1.392 . S
C141 H170 0.947 . S
C142 C141 1.392 . S
C142 C143 1.419 . S
C142 H171 0.948 . S
C143 C142 1.419 . S
C143 C144 1.391 . S
C143 C147 1.397 . S
C144 C139 1.391 . S
C144 C143 1.391 . S
C144 C145 1.399 . S
C145 C144 1.399 . S
C145 C146 1.396 . S
C145 C148 1.453 . S
C145 C149 1.684 1_554 S
C146 C127 1.723 . S
C146 C145 1.396 . S
C146 C147 1.394 . S
C147 C143 1.397 . S
C147 C146 1.394 . S
C147 C157 1.723 . S
C148 C145 1.453 . S
C148 H172 0.982 . S
C148 H173 0.979 1_554 S
C148 H174 0.977 1_554 S
C149 C145 1.684 1_556 S
C149 H175 0.979 . S
C149 H176 0.980 . S
C149 H177 0.983 . S
C150 H126 0.948 . S
C150 C151 1.391 . S
C150 C155 1.391 1_455 S
C151 C150 1.391 . S
C151 C152 1.391 . S
C152 H129 0.947 . S
C152 C151 1.391 . S
C152 C153 1.392 . S
C153 H130 0.948 . S
C153 C152 1.392 . S
C153 C154 1.419 1_455 S
C154 C153 1.419 1_655 S
C154 C155 1.391 . S
C154 C158 1.397 . S
C155 C150 1.391 1_655 S
C155 C154 1.391 . S
C155 C156 1.399 . S
C156 C155 1.399 . S
C156 C157 1.396 . S
C156 C159 1.453 . S
C156 C160 1.684 . S
C157 C147 1.723 . S
C157 C156 1.396 . S
C157 C158 1.394 . S
C158 C128 1.723 . S
C158 C154 1.397 . S
C158 C157 1.394 . S
C159 H131 0.982 . S
C159 H135 0.979 . S
C159 H136 0.977 . S
C159 C156 1.453 . S
C160 H132 0.979 . S
C160 H133 0.980 . S
C160 H134 0.983 . S
C160 C156 1.684 . S
H161 C179 0.948 . S
H162 C120 0.948 1_455 S
H163 C138 0.979 . S
H164 C138 0.980 . S
H165 C138 0.983 . S
H166 C137 0.982 . S
H167 C137 0.979 1_455 S
H168 C137 0.977 1_455 S
H169 C139 0.952 . S
H170 C141 0.947 . S
H171 C142 0.948 . S
H172 C148 0.982 . S
H173 C148 0.979 1_556 S
H174 C148 0.977 1_556 S
H175 C149 0.979 . S
H176 C149 0.980 . S
H177 C149 0.983 . S
H178 C122 0.947 . S
C179 C122 1.392 . S
C179 C123 1.419 1_556 S
C179 H161 0.948 . S
C180 C181 1.391 . S
C180 C184 1.391 . S
C180 H222 0.948 . S
C181 C180 1.391 . S
C181 C182 1.391 . S
C182 C181 1.391 . S
C182 H238 0.947 . S
C182 C239 1.392 . S
C183 C184 1.391 . S
C183 C187 1.397 . S
C183 C239 1.419 . S
C184 C180 1.391 . S
C184 C183 1.391 . S
C184 C185 1.399 . S
C185 C184 1.399 . S
C185 C188 1.396 . S
C185 C197 1.453 . S
C185 C198 1.684 . S
H186 C210 0.948 . S
C187 C183 1.397 . S
C187 C188 1.394 . S
C187 C206 1.723 . S
C188 C185 1.396 . S
C188 C187 1.394 . S
C188 C218 1.723 . S
H189 C212 0.947 . S
H190 C213 0.948 . S
H191 C219 0.982 . S
H192 C220 0.979 . S
H193 C220 0.980 . S
H194 C220 0.983 . S
H195 C219 0.979 . S
H196 C219 0.977 . S
C197 C185 1.453 . S
C197 H226 0.982 . S
C197 H227 0.979 . S
C197 H228 0.977 . S
C198 C185 1.684 . S
C198 H223 0.979 . S
C198 H224 0.980 . S
C198 H225 0.983 . S
C199 C200 1.391 . S
C199 C204 1.391 . S
C199 H229 0.948 . S
C200 C199 1.391 . S
C200 C201 1.391 . S
C201 C200 1.391 . S
C201 C202 1.392 . S
C201 H230 0.947 . S
C202 C201 1.392 . S
C202 C203 1.419 . S
C202 H231 0.948 . S
C203 C202 1.419 . S
C203 C204 1.391 . S
C203 C207 1.397 . S
C204 C199 1.391 . S
C204 C203 1.391 . S
C204 C205 1.399 . S
C205 C204 1.399 . S
C205 C206 1.396 . S
C205 C208 1.453 . S
C205 C209 1.684 . S
C206 C187 1.723 . S
C206 C205 1.396 . S
C206 C207 1.394 . S
C207 C203 1.397 . S
C207 C206 1.394 . S
C207 C217 1.723 . S
C208 C205 1.453 . S
C208 H232 0.982 . S
C208 H233 0.979 . S
C208 H234 0.977 . S
C209 C205 1.684 . S
C209 H235 0.979 . S
C209 H236 0.980 . S
C209 H237 0.983 . S
C210 H186 0.948 . S
C210 C211 1.391 . S
C210 C215 1.391 . S
C211 C210 1.391 . S
C211 C212 1.391 . S
C212 H189 0.947 . S
C212 C211 1.391 . S
C212 C213 1.392 . S
C213 H190 0.948 . S
C213 C212 1.392 . S
C213 C214 1.419 . S
C214 C213 1.419 . S
C214 C215 1.391 . S
C214 C218 1.397 . S
C215 C210 1.391 . S
C215 C214 1.391 . S
C215 C216 1.399 . S
C216 C215 1.399 . S
C216 C217 1.396 . S
C216 C219 1.453 . S
C216 C220 1.684 . S
C217 C207 1.723 . S
C217 C216 1.396 . S
C217 C218 1.394 . S
C218 C188 1.723 . S
C218 C214 1.397 . S
C218 C217 1.394 . S
C219 H191 0.982 . S
C219 H195 0.979 . S
C219 H196 0.977 . S
C219 C216 1.453 . S
C220 H192 0.979 . S
C220 H193 0.980 . S
C220 H194 0.983 . S
C220 C216 1.684 . S
H221 C239 0.948 . S
H222 C180 0.948 . S
H223 C198 0.979 . S
H224 C198 0.980 . S
H225 C198 0.983 . S
H226 C197 0.982 . S
H227 C197 0.979 . S
H228 C197 0.977 . S
H229 C199 0.948 . S
H230 C201 0.947 . S
H231 C202 0.948 . S
H232 C208 0.982 . S
H233 C208 0.979 . S
H234 C208 0.977 . S
H235 C209 0.979 . S
H236 C209 0.980 . S
H237 C209 0.983 . S
H238 C182 0.947 . S
C239 C182 1.392 . S
C239 C183 1.419 . S
C239 H221 0.948 . S
C240 C241 1.391 . S
C240 C244 1.391 . S
C240 H282 0.948 . S
C241 C240 1.391 . S
C241 C242 1.391 . S
C242 C241 1.391 . S
C242 H298 0.947 1_455 S
C242 C299 1.392 . S
C243 C244 1.391 . S
C243 C247 1.397 . S
C243 C299 1.419 . S
C244 C240 1.391 . S
C244 C243 1.391 . S
C244 C245 1.399 . S
C245 C244 1.399 . S
C245 C248 1.396 . S
C245 C257 1.453 . S
C245 C258 1.684 . S
H246 C270 0.948 . S
C247 C243 1.397 . S
C247 C248 1.394 . S
C247 C266 1.723 . S
C248 C245 1.396 . S
C248 C247 1.394 . S
C248 C278 1.723 . S
H249 C272 0.947 . S
H250 C273 0.948 . S
H251 C279 0.982 . S
H252 C280 0.975 . S
H253 C280 0.980 . S
H254 C280 0.983 . S
H255 C279 0.979 . S
H256 C279 0.977 . S
C257 C245 1.453 . S
C257 H286 0.982 . S
C257 H287 0.979 . S
C257 H288 0.977 . S
C258 C245 1.684 . S
C258 H283 0.979 . S
C258 H284 0.980 . S
C258 H285 0.983 . S
C259 C260 1.391 . S
C259 C264 1.355 1_655 S
C259 H289 0.948 . S
C260 C259 1.391 . S
C260 C261 1.427 1_655 S
C261 C260 1.427 1_455 S
C261 C262 1.399 . S
C261 H290 0.906 1_565 S
C262 C261 1.399 . S
C262 C263 1.419 . S
C262 H291 0.948 1_565 S
C263 C262 1.419 . S
C263 C264 1.429 . S
C263 C267 1.397 . S
C264 C259 1.355 1_455 S
C264 C263 1.429 . S
C264 C265 1.405 . S
C265 C264 1.405 . S
C265 C266 1.396 . S
C265 C268 1.453 1_455 S
C265 C269 1.684 1_455 S
C266 C247 1.723 . S
C266 C265 1.396 . S
C266 C267 1.394 . S
C267 C263 1.397 . S
C267 C266 1.394 . S
C267 C277 1.723 . S
C268 C265 1.453 1_655 S
C268 H292 0.982 . S
C268 H293 0.979 . S
C268 H294 0.977 . S
C269 C265 1.684 1_655 S
C269 H295 0.979 1_655 S
C269 H296 0.980 . S
C269 H297 0.983 . S
C270 H246 0.948 . S
C270 C271 1.391 . S
C270 C275 1.391 . S
C271 C270 1.391 . S
C271 C272 1.391 . S
C272 H249 0.947 . S
C272 C271 1.391 . S
C272 C273 1.392 1_545 S
C273 H250 0.948 . S
C273 C272 1.392 1_565 S
C273 C274 1.419 . S
C274 C273 1.419 . S
C274 C275 1.391 1_565 S
C274 C278 1.397 . S
C275 C270 1.391 . S
C275 C274 1.391 1_545 S
C275 C276 1.399 . S
C276 C275 1.399 . S
C276 C277 1.396 1_545 S
C276 C279 1.453 . S
C276 C280 1.684 . S
C277 C267 1.723 . S
C277 C276 1.396 1_565 S
C277 C278 1.394 . S
C278 C248 1.723 . S
C278 C274 1.397 . S
C278 C277 1.394 . S
C279 H251 0.982 . S
C279 H255 0.979 . S
C279 H256 0.977 . S
C279 C276 1.453 . S
C280 H252 0.975 . S
C280 H253 0.980 . S
C280 H254 0.983 . S
C280 C276 1.684 . S
H281 C299 0.948 . S
H282 C240 0.948 . S
H283 C258 0.979 . S
H284 C258 0.980 . S
H285 C258 0.983 . S
H286 C257 0.982 . S
H287 C257 0.979 . S
H288 C257 0.977 . S
H289 C259 0.948 . S
H290 C261 0.906 1_545 S
H291 C262 0.948 1_545 S
H292 C268 0.982 . S
H293 C268 0.979 . S
H294 C268 0.977 . S
H295 C269 0.979 1_455 S
H296 C269 0.980 . S
H297 C269 0.983 . S
H298 C242 0.947 1_655 S
C299 C242 1.392 . S
C299 C243 1.419 . S
C299 H281 0.948 . S
C300 C301 1.391 . S
C300 C304 1.391 . S
C300 H342 0.948 . S
C301 C300 1.391 . S
C301 C302 1.391 . S
C302 C301 1.391 . S
C302 H358 0.947 . S
C302 C359 1.392 . S
C303 C304 1.391 . S
C303 C307 1.397 . S
C303 C359 1.419 . S
C304 C300 1.391 . S
C304 C303 1.391 . S
C304 C305 1.399 . S
C305 C304 1.399 . S
C305 C308 1.396 . S
C305 C317 1.453 . S
C305 C318 1.684 . S
H306 C330 0.948 . S
C307 C303 1.397 . S
C307 C308 1.394 . S
C307 C326 1.723 . S
C308 C305 1.396 . S
C308 C307 1.394 . S
C308 C338 1.723 . S
H309 C332 0.947 . S
H310 C333 0.948 . S
H311 C339 0.982 . S
H312 C340 0.979 . S
H313 C340 0.980 . S
H314 C340 0.983 . S
H315 C339 0.979 . S
H316 C339 0.977 . S
C317 C305 1.453 . S
C317 H346 0.982 . S
C317 H347 0.979 . S
C317 H348 0.977 . S
C318 C305 1.684 . S
C318 H343 0.979 . S
C318 H344 0.980 . S
C318 H345 0.983 . S
C319 C320 1.391 . S
C319 C324 1.391 . S
C319 H349 0.948 . S
C320 C319 1.391 . S
C320 C321 1.391 . S
C321 C320 1.391 . S
C321 C322 1.392 . S
C321 H350 0.947 . S
C322 C321 1.392 . S
C322 C323 1.419 . S
C322 H351 0.948 . S
C323 C322 1.419 . S
C323 C324 1.391 . S
C323 C327 1.397 . S
C324 C319 1.391 . S
C324 C323 1.391 . S
C324 C325 1.399 . S
C325 C324 1.399 . S
C325 C326 1.396 . S
C325 C328 1.453 . S
C325 C329 1.684 . S
C326 C307 1.723 . S
C326 C325 1.396 . S
C326 C327 1.394 . S
C327 C323 1.397 . S
C327 C326 1.394 . S
C327 C337 1.723 . S
C328 C325 1.453 . S
C328 H352 0.982 . S
C328 H353 0.979 . S
C328 H354 0.977 . S
C329 C325 1.684 . S
C329 H355 0.979 . S
C329 H356 0.980 . S
C329 H357 0.983 . S
C330 H306 0.948 . S
C330 C331 1.391 . S
C330 C335 1.391 . S
C331 C330 1.391 . S
C331 C332 1.391 . S
C332 H309 0.947 . S
C332 C331 1.391 . S
C332 C333 1.392 . S
C333 H310 0.948 . S
C333 C332 1.392 . S
C333 C334 1.419 . S
C334 C333 1.419 . S
C334 C335 1.391 . S
C334 C338 1.397 . S
C335 C330 1.391 . S
C335 C334 1.391 . S
C335 C336 1.399 . S
C336 C335 1.399 . S
C336 C337 1.396 . S
C336 C339 1.453 . S
C336 C340 1.684 . S
C337 C327 1.723 . S
C337 C336 1.396 . S
C337 C338 1.394 . S
C338 C308 1.723 . S
C338 C334 1.397 . S
C338 C337 1.394 . S
C339 H311 0.982 . S
C339 H315 0.979 . S
C339 H316 0.977 . S
C339 C336 1.453 . S
C340 H312 0.979 . S
C340 H313 0.980 . S
C340 H314 0.983 . S
C340 C336 1.684 . S
H341 C359 0.948 . S
H342 C300 0.948 . S
H343 C318 0.979 . S
H344 C318 0.980 . S
H345 C318 0.983 . S
H346 C317 0.982 . S
H347 C317 0.979 . S
H348 C317 0.977 . S
H349 C319 0.948 . S
H350 C321 0.947 . S
H351 C322 0.948 . S
H352 C328 0.982 . S
H353 C328 0.979 . S
H354 C328 0.977 . S
H355 C329 0.979 . S
H356 C329 0.980 . S
H357 C329 0.983 . S
H358 C302 0.947 . S
C359 C302 1.392 . S
C359 C303 1.419 . S
C359 H341 0.948 . S
C360 C361 1.391 . S
C360 C364 1.391 . S
C360 H402 0.948 . S
C361 C360 1.391 . S
C361 C362 1.391 . S
C362 C361 1.391 . S
C362 H418 0.947 . S
C362 C419 1.392 . S
C363 C364 1.391 . S
C363 C367 1.397 . S
C363 C419 1.419 . S
C364 C360 1.391 . S
C364 C363 1.391 . S
C364 C365 1.399 . S
C365 C364 1.399 . S
C365 C368 1.396 . S
C365 C377 1.453 . S
C365 C378 1.684 . S
H366 C390 0.948 1_455 S
C367 C363 1.397 . S
C367 C368 1.394 . S
C367 C386 1.723 . S
C368 C365 1.396 . S
C368 C367 1.394 . S
C368 C398 1.723 . S
H369 C392 0.947 . S
H370 C393 0.948 . S
H371 C399 0.982 1_655 S
H372 C400 0.979 . S
H373 C400 0.980 . S
H374 C400 0.983 . S
H375 C399 0.979 . S
H376 C399 0.977 . S
C377 C365 1.453 . S
C377 H406 0.982 . S
C377 H407 0.979 . S
C377 H408 0.977 . S
C378 C365 1.684 . S
C378 H403 0.979 . S
C378 H404 0.980 . S
C378 H405 0.983 . S
C379 C380 1.391 . S
C379 C384 1.391 1_455 S
C379 H409 0.948 . S
C380 C379 1.391 . S
C380 C381 1.391 . S
C381 C380 1.391 . S
C381 C382 1.392 . S
C381 H410 0.947 . S
C382 C381 1.392 . S
C382 C383 1.419 . S
C382 H411 0.948 . S
C383 C382 1.419 . S
C383 C384 1.391 1_455 S
C383 C387 1.397 1_455 S
C384 C379 1.391 1_655 S
C384 C383 1.391 1_655 S
C384 C385 1.399 . S
C385 C384 1.399 . S
C385 C386 1.396 . S
C385 C388 1.453 . S
C385 C389 1.684 . S
C386 C367 1.723 . S
C386 C385 1.396 . S
C386 C387 1.394 . S
C387 C383 1.397 1_655 S
C387 C386 1.394 . S
C387 C397 1.723 . S
C388 C385 1.453 . S
C388 H412 0.982 . S
C388 H413 0.979 . S
C388 H414 0.977 . S
C389 C385 1.684 . S
C389 H415 0.979 . S
C389 H416 0.980 . S
C389 H417 0.983 . S
C390 H366 0.948 1_655 S
C390 C391 1.391 . S
C390 C395 1.391 . S
C391 C390 1.391 . S
C391 C392 1.391 . S
C392 H369 0.947 . S
C392 C391 1.391 . S
C392 C393 1.392 . S
C393 H370 0.948 . S
C393 C392 1.392 . S
C393 C394 1.419 . S
C394 C393 1.419 . S
C394 C395 1.391 . S
C394 C398 1.397 . S
C395 C390 1.391 . S
C395 C394 1.391 . S
C395 C396 1.390 1_655 S
C396 C395 1.390 1_455 S
C396 C397 1.383 1_455 S
C396 C399 1.455 . S
C396 C400 1.706 . S
C397 C387 1.723 . S
C397 C396 1.383 1_655 S
C397 C398 1.394 . S
C398 C368 1.723 . S
C398 C394 1.397 . S
C398 C397 1.394 . S
C399 H371 0.982 1_455 S
C399 H375 0.979 . S
C399 H376 0.977 . S
C399 C396 1.455 . S
C400 H372 0.979 . S
C400 H373 0.980 . S
C400 H374 0.983 . S
C400 C396 1.706 . S
H401 C419 0.948 . S
H402 C360 0.948 . S
H403 C378 0.979 . S
H404 C378 0.980 . S
H405 C378 0.983 . S
H406 C377 0.982 . S
H407 C377 0.979 . S
H408 C377 0.977 . S
H409 C379 0.948 . S
H410 C381 0.947 . S
H411 C382 0.948 . S
H412 C388 0.982 . S
H413 C388 0.979 . S
H414 C388 0.977 . S
H415 C389 0.979 . S
H416 C389 0.980 . S
H417 C389 0.983 . S
H418 C362 0.947 . S
C419 C362 1.392 . S
C419 C363 1.419 . S
C419 H401 0.948 . S
C420 C421 1.391 . S
C420 C424 1.391 . S
C420 H462 0.948 . S
C421 C420 1.391 . S
C421 C422 1.391 . S
C422 C421 1.391 . S
C422 H478 0.947 . S
C422 C479 1.392 . S
C423 C424 1.391 . S
C423 C427 1.397 . S
C423 C479 1.419 . S
C424 C420 1.391 . S
C424 C423 1.391 . S
C424 C425 1.399 . S
C425 C424 1.399 . S
C425 C428 1.396 . S
C425 C437 1.453 . S
C425 C438 1.684 . S
H426 C450 0.948 . S
C427 C423 1.397 . S
C427 C428 1.394 . S
C427 C446 1.723 . S
C428 C425 1.396 . S
C428 C427 1.394 . S
C428 C458 1.723 . S
H429 C452 0.947 . S
H430 C453 0.948 . S
H431 C459 0.982 . S
H432 C460 0.979 . S
H433 C460 0.980 . S
H434 C460 0.983 . S
H435 C459 0.979 . S
H436 C459 0.977 . S
C437 C425 1.453 . S
C437 H466 0.982 . S
C437 H467 0.979 . S
C437 H468 0.977 . S
C438 C425 1.684 . S
C438 H463 0.979 . S
C438 H464 0.980 . S
C438 H465 0.983 . S
C439 C440 1.391 . S
C439 C444 1.391 . S
C439 H469 0.948 . S
C440 C439 1.391 . S
C440 C441 1.391 . S
C441 C440 1.391 . S
C441 C442 1.392 . S
C441 H470 0.947 . S
C442 C441 1.392 . S
C442 C443 1.419 . S
C442 H471 0.948 . S
C443 C442 1.419 . S
C443 C444 1.391 . S
C443 C447 1.397 . S
C444 C439 1.391 . S
C444 C443 1.391 . S
C444 C445 1.399 . S
C445 C444 1.399 . S
C445 C446 1.396 . S
C445 C448 1.453 . S
C445 C449 1.684 . S
C446 C427 1.723 . S
C446 C445 1.396 . S
C446 C447 1.394 . S
C447 C443 1.397 . S
C447 C446 1.394 . S
C447 C457 1.723 . S
C448 C445 1.453 . S
C448 H472 0.982 . S
C448 H473 0.979 . S
C448 H474 0.977 . S
C449 C445 1.684 . S
C449 H475 0.979 . S
C449 H476 0.980 . S
C449 H477 0.983 . S
C450 H426 0.948 . S
C450 C451 1.391 . S
C450 C455 1.391 . S
C451 C450 1.391 . S
C451 C452 1.391 . S
C452 H429 0.947 . S
C452 C451 1.391 . S
C452 C453 1.392 . S
C453 H430 0.948 . S
C453 C452 1.392 . S
C453 C454 1.419 . S
C454 C453 1.419 . S
C454 C455 1.391 . S
C454 C458 1.397 . S
C455 C450 1.391 . S
C455 C454 1.391 . S
C455 C456 1.399 . S
C456 C455 1.399 . S
C456 C457 1.396 . S
C456 C459 1.453 . S
C456 C460 1.684 . S
C457 C447 1.723 . S
C457 C456 1.396 . S
C457 C458 1.394 . S
C458 C428 1.723 . S
C458 C454 1.397 . S
C458 C457 1.394 . S
C459 H431 0.982 . S
C459 H435 0.979 . S
C459 H436 0.977 . S
C459 C456 1.453 . S
C460 H432 0.979 . S
C460 H433 0.980 . S
C460 H434 0.983 . S
C460 C456 1.684 . S
H461 C479 0.948 . S
H462 C420 0.948 . S
H463 C438 0.979 . S
H464 C438 0.980 . S
H465 C438 0.983 . S
H466 C437 0.982 . S
H467 C437 0.979 . S
H468 C437 0.977 . S
H469 C439 0.948 . S
H470 C441 0.947 . S
H471 C442 0.948 . S
H472 C448 0.982 . S
H473 C448 0.979 . S
H474 C448 0.977 . S
H475 C449 0.979 . S
H476 C449 0.980 . S
H477 C449 0.983 . S
H478 C422 0.947 . S
C479 C422 1.392 . S
C479 C423 1.419 . S
C479 H461 0.948 . S
C480 C481 1.391 . S
C480 C484 1.391 . S
C480 H522 0.948 . S
C481 C480 1.391 . S
C481 C482 1.391 . S
C482 C481 1.391 . S
C482 H538 0.947 . S
C482 C539 1.392 . S
C483 C484 1.391 . S
C483 C487 1.397 . S
C483 C539 1.419 . S
C484 C480 1.391 . S
C484 C483 1.391 . S
C484 C485 1.399 . S
C485 C484 1.399 . S
C485 C488 1.396 . S
C485 C497 1.453 . S
C485 C498 1.684 . S
H486 C510 0.948 . S
C487 C483 1.397 . S
C487 C488 1.394 . S
C487 C506 1.723 . S
C488 C485 1.396 . S
C488 C487 1.394 . S
C488 C518 1.723 . S
H489 C512 0.947 . S
H490 C513 0.948 . S
H491 C519 0.982 . S
H492 C520 0.979 . S
H493 C520 0.980 . S
H494 C520 0.983 . S
H495 C519 0.979 . S
H496 C519 0.977 . S
C497 C485 1.453 . S
C497 H526 0.982 . S
C497 H527 0.979 . S
C497 H528 0.977 . S
C498 C485 1.684 . S
C498 H523 0.979 . S
C498 H524 0.980 . S
C498 H525 0.983 . S
C499 C500 1.391 . S
C499 C504 1.391 . S
C499 H529 0.948 . S
C500 C499 1.391 . S
C500 C501 1.391 . S
C501 C500 1.391 . S
C501 C502 1.392 . S
C501 H530 0.947 . S
C502 C501 1.392 . S
C502 C503 1.419 . S
C502 H531 0.948 . S
C503 C502 1.419 . S
C503 C504 1.391 . S
C503 C507 1.397 . S
C504 C499 1.391 . S
C504 C503 1.391 . S
C504 C505 1.399 . S
C505 C504 1.399 . S
C505 C506 1.396 . S
C505 C508 1.453 . S
C505 C509 1.684 . S
C506 C487 1.723 . S
C506 C505 1.396 . S
C506 C507 1.394 . S
C507 C503 1.397 . S
C507 C506 1.394 . S
C507 C517 1.723 . S
C508 C505 1.453 . S
C508 H532 0.982 . S
C508 H533 0.979 . S
C508 H534 0.977 . S
C509 C505 1.684 . S
C509 H535 0.979 . S
C509 H536 0.980 . S
C509 H537 0.983 . S
C510 H486 0.948 . S
C510 C511 1.391 . S
C510 C515 1.391 . S
C511 C510 1.391 . S
C511 C512 1.391 . S
C512 H489 0.947 . S
C512 C511 1.391 . S
C512 C513 1.392 . S
C513 H490 0.948 . S
C513 C512 1.392 . S
C513 C514 1.419 . S
C514 C513 1.419 . S
C514 C515 1.391 . S
C514 C518 1.397 . S
C515 C510 1.391 . S
C515 C514 1.391 . S
C515 C516 1.399 . S
C516 C515 1.399 . S
C516 C517 1.396 . S
C516 C519 1.453 . S
C516 C520 1.684 . S
C517 C507 1.723 . S
C517 C516 1.396 . S
C517 C518 1.394 . S
C518 C488 1.723 . S
C518 C514 1.397 . S
C518 C517 1.394 . S
C519 H491 0.982 . S
C519 H495 0.979 . S
C519 H496 0.977 . S
C519 C516 1.453 . S
C520 H492 0.979 . S
C520 H493 0.980 . S
C520 H494 0.983 . S
C520 C516 1.684 . S
H521 C539 0.948 . S
H522 C480 0.948 . S
H523 C498 0.979 . S
H524 C498 0.980 . S
H525 C498 0.983 . S
H526 C497 0.982 . S
H527 C497 0.979 . S
H528 C497 0.977 . S
H529 C499 0.948 . S
H530 C501 0.947 . S
H531 C502 0.948 . S
H532 C508 0.982 . S
H533 C508 0.979 . S
H534 C508 0.977 . S
H535 C509 0.979 . S
H536 C509 0.980 . S
H537 C509 0.983 . S
H538 C482 0.947 . S
C539 C482 1.392 . S
C539 C483 1.419 . S
C539 H521 0.948 . S
C540 C541 1.391 . S
C540 C544 1.391 . S
C540 H582 0.948 . S
C541 C540 1.391 . S
C541 C542 1.391 . S
C542 C541 1.391 . S
C542 H598 0.947 . S
C542 C599 1.392 . S
C543 C544 1.391 . S
C543 C547 1.397 . S
C543 C599 1.419 . S
C544 C540 1.391 . S
C544 C543 1.391 . S
C544 C545 1.399 . S
C545 C544 1.399 . S
C545 C548 1.396 . S
C545 C557 1.453 . S
C545 C558 1.684 . S
H546 C570 0.948 1_545 S
C547 C543 1.397 . S
C547 C548 1.394 . S
C547 C566 1.723 . S
C548 C545 1.396 . S
C548 C547 1.394 . S
C548 C578 1.723 . S
H549 C572 0.947 . S
H550 C573 0.948 . S
H551 C579 0.982 . S
H552 C580 0.979 . S
H553 C580 0.980 . S
H554 C580 0.983 . S
H555 C579 0.979 1_545 S
H556 C579 0.977 1_545 S
C557 C545 1.453 . S
C557 H586 0.982 . S
C557 H587 0.979 . S
C557 H588 0.977 . S
C558 C545 1.684 . S
C558 H583 0.979 . S
C558 H584 0.980 . S
C558 H585 0.983 . S
C559 C560 1.391 . S
C559 C564 1.391 1_545 S
C559 H589 0.948 . S
C560 C559 1.391 . S
C560 C561 1.391 . S
C561 C560 1.391 . S
C561 C562 1.392 . S
C561 H590 0.947 . S
C562 C561 1.392 . S
C562 C563 1.419 1_545 S
C562 H591 0.948 . S
C563 C562 1.419 1_565 S
C563 C564 1.391 . S
C563 C567 1.397 . S
C564 C559 1.391 1_565 S
C564 C563 1.391 . S
C564 C565 1.399 . S
C565 C564 1.399 . S
C565 C566 1.396 . S
C565 C568 1.453 . S
C565 C569 1.684 . S
C566 C547 1.723 . S
C566 C565 1.396 . S
C566 C567 1.394 . S
C567 C563 1.397 . S
C567 C566 1.394 . S
C567 C577 1.723 . S
C568 C565 1.453 . S
C568 H592 0.982 . S
C568 H593 0.979 . S
C568 H594 0.977 . S
C569 C565 1.684 . S
C569 H595 0.979 . S
C569 H596 0.980 . S
C569 H597 0.983 . S
C570 H546 0.948 1_565 S
C570 C571 1.391 . S
C570 C575 1.391 . S
C571 C570 1.391 . S
C571 C572 1.391 . S
C572 H549 0.947 . S
C572 C571 1.391 . S
C572 C573 1.392 . S
C573 H550 0.948 . S
C573 C572 1.392 . S
C573 C574 1.419 . S
C574 C573 1.419 . S
C574 C575 1.391 . S
C574 C578 1.397 . S
C575 C570 1.391 . S
C575 C574 1.391 . S
C575 C576 1.399 . S
C576 C575 1.399 . S
C576 C577 1.396 . S
C576 C579 1.453 . S
C576 C580 1.684 1_565 S
C577 C567 1.723 . S
C577 C576 1.396 . S
C577 C578 1.394 . S
C578 C548 1.723 . S
C578 C574 1.397 . S
C578 C577 1.394 . S
C579 H551 0.982 . S
C579 H555 0.979 1_565 S
C579 H556 0.977 1_565 S
C579 C576 1.453 . S
C580 H552 0.979 . S
C580 H553 0.980 . S
C580 H554 0.983 . S
C580 C576 1.684 1_545 S
H581 C599 0.948 . S
H582 C540 0.948 . S
H583 C558 0.979 . S
H584 C558 0.980 . S
H585 C558 0.983 . S
H586 C557 0.982 . S
H587 C557 0.979 . S
H588 C557 0.977 . S
H589 C559 0.948 . S
H590 C561 0.947 . S
H591 C562 0.948 . S
H592 C568 0.982 . S
H593 C568 0.979 . S
H594 C568 0.977 . S
H595 C569 0.979 . S
H596 C569 0.980 . S
H597 C569 0.983 . S
H598 C542 0.947 . S
C599 C542 1.392 . S
C599 C543 1.419 . S
C599 H581 0.948 . S
C600 C601 1.391 . S
C600 C604 1.391 . S
C600 H642 0.948 . S
C601 C600 1.391 . S
C601 C602 1.391 . S
C602 C601 1.391 . S
C602 H658 0.947 . S
C602 C659 1.392 . S
C603 C604 1.391 . S
C603 C607 1.397 . S
C603 C659 1.419 . S
C604 C600 1.391 . S
C604 C603 1.391 . S
C604 C605 1.399 . S
C605 C604 1.399 . S
C605 C608 1.396 . S
C605 C617 1.453 . S
C605 C618 1.684 . S
H606 C630 0.948 . S
C607 C603 1.397 . S
C607 C608 1.394 . S
C607 C626 1.723 . S
C608 C605 1.396 . S
C608 C607 1.394 . S
C608 C638 1.723 . S
H609 C632 0.947 . S
H610 C633 0.948 . S
H611 C639 0.982 . S
H612 C640 0.979 . S
H613 C640 0.980 . S
H614 C640 0.983 . S
H615 C639 0.979 . S
H616 C639 0.977 . S
C617 C605 1.453 . S
C617 H646 0.982 . S
C617 H647 0.979 . S
C617 H648 0.977 . S
C618 C605 1.684 . S
C618 H643 0.979 . S
C618 H644 0.980 . S
C618 H645 0.983 . S
C619 C620 1.391 . S
C619 C624 1.391 . S
C619 H649 0.948 . S
C620 C619 1.391 . S
C620 C621 1.391 . S
C621 C620 1.391 . S
C621 C622 1.392 . S
C621 H650 0.947 . S
C622 C621 1.392 . S
C622 C623 1.419 . S
C622 H651 0.948 . S
C623 C622 1.419 . S
C623 C624 1.391 . S
C623 C627 1.397 . S
C624 C619 1.391 . S
C624 C623 1.391 . S
C624 C625 1.399 . S
C625 C624 1.399 . S
C625 C626 1.396 . S
C625 C628 1.453 . S
C625 C629 1.684 . S
C626 C607 1.723 . S
C626 C625 1.396 . S
C626 C627 1.394 . S
C627 C623 1.397 . S
C627 C626 1.394 . S
C627 C637 1.723 . S
C628 C625 1.453 . S
C628 H652 0.982 . S
C628 H653 0.979 . S
C628 H654 0.977 . S
C629 C625 1.684 . S
C629 H655 0.979 . S
C629 H656 0.980 . S
C629 H657 0.983 . S
C630 H606 0.948 . S
C630 C631 1.391 . S
C630 C635 1.391 . S
C631 C630 1.391 . S
C631 C632 1.391 . S
C632 H609 0.947 . S
C632 C631 1.391 . S
C632 C633 1.392 . S
C633 H610 0.948 . S
C633 C632 1.392 . S
C633 C634 1.419 . S
C634 C633 1.419 . S
C634 C635 1.391 . S
C634 C638 1.397 . S
C635 C630 1.391 . S
C635 C634 1.391 . S
C635 C636 1.399 . S
C636 C635 1.399 . S
C636 C637 1.396 . S
C636 C639 1.453 . S
C636 C640 1.684 . S
C637 C627 1.723 . S
C637 C636 1.396 . S
C637 C638 1.394 . S
C638 C608 1.723 . S
C638 C634 1.397 . S
C638 C637 1.394 . S
C639 H611 0.982 . S
C639 H615 0.979 . S
C639 H616 0.977 . S
C639 C636 1.453 . S
C640 H612 0.979 . S
C640 H613 0.980 . S
C640 H614 0.983 . S
C640 C636 1.684 . S
H641 C659 0.948 . S
H642 C600 0.948 . S
H643 C618 0.979 . S
H644 C618 0.980 . S
H645 C618 0.983 . S
H646 C617 0.982 . S
H647 C617 0.979 . S
H648 C617 0.977 . S
H649 C619 0.948 . S
H650 C621 0.947 . S
H651 C622 0.948 . S
H652 C628 0.982 . S
H653 C628 0.979 . S
H654 C628 0.977 . S
H655 C629 0.979 . S
H656 C629 0.980 . S
H657 C629 0.983 . S
H658 C602 0.947 . S
C659 C602 1.392 . S
C659 C603 1.419 . S
C659 H641 0.948 . S
C660 C661 1.391 . S
C660 C664 1.391 . S
C660 H702 0.948 . S
C661 C660 1.391 . S
C661 C662 1.391 . S
C662 C661 1.391 . S
C662 H718 0.947 . S
C662 C719 1.392 . S
C663 C664 1.391 . S
C663 C667 1.397 . S
C663 C719 1.419 . S
C664 C660 1.391 . S
C664 C663 1.391 . S
C664 C665 1.399 . S
C665 C664 1.399 . S
C665 C668 1.396 . S
C665 C677 1.453 . S
C665 C678 1.684 . S
H666 C690 0.948 . S
C667 C663 1.397 . S
C667 C668 1.394 . S
C667 C686 1.723 . S
C668 C665 1.396 . S
C668 C667 1.394 . S
C668 C698 1.723 . S
H669 C692 0.947 . S
H670 C693 0.948 . S
H671 C699 0.982 . S
H672 C700 0.979 . S
H673 C700 0.980 . S
H674 C700 0.983 . S
H675 C699 0.979 . S
H676 C699 0.977 . S
C677 C665 1.453 . S
C677 H706 0.982 . S
C677 H707 0.979 . S
C677 H708 0.977 . S
C678 C665 1.684 . S
C678 H703 0.979 . S
C678 H704 0.980 . S
C678 H705 0.983 . S
C679 C680 1.391 . S
C679 C684 1.391 . S
C679 H709 0.948 . S
C680 C679 1.391 . S
C680 C681 1.391 . S
C681 C680 1.391 . S
C681 C682 1.392 . S
C681 H710 0.947 . S
C682 C681 1.392 . S
C682 C683 1.419 . S
C682 H711 0.948 . S
C683 C682 1.419 . S
C683 C684 1.391 . S
C683 C687 1.397 . S
C684 C679 1.391 . S
C684 C683 1.391 . S
C684 C685 1.399 . S
C685 C684 1.399 . S
C685 C686 1.396 . S
C685 C688 1.453 . S
C685 C689 1.684 . S
C686 C667 1.723 . S
C686 C685 1.396 . S
C686 C687 1.394 . S
C687 C683 1.397 . S
C687 C686 1.394 . S
C687 C697 1.723 . S
C688 C685 1.453 . S
C688 H712 0.982 . S
C688 H713 0.979 . S
C688 H714 0.977 . S
C689 C685 1.684 . S
C689 H715 0.979 . S
C689 H716 0.980 . S
C689 H717 0.983 . S
C690 H666 0.948 . S
C690 C691 1.391 . S
C690 C695 1.391 . S
C691 C690 1.391 . S
C691 C692 1.391 . S
C692 H669 0.947 . S
C692 C691 1.391 . S
C692 C693 1.392 . S
C693 H670 0.948 . S
C693 C692 1.392 . S
C693 C694 1.419 . S
C694 C693 1.419 . S
C694 C695 1.391 . S
C694 C698 1.397 . S
C695 C690 1.391 . S
C695 C694 1.391 . S
C695 C696 1.399 . S
C696 C695 1.399 . S
C696 C697 1.396 . S
C696 C699 1.453 . S
C696 C700 1.684 . S
C697 C687 1.723 . S
C697 C696 1.396 . S
C697 C698 1.394 . S
C698 C668 1.723 . S
C698 C694 1.397 . S
C698 C697 1.394 . S
C699 H671 0.982 . S
C699 H675 0.979 . S
C699 H676 0.977 . S
C699 C696 1.453 . S
C700 H672 0.979 . S
C700 H673 0.980 . S
C700 H674 0.983 . S
C700 C696 1.684 . S
H701 C719 0.948 . S
H702 C660 0.948 . S
H703 C678 0.979 . S
H704 C678 0.980 . S
H705 C678 0.983 . S
H706 C677 0.982 . S
H707 C677 0.979 . S
H708 C677 0.977 . S
H709 C679 0.948 . S
H710 C681 0.947 . S
H711 C682 0.948 . S
H712 C688 0.982 . S
H713 C688 0.979 . S
H714 C688 0.977 . S
H715 C689 0.979 . S
H716 C689 0.980 . S
H717 C689 0.983 . S
H718 C662 0.947 . S
C719 C662 1.392 . S
C719 C663 1.419 . S
C719 H701 0.948 . S
C720 C721 1.391 . S
C720 C724 1.391 . S
C720 H762 0.948 . S
C721 C720 1.391 . S
C721 C722 1.391 . S
C722 C721 1.391 . S
C722 H778 0.947 . S
C722 C779 1.392 . S
C723 C724 1.391 . S
C723 C727 1.397 . S
C723 C779 1.419 . S
C724 C720 1.391 . S
C724 C723 1.391 . S
C724 C725 1.399 . S
C725 C724 1.399 . S
C725 C728 1.396 . S
C725 C737 1.453 . S
C725 C738 1.684 . S
H726 C750 0.948 . S
C727 C723 1.397 . S
C727 C728 1.394 . S
C727 C746 1.723 . S
C728 C725 1.396 . S
C728 C727 1.394 . S
C728 C758 1.723 . S
H729 C752 0.947 . S
H730 C753 0.948 . S
H731 C759 0.982 . S
H732 C760 0.979 . S
H733 C760 0.980 . S
H734 C760 0.983 . S
H735 C759 0.979 . S
H736 C759 0.977 . S
C737 C725 1.453 . S
C737 H766 0.982 . S
C737 H767 0.979 . S
C737 H768 0.977 . S
C738 C725 1.684 . S
C738 H763 0.979 . S
C738 H764 0.980 . S
C738 H765 0.983 . S
C739 C740 1.391 . S
C739 C744 1.391 . S
C739 H769 0.948 . S
C740 C739 1.391 . S
C740 C741 1.391 . S
C741 C740 1.391 . S
C741 C742 1.392 . S
C741 H770 0.947 . S
C742 C741 1.392 . S
C742 C743 1.419 . S
C742 H771 0.948 . S
C743 C742 1.419 . S
C743 C744 1.391 . S
C743 C747 1.397 . S
C744 C739 1.391 . S
C744 C743 1.391 . S
C744 C745 1.399 . S
C745 C744 1.399 . S
C745 C746 1.396 . S
C745 C748 1.453 . S
C745 C749 1.684 . S
C746 C727 1.723 . S
C746 C745 1.396 . S
C746 C747 1.394 . S
C747 C743 1.397 . S
C747 C746 1.394 . S
C747 C757 1.723 . S
C748 C745 1.453 . S
C748 H772 0.982 . S
C748 H773 0.979 . S
C748 H774 0.977 . S
C749 C745 1.684 . S
C749 H775 0.979 . S
C749 H776 0.980 . S
C749 H777 0.983 . S
C750 H726 0.948 . S
C750 C751 1.391 . S
C750 C755 1.391 . S
C751 C750 1.391 . S
C751 C752 1.391 . S
C752 H729 0.947 . S
C752 C751 1.391 . S
C752 C753 1.392 . S
C753 H730 0.948 . S
C753 C752 1.392 . S
C753 C754 1.419 . S
C754 C753 1.419 . S
C754 C755 1.391 . S
C754 C758 1.397 . S
C755 C750 1.391 . S
C755 C754 1.391 . S
C755 C756 1.399 . S
C756 C755 1.399 . S
C756 C757 1.396 . S
C756 C759 1.453 . S
C756 C760 1.684 . S
C757 C747 1.723 . S
C757 C756 1.396 . S
C757 C758 1.394 . S
C758 C728 1.723 . S
C758 C754 1.397 . S
C758 C757 1.394 . S
C759 H731 0.982 . S
C759 H735 0.979 . S
C759 H736 0.977 . S
C759 C756 1.453 . S
C760 H732 0.979 . S
C760 H733 0.980 . S
C760 H734 0.983 . S
C760 C756 1.684 . S
H761 C779 0.948 . S
H762 C720 0.948 . S
H763 C738 0.979 . S
H764 C738 0.980 . S
H765 C738 0.983 . S
H766 C737 0.982 . S
H767 C737 0.979 . S
H768 C737 0.977 . S
H769 C739 0.948 . S
H770 C741 0.947 . S
H771 C742 0.948 . S
H772 C748 0.982 . S
H773 C748 0.979 . S
H774 C748 0.977 . S
H775 C749 0.979 . S
H776 C749 0.980 . S
H777 C749 0.983 . S
H778 C722 0.947 . S
C779 C722 1.392 . S
C779 C723 1.419 . S
C779 H761 0.948 . S
C780 C781 1.391 . S
C780 C784 1.391 . S
C780 H822 0.948 . S
C781 C780 1.391 . S
C781 C782 1.391 . S
C782 C781 1.391 . S
C782 H838 0.947 . S
C782 C839 1.392 1_554 S
C783 C784 1.391 1_556 S
C783 C787 1.397 . S
C783 C839 1.419 . S
C784 C780 1.391 . S
C784 C783 1.391 1_554 S
C784 C785 1.399 . S
C785 C784 1.399 . S
C785 C788 1.396 1_554 S
C785 C797 1.453 . S
C785 C798 1.684 . S
H786 C810 0.948 . S
C787 C783 1.397 . S
C787 C788 1.394 . S
C787 C806 1.723 . S
C788 C785 1.396 1_556 S
C788 C787 1.394 . S
C788 C818 1.723 . S
H789 C812 0.947 1_554 S
H790 C813 0.925 1_554 S
H791 C819 0.982 . S
H792 C820 0.979 . S
H793 C820 0.980 . S
H794 C820 0.983 . S
H795 C819 0.979 . S
H796 C819 0.977 . S
C797 C785 1.453 . S
C797 H826 0.982 . S
C797 H827 0.979 . S
C797 H828 0.977 . S
C798 C785 1.684 . S
C798 H823 0.979 1_554 S
C798 H824 0.980 . S
C798 H825 0.983 . S
C799 C800 1.391 . S
C799 C804 1.391 . S
C799 H829 0.948 . S
C800 C799 1.391 . S
C800 C801 1.391 . S
C801 C800 1.391 . S
C801 C802 1.392 . S
C801 H830 0.947 . S
C802 C801 1.392 . S
C802 C803 1.419 . S
C802 H831 0.948 . S
C803 C802 1.419 . S
C803 C804 1.391 . S
C803 C807 1.397 . S
C804 C799 1.391 . S
C804 C803 1.391 . S
C804 C805 1.399 . S
C805 C804 1.399 . S
C805 C806 1.396 . S
C805 C808 1.453 . S
C805 C809 1.684 . S
C806 C787 1.723 . S
C806 C805 1.396 . S
C806 C807 1.394 . S
C807 C803 1.397 . S
C807 C806 1.394 . S
C807 C817 1.723 . S
C808 C805 1.453 . S
C808 H832 0.982 . S
C808 H833 0.979 . S
C808 H834 0.977 . S
C809 C805 1.684 . S
C809 H835 0.979 . S
C809 H836 0.980 . S
C809 H837 0.983 . S
C810 H786 0.948 . S
C810 C811 1.391 . S
C810 C815 1.391 . S
C811 C810 1.391 . S
C811 C812 1.391 . S
C812 H789 0.947 1_556 S
C812 C811 1.391 . S
C812 C813 1.392 . S
C813 H790 0.925 1_556 S
C813 C812 1.392 . S
C813 C814 1.419 . S
C814 C813 1.419 . S
C814 C815 1.391 . S
C814 C818 1.397 . S
C815 C810 1.391 . S
C815 C814 1.391 . S
C815 C816 1.399 . S
C816 C815 1.399 . S
C816 C817 1.396 . S
C816 C819 1.453 . S
C816 C820 1.684 . S
C817 C807 1.723 . S
C817 C816 1.396 . S
C817 C818 1.394 . S
C818 C788 1.723 . S
C818 C814 1.397 . S
C818 C817 1.394 . S
C819 H791 0.982 . S
C819 H795 0.979 . S
C819 H796 0.977 . S
C819 C816 1.453 . S
C820 H792 0.979 . S
C820 H793 0.980 . S
C820 H794 0.983 . S
C820 C816 1.684 . S
H821 C839 0.948 . S
H822 C780 0.948 . S
H823 C798 0.979 1_556 S
H824 C798 0.980 . S
H825 C798 0.983 . S
H826 C797 0.982 . S
H827 C797 0.979 . S
H828 C797 0.977 . S
H829 C799 0.948 . S
H830 C801 0.947 . S
H831 C802 0.948 . S
H832 C808 0.982 . S
H833 C808 0.979 . S
H834 C808 0.977 . S
H835 C809 0.979 . S
H836 C809 0.980 . S
H837 C809 0.983 . S
H838 C782 0.947 . S
C839 C782 1.392 1_556 S
C839 C783 1.419 . S
C839 H821 0.948 . S
C840 C841 1.391 . S
C840 C844 1.391 . S
C840 H882 0.948 . S
C841 C840 1.391 . S
C841 C842 1.391 . S
C842 C841 1.391 . S
C842 H898 0.947 . S
C842 C899 1.392 . S
C843 C844 1.391 . S
C843 C847 1.397 . S
C843 C899 1.419 . S
C844 C840 1.391 . S
C844 C843 1.391 . S
C844 C845 1.399 . S
C845 C844 1.399 . S
C845 C848 1.396 . S
C845 C857 1.453 . S
C845 C858 1.684 . S
H846 C870 0.948 . S
C847 C843 1.397 . S
C847 C848 1.394 . S
C847 C866 1.723 . S
C848 C845 1.396 . S
C848 C847 1.394 . S
C848 C878 1.723 . S
H849 C872 0.947 . S
H850 C873 0.948 . S
H851 C879 0.982 . S
H852 C880 0.979 . S
H853 C880 0.980 . S
H854 C880 0.983 . S
H855 C879 0.979 . S
H856 C879 0.977 . S
C857 C845 1.453 . S
C857 H886 0.982 . S
C857 H887 0.979 . S
C857 H888 0.977 . S
C858 C845 1.684 . S
C858 H883 0.979 . S
C858 H884 0.980 . S
C858 H885 0.983 . S
C859 C860 1.391 . S
C859 C864 1.391 . S
C859 H889 0.948 . S
C860 C859 1.391 . S
C860 C861 1.391 . S
C861 C860 1.391 . S
C861 C862 1.392 . S
C861 H890 0.947 . S
C862 C861 1.392 . S
C862 C863 1.419 . S
C862 H891 0.948 . S
C863 C862 1.419 . S
C863 C864 1.391 . S
C863 C867 1.397 . S
C864 C859 1.391 . S
C864 C863 1.391 . S
C864 C865 1.399 . S
C865 C864 1.399 . S
C865 C866 1.396 . S
C865 C868 1.453 . S
C865 C869 1.684 . S
C866 C847 1.723 . S
C866 C865 1.396 . S
C866 C867 1.394 . S
C867 C863 1.397 . S
C867 C866 1.394 . S
C867 C877 1.723 . S
C868 C865 1.453 . S
C868 H892 0.982 . S
C868 H893 0.979 . S
C868 H894 0.977 . S
C869 C865 1.684 . S
C869 H895 0.979 . S
C869 H896 0.980 . S
C869 H897 0.983 . S
C870 H846 0.948 . S
C870 C871 1.391 . S
C870 C875 1.391 . S
C871 C870 1.391 . S
C871 C872 1.391 . S
C872 H849 0.947 . S
C872 C871 1.391 . S
C872 C873 1.392 . S
C873 H850 0.948 . S
C873 C872 1.392 . S
C873 C874 1.419 . S
C874 C873 1.419 . S
C874 C875 1.391 . S
C874 C878 1.397 . S
C875 C870 1.391 . S
C875 C874 1.391 . S
C875 C876 1.399 . S
C876 C875 1.399 . S
C876 C877 1.396 . S
C876 C879 1.453 . S
C876 C880 1.684 . S
C877 C867 1.723 . S
C877 C876 1.396 . S
C877 C878 1.394 . S
C878 C848 1.723 . S
C878 C874 1.397 . S
C878 C877 1.394 . S
C879 H851 0.982 . S
C879 H855 0.979 . S
C879 H856 0.977 . S
C879 C876 1.453 . S
C880 H852 0.979 . S
C880 H853 0.980 . S
C880 H854 0.983 . S
C880 C876 1.684 . S
H881 C899 0.948 . S
H882 C840 0.948 . S
H883 C858 0.979 . S
H884 C858 0.980 . S
H885 C858 0.983 . S
H886 C857 0.982 . S
H887 C857 0.979 . S
H888 C857 0.977 . S
H889 C859 0.948 . S
H890 C861 0.947 . S
H891 C862 0.948 . S
H892 C868 0.982 . S
H893 C868 0.979 . S
H894 C868 0.977 . S
H895 C869 0.979 . S
H896 C869 0.980 . S
H897 C869 0.983 . S
H898 C842 0.947 . S
C899 C842 1.392 . S
C899 C843 1.419 . S
C899 H881 0.948 . S
C900 C901 1.391 . S
C900 C904 1.391 1_565 S
C900 H942 0.948 1_566 S
C901 C900 1.391 . S
C901 C902 1.391 . S
C902 C901 1.391 . S
C902 H958 0.947 . S
C902 C959 1.392 . S
C903 C904 1.391 . S
C903 C907 1.397 . S
C903 C959 1.419 1_545 S
C904 C900 1.391 1_545 S
C904 C903 1.391 . S
C904 C905 1.381 1_556 S
C905 C904 1.381 1_554 S
C905 C908 1.368 1_554 S
C905 C917 1.458 . S
C905 C918 1.731 . S
H906 C930 0.948 . S
C907 C903 1.397 . S
C907 C908 1.394 . S
C907 C926 1.723 . S
C908 C905 1.368 1_556 S
C908 C907 1.394 . S
C908 C938 1.723 . S
H909 C932 0.947 . S
H910 C933 0.948 . S
H911 C939 0.982 . S
H912 C940 0.979 . S
H913 C940 0.980 . S
H914 C940 0.983 . S
H915 C939 0.979 . S
H916 C939 0.977 . S
C917 C905 1.458 . S
C917 H946 0.982 1_554 S
C917 H947 0.979 . S
C917 H948 0.977 . S
C918 C905 1.731 . S
C918 H943 0.979 . S
C918 H944 0.980 . S
C918 H945 0.983 . S
C919 C920 1.391 . S
C919 C924 1.391 . S
C919 H949 0.948 . S
C920 C919 1.391 . S
C920 C921 1.391 . S
C921 C920 1.391 . S
C921 C922 1.392 . S
C921 H950 0.947 . S
C922 C921 1.392 . S
C922 C923 1.419 . S
C922 H951 0.948 . S
C923 C922 1.419 . S
C923 C924 1.391 . S
C923 C927 1.397 . S
C924 C919 1.391 . S
C924 C923 1.391 . S
C924 C925 1.399 . S
C925 C924 1.399 . S
C925 C926 1.396 . S
C925 C928 1.453 . S
C925 C929 1.684 1_545 S
C926 C907 1.723 . S
C926 C925 1.396 . S
C926 C927 1.394 . S
C927 C923 1.397 . S
C927 C926 1.394 . S
C927 C937 1.723 . S
C928 C925 1.453 . S
C928 H952 0.982 . S
C928 H953 0.979 1_545 S
C928 H954 0.965 1_545 S
C929 C925 1.684 1_565 S
C929 H955 0.979 . S
C929 H956 0.980 . S
C929 H957 0.983 . S
C930 H906 0.948 . S
C930 C931 1.391 . S
C930 C935 1.387 1_554 S
C931 C930 1.391 . S
C931 C932 1.391 . S
C932 H909 0.947 . S
C932 C931 1.391 . S
C932 C933 1.392 . S
C933 H910 0.948 . S
C933 C932 1.392 . S
C933 C934 1.419 . S
C934 C933 1.419 . S
C934 C935 1.390 1_554 S
C934 C938 1.397 1_554 S
C935 C930 1.387 1_556 S
C935 C934 1.390 1_556 S
C935 C936 1.406 . S
C936 C935 1.406 . S
C936 C937 1.396 . S
C936 C939 1.453 . S
C936 C940 1.684 . S
C937 C927 1.723 . S
C937 C936 1.396 . S
C937 C938 1.394 . S
C938 C908 1.723 . S
C938 C934 1.397 1_556 S
C938 C937 1.394 . S
C939 H911 0.982 . S
C939 H915 0.979 . S
C939 H916 0.977 . S
C939 C936 1.453 . S
C940 H912 0.979 . S
C940 H913 0.980 . S
C940 H914 0.983 . S
C940 C936 1.684 . S
H941 C959 0.948 . S
H942 C900 0.948 1_544 S
H943 C918 0.979 . S
H944 C918 0.980 . S
H945 C918 0.983 . S
H946 C917 0.982 1_556 S
H947 C917 0.979 . S
H948 C917 0.977 . S
H949 C919 0.948 . S
H950 C921 0.947 . S
H951 C922 0.948 . S
H952 C928 0.982 . S
H953 C928 0.979 1_565 S
H954 C928 0.965 1_565 S
H955 C929 0.979 . S
H956 C929 0.980 . S
H957 C929 0.983 . S
H958 C902 0.947 . S
C959 C902 1.392 . S
C959 C903 1.419 1_565 S
C959 H941 0.948 . S
Mn960 O965 2.095 . S
Mn960 O975 2.162 . S
Mn960 O976 2.297 . S
Mn960 O984 2.405 . S
Mn960 O985 2.209 1_554 S
Mn960 O986 2.094 . S
Mn961 O966 2.121 . S
Mn961 N968 2.257 . S
Mn961 N977 2.282 . S
Mn961 O985 2.215 . S
Mn961 O987 2.117 . S
C962 O984 1.197 1_556 S
C962 O985 1.283 . S
C963 O975 1.281 . S
C963 O976 1.236 . S
C964 O986 1.240 . S
C964 O987 1.264 1_554 S
O965 Mn960 2.095 . S
O965 C974 1.250 . S
O966 Mn961 2.121 . S
O966 C974 1.258 1_556 S
C967 N968 1.326 . S
C967 C971 1.460 . S
C967 H973 0.929 . S
N968 Mn961 2.257 . S
N968 C967 1.326 . S
N968 C972 1.362 . S
C969 C970 1.258 . S
C969 C972 1.431 . S
C969 C989 1.449 . S
C970 C969 1.258 . S
C970 C971 1.477 . S
C970 H990 0.931 . S
C971 C967 1.460 . S
C971 C970 1.477 . S
C971 H991 0.930 . S
C972 N968 1.362 . S
C972 C969 1.431 . S
C972 C982 1.476 . S
H973 C967 0.929 . S
C974 O965 1.250 . S
C974 O966 1.258 1_554 S
O975 Mn960 2.162 . S
O975 C963 1.281 . S
O976 Mn960 2.297 . S
O976 C963 1.236 . S
N977 Mn961 2.282 . S
N977 C978 1.328 . S
N977 C982 1.318 . S
C978 N977 1.328 . S
C978 C979 1.457 . S
C978 H983 0.929 . S
C979 C978 1.457 . S
C979 C980 1.291 . S
C979 H992 0.931 . S
C980 C979 1.291 . S
C980 C981 1.373 . S
C980 H993 0.929 . S
C981 C980 1.373 . S
C981 C982 1.396 . S
C981 C988 1.403 . S
C982 C972 1.476 . S
C982 N977 1.318 . S
C982 C981 1.396 . S
H983 C978 0.929 . S
O984 Mn960 2.405 . S
O984 C962 1.197 1_554 S
O985 Mn960 2.209 1_556 S
O985 Mn961 2.215 . S
O985 C962 1.283 . S
O986 Mn960 2.094 . S
O986 C964 1.240 . S
O987 Mn961 2.117 . S
O987 C964 1.264 1_556 S
C988 C981 1.403 . S
C988 C989 1.399 . S
C988 H994 0.929 . S
C989 C969 1.449 . S
C989 C988 1.399 . S
C989 H995 0.930 . S
H990 C970 0.931 . S
H991 C971 0.930 . S
H992 C979 0.931 . S
H993 C980 0.929 . S
H994 C988 0.929 . S
H995 C989 0.930 . S
Mn996 O1001 2.095 . S
Mn996 O1011 2.162 . S
Mn996 O1012 2.297 . S
Mn996 O1020 2.385 . S
Mn996 O1021 2.209 . S
Mn996 O1022 2.094 . S
Mn997 O1002 2.121 . S
Mn997 N1004 2.257 . S
Mn997 N1013 2.282 . S
Mn997 O1021 2.215 . S
Mn997 O1023 2.117 . S
C998 O1020 1.234 . S
C998 O1021 1.283 . S
C999 O1011 1.281 . S
C999 O1012 1.236 . S
C1000 O1022 1.240 . S
C1000 O1023 1.264 . S
O1001 Mn996 2.095 . S
O1001 C1010 1.250 . S
O1002 Mn997 2.121 . S
O1002 C1010 1.258 . S
C1003 N1004 1.326 . S
C1003 C1007 1.460 . S
C1003 H1009 0.929 . S
N1004 Mn997 2.257 . S
N1004 C1003 1.326 . S
N1004 C1008 1.362 . S
C1005 C1006 1.258 . S
C1005 C1008 1.431 . S
C1005 C1025 1.449 . S
C1006 C1005 1.258 . S
C1006 C1007 1.477 . S
C1006 H1026 0.931 . S
C1007 C1003 1.460 . S
C1007 C1006 1.477 . S
C1007 H1027 0.930 . S
C1008 N1004 1.362 . S
C1008 C1005 1.431 . S
C1008 C1018 1.476 . S
H1009 C1003 0.929 . S
C1010 O1001 1.250 . S
C1010 O1002 1.258 . S
O1011 Mn996 2.162 . S
O1011 C999 1.281 . S
O1012 Mn996 2.297 . S
O1012 C999 1.236 . S
N1013 Mn997 2.282 . S
N1013 C1014 1.328 . S
N1013 C1018 1.318 . S
C1014 N1013 1.328 . S
C1014 C1015 1.457 . S
C1014 H1019 0.929 . S
C1015 C1014 1.457 . S
C1015 C1016 1.291 . S
C1015 H1028 0.931 . S
C1016 C1015 1.291 . S
C1016 C1017 1.373 . S
C1016 H1029 0.929 . S
C1017 C1016 1.373 . S
C1017 C1018 1.396 . S
C1017 C1024 1.403 . S
C1018 C1008 1.476 . S
C1018 N1013 1.318 . S
C1018 C1017 1.396 . S
H1019 C1014 0.929 . S
O1020 Mn996 2.385 . S
O1020 C998 1.234 . S
O1021 Mn996 2.209 . S
O1021 Mn997 2.215 . S
O1021 C998 1.283 . S
O1022 Mn996 2.094 . S
O1022 C1000 1.240 . S
O1023 Mn997 2.117 . S
O1023 C1000 1.264 . S
C1024 C1017 1.403 . S
C1024 C1025 1.399 . S
C1024 H1030 0.929 . S
C1025 C1005 1.449 . S
C1025 C1024 1.399 . S
C1025 H1031 0.930 . S
H1026 C1006 0.931 . S
H1027 C1007 0.930 . S
H1028 C1015 0.931 . S
H1029 C1016 0.929 . S
H1030 C1024 0.929 . S
H1031 C1025 0.930 . S
Mn1032 O1037 2.095 1_554 S
Mn1032 O1047 2.162 . S
Mn1032 O1048 2.297 1_554 S
Mn1032 O1056 2.385 . S
Mn1032 O1057 2.209 1_554 S
Mn1032 O1058 2.094 . S
Mn1033 O1038 2.121 . S
Mn1033 N1040 2.257 . S
Mn1033 N1049 2.282 . S
Mn1033 O1057 2.215 . S
Mn1033 O1059 2.117 1_556 S
C1034 O1056 1.274 . S
C1034 O1057 1.256 1_554 S
C1035 O1047 1.281 . S
C1035 O1048 1.236 1_554 S
C1036 O1058 1.240 . S
C1036 O1059 1.264 . S
O1037 Mn1032 2.095 1_556 S
O1037 C1046 1.250 . S
O1038 Mn1033 2.121 . S
O1038 C1046 1.258 . S
C1039 N1040 1.326 . S
C1039 C1043 1.460 . S
C1039 H1045 0.929 . S
N1040 Mn1033 2.257 . S
N1040 C1039 1.326 . S
N1040 C1044 1.362 . S
C1041 C1042 1.258 . S
C1041 C1044 1.431 . S
C1041 C1061 1.449 . S
C1042 C1041 1.258 . S
C1042 C1043 1.477 . S
C1042 H1062 0.931 . S
C1043 C1039 1.460 . S
C1043 C1042 1.477 . S
C1043 H1063 0.930 . S
C1044 N1040 1.362 . S
C1044 C1041 1.431 . S
C1044 C1054 1.476 . S
H1045 C1039 0.929 . S
C1046 O1037 1.250 . S
C1046 O1038 1.258 . S
O1047 Mn1032 2.162 . S
O1047 C1035 1.281 . S
O1048 Mn1032 2.297 1_556 S
O1048 C1035 1.236 1_556 S
N1049 Mn1033 2.282 . S
N1049 C1050 1.328 1_556 S
N1049 C1054 1.318 . S
C1050 N1049 1.328 1_554 S
C1050 C1051 1.457 . S
C1050 H1055 0.929 . S
C1051 C1050 1.457 . S
C1051 C1052 1.291 . S
C1051 H1064 0.931 . S
C1052 C1051 1.291 . S
C1052 C1053 1.373 1_554 S
C1052 H1065 0.929 . S
C1053 C1052 1.373 1_556 S
C1053 C1054 1.396 . S
C1053 C1060 1.403 . S
C1054 C1044 1.476 . S
C1054 N1049 1.318 . S
C1054 C1053 1.396 . S
H1055 C1050 0.929 . S
O1056 Mn1032 2.385 . S
O1056 C1034 1.274 . S
O1057 Mn1032 2.209 1_556 S
O1057 Mn1033 2.215 . S
O1057 C1034 1.256 1_556 S
O1058 Mn1032 2.094 . S
O1058 C1036 1.240 . S
O1059 Mn1033 2.117 1_554 S
O1059 C1036 1.264 . S
C1060 C1053 1.403 . S
C1060 C1061 1.399 . S
C1060 H1066 0.929 . S
C1061 C1041 1.449 . S
C1061 C1060 1.399 . S
C1061 H1067 0.930 . S
H1062 C1042 0.931 . S
H1063 C1043 0.930 . S
H1064 C1051 0.931 . S
H1065 C1052 0.929 . S
H1066 C1060 0.929 . S
H1067 C1061 0.930 . S
Mn1068 O1073 2.095 . S
Mn1068 O1083 2.162 . S
Mn1068 O1084 2.297 . S
Mn1068 O1092 2.385 1_545 S
Mn1068 O1093 2.209 1_545 S
Mn1068 O1094 2.094 . S
Mn1069 O1074 2.121 . S
Mn1069 N1076 2.257 . S
Mn1069 N1085 2.282 . S
Mn1069 O1093 2.215 . S
Mn1069 O1095 2.117 . S
C1070 O1092 1.234 . S
C1070 O1093 1.283 . S
C1071 O1083 1.281 . S
C1071 O1084 1.236 . S
C1072 O1094 1.240 . S
C1072 O1095 1.264 1_545 S
O1073 Mn1068 2.095 . S
O1073 C1082 1.247 . S
O1074 Mn1069 2.121 . S
O1074 C1082 1.261 1_565 S
C1075 N1076 1.326 . S
C1075 C1079 1.460 . S
C1075 H1081 0.929 . S
N1076 Mn1069 2.257 . S
N1076 C1075 1.326 . S
N1076 C1080 1.362 . S
C1077 C1078 1.258 . S
C1077 C1080 1.431 . S
C1077 C1097 1.449 . S
C1078 C1077 1.258 . S
C1078 C1079 1.477 . S
C1078 H1098 0.931 . S
C1079 C1075 1.460 . S
C1079 C1078 1.477 . S
C1079 H1099 0.930 . S
C1080 N1076 1.362 . S
C1080 C1077 1.431 . S
C1080 C1090 1.476 . S
H1081 C1075 0.929 . S
C1082 O1073 1.247 . S
C1082 O1074 1.261 1_545 S
O1083 Mn1068 2.162 . S
O1083 C1071 1.281 . S
O1084 Mn1068 2.297 . S
O1084 C1071 1.236 . S
N1085 Mn1069 2.282 . S
N1085 C1086 1.328 . S
N1085 C1090 1.318 . S
C1086 N1085 1.328 . S
C1086 C1087 1.457 . S
C1086 H1091 0.929 . S
C1087 C1086 1.457 . S
C1087 C1088 1.291 . S
C1087 H1100 0.931 . S
C1088 C1087 1.291 . S
C1088 C1089 1.373 . S
C1088 H1101 0.929 . S
C1089 C1088 1.373 . S
C1089 C1090 1.396 . S
C1089 C1096 1.403 . S
C1090 C1080 1.476 . S
C1090 N1085 1.318 . S
C1090 C1089 1.396 . S
H1091 C1086 0.929 . S
O1092 Mn1068 2.385 1_565 S
O1092 C1070 1.234 . S
O1093 Mn1068 2.209 1_565 S
O1093 Mn1069 2.215 . S
O1093 C1070 1.283 . S
O1094 Mn1068 2.094 . S
O1094 C1072 1.240 . S
O1095 Mn1069 2.117 . S
O1095 C1072 1.264 1_565 S
C1096 C1089 1.403 . S
C1096 C1097 1.399 . S
C1096 H1102 0.929 . S
C1097 C1077 1.449 . S
C1097 C1096 1.399 . S
C1097 H1103 0.930 . S
H1098 C1078 0.931 . S
H1099 C1079 0.930 . S
H1100 C1087 0.931 . S
H1101 C1088 0.929 . S
H1102 C1096 0.929 . S
H1103 C1097 0.930 . S
Mn1104 O1109 2.095 . S
Mn1104 O1119 2.162 . S
Mn1104 O1120 2.297 . S
Mn1104 O1128 2.385 . S
Mn1104 O1129 2.209 . S
Mn1104 O1130 2.094 . S
Mn1105 O1110 2.121 . S
Mn1105 N1112 2.257 . S
Mn1105 N1121 2.282 . S
Mn1105 O1129 2.215 . S
Mn1105 O1131 2.117 . S
C1106 O1128 1.234 . S
C1106 O1129 1.283 . S
C1107 O1119 1.281 . S
C1107 O1120 1.236 . S
C1108 O1130 1.240 . S
C1108 O1131 1.264 . S
O1109 Mn1104 2.095 . S
O1109 C1118 1.250 . S
O1110 Mn1105 2.121 . S
O1110 C1118 1.258 . S
C1111 N1112 1.326 . S
C1111 C1115 1.460 . S
C1111 H1117 0.929 . S
N1112 Mn1105 2.257 . S
N1112 C1111 1.326 . S
N1112 C1116 1.362 . S
C1113 C1114 1.258 . S
C1113 C1116 1.431 . S
C1113 C1133 1.449 . S
C1114 C1113 1.258 . S
C1114 C1115 1.477 . S
C1114 H1134 0.931 . S
C1115 C1111 1.460 . S
C1115 C1114 1.477 . S
C1115 H1135 0.930 . S
C1116 N1112 1.362 . S
C1116 C1113 1.431 . S
C1116 C1126 1.476 . S
H1117 C1111 0.929 . S
C1118 O1109 1.250 . S
C1118 O1110 1.258 . S
O1119 Mn1104 2.162 . S
O1119 C1107 1.281 . S
O1120 Mn1104 2.297 . S
O1120 C1107 1.236 . S
N1121 Mn1105 2.282 . S
N1121 C1122 1.328 . S
N1121 C1126 1.318 . S
C1122 N1121 1.328 . S
C1122 C1123 1.457 . S
C1122 H1127 0.929 . S
C1123 C1122 1.457 . S
C1123 C1124 1.291 . S
C1123 H1136 0.931 . S
C1124 C1123 1.291 . S
C1124 C1125 1.373 . S
C1124 H1137 0.929 . S
C1125 C1124 1.373 . S
C1125 C1126 1.396 . S
C1125 C1132 1.403 . S
C1126 C1116 1.476 . S
C1126 N1121 1.318 . S
C1126 C1125 1.396 . S
H1127 C1122 0.929 . S
O1128 Mn1104 2.385 . S
O1128 C1106 1.234 . S
O1129 Mn1104 2.209 . S
O1129 Mn1105 2.215 . S
O1129 C1106 1.283 . S
O1130 Mn1104 2.094 . S
O1130 C1108 1.240 . S
O1131 Mn1105 2.117 . S
O1131 C1108 1.264 . S
C1132 C1125 1.403 . S
C1132 C1133 1.399 . S
C1132 H1138 0.929 . S
C1133 C1113 1.449 . S
C1133 C1132 1.399 . S
C1133 H1139 0.930 . S
H1134 C1114 0.931 . S
H1135 C1115 0.930 . S
H1136 C1123 0.931 . S
H1137 C1124 0.929 . S
H1138 C1132 0.929 . S
H1139 C1133 0.930 . S
Mn1140 O1145 2.095 . S
Mn1140 O1155 2.162 . S
Mn1140 O1156 2.297 . S
Mn1140 O1164 2.385 . S
Mn1140 O1165 2.209 . S
Mn1140 O1166 2.094 . S
Mn1141 O1146 2.121 . S
Mn1141 N1148 2.257 . S
Mn1141 N1157 2.282 . S
Mn1141 O1165 2.215 . S
Mn1141 O1167 2.117 . S
C1142 O1164 1.234 . S
C1142 O1165 1.283 . S
C1143 O1155 1.281 . S
C1143 O1156 1.236 . S
C1144 O1166 1.240 . S
C1144 O1167 1.264 . S
O1145 Mn1140 2.095 . S
O1145 C1154 1.250 . S
O1146 Mn1141 2.121 . S
O1146 C1154 1.258 . S
C1147 N1148 1.326 . S
C1147 C1151 1.460 . S
C1147 H1153 0.929 . S
N1148 Mn1141 2.257 . S
N1148 C1147 1.326 . S
N1148 C1152 1.362 . S
C1149 C1150 1.258 . S
C1149 C1152 1.431 . S
C1149 C1169 1.449 . S
C1150 C1149 1.258 . S
C1150 C1151 1.477 . S
C1150 H1170 0.931 . S
C1151 C1147 1.460 . S
C1151 C1150 1.477 . S
C1151 H1171 0.930 . S
C1152 N1148 1.362 . S
C1152 C1149 1.431 . S
C1152 C1162 1.476 . S
H1153 C1147 0.929 . S
C1154 O1145 1.250 . S
C1154 O1146 1.258 . S
O1155 Mn1140 2.162 . S
O1155 C1143 1.281 . S
O1156 Mn1140 2.297 . S
O1156 C1143 1.236 . S
N1157 Mn1141 2.282 . S
N1157 C1158 1.328 . S
N1157 C1162 1.318 . S
C1158 N1157 1.328 . S
C1158 C1159 1.457 . S
C1158 H1163 0.929 . S
C1159 C1158 1.457 . S
C1159 C1160 1.291 . S
C1159 H1172 0.931 . S
C1160 C1159 1.291 . S
C1160 C1161 1.373 . S
C1160 H1173 0.929 . S
C1161 C1160 1.373 . S
C1161 C1162 1.396 . S
C1161 C1168 1.403 . S
C1162 C1152 1.476 . S
C1162 N1157 1.318 . S
C1162 C1161 1.396 . S
H1163 C1158 0.929 . S
O1164 Mn1140 2.385 . S
O1164 C1142 1.234 . S
O1165 Mn1140 2.209 . S
O1165 Mn1141 2.215 . S
O1165 C1142 1.283 . S
O1166 Mn1140 2.094 . S
O1166 C1144 1.240 . S
O1167 Mn1141 2.117 . S
O1167 C1144 1.264 . S
C1168 C1161 1.403 . S
C1168 C1169 1.399 . S
C1168 H1174 0.929 . S
C1169 C1149 1.449 . S
C1169 C1168 1.399 . S
C1169 H1175 0.930 . S
H1170 C1150 0.931 . S
H1171 C1151 0.930 . S
H1172 C1159 0.931 . S
H1173 C1160 0.929 . S
H1174 C1168 0.929 . S
H1175 C1169 0.930 . S
Mn1176 O1181 2.095 . S
Mn1176 O1191 2.162 . S
Mn1176 O1192 2.297 . S
Mn1176 O1200 2.385 . S
Mn1176 O1201 2.209 . S
Mn1176 O1202 2.094 . S
Mn1177 O1182 2.121 . S
Mn1177 N1184 2.257 . S
Mn1177 N1193 2.282 . S
Mn1177 O1201 2.215 . S
Mn1177 O1203 2.117 . S
C1178 O1200 1.234 . S
C1178 O1201 1.283 . S
C1179 O1191 1.281 . S
C1179 O1192 1.236 . S
C1180 O1202 1.240 . S
C1180 O1203 1.264 . S
O1181 Mn1176 2.095 . S
O1181 C1190 1.250 . S
O1182 Mn1177 2.121 . S
O1182 C1190 1.258 . S
C1183 N1184 1.326 . S
C1183 C1187 1.460 . S
C1183 H1189 0.929 . S
N1184 Mn1177 2.257 . S
N1184 C1183 1.326 . S
N1184 C1188 1.362 . S
C1185 C1186 1.258 . S
C1185 C1188 1.431 . S
C1185 C1205 1.449 . S
C1186 C1185 1.258 . S
C1186 C1187 1.477 . S
C1186 H1206 0.931 . S
C1187 C1183 1.460 . S
C1187 C1186 1.477 . S
C1187 H1207 0.930 . S
C1188 N1184 1.362 . S
C1188 C1185 1.431 . S
C1188 C1198 1.476 . S
H1189 C1183 0.929 . S
C1190 O1181 1.250 . S
C1190 O1182 1.258 . S
O1191 Mn1176 2.162 . S
O1191 C1179 1.281 . S
O1192 Mn1176 2.297 . S
O1192 C1179 1.236 . S
N1193 Mn1177 2.282 . S
N1193 C1194 1.328 . S
N1193 C1198 1.318 . S
C1194 N1193 1.328 . S
C1194 C1195 1.457 . S
C1194 H1199 0.929 . S
C1195 C1194 1.457 . S
C1195 C1196 1.291 . S
C1195 H1208 0.931 . S
C1196 C1195 1.291 . S
C1196 C1197 1.373 . S
C1196 H1209 0.929 . S
C1197 C1196 1.373 . S
C1197 C1198 1.396 . S
C1197 C1204 1.403 . S
C1198 C1188 1.476 . S
C1198 N1193 1.318 . S
C1198 C1197 1.396 . S
H1199 C1194 0.929 . S
O1200 Mn1176 2.385 . S
O1200 C1178 1.234 . S
O1201 Mn1176 2.209 . S
O1201 Mn1177 2.215 . S
O1201 C1178 1.283 . S
O1202 Mn1176 2.094 . S
O1202 C1180 1.240 . S
O1203 Mn1177 2.117 . S
O1203 C1180 1.264 . S
C1204 C1197 1.403 . S
C1204 C1205 1.399 . S
C1204 H1210 0.929 . S
C1205 C1185 1.449 . S
C1205 C1204 1.399 . S
C1205 H1211 0.930 . S
H1206 C1186 0.931 . S
H1207 C1187 0.930 . S
H1208 C1195 0.931 . S
H1209 C1196 0.929 . S
H1210 C1204 0.929 . S
H1211 C1205 0.930 . S
Mn1212 O1217 2.095 . S
Mn1212 O1227 2.162 . S
Mn1212 O1228 2.297 . S
Mn1212 O1236 2.385 1_565 S
Mn1212 O1237 2.209 1_565 S
Mn1212 O1238 2.094 . S
Mn1213 O1218 2.121 . S
Mn1213 N1220 2.257 . S
Mn1213 N1229 2.282 . S
Mn1213 O1237 2.215 . S
Mn1213 O1239 2.117 . S
C1214 O1236 1.234 . S
C1214 O1237 1.283 . S
C1215 O1227 1.281 . S
C1215 O1228 1.236 . S
C1216 O1238 1.218 1_545 S
C1216 O1239 1.292 . S
O1217 Mn1212 2.095 . S
O1217 C1226 1.250 1_565 S
O1218 Mn1213 2.121 . S
O1218 C1226 1.258 . S
C1219 N1220 1.326 . S
C1219 C1223 1.460 . S
C1219 H1225 0.929 . S
N1220 Mn1213 2.257 . S
N1220 C1219 1.326 . S
N1220 C1224 1.362 . S
C1221 C1222 1.258 . S
C1221 C1224 1.431 . S
C1221 C1241 1.449 . S
C1222 C1221 1.258 . S
C1222 C1223 1.477 . S
C1222 H1242 0.931 . S
C1223 C1219 1.460 . S
C1223 C1222 1.477 . S
C1223 H1243 0.930 . S
C1224 N1220 1.362 . S
C1224 C1221 1.431 . S
C1224 C1234 1.476 . S
H1225 C1219 0.929 . S
C1226 O1217 1.250 1_545 S
C1226 O1218 1.258 . S
O1227 Mn1212 2.162 . S
O1227 C1215 1.281 . S
O1228 Mn1212 2.297 . S
O1228 C1215 1.236 . S
N1229 Mn1213 2.282 . S
N1229 C1230 1.328 . S
N1229 C1234 1.318 . S
C1230 N1229 1.328 . S
C1230 C1231 1.457 . S
C1230 H1235 0.929 . S
C1231 C1230 1.457 . S
C1231 C1232 1.291 . S
C1231 H1244 0.931 . S
C1232 C1231 1.291 . S
C1232 C1233 1.373 . S
C1232 H1245 0.929 . S
C1233 C1232 1.373 . S
C1233 C1234 1.396 . S
C1233 C1240 1.403 . S
C1234 C1224 1.476 . S
C1234 N1229 1.318 . S
C1234 C1233 1.396 . S
H1235 C1230 0.929 . S
O1236 Mn1212 2.385 1_545 S
O1236 C1214 1.234 . S
O1237 Mn1212 2.209 1_545 S
O1237 Mn1213 2.215 . S
O1237 C1214 1.283 . S
O1238 Mn1212 2.094 . S
O1238 C1216 1.218 1_565 S
O1239 Mn1213 2.117 . S
O1239 C1216 1.292 . S
C1240 C1233 1.403 . S
C1240 C1241 1.399 . S
C1240 H1246 0.929 . S
C1241 C1221 1.449 . S
C1241 C1240 1.399 . S
C1241 H1247 0.930 . S
H1242 C1222 0.931 . S
H1243 C1223 0.930 . S
H1244 C1231 0.931 . S
H1245 C1232 0.929 . S
H1246 C1240 0.929 . S
H1247 C1241 0.930 . S
Mn1248 O1253 2.095 . S
Mn1248 O1263 2.162 . S
Mn1248 O1264 2.297 . S
Mn1248 O1272 2.385 1_455 S
Mn1248 O1273 2.209 1_455 S
Mn1248 O1274 2.094 . S
Mn1249 O1254 2.121 . S
Mn1249 N1256 2.257 . S
Mn1249 N1265 2.282 . S
Mn1249 O1273 2.215 . S
Mn1249 O1275 2.117 . S
C1250 O1272 1.234 . S
C1250 O1273 1.283 . S
C1251 O1263 1.281 . S
C1251 O1264 1.236 . S
C1252 O1274 1.240 . S
C1252 O1275 1.264 1_455 S
O1253 Mn1248 2.095 . S
O1253 C1262 1.250 1_455 S
O1254 Mn1249 2.121 . S
O1254 C1262 1.258 . S
C1255 N1256 1.326 . S
C1255 C1259 1.460 . S
C1255 H1261 0.929 . S
N1256 Mn1249 2.257 . S
N1256 C1255 1.326 . S
N1256 C1260 1.362 . S
C1257 C1258 1.258 . S
C1257 C1260 1.431 . S
C1257 C1277 1.449 . S
C1258 C1257 1.258 . S
C1258 C1259 1.477 . S
C1258 H1278 0.931 . S
C1259 C1255 1.460 . S
C1259 C1258 1.477 . S
C1259 H1279 0.930 . S
C1260 N1256 1.362 . S
C1260 C1257 1.431 . S
C1260 C1270 1.476 . S
H1261 C1255 0.929 . S
C1262 O1253 1.250 1_655 S
C1262 O1254 1.258 . S
O1263 Mn1248 2.162 . S
O1263 C1251 1.281 . S
O1264 Mn1248 2.297 . S
O1264 C1251 1.236 . S
N1265 Mn1249 2.282 . S
N1265 C1266 1.328 . S
N1265 C1270 1.318 . S
C1266 N1265 1.328 . S
C1266 C1267 1.457 . S
C1266 H1271 0.929 . S
C1267 C1266 1.457 . S
C1267 C1268 1.291 . S
C1267 H1280 0.931 . S
C1268 C1267 1.291 . S
C1268 C1269 1.373 . S
C1268 H1281 0.929 . S
C1269 C1268 1.373 . S
C1269 C1270 1.396 . S
C1269 C1276 1.403 . S
C1270 C1260 1.476 . S
C1270 N1265 1.318 . S
C1270 C1269 1.396 . S
H1271 C1266 0.929 . S
O1272 Mn1248 2.385 1_655 S
O1272 C1250 1.234 . S
O1273 Mn1248 2.209 1_655 S
O1273 Mn1249 2.215 . S
O1273 C1250 1.283 . S
O1274 Mn1248 2.094 . S
O1274 C1252 1.240 . S
O1275 Mn1249 2.117 . S
O1275 C1252 1.264 1_655 S
C1276 C1269 1.403 . S
C1276 C1277 1.399 . S
C1276 H1282 0.929 . S
C1277 C1257 1.449 . S
C1277 C1276 1.399 . S
C1277 H1283 0.930 . S
H1278 C1258 0.931 . S
H1279 C1259 0.930 . S
H1280 C1267 0.931 . S
H1281 C1268 0.929 . S
H1282 C1276 0.929 . S
H1283 C1277 0.930 . S
Mn1284 O1289 2.095 . S
Mn1284 O1299 2.162 . S
Mn1284 O1300 2.297 . S
Mn1284 O1308 2.385 . S
Mn1284 O1309 2.209 . S
Mn1284 O1310 2.094 . S
Mn1285 O1290 2.121 . S
Mn1285 N1292 2.257 . S
Mn1285 N1301 2.282 . S
Mn1285 O1309 2.215 . S
Mn1285 O1311 2.117 . S
C1286 O1308 1.234 . S
C1286 O1309 1.283 . S
C1287 O1299 1.281 . S
C1287 O1300 1.236 . S
C1288 O1310 1.240 . S
C1288 O1311 1.264 . S
O1289 Mn1284 2.095 . S
O1289 C1298 1.250 . S
O1290 Mn1285 2.121 . S
O1290 C1298 1.258 . S
C1291 N1292 1.326 . S
C1291 C1295 1.460 . S
C1291 H1297 0.929 . S
N1292 Mn1285 2.257 . S
N1292 C1291 1.326 . S
N1292 C1296 1.362 . S
C1293 C1294 1.258 . S
C1293 C1296 1.431 . S
C1293 C1313 1.449 . S
C1294 C1293 1.258 . S
C1294 C1295 1.477 . S
C1294 H1314 0.931 . S
C1295 C1291 1.460 . S
C1295 C1294 1.477 . S
C1295 H1315 0.930 . S
C1296 N1292 1.362 . S
C1296 C1293 1.431 . S
C1296 C1306 1.476 . S
H1297 C1291 0.929 . S
C1298 O1289 1.250 . S
C1298 O1290 1.258 . S
O1299 Mn1284 2.162 . S
O1299 C1287 1.281 . S
O1300 Mn1284 2.297 . S
O1300 C1287 1.236 . S
N1301 Mn1285 2.282 . S
N1301 C1302 1.328 . S
N1301 C1306 1.318 . S
C1302 N1301 1.328 . S
C1302 C1303 1.457 . S
C1302 H1307 0.929 . S
C1303 C1302 1.457 . S
C1303 C1304 1.291 . S
C1303 H1316 0.931 . S
C1304 C1303 1.291 . S
C1304 C1305 1.373 . S
C1304 H1317 0.929 . S
C1305 C1304 1.373 . S
C1305 C1306 1.396 . S
C1305 C1312 1.403 . S
C1306 C1296 1.476 . S
C1306 N1301 1.318 . S
C1306 C1305 1.396 . S
H1307 C1302 0.929 . S
O1308 Mn1284 2.385 . S
O1308 C1286 1.234 . S
O1309 Mn1284 2.209 . S
O1309 Mn1285 2.215 . S
O1309 C1286 1.283 . S
O1310 Mn1284 2.094 . S
O1310 C1288 1.240 . S
O1311 Mn1285 2.117 . S
O1311 C1288 1.264 . S
C1312 C1305 1.403 . S
C1312 C1313 1.399 . S
C1312 H1318 0.929 . S
C1313 C1293 1.449 . S
C1313 C1312 1.399 . S
C1313 H1319 0.930 . S
H1314 C1294 0.931 . S
H1315 C1295 0.930 . S
H1316 C1303 0.931 . S
H1317 C1304 0.929 . S
H1318 C1312 0.929 . S
H1319 C1313 0.930 . S
Mn1320 O1325 2.095 1_455 S
Mn1320 O1335 2.162 . S
Mn1320 O1336 2.297 1_455 S
Mn1320 O1344 2.385 . S
Mn1320 O1345 2.209 1_455 S
Mn1320 O1346 2.094 . S
Mn1321 O1326 2.121 . S
Mn1321 N1328 2.257 . S
Mn1321 N1337 2.282 1_655 S
Mn1321 O1345 2.215 . S
Mn1321 O1347 2.117 1_655 S
C1322 O1344 1.234 . S
C1322 O1345 1.283 1_455 S
C1323 O1335 1.281 . S
C1323 O1336 1.236 1_455 S
C1324 O1346 1.240 . S
C1324 O1347 1.264 . S
O1325 Mn1320 2.095 1_655 S
O1325 C1334 1.250 . S
O1326 Mn1321 2.121 . S
O1326 C1334 1.258 . S
C1327 N1328 1.326 . S
C1327 C1331 1.460 . S
C1327 H1333 0.929 . S
N1328 Mn1321 2.257 . S
N1328 C1327 1.326 . S
N1328 C1332 1.362 . S
C1329 C1330 1.258 . S
C1329 C1332 1.431 . S
C1329 C1349 1.449 . S
C1330 C1329 1.258 . S
C1330 C1331 1.477 . S
C1330 H1350 0.931 . S
C1331 C1327 1.460 . S
C1331 C1330 1.477 . S
C1331 H1351 0.930 . S
C1332 N1328 1.362 . S
C1332 C1329 1.431 . S
C1332 C1342 1.476 . S
H1333 C1327 0.929 . S
C1334 O1325 1.250 . S
C1334 O1326 1.258 . S
O1335 Mn1320 2.162 . S
O1335 C1323 1.281 . S
O1336 Mn1320 2.297 1_655 S
O1336 C1323 1.236 1_655 S
N1337 Mn1321 2.282 1_455 S
N1337 C1338 1.328 . S
N1337 C1342 1.318 1_455 S
C1338 N1337 1.328 . S
C1338 C1339 1.457 . S
C1338 H1343 0.929 . S
C1339 C1338 1.457 . S
C1339 C1340 1.291 . S
C1339 H1352 0.931 . S
C1340 C1339 1.291 . S
C1340 C1341 1.373 1_455 S
C1340 H1353 0.929 . S
C1341 C1340 1.373 1_655 S
C1341 C1342 1.396 . S
C1341 C1348 1.403 . S
C1342 C1332 1.476 . S
C1342 N1337 1.318 1_655 S
C1342 C1341 1.396 . S
H1343 C1338 0.929 . S
O1344 Mn1320 2.385 . S
O1344 C1322 1.234 . S
O1345 Mn1320 2.209 1_655 S
O1345 Mn1321 2.215 . S
O1345 C1322 1.283 1_655 S
O1346 Mn1320 2.094 . S
O1346 C1324 1.240 . S
O1347 Mn1321 2.117 1_455 S
O1347 C1324 1.264 . S
C1348 C1341 1.403 . S
C1348 C1349 1.399 . S
C1348 H1354 0.929 . S
C1349 C1329 1.449 . S
C1349 C1348 1.399 . S
C1349 H1355 0.930 . S
H1350 C1330 0.931 . S
H1351 C1331 0.930 . S
H1352 C1339 0.931 . S
H1353 C1340 0.929 . S
H1354 C1348 0.929 . S
H1355 C1349 0.930 . S
Mn1356 O1361 2.095 . S
Mn1356 O1371 2.162 . S
Mn1356 O1372 2.297 . S
Mn1356 O1380 2.385 . S
Mn1356 O1381 2.209 . S
Mn1356 O1382 2.094 . S
Mn1357 O1362 2.121 . S
Mn1357 N1364 2.257 . S
Mn1357 N1373 2.282 . S
Mn1357 O1381 2.215 . S
Mn1357 O1383 2.117 . S
C1358 O1380 1.234 . S
C1358 O1381 1.283 . S
C1359 O1371 1.281 . S
C1359 O1372 1.236 . S
C1360 O1382 1.240 . S
C1360 O1383 1.264 . S
O1361 Mn1356 2.095 . S
O1361 C1370 1.250 . S
O1362 Mn1357 2.121 . S
O1362 C1370 1.258 . S
C1363 N1364 1.326 . S
C1363 C1367 1.460 . S
C1363 H1369 0.929 . S
N1364 Mn1357 2.257 . S
N1364 C1363 1.326 . S
N1364 C1368 1.362 . S
C1365 C1366 1.258 . S
C1365 C1368 1.431 . S
C1365 C1385 1.449 . S
C1366 C1365 1.258 . S
C1366 C1367 1.477 . S
C1366 H1386 0.931 . S
C1367 C1363 1.460 . S
C1367 C1366 1.477 . S
C1367 H1387 0.930 . S
C1368 N1364 1.362 . S
C1368 C1365 1.431 . S
C1368 C1378 1.476 . S
H1369 C1363 0.929 . S
C1370 O1361 1.250 . S
C1370 O1362 1.258 . S
O1371 Mn1356 2.162 . S
O1371 C1359 1.281 . S
O1372 Mn1356 2.297 . S
O1372 C1359 1.236 . S
N1373 Mn1357 2.282 . S
N1373 C1374 1.328 . S
N1373 C1378 1.318 . S
C1374 N1373 1.328 . S
C1374 C1375 1.457 . S
C1374 H1379 0.929 . S
C1375 C1374 1.457 . S
C1375 C1376 1.291 . S
C1375 H1388 0.931 . S
C1376 C1375 1.291 . S
C1376 C1377 1.373 . S
C1376 H1389 0.929 . S
C1377 C1376 1.373 . S
C1377 C1378 1.396 . S
C1377 C1384 1.403 . S
C1378 C1368 1.476 . S
C1378 N1373 1.318 . S
C1378 C1377 1.396 . S
H1379 C1374 0.929 . S
O1380 Mn1356 2.385 . S
O1380 C1358 1.234 . S
O1381 Mn1356 2.209 . S
O1381 Mn1357 2.215 . S
O1381 C1358 1.283 . S
O1382 Mn1356 2.094 . S
O1382 C1360 1.240 . S
O1383 Mn1357 2.117 . S
O1383 C1360 1.264 . S
C1384 C1377 1.403 . S
C1384 C1385 1.399 . S
C1384 H1390 0.929 . S
C1385 C1365 1.449 . S
C1385 C1384 1.399 . S
C1385 H1391 0.930 . S
H1386 C1366 0.931 . S
H1387 C1367 0.930 . S
H1388 C1375 0.931 . S
H1389 C1376 0.929 . S
H1390 C1384 0.929 . S
H1391 C1385 0.930 . S
H1392 C1404 0.930 . S
H1393 C1406 0.930 . S
H1394 C1407 0.930 . S
H1395 C1411 0.959 . S
H1396 C1411 0.959 . S
H1397 C1411 0.961 . S
H1398 C1412 0.960 . S
H1399 C1412 0.961 . S
H1400 C1412 0.959 . S
H1401 C1415 0.929 . S
H1402 C1416 0.931 . S
H1403 C1418 0.930 . S
C1404 H1392 0.930 . S
C1404 C1405 1.399 . S
C1404 C1409 1.399 . S
C1405 C1404 1.399 . S
C1405 C1406 1.376 . S
C1406 H1393 0.930 . S
C1406 C1405 1.376 . S
C1406 C1407 1.388 . S
C1407 H1394 0.930 . S
C1407 C1406 1.388 . S
C1407 C1408 1.390 . S
C1408 C1407 1.390 . S
C1408 C1409 1.394 . S
C1408 C1414 1.465 . S
C1409 C1404 1.399 . S
C1409 C1408 1.394 . S
C1409 C1410 1.516 . S
C1410 C1409 1.516 . S
C1410 C1411 1.502 . S
C1410 C1412 1.561 . S
C1410 C1413 1.526 . S
C1411 H1395 0.959 . S
C1411 H1396 0.959 . S
C1411 H1397 0.961 . S
C1411 C1410 1.502 . S
C1412 H1398 0.960 . S
C1412 H1399 0.961 . S
C1412 H1400 0.959 . S
C1412 C1410 1.561 . S
C1413 C1410 1.526 . S
C1413 C1414 1.396 . S
C1413 C1418 1.390 . S
C1414 C1408 1.465 . S
C1414 C1413 1.396 . S
C1414 C1415 1.399 . S
C1415 H1401 0.929 . S
C1415 C1414 1.399 . S
C1415 C1416 1.385 . S
C1416 H1402 0.931 . S
C1416 C1415 1.385 . S
C1416 C1417 1.389 . S
C1417 C1416 1.389 . S
C1417 C1418 1.387 . S
C1418 H1403 0.930 . S
C1418 C1413 1.390 . S
C1418 C1417 1.387 . S
H1419 C1431 0.930 . S
H1420 C1433 0.930 . S
H1421 C1434 0.930 . S
H1422 C1438 0.959 . S
H1423 C1438 0.959 . S
H1424 C1438 0.961 . S
H1425 C1439 0.960 . S
H1426 C1439 0.961 . S
H1427 C1439 0.959 . S
H1428 C1442 0.929 . S
H1429 C1443 0.931 . S
H1430 C1445 0.930 . S
C1431 H1419 0.930 . S
C1431 C1432 1.399 . S
C1431 C1436 1.399 . S
C1432 C1431 1.399 . S
C1432 C1433 1.376 . S
C1433 H1420 0.930 . S
C1433 C1432 1.376 . S
C1433 C1434 1.388 . S
C1434 H1421 0.930 . S
C1434 C1433 1.388 . S
C1434 C1435 1.390 . S
C1435 C1434 1.390 . S
C1435 C1436 1.394 . S
C1435 C1441 1.465 . S
C1436 C1431 1.399 . S
C1436 C1435 1.394 . S
C1436 C1437 1.516 . S
C1437 C1436 1.516 . S
C1437 C1438 1.502 . S
C1437 C1439 1.561 . S
C1437 C1440 1.526 . S
C1438 H1422 0.959 . S
C1438 H1423 0.959 . S
C1438 H1424 0.961 . S
C1438 C1437 1.502 . S
C1439 H1425 0.960 . S
C1439 H1426 0.961 . S
C1439 H1427 0.959 . S
C1439 C1437 1.561 . S
C1440 C1437 1.526 . S
C1440 C1441 1.396 . S
C1440 C1445 1.390 . S
C1441 C1435 1.465 . S
C1441 C1440 1.396 . S
C1441 C1442 1.399 . S
C1442 H1428 0.929 . S
C1442 C1441 1.399 . S
C1442 C1443 1.385 . S
C1443 H1429 0.931 . S
C1443 C1442 1.385 . S
C1443 C1444 1.389 . S
C1444 C1443 1.389 . S
C1444 C1445 1.387 . S
C1445 H1430 0.930 . S
C1445 C1440 1.390 . S
C1445 C1444 1.387 . S
H1446 C1458 0.930 . S
H1447 C1460 0.930 . S
H1448 C1461 0.930 . S
H1449 C1465 0.959 . S
H1450 C1465 0.959 . S
H1451 C1465 0.961 . S
H1452 C1466 0.960 . S
H1453 C1466 0.961 . S
H1454 C1466 0.959 . S
H1455 C1469 0.929 . S
H1456 C1470 0.931 . S
H1457 C1472 0.930 . S
C1458 H1446 0.930 . S
C1458 C1459 1.399 . S
C1458 C1463 1.399 . S
C1459 C1458 1.399 . S
C1459 C1460 1.376 . S
C1460 H1447 0.930 . S
C1460 C1459 1.376 . S
C1460 C1461 1.388 . S
C1461 H1448 0.930 . S
C1461 C1460 1.388 . S
C1461 C1462 1.390 . S
C1462 C1461 1.390 . S
C1462 C1463 1.394 . S
C1462 C1468 1.465 . S
C1463 C1458 1.399 . S
C1463 C1462 1.394 . S
C1463 C1464 1.516 . S
C1464 C1463 1.516 . S
C1464 C1465 1.502 . S
C1464 C1466 1.561 . S
C1464 C1467 1.526 . S
C1465 H1449 0.959 . S
C1465 H1450 0.959 . S
C1465 H1451 0.961 . S
C1465 C1464 1.502 . S
C1466 H1452 0.960 . S
C1466 H1453 0.961 . S
C1466 H1454 0.959 . S
C1466 C1464 1.561 . S
C1467 C1464 1.526 . S
C1467 C1468 1.396 . S
C1467 C1472 1.390 . S
C1468 C1462 1.465 . S
C1468 C1467 1.396 . S
C1468 C1469 1.399 . S
C1469 H1455 0.929 . S
C1469 C1468 1.399 . S
C1469 C1470 1.385 . S
C1470 H1456 0.931 . S
C1470 C1469 1.385 . S
C1470 C1471 1.389 . S
C1471 C1470 1.389 . S
C1471 C1472 1.387 . S
C1472 H1457 0.930 . S
C1472 C1467 1.390 . S
C1472 C1471 1.387 . S
H1473 C1485 0.930 . S
H1474 C1487 0.930 . S
H1475 C1488 0.930 . S
H1476 C1492 0.959 . S
H1477 C1492 0.959 . S
H1478 C1492 0.961 . S
H1479 C1493 0.960 . S
H1480 C1493 0.961 . S
H1481 C1493 0.959 . S
H1482 C1496 0.929 . S
H1483 C1497 0.931 . S
H1484 C1499 0.930 . S
C1485 H1473 0.930 . S
C1485 C1486 1.399 . S
C1485 C1490 1.399 . S
C1486 C1485 1.399 . S
C1486 C1487 1.376 1_565 S
C1487 H1474 0.930 . S
C1487 C1486 1.376 1_545 S
C1487 C1488 1.388 . S
C1488 H1475 0.930 . S
C1488 C1487 1.388 . S
C1488 C1489 1.409 . S
C1489 C1488 1.409 . S
C1489 C1490 1.364 1_545 S
C1489 C1495 1.472 . S
C1490 C1485 1.399 . S
C1490 C1489 1.364 1_565 S
C1490 C1491 1.516 . S
C1491 C1490 1.516 . S
C1491 C1492 1.502 . S
C1491 C1493 1.561 . S
C1491 C1494 1.526 . S
C1492 H1476 0.959 . S
C1492 H1477 0.959 . S
C1492 H1478 0.961 . S
C1492 C1491 1.502 . S
C1493 H1479 0.960 . S
C1493 H1480 0.961 . S
C1493 H1481 0.959 . S
C1493 C1491 1.561 . S
C1494 C1491 1.526 . S
C1494 C1495 1.396 1_565 S
C1494 C1499 1.390 . S
C1495 C1489 1.472 . S
C1495 C1494 1.396 1_545 S
C1495 C1496 1.399 . S
C1496 H1482 0.929 . S
C1496 C1495 1.399 . S
C1496 C1497 1.385 . S
C1497 H1483 0.931 . S
C1497 C1496 1.385 . S
C1497 C1498 1.389 . S
C1498 C1497 1.389 . S
C1498 C1499 1.387 1_545 S
C1499 H1484 0.930 . S
C1499 C1494 1.390 . S
C1499 C1498 1.387 1_565 S
H1500 C1512 0.930 . S
H1501 C1514 0.930 . S
H1502 C1515 0.930 . S
H1503 C1519 0.959 . S
H1504 C1519 0.959 . S
H1505 C1519 0.961 . S
H1506 C1520 0.960 . S
H1507 C1520 0.961 . S
H1508 C1520 0.959 . S
H1509 C1523 0.929 . S
H1510 C1524 0.931 . S
H1511 C1526 0.930 . S
C1512 H1500 0.930 . S
C1512 C1513 1.399 . S
C1512 C1517 1.399 . S
C1513 C1512 1.399 . S
C1513 C1514 1.376 . S
C1514 H1501 0.930 . S
C1514 C1513 1.376 . S
C1514 C1515 1.388 . S
C1515 H1502 0.930 . S
C1515 C1514 1.388 . S
C1515 C1516 1.390 . S
C1516 C1515 1.390 . S
C1516 C1517 1.394 . S
C1516 C1522 1.465 . S
C1517 C1512 1.399 . S
C1517 C1516 1.394 . S
C1517 C1518 1.516 . S
C1518 C1517 1.516 . S
C1518 C1519 1.502 . S
C1518 C1520 1.561 . S
C1518 C1521 1.526 . S
C1519 H1503 0.959 . S
C1519 H1504 0.959 . S
C1519 H1505 0.961 . S
C1519 C1518 1.502 . S
C1520 H1506 0.960 . S
C1520 H1507 0.961 . S
C1520 H1508 0.959 . S
C1520 C1518 1.561 . S
C1521 C1518 1.526 . S
C1521 C1522 1.396 . S
C1521 C1526 1.390 . S
C1522 C1516 1.465 . S
C1522 C1521 1.396 . S
C1522 C1523 1.399 . S
C1523 H1509 0.929 . S
C1523 C1522 1.399 . S
C1523 C1524 1.385 . S
C1524 H1510 0.931 . S
C1524 C1523 1.385 . S
C1524 C1525 1.389 . S
C1525 C1524 1.389 . S
C1525 C1526 1.387 . S
C1526 H1511 0.930 . S
C1526 C1521 1.390 . S
C1526 C1525 1.387 . S
H1527 C1539 0.930 . S
H1528 C1541 0.930 . S
H1529 C1542 0.930 . S
H1530 C1546 0.959 . S
H1531 C1546 0.959 . S
H1532 C1546 0.961 . S
H1533 C1547 0.960 . S
H1534 C1547 0.961 . S
H1535 C1547 0.959 . S
H1536 C1550 0.929 . S
H1537 C1551 0.931 . S
H1538 C1553 0.930 . S
C1539 H1527 0.930 . S
C1539 C1540 1.399 . S
C1539 C1544 1.399 . S
C1540 C1539 1.399 . S
C1540 C1541 1.376 . S
C1541 H1528 0.930 . S
C1541 C1540 1.376 . S
C1541 C1542 1.388 . S
C1542 H1529 0.930 . S
C1542 C1541 1.388 . S
C1542 C1543 1.390 . S
C1543 C1542 1.390 . S
C1543 C1544 1.394 . S
C1543 C1549 1.465 . S
C1544 C1539 1.399 . S
C1544 C1543 1.394 . S
C1544 C1545 1.516 . S
C1545 C1544 1.516 . S
C1545 C1546 1.502 . S
C1545 C1547 1.561 . S
C1545 C1548 1.526 . S
C1546 H1530 0.959 . S
C1546 H1531 0.959 . S
C1546 H1532 0.961 . S
C1546 C1545 1.502 . S
C1547 H1533 0.960 . S
C1547 H1534 0.961 . S
C1547 H1535 0.959 . S
C1547 C1545 1.561 . S
C1548 C1545 1.526 . S
C1548 C1549 1.396 . S
C1548 C1553 1.390 . S
C1549 C1543 1.465 . S
C1549 C1548 1.396 . S
C1549 C1550 1.399 . S
C1550 H1536 0.929 . S
C1550 C1549 1.399 . S
C1550 C1551 1.385 . S
C1551 H1537 0.931 . S
C1551 C1550 1.385 . S
C1551 C1552 1.389 . S
C1552 C1551 1.389 . S
C1552 C1553 1.387 . S
C1553 H1538 0.930 . S
C1553 C1548 1.390 . S
C1553 C1552 1.387 . S
H1554 C1566 0.930 . S
H1555 C1568 0.930 . S
H1556 C1569 0.930 . S
H1557 C1573 0.959 . S
H1558 C1573 0.959 . S
H1559 C1573 0.961 . S
H1560 C1574 0.960 . S
H1561 C1574 0.961 . S
H1562 C1574 0.959 . S
H1563 C1577 0.929 . S
H1564 C1578 0.931 . S
H1565 C1580 0.930 . S
C1566 H1554 0.930 . S
C1566 C1567 1.399 . S
C1566 C1571 1.399 . S
C1567 C1566 1.399 . S
C1567 C1568 1.376 . S
C1568 H1555 0.930 . S
C1568 C1567 1.376 . S
C1568 C1569 1.388 . S
C1569 H1556 0.930 . S
C1569 C1568 1.388 . S
C1569 C1570 1.390 . S
C1570 C1569 1.390 . S
C1570 C1571 1.394 . S
C1570 C1576 1.465 . S
C1571 C1566 1.399 . S
C1571 C1570 1.394 . S
C1571 C1572 1.516 . S
C1572 C1571 1.516 . S
C1572 C1573 1.502 . S
C1572 C1574 1.561 . S
C1572 C1575 1.526 . S
C1573 H1557 0.959 . S
C1573 H1558 0.959 . S
C1573 H1559 0.961 . S
C1573 C1572 1.502 . S
C1574 H1560 0.960 . S
C1574 H1561 0.961 . S
C1574 H1562 0.959 . S
C1574 C1572 1.561 . S
C1575 C1572 1.526 . S
C1575 C1576 1.396 . S
C1575 C1580 1.390 . S
C1576 C1570 1.465 . S
C1576 C1575 1.396 . S
C1576 C1577 1.399 . S
C1577 H1563 0.929 . S
C1577 C1576 1.399 . S
C1577 C1578 1.385 . S
C1578 H1564 0.931 . S
C1578 C1577 1.385 . S
C1578 C1579 1.389 . S
C1579 C1578 1.389 . S
C1579 C1580 1.387 . S
C1580 H1565 0.930 . S
C1580 C1575 1.390 . S
C1580 C1579 1.387 . S
H1581 C1593 0.930 . S
H1582 C1595 0.930 . S
H1583 C1596 0.930 . S
H1584 C1600 0.959 . S
H1585 C1600 0.959 . S
H1586 C1600 0.961 . S
H1587 C1601 0.960 . S
H1588 C1601 0.961 . S
H1589 C1601 0.959 . S
H1590 C1604 0.929 . S
H1591 C1605 0.931 . S
H1592 C1607 0.930 . S
C1593 H1581 0.930 . S
C1593 C1594 1.399 . S
C1593 C1598 1.399 . S
C1594 C1593 1.399 . S
C1594 C1595 1.376 1_565 S
C1595 H1582 0.930 . S
C1595 C1594 1.376 1_545 S
C1595 C1596 1.388 . S
C1596 H1583 0.930 . S
C1596 C1595 1.388 . S
C1596 C1597 1.390 1_545 S
C1597 C1596 1.390 1_565 S
C1597 C1598 1.394 . S
C1597 C1603 1.465 1_565 S
C1598 C1593 1.399 . S
C1598 C1597 1.394 . S
C1598 C1599 1.516 . S
C1599 C1598 1.516 . S
C1599 C1600 1.502 . S
C1599 C1601 1.561 . S
C1599 C1602 1.526 . S
C1600 H1584 0.959 . S
C1600 H1585 0.959 . S
C1600 H1586 0.961 . S
C1600 C1599 1.502 . S
C1601 H1587 0.960 . S
C1601 H1588 0.961 . S
C1601 H1589 0.959 . S
C1601 C1599 1.561 . S
C1602 C1599 1.526 . S
C1602 C1603 1.395 1_565 S
C1602 C1607 1.390 . S
C1603 C1597 1.465 1_545 S
C1603 C1602 1.395 1_545 S
C1603 C1604 1.400 . S
C1604 H1590 0.929 . S
C1604 C1603 1.400 . S
C1604 C1605 1.385 . S
C1605 H1591 0.931 . S
C1605 C1604 1.385 . S
C1605 C1606 1.389 1_545 S
C1606 C1605 1.389 1_565 S
C1606 C1607 1.387 . S
C1607 H1592 0.930 . S
C1607 C1602 1.390 . S
C1607 C1606 1.387 . S
H1608 C1620 0.930 . S
H1609 C1622 0.930 . S
H1610 C1623 0.930 . S
H1611 C1627 0.959 . S
H1612 C1627 0.959 . S
H1613 C1627 0.961 . S
H1614 C1628 0.960 . S
H1615 C1628 0.961 . S
H1616 C1628 0.959 . S
H1617 C1631 0.929 . S
H1618 C1632 0.931 . S
H1619 C1634 0.930 . S
C1620 H1608 0.930 . S
C1620 C1621 1.399 . S
C1620 C1625 1.399 . S
C1621 C1620 1.399 . S
C1621 C1622 1.376 . S
C1622 H1609 0.930 . S
C1622 C1621 1.376 . S
C1622 C1623 1.388 . S
C1623 H1610 0.930 . S
C1623 C1622 1.388 . S
C1623 C1624 1.390 . S
C1624 C1623 1.390 . S
C1624 C1625 1.394 . S
C1624 C1630 1.465 . S
C1625 C1620 1.399 . S
C1625 C1624 1.394 . S
C1625 C1626 1.516 . S
C1626 C1625 1.516 . S
C1626 C1627 1.502 . S
C1626 C1628 1.561 . S
C1626 C1629 1.526 . S
C1627 H1611 0.959 . S
C1627 H1612 0.959 . S
C1627 H1613 0.961 . S
C1627 C1626 1.502 . S
C1628 H1614 0.960 . S
C1628 H1615 0.961 . S
C1628 H1616 0.959 . S
C1628 C1626 1.561 . S
C1629 C1626 1.526 . S
C1629 C1630 1.396 . S
C1629 C1634 1.390 . S
C1630 C1624 1.465 . S
C1630 C1629 1.396 . S
C1630 C1631 1.399 . S
C1631 H1617 0.929 . S
C1631 C1630 1.399 . S
C1631 C1632 1.385 . S
C1632 H1618 0.931 . S
C1632 C1631 1.385 . S
C1632 C1633 1.389 . S
C1633 C1632 1.389 . S
C1633 C1634 1.387 . S
C1634 H1619 0.930 . S
C1634 C1629 1.390 . S
C1634 C1633 1.387 . S
H1635 C1647 0.930 . S
H1636 C1649 0.930 . S
H1637 C1650 0.930 . S
H1638 C1654 0.959 . S
H1639 C1654 0.959 . S
H1640 C1654 0.961 . S
H1641 C1655 0.960 . S
H1642 C1655 0.961 . S
H1643 C1655 0.959 . S
H1644 C1658 0.929 . S
H1645 C1659 0.931 . S
H1646 C1661 0.930 . S
C1647 H1635 0.930 . S
C1647 C1648 1.399 . S
C1647 C1652 1.399 . S
C1648 C1647 1.399 . S
C1648 C1649 1.376 . S
C1649 H1636 0.930 . S
C1649 C1648 1.376 . S
C1649 C1650 1.388 . S
C1650 H1637 0.930 . S
C1650 C1649 1.388 . S
C1650 C1651 1.390 . S
C1651 C1650 1.390 . S
C1651 C1652 1.394 . S
C1651 C1657 1.465 . S
C1652 C1647 1.399 . S
C1652 C1651 1.394 . S
C1652 C1653 1.516 . S
C1653 C1652 1.516 . S
C1653 C1654 1.502 . S
C1653 C1655 1.561 . S
C1653 C1656 1.526 . S
C1654 H1638 0.959 . S
C1654 H1639 0.959 . S
C1654 H1640 0.961 . S
C1654 C1653 1.502 . S
C1655 H1641 0.960 . S
C1655 H1642 0.961 . S
C1655 H1643 0.959 . S
C1655 C1653 1.561 . S
C1656 C1653 1.526 . S
C1656 C1657 1.396 . S
C1656 C1661 1.390 . S
C1657 C1651 1.465 . S
C1657 C1656 1.396 . S
C1657 C1658 1.399 . S
C1658 H1644 0.929 . S
C1658 C1657 1.399 . S
C1658 C1659 1.385 . S
C1659 H1645 0.931 . S
C1659 C1658 1.385 . S
C1659 C1660 1.389 . S
C1660 C1659 1.389 . S
C1660 C1661 1.387 . S
C1661 H1646 0.930 . S
C1661 C1656 1.390 . S
C1661 C1660 1.387 . S
H1662 C1674 0.930 . S
H1663 C1676 0.930 . S
H1664 C1677 0.930 . S
H1665 C1681 0.959 . S
H1666 C1681 0.959 . S
H1667 C1681 0.961 . S
H1668 C1682 0.960 . S
H1669 C1682 0.961 . S
H1670 C1682 0.959 . S
H1671 C1685 0.929 . S
H1672 C1686 0.931 . S
H1673 C1688 0.930 . S
C1674 H1662 0.930 . S
C1674 C1675 1.399 . S
C1674 C1679 1.399 . S
C1675 C1674 1.399 . S
C1675 C1676 1.376 . S
C1676 H1663 0.930 . S
C1676 C1675 1.376 . S
C1676 C1677 1.388 . S
C1677 H1664 0.930 . S
C1677 C1676 1.388 . S
C1677 C1678 1.390 . S
C1678 C1677 1.390 . S
C1678 C1679 1.394 . S
C1678 C1684 1.465 . S
C1679 C1674 1.399 . S
C1679 C1678 1.394 . S
C1679 C1680 1.516 . S
C1680 C1679 1.516 . S
C1680 C1681 1.502 . S
C1680 C1682 1.561 . S
C1680 C1683 1.526 . S
C1681 H1665 0.959 . S
C1681 H1666 0.959 . S
C1681 H1667 0.961 . S
C1681 C1680 1.502 . S
C1682 H1668 0.960 . S
C1682 H1669 0.961 . S
C1682 H1670 0.959 . S
C1682 C1680 1.561 . S
C1683 C1680 1.526 . S
C1683 C1684 1.396 . S
C1683 C1688 1.390 . S
C1684 C1678 1.465 . S
C1684 C1683 1.396 . S
C1684 C1685 1.399 . S
C1685 H1671 0.929 . S
C1685 C1684 1.399 . S
C1685 C1686 1.385 . S
C1686 H1672 0.931 . S
C1686 C1685 1.385 . S
C1686 C1687 1.389 . S
C1687 C1686 1.389 . S
C1687 C1688 1.387 . S
C1688 H1673 0.930 . S
C1688 C1683 1.390 . S
C1688 C1687 1.387 . S
H1689 C1701 0.930 . S
H1690 C1703 0.930 . S
H1691 C1704 0.930 . S
H1692 C1708 0.959 . S
H1693 C1708 0.959 . S
H1694 C1708 0.961 . S
H1695 C1709 0.960 . S
H1696 C1709 0.961 . S
H1697 C1709 0.959 . S
H1698 C1712 0.929 . S
H1699 C1713 0.931 . S
H1700 C1715 0.930 . S
C1701 H1689 0.930 . S
C1701 C1702 1.399 . S
C1701 C1706 1.399 . S
C1702 C1701 1.399 . S
C1702 C1703 1.376 . S
C1703 H1690 0.930 . S
C1703 C1702 1.376 . S
C1703 C1704 1.388 . S
C1704 H1691 0.930 . S
C1704 C1703 1.388 . S
C1704 C1705 1.390 . S
C1705 C1704 1.390 . S
C1705 C1706 1.394 . S
C1705 C1711 1.465 . S
C1706 C1701 1.399 . S
C1706 C1705 1.394 . S
C1706 C1707 1.516 . S
C1707 C1706 1.516 . S
C1707 C1708 1.502 . S
C1707 C1709 1.561 . S
C1707 C1710 1.526 . S
C1708 H1692 0.959 . S
C1708 H1693 0.959 . S
C1708 H1694 0.961 . S
C1708 C1707 1.502 . S
C1709 H1695 0.960 . S
C1709 H1696 0.961 . S
C1709 H1697 0.959 . S
C1709 C1707 1.561 . S
C1710 C1707 1.526 . S
C1710 C1711 1.396 . S
C1710 C1715 1.390 . S
C1711 C1705 1.465 . S
C1711 C1710 1.396 . S
C1711 C1712 1.399 . S
C1712 H1698 0.929 . S
C1712 C1711 1.399 . S
C1712 C1713 1.385 . S
C1713 H1699 0.931 . S
C1713 C1712 1.385 . S
C1713 C1714 1.389 . S
C1714 C1713 1.389 . S
C1714 C1715 1.387 . S
C1715 H1700 0.930 . S
C1715 C1710 1.390 . S
C1715 C1714 1.387 . S
H1716 C1728 0.930 . S
H1717 C1730 0.930 . S
H1718 C1731 0.930 . S
H1719 C1735 0.959 . S
H1720 C1735 0.959 . S
H1721 C1735 0.961 . S
H1722 C1736 0.960 . S
H1723 C1736 0.961 . S
H1724 C1736 0.959 . S
H1725 C1739 0.929 . S
H1726 C1740 0.931 . S
H1727 C1742 0.930 . S
C1728 H1716 0.930 . S
C1728 C1729 1.399 . S
C1728 C1733 1.399 . S
C1729 C1728 1.399 . S
C1729 C1730 1.376 . S
C1730 H1717 0.930 . S
C1730 C1729 1.376 . S
C1730 C1731 1.388 . S
C1731 H1718 0.930 . S
C1731 C1730 1.388 . S
C1731 C1732 1.390 . S
C1732 C1731 1.390 . S
C1732 C1733 1.394 . S
C1732 C1738 1.465 . S
C1733 C1728 1.399 . S
C1733 C1732 1.394 . S
C1733 C1734 1.516 . S
C1734 C1733 1.516 . S
C1734 C1735 1.502 . S
C1734 C1736 1.561 . S
C1734 C1737 1.526 . S
C1735 H1719 0.959 . S
C1735 H1720 0.959 . S
C1735 H1721 0.961 . S
C1735 C1734 1.502 . S
C1736 H1722 0.960 . S
C1736 H1723 0.961 . S
C1736 H1724 0.959 . S
C1736 C1734 1.561 . S
C1737 C1734 1.526 . S
C1737 C1738 1.396 . S
C1737 C1742 1.390 . S
C1738 C1732 1.465 . S
C1738 C1737 1.396 . S
C1738 C1739 1.399 . S
C1739 H1725 0.929 . S
C1739 C1738 1.399 . S
C1739 C1740 1.385 . S
C1740 H1726 0.931 . S
C1740 C1739 1.385 . S
C1740 C1741 1.389 . S
C1741 C1740 1.389 . S
C1741 C1742 1.387 . S
C1742 H1727 0.930 . S
C1742 C1737 1.390 . S
C1742 C1741 1.387 . S
H1743 C1755 0.930 . S
H1744 C1757 0.930 . S
H1745 C1758 0.930 . S
H1746 C1762 0.959 . S
H1747 C1762 0.959 . S
H1748 C1762 0.961 . S
H1749 C1763 0.960 . S
H1750 C1763 0.961 . S
H1751 C1763 0.959 . S
H1752 C1766 0.929 . S
H1753 C1767 0.931 . S
H1754 C1769 0.930 . S
C1755 H1743 0.930 . S
C1755 C1756 1.399 . S
C1755 C1760 1.399 . S
C1756 C1755 1.399 . S
C1756 C1757 1.376 . S
C1757 H1744 0.930 . S
C1757 C1756 1.376 . S
C1757 C1758 1.388 . S
C1758 H1745 0.930 . S
C1758 C1757 1.388 . S
C1758 C1759 1.390 . S
C1759 C1758 1.390 . S
C1759 C1760 1.394 . S
C1759 C1765 1.465 . S
C1760 C1755 1.399 . S
C1760 C1759 1.394 . S
C1760 C1761 1.516 . S
C1761 C1760 1.516 . S
C1761 C1762 1.502 1_455 S
C1761 C1763 1.561 . S
C1761 C1764 1.526 . S
C1762 H1746 0.959 . S
C1762 H1747 0.959 . S
C1762 H1748 0.961 . S
C1762 C1761 1.502 1_655 S
C1763 H1749 0.960 . S
C1763 H1750 0.961 . S
C1763 H1751 0.959 . S
C1763 C1761 1.561 . S
C1764 C1761 1.526 . S
C1764 C1765 1.396 . S
C1764 C1769 1.390 . S
C1765 C1759 1.465 . S
C1765 C1764 1.396 . S
C1765 C1766 1.399 . S
C1766 H1752 0.929 . S
C1766 C1765 1.399 . S
C1766 C1767 1.385 . S
C1767 H1753 0.931 . S
C1767 C1766 1.385 . S
C1767 C1768 1.389 . S
C1768 C1767 1.389 . S
C1768 C1769 1.387 . S
C1769 H1754 0.930 . S
C1769 C1764 1.390 . S
C1769 C1768 1.387 . S
H1770 C1782 0.930 . S
H1771 C1784 0.930 . S
H1772 C1785 0.930 . S
H1773 C1789 0.959 . S
H1774 C1789 0.959 . S
H1775 C1789 0.961 . S
H1776 C1790 0.960 . S
H1777 C1790 0.961 . S
H1778 C1790 0.959 . S
H1779 C1793 0.929 . S
H1780 C1794 0.931 . S
H1781 C1796 0.930 . S
C1782 H1770 0.930 . S
C1782 C1783 1.399 . S
C1782 C1787 1.399 . S
C1783 C1782 1.399 . S
C1783 C1784 1.376 . S
C1784 H1771 0.930 . S
C1784 C1783 1.376 . S
C1784 C1785 1.388 . S
C1785 H1772 0.930 . S
C1785 C1784 1.388 . S
C1785 C1786 1.390 . S
C1786 C1785 1.390 . S
C1786 C1787 1.394 . S
C1786 C1792 1.465 . S
C1787 C1782 1.399 . S
C1787 C1786 1.394 . S
C1787 C1788 1.516 . S
C1788 C1787 1.516 . S
C1788 C1789 1.502 . S
C1788 C1790 1.561 . S
C1788 C1791 1.526 . S
C1789 H1773 0.959 . S
C1789 H1774 0.959 . S
C1789 H1775 0.961 . S
C1789 C1788 1.502 . S
C1790 H1776 0.960 . S
C1790 H1777 0.961 . S
C1790 H1778 0.959 . S
C1790 C1788 1.561 . S
C1791 C1788 1.526 . S
C1791 C1792 1.396 . S
C1791 C1796 1.390 . S
C1792 C1786 1.465 . S
C1792 C1791 1.396 . S
C1792 C1793 1.399 . S
C1793 H1779 0.929 . S
C1793 C1792 1.399 . S
C1793 C1794 1.385 . S
C1794 H1780 0.931 . S
C1794 C1793 1.385 . S
C1794 C1795 1.389 . S
C1795 C1794 1.389 . S
C1795 C1796 1.387 . S
C1796 H1781 0.930 . S
C1796 C1791 1.390 . S
C1796 C1795 1.387 . S
H1797 C1809 0.930 . S
H1798 C1811 0.930 . S
H1799 C1812 0.930 . S
H1800 C1816 0.959 . S
H1801 C1816 0.959 . S
H1802 C1816 0.961 . S
H1803 C1817 0.960 . S
H1804 C1817 0.961 . S
H1805 C1817 0.959 . S
H1806 C1820 0.929 . S
H1807 C1821 0.931 . S
H1808 C1823 0.930 . S
C1809 H1797 0.930 . S
C1809 C1810 1.399 . S
C1809 C1814 1.399 . S
C1810 C1809 1.399 . S
C1810 C1811 1.376 1_655 S
C1811 H1798 0.930 . S
C1811 C1810 1.376 1_455 S
C1811 C1812 1.388 . S
C1812 H1799 0.930 . S
C1812 C1811 1.388 . S
C1812 C1813 1.370 1_455 S
C1813 C1812 1.370 1_655 S
C1813 C1814 1.423 . S
C1813 C1819 1.462 1_655 S
C1814 C1809 1.399 . S
C1814 C1813 1.423 . S
C1814 C1815 1.516 . S
C1815 C1814 1.516 . S
C1815 C1816 1.502 . S
C1815 C1817 1.561 . S
C1815 C1818 1.526 . S
C1816 H1800 0.959 . S
C1816 H1801 0.959 . S
C1816 H1802 0.961 . S
C1816 C1815 1.502 . S
C1817 H1803 0.960 . S
C1817 H1804 0.961 . S
C1817 H1805 0.959 . S
C1817 C1815 1.561 . S
C1818 C1815 1.526 . S
C1818 C1819 1.396 1_655 S
C1818 C1823 1.390 . S
C1819 C1813 1.462 1_455 S
C1819 C1818 1.396 1_455 S
C1819 C1820 1.399 . S
C1820 H1806 0.929 . S
C1820 C1819 1.399 . S
C1820 C1821 1.385 . S
C1821 H1807 0.931 . S
C1821 C1820 1.385 . S
C1821 C1822 1.389 . S
C1822 C1821 1.389 . S
C1822 C1823 1.387 1_455 S
C1823 H1808 0.930 . S
C1823 C1818 1.390 . S
C1823 C1822 1.387 1_655 S
H1824 C1836 0.930 . S
H1825 C1838 0.930 . S
H1826 C1839 0.930 . S
H1827 C1843 0.959 . S
H1828 C1843 0.959 . S
H1829 C1843 0.961 . S
H1830 C1844 0.960 . S
H1831 C1844 0.961 . S
H1832 C1844 0.959 . S
H1833 C1847 0.929 . S
H1834 C1848 0.931 . S
H1835 C1850 0.930 . S
C1836 H1824 0.930 . S
C1836 C1837 1.399 . S
C1836 C1841 1.399 . S
C1837 C1836 1.399 . S
C1837 C1838 1.376 . S
C1838 H1825 0.930 . S
C1838 C1837 1.376 . S
C1838 C1839 1.388 . S
C1839 H1826 0.930 . S
C1839 C1838 1.388 . S
C1839 C1840 1.390 . S
C1840 C1839 1.390 . S
C1840 C1841 1.394 . S
C1840 C1846 1.465 . S
C1841 C1836 1.399 . S
C1841 C1840 1.394 . S
C1841 C1842 1.516 . S
C1842 C1841 1.516 . S
C1842 C1843 1.502 . S
C1842 C1844 1.561 . S
C1842 C1845 1.526 . S
C1843 H1827 0.959 . S
C1843 H1828 0.959 . S
C1843 H1829 0.961 . S
C1843 C1842 1.502 . S
C1844 H1830 0.960 . S
C1844 H1831 0.961 . S
C1844 H1832 0.959 . S
C1844 C1842 1.561 . S
C1845 C1842 1.526 . S
C1845 C1846 1.396 . S
C1845 C1850 1.390 . S
C1846 C1840 1.465 . S
C1846 C1845 1.396 . S
C1846 C1847 1.399 . S
C1847 H1833 0.929 . S
C1847 C1846 1.399 . S
C1847 C1848 1.385 . S
C1848 H1834 0.931 . S
C1848 C1847 1.385 . S
C1848 C1849 1.389 . S
C1849 C1848 1.389 . S
C1849 C1850 1.387 . S
C1850 H1835 0.930 . S
C1850 C1845 1.390 . S
C1850 C1849 1.387 . S
H1851 C1863 0.930 . S
H1852 C1865 0.930 . S
H1853 C1866 0.930 . S
H1854 C1870 0.959 . S
H1855 C1870 0.959 . S
H1856 C1870 0.961 . S
H1857 C1871 0.960 . S
H1858 C1871 0.961 . S
H1859 C1871 0.959 . S
H1860 C1874 0.929 . S
H1861 C1875 0.931 . S
H1862 C1877 0.930 . S
C1863 H1851 0.930 . S
C1863 C1864 1.399 . S
C1863 C1868 1.399 . S
C1864 C1863 1.399 . S
C1864 C1865 1.376 . S
C1865 H1852 0.930 . S
C1865 C1864 1.376 . S
C1865 C1866 1.388 . S
C1866 H1853 0.930 . S
C1866 C1865 1.388 . S
C1866 C1867 1.390 . S
C1867 C1866 1.390 . S
C1867 C1868 1.394 . S
C1867 C1873 1.465 . S
C1868 C1863 1.399 . S
C1868 C1867 1.394 . S
C1868 C1869 1.516 . S
C1869 C1868 1.516 . S
C1869 C1870 1.502 . S
C1869 C1871 1.561 . S
C1869 C1872 1.526 . S
C1870 H1854 0.959 . S
C1870 H1855 0.959 . S
C1870 H1856 0.961 . S
C1870 C1869 1.502 . S
C1871 H1857 0.960 . S
C1871 H1858 0.961 . S
C1871 H1859 0.959 . S
C1871 C1869 1.561 . S
C1872 C1869 1.526 . S
C1872 C1873 1.396 . S
C1872 C1877 1.390 . S
C1873 C1867 1.465 . S
C1873 C1872 1.396 . S
C1873 C1874 1.399 . S
C1874 H1860 0.929 . S
C1874 C1873 1.399 . S
C1874 C1875 1.385 . S
C1875 H1861 0.931 . S
C1875 C1874 1.385 . S
C1875 C1876 1.389 . S
C1876 C1875 1.389 . S
C1876 C1877 1.387 . S
C1877 H1862 0.930 . S
C1877 C1872 1.390 . S
C1877 C1876 1.387 . S
H1878 C1890 0.930 . S
H1879 C1892 0.930 . S
H1880 C1893 0.930 . S
H1881 C1897 0.959 . S
H1882 C1897 0.959 . S
H1883 C1897 0.961 . S
H1884 C1898 0.960 . S
H1885 C1898 0.961 . S
H1886 C1898 0.959 . S
H1887 C1901 0.929 . S
H1888 C1902 0.931 . S
H1889 C1904 0.930 . S
C1890 H1878 0.930 . S
C1890 C1891 1.399 1_554 S
C1890 C1895 1.399 . S
C1891 C1890 1.399 1_556 S
C1891 C1892 1.376 . S
C1892 H1879 0.930 . S
C1892 C1891 1.376 . S
C1892 C1893 1.388 . S
C1893 H1880 0.930 . S
C1893 C1892 1.388 . S
C1893 C1894 1.390 . S
C1894 C1893 1.390 . S
C1894 C1895 1.394 1_556 S
C1894 C1900 1.465 . S
C1895 C1890 1.399 . S
C1895 C1894 1.394 1_554 S
C1895 C1896 1.516 . S
C1896 C1895 1.516 . S
C1896 C1897 1.502 . S
C1896 C1898 1.561 . S
C1896 C1899 1.526 . S
C1897 H1881 0.959 . S
C1897 H1882 0.959 . S
C1897 H1883 0.961 . S
C1897 C1896 1.502 . S
C1898 H1884 0.960 . S
C1898 H1885 0.961 . S
C1898 H1886 0.959 . S
C1898 C1896 1.561 . S
C1899 C1896 1.526 . S
C1899 C1900 1.396 1_554 S
C1899 C1904 1.390 . S
C1900 C1894 1.465 . S
C1900 C1899 1.396 1_556 S
C1900 C1901 1.399 . S
C1901 H1887 0.929 . S
C1901 C1900 1.399 . S
C1901 C1902 1.385 . S
C1902 H1888 0.931 . S
C1902 C1901 1.385 . S
C1902 C1903 1.389 1_556 S
C1903 C1902 1.389 1_554 S
C1903 C1904 1.387 . S
C1904 H1889 0.930 . S
C1904 C1899 1.390 . S
C1904 C1903 1.387 . S
H1905 C1917 0.930 . S
H1906 C1919 0.930 . S
H1907 C1920 0.930 . S
H1908 C1924 0.959 . S
H1909 C1924 0.959 . S
H1910 C1924 0.961 . S
H1911 C1925 0.960 . S
H1912 C1925 0.961 . S
H1913 C1925 0.959 . S
H1914 C1928 0.929 . S
H1915 C1929 0.931 . S
H1916 C1931 0.930 . S
C1917 H1905 0.930 . S
C1917 C1918 1.399 . S
C1917 C1922 1.399 . S
C1918 C1917 1.399 . S
C1918 C1919 1.376 . S
C1919 H1906 0.930 . S
C1919 C1918 1.376 . S
C1919 C1920 1.388 . S
C1920 H1907 0.930 . S
C1920 C1919 1.388 . S
C1920 C1921 1.390 . S
C1921 C1920 1.390 . S
C1921 C1922 1.394 . S
C1921 C1927 1.465 . S
C1922 C1917 1.399 . S
C1922 C1921 1.394 . S
C1922 C1923 1.516 . S
C1923 C1922 1.516 . S
C1923 C1924 1.502 . S
C1923 C1925 1.561 . S
C1923 C1926 1.526 . S
C1924 H1908 0.959 . S
C1924 H1909 0.959 . S
C1924 H1910 0.961 . S
C1924 C1923 1.502 . S
C1925 H1911 0.960 . S
C1925 H1912 0.961 . S
C1925 H1913 0.959 . S
C1925 C1923 1.561 . S
C1926 C1923 1.526 . S
C1926 C1927 1.396 . S
C1926 C1931 1.390 . S
C1927 C1921 1.465 . S
C1927 C1926 1.396 . S
C1927 C1928 1.399 . S
C1928 H1914 0.929 . S
C1928 C1927 1.399 . S
C1928 C1929 1.385 . S
C1929 H1915 0.931 . S
C1929 C1928 1.385 . S
C1929 C1930 1.389 . S
C1930 C1929 1.389 . S
C1930 C1931 1.387 . S
C1931 H1916 0.930 . S
C1931 C1926 1.390 . S
C1931 C1930 1.387 . S
H1932 C1944 0.930 . S
H1933 C1946 0.930 . S
H1934 C1947 0.930 . S
H1935 C1951 0.959 . S
H1936 C1951 0.959 . S
H1937 C1951 0.961 . S
H1938 C1952 0.960 . S
H1939 C1952 0.961 . S
H1940 C1952 0.959 . S
H1941 C1955 0.929 . S
H1942 C1956 0.931 . S
H1943 C1958 0.930 . S
C1944 H1932 0.930 . S
C1944 C1945 1.399 . S
C1944 C1949 1.399 . S
C1945 C1944 1.399 . S
C1945 C1946 1.376 . S
C1946 H1933 0.930 . S
C1946 C1945 1.376 . S
C1946 C1947 1.388 . S
C1947 H1934 0.930 . S
C1947 C1946 1.388 . S
C1947 C1948 1.390 . S
C1948 C1947 1.390 . S
C1948 C1949 1.394 . S
C1948 C1954 1.465 . S
C1949 C1944 1.399 . S
C1949 C1948 1.394 . S
C1949 C1950 1.516 . S
C1950 C1949 1.516 . S
C1950 C1951 1.502 . S
C1950 C1952 1.561 . S
C1950 C1953 1.526 . S
C1951 H1935 0.959 . S
C1951 H1936 0.959 . S
C1951 H1937 0.961 . S
C1951 C1950 1.502 . S
C1952 H1938 0.960 . S
C1952 H1939 0.961 . S
C1952 H1940 0.959 . S
C1952 C1950 1.561 . S
C1953 C1950 1.526 . S
C1953 C1954 1.396 . S
C1953 C1958 1.390 . S
C1954 C1948 1.465 . S
C1954 C1953 1.396 . S
C1954 C1955 1.399 . S
C1955 H1941 0.929 . S
C1955 C1954 1.399 . S
C1955 C1956 1.385 . S
C1956 H1942 0.931 . S
C1956 C1955 1.385 . S
C1956 C1957 1.389 . S
C1957 C1956 1.389 . S
C1957 C1958 1.387 . S
C1958 H1943 0.930 . S
C1958 C1953 1.390 . S
C1958 C1957 1.387 . S
H1959 C1971 0.930 . S
H1960 C1973 0.930 . S
H1961 C1974 0.930 . S
H1962 C1978 0.959 . S
H1963 C1978 0.959 . S
H1964 C1978 0.961 . S
H1965 C1979 0.960 . S
H1966 C1979 0.961 . S
H1967 C1979 0.959 . S
H1968 C1982 0.929 . S
H1969 C1983 0.931 . S
H1970 C1985 0.930 . S
C1971 H1959 0.930 . S
C1971 C1972 1.399 . S
C1971 C1976 1.399 . S
C1972 C1971 1.399 . S
C1972 C1973 1.376 . S
C1973 H1960 0.930 . S
C1973 C1972 1.376 . S
C1973 C1974 1.388 . S
C1974 H1961 0.930 . S
C1974 C1973 1.388 . S
C1974 C1975 1.390 . S
C1975 C1974 1.390 . S
C1975 C1976 1.394 . S
C1975 C1981 1.465 . S
C1976 C1971 1.399 . S
C1976 C1975 1.394 . S
C1976 C1977 1.516 . S
C1977 C1976 1.516 . S
C1977 C1978 1.502 . S
C1977 C1979 1.561 . S
C1977 C1980 1.526 . S
C1978 H1962 0.959 . S
C1978 H1963 0.959 . S
C1978 H1964 0.961 . S
C1978 C1977 1.502 . S
C1979 H1965 0.960 . S
C1979 H1966 0.961 . S
C1979 H1967 0.959 . S
C1979 C1977 1.561 . S
C1980 C1977 1.526 . S
C1980 C1981 1.396 . S
C1980 C1985 1.390 . S
C1981 C1975 1.465 . S
C1981 C1980 1.396 . S
C1981 C1982 1.399 . S
C1982 H1968 0.929 . S
C1982 C1981 1.399 . S
C1982 C1983 1.385 . S
C1983 H1969 0.931 . S
C1983 C1982 1.385 . S
C1983 C1984 1.389 . S
C1984 C1983 1.389 . S
C1984 C1985 1.387 . S
C1985 H1970 0.930 . S
C1985 C1980 1.390 . S
C1985 C1984 1.387 . S
H1986 C1998 0.930 . S
H1987 C2000 0.930 . S
H1988 C2001 0.930 . S
H1989 C2005 0.959 . S
H1990 C2005 0.959 . S
H1991 C2005 0.961 . S
H1992 C2006 0.960 . S
H1993 C2006 0.961 . S
H1994 C2006 0.959 . S
H1995 C2009 0.929 . S
H1996 C2010 0.931 . S
H1997 C2012 0.930 . S
C1998 H1986 0.930 . S
C1998 C1999 1.399 . S
C1998 C2003 1.399 . S
C1999 C1998 1.399 . S
C1999 C2000 1.376 . S
C2000 H1987 0.930 . S
C2000 C1999 1.376 . S
C2000 C2001 1.388 . S
C2001 H1988 0.930 . S
C2001 C2000 1.388 . S
C2001 C2002 1.390 . S
C2002 C2001 1.390 . S
C2002 C2003 1.394 . S
C2002 C2008 1.465 . S
C2003 C1998 1.399 . S
C2003 C2002 1.394 . S
C2003 C2004 1.516 . S
C2004 C2003 1.516 . S
C2004 C2005 1.502 . S
C2004 C2006 1.561 . S
C2004 C2007 1.526 . S
C2005 H1989 0.959 . S
C2005 H1990 0.959 . S
C2005 H1991 0.961 . S
C2005 C2004 1.502 . S
C2006 H1992 0.960 . S
C2006 H1993 0.961 . S
C2006 H1994 0.959 . S
C2006 C2004 1.561 . S
C2007 C2004 1.526 . S
C2007 C2008 1.396 . S
C2007 C2012 1.390 . S
C2008 C2002 1.465 . S
C2008 C2007 1.396 . S
C2008 C2009 1.399 . S
C2009 H1995 0.929 . S
C2009 C2008 1.399 . S
C2009 C2010 1.385 . S
C2010 H1996 0.931 . S
C2010 C2009 1.385 . S
C2010 C2011 1.389 . S
C2011 C2010 1.389 . S
C2011 C2012 1.387 . S
C2012 H1997 0.930 . S
C2012 C2007 1.390 . S
C2012 C2011 1.387 . S
H2013 C2025 0.930 . S
H2014 C2027 0.930 . S
H2015 C2028 0.930 . S
H2016 C2032 0.959 . S
H2017 C2032 0.959 . S
H2018 C2032 0.961 . S
H2019 C2033 0.960 . S
H2020 C2033 0.961 . S
H2021 C2033 0.959 . S
H2022 C2036 0.929 . S
H2023 C2037 0.931 . S
H2024 C2039 0.930 . S
C2025 H2013 0.930 . S
C2025 C2026 1.399 . S
C2025 C2030 1.399 . S
C2026 C2025 1.399 . S
C2026 C2027 1.376 . S
C2027 H2014 0.930 . S
C2027 C2026 1.376 . S
C2027 C2028 1.388 . S
C2028 H2015 0.930 . S
C2028 C2027 1.388 . S
C2028 C2029 1.390 . S
C2029 C2028 1.390 . S
C2029 C2030 1.394 . S
C2029 C2035 1.465 . S
C2030 C2025 1.399 . S
C2030 C2029 1.394 . S
C2030 C2031 1.516 . S
C2031 C2030 1.516 . S
C2031 C2032 1.502 . S
C2031 C2033 1.561 . S
C2031 C2034 1.526 . S
C2032 H2016 0.959 . S
C2032 H2017 0.959 . S
C2032 H2018 0.961 . S
C2032 C2031 1.502 . S
C2033 H2019 0.960 . S
C2033 H2020 0.961 . S
C2033 H2021 0.959 . S
C2033 C2031 1.561 . S
C2034 C2031 1.526 . S
C2034 C2035 1.396 . S
C2034 C2039 1.390 . S
C2035 C2029 1.465 . S
C2035 C2034 1.396 . S
C2035 C2036 1.399 . S
C2036 H2022 0.929 . S
C2036 C2035 1.399 . S
C2036 C2037 1.385 . S
C2037 H2023 0.931 . S
C2037 C2036 1.385 . S
C2037 C2038 1.389 . S
C2038 C2037 1.389 . S
C2038 C2039 1.387 . S
C2039 H2024 0.930 . S
C2039 C2034 1.390 . S
C2039 C2038 1.387 . S
H2040 C2052 0.930 . S
H2041 C2054 0.930 . S
H2042 C2055 0.930 . S
H2043 C2059 0.959 . S
H2044 C2059 0.959 . S
H2045 C2059 0.961 . S
H2046 C2060 0.960 . S
H2047 C2060 0.961 . S
H2048 C2060 0.959 . S
H2049 C2063 0.929 . S
H2050 C2064 0.931 . S
H2051 C2066 0.930 . S
C2052 H2040 0.930 . S
C2052 C2053 1.399 . S
C2052 C2057 1.399 . S
C2053 C2052 1.399 . S
C2053 C2054 1.376 . S
C2054 H2041 0.930 . S
C2054 C2053 1.376 . S
C2054 C2055 1.388 . S
C2055 H2042 0.930 . S
C2055 C2054 1.388 . S
C2055 C2056 1.390 . S
C2056 C2055 1.390 . S
C2056 C2057 1.394 . S
C2056 C2062 1.465 . S
C2057 C2052 1.399 . S
C2057 C2056 1.394 . S
C2057 C2058 1.516 . S
C2058 C2057 1.516 . S
C2058 C2059 1.502 . S
C2058 C2060 1.561 . S
C2058 C2061 1.526 . S
C2059 H2043 0.959 . S
C2059 H2044 0.959 . S
C2059 H2045 0.961 . S
C2059 C2058 1.502 . S
C2060 H2046 0.960 . S
C2060 H2047 0.961 . S
C2060 H2048 0.959 . S
C2060 C2058 1.561 . S
C2061 C2058 1.526 . S
C2061 C2062 1.396 . S
C2061 C2066 1.390 . S
C2062 C2056 1.465 . S
C2062 C2061 1.396 . S
C2062 C2063 1.399 . S
C2063 H2049 0.929 . S
C2063 C2062 1.399 . S
C2063 C2064 1.385 . S
C2064 H2050 0.931 . S
C2064 C2063 1.385 . S
C2064 C2065 1.389 . S
C2065 C2064 1.389 . S
C2065 C2066 1.387 . S
C2066 H2051 0.930 . S
C2066 C2061 1.390 . S
C2066 C2065 1.387 . S
H2067 C2079 0.930 1_565 S
H2068 C2081 0.930 . S
H2069 C2082 0.930 . S
H2070 C2086 0.959 1_545 S
H2071 C2086 0.959 . S
H2072 C2086 0.961 . S
H2073 C2087 0.960 . S
H2074 C2087 0.961 . S
H2075 C2087 0.959 . S
H2076 C2090 0.929 . S
H2077 C2091 0.931 . S
H2078 C2093 0.930 . S
C2079 H2067 0.930 1_545 S
C2079 C2080 1.399 . S
C2079 C2084 1.399 . S
C2080 C2079 1.399 . S
C2080 C2081 1.376 . S
C2081 H2068 0.930 . S
C2081 C2080 1.376 . S
C2081 C2082 1.388 . S
C2082 H2069 0.930 . S
C2082 C2081 1.388 . S
C2082 C2083 1.390 . S
C2083 C2082 1.390 . S
C2083 C2084 1.394 . S
C2083 C2089 1.465 . S
C2084 C2079 1.399 . S
C2084 C2083 1.394 . S
C2084 C2085 1.516 1_545 S
C2085 C2084 1.516 1_565 S
C2085 C2086 1.502 . S
C2085 C2087 1.561 . S
C2085 C2088 1.526 1_565 S
C2086 H2070 0.959 1_565 S
C2086 H2071 0.959 . S
C2086 H2072 0.961 . S
C2086 C2085 1.502 . S
C2087 H2073 0.960 . S
C2087 H2074 0.961 . S
C2087 H2075 0.959 . S
C2087 C2085 1.561 . S
C2088 C2085 1.526 1_545 S
C2088 C2089 1.396 . S
C2088 C2093 1.390 1_545 S
C2089 C2083 1.465 . S
C2089 C2088 1.396 . S
C2089 C2090 1.399 . S
C2090 H2076 0.929 . S
C2090 C2089 1.399 . S
C2090 C2091 1.385 . S
C2091 H2077 0.931 . S
C2091 C2090 1.385 . S
C2091 C2092 1.389 . S
C2092 C2091 1.389 . S
C2092 C2093 1.387 1_545 S
C2093 H2078 0.930 . S
C2093 C2088 1.390 1_565 S
C2093 C2092 1.387 1_565 S
H2094 C2106 0.930 . S
H2095 C2108 0.930 . S
H2096 C2109 0.930 . S
H2097 C2113 0.959 . S
H2098 C2113 0.959 . S
H2099 C2113 0.961 . S
H2100 C2114 0.960 . S
H2101 C2114 0.961 . S
H2102 C2114 0.959 . S
H2103 C2117 0.929 . S
H2104 C2118 0.931 . S
H2105 C2120 0.930 . S
C2106 H2094 0.930 . S
C2106 C2107 1.399 . S
C2106 C2111 1.399 . S
C2107 C2106 1.399 . S
C2107 C2108 1.376 . S
C2108 H2095 0.930 . S
C2108 C2107 1.376 . S
C2108 C2109 1.388 . S
C2109 H2096 0.930 . S
C2109 C2108 1.388 . S
C2109 C2110 1.390 . S
C2110 C2109 1.390 . S
C2110 C2111 1.394 . S
C2110 C2116 1.465 . S
C2111 C2106 1.399 . S
C2111 C2110 1.394 . S
C2111 C2112 1.516 . S
C2112 C2111 1.516 . S
C2112 C2113 1.502 . S
C2112 C2114 1.561 . S
C2112 C2115 1.526 . S
C2113 H2097 0.959 . S
C2113 H2098 0.959 . S
C2113 H2099 0.961 . S
C2113 C2112 1.502 . S
C2114 H2100 0.960 . S
C2114 H2101 0.961 . S
C2114 H2102 0.959 . S
C2114 C2112 1.561 . S
C2115 C2112 1.526 . S
C2115 C2116 1.396 . S
C2115 C2120 1.390 . S
C2116 C2110 1.465 . S
C2116 C2115 1.396 . S
C2116 C2117 1.399 . S
C2117 H2103 0.929 . S
C2117 C2116 1.399 . S
C2117 C2118 1.385 . S
C2118 H2104 0.931 . S
C2118 C2117 1.385 . S
C2118 C2119 1.389 . S
C2119 C2118 1.389 . S
C2119 C2120 1.387 . S
C2120 H2105 0.930 . S
C2120 C2115 1.390 . S
C2120 C2119 1.387 . S
H2121 C2133 0.930 . S
H2122 C2135 0.930 . S
H2123 C2136 0.930 . S
H2124 C2140 0.959 . S
H2125 C2140 0.959 . S
H2126 C2140 0.961 . S
H2127 C2141 0.960 . S
H2128 C2141 0.961 . S
H2129 C2141 0.959 . S
H2130 C2144 0.929 . S
H2131 C2145 0.931 . S
H2132 C2147 0.930 . S
C2133 H2121 0.930 . S
C2133 C2134 1.399 . S
C2133 C2138 1.399 . S
C2134 C2133 1.399 . S
C2134 C2135 1.376 . S
C2135 H2122 0.930 . S
C2135 C2134 1.376 . S
C2135 C2136 1.388 . S
C2136 H2123 0.930 . S
C2136 C2135 1.388 . S
C2136 C2137 1.390 . S
C2137 C2136 1.390 . S
C2137 C2138 1.394 . S
C2137 C2143 1.465 . S
C2138 C2133 1.399 . S
C2138 C2137 1.394 . S
C2138 C2139 1.516 . S
C2139 C2138 1.516 . S
C2139 C2140 1.502 . S
C2139 C2141 1.561 . S
C2139 C2142 1.526 . S
C2140 H2124 0.959 . S
C2140 H2125 0.959 . S
C2140 H2126 0.961 . S
C2140 C2139 1.502 . S
C2141 H2127 0.960 . S
C2141 H2128 0.961 . S
C2141 H2129 0.959 . S
C2141 C2139 1.561 . S
C2142 C2139 1.526 . S
C2142 C2143 1.396 . S
C2142 C2147 1.390 . S
C2143 C2137 1.465 . S
C2143 C2142 1.396 . S
C2143 C2144 1.399 . S
C2144 H2130 0.929 . S
C2144 C2143 1.399 . S
C2144 C2145 1.385 . S
C2145 H2131 0.931 . S
C2145 C2144 1.385 . S
C2145 C2146 1.389 . S
C2146 C2145 1.389 . S
C2146 C2147 1.387 . S
C2147 H2132 0.930 . S
C2147 C2142 1.390 . S
C2147 C2146 1.387 . S
H2148 C2160 0.930 . S
H2149 C2162 0.930 . S
H2150 C2163 0.930 . S
H2151 C2167 0.959 . S
H2152 C2167 0.959 . S
H2153 C2167 0.961 . S
H2154 C2168 0.960 . S
H2155 C2168 0.961 . S
H2156 C2168 0.959 . S
H2157 C2171 0.929 . S
H2158 C2172 0.931 . S
H2159 C2174 0.930 . S
C2160 H2148 0.930 . S
C2160 C2161 1.399 . S
C2160 C2165 1.399 . S
C2161 C2160 1.399 . S
C2161 C2162 1.376 . S
C2162 H2149 0.930 . S
C2162 C2161 1.376 . S
C2162 C2163 1.388 . S
C2163 H2150 0.930 . S
C2163 C2162 1.388 . S
C2163 C2164 1.390 . S
C2164 C2163 1.390 . S
C2164 C2165 1.394 . S
C2164 C2170 1.465 . S
C2165 C2160 1.399 . S
C2165 C2164 1.394 . S
C2165 C2166 1.516 . S
C2166 C2165 1.516 . S
C2166 C2167 1.502 . S
C2166 C2168 1.561 . S
C2166 C2169 1.526 . S
C2167 H2151 0.959 . S
C2167 H2152 0.959 . S
C2167 H2153 0.961 . S
C2167 C2166 1.502 . S
C2168 H2154 0.960 . S
C2168 H2155 0.961 . S
C2168 H2156 0.959 . S
C2168 C2166 1.561 . S
C2169 C2166 1.526 . S
C2169 C2170 1.396 . S
C2169 C2174 1.390 . S
C2170 C2164 1.465 . S
C2170 C2169 1.396 . S
C2170 C2171 1.399 . S
C2171 H2157 0.929 . S
C2171 C2170 1.399 . S
C2171 C2172 1.385 . S
C2172 H2158 0.931 . S
C2172 C2171 1.385 . S
C2172 C2173 1.389 . S
C2173 C2172 1.389 . S
C2173 C2174 1.387 . S
C2174 H2159 0.930 . S
C2174 C2169 1.390 . S
C2174 C2173 1.387 . S
H2175 C2187 0.930 1_565 S
H2176 C2189 0.930 . S
H2177 C2190 0.930 . S
H2178 C2194 0.959 . S
H2179 C2194 0.959 . S
H2180 C2194 0.961 . S
H2181 C2195 0.960 . S
H2182 C2195 0.961 . S
H2183 C2195 0.959 . S
H2184 C2198 0.929 . S
H2185 C2199 0.931 . S
H2186 C2201 0.955 . S
C2187 H2175 0.930 1_545 S
C2187 C2188 1.399 . S
C2187 C2192 1.399 . S
C2188 C2187 1.399 . S
C2188 C2189 1.376 . S
C2189 H2176 0.930 . S
C2189 C2188 1.376 . S
C2189 C2190 1.388 . S
C2190 H2177 0.930 . S
C2190 C2189 1.388 . S
C2190 C2191 1.390 . S
C2191 C2190 1.390 . S
C2191 C2192 1.394 . S
C2191 C2197 1.465 . S
C2192 C2187 1.399 . S
C2192 C2191 1.394 . S
C2192 C2193 1.516 1_545 S
C2193 C2192 1.516 1_565 S
C2193 C2194 1.502 . S
C2193 C2195 1.561 . S
C2193 C2196 1.526 1_565 S
C2194 H2178 0.959 . S
C2194 H2179 0.959 . S
C2194 H2180 0.961 . S
C2194 C2193 1.502 . S
C2195 H2181 0.960 . S
C2195 H2182 0.961 . S
C2195 H2183 0.959 . S
C2195 C2193 1.561 . S
C2196 C2193 1.526 1_545 S
C2196 C2197 1.396 . S
C2196 C2201 1.383 1_545 S
C2197 C2191 1.465 . S
C2197 C2196 1.396 . S
C2197 C2198 1.399 . S
C2198 H2184 0.929 . S
C2198 C2197 1.399 . S
C2198 C2199 1.385 . S
C2199 H2185 0.931 . S
C2199 C2198 1.385 . S
C2199 C2200 1.389 . S
C2200 C2199 1.389 . S
C2200 C2201 1.368 1_545 S
C2201 H2186 0.955 . S
C2201 C2196 1.383 1_565 S
C2201 C2200 1.368 1_565 S
H2202 C2214 0.930 . S
H2203 C2216 0.930 . S
H2204 C2217 0.930 . S
H2205 C2221 0.959 . S
H2206 C2221 0.959 . S
H2207 C2221 0.961 . S
H2208 C2222 0.960 . S
H2209 C2222 0.961 . S
H2210 C2222 0.959 . S
H2211 C2225 0.929 . S
H2212 C2226 0.931 . S
H2213 C2228 0.930 . S
C2214 H2202 0.930 . S
C2214 C2215 1.399 . S
C2214 C2219 1.399 . S
C2215 C2214 1.399 . S
C2215 C2216 1.376 . S
C2216 H2203 0.930 . S
C2216 C2215 1.376 . S
C2216 C2217 1.388 . S
C2217 H2204 0.930 . S
C2217 C2216 1.388 . S
C2217 C2218 1.390 . S
C2218 C2217 1.390 . S
C2218 C2219 1.394 . S
C2218 C2224 1.465 . S
C2219 C2214 1.399 . S
C2219 C2218 1.394 . S
C2219 C2220 1.516 . S
C2220 C2219 1.516 . S
C2220 C2221 1.502 . S
C2220 C2222 1.561 . S
C2220 C2223 1.526 . S
C2221 H2205 0.959 . S
C2221 H2206 0.959 . S
C2221 H2207 0.961 . S
C2221 C2220 1.502 . S
C2222 H2208 0.960 . S
C2222 H2209 0.961 . S
C2222 H2210 0.959 . S
C2222 C2220 1.561 . S
C2223 C2220 1.526 . S
C2223 C2224 1.396 . S
C2223 C2228 1.390 . S
C2224 C2218 1.465 . S
C2224 C2223 1.396 . S
C2224 C2225 1.399 . S
C2225 H2211 0.929 . S
C2225 C2224 1.399 . S
C2225 C2226 1.385 . S
C2226 H2212 0.931 . S
C2226 C2225 1.385 . S
C2226 C2227 1.389 . S
C2227 C2226 1.389 . S
C2227 C2228 1.387 . S
C2228 H2213 0.930 . S
C2228 C2223 1.390 . S
C2228 C2227 1.387 . S
H2229 C2241 0.930 . S
H2230 C2243 0.930 . S
H2231 C2244 0.930 . S
H2232 C2248 0.959 . S
H2233 C2248 0.959 . S
H2234 C2248 0.961 . S
H2235 C2249 0.960 . S
H2236 C2249 0.961 . S
H2237 C2249 0.959 . S
H2238 C2252 0.929 . S
H2239 C2253 0.931 . S
H2240 C2255 0.930 . S
C2241 H2229 0.930 . S
C2241 C2242 1.399 . S
C2241 C2246 1.399 . S
C2242 C2241 1.399 . S
C2242 C2243 1.376 . S
C2243 H2230 0.930 . S
C2243 C2242 1.376 . S
C2243 C2244 1.388 . S
C2244 H2231 0.930 . S
C2244 C2243 1.388 . S
C2244 C2245 1.390 . S
C2245 C2244 1.390 . S
C2245 C2246 1.394 . S
C2245 C2251 1.465 . S
C2246 C2241 1.399 . S
C2246 C2245 1.394 . S
C2246 C2247 1.516 . S
C2247 C2246 1.516 . S
C2247 C2248 1.502 . S
C2247 C2249 1.561 . S
C2247 C2250 1.526 . S
C2248 H2232 0.959 . S
C2248 H2233 0.959 . S
C2248 H2234 0.961 . S
C2248 C2247 1.502 . S
C2249 H2235 0.960 . S
C2249 H2236 0.961 . S
C2249 H2237 0.959 . S
C2249 C2247 1.561 . S
C2250 C2247 1.526 . S
C2250 C2251 1.396 . S
C2250 C2255 1.390 . S
C2251 C2245 1.465 . S
C2251 C2250 1.396 . S
C2251 C2252 1.399 . S
C2252 H2238 0.929 . S
C2252 C2251 1.399 . S
C2252 C2253 1.385 . S
C2253 H2239 0.931 . S
C2253 C2252 1.385 . S
C2253 C2254 1.389 . S
C2254 C2253 1.389 . S
C2254 C2255 1.387 . S
C2255 H2240 0.930 . S
C2255 C2250 1.390 . S
C2255 C2254 1.387 . S
H2256 C2268 0.930 . S
H2257 C2270 0.930 . S
H2258 C2271 0.930 . S
H2259 C2275 0.959 . S
H2260 C2275 0.959 . S
H2261 C2275 0.961 . S
H2262 C2276 0.960 . S
H2263 C2276 0.961 . S
H2264 C2276 0.959 . S
H2265 C2279 0.929 . S
H2266 C2280 0.931 . S
H2267 C2282 0.930 . S
C2268 H2256 0.930 . S
C2268 C2269 1.399 . S
C2268 C2273 1.399 . S
C2269 C2268 1.399 . S
C2269 C2270 1.376 . S
C2270 H2257 0.930 . S
C2270 C2269 1.376 . S
C2270 C2271 1.388 . S
C2271 H2258 0.930 . S
C2271 C2270 1.388 . S
C2271 C2272 1.390 . S
C2272 C2271 1.390 . S
C2272 C2273 1.394 . S
C2272 C2278 1.465 . S
C2273 C2268 1.399 . S
C2273 C2272 1.394 . S
C2273 C2274 1.516 . S
C2274 C2273 1.516 . S
C2274 C2275 1.502 . S
C2274 C2276 1.561 . S
C2274 C2277 1.526 . S
C2275 H2259 0.959 . S
C2275 H2260 0.959 . S
C2275 H2261 0.961 . S
C2275 C2274 1.502 . S
C2276 H2262 0.960 . S
C2276 H2263 0.961 . S
C2276 H2264 0.959 . S
C2276 C2274 1.561 . S
C2277 C2274 1.526 . S
C2277 C2278 1.396 . S
C2277 C2282 1.390 . S
C2278 C2272 1.465 . S
C2278 C2277 1.396 . S
C2278 C2279 1.399 . S
C2279 H2265 0.929 . S
C2279 C2278 1.399 . S
C2279 C2280 1.385 . S
C2280 H2266 0.931 . S
C2280 C2279 1.385 . S
C2280 C2281 1.389 . S
C2281 C2280 1.389 . S
C2281 C2282 1.387 . S
C2282 H2267 0.930 . S
C2282 C2277 1.390 . S
C2282 C2281 1.387 . S
H2283 C2295 0.930 . S
H2284 C2297 0.930 . S
H2285 C2298 0.930 . S
H2286 C2302 0.959 . S
H2287 C2302 0.959 1_455 S
H2288 C2302 0.961 . S
H2289 C2303 0.960 . S
H2290 C2303 0.961 . S
H2291 C2303 0.959 . S
H2292 C2306 0.929 . S
H2293 C2307 0.931 . S
H2294 C2309 0.930 . S
C2295 H2283 0.930 . S
C2295 C2296 1.399 . S
C2295 C2300 1.399 . S
C2296 C2295 1.399 . S
C2296 C2297 1.376 . S
C2297 H2284 0.930 . S
C2297 C2296 1.376 . S
C2297 C2298 1.388 . S
C2298 H2285 0.930 . S
C2298 C2297 1.388 . S
C2298 C2299 1.390 . S
C2299 C2298 1.390 . S
C2299 C2300 1.394 . S
C2299 C2305 1.465 . S
C2300 C2295 1.399 . S
C2300 C2299 1.394 . S
C2300 C2301 1.516 1_655 S
C2301 C2300 1.516 1_455 S
C2301 C2302 1.502 1_455 S
C2301 C2303 1.561 . S
C2301 C2304 1.518 1_455 S
C2302 H2286 0.959 . S
C2302 H2287 0.959 1_655 S
C2302 H2288 0.961 . S
C2302 C2301 1.502 1_655 S
C2303 H2289 0.960 . S
C2303 H2290 0.961 . S
C2303 H2291 0.959 . S
C2303 C2301 1.561 . S
C2304 C2301 1.518 1_655 S
C2304 C2305 1.418 . S
C2304 C2309 1.380 1_655 S
C2305 C2299 1.465 . S
C2305 C2304 1.418 . S
C2305 C2306 1.399 . S
C2306 H2292 0.929 . S
C2306 C2305 1.399 . S
C2306 C2307 1.385 . S
C2307 H2293 0.931 . S
C2307 C2306 1.385 . S
C2307 C2308 1.389 . S
C2308 C2307 1.389 . S
C2308 C2309 1.387 1_655 S
C2309 H2294 0.930 . S
C2309 C2304 1.380 1_455 S
C2309 C2308 1.387 1_455 S
H2310 C2322 0.930 . S
H2311 C2324 0.930 . S
H2312 C2325 0.930 . S
H2313 C2329 0.959 . S
H2314 C2329 0.959 . S
H2315 C2329 0.961 . S
H2316 C2330 0.960 . S
H2317 C2330 0.961 . S
H2318 C2330 0.959 . S
H2319 C2333 0.929 . S
H2320 C2334 0.931 . S
H2321 C2336 0.930 . S
C2322 H2310 0.930 . S
C2322 C2323 1.399 . S
C2322 C2327 1.399 . S
C2323 C2322 1.399 . S
C2323 C2324 1.376 . S
C2324 H2311 0.930 . S
C2324 C2323 1.376 . S
C2324 C2325 1.388 . S
C2325 H2312 0.930 . S
C2325 C2324 1.388 . S
C2325 C2326 1.390 . S
C2326 C2325 1.390 . S
C2326 C2327 1.394 . S
C2326 C2332 1.465 . S
C2327 C2322 1.399 . S
C2327 C2326 1.394 . S
C2327 C2328 1.516 . S
C2328 C2327 1.516 . S
C2328 C2329 1.502 . S
C2328 C2330 1.561 . S
C2328 C2331 1.526 . S
C2329 H2313 0.959 . S
C2329 H2314 0.959 . S
C2329 H2315 0.961 . S
C2329 C2328 1.502 . S
C2330 H2316 0.960 . S
C2330 H2317 0.961 . S
C2330 H2318 0.959 . S
C2330 C2328 1.561 . S
C2331 C2328 1.526 . S
C2331 C2332 1.396 . S
C2331 C2336 1.390 . S
C2332 C2326 1.465 . S
C2332 C2331 1.396 . S
C2332 C2333 1.399 . S
C2333 H2319 0.929 . S
C2333 C2332 1.399 . S
C2333 C2334 1.385 . S
C2334 H2320 0.931 . S
C2334 C2333 1.385 . S
C2334 C2335 1.389 . S
C2335 C2334 1.389 . S
C2335 C2336 1.387 . S
C2336 H2321 0.930 . S
C2336 C2331 1.390 . S
C2336 C2335 1.387 . S
H2337 C2349 0.930 . S
H2338 C2351 0.930 . S
H2339 C2352 0.930 . S
H2340 C2356 0.959 . S
H2341 C2356 0.959 . S
H2342 C2356 0.961 . S
H2343 C2357 0.960 . S
H2344 C2357 0.961 . S
H2345 C2357 0.959 . S
H2346 C2360 0.929 1_655 S
H2347 C2361 0.914 1_655 S
H2348 C2363 0.930 . S
C2349 H2337 0.930 . S
C2349 C2350 1.399 . S
C2349 C2354 1.399 . S
C2350 C2349 1.399 . S
C2350 C2351 1.376 . S
C2351 H2338 0.930 . S
C2351 C2350 1.376 . S
C2351 C2352 1.388 . S
C2352 H2339 0.930 . S
C2352 C2351 1.388 . S
C2352 C2353 1.390 . S
C2353 C2352 1.390 . S
C2353 C2354 1.394 . S
C2353 C2359 1.465 . S
C2354 C2349 1.399 . S
C2354 C2353 1.394 . S
C2354 C2355 1.516 . S
C2355 C2354 1.516 . S
C2355 C2356 1.502 . S
C2355 C2357 1.561 . S
C2355 C2358 1.526 . S
C2356 H2340 0.959 . S
C2356 H2341 0.959 . S
C2356 H2342 0.961 . S
C2356 C2355 1.502 . S
C2357 H2343 0.960 . S
C2357 H2344 0.961 . S
C2357 H2345 0.959 . S
C2357 C2355 1.561 . S
C2358 C2355 1.526 . S
C2358 C2359 1.396 . S
C2358 C2363 1.390 . S
C2359 C2353 1.465 . S
C2359 C2358 1.396 . S
C2359 C2360 1.399 . S
C2360 H2346 0.929 1_455 S
C2360 C2359 1.399 . S
C2360 C2361 1.389 . S
C2361 H2347 0.914 1_455 S
C2361 C2360 1.389 . S
C2361 C2362 1.403 . S
C2362 C2361 1.403 . S
C2362 C2363 1.387 . S
C2363 H2348 0.930 . S
C2363 C2358 1.390 . S
C2363 C2362 1.387 . S
H2364 C2376 0.930 . S
H2365 C2378 0.930 . S
H2366 C2379 0.930 . S
H2367 C2383 0.959 . S
H2368 C2383 0.959 . S
H2369 C2383 0.961 . S
H2370 C2384 0.960 . S
H2371 C2384 0.961 . S
H2372 C2384 0.959 . S
H2373 C2387 0.929 . S
H2374 C2388 0.931 . S
H2375 C2390 0.930 . S
C2376 H2364 0.930 . S
C2376 C2377 1.399 . S
C2376 C2381 1.399 . S
C2377 C2376 1.399 . S
C2377 C2378 1.376 . S
C2378 H2365 0.930 . S
C2378 C2377 1.376 . S
C2378 C2379 1.388 . S
C2379 H2366 0.930 . S
C2379 C2378 1.388 . S
C2379 C2380 1.390 . S
C2380 C2379 1.390 . S
C2380 C2381 1.394 . S
C2380 C2386 1.465 . S
C2381 C2376 1.399 . S
C2381 C2380 1.394 . S
C2381 C2382 1.516 . S
C2382 C2381 1.516 . S
C2382 C2383 1.502 . S
C2382 C2384 1.561 . S
C2382 C2385 1.526 . S
C2383 H2367 0.959 . S
C2383 H2368 0.959 . S
C2383 H2369 0.961 . S
C2383 C2382 1.502 . S
C2384 H2370 0.960 . S
C2384 H2371 0.961 . S
C2384 H2372 0.959 . S
C2384 C2382 1.561 . S
C2385 C2382 1.526 . S
C2385 C2386 1.396 . S
C2385 C2390 1.390 . S
C2386 C2380 1.465 . S
C2386 C2385 1.396 . S
C2386 C2387 1.399 . S
C2387 H2373 0.929 . S
C2387 C2386 1.399 . S
C2387 C2388 1.385 . S
C2388 H2374 0.931 . S
C2388 C2387 1.385 . S
C2388 C2389 1.389 . S
C2389 C2388 1.389 . S
C2389 C2390 1.387 . S
C2390 H2375 0.930 . S
C2390 C2385 1.390 . S
C2390 C2389 1.387 . S
H2391 C2403 0.930 . S
H2392 C2405 0.930 . S
H2393 C2406 0.930 . S
H2394 C2410 0.959 . S
H2395 C2410 0.959 . S
H2396 C2410 0.961 . S
H2397 C2411 0.960 . S
H2398 C2411 0.961 . S
H2399 C2411 0.959 . S
H2400 C2414 0.929 . S
H2401 C2415 0.931 . S
H2402 C2417 0.930 . S
C2403 H2391 0.930 . S
C2403 C2404 1.399 . S
C2403 C2408 1.399 . S
C2404 C2403 1.399 . S
C2404 C2405 1.376 . S
C2405 H2392 0.930 . S
C2405 C2404 1.376 . S
C2405 C2406 1.388 . S
C2406 H2393 0.930 . S
C2406 C2405 1.388 . S
C2406 C2407 1.390 . S
C2407 C2406 1.390 . S
C2407 C2408 1.394 . S
C2407 C2413 1.465 . S
C2408 C2403 1.399 . S
C2408 C2407 1.394 . S
C2408 C2409 1.516 . S
C2409 C2408 1.516 . S
C2409 C2410 1.502 . S
C2409 C2411 1.561 . S
C2409 C2412 1.526 . S
C2410 H2394 0.959 . S
C2410 H2395 0.959 . S
C2410 H2396 0.961 . S
C2410 C2409 1.502 . S
C2411 H2397 0.960 . S
C2411 H2398 0.961 . S
C2411 H2399 0.959 . S
C2411 C2409 1.561 . S
C2412 C2409 1.526 . S
C2412 C2413 1.396 . S
C2412 C2417 1.390 . S
C2413 C2407 1.465 . S
C2413 C2412 1.396 . S
C2413 C2414 1.399 . S
C2414 H2400 0.929 . S
C2414 C2413 1.399 . S
C2414 C2415 1.385 . S
C2415 H2401 0.931 . S
C2415 C2414 1.385 . S
C2415 C2416 1.389 . S
C2416 C2415 1.389 . S
C2416 C2417 1.387 . S
C2417 H2402 0.930 . S
C2417 C2412 1.390 . S
C2417 C2416 1.387 . S
H2418 C2430 0.930 . S
H2419 C2432 0.930 . S
H2420 C2433 0.930 . S
H2421 C2437 0.959 . S
H2422 C2437 0.959 . S
H2423 C2437 0.961 . S
H2424 C2438 0.960 . S
H2425 C2438 0.961 . S
H2426 C2438 0.959 . S
H2427 C2441 0.929 . S
H2428 C2442 0.931 . S
H2429 C2444 0.930 . S
C2430 H2418 0.930 . S
C2430 C2431 1.399 . S
C2430 C2435 1.399 . S
C2431 C2430 1.399 . S
C2431 C2432 1.376 . S
C2432 H2419 0.930 . S
C2432 C2431 1.376 . S
C2432 C2433 1.388 . S
C2433 H2420 0.930 . S
C2433 C2432 1.388 . S
C2433 C2434 1.390 . S
C2434 C2433 1.390 . S
C2434 C2435 1.394 . S
C2434 C2440 1.465 . S
C2435 C2430 1.399 . S
C2435 C2434 1.394 . S
C2435 C2436 1.516 . S
C2436 C2435 1.516 . S
C2436 C2437 1.502 . S
C2436 C2438 1.561 . S
C2436 C2439 1.526 . S
C2437 H2421 0.959 . S
C2437 H2422 0.959 . S
C2437 H2423 0.961 . S
C2437 C2436 1.502 . S
C2438 H2424 0.960 . S
C2438 H2425 0.961 . S
C2438 H2426 0.959 . S
C2438 C2436 1.561 . S
C2439 C2436 1.526 . S
C2439 C2440 1.396 . S
C2439 C2444 1.390 . S
C2440 C2434 1.465 . S
C2440 C2439 1.396 . S
C2440 C2441 1.399 . S
C2441 H2427 0.929 . S
C2441 C2440 1.399 . S
C2441 C2442 1.385 . S
C2442 H2428 0.931 . S
C2442 C2441 1.385 . S
C2442 C2443 1.389 . S
C2443 C2442 1.389 . S
C2443 C2444 1.387 . S
C2444 H2429 0.930 . S
C2444 C2439 1.390 . S
C2444 C2443 1.387 . S
H2445 C2457 0.930 . S
H2446 C2459 0.930 . S
H2447 C2460 0.930 . S
H2448 C2464 0.959 . S
H2449 C2464 0.959 . S
H2450 C2464 0.961 . S
H2451 C2465 0.960 . S
H2452 C2465 0.961 . S
H2453 C2465 0.959 . S
H2454 C2468 0.929 . S
H2455 C2469 0.931 . S
H2456 C2471 0.930 . S
C2457 H2445 0.930 . S
C2457 C2458 1.399 . S
C2457 C2462 1.399 . S
C2458 C2457 1.399 . S
C2458 C2459 1.376 . S
C2459 H2446 0.930 . S
C2459 C2458 1.376 . S
C2459 C2460 1.388 . S
C2460 H2447 0.930 . S
C2460 C2459 1.388 . S
C2460 C2461 1.390 . S
C2461 C2460 1.390 . S
C2461 C2462 1.394 . S
C2461 C2467 1.465 . S
C2462 C2457 1.399 . S
C2462 C2461 1.394 . S
C2462 C2463 1.516 . S
C2463 C2462 1.516 . S
C2463 C2464 1.502 . S
C2463 C2465 1.561 . S
C2463 C2466 1.526 . S
C2464 H2448 0.959 . S
C2464 H2449 0.959 . S
C2464 H2450 0.961 . S
C2464 C2463 1.502 . S
C2465 H2451 0.960 . S
C2465 H2452 0.961 . S
C2465 H2453 0.959 . S
C2465 C2463 1.561 . S
C2466 C2463 1.526 . S
C2466 C2467 1.396 . S
C2466 C2471 1.390 . S
C2467 C2461 1.465 . S
C2467 C2466 1.396 . S
C2467 C2468 1.399 . S
C2468 H2454 0.929 . S
C2468 C2467 1.399 . S
C2468 C2469 1.385 . S
C2469 H2455 0.931 . S
C2469 C2468 1.385 . S
C2469 C2470 1.389 . S
C2470 C2469 1.389 . S
C2470 C2471 1.387 . S
C2471 H2456 0.930 . S
C2471 C2466 1.390 . S
C2471 C2470 1.387 . S
H2472 C2484 0.930 . S
H2473 C2486 0.930 . S
H2474 C2487 0.930 . S
H2475 C2491 0.959 . S
H2476 C2491 0.959 . S
H2477 C2491 0.961 . S
H2478 C2492 0.960 . S
H2479 C2492 0.961 . S
H2480 C2492 0.959 . S
H2481 C2495 0.929 . S
H2482 C2496 0.931 . S
H2483 C2498 0.930 . S
C2484 H2472 0.930 . S
C2484 C2485 1.399 . S
C2484 C2489 1.399 . S
C2485 C2484 1.399 . S
C2485 C2486 1.376 . S
C2486 H2473 0.930 . S
C2486 C2485 1.376 . S
C2486 C2487 1.388 . S
C2487 H2474 0.930 . S
C2487 C2486 1.388 . S
C2487 C2488 1.390 . S
C2488 C2487 1.390 . S
C2488 C2489 1.394 . S
C2488 C2494 1.465 . S
C2489 C2484 1.399 . S
C2489 C2488 1.394 . S
C2489 C2490 1.516 . S
C2490 C2489 1.516 . S
C2490 C2491 1.502 . S
C2490 C2492 1.561 . S
C2490 C2493 1.526 . S
C2491 H2475 0.959 . S
C2491 H2476 0.959 . S
C2491 H2477 0.961 . S
C2491 C2490 1.502 . S
C2492 H2478 0.960 . S
C2492 H2479 0.961 . S
C2492 H2480 0.959 . S
C2492 C2490 1.561 . S
C2493 C2490 1.526 . S
C2493 C2494 1.396 . S
C2493 C2498 1.390 . S
C2494 C2488 1.465 . S
C2494 C2493 1.396 . S
C2494 C2495 1.399 . S
C2495 H2481 0.929 . S
C2495 C2494 1.399 . S
C2495 C2496 1.385 . S
C2496 H2482 0.931 . S
C2496 C2495 1.385 . S
C2496 C2497 1.389 . S
C2497 C2496 1.389 . S
C2497 C2498 1.387 . S
C2498 H2483 0.930 . S
C2498 C2493 1.390 . S
C2498 C2497 1.387 . S
H2499 C2511 0.930 . S
H2500 C2513 0.930 . S
H2501 C2514 0.930 . S
H2502 C2518 0.959 . S
H2503 C2518 0.959 . S
H2504 C2518 0.961 . S
H2505 C2519 0.960 . S
H2506 C2519 0.961 . S
H2507 C2519 0.959 . S
H2508 C2522 0.929 . S
H2509 C2523 0.931 . S
H2510 C2525 0.930 . S
C2511 H2499 0.930 . S
C2511 C2512 1.399 . S
C2511 C2516 1.399 . S
C2512 C2511 1.399 . S
C2512 C2513 1.376 . S
C2513 H2500 0.930 . S
C2513 C2512 1.376 . S
C2513 C2514 1.388 . S
C2514 H2501 0.930 . S
C2514 C2513 1.388 . S
C2514 C2515 1.390 . S
C2515 C2514 1.390 . S
C2515 C2516 1.394 . S
C2515 C2521 1.465 . S
C2516 C2511 1.399 . S
C2516 C2515 1.394 . S
C2516 C2517 1.516 . S
C2517 C2516 1.516 . S
C2517 C2518 1.502 . S
C2517 C2519 1.561 . S
C2517 C2520 1.526 . S
C2518 H2502 0.959 . S
C2518 H2503 0.959 . S
C2518 H2504 0.961 . S
C2518 C2517 1.502 . S
C2519 H2505 0.960 . S
C2519 H2506 0.961 . S
C2519 H2507 0.959 . S
C2519 C2517 1.561 . S
C2520 C2517 1.526 . S
C2520 C2521 1.396 . S
C2520 C2525 1.390 . S
C2521 C2515 1.465 . S
C2521 C2520 1.396 . S
C2521 C2522 1.399 . S
C2522 H2508 0.929 . S
C2522 C2521 1.399 . S
C2522 C2523 1.385 . S
C2523 H2509 0.931 . S
C2523 C2522 1.385 . S
C2523 C2524 1.389 . S
C2524 C2523 1.389 . S
C2524 C2525 1.387 . S
C2525 H2510 0.930 . S
C2525 C2520 1.390 . S
C2525 C2524 1.387 . S
H2526 C2538 0.930 . S
H2527 C2540 0.930 . S
H2528 C2541 0.930 . S
H2529 C2545 0.959 . S
H2530 C2545 0.959 . S
H2531 C2545 0.961 . S
H2532 C2546 0.960 . S
H2533 C2546 0.961 . S
H2534 C2546 0.959 . S
H2535 C2549 0.929 . S
H2536 C2550 0.931 . S
H2537 C2552 0.930 . S
C2538 H2526 0.930 . S
C2538 C2539 1.399 . S
C2538 C2543 1.399 . S
C2539 C2538 1.399 . S
C2539 C2540 1.376 . S
C2540 H2527 0.930 . S
C2540 C2539 1.376 . S
C2540 C2541 1.388 . S
C2541 H2528 0.930 . S
C2541 C2540 1.388 . S
C2541 C2542 1.390 . S
C2542 C2541 1.390 . S
C2542 C2543 1.394 . S
C2542 C2548 1.465 . S
C2543 C2538 1.399 . S
C2543 C2542 1.394 . S
C2543 C2544 1.516 . S
C2544 C2543 1.516 . S
C2544 C2545 1.502 . S
C2544 C2546 1.561 . S
C2544 C2547 1.526 . S
C2545 H2529 0.959 . S
C2545 H2530 0.959 . S
C2545 H2531 0.961 . S
C2545 C2544 1.502 . S
C2546 H2532 0.960 . S
C2546 H2533 0.961 . S
C2546 H2534 0.959 . S
C2546 C2544 1.561 . S
C2547 C2544 1.526 . S
C2547 C2548 1.396 . S
C2547 C2552 1.390 . S
C2548 C2542 1.465 . S
C2548 C2547 1.396 . S
C2548 C2549 1.399 . S
C2549 H2535 0.929 . S
C2549 C2548 1.399 . S
C2549 C2550 1.385 . S
C2550 H2536 0.931 . S
C2550 C2549 1.385 . S
C2550 C2551 1.389 . S
C2551 C2550 1.389 . S
C2551 C2552 1.387 . S
C2552 H2537 0.930 . S
C2552 C2547 1.390 . S
C2552 C2551 1.387 . S
H2553 C2565 0.930 . S
H2554 C2567 0.930 . S
H2555 C2568 0.930 . S
H2556 C2572 0.959 . S
H2557 C2572 0.959 . S
H2558 C2572 0.961 . S
H2559 C2573 0.960 . S
H2560 C2573 0.961 . S
H2561 C2573 0.959 . S
H2562 C2576 0.929 . S
H2563 C2577 0.931 . S
H2564 C2579 0.930 . S
C2565 H2553 0.930 . S
C2565 C2566 1.399 . S
C2565 C2570 1.399 . S
C2566 C2565 1.399 . S
C2566 C2567 1.376 . S
C2567 H2554 0.930 . S
C2567 C2566 1.376 . S
C2567 C2568 1.388 . S
C2568 H2555 0.930 . S
C2568 C2567 1.388 . S
C2568 C2569 1.390 . S
C2569 C2568 1.390 . S
C2569 C2570 1.394 . S
C2569 C2575 1.465 . S
C2570 C2565 1.399 . S
C2570 C2569 1.394 . S
C2570 C2571 1.516 . S
C2571 C2570 1.516 . S
C2571 C2572 1.502 . S
C2571 C2573 1.561 . S
C2571 C2574 1.526 . S
C2572 H2556 0.959 . S
C2572 H2557 0.959 . S
C2572 H2558 0.961 . S
C2572 C2571 1.502 . S
C2573 H2559 0.960 . S
C2573 H2560 0.961 . S
C2573 H2561 0.959 . S
C2573 C2571 1.561 . S
C2574 C2571 1.526 . S
C2574 C2575 1.396 . S
C2574 C2579 1.390 . S
C2575 C2569 1.465 . S
C2575 C2574 1.396 . S
C2575 C2576 1.399 . S
C2576 H2562 0.929 . S
C2576 C2575 1.399 . S
C2576 C2577 1.385 . S
C2577 H2563 0.931 . S
C2577 C2576 1.385 . S
C2577 C2578 1.389 . S
C2578 C2577 1.389 . S
C2578 C2579 1.387 . S
C2579 H2564 0.930 . S
C2579 C2574 1.390 . S
C2579 C2578 1.387 . S
H2580 C2592 0.930 . S
H2581 C2594 0.930 . S
H2582 C2595 0.930 . S
H2583 C2599 0.959 . S
H2584 C2599 0.959 . S
H2585 C2599 0.961 . S
H2586 C2600 0.960 . S
H2587 C2600 0.961 . S
H2588 C2600 0.959 . S
H2589 C2603 0.929 . S
H2590 C2604 0.931 . S
H2591 C2606 0.930 . S
C2592 H2580 0.930 . S
C2592 C2593 1.399 . S
C2592 C2597 1.399 . S
C2593 C2592 1.399 . S
C2593 C2594 1.376 1_556 S
C2594 H2581 0.930 . S
C2594 C2593 1.376 1_554 S
C2594 C2595 1.388 . S
C2595 H2582 0.930 . S
C2595 C2594 1.388 . S
C2595 C2596 1.390 1_554 S
C2596 C2595 1.390 1_556 S
C2596 C2597 1.394 . S
C2596 C2602 1.466 1_556 S
C2597 C2592 1.399 . S
C2597 C2596 1.394 . S
C2597 C2598 1.516 . S
C2598 C2597 1.516 . S
C2598 C2599 1.502 . S
C2598 C2600 1.561 . S
C2598 C2601 1.526 . S
C2599 H2583 0.959 . S
C2599 H2584 0.959 . S
C2599 H2585 0.961 . S
C2599 C2598 1.502 . S
C2600 H2586 0.960 . S
C2600 H2587 0.961 . S
C2600 H2588 0.959 . S
C2600 C2598 1.561 . S
C2601 C2598 1.526 . S
C2601 C2602 1.400 1_556 S
C2601 C2606 1.390 . S
C2602 C2596 1.466 1_554 S
C2602 C2601 1.400 1_554 S
C2602 C2603 1.395 . S
C2603 H2589 0.929 . S
C2603 C2602 1.395 . S
C2603 C2604 1.385 . S
C2604 H2590 0.931 . S
C2604 C2603 1.385 . S
C2604 C2605 1.389 1_554 S
C2605 C2604 1.389 1_556 S
C2605 C2606 1.387 . S
C2606 H2591 0.930 . S
C2606 C2601 1.390 . S
C2606 C2605 1.387 . S
H2607 C2619 0.930 . S
H2608 C2621 0.930 . S
H2609 C2622 0.930 . S
H2610 C2626 0.959 . S
H2611 C2626 0.959 . S
H2612 C2626 0.961 . S
H2613 C2627 0.960 . S
H2614 C2627 0.961 . S
H2615 C2627 0.959 . S
H2616 C2630 0.929 . S
H2617 C2631 0.931 . S
H2618 C2633 0.930 . S
C2619 H2607 0.930 . S
C2619 C2620 1.399 . S
C2619 C2624 1.399 . S
C2620 C2619 1.399 . S
C2620 C2621 1.376 . S
C2621 H2608 0.930 . S
C2621 C2620 1.376 . S
C2621 C2622 1.388 . S
C2622 H2609 0.930 . S
C2622 C2621 1.388 . S
C2622 C2623 1.390 . S
C2623 C2622 1.390 . S
C2623 C2624 1.394 . S
C2623 C2629 1.465 . S
C2624 C2619 1.399 . S
C2624 C2623 1.394 . S
C2624 C2625 1.516 . S
C2625 C2624 1.516 . S
C2625 C2626 1.502 . S
C2625 C2627 1.561 . S
C2625 C2628 1.526 . S
C2626 H2610 0.959 . S
C2626 H2611 0.959 . S
C2626 H2612 0.961 . S
C2626 C2625 1.502 . S
C2627 H2613 0.960 . S
C2627 H2614 0.961 . S
C2627 H2615 0.959 . S
C2627 C2625 1.561 . S
C2628 C2625 1.526 . S
C2628 C2629 1.396 . S
C2628 C2633 1.390 . S
C2629 C2623 1.465 . S
C2629 C2628 1.396 . S
C2629 C2630 1.399 . S
C2630 H2616 0.929 . S
C2630 C2629 1.399 . S
C2630 C2631 1.385 . S
C2631 H2617 0.931 . S
C2631 C2630 1.385 . S
C2631 C2632 1.389 . S
C2632 C2631 1.389 . S
C2632 C2633 1.387 . S
C2633 H2618 0.930 . S
C2633 C2628 1.390 . S
C2633 C2632 1.387 . S
H2634 C2646 0.930 . S
H2635 C2648 0.930 1_556 S
H2636 C2649 0.930 . S
H2637 C2653 0.959 . S
H2638 C2653 0.959 . S
H2639 C2653 0.961 . S
H2640 C2654 0.960 . S
H2641 C2654 0.961 . S
H2642 C2654 0.959 . S
H2643 C2657 0.929 . S
H2644 C2658 0.931 . S
H2645 C2660 0.930 . S
C2646 H2634 0.930 . S
C2646 C2647 1.399 . S
C2646 C2651 1.399 . S
C2647 C2646 1.399 . S
C2647 C2648 1.376 . S
C2648 H2635 0.930 1_554 S
C2648 C2647 1.376 . S
C2648 C2649 1.388 1_554 S
C2649 H2636 0.930 . S
C2649 C2648 1.388 1_556 S
C2649 C2650 1.390 1_556 S
C2650 C2649 1.390 1_554 S
C2650 C2651 1.394 . S
C2650 C2656 1.465 . S
C2651 C2646 1.399 . S
C2651 C2650 1.394 . S
C2651 C2652 1.516 . S
C2652 C2651 1.516 . S
C2652 C2653 1.502 . S
C2652 C2654 1.561 . S
C2652 C2655 1.526 . S
C2653 H2637 0.959 . S
C2653 H2638 0.959 . S
C2653 H2639 0.961 . S
C2653 C2652 1.502 . S
C2654 H2640 0.960 . S
C2654 H2641 0.961 . S
C2654 H2642 0.959 . S
C2654 C2652 1.561 . S
C2655 C2652 1.526 . S
C2655 C2656 1.396 . S
C2655 C2660 1.390 . S
C2656 C2650 1.465 . S
C2656 C2655 1.396 . S
C2656 C2657 1.399 1_554 S
C2657 H2643 0.929 . S
C2657 C2656 1.399 1_556 S
C2657 C2658 1.385 . S
C2658 H2644 0.931 . S
C2658 C2657 1.385 . S
C2658 C2659 1.389 1_556 S
C2659 C2658 1.389 1_554 S
C2659 C2660 1.387 . S
C2660 H2645 0.930 . S
C2660 C2655 1.390 . S
C2660 C2659 1.387 . S
H2661 C2673 0.930 1_556 S
H2662 C2675 0.930 . S
H2663 C2676 0.930 . S
H2664 C2680 0.959 . S
H2665 C2680 0.959 . S
H2666 C2680 0.961 . S
H2667 C2681 0.960 1_556 S
H2668 C2681 0.961 1_556 S
H2669 C2681 0.959 . S
H2670 C2684 0.929 . S
H2671 C2685 0.931 . S
H2672 C2687 0.930 1_556 S
C2673 H2661 0.930 1_554 S
C2673 C2674 1.399 . S
C2673 C2678 1.399 . S
C2674 C2673 1.399 . S
C2674 C2675 1.376 . S
C2675 H2662 0.930 . S
C2675 C2674 1.376 . S
C2675 C2676 1.388 . S
C2676 H2663 0.930 . S
C2676 C2675 1.388 . S
C2676 C2677 1.390 . S
C2677 C2676 1.390 . S
C2677 C2678 1.394 . S
C2677 C2683 1.465 . S
C2678 C2673 1.399 . S
C2678 C2677 1.394 . S
C2678 C2679 1.488 1_554 S
C2679 C2678 1.488 1_556 S
C2679 C2680 1.552 . S
C2679 C2681 1.557 1_556 S
C2679 C2682 1.503 1_556 S
C2680 H2664 0.959 . S
C2680 H2665 0.959 . S
C2680 H2666 0.961 . S
C2680 C2679 1.552 . S
C2681 H2667 0.960 1_554 S
C2681 H2668 0.961 1_554 S
C2681 H2669 0.959 . S
C2681 C2679 1.557 1_554 S
C2682 C2679 1.503 1_554 S
C2682 C2683 1.396 . S
C2682 C2687 1.390 . S
C2683 C2677 1.465 . S
C2683 C2682 1.396 . S
C2683 C2684 1.399 . S
C2684 H2670 0.929 . S
C2684 C2683 1.399 . S
C2684 C2685 1.385 . S
C2685 H2671 0.931 . S
C2685 C2684 1.385 . S
C2685 C2686 1.389 . S
C2686 C2685 1.389 . S
C2686 C2687 1.387 . S
C2687 H2672 0.930 1_554 S
C2687 C2682 1.390 . S
C2687 C2686 1.387 . S
C1417 C962 1.464 . S
C1405 C331 1.388 . S
C1444 C1010 1.655 . S
C1432 C380 1.653 . S
C1459 C421 1.368 . S
C1471 C1046 1.325 . S
C1498 C1082 1.603 . S
C1486 C260 1.600 . S
C1525 C1108 1.487 . S
C1513 C620 1.393 . S
C1552 C1144 1.589 . S
C1540 C740 1.555 . S
C1567 C680 1.489 . S
C1579 C1179 1.495 . S
C1606 C1216 1.589 1_565 S
C1594 C571 1.580 . S
C1621 C691 1.410 . S
C1633 C1250 1.439 . S
C1660 C1298 1.550 . S
C1648 C541 1.601 . S
C1675 C601 1.436 . S
C1687 C1251 1.455 . S
C1714 C1288 1.611 . S
C1702 C721 1.564 . S
C1729 C451 1.397 . S
C1741 C1334 1.366 . S
C1756 C241 1.616 . S
C1768 C1323 1.607 . S
C1783 C320 1.482 . S
C1795 C1324 1.472 . S
C1810 C391 1.614 . S
C1822 C1322 1.633 . S
C1837 C211 1.398 . S
C1849 C1070 1.467 . S
C1864 C841 1.368 . S
C1876 C1071 1.443 . S
C1903 C974 1.570 . S
C1891 C901 1.622 . S
C1930 C999 1.472 . S
C1918 C500 1.455 . S
C1945 C271 1.584 . S
C1957 C1106 1.632 . S
C1984 C1214 1.456 . S
C1972 C661 1.444 . S
C2011 C1107 1.586 . S
C1999 C560 1.578 . S
C2038 C1180 1.598 . S
C2026 C751 1.581 . S
C2065 C1178 1.419 . S
C2053 C871 1.444 . S
C2080 C920 1.664 . S
C2092 C1226 1.592 . S
C2107 C481 1.409 . S
C2119 C1118 1.339 . S
C2146 C1154 1.602 . S
C2134 C800 1.595 . S
C2161 C200 1.466 . S
C2173 C1036 1.451 . S
C2200 C1072 1.590 . S
C2188 C20 1.569 . S
C2227 C963 1.499 . S
C2215 C80 1.493 . S
C2254 C1000 1.611 . S
C2242 C151 1.594 . S
C2269 C91 1.455 . S
C2281 C1286 1.424 . S
C2296 C121 1.601 . S
C2308 C1262 1.524 . S
C2323 C181 1.426 . S
C2335 C1287 1.456 . S
C2350 C1 1.594 . S
C2362 C1252 1.599 . S
C2389 C1370 1.444 . S
C2377 C511 1.444 . S
C2416 C1359 1.629 . S
C2404 C781 1.567 . S
C2443 C1360 1.501 . S
C2431 C860 1.446 . S
C2458 C931 1.629 . S
C2470 C1358 1.629 . S
C2485 C631 1.432 . S
C2497 C1142 1.447 . S
C2524 C1143 1.447 . S
C2512 C301 1.435 . S
C2551 C1190 1.562 . S
C2539 C361 1.636 . S
C2578 C1215 1.460 . S
C2566 C440 1.420 . S
C2593 C811 1.602 . S
C2605 C1034 1.605 1_556 S
C2632 C998 1.478 . S
C2620 C61 1.493 . S
C2647 C140 1.566 . S
C2659 C1035 1.586 . S
C2686 C964 1.615 . S
C2674 C31 1.615 . S
