# Generated by pormake.
# Topology wbl, (4,4)-cn, num edge types: 1
# Building blocks:
#     Node 0, Type 0, BuildingBlock: NAWXER_clean_linker_0, # of connection points: 4
#     Node 1, Type 0, BuildingBlock: NAWXER_clean_linker_0, # of connection points: 4
#     Node 2, Type 0, BuildingBlock: NAWXER_clean_linker_0, # of connection points: 4
#     Node 3, Type 0, BuildingBlock: NAWXER_clean_linker_0, # of connection points: 4
#     Node 4, Type 0, BuildingBlock: NAWXER_clean_linker_0, # of connection points: 4
#     Node 5, Type 0, BuildingBlock: NAWXER_clean_linker_0, # of connection points: 4
#     Node 6, Type 0, BuildingBlock: NAWXER_clean_linker_0, # of connection points: 4
#     Node 7, Type 0, BuildingBlock: NAWXER_clean_linker_0, # of connection points: 4
#     Node 8, Type 1, BuildingBlock: NAHDIM_clean_sbu_0, # of connection points: 4
#     Node 9, Type 1, BuildingBlock: NAHDIM_clean_sbu_0, # of connection points: 4
#     Node 10, Type 1, BuildingBlock: NAHDIM_clean_sbu_0, # of connection points: 4
#     Node 11, Type 1, BuildingBlock: NAHDIM_clean_sbu_0, # of connection points: 4
#     Node 12, Type 1, BuildingBlock: NAHDIM_clean_sbu_0, # of connection points: 4
#     Node 13, Type 1, BuildingBlock: NAHDIM_clean_sbu_0, # of connection points: 4
#     Node 14, Type 1, BuildingBlock: NAHDIM_clean_sbu_0, # of connection points: 4
#     Node 15, Type 1, BuildingBlock: NAHDIM_clean_sbu_0, # of connection points: 4
#     Edge 16, Type (0, 1), BuildingBlock: ZUJKAS_clean_linker_0, # of connection points: 2
#     Edge 17, Type (0, 1), BuildingBlock: ZUJKAS_clean_linker_0, # of connection points: 2
#     Edge 18, Type (0, 1), BuildingBlock: ZUJKAS_clean_linker_0, # of connection points: 2
#     Edge 19, Type (0, 1), BuildingBlock: ZUJKAS_clean_linker_0, # of connection points: 2
#     Edge 20, Type (0, 1), BuildingBlock: ZUJKAS_clean_linker_0, # of connection points: 2
#     Edge 21, Type (0, 1), BuildingBlock: ZUJKAS_clean_linker_0, # of connection points: 2
#     Edge 22, Type (0, 1), BuildingBlock: ZUJKAS_clean_linker_0, # of connection points: 2
#     Edge 23, Type (0, 1), BuildingBlock: ZUJKAS_clean_linker_0, # of connection points: 2
#     Edge 24, Type (0, 1), BuildingBlock: ZUJKAS_clean_linker_0, # of connection points: 2
#     Edge 25, Type (0, 1), BuildingBlock: ZUJKAS_clean_linker_0, # of connection points: 2
#     Edge 26, Type (0, 1), BuildingBlock: ZUJKAS_clean_linker_0, # of connection points: 2
#     Edge 27, Type (0, 1), BuildingBlock: ZUJKAS_clean_linker_0, # of connection points: 2
#     Edge 28, Type (0, 1), BuildingBlock: ZUJKAS_clean_linker_0, # of connection points: 2
#     Edge 29, Type (0, 1), BuildingBlock: ZUJKAS_clean_linker_0, # of connection points: 2
#     Edge 30, Type (0, 1), BuildingBlock: ZUJKAS_clean_linker_0, # of connection points: 2
#     Edge 31, Type (0, 1), BuildingBlock: ZUJKAS_clean_linker_0, # of connection points: 2
#     Edge 32, Type (0, 1), BuildingBlock: ZUJKAS_clean_linker_0, # of connection points: 2
#     Edge 33, Type (0, 1), BuildingBlock: ZUJKAS_clean_linker_0, # of connection points: 2
#     Edge 34, Type (0, 1), BuildingBlock: ZUJKAS_clean_linker_0, # of connection points: 2
#     Edge 35, Type (0, 1), BuildingBlock: ZUJKAS_clean_linker_0, # of connection points: 2
#     Edge 36, Type (0, 1), BuildingBlock: ZUJKAS_clean_linker_0, # of connection points: 2
#     Edge 37, Type (0, 1), BuildingBlock: ZUJKAS_clean_linker_0, # of connection points: 2
#     Edge 38, Type (0, 1), BuildingBlock: ZUJKAS_clean_linker_0, # of connection points: 2
#     Edge 39, Type (0, 1), BuildingBlock: ZUJKAS_clean_linker_0, # of connection points: 2
#     Edge 40, Type (0, 1), BuildingBlock: ZUJKAS_clean_linker_0, # of connection points: 2
#     Edge 41, Type (0, 1), BuildingBlock: ZUJKAS_clean_linker_0, # of connection points: 2
#     Edge 42, Type (0, 1), BuildingBlock: ZUJKAS_clean_linker_0, # of connection points: 2
#     Edge 43, Type (0, 1), BuildingBlock: ZUJKAS_clean_linker_0, # of connection points: 2
#     Edge 44, Type (0, 1), BuildingBlock: ZUJKAS_clean_linker_0, # of connection points: 2
#     Edge 45, Type (0, 1), BuildingBlock: ZUJKAS_clean_linker_0, # of connection points: 2
#     Edge 46, Type (0, 1), BuildingBlock: ZUJKAS_clean_linker_0, # of connection points: 2
#     Edge 47, Type (0, 1), BuildingBlock: ZUJKAS_clean_linker_0, # of connection points: 2
# Relax obj value: 0.156
# Max RMSD: 0.153
# Mean RMSD: 0.137
data_MOF--net-wbl--node1-NAHDIM_clean_sbu_0--node2-NAWXER_clean_linker_0--edge1-ZUJKAS_clean_linker_0
_symmetry_space_group_name_H-M    P1
_symmetry_Int_Tables_number       1
_symmetry_cell_setting            triclinic
loop_
_symmetry_equiv_pos_as_xyz
'x, y, z'
_cell_length_a     57.395822
_cell_length_b     55.592972
_cell_length_c     95.198812
_cell_angle_alpha  89.926207
_cell_angle_beta   90.011306
_cell_angle_gamma 90.02671
loop_
_atom_site_label
_atom_site_type_symbol
_atom_site_fract_x
_atom_site_fract_y
_atom_site_fract_z
_atom_type_partial_charge
C0 C 0.03881 0.92661 0.36797 0.0
C1 C 0.05311 0.93613 0.37858 0.0
C2 C 0.0259 0.94189 0.35926 0.0
C3 C 0.02708 0.96695 0.36104 0.0
C4 C 0.05444 0.96122 0.38021 0.0
C5 C 0.04141 0.97645 0.37159 0.0
C6 C 0.01223 0.98329 0.35265 0.0
C7 C 0.06423 0.9543 0.32194 0.0
C8 C 0.05466 0.93976 0.31134 0.0
C9 C 0.04981 0.96766 0.33075 0.0
C10 C 0.02552 0.96667 0.32918 0.0
C11 C 0.03033 0.93866 0.30982 0.0
C12 C 0.01588 0.95223 0.31858 0.0
C13 C 0.01034 0.98203 0.33789 0.0
C14 C 0.95463 0.07044 0.32365 0.0
C15 C 0.9405 0.06105 0.31292 0.0
C16 C 0.96828 0.05516 0.3319 0.0
C17 C 0.96765 0.03015 0.32977 0.0
C18 C 0.94035 0.03609 0.31058 0.0
C19 C 0.95384 0.02082 0.31891 0.0
C20 C 0.98229 0.01369 0.33822 0.0
C21 C 0.93341 0.04798 0.36961 0.0
C22 C 0.94472 0.06108 0.38025 0.0
C23 C 0.94619 0.03326 0.36053 0.0
C24 C 0.97053 0.03165 0.36183 0.0
C25 C 0.96909 0.05954 0.38142 0.0
C26 C 0.98182 0.04488 0.37236 0.0
C27 C 0.98429 0.01503 0.353 0.0
H28 H 0.03748 0.90735 0.36646 0.0
H29 H 0.01457 0.9341 0.35139 0.0
H30 H 0.06504 0.96906 0.38844 0.0
H31 H 0.0424 0.99571 0.37324 0.0
H32 H 0.08291 0.95533 0.32343 0.0
H33 H 0.05767 0.97914 0.33863 0.0
H34 H 0.02253 0.92772 0.30166 0.0
H35 H 0.99718 0.95147 0.31709 0.0
H36 H 0.95538 0.08964 0.32552 0.0
H37 H 0.97949 0.06294 0.33984 0.0
H38 H 0.92948 0.02833 0.30246 0.0
H39 H 0.9533 0.00162 0.31696 0.0
H40 H 0.91463 0.04851 0.36858 0.0
H41 H 0.93701 0.02272 0.35274 0.0
H42 H 0.97834 0.06964 0.38939 0.0
H43 H 0.00056 0.04382 0.37359 0.0
N44 N -0.00077 -0.00017 0.3596 0.0
N45 N 0.99535 0.99715 0.33125 0.0
C46 C 0.93188 0.46109 0.6156 0.0
C47 C 0.94065 0.44661 0.62651 0.0
C48 C 0.94704 0.47301 0.60644 0.0
C49 C 0.97127 0.4704 0.6079 0.0
C50 C 0.96493 0.44432 0.62803 0.0
C51 C 0.98005 0.45616 0.61885 0.0
C52 C 0.98768 0.48336 0.59857 0.0
C53 C 0.9479 0.43155 0.57247 0.0
C54 C 0.93349 0.44243 0.56237 0.0
C55 C 0.96532 0.44477 0.57913 0.0
C56 C 0.96834 0.46928 0.57606 0.0
C57 C 0.93728 0.46663 0.55876 0.0
C58 C 0.95461 0.47996 0.56556 0.0
C59 C 0.98575 0.48375 0.58377 0.0
C60 C 0.07463 0.53448 0.56689 0.0
C61 C 0.06608 0.54944 0.55615 0.0
C62 C 0.05931 0.52128 0.57529 0.0
C63 C 0.03512 0.52317 0.5733 0.0
C64 C 0.04193 0.5505 0.55379 0.0
C65 C 0.0266 0.53743 0.56227 0.0
C66 C 0.01862 0.50998 0.58244 0.0
C67 C 0.05405 0.56229 0.61221 0.0
C68 C 0.06649 0.55114 0.62316 0.0
C69 C 0.03971 0.54871 0.60337 0.0
C70 C 0.03773 0.52373 0.60527 0.0
C71 C 0.065 0.52603 0.6247 0.0
C72 C 0.05063 0.51251 0.61592 0.0
C73 C 0.02055 0.50948 0.59724 0.0
H74 H 0.91328 0.46318 0.61411 0.0
H75 H 0.93982 0.48443 0.59831 0.0
H76 H 0.9723 0.43374 0.63649 0.0
H77 H -0.00132 0.45416 0.62031 0.0
H78 H 0.94573 0.41276 0.57519 0.0
H79 H 0.97627 0.43588 0.58681 0.0
H80 H 0.92646 0.47539 0.55096 0.0
H81 H 0.95687 0.49877 0.56289 0.0
H82 H 0.09318 0.53296 0.56877 0.0
H83 H 0.06639 0.50966 0.58337 0.0
H84 H 0.03483 0.56199 0.54565 0.0
H85 H 0.00802 0.53893 0.56043 0.0
H86 H 0.05457 0.58163 0.61086 0.0
H87 H 0.02949 0.55784 0.59542 0.0
H88 H 0.07465 0.51683 0.63288 0.0
H89 H 0.0493 0.49328 0.61758 0.0
N90 N 0.0051 0.4961 0.60469 0.0
N91 N 0.00118 0.49719 0.57628 0.0
C92 C 0.54618 0.42939 0.86376 0.0
C93 C 0.55897 0.43892 0.87507 0.0
C94 C 0.53208 0.44425 0.85551 0.0
C95 C 0.53085 0.46907 0.8582 0.0
C96 C 0.55747 0.46374 0.87782 0.0
C97 C 0.54355 0.47861 0.86949 0.0
C98 C 0.51531 0.48501 0.84995 0.0
C99 C 0.5677 0.45684 0.81928 0.0
C100 C 0.55821 0.44162 0.80897 0.0
C101 C 0.5532 0.4707 0.82779 0.0
C102 C 0.52893 0.46945 0.82624 0.0
C103 C 0.5339 0.44068 0.80729 0.0
C104 C 0.51939 0.45465 0.81579 0.0
C105 C 0.51351 0.48422 0.83514 0.0
C106 C 0.45388 0.57023 0.82208 0.0
C107 C 0.4383 0.56028 0.81229 0.0
C108 C 0.46895 0.55542 0.82969 0.0
C109 C 0.46858 0.53039 0.8277 0.0
C110 C 0.43847 0.5353 0.81003 0.0
C111 C 0.45359 0.52051 0.81761 0.0
C112 C 0.48412 0.51445 0.83584 0.0
C113 C 0.43324 0.54552 0.86685 0.0
C114 C 0.44364 0.55975 0.87733 0.0
C115 C 0.44693 0.53117 0.85808 0.0
C116 C 0.47128 0.531 0.85951 0.0
C117 C 0.46803 0.55942 0.87877 0.0
C118 C 0.48168 0.54508 0.87 0.0
C119 C 0.486 0.51539 0.85061 0.0
H120 H 0.54699 0.41041 0.86127 0.0
H121 H 0.52186 0.43623 0.84718 0.0
H122 H 0.56663 0.47165 0.88662 0.0
H123 H 0.54263 0.49763 0.87191 0.0
H124 H 0.58636 0.4578 0.82091 0.0
H125 H 0.56097 0.48243 0.83557 0.0
H126 H 0.52613 0.42931 0.79933 0.0
H127 H 0.50069 0.45369 0.81432 0.0
H128 H 0.45407 0.58941 0.82408 0.0
H129 H 0.48082 0.5635 0.83717 0.0
H130 H 0.42691 0.52718 0.80239 0.0
H131 H 0.45329 0.50128 0.81578 0.0
H132 H 0.41449 0.54503 0.86565 0.0
H133 H 0.43844 0.51992 0.85034 0.0
H134 H 0.47661 0.57036 0.88663 0.0
H135 H 0.50043 0.5451 0.87134 0.0
N136 N 0.50158 0.50071 0.85708 0.0
N137 N 0.49785 0.49882 0.82867 0.0
C138 C 0.44682 0.92823 0.07433 0.0
C139 C 0.43205 0.94079 0.06511 0.0
C140 C 0.46486 0.94011 0.08124 0.0
C141 C 0.4682 0.96491 0.07932 0.0
C142 C 0.43597 0.96541 0.06274 0.0
C143 C 0.45394 0.97737 0.06979 0.0
C144 C 0.48682 0.97775 0.08701 0.0
C145 C 0.43614 0.95299 0.12012 0.0
C146 C 0.44548 0.93691 0.13004 0.0
C147 C 0.45072 0.96511 0.11072 0.0
C148 C 0.47489 0.96109 0.11092 0.0
C149 C 0.46967 0.93295 0.13021 0.0
C150 C 0.48422 0.945 0.12079 0.0
C151 C 0.49071 0.97474 0.10156 0.0
C152 C 0.56078 0.04994 0.11609 0.0
C153 C 0.57438 0.03687 0.12573 0.0
C154 C 0.5448 0.03813 0.10742 0.0
C155 C 0.54239 0.013 0.10809 0.0
C156 C 0.57224 0.01169 0.12616 0.0
C157 C 0.55633 -9e-05 0.11747 0.0
C158 C 0.52389 0.00043 0.10015 0.0
C159 C 0.5729 0.03233 0.06882 0.0
C160 C 0.5626 0.05043 0.06058 0.0
C161 C 0.55906 0.01672 0.07675 0.0
C162 C 0.53469 0.01909 0.07666 0.0
C163 C 0.53816 0.05202 0.06003 0.0
C164 C 0.52435 0.0364 0.06795 0.0
C165 C 0.51981 0.00378 0.08565 0.0
H166 H 0.44458 0.90911 0.07607 0.0
H167 H 0.47619 0.92988 0.08811 0.0
H168 H 0.42488 0.97547 0.05565 0.0
H169 H 0.45642 0.99645 0.068 0.0
H170 H 0.41763 0.95677 0.11989 0.0
H171 H 0.44315 0.978 0.1035 0.0
H172 H 0.47737 0.9205 0.13764 0.0
H173 H 0.50283 0.94176 0.1212 0.0
H174 H 0.56176 0.06939 0.11568 0.0
H175 H 0.53375 0.04873 0.10058 0.0
H176 H 0.58265 0.0011 0.13337 0.0
H177 H 0.55465 0.98054 0.11823 0.0
H178 H 0.59167 0.03069 0.06947 0.0
H179 H 0.5674 0.00306 0.08312 0.0
H180 H 0.52972 0.06552 0.05359 0.0
H181 H 0.50557 0.03831 0.06757 0.0
N182 N 0.50138 0.99236 0.07963 0.0
N183 N 0.50921 0.98601 0.10751 0.0
C184 C 0.05486 0.56396 0.89768 0.0
C185 C 0.06872 0.55371 0.8871 0.0
C186 C 0.04065 0.54948 0.90609 0.0
C187 C 0.0403 0.5244 0.90422 0.0
C188 C 0.06848 0.5286 0.88533 0.0
C189 C 0.05434 0.51412 0.89377 0.0
C190 C 0.024 0.50902 0.91229 0.0
C191 C 0.07411 0.53813 0.94378 0.0
C192 C 0.06426 0.55439 0.95339 0.0
C193 C 0.05992 0.52405 0.93521 0.0
C194 C 0.03559 0.52608 0.93598 0.0
C195 C 0.03987 0.55615 0.9543 0.0
C196 C 0.02565 0.54193 0.94575 0.0
C197 C 0.02057 0.51111 0.92693 0.0
C198 C 0.95538 0.42903 0.93974 0.0
C199 C 0.9394 0.44069 0.9486 0.0
C200 C 0.97208 0.44227 0.93236 0.0
C201 C 0.97295 0.46742 0.93363 0.0
C202 C 0.94074 0.46581 0.95013 0.0
C203 C 0.95745 0.47902 0.94277 0.0
C204 C 0.99035 0.48175 0.92582 0.0
C205 C 0.94296 0.45092 0.89237 0.0
C206 C 0.9543 0.43495 0.88317 0.0
C207 C 0.9558 0.46498 0.90177 0.0
C208 C 0.98019 0.46328 0.90216 0.0
C209 C 0.97873 0.43308 0.88379 0.0
C210 C 0.99153 0.44726 0.8931 0.0
C211 C 0.99415 0.47926 0.91124 0.0
H212 H 0.05434 0.58328 0.89913 0.0
H213 H 0.02942 0.55798 0.91375 0.0
H214 H 0.07912 0.52015 0.87734 0.0
H215 H 0.05424 0.49486 0.89207 0.0
H216 H 0.09284 0.53652 0.94274 0.0
H217 H 0.06798 0.51153 0.92798 0.0
H218 H 0.03183 0.56838 0.96171 0.0
H219 H 0.00689 0.54353 0.94661 0.0
H220 H 0.95473 0.40971 0.93831 0.0
H221 H 0.98429 0.43284 0.92567 0.0
H222 H 0.92892 0.47525 0.95706 0.0
H223 H 0.95805 0.49837 0.94405 0.0
H224 H 0.92423 0.45313 0.89202 0.0
H225 H 0.94672 0.47764 0.90845 0.0
H226 H 0.98801 0.4207 0.87704 0.0
H227 H 0.01035 0.44574 0.89321 0.0
N228 N 0.01081 0.49298 0.90505 0.0
N229 N 0.00371 0.4976 0.93312 0.0
C230 C 0.43408 0.54448 0.14885 0.0
C231 C 0.44351 0.55932 0.13831 0.0
C232 C 0.44866 0.53215 0.15815 0.0
C233 C 0.47297 0.53473 0.15725 0.0
C234 C 0.46787 0.56174 0.1374 0.0
C235 C 0.48242 0.5495 0.14674 0.0
C236 C 0.48871 0.52089 0.16656 0.0
C237 C 0.44798 0.57085 0.19346 0.0
C238 C 0.43291 0.55924 0.20292 0.0
C239 C 0.46555 0.55803 0.18668 0.0
C240 C 0.4681 0.53324 0.18902 0.0
C241 C 0.43615 0.53466 0.20576 0.0
C242 C 0.45365 0.52177 0.19887 0.0
C243 C 0.48578 0.51922 0.18126 0.0
C244 C 0.56988 0.45996 0.1984 0.0
C245 C 0.55923 0.44491 0.20841 0.0
C246 C 0.5565 0.47559 0.1902 0.0
C247 C 0.53214 0.47608 0.19162 0.0
C248 C 0.53497 0.44646 0.21032 0.0
C249 C 0.52159 0.46186 0.20201 0.0
C250 C 0.51744 0.49148 0.18253 0.0
C251 C 0.55206 0.43992 0.15214 0.0
C252 C 0.5662 0.45121 0.14201 0.0
C253 C 0.53763 0.45357 0.16087 0.0
C254 C 0.53728 0.47876 0.15974 0.0
C255 C 0.56611 0.47646 0.14113 0.0
C256 C 0.55167 0.49007 0.14983 0.0
C257 C 0.52044 0.49331 0.16782 0.0
H258 H 0.4154 0.5423 0.14989 0.0
H259 H 0.44092 0.52031 0.16589 0.0
H260 H 0.47575 0.57263 0.12925 0.0
H261 H 0.50114 0.55147 0.14572 0.0
H262 H 0.44624 0.58992 0.19134 0.0
H263 H 0.47701 0.56746 0.17951 0.0
H264 H 0.42479 0.52529 0.21302 0.0
H265 H 0.45551 0.50271 0.20095 0.0
H266 H 0.5885 0.45925 0.19661 0.0
H267 H 0.56521 0.48705 0.18265 0.0
H268 H 0.52624 0.43558 0.21816 0.0
H269 H 0.50287 0.46226 0.2035 0.0
H270 H 0.55143 0.4205 0.15294 0.0
H271 H 0.52621 0.4444 0.16819 0.0
H272 H 0.57701 0.48573 0.13357 0.0
H273 H 0.55156 0.50946 0.14873 0.0
N274 N 0.50605 0.50802 0.16045 0.0
N275 N 0.50012 0.50445 0.18866 0.0
C276 C 0.45869 0.92642 0.39368 0.0
C277 C 0.44415 0.93689 0.38348 0.0
C278 C 0.47161 0.94088 0.40282 0.0
C279 C 0.4701 0.96605 0.40197 0.0
C280 C 0.44272 0.9621 0.38265 0.0
C281 C 0.45571 0.97653 0.39175 0.0
C282 C 0.48437 0.98161 0.41116 0.0
C283 C 0.43249 0.94532 0.43902 0.0
C284 C 0.44238 0.92892 0.44858 0.0
C285 C 0.44649 0.9615 0.43166 0.0
C286 C 0.47071 0.96156 0.43364 0.0
C287 C 0.46662 0.92934 0.45074 0.0
C288 C 0.48064 0.94564 0.44339 0.0
C289 C 0.48556 0.97872 0.42589 0.0
C290 C 0.54048 0.06617 0.44337 0.0
C291 C 0.55537 0.05595 0.45347 0.0
C292 C 0.52647 0.05155 0.43496 0.0
C293 C 0.52733 0.02641 0.43635 0.0
C294 C 0.55547 0.03082 0.45522 0.0
C295 C 0.54149 0.01621 0.44678 0.0
C296 C 0.51317 0.01067 0.4272 0.0
C297 C 0.56512 0.04601 0.39821 0.0
C298 C 0.55507 0.06072 0.38782 0.0
C299 C 0.55118 0.03096 0.40645 0.0
C300 C 0.52692 0.03046 0.40451 0.0
C301 C 0.53076 0.06028 0.38598 0.0
C302 C 0.51686 0.04518 0.39419 0.0
C303 C 0.51211 0.01344 0.41245 0.0
H304 H 0.46009 0.90705 0.39459 0.0
H305 H 0.48302 0.93237 0.4104 0.0
H306 H 0.43196 0.97069 0.37476 0.0
H307 H 0.4545 0.99591 0.39081 0.0
H308 H 0.41382 0.94596 0.43738 0.0
H309 H 0.43836 0.97413 0.42451 0.0
H310 H 0.47479 0.9169 0.45799 0.0
H311 H 0.49929 0.94557 0.44515 0.0
H312 H 0.54006 0.08544 0.44171 0.0
H313 H 0.51512 0.0599 0.42728 0.0
H314 H 0.56644 0.02243 0.46308 0.0
H315 H 0.54212 0.99688 0.44819 0.0
H316 H 0.58378 0.04602 0.3999 0.0
H317 H 0.55942 0.01934 0.41412 0.0
H318 H 0.52254 0.07109 0.37791 0.0
H319 H 0.49822 0.04485 0.3924 0.0
N320 N 0.49762 -0.00109 0.40503 0.0
N321 N 0.49998 0.99329 0.43335 0.0
C322 C 0.06348 0.95229 0.6492 0.0
C323 C 0.05486 0.93642 0.63894 0.0
C324 C 0.04817 0.96553 0.65759 0.0
C325 C 0.02397 0.96305 0.65591 0.0
C326 C 0.03063 0.93376 0.63744 0.0
C327 C 0.01536 0.94705 0.64578 0.0
C328 C 0.00747 0.97835 0.6638 0.0
C329 C 0.04017 0.92992 0.69572 0.0
C330 C 0.05443 0.94191 0.70546 0.0
C331 C 0.02533 0.94284 0.68692 0.0
C332 C 0.02456 0.96803 0.68762 0.0
C333 C 0.05354 0.96714 0.70623 0.0
C334 C 0.03853 0.98008 0.69745 0.0
C335 C 0.00851 0.98168 0.67849 0.0
C336 C 0.91913 0.03487 0.68974 0.0
C337 C 0.92678 0.05213 0.69948 0.0
C338 C 0.93516 0.02049 0.68263 0.0
C339 C 0.95917 0.02333 0.68496 0.0
C340 C 0.95078 0.05431 0.70219 0.0
C341 C 0.96682 0.03995 0.69503 0.0
C342 C 0.97631 0.00866 0.6772 0.0
C343 C 0.94308 0.05617 0.64435 0.0
C344 C 0.93022 0.04354 0.63415 0.0
C345 C 0.95745 0.04385 0.65378 0.0
C346 C 0.95916 0.01867 0.65323 0.0
C347 C 0.93181 0.01829 0.63377 0.0
C348 C 0.94628 0.00603 0.64314 0.0
C349 C 0.97544 0.0055 0.66249 0.0
H350 H 0.08207 0.95468 0.65062 0.0
H351 H 0.05525 0.97819 0.66511 0.0
H352 H 0.02343 0.92202 0.62948 0.0
H353 H 0.99677 0.94504 0.64421 0.0
H354 H 0.04063 0.9105 0.69482 0.0
H355 H 0.01433 0.93313 0.67962 0.0
H356 H 0.06421 0.9768 0.71372 0.0
H357 H 0.03796 -0.00048 0.69825 0.0
H358 H 0.90073 0.03247 0.68764 0.0
H359 H 0.92878 0.00716 0.67528 0.0
H360 H 0.95722 0.06757 0.70955 0.0
H361 H 0.98525 0.04223 0.69711 0.0
H362 H 0.9426 0.07562 0.64479 0.0
H363 H 0.96768 0.05404 0.66126 0.0
H364 H 0.92189 0.00796 0.62621 0.0
H365 H 0.94741 0.9866 0.64251 0.0
N366 N 0.99094 0.99035 0.65639 0.0
N367 N 0.99294 0.99677 0.68464 0.0
C368 C 0.25061 0.68621 0.01338 0.0
O369 O 0.25898 0.68148 0.02592 0.0
O370 O 0.30936 0.68843 0.0252 0.0
Zn371 Zn 0.29753 0.70341 0.00729 0.0
O372 O 0.31612 0.68977 0.99129 0.0
C373 C 0.29582 0.75076 0.01877 0.0
O374 O 0.28505 0.73931 0.02897 0.0
O375 O 0.26373 0.69579 0.00419 0.0
C376 C 0.30896 0.69054 0.97867 0.0
O377 O 0.28898 0.70101 0.97587 0.0
C378 C 0.31401 0.66608 0.02545 0.0
O379 O 0.31024 0.65317 0.01412 0.0
O380 O 0.30247 0.73903 0.00806 0.0
C381 C 0.24136 0.81191 0.24908 0.0
O382 O 0.25137 0.81803 0.23719 0.0
O383 O 0.30137 0.80869 0.2395 0.0
Zn384 Zn 0.28734 0.79386 0.25687 0.0
O385 O 0.30326 0.80807 0.27371 0.0
C386 C 0.28825 0.7466 0.24541 0.0
O387 O 0.27869 0.7579 0.23473 0.0
O388 O 0.25318 0.80107 0.25842 0.0
C389 C 0.32439 0.80329 0.27652 0.0
O390 O 0.33587 0.78832 0.2684 0.0
C391 C 0.30661 0.8309 0.2393 0.0
O392 O 0.30204 0.84415 0.25038 0.0
O393 O 0.29299 0.75835 0.25647 0.0
C394 C 0.24225 0.82221 0.50345 0.0
O395 O 0.22527 0.83765 0.50142 0.0
O396 O 0.18964 0.80966 0.52525 0.0
Zn397 Zn 0.20298 0.7932 0.50817 0.0
O398 O 0.18708 0.80574 0.49075 0.0
C399 C 0.19338 0.74356 0.5001 0.0
O400 O 0.19367 0.75199 0.4872 0.0
O401 O 0.23718 0.80068 0.50674 0.0
C402 C 0.16566 0.80209 0.48812 0.0
O403 O 0.15322 0.78907 0.49688 0.0
C404 C 0.17966 0.83004 0.52456 0.0
O405 O 0.17808 0.841 0.51237 0.0
O406 O 0.1975 0.75768 0.51029 0.0
C407 C 0.2463 0.68022 0.75146 0.0
O408 O 0.23308 0.66554 0.74416 0.0
O409 O 0.18995 0.6905 0.73726 0.0
Zn410 Zn 0.20276 0.70454 0.75528 0.0
O411 O 0.18731 0.68841 0.77177 0.0
C412 C 0.17463 0.74575 0.75856 0.0
O413 O 0.15946 0.72875 0.76148 0.0
O414 O 0.23723 0.69887 0.75688 0.0
C415 C 0.19113 0.69434 0.78444 0.0
O416 O 0.2057 0.71199 0.78713 0.0
C417 C 0.17896 0.67063 0.73744 0.0
O418 O 0.17656 0.6591 0.7494 0.0
O419 O 0.19544 0.73984 0.75563 0.0
C420 C 0.74278 0.18398 0.51409 0.0
O421 O 0.75425 0.17356 0.52437 0.0
O422 O 0.80204 0.18739 0.52392 0.0
Zn423 Zn 0.78803 0.20407 0.50706 0.0
O424 O 0.8028 0.1908 0.48957 0.0
C425 C 0.79242 0.24999 0.52002 0.0
O426 O 0.78422 0.23783 0.53079 0.0
O427 O 0.75351 0.19818 0.50585 0.0
C428 C 0.82443 0.19362 0.48725 0.0
O429 O 0.83699 0.20591 0.49628 0.0
C430 C 0.8093 0.16584 0.52309 0.0
O431 O 0.80721 0.15424 0.51114 0.0
O432 O 0.79498 0.23933 0.50833 0.0
C433 C 0.7454 0.31395 0.7481 0.0
O434 O 0.75451 0.32022 0.73598 0.0
O435 O 0.80488 0.31563 0.73779 0.0
Zn436 Zn 0.79267 0.29923 0.75518 0.0
O437 O 0.80884 0.31299 0.7721 0.0
C438 C 0.79324 0.25163 0.74372 0.0
O439 O 0.78031 0.26178 0.73398 0.0
O440 O 0.75826 0.30434 0.75741 0.0
C441 C 0.83077 0.31605 0.77201 0.0
O442 O 0.84268 0.30994 0.76078 0.0
C443 C 0.80822 0.33823 0.73754 0.0
O444 O 0.80292 0.35103 0.74868 0.0
O445 O 0.80013 0.26416 0.75405 0.0
C446 C 0.74089 0.32738 0.00943 0.0
O447 O 0.72624 0.34276 0.01506 0.0
O448 O 0.68888 0.3144 0.02731 0.0
Zn449 Zn 0.69962 0.29971 0.0091 0.0
O450 O 0.68232 0.31527 0.99311 0.0
C451 C 0.67402 0.25577 0.00533 0.0
O452 O 0.6588 0.27059 0.99973 0.0
O453 O 0.73363 0.30651 0.00622 0.0
C454 C 0.6851 0.30816 0.98055 0.0
O455 O 0.69925 0.2901 0.97804 0.0
C456 C 0.66729 0.3181 0.02931 0.0
O457 O 0.6524 0.31212 0.01943 0.0
O458 O 0.69329 0.26408 0.0098 0.0
C459 C 0.75424 0.18636 0.24958 0.0
O460 O 0.74708 0.18457 0.23652 0.0
O461 O 0.6955 0.18048 0.23765 0.0
Zn462 Zn 0.70541 0.19598 0.25576 0.0
O463 O 0.68819 0.17971 0.27151 0.0
C464 C 0.67453 0.23465 0.25409 0.0
O465 O 0.66027 0.21615 0.25381 0.0
O466 O 0.73971 0.19176 0.25914 0.0
C467 C 0.68706 0.18902 0.28368 0.0
O468 O 0.69735 0.20975 0.28598 0.0
C469 C 0.69711 0.15789 0.23591 0.0
O470 O 0.70618 0.14467 0.24598 0.0
O471 O 0.69628 0.23079 0.2551 0.0
H472 H 0.09344 0.95599 0.2979 0.0
H473 H 0.12127 0.93256 0.28414 0.0
H474 H 0.07914 0.86903 0.28993 0.0
H475 H 0.05104 0.89252 0.30362 0.0
H476 H 0.14554 0.895 0.29508 0.0
H477 H 0.09572 0.86538 0.2482 0.0
H478 H 0.08609 0.88961 0.25941 0.0
H479 H 0.08177 0.85887 0.26466 0.0
C480 C 0.09 0.93708 0.29611 0.0
C481 C 0.0702 0.926 0.30191 0.0
C482 C 0.10582 0.92376 0.2882 0.0
C483 C 0.10217 0.89912 0.28592 0.0
C484 C 0.08203 0.88813 0.29131 0.0
H485 H 0.21443 0.79905 0.27146 0.0
H486 H 0.17849 0.81829 0.27933 0.0
C487 C 0.06607 0.90152 0.29918 0.0
C488 C 0.12071 0.88461 0.27924 0.0
H489 H 0.13278 0.84693 0.25186 0.0
C490 C 0.14275 0.88457 0.2856 0.0
C491 C 0.11703 0.87114 0.26684 0.0
C492 C 0.09394 0.87135 0.25928 0.0
C493 C 0.16122 0.87132 0.27996 0.0
C494 C 0.15741 0.85728 0.2678 0.0
C495 C 0.13548 0.8575 0.26129 0.0
C496 C 0.17641 0.84276 0.2617 0.0
C497 C 0.18479 0.87272 0.28698 0.0
C498 C 0.18637 0.84936 0.24881 0.0
C499 C 0.20689 0.83831 0.24422 0.0
C500 C 0.2177 0.82058 0.25252 0.0
C501 C 0.2067 0.81288 0.26493 0.0
C502 C 0.18617 0.82382 0.26945 0.0
H503 H 0.18611 0.88841 0.29415 0.0
H504 H 0.18768 0.85617 0.29327 0.0
H505 H 0.19892 0.87399 0.27905 0.0
H506 H 0.17899 0.86392 0.24268 0.0
H507 H 0.21488 0.84455 0.23458 0.0
H508 H 0.10215 0.57654 0.56593 0.0
H509 H 0.1269 0.60416 0.55264 0.0
H510 H 0.09138 0.58447 0.51441 0.0
H511 H 0.0663 0.55693 0.52771 0.0
H512 H 0.15709 0.59799 0.5302 0.0
H513 H 0.08253 0.657 0.51567 0.0
H514 H 0.08 0.63352 0.52867 0.0
H515 H 0.07998 0.62617 0.51029 0.0
C516 C 0.09981 0.57785 0.55467 0.0
C517 C 0.08219 0.56472 0.54786 0.0
C518 C 0.11392 0.59366 0.54709 0.0
C519 C 0.11072 0.59663 0.53258 0.0
C520 C 0.09378 0.58283 0.52565 0.0
H521 H 0.17278 0.71194 0.48189 0.0
H522 H 0.15518 0.67299 0.48767 0.0
C523 C 0.07951 0.56712 0.53325 0.0
C524 C 0.12451 0.61501 0.52497 0.0
H525 H 0.11966 0.66903 0.50814 0.0
C526 C 0.14892 0.61341 0.52524 0.0
C527 C 0.11378 0.63508 0.51848 0.0
C528 C 0.08765 0.63826 0.51832 0.0
C529 C 0.16291 0.63169 0.51955 0.0
C530 C 0.15217 0.65213 0.51356 0.0
C531 C 0.1278 0.65324 0.51271 0.0
C532 C 0.16562 0.67374 0.50949 0.0
C533 C 0.18905 0.6292 0.5202 0.0
C534 C 0.17747 0.68688 0.51983 0.0
C535 C 0.18737 0.70914 0.51661 0.0
C536 C 0.18557 0.71869 0.50297 0.0
C537 C 0.17453 0.70503 0.49248 0.0
C538 C 0.16446 0.6828 0.49575 0.0
H539 H 0.19439 0.61006 0.52111 0.0
H540 H 0.19741 0.63715 0.51076 0.0
H541 H 0.19565 0.63887 0.52959 0.0
H542 H 0.17817 0.68042 0.53057 0.0
H543 H 0.19578 0.7192 0.52493 0.0
H544 H 0.44619 0.60406 0.79988 0.0
H545 H 0.41754 0.63016 0.78827 0.0
H546 H 0.36388 0.57748 0.79603 0.0
H547 H 0.39218 0.55155 0.80781 0.0
H548 H 0.38682 0.61876 0.76442 0.0
H549 H 0.33933 0.64173 0.81336 0.0
H550 H 0.36856 0.62968 0.81341 0.0
H551 H 0.34401 0.61006 0.81091 0.0
C552 C 0.42825 0.59812 0.79915 0.0
C553 C 0.42139 0.5758 0.80478 0.0
C554 C 0.41199 0.61296 0.79247 0.0
C555 C 0.38863 0.60579 0.79146 0.0
C556 C 0.38182 0.58339 0.79685 0.0
H557 H 0.26979 0.63999 0.74316 0.0
H558 H 0.30745 0.62588 0.75167 0.0
C559 C 0.39804 0.56853 0.80347 0.0
C560 C 0.37111 0.62164 0.78489 0.0
H561 H 0.3199 0.65025 0.79177 0.0
C562 C 0.37233 0.62597 0.77039 0.0
C563 C 0.35252 0.63132 0.79278 0.0
C564 C 0.35105 0.62819 0.8085 0.0
C565 C 0.35464 0.63872 0.76343 0.0
C566 C 0.33523 0.64701 0.77119 0.0
C567 C 0.33472 0.64376 0.78581 0.0
C568 C 0.31435 0.65737 0.76437 0.0
C569 C 0.35673 0.6429 0.74782 0.0
C570 C 0.30573 0.67981 0.76864 0.0
C571 C 0.28405 0.68785 0.7639 0.0
C572 C 0.27056 0.67347 0.75487 0.0
C573 C 0.27974 0.65151 0.7501 0.0
C574 C 0.30139 0.64348 0.75487 0.0
H575 H 0.37524 0.64275 0.74441 0.0
H576 H 0.34756 0.62825 0.74216 0.0
H577 H 0.34876 0.66031 0.74471 0.0
H578 H 0.31542 0.69072 0.77604 0.0
H579 H 0.2775 0.70488 0.76774 0.0
H580 H 0.40079 0.90999 0.07688 0.0
H581 H 0.37183 0.88521 0.06483 0.0
H582 H 0.39068 0.91776 0.02529 0.0
H583 H 0.41998 0.94254 0.0373 0.0
H584 H 0.33273 0.89814 0.04513 0.0
H585 H 0.40438 0.84329 0.02189 0.0
H586 H 0.40922 0.86273 0.03678 0.0
H587 H 0.40523 0.87543 0.01963 0.0
C588 C 0.39865 0.91199 0.06563 0.0
C589 C 0.41281 0.92793 0.05799 0.0
C590 C 0.38199 0.898 0.0588 0.0
C591 C 0.3793 0.89961 0.0442 0.0
C592 C 0.39263 0.91628 0.03658 0.0
H593 H 0.31455 0.78069 0.99895 0.0
H594 H 0.33081 0.82084 0.00267 0.0
C595 C 0.40926 0.93043 0.04344 0.0
C596 C 0.36409 0.88212 0.037 0.0
H597 H 0.36641 0.8289 0.01936 0.0
C598 C 0.33996 0.88318 0.03926 0.0
C599 C 0.37365 0.86279 0.0293 0.0
C600 C 0.39954 0.86075 0.02675 0.0
C601 C 0.32518 0.86483 0.03445 0.0
C602 C 0.33495 0.84467 0.02757 0.0
C603 C 0.35893 0.84434 0.02465 0.0
C604 C 0.32137 0.82254 0.02465 0.0
C605 C 0.29934 0.86708 0.03699 0.0
C606 C 0.31025 0.81035 0.03571 0.0
C607 C 0.3008 0.78749 0.03359 0.0
C608 C 0.30268 0.77622 0.02044 0.0
C609 C 0.31295 0.78885 0.00923 0.0
C610 C 0.3222 0.81181 0.01132 0.0
H611 H 0.29392 0.88626 0.03723 0.0
H612 H 0.2891 0.85762 0.02878 0.0
H613 H 0.29503 0.85911 0.04736 0.0
H614 H 0.30995 0.81792 0.04618 0.0
H615 H 0.29309 0.77821 0.04246 0.0
H616 H 0.05996 0.60255 0.9587 0.0
H617 H 0.08791 0.62851 0.97096 0.0
H618 H 0.13097 0.56684 0.97994 0.0
H619 H 0.10316 0.5408 0.9678 0.0
H620 H 0.1088 0.62684 0.99929 0.0
H621 H 0.17193 0.61324 0.9558 0.0
H622 H 0.1414 0.60591 0.95418 0.0
H623 H 0.16076 0.58596 0.96337 0.0
C624 C 0.07517 0.59449 0.96353 0.0
C625 C 0.07957 0.56971 0.96214 0.0
C626 C 0.09109 0.60932 0.97049 0.0
C627 C 0.11159 0.59957 0.97614 0.0
C628 C 0.11538 0.5747 0.97545 0.0
H629 H 0.22177 0.65576 0.02782 0.0
H630 H 0.18552 0.63775 0.01938 0.0
C631 C 0.09955 0.55989 0.96847 0.0
C632 C 0.12991 0.61547 0.98183 0.0
H633 H 0.18602 0.63294 0.97613 0.0
C634 C 0.12566 0.62837 0.99422 0.0
C635 C 0.15167 0.61767 0.97502 0.0
C636 C 0.15674 0.60515 0.96129 0.0
C637 C 0.14302 0.64291 0.00025 0.0
C638 C 0.16515 0.64425 0.99374 0.0
C639 C 0.16907 0.63183 0.98114 0.0
C640 C 0.1849 0.65779 -0.00014 0.0
C641 C 0.1375 0.65679 0.01343 0.0
C642 C 0.19653 0.67509 0.99173 0.0
C643 C 0.21741 0.68512 0.99642 0.0
C644 C 0.22704 0.67805 0.00936 0.0
C645 C 0.21476 0.66163 0.01783 0.0
C646 C 0.19393 0.65145 0.01306 0.0
H647 H 0.11844 0.65958 0.01466 0.0
H648 H 0.14374 0.64646 0.02268 0.0
H649 H 0.1463 0.67458 0.01344 0.0
H650 H 0.18988 0.68019 0.9815 0.0
H651 H 0.22637 0.69784 0.98969 0.0
H652 H 0.40268 0.59017 0.19034 0.0
H653 H 0.37293 0.61507 0.20155 0.0
H654 H 0.38977 0.5838 0.24177 0.0
H655 H 0.41988 0.55891 0.23061 0.0
H656 H 0.33289 0.60098 0.22024 0.0
H657 H 0.40072 0.65882 0.24517 0.0
H658 H 0.40733 0.6395 0.23047 0.0
H659 H 0.40257 0.62674 0.24754 0.0
C660 C 0.40002 0.58857 0.20157 0.0
C661 C 0.41376 0.57285 0.20964 0.0
C662 C 0.38291 0.60261 0.20792 0.0
C663 C 0.37932 0.6013 0.22246 0.0
C664 C 0.39241 0.58506 0.23052 0.0
H665 H 0.30651 0.71738 0.26575 0.0
H666 H 0.32476 0.67805 0.26248 0.0
C667 C 0.4095 0.57085 0.22414 0.0
C668 C 0.36302 0.61833 0.22913 0.0
H669 H 0.36206 0.67167 0.24669 0.0
C670 C 0.33914 0.61626 0.22624 0.0
C671 C 0.37129 0.63807 0.23701 0.0
C672 C 0.39687 0.64115 0.24024 0.0
C673 C 0.32334 0.634 0.23061 0.0
C674 C 0.33184 0.65457 0.2377 0.0
C675 C 0.35556 0.65591 0.24124 0.0
C676 C 0.3172 0.67608 0.24024 0.0
C677 C 0.29781 0.63068 0.2274 0.0
C678 C 0.3065 0.68783 0.22888 0.0
C679 C 0.29593 0.71021 0.23073 0.0
C680 C 0.29623 0.72146 0.24393 0.0
C681 C 0.30609 0.70922 0.25543 0.0
C682 C 0.31649 0.68673 0.25359 0.0
H683 H 0.29316 0.61129 0.227 0.0
H684 H 0.28665 0.63966 0.23535 0.0
H685 H 0.29394 0.63854 0.21694 0.0
H686 H 0.30737 0.68031 0.2184 0.0
H687 H 0.28857 0.71919 0.22165 0.0
H688 H 0.44536 0.91547 0.47628 0.0
H689 H 0.41835 0.88979 0.48939 0.0
H690 H 0.37753 0.87943 0.45182 0.0
H691 H 0.40497 0.9039 0.43855 0.0
H692 H 0.37429 0.89904 0.49433 0.0
H693 H 0.37826 0.81228 0.46667 0.0
H694 H 0.40003 0.83535 0.46416 0.0
H695 H 0.37329 0.83587 0.4542 0.0
C696 C 0.43099 0.90716 0.47073 0.0
C697 C 0.42725 0.91183 0.45637 0.0
C698 C 0.41551 0.89258 0.47826 0.0
C699 C 0.39611 0.88235 0.47155 0.0
C700 C 0.39269 0.88656 0.45716 0.0
H701 H 0.25776 0.86597 0.49472 0.0
H702 H 0.29764 0.87812 0.48986 0.0
C703 C 0.40819 0.90094 0.44963 0.0
C704 C 0.37792 0.86961 0.47974 0.0
H705 H 0.34104 0.82159 0.47802 0.0
C706 C 0.36739 0.88181 0.49098 0.0
C707 C 0.3692 0.84685 0.47567 0.0
C708 C 0.38101 0.83175 0.46461 0.0
C709 C 0.34719 0.87285 0.4974 0.0
C710 C 0.33694 0.85151 0.49218 0.0
C711 C 0.34861 0.83823 0.48182 0.0
C712 C 0.313 0.8442 0.49615 0.0
C713 C 0.33668 0.88674 0.50944 0.0
C714 C 0.30824 0.82082 0.50096 0.0
C715 C 0.28526 0.81366 0.50358 0.0
C716 C 0.26671 0.82975 0.50135 0.0
C717 C 0.27162 0.85317 0.49664 0.0
C718 C 0.29448 0.86024 0.49398 0.0
H719 H 0.35036 0.89641 0.51546 0.0
H720 H 0.32447 0.90044 0.50521 0.0
H721 H 0.32697 0.87477 0.51672 0.0
H722 H 0.32227 0.80808 0.50255 0.0
H723 H 0.28202 0.79547 0.50718 0.0
H724 H 0.10032 0.95085 0.71138 0.0
H725 H 0.12719 0.92512 0.72471 0.0
H726 H 0.07106 0.87569 0.73336 0.0
H727 H 0.04413 0.90139 0.7203 0.0
H728 H 0.10306 0.88576 0.75693 0.0
H729 H 0.14702 0.85927 0.70703 0.0
H730 H 0.14459 0.8908 0.711 0.0
H731 H 0.11888 0.87372 0.70711 0.0
C732 C 0.09366 0.93472 0.71636 0.0
C733 C 0.07022 0.92793 0.71467 0.0
C734 C 0.10902 0.92003 0.72389 0.0
C735 C 0.10109 0.89844 0.72986 0.0
C736 C 0.07748 0.89228 0.72879 0.0
H737 H 0.1309 0.76343 0.76269 0.0
H738 H 0.11709 0.80406 0.75809 0.0
C739 C 0.06218 0.90685 0.72124 0.0
C740 C 0.11743 0.88105 0.73623 0.0
H741 H 0.1564 0.83747 0.72723 0.0
C742 C 0.11508 0.87546 0.75053 0.0
C743 C 0.13319 0.86784 0.72784 0.0
C744 C 0.13613 0.873 0.71237 0.0
C745 C 0.12732 0.85618 0.75654 0.0
C746 C 0.14178 0.84184 0.7479 0.0
C747 C 0.14526 0.84845 0.73382 0.0
C748 C 0.15103 0.81831 0.75263 0.0
C749 C 0.12421 0.85102 0.77198 0.0
C750 C 0.17471 0.81268 0.75098 0.0
C751 C 0.18265 0.78926 0.75342 0.0
C752 C 0.16697 0.77107 0.75746 0.0
C753 C 0.14345 0.77701 0.75961 0.0
C754 C 0.13554 0.80035 0.75713 0.0
H755 H 0.12042 0.86779 0.77789 0.0
H756 H 0.10915 0.83873 0.77342 0.0
H757 H 0.13992 0.8424 0.77656 0.0
H758 H 0.18692 0.82623 0.74739 0.0
H759 H 0.20089 0.78527 0.7517 0.0
H760 H 0.55283 0.3942 0.80199 0.0
H761 H 0.58066 0.36851 0.78948 0.0
H762 H 0.6264 0.4293 0.78379 0.0
H763 H 0.5987 0.45508 0.79618 0.0
H764 H 0.60321 0.37256 0.7617 0.0
H765 H 0.66424 0.37865 0.80684 0.0
H766 H 0.63391 0.38696 0.80815 0.0
H767 H 0.6545 0.40718 0.80019 0.0
C768 C 0.56863 0.40216 0.79785 0.0
C769 C 0.57376 0.42656 0.80022 0.0
C770 C 0.58448 0.38747 0.79074 0.0
C771 C 0.60564 0.39701 0.78592 0.0
C772 C 0.61027 0.42159 0.78764 0.0
H773 H 0.71706 0.34556 0.7342 0.0
H774 H 0.68024 0.36226 0.74259 0.0
C775 C 0.5945 0.43624 0.79476 0.0
C776 C 0.62369 0.38108 0.77998 0.0
H777 H 0.67893 0.36117 0.78596 0.0
C778 C 0.61973 0.36985 0.76701 0.0
C779 C 0.64498 0.37731 0.78709 0.0
C780 C 0.64967 0.38796 0.8014 0.0
C781 C 0.63698 0.35554 0.7607 0.0
C782 C 0.65871 0.35273 0.76753 0.0
C783 C 0.66228 0.36339 0.78071 0.0
C784 C 0.67852 0.33971 0.76112 0.0
C785 C 0.63178 0.34354 0.74686 0.0
C786 C 0.68968 0.32134 0.76868 0.0
C787 C 0.71089 0.31205 0.76403 0.0
C788 C 0.72132 0.32095 0.75172 0.0
C789 C 0.70943 0.33829 0.7437 0.0
C790 C 0.68828 0.34774 0.74843 0.0
H791 H 0.61274 0.34123 0.74525 0.0
H792 H 0.63851 0.35496 0.73819 0.0
H793 H 0.64032 0.32566 0.74616 0.0
H794 H 0.68246 0.31492 0.77851 0.0
H795 H 0.71954 0.29856 0.77038 0.0
H796 H 0.60231 0.0427 0.04516 0.0
H797 H 0.6272 0.07315 0.03395 0.0
H798 H 0.58063 0.12895 0.04806 0.0
H799 H 0.55601 0.09888 0.05943 0.0
H800 H 0.61415 0.10986 0.01296 0.0
H801 H 0.64657 0.14805 0.06308 0.0
H802 H 0.63351 0.11854 0.06191 0.0
H803 H 0.61544 0.14494 0.06232 0.0
C804 C 0.59746 0.06148 0.04589 0.0
C805 C 0.57723 0.06842 0.05319 0.0
C806 C 0.6116 0.07878 0.03944 0.0
C807 C 0.60583 0.10323 0.04035 0.0
C808 C 0.58547 0.11015 0.04739 0.0
H809 H 0.63339 0.23328 0.99835 0.0
H810 H 0.62078 0.19312 0.00527 0.0
C811 C 0.57132 0.09293 0.05377 0.0
C812 C 0.62098 0.12183 0.03406 0.0
H813 H 0.65144 0.17238 0.04256 0.0
C814 C 0.62266 0.12334 0.01939 0.0
C815 C 0.63237 0.13908 0.04251 0.0
C816 C 0.63212 0.13752 0.05834 0.0
C817 C 0.63431 0.14262 0.01292 0.0
C818 C 0.6442 0.16087 0.02139 0.0
C819 C 0.64371 0.15848 0.03607 0.0
C820 C 0.65326 0.18364 0.01543 0.0
C821 C 0.63557 0.14347 0.99711 0.0
C822 C 0.67572 0.19171 0.01886 0.0
C823 C 0.68292 0.21484 0.01504 0.0
C824 C 0.66769 0.23033 0.00782 0.0
C825 C 0.64556 0.22181 0.0039 0.0
C826 C 0.63838 0.19873 0.00774 0.0
H827 H 0.63462 0.12513 0.99252 0.0
H828 H 0.62055 0.15392 0.99302 0.0
H829 H 0.65188 0.15227 0.99348 0.0
H830 H 0.6874 0.18039 0.02488 0.0
H831 H 0.7001 0.22084 0.0182 0.0
H832 H 0.91283 0.0977 0.32208 0.0
H833 H 0.8861 0.12235 0.30816 0.0
H834 H 0.9079 0.08557 0.27052 0.0
H835 H 0.93451 0.06064 0.28442 0.0
H836 H 0.89268 0.15327 0.28541 0.0
H837 H 0.83773 0.07469 0.27079 0.0
H838 H 0.8598 0.07301 0.28424 0.0
H839 H 0.8679 0.07233 0.26601 0.0
C840 C 0.91212 0.09506 0.31082 0.0
C841 C 0.92557 0.0771 0.30435 0.0
C842 C 0.89683 0.10912 0.30288 0.0
C843 C 0.89476 0.1055 0.28835 0.0
C844 C 0.90887 0.08826 0.28177 0.0
H845 H 0.78694 0.16433 0.23309 0.0
H846 H 0.82424 0.14733 0.24069 0.0
C847 C 0.92404 0.07406 0.28971 0.0
C848 C 0.8771 0.11912 0.28029 0.0
H849 H 0.82632 0.11242 0.26205 0.0
C850 C 0.87826 0.14435 0.2802 0.0
C851 C 0.85834 0.10741 0.27348 0.0
C852 C 0.85565 0.08039 0.27369 0.0
C853 C 0.86088 0.15822 0.27371 0.0
C854 C 0.8418 0.14651 0.2673 0.0
C855 C 0.84108 0.1213 0.26693 0.0
C856 C 0.82122 0.15984 0.26212 0.0
C857 C 0.86293 0.18526 0.2739 0.0
C858 C 0.80737 0.17272 0.27163 0.0
C859 C 0.78605 0.18232 0.26736 0.0
C860 C 0.77816 0.17913 0.2535 0.0
C861 C 0.79255 0.16713 0.24383 0.0
C862 C 0.81385 0.1574 0.24814 0.0
H863 H 0.8813 0.1911 0.27531 0.0
H864 H 0.85604 0.19326 0.26404 0.0
H865 H 0.85263 0.19245 0.28282 0.0
H866 H 0.81253 0.1744 0.28253 0.0
H867 H 0.77539 0.19149 0.27506 0.0
H868 H 0.92264 0.43903 0.53444 0.0
H869 H 0.8931 0.41293 0.52364 0.0
H870 H 0.87245 0.388 0.56472 0.0
H871 H 0.90166 0.41406 0.57552 0.0
H872 H 0.89329 0.36224 0.52733 0.0
H873 H 0.80981 0.40182 0.545 0.0
H874 H 0.8368 0.41858 0.54476 0.0
H875 H 0.83058 0.39815 0.55895 0.0
C876 C 0.91146 0.42832 0.54114 0.0
C877 C 0.91448 0.42841 0.55579 0.0
C878 C 0.89466 0.41344 0.53498 0.0
C879 C 0.88041 0.39883 0.54341 0.0
C880 C 0.88296 0.3995 0.55805 0.0
H881 H 0.79657 0.27509 0.54451 0.0
H882 H 0.81583 0.31379 0.54798 0.0
C883 C 0.89982 0.41415 0.56419 0.0
C884 C 0.86467 0.38086 0.53703 0.0
H885 H 0.8087 0.36023 0.538 0.0
C886 C 0.87469 0.362 0.52936 0.0
C887 C 0.84048 0.38067 0.53978 0.0
C888 C 0.82872 0.40102 0.54746 0.0
C889 C 0.86144 0.34206 0.52518 0.0
C890 C 0.83738 0.34134 0.52847 0.0
C891 C 0.82714 0.36082 0.53551 0.0
C892 C 0.82322 0.31952 0.52593 0.0
C893 C 0.87362 0.3213 0.51808 0.0
C894 C 0.82029 0.31032 0.51233 0.0
C895 C 0.8095 0.28804 0.51032 0.0
C896 C 0.80119 0.27478 0.52188 0.0
C897 C 0.80288 0.28478 0.53539 0.0
C898 C 0.81383 0.30693 0.53739 0.0
H899 H 0.89289 0.32266 0.51895 0.0
H900 H 0.86803 0.30388 0.5227 0.0
H901 H 0.86906 0.3212 0.50676 0.0
H902 H 0.82696 0.32002 0.50332 0.0
H903 H 0.80821 0.28095 0.49976 0.0
H904 H 0.54646 0.09979 0.46558 0.0
H905 H 0.57432 0.12635 0.47745 0.0
H906 H 0.6283 0.07326 0.47201 0.0
H907 H 0.60091 0.04699 0.45981 0.0
H908 H 0.60342 0.11858 0.50178 0.0
H909 H 0.65416 0.1348 0.45312 0.0
H910 H 0.6252 0.12211 0.45295 0.0
H911 H 0.64993 0.10348 0.457 0.0
C912 C 0.56429 0.09382 0.46688 0.0
C913 C 0.57153 0.07135 0.46166 0.0
C914 C 0.5801 0.10892 0.47375 0.0
C915 C 0.60337 0.10185 0.47541 0.0
C916 C 0.61045 0.07914 0.47065 0.0
H917 H 0.71835 0.14638 0.52527 0.0
H918 H 0.68137 0.13015 0.51694 0.0
C919 C 0.59471 0.06406 0.4638 0.0
C920 C 0.62063 0.11837 0.48169 0.0
H921 H 0.67222 0.14619 0.47465 0.0
C922 C 0.61835 0.1249 0.49585 0.0
C923 C 0.63978 0.12695 0.47382 0.0
C924 C 0.64236 0.1217 0.45834 0.0
C925 C 0.63543 0.13891 0.50255 0.0
C926 C 0.65537 0.14616 0.49489 0.0
C927 C 0.65701 0.14052 0.48055 0.0
C928 C 0.67554 0.15824 0.50156 0.0
C929 C 0.63201 0.14568 0.51774 0.0
C930 C 0.68456 0.17951 0.49574 0.0
C931 C 0.70592 0.18862 0.50033 0.0
C932 C 0.71864 0.17661 0.51082 0.0
C933 C 0.70894 0.1561 0.51719 0.0
C934 C 0.68767 0.14688 0.51252 0.0
H935 H 0.61322 0.14612 0.52054 0.0
H936 H 0.64053 0.13201 0.52452 0.0
H937 H 0.6398 0.16351 0.5201 0.0
H938 H 0.67551 0.18853 0.48725 0.0
H939 H 0.71286 0.20455 0.49527 0.0
H940 H 0.88997 0.07526 0.68739 0.0
H941 H 0.86397 0.1047 0.6982 0.0
H942 H 0.89941 0.09564 0.7378 0.0
H943 H 0.92554 0.06607 0.72706 0.0
H944 H 0.83375 0.10251 0.72202 0.0
H945 H 0.90643 0.1678 0.72889 0.0
H946 H 0.90902 0.14147 0.71794 0.0
H947 H 0.91073 0.13871 0.73672 0.0
C948 C 0.892 0.07923 0.69846 0.0
C949 C 0.90991 0.0685 0.70635 0.0
C950 C 0.87716 0.09607 0.7046 0.0
C951 C 0.88001 0.10253 0.71873 0.0
C952 C 0.89723 0.09116 0.72681 0.0
H953 H 0.81981 0.22552 0.76202 0.0
H954 H 0.83834 0.18666 0.75776 0.0
C955 C 0.91215 0.07435 0.72066 0.0
C956 C 0.86578 0.12218 0.72468 0.0
H957 H 0.86934 0.17999 0.73639 0.0
C958 C 0.84149 0.11941 0.72527 0.0
C959 C 0.876 0.14416 0.7289 0.0
C960 C 0.90195 0.14841 0.72801 0.0
C961 C 0.82708 0.13822 0.72986 0.0
C962 C 0.83727 0.16041 0.73371 0.0
C963 C 0.8616 0.16291 0.73348 0.0
C964 C 0.8232 0.1819 0.73713 0.0
C965 C 0.80111 0.1342 0.73053 0.0
C966 C 0.80825 0.19191 0.72703 0.0
C967 C 0.7976 0.21412 0.72943 0.0
C968 C 0.80194 0.22681 0.74192 0.0
C969 C 0.81619 0.21626 0.75226 0.0
C970 C 0.82676 0.19404 0.74986 0.0
H971 H 0.79683 0.11478 0.73153 0.0
H972 H 0.79324 0.14402 0.73951 0.0
H973 H 0.79302 0.14092 0.72069 0.0
H974 H 0.80566 0.1831 0.71701 0.0
H975 H 0.78677 0.22177 0.72125 0.0
H976 H 0.89352 0.45242 0.95143 0.0
H977 H 0.86301 0.4295 0.96334 0.0
H978 H 0.91285 0.37439 0.97398 0.0
H979 H 0.94371 0.39752 0.96232 0.0
H980 H 0.84927 0.38132 0.95663 0.0
H981 H 0.87994 0.391 0.01183 0.0
H982 H 0.88971 0.41063 0.99788 0.0
H983 H 0.90094 0.3806 0.99919 0.0
C984 C 0.89808 0.4356 0.95647 0.0
C985 C 0.92104 0.42683 0.956 0.0
C986 C 0.88062 0.42246 0.96319 0.0
C987 C 0.88577 0.40041 0.96963 0.0
C988 C 0.90863 0.39154 0.96921 0.0
H989 H 0.77396 0.30203 0.9949 0.0
H990 H 0.81128 0.3171 0.98604 0.0
C991 C 0.92615 0.40466 0.96244 0.0
C992 C 0.86689 0.38648 0.97635 0.0
H993 H 0.84592 0.36801 0.00814 0.0
C994 C 0.84859 0.3782 0.96787 0.0
C995 C 0.86611 0.38263 0.99102 0.0
C996 C 0.8851 0.39178 0.00059 0.0
C997 C 0.82923 0.36652 0.97372 0.0
C998 C 0.82836 0.36279 0.9884 0.0
C999 C 0.84683 0.37073 0.99687 0.0
C1000 C 0.80746 0.35248 0.99519 0.0
C1001 C 0.80945 0.35912 0.9642 0.0
C1002 C 0.79349 0.36711 0.00371 0.0
C1003 C 0.77223 0.35859 0.0088 0.0
C1004 C 0.76462 0.33523 0.00549 0.0
C1005 C 0.77926 0.32017 0.99756 0.0
C1006 C 0.80053 0.32874 0.99246 0.0
H1007 H 0.811 0.36722 0.95356 0.0
H1008 H 0.80948 0.33926 0.96304 0.0
H1009 H 0.79243 0.36448 0.96878 0.0
H1010 H 0.79861 0.38547 0.00595 0.0
H1011 H 0.76146 0.37059 0.01496 0.0
H1012 H 0.54671 0.39893 0.21521 0.0
H1013 H 0.57 0.36847 0.22708 0.0
H1014 H 0.62695 0.41862 0.23083 0.0
H1015 H 0.60344 0.4497 0.21929 0.0
H1016 H 0.63791 0.37257 0.21832 0.0
H1017 H 0.59083 0.36289 0.26882 0.0
H1018 H 0.57208 0.3628 0.2537 0.0
H1019 H 0.58849 0.3894 0.25789 0.0
C1020 C 0.56394 0.40379 0.21886 0.0
C1021 C 0.57313 0.42686 0.21634 0.0
C1022 C 0.57725 0.3863 0.22563 0.0
C1023 C 0.60003 0.39144 0.22999 0.0
C1024 C 0.60931 0.41442 0.22761 0.0
H1025 H 0.69879 0.27718 0.25471 0.0
H1026 H 0.68334 0.31774 0.25074 0.0
C1027 C 0.59591 0.43206 0.22092 0.0
C1028 C 0.61454 0.37202 0.23598 0.0
H1029 H 0.61514 0.32979 0.26198 0.0
C1030 C 0.63334 0.36346 0.22802 0.0
C1031 C 0.60842 0.3603 0.24862 0.0
C1032 C 0.58898 0.36943 0.25784 0.0
C1033 C 0.64519 0.34239 0.23187 0.0
C1034 C 0.6383 0.32995 0.24417 0.0
C1035 C 0.62033 0.33932 0.25253 0.0
C1036 C 0.64776 0.30593 0.24771 0.0
C1037 C 0.66396 0.33281 0.22228 0.0
C1038 C 0.63274 0.28603 0.24781 0.0
C1039 C 0.64142 0.26297 0.25018 0.0
C1040 C 0.66535 0.25933 0.25249 0.0
C1041 C 0.6803 0.27939 0.25283 0.0
C1042 C 0.67154 0.30254 0.25051 0.0
H1043 H 0.66407 0.34209 0.21194 0.0
H1044 H 0.68123 0.33556 0.22726 0.0
H1045 H 0.66161 0.31323 0.22049 0.0
H1046 H 0.61431 0.28829 0.2457 0.0
H1047 H 0.62941 0.24795 0.24991 0.0
H1048 H 0.03664 0.89599 0.39188 0.0
H1049 H 0.05661 0.87146 0.40955 0.0
H1050 H 0.11819 0.91528 0.40501 0.0
H1051 H 0.09824 0.94003 0.38746 0.0
H1052 H 0.09702 0.84453 0.40897 0.0
H1053 H 0.105 0.91989 0.44684 0.0
H1054 H 0.08677 0.92159 0.43143 0.0
H1055 H 0.11771 0.92621 0.43002 0.0
C1056 C 0.05453 0.90021 0.39454 0.0
C1057 C 0.06582 0.92005 0.38839 0.0
C1058 C 0.06588 0.88625 0.40466 0.0
C1059 C 0.0887 0.89187 0.4088 0.0
C1060 C 0.10036 0.91103 0.40224 0.0
H1061 H 0.18532 0.83416 0.46988 0.0
H1062 H 0.16667 0.85455 0.45009 0.0
C1063 C 0.08898 0.9251 0.3922 0.0
C1064 C 0.10013 0.878 0.42019 0.0
H1065 H 0.12496 0.88384 0.4526 0.0
C1066 C 0.10306 0.85309 0.41853 0.0
C1067 C 0.10785 0.88921 0.4327 0.0
C1068 C 0.10399 0.91565 0.43545 0.0
C1069 C 0.11396 0.83916 0.42896 0.0
C1070 C 0.12192 0.85045 0.44135 0.0
C1071 C 0.11892 0.87531 0.44303 0.0
C1072 C 0.1334 0.83687 0.45278 0.0
C1073 C 0.11726 0.81256 0.42657 0.0
C1074 C 0.1208 0.82021 0.46084 0.0
C1075 C 0.13136 0.80858 0.47222 0.0
C1076 C 0.1547 0.81346 0.47571 0.0
C1077 C 0.16733 0.82994 0.46746 0.0
C1078 C 0.15673 0.84162 0.45615 0.0
H1079 H 0.11439 0.80751 0.41541 0.0
H1080 H 0.13507 0.80691 0.42972 0.0
H1081 H 0.10462 0.80244 0.43313 0.0
H1082 H 0.10266 0.81658 0.45851 0.0
H1083 H 0.12115 0.79602 0.47837 0.0
H1084 H 0.09453 0.59046 0.61837 0.0
H1085 H 0.11487 0.61501 0.63593 0.0
H1086 H 0.08865 0.56909 0.66887 0.0
H1087 H 0.06777 0.54507 0.65157 0.0
H1088 H 0.08265 0.61847 0.67395 0.0
H1089 H 0.17384 0.59694 0.65844 0.0
H1090 H 0.15493 0.6079 0.64479 0.0
H1091 H 0.1493 0.57915 0.65269 0.0
C1092 C 0.09309 0.58565 0.62936 0.0
C1093 C 0.07968 0.56569 0.63356 0.0
C1094 C 0.10489 0.59954 0.63935 0.0
C1095 C 0.10348 0.59366 0.65367 0.0
C1096 C 0.09008 0.57383 0.65786 0.0
H1097 H 0.15172 0.6307 0.73496 0.0
H1098 H 0.1337 0.61466 0.71373 0.0
C1099 C 0.07832 0.55999 0.64793 0.0
C1100 C 0.11528 0.60837 0.66449 0.0
H1101 H 0.16877 0.6228 0.67779 0.0
C1102 C 0.10148 0.61959 0.67472 0.0
C1103 C 0.13984 0.6099 0.6654 0.0
C1104 C 0.15545 0.59773 0.65483 0.0
C1105 C 0.11157 0.63176 0.68608 0.0
C1106 C 0.13609 0.63245 0.68731 0.0
C1107 C 0.14995 0.62214 0.67678 0.0
C1108 C 0.14751 0.64222 0.7 0.0
C1109 C 0.09592 0.64351 0.6968 0.0
C1110 C 0.16168 0.66274 0.69922 0.0
C1111 C 0.17204 0.67202 0.71138 0.0
C1112 C 0.16855 0.66073 0.72445 0.0
C1113 C 0.1547 0.6399 0.72509 0.0
C1114 C 0.1443 0.63074 0.71298 0.0
H1115 H 0.07822 0.64692 0.6925 0.0
H1116 H 0.09412 0.63143 0.70602 0.0
H1117 H 0.10342 0.66082 0.70047 0.0
H1118 H 0.16445 0.67172 0.68926 0.0
H1119 H 0.18269 0.68804 0.71053 0.0
H1120 H 0.44905 0.5658 0.90564 0.0
H1121 H 0.42524 0.59011 0.92147 0.0
H1122 H 0.38147 0.61116 0.88676 0.0
H1123 H 0.40539 0.58708 0.87077 0.0
H1124 H 0.41581 0.64045 0.91972 0.0
H1125 H 0.33525 0.585 0.91646 0.0
H1126 H 0.36332 0.57398 0.91084 0.0
H1127 H 0.34739 0.59466 0.89998 0.0
C1128 C 0.43448 0.57575 0.90133 0.0
C1129 C 0.42911 0.5745 0.88694 0.0
C1130 C 0.42084 0.58952 0.91041 0.0
C1131 C 0.40148 0.60218 0.9053 0.0
C1132 C 0.39611 0.60115 0.89094 0.0
H1133 H 0.29884 0.68858 0.95057 0.0
H1134 H 0.32143 0.66882 0.93206 0.0
C1135 C 0.40977 0.58737 0.88183 0.0
C1136 C 0.3872 0.6167 0.91505 0.0
H1137 H 0.33338 0.62028 0.93015 0.0
C1138 C 0.39776 0.63611 0.92198 0.0
C1139 C 0.36366 0.61102 0.9179 0.0
C1140 C 0.35169 0.58993 0.91101 0.0
C1141 C 0.38541 0.64997 0.93177 0.0
C1142 C 0.36204 0.64393 0.93489 0.0
C1143 C 0.35131 0.62484 0.92773 0.0
C1144 C 0.34873 0.65651 0.94599 0.0
C1145 C 0.39746 0.67104 0.93862 0.0
C1146 C 0.3565 0.65591 0.95996 0.0
C1147 C 0.3437 0.66718 0.97053 0.0
C1148 C 0.32275 0.67912 0.96736 0.0
C1149 C 0.31494 0.67961 0.95336 0.0
C1150 C 0.32779 0.66832 0.94277 0.0
H1151 H 0.41244 0.67748 0.93224 0.0
H1152 H 0.38521 0.68624 0.94024 0.0
H1153 H 0.40426 0.66541 0.94903 0.0
H1154 H 0.37234 0.64642 0.96271 0.0
H1155 H 0.35014 0.66631 0.98122 0.0
H1156 H 0.40267 0.91631 0.12572 0.0
H1157 H 0.3773 0.89733 0.14323 0.0
H1158 H 0.42829 0.9116 0.17544 0.0
H1159 H 0.45367 0.93061 0.15806 0.0
H1160 H 0.41097 0.86494 0.17623 0.0
H1161 H 0.33943 0.93213 0.17354 0.0
H1162 H 0.34733 0.91889 0.15701 0.0
H1163 H 0.36789 0.9376 0.16612 0.0
C1164 C 0.40838 0.91556 0.13656 0.0
C1165 C 0.43016 0.92499 0.14052 0.0
C1166 C 0.39387 0.90473 0.14654 0.0
C1167 C 0.40081 0.90335 0.16065 0.0
C1168 C 0.42262 0.9125 0.16459 0.0
H1169 H 0.3224 0.87698 0.23617 0.0
H1170 H 0.34447 0.89368 0.21648 0.0
C1171 C 0.43714 0.92325 0.15464 0.0
C1172 C 0.38555 0.89217 0.17137 0.0
H1173 H 0.33316 0.8981 0.188 0.0
C1174 C 0.39392 0.87212 0.17878 0.0
C1175 C 0.36343 0.90177 0.17476 0.0
C1176 C 0.35399 0.92391 0.16755 0.0
C1177 C 0.3808 0.86143 0.18955 0.0
C1178 C 0.35855 0.87082 0.19281 0.0
C1179 C 0.35014 0.89084 0.18537 0.0
C1180 C 0.34421 0.86079 0.20435 0.0
C1181 C 0.39118 0.84064 0.19761 0.0
C1182 C 0.33637 0.8369 0.20391 0.0
C1183 C 0.32381 0.82726 0.21517 0.0
C1184 C 0.31876 0.84142 0.22703 0.0
C1185 C 0.32606 0.86556 0.22723 0.0
C1186 C 0.33865 0.87515 0.21598 0.0
H1187 H 0.41031 0.8393 0.19604 0.0
H1188 H 0.38763 0.84241 0.20903 0.0
H1189 H 0.38317 0.8236 0.19393 0.0
H1190 H 0.3401 0.82566 0.19491 0.0
H1191 H 0.31829 0.80865 0.21464 0.0
H1192 H 0.09561 0.59286 0.89376 0.0
H1193 H 0.11689 0.61927 0.87754 0.0
H1194 H 0.09431 0.57583 0.84261 0.0
H1195 H 0.0727 0.54971 0.85864 0.0
H1196 H 0.15289 0.60621 0.85742 0.0
H1197 H 0.0744 0.64549 0.83222 0.0
H1198 H 0.07336 0.6301 0.84893 0.0
H1199 H 0.07463 0.61319 0.83287 0.0
C1200 C 0.0951 0.58904 0.88261 0.0
C1201 C 0.08245 0.56923 0.87747 0.0
C1202 C 0.10734 0.60405 0.87339 0.0
C1203 C 0.10688 0.59963 0.8589 0.0
C1204 C 0.09459 0.5797 0.85376 0.0
H1205 H 0.16145 0.65618 0.78222 0.0
H1206 H 0.1419 0.63452 0.80116 0.0
C1207 C 0.08246 0.56465 0.86295 0.0
C1208 C 0.11931 0.61571 0.84903 0.0
H1209 H 0.11068 0.65264 0.82087 0.0
C1210 C 0.14372 0.61661 0.84951 0.0
C1211 C 0.10721 0.62923 0.83879 0.0
C1212 C 0.08094 0.6297 0.8382 0.0
C1213 C 0.15645 0.62991 0.83958 0.0
C1214 C 0.14434 0.64295 0.82909 0.0
C1215 C 0.1199 0.64255 0.82889 0.0
C1216 C 0.15663 0.65619 0.8178 0.0
C1217 C 0.18272 0.62912 0.84003 0.0
C1218 C 0.17128 0.6757 0.82089 0.0
C1219 C 0.18258 0.68813 0.81006 0.0
C1220 C 0.17927 0.68134 0.79597 0.0
C1221 C 0.16442 0.66189 0.79295 0.0
C1222 C 0.1532 0.64948 0.80376 0.0
H1223 H 0.18922 0.61418 0.84673 0.0
H1224 H 0.19004 0.62702 0.82931 0.0
H1225 H 0.18937 0.64627 0.84444 0.0
H1226 H 0.1738 0.68145 0.83164 0.0
H1227 H 0.1938 0.70311 0.81273 0.0
H1228 H 0.40448 0.5413 0.12551 0.0
H1229 H 0.38057 0.56053 0.10743 0.0
H1230 H 0.42402 0.62371 0.10924 0.0
H1231 H 0.44778 0.60488 0.12755 0.0
H1232 H 0.3562 0.60732 0.10777 0.0
H1233 H 0.42587 0.60006 0.06735 0.0
H1234 H 0.4261 0.58252 0.08333 0.0
H1235 H 0.43418 0.61371 0.08372 0.0
C1236 C 0.40874 0.55945 0.12226 0.0
C1237 C 0.42815 0.5715 0.12793 0.0
C1238 C 0.39512 0.57034 0.11188 0.0
C1239 C 0.40073 0.59338 0.10693 0.0
C1240 C 0.41964 0.60576 0.11282 0.0
H1241 H 0.32284 0.68722 0.05087 0.0
H1242 H 0.34266 0.66937 0.07113 0.0
C1243 C 0.43323 0.59493 0.12323 0.0
C1244 C 0.38728 0.6041 0.09526 0.0
H1245 H 0.39153 0.62059 0.06081 0.0
C1246 C 0.36387 0.61028 0.0975 0.0
C1247 C 0.39735 0.60763 0.08186 0.0
C1248 C 0.4222 0.6005 0.0788 0.0
C1249 C 0.35029 0.6202 0.08667 0.0
C1250 C 0.36049 0.62408 0.07334 0.0
C1251 C 0.38383 0.61768 0.07108 0.0
C1252 C 0.34723 0.63449 0.06147 0.0
C1253 C 0.32507 0.6261 0.08946 0.0
C1254 C 0.34338 0.6208 0.04933 0.0
C1255 C 0.3321 0.63091 0.03774 0.0
C1256 C 0.32467 0.65501 0.03805 0.0
C1257 C 0.32832 0.6686 0.05031 0.0
C1258 C 0.33953 0.65842 0.06192 0.0
H1259 H 0.31863 0.61747 0.09925 0.0
H1260 H 0.32314 0.64586 0.09059 0.0
H1261 H 0.31394 0.62025 0.08055 0.0
H1262 H 0.3493 0.60232 0.04878 0.0
H1263 H 0.32959 0.61996 0.02847 0.0
H1264 H 0.45973 0.89735 0.36925 0.0
H1265 H 0.43862 0.87351 0.35179 0.0
H1266 H 0.37788 0.91804 0.3576 0.0
H1267 H 0.39889 0.94202 0.37504 0.0
H1268 H 0.39742 0.84726 0.3537 0.0
H1269 H 0.38894 0.92203 0.31533 0.0
H1270 H 0.40826 0.92351 0.33026 0.0
H1271 H 0.37757 0.92884 0.33243 0.0
C1272 C 0.4418 0.90192 0.36691 0.0
C1273 C 0.43101 0.92166 0.37344 0.0
C1274 C 0.42981 0.88835 0.35689 0.0
C1275 C 0.40685 0.8943 0.35322 0.0
C1276 C 0.39578 0.91353 0.36004 0.0
H1277 H 0.30656 0.83772 0.29393 0.0
H1278 H 0.32646 0.85865 0.31305 0.0
C1279 C 0.40779 0.92717 0.37 0.0
C1280 C 0.39455 0.88049 0.34219 0.0
H1281 H 0.36829 0.88616 0.31017 0.0
C1282 C 0.39111 0.85571 0.34416 0.0
C1283 C 0.38643 0.8916 0.32973 0.0
C1284 C 0.39065 0.91791 0.32671 0.0
C1285 C 0.37936 0.8418 0.3341 0.0
C1286 C 0.37112 0.85297 0.32171 0.0
C1287 C 0.37458 0.87772 0.31973 0.0
C1288 C 0.3589 0.83934 0.31059 0.0
C1289 C 0.37548 0.81539 0.33689 0.0
C1290 C 0.37063 0.82161 0.30287 0.0
C1291 C 0.35934 0.80963 0.2919 0.0
C1292 C 0.33613 0.81525 0.28846 0.0
C1293 C 0.32441 0.83291 0.29632 0.0
C1294 C 0.33574 0.84491 0.30724 0.0
H1295 H 0.37816 0.81077 0.34813 0.0
H1296 H 0.35759 0.80994 0.33377 0.0
H1297 H 0.388 0.80474 0.33056 0.0
H1298 H 0.38865 0.81735 0.30516 0.0
H1299 H 0.36888 0.79618 0.28603 0.0
H1300 H 0.09318 0.95471 0.62562 0.0
H1301 H 0.11682 0.93526 0.60751 0.0
H1302 H 0.07626 0.87039 0.61194 0.0
H1303 H 0.05257 0.88966 0.63011 0.0
H1304 H 0.14359 0.89192 0.60699 0.0
H1305 H 0.06829 0.88971 0.57029 0.0
H1306 H 0.06831 0.90751 0.58613 0.0
H1307 H 0.06321 0.87565 0.58702 0.0
C1308 C 0.08958 0.93615 0.62294 0.0
C1309 C 0.07087 0.92378 0.62919 0.0
C1310 C 0.10304 0.92511 0.61256 0.0
C1311 C 0.09799 0.90157 0.60824 0.0
C1312 C 0.08011 0.88875 0.61495 0.0
H1313 H 0.17823 0.81147 0.55122 0.0
H1314 H 0.15954 0.82901 0.5719 0.0
C1315 C 0.0666 0.89978 0.6253 0.0
C1316 C 0.11062 0.89092 0.59622 0.0
H1317 H 0.10288 0.87072 0.56271 0.0
C1318 C 0.13474 0.88724 0.5973 0.0
C1319 C 0.09902 0.8852 0.58355 0.0
C1320 C 0.07332 0.88989 0.58156 0.0
C1321 C 0.14757 0.8777 0.58605 0.0
C1322 C 0.13585 0.87149 0.57349 0.0
C1323 C 0.11177 0.87537 0.57239 0.0
C1324 C 0.14819 0.86132 0.56121 0.0
C1325 C 0.17358 0.87483 0.58757 0.0
C1326 C 0.14772 0.87352 0.5483 0.0
C1327 C 0.15821 0.86349 0.53645 0.0
C1328 C 0.1693 0.84099 0.53726 0.0
C1329 C 0.16991 0.82888 0.55025 0.0
C1330 C 0.15937 0.83893 0.5621 0.0
H1331 H 0.18057 0.88577 0.59638 0.0
H1332 H 0.17766 0.85567 0.58974 0.0
H1333 H 0.18268 0.8801 0.57774 0.0
H1334 H 0.13907 0.89078 0.54739 0.0
H1335 H 0.15742 0.8733 0.52662 0.0
H1336 H 0.60134 0.44861 0.88718 0.0
H1337 H 0.62297 0.42373 0.90379 0.0
H1338 H 0.5711 0.36793 0.90005 0.0
H1339 H 0.54861 0.39327 0.88409 0.0
H1340 H 0.58089 0.37637 0.92671 0.0
H1341 H 0.66374 0.36615 0.89767 0.0
H1342 H 0.6561 0.39716 0.89997 0.0
H1343 H 0.63772 0.37791 0.88955 0.0
C1344 C 0.59446 0.43108 0.88991 0.0
C1345 C 0.57316 0.42301 0.88429 0.0
C1346 C 0.60707 0.41669 0.89924 0.0
C1347 C 0.59889 0.39377 0.90297 0.0
C1348 C 0.57785 0.38549 0.89723 0.0
H1349 H 0.68167 0.29344 0.95321 0.0
H1350 H 0.65999 0.31282 0.93416 0.0
C1351 C 0.5651 0.39994 0.88799 0.0
C1352 C 0.61141 0.37916 0.91362 0.0
H1353 H 0.66481 0.3565 0.92226 0.0
C1354 C 0.59919 0.37181 0.92566 0.0
C1355 C 0.63518 0.37288 0.91216 0.0
C1356 C 0.64887 0.37871 0.89907 0.0
C1357 C 0.61023 0.359 0.93647 0.0
C1358 C 0.63434 0.35401 0.9354 0.0
C1359 C 0.6464 0.36065 0.92316 0.0
C1360 C 0.64741 0.34224 0.94695 0.0
C1361 C 0.59587 0.35078 0.94886 0.0
C1362 C 0.64782 0.35253 0.9604 0.0
C1363 C 0.65998 0.3414 0.97132 0.0
C1364 C 0.67231 0.31994 0.96894 0.0
C1365 C 0.6723 0.30993 0.95539 0.0
C1366 C 0.65994 0.32098 0.94449 0.0
H1367 H 0.57714 0.34917 0.94606 0.0
H1368 H 0.60201 0.33315 0.95291 0.0
H1369 H 0.59735 0.36422 0.95742 0.0
H1370 H 0.63883 0.36928 0.96245 0.0
H1371 H 0.65985 0.34972 0.9816 0.0
H1372 H 0.6038 0.07497 0.12094 0.0
H1373 H 0.62721 0.09684 0.13832 0.0
H1374 H 0.60253 0.04927 0.17089 0.0
H1375 H 0.57884 0.02766 0.15372 0.0
H1376 H 0.59846 0.10004 0.17664 0.0
H1377 H 0.68733 0.07319 0.15927 0.0
H1378 H 0.66789 0.08446 0.14597 0.0
H1379 H 0.66156 0.05642 0.15449 0.0
C1380 C 0.60343 0.06916 0.1318 0.0
C1381 C 0.58957 0.04951 0.13595 0.0
C1382 C 0.61693 0.08154 0.14168 0.0
C1383 C 0.61673 0.07447 0.15583 0.0
C1384 C 0.60301 0.05485 0.15998 0.0
H1385 H 0.69804 0.11027 0.22874 0.0
H1386 H 0.67948 0.09122 0.20845 0.0
C1387 C 0.58962 0.04244 0.15014 0.0
C1388 C 0.62992 0.08809 0.16654 0.0
H1389 H 0.68488 0.10053 0.1782 0.0
C1390 C 0.61735 0.10028 0.17696 0.0
C1391 C 0.65454 0.08815 0.16692 0.0
C1392 C 0.66874 0.07475 0.15615 0.0
C1393 C 0.62876 0.11247 0.18785 0.0
C1394 C 0.65339 0.11261 0.18823 0.0
C1395 C 0.666 0.10049 0.17779 0.0
C1396 C 0.66621 0.12448 0.19977 0.0
C1397 C 0.61441 0.12458 0.19908 0.0
C1398 C 0.66529 0.14952 0.2014 0.0
C1399 C 0.67586 0.16047 0.21297 0.0
C1400 C 0.68753 0.14652 0.22311 0.0
C1401 C 0.68908 0.1215 0.22117 0.0
C1402 C 0.67856 0.11059 0.20957 0.0
H1403 H 0.59585 0.1189 0.19874 0.0
H1404 H 0.6215 0.12051 0.20968 0.0
H1405 H 0.6151 0.14435 0.19755 0.0
H1406 H 0.65605 0.16055 0.19384 0.0
H1407 H 0.67444 0.1798 0.2141 0.0
H1408 H 0.9076 0.09088 0.37501 0.0
H1409 H 0.88532 0.11454 0.39209 0.0
H1410 H 0.92915 0.08802 0.42548 0.0
H1411 H 0.95103 0.06389 0.40861 0.0
H1412 H 0.88124 0.08564 0.43135 0.0
H1413 H 0.90766 0.1762 0.41222 0.0
H1414 H 0.89561 0.15639 0.39918 0.0
H1415 H 0.92295 0.1491 0.40731 0.0
C1416 C 0.9124 0.09002 0.386 0.0
C1417 C 0.93118 0.07564 0.39045 0.0
C1418 C 0.89981 0.10371 0.39571 0.0
C1419 C 0.90583 0.10326 0.41 0.0
C1420 C 0.92436 0.08873 0.41447 0.0
H1421 H 0.87035 0.19493 0.47962 0.0
H1422 H 0.88899 0.17338 0.46025 0.0
C1423 C 0.93694 0.0751 0.40481 0.0
C1424 C 0.89261 0.11747 0.42043 0.0
H1425 H 0.88022 0.17488 0.43073 0.0
C1426 C 0.88091 0.10515 0.43119 0.0
C1427 C 0.89246 0.14291 0.42024 0.0
C1428 C 0.90548 0.15703 0.4092 0.0
C1429 C 0.86911 0.11758 0.44184 0.0
C1430 C 0.86875 0.14302 0.44158 0.0
C1431 C 0.88041 0.15537 0.43081 0.0
C1432 C 0.85711 0.15707 0.45275 0.0
C1433 C 0.85768 0.10343 0.45349 0.0
C1434 C 0.83296 0.15539 0.45473 0.0
C1435 C 0.82226 0.16763 0.4658 0.0
C1436 C 0.83553 0.18185 0.47503 0.0
C1437 C 0.85964 0.18406 0.47274 0.0
C1438 C 0.87032 0.1718 0.46166 0.0
H1439 H 0.86389 0.08451 0.45383 0.0
H1440 H 0.86108 0.11189 0.46385 0.0
H1441 H 0.83855 0.10316 0.45179 0.0
H1442 H 0.82243 0.1444 0.44781 0.0
H1443 H 0.80363 0.16566 0.46721 0.0
H1444 H 0.94457 0.40128 0.63754 0.0
H1445 H 0.91982 0.38239 0.65532 0.0
H1446 H 0.87583 0.44521 0.65594 0.0
H1447 H 0.90072 0.46448 0.63836 0.0
H1448 H 0.91094 0.40221 0.68257 0.0
H1449 H 0.82976 0.38767 0.65186 0.0
H1450 H 0.85772 0.39271 0.64364 0.0
H1451 H 0.84183 0.4175 0.65099 0.0
C1452 C 0.92964 0.41111 0.64146 0.0
C1453 C 0.92468 0.43444 0.63656 0.0
C1454 C 0.91545 0.40022 0.65154 0.0
C1455 C 0.89591 0.41233 0.65682 0.0
C1456 C 0.89061 0.43541 0.6518 0.0
H1457 H 0.82262 0.38488 0.73485 0.0
H1458 H 0.84315 0.40307 0.71496 0.0
C1459 C 0.90485 0.44637 0.64174 0.0
C1460 C 0.88196 0.40139 0.66822 0.0
H1461 H 0.82778 0.38012 0.67638 0.0
C1462 C 0.89277 0.39734 0.68123 0.0
C1463 C 0.85833 0.39493 0.66636 0.0
C1464 C 0.84618 0.39821 0.65244 0.0
C1465 C 0.88047 0.38725 0.69251 0.0
C1466 C 0.85672 0.38126 0.69075 0.0
C1467 C 0.84596 0.38497 0.67769 0.0
C1468 C 0.84297 0.37073 0.70236 0.0
C1469 C 0.89302 0.3828 0.70621 0.0
C1470 C 0.83562 0.34671 0.70166 0.0
C1471 C 0.82394 0.33623 0.71301 0.0
C1472 C 0.81926 0.34969 0.72519 0.0
C1473 C 0.82601 0.374 0.72564 0.0
C1474 C 0.8378 0.38441 0.71432 0.0
H1475 H 0.91224 0.38402 0.705 0.0
H1476 H 0.88748 0.39647 0.71401 0.0
H1477 H 0.88854 0.36478 0.71047 0.0
H1478 H 0.83943 0.33592 0.69248 0.0
H1479 H 0.81887 0.3175 0.7123 0.0
H1480 H 0.54762 0.10709 0.37922 0.0
H1481 H 0.57076 0.13051 0.36246 0.0
H1482 H 0.61896 0.07144 0.35844 0.0
H1483 H 0.59596 0.04793 0.37517 0.0
H1484 H 0.64088 0.1161 0.36066 0.0
H1485 H 0.57119 0.11721 0.32017 0.0
H1486 H 0.56254 0.12886 0.33696 0.0
H1487 H 0.57022 0.09765 0.33529 0.0
C1488 C 0.56313 0.0991 0.37474 0.0
C1489 C 0.56989 0.07561 0.37844 0.0
C1490 C 0.57631 0.11248 0.36518 0.0
C1491 C 0.59633 0.10254 0.35905 0.0
C1492 C 0.60352 0.07941 0.36304 0.0
H1493 H 0.66552 0.14522 0.28256 0.0
H1494 H 0.64422 0.12477 0.3013 0.0
C1495 C 0.59042 0.06604 0.37264 0.0
C1496 C 0.60956 0.11597 0.34822 0.0
H1497 H 0.60497 0.14017 0.31537 0.0
C1498 C 0.63306 0.12142 0.35076 0.0
C1499 C 0.59935 0.12256 0.33525 0.0
C1500 C 0.5745 0.11611 0.33165 0.0
C1501 C 0.64664 0.13341 0.34068 0.0
C1502 C 0.63628 0.14045 0.32783 0.0
C1503 C 0.6128 0.13492 0.32528 0.0
C1504 C 0.64964 0.15288 0.31666 0.0
C1505 C 0.67208 0.1379 0.34372 0.0
C1506 C 0.65959 0.17557 0.31906 0.0
C1507 C 0.67186 0.1873 0.30836 0.0
C1508 C 0.67422 0.17661 0.29506 0.0
C1509 C 0.66406 0.15395 0.29268 0.0
C1510 C 0.65187 0.14223 0.30338 0.0
H1511 H 0.67859 0.12627 0.35237 0.0
H1512 H 0.68288 0.13466 0.33423 0.0
H1513 H 0.67445 0.15692 0.34692 0.0
H1514 H 0.65766 0.18432 0.32915 0.0
H1515 H 0.67935 0.2048 0.31051 0.0
H1516 H 0.90293 0.08358 0.63813 0.0
H1517 H 0.88024 0.10548 0.62045 0.0
H1518 H 0.90219 0.05503 0.58877 0.0
H1519 H 0.92537 0.03344 0.60618 0.0
H1520 H 0.89843 0.12579 0.59396 0.0
H1521 H 0.82929 0.05716 0.58608 0.0
H1522 H 0.84743 0.05799 0.60159 0.0
H1523 H 0.85866 0.04597 0.58545 0.0
C1524 C 0.90304 0.07721 0.62739 0.0
C1525 C 0.91589 0.05664 0.62361 0.0
C1526 C 0.88997 0.08967 0.61734 0.0
C1527 C 0.88933 0.08163 0.60339 0.0
C1528 C 0.90213 0.06121 0.59956 0.0
H1529 H 0.83055 0.12194 0.524 0.0
H1530 H 0.84934 0.10276 0.54413 0.0
C1531 C 0.9153 0.04885 0.60955 0.0
C1532 C 0.87591 0.09494 0.59264 0.0
H1533 H 0.8309 0.08907 0.56949 0.0
C1534 C 0.8835 0.11795 0.58869 0.0
C1535 C 0.85654 0.08451 0.5858 0.0
C1536 C 0.8473 0.06012 0.58999 0.0
C1537 C 0.87272 0.13051 0.57766 0.0
C1538 C 0.85352 0.11993 0.57066 0.0
C1539 C 0.84564 0.09712 0.57485 0.0
C1540 C 0.84191 0.13178 0.55858 0.0
C1541 C 0.88257 0.15454 0.57324 0.0
C1542 C 0.83123 0.15434 0.56008 0.0
C1543 C 0.8206 0.16544 0.54855 0.0
C1544 C 0.82022 0.15403 0.53537 0.0
C1545 C 0.83055 0.13123 0.53399 0.0
C1546 C 0.84128 0.12023 0.54549 0.0
H1547 H 0.90058 0.15722 0.57724 0.0
H1548 H 0.88278 0.1563 0.56163 0.0
H1549 H 0.87151 0.16912 0.57756 0.0
H1550 H 0.83104 0.16332 0.57016 0.0
H1551 H 0.81263 0.18292 0.54999 0.0
H1552 H 0.91158 0.41319 0.88631 0.0
H1553 H 0.88929 0.39121 0.86851 0.0
H1554 H 0.94431 0.40285 0.83845 0.0
H1555 H 0.96639 0.42541 0.85594 0.0
H1556 H 0.87609 0.41031 0.84025 0.0
H1557 H 0.93117 0.32815 0.83853 0.0
H1558 H 0.93099 0.34842 0.85335 0.0
H1559 H 0.94652 0.35633 0.83765 0.0
C1560 C 0.91889 0.41121 0.87589 0.0
C1561 C 0.94086 0.42098 0.8726 0.0
C1562 C 0.90619 0.39853 0.86578 0.0
C1563 C 0.91534 0.3952 0.85227 0.0
C1564 C 0.93718 0.4049 0.84892 0.0
H1565 H 0.87624 0.33022 0.77393 0.0
H1566 H 0.89559 0.34918 0.79393 0.0
C1567 C 0.94981 0.41769 0.85896 0.0
C1568 C 0.90183 0.38228 0.84143 0.0
H1569 H 0.90275 0.33241 0.82061 0.0
C1570 C 0.88171 0.39316 0.83602 0.0
C1571 C 0.9094 0.36002 0.83595 0.0
C1572 C 0.9306 0.34736 0.84171 0.0
C1573 C 0.86931 0.38271 0.82488 0.0
C1574 C 0.877 0.3605 0.81927 0.0
C1575 C 0.89691 0.34943 0.8249 0.0
C1576 C 0.86508 0.3488 0.80728 0.0
C1577 C 0.84867 0.39601 0.81886 0.0
C1578 C 0.84159 0.342 0.80823 0.0
C1579 C 0.83042 0.33132 0.79677 0.0
C1580 C 0.84265 0.32696 0.78423 0.0
C1581 C 0.86631 0.33334 0.78343 0.0
C1582 C 0.87741 0.34417 0.79485 0.0
H1583 H 0.84882 0.41534 0.82181 0.0
H1584 H 0.84831 0.39466 0.80722 0.0
H1585 H 0.83237 0.38795 0.82301 0.0
H1586 H 0.8319 0.34488 0.81784 0.0
H1587 H 0.81223 0.32642 0.79777 0.0
H1588 H 0.59174 0.41033 0.1471 0.0
H1589 H 0.61302 0.38585 0.12995 0.0
H1590 H 0.5926 0.43466 0.09693 0.0
H1591 H 0.57123 0.459 0.11387 0.0
H1592 H 0.59518 0.36282 0.10635 0.0
H1593 H 0.66292 0.42881 0.09113 0.0
H1594 H 0.64541 0.43212 0.10677 0.0
H1595 H 0.634 0.44089 0.08992 0.0
C1596 C 0.59183 0.41585 0.13619 0.0
C1597 C 0.57995 0.43673 0.13187 0.0
C1598 C 0.60407 0.40192 0.12643 0.0
C1599 C 0.60473 0.40871 0.11223 0.0
C1600 C 0.59284 0.42947 0.1079 0.0
H1601 H 0.62255 0.32949 0.0364 0.0
H1602 H 0.609 0.34956 0.05767 0.0
C1603 C 0.58064 0.44337 0.11762 0.0
C1604 C 0.61674 0.39354 0.10171 0.0
H1605 H 0.65686 0.39581 0.0753 0.0
C1606 C 0.60889 0.36989 0.09968 0.0
C1607 C 0.63486 0.40269 0.09318 0.0
C1608 C 0.64497 0.42744 0.09544 0.0
C1609 C 0.61792 0.35553 0.08886 0.0
C1610 C 0.63493 0.36526 0.07973 0.0
C1611 C 0.6436 0.38848 0.08221 0.0
C1612 C 0.64319 0.35214 0.06714 0.0
C1613 C 0.60902 0.33014 0.08726 0.0
C1614 C 0.66699 0.34741 0.06527 0.0
C1615 C 0.67485 0.33611 0.05304 0.0
C1616 C 0.65902 0.32948 0.04244 0.0
C1617 C 0.63519 0.33423 0.04438 0.0
C1618 C 0.62737 0.34554 0.05659 0.0
H1619 H 0.60192 0.3231 0.09732 0.0
H1620 H 0.59473 0.32993 0.07941 0.0
H1621 H 0.623 0.31787 0.08358 0.0
H1622 H 0.6795 0.35254 0.07325 0.0
H1623 H 0.69333 0.33275 0.05186 0.0
loop_
_geom_bond_atom_site_label_1
_geom_bond_atom_site_label_2
_geom_bond_distance
_geom_bond_site_symmetry_2
_ccdc_geom_bond_type
C0 C1 1.384 . S
C0 C2 1.384 . S
C0 H28 0.931 . S
C1 C0 1.384 . S
C1 C4 1.382 . S
C2 C0 1.384 . S
C2 C3 1.381 . S
C2 H29 0.930 . S
C3 C2 1.381 . S
C3 C5 1.381 . S
C3 C6 1.487 . S
C4 C1 1.382 . S
C4 C5 1.387 . S
C4 H30 0.930 . S
C5 C3 1.381 . S
C5 C4 1.387 . S
C5 H31 0.931 1_565 S
C6 C3 1.487 . S
C6 C13 1.399 . S
C6 N44 1.343 1_565 S
C7 C8 1.384 . S
C7 C9 1.384 . S
C7 H32 0.931 . S
C8 C7 1.384 . S
C8 C11 1.382 . S
C9 C7 1.384 . S
C9 C10 1.381 . S
C9 H33 0.930 . S
C10 C9 1.381 . S
C10 C12 1.381 . S
C10 C13 1.487 . S
C11 C8 1.382 . S
C11 C12 1.387 . S
C11 H34 0.930 . S
C12 C10 1.381 . S
C12 C11 1.387 . S
C12 H35 0.931 . S
C13 C6 1.399 . S
C13 C10 1.487 . S
C13 N45 1.343 1_455 S
C14 C15 1.384 . S
C14 C16 1.384 . S
C14 H36 0.931 . S
C15 C14 1.384 . S
C15 C18 1.382 . S
C16 C14 1.384 . S
C16 C17 1.381 . S
C16 H37 0.930 . S
C17 C16 1.381 . S
C17 C19 1.381 . S
C17 C20 1.487 . S
C18 C15 1.382 . S
C18 C19 1.387 . S
C18 H38 0.930 . S
C19 C17 1.381 . S
C19 C18 1.387 . S
C19 H39 0.931 1_545 S
C20 C17 1.487 . S
C20 C27 1.399 . S
C20 N45 1.343 1_545 S
C21 C22 1.384 . S
C21 C23 1.384 . S
C21 H40 0.931 . S
C22 C21 1.384 . S
C22 C25 1.382 . S
C23 C21 1.384 . S
C23 C24 1.381 . S
C23 H41 0.930 . S
C24 C23 1.381 . S
C24 C26 1.381 . S
C24 C27 1.487 . S
C25 C22 1.382 . S
C25 C26 1.387 . S
C25 H42 0.930 . S
C26 C24 1.381 . S
C26 C25 1.387 . S
C26 H43 0.931 . S
C27 C20 1.399 . S
C27 C24 1.487 . S
C27 N44 1.343 1_655 S
H28 C0 0.931 . S
H29 C2 0.930 . S
H30 C4 0.930 . S
H31 C5 0.931 1_545 S
H32 C7 0.931 . S
H33 C9 0.930 . S
H34 C11 0.930 . S
H35 C12 0.931 . S
H36 C14 0.931 . S
H37 C16 0.930 . S
H38 C18 0.930 . S
H39 C19 0.931 1_565 S
H40 C21 0.931 . S
H41 C23 0.930 . S
H42 C25 0.930 . S
H43 C26 0.931 . S
N44 C6 1.343 1_545 S
N44 C27 1.343 1_455 S
N45 C13 1.343 1_655 S
N45 C20 1.343 1_565 S
C46 C47 1.384 . S
C46 C48 1.384 . S
C46 H74 0.931 . S
C47 C46 1.384 . S
C47 C50 1.382 . S
C48 C46 1.384 . S
C48 C49 1.381 . S
C48 H75 0.930 . S
C49 C48 1.381 . S
C49 C51 1.381 . S
C49 C52 1.487 . S
C50 C47 1.382 . S
C50 C51 1.387 . S
C50 H76 0.930 . S
C51 C49 1.381 . S
C51 C50 1.387 . S
C51 H77 0.931 1_655 S
C52 C49 1.487 . S
C52 C59 1.399 . S
C52 N90 1.343 1_655 S
C53 C54 1.384 . S
C53 C55 1.384 . S
C53 H78 0.931 . S
C54 C53 1.384 . S
C54 C57 1.382 . S
C55 C53 1.384 . S
C55 C56 1.381 . S
C55 H79 0.930 . S
C56 C55 1.381 . S
C56 C58 1.381 . S
C56 C59 1.487 . S
C57 C54 1.382 . S
C57 C58 1.387 . S
C57 H80 0.930 . S
C58 C56 1.381 . S
C58 C57 1.387 . S
C58 H81 0.931 . S
C59 C52 1.399 . S
C59 C56 1.487 . S
C59 N91 1.343 . S
C60 C61 1.384 . S
C60 C62 1.384 . S
C60 H82 0.931 . S
C61 C60 1.384 . S
C61 C64 1.382 . S
C62 C60 1.384 . S
C62 C63 1.381 . S
C62 H83 0.930 . S
C63 C62 1.381 . S
C63 C65 1.381 . S
C63 C66 1.487 . S
C64 C61 1.382 . S
C64 C65 1.387 . S
C64 H84 0.930 . S
C65 C63 1.381 . S
C65 C64 1.387 . S
C65 H85 0.931 1_455 S
C66 C63 1.487 . S
C66 C73 1.399 . S
C66 N91 1.343 1_455 S
C67 C68 1.384 . S
C67 C69 1.384 . S
C67 H86 0.931 . S
C68 C67 1.384 . S
C68 C71 1.382 . S
C69 C67 1.384 . S
C69 C70 1.381 . S
C69 H87 0.930 . S
C70 C69 1.381 . S
C70 C72 1.381 . S
C70 C73 1.487 . S
C71 C68 1.382 . S
C71 C72 1.387 . S
C71 H88 0.930 . S
C72 C70 1.381 . S
C72 C71 1.387 . S
C72 H89 0.931 . S
C73 C66 1.399 . S
C73 C70 1.487 . S
C73 N90 1.343 . S
H74 C46 0.931 . S
H75 C48 0.930 . S
H76 C50 0.930 . S
H77 C51 0.931 1_455 S
H78 C53 0.931 . S
H79 C55 0.930 . S
H80 C57 0.930 . S
H81 C58 0.931 . S
H82 C60 0.931 . S
H83 C62 0.930 . S
H84 C64 0.930 . S
H85 C65 0.931 1_655 S
H86 C67 0.931 . S
H87 C69 0.930 . S
H88 C71 0.930 . S
H89 C72 0.931 . S
N90 C52 1.343 1_455 S
N90 C73 1.343 . S
N91 C59 1.343 . S
N91 C66 1.343 1_655 S
C92 C93 1.384 . S
C92 C94 1.384 . S
C92 H120 0.931 . S
C93 C92 1.384 . S
C93 C96 1.382 . S
C94 C92 1.384 . S
C94 C95 1.381 . S
C94 H121 0.930 . S
C95 C94 1.381 . S
C95 C97 1.381 . S
C95 C98 1.487 . S
C96 C93 1.382 . S
C96 C97 1.387 . S
C96 H122 0.930 . S
C97 C95 1.381 . S
C97 C96 1.387 . S
C97 H123 0.931 . S
C98 C95 1.487 . S
C98 C105 1.399 . S
C98 N136 1.343 . S
C99 C100 1.384 . S
C99 C101 1.384 . S
C99 H124 0.931 . S
C100 C99 1.384 . S
C100 C103 1.382 . S
C101 C99 1.384 . S
C101 C102 1.381 . S
C101 H125 0.930 . S
C102 C101 1.381 . S
C102 C104 1.381 . S
C102 C105 1.487 . S
C103 C100 1.382 . S
C103 C104 1.387 . S
C103 H126 0.930 . S
C104 C102 1.381 . S
C104 C103 1.387 . S
C104 H127 0.931 . S
C105 C98 1.399 . S
C105 C102 1.487 . S
C105 N137 1.343 . S
C106 C107 1.384 . S
C106 C108 1.384 . S
C106 H128 0.931 . S
C107 C106 1.384 . S
C107 C110 1.382 . S
C108 C106 1.384 . S
C108 C109 1.381 . S
C108 H129 0.930 . S
C109 C108 1.381 . S
C109 C111 1.381 . S
C109 C112 1.487 . S
C110 C107 1.382 . S
C110 C111 1.387 . S
C110 H130 0.930 . S
C111 C109 1.381 . S
C111 C110 1.387 . S
C111 H131 0.931 . S
C112 C109 1.487 . S
C112 C119 1.399 . S
C112 N137 1.343 . S
C113 C114 1.384 . S
C113 C115 1.384 . S
C113 H132 0.931 . S
C114 C113 1.384 . S
C114 C117 1.382 . S
C115 C113 1.384 . S
C115 C116 1.381 . S
C115 H133 0.930 . S
C116 C115 1.381 . S
C116 C118 1.381 . S
C116 C119 1.487 . S
C117 C114 1.382 . S
C117 C118 1.387 . S
C117 H134 0.930 . S
C118 C116 1.381 . S
C118 C117 1.387 . S
C118 H135 0.931 . S
C119 C112 1.399 . S
C119 C116 1.487 . S
C119 N136 1.343 . S
H120 C92 0.931 . S
H121 C94 0.930 . S
H122 C96 0.930 . S
H123 C97 0.931 . S
H124 C99 0.931 . S
H125 C101 0.930 . S
H126 C103 0.930 . S
H127 C104 0.931 . S
H128 C106 0.931 . S
H129 C108 0.930 . S
H130 C110 0.930 . S
H131 C111 0.931 . S
H132 C113 0.931 . S
H133 C115 0.930 . S
H134 C117 0.930 . S
H135 C118 0.931 . S
N136 C98 1.343 . S
N136 C119 1.343 . S
N137 C105 1.343 . S
N137 C112 1.343 . S
C138 C139 1.384 . S
C138 C140 1.384 . S
C138 H166 0.931 . S
C139 C138 1.384 . S
C139 C142 1.382 . S
C140 C138 1.384 . S
C140 C141 1.381 . S
C140 H167 0.930 . S
C141 C140 1.381 . S
C141 C143 1.381 . S
C141 C144 1.487 . S
C142 C139 1.382 . S
C142 C143 1.387 . S
C142 H168 0.930 . S
C143 C141 1.381 . S
C143 C142 1.387 . S
C143 H169 0.931 . S
C144 C141 1.487 . S
C144 C151 1.399 . S
C144 N182 1.343 1_565 S
C145 C146 1.384 . S
C145 C147 1.384 . S
C145 H170 0.931 . S
C146 C145 1.384 . S
C146 C149 1.382 . S
C147 C145 1.384 . S
C147 C148 1.381 . S
C147 H171 0.930 . S
C148 C147 1.381 . S
C148 C150 1.381 . S
C148 C151 1.487 . S
C149 C146 1.382 . S
C149 C150 1.387 . S
C149 H172 0.930 . S
C150 C148 1.381 . S
C150 C149 1.387 . S
C150 H173 0.931 . S
C151 C144 1.399 . S
C151 C148 1.487 . S
C151 N183 1.343 . S
C152 C153 1.384 . S
C152 C154 1.384 . S
C152 H174 0.931 . S
C153 C152 1.384 . S
C153 C156 1.382 . S
C154 C152 1.384 . S
C154 C155 1.381 . S
C154 H175 0.930 . S
C155 C154 1.381 . S
C155 C157 1.381 . S
C155 C158 1.487 . S
C156 C153 1.382 . S
C156 C157 1.387 . S
C156 H176 0.930 . S
C157 C155 1.381 . S
C157 C156 1.387 . S
C157 H177 0.931 . S
C158 C155 1.487 . S
C158 C165 1.399 . S
C158 N183 1.343 1_545 S
C159 C160 1.384 . S
C159 C161 1.384 . S
C159 H178 0.931 . S
C160 C159 1.384 . S
C160 C163 1.382 . S
C161 C159 1.384 . S
C161 C162 1.381 . S
C161 H179 0.930 . S
C162 C161 1.381 . S
C162 C164 1.381 . S
C162 C165 1.487 . S
C163 C160 1.382 . S
C163 C164 1.387 . S
C163 H180 0.930 . S
C164 C162 1.381 . S
C164 C163 1.387 . S
C164 H181 0.931 . S
C165 C158 1.399 . S
C165 C162 1.487 . S
C165 N182 1.343 . S
H166 C138 0.931 . S
H167 C140 0.930 . S
H168 C142 0.930 . S
H169 C143 0.931 . S
H170 C145 0.931 . S
H171 C147 0.930 . S
H172 C149 0.930 . S
H173 C150 0.931 . S
H174 C152 0.931 . S
H175 C154 0.930 . S
H176 C156 0.930 . S
H177 C157 0.931 . S
H178 C159 0.931 . S
H179 C161 0.930 . S
H180 C163 0.930 . S
H181 C164 0.931 . S
N182 C144 1.343 1_545 S
N182 C165 1.343 . S
N183 C151 1.343 . S
N183 C158 1.343 1_565 S
C184 C185 1.384 . S
C184 C186 1.384 . S
C184 H212 0.931 . S
C185 C184 1.384 . S
C185 C188 1.382 . S
C186 C184 1.384 . S
C186 C187 1.381 . S
C186 H213 0.930 . S
C187 C186 1.381 . S
C187 C189 1.381 . S
C187 C190 1.487 . S
C188 C185 1.382 . S
C188 C189 1.387 . S
C188 H214 0.930 . S
C189 C187 1.381 . S
C189 C188 1.387 . S
C189 H215 0.931 . S
C190 C187 1.487 . S
C190 C197 1.399 . S
C190 N228 1.343 . S
C191 C192 1.384 . S
C191 C193 1.384 . S
C191 H216 0.931 . S
C192 C191 1.384 . S
C192 C195 1.382 . S
C193 C191 1.384 . S
C193 C194 1.381 . S
C193 H217 0.930 . S
C194 C193 1.381 . S
C194 C196 1.381 . S
C194 C197 1.487 . S
C195 C192 1.382 . S
C195 C196 1.387 . S
C195 H218 0.930 . S
C196 C194 1.381 . S
C196 C195 1.387 . S
C196 H219 0.931 . S
C197 C190 1.399 . S
C197 C194 1.487 . S
C197 N229 1.343 1_455 S
C198 C199 1.384 . S
C198 C200 1.384 . S
C198 H220 0.931 . S
C199 C198 1.384 . S
C199 C202 1.382 . S
C200 C198 1.384 . S
C200 C201 1.381 . S
C200 H221 0.930 . S
C201 C200 1.381 . S
C201 C203 1.381 . S
C201 C204 1.487 . S
C202 C199 1.382 . S
C202 C203 1.387 . S
C202 H222 0.930 . S
C203 C201 1.381 . S
C203 C202 1.387 . S
C203 H223 0.931 . S
C204 C201 1.487 . S
C204 C211 1.399 . S
C204 N229 1.343 . S
C205 C206 1.384 . S
C205 C207 1.384 . S
C205 H224 0.931 . S
C206 C205 1.384 . S
C206 C209 1.382 . S
C207 C205 1.384 . S
C207 C208 1.381 . S
C207 H225 0.930 . S
C208 C207 1.381 . S
C208 C210 1.381 . S
C208 C211 1.487 . S
C209 C206 1.382 . S
C209 C210 1.387 . S
C209 H226 0.930 . S
C210 C208 1.381 . S
C210 C209 1.387 . S
C210 H227 0.931 . S
C211 C204 1.399 . S
C211 C208 1.487 . S
C211 N228 1.343 1_655 S
H212 C184 0.931 . S
H213 C186 0.930 . S
H214 C188 0.930 . S
H215 C189 0.931 . S
H216 C191 0.931 . S
H217 C193 0.930 . S
H218 C195 0.930 . S
H219 C196 0.931 . S
H220 C198 0.931 . S
H221 C200 0.930 . S
H222 C202 0.930 . S
H223 C203 0.931 . S
H224 C205 0.931 . S
H225 C207 0.930 . S
H226 C209 0.930 . S
H227 C210 0.931 . S
N228 C190 1.343 . S
N228 C211 1.343 1_455 S
N229 C197 1.343 1_655 S
N229 C204 1.343 . S
C230 C231 1.384 . S
C230 C232 1.384 . S
C230 H258 0.931 . S
C231 C230 1.384 . S
C231 C234 1.382 . S
C232 C230 1.384 . S
C232 C233 1.381 . S
C232 H259 0.930 . S
C233 C232 1.381 . S
C233 C235 1.381 . S
C233 C236 1.487 . S
C234 C231 1.382 . S
C234 C235 1.387 . S
C234 H260 0.930 . S
C235 C233 1.381 . S
C235 C234 1.387 . S
C235 H261 0.931 . S
C236 C233 1.487 . S
C236 C243 1.399 . S
C236 N274 1.343 . S
C237 C238 1.384 . S
C237 C239 1.384 . S
C237 H262 0.931 . S
C238 C237 1.384 . S
C238 C241 1.382 . S
C239 C237 1.384 . S
C239 C240 1.381 . S
C239 H263 0.930 . S
C240 C239 1.381 . S
C240 C242 1.381 . S
C240 C243 1.487 . S
C241 C238 1.382 . S
C241 C242 1.387 . S
C241 H264 0.930 . S
C242 C240 1.381 . S
C242 C241 1.387 . S
C242 H265 0.931 . S
C243 C236 1.399 . S
C243 C240 1.487 . S
C243 N275 1.343 . S
C244 C245 1.384 . S
C244 C246 1.384 . S
C244 H266 0.931 . S
C245 C244 1.384 . S
C245 C248 1.382 . S
C246 C244 1.384 . S
C246 C247 1.381 . S
C246 H267 0.930 . S
C247 C246 1.381 . S
C247 C249 1.381 . S
C247 C250 1.487 . S
C248 C245 1.382 . S
C248 C249 1.387 . S
C248 H268 0.930 . S
C249 C247 1.381 . S
C249 C248 1.387 . S
C249 H269 0.931 . S
C250 C247 1.487 . S
C250 C257 1.399 . S
C250 N275 1.343 . S
C251 C252 1.384 . S
C251 C253 1.384 . S
C251 H270 0.931 . S
C252 C251 1.384 . S
C252 C255 1.382 . S
C253 C251 1.384 . S
C253 C254 1.381 . S
C253 H271 0.930 . S
C254 C253 1.381 . S
C254 C256 1.381 . S
C254 C257 1.487 . S
C255 C252 1.382 . S
C255 C256 1.387 . S
C255 H272 0.930 . S
C256 C254 1.381 . S
C256 C255 1.387 . S
C256 H273 0.931 . S
C257 C250 1.399 . S
C257 C254 1.487 . S
C257 N274 1.343 . S
H258 C230 0.931 . S
H259 C232 0.930 . S
H260 C234 0.930 . S
H261 C235 0.931 . S
H262 C237 0.931 . S
H263 C239 0.930 . S
H264 C241 0.930 . S
H265 C242 0.931 . S
H266 C244 0.931 . S
H267 C246 0.930 . S
H268 C248 0.930 . S
H269 C249 0.931 . S
H270 C251 0.931 . S
H271 C253 0.930 . S
H272 C255 0.930 . S
H273 C256 0.931 . S
N274 C236 1.343 . S
N274 C257 1.343 . S
N275 C243 1.343 . S
N275 C250 1.343 . S
C276 C277 1.384 . S
C276 C278 1.384 . S
C276 H304 0.931 . S
C277 C276 1.384 . S
C277 C280 1.382 . S
C278 C276 1.384 . S
C278 C279 1.381 . S
C278 H305 0.930 . S
C279 C278 1.381 . S
C279 C281 1.381 . S
C279 C282 1.487 . S
C280 C277 1.382 . S
C280 C281 1.387 . S
C280 H306 0.930 . S
C281 C279 1.381 . S
C281 C280 1.387 . S
C281 H307 0.931 1_565 S
C282 C279 1.487 . S
C282 C289 1.399 . S
C282 N320 1.343 1_565 S
C283 C284 1.384 . S
C283 C285 1.384 . S
C283 H308 0.931 . S
C284 C283 1.384 . S
C284 C287 1.382 . S
C285 C283 1.384 . S
C285 C286 1.381 . S
C285 H309 0.930 . S
C286 C285 1.381 . S
C286 C288 1.381 . S
C286 C289 1.487 . S
C287 C284 1.382 . S
C287 C288 1.387 . S
C287 H310 0.930 . S
C288 C286 1.381 . S
C288 C287 1.387 . S
C288 H311 0.931 . S
C289 C282 1.399 . S
C289 C286 1.487 . S
C289 N321 1.343 . S
C290 C291 1.384 . S
C290 C292 1.384 . S
C290 H312 0.931 . S
C291 C290 1.384 . S
C291 C294 1.382 . S
C292 C290 1.384 . S
C292 C293 1.381 . S
C292 H313 0.930 . S
C293 C292 1.381 . S
C293 C295 1.381 . S
C293 C296 1.487 . S
C294 C291 1.382 . S
C294 C295 1.387 . S
C294 H314 0.930 . S
C295 C293 1.381 . S
C295 C294 1.387 . S
C295 H315 0.931 1_545 S
C296 C293 1.487 . S
C296 C303 1.399 . S
C296 N321 1.343 1_545 S
C297 C298 1.384 . S
C297 C299 1.384 . S
C297 H316 0.931 . S
C298 C297 1.384 . S
C298 C301 1.382 . S
C299 C297 1.384 . S
C299 C300 1.381 . S
C299 H317 0.930 . S
C300 C299 1.381 . S
C300 C302 1.381 . S
C300 C303 1.487 . S
C301 C298 1.382 . S
C301 C302 1.387 . S
C301 H318 0.930 . S
C302 C300 1.381 . S
C302 C301 1.387 . S
C302 H319 0.931 . S
C303 C296 1.399 . S
C303 C300 1.487 . S
C303 N320 1.343 . S
H304 C276 0.931 . S
H305 C278 0.930 . S
H306 C280 0.930 . S
H307 C281 0.931 1_545 S
H308 C283 0.931 . S
H309 C285 0.930 . S
H310 C287 0.930 . S
H311 C288 0.931 . S
H312 C290 0.931 . S
H313 C292 0.930 . S
H314 C294 0.930 . S
H315 C295 0.931 1_565 S
H316 C297 0.931 . S
H317 C299 0.930 . S
H318 C301 0.930 . S
H319 C302 0.931 . S
N320 C282 1.343 1_545 S
N320 C303 1.343 . S
N321 C289 1.343 . S
N321 C296 1.343 1_565 S
C322 C323 1.384 . S
C322 C324 1.384 . S
C322 H350 0.931 . S
C323 C322 1.384 . S
C323 C326 1.382 . S
C324 C322 1.384 . S
C324 C325 1.381 . S
C324 H351 0.930 . S
C325 C324 1.381 . S
C325 C327 1.381 . S
C325 C328 1.487 . S
C326 C323 1.382 . S
C326 C327 1.387 . S
C326 H352 0.930 . S
C327 C325 1.381 . S
C327 C326 1.387 . S
C327 H353 0.931 1_455 S
C328 C325 1.487 . S
C328 C335 1.399 . S
C328 N366 1.343 1_455 S
C329 C330 1.384 . S
C329 C331 1.384 . S
C329 H354 0.931 . S
C330 C329 1.384 . S
C330 C333 1.382 . S
C331 C329 1.384 . S
C331 C332 1.381 . S
C331 H355 0.930 . S
C332 C331 1.381 . S
C332 C334 1.381 . S
C332 C335 1.487 . S
C333 C330 1.382 . S
C333 C334 1.387 . S
C333 H356 0.930 . S
C334 C332 1.381 . S
C334 C333 1.387 . S
C334 H357 0.931 . S
C335 C328 1.399 . S
C335 C332 1.487 . S
C335 N367 1.343 1_565 S
C336 C337 1.384 . S
C336 C338 1.384 . S
C336 H358 0.931 . S
C337 C336 1.384 . S
C337 C340 1.382 . S
C338 C336 1.384 . S
C338 C339 1.381 . S
C338 H359 0.930 . S
C339 C338 1.381 . S
C339 C341 1.381 . S
C339 C342 1.487 . S
C340 C337 1.382 . S
C340 C341 1.387 . S
C340 H360 0.930 . S
C341 C339 1.381 . S
C341 C340 1.387 . S
C341 H361 0.931 1_655 S
C342 C339 1.487 . S
C342 C349 1.399 . S
C342 N367 1.343 1_655 S
C343 C344 1.384 . S
C343 C345 1.384 . S
C343 H362 0.931 . S
C344 C343 1.384 . S
C344 C347 1.382 . S
C345 C343 1.384 . S
C345 C346 1.381 . S
C345 H363 0.930 . S
C346 C345 1.381 . S
C346 C348 1.381 . S
C346 C349 1.487 . S
C347 C344 1.382 . S
C347 C348 1.387 . S
C347 H364 0.930 . S
C348 C346 1.381 . S
C348 C347 1.387 . S
C348 H365 0.931 . S
C349 C342 1.399 . S
C349 C346 1.487 . S
C349 N366 1.343 1_545 S
H350 C322 0.931 . S
H351 C324 0.930 . S
H352 C326 0.930 . S
H353 C327 0.931 1_655 S
H354 C329 0.931 . S
H355 C331 0.930 . S
H356 C333 0.930 . S
H357 C334 0.931 . S
H358 C336 0.931 . S
H359 C338 0.930 . S
H360 C340 0.930 . S
H361 C341 0.931 1_455 S
H362 C343 0.931 . S
H363 C345 0.930 . S
H364 C347 0.930 . S
H365 C348 0.931 . S
N366 C328 1.343 1_655 S
N366 C349 1.343 1_565 S
N367 C335 1.343 1_545 S
N367 C342 1.343 1_455 S
C368 O369 1.160 . S
C368 O375 1.185 . S
O369 C368 1.160 . S
O370 Zn371 1.899 . S
O370 C378 1.284 . S
Zn371 O370 1.899 . S
Zn371 O372 2.032 1_554 S
Zn371 O375 2.086 . S
Zn371 O380 1.977 . S
O372 Zn371 2.032 1_556 S
O372 C376 1.278 . S
C373 O374 1.203 . S
C373 O380 1.267 . S
O374 C373 1.203 . S
O375 C368 1.185 . S
O375 Zn371 2.086 . S
C376 O372 1.278 . S
C376 O377 1.211 . S
O377 C376 1.211 . S
C378 O370 1.284 . S
C378 O379 1.273 . S
O379 C378 1.273 . S
O380 Zn371 1.977 . S
O380 C373 1.267 . S
C381 O382 1.160 . S
C381 O388 1.185 . S
O382 C381 1.160 . S
O383 Zn384 1.899 . S
O383 C391 1.284 . S
Zn384 O383 1.899 . S
Zn384 O385 2.032 . S
Zn384 O388 2.086 . S
Zn384 O393 1.977 . S
O385 Zn384 2.032 . S
O385 C389 1.278 . S
C386 O387 1.203 . S
C386 O393 1.267 . S
O387 C386 1.203 . S
O388 C381 1.185 . S
O388 Zn384 2.086 . S
C389 O385 1.278 . S
C389 O390 1.211 . S
O390 C389 1.211 . S
C391 O383 1.284 . S
C391 O392 1.273 . S
O392 C391 1.273 . S
O393 Zn384 1.977 . S
O393 C386 1.267 . S
C394 O395 1.160 . S
C394 O401 1.185 . S
O395 C394 1.160 . S
O396 Zn397 1.899 . S
O396 C404 1.284 . S
Zn397 O396 1.899 . S
Zn397 O398 2.032 . S
Zn397 O401 2.086 . S
Zn397 O406 1.977 . S
O398 Zn397 2.032 . S
O398 C402 1.278 . S
C399 O400 1.203 . S
C399 O406 1.267 . S
O400 C399 1.203 . S
O401 C394 1.185 . S
O401 Zn397 2.086 . S
C402 O398 1.278 . S
C402 O403 1.211 . S
O403 C402 1.211 . S
C404 O396 1.284 . S
C404 O405 1.273 . S
O405 C404 1.273 . S
O406 Zn397 1.977 . S
O406 C399 1.267 . S
C407 O408 1.160 . S
C407 O414 1.185 . S
O408 C407 1.160 . S
O409 Zn410 1.899 . S
O409 C417 1.284 . S
Zn410 O409 1.899 . S
Zn410 O411 2.032 . S
Zn410 O414 2.086 . S
Zn410 O419 1.977 . S
O411 Zn410 2.032 . S
O411 C415 1.278 . S
C412 O413 1.203 . S
C412 O419 1.267 . S
O413 C412 1.203 . S
O414 C407 1.185 . S
O414 Zn410 2.086 . S
C415 O411 1.278 . S
C415 O416 1.211 . S
O416 C415 1.211 . S
C417 O409 1.284 . S
C417 O418 1.273 . S
O418 C417 1.273 . S
O419 Zn410 1.977 . S
O419 C412 1.267 . S
C420 O421 1.160 . S
C420 O427 1.185 . S
O421 C420 1.160 . S
O422 Zn423 1.899 . S
O422 C430 1.284 . S
Zn423 O422 1.899 . S
Zn423 O424 2.032 . S
Zn423 O427 2.086 . S
Zn423 O432 1.977 . S
O424 Zn423 2.032 . S
O424 C428 1.278 . S
C425 O426 1.203 . S
C425 O432 1.267 . S
O426 C425 1.203 . S
O427 C420 1.185 . S
O427 Zn423 2.086 . S
C428 O424 1.278 . S
C428 O429 1.211 . S
O429 C428 1.211 . S
C430 O422 1.284 . S
C430 O431 1.273 . S
O431 C430 1.273 . S
O432 Zn423 1.977 . S
O432 C425 1.267 . S
C433 O434 1.160 . S
C433 O440 1.185 . S
O434 C433 1.160 . S
O435 Zn436 1.899 . S
O435 C443 1.284 . S
Zn436 O435 1.899 . S
Zn436 O437 2.032 . S
Zn436 O440 2.086 . S
Zn436 O445 1.977 . S
O437 Zn436 2.032 . S
O437 C441 1.278 . S
C438 O439 1.203 . S
C438 O445 1.267 . S
O439 C438 1.203 . S
O440 C433 1.185 . S
O440 Zn436 2.086 . S
C441 O437 1.278 . S
C441 O442 1.211 . S
O442 C441 1.211 . S
C443 O435 1.284 . S
C443 O444 1.273 . S
O444 C443 1.273 . S
O445 Zn436 1.977 . S
O445 C438 1.267 . S
C446 O447 1.160 . S
C446 O453 1.185 . S
O447 C446 1.160 . S
O448 Zn449 1.899 . S
O448 C456 1.284 . S
Zn449 O448 1.899 . S
Zn449 O450 2.032 1_554 S
Zn449 O453 2.086 . S
Zn449 O458 1.977 . S
O450 Zn449 2.032 1_556 S
O450 C454 1.278 . S
C451 O452 1.203 . S
C451 O458 1.267 . S
O452 C451 1.203 . S
O453 C446 1.185 . S
O453 Zn449 2.086 . S
C454 O450 1.278 . S
C454 O455 1.211 . S
O455 C454 1.211 . S
C456 O448 1.284 . S
C456 O457 1.273 . S
O457 C456 1.273 . S
O458 Zn449 1.977 . S
O458 C451 1.267 . S
C459 O460 1.160 . S
C459 O466 1.185 . S
O460 C459 1.160 . S
O461 Zn462 1.899 . S
O461 C469 1.284 . S
Zn462 O461 1.899 . S
Zn462 O463 2.032 . S
Zn462 O466 2.086 . S
Zn462 O471 1.977 . S
O463 Zn462 2.032 . S
O463 C467 1.278 . S
C464 O465 1.203 . S
C464 O471 1.267 . S
O465 C464 1.203 . S
O466 C459 1.185 . S
O466 Zn462 2.086 . S
C467 O463 1.278 . S
C467 O468 1.211 . S
O468 C467 1.211 . S
C469 O461 1.284 . S
C469 O470 1.273 . S
O470 C469 1.273 . S
O471 Zn462 1.977 . S
O471 C464 1.267 . S
H472 C480 0.929 . S
H473 C482 0.930 . S
H474 C484 0.930 . S
H475 C487 0.929 . S
H476 C490 0.930 . S
H477 C492 0.960 . S
H478 C492 0.960 . S
H479 C492 0.960 . S
C480 H472 0.929 . S
C480 C481 1.377 . S
C480 C482 1.384 . S
C481 C480 1.377 . S
C481 C487 1.390 . S
C482 H473 0.930 . S
C482 C480 1.384 . S
C482 C483 1.372 . S
C483 C482 1.372 . S
C483 C484 1.400 . S
C483 C488 1.490 . S
C484 H474 0.930 . S
C484 C483 1.400 . S
C484 C487 1.386 . S
H485 C501 0.930 . S
H486 C502 0.931 . S
C487 H475 0.929 . S
C487 C481 1.390 . S
C487 C484 1.386 . S
C488 C483 1.490 . S
C488 C490 1.395 . S
C488 C491 1.403 . S
H489 C495 0.930 . S
C490 H476 0.930 . S
C490 C488 1.395 . S
C490 C493 1.403 . S
C491 C488 1.403 . S
C491 C492 1.524 . S
C491 C495 1.400 . S
C492 H477 0.960 . S
C492 H478 0.960 . S
C492 H479 0.960 . S
C492 C491 1.524 . S
C493 C490 1.403 . S
C493 C494 1.392 . S
C493 C497 1.495 . S
C494 C493 1.392 . S
C494 C495 1.385 . S
C494 C496 1.478 . S
C495 H489 0.930 . S
C495 C491 1.400 . S
C495 C494 1.385 . S
C496 C494 1.478 . S
C496 C498 1.381 . S
C496 C502 1.383 . S
C497 C493 1.495 . S
C497 H503 0.959 . S
C497 H504 0.961 . S
C497 H505 0.960 . S
C498 C496 1.381 . S
C498 C499 1.394 . S
C498 H506 0.930 . S
C499 C498 1.394 . S
C499 C500 1.383 . S
C499 H507 0.929 . S
C500 C499 1.383 . S
C500 C501 1.377 . S
C501 H485 0.930 . S
C501 C500 1.377 . S
C501 C502 1.379 . S
C502 H486 0.931 . S
C502 C496 1.383 . S
C502 C501 1.379 . S
H503 C497 0.959 . S
H504 C497 0.961 . S
H505 C497 0.960 . S
H506 C498 0.930 . S
H507 C499 0.929 . S
H508 C516 0.929 . S
H509 C518 0.930 . S
H510 C520 0.930 . S
H511 C523 0.929 . S
H512 C526 0.930 . S
H513 C528 0.960 . S
H514 C528 0.960 . S
H515 C528 0.960 . S
C516 H508 0.929 . S
C516 C517 1.377 . S
C516 C518 1.384 . S
C517 C516 1.377 . S
C517 C523 1.390 . S
C518 H509 0.930 . S
C518 C516 1.384 . S
C518 C519 1.372 . S
C519 C518 1.372 . S
C519 C520 1.400 . S
C519 C524 1.490 . S
C520 H510 0.930 . S
C520 C519 1.400 . S
C520 C523 1.386 . S
H521 C537 0.930 . S
H522 C538 0.931 . S
C523 H511 0.929 . S
C523 C517 1.390 . S
C523 C520 1.386 . S
C524 C519 1.490 . S
C524 C526 1.395 . S
C524 C527 1.403 . S
H525 C531 0.930 . S
C526 H512 0.930 . S
C526 C524 1.395 . S
C526 C529 1.403 . S
C527 C524 1.403 . S
C527 C528 1.524 . S
C527 C531 1.400 . S
C528 H513 0.960 . S
C528 H514 0.960 . S
C528 H515 0.960 . S
C528 C527 1.524 . S
C529 C526 1.403 . S
C529 C530 1.392 . S
C529 C533 1.495 . S
C530 C529 1.392 . S
C530 C531 1.385 . S
C530 C532 1.478 . S
C531 H525 0.930 . S
C531 C527 1.400 . S
C531 C530 1.385 . S
C532 C530 1.478 . S
C532 C534 1.381 . S
C532 C538 1.383 . S
C533 C529 1.495 . S
C533 H539 0.959 . S
C533 H540 0.961 . S
C533 H541 0.960 . S
C534 C532 1.381 . S
C534 C535 1.394 . S
C534 H542 0.930 . S
C535 C534 1.394 . S
C535 C536 1.383 . S
C535 H543 0.929 . S
C536 C535 1.383 . S
C536 C537 1.377 . S
C537 H521 0.930 . S
C537 C536 1.377 . S
C537 C538 1.379 . S
C538 H522 0.931 . S
C538 C532 1.383 . S
C538 C537 1.379 . S
H539 C533 0.959 . S
H540 C533 0.961 . S
H541 C533 0.960 . S
H542 C534 0.930 . S
H543 C535 0.929 . S
H544 C552 0.929 . S
H545 C554 0.930 . S
H546 C556 0.930 . S
H547 C559 0.929 . S
H548 C562 0.930 . S
H549 C564 0.960 . S
H550 C564 0.960 . S
H551 C564 0.960 . S
C552 H544 0.929 . S
C552 C553 1.377 . S
C552 C554 1.384 . S
C553 C552 1.377 . S
C553 C559 1.390 . S
C554 H545 0.930 . S
C554 C552 1.384 . S
C554 C555 1.372 . S
C555 C554 1.372 . S
C555 C556 1.400 . S
C555 C560 1.490 . S
C556 H546 0.930 . S
C556 C555 1.400 . S
C556 C559 1.386 . S
H557 C573 0.930 . S
H558 C574 0.931 . S
C559 H547 0.929 . S
C559 C553 1.390 . S
C559 C556 1.386 . S
C560 C555 1.490 . S
C560 C562 1.395 . S
C560 C563 1.403 . S
H561 C567 0.930 . S
C562 H548 0.930 . S
C562 C560 1.395 . S
C562 C565 1.403 . S
C563 C560 1.403 . S
C563 C564 1.524 . S
C563 C567 1.400 . S
C564 H549 0.960 . S
C564 H550 0.960 . S
C564 H551 0.960 . S
C564 C563 1.524 . S
C565 C562 1.403 . S
C565 C566 1.392 . S
C565 C569 1.495 . S
C566 C565 1.392 . S
C566 C567 1.385 . S
C566 C568 1.478 . S
C567 H561 0.930 . S
C567 C563 1.400 . S
C567 C566 1.385 . S
C568 C566 1.478 . S
C568 C570 1.381 . S
C568 C574 1.383 . S
C569 C565 1.495 . S
C569 H575 0.959 . S
C569 H576 0.961 . S
C569 H577 0.960 . S
C570 C568 1.381 . S
C570 C571 1.394 . S
C570 H578 0.930 . S
C571 C570 1.394 . S
C571 C572 1.383 . S
C571 H579 0.929 . S
C572 C571 1.383 . S
C572 C573 1.377 . S
C573 H557 0.930 . S
C573 C572 1.377 . S
C573 C574 1.379 . S
C574 H558 0.931 . S
C574 C568 1.383 . S
C574 C573 1.379 . S
H575 C569 0.959 . S
H576 C569 0.961 . S
H577 C569 0.960 . S
H578 C570 0.930 . S
H579 C571 0.929 . S
H580 C588 0.929 . S
H581 C590 0.930 . S
H582 C592 0.930 . S
H583 C595 0.929 . S
H584 C598 0.930 . S
H585 C600 0.960 . S
H586 C600 0.960 . S
H587 C600 0.960 . S
C588 H580 0.929 . S
C588 C589 1.377 . S
C588 C590 1.384 . S
C589 C588 1.377 . S
C589 C595 1.390 . S
C590 H581 0.930 . S
C590 C588 1.384 . S
C590 C591 1.372 . S
C591 C590 1.372 . S
C591 C592 1.400 . S
C591 C596 1.490 . S
C592 H582 0.930 . S
C592 C591 1.400 . S
C592 C595 1.386 . S
H593 C609 0.930 1_556 S
H594 C610 0.931 . S
C595 H583 0.929 . S
C595 C589 1.390 . S
C595 C592 1.386 . S
C596 C591 1.490 . S
C596 C598 1.395 . S
C596 C599 1.403 . S
H597 C603 0.930 . S
C598 H584 0.930 . S
C598 C596 1.395 . S
C598 C601 1.403 . S
C599 C596 1.403 . S
C599 C600 1.524 . S
C599 C603 1.400 . S
C600 H585 0.960 . S
C600 H586 0.960 . S
C600 H587 0.960 . S
C600 C599 1.524 . S
C601 C598 1.403 . S
C601 C602 1.392 . S
C601 C605 1.495 . S
C602 C601 1.392 . S
C602 C603 1.385 . S
C602 C604 1.478 . S
C603 H597 0.930 . S
C603 C599 1.400 . S
C603 C602 1.385 . S
C604 C602 1.478 . S
C604 C606 1.381 . S
C604 C610 1.383 . S
C605 C601 1.495 . S
C605 H611 0.959 . S
C605 H612 0.961 . S
C605 H613 0.960 . S
C606 C604 1.381 . S
C606 C607 1.394 . S
C606 H614 0.930 . S
C607 C606 1.394 . S
C607 C608 1.383 . S
C607 H615 0.929 . S
C608 C607 1.383 . S
C608 C609 1.377 . S
C609 H593 0.930 1_554 S
C609 C608 1.377 . S
C609 C610 1.379 . S
C610 H594 0.931 . S
C610 C604 1.383 . S
C610 C609 1.379 . S
H611 C605 0.959 . S
H612 C605 0.961 . S
H613 C605 0.960 . S
H614 C606 0.930 . S
H615 C607 0.929 . S
H616 C624 0.929 . S
H617 C626 0.930 . S
H618 C628 0.930 . S
H619 C631 0.929 . S
H620 C634 0.930 . S
H621 C636 0.960 . S
H622 C636 0.960 . S
H623 C636 0.960 . S
C624 H616 0.929 . S
C624 C625 1.377 . S
C624 C626 1.384 . S
C625 C624 1.377 . S
C625 C631 1.390 . S
C626 H617 0.930 . S
C626 C624 1.384 . S
C626 C627 1.372 . S
C627 C626 1.372 . S
C627 C628 1.400 . S
C627 C632 1.490 . S
C628 H618 0.930 . S
C628 C627 1.400 . S
C628 C631 1.386 . S
H629 C645 0.927 1_554 S
H630 C646 0.931 . S
C631 H619 0.929 . S
C631 C625 1.390 . S
C631 C628 1.386 . S
C632 C627 1.490 . S
C632 C634 1.395 . S
C632 C635 1.403 . S
H633 C639 0.930 . S
C634 H620 0.930 . S
C634 C632 1.395 . S
C634 C637 1.403 . S
C635 C632 1.403 . S
C635 C636 1.524 . S
C635 C639 1.400 . S
C636 H621 0.960 . S
C636 H622 0.960 . S
C636 H623 0.960 . S
C636 C635 1.524 . S
C637 C634 1.403 . S
C637 C638 1.392 . S
C637 C641 1.495 1_556 S
C638 C637 1.392 . S
C638 C639 1.385 . S
C638 C640 1.478 . S
C639 H633 0.930 . S
C639 C635 1.400 . S
C639 C638 1.385 . S
C640 C638 1.478 . S
C640 C642 1.381 . S
C640 C646 1.383 . S
C641 C637 1.495 1_554 S
C641 H647 0.959 . S
C641 H648 0.961 . S
C641 H649 0.960 . S
C642 C640 1.381 . S
C642 C643 1.394 . S
C642 H650 0.930 . S
C643 C642 1.394 . S
C643 C644 1.383 . S
C643 H651 0.929 . S
C644 C643 1.383 . S
C644 C645 1.377 . S
C645 H629 0.927 1_556 S
C645 C644 1.377 . S
C645 C646 1.381 . S
C646 H630 0.931 . S
C646 C640 1.383 . S
C646 C645 1.381 . S
H647 C641 0.959 . S
H648 C641 0.961 . S
H649 C641 0.960 . S
H650 C642 0.930 . S
H651 C643 0.929 . S
H652 C660 0.929 . S
H653 C662 0.930 . S
H654 C664 0.930 . S
H655 C667 0.929 . S
H656 C670 0.930 . S
H657 C672 0.960 . S
H658 C672 0.960 . S
H659 C672 0.960 . S
C660 H652 0.929 . S
C660 C661 1.377 . S
C660 C662 1.384 . S
C661 C660 1.377 . S
C661 C667 1.390 . S
C662 H653 0.930 . S
C662 C660 1.384 . S
C662 C663 1.372 . S
C663 C662 1.372 . S
C663 C664 1.400 . S
C663 C668 1.490 . S
C664 H654 0.930 . S
C664 C663 1.400 . S
C664 C667 1.386 . S
H665 C681 0.930 . S
H666 C682 0.931 . S
C667 H655 0.929 . S
C667 C661 1.390 . S
C667 C664 1.386 . S
C668 C663 1.490 . S
C668 C670 1.395 . S
C668 C671 1.403 . S
H669 C675 0.930 . S
C670 H656 0.930 . S
C670 C668 1.395 . S
C670 C673 1.403 . S
C671 C668 1.403 . S
C671 C672 1.524 . S
C671 C675 1.400 . S
C672 H657 0.960 . S
C672 H658 0.960 . S
C672 H659 0.960 . S
C672 C671 1.524 . S
C673 C670 1.403 . S
C673 C674 1.392 . S
C673 C677 1.495 . S
C674 C673 1.392 . S
C674 C675 1.385 . S
C674 C676 1.478 . S
C675 H669 0.930 . S
C675 C671 1.400 . S
C675 C674 1.385 . S
C676 C674 1.478 . S
C676 C678 1.381 . S
C676 C682 1.383 . S
C677 C673 1.495 . S
C677 H683 0.959 . S
C677 H684 0.961 . S
C677 H685 0.960 . S
C678 C676 1.381 . S
C678 C679 1.394 . S
C678 H686 0.930 . S
C679 C678 1.394 . S
C679 C680 1.383 . S
C679 H687 0.929 . S
C680 C679 1.383 . S
C680 C681 1.377 . S
C681 H665 0.930 . S
C681 C680 1.377 . S
C681 C682 1.379 . S
C682 H666 0.931 . S
C682 C676 1.383 . S
C682 C681 1.379 . S
H683 C677 0.959 . S
H684 C677 0.961 . S
H685 C677 0.960 . S
H686 C678 0.930 . S
H687 C679 0.929 . S
H688 C696 0.929 . S
H689 C698 0.930 . S
H690 C700 0.930 . S
H691 C703 0.929 . S
H692 C706 0.930 . S
H693 C708 0.960 . S
H694 C708 0.960 . S
H695 C708 0.960 . S
C696 H688 0.929 . S
C696 C697 1.377 . S
C696 C698 1.384 . S
C697 C696 1.377 . S
C697 C703 1.390 . S
C698 H689 0.930 . S
C698 C696 1.384 . S
C698 C699 1.372 . S
C699 C698 1.372 . S
C699 C700 1.400 . S
C699 C704 1.490 . S
C700 H690 0.930 . S
C700 C699 1.400 . S
C700 C703 1.386 . S
H701 C717 0.930 . S
H702 C718 0.931 . S
C703 H691 0.929 . S
C703 C697 1.390 . S
C703 C700 1.386 . S
C704 C699 1.490 . S
C704 C706 1.395 . S
C704 C707 1.403 . S
H705 C711 0.930 . S
C706 H692 0.930 . S
C706 C704 1.395 . S
C706 C709 1.403 . S
C707 C704 1.403 . S
C707 C708 1.524 . S
C707 C711 1.400 . S
C708 H693 0.960 . S
C708 H694 0.960 . S
C708 H695 0.960 . S
C708 C707 1.524 . S
C709 C706 1.403 . S
C709 C710 1.392 . S
C709 C713 1.495 . S
C710 C709 1.392 . S
C710 C711 1.385 . S
C710 C712 1.478 . S
C711 H705 0.930 . S
C711 C707 1.400 . S
C711 C710 1.385 . S
C712 C710 1.478 . S
C712 C714 1.381 . S
C712 C718 1.383 . S
C713 C709 1.495 . S
C713 H719 0.959 . S
C713 H720 0.961 . S
C713 H721 0.960 . S
C714 C712 1.381 . S
C714 C715 1.394 . S
C714 H722 0.930 . S
C715 C714 1.394 . S
C715 C716 1.383 . S
C715 H723 0.929 . S
C716 C715 1.383 . S
C716 C717 1.377 . S
C717 H701 0.930 . S
C717 C716 1.377 . S
C717 C718 1.379 . S
C718 H702 0.931 . S
C718 C712 1.383 . S
C718 C717 1.379 . S
H719 C713 0.959 . S
H720 C713 0.961 . S
H721 C713 0.960 . S
H722 C714 0.930 . S
H723 C715 0.929 . S
H724 C732 0.929 . S
H725 C734 0.930 . S
H726 C736 0.930 . S
H727 C739 0.929 . S
H728 C742 0.930 . S
H729 C744 0.960 . S
H730 C744 0.960 . S
H731 C744 0.960 . S
C732 H724 0.929 . S
C732 C733 1.377 . S
C732 C734 1.384 . S
C733 C732 1.377 . S
C733 C739 1.390 . S
C734 H725 0.930 . S
C734 C732 1.384 . S
C734 C735 1.372 . S
C735 C734 1.372 . S
C735 C736 1.400 . S
C735 C740 1.490 . S
C736 H726 0.930 . S
C736 C735 1.400 . S
C736 C739 1.386 . S
H737 C753 0.930 . S
H738 C754 0.931 . S
C739 H727 0.929 . S
C739 C733 1.390 . S
C739 C736 1.386 . S
C740 C735 1.490 . S
C740 C742 1.395 . S
C740 C743 1.403 . S
H741 C747 0.930 . S
C742 H728 0.930 . S
C742 C740 1.395 . S
C742 C745 1.403 . S
C743 C740 1.403 . S
C743 C744 1.524 . S
C743 C747 1.400 . S
C744 H729 0.960 . S
C744 H730 0.960 . S
C744 H731 0.960 . S
C744 C743 1.524 . S
C745 C742 1.403 . S
C745 C746 1.392 . S
C745 C749 1.495 . S
C746 C745 1.392 . S
C746 C747 1.385 . S
C746 C748 1.478 . S
C747 H741 0.930 . S
C747 C743 1.400 . S
C747 C746 1.385 . S
C748 C746 1.478 . S
C748 C750 1.381 . S
C748 C754 1.383 . S
C749 C745 1.495 . S
C749 H755 0.959 . S
C749 H756 0.961 . S
C749 H757 0.960 . S
C750 C748 1.381 . S
C750 C751 1.394 . S
C750 H758 0.930 . S
C751 C750 1.394 . S
C751 C752 1.383 . S
C751 H759 0.929 . S
C752 C751 1.383 . S
C752 C753 1.377 . S
C753 H737 0.930 . S
C753 C752 1.377 . S
C753 C754 1.379 . S
C754 H738 0.931 . S
C754 C748 1.383 . S
C754 C753 1.379 . S
H755 C749 0.959 . S
H756 C749 0.961 . S
H757 C749 0.960 . S
H758 C750 0.930 . S
H759 C751 0.929 . S
H760 C768 0.929 . S
H761 C770 0.930 . S
H762 C772 0.930 . S
H763 C775 0.929 . S
H764 C778 0.930 . S
H765 C780 0.960 . S
H766 C780 0.960 . S
H767 C780 0.960 . S
C768 H760 0.929 . S
C768 C769 1.377 . S
C768 C770 1.384 . S
C769 C768 1.377 . S
C769 C775 1.390 . S
C770 H761 0.930 . S
C770 C768 1.384 . S
C770 C771 1.372 . S
C771 C770 1.372 . S
C771 C772 1.400 . S
C771 C776 1.490 . S
C772 H762 0.930 . S
C772 C771 1.400 . S
C772 C775 1.386 . S
H773 C789 0.930 . S
H774 C790 0.931 . S
C775 H763 0.929 . S
C775 C769 1.390 . S
C775 C772 1.386 . S
C776 C771 1.490 . S
C776 C778 1.395 . S
C776 C779 1.403 . S
H777 C783 0.930 . S
C778 H764 0.930 . S
C778 C776 1.395 . S
C778 C781 1.403 . S
C779 C776 1.403 . S
C779 C780 1.524 . S
C779 C783 1.400 . S
C780 H765 0.960 . S
C780 H766 0.960 . S
C780 H767 0.960 . S
C780 C779 1.524 . S
C781 C778 1.403 . S
C781 C782 1.392 . S
C781 C785 1.495 . S
C782 C781 1.392 . S
C782 C783 1.385 . S
C782 C784 1.478 . S
C783 H777 0.930 . S
C783 C779 1.400 . S
C783 C782 1.385 . S
C784 C782 1.478 . S
C784 C786 1.381 . S
C784 C790 1.383 . S
C785 C781 1.495 . S
C785 H791 0.959 . S
C785 H792 0.961 . S
C785 H793 0.960 . S
C786 C784 1.381 . S
C786 C787 1.394 . S
C786 H794 0.930 . S
C787 C786 1.394 . S
C787 C788 1.383 . S
C787 H795 0.929 . S
C788 C787 1.383 . S
C788 C789 1.377 . S
C789 H773 0.930 . S
C789 C788 1.377 . S
C789 C790 1.379 . S
C790 H774 0.931 . S
C790 C784 1.383 . S
C790 C789 1.379 . S
H791 C785 0.959 . S
H792 C785 0.961 . S
H793 C785 0.960 . S
H794 C786 0.930 . S
H795 C787 0.929 . S
H796 C804 0.929 . S
H797 C806 0.930 . S
H798 C808 0.930 . S
H799 C811 0.929 . S
H800 C814 0.930 . S
H801 C816 0.960 . S
H802 C816 0.960 . S
H803 C816 0.960 . S
C804 H796 0.929 . S
C804 C805 1.377 . S
C804 C806 1.384 . S
C805 C804 1.377 . S
C805 C811 1.390 . S
C806 H797 0.930 . S
C806 C804 1.384 . S
C806 C807 1.372 . S
C807 C806 1.372 . S
C807 C808 1.400 . S
C807 C812 1.490 . S
C808 H798 0.930 . S
C808 C807 1.400 . S
C808 C811 1.386 . S
H809 C825 0.930 . S
H810 C826 0.931 . S
C811 H799 0.929 . S
C811 C805 1.390 . S
C811 C808 1.386 . S
C812 C807 1.490 . S
C812 C814 1.395 . S
C812 C815 1.403 . S
H813 C819 0.930 . S
C814 H800 0.930 . S
C814 C812 1.395 . S
C814 C817 1.403 . S
C815 C812 1.403 . S
C815 C816 1.524 . S
C815 C819 1.400 . S
C816 H801 0.960 . S
C816 H802 0.960 . S
C816 H803 0.960 . S
C816 C815 1.524 . S
C817 C814 1.403 . S
C817 C818 1.392 . S
C817 C821 1.495 . S
C818 C817 1.392 . S
C818 C819 1.385 . S
C818 C820 1.478 . S
C819 H813 0.930 . S
C819 C815 1.400 . S
C819 C818 1.385 . S
C820 C818 1.478 . S
C820 C822 1.381 . S
C820 C826 1.383 . S
C821 C817 1.495 . S
C821 H827 0.959 1_554 S
C821 H828 0.961 1_554 S
C821 H829 0.960 . S
C822 C820 1.381 . S
C822 C823 1.394 . S
C822 H830 0.930 . S
C823 C822 1.394 . S
C823 C824 1.383 . S
C823 H831 0.929 . S
C824 C823 1.383 . S
C824 C825 1.377 . S
C825 H809 0.930 . S
C825 C824 1.377 . S
C825 C826 1.379 . S
C826 H810 0.931 . S
C826 C820 1.383 . S
C826 C825 1.379 . S
H827 C821 0.959 1_556 S
H828 C821 0.961 1_556 S
H829 C821 0.960 . S
H830 C822 0.930 . S
H831 C823 0.929 . S
H832 C840 0.929 . S
H833 C842 0.930 . S
H834 C844 0.930 . S
H835 C847 0.929 . S
H836 C850 0.930 . S
H837 C852 0.960 . S
H838 C852 0.960 . S
H839 C852 0.960 . S
C840 H832 0.929 . S
C840 C841 1.377 . S
C840 C842 1.384 . S
C841 C840 1.377 . S
C841 C847 1.390 . S
C842 H833 0.930 . S
C842 C840 1.384 . S
C842 C843 1.372 . S
C843 C842 1.372 . S
C843 C844 1.400 . S
C843 C848 1.490 . S
C844 H834 0.930 . S
C844 C843 1.400 . S
C844 C847 1.386 . S
H845 C861 0.930 . S
H846 C862 0.931 . S
C847 H835 0.929 . S
C847 C841 1.390 . S
C847 C844 1.386 . S
C848 C843 1.490 . S
C848 C850 1.395 . S
C848 C851 1.403 . S
H849 C855 0.930 . S
C850 H836 0.930 . S
C850 C848 1.395 . S
C850 C853 1.403 . S
C851 C848 1.403 . S
C851 C852 1.524 . S
C851 C855 1.400 . S
C852 H837 0.960 . S
C852 H838 0.960 . S
C852 H839 0.960 . S
C852 C851 1.524 . S
C853 C850 1.403 . S
C853 C854 1.392 . S
C853 C857 1.495 . S
C854 C853 1.392 . S
C854 C855 1.385 . S
C854 C856 1.478 . S
C855 H849 0.930 . S
C855 C851 1.400 . S
C855 C854 1.385 . S
C856 C854 1.478 . S
C856 C858 1.381 . S
C856 C862 1.383 . S
C857 C853 1.495 . S
C857 H863 0.959 . S
C857 H864 0.961 . S
C857 H865 0.960 . S
C858 C856 1.381 . S
C858 C859 1.394 . S
C858 H866 0.930 . S
C859 C858 1.394 . S
C859 C860 1.383 . S
C859 H867 0.929 . S
C860 C859 1.383 . S
C860 C861 1.377 . S
C861 H845 0.930 . S
C861 C860 1.377 . S
C861 C862 1.379 . S
C862 H846 0.931 . S
C862 C856 1.383 . S
C862 C861 1.379 . S
H863 C857 0.959 . S
H864 C857 0.961 . S
H865 C857 0.960 . S
H866 C858 0.930 . S
H867 C859 0.929 . S
H868 C876 0.929 . S
H869 C878 0.930 . S
H870 C880 0.930 . S
H871 C883 0.929 . S
H872 C886 0.930 . S
H873 C888 0.960 . S
H874 C888 0.960 . S
H875 C888 0.960 . S
C876 H868 0.929 . S
C876 C877 1.377 . S
C876 C878 1.384 . S
C877 C876 1.377 . S
C877 C883 1.390 . S
C878 H869 0.930 . S
C878 C876 1.384 . S
C878 C879 1.372 . S
C879 C878 1.372 . S
C879 C880 1.400 . S
C879 C884 1.490 . S
C880 H870 0.930 . S
C880 C879 1.400 . S
C880 C883 1.386 . S
H881 C897 0.930 . S
H882 C898 0.931 . S
C883 H871 0.929 . S
C883 C877 1.390 . S
C883 C880 1.386 . S
C884 C879 1.490 . S
C884 C886 1.395 . S
C884 C887 1.403 . S
H885 C891 0.930 . S
C886 H872 0.930 . S
C886 C884 1.395 . S
C886 C889 1.403 . S
C887 C884 1.403 . S
C887 C888 1.524 . S
C887 C891 1.400 . S
C888 H873 0.960 . S
C888 H874 0.960 . S
C888 H875 0.960 . S
C888 C887 1.524 . S
C889 C886 1.403 . S
C889 C890 1.392 . S
C889 C893 1.495 . S
C890 C889 1.392 . S
C890 C891 1.385 . S
C890 C892 1.478 . S
C891 H885 0.930 . S
C891 C887 1.400 . S
C891 C890 1.385 . S
C892 C890 1.478 . S
C892 C894 1.381 . S
C892 C898 1.383 . S
C893 C889 1.495 . S
C893 H899 0.959 . S
C893 H900 0.961 . S
C893 H901 0.960 . S
C894 C892 1.381 . S
C894 C895 1.394 . S
C894 H902 0.930 . S
C895 C894 1.394 . S
C895 C896 1.383 . S
C895 H903 0.929 . S
C896 C895 1.383 . S
C896 C897 1.377 . S
C897 H881 0.930 . S
C897 C896 1.377 . S
C897 C898 1.379 . S
C898 H882 0.931 . S
C898 C892 1.383 . S
C898 C897 1.379 . S
H899 C893 0.959 . S
H900 C893 0.961 . S
H901 C893 0.960 . S
H902 C894 0.930 . S
H903 C895 0.929 . S
H904 C912 0.929 . S
H905 C914 0.930 . S
H906 C916 0.930 . S
H907 C919 0.929 . S
H908 C922 0.930 . S
H909 C924 0.960 . S
H910 C924 0.960 . S
H911 C924 0.960 . S
C912 H904 0.929 . S
C912 C913 1.377 . S
C912 C914 1.384 . S
C913 C912 1.377 . S
C913 C919 1.390 . S
C914 H905 0.930 . S
C914 C912 1.384 . S
C914 C915 1.372 . S
C915 C914 1.372 . S
C915 C916 1.400 . S
C915 C920 1.490 . S
C916 H906 0.930 . S
C916 C915 1.400 . S
C916 C919 1.386 . S
H917 C933 0.930 . S
H918 C934 0.931 . S
C919 H907 0.929 . S
C919 C913 1.390 . S
C919 C916 1.386 . S
C920 C915 1.490 . S
C920 C922 1.395 . S
C920 C923 1.403 . S
H921 C927 0.930 . S
C922 H908 0.930 . S
C922 C920 1.395 . S
C922 C925 1.403 . S
C923 C920 1.403 . S
C923 C924 1.524 . S
C923 C927 1.400 . S
C924 H909 0.960 . S
C924 H910 0.960 . S
C924 H911 0.960 . S
C924 C923 1.524 . S
C925 C922 1.403 . S
C925 C926 1.392 . S
C925 C929 1.495 . S
C926 C925 1.392 . S
C926 C927 1.385 . S
C926 C928 1.478 . S
C927 H921 0.930 . S
C927 C923 1.400 . S
C927 C926 1.385 . S
C928 C926 1.478 . S
C928 C930 1.381 . S
C928 C934 1.383 . S
C929 C925 1.495 . S
C929 H935 0.959 . S
C929 H936 0.961 . S
C929 H937 0.960 . S
C930 C928 1.381 . S
C930 C931 1.394 . S
C930 H938 0.930 . S
C931 C930 1.394 . S
C931 C932 1.383 . S
C931 H939 0.929 . S
C932 C931 1.383 . S
C932 C933 1.377 . S
C933 H917 0.930 . S
C933 C932 1.377 . S
C933 C934 1.379 . S
C934 H918 0.931 . S
C934 C928 1.383 . S
C934 C933 1.379 . S
H935 C929 0.959 . S
H936 C929 0.961 . S
H937 C929 0.960 . S
H938 C930 0.930 . S
H939 C931 0.929 . S
H940 C948 0.929 . S
H941 C950 0.930 . S
H942 C952 0.930 . S
H943 C955 0.929 . S
H944 C958 0.930 . S
H945 C960 0.960 . S
H946 C960 0.960 . S
H947 C960 0.960 . S
C948 H940 0.929 . S
C948 C949 1.377 . S
C948 C950 1.384 . S
C949 C948 1.377 . S
C949 C955 1.390 . S
C950 H941 0.930 . S
C950 C948 1.384 . S
C950 C951 1.372 . S
C951 C950 1.372 . S
C951 C952 1.400 . S
C951 C956 1.490 . S
C952 H942 0.930 . S
C952 C951 1.400 . S
C952 C955 1.386 . S
H953 C969 0.930 . S
H954 C970 0.931 . S
C955 H943 0.929 . S
C955 C949 1.390 . S
C955 C952 1.386 . S
C956 C951 1.490 . S
C956 C958 1.395 . S
C956 C959 1.403 . S
H957 C963 0.930 . S
C958 H944 0.930 . S
C958 C956 1.395 . S
C958 C961 1.403 . S
C959 C956 1.403 . S
C959 C960 1.524 . S
C959 C963 1.400 . S
C960 H945 0.960 . S
C960 H946 0.960 . S
C960 H947 0.960 . S
C960 C959 1.524 . S
C961 C958 1.403 . S
C961 C962 1.392 . S
C961 C965 1.495 . S
C962 C961 1.392 . S
C962 C963 1.385 . S
C962 C964 1.478 . S
C963 H957 0.930 . S
C963 C959 1.400 . S
C963 C962 1.385 . S
C964 C962 1.478 . S
C964 C966 1.381 . S
C964 C970 1.383 . S
C965 C961 1.495 . S
C965 H971 0.959 . S
C965 H972 0.961 . S
C965 H973 0.960 . S
C966 C964 1.381 . S
C966 C967 1.394 . S
C966 H974 0.930 . S
C967 C966 1.394 . S
C967 C968 1.383 . S
C967 H975 0.929 . S
C968 C967 1.383 . S
C968 C969 1.377 . S
C969 H953 0.930 . S
C969 C968 1.377 . S
C969 C970 1.379 . S
C970 H954 0.931 . S
C970 C964 1.383 . S
C970 C969 1.379 . S
H971 C965 0.959 . S
H972 C965 0.961 . S
H973 C965 0.960 . S
H974 C966 0.930 . S
H975 C967 0.929 . S
H976 C984 0.929 . S
H977 C986 0.930 . S
H978 C988 0.930 . S
H979 C991 0.929 . S
H980 C994 0.930 . S
H981 C996 0.960 1_554 S
H982 C996 0.949 1_554 S
H983 C996 0.960 . S
C984 H976 0.929 . S
C984 C985 1.377 . S
C984 C986 1.384 . S
C985 C984 1.377 . S
C985 C991 1.390 . S
C986 H977 0.930 . S
C986 C984 1.384 . S
C986 C987 1.372 . S
C987 C986 1.372 . S
C987 C988 1.400 . S
C987 C992 1.490 . S
C988 H978 0.930 . S
C988 C987 1.400 . S
C988 C991 1.386 . S
H989 C1005 0.930 . S
H990 C1006 0.931 . S
C991 H979 0.929 . S
C991 C985 1.390 . S
C991 C988 1.386 . S
C992 C987 1.490 . S
C992 C994 1.395 . S
C992 C995 1.403 . S
H993 C999 0.930 . S
C994 H980 0.930 . S
C994 C992 1.395 . S
C994 C997 1.403 . S
C995 C992 1.403 . S
C995 C996 1.524 . S
C995 C999 1.400 . S
C996 H981 0.960 1_556 S
C996 H982 0.949 1_556 S
C996 H983 0.960 . S
C996 C995 1.524 . S
C997 C994 1.403 . S
C997 C998 1.392 . S
C997 C1001 1.495 . S
C998 C997 1.392 . S
C998 C999 1.385 . S
C998 C1000 1.478 . S
C999 H993 0.930 . S
C999 C995 1.400 . S
C999 C998 1.385 . S
C1000 C998 1.478 . S
C1000 C1002 1.381 . S
C1000 C1006 1.383 . S
C1001 C997 1.495 . S
C1001 H1007 0.959 . S
C1001 H1008 0.961 . S
C1001 H1009 0.960 . S
C1002 C1000 1.381 . S
C1002 C1003 1.380 1_556 S
C1002 H1010 0.930 . S
C1003 C1002 1.380 1_554 S
C1003 C1004 1.374 1_554 S
C1003 H1011 0.955 . S
C1004 C1003 1.374 1_556 S
C1004 C1005 1.377 . S
C1005 H989 0.930 . S
C1005 C1004 1.377 . S
C1005 C1006 1.379 . S
C1006 H990 0.931 . S
C1006 C1000 1.383 . S
C1006 C1005 1.379 . S
H1007 C1001 0.959 . S
H1008 C1001 0.961 . S
H1009 C1001 0.960 . S
H1010 C1002 0.930 . S
H1011 C1003 0.955 . S
H1012 C1020 0.929 . S
H1013 C1022 0.930 . S
H1014 C1024 0.930 . S
H1015 C1027 0.929 . S
H1016 C1030 0.930 . S
H1017 C1032 0.960 . S
H1018 C1032 0.960 . S
H1019 C1032 0.960 . S
C1020 H1012 0.929 . S
C1020 C1021 1.377 . S
C1020 C1022 1.384 . S
C1021 C1020 1.377 . S
C1021 C1027 1.390 . S
C1022 H1013 0.930 . S
C1022 C1020 1.384 . S
C1022 C1023 1.372 . S
C1023 C1022 1.372 . S
C1023 C1024 1.400 . S
C1023 C1028 1.490 . S
C1024 H1014 0.930 . S
C1024 C1023 1.400 . S
C1024 C1027 1.386 . S
H1025 C1041 0.930 . S
H1026 C1042 0.931 . S
C1027 H1015 0.929 . S
C1027 C1021 1.390 . S
C1027 C1024 1.386 . S
C1028 C1023 1.490 . S
C1028 C1030 1.395 . S
C1028 C1031 1.403 . S
H1029 C1035 0.930 . S
C1030 H1016 0.930 . S
C1030 C1028 1.395 . S
C1030 C1033 1.403 . S
C1031 C1028 1.403 . S
C1031 C1032 1.524 . S
C1031 C1035 1.400 . S
C1032 H1017 0.960 . S
C1032 H1018 0.960 . S
C1032 H1019 0.960 . S
C1032 C1031 1.524 . S
C1033 C1030 1.403 . S
C1033 C1034 1.392 . S
C1033 C1037 1.495 . S
C1034 C1033 1.392 . S
C1034 C1035 1.385 . S
C1034 C1036 1.478 . S
C1035 H1029 0.930 . S
C1035 C1031 1.400 . S
C1035 C1034 1.385 . S
C1036 C1034 1.478 . S
C1036 C1038 1.381 . S
C1036 C1042 1.383 . S
C1037 C1033 1.495 . S
C1037 H1043 0.959 . S
C1037 H1044 0.961 . S
C1037 H1045 0.960 . S
C1038 C1036 1.381 . S
C1038 C1039 1.394 . S
C1038 H1046 0.930 . S
C1039 C1038 1.394 . S
C1039 C1040 1.383 . S
C1039 H1047 0.929 . S
C1040 C1039 1.383 . S
C1040 C1041 1.377 . S
C1041 H1025 0.930 . S
C1041 C1040 1.377 . S
C1041 C1042 1.379 . S
C1042 H1026 0.931 . S
C1042 C1036 1.383 . S
C1042 C1041 1.379 . S
H1043 C1037 0.959 . S
H1044 C1037 0.961 . S
H1045 C1037 0.960 . S
H1046 C1038 0.930 . S
H1047 C1039 0.929 . S
H1048 C1056 0.929 . S
H1049 C1058 0.930 . S
H1050 C1060 0.930 . S
H1051 C1063 0.929 . S
H1052 C1066 0.930 . S
H1053 C1068 0.960 . S
H1054 C1068 0.960 . S
H1055 C1068 0.960 . S
C1056 H1048 0.929 . S
C1056 C1057 1.377 . S
C1056 C1058 1.384 . S
C1057 C1056 1.377 . S
C1057 C1063 1.390 . S
C1058 H1049 0.930 . S
C1058 C1056 1.384 . S
C1058 C1059 1.372 . S
C1059 C1058 1.372 . S
C1059 C1060 1.400 . S
C1059 C1064 1.490 . S
C1060 H1050 0.930 . S
C1060 C1059 1.400 . S
C1060 C1063 1.386 . S
H1061 C1077 0.930 . S
H1062 C1078 0.931 . S
C1063 H1051 0.929 . S
C1063 C1057 1.390 . S
C1063 C1060 1.386 . S
C1064 C1059 1.490 . S
C1064 C1066 1.395 . S
C1064 C1067 1.403 . S
H1065 C1071 0.930 . S
C1066 H1052 0.930 . S
C1066 C1064 1.395 . S
C1066 C1069 1.403 . S
C1067 C1064 1.403 . S
C1067 C1068 1.524 . S
C1067 C1071 1.400 . S
C1068 H1053 0.960 . S
C1068 H1054 0.960 . S
C1068 H1055 0.960 . S
C1068 C1067 1.524 . S
C1069 C1066 1.403 . S
C1069 C1070 1.392 . S
C1069 C1073 1.495 . S
C1070 C1069 1.392 . S
C1070 C1071 1.385 . S
C1070 C1072 1.478 . S
C1071 H1065 0.930 . S
C1071 C1067 1.400 . S
C1071 C1070 1.385 . S
C1072 C1070 1.478 . S
C1072 C1074 1.381 . S
C1072 C1078 1.383 . S
C1073 C1069 1.495 . S
C1073 H1079 0.959 . S
C1073 H1080 0.961 . S
C1073 H1081 0.960 . S
C1074 C1072 1.381 . S
C1074 C1075 1.394 . S
C1074 H1082 0.930 . S
C1075 C1074 1.394 . S
C1075 C1076 1.383 . S
C1075 H1083 0.929 . S
C1076 C1075 1.383 . S
C1076 C1077 1.377 . S
C1077 H1061 0.930 . S
C1077 C1076 1.377 . S
C1077 C1078 1.379 . S
C1078 H1062 0.931 . S
C1078 C1072 1.383 . S
C1078 C1077 1.379 . S
H1079 C1073 0.959 . S
H1080 C1073 0.961 . S
H1081 C1073 0.960 . S
H1082 C1074 0.930 . S
H1083 C1075 0.929 . S
H1084 C1092 0.929 . S
H1085 C1094 0.930 . S
H1086 C1096 0.930 . S
H1087 C1099 0.929 . S
H1088 C1102 0.930 . S
H1089 C1104 0.960 . S
H1090 C1104 0.960 . S
H1091 C1104 0.960 . S
C1092 H1084 0.929 . S
C1092 C1093 1.377 . S
C1092 C1094 1.384 . S
C1093 C1092 1.377 . S
C1093 C1099 1.390 . S
C1094 H1085 0.930 . S
C1094 C1092 1.384 . S
C1094 C1095 1.372 . S
C1095 C1094 1.372 . S
C1095 C1096 1.400 . S
C1095 C1100 1.490 . S
C1096 H1086 0.930 . S
C1096 C1095 1.400 . S
C1096 C1099 1.386 . S
H1097 C1113 0.930 . S
H1098 C1114 0.931 . S
C1099 H1087 0.929 . S
C1099 C1093 1.390 . S
C1099 C1096 1.386 . S
C1100 C1095 1.490 . S
C1100 C1102 1.395 . S
C1100 C1103 1.403 . S
H1101 C1107 0.930 . S
C1102 H1088 0.930 . S
C1102 C1100 1.395 . S
C1102 C1105 1.403 . S
C1103 C1100 1.403 . S
C1103 C1104 1.524 . S
C1103 C1107 1.400 . S
C1104 H1089 0.960 . S
C1104 H1090 0.960 . S
C1104 H1091 0.960 . S
C1104 C1103 1.524 . S
C1105 C1102 1.403 . S
C1105 C1106 1.392 . S
C1105 C1109 1.495 . S
C1106 C1105 1.392 . S
C1106 C1107 1.385 . S
C1106 C1108 1.478 . S
C1107 H1101 0.930 . S
C1107 C1103 1.400 . S
C1107 C1106 1.385 . S
C1108 C1106 1.478 . S
C1108 C1110 1.381 . S
C1108 C1114 1.383 . S
C1109 C1105 1.495 . S
C1109 H1115 0.959 . S
C1109 H1116 0.961 . S
C1109 H1117 0.960 . S
C1110 C1108 1.381 . S
C1110 C1111 1.394 . S
C1110 H1118 0.930 . S
C1111 C1110 1.394 . S
C1111 C1112 1.383 . S
C1111 H1119 0.929 . S
C1112 C1111 1.383 . S
C1112 C1113 1.377 . S
C1113 H1097 0.930 . S
C1113 C1112 1.377 . S
C1113 C1114 1.379 . S
C1114 H1098 0.931 . S
C1114 C1108 1.383 . S
C1114 C1113 1.379 . S
H1115 C1109 0.959 . S
H1116 C1109 0.961 . S
H1117 C1109 0.960 . S
H1118 C1110 0.930 . S
H1119 C1111 0.929 . S
H1120 C1128 0.929 . S
H1121 C1130 0.930 . S
H1122 C1132 0.930 . S
H1123 C1135 0.929 . S
H1124 C1138 0.930 . S
H1125 C1140 0.960 . S
H1126 C1140 0.960 . S
H1127 C1140 0.960 . S
C1128 H1120 0.929 . S
C1128 C1129 1.377 . S
C1128 C1130 1.384 . S
C1129 C1128 1.377 . S
C1129 C1135 1.390 . S
C1130 H1121 0.930 . S
C1130 C1128 1.384 . S
C1130 C1131 1.372 . S
C1131 C1130 1.372 . S
C1131 C1132 1.400 . S
C1131 C1136 1.490 . S
C1132 H1122 0.930 . S
C1132 C1131 1.400 . S
C1132 C1135 1.386 . S
H1133 C1149 0.930 . S
H1134 C1150 0.931 . S
C1135 H1123 0.929 . S
C1135 C1129 1.390 . S
C1135 C1132 1.386 . S
C1136 C1131 1.490 . S
C1136 C1138 1.395 . S
C1136 C1139 1.403 . S
H1137 C1143 0.930 . S
C1138 H1124 0.930 . S
C1138 C1136 1.395 . S
C1138 C1141 1.403 . S
C1139 C1136 1.403 . S
C1139 C1140 1.524 . S
C1139 C1143 1.400 . S
C1140 H1125 0.960 . S
C1140 H1126 0.960 . S
C1140 H1127 0.960 . S
C1140 C1139 1.524 . S
C1141 C1138 1.403 . S
C1141 C1142 1.392 . S
C1141 C1145 1.495 . S
C1142 C1141 1.392 . S
C1142 C1143 1.385 . S
C1142 C1144 1.478 . S
C1143 H1137 0.930 . S
C1143 C1139 1.400 . S
C1143 C1142 1.385 . S
C1144 C1142 1.478 . S
C1144 C1146 1.381 . S
C1144 C1150 1.383 . S
C1145 C1141 1.495 . S
C1145 H1151 0.959 . S
C1145 H1152 0.961 . S
C1145 H1153 0.960 . S
C1146 C1144 1.381 . S
C1146 C1147 1.394 . S
C1146 H1154 0.930 . S
C1147 C1146 1.394 . S
C1147 C1148 1.383 . S
C1147 H1155 0.929 . S
C1148 C1147 1.383 . S
C1148 C1149 1.377 . S
C1149 H1133 0.930 . S
C1149 C1148 1.377 . S
C1149 C1150 1.379 . S
C1150 H1134 0.931 . S
C1150 C1144 1.383 . S
C1150 C1149 1.379 . S
H1151 C1145 0.959 . S
H1152 C1145 0.961 . S
H1153 C1145 0.960 . S
H1154 C1146 0.930 . S
H1155 C1147 0.929 . S
H1156 C1164 0.929 . S
H1157 C1166 0.930 . S
H1158 C1168 0.930 . S
H1159 C1171 0.929 . S
H1160 C1174 0.930 . S
H1161 C1176 0.960 . S
H1162 C1176 0.960 . S
H1163 C1176 0.960 . S
C1164 H1156 0.929 . S
C1164 C1165 1.377 . S
C1164 C1166 1.384 . S
C1165 C1164 1.377 . S
C1165 C1171 1.390 . S
C1166 H1157 0.930 . S
C1166 C1164 1.384 . S
C1166 C1167 1.372 . S
C1167 C1166 1.372 . S
C1167 C1168 1.400 . S
C1167 C1172 1.490 . S
C1168 H1158 0.930 . S
C1168 C1167 1.400 . S
C1168 C1171 1.386 . S
H1169 C1185 0.930 . S
H1170 C1186 0.931 . S
C1171 H1159 0.929 . S
C1171 C1165 1.390 . S
C1171 C1168 1.386 . S
C1172 C1167 1.490 . S
C1172 C1174 1.395 . S
C1172 C1175 1.403 . S
H1173 C1179 0.930 . S
C1174 H1160 0.930 . S
C1174 C1172 1.395 . S
C1174 C1177 1.403 . S
C1175 C1172 1.403 . S
C1175 C1176 1.524 . S
C1175 C1179 1.400 . S
C1176 H1161 0.960 . S
C1176 H1162 0.960 . S
C1176 H1163 0.960 . S
C1176 C1175 1.524 . S
C1177 C1174 1.403 . S
C1177 C1178 1.392 . S
C1177 C1181 1.495 . S
C1178 C1177 1.392 . S
C1178 C1179 1.385 . S
C1178 C1180 1.478 . S
C1179 H1173 0.930 . S
C1179 C1175 1.400 . S
C1179 C1178 1.385 . S
C1180 C1178 1.478 . S
C1180 C1182 1.381 . S
C1180 C1186 1.383 . S
C1181 C1177 1.495 . S
C1181 H1187 0.959 . S
C1181 H1188 0.961 . S
C1181 H1189 0.960 . S
C1182 C1180 1.381 . S
C1182 C1183 1.394 . S
C1182 H1190 0.930 . S
C1183 C1182 1.394 . S
C1183 C1184 1.383 . S
C1183 H1191 0.929 . S
C1184 C1183 1.383 . S
C1184 C1185 1.377 . S
C1185 H1169 0.930 . S
C1185 C1184 1.377 . S
C1185 C1186 1.379 . S
C1186 H1170 0.931 . S
C1186 C1180 1.383 . S
C1186 C1185 1.379 . S
H1187 C1181 0.959 . S
H1188 C1181 0.961 . S
H1189 C1181 0.960 . S
H1190 C1182 0.930 . S
H1191 C1183 0.929 . S
H1192 C1200 0.929 . S
H1193 C1202 0.930 . S
H1194 C1204 0.930 . S
H1195 C1207 0.929 . S
H1196 C1210 0.930 . S
H1197 C1212 0.960 . S
H1198 C1212 0.960 . S
H1199 C1212 0.960 . S
C1200 H1192 0.929 . S
C1200 C1201 1.377 . S
C1200 C1202 1.384 . S
C1201 C1200 1.377 . S
C1201 C1207 1.390 . S
C1202 H1193 0.930 . S
C1202 C1200 1.384 . S
C1202 C1203 1.372 . S
C1203 C1202 1.372 . S
C1203 C1204 1.400 . S
C1203 C1208 1.490 . S
C1204 H1194 0.930 . S
C1204 C1203 1.400 . S
C1204 C1207 1.386 . S
H1205 C1221 0.930 . S
H1206 C1222 0.931 . S
C1207 H1195 0.929 . S
C1207 C1201 1.390 . S
C1207 C1204 1.386 . S
C1208 C1203 1.490 . S
C1208 C1210 1.395 . S
C1208 C1211 1.403 . S
H1209 C1215 0.930 . S
C1210 H1196 0.930 . S
C1210 C1208 1.395 . S
C1210 C1213 1.403 . S
C1211 C1208 1.403 . S
C1211 C1212 1.524 . S
C1211 C1215 1.400 . S
C1212 H1197 0.960 . S
C1212 H1198 0.960 . S
C1212 H1199 0.960 . S
C1212 C1211 1.524 . S
C1213 C1210 1.403 . S
C1213 C1214 1.392 . S
C1213 C1217 1.495 . S
C1214 C1213 1.392 . S
C1214 C1215 1.385 . S
C1214 C1216 1.478 . S
C1215 H1209 0.930 . S
C1215 C1211 1.400 . S
C1215 C1214 1.385 . S
C1216 C1214 1.478 . S
C1216 C1218 1.381 . S
C1216 C1222 1.383 . S
C1217 C1213 1.495 . S
C1217 H1223 0.959 . S
C1217 H1224 0.961 . S
C1217 H1225 0.960 . S
C1218 C1216 1.381 . S
C1218 C1219 1.394 . S
C1218 H1226 0.930 . S
C1219 C1218 1.394 . S
C1219 C1220 1.383 . S
C1219 H1227 0.929 . S
C1220 C1219 1.383 . S
C1220 C1221 1.377 . S
C1221 H1205 0.930 . S
C1221 C1220 1.377 . S
C1221 C1222 1.379 . S
C1222 H1206 0.931 . S
C1222 C1216 1.383 . S
C1222 C1221 1.379 . S
H1223 C1217 0.959 . S
H1224 C1217 0.961 . S
H1225 C1217 0.960 . S
H1226 C1218 0.930 . S
H1227 C1219 0.929 . S
H1228 C1236 0.929 . S
H1229 C1238 0.930 . S
H1230 C1240 0.930 . S
H1231 C1243 0.929 . S
H1232 C1246 0.930 . S
H1233 C1248 0.960 . S
H1234 C1248 0.960 . S
H1235 C1248 0.960 . S
C1236 H1228 0.929 . S
C1236 C1237 1.377 . S
C1236 C1238 1.384 . S
C1237 C1236 1.377 . S
C1237 C1243 1.390 . S
C1238 H1229 0.930 . S
C1238 C1236 1.384 . S
C1238 C1239 1.372 . S
C1239 C1238 1.372 . S
C1239 C1240 1.400 . S
C1239 C1244 1.490 . S
C1240 H1230 0.930 . S
C1240 C1239 1.400 . S
C1240 C1243 1.386 . S
H1241 C1257 0.930 . S
H1242 C1258 0.931 . S
C1243 H1231 0.929 . S
C1243 C1237 1.390 . S
C1243 C1240 1.386 . S
C1244 C1239 1.490 . S
C1244 C1246 1.395 . S
C1244 C1247 1.403 . S
H1245 C1251 0.930 . S
C1246 H1232 0.930 . S
C1246 C1244 1.395 . S
C1246 C1249 1.403 . S
C1247 C1244 1.403 . S
C1247 C1248 1.524 . S
C1247 C1251 1.400 . S
C1248 H1233 0.960 . S
C1248 H1234 0.960 . S
C1248 H1235 0.960 . S
C1248 C1247 1.524 . S
C1249 C1246 1.403 . S
C1249 C1250 1.392 . S
C1249 C1253 1.495 . S
C1250 C1249 1.392 . S
C1250 C1251 1.385 . S
C1250 C1252 1.478 . S
C1251 H1245 0.930 . S
C1251 C1247 1.400 . S
C1251 C1250 1.385 . S
C1252 C1250 1.478 . S
C1252 C1254 1.381 . S
C1252 C1258 1.383 . S
C1253 C1249 1.495 . S
C1253 H1259 0.959 . S
C1253 H1260 0.961 . S
C1253 H1261 0.960 . S
C1254 C1252 1.381 . S
C1254 C1255 1.394 . S
C1254 H1262 0.930 . S
C1255 C1254 1.394 . S
C1255 C1256 1.383 . S
C1255 H1263 0.929 . S
C1256 C1255 1.383 . S
C1256 C1257 1.377 . S
C1257 H1241 0.930 . S
C1257 C1256 1.377 . S
C1257 C1258 1.379 . S
C1258 H1242 0.931 . S
C1258 C1252 1.383 . S
C1258 C1257 1.379 . S
H1259 C1253 0.959 . S
H1260 C1253 0.961 . S
H1261 C1253 0.960 . S
H1262 C1254 0.930 . S
H1263 C1255 0.929 . S
H1264 C1272 0.929 . S
H1265 C1274 0.930 . S
H1266 C1276 0.930 . S
H1267 C1279 0.929 . S
H1268 C1282 0.930 . S
H1269 C1284 0.960 . S
H1270 C1284 0.960 . S
H1271 C1284 0.960 . S
C1272 H1264 0.929 . S
C1272 C1273 1.377 . S
C1272 C1274 1.384 . S
C1273 C1272 1.377 . S
C1273 C1279 1.390 . S
C1274 H1265 0.930 . S
C1274 C1272 1.384 . S
C1274 C1275 1.372 . S
C1275 C1274 1.372 . S
C1275 C1276 1.400 . S
C1275 C1280 1.490 . S
C1276 H1266 0.930 . S
C1276 C1275 1.400 . S
C1276 C1279 1.386 . S
H1277 C1293 0.930 . S
H1278 C1294 0.931 . S
C1279 H1267 0.929 . S
C1279 C1273 1.390 . S
C1279 C1276 1.386 . S
C1280 C1275 1.490 . S
C1280 C1282 1.395 . S
C1280 C1283 1.403 . S
H1281 C1287 0.930 . S
C1282 H1268 0.930 . S
C1282 C1280 1.395 . S
C1282 C1285 1.403 . S
C1283 C1280 1.403 . S
C1283 C1284 1.524 . S
C1283 C1287 1.400 . S
C1284 H1269 0.960 . S
C1284 H1270 0.960 . S
C1284 H1271 0.960 . S
C1284 C1283 1.524 . S
C1285 C1282 1.403 . S
C1285 C1286 1.392 . S
C1285 C1289 1.495 . S
C1286 C1285 1.392 . S
C1286 C1287 1.385 . S
C1286 C1288 1.478 . S
C1287 H1281 0.930 . S
C1287 C1283 1.400 . S
C1287 C1286 1.385 . S
C1288 C1286 1.478 . S
C1288 C1290 1.381 . S
C1288 C1294 1.383 . S
C1289 C1285 1.495 . S
C1289 H1295 0.959 . S
C1289 H1296 0.961 . S
C1289 H1297 0.960 . S
C1290 C1288 1.381 . S
C1290 C1291 1.394 . S
C1290 H1298 0.930 . S
C1291 C1290 1.394 . S
C1291 C1292 1.383 . S
C1291 H1299 0.929 . S
C1292 C1291 1.383 . S
C1292 C1293 1.377 . S
C1293 H1277 0.930 . S
C1293 C1292 1.377 . S
C1293 C1294 1.379 . S
C1294 H1278 0.931 . S
C1294 C1288 1.383 . S
C1294 C1293 1.379 . S
H1295 C1289 0.959 . S
H1296 C1289 0.961 . S
H1297 C1289 0.960 . S
H1298 C1290 0.930 . S
H1299 C1291 0.929 . S
H1300 C1308 0.929 . S
H1301 C1310 0.930 . S
H1302 C1312 0.930 . S
H1303 C1315 0.929 . S
H1304 C1318 0.930 . S
H1305 C1320 0.960 . S
H1306 C1320 0.960 . S
H1307 C1320 0.960 . S
C1308 H1300 0.929 . S
C1308 C1309 1.377 . S
C1308 C1310 1.384 . S
C1309 C1308 1.377 . S
C1309 C1315 1.390 . S
C1310 H1301 0.930 . S
C1310 C1308 1.384 . S
C1310 C1311 1.372 . S
C1311 C1310 1.372 . S
C1311 C1312 1.400 . S
C1311 C1316 1.490 . S
C1312 H1302 0.930 . S
C1312 C1311 1.400 . S
C1312 C1315 1.386 . S
H1313 C1329 0.930 . S
H1314 C1330 0.931 . S
C1315 H1303 0.929 . S
C1315 C1309 1.390 . S
C1315 C1312 1.386 . S
C1316 C1311 1.490 . S
C1316 C1318 1.395 . S
C1316 C1319 1.403 . S
H1317 C1323 0.930 . S
C1318 H1304 0.930 . S
C1318 C1316 1.395 . S
C1318 C1321 1.403 . S
C1319 C1316 1.403 . S
C1319 C1320 1.524 . S
C1319 C1323 1.400 . S
C1320 H1305 0.960 . S
C1320 H1306 0.960 . S
C1320 H1307 0.960 . S
C1320 C1319 1.524 . S
C1321 C1318 1.403 . S
C1321 C1322 1.392 . S
C1321 C1325 1.495 . S
C1322 C1321 1.392 . S
C1322 C1323 1.385 . S
C1322 C1324 1.478 . S
C1323 H1317 0.930 . S
C1323 C1319 1.400 . S
C1323 C1322 1.385 . S
C1324 C1322 1.478 . S
C1324 C1326 1.381 . S
C1324 C1330 1.383 . S
C1325 C1321 1.495 . S
C1325 H1331 0.959 . S
C1325 H1332 0.961 . S
C1325 H1333 0.960 . S
C1326 C1324 1.381 . S
C1326 C1327 1.394 . S
C1326 H1334 0.930 . S
C1327 C1326 1.394 . S
C1327 C1328 1.383 . S
C1327 H1335 0.929 . S
C1328 C1327 1.383 . S
C1328 C1329 1.377 . S
C1329 H1313 0.930 . S
C1329 C1328 1.377 . S
C1329 C1330 1.379 . S
C1330 H1314 0.931 . S
C1330 C1324 1.383 . S
C1330 C1329 1.379 . S
H1331 C1325 0.959 . S
H1332 C1325 0.961 . S
H1333 C1325 0.960 . S
H1334 C1326 0.930 . S
H1335 C1327 0.929 . S
H1336 C1344 0.929 . S
H1337 C1346 0.930 . S
H1338 C1348 0.930 . S
H1339 C1351 0.929 . S
H1340 C1354 0.930 . S
H1341 C1356 0.960 . S
H1342 C1356 0.960 . S
H1343 C1356 0.960 . S
C1344 H1336 0.929 . S
C1344 C1345 1.377 . S
C1344 C1346 1.384 . S
C1345 C1344 1.377 . S
C1345 C1351 1.390 . S
C1346 H1337 0.930 . S
C1346 C1344 1.384 . S
C1346 C1347 1.372 . S
C1347 C1346 1.372 . S
C1347 C1348 1.400 . S
C1347 C1352 1.490 . S
C1348 H1338 0.930 . S
C1348 C1347 1.400 . S
C1348 C1351 1.386 . S
H1349 C1365 0.930 . S
H1350 C1366 0.931 . S
C1351 H1339 0.929 . S
C1351 C1345 1.390 . S
C1351 C1348 1.386 . S
C1352 C1347 1.490 . S
C1352 C1354 1.395 . S
C1352 C1355 1.403 . S
H1353 C1359 0.930 . S
C1354 H1340 0.930 . S
C1354 C1352 1.395 . S
C1354 C1357 1.403 . S
C1355 C1352 1.403 . S
C1355 C1356 1.524 . S
C1355 C1359 1.400 . S
C1356 H1341 0.960 . S
C1356 H1342 0.960 . S
C1356 H1343 0.960 . S
C1356 C1355 1.524 . S
C1357 C1354 1.403 . S
C1357 C1358 1.392 . S
C1357 C1361 1.495 . S
C1358 C1357 1.392 . S
C1358 C1359 1.385 . S
C1358 C1360 1.478 . S
C1359 H1353 0.930 . S
C1359 C1355 1.400 . S
C1359 C1358 1.385 . S
C1360 C1358 1.478 . S
C1360 C1362 1.381 . S
C1360 C1366 1.383 . S
C1361 C1357 1.495 . S
C1361 H1367 0.959 . S
C1361 H1368 0.961 . S
C1361 H1369 0.960 . S
C1362 C1360 1.381 . S
C1362 C1363 1.394 . S
C1362 H1370 0.930 . S
C1363 C1362 1.394 . S
C1363 C1364 1.383 . S
C1363 H1371 0.929 . S
C1364 C1363 1.383 . S
C1364 C1365 1.377 . S
C1365 H1349 0.930 . S
C1365 C1364 1.377 . S
C1365 C1366 1.379 . S
C1366 H1350 0.931 . S
C1366 C1360 1.383 . S
C1366 C1365 1.379 . S
H1367 C1361 0.959 . S
H1368 C1361 0.961 . S
H1369 C1361 0.960 . S
H1370 C1362 0.930 . S
H1371 C1363 0.929 . S
H1372 C1380 0.929 . S
H1373 C1382 0.930 . S
H1374 C1384 0.930 . S
H1375 C1387 0.929 . S
H1376 C1390 0.930 . S
H1377 C1392 0.960 . S
H1378 C1392 0.960 . S
H1379 C1392 0.960 . S
C1380 H1372 0.929 . S
C1380 C1381 1.377 . S
C1380 C1382 1.384 . S
C1381 C1380 1.377 . S
C1381 C1387 1.390 . S
C1382 H1373 0.930 . S
C1382 C1380 1.384 . S
C1382 C1383 1.372 . S
C1383 C1382 1.372 . S
C1383 C1384 1.400 . S
C1383 C1388 1.490 . S
C1384 H1374 0.930 . S
C1384 C1383 1.400 . S
C1384 C1387 1.386 . S
H1385 C1401 0.930 . S
H1386 C1402 0.931 . S
C1387 H1375 0.929 . S
C1387 C1381 1.390 . S
C1387 C1384 1.386 . S
C1388 C1383 1.490 . S
C1388 C1390 1.395 . S
C1388 C1391 1.403 . S
H1389 C1395 0.930 . S
C1390 H1376 0.930 . S
C1390 C1388 1.395 . S
C1390 C1393 1.403 . S
C1391 C1388 1.403 . S
C1391 C1392 1.524 . S
C1391 C1395 1.400 . S
C1392 H1377 0.960 . S
C1392 H1378 0.960 . S
C1392 H1379 0.960 . S
C1392 C1391 1.524 . S
C1393 C1390 1.403 . S
C1393 C1394 1.392 . S
C1393 C1397 1.495 . S
C1394 C1393 1.392 . S
C1394 C1395 1.385 . S
C1394 C1396 1.478 . S
C1395 H1389 0.930 . S
C1395 C1391 1.400 . S
C1395 C1394 1.385 . S
C1396 C1394 1.478 . S
C1396 C1398 1.381 . S
C1396 C1402 1.383 . S
C1397 C1393 1.495 . S
C1397 H1403 0.959 . S
C1397 H1404 0.961 . S
C1397 H1405 0.960 . S
C1398 C1396 1.381 . S
C1398 C1399 1.394 . S
C1398 H1406 0.930 . S
C1399 C1398 1.394 . S
C1399 C1400 1.383 . S
C1399 H1407 0.929 . S
C1400 C1399 1.383 . S
C1400 C1401 1.377 . S
C1401 H1385 0.930 . S
C1401 C1400 1.377 . S
C1401 C1402 1.379 . S
C1402 H1386 0.931 . S
C1402 C1396 1.383 . S
C1402 C1401 1.379 . S
H1403 C1397 0.959 . S
H1404 C1397 0.961 . S
H1405 C1397 0.960 . S
H1406 C1398 0.930 . S
H1407 C1399 0.929 . S
H1408 C1416 0.929 . S
H1409 C1418 0.930 . S
H1410 C1420 0.930 . S
H1411 C1423 0.929 . S
H1412 C1426 0.930 . S
H1413 C1428 0.960 . S
H1414 C1428 0.960 . S
H1415 C1428 0.960 . S
C1416 H1408 0.929 . S
C1416 C1417 1.377 . S
C1416 C1418 1.384 . S
C1417 C1416 1.377 . S
C1417 C1423 1.390 . S
C1418 H1409 0.930 . S
C1418 C1416 1.384 . S
C1418 C1419 1.372 . S
C1419 C1418 1.372 . S
C1419 C1420 1.400 . S
C1419 C1424 1.490 . S
C1420 H1410 0.930 . S
C1420 C1419 1.400 . S
C1420 C1423 1.386 . S
H1421 C1437 0.930 . S
H1422 C1438 0.931 . S
C1423 H1411 0.929 . S
C1423 C1417 1.390 . S
C1423 C1420 1.386 . S
C1424 C1419 1.490 . S
C1424 C1426 1.395 . S
C1424 C1427 1.403 . S
H1425 C1431 0.930 . S
C1426 H1412 0.930 . S
C1426 C1424 1.395 . S
C1426 C1429 1.403 . S
C1427 C1424 1.403 . S
C1427 C1428 1.524 . S
C1427 C1431 1.400 . S
C1428 H1413 0.960 . S
C1428 H1414 0.960 . S
C1428 H1415 0.960 . S
C1428 C1427 1.524 . S
C1429 C1426 1.403 . S
C1429 C1430 1.392 . S
C1429 C1433 1.495 . S
C1430 C1429 1.392 . S
C1430 C1431 1.385 . S
C1430 C1432 1.478 . S
C1431 H1425 0.930 . S
C1431 C1427 1.400 . S
C1431 C1430 1.385 . S
C1432 C1430 1.478 . S
C1432 C1434 1.381 . S
C1432 C1438 1.383 . S
C1433 C1429 1.495 . S
C1433 H1439 0.959 . S
C1433 H1440 0.961 . S
C1433 H1441 0.960 . S
C1434 C1432 1.381 . S
C1434 C1435 1.394 . S
C1434 H1442 0.930 . S
C1435 C1434 1.394 . S
C1435 C1436 1.383 . S
C1435 H1443 0.929 . S
C1436 C1435 1.383 . S
C1436 C1437 1.377 . S
C1437 H1421 0.930 . S
C1437 C1436 1.377 . S
C1437 C1438 1.379 . S
C1438 H1422 0.931 . S
C1438 C1432 1.383 . S
C1438 C1437 1.379 . S
H1439 C1433 0.959 . S
H1440 C1433 0.961 . S
H1441 C1433 0.960 . S
H1442 C1434 0.930 . S
H1443 C1435 0.929 . S
H1444 C1452 0.929 . S
H1445 C1454 0.930 . S
H1446 C1456 0.930 . S
H1447 C1459 0.929 . S
H1448 C1462 0.930 . S
H1449 C1464 0.960 . S
H1450 C1464 0.960 . S
H1451 C1464 0.960 . S
C1452 H1444 0.929 . S
C1452 C1453 1.377 . S
C1452 C1454 1.384 . S
C1453 C1452 1.377 . S
C1453 C1459 1.390 . S
C1454 H1445 0.930 . S
C1454 C1452 1.384 . S
C1454 C1455 1.372 . S
C1455 C1454 1.372 . S
C1455 C1456 1.400 . S
C1455 C1460 1.490 . S
C1456 H1446 0.930 . S
C1456 C1455 1.400 . S
C1456 C1459 1.386 . S
H1457 C1473 0.930 . S
H1458 C1474 0.931 . S
C1459 H1447 0.929 . S
C1459 C1453 1.390 . S
C1459 C1456 1.386 . S
C1460 C1455 1.490 . S
C1460 C1462 1.395 . S
C1460 C1463 1.403 . S
H1461 C1467 0.930 . S
C1462 H1448 0.930 . S
C1462 C1460 1.395 . S
C1462 C1465 1.403 . S
C1463 C1460 1.403 . S
C1463 C1464 1.524 . S
C1463 C1467 1.400 . S
C1464 H1449 0.960 . S
C1464 H1450 0.960 . S
C1464 H1451 0.960 . S
C1464 C1463 1.524 . S
C1465 C1462 1.403 . S
C1465 C1466 1.392 . S
C1465 C1469 1.495 . S
C1466 C1465 1.392 . S
C1466 C1467 1.385 . S
C1466 C1468 1.478 . S
C1467 H1461 0.930 . S
C1467 C1463 1.400 . S
C1467 C1466 1.385 . S
C1468 C1466 1.478 . S
C1468 C1470 1.381 . S
C1468 C1474 1.383 . S
C1469 C1465 1.495 . S
C1469 H1475 0.959 . S
C1469 H1476 0.961 . S
C1469 H1477 0.960 . S
C1470 C1468 1.381 . S
C1470 C1471 1.394 . S
C1470 H1478 0.930 . S
C1471 C1470 1.394 . S
C1471 C1472 1.383 . S
C1471 H1479 0.929 . S
C1472 C1471 1.383 . S
C1472 C1473 1.377 . S
C1473 H1457 0.930 . S
C1473 C1472 1.377 . S
C1473 C1474 1.379 . S
C1474 H1458 0.931 . S
C1474 C1468 1.383 . S
C1474 C1473 1.379 . S
H1475 C1469 0.959 . S
H1476 C1469 0.961 . S
H1477 C1469 0.960 . S
H1478 C1470 0.930 . S
H1479 C1471 0.929 . S
H1480 C1488 0.929 . S
H1481 C1490 0.930 . S
H1482 C1492 0.930 . S
H1483 C1495 0.929 . S
H1484 C1498 0.930 . S
H1485 C1500 0.960 . S
H1486 C1500 0.960 . S
H1487 C1500 0.960 . S
C1488 H1480 0.929 . S
C1488 C1489 1.377 . S
C1488 C1490 1.384 . S
C1489 C1488 1.377 . S
C1489 C1495 1.390 . S
C1490 H1481 0.930 . S
C1490 C1488 1.384 . S
C1490 C1491 1.372 . S
C1491 C1490 1.372 . S
C1491 C1492 1.400 . S
C1491 C1496 1.490 . S
C1492 H1482 0.930 . S
C1492 C1491 1.400 . S
C1492 C1495 1.386 . S
H1493 C1509 0.930 . S
H1494 C1510 0.931 . S
C1495 H1483 0.929 . S
C1495 C1489 1.390 . S
C1495 C1492 1.386 . S
C1496 C1491 1.490 . S
C1496 C1498 1.395 . S
C1496 C1499 1.403 . S
H1497 C1503 0.930 . S
C1498 H1484 0.930 . S
C1498 C1496 1.395 . S
C1498 C1501 1.403 . S
C1499 C1496 1.403 . S
C1499 C1500 1.524 . S
C1499 C1503 1.400 . S
C1500 H1485 0.960 . S
C1500 H1486 0.960 . S
C1500 H1487 0.960 . S
C1500 C1499 1.524 . S
C1501 C1498 1.403 . S
C1501 C1502 1.392 . S
C1501 C1505 1.495 . S
C1502 C1501 1.392 . S
C1502 C1503 1.385 . S
C1502 C1504 1.478 . S
C1503 H1497 0.930 . S
C1503 C1499 1.400 . S
C1503 C1502 1.385 . S
C1504 C1502 1.478 . S
C1504 C1506 1.381 . S
C1504 C1510 1.383 . S
C1505 C1501 1.495 . S
C1505 H1511 0.959 . S
C1505 H1512 0.961 . S
C1505 H1513 0.960 . S
C1506 C1504 1.381 . S
C1506 C1507 1.394 . S
C1506 H1514 0.930 . S
C1507 C1506 1.394 . S
C1507 C1508 1.383 . S
C1507 H1515 0.929 . S
C1508 C1507 1.383 . S
C1508 C1509 1.377 . S
C1509 H1493 0.930 . S
C1509 C1508 1.377 . S
C1509 C1510 1.379 . S
C1510 H1494 0.931 . S
C1510 C1504 1.383 . S
C1510 C1509 1.379 . S
H1511 C1505 0.959 . S
H1512 C1505 0.961 . S
H1513 C1505 0.960 . S
H1514 C1506 0.930 . S
H1515 C1507 0.929 . S
H1516 C1524 0.929 . S
H1517 C1526 0.930 . S
H1518 C1528 0.930 . S
H1519 C1531 0.929 . S
H1520 C1534 0.930 . S
H1521 C1536 0.960 . S
H1522 C1536 0.960 . S
H1523 C1536 0.960 . S
C1524 H1516 0.929 . S
C1524 C1525 1.377 . S
C1524 C1526 1.384 . S
C1525 C1524 1.377 . S
C1525 C1531 1.390 . S
C1526 H1517 0.930 . S
C1526 C1524 1.384 . S
C1526 C1527 1.372 . S
C1527 C1526 1.372 . S
C1527 C1528 1.400 . S
C1527 C1532 1.490 . S
C1528 H1518 0.930 . S
C1528 C1527 1.400 . S
C1528 C1531 1.386 . S
H1529 C1545 0.930 . S
H1530 C1546 0.931 . S
C1531 H1519 0.929 . S
C1531 C1525 1.390 . S
C1531 C1528 1.386 . S
C1532 C1527 1.490 . S
C1532 C1534 1.395 . S
C1532 C1535 1.403 . S
H1533 C1539 0.930 . S
C1534 H1520 0.930 . S
C1534 C1532 1.395 . S
C1534 C1537 1.403 . S
C1535 C1532 1.403 . S
C1535 C1536 1.524 . S
C1535 C1539 1.400 . S
C1536 H1521 0.960 . S
C1536 H1522 0.960 . S
C1536 H1523 0.960 . S
C1536 C1535 1.524 . S
C1537 C1534 1.403 . S
C1537 C1538 1.392 . S
C1537 C1541 1.495 . S
C1538 C1537 1.392 . S
C1538 C1539 1.385 . S
C1538 C1540 1.478 . S
C1539 H1533 0.930 . S
C1539 C1535 1.400 . S
C1539 C1538 1.385 . S
C1540 C1538 1.478 . S
C1540 C1542 1.381 . S
C1540 C1546 1.383 . S
C1541 C1537 1.495 . S
C1541 H1547 0.959 . S
C1541 H1548 0.961 . S
C1541 H1549 0.960 . S
C1542 C1540 1.381 . S
C1542 C1543 1.394 . S
C1542 H1550 0.930 . S
C1543 C1542 1.394 . S
C1543 C1544 1.383 . S
C1543 H1551 0.929 . S
C1544 C1543 1.383 . S
C1544 C1545 1.377 . S
C1545 H1529 0.930 . S
C1545 C1544 1.377 . S
C1545 C1546 1.379 . S
C1546 H1530 0.931 . S
C1546 C1540 1.383 . S
C1546 C1545 1.379 . S
H1547 C1541 0.959 . S
H1548 C1541 0.961 . S
H1549 C1541 0.960 . S
H1550 C1542 0.930 . S
H1551 C1543 0.929 . S
H1552 C1560 0.929 . S
H1553 C1562 0.930 . S
H1554 C1564 0.930 . S
H1555 C1567 0.929 . S
H1556 C1570 0.930 . S
H1557 C1572 0.960 . S
H1558 C1572 0.960 . S
H1559 C1572 0.960 . S
C1560 H1552 0.929 . S
C1560 C1561 1.377 . S
C1560 C1562 1.384 . S
C1561 C1560 1.377 . S
C1561 C1567 1.390 . S
C1562 H1553 0.930 . S
C1562 C1560 1.384 . S
C1562 C1563 1.372 . S
C1563 C1562 1.372 . S
C1563 C1564 1.400 . S
C1563 C1568 1.490 . S
C1564 H1554 0.930 . S
C1564 C1563 1.400 . S
C1564 C1567 1.386 . S
H1565 C1581 0.930 . S
H1566 C1582 0.931 . S
C1567 H1555 0.929 . S
C1567 C1561 1.390 . S
C1567 C1564 1.386 . S
C1568 C1563 1.490 . S
C1568 C1570 1.395 . S
C1568 C1571 1.403 . S
H1569 C1575 0.930 . S
C1570 H1556 0.930 . S
C1570 C1568 1.395 . S
C1570 C1573 1.403 . S
C1571 C1568 1.403 . S
C1571 C1572 1.524 . S
C1571 C1575 1.400 . S
C1572 H1557 0.960 . S
C1572 H1558 0.960 . S
C1572 H1559 0.960 . S
C1572 C1571 1.524 . S
C1573 C1570 1.403 . S
C1573 C1574 1.392 . S
C1573 C1577 1.495 . S
C1574 C1573 1.392 . S
C1574 C1575 1.385 . S
C1574 C1576 1.478 . S
C1575 H1569 0.930 . S
C1575 C1571 1.400 . S
C1575 C1574 1.385 . S
C1576 C1574 1.478 . S
C1576 C1578 1.381 . S
C1576 C1582 1.383 . S
C1577 C1573 1.495 . S
C1577 H1583 0.959 . S
C1577 H1584 0.961 . S
C1577 H1585 0.960 . S
C1578 C1576 1.381 . S
C1578 C1579 1.394 . S
C1578 H1586 0.930 . S
C1579 C1578 1.394 . S
C1579 C1580 1.383 . S
C1579 H1587 0.929 . S
C1580 C1579 1.383 . S
C1580 C1581 1.377 . S
C1581 H1565 0.930 . S
C1581 C1580 1.377 . S
C1581 C1582 1.379 . S
C1582 H1566 0.931 . S
C1582 C1576 1.383 . S
C1582 C1581 1.379 . S
H1583 C1577 0.959 . S
H1584 C1577 0.961 . S
H1585 C1577 0.960 . S
H1586 C1578 0.930 . S
H1587 C1579 0.929 . S
H1588 C1596 0.929 . S
H1589 C1598 0.930 . S
H1590 C1600 0.930 . S
H1591 C1603 0.929 . S
H1592 C1606 0.930 . S
H1593 C1608 0.960 . S
H1594 C1608 0.960 . S
H1595 C1608 0.960 . S
C1596 H1588 0.929 . S
C1596 C1597 1.377 . S
C1596 C1598 1.384 . S
C1597 C1596 1.377 . S
C1597 C1603 1.390 . S
C1598 H1589 0.930 . S
C1598 C1596 1.384 . S
C1598 C1599 1.372 . S
C1599 C1598 1.372 . S
C1599 C1600 1.400 . S
C1599 C1604 1.490 . S
C1600 H1590 0.930 . S
C1600 C1599 1.400 . S
C1600 C1603 1.386 . S
H1601 C1617 0.930 . S
H1602 C1618 0.931 . S
C1603 H1591 0.929 . S
C1603 C1597 1.390 . S
C1603 C1600 1.386 . S
C1604 C1599 1.490 . S
C1604 C1606 1.395 . S
C1604 C1607 1.403 . S
H1605 C1611 0.930 . S
C1606 H1592 0.930 . S
C1606 C1604 1.395 . S
C1606 C1609 1.403 . S
C1607 C1604 1.403 . S
C1607 C1608 1.524 . S
C1607 C1611 1.400 . S
C1608 H1593 0.960 . S
C1608 H1594 0.960 . S
C1608 H1595 0.960 . S
C1608 C1607 1.524 . S
C1609 C1606 1.403 . S
C1609 C1610 1.392 . S
C1609 C1613 1.495 . S
C1610 C1609 1.392 . S
C1610 C1611 1.385 . S
C1610 C1612 1.478 . S
C1611 H1605 0.930 . S
C1611 C1607 1.400 . S
C1611 C1610 1.385 . S
C1612 C1610 1.478 . S
C1612 C1614 1.381 . S
C1612 C1618 1.383 . S
C1613 C1609 1.495 . S
C1613 H1619 0.959 . S
C1613 H1620 0.961 . S
C1613 H1621 0.960 . S
C1614 C1612 1.381 . S
C1614 C1615 1.394 . S
C1614 H1622 0.930 . S
C1615 C1614 1.394 . S
C1615 C1616 1.383 . S
C1615 H1623 0.929 . S
C1616 C1615 1.383 . S
C1616 C1617 1.377 . S
C1617 H1601 0.930 . S
C1617 C1616 1.377 . S
C1617 C1618 1.379 . S
C1618 H1602 0.931 . S
C1618 C1612 1.383 . S
C1618 C1617 1.379 . S
H1619 C1613 0.959 . S
H1620 C1613 0.961 . S
H1621 C1613 0.960 . S
H1622 C1614 0.930 . S
H1623 C1615 0.929 . S
C500 C381 1.211 . S
C481 C8 1.251 . S
C536 C399 1.231 . S
C517 C61 1.230 . S
C572 C407 1.203 . S
C553 C107 1.244 . S
C589 C139 1.237 . S
C608 C373 1.229 . S
C625 C192 1.244 . S
C644 C368 1.213 1_556 S
C661 C238 1.239 . S
C680 C386 1.205 . S
C716 C394 1.181 . S
C697 C284 1.253 . S
C752 C412 1.197 . S
C733 C330 1.240 . S
C769 C100 1.243 . S
C788 C433 1.240 . S
C824 C451 1.215 . S
C805 C160 1.232 . S
C841 C15 1.242 . S
C860 C459 1.253 . S
C896 C425 1.149 . S
C877 C54 1.249 . S
C913 C291 1.242 . S
C932 C420 1.228 . S
C949 C337 1.233 . S
C968 C438 1.224 . S
C1004 C446 1.205 1_556 S
C985 C199 1.255 . S
C1021 C245 1.238 . S
C1040 C464 1.194 . S
C1076 C402 1.436 . S
C1057 C1 1.440 . S
C1112 C417 1.393 . S
C1093 C68 1.439 . S
C1129 C114 1.438 . S
C1148 C376 1.433 . S
C1165 C146 1.447 . S
C1184 C391 1.401 . S
C1201 C185 1.440 . S
C1220 C415 1.445 . S
C1256 C378 1.436 . S
C1237 C231 1.443 . S
C1292 C389 1.437 . S
C1273 C277 1.443 . S
C1328 C404 1.436 . S
C1309 C323 1.443 . S
C1364 C454 1.438 . S
C1345 C93 1.444 . S
C1400 C469 1.397 . S
C1381 C153 1.438 . S
C1417 C22 1.437 . S
C1436 C428 1.447 . S
C1472 C443 1.390 . S
C1453 C47 1.451 . S
C1508 C467 1.447 . S
C1489 C298 1.431 . S
C1525 C344 1.439 . S
C1544 C430 1.411 . S
C1580 C441 1.450 . S
C1561 C206 1.439 . S
C1616 C456 1.408 . S
C1597 C252 1.439 . S
