# Generated by pormake.
# Topology zzz, (3,6)-cn, num edge types: 1
# Building blocks:
#     Node 0, Type 0, BuildingBlock: BETDAH_clean_linker_0, # of connection points: 3
#     Node 1, Type 0, BuildingBlock: BETDAH_clean_linker_0, # of connection points: 3
#     Node 2, Type 0, BuildingBlock: BETDAH_clean_linker_0, # of connection points: 3
#     Node 3, Type 0, BuildingBlock: BETDAH_clean_linker_0, # of connection points: 3
#     Node 4, Type 0, BuildingBlock: BETDAH_clean_linker_0, # of connection points: 3
#     Node 5, Type 0, BuildingBlock: BETDAH_clean_linker_0, # of connection points: 3
#     Node 6, Type 0, BuildingBlock: BETDAH_clean_linker_0, # of connection points: 3
#     Node 7, Type 0, BuildingBlock: BETDAH_clean_linker_0, # of connection points: 3
#     Node 8, Type 1, BuildingBlock: KUMBUR_clean_sbu_1, # of connection points: 6
#     Node 9, Type 1, BuildingBlock: KUMBUR_clean_sbu_1, # of connection points: 6
#     Node 10, Type 1, BuildingBlock: KUMBUR_clean_sbu_1, # of connection points: 6
#     Node 11, Type 1, BuildingBlock: KUMBUR_clean_sbu_1, # of connection points: 6
#     Edge 12, Type (0, 1), BuildingBlock: XIVTED_clean_linker_0, # of connection points: 2
#     Edge 13, Type (0, 1), BuildingBlock: XIVTED_clean_linker_0, # of connection points: 2
#     Edge 14, Type (0, 1), BuildingBlock: XIVTED_clean_linker_0, # of connection points: 2
#     Edge 15, Type (0, 1), BuildingBlock: XIVTED_clean_linker_0, # of connection points: 2
#     Edge 16, Type (0, 1), BuildingBlock: XIVTED_clean_linker_0, # of connection points: 2
#     Edge 17, Type (0, 1), BuildingBlock: XIVTED_clean_linker_0, # of connection points: 2
#     Edge 18, Type (0, 1), BuildingBlock: XIVTED_clean_linker_0, # of connection points: 2
#     Edge 19, Type (0, 1), BuildingBlock: XIVTED_clean_linker_0, # of connection points: 2
#     Edge 20, Type (0, 1), BuildingBlock: XIVTED_clean_linker_0, # of connection points: 2
#     Edge 21, Type (0, 1), BuildingBlock: XIVTED_clean_linker_0, # of connection points: 2
#     Edge 22, Type (0, 1), BuildingBlock: XIVTED_clean_linker_0, # of connection points: 2
#     Edge 23, Type (0, 1), BuildingBlock: XIVTED_clean_linker_0, # of connection points: 2
#     Edge 24, Type (0, 1), BuildingBlock: XIVTED_clean_linker_0, # of connection points: 2
#     Edge 25, Type (0, 1), BuildingBlock: XIVTED_clean_linker_0, # of connection points: 2
#     Edge 26, Type (0, 1), BuildingBlock: XIVTED_clean_linker_0, # of connection points: 2
#     Edge 27, Type (0, 1), BuildingBlock: XIVTED_clean_linker_0, # of connection points: 2
#     Edge 28, Type (0, 1), BuildingBlock: XIVTED_clean_linker_0, # of connection points: 2
#     Edge 29, Type (0, 1), BuildingBlock: XIVTED_clean_linker_0, # of connection points: 2
#     Edge 30, Type (0, 1), BuildingBlock: XIVTED_clean_linker_0, # of connection points: 2
#     Edge 31, Type (0, 1), BuildingBlock: XIVTED_clean_linker_0, # of connection points: 2
#     Edge 32, Type (0, 1), BuildingBlock: XIVTED_clean_linker_0, # of connection points: 2
#     Edge 33, Type (0, 1), BuildingBlock: XIVTED_clean_linker_0, # of connection points: 2
#     Edge 34, Type (0, 1), BuildingBlock: XIVTED_clean_linker_0, # of connection points: 2
#     Edge 35, Type (0, 1), BuildingBlock: XIVTED_clean_linker_0, # of connection points: 2
# Relax obj value: 0.181
# Max RMSD: 0.105
# Mean RMSD: 0.081
data_MOF--net-zzz--node1-KUMBUR_clean_sbu_1--node2-BETDAH_clean_linker_0--edge1-XIVTED_clean_linker_0
_symmetry_space_group_name_H-M    P1
_symmetry_Int_Tables_number       1
_symmetry_cell_setting            triclinic
loop_
_symmetry_equiv_pos_as_xyz
'x, y, z'
_cell_length_a     49.85058
_cell_length_b     49.731201
_cell_length_c     15.716449
_cell_angle_alpha  90.075066
_cell_angle_beta   90.129571
_cell_angle_gamma 90.203568
loop_
_atom_site_label
_atom_site_type_symbol
_atom_site_fract_x
_atom_site_fract_y
_atom_site_fract_z
_atom_type_partial_charge
H0 H 0.83318 0.57198 0.24565 0.0
H1 H 0.75094 0.56862 0.16434 0.0
H2 H 0.77203 0.54787 0.42246 0.0
C3 C 0.81216 0.56885 0.26027 0.0
C4 C 0.80514 0.56042 0.34242 0.0
C5 C 0.79281 0.5714 0.19552 0.0
C6 C 0.76579 0.56635 0.21417 0.0
C7 C 0.75793 0.55789 0.29565 0.0
C8 C 0.77782 0.5547 0.3597 0.0
N9 N 0.73038 0.55203 0.31356 0.0
C10 C 0.70972 0.55229 0.2525 0.0
H11 H 0.97343 0.82934 0.29029 0.0
H12 H 0.98588 0.75078 0.18489 0.0
H13 H 0.02909 0.77574 0.41046 0.0
C14 C 0.98237 0.80954 0.29491 0.0
C15 C 1.00114 0.80484 0.35947 0.0
C16 C 0.97695 0.79036 0.23151 0.0
C17 C 0.98985 0.76537 0.2346 0.0
C18 C 1.00844 0.75966 0.29968 0.0
C19 C 1.0143 0.7797 0.36148 0.0
N20 N 0.02198 0.73439 0.30284 0.0
C21 C 0.01969 0.71412 0.24103 0.0
H22 H 0.72258 0.99016 0.27673 0.0
H23 H 0.79953 0.9945 0.15537 0.0
H24 H 0.7877 0.03017 0.40357 0.0
C25 C 0.74369 0.99557 0.27926 0.0
C26 C 0.75304 1.01038 0.34876 0.0
C27 C 0.76024 0.98978 0.20962 0.0
C28 C 0.78709 0.99832 0.21043 0.0
C29 C 0.79745 1.01234 0.28139 0.0
C30 C 0.7802 1.01843 0.35044 0.0
N31 N 0.82463 0.02148 0.28389 0.0
C32 C 0.8433 1.01891 0.21787 0.0
H33 H 0.56094 0.72654 0.24643 0.0
H34 H 0.55777 0.80775 0.15457 0.0
H35 H 0.55074 0.79156 0.42346 0.0
C36 C 0.55983 0.74795 0.25892 0.0
C37 C 0.55659 0.75664 0.34307 0.0
C38 C 0.55994 0.76617 0.19069 0.0
C39 C 0.55747 0.79375 0.20727 0.0
C40 C 0.55414 0.80325 0.29086 0.0
C41 C 0.55349 0.78449 0.35886 0.0
N42 N 0.55103 0.83136 0.30741 0.0
C43 C 0.54989 0.85127 0.2442 0.0
H44 H 0.22619 0.50127 0.12349 0.0
H45 H 0.30755 0.5044 0.21338 0.0
H46 H 0.29048 0.51133 0.94477 0.0
C47 C 0.24752 0.50237 0.11045 0.0
C48 C 0.25588 0.50559 0.02608 0.0
C49 C 0.26593 0.5022 0.17822 0.0
C50 C 0.29341 0.50469 0.161 0.0
C51 C 0.30263 0.50795 0.07713 0.0
C52 C 0.28364 0.50863 1.00957 0.0
N53 N 0.33066 0.51091 0.05978 0.0
C54 C 0.35086 0.5117 0.12229 0.0
H55 H 0.04424 0.22689 0.12594 0.0
H56 H 0.0521 0.3079 0.21617 0.0
H57 H 0.04904 0.29178 0.94588 0.0
C58 C 0.04664 0.24816 0.11244 0.0
C59 C 0.04638 0.25686 0.02775 0.0
C60 C 0.04872 0.26638 0.18011 0.0
C61 C 0.05083 0.29396 0.1633 0.0
C62 C 0.05128 0.30343 0.07894 0.0
C63 C 0.04925 0.28467 1.01099 0.0
N64 N 0.05318 0.33158 0.06126 0.0
C65 C 0.05282 0.35184 0.12351 0.0
H66 H 0.32654 0.05101 0.15413 0.0
H67 H 0.24277 0.05141 0.2082 0.0
H68 H 0.26973 0.04929 0.94678 0.0
C69 C 0.30608 0.05129 0.13055 0.0
C70 C 0.30118 0.04964 0.0426 0.0
C71 C 0.2851 0.0516 0.18949 0.0
C72 C 0.25863 0.05161 0.16123 0.0
C73 C 0.2527 0.05146 0.07367 0.0
C74 C 0.27415 0.05042 1.01419 0.0
N75 N 0.22543 0.05137 0.04522 0.0
C76 C 0.20355 0.05068 0.1012 0.0
H77 H 0.48952 0.33723 0.13938 0.0
H78 H 0.49644 0.25576 0.22666 0.0
H79 H 0.52243 0.27693 0.97418 0.0
C80 C 0.49438 0.31635 0.12733 0.0
C81 C 0.50516 0.30939 0.04785 0.0
C82 C 0.49176 0.29726 0.19291 0.0
C83 C 0.49902 0.27053 0.177 0.0
C84 C 0.51039 0.26291 0.09906 0.0
C85 C 0.51353 0.28254 0.03442 0.0
N86 N 0.5194 0.23595 0.08571 0.0
C87 C 0.51962 0.2159 0.14866 0.0
Tb88 Tb 0.99902 0.04918 0.6035 0.0
C89 C 0.11491 0.03243 0.79563 0.0
N90 N 0.0989 1.01547 0.75123 0.0
C91 C 0.13761 0.993 0.69578 0.0
C92 C 0.14306 0.03106 0.7901 0.0
C93 C 0.10975 0.99501 0.70486 0.0
C94 C 0.15437 1.01141 0.73753 0.0
C95 C 0.11843 0.06566 0.90724 0.0
C96 C 0.10286 0.04931 0.85279 0.0
C97 C 0.14651 0.06575 0.89892 0.0
C98 C 0.15884 0.04844 0.84029 0.0
Tb99 Tb 0.05364 1.02082 0.76426 0.0
N100 N 0.0759 0.04763 0.86052 0.0
C101 C 0.10536 0.08031 0.97083 0.0
C102 C 0.06328 0.06034 0.92642 0.0
C103 C 0.07768 0.0773 0.98125 0.0
H104 H 0.0968 0.98067 0.67311 0.0
H105 H 0.06746 0.08782 0.03198 0.0
H106 H 0.94795 1.00654 0.6115 0.0
H107 H 0.02902 0.11492 0.34808 0.0
H108 H 0.04198 0.05768 0.93615 0.0
H109 H 0.11654 0.09313 1.01409 0.0
H110 H 0.02437 0.10056 0.49808 0.0
H111 H 0.14613 0.97721 0.65697 0.0
H112 H 0.15888 0.07831 0.93961 0.0
H113 H 0.18053 0.04793 0.83658 0.0
H114 H 0.92082 0.97976 0.51022 0.0
H115 H 0.17593 1.00964 0.73128 0.0
H116 H 1.00887 0.08742 0.23269 0.0
N117 N 0.97057 0.02606 0.51489 0.0
C118 C 0.97343 0.03026 0.43042 0.0
C119 C 0.93571 0.99378 0.48678 0.0
C120 C 0.95828 1.01576 0.36999 0.0
C121 C 0.95114 1.00897 0.54403 0.0
C122 C 0.93961 0.99685 0.39925 0.0
N123 N 1.00224 0.06524 0.46751 0.0
C124 C 1.01531 0.08862 0.44815 0.0
C125 C 0.992 0.05806 0.31924 0.0
C126 C 0.98995 0.05084 0.40561 0.0
C127 C 1.00678 0.08109 0.2983 0.0
C128 C 1.01808 0.09672 0.36328 0.0
H129 H 0.92752 0.98525 0.35502 0.0
H130 H 0.95055 1.01013 0.23529 0.0
H131 H 0.97999 0.04752 0.19058 0.0
O132 O 0.96676 0.076 0.58301 0.0
O133 O 1.0027 1.00507 0.61109 0.0
O134 O 0.04708 0.99748 0.64607 0.0
O135 O 0.98306 0.07 0.70772 0.0
O136 O 0.03999 0.05033 0.54836 0.0
O137 O 0.07167 0.03015 0.63913 0.0
O138 O 0.03401 0.98385 0.78087 0.0
O139 O 0.03533 0.06065 0.77765 0.0
O140 O 0.03164 0.07636 0.64359 0.0
O141 O 0.06356 0.99734 0.87131 0.0
O142 O 1.0147 0.03534 0.80733 0.0
O143 O 0.98723 1.02008 0.70348 0.0
C144 C 0.02434 0.98981 0.61012 0.0
C145 C 0.96627 0.11252 0.68204 0.0
C146 C 0.98243 0.15819 0.65648 0.0
C147 C 0.97106 0.16628 0.73422 0.0
C148 C 0.95491 0.12106 0.75897 0.0
C149 C 0.95728 0.14782 0.78478 0.0
C150 C 0.97984 0.13114 0.63076 0.0
C151 C 0.06453 0.04154 0.56611 0.0
C152 C 0.9663 0.08362 0.66241 0.0
C153 C 0.96156 1.02143 0.28299 0.0
C154 C 0.97837 0.04266 0.25757 0.0
C155 C 0.038 0.08048 0.72345 0.0
C156 C 0.02527 0.97376 0.92252 0.0
C157 C 0.99005 0.94391 0.97523 0.0
C158 C 0.98643 0.96132 0.04508 0.0
C159 C 0.02148 0.99082 0.99264 0.0
C160 C 1.00917 0.95082 0.91335 0.0
C161 C 1.00196 0.98466 0.05322 0.0
C162 C 0.99218 0.0236 0.78505 0.0
C163 C 0.04468 0.97991 0.855 0.0
H164 H 0.97316 0.18677 0.75671 0.0
H165 H 0.94476 0.10684 0.80013 0.0
H166 H 0.94879 0.15417 0.84481 0.0
H167 H 0.98839 0.12451 0.57117 0.0
H168 H 0.9723 0.95658 0.09508 0.0
H169 H 0.03331 1.00897 1.00015 0.0
H170 H 1.01175 0.9383 0.85749 0.0
H171 H 0.99905 0.99786 0.10724 0.0
Tb172 Tb 0.54306 0.06094 0.78587 0.0
C173 C 0.54068 0.94978 0.66021 0.0
N174 N 0.54785 0.97207 0.61535 0.0
C175 C 0.588 0.94978 0.56934 0.0
C176 C 0.55767 0.92722 0.66526 0.0
C177 C 0.57023 0.97144 0.56505 0.0
C178 C 0.582 0.92783 0.62121 0.0
C179 C 0.50619 0.9254 0.73746 0.0
C180 C 0.51529 0.94876 0.69576 0.0
C181 C 0.5236 0.90347 0.74675 0.0
C182 C 0.54932 0.9044 0.71089 0.0
Tb183 Tb 0.51749 1.00676 0.62026 0.0
N184 N 0.49922 0.97059 0.68758 0.0
C185 C 0.47971 0.92469 0.76707 0.0
C186 C 0.47293 0.96951 0.71175 0.0
C187 C 0.46288 0.94668 0.75286 0.0
H188 H 0.57444 0.98732 0.52023 0.0
H189 H 0.44221 0.94607 0.77368 0.0
H190 H 0.49052 0.09976 0.81456 0.0
H191 H 0.64689 0.08801 0.72904 0.0
H192 H 0.45988 0.98644 0.7005 0.0
H193 H 0.47192 0.90708 0.79928 0.0
H194 H 0.61032 0.05988 0.78589 0.0
H195 H 0.60607 0.94982 0.53127 0.0
H196 H 0.51715 0.88546 0.77972 0.0
H197 H 0.56225 0.88701 0.71634 0.0
H198 H 0.47739 0.14668 0.78238 0.0
H199 H 0.59564 0.91092 0.62344 0.0
H200 H 0.63677 0.13246 0.66618 0.0
N201 N 0.52935 0.10387 0.7603 0.0
C202 C 0.54781 0.12084 0.72669 0.0
C203 C 0.49719 0.13959 0.76566 0.0
C204 C 0.5413 0.14765 0.70689 0.0
C205 C 0.50463 0.11307 0.78367 0.0
C206 C 0.51545 0.15683 0.72565 0.0
N207 N 0.57933 0.08646 0.74565 0.0
C208 C 0.60544 0.07861 0.75479 0.0
C209 C 0.59402 0.12893 0.68774 0.0
C210 C 0.57368 0.1116 0.71755 0.0
C211 C 0.62054 0.11981 0.68867 0.0
C212 C 0.62633 0.09474 0.72411 0.0
H213 H 0.50965 0.17733 0.71169 0.0
H214 H 0.55639 0.18512 0.65504 0.0
H215 H 0.60265 0.16869 0.63807 0.0
O216 O 0.56236 0.07924 0.89019 0.0
O217 O 0.52008 0.07378 0.67192 0.0
O218 O 0.53263 0.04464 0.56668 0.0
O219 O 0.52633 0.05619 0.90757 0.0
O220 O 0.57353 0.03408 0.72868 0.0
O221 O 0.5573 0.02457 0.59477 0.0
O222 O 0.48695 1.01608 0.53419 0.0
O223 O 0.51627 1.00041 0.75929 0.0
O224 O 0.55534 1.01898 0.80266 0.0
O225 O 0.51073 0.98072 0.51592 0.0
O226 O 0.48468 0.0313 0.67342 0.0
O227 O 0.50073 0.04875 0.80159 0.0
C228 C 0.52605 0.06898 0.5918 0.0
C229 C 0.55971 0.05113 1.01003 0.0
C230 C 0.59428 1.01882 0.04963 0.0
C231 C 0.58286 1.01711 0.13134 0.0
C232 C 0.54863 0.04923 0.09158 0.0
C233 C 0.56016 0.03219 0.15189 0.0
C234 C 0.58228 0.03569 0.98907 0.0
C235 C 0.57747 0.02942 0.64713 0.0
C236 C 0.54662 0.06764 0.94492 0.0
C237 C 0.56105 0.16454 0.67198 0.0
C238 C 0.58738 0.15517 0.66218 0.0
C239 C 0.53751 0.99971 0.80844 0.0
C240 C 0.46423 0.9773 0.48586 0.0
C241 C 0.41524 0.97501 0.4946 0.0
C242 C 0.41612 0.94935 0.45641 0.0
C243 C 0.46461 0.95184 0.44753 0.0
C244 C 0.43965 0.98799 0.51309 0.0
C245 C 0.44067 0.93773 0.43465 0.0
C246 C 0.4809 0.04163 0.75001 0.0
C247 C 0.48908 0.99337 0.49393 0.0
H248 H 0.59183 1.00471 0.18021 0.0
H249 H 0.53097 0.06071 0.10826 0.0
H250 H 0.55161 0.03082 0.215 0.0
H251 H 0.59042 0.03673 0.92529 0.0
H252 H 0.39795 0.93866 0.43946 0.0
H253 H 0.48332 0.94303 0.42665 0.0
H254 H 0.43949 1.00708 0.54609 0.0
H255 H 0.44105 0.91816 0.40444 0.0
Tb256 Tb 0.56004 0.51974 0.60734 0.0
C257 C 0.47365 0.49633 0.86491 0.0
N258 N 0.47232 0.50832 0.7875 0.0
C259 C 0.43366 0.48174 0.75145 0.0
C260 C 0.45581 0.47545 0.88708 0.0
C261 C 0.45197 0.50223 0.73218 0.0
C262 C 0.4358 0.46804 0.82879 0.0
C263 C 0.49422 0.49409 1.00428 0.0
C264 C 0.49253 0.50565 0.92251 0.0
C265 C 0.47748 0.4723 0.02534 0.0
C266 C 0.45823 0.46306 0.96696 0.0
Tb267 Tb 0.50179 0.54267 0.76383 0.0
N268 N 0.5078 0.52727 0.90055 0.0
C269 C 0.51183 0.50552 0.06362 0.0
C270 C 0.52296 0.53999 0.96128 0.0
C271 C 0.52587 0.52888 0.04249 0.0
H272 H 0.45018 0.51296 0.67276 0.0
H273 H 0.53847 0.53872 0.08939 0.0
H274 H 0.61627 0.51812 0.7238 0.0
H275 H 0.54033 0.56304 0.2994 0.0
H276 H 0.53241 0.55911 0.94861 0.0
H277 H 0.51376 0.49723 0.12707 0.0
H278 H 0.5312 0.53421 0.42403 0.0
H279 H 0.41792 0.47655 0.70675 0.0
H280 H 0.47865 0.46303 0.0876 0.0
H281 H 0.44495 0.44674 0.98487 0.0
H282 H 0.6593 0.54232 0.72939 0.0
H283 H 0.42165 0.45213 0.84349 0.0
H284 H 0.5819 0.59037 0.29419 0.0
N285 N 0.60146 0.53984 0.61694 0.0
C286 C 0.60797 0.5569 0.5528 0.0
C287 C 0.64487 0.54697 0.68006 0.0
C288 C 0.63289 0.57041 0.55114 0.0
C289 C 0.62005 0.53376 0.678 0.0
C290 C 0.65119 0.56567 0.61697 0.0
N291 N 0.56651 0.54615 0.49035 0.0
C292 C 0.54915 0.54636 0.4229 0.0
C293 C 0.59623 0.57646 0.41661 0.0
C294 C 0.59002 0.5599 0.48657 0.0
C295 C 0.57787 0.57792 0.34925 0.0
C296 C 0.55436 0.56255 0.35203 0.0
H297 H 0.67056 0.57563 0.61813 0.0
H298 H 0.65796 0.59824 0.48062 0.0
H299 H 0.62582 0.60352 0.36261 0.0
O300 O 0.55205 0.48802 0.52356 0.0
O301 O 0.54494 0.56122 0.59195 0.0
O302 O 0.52876 0.57537 0.72276 0.0
O303 O 0.59206 0.49471 0.57046 0.0
O304 O 0.51836 0.51156 0.56527 0.0
O305 O 0.49393 0.54553 0.62704 0.0
O306 O 0.48075 0.56644 0.85213 0.0
O307 O 0.50634 0.49989 0.72466 0.0
O308 O 0.55144 0.49474 0.71863 0.0
O309 O 0.46761 0.56346 0.72256 0.0
O310 O 0.543 0.55462 0.80325 0.0
O311 O 0.56881 0.52096 0.74491 0.0
C312 C 0.5387 0.58034 0.64654 0.0
C313 C 0.577 0.44966 0.56215 0.0
C314 C 0.55385 0.40703 0.59024 0.0
C315 C 0.57906 0.39504 0.60515 0.0
C316 C 0.60175 0.43719 0.57641 0.0
C317 C 0.60267 0.41017 0.59982 0.0
C318 C 0.55323 0.43484 0.57392 0.0
C319 C 0.49701 0.52718 0.56771 0.0
C320 C 0.57589 0.47788 0.53313 0.0
C321 C 0.63897 0.5876 0.48285 0.0
C322 C 0.62068 0.59059 0.41561 0.0
C323 C 0.5277 0.48489 0.73595 0.0
C324 C 0.46041 0.60447 0.79002 0.0
C325 C 0.47843 0.65007 0.79881 0.0
C326 C 0.453 0.66005 0.77585 0.0
C327 C 0.43531 0.61476 0.76722 0.0
C328 C 0.48196 0.62207 0.80441 0.0
C329 C 0.43169 0.64246 0.75974 0.0
C330 C 0.5651 0.54002 0.802 0.0
C331 C 0.46408 0.5753 0.7951 0.0
H332 H 0.581 0.37372 0.61674 0.0
H333 H 0.62034 0.44827 0.56887 0.0
H334 H 0.62186 0.40059 0.61035 0.0
H335 H 0.53419 0.44493 0.56734 0.0
H336 H 0.44924 0.68145 0.77289 0.0
H337 H 0.41854 0.60136 0.75495 0.0
H338 H 0.50149 0.61385 0.81955 0.0
H339 H 0.4122 0.65035 0.74261 0.0
Tb340 Tb 0.04303 0.56095 0.60448 0.0
C341 C 0.05353 0.45518 0.81789 0.0
N342 N 0.03685 0.46184 0.75283 0.0
C343 C 0.04336 0.41817 0.69067 0.0
C344 C 0.06654 0.43006 0.82044 0.0
C345 C 0.0306 0.44318 0.6919 0.0
C346 C 0.06172 0.41171 0.75458 0.0
C347 C 0.07263 0.46677 0.95516 0.0
C348 C 0.05653 0.47316 0.88426 0.0
C349 C 0.08631 0.44212 0.95699 0.0
C350 C 0.0833 0.42382 0.88966 0.0
Tb351 Tb 1.01758 0.50359 0.76115 0.0
N352 N 0.04325 0.49687 0.87967 0.0
C353 C 0.07409 0.48515 0.02257 0.0
C354 C 0.04343 0.51425 0.94712 0.0
C355 C 0.05916 0.50886 0.01891 0.0
H356 H 1.01515 0.44707 0.64556 0.0
H357 H 0.05963 0.52291 0.07158 0.0
H358 H 1.01421 0.61401 0.68826 0.0
H359 H 0.04206 0.52299 0.28028 0.0
H360 H 0.03161 0.53236 0.94531 0.0
H361 H 0.08618 0.48098 0.07834 0.0
H362 H 0.06093 0.52946 0.4233 0.0
H363 H 0.0386 0.40369 0.64136 0.0
H364 H 0.09889 0.43685 1.01072 0.0
H365 H 0.09358 0.40467 0.89257 0.0
H366 H 0.97912 0.64684 0.64802 0.0
H367 H 0.07132 0.3922 0.75408 0.0
H368 H 1.00148 0.54791 0.23661 0.0
N369 N 1.00981 0.59095 0.57508 0.0
C370 C 0.99844 0.58922 0.49672 0.0
C371 C 0.98419 0.63058 0.60523 0.0
C372 C 0.97831 0.60733 0.47109 0.0
C373 C 1.00393 0.61197 0.62798 0.0
C374 C 0.97101 0.62801 0.52696 0.0
N375 N 0.02901 0.55452 0.46637 0.0
C376 C 0.04215 0.53902 0.40784 0.0
C377 C 0.99727 0.56797 0.35819 0.0
C378 C 1.00792 0.56988 0.44125 0.0
C379 C 1.00905 0.55 0.30097 0.0
C380 C 0.03192 0.53586 0.32546 0.0
H381 H 0.95569 0.6424 0.50955 0.0
H382 H 0.95098 0.61814 0.36938 0.0
H383 H 0.96755 0.5836 0.27042 0.0
O384 O 0.0682 0.58136 0.51835 0.0
O385 O 1.0 0.55786 0.64153 0.0
O386 O 0.99319 0.51281 0.64886 0.0
O387 O 0.06434 0.59485 0.64723 0.0
O388 O 0.05388 0.51924 0.56831 0.0
O389 O 0.01883 0.49465 0.62377 0.0
O390 O 0.98524 0.51233 0.84095 0.0
O391 O 0.05937 0.51791 0.77885 0.0
O392 O 0.07457 0.53326 0.64824 0.0
O393 O 0.99231 0.47177 0.79945 0.0
O394 O 1.01064 0.54556 0.80257 0.0
O395 O 0.04541 0.569 0.74104 0.0
C396 C 0.9841 0.53689 0.63202 0.0
C397 C 0.10618 0.60096 0.58449 0.0
C398 C 0.15138 0.58241 0.57615 0.0
C399 C 0.16166 0.60728 0.60475 0.0
C400 C 0.1168 0.62548 0.61297 0.0
C401 C 0.14443 0.62853 0.62352 0.0
C402 C 0.12341 0.57939 0.56765 0.0
C403 C 0.03849 0.49759 0.56861 0.0
C404 C 0.07702 0.59792 0.57607 0.0
C405 C 0.96672 0.60464 0.39 0.0
C406 C 0.97611 0.58492 0.33373 0.0
C407 C 0.07892 0.52365 0.72532 0.0
C408 C 0.94713 0.48612 0.80555 0.0
C409 C 0.90321 0.50738 0.78624 0.0
C410 C 0.89235 0.48183 0.76677 0.0
C411 C 0.93573 0.461 0.78684 0.0
C412 C 0.93108 0.50925 0.80031 0.0
C413 C 0.90864 0.45902 0.7655 0.0
C414 C 0.02678 0.56662 0.79946 0.0
C415 C 0.97533 0.48817 0.83424 0.0
H416 H 0.18304 0.61072 0.6102 0.0
H417 H 0.1037 0.64222 0.62729 0.0
H418 H 0.15255 0.64758 0.64508 0.0
H419 H 0.11491 0.56024 0.54851 0.0
H420 H 0.87111 0.47886 0.75652 0.0
H421 H 0.94769 0.44287 0.78958 0.0
H422 H 0.94035 0.52866 0.81037 0.0
H423 H 0.89993 0.43953 0.75157 0.0
H424 H 0.15909 0.08224 0.11423 0.0
H425 H 0.10699 1.00788 0.53739 0.0
H426 H 0.20031 1.01642 0.2341 0.0
H427 H 0.06935 0.07879 0.43634 0.0
H428 H 0.14042 1.01015 0.42462 0.0
H429 H 0.1248 0.08044 0.22684 0.0
C430 C 0.1608 0.06735 0.16417 0.0
C431 C 0.18243 0.04939 0.16508 0.0
C432 C 0.1249 0.02531 0.42696 0.0
C433 C 0.14351 0.04726 0.29434 0.0
C434 C 0.1059 0.0242 0.49234 0.0
C435 C 0.08529 0.04331 0.4976 0.0
C436 C 0.12342 0.04567 0.36516 0.0
C437 C 0.08454 0.0634 0.43466 0.0
C438 C 0.14131 0.06636 0.22856 0.0
C439 C 0.18385 0.03055 0.23113 0.0
N440 N 0.10325 0.06407 0.37131 0.0
N441 N 0.16472 0.02998 0.29298 0.0
H442 H 0.54755 0.16927 0.14083 0.0
H443 H 0.4974 0.11623 0.59804 0.0
H444 H 0.49386 0.21387 0.30176 0.0
H445 H 0.55093 0.07172 0.43622 0.0
H446 H 0.49628 0.15239 0.49223 0.0
H447 H 0.54924 0.13349 0.24846 0.0
C448 C 0.53613 0.17151 0.19896 0.0
C449 C 0.52059 0.19456 0.21248 0.0
C450 C 0.50836 0.13477 0.47983 0.0
C451 C 0.52238 0.15369 0.33647 0.0
C452 C 0.50921 0.11419 0.54085 0.0
C453 C 0.52469 0.09104 0.52724 0.0
C454 C 0.52292 0.1322 0.40363 0.0
C455 C 0.53879 0.08918 0.45 0.0
C456 C 0.53708 0.15109 0.26049 0.0
C457 C 0.50615 0.19646 0.28883 0.0
N458 N 0.5376 0.10941 0.39151 0.0
N459 N 0.5074 0.17636 0.34783 0.0
H460 H 0.39835 0.48468 0.1229 0.0
H461 H 0.45062 0.55642 0.55186 0.0
H462 H 0.3522 0.542 0.26605 0.0
H463 H 0.49416 0.49232 0.42953 0.0
H464 H 0.41555 0.55229 0.44443 0.0
H465 H 0.4344 0.48796 0.23003 0.0
C466 C 0.39581 0.4979 0.17713 0.0
C467 C 0.37227 0.51306 0.18593 0.0
C468 C 0.43273 0.53907 0.4408 0.0
C469 C 0.41345 0.51705 0.30872 0.0
C470 C 0.45293 0.54143 0.50246 0.0
C471 C 0.47563 0.52468 0.50057 0.0
C472 C 0.43497 0.5199 0.37547 0.0
C473 C 0.47715 0.50571 0.43409 0.0
C474 C 0.41638 0.49977 0.23828 0.0
C475 C 0.37002 0.52995 0.25701 0.0
N476 N 0.4572 0.50388 0.37437 0.0
N477 N 0.39029 0.53152 0.31539 0.0
H478 H 0.09168 0.38848 0.16322 0.0
H479 H 0.99916 0.46478 0.50511 0.0
H480 H 1.01123 0.36422 0.22684 0.0
H481 H 0.08293 0.4838 0.47217 0.0
H482 H 1.00298 0.42977 0.39711 0.0
H483 H 0.0888 0.42493 0.26929 0.0
C484 C 0.07344 0.39083 0.19979 0.0
C485 C 0.05167 0.37333 0.18672 0.0
C486 C 0.0206 0.44152 0.41322 0.0
C487 C 0.0481 0.41501 0.30768 0.0
C488 C 0.01846 0.46156 0.47532 0.0
C489 C 0.04085 0.47716 0.49898 0.0
C490 C 0.04531 0.43689 0.37305 0.0
C491 C 0.06514 0.47229 0.45631 0.0
C492 C 0.07179 0.41163 0.26025 0.0
C493 C 0.02847 0.37727 0.23521 0.0
N494 N 0.06675 0.45258 0.39569 0.0
N495 N 0.02728 0.39764 0.29329 0.0
H496 H 0.89181 0.04254 0.23252 0.0
H497 H 0.9435 0.9973 0.76909 0.0
H498 H 0.84395 0.99435 0.06193 0.0
H499 H 0.99018 0.04447 0.94639 0.0
H500 H 0.90715 0.995 0.87429 0.0
H501 H 0.92809 0.04289 0.12757 0.0
C502 C 0.88903 0.03195 0.17283 0.0
C503 C 0.86491 1.01846 0.1556 0.0
C504 C 0.92537 1.00582 0.89014 0.0
C505 C 0.90653 1.01843 0.03502 0.0
C506 C 0.94614 1.0072 0.82994 0.0
C507 C 0.97 1.02119 0.84842 0.0
C508 C 0.92837 1.01864 0.96953 0.0
C509 C 0.97226 0.03343 0.92887 0.0
C510 C 0.90977 0.03207 0.11293 0.0
C511 C 0.8623 1.005 0.07745 0.0
N512 N 0.9518 0.03191 0.98596 0.0
N513 N 0.88284 1.00533 0.01999 0.0
H514 H 0.5048 0.87179 0.17306 0.0
H515 H 0.58351 0.97846 0.878 0.0
H516 H 0.59086 0.87907 0.1702 0.0
H517 H 0.49739 0.97231 0.8901 0.0
H518 H 0.58692 0.94176 0.98219 0.0
H519 H 0.50187 0.90805 0.0674 0.0
C520 C 0.52309 0.88104 0.1499 0.0
C521 C 0.54809 0.87247 0.18018 0.0
C522 C 0.56728 0.94858 0.9626 0.0
C523 C 0.54501 0.91412 0.0592 0.0
C524 C 0.56532 0.96955 0.90308 0.0
C525 C 0.54011 0.97838 0.87469 0.0
C526 C 0.54386 0.93653 0.99522 0.0
C527 C 0.51724 0.96594 0.90917 0.0
C528 C 0.52144 0.90177 0.08963 0.0
C529 C 0.57118 0.88512 0.14829 0.0
N530 N 0.51965 0.94576 0.96733 0.0
N531 N 0.56911 0.90529 0.08967 0.0
H532 H 0.67273 0.59114 0.21705 0.0
H533 H 0.59826 0.50078 0.86217 0.0
H534 H 0.69749 0.51151 0.14467 0.0
H535 H 0.57772 0.58381 0.90516 0.0
H536 H 0.63276 0.50415 0.9717 0.0
H537 H 0.63644 0.58881 0.1102 0.0
C538 C 0.67052 0.57319 0.17847 0.0
C539 C 0.68815 0.55149 0.18934 0.0
C540 C 0.6208 0.52172 0.95752 0.0
C541 C 0.64664 0.54858 0.06732 0.0
C542 C 0.60103 0.51984 0.89448 0.0
C543 C 0.58515 0.54216 0.87305 0.0
C544 C 0.62493 0.5461 1.00102 0.0
C545 C 0.58947 0.56609 0.91912 0.0
C546 C 0.64981 0.57186 0.11754 0.0
C547 C 0.68436 0.52869 0.13817 0.0
N548 N 0.60895 0.56746 0.9806 0.0
N549 N 0.6641 0.52783 0.0797 0.0
H550 H 0.99012 0.66783 0.24295 0.0
H551 H 0.05731 0.6124 0.81292 0.0
H552 H 0.04826 0.71162 0.09519 0.0
H553 H 0.99235 0.57073 0.93789 0.0
H554 H 0.05471 0.64786 0.91902 0.0
H555 H 0.99095 0.63142 0.13624 0.0
C556 C 1.00294 0.6698 0.1877 0.0
C557 C 0.01908 0.69274 0.17739 0.0
C558 C 0.04095 0.63103 0.92355 0.0
C559 C 0.02032 0.65122 0.05546 0.0
C560 C 0.04241 0.61059 0.86261 0.0
C561 C 0.02499 0.58829 0.86568 0.0
C562 C 0.022 0.62944 0.98938 0.0
C563 C 1.00622 0.58743 0.93251 0.0
C564 C 1.00343 0.64903 0.12688 0.0
C565 C 0.03546 0.69428 0.10525 0.0
N566 N 1.00527 0.60762 0.99166 0.0
N567 N 0.03569 0.67385 0.04733 0.0
H568 H 0.07616 0.225 0.25285 0.0
H569 H 0.96979 0.21108 0.62703 0.0
H570 H 1.01519 0.28399 0.30548 0.0
H571 H 0.02776 0.15025 0.56079 0.0
H572 H 0.99165 0.24197 0.52841 0.0
H573 H 0.06469 0.20188 0.3849 0.0
C574 C 0.06069 0.23333 0.29329 0.0
C575 C 0.04629 0.25614 0.26796 0.0
C576 C 0.99977 0.22196 0.53632 0.0
C577 C 0.03275 0.22965 0.41812 0.0
C578 C 0.98737 0.20431 0.59294 0.0
C579 C 0.99677 0.17787 0.60189 0.0
C580 C 0.0217 0.2131 0.48805 0.0
C581 C 0.01946 0.17022 0.55507 0.0
C582 C 0.05409 0.22013 0.36847 0.0
C583 C 0.02669 0.26639 0.32283 0.0
N584 N 0.03099 0.18767 0.49976 0.0
N585 N 0.02013 0.25278 0.3948 0.0
H586 H 0.31384 0.08488 0.29319 0.0
H587 H 0.36358 0.95515 0.5195 0.0
H588 H 0.27191 1.00903 0.2889 0.0
H589 H 0.40717 0.02991 0.48786 0.0
H590 H 0.32202 0.97925 0.4894 0.0
H591 H 0.33782 0.07055 0.42086 0.0
C592 C 0.30904 0.06557 0.32127 0.0
C593 C 0.29152 0.04779 0.28007 0.0
C594 C 0.34072 0.99038 0.49179 0.0
C595 C 0.3197 0.03065 0.42254 0.0
C596 C 0.36458 0.97657 0.50788 0.0
C597 C 0.38941 0.99 0.50246 0.0
C598 C 0.34173 1.0178 0.4706 0.0
C599 C 0.38898 1.01813 0.49186 0.0
C600 C 0.32278 0.05727 0.39379 0.0
C601 C 0.28569 0.02308 0.31868 0.0
N602 N 0.36567 0.03086 0.47466 0.0
N603 N 0.30044 1.0148 0.38643 0.0
H604 H 0.51284 0.27857 0.34332 0.0
H605 H 0.50795 0.41907 0.49644 0.0
H606 H 0.45603 0.33622 0.24529 0.0
H607 H 0.54164 0.35579 0.65226 0.0
H608 H 0.47729 0.38743 0.43618 0.0
H609 H 0.51225 0.30145 0.47911 0.0
C610 C 0.49949 0.29554 0.35071 0.0
C611 C 0.4853 0.30613 0.28101 0.0
C612 C 0.49101 0.38042 0.48479 0.0
C613 C 0.48544 0.33313 0.43679 0.0
C614 C 0.50883 0.39878 0.52056 0.0
C615 C 0.52924 0.39011 0.57637 0.0
C616 C 0.49421 0.35297 0.50165 0.0
C617 C 0.52796 0.36327 0.60445 0.0
C618 C 0.49926 0.30873 0.42892 0.0
C619 C 0.46835 0.32812 0.29582 0.0
N620 N 0.51159 0.34539 0.56413 0.0
N621 N 0.46952 0.3414 0.37129 0.0
H622 H 0.28391 0.53293 0.31171 0.0
H623 H 0.20147 0.56895 0.63941 0.0
H624 H 0.22447 0.47295 0.24665 0.0
H625 H 0.14347 0.54576 0.44757 0.0
H626 H 0.23444 0.53973 0.57061 0.0
H627 H 0.25907 0.54308 0.44077 0.0
C628 C 0.26619 0.52112 0.32608 0.0
C629 C 0.25579 0.50262 0.26692 0.0
C630 C 0.21431 0.54085 0.54487 0.0
C631 C 0.22711 0.5144 0.41421 0.0
C632 C 0.19551 0.55764 0.58355 0.0
C633 C 0.1698 0.5607 0.54772 0.0
C634 C 0.20716 0.52684 0.47064 0.0
C635 C 0.16292 0.54441 0.47781 0.0
C636 C 0.252 0.52692 0.4002 0.0
C637 C 0.23266 0.48807 0.28906 0.0
N638 N 0.18158 0.52847 0.44112 0.0
N639 N 0.2186 0.4949 0.3596 0.0
H640 H 0.99173 0.7844 0.06553 0.0
H641 H 0.9391 0.9302 0.03085 0.0
H642 H 0.92918 0.81771 0.22199 0.0
H643 H 1.00916 0.89639 0.91002 0.0
H644 H 0.92196 0.88461 0.05309 0.0
H645 H 0.98195 0.81781 0.95715 0.0
C646 C 0.97504 0.79793 0.07556 0.0
C647 C 0.96221 0.79931 0.15469 0.0
C648 C 0.94069 0.88734 0.01936 0.0
C649 C 0.9519 0.83837 0.0331 0.0
C650 C 0.95071 0.91337 1.00768 0.0
C651 C 0.97616 0.91734 0.97134 0.0
C652 C 0.95627 0.86518 0.99462 0.0
C653 C 0.9896 0.8947 0.93912 0.0
C654 C 0.96966 0.81731 1.0139 0.0
C655 C 0.94039 0.81689 0.1631 0.0
N656 N 0.97974 0.86969 0.953 0.0
N657 N 0.93664 0.83659 0.10462 0.0
H658 H 0.75681 1.01451 0.05607 0.0
H659 H 0.61013 0.96823 0.09904 0.0
H660 H 0.73178 0.94315 0.18917 0.0
H661 H 0.63664 0.03706 0.95427 0.0
H662 H 0.65512 0.94945 0.08876 0.0
H663 H 0.71626 1.01205 0.96949 0.0
C664 C 0.74348 0.99743 0.06385 0.0
C665 C 0.74697 0.97961 0.13187 0.0
C666 C 0.65096 0.96837 0.05743 0.0
C667 C 0.70002 0.97741 0.03663 0.0
C668 C 0.62528 0.97923 0.06402 0.0
C669 C 0.61973 1.00466 0.02978 0.0
C670 C 0.67144 0.98335 0.01812 0.0
C671 C 0.63996 1.01755 0.98272 0.0
C672 C 0.72002 0.99625 0.01529 0.0
C673 C 0.72927 0.95773 0.1387 0.0
N674 N 0.66505 1.00707 0.98006 0.0
N675 N 0.70592 0.95782 0.09412 0.0
H676 H 0.52916 0.78378 0.05751 0.0
H677 H 0.49053 0.70054 0.73541 0.0
H678 H 0.58878 0.72445 0.12236 0.0
H679 H 0.51688 0.64231 0.92149 0.0
H680 H 0.52032 0.73389 0.80125 0.0
H681 H 0.51874 0.75871 0.92888 0.0
C682 C 0.54084 0.76603 0.04315 0.0
C683 C 0.55932 0.75576 0.10219 0.0
C684 C 0.51975 0.71366 0.82652 0.0
C685 C 0.54724 0.72675 0.95511 0.0
C686 C 0.50266 0.69464 0.78942 0.0
C687 C 0.50034 0.66875 0.82471 0.0
C688 C 0.53466 0.7066 0.8989 0.0
C689 C 0.51761 0.66193 0.89201 0.0
C690 C 0.53488 0.75169 0.96918 0.0
C691 C 0.57368 0.73256 0.08006 0.0
N692 N 0.53373 0.68085 0.92751 0.0
N693 N 0.56673 0.71836 1.00958 0.0
H694 H 0.77424 0.54655 0.05107 0.0
H695 H 0.91418 0.55252 0.88588 0.0
H696 H 0.8314 0.60623 0.1362 0.0
H697 H 0.85058 0.51741 0.73307 0.0
H698 H 0.88235 0.58161 0.95057 0.0
H699 H 0.79715 0.54444 0.91488 0.0
C700 C 0.79109 0.55992 0.04028 0.0
C701 C 0.80154 0.57589 0.1064 0.0
C702 C 0.87529 0.56789 0.90177 0.0
C703 C 0.82828 0.57298 0.95102 0.0
C704 C 0.89377 0.55098 0.86334 0.0
C705 C 0.88529 0.53076 0.80618 0.0
C706 C 0.84788 0.564 0.88633 0.0
C707 C 0.85812 0.53102 0.78123 0.0
C708 C 0.80423 0.55866 0.96217 0.0
C709 C 0.82334 0.59281 0.08818 0.0
N710 N 0.8402 0.54654 0.82396 0.0
N711 N 0.83645 0.59037 1.01301 0.0
H712 H 1.00352 0.22339 1.01432 0.0
H713 H 0.06264 0.12538 0.65618 0.0
H714 H 0.07868 0.24169 0.89234 0.0
H715 H 1.01357 0.09952 0.86625 0.0
H716 H 0.06296 0.17141 0.71606 0.0
H717 H 1.00013 0.18211 0.93039 0.0
C718 C 0.01903 0.21901 0.96818 0.0
C719 C 0.04146 0.23603 0.96063 0.0
C720 C 0.05215 0.1556 0.74875 0.0
C721 C 0.03794 0.18825 0.86494 0.0
C722 C 0.05188 0.12942 0.71458 0.0
C723 C 0.03822 0.10855 0.75659 0.0
C724 C 0.03808 0.16103 0.82429 0.0
C725 C 0.02463 0.11486 0.83212 0.0
C726 C 1.01721 0.19529 0.92088 0.0
C727 C 0.06098 0.22925 0.89984 0.0
N728 N 0.02477 0.14043 0.86304 0.0
N729 N 0.05893 0.20572 0.85481 0.0
H730 H 0.34344 1.01579 0.06751 0.0
H731 H 0.4327 0.04578 0.66194 0.0
H732 H 0.31349 0.07328 0.88561 0.0
H733 H 0.46505 0.04035 0.9161 0.0
H734 H 0.38701 0.04692 0.72291 0.0
H735 H 0.38576 1.0142 0.99081 0.0
C736 C 0.34564 0.02807 1.01105 0.0
C737 C 0.32489 0.04535 0.98483 0.0
C738 C 0.4042 0.04564 0.76492 0.0
C739 C 0.3737 0.04289 0.89457 0.0
C740 C 0.43027 0.04489 0.73034 0.0
C741 C 0.45291 0.04314 0.78392 0.0
C742 C 0.40074 0.04378 0.85349 0.0
C743 C 0.4484 0.04197 0.87208 0.0
C744 C 0.36991 0.02705 0.96721 0.0
C745 C 0.32889 0.05987 0.90888 0.0
N746 N 0.423 0.042 0.90371 0.0
N747 N 0.35291 0.05845 0.86657 0.0
H748 H 0.46618 0.34066 0.97668 0.0
H749 H 0.56692 0.45358 0.80876 0.0
H750 H 0.55172 0.32907 0.97586 0.0
H751 H 0.48358 0.45121 0.73649 0.0
H752 H 0.56216 0.40858 0.87096 0.0
H753 H 0.47203 0.38137 0.89067 0.0
C754 C 0.48619 0.34641 0.95682 0.0
C755 C 0.50845 0.33119 0.98277 0.0
C756 C 0.54487 0.4179 0.84166 0.0
C757 C 0.51546 0.37854 0.88606 0.0
C758 C 0.54754 0.44369 0.80613 0.0
C759 C 0.52532 0.45679 0.7698 0.0
C760 C 0.51972 0.40499 0.8417 0.0
C761 C 0.50093 0.44256 0.76715 0.0
C762 C 0.48954 0.36976 0.90794 0.0
C763 C 0.53396 0.33992 0.95628 0.0
N764 N 0.49868 0.41773 0.8035 0.0
N765 N 0.5368 0.36314 0.91047 0.0
H766 H 0.22127 0.46543 0.98248 0.0
H767 H 0.11859 0.56199 0.73468 0.0
H768 H 0.24032 0.54774 0.92278 0.0
H769 H 0.10366 0.47838 0.78583 0.0
H770 H 0.16443 0.55691 0.79113 0.0
H771 H 0.17994 0.46914 0.89914 0.0
C772 C 0.21707 0.48412 0.94973 0.0
C773 C 0.23455 0.50617 0.95873 0.0
C774 C 0.15119 0.5396 0.78973 0.0
C775 C 0.18639 0.511 0.86487 0.0
C776 C 0.12509 0.54245 0.75659 0.0
C777 C 0.10719 0.52057 0.75544 0.0
C778 C 0.15947 0.51465 0.82275 0.0
C779 C 0.11645 0.49592 0.78716 0.0
C780 C 0.19328 0.48634 0.90271 0.0
C781 C 0.22771 0.53009 0.91633 0.0
N782 N 0.14175 0.49366 0.81962 0.0
N783 N 0.20409 0.53197 0.87209 0.0
H784 H 0.05002 0.82917 0.39351 0.0
H785 H 0.97843 0.96029 0.58387 0.0
H786 H 0.96599 0.83401 0.45456 0.0
H787 H 0.06451 0.9539 0.56791 0.0
H788 H 0.97431 0.91385 0.53609 0.0
H789 H 0.05694 0.87351 0.46089 0.0
C790 C 0.03319 0.83915 0.42332 0.0
C791 C 1.00738 0.82774 0.41854 0.0
C792 C 0.99417 0.92248 0.54296 0.0
C793 C 1.01495 0.87891 0.49328 0.0
C794 C 0.99653 0.94926 0.56957 0.0
C795 C 0.02186 0.96138 0.57923 0.0
C796 C 1.01727 0.90736 0.52493 0.0
C797 C 0.04454 0.94553 0.56133 0.0
C798 C 0.03708 0.86463 0.46084 0.0
C799 C 0.98623 0.84196 0.45671 0.0
N800 N 0.04173 0.91947 0.53461 0.0
N801 N 0.99041 0.86674 0.49132 0.0
H802 H 0.74255 0.99078 0.50963 0.0
H803 H 0.59308 0.04606 0.49013 0.0
H804 H 0.71533 0.04862 0.32549 0.0
H805 H 0.62493 1.01296 0.72239 0.0
H806 H 0.63801 0.04547 0.42866 0.0
H807 H 0.70085 0.9978 0.59114 0.0
C808 C 0.72825 1.00565 0.4881 0.0
C809 C 0.73261 1.01953 0.41154 0.0
C810 C 0.63534 0.03848 0.49332 0.0
C811 C 0.68442 0.02675 0.50194 0.0
C812 C 0.60959 0.03868 0.52831 0.0
C813 C 0.60519 0.02959 0.61157 0.0
C814 C 0.65707 0.02859 0.54101 0.0
C815 C 0.62746 1.02031 0.6581 0.0
C816 C 0.70432 1.00944 0.53402 0.0
C817 C 0.71297 0.03787 0.3849 0.0
N818 N 0.65239 1.01978 0.62196 0.0
N819 N 0.68971 0.04067 0.42918 0.0
H820 H 0.59664 0.72246 0.38808 0.0
H821 H 0.50026 0.61973 0.63706 0.0
H822 H 0.51452 0.74129 0.4467 0.0
H823 H 0.58403 0.60586 0.5904 0.0
H824 H 0.50528 0.66561 0.58018 0.0
H825 H 0.59298 0.68155 0.47349 0.0
C826 C 0.578 0.7183 0.42098 0.0
C827 C 0.55599 0.73558 0.41108 0.0
C828 C 0.52263 0.65259 0.58274 0.0
C829 C 0.55121 0.68789 0.50737 0.0
C830 C 0.51981 0.62648 0.61612 0.0
C831 C 0.54176 0.60884 0.61834 0.0
C832 C 0.54761 0.66113 0.55058 0.0
C833 C 0.56645 0.61843 0.58804 0.0
C834 C 0.57581 0.69475 0.46924 0.0
C835 C 0.53213 0.72881 0.45377 0.0
N836 N 0.56866 0.64371 0.55522 0.0
N837 N 0.53027 0.7054 0.49919 0.0
H838 H 0.82233 0.51383 0.4204 0.0
H839 H 0.95319 0.58272 0.63035 0.0
H840 H 0.83977 0.59851 0.4041 0.0
H841 H 0.9491 0.49832 0.57025 0.0
H842 H 0.90805 0.58849 0.57146 0.0
H843 H 0.86443 0.50746 0.50075 0.0
C844 C 0.83462 0.53118 0.43575 0.0
C845 C 0.82731 0.5568 0.40619 0.0
C846 C 0.917 0.56869 0.57097 0.0
C847 C 0.87581 0.54963 0.497 0.0
C848 C 0.943 0.56545 0.60374 0.0
C849 C 0.95563 0.54025 0.60231 0.0
C850 C 0.90293 0.54641 0.538 0.0
C851 C 0.94053 0.51829 0.57138 0.0
C852 C 0.85883 0.5275 0.48071 0.0
C853 C 0.84445 0.57845 0.42625 0.0
N854 N 0.91514 0.52188 0.54028 0.0
N855 N 0.86776 0.5744 0.47003 0.0
loop_
_geom_bond_atom_site_label_1
_geom_bond_atom_site_label_2
_geom_bond_distance
_geom_bond_site_symmetry_2
_ccdc_geom_bond_type
H0 C3 0.929 . S
H1 C6 0.929 . S
H2 C8 0.930 . S
C3 H0 0.929 . S
C3 C4 1.398 . S
C3 C5 1.396 . S
C4 C3 1.398 . S
C4 C8 1.407 . S
C5 C3 1.396 . S
C5 C6 1.394 . S
C6 H1 0.929 . S
C6 C5 1.394 . S
C6 C7 1.382 . S
C7 C6 1.382 . S
C7 C8 1.392 . S
C7 N9 1.420 . S
C8 H2 0.930 . S
C8 C4 1.407 . S
C8 C7 1.392 . S
N9 C7 1.420 . S
N9 C10 1.244 . S
C10 N9 1.244 . S
H11 C14 0.929 . S
H12 C17 0.929 . S
H13 C19 0.930 . S
C14 H11 0.929 . S
C14 C15 1.398 . S
C14 C16 1.396 . S
C15 C14 1.398 . S
C15 C19 1.407 . S
C16 C14 1.396 . S
C16 C17 1.394 . S
C17 H12 0.929 . S
C17 C16 1.394 . S
C17 C18 1.382 . S
C18 C17 1.382 . S
C18 C19 1.392 . S
C18 N20 1.420 . S
C19 H13 0.930 . S
C19 C15 1.407 . S
C19 C18 1.392 . S
N20 C18 1.420 . S
N20 C21 1.244 . S
C21 N20 1.244 . S
H22 C25 0.929 . S
H23 C28 0.929 . S
H24 C30 0.930 . S
C25 H22 0.929 . S
C25 C26 1.398 . S
C25 C27 1.396 . S
C26 C25 1.398 . S
C26 C30 1.407 . S
C27 C25 1.396 . S
C27 C28 1.394 . S
C28 H23 0.929 . S
C28 C27 1.394 . S
C28 C29 1.382 . S
C29 C28 1.382 . S
C29 C30 1.392 . S
C29 N31 1.420 . S
C30 H24 0.930 . S
C30 C26 1.407 . S
C30 C29 1.392 . S
N31 C29 1.420 . S
N31 C32 1.244 . S
C32 N31 1.244 . S
H33 C36 0.929 . S
H34 C39 0.929 . S
H35 C41 0.930 . S
C36 H33 0.929 . S
C36 C37 1.398 . S
C36 C38 1.396 . S
C37 C36 1.398 . S
C37 C41 1.407 . S
C38 C36 1.396 . S
C38 C39 1.394 . S
C39 H34 0.929 . S
C39 C38 1.394 . S
C39 C40 1.382 . S
C40 C39 1.382 . S
C40 C41 1.392 . S
C40 N42 1.420 . S
C41 H35 0.930 . S
C41 C37 1.407 . S
C41 C40 1.392 . S
N42 C40 1.420 . S
N42 C43 1.244 . S
C43 N42 1.244 . S
H44 C47 0.929 . S
H45 C50 0.929 . S
H46 C52 0.930 . S
C47 H44 0.929 . S
C47 C48 1.398 1_554 S
C47 C49 1.396 . S
C48 C47 1.398 1_556 S
C48 C52 1.407 . S
C49 C47 1.396 . S
C49 C50 1.394 . S
C50 H45 0.929 . S
C50 C49 1.394 . S
C50 C51 1.382 . S
C51 C50 1.382 . S
C51 C52 1.392 1_554 S
C51 N53 1.420 . S
C52 H46 0.930 . S
C52 C48 1.407 . S
C52 C51 1.392 1_556 S
N53 C51 1.420 . S
N53 C54 1.244 . S
C54 N53 1.244 . S
H55 C58 0.929 . S
H56 C61 0.929 . S
H57 C63 0.930 . S
C58 H55 0.929 . S
C58 C59 1.398 1_554 S
C58 C60 1.396 . S
C59 C58 1.398 1_556 S
C59 C63 1.407 . S
C60 C58 1.396 . S
C60 C61 1.394 . S
C61 H56 0.929 . S
C61 C60 1.394 . S
C61 C62 1.382 . S
C62 C61 1.382 . S
C62 C63 1.392 1_554 S
C62 N64 1.420 . S
C63 H57 0.930 . S
C63 C59 1.407 . S
C63 C62 1.392 1_556 S
N64 C62 1.420 . S
N64 C65 1.244 . S
C65 N64 1.244 . S
H66 C69 0.929 . S
H67 C72 0.929 . S
H68 C74 0.930 . S
C69 H66 0.929 . S
C69 C70 1.398 1_554 S
C69 C71 1.396 . S
C70 C69 1.398 1_556 S
C70 C74 1.407 . S
C71 C69 1.396 . S
C71 C72 1.394 . S
C72 H67 0.929 . S
C72 C71 1.394 . S
C72 C73 1.382 . S
C73 C72 1.382 . S
C73 C74 1.392 1_554 S
C73 N75 1.420 . S
C74 H68 0.930 . S
C74 C70 1.407 . S
C74 C73 1.392 1_556 S
N75 C73 1.420 . S
N75 C76 1.244 . S
C76 N75 1.244 . S
H77 C80 0.929 . S
H78 C83 0.929 . S
H79 C85 0.930 . S
C80 H77 0.929 . S
C80 C81 1.398 1_554 S
C80 C82 1.396 . S
C81 C80 1.398 1_556 S
C81 C85 1.407 . S
C82 C80 1.396 . S
C82 C83 1.394 . S
C83 H78 0.929 . S
C83 C82 1.394 . S
C83 C84 1.382 . S
C84 C83 1.382 . S
C84 C85 1.392 1_554 S
C84 N86 1.420 . S
C85 H79 0.930 . S
C85 C81 1.407 . S
C85 C84 1.392 1_556 S
N86 C84 1.420 . S
N86 C87 1.244 . S
C87 N86 1.244 . S
Tb88 N117 2.617 . S
Tb88 N123 2.572 . S
Tb88 O132 2.465 1_655 S
Tb88 O133 2.387 1_545 S
Tb88 O135 2.428 . S
Tb88 O136 2.308 1_655 S
Tb88 O140 2.349 1_655 S
Tb88 O143 2.393 . S
Tb88 C152 2.802 . S
C89 N90 1.379 . S
C89 C92 1.416 . S
C89 C96 1.424 . S
N90 C89 1.379 . S
N90 C93 1.334 . S
N90 Tb99 2.617 1_545 S
C91 C93 1.390 . S
C91 C94 1.339 . S
C91 H111 0.930 . S
C92 C89 1.416 . S
C92 C94 1.416 . S
C92 C98 1.448 1_556 S
C93 N90 1.334 . S
C93 C91 1.390 . S
C93 H104 0.930 1_545 S
C94 C91 1.339 . S
C94 C92 1.416 . S
C94 H115 0.930 . S
C95 C96 1.413 1_554 S
C95 C97 1.427 . S
C95 C101 1.416 . S
C96 C89 1.424 . S
C96 C95 1.413 1_556 S
C96 N100 1.361 . S
C97 C95 1.427 . S
C97 C98 1.328 . S
C97 H112 0.929 . S
C98 C92 1.448 1_554 S
C98 C97 1.328 . S
C98 H113 0.930 . S
Tb99 N90 2.617 1_565 S
Tb99 N100 2.572 1_565 S
Tb99 O134 2.349 . S
Tb99 O137 2.393 . S
Tb99 O138 2.465 . S
Tb99 O139 2.387 1_565 S
Tb99 O141 2.428 . S
Tb99 O142 2.308 1_465 S
Tb99 C163 2.802 . S
N100 C96 1.361 . S
N100 Tb99 2.572 1_545 S
N100 C102 1.340 . S
C101 C95 1.416 . S
C101 C103 1.332 . S
C101 H109 0.931 . S
C102 N100 1.340 . S
C102 C103 1.407 1_556 S
C102 H108 0.930 1_455 S
C103 C101 1.332 . S
C103 C102 1.407 1_554 S
C103 H105 0.918 1_455 S
H104 C93 0.930 1_565 S
H105 C103 0.918 1_655 S
H106 C121 0.930 . S
H107 C128 0.929 . S
H108 C102 0.930 1_655 S
H109 C101 0.931 . S
H110 C124 0.930 . S
H111 C91 0.930 . S
H112 C97 0.929 . S
H113 C98 0.930 . S
H114 C119 0.930 . S
H115 C94 0.930 . S
H116 C127 0.931 . S
N117 Tb88 2.617 . S
N117 C118 1.379 . S
N117 C121 1.334 . S
C118 N117 1.379 . S
C118 C120 1.416 1_545 S
C118 C126 1.428 . S
C119 H114 0.930 . S
C119 C121 1.390 . S
C119 C122 1.339 1_545 S
C120 C118 1.416 1_565 S
C120 C122 1.416 . S
C120 C153 1.448 . S
C121 H106 0.930 . S
C121 N117 1.334 . S
C121 C119 1.390 . S
C122 C119 1.339 1_565 S
C122 C120 1.416 . S
C122 H129 0.930 . S
N123 Tb88 2.572 . S
N123 C124 1.340 1_655 S
N123 C126 1.375 . S
C124 H110 0.930 . S
C124 N123 1.340 1_455 S
C124 C128 1.407 1_545 S
C125 C126 1.396 1_565 S
C125 C127 1.416 . S
C125 C154 1.427 . S
C126 C118 1.428 . S
C126 N123 1.375 . S
C126 C125 1.396 1_545 S
C127 H116 0.931 . S
C127 C125 1.416 . S
C127 C128 1.332 1_655 S
C128 H107 0.929 . S
C128 C124 1.407 1_565 S
C128 C127 1.332 1_455 S
H129 C122 0.930 . S
H130 C153 0.930 . S
H131 C154 0.929 . S
O132 Tb88 2.465 1_455 S
O132 C152 1.264 1_455 S
O133 Tb88 2.387 1_565 S
O133 C144 1.264 . S
O134 Tb99 2.349 . S
O134 C144 1.243 1_455 S
O135 Tb88 2.428 . S
O135 C152 1.256 . S
O136 Tb88 2.308 1_455 S
O136 C151 1.266 . S
O137 Tb99 2.393 . S
O137 C151 1.248 1_565 S
O138 Tb99 2.465 . S
O138 C163 1.264 . S
O139 Tb99 2.387 1_545 S
O139 C155 1.264 . S
O140 Tb88 2.349 1_455 S
O140 C155 1.243 . S
O141 Tb99 2.428 . S
O141 C163 1.256 . S
O142 Tb99 2.308 1_645 S
O142 C162 1.266 . S
O143 Tb88 2.393 . S
O143 C162 1.248 . S
C144 O133 1.264 . S
C144 O134 1.243 1_655 S
C145 C148 1.399 . S
C145 C150 1.383 . S
C145 C152 1.496 . S
C146 C147 1.399 . S
C146 C150 1.389 . S
C147 C146 1.399 . S
C147 C149 1.380 . S
C147 H164 0.929 . S
C148 C145 1.399 . S
C148 C149 1.392 . S
C148 H165 0.929 . S
C149 C147 1.380 . S
C149 C148 1.392 . S
C149 H166 0.929 . S
C150 C145 1.383 . S
C150 C146 1.389 . S
C150 H167 0.931 1_655 S
C151 O136 1.266 . S
C151 O137 1.248 1_545 S
C152 Tb88 2.802 . S
C152 O132 1.264 1_655 S
C152 O135 1.256 . S
C152 C145 1.496 . S
C153 C120 1.448 . S
C153 H130 0.930 . S
C153 C154 1.328 . S
C154 C125 1.427 . S
C154 H131 0.929 . S
C154 C153 1.328 . S
C155 O139 1.264 . S
C155 O140 1.243 . S
C156 C159 1.399 . S
C156 C160 1.383 . S
C156 C163 1.496 . S
C157 C158 1.399 . S
C157 C160 1.389 . S
C158 C157 1.399 . S
C158 C161 1.380 . S
C158 H168 0.929 1_556 S
C159 C156 1.399 . S
C159 C161 1.392 . S
C159 H169 0.929 . S
C160 C156 1.383 . S
C160 C157 1.389 . S
C160 H170 0.931 . S
C161 C158 1.380 . S
C161 C159 1.392 . S
C161 H171 0.929 . S
C162 O142 1.266 . S
C162 O143 1.248 . S
C163 Tb99 2.802 . S
C163 O138 1.264 . S
C163 O141 1.256 . S
C163 C156 1.496 . S
H164 C147 0.929 . S
H165 C148 0.929 . S
H166 C149 0.929 . S
H167 C150 0.931 1_455 S
H168 C158 0.929 1_554 S
H169 C159 0.929 . S
H170 C160 0.931 . S
H171 C161 0.929 . S
Tb172 N201 2.617 . S
Tb172 N207 2.572 . S
Tb172 O216 2.465 . S
Tb172 O217 2.387 . S
Tb172 O219 2.428 . S
Tb172 O220 2.308 . S
Tb172 O224 2.349 1_545 S
Tb172 O227 2.393 . S
Tb172 C236 2.802 . S
C173 N174 1.379 . S
C173 C176 1.416 . S
C173 C180 1.424 . S
N174 C173 1.379 . S
N174 C177 1.334 . S
N174 Tb183 2.617 . S
C175 C177 1.390 . S
C175 C178 1.339 . S
C175 H195 0.930 . S
C176 C173 1.416 . S
C176 C178 1.416 . S
C176 C182 1.448 . S
C177 N174 1.334 . S
C177 C175 1.390 . S
C177 H188 0.930 . S
C178 C175 1.339 . S
C178 C176 1.416 . S
C178 H199 0.930 . S
C179 C180 1.413 . S
C179 C181 1.427 . S
C179 C185 1.416 . S
C180 C173 1.424 . S
C180 C179 1.413 . S
C180 N184 1.361 . S
C181 C179 1.427 . S
C181 C182 1.328 . S
C181 H196 0.929 . S
C182 C176 1.448 . S
C182 C181 1.328 . S
C182 H197 0.930 . S
Tb183 N174 2.617 . S
Tb183 N184 2.572 . S
Tb183 O218 2.349 1_565 S
Tb183 O221 2.393 . S
Tb183 O222 2.465 . S
Tb183 O223 2.387 . S
Tb183 O225 2.428 . S
Tb183 O226 2.308 1_565 S
Tb183 C247 2.802 . S
N184 C180 1.361 . S
N184 Tb183 2.572 . S
N184 C186 1.340 . S
C185 C179 1.416 . S
C185 C187 1.332 . S
C185 H193 0.931 . S
C186 N184 1.340 . S
C186 C187 1.407 . S
C186 H192 0.930 . S
C187 C185 1.332 . S
C187 C186 1.407 . S
C187 H189 0.929 . S
H188 C177 0.930 . S
H189 C187 0.929 . S
H190 C205 0.930 . S
H191 C212 0.929 . S
H192 C186 0.930 . S
H193 C185 0.931 . S
H194 C208 0.930 . S
H195 C175 0.930 . S
H196 C181 0.929 . S
H197 C182 0.930 . S
H198 C203 0.930 . S
H199 C178 0.930 . S
H200 C211 0.931 . S
N201 Tb172 2.617 . S
N201 C202 1.379 . S
N201 C205 1.334 . S
C202 N201 1.379 . S
C202 C204 1.416 . S
C202 C210 1.424 . S
C203 H198 0.930 . S
C203 C205 1.390 . S
C203 C206 1.339 . S
C204 C202 1.416 . S
C204 C206 1.416 . S
C204 C237 1.448 . S
C205 H190 0.930 . S
C205 N201 1.334 . S
C205 C203 1.390 . S
C206 C203 1.339 . S
C206 C204 1.416 . S
C206 H213 0.930 . S
N207 Tb172 2.572 . S
N207 C208 1.340 . S
N207 C210 1.361 . S
C208 H194 0.930 . S
C208 N207 1.340 . S
C208 C212 1.407 . S
C209 C210 1.413 . S
C209 C211 1.416 . S
C209 C238 1.427 . S
C210 C202 1.424 . S
C210 N207 1.361 . S
C210 C209 1.413 . S
C211 H200 0.931 . S
C211 C209 1.416 . S
C211 C212 1.332 . S
C212 H191 0.929 . S
C212 C208 1.407 . S
C212 C211 1.332 . S
H213 C206 0.930 . S
H214 C237 0.930 . S
H215 C238 0.929 . S
O216 Tb172 2.465 . S
O216 C236 1.264 . S
O217 Tb172 2.387 . S
O217 C228 1.264 . S
O218 Tb183 2.349 1_545 S
O218 C228 1.243 . S
O219 Tb172 2.428 . S
O219 C236 1.256 . S
O220 Tb172 2.308 . S
O220 C235 1.266 . S
O221 Tb183 2.393 . S
O221 C235 1.248 1_565 S
O222 Tb183 2.465 . S
O222 C247 1.264 . S
O223 Tb183 2.387 . S
O223 C239 1.264 . S
O224 Tb172 2.349 1_565 S
O224 C239 1.243 . S
O225 Tb183 2.428 . S
O225 C247 1.256 . S
O226 Tb183 2.308 1_545 S
O226 C246 1.266 . S
O227 Tb172 2.393 . S
O227 C246 1.248 . S
C228 O217 1.264 . S
C228 O218 1.243 . S
C229 C232 1.399 1_556 S
C229 C234 1.383 . S
C229 C236 1.496 . S
C230 C231 1.399 . S
C230 C234 1.389 1_554 S
C231 C230 1.399 . S
C231 C233 1.380 . S
C231 H248 0.929 . S
C232 C229 1.399 1_554 S
C232 C233 1.392 . S
C232 H249 0.929 . S
C233 C231 1.380 . S
C233 C232 1.392 . S
C233 H250 0.929 . S
C234 C229 1.383 . S
C234 C230 1.389 1_556 S
C234 H251 0.931 . S
C235 O220 1.266 . S
C235 O221 1.248 1_545 S
C236 Tb172 2.802 . S
C236 O216 1.264 . S
C236 O219 1.256 . S
C236 C229 1.496 . S
C237 C204 1.448 . S
C237 H214 0.930 . S
C237 C238 1.328 . S
C238 C209 1.427 . S
C238 H215 0.929 . S
C238 C237 1.328 . S
C239 O223 1.264 . S
C239 O224 1.243 . S
C240 C243 1.399 . S
C240 C244 1.383 1_565 S
C240 C247 1.496 . S
C241 C242 1.399 1_545 S
C241 C244 1.389 . S
C242 C241 1.399 1_565 S
C242 C245 1.380 . S
C242 H252 0.929 . S
C243 C240 1.399 . S
C243 C245 1.392 . S
C243 H253 0.929 . S
C244 C240 1.383 1_545 S
C244 C241 1.389 . S
C244 H254 0.931 . S
C245 C242 1.380 . S
C245 C243 1.392 . S
C245 H255 0.929 . S
C246 O226 1.266 . S
C246 O227 1.248 . S
C247 Tb183 2.802 . S
C247 O222 1.264 . S
C247 O225 1.256 . S
C247 C240 1.496 . S
H248 C231 0.929 . S
H249 C232 0.929 . S
H250 C233 0.929 . S
H251 C234 0.931 . S
H252 C242 0.929 . S
H253 C243 0.929 . S
H254 C244 0.931 . S
H255 C245 0.929 . S
Tb256 N285 2.617 . S
Tb256 N291 2.572 . S
Tb256 O300 2.465 . S
Tb256 O301 2.387 . S
Tb256 O303 2.428 . S
Tb256 O304 2.308 . S
Tb256 O308 2.349 . S
Tb256 O311 2.393 . S
Tb256 C320 2.802 . S
C257 N258 1.379 . S
C257 C260 1.416 . S
C257 C264 1.424 . S
N258 C257 1.379 . S
N258 C261 1.334 . S
N258 Tb267 2.617 . S
C259 C261 1.390 . S
C259 C262 1.339 . S
C259 H279 0.930 . S
C260 C257 1.416 . S
C260 C262 1.416 . S
C260 C266 1.448 1_556 S
C261 N258 1.334 . S
C261 C259 1.390 . S
C261 H272 0.930 . S
C262 C259 1.339 . S
C262 C260 1.416 . S
C262 H283 0.930 . S
C263 C264 1.413 1_554 S
C263 C265 1.427 . S
C263 C269 1.416 . S
C264 C257 1.424 . S
C264 C263 1.413 1_556 S
C264 N268 1.361 . S
C265 C263 1.427 . S
C265 C266 1.328 . S
C265 H280 0.929 . S
C266 C260 1.448 1_554 S
C266 C265 1.328 . S
C266 H281 0.930 . S
Tb267 N258 2.617 . S
Tb267 N268 2.572 . S
Tb267 O302 2.349 . S
Tb267 O305 2.393 . S
Tb267 O306 2.465 . S
Tb267 O307 2.387 . S
Tb267 O309 2.428 . S
Tb267 O310 2.308 . S
Tb267 C331 2.802 . S
N268 C264 1.361 . S
N268 Tb267 2.572 . S
N268 C270 1.340 . S
C269 C263 1.416 . S
C269 C271 1.332 . S
C269 H277 0.931 . S
C270 N268 1.340 . S
C270 C271 1.407 1_556 S
C270 H276 0.930 . S
C271 C269 1.332 . S
C271 C270 1.407 1_554 S
C271 H273 0.929 . S
H272 C261 0.930 . S
H273 C271 0.929 . S
H274 C289 0.930 . S
H275 C296 0.929 . S
H276 C270 0.930 . S
H277 C269 0.931 . S
H278 C292 0.930 . S
H279 C259 0.930 . S
H280 C265 0.929 . S
H281 C266 0.930 . S
H282 C287 0.930 . S
H283 C262 0.930 . S
H284 C295 0.931 . S
N285 Tb256 2.617 . S
N285 C286 1.379 . S
N285 C289 1.334 . S
C286 N285 1.379 . S
C286 C288 1.416 . S
C286 C294 1.424 . S
C287 H282 0.930 . S
C287 C289 1.390 . S
C287 C290 1.339 . S
C288 C286 1.416 . S
C288 C290 1.416 . S
C288 C321 1.448 . S
C289 H274 0.930 . S
C289 N285 1.334 . S
C289 C287 1.390 . S
C290 C287 1.339 . S
C290 C288 1.416 . S
C290 H297 0.930 . S
N291 Tb256 2.572 . S
N291 C292 1.340 . S
N291 C294 1.361 . S
C292 H278 0.930 . S
C292 N291 1.340 . S
C292 C296 1.407 . S
C293 C294 1.413 . S
C293 C295 1.416 . S
C293 C322 1.427 . S
C294 C286 1.424 . S
C294 N291 1.361 . S
C294 C293 1.413 . S
C295 H284 0.931 . S
C295 C293 1.416 . S
C295 C296 1.332 . S
C296 H275 0.929 . S
C296 C292 1.407 . S
C296 C295 1.332 . S
H297 C290 0.930 . S
H298 C321 0.930 . S
H299 C322 0.929 . S
O300 Tb256 2.465 . S
O300 C320 1.264 . S
O301 Tb256 2.387 . S
O301 C312 1.264 . S
O302 Tb267 2.349 . S
O302 C312 1.243 . S
O303 Tb256 2.428 . S
O303 C320 1.256 . S
O304 Tb256 2.308 . S
O304 C319 1.266 . S
O305 Tb267 2.393 . S
O305 C319 1.248 . S
O306 Tb267 2.465 . S
O306 C331 1.264 . S
O307 Tb267 2.387 . S
O307 C323 1.264 . S
O308 Tb256 2.349 . S
O308 C323 1.243 . S
O309 Tb267 2.428 . S
O309 C331 1.256 . S
O310 Tb267 2.308 . S
O310 C330 1.266 . S
O311 Tb256 2.393 . S
O311 C330 1.248 . S
C312 O301 1.264 . S
C312 O302 1.243 . S
C313 C316 1.399 . S
C313 C318 1.383 . S
C313 C320 1.496 . S
C314 C315 1.399 . S
C314 C318 1.389 . S
C315 C314 1.399 . S
C315 C317 1.380 . S
C315 H332 0.929 . S
C316 C313 1.399 . S
C316 C317 1.392 . S
C316 H333 0.929 . S
C317 C315 1.380 . S
C317 C316 1.392 . S
C317 H334 0.929 . S
C318 C313 1.383 . S
C318 C314 1.389 . S
C318 H335 0.931 . S
C319 O304 1.266 . S
C319 O305 1.248 . S
C320 Tb256 2.802 . S
C320 O300 1.264 . S
C320 O303 1.256 . S
C320 C313 1.496 . S
C321 C288 1.448 . S
C321 H298 0.930 . S
C321 C322 1.328 . S
C322 C293 1.427 . S
C322 H299 0.929 . S
C322 C321 1.328 . S
C323 O307 1.264 . S
C323 O308 1.243 . S
C324 C327 1.399 . S
C324 C328 1.383 . S
C324 C331 1.496 . S
C325 C326 1.399 . S
C325 C328 1.389 . S
C326 C325 1.399 . S
C326 C329 1.380 . S
C326 H336 0.929 1_556 S
C327 C324 1.399 . S
C327 C329 1.392 . S
C327 H337 0.929 . S
C328 C324 1.383 . S
C328 C325 1.389 . S
C328 H338 0.931 . S
C329 C326 1.380 . S
C329 C327 1.392 . S
C329 H339 0.929 . S
C330 O310 1.266 . S
C330 O311 1.248 . S
C331 Tb267 2.802 . S
C331 O306 1.264 . S
C331 O309 1.256 . S
C331 C324 1.496 . S
H332 C315 0.929 . S
H333 C316 0.929 . S
H334 C317 0.929 . S
H335 C318 0.931 . S
H336 C326 0.929 1_554 S
H337 C327 0.929 . S
H338 C328 0.931 . S
H339 C329 0.929 . S
Tb340 N369 2.617 . S
Tb340 N375 2.572 . S
Tb340 O384 2.465 . S
Tb340 O385 2.387 1_455 S
Tb340 O387 2.428 . S
Tb340 O388 2.308 . S
Tb340 O392 2.349 . S
Tb340 O395 2.393 . S
Tb340 C404 2.802 . S
C341 N342 1.379 . S
C341 C344 1.416 . S
C341 C348 1.424 . S
N342 C341 1.379 . S
N342 C345 1.332 1_455 S
N342 Tb351 2.617 1_455 S
C343 C345 1.379 1_455 S
C343 C346 1.339 . S
C343 H363 0.930 . S
C344 C341 1.416 . S
C344 C346 1.416 . S
C344 C350 1.448 1_556 S
C345 N342 1.332 1_655 S
C345 C343 1.379 1_655 S
C345 H356 0.945 . S
C346 C343 1.339 . S
C346 C344 1.416 . S
C346 H367 0.930 . S
C347 C348 1.413 1_554 S
C347 C349 1.427 . S
C347 C353 1.416 . S
C348 C341 1.424 . S
C348 C347 1.413 1_556 S
C348 N352 1.361 . S
C349 C347 1.427 . S
C349 C350 1.328 . S
C349 H364 0.929 . S
C350 C344 1.448 1_554 S
C350 C349 1.328 . S
C350 H365 0.930 . S
Tb351 N342 2.617 1_655 S
Tb351 N352 2.572 1_655 S
Tb351 O386 2.349 . S
Tb351 O389 2.393 . S
Tb351 O390 2.465 . S
Tb351 O391 2.387 1_655 S
Tb351 O393 2.428 . S
Tb351 O394 2.308 1_655 S
Tb351 C415 2.802 . S
N352 C348 1.361 . S
N352 Tb351 2.572 1_455 S
N352 C354 1.340 . S
C353 C347 1.416 . S
C353 C355 1.332 . S
C353 H361 0.931 . S
C354 N352 1.340 . S
C354 C355 1.407 1_556 S
C354 H360 0.930 . S
C355 C353 1.332 . S
C355 C354 1.407 1_554 S
C355 H357 0.929 . S
H356 C345 0.945 . S
H357 C355 0.929 . S
H358 C373 0.930 . S
H359 C380 0.929 . S
H360 C354 0.930 . S
H361 C353 0.931 . S
H362 C376 0.930 . S
H363 C343 0.930 . S
H364 C349 0.929 . S
H365 C350 0.930 . S
H366 C371 0.930 . S
H367 C346 0.930 . S
H368 C379 0.931 . S
N369 Tb340 2.617 . S
N369 C370 1.379 . S
N369 C373 1.334 . S
C370 N369 1.379 . S
C370 C372 1.416 1_455 S
C370 C378 1.424 . S
C371 H366 0.930 . S
C371 C373 1.390 . S
C371 C374 1.339 1_455 S
C372 C370 1.416 1_655 S
C372 C374 1.416 . S
C372 C405 1.448 . S
C373 H358 0.930 . S
C373 N369 1.334 . S
C373 C371 1.390 . S
C374 C371 1.339 1_655 S
C374 C372 1.416 . S
C374 H381 0.930 . S
N375 Tb340 2.572 . S
N375 C376 1.340 . S
N375 C378 1.364 . S
C376 H362 0.930 . S
C376 N375 1.340 . S
C376 C380 1.407 1_455 S
C377 C378 1.410 1_655 S
C377 C379 1.416 . S
C377 C406 1.427 . S
C378 C370 1.424 . S
C378 N375 1.364 . S
C378 C377 1.410 1_455 S
C379 H368 0.931 . S
C379 C377 1.416 . S
C379 C380 1.332 . S
C380 H359 0.929 . S
C380 C376 1.407 1_655 S
C380 C379 1.332 . S
H381 C374 0.930 . S
H382 C405 0.930 . S
H383 C406 0.929 . S
O384 Tb340 2.465 . S
O384 C404 1.264 . S
O385 Tb340 2.387 1_655 S
O385 C396 1.264 . S
O386 Tb351 2.349 . S
O386 C396 1.243 . S
O387 Tb340 2.428 . S
O387 C404 1.256 . S
O388 Tb340 2.308 . S
O388 C403 1.266 . S
O389 Tb351 2.393 . S
O389 C403 1.248 1_655 S
O390 Tb351 2.465 . S
O390 C415 1.264 . S
O391 Tb351 2.387 1_455 S
O391 C407 1.264 . S
O392 Tb340 2.349 . S
O392 C407 1.243 . S
O393 Tb351 2.428 . S
O393 C415 1.256 . S
O394 Tb351 2.308 1_455 S
O394 C414 1.266 . S
O395 Tb340 2.393 . S
O395 C414 1.248 . S
C396 O385 1.264 . S
C396 O386 1.243 . S
C397 C400 1.399 . S
C397 C402 1.383 . S
C397 C404 1.496 . S
C398 C399 1.399 . S
C398 C402 1.389 . S
C399 C398 1.399 . S
C399 C401 1.380 . S
C399 H416 0.929 . S
C400 C397 1.399 . S
C400 C401 1.392 . S
C400 H417 0.929 . S
C401 C399 1.380 . S
C401 C400 1.392 . S
C401 H418 0.929 . S
C402 C397 1.383 . S
C402 C398 1.389 . S
C402 H419 0.931 . S
C403 O388 1.266 . S
C403 O389 1.248 1_455 S
C404 Tb340 2.802 . S
C404 O384 1.264 . S
C404 O387 1.256 . S
C404 C397 1.496 . S
C405 C372 1.448 . S
C405 H382 0.930 . S
C405 C406 1.328 . S
C406 C377 1.427 . S
C406 H383 0.929 . S
C406 C405 1.328 . S
C407 O391 1.264 . S
C407 O392 1.243 . S
C408 C411 1.399 . S
C408 C412 1.383 . S
C408 C415 1.496 . S
C409 C410 1.399 . S
C409 C412 1.389 . S
C410 C409 1.399 . S
C410 C413 1.380 . S
C410 H420 0.929 1_556 S
C411 C408 1.399 . S
C411 C413 1.392 . S
C411 H421 0.929 . S
C412 C408 1.383 . S
C412 C409 1.389 . S
C412 H422 0.931 . S
C413 C410 1.380 . S
C413 C411 1.392 . S
C413 H423 0.929 . S
C414 O394 1.266 . S
C414 O395 1.248 . S
C415 Tb351 2.802 . S
C415 O390 1.264 . S
C415 O393 1.256 . S
C415 C408 1.496 . S
H416 C399 0.929 . S
H417 C400 0.929 . S
H418 C401 0.929 . S
H419 C402 0.931 . S
H420 C410 0.929 1_554 S
H421 C411 0.929 . S
H422 C412 0.931 . S
H423 C413 0.929 . S
H424 C430 0.930 . S
H425 C434 0.930 1_565 S
H426 C439 0.929 . S
H427 C437 0.929 . S
H428 C432 0.929 1_565 S
H429 C438 0.929 . S
C430 H424 0.930 . S
C430 C431 1.367 . S
C430 C438 1.378 . S
C431 C430 1.367 . S
C431 C439 1.433 . S
C432 H428 0.929 1_545 S
C432 C434 1.378 . S
C432 C436 1.350 . S
C433 C436 1.463 . S
C433 C438 1.350 . S
C433 N441 1.427 . S
C434 H425 0.930 1_545 S
C434 C432 1.378 . S
C434 C435 1.367 . S
C435 C434 1.367 . S
C435 C437 1.433 . S
C436 C432 1.350 . S
C436 C433 1.463 . S
C436 N440 1.427 . S
C437 H427 0.929 . S
C437 C435 1.433 . S
C437 N440 1.384 . S
C438 H429 0.929 . S
C438 C430 1.378 . S
C438 C433 1.350 . S
C439 H426 0.929 . S
C439 C431 1.433 . S
C439 N441 1.384 . S
N440 C436 1.427 . S
N440 C437 1.384 . S
N441 C433 1.427 . S
N441 C439 1.384 . S
H442 C448 0.930 . S
H443 C452 0.930 . S
H444 C457 0.929 . S
H445 C455 0.929 . S
H446 C450 0.929 . S
H447 C456 0.929 . S
C448 H442 0.930 . S
C448 C449 1.367 . S
C448 C456 1.378 . S
C449 C448 1.367 . S
C449 C457 1.433 . S
C450 H446 0.929 . S
C450 C452 1.378 . S
C450 C454 1.350 . S
C451 C454 1.463 . S
C451 C456 1.350 . S
C451 N459 1.427 . S
C452 H443 0.930 . S
C452 C450 1.378 . S
C452 C453 1.367 . S
C453 C452 1.367 . S
C453 C455 1.433 . S
C454 C450 1.350 . S
C454 C451 1.463 . S
C454 N458 1.427 . S
C455 H445 0.929 . S
C455 C453 1.433 . S
C455 N458 1.384 . S
C456 H447 0.929 . S
C456 C448 1.378 . S
C456 C451 1.350 . S
C457 H444 0.929 . S
C457 C449 1.433 . S
C457 N459 1.384 . S
N458 C454 1.427 . S
N458 C455 1.384 . S
N459 C451 1.427 . S
N459 C457 1.384 . S
H460 C466 0.930 . S
H461 C470 0.930 . S
H462 C475 0.929 . S
H463 C473 0.929 . S
H464 C468 0.929 . S
H465 C474 0.929 . S
C466 H460 0.930 . S
C466 C467 1.367 . S
C466 C474 1.378 . S
C467 C466 1.367 . S
C467 C475 1.433 . S
C468 H464 0.929 . S
C468 C470 1.378 . S
C468 C472 1.350 . S
C469 C472 1.463 . S
C469 C474 1.350 . S
C469 N477 1.427 . S
C470 H461 0.930 . S
C470 C468 1.378 . S
C470 C471 1.367 . S
C471 C470 1.367 . S
C471 C473 1.433 . S
C472 C468 1.350 . S
C472 C469 1.463 . S
C472 N476 1.427 . S
C473 H463 0.929 . S
C473 C471 1.433 . S
C473 N476 1.384 . S
C474 H465 0.929 . S
C474 C466 1.378 . S
C474 C469 1.350 . S
C475 H462 0.929 . S
C475 C467 1.433 . S
C475 N477 1.384 . S
N476 C472 1.427 . S
N476 C473 1.384 . S
N477 C469 1.427 . S
N477 C475 1.384 . S
H478 C484 0.930 . S
H479 C488 0.930 1_655 S
H480 C493 0.929 . S
H481 C491 0.929 . S
H482 C486 0.929 1_655 S
H483 C492 0.929 . S
C484 H478 0.930 . S
C484 C485 1.367 . S
C484 C492 1.378 . S
C485 C484 1.367 . S
C485 C493 1.433 . S
C486 H482 0.929 1_455 S
C486 C488 1.378 . S
C486 C490 1.350 . S
C487 C490 1.463 . S
C487 C492 1.350 . S
C487 N495 1.427 . S
C488 H479 0.930 1_455 S
C488 C486 1.378 . S
C488 C489 1.367 . S
C489 C488 1.367 . S
C489 C491 1.433 . S
C490 C486 1.350 . S
C490 C487 1.463 . S
C490 N494 1.427 . S
C491 H481 0.929 . S
C491 C489 1.433 . S
C491 N494 1.384 . S
C492 H483 0.929 . S
C492 C484 1.378 . S
C492 C487 1.350 . S
C493 H480 0.929 . S
C493 C485 1.433 . S
C493 N495 1.384 . S
N494 C490 1.427 . S
N494 C491 1.384 . S
N495 C487 1.427 . S
N495 C493 1.384 . S
H496 C502 0.930 . S
H497 C506 0.930 . S
H498 C511 0.929 . S
H499 C509 0.929 . S
H500 C504 0.929 1_554 S
H501 C510 0.929 . S
C502 H496 0.930 . S
C502 C503 1.367 . S
C502 C510 1.378 . S
C503 C502 1.367 . S
C503 C511 1.433 1_565 S
C504 H500 0.929 1_556 S
C504 C506 1.378 . S
C504 C508 1.350 1_545 S
C505 C508 1.463 1_554 S
C505 C510 1.350 . S
C505 N513 1.427 1_565 S
C506 H497 0.930 . S
C506 C504 1.378 . S
C506 C507 1.372 . S
C507 C506 1.372 . S
C507 C509 1.426 1_545 S
C508 C504 1.350 1_565 S
C508 C505 1.463 1_556 S
C508 N512 1.427 . S
C509 H499 0.929 . S
C509 C507 1.426 1_565 S
C509 N512 1.384 . S
C510 H501 0.929 . S
C510 C502 1.378 . S
C510 C505 1.350 . S
C511 H498 0.929 . S
C511 C503 1.433 1_545 S
C511 N513 1.384 . S
N512 C508 1.427 . S
N512 C509 1.384 . S
N513 C505 1.427 1_545 S
N513 C511 1.384 . S
H514 C520 0.930 . S
H515 C524 0.930 . S
H516 C529 0.929 . S
H517 C527 0.929 . S
H518 C522 0.929 1_554 S
H519 C528 0.929 . S
C520 H514 0.930 . S
C520 C521 1.367 . S
C520 C528 1.378 . S
C521 C520 1.367 . S
C521 C529 1.433 . S
C522 H518 0.929 1_556 S
C522 C524 1.378 . S
C522 C526 1.350 . S
C523 C526 1.463 1_554 S
C523 C528 1.350 . S
C523 N531 1.427 . S
C524 H515 0.930 . S
C524 C522 1.378 . S
C524 C525 1.367 . S
C525 C524 1.367 . S
C525 C527 1.433 . S
C526 C522 1.350 . S
C526 C523 1.463 1_556 S
C526 N530 1.427 . S
C527 H517 0.929 . S
C527 C525 1.433 . S
C527 N530 1.384 . S
C528 H519 0.929 . S
C528 C520 1.378 . S
C528 C523 1.350 . S
C529 H516 0.929 . S
C529 C521 1.433 . S
C529 N531 1.384 . S
N530 C526 1.427 . S
N530 C527 1.384 . S
N531 C523 1.427 . S
N531 C529 1.384 . S
H532 C538 0.930 . S
H533 C542 0.930 . S
H534 C547 0.929 . S
H535 C545 0.929 . S
H536 C540 0.929 1_554 S
H537 C546 0.929 . S
C538 H532 0.930 . S
C538 C539 1.367 . S
C538 C546 1.378 . S
C539 C538 1.367 . S
C539 C547 1.433 . S
C540 H536 0.929 1_556 S
C540 C542 1.378 . S
C540 C544 1.350 . S
C541 C544 1.463 1_554 S
C541 C546 1.350 . S
C541 N549 1.427 . S
C542 H533 0.930 . S
C542 C540 1.378 . S
C542 C543 1.367 . S
C543 C542 1.367 . S
C543 C545 1.433 . S
C544 C540 1.350 . S
C544 C541 1.463 1_556 S
C544 N548 1.427 . S
C545 H535 0.929 . S
C545 C543 1.433 . S
C545 N548 1.384 . S
C546 H537 0.929 . S
C546 C538 1.378 . S
C546 C541 1.350 . S
C547 H534 0.929 . S
C547 C539 1.433 . S
C547 N549 1.384 . S
N548 C544 1.427 . S
N548 C545 1.384 . S
N549 C541 1.427 . S
N549 C547 1.384 . S
H550 C556 0.930 . S
H551 C560 0.930 . S
H552 C565 0.929 . S
H553 C563 0.929 . S
H554 C558 0.929 . S
H555 C564 0.929 . S
C556 H550 0.930 . S
C556 C557 1.367 . S
C556 C564 1.378 . S
C557 C556 1.367 . S
C557 C565 1.433 1_655 S
C558 H554 0.929 . S
C558 C560 1.378 . S
C558 C562 1.350 1_455 S
C559 C562 1.463 1_554 S
C559 C564 1.350 . S
C559 N567 1.427 1_655 S
C560 H551 0.930 . S
C560 C558 1.378 . S
C560 C561 1.351 1_455 S
C561 C560 1.351 1_655 S
C561 C563 1.451 . S
C562 C558 1.350 1_655 S
C562 C559 1.463 1_556 S
C562 N566 1.427 . S
C563 H553 0.929 . S
C563 C561 1.451 . S
C563 N566 1.384 . S
C564 H555 0.929 . S
C564 C556 1.378 . S
C564 C559 1.350 . S
C565 H552 0.929 . S
C565 C557 1.433 1_455 S
C565 N567 1.384 . S
N566 C562 1.427 . S
N566 C563 1.384 . S
N567 C559 1.427 1_455 S
N567 C565 1.384 . S
H568 C574 0.930 . S
H569 C578 0.930 . S
H570 C583 0.902 1_655 S
H571 C581 0.929 . S
H572 C576 0.929 . S
H573 C582 0.929 . S
C574 H568 0.930 . S
C574 C575 1.367 . S
C574 C582 1.378 . S
C575 C574 1.367 . S
C575 C583 1.433 . S
C576 H572 0.929 . S
C576 C578 1.378 . S
C576 C580 1.350 1_655 S
C577 C580 1.463 . S
C577 C582 1.350 . S
C577 N585 1.427 . S
C578 H569 0.930 . S
C578 C576 1.378 . S
C578 C579 1.367 1_655 S
C579 C578 1.367 1_455 S
C579 C581 1.433 . S
C580 C576 1.350 1_455 S
C580 C577 1.463 . S
C580 N584 1.427 . S
C581 H571 0.929 . S
C581 C579 1.433 . S
C581 N584 1.384 . S
C582 H573 0.929 . S
C582 C574 1.378 . S
C582 C577 1.350 . S
C583 H570 0.902 1_455 S
C583 C575 1.433 . S
C583 N585 1.384 . S
N584 C580 1.427 . S
N584 C581 1.384 . S
N585 C577 1.427 . S
N585 C583 1.384 . S
H586 C592 0.930 . S
H587 C596 0.930 . S
H588 C601 0.929 . S
H589 C599 0.929 . S
H590 C594 0.929 . S
H591 C600 0.929 . S
C592 H586 0.930 . S
C592 C593 1.367 . S
C592 C600 1.378 . S
C593 C592 1.367 . S
C593 C601 1.433 . S
C594 H590 0.929 . S
C594 C596 1.378 . S
C594 C598 1.350 1_565 S
C595 C598 1.463 . S
C595 C600 1.350 . S
C595 N603 1.427 . S
C596 H587 0.930 . S
C596 C594 1.378 . S
C596 C597 1.367 1_565 S
C597 C596 1.367 1_545 S
C597 C599 1.433 . S
C598 C594 1.350 1_545 S
C598 C595 1.463 . S
C598 N602 1.427 . S
C599 H589 0.929 . S
C599 C597 1.433 . S
C599 N602 1.384 . S
C600 H591 0.929 . S
C600 C592 1.378 . S
C600 C595 1.350 . S
C601 H588 0.929 . S
C601 C593 1.433 . S
C601 N603 1.384 . S
N602 C598 1.427 . S
N602 C599 1.384 . S
N603 C595 1.427 . S
N603 C601 1.384 . S
H604 C610 0.930 . S
H605 C614 0.930 . S
H606 C619 0.929 . S
H607 C617 0.929 . S
H608 C612 0.929 . S
H609 C618 0.929 . S
C610 H604 0.930 . S
C610 C611 1.367 . S
C610 C618 1.378 . S
C611 C610 1.367 . S
C611 C619 1.433 . S
C612 H608 0.929 . S
C612 C614 1.378 . S
C612 C616 1.350 . S
C613 C616 1.463 . S
C613 C618 1.350 . S
C613 N621 1.427 . S
C614 H605 0.930 . S
C614 C612 1.378 . S
C614 C615 1.367 . S
C615 C614 1.367 . S
C615 C617 1.433 . S
C616 C612 1.350 . S
C616 C613 1.463 . S
C616 N620 1.427 . S
C617 H607 0.929 . S
C617 C615 1.433 . S
C617 N620 1.384 . S
C618 H609 0.929 . S
C618 C610 1.378 . S
C618 C613 1.350 . S
C619 H606 0.929 . S
C619 C611 1.433 . S
C619 N621 1.384 . S
N620 C616 1.427 . S
N620 C617 1.384 . S
N621 C613 1.427 . S
N621 C619 1.384 . S
H622 C628 0.930 . S
H623 C632 0.930 . S
H624 C637 0.929 . S
H625 C635 0.929 . S
H626 C630 0.929 . S
H627 C636 0.929 . S
C628 H622 0.930 . S
C628 C629 1.367 . S
C628 C636 1.378 . S
C629 C628 1.367 . S
C629 C637 1.433 . S
C630 H626 0.929 . S
C630 C632 1.378 . S
C630 C634 1.350 . S
C631 C634 1.463 . S
C631 C636 1.350 . S
C631 N639 1.427 . S
C632 H623 0.930 . S
C632 C630 1.378 . S
C632 C633 1.367 . S
C633 C632 1.367 . S
C633 C635 1.433 . S
C634 C630 1.350 . S
C634 C631 1.463 . S
C634 N638 1.427 . S
C635 H625 0.929 . S
C635 C633 1.433 . S
C635 N638 1.384 . S
C636 H627 0.929 . S
C636 C628 1.378 . S
C636 C631 1.350 . S
C637 H624 0.929 . S
C637 C629 1.433 . S
C637 N639 1.384 . S
N638 C634 1.427 . S
N638 C635 1.384 . S
N639 C631 1.427 . S
N639 C637 1.384 . S
H640 C646 0.930 1_455 S
H641 C650 0.930 . S
H642 C655 0.929 . S
H643 C653 0.929 . S
H644 C648 0.929 . S
H645 C654 0.929 . S
C646 H640 0.930 1_655 S
C646 C647 1.367 . S
C646 C654 1.378 1_655 S
C647 C646 1.367 . S
C647 C655 1.433 . S
C648 H644 0.929 . S
C648 C650 1.378 . S
C648 C652 1.350 . S
C649 C652 1.463 . S
C649 C654 1.350 1_655 S
C649 N657 1.427 . S
C650 H641 0.930 . S
C650 C648 1.378 . S
C650 C651 1.367 1_655 S
C651 C650 1.367 1_455 S
C651 C653 1.433 1_554 S
C652 C648 1.350 . S
C652 C649 1.463 . S
C652 N656 1.427 1_655 S
C653 H643 0.929 . S
C653 C651 1.433 1_556 S
C653 N656 1.384 1_556 S
C654 H645 0.929 . S
C654 C646 1.378 1_455 S
C654 C649 1.350 1_455 S
C655 H642 0.929 . S
C655 C647 1.433 . S
C655 N657 1.384 . S
N656 C652 1.427 1_455 S
N656 C653 1.384 1_554 S
N657 C649 1.427 . S
N657 C655 1.384 . S
H658 C664 0.930 . S
H659 C668 0.930 . S
H660 C673 0.929 . S
H661 C671 0.929 . S
H662 C666 0.929 . S
H663 C672 0.929 . S
C664 H658 0.930 . S
C664 C665 1.367 1_545 S
C664 C672 1.378 . S
C665 C664 1.367 1_565 S
C665 C673 1.433 . S
C666 H662 0.929 . S
C666 C668 1.378 . S
C666 C670 1.350 . S
C667 C670 1.463 . S
C667 C672 1.350 1_565 S
C667 N675 1.427 . S
C668 H659 0.930 . S
C668 C666 1.378 . S
C668 C669 1.367 1_565 S
C669 C668 1.367 1_545 S
C669 C671 1.433 . S
C670 C666 1.350 . S
C670 C667 1.463 . S
C670 N674 1.427 1_565 S
C671 H661 0.929 . S
C671 C669 1.433 . S
C671 N674 1.384 . S
C672 H663 0.929 . S
C672 C664 1.378 . S
C672 C667 1.350 1_545 S
C673 H660 0.929 . S
C673 C665 1.433 . S
C673 N675 1.384 . S
N674 C670 1.427 1_545 S
N674 C671 1.384 . S
N675 C667 1.427 . S
N675 C673 1.384 . S
H676 C682 0.930 . S
H677 C686 0.930 . S
H678 C691 0.929 . S
H679 C689 0.929 . S
H680 C684 0.929 1_556 S
H681 C690 0.929 . S
C682 H676 0.930 . S
C682 C683 1.367 . S
C682 C690 1.378 . S
C683 C682 1.367 . S
C683 C691 1.433 . S
C684 H680 0.929 1_554 S
C684 C686 1.378 1_554 S
C684 C688 1.350 . S
C685 C688 1.463 . S
C685 C690 1.350 . S
C685 N693 1.427 . S
C686 H677 0.930 . S
C686 C684 1.378 1_556 S
C686 C687 1.367 1_556 S
C687 C686 1.367 1_554 S
C687 C689 1.433 . S
C688 C684 1.350 . S
C688 C685 1.463 . S
C688 N692 1.427 . S
C689 H679 0.929 . S
C689 C687 1.433 . S
C689 N692 1.384 . S
C690 H681 0.929 . S
C690 C682 1.378 . S
C690 C685 1.350 . S
C691 H678 0.929 . S
C691 C683 1.433 . S
C691 N693 1.384 . S
N692 C688 1.427 . S
N692 C689 1.384 . S
N693 C685 1.427 . S
N693 C691 1.384 . S
H694 C700 0.930 . S
H695 C704 0.930 . S
H696 C709 0.929 . S
H697 C707 0.929 . S
H698 C702 0.929 . S
H699 C708 0.929 . S
C700 H694 0.930 . S
C700 C701 1.367 . S
C700 C708 1.378 . S
C701 C700 1.367 . S
C701 C709 1.433 . S
C702 H698 0.929 . S
C702 C704 1.378 . S
C702 C706 1.350 . S
C703 C706 1.463 . S
C703 C708 1.350 . S
C703 N711 1.427 . S
C704 H695 0.930 . S
C704 C702 1.378 . S
C704 C705 1.367 . S
C705 C704 1.367 . S
C705 C707 1.433 1_554 S
C706 C702 1.350 . S
C706 C703 1.463 . S
C706 N710 1.427 . S
C707 H697 0.929 . S
C707 C705 1.433 1_556 S
C707 N710 1.384 1_556 S
C708 H699 0.929 . S
C708 C700 1.378 . S
C708 C703 1.350 . S
C709 H696 0.929 . S
C709 C701 1.433 . S
C709 N711 1.384 . S
N710 C706 1.427 . S
N710 C707 1.384 1_554 S
N711 C703 1.427 . S
N711 C709 1.384 . S
H712 C718 0.930 . S
H713 C722 0.930 . S
H714 C727 0.929 . S
H715 C725 0.929 . S
H716 C720 0.929 . S
H717 C726 0.929 . S
C718 H712 0.930 . S
C718 C719 1.367 . S
C718 C726 1.378 . S
C719 C718 1.367 . S
C719 C727 1.433 . S
C720 H716 0.929 . S
C720 C722 1.378 . S
C720 C724 1.350 . S
C721 C724 1.463 . S
C721 C726 1.350 . S
C721 N729 1.427 . S
C722 H713 0.930 . S
C722 C720 1.378 . S
C722 C723 1.367 . S
C723 C722 1.367 . S
C723 C725 1.433 . S
C724 C720 1.350 . S
C724 C721 1.463 . S
C724 N728 1.427 . S
C725 H715 0.929 . S
C725 C723 1.433 . S
C725 N728 1.384 . S
C726 H717 0.929 . S
C726 C718 1.378 . S
C726 C721 1.350 . S
C727 H714 0.929 . S
C727 C719 1.433 . S
C727 N729 1.384 . S
N728 C724 1.427 . S
N728 C725 1.384 . S
N729 C721 1.427 . S
N729 C727 1.384 . S
H730 C736 0.937 . S
H731 C740 0.930 . S
H732 C745 0.929 . S
H733 C743 0.929 1_565 S
H734 C738 0.929 . S
H735 C744 0.929 1_565 S
C736 H730 0.937 . S
C736 C737 1.367 . S
C736 C744 1.378 . S
C737 C736 1.367 . S
C737 C745 1.433 . S
C738 H734 0.929 . S
C738 C740 1.378 . S
C738 C742 1.350 . S
C739 C742 1.463 . S
C739 C744 1.350 . S
C739 N747 1.427 . S
C740 H731 0.930 . S
C740 C738 1.378 . S
C740 C741 1.367 . S
C741 C740 1.367 . S
C741 C743 1.433 . S
C742 C738 1.350 . S
C742 C739 1.463 . S
C742 N746 1.427 . S
C743 H733 0.929 1_545 S
C743 C741 1.433 . S
C743 N746 1.384 . S
C744 H735 0.929 1_545 S
C744 C736 1.378 . S
C744 C739 1.350 . S
C745 H732 0.929 . S
C745 C737 1.433 . S
C745 N747 1.384 . S
N746 C742 1.427 . S
N746 C743 1.384 . S
N747 C739 1.427 . S
N747 C745 1.384 . S
H748 C754 0.930 . S
H749 C758 0.930 . S
H750 C763 0.929 . S
H751 C761 0.929 . S
H752 C756 0.929 . S
H753 C762 0.929 . S
C754 H748 0.930 . S
C754 C755 1.367 . S
C754 C762 1.378 . S
C755 C754 1.367 . S
C755 C763 1.433 . S
C756 H752 0.929 . S
C756 C758 1.378 . S
C756 C760 1.350 . S
C757 C760 1.463 . S
C757 C762 1.350 . S
C757 N765 1.427 . S
C758 H749 0.930 . S
C758 C756 1.378 . S
C758 C759 1.367 . S
C759 C758 1.367 . S
C759 C761 1.433 . S
C760 C756 1.350 . S
C760 C757 1.463 . S
C760 N764 1.427 . S
C761 H751 0.929 . S
C761 C759 1.433 . S
C761 N764 1.384 . S
C762 H753 0.929 . S
C762 C754 1.378 . S
C762 C757 1.350 . S
C763 H750 0.929 . S
C763 C755 1.433 . S
C763 N765 1.384 . S
N764 C760 1.427 . S
N764 C761 1.384 . S
N765 C757 1.427 . S
N765 C763 1.384 . S
H766 C772 0.930 . S
H767 C776 0.930 . S
H768 C781 0.929 . S
H769 C779 0.929 . S
H770 C774 0.929 . S
H771 C780 0.929 . S
C772 H766 0.930 . S
C772 C773 1.367 . S
C772 C780 1.378 . S
C773 C772 1.367 . S
C773 C781 1.433 . S
C774 H770 0.929 . S
C774 C776 1.378 . S
C774 C778 1.350 . S
C775 C778 1.463 . S
C775 C780 1.350 . S
C775 N783 1.427 . S
C776 H767 0.930 . S
C776 C774 1.378 . S
C776 C777 1.367 . S
C777 C776 1.367 . S
C777 C779 1.433 . S
C778 C774 1.350 . S
C778 C775 1.463 . S
C778 N782 1.427 . S
C779 H769 0.929 . S
C779 C777 1.433 . S
C779 N782 1.384 . S
C780 H771 0.929 . S
C780 C772 1.378 . S
C780 C775 1.350 . S
C781 H768 0.929 . S
C781 C773 1.433 . S
C781 N783 1.384 . S
N782 C778 1.427 . S
N782 C779 1.384 . S
N783 C775 1.427 . S
N783 C781 1.384 . S
H784 C790 0.930 . S
H785 C794 0.930 . S
H786 C799 0.929 . S
H787 C797 0.929 1_455 S
H788 C792 0.929 . S
H789 C798 0.929 . S
C790 H784 0.930 . S
C790 C791 1.367 . S
C790 C798 1.378 . S
C791 C790 1.367 . S
C791 C799 1.433 . S
C792 H788 0.929 . S
C792 C794 1.378 . S
C792 C796 1.350 . S
C793 C796 1.463 . S
C793 C798 1.350 . S
C793 N801 1.427 . S
C794 H785 0.930 . S
C794 C792 1.378 . S
C794 C795 1.367 . S
C795 C794 1.367 . S
C795 C797 1.433 . S
C796 C792 1.350 . S
C796 C793 1.463 . S
C796 N800 1.427 . S
C797 H787 0.929 1_655 S
C797 C795 1.433 . S
C797 N800 1.384 . S
C798 H789 0.929 . S
C798 C790 1.378 . S
C798 C793 1.350 . S
C799 H786 0.929 . S
C799 C791 1.433 . S
C799 N801 1.384 . S
N800 C796 1.427 . S
N800 C797 1.384 . S
N801 C793 1.427 . S
N801 C799 1.384 . S
H802 C808 0.930 . S
H803 C812 0.930 . S
H804 C817 0.929 . S
H805 C815 0.929 . S
H806 C810 0.929 . S
H807 C816 0.929 . S
C808 H802 0.930 . S
C808 C809 1.367 . S
C808 C816 1.378 . S
C809 C808 1.367 . S
C809 C817 1.433 1_565 S
C810 H806 0.929 . S
C810 C812 1.378 . S
C810 C814 1.350 1_545 S
C811 C814 1.463 . S
C811 C816 1.350 . S
C811 N819 1.427 1_565 S
C812 H803 0.930 . S
C812 C810 1.378 . S
C812 C813 1.367 1_545 S
C813 C812 1.367 1_565 S
C813 C815 1.433 . S
C814 C810 1.350 1_565 S
C814 C811 1.463 . S
C814 N818 1.427 . S
C815 H805 0.929 . S
C815 C813 1.433 . S
C815 N818 1.384 . S
C816 H807 0.929 . S
C816 C808 1.378 . S
C816 C811 1.350 . S
C817 H804 0.929 . S
C817 C809 1.433 1_545 S
C817 N819 1.384 . S
N818 C814 1.427 . S
N818 C815 1.384 . S
N819 C811 1.427 1_545 S
N819 C817 1.384 . S
H820 C826 0.930 . S
H821 C830 0.930 . S
H822 C835 0.929 . S
H823 C833 0.929 . S
H824 C828 0.929 . S
H825 C834 0.929 . S
C826 H820 0.930 . S
C826 C827 1.367 . S
C826 C834 1.378 . S
C827 C826 1.367 . S
C827 C835 1.433 . S
C828 H824 0.929 . S
C828 C830 1.378 . S
C828 C832 1.350 . S
C829 C832 1.463 . S
C829 C834 1.350 . S
C829 N837 1.427 . S
C830 H821 0.930 . S
C830 C828 1.378 . S
C830 C831 1.367 . S
C831 C830 1.367 . S
C831 C833 1.433 . S
C832 C828 1.350 . S
C832 C829 1.463 . S
C832 N836 1.427 . S
C833 H823 0.929 . S
C833 C831 1.433 . S
C833 N836 1.384 . S
C834 H825 0.929 . S
C834 C826 1.378 . S
C834 C829 1.350 . S
C835 H822 0.929 . S
C835 C827 1.433 . S
C835 N837 1.384 . S
N836 C832 1.427 . S
N836 C833 1.384 . S
N837 C829 1.427 . S
N837 C835 1.384 . S
H838 C844 0.930 . S
H839 C848 0.930 . S
H840 C853 0.929 . S
H841 C851 0.929 . S
H842 C846 0.929 . S
H843 C852 0.929 . S
C844 H838 0.930 . S
C844 C845 1.367 . S
C844 C852 1.378 . S
C845 C844 1.367 . S
C845 C853 1.433 . S
C846 H842 0.929 . S
C846 C848 1.378 . S
C846 C850 1.350 . S
C847 C850 1.463 . S
C847 C852 1.350 . S
C847 N855 1.427 . S
C848 H839 0.930 . S
C848 C846 1.378 . S
C848 C849 1.367 . S
C849 C848 1.367 . S
C849 C851 1.433 . S
C850 C846 1.350 . S
C850 C847 1.463 . S
C850 N854 1.427 . S
C851 H841 0.929 . S
C851 C849 1.433 . S
C851 N854 1.384 . S
C852 H843 0.929 . S
C852 C844 1.378 . S
C852 C847 1.350 . S
C853 H840 0.929 . S
C853 C845 1.433 . S
C853 N855 1.384 . S
N854 C850 1.427 . S
N854 C851 1.384 . S
N855 C847 1.427 . S
N855 C853 1.384 . S
C431 C76 1.897 . S
C435 C151 2.016 . S
C453 C228 2.033 . S
C449 C87 1.901 . S
C471 C319 2.009 . S
C467 C54 1.886 . S
C489 C403 1.997 . S
C485 C65 1.870 . S
C507 C162 2.017 . S
C503 C32 1.890 . S
C521 C43 1.892 . S
C525 C239 2.028 . S
C539 C10 1.886 . S
C543 C330 2.008 . S
C557 C21 1.880 . S
C561 C414 1.994 1_655 S
C579 C146 0.598 1_455 S
C575 C60 0.597 . S
C597 C241 0.610 . S
C593 C71 0.573 . S
C615 C314 0.625 . S
C611 C82 0.606 . S
C629 C49 0.561 . S
C633 C398 0.607 . S
C647 C16 0.597 . S
C651 C157 0.636 1_554 S
C669 C230 0.604 . S
C665 C27 0.567 . S
C687 C325 0.613 1_554 S
C683 C38 0.583 . S
C701 C5 0.584 . S
C705 C409 0.624 1_554 S
C719 C59 1.915 . S
C723 C155 2.112 . S
C737 C70 1.925 . S
C741 C246 2.127 . S
C759 C323 2.134 . S
C755 C81 1.943 . S
C777 C407 2.138 . S
C773 C48 1.947 . S
C791 C15 1.926 . S
C795 C144 2.117 . S
C813 C235 2.125 1_565 S
C809 C26 1.919 . S
C831 C312 2.130 . S
C827 C37 1.926 . S
C845 C4 1.933 . S
C849 C396 2.135 . S
