# Generated by pormake.
# Topology pyr, (3,6)-cn, num edge types: 1
# Building blocks:
#     Node 0, Type 0, BuildingBlock: PAMTOO_clean_linker_0, # of connection points: 3
#     Node 1, Type 0, BuildingBlock: PAMTOO_clean_linker_0, # of connection points: 3
#     Node 2, Type 0, BuildingBlock: PAMTOO_clean_linker_0, # of connection points: 3
#     Node 3, Type 0, BuildingBlock: PAMTOO_clean_linker_0, # of connection points: 3
#     Node 4, Type 0, BuildingBlock: PAMTOO_clean_linker_0, # of connection points: 3
#     Node 5, Type 0, BuildingBlock: PAMTOO_clean_linker_0, # of connection points: 3
#     Node 6, Type 0, BuildingBlock: PAMTOO_clean_linker_0, # of connection points: 3
#     Node 7, Type 0, BuildingBlock: PAMTOO_clean_linker_0, # of connection points: 3
#     Node 8, Type 1, BuildingBlock: LEVNOQ01_clean_sbu_1, # of connection points: 6
#     Node 9, Type 1, BuildingBlock: LEVNOQ01_clean_sbu_1, # of connection points: 6
#     Node 10, Type 1, BuildingBlock: LEVNOQ01_clean_sbu_1, # of connection points: 6
#     Node 11, Type 1, BuildingBlock: LEVNOQ01_clean_sbu_1, # of connection points: 6
#     Edge 12, Type (0, 1), BuildingBlock: TEMPAE_clean_linker_10, # of connection points: 2
#     Edge 13, Type (0, 1), BuildingBlock: TEMPAE_clean_linker_10, # of connection points: 2
#     Edge 14, Type (0, 1), BuildingBlock: TEMPAE_clean_linker_10, # of connection points: 2
#     Edge 15, Type (0, 1), BuildingBlock: TEMPAE_clean_linker_10, # of connection points: 2
#     Edge 16, Type (0, 1), BuildingBlock: TEMPAE_clean_linker_10, # of connection points: 2
#     Edge 17, Type (0, 1), BuildingBlock: TEMPAE_clean_linker_10, # of connection points: 2
#     Edge 18, Type (0, 1), BuildingBlock: TEMPAE_clean_linker_10, # of connection points: 2
#     Edge 19, Type (0, 1), BuildingBlock: TEMPAE_clean_linker_10, # of connection points: 2
#     Edge 20, Type (0, 1), BuildingBlock: TEMPAE_clean_linker_10, # of connection points: 2
#     Edge 21, Type (0, 1), BuildingBlock: TEMPAE_clean_linker_10, # of connection points: 2
#     Edge 22, Type (0, 1), BuildingBlock: TEMPAE_clean_linker_10, # of connection points: 2
#     Edge 23, Type (0, 1), BuildingBlock: TEMPAE_clean_linker_10, # of connection points: 2
#     Edge 24, Type (0, 1), BuildingBlock: TEMPAE_clean_linker_10, # of connection points: 2
#     Edge 25, Type (0, 1), BuildingBlock: TEMPAE_clean_linker_10, # of connection points: 2
#     Edge 26, Type (0, 1), BuildingBlock: TEMPAE_clean_linker_10, # of connection points: 2
#     Edge 27, Type (0, 1), BuildingBlock: TEMPAE_clean_linker_10, # of connection points: 2
#     Edge 28, Type (0, 1), BuildingBlock: TEMPAE_clean_linker_10, # of connection points: 2
#     Edge 29, Type (0, 1), BuildingBlock: TEMPAE_clean_linker_10, # of connection points: 2
#     Edge 30, Type (0, 1), BuildingBlock: TEMPAE_clean_linker_10, # of connection points: 2
#     Edge 31, Type (0, 1), BuildingBlock: TEMPAE_clean_linker_10, # of connection points: 2
#     Edge 32, Type (0, 1), BuildingBlock: TEMPAE_clean_linker_10, # of connection points: 2
#     Edge 33, Type (0, 1), BuildingBlock: TEMPAE_clean_linker_10, # of connection points: 2
#     Edge 34, Type (0, 1), BuildingBlock: TEMPAE_clean_linker_10, # of connection points: 2
#     Edge 35, Type (0, 1), BuildingBlock: TEMPAE_clean_linker_10, # of connection points: 2
# Relax obj value: 0.092
# Max RMSD: 0.205
# Mean RMSD: 0.143
data_MOF--net-pry--node1-LEVNOQ01_clean_sbu_1--node2-PAMTOO_clean_linker_0--edge1-TEMPAE_clean_linker_10
_symmetry_space_group_name_H-M    P1
_symmetry_Int_Tables_number       1
_symmetry_cell_setting            triclinic
loop_
_symmetry_equiv_pos_as_xyz
'x, y, z'
_cell_length_a     36.586326
_cell_length_b     36.324331
_cell_length_c     35.72105
_cell_angle_alpha  92.320424
_cell_angle_beta   92.153121
_cell_angle_gamma 98.770791
loop_
_atom_site_label
_atom_site_type_symbol
_atom_site_fract_x
_atom_site_fract_y
_atom_site_fract_z
_atom_type_partial_charge
H0 H 0.1328 0.20603 0.20271 0.0
H1 H 0.21478 0.13283 0.21039 0.0
H2 H 0.20668 0.19628 0.11268 0.0
H3 H 0.22048 0.1192 0.09671 0.0
C4 C 0.23635 0.11504 0.12298 0.0
O5 O 0.24193 0.1477 0.14508 0.0
H6 H 0.21968 0.09251 0.13805 0.0
C7 C 0.15542 0.19412 0.19076 0.0
C8 C 0.16756 0.20465 0.15513 0.0
C9 C 0.17231 0.16834 0.21115 0.0
C10 C 0.20159 0.15294 0.19538 0.0
C11 C 0.21354 0.16263 0.15977 0.0
C12 C 0.19663 0.18845 0.13983 0.0
H13 H 0.34993 0.95556 0.66538 0.0
H14 H 0.35089 0.87213 0.57616 0.0
H15 H 0.43935 0.89127 0.6602 0.0
H16 H 0.46041 0.87563 0.5817 0.0
C17 C 0.43722 0.85266 0.57398 0.0
O18 O 0.41158 0.84989 0.60145 0.0
H19 H 0.42392 0.85912 0.54701 0.0
C20 C 0.3632 0.9344 0.65141 0.0
C21 C 0.39701 0.92641 0.66635 0.0
C22 C 0.34649 0.91536 0.61854 0.0
C23 C 0.36391 0.8879 0.6008 0.0
C24 C 0.39733 0.87932 0.61589 0.0
C25 C 0.414 0.89884 0.64826 0.0
H26 H 0.68563 0.30922 0.90082 0.0
H27 H 0.68221 0.30345 0.77999 0.0
H28 H 0.75751 0.38881 0.84155 0.0
H29 H 0.76932 0.40195 0.75218 0.0
C30 C 0.74079 0.39555 0.76228 0.0
O31 O 0.73597 0.35961 0.77464 0.0
H32 H 0.73924 0.41648 0.78559 0.0
C33 C 0.69397 0.3213 0.87458 0.0
C34 C 0.72114 0.35282 0.87517 0.0
C35 C 0.68 0.30318 0.84038 0.0
C36 C 0.69179 0.3181 0.8064 0.0
C37 C 0.71954 0.34943 0.8068 0.0
C38 C 0.73437 0.36625 0.84123 0.0
H39 H 0.88533 0.64983 0.51357 0.0
H40 H 0.8686 0.56523 0.42357 0.0
H41 H 0.95393 0.65941 0.41843 0.0
H42 H 0.9081 0.64358 0.35233 0.0
C43 C 0.90234 0.61257 0.35151 0.0
O44 O 0.91947 0.59945 0.38235 0.0
H45 H 0.87186 0.60398 0.3524 0.0
C46 C 0.89366 0.63787 0.48757 0.0
C47 C 0.92282 0.65787 0.46885 0.0
C48 C 0.87345 0.60444 0.47172 0.0
C49 C 0.88375 0.59065 0.43681 0.0
C50 C 0.91263 0.61057 0.41771 0.0
C51 C 0.93256 0.64363 0.43409 0.0
H52 H 0.84974 0.9198 0.83467 0.0
H53 H 0.85724 0.85947 0.93519 0.0
H54 H 0.92116 0.83579 0.84139 0.0
H55 H 0.87423 0.77162 0.88291 0.0
C56 C 0.88421 0.78241 0.91172 0.0
O57 O 0.9042 0.81782 0.90979 0.0
H58 H 0.85965 0.78391 0.92879 0.0
C59 C 0.86103 0.89859 0.84993 0.0
C60 C 0.88713 0.87902 0.83322 0.0
C61 C 0.8501 0.89193 0.88671 0.0
C62 C 0.86567 0.86532 0.907 0.0
C63 C 0.8908 0.84471 0.89048 0.0
C64 C 0.90163 0.85176 0.8538 0.0
H65 H 0.71082 0.08623 0.36143 0.0
H66 H 0.62068 0.15052 0.36023 0.0
H67 H 0.70469 0.16955 0.44882 0.0
H68 H 0.6299 0.1729 0.4726 0.0
C69 C 0.61846 0.18575 0.44785 0.0
O70 O 0.64456 0.19091 0.4209 0.0
H71 H 0.59362 0.16646 0.4364 0.0
C72 C 0.69608 0.10693 0.37407 0.0
C73 C 0.71077 0.12608 0.40753 0.0
C74 C 0.66359 0.11547 0.35622 0.0
C75 C 0.64583 0.14339 0.37301 0.0
C76 C 0.66061 0.16274 0.40629 0.0
C77 C 0.69313 0.15418 0.42337 0.0
H78 H 0.33448 0.74291 0.14458 0.0
H79 H 0.31631 0.64002 0.20114 0.0
H80 H 0.41003 0.72222 0.23433 0.0
H81 H 0.41762 0.63609 0.21716 0.0
C82 C 0.39228 0.62535 0.2321 0.0
O83 O 0.37549 0.65478 0.24457 0.0
H84 H 0.37316 0.6065 0.21225 0.0
C85 C 0.34229 0.7256 0.16665 0.0
C86 C 0.37375 0.73787 0.19037 0.0
C87 C 0.32168 0.69033 0.17047 0.0
C88 C 0.33196 0.66756 0.19831 0.0
C89 C 0.36409 0.67874 0.22062 0.0
C90 C 0.38506 0.71385 0.21684 0.0
H91 H 0.12049 0.34694 0.6779 0.0
H92 H 0.14585 0.46658 0.67864 0.0
H93 H 0.14655 0.4023 0.57555 0.0
H94 H 0.18968 0.50636 0.63924 0.0
C95 C 0.18505 0.49585 0.60948 0.0
O96 O 0.15362 0.46936 0.60608 0.0
H97 H 0.17993 0.52013 0.59325 0.0
C98 C 0.12903 0.37223 0.66337 0.0
C99 C 0.13284 0.37025 0.62425 0.0
C100 C 0.13446 0.40678 0.68359 0.0
C101 C 0.1436 0.43954 0.66404 0.0
C102 C 0.14861 0.43779 0.62531 0.0
C103 C 0.14374 0.40321 0.60565 0.0
O104 O 0.02131 0.02674 0.62231 0.0
Mg105 Mg 0.05947 0.05516 0.58809 0.0
O106 O 0.99698 0.99234 0.57278 0.0
Mg107 Mg 0.02613 0.01973 0.51881 0.0
O108 O 0.04038 0.08189 0.54366 0.0
O109 O 0.06442 0.11015 0.59842 0.0
O110 O 0.05685 0.05 0.46618 0.0
O111 O 0.96807 0.03773 0.50337 0.0
Mg112 Mg 0.00608 0.99123 0.45242 0.0
O113 O 0.0103 0.95586 0.49521 0.0
O114 O 0.05169 0.00684 0.42123 0.0
O115 O 0.9597 0.01784 0.44454 0.0
O116 O 0.98903 0.93827 0.43638 0.0
C117 C 0.11197 0.01211 0.5565 0.0
C118 C 0.99832 0.9999 0.60822 0.0
C119 C 0.05066 0.11203 0.56491 0.0
C120 C 0.06595 0.03875 0.43387 0.0
C121 C 0.94883 0.03474 0.47255 0.0
C122 C 0.9979 0.92966 0.46974 0.0
O123 O 0.11025 0.03703 0.58176 0.0
O124 O 0.08434 0.00135 0.53363 0.0
O125 O 0.51364 0.0674 0.06681 0.0
Mg126 Mg 0.56499 0.0674 0.04025 0.0
O127 O 0.48885 0.02485 0.02448 0.0
Mg128 Mg 0.54553 0.00691 0.00903 0.0
O129 O 0.56743 0.06634 0.98318 0.0
O130 O 0.57617 0.11832 0.02067 0.0
O131 O 0.60574 0.99102 0.99399 0.0
O132 O 0.52079 0.99656 0.94611 0.0
Mg133 Mg 0.54454 0.93163 0.98597 0.0
O134 O 0.51813 0.94929 0.03088 0.0
O135 O 0.60012 0.92993 0.99372 0.0
O136 O 0.52364 0.9376 0.93219 0.0
O137 O 0.51447 0.88937 0.0101 0.0
C138 C 0.59665 0.03212 0.08959 0.0
C139 C 0.48499 0.04823 0.05108 0.0
C140 C 0.57496 0.10256 0.98763 0.0
C141 C 0.62042 0.96108 0.99236 0.0
C142 C 0.51549 0.96851 0.92265 0.0
C143 C 0.50631 0.91393 0.0342 0.0
O144 O 0.61226 0.05889 0.0719 0.0
O145 O 0.56761 0.01246 0.07432 0.0
O146 O 0.49293 0.57631 0.61082 0.0
Mg147 Mg 0.48887 0.51825 0.62135 0.0
O148 O 0.5143 0.57552 0.55317 0.0
Mg149 Mg 0.52744 0.51607 0.53663 0.0
O150 O 0.53228 0.50275 0.59594 0.0
O151 O 0.52765 0.49568 0.65615 0.0
O152 O 0.54203 0.4575 0.51954 0.0
O153 O 0.59151 0.53844 0.54407 0.0
Mg154 Mg 0.57307 0.52675 0.46543 0.0
O155 O 0.51964 0.52903 0.47547 0.0
O156 O 0.58131 0.47089 0.47414 0.0
O157 O 0.60732 0.57081 0.49505 0.0
O158 O 0.54262 0.5382 0.41913 0.0
C159 C 0.43832 0.48155 0.55567 0.0
C160 C 0.50243 0.59283 0.58107 0.0
C161 C 0.54567 0.49187 0.62636 0.0
C162 C 0.56482 0.4477 0.49607 0.0
C163 C 0.61476 0.56167 0.52785 0.0
C164 C 0.51501 0.53639 0.44074 0.0
O165 O 0.44368 0.48498 0.59113 0.0
O166 O 0.46359 0.4931 0.53313 0.0
O167 O 0.0249 0.41512 0.0782 0.0
Mg168 Mg 0.04597 0.47245 0.08445 0.0
O169 O 0.05551 0.43542 0.03079 0.0
Mg170 Mg 0.02828 0.49319 0.02728 0.0
O171 O 0.0087 0.50815 0.09049 0.0
O172 O 0.03738 0.48397 0.13826 0.0
O173 O 0.00131 0.55199 0.02483 0.0
O174 O 0.97092 0.45764 0.01789 0.0
Mg175 Mg 0.01742 0.51495 0.97682 0.0
O176 O 0.04902 0.47644 0.96345 0.0
O177 O 0.0414 0.57171 0.98491 0.0
O178 O 0.95883 0.49838 0.97783 0.0
O179 O 0.02287 0.50924 0.9214 0.0
C180 C 0.11045 0.52077 0.0573 0.0
C181 C 0.04448 0.4084 0.05146 0.0
C182 C 0.01362 0.50398 0.1264 0.0
C183 C 0.0171 0.57908 0.00668 0.0
C184 C 0.94782 0.4704 0.99663 0.0
C185 C 0.04361 0.48476 0.9287 0.0
O186 O 0.10349 0.49354 0.07831 0.0
O187 O 0.08458 0.52937 0.03646 0.0
C188 C 0.12096 0.14518 0.25308 0.0
C189 C 0.15883 0.15655 0.24839 0.0
C190 C 0.10814 0.1306 0.28692 0.0
C191 C 0.13372 0.12774 0.3171 0.0
C192 C 0.17178 0.14103 0.31317 0.0
C193 C 0.18391 0.15492 0.27879 0.0
C194 C 0.06739 0.11631 0.28958 0.0
C195 C 0.19992 0.13908 0.34473 0.0
C196 C 0.0914 0.10205 0.41081 0.0
C197 C 0.08908 0.0631 0.40855 0.0
C198 C 0.10734 0.12392 0.38205 0.0
C199 C 0.12118 0.10637 0.35048 0.0
C200 C 0.12084 0.06734 0.34941 0.0
C201 C 0.10497 0.04635 0.37838 0.0
C202 C 0.10768 0.16552 0.38455 0.0
C203 C 0.13538 0.04728 0.31659 0.0
H204 H 0.10146 0.14613 0.22966 0.0
H205 H 0.21317 0.16414 0.27551 0.0
H206 H 0.06319 0.08553 0.29139 0.0
H207 H 0.05677 0.12807 0.3154 0.0
H208 H 0.05074 0.12334 0.26498 0.0
H209 H 0.22746 0.15494 0.33914 0.0
H210 H 0.19041 0.15016 0.37145 0.0
H211 H 0.20311 0.10957 0.3486 0.0
H212 H 0.07911 0.11521 0.43395 0.0
H213 H 0.10368 0.0163 0.37659 0.0
H214 H 0.08743 0.17309 0.36342 0.0
H215 H 0.13534 0.18043 0.37811 0.0
H216 H 0.10038 0.17543 0.41273 0.0
H217 H 0.1183 0.05009 0.29082 0.0
H218 H 0.13494 0.01712 0.32103 0.0
H219 H 0.1642 0.05997 0.31153 0.0
C220 C 0.45052 0.9603 0.70608 0.0
C221 C 0.4131 0.94442 0.70252 0.0
C222 C 0.46722 0.97277 0.74131 0.0
C223 C 0.44621 0.96824 0.77379 0.0
C224 C 0.40781 0.95448 0.76993 0.0
C225 C 0.39166 0.94299 0.73427 0.0
C226 C 0.508 0.98812 0.74404 0.0
C227 C 0.38445 0.94863 0.80376 0.0
C228 C 0.49506 0.9385 0.85997 0.0
C229 C 0.4992 0.97049 0.88415 0.0
C230 C 0.47836 0.93788 0.8241 0.0
C231 C 0.4655 0.9702 0.81148 0.0
C232 C 0.47031 0.00306 0.83516 0.0
C233 C 0.48704 0.00281 0.8714 0.0
C234 C 0.47393 0.90216 0.79993 0.0
C235 C 0.45731 0.03817 0.82244 0.0
H236 H 0.46699 0.96189 0.68142 0.0
H237 H 0.36271 0.93063 0.73156 0.0
H238 H 0.51366 0.01249 0.7643 0.0
H239 H 0.52368 0.96644 0.75439 0.0
H240 H 0.51853 0.99661 0.71642 0.0
H241 H 0.35439 0.94299 0.79588 0.0
H242 H 0.39185 0.92449 0.81885 0.0
H243 H 0.38988 0.97337 0.82354 0.0
H244 H 0.50452 0.91337 0.8692 0.0
H245 H 0.49023 0.02768 0.88978 0.0
H246 H 0.4881 0.90716 0.77329 0.0
H247 H 0.44417 0.89242 0.79266 0.0
H248 H 0.48544 0.87947 0.81403 0.0
H249 H 0.46753 0.04494 0.7943 0.0
H250 H 0.46673 0.06238 0.8423 0.0
H251 H 0.42662 0.0338 0.81997 0.0
C252 C 0.72341 0.40655 0.69512 0.0
C253 C 0.71264 0.40019 0.73186 0.0
C254 C 0.69887 0.41764 0.66821 0.0
C255 C 0.66295 0.42263 0.67859 0.0
C256 C 0.65118 0.41348 0.71492 0.0
C257 C 0.67624 0.40233 0.74113 0.0
C258 C 0.71256 0.42662 0.62983 0.0
C259 C 0.61295 0.41809 0.72705 0.0
C260 C 0.61105 0.49808 0.64743 0.0
C261 C 0.58045 0.4769 0.62838 0.0
C262 C 0.64085 0.48124 0.66007 0.0
C263 C 0.6392 0.4422 0.65419 0.0
C264 C 0.61029 0.42165 0.63099 0.0
C265 C 0.58094 0.43938 0.61833 0.0
C266 C 0.67205 0.50452 0.68319 0.0
C267 C 0.60841 0.38034 0.62273 0.0
H268 H 0.75161 0.40466 0.68792 0.0
H269 H 0.66804 0.39726 0.76956 0.0
H270 H 0.68979 0.42182 0.60795 0.0
H271 H 0.72513 0.45643 0.63016 0.0
H272 H 0.73421 0.40971 0.62201 0.0
H273 H 0.60714 0.40679 0.75502 0.0
H274 H 0.61025 0.44814 0.72841 0.0
H275 H 0.59158 0.40378 0.70633 0.0
H276 H 0.61046 0.52726 0.65476 0.0
H277 H 0.55707 0.42324 0.60333 0.0
H278 H 0.69917 0.49776 0.67462 0.0
H279 H 0.66927 0.49821 0.71319 0.0
H280 H 0.67196 0.53487 0.68044 0.0
H281 H 0.63628 0.37327 0.61749 0.0
H282 H 0.58955 0.37046 0.59805 0.0
H283 H 0.59787 0.36505 0.64737 0.0
C284 C 0.95455 0.60469 0.30919 0.0
C285 C 0.91662 0.59804 0.31557 0.0
C286 C 0.9683 0.5918 0.27569 0.0
C287 C 0.94345 0.57203 0.24779 0.0
C288 C 0.90497 0.56628 0.25366 0.0
C289 C 0.89202 0.57937 0.28748 0.0
C290 C 0.00953 0.59838 0.27065 0.0
C291 C 0.8776 0.54531 0.22469 0.0
C292 C 0.98083 0.55558 0.15098 0.0
C293 C 0.99175 0.52055 0.15476 0.0
C294 C 0.96429 0.57264 0.18077 0.0
C295 C 0.95815 0.55383 0.21459 0.0
C296 C 0.96754 0.51769 0.21756 0.0
C297 C 0.98436 0.50169 0.18779 0.0
C298 C 0.95474 0.61126 0.17663 0.0
C299 C 0.96095 0.49628 0.25273 0.0
H300 H 0.97347 0.61968 0.33066 0.0
H301 H 0.86259 0.57473 0.29209 0.0
H302 H 0.0201 0.57131 0.26989 0.0
H303 H 0.01567 0.61132 0.24353 0.0
H304 H 0.02482 0.61663 0.29362 0.0
H305 H 0.84847 0.54591 0.23209 0.0
H306 H 0.8819 0.55731 0.19684 0.0
H307 H 0.88207 0.51581 0.22199 0.0
H308 H 0.98665 0.57026 0.12553 0.0
H309 H 0.99232 0.47434 0.19063 0.0
H310 H 0.97289 0.63125 0.19614 0.0
H311 H 0.92576 0.61208 0.18429 0.0
H312 H 0.95822 0.62076 0.14762 0.0
H313 H 0.97799 0.51132 0.27657 0.0
H314 H 0.96799 0.46765 0.24969 0.0
H315 H 0.93153 0.49422 0.26003 0.0
C316 C 0.29473 0.12354 0.0867 0.0
C317 C 0.27309 0.10385 0.11305 0.0
C318 C 0.32859 0.11311 0.07642 0.0
C319 C 0.3412 0.08223 0.09298 0.0
C320 C 0.31947 0.06237 0.11981 0.0
C321 C 0.28577 0.07352 0.12963 0.0
C322 C 0.35097 0.13523 0.04795 0.0
C323 C 0.33189 0.02942 0.13823 0.0
C324 C 0.41529 0.03778 0.043 0.0
C325 C 0.44776 0.05477 0.06281 0.0
C326 C 0.38035 0.04597 0.05283 0.0
C327 C 0.37775 0.07168 0.08321 0.0
C328 C 0.41034 0.08819 0.1038 0.0
C329 C 0.44481 0.07958 0.09338 0.0
C330 C 0.34625 0.02764 0.03025 0.0
C331 C 0.40892 0.11558 0.13649 0.0
H332 H 0.28498 0.14708 0.07402 0.0
H333 H 0.26915 0.05834 0.15016 0.0
H334 H 0.37847 0.14753 0.06069 0.0
H335 H 0.35584 0.11658 0.02389 0.0
H336 H 0.33705 0.15808 0.03724 0.0
H337 H 0.3115 0.01648 0.15796 0.0
H338 H 0.33628 0.00797 0.11656 0.0
H339 H 0.35878 0.03831 0.15387 0.0
H340 H 0.41721 0.01858 0.01939 0.0
H341 H 0.46961 0.09277 0.10908 0.0
H342 H 0.33276 0.0492 0.01644 0.0
H343 H 0.32592 0.01299 0.04902 0.0
H344 H 0.35271 0.00728 0.00837 0.0
H345 H 0.39761 0.14035 0.12671 0.0
H346 H 0.43663 0.12507 0.15038 0.0
H347 H 0.39011 0.10273 0.15761 0.0
C348 C 0.2814 0.92561 0.62795 0.0
C349 C 0.31029 0.9235 0.60367 0.0
C350 C 0.24793 0.93605 0.61517 0.0
C351 C 0.24334 0.94501 0.57723 0.0
C352 C 0.2718 0.94136 0.55216 0.0
C353 C 0.30494 0.93045 0.56567 0.0
C354 C 0.21814 0.93916 0.64277 0.0
C355 C 0.26807 0.9509 0.51161 0.0
C356 C 0.14524 0.95722 0.54643 0.0
C357 C 0.14625 0.99534 0.5551 0.0
C358 C 0.17719 0.94042 0.55174 0.0
C359 C 0.21075 0.9625 0.56541 0.0
C360 C 0.21228 0.00145 0.57156 0.0
C361 C 0.17999 0.01728 0.56662 0.0
C362 C 0.17443 0.8988 0.54503 0.0
C363 C 0.24757 0.02619 0.58549 0.0
H364 H 0.28522 0.91957 0.6572 0.0
H365 H 0.32727 0.92885 0.54684 0.0
H366 H 0.21521 0.9689 0.6477 0.0
H367 H 0.19107 0.92428 0.63123 0.0
H368 H 0.22446 0.92758 0.67017 0.0
H369 H 0.29045 0.94213 0.49478 0.0
H370 H 0.24093 0.93748 0.4989 0.0
H371 H 0.26923 0.98149 0.50991 0.0
H372 H 0.11912 0.94021 0.53766 0.0
H373 H 0.18089 0.04688 0.57292 0.0
H374 H 0.1757 0.8855 0.57237 0.0
H375 H 0.19805 0.89194 0.52895 0.0
H376 H 0.14817 0.88649 0.52963 0.0
H377 H 0.25467 0.01956 0.61468 0.0
H378 H 0.24505 0.05627 0.58515 0.0
H379 H 0.2709 0.02107 0.56806 0.0
C380 C 0.76129 0.34438 0.93059 0.0
C381 C 0.74116 0.36752 0.91053 0.0
C382 C 0.79015 0.35976 0.95608 0.0
C383 C 0.79843 0.399 0.9616 0.0
C384 C 0.77403 0.42171 0.94624 0.0
C385 C 0.746 0.40576 0.92006 0.0
C386 C 0.81503 0.33445 0.97248 0.0
C387 C 0.78062 0.46344 0.95345 0.0
C388 C 0.88597 0.44213 0.01831 0.0
C389 C 0.91016 0.45054 0.98933 0.0
C390 C 0.8491 0.42536 0.01012 0.0
C391 C 0.83703 0.41613 0.97226 0.0
C392 C 0.86212 0.42363 0.94321 0.0
C393 C 0.89813 0.4413 0.95214 0.0
C394 C 0.823 0.41922 0.04176 0.0
C395 C 0.85093 0.41344 0.90244 0.0
H396 H 0.75722 0.3147 0.92337 0.0
H397 H 0.72983 0.42349 0.90498 0.0
H398 H 0.83986 0.33516 0.95543 0.0
H399 H 0.8246 0.34389 1.00161 0.0
H400 H 0.80083 0.30514 0.97244 0.0
H401 H 0.75508 0.47567 0.94754 0.0
H402 H 0.79049 0.47087 0.98295 0.0
H403 H 0.80229 0.47614 0.93493 0.0
H404 H 0.89548 0.44985 0.04708 0.0
H405 H 0.91718 0.44777 0.92992 0.0
H406 H 0.80261 0.39343 0.03671 0.0
H407 H 0.80733 0.44302 0.04401 0.0
H408 H 0.83825 0.41773 0.06901 0.0
H409 H 0.83863 0.38357 0.89891 0.0
H410 H 0.8747 0.41854 0.88388 0.0
H411 H 0.82969 0.43015 0.89285 0.0
C412 C 0.80704 0.57378 0.46648 0.0
C413 C 0.83867 0.58766 0.48918 0.0
C414 C 0.77226 0.56528 0.4819 0.0
C415 C 0.76869 0.57171 0.52089 0.0
C416 C 0.80077 0.58273 0.5444 0.0
C417 C 0.83544 0.59007 0.52831 0.0
C418 C 0.73885 0.55237 0.45586 0.0
C419 C 0.79833 0.58994 0.58606 0.0
C420 C 0.67585 0.60192 0.5329 0.0
C421 C 0.6541 0.56811 0.54033 0.0
C422 C 0.71432 0.60454 0.53085 0.0
C423 C 0.73111 0.57223 0.53528 0.0
C424 C 0.70975 0.53913 0.54688 0.0
C425 C 0.67134 0.53761 0.54975 0.0
C426 C 0.73628 0.64081 0.51979 0.0
C427 C 0.72651 0.50412 0.55199 0.0
H428 H 0.80876 0.57189 0.43628 0.0
H429 H 0.8598 0.5996 0.54636 0.0
H430 H 0.72069 0.52871 0.46757 0.0
H431 H 0.72246 0.57546 0.45278 0.0
H432 H 0.74677 0.54352 0.42754 0.0
H433 H 0.82524 0.5892 0.60127 0.0
H434 H 0.79059 0.61802 0.59123 0.0
H435 H 0.77679 0.56937 0.59791 0.0
H436 H 0.66245 0.62551 0.52571 0.0
H437 H 0.65447 0.51132 0.5553 0.0
H438 H 0.74307 0.63834 0.48985 0.0
H439 H 0.76274 0.64721 0.53665 0.0
H440 H 0.72061 0.66451 0.52346 0.0
H441 H 0.73119 0.49159 0.52406 0.0
H442 H 0.70804 0.48315 0.56715 0.0
H443 H 0.75371 0.51042 0.56752 0.0
C444 C 0.14319 0.26563 0.15309 0.0
C445 C 0.15032 0.23298 0.1343 0.0
C446 C 0.12684 0.29258 0.13412 0.0
C447 C 0.11698 0.2868 0.09532 0.0
C448 C 0.12435 0.25403 0.07607 0.0
C449 C 0.14106 0.22763 0.09572 0.0
C450 C 0.11978 0.32718 0.15581 0.0
C451 C 0.11391 0.24651 0.0349 0.0
C452 C 0.04102 0.34154 0.06578 0.0
C453 C 0.06134 0.37377 0.05214 0.0
C454 C 0.05848 0.31176 0.07729 0.0
C455 C 0.09742 0.31442 0.07575 0.0
C456 C 0.11773 0.34572 0.05937 0.0
C457 C 0.09938 0.37495 0.04749 0.0
C458 C 0.03552 0.27875 0.09382 0.0
C459 C 0.15924 0.3498 0.05725 0.0
H460 H 0.15076 0.27031 0.18272 0.0
H461 H 0.14619 0.20235 0.08102 0.0
H462 H 0.13305 0.35247 0.14225 0.0
H463 H 0.08961 0.32814 0.15562 0.0
H464 H 0.13049 0.32828 0.18541 0.0
H465 H 0.123 0.22061 0.02358 0.0
H466 H 0.08343 0.24386 0.03043 0.0
H467 H 0.12637 0.27024 0.0186 0.0
H468 H 0.01161 0.34054 0.06951 0.0
H469 H 0.11533 0.4 0.0375 0.0
H470 H 0.04117 0.27973 0.12461 0.0
H471 H 0.04302 0.25225 0.08221 0.0
H472 H 0.00538 0.27846 0.08836 0.0
H473 H 0.17224 0.35569 0.08587 0.0
H474 H 0.17029 0.37286 0.03932 0.0
H475 H 0.16761 0.32354 0.04609 0.0
C476 C 0.62118 0.25764 0.83751 0.0
C477 C 0.6598 0.265 0.84173 0.0
C478 C 0.60169 0.22447 0.85042 0.0
C479 C 0.62148 0.19931 0.86893 0.0
C480 C 0.66063 0.20483 0.86895 0.0
C481 C 0.67929 0.23759 0.85508 0.0
C482 C 0.55997 0.21837 0.84794 0.0
C483 C 0.68299 0.17892 0.88835 0.0
C484 C 0.59019 0.1654 0.96231 0.0
C485 C 0.58259 0.12664 0.95547 0.0
C486 C 0.60058 0.18935 0.9337 0.0
C487 C 0.60305 0.17434 0.89684 0.0
C488 C 0.59287 0.13547 0.88901 0.0
C489 C 0.58305 0.11191 0.91859 0.0
C490 C 0.61109 0.23062 0.94363 0.0
C491 C 0.59381 0.11843 0.84992 0.0
H492 H 0.60621 0.27887 0.8269 0.0
H493 H 0.70927 0.24349 0.85805 0.0
H494 H 0.54877 0.18826 0.84369 0.0
H495 H 0.54947 0.22863 0.87452 0.0
H496 H 0.5493 0.23376 0.82468 0.0
H497 H 0.71268 0.18442 0.88164 0.0
H498 H 0.68105 0.18269 0.91918 0.0
H499 H 0.67193 0.14944 0.88026 0.0
H500 H 0.58922 0.17725 0.99053 0.0
H501 H 0.57655 0.08203 0.9129 0.0
H502 H 0.59449 0.24692 0.92596 0.0
H503 H 0.64069 0.23972 0.93817 0.0
H504 H 0.60674 0.23772 0.97351 0.0
H505 H 0.58778 0.13802 0.82829 0.0
H506 H 0.57357 0.09233 0.84589 0.0
H507 H 0.62177 0.11125 0.84547 0.0
C508 C 0.97721 0.70861 0.48189 0.0
C509 C 0.93905 0.69619 0.48267 0.0
C510 C 0.99167 0.74645 0.48906 0.0
C511 C 0.96726 0.77239 0.49634 0.0
C512 C 0.92917 0.75942 0.50027 0.0
C513 C 0.91556 0.7215 0.49339 0.0
C514 C 0.03258 0.75908 0.48551 0.0
C515 C 0.90201 0.78604 0.50752 0.0
C516 C 0.99747 0.87712 0.51412 0.0
C517 C 0.99336 0.88956 0.47775 0.0
C518 C 0.99064 0.83873 0.52082 0.0
C519 C 0.97922 0.81261 0.49046 0.0
C520 C 0.97625 0.82514 0.45367 0.0
C521 C 0.98354 0.86322 0.44783 0.0
C522 C 0.9946 0.82627 0.56033 0.0
C523 C 0.96392 0.79844 0.42037 0.0
H524 H 0.99553 0.68901 0.4742 0.0
H525 H 0.88598 0.71221 0.49374 0.0
H526 H 0.03742 0.77081 0.4576 0.0
H527 H 0.04328 0.78133 0.5071 0.0
H528 H 0.0486 0.73561 0.4882 0.0
H529 H 0.8749 0.77132 0.51597 0.0
H530 H 0.91311 0.80743 0.52975 0.0
H531 H 0.8973 0.80076 0.48156 0.0
H532 H 0.00524 0.89729 0.53734 0.0
H533 H 0.98072 0.87235 0.41949 0.0
H534 H 0.01029 0.80244 0.56097 0.0
H535 H 0.96681 0.81656 0.57087 0.0
H536 H 0.00881 0.84914 0.57972 0.0
H537 H 0.98256 0.77716 0.41796 0.0
H538 H 0.96367 0.81281 0.39351 0.0
H539 H 0.93561 0.78354 0.42428 0.0
C540 C 0.42929 0.78545 0.55077 0.0
C541 C 0.45143 0.81596 0.56959 0.0
C542 C 0.44008 0.74994 0.54979 0.0
C543 C 0.4738 0.74485 0.56823 0.0
C544 C 0.49683 0.7759 0.58627 0.0
C545 C 0.48519 0.81105 0.58703 0.0
C546 C 0.41454 0.71757 0.53056 0.0
C547 C 0.53304 0.77172 0.60608 0.0
C548 C 0.478 0.64929 0.60587 0.0
C549 C 0.49728 0.6325 0.57832 0.0
C550 C 0.47053 0.68581 0.60295 0.0
C551 C 0.483 0.70651 0.57192 0.0
C552 C 0.5032 0.69018 0.54437 0.0
C553 C 0.50992 0.65326 0.54775 0.0
C554 C 0.44854 0.70197 0.63277 0.0
C555 C 0.5173 0.71154 0.51112 0.0
H556 H 0.40296 0.78924 0.53772 0.0
H557 H 0.50211 0.83457 0.60198 0.0
H558 H 0.42989 0.70225 0.51053 0.0
H559 H 0.40361 0.69769 0.55172 0.0
H560 H 0.39077 0.72665 0.51515 0.0
H561 H 0.54945 0.79908 0.61534 0.0
H562 H 0.52757 0.75492 0.63108 0.0
H563 H 0.5499 0.75663 0.58739 0.0
H564 H 0.4679 0.63358 0.62952 0.0
H565 H 0.52486 0.64063 0.52632 0.0
H566 H 0.42264 0.70922 0.61992 0.0
H567 H 0.46461 0.72806 0.64566 0.0
H568 H 0.44116 0.68234 0.65532 0.0
H569 H 0.49363 0.71833 0.49381 0.0
H570 H 0.53412 0.69559 0.49314 0.0
H571 H 0.53443 0.73835 0.52081 0.0
C572 C 0.87488 0.89573 0.76649 0.0
C573 C 0.89996 0.88823 0.79492 0.0
C574 C 0.88717 0.9088 0.73185 0.0
C575 C 0.92553 0.91467 0.72533 0.0
C576 C 0.95075 0.90508 0.75306 0.0
C577 C 0.9377 0.89199 0.78741 0.0
C578 C 0.85924 0.91835 0.7031 0.0
C579 C 0.99189 0.91095 0.74747 0.0
C580 C 0.96401 0.93898 0.62943 0.0
C581 C 0.97425 0.97773 0.63448 0.0
C582 C 0.94693 0.91788 0.65821 0.0
C583 C 0.93981 0.93609 0.69255 0.0
C584 C 0.94833 0.97541 0.69669 0.0
C585 C 0.96539 0.99557 0.66778 0.0
C586 C 0.93814 0.87606 0.65256 0.0
C587 C 0.94102 0.99624 0.73245 0.0
H588 H 0.84557 0.89221 0.77165 0.0
H589 H 0.95738 0.88651 0.80914 0.0
H590 H 0.86188 0.9491 0.70173 0.0
H591 H 0.86455 0.90706 0.67484 0.0
H592 H 0.83038 0.90736 0.71 0.0
H593 H 0.00734 0.89802 0.76946 0.0
H594 H 0.99778 0.89912 0.71961 0.0
H595 H 0.00249 0.94128 0.74825 0.0
H596 H 0.97102 0.92498 0.60391 0.0
H597 H 0.97291 0.02557 0.67176 0.0
H598 H 0.90954 0.86594 0.66081 0.0
H599 H 0.95721 0.86293 0.67079 0.0
H600 H 0.94106 0.86659 0.623 0.0
H601 H 0.91159 0.98897 0.73946 0.0
H602 H 0.94746 0.02697 0.73042 0.0
H603 H 0.95815 0.98798 0.75605 0.0
C604 C 0.65218 0.05903 0.31123 0.0
C605 C 0.64965 0.09677 0.31922 0.0
C606 C 0.64218 0.04213 0.27541 0.0
C607 C 0.62892 0.06328 0.24689 0.0
C608 C 0.6248 0.10086 0.25519 0.0
C609 C 0.63543 0.11717 0.29104 0.0
C610 C 0.6471 0.00206 0.2677 0.0
C611 C 0.61046 0.12439 0.22573 0.0
C612 C 0.64257 0.04575 0.14343 0.0
C613 C 0.60662 0.03088 0.13004 0.0
C614 C 0.65076 0.05386 0.18184 0.0
C615 C 0.62216 0.04751 0.20753 0.0
C616 C 0.58641 0.02993 0.19448 0.0
C617 C 0.57911 0.02152 0.15583 0.0
C618 C 0.68947 0.07178 0.19452 0.0
C619 C 0.55509 0.02275 0.22083 0.0
H620 H 0.66242 0.04271 0.3329 0.0
H621 H 0.63379 0.14642 0.2965 0.0
H622 H 0.62131 0.98581 0.25469 0.0
H623 H 0.66922 0.00085 0.24747 0.0
H624 H 0.65471 0.98849 0.29358 0.0
H625 H 0.60592 0.15205 0.23746 0.0
H626 H 0.63057 0.12888 0.20325 0.0
H627 H 0.58397 0.10978 0.21255 0.0
H628 H 0.66395 0.05286 0.12358 0.0
H629 H 0.55119 0.01028 0.14563 0.0
H630 H 0.69927 0.05796 0.21929 0.0
H631 H 0.68938 0.10149 0.20301 0.0
H632 H 0.70946 0.07051 0.17202 0.0
H633 H 0.56424 0.01037 0.24677 0.0
H634 H 0.53087 0.0039 0.20761 0.0
H635 H 0.54609 0.04962 0.22918 0.0
C636 C 0.37323 0.58958 0.28863 0.0
C637 C 0.40129 0.60374 0.26507 0.0
C638 C 0.38169 0.5727 0.3218 0.0
C639 C 0.41901 0.57 0.33121 0.0
C640 C 0.4471 0.5822 0.30618 0.0
C641 C 0.43785 0.59907 0.2734 0.0
C642 C 0.35094 0.55964 0.3474 0.0
C643 C 0.48723 0.57887 0.31469 0.0
C644 C 0.46791 0.57534 0.42509 0.0
C645 C 0.47887 0.54018 0.42434 0.0
C646 C 0.44328 0.5842 0.39714 0.0
C647 C 0.43004 0.55716 0.36812 0.0
C648 C 0.43661 0.52 0.37094 0.0
C649 C 0.46148 0.51199 0.39904 0.0
C650 C 0.43593 0.62388 0.39562 0.0
C651 C 0.42187 0.49006 0.34135 0.0
H652 H 0.34485 0.59291 0.28169 0.0
H653 H 0.45936 0.60957 0.25479 0.0
H654 H 0.35586 0.53416 0.36166 0.0
H655 H 0.34955 0.5818 0.36937 0.0
H656 H 0.32366 0.55387 0.33181 0.0
H657 H 0.5052 0.588 0.29135 0.0
H658 H 0.49761 0.59618 0.34031 0.0
H659 H 0.49 0.54955 0.32017 0.0
H660 H 0.48167 0.597 0.44483 0.0
H661 H 0.47021 0.48475 0.3988 0.0
H662 H 0.4067 0.62462 0.38667 0.0
H663 H 0.45379 0.63859 0.37472 0.0
H664 H 0.44203 0.63928 0.42321 0.0
H665 H 0.39362 0.49319 0.33092 0.0
H666 H 0.42121 0.46177 0.35227 0.0
H667 H 0.44018 0.49242 0.3172 0.0
C668 C 0.09579 0.38853 0.73848 0.0
C669 C 0.1275 0.40917 0.7244 0.0
C670 C 0.08591 0.39469 0.77559 0.0
C671 C 0.10821 0.42221 0.7992 0.0
C672 C 0.14188 0.44078 0.7861 0.0
C673 C 0.15103 0.43417 0.74883 0.0
C674 C 0.04977 0.37423 0.78828 0.0
C675 C 0.1667 0.47005 0.81036 0.0
C676 C 0.05582 0.48113 0.86082 0.0
C677 C 0.06101 0.46773 0.89669 0.0
C678 C 0.07114 0.4665 0.82936 0.0
C679 C 0.09243 0.43743 0.83339 0.0
C680 C 0.09807 0.42359 0.86943 0.0
C681 C 0.08227 0.43897 0.90081 0.0
C682 C 0.06436 0.48234 0.79162 0.0
C683 C 0.12055 0.39253 0.87471 0.0
H684 H 0.07735 0.36921 0.71983 0.0
H685 H 0.17599 0.44964 0.73836 0.0
H686 H 0.05287 0.36541 0.81745 0.0
H687 H 0.02868 0.39319 0.78788 0.0
H688 H 0.0393 0.34926 0.76975 0.0
H689 H 0.19469 0.47666 0.79901 0.0
H690 H 0.15419 0.49602 0.81179 0.0
H691 H 0.16958 0.46081 0.83939 0.0
H692 H 0.03963 0.50343 0.85705 0.0
H693 H 0.08642 0.42843 0.92835 0.0
H694 H 0.05017 0.46 0.77171 0.0
H695 H 0.09112 0.49365 0.77971 0.0
H696 H 0.04716 0.50499 0.79336 0.0
H697 H 0.1071 0.36703 0.85853 0.0
H698 H 0.12362 0.38588 0.90464 0.0
H699 H 0.14848 0.40026 0.86366 0.0
C700 C 0.78726 0.91122 0.88318 0.0
C701 C 0.82099 0.91133 0.90318 0.0
C702 C 0.75793 0.92592 0.89955 0.0
C703 C 0.76259 0.94185 0.93665 0.0
C704 C 0.79741 0.94414 0.9561 0.0
C705 C 0.82602 0.92836 0.93936 0.0
C706 C 0.72116 0.92212 0.87796 0.0
C707 C 0.80393 0.96175 0.99524 0.0
C708 C 0.6818 0.98984 0.96758 0.0
C709 C 0.6601 0.96061 0.9848 0.0
C710 C 0.71659 0.9852 0.95373 0.0
C711 C 0.72949 0.95042 0.95671 0.0
C712 C 0.70866 0.92188 0.97622 0.0
C713 C 0.67469 0.92752 0.99036 0.0
C714 C 0.73857 0.01678 0.93424 0.0
C715 C 0.72089 0.88421 0.97995 0.0
H716 H 0.78319 0.89793 0.8553 0.0
H717 H 0.85223 0.92894 0.95474 0.0
H718 H 0.70039 0.90231 0.89185 0.0
H719 H 0.71094 0.94933 0.87787 0.0
H720 H 0.72286 0.9118 0.84847 0.0
H721 H 0.83383 0.96723 1.00386 0.0
H722 H 0.79259 0.98838 0.99719 0.0
H723 H 0.78938 0.9429 0.01542 0.0
H724 H 0.67088 0.01552 0.96324 0.0
H725 H 0.6585 0.90492 1.0042 0.0
H726 H 0.73609 0.0107 0.90349 0.0
H727 H 0.76837 0.01977 0.94289 0.0
H728 H 0.72857 0.0437 0.94028 0.0
H729 H 0.7214 0.87039 0.95172 0.0
H730 H 0.70226 0.86553 0.99731 0.0
H731 H 0.74934 0.88747 0.99274 0.0
C732 C 0.74473 0.08704 0.44786 0.0
C733 C 0.74546 0.11744 0.42495 0.0
C734 C 0.77778 0.07601 0.46132 0.0
C735 C 0.81221 0.09561 0.45106 0.0
C736 C 0.81288 0.12748 0.4293 0.0
C737 C 0.77939 0.13804 0.41652 0.0
C738 C 0.77579 0.04207 0.4846 0.0
C739 C 0.84889 0.149 0.41751 0.0
C740 C 0.903 0.07494 0.49577 0.0
C741 C 0.91354 0.05004 0.46864 0.0
C742 C 0.86991 0.08997 0.49076 0.0
C743 C 0.84688 0.07961 0.45804 0.0
C744 C 0.85718 0.05402 0.431 0.0
C745 C 0.89026 0.0397 0.43659 0.0
C746 C 0.85979 0.11723 0.52014 0.0
C747 C 0.83339 0.04195 0.39581 0.0
H748 H 0.71828 0.07127 0.4543 0.0
H749 H 0.77967 0.16154 0.39869 0.0
H750 H 0.78384 0.0186 0.46757 0.0
H751 H 0.79548 0.04759 0.50928 0.0
H752 H 0.74751 0.03324 0.49451 0.0
H753 H 0.84493 0.17552 0.40461 0.0
H754 H 0.86883 0.15542 0.44192 0.0
H755 H 0.8615 0.13174 0.39676 0.0
H756 H 0.92082 0.08309 0.52059 0.0
H757 H 0.89788 0.02023 0.41556 0.0
H758 H 0.83182 0.10723 0.53014 0.0
H759 H 0.85872 0.14457 0.50773 0.0
H760 H 0.8799 0.12142 0.5446 0.0
H761 H 0.80521 0.02932 0.40326 0.0
H762 H 0.84509 0.02137 0.37783 0.0
H763 H 0.83046 0.06655 0.37915 0.0
C764 C 0.25536 0.66794 0.156 0.0
C765 C 0.29138 0.67491 0.14366 0.0
C766 C 0.22754 0.64503 0.13439 0.0
C767 C 0.2364 0.62832 0.10004 0.0
C768 C 0.27231 0.63729 0.08635 0.0
C769 C 0.29954 0.66068 0.10847 0.0
C770 C 0.18941 0.63651 0.14973 0.0
C771 C 0.28282 0.61994 0.04998 0.0
C772 C 0.17537 0.53548 0.08351 0.0
C773 C 0.14657 0.5453 0.06095 0.0
C774 C 0.20675 0.5616 0.09373 0.0
C775 C 0.20906 0.59837 0.08128 0.0
C776 C 0.18179 0.60736 0.05562 0.0
C777 C 0.15081 0.5806 0.04562 0.0
C778 C 0.23582 0.5507 0.12045 0.0
C779 C 0.18364 0.64612 0.04136 0.0
H780 H 0.24951 0.67879 0.18351 0.0
H781 H 0.32778 0.66578 0.09946 0.0
H782 H 0.16793 0.64015 0.12802 0.0
H783 H 0.18425 0.60702 0.15772 0.0
H784 H 0.18616 0.65465 0.17481 0.0
H785 H 0.30887 0.63531 0.03973 0.0
H786 H 0.28698 0.59078 0.05438 0.0
H787 H 0.26049 0.61908 0.02793 0.0
H788 H 0.17255 0.508 0.09486 0.0
H789 H 0.12883 0.58824 0.02775 0.0
H790 H 0.23373 0.56422 0.14855 0.0
H791 H 0.26397 0.56046 0.11081 0.0
H792 H 0.23255 0.52005 0.12337 0.0
H793 H 0.17627 0.66512 0.06401 0.0
H794 H 0.16421 0.64681 0.01682 0.0
H795 H 0.2121 0.65711 0.03333 0.0
C796 C 0.21932 0.46869 0.55731 0.0
C797 C 0.21882 0.48189 0.5947 0.0
C798 C 0.25245 0.46131 0.54187 0.0
C799 C 0.28583 0.4682 0.5642 0.0
C800 C 0.28497 0.48004 0.60245 0.0
C801 C 0.25147 0.48654 0.6172 0.0
C802 C 0.25186 0.44781 0.50133 0.0
C803 C 0.31981 0.48778 0.62745 0.0
C804 C 0.37878 0.43835 0.55161 0.0
C805 C 0.39951 0.47205 0.54206 0.0
C806 C 0.34012 0.43473 0.55357 0.0
C807 C 0.32238 0.4662 0.54779 0.0
C808 C 0.3428 0.49887 0.53409 0.0
C809 C 0.38119 0.50115 0.53082 0.0
C810 C 0.31903 0.39867 0.56601 0.0
C811 C 0.32523 0.53324 0.52783 0.0
H812 H 0.19403 0.46532 0.53986 0.0
H813 H 0.25112 0.49686 0.64607 0.0
H814 H 0.26068 0.47183 0.48382 0.0
H815 H 0.27125 0.42746 0.49716 0.0
H816 H 0.22364 0.43465 0.49113 0.0
H817 H 0.31426 0.49653 0.65659 0.0
H818 H 0.33335 0.46251 0.62846 0.0
H819 H 0.33971 0.51017 0.61587 0.0
H820 H 0.39305 0.4159 0.56047 0.0
H821 H 0.39738 0.52739 0.52396 0.0
H822 H 0.29114 0.39265 0.55175 0.0
H823 H 0.3153 0.40097 0.59665 0.0
H824 H 0.33412 0.37488 0.56019 0.0
H825 H 0.29824 0.5259 0.5121 0.0
H826 H 0.34328 0.55422 0.51227 0.0
H827 H 0.31997 0.54621 0.55539 0.0
C828 C 0.90154 0.71816 0.91662 0.0
C829 C 0.90695 0.75563 0.9296 0.0
C830 C 0.92014 0.69182 0.93391 0.0
C831 C 0.94467 0.70298 0.96537 0.0
C832 C 0.9497 0.74066 0.97918 0.0
C833 C 0.93056 0.76647 0.96133 0.0
C834 C 0.91378 0.65202 0.91817 0.0
C835 C 0.97539 0.75368 0.01272 0.0
C836 C 0.96937 0.62096 0.01964 0.0
C837 C 0.00222 0.61483 1.00305 0.0
C838 C 0.9515 0.65119 0.00964 0.0
C839 C 0.96649 0.67544 0.98198 0.0
C840 C 1.00082 0.67068 0.96703 0.0
C841 C 0.01837 0.64084 0.97803 0.0
C842 C 0.91545 0.65579 0.02704 0.0
C843 C 0.01779 0.69547 0.93727 0.0
H844 H 0.88253 0.70937 0.8928 0.0
H845 H 0.934 0.79514 0.97219 0.0
H846 H 0.94024 0.64425 0.90869 0.0
H847 H 0.90389 0.63281 0.94028 0.0
H848 H 0.8932 0.64764 0.89412 0.0
H849 H 0.97512 0.78344 0.02102 0.0
H850 H 0.96745 0.73643 0.03691 0.0
H851 H 0.00411 0.75008 0.00634 0.0
H852 H 0.9567 0.6012 0.03908 0.0
H853 H 0.04388 0.63669 0.96517 0.0
H854 H 0.89222 0.64666 0.00624 0.0
H855 H 0.91487 0.68552 0.03508 0.0
H856 H 0.91072 0.63903 0.05223 0.0
H857 H 1.00015 0.69039 0.91104 0.0
H858 H 0.04611 0.69027 0.93093 0.0
H859 H 0.01913 0.72527 0.94615 0.0
C860 C 0.37932 0.80609 0.18107 0.0
C861 C 0.39634 0.77429 0.18457 0.0
C862 C 0.3983 0.83841 0.16643 0.0
C863 C 0.43458 0.83824 0.15422 0.0
C864 C 0.45337 0.80796 0.16232 0.0
C865 C 0.43393 0.77618 0.17751 0.0
C866 C 0.37797 0.87085 0.15982 0.0
C867 C 0.49236 0.80699 0.15036 0.0
C868 C 0.45583 0.8695 0.05744 0.0
C869 C 0.48304 0.9006 0.06489 0.0
C870 C 0.43822 0.8505 0.08649 0.0
C871 C 0.44822 0.86296 0.1241 0.0
C872 C 0.4736 0.89623 0.13178 0.0
C873 C 0.49084 0.91487 0.10182 0.0
C874 C 0.41084 0.81549 0.07678 0.0
C875 C 0.48455 0.91082 0.17137 0.0
H876 H 0.35043 0.80484 0.18749 0.0
H877 H 0.4472 0.75167 0.18057 0.0
H878 H 0.39695 0.89774 0.16391 0.0
H879 H 0.3665 0.86874 0.13047 0.0
H880 H 0.35464 0.87096 0.17884 0.0
H881 H 0.50511 0.78498 0.16434 0.0
H882 H 0.49191 0.80121 0.11958 0.0
H883 H 0.51002 0.83431 0.15679 0.0
H884 H 0.44951 0.85893 0.02871 0.0
H885 H 0.51201 0.93902 0.10746 0.0
H886 H 0.38434 0.81701 0.09038 0.0
H887 H 0.42194 0.79088 0.0873 0.0
H888 H 0.40494 0.81085 0.04607 0.0
H889 H 0.46132 0.90466 0.19038 0.0
H890 H 0.49411 0.9414 0.17247 0.0
H891 H 0.50778 0.89722 0.18205 0.0
C892 C 0.09805 0.33181 0.57063 0.0
C893 C 0.12186 0.33415 0.60272 0.0
C894 C 0.08321 0.29712 0.55313 0.0
C895 C 0.09223 0.2641 0.56829 0.0
C896 C 0.11795 0.26652 0.59934 0.0
C897 C 0.13244 0.30149 0.61612 0.0
C898 C 0.05618 0.29588 0.51997 0.0
C899 C 0.12866 0.23201 0.61628 0.0
C900 C 0.02982 0.17264 0.57283 0.0
C901 C 0.04917 0.14941 0.55168 0.0
C902 C 0.04074 0.21134 0.57473 0.0
C903 C 0.07201 0.22684 0.55524 0.0
C904 C 0.08814 0.20391 0.52962 0.0
C905 C 0.07648 0.16514 0.52816 0.0
C906 C 0.02208 0.23478 0.6017 0.0
C907 C 0.12071 0.21952 0.5074 0.0
H908 H 0.08951 0.35696 0.56026 0.0
H909 H 0.15127 0.30325 0.64053 0.0
H910 H 0.05982 0.27347 0.49903 0.0
H911 H 0.02753 0.28988 0.52969 0.0
H912 H 0.05924 0.32291 0.50604 0.0
H913 H 0.15086 0.2388 0.63867 0.0
H914 H 0.10412 0.21585 0.62854 0.0
H915 H 0.13833 0.21378 0.59431 0.0
H916 H 0.00881 0.16024 0.59115 0.0
H917 H 0.09163 0.14702 0.51204 0.0
H918 H 0.01798 0.26145 0.58937 0.0
H919 H 0.03997 0.24156 0.62761 0.0
H920 H 0.99481 0.21998 0.60962 0.0
H921 H 0.1174 0.24729 0.49714 0.0
H922 H 0.12439 0.20058 0.48308 0.0
H923 H 0.14629 0.22303 0.52574 0.0
C924 C 0.62861 0.24547 0.48803 0.0
C925 C 0.60794 0.22291 0.45954 0.0
C926 C 0.62064 0.28123 0.49754 0.0
C927 C 0.59158 0.29483 0.47773 0.0
C928 C 0.57036 0.27191 0.44922 0.0
C929 C 0.57896 0.23629 0.44032 0.0
C930 C 0.64413 0.30496 0.52783 0.0
C931 C 0.53939 0.2855 0.42723 0.0
C932 C 0.55397 0.3809 0.51494 0.0
C933 C 0.57233 0.40867 0.49319 0.0
C934 C 0.56034 0.34372 0.51075 0.0
C935 C 0.58562 0.3342 0.48424 0.0
C936 C 0.60479 0.36226 0.46287 0.0
C937 C 0.59794 0.399 0.4676 0.0
C938 C 0.53961 0.31454 0.53422 0.0
C939 C 0.63217 0.35342 0.43445 0.0
H940 H 0.65141 0.23529 0.50246 0.0
H941 H 0.56338 0.21903 0.4179 0.0
H942 H 0.66048 0.32928 0.51527 0.0
H943 H 0.62632 0.31601 0.54866 0.0
H944 H 0.66355 0.28921 0.54269 0.0
H945 H 0.52384 0.26334 0.40789 0.0
H946 H 0.51976 0.29575 0.4466 0.0
H947 H 0.55088 0.30926 0.41045 0.0
H948 H 0.53432 0.38809 0.53492 0.0
H949 H 0.61257 0.42016 0.45078 0.0
H950 H 0.55942 0.3 0.54996 0.0
H951 H 0.52184 0.29324 0.51572 0.0
H952 H 0.52192 0.32667 0.55451 0.0
H953 H 0.65404 0.33987 0.4481 0.0
H954 H 0.64562 0.3787 0.42092 0.0
H955 H 0.61792 0.3335 0.41227 0.0
loop_
_geom_bond_atom_site_label_1
_geom_bond_atom_site_label_2
_geom_bond_distance
_geom_bond_site_symmetry_2
_ccdc_geom_bond_type
H0 C7 0.929 . S
H1 C10 0.930 . S
H2 C12 0.929 . S
H3 C4 0.969 . S
C4 H3 0.969 . S
C4 O5 1.550 . S
C4 H6 0.973 . S
O5 C4 1.550 . S
O5 C11 1.412 . S
H6 C4 0.973 . S
C7 H0 0.929 . S
C7 C8 1.400 . S
C7 C9 1.364 . S
C8 C7 1.400 . S
C8 C12 1.377 . S
C9 C7 1.364 . S
C9 C10 1.374 . S
C10 H1 0.930 . S
C10 C9 1.374 . S
C10 C11 1.383 . S
C11 O5 1.412 . S
C11 C10 1.383 . S
C11 C12 1.394 . S
C12 H2 0.929 . S
C12 C8 1.377 . S
C12 C11 1.394 . S
H13 C20 0.929 . S
H14 C23 0.930 . S
H15 C25 0.929 . S
H16 C17 0.969 . S
C17 H16 0.969 . S
C17 O18 1.550 . S
C17 H19 0.973 . S
O18 C17 1.550 . S
O18 C24 1.412 . S
H19 C17 0.973 . S
C20 H13 0.929 . S
C20 C21 1.400 . S
C20 C22 1.364 . S
C21 C20 1.400 . S
C21 C25 1.377 . S
C22 C20 1.364 . S
C22 C23 1.374 . S
C23 H14 0.930 . S
C23 C22 1.374 . S
C23 C24 1.383 . S
C24 O18 1.412 . S
C24 C23 1.383 . S
C24 C25 1.394 . S
C25 H15 0.929 . S
C25 C21 1.377 . S
C25 C24 1.394 . S
H26 C33 0.929 . S
H27 C36 0.930 . S
H28 C38 0.929 . S
H29 C30 0.969 . S
C30 H29 0.969 . S
C30 O31 1.550 . S
C30 H32 0.973 . S
O31 C30 1.550 . S
O31 C37 1.412 . S
H32 C30 0.973 . S
C33 H26 0.929 . S
C33 C34 1.400 . S
C33 C35 1.364 . S
C34 C33 1.400 . S
C34 C38 1.377 . S
C35 C33 1.364 . S
C35 C36 1.374 . S
C36 H27 0.930 . S
C36 C35 1.374 . S
C36 C37 1.383 . S
C37 O31 1.412 . S
C37 C36 1.383 . S
C37 C38 1.394 . S
C38 H28 0.929 . S
C38 C34 1.377 . S
C38 C37 1.394 . S
H39 C46 0.929 . S
H40 C49 0.930 . S
H41 C51 0.929 . S
H42 C43 0.969 . S
C43 H42 0.969 . S
C43 O44 1.550 . S
C43 H45 0.973 . S
O44 C43 1.550 . S
O44 C50 1.412 . S
H45 C43 0.973 . S
C46 H39 0.929 . S
C46 C47 1.400 . S
C46 C48 1.364 . S
C47 C46 1.400 . S
C47 C51 1.377 . S
C48 C46 1.364 . S
C48 C49 1.374 . S
C49 H40 0.930 . S
C49 C48 1.374 . S
C49 C50 1.383 . S
C50 O44 1.412 . S
C50 C49 1.383 . S
C50 C51 1.394 . S
C51 H41 0.929 . S
C51 C47 1.377 . S
C51 C50 1.394 . S
H52 C59 0.929 . S
H53 C62 0.930 . S
H54 C64 0.929 . S
H55 C56 0.969 . S
C56 H55 0.969 . S
C56 O57 1.550 . S
C56 H58 0.973 . S
O57 C56 1.550 . S
O57 C63 1.412 . S
H58 C56 0.973 . S
C59 H52 0.929 . S
C59 C60 1.400 . S
C59 C61 1.364 . S
C60 C59 1.400 . S
C60 C64 1.377 . S
C61 C59 1.364 . S
C61 C62 1.374 . S
C62 H53 0.930 . S
C62 C61 1.374 . S
C62 C63 1.383 . S
C63 O57 1.412 . S
C63 C62 1.383 . S
C63 C64 1.394 . S
C64 H54 0.929 . S
C64 C60 1.377 . S
C64 C63 1.394 . S
H65 C72 0.929 . S
H66 C75 0.930 . S
H67 C77 0.929 . S
H68 C69 0.969 . S
C69 H68 0.969 . S
C69 O70 1.550 . S
C69 H71 0.973 . S
O70 C69 1.550 . S
O70 C76 1.412 . S
H71 C69 0.973 . S
C72 H65 0.929 . S
C72 C73 1.400 . S
C72 C74 1.364 . S
C73 C72 1.400 . S
C73 C77 1.377 . S
C74 C72 1.364 . S
C74 C75 1.374 . S
C75 H66 0.930 . S
C75 C74 1.374 . S
C75 C76 1.383 . S
C76 O70 1.412 . S
C76 C75 1.383 . S
C76 C77 1.394 . S
C77 H67 0.929 . S
C77 C73 1.377 . S
C77 C76 1.394 . S
H78 C85 0.929 . S
H79 C88 0.930 . S
H80 C90 0.929 . S
H81 C82 0.969 . S
C82 H81 0.969 . S
C82 O83 1.550 . S
C82 H84 0.973 . S
O83 C82 1.550 . S
O83 C89 1.412 . S
H84 C82 0.973 . S
C85 H78 0.929 . S
C85 C86 1.400 . S
C85 C87 1.364 . S
C86 C85 1.400 . S
C86 C90 1.377 . S
C87 C85 1.364 . S
C87 C88 1.374 . S
C88 H79 0.930 . S
C88 C87 1.374 . S
C88 C89 1.383 . S
C89 O83 1.412 . S
C89 C88 1.383 . S
C89 C90 1.394 . S
C90 H80 0.929 . S
C90 C86 1.377 . S
C90 C89 1.394 . S
H91 C98 0.929 . S
H92 C101 0.930 . S
H93 C103 0.929 . S
H94 C95 0.969 . S
C95 H94 0.969 . S
C95 O96 1.550 . S
C95 H97 0.973 . S
O96 C95 1.550 . S
O96 C102 1.412 . S
H97 C95 0.973 . S
C98 H91 0.929 . S
C98 C99 1.400 . S
C98 C100 1.364 . S
C99 C98 1.400 . S
C99 C103 1.377 . S
C100 C98 1.364 . S
C100 C101 1.374 . S
C101 H92 0.930 . S
C101 C100 1.374 . S
C101 C102 1.383 . S
C102 O96 1.412 . S
C102 C101 1.383 . S
C102 C103 1.394 . S
C103 H93 0.929 . S
C103 C99 1.377 . S
C103 C102 1.394 . S
O104 Mg105 1.990 . S
O104 C118 1.253 1_445 S
Mg105 O104 1.990 . S
Mg105 O108 2.180 . S
Mg105 O109 2.117 . S
Mg105 O123 2.030 . S
O106 Mg107 2.072 1_665 S
O106 C118 1.260 . S
Mg107 O106 2.072 1_445 S
Mg107 O108 2.099 . S
Mg107 O110 2.079 . S
Mg107 O111 2.072 1_455 S
Mg107 O113 2.099 1_445 S
Mg107 O124 2.079 1_545 S
O108 Mg105 2.180 . S
O108 Mg107 2.099 . S
O108 C119 1.279 . S
O109 Mg105 2.117 . S
O109 C119 1.250 . S
O110 Mg107 2.079 . S
O110 C120 1.264 . S
O111 Mg107 2.072 1_655 S
O111 C121 1.260 . S
Mg112 O113 2.180 . S
Mg112 O114 2.030 1_565 S
Mg112 O115 1.990 1_565 S
Mg112 O116 2.117 . S
O113 Mg107 2.099 1_665 S
O113 Mg112 2.180 . S
O113 C122 1.279 . S
O114 Mg112 2.030 1_545 S
O114 C120 1.248 1_655 S
O115 Mg112 1.990 1_545 S
O115 C121 1.253 . S
O116 Mg112 2.117 . S
O116 C122 1.250 . S
C117 O123 1.248 1_565 S
C117 O124 1.264 . S
C118 O104 1.253 1_665 S
C118 O106 1.260 . S
C119 O108 1.279 . S
C119 O109 1.250 . S
C120 O110 1.264 . S
C120 O114 1.248 1_455 S
C121 O111 1.260 . S
C121 O115 1.253 . S
C122 O113 1.279 . S
C122 O116 1.250 . S
O123 Mg105 2.030 . S
O123 C117 1.248 1_545 S
O124 Mg107 2.079 1_565 S
O124 C117 1.264 . S
O125 Mg126 1.990 . S
O125 C139 1.253 . S
Mg126 O125 1.990 . S
Mg126 O129 2.180 . S
Mg126 O130 2.117 1_554 S
Mg126 O144 2.030 . S
O127 Mg128 2.072 . S
O127 C139 1.260 . S
Mg128 O127 2.072 . S
Mg128 O129 2.099 . S
Mg128 O131 2.079 1_554 S
Mg128 O132 2.072 1_554 S
Mg128 O134 2.099 1_545 S
Mg128 O145 2.079 . S
O129 Mg126 2.180 . S
O129 Mg128 2.099 . S
O129 C140 1.279 1_554 S
O130 Mg126 2.117 1_556 S
O130 C140 1.250 . S
O131 Mg128 2.079 1_556 S
O131 C141 1.264 1_545 S
O132 Mg128 2.072 1_556 S
O132 C142 1.260 1_545 S
Mg133 O134 2.180 1_556 S
Mg133 O135 2.030 . S
Mg133 O136 1.990 . S
Mg133 O137 2.117 1_556 S
O134 Mg128 2.099 1_565 S
O134 Mg133 2.180 1_554 S
O134 C143 1.279 . S
O135 Mg133 2.030 . S
O135 C141 1.248 . S
O136 Mg133 1.990 . S
O136 C142 1.253 . S
O137 Mg133 2.117 1_554 S
O137 C143 1.250 . S
C138 O144 1.248 . S
C138 O145 1.264 . S
C139 O125 1.253 . S
C139 O127 1.260 . S
C140 O129 1.279 1_556 S
C140 O130 1.250 . S
C141 O131 1.264 1_565 S
C141 O135 1.248 . S
C142 O132 1.260 1_565 S
C142 O136 1.253 . S
C143 O134 1.279 . S
C143 O137 1.250 . S
O144 Mg126 2.030 . S
O144 C138 1.248 . S
O145 Mg128 2.079 . S
O145 C138 1.264 . S
O146 Mg147 1.990 . S
O146 C160 1.253 . S
Mg147 O146 1.990 . S
Mg147 O150 2.180 . S
Mg147 O151 2.117 . S
Mg147 O165 2.030 . S
O148 Mg149 2.072 . S
O148 C160 1.260 . S
Mg149 O148 2.072 . S
Mg149 O150 2.099 . S
Mg149 O152 2.079 . S
Mg149 O153 2.072 . S
Mg149 O155 2.099 . S
Mg149 O166 2.079 . S
O150 Mg147 2.180 . S
O150 Mg149 2.099 . S
O150 C161 1.279 . S
O151 Mg147 2.117 . S
O151 C161 1.250 . S
O152 Mg149 2.079 . S
O152 C162 1.264 . S
O153 Mg149 2.072 . S
O153 C163 1.260 . S
Mg154 O155 2.180 . S
Mg154 O156 2.030 . S
Mg154 O157 1.990 . S
Mg154 O158 2.117 . S
O155 Mg149 2.099 . S
O155 Mg154 2.180 . S
O155 C164 1.279 . S
O156 Mg154 2.030 . S
O156 C162 1.248 . S
O157 Mg154 1.990 . S
O157 C163 1.253 . S
O158 Mg154 2.117 . S
O158 C164 1.250 . S
C159 O165 1.248 . S
C159 O166 1.264 . S
C160 O146 1.253 . S
C160 O148 1.260 . S
C161 O150 1.279 . S
C161 O151 1.250 . S
C162 O152 1.264 . S
C162 O156 1.248 . S
C163 O153 1.260 . S
C163 O157 1.253 . S
C164 O155 1.279 . S
C164 O158 1.250 . S
O165 Mg147 2.030 . S
O165 C159 1.248 . S
O166 Mg149 2.079 . S
O166 C159 1.264 . S
O167 Mg168 1.990 . S
O167 C181 1.253 . S
Mg168 O167 1.990 . S
Mg168 O171 2.180 . S
Mg168 O172 2.117 . S
Mg168 O186 2.030 . S
O169 Mg170 2.072 . S
O169 C181 1.260 . S
Mg170 O169 2.072 . S
Mg170 O171 2.099 . S
Mg170 O173 2.079 . S
Mg170 O174 2.072 1_455 S
Mg170 O176 2.099 1_554 S
Mg170 O187 2.079 . S
O171 Mg168 2.180 . S
O171 Mg170 2.099 . S
O171 C182 1.279 . S
O172 Mg168 2.117 . S
O172 C182 1.250 . S
O173 Mg170 2.079 . S
O173 C183 1.262 1_454 S
O174 Mg170 2.072 1_655 S
O174 C184 1.260 1_554 S
Mg175 O176 2.180 1_655 S
Mg175 O177 2.030 . S
Mg175 O178 1.990 . S
Mg175 O179 2.117 1_655 S
O176 Mg170 2.099 1_556 S
O176 Mg175 2.180 1_455 S
O176 C185 1.279 . S
O177 Mg175 2.030 . S
O177 C183 1.249 . S
O178 Mg175 1.990 . S
O178 C184 1.253 . S
O179 Mg175 2.117 1_455 S
O179 C185 1.250 . S
C180 O186 1.248 . S
C180 O187 1.264 . S
C181 O167 1.253 . S
C181 O169 1.260 . S
C182 O171 1.279 . S
C182 O172 1.250 . S
C183 O173 1.262 1_656 S
C183 O177 1.249 . S
C184 O174 1.260 1_556 S
C184 O178 1.253 . S
C185 O176 1.279 . S
C185 O179 1.250 . S
O186 Mg168 2.030 . S
O186 C180 1.248 . S
O187 Mg170 2.079 . S
O187 C180 1.264 . S
C188 C189 1.391 . S
C188 C190 1.394 . S
C188 H204 0.931 . S
C189 C188 1.391 . S
C189 C193 1.376 . S
C190 C188 1.394 . S
C190 C191 1.369 . S
C190 C194 1.531 . S
C191 C190 1.369 . S
C191 C192 1.410 . S
C191 C199 1.503 . S
C192 C191 1.410 . S
C192 C193 1.392 . S
C192 C195 1.511 . S
C193 C189 1.376 . S
C193 C192 1.392 . S
C193 H205 0.929 . S
C194 C190 1.531 . S
C194 H206 0.960 . S
C194 H207 0.962 . S
C194 H208 0.960 . S
C195 C192 1.511 . S
C195 H209 0.961 . S
C195 H210 0.961 . S
C195 H211 0.961 . S
C196 C197 1.370 . S
C196 C198 1.363 . S
C196 H212 0.931 . S
C197 C196 1.370 . S
C197 C201 1.408 . S
C198 C196 1.363 . S
C198 C199 1.370 . S
C198 C202 1.524 . S
C199 C191 1.503 . S
C199 C198 1.370 . S
C199 C200 1.403 . S
C200 C199 1.403 . S
C200 C201 1.404 . S
C200 C203 1.539 . S
C201 C197 1.408 . S
C201 C200 1.404 . S
C201 H213 0.930 . S
C202 C198 1.524 . S
C202 H214 0.956 . S
C202 H215 0.961 . S
C202 H216 0.961 . S
C203 C200 1.539 . S
C203 H217 0.958 . S
C203 H218 0.961 . S
C203 H219 0.960 . S
H204 C188 0.931 . S
H205 C193 0.929 . S
H206 C194 0.960 . S
H207 C194 0.962 . S
H208 C194 0.960 . S
H209 C195 0.961 . S
H210 C195 0.961 . S
H211 C195 0.961 . S
H212 C196 0.931 . S
H213 C201 0.930 . S
H214 C202 0.956 . S
H215 C202 0.961 . S
H216 C202 0.961 . S
H217 C203 0.958 . S
H218 C203 0.961 . S
H219 C203 0.960 . S
C220 C221 1.391 . S
C220 C222 1.394 . S
C220 H236 0.931 . S
C221 C220 1.391 . S
C221 C225 1.376 . S
C222 C220 1.394 . S
C222 C223 1.369 . S
C222 C226 1.531 1_565 S
C223 C222 1.369 . S
C223 C224 1.410 . S
C223 C231 1.503 . S
C224 C223 1.410 . S
C224 C225 1.392 . S
C224 C227 1.511 . S
C225 C221 1.376 . S
C225 C224 1.392 . S
C225 H237 0.929 . S
C226 C222 1.531 1_545 S
C226 H238 0.960 . S
C226 H239 0.962 1_545 S
C226 H240 0.960 . S
C227 C224 1.511 . S
C227 H241 0.961 . S
C227 H242 0.961 . S
C227 H243 0.961 . S
C228 C229 1.370 . S
C228 C230 1.363 . S
C228 H244 0.931 . S
C229 C228 1.370 . S
C229 C233 1.408 1_565 S
C230 C228 1.363 . S
C230 C231 1.370 . S
C230 C234 1.524 . S
C231 C223 1.503 . S
C231 C230 1.370 . S
C231 C232 1.400 . S
C232 C231 1.400 . S
C232 C233 1.404 1_565 S
C232 C235 1.541 1_565 S
C233 C229 1.408 1_545 S
C233 C232 1.404 1_545 S
C233 H245 0.930 . S
C234 C230 1.524 . S
C234 H246 0.956 . S
C234 H247 0.961 . S
C234 H248 0.961 . S
C235 C232 1.541 1_545 S
C235 H249 0.958 . S
C235 H250 0.961 . S
C235 H251 0.960 . S
H236 C220 0.931 . S
H237 C225 0.929 . S
H238 C226 0.960 . S
H239 C226 0.962 1_565 S
H240 C226 0.960 . S
H241 C227 0.961 . S
H242 C227 0.961 . S
H243 C227 0.961 . S
H244 C228 0.931 . S
H245 C233 0.930 . S
H246 C234 0.956 . S
H247 C234 0.961 . S
H248 C234 0.961 . S
H249 C235 0.958 . S
H250 C235 0.961 . S
H251 C235 0.960 . S
C252 C253 1.391 . S
C252 C254 1.394 . S
C252 H268 0.931 . S
C253 C252 1.391 . S
C253 C257 1.376 . S
C254 C252 1.394 . S
C254 C255 1.369 . S
C254 C258 1.531 . S
C255 C254 1.369 . S
C255 C256 1.410 . S
C255 C263 1.503 . S
C256 C255 1.410 . S
C256 C257 1.392 . S
C256 C259 1.511 . S
C257 C253 1.376 . S
C257 C256 1.392 . S
C257 H269 0.929 . S
C258 C254 1.531 . S
C258 H270 0.960 . S
C258 H271 0.962 . S
C258 H272 0.960 . S
C259 C256 1.511 . S
C259 H273 0.961 . S
C259 H274 0.961 . S
C259 H275 0.961 . S
C260 C261 1.370 . S
C260 C262 1.363 . S
C260 H276 0.931 . S
C261 C260 1.370 . S
C261 C265 1.408 . S
C262 C260 1.363 . S
C262 C263 1.370 . S
C262 C266 1.524 . S
C263 C255 1.503 . S
C263 C262 1.370 . S
C263 C264 1.403 . S
C264 C263 1.403 . S
C264 C265 1.404 . S
C264 C267 1.539 . S
C265 C261 1.408 . S
C265 C264 1.404 . S
C265 H277 0.930 . S
C266 C262 1.524 . S
C266 H278 0.956 . S
C266 H279 0.961 . S
C266 H280 0.961 . S
C267 C264 1.539 . S
C267 H281 0.958 . S
C267 H282 0.961 . S
C267 H283 0.960 . S
H268 C252 0.931 . S
H269 C257 0.929 . S
H270 C258 0.960 . S
H271 C258 0.962 . S
H272 C258 0.960 . S
H273 C259 0.961 . S
H274 C259 0.961 . S
H275 C259 0.961 . S
H276 C260 0.931 . S
H277 C265 0.930 . S
H278 C266 0.956 . S
H279 C266 0.961 . S
H280 C266 0.961 . S
H281 C267 0.958 . S
H282 C267 0.961 . S
H283 C267 0.960 . S
C284 C285 1.391 . S
C284 C286 1.394 . S
C284 H300 0.931 . S
C285 C284 1.391 . S
C285 C289 1.376 . S
C286 C284 1.394 . S
C286 C287 1.369 . S
C286 C290 1.531 1_655 S
C287 C286 1.369 . S
C287 C288 1.410 . S
C287 C295 1.503 . S
C288 C287 1.410 . S
C288 C289 1.392 . S
C288 C291 1.511 . S
C289 C285 1.376 . S
C289 C288 1.392 . S
C289 H301 0.929 . S
C290 C286 1.531 1_455 S
C290 H302 0.960 . S
C290 H303 0.962 . S
C290 H304 0.960 . S
C291 C288 1.511 . S
C291 H305 0.961 . S
C291 H306 0.961 . S
C291 H307 0.961 . S
C292 C293 1.370 . S
C292 C294 1.363 . S
C292 H308 0.931 . S
C293 C292 1.370 . S
C293 C297 1.408 . S
C294 C292 1.363 . S
C294 C295 1.370 . S
C294 C298 1.524 . S
C295 C287 1.503 . S
C295 C294 1.370 . S
C295 C296 1.403 . S
C296 C295 1.403 . S
C296 C297 1.404 . S
C296 C299 1.539 . S
C297 C293 1.408 . S
C297 C296 1.404 . S
C297 H309 0.930 . S
C298 C294 1.524 . S
C298 H310 0.968 . S
C298 H311 0.961 . S
C298 H312 0.961 . S
C299 C296 1.539 . S
C299 H313 0.958 . S
C299 H314 0.961 . S
C299 H315 0.960 . S
H300 C284 0.931 . S
H301 C289 0.929 . S
H302 C290 0.960 . S
H303 C290 0.962 . S
H304 C290 0.960 . S
H305 C291 0.961 . S
H306 C291 0.961 . S
H307 C291 0.961 . S
H308 C292 0.931 . S
H309 C297 0.930 . S
H310 C298 0.968 . S
H311 C298 0.961 . S
H312 C298 0.961 . S
H313 C299 0.958 . S
H314 C299 0.961 . S
H315 C299 0.960 . S
C316 C317 1.391 . S
C316 C318 1.394 . S
C316 H332 0.931 . S
C317 C316 1.391 . S
C317 C321 1.376 . S
C318 C316 1.394 . S
C318 C319 1.369 . S
C318 C322 1.531 . S
C319 C318 1.369 . S
C319 C320 1.410 . S
C319 C327 1.503 . S
C320 C319 1.410 . S
C320 C321 1.392 . S
C320 C323 1.511 . S
C321 C317 1.376 . S
C321 C320 1.392 . S
C321 H333 0.929 . S
C322 C318 1.531 . S
C322 H334 0.960 . S
C322 H335 0.962 . S
C322 H336 0.960 . S
C323 C320 1.511 . S
C323 H337 0.961 . S
C323 H338 0.961 . S
C323 H339 0.961 . S
C324 C325 1.370 . S
C324 C326 1.363 . S
C324 H340 0.931 . S
C325 C324 1.370 . S
C325 C329 1.408 . S
C326 C324 1.363 . S
C326 C327 1.370 . S
C326 C330 1.524 . S
C327 C319 1.503 . S
C327 C326 1.370 . S
C327 C328 1.403 . S
C328 C327 1.403 . S
C328 C329 1.404 . S
C328 C331 1.539 . S
C329 C325 1.408 . S
C329 C328 1.404 . S
C329 H341 0.930 . S
C330 C326 1.524 . S
C330 H342 0.956 . S
C330 H343 0.961 . S
C330 H344 0.961 . S
C331 C328 1.539 . S
C331 H345 0.958 . S
C331 H346 0.961 . S
C331 H347 0.960 . S
H332 C316 0.931 . S
H333 C321 0.929 . S
H334 C322 0.960 . S
H335 C322 0.962 . S
H336 C322 0.960 . S
H337 C323 0.961 . S
H338 C323 0.961 . S
H339 C323 0.961 . S
H340 C324 0.931 . S
H341 C329 0.930 . S
H342 C330 0.956 . S
H343 C330 0.961 . S
H344 C330 0.961 . S
H345 C331 0.958 . S
H346 C331 0.961 . S
H347 C331 0.960 . S
C348 C349 1.391 . S
C348 C350 1.394 . S
C348 H364 0.931 . S
C349 C348 1.391 . S
C349 C353 1.376 . S
C350 C348 1.394 . S
C350 C351 1.369 . S
C350 C354 1.531 . S
C351 C350 1.369 . S
C351 C352 1.410 . S
C351 C359 1.503 . S
C352 C351 1.410 . S
C352 C353 1.392 . S
C352 C355 1.511 . S
C353 C349 1.376 . S
C353 C352 1.392 . S
C353 H365 0.929 . S
C354 C350 1.531 . S
C354 H366 0.960 . S
C354 H367 0.962 . S
C354 H368 0.960 . S
C355 C352 1.511 . S
C355 H369 0.961 . S
C355 H370 0.961 . S
C355 H371 0.961 . S
C356 C357 1.370 . S
C356 C358 1.363 . S
C356 H372 0.931 . S
C357 C356 1.370 . S
C357 C361 1.408 1_565 S
C358 C356 1.363 . S
C358 C359 1.370 . S
C358 C362 1.524 . S
C359 C351 1.503 . S
C359 C358 1.370 . S
C359 C360 1.403 . S
C360 C359 1.403 . S
C360 C361 1.404 1_565 S
C360 C363 1.539 1_565 S
C361 C357 1.408 1_545 S
C361 C360 1.404 1_545 S
C361 H373 0.930 . S
C362 C358 1.524 . S
C362 H374 0.956 . S
C362 H375 0.961 . S
C362 H376 0.961 . S
C363 C360 1.539 1_545 S
C363 H377 0.958 . S
C363 H378 0.961 . S
C363 H379 0.960 . S
H364 C348 0.931 . S
H365 C353 0.929 . S
H366 C354 0.960 . S
H367 C354 0.962 . S
H368 C354 0.960 . S
H369 C355 0.961 . S
H370 C355 0.961 . S
H371 C355 0.961 . S
H372 C356 0.931 . S
H373 C361 0.930 . S
H374 C362 0.956 . S
H375 C362 0.961 . S
H376 C362 0.961 . S
H377 C363 0.958 . S
H378 C363 0.961 . S
H379 C363 0.960 . S
C380 C381 1.391 . S
C380 C382 1.394 . S
C380 H396 0.931 . S
C381 C380 1.391 . S
C381 C385 1.376 . S
C382 C380 1.394 . S
C382 C383 1.369 . S
C382 C386 1.531 . S
C383 C382 1.369 . S
C383 C384 1.410 . S
C383 C391 1.503 . S
C384 C383 1.410 . S
C384 C385 1.392 . S
C384 C387 1.511 . S
C385 C381 1.376 . S
C385 C384 1.392 . S
C385 H397 0.929 . S
C386 C382 1.531 . S
C386 H398 0.960 . S
C386 H399 0.962 1_556 S
C386 H400 0.960 . S
C387 C384 1.511 . S
C387 H401 0.961 . S
C387 H402 0.961 . S
C387 H403 0.961 . S
C388 C389 1.370 1_554 S
C388 C390 1.363 1_554 S
C388 H404 0.931 . S
C389 C388 1.370 1_556 S
C389 C393 1.408 . S
C390 C388 1.363 1_556 S
C390 C391 1.370 . S
C390 C394 1.524 1_556 S
C391 C383 1.503 . S
C391 C390 1.370 . S
C391 C392 1.403 . S
C392 C391 1.403 . S
C392 C393 1.404 . S
C392 C395 1.539 . S
C393 C389 1.408 . S
C393 C392 1.404 . S
C393 H405 0.930 . S
C394 C390 1.524 1_554 S
C394 H406 0.956 . S
C394 H407 0.961 1_554 S
C394 H408 0.961 . S
C395 C392 1.539 . S
C395 H409 0.958 . S
C395 H410 0.961 . S
C395 H411 0.960 . S
H396 C380 0.931 . S
H397 C385 0.929 . S
H398 C386 0.960 . S
H399 C386 0.962 1_554 S
H400 C386 0.960 . S
H401 C387 0.961 . S
H402 C387 0.961 . S
H403 C387 0.961 . S
H404 C388 0.931 . S
H405 C393 0.930 . S
H406 C394 0.956 . S
H407 C394 0.961 1_556 S
H408 C394 0.961 . S
H409 C395 0.958 . S
H410 C395 0.961 . S
H411 C395 0.960 . S
C412 C413 1.391 . S
C412 C414 1.394 . S
C412 H428 0.931 . S
C413 C412 1.391 . S
C413 C417 1.376 . S
C414 C412 1.394 . S
C414 C415 1.369 . S
C414 C418 1.531 . S
C415 C414 1.369 . S
C415 C416 1.410 . S
C415 C423 1.503 . S
C416 C415 1.410 . S
C416 C417 1.392 . S
C416 C419 1.511 . S
C417 C413 1.376 . S
C417 C416 1.392 . S
C417 H429 0.929 . S
C418 C414 1.531 . S
C418 H430 0.960 . S
C418 H431 0.962 . S
C418 H432 0.960 . S
C419 C416 1.511 . S
C419 H433 0.961 . S
C419 H434 0.961 . S
C419 H435 0.961 . S
C420 C421 1.370 . S
C420 C422 1.363 . S
C420 H436 0.931 . S
C421 C420 1.370 . S
C421 C425 1.408 . S
C422 C420 1.363 . S
C422 C423 1.370 . S
C422 C426 1.524 . S
C423 C415 1.503 . S
C423 C422 1.370 . S
C423 C424 1.403 . S
C424 C423 1.403 . S
C424 C425 1.404 . S
C424 C427 1.539 . S
C425 C421 1.408 . S
C425 C424 1.404 . S
C425 H437 0.930 . S
C426 C422 1.524 . S
C426 H438 0.956 . S
C426 H439 0.961 . S
C426 H440 0.961 . S
C427 C424 1.539 . S
C427 H441 0.958 . S
C427 H442 0.961 . S
C427 H443 0.960 . S
H428 C412 0.931 . S
H429 C417 0.929 . S
H430 C418 0.960 . S
H431 C418 0.962 . S
H432 C418 0.960 . S
H433 C419 0.961 . S
H434 C419 0.961 . S
H435 C419 0.961 . S
H436 C420 0.931 . S
H437 C425 0.930 . S
H438 C426 0.956 . S
H439 C426 0.961 . S
H440 C426 0.961 . S
H441 C427 0.958 . S
H442 C427 0.961 . S
H443 C427 0.960 . S
C444 C445 1.391 . S
C444 C446 1.394 . S
C444 H460 0.931 . S
C445 C444 1.391 . S
C445 C449 1.376 . S
C446 C444 1.394 . S
C446 C447 1.369 . S
C446 C450 1.531 . S
C447 C446 1.369 . S
C447 C448 1.410 . S
C447 C455 1.503 . S
C448 C447 1.410 . S
C448 C449 1.392 . S
C448 C451 1.511 . S
C449 C445 1.376 . S
C449 C448 1.392 . S
C449 H461 0.929 . S
C450 C446 1.531 . S
C450 H462 0.960 . S
C450 H463 0.962 . S
C450 H464 0.960 . S
C451 C448 1.511 . S
C451 H465 0.961 . S
C451 H466 0.961 . S
C451 H467 0.961 . S
C452 C453 1.370 . S
C452 C454 1.363 . S
C452 H468 0.931 . S
C453 C452 1.370 . S
C453 C457 1.408 . S
C454 C452 1.363 . S
C454 C455 1.370 . S
C454 C458 1.524 . S
C455 C447 1.503 . S
C455 C454 1.370 . S
C455 C456 1.403 . S
C456 C455 1.403 . S
C456 C457 1.404 . S
C456 C459 1.539 . S
C457 C453 1.408 . S
C457 C456 1.404 . S
C457 H469 0.930 . S
C458 C454 1.524 . S
C458 H470 0.956 . S
C458 H471 0.961 . S
C458 H472 0.961 . S
C459 C456 1.539 . S
C459 H473 0.958 . S
C459 H474 0.961 . S
C459 H475 0.960 . S
H460 C444 0.931 . S
H461 C449 0.929 . S
H462 C450 0.960 . S
H463 C450 0.962 . S
H464 C450 0.960 . S
H465 C451 0.961 . S
H466 C451 0.961 . S
H467 C451 0.961 . S
H468 C452 0.931 . S
H469 C457 0.930 . S
H470 C458 0.956 . S
H471 C458 0.961 . S
H472 C458 0.961 . S
H473 C459 0.958 . S
H474 C459 0.961 . S
H475 C459 0.960 . S
C476 C477 1.391 . S
C476 C478 1.394 . S
C476 H492 0.931 . S
C477 C476 1.391 . S
C477 C481 1.376 . S
C478 C476 1.394 . S
C478 C479 1.369 . S
C478 C482 1.531 . S
C479 C478 1.369 . S
C479 C480 1.410 . S
C479 C487 1.503 . S
C480 C479 1.410 . S
C480 C481 1.392 . S
C480 C483 1.511 . S
C481 C477 1.376 . S
C481 C480 1.392 . S
C481 H493 0.929 . S
C482 C478 1.531 . S
C482 H494 0.960 . S
C482 H495 0.962 . S
C482 H496 0.960 . S
C483 C480 1.511 . S
C483 H497 0.961 . S
C483 H498 0.961 . S
C483 H499 0.961 . S
C484 C485 1.370 . S
C484 C486 1.363 . S
C484 H500 0.931 . S
C485 C484 1.370 . S
C485 C489 1.408 . S
C486 C484 1.363 . S
C486 C487 1.370 . S
C486 C490 1.524 . S
C487 C479 1.503 . S
C487 C486 1.370 . S
C487 C488 1.403 . S
C488 C487 1.403 . S
C488 C489 1.404 . S
C488 C491 1.539 . S
C489 C485 1.408 . S
C489 C488 1.404 . S
C489 H501 0.930 . S
C490 C486 1.524 . S
C490 H502 0.956 . S
C490 H503 0.961 . S
C490 H504 0.961 . S
C491 C488 1.539 . S
C491 H505 0.958 . S
C491 H506 0.961 . S
C491 H507 0.960 . S
H492 C476 0.931 . S
H493 C481 0.929 . S
H494 C482 0.960 . S
H495 C482 0.962 . S
H496 C482 0.960 . S
H497 C483 0.961 . S
H498 C483 0.961 . S
H499 C483 0.961 . S
H500 C484 0.931 . S
H501 C489 0.930 . S
H502 C490 0.956 . S
H503 C490 0.961 . S
H504 C490 0.961 . S
H505 C491 0.958 . S
H506 C491 0.961 . S
H507 C491 0.960 . S
C508 C509 1.391 . S
C508 C510 1.394 . S
C508 H524 0.931 . S
C509 C508 1.391 . S
C509 C513 1.376 . S
C510 C508 1.394 . S
C510 C511 1.369 . S
C510 C514 1.531 1_655 S
C511 C510 1.369 . S
C511 C512 1.410 . S
C511 C519 1.503 . S
C512 C511 1.410 . S
C512 C513 1.392 . S
C512 C515 1.511 . S
C513 C509 1.376 . S
C513 C512 1.392 . S
C513 H525 0.929 . S
C514 C510 1.531 1_455 S
C514 H526 0.960 . S
C514 H527 0.962 . S
C514 H528 0.960 . S
C515 C512 1.511 . S
C515 H529 0.961 . S
C515 H530 0.961 . S
C515 H531 0.961 . S
C516 C517 1.370 . S
C516 C518 1.363 . S
C516 H532 0.931 . S
C517 C516 1.370 . S
C517 C521 1.408 . S
C518 C516 1.363 . S
C518 C519 1.370 . S
C518 C522 1.524 . S
C519 C511 1.503 . S
C519 C518 1.370 . S
C519 C520 1.403 . S
C520 C519 1.403 . S
C520 C521 1.404 . S
C520 C523 1.539 . S
C521 C517 1.408 . S
C521 C520 1.404 . S
C521 H533 0.930 . S
C522 C518 1.524 . S
C522 H534 0.956 . S
C522 H535 0.961 . S
C522 H536 0.961 . S
C523 C520 1.539 . S
C523 H537 0.958 . S
C523 H538 0.961 . S
C523 H539 0.960 . S
H524 C508 0.931 . S
H525 C513 0.929 . S
H526 C514 0.960 . S
H527 C514 0.962 . S
H528 C514 0.960 . S
H529 C515 0.961 . S
H530 C515 0.961 . S
H531 C515 0.961 . S
H532 C516 0.931 . S
H533 C521 0.930 . S
H534 C522 0.956 . S
H535 C522 0.961 . S
H536 C522 0.961 . S
H537 C523 0.958 . S
H538 C523 0.961 . S
H539 C523 0.960 . S
C540 C541 1.391 . S
C540 C542 1.394 . S
C540 H556 0.931 . S
C541 C540 1.391 . S
C541 C545 1.376 . S
C542 C540 1.394 . S
C542 C543 1.369 . S
C542 C546 1.531 . S
C543 C542 1.369 . S
C543 C544 1.410 . S
C543 C551 1.503 . S
C544 C543 1.410 . S
C544 C545 1.392 . S
C544 C547 1.511 . S
C545 C541 1.376 . S
C545 C544 1.392 . S
C545 H557 0.929 . S
C546 C542 1.531 . S
C546 H558 0.960 . S
C546 H559 0.962 . S
C546 H560 0.960 . S
C547 C544 1.511 . S
C547 H561 0.961 . S
C547 H562 0.961 . S
C547 H563 0.961 . S
C548 C549 1.370 . S
C548 C550 1.363 . S
C548 H564 0.931 . S
C549 C548 1.370 . S
C549 C553 1.408 . S
C550 C548 1.363 . S
C550 C551 1.370 . S
C550 C554 1.524 . S
C551 C543 1.503 . S
C551 C550 1.370 . S
C551 C552 1.403 . S
C552 C551 1.403 . S
C552 C553 1.404 . S
C552 C555 1.539 . S
C553 C549 1.408 . S
C553 C552 1.404 . S
C553 H565 0.930 . S
C554 C550 1.524 . S
C554 H566 0.956 . S
C554 H567 0.961 . S
C554 H568 0.961 . S
C555 C552 1.539 . S
C555 H569 0.958 . S
C555 H570 0.961 . S
C555 H571 0.960 . S
H556 C540 0.931 . S
H557 C545 0.929 . S
H558 C546 0.960 . S
H559 C546 0.962 . S
H560 C546 0.960 . S
H561 C547 0.961 . S
H562 C547 0.961 . S
H563 C547 0.961 . S
H564 C548 0.931 . S
H565 C553 0.930 . S
H566 C554 0.956 . S
H567 C554 0.961 . S
H568 C554 0.961 . S
H569 C555 0.958 . S
H570 C555 0.961 . S
H571 C555 0.960 . S
C572 C573 1.391 . S
C572 C574 1.394 . S
C572 H588 0.931 . S
C573 C572 1.391 . S
C573 C577 1.376 . S
C574 C572 1.394 . S
C574 C575 1.369 . S
C574 C578 1.531 . S
C575 C574 1.369 . S
C575 C576 1.410 . S
C575 C583 1.503 . S
C576 C575 1.410 . S
C576 C577 1.392 . S
C576 C579 1.511 1_655 S
C577 C573 1.376 . S
C577 C576 1.392 . S
C577 H589 0.929 . S
C578 C574 1.531 . S
C578 H590 0.960 . S
C578 H591 0.962 . S
C578 H592 0.960 . S
C579 C576 1.511 1_455 S
C579 H593 0.961 . S
C579 H594 0.961 . S
C579 H595 0.961 . S
C580 C581 1.370 . S
C580 C582 1.363 . S
C580 H596 0.931 . S
C581 C580 1.370 . S
C581 C585 1.408 1_565 S
C582 C580 1.363 . S
C582 C583 1.370 . S
C582 C586 1.524 . S
C583 C575 1.503 . S
C583 C582 1.370 . S
C583 C584 1.403 . S
C584 C583 1.403 . S
C584 C585 1.404 1_565 S
C584 C587 1.539 1_565 S
C585 C581 1.408 1_545 S
C585 C584 1.404 1_545 S
C585 H597 0.930 . S
C586 C582 1.524 . S
C586 H598 0.956 . S
C586 H599 0.961 . S
C586 H600 0.961 . S
C587 C584 1.539 1_545 S
C587 H601 0.958 . S
C587 H602 0.961 1_655 S
C587 H603 0.960 . S
H588 C572 0.931 . S
H589 C577 0.929 . S
H590 C578 0.960 . S
H591 C578 0.962 . S
H592 C578 0.960 . S
H593 C579 0.961 . S
H594 C579 0.961 . S
H595 C579 0.961 . S
H596 C580 0.931 . S
H597 C585 0.930 . S
H598 C586 0.956 . S
H599 C586 0.961 . S
H600 C586 0.961 . S
H601 C587 0.958 . S
H602 C587 0.961 1_455 S
H603 C587 0.960 . S
C604 C605 1.391 . S
C604 C606 1.394 . S
C604 H620 0.931 . S
C605 C604 1.391 . S
C605 C609 1.376 . S
C606 C604 1.394 . S
C606 C607 1.369 . S
C606 C610 1.531 . S
C607 C606 1.369 . S
C607 C608 1.410 . S
C607 C615 1.503 . S
C608 C607 1.410 . S
C608 C609 1.392 . S
C608 C611 1.511 . S
C609 C605 1.376 . S
C609 C608 1.392 . S
C609 H621 0.929 . S
C610 C606 1.531 . S
C610 H622 0.960 . S
C610 H623 0.962 . S
C610 H624 0.960 . S
C611 C608 1.511 . S
C611 H625 0.961 . S
C611 H626 0.961 . S
C611 H627 0.961 . S
C612 C613 1.370 . S
C612 C614 1.363 . S
C612 H628 0.931 . S
C613 C612 1.370 . S
C613 C617 1.408 . S
C614 C612 1.363 . S
C614 C615 1.370 . S
C614 C618 1.524 . S
C615 C607 1.503 . S
C615 C614 1.370 . S
C615 C616 1.403 . S
C616 C615 1.403 . S
C616 C617 1.404 . S
C616 C619 1.539 . S
C617 C613 1.408 . S
C617 C616 1.404 . S
C617 H629 0.930 . S
C618 C614 1.524 . S
C618 H630 0.956 . S
C618 H631 0.961 . S
C618 H632 0.961 . S
C619 C616 1.539 . S
C619 H633 0.958 . S
C619 H634 0.961 . S
C619 H635 0.960 . S
H620 C604 0.931 . S
H621 C609 0.929 . S
H622 C610 0.960 . S
H623 C610 0.962 . S
H624 C610 0.960 . S
H625 C611 0.961 . S
H626 C611 0.961 . S
H627 C611 0.961 . S
H628 C612 0.931 . S
H629 C617 0.930 . S
H630 C618 0.956 . S
H631 C618 0.961 . S
H632 C618 0.961 . S
H633 C619 0.958 . S
H634 C619 0.961 . S
H635 C619 0.960 . S
C636 C637 1.391 . S
C636 C638 1.394 . S
C636 H652 0.931 . S
C637 C636 1.391 . S
C637 C641 1.376 . S
C638 C636 1.394 . S
C638 C639 1.369 . S
C638 C642 1.531 . S
C639 C638 1.369 . S
C639 C640 1.410 . S
C639 C647 1.503 . S
C640 C639 1.410 . S
C640 C641 1.392 . S
C640 C643 1.511 . S
C641 C637 1.376 . S
C641 C640 1.392 . S
C641 H653 0.929 . S
C642 C638 1.531 . S
C642 H654 0.960 . S
C642 H655 0.962 . S
C642 H656 0.960 . S
C643 C640 1.511 . S
C643 H657 0.961 . S
C643 H658 0.961 . S
C643 H659 0.961 . S
C644 C645 1.370 . S
C644 C646 1.363 . S
C644 H660 0.931 . S
C645 C644 1.370 . S
C645 C649 1.408 . S
C646 C644 1.363 . S
C646 C647 1.370 . S
C646 C650 1.524 . S
C647 C639 1.503 . S
C647 C646 1.370 . S
C647 C648 1.403 . S
C648 C647 1.403 . S
C648 C649 1.404 . S
C648 C651 1.539 . S
C649 C645 1.408 . S
C649 C648 1.404 . S
C649 H661 0.930 . S
C650 C646 1.524 . S
C650 H662 0.956 . S
C650 H663 0.961 . S
C650 H664 0.961 . S
C651 C648 1.539 . S
C651 H665 0.958 . S
C651 H666 0.961 . S
C651 H667 0.960 . S
H652 C636 0.931 . S
H653 C641 0.929 . S
H654 C642 0.960 . S
H655 C642 0.962 . S
H656 C642 0.960 . S
H657 C643 0.961 . S
H658 C643 0.961 . S
H659 C643 0.961 . S
H660 C644 0.931 . S
H661 C649 0.930 . S
H662 C650 0.956 . S
H663 C650 0.961 . S
H664 C650 0.961 . S
H665 C651 0.958 . S
H666 C651 0.961 . S
H667 C651 0.960 . S
C668 C669 1.391 . S
C668 C670 1.394 . S
C668 H684 0.931 . S
C669 C668 1.391 . S
C669 C673 1.376 . S
C670 C668 1.394 . S
C670 C671 1.369 . S
C670 C674 1.531 . S
C671 C670 1.369 . S
C671 C672 1.410 . S
C671 C679 1.503 . S
C672 C671 1.410 . S
C672 C673 1.392 . S
C672 C675 1.511 . S
C673 C669 1.376 . S
C673 C672 1.392 . S
C673 H685 0.929 . S
C674 C670 1.531 . S
C674 H686 0.960 . S
C674 H687 0.962 . S
C674 H688 0.960 . S
C675 C672 1.511 . S
C675 H689 0.961 . S
C675 H690 0.961 . S
C675 H691 0.961 . S
C676 C677 1.370 . S
C676 C678 1.363 . S
C676 H692 0.931 . S
C677 C676 1.370 . S
C677 C681 1.408 . S
C678 C676 1.363 . S
C678 C679 1.370 . S
C678 C682 1.524 . S
C679 C671 1.503 . S
C679 C678 1.370 . S
C679 C680 1.403 . S
C680 C679 1.403 . S
C680 C681 1.404 . S
C680 C683 1.539 . S
C681 C677 1.408 . S
C681 C680 1.404 . S
C681 H693 0.930 . S
C682 C678 1.524 . S
C682 H694 0.956 . S
C682 H695 0.961 . S
C682 H696 0.961 . S
C683 C680 1.539 . S
C683 H697 0.958 . S
C683 H698 0.961 . S
C683 H699 0.960 . S
H684 C668 0.931 . S
H685 C673 0.929 . S
H686 C674 0.960 . S
H687 C674 0.962 . S
H688 C674 0.960 . S
H689 C675 0.961 . S
H690 C675 0.961 . S
H691 C675 0.961 . S
H692 C676 0.931 . S
H693 C681 0.930 . S
H694 C682 0.956 . S
H695 C682 0.961 . S
H696 C682 0.961 . S
H697 C683 0.958 . S
H698 C683 0.961 . S
H699 C683 0.960 . S
C700 C701 1.391 . S
C700 C702 1.394 . S
C700 H716 0.931 . S
C701 C700 1.391 . S
C701 C705 1.376 . S
C702 C700 1.394 . S
C702 C703 1.369 . S
C702 C706 1.531 . S
C703 C702 1.369 . S
C703 C704 1.410 . S
C703 C711 1.503 . S
C704 C703 1.410 . S
C704 C705 1.392 . S
C704 C707 1.511 1_556 S
C705 C701 1.376 . S
C705 C704 1.392 . S
C705 H717 0.929 . S
C706 C702 1.531 . S
C706 H718 0.960 . S
C706 H719 0.962 . S
C706 H720 0.960 . S
C707 C704 1.511 1_554 S
C707 H721 0.961 . S
C707 H722 0.961 . S
C707 H723 0.961 . S
C708 C709 1.370 . S
C708 C710 1.363 . S
C708 H724 0.931 1_565 S
C709 C708 1.370 . S
C709 C713 1.408 . S
C710 C708 1.363 . S
C710 C711 1.370 . S
C710 C714 1.524 1_565 S
C711 C703 1.503 . S
C711 C710 1.370 . S
C711 C712 1.403 . S
C712 C711 1.403 . S
C712 C713 1.404 . S
C712 C715 1.539 . S
C713 C709 1.408 . S
C713 C712 1.404 . S
C713 H725 0.930 . S
C714 C710 1.524 1_545 S
C714 H726 0.956 . S
C714 H727 0.961 1_545 S
C714 H728 0.961 . S
C715 C712 1.539 . S
C715 H729 0.958 . S
C715 H730 0.961 . S
C715 H731 0.960 . S
H716 C700 0.931 . S
H717 C705 0.929 . S
H718 C706 0.960 . S
H719 C706 0.962 . S
H720 C706 0.960 . S
H721 C707 0.961 . S
H722 C707 0.961 . S
H723 C707 0.961 . S
H724 C708 0.931 1_545 S
H725 C713 0.930 . S
H726 C714 0.956 . S
H727 C714 0.961 1_565 S
H728 C714 0.961 . S
H729 C715 0.958 . S
H730 C715 0.961 . S
H731 C715 0.960 . S
C732 C733 1.391 . S
C732 C734 1.394 . S
C732 H748 0.931 . S
C733 C732 1.391 . S
C733 C737 1.376 . S
C734 C732 1.394 . S
C734 C735 1.369 . S
C734 C738 1.531 . S
C735 C734 1.369 . S
C735 C736 1.410 . S
C735 C743 1.503 . S
C736 C735 1.410 . S
C736 C737 1.392 . S
C736 C739 1.511 . S
C737 C733 1.376 . S
C737 C736 1.392 . S
C737 H749 0.929 . S
C738 C734 1.531 . S
C738 H750 0.960 . S
C738 H751 0.962 . S
C738 H752 0.960 . S
C739 C736 1.511 . S
C739 H753 0.961 . S
C739 H754 0.961 . S
C739 H755 0.961 . S
C740 C741 1.370 . S
C740 C742 1.363 . S
C740 H756 0.931 . S
C741 C740 1.370 . S
C741 C745 1.408 . S
C742 C740 1.363 . S
C742 C743 1.370 . S
C742 C746 1.524 . S
C743 C735 1.503 . S
C743 C742 1.370 . S
C743 C744 1.403 . S
C744 C743 1.403 . S
C744 C745 1.404 . S
C744 C747 1.539 . S
C745 C741 1.408 . S
C745 C744 1.404 . S
C745 H757 0.930 . S
C746 C742 1.524 . S
C746 H758 0.956 . S
C746 H759 0.961 . S
C746 H760 0.961 . S
C747 C744 1.539 . S
C747 H761 0.941 1_545 S
C747 H762 0.961 . S
C747 H763 0.960 . S
H748 C732 0.931 . S
H749 C737 0.929 . S
H750 C738 0.960 . S
H751 C738 0.962 . S
H752 C738 0.960 . S
H753 C739 0.961 . S
H754 C739 0.961 . S
H755 C739 0.961 . S
H756 C740 0.931 . S
H757 C745 0.930 . S
H758 C746 0.956 . S
H759 C746 0.961 . S
H760 C746 0.961 . S
H761 C747 0.941 1_565 S
H762 C747 0.961 . S
H763 C747 0.960 . S
C764 C765 1.391 . S
C764 C766 1.394 . S
C764 H780 0.931 . S
C765 C764 1.391 . S
C765 C769 1.376 . S
C766 C764 1.394 . S
C766 C767 1.369 . S
C766 C770 1.531 . S
C767 C766 1.369 . S
C767 C768 1.410 . S
C767 C775 1.503 . S
C768 C767 1.410 . S
C768 C769 1.392 . S
C768 C771 1.511 . S
C769 C765 1.376 . S
C769 C768 1.392 . S
C769 H781 0.929 . S
C770 C766 1.531 . S
C770 H782 0.960 . S
C770 H783 0.962 . S
C770 H784 0.960 . S
C771 C768 1.511 . S
C771 H785 0.961 . S
C771 H786 0.961 . S
C771 H787 0.961 . S
C772 C773 1.370 . S
C772 C774 1.363 . S
C772 H788 0.931 . S
C773 C772 1.370 . S
C773 C777 1.408 . S
C774 C772 1.363 . S
C774 C775 1.370 . S
C774 C778 1.524 . S
C775 C767 1.503 . S
C775 C774 1.370 . S
C775 C776 1.403 . S
C776 C775 1.403 . S
C776 C777 1.404 . S
C776 C779 1.539 . S
C777 C773 1.408 . S
C777 C776 1.404 . S
C777 H789 0.930 . S
C778 C774 1.524 . S
C778 H790 0.956 . S
C778 H791 0.961 . S
C778 H792 0.961 . S
C779 C776 1.539 . S
C779 H793 0.958 . S
C779 H794 0.961 . S
C779 H795 0.960 . S
H780 C764 0.931 . S
H781 C769 0.929 . S
H782 C770 0.960 . S
H783 C770 0.962 . S
H784 C770 0.960 . S
H785 C771 0.961 . S
H786 C771 0.961 . S
H787 C771 0.961 . S
H788 C772 0.931 . S
H789 C777 0.930 . S
H790 C778 0.956 . S
H791 C778 0.961 . S
H792 C778 0.961 . S
H793 C779 0.958 . S
H794 C779 0.961 . S
H795 C779 0.960 . S
C796 C797 1.391 . S
C796 C798 1.394 . S
C796 H812 0.931 . S
C797 C796 1.391 . S
C797 C801 1.376 . S
C798 C796 1.394 . S
C798 C799 1.369 . S
C798 C802 1.531 . S
C799 C798 1.369 . S
C799 C800 1.410 . S
C799 C807 1.503 . S
C800 C799 1.410 . S
C800 C801 1.392 . S
C800 C803 1.511 . S
C801 C797 1.376 . S
C801 C800 1.392 . S
C801 H813 0.929 . S
C802 C798 1.531 . S
C802 H814 0.960 . S
C802 H815 0.962 . S
C802 H816 0.960 . S
C803 C800 1.511 . S
C803 H817 0.961 . S
C803 H818 0.961 . S
C803 H819 0.961 . S
C804 C805 1.370 . S
C804 C806 1.363 . S
C804 H820 0.931 . S
C805 C804 1.370 . S
C805 C809 1.408 . S
C806 C804 1.363 . S
C806 C807 1.370 . S
C806 C810 1.524 . S
C807 C799 1.503 . S
C807 C806 1.370 . S
C807 C808 1.403 . S
C808 C807 1.403 . S
C808 C809 1.404 . S
C808 C811 1.539 . S
C809 C805 1.408 . S
C809 C808 1.404 . S
C809 H821 0.930 . S
C810 C806 1.524 . S
C810 H822 0.956 . S
C810 H823 0.961 . S
C810 H824 0.961 . S
C811 C808 1.539 . S
C811 H825 0.958 . S
C811 H826 0.961 . S
C811 H827 0.960 . S
H812 C796 0.931 . S
H813 C801 0.929 . S
H814 C802 0.960 . S
H815 C802 0.962 . S
H816 C802 0.960 . S
H817 C803 0.961 . S
H818 C803 0.961 . S
H819 C803 0.961 . S
H820 C804 0.931 . S
H821 C809 0.930 . S
H822 C810 0.956 . S
H823 C810 0.961 . S
H824 C810 0.961 . S
H825 C811 0.958 . S
H826 C811 0.961 . S
H827 C811 0.960 . S
C828 C829 1.391 . S
C828 C830 1.394 . S
C828 H844 0.931 . S
C829 C828 1.391 . S
C829 C833 1.376 . S
C830 C828 1.394 . S
C830 C831 1.369 . S
C830 C834 1.531 . S
C831 C830 1.369 . S
C831 C832 1.410 . S
C831 C839 1.503 . S
C832 C831 1.410 . S
C832 C833 1.392 . S
C832 C835 1.511 1_655 S
C833 C829 1.376 . S
C833 C832 1.392 . S
C833 H845 0.929 . S
C834 C830 1.531 . S
C834 H846 0.960 . S
C834 H847 0.962 . S
C834 H848 0.960 . S
C835 C832 1.511 1_455 S
C835 H849 0.961 . S
C835 H850 0.961 . S
C835 H851 0.961 . S
C836 C837 1.370 1_554 S
C836 C838 1.363 . S
C836 H852 0.931 . S
C837 C836 1.370 1_556 S
C837 C841 1.408 . S
C838 C836 1.363 . S
C838 C839 1.370 1_554 S
C838 C842 1.524 . S
C839 C831 1.503 . S
C839 C838 1.370 1_556 S
C839 C840 1.403 . S
C840 C839 1.403 . S
C840 C841 1.404 . S
C840 C843 1.539 . S
C841 C837 1.408 . S
C841 C840 1.404 . S
C841 H853 0.930 . S
C842 C838 1.524 . S
C842 H854 0.956 . S
C842 H855 0.961 . S
C842 H856 0.961 . S
C843 C840 1.539 . S
C843 H857 0.958 . S
C843 H858 0.961 . S
C843 H859 0.960 . S
H844 C828 0.931 . S
H845 C833 0.929 . S
H846 C834 0.960 . S
H847 C834 0.962 . S
H848 C834 0.960 . S
H849 C835 0.961 . S
H850 C835 0.961 . S
H851 C835 0.961 . S
H852 C836 0.931 . S
H853 C841 0.930 . S
H854 C842 0.956 . S
H855 C842 0.961 . S
H856 C842 0.961 . S
H857 C843 0.958 . S
H858 C843 0.961 . S
H859 C843 0.960 . S
C860 C861 1.391 . S
C860 C862 1.394 . S
C860 H876 0.931 . S
C861 C860 1.391 . S
C861 C865 1.376 . S
C862 C860 1.394 . S
C862 C863 1.369 . S
C862 C866 1.531 . S
C863 C862 1.369 . S
C863 C864 1.410 . S
C863 C871 1.503 . S
C864 C863 1.410 . S
C864 C865 1.392 . S
C864 C867 1.511 . S
C865 C861 1.376 . S
C865 C864 1.392 . S
C865 H877 0.929 . S
C866 C862 1.531 . S
C866 H878 0.960 . S
C866 H879 0.962 . S
C866 H880 0.960 . S
C867 C864 1.511 . S
C867 H881 0.961 . S
C867 H882 0.961 . S
C867 H883 0.961 . S
C868 C869 1.370 . S
C868 C870 1.363 . S
C868 H884 0.931 . S
C869 C868 1.370 . S
C869 C873 1.408 . S
C870 C868 1.363 . S
C870 C871 1.370 . S
C870 C874 1.524 . S
C871 C863 1.503 . S
C871 C870 1.370 . S
C871 C872 1.403 . S
C872 C871 1.403 . S
C872 C873 1.404 . S
C872 C875 1.539 . S
C873 C869 1.408 . S
C873 C872 1.404 . S
C873 H885 0.930 . S
C874 C870 1.524 . S
C874 H886 0.956 . S
C874 H887 0.961 . S
C874 H888 0.961 1_554 S
C875 C872 1.539 . S
C875 H889 0.958 . S
C875 H890 0.961 . S
C875 H891 0.960 . S
H876 C860 0.931 . S
H877 C865 0.929 . S
H878 C866 0.960 . S
H879 C866 0.962 . S
H880 C866 0.960 . S
H881 C867 0.961 . S
H882 C867 0.961 . S
H883 C867 0.961 . S
H884 C868 0.931 . S
H885 C873 0.930 . S
H886 C874 0.956 . S
H887 C874 0.961 . S
H888 C874 0.961 1_556 S
H889 C875 0.958 . S
H890 C875 0.961 . S
H891 C875 0.960 . S
C892 C893 1.391 . S
C892 C894 1.394 . S
C892 H908 0.931 . S
C893 C892 1.391 . S
C893 C897 1.376 . S
C894 C892 1.394 . S
C894 C895 1.369 . S
C894 C898 1.531 . S
C895 C894 1.369 . S
C895 C896 1.410 . S
C895 C903 1.503 . S
C896 C895 1.410 . S
C896 C897 1.392 . S
C896 C899 1.511 . S
C897 C893 1.376 . S
C897 C896 1.392 . S
C897 H909 0.929 . S
C898 C894 1.531 . S
C898 H910 0.960 . S
C898 H911 0.962 1_455 S
C898 H912 0.960 . S
C899 C896 1.511 . S
C899 H913 0.961 . S
C899 H914 0.961 . S
C899 H915 0.961 . S
C900 C901 1.370 . S
C900 C902 1.363 . S
C900 H916 0.931 . S
C901 C900 1.370 . S
C901 C905 1.408 . S
C902 C900 1.363 . S
C902 C903 1.370 . S
C902 C906 1.524 . S
C903 C895 1.503 . S
C903 C902 1.370 . S
C903 C904 1.403 . S
C904 C903 1.403 . S
C904 C905 1.404 . S
C904 C907 1.539 . S
C905 C901 1.408 . S
C905 C904 1.404 . S
C905 H917 0.930 . S
C906 C902 1.524 . S
C906 H918 0.956 . S
C906 H919 0.961 . S
C906 H920 0.961 . S
C907 C904 1.539 . S
C907 H921 0.958 . S
C907 H922 0.961 . S
C907 H923 0.960 . S
H908 C892 0.931 . S
H909 C897 0.929 . S
H910 C898 0.960 . S
H911 C898 0.962 1_655 S
H912 C898 0.960 . S
H913 C899 0.961 . S
H914 C899 0.961 . S
H915 C899 0.961 . S
H916 C900 0.931 . S
H917 C905 0.930 . S
H918 C906 0.956 . S
H919 C906 0.961 . S
H920 C906 0.961 . S
H921 C907 0.958 . S
H922 C907 0.961 . S
H923 C907 0.960 . S
C924 C925 1.391 . S
C924 C926 1.394 . S
C924 H940 0.931 . S
C925 C924 1.391 . S
C925 C929 1.376 . S
C926 C924 1.394 . S
C926 C927 1.369 . S
C926 C930 1.531 . S
C927 C926 1.369 . S
C927 C928 1.410 . S
C927 C935 1.503 . S
C928 C927 1.410 . S
C928 C929 1.392 . S
C928 C931 1.511 . S
C929 C925 1.376 . S
C929 C928 1.392 . S
C929 H941 0.929 . S
C930 C926 1.531 . S
C930 H942 0.960 . S
C930 H943 0.962 . S
C930 H944 0.960 . S
C931 C928 1.511 . S
C931 H945 0.961 . S
C931 H946 0.961 . S
C931 H947 0.961 . S
C932 C933 1.370 . S
C932 C934 1.363 . S
C932 H948 0.931 . S
C933 C932 1.370 . S
C933 C937 1.408 . S
C934 C932 1.363 . S
C934 C935 1.370 . S
C934 C938 1.524 . S
C935 C927 1.503 . S
C935 C934 1.370 . S
C935 C936 1.403 . S
C936 C935 1.403 . S
C936 C937 1.404 . S
C936 C939 1.539 . S
C937 C933 1.408 . S
C937 C936 1.404 . S
C937 H949 0.930 . S
C938 C934 1.524 . S
C938 H950 0.956 . S
C938 H951 0.961 . S
C938 H952 0.961 . S
C939 C936 1.539 . S
C939 H953 0.958 . S
C939 H954 0.961 . S
C939 H955 0.960 . S
H940 C924 0.931 . S
H941 C929 0.929 . S
H942 C930 0.960 . S
H943 C930 0.962 . S
H944 C930 0.960 . S
H945 C931 0.961 . S
H946 C931 0.961 . S
H947 C931 0.961 . S
H948 C932 0.931 . S
H949 C937 0.930 . S
H950 C938 0.956 . S
H951 C938 0.961 . S
H952 C938 0.961 . S
H953 C939 0.958 . S
H954 C939 0.961 . S
H955 C939 0.960 . S
C189 C9 1.962 . S
C197 C120 1.912 . S
C221 C21 1.511 . S
C229 C142 1.467 . S
C261 C161 1.027 . S
C253 C30 1.188 . S
C285 C43 1.443 . S
C293 C182 1.276 1_655 S
C325 C139 1.622 . S
C317 C4 1.642 . S
C357 C117 2.086 . S
C349 C22 2.129 . S
C389 C184 1.010 . S
C381 C34 1.068 . S
C421 C163 1.242 . S
C413 C48 1.289 . S
C445 C8 1.767 . S
C453 C181 1.709 . S
C485 C140 1.357 . S
C477 C35 1.608 . S
C509 C47 1.674 . S
C517 C122 1.495 . S
C541 C17 1.364 . S
C549 C160 1.359 . S
C581 C118 1.556 . S
C573 C60 1.636 . S
C605 C74 1.604 . S
C613 C138 1.549 . S
C637 C82 1.004 . S
C645 C164 0.886 . S
C669 C100 1.878 . S
C677 C185 1.585 . S
C701 C61 2.006 . S
C709 C141 1.942 . S
C741 C121 1.679 . S
C733 C73 1.765 . S
C773 C180 1.347 . S
C765 C87 1.377 . S
C805 C159 1.111 . S
C797 C95 1.119 . S
C829 C56 1.539 . S
C837 C183 1.557 . S
C869 C143 1.336 . S
C861 C86 1.557 . S
C901 C119 1.277 . S
C893 C99 1.434 . S
C925 C69 1.314 . S
C933 C162 1.310 . S
