# Generated by pormake.
# Topology eea, (3,6)-cn, num edge types: 1
# Building blocks:
#     Node 0, Type 0, BuildingBlock: VETTIZ_charged_linker_0, # of connection points: 3
#     Node 1, Type 0, BuildingBlock: VETTIZ_charged_linker_0, # of connection points: 3
#     Node 2, Type 0, BuildingBlock: VETTIZ_charged_linker_0, # of connection points: 3
#     Node 3, Type 0, BuildingBlock: VETTIZ_charged_linker_0, # of connection points: 3
#     Node 4, Type 0, BuildingBlock: VETTIZ_charged_linker_0, # of connection points: 3
#     Node 5, Type 0, BuildingBlock: VETTIZ_charged_linker_0, # of connection points: 3
#     Node 6, Type 0, BuildingBlock: VETTIZ_charged_linker_0, # of connection points: 3
#     Node 7, Type 0, BuildingBlock: VETTIZ_charged_linker_0, # of connection points: 3
#     Node 8, Type 0, BuildingBlock: VETTIZ_charged_linker_0, # of connection points: 3
#     Node 9, Type 0, BuildingBlock: VETTIZ_charged_linker_0, # of connection points: 3
#     Node 10, Type 0, BuildingBlock: VETTIZ_charged_linker_0, # of connection points: 3
#     Node 11, Type 0, BuildingBlock: VETTIZ_charged_linker_0, # of connection points: 3
#     Node 12, Type 0, BuildingBlock: VETTIZ_charged_linker_0, # of connection points: 3
#     Node 13, Type 0, BuildingBlock: VETTIZ_charged_linker_0, # of connection points: 3
#     Node 14, Type 0, BuildingBlock: VETTIZ_charged_linker_0, # of connection points: 3
#     Node 15, Type 0, BuildingBlock: VETTIZ_charged_linker_0, # of connection points: 3
#     Node 16, Type 0, BuildingBlock: VETTIZ_charged_linker_0, # of connection points: 3
#     Node 17, Type 0, BuildingBlock: VETTIZ_charged_linker_0, # of connection points: 3
#     Node 18, Type 1, BuildingBlock: KUMBOL_clean_sbu_0, # of connection points: 6
#     Node 19, Type 1, BuildingBlock: KUMBOL_clean_sbu_0, # of connection points: 6
#     Node 20, Type 1, BuildingBlock: KUMBOL_clean_sbu_0, # of connection points: 6
#     Node 21, Type 1, BuildingBlock: KUMBOL_clean_sbu_0, # of connection points: 6
#     Node 22, Type 1, BuildingBlock: KUMBOL_clean_sbu_0, # of connection points: 6
#     Node 23, Type 1, BuildingBlock: KUMBOL_clean_sbu_0, # of connection points: 6
#     Node 24, Type 1, BuildingBlock: KUMBOL_clean_sbu_0, # of connection points: 6
#     Node 25, Type 1, BuildingBlock: KUMBOL_clean_sbu_0, # of connection points: 6
#     Node 26, Type 1, BuildingBlock: KUMBOL_clean_sbu_0, # of connection points: 6
#     Edge 27, Type (0, 1), BuildingBlock: XUDNAN_clean_linker_2, # of connection points: 2
#     Edge 28, Type (0, 1), BuildingBlock: XUDNAN_clean_linker_2, # of connection points: 2
#     Edge 29, Type (0, 1), BuildingBlock: XUDNAN_clean_linker_2, # of connection points: 2
#     Edge 30, Type (0, 1), BuildingBlock: XUDNAN_clean_linker_2, # of connection points: 2
#     Edge 31, Type (0, 1), BuildingBlock: XUDNAN_clean_linker_2, # of connection points: 2
#     Edge 32, Type (0, 1), BuildingBlock: XUDNAN_clean_linker_2, # of connection points: 2
#     Edge 33, Type (0, 1), BuildingBlock: XUDNAN_clean_linker_2, # of connection points: 2
#     Edge 34, Type (0, 1), BuildingBlock: XUDNAN_clean_linker_2, # of connection points: 2
#     Edge 35, Type (0, 1), BuildingBlock: XUDNAN_clean_linker_2, # of connection points: 2
#     Edge 36, Type (0, 1), BuildingBlock: XUDNAN_clean_linker_2, # of connection points: 2
#     Edge 37, Type (0, 1), BuildingBlock: XUDNAN_clean_linker_2, # of connection points: 2
#     Edge 38, Type (0, 1), BuildingBlock: XUDNAN_clean_linker_2, # of connection points: 2
#     Edge 39, Type (0, 1), BuildingBlock: XUDNAN_clean_linker_2, # of connection points: 2
#     Edge 40, Type (0, 1), BuildingBlock: XUDNAN_clean_linker_2, # of connection points: 2
#     Edge 41, Type (0, 1), BuildingBlock: XUDNAN_clean_linker_2, # of connection points: 2
#     Edge 42, Type (0, 1), BuildingBlock: XUDNAN_clean_linker_2, # of connection points: 2
#     Edge 43, Type (0, 1), BuildingBlock: XUDNAN_clean_linker_2, # of connection points: 2
#     Edge 44, Type (0, 1), BuildingBlock: XUDNAN_clean_linker_2, # of connection points: 2
#     Edge 45, Type (0, 1), BuildingBlock: XUDNAN_clean_linker_2, # of connection points: 2
#     Edge 46, Type (0, 1), BuildingBlock: XUDNAN_clean_linker_2, # of connection points: 2
#     Edge 47, Type (0, 1), BuildingBlock: XUDNAN_clean_linker_2, # of connection points: 2
#     Edge 48, Type (0, 1), BuildingBlock: XUDNAN_clean_linker_2, # of connection points: 2
#     Edge 49, Type (0, 1), BuildingBlock: XUDNAN_clean_linker_2, # of connection points: 2
#     Edge 50, Type (0, 1), BuildingBlock: XUDNAN_clean_linker_2, # of connection points: 2
#     Edge 51, Type (0, 1), BuildingBlock: XUDNAN_clean_linker_2, # of connection points: 2
#     Edge 52, Type (0, 1), BuildingBlock: XUDNAN_clean_linker_2, # of connection points: 2
#     Edge 53, Type (0, 1), BuildingBlock: XUDNAN_clean_linker_2, # of connection points: 2
#     Edge 54, Type (0, 1), BuildingBlock: XUDNAN_clean_linker_2, # of connection points: 2
#     Edge 55, Type (0, 1), BuildingBlock: XUDNAN_clean_linker_2, # of connection points: 2
#     Edge 56, Type (0, 1), BuildingBlock: XUDNAN_clean_linker_2, # of connection points: 2
#     Edge 57, Type (0, 1), BuildingBlock: XUDNAN_clean_linker_2, # of connection points: 2
#     Edge 58, Type (0, 1), BuildingBlock: XUDNAN_clean_linker_2, # of connection points: 2
#     Edge 59, Type (0, 1), BuildingBlock: XUDNAN_clean_linker_2, # of connection points: 2
#     Edge 60, Type (0, 1), BuildingBlock: XUDNAN_clean_linker_2, # of connection points: 2
#     Edge 61, Type (0, 1), BuildingBlock: XUDNAN_clean_linker_2, # of connection points: 2
#     Edge 62, Type (0, 1), BuildingBlock: XUDNAN_clean_linker_2, # of connection points: 2
#     Edge 63, Type (0, 1), BuildingBlock: XUDNAN_clean_linker_2, # of connection points: 2
#     Edge 64, Type (0, 1), BuildingBlock: XUDNAN_clean_linker_2, # of connection points: 2
#     Edge 65, Type (0, 1), BuildingBlock: XUDNAN_clean_linker_2, # of connection points: 2
#     Edge 66, Type (0, 1), BuildingBlock: XUDNAN_clean_linker_2, # of connection points: 2
#     Edge 67, Type (0, 1), BuildingBlock: XUDNAN_clean_linker_2, # of connection points: 2
#     Edge 68, Type (0, 1), BuildingBlock: XUDNAN_clean_linker_2, # of connection points: 2
#     Edge 69, Type (0, 1), BuildingBlock: XUDNAN_clean_linker_2, # of connection points: 2
#     Edge 70, Type (0, 1), BuildingBlock: XUDNAN_clean_linker_2, # of connection points: 2
#     Edge 71, Type (0, 1), BuildingBlock: XUDNAN_clean_linker_2, # of connection points: 2
#     Edge 72, Type (0, 1), BuildingBlock: XUDNAN_clean_linker_2, # of connection points: 2
#     Edge 73, Type (0, 1), BuildingBlock: XUDNAN_clean_linker_2, # of connection points: 2
#     Edge 74, Type (0, 1), BuildingBlock: XUDNAN_clean_linker_2, # of connection points: 2
#     Edge 75, Type (0, 1), BuildingBlock: XUDNAN_clean_linker_2, # of connection points: 2
#     Edge 76, Type (0, 1), BuildingBlock: XUDNAN_clean_linker_2, # of connection points: 2
#     Edge 77, Type (0, 1), BuildingBlock: XUDNAN_clean_linker_2, # of connection points: 2
#     Edge 78, Type (0, 1), BuildingBlock: XUDNAN_clean_linker_2, # of connection points: 2
#     Edge 79, Type (0, 1), BuildingBlock: XUDNAN_clean_linker_2, # of connection points: 2
#     Edge 80, Type (0, 1), BuildingBlock: XUDNAN_clean_linker_2, # of connection points: 2
# Relax obj value: 0.009
# Max RMSD: 0.095
# Mean RMSD: 0.061
data_MOF--net-eea--node1-KUMBOL_clean_sbu_0--node2-VETTIZ_charged_linker_0--edge1-XUDNAN_clean_linker_2
_symmetry_space_group_name_H-M    P1
_symmetry_Int_Tables_number       1
_symmetry_cell_setting            triclinic
loop_
_symmetry_equiv_pos_as_xyz
'x, y, z'
_cell_length_a     61.989959
_cell_length_b     63.224552
_cell_length_c     88.261047
_cell_angle_alpha  90.220447
_cell_angle_beta   90.111967
_cell_angle_gamma 119.9497
loop_
_atom_site_label
_atom_site_type_symbol
_atom_site_fract_x
_atom_site_fract_y
_atom_site_fract_z
_atom_type_partial_charge
C0 C 0.21417 0.16117 0.39665 0.0
C1 C 0.21469 0.18212 0.40249 0.0
C2 C 0.22403 0.19004 0.41728 0.0
C3 C 0.23165 0.15611 0.42006 0.0
C4 C 0.22251 0.14848 0.40558 0.0
C5 C 0.22263 0.12568 0.40098 0.0
H6 H 0.24934 0.03676 0.4165 0.0
C7 C 0.23865 0.1386 0.42623 0.0
C8 C 0.23323 0.12069 0.41513 0.0
H9 H 0.21834 0.04844 0.37556 0.0
H10 H 0.21891 0.08327 0.38678 0.0
H11 H 0.2898 0.09423 0.42228 0.0
H12 H 0.21591 0.04879 0.44009 0.0
H13 H 0.23518 0.06736 0.45488 0.0
H14 H 0.24182 0.04551 0.44597 0.0
H15 H 0.28252 0.06981 0.43529 0.0
H16 H 0.29032 0.0998 0.44186 0.0
C17 C 0.24031 0.13188 0.38722 0.0
C18 C 0.19531 0.10543 0.39796 0.0
C19 C 0.27896 0.15327 0.47816 0.0
C20 C 0.28786 0.14062 0.48683 0.0
C21 C 0.28458 0.11823 0.48133 0.0
C22 C 0.27336 0.10902 0.46716 0.0
C23 C 0.26527 0.12232 0.45841 0.0
C24 C 0.26775 0.14383 0.4641 0.0
C25 C 0.25764 0.15531 0.45346 0.0
C26 C 0.24924 0.1375 0.44027 0.0
C27 C 0.25386 0.11823 0.44316 0.0
C28 C 0.27925 0.18083 0.44902 0.0
C29 C 0.23544 0.15565 0.46128 0.0
C30 C 0.24257 0.04684 0.41007 0.0
C31 C 0.23406 0.04006 0.39506 0.0
C32 C 0.22541 0.05358 0.38702 0.0
C33 C 0.22566 0.07379 0.3936 0.0
C34 C 0.23472 0.08078 0.40843 0.0
C35 C 0.24288 0.06739 0.41649 0.0
C36 C 0.25223 0.0781 0.43205 0.0
C37 C 0.24831 0.10004 0.43188 0.0
C38 C 0.23805 0.10138 0.41798 0.0
C39 C 0.28015 0.08582 0.43308 0.0
C40 C 0.23564 0.05901 0.44397 0.0
H41 H 0.23931 0.18403 0.43726 0.0
H42 H 0.20758 0.15477 0.38525 0.0
H43 H 0.18222 0.10765 0.40553 0.0
H44 H 0.19195 0.0869 0.40042 0.0
H45 H 0.18966 0.106 0.38609 0.0
H46 H 0.25596 0.15105 0.38787 0.0
H47 H 0.23028 0.1298 0.37638 0.0
H48 H 0.24949 0.12076 0.38672 0.0
H49 H 0.2808 0.1703 0.48221 0.0
H50 H 0.29135 0.10818 0.4878 0.0
H51 H 0.27172 0.09209 0.46348 0.0
H52 H 0.29672 0.18027 0.44724 0.0
H53 H 0.28288 0.1945 0.45806 0.0
H54 H 0.27592 0.18755 0.43825 0.0
H55 H 0.22522 0.13956 0.46878 0.0
H56 H 0.22128 0.15437 0.45313 0.0
H57 H 0.24189 0.1723 0.46837 0.0
H58 H 0.22445 0.206 0.42214 0.0
C59 C 0.23249 0.17715 0.42609 0.0
C60 C 0.9611 0.17447 0.39219 0.0
C61 C 0.97964 0.19827 0.39621 0.0
C62 C 0.97701 0.20854 0.40982 0.0
C63 C 0.93837 0.17125 0.4153 0.0
C64 C 0.94077 0.16142 0.40182 0.0
C65 C 0.91968 0.13589 0.39917 0.0
H66 H 0.81078 0.04018 0.42203 0.0
C67 C 0.9153 0.15259 0.4228 0.0
C68 C 0.90428 0.13189 0.41333 0.0
H69 H 0.85297 0.04594 0.38167 0.0
H70 H 0.88401 0.08669 0.38888 0.0
H71 H 0.8575 0.06225 0.44387 0.0
H72 H 0.81986 0.09557 0.42198 0.0
H73 H 0.82567 0.10563 0.44096 0.0
H74 H 0.80614 0.07358 0.43689 0.0
H75 H 0.82844 0.05816 0.45073 0.0
H76 H 0.85787 0.08369 0.4567 0.0
C77 C 0.93057 0.11852 0.39847 0.0
C78 C 0.90561 0.13598 0.38466 0.0
C79 C 0.89022 0.17018 0.47429 0.0
C80 C 0.87003 0.15629 0.48402 0.0
C81 C 0.85222 0.13231 0.47962 0.0
C82 C 0.85426 0.12246 0.46578 0.0
C83 C 0.8744 0.13663 0.45615 0.0
C84 C 0.89206 0.16002 0.46051 0.0
C85 C 0.91235 0.17228 0.44888 0.0
C86 C 0.90392 0.15242 0.43683 0.0
C87 C 0.8816 0.13161 0.44113 0.0
C88 C 0.9373 0.17785 0.45631 0.0
C89 C 0.9119 0.19508 0.44296 0.0
C90 C 0.82676 0.05004 0.41475 0.0
C91 C 0.82914 0.03957 0.40116 0.0
C92 C 0.85022 0.0535 0.39203 0.0
C93 C 0.86844 0.07719 0.39632 0.0
C94 C 0.86581 0.08721 0.40997 0.0
C95 C 0.84531 0.07361 0.41897 0.0
C96 C 0.8461 0.08687 0.43337 0.0
C97 C 0.87027 0.11085 0.43139 0.0
C98 C 0.88164 0.11096 0.41762 0.0
C99 C 0.84737 0.07204 0.44695 0.0
C100 C 0.82322 0.09057 0.43347 0.0
H101 H 0.95575 0.20392 0.42964 0.0
H102 H 0.96233 0.16613 0.38173 0.0
H103 H 0.90485 0.15316 0.38388 0.0
H104 H 0.88596 0.12126 0.38444 0.0
H105 H 0.91502 0.13459 0.37432 0.0
H106 H 0.94704 0.12502 0.40608 0.0
H107 H 0.93665 0.11741 0.38681 0.0
H108 H 0.9174 0.09992 0.40247 0.0
H109 H 0.90439 0.18856 0.47735 0.0
H110 H 0.83633 0.12129 0.48676 0.0
H111 H 0.83994 0.10422 0.46307 0.0
H112 H 0.9346 0.16265 0.46384 0.0
H113 H 0.94515 0.19475 0.46331 0.0
H114 H 0.95138 0.17965 0.448 0.0
H115 H 0.89246 0.19157 0.44217 0.0
H116 H 0.91937 0.20021 0.43138 0.0
H117 H 0.92239 0.21097 0.45066 0.0
H118 H 0.99111 0.22674 0.41327 0.0
C119 C 0.95654 0.19517 0.41938 0.0
C120 C 0.9594 0.7964 0.39872 0.0
C121 C 0.97718 0.79101 0.40459 0.0
C122 C 0.97199 0.77811 0.41837 0.0
C123 C 0.93228 0.77711 0.42035 0.0
C124 C 0.9372 0.78916 0.40663 0.0
C125 C 0.91627 0.79298 0.40152 0.0
H126 H 0.80237 0.78003 0.41322 0.0
C127 C 0.90759 0.77267 0.42571 0.0
C128 C 0.89816 0.78182 0.41455 0.0
H129 H 0.85119 0.81291 0.37504 0.0
H130 H 0.88155 0.80436 0.38624 0.0
H131 H 0.81309 0.73364 0.41785 0.0
H132 H 0.84235 0.80519 0.43723 0.0
H133 H 0.84526 0.78764 0.45157 0.0
H134 H 0.8147 0.77961 0.44452 0.0
H135 H 0.79574 0.74288 0.42974 0.0
H136 H 0.8145 0.73124 0.43767 0.0
C137 C 0.90557 0.77857 0.38653 0.0
C138 C 0.92641 0.82082 0.4003 0.0
C139 C 0.87144 0.73168 0.47687 0.0
C140 C 0.84904 0.72597 0.48435 0.0
C141 C 0.8333 0.73356 0.47774 0.0
C142 C 0.83881 0.74531 0.46374 0.0
C143 C 0.86049 0.74991 0.45607 0.0
C144 C 0.87679 0.74371 0.46273 0.0
C145 C 0.89932 0.75095 0.45283 0.0
C146 C 0.89357 0.76216 0.43919 0.0
C147 C 0.87055 0.76114 0.44118 0.0
C148 C 0.90001 0.7276 0.44843 0.0
C149 C 0.92264 0.77 0.46159 0.0
C150 C 0.81944 0.78495 0.4072 0.0
C151 C 0.82432 0.79692 0.39316 0.0
C152 C 0.84702 0.80364 0.38585 0.0
C153 C 0.86463 0.79865 0.39239 0.0
C154 C 0.85972 0.787 0.40654 0.0
C155 C 0.83745 0.78042 0.41371 0.0
C156 C 0.83599 0.76929 0.429 0.0
C157 C 0.86077 0.76971 0.42964 0.0
C158 C 0.87452 0.78003 0.41643 0.0
C159 C 0.81361 0.7429 0.42871 0.0
C160 C 0.83432 0.78608 0.44128 0.0
H161 H 0.94699 0.76169 0.43678 0.0
H162 H 0.96257 0.80587 0.38803 0.0
H163 H 0.94022 0.8309 0.40944 0.0
H164 H 0.91184 0.82584 0.40177 0.0
H165 H 0.93583 0.82797 0.38927 0.0
H166 H 0.90676 0.76157 0.38637 0.0
H167 H 0.91602 0.78962 0.37658 0.0
H168 H 0.88557 0.77221 0.38495 0.0
H169 H 0.88403 0.72624 0.48163 0.0
H170 H 0.81631 0.73007 0.48336 0.0
H171 H 0.82568 0.75007 0.45934 0.0
H172 H 0.88092 0.71231 0.44596 0.0
H173 H 0.90788 0.72177 0.45778 0.0
H174 H 0.91074 0.72982 0.43802 0.0
H175 H 0.91898 0.78368 0.46719 0.0
H176 H 0.93881 0.78056 0.45419 0.0
H177 H 0.92795 0.7611 0.47053 0.0
H178 H 0.98538 0.77372 0.42315 0.0
C179 C 0.94974 0.77126 0.42631 0.0
C180 C 0.17034 0.21434 0.62272 0.0
C181 C 0.19217 0.21629 0.61659 0.0
C182 C 0.19681 0.22096 0.60099 0.0
C183 C 0.15884 0.22298 0.59807 0.0
C184 C 0.15388 0.21744 0.61327 0.0
C185 C 0.12943 0.21508 0.61792 0.0
H186 H 0.0301 0.22835 0.60138 0.0
C187 C 0.13841 0.22602 0.59159 0.0
C188 C 0.12103 0.22117 0.60319 0.0
H189 H 0.0446 0.20116 0.64272 0.0
H190 H 0.08223 0.20498 0.6319 0.0
H191 H 0.08699 0.27039 0.59453 0.0
H192 H 0.04293 0.19578 0.57963 0.0
H193 H 0.06095 0.21244 0.56411 0.0
H194 H 0.03858 0.21969 0.57204 0.0
H195 H 0.0615 0.26045 0.58143 0.0
H196 H 0.09252 0.26943 0.57508 0.0
C197 C 0.13464 0.2343 0.63043 0.0
C198 C 0.11173 0.18832 0.62282 0.0
C199 C 0.1422 0.25335 0.53664 0.0
C200 C 0.12619 0.25824 0.5278 0.0
C201 C 0.10481 0.2564 0.53473 0.0
C202 C 0.09916 0.24944 0.54991 0.0
C203 C 0.115 0.24419 0.55849 0.0
C204 C 0.13621 0.24631 0.55189 0.0
C205 C 0.15078 0.23993 0.56287 0.0
C206 C 0.13472 0.23348 0.57703 0.0
C207 C 0.11376 0.23605 0.57437 0.0
C208 C 0.17658 0.26296 0.56527 0.0
C209 C 0.15187 0.21764 0.5565 0.0
C210 C 0.04148 0.22331 0.60809 0.0
C211 C 0.03454 0.21465 0.62297 0.0
C212 C 0.04955 0.20782 0.63124 0.0
C213 C 0.07142 0.21012 0.62494 0.0
C214 C 0.07829 0.21906 0.6101 0.0
C215 C 0.06315 0.22506 0.60185 0.0
C216 C 0.07262 0.2329 0.58597 0.0
C217 C 0.0961 0.23093 0.58611 0.0
C218 C 0.09952 0.22318 0.60036 0.0
C219 C 0.07863 0.25963 0.58399 0.0
C220 C 0.0528 0.21447 0.57476 0.0
H221 H 0.18509 0.22826 0.57997 0.0
H222 H 0.16611 0.21034 0.63462 0.0
H223 H 0.11674 0.17551 0.6173 0.0
H224 H 0.09221 0.18161 0.61932 0.0
H225 H 0.11246 0.1862 0.63526 0.0
H226 H 0.15087 0.25224 0.62733 0.0
H227 H 0.13895 0.22866 0.6414 0.0
H228 H 0.11902 0.23771 0.63216 0.0
H229 H 0.15872 0.25445 0.53172 0.0
H230 H 0.09238 0.26052 0.5284 0.0
H231 H 0.08257 0.24837 0.55438 0.0
H232 H 0.1747 0.27949 0.56642 0.0
H233 H 0.189 0.26581 0.5555 0.0
H234 H 0.18598 0.26235 0.57574 0.0
H235 H 0.13426 0.20489 0.55049 0.0
H236 H 0.15378 0.20653 0.56546 0.0
H237 H 0.16737 0.22339 0.54831 0.0
H238 H 0.21351 0.2225 0.59604 0.0
C239 C 0.18036 0.22444 0.59172 0.0
C240 C 0.77441 0.82411 0.62224 0.0
C241 C 0.77569 0.80529 0.61458 0.0
C242 C 0.76746 0.80015 0.59939 0.0
C243 C 0.75992 0.83443 0.59939 0.0
C244 C 0.76695 0.83856 0.61447 0.0
C245 C 0.76778 0.86101 0.62074 0.0
H246 H 0.77201 0.96762 0.60824 0.0
C247 C 0.7557 0.85448 0.5944 0.0
C248 C 0.76047 0.87009 0.60691 0.0
H249 H 0.78135 0.93889 0.65065 0.0
H250 H 0.77017 0.90073 0.63848 0.0
H251 H 0.79678 0.94564 0.58625 0.0
H252 H 0.72121 0.91938 0.59989 0.0
H253 H 0.71918 0.9077 0.58155 0.0
H254 H 0.73477 0.94035 0.58452 0.0
H255 H 0.7787 0.95948 0.58089 0.0
H256 H 0.77769 0.93491 0.56999 0.0
C257 C 0.79496 0.87886 0.62589 0.0
C258 C 0.7481 0.85319 0.63349 0.0
C259 C 0.73118 0.85918 0.53978 0.0
C260 C 0.72799 0.87686 0.53203 0.0
C261 C 0.73135 0.89769 0.53995 0.0
C262 C 0.73795 0.90105 0.55528 0.0
C263 C 0.74148 0.88352 0.56284 0.0
C264 C 0.73806 0.86295 0.55516 0.0
C265 C 0.74339 0.84673 0.56512 0.0
C266 C 0.74948 0.86048 0.58014 0.0
C267 C 0.74856 0.88215 0.57861 0.0
C268 C 0.76614 0.84598 0.55853 0.0
C269 C 0.71954 0.82146 0.56613 0.0
C270 C 0.7714 0.95304 0.61496 0.0
C271 C 0.7784 0.95666 0.63036 0.0
C272 C 0.77697 0.93699 0.63866 0.0
C273 C 0.77031 0.91472 0.63159 0.0
C274 C 0.76501 0.91194 0.61601 0.0
C275 C 0.76462 0.93052 0.60807 0.0
C276 C 0.75697 0.92354 0.59179 0.0
C277 C 0.75412 0.89821 0.59116 0.0
C278 C 0.75932 0.89181 0.60531 0.0
C279 C 0.77849 0.94184 0.58159 0.0
C280 C 0.73184 0.92281 0.58917 0.0
H281 H 0.75394 0.81022 0.58012 0.0
H282 H 0.78008 0.82821 0.634 0.0
H283 H 0.7323 0.83437 0.63154 0.0
H284 H 0.73934 0.86473 0.63398 0.0
H285 H 0.75631 0.85344 0.64473 0.0
H286 H 0.80849 0.87834 0.61785 0.0
H287 H 0.79872 0.87394 0.63727 0.0
H288 H 0.79972 0.89814 0.62613 0.0
H289 H 0.72894 0.84311 0.53393 0.0
H290 H 0.7287 0.91139 0.53426 0.0
H291 H 0.74029 0.91732 0.56061 0.0
H292 H 0.77961 0.86383 0.55342 0.0
H293 H 0.76034 0.8318 0.54954 0.0
H294 H 0.77696 0.84278 0.56724 0.0
H295 H 0.70293 0.82357 0.56788 0.0
H296 H 0.71985 0.81057 0.57578 0.0
H297 H 0.71656 0.81081 0.55553 0.0
H298 H 0.76816 0.78565 0.59325 0.0
C299 C 0.75949 0.8146 0.59176 0.0
C300 C 0.04663 0.82925 0.62138 0.0
C301 C 0.02839 0.80621 0.61598 0.0
C302 C 0.0318 0.79819 0.60171 0.0
C303 C 0.07083 0.83613 0.59842 0.0
C304 C 0.06758 0.84376 0.6125 0.0
C305 C 0.08882 0.86846 0.6168 0.0
H306 H 0.20297 0.96413 0.60219 0.0
C307 C 0.09463 0.85571 0.59215 0.0
C308 C 0.10525 0.87463 0.6029 0.0
H309 H 0.15702 0.95062 0.64182 0.0
H310 H 0.12421 0.91438 0.6303 0.0
H311 H 0.18951 0.90814 0.59641 0.0
H312 H 0.15681 0.94878 0.57781 0.0
H313 H 0.15823 0.93042 0.56331 0.0
H314 H 0.18672 0.95398 0.57183 0.0
H315 H 0.20607 0.93365 0.58395 0.0
H316 H 0.186 0.90339 0.57665 0.0
C317 C 0.10149 0.86537 0.63115 0.0
C318 C 0.07842 0.88609 0.61878 0.0
C319 C 0.12344 0.84485 0.54031 0.0
C320 C 0.14463 0.85944 0.5315 0.0
C321 C 0.1623 0.88278 0.537 0.0
C322 C 0.15925 0.89111 0.55119 0.0
C323 C 0.13828 0.87599 0.56002 0.0
C324 C 0.12063 0.85343 0.55441 0.0
C325 C 0.09933 0.83988 0.56518 0.0
C326 C 0.1071 0.85793 0.57823 0.0
C327 C 0.13005 0.87904 0.57524 0.0
C328 C 0.09872 0.81598 0.56984 0.0
C329 C 0.07522 0.83601 0.55736 0.0
C330 C 0.18572 0.95341 0.60827 0.0
C331 C 0.18283 0.95999 0.6231 0.0
C332 C 0.16002 0.94564 0.63058 0.0
C333 C 0.14088 0.92456 0.62385 0.0
C334 C 0.14438 0.91751 0.60939 0.0
C335 C 0.16625 0.93204 0.60166 0.0
C336 C 0.16617 0.92153 0.58625 0.0
C337 C 0.14106 0.89799 0.58632 0.0
C338 C 0.12853 0.89582 0.59997 0.0
C339 C 0.18813 0.91647 0.58563 0.0
C340 C 0.16721 0.93957 0.57407 0.0
H341 H 0.05424 0.80596 0.5821 0.0
H342 H 0.04478 0.83582 0.63238 0.0
H343 H 0.06285 0.88148 0.61071 0.0
H344 H 0.09229 0.90526 0.61623 0.0
H345 H 0.07118 0.88508 0.63041 0.0
H346 H 0.10051 0.84731 0.63114 0.0
H347 H 0.09227 0.86657 0.64163 0.0
H348 H 0.12159 0.87875 0.63185 0.0
H349 H 0.10931 0.82698 0.53635 0.0
H350 H 0.17885 0.89434 0.5305 0.0
H351 H 0.17353 0.90886 0.55485 0.0
H352 H 0.11788 0.81872 0.57054 0.0
H353 H 0.08811 0.80115 0.56147 0.0
H354 H 0.09081 0.80962 0.58122 0.0
H355 H 0.07895 0.85235 0.55065 0.0
H356 H 0.06061 0.83348 0.56548 0.0
H357 H 0.0676 0.82013 0.54949 0.0
H358 H 0.01792 0.7806 0.59723 0.0
C359 C 0.05284 0.81303 0.5929 0.0
C360 C 0.89189 0.50507 0.73122 0.0
C361 C 0.8901 0.52283 0.73983 0.0
C362 C 0.89737 0.52609 0.7552 0.0
C363 C 0.90746 0.49372 0.75321 0.0
C364 C 0.90032 0.49062 0.73814 0.0
C365 C 0.90149 0.46972 0.73084 0.0
H366 H 0.92136 0.3743 0.73707 0.0
C367 C 0.91431 0.47504 0.75703 0.0
C368 C 0.91064 0.46083 0.74398 0.0
H369 H 0.89624 0.39694 0.69782 0.0
H370 H 0.89998 0.43144 0.71173 0.0
H371 H 0.96438 0.42854 0.74691 0.0
H372 H 0.88845 0.38317 0.76109 0.0
H373 H 0.90626 0.39715 0.77741 0.0
H374 H 0.91279 0.37702 0.76629 0.0
H375 H 0.95497 0.40262 0.75896 0.0
H376 H 0.96375 0.43239 0.76658 0.0
C377 C 0.92077 0.48005 0.71786 0.0
C378 C 0.87477 0.45042 0.72576 0.0
C379 C 0.94504 0.4718 0.81011 0.0
C380 C 0.95177 0.45587 0.81701 0.0
C381 C 0.95081 0.43662 0.80837 0.0
C382 C 0.94327 0.43321 0.79316 0.0
C383 C 0.93641 0.44911 0.78644 0.0
C384 C 0.93732 0.46801 0.79489 0.0
C385 C 0.92862 0.48262 0.78593 0.0
C386 C 0.92294 0.46972 0.77065 0.0
C387 C 0.92751 0.45009 0.77104 0.0
C388 C 0.95043 0.50922 0.78498 0.0
C389 C 0.90488 0.47995 0.79356 0.0
C390 C 0.91659 0.38665 0.73149 0.0
C391 C 0.90843 0.38279 0.7163 0.0
C392 C 0.90283 0.39959 0.70942 0.0
C393 C 0.90481 0.41953 0.71758 0.0
C394 C 0.91238 0.42279 0.73284 0.0
C395 C 0.91841 0.40667 0.73949 0.0
C396 C 0.92621 0.4131 0.7558 0.0
C397 C 0.92343 0.43549 0.75789 0.0
C398 C 0.91525 0.44099 0.74441 0.0
C399 C 0.95369 0.41936 0.75729 0.0
C400 C 0.90768 0.39153 0.76577 0.0
H401 H 0.91142 0.51506 0.77364 0.0
H402 H 0.88599 0.50188 0.71946 0.0
H403 H 0.86059 0.45016 0.73358 0.0
H404 H 0.87146 0.43156 0.726 0.0
H405 H 0.87058 0.45437 0.71422 0.0
H406 H 0.93678 0.4982 0.72102 0.0
H407 H 0.91232 0.48242 0.70735 0.0
H408 H 0.92916 0.4686 0.7153 0.0
H409 H 0.94528 0.48657 0.81651 0.0
H410 H 0.95613 0.42426 0.81337 0.0
H411 H 0.94297 0.41822 0.78724 0.0
H412 H 0.96823 0.50954 0.78268 0.0
H413 H 0.95267 0.51916 0.7958 0.0
H414 H 0.94825 0.5196 0.77567 0.0
H415 H 0.89403 0.46187 0.79913 0.0
H416 H 0.89174 0.48058 0.78535 0.0
H417 H 0.90966 0.49422 0.80237 0.0
H418 H 0.89618 0.53974 0.76202 0.0
C419 C 0.9062 0.51175 0.7619 0.0
C420 C 0.6229 0.50656 0.72745 0.0
C421 C 0.641 0.52981 0.73259 0.0
C422 C 0.6369 0.53863 0.74639 0.0
C423 C 0.59818 0.50039 0.75011 0.0
C424 C 0.60191 0.49227 0.73631 0.0
C425 C 0.5817 0.46685 0.73249 0.0
H426 H 0.47778 0.36344 0.75267 0.0
C427 C 0.57512 0.48022 0.75684 0.0
C428 C 0.56555 0.46057 0.74646 0.0
H429 H 0.51815 0.37824 0.71054 0.0
H430 H 0.547 0.41922 0.71916 0.0
H431 H 0.52292 0.38575 0.77369 0.0
H432 H 0.48041 0.4161 0.75504 0.0
H433 H 0.4857 0.42464 0.77425 0.0
H434 H 0.46895 0.39275 0.76922 0.0
H435 H 0.49451 0.38055 0.78227 0.0
H436 H 0.52426 0.40642 0.78748 0.0
C437 C 0.59368 0.4505 0.73088 0.0
C438 C 0.56795 0.46801 0.7181 0.0
C439 C 0.54303 0.48868 0.80886 0.0
C440 C 0.52278 0.47186 0.8178 0.0
C441 C 0.50874 0.44749 0.81265 0.0
C442 C 0.51351 0.44027 0.79869 0.0
C443 C 0.53287 0.45735 0.78963 0.0
C444 C 0.5478 0.48095 0.79486 0.0
C445 C 0.56863 0.49584 0.78385 0.0
C446 C 0.56285 0.47752 0.77099 0.0
C447 C 0.54169 0.4551 0.77451 0.0
C448 C 0.59361 0.5029 0.79179 0.0
C449 C 0.5663 0.51793 0.77868 0.0
C450 C 0.49292 0.37543 0.74531 0.0
C451 C 0.49578 0.36747 0.73094 0.0
C452 C 0.51543 0.38393 0.72162 0.0
C453 C 0.53225 0.40769 0.72671 0.0
C454 C 0.52941 0.41516 0.74126 0.0
C455 C 0.50982 0.39915 0.7502 0.0
C456 C 0.5094 0.41011 0.76526 0.0
C457 C 0.53201 0.43547 0.76392 0.0
C458 C 0.54372 0.43827 0.74991 0.0
C459 C 0.51276 0.39496 0.7779 0.0
C460 C 0.48483 0.41089 0.76616 0.0
H461 H 0.61363 0.5316 0.76563 0.0
H462 H 0.62516 0.49941 0.71677 0.0
H463 H 0.56803 0.48562 0.71749 0.0
H464 H 0.54802 0.45391 0.71794 0.0
H465 H 0.57694 0.46632 0.70764 0.0
H466 H 0.60857 0.45551 0.73952 0.0
H467 H 0.60223 0.45261 0.71954 0.0
H468 H 0.58043 0.43097 0.73279 0.0
H469 H 0.55453 0.50745 0.81251 0.0
H470 H 0.49381 0.43376 0.81943 0.0
H471 H 0.50174 0.42155 0.79549 0.0
H472 H 0.59194 0.48746 0.79869 0.0
H473 H 0.59936 0.51878 0.7995 0.0
H474 H 0.60879 0.50709 0.78374 0.0
H475 H 0.54654 0.51218 0.7761 0.0
H476 H 0.5767 0.52626 0.7682 0.0
H477 H 0.57289 0.53216 0.78768 0.0
H478 H 0.65054 0.55651 0.75061 0.0
C479 C 0.6156 0.52405 0.75517 0.0
C480 C 0.62618 0.12771 0.72903 0.0
C481 C 0.64374 0.12173 0.73453 0.0
C482 C 0.6392 0.10946 0.74849 0.0
C483 C 0.60081 0.11072 0.75158 0.0
C484 C 0.60492 0.12189 0.73759 0.0
C485 C 0.58433 0.12659 0.73303 0.0
H486 H 0.47173 0.1149 0.74748 0.0
C487 C 0.57735 0.10822 0.75779 0.0
C488 C 0.56765 0.11743 0.74682 0.0
H489 H 0.51579 0.14306 0.70705 0.0
H490 H 0.54903 0.13873 0.71848 0.0
H491 H 0.48366 0.07165 0.75438 0.0
H492 H 0.51473 0.14556 0.76976 0.0
H493 H 0.5214 0.13102 0.78445 0.0
H494 H 0.48937 0.12106 0.77957 0.0
H495 H 0.46784 0.08311 0.7659 0.0
H496 H 0.48682 0.07218 0.77426 0.0
C497 C 0.5715 0.11102 0.7187 0.0
C498 C 0.5955 0.15442 0.73086 0.0
C499 C 0.54458 0.07141 0.81035 0.0
C500 C 0.52363 0.06811 0.81866 0.0
C501 C 0.50918 0.07773 0.81275 0.0
C502 C 0.51415 0.08876 0.79856 0.0
C503 C 0.534 0.09059 0.78999 0.0
C504 C 0.54948 0.08287 0.79604 0.0
C505 C 0.57063 0.08804 0.78535 0.0
C506 C 0.56471 0.09945 0.77188 0.0
C507 C 0.54288 0.10036 0.77469 0.0
C508 C 0.56892 0.06353 0.78104 0.0
C509 C 0.59532 0.10637 0.79323 0.0
C510 C 0.48862 0.12016 0.74117 0.0
C511 C 0.49123 0.12906 0.72636 0.0
C512 C 0.51351 0.13612 0.71849 0.0
C513 C 0.53264 0.13342 0.72512 0.0
C514 C 0.52946 0.12368 0.73982 0.0
C515 C 0.50795 0.11782 0.74769 0.0
C516 C 0.50809 0.1087 0.76337 0.0
C517 C 0.5326 0.10866 0.76333 0.0
C518 C 0.545 0.11735 0.74952 0.0
C519 C 0.4854 0.08258 0.76469 0.0
C520 C 0.50826 0.12736 0.77494 0.0
H521 H 0.61562 0.09496 0.7677 0.0
H522 H 0.62897 0.1368 0.71823 0.0
H523 H 0.61006 0.16483 0.73956 0.0
H524 H 0.58163 0.16037 0.73228 0.0
H525 H 0.60427 0.16025 0.71954 0.0
H526 H 0.57149 0.09341 0.71896 0.0
H527 H 0.58129 0.12075 0.70824 0.0
H528 H 0.55166 0.10567 0.71778 0.0
H529 H 0.55631 0.06458 0.81463 0.0
H530 H 0.49353 0.07633 0.81905 0.0
H531 H 0.50192 0.09499 0.79469 0.0
H532 H 0.5492 0.04919 0.77905 0.0
H533 H 0.57649 0.05712 0.79024 0.0
H534 H 0.57871 0.06454 0.77041 0.0
H535 H 0.59341 0.12097 0.79907 0.0
H536 H 0.61083 0.11593 0.78523 0.0
H537 H 0.6007 0.0971 0.80187 0.0
H538 H 0.6525 0.10468 0.75295 0.0
C539 C 0.61791 0.10403 0.75708 0.0
C540 C 0.82895 0.53557 0.95224 0.0
C541 C 0.85255 0.54139 0.94678 0.0
C542 C 0.86086 0.55419 0.93302 0.0
C543 C 0.82204 0.55457 0.93024 0.0
C544 C 0.81423 0.54253 0.94393 0.0
C545 C 0.78928 0.53885 0.9486 0.0
H546 H 0.6939 0.56006 0.9366 0.0
C547 C 0.80215 0.55901 0.92446 0.0
C548 C 0.78302 0.54998 0.93529 0.0
H549 H 0.70516 0.52393 0.97465 0.0
H550 H 0.74198 0.5274 0.9628 0.0
H551 H 0.75252 0.60171 0.93016 0.0
H552 H 0.70326 0.52999 0.91243 0.0
H553 H 0.72514 0.5451 0.89804 0.0
H554 H 0.70492 0.55649 0.90401 0.0
H555 H 0.72459 0.59307 0.91946 0.0
H556 H 0.75358 0.6022 0.91012 0.0
C557 C 0.79294 0.55337 0.9635 0.0
C558 C 0.77088 0.51106 0.94983 0.0
C559 C 0.81032 0.59871 0.87278 0.0
C560 C 0.79393 0.6034 0.86413 0.0
C561 C 0.77028 0.59652 0.8703 0.0
C562 C 0.76348 0.58623 0.88474 0.0
C563 C 0.78016 0.58214 0.89325 0.0
C564 C 0.80292 0.58782 0.88715 0.0
C565 C 0.81745 0.58056 0.89756 0.0
C566 C 0.7996 0.56964 0.91084 0.0
C567 C 0.77799 0.57109 0.90833 0.0
C568 C 0.8418 0.60392 0.90224 0.0
C569 C 0.82153 0.56125 0.88926 0.0
C570 C 0.70447 0.55305 0.94234 0.0
C571 C 0.69704 0.54209 0.95665 0.0
C572 C 0.71072 0.53254 0.96366 0.0
C573 C 0.73213 0.5347 0.95679 0.0
C574 C 0.73983 0.54636 0.94266 0.0
C575 C 0.72568 0.55471 0.93549 0.0
C576 C 0.73573 0.565 0.92006 0.0
C577 C 0.75915 0.56293 0.9196 0.0
C578 C 0.76152 0.55216 0.93291 0.0
C579 C 0.74189 0.59192 0.91981 0.0
C580 C 0.71632 0.54849 0.90796 0.0
H581 H 0.85303 0.57027 0.91427 0.0
H582 H 0.82225 0.52615 0.96292 0.0
H583 H 0.77473 0.50082 0.94097 0.0
H584 H 0.75131 0.50618 0.9479 0.0
H585 H 0.77246 0.50399 0.96104 0.0
H586 H 0.81118 0.57065 0.96357 0.0
H587 H 0.79255 0.54261 0.97352 0.0
H588 H 0.77903 0.55922 0.96503 0.0
H589 H 0.82861 0.60358 0.86862 0.0
H590 H 0.75667 0.59879 0.86391 0.0
H591 H 0.74539 0.58179 0.88873 0.0
H592 H 0.83856 0.6196 0.90369 0.0
H593 H 0.85642 0.60901 0.89349 0.0
H594 H 0.84913 0.60215 0.91328 0.0
H595 H 0.80441 0.54808 0.88298 0.0
H596 H 0.82553 0.55 0.89702 0.0
H597 H 0.8369 0.56999 0.88093 0.0
H598 H 0.87899 0.55885 0.9286 0.0
C599 C 0.84572 0.56069 0.92469 0.0
C600 C 0.43966 0.16039 0.9539 0.0
C601 C 0.44024 0.14003 0.94793 0.0
C602 C 0.43133 0.13233 0.93302 0.0
C603 C 0.42373 0.16632 0.93009 0.0
C604 C 0.43182 0.17336 0.9448 0.0
C605 C 0.43287 0.19682 0.94914 0.0
H606 H 0.43374 0.29959 0.9285 0.0
C607 C 0.41876 0.18503 0.92344 0.0
C608 C 0.42431 0.20299 0.93454 0.0
H609 H 0.44929 0.27976 0.97233 0.0
H610 H 0.43664 0.23945 0.96324 0.0
H611 H 0.45646 0.27394 0.9078 0.0
H612 H 0.38109 0.24519 0.92358 0.0
H613 H 0.3799 0.23535 0.9048 0.0
H614 H 0.39385 0.26757 0.90884 0.0
H615 H 0.43677 0.28554 0.90151 0.0
H616 H 0.43559 0.25931 0.89264 0.0
C617 C 0.46037 0.2157 0.95306 0.0
C618 C 0.41416 0.19145 0.96222 0.0
C619 C 0.38727 0.17584 0.86922 0.0
C620 C 0.38235 0.1907 0.8596 0.0
C621 C 0.38657 0.21341 0.86525 0.0
C622 C 0.39533 0.22104 0.8801 0.0
C623 C 0.40016 0.20595 0.88949 0.0
C624 C 0.39622 0.18381 0.88395 0.0
C625 C 0.40315 0.17047 0.8953 0.0
C626 C 0.41084 0.18771 0.90879 0.0
C627 C 0.4092 0.2086 0.90533 0.0
C628 C 0.42528 0.1684 0.88886 0.0
C629 C 0.37974 0.14563 0.89874 0.0
C630 C 0.43409 0.28636 0.9361 0.0
C631 C 0.44319 0.29303 0.95104 0.0
C632 C 0.44299 0.27525 0.96069 0.0
C633 C 0.43565 0.25181 0.95537 0.0
C634 C 0.42853 0.2459 0.94016 0.0
C635 C 0.4268 0.26259 0.93091 0.0
C636 C 0.41757 0.25214 0.91525 0.0
C637 C 0.41557 0.22715 0.91651 0.0
C638 C 0.42239 0.22392 0.93112 0.0
C639 C 0.43747 0.26857 0.90358 0.0
C640 C 0.39183 0.25003 0.91283 0.0
H641 H 0.41677 0.13873 0.9128 0.0
H642 H 0.44578 0.16661 0.96538 0.0
H643 H 0.39829 0.17239 0.96159 0.0
H644 H 0.40536 0.20296 0.96172 0.0
H645 H 0.42323 0.19384 0.97346 0.0
H646 H 0.47338 0.21321 0.94559 0.0
H647 H 0.46489 0.21366 0.96496 0.0
H648 H 0.46516 0.23479 0.95126 0.0
H649 H 0.38407 0.15818 0.86546 0.0
H650 H 0.38348 0.22555 0.85812 0.0
H651 H 0.39828 0.23854 0.88365 0.0
H652 H 0.43703 0.184 0.88129 0.0
H653 H 0.41865 0.15135 0.88214 0.0
H654 H 0.43821 0.16919 0.89777 0.0
H655 H 0.36321 0.14793 0.90024 0.0
H656 H 0.38143 0.13737 0.90935 0.0
H657 H 0.37564 0.13246 0.88931 0.0
H658 H 0.43159 0.11678 0.92804 0.0
C659 C 0.42299 0.14528 0.92411 0.0
C660 C 0.71626 0.1674 0.95974 0.0
C661 C 0.69744 0.14399 0.95519 0.0
C662 C 0.69939 0.13492 0.94095 0.0
C663 C 0.73792 0.17247 0.9359 0.0
C664 C 0.73631 0.1812 0.95 0.0
C665 C 0.75816 0.20619 0.9532 0.0
H666 H 0.86737 0.3021 0.9299 0.0
C667 C 0.76069 0.19154 0.9284 0.0
C668 C 0.77266 0.21135 0.93852 0.0
H669 H 0.83253 0.29189 0.97372 0.0
H670 H 0.79759 0.25376 0.96512 0.0
H671 H 0.85612 0.24695 0.9263 0.0
H672 H 0.81877 0.28446 0.91029 0.0
H673 H 0.81483 0.26337 0.89604 0.0
H674 H 0.84582 0.28739 0.901 0.0
H675 H 0.86873 0.27031 0.91212 0.0
H676 H 0.84816 0.23883 0.90718 0.0
C677 C 0.77277 0.20418 0.96687 0.0
C678 C 0.74826 0.22407 0.9557 0.0
C679 C 0.7828 0.17747 0.8751 0.0
C680 C 0.80212 0.19234 0.86509 0.0
C681 C 0.8194 0.21643 0.8695 0.0
C682 C 0.81794 0.22537 0.88379 0.0
C683 C 0.79893 0.21013 0.89382 0.0
C684 C 0.78145 0.18679 0.8893 0.0
C685 C 0.7619 0.17367 0.90123 0.0
C686 C 0.77092 0.19278 0.91378 0.0
C687 C 0.79277 0.21396 0.90941 0.0
C688 C 0.76295 0.15068 0.90606 0.0
C689 C 0.73645 0.16829 0.89465 0.0
C690 C 0.85233 0.2916 0.93771 0.0
C691 C 0.85292 0.29999 0.95257 0.0
C692 C 0.83256 0.28597 0.96219 0.0
C693 C 0.81237 0.2637 0.95722 0.0
C694 C 0.81248 0.25526 0.94246 0.0
C695 C 0.83217 0.26931 0.93296 0.0
C696 C 0.82944 0.25752 0.91773 0.0
C697 C 0.80513 0.23376 0.91973 0.0
C698 C 0.79518 0.2325 0.93421 0.0
C699 C 0.85177 0.25323 0.91555 0.0
C700 C 0.82726 0.27399 0.90554 0.0
H701 H 0.71969 0.1411 0.92056 0.0
H702 H 0.71548 0.17477 0.9707 0.0
H703 H 0.73325 0.22043 0.94739 0.0
H704 H 0.76261 0.24334 0.95399 0.0
H705 H 0.74038 0.22209 0.96725 0.0
H706 H 0.77167 0.18607 0.96705 0.0
H707 H 0.76517 0.2064 0.97777 0.0
H708 H 0.7929 0.21752 0.96642 0.0
H709 H 0.76899 0.15901 0.87192 0.0
H710 H 0.83446 0.22818 0.86201 0.0
H711 H 0.83189 0.24374 0.88653 0.0
H712 H 0.78253 0.15452 0.90641 0.0
H713 H 0.7525 0.13537 0.89796 0.0
H714 H 0.75576 0.1445 0.91759 0.0
H715 H 0.73868 0.18341 0.88721 0.0
H716 H 0.72319 0.16692 0.90345 0.0
H717 H 0.72781 0.15127 0.88775 0.0
H718 H 0.68507 0.11705 0.93711 0.0
C719 C 0.71943 0.14901 0.93129 0.0
C720 C 0.55205 0.82907 0.06294 0.0
C721 C 0.55415 0.85101 0.06838 0.0
C722 C 0.56487 0.85963 0.08283 0.0
C723 C 0.5702 0.82441 0.0862 0.0
C724 C 0.55985 0.81604 0.07204 0.0
C725 C 0.55724 0.79164 0.06828 0.0
H726 H 0.5707 0.69595 0.08898 0.0
C727 C 0.57555 0.80608 0.09292 0.0
C728 C 0.56781 0.78675 0.08251 0.0
H729 H 0.53794 0.70469 0.04781 0.0
H730 H 0.54713 0.74465 0.05603 0.0
H731 H 0.61762 0.75228 0.09059 0.0
H732 H 0.54489 0.71641 0.11106 0.0
H733 H 0.56624 0.73596 0.12473 0.0
H734 H 0.5693 0.71099 0.11725 0.0
H735 H 0.60908 0.72976 0.10516 0.0
H736 H 0.62086 0.7615 0.10968 0.0
C737 C 0.57351 0.79481 0.05423 0.0
C738 C 0.52915 0.77291 0.06613 0.0
C739 C 0.61718 0.82197 0.14463 0.0
C740 C 0.62448 0.80854 0.15386 0.0
C741 C 0.61934 0.78522 0.14895 0.0
C742 C 0.60766 0.7757 0.13493 0.0
C743 C 0.60085 0.78955 0.12571 0.0
C744 C 0.60542 0.81218 0.13071 0.0
C745 C 0.59647 0.82417 0.11963 0.0
C746 C 0.58629 0.80528 0.10699 0.0
C747 C 0.58892 0.78503 0.11057 0.0
C748 C 0.61925 0.84839 0.11441 0.0
C749 C 0.57572 0.82722 0.12734 0.0
C750 C 0.56533 0.70636 0.08175 0.0
C751 C 0.5535 0.69692 0.06768 0.0
C752 C 0.54736 0.71147 0.05857 0.0
C753 C 0.5525 0.73467 0.06345 0.0
C754 C 0.56378 0.74354 0.07766 0.0
C755 C 0.57014 0.72951 0.08652 0.0
C756 C 0.58167 0.7418 0.1014 0.0
C757 C 0.58092 0.76538 0.10005 0.0
C758 C 0.57049 0.7663 0.0861 0.0
C759 C 0.6087 0.74653 0.1019 0.0
C760 C 0.56488 0.7255 0.11438 0.0
H761 H 0.58076 0.85399 0.10262 0.0
H762 H 0.54428 0.82194 0.05185 0.0
H763 H 0.51745 0.77766 0.07334 0.0
H764 H 0.52416 0.75428 0.06968 0.0
H765 H 0.52323 0.77237 0.05418 0.0
H766 H 0.59137 0.81245 0.05484 0.0
H767 H 0.56382 0.79479 0.04362 0.0
H768 H 0.57895 0.78069 0.05335 0.0
H769 H 0.6205 0.83978 0.14817 0.0
H770 H 0.62493 0.77457 0.1558 0.0
H771 H 0.60453 0.75798 0.13176 0.0
H772 H 0.63562 0.84594 0.11254 0.0
H773 H 0.62456 0.86295 0.1231 0.0
H774 H 0.61616 0.85497 0.10351 0.0
H775 H 0.56529 0.8125 0.13573 0.0
H776 H 0.56135 0.82565 0.11925 0.0
H777 H 0.58361 0.84495 0.13344 0.0
H778 H 0.56645 0.87622 0.08748 0.0
C779 C 0.57297 0.84653 0.09171 0.0
C780 C 0.29034 0.83667 0.06184 0.0
C781 C 0.30945 0.85982 0.06649 0.0
C782 C 0.30754 0.86895 0.08074 0.0
C783 C 0.26833 0.83183 0.08551 0.0
C784 C 0.27004 0.82315 0.07142 0.0
C785 C 0.248 0.7985 0.06794 0.0
H786 H 0.13712 0.70326 0.08876 0.0
C787 C 0.24498 0.813 0.09271 0.0
C788 C 0.23301 0.7935 0.08239 0.0
H789 H 0.17514 0.71476 0.04591 0.0
H790 H 0.20939 0.75231 0.05538 0.0
H791 H 0.18577 0.72161 0.11007 0.0
H792 H 0.14846 0.75836 0.09243 0.0
H793 H 0.15602 0.76715 0.11149 0.0
H794 H 0.1352 0.73552 0.10689 0.0
H795 H 0.15654 0.71633 0.11744 0.0
H796 H 0.18579 0.74085 0.12448 0.0
C797 C 0.25749 0.78021 0.0657 0.0
C798 C 0.23418 0.8011 0.05402 0.0
C799 C 0.22153 0.82661 0.1458 0.0
C800 C 0.2011 0.8124 0.15532 0.0
C801 C 0.1829 0.78894 0.1503 0.0
C802 C 0.18467 0.78003 0.13604 0.0
C803 C 0.20485 0.79468 0.12655 0.0
C804 C 0.22304 0.81743 0.13156 0.0
C805 C 0.24328 0.83033 0.11997 0.0
C806 C 0.23411 0.81169 0.10714 0.0
C807 C 0.2115 0.79087 0.11104 0.0
C808 C 0.26803 0.83434 0.12687 0.0
C809 C 0.24371 0.85414 0.11533 0.0
C810 C 0.15274 0.7139 0.08136 0.0
C811 C 0.15323 0.70587 0.0665 0.0
C812 C 0.17426 0.7202 0.05744 0.0
C813 C 0.1941 0.74221 0.06292 0.0
C814 C 0.19302 0.75023 0.07764 0.0
C815 C 0.17265 0.73606 0.08663 0.0
C816 C 0.17456 0.74768 0.10188 0.0
C817 C 0.19925 0.77132 0.10047 0.0
C818 C 0.20998 0.77265 0.08625 0.0
C819 C 0.17555 0.73079 0.11421 0.0
C820 C 0.15239 0.75236 0.10342 0.0
H821 H 0.28692 0.86294 0.10103 0.0
H822 H 0.29103 0.82929 0.05087 0.0
H823 H 0.23639 0.81966 0.05352 0.0
H824 H 0.21383 0.78864 0.05444 0.0
H825 H 0.2415 0.79802 0.04327 0.0
H826 H 0.27257 0.7839 0.07397 0.0
H827 H 0.26514 0.78166 0.05414 0.0
H828 H 0.24301 0.76108 0.06772 0.0
H829 H 0.23606 0.84458 0.14932 0.0
H830 H 0.16682 0.77765 0.15724 0.0
H831 H 0.17002 0.76218 0.13286 0.0
H832 H 0.26488 0.81813 0.13352 0.0
H833 H 0.27636 0.85039 0.13461 0.0
H834 H 0.28188 0.83672 0.11822 0.0
H835 H 0.22452 0.85137 0.11498 0.0
H836 H 0.25113 0.86026 0.10383 0.0
H837 H 0.25471 0.86912 0.12354 0.0
H838 H 0.32208 0.88667 0.08463 0.0
C839 C 0.28717 0.85507 0.09028 0.0
C840 C 0.28986 0.45206 0.05912 0.0
C841 C 0.3042 0.44198 0.06429 0.0
C842 C 0.2982 0.42967 0.07828 0.0
C843 C 0.26403 0.43773 0.08172 0.0
C844 C 0.26976 0.44942 0.06785 0.0
C845 C 0.25156 0.45744 0.06335 0.0
H846 H 0.14498 0.45913 0.07694 0.0
C847 C 0.24174 0.43787 0.08779 0.0
C848 C 0.23427 0.4492 0.07691 0.0
H849 H 0.19316 0.4876 0.03809 0.0
H850 H 0.22169 0.47637 0.04926 0.0
H851 H 0.14986 0.41014 0.08247 0.0
H852 H 0.18702 0.48314 0.10029 0.0
H853 H 0.18951 0.46537 0.11467 0.0
H854 H 0.1591 0.45966 0.10878 0.0
H855 H 0.13553 0.42306 0.09408 0.0
H856 H 0.15152 0.40879 0.10237 0.0
C857 C 0.2381 0.44346 0.04867 0.0
C858 C 0.26594 0.48559 0.06181 0.0
C859 C 0.20575 0.40166 0.1399 0.0
C860 C 0.18525 0.39976 0.14805 0.0
C861 C 0.17191 0.4104 0.14186 0.0
C862 C 0.17782 0.42151 0.12765 0.0
C863 C 0.19749 0.42236 0.11936 0.0
C864 C 0.21155 0.41312 0.12559 0.0
C865 C 0.23224 0.41649 0.11503 0.0
C866 C 0.22818 0.4293 0.10161 0.0
C867 C 0.20746 0.43224 0.1042 0.0
C868 C 0.22798 0.39098 0.11061 0.0
C869 C 0.25738 0.43302 0.12309 0.0
C870 C 0.16156 0.46264 0.0708 0.0
C871 C 0.16669 0.47383 0.05652 0.0
C872 C 0.1888 0.47885 0.04907 0.0
C873 C 0.20528 0.47225 0.05557 0.0
C874 C 0.19975 0.4607 0.06978 0.0
C875 C 0.17843 0.45653 0.07727 0.0
C876 C 0.17639 0.44561 0.09268 0.0
C877 C 0.19935 0.44274 0.0929 0.0
C878 C 0.21285 0.45143 0.07941 0.0
C879 C 0.15202 0.42061 0.09307 0.0
C880 C 0.17791 0.46421 0.10479 0.0
H881 H 0.27477 0.41818 0.09764 0.0
H882 H 0.29377 0.4612 0.04828 0.0
H883 H 0.28089 0.49414 0.07054 0.0
H884 H 0.25406 0.49378 0.06369 0.0
H885 H 0.27487 0.49121 0.05052 0.0
H886 H 0.23526 0.42463 0.04869 0.0
H887 H 0.24914 0.45285 0.03846 0.0
H888 H 0.21921 0.44086 0.04744 0.0
H889 H 0.21647 0.39378 0.14431 0.0
H890 H 0.15653 0.40989 0.14798 0.0
H891 H 0.1665 0.42871 0.12359 0.0
H892 H 0.20776 0.37765 0.10931 0.0
H893 H 0.23551 0.38388 0.11942 0.0
H894 H 0.23623 0.39086 0.09956 0.0
H895 H 0.25721 0.44869 0.12874 0.0
H896 H 0.27326 0.44115 0.11523 0.0
H897 H 0.26106 0.42271 0.13191 0.0
H898 H 0.30901 0.42172 0.08245 0.0
C899 C 0.27835 0.42767 0.08708 0.0
C900 C 0.50267 0.87765 0.2934 0.0
C901 C 0.52627 0.88368 0.28785 0.0
C902 C 0.53233 0.89144 0.27275 0.0
C903 C 0.49195 0.88816 0.26909 0.0
C904 C 0.48589 0.88017 0.28387 0.0
C905 C 0.46051 0.87591 0.28814 0.0
H906 H 0.35692 0.88148 0.2703 0.0
C907 C 0.47107 0.89026 0.2625 0.0
C908 C 0.45265 0.88325 0.27364 0.0
H909 H 0.37252 0.85408 0.31117 0.0
H910 H 0.41249 0.86319 0.30132 0.0
H911 H 0.41347 0.92846 0.2654 0.0
H912 H 0.37747 0.85483 0.24772 0.0
H913 H 0.39367 0.87519 0.23294 0.0
H914 H 0.36843 0.87656 0.24205 0.0
H915 H 0.38878 0.9177 0.25165 0.0
H916 H 0.42073 0.92951 0.24606 0.0
C917 C 0.46373 0.8932 0.30152 0.0
C918 C 0.44363 0.84839 0.29162 0.0
C919 C 0.47642 0.91854 0.20802 0.0
C920 C 0.46095 0.92363 0.19888 0.0
C921 C 0.43901 0.92131 0.20524 0.0
C922 C 0.43232 0.91351 0.22029 0.0
C923 C 0.44781 0.90811 0.22919 0.0
C924 C 0.46963 0.91102 0.22305 0.0
C925 C 0.48451 0.90566 0.23431 0.0
C926 C 0.46766 0.8982 0.24808 0.0
C927 C 0.44607 0.89953 0.24505 0.0
C928 C 0.50955 0.92953 0.23717 0.0
C929 C 0.48726 0.8842 0.22808 0.0
C930 C 0.36918 0.87778 0.27714 0.0
C931 C 0.36169 0.8672 0.29158 0.0
C932 C 0.37789 0.86218 0.30003 0.0
C933 C 0.40109 0.86748 0.29428 0.0
C934 C 0.40826 0.87773 0.27978 0.0
C935 C 0.39237 0.88259 0.2714 0.0
C936 C 0.40271 0.89225 0.25587 0.0
C937 C 0.4274 0.8925 0.2564 0.0
C938 C 0.4306 0.88418 0.27053 0.0
C939 C 0.40654 0.9183 0.25452 0.0
C940 C 0.38467 0.87396 0.24392 0.0
H941 H 0.52111 0.89976 0.25197 0.0
H942 H 0.49776 0.87197 0.30505 0.0
H943 H 0.44934 0.83702 0.28496 0.0
H944 H 0.42398 0.84144 0.28836 0.0
H945 H 0.44458 0.84456 0.3038 0.0
H946 H 0.48043 0.9115 0.29982 0.0
H947 H 0.46622 0.88588 0.3124 0.0
H948 H 0.44805 0.89667 0.30266 0.0
H949 H 0.49368 0.92064 0.20361 0.0
H950 H 0.42675 0.9251 0.19846 0.0
H951 H 0.41529 0.91191 0.22441 0.0
H952 H 0.50765 0.94595 0.23544 0.0
H953 H 0.52424 0.93096 0.22936 0.0
H954 H 0.5162 0.93125 0.24899 0.0
H955 H 0.46945 0.86998 0.22292 0.0
H956 H 0.4917 0.87471 0.23695 0.0
H957 H 0.50182 0.89054 0.21919 0.0
H958 H 0.55054 0.89634 0.26835 0.0
C959 C 0.51528 0.89357 0.26332 0.0
C960 C 0.1168 0.49971 0.28768 0.0
C961 C 0.11644 0.47915 0.28128 0.0
C962 C 0.10611 0.47139 0.26665 0.0
C963 C 0.09815 0.50525 0.26492 0.0
C964 C 0.10787 0.51249 0.27934 0.0
C965 C 0.10872 0.53563 0.2843 0.0
H966 H 0.09017 0.62948 0.2681 0.0
C967 C 0.09129 0.52313 0.25922 0.0
C968 C 0.09745 0.54091 0.27062 0.0
H969 H 0.12643 0.62074 0.30758 0.0
H970 H 0.11671 0.58075 0.29871 0.0
H971 H 0.11669 0.61439 0.24581 0.0
H972 H 0.04432 0.57313 0.26568 0.0
H973 H 0.04102 0.56379 0.24664 0.0
H974 H 0.05134 0.59534 0.25113 0.0
H975 H 0.0905 0.61652 0.23916 0.0
H976 H 0.09787 0.59438 0.23153 0.0
C977 C 0.13639 0.55546 0.28682 0.0
C978 C 0.0921 0.53002 0.29848 0.0
C979 C 0.05844 0.51725 0.20528 0.0
C980 C 0.05231 0.53262 0.1971 0.0
C981 C 0.05205 0.55215 0.20462 0.0
C982 C 0.05874 0.55704 0.21987 0.0
C983 C 0.06617 0.54248 0.22774 0.0
C984 C 0.06545 0.52262 0.22061 0.0
C985 C 0.07424 0.50946 0.23097 0.0
C986 C 0.08086 0.52512 0.24527 0.0
C987 C 0.07618 0.54447 0.24318 0.0
C988 C 0.09738 0.51028 0.22376 0.0
C989 C 0.05222 0.48338 0.23359 0.0
C990 C 0.09612 0.61905 0.27488 0.0
C991 C 0.10944 0.62857 0.28848 0.0
C992 C 0.11612 0.61393 0.29708 0.0
C993 C 0.11071 0.5908 0.29181 0.0
C994 C 0.09877 0.5823 0.2777 0.0
C995 C 0.09143 0.59629 0.26961 0.0
C996 C 0.08041 0.58529 0.25445 0.0
C997 C 0.08252 0.56241 0.25467 0.0
C998 C 0.09311 0.56066 0.26831 0.0
C999 C 0.09696 0.60349 0.24201 0.0
C1000 C 0.05288 0.57916 0.2543 0.0
H1001 H 0.08956 0.47767 0.24734 0.0
H1002 H 0.12414 0.50602 0.29897 0.0
H1003 H 0.07455 0.51225 0.29713 0.0
H1004 H 0.08619 0.54363 0.30048 0.0
H1005 H 0.10178 0.52887 0.30878 0.0
H1006 H 0.14908 0.55193 0.27971 0.0
H1007 H 0.14209 0.55605 0.29883 0.0
H1008 H 0.14037 0.57387 0.28342 0.0
H1009 H 0.05877 0.50212 0.19972 0.0
H1010 H 0.04705 0.56397 0.19855 0.0
H1011 H 0.05851 0.57244 0.22481 0.0
H1012 H 0.10962 0.52839 0.21853 0.0
H1013 H 0.09187 0.49617 0.21475 0.0
H1014 H 0.10928 0.5079 0.23209 0.0
H1015 H 0.03445 0.48359 0.23474 0.0
H1016 H 0.05406 0.47519 0.24418 0.0
H1017 H 0.05008 0.47116 0.22393 0.0
H1018 H 0.10572 0.45573 0.26135 0.0
C1019 C 0.09689 0.48427 0.25847 0.0
C1020 C 0.38824 0.49735 0.28938 0.0
C1021 C 0.37018 0.47466 0.28344 0.0
C1022 C 0.37435 0.46733 0.26913 0.0
C1023 C 0.41326 0.50572 0.26664 0.0
C1024 C 0.40945 0.51243 0.28088 0.0
C1025 C 0.42988 0.53732 0.28556 0.0
H1026 H 0.53447 0.64261 0.26837 0.0
C1027 C 0.43677 0.52619 0.26061 0.0
C1028 C 0.44661 0.54462 0.27178 0.0
H1029 H 0.49116 0.62424 0.30947 0.0
H1030 H 0.46404 0.58353 0.30004 0.0
H1031 H 0.53381 0.59092 0.26503 0.0
H1032 H 0.48889 0.61871 0.24637 0.0
H1033 H 0.49329 0.60238 0.23177 0.0
H1034 H 0.51994 0.62854 0.24 0.0
H1035 H 0.54442 0.61256 0.24986 0.0
H1036 H 0.52699 0.58007 0.2463 0.0
C1037 C 0.44288 0.53448 0.29981 0.0
C1038 C 0.41827 0.55388 0.28785 0.0
C1039 C 0.46485 0.52408 0.20644 0.0
C1040 C 0.48505 0.54146 0.19783 0.0
C1041 C 0.50293 0.56329 0.20489 0.0
C1042 C 0.50044 0.56824 0.22002 0.0
C1043 C 0.47972 0.55129 0.22831 0.0
C1044 C 0.46251 0.52945 0.22164 0.0
C1045 C 0.44173 0.51377 0.23241 0.0
C1046 C 0.4492 0.53003 0.24646 0.0
C1047 C 0.47146 0.55203 0.24389 0.0
C1048 C 0.44247 0.49002 0.23528 0.0
C1049 C 0.41695 0.50961 0.22549 0.0
C1050 C 0.51938 0.62963 0.27541 0.0
C1051 C 0.51483 0.63664 0.28964 0.0
C1052 C 0.49484 0.61932 0.2984 0.0
C1053 C 0.4791 0.59567 0.29289 0.0
C1054 C 0.48316 0.5892 0.27837 0.0
C1055 C 0.50324 0.60592 0.26998 0.0
C1056 C 0.50423 0.59595 0.25465 0.0
C1057 C 0.48138 0.57058 0.25521 0.0
C1058 C 0.46909 0.5668 0.2691 0.0
C1059 C 0.52866 0.59491 0.25375 0.0
C1060 C 0.50165 0.61219 0.24247 0.0
H1061 H 0.39768 0.47631 0.2498 0.0
H1062 H 0.38585 0.50339 0.30044 0.0
H1063 H 0.40289 0.54913 0.2796 0.0
H1064 H 0.43153 0.57338 0.28581 0.0
H1065 H 0.41043 0.55179 0.29941 0.0
H1066 H 0.44315 0.51702 0.29942 0.0
H1067 H 0.43304 0.53447 0.31032 0.0
H1068 H 0.46267 0.54879 0.30073 0.0
H1069 H 0.45084 0.50712 0.20133 0.0
H1070 H 0.51889 0.57673 0.19861 0.0
H1071 H 0.51461 0.58532 0.22459 0.0
H1072 H 0.46202 0.4938 0.23583 0.0
H1073 H 0.43283 0.4765 0.22605 0.0
H1074 H 0.43423 0.48156 0.24626 0.0
H1075 H 0.41942 0.52678 0.22045 0.0
H1076 H 0.40204 0.50415 0.23394 0.0
H1077 H 0.41031 0.49555 0.21638 0.0
H1078 H 0.36069 0.44997 0.26426 0.0
C1079 C 0.39576 0.48273 0.2607 0.0
Gd1080 Gd 0.51172 0.01432 0.02752 0.0
Gd1081 Gd 0.4931 0.98469 0.98966 0.0
C1082 C 0.41808 0.91564 0.98234 0.0
C1083 C 0.43036 0.88531 0.97724 0.0
C1084 C 0.46179 0.92759 0.98206 0.0
C1085 C 0.44337 0.93365 0.98389 0.0
C1086 C 0.45553 0.90347 0.97838 0.0
C1087 C 0.41167 0.89137 0.97925 0.0
C1088 C 0.40001 0.92262 0.98372 0.0
C1089 C 0.4074 0.94715 0.98615 0.0
N1090 N 0.45021 0.95728 0.98682 0.0
C1091 C 0.43272 0.96439 0.98748 0.0
H1092 H 0.43812 0.98324 0.98941 0.0
C1093 C 0.50477 0.94107 0.97978 0.0
N1094 N 0.48592 0.94555 0.98327 0.0
C1095 C 0.4995 0.91741 0.97614 0.0
C1096 C 0.47478 0.89845 0.97562 0.0
H1097 H 0.5239 0.95568 0.98019 0.0
H1098 H 0.39234 0.87725 0.97812 0.0
H1099 H 0.56625 0.01467 0.02737 0.0
H1100 H 0.38038 0.90932 0.98267 0.0
H1101 H 0.39359 0.9528 0.98704 0.0
H1102 H 0.42517 0.86662 0.97455 0.0
H1103 H 0.4822 0.04371 0.03856 0.0
H1104 H 0.62505 0.08795 0.03455 0.0
H1105 H 0.61094 0.04439 0.02969 0.0
H1106 H 0.58174 0.13171 0.0442 0.0
H1107 H 0.51448 0.9138 0.97374 0.0
H1108 H 0.47074 0.88015 0.97276 0.0
H1109 H 0.61398 0.12048 0.03984 0.0
H1110 H 0.4924 0.08554 0.04578 0.0
N1111 N 0.55485 0.04109 0.03044 0.0
C1112 C 0.60532 0.07495 0.03354 0.0
C1113 C 0.59743 0.05038 0.03083 0.0
C1114 C 0.58763 0.08235 0.03528 0.0
C1115 C 0.5622 0.06472 0.03374 0.0
C1116 C 0.57198 0.03355 0.02953 0.0
N1117 N 0.51994 0.0534 0.03499 0.0
C1118 C 0.54416 0.07109 0.03605 0.0
C1119 C 0.50714 0.08176 0.043 0.0
C1120 C 0.53197 0.10046 0.04343 0.0
C1121 C 0.50143 0.05811 0.03894 0.0
C1122 C 0.55088 0.09519 0.04015 0.0
H1123 H 0.53636 0.11876 0.04661 0.0
O1124 O 0.49032 0.0045 0.04836 0.0
O1125 O 0.48242 0.98431 0.01372 0.0
O1126 O 0.48175 0.01362 0.99286 0.0
O1127 O 0.50717 0.04012 0.01202 0.0
O1128 O 0.47052 0.00105 0.02883 0.0
O1129 O 0.52366 0.00176 0.04707 0.0
O1130 O 0.51483 0.99481 0.96898 0.0
O1131 O 0.52201 0.01506 1.0034 0.0
O1132 O 0.52281 0.98514 0.02405 0.0
O1133 O 0.49596 0.95857 1.00553 0.0
O1134 O 0.53456 0.99886 0.98832 0.0
O1135 O 0.47972 0.99427 0.96936 0.0
C1136 C 0.46318 0.98349 0.01912 0.0
C1137 C 0.57618 0.11304 0.04121 0.0
C1138 C 0.59453 0.10664 0.03874 0.0
C1139 C 0.50557 0.9996 0.05566 0.0
C1140 C 0.51214 0.0094 0.07123 0.0
C1141 C 0.52601 0.03464 0.07381 0.0
C1142 C 0.50376 0.9934 0.08369 0.0
C1143 C 0.50895 0.00258 0.09869 0.0
C1144 C 0.53128 0.04385 0.08858 0.0
C1145 C 0.52279 0.02801 0.10093 0.0
C1146 C 0.49212 0.03488 1.00017 0.0
C1147 C 0.54146 0.01639 0.99802 0.0
C1148 C 0.49842 0.9972 0.96106 0.0
C1149 C 0.49252 0.9854 0.94595 0.0
C1150 C 0.48379 0.96028 0.94464 0.0
C1151 C 0.49611 0.9992 0.93267 0.0
C1152 C 0.49066 0.98769 0.91832 0.0
C1153 C 0.47874 0.94899 0.93047 0.0
C1154 C 0.48206 0.96254 0.9174 0.0
C1155 C 0.51121 0.96352 0.01719 0.0
H1156 H 0.53267 0.04722 0.06442 0.0
H1157 H 0.49287 0.97389 0.0817 0.0
H1158 H 0.54201 0.06337 0.09047 0.0
H1159 H 0.52744 0.03569 0.11225 0.0
H1160 H 0.48089 0.94932 0.95454 0.0
H1161 H 0.50258 0.01857 0.93352 0.0
H1162 H 0.47203 0.92959 0.92963 0.0
H1163 H 0.47764 0.95331 0.90651 0.0
Gd1164 Gd 0.98516 0.49495 0.02322 0.0
Gd1165 Gd 0.02522 0.51516 0.98913 0.0
C1166 C 0.1029 0.52376 0.98785 0.0
C1167 C 0.12933 0.56764 0.9851 0.0
C1168 C 0.08433 0.54946 0.98612 0.0
C1169 C 0.08173 0.5266 0.98773 0.0
C1170 C 0.10811 0.57022 0.98449 0.0
C1171 C 0.12673 0.54445 0.98679 0.0
C1172 C 0.09946 0.50019 0.98884 0.0
C1173 C 0.07536 0.48018 0.98927 0.0
N1174 N 0.05845 0.50706 0.98882 0.0
C1175 C 0.05496 0.48395 0.98905 0.0
H1176 H 0.0365 0.46828 0.9895 0.0
C1177 C 0.06491 0.57307 0.98233 0.0
N1178 N 0.06346 0.55127 0.98555 0.0
C1179 C 0.08808 0.59423 0.98073 0.0
C1180 C 0.10981 0.59285 0.98197 0.0
H1181 H 0.04816 0.57425 0.98144 0.0
H1182 H 0.14322 0.54265 0.98701 0.0
H1183 H 0.9724 0.54081 0.02227 0.0
H1184 H 0.11523 0.49723 0.98906 0.0
H1185 H 0.07247 0.46185 0.98986 0.0
H1186 H 0.14779 0.5834 0.98401 0.0
H1187 H 0.96384 0.4363 0.03143 0.0
H1188 H 0.8934 0.51007 0.02296 0.0
H1189 H 0.93571 0.54611 0.02172 0.0
H1190 H 0.86308 0.42456 0.02963 0.0
H1191 H 0.08917 0.61157 0.97857 0.0
H1192 H 0.12774 0.60925 0.9807 0.0
H1193 H 0.86642 0.46464 0.02581 0.0
H1194 H 0.92345 0.39865 0.03531 0.0
N1195 N 0.95128 0.50201 0.0233 0.0
C1196 C 0.90949 0.5076 0.02318 0.0
C1197 C 0.93333 0.52799 0.02252 0.0
C1198 C 0.90671 0.48432 0.02449 0.0
C1199 C 0.92826 0.48212 0.0246 0.0
C1200 C 0.95414 0.52487 0.02284 0.0
N1201 N 0.94755 0.45838 0.0271 0.0
C1202 C 0.92634 0.45959 0.0266 0.0
C1203 C 0.924 0.41566 0.03282 0.0
C1204 C 0.90192 0.41642 0.03178 0.0
C1205 C 0.94682 0.43699 0.03063 0.0
C1206 C 0.90289 0.43859 0.02874 0.0
H1207 H 0.88426 0.39989 0.03354 0.0
O1208 O 0.99348 0.48523 0.04512 0.0
O1209 O 0.0213 0.50379 0.01306 0.0
O1210 O 1.0007 0.47364 0.99066 0.0
O1211 O 0.96634 0.46575 1.00548 0.0
O1212 O 0.00569 0.47409 0.02716 0.0
O1213 O 0.98869 0.51685 0.0431 0.0
O1214 O 0.01829 0.52583 0.96715 0.0
O1215 O 0.98912 0.50663 0.99924 0.0
O1216 O 0.00896 0.53633 0.02171 0.0
O1217 O 0.04356 0.54455 1.00703 0.0
O1218 O 0.00548 0.53664 0.98534 0.0
O1219 O 0.01978 0.49242 0.96933 0.0
C1220 C 0.02493 0.48779 0.01906 0.0
C1221 C 0.88129 0.44052 0.02815 0.0
C1222 C 0.8832 0.46334 0.02598 0.0
C1223 C 0.99263 0.5029 0.0522 0.0
C1224 C 0.97944 0.49657 0.06672 0.0
C1225 C 0.9534 0.48315 0.06741 0.0
C1226 C 0.99344 0.5037 0.08015 0.0
C1227 C 0.98168 0.49778 0.09437 0.0
C1228 C 0.94152 0.47698 0.08146 0.0
C1229 C 0.95551 0.48421 0.09488 0.0
C1230 C 0.97731 0.4593 0.99506 0.0
C1231 C 0.98602 0.52305 0.99331 0.0
C1232 C 0.01735 0.50721 0.96014 0.0
C1233 C 0.03049 0.5123 0.94562 0.0
C1234 C 0.05614 0.52869 0.94467 0.0
C1235 C 0.01683 0.50106 0.93242 0.0
C1236 C 0.02856 0.50626 0.91819 0.0
C1237 C 0.06794 0.53393 0.93059 0.0
C1238 C 0.05427 0.5229 0.91741 0.0
C1239 C 0.03236 0.55082 0.01744 0.0
H1240 H 0.94232 0.47745 0.05714 0.0
H1241 H 0.01359 0.51369 0.07948 0.0
H1242 H 0.9214 0.46665 0.08197 0.0
H1243 H 0.94583 0.47958 0.10561 0.0
H1244 H 0.06694 0.53752 0.95474 0.0
H1245 H 0.99695 0.4886 0.93321 0.0
H1246 H 0.08774 0.54662 0.92989 0.0
H1247 H 0.06387 0.52711 0.90665 0.0
Gd1248 Gd 0.48976 0.50386 0.98935 0.0
Gd1249 Gd 0.51037 0.49117 0.02551 0.0
C1250 C 0.56698 0.4657 0.03089 0.0
C1251 C 0.54037 0.42249 0.0363 0.0
C1252 C 0.52229 0.44836 0.03221 0.0
C1253 C 0.54569 0.46819 0.02972 0.0
C1254 C 0.51929 0.42531 0.03558 0.0
C1255 C 0.56418 0.44266 0.03398 0.0
C1256 C 0.59043 0.48655 0.02928 0.0
C1257 C 0.59217 0.50922 0.02705 0.0
N1258 N 0.54766 0.49013 0.02676 0.0
C1259 C 0.57044 0.51073 0.02611 0.0
H1260 H 0.57177 0.52833 0.02478 0.0
C1261 C 0.4789 0.43312 0.03416 0.0
N1262 N 0.50233 0.45169 0.03114 0.0
C1263 C 0.47494 0.40984 0.03755 0.0
C1264 C 0.4952 0.40587 0.03816 0.0
H1265 H 0.46332 0.43631 0.03364 0.0
H1266 H 0.5803 0.44033 0.03481 0.0
H1267 H 0.4377 0.44856 0.98232 0.0
H1268 H 0.60728 0.48544 0.0301 0.0
H1269 H 0.61022 0.52555 0.02615 0.0
H1270 H 0.53849 0.40489 0.03881 0.0
H1271 H 0.51398 0.56479 0.98489 0.0
H1272 H 0.37484 0.45865 0.98465 0.0
H1273 H 0.39271 0.43168 0.98149 0.0
H1274 H 0.4105 0.54509 0.98836 0.0
H1275 H 0.4563 0.39499 0.03969 0.0
H1276 H 0.49207 0.38782 0.04077 0.0
H1277 H 0.38166 0.50088 0.9873 0.0
H1278 H 0.49907 0.59444 0.98444 0.0
N1279 N 0.44615 0.48519 0.98676 0.0
C1280 C 0.39484 0.46632 0.98517 0.0
C1281 C 0.40486 0.45105 0.98336 0.0
C1282 C 0.41078 0.49142 0.98703 0.0
C1283 C 0.43673 0.50053 0.98774 0.0
C1284 C 0.43065 0.46084 0.98398 0.0
N1285 N 0.47793 0.53403 0.9884 0.0
C1286 C 0.45303 0.52558 0.98853 0.0
C1287 C 0.48595 0.57518 0.98578 0.0
C1288 C 0.4606 0.56699 0.9873 0.0
C1289 C 0.49428 0.55834 0.98595 0.0
C1290 C 0.44373 0.54193 0.98829 0.0
H1291 H 0.45416 0.58008 0.98707 0.0
O1292 O 0.5146 0.52764 0.97209 0.0
O1293 O 0.52307 0.51111 1.00368 0.0
O1294 O 0.52852 0.53155 0.02126 0.0
O1295 O 0.49779 0.53305 0.00751 0.0
O1296 O 0.52172 0.49921 0.98168 0.0
O1297 O 0.48011 0.49478 0.96542 0.0
O1298 O 0.49432 0.48662 0.04789 0.0
O1299 O 0.47758 0.48377 0.01088 0.0
O1300 O 0.47861 0.46365 0.98944 0.0
O1301 O 0.50307 0.46094 0.0088 0.0
O1302 O 0.47405 0.48709 0.03364 0.0
O1303 O 0.53337 0.51333 0.04431 0.0
C1304 C 0.5346 0.50594 0.99391 0.0
C1305 C 0.41794 0.5328 0.98834 0.0
C1306 C 0.40152 0.50762 0.98771 0.0
C1307 C 0.50067 0.51397 0.9609 0.0
C1308 C 0.50079 0.52624 0.94663 0.0
C1309 C 0.50583 0.55052 0.94659 0.0
C1310 C 0.49904 0.51453 0.93268 0.0
C1311 C 0.50302 0.52719 0.91893 0.0
C1312 C 0.5093 0.56292 0.93296 0.0
C1313 C 0.50815 0.55144 0.9192 0.0
C1314 C 0.5156 0.54232 0.01789 0.0
C1315 C 0.46353 0.48478 0.0208 0.0
C1316 C 0.51528 0.50282 0.05409 0.0
C1317 C 0.52111 0.49666 0.06901 0.0
C1318 C 0.53284 0.48274 0.07052 0.0
C1319 C 0.51427 0.5047 0.08203 0.0
C1320 C 0.51938 0.49927 0.09663 0.0
C1321 C 0.53777 0.47702 0.08492 0.0
C1322 C 0.53117 0.48523 0.0979 0.0
C1323 C 0.48896 0.45235 0.99648 0.0
H1324 H 0.5078 0.5602 0.95705 0.0
H1325 H 0.49552 0.49592 0.93253 0.0
H1326 H 0.51331 0.58166 0.93307 0.0
H1327 H 0.51112 0.56143 0.90874 0.0
H1328 H 0.53818 0.47633 0.06062 0.0
H1329 H 0.50478 0.51507 0.08073 0.0
H1330 H 0.54692 0.46633 0.08604 0.0
H1331 H 0.53574 0.48097 0.10889 0.0
Gd1332 Gd 0.18536 0.34761 0.35639 0.0
Gd1333 Gd 0.16218 0.31779 0.31875 0.0
C1334 C 0.08469 0.2509 0.31423 0.0
C1335 C 0.09423 0.2188 0.30852 0.0
C1336 C 0.12764 0.26064 0.31213 0.0
C1337 C 0.1104 0.268 0.31478 0.0
C1338 C 0.11977 0.23608 0.30859 0.0
C1339 C 0.07672 0.22619 0.31137 0.0
C1340 C 0.06779 0.25921 0.3163 0.0
C1341 C 0.07666 0.28412 0.31838 0.0
N1342 N 0.11874 0.29203 0.31743 0.0
C1343 C 0.10233 0.30041 0.3187 0.0
H1344 H 0.10889 0.31958 0.32039 0.0
C1345 C 0.16972 0.27205 0.30776 0.0
N1346 N 0.15216 0.27779 0.31226 0.0
C1347 C 0.16284 0.2479 0.30421 0.0
C1348 C 0.13778 0.22977 0.30482 0.0
H1349 H 0.18911 0.28604 0.30734 0.0
H1350 H 0.05706 0.21275 0.31103 0.0
H1351 H 0.23891 0.34631 0.35368 0.0
H1352 H 0.0479 0.24664 0.31605 0.0
H1353 H 0.06374 0.29079 0.31979 0.0
H1354 H 0.0878 0.19979 0.30597 0.0
H1355 H 0.15837 0.37828 0.36949 0.0
H1356 H 0.29971 0.4188 0.36007 0.0
H1357 H 0.28396 0.37507 0.35467 0.0
H1358 H 0.25953 0.46443 0.37305 0.0
H1359 H 0.17684 0.24329 0.30102 0.0
H1360 H 0.13249 0.21109 0.30203 0.0
H1361 H 0.29041 0.4521 0.36684 0.0
H1362 H 0.17039 0.42034 0.37735 0.0
N1363 N 0.22886 0.37344 0.35803 0.0
C1364 C 0.27982 0.40623 0.35965 0.0
C1365 C 0.27101 0.38155 0.35663 0.0
C1366 C 0.26287 0.41426 0.36246 0.0
C1367 C 0.23718 0.39715 0.36165 0.0
C1368 C 0.24534 0.36526 0.35609 0.0
N1369 N 0.19546 0.38692 0.36461 0.0
C1370 C 0.2199 0.40412 0.36505 0.0
C1371 C 0.18451 0.41606 0.37385 0.0
C1372 C 0.20956 0.43426 0.37371 0.0
C1373 C 0.17777 0.39227 0.36944 0.0
C1374 C 0.22766 0.42834 0.36946 0.0
H1375 H 0.21475 0.45266 0.37717 0.0
O1376 O 0.16619 0.33824 0.37806 0.0
O1377 O 0.15419 0.31847 0.34318 0.0
O1378 O 0.15321 0.34817 0.32301 0.0
O1379 O 0.1807 0.37409 0.34171 0.0
O1380 O 0.1446 0.33557 0.35944 0.0
O1381 O 0.1979 0.33328 0.37466 0.0
O1382 O 0.18105 0.32561 0.29704 0.0
O1383 O 0.19304 0.3475 0.33181 0.0
O1384 O 0.19507 0.31799 0.35142 0.0
O1385 O 0.16535 0.29127 0.33418 0.0
O1386 O 0.20316 0.33069 0.31564 0.0
O1387 O 0.14828 0.32908 0.29948 0.0
C1388 C 0.13585 0.31829 0.34947 0.0
C1389 C 0.25318 0.44567 0.36981 0.0
C1390 C 0.27076 0.43865 0.36628 0.0
C1391 C 0.18123 0.33191 0.38421 0.0
C1392 C 0.18979 0.34087 0.39977 0.0
C1393 C 0.20907 0.36481 0.40233 0.0
C1394 C 0.17817 0.32543 0.41223 0.0
C1395 C 0.18552 0.33388 0.42728 0.0
C1396 C 0.21659 0.37331 0.41711 0.0
C1397 C 0.20492 0.35809 0.42947 0.0
C1398 C 0.1649 0.36941 0.33035 0.0
C1399 C 0.21157 0.34818 0.32547 0.0
C1400 C 0.16496 0.32982 0.29015 0.0
C1401 C 0.15586 0.3176 0.27529 0.0
C1402 C 0.14364 0.29205 0.27435 0.0
C1403 C 0.15949 0.33126 0.26194 0.0
C1404 C 0.15052 0.31922 0.24787 0.0
C1405 C 0.13514 0.28017 0.26046 0.0
C1406 C 0.13846 0.29359 0.24733 0.0
C1407 C 0.18161 0.29604 0.34523 0.0
H1408 H 0.21821 0.37696 0.39293 0.0
H1409 H 0.16349 0.30684 0.41013 0.0
H1410 H 0.23139 0.39189 0.419 0.0
H1411 H 0.2108 0.36558 0.44075 0.0
H1412 H 0.14064 0.28121 0.28432 0.0
H1413 H 0.16867 0.35101 0.26253 0.0
H1414 H 0.12576 0.26044 0.2599 0.0
H1415 H 0.13143 0.28391 0.23669 0.0
Gd1416 Gd 0.65179 0.83177 0.35997 0.0
Gd1417 Gd 0.69058 0.84732 0.32519 0.0
C1418 C 0.75729 0.83501 0.32576 0.0
C1419 C 0.79212 0.87643 0.32381 0.0
C1420 C 0.74962 0.86883 0.32357 0.0
C1421 C 0.74069 0.84414 0.32509 0.0
C1422 C 0.7754 0.88524 0.32249 0.0
C1423 C 0.78307 0.85134 0.32546 0.0
C1424 C 0.74745 0.80973 0.32644 0.0
C1425 C 0.72169 0.79427 0.32592 0.0
N1426 N 0.71569 0.82897 0.32535 0.0
C1427 C 0.706 0.80424 0.32518 0.0
H1428 H 0.68615 0.79203 0.32493 0.0
C1429 C 0.74063 0.90029 0.3185 0.0
N1430 N 0.73293 0.8766 0.32222 0.0
C1431 C 0.76603 0.91735 0.31744 0.0
C1432 C 0.78353 0.90987 0.31967 0.0
H1433 H 0.7271 0.90612 0.31688 0.0
H1434 H 0.79613 0.8447 0.32616 0.0
H1435 H 0.6485 0.88287 0.36348 0.0
H1436 H 0.75955 0.80197 0.32706 0.0
H1437 H 0.71388 0.77468 0.3262 0.0
H1438 H 0.81203 0.88877 0.32319 0.0
H1439 H 0.6221 0.77094 0.3634 0.0
H1440 H 0.5717 0.86298 0.36565 0.0
H1441 H 0.61624 0.89473 0.36538 0.0
H1442 H 0.52918 0.77548 0.36596 0.0
H1443 H 0.77207 0.93624 0.31494 0.0
H1444 H 0.80319 0.92309 0.31879 0.0
H1445 H 0.53934 0.81842 0.36592 0.0
H1446 H 0.5789 0.73668 0.36542 0.0
N1447 N 0.62249 0.84484 0.36209 0.0
C1448 C 0.58578 0.85767 0.36477 0.0
C1449 C 0.6109 0.87564 0.36464 0.0
C1450 C 0.57917 0.83304 0.36416 0.0
C1451 C 0.59822 0.82712 0.3629 0.0
C1452 C 0.62913 0.86883 0.36353 0.0
N1453 N 0.61144 0.79809 0.36242 0.0
C1454 C 0.5925 0.80299 0.3631 0.0
C1455 C 0.58247 0.75525 0.36476 0.0
C1456 C 0.5627 0.75993 0.36498 0.0
C1457 C 0.6069 0.77468 0.36367 0.0
C1458 C 0.56759 0.78405 0.36433 0.0
H1459 H 0.5438 0.74484 0.36586 0.0
O1460 O 0.65542 0.81718 0.38137 0.0
O1461 O 0.68508 0.83466 0.34891 0.0
O1462 O 0.65781 0.80781 0.32538 0.0
O1463 O 0.62795 0.80883 0.34081 0.0
O1464 O 0.6664 0.80528 0.36275 0.0
O1465 O 0.66002 0.85362 0.38044 0.0
O1466 O 0.68933 0.86252 0.30337 0.0
O1467 O 0.6586 0.84665 0.33666 0.0
O1468 O 0.68152 0.87178 0.35998 0.0
O1469 O 0.71257 0.87665 0.34279 0.0
O1470 O 0.67859 0.87553 0.32225 0.0
O1471 O 0.67983 0.82471 0.3049 0.0
C1472 C 0.68607 0.81696 0.35458 0.0
C1473 C 0.54846 0.78979 0.3651 0.0
C1474 C 0.55424 0.81424 0.36507 0.0
C1475 C 0.65942 0.83654 0.38901 0.0
C1476 C 0.64667 0.8323 0.40359 0.0
C1477 C 0.62065 0.81914 0.4046 0.0
C1478 C 0.66109 0.8412 0.41679 0.0
C1479 C 0.64977 0.83705 0.4311 0.0
C1480 C 0.60921 0.81485 0.41877 0.0
C1481 C 0.62363 0.82367 0.43196 0.0
C1482 C 0.63437 0.79896 0.32978 0.0
C1483 C 0.6598 0.86564 0.33126 0.0
C1484 C 0.68368 0.84258 0.29592 0.0
C1485 C 0.69857 0.84554 0.2823 0.0
C1486 C 0.72326 0.85065 0.28366 0.0
C1487 C 0.68833 0.84391 0.26781 0.0
C1488 C 0.70296 0.848 0.25478 0.0
C1489 C 0.73774 0.85452 0.27078 0.0
C1490 C 0.72775 0.85339 0.25642 0.0
C1491 C 0.7046 0.88374 0.35468 0.0
H1492 H 0.60926 0.8121 0.39451 0.0
H1493 H 0.68123 0.85108 0.4159 0.0
H1494 H 0.58911 0.80468 0.41953 0.0
H1495 H 0.61433 0.82035 0.44279 0.0
H1496 H 0.73138 0.85175 0.29466 0.0
H1497 H 0.66928 0.84004 0.26668 0.0
H1498 H 0.75682 0.85855 0.27193 0.0
H1499 H 0.73934 0.85657 0.24655 0.0
Gd1500 Gd 0.15667 0.84072 0.32561 0.0
Gd1501 Gd 0.17945 0.82589 0.36076 0.0
C1502 C 0.25229 0.82416 0.36074 0.0
C1503 C 0.23778 0.78122 0.36522 0.0
C1504 C 0.20832 0.79595 0.36426 0.0
C1505 C 0.22749 0.81931 0.36144 0.0
C1506 C 0.21327 0.77671 0.36652 0.0
C1507 C 0.25726 0.8049 0.36232 0.0
C1508 C 0.27136 0.84828 0.35877 0.0
C1509 C 0.26554 0.86692 0.35807 0.0
N1510 N 0.22199 0.83747 0.36002 0.0
C1511 C 0.24067 0.86121 0.35894 0.0
H1512 H 0.23659 0.87586 0.35827 0.0
C1513 C 0.16583 0.77027 0.37016 0.0
N1514 N 0.18492 0.7923 0.36552 0.0
C1515 C 0.16975 0.75056 0.37244 0.0
C1516 C 0.19351 0.7537 0.3704 0.0
H1517 H 0.14739 0.76775 0.37163 0.0
H1518 H 0.27616 0.80823 0.36165 0.0
H1519 H 0.09947 0.79125 0.32877 0.0
H1520 H 0.29063 0.85276 0.35807 0.0
H1521 H 0.28018 0.88569 0.35678 0.0
H1522 H 0.24194 0.76663 0.36677 0.0
H1523 H 0.18796 0.89731 0.31218 0.0
H1524 H 0.04595 0.81505 0.32967 0.0
H1525 H 0.05602 0.78186 0.33092 0.0
H1526 H 0.09482 0.90058 0.31909 0.0
H1527 H 0.15444 0.73296 0.37571 0.0
H1528 H 0.19652 0.73842 0.3722 0.0
H1529 H 0.06067 0.85952 0.32545 0.0
H1530 H 0.18122 0.93217 0.30745 0.0
N1531 N 0.1143 0.82965 0.32689 0.0
C1532 C 0.06513 0.81933 0.32874 0.0
C1533 C 0.07074 0.80054 0.32941 0.0
C1534 C 0.08428 0.84331 0.32639 0.0
C1535 C 0.10896 0.84789 0.32539 0.0
C1536 C 0.0955 0.806 0.32818 0.0
N1537 N 0.15125 0.87416 0.3202 0.0
C1538 C 0.1281 0.87095 0.32195 0.0
C1539 C 0.16616 0.91512 0.31166 0.0
C1540 C 0.14278 0.91259 0.31434 0.0
C1541 C 0.16994 0.89542 0.31436 0.0
C1542 C 0.12323 0.89013 0.31924 0.0
H1543 H 0.13982 0.9278 0.31213 0.0
O1544 O 0.17388 0.84932 0.30333 0.0
O1545 O 0.18571 0.83511 0.33636 0.0
O1546 O 0.19422 0.86673 0.35872 0.0
O1547 O 0.1705 0.87363 0.34068 0.0
O1548 O 0.19807 0.86305 0.32096 0.0
O1549 O 0.13778 0.81724 0.30626 0.0
O1550 O 0.16304 0.81528 0.38317 0.0
O1551 O 0.15023 0.83184 0.35025 0.0
O1552 O 0.14205 0.80007 0.32815 0.0
O1553 O 0.16908 0.79494 0.34426 0.0
O1554 O 0.13819 0.80252 0.36469 0.0
O1555 O 0.19674 0.84999 0.38005 0.0
C1556 C 0.20492 0.85116 0.3297 0.0
C1557 C 0.09891 0.88601 0.32096 0.0
C1558 C 0.07946 0.86263 0.32455 0.0
C1559 C 0.15496 0.83114 0.29664 0.0
C1560 C 0.14658 0.83697 0.28243 0.0
C1561 C 0.12851 0.84413 0.28267 0.0
C1562 C 0.15748 0.83638 0.26853 0.0
C1563 C 0.15071 0.84344 0.25501 0.0
C1564 C 0.12154 0.85085 0.26929 0.0
C1565 C 0.13263 0.85065 0.25557 0.0
C1566 C 0.18699 0.88078 0.35183 0.0
C1567 C 0.13115 0.81492 0.3566 0.0
C1568 C 0.18083 0.83464 0.38976 0.0
C1569 C 0.19132 0.83038 0.40363 0.0
C1570 C 0.21036 0.82457 0.40272 0.0
C1571 C 0.18178 0.83144 0.41791 0.0
C1572 C 0.19087 0.82615 0.43116 0.0
C1573 C 0.21956 0.81955 0.41582 0.0
C1574 C 0.20981 0.82018 0.42995 0.0
C1575 C 0.15229 0.78741 0.33325 0.0
H1576 H 0.11989 0.84468 0.2932 0.0
H1577 H 0.17164 0.8311 0.26831 0.0
H1578 H 0.10761 0.8564 0.26957 0.0
H1579 H 0.12699 0.85607 0.24535 0.0
H1580 H 0.21805 0.82384 0.3919 0.0
H1581 H 0.16695 0.83576 0.41868 0.0
H1582 H 0.23421 0.81502 0.41502 0.0
H1583 H 0.21716 0.8161 0.43998 0.0
Gd1584 Gd 0.84848 0.6791 0.69173 0.0
Gd1585 Gd 0.82437 0.64607 0.65505 0.0
C1586 C 0.74824 0.57726 0.65145 0.0
C1587 C 0.75936 0.54597 0.6468 0.0
C1588 C 0.79166 0.58843 0.64973 0.0
C1589 C 0.77373 0.59507 0.65189 0.0
C1590 C 0.78469 0.56389 0.64684 0.0
C1591 C 0.74117 0.55263 0.64914 0.0
C1592 C 0.73063 0.58478 0.65314 0.0
C1593 C 0.73861 0.60959 0.65479 0.0
N1594 N 0.78119 0.61903 0.65404 0.0
C1595 C 0.7641 0.62659 0.65501 0.0
H1596 H 0.76998 0.64568 0.65634 0.0
C1597 C 0.8342 0.60097 0.64607 0.0
N1598 N 0.81596 0.60618 0.64985 0.0
C1599 C 0.82821 0.57687 0.64321 0.0
C1600 C 0.80337 0.5582 0.64376 0.0
H1601 H 0.85342 0.61538 0.64568 0.0
H1602 H 0.72169 0.53866 0.64887 0.0
H1603 H 0.90194 0.67678 0.68933 0.0
H1604 H 0.71088 0.57165 0.65296 0.0
H1605 H 0.72514 0.61563 0.65592 0.0
H1606 H 0.75362 0.52697 0.64472 0.0
H1607 H 0.8229 0.71182 0.70313 0.0
H1608 H 0.96343 0.74915 0.69376 0.0
H1609 H 0.9469 0.705 0.68963 0.0
H1610 H 0.92487 0.79689 0.70482 0.0
H1611 H 0.84274 0.57271 0.64058 0.0
H1612 H 0.79878 0.53955 0.64148 0.0
H1613 H 0.95503 0.78334 0.69936 0.0
H1614 H 0.83583 0.75465 0.70954 0.0
N1615 N 0.89229 0.70448 0.6928 0.0
C1616 C 0.94349 0.73679 0.69365 0.0
C1617 C 0.93423 0.71189 0.69133 0.0
C1618 C 0.92691 0.74536 0.69613 0.0
C1619 C 0.90111 0.72851 0.69575 0.0
C1620 C 0.9085 0.69588 0.69116 0.0
N1621 N 0.85972 0.7193 0.69861 0.0
C1622 C 0.88426 0.73616 0.69872 0.0
C1623 C 0.84965 0.74973 0.70647 0.0
C1624 C 0.87482 0.76754 0.706 0.0
C1625 C 0.84241 0.72551 0.70289 0.0
C1626 C 0.89253 0.76082 0.70227 0.0
H1627 H 0.88041 0.78629 0.70879 0.0
O1628 O 0.8346 0.67686 0.71478 0.0
O1629 O 0.81679 0.64907 0.67937 0.0
O1630 O 0.81413 0.67581 0.65806 0.0
O1631 O 0.84186 0.70334 0.67607 0.0
O1632 O 0.80777 0.66697 0.69531 0.0
O1633 O 0.85631 0.65981 0.70912 0.0
O1634 O 0.84325 0.65348 0.63338 0.0
O1635 O 0.85511 0.6774 0.66721 0.0
O1636 O 0.85906 0.65001 0.68725 0.0
O1637 O 0.82791 0.62098 0.67169 0.0
O1638 O 0.86558 0.66001 0.65167 0.0
O1639 O 0.80914 0.65468 0.63521 0.0
C1640 C 0.79862 0.64914 0.68574 0.0
C1641 C 0.91814 0.77782 0.70224 0.0
C1642 C 0.93531 0.77011 0.69915 0.0
C1643 C 0.84518 0.66491 0.71983 0.0
C1644 C 0.85842 0.67263 0.73451 0.0
C1645 C 0.88441 0.68762 0.73505 0.0
C1646 C 0.84516 0.66345 0.74811 0.0
C1647 C 0.85787 0.66858 0.7621 0.0
C1648 C 0.89703 0.69284 0.7489 0.0
C1649 C 0.88392 0.68321 0.76233 0.0
C1650 C 0.82572 0.69758 0.66476 0.0
C1651 C 0.87374 0.67831 0.66089 0.0
C1652 C 0.82643 0.65615 0.62613 0.0
C1653 C 0.81821 0.6432 0.61142 0.0
C1654 C 0.80748 0.61775 0.61091 0.0
C1655 C 0.82155 0.65613 0.59775 0.0
C1656 C 0.81377 0.64343 0.58379 0.0
C1657 C 0.80022 0.60523 0.59716 0.0
C1658 C 0.80329 0.6179 0.58372 0.0
C1659 C 0.84516 0.62735 0.68228 0.0
H1660 H 0.89499 0.69493 0.72475 0.0
H1661 H 0.82509 0.65185 0.74779 0.0
H1662 H 0.91709 0.70426 0.74921 0.0
H1663 H 0.89408 0.68752 0.77295 0.0
H1664 H 0.80479 0.60749 0.62114 0.0
H1665 H 0.82962 0.67579 0.59803 0.0
H1666 H 0.79204 0.58558 0.59692 0.0
H1667 H 0.79732 0.60766 0.57319 0.0
Gd1668 Gd 0.31741 0.16112 0.69303 0.0
Gd1669 Gd 0.352 0.17321 0.65754 0.0
C1670 C 0.42236 0.16709 0.65709 0.0
C1671 C 0.45491 0.20933 0.6539 0.0
C1672 C 0.41153 0.19887 0.65538 0.0
C1673 C 0.40441 0.17459 0.65727 0.0
C1674 C 0.43681 0.21648 0.65334 0.0
C1675 C 0.44766 0.18464 0.65564 0.0
C1676 C 0.41423 0.14211 0.6577 0.0
C1677 C 0.38875 0.12531 0.65783 0.0
N1678 N 0.37975 0.15807 0.65805 0.0
C1679 C 0.37166 0.13365 0.65784 0.0
H1680 H 0.35201 0.12051 0.65798 0.0
C1681 C 0.39923 0.22785 0.64973 0.0
N1682 N 0.39345 0.20488 0.65418 0.0
C1683 C 0.42407 0.24611 0.648 0.0
C1684 C 0.44299 0.24049 0.65003 0.0
H1685 H 0.38464 0.23223 0.64804 0.0
H1686 H 0.46173 0.17924 0.65547 0.0
H1687 H 0.34212 0.19992 0.72205 0.0
H1688 H 0.42743 0.13561 0.65764 0.0
H1689 H 0.38224 0.10592 0.65798 0.0
H1690 H 0.47444 0.22259 0.65243 0.0
H1691 H 0.26676 0.12885 0.67098 0.0
H1692 H 0.29853 0.23426 0.72981 0.0
H1693 H 0.33459 0.22931 0.73638 0.0
H1694 H 0.22993 0.19191 0.69549 0.0
H1695 H 0.42859 0.26444 0.64498 0.0
H1696 H 0.46221 0.25458 0.64845 0.0
H1697 H 0.2595 0.22019 0.71446 0.0
H1698 H 0.22731 0.12743 0.66529 0.0
N1699 N 0.31217 0.19026 0.70667 0.0
C1700 C 0.30205 0.22171 0.72334 0.0
C1701 C 0.32245 0.21902 0.72706 0.0
C1702 C 0.28574 0.20725 0.71181 0.0
C1703 C 0.29114 0.19113 0.70376 0.0
C1704 C 0.32684 0.20262 0.71883 0.0
N1705 N 0.27957 0.15888 0.68631 0.0
C1706 C 0.27425 0.17485 0.69335 0.0
C1707 C 0.24036 0.14091 0.67318 0.0
C1708 C 0.23491 0.15762 0.68001 0.0
C1709 C 0.26284 0.14175 0.67649 0.0
C1710 C 0.25183 0.17474 0.69034 0.0
H1711 H 0.21755 0.15702 0.67734 0.0
O1712 O 0.28679 0.13191 0.70552 0.0
O1713 O 0.34469 0.15493 0.67998 0.0
O1714 O 0.32043 0.13389 0.65687 0.0
O1715 O 0.30155 0.1251 0.68067 0.0
O1716 O 0.35403 0.16775 0.70221 0.0
O1717 O 0.32386 0.14996 0.71499 0.0
O1718 O 0.34637 0.18581 0.63573 0.0
O1719 O 0.31825 0.17035 0.66866 0.0
O1720 O 0.34654 0.20128 0.6923 0.0
O1721 O 0.37548 0.20327 0.67445 0.0
O1722 O 0.3399 0.20112 0.65567 0.0
O1723 O 0.34674 0.15199 0.63705 0.0
C1724 C 0.36096 0.16081 0.69035 0.0
C1725 C 0.24693 0.19156 0.69777 0.0
C1726 C 0.26383 0.20775 0.70852 0.0
C1727 C 0.3004 0.13523 0.71755 0.0
C1728 C 0.29112 0.13841 0.73238 0.0
C1729 C 0.26792 0.13714 0.73363 0.0
C1730 C 0.30592 0.14313 0.74549 0.0
C1731 C 0.29771 0.14634 0.75978 0.0
C1732 C 0.25962 0.14028 0.74769 0.0
C1733 C 0.27425 0.14472 0.76066 0.0
C1734 C 0.3041 0.11873 0.66678 0.0
C1735 C 0.3203 0.19021 0.66391 0.0
C1736 C 0.34604 0.16797 0.62816 0.0
C1737 C 0.36198 0.17481 0.61467 0.0
C1738 C 0.38744 0.18266 0.61605 0.0
C1739 C 0.35178 0.17374 0.60026 0.0
C1740 C 0.36709 0.18103 0.58736 0.0
C1741 C 0.40268 0.18993 0.6033 0.0
C1742 C 0.39264 0.18928 0.58903 0.0
C1743 C 0.36889 0.21232 0.68597 0.0
H1744 H 0.25618 0.13375 0.72377 0.0
H1745 H 0.32405 0.14465 0.74445 0.0
H1746 H 0.24165 0.13913 0.74856 0.0
H1747 H 0.26693 0.14651 0.77142 0.0
H1748 H 0.39554 0.18312 0.62693 0.0
H1749 H 0.3321 0.16761 0.59912 0.0
H1750 H 0.42232 0.19605 0.60448 0.0
H1751 H 0.40475 0.19488 0.57925 0.0
Gd1752 Gd 0.82635 0.1717 0.6542 0.0
Gd1753 Gd 0.84413 0.16551 0.69259 0.0
C1754 C 0.92159 0.17447 0.69678 0.0
C1755 C 0.91201 0.13386 0.70452 0.0
C1756 C 0.87864 0.14294 0.70052 0.0
C1757 C 0.89591 0.16672 0.69651 0.0
C1758 C 0.88661 0.12656 0.70506 0.0
C1759 C 0.92945 0.15776 0.70039 0.0
C1760 C 0.93869 0.19901 0.69398 0.0
C1761 C 0.93014 0.21539 0.69169 0.0
N1762 N 0.8878 0.18267 0.69338 0.0
C1763 C 0.90455 0.20696 0.69164 0.0
H1764 H 0.89861 0.22006 0.6898 0.0
C1765 C 0.83718 0.11482 0.7076 0.0
N1766 N 0.8542 0.13637 0.70108 0.0
C1767 C 0.84418 0.09795 0.71217 0.0
C1768 C 0.86893 0.10365 0.71062 0.0
H1769 H 0.81802 0.11039 0.70878 0.0
H1770 H 0.94907 0.16337 0.70051 0.0
H1771 H 0.77902 0.11403 0.64541 0.0
H1772 H 0.95853 0.20563 0.69401 0.0
H1773 H 0.94325 0.23454 0.68988 0.0
H1774 H 0.91845 0.12142 0.70777 0.0
H1775 H 0.83854 0.23013 0.64741 0.0
H1776 H 0.71009 0.11042 0.65519 0.0
H1777 H 0.73387 0.09005 0.64818 0.0
H1778 H 0.73287 0.19427 0.66065 0.0
H1779 H 0.83052 0.08059 0.71687 0.0
H1780 H 0.87433 0.09058 0.71422 0.0
H1781 H 0.70995 0.1494 0.65994 0.0
H1782 H 0.81761 0.25397 0.6505 0.0
N1783 N 0.7821 0.14753 0.65281 0.0
C1784 C 0.7302 0.12102 0.65438 0.0
C1785 C 0.74355 0.10947 0.65051 0.0
C1786 C 0.74286 0.14634 0.65629 0.0
C1787 C 0.76912 0.1593 0.65523 0.0
C1788 C 0.76948 0.12314 0.64939 0.0
N1789 N 0.80709 0.19627 0.65413 0.0
C1790 C 0.78203 0.18445 0.65594 0.0
C1791 C 0.80744 0.23448 0.65243 0.0
C1792 C 0.78223 0.22281 0.65603 0.0
C1793 C 0.81941 0.2208 0.65107 0.0
C1794 C 0.769 0.19741 0.65732 0.0
H1795 H 0.77293 0.23341 0.65697 0.0
O1796 O 0.84517 0.19592 0.63527 0.0
O1797 O 0.85864 0.17933 0.66943 0.0
O1798 O 0.85522 0.20493 0.68973 0.0
O1799 O 0.8517 0.2098 0.66382 0.0
O1800 O 0.85599 0.16206 0.64911 0.0
O1801 O 0.81819 0.15802 0.63107 0.0
O1802 O 0.82541 0.17648 0.70912 0.0
O1803 O 0.81462 0.16575 0.67837 0.0
O1804 O 0.81759 0.13237 0.6569 0.0
O1805 O 0.83518 0.13091 0.68008 0.0
O1806 O 0.80409 0.13552 0.69178 0.0
O1807 O 0.85291 0.16804 0.7168 0.0
C1808 C 0.8695 0.17123 0.66105 0.0
C1809 C 0.74308 0.1846 0.65928 0.0
C1810 C 0.73003 0.15908 0.65883 0.0
C1811 C 0.83333 0.17906 0.62506 0.0
C1812 C 0.82413 0.18585 0.6116 0.0
C1813 C 0.80574 0.19246 0.61286 0.0
C1814 C 0.83379 0.18546 0.59723 0.0
C1815 C 0.82555 0.19224 0.58421 0.0
C1816 C 0.79749 0.19919 0.6 0.0
C1817 C 0.80739 0.19923 0.58578 0.0
C1818 C 0.85752 0.21852 0.67784 0.0
C1819 C 0.79591 0.14677 0.68344 0.0
C1820 C 0.83551 0.17255 0.72084 0.0
C1821 C 0.8183 0.15678 0.7328 0.0
C1822 C 0.79642 0.13513 0.72884 0.0
C1823 C 0.82373 0.16292 0.74827 0.0
C1824 C 0.80763 0.14717 0.75954 0.0
C1825 C 0.78053 0.11965 0.73993 0.0
C1826 C 0.78606 0.12555 0.75516 0.0
C1827 C 0.82414 0.12113 0.66703 0.0
H1828 H 0.7977 0.19236 0.62373 0.0
H1829 H 0.84794 0.18023 0.59622 0.0
H1830 H 0.78333 0.20434 0.60105 0.0
H1831 H 0.80058 0.20438 0.57596 0.0
H1832 H 0.7914 0.12995 0.71722 0.0
H1833 H 0.8405 0.17956 0.75152 0.0
H1834 H 0.76387 0.10295 0.7367 0.0
H1835 H 0.7733 0.11326 0.76358 0.0
H1836 H 0.33211 0.9086 0.05933 0.0
H1837 H 0.33685 0.84325 0.05164 0.0
H1838 H 0.37454 0.86698 0.03614 0.0
H1839 H 0.35413 0.9351 0.02136 0.0
H1840 H 0.37113 0.96585 0.02866 0.0
H1841 H 0.34343 0.94334 0.03815 0.0
H1842 H 0.36837 0.9518 0.06324 0.0
H1843 H 0.39601 0.97436 0.05383 0.0
H1844 H 0.39615 0.94939 0.06353 0.0
H1845 H 0.41443 0.89877 0.0241 0.0
H1846 H 0.45249 0.93579 0.01602 0.0
H1847 H 0.42053 0.98011 0.02973 0.0
C1848 C 0.341 0.89927 0.05429 0.0
C1849 C 0.33153 0.87406 0.05668 0.0
C1850 C 0.34363 0.86248 0.04983 0.0
C1851 C 0.36505 0.87582 0.04102 0.0
C1852 C 0.37399 0.90067 0.03895 0.0
C1853 C 0.36222 0.91225 0.04528 0.0
C1854 C 0.37615 0.93931 0.04179 0.0
C1855 C 0.36026 0.9463 0.0319 0.0
C1856 C 0.38468 0.95461 0.05647 0.0
C1857 C 0.39805 0.94129 0.03299 0.0
C1858 C 0.39639 0.91878 0.03139 0.0
C1859 C 0.41556 0.91638 0.02491 0.0
C1860 C 0.43711 0.93756 0.02019 0.0
C1861 C 0.43914 0.9608 0.02164 0.0
C1862 C 0.41916 0.96251 0.02799 0.0
H1863 H 0.11692 0.44412 0.05081 0.0
H1864 H 0.17715 0.51874 0.04645 0.0
H1865 H 0.14776 0.53049 0.03557 0.0
H1866 H 0.08586 0.44336 0.01524 0.0
H1867 H 0.05511 0.42423 0.02277 0.0
H1868 H 0.08097 0.42174 0.02997 0.0
H1869 H 0.07105 0.42968 0.05724 0.0
H1870 H 0.0452 0.43221 0.05012 0.0
H1871 H 0.06925 0.45678 0.06112 0.0
H1872 H 0.11091 0.53459 0.02727 0.0
H1873 H 0.07035 0.53005 0.02003 0.0
H1874 H 0.0347 0.45213 0.02771 0.0
C1875 C 0.12385 0.46291 0.04752 0.0
C1876 C 0.14921 0.48061 0.04952 0.0
C1877 C 0.15777 0.50496 0.04495 0.0
C1878 C 0.14122 0.51177 0.03881 0.0
C1879 C 0.11627 0.49391 0.03705 0.0
C1880 C 0.10769 0.4699 0.04107 0.0
C1881 C 0.08006 0.45419 0.03784 0.0
C1882 C 0.07522 0.43473 0.02574 0.0
C1883 C 0.06554 0.44253 0.05245 0.0
C1884 C 0.07428 0.47321 0.03178 0.0
C1885 C 0.0954 0.49602 0.03145 0.0
C1886 C 0.09439 0.5167 0.02714 0.0
C1887 C 0.07126 0.51393 0.02293 0.0
C1888 C 0.04956 0.49059 0.02267 0.0
C1889 C 0.05114 0.47008 0.02735 0.0
H1890 H 0.55426 0.68018 0.03874 0.0
H1891 H 0.53678 0.65622 0.08544 0.0
H1892 H 0.5251 0.61445 0.07755 0.0
H1893 H 0.5028 0.62567 0.022 0.0
H1894 H 0.52054 0.62597 1.00577 0.0
H1895 H 0.5279 0.65418 0.01512 0.0
H1896 H 0.5735 0.66391 0.01871 0.0
H1897 H 0.56608 0.63562 0.00946 0.0
H1898 H 0.5795 0.64216 0.02821 0.0
H1899 H 0.5155 0.57544 0.06487 0.0
H1900 H 0.50838 0.54136 0.04797 0.0
H1901 H 0.53051 0.58958 0.00928 0.0
C1902 C 0.54778 0.66615 0.04732 0.0
C1903 C 0.54668 0.6717 0.06278 0.0
C1904 C 0.53837 0.65271 0.0736 0.0
C1905 C 0.53144 0.62882 0.06921 0.0
C1906 C 0.5327 0.62404 0.05392 0.0
C1907 C 0.54058 0.6421 0.04311 0.0
C1908 C 0.5401 0.63193 0.02741 0.0
C1909 C 0.52173 0.6346 0.01696 0.0
C1910 C 0.56636 0.64413 0.02055 0.0
C1911 C 0.53084 0.60536 0.03112 0.0
C1912 C 0.52674 0.60129 0.04651 0.0
C1913 C 0.51865 0.57841 0.05281 0.0
C1914 C 0.51482 0.55921 0.04316 0.0
C1915 C 0.51901 0.56293 0.02742 0.0
C1916 C 0.52689 0.58624 0.02127 0.0
H1917 H 0.85408 0.33621 0.97074 0.0
H1918 H 0.90199 0.31545 0.94693 0.0
H1919 H 0.93885 0.35361 0.95537 0.0
H1920 H 0.88942 0.40017 0.96278 0.0
H1921 H 0.88436 0.40959 0.9811 0.0
H1922 H 0.86157 0.38054 0.97326 0.0
H1923 H 0.86473 0.35835 0.99723 0.0
H1924 H 0.88683 0.38764 1.00503 0.0
H1925 H 0.89493 0.36402 1.00341 0.0
H1926 H 0.97051 0.39445 0.9658 0.0
H1927 H 0.99488 0.4348 0.97806 0.0
H1928 H 0.92664 0.42851 0.99588 0.0
C1929 C 0.87233 0.33956 0.96742 0.0
C1930 C 0.87507 0.32284 0.95806 0.0
C1931 C 0.89932 0.32813 0.95385 0.0
C1932 C 0.92042 0.3497 0.95868 0.0
C1933 C 0.91704 0.36582 0.96779 0.0
C1934 C 0.89364 0.36101 0.97217 0.0
C1935 C 0.89522 0.38153 0.98194 0.0
C1936 C 0.88185 0.39367 0.97431 0.0
C1937 C 0.88482 0.37231 0.99785 0.0
C1938 C 0.92316 0.39856 0.98236 0.0
C1939 C 0.93538 0.38919 0.97407 0.0
C1940 C 0.96117 0.40191 0.97241 0.0
C1941 C 0.97485 0.42486 0.9794 0.0
C1942 C 0.96275 0.4348 0.98803 0.0
C1943 C 0.93653 0.42133 0.98953 0.0
H1944 H 0.65342 0.50169 0.96508 0.0
H1945 H 0.69222 0.58074 0.9655 0.0
H1946 H 0.65637 0.57991 0.97845 0.0
H1947 H 0.59449 0.49404 0.95581 0.0
H1948 H 0.57705 0.46711 0.96716 0.0
H1949 H 0.60684 0.47412 0.95965 0.0
H1950 H 0.62167 0.47232 0.98673 0.0
H1951 H 0.59231 0.46628 0.99461 0.0
H1952 H 0.62096 0.49199 1.0013 0.0
H1953 H 0.61561 0.57047 0.99026 0.0
H1954 H 0.5712 0.55321 0.99712 0.0
H1955 H 0.55797 0.48044 0.98761 0.0
C1956 C 0.65439 0.51876 0.96812 0.0
C1957 C 0.67555 0.54131 0.96448 0.0
C1958 C 0.67612 0.56334 0.96828 0.0
C1959 C 0.65596 0.56301 0.97571 0.0
C1960 C 0.63528 0.54048 0.97914 0.0
C1961 C 0.63421 0.51874 0.97529 0.0
C1962 C 0.6089 0.49708 0.97892 0.0
C1963 C 0.59606 0.48223 0.96453 0.0
C1964 C 0.61109 0.48095 0.99112 0.0
C1965 C 0.59571 0.51004 0.98502 0.0
C1966 C 0.61145 0.53505 0.98544 0.0
C1967 C 0.60321 0.55091 0.99015 0.0
C1968 C 0.57807 0.541 0.99411 0.0
C1969 C 0.56156 0.51555 0.99323 0.0
C1970 C 0.57052 0.49992 0.98873 0.0
H1971 H 0.42572 0.09082 0.9493 0.0
H1972 H 0.48063 0.16198 0.96696 0.0
H1973 H 0.49851 0.14264 0.98277 0.0
H1974 H 0.41659 0.0568 0.98348 0.0
H1975 H 0.4144 0.03045 0.97406 0.0
H1976 H 0.40515 0.04963 0.96428 0.0
H1977 H 0.43583 0.0559 0.94255 0.0
H1978 H 0.44505 0.03662 0.95224 0.0
H1979 H 0.46819 0.06715 0.94693 0.0
H1980 H 0.51046 0.11592 0.99695 0.0
H1981 H 0.51727 0.08358 0.00732 0.0
H1982 H 0.4561 0.02977 0.97978 0.0
C1983 C 0.4416 0.10238 0.9564 0.0
C1984 C 0.45137 0.12796 0.95703 0.0
C1985 C 0.4722 0.14231 0.96655 0.0
C1986 C 0.48269 0.13152 0.97553 0.0
C1987 C 0.47241 0.10632 0.97479 0.0
C1988 C 0.45251 0.09192 0.96537 0.0
C1989 C 0.44551 0.0653 0.96648 0.0
C1990 C 0.41883 0.04963 0.97243 0.0
C1991 C 0.44885 0.05568 0.95114 0.0
C1992 C 0.46456 0.06708 0.978 0.0
C1993 C 0.47977 0.09091 0.98271 0.0
C1994 C 0.49868 0.09717 0.99335 0.0
C1995 C 0.50231 0.07862 0.99924 0.0
C1996 C 0.48719 0.05407 0.99443 0.0
C1997 C 0.46802 0.04833 0.98369 0.0
H1998 H 0.67565 0.09522 0.96204 0.0
H1999 H 0.66909 0.15949 0.97008 0.0
H2000 H 0.63032 0.13447 0.98444 0.0
H2001 H 0.61288 0.05437 0.95551 0.0
H2002 H 0.61224 0.02886 0.96499 0.0
H2003 H 0.64077 0.05225 0.95684 0.0
H2004 H 0.66298 0.0593 0.98285 0.0
H2005 H 0.63442 0.03583 0.99106 0.0
H2006 H 0.65014 0.06603 0.99927 0.0
H2007 H 0.58942 0.10146 0.99484 0.0
H2008 H 0.55097 0.0636 1.00145 0.0
H2009 H 0.5851 0.02104 0.98814 0.0
C2010 C 0.6662 0.10407 0.96699 0.0
C2011 C 0.67539 0.12932 0.96496 0.0
C2012 C 0.66255 0.14025 0.97165 0.0
C2013 C 0.64048 0.12616 0.97979 0.0
C2014 C 0.6317 0.10124 0.98137 0.0
C2015 C 0.64434 0.09034 0.97532 0.0
C2016 C 0.63038 0.06304 0.97802 0.0
C2017 C 0.62367 0.0488 0.96294 0.0
C2018 C 0.64538 0.05562 0.98842 0.0
C2019 C 0.60742 0.06011 0.98597 0.0
C2020 C 0.60861 0.08238 0.98791 0.0
C2021 C 0.58862 0.08402 0.99376 0.0
C2022 C 0.56683 0.06237 0.9976 0.0
C2023 C 0.56534 0.0394 0.99588 0.0
C2024 C 0.58601 0.0384 0.99004 0.0
H2025 H 0.90147 0.57008 0.9552 0.0
H2026 H 0.83923 0.49616 0.95782 0.0
H2027 H 0.86575 0.48351 0.9716 0.0
H2028 H 0.9488 0.55541 0.94908 0.0
H2029 H 0.97171 0.57982 0.96072 0.0
H2030 H 0.94751 0.58306 0.95165 0.0
H2031 H 0.93438 0.59198 0.97773 0.0
H2032 H 0.95858 0.58872 0.98685 0.0
H2033 H 0.92676 0.57045 0.99293 0.0
H2034 H 0.90045 0.47831 0.98303 0.0
H2035 H 0.93971 0.4816 0.99223 0.0
H2036 H 0.97828 0.55947 0.98395 0.0
C2037 C 0.89345 0.55125 0.95872 0.0
C2038 C 0.86836 0.53404 0.9554 0.0
C2039 C 0.85841 0.50963 0.96031 0.0
C2040 C 0.87332 0.50229 0.96813 0.0
C2041 C 0.89805 0.51969 0.97118 0.0
C2042 C 0.90795 0.54374 0.96677 0.0
C2043 C 0.93509 0.55882 0.97133 0.0
C2044 C 0.95175 0.56992 0.95736 0.0
C2045 C 0.93892 0.57867 0.9829 0.0
C2046 C 0.93914 0.5394 0.97858 0.0
C2047 C 0.91757 0.51693 0.97842 0.0
C2048 C 0.91728 0.49593 0.98354 0.0
C2049 C 0.93964 0.49799 0.98887 0.0
C2050 C 0.96181 0.52094 0.98936 0.0
C2051 C 0.96142 0.54182 0.98413 0.0
H2052 H 0.4245 0.32485 0.95071 0.0
H2053 H 0.48857 0.31875 0.96409 0.0
H2054 H 0.50736 0.35919 0.97628 0.0
H2055 H 0.45979 0.39165 0.94339 0.0
H2056 H 0.43558 0.39655 0.95087 0.0
H2057 H 0.4277 0.36776 0.94209 0.0
H2058 H 0.40439 0.34519 0.96641 0.0
H2059 H 0.41241 0.3739 0.9753 0.0
H2060 H 0.42068 0.35339 0.98432 0.0
H2061 H 0.51773 0.39787 0.98885 0.0
H2062 H 0.52097 0.43516 0.99969 0.0
H2063 H 0.45104 0.41819 0.97812 0.0
C2064 C 0.4427 0.33234 0.95594 0.0
C2065 C 0.45505 0.31863 0.95656 0.0
C2066 C 0.47871 0.32886 0.96365 0.0
C2067 C 0.48957 0.35183 0.97056 0.0
C2068 C 0.47667 0.36457 0.97021 0.0
C2069 C 0.45392 0.35547 0.96296 0.0
C2070 C 0.44388 0.37291 0.96481 0.0
C2071 C 0.44161 0.3828 0.94937 0.0
C2072 C 0.41886 0.36061 0.97321 0.0
C2073 C 0.46433 0.39285 0.97444 0.0
C2074 C 0.48299 0.38752 0.97739 0.0
C2075 C 0.50337 0.4024 0.98652 0.0
C2076 C 0.50491 0.42346 0.99275 0.0
C2077 C 0.4862 0.42959 0.98983 0.0
C2078 C 0.4657 0.4141 0.98047 0.0
H2079 H 0.15361 0.67126 0.04736 0.0
H2080 H 0.10362 0.68927 0.07126 0.0
H2081 H 0.06763 0.6522 0.06088 0.0
H2082 H 0.11577 0.64803 0.01323 0.0
H2083 H 0.12332 0.62423 0.01037 0.0
H2084 H 0.14527 0.65223 0.01971 0.0
H2085 H 0.14641 0.62738 0.04273 0.0
H2086 H 0.12436 0.59943 0.03339 0.0
H2087 H 0.11772 0.60645 0.05202 0.0
H2088 H 0.03703 0.61308 0.04832 0.0
H2089 H 0.01368 0.57417 0.03445 0.0
H2090 H 0.08317 0.58196 0.01776 0.0
C2091 C 0.13511 0.66756 0.05033 0.0
C2092 C 0.13157 0.68323 0.06026 0.0
C2093 C 0.10696 0.67742 0.06396 0.0
C2094 C 0.08634 0.65648 0.058 0.0
C2095 C 0.09052 0.64154 0.04825 0.0
C2096 C 0.11426 0.64678 0.0444 0.0
C2097 C 0.11351 0.62752 0.03373 0.0
C2098 C 0.12516 0.63868 0.01835 0.0
C2099 C 0.12625 0.61442 0.0409 0.0
C2100 C 0.08563 0.6106 0.03228 0.0
C2101 C 0.07276 0.61907 0.04075 0.0
C2102 C 0.04689 0.60631 0.04158 0.0
C2103 C 0.03379 0.58418 0.03365 0.0
C2104 C 0.04653 0.575 0.02494 0.0
C2105 C 0.07283 0.58859 0.02416 0.0
H2106 H 0.34545 0.4834 0.05428 0.0
H2107 H 0.30975 0.40451 0.05342 0.0
H2108 H 0.34425 0.4072 0.03785 0.0
H2109 H 0.37287 0.49499 0.0163 0.0
H2110 H 0.40172 0.52136 0.02214 0.0
H2111 H 0.37315 0.51376 0.03178 0.0
H2112 H 0.39212 0.51222 0.05756 0.0
H2113 H 0.42109 0.52079 0.04824 0.0
H2114 H 0.40629 0.49345 0.0595 0.0
H2115 H 0.38413 0.41855 0.02403 0.0
H2116 H 0.4282 0.43753 0.01612 0.0
H2117 H 0.43875 0.50895 0.02667 0.0
C2118 C 0.34479 0.46673 0.05059 0.0
C2119 C 0.32488 0.44372 0.05489 0.0
C2120 C 0.32485 0.42228 0.05019 0.0
C2121 C 0.34424 0.42366 0.04124 0.0
C2122 C 0.36366 0.44663 0.03717 0.0
C2123 C 0.36425 0.46781 0.04189 0.0
C2124 C 0.3885 0.49019 0.03742 0.0
C2125 C 0.38378 0.50602 0.02624 0.0
C2126 C 0.40285 0.50502 0.05152 0.0
C2127 C 0.40173 0.47834 0.02978 0.0
C2128 C 0.38685 0.4532 0.02942 0.0
C2129 C 0.39573 0.43822 0.02396 0.0
C2130 C 0.42069 0.44913 0.01934 0.0
C2131 C 0.43644 0.47472 0.02017 0.0
C2132 C 0.42669 0.48944 0.02525 0.0
H2133 H 0.5729 0.90092 0.06618 0.0
H2134 H 0.51261 0.83113 0.05014 0.0
H2135 H 0.49642 0.85253 0.0348 0.0
H2136 H 0.53504 0.92939 0.06996 0.0
H2137 H 0.55942 0.95902 0.06407 0.0
H2138 H 0.56718 0.93837 0.07336 0.0
H2139 H 0.59522 0.94159 0.05072 0.0
H2140 H 0.58746 0.96219 0.04134 0.0
H2141 H 0.5822 0.9347 0.03186 0.0
H2142 H 0.4865 0.881 0.02119 0.0
H2143 H 0.48219 0.91488 0.01112 0.0
H2144 H 0.54744 0.96656 0.0368 0.0
C2145 C 0.55619 0.89006 0.05954 0.0
C2146 C 0.54433 0.86423 0.05927 0.0
C2147 C 0.52256 0.85089 0.05029 0.0
C2148 C 0.51304 0.86288 0.0416 0.0
C2149 C 0.52525 0.88825 0.04209 0.0
C2150 C 0.5462 0.90173 0.05092 0.0
C2151 C 0.55525 0.92884 0.04972 0.0
C2152 C 0.55415 0.93953 0.0652 0.0
C2153 C 0.58159 0.94264 0.04301 0.0
C2154 C 0.53611 0.92841 0.03881 0.0
C2155 C 0.51909 0.90478 0.03451 0.0
C2156 C 0.49971 0.89959 0.02447 0.0
C2157 C 0.49752 0.91904 0.01874 0.0
C2158 C 0.51458 0.94346 0.02307 0.0
C2159 C 0.53412 0.94812 0.03326 0.0
H2160 H 0.00314 0.24685 0.38827 0.0
H2161 H 0.00703 0.18065 0.38242 0.0
H2162 H 0.04513 0.20337 0.36719 0.0
H2163 H 0.02729 0.27244 0.35032 0.0
H2164 H 0.04449 0.30327 0.35747 0.0
H2165 H 0.01611 0.28132 0.36662 0.0
H2166 H 0.03975 0.28977 0.39223 0.0
H2167 H 0.06808 0.31173 0.38314 0.0
H2168 H 0.06707 0.28662 0.39336 0.0
H2169 H 0.08521 0.23403 0.35513 0.0
H2170 H 0.12395 0.27028 0.34706 0.0
H2171 H 0.0937 0.31654 0.35966 0.0
C2172 C 0.01191 0.2371 0.38369 0.0
C2173 C 1.002 0.21192 0.38649 0.0
C2174 C 0.01402 0.19983 0.38025 0.0
C2175 C 0.03571 0.21259 0.37159 0.0
C2176 C 0.04507 0.23741 0.36914 0.0
C2177 C 0.0335 0.24953 0.37493 0.0
C2178 C 0.04812 0.27653 0.37129 0.0
C2179 C 0.0331 0.28381 0.3608 0.0
C2180 C 0.05624 0.29207 0.38587 0.0
C2181 C 0.07018 0.27783 0.36306 0.0
C2182 C 0.06793 0.25502 0.36179 0.0
C2183 C 0.08688 0.25189 0.35571 0.0
C2184 C 0.10882 0.27263 0.35102 0.0
C2185 C 0.1115 0.29616 0.35216 0.0
C2186 C 0.09181 0.29867 0.35819 0.0
H2187 H 0.77397 0.76771 0.38737 0.0
H2188 H 0.83514 0.84217 0.38413 0.0
H2189 H 0.80656 0.85496 0.37351 0.0
H2190 H 0.7439 0.7691 0.35184 0.0
H2191 H 0.71278 0.75035 0.35893 0.0
H2192 H 0.73789 0.74671 0.36626 0.0
H2193 H 0.72756 0.75402 0.39354 0.0
H2194 H 0.7024 0.75762 0.38632 0.0
H2195 H 0.72647 0.7814 0.39776 0.0
H2196 H 0.77136 0.86034 0.36505 0.0
H2197 H 0.73217 0.85762 0.35713 0.0
H2198 H 0.69327 0.77929 0.36373 0.0
C2199 C 0.78124 0.78668 0.38441 0.0
C2200 C 0.80676 0.80402 0.38659 0.0
C2201 C 0.81571 0.82863 0.38247 0.0
C2202 C 0.79962 0.83606 0.37647 0.0
C2203 C 0.77462 0.8186 0.37447 0.0
C2204 C 0.76545 0.79437 0.37812 0.0
C2205 C 0.73778 0.77937 0.37452 0.0
C2206 C 0.7328 0.76024 0.36215 0.0
C2207 C 0.72266 0.7674 0.38889 0.0
C2208 C 0.73278 0.79908 0.36865 0.0
C2209 C 0.75436 0.82154 0.36878 0.0
C2210 C 0.75446 0.84277 0.3646 0.0
C2211 C 0.73201 0.84099 0.35996 0.0
C2212 C 0.70976 0.81813 0.35911 0.0
C2213 C 0.71013 0.79693 0.36381 0.0
H2214 H 0.21587 0.99334 0.40568 0.0
H2215 H 0.25179 0.03974 0.36698 0.0
H2216 H 0.24648 0.0041 0.35241 0.0
H2217 H 0.24099 0.95096 0.39924 0.0
H2218 H 0.21235 0.92469 0.40516 0.0
H2219 H 0.22176 0.95429 0.41326 0.0
H2220 H 0.17953 0.94997 0.40518 0.0
H2221 H 0.17012 0.92054 0.39692 0.0
H2222 H 0.17012 0.94417 0.38555 0.0
H2223 H 0.2326 0.96349 0.34098 0.0
H2224 H 0.21351 0.91992 0.33392 0.0
H2225 H 0.18755 0.89924 0.37994 0.0
C2226 C 0.22327 0.99603 0.39431 0.0
C2227 C 0.23419 0.01923 0.38742 0.0
C2228 C 0.2432 0.02205 0.3724 0.0
C2229 C 0.24037 0.00196 0.36406 0.0
C2230 C 0.22872 0.97918 0.37095 0.0
C2231 C 0.22061 0.97608 0.38579 0.0
C2232 C 0.20726 0.94929 0.39009 0.0
C2233 C 0.22144 0.94453 0.40268 0.0
C2234 C 0.18016 0.94049 0.3947 0.0
C2235 C 0.20848 0.93788 0.37521 0.0
C2236 C 0.22103 0.95552 0.36435 0.0
C2237 C 0.22306 0.94951 0.34942 0.0
C2238 C 0.21196 0.9248 0.34547 0.0
C2239 C 0.19911 0.90651 0.35639 0.0
C2240 C 0.19761 0.91307 0.37148 0.0
H2241 H 0.56597 0.66632 0.29069 0.0
H2242 H 0.49667 0.66478 0.30061 0.0
H2243 H 0.52018 0.70704 0.31021 0.0
H2244 H 0.59844 0.69978 0.32369 0.0
H2245 H 0.6281 0.71745 0.3145 0.0
H2246 H 0.60603 0.68758 0.30736 0.0
H2247 H 0.60774 0.70595 0.2809 0.0
H2248 H 0.6298 0.73591 0.28799 0.0
H2249 H 0.6013 0.73067 0.27914 0.0
H2250 H 0.55024 0.74812 0.31958 0.0
H2251 H 0.58559 0.78601 0.32927 0.0
H2252 H 0.6366 0.7621 0.31394 0.0
C2253 C 0.55585 0.67506 0.29473 0.0
C2254 C 0.5295 0.6623 0.29497 0.0
C2255 C 0.51682 0.67415 0.30049 0.0
C2256 C 0.53001 0.6982 0.30586 0.0
C2257 C 0.5559 0.71019 0.30564 0.0
C2258 C 0.56879 0.69913 0.30027 0.0
C2259 C 0.5967 0.71594 0.3021 0.0
C2260 C 0.60797 0.7045 0.31254 0.0
C2261 C 0.60965 0.7225 0.28661 0.0
C2262 C 0.59737 0.73797 0.30952 0.0
C2263 C 0.57355 0.7342 0.31128 0.0
C2264 C 0.569 0.75135 0.31822 0.0
C2265 C 0.58927 0.77281 0.32375 0.0
C2266 C 0.61391 0.777 0.32244 0.0
C2267 C 0.61803 0.7595 0.31498 0.0
H2268 H 0.34071 0.89632 0.29572 0.0
H2269 H 0.32655 0.82241 0.30147 0.0
H2270 H 0.28525 0.81033 0.31233 0.0
H2271 H 0.31141 0.8981 0.331 0.0
H2272 H 0.29895 0.91619 0.32335 0.0
H2273 H 0.32725 0.91906 0.31575 0.0
H2274 H 0.30768 0.90914 0.28883 0.0
H2275 H 0.2794 0.90638 0.29635 0.0
H2276 H 0.27841 0.88148 0.28575 0.0
H2277 H 0.24476 0.80582 0.32147 0.0
H2278 H 0.20884 0.80974 0.32945 0.0
H2279 H 0.24997 0.88713 0.31963 0.0
C2280 C 0.32878 0.87758 0.29919 0.0
C2281 C 0.33669 0.86021 0.29768 0.0
C2282 C 0.32079 0.83595 0.30254 0.0
C2283 C 0.29733 0.82893 0.30871 0.0
C2284 C 0.29012 0.84648 0.31014 0.0
C2285 C 0.30542 0.87036 0.30564 0.0
C2286 C 0.29334 0.88571 0.3088 0.0
C2287 C 0.30866 0.90597 0.32041 0.0
C2288 C 0.28948 0.8963 0.29405 0.0
C2289 C 0.26871 0.86664 0.31546 0.0
C2290 C 0.26723 0.84413 0.31612 0.0
C2291 C 0.2459 0.82347 0.32126 0.0
C2292 C 0.22561 0.8259 0.32592 0.0
C2293 C 0.22693 0.84891 0.32577 0.0
C2294 C 0.24871 0.86944 0.32028 0.0
H2295 H 0.09996 0.42966 0.28251 0.0
H2296 H 0.1584 0.50002 0.29907 0.0
H2297 H 0.17592 0.47945 0.31409 0.0
H2298 H 0.09164 0.39583 0.31655 0.0
H2299 H 0.08733 0.36875 0.30697 0.0
H2300 H 0.07877 0.38882 0.29766 0.0
H2301 H 0.10733 0.39326 0.27504 0.0
H2302 H 0.11583 0.37308 0.28424 0.0
H2303 H 0.13966 0.40307 0.2785 0.0
H2304 H 0.18696 0.45151 0.32765 0.0
H2305 H 0.19245 0.41803 0.33742 0.0
H2306 H 0.12814 0.36587 0.31124 0.0
C2307 C 0.11657 0.44079 0.28917 0.0
C2308 C 0.1275 0.4665 0.28975 0.0
C2309 C 0.1492 0.48028 0.29872 0.0
C2310 C 0.15944 0.46879 0.30724 0.0
C2311 C 0.148 0.44347 0.30658 0.0
C2312 C 0.12722 0.42962 0.29766 0.0
C2313 C 0.11896 0.40271 0.29873 0.0
C2314 C 0.09261 0.38818 0.30537 0.0
C2315 C 0.12055 0.39243 0.2832 0.0
C2316 C 0.13833 0.40367 0.30964 0.0
C2317 C 0.15479 0.42735 0.31411 0.0
C2318 C 0.17421 0.43287 0.32422 0.0
C2319 C 0.1771 0.41369 0.32977 0.0
C2320 C 0.16071 0.38928 0.32514 0.0
C2321 C 0.14102 0.38431 0.31499 0.0
H2322 H 0.34568 0.42484 0.28809 0.0
H2323 H 0.34134 0.48995 0.29778 0.0
H2324 H 0.30207 0.4651 0.31157 0.0
H2325 H 0.28143 0.38535 0.28124 0.0
H2326 H 0.28012 0.35911 0.29012 0.0
H2327 H 0.30878 0.38221 0.28189 0.0
H2328 H 0.33143 0.38758 0.30758 0.0
H2329 H 0.30274 0.3645 0.31586 0.0
H2330 H 0.31955 0.39439 0.32442 0.0
H2331 H 0.26158 0.43296 0.32238 0.0
H2332 H 0.22297 0.39578 0.32956 0.0
H2333 H 0.25385 0.35135 0.31404 0.0
C2334 C 0.33649 0.43385 0.29316 0.0
C2335 C 0.34668 0.45939 0.29191 0.0
C2336 C 0.33411 0.47049 0.29876 0.0
C2337 C 0.31175 0.45652 0.3066 0.0
C2338 C 0.30223 0.43143 0.30763 0.0
C2339 C 0.31421 0.42017 0.30117 0.0
C2340 C 0.29952 0.39279 0.30355 0.0
C2341 C 0.29202 0.37906 0.28829 0.0
C2342 C 0.31419 0.38432 0.31344 0.0
C2343 C 0.27707 0.39037 0.31192 0.0
C2344 C 0.27911 0.41292 0.31427 0.0
C2345 C 0.26001 0.41525 0.32089 0.0
C2346 C 0.23815 0.39398 0.32506 0.0
C2347 C 0.23569 0.37068 0.32287 0.0
C2348 C 0.2555 0.36897 0.31624 0.0
H2349 H 0.53192 0.8454 0.29772 0.0
H2350 H 0.56476 0.92397 0.30019 0.0
H2351 H 0.59987 0.92692 0.31522 0.0
H2352 H 0.55247 0.83743 0.33595 0.0
H2353 H 0.55954 0.81433 0.32976 0.0
H2354 H 0.53497 0.81707 0.32066 0.0
H2355 H 0.55535 0.82216 0.2945 0.0
H2356 H 0.57952 0.81846 0.3032 0.0
H2357 H 0.58754 0.84516 0.29199 0.0
H2358 H 0.6338 0.9223 0.32646 0.0
H2359 H 0.6648 0.9103 0.3334 0.0
H2360 H 0.61035 0.83447 0.32482 0.0
C2361 C 0.54625 0.86308 0.30181 0.0
C2362 C 0.54566 0.8845 0.29804 0.0
C2363 C 0.56491 0.90743 0.30315 0.0
C2364 C 0.58483 0.90923 0.31172 0.0
C2365 C 0.58518 0.8879 0.31511 0.0
C2366 C 0.56641 0.8652 0.31038 0.0
C2367 C 0.57257 0.84546 0.31445 0.0
C2368 C 0.55377 0.8275 0.32589 0.0
C2369 C 0.57383 0.83203 0.30019 0.0
C2370 C 0.59811 0.86073 0.32167 0.0
C2371 C 0.60483 0.88514 0.32206 0.0
C2372 C 0.62852 0.9032 0.32661 0.0
C2373 C 0.646 0.89626 0.33054 0.0
C2374 C 0.63963 0.87146 0.33017 0.0
C2375 C 0.61527 0.85342 0.32589 0.0
H2376 H 0.11305 0.64793 0.31728 0.0
H2377 H 0.12571 0.66777 0.26968 0.0
H2378 H 0.13798 0.71 0.27632 0.0
H2379 H 0.08882 0.68627 0.32789 0.0
H2380 H 0.10448 0.69517 0.34598 0.0
H2381 H 0.09667 0.66608 0.33775 0.0
H2382 H 0.14289 0.67715 0.3396 0.0
H2383 H 0.15076 0.70624 0.3479 0.0
H2384 H 0.16661 0.70499 0.33112 0.0
H2385 H 0.14665 0.74913 0.28743 0.0
H2386 H 0.15438 0.78465 0.30299 0.0
H2387 H 0.13926 0.74147 0.34375 0.0
C2388 C 0.11865 0.6612 0.30828 0.0
C2389 C 0.11781 0.65426 0.29291 0.0
C2390 C 0.12531 0.67229 0.28149 0.0
C2391 C 0.1326 0.69646 0.28514 0.0
C2392 C 0.13279 0.70255 0.3003 0.0
C2393 C 0.12637 0.68564 0.31174 0.0
C2394 C 0.12844 0.69738 0.32713 0.0
C2395 C 0.10309 0.68551 0.33516 0.0
C2396 C 0.14837 0.69638 0.33702 0.0
C2397 C 0.13659 0.72335 0.32243 0.0
C2398 C 0.13886 0.72576 0.30687 0.0
C2399 C 0.14512 0.74757 0.29964 0.0
C2400 C 0.14926 0.76755 0.30854 0.0
C2401 C 0.1473 0.76565 0.32449 0.0
C2402 C 0.14111 0.74336 0.33157 0.0
H2403 H 0.81264 0.02063 0.37231 0.0
H2404 H 0.80255 0.0004 0.41989 0.0
H2405 H 0.77022 0.95881 0.41288 0.0
H2406 H 0.7495 0.98518 0.36074 0.0
H2407 H 0.75614 0.97597 0.3428 0.0
H2408 H 0.77867 0.00447 0.35138 0.0
H2409 H 0.81193 0.9911 0.35021 0.0
H2410 H 0.78947 0.96258 0.34158 0.0
H2411 H 0.80543 0.96261 0.35868 0.0
H2412 H 0.73792 0.92015 0.40114 0.0
H2413 H 0.70878 0.88563 0.3851 0.0
H2414 H 0.74118 0.92914 0.34484 0.0
C2415 C 0.80394 0.00743 0.38128 0.0
C2416 C 0.81009 0.01412 0.39672 0.0
C2417 C 0.79786 0.99615 0.40803 0.0
C2418 C 0.77958 0.97232 0.40415 0.0
C2419 C 0.77392 0.96648 0.3889 0.0
C2420 C 0.78587 0.98337 0.3776 0.0
C2421 C 0.77623 0.97211 0.36206 0.0
C2422 C 0.76443 0.98522 0.35376 0.0
C2423 C 0.79701 0.9721 0.35257 0.0
C2424 C 0.75673 0.94638 0.36645 0.0
C2425 C 0.75573 0.94366 0.38201 0.0
C2426 C 0.73863 0.92199 0.38894 0.0
C2427 C 0.72204 0.90255 0.37974 0.0
C2428 C 0.72274 0.90478 0.36377 0.0
C2429 C 0.74049 0.9269 0.35701 0.0
H2430 H 0.9996 0.76409 0.39723 0.0
H2431 H 0.0087 0.83643 0.39331 0.0
H2432 H 0.04823 0.85034 0.37953 0.0
H2433 H 0.06361 0.78238 0.40304 0.0
H2434 H 0.06248 0.75798 0.3918 0.0
H2435 H 0.03485 0.75381 0.40116 0.0
H2436 H 0.01133 0.74252 0.37541 0.0
H2437 H 0.03898 0.74677 0.366 0.0
H2438 H 0.02404 0.76343 0.35977 0.0
H2439 H 0.08842 0.85697 0.3674 0.0
H2440 H 0.12471 0.85504 0.35733 0.0
H2441 H 0.08798 0.77787 0.36765 0.0
C2442 C 0.00998 0.78288 0.39352 0.0
C2443 C 1.00111 0.79921 0.39641 0.0
C2444 C 0.01508 0.82357 0.39117 0.0
C2445 C 0.03757 0.83165 0.38335 0.0
C2446 C 0.04577 0.81508 0.38063 0.0
C2447 C 0.03229 0.79114 0.38546 0.0
C2448 C 0.04509 0.77695 0.381 0.0
C2449 C 0.05191 0.76721 0.39509 0.0
C2450 C 0.02889 0.75619 0.36989 0.0
C2451 C 0.06813 0.79673 0.37325 0.0
C2452 C 0.06823 0.81863 0.37311 0.0
C2453 C 0.08828 0.83979 0.36722 0.0
C2454 C 0.10875 0.83852 0.3614 0.0
C2455 C 0.10878 0.81614 0.36123 0.0
C2456 C 0.08817 0.79509 0.36728 0.0
H2457 H 0.2344 0.23188 0.39994 0.0
H2458 H 0.17387 0.16241 0.38382 0.0
H2459 H 0.1599 0.18408 0.36685 0.0
H2460 H 0.19861 0.26333 0.40001 0.0
H2461 H 0.2246 0.29196 0.39405 0.0
H2462 H 0.22992 0.27097 0.40498 0.0
H2463 H 0.25939 0.27128 0.38406 0.0
H2464 H 0.25395 0.29208 0.37301 0.0
H2465 H 0.24809 0.26349 0.36486 0.0
H2466 H 0.15288 0.21293 0.35129 0.0
H2467 H 0.15151 0.24732 0.33934 0.0
H2468 H 0.21594 0.29827 0.36592 0.0
C2469 C 0.21802 0.22122 0.393 0.0
C2470 C 0.20542 0.19541 0.3931 0.0
C2471 C 0.18417 0.18217 0.38371 0.0
C2472 C 0.17599 0.1943 0.37409 0.0
C2473 C 0.1891 0.21969 0.37406 0.0
C2474 C 0.20947 0.23304 0.38337 0.0
C2475 C 0.22001 0.26022 0.38122 0.0
C2476 C 0.21816 0.27232 0.39594 0.0
C2477 C 0.24695 0.27248 0.37544 0.0
C2478 C 0.20246 0.25998 0.36917 0.0
C2479 C 0.18483 0.23641 0.36518 0.0
C2480 C 0.16659 0.23148 0.35431 0.0
C2481 C 0.16609 0.25119 0.3475 0.0
C2482 C 0.18373 0.27555 0.35158 0.0
C2483 C 0.20223 0.2799 0.3625 0.0
H2484 H 0.66599 0.57906 0.72567 0.0
H2485 H 0.66933 0.51254 0.71991 0.0
H2486 H 0.70797 0.53513 0.70521 0.0
H2487 H 0.69042 0.6043 0.6881 0.0
H2488 H 0.70803 0.63525 0.695 0.0
H2489 H 0.67975 0.61368 0.70441 0.0
H2490 H 0.70383 0.62231 0.72985 0.0
H2491 H 0.73206 0.64397 0.7205 0.0
H2492 H 0.73103 0.61895 0.73084 0.0
H2493 H 0.74781 0.56521 0.69285 0.0
H2494 H 0.78625 0.60094 0.68395 0.0
H2495 H 0.75697 0.64807 0.69645 0.0
C2496 C 0.67486 0.56928 0.7213 0.0
C2497 C 0.66447 0.54396 0.72386 0.0
C2498 C 0.67666 0.53183 0.7179 0.0
C2499 C 0.69866 0.5445 0.70955 0.0
C2500 C 0.7083 0.56935 0.70712 0.0
C2501 C 0.69683 0.58165 0.71279 0.0
C2502 C 0.71161 0.60858 0.70892 0.0
C2503 C 0.69654 0.61587 0.69849 0.0
C2504 C 0.72014 0.62438 0.72339 0.0
C2505 C 0.73346 0.60955 0.70058 0.0
C2506 C 0.73106 0.58666 0.69957 0.0
C2507 C 0.74964 0.58314 0.69328 0.0
C2508 C 0.7714 0.60359 0.68808 0.0
C2509 C 0.77428 0.62722 0.68892 0.0
C2510 C 0.75493 0.63011 0.69521 0.0
H2511 H 0.48704 0.16893 0.71868 0.0
H2512 H 0.44756 0.08987 0.71781 0.0
H2513 H 0.41094 0.08953 0.70626 0.0
H2514 H 0.43409 0.17437 0.7293 0.0
H2515 H 0.44308 0.2013 0.71812 0.0
H2516 H 0.4665 0.19511 0.72542 0.0
H2517 H 0.48299 0.19854 0.69848 0.0
H2518 H 0.45869 0.2026 0.69021 0.0
H2519 H 0.46326 0.17788 0.68397 0.0
H2520 H 0.37777 0.0976 0.69665 0.0
H2521 H 0.34994 0.11367 0.6897 0.0
H2522 H 0.41053 0.18751 0.69666 0.0
C2523 C 0.47074 0.15163 0.71585 0.0
C2524 C 0.47002 0.12939 0.71891 0.0
C2525 C 0.44834 0.10703 0.7154 0.0
C2526 C 0.42755 0.10669 0.70884 0.0
C2527 C 0.42869 0.1289 0.70601 0.0
C2528 C 0.44963 0.15097 0.7095 0.0
C2529 C 0.44542 0.17214 0.70608 0.0
C2530 C 0.44738 0.18657 0.7206 0.0
C2531 C 0.46365 0.1888 0.69395 0.0
C2532 C 0.41888 0.15852 0.70013 0.0
C2533 C 0.40961 0.13358 0.70018 0.0
C2534 C 0.38497 0.1171 0.69624 0.0
C2535 C 0.36935 0.12633 0.69224 0.0
C2536 C 0.37854 0.15176 0.69197 0.0
C2537 C 0.4035 0.16802 0.69612 0.0
H2538 H 0.8882 0.33604 0.72687 0.0
H2539 H 0.91973 0.37973 0.68654 0.0
H2540 H 0.91112 0.3426 0.67222 0.0
H2541 H 0.91197 0.29451 0.72041 0.0
H2542 H 0.88433 0.26855 0.72771 0.0
H2543 H 0.8938 0.29873 0.73478 0.0
H2544 H 0.85045 0.29279 0.7278 0.0
H2545 H 0.84091 0.26266 0.72066 0.0
H2546 H 0.83909 0.28468 0.70862 0.0
H2547 H 0.89756 0.30006 0.66211 0.0
H2548 H 0.88077 0.25594 0.65732 0.0
H2549 H 0.85881 0.24096 0.70447 0.0
C2550 C 0.89375 0.33792 0.7151 0.0
C2551 C 0.90469 0.36082 0.70784 0.0
C2552 C 0.91111 0.36234 0.69231 0.0
C2553 C 0.90641 0.34139 0.68411 0.0
C2554 C 0.89537 0.31907 0.6916 0.0
C2555 C 0.88923 0.31726 0.70677 0.0
C2556 C 0.87697 0.29111 0.71212 0.0
C2557 C 0.89271 0.28806 0.72448 0.0
C2558 C 0.85028 0.2823 0.71762 0.0
C2559 C 0.87702 0.27844 0.69757 0.0
C2560 C 0.8877 0.2948 0.68584 0.0
C2561 C 0.88922 0.2871 0.67124 0.0
C2562 C 0.87951 0.26202 0.6686 0.0
C2563 C 0.86841 0.24502 0.6805 0.0
C2564 C 0.86737 0.25349 0.69515 0.0
H2565 H 0.21441 0.00678 0.61263 0.0
H2566 H 0.19775 0.96064 0.65217 0.0
H2567 H 0.22859 0.99583 0.66706 0.0
H2568 H 0.28214 0.04543 0.62064 0.0
H2569 H 0.28318 0.07282 0.61395 0.0
H2570 H 0.26109 0.04361 0.60591 0.0
H2571 H 0.22512 0.05169 0.6125 0.0
H2572 H 0.24706 0.08081 0.62063 0.0
H2573 H 0.2214 0.05875 0.63179 0.0
H2574 H 0.25757 0.03608 0.67842 0.0
H2575 H 0.28567 0.07925 0.68524 0.0
H2576 H 0.28588 0.09998 0.6384 0.0
C2577 C 0.21768 0.00404 0.62433 0.0
C2578 C 0.20347 0.98099 0.63128 0.0
C2579 C 0.20809 0.97819 0.64667 0.0
C2580 C 0.22568 0.99804 0.65521 0.0
C2581 C 0.23882 0.02063 0.64819 0.0
C2582 C 0.23535 0.02378 0.63307 0.0
C2583 C 0.25142 0.05035 0.62857 0.0
C2584 C 0.2706 0.05322 0.61655 0.0
C2585 C 0.23528 0.06102 0.62305 0.0
C2586 C 0.26395 0.0616 0.6436 0.0
C2587 C 0.25635 0.04404 0.65474 0.0
C2588 C 0.26399 0.04998 0.66976 0.0
C2589 C 0.27983 0.07455 0.67355 0.0
C2590 C 0.28807 0.09288 0.66234 0.0
C2591 C 0.2802 0.08626 0.64714 0.0
H2592 H 0.99492 0.17502 0.63629 0.0
H2593 H 0.02337 0.25111 0.6252 0.0
H2594 H 0.98604 0.24926 0.63662 0.0
H2595 H 0.93208 0.15554 0.62674 0.0
H2596 H 0.91883 0.13323 0.64161 0.0
H2597 H 0.94886 0.14124 0.634 0.0
H2598 H 0.96786 0.15229 0.66099 0.0
H2599 H 0.9379 0.14459 0.66866 0.0
H2600 H 0.96445 0.17443 0.67209 0.0
H2601 H 0.94493 0.23878 0.64812 0.0
H2602 H 0.9012 0.21942 0.65665 0.0
H2603 H 0.89817 0.14961 0.65943 0.0
C2604 C 0.99337 0.19134 0.63647 0.0
C2605 C 0.01209 0.2133 0.62998 0.0
C2606 C 0.00923 0.23415 0.63012 0.0
C2607 C 0.98818 0.23329 0.63667 0.0
C2608 C 0.97002 0.21138 0.64295 0.0
C2609 C 0.97224 0.19068 0.64276 0.0
C2610 C 0.94904 0.16893 0.64911 0.0
C2611 C 0.93646 0.14854 0.63715 0.0
C2612 C 0.95519 0.1595 0.66358 0.0
C2613 C 0.93329 0.18052 0.65266 0.0
C2614 C 0.94597 0.20515 0.64929 0.0
C2615 C 0.93496 0.2196 0.65099 0.0
C2616 C 0.9102 0.20851 0.65593 0.0
C2617 C 0.89671 0.18325 0.65915 0.0
C2618 C 0.90843 0.16912 0.65751 0.0
H2619 H 0.76032 0.7559 0.61488 0.0
H2620 H 0.81794 0.82645 0.63165 0.0
H2621 H 0.83636 0.8064 0.64632 0.0
H2622 H 0.75243 0.72265 0.64889 0.0
H2623 H 0.74844 0.69543 0.63966 0.0
H2624 H 0.73975 0.71509 0.62996 0.0
H2625 H 0.76865 0.71928 0.60761 0.0
H2626 H 0.77725 0.69945 0.6172 0.0
H2627 H 0.80099 0.72937 0.61128 0.0
H2628 H 0.84768 0.77931 0.66003 0.0
H2629 H 0.85314 0.74646 0.67075 0.0
H2630 H 0.78912 0.6929 0.64491 0.0
C2631 C 0.77698 0.76709 0.6215 0.0
C2632 C 0.78744 0.79272 0.62231 0.0
C2633 C 0.80924 0.80674 0.63112 0.0
C2634 C 0.81995 0.79556 0.63945 0.0
C2635 C 0.80886 0.77029 0.63874 0.0
C2636 C 0.78806 0.75617 0.62988 0.0
C2637 C 0.77999 0.7293 0.63127 0.0
C2638 C 0.75358 0.71477 0.63784 0.0
C2639 C 0.78184 0.71873 0.61593 0.0
C2640 C 0.79934 0.73065 0.6424 0.0
C2641 C 0.81574 0.75451 0.64655 0.0
C2642 C 0.83502 0.76053 0.65684 0.0
C2643 C 0.83785 0.74167 0.66296 0.0
C2644 C 0.82149 0.71703 0.65876 0.0
C2645 C 0.80195 0.71153 0.64835 0.0
H2646 H 0.00584 0.75687 0.62159 0.0
H2647 H 0.99944 0.821 0.63073 0.0
H2648 H 0.961 0.79574 0.64523 0.0
H2649 H 0.94199 0.71566 0.61576 0.0
H2650 H 0.94194 0.69019 0.62491 0.0
H2651 H 0.96995 0.71359 0.61624 0.0
H2652 H 0.99368 0.72064 0.6417 0.0
H2653 H 0.96563 0.69723 0.65042 0.0
H2654 H 0.98186 0.72745 0.65856 0.0
H2655 H 0.92129 0.76311 0.6565 0.0
H2656 H 0.88364 0.72554 0.66424 0.0
H2657 H 0.91628 0.68247 0.64908 0.0
C2658 C 0.99638 0.76559 0.6267 0.0
C2659 C 0.00567 0.79093 0.62505 0.0
C2660 C 0.99285 0.80169 0.63199 0.0
C2661 C 0.97098 0.78749 0.64023 0.0
C2662 C 0.96228 0.76257 0.64159 0.0
C2663 C 0.97464 0.75171 0.63511 0.0
C2664 C 0.96084 0.72441 0.63786 0.0
C2665 C 0.95323 0.71013 0.6228 0.0
C2666 C 0.97644 0.71701 0.64772 0.0
C2667 C 0.93837 0.72152 0.64643 0.0
C2668 C 0.93969 0.7438 0.64856 0.0
C2669 C 0.92033 0.74563 0.65521 0.0
C2670 C 0.89901 0.72413 0.65969 0.0
C2671 C 0.89733 0.7011 0.65779 0.0
C2672 C 0.91736 0.69989 0.65108 0.0
H2673 H 0.21079 0.18504 0.61376 0.0
H2674 H 0.21478 0.24325 0.64187 0.0
H2675 H 0.24657 0.24157 0.65807 0.0
H2676 H 0.21687 0.15079 0.64493 0.0
H2677 H 0.2354 0.14111 0.63445 0.0
H2678 H 0.21307 0.14657 0.62471 0.0
H2679 H 0.24706 0.17762 0.60697 0.0
H2680 H 0.26962 0.17193 0.61614 0.0
H2681 H 0.27497 0.20264 0.61498 0.0
H2682 H 0.28133 0.23654 0.66942 0.0
H2683 H 0.31304 0.22536 0.67669 0.0
H2684 H 0.28335 0.1676 0.64306 0.0
C2685 C 0.21834 0.19734 0.62337 0.0
C2686 C 0.21048 0.21438 0.62656 0.0
C2687 C 0.22055 0.23004 0.63929 0.0
C2688 C 0.23862 0.22924 0.64852 0.0
C2689 C 0.24609 0.21232 0.64506 0.0
C2690 C 0.23599 0.19639 0.63292 0.0
C2691 C 0.24703 0.17976 0.63177 0.0
C2692 C 0.2269 0.15296 0.63411 0.0
C2693 C 0.26047 0.18321 0.61656 0.0
C2694 C 0.26532 0.1892 0.64491 0.0
C2695 C 0.26466 0.20814 0.65236 0.0
C2696 C 0.28149 0.22126 0.66397 0.0
C2697 C 0.29934 0.21478 0.66807 0.0
C2698 C 0.29958 0.1948 0.66101 0.0
C2699 C 0.28256 0.18209 0.64917 0.0
H2700 H 0.7631 0.99051 0.62619 0.0
H2701 H 0.81669 0.97835 0.65082 0.0
H2702 H 0.83347 0.01858 0.66305 0.0
H2703 H 0.80533 0.05437 0.61895 0.0
H2704 H 0.78181 0.06298 0.62106 0.0
H2705 H 0.77328 0.03275 0.61453 0.0
H2706 H 0.74128 0.01408 0.63632 0.0
H2707 H 0.74977 0.04426 0.64292 0.0
H2708 H 0.75149 0.02288 0.65562 0.0
H2709 H 0.84483 0.06007 0.67248 0.0
H2710 H 0.85042 0.10061 0.67819 0.0
H2711 H 0.79053 0.08655 0.64693 0.0
C2712 C 0.77844 0.99633 0.63408 0.0
C2713 C 0.78831 0.98103 0.63766 0.0
C2714 C 0.80833 0.98939 0.64815 0.0
C2715 C 0.81817 0.01233 0.65508 0.0
C2716 C 0.80797 0.02685 0.65133 0.0
C2717 C 0.78865 0.01929 0.64104 0.0
C2718 C 0.78146 0.03873 0.63884 0.0
C2719 C 0.78573 0.04774 0.62237 0.0
C2720 C 0.75439 0.02943 0.64372 0.0
C2721 C 0.79971 0.05831 0.64955 0.0
C2722 C 0.81477 0.05102 0.65666 0.0
C2723 C 0.83302 0.06591 0.66706 0.0
C2724 C 0.83588 0.08886 0.67034 0.0
C2725 C 0.82055 0.09672 0.66329 0.0
C2726 C 0.80243 0.08123 0.65264 0.0
H2727 H 0.47393 0.35072 0.7028 0.0
H2728 H 0.47885 0.32632 0.74795 0.0
H2729 H 0.44832 0.28409 0.74073 0.0
H2730 H 0.40936 0.31186 0.69763 0.0
H2731 H 0.41096 0.3054 0.67789 0.0
H2732 H 0.43452 0.33376 0.68608 0.0
H2733 H 0.46884 0.32447 0.67728 0.0
H2734 H 0.44531 0.29617 0.66895 0.0
H2735 H 0.46688 0.29607 0.68262 0.0
H2736 H 0.4158 0.24536 0.72955 0.0
H2737 H 0.3834 0.21141 0.71454 0.0
H2738 H 0.3993 0.25952 0.67617 0.0
C2739 C 0.46889 0.33641 0.71107 0.0
C2740 C 0.47864 0.34189 0.726 0.0
C2741 C 0.47133 0.32267 0.73654 0.0
C2742 C 0.45414 0.29858 0.73252 0.0
C2743 C 0.44454 0.29387 0.71785 0.0
C2744 C 0.45173 0.31212 0.70721 0.0
C2745 C 0.43777 0.30196 0.69237 0.0
C2746 C 0.42223 0.31396 0.68826 0.0
C2747 C 0.45578 0.30484 0.67955 0.0
C2748 C 0.42125 0.27532 0.6965 0.0
C2749 C 0.42565 0.27116 0.71126 0.0
C2750 C 0.41224 0.24835 0.71797 0.0
C2751 C 0.39371 0.22925 0.70942 0.0
C2752 C 0.38872 0.23304 0.69435 0.0
C2753 C 0.40288 0.25626 0.6877 0.0
H2754 H 0.66395 0.0937 0.72482 0.0
H2755 H 0.67645 0.16757 0.72502 0.0
H2756 H 0.71567 0.1816 0.71094 0.0
H2757 H 0.72707 0.10879 0.72962 0.0
H2758 H 0.72555 0.08575 0.71685 0.0
H2759 H 0.69798 0.08093 0.72661 0.0
H2760 H 0.6747 0.07386 0.70107 0.0
H2761 H 0.70203 0.07831 0.69114 0.0
H2762 H 0.68817 0.09662 0.68645 0.0
H2763 H 0.75492 0.18825 0.69872 0.0
H2764 H 0.79058 0.18673 0.68767 0.0
H2765 H 0.7517 0.10813 0.69308 0.0
C2766 C 0.675 0.1128 0.72188 0.0
C2767 C 0.66725 0.12961 0.72604 0.0
C2768 C 0.68204 0.15442 0.72189 0.0
C2769 C 0.70433 0.16255 0.71391 0.0
C2770 C 0.71145 0.14557 0.70992 0.0
C2771 C 0.69715 0.12117 0.7136 0.0
C2772 C 0.70915 0.10681 0.70782 0.0
C2773 C 0.71531 0.09486 0.72101 0.0
C2774 C 0.69251 0.08777 0.69592 0.0
C2775 C 0.73264 0.12703 0.70065 0.0
C2776 C 0.73356 0.14924 0.70203 0.0
C2777 C 0.7541 0.17087 0.69722 0.0
C2778 C 0.77419 0.16979 0.6908 0.0
C2779 C 0.77343 0.14717 0.6888 0.0
C2780 C 0.75238 0.12555 0.69392 0.0
H2781 H 0.90357 0.5484 0.7132 0.0
H2782 H 0.85272 0.52909 0.75103 0.0
H2783 H 0.83384 0.55154 0.73932 0.0
H2784 H 0.91427 0.60934 0.70912 0.0
H2785 H 0.91617 0.60931 0.68875 0.0
H2786 H 0.9248 0.59075 0.69976 0.0
H2787 H 0.89316 0.55249 0.68459 0.0
H2788 H 0.88426 0.57092 0.67362 0.0
H2789 H 0.86098 0.54477 0.68374 0.0
H2790 H 0.82052 0.57586 0.72362 0.0
H2791 H 0.81626 0.60402 0.70608 0.0
H2792 H 0.8767 0.60909 0.67885 0.0
C2793 C 0.88837 0.54885 0.71894 0.0
C2794 C 0.87949 0.53701 0.73298 0.0
C2795 C 0.85984 0.5382 0.74031 0.0
C2796 C 0.84891 0.55072 0.7337 0.0
C2797 C 0.85799 0.5621 0.71981 0.0
C2798 C 0.87747 0.56156 0.71259 0.0
C2799 C 0.88456 0.57642 0.69814 0.0
C2800 C 0.91155 0.59772 0.699 0.0
C2801 C 0.88049 0.56017 0.6842 0.0
C2802 C 0.86609 0.58548 0.6984 0.0
C2803 C 0.85071 0.5767 0.7109 0.0
C2804 C 0.83235 0.58275 0.71376 0.0
C2805 C 0.82996 0.59858 0.70374 0.0
C2806 C 0.84592 0.60821 0.69113 0.0
C2807 C 0.86408 0.60152 0.68834 0.0
H2808 H 0.46066 0.96152 0.18364 0.0
H2809 H 0.4766 0.90256 0.17772 0.0
H2810 H 0.48864 0.91501 0.15115 0.0
H2811 H 0.43583 0.95886 0.14575 0.0
H2812 H 0.44994 0.99154 0.14424 0.0
H2813 H 0.44135 0.97721 0.16255 0.0
H2814 H 0.48655 0.00484 0.17214 0.0
H2815 H 0.49527 0.01923 0.15388 0.0
H2816 H 0.51194 0.00534 0.16191 0.0
H2817 H 0.49952 0.93431 0.12516 0.0
H2818 H 0.5107 0.96036 0.1024 0.0
H2819 H 0.48853 0.00729 0.12534 0.0
C2820 C 0.4664 0.95107 0.17669 0.0
C2821 C 0.46761 0.93099 0.18276 0.0
C2822 C 0.47566 0.91807 0.17336 0.0
C2823 C 0.48241 0.92493 0.15822 0.0
C2824 C 0.48116 0.94488 0.1526 0.0
C2825 C 0.47348 0.95785 0.16158 0.0
C2826 C 0.47492 0.97926 0.15298 0.0
C2827 C 0.44896 0.97654 0.15128 0.0
C2828 C 0.49326 0.0036 0.16069 0.0
C2829 C 0.48474 0.9764 0.13783 0.0
C2830 C 0.48797 0.9563 0.13778 0.0
C2831 C 0.49699 0.95005 0.12507 0.0
C2832 C 0.50317 0.96488 0.11215 0.0
C2833 C 0.50054 0.9859 0.11203 0.0
C2834 C 0.49097 0.99148 0.12507 0.0
H2835 H 0.01652 0.49265 0.18142 0.0
H2836 H 0.07721 0.5668 0.17577 0.0
H2837 H 0.06706 0.56497 0.14857 0.0
H2838 H 0.0221 0.4695 0.14365 0.0
H2839 H 0.98886 0.45078 0.14136 0.0
H2840 H 1.00254 0.45688 0.16004 0.0
H2841 H 0.97385 0.4737 0.16827 0.0
H2842 H 0.96028 0.46791 0.1496 0.0
H2843 H 0.97414 0.49816 0.15767 0.0
H2844 H 0.04845 0.55677 0.12286 0.0
H2845 H 0.02313 0.5422 0.0996 0.0
H2846 H 0.97422 0.47296 0.12134 0.0
C2847 C 0.02797 0.5082 0.17431 0.0
C2848 C 0.04772 0.52983 0.18058 0.0
C2849 C 0.06203 0.55009 0.1711 0.0
C2850 C 0.05643 0.5492 0.15567 0.0
C2851 C 0.03645 0.5279 0.14988 0.0
C2852 C 0.02249 0.50768 0.15883 0.0
C2853 C 1.00107 0.48766 0.14984 0.0
C2854 C 0.00382 0.46485 0.14865 0.0
C2855 C 0.97585 0.48151 0.15676 0.0
C2856 C 0.00492 0.50003 0.1346 0.0
C2857 C 0.02556 0.52316 0.13488 0.0
C2858 C 0.03247 0.53854 0.1224 0.0
C2859 C 0.018 0.53004 0.1092 0.0
C2860 C 0.9968 0.50632 0.10853 0.0
C2861 C 0.99025 0.49119 0.12147 0.0
H2862 H 0.4813 0.50083 0.18344 0.0
H2863 H 0.49471 0.57403 0.17521 0.0
H2864 H 0.503 0.57033 0.14831 0.0
H2865 H 0.52902 0.50479 0.1599 0.0
H2866 H 0.51189 0.47392 0.15279 0.0
H2867 H 0.50482 0.48121 0.17119 0.0
H2868 H 0.45871 0.46356 0.16324 0.0
H2869 H 0.46559 0.456 0.14484 0.0
H2870 H 0.45138 0.47478 0.14638 0.0
H2871 H 0.51303 0.5603 0.12299 0.0
H2872 H 0.52293 0.54399 0.10036 0.0
H2873 H 0.50201 0.47656 0.12431 0.0
C2874 C 0.48549 0.51584 0.17588 0.0
C2875 C 0.48746 0.53777 0.18142 0.0
C2876 C 0.49336 0.55718 0.17124 0.0
C2877 C 0.49799 0.55522 0.15593 0.0
C2878 C 0.49656 0.53366 0.15089 0.0
C2879 C 0.49027 0.51421 0.16049 0.0
C2880 C 0.49111 0.49354 0.1522 0.0
C2881 C 0.51036 0.48806 0.15946 0.0
C2882 C 0.46515 0.47062 0.15163 0.0
C2883 C 0.49932 0.50466 0.13659 0.0
C2884 C 0.50219 0.52775 0.1361 0.0
C2885 C 0.51048 0.54208 0.12314 0.0
C2886 C 0.51593 0.53255 0.11028 0.0
C2887 C 0.51304 0.50884 0.1104 0.0
C2888 C 0.50455 0.49477 0.1238 0.0
H2889 H 0.98498 0.49815 0.83182 0.0
H2890 H 0.93618 0.42049 0.83864 0.0
H2891 H 0.94999 0.42505 0.86533 0.0
H2892 H 0.03534 0.50363 0.85444 0.0
H2893 H 0.04364 0.53327 0.86201 0.0
H2894 H 0.02916 0.52417 0.84362 0.0
H2895 H 0.99418 0.53256 0.85224 0.0
H2896 H 0.00863 0.54181 0.87064 0.0
H2897 H 0.97659 0.51792 0.86903 0.0
H2898 H 0.96937 0.43791 0.89116 0.0
H2899 H 0.99373 0.45806 0.91425 0.0
H2900 H 0.03044 0.52731 0.89063 0.0
C2901 C 0.97701 0.48218 0.839 0.0
C2902 C 0.9595 0.45896 0.83318 0.0
C2903 C 0.94977 0.43841 0.84284 0.0
C2904 C 0.95741 0.44084 0.85802 0.0
C2905 C 0.97488 0.46393 0.86337 0.0
C2906 C 0.9846 0.48424 0.85416 0.0
C2907 C 0.00369 0.50684 0.86262 0.0
C2908 C 0.02948 0.5176 0.85523 0.0
C2909 C 0.99526 0.52591 0.8637 0.0
C2910 C 0.00326 0.49602 0.87799 0.0
C2911 C 0.98638 0.47127 0.8782 0.0
C2912 C 0.9826 0.45729 0.89114 0.0
C2913 C 0.99645 0.46891 0.90421 0.0
C2914 C 0.01398 0.49424 0.90425 0.0
C2915 C 0.01736 0.50788 0.89091 0.0
H2916 H 0.55311 0.50495 0.84004 0.0
H2917 H 0.47558 0.45546 0.82837 0.0
H2918 H 0.46278 0.46299 0.85314 0.0
H2919 H 0.54958 0.49063 0.87928 0.0
H2920 H 0.56961 0.52161 0.8856 0.0
H2921 H 0.5733 0.51241 0.86689 0.0
H2922 H 0.5679 0.54696 0.85512 0.0
H2923 H 0.5645 0.55645 0.87381 0.0
H2924 H 0.54071 0.54909 0.85969 0.0
H2925 H 0.45803 0.47346 0.87973 0.0
H2926 H 0.46154 0.49116 0.90533 0.0
H2927 H 0.54117 0.53683 0.89937 0.0
C2928 C 0.53343 0.49593 0.84259 0.0
C2929 C 0.51548 0.47901 0.83228 0.0
C2930 C 0.48989 0.46777 0.83618 0.0
C2931 C 0.48232 0.47205 0.85023 0.0
C2932 C 0.50044 0.4881 0.86029 0.0
C2933 C 0.52542 0.50033 0.85657 0.0
C2934 C 0.54089 0.51729 0.86939 0.0
C2935 C 0.55944 0.51004 0.87566 0.0
C2936 C 0.55429 0.54403 0.86419 0.0
C2937 C 0.52069 0.51242 0.88087 0.0
C2938 C 0.49753 0.49526 0.87542 0.0
C2939 C 0.47602 0.48711 0.88408 0.0
C2940 C 0.47816 0.4971 0.8986 0.0
C2941 C 0.50154 0.51525 0.90421 0.0
C2942 C 0.52308 0.52295 0.89525 0.0
H2943 H 0.55177 0.06852 0.84361 0.0
H2944 H 0.47622 0.03431 0.82597 0.0
H2945 H 0.46028 0.01301 0.85006 0.0
H2946 H 0.54249 0.01457 0.86451 0.0
H2947 H 0.56212 0.03197 0.88018 0.0
H2948 H 0.56802 0.04506 0.8615 0.0
H2949 H 0.56532 0.08191 0.87208 0.0
H2950 H 0.55906 0.06875 0.89074 0.0
H2951 H 0.53773 0.07668 0.88204 0.0
H2952 H 0.45171 0.99596 0.87571 0.0
H2953 H 0.45142 0.98009 0.90125 0.0
H2954 H 0.53196 0.02334 0.90317 0.0
C2955 C 0.53193 0.05636 0.84481 0.0
C2956 C 0.51523 0.05358 0.83293 0.0
C2957 C 0.48938 0.03735 0.83497 0.0
C2958 C 0.48008 0.02506 0.84862 0.0
C2959 C 0.49681 0.02878 0.86023 0.0
C2960 C 0.5222 0.04365 0.85848 0.0
C2961 C 0.53587 0.04356 0.87282 0.0
C2962 C 0.55315 0.03317 0.86956 0.0
C2963 C 0.55035 0.06926 0.87983 0.0
C2964 C 0.51412 0.02644 0.88282 0.0
C2965 C 0.4918 0.01836 0.87525 0.0
C2966 C 0.46904 0.00213 0.88179 0.0
C2967 C 0.46902 0.99332 0.8963 0.0
C2968 C 0.49157 0.00072 0.90419 0.0
C2969 C 0.51444 0.01779 0.89746 0.0
H2970 H 0.17111 0.28943 0.51386 0.0
H2971 H 0.09238 0.2421 0.50449 0.0
H2972 H 0.09927 0.2549 0.47777 0.0
H2973 H 0.17974 0.3382 0.49024 0.0
H2974 H 0.21021 0.34552 0.4837 0.0
H2975 H 0.19954 0.3317 0.50198 0.0
H2976 H 0.20748 0.29657 0.49438 0.0
H2977 H 0.21832 0.31036 0.47609 0.0
H2978 H 0.19334 0.2792 0.47737 0.0
H2979 H 0.11407 0.27465 0.45234 0.0
H2980 H 0.13583 0.29936 0.43004 0.0
H2981 H 0.2055 0.3326 0.45525 0.0
C2982 C 0.1554 0.28145 0.50614 0.0
C2983 C 0.13113 0.26485 0.5114 0.0
C2984 C 0.11107 0.25513 0.50088 0.0
C2985 C 0.11481 0.26218 0.48561 0.0
C2986 C 0.1388 0.27888 0.48088 0.0
C2987 C 0.15881 0.28829 0.49078 0.0
C2988 C 0.18256 0.30653 0.4828 0.0
C2989 C 0.19366 0.33199 0.49012 0.0
C2990 C 0.20155 0.29763 0.48265 0.0
C2991 C 0.17268 0.30615 0.46697 0.0
C2992 C 0.1474 0.29 0.4661 0.0
C2993 C 0.13394 0.28712 0.45283 0.0
C2994 C 0.14658 0.30117 0.44013 0.0
C2995 C 0.17255 0.31798 0.44067 0.0
C2996 C 0.18566 0.32018 0.45434 0.0
H2997 H 0.69053 0.8369 0.51733 0.0
H2998 H 0.75041 0.91101 0.51002 0.0
H2999 H 0.7376 0.90835 0.48326 0.0
H3000 H 0.69333 0.81275 0.47982 0.0
H3001 H 0.66001 0.79362 0.47843 0.0
H3002 H 0.67502 0.80071 0.49673 0.0
H3003 H 0.64652 0.81745 0.50557 0.0
H3004 H 0.6316 0.81064 0.48727 0.0
H3005 H 0.64567 0.84122 0.49483 0.0
H3006 H 0.71721 0.89864 0.45784 0.0
H3007 H 0.6908 0.88221 0.43504 0.0
H3008 H 0.64387 0.81425 0.45859 0.0
C3009 C 0.70119 0.85235 0.50999 0.0
C3010 C 0.72147 0.87416 0.5157 0.0
C3011 C 0.73472 0.8942 0.50586 0.0
C3012 C 0.72764 0.89283 0.49065 0.0
C3013 C 0.70724 0.8713 0.48544 0.0
C3014 C 0.69424 0.85136 0.49476 0.0
C3015 C 0.67235 0.83079 0.48642 0.0
C3016 C 0.67537 0.80813 0.48528 0.0
C3017 C 0.64758 0.82468 0.49398 0.0
C3018 C 0.67495 0.84243 0.47105 0.0
C3019 C 0.6953 0.86574 0.47073 0.0
C3020 C 0.70135 0.88032 0.45789 0.0
C3021 C 0.68627 0.87079 0.44498 0.0
C3022 C 0.66533 0.8469 0.44499 0.0
C3023 C 0.65964 0.83262 0.45826 0.0
H3024 H 0.16119 0.88313 0.50409 0.0
H3025 H 0.13775 0.8139 0.52631 0.0
H3026 H 0.14501 0.79747 0.5027 0.0
H3027 H 0.13389 0.85749 0.46715 0.0
H3028 H 0.15921 0.88141 0.45669 0.0
H3029 H 0.15146 0.88771 0.4752 0.0
H3030 H 0.19679 0.90351 0.48422 0.0
H3031 H 0.20468 0.89733 0.46574 0.0
H3032 H 0.21025 0.88411 0.4823 0.0
H3033 H 0.15689 0.7891 0.47736 0.0
H3034 H 0.17192 0.78907 0.45146 0.0
H3035 H 0.18672 0.86309 0.44501 0.0
C3036 C 0.15759 0.86452 0.50396 0.0
C3037 C 0.14876 0.84976 0.51705 0.0
C3038 C 0.14414 0.82544 0.51639 0.0
C3039 C 0.14831 0.81596 0.50304 0.0
C3040 C 0.15696 0.83093 0.49037 0.0
C3041 C 0.16145 0.85465 0.49065 0.0
C3042 C 0.17102 0.86689 0.47543 0.0
C3043 C 0.15281 0.87377 0.46819 0.0
C3044 C 0.19724 0.88928 0.47702 0.0
C3045 C 0.17157 0.84645 0.46666 0.0
C3046 C 0.16336 0.82589 0.47553 0.0
C3047 C 0.16314 0.80499 0.47025 0.0
C3048 C 0.17174 0.80515 0.45556 0.0
C3049 C 0.1803 0.82599 0.44625 0.0
C3050 C 0.17991 0.8468 0.45183 0.0
H3051 H 0.61701 0.78647 0.18176 0.0
H3052 H 0.66322 0.85476 0.15841 0.0
H3053 H 0.68691 0.87275 0.18201 0.0
H3054 H 0.61468 0.81367 0.21777 0.0
H3055 H 0.61596 0.79056 0.22899 0.0
H3056 H 0.60208 0.78312 0.21036 0.0
H3057 H 0.63208 0.76763 0.20251 0.0
H3058 H 0.64598 0.77496 0.22111 0.0
H3059 H 0.66519 0.78759 0.20459 0.0
H3060 H 0.70721 0.88259 0.20755 0.0
H3061 H 0.72194 0.88409 0.23381 0.0
H3062 H 0.66187 0.81015 0.24113 0.0
C3063 C 0.63211 0.80521 0.18164 0.0
C3064 C 0.63824 0.81925 0.16825 0.0
C3065 C 0.65801 0.84376 0.16857 0.0
C3066 C 0.67163 0.85411 0.18191 0.0
C3067 C 0.66514 0.8398 0.19489 0.0
C3068 C 0.64577 0.81593 0.19492 0.0
C3069 C 0.64283 0.80452 0.21043 0.0
C3070 C 0.61737 0.79756 0.21729 0.0
C3071 C 0.64676 0.78237 0.20961 0.0
C3072 C 0.66383 0.82559 0.21902 0.0
C3073 C 0.67647 0.84574 0.20981 0.0
C3074 C 0.6973 0.86704 0.21492 0.0
C3075 C 0.70555 0.86773 0.22981 0.0
C3076 C 0.69289 0.84734 0.23945 0.0
C3077 C 0.67159 0.82611 0.23403 0.0
H3078 H 0.18399 0.78838 0.18264 0.0
H3079 H 0.21065 0.85886 0.16131 0.0
H3080 H 0.20341 0.87501 0.18505 0.0
H3081 H 0.13484 0.78821 0.20317 0.0
H3082 H 0.13848 0.77373 0.21977 0.0
H3083 H 0.14752 0.7681 0.20149 0.0
H3084 H 0.19183 0.78217 0.21178 0.0
H3085 H 0.18293 0.78786 0.23011 0.0
H3086 H 0.20947 0.81186 0.22052 0.0
H3087 H 0.1902 0.88272 0.21028 0.0
H3088 H 0.17289 0.88175 0.23563 0.0
H3089 H 0.15515 0.80664 0.24108 0.0
C3090 C 0.18843 0.80725 0.18297 0.0
C3091 C 0.19805 0.82236 0.17005 0.0
C3092 C 0.20371 0.847 0.17106 0.0
C3093 C 0.19952 0.85632 0.1845 0.0
C3094 C 0.1898 0.84089 0.19693 0.0
C3095 C 0.18446 0.81692 0.19634 0.0
C3096 C 0.17338 0.80402 0.2112 0.0
C3097 C 0.14699 0.78223 0.20876 0.0
C3098 C 0.19043 0.79601 0.21886 0.0
C3099 C 0.17285 0.82435 0.22011 0.0
C3100 C 0.18249 0.84547 0.21164 0.0
C3101 C 0.18286 0.86638 0.21707 0.0
C3102 C 0.17293 0.86564 0.23145 0.0
C3103 C 0.16283 0.8442 0.24033 0.0
C3104 C 0.16313 0.82339 0.23464 0.0
H3105 H 0.21283 0.39921 0.173 0.0
H3106 H 0.13727 0.36807 0.15577 0.0
H3107 H 0.12099 0.34706 0.17994 0.0
H3108 H 0.2018 0.34499 0.1938 0.0
H3109 H 0.22186 0.3619 0.20944 0.0
H3110 H 0.22799 0.37511 0.19079 0.0
H3111 H 0.22684 0.41269 0.20154 0.0
H3112 H 0.2204 0.39943 0.22019 0.0
H3113 H 0.1997 0.40833 0.21166 0.0
H3114 H 0.1122 0.32956 0.20555 0.0
H3115 H 0.11155 0.31316 0.23094 0.0
H3116 H 0.19224 0.35404 0.23253 0.0
C3117 C 0.19289 0.38783 0.17431 0.0
C3118 C 0.17634 0.38574 0.1625 0.0
C3119 C 0.15036 0.37055 0.1647 0.0
C3120 C 0.14087 0.35843 0.1784 0.0
C3121 C 0.15751 0.36138 0.18991 0.0
C3122 C 0.18297 0.3754 0.18804 0.0
C3123 C 0.19651 0.37472 0.20229 0.0
C3124 C 0.21302 0.36351 0.19887 0.0
C3125 C 0.21176 0.40032 0.20934 0.0
C3126 C 0.17463 0.35806 0.21235 0.0
C3127 C 0.15236 0.35082 0.20491 0.0
C3128 C 0.12949 0.3351 0.21151 0.0
C3129 C 0.1293 0.32594 0.22595 0.0
C3130 C 0.15177 0.33246 0.23372 0.0
C3131 C 0.17478 0.3491 0.22693 0.0
H3132 H 0.82583 0.60144 0.84257 0.0
H3133 H 0.77901 0.63348 0.85083 0.0
H3134 H 0.78819 0.651 0.82534 0.0
H3135 H 0.87364 0.65446 0.82294 0.0
H3136 H 0.88058 0.63665 0.80992 0.0
H3137 H 0.86913 0.62515 0.82858 0.0
H3138 H 0.83303 0.58581 0.81669 0.0
H3139 H 0.84423 0.59728 0.79799 0.0
H3140 H 0.81264 0.58818 0.80307 0.0
H3141 H 0.80117 0.66417 0.79847 0.0
H3142 H 0.82163 0.67647 0.77343 0.0
H3143 H 0.8636 0.64017 0.78343 0.0
C3144 C 0.81763 0.61231 0.83918 0.0
C3145 C 0.80105 0.61532 0.84884 0.0
C3146 C 0.79091 0.62982 0.84365 0.0
C3147 C 0.7962 0.64015 0.82915 0.0
C3148 C 0.81217 0.63642 0.81991 0.0
C3149 C 0.82316 0.62328 0.82481 0.0
C3150 C 0.84074 0.62317 0.81289 0.0
C3151 C 0.86762 0.6356 0.81894 0.0
C3152 C 0.83213 0.59706 0.80733 0.0
C3153 C 0.83782 0.63825 0.80055 0.0
C3154 C 0.82092 0.64537 0.80475 0.0
C3155 C 0.81459 0.65887 0.7951 0.0
C3156 C 0.82617 0.66567 0.78089 0.0
C3157 C 0.84417 0.65933 0.77656 0.0
C3158 C 0.84996 0.64534 0.78652 0.0
H3159 H 0.34927 0.19893 0.843 0.0
H3160 H 0.39443 0.16415 0.84004 0.0
H3161 H 0.3778 0.14915 0.81446 0.0
H3162 H 0.29619 0.15367 0.82327 0.0
H3163 H 0.29008 0.17503 0.81337 0.0
H3164 H 0.30543 0.18312 0.83155 0.0
H3165 H 0.34235 0.22186 0.81996 0.0
H3166 H 0.32702 0.21398 0.80177 0.0
H3167 H 0.35817 0.21893 0.80366 0.0
H3168 H 0.35487 0.13634 0.78952 0.0
H3169 H 0.32906 0.12848 0.76667 0.0
H3170 H 0.30181 0.17478 0.78481 0.0
C3171 C 0.35601 0.18847 0.83695 0.0
C3172 C 0.37305 0.18257 0.84377 0.0
C3173 C 0.38097 0.1685 0.83536 0.0
C3174 C 0.37178 0.16003 0.82071 0.0
C3175 C 0.35488 0.16599 0.81445 0.0
C3176 C 0.34727 0.18011 0.82222 0.0
C3177 C 0.32909 0.18409 0.81283 0.0
C3178 C 0.3037 0.17333 0.82073 0.0
C3179 C 0.33981 0.21133 0.80935 0.0
C3180 C 0.32745 0.16974 0.79864 0.0
C3181 C 0.34241 0.15938 0.79983 0.0
C3182 C 0.34337 0.14467 0.78837 0.0
C3183 C 0.32872 0.14046 0.77533 0.0
C3184 C 0.3134 0.15113 0.7737 0.0
C3185 C 0.31299 0.16606 0.78561 0.0
H3186 H 0.80996 0.21367 0.837 0.0
H3187 H 0.80032 0.14894 0.8599 0.0
H3188 H 0.80526 0.13255 0.83551 0.0
H3189 H 0.77505 0.18282 0.80413 0.0
H3190 H 0.79465 0.20666 0.79116 0.0
H3191 H 0.79223 0.21408 0.81055 0.0
H3192 H 0.84018 0.23514 0.8134 0.0
H3193 H 0.84271 0.22755 0.79402 0.0
H3194 H 0.85575 0.21822 0.80909 0.0
H3195 H 0.80962 0.12245 0.8088 0.0
H3196 H 0.80934 0.11747 0.78104 0.0
H3197 H 0.8156 0.18834 0.77502 0.0
C3198 C 0.80919 0.19618 0.83687 0.0
C3199 C 0.80484 0.18257 0.85033 0.0
C3200 C 0.80347 0.15955 0.8497 0.0
C3201 C 0.80648 0.15022 0.83593 0.0
C3202 C 0.81078 0.16408 0.82287 0.0
C3203 C 0.81192 0.18647 0.82317 0.0
C3204 C 0.81505 0.19685 0.80733 0.0
C3205 C 0.79292 0.20029 0.80304 0.0
C3206 C 0.8399 0.22087 0.80588 0.0
C3207 C 0.81512 0.17663 0.79806 0.0
C3208 C 0.81298 0.15808 0.80732 0.0
C3209 C 0.81147 0.13691 0.80145 0.0
C3210 C 0.81136 0.13426 0.78568 0.0
C3211 C 0.81262 0.15259 0.77594 0.0
C3212 C 0.81514 0.17431 0.78223 0.0
H3213 H 0.28231 0.11787 0.51428 0.0
H3214 H 0.32443 0.18767 0.49173 0.0
H3215 H 0.34787 0.20597 0.51535 0.0
H3216 H 0.27815 0.14253 0.55082 0.0
H3217 H 0.2815 0.12013 0.56156 0.0
H3218 H 0.26747 0.11253 0.54298 0.0
H3219 H 0.29975 0.10031 0.53442 0.0
H3220 H 0.31381 0.1078 0.55297 0.0
H3221 H 0.33251 0.12196 0.53646 0.0
H3222 H 0.36829 0.21619 0.5408 0.0
H3223 H 0.38367 0.21794 0.56691 0.0
H3224 H 0.32764 0.14206 0.57341 0.0
C3225 C 0.29647 0.137 0.51435 0.0
C3226 C 0.30151 0.1514 0.5012 0.0
C3227 C 0.32006 0.1764 0.50173 0.0
C3228 C 0.33352 0.18693 0.51507 0.0
C3229 C 0.3281 0.17228 0.52783 0.0
C3230 C 0.30995 0.1479 0.52764 0.0
C3231 C 0.30801 0.13622 0.54293 0.0
C3232 C 0.28225 0.12733 0.54999 0.0
C3233 C 0.31388 0.11534 0.54161 0.0
C3234 C 0.32817 0.15776 0.55165 0.0
C3235 C 0.33953 0.17836 0.5427 0.0
C3236 C 0.3594 0.20026 0.54797 0.0
C3237 C 0.36804 0.20108 0.56277 0.0
C3238 C 0.3567 0.18021 0.57213 0.0
C3239 C 0.33634 0.15837 0.56653 0.0
H3240 H 0.85553 0.13429 0.512 0.0
H3241 H 0.87723 0.20225 0.48861 0.0
H3242 H 0.87033 0.21946 0.51204 0.0
H3243 H 0.80659 0.1331 0.53357 0.0
H3244 H 0.81269 0.12072 0.55034 0.0
H3245 H 0.82065 0.11417 0.53199 0.0
H3246 H 0.86623 0.13116 0.54091 0.0
H3247 H 0.8584 0.13777 0.55931 0.0
H3248 H 0.88333 0.16166 0.5486 0.0
H3249 H 0.85831 0.22835 0.53744 0.0
H3250 H 0.84344 0.2288 0.56334 0.0
H3251 H 0.83023 0.15548 0.57058 0.0
C3252 C 0.8589 0.15282 0.51181 0.0
C3253 C 0.867 0.16694 0.49843 0.0
C3254 C 0.87137 0.19118 0.49874 0.0
C3255 C 0.86738 0.20108 0.51199 0.0
C3256 C 0.8592 0.18662 0.52492 0.0
C3257 C 0.85517 0.16307 0.52498 0.0
C3258 C 0.84592 0.15125 0.54033 0.0
C3259 C 0.81992 0.12847 0.53897 0.0
C3260 C 0.86459 0.1451 0.54773 0.0
C3261 C 0.84496 0.17169 0.5488 0.0
C3262 C 0.85271 0.19193 0.53968 0.0
C3263 C 0.85242 0.2127 0.54472 0.0
C3264 C 0.84387 0.21276 0.55942 0.0
C3265 C 0.83581 0.19225 0.56898 0.0
C3266 C 0.83665 0.17156 0.56361 0.0
H3267 H 0.87591 0.72929 0.51067 0.0
H3268 H 0.80277 0.68803 0.48986 0.0
H3269 H 0.78621 0.66495 0.51336 0.0
H3270 H 0.87192 0.67778 0.53197 0.0
H3271 H 0.88813 0.69595 0.54836 0.0
H3272 H 0.89469 0.70965 0.52985 0.0
H3273 H 0.88466 0.74242 0.53963 0.0
H3274 H 0.87776 0.72862 0.55812 0.0
H3275 H 0.85486 0.733 0.5482 0.0
H3276 H 0.77665 0.64691 0.53876 0.0
H3277 H 0.77545 0.6315 0.56449 0.0
H3278 H 0.85445 0.68257 0.56992 0.0
C3279 C 0.8565 0.71523 0.51106 0.0
C3280 C 0.84056 0.71084 0.49842 0.0
C3281 C 0.81526 0.69221 0.49942 0.0
C3282 C 0.80564 0.67891 0.51274 0.0
C3283 C 0.8215 0.68413 0.52509 0.0
C3284 C 0.84646 0.70155 0.52441 0.0
C3285 C 0.85925 0.70288 0.53945 0.0
C3286 C 0.87971 0.69616 0.53727 0.0
C3287 C 0.86976 0.72824 0.54678 0.0
C3288 C 0.83754 0.68349 0.54856 0.0
C3289 C 0.81598 0.67315 0.53997 0.0
C3290 C 0.79342 0.65477 0.54559 0.0
C3291 C 0.79292 0.64616 0.56024 0.0
C3292 C 0.8148 0.65576 0.56921 0.0
C3293 C 0.83737 0.67506 0.56338 0.0
loop_
_geom_bond_atom_site_label_1
_geom_bond_atom_site_label_2
_geom_bond_distance
_geom_bond_site_symmetry_2
_ccdc_geom_bond_type
C0 C1 1.391 . S
C0 C4 1.391 . S
C0 H42 0.948 . S
C1 C0 1.391 . S
C1 C2 1.391 . S
C2 C1 1.391 . S
C2 H58 0.947 . S
C2 C59 1.392 . S
C3 C4 1.391 . S
C3 C7 1.397 . S
C3 C59 1.419 . S
C4 C0 1.391 . S
C4 C3 1.391 . S
C4 C5 1.399 . S
C5 C4 1.399 . S
C5 C8 1.396 . S
C5 C17 1.453 . S
C5 C18 1.684 . S
H6 C30 0.948 . S
C7 C3 1.397 . S
C7 C8 1.394 . S
C7 C26 1.723 . S
C8 C5 1.396 . S
C8 C7 1.394 . S
C8 C38 1.723 . S
H9 C32 0.947 . S
H10 C33 0.948 . S
H11 C39 0.982 . S
H12 C40 0.979 . S
H13 C40 0.980 . S
H14 C40 0.983 . S
H15 C39 0.979 . S
H16 C39 0.977 . S
C17 C5 1.453 . S
C17 H46 0.982 . S
C17 H47 0.979 . S
C17 H48 0.977 . S
C18 C5 1.684 . S
C18 H43 0.979 . S
C18 H44 0.980 . S
C18 H45 0.983 . S
C19 C20 1.391 . S
C19 C24 1.391 . S
C19 H49 0.948 . S
C20 C19 1.391 . S
C20 C21 1.391 . S
C21 C20 1.391 . S
C21 C22 1.392 . S
C21 H50 0.947 . S
C22 C21 1.392 . S
C22 C23 1.419 . S
C22 H51 0.948 . S
C23 C22 1.419 . S
C23 C24 1.391 . S
C23 C27 1.397 . S
C24 C19 1.391 . S
C24 C23 1.391 . S
C24 C25 1.399 . S
C25 C24 1.399 . S
C25 C26 1.396 . S
C25 C28 1.453 . S
C25 C29 1.684 . S
C26 C7 1.723 . S
C26 C25 1.396 . S
C26 C27 1.394 . S
C27 C23 1.397 . S
C27 C26 1.394 . S
C27 C37 1.723 . S
C28 C25 1.453 . S
C28 H52 0.982 . S
C28 H53 0.979 . S
C28 H54 0.977 . S
C29 C25 1.684 . S
C29 H55 0.979 . S
C29 H56 0.980 . S
C29 H57 0.983 . S
C30 H6 0.948 . S
C30 C31 1.391 . S
C30 C35 1.391 . S
C31 C30 1.391 . S
C31 C32 1.391 . S
C32 H9 0.947 . S
C32 C31 1.391 . S
C32 C33 1.392 . S
C33 H10 0.948 . S
C33 C32 1.392 . S
C33 C34 1.419 . S
C34 C33 1.419 . S
C34 C35 1.391 . S
C34 C38 1.397 . S
C35 C30 1.391 . S
C35 C34 1.391 . S
C35 C36 1.399 . S
C36 C35 1.399 . S
C36 C37 1.396 . S
C36 C39 1.453 . S
C36 C40 1.684 . S
C37 C27 1.723 . S
C37 C36 1.396 . S
C37 C38 1.394 . S
C38 C8 1.723 . S
C38 C34 1.397 . S
C38 C37 1.394 . S
C39 H11 0.982 . S
C39 H15 0.979 . S
C39 H16 0.977 . S
C39 C36 1.453 . S
C40 H12 0.979 . S
C40 H13 0.980 . S
C40 H14 0.983 . S
C40 C36 1.684 . S
H41 C59 0.948 . S
H42 C0 0.948 . S
H43 C18 0.979 . S
H44 C18 0.980 . S
H45 C18 0.983 . S
H46 C17 0.982 . S
H47 C17 0.979 . S
H48 C17 0.977 . S
H49 C19 0.948 . S
H50 C21 0.947 . S
H51 C22 0.948 . S
H52 C28 0.982 . S
H53 C28 0.979 . S
H54 C28 0.977 . S
H55 C29 0.979 . S
H56 C29 0.980 . S
H57 C29 0.983 . S
H58 C2 0.947 . S
C59 C2 1.392 . S
C59 C3 1.419 . S
C59 H41 0.948 . S
C60 C61 1.391 . S
C60 C64 1.391 . S
C60 H102 0.948 . S
C61 C60 1.391 . S
C61 C62 1.391 . S
C62 C61 1.391 . S
C62 H118 0.947 . S
C62 C119 1.392 . S
C63 C64 1.391 . S
C63 C67 1.397 . S
C63 C119 1.419 . S
C64 C60 1.391 . S
C64 C63 1.391 . S
C64 C65 1.399 . S
C65 C64 1.399 . S
C65 C68 1.396 . S
C65 C77 1.453 . S
C65 C78 1.684 . S
H66 C90 0.948 . S
C67 C63 1.397 . S
C67 C68 1.394 . S
C67 C86 1.723 . S
C68 C65 1.396 . S
C68 C67 1.394 . S
C68 C98 1.723 . S
H69 C92 0.947 . S
H70 C93 0.948 . S
H71 C99 0.982 . S
H72 C100 0.979 . S
H73 C100 0.980 . S
H74 C100 0.983 . S
H75 C99 0.979 . S
H76 C99 0.977 . S
C77 C65 1.453 . S
C77 H106 0.982 . S
C77 H107 0.979 . S
C77 H108 0.977 . S
C78 C65 1.684 . S
C78 H103 0.979 . S
C78 H104 0.980 . S
C78 H105 0.983 . S
C79 C80 1.391 . S
C79 C84 1.391 . S
C79 H109 0.948 . S
C80 C79 1.391 . S
C80 C81 1.391 . S
C81 C80 1.391 . S
C81 C82 1.392 . S
C81 H110 0.947 . S
C82 C81 1.392 . S
C82 C83 1.419 . S
C82 H111 0.948 . S
C83 C82 1.419 . S
C83 C84 1.391 . S
C83 C87 1.397 . S
C84 C79 1.391 . S
C84 C83 1.391 . S
C84 C85 1.399 . S
C85 C84 1.399 . S
C85 C86 1.396 . S
C85 C88 1.453 . S
C85 C89 1.684 . S
C86 C67 1.723 . S
C86 C85 1.396 . S
C86 C87 1.394 . S
C87 C83 1.397 . S
C87 C86 1.394 . S
C87 C97 1.723 . S
C88 C85 1.453 . S
C88 H112 0.982 . S
C88 H113 0.979 . S
C88 H114 0.977 . S
C89 C85 1.684 . S
C89 H115 0.979 . S
C89 H116 0.980 . S
C89 H117 0.983 . S
C90 H66 0.948 . S
C90 C91 1.391 . S
C90 C95 1.391 . S
C91 C90 1.391 . S
C91 C92 1.391 . S
C92 H69 0.947 . S
C92 C91 1.391 . S
C92 C93 1.392 . S
C93 H70 0.948 . S
C93 C92 1.392 . S
C93 C94 1.419 . S
C94 C93 1.419 . S
C94 C95 1.391 . S
C94 C98 1.397 . S
C95 C90 1.391 . S
C95 C94 1.391 . S
C95 C96 1.399 . S
C96 C95 1.399 . S
C96 C97 1.396 . S
C96 C99 1.453 . S
C96 C100 1.684 . S
C97 C87 1.723 . S
C97 C96 1.396 . S
C97 C98 1.394 . S
C98 C68 1.723 . S
C98 C94 1.397 . S
C98 C97 1.394 . S
C99 H71 0.982 . S
C99 H75 0.979 . S
C99 H76 0.977 . S
C99 C96 1.453 . S
C100 H72 0.979 . S
C100 H73 0.980 . S
C100 H74 0.983 . S
C100 C96 1.684 . S
H101 C119 0.948 . S
H102 C60 0.948 . S
H103 C78 0.979 . S
H104 C78 0.980 . S
H105 C78 0.983 . S
H106 C77 0.982 . S
H107 C77 0.979 . S
H108 C77 0.977 . S
H109 C79 0.948 . S
H110 C81 0.947 . S
H111 C82 0.948 . S
H112 C88 0.982 . S
H113 C88 0.979 . S
H114 C88 0.977 . S
H115 C89 0.979 . S
H116 C89 0.980 . S
H117 C89 0.983 . S
H118 C62 0.947 . S
C119 C62 1.392 . S
C119 C63 1.419 . S
C119 H101 0.948 . S
C120 C121 1.391 . S
C120 C124 1.391 . S
C120 H162 0.948 . S
C121 C120 1.391 . S
C121 C122 1.391 . S
C122 C121 1.391 . S
C122 H178 0.947 . S
C122 C179 1.392 . S
C123 C124 1.391 . S
C123 C127 1.397 . S
C123 C179 1.419 . S
C124 C120 1.391 . S
C124 C123 1.391 . S
C124 C125 1.399 . S
C125 C124 1.399 . S
C125 C128 1.396 . S
C125 C137 1.453 . S
C125 C138 1.684 . S
H126 C150 0.948 . S
C127 C123 1.397 . S
C127 C128 1.394 . S
C127 C146 1.723 . S
C128 C125 1.396 . S
C128 C127 1.394 . S
C128 C158 1.723 . S
H129 C152 0.947 . S
H130 C153 0.948 . S
H131 C159 0.982 . S
H132 C160 0.979 . S
H133 C160 0.980 . S
H134 C160 0.983 . S
H135 C159 0.979 . S
H136 C159 0.977 . S
C137 C125 1.453 . S
C137 H166 0.982 . S
C137 H167 0.979 . S
C137 H168 0.977 . S
C138 C125 1.684 . S
C138 H163 0.979 . S
C138 H164 0.980 . S
C138 H165 0.983 . S
C139 C140 1.391 . S
C139 C144 1.391 . S
C139 H169 0.948 . S
C140 C139 1.391 . S
C140 C141 1.391 . S
C141 C140 1.391 . S
C141 C142 1.392 . S
C141 H170 0.947 . S
C142 C141 1.392 . S
C142 C143 1.419 . S
C142 H171 0.948 . S
C143 C142 1.419 . S
C143 C144 1.391 . S
C143 C147 1.397 . S
C144 C139 1.391 . S
C144 C143 1.391 . S
C144 C145 1.399 . S
C145 C144 1.399 . S
C145 C146 1.396 . S
C145 C148 1.453 . S
C145 C149 1.684 . S
C146 C127 1.723 . S
C146 C145 1.396 . S
C146 C147 1.394 . S
C147 C143 1.397 . S
C147 C146 1.394 . S
C147 C157 1.723 . S
C148 C145 1.453 . S
C148 H172 0.982 . S
C148 H173 0.979 . S
C148 H174 0.977 . S
C149 C145 1.684 . S
C149 H175 0.979 . S
C149 H176 0.980 . S
C149 H177 0.983 . S
C150 H126 0.948 . S
C150 C151 1.391 . S
C150 C155 1.391 . S
C151 C150 1.391 . S
C151 C152 1.391 . S
C152 H129 0.947 . S
C152 C151 1.391 . S
C152 C153 1.392 . S
C153 H130 0.948 . S
C153 C152 1.392 . S
C153 C154 1.419 . S
C154 C153 1.419 . S
C154 C155 1.391 . S
C154 C158 1.397 . S
C155 C150 1.391 . S
C155 C154 1.391 . S
C155 C156 1.399 . S
C156 C155 1.399 . S
C156 C157 1.396 . S
C156 C159 1.453 . S
C156 C160 1.684 . S
C157 C147 1.723 . S
C157 C156 1.396 . S
C157 C158 1.394 . S
C158 C128 1.723 . S
C158 C154 1.397 . S
C158 C157 1.394 . S
C159 H131 0.982 . S
C159 H135 0.979 . S
C159 H136 0.977 . S
C159 C156 1.453 . S
C160 H132 0.979 . S
C160 H133 0.980 . S
C160 H134 0.983 . S
C160 C156 1.684 . S
H161 C179 0.948 . S
H162 C120 0.948 . S
H163 C138 0.979 . S
H164 C138 0.980 . S
H165 C138 0.983 . S
H166 C137 0.982 . S
H167 C137 0.979 . S
H168 C137 0.977 . S
H169 C139 0.948 . S
H170 C141 0.947 . S
H171 C142 0.948 . S
H172 C148 0.982 . S
H173 C148 0.979 . S
H174 C148 0.977 . S
H175 C149 0.979 . S
H176 C149 0.980 . S
H177 C149 0.983 . S
H178 C122 0.947 . S
C179 C122 1.392 . S
C179 C123 1.419 . S
C179 H161 0.948 . S
C180 C181 1.391 . S
C180 C184 1.391 . S
C180 H222 0.948 . S
C181 C180 1.391 . S
C181 C182 1.391 . S
C182 C181 1.391 . S
C182 H238 0.947 . S
C182 C239 1.392 . S
C183 C184 1.391 . S
C183 C187 1.397 . S
C183 C239 1.419 . S
C184 C180 1.391 . S
C184 C183 1.391 . S
C184 C185 1.399 . S
C185 C184 1.399 . S
C185 C188 1.396 . S
C185 C197 1.453 . S
C185 C198 1.684 . S
H186 C210 0.948 . S
C187 C183 1.397 . S
C187 C188 1.394 . S
C187 C206 1.723 . S
C188 C185 1.396 . S
C188 C187 1.394 . S
C188 C218 1.723 . S
H189 C212 0.947 . S
H190 C213 0.948 . S
H191 C219 0.982 . S
H192 C220 0.979 . S
H193 C220 0.980 . S
H194 C220 0.983 . S
H195 C219 0.979 . S
H196 C219 0.977 . S
C197 C185 1.453 . S
C197 H226 0.982 . S
C197 H227 0.979 . S
C197 H228 0.977 . S
C198 C185 1.684 . S
C198 H223 0.979 . S
C198 H224 0.980 . S
C198 H225 0.983 . S
C199 C200 1.391 . S
C199 C204 1.391 . S
C199 H229 0.948 . S
C200 C199 1.391 . S
C200 C201 1.391 . S
C201 C200 1.391 . S
C201 C202 1.392 . S
C201 H230 0.947 . S
C202 C201 1.392 . S
C202 C203 1.419 . S
C202 H231 0.948 . S
C203 C202 1.419 . S
C203 C204 1.391 . S
C203 C207 1.397 . S
C204 C199 1.391 . S
C204 C203 1.391 . S
C204 C205 1.399 . S
C205 C204 1.399 . S
C205 C206 1.396 . S
C205 C208 1.453 . S
C205 C209 1.684 . S
C206 C187 1.723 . S
C206 C205 1.396 . S
C206 C207 1.394 . S
C207 C203 1.397 . S
C207 C206 1.394 . S
C207 C217 1.723 . S
C208 C205 1.453 . S
C208 H232 0.982 . S
C208 H233 0.979 . S
C208 H234 0.977 . S
C209 C205 1.684 . S
C209 H235 0.979 . S
C209 H236 0.980 . S
C209 H237 0.983 . S
C210 H186 0.948 . S
C210 C211 1.391 . S
C210 C215 1.391 . S
C211 C210 1.391 . S
C211 C212 1.391 . S
C212 H189 0.947 . S
C212 C211 1.391 . S
C212 C213 1.392 . S
C213 H190 0.948 . S
C213 C212 1.392 . S
C213 C214 1.419 . S
C214 C213 1.419 . S
C214 C215 1.391 . S
C214 C218 1.397 . S
C215 C210 1.391 . S
C215 C214 1.391 . S
C215 C216 1.399 . S
C216 C215 1.399 . S
C216 C217 1.396 . S
C216 C219 1.453 . S
C216 C220 1.684 . S
C217 C207 1.723 . S
C217 C216 1.396 . S
C217 C218 1.394 . S
C218 C188 1.723 . S
C218 C214 1.397 . S
C218 C217 1.394 . S
C219 H191 0.982 . S
C219 H195 0.979 . S
C219 H196 0.977 . S
C219 C216 1.453 . S
C220 H192 0.979 . S
C220 H193 0.980 . S
C220 H194 0.983 . S
C220 C216 1.684 . S
H221 C239 0.948 . S
H222 C180 0.948 . S
H223 C198 0.979 . S
H224 C198 0.980 . S
H225 C198 0.983 . S
H226 C197 0.982 . S
H227 C197 0.979 . S
H228 C197 0.977 . S
H229 C199 0.948 . S
H230 C201 0.947 . S
H231 C202 0.948 . S
H232 C208 0.982 . S
H233 C208 0.979 . S
H234 C208 0.977 . S
H235 C209 0.979 . S
H236 C209 0.980 . S
H237 C209 0.983 . S
H238 C182 0.947 . S
C239 C182 1.392 . S
C239 C183 1.419 . S
C239 H221 0.948 . S
C240 C241 1.391 . S
C240 C244 1.391 . S
C240 H282 0.948 . S
C241 C240 1.391 . S
C241 C242 1.391 . S
C242 C241 1.391 . S
C242 H298 0.947 . S
C242 C299 1.392 . S
C243 C244 1.391 . S
C243 C247 1.397 . S
C243 C299 1.419 . S
C244 C240 1.391 . S
C244 C243 1.391 . S
C244 C245 1.399 . S
C245 C244 1.399 . S
C245 C248 1.396 . S
C245 C257 1.453 . S
C245 C258 1.684 . S
H246 C270 0.948 . S
C247 C243 1.397 . S
C247 C248 1.394 . S
C247 C266 1.723 . S
C248 C245 1.396 . S
C248 C247 1.394 . S
C248 C278 1.723 . S
H249 C272 0.947 . S
H250 C273 0.948 . S
H251 C279 0.982 . S
H252 C280 0.979 . S
H253 C280 0.980 . S
H254 C280 0.983 . S
H255 C279 0.979 . S
H256 C279 0.977 . S
C257 C245 1.453 . S
C257 H286 0.982 . S
C257 H287 0.979 . S
C257 H288 0.977 . S
C258 C245 1.684 . S
C258 H283 0.979 . S
C258 H284 0.980 . S
C258 H285 0.983 . S
C259 C260 1.391 . S
C259 C264 1.391 . S
C259 H289 0.948 . S
C260 C259 1.391 . S
C260 C261 1.391 . S
C261 C260 1.391 . S
C261 C262 1.392 . S
C261 H290 0.947 . S
C262 C261 1.392 . S
C262 C263 1.419 . S
C262 H291 0.948 . S
C263 C262 1.419 . S
C263 C264 1.391 . S
C263 C267 1.397 . S
C264 C259 1.391 . S
C264 C263 1.391 . S
C264 C265 1.399 . S
C265 C264 1.399 . S
C265 C266 1.396 . S
C265 C268 1.453 . S
C265 C269 1.684 . S
C266 C247 1.723 . S
C266 C265 1.396 . S
C266 C267 1.394 . S
C267 C263 1.397 . S
C267 C266 1.394 . S
C267 C277 1.723 . S
C268 C265 1.453 . S
C268 H292 0.982 . S
C268 H293 0.979 . S
C268 H294 0.977 . S
C269 C265 1.684 . S
C269 H295 0.979 . S
C269 H296 0.980 . S
C269 H297 0.983 . S
C270 H246 0.948 . S
C270 C271 1.391 . S
C270 C275 1.391 . S
C271 C270 1.391 . S
C271 C272 1.391 . S
C272 H249 0.947 . S
C272 C271 1.391 . S
C272 C273 1.392 . S
C273 H250 0.948 . S
C273 C272 1.392 . S
C273 C274 1.419 . S
C274 C273 1.419 . S
C274 C275 1.391 . S
C274 C278 1.397 . S
C275 C270 1.391 . S
C275 C274 1.391 . S
C275 C276 1.399 . S
C276 C275 1.399 . S
C276 C277 1.396 . S
C276 C279 1.453 . S
C276 C280 1.684 . S
C277 C267 1.723 . S
C277 C276 1.396 . S
C277 C278 1.394 . S
C278 C248 1.723 . S
C278 C274 1.397 . S
C278 C277 1.394 . S
C279 H251 0.982 . S
C279 H255 0.979 . S
C279 H256 0.977 . S
C279 C276 1.453 . S
C280 H252 0.979 . S
C280 H253 0.980 . S
C280 H254 0.983 . S
C280 C276 1.684 . S
H281 C299 0.948 . S
H282 C240 0.948 . S
H283 C258 0.979 . S
H284 C258 0.980 . S
H285 C258 0.983 . S
H286 C257 0.982 . S
H287 C257 0.979 . S
H288 C257 0.977 . S
H289 C259 0.948 . S
H290 C261 0.947 . S
H291 C262 0.948 . S
H292 C268 0.982 . S
H293 C268 0.979 . S
H294 C268 0.977 . S
H295 C269 0.979 . S
H296 C269 0.980 . S
H297 C269 0.983 . S
H298 C242 0.947 . S
C299 C242 1.392 . S
C299 C243 1.419 . S
C299 H281 0.948 . S
C300 C301 1.391 . S
C300 C304 1.391 . S
C300 H342 0.948 . S
C301 C300 1.391 . S
C301 C302 1.391 . S
C302 C301 1.391 . S
C302 H358 0.947 . S
C302 C359 1.392 . S
C303 C304 1.391 . S
C303 C307 1.397 . S
C303 C359 1.419 . S
C304 C300 1.391 . S
C304 C303 1.391 . S
C304 C305 1.399 . S
C305 C304 1.399 . S
C305 C308 1.396 . S
C305 C317 1.453 . S
C305 C318 1.684 . S
H306 C330 0.948 . S
C307 C303 1.397 . S
C307 C308 1.394 . S
C307 C326 1.723 . S
C308 C305 1.396 . S
C308 C307 1.394 . S
C308 C338 1.723 . S
H309 C332 0.947 . S
H310 C333 0.948 . S
H311 C339 0.982 . S
H312 C340 0.979 . S
H313 C340 0.980 . S
H314 C340 0.983 . S
H315 C339 0.979 . S
H316 C339 0.977 . S
C317 C305 1.453 . S
C317 H346 0.982 . S
C317 H347 0.979 . S
C317 H348 0.977 . S
C318 C305 1.684 . S
C318 H343 0.979 . S
C318 H344 0.980 . S
C318 H345 0.983 . S
C319 C320 1.391 . S
C319 C324 1.391 . S
C319 H349 0.948 . S
C320 C319 1.391 . S
C320 C321 1.391 . S
C321 C320 1.391 . S
C321 C322 1.392 . S
C321 H350 0.947 . S
C322 C321 1.392 . S
C322 C323 1.419 . S
C322 H351 0.948 . S
C323 C322 1.419 . S
C323 C324 1.391 . S
C323 C327 1.397 . S
C324 C319 1.391 . S
C324 C323 1.391 . S
C324 C325 1.399 . S
C325 C324 1.399 . S
C325 C326 1.396 . S
C325 C328 1.453 . S
C325 C329 1.684 . S
C326 C307 1.723 . S
C326 C325 1.396 . S
C326 C327 1.394 . S
C327 C323 1.397 . S
C327 C326 1.394 . S
C327 C337 1.723 . S
C328 C325 1.453 . S
C328 H352 0.982 . S
C328 H353 0.979 . S
C328 H354 0.977 . S
C329 C325 1.684 . S
C329 H355 0.979 . S
C329 H356 0.980 . S
C329 H357 0.983 . S
C330 H306 0.948 . S
C330 C331 1.391 . S
C330 C335 1.391 . S
C331 C330 1.391 . S
C331 C332 1.391 . S
C332 H309 0.947 . S
C332 C331 1.391 . S
C332 C333 1.392 . S
C333 H310 0.948 . S
C333 C332 1.392 . S
C333 C334 1.419 . S
C334 C333 1.419 . S
C334 C335 1.391 . S
C334 C338 1.397 . S
C335 C330 1.391 . S
C335 C334 1.391 . S
C335 C336 1.399 . S
C336 C335 1.399 . S
C336 C337 1.396 . S
C336 C339 1.453 . S
C336 C340 1.684 . S
C337 C327 1.723 . S
C337 C336 1.396 . S
C337 C338 1.394 . S
C338 C308 1.723 . S
C338 C334 1.397 . S
C338 C337 1.394 . S
C339 H311 0.982 . S
C339 H315 0.979 . S
C339 H316 0.977 . S
C339 C336 1.453 . S
C340 H312 0.979 . S
C340 H313 0.980 . S
C340 H314 0.983 . S
C340 C336 1.684 . S
H341 C359 0.948 . S
H342 C300 0.948 . S
H343 C318 0.979 . S
H344 C318 0.980 . S
H345 C318 0.983 . S
H346 C317 0.982 . S
H347 C317 0.979 . S
H348 C317 0.977 . S
H349 C319 0.948 . S
H350 C321 0.947 . S
H351 C322 0.948 . S
H352 C328 0.982 . S
H353 C328 0.979 . S
H354 C328 0.977 . S
H355 C329 0.979 . S
H356 C329 0.980 . S
H357 C329 0.983 . S
H358 C302 0.947 . S
C359 C302 1.392 . S
C359 C303 1.419 . S
C359 H341 0.948 . S
C360 C361 1.391 . S
C360 C364 1.391 . S
C360 H402 0.948 . S
C361 C360 1.391 . S
C361 C362 1.391 . S
C362 C361 1.391 . S
C362 H418 0.947 . S
C362 C419 1.392 . S
C363 C364 1.391 . S
C363 C367 1.397 . S
C363 C419 1.419 . S
C364 C360 1.391 . S
C364 C363 1.391 . S
C364 C365 1.399 . S
C365 C364 1.399 . S
C365 C368 1.396 . S
C365 C377 1.453 . S
C365 C378 1.684 . S
H366 C390 0.948 . S
C367 C363 1.397 . S
C367 C368 1.394 . S
C367 C386 1.723 . S
C368 C365 1.396 . S
C368 C367 1.394 . S
C368 C398 1.723 . S
H369 C392 0.947 . S
H370 C393 0.948 . S
H371 C399 0.982 . S
H372 C400 0.979 . S
H373 C400 0.980 . S
H374 C400 0.983 . S
H375 C399 0.979 . S
H376 C399 0.977 . S
C377 C365 1.453 . S
C377 H406 0.982 . S
C377 H407 0.979 . S
C377 H408 0.977 . S
C378 C365 1.684 . S
C378 H403 0.979 . S
C378 H404 0.980 . S
C378 H405 0.983 . S
C379 C380 1.391 . S
C379 C384 1.391 . S
C379 H409 0.948 . S
C380 C379 1.391 . S
C380 C381 1.391 . S
C381 C380 1.391 . S
C381 C382 1.392 . S
C381 H410 0.947 . S
C382 C381 1.392 . S
C382 C383 1.419 . S
C382 H411 0.948 . S
C383 C382 1.419 . S
C383 C384 1.391 . S
C383 C387 1.397 . S
C384 C379 1.391 . S
C384 C383 1.391 . S
C384 C385 1.399 . S
C385 C384 1.399 . S
C385 C386 1.396 . S
C385 C388 1.453 . S
C385 C389 1.684 . S
C386 C367 1.723 . S
C386 C385 1.396 . S
C386 C387 1.394 . S
C387 C383 1.397 . S
C387 C386 1.394 . S
C387 C397 1.723 . S
C388 C385 1.453 . S
C388 H412 0.982 . S
C388 H413 0.979 . S
C388 H414 0.977 . S
C389 C385 1.684 . S
C389 H415 0.979 . S
C389 H416 0.980 . S
C389 H417 0.983 . S
C390 H366 0.948 . S
C390 C391 1.391 . S
C390 C395 1.391 . S
C391 C390 1.391 . S
C391 C392 1.391 . S
C392 H369 0.947 . S
C392 C391 1.391 . S
C392 C393 1.392 . S
C393 H370 0.948 . S
C393 C392 1.392 . S
C393 C394 1.419 . S
C394 C393 1.419 . S
C394 C395 1.391 . S
C394 C398 1.397 . S
C395 C390 1.391 . S
C395 C394 1.391 . S
C395 C396 1.399 . S
C396 C395 1.399 . S
C396 C397 1.396 . S
C396 C399 1.453 . S
C396 C400 1.684 . S
C397 C387 1.723 . S
C397 C396 1.396 . S
C397 C398 1.394 . S
C398 C368 1.723 . S
C398 C394 1.397 . S
C398 C397 1.394 . S
C399 H371 0.982 . S
C399 H375 0.979 . S
C399 H376 0.977 . S
C399 C396 1.453 . S
C400 H372 0.979 . S
C400 H373 0.980 . S
C400 H374 0.983 . S
C400 C396 1.684 . S
H401 C419 0.948 . S
H402 C360 0.948 . S
H403 C378 0.979 . S
H404 C378 0.980 . S
H405 C378 0.983 . S
H406 C377 0.982 . S
H407 C377 0.979 . S
H408 C377 0.977 . S
H409 C379 0.948 . S
H410 C381 0.947 . S
H411 C382 0.948 . S
H412 C388 0.982 . S
H413 C388 0.979 . S
H414 C388 0.977 . S
H415 C389 0.979 . S
H416 C389 0.980 . S
H417 C389 0.983 . S
H418 C362 0.947 . S
C419 C362 1.392 . S
C419 C363 1.419 . S
C419 H401 0.948 . S
C420 C421 1.391 . S
C420 C424 1.391 . S
C420 H462 0.948 . S
C421 C420 1.391 . S
C421 C422 1.391 . S
C422 C421 1.391 . S
C422 H478 0.947 . S
C422 C479 1.392 . S
C423 C424 1.391 . S
C423 C427 1.397 . S
C423 C479 1.419 . S
C424 C420 1.391 . S
C424 C423 1.391 . S
C424 C425 1.399 . S
C425 C424 1.399 . S
C425 C428 1.396 . S
C425 C437 1.453 . S
C425 C438 1.684 . S
H426 C450 0.948 . S
C427 C423 1.397 . S
C427 C428 1.394 . S
C427 C446 1.723 . S
C428 C425 1.396 . S
C428 C427 1.394 . S
C428 C458 1.723 . S
H429 C452 0.947 . S
H430 C453 0.948 . S
H431 C459 0.982 . S
H432 C460 0.979 . S
H433 C460 0.980 . S
H434 C460 0.983 . S
H435 C459 0.979 . S
H436 C459 0.977 . S
C437 C425 1.453 . S
C437 H466 0.982 . S
C437 H467 0.979 . S
C437 H468 0.977 . S
C438 C425 1.684 . S
C438 H463 0.979 . S
C438 H464 0.980 . S
C438 H465 0.983 . S
C439 C440 1.391 . S
C439 C444 1.391 . S
C439 H469 0.948 . S
C440 C439 1.391 . S
C440 C441 1.391 . S
C441 C440 1.391 . S
C441 C442 1.392 . S
C441 H470 0.947 . S
C442 C441 1.392 . S
C442 C443 1.419 . S
C442 H471 0.948 . S
C443 C442 1.419 . S
C443 C444 1.391 . S
C443 C447 1.397 . S
C444 C439 1.391 . S
C444 C443 1.391 . S
C444 C445 1.399 . S
C445 C444 1.399 . S
C445 C446 1.396 . S
C445 C448 1.453 . S
C445 C449 1.684 . S
C446 C427 1.723 . S
C446 C445 1.396 . S
C446 C447 1.394 . S
C447 C443 1.397 . S
C447 C446 1.394 . S
C447 C457 1.723 . S
C448 C445 1.453 . S
C448 H472 0.982 . S
C448 H473 0.979 . S
C448 H474 0.977 . S
C449 C445 1.684 . S
C449 H475 0.979 . S
C449 H476 0.980 . S
C449 H477 0.983 . S
C450 H426 0.948 . S
C450 C451 1.391 . S
C450 C455 1.391 . S
C451 C450 1.391 . S
C451 C452 1.391 . S
C452 H429 0.947 . S
C452 C451 1.391 . S
C452 C453 1.392 . S
C453 H430 0.948 . S
C453 C452 1.392 . S
C453 C454 1.419 . S
C454 C453 1.419 . S
C454 C455 1.391 . S
C454 C458 1.397 . S
C455 C450 1.391 . S
C455 C454 1.391 . S
C455 C456 1.399 . S
C456 C455 1.399 . S
C456 C457 1.396 . S
C456 C459 1.453 . S
C456 C460 1.684 . S
C457 C447 1.723 . S
C457 C456 1.396 . S
C457 C458 1.394 . S
C458 C428 1.723 . S
C458 C454 1.397 . S
C458 C457 1.394 . S
C459 H431 0.982 . S
C459 H435 0.979 . S
C459 H436 0.977 . S
C459 C456 1.453 . S
C460 H432 0.979 . S
C460 H433 0.980 . S
C460 H434 0.983 . S
C460 C456 1.684 . S
H461 C479 0.948 . S
H462 C420 0.948 . S
H463 C438 0.979 . S
H464 C438 0.980 . S
H465 C438 0.983 . S
H466 C437 0.982 . S
H467 C437 0.979 . S
H468 C437 0.977 . S
H469 C439 0.948 . S
H470 C441 0.947 . S
H471 C442 0.948 . S
H472 C448 0.982 . S
H473 C448 0.979 . S
H474 C448 0.977 . S
H475 C449 0.979 . S
H476 C449 0.980 . S
H477 C449 0.983 . S
H478 C422 0.947 . S
C479 C422 1.392 . S
C479 C423 1.419 . S
C479 H461 0.948 . S
C480 C481 1.391 . S
C480 C484 1.391 . S
C480 H522 0.948 . S
C481 C480 1.391 . S
C481 C482 1.391 . S
C482 C481 1.391 . S
C482 H538 0.947 . S
C482 C539 1.392 . S
C483 C484 1.391 . S
C483 C487 1.397 . S
C483 C539 1.419 . S
C484 C480 1.391 . S
C484 C483 1.391 . S
C484 C485 1.399 . S
C485 C484 1.399 . S
C485 C488 1.396 . S
C485 C497 1.453 . S
C485 C498 1.684 . S
H486 C510 0.948 . S
C487 C483 1.397 . S
C487 C488 1.394 . S
C487 C506 1.723 . S
C488 C485 1.396 . S
C488 C487 1.394 . S
C488 C518 1.723 . S
H489 C512 0.947 . S
H490 C513 0.948 . S
H491 C519 0.982 . S
H492 C520 0.979 . S
H493 C520 0.980 . S
H494 C520 0.983 . S
H495 C519 0.979 . S
H496 C519 0.977 . S
C497 C485 1.453 . S
C497 H526 0.982 . S
C497 H527 0.979 . S
C497 H528 0.977 . S
C498 C485 1.684 . S
C498 H523 0.979 . S
C498 H524 0.980 . S
C498 H525 0.983 . S
C499 C500 1.391 . S
C499 C504 1.391 . S
C499 H529 0.948 . S
C500 C499 1.391 . S
C500 C501 1.391 . S
C501 C500 1.391 . S
C501 C502 1.392 . S
C501 H530 0.947 . S
C502 C501 1.392 . S
C502 C503 1.419 . S
C502 H531 0.948 . S
C503 C502 1.419 . S
C503 C504 1.391 . S
C503 C507 1.397 . S
C504 C499 1.391 . S
C504 C503 1.391 . S
C504 C505 1.399 . S
C505 C504 1.399 . S
C505 C506 1.396 . S
C505 C508 1.453 . S
C505 C509 1.684 . S
C506 C487 1.723 . S
C506 C505 1.396 . S
C506 C507 1.394 . S
C507 C503 1.397 . S
C507 C506 1.394 . S
C507 C517 1.723 . S
C508 C505 1.453 . S
C508 H532 0.982 . S
C508 H533 0.979 . S
C508 H534 0.977 . S
C509 C505 1.684 . S
C509 H535 0.979 . S
C509 H536 0.980 . S
C509 H537 0.983 . S
C510 H486 0.948 . S
C510 C511 1.391 . S
C510 C515 1.391 . S
C511 C510 1.391 . S
C511 C512 1.391 . S
C512 H489 0.947 . S
C512 C511 1.391 . S
C512 C513 1.392 . S
C513 H490 0.948 . S
C513 C512 1.392 . S
C513 C514 1.419 . S
C514 C513 1.419 . S
C514 C515 1.391 . S
C514 C518 1.397 . S
C515 C510 1.391 . S
C515 C514 1.391 . S
C515 C516 1.399 . S
C516 C515 1.399 . S
C516 C517 1.396 . S
C516 C519 1.453 . S
C516 C520 1.684 . S
C517 C507 1.723 . S
C517 C516 1.396 . S
C517 C518 1.394 . S
C518 C488 1.723 . S
C518 C514 1.397 . S
C518 C517 1.394 . S
C519 H491 0.982 . S
C519 H495 0.979 . S
C519 H496 0.977 . S
C519 C516 1.453 . S
C520 H492 0.979 . S
C520 H493 0.980 . S
C520 H494 0.983 . S
C520 C516 1.684 . S
H521 C539 0.948 . S
H522 C480 0.948 . S
H523 C498 0.979 . S
H524 C498 0.980 . S
H525 C498 0.983 . S
H526 C497 0.982 . S
H527 C497 0.979 . S
H528 C497 0.977 . S
H529 C499 0.948 . S
H530 C501 0.947 . S
H531 C502 0.948 . S
H532 C508 0.982 . S
H533 C508 0.979 . S
H534 C508 0.977 . S
H535 C509 0.979 . S
H536 C509 0.980 . S
H537 C509 0.983 . S
H538 C482 0.947 . S
C539 C482 1.392 . S
C539 C483 1.419 . S
C539 H521 0.948 . S
C540 C541 1.391 . S
C540 C544 1.391 . S
C540 H582 0.948 . S
C541 C540 1.391 . S
C541 C542 1.391 . S
C542 C541 1.391 . S
C542 H598 0.947 . S
C542 C599 1.392 . S
C543 C544 1.391 . S
C543 C547 1.397 . S
C543 C599 1.419 . S
C544 C540 1.391 . S
C544 C543 1.391 . S
C544 C545 1.399 . S
C545 C544 1.399 . S
C545 C548 1.396 . S
C545 C557 1.453 . S
C545 C558 1.684 . S
H546 C570 0.948 . S
C547 C543 1.397 . S
C547 C548 1.394 . S
C547 C566 1.723 . S
C548 C545 1.396 . S
C548 C547 1.394 . S
C548 C578 1.723 . S
H549 C572 0.947 . S
H550 C573 0.948 . S
H551 C579 0.982 . S
H552 C580 0.979 . S
H553 C580 0.980 . S
H554 C580 0.983 . S
H555 C579 0.979 . S
H556 C579 0.977 . S
C557 C545 1.453 . S
C557 H586 0.982 . S
C557 H587 0.979 . S
C557 H588 0.977 . S
C558 C545 1.684 . S
C558 H583 0.979 . S
C558 H584 0.980 . S
C558 H585 0.983 . S
C559 C560 1.391 . S
C559 C564 1.391 . S
C559 H589 0.948 . S
C560 C559 1.391 . S
C560 C561 1.391 . S
C561 C560 1.391 . S
C561 C562 1.392 . S
C561 H590 0.947 . S
C562 C561 1.392 . S
C562 C563 1.419 . S
C562 H591 0.948 . S
C563 C562 1.419 . S
C563 C564 1.391 . S
C563 C567 1.397 . S
C564 C559 1.391 . S
C564 C563 1.391 . S
C564 C565 1.399 . S
C565 C564 1.399 . S
C565 C566 1.396 . S
C565 C568 1.453 . S
C565 C569 1.684 . S
C566 C547 1.723 . S
C566 C565 1.396 . S
C566 C567 1.394 . S
C567 C563 1.397 . S
C567 C566 1.394 . S
C567 C577 1.723 . S
C568 C565 1.453 . S
C568 H592 0.982 . S
C568 H593 0.979 . S
C568 H594 0.977 . S
C569 C565 1.684 . S
C569 H595 0.979 . S
C569 H596 0.980 . S
C569 H597 0.983 . S
C570 H546 0.948 . S
C570 C571 1.391 . S
C570 C575 1.391 . S
C571 C570 1.391 . S
C571 C572 1.391 . S
C572 H549 0.947 . S
C572 C571 1.391 . S
C572 C573 1.392 . S
C573 H550 0.948 . S
C573 C572 1.392 . S
C573 C574 1.419 . S
C574 C573 1.419 . S
C574 C575 1.391 . S
C574 C578 1.397 . S
C575 C570 1.391 . S
C575 C574 1.391 . S
C575 C576 1.399 . S
C576 C575 1.399 . S
C576 C577 1.396 . S
C576 C579 1.453 . S
C576 C580 1.684 . S
C577 C567 1.723 . S
C577 C576 1.396 . S
C577 C578 1.394 . S
C578 C548 1.723 . S
C578 C574 1.397 . S
C578 C577 1.394 . S
C579 H551 0.982 . S
C579 H555 0.979 . S
C579 H556 0.977 . S
C579 C576 1.453 . S
C580 H552 0.979 . S
C580 H553 0.980 . S
C580 H554 0.983 . S
C580 C576 1.684 . S
H581 C599 0.948 . S
H582 C540 0.948 . S
H583 C558 0.979 . S
H584 C558 0.980 . S
H585 C558 0.983 . S
H586 C557 0.982 . S
H587 C557 0.979 . S
H588 C557 0.977 . S
H589 C559 0.948 . S
H590 C561 0.947 . S
H591 C562 0.948 . S
H592 C568 0.982 . S
H593 C568 0.979 . S
H594 C568 0.977 . S
H595 C569 0.979 . S
H596 C569 0.980 . S
H597 C569 0.983 . S
H598 C542 0.947 . S
C599 C542 1.392 . S
C599 C543 1.419 . S
C599 H581 0.948 . S
C600 C601 1.391 . S
C600 C604 1.391 . S
C600 H642 0.948 . S
C601 C600 1.391 . S
C601 C602 1.391 . S
C602 C601 1.391 . S
C602 H658 0.947 . S
C602 C659 1.392 . S
C603 C604 1.391 . S
C603 C607 1.397 . S
C603 C659 1.419 . S
C604 C600 1.391 . S
C604 C603 1.391 . S
C604 C605 1.399 . S
C605 C604 1.399 . S
C605 C608 1.396 . S
C605 C617 1.453 . S
C605 C618 1.684 . S
H606 C630 0.948 . S
C607 C603 1.397 . S
C607 C608 1.394 . S
C607 C626 1.723 . S
C608 C605 1.396 . S
C608 C607 1.394 . S
C608 C638 1.723 . S
H609 C632 0.947 . S
H610 C633 0.948 . S
H611 C639 0.982 . S
H612 C640 0.979 . S
H613 C640 0.980 . S
H614 C640 0.983 . S
H615 C639 0.979 . S
H616 C639 0.977 . S
C617 C605 1.453 . S
C617 H646 0.982 . S
C617 H647 0.979 . S
C617 H648 0.977 . S
C618 C605 1.684 . S
C618 H643 0.979 . S
C618 H644 0.980 . S
C618 H645 0.983 . S
C619 C620 1.391 . S
C619 C624 1.391 . S
C619 H649 0.948 . S
C620 C619 1.391 . S
C620 C621 1.391 . S
C621 C620 1.391 . S
C621 C622 1.392 . S
C621 H650 0.947 . S
C622 C621 1.392 . S
C622 C623 1.419 . S
C622 H651 0.948 . S
C623 C622 1.419 . S
C623 C624 1.391 . S
C623 C627 1.397 . S
C624 C619 1.391 . S
C624 C623 1.391 . S
C624 C625 1.399 . S
C625 C624 1.399 . S
C625 C626 1.396 . S
C625 C628 1.453 . S
C625 C629 1.684 . S
C626 C607 1.723 . S
C626 C625 1.396 . S
C626 C627 1.394 . S
C627 C623 1.397 . S
C627 C626 1.394 . S
C627 C637 1.723 . S
C628 C625 1.453 . S
C628 H652 0.982 . S
C628 H653 0.979 . S
C628 H654 0.977 . S
C629 C625 1.684 . S
C629 H655 0.979 . S
C629 H656 0.980 . S
C629 H657 0.983 . S
C630 H606 0.948 . S
C630 C631 1.391 . S
C630 C635 1.391 . S
C631 C630 1.391 . S
C631 C632 1.391 . S
C632 H609 0.947 . S
C632 C631 1.391 . S
C632 C633 1.392 . S
C633 H610 0.948 . S
C633 C632 1.392 . S
C633 C634 1.419 . S
C634 C633 1.419 . S
C634 C635 1.391 . S
C634 C638 1.397 . S
C635 C630 1.391 . S
C635 C634 1.391 . S
C635 C636 1.399 . S
C636 C635 1.399 . S
C636 C637 1.396 . S
C636 C639 1.453 . S
C636 C640 1.684 . S
C637 C627 1.723 . S
C637 C636 1.396 . S
C637 C638 1.394 . S
C638 C608 1.723 . S
C638 C634 1.397 . S
C638 C637 1.394 . S
C639 H611 0.982 . S
C639 H615 0.979 . S
C639 H616 0.977 . S
C639 C636 1.453 . S
C640 H612 0.979 . S
C640 H613 0.980 . S
C640 H614 0.983 . S
C640 C636 1.684 . S
H641 C659 0.948 . S
H642 C600 0.948 . S
H643 C618 0.979 . S
H644 C618 0.980 . S
H645 C618 0.983 . S
H646 C617 0.982 . S
H647 C617 0.979 . S
H648 C617 0.977 . S
H649 C619 0.948 . S
H650 C621 0.947 . S
H651 C622 0.948 . S
H652 C628 0.982 . S
H653 C628 0.979 . S
H654 C628 0.977 . S
H655 C629 0.979 . S
H656 C629 0.980 . S
H657 C629 0.983 . S
H658 C602 0.947 . S
C659 C602 1.392 . S
C659 C603 1.419 . S
C659 H641 0.948 . S
C660 C661 1.391 . S
C660 C664 1.391 . S
C660 H702 0.948 . S
C661 C660 1.391 . S
C661 C662 1.391 . S
C662 C661 1.391 . S
C662 H718 0.947 . S
C662 C719 1.392 . S
C663 C664 1.391 . S
C663 C667 1.397 . S
C663 C719 1.419 . S
C664 C660 1.391 . S
C664 C663 1.391 . S
C664 C665 1.399 . S
C665 C664 1.399 . S
C665 C668 1.396 . S
C665 C677 1.453 . S
C665 C678 1.684 . S
H666 C690 0.948 . S
C667 C663 1.397 . S
C667 C668 1.394 . S
C667 C686 1.723 . S
C668 C665 1.396 . S
C668 C667 1.394 . S
C668 C698 1.723 . S
H669 C692 0.947 . S
H670 C693 0.948 . S
H671 C699 0.982 . S
H672 C700 0.979 . S
H673 C700 0.980 . S
H674 C700 0.983 . S
H675 C699 0.979 . S
H676 C699 0.977 . S
C677 C665 1.453 . S
C677 H706 0.982 . S
C677 H707 0.979 . S
C677 H708 0.977 . S
C678 C665 1.684 . S
C678 H703 0.979 . S
C678 H704 0.980 . S
C678 H705 0.983 . S
C679 C680 1.391 . S
C679 C684 1.391 . S
C679 H709 0.948 . S
C680 C679 1.391 . S
C680 C681 1.391 . S
C681 C680 1.391 . S
C681 C682 1.392 . S
C681 H710 0.947 . S
C682 C681 1.392 . S
C682 C683 1.419 . S
C682 H711 0.948 . S
C683 C682 1.419 . S
C683 C684 1.391 . S
C683 C687 1.397 . S
C684 C679 1.391 . S
C684 C683 1.391 . S
C684 C685 1.399 . S
C685 C684 1.399 . S
C685 C686 1.396 . S
C685 C688 1.453 . S
C685 C689 1.684 . S
C686 C667 1.723 . S
C686 C685 1.396 . S
C686 C687 1.394 . S
C687 C683 1.397 . S
C687 C686 1.394 . S
C687 C697 1.723 . S
C688 C685 1.453 . S
C688 H712 0.982 . S
C688 H713 0.979 . S
C688 H714 0.977 . S
C689 C685 1.684 . S
C689 H715 0.979 . S
C689 H716 0.980 . S
C689 H717 0.983 . S
C690 H666 0.948 . S
C690 C691 1.391 . S
C690 C695 1.391 . S
C691 C690 1.391 . S
C691 C692 1.391 . S
C692 H669 0.947 . S
C692 C691 1.391 . S
C692 C693 1.392 . S
C693 H670 0.948 . S
C693 C692 1.392 . S
C693 C694 1.419 . S
C694 C693 1.419 . S
C694 C695 1.391 . S
C694 C698 1.397 . S
C695 C690 1.391 . S
C695 C694 1.391 . S
C695 C696 1.399 . S
C696 C695 1.399 . S
C696 C697 1.396 . S
C696 C699 1.453 . S
C696 C700 1.684 . S
C697 C687 1.723 . S
C697 C696 1.396 . S
C697 C698 1.394 . S
C698 C668 1.723 . S
C698 C694 1.397 . S
C698 C697 1.394 . S
C699 H671 0.982 . S
C699 H675 0.979 . S
C699 H676 0.977 . S
C699 C696 1.453 . S
C700 H672 0.979 . S
C700 H673 0.980 . S
C700 H674 0.983 . S
C700 C696 1.684 . S
H701 C719 0.948 . S
H702 C660 0.948 . S
H703 C678 0.979 . S
H704 C678 0.980 . S
H705 C678 0.983 . S
H706 C677 0.982 . S
H707 C677 0.979 . S
H708 C677 0.977 . S
H709 C679 0.948 . S
H710 C681 0.947 . S
H711 C682 0.948 . S
H712 C688 0.982 . S
H713 C688 0.979 . S
H714 C688 0.977 . S
H715 C689 0.979 . S
H716 C689 0.980 . S
H717 C689 0.983 . S
H718 C662 0.947 . S
C719 C662 1.392 . S
C719 C663 1.419 . S
C719 H701 0.948 . S
C720 C721 1.391 . S
C720 C724 1.391 . S
C720 H762 0.948 . S
C721 C720 1.391 . S
C721 C722 1.391 . S
C722 C721 1.391 . S
C722 H778 0.947 . S
C722 C779 1.392 . S
C723 C724 1.391 . S
C723 C727 1.397 . S
C723 C779 1.419 . S
C724 C720 1.391 . S
C724 C723 1.391 . S
C724 C725 1.399 . S
C725 C724 1.399 . S
C725 C728 1.396 . S
C725 C737 1.453 . S
C725 C738 1.684 . S
H726 C750 0.948 . S
C727 C723 1.397 . S
C727 C728 1.394 . S
C727 C746 1.723 . S
C728 C725 1.396 . S
C728 C727 1.394 . S
C728 C758 1.723 . S
H729 C752 0.947 . S
H730 C753 0.948 . S
H731 C759 0.982 . S
H732 C760 0.979 . S
H733 C760 0.980 . S
H734 C760 0.983 . S
H735 C759 0.979 . S
H736 C759 0.977 . S
C737 C725 1.453 . S
C737 H766 0.982 . S
C737 H767 0.979 . S
C737 H768 0.977 . S
C738 C725 1.684 . S
C738 H763 0.979 . S
C738 H764 0.980 . S
C738 H765 0.983 . S
C739 C740 1.391 . S
C739 C744 1.391 . S
C739 H769 0.948 . S
C740 C739 1.391 . S
C740 C741 1.391 . S
C741 C740 1.391 . S
C741 C742 1.392 . S
C741 H770 0.947 . S
C742 C741 1.392 . S
C742 C743 1.419 . S
C742 H771 0.948 . S
C743 C742 1.419 . S
C743 C744 1.391 . S
C743 C747 1.397 . S
C744 C739 1.391 . S
C744 C743 1.391 . S
C744 C745 1.399 . S
C745 C744 1.399 . S
C745 C746 1.396 . S
C745 C748 1.453 . S
C745 C749 1.684 . S
C746 C727 1.723 . S
C746 C745 1.396 . S
C746 C747 1.394 . S
C747 C743 1.397 . S
C747 C746 1.394 . S
C747 C757 1.723 . S
C748 C745 1.453 . S
C748 H772 0.982 . S
C748 H773 0.979 . S
C748 H774 0.977 . S
C749 C745 1.684 . S
C749 H775 0.979 . S
C749 H776 0.980 . S
C749 H777 0.983 . S
C750 H726 0.948 . S
C750 C751 1.391 . S
C750 C755 1.391 . S
C751 C750 1.391 . S
C751 C752 1.391 . S
C752 H729 0.947 . S
C752 C751 1.391 . S
C752 C753 1.392 . S
C753 H730 0.948 . S
C753 C752 1.392 . S
C753 C754 1.419 . S
C754 C753 1.419 . S
C754 C755 1.391 . S
C754 C758 1.397 . S
C755 C750 1.391 . S
C755 C754 1.391 . S
C755 C756 1.399 . S
C756 C755 1.399 . S
C756 C757 1.396 . S
C756 C759 1.453 . S
C756 C760 1.684 . S
C757 C747 1.723 . S
C757 C756 1.396 . S
C757 C758 1.394 . S
C758 C728 1.723 . S
C758 C754 1.397 . S
C758 C757 1.394 . S
C759 H731 0.982 . S
C759 H735 0.979 . S
C759 H736 0.977 . S
C759 C756 1.453 . S
C760 H732 0.979 . S
C760 H733 0.980 . S
C760 H734 0.983 . S
C760 C756 1.684 . S
H761 C779 0.948 . S
H762 C720 0.948 . S
H763 C738 0.979 . S
H764 C738 0.980 . S
H765 C738 0.983 . S
H766 C737 0.982 . S
H767 C737 0.979 . S
H768 C737 0.977 . S
H769 C739 0.948 . S
H770 C741 0.947 . S
H771 C742 0.948 . S
H772 C748 0.982 . S
H773 C748 0.979 . S
H774 C748 0.977 . S
H775 C749 0.979 . S
H776 C749 0.980 . S
H777 C749 0.983 . S
H778 C722 0.947 . S
C779 C722 1.392 . S
C779 C723 1.419 . S
C779 H761 0.948 . S
C780 C781 1.391 . S
C780 C784 1.391 . S
C780 H822 0.948 . S
C781 C780 1.391 . S
C781 C782 1.391 . S
C782 C781 1.391 . S
C782 H838 0.947 . S
C782 C839 1.392 . S
C783 C784 1.391 . S
C783 C787 1.397 . S
C783 C839 1.419 . S
C784 C780 1.391 . S
C784 C783 1.391 . S
C784 C785 1.399 . S
C785 C784 1.399 . S
C785 C788 1.396 . S
C785 C797 1.453 . S
C785 C798 1.684 . S
H786 C810 0.948 . S
C787 C783 1.397 . S
C787 C788 1.394 . S
C787 C806 1.723 . S
C788 C785 1.396 . S
C788 C787 1.394 . S
C788 C818 1.723 . S
H789 C812 0.947 . S
H790 C813 0.948 . S
H791 C819 0.982 . S
H792 C820 0.979 . S
H793 C820 0.980 . S
H794 C820 0.983 . S
H795 C819 0.979 . S
H796 C819 0.977 . S
C797 C785 1.453 . S
C797 H826 0.982 . S
C797 H827 0.979 . S
C797 H828 0.977 . S
C798 C785 1.684 . S
C798 H823 0.979 . S
C798 H824 0.980 . S
C798 H825 0.983 . S
C799 C800 1.391 . S
C799 C804 1.391 . S
C799 H829 0.948 . S
C800 C799 1.391 . S
C800 C801 1.391 . S
C801 C800 1.391 . S
C801 C802 1.392 . S
C801 H830 0.947 . S
C802 C801 1.392 . S
C802 C803 1.419 . S
C802 H831 0.948 . S
C803 C802 1.419 . S
C803 C804 1.391 . S
C803 C807 1.397 . S
C804 C799 1.391 . S
C804 C803 1.391 . S
C804 C805 1.399 . S
C805 C804 1.399 . S
C805 C806 1.396 . S
C805 C808 1.453 . S
C805 C809 1.684 . S
C806 C787 1.723 . S
C806 C805 1.396 . S
C806 C807 1.394 . S
C807 C803 1.397 . S
C807 C806 1.394 . S
C807 C817 1.723 . S
C808 C805 1.453 . S
C808 H832 0.982 . S
C808 H833 0.979 . S
C808 H834 0.977 . S
C809 C805 1.684 . S
C809 H835 0.979 . S
C809 H836 0.980 . S
C809 H837 0.983 . S
C810 H786 0.948 . S
C810 C811 1.391 . S
C810 C815 1.391 . S
C811 C810 1.391 . S
C811 C812 1.391 . S
C812 H789 0.947 . S
C812 C811 1.391 . S
C812 C813 1.392 . S
C813 H790 0.948 . S
C813 C812 1.392 . S
C813 C814 1.419 . S
C814 C813 1.419 . S
C814 C815 1.391 . S
C814 C818 1.397 . S
C815 C810 1.391 . S
C815 C814 1.391 . S
C815 C816 1.399 . S
C816 C815 1.399 . S
C816 C817 1.396 . S
C816 C819 1.453 . S
C816 C820 1.684 . S
C817 C807 1.723 . S
C817 C816 1.396 . S
C817 C818 1.394 . S
C818 C788 1.723 . S
C818 C814 1.397 . S
C818 C817 1.394 . S
C819 H791 0.982 . S
C819 H795 0.979 . S
C819 H796 0.977 . S
C819 C816 1.453 . S
C820 H792 0.979 . S
C820 H793 0.980 . S
C820 H794 0.983 . S
C820 C816 1.684 . S
H821 C839 0.948 . S
H822 C780 0.948 . S
H823 C798 0.979 . S
H824 C798 0.980 . S
H825 C798 0.983 . S
H826 C797 0.982 . S
H827 C797 0.979 . S
H828 C797 0.977 . S
H829 C799 0.948 . S
H830 C801 0.947 . S
H831 C802 0.948 . S
H832 C808 0.982 . S
H833 C808 0.979 . S
H834 C808 0.977 . S
H835 C809 0.979 . S
H836 C809 0.980 . S
H837 C809 0.983 . S
H838 C782 0.947 . S
C839 C782 1.392 . S
C839 C783 1.419 . S
C839 H821 0.948 . S
C840 C841 1.391 . S
C840 C844 1.391 . S
C840 H882 0.948 . S
C841 C840 1.391 . S
C841 C842 1.391 . S
C842 C841 1.391 . S
C842 H898 0.947 . S
C842 C899 1.392 . S
C843 C844 1.391 . S
C843 C847 1.397 . S
C843 C899 1.419 . S
C844 C840 1.391 . S
C844 C843 1.391 . S
C844 C845 1.399 . S
C845 C844 1.399 . S
C845 C848 1.396 . S
C845 C857 1.453 . S
C845 C858 1.684 . S
H846 C870 0.948 . S
C847 C843 1.397 . S
C847 C848 1.394 . S
C847 C866 1.723 . S
C848 C845 1.396 . S
C848 C847 1.394 . S
C848 C878 1.723 . S
H849 C872 0.947 . S
H850 C873 0.948 . S
H851 C879 0.982 . S
H852 C880 0.979 . S
H853 C880 0.980 . S
H854 C880 0.983 . S
H855 C879 0.979 . S
H856 C879 0.977 . S
C857 C845 1.453 . S
C857 H886 0.982 . S
C857 H887 0.979 . S
C857 H888 0.977 . S
C858 C845 1.684 . S
C858 H883 0.979 . S
C858 H884 0.980 . S
C858 H885 0.983 . S
C859 C860 1.391 . S
C859 C864 1.391 . S
C859 H889 0.948 . S
C860 C859 1.391 . S
C860 C861 1.391 . S
C861 C860 1.391 . S
C861 C862 1.392 . S
C861 H890 0.947 . S
C862 C861 1.392 . S
C862 C863 1.419 . S
C862 H891 0.948 . S
C863 C862 1.419 . S
C863 C864 1.391 . S
C863 C867 1.397 . S
C864 C859 1.391 . S
C864 C863 1.391 . S
C864 C865 1.399 . S
C865 C864 1.399 . S
C865 C866 1.396 . S
C865 C868 1.453 . S
C865 C869 1.684 . S
C866 C847 1.723 . S
C866 C865 1.396 . S
C866 C867 1.394 . S
C867 C863 1.397 . S
C867 C866 1.394 . S
C867 C877 1.723 . S
C868 C865 1.453 . S
C868 H892 0.982 . S
C868 H893 0.979 . S
C868 H894 0.977 . S
C869 C865 1.684 . S
C869 H895 0.979 . S
C869 H896 0.980 . S
C869 H897 0.983 . S
C870 H846 0.948 . S
C870 C871 1.391 . S
C870 C875 1.391 . S
C871 C870 1.391 . S
C871 C872 1.391 . S
C872 H849 0.947 . S
C872 C871 1.391 . S
C872 C873 1.392 . S
C873 H850 0.948 . S
C873 C872 1.392 . S
C873 C874 1.419 . S
C874 C873 1.419 . S
C874 C875 1.391 . S
C874 C878 1.397 . S
C875 C870 1.391 . S
C875 C874 1.391 . S
C875 C876 1.399 . S
C876 C875 1.399 . S
C876 C877 1.396 . S
C876 C879 1.453 . S
C876 C880 1.684 . S
C877 C867 1.723 . S
C877 C876 1.396 . S
C877 C878 1.394 . S
C878 C848 1.723 . S
C878 C874 1.397 . S
C878 C877 1.394 . S
C879 H851 0.982 . S
C879 H855 0.979 . S
C879 H856 0.977 . S
C879 C876 1.453 . S
C880 H852 0.979 . S
C880 H853 0.980 . S
C880 H854 0.983 . S
C880 C876 1.684 . S
H881 C899 0.948 . S
H882 C840 0.948 . S
H883 C858 0.979 . S
H884 C858 0.980 . S
H885 C858 0.983 . S
H886 C857 0.982 . S
H887 C857 0.979 . S
H888 C857 0.977 . S
H889 C859 0.948 . S
H890 C861 0.947 . S
H891 C862 0.948 . S
H892 C868 0.982 . S
H893 C868 0.979 . S
H894 C868 0.977 . S
H895 C869 0.979 . S
H896 C869 0.980 . S
H897 C869 0.983 . S
H898 C842 0.947 . S
C899 C842 1.392 . S
C899 C843 1.419 . S
C899 H881 0.948 . S
C900 C901 1.391 . S
C900 C904 1.391 . S
C900 H942 0.948 . S
C901 C900 1.391 . S
C901 C902 1.391 . S
C902 C901 1.391 . S
C902 H958 0.947 . S
C902 C959 1.392 . S
C903 C904 1.391 . S
C903 C907 1.397 . S
C903 C959 1.419 . S
C904 C900 1.391 . S
C904 C903 1.391 . S
C904 C905 1.399 . S
C905 C904 1.399 . S
C905 C908 1.396 . S
C905 C917 1.453 . S
C905 C918 1.684 . S
H906 C930 0.948 . S
C907 C903 1.397 . S
C907 C908 1.394 . S
C907 C926 1.723 . S
C908 C905 1.396 . S
C908 C907 1.394 . S
C908 C938 1.723 . S
H909 C932 0.947 . S
H910 C933 0.948 . S
H911 C939 0.982 . S
H912 C940 0.979 . S
H913 C940 0.980 . S
H914 C940 0.983 . S
H915 C939 0.979 . S
H916 C939 0.977 . S
C917 C905 1.453 . S
C917 H946 0.982 . S
C917 H947 0.979 . S
C917 H948 0.977 . S
C918 C905 1.684 . S
C918 H943 0.979 . S
C918 H944 0.980 . S
C918 H945 0.983 . S
C919 C920 1.391 . S
C919 C924 1.391 . S
C919 H949 0.948 . S
C920 C919 1.391 . S
C920 C921 1.391 . S
C921 C920 1.391 . S
C921 C922 1.392 . S
C921 H950 0.947 . S
C922 C921 1.392 . S
C922 C923 1.419 . S
C922 H951 0.948 . S
C923 C922 1.419 . S
C923 C924 1.391 . S
C923 C927 1.397 . S
C924 C919 1.391 . S
C924 C923 1.391 . S
C924 C925 1.399 . S
C925 C924 1.399 . S
C925 C926 1.396 . S
C925 C928 1.453 . S
C925 C929 1.684 . S
C926 C907 1.723 . S
C926 C925 1.396 . S
C926 C927 1.394 . S
C927 C923 1.397 . S
C927 C926 1.394 . S
C927 C937 1.723 . S
C928 C925 1.453 . S
C928 H952 0.982 . S
C928 H953 0.979 . S
C928 H954 0.977 . S
C929 C925 1.684 . S
C929 H955 0.979 . S
C929 H956 0.980 . S
C929 H957 0.983 . S
C930 H906 0.948 . S
C930 C931 1.391 . S
C930 C935 1.391 . S
C931 C930 1.391 . S
C931 C932 1.391 . S
C932 H909 0.947 . S
C932 C931 1.391 . S
C932 C933 1.392 . S
C933 H910 0.948 . S
C933 C932 1.392 . S
C933 C934 1.419 . S
C934 C933 1.419 . S
C934 C935 1.391 . S
C934 C938 1.397 . S
C935 C930 1.391 . S
C935 C934 1.391 . S
C935 C936 1.399 . S
C936 C935 1.399 . S
C936 C937 1.396 . S
C936 C939 1.453 . S
C936 C940 1.684 . S
C937 C927 1.723 . S
C937 C936 1.396 . S
C937 C938 1.394 . S
C938 C908 1.723 . S
C938 C934 1.397 . S
C938 C937 1.394 . S
C939 H911 0.982 . S
C939 H915 0.979 . S
C939 H916 0.977 . S
C939 C936 1.453 . S
C940 H912 0.979 . S
C940 H913 0.980 . S
C940 H914 0.983 . S
C940 C936 1.684 . S
H941 C959 0.948 . S
H942 C900 0.948 . S
H943 C918 0.979 . S
H944 C918 0.980 . S
H945 C918 0.983 . S
H946 C917 0.982 . S
H947 C917 0.979 . S
H948 C917 0.977 . S
H949 C919 0.948 . S
H950 C921 0.947 . S
H951 C922 0.948 . S
H952 C928 0.982 . S
H953 C928 0.979 . S
H954 C928 0.977 . S
H955 C929 0.979 . S
H956 C929 0.980 . S
H957 C929 0.983 . S
H958 C902 0.947 . S
C959 C902 1.392 . S
C959 C903 1.419 . S
C959 H941 0.948 . S
C960 C961 1.391 . S
C960 C964 1.391 . S
C960 H1002 0.948 . S
C961 C960 1.391 . S
C961 C962 1.391 . S
C962 C961 1.391 . S
C962 H1018 0.947 . S
C962 C1019 1.392 . S
C963 C964 1.391 . S
C963 C967 1.397 . S
C963 C1019 1.419 . S
C964 C960 1.391 . S
C964 C963 1.391 . S
C964 C965 1.399 . S
C965 C964 1.399 . S
C965 C968 1.396 . S
C965 C977 1.453 . S
C965 C978 1.684 . S
H966 C990 0.948 . S
C967 C963 1.397 . S
C967 C968 1.394 . S
C967 C986 1.723 . S
C968 C965 1.396 . S
C968 C967 1.394 . S
C968 C998 1.723 . S
H969 C992 0.947 . S
H970 C993 0.948 . S
H971 C999 0.982 . S
H972 C1000 0.979 . S
H973 C1000 0.980 . S
H974 C1000 0.983 . S
H975 C999 0.979 . S
H976 C999 0.977 . S
C977 C965 1.453 . S
C977 H1006 0.982 . S
C977 H1007 0.979 . S
C977 H1008 0.977 . S
C978 C965 1.684 . S
C978 H1003 0.979 . S
C978 H1004 0.980 . S
C978 H1005 0.983 . S
C979 C980 1.391 . S
C979 C984 1.391 . S
C979 H1009 0.948 . S
C980 C979 1.391 . S
C980 C981 1.391 . S
C981 C980 1.391 . S
C981 C982 1.392 . S
C981 H1010 0.947 . S
C982 C981 1.392 . S
C982 C983 1.419 . S
C982 H1011 0.948 . S
C983 C982 1.419 . S
C983 C984 1.391 . S
C983 C987 1.397 . S
C984 C979 1.391 . S
C984 C983 1.391 . S
C984 C985 1.399 . S
C985 C984 1.399 . S
C985 C986 1.396 . S
C985 C988 1.453 . S
C985 C989 1.684 . S
C986 C967 1.723 . S
C986 C985 1.396 . S
C986 C987 1.394 . S
C987 C983 1.397 . S
C987 C986 1.394 . S
C987 C997 1.723 . S
C988 C985 1.453 . S
C988 H1012 0.982 . S
C988 H1013 0.979 . S
C988 H1014 0.977 . S
C989 C985 1.684 . S
C989 H1015 0.979 . S
C989 H1016 0.980 . S
C989 H1017 0.983 . S
C990 H966 0.948 . S
C990 C991 1.391 . S
C990 C995 1.391 . S
C991 C990 1.391 . S
C991 C992 1.391 . S
C992 H969 0.947 . S
C992 C991 1.391 . S
C992 C993 1.392 . S
C993 H970 0.948 . S
C993 C992 1.392 . S
C993 C994 1.419 . S
C994 C993 1.419 . S
C994 C995 1.391 . S
C994 C998 1.397 . S
C995 C990 1.391 . S
C995 C994 1.391 . S
C995 C996 1.399 . S
C996 C995 1.399 . S
C996 C997 1.396 . S
C996 C999 1.453 . S
C996 C1000 1.684 . S
C997 C987 1.723 . S
C997 C996 1.396 . S
C997 C998 1.394 . S
C998 C968 1.723 . S
C998 C994 1.397 . S
C998 C997 1.394 . S
C999 H971 0.982 . S
C999 H975 0.979 . S
C999 H976 0.977 . S
C999 C996 1.453 . S
C1000 H972 0.979 . S
C1000 H973 0.980 . S
C1000 H974 0.983 . S
C1000 C996 1.684 . S
H1001 C1019 0.948 . S
H1002 C960 0.948 . S
H1003 C978 0.979 . S
H1004 C978 0.980 . S
H1005 C978 0.983 . S
H1006 C977 0.982 . S
H1007 C977 0.979 . S
H1008 C977 0.977 . S
H1009 C979 0.948 . S
H1010 C981 0.947 . S
H1011 C982 0.948 . S
H1012 C988 0.982 . S
H1013 C988 0.979 . S
H1014 C988 0.977 . S
H1015 C989 0.979 . S
H1016 C989 0.980 . S
H1017 C989 0.983 . S
H1018 C962 0.947 . S
C1019 C962 1.392 . S
C1019 C963 1.419 . S
C1019 H1001 0.948 . S
C1020 C1021 1.391 . S
C1020 C1024 1.391 . S
C1020 H1062 0.948 . S
C1021 C1020 1.391 . S
C1021 C1022 1.391 . S
C1022 C1021 1.391 . S
C1022 H1078 0.947 . S
C1022 C1079 1.392 . S
C1023 C1024 1.391 . S
C1023 C1027 1.397 . S
C1023 C1079 1.419 . S
C1024 C1020 1.391 . S
C1024 C1023 1.391 . S
C1024 C1025 1.399 . S
C1025 C1024 1.399 . S
C1025 C1028 1.396 . S
C1025 C1037 1.453 . S
C1025 C1038 1.684 . S
H1026 C1050 0.948 . S
C1027 C1023 1.397 . S
C1027 C1028 1.394 . S
C1027 C1046 1.723 . S
C1028 C1025 1.396 . S
C1028 C1027 1.394 . S
C1028 C1058 1.723 . S
H1029 C1052 0.947 . S
H1030 C1053 0.948 . S
H1031 C1059 0.982 . S
H1032 C1060 0.979 . S
H1033 C1060 0.980 . S
H1034 C1060 0.983 . S
H1035 C1059 0.979 . S
H1036 C1059 0.977 . S
C1037 C1025 1.453 . S
C1037 H1066 0.982 . S
C1037 H1067 0.979 . S
C1037 H1068 0.977 . S
C1038 C1025 1.684 . S
C1038 H1063 0.979 . S
C1038 H1064 0.980 . S
C1038 H1065 0.983 . S
C1039 C1040 1.391 . S
C1039 C1044 1.391 . S
C1039 H1069 0.948 . S
C1040 C1039 1.391 . S
C1040 C1041 1.391 . S
C1041 C1040 1.391 . S
C1041 C1042 1.392 . S
C1041 H1070 0.947 . S
C1042 C1041 1.392 . S
C1042 C1043 1.419 . S
C1042 H1071 0.948 . S
C1043 C1042 1.419 . S
C1043 C1044 1.391 . S
C1043 C1047 1.397 . S
C1044 C1039 1.391 . S
C1044 C1043 1.391 . S
C1044 C1045 1.399 . S
C1045 C1044 1.399 . S
C1045 C1046 1.396 . S
C1045 C1048 1.453 . S
C1045 C1049 1.684 . S
C1046 C1027 1.723 . S
C1046 C1045 1.396 . S
C1046 C1047 1.394 . S
C1047 C1043 1.397 . S
C1047 C1046 1.394 . S
C1047 C1057 1.723 . S
C1048 C1045 1.453 . S
C1048 H1072 0.982 . S
C1048 H1073 0.979 . S
C1048 H1074 0.977 . S
C1049 C1045 1.684 . S
C1049 H1075 0.979 . S
C1049 H1076 0.980 . S
C1049 H1077 0.983 . S
C1050 H1026 0.948 . S
C1050 C1051 1.391 . S
C1050 C1055 1.391 . S
C1051 C1050 1.391 . S
C1051 C1052 1.391 . S
C1052 H1029 0.947 . S
C1052 C1051 1.391 . S
C1052 C1053 1.392 . S
C1053 H1030 0.948 . S
C1053 C1052 1.392 . S
C1053 C1054 1.419 . S
C1054 C1053 1.419 . S
C1054 C1055 1.391 . S
C1054 C1058 1.397 . S
C1055 C1050 1.391 . S
C1055 C1054 1.391 . S
C1055 C1056 1.399 . S
C1056 C1055 1.399 . S
C1056 C1057 1.396 . S
C1056 C1059 1.453 . S
C1056 C1060 1.684 . S
C1057 C1047 1.723 . S
C1057 C1056 1.396 . S
C1057 C1058 1.394 . S
C1058 C1028 1.723 . S
C1058 C1054 1.397 . S
C1058 C1057 1.394 . S
C1059 H1031 0.982 . S
C1059 H1035 0.979 . S
C1059 H1036 0.977 . S
C1059 C1056 1.453 . S
C1060 H1032 0.979 . S
C1060 H1033 0.980 . S
C1060 H1034 0.983 . S
C1060 C1056 1.684 . S
H1061 C1079 0.948 . S
H1062 C1020 0.948 . S
H1063 C1038 0.979 . S
H1064 C1038 0.980 . S
H1065 C1038 0.983 . S
H1066 C1037 0.982 . S
H1067 C1037 0.979 . S
H1068 C1037 0.977 . S
H1069 C1039 0.948 . S
H1070 C1041 0.947 . S
H1071 C1042 0.948 . S
H1072 C1048 0.982 . S
H1073 C1048 0.979 . S
H1074 C1048 0.977 . S
H1075 C1049 0.979 . S
H1076 C1049 0.980 . S
H1077 C1049 0.983 . S
H1078 C1022 0.947 . S
C1079 C1022 1.392 . S
C1079 C1023 1.419 . S
C1079 H1061 0.948 . S
Gd1080 N1111 2.661 . S
Gd1080 N1117 2.601 . S
Gd1080 O1124 2.545 . S
Gd1080 O1125 2.606 1_545 S
Gd1080 O1127 2.429 . S
Gd1080 O1128 2.545 1_545 S
Gd1080 O1129 2.412 . S
Gd1080 O1131 2.362 1_554 S
Gd1080 O1132 2.324 1_545 S
Gd1080 C1139 2.828 . S
Gd1081 N1090 2.661 . S
Gd1081 N1094 2.601 . S
Gd1081 O1125 2.362 1_556 S
Gd1081 O1126 2.324 1_565 S
Gd1081 O1130 2.545 . S
Gd1081 O1131 2.606 1_565 S
Gd1081 O1133 2.429 . S
Gd1081 O1134 2.545 1_565 S
Gd1081 O1135 2.412 . S
Gd1081 C1148 2.828 . S
C1082 C1085 1.417 . S
C1082 C1087 1.431 . S
C1082 C1088 1.412 . S
C1083 C1086 1.437 . S
C1083 C1087 1.317 . S
C1083 H1102 0.929 . S
C1084 C1085 1.426 . S
C1084 C1086 1.413 . S
C1084 N1094 1.359 . S
C1085 C1082 1.417 . S
C1085 C1084 1.426 . S
C1085 N1090 1.350 . S
C1086 C1083 1.437 . S
C1086 C1084 1.413 . S
C1086 C1096 1.391 . S
C1087 C1082 1.431 . S
C1087 C1083 1.317 . S
C1087 H1098 0.930 . S
C1088 C1082 1.412 . S
C1088 C1089 1.355 . S
C1088 H1100 0.930 . S
C1089 C1088 1.355 . S
C1089 C1091 1.402 . S
C1089 H1101 0.930 . S
N1090 Gd1081 2.661 . S
N1090 C1085 1.350 . S
N1090 C1091 1.307 . S
C1091 C1089 1.402 . S
C1091 N1090 1.307 . S
C1091 H1092 0.930 . S
H1092 C1091 0.930 . S
C1093 N1094 1.334 . S
C1093 C1095 1.394 . S
C1093 H1097 0.930 . S
N1094 Gd1081 2.601 . S
N1094 C1084 1.359 . S
N1094 C1093 1.334 . S
C1095 C1093 1.394 . S
C1095 C1096 1.359 . S
C1095 H1107 0.930 . S
C1096 C1086 1.391 . S
C1096 C1095 1.359 . S
C1096 H1108 0.929 . S
H1097 C1093 0.930 . S
H1098 C1087 0.930 . S
H1099 C1116 0.930 . S
H1100 C1088 0.930 . S
H1101 C1089 0.930 . S
H1102 C1083 0.929 . S
H1103 C1121 0.930 . S
H1104 C1112 0.930 . S
H1105 C1113 0.930 . S
H1106 C1137 0.929 . S
H1107 C1095 0.930 . S
H1108 C1096 0.929 . S
H1109 C1138 0.930 . S
H1110 C1119 0.930 . S
N1111 Gd1080 2.661 . S
N1111 C1115 1.350 . S
N1111 C1116 1.307 . S
C1112 H1104 0.930 . S
C1112 C1113 1.355 . S
C1112 C1114 1.412 . S
C1113 H1105 0.930 . S
C1113 C1112 1.355 . S
C1113 C1116 1.402 . S
C1114 C1112 1.412 . S
C1114 C1115 1.417 . S
C1114 C1138 1.431 . S
C1115 N1111 1.350 . S
C1115 C1114 1.417 . S
C1115 C1118 1.426 . S
C1116 H1099 0.930 . S
C1116 N1111 1.307 . S
C1116 C1113 1.402 . S
N1117 Gd1080 2.601 . S
N1117 C1118 1.359 . S
N1117 C1121 1.334 . S
C1118 C1115 1.426 . S
C1118 N1117 1.359 . S
C1118 C1122 1.413 . S
C1119 H1110 0.930 . S
C1119 C1120 1.359 . S
C1119 C1121 1.394 . S
C1120 C1119 1.359 . S
C1120 C1122 1.391 . S
C1120 H1123 0.929 . S
C1121 H1103 0.930 . S
C1121 N1117 1.334 . S
C1121 C1119 1.394 . S
C1122 C1118 1.413 . S
C1122 C1120 1.391 . S
C1122 C1137 1.437 . S
H1123 C1120 0.929 . S
O1124 Gd1080 2.545 . S
O1124 C1139 1.258 . S
O1125 Gd1080 2.606 1_565 S
O1125 Gd1081 2.362 1_554 S
O1125 C1136 1.284 . S
O1126 Gd1081 2.324 1_545 S
O1126 C1146 1.254 . S
O1127 Gd1080 2.429 . S
O1127 C1146 1.268 1_554 S
O1128 Gd1080 2.545 1_565 S
O1128 C1136 1.250 . S
O1129 Gd1080 2.412 . S
O1129 C1139 1.252 . S
O1130 Gd1081 2.545 . S
O1130 C1148 1.258 . S
O1131 Gd1080 2.362 1_556 S
O1131 Gd1081 2.606 1_545 S
O1131 C1147 1.284 . S
O1132 Gd1080 2.324 1_565 S
O1132 C1155 1.254 . S
O1133 Gd1081 2.429 . S
O1133 C1155 1.268 1_556 S
O1134 Gd1081 2.545 1_545 S
O1134 C1147 1.250 . S
O1135 Gd1081 2.412 . S
O1135 C1148 1.252 . S
C1136 O1125 1.284 . S
C1136 O1128 1.250 . S
C1137 H1106 0.929 . S
C1137 C1122 1.437 . S
C1137 C1138 1.317 . S
C1138 H1109 0.930 . S
C1138 C1114 1.431 . S
C1138 C1137 1.317 . S
C1139 Gd1080 2.828 . S
C1139 O1124 1.258 . S
C1139 O1129 1.252 . S
C1139 C1140 1.497 . S
C1140 C1139 1.497 . S
C1140 C1141 1.395 . S
C1140 C1142 1.380 1_545 S
C1141 C1140 1.395 . S
C1141 C1144 1.398 . S
C1141 H1156 0.930 . S
C1142 C1140 1.380 1_565 S
C1142 C1143 1.391 . S
C1142 H1157 0.930 . S
C1143 C1142 1.391 . S
C1143 C1145 1.387 1_565 S
C1144 C1141 1.398 . S
C1144 C1145 1.380 . S
C1144 H1158 0.930 . S
C1145 C1143 1.387 1_545 S
C1145 C1144 1.380 . S
C1145 H1159 0.930 . S
C1146 O1126 1.254 . S
C1146 O1127 1.268 1_556 S
C1147 O1131 1.284 . S
C1147 O1134 1.250 . S
C1148 Gd1081 2.828 . S
C1148 O1130 1.258 . S
C1148 O1135 1.252 . S
C1148 C1149 1.497 . S
C1149 C1148 1.497 . S
C1149 C1150 1.395 . S
C1149 C1151 1.380 1_565 S
C1150 C1149 1.395 . S
C1150 C1153 1.398 . S
C1150 H1160 0.930 . S
C1151 C1149 1.380 1_545 S
C1151 C1152 1.391 . S
C1151 H1161 0.930 . S
C1152 C1151 1.391 . S
C1152 C1154 1.387 1_545 S
C1153 C1150 1.398 . S
C1153 C1154 1.380 . S
C1153 H1162 0.930 . S
C1154 C1152 1.387 1_565 S
C1154 C1153 1.380 . S
C1154 H1163 0.930 . S
C1155 O1132 1.254 . S
C1155 O1133 1.268 1_554 S
H1156 C1141 0.930 . S
H1157 C1142 0.930 . S
H1158 C1144 0.930 . S
H1159 C1145 0.930 . S
H1160 C1150 0.930 . S
H1161 C1151 0.930 . S
H1162 C1153 0.930 . S
H1163 C1154 0.930 . S
Gd1164 N1195 2.661 . S
Gd1164 N1201 2.601 . S
Gd1164 O1208 2.545 . S
Gd1164 O1209 2.606 1_655 S
Gd1164 O1211 2.429 . S
Gd1164 O1212 2.545 1_655 S
Gd1164 O1213 2.412 . S
Gd1164 O1215 2.362 1_554 S
Gd1164 O1216 2.324 1_655 S
Gd1164 C1223 2.828 . S
Gd1165 N1174 2.661 . S
Gd1165 N1178 2.601 . S
Gd1165 O1209 2.362 1_556 S
Gd1165 O1210 2.324 1_455 S
Gd1165 O1214 2.545 . S
Gd1165 O1215 2.606 1_455 S
Gd1165 O1217 2.429 . S
Gd1165 O1218 2.545 1_455 S
Gd1165 O1219 2.412 . S
Gd1165 C1232 2.828 . S
C1166 C1169 1.417 . S
C1166 C1171 1.431 . S
C1166 C1172 1.412 . S
C1167 C1170 1.437 . S
C1167 C1171 1.317 . S
C1167 H1186 0.929 . S
C1168 C1169 1.426 . S
C1168 C1170 1.413 . S
C1168 N1178 1.359 . S
C1169 C1166 1.417 . S
C1169 C1168 1.426 . S
C1169 N1174 1.350 . S
C1170 C1167 1.437 . S
C1170 C1168 1.413 . S
C1170 C1180 1.391 . S
C1171 C1166 1.431 . S
C1171 C1167 1.317 . S
C1171 H1182 0.930 . S
C1172 C1166 1.412 . S
C1172 C1173 1.355 . S
C1172 H1184 0.930 . S
C1173 C1172 1.355 . S
C1173 C1175 1.402 . S
C1173 H1185 0.930 . S
N1174 Gd1165 2.661 . S
N1174 C1169 1.350 . S
N1174 C1175 1.307 . S
C1175 C1173 1.402 . S
C1175 N1174 1.307 . S
C1175 H1176 0.930 . S
H1176 C1175 0.930 . S
C1177 N1178 1.334 . S
C1177 C1179 1.394 . S
C1177 H1181 0.930 . S
N1178 Gd1165 2.601 . S
N1178 C1168 1.359 . S
N1178 C1177 1.334 . S
C1179 C1177 1.394 . S
C1179 C1180 1.359 . S
C1179 H1191 0.930 . S
C1180 C1170 1.391 . S
C1180 C1179 1.359 . S
C1180 H1192 0.929 . S
H1181 C1177 0.930 . S
H1182 C1171 0.930 . S
H1183 C1200 0.930 . S
H1184 C1172 0.930 . S
H1185 C1173 0.930 . S
H1186 C1167 0.929 . S
H1187 C1205 0.930 . S
H1188 C1196 0.930 . S
H1189 C1197 0.930 . S
H1190 C1221 0.929 . S
H1191 C1179 0.930 . S
H1192 C1180 0.929 . S
H1193 C1222 0.930 . S
H1194 C1203 0.930 . S
N1195 Gd1164 2.661 . S
N1195 C1199 1.350 . S
N1195 C1200 1.307 . S
C1196 H1188 0.930 . S
C1196 C1197 1.355 . S
C1196 C1198 1.412 . S
C1197 H1189 0.930 . S
C1197 C1196 1.355 . S
C1197 C1200 1.402 . S
C1198 C1196 1.412 . S
C1198 C1199 1.417 . S
C1198 C1222 1.431 . S
C1199 N1195 1.350 . S
C1199 C1198 1.417 . S
C1199 C1202 1.426 . S
C1200 H1183 0.930 . S
C1200 N1195 1.307 . S
C1200 C1197 1.402 . S
N1201 Gd1164 2.601 . S
N1201 C1202 1.359 . S
N1201 C1205 1.334 . S
C1202 C1199 1.426 . S
C1202 N1201 1.359 . S
C1202 C1206 1.413 . S
C1203 H1194 0.930 . S
C1203 C1204 1.359 . S
C1203 C1205 1.394 . S
C1204 C1203 1.359 . S
C1204 C1206 1.391 . S
C1204 H1207 0.929 . S
C1205 H1187 0.930 . S
C1205 N1201 1.334 . S
C1205 C1203 1.394 . S
C1206 C1202 1.413 . S
C1206 C1204 1.391 . S
C1206 C1221 1.437 . S
H1207 C1204 0.929 . S
O1208 Gd1164 2.545 . S
O1208 C1223 1.258 . S
O1209 Gd1164 2.606 1_455 S
O1209 Gd1165 2.362 1_554 S
O1209 C1220 1.284 . S
O1210 Gd1165 2.324 1_655 S
O1210 C1230 1.254 . S
O1211 Gd1164 2.429 . S
O1211 C1230 1.268 1_554 S
O1212 Gd1164 2.545 1_455 S
O1212 C1220 1.250 . S
O1213 Gd1164 2.412 . S
O1213 C1223 1.252 . S
O1214 Gd1165 2.545 . S
O1214 C1232 1.258 . S
O1215 Gd1164 2.362 1_556 S
O1215 Gd1165 2.606 1_655 S
O1215 C1231 1.284 . S
O1216 Gd1164 2.324 1_455 S
O1216 C1239 1.254 . S
O1217 Gd1165 2.429 . S
O1217 C1239 1.268 1_556 S
O1218 Gd1165 2.545 1_655 S
O1218 C1231 1.250 . S
O1219 Gd1165 2.412 . S
O1219 C1232 1.252 . S
C1220 O1209 1.284 . S
C1220 O1212 1.250 . S
C1221 H1190 0.929 . S
C1221 C1206 1.437 . S
C1221 C1222 1.317 . S
C1222 H1193 0.930 . S
C1222 C1198 1.431 . S
C1222 C1221 1.317 . S
C1223 Gd1164 2.828 . S
C1223 O1208 1.258 . S
C1223 O1213 1.252 . S
C1223 C1224 1.497 . S
C1224 C1223 1.497 . S
C1224 C1225 1.395 . S
C1224 C1226 1.380 1_655 S
C1225 C1224 1.395 . S
C1225 C1228 1.398 . S
C1225 H1240 0.930 . S
C1226 C1224 1.380 1_455 S
C1226 C1227 1.391 . S
C1226 H1241 0.930 . S
C1227 C1226 1.391 . S
C1227 C1229 1.387 1_455 S
C1228 C1225 1.398 . S
C1228 C1229 1.380 . S
C1228 H1242 0.930 . S
C1229 C1227 1.387 1_655 S
C1229 C1228 1.380 . S
C1229 H1243 0.930 . S
C1230 O1210 1.254 . S
C1230 O1211 1.268 1_556 S
C1231 O1215 1.284 . S
C1231 O1218 1.250 . S
C1232 Gd1165 2.828 . S
C1232 O1214 1.258 . S
C1232 O1219 1.252 . S
C1232 C1233 1.497 . S
C1233 C1232 1.497 . S
C1233 C1234 1.395 . S
C1233 C1235 1.380 1_455 S
C1234 C1233 1.395 . S
C1234 C1237 1.398 . S
C1234 H1244 0.930 . S
C1235 C1233 1.380 1_655 S
C1235 C1236 1.391 . S
C1235 H1245 0.930 . S
C1236 C1235 1.391 . S
C1236 C1238 1.387 1_655 S
C1237 C1234 1.398 . S
C1237 C1238 1.380 . S
C1237 H1246 0.930 . S
C1238 C1236 1.387 1_455 S
C1238 C1237 1.380 . S
C1238 H1247 0.930 . S
C1239 O1216 1.254 . S
C1239 O1217 1.268 1_554 S
H1240 C1225 0.930 . S
H1241 C1226 0.930 . S
H1242 C1228 0.930 . S
H1243 C1229 0.930 . S
H1244 C1234 0.930 . S
H1245 C1235 0.930 . S
H1246 C1237 0.930 . S
H1247 C1238 0.930 . S
Gd1248 N1279 2.661 . S
Gd1248 N1285 2.601 . S
Gd1248 O1292 2.545 . S
Gd1248 O1293 2.606 . S
Gd1248 O1295 2.429 . S
Gd1248 O1296 2.545 . S
Gd1248 O1297 2.412 . S
Gd1248 O1299 2.362 1_556 S
Gd1248 O1300 2.324 . S
Gd1248 C1307 2.828 . S
Gd1249 N1258 2.661 . S
Gd1249 N1262 2.601 . S
Gd1249 O1293 2.362 1_554 S
Gd1249 O1294 2.324 . S
Gd1249 O1298 2.545 . S
Gd1249 O1299 2.606 . S
Gd1249 O1301 2.429 . S
Gd1249 O1302 2.545 . S
Gd1249 O1303 2.412 . S
Gd1249 C1316 2.828 . S
C1250 C1253 1.417 . S
C1250 C1255 1.431 . S
C1250 C1256 1.412 . S
C1251 C1254 1.437 . S
C1251 C1255 1.317 . S
C1251 H1270 0.929 . S
C1252 C1253 1.426 . S
C1252 C1254 1.413 . S
C1252 N1262 1.359 . S
C1253 C1250 1.417 . S
C1253 C1252 1.426 . S
C1253 N1258 1.350 . S
C1254 C1251 1.437 . S
C1254 C1252 1.413 . S
C1254 C1264 1.391 . S
C1255 C1250 1.431 . S
C1255 C1251 1.317 . S
C1255 H1266 0.930 . S
C1256 C1250 1.412 . S
C1256 C1257 1.355 . S
C1256 H1268 0.930 . S
C1257 C1256 1.355 . S
C1257 C1259 1.402 . S
C1257 H1269 0.930 . S
N1258 Gd1249 2.661 . S
N1258 C1253 1.350 . S
N1258 C1259 1.307 . S
C1259 C1257 1.402 . S
C1259 N1258 1.307 . S
C1259 H1260 0.930 . S
H1260 C1259 0.930 . S
C1261 N1262 1.334 . S
C1261 C1263 1.394 . S
C1261 H1265 0.930 . S
N1262 Gd1249 2.601 . S
N1262 C1252 1.359 . S
N1262 C1261 1.334 . S
C1263 C1261 1.394 . S
C1263 C1264 1.359 . S
C1263 H1275 0.930 . S
C1264 C1254 1.391 . S
C1264 C1263 1.359 . S
C1264 H1276 0.929 . S
H1265 C1261 0.930 . S
H1266 C1255 0.930 . S
H1267 C1284 0.930 . S
H1268 C1256 0.930 . S
H1269 C1257 0.930 . S
H1270 C1251 0.929 . S
H1271 C1289 0.930 . S
H1272 C1280 0.930 . S
H1273 C1281 0.930 . S
H1274 C1305 0.929 . S
H1275 C1263 0.930 . S
H1276 C1264 0.929 . S
H1277 C1306 0.930 . S
H1278 C1287 0.930 . S
N1279 Gd1248 2.661 . S
N1279 C1283 1.350 . S
N1279 C1284 1.307 . S
C1280 H1272 0.930 . S
C1280 C1281 1.355 . S
C1280 C1282 1.412 . S
C1281 H1273 0.930 . S
C1281 C1280 1.355 . S
C1281 C1284 1.402 . S
C1282 C1280 1.412 . S
C1282 C1283 1.417 . S
C1282 C1306 1.431 . S
C1283 N1279 1.350 . S
C1283 C1282 1.417 . S
C1283 C1286 1.426 . S
C1284 H1267 0.930 . S
C1284 N1279 1.307 . S
C1284 C1281 1.402 . S
N1285 Gd1248 2.601 . S
N1285 C1286 1.359 . S
N1285 C1289 1.334 . S
C1286 C1283 1.426 . S
C1286 N1285 1.359 . S
C1286 C1290 1.413 . S
C1287 H1278 0.930 . S
C1287 C1288 1.359 . S
C1287 C1289 1.394 . S
C1288 C1287 1.359 . S
C1288 C1290 1.391 . S
C1288 H1291 0.929 . S
C1289 H1271 0.930 . S
C1289 N1285 1.334 . S
C1289 C1287 1.394 . S
C1290 C1286 1.413 . S
C1290 C1288 1.391 . S
C1290 C1305 1.437 . S
H1291 C1288 0.929 . S
O1292 Gd1248 2.545 . S
O1292 C1307 1.258 . S
O1293 Gd1248 2.606 . S
O1293 Gd1249 2.362 1_556 S
O1293 C1304 1.284 . S
O1294 Gd1249 2.324 . S
O1294 C1314 1.254 . S
O1295 Gd1248 2.429 . S
O1295 C1314 1.268 1_556 S
O1296 Gd1248 2.545 . S
O1296 C1304 1.250 . S
O1297 Gd1248 2.412 . S
O1297 C1307 1.252 . S
O1298 Gd1249 2.545 . S
O1298 C1316 1.258 . S
O1299 Gd1248 2.362 1_554 S
O1299 Gd1249 2.606 . S
O1299 C1315 1.284 . S
O1300 Gd1248 2.324 . S
O1300 C1323 1.254 . S
O1301 Gd1249 2.429 . S
O1301 C1323 1.268 1_554 S
O1302 Gd1249 2.545 . S
O1302 C1315 1.250 . S
O1303 Gd1249 2.412 . S
O1303 C1316 1.252 . S
C1304 O1293 1.284 . S
C1304 O1296 1.250 . S
C1305 H1274 0.929 . S
C1305 C1290 1.437 . S
C1305 C1306 1.317 . S
C1306 H1277 0.930 . S
C1306 C1282 1.431 . S
C1306 C1305 1.317 . S
C1307 Gd1248 2.828 . S
C1307 O1292 1.258 . S
C1307 O1297 1.252 . S
C1307 C1308 1.497 . S
C1308 C1307 1.497 . S
C1308 C1309 1.395 . S
C1308 C1310 1.380 . S
C1309 C1308 1.395 . S
C1309 C1312 1.398 . S
C1309 H1324 0.930 . S
C1310 C1308 1.380 . S
C1310 C1311 1.391 . S
C1310 H1325 0.930 . S
C1311 C1310 1.391 . S
C1311 C1313 1.387 . S
C1312 C1309 1.398 . S
C1312 C1313 1.380 . S
C1312 H1326 0.930 . S
C1313 C1311 1.387 . S
C1313 C1312 1.380 . S
C1313 H1327 0.930 . S
C1314 O1294 1.254 . S
C1314 O1295 1.268 1_554 S
C1315 O1299 1.284 . S
C1315 O1302 1.250 . S
C1316 Gd1249 2.828 . S
C1316 O1298 1.258 . S
C1316 O1303 1.252 . S
C1316 C1317 1.497 . S
C1317 C1316 1.497 . S
C1317 C1318 1.395 . S
C1317 C1319 1.380 . S
C1318 C1317 1.395 . S
C1318 C1321 1.398 . S
C1318 H1328 0.930 . S
C1319 C1317 1.380 . S
C1319 C1320 1.391 . S
C1319 H1329 0.930 . S
C1320 C1319 1.391 . S
C1320 C1322 1.387 . S
C1321 C1318 1.398 . S
C1321 C1322 1.380 . S
C1321 H1330 0.930 . S
C1322 C1320 1.387 . S
C1322 C1321 1.380 . S
C1322 H1331 0.930 . S
C1323 O1300 1.254 . S
C1323 O1301 1.268 1_556 S
H1324 C1309 0.930 . S
H1325 C1310 0.930 . S
H1326 C1312 0.930 . S
H1327 C1313 0.930 . S
H1328 C1318 0.930 . S
H1329 C1319 0.930 . S
H1330 C1321 0.930 . S
H1331 C1322 0.930 . S
Gd1332 N1363 2.661 . S
Gd1332 N1369 2.601 . S
Gd1332 O1376 2.545 . S
Gd1332 O1377 2.606 . S
Gd1332 O1379 2.429 . S
Gd1332 O1380 2.545 . S
Gd1332 O1381 2.412 . S
Gd1332 O1383 2.362 . S
Gd1332 O1384 2.324 . S
Gd1332 C1391 2.828 . S
Gd1333 N1342 2.661 . S
Gd1333 N1346 2.601 . S
Gd1333 O1377 2.362 . S
Gd1333 O1378 2.324 . S
Gd1333 O1382 2.545 . S
Gd1333 O1383 2.606 . S
Gd1333 O1385 2.429 . S
Gd1333 O1386 2.545 . S
Gd1333 O1387 2.412 . S
Gd1333 C1400 2.828 . S
C1334 C1337 1.417 . S
C1334 C1339 1.431 . S
C1334 C1340 1.412 . S
C1335 C1338 1.437 . S
C1335 C1339 1.317 . S
C1335 H1354 0.929 . S
C1336 C1337 1.426 . S
C1336 C1338 1.413 . S
C1336 N1346 1.359 . S
C1337 C1334 1.417 . S
C1337 C1336 1.426 . S
C1337 N1342 1.350 . S
C1338 C1335 1.437 . S
C1338 C1336 1.413 . S
C1338 C1348 1.391 . S
C1339 C1334 1.431 . S
C1339 C1335 1.317 . S
C1339 H1350 0.930 . S
C1340 C1334 1.412 . S
C1340 C1341 1.355 . S
C1340 H1352 0.930 . S
C1341 C1340 1.355 . S
C1341 C1343 1.402 . S
C1341 H1353 0.930 . S
N1342 Gd1333 2.661 . S
N1342 C1337 1.350 . S
N1342 C1343 1.307 . S
C1343 C1341 1.402 . S
C1343 N1342 1.307 . S
C1343 H1344 0.930 . S
H1344 C1343 0.930 . S
C1345 N1346 1.334 . S
C1345 C1347 1.394 . S
C1345 H1349 0.930 . S
N1346 Gd1333 2.601 . S
N1346 C1336 1.359 . S
N1346 C1345 1.334 . S
C1347 C1345 1.394 . S
C1347 C1348 1.359 . S
C1347 H1359 0.930 . S
C1348 C1338 1.391 . S
C1348 C1347 1.359 . S
C1348 H1360 0.929 . S
H1349 C1345 0.930 . S
H1350 C1339 0.930 . S
H1351 C1368 0.930 . S
H1352 C1340 0.930 . S
H1353 C1341 0.930 . S
H1354 C1335 0.929 . S
H1355 C1373 0.930 . S
H1356 C1364 0.930 . S
H1357 C1365 0.930 . S
H1358 C1389 0.929 . S
H1359 C1347 0.930 . S
H1360 C1348 0.929 . S
H1361 C1390 0.930 . S
H1362 C1371 0.930 . S
N1363 Gd1332 2.661 . S
N1363 C1367 1.350 . S
N1363 C1368 1.307 . S
C1364 H1356 0.930 . S
C1364 C1365 1.355 . S
C1364 C1366 1.412 . S
C1365 H1357 0.930 . S
C1365 C1364 1.355 . S
C1365 C1368 1.402 . S
C1366 C1364 1.412 . S
C1366 C1367 1.417 . S
C1366 C1390 1.431 . S
C1367 N1363 1.350 . S
C1367 C1366 1.417 . S
C1367 C1370 1.426 . S
C1368 H1351 0.930 . S
C1368 N1363 1.307 . S
C1368 C1365 1.402 . S
N1369 Gd1332 2.601 . S
N1369 C1370 1.359 . S
N1369 C1373 1.334 . S
C1370 C1367 1.426 . S
C1370 N1369 1.359 . S
C1370 C1374 1.413 . S
C1371 H1362 0.930 . S
C1371 C1372 1.359 . S
C1371 C1373 1.394 . S
C1372 C1371 1.359 . S
C1372 C1374 1.391 . S
C1372 H1375 0.929 . S
C1373 H1355 0.930 . S
C1373 N1369 1.334 . S
C1373 C1371 1.394 . S
C1374 C1370 1.413 . S
C1374 C1372 1.391 . S
C1374 C1389 1.437 . S
H1375 C1372 0.929 . S
O1376 Gd1332 2.545 . S
O1376 C1391 1.258 . S
O1377 Gd1332 2.606 . S
O1377 Gd1333 2.362 . S
O1377 C1388 1.284 . S
O1378 Gd1333 2.324 . S
O1378 C1398 1.254 . S
O1379 Gd1332 2.429 . S
O1379 C1398 1.268 . S
O1380 Gd1332 2.545 . S
O1380 C1388 1.250 . S
O1381 Gd1332 2.412 . S
O1381 C1391 1.252 . S
O1382 Gd1333 2.545 . S
O1382 C1400 1.258 . S
O1383 Gd1332 2.362 . S
O1383 Gd1333 2.606 . S
O1383 C1399 1.284 . S
O1384 Gd1332 2.324 . S
O1384 C1407 1.254 . S
O1385 Gd1333 2.429 . S
O1385 C1407 1.268 . S
O1386 Gd1333 2.545 . S
O1386 C1399 1.250 . S
O1387 Gd1333 2.412 . S
O1387 C1400 1.252 . S
C1388 O1377 1.284 . S
C1388 O1380 1.250 . S
C1389 H1358 0.929 . S
C1389 C1374 1.437 . S
C1389 C1390 1.317 . S
C1390 H1361 0.930 . S
C1390 C1366 1.431 . S
C1390 C1389 1.317 . S
C1391 Gd1332 2.828 . S
C1391 O1376 1.258 . S
C1391 O1381 1.252 . S
C1391 C1392 1.497 . S
C1392 C1391 1.497 . S
C1392 C1393 1.395 . S
C1392 C1394 1.380 . S
C1393 C1392 1.395 . S
C1393 C1396 1.398 . S
C1393 H1408 0.930 . S
C1394 C1392 1.380 . S
C1394 C1395 1.391 . S
C1394 H1409 0.930 . S
C1395 C1394 1.391 . S
C1395 C1397 1.387 . S
C1396 C1393 1.398 . S
C1396 C1397 1.380 . S
C1396 H1410 0.930 . S
C1397 C1395 1.387 . S
C1397 C1396 1.380 . S
C1397 H1411 0.930 . S
C1398 O1378 1.254 . S
C1398 O1379 1.268 . S
C1399 O1383 1.284 . S
C1399 O1386 1.250 . S
C1400 Gd1333 2.828 . S
C1400 O1382 1.258 . S
C1400 O1387 1.252 . S
C1400 C1401 1.497 . S
C1401 C1400 1.497 . S
C1401 C1402 1.395 . S
C1401 C1403 1.380 . S
C1402 C1401 1.395 . S
C1402 C1405 1.398 . S
C1402 H1412 0.930 . S
C1403 C1401 1.380 . S
C1403 C1404 1.391 . S
C1403 H1413 0.930 . S
C1404 C1403 1.391 . S
C1404 C1406 1.387 . S
C1405 C1402 1.398 . S
C1405 C1406 1.380 . S
C1405 H1414 0.930 . S
C1406 C1404 1.387 . S
C1406 C1405 1.380 . S
C1406 H1415 0.930 . S
C1407 O1384 1.254 . S
C1407 O1385 1.268 . S
H1408 C1393 0.930 . S
H1409 C1394 0.930 . S
H1410 C1396 0.930 . S
H1411 C1397 0.930 . S
H1412 C1402 0.930 . S
H1413 C1403 0.930 . S
H1414 C1405 0.930 . S
H1415 C1406 0.930 . S
Gd1416 N1447 2.661 . S
Gd1416 N1453 2.601 . S
Gd1416 O1460 2.545 . S
Gd1416 O1461 2.606 . S
Gd1416 O1463 2.429 . S
Gd1416 O1464 2.545 . S
Gd1416 O1465 2.412 . S
Gd1416 O1467 2.362 . S
Gd1416 O1468 2.324 . S
Gd1416 C1475 2.828 . S
Gd1417 N1426 2.661 . S
Gd1417 N1430 2.601 . S
Gd1417 O1461 2.362 . S
Gd1417 O1462 2.324 . S
Gd1417 O1466 2.545 . S
Gd1417 O1467 2.606 . S
Gd1417 O1469 2.429 . S
Gd1417 O1470 2.545 . S
Gd1417 O1471 2.412 . S
Gd1417 C1484 2.828 . S
C1418 C1421 1.417 . S
C1418 C1423 1.431 . S
C1418 C1424 1.412 . S
C1419 C1422 1.437 . S
C1419 C1423 1.317 . S
C1419 H1438 0.929 . S
C1420 C1421 1.426 . S
C1420 C1422 1.413 . S
C1420 N1430 1.359 . S
C1421 C1418 1.417 . S
C1421 C1420 1.426 . S
C1421 N1426 1.350 . S
C1422 C1419 1.437 . S
C1422 C1420 1.413 . S
C1422 C1432 1.391 . S
C1423 C1418 1.431 . S
C1423 C1419 1.317 . S
C1423 H1434 0.930 . S
C1424 C1418 1.412 . S
C1424 C1425 1.355 . S
C1424 H1436 0.930 . S
C1425 C1424 1.355 . S
C1425 C1427 1.402 . S
C1425 H1437 0.930 . S
N1426 Gd1417 2.661 . S
N1426 C1421 1.350 . S
N1426 C1427 1.307 . S
C1427 C1425 1.402 . S
C1427 N1426 1.307 . S
C1427 H1428 0.930 . S
H1428 C1427 0.930 . S
C1429 N1430 1.334 . S
C1429 C1431 1.394 . S
C1429 H1433 0.930 . S
N1430 Gd1417 2.601 . S
N1430 C1420 1.359 . S
N1430 C1429 1.334 . S
C1431 C1429 1.394 . S
C1431 C1432 1.359 . S
C1431 H1443 0.930 . S
C1432 C1422 1.391 . S
C1432 C1431 1.359 . S
C1432 H1444 0.929 . S
H1433 C1429 0.930 . S
H1434 C1423 0.930 . S
H1435 C1452 0.930 . S
H1436 C1424 0.930 . S
H1437 C1425 0.930 . S
H1438 C1419 0.929 . S
H1439 C1457 0.930 . S
H1440 C1448 0.930 . S
H1441 C1449 0.930 . S
H1442 C1473 0.929 . S
H1443 C1431 0.930 . S
H1444 C1432 0.929 . S
H1445 C1474 0.930 . S
H1446 C1455 0.930 . S
N1447 Gd1416 2.661 . S
N1447 C1451 1.350 . S
N1447 C1452 1.307 . S
C1448 H1440 0.930 . S
C1448 C1449 1.355 . S
C1448 C1450 1.412 . S
C1449 H1441 0.930 . S
C1449 C1448 1.355 . S
C1449 C1452 1.402 . S
C1450 C1448 1.412 . S
C1450 C1451 1.417 . S
C1450 C1474 1.431 . S
C1451 N1447 1.350 . S
C1451 C1450 1.417 . S
C1451 C1454 1.426 . S
C1452 H1435 0.930 . S
C1452 N1447 1.307 . S
C1452 C1449 1.402 . S
N1453 Gd1416 2.601 . S
N1453 C1454 1.359 . S
N1453 C1457 1.334 . S
C1454 C1451 1.426 . S
C1454 N1453 1.359 . S
C1454 C1458 1.413 . S
C1455 H1446 0.930 . S
C1455 C1456 1.359 . S
C1455 C1457 1.394 . S
C1456 C1455 1.359 . S
C1456 C1458 1.391 . S
C1456 H1459 0.929 . S
C1457 H1439 0.930 . S
C1457 N1453 1.334 . S
C1457 C1455 1.394 . S
C1458 C1454 1.413 . S
C1458 C1456 1.391 . S
C1458 C1473 1.437 . S
H1459 C1456 0.929 . S
O1460 Gd1416 2.545 . S
O1460 C1475 1.258 . S
O1461 Gd1416 2.606 . S
O1461 Gd1417 2.362 . S
O1461 C1472 1.284 . S
O1462 Gd1417 2.324 . S
O1462 C1482 1.254 . S
O1463 Gd1416 2.429 . S
O1463 C1482 1.268 . S
O1464 Gd1416 2.545 . S
O1464 C1472 1.250 . S
O1465 Gd1416 2.412 . S
O1465 C1475 1.252 . S
O1466 Gd1417 2.545 . S
O1466 C1484 1.258 . S
O1467 Gd1416 2.362 . S
O1467 Gd1417 2.606 . S
O1467 C1483 1.284 . S
O1468 Gd1416 2.324 . S
O1468 C1491 1.254 . S
O1469 Gd1417 2.429 . S
O1469 C1491 1.268 . S
O1470 Gd1417 2.545 . S
O1470 C1483 1.250 . S
O1471 Gd1417 2.412 . S
O1471 C1484 1.252 . S
C1472 O1461 1.284 . S
C1472 O1464 1.250 . S
C1473 H1442 0.929 . S
C1473 C1458 1.437 . S
C1473 C1474 1.317 . S
C1474 H1445 0.930 . S
C1474 C1450 1.431 . S
C1474 C1473 1.317 . S
C1475 Gd1416 2.828 . S
C1475 O1460 1.258 . S
C1475 O1465 1.252 . S
C1475 C1476 1.497 . S
C1476 C1475 1.497 . S
C1476 C1477 1.395 . S
C1476 C1478 1.380 . S
C1477 C1476 1.395 . S
C1477 C1480 1.398 . S
C1477 H1492 0.930 . S
C1478 C1476 1.380 . S
C1478 C1479 1.391 . S
C1478 H1493 0.930 . S
C1479 C1478 1.391 . S
C1479 C1481 1.387 . S
C1480 C1477 1.398 . S
C1480 C1481 1.380 . S
C1480 H1494 0.930 . S
C1481 C1479 1.387 . S
C1481 C1480 1.380 . S
C1481 H1495 0.930 . S
C1482 O1462 1.254 . S
C1482 O1463 1.268 . S
C1483 O1467 1.284 . S
C1483 O1470 1.250 . S
C1484 Gd1417 2.828 . S
C1484 O1466 1.258 . S
C1484 O1471 1.252 . S
C1484 C1485 1.497 . S
C1485 C1484 1.497 . S
C1485 C1486 1.395 . S
C1485 C1487 1.380 . S
C1486 C1485 1.395 . S
C1486 C1489 1.398 . S
C1486 H1496 0.930 . S
C1487 C1485 1.380 . S
C1487 C1488 1.391 . S
C1487 H1497 0.930 . S
C1488 C1487 1.391 . S
C1488 C1490 1.387 . S
C1489 C1486 1.398 . S
C1489 C1490 1.380 . S
C1489 H1498 0.930 . S
C1490 C1488 1.387 . S
C1490 C1489 1.380 . S
C1490 H1499 0.930 . S
C1491 O1468 1.254 . S
C1491 O1469 1.268 . S
H1492 C1477 0.930 . S
H1493 C1478 0.930 . S
H1494 C1480 0.930 . S
H1495 C1481 0.930 . S
H1496 C1486 0.930 . S
H1497 C1487 0.930 . S
H1498 C1489 0.930 . S
H1499 C1490 0.930 . S
Gd1500 N1531 2.661 . S
Gd1500 N1537 2.601 . S
Gd1500 O1544 2.545 . S
Gd1500 O1545 2.606 . S
Gd1500 O1547 2.429 . S
Gd1500 O1548 2.545 . S
Gd1500 O1549 2.412 . S
Gd1500 O1551 2.362 . S
Gd1500 O1552 2.324 . S
Gd1500 C1559 2.828 . S
Gd1501 N1510 2.661 . S
Gd1501 N1514 2.601 . S
Gd1501 O1545 2.362 . S
Gd1501 O1546 2.324 . S
Gd1501 O1550 2.545 . S
Gd1501 O1551 2.606 . S
Gd1501 O1553 2.429 . S
Gd1501 O1554 2.545 . S
Gd1501 O1555 2.412 . S
Gd1501 C1568 2.828 . S
C1502 C1505 1.417 . S
C1502 C1507 1.431 . S
C1502 C1508 1.412 . S
C1503 C1506 1.437 . S
C1503 C1507 1.317 . S
C1503 H1522 0.929 . S
C1504 C1505 1.426 . S
C1504 C1506 1.413 . S
C1504 N1514 1.359 . S
C1505 C1502 1.417 . S
C1505 C1504 1.426 . S
C1505 N1510 1.350 . S
C1506 C1503 1.437 . S
C1506 C1504 1.413 . S
C1506 C1516 1.391 . S
C1507 C1502 1.431 . S
C1507 C1503 1.317 . S
C1507 H1518 0.930 . S
C1508 C1502 1.412 . S
C1508 C1509 1.355 . S
C1508 H1520 0.930 . S
C1509 C1508 1.355 . S
C1509 C1511 1.402 . S
C1509 H1521 0.930 . S
N1510 Gd1501 2.661 . S
N1510 C1505 1.350 . S
N1510 C1511 1.307 . S
C1511 C1509 1.402 . S
C1511 N1510 1.307 . S
C1511 H1512 0.930 . S
H1512 C1511 0.930 . S
C1513 N1514 1.334 . S
C1513 C1515 1.394 . S
C1513 H1517 0.930 . S
N1514 Gd1501 2.601 . S
N1514 C1504 1.359 . S
N1514 C1513 1.334 . S
C1515 C1513 1.394 . S
C1515 C1516 1.359 . S
C1515 H1527 0.930 . S
C1516 C1506 1.391 . S
C1516 C1515 1.359 . S
C1516 H1528 0.929 . S
H1517 C1513 0.930 . S
H1518 C1507 0.930 . S
H1519 C1536 0.930 . S
H1520 C1508 0.930 . S
H1521 C1509 0.930 . S
H1522 C1503 0.929 . S
H1523 C1541 0.930 . S
H1524 C1532 0.930 . S
H1525 C1533 0.930 . S
H1526 C1557 0.929 . S
H1527 C1515 0.930 . S
H1528 C1516 0.929 . S
H1529 C1558 0.930 . S
H1530 C1539 0.930 . S
N1531 Gd1500 2.661 . S
N1531 C1535 1.350 . S
N1531 C1536 1.307 . S
C1532 H1524 0.930 . S
C1532 C1533 1.355 . S
C1532 C1534 1.412 . S
C1533 H1525 0.930 . S
C1533 C1532 1.355 . S
C1533 C1536 1.402 . S
C1534 C1532 1.412 . S
C1534 C1535 1.417 . S
C1534 C1558 1.431 . S
C1535 N1531 1.350 . S
C1535 C1534 1.417 . S
C1535 C1538 1.426 . S
C1536 H1519 0.930 . S
C1536 N1531 1.307 . S
C1536 C1533 1.402 . S
N1537 Gd1500 2.601 . S
N1537 C1538 1.359 . S
N1537 C1541 1.334 . S
C1538 C1535 1.426 . S
C1538 N1537 1.359 . S
C1538 C1542 1.413 . S
C1539 H1530 0.930 . S
C1539 C1540 1.359 . S
C1539 C1541 1.394 . S
C1540 C1539 1.359 . S
C1540 C1542 1.391 . S
C1540 H1543 0.929 . S
C1541 H1523 0.930 . S
C1541 N1537 1.334 . S
C1541 C1539 1.394 . S
C1542 C1538 1.413 . S
C1542 C1540 1.391 . S
C1542 C1557 1.437 . S
H1543 C1540 0.929 . S
O1544 Gd1500 2.545 . S
O1544 C1559 1.258 . S
O1545 Gd1500 2.606 . S
O1545 Gd1501 2.362 . S
O1545 C1556 1.284 . S
O1546 Gd1501 2.324 . S
O1546 C1566 1.254 . S
O1547 Gd1500 2.429 . S
O1547 C1566 1.268 . S
O1548 Gd1500 2.545 . S
O1548 C1556 1.250 . S
O1549 Gd1500 2.412 . S
O1549 C1559 1.252 . S
O1550 Gd1501 2.545 . S
O1550 C1568 1.258 . S
O1551 Gd1500 2.362 . S
O1551 Gd1501 2.606 . S
O1551 C1567 1.284 . S
O1552 Gd1500 2.324 . S
O1552 C1575 1.254 . S
O1553 Gd1501 2.429 . S
O1553 C1575 1.268 . S
O1554 Gd1501 2.545 . S
O1554 C1567 1.250 . S
O1555 Gd1501 2.412 . S
O1555 C1568 1.252 . S
C1556 O1545 1.284 . S
C1556 O1548 1.250 . S
C1557 H1526 0.929 . S
C1557 C1542 1.437 . S
C1557 C1558 1.317 . S
C1558 H1529 0.930 . S
C1558 C1534 1.431 . S
C1558 C1557 1.317 . S
C1559 Gd1500 2.828 . S
C1559 O1544 1.258 . S
C1559 O1549 1.252 . S
C1559 C1560 1.497 . S
C1560 C1559 1.497 . S
C1560 C1561 1.395 . S
C1560 C1562 1.380 . S
C1561 C1560 1.395 . S
C1561 C1564 1.398 . S
C1561 H1576 0.930 . S
C1562 C1560 1.380 . S
C1562 C1563 1.391 . S
C1562 H1577 0.930 . S
C1563 C1562 1.391 . S
C1563 C1565 1.387 . S
C1564 C1561 1.398 . S
C1564 C1565 1.380 . S
C1564 H1578 0.930 . S
C1565 C1563 1.387 . S
C1565 C1564 1.380 . S
C1565 H1579 0.930 . S
C1566 O1546 1.254 . S
C1566 O1547 1.268 . S
C1567 O1551 1.284 . S
C1567 O1554 1.250 . S
C1568 Gd1501 2.828 . S
C1568 O1550 1.258 . S
C1568 O1555 1.252 . S
C1568 C1569 1.497 . S
C1569 C1568 1.497 . S
C1569 C1570 1.395 . S
C1569 C1571 1.380 . S
C1570 C1569 1.395 . S
C1570 C1573 1.398 . S
C1570 H1580 0.930 . S
C1571 C1569 1.380 . S
C1571 C1572 1.391 . S
C1571 H1581 0.930 . S
C1572 C1571 1.391 . S
C1572 C1574 1.387 . S
C1573 C1570 1.398 . S
C1573 C1574 1.380 . S
C1573 H1582 0.930 . S
C1574 C1572 1.387 . S
C1574 C1573 1.380 . S
C1574 H1583 0.930 . S
C1575 O1552 1.254 . S
C1575 O1553 1.268 . S
H1576 C1561 0.930 . S
H1577 C1562 0.930 . S
H1578 C1564 0.930 . S
H1579 C1565 0.930 . S
H1580 C1570 0.930 . S
H1581 C1571 0.930 . S
H1582 C1573 0.930 . S
H1583 C1574 0.930 . S
Gd1584 N1615 2.661 . S
Gd1584 N1621 2.601 . S
Gd1584 O1628 2.545 . S
Gd1584 O1629 2.606 . S
Gd1584 O1631 2.429 . S
Gd1584 O1632 2.545 . S
Gd1584 O1633 2.412 . S
Gd1584 O1635 2.362 . S
Gd1584 O1636 2.324 . S
Gd1584 C1643 2.828 . S
Gd1585 N1594 2.661 . S
Gd1585 N1598 2.601 . S
Gd1585 O1629 2.362 . S
Gd1585 O1630 2.324 . S
Gd1585 O1634 2.545 . S
Gd1585 O1635 2.606 . S
Gd1585 O1637 2.429 . S
Gd1585 O1638 2.545 . S
Gd1585 O1639 2.412 . S
Gd1585 C1652 2.828 . S
C1586 C1589 1.417 . S
C1586 C1591 1.431 . S
C1586 C1592 1.412 . S
C1587 C1590 1.437 . S
C1587 C1591 1.317 . S
C1587 H1606 0.929 . S
C1588 C1589 1.426 . S
C1588 C1590 1.413 . S
C1588 N1598 1.359 . S
C1589 C1586 1.417 . S
C1589 C1588 1.426 . S
C1589 N1594 1.350 . S
C1590 C1587 1.437 . S
C1590 C1588 1.413 . S
C1590 C1600 1.391 . S
C1591 C1586 1.431 . S
C1591 C1587 1.317 . S
C1591 H1602 0.930 . S
C1592 C1586 1.412 . S
C1592 C1593 1.355 . S
C1592 H1604 0.930 . S
C1593 C1592 1.355 . S
C1593 C1595 1.402 . S
C1593 H1605 0.930 . S
N1594 Gd1585 2.661 . S
N1594 C1589 1.350 . S
N1594 C1595 1.307 . S
C1595 C1593 1.402 . S
C1595 N1594 1.307 . S
C1595 H1596 0.930 . S
H1596 C1595 0.930 . S
C1597 N1598 1.334 . S
C1597 C1599 1.394 . S
C1597 H1601 0.930 . S
N1598 Gd1585 2.601 . S
N1598 C1588 1.359 . S
N1598 C1597 1.334 . S
C1599 C1597 1.394 . S
C1599 C1600 1.359 . S
C1599 H1611 0.930 . S
C1600 C1590 1.391 . S
C1600 C1599 1.359 . S
C1600 H1612 0.929 . S
H1601 C1597 0.930 . S
H1602 C1591 0.930 . S
H1603 C1620 0.930 . S
H1604 C1592 0.930 . S
H1605 C1593 0.930 . S
H1606 C1587 0.929 . S
H1607 C1625 0.930 . S
H1608 C1616 0.930 . S
H1609 C1617 0.930 . S
H1610 C1641 0.929 . S
H1611 C1599 0.930 . S
H1612 C1600 0.929 . S
H1613 C1642 0.930 . S
H1614 C1623 0.930 . S
N1615 Gd1584 2.661 . S
N1615 C1619 1.350 . S
N1615 C1620 1.307 . S
C1616 H1608 0.930 . S
C1616 C1617 1.355 . S
C1616 C1618 1.412 . S
C1617 H1609 0.930 . S
C1617 C1616 1.355 . S
C1617 C1620 1.402 . S
C1618 C1616 1.412 . S
C1618 C1619 1.417 . S
C1618 C1642 1.431 . S
C1619 N1615 1.350 . S
C1619 C1618 1.417 . S
C1619 C1622 1.426 . S
C1620 H1603 0.930 . S
C1620 N1615 1.307 . S
C1620 C1617 1.402 . S
N1621 Gd1584 2.601 . S
N1621 C1622 1.359 . S
N1621 C1625 1.334 . S
C1622 C1619 1.426 . S
C1622 N1621 1.359 . S
C1622 C1626 1.413 . S
C1623 H1614 0.930 . S
C1623 C1624 1.359 . S
C1623 C1625 1.394 . S
C1624 C1623 1.359 . S
C1624 C1626 1.391 . S
C1624 H1627 0.929 . S
C1625 H1607 0.930 . S
C1625 N1621 1.334 . S
C1625 C1623 1.394 . S
C1626 C1622 1.413 . S
C1626 C1624 1.391 . S
C1626 C1641 1.437 . S
H1627 C1624 0.929 . S
O1628 Gd1584 2.545 . S
O1628 C1643 1.258 . S
O1629 Gd1584 2.606 . S
O1629 Gd1585 2.362 . S
O1629 C1640 1.284 . S
O1630 Gd1585 2.324 . S
O1630 C1650 1.254 . S
O1631 Gd1584 2.429 . S
O1631 C1650 1.268 . S
O1632 Gd1584 2.545 . S
O1632 C1640 1.250 . S
O1633 Gd1584 2.412 . S
O1633 C1643 1.252 . S
O1634 Gd1585 2.545 . S
O1634 C1652 1.258 . S
O1635 Gd1584 2.362 . S
O1635 Gd1585 2.606 . S
O1635 C1651 1.284 . S
O1636 Gd1584 2.324 . S
O1636 C1659 1.254 . S
O1637 Gd1585 2.429 . S
O1637 C1659 1.268 . S
O1638 Gd1585 2.545 . S
O1638 C1651 1.250 . S
O1639 Gd1585 2.412 . S
O1639 C1652 1.252 . S
C1640 O1629 1.284 . S
C1640 O1632 1.250 . S
C1641 H1610 0.929 . S
C1641 C1626 1.437 . S
C1641 C1642 1.317 . S
C1642 H1613 0.930 . S
C1642 C1618 1.431 . S
C1642 C1641 1.317 . S
C1643 Gd1584 2.828 . S
C1643 O1628 1.258 . S
C1643 O1633 1.252 . S
C1643 C1644 1.497 . S
C1644 C1643 1.497 . S
C1644 C1645 1.395 . S
C1644 C1646 1.380 . S
C1645 C1644 1.395 . S
C1645 C1648 1.398 . S
C1645 H1660 0.930 . S
C1646 C1644 1.380 . S
C1646 C1647 1.391 . S
C1646 H1661 0.930 . S
C1647 C1646 1.391 . S
C1647 C1649 1.387 . S
C1648 C1645 1.398 . S
C1648 C1649 1.380 . S
C1648 H1662 0.930 . S
C1649 C1647 1.387 . S
C1649 C1648 1.380 . S
C1649 H1663 0.930 . S
C1650 O1630 1.254 . S
C1650 O1631 1.268 . S
C1651 O1635 1.284 . S
C1651 O1638 1.250 . S
C1652 Gd1585 2.828 . S
C1652 O1634 1.258 . S
C1652 O1639 1.252 . S
C1652 C1653 1.497 . S
C1653 C1652 1.497 . S
C1653 C1654 1.395 . S
C1653 C1655 1.380 . S
C1654 C1653 1.395 . S
C1654 C1657 1.398 . S
C1654 H1664 0.930 . S
C1655 C1653 1.380 . S
C1655 C1656 1.391 . S
C1655 H1665 0.930 . S
C1656 C1655 1.391 . S
C1656 C1658 1.387 . S
C1657 C1654 1.398 . S
C1657 C1658 1.380 . S
C1657 H1666 0.930 . S
C1658 C1656 1.387 . S
C1658 C1657 1.380 . S
C1658 H1667 0.930 . S
C1659 O1636 1.254 . S
C1659 O1637 1.268 . S
H1660 C1645 0.930 . S
H1661 C1646 0.930 . S
H1662 C1648 0.930 . S
H1663 C1649 0.930 . S
H1664 C1654 0.930 . S
H1665 C1655 0.930 . S
H1666 C1657 0.930 . S
H1667 C1658 0.930 . S
Gd1668 N1699 2.661 . S
Gd1668 N1705 2.601 . S
Gd1668 O1712 2.545 . S
Gd1668 O1713 2.606 . S
Gd1668 O1715 2.429 . S
Gd1668 O1716 2.545 . S
Gd1668 O1717 2.412 . S
Gd1668 O1719 2.362 . S
Gd1668 O1720 2.324 . S
Gd1668 C1727 2.828 . S
Gd1669 N1678 2.661 . S
Gd1669 N1682 2.601 . S
Gd1669 O1713 2.362 . S
Gd1669 O1714 2.324 . S
Gd1669 O1718 2.545 . S
Gd1669 O1719 2.606 . S
Gd1669 O1721 2.429 . S
Gd1669 O1722 2.545 . S
Gd1669 O1723 2.412 . S
Gd1669 C1736 2.828 . S
C1670 C1673 1.417 . S
C1670 C1675 1.431 . S
C1670 C1676 1.412 . S
C1671 C1674 1.437 . S
C1671 C1675 1.317 . S
C1671 H1690 0.929 . S
C1672 C1673 1.426 . S
C1672 C1674 1.413 . S
C1672 N1682 1.359 . S
C1673 C1670 1.417 . S
C1673 C1672 1.426 . S
C1673 N1678 1.350 . S
C1674 C1671 1.437 . S
C1674 C1672 1.413 . S
C1674 C1684 1.391 . S
C1675 C1670 1.431 . S
C1675 C1671 1.317 . S
C1675 H1686 0.930 . S
C1676 C1670 1.412 . S
C1676 C1677 1.355 . S
C1676 H1688 0.930 . S
C1677 C1676 1.355 . S
C1677 C1679 1.402 . S
C1677 H1689 0.930 . S
N1678 Gd1669 2.661 . S
N1678 C1673 1.350 . S
N1678 C1679 1.307 . S
C1679 C1677 1.402 . S
C1679 N1678 1.307 . S
C1679 H1680 0.930 . S
H1680 C1679 0.930 . S
C1681 N1682 1.334 . S
C1681 C1683 1.394 . S
C1681 H1685 0.930 . S
N1682 Gd1669 2.601 . S
N1682 C1672 1.359 . S
N1682 C1681 1.334 . S
C1683 C1681 1.394 . S
C1683 C1684 1.359 . S
C1683 H1695 0.930 . S
C1684 C1674 1.391 . S
C1684 C1683 1.359 . S
C1684 H1696 0.929 . S
H1685 C1681 0.930 . S
H1686 C1675 0.930 . S
H1687 C1704 0.930 . S
H1688 C1676 0.930 . S
H1689 C1677 0.930 . S
H1690 C1671 0.929 . S
H1691 C1709 0.930 . S
H1692 C1700 0.930 . S
H1693 C1701 0.930 . S
H1694 C1725 0.929 . S
H1695 C1683 0.930 . S
H1696 C1684 0.929 . S
H1697 C1726 0.930 . S
H1698 C1707 0.930 . S
N1699 Gd1668 2.661 . S
N1699 C1703 1.350 . S
N1699 C1704 1.307 . S
C1700 H1692 0.930 . S
C1700 C1701 1.355 . S
C1700 C1702 1.412 . S
C1701 H1693 0.930 . S
C1701 C1700 1.355 . S
C1701 C1704 1.402 . S
C1702 C1700 1.412 . S
C1702 C1703 1.417 . S
C1702 C1726 1.431 . S
C1703 N1699 1.350 . S
C1703 C1702 1.417 . S
C1703 C1706 1.426 . S
C1704 H1687 0.930 . S
C1704 N1699 1.307 . S
C1704 C1701 1.402 . S
N1705 Gd1668 2.601 . S
N1705 C1706 1.359 . S
N1705 C1709 1.334 . S
C1706 C1703 1.426 . S
C1706 N1705 1.359 . S
C1706 C1710 1.413 . S
C1707 H1698 0.930 . S
C1707 C1708 1.359 . S
C1707 C1709 1.394 . S
C1708 C1707 1.359 . S
C1708 C1710 1.391 . S
C1708 H1711 0.929 . S
C1709 H1691 0.930 . S
C1709 N1705 1.334 . S
C1709 C1707 1.394 . S
C1710 C1706 1.413 . S
C1710 C1708 1.391 . S
C1710 C1725 1.437 . S
H1711 C1708 0.929 . S
O1712 Gd1668 2.545 . S
O1712 C1727 1.258 . S
O1713 Gd1668 2.606 . S
O1713 Gd1669 2.362 . S
O1713 C1724 1.284 . S
O1714 Gd1669 2.324 . S
O1714 C1734 1.254 . S
O1715 Gd1668 2.429 . S
O1715 C1734 1.268 . S
O1716 Gd1668 2.545 . S
O1716 C1724 1.250 . S
O1717 Gd1668 2.412 . S
O1717 C1727 1.252 . S
O1718 Gd1669 2.545 . S
O1718 C1736 1.258 . S
O1719 Gd1668 2.362 . S
O1719 Gd1669 2.606 . S
O1719 C1735 1.284 . S
O1720 Gd1668 2.324 . S
O1720 C1743 1.254 . S
O1721 Gd1669 2.429 . S
O1721 C1743 1.268 . S
O1722 Gd1669 2.545 . S
O1722 C1735 1.250 . S
O1723 Gd1669 2.412 . S
O1723 C1736 1.252 . S
C1724 O1713 1.284 . S
C1724 O1716 1.250 . S
C1725 H1694 0.929 . S
C1725 C1710 1.437 . S
C1725 C1726 1.317 . S
C1726 H1697 0.930 . S
C1726 C1702 1.431 . S
C1726 C1725 1.317 . S
C1727 Gd1668 2.828 . S
C1727 O1712 1.258 . S
C1727 O1717 1.252 . S
C1727 C1728 1.497 . S
C1728 C1727 1.497 . S
C1728 C1729 1.395 . S
C1728 C1730 1.380 . S
C1729 C1728 1.395 . S
C1729 C1732 1.398 . S
C1729 H1744 0.930 . S
C1730 C1728 1.380 . S
C1730 C1731 1.391 . S
C1730 H1745 0.930 . S
C1731 C1730 1.391 . S
C1731 C1733 1.387 . S
C1732 C1729 1.398 . S
C1732 C1733 1.380 . S
C1732 H1746 0.930 . S
C1733 C1731 1.387 . S
C1733 C1732 1.380 . S
C1733 H1747 0.930 . S
C1734 O1714 1.254 . S
C1734 O1715 1.268 . S
C1735 O1719 1.284 . S
C1735 O1722 1.250 . S
C1736 Gd1669 2.828 . S
C1736 O1718 1.258 . S
C1736 O1723 1.252 . S
C1736 C1737 1.497 . S
C1737 C1736 1.497 . S
C1737 C1738 1.395 . S
C1737 C1739 1.380 . S
C1738 C1737 1.395 . S
C1738 C1741 1.398 . S
C1738 H1748 0.930 . S
C1739 C1737 1.380 . S
C1739 C1740 1.391 . S
C1739 H1749 0.930 . S
C1740 C1739 1.391 . S
C1740 C1742 1.387 . S
C1741 C1738 1.398 . S
C1741 C1742 1.380 . S
C1741 H1750 0.930 . S
C1742 C1740 1.387 . S
C1742 C1741 1.380 . S
C1742 H1751 0.930 . S
C1743 O1720 1.254 . S
C1743 O1721 1.268 . S
H1744 C1729 0.930 . S
H1745 C1730 0.930 . S
H1746 C1732 0.930 . S
H1747 C1733 0.930 . S
H1748 C1738 0.930 . S
H1749 C1739 0.930 . S
H1750 C1741 0.930 . S
H1751 C1742 0.930 . S
Gd1752 N1783 2.661 . S
Gd1752 N1789 2.601 . S
Gd1752 O1796 2.545 . S
Gd1752 O1797 2.606 . S
Gd1752 O1799 2.429 . S
Gd1752 O1800 2.545 . S
Gd1752 O1801 2.412 . S
Gd1752 O1803 2.362 . S
Gd1752 O1804 2.324 . S
Gd1752 C1811 2.828 . S
Gd1753 N1762 2.661 . S
Gd1753 N1766 2.601 . S
Gd1753 O1797 2.362 . S
Gd1753 O1798 2.324 . S
Gd1753 O1802 2.545 . S
Gd1753 O1803 2.606 . S
Gd1753 O1805 2.429 . S
Gd1753 O1806 2.545 . S
Gd1753 O1807 2.412 . S
Gd1753 C1820 2.828 . S
C1754 C1757 1.417 . S
C1754 C1759 1.431 . S
C1754 C1760 1.412 . S
C1755 C1758 1.437 . S
C1755 C1759 1.317 . S
C1755 H1774 0.929 . S
C1756 C1757 1.426 . S
C1756 C1758 1.413 . S
C1756 N1766 1.359 . S
C1757 C1754 1.417 . S
C1757 C1756 1.426 . S
C1757 N1762 1.350 . S
C1758 C1755 1.437 . S
C1758 C1756 1.413 . S
C1758 C1768 1.391 . S
C1759 C1754 1.431 . S
C1759 C1755 1.317 . S
C1759 H1770 0.930 . S
C1760 C1754 1.412 . S
C1760 C1761 1.355 . S
C1760 H1772 0.930 . S
C1761 C1760 1.355 . S
C1761 C1763 1.402 . S
C1761 H1773 0.930 . S
N1762 Gd1753 2.661 . S
N1762 C1757 1.350 . S
N1762 C1763 1.307 . S
C1763 C1761 1.402 . S
C1763 N1762 1.307 . S
C1763 H1764 0.930 . S
H1764 C1763 0.930 . S
C1765 N1766 1.334 . S
C1765 C1767 1.394 . S
C1765 H1769 0.930 . S
N1766 Gd1753 2.601 . S
N1766 C1756 1.359 . S
N1766 C1765 1.334 . S
C1767 C1765 1.394 . S
C1767 C1768 1.359 . S
C1767 H1779 0.930 . S
C1768 C1758 1.391 . S
C1768 C1767 1.359 . S
C1768 H1780 0.929 . S
H1769 C1765 0.930 . S
H1770 C1759 0.930 . S
H1771 C1788 0.930 . S
H1772 C1760 0.930 . S
H1773 C1761 0.930 . S
H1774 C1755 0.929 . S
H1775 C1793 0.930 . S
H1776 C1784 0.930 . S
H1777 C1785 0.930 . S
H1778 C1809 0.929 . S
H1779 C1767 0.930 . S
H1780 C1768 0.929 . S
H1781 C1810 0.930 . S
H1782 C1791 0.930 . S
N1783 Gd1752 2.661 . S
N1783 C1787 1.350 . S
N1783 C1788 1.307 . S
C1784 H1776 0.930 . S
C1784 C1785 1.355 . S
C1784 C1786 1.412 . S
C1785 H1777 0.930 . S
C1785 C1784 1.355 . S
C1785 C1788 1.402 . S
C1786 C1784 1.412 . S
C1786 C1787 1.417 . S
C1786 C1810 1.431 . S
C1787 N1783 1.350 . S
C1787 C1786 1.417 . S
C1787 C1790 1.426 . S
C1788 H1771 0.930 . S
C1788 N1783 1.307 . S
C1788 C1785 1.402 . S
N1789 Gd1752 2.601 . S
N1789 C1790 1.359 . S
N1789 C1793 1.334 . S
C1790 C1787 1.426 . S
C1790 N1789 1.359 . S
C1790 C1794 1.413 . S
C1791 H1782 0.930 . S
C1791 C1792 1.359 . S
C1791 C1793 1.394 . S
C1792 C1791 1.359 . S
C1792 C1794 1.391 . S
C1792 H1795 0.929 . S
C1793 H1775 0.930 . S
C1793 N1789 1.334 . S
C1793 C1791 1.394 . S
C1794 C1790 1.413 . S
C1794 C1792 1.391 . S
C1794 C1809 1.437 . S
H1795 C1792 0.929 . S
O1796 Gd1752 2.545 . S
O1796 C1811 1.258 . S
O1797 Gd1752 2.606 . S
O1797 Gd1753 2.362 . S
O1797 C1808 1.284 . S
O1798 Gd1753 2.324 . S
O1798 C1818 1.254 . S
O1799 Gd1752 2.429 . S
O1799 C1818 1.268 . S
O1800 Gd1752 2.545 . S
O1800 C1808 1.250 . S
O1801 Gd1752 2.412 . S
O1801 C1811 1.252 . S
O1802 Gd1753 2.545 . S
O1802 C1820 1.258 . S
O1803 Gd1752 2.362 . S
O1803 Gd1753 2.606 . S
O1803 C1819 1.284 . S
O1804 Gd1752 2.324 . S
O1804 C1827 1.254 . S
O1805 Gd1753 2.429 . S
O1805 C1827 1.268 . S
O1806 Gd1753 2.545 . S
O1806 C1819 1.250 . S
O1807 Gd1753 2.412 . S
O1807 C1820 1.252 . S
C1808 O1797 1.284 . S
C1808 O1800 1.250 . S
C1809 H1778 0.929 . S
C1809 C1794 1.437 . S
C1809 C1810 1.317 . S
C1810 H1781 0.930 . S
C1810 C1786 1.431 . S
C1810 C1809 1.317 . S
C1811 Gd1752 2.828 . S
C1811 O1796 1.258 . S
C1811 O1801 1.252 . S
C1811 C1812 1.497 . S
C1812 C1811 1.497 . S
C1812 C1813 1.395 . S
C1812 C1814 1.380 . S
C1813 C1812 1.395 . S
C1813 C1816 1.398 . S
C1813 H1828 0.930 . S
C1814 C1812 1.380 . S
C1814 C1815 1.391 . S
C1814 H1829 0.930 . S
C1815 C1814 1.391 . S
C1815 C1817 1.387 . S
C1816 C1813 1.398 . S
C1816 C1817 1.380 . S
C1816 H1830 0.930 . S
C1817 C1815 1.387 . S
C1817 C1816 1.380 . S
C1817 H1831 0.930 . S
C1818 O1798 1.254 . S
C1818 O1799 1.268 . S
C1819 O1803 1.284 . S
C1819 O1806 1.250 . S
C1820 Gd1753 2.828 . S
C1820 O1802 1.258 . S
C1820 O1807 1.252 . S
C1820 C1821 1.497 . S
C1821 C1820 1.497 . S
C1821 C1822 1.395 . S
C1821 C1823 1.380 . S
C1822 C1821 1.395 . S
C1822 C1825 1.398 . S
C1822 H1832 0.930 . S
C1823 C1821 1.380 . S
C1823 C1824 1.391 . S
C1823 H1833 0.930 . S
C1824 C1823 1.391 . S
C1824 C1826 1.387 . S
C1825 C1822 1.398 . S
C1825 C1826 1.380 . S
C1825 H1834 0.930 . S
C1826 C1824 1.387 . S
C1826 C1825 1.380 . S
C1826 H1835 0.930 . S
C1827 O1804 1.254 . S
C1827 O1805 1.268 . S
H1828 C1813 0.930 . S
H1829 C1814 0.930 . S
H1830 C1816 0.930 . S
H1831 C1817 0.930 . S
H1832 C1822 0.930 . S
H1833 C1823 0.930 . S
H1834 C1825 0.930 . S
H1835 C1826 0.930 . S
H1836 C1848 0.930 . S
H1837 C1850 0.930 . S
H1838 C1851 0.930 . S
H1839 C1855 0.959 . S
H1840 C1855 0.959 . S
H1841 C1855 0.961 . S
H1842 C1856 0.960 . S
H1843 C1856 0.961 . S
H1844 C1856 0.959 . S
H1845 C1859 0.929 . S
H1846 C1860 0.931 . S
H1847 C1862 0.930 . S
C1848 H1836 0.930 . S
C1848 C1849 1.399 . S
C1848 C1853 1.399 . S
C1849 C1848 1.399 . S
C1849 C1850 1.376 . S
C1850 H1837 0.930 . S
C1850 C1849 1.376 . S
C1850 C1851 1.388 . S
C1851 H1838 0.930 . S
C1851 C1850 1.388 . S
C1851 C1852 1.390 . S
C1852 C1851 1.390 . S
C1852 C1853 1.394 . S
C1852 C1858 1.465 . S
C1853 C1848 1.399 . S
C1853 C1852 1.394 . S
C1853 C1854 1.516 . S
C1854 C1853 1.516 . S
C1854 C1855 1.502 . S
C1854 C1856 1.561 . S
C1854 C1857 1.526 . S
C1855 H1839 0.959 . S
C1855 H1840 0.959 . S
C1855 H1841 0.961 . S
C1855 C1854 1.502 . S
C1856 H1842 0.960 . S
C1856 H1843 0.961 . S
C1856 H1844 0.959 . S
C1856 C1854 1.561 . S
C1857 C1854 1.526 . S
C1857 C1858 1.396 . S
C1857 C1862 1.390 . S
C1858 C1852 1.465 . S
C1858 C1857 1.396 . S
C1858 C1859 1.399 . S
C1859 H1845 0.929 . S
C1859 C1858 1.399 . S
C1859 C1860 1.385 . S
C1860 H1846 0.931 . S
C1860 C1859 1.385 . S
C1860 C1861 1.389 . S
C1861 C1860 1.389 . S
C1861 C1862 1.387 . S
C1862 H1847 0.930 . S
C1862 C1857 1.390 . S
C1862 C1861 1.387 . S
H1863 C1875 0.930 . S
H1864 C1877 0.930 . S
H1865 C1878 0.930 . S
H1866 C1882 0.959 . S
H1867 C1882 0.937 1_556 S
H1868 C1882 0.961 . S
H1869 C1883 0.960 . S
H1870 C1883 0.961 . S
H1871 C1883 0.959 . S
H1872 C1886 0.929 . S
H1873 C1887 0.931 . S
H1874 C1889 0.930 . S
C1875 H1863 0.930 . S
C1875 C1876 1.399 . S
C1875 C1880 1.399 . S
C1876 C1875 1.399 . S
C1876 C1877 1.376 . S
C1877 H1864 0.930 . S
C1877 C1876 1.376 . S
C1877 C1878 1.388 . S
C1878 H1865 0.930 . S
C1878 C1877 1.388 . S
C1878 C1879 1.390 . S
C1879 C1878 1.390 . S
C1879 C1880 1.394 . S
C1879 C1885 1.465 . S
C1880 C1875 1.399 . S
C1880 C1879 1.394 . S
C1880 C1881 1.516 . S
C1881 C1880 1.516 . S
C1881 C1882 1.502 . S
C1881 C1883 1.561 . S
C1881 C1884 1.526 . S
C1882 H1866 0.959 . S
C1882 H1867 0.937 1_554 S
C1882 H1868 0.961 . S
C1882 C1881 1.502 . S
C1883 H1869 0.960 . S
C1883 H1870 0.961 . S
C1883 H1871 0.959 . S
C1883 C1881 1.561 . S
C1884 C1881 1.526 . S
C1884 C1885 1.396 . S
C1884 C1889 1.390 . S
C1885 C1879 1.465 . S
C1885 C1884 1.396 . S
C1885 C1886 1.399 . S
C1886 H1872 0.929 . S
C1886 C1885 1.399 . S
C1886 C1887 1.385 . S
C1887 H1873 0.931 . S
C1887 C1886 1.385 . S
C1887 C1888 1.389 . S
C1888 C1887 1.389 . S
C1888 C1889 1.387 . S
C1889 H1874 0.930 . S
C1889 C1884 1.390 . S
C1889 C1888 1.387 . S
H1890 C1902 0.930 . S
H1891 C1904 0.930 . S
H1892 C1905 0.930 . S
H1893 C1909 0.959 . S
H1894 C1909 0.959 1_556 S
H1895 C1909 0.961 . S
H1896 C1910 0.976 . S
H1897 C1910 0.961 1_556 S
H1898 C1910 0.959 . S
H1899 C1913 0.929 . S
H1900 C1914 0.931 . S
H1901 C1916 0.930 . S
C1902 H1890 0.930 . S
C1902 C1903 1.399 . S
C1902 C1907 1.399 . S
C1903 C1902 1.399 . S
C1903 C1904 1.376 . S
C1904 H1891 0.930 . S
C1904 C1903 1.376 . S
C1904 C1905 1.388 . S
C1905 H1892 0.930 . S
C1905 C1904 1.388 . S
C1905 C1906 1.390 . S
C1906 C1905 1.390 . S
C1906 C1907 1.394 . S
C1906 C1912 1.465 . S
C1907 C1902 1.399 . S
C1907 C1906 1.394 . S
C1907 C1908 1.516 . S
C1908 C1907 1.516 . S
C1908 C1909 1.502 . S
C1908 C1910 1.561 . S
C1908 C1911 1.526 . S
C1909 H1893 0.959 . S
C1909 H1894 0.959 1_554 S
C1909 H1895 0.961 . S
C1909 C1908 1.502 . S
C1910 H1896 0.976 . S
C1910 H1897 0.961 1_554 S
C1910 H1898 0.959 . S
C1910 C1908 1.561 . S
C1911 C1908 1.526 . S
C1911 C1912 1.396 . S
C1911 C1916 1.390 . S
C1912 C1906 1.465 . S
C1912 C1911 1.396 . S
C1912 C1913 1.399 . S
C1913 H1899 0.929 . S
C1913 C1912 1.399 . S
C1913 C1914 1.385 . S
C1914 H1900 0.931 . S
C1914 C1913 1.385 . S
C1914 C1915 1.389 . S
C1915 C1914 1.389 . S
C1915 C1916 1.387 . S
C1916 H1901 0.930 . S
C1916 C1911 1.390 . S
C1916 C1915 1.387 . S
H1917 C1929 0.930 . S
H1918 C1931 0.930 . S
H1919 C1932 0.930 . S
H1920 C1936 0.959 . S
H1921 C1936 0.959 . S
H1922 C1936 0.961 . S
H1923 C1937 0.960 . S
H1924 C1937 0.961 1_554 S
H1925 C1937 0.985 . S
H1926 C1940 0.929 . S
H1927 C1941 0.931 . S
H1928 C1943 0.930 . S
C1929 H1917 0.930 . S
C1929 C1930 1.399 . S
C1929 C1934 1.399 . S
C1930 C1929 1.399 . S
C1930 C1931 1.376 . S
C1931 H1918 0.930 . S
C1931 C1930 1.376 . S
C1931 C1932 1.388 . S
C1932 H1919 0.930 . S
C1932 C1931 1.388 . S
C1932 C1933 1.390 . S
C1933 C1932 1.390 . S
C1933 C1934 1.394 . S
C1933 C1939 1.465 . S
C1934 C1929 1.399 . S
C1934 C1933 1.394 . S
C1934 C1935 1.516 . S
C1935 C1934 1.516 . S
C1935 C1936 1.502 . S
C1935 C1937 1.561 . S
C1935 C1938 1.526 . S
C1936 H1920 0.959 . S
C1936 H1921 0.959 . S
C1936 H1922 0.961 . S
C1936 C1935 1.502 . S
C1937 H1923 0.960 . S
C1937 H1924 0.961 1_556 S
C1937 H1925 0.985 . S
C1937 C1935 1.561 . S
C1938 C1935 1.526 . S
C1938 C1939 1.396 . S
C1938 C1943 1.390 . S
C1939 C1933 1.465 . S
C1939 C1938 1.396 . S
C1939 C1940 1.399 . S
C1940 H1926 0.929 . S
C1940 C1939 1.399 . S
C1940 C1941 1.385 . S
C1941 H1927 0.931 . S
C1941 C1940 1.385 . S
C1941 C1942 1.389 . S
C1942 C1941 1.389 . S
C1942 C1943 1.387 . S
C1943 H1928 0.930 . S
C1943 C1938 1.390 . S
C1943 C1942 1.387 . S
H1944 C1956 0.930 . S
H1945 C1958 0.930 . S
H1946 C1959 0.930 . S
H1947 C1963 0.959 . S
H1948 C1963 0.959 . S
H1949 C1963 0.961 . S
H1950 C1964 0.960 . S
H1951 C1964 0.961 . S
H1952 C1964 0.959 . S
H1953 C1967 0.929 . S
H1954 C1968 0.908 1_554 S
H1955 C1970 0.930 . S
C1956 H1944 0.930 . S
C1956 C1957 1.399 . S
C1956 C1961 1.399 . S
C1957 C1956 1.399 . S
C1957 C1958 1.376 . S
C1958 H1945 0.930 . S
C1958 C1957 1.376 . S
C1958 C1959 1.388 . S
C1959 H1946 0.930 . S
C1959 C1958 1.388 . S
C1959 C1960 1.390 . S
C1960 C1959 1.390 . S
C1960 C1961 1.394 . S
C1960 C1966 1.465 . S
C1961 C1956 1.399 . S
C1961 C1960 1.394 . S
C1961 C1962 1.516 . S
C1962 C1961 1.516 . S
C1962 C1963 1.502 . S
C1962 C1964 1.561 . S
C1962 C1965 1.526 . S
C1963 H1947 0.959 . S
C1963 H1948 0.959 . S
C1963 H1949 0.961 . S
C1963 C1962 1.502 . S
C1964 H1950 0.960 . S
C1964 H1951 0.961 . S
C1964 H1952 0.959 . S
C1964 C1962 1.561 . S
C1965 C1962 1.526 . S
C1965 C1966 1.396 . S
C1965 C1970 1.390 . S
C1966 C1960 1.465 . S
C1966 C1965 1.396 . S
C1966 C1967 1.399 . S
C1967 H1953 0.929 . S
C1967 C1966 1.399 . S
C1967 C1968 1.385 . S
C1968 H1954 0.908 1_556 S
C1968 C1967 1.385 . S
C1968 C1969 1.389 . S
C1969 C1968 1.389 . S
C1969 C1970 1.387 . S
C1970 H1955 0.930 . S
C1970 C1965 1.390 . S
C1970 C1969 1.387 . S
H1971 C1983 0.930 . S
H1972 C1985 0.930 . S
H1973 C1986 0.930 . S
H1974 C1990 0.959 . S
H1975 C1990 0.959 . S
H1976 C1990 0.961 . S
H1977 C1991 0.960 . S
H1978 C1991 0.961 . S
H1979 C1991 0.959 . S
H1980 C1994 0.929 . S
H1981 C1995 0.931 1_554 S
H1982 C1997 0.930 . S
C1983 H1971 0.930 . S
C1983 C1984 1.399 . S
C1983 C1988 1.399 . S
C1984 C1983 1.399 . S
C1984 C1985 1.376 . S
C1985 H1972 0.930 . S
C1985 C1984 1.376 . S
C1985 C1986 1.388 . S
C1986 H1973 0.930 . S
C1986 C1985 1.388 . S
C1986 C1987 1.390 . S
C1987 C1986 1.390 . S
C1987 C1988 1.394 . S
C1987 C1993 1.465 . S
C1988 C1983 1.399 . S
C1988 C1987 1.394 . S
C1988 C1989 1.516 . S
C1989 C1988 1.516 . S
C1989 C1990 1.502 . S
C1989 C1991 1.561 . S
C1989 C1992 1.526 . S
C1990 H1974 0.959 . S
C1990 H1975 0.959 . S
C1990 H1976 0.961 . S
C1990 C1989 1.502 . S
C1991 H1977 0.960 . S
C1991 H1978 0.961 . S
C1991 H1979 0.959 . S
C1991 C1989 1.561 . S
C1992 C1989 1.526 . S
C1992 C1993 1.396 . S
C1992 C1997 1.390 . S
C1993 C1987 1.465 . S
C1993 C1992 1.396 . S
C1993 C1994 1.399 . S
C1994 H1980 0.929 . S
C1994 C1993 1.399 . S
C1994 C1995 1.385 . S
C1995 H1981 0.931 1_556 S
C1995 C1994 1.385 . S
C1995 C1996 1.389 . S
C1996 C1995 1.389 . S
C1996 C1997 1.387 . S
C1997 H1982 0.930 . S
C1997 C1992 1.390 . S
C1997 C1996 1.387 . S
H1998 C2010 0.930 . S
H1999 C2012 0.930 . S
H2000 C2013 0.930 . S
H2001 C2017 0.959 . S
H2002 C2017 0.959 1_554 S
H2003 C2017 0.961 . S
H2004 C2018 0.960 . S
H2005 C2018 0.961 1_554 S
H2006 C2018 0.959 . S
H2007 C2021 0.929 . S
H2008 C2022 0.931 . S
H2009 C2024 0.907 1_554 S
C2010 H1998 0.930 . S
C2010 C2011 1.399 . S
C2010 C2015 1.399 . S
C2011 C2010 1.399 . S
C2011 C2012 1.376 . S
C2012 H1999 0.930 . S
C2012 C2011 1.376 . S
C2012 C2013 1.388 . S
C2013 H2000 0.930 . S
C2013 C2012 1.388 . S
C2013 C2014 1.390 . S
C2014 C2013 1.390 . S
C2014 C2015 1.394 . S
C2014 C2020 1.465 . S
C2015 C2010 1.399 . S
C2015 C2014 1.394 . S
C2015 C2016 1.516 . S
C2016 C2015 1.516 . S
C2016 C2017 1.502 . S
C2016 C2018 1.561 . S
C2016 C2019 1.526 . S
C2017 H2001 0.959 . S
C2017 H2002 0.959 1_556 S
C2017 H2003 0.961 . S
C2017 C2016 1.502 . S
C2018 H2004 0.960 . S
C2018 H2005 0.961 1_556 S
C2018 H2006 0.959 . S
C2018 C2016 1.561 . S
C2019 C2016 1.526 . S
C2019 C2020 1.396 . S
C2019 C2024 1.390 . S
C2020 C2014 1.465 . S
C2020 C2019 1.396 . S
C2020 C2021 1.399 . S
C2021 H2007 0.929 . S
C2021 C2020 1.399 . S
C2021 C2022 1.385 . S
C2022 H2008 0.931 . S
C2022 C2021 1.385 . S
C2022 C2023 1.389 . S
C2023 C2022 1.389 . S
C2023 C2024 1.387 . S
C2024 H2009 0.907 1_556 S
C2024 C2019 1.390 . S
C2024 C2023 1.387 . S
H2025 C2037 0.930 . S
H2026 C2039 0.930 . S
H2027 C2040 0.930 . S
H2028 C2044 0.959 . S
H2029 C2044 0.959 . S
H2030 C2044 0.961 . S
H2031 C2045 0.960 . S
H2032 C2045 0.961 . S
H2033 C2045 0.959 . S
H2034 C2048 0.929 . S
H2035 C2049 0.931 . S
H2036 C2051 0.930 . S
C2037 H2025 0.930 . S
C2037 C2038 1.399 . S
C2037 C2042 1.399 . S
C2038 C2037 1.399 . S
C2038 C2039 1.376 . S
C2039 H2026 0.930 . S
C2039 C2038 1.376 . S
C2039 C2040 1.388 . S
C2040 H2027 0.930 . S
C2040 C2039 1.388 . S
C2040 C2041 1.390 . S
C2041 C2040 1.390 . S
C2041 C2042 1.394 . S
C2041 C2047 1.465 . S
C2042 C2037 1.399 . S
C2042 C2041 1.394 . S
C2042 C2043 1.516 . S
C2043 C2042 1.516 . S
C2043 C2044 1.502 . S
C2043 C2045 1.561 . S
C2043 C2046 1.526 . S
C2044 H2028 0.959 . S
C2044 H2029 0.959 . S
C2044 H2030 0.961 . S
C2044 C2043 1.502 . S
C2045 H2031 0.960 . S
C2045 H2032 0.961 . S
C2045 H2033 0.959 . S
C2045 C2043 1.561 . S
C2046 C2043 1.526 . S
C2046 C2047 1.396 . S
C2046 C2051 1.390 . S
C2047 C2041 1.465 . S
C2047 C2046 1.396 . S
C2047 C2048 1.399 . S
C2048 H2034 0.929 . S
C2048 C2047 1.399 . S
C2048 C2049 1.385 . S
C2049 H2035 0.931 . S
C2049 C2048 1.385 . S
C2049 C2050 1.389 . S
C2050 C2049 1.389 . S
C2050 C2051 1.387 . S
C2051 H2036 0.930 . S
C2051 C2046 1.390 . S
C2051 C2050 1.387 . S
H2052 C2064 0.930 . S
H2053 C2066 0.930 . S
H2054 C2067 0.930 . S
H2055 C2071 0.959 . S
H2056 C2071 0.959 . S
H2057 C2071 0.961 . S
H2058 C2072 0.960 . S
H2059 C2072 0.961 1_554 S
H2060 C2072 0.940 1_554 S
H2061 C2075 0.929 . S
H2062 C2076 0.931 . S
H2063 C2078 0.930 . S
C2064 H2052 0.930 . S
C2064 C2065 1.399 . S
C2064 C2069 1.399 . S
C2065 C2064 1.399 . S
C2065 C2066 1.376 . S
C2066 H2053 0.930 . S
C2066 C2065 1.376 . S
C2066 C2067 1.388 . S
C2067 H2054 0.930 . S
C2067 C2066 1.388 . S
C2067 C2068 1.390 . S
C2068 C2067 1.390 . S
C2068 C2069 1.394 . S
C2068 C2074 1.465 . S
C2069 C2064 1.399 . S
C2069 C2068 1.394 . S
C2069 C2070 1.516 . S
C2070 C2069 1.516 . S
C2070 C2071 1.502 . S
C2070 C2072 1.561 . S
C2070 C2073 1.526 . S
C2071 H2055 0.959 . S
C2071 H2056 0.959 . S
C2071 H2057 0.961 . S
C2071 C2070 1.502 . S
C2072 H2058 0.960 . S
C2072 H2059 0.961 1_556 S
C2072 H2060 0.940 1_556 S
C2072 C2070 1.561 . S
C2073 C2070 1.526 . S
C2073 C2074 1.396 . S
C2073 C2078 1.390 . S
C2074 C2068 1.465 . S
C2074 C2073 1.396 . S
C2074 C2075 1.399 . S
C2075 H2061 0.929 . S
C2075 C2074 1.399 . S
C2075 C2076 1.385 . S
C2076 H2062 0.931 . S
C2076 C2075 1.385 . S
C2076 C2077 1.389 . S
C2077 C2076 1.389 . S
C2077 C2078 1.387 . S
C2078 H2063 0.930 . S
C2078 C2073 1.390 . S
C2078 C2077 1.387 . S
H2079 C2091 0.930 . S
H2080 C2093 0.930 . S
H2081 C2094 0.930 . S
H2082 C2098 0.959 . S
H2083 C2098 0.959 . S
H2084 C2098 0.961 . S
H2085 C2099 0.960 . S
H2086 C2099 0.961 . S
H2087 C2099 0.959 . S
H2088 C2102 0.929 . S
H2089 C2103 0.931 . S
H2090 C2105 0.930 . S
C2091 H2079 0.930 . S
C2091 C2092 1.399 . S
C2091 C2096 1.399 . S
C2092 C2091 1.399 . S
C2092 C2093 1.376 . S
C2093 H2080 0.930 . S
C2093 C2092 1.376 . S
C2093 C2094 1.388 . S
C2094 H2081 0.930 . S
C2094 C2093 1.388 . S
C2094 C2095 1.390 . S
C2095 C2094 1.390 . S
C2095 C2096 1.394 . S
C2095 C2101 1.465 . S
C2096 C2091 1.399 . S
C2096 C2095 1.394 . S
C2096 C2097 1.516 . S
C2097 C2096 1.516 . S
C2097 C2098 1.502 . S
C2097 C2099 1.561 . S
C2097 C2100 1.526 . S
C2098 H2082 0.959 . S
C2098 H2083 0.959 . S
C2098 H2084 0.961 . S
C2098 C2097 1.502 . S
C2099 H2085 0.960 . S
C2099 H2086 0.961 . S
C2099 H2087 0.959 . S
C2099 C2097 1.561 . S
C2100 C2097 1.526 . S
C2100 C2101 1.396 . S
C2100 C2105 1.390 . S
C2101 C2095 1.465 . S
C2101 C2100 1.396 . S
C2101 C2102 1.399 . S
C2102 H2088 0.929 . S
C2102 C2101 1.399 . S
C2102 C2103 1.385 . S
C2103 H2089 0.931 . S
C2103 C2102 1.385 . S
C2103 C2104 1.389 . S
C2104 C2103 1.389 . S
C2104 C2105 1.387 . S
C2105 H2090 0.930 . S
C2105 C2100 1.390 . S
C2105 C2104 1.387 . S
H2106 C2118 0.930 . S
H2107 C2120 0.930 . S
H2108 C2121 0.930 . S
H2109 C2125 0.959 . S
H2110 C2125 0.959 . S
H2111 C2125 0.961 . S
H2112 C2126 0.960 . S
H2113 C2126 0.961 . S
H2114 C2126 0.959 . S
H2115 C2129 0.929 . S
H2116 C2130 0.931 . S
H2117 C2132 0.930 . S
C2118 H2106 0.930 . S
C2118 C2119 1.399 . S
C2118 C2123 1.399 . S
C2119 C2118 1.399 . S
C2119 C2120 1.376 . S
C2120 H2107 0.930 . S
C2120 C2119 1.376 . S
C2120 C2121 1.388 . S
C2121 H2108 0.930 . S
C2121 C2120 1.388 . S
C2121 C2122 1.390 . S
C2122 C2121 1.390 . S
C2122 C2123 1.394 . S
C2122 C2128 1.465 . S
C2123 C2118 1.399 . S
C2123 C2122 1.394 . S
C2123 C2124 1.516 . S
C2124 C2123 1.516 . S
C2124 C2125 1.502 . S
C2124 C2126 1.561 . S
C2124 C2127 1.526 . S
C2125 H2109 0.959 . S
C2125 H2110 0.959 . S
C2125 H2111 0.961 . S
C2125 C2124 1.502 . S
C2126 H2112 0.960 . S
C2126 H2113 0.961 . S
C2126 H2114 0.959 . S
C2126 C2124 1.561 . S
C2127 C2124 1.526 . S
C2127 C2128 1.396 . S
C2127 C2132 1.390 . S
C2128 C2122 1.465 . S
C2128 C2127 1.396 . S
C2128 C2129 1.399 . S
C2129 H2115 0.929 . S
C2129 C2128 1.399 . S
C2129 C2130 1.385 . S
C2130 H2116 0.931 . S
C2130 C2129 1.385 . S
C2130 C2131 1.389 . S
C2131 C2130 1.389 . S
C2131 C2132 1.387 . S
C2132 H2117 0.930 . S
C2132 C2127 1.390 . S
C2132 C2131 1.387 . S
H2133 C2145 0.930 . S
H2134 C2147 0.930 . S
H2135 C2148 0.930 . S
H2136 C2152 0.959 . S
H2137 C2152 0.959 . S
H2138 C2152 0.961 . S
H2139 C2153 0.960 . S
H2140 C2153 0.961 . S
H2141 C2153 0.959 . S
H2142 C2156 0.929 . S
H2143 C2157 0.931 . S
H2144 C2159 0.930 . S
C2145 H2133 0.930 . S
C2145 C2146 1.399 . S
C2145 C2150 1.399 . S
C2146 C2145 1.399 . S
C2146 C2147 1.376 . S
C2147 H2134 0.930 . S
C2147 C2146 1.376 . S
C2147 C2148 1.388 . S
C2148 H2135 0.930 . S
C2148 C2147 1.388 . S
C2148 C2149 1.390 . S
C2149 C2148 1.390 . S
C2149 C2150 1.394 . S
C2149 C2155 1.465 . S
C2150 C2145 1.399 . S
C2150 C2149 1.394 . S
C2150 C2151 1.516 . S
C2151 C2150 1.516 . S
C2151 C2152 1.502 . S
C2151 C2153 1.561 . S
C2151 C2154 1.526 . S
C2152 H2136 0.959 . S
C2152 H2137 0.959 . S
C2152 H2138 0.961 . S
C2152 C2151 1.502 . S
C2153 H2139 0.960 . S
C2153 H2140 0.961 . S
C2153 H2141 0.959 . S
C2153 C2151 1.561 . S
C2154 C2151 1.526 . S
C2154 C2155 1.396 . S
C2154 C2159 1.390 . S
C2155 C2149 1.465 . S
C2155 C2154 1.396 . S
C2155 C2156 1.399 . S
C2156 H2142 0.929 . S
C2156 C2155 1.399 . S
C2156 C2157 1.385 . S
C2157 H2143 0.931 . S
C2157 C2156 1.385 . S
C2157 C2158 1.389 . S
C2158 C2157 1.389 . S
C2158 C2159 1.387 . S
C2159 H2144 0.930 . S
C2159 C2154 1.390 . S
C2159 C2158 1.387 . S
H2160 C2172 0.930 . S
H2161 C2174 0.930 1_655 S
H2162 C2175 0.930 . S
H2163 C2179 0.959 . S
H2164 C2179 0.959 . S
H2165 C2179 0.961 . S
H2166 C2180 0.960 . S
H2167 C2180 0.961 . S
H2168 C2180 0.959 . S
H2169 C2183 0.929 . S
H2170 C2184 0.931 . S
H2171 C2186 0.930 . S
C2172 H2160 0.930 . S
C2172 C2173 1.399 . S
C2172 C2177 1.399 1_655 S
C2173 C2172 1.399 . S
C2173 C2174 1.376 1_655 S
C2174 H2161 0.930 1_455 S
C2174 C2173 1.376 1_455 S
C2174 C2175 1.388 . S
C2175 H2162 0.930 . S
C2175 C2174 1.388 . S
C2175 C2176 1.390 . S
C2176 C2175 1.390 . S
C2176 C2177 1.394 . S
C2176 C2182 1.465 . S
C2177 C2172 1.399 1_455 S
C2177 C2176 1.394 . S
C2177 C2178 1.516 . S
C2178 C2177 1.516 . S
C2178 C2179 1.502 . S
C2178 C2180 1.561 . S
C2178 C2181 1.526 . S
C2179 H2163 0.959 . S
C2179 H2164 0.959 . S
C2179 H2165 0.961 . S
C2179 C2178 1.502 . S
C2180 H2166 0.960 . S
C2180 H2167 0.961 . S
C2180 H2168 0.959 . S
C2180 C2178 1.561 . S
C2181 C2178 1.526 . S
C2181 C2182 1.396 . S
C2181 C2186 1.390 . S
C2182 C2176 1.465 . S
C2182 C2181 1.396 . S
C2182 C2183 1.399 . S
C2183 H2169 0.929 . S
C2183 C2182 1.399 . S
C2183 C2184 1.385 . S
C2184 H2170 0.931 . S
C2184 C2183 1.385 . S
C2184 C2185 1.389 . S
C2185 C2184 1.389 . S
C2185 C2186 1.387 . S
C2186 H2171 0.930 . S
C2186 C2181 1.390 . S
C2186 C2185 1.387 . S
H2187 C2199 0.930 . S
H2188 C2201 0.930 . S
H2189 C2202 0.930 . S
H2190 C2206 0.959 . S
H2191 C2206 0.959 . S
H2192 C2206 0.961 . S
H2193 C2207 0.960 . S
H2194 C2207 0.961 . S
H2195 C2207 0.959 . S
H2196 C2210 0.929 . S
H2197 C2211 0.931 . S
H2198 C2213 0.930 . S
C2199 H2187 0.930 . S
C2199 C2200 1.399 . S
C2199 C2204 1.399 . S
C2200 C2199 1.399 . S
C2200 C2201 1.376 . S
C2201 H2188 0.930 . S
C2201 C2200 1.376 . S
C2201 C2202 1.388 . S
C2202 H2189 0.930 . S
C2202 C2201 1.388 . S
C2202 C2203 1.390 . S
C2203 C2202 1.390 . S
C2203 C2204 1.394 . S
C2203 C2209 1.465 . S
C2204 C2199 1.399 . S
C2204 C2203 1.394 . S
C2204 C2205 1.516 . S
C2205 C2204 1.516 . S
C2205 C2206 1.502 . S
C2205 C2207 1.561 . S
C2205 C2208 1.526 . S
C2206 H2190 0.959 . S
C2206 H2191 0.959 . S
C2206 H2192 0.961 . S
C2206 C2205 1.502 . S
C2207 H2193 0.960 . S
C2207 H2194 0.961 . S
C2207 H2195 0.959 . S
C2207 C2205 1.561 . S
C2208 C2205 1.526 . S
C2208 C2209 1.396 . S
C2208 C2213 1.390 . S
C2209 C2203 1.465 . S
C2209 C2208 1.396 . S
C2209 C2210 1.399 . S
C2210 H2196 0.929 . S
C2210 C2209 1.399 . S
C2210 C2211 1.385 . S
C2211 H2197 0.931 . S
C2211 C2210 1.385 . S
C2211 C2212 1.389 . S
C2212 C2211 1.389 . S
C2212 C2213 1.387 . S
C2213 H2198 0.930 . S
C2213 C2208 1.390 . S
C2213 C2212 1.387 . S
H2214 C2226 0.930 . S
H2215 C2228 0.930 . S
H2216 C2229 0.930 . S
H2217 C2233 0.959 . S
H2218 C2233 0.959 . S
H2219 C2233 0.961 . S
H2220 C2234 0.960 . S
H2221 C2234 0.961 . S
H2222 C2234 0.959 . S
H2223 C2237 0.929 . S
H2224 C2238 0.931 . S
H2225 C2240 0.930 . S
C2226 H2214 0.930 . S
C2226 C2227 1.399 1_565 S
C2226 C2231 1.399 . S
C2227 C2226 1.399 1_545 S
C2227 C2228 1.376 . S
C2228 H2215 0.930 . S
C2228 C2227 1.376 . S
C2228 C2229 1.388 1_545 S
C2229 H2216 0.930 . S
C2229 C2228 1.388 1_565 S
C2229 C2230 1.390 . S
C2230 C2229 1.390 . S
C2230 C2231 1.394 . S
C2230 C2236 1.465 . S
C2231 C2226 1.399 . S
C2231 C2230 1.394 . S
C2231 C2232 1.516 . S
C2232 C2231 1.516 . S
C2232 C2233 1.502 . S
C2232 C2234 1.561 . S
C2232 C2235 1.526 . S
C2233 H2217 0.959 . S
C2233 H2218 0.959 . S
C2233 H2219 0.961 . S
C2233 C2232 1.502 . S
C2234 H2220 0.960 . S
C2234 H2221 0.961 . S
C2234 H2222 0.959 . S
C2234 C2232 1.561 . S
C2235 C2232 1.526 . S
C2235 C2236 1.396 . S
C2235 C2240 1.390 . S
C2236 C2230 1.465 . S
C2236 C2235 1.396 . S
C2236 C2237 1.399 . S
C2237 H2223 0.929 . S
C2237 C2236 1.399 . S
C2237 C2238 1.385 . S
C2238 H2224 0.931 . S
C2238 C2237 1.385 . S
C2238 C2239 1.389 . S
C2239 C2238 1.389 . S
C2239 C2240 1.387 . S
C2240 H2225 0.930 . S
C2240 C2235 1.390 . S
C2240 C2239 1.387 . S
H2241 C2253 0.930 . S
H2242 C2255 0.930 . S
H2243 C2256 0.930 . S
H2244 C2260 0.959 . S
H2245 C2260 0.959 . S
H2246 C2260 0.961 . S
H2247 C2261 0.960 . S
H2248 C2261 0.961 . S
H2249 C2261 0.959 . S
H2250 C2264 0.929 . S
H2251 C2265 0.931 . S
H2252 C2267 0.930 . S
C2253 H2241 0.930 . S
C2253 C2254 1.399 . S
C2253 C2258 1.399 . S
C2254 C2253 1.399 . S
C2254 C2255 1.376 . S
C2255 H2242 0.930 . S
C2255 C2254 1.376 . S
C2255 C2256 1.388 . S
C2256 H2243 0.930 . S
C2256 C2255 1.388 . S
C2256 C2257 1.390 . S
C2257 C2256 1.390 . S
C2257 C2258 1.394 . S
C2257 C2263 1.465 . S
C2258 C2253 1.399 . S
C2258 C2257 1.394 . S
C2258 C2259 1.516 . S
C2259 C2258 1.516 . S
C2259 C2260 1.502 . S
C2259 C2261 1.561 . S
C2259 C2262 1.526 . S
C2260 H2244 0.959 . S
C2260 H2245 0.959 . S
C2260 H2246 0.961 . S
C2260 C2259 1.502 . S
C2261 H2247 0.960 . S
C2261 H2248 0.961 . S
C2261 H2249 0.959 . S
C2261 C2259 1.561 . S
C2262 C2259 1.526 . S
C2262 C2263 1.396 . S
C2262 C2267 1.390 . S
C2263 C2257 1.465 . S
C2263 C2262 1.396 . S
C2263 C2264 1.399 . S
C2264 H2250 0.929 . S
C2264 C2263 1.399 . S
C2264 C2265 1.385 . S
C2265 H2251 0.931 . S
C2265 C2264 1.385 . S
C2265 C2266 1.389 . S
C2266 C2265 1.389 . S
C2266 C2267 1.387 . S
C2267 H2252 0.930 . S
C2267 C2262 1.390 . S
C2267 C2266 1.387 . S
H2268 C2280 0.930 . S
H2269 C2282 0.930 . S
H2270 C2283 0.930 . S
H2271 C2287 0.959 . S
H2272 C2287 0.959 . S
H2273 C2287 0.961 . S
H2274 C2288 0.960 . S
H2275 C2288 0.961 . S
H2276 C2288 0.959 . S
H2277 C2291 0.929 . S
H2278 C2292 0.931 . S
H2279 C2294 0.930 . S
C2280 H2268 0.930 . S
C2280 C2281 1.399 . S
C2280 C2285 1.399 . S
C2281 C2280 1.399 . S
C2281 C2282 1.376 . S
C2282 H2269 0.930 . S
C2282 C2281 1.376 . S
C2282 C2283 1.388 . S
C2283 H2270 0.930 . S
C2283 C2282 1.388 . S
C2283 C2284 1.390 . S
C2284 C2283 1.390 . S
C2284 C2285 1.394 . S
C2284 C2290 1.465 . S
C2285 C2280 1.399 . S
C2285 C2284 1.394 . S
C2285 C2286 1.516 . S
C2286 C2285 1.516 . S
C2286 C2287 1.502 . S
C2286 C2288 1.561 . S
C2286 C2289 1.526 . S
C2287 H2271 0.959 . S
C2287 H2272 0.959 . S
C2287 H2273 0.961 . S
C2287 C2286 1.502 . S
C2288 H2274 0.960 . S
C2288 H2275 0.961 . S
C2288 H2276 0.959 . S
C2288 C2286 1.561 . S
C2289 C2286 1.526 . S
C2289 C2290 1.396 . S
C2289 C2294 1.390 . S
C2290 C2284 1.465 . S
C2290 C2289 1.396 . S
C2290 C2291 1.399 . S
C2291 H2277 0.929 . S
C2291 C2290 1.399 . S
C2291 C2292 1.385 . S
C2292 H2278 0.931 . S
C2292 C2291 1.385 . S
C2292 C2293 1.389 . S
C2293 C2292 1.389 . S
C2293 C2294 1.387 . S
C2294 H2279 0.930 . S
C2294 C2289 1.390 . S
C2294 C2293 1.387 . S
H2295 C2307 0.930 . S
H2296 C2309 0.930 . S
H2297 C2310 0.930 . S
H2298 C2314 0.959 . S
H2299 C2314 0.959 . S
H2300 C2314 0.961 . S
H2301 C2315 0.960 . S
H2302 C2315 0.961 . S
H2303 C2315 0.959 . S
H2304 C2318 0.929 . S
H2305 C2319 0.931 . S
H2306 C2321 0.930 . S
C2307 H2295 0.930 . S
C2307 C2308 1.399 . S
C2307 C2312 1.399 . S
C2308 C2307 1.399 . S
C2308 C2309 1.376 . S
C2309 H2296 0.930 . S
C2309 C2308 1.376 . S
C2309 C2310 1.388 . S
C2310 H2297 0.930 . S
C2310 C2309 1.388 . S
C2310 C2311 1.390 . S
C2311 C2310 1.390 . S
C2311 C2312 1.394 . S
C2311 C2317 1.465 . S
C2312 C2307 1.399 . S
C2312 C2311 1.394 . S
C2312 C2313 1.516 . S
C2313 C2312 1.516 . S
C2313 C2314 1.502 . S
C2313 C2315 1.561 . S
C2313 C2316 1.526 . S
C2314 H2298 0.959 . S
C2314 H2299 0.959 . S
C2314 H2300 0.961 . S
C2314 C2313 1.502 . S
C2315 H2301 0.960 . S
C2315 H2302 0.961 . S
C2315 H2303 0.959 . S
C2315 C2313 1.561 . S
C2316 C2313 1.526 . S
C2316 C2317 1.396 . S
C2316 C2321 1.390 . S
C2317 C2311 1.465 . S
C2317 C2316 1.396 . S
C2317 C2318 1.399 . S
C2318 H2304 0.929 . S
C2318 C2317 1.399 . S
C2318 C2319 1.385 . S
C2319 H2305 0.931 . S
C2319 C2318 1.385 . S
C2319 C2320 1.389 . S
C2320 C2319 1.389 . S
C2320 C2321 1.387 . S
C2321 H2306 0.930 . S
C2321 C2316 1.390 . S
C2321 C2320 1.387 . S
H2322 C2334 0.930 . S
H2323 C2336 0.930 . S
H2324 C2337 0.930 . S
H2325 C2341 0.959 . S
H2326 C2341 0.959 . S
H2327 C2341 0.961 . S
H2328 C2342 0.960 . S
H2329 C2342 0.961 . S
H2330 C2342 0.959 . S
H2331 C2345 0.929 . S
H2332 C2346 0.931 . S
H2333 C2348 0.930 . S
C2334 H2322 0.930 . S
C2334 C2335 1.399 . S
C2334 C2339 1.399 . S
C2335 C2334 1.399 . S
C2335 C2336 1.376 . S
C2336 H2323 0.930 . S
C2336 C2335 1.376 . S
C2336 C2337 1.388 . S
C2337 H2324 0.930 . S
C2337 C2336 1.388 . S
C2337 C2338 1.390 . S
C2338 C2337 1.390 . S
C2338 C2339 1.394 . S
C2338 C2344 1.465 . S
C2339 C2334 1.399 . S
C2339 C2338 1.394 . S
C2339 C2340 1.516 . S
C2340 C2339 1.516 . S
C2340 C2341 1.502 . S
C2340 C2342 1.561 . S
C2340 C2343 1.526 . S
C2341 H2325 0.959 . S
C2341 H2326 0.959 . S
C2341 H2327 0.961 . S
C2341 C2340 1.502 . S
C2342 H2328 0.960 . S
C2342 H2329 0.961 . S
C2342 H2330 0.959 . S
C2342 C2340 1.561 . S
C2343 C2340 1.526 . S
C2343 C2344 1.396 . S
C2343 C2348 1.390 . S
C2344 C2338 1.465 . S
C2344 C2343 1.396 . S
C2344 C2345 1.399 . S
C2345 H2331 0.929 . S
C2345 C2344 1.399 . S
C2345 C2346 1.385 . S
C2346 H2332 0.931 . S
C2346 C2345 1.385 . S
C2346 C2347 1.389 . S
C2347 C2346 1.389 . S
C2347 C2348 1.387 . S
C2348 H2333 0.930 . S
C2348 C2343 1.390 . S
C2348 C2347 1.387 . S
H2349 C2361 0.930 . S
H2350 C2363 0.930 . S
H2351 C2364 0.930 . S
H2352 C2368 0.959 . S
H2353 C2368 0.959 . S
H2354 C2368 0.961 . S
H2355 C2369 0.960 . S
H2356 C2369 0.961 . S
H2357 C2369 0.959 . S
H2358 C2372 0.929 . S
H2359 C2373 0.931 . S
H2360 C2375 0.930 . S
C2361 H2349 0.930 . S
C2361 C2362 1.399 . S
C2361 C2366 1.399 . S
C2362 C2361 1.399 . S
C2362 C2363 1.376 . S
C2363 H2350 0.930 . S
C2363 C2362 1.376 . S
C2363 C2364 1.388 . S
C2364 H2351 0.930 . S
C2364 C2363 1.388 . S
C2364 C2365 1.390 . S
C2365 C2364 1.390 . S
C2365 C2366 1.394 . S
C2365 C2371 1.465 . S
C2366 C2361 1.399 . S
C2366 C2365 1.394 . S
C2366 C2367 1.516 . S
C2367 C2366 1.516 . S
C2367 C2368 1.502 . S
C2367 C2369 1.561 . S
C2367 C2370 1.526 . S
C2368 H2352 0.959 . S
C2368 H2353 0.959 . S
C2368 H2354 0.961 . S
C2368 C2367 1.502 . S
C2369 H2355 0.960 . S
C2369 H2356 0.961 . S
C2369 H2357 0.959 . S
C2369 C2367 1.561 . S
C2370 C2367 1.526 . S
C2370 C2371 1.396 . S
C2370 C2375 1.390 . S
C2371 C2365 1.465 . S
C2371 C2370 1.396 . S
C2371 C2372 1.399 . S
C2372 H2358 0.929 . S
C2372 C2371 1.399 . S
C2372 C2373 1.385 . S
C2373 H2359 0.931 . S
C2373 C2372 1.385 . S
C2373 C2374 1.389 . S
C2374 C2373 1.389 . S
C2374 C2375 1.387 . S
C2375 H2360 0.930 . S
C2375 C2370 1.390 . S
C2375 C2374 1.387 . S
H2376 C2388 0.930 . S
H2377 C2390 0.930 . S
H2378 C2391 0.930 . S
H2379 C2395 0.959 . S
H2380 C2395 0.959 . S
H2381 C2395 0.961 . S
H2382 C2396 0.960 . S
H2383 C2396 0.961 . S
H2384 C2396 0.959 . S
H2385 C2399 0.929 . S
H2386 C2400 0.931 . S
H2387 C2402 0.930 . S
C2388 H2376 0.930 . S
C2388 C2389 1.399 . S
C2388 C2393 1.399 . S
C2389 C2388 1.399 . S
C2389 C2390 1.376 . S
C2390 H2377 0.930 . S
C2390 C2389 1.376 . S
C2390 C2391 1.388 . S
C2391 H2378 0.930 . S
C2391 C2390 1.388 . S
C2391 C2392 1.390 . S
C2392 C2391 1.390 . S
C2392 C2393 1.394 . S
C2392 C2398 1.465 . S
C2393 C2388 1.399 . S
C2393 C2392 1.394 . S
C2393 C2394 1.516 . S
C2394 C2393 1.516 . S
C2394 C2395 1.502 . S
C2394 C2396 1.561 . S
C2394 C2397 1.526 . S
C2395 H2379 0.959 . S
C2395 H2380 0.959 . S
C2395 H2381 0.961 . S
C2395 C2394 1.502 . S
C2396 H2382 0.960 . S
C2396 H2383 0.961 . S
C2396 H2384 0.959 . S
C2396 C2394 1.561 . S
C2397 C2394 1.526 . S
C2397 C2398 1.396 . S
C2397 C2402 1.390 . S
C2398 C2392 1.465 . S
C2398 C2397 1.396 . S
C2398 C2399 1.399 . S
C2399 H2385 0.929 . S
C2399 C2398 1.399 . S
C2399 C2400 1.385 . S
C2400 H2386 0.931 . S
C2400 C2399 1.385 . S
C2400 C2401 1.389 . S
C2401 C2400 1.389 . S
C2401 C2402 1.387 . S
C2402 H2387 0.930 . S
C2402 C2397 1.390 . S
C2402 C2401 1.387 . S
H2403 C2415 0.930 . S
H2404 C2417 0.914 1_545 S
H2405 C2418 0.930 . S
H2406 C2422 0.959 . S
H2407 C2422 0.959 . S
H2408 C2422 0.961 . S
H2409 C2423 0.960 . S
H2410 C2423 0.961 . S
H2411 C2423 0.959 . S
H2412 C2426 0.929 . S
H2413 C2427 0.931 . S
H2414 C2429 0.930 . S
C2415 H2403 0.930 . S
C2415 C2416 1.399 . S
C2415 C2420 1.399 1_545 S
C2416 C2415 1.399 . S
C2416 C2417 1.358 1_545 S
C2417 H2404 0.914 1_565 S
C2417 C2416 1.358 1_565 S
C2417 C2418 1.425 . S
C2418 H2405 0.930 . S
C2418 C2417 1.425 . S
C2418 C2419 1.390 . S
C2419 C2418 1.390 . S
C2419 C2420 1.394 . S
C2419 C2425 1.465 . S
C2420 C2415 1.399 1_565 S
C2420 C2419 1.394 . S
C2420 C2421 1.516 . S
C2421 C2420 1.516 . S
C2421 C2422 1.502 . S
C2421 C2423 1.561 . S
C2421 C2424 1.526 . S
C2422 H2406 0.959 . S
C2422 H2407 0.959 . S
C2422 H2408 0.961 . S
C2422 C2421 1.502 . S
C2423 H2409 0.960 . S
C2423 H2410 0.961 . S
C2423 H2411 0.959 . S
C2423 C2421 1.561 . S
C2424 C2421 1.526 . S
C2424 C2425 1.396 . S
C2424 C2429 1.390 . S
C2425 C2419 1.465 . S
C2425 C2424 1.396 . S
C2425 C2426 1.399 . S
C2426 H2412 0.929 . S
C2426 C2425 1.399 . S
C2426 C2427 1.385 . S
C2427 H2413 0.931 . S
C2427 C2426 1.385 . S
C2427 C2428 1.389 . S
C2428 C2427 1.389 . S
C2428 C2429 1.387 . S
C2429 H2414 0.930 . S
C2429 C2424 1.390 . S
C2429 C2428 1.387 . S
H2430 C2442 0.946 . S
H2431 C2444 0.930 . S
H2432 C2445 0.930 . S
H2433 C2449 0.959 . S
H2434 C2449 0.959 . S
H2435 C2449 0.961 . S
H2436 C2450 0.960 . S
H2437 C2450 0.961 . S
H2438 C2450 0.959 . S
H2439 C2453 0.929 . S
H2440 C2454 0.931 . S
H2441 C2456 0.930 . S
C2442 H2430 0.946 . S
C2442 C2443 1.419 . S
C2442 C2447 1.364 1_655 S
C2443 C2442 1.419 . S
C2443 C2444 1.376 1_655 S
C2444 H2431 0.930 . S
C2444 C2443 1.376 1_455 S
C2444 C2445 1.388 . S
C2445 H2432 0.930 . S
C2445 C2444 1.388 . S
C2445 C2446 1.390 . S
C2446 C2445 1.390 . S
C2446 C2447 1.394 . S
C2446 C2452 1.465 . S
C2447 C2442 1.364 1_455 S
C2447 C2446 1.394 . S
C2447 C2448 1.516 . S
C2448 C2447 1.516 . S
C2448 C2449 1.502 . S
C2448 C2450 1.561 . S
C2448 C2451 1.526 . S
C2449 H2433 0.959 . S
C2449 H2434 0.959 . S
C2449 H2435 0.961 . S
C2449 C2448 1.502 . S
C2450 H2436 0.960 . S
C2450 H2437 0.961 . S
C2450 H2438 0.959 . S
C2450 C2448 1.561 . S
C2451 C2448 1.526 . S
C2451 C2452 1.396 . S
C2451 C2456 1.390 . S
C2452 C2446 1.465 . S
C2452 C2451 1.396 . S
C2452 C2453 1.399 . S
C2453 H2439 0.929 . S
C2453 C2452 1.399 . S
C2453 C2454 1.385 . S
C2454 H2440 0.931 . S
C2454 C2453 1.385 . S
C2454 C2455 1.389 . S
C2455 C2454 1.389 . S
C2455 C2456 1.387 . S
C2456 H2441 0.930 . S
C2456 C2451 1.390 . S
C2456 C2455 1.387 . S
H2457 C2469 0.930 . S
H2458 C2471 0.930 . S
H2459 C2472 0.930 . S
H2460 C2476 0.959 . S
H2461 C2476 0.959 . S
H2462 C2476 0.961 . S
H2463 C2477 0.960 . S
H2464 C2477 0.961 . S
H2465 C2477 0.959 . S
H2466 C2480 0.929 . S
H2467 C2481 0.931 . S
H2468 C2483 0.930 . S
C2469 H2457 0.930 . S
C2469 C2470 1.399 . S
C2469 C2474 1.399 . S
C2470 C2469 1.399 . S
C2470 C2471 1.376 . S
C2471 H2458 0.930 . S
C2471 C2470 1.376 . S
C2471 C2472 1.388 . S
C2472 H2459 0.930 . S
C2472 C2471 1.388 . S
C2472 C2473 1.390 . S
C2473 C2472 1.390 . S
C2473 C2474 1.394 . S
C2473 C2479 1.465 . S
C2474 C2469 1.399 . S
C2474 C2473 1.394 . S
C2474 C2475 1.516 . S
C2475 C2474 1.516 . S
C2475 C2476 1.502 . S
C2475 C2477 1.561 . S
C2475 C2478 1.526 . S
C2476 H2460 0.959 . S
C2476 H2461 0.959 . S
C2476 H2462 0.961 . S
C2476 C2475 1.502 . S
C2477 H2463 0.960 . S
C2477 H2464 0.961 . S
C2477 H2465 0.959 . S
C2477 C2475 1.561 . S
C2478 C2475 1.526 . S
C2478 C2479 1.396 . S
C2478 C2483 1.390 . S
C2479 C2473 1.465 . S
C2479 C2478 1.396 . S
C2479 C2480 1.399 . S
C2480 H2466 0.929 . S
C2480 C2479 1.399 . S
C2480 C2481 1.385 . S
C2481 H2467 0.931 . S
C2481 C2480 1.385 . S
C2481 C2482 1.389 . S
C2482 C2481 1.389 . S
C2482 C2483 1.387 . S
C2483 H2468 0.930 . S
C2483 C2478 1.390 . S
C2483 C2482 1.387 . S
H2484 C2496 0.930 . S
H2485 C2498 0.930 . S
H2486 C2499 0.930 . S
H2487 C2503 0.959 . S
H2488 C2503 0.959 . S
H2489 C2503 0.961 . S
H2490 C2504 0.960 . S
H2491 C2504 0.961 . S
H2492 C2504 0.959 . S
H2493 C2507 0.929 . S
H2494 C2508 0.931 . S
H2495 C2510 0.930 . S
C2496 H2484 0.930 . S
C2496 C2497 1.399 . S
C2496 C2501 1.399 . S
C2497 C2496 1.399 . S
C2497 C2498 1.376 . S
C2498 H2485 0.930 . S
C2498 C2497 1.376 . S
C2498 C2499 1.388 . S
C2499 H2486 0.930 . S
C2499 C2498 1.388 . S
C2499 C2500 1.390 . S
C2500 C2499 1.390 . S
C2500 C2501 1.394 . S
C2500 C2506 1.465 . S
C2501 C2496 1.399 . S
C2501 C2500 1.394 . S
C2501 C2502 1.516 . S
C2502 C2501 1.516 . S
C2502 C2503 1.502 . S
C2502 C2504 1.561 . S
C2502 C2505 1.526 . S
C2503 H2487 0.959 . S
C2503 H2488 0.959 . S
C2503 H2489 0.961 . S
C2503 C2502 1.502 . S
C2504 H2490 0.960 . S
C2504 H2491 0.961 . S
C2504 H2492 0.959 . S
C2504 C2502 1.561 . S
C2505 C2502 1.526 . S
C2505 C2506 1.396 . S
C2505 C2510 1.390 . S
C2506 C2500 1.465 . S
C2506 C2505 1.396 . S
C2506 C2507 1.399 . S
C2507 H2493 0.929 . S
C2507 C2506 1.399 . S
C2507 C2508 1.385 . S
C2508 H2494 0.931 . S
C2508 C2507 1.385 . S
C2508 C2509 1.389 . S
C2509 C2508 1.389 . S
C2509 C2510 1.387 . S
C2510 H2495 0.930 . S
C2510 C2505 1.390 . S
C2510 C2509 1.387 . S
H2511 C2523 0.930 . S
H2512 C2525 0.930 . S
H2513 C2526 0.930 . S
H2514 C2530 0.959 . S
H2515 C2530 0.959 . S
H2516 C2530 0.961 . S
H2517 C2531 0.960 . S
H2518 C2531 0.961 . S
H2519 C2531 0.959 . S
H2520 C2534 0.929 . S
H2521 C2535 0.931 . S
H2522 C2537 0.930 . S
C2523 H2511 0.930 . S
C2523 C2524 1.399 . S
C2523 C2528 1.399 . S
C2524 C2523 1.399 . S
C2524 C2525 1.376 . S
C2525 H2512 0.930 . S
C2525 C2524 1.376 . S
C2525 C2526 1.388 . S
C2526 H2513 0.930 . S
C2526 C2525 1.388 . S
C2526 C2527 1.390 . S
C2527 C2526 1.390 . S
C2527 C2528 1.394 . S
C2527 C2533 1.465 . S
C2528 C2523 1.399 . S
C2528 C2527 1.394 . S
C2528 C2529 1.516 . S
C2529 C2528 1.516 . S
C2529 C2530 1.502 . S
C2529 C2531 1.561 . S
C2529 C2532 1.526 . S
C2530 H2514 0.959 . S
C2530 H2515 0.959 . S
C2530 H2516 0.961 . S
C2530 C2529 1.502 . S
C2531 H2517 0.960 . S
C2531 H2518 0.961 . S
C2531 H2519 0.959 . S
C2531 C2529 1.561 . S
C2532 C2529 1.526 . S
C2532 C2533 1.396 . S
C2532 C2537 1.390 . S
C2533 C2527 1.465 . S
C2533 C2532 1.396 . S
C2533 C2534 1.399 . S
C2534 H2520 0.929 . S
C2534 C2533 1.399 . S
C2534 C2535 1.385 . S
C2535 H2521 0.931 . S
C2535 C2534 1.385 . S
C2535 C2536 1.389 . S
C2536 C2535 1.389 . S
C2536 C2537 1.387 . S
C2537 H2522 0.930 . S
C2537 C2532 1.390 . S
C2537 C2536 1.387 . S
H2538 C2550 0.930 . S
H2539 C2552 0.930 . S
H2540 C2553 0.930 . S
H2541 C2557 0.959 . S
H2542 C2557 0.959 . S
H2543 C2557 0.961 . S
H2544 C2558 0.960 . S
H2545 C2558 0.961 . S
H2546 C2558 0.959 . S
H2547 C2561 0.929 . S
H2548 C2562 0.931 . S
H2549 C2564 0.930 . S
C2550 H2538 0.930 . S
C2550 C2551 1.399 . S
C2550 C2555 1.399 . S
C2551 C2550 1.399 . S
C2551 C2552 1.376 . S
C2552 H2539 0.930 . S
C2552 C2551 1.376 . S
C2552 C2553 1.388 . S
C2553 H2540 0.930 . S
C2553 C2552 1.388 . S
C2553 C2554 1.390 . S
C2554 C2553 1.390 . S
C2554 C2555 1.394 . S
C2554 C2560 1.465 . S
C2555 C2550 1.399 . S
C2555 C2554 1.394 . S
C2555 C2556 1.516 . S
C2556 C2555 1.516 . S
C2556 C2557 1.502 . S
C2556 C2558 1.561 . S
C2556 C2559 1.526 . S
C2557 H2541 0.959 . S
C2557 H2542 0.959 . S
C2557 H2543 0.961 . S
C2557 C2556 1.502 . S
C2558 H2544 0.960 . S
C2558 H2545 0.961 . S
C2558 H2546 0.959 . S
C2558 C2556 1.561 . S
C2559 C2556 1.526 . S
C2559 C2560 1.396 . S
C2559 C2564 1.390 . S
C2560 C2554 1.465 . S
C2560 C2559 1.396 . S
C2560 C2561 1.399 . S
C2561 H2547 0.929 . S
C2561 C2560 1.399 . S
C2561 C2562 1.385 . S
C2562 H2548 0.931 . S
C2562 C2561 1.385 . S
C2562 C2563 1.389 . S
C2563 C2562 1.389 . S
C2563 C2564 1.387 . S
C2564 H2549 0.930 . S
C2564 C2559 1.390 . S
C2564 C2563 1.387 . S
H2565 C2577 0.930 . S
H2566 C2579 0.930 . S
H2567 C2580 0.930 . S
H2568 C2584 0.959 . S
H2569 C2584 0.959 . S
H2570 C2584 0.961 . S
H2571 C2585 0.960 . S
H2572 C2585 0.961 . S
H2573 C2585 0.959 . S
H2574 C2588 0.929 . S
H2575 C2589 0.931 . S
H2576 C2591 0.930 . S
C2577 H2565 0.930 . S
C2577 C2578 1.399 1_545 S
C2577 C2582 1.399 . S
C2578 C2577 1.399 1_565 S
C2578 C2579 1.376 . S
C2579 H2566 0.930 . S
C2579 C2578 1.376 . S
C2579 C2580 1.388 1_565 S
C2580 H2567 0.930 . S
C2580 C2579 1.388 1_545 S
C2580 C2581 1.390 . S
C2581 C2580 1.390 . S
C2581 C2582 1.394 . S
C2581 C2587 1.465 . S
C2582 C2577 1.399 . S
C2582 C2581 1.394 . S
C2582 C2583 1.516 . S
C2583 C2582 1.516 . S
C2583 C2584 1.502 . S
C2583 C2585 1.561 . S
C2583 C2586 1.526 . S
C2584 H2568 0.959 . S
C2584 H2569 0.959 . S
C2584 H2570 0.961 . S
C2584 C2583 1.502 . S
C2585 H2571 0.960 . S
C2585 H2572 0.961 . S
C2585 H2573 0.959 . S
C2585 C2583 1.561 . S
C2586 C2583 1.526 . S
C2586 C2587 1.396 . S
C2586 C2591 1.390 . S
C2587 C2581 1.465 . S
C2587 C2586 1.396 . S
C2587 C2588 1.399 . S
C2588 H2574 0.929 . S
C2588 C2587 1.399 . S
C2588 C2589 1.385 . S
C2589 H2575 0.931 . S
C2589 C2588 1.385 . S
C2589 C2590 1.389 . S
C2590 C2589 1.389 . S
C2590 C2591 1.387 . S
C2591 H2576 0.930 . S
C2591 C2586 1.390 . S
C2591 C2590 1.387 . S
H2592 C2604 0.930 . S
H2593 C2606 0.930 . S
H2594 C2607 0.930 . S
H2595 C2611 0.959 . S
H2596 C2611 0.959 . S
H2597 C2611 0.961 . S
H2598 C2612 0.960 . S
H2599 C2612 0.961 . S
H2600 C2612 0.959 . S
H2601 C2615 0.929 . S
H2602 C2616 0.931 . S
H2603 C2618 0.930 . S
C2604 H2592 0.930 . S
C2604 C2605 1.399 1_655 S
C2604 C2609 1.399 . S
C2605 C2604 1.399 1_455 S
C2605 C2606 1.376 . S
C2606 H2593 0.930 . S
C2606 C2605 1.376 . S
C2606 C2607 1.388 1_455 S
C2607 H2594 0.930 . S
C2607 C2606 1.388 1_655 S
C2607 C2608 1.390 . S
C2608 C2607 1.390 . S
C2608 C2609 1.394 . S
C2608 C2614 1.465 . S
C2609 C2604 1.399 . S
C2609 C2608 1.394 . S
C2609 C2610 1.516 . S
C2610 C2609 1.516 . S
C2610 C2611 1.502 . S
C2610 C2612 1.561 . S
C2610 C2613 1.526 . S
C2611 H2595 0.959 . S
C2611 H2596 0.959 . S
C2611 H2597 0.961 . S
C2611 C2610 1.502 . S
C2612 H2598 0.960 . S
C2612 H2599 0.961 . S
C2612 H2600 0.959 . S
C2612 C2610 1.561 . S
C2613 C2610 1.526 . S
C2613 C2614 1.396 . S
C2613 C2618 1.390 . S
C2614 C2608 1.465 . S
C2614 C2613 1.396 . S
C2614 C2615 1.399 . S
C2615 H2601 0.929 . S
C2615 C2614 1.399 . S
C2615 C2616 1.385 . S
C2616 H2602 0.931 . S
C2616 C2615 1.385 . S
C2616 C2617 1.389 . S
C2617 C2616 1.389 . S
C2617 C2618 1.387 . S
C2618 H2603 0.930 . S
C2618 C2613 1.390 . S
C2618 C2617 1.387 . S
H2619 C2631 0.930 . S
H2620 C2633 0.930 . S
H2621 C2634 0.930 . S
H2622 C2638 0.959 . S
H2623 C2638 0.959 . S
H2624 C2638 0.961 . S
H2625 C2639 0.960 . S
H2626 C2639 0.961 . S
H2627 C2639 0.959 . S
H2628 C2642 0.929 . S
H2629 C2643 0.931 . S
H2630 C2645 0.930 . S
C2631 H2619 0.930 . S
C2631 C2632 1.399 . S
C2631 C2636 1.399 . S
C2632 C2631 1.399 . S
C2632 C2633 1.376 . S
C2633 H2620 0.930 . S
C2633 C2632 1.376 . S
C2633 C2634 1.388 . S
C2634 H2621 0.930 . S
C2634 C2633 1.388 . S
C2634 C2635 1.390 . S
C2635 C2634 1.390 . S
C2635 C2636 1.394 . S
C2635 C2641 1.465 . S
C2636 C2631 1.399 . S
C2636 C2635 1.394 . S
C2636 C2637 1.516 . S
C2637 C2636 1.516 . S
C2637 C2638 1.502 . S
C2637 C2639 1.561 . S
C2637 C2640 1.526 . S
C2638 H2622 0.959 . S
C2638 H2623 0.959 . S
C2638 H2624 0.961 . S
C2638 C2637 1.502 . S
C2639 H2625 0.960 . S
C2639 H2626 0.961 . S
C2639 H2627 0.959 . S
C2639 C2637 1.561 . S
C2640 C2637 1.526 . S
C2640 C2641 1.396 . S
C2640 C2645 1.390 . S
C2641 C2635 1.465 . S
C2641 C2640 1.396 . S
C2641 C2642 1.399 . S
C2642 H2628 0.929 . S
C2642 C2641 1.399 . S
C2642 C2643 1.385 . S
C2643 H2629 0.931 . S
C2643 C2642 1.385 . S
C2643 C2644 1.389 . S
C2644 C2643 1.389 . S
C2644 C2645 1.387 . S
C2645 H2630 0.930 . S
C2645 C2640 1.390 . S
C2645 C2644 1.387 . S
H2646 C2658 0.930 . S
H2647 C2660 0.930 . S
H2648 C2661 0.930 . S
H2649 C2665 0.959 . S
H2650 C2665 0.959 . S
H2651 C2665 0.961 . S
H2652 C2666 0.960 . S
H2653 C2666 0.961 . S
H2654 C2666 0.959 . S
H2655 C2669 0.929 . S
H2656 C2670 0.931 . S
H2657 C2672 0.930 . S
C2658 H2646 0.930 . S
C2658 C2659 1.399 1_655 S
C2658 C2663 1.399 . S
C2659 C2658 1.399 1_455 S
C2659 C2660 1.376 . S
C2660 H2647 0.930 . S
C2660 C2659 1.376 . S
C2660 C2661 1.388 1_455 S
C2661 H2648 0.930 . S
C2661 C2660 1.388 1_655 S
C2661 C2662 1.390 . S
C2662 C2661 1.390 . S
C2662 C2663 1.394 . S
C2662 C2668 1.465 . S
C2663 C2658 1.399 . S
C2663 C2662 1.394 . S
C2663 C2664 1.516 . S
C2664 C2663 1.516 . S
C2664 C2665 1.502 . S
C2664 C2666 1.561 . S
C2664 C2667 1.526 . S
C2665 H2649 0.959 . S
C2665 H2650 0.959 . S
C2665 H2651 0.961 . S
C2665 C2664 1.502 . S
C2666 H2652 0.960 . S
C2666 H2653 0.961 . S
C2666 H2654 0.959 . S
C2666 C2664 1.561 . S
C2667 C2664 1.526 . S
C2667 C2668 1.396 . S
C2667 C2672 1.390 . S
C2668 C2662 1.465 . S
C2668 C2667 1.396 . S
C2668 C2669 1.399 . S
C2669 H2655 0.929 . S
C2669 C2668 1.399 . S
C2669 C2670 1.385 . S
C2670 H2656 0.931 . S
C2670 C2669 1.385 . S
C2670 C2671 1.389 . S
C2671 C2670 1.389 . S
C2671 C2672 1.387 . S
C2672 H2657 0.930 . S
C2672 C2667 1.390 . S
C2672 C2671 1.387 . S
H2673 C2685 0.930 . S
H2674 C2687 0.930 . S
H2675 C2688 0.930 . S
H2676 C2692 0.959 . S
H2677 C2692 0.959 . S
H2678 C2692 0.961 . S
H2679 C2693 0.960 . S
H2680 C2693 0.961 . S
H2681 C2693 0.959 . S
H2682 C2696 0.929 . S
H2683 C2697 0.931 . S
H2684 C2699 0.930 . S
C2685 H2673 0.930 . S
C2685 C2686 1.399 . S
C2685 C2690 1.399 . S
C2686 C2685 1.399 . S
C2686 C2687 1.376 . S
C2687 H2674 0.930 . S
C2687 C2686 1.376 . S
C2687 C2688 1.388 . S
C2688 H2675 0.930 . S
C2688 C2687 1.388 . S
C2688 C2689 1.390 . S
C2689 C2688 1.390 . S
C2689 C2690 1.394 . S
C2689 C2695 1.465 . S
C2690 C2685 1.399 . S
C2690 C2689 1.394 . S
C2690 C2691 1.516 . S
C2691 C2690 1.516 . S
C2691 C2692 1.502 . S
C2691 C2693 1.561 . S
C2691 C2694 1.526 . S
C2692 H2676 0.959 . S
C2692 H2677 0.959 . S
C2692 H2678 0.961 . S
C2692 C2691 1.502 . S
C2693 H2679 0.960 . S
C2693 H2680 0.961 . S
C2693 H2681 0.959 . S
C2693 C2691 1.561 . S
C2694 C2691 1.526 . S
C2694 C2695 1.396 . S
C2694 C2699 1.390 . S
C2695 C2689 1.465 . S
C2695 C2694 1.396 . S
C2695 C2696 1.399 . S
C2696 H2682 0.929 . S
C2696 C2695 1.399 . S
C2696 C2697 1.385 . S
C2697 H2683 0.931 . S
C2697 C2696 1.385 . S
C2697 C2698 1.389 . S
C2698 C2697 1.389 . S
C2698 C2699 1.387 . S
C2699 H2684 0.930 . S
C2699 C2694 1.390 . S
C2699 C2698 1.387 . S
H2700 C2712 0.930 . S
H2701 C2714 0.930 . S
H2702 C2715 0.930 . S
H2703 C2719 0.959 . S
H2704 C2719 0.959 . S
H2705 C2719 0.961 . S
H2706 C2720 0.960 . S
H2707 C2720 0.961 . S
H2708 C2720 0.959 . S
H2709 C2723 0.929 . S
H2710 C2724 0.931 . S
H2711 C2726 0.930 . S
C2712 H2700 0.930 . S
C2712 C2713 1.399 . S
C2712 C2717 1.399 1_565 S
C2713 C2712 1.399 . S
C2713 C2714 1.376 . S
C2714 H2701 0.930 . S
C2714 C2713 1.376 . S
C2714 C2715 1.388 1_565 S
C2715 H2702 0.930 . S
C2715 C2714 1.388 1_545 S
C2715 C2716 1.390 . S
C2716 C2715 1.390 . S
C2716 C2717 1.394 . S
C2716 C2722 1.465 . S
C2717 C2712 1.399 1_545 S
C2717 C2716 1.394 . S
C2717 C2718 1.516 . S
C2718 C2717 1.516 . S
C2718 C2719 1.502 . S
C2718 C2720 1.561 . S
C2718 C2721 1.526 . S
C2719 H2703 0.959 . S
C2719 H2704 0.959 . S
C2719 H2705 0.961 . S
C2719 C2718 1.502 . S
C2720 H2706 0.960 . S
C2720 H2707 0.961 . S
C2720 H2708 0.959 . S
C2720 C2718 1.561 . S
C2721 C2718 1.526 . S
C2721 C2722 1.396 . S
C2721 C2726 1.390 . S
C2722 C2716 1.465 . S
C2722 C2721 1.396 . S
C2722 C2723 1.399 . S
C2723 H2709 0.929 . S
C2723 C2722 1.399 . S
C2723 C2724 1.385 . S
C2724 H2710 0.931 . S
C2724 C2723 1.385 . S
C2724 C2725 1.389 . S
C2725 C2724 1.389 . S
C2725 C2726 1.387 . S
C2726 H2711 0.930 . S
C2726 C2721 1.390 . S
C2726 C2725 1.387 . S
H2727 C2739 0.930 . S
H2728 C2741 0.930 . S
H2729 C2742 0.930 . S
H2730 C2746 0.959 . S
H2731 C2746 0.959 . S
H2732 C2746 0.961 . S
H2733 C2747 0.960 . S
H2734 C2747 0.961 . S
H2735 C2747 0.959 . S
H2736 C2750 0.929 . S
H2737 C2751 0.931 . S
H2738 C2753 0.930 . S
C2739 H2727 0.930 . S
C2739 C2740 1.399 . S
C2739 C2744 1.399 . S
C2740 C2739 1.399 . S
C2740 C2741 1.376 . S
C2741 H2728 0.930 . S
C2741 C2740 1.376 . S
C2741 C2742 1.388 . S
C2742 H2729 0.930 . S
C2742 C2741 1.388 . S
C2742 C2743 1.390 . S
C2743 C2742 1.390 . S
C2743 C2744 1.394 . S
C2743 C2749 1.465 . S
C2744 C2739 1.399 . S
C2744 C2743 1.394 . S
C2744 C2745 1.516 . S
C2745 C2744 1.516 . S
C2745 C2746 1.502 . S
C2745 C2747 1.561 . S
C2745 C2748 1.526 . S
C2746 H2730 0.959 . S
C2746 H2731 0.959 . S
C2746 H2732 0.961 . S
C2746 C2745 1.502 . S
C2747 H2733 0.960 . S
C2747 H2734 0.961 . S
C2747 H2735 0.959 . S
C2747 C2745 1.561 . S
C2748 C2745 1.526 . S
C2748 C2749 1.396 . S
C2748 C2753 1.390 . S
C2749 C2743 1.465 . S
C2749 C2748 1.396 . S
C2749 C2750 1.399 . S
C2750 H2736 0.929 . S
C2750 C2749 1.399 . S
C2750 C2751 1.385 . S
C2751 H2737 0.931 . S
C2751 C2750 1.385 . S
C2751 C2752 1.389 . S
C2752 C2751 1.389 . S
C2752 C2753 1.387 . S
C2753 H2738 0.930 . S
C2753 C2748 1.390 . S
C2753 C2752 1.387 . S
H2754 C2766 0.930 . S
H2755 C2768 0.930 . S
H2756 C2769 0.930 . S
H2757 C2773 0.959 . S
H2758 C2773 0.959 . S
H2759 C2773 0.961 . S
H2760 C2774 0.960 . S
H2761 C2774 0.961 . S
H2762 C2774 0.959 . S
H2763 C2777 0.929 . S
H2764 C2778 0.931 . S
H2765 C2780 0.930 . S
C2766 H2754 0.930 . S
C2766 C2767 1.399 . S
C2766 C2771 1.399 . S
C2767 C2766 1.399 . S
C2767 C2768 1.376 . S
C2768 H2755 0.930 . S
C2768 C2767 1.376 . S
C2768 C2769 1.388 . S
C2769 H2756 0.930 . S
C2769 C2768 1.388 . S
C2769 C2770 1.390 . S
C2770 C2769 1.390 . S
C2770 C2771 1.394 . S
C2770 C2776 1.465 . S
C2771 C2766 1.399 . S
C2771 C2770 1.394 . S
C2771 C2772 1.516 . S
C2772 C2771 1.516 . S
C2772 C2773 1.502 . S
C2772 C2774 1.561 . S
C2772 C2775 1.526 . S
C2773 H2757 0.959 . S
C2773 H2758 0.959 . S
C2773 H2759 0.961 . S
C2773 C2772 1.502 . S
C2774 H2760 0.960 . S
C2774 H2761 0.961 . S
C2774 H2762 0.959 . S
C2774 C2772 1.561 . S
C2775 C2772 1.526 . S
C2775 C2776 1.396 . S
C2775 C2780 1.390 . S
C2776 C2770 1.465 . S
C2776 C2775 1.396 . S
C2776 C2777 1.399 . S
C2777 H2763 0.929 . S
C2777 C2776 1.399 . S
C2777 C2778 1.385 . S
C2778 H2764 0.931 . S
C2778 C2777 1.385 . S
C2778 C2779 1.389 . S
C2779 C2778 1.389 . S
C2779 C2780 1.387 . S
C2780 H2765 0.930 . S
C2780 C2775 1.390 . S
C2780 C2779 1.387 . S
H2781 C2793 0.930 . S
H2782 C2795 0.930 . S
H2783 C2796 0.930 . S
H2784 C2800 0.959 . S
H2785 C2800 0.959 . S
H2786 C2800 0.961 . S
H2787 C2801 0.960 . S
H2788 C2801 0.961 . S
H2789 C2801 0.959 . S
H2790 C2804 0.929 . S
H2791 C2805 0.931 . S
H2792 C2807 0.930 . S
C2793 H2781 0.930 . S
C2793 C2794 1.399 . S
C2793 C2798 1.399 . S
C2794 C2793 1.399 . S
C2794 C2795 1.376 . S
C2795 H2782 0.930 . S
C2795 C2794 1.376 . S
C2795 C2796 1.388 . S
C2796 H2783 0.930 . S
C2796 C2795 1.388 . S
C2796 C2797 1.390 . S
C2797 C2796 1.390 . S
C2797 C2798 1.394 . S
C2797 C2803 1.465 . S
C2798 C2793 1.399 . S
C2798 C2797 1.394 . S
C2798 C2799 1.516 . S
C2799 C2798 1.516 . S
C2799 C2800 1.502 . S
C2799 C2801 1.561 . S
C2799 C2802 1.526 . S
C2800 H2784 0.959 . S
C2800 H2785 0.959 . S
C2800 H2786 0.961 . S
C2800 C2799 1.502 . S
C2801 H2787 0.960 . S
C2801 H2788 0.961 . S
C2801 H2789 0.959 . S
C2801 C2799 1.561 . S
C2802 C2799 1.526 . S
C2802 C2803 1.396 . S
C2802 C2807 1.390 . S
C2803 C2797 1.465 . S
C2803 C2802 1.396 . S
C2803 C2804 1.399 . S
C2804 H2790 0.929 . S
C2804 C2803 1.399 . S
C2804 C2805 1.385 . S
C2805 H2791 0.931 . S
C2805 C2804 1.385 . S
C2805 C2806 1.389 . S
C2806 C2805 1.389 . S
C2806 C2807 1.387 . S
C2807 H2792 0.930 . S
C2807 C2802 1.390 . S
C2807 C2806 1.387 . S
H2808 C2820 0.930 . S
H2809 C2822 0.930 . S
H2810 C2823 0.930 . S
H2811 C2827 0.959 . S
H2812 C2827 0.959 . S
H2813 C2827 0.961 . S
H2814 C2828 0.957 1_545 S
H2815 C2828 0.949 1_545 S
H2816 C2828 0.963 1_545 S
H2817 C2831 0.929 . S
H2818 C2832 0.931 . S
H2819 C2834 0.930 . S
C2820 H2808 0.930 . S
C2820 C2821 1.399 . S
C2820 C2825 1.399 . S
C2821 C2820 1.399 . S
C2821 C2822 1.376 . S
C2822 H2809 0.930 . S
C2822 C2821 1.376 . S
C2822 C2823 1.388 . S
C2823 H2810 0.930 . S
C2823 C2822 1.388 . S
C2823 C2824 1.390 . S
C2824 C2823 1.390 . S
C2824 C2825 1.394 . S
C2824 C2830 1.465 . S
C2825 C2820 1.399 . S
C2825 C2824 1.394 . S
C2825 C2826 1.516 . S
C2826 C2825 1.516 . S
C2826 C2827 1.502 . S
C2826 C2828 1.573 . S
C2826 C2829 1.526 . S
C2827 H2811 0.959 . S
C2827 H2812 0.959 . S
C2827 H2813 0.961 . S
C2827 C2826 1.502 . S
C2828 H2814 0.957 1_565 S
C2828 H2815 0.949 1_565 S
C2828 H2816 0.963 1_565 S
C2828 C2826 1.573 . S
C2829 C2826 1.526 . S
C2829 C2830 1.396 . S
C2829 C2834 1.390 . S
C2830 C2824 1.465 . S
C2830 C2829 1.396 . S
C2830 C2831 1.399 . S
C2831 H2817 0.929 . S
C2831 C2830 1.399 . S
C2831 C2832 1.385 . S
C2832 H2818 0.931 . S
C2832 C2831 1.385 . S
C2832 C2833 1.389 . S
C2833 C2832 1.389 . S
C2833 C2834 1.387 . S
C2834 H2819 0.930 . S
C2834 C2829 1.390 . S
C2834 C2833 1.387 . S
H2835 C2847 0.930 . S
H2836 C2849 0.930 . S
H2837 C2850 0.930 . S
H2838 C2854 0.959 . S
H2839 C2854 0.959 . S
H2840 C2854 0.961 . S
H2841 C2855 0.960 . S
H2842 C2855 0.961 . S
H2843 C2855 0.959 . S
H2844 C2858 0.929 . S
H2845 C2859 0.931 . S
H2846 C2861 0.930 . S
C2847 H2835 0.930 . S
C2847 C2848 1.399 . S
C2847 C2852 1.399 . S
C2848 C2847 1.399 . S
C2848 C2849 1.376 . S
C2849 H2836 0.930 . S
C2849 C2848 1.376 . S
C2849 C2850 1.388 . S
C2850 H2837 0.930 . S
C2850 C2849 1.388 . S
C2850 C2851 1.390 . S
C2851 C2850 1.390 . S
C2851 C2852 1.394 . S
C2851 C2857 1.465 . S
C2852 C2847 1.399 . S
C2852 C2851 1.394 . S
C2852 C2853 1.516 . S
C2853 C2852 1.516 . S
C2853 C2854 1.502 . S
C2853 C2855 1.561 1_455 S
C2853 C2856 1.526 . S
C2854 H2838 0.959 . S
C2854 H2839 0.959 . S
C2854 H2840 0.961 . S
C2854 C2853 1.502 . S
C2855 H2841 0.960 . S
C2855 H2842 0.961 . S
C2855 H2843 0.959 . S
C2855 C2853 1.561 1_655 S
C2856 C2853 1.526 . S
C2856 C2857 1.396 . S
C2856 C2861 1.390 . S
C2857 C2851 1.465 . S
C2857 C2856 1.396 . S
C2857 C2858 1.399 . S
C2858 H2844 0.929 . S
C2858 C2857 1.399 . S
C2858 C2859 1.385 . S
C2859 H2845 0.931 . S
C2859 C2858 1.385 . S
C2859 C2860 1.389 . S
C2860 C2859 1.389 . S
C2860 C2861 1.387 . S
C2861 H2846 0.930 . S
C2861 C2856 1.390 . S
C2861 C2860 1.387 . S
H2862 C2874 0.930 . S
H2863 C2876 0.930 . S
H2864 C2877 0.930 . S
H2865 C2881 0.959 . S
H2866 C2881 0.959 . S
H2867 C2881 0.961 . S
H2868 C2882 0.960 . S
H2869 C2882 0.961 . S
H2870 C2882 0.959 . S
H2871 C2885 0.929 . S
H2872 C2886 0.931 . S
H2873 C2888 0.930 . S
C2874 H2862 0.930 . S
C2874 C2875 1.399 . S
C2874 C2879 1.399 . S
C2875 C2874 1.399 . S
C2875 C2876 1.376 . S
C2876 H2863 0.930 . S
C2876 C2875 1.376 . S
C2876 C2877 1.388 . S
C2877 H2864 0.930 . S
C2877 C2876 1.388 . S
C2877 C2878 1.390 . S
C2878 C2877 1.390 . S
C2878 C2879 1.394 . S
C2878 C2884 1.465 . S
C2879 C2874 1.399 . S
C2879 C2878 1.394 . S
C2879 C2880 1.516 . S
C2880 C2879 1.516 . S
C2880 C2881 1.502 . S
C2880 C2882 1.561 . S
C2880 C2883 1.526 . S
C2881 H2865 0.959 . S
C2881 H2866 0.959 . S
C2881 H2867 0.961 . S
C2881 C2880 1.502 . S
C2882 H2868 0.960 . S
C2882 H2869 0.961 . S
C2882 H2870 0.959 . S
C2882 C2880 1.561 . S
C2883 C2880 1.526 . S
C2883 C2884 1.396 . S
C2883 C2888 1.390 . S
C2884 C2878 1.465 . S
C2884 C2883 1.396 . S
C2884 C2885 1.399 . S
C2885 H2871 0.929 . S
C2885 C2884 1.399 . S
C2885 C2886 1.385 . S
C2886 H2872 0.931 . S
C2886 C2885 1.385 . S
C2886 C2887 1.389 . S
C2887 C2886 1.389 . S
C2887 C2888 1.387 . S
C2888 H2873 0.930 . S
C2888 C2883 1.390 . S
C2888 C2887 1.387 . S
H2889 C2901 0.930 . S
H2890 C2903 0.930 . S
H2891 C2904 0.930 . S
H2892 C2908 0.959 . S
H2893 C2908 0.959 . S
H2894 C2908 0.961 . S
H2895 C2909 0.960 . S
H2896 C2909 0.961 . S
H2897 C2909 0.959 . S
H2898 C2912 0.929 . S
H2899 C2913 0.931 . S
H2900 C2915 0.930 1_455 S
C2901 H2889 0.930 . S
C2901 C2902 1.399 . S
C2901 C2906 1.399 . S
C2902 C2901 1.399 . S
C2902 C2903 1.376 . S
C2903 H2890 0.930 . S
C2903 C2902 1.376 . S
C2903 C2904 1.388 . S
C2904 H2891 0.930 . S
C2904 C2903 1.388 . S
C2904 C2905 1.390 . S
C2905 C2904 1.390 . S
C2905 C2906 1.394 . S
C2905 C2911 1.465 . S
C2906 C2901 1.399 . S
C2906 C2905 1.394 . S
C2906 C2907 1.516 . S
C2907 C2906 1.516 . S
C2907 C2908 1.502 1_655 S
C2907 C2909 1.561 . S
C2907 C2910 1.526 . S
C2908 H2892 0.959 . S
C2908 H2893 0.959 . S
C2908 H2894 0.961 . S
C2908 C2907 1.502 1_455 S
C2909 H2895 0.960 . S
C2909 H2896 0.961 . S
C2909 H2897 0.959 . S
C2909 C2907 1.561 . S
C2910 C2907 1.526 . S
C2910 C2911 1.396 . S
C2910 C2915 1.390 . S
C2911 C2905 1.465 . S
C2911 C2910 1.396 . S
C2911 C2912 1.399 . S
C2912 H2898 0.929 . S
C2912 C2911 1.399 . S
C2912 C2913 1.385 . S
C2913 H2899 0.931 . S
C2913 C2912 1.385 . S
C2913 C2914 1.389 . S
C2914 C2913 1.389 . S
C2914 C2915 1.387 . S
C2915 H2900 0.930 1_655 S
C2915 C2910 1.390 . S
C2915 C2914 1.387 . S
H2916 C2928 0.930 . S
H2917 C2930 0.930 . S
H2918 C2931 0.930 . S
H2919 C2935 0.959 . S
H2920 C2935 0.959 . S
H2921 C2935 0.961 . S
H2922 C2936 0.960 . S
H2923 C2936 0.961 . S
H2924 C2936 0.959 . S
H2925 C2939 0.929 . S
H2926 C2940 0.931 . S
H2927 C2942 0.930 . S
C2928 H2916 0.930 . S
C2928 C2929 1.399 . S
C2928 C2933 1.399 . S
C2929 C2928 1.399 . S
C2929 C2930 1.376 . S
C2930 H2917 0.930 . S
C2930 C2929 1.376 . S
C2930 C2931 1.388 . S
C2931 H2918 0.930 . S
C2931 C2930 1.388 . S
C2931 C2932 1.390 . S
C2932 C2931 1.390 . S
C2932 C2933 1.394 . S
C2932 C2938 1.465 . S
C2933 C2928 1.399 . S
C2933 C2932 1.394 . S
C2933 C2934 1.516 . S
C2934 C2933 1.516 . S
C2934 C2935 1.502 . S
C2934 C2936 1.561 . S
C2934 C2937 1.526 . S
C2935 H2919 0.959 . S
C2935 H2920 0.959 . S
C2935 H2921 0.961 . S
C2935 C2934 1.502 . S
C2936 H2922 0.960 . S
C2936 H2923 0.961 . S
C2936 H2924 0.959 . S
C2936 C2934 1.561 . S
C2937 C2934 1.526 . S
C2937 C2938 1.396 . S
C2937 C2942 1.390 . S
C2938 C2932 1.465 . S
C2938 C2937 1.396 . S
C2938 C2939 1.399 . S
C2939 H2925 0.929 . S
C2939 C2938 1.399 . S
C2939 C2940 1.385 . S
C2940 H2926 0.931 . S
C2940 C2939 1.385 . S
C2940 C2941 1.389 . S
C2941 C2940 1.389 . S
C2941 C2942 1.387 . S
C2942 H2927 0.930 . S
C2942 C2937 1.390 . S
C2942 C2941 1.387 . S
H2943 C2955 0.930 . S
H2944 C2957 0.930 . S
H2945 C2958 0.930 . S
H2946 C2962 0.959 . S
H2947 C2962 0.959 . S
H2948 C2962 0.961 . S
H2949 C2963 0.960 . S
H2950 C2963 0.961 . S
H2951 C2963 0.959 . S
H2952 C2966 0.929 . S
H2953 C2967 0.942 . S
H2954 C2969 0.930 . S
C2955 H2943 0.930 . S
C2955 C2956 1.399 . S
C2955 C2960 1.399 . S
C2956 C2955 1.399 . S
C2956 C2957 1.376 . S
C2957 H2944 0.930 . S
C2957 C2956 1.376 . S
C2957 C2958 1.388 . S
C2958 H2945 0.930 . S
C2958 C2957 1.388 . S
C2958 C2959 1.390 . S
C2959 C2958 1.390 . S
C2959 C2960 1.394 . S
C2959 C2965 1.465 . S
C2960 C2955 1.399 . S
C2960 C2959 1.394 . S
C2960 C2961 1.516 . S
C2961 C2960 1.516 . S
C2961 C2962 1.502 . S
C2961 C2963 1.561 . S
C2961 C2964 1.526 . S
C2962 H2946 0.959 . S
C2962 H2947 0.959 . S
C2962 H2948 0.961 . S
C2962 C2961 1.502 . S
C2963 H2949 0.960 . S
C2963 H2950 0.961 . S
C2963 H2951 0.959 . S
C2963 C2961 1.561 . S
C2964 C2961 1.526 . S
C2964 C2965 1.396 . S
C2964 C2969 1.390 . S
C2965 C2959 1.465 . S
C2965 C2964 1.396 . S
C2965 C2966 1.399 . S
C2966 H2952 0.929 . S
C2966 C2965 1.399 . S
C2966 C2967 1.385 . S
C2967 H2953 0.942 . S
C2967 C2966 1.385 . S
C2967 C2968 1.389 . S
C2968 C2967 1.389 . S
C2968 C2969 1.387 . S
C2969 H2954 0.930 . S
C2969 C2964 1.390 . S
C2969 C2968 1.387 . S
H2970 C2982 0.930 . S
H2971 C2984 0.930 . S
H2972 C2985 0.930 . S
H2973 C2989 0.959 . S
H2974 C2989 0.959 . S
H2975 C2989 0.961 . S
H2976 C2990 0.960 . S
H2977 C2990 0.961 . S
H2978 C2990 0.959 . S
H2979 C2993 0.929 . S
H2980 C2994 0.931 . S
H2981 C2996 0.930 . S
C2982 H2970 0.930 . S
C2982 C2983 1.399 . S
C2982 C2987 1.399 . S
C2983 C2982 1.399 . S
C2983 C2984 1.376 . S
C2984 H2971 0.930 . S
C2984 C2983 1.376 . S
C2984 C2985 1.388 . S
C2985 H2972 0.930 . S
C2985 C2984 1.388 . S
C2985 C2986 1.390 . S
C2986 C2985 1.390 . S
C2986 C2987 1.394 . S
C2986 C2992 1.465 . S
C2987 C2982 1.399 . S
C2987 C2986 1.394 . S
C2987 C2988 1.516 . S
C2988 C2987 1.516 . S
C2988 C2989 1.502 . S
C2988 C2990 1.561 . S
C2988 C2991 1.526 . S
C2989 H2973 0.959 . S
C2989 H2974 0.959 . S
C2989 H2975 0.961 . S
C2989 C2988 1.502 . S
C2990 H2976 0.960 . S
C2990 H2977 0.961 . S
C2990 H2978 0.959 . S
C2990 C2988 1.561 . S
C2991 C2988 1.526 . S
C2991 C2992 1.396 . S
C2991 C2996 1.390 . S
C2992 C2986 1.465 . S
C2992 C2991 1.396 . S
C2992 C2993 1.399 . S
C2993 H2979 0.929 . S
C2993 C2992 1.399 . S
C2993 C2994 1.385 . S
C2994 H2980 0.931 . S
C2994 C2993 1.385 . S
C2994 C2995 1.389 . S
C2995 C2994 1.389 . S
C2995 C2996 1.387 . S
C2996 H2981 0.930 . S
C2996 C2991 1.390 . S
C2996 C2995 1.387 . S
H2997 C3009 0.930 . S
H2998 C3011 0.930 . S
H2999 C3012 0.930 . S
H3000 C3016 0.959 . S
H3001 C3016 0.959 . S
H3002 C3016 0.961 . S
H3003 C3017 0.960 . S
H3004 C3017 0.961 . S
H3005 C3017 0.959 . S
H3006 C3020 0.929 . S
H3007 C3021 0.931 . S
H3008 C3023 0.930 . S
C3009 H2997 0.930 . S
C3009 C3010 1.399 . S
C3009 C3014 1.399 . S
C3010 C3009 1.399 . S
C3010 C3011 1.376 . S
C3011 H2998 0.930 . S
C3011 C3010 1.376 . S
C3011 C3012 1.388 . S
C3012 H2999 0.930 . S
C3012 C3011 1.388 . S
C3012 C3013 1.390 . S
C3013 C3012 1.390 . S
C3013 C3014 1.394 . S
C3013 C3019 1.465 . S
C3014 C3009 1.399 . S
C3014 C3013 1.394 . S
C3014 C3015 1.516 . S
C3015 C3014 1.516 . S
C3015 C3016 1.502 . S
C3015 C3017 1.561 . S
C3015 C3018 1.526 . S
C3016 H3000 0.959 . S
C3016 H3001 0.959 . S
C3016 H3002 0.961 . S
C3016 C3015 1.502 . S
C3017 H3003 0.960 . S
C3017 H3004 0.961 . S
C3017 H3005 0.959 . S
C3017 C3015 1.561 . S
C3018 C3015 1.526 . S
C3018 C3019 1.396 . S
C3018 C3023 1.390 . S
C3019 C3013 1.465 . S
C3019 C3018 1.396 . S
C3019 C3020 1.399 . S
C3020 H3006 0.929 . S
C3020 C3019 1.399 . S
C3020 C3021 1.385 . S
C3021 H3007 0.931 . S
C3021 C3020 1.385 . S
C3021 C3022 1.389 . S
C3022 C3021 1.389 . S
C3022 C3023 1.387 . S
C3023 H3008 0.930 . S
C3023 C3018 1.390 . S
C3023 C3022 1.387 . S
H3024 C3036 0.930 . S
H3025 C3038 0.930 . S
H3026 C3039 0.930 . S
H3027 C3043 0.959 . S
H3028 C3043 0.959 . S
H3029 C3043 0.961 . S
H3030 C3044 0.960 . S
H3031 C3044 0.961 . S
H3032 C3044 0.959 . S
H3033 C3047 0.929 . S
H3034 C3048 0.931 . S
H3035 C3050 0.930 . S
C3036 H3024 0.930 . S
C3036 C3037 1.399 . S
C3036 C3041 1.399 . S
C3037 C3036 1.399 . S
C3037 C3038 1.376 . S
C3038 H3025 0.930 . S
C3038 C3037 1.376 . S
C3038 C3039 1.388 . S
C3039 H3026 0.930 . S
C3039 C3038 1.388 . S
C3039 C3040 1.390 . S
C3040 C3039 1.390 . S
C3040 C3041 1.394 . S
C3040 C3046 1.465 . S
C3041 C3036 1.399 . S
C3041 C3040 1.394 . S
C3041 C3042 1.516 . S
C3042 C3041 1.516 . S
C3042 C3043 1.502 . S
C3042 C3044 1.561 . S
C3042 C3045 1.526 . S
C3043 H3027 0.959 . S
C3043 H3028 0.959 . S
C3043 H3029 0.961 . S
C3043 C3042 1.502 . S
C3044 H3030 0.960 . S
C3044 H3031 0.961 . S
C3044 H3032 0.959 . S
C3044 C3042 1.561 . S
C3045 C3042 1.526 . S
C3045 C3046 1.396 . S
C3045 C3050 1.390 . S
C3046 C3040 1.465 . S
C3046 C3045 1.396 . S
C3046 C3047 1.399 . S
C3047 H3033 0.929 . S
C3047 C3046 1.399 . S
C3047 C3048 1.385 . S
C3048 H3034 0.931 . S
C3048 C3047 1.385 . S
C3048 C3049 1.389 . S
C3049 C3048 1.389 . S
C3049 C3050 1.387 . S
C3050 H3035 0.930 . S
C3050 C3045 1.390 . S
C3050 C3049 1.387 . S
H3051 C3063 0.930 . S
H3052 C3065 0.930 . S
H3053 C3066 0.930 . S
H3054 C3070 0.959 . S
H3055 C3070 0.959 . S
H3056 C3070 0.961 . S
H3057 C3071 0.960 . S
H3058 C3071 0.961 . S
H3059 C3071 0.959 . S
H3060 C3074 0.929 . S
H3061 C3075 0.931 . S
H3062 C3077 0.930 . S
C3063 H3051 0.930 . S
C3063 C3064 1.399 . S
C3063 C3068 1.399 . S
C3064 C3063 1.399 . S
C3064 C3065 1.376 . S
C3065 H3052 0.930 . S
C3065 C3064 1.376 . S
C3065 C3066 1.388 . S
C3066 H3053 0.930 . S
C3066 C3065 1.388 . S
C3066 C3067 1.390 . S
C3067 C3066 1.390 . S
C3067 C3068 1.394 . S
C3067 C3073 1.465 . S
C3068 C3063 1.399 . S
C3068 C3067 1.394 . S
C3068 C3069 1.516 . S
C3069 C3068 1.516 . S
C3069 C3070 1.502 . S
C3069 C3071 1.561 . S
C3069 C3072 1.526 . S
C3070 H3054 0.959 . S
C3070 H3055 0.959 . S
C3070 H3056 0.961 . S
C3070 C3069 1.502 . S
C3071 H3057 0.960 . S
C3071 H3058 0.961 . S
C3071 H3059 0.959 . S
C3071 C3069 1.561 . S
C3072 C3069 1.526 . S
C3072 C3073 1.396 . S
C3072 C3077 1.390 . S
C3073 C3067 1.465 . S
C3073 C3072 1.396 . S
C3073 C3074 1.399 . S
C3074 H3060 0.929 . S
C3074 C3073 1.399 . S
C3074 C3075 1.385 . S
C3075 H3061 0.931 . S
C3075 C3074 1.385 . S
C3075 C3076 1.389 . S
C3076 C3075 1.389 . S
C3076 C3077 1.387 . S
C3077 H3062 0.930 . S
C3077 C3072 1.390 . S
C3077 C3076 1.387 . S
H3078 C3090 0.930 . S
H3079 C3092 0.930 . S
H3080 C3093 0.930 . S
H3081 C3097 0.959 . S
H3082 C3097 0.959 . S
H3083 C3097 0.961 . S
H3084 C3098 0.960 . S
H3085 C3098 0.961 . S
H3086 C3098 0.959 . S
H3087 C3101 0.929 . S
H3088 C3102 0.931 . S
H3089 C3104 0.930 . S
C3090 H3078 0.930 . S
C3090 C3091 1.399 . S
C3090 C3095 1.399 . S
C3091 C3090 1.399 . S
C3091 C3092 1.376 . S
C3092 H3079 0.930 . S
C3092 C3091 1.376 . S
C3092 C3093 1.388 . S
C3093 H3080 0.930 . S
C3093 C3092 1.388 . S
C3093 C3094 1.390 . S
C3094 C3093 1.390 . S
C3094 C3095 1.394 . S
C3094 C3100 1.465 . S
C3095 C3090 1.399 . S
C3095 C3094 1.394 . S
C3095 C3096 1.516 . S
C3096 C3095 1.516 . S
C3096 C3097 1.502 . S
C3096 C3098 1.561 . S
C3096 C3099 1.526 . S
C3097 H3081 0.959 . S
C3097 H3082 0.959 . S
C3097 H3083 0.961 . S
C3097 C3096 1.502 . S
C3098 H3084 0.960 . S
C3098 H3085 0.961 . S
C3098 H3086 0.959 . S
C3098 C3096 1.561 . S
C3099 C3096 1.526 . S
C3099 C3100 1.396 . S
C3099 C3104 1.390 . S
C3100 C3094 1.465 . S
C3100 C3099 1.396 . S
C3100 C3101 1.399 . S
C3101 H3087 0.929 . S
C3101 C3100 1.399 . S
C3101 C3102 1.385 . S
C3102 H3088 0.931 . S
C3102 C3101 1.385 . S
C3102 C3103 1.389 . S
C3103 C3102 1.389 . S
C3103 C3104 1.387 . S
C3104 H3089 0.930 . S
C3104 C3099 1.390 . S
C3104 C3103 1.387 . S
H3105 C3117 0.930 . S
H3106 C3119 0.930 . S
H3107 C3120 0.930 . S
H3108 C3124 0.959 . S
H3109 C3124 0.959 . S
H3110 C3124 0.961 . S
H3111 C3125 0.960 . S
H3112 C3125 0.961 . S
H3113 C3125 0.959 . S
H3114 C3128 0.929 . S
H3115 C3129 0.931 . S
H3116 C3131 0.930 . S
C3117 H3105 0.930 . S
C3117 C3118 1.399 . S
C3117 C3122 1.399 . S
C3118 C3117 1.399 . S
C3118 C3119 1.376 . S
C3119 H3106 0.930 . S
C3119 C3118 1.376 . S
C3119 C3120 1.388 . S
C3120 H3107 0.930 . S
C3120 C3119 1.388 . S
C3120 C3121 1.390 . S
C3121 C3120 1.390 . S
C3121 C3122 1.394 . S
C3121 C3127 1.465 . S
C3122 C3117 1.399 . S
C3122 C3121 1.394 . S
C3122 C3123 1.516 . S
C3123 C3122 1.516 . S
C3123 C3124 1.502 . S
C3123 C3125 1.561 . S
C3123 C3126 1.526 . S
C3124 H3108 0.959 . S
C3124 H3109 0.959 . S
C3124 H3110 0.961 . S
C3124 C3123 1.502 . S
C3125 H3111 0.960 . S
C3125 H3112 0.961 . S
C3125 H3113 0.959 . S
C3125 C3123 1.561 . S
C3126 C3123 1.526 . S
C3126 C3127 1.396 . S
C3126 C3131 1.390 . S
C3127 C3121 1.465 . S
C3127 C3126 1.396 . S
C3127 C3128 1.399 . S
C3128 H3114 0.929 . S
C3128 C3127 1.399 . S
C3128 C3129 1.385 . S
C3129 H3115 0.931 . S
C3129 C3128 1.385 . S
C3129 C3130 1.389 . S
C3130 C3129 1.389 . S
C3130 C3131 1.387 . S
C3131 H3116 0.930 . S
C3131 C3126 1.390 . S
C3131 C3130 1.387 . S
H3132 C3144 0.930 . S
H3133 C3146 0.930 . S
H3134 C3147 0.930 . S
H3135 C3151 0.959 . S
H3136 C3151 0.959 . S
H3137 C3151 0.961 . S
H3138 C3152 0.960 . S
H3139 C3152 0.961 . S
H3140 C3152 0.959 . S
H3141 C3155 0.929 . S
H3142 C3156 0.931 . S
H3143 C3158 0.930 . S
C3144 H3132 0.930 . S
C3144 C3145 1.399 . S
C3144 C3149 1.399 . S
C3145 C3144 1.399 . S
C3145 C3146 1.376 . S
C3146 H3133 0.930 . S
C3146 C3145 1.376 . S
C3146 C3147 1.388 . S
C3147 H3134 0.930 . S
C3147 C3146 1.388 . S
C3147 C3148 1.390 . S
C3148 C3147 1.390 . S
C3148 C3149 1.394 . S
C3148 C3154 1.465 . S
C3149 C3144 1.399 . S
C3149 C3148 1.394 . S
C3149 C3150 1.516 . S
C3150 C3149 1.516 . S
C3150 C3151 1.502 . S
C3150 C3152 1.561 . S
C3150 C3153 1.526 . S
C3151 H3135 0.959 . S
C3151 H3136 0.959 . S
C3151 H3137 0.961 . S
C3151 C3150 1.502 . S
C3152 H3138 0.960 . S
C3152 H3139 0.961 . S
C3152 H3140 0.959 . S
C3152 C3150 1.561 . S
C3153 C3150 1.526 . S
C3153 C3154 1.396 . S
C3153 C3158 1.390 . S
C3154 C3148 1.465 . S
C3154 C3153 1.396 . S
C3154 C3155 1.399 . S
C3155 H3141 0.929 . S
C3155 C3154 1.399 . S
C3155 C3156 1.385 . S
C3156 H3142 0.931 . S
C3156 C3155 1.385 . S
C3156 C3157 1.389 . S
C3157 C3156 1.389 . S
C3157 C3158 1.387 . S
C3158 H3143 0.930 . S
C3158 C3153 1.390 . S
C3158 C3157 1.387 . S
H3159 C3171 0.930 . S
H3160 C3173 0.930 . S
H3161 C3174 0.930 . S
H3162 C3178 0.959 . S
H3163 C3178 0.959 . S
H3164 C3178 0.961 . S
H3165 C3179 0.960 . S
H3166 C3179 0.961 . S
H3167 C3179 0.959 . S
H3168 C3182 0.929 . S
H3169 C3183 0.931 . S
H3170 C3185 0.930 . S
C3171 H3159 0.930 . S
C3171 C3172 1.399 . S
C3171 C3176 1.399 . S
C3172 C3171 1.399 . S
C3172 C3173 1.376 . S
C3173 H3160 0.930 . S
C3173 C3172 1.376 . S
C3173 C3174 1.388 . S
C3174 H3161 0.930 . S
C3174 C3173 1.388 . S
C3174 C3175 1.390 . S
C3175 C3174 1.390 . S
C3175 C3176 1.394 . S
C3175 C3181 1.465 . S
C3176 C3171 1.399 . S
C3176 C3175 1.394 . S
C3176 C3177 1.516 . S
C3177 C3176 1.516 . S
C3177 C3178 1.502 . S
C3177 C3179 1.561 . S
C3177 C3180 1.526 . S
C3178 H3162 0.959 . S
C3178 H3163 0.959 . S
C3178 H3164 0.961 . S
C3178 C3177 1.502 . S
C3179 H3165 0.960 . S
C3179 H3166 0.961 . S
C3179 H3167 0.959 . S
C3179 C3177 1.561 . S
C3180 C3177 1.526 . S
C3180 C3181 1.396 . S
C3180 C3185 1.390 . S
C3181 C3175 1.465 . S
C3181 C3180 1.396 . S
C3181 C3182 1.399 . S
C3182 H3168 0.929 . S
C3182 C3181 1.399 . S
C3182 C3183 1.385 . S
C3183 H3169 0.931 . S
C3183 C3182 1.385 . S
C3183 C3184 1.389 . S
C3184 C3183 1.389 . S
C3184 C3185 1.387 . S
C3185 H3170 0.930 . S
C3185 C3180 1.390 . S
C3185 C3184 1.387 . S
H3186 C3198 0.930 . S
H3187 C3200 0.930 . S
H3188 C3201 0.930 . S
H3189 C3205 0.959 . S
H3190 C3205 0.959 . S
H3191 C3205 0.961 . S
H3192 C3206 0.960 . S
H3193 C3206 0.961 . S
H3194 C3206 0.959 . S
H3195 C3209 0.929 . S
H3196 C3210 0.931 . S
H3197 C3212 0.930 . S
C3198 H3186 0.930 . S
C3198 C3199 1.399 . S
C3198 C3203 1.399 . S
C3199 C3198 1.399 . S
C3199 C3200 1.376 . S
C3200 H3187 0.930 . S
C3200 C3199 1.376 . S
C3200 C3201 1.388 . S
C3201 H3188 0.930 . S
C3201 C3200 1.388 . S
C3201 C3202 1.390 . S
C3202 C3201 1.390 . S
C3202 C3203 1.394 . S
C3202 C3208 1.465 . S
C3203 C3198 1.399 . S
C3203 C3202 1.394 . S
C3203 C3204 1.516 . S
C3204 C3203 1.516 . S
C3204 C3205 1.502 . S
C3204 C3206 1.561 . S
C3204 C3207 1.526 . S
C3205 H3189 0.959 . S
C3205 H3190 0.959 . S
C3205 H3191 0.961 . S
C3205 C3204 1.502 . S
C3206 H3192 0.960 . S
C3206 H3193 0.961 . S
C3206 H3194 0.959 . S
C3206 C3204 1.561 . S
C3207 C3204 1.526 . S
C3207 C3208 1.396 . S
C3207 C3212 1.390 . S
C3208 C3202 1.465 . S
C3208 C3207 1.396 . S
C3208 C3209 1.399 . S
C3209 H3195 0.929 . S
C3209 C3208 1.399 . S
C3209 C3210 1.385 . S
C3210 H3196 0.931 . S
C3210 C3209 1.385 . S
C3210 C3211 1.389 . S
C3211 C3210 1.389 . S
C3211 C3212 1.387 . S
C3212 H3197 0.930 . S
C3212 C3207 1.390 . S
C3212 C3211 1.387 . S
H3213 C3225 0.930 . S
H3214 C3227 0.930 . S
H3215 C3228 0.930 . S
H3216 C3232 0.959 . S
H3217 C3232 0.959 . S
H3218 C3232 0.961 . S
H3219 C3233 0.960 . S
H3220 C3233 0.961 . S
H3221 C3233 0.959 . S
H3222 C3236 0.929 . S
H3223 C3237 0.931 . S
H3224 C3239 0.930 . S
C3225 H3213 0.930 . S
C3225 C3226 1.399 . S
C3225 C3230 1.399 . S
C3226 C3225 1.399 . S
C3226 C3227 1.376 . S
C3227 H3214 0.930 . S
C3227 C3226 1.376 . S
C3227 C3228 1.388 . S
C3228 H3215 0.930 . S
C3228 C3227 1.388 . S
C3228 C3229 1.390 . S
C3229 C3228 1.390 . S
C3229 C3230 1.394 . S
C3229 C3235 1.465 . S
C3230 C3225 1.399 . S
C3230 C3229 1.394 . S
C3230 C3231 1.516 . S
C3231 C3230 1.516 . S
C3231 C3232 1.502 . S
C3231 C3233 1.561 . S
C3231 C3234 1.526 . S
C3232 H3216 0.959 . S
C3232 H3217 0.959 . S
C3232 H3218 0.961 . S
C3232 C3231 1.502 . S
C3233 H3219 0.960 . S
C3233 H3220 0.961 . S
C3233 H3221 0.959 . S
C3233 C3231 1.561 . S
C3234 C3231 1.526 . S
C3234 C3235 1.396 . S
C3234 C3239 1.390 . S
C3235 C3229 1.465 . S
C3235 C3234 1.396 . S
C3235 C3236 1.399 . S
C3236 H3222 0.929 . S
C3236 C3235 1.399 . S
C3236 C3237 1.385 . S
C3237 H3223 0.931 . S
C3237 C3236 1.385 . S
C3237 C3238 1.389 . S
C3238 C3237 1.389 . S
C3238 C3239 1.387 . S
C3239 H3224 0.930 . S
C3239 C3234 1.390 . S
C3239 C3238 1.387 . S
H3240 C3252 0.930 . S
H3241 C3254 0.930 . S
H3242 C3255 0.930 . S
H3243 C3259 0.959 . S
H3244 C3259 0.959 . S
H3245 C3259 0.961 . S
H3246 C3260 0.960 . S
H3247 C3260 0.961 . S
H3248 C3260 0.959 . S
H3249 C3263 0.929 . S
H3250 C3264 0.931 . S
H3251 C3266 0.930 . S
C3252 H3240 0.930 . S
C3252 C3253 1.399 . S
C3252 C3257 1.399 . S
C3253 C3252 1.399 . S
C3253 C3254 1.376 . S
C3254 H3241 0.930 . S
C3254 C3253 1.376 . S
C3254 C3255 1.388 . S
C3255 H3242 0.930 . S
C3255 C3254 1.388 . S
C3255 C3256 1.390 . S
C3256 C3255 1.390 . S
C3256 C3257 1.394 . S
C3256 C3262 1.465 . S
C3257 C3252 1.399 . S
C3257 C3256 1.394 . S
C3257 C3258 1.516 . S
C3258 C3257 1.516 . S
C3258 C3259 1.502 . S
C3258 C3260 1.561 . S
C3258 C3261 1.526 . S
C3259 H3243 0.959 . S
C3259 H3244 0.959 . S
C3259 H3245 0.961 . S
C3259 C3258 1.502 . S
C3260 H3246 0.960 . S
C3260 H3247 0.961 . S
C3260 H3248 0.959 . S
C3260 C3258 1.561 . S
C3261 C3258 1.526 . S
C3261 C3262 1.396 . S
C3261 C3266 1.390 . S
C3262 C3256 1.465 . S
C3262 C3261 1.396 . S
C3262 C3263 1.399 . S
C3263 H3249 0.929 . S
C3263 C3262 1.399 . S
C3263 C3264 1.385 . S
C3264 H3250 0.931 . S
C3264 C3263 1.385 . S
C3264 C3265 1.389 . S
C3265 C3264 1.389 . S
C3265 C3266 1.387 . S
C3266 H3251 0.930 . S
C3266 C3261 1.390 . S
C3266 C3265 1.387 . S
H3267 C3279 0.930 . S
H3268 C3281 0.930 . S
H3269 C3282 0.930 . S
H3270 C3286 0.959 . S
H3271 C3286 0.959 . S
H3272 C3286 0.961 . S
H3273 C3287 0.960 . S
H3274 C3287 0.961 . S
H3275 C3287 0.959 . S
H3276 C3290 0.929 . S
H3277 C3291 0.931 . S
H3278 C3293 0.930 . S
C3279 H3267 0.930 . S
C3279 C3280 1.399 . S
C3279 C3284 1.399 . S
C3280 C3279 1.399 . S
C3280 C3281 1.376 . S
C3281 H3268 0.930 . S
C3281 C3280 1.376 . S
C3281 C3282 1.388 . S
C3282 H3269 0.930 . S
C3282 C3281 1.388 . S
C3282 C3283 1.390 . S
C3283 C3282 1.390 . S
C3283 C3284 1.394 . S
C3283 C3289 1.465 . S
C3284 C3279 1.399 . S
C3284 C3283 1.394 . S
C3284 C3285 1.516 . S
C3285 C3284 1.516 . S
C3285 C3286 1.502 . S
C3285 C3287 1.561 . S
C3285 C3288 1.526 . S
C3286 H3270 0.959 . S
C3286 H3271 0.959 . S
C3286 H3272 0.961 . S
C3286 C3285 1.502 . S
C3287 H3273 0.960 . S
C3287 H3274 0.961 . S
C3287 H3275 0.959 . S
C3287 C3285 1.561 . S
C3288 C3285 1.526 . S
C3288 C3289 1.396 . S
C3288 C3293 1.390 . S
C3289 C3283 1.465 . S
C3289 C3288 1.396 . S
C3289 C3290 1.399 . S
C3290 H3276 0.929 . S
C3290 C3289 1.399 . S
C3290 C3291 1.385 . S
C3291 H3277 0.931 . S
C3291 C3290 1.385 . S
C3291 C3292 1.389 . S
C3292 C3291 1.389 . S
C3292 C3293 1.387 . S
C3293 H3278 0.930 . S
C3293 C3288 1.390 . S
C3293 C3292 1.387 . S
C1849 C781 1.407 . S
C1861 C1136 1.364 . S
C1876 C871 1.432 . S
C1888 C1220 1.370 . S
C1903 C751 1.462 . S
C1915 C1314 1.429 . S
C1930 C691 1.432 . S
C1942 C1230 1.362 . S
C1969 C1304 1.335 . S
C1957 C571 1.370 . S
C1984 C601 1.411 . S
C1996 C1146 1.386 . S
C2023 C1147 1.332 . S
C2011 C661 1.357 . S
C2050 C1231 1.417 . S
C2038 C541 1.422 . S
C2065 C631 1.459 . S
C2077 C1323 1.463 . S
C2092 C811 1.432 . S
C2104 C1239 1.351 . S
C2119 C841 1.377 . S
C2131 C1315 1.307 . S
C2158 C1155 1.383 . S
C2146 C721 1.391 . S
C2185 C1388 1.315 . S
C2173 C61 1.395 . S
C2200 C151 1.441 . S
C2212 C1472 1.360 . S
C2227 C31 1.412 . S
C2239 C1566 1.423 . S
C2254 C1051 1.370 . S
C2266 C1482 1.393 . S
C2281 C931 1.373 . S
C2293 C1556 1.302 . S
C2308 C961 1.397 . S
C2320 C1398 1.403 . S
C2335 C1021 1.356 . S
C2347 C1399 1.319 . S
C2362 C901 1.426 . S
C2374 C1483 1.362 . S
C2401 C1575 1.460 . S
C2389 C991 1.467 . S
C2416 C91 1.438 . S
C2428 C1491 1.402 . S
C2455 C1567 1.316 . S
C2443 C121 1.336 . S
C2470 C1 1.336 . S
C2482 C1407 1.407 . S
C2509 C1640 1.404 . S
C2497 C421 1.446 . S
C2524 C511 1.435 . S
C2536 C1724 1.393 . S
C2563 C1818 1.412 . S
C2551 C391 1.420 . S
C2590 C1734 1.355 . S
C2578 C331 1.403 . S
C2617 C1808 1.328 . S
C2605 C211 1.376 . S
C2632 C241 1.412 . S
C2644 C1650 1.388 . S
C2659 C301 1.434 . S
C2671 C1651 1.392 . S
C2686 C181 1.386 . S
C2698 C1735 1.342 . S
C2725 C1827 1.445 . S
C2713 C271 1.451 . S
C2740 C451 1.428 . S
C2752 C1743 1.421 . S
C2767 C481 1.373 . S
C2779 C1819 1.365 . S
C2794 C361 1.327 . S
C2806 C1659 1.401 . S
C2821 C920 1.447 . S
C2833 C1143 1.376 . S
C2860 C1227 1.389 . S
C2848 C980 1.460 . S
C2875 C1040 1.423 . S
C2887 C1320 1.399 . S
C2902 C380 1.448 . S
C2914 C1236 1.418 . S
C2929 C440 1.422 . S
C2941 C1311 1.352 . S
C2968 C1152 1.322 . S
C2956 C500 1.406 . S
C2983 C200 1.403 . S
C2995 C1395 1.359 . S
C3010 C260 1.459 . S
C3022 C1479 1.387 . S
C3037 C320 1.468 . S
C3049 C1572 1.281 . S
C3064 C740 1.500 . S
C3076 C1488 1.305 . S
C3103 C1563 1.297 . S
C3091 C800 1.470 . S
C3118 C860 1.417 . S
C3130 C1404 1.296 . S
C3145 C560 1.407 . S
C3157 C1647 1.280 . S
C3172 C620 1.505 . S
C3184 C1731 1.347 . S
C3211 C1824 1.278 . S
C3199 C680 1.461 . S
C3226 C20 1.497 . S
C3238 C1740 1.297 . S
C3253 C80 1.473 . S
C3265 C1815 1.315 . S
C3280 C140 1.422 . S
C3292 C1656 1.290 . S
