# Generated by pormake.
# Topology rtl, (3,6)-cn, num edge types: 1
# Building blocks:
#     Node 0, Type 0, BuildingBlock: ESEHIV_clean_linker_0, # of connection points: 3
#     Node 1, Type 0, BuildingBlock: ESEHIV_clean_linker_0, # of connection points: 3
#     Node 2, Type 0, BuildingBlock: ESEHIV_clean_linker_0, # of connection points: 3
#     Node 3, Type 0, BuildingBlock: ESEHIV_clean_linker_0, # of connection points: 3
#     Node 4, Type 1, BuildingBlock: FUNLAD_clean_sbu_0, # of connection points: 6
#     Node 5, Type 1, BuildingBlock: FUNLAD_clean_sbu_0, # of connection points: 6
#     Edge 6, Type (0, 1), BuildingBlock: TEMPAE_clean_linker_10, # of connection points: 2
#     Edge 7, Type (0, 1), BuildingBlock: TEMPAE_clean_linker_10, # of connection points: 2
#     Edge 8, Type (0, 1), BuildingBlock: TEMPAE_clean_linker_10, # of connection points: 2
#     Edge 9, Type (0, 1), BuildingBlock: TEMPAE_clean_linker_10, # of connection points: 2
#     Edge 10, Type (0, 1), BuildingBlock: TEMPAE_clean_linker_10, # of connection points: 2
#     Edge 11, Type (0, 1), BuildingBlock: TEMPAE_clean_linker_10, # of connection points: 2
#     Edge 12, Type (0, 1), BuildingBlock: TEMPAE_clean_linker_10, # of connection points: 2
#     Edge 13, Type (0, 1), BuildingBlock: TEMPAE_clean_linker_10, # of connection points: 2
#     Edge 14, Type (0, 1), BuildingBlock: TEMPAE_clean_linker_10, # of connection points: 2
#     Edge 15, Type (0, 1), BuildingBlock: TEMPAE_clean_linker_10, # of connection points: 2
#     Edge 16, Type (0, 1), BuildingBlock: TEMPAE_clean_linker_10, # of connection points: 2
#     Edge 17, Type (0, 1), BuildingBlock: TEMPAE_clean_linker_10, # of connection points: 2
# Relax obj value: 0.025
# Max RMSD: 0.105
# Mean RMSD: 0.086
data_MOF--net-rtl--node1-FUNLAD_clean_sbu_0--node2-ESEHIV_clean_linker_0--edge1-TEMPAE_clean_linker_10
_symmetry_space_group_name_H-M    P1
_symmetry_Int_Tables_number       1
_symmetry_cell_setting            triclinic
loop_
_symmetry_equiv_pos_as_xyz
'x, y, z'
_cell_length_a     39.432681
_cell_length_b     31.718033
_cell_length_c     21.993355
_cell_angle_alpha  89.987476
_cell_angle_beta   90.999164
_cell_angle_gamma 90.458007
loop_
_atom_site_label
_atom_site_type_symbol
_atom_site_fract_x
_atom_site_fract_y
_atom_site_fract_z
_atom_type_partial_charge
H0 H 0.06897 0.81353 0.99446 0.0
H1 H 0.14264 0.74432 0.09897 0.0
H2 H 0.13624 0.72846 0.9049 0.0
C3 C 0.0889 0.79027 -0.00354 0.0
C4 C 0.10058 0.77227 0.94243 0.0
C5 C 0.10358 0.78013 0.05313 0.0
C6 C 0.1302 0.75099 0.05574 0.0
C7 C 0.14244 0.73278 0.00222 0.0
C8 C 0.12708 0.74297 0.946 0.0
H9 H 0.56392 0.69129 0.51692 0.0
H10 H 0.64062 0.75714 0.41969 0.0
H11 H 0.62314 0.78712 0.60796 0.0
C12 C 0.58324 0.7157 0.51607 0.0
C13 C 0.59223 0.73739 0.5697 0.0
C14 C 0.59982 0.72391 0.46148 0.0
C15 C 0.62631 0.75361 0.46093 0.0
C16 C 0.63549 0.77663 0.5136 0.0
C17 C 0.61736 0.76906 0.56733 0.0
H18 H 0.93295 0.18835 -0.00262 0.0
H19 H 0.85908 0.26082 0.0917 0.0
H20 H 0.86768 0.27274 0.89771 0.0
C21 C 0.91326 0.21195 -0.00357 0.0
C22 C 0.90241 0.22909 0.94057 0.0
C23 C 0.89812 0.22349 0.05117 0.0
C24 C 0.87187 0.2531 0.04996 0.0
C25 C 0.86044 0.27055 0.99458 0.0
C26 C 0.87621 0.2589 0.94028 0.0
H27 H 0.43953 0.30841 0.50847 0.0
H28 H 0.36904 0.22588 0.59756 0.0
H29 H 0.3685 0.23501 0.4024 0.0
C30 C 0.41955 0.28482 0.50627 0.0
C31 C 0.40609 0.27312 0.44923 0.0
C32 C 0.40645 0.26815 0.56026 0.0
C33 C 0.37981 0.23848 0.55634 0.0
C34 C 0.36577 0.22657 0.49959 0.0
C35 C 0.37947 0.24356 0.44624 0.0
C36 C 0.02148 0.94804 0.40937 0.0
N37 N 0.07455 0.04316 0.50182 0.0
C38 C 0.10177 0.01704 0.5031 0.0
C39 C 0.13466 0.0336 0.50351 0.0
C40 C 0.13956 0.07746 0.50299 0.0
C41 C 0.11103 0.10369 0.50183 0.0
C42 C 0.07858 0.08578 0.5011 0.0
Zn43 Zn 0.027 0.01744 0.50094 0.0
C44 C 0.98011 0.05956 0.41521 0.0
N45 N 0.92836 0.96012 0.49953 0.0
C46 C 0.92264 0.9211 0.47556 0.0
C47 C 0.90243 0.9826 0.5231 0.0
C48 C 0.86976 0.96553 0.52515 0.0
C49 C 0.86283 0.92553 0.49991 0.0
C50 C 0.89 0.90368 0.47397 0.0
Zn51 Zn 0.97655 0.98611 0.4999 0.0
O52 O 0.04227 0.97321 0.43539 0.0
C53 C 0.02281 0.94406 0.58594 0.0
O54 O 0.99062 0.94799 0.42501 0.0
H55 H 0.90681 0.01392 0.54085 0.0
H56 H 0.09799 0.98324 0.50387 0.0
H57 H 0.94329 0.90324 0.45722 0.0
O58 O 0.0414 0.97537 0.57172 0.0
O59 O 0.99392 0.93914 0.56034 0.0
H60 H 0.05659 0.10594 0.49984 0.0
O61 O 0.96454 0.02504 0.57544 0.0
O62 O 0.01157 0.06167 0.56601 0.0
O63 O 0.9597 0.03339 0.43908 0.0
O64 O 0.01132 0.05895 0.43073 0.0
C65 C 0.98341 0.05579 0.59178 0.0
H66 H 0.15601 0.01233 0.50499 0.0
H67 H 0.11376 0.13769 0.50067 0.0
H68 H 0.85044 0.98375 0.54714 0.0
H69 H 0.88645 0.87341 0.45212 0.0
C70 C 0.4795 0.44704 0.91459 0.0
N71 N 0.57404 0.46084 0.00154 0.0
C72 C 0.57702 0.41816 0.0008 0.0
C73 C 0.60897 0.3996 0.00042 0.0
C74 C 0.63826 0.42515 0.00117 0.0
C75 C 0.63441 0.46916 0.00162 0.0
C76 C 0.60193 0.48641 0.00171 0.0
Zn77 Zn 0.52679 0.48671 0.00383 0.0
C78 C 0.52005 0.55967 0.91902 0.0
N79 N 0.42849 0.54152 0.00879 0.0
C80 C 0.40062 0.51593 0.00799 0.0
C81 C 0.4255 0.58415 0.01217 0.0
C82 C 0.39356 0.6026 0.01472 0.0
C83 C 0.36429 0.577 0.01423 0.0
C84 C 0.36816 0.53306 0.01082 0.0
Zn85 Zn 0.47577 0.51573 0.00581 0.0
O86 O 0.50899 0.44338 0.93794 0.0
C87 C 0.48229 0.44282 0.09048 0.0
O88 O 0.46013 0.47621 0.93244 0.0
H89 H 0.44797 0.60393 0.01279 0.0
H90 H 0.55454 0.3984 0.00065 0.0
H91 H 0.40356 0.48211 0.00539 0.0
O92 O 0.51284 0.44407 0.0731 0.0
O93 O 0.46106 0.46882 0.06837 0.0
H94 H 0.59899 0.52028 0.00239 0.0
O95 O 0.49223 0.55471 0.07887 0.0
O96 O 0.54377 0.53009 0.07055 0.0
O97 O 0.49125 0.56228 0.94357 0.0
O98 O 0.53993 0.52989 0.93401 0.0
C99 C 0.5232 0.55487 0.09592 0.0
H100 H 0.61067 0.36555 -0.00095 0.0
H101 H 0.65626 0.49007 0.00287 0.0
H102 H 0.39183 0.63664 0.01625 0.0
H103 H 0.34637 0.51206 0.01101 0.0
C104 C 0.30773 0.21103 0.4573 0.0
C105 C 0.33465 0.19988 0.4965 0.0
C106 C 0.27704 0.18848 0.45708 0.0
C107 C 0.27299 0.15418 0.49751 0.0
C108 C 0.30029 0.14202 0.53614 0.0
C109 C 0.33086 0.16499 0.53509 0.0
C110 C 0.24854 0.20232 0.41504 0.0
C111 C 0.29686 0.10557 0.57981 0.0
C112 C 0.18239 0.13 0.54146 0.0
C113 C 0.17425 0.09582 0.5034 0.0
C114 C 0.21476 0.14856 0.54109 0.0
C115 C 0.23951 0.13267 0.50145 0.0
C116 C 0.23166 0.09771 0.46366 0.0
C117 C 0.19909 0.07961 0.46519 0.0
C118 C 0.22229 0.18563 0.5824 0.0
C119 C 0.25734 0.08014 0.42051 0.0
H120 H 0.31018 0.23839 0.42813 0.0
H121 H 0.35169 0.15595 0.565 0.0
H122 H 0.23893 0.17522 0.38771 0.0
H123 H 0.2271 0.21398 0.4422 0.0
H124 H 0.25655 0.22776 0.38355 0.0
H125 H 0.32105 0.09868 0.60435 0.0
H126 H 0.27726 0.11283 0.61376 0.0
H127 H 0.28834 0.07679 0.55509 0.0
H128 H 0.16339 0.14219 0.57171 0.0
H129 H 0.19279 0.05342 0.43532 0.0
H130 H 0.22805 0.21397 0.55473 0.0
H131 H 0.24501 0.17916 0.61125 0.0
H132 H 0.20074 0.19295 0.6124 0.0
H133 H 0.26383 0.1043 0.38604 0.0
H134 H 0.24783 0.05144 0.39657 0.0
H135 H 0.28112 0.07224 0.44554 0.0
C136 C 0.177 0.67416 0.04772 0.0
C137 C 0.17325 0.70622 0.00428 0.0
C138 C 0.20681 0.65023 0.05125 0.0
C139 C 0.23355 0.65901 0.01084 0.0
C140 C 0.22973 0.69113 0.96663 0.0
C141 C 0.19962 0.71424 0.9638 0.0
C142 C 0.20986 0.61591 0.09853 0.0
C143 C 0.25777 0.70175 0.92312 0.0
C144 C 0.32434 0.63142 0.05339 0.0
C145 C 0.33002 0.59619 0.01645 0.0
C146 C 0.29276 0.65147 0.05324 0.0
C147 C 0.26606 0.63569 0.01567 0.0
C148 C 0.2712 0.59931 0.97986 0.0
C149 C 0.30316 0.58011 0.98045 0.0
C150 C 0.28828 0.69028 0.09199 0.0
C151 C 0.24327 0.58144 0.93948 0.0
H152 H 0.15657 0.66776 0.07883 0.0
H153 H 0.19705 0.73947 0.93081 0.0
H154 H 0.21584 0.58548 0.07643 0.0
H155 H 0.23107 0.62336 0.13064 0.0
H156 H 0.18627 0.61191 0.12486 0.0
H157 H 0.25045 0.727 0.89055 0.0
H158 H 0.28072 0.71228 0.949 0.0
H159 H 0.26479 0.67333 0.89695 0.0
H160 H 0.3447 0.64356 0.08229 0.0
H161 H 0.30736 0.55318 0.95129 0.0
H162 H 0.26618 0.68615 0.12199 0.0
H163 H 0.28304 0.71789 0.06239 0.0
H164 H 0.31107 0.6974 0.1207 0.0
H165 H 0.21987 0.57647 0.96593 0.0
H166 H 0.25044 0.55103 0.91841 0.0
H167 H 0.2371 0.6042 0.90268 0.0
C168 C 0.67608 0.82515 0.45925 0.0
C169 C 0.66569 0.80564 0.51338 0.0
C170 C 0.70716 0.84681 0.45616 0.0
C171 C 0.72743 0.85165 0.50941 0.0
C172 C 0.71588 0.83537 0.56526 0.0
C173 C 0.68577 0.81156 0.56628 0.0
C174 C 0.71916 0.86233 0.39519 0.0
C175 C 0.73594 0.8417 0.62374 0.0
C176 C 0.82298 0.86271 0.49972 0.0
C177 C 0.82781 0.9067 0.50124 0.0
C178 C 0.79042 0.84464 0.50005 0.0
C179 C 0.76183 0.87086 0.50594 0.0
C180 C 0.76626 0.91506 0.50921 0.0
C181 C 0.79897 0.93246 0.50484 0.0
C182 C 0.78669 0.79734 0.4942 0.0
C183 C 0.73651 0.94396 0.51842 0.0
H184 H 0.66048 0.82257 0.41843 0.0
H185 H 0.67885 0.79648 0.60846 0.0
H186 H 0.72511 0.8965 0.39711 0.0
H187 H 0.7429 0.8459 0.38331 0.0
H188 H 0.70008 0.85675 0.35824 0.0
H189 H 0.7208 0.83364 0.66433 0.0
H190 H 0.75871 0.82142 0.62378 0.0
H191 H 0.74479 0.8749 0.62787 0.0
H192 H 0.84455 0.84189 0.49885 0.0
H193 H 0.80162 0.96642 0.50431 0.0
H194 H 0.76776 0.78936 0.45798 0.0
H195 H 0.77734 0.78387 0.53735 0.0
H196 H 0.81104 0.78191 0.48331 0.0
H197 H 0.71884 0.94215 0.47875 0.0
H198 H 0.74454 0.97736 0.5247 0.0
H199 H 0.72215 0.93385 0.55893 0.0
C200 C 0.804 0.29017 0.95009 0.0
C201 C 0.83007 0.2979 0.99293 0.0
C202 C 0.77386 0.31328 0.95071 0.0
C203 C 0.7697 0.345 0.99516 0.0
C204 C 0.7963 0.35383 0.03745 0.0
C205 C 0.82616 0.33002 0.03599 0.0
C206 C 0.74599 0.30271 0.90511 0.0
C207 C 0.7929 0.3877 0.08511 0.0
C208 C 0.69858 0.42305 0.9664 0.0
C209 C 0.67252 0.40587 0.00158 0.0
C210 C 0.73067 0.40421 0.96502 0.0
C211 C 0.73674 0.36717 -0.00072 0.0
C212 C 0.71075 0.3501 0.03567 0.0
C213 C 0.67903 0.36974 0.03656 0.0
C214 C 0.75783 0.42339 0.92588 0.0
C215 C 0.71624 0.31061 0.07284 0.0
H216 H 0.80667 0.26496 0.91729 0.0
H217 H 0.84638 0.3363 0.06884 0.0
H218 H 0.72344 0.29054 0.92921 0.0
H219 H 0.73807 0.33147 0.88011 0.0
H220 H 0.75389 0.27865 0.87162 0.0
H221 H 0.8167 0.3925 0.11207 0.0
H222 H 0.78579 0.41802 0.06338 0.0
H223 H 0.77232 0.37906 0.11664 0.0
H224 H 0.69369 0.4507 0.93877 0.0
H225 H 0.65927 0.35674 0.0648 0.0
H226 H 0.76428 0.40115 0.889 0.0
H227 H 0.78131 0.42903 0.95331 0.0
H228 H 0.74976 0.45368 0.90501 0.0
H229 H 0.72212 0.28388 0.04235 0.0
H230 H 0.69369 0.30199 0.09991 0.0
H231 H 0.73828 0.31492 0.10432 0.0
C232 C 0.08601 0.84579 0.10661 0.0
C233 C 0.09234 0.80233 0.10868 0.0
C234 C 0.07411 0.86729 0.15745 0.0
C235 C 0.06891 0.84499 0.21224 0.0
C236 C 0.07586 0.80128 0.21522 0.0
C237 C 0.08744 0.7804 0.16326 0.0
C238 C 0.06705 0.91393 0.15242 0.0
C239 C 0.07093 0.77663 0.27315 0.0
C240 C 0.06825 0.91416 0.35259 0.0
C241 C 0.03337 0.91936 0.36135 0.0
C242 C 0.08017 0.88851 0.30581 0.0
C243 C 0.05664 0.86795 0.26637 0.0
C244 C 0.02139 0.87216 0.2759 0.0
C245 C 0.01016 0.89767 0.32356 0.0
C246 C 0.11795 0.88444 0.29752 0.0
C247 C 0.99556 0.851 0.23438 0.0
H248 H 0.09053 0.86319 0.06507 0.0
H249 H 0.09215 0.7468 0.16505 0.0
H250 H 0.04029 0.92022 0.16408 0.0
H251 H 0.08335 0.93166 0.1853 0.0
H252 H 0.07169 0.92638 0.10606 0.0
H253 H 0.07802 0.74299 0.26825 0.0
H254 H 0.08647 0.79078 0.31054 0.0
H255 H 0.04403 0.7782 0.28686 0.0
H256 H 0.08637 0.93045 0.38207 0.0
H257 H 0.98318 0.90147 0.33021 0.0
H258 H 0.12527 0.89941 0.25403 0.0
H259 H 0.12504 0.85072 0.29496 0.0
H260 H 0.13281 0.89956 0.33506 0.0
H261 H 0.99737 0.86442 0.18793 0.0
H262 H 0.96921 0.85512 0.25032 0.0
H263 H 0.00081 0.81679 0.23094 0.0
C264 C 0.54489 0.7069 0.6315 0.0
C265 C 0.57807 0.72318 0.62879 0.0
C266 C 0.53398 0.68431 0.68244 0.0
C267 C 0.55627 0.67941 0.73299 0.0
C268 C 0.58842 0.69953 0.73322 0.0
C269 C 0.59917 0.7206 0.68079 0.0
C270 C 0.49964 0.66288 0.68002 0.0
C271 C 0.61243 0.69638 0.78722 0.0
C272 C 0.51921 0.63255 0.87655 0.0
C273 C 0.53004 0.59067 0.87271 0.0
C274 C 0.52834 0.66227 0.83232 0.0
C275 C 0.54763 0.64924 0.78212 0.0
C276 C 0.55838 0.60682 0.77797 0.0
C277 C 0.54994 0.57821 0.82396 0.0
C278 C 0.51753 0.70754 0.83941 0.0
C279 C 0.57825 0.59142 0.72434 0.0
H280 H 0.52794 0.70991 0.59247 0.0
H281 H 0.62489 0.73278 0.67958 0.0
H282 H 0.50308 0.62822 0.67759 0.0
H283 H 0.48532 0.66954 0.72182 0.0
H284 H 0.48416 0.67293 0.63996 0.0
H285 H 0.63352 0.71973 0.78467 0.0
H286 H 0.59876 0.70133 0.83027 0.0
H287 H 0.62352 0.66436 0.78894 0.0
H288 H 0.50405 0.6422 0.91471 0.0
H289 H 0.55808 0.54571 0.82087 0.0
H290 H 0.50061 0.71671 0.80093 0.0
H291 H 0.54006 0.72869 0.83831 0.0
H292 H 0.50399 0.7129 0.88257 0.0
H293 H 0.56392 0.59768 0.68144 0.0
H294 H 0.58364 0.55714 0.72705 0.0
H295 H 0.60271 0.60879 0.72182 0.0
C296 C 0.91452 0.15883 0.1093 0.0
C297 C 0.90857 0.20239 0.10876 0.0
C298 C 0.92595 0.1384 0.16211 0.0
C299 C 0.93103 0.16191 0.21619 0.0
C300 C 0.92425 0.20569 0.21659 0.0
C301 C 0.91318 0.22549 0.1627 0.0
C302 C 0.93288 0.09164 0.15979 0.0
C303 C 0.92903 0.2316 0.27369 0.0
C304 C 0.93271 0.09457 0.3584 0.0
C305 C 0.96767 0.08925 0.36819 0.0
C306 C 0.92041 0.12004 0.31095 0.0
C307 C 0.94362 0.14024 0.27194 0.0
C308 C 0.97893 0.13629 0.28297 0.0
C309 C 0.99055 0.111 0.33125 0.0
C310 C 0.88256 0.12393 0.30108 0.0
C311 C 0.00446 0.15707 0.24201 0.0
H312 H 0.91019 0.14056 0.06821 0.0
H313 H 0.90873 0.25917 0.16249 0.0
H314 H 0.9597 0.0856 0.17295 0.0
H315 H 0.91675 0.07474 0.19282 0.0
H316 H 0.92797 0.07808 0.11387 0.0
H317 H 0.92143 0.26495 0.267 0.0
H318 H 0.91389 0.21786 0.31097 0.0
H319 H 0.95602 0.23095 0.28871 0.0
H320 H 0.91487 0.07822 0.38722 0.0
H321 H 0.0176 0.1071 0.33866 0.0
H322 H 0.87486 0.1076 0.25837 0.0
H323 H 0.87544 0.15754 0.29604 0.0
H324 H 0.86803 0.10999 0.33907 0.0
H325 H 0.00273 0.14261 0.1961 0.0
H326 H 0.03088 0.15377 0.25963 0.0
H327 H 0.99882 0.19109 0.2367 0.0
C328 C 0.45225 0.29855 0.62834 0.0
C329 C 0.41836 0.28548 0.62001 0.0
C330 C 0.46245 0.32219 0.67937 0.0
C331 C 0.43857 0.33133 0.72467 0.0
C332 C 0.40513 0.31513 0.71932 0.0
C333 C 0.39523 0.29308 0.66656 0.0
C334 C 0.49821 0.33958 0.68283 0.0
C335 C 0.37931 0.32285 0.76789 0.0
C336 C 0.47469 0.37428 0.87343 0.0
C337 C 0.46795 0.41736 0.86727 0.0
C338 C 0.46415 0.34554 0.82834 0.0
C339 C 0.44786 0.3607 0.77491 0.0
C340 C 0.44123 0.40435 0.76848 0.0
C341 C 0.45076 0.4321 0.81547 0.0
C342 C 0.47035 0.29907 0.83788 0.0
C343 C 0.42487 0.42189 0.71135 0.0
H344 H 0.47063 0.29175 0.59371 0.0
H345 H 0.36892 0.28362 0.66083 0.0
H346 H 0.49754 0.37454 0.68096 0.0
H347 H 0.51062 0.3308 0.72659 0.0
H348 H 0.51406 0.32811 0.64508 0.0
H349 H 0.35635 0.30267 0.7616 0.0
H350 H 0.39047 0.31677 0.8137 0.0
H351 H 0.37138 0.35631 0.76656 0.0
H352 H 0.48774 0.36303 0.91403 0.0
H353 H 0.44583 0.46555 0.81086 0.0
H354 H 0.4881 0.28728 0.80335 0.0
H355 H 0.44624 0.28113 0.83195 0.0
H356 H 0.48117 0.29224 0.88378 0.0
H357 H 0.44015 0.41343 0.67129 0.0
H358 H 0.4224 0.45674 0.71294 0.0
H359 H 0.39928 0.40781 0.70435 0.0
C360 C 0.58343 0.65674 0.40829 0.0
C361 C 0.59021 0.70017 0.4055 0.0
C362 C 0.5729 0.63427 0.3564 0.0
C363 C 0.56948 0.65563 0.30016 0.0
C364 C 0.57696 0.69926 0.29666 0.0
C365 C 0.58714 0.72108 0.34949 0.0
C366 C 0.56512 0.58772 0.36189 0.0
C367 C 0.57384 0.72297 0.23731 0.0
C368 C 0.56988 0.58673 0.15938 0.0
C369 C 0.5351 0.58268 0.14593 0.0
C370 C 0.5815 0.61141 0.20847 0.0
C371 C 0.55775 0.63216 0.24525 0.0
C372 C 0.52265 0.62887 0.23123 0.0
C373 C 0.51174 0.60431 0.1815 0.0
C374 C 0.61915 0.61457 0.2217 0.0
C375 C 0.49658 0.65035 0.26975 0.0
H376 H 0.58643 0.64021 0.45116 0.0
H377 H 0.5921 0.7547 0.34718 0.0
H378 H 0.53844 0.58136 0.34761 0.0
H379 H 0.58155 0.56953 0.33117 0.0
H380 H 0.56897 0.57587 0.40903 0.0
H381 H 0.58172 0.75654 0.24189 0.0
H382 H 0.58967 0.70786 0.20238 0.0
H383 H 0.54719 0.72172 0.22036 0.0
H384 H 0.58809 0.57034 0.1318 0.0
H385 H 0.48483 0.6013 0.17137 0.0
H386 H 0.62507 0.60017 0.26658 0.0
H387 H 0.62719 0.64814 0.22415 0.0
H388 H 0.63435 0.59849 0.18667 0.0
H389 H 0.4977 0.63747 0.31666 0.0
H390 H 0.47037 0.64602 0.25131 0.0
H391 H 0.50219 0.68461 0.27293 0.0
C392 C 0.89521 0.20572 0.83181 0.0
C393 C 0.91648 0.21261 0.88281 0.0
C394 C 0.90695 0.18453 0.78038 0.0
C395 C 0.94038 0.16863 0.7807 0.0
C396 C 0.96247 0.17716 0.83061 0.0
C397 C 0.95046 0.1998 0.88044 0.0
C398 C 0.883 0.17732 0.72701 0.0
C399 C 0.99813 0.16012 0.83317 0.0
C400 C 0.95409 0.0692 0.68895 0.0
C401 C 0.9725 0.08467 0.63982 0.0
C402 C 0.94391 0.09621 0.73553 0.0
C403 C 0.95125 0.13992 0.73151 0.0
C404 C 0.96921 0.15582 0.68116 0.0
C405 C 0.9802 0.12779 0.63636 0.0
C406 C 0.92569 0.07786 0.78941 0.0
C407 C 0.97638 0.20238 0.67423 0.0
H408 H 0.86887 0.21505 0.83292 0.0
H409 H 0.96747 0.20608 0.91864 0.0
H410 H 0.89584 0.18436 0.68363 0.0
H411 H 0.875 0.14372 0.72567 0.0
H412 H 0.85993 0.19705 0.72982 0.0
H413 H 0.0127 0.17158 0.87366 0.0
H414 H 0.99714 0.12515 0.83466 0.0
H415 H 0.01206 0.16916 0.79175 0.0
H416 H 0.94834 0.03577 0.69162 0.0
H417 H 0.99415 0.13972 0.59785 0.0
H418 H 0.89996 0.0915 0.7923 0.0
H419 H 0.93959 0.08614 0.83213 0.0
H420 H 0.92318 0.043 0.78669 0.0
H421 H 0.95224 0.22013 0.67478 0.0
H422 H 0.98968 0.20975 0.63134 0.0
H423 H 0.99219 0.21392 0.71304 0.0
C424 C 0.42424 0.3382 0.39417 0.0
C425 C 0.41807 0.29457 0.39343 0.0
C426 C 0.43553 0.35933 0.3424 0.0
C427 C 0.44013 0.33647 0.288 0.0
C428 C 0.43369 0.29251 0.28652 0.0
C429 C 0.42286 0.27199 0.33945 0.0
C430 C 0.44225 0.40625 0.34586 0.0
C431 C 0.43802 0.2673 0.22901 0.0
C432 C 0.43704 0.40532 0.14759 0.0
C433 C 0.47161 0.41232 0.13725 0.0
C434 C 0.42641 0.37875 0.19459 0.0
C435 C 0.45098 0.35924 0.23262 0.0
C436 C 0.48592 0.36495 0.22105 0.0
C437 C 0.49583 0.39127 0.17316 0.0
C438 C 0.38891 0.37294 0.20504 0.0
C439 C 0.51283 0.34499 0.26107 0.0
H440 H 0.41978 0.35611 0.43518 0.0
H441 H 0.41832 0.23825 0.33868 0.0
H442 H 0.46857 0.41338 0.33179 0.0
H443 H 0.42491 0.42306 0.31404 0.0
H444 H 0.43871 0.41901 0.39234 0.0
H445 H 0.43206 0.23332 0.23548 0.0
H446 H 0.4212 0.27987 0.19244 0.0
H447 H 0.46447 0.27038 0.2131 0.0
H448 H 0.41819 0.42112 0.11947 0.0
H449 H 0.5226 0.39651 0.16527 0.0
H450 H 0.38202 0.38829 0.24838 0.0
H451 H 0.38251 0.33894 0.20915 0.0
H452 H 0.37317 0.38672 0.16777 0.0
H453 H 0.51217 0.35913 0.30718 0.0
H454 H 0.5387 0.34949 0.24282 0.0
H455 H 0.50781 0.31072 0.26612 0.0
C456 C 0.05322 0.80003 0.87613 0.0
C457 C 0.08719 0.78751 0.88258 0.0
C458 C 0.04187 0.82191 0.82437 0.0
C459 C 0.06464 0.8299 0.77665 0.0
C460 C 0.09802 0.814 0.78029 0.0
C461 C 0.1091 0.79365 0.8336 0.0
C462 C 0.00621 0.839 0.82274 0.0
C463 C 0.1227 0.8206 0.72936 0.0
C464 C 0.02656 0.87139 0.62867 0.0
C465 C 0.03424 0.91447 0.63336 0.0
C466 C 0.0372 0.84308 0.6741 0.0
C467 C 0.05468 0.85869 0.72628 0.0
C468 C 0.06218 0.90232 0.73128 0.0
C469 C 0.05241 0.92958 0.68413 0.0
C470 C 0.02993 0.79658 0.66619 0.0
C471 C 0.07991 0.92039 0.787 0.0
H472 H 0.03572 0.79428 0.91271 0.0
H473 H 0.13544 0.78452 0.83779 0.0
H474 H 0.00723 0.87397 0.82435 0.0
H475 H 0.99296 0.83 0.77976 0.0
H476 H 0.99098 0.82756 0.86152 0.0
H477 H 0.14545 0.80039 0.73466 0.0
H478 H 0.11033 0.81373 0.6847 0.0
H479 H 0.13119 0.85402 0.72874 0.0
H480 H 0.01273 0.85977 0.58897 0.0
H481 H 0.05806 0.96301 0.68782 0.0
H482 H 0.01306 0.78526 0.70266 0.0
H483 H 0.05387 0.77855 0.67025 0.0
H484 H 0.01768 0.78936 0.62149 0.0
H485 H 0.06538 0.91234 0.82825 0.0
H486 H 0.0828 0.95522 0.78455 0.0
H487 H 0.10544 0.90637 0.79256 0.0
loop_
_geom_bond_atom_site_label_1
_geom_bond_atom_site_label_2
_geom_bond_distance
_geom_bond_site_symmetry_2
_ccdc_geom_bond_type
H0 C3 0.931 . S
H1 C6 0.928 . S
H2 C8 0.930 . S
C3 H0 0.931 . S
C3 C4 1.413 1_554 S
C3 C5 1.360 . S
C4 C3 1.413 1_556 S
C4 C8 1.429 . S
C5 C3 1.360 . S
C5 C6 1.372 . S
C6 H1 0.928 . S
C6 C5 1.372 . S
C6 C7 1.404 . S
C7 C6 1.404 . S
C7 C8 1.391 1_554 S
C8 H2 0.930 . S
C8 C4 1.429 . S
C8 C7 1.391 1_556 S
H9 C12 0.931 . S
H10 C15 0.928 . S
H11 C17 0.930 . S
C12 H9 0.931 . S
C12 C13 1.413 . S
C12 C14 1.360 . S
C13 C12 1.413 . S
C13 C17 1.429 . S
C14 C12 1.360 . S
C14 C15 1.372 . S
C15 H10 0.928 . S
C15 C14 1.372 . S
C15 C16 1.404 . S
C16 C15 1.404 . S
C16 C17 1.391 . S
C17 H11 0.930 . S
C17 C13 1.429 . S
C17 C16 1.391 . S
H18 C21 0.931 . S
H19 C24 0.928 . S
H20 C26 0.930 . S
C21 H18 0.931 . S
C21 C22 1.413 1_554 S
C21 C23 1.360 . S
C22 C21 1.413 1_556 S
C22 C26 1.429 . S
C23 C21 1.360 . S
C23 C24 1.372 . S
C24 H19 0.928 . S
C24 C23 1.372 . S
C24 C25 1.404 . S
C25 C24 1.404 . S
C25 C26 1.391 1_554 S
C26 H20 0.930 . S
C26 C22 1.429 . S
C26 C25 1.391 1_556 S
H27 C30 0.931 . S
H28 C33 0.928 . S
H29 C35 0.930 . S
C30 H27 0.931 . S
C30 C31 1.413 . S
C30 C32 1.360 . S
C31 C30 1.413 . S
C31 C35 1.429 . S
C32 C30 1.360 . S
C32 C33 1.372 . S
C33 H28 0.928 . S
C33 C32 1.372 . S
C33 C34 1.404 . S
C34 C33 1.404 . S
C34 C35 1.391 . S
C35 H29 0.930 . S
C35 C31 1.429 . S
C35 C34 1.391 . S
C36 O52 1.251 . S
C36 O54 1.254 1_455 S
N37 C38 1.333 . S
N37 C42 1.307 . S
N37 Zn43 2.020 . S
C38 N37 1.333 . S
C38 C39 1.379 . S
C38 H56 0.952 . S
C39 C38 1.379 . S
C39 C40 1.390 . S
C39 H66 0.949 . S
C40 C39 1.390 . S
C40 C41 1.357 . S
C41 C40 1.357 . S
C41 C42 1.370 . S
C41 H67 0.950 . S
C42 N37 1.307 . S
C42 C41 1.370 . S
C42 H60 0.948 . S
Zn43 N37 2.020 . S
Zn43 O52 2.039 1_545 S
Zn43 O58 2.034 1_545 S
Zn43 O62 2.025 . S
Zn43 O64 2.024 . S
C44 O63 1.246 . S
C44 O64 1.249 1_655 S
N45 C46 1.307 . S
N45 C47 1.333 . S
N45 Zn51 2.020 . S
C46 N45 1.307 . S
C46 C50 1.370 . S
C46 H57 0.948 . S
C47 N45 1.333 . S
C47 C48 1.379 . S
C47 H55 0.952 . S
C48 C47 1.379 . S
C48 C49 1.390 . S
C48 H68 0.949 . S
C49 C48 1.390 . S
C49 C50 1.357 . S
C50 C46 1.370 . S
C50 C49 1.357 . S
C50 H69 0.950 . S
Zn51 N45 2.020 . S
Zn51 O54 2.025 . S
Zn51 O59 2.024 . S
Zn51 O61 2.039 1_565 S
Zn51 O63 2.034 1_565 S
O52 C36 1.251 . S
O52 Zn43 2.039 1_565 S
C53 O58 1.246 . S
C53 O59 1.249 1_455 S
O54 C36 1.254 1_655 S
O54 Zn51 2.025 . S
H55 C47 0.952 . S
H56 C38 0.952 . S
H57 C46 0.948 . S
O58 Zn43 2.034 1_565 S
O58 C53 1.246 . S
O59 Zn51 2.024 . S
O59 C53 1.249 1_655 S
H60 C42 0.948 . S
O61 Zn51 2.039 1_545 S
O61 C65 1.251 . S
O62 Zn43 2.025 . S
O62 C65 1.254 1_455 S
O63 C44 1.246 . S
O63 Zn51 2.034 1_545 S
O64 Zn43 2.024 . S
O64 C44 1.249 1_455 S
C65 O61 1.251 . S
C65 O62 1.254 1_655 S
H66 C39 0.949 . S
H67 C41 0.950 . S
H68 C48 0.949 . S
H69 C50 0.950 . S
C70 O86 1.251 . S
C70 O88 1.254 . S
N71 C72 1.333 1_554 S
N71 C76 1.307 . S
N71 Zn77 2.020 . S
C72 N71 1.333 1_556 S
C72 C73 1.379 . S
C72 H90 0.952 . S
C73 C72 1.379 . S
C73 C74 1.390 1_556 S
C73 H100 0.949 . S
C74 C73 1.390 1_554 S
C74 C75 1.357 . S
C75 C74 1.357 . S
C75 C76 1.370 . S
C75 H101 0.950 . S
C76 N71 1.307 . S
C76 C75 1.370 . S
C76 H94 0.948 . S
Zn77 N71 2.020 . S
Zn77 O86 2.039 1_554 S
Zn77 O92 2.034 . S
Zn77 O96 2.025 . S
Zn77 O98 2.024 1_554 S
C78 O97 1.246 . S
C78 O98 1.249 . S
N79 C80 1.307 1_554 S
N79 C81 1.333 . S
N79 Zn85 2.020 . S
C80 N79 1.307 1_556 S
C80 C84 1.370 . S
C80 H91 0.948 . S
C81 N79 1.333 . S
C81 C82 1.379 . S
C81 H89 0.952 . S
C82 C81 1.379 . S
C82 C83 1.390 . S
C82 H102 0.949 . S
C83 C82 1.390 . S
C83 C84 1.357 1_554 S
C84 C80 1.370 . S
C84 C83 1.357 1_556 S
C84 H103 0.950 . S
Zn85 N79 2.020 . S
Zn85 O88 2.025 1_554 S
Zn85 O93 2.024 . S
Zn85 O95 2.039 . S
Zn85 O97 2.034 1_554 S
O86 C70 1.251 . S
O86 Zn77 2.039 1_556 S
C87 O92 1.246 . S
C87 O93 1.249 . S
O88 C70 1.254 . S
O88 Zn85 2.025 1_556 S
H89 C81 0.952 . S
H90 C72 0.952 . S
H91 C80 0.948 . S
O92 Zn77 2.034 . S
O92 C87 1.246 . S
O93 Zn85 2.024 . S
O93 C87 1.249 . S
H94 C76 0.948 . S
O95 Zn85 2.039 . S
O95 C99 1.251 . S
O96 Zn77 2.025 . S
O96 C99 1.254 . S
O97 C78 1.246 . S
O97 Zn85 2.034 1_556 S
O98 Zn77 2.024 1_556 S
O98 C78 1.249 . S
C99 O95 1.251 . S
C99 O96 1.254 . S
H100 C73 0.949 . S
H101 C75 0.950 . S
H102 C82 0.949 . S
H103 C84 0.950 . S
C104 C105 1.391 . S
C104 C106 1.394 . S
C104 H120 0.931 . S
C105 C104 1.391 . S
C105 C109 1.376 . S
C106 C104 1.394 . S
C106 C107 1.369 . S
C106 C110 1.531 . S
C107 C106 1.369 . S
C107 C108 1.410 . S
C107 C115 1.503 . S
C108 C107 1.410 . S
C108 C109 1.392 . S
C108 C111 1.511 . S
C109 C105 1.376 . S
C109 C108 1.392 . S
C109 H121 0.929 . S
C110 C106 1.531 . S
C110 H122 0.960 . S
C110 H123 0.962 . S
C110 H124 0.960 . S
C111 C108 1.511 . S
C111 H125 0.961 . S
C111 H126 0.961 . S
C111 H127 0.961 . S
C112 C113 1.370 . S
C112 C114 1.363 . S
C112 H128 0.931 . S
C113 C112 1.370 . S
C113 C117 1.408 . S
C114 C112 1.363 . S
C114 C115 1.370 . S
C114 C118 1.524 . S
C115 C107 1.503 . S
C115 C114 1.370 . S
C115 C116 1.403 . S
C116 C115 1.403 . S
C116 C117 1.404 . S
C116 C119 1.539 . S
C117 C113 1.408 . S
C117 C116 1.404 . S
C117 H129 0.930 . S
C118 C114 1.524 . S
C118 H130 0.956 . S
C118 H131 0.961 . S
C118 H132 0.961 . S
C119 C116 1.539 . S
C119 H133 0.958 . S
C119 H134 0.961 . S
C119 H135 0.960 . S
H120 C104 0.931 . S
H121 C109 0.929 . S
H122 C110 0.960 . S
H123 C110 0.962 . S
H124 C110 0.960 . S
H125 C111 0.961 . S
H126 C111 0.961 . S
H127 C111 0.961 . S
H128 C112 0.931 . S
H129 C117 0.930 . S
H130 C118 0.956 . S
H131 C118 0.961 . S
H132 C118 0.961 . S
H133 C119 0.958 . S
H134 C119 0.961 . S
H135 C119 0.960 . S
C136 C137 1.391 . S
C136 C138 1.394 . S
C136 H152 0.931 . S
C137 C136 1.391 . S
C137 C141 1.376 1_554 S
C138 C136 1.394 . S
C138 C139 1.369 . S
C138 C142 1.531 . S
C139 C138 1.369 . S
C139 C140 1.410 1_554 S
C139 C147 1.503 . S
C140 C139 1.410 1_556 S
C140 C141 1.392 . S
C140 C143 1.511 . S
C141 C137 1.376 1_556 S
C141 C140 1.392 . S
C141 H153 0.929 . S
C142 C138 1.531 . S
C142 H154 0.960 . S
C142 H155 0.962 . S
C142 H156 0.960 . S
C143 C140 1.511 . S
C143 H157 0.961 . S
C143 H158 0.961 . S
C143 H159 0.961 . S
C144 C145 1.370 . S
C144 C146 1.363 . S
C144 H160 0.931 . S
C145 C144 1.370 . S
C145 C149 1.408 1_554 S
C146 C144 1.363 . S
C146 C147 1.370 . S
C146 C150 1.524 . S
C147 C139 1.503 . S
C147 C146 1.370 . S
C147 C148 1.403 1_554 S
C148 C147 1.403 1_556 S
C148 C149 1.404 . S
C148 C151 1.539 . S
C149 C145 1.408 1_556 S
C149 C148 1.404 . S
C149 H161 0.930 . S
C150 C146 1.524 . S
C150 H162 0.956 . S
C150 H163 0.961 . S
C150 H164 0.961 . S
C151 C148 1.539 . S
C151 H165 0.958 . S
C151 H166 0.961 . S
C151 H167 0.960 . S
H152 C136 0.931 . S
H153 C141 0.929 . S
H154 C142 0.960 . S
H155 C142 0.962 . S
H156 C142 0.960 . S
H157 C143 0.961 . S
H158 C143 0.961 . S
H159 C143 0.961 . S
H160 C144 0.931 . S
H161 C149 0.930 . S
H162 C150 0.956 . S
H163 C150 0.961 . S
H164 C150 0.961 . S
H165 C151 0.958 . S
H166 C151 0.961 . S
H167 C151 0.960 . S
C168 C169 1.391 . S
C168 C170 1.394 . S
C168 H184 0.931 . S
C169 C168 1.391 . S
C169 C173 1.376 . S
C170 C168 1.394 . S
C170 C171 1.369 . S
C170 C174 1.531 . S
C171 C170 1.369 . S
C171 C172 1.410 . S
C171 C179 1.503 . S
C172 C171 1.410 . S
C172 C173 1.392 . S
C172 C175 1.511 . S
C173 C169 1.376 . S
C173 C172 1.392 . S
C173 H185 0.929 . S
C174 C170 1.531 . S
C174 H186 0.960 . S
C174 H187 0.962 . S
C174 H188 0.960 . S
C175 C172 1.511 . S
C175 H189 0.961 . S
C175 H190 0.961 . S
C175 H191 0.961 . S
C176 C177 1.370 . S
C176 C178 1.363 . S
C176 H192 0.931 . S
C177 C176 1.370 . S
C177 C181 1.408 . S
C178 C176 1.363 . S
C178 C179 1.370 . S
C178 C182 1.524 . S
C179 C171 1.503 . S
C179 C178 1.370 . S
C179 C180 1.403 . S
C180 C179 1.403 . S
C180 C181 1.404 . S
C180 C183 1.539 . S
C181 C177 1.408 . S
C181 C180 1.404 . S
C181 H193 0.930 . S
C182 C178 1.524 . S
C182 H194 0.956 . S
C182 H195 0.961 . S
C182 H196 0.961 . S
C183 C180 1.539 . S
C183 H197 0.958 . S
C183 H198 0.961 . S
C183 H199 0.960 . S
H184 C168 0.931 . S
H185 C173 0.929 . S
H186 C174 0.960 . S
H187 C174 0.962 . S
H188 C174 0.960 . S
H189 C175 0.961 . S
H190 C175 0.961 . S
H191 C175 0.961 . S
H192 C176 0.931 . S
H193 C181 0.930 . S
H194 C182 0.956 . S
H195 C182 0.961 . S
H196 C182 0.961 . S
H197 C183 0.958 . S
H198 C183 0.961 . S
H199 C183 0.960 . S
C200 C201 1.391 1_556 S
C200 C202 1.394 . S
C200 H216 0.931 . S
C201 C200 1.391 1_554 S
C201 C205 1.376 . S
C202 C200 1.394 . S
C202 C203 1.369 1_556 S
C202 C206 1.531 . S
C203 C202 1.369 1_554 S
C203 C204 1.410 . S
C203 C211 1.503 . S
C204 C203 1.410 . S
C204 C205 1.392 . S
C204 C207 1.511 . S
C205 C201 1.376 . S
C205 C204 1.392 . S
C205 H217 0.929 . S
C206 C202 1.531 . S
C206 H218 0.960 . S
C206 H219 0.962 . S
C206 H220 0.960 . S
C207 C204 1.511 . S
C207 H221 0.961 . S
C207 H222 0.961 . S
C207 H223 0.961 . S
C208 C209 1.370 . S
C208 C210 1.363 . S
C208 H224 0.931 . S
C209 C208 1.370 . S
C209 C213 1.408 . S
C210 C208 1.363 . S
C210 C211 1.370 . S
C210 C214 1.524 . S
C211 C203 1.503 . S
C211 C210 1.370 . S
C211 C212 1.403 . S
C212 C211 1.403 . S
C212 C213 1.404 . S
C212 C215 1.539 . S
C213 C209 1.408 . S
C213 C212 1.404 . S
C213 H225 0.930 . S
C214 C210 1.524 . S
C214 H226 0.956 1_554 S
C214 H227 0.961 . S
C214 H228 0.961 . S
C215 C212 1.539 . S
C215 H229 0.958 1_554 S
C215 H230 0.961 . S
C215 H231 0.960 . S
H216 C200 0.931 . S
H217 C205 0.929 . S
H218 C206 0.960 . S
H219 C206 0.962 . S
H220 C206 0.960 . S
H221 C207 0.961 . S
H222 C207 0.961 . S
H223 C207 0.961 . S
H224 C208 0.931 . S
H225 C213 0.930 . S
H226 C214 0.956 1_556 S
H227 C214 0.961 . S
H228 C214 0.961 . S
H229 C215 0.958 1_556 S
H230 C215 0.961 . S
H231 C215 0.960 . S
C232 C233 1.391 . S
C232 C234 1.394 . S
C232 H248 0.931 . S
C233 C232 1.391 . S
C233 C237 1.376 . S
C234 C232 1.394 . S
C234 C235 1.369 . S
C234 C238 1.531 . S
C235 C234 1.369 . S
C235 C236 1.410 . S
C235 C243 1.503 . S
C236 C235 1.410 . S
C236 C237 1.392 . S
C236 C239 1.511 . S
C237 C233 1.376 . S
C237 C236 1.392 . S
C237 H249 0.929 . S
C238 C234 1.531 . S
C238 H250 0.960 . S
C238 H251 0.962 . S
C238 H252 0.960 . S
C239 C236 1.511 . S
C239 H253 0.961 . S
C239 H254 0.961 . S
C239 H255 0.961 . S
C240 C241 1.370 . S
C240 C242 1.363 . S
C240 H256 0.931 . S
C241 C240 1.370 . S
C241 C245 1.408 . S
C242 C240 1.363 . S
C242 C243 1.370 . S
C242 C246 1.524 . S
C243 C235 1.503 . S
C243 C242 1.370 . S
C243 C244 1.403 . S
C244 C243 1.403 . S
C244 C245 1.404 . S
C244 C247 1.539 1_455 S
C245 C241 1.408 . S
C245 C244 1.404 . S
C245 H257 0.930 1_455 S
C246 C242 1.524 . S
C246 H258 0.956 . S
C246 H259 0.961 . S
C246 H260 0.961 . S
C247 C244 1.539 1_655 S
C247 H261 0.958 . S
C247 H262 0.961 . S
C247 H263 0.960 . S
H248 C232 0.931 . S
H249 C237 0.929 . S
H250 C238 0.960 . S
H251 C238 0.962 . S
H252 C238 0.960 . S
H253 C239 0.961 . S
H254 C239 0.961 . S
H255 C239 0.961 . S
H256 C240 0.931 . S
H257 C245 0.930 1_655 S
H258 C246 0.956 . S
H259 C246 0.961 . S
H260 C246 0.961 . S
H261 C247 0.958 . S
H262 C247 0.961 . S
H263 C247 0.960 . S
C264 C265 1.391 . S
C264 C266 1.394 . S
C264 H280 0.931 . S
C265 C264 1.391 . S
C265 C269 1.376 . S
C266 C264 1.394 . S
C266 C267 1.369 . S
C266 C270 1.531 . S
C267 C266 1.369 . S
C267 C268 1.410 . S
C267 C275 1.503 . S
C268 C267 1.410 . S
C268 C269 1.392 . S
C268 C271 1.511 . S
C269 C265 1.376 . S
C269 C268 1.392 . S
C269 H281 0.929 . S
C270 C266 1.531 . S
C270 H282 0.960 . S
C270 H283 0.962 . S
C270 H284 0.960 . S
C271 C268 1.511 . S
C271 H285 0.961 . S
C271 H286 0.961 . S
C271 H287 0.961 . S
C272 C273 1.370 . S
C272 C274 1.363 . S
C272 H288 0.931 . S
C273 C272 1.370 . S
C273 C277 1.408 . S
C274 C272 1.363 . S
C274 C275 1.370 . S
C274 C278 1.524 . S
C275 C267 1.503 . S
C275 C274 1.370 . S
C275 C276 1.403 . S
C276 C275 1.403 . S
C276 C277 1.404 . S
C276 C279 1.539 . S
C277 C273 1.408 . S
C277 C276 1.404 . S
C277 H289 0.930 . S
C278 C274 1.524 . S
C278 H290 0.956 . S
C278 H291 0.961 . S
C278 H292 0.961 . S
C279 C276 1.539 . S
C279 H293 0.958 . S
C279 H294 0.961 . S
C279 H295 0.960 . S
H280 C264 0.931 . S
H281 C269 0.929 . S
H282 C270 0.960 . S
H283 C270 0.962 . S
H284 C270 0.960 . S
H285 C271 0.961 . S
H286 C271 0.961 . S
H287 C271 0.961 . S
H288 C272 0.931 . S
H289 C277 0.930 . S
H290 C278 0.956 . S
H291 C278 0.961 . S
H292 C278 0.961 . S
H293 C279 0.958 . S
H294 C279 0.961 . S
H295 C279 0.960 . S
C296 C297 1.391 . S
C296 C298 1.394 . S
C296 H312 0.931 . S
C297 C296 1.391 . S
C297 C301 1.376 . S
C298 C296 1.394 . S
C298 C299 1.369 . S
C298 C302 1.531 . S
C299 C298 1.369 . S
C299 C300 1.410 . S
C299 C307 1.503 . S
C300 C299 1.410 . S
C300 C301 1.392 . S
C300 C303 1.511 . S
C301 C297 1.376 . S
C301 C300 1.392 . S
C301 H313 0.929 . S
C302 C298 1.531 . S
C302 H314 0.960 . S
C302 H315 0.962 . S
C302 H316 0.960 . S
C303 C300 1.511 . S
C303 H317 0.961 . S
C303 H318 0.961 . S
C303 H319 0.961 . S
C304 C305 1.370 . S
C304 C306 1.363 . S
C304 H320 0.931 . S
C305 C304 1.370 . S
C305 C309 1.408 . S
C306 C304 1.363 . S
C306 C307 1.370 . S
C306 C310 1.524 . S
C307 C299 1.503 . S
C307 C306 1.370 . S
C307 C308 1.403 . S
C308 C307 1.403 . S
C308 C309 1.404 . S
C308 C311 1.539 1_655 S
C309 C305 1.408 . S
C309 C308 1.404 . S
C309 H321 0.930 1_655 S
C310 C306 1.524 . S
C310 H322 0.956 . S
C310 H323 0.961 . S
C310 H324 0.961 . S
C311 C308 1.539 1_455 S
C311 H325 0.958 . S
C311 H326 0.961 . S
C311 H327 0.960 . S
H312 C296 0.931 . S
H313 C301 0.929 . S
H314 C302 0.960 . S
H315 C302 0.962 . S
H316 C302 0.960 . S
H317 C303 0.961 . S
H318 C303 0.961 . S
H319 C303 0.961 . S
H320 C304 0.931 . S
H321 C309 0.930 1_455 S
H322 C310 0.956 . S
H323 C310 0.961 . S
H324 C310 0.961 . S
H325 C311 0.958 . S
H326 C311 0.961 . S
H327 C311 0.960 . S
C328 C329 1.391 . S
C328 C330 1.394 . S
C328 H344 0.931 . S
C329 C328 1.391 . S
C329 C333 1.376 . S
C330 C328 1.394 . S
C330 C331 1.369 . S
C330 C334 1.531 . S
C331 C330 1.369 . S
C331 C332 1.410 . S
C331 C339 1.503 . S
C332 C331 1.410 . S
C332 C333 1.392 . S
C332 C335 1.511 . S
C333 C329 1.376 . S
C333 C332 1.392 . S
C333 H345 0.929 . S
C334 C330 1.531 . S
C334 H346 0.960 . S
C334 H347 0.962 . S
C334 H348 0.960 . S
C335 C332 1.511 . S
C335 H349 0.961 . S
C335 H350 0.961 . S
C335 H351 0.961 . S
C336 C337 1.370 . S
C336 C338 1.363 . S
C336 H352 0.931 . S
C337 C336 1.370 . S
C337 C341 1.408 . S
C338 C336 1.363 . S
C338 C339 1.370 . S
C338 C342 1.524 . S
C339 C331 1.503 . S
C339 C338 1.370 . S
C339 C340 1.403 . S
C340 C339 1.403 . S
C340 C341 1.404 . S
C340 C343 1.539 . S
C341 C337 1.408 . S
C341 C340 1.404 . S
C341 H353 0.930 . S
C342 C338 1.524 . S
C342 H354 0.956 . S
C342 H355 0.961 . S
C342 H356 0.961 . S
C343 C340 1.539 . S
C343 H357 0.958 . S
C343 H358 0.961 . S
C343 H359 0.960 . S
H344 C328 0.931 . S
H345 C333 0.929 . S
H346 C334 0.960 . S
H347 C334 0.962 . S
H348 C334 0.960 . S
H349 C335 0.961 . S
H350 C335 0.961 . S
H351 C335 0.961 . S
H352 C336 0.931 . S
H353 C341 0.930 . S
H354 C342 0.956 . S
H355 C342 0.961 . S
H356 C342 0.961 . S
H357 C343 0.958 . S
H358 C343 0.961 . S
H359 C343 0.960 . S
C360 C361 1.391 . S
C360 C362 1.394 . S
C360 H376 0.931 . S
C361 C360 1.391 . S
C361 C365 1.376 . S
C362 C360 1.394 . S
C362 C363 1.369 . S
C362 C366 1.531 . S
C363 C362 1.369 . S
C363 C364 1.410 . S
C363 C371 1.503 . S
C364 C363 1.410 . S
C364 C365 1.392 . S
C364 C367 1.511 . S
C365 C361 1.376 . S
C365 C364 1.392 . S
C365 H377 0.929 . S
C366 C362 1.531 . S
C366 H378 0.960 . S
C366 H379 0.962 . S
C366 H380 0.960 . S
C367 C364 1.511 . S
C367 H381 0.961 . S
C367 H382 0.961 . S
C367 H383 0.961 . S
C368 C369 1.370 . S
C368 C370 1.363 . S
C368 H384 0.931 . S
C369 C368 1.370 . S
C369 C373 1.408 . S
C370 C368 1.363 . S
C370 C371 1.370 . S
C370 C374 1.524 . S
C371 C363 1.503 . S
C371 C370 1.370 . S
C371 C372 1.403 . S
C372 C371 1.403 . S
C372 C373 1.404 . S
C372 C375 1.539 . S
C373 C369 1.408 . S
C373 C372 1.404 . S
C373 H385 0.930 . S
C374 C370 1.524 . S
C374 H386 0.956 . S
C374 H387 0.961 . S
C374 H388 0.961 . S
C375 C372 1.539 . S
C375 H389 0.958 . S
C375 H390 0.961 . S
C375 H391 0.960 . S
H376 C360 0.931 . S
H377 C365 0.929 . S
H378 C366 0.960 . S
H379 C366 0.962 . S
H380 C366 0.960 . S
H381 C367 0.961 . S
H382 C367 0.961 . S
H383 C367 0.961 . S
H384 C368 0.931 . S
H385 C373 0.930 . S
H386 C374 0.956 . S
H387 C374 0.961 . S
H388 C374 0.961 . S
H389 C375 0.958 . S
H390 C375 0.961 . S
H391 C375 0.960 . S
C392 C393 1.391 . S
C392 C394 1.394 . S
C392 H408 0.931 . S
C393 C392 1.391 . S
C393 C397 1.376 . S
C394 C392 1.394 . S
C394 C395 1.369 . S
C394 C398 1.531 . S
C395 C394 1.369 . S
C395 C396 1.410 . S
C395 C403 1.503 . S
C396 C395 1.410 . S
C396 C397 1.392 . S
C396 C399 1.511 1_655 S
C397 C393 1.376 . S
C397 C396 1.392 . S
C397 H409 0.929 . S
C398 C394 1.531 . S
C398 H410 0.960 . S
C398 H411 0.962 . S
C398 H412 0.960 . S
C399 C396 1.511 1_455 S
C399 H413 0.961 . S
C399 H414 0.961 . S
C399 H415 0.961 . S
C400 C401 1.370 . S
C400 C402 1.363 . S
C400 H416 0.931 . S
C401 C400 1.370 . S
C401 C405 1.408 . S
C402 C400 1.363 . S
C402 C403 1.370 . S
C402 C406 1.524 . S
C403 C395 1.503 . S
C403 C402 1.370 . S
C403 C404 1.403 . S
C404 C403 1.403 . S
C404 C405 1.404 . S
C404 C407 1.539 . S
C405 C401 1.408 . S
C405 C404 1.404 . S
C405 H417 0.930 . S
C406 C402 1.524 . S
C406 H418 0.956 . S
C406 H419 0.961 . S
C406 H420 0.961 . S
C407 C404 1.539 . S
C407 H421 0.958 . S
C407 H422 0.961 . S
C407 H423 0.960 . S
H408 C392 0.931 . S
H409 C397 0.929 . S
H410 C398 0.960 . S
H411 C398 0.962 . S
H412 C398 0.960 . S
H413 C399 0.961 . S
H414 C399 0.961 . S
H415 C399 0.961 . S
H416 C400 0.931 . S
H417 C405 0.930 . S
H418 C406 0.956 . S
H419 C406 0.961 . S
H420 C406 0.961 . S
H421 C407 0.958 . S
H422 C407 0.961 . S
H423 C407 0.960 . S
C424 C425 1.391 . S
C424 C426 1.394 . S
C424 H440 0.931 . S
C425 C424 1.391 . S
C425 C429 1.376 . S
C426 C424 1.394 . S
C426 C427 1.369 . S
C426 C430 1.531 . S
C427 C426 1.369 . S
C427 C428 1.410 . S
C427 C435 1.503 . S
C428 C427 1.410 . S
C428 C429 1.392 . S
C428 C431 1.511 . S
C429 C425 1.376 . S
C429 C428 1.392 . S
C429 H441 0.929 . S
C430 C426 1.531 . S
C430 H442 0.960 . S
C430 H443 0.962 . S
C430 H444 0.960 . S
C431 C428 1.511 . S
C431 H445 0.961 . S
C431 H446 0.961 . S
C431 H447 0.961 . S
C432 C433 1.370 . S
C432 C434 1.363 . S
C432 H448 0.931 . S
C433 C432 1.370 . S
C433 C437 1.408 . S
C434 C432 1.363 . S
C434 C435 1.370 . S
C434 C438 1.524 . S
C435 C427 1.503 . S
C435 C434 1.370 . S
C435 C436 1.403 . S
C436 C435 1.403 . S
C436 C437 1.404 . S
C436 C439 1.539 . S
C437 C433 1.408 . S
C437 C436 1.404 . S
C437 H449 0.930 . S
C438 C434 1.524 . S
C438 H450 0.956 . S
C438 H451 0.961 . S
C438 H452 0.961 . S
C439 C436 1.539 . S
C439 H453 0.958 . S
C439 H454 0.961 . S
C439 H455 0.960 . S
H440 C424 0.931 . S
H441 C429 0.929 . S
H442 C430 0.960 . S
H443 C430 0.962 . S
H444 C430 0.960 . S
H445 C431 0.961 . S
H446 C431 0.961 . S
H447 C431 0.961 . S
H448 C432 0.931 . S
H449 C437 0.930 . S
H450 C438 0.956 . S
H451 C438 0.961 . S
H452 C438 0.961 . S
H453 C439 0.958 . S
H454 C439 0.961 . S
H455 C439 0.960 . S
C456 C457 1.391 . S
C456 C458 1.394 . S
C456 H472 0.931 . S
C457 C456 1.391 . S
C457 C461 1.376 . S
C458 C456 1.394 . S
C458 C459 1.369 . S
C458 C462 1.531 . S
C459 C458 1.369 . S
C459 C460 1.410 . S
C459 C467 1.503 . S
C460 C459 1.410 . S
C460 C461 1.392 . S
C460 C463 1.511 . S
C461 C457 1.376 . S
C461 C460 1.392 . S
C461 H473 0.929 . S
C462 C458 1.531 . S
C462 H474 0.960 . S
C462 H475 0.962 1_455 S
C462 H476 0.960 . S
C463 C460 1.511 . S
C463 H477 0.961 . S
C463 H478 0.961 . S
C463 H479 0.961 . S
C464 C465 1.370 . S
C464 C466 1.363 . S
C464 H480 0.931 . S
C465 C464 1.370 . S
C465 C469 1.408 . S
C466 C464 1.363 . S
C466 C467 1.370 . S
C466 C470 1.524 . S
C467 C459 1.503 . S
C467 C466 1.370 . S
C467 C468 1.403 . S
C468 C467 1.403 . S
C468 C469 1.404 . S
C468 C471 1.539 . S
C469 C465 1.408 . S
C469 C468 1.404 . S
C469 H481 0.930 . S
C470 C466 1.524 . S
C470 H482 0.956 . S
C470 H483 0.961 . S
C470 H484 0.961 . S
C471 C468 1.539 . S
C471 H485 0.958 . S
C471 H486 0.961 . S
C471 H487 0.960 . S
H472 C456 0.931 . S
H473 C461 0.929 . S
H474 C462 0.960 . S
H475 C462 0.962 1_655 S
H476 C462 0.960 . S
H477 C463 0.961 . S
H478 C463 0.961 . S
H479 C463 0.961 . S
H480 C464 0.931 . S
H481 C469 0.930 . S
H482 C470 0.956 . S
H483 C470 0.961 . S
H484 C470 0.961 . S
H485 C471 0.958 . S
H486 C471 0.961 . S
H487 C471 0.960 . S
C113 C40 1.539 . S
C105 C34 1.537 . S
C137 C7 1.505 . S
C145 C83 1.503 . S
C169 C16 1.537 . S
C177 C49 1.540 . S
C201 C25 1.480 . S
C209 C74 1.508 . S
C241 C36 1.522 . S
C233 C5 1.514 . S
C273 C78 1.573 . S
C265 C13 1.524 . S
C297 C23 1.512 . S
C305 C44 1.520 . S
C329 C32 1.535 . S
C337 C70 1.569 . S
C369 C99 1.567 . S
C361 C14 1.542 . S
C401 C65 1.521 . S
C393 C22 1.517 . S
C433 C87 1.569 . S
C425 C31 1.560 . S
C457 C4 1.483 . S
C465 C53 1.521 . S
