# Generated by pormake.
# Topology tsx, (6,3)-cn, num edge types: 1
# Building blocks:
#     Node 0, Type 0, BuildingBlock: VOLQOD_clean_sbu_1, # of connection points: 6
#     Node 1, Type 0, BuildingBlock: VOLQOD_clean_sbu_1, # of connection points: 6
#     Node 2, Type 1, BuildingBlock: QEWDON_clean_linker_0, # of connection points: 3
#     Node 3, Type 1, BuildingBlock: QEWDON_clean_linker_0, # of connection points: 3
#     Node 4, Type 1, BuildingBlock: QEWDON_clean_linker_0, # of connection points: 3
#     Node 5, Type 1, BuildingBlock: QEWDON_clean_linker_0, # of connection points: 3
#     Edge 6, Type (0, 1), BuildingBlock: UVAHIK_clean_linker_0, # of connection points: 2
#     Edge 7, Type (0, 1), BuildingBlock: UVAHIK_clean_linker_0, # of connection points: 2
#     Edge 8, Type (0, 1), BuildingBlock: UVAHIK_clean_linker_0, # of connection points: 2
#     Edge 9, Type (0, 1), BuildingBlock: UVAHIK_clean_linker_0, # of connection points: 2
#     Edge 10, Type (0, 1), BuildingBlock: UVAHIK_clean_linker_0, # of connection points: 2
#     Edge 11, Type (0, 1), BuildingBlock: UVAHIK_clean_linker_0, # of connection points: 2
#     Edge 12, Type (0, 1), BuildingBlock: UVAHIK_clean_linker_0, # of connection points: 2
#     Edge 13, Type (0, 1), BuildingBlock: UVAHIK_clean_linker_0, # of connection points: 2
#     Edge 14, Type (0, 1), BuildingBlock: UVAHIK_clean_linker_0, # of connection points: 2
#     Edge 15, Type (0, 1), BuildingBlock: UVAHIK_clean_linker_0, # of connection points: 2
#     Edge 16, Type (0, 1), BuildingBlock: UVAHIK_clean_linker_0, # of connection points: 2
#     Edge 17, Type (0, 1), BuildingBlock: UVAHIK_clean_linker_0, # of connection points: 2
# Relax obj value: 0.077
# Max RMSD: 0.180
# Mean RMSD: 0.150
data_MOF--net-tsx--node1-VOLQOD_clean_sbu_1--node2-QEWDON_clean_linker_0--edge1-UVAHIK_clean_linker_0
_symmetry_space_group_name_H-M    P1
_symmetry_Int_Tables_number       1
_symmetry_cell_setting            triclinic
loop_
_symmetry_equiv_pos_as_xyz
'x, y, z'
_cell_length_a     28.073287
_cell_length_b     29.114807
_cell_length_c     48.185695
_cell_angle_alpha  90.292824
_cell_angle_beta   102.66637
_cell_angle_gamma 89.895208
loop_
_atom_site_label
_atom_site_type_symbol
_atom_site_fract_x
_atom_site_fract_y
_atom_site_fract_z
_atom_type_partial_charge
O0 O 0.04507 0.98939 0.06528 0.0
Zn1 Zn 0.05799 0.9898 0.02556 0.0
O2 O 0.99698 0.99569 -0.00328 0.0
Zn3 Zn 0.98653 0.93991 0.97305 0.0
Zn4 Zn 0.94246 0.00355 0.01511 0.0
Zn5 Zn -0.00011 0.04996 0.97345 0.0
O6 O 0.97915 0.95642 0.93167 0.0
O7 O 0.99281 0.0317 0.93253 0.0
O8 O 0.09479 0.93246 0.01905 0.0
O9 O 0.04589 0.89911 0.982 0.0
O10 O 0.92733 0.90345 0.97867 0.0
O11 O 0.89612 0.95119 0.00608 0.0
O12 O 0.90461 0.06157 0.00357 0.0
O13 O 0.10314 0.0429 0.0232 0.0
O14 O 0.94674 0.09572 0.97563 0.0
O15 O 0.0637 0.08306 0.98617 0.0
C16 C 0.00644 0.99697 0.07442 0.0
C17 C 0.9841 0.99387 0.91899 0.0
C18 C 0.89448 0.91374 0.99222 0.0
C19 C 0.08584 0.9003 0.00061 0.0
C20 C 0.91124 0.09523 0.98813 0.0
C21 C 0.10086 0.07674 0.0063 0.0
O22 O 0.96563 0.00423 0.0574 0.0
O23 O 0.54968 0.49151 0.56598 0.0
Zn24 Zn 0.56248 0.4925 0.5262 0.0
O25 O 0.50134 0.49517 0.49736 0.0
Zn26 Zn 0.49256 0.43748 0.47528 0.0
Zn27 Zn 0.44683 0.5034 0.51572 0.0
Zn28 Zn 0.50278 0.54805 0.47274 0.0
O29 O 0.48624 0.4514 0.43347 0.0
O30 O 0.49695 0.52703 0.43244 0.0
O31 O 0.60193 0.43703 0.51996 0.0
O32 O 0.55265 0.3974 0.48589 0.0
O33 O 0.43305 0.40143 0.48104 0.0
O34 O 0.40066 0.45096 0.50689 0.0
O35 O 0.40853 0.56103 0.50364 0.0
O36 O 0.60497 0.54732 0.52337 0.0
O37 O 0.4483 0.59289 0.47368 0.0
O38 O 0.56516 0.5837 0.48484 0.0
C39 C 0.51085 0.4982 0.57509 0.0
C40 C 0.49007 0.48822 0.41988 0.0
C41 C 0.39949 0.41279 0.49384 0.0
C42 C 0.59351 0.40231 0.50341 0.0
C43 C 0.41373 0.59336 0.48691 0.0
C44 C 0.60185 0.57996 0.50556 0.0
O45 O 0.4699 0.50463 0.55803 0.0
H46 H 0.01983 0.08204 0.38173 0.0
C47 C 0.03879 0.05232 0.3923 0.0
C48 C 0.04443 0.01281 0.37645 0.0
C49 C 0.06009 0.05479 0.42145 0.0
H50 H 0.0749 0.94435 0.37852 0.0
C51 C 0.06909 0.97464 0.39054 0.0
C52 C 0.09027 0.97664 0.41971 0.0
C53 C 0.0863 0.017 0.43502 0.0
C54 C 0.05856 0.09832 0.43707 0.0
H55 H 0.10377 0.01909 0.45742 0.0
C56 C 0.01375 0.11925 0.43802 0.0
C57 C 0.01236 0.16089 0.45296 0.0
C58 C 0.10232 0.1198 0.45031 0.0
H59 H 0.1372 0.10456 0.44941 0.0
C60 C 0.10145 0.1617 0.46419 0.0
H61 H 0.98025 0.10281 0.4271 0.0
C62 C 0.05704 0.18186 0.46587 0.0
H63 H 0.05809 0.21349 0.4778 0.0
H64 H 0.13544 0.1784 0.47395 0.0
H65 H 0.99429 0.06513 0.61414 0.0
C66 C 0.97794 0.03402 0.60384 0.0
C67 C 0.97333 0.99511 0.62017 0.0
C68 C 0.95905 0.03391 0.57437 0.0
H69 H 0.94578 0.9259 0.61888 0.0
C70 C 0.9515 0.95536 0.60636 0.0
C71 C 0.93344 0.95433 0.57677 0.0
C72 C 0.93701 0.99402 0.56091 0.0
C73 C 0.95811 0.07694 0.55819 0.0
H74 H 0.92236 0.99414 0.53814 0.0
C75 C 0.00143 0.10103 0.55812 0.0
C76 C 1e-05 0.14311 0.54367 0.0
C77 C 0.91319 0.09518 0.54389 0.0
H78 H 0.87938 0.07734 0.54399 0.0
C79 C 0.91139 0.13731 0.53013 0.0
H80 H 0.03602 0.08703 0.56943 0.0
C81 C 0.95438 0.16114 0.52996 0.0
H82 H 0.95188 0.19337 0.51867 0.0
H83 H 0.87653 0.15155 0.51957 0.0
H84 H 0.51846 0.58297 0.88156 0.0
C85 C 0.53727 0.55344 0.89246 0.0
C86 C 0.54372 0.51375 0.87696 0.0
C87 C 0.55767 0.55638 0.92171 0.0
H88 H 0.57459 0.44541 0.87982 0.0
C89 C 0.56817 0.47587 0.89153 0.0
C90 C 0.58844 0.47837 0.9208 0.0
C91 C 0.5838 0.51897 0.93576 0.0
C92 C 0.55584 0.60029 0.9368 0.0
H93 H 0.60075 0.52157 0.95821 0.0
C94 C 0.5109 0.61992 0.93872 0.0
C95 C 0.50928 0.66271 0.9523 0.0
C96 C 0.59932 0.62385 0.94804 0.0
H97 H 0.63423 0.6095 0.94637 0.0
C98 C 0.59798 0.66674 0.96077 0.0
H99 H 0.4774 0.60189 0.92947 0.0
C100 C 0.55347 0.6859 0.9632 0.0
H101 H 0.55386 0.71861 0.97401 0.0
H102 H 0.63167 0.68504 0.96892 0.0
H103 H 0.50493 0.55198 0.11552 0.0
C104 C 0.48892 0.52069 0.10528 0.0
C105 C 0.48476 0.48173 0.1217 0.0
C106 C 0.46965 0.52052 0.07586 0.0
H107 H 0.45755 0.4124 0.12053 0.0
C108 C 0.46309 0.44184 0.10795 0.0
C109 C 0.44462 0.44077 0.07839 0.0
C110 C 0.44787 0.48049 0.06249 0.0
C111 C 0.46674 0.56383 0.05979 0.0
H112 H 0.43275 0.48068 0.03977 0.0
C113 C 0.50909 0.58864 0.05845 0.0
C114 C 0.50553 0.63115 0.04429 0.0
C115 C 0.42077 0.58167 0.04697 0.0
H116 H 0.38773 0.56324 0.04805 0.0
C117 C 0.41698 0.62413 0.03347 0.0
H118 H 0.54455 0.57497 0.06857 0.0
C119 C 0.45895 0.64879 0.03214 0.0
H120 H 0.45492 0.68141 0.02119 0.0
H121 H 0.38136 0.63803 0.02408 0.0
C122 C 0.13624 0.15192 0.99576 0.0
C123 C 0.1418 0.10987 0.01034 0.0
C124 C 0.17413 0.18398 0.00028 0.0
C125 C 0.28537 0.21654 0.05321 0.0
H126 H 0.3062 0.29669 0.99292 0.0
C127 C 0.4344 0.35521 0.07383 0.0
C128 C 0.41782 0.3995 0.06496 0.0
C129 C 0.4059 0.31667 0.06418 0.0
C130 C 0.30076 0.27451 0.00994 0.0
H131 H 0.19221 0.06794 0.04042 0.0
H132 H 0.25871 0.12344 0.04783 0.0
H133 H 0.24675 0.23443 0.9819 0.0
H134 H 0.35917 0.43771 0.03795 0.0
H135 H 0.30987 0.37035 0.02079 0.0
H136 H 0.33913 0.25681 0.08125 0.0
C137 C 0.22462 0.13212 0.03339 0.0
C138 C 0.26659 0.23897 0.00369 0.0
C139 C 0.18654 0.10019 0.02906 0.0
C140 C 0.37335 0.40411 0.04497 0.0
C141 C 0.34501 0.3655 0.03516 0.0
C142 C 0.31978 0.25177 0.05939 0.0
C143 C 0.2187 0.17465 0.01931 0.0
C144 C 0.25788 0.21002 0.02535 0.0
C145 C 0.3604 0.32153 0.04526 0.0
C146 C 0.3273 0.28157 0.03792 0.0
H147 H 0.1022 0.16058 0.98126 0.0
H148 H 0.16789 0.21663 0.98942 0.0
H149 H 0.27913 0.19551 0.07054 0.0
H150 H 0.46891 0.35043 0.08882 0.0
H151 H 0.419 0.28309 0.07197 0.0
C152 C 0.12137 0.83938 0.97423 0.0
C153 C 0.12467 0.86652 -0.00119 0.0
C154 C 0.1608 0.81238 0.97063 0.0
C155 C 0.24383 0.74535 0.97098 0.0
H156 H 0.37124 0.80108 -0.00326 0.0
C157 C 0.42418 0.65523 0.96085 0.0
C158 C 0.46198 0.6831 0.9554 0.0
C159 C 0.38126 0.67487 0.96582 0.0
C160 C 0.33592 0.78518 0.98912 0.0
H161 H 0.17092 0.88413 0.03971 0.0
H162 H 0.23907 0.8359 0.03386 0.0
H163 H 0.29986 0.83864 0.007 0.0
H164 H 0.48236 0.75344 0.94883 0.0
H165 H 0.40812 0.78747 0.9577 0.0
H166 H 0.27994 0.69292 0.95196 0.0
C167 C 0.20658 0.83661 0.01691 0.0
C168 C 0.29493 0.80636 0.99548 0.0
C169 C 0.16733 0.86402 0.02039 0.0
C170 C 0.45485 0.73092 0.95389 0.0
C171 C 0.41214 0.75049 0.95899 0.0
C172 C 0.28489 0.72431 0.9644 0.0
C173 C 0.20437 0.81144 0.99163 0.0
C174 C 0.24825 0.78695 0.98635 0.0
C175 C 0.37523 0.72283 0.96566 0.0
C176 C 0.33141 0.74424 0.97314 0.0
H177 H 0.08913 0.84057 0.95712 0.0
H178 H 0.15778 0.79392 0.95075 0.0
H179 H 0.20859 0.72907 0.96388 0.0
H180 H 0.42848 0.61832 0.96251 0.0
H181 H 0.35371 0.65246 0.97095 0.0
C182 C 0.85821 0.83422 0.98797 0.0
C183 C 0.85421 0.88147 0.99322 0.0
C184 C 0.82157 0.80381 0.9919 0.0
C185 C 0.69234 0.80035 -0.00276 0.0
H186 H 0.72898 0.6919 0.04346 0.0
C187 C 0.55094 0.70514 0.044 0.0
C188 C 0.5499 0.65701 0.04166 0.0
C189 C 0.59039 0.73003 0.03873 0.0
C190 C 0.71819 0.72182 0.03031 0.0
H191 H 0.80789 0.93401 0.00564 0.0
H192 H 0.74443 0.88142 0.0122 0.0
H193 H 0.79235 0.73906 0.02996 0.0
H194 H 0.59059 0.59718 0.03302 0.0
H195 H 0.65989 0.64077 0.02409 0.0
H196 H 0.61846 0.78361 -0.00243 0.0
C197 C 0.77564 0.86767 0.0051 0.0
C198 C 0.75443 0.74867 0.02247 0.0
C199 C 0.81224 0.89781 0.00149 0.0
C200 C 0.59044 0.6342 0.03527 0.0
C201 C 0.63019 0.65918 0.03019 0.0
C202 C 0.65627 0.77362 0.00501 0.0
C203 C 0.78007 0.8203 0.00069 0.0
C204 C 0.74186 0.78871 0.00631 0.0
C205 C 0.62988 0.70746 0.03101 0.0
C206 C 0.66877 0.73456 0.02212 0.0
H207 H 0.89023 0.82061 0.9817 0.0
H208 H 0.82575 0.76745 0.98818 0.0
H209 H 0.68146 0.83052 0.98432 0.0
H210 H 0.52088 0.72373 0.04956 0.0
H211 H 0.58958 0.76714 0.04028 0.0
C212 C 0.8919 0.1782 0.97774 0.0
C213 C 0.87701 0.13447 0.98468 0.0
C214 C 0.85952 0.2153 0.9746 0.0
C215 C 0.73252 0.244 0.95275 0.0
H216 H 0.76481 0.35751 0.99507 0.0
C217 C 0.59846 0.39581 0.93451 0.0
C218 C 0.61853 0.43989 0.93476 0.0
C219 C 0.62826 0.35829 0.94456 0.0
C220 C 0.75537 0.32635 0.98277 0.0
H221 H 0.81652 0.09519 0.99357 0.0
H222 H 0.7594 0.15992 0.98705 0.0
H223 H 0.82133 0.2927 0.004 0.0
H224 H 0.68482 0.47994 0.9459 0.0
H225 H 0.73748 0.41446 0.96222 0.0
H226 H 0.66819 0.27769 0.93026 0.0
C227 C 0.79637 0.16541 0.98453 0.0
C228 C 0.78768 0.2892 0.98806 0.0
C229 C 0.82905 0.12853 0.9883 0.0
C230 C 0.66857 0.4462 0.94586 0.0
C231 C 0.69862 0.40858 0.95533 0.0
C232 C 0.7007 0.28138 0.94699 0.0
C233 C 0.81141 0.20909 0.97773 0.0
C234 C 0.77656 0.24784 0.97301 0.0
C235 C 0.67904 0.3639 0.95435 0.0
C236 C 0.71173 0.32324 0.96181 0.0
H237 H 0.9287 0.18383 0.97496 0.0
H238 H 0.87174 0.24868 0.96916 0.0
H239 H 0.72345 0.2125 0.94069 0.0
H240 H 0.55982 0.39034 0.92608 0.0
H241 H 0.61148 0.32478 0.94415 0.0
C242 C 0.63377 0.65632 0.49423 0.0
C243 C 0.64115 0.61476 0.5093 0.0
C244 C 0.67002 0.69004 0.49863 0.0
C245 C 0.77898 0.72748 0.55188 0.0
H246 H 0.79767 0.80802 0.49127 0.0
C247 C 0.9247 0.86875 0.5721 0.0
C248 C 0.90737 0.91282 0.56322 0.0
C249 C 0.89689 0.82984 0.56245 0.0
C250 C 0.79277 0.78576 0.50838 0.0
H251 H 0.69316 0.57536 0.54004 0.0
H252 H 0.75685 0.63363 0.54718 0.0
H253 H 0.74047 0.74388 0.48041 0.0
H254 H 0.84826 0.9503 0.53612 0.0
H255 H 0.80001 0.88218 0.51897 0.0
H256 H 0.83113 0.7694 0.57982 0.0
C257 C 0.72255 0.64073 0.5325 0.0
C258 C 0.75989 0.74914 0.50222 0.0
C259 C 0.68609 0.6072 0.52832 0.0
C260 C 0.8629 0.91686 0.54317 0.0
C261 C 0.8352 0.87785 0.53338 0.0
C262 C 0.81211 0.76375 0.55796 0.0
C263 C 0.71474 0.68285 0.518 0.0
C264 C 0.75211 0.7199 0.52398 0.0
C265 C 0.8513 0.83409 0.54355 0.0
C266 C 0.81894 0.79359 0.53635 0.0
H267 H 0.59949 0.66333 0.47948 0.0
H268 H 0.66235 0.72226 0.48741 0.0
H269 H 0.77333 0.70633 0.5693 0.0
H270 H 0.95927 0.86444 0.58711 0.0
H271 H 0.91057 0.79644 0.57027 0.0
C272 C 0.6824 0.38256 0.51375 0.0
C273 C 0.63378 0.3698 0.50233 0.0
C274 C 0.72098 0.35497 0.50958 0.0
C275 C 0.74897 0.26302 0.46164 0.0
H276 H 0.87398 0.26375 0.51541 0.0
C277 C 0.92379 0.15435 0.45619 0.0
C278 C 0.96493 0.18192 0.45578 0.0
C279 C 0.88056 0.17393 0.46075 0.0
C280 C 0.83917 0.2633 0.50027 0.0
H281 H 0.58756 0.3167 0.47884 0.0
H282 H 0.65485 0.26747 0.4726 0.0
H283 H 0.80381 0.30116 0.52807 0.0
H284 H 0.99066 0.25266 0.4582 0.0
H285 H 0.91673 0.2857 0.46834 0.0
H286 H 0.78491 0.22395 0.43424 0.0
C287 C 0.6633 0.29965 0.48396 0.0
C288 C 0.79899 0.28494 0.50737 0.0
C289 C 0.62463 0.32768 0.48776 0.0
C290 C 0.96086 0.22976 0.45935 0.0
C291 C 0.91825 0.24899 0.46482 0.0
C292 C 0.78906 0.24058 0.4548 0.0
C293 C 0.71208 0.3134 0.49427 0.0
C294 C 0.75354 0.28608 0.48791 0.0
C295 C 0.87806 0.22118 0.46593 0.0
C296 C 0.83463 0.24147 0.47383 0.0
H297 H 0.69085 0.41496 0.52488 0.0
H298 H 0.75783 0.36736 0.51745 0.0
H299 H 0.71495 0.26358 0.44588 0.0
H300 H 0.92525 0.11739 0.45412 0.0
H301 H 0.84989 0.15188 0.46163 0.0
C302 C 0.36309 0.33341 0.49167 0.0
C303 C 0.35866 0.38117 0.49479 0.0
C304 C 0.32568 0.30399 0.49572 0.0
C305 C 0.1947 0.30273 0.49726 0.0
H306 H 0.22745 0.20021 0.54906 0.0
C307 C 0.04723 0.21611 0.54308 0.0
C308 C 0.04571 0.16786 0.54221 0.0
C309 C 0.08804 0.23965 0.53852 0.0
C310 C 0.21778 0.22847 0.53436 0.0
H311 H 0.31088 0.43557 0.50345 0.0
H312 H 0.24609 0.38468 0.51015 0.0
H313 H 0.29274 0.24454 0.53541 0.0
H314 H 0.08724 0.10655 0.53728 0.0
H315 H 0.15889 0.14777 0.52981 0.0
H316 H 0.12001 0.28713 0.49616 0.0
C317 C 0.27822 0.36976 0.50467 0.0
C318 C 0.25512 0.25367 0.52645 0.0
C319 C 0.31556 0.39893 0.50098 0.0
C320 C 0.08726 0.1437 0.53835 0.0
C321 C 0.1284 0.16733 0.53407 0.0
C322 C 0.15755 0.27763 0.5051 0.0
C323 C 0.28302 0.32197 0.50246 0.0
C324 C 0.2439 0.29163 0.50825 0.0
C325 C 0.12848 0.21557 0.53307 0.0
C326 C 0.16861 0.24083 0.52422 0.0
H327 H 0.39599 0.31875 0.48704 0.0
H328 H 0.33019 0.26725 0.49373 0.0
H329 H 0.1849 0.33127 0.48278 0.0
H330 H 0.01647 0.23585 0.5468 0.0
H331 H 0.0875 0.27685 0.53866 0.0
C332 C 0.39351 0.67569 0.47504 0.0
C333 C 0.37916 0.63234 0.48296 0.0
C334 C 0.361 0.7127 0.47166 0.0
C335 C 0.23432 0.7416 0.45058 0.0
H336 H 0.26691 0.85514 0.49283 0.0
C337 C 0.1004 0.89375 0.4327 0.0
C338 C 0.12049 0.93786 0.43317 0.0
C339 C 0.13022 0.8561 0.44248 0.0
C340 C 0.25739 0.82399 0.48052 0.0
H341 H 0.31948 0.59355 0.49324 0.0
H342 H 0.26201 0.6581 0.48623 0.0
H343 H 0.32338 0.79031 0.50168 0.0
H344 H 0.18685 0.9778 0.44436 0.0
H345 H 0.23951 0.91214 0.46018 0.0
H346 H 0.16997 0.77534 0.42814 0.0
C347 C 0.2987 0.66338 0.48316 0.0
C348 C 0.28967 0.78682 0.48579 0.0
C349 C 0.33156 0.62662 0.48721 0.0
C350 C 0.17058 0.94404 0.44416 0.0
C351 C 0.20063 0.9063 0.45334 0.0
C352 C 0.20254 0.77902 0.44483 0.0
C353 C 0.31328 0.70672 0.4755 0.0
C354 C 0.27843 0.74545 0.47078 0.0
C355 C 0.18102 0.86162 0.45222 0.0
C356 C 0.21368 0.82091 0.45961 0.0
H357 H 0.43005 0.68114 0.47177 0.0
H358 H 0.37284 0.74582 0.46556 0.0
H359 H 0.22518 0.71005 0.43858 0.0
H360 H 0.06172 0.88836 0.42436 0.0
H361 H 0.1134 0.82259 0.44194 0.0
C362 C 0.05247 0.9888 0.12509 0.0
C363 C 0.00852 0.99748 0.10539 0.0
C364 C 0.05403 0.98972 0.15429 0.0
C365 C 0.97537 0.98285 0.20652 0.0
H366 H 0.08505 0.04206 0.25678 0.0
C367 C 0.04099 0.05192 0.32993 0.0
C368 C 0.03052 0.01325 0.34489 0.0
C369 C 0.03457 0.05049 0.3004 0.0
C370 C 0.05391 0.0258 0.243 0.0
H371 H 0.93168 0.01382 0.101 0.0
H372 H 0.93468 0.01597 0.15176 0.0
H373 H 0.0823 0.03798 0.206 0.0
H374 H 0.00258 0.94359 0.3404 0.0
H375 H 0.99214 0.94081 0.28877 0.0
H376 H 0.94658 0.97147 0.24355 0.0
C377 C 0.96776 0.00779 0.14468 0.0
C378 C 0.0527 0.02288 0.21395 0.0
C379 C 0.96618 0.00685 0.11554 0.0
C380 C 0.01141 0.97378 0.3295 0.0
C381 C 0.00508 0.97233 0.29991 0.0
C382 C 0.97658 0.98576 0.23562 0.0
C383 C 0.01169 0.99935 0.16439 0.0
C384 C 0.01339 0.00146 0.19536 0.0
C385 C 0.01772 0.01032 0.28514 0.0
C386 C 0.0158 0.00744 0.25416 0.0
H387 H 0.08571 0.98129 0.11801 0.0
H388 H 0.08834 0.98253 0.16896 0.0
H389 H 0.94479 0.96571 0.19278 0.0
H390 H 0.05632 0.0827 0.34109 0.0
H391 H 0.04381 0.08061 0.28958 0.0
C392 C 0.98953 0.9518 0.87432 0.0
C393 C 0.98284 0.99314 0.88815 0.0
C394 C 0.99237 0.95172 0.84573 0.0
C395 C 0.01495 0.02973 0.78909 0.0
H396 H 0.95931 0.92949 0.73921 0.0
C397 C 0.97503 0.03641 0.66626 0.0
C398 C 0.98618 0.9971 0.65179 0.0
C399 C 0.98079 0.03617 0.69579 0.0
C400 C 0.97557 0.95741 0.753 0.0
H401 H 0.97218 0.06661 0.88259 0.0
H402 H 0.97525 0.06628 0.83253 0.0
H403 H 0.95396 0.92839 0.78897 0.0
H404 H 0.01511 0.92775 0.65733 0.0
H405 H 0.02394 0.9271 0.70889 0.0
H406 H 0.03487 0.0594 0.75261 0.0
C407 C 0.97995 0.03406 0.84393 0.0
C408 C 0.97257 0.9568 0.78154 0.0
C409 C 0.97773 0.03421 0.87259 0.0
C410 C 0.00529 0.95829 0.66773 0.0
C411 C 0.01045 0.95789 0.69722 0.0
C412 C 0.01738 0.03058 0.76045 0.0
C413 C 0.98798 0.99291 0.83022 0.0
C414 C 0.99199 0.99308 0.79994 0.0
C415 C 0.99731 0.99651 0.71143 0.0
C416 C 0.99755 0.99451 0.74214 0.0
H417 H 0.99404 0.91962 0.88579 0.0
H418 H 0.99921 0.91946 0.83602 0.0
H419 H 0.03126 0.05777 0.80273 0.0
H420 H 0.95951 0.06665 0.65471 0.0
H421 H 0.97001 0.06628 0.70621 0.0
C422 C 0.55684 0.49039 0.62584 0.0
C423 C 0.51282 0.49851 0.60607 0.0
C424 C 0.55822 0.491 0.65502 0.0
C425 C 0.47913 0.48235 0.70702 0.0
H426 H 0.58758 0.54263 0.75769 0.0
C427 C 0.54166 0.55233 0.8304 0.0
C428 C 0.53095 0.51375 0.84537 0.0
C429 C 0.53614 0.55062 0.80094 0.0
C430 C 0.55678 0.52604 0.7438 0.0
H431 H 0.43567 0.51357 0.60157 0.0
H432 H 0.43835 0.51522 0.65229 0.0
H433 H 0.5855 0.53879 0.70697 0.0
H434 H 0.50367 0.44385 0.84088 0.0
H435 H 0.49482 0.44058 0.78936 0.0
H436 H 0.44995 0.47048 0.74387 0.0
C437 C 0.47164 0.50769 0.64527 0.0
C438 C 0.55597 0.52326 0.71477 0.0
C439 C 0.47024 0.50705 0.61616 0.0
C440 C 0.51266 0.47401 0.82999 0.0
C441 C 0.50723 0.47227 0.80046 0.0
C442 C 0.47994 0.48514 0.73609 0.0
C443 C 0.51562 0.49976 0.66506 0.0
C444 C 0.51707 0.50152 0.69603 0.0
C445 C 0.52 0.51023 0.7857 0.0
C446 C 0.51868 0.50722 0.75478 0.0
H447 H 0.59026 0.48352 0.6188 0.0
H448 H 0.59259 0.48423 0.66973 0.0
H449 H 0.44888 0.46493 0.69318 0.0
H450 H 0.55642 0.58332 0.84155 0.0
H451 H 0.54546 0.58073 0.79013 0.0
C452 C 0.49779 0.44403 0.37627 0.0
C453 C 0.48956 0.48585 0.38914 0.0
C454 C 0.50149 0.4427 0.3478 0.0
C455 C 0.52423 0.51877 0.29029 0.0
H456 H 0.47131 0.41654 0.24137 0.0
C457 C 0.48582 0.52326 0.16763 0.0
C458 C 0.49737 0.48393 0.15333 0.0
C459 C 0.49132 0.52326 0.19714 0.0
C460 C 0.48685 0.44501 0.25491 0.0
H461 H 0.47692 0.55879 0.38194 0.0
H462 H 0.4816 0.55625 0.33218 0.0
H463 H 0.4652 0.41658 0.29106 0.0
H464 H 0.52658 0.41471 0.15919 0.0
H465 H 0.53501 0.41447 0.21074 0.0
H466 H 0.54425 0.54783 0.25369 0.0
C467 C 0.48684 0.52465 0.34423 0.0
C468 C 0.4834 0.44506 0.2834 0.0
C469 C 0.4837 0.52605 0.37273 0.0
C470 C 0.51651 0.44529 0.16945 0.0
C471 C 0.52142 0.44512 0.19894 0.0
C472 C 0.52717 0.51893 0.26173 0.0
C473 C 0.49652 0.4831 0.33149 0.0
C474 C 0.50164 0.48215 0.3014 0.0
C475 C 0.50798 0.4838 0.21298 0.0
C476 C 0.5082 0.48222 0.24372 0.0
H477 H 0.50285 0.41249 0.3884 0.0
H478 H 0.50947 0.41016 0.33882 0.0
H479 H 0.53971 0.54742 0.30365 0.0
H480 H 0.47019 0.55336 0.15596 0.0
H481 H 0.48025 0.55341 0.2074 0.0
loop_
_geom_bond_atom_site_label_1
_geom_bond_atom_site_label_2
_geom_bond_distance
_geom_bond_site_symmetry_2
_ccdc_geom_bond_type
O0 Zn1 1.953 . S
O0 C16 1.225 1_565 S
Zn1 O0 1.953 . S
Zn1 O2 1.970 1_565 S
Zn1 O8 1.919 . S
Zn1 O13 1.924 1_565 S
O2 Zn1 1.970 1_545 S
O2 Zn3 1.898 1_444 S
O2 Zn4 1.979 1_455 S
O2 Zn5 1.920 1_554 S
Zn3 O2 1.898 1_666 S
Zn3 O6 1.933 . S
Zn3 O9 1.941 1_655 S
Zn3 O10 1.965 . S
Zn4 O2 1.979 1_655 S
Zn4 O11 1.938 1_545 S
Zn4 O12 1.906 . S
Zn4 O22 1.953 . S
Zn5 O2 1.920 1_556 S
Zn5 O7 1.932 . S
Zn5 O14 1.977 1_455 S
Zn5 O15 1.910 . S
O6 Zn3 1.933 . S
O6 C17 1.226 1_565 S
O7 Zn5 1.932 . S
O7 C17 1.307 1_455 S
O8 Zn1 1.919 . S
O8 C19 1.230 1_554 S
O9 Zn3 1.941 1_455 S
O9 C19 1.293 . S
O10 Zn3 1.965 . S
O10 C18 1.303 1_556 S
O11 Zn4 1.938 1_565 S
O11 C18 1.247 . S
O12 Zn4 1.906 . S
O12 C20 1.304 1_554 S
O13 Zn1 1.924 1_545 S
O13 C21 1.311 . S
O14 Zn5 1.977 1_655 S
O14 C20 1.272 . S
O15 Zn5 1.910 . S
O15 C21 1.231 1_556 S
C16 O0 1.225 1_545 S
C16 O22 1.298 1_455 S
C17 O6 1.226 1_545 S
C17 O7 1.307 1_655 S
C18 O10 1.303 1_554 S
C18 O11 1.247 . S
C19 O8 1.230 1_556 S
C19 O9 1.293 . S
C20 O12 1.304 1_556 S
C20 O14 1.272 . S
C21 O13 1.311 . S
C21 O15 1.231 1_554 S
O22 Zn4 1.953 . S
O22 C16 1.298 1_655 S
O23 Zn24 1.953 . S
O23 C39 1.225 . S
Zn24 O23 1.953 . S
Zn24 O25 1.949 . S
Zn24 O31 1.919 . S
Zn24 O36 1.924 . S
O25 Zn24 1.949 . S
O25 Zn26 1.923 . S
O25 Zn27 1.950 . S
O25 Zn28 1.945 . S
Zn26 O25 1.923 . S
Zn26 O29 1.933 . S
Zn26 O32 1.941 . S
Zn26 O33 1.965 . S
Zn27 O25 1.950 . S
Zn27 O34 1.938 . S
Zn27 O35 1.906 . S
Zn27 O45 1.953 . S
Zn28 O25 1.945 . S
Zn28 O30 1.932 . S
Zn28 O37 1.977 . S
Zn28 O38 1.910 . S
O29 Zn26 1.933 . S
O29 C40 1.226 . S
O30 Zn28 1.932 . S
O30 C40 1.307 . S
O31 Zn24 1.919 . S
O31 C42 1.253 . S
O32 Zn26 1.941 . S
O32 C42 1.283 . S
O33 Zn26 1.965 . S
O33 C41 1.303 . S
O34 Zn27 1.938 . S
O34 C41 1.247 . S
O35 Zn27 1.906 . S
O35 C43 1.304 . S
O36 Zn24 1.924 . S
O36 C44 1.311 . S
O37 Zn28 1.977 . S
O37 C43 1.272 . S
O38 Zn28 1.910 . S
O38 C44 1.231 . S
C39 O23 1.225 . S
C39 O45 1.298 . S
C40 O29 1.226 . S
C40 O30 1.307 . S
C41 O33 1.303 . S
C41 O34 1.247 . S
C42 O31 1.253 . S
C42 O32 1.283 . S
C43 O35 1.304 . S
C43 O37 1.272 . S
C44 O36 1.311 . S
C44 O38 1.231 . S
O45 Zn27 1.953 . S
O45 C39 1.298 . S
H46 C47 0.949 1_655 S
C47 H46 0.949 1_455 S
C47 C48 1.395 . S
C47 C49 1.391 . S
C48 C47 1.395 . S
C48 C51 1.390 1_545 S
C49 C47 1.391 . S
C49 C53 1.387 1_545 S
C49 C54 1.486 1_455 S
H50 C51 0.950 . S
C51 C48 1.390 1_565 S
C51 H50 0.950 . S
C51 C52 1.378 . S
C52 C51 1.378 . S
C52 C53 1.409 . S
C53 C49 1.387 1_565 S
C53 C52 1.409 . S
C53 H55 0.951 . S
C54 C49 1.486 1_655 S
C54 C56 1.391 . S
C54 C58 1.399 1_655 S
H55 C53 0.951 . S
C56 C54 1.391 . S
C56 C57 1.390 . S
C56 H61 0.949 . S
C57 C56 1.390 . S
C57 C62 1.399 . S
C58 C54 1.399 1_455 S
C58 H59 0.950 . S
C58 C60 1.375 . S
H59 C58 0.950 . S
C60 C58 1.375 . S
C60 C62 1.382 1_455 S
C60 H64 0.950 . S
H61 C56 0.949 . S
C62 C57 1.399 . S
C62 C60 1.382 1_655 S
C62 H63 0.952 . S
H63 C62 0.952 . S
H64 C60 0.950 . S
H65 C66 0.949 . S
C66 H65 0.949 . S
C66 C67 1.395 1_455 S
C66 C68 1.391 1_455 S
C67 C66 1.395 1_655 S
C67 C70 1.390 1_545 S
C68 C66 1.391 1_655 S
C68 C72 1.387 1_545 S
C68 C73 1.491 1_655 S
H69 C70 0.950 . S
C70 C67 1.390 1_565 S
C70 H69 0.950 . S
C70 C71 1.378 . S
C71 C70 1.378 . S
C71 C72 1.409 . S
C72 C68 1.387 1_565 S
C72 C71 1.409 . S
C72 H74 0.951 . S
C73 C68 1.491 1_455 S
C73 C75 1.382 . S
C73 C77 1.404 1_455 S
H74 C72 0.951 . S
C75 C73 1.382 . S
C75 C76 1.390 . S
C75 H80 0.949 . S
C76 C75 1.390 . S
C76 C81 1.399 . S
C77 C73 1.404 1_655 S
C77 H78 0.950 . S
C77 C79 1.375 1_655 S
H78 C77 0.950 . S
C79 C77 1.375 1_455 S
C79 C81 1.381 . S
C79 H83 0.950 1_455 S
H80 C75 0.949 . S
C81 C76 1.399 . S
C81 C79 1.381 . S
C81 H82 0.952 . S
H82 C81 0.952 . S
H83 C79 0.950 1_655 S
H84 C85 0.949 . S
C85 H84 0.949 . S
C85 C86 1.395 . S
C85 C87 1.391 . S
C86 C85 1.395 . S
C86 C89 1.390 . S
C87 C85 1.391 . S
C87 C91 1.387 . S
C87 C92 1.491 . S
H88 C89 0.950 . S
C89 C86 1.390 . S
C89 H88 0.950 . S
C89 C90 1.378 . S
C90 C89 1.378 . S
C90 C91 1.409 . S
C91 C87 1.387 . S
C91 C90 1.409 . S
C91 H93 0.951 . S
C92 C87 1.491 . S
C92 C94 1.382 . S
C92 C96 1.404 . S
H93 C91 0.951 . S
C94 C92 1.382 . S
C94 C95 1.390 . S
C94 H99 0.949 . S
C95 C94 1.390 . S
C95 C100 1.399 . S
C96 C92 1.404 . S
C96 H97 0.950 . S
C96 C98 1.375 . S
H97 C96 0.950 . S
C98 C96 1.375 . S
C98 C100 1.382 . S
C98 H102 0.950 1_556 S
H99 C94 0.949 . S
C100 C95 1.399 . S
C100 C98 1.382 . S
C100 H101 0.952 . S
H101 C100 0.952 . S
H102 C98 0.950 1_554 S
H103 C104 0.949 . S
C104 H103 0.949 . S
C104 C105 1.395 . S
C104 C106 1.391 . S
C105 C104 1.395 . S
C105 C108 1.390 . S
C106 C104 1.391 . S
C106 C110 1.387 . S
C106 C111 1.491 . S
H107 C108 0.950 . S
C108 C105 1.390 . S
C108 H107 0.950 . S
C108 C109 1.378 . S
C109 C108 1.378 . S
C109 C110 1.409 . S
C110 C106 1.387 . S
C110 C109 1.409 . S
C110 H112 0.951 . S
C111 C106 1.491 . S
C111 C113 1.382 . S
C111 C115 1.404 . S
H112 C110 0.951 . S
C113 C111 1.382 . S
C113 C114 1.390 . S
C113 H118 0.949 . S
C114 C113 1.390 . S
C114 C119 1.399 . S
C115 C111 1.404 . S
C115 H116 0.950 . S
C115 C117 1.375 . S
H116 C115 0.950 . S
C117 C115 1.375 . S
C117 C119 1.382 . S
C117 H121 0.950 . S
H118 C113 0.949 . S
C119 C114 1.399 . S
C119 C117 1.382 . S
C119 H120 0.952 . S
H120 C119 0.952 . S
H121 C117 0.950 . S
C122 C123 1.349 . S
C122 C124 1.327 . S
C122 H147 0.935 1_554 S
C123 C122 1.349 . S
C123 C139 1.349 . S
C124 C122 1.327 . S
C124 C143 1.429 . S
C124 H148 0.950 . S
C125 C142 1.574 . S
C125 C144 1.368 . S
C125 H149 0.949 . S
H126 C130 0.949 . S
C127 C128 1.349 . S
C127 C129 1.327 . S
C127 H150 0.950 . S
C128 C127 1.349 . S
C128 C140 1.349 . S
C129 C127 1.327 . S
C129 C145 1.429 . S
C129 H151 0.950 . S
C130 H126 0.949 . S
C130 C138 1.574 . S
C130 C146 1.368 . S
H131 C139 0.950 . S
H132 C137 0.950 . S
H133 C138 0.949 . S
H134 C140 0.950 . S
H135 C141 0.950 . S
H136 C142 0.949 . S
C137 H132 0.950 . S
C137 C139 1.327 . S
C137 C143 1.429 . S
C138 C130 1.574 . S
C138 H133 0.949 . S
C138 C144 1.368 . S
C139 C123 1.349 . S
C139 H131 0.950 . S
C139 C137 1.327 . S
C140 C128 1.349 . S
C140 H134 0.950 . S
C140 C141 1.327 . S
C141 H135 0.950 . S
C141 C140 1.327 . S
C141 C145 1.429 . S
C142 C125 1.574 . S
C142 H136 0.949 . S
C142 C146 1.368 . S
C143 C124 1.429 . S
C143 C137 1.429 . S
C143 C144 1.523 . S
C144 C125 1.368 . S
C144 C138 1.368 . S
C144 C143 1.523 . S
C145 C129 1.429 . S
C145 C141 1.429 . S
C145 C146 1.523 . S
C146 C130 1.368 . S
C146 C142 1.368 . S
C146 C145 1.523 . S
H147 C122 0.935 1_556 S
H148 C124 0.950 . S
H149 C125 0.949 . S
H150 C127 0.950 . S
H151 C129 0.950 . S
C152 C153 1.349 . S
C152 C154 1.327 . S
C152 H177 0.950 . S
C153 C152 1.349 . S
C153 C169 1.349 1_556 S
C154 C152 1.327 . S
C154 C173 1.429 . S
C154 H178 0.950 . S
C155 C172 1.574 . S
C155 C174 1.368 . S
C155 H179 0.949 1_556 S
H156 C160 0.949 . S
C157 C158 1.349 . S
C157 C159 1.327 . S
C157 H180 0.950 . S
C158 C157 1.349 . S
C158 C170 1.349 . S
C159 C157 1.327 . S
C159 C175 1.429 . S
C159 H181 0.950 . S
C160 H156 0.949 . S
C160 C168 1.574 . S
C160 C176 1.368 . S
H161 C169 0.950 . S
H162 C167 0.949 . S
H163 C168 0.949 . S
H164 C170 0.950 . S
H165 C171 0.950 . S
H166 C172 0.949 . S
C167 H162 0.949 . S
C167 C169 1.327 . S
C167 C173 1.430 1_554 S
C168 C160 1.574 . S
C168 H163 0.949 . S
C168 C174 1.368 . S
C169 C153 1.349 1_554 S
C169 H161 0.950 . S
C169 C167 1.327 . S
C170 C158 1.349 . S
C170 H164 0.950 . S
C170 C171 1.327 . S
C171 H165 0.950 . S
C171 C170 1.327 . S
C171 C175 1.429 . S
C172 C155 1.574 . S
C172 H166 0.949 . S
C172 C176 1.368 . S
C173 C154 1.429 . S
C173 C167 1.430 1_556 S
C173 C174 1.523 . S
C174 C155 1.368 . S
C174 C168 1.368 . S
C174 C173 1.523 . S
C175 C159 1.429 . S
C175 C171 1.429 . S
C175 C176 1.523 . S
C176 C160 1.368 . S
C176 C172 1.368 . S
C176 C175 1.523 . S
H177 C152 0.950 . S
H178 C154 0.950 . S
H179 C155 0.949 1_554 S
H180 C157 0.950 . S
H181 C159 0.950 . S
C182 C183 1.349 1_556 S
C182 C184 1.327 . S
C182 H207 0.950 . S
C183 C182 1.349 1_554 S
C183 C199 1.349 . S
C184 C182 1.327 . S
C184 C203 1.429 1_556 S
C184 H208 0.950 . S
C185 C202 1.574 . S
C185 C204 1.368 . S
C185 H209 0.949 . S
H186 C190 0.949 . S
C187 C188 1.349 . S
C187 C189 1.327 . S
C187 H210 0.950 . S
C188 C187 1.349 . S
C188 C200 1.349 . S
C189 C187 1.327 . S
C189 C205 1.429 . S
C189 H211 0.950 . S
C190 H186 0.949 . S
C190 C198 1.574 . S
C190 C206 1.368 . S
H191 C199 0.950 . S
H192 C197 0.950 . S
H193 C198 0.949 1_556 S
H194 C200 0.950 . S
H195 C201 0.950 . S
H196 C202 0.949 . S
C197 H192 0.950 . S
C197 C199 1.327 . S
C197 C203 1.429 . S
C198 C190 1.574 . S
C198 H193 0.949 1_554 S
C198 C204 1.368 . S
C199 C183 1.349 . S
C199 H191 0.950 . S
C199 C197 1.327 . S
C200 C188 1.349 . S
C200 H194 0.950 . S
C200 C201 1.327 . S
C201 H195 0.950 . S
C201 C200 1.327 . S
C201 C205 1.429 . S
C202 C185 1.574 . S
C202 H196 0.949 . S
C202 C206 1.368 . S
C203 C184 1.429 1_554 S
C203 C197 1.429 . S
C203 C204 1.523 . S
C204 C185 1.368 . S
C204 C198 1.368 . S
C204 C203 1.523 . S
C205 C189 1.429 . S
C205 C201 1.429 . S
C205 C206 1.523 . S
C206 C190 1.368 . S
C206 C202 1.368 . S
C206 C205 1.523 . S
H207 C182 0.950 . S
H208 C184 0.950 . S
H209 C185 0.949 . S
H210 C187 0.950 . S
H211 C189 0.950 . S
C212 C213 1.349 . S
C212 C214 1.327 . S
C212 H237 0.950 1_556 S
C213 C212 1.349 . S
C213 C229 1.349 . S
C214 C212 1.327 . S
C214 C233 1.429 . S
C214 H238 0.950 . S
C215 C232 1.574 . S
C215 C234 1.368 . S
C215 H239 0.949 . S
H216 C220 0.949 . S
C217 C218 1.349 . S
C217 C219 1.327 . S
C217 H240 0.950 . S
C218 C217 1.349 . S
C218 C230 1.349 . S
C219 C217 1.327 . S
C219 C235 1.429 . S
C219 H241 0.950 . S
C220 H216 0.949 . S
C220 C228 1.574 . S
C220 C236 1.368 . S
H221 C229 0.950 . S
H222 C227 0.950 . S
H223 C228 0.949 . S
H224 C230 0.950 . S
H225 C231 0.950 . S
H226 C232 0.949 . S
C227 H222 0.950 . S
C227 C229 1.327 . S
C227 C233 1.429 . S
C228 C220 1.574 . S
C228 H223 0.949 . S
C228 C234 1.368 . S
C229 C213 1.349 . S
C229 H221 0.950 . S
C229 C227 1.327 . S
C230 C218 1.349 . S
C230 H224 0.950 . S
C230 C231 1.327 . S
C231 H225 0.950 . S
C231 C230 1.327 . S
C231 C235 1.429 . S
C232 C215 1.574 . S
C232 H226 0.949 . S
C232 C236 1.368 . S
C233 C214 1.429 . S
C233 C227 1.429 . S
C233 C234 1.523 . S
C234 C215 1.368 . S
C234 C228 1.368 . S
C234 C233 1.523 . S
C235 C219 1.429 . S
C235 C231 1.429 . S
C235 C236 1.523 . S
C236 C220 1.368 . S
C236 C232 1.368 . S
C236 C235 1.523 . S
H237 C212 0.950 1_554 S
H238 C214 0.950 . S
H239 C215 0.949 . S
H240 C217 0.950 . S
H241 C219 0.950 . S
C242 C243 1.349 . S
C242 C244 1.327 . S
C242 H267 0.950 . S
C243 C242 1.349 . S
C243 C259 1.349 . S
C244 C242 1.327 . S
C244 C263 1.429 . S
C244 H268 0.950 . S
C245 C262 1.574 . S
C245 C264 1.368 . S
C245 H269 0.949 . S
H246 C250 0.949 . S
C247 C248 1.349 . S
C247 C249 1.327 . S
C247 H270 0.950 . S
C248 C247 1.349 . S
C248 C260 1.349 . S
C249 C247 1.327 . S
C249 C265 1.429 . S
C249 H271 0.950 . S
C250 H246 0.949 . S
C250 C258 1.574 . S
C250 C266 1.368 . S
H251 C259 0.950 . S
H252 C257 0.950 . S
H253 C258 0.949 . S
H254 C260 0.950 . S
H255 C261 0.950 . S
H256 C262 0.949 . S
C257 H252 0.950 . S
C257 C259 1.327 . S
C257 C263 1.429 . S
C258 C250 1.574 . S
C258 H253 0.949 . S
C258 C264 1.368 . S
C259 C243 1.349 . S
C259 H251 0.950 . S
C259 C257 1.327 . S
C260 C248 1.349 . S
C260 H254 0.950 . S
C260 C261 1.327 . S
C261 H255 0.950 . S
C261 C260 1.327 . S
C261 C265 1.429 . S
C262 C245 1.574 . S
C262 H256 0.949 . S
C262 C266 1.368 . S
C263 C244 1.429 . S
C263 C257 1.429 . S
C263 C264 1.523 . S
C264 C245 1.368 . S
C264 C258 1.368 . S
C264 C263 1.523 . S
C265 C249 1.429 . S
C265 C261 1.429 . S
C265 C266 1.523 . S
C266 C250 1.368 . S
C266 C262 1.368 . S
C266 C265 1.523 . S
H267 C242 0.950 . S
H268 C244 0.950 . S
H269 C245 0.949 . S
H270 C247 0.950 . S
H271 C249 0.950 . S
C272 C273 1.349 . S
C272 C274 1.327 . S
C272 H297 0.950 . S
C273 C272 1.349 . S
C273 C289 1.349 . S
C274 C272 1.327 . S
C274 C293 1.429 . S
C274 H298 0.950 . S
C275 C292 1.574 . S
C275 C294 1.368 . S
C275 H299 0.949 . S
H276 C280 0.949 . S
C277 C278 1.349 . S
C277 C279 1.327 . S
C277 H300 0.950 . S
C278 C277 1.349 . S
C278 C290 1.349 . S
C279 C277 1.327 . S
C279 C295 1.429 . S
C279 H301 0.950 . S
C280 H276 0.949 . S
C280 C288 1.574 . S
C280 C296 1.368 . S
H281 C289 0.950 . S
H282 C287 0.950 . S
H283 C288 0.949 . S
H284 C290 0.950 . S
H285 C291 0.950 . S
H286 C292 0.949 . S
C287 H282 0.950 . S
C287 C289 1.327 . S
C287 C293 1.429 . S
C288 C280 1.574 . S
C288 H283 0.949 . S
C288 C294 1.368 . S
C289 C273 1.349 . S
C289 H281 0.950 . S
C289 C287 1.327 . S
C290 C278 1.349 . S
C290 H284 0.950 . S
C290 C291 1.327 . S
C291 H285 0.950 . S
C291 C290 1.327 . S
C291 C295 1.429 . S
C292 C275 1.574 . S
C292 H286 0.949 . S
C292 C296 1.368 . S
C293 C274 1.429 . S
C293 C287 1.429 . S
C293 C294 1.523 . S
C294 C275 1.368 . S
C294 C288 1.368 . S
C294 C293 1.523 . S
C295 C279 1.429 . S
C295 C291 1.429 . S
C295 C296 1.523 . S
C296 C280 1.368 . S
C296 C292 1.368 . S
C296 C295 1.523 . S
H297 C272 0.950 . S
H298 C274 0.950 . S
H299 C275 0.949 . S
H300 C277 0.950 . S
H301 C279 0.950 . S
C302 C303 1.349 . S
C302 C304 1.327 . S
C302 H327 0.950 . S
C303 C302 1.349 . S
C303 C319 1.349 . S
C304 C302 1.327 . S
C304 C323 1.429 . S
C304 H328 0.950 . S
C305 C322 1.574 . S
C305 C324 1.368 . S
C305 H329 0.949 . S
H306 C310 0.949 . S
C307 C308 1.349 . S
C307 C309 1.327 . S
C307 H330 0.950 . S
C308 C307 1.349 . S
C308 C320 1.349 . S
C309 C307 1.327 . S
C309 C325 1.429 . S
C309 H331 0.950 . S
C310 H306 0.949 . S
C310 C318 1.574 . S
C310 C326 1.368 . S
H311 C319 0.950 . S
H312 C317 0.950 . S
H313 C318 0.949 . S
H314 C320 0.950 . S
H315 C321 0.950 . S
H316 C322 0.949 . S
C317 H312 0.950 . S
C317 C319 1.327 . S
C317 C323 1.429 . S
C318 C310 1.574 . S
C318 H313 0.949 . S
C318 C324 1.368 . S
C319 C303 1.349 . S
C319 H311 0.950 . S
C319 C317 1.327 . S
C320 C308 1.349 . S
C320 H314 0.950 . S
C320 C321 1.327 . S
C321 H315 0.950 . S
C321 C320 1.327 . S
C321 C325 1.429 . S
C322 C305 1.574 . S
C322 H316 0.949 . S
C322 C326 1.368 . S
C323 C304 1.429 . S
C323 C317 1.429 . S
C323 C324 1.523 . S
C324 C305 1.368 . S
C324 C318 1.368 . S
C324 C323 1.523 . S
C325 C309 1.429 . S
C325 C321 1.429 . S
C325 C326 1.523 . S
C326 C310 1.368 . S
C326 C322 1.368 . S
C326 C325 1.523 . S
H327 C302 0.950 . S
H328 C304 0.950 . S
H329 C305 0.949 . S
H330 C307 0.950 . S
H331 C309 0.950 . S
C332 C333 1.349 . S
C332 C334 1.327 . S
C332 H357 0.950 . S
C333 C332 1.349 . S
C333 C349 1.349 . S
C334 C332 1.327 . S
C334 C353 1.429 . S
C334 H358 0.950 . S
C335 C352 1.574 . S
C335 C354 1.368 . S
C335 H359 0.949 . S
H336 C340 0.949 . S
C337 C338 1.349 . S
C337 C339 1.327 . S
C337 H360 0.950 . S
C338 C337 1.349 . S
C338 C350 1.349 . S
C339 C337 1.327 . S
C339 C355 1.429 . S
C339 H361 0.950 . S
C340 H336 0.949 . S
C340 C348 1.574 . S
C340 C356 1.368 . S
H341 C349 0.950 . S
H342 C347 0.950 . S
H343 C348 0.949 . S
H344 C350 0.950 . S
H345 C351 0.950 . S
H346 C352 0.949 . S
C347 H342 0.950 . S
C347 C349 1.327 . S
C347 C353 1.429 . S
C348 C340 1.574 . S
C348 H343 0.949 . S
C348 C354 1.368 . S
C349 C333 1.349 . S
C349 H341 0.950 . S
C349 C347 1.327 . S
C350 C338 1.349 . S
C350 H344 0.950 . S
C350 C351 1.327 . S
C351 H345 0.950 . S
C351 C350 1.327 . S
C351 C355 1.429 . S
C352 C335 1.574 . S
C352 H346 0.949 . S
C352 C356 1.368 . S
C353 C334 1.429 . S
C353 C347 1.429 . S
C353 C354 1.523 . S
C354 C335 1.368 . S
C354 C348 1.368 . S
C354 C353 1.523 . S
C355 C339 1.429 . S
C355 C351 1.429 . S
C355 C356 1.523 . S
C356 C340 1.368 . S
C356 C352 1.368 . S
C356 C355 1.523 . S
H357 C332 0.950 . S
H358 C334 0.950 . S
H359 C335 0.949 . S
H360 C337 0.950 . S
H361 C339 0.950 . S
C362 C363 1.349 1_565 S
C362 C364 1.327 . S
C362 H387 0.950 . S
C363 C362 1.349 1_545 S
C363 C379 1.345 1_455 S
C364 C362 1.327 . S
C364 C383 1.429 1_565 S
C364 H388 0.950 . S
C365 C382 1.574 . S
C365 C384 1.368 1_655 S
C365 H389 0.949 . S
H366 C370 0.949 . S
C367 C368 1.349 1_655 S
C367 C369 1.327 . S
C367 H390 0.950 . S
C368 C367 1.349 1_455 S
C368 C380 1.349 1_545 S
C369 C367 1.327 . S
C369 C385 1.429 1_655 S
C369 H391 0.950 . S
C370 H366 0.949 . S
C370 C378 1.574 . S
C370 C386 1.368 1_565 S
H371 C379 0.952 . S
H372 C377 0.950 . S
H373 C378 0.949 . S
H374 C380 0.950 . S
H375 C381 0.950 . S
H376 C382 0.949 . S
C377 H372 0.950 . S
C377 C379 1.329 . S
C377 C383 1.429 1_655 S
C378 C370 1.574 . S
C378 H373 0.949 . S
C378 C384 1.368 1_565 S
C379 C363 1.345 1_655 S
C379 H371 0.952 . S
C379 C377 1.329 . S
C380 C368 1.349 1_565 S
C380 H374 0.950 . S
C380 C381 1.327 . S
C381 H375 0.950 . S
C381 C380 1.327 . S
C381 C385 1.429 1_565 S
C382 C365 1.574 . S
C382 H376 0.949 . S
C382 C386 1.368 1_655 S
C383 C364 1.429 1_545 S
C383 C377 1.429 1_455 S
C383 C384 1.523 . S
C384 C365 1.368 1_455 S
C384 C378 1.368 1_545 S
C384 C383 1.523 . S
C385 C369 1.429 1_455 S
C385 C381 1.429 1_545 S
C385 C386 1.523 . S
C386 C370 1.368 1_545 S
C386 C382 1.368 1_455 S
C386 C385 1.523 . S
H387 C362 0.950 . S
H388 C364 0.950 . S
H389 C365 0.949 . S
H390 C367 0.950 . S
H391 C369 0.950 . S
C392 C393 1.349 1_565 S
C392 C394 1.327 . S
C392 H417 0.950 . S
C393 C392 1.349 1_545 S
C393 C409 1.349 1_655 S
C394 C392 1.327 . S
C394 C413 1.429 1_565 S
C394 H418 0.950 . S
C395 C412 1.574 . S
C395 C414 1.368 1_455 S
C395 H419 0.949 . S
H396 C400 0.949 . S
C397 C398 1.349 1_455 S
C397 C399 1.327 . S
C397 H420 0.950 . S
C398 C397 1.349 1_655 S
C398 C410 1.349 1_545 S
C399 C397 1.327 . S
C399 C415 1.429 1_455 S
C399 H421 0.950 . S
C400 H396 0.949 . S
C400 C408 1.574 . S
C400 C416 1.368 1_565 S
H401 C409 0.950 . S
H402 C407 0.950 . S
H403 C408 0.949 . S
H404 C410 0.950 . S
H405 C411 0.950 . S
H406 C412 0.949 . S
C407 H402 0.950 . S
C407 C409 1.327 . S
C407 C413 1.429 1_455 S
C408 C400 1.574 . S
C408 H403 0.949 . S
C408 C414 1.368 1_565 S
C409 C393 1.349 1_455 S
C409 H401 0.950 . S
C409 C407 1.327 . S
C410 C398 1.349 1_565 S
C410 H404 0.950 . S
C410 C411 1.327 . S
C411 H405 0.950 . S
C411 C410 1.327 . S
C411 C415 1.429 1_565 S
C412 C395 1.574 . S
C412 H406 0.949 . S
C412 C416 1.368 1_455 S
C413 C394 1.429 1_545 S
C413 C407 1.429 1_655 S
C413 C414 1.523 . S
C414 C395 1.368 1_655 S
C414 C408 1.368 1_545 S
C414 C413 1.523 . S
C415 C399 1.429 1_655 S
C415 C411 1.429 1_545 S
C415 C416 1.523 . S
C416 C400 1.368 1_545 S
C416 C412 1.368 1_655 S
C416 C415 1.523 . S
H417 C392 0.950 . S
H418 C394 0.950 . S
H419 C395 0.949 . S
H420 C397 0.950 . S
H421 C399 0.950 . S
C422 C423 1.349 . S
C422 C424 1.327 . S
C422 H447 0.950 . S
C423 C422 1.349 . S
C423 C439 1.349 . S
C424 C422 1.327 . S
C424 C443 1.429 . S
C424 H448 0.950 . S
C425 C442 1.574 . S
C425 C444 1.368 . S
C425 H449 0.949 . S
H426 C430 0.949 . S
C427 C428 1.349 . S
C427 C429 1.327 . S
C427 H450 0.950 . S
C428 C427 1.349 . S
C428 C440 1.349 . S
C429 C427 1.327 . S
C429 C445 1.429 . S
C429 H451 0.950 . S
C430 H426 0.949 . S
C430 C438 1.574 . S
C430 C446 1.368 . S
H431 C439 0.950 . S
H432 C437 0.950 . S
H433 C438 0.949 . S
H434 C440 0.950 . S
H435 C441 0.950 . S
H436 C442 0.949 . S
C437 H432 0.950 . S
C437 C439 1.327 . S
C437 C443 1.429 . S
C438 C430 1.574 . S
C438 H433 0.949 . S
C438 C444 1.368 . S
C439 C423 1.349 . S
C439 H431 0.950 . S
C439 C437 1.327 . S
C440 C428 1.349 . S
C440 H434 0.950 . S
C440 C441 1.327 . S
C441 H435 0.950 . S
C441 C440 1.327 . S
C441 C445 1.429 . S
C442 C425 1.574 . S
C442 H436 0.949 . S
C442 C446 1.368 . S
C443 C424 1.429 . S
C443 C437 1.429 . S
C443 C444 1.523 . S
C444 C425 1.368 . S
C444 C438 1.368 . S
C444 C443 1.523 . S
C445 C429 1.429 . S
C445 C441 1.429 . S
C445 C446 1.523 . S
C446 C430 1.368 . S
C446 C442 1.368 . S
C446 C445 1.523 . S
H447 C422 0.950 . S
H448 C424 0.950 . S
H449 C425 0.949 . S
H450 C427 0.950 . S
H451 C429 0.950 . S
C452 C453 1.349 . S
C452 C454 1.327 . S
C452 H477 0.950 . S
C453 C452 1.349 . S
C453 C469 1.349 . S
C454 C452 1.327 . S
C454 C473 1.429 . S
C454 H478 0.950 . S
C455 C472 1.574 . S
C455 C474 1.368 . S
C455 H479 0.949 . S
H456 C460 0.949 . S
C457 C458 1.349 . S
C457 C459 1.327 . S
C457 H480 0.950 . S
C458 C457 1.349 . S
C458 C470 1.349 . S
C459 C457 1.327 . S
C459 C475 1.429 . S
C459 H481 0.950 . S
C460 H456 0.949 . S
C460 C468 1.574 . S
C460 C476 1.368 . S
H461 C469 0.950 . S
H462 C467 0.950 . S
H463 C468 0.949 . S
H464 C470 0.950 . S
H465 C471 0.950 . S
H466 C472 0.949 . S
C467 H462 0.950 . S
C467 C469 1.327 . S
C467 C473 1.429 . S
C468 C460 1.574 . S
C468 H463 0.949 . S
C468 C474 1.368 . S
C469 C453 1.349 . S
C469 H461 0.950 . S
C469 C467 1.327 . S
C470 C458 1.349 . S
C470 H464 0.950 . S
C470 C471 1.327 . S
C471 H465 0.950 . S
C471 C470 1.327 . S
C471 C475 1.429 . S
C472 C455 1.574 . S
C472 H466 0.949 . S
C472 C476 1.368 . S
C473 C454 1.429 . S
C473 C467 1.429 . S
C473 C474 1.523 . S
C474 C455 1.368 . S
C474 C468 1.368 . S
C474 C473 1.523 . S
C475 C459 1.429 . S
C475 C471 1.429 . S
C475 C476 1.523 . S
C476 C460 1.368 . S
C476 C472 1.368 . S
C476 C475 1.523 . S
H477 C452 0.950 . S
H478 C454 0.950 . S
H479 C455 0.949 . S
H480 C457 0.950 . S
H481 C459 0.950 . S
C128 C109 1.611 . S
C123 C21 1.601 . S
C153 C19 1.378 . S
C158 C95 1.311 . S
C183 C18 1.325 . S
C188 C114 1.289 . S
C213 C20 1.580 . S
C218 C90 1.594 . S
C243 C44 1.601 . S
C248 C71 1.611 . S
C273 C42 1.363 . S
C278 C57 1.311 . S
C308 C76 1.289 . S
C303 C41 1.325 . S
C338 C52 1.594 . S
C333 C43 1.580 . S
C363 C16 1.561 . S
C368 C48 1.550 . S
C393 C17 1.517 . S
C398 C67 1.505 . S
C428 C86 1.550 . S
C423 C39 1.561 . S
C453 C40 1.517 . S
C458 C105 1.505 . S
