# Generated by pormake.
# Topology rtl, (3,6)-cn, num edge types: 1
# Building blocks:
#     Node 0, Type 0, BuildingBlock: CUQRIR_clean_linker_1, # of connection points: 3
#     Node 1, Type 0, BuildingBlock: CUQRIR_clean_linker_1, # of connection points: 3
#     Node 2, Type 0, BuildingBlock: CUQRIR_clean_linker_1, # of connection points: 3
#     Node 3, Type 0, BuildingBlock: CUQRIR_clean_linker_1, # of connection points: 3
#     Node 4, Type 1, BuildingBlock: VOLQOD_clean_sbu_1, # of connection points: 6
#     Node 5, Type 1, BuildingBlock: VOLQOD_clean_sbu_1, # of connection points: 6
#     Edge 6, Type (0, 1), BuildingBlock: XIVTED_clean_linker_0, # of connection points: 2
#     Edge 7, Type (0, 1), BuildingBlock: XIVTED_clean_linker_0, # of connection points: 2
#     Edge 8, Type (0, 1), BuildingBlock: XIVTED_clean_linker_0, # of connection points: 2
#     Edge 9, Type (0, 1), BuildingBlock: XIVTED_clean_linker_0, # of connection points: 2
#     Edge 10, Type (0, 1), BuildingBlock: XIVTED_clean_linker_0, # of connection points: 2
#     Edge 11, Type (0, 1), BuildingBlock: XIVTED_clean_linker_0, # of connection points: 2
#     Edge 12, Type (0, 1), BuildingBlock: XIVTED_clean_linker_0, # of connection points: 2
#     Edge 13, Type (0, 1), BuildingBlock: XIVTED_clean_linker_0, # of connection points: 2
#     Edge 14, Type (0, 1), BuildingBlock: XIVTED_clean_linker_0, # of connection points: 2
#     Edge 15, Type (0, 1), BuildingBlock: XIVTED_clean_linker_0, # of connection points: 2
#     Edge 16, Type (0, 1), BuildingBlock: XIVTED_clean_linker_0, # of connection points: 2
#     Edge 17, Type (0, 1), BuildingBlock: XIVTED_clean_linker_0, # of connection points: 2
# Relax obj value: 0.040
# Max RMSD: 0.143
# Mean RMSD: 0.104
data_MOF--net-rtl--node1-VOLQOD_clean_sbu_1--node2-CUQRIR_clean_linker_1--edge1-XIVTED_clean_linker_0
_symmetry_space_group_name_H-M    P1
_symmetry_Int_Tables_number       1
_symmetry_cell_setting            triclinic
loop_
_symmetry_equiv_pos_as_xyz
'x, y, z'
_cell_length_a     35.69415
_cell_length_b     36.00639
_cell_length_c     20.117007
_cell_angle_alpha  90.04672
_cell_angle_beta   90.209317
_cell_angle_gamma 89.732959
loop_
_atom_site_label
_atom_site_type_symbol
_atom_site_fract_x
_atom_site_fract_y
_atom_site_fract_z
_atom_type_partial_charge
C0 C 0.16854 0.74034 0.95647 0.0
N1 N 0.14665 0.76833 0.97919 0.0
N2 N 0.18677 0.72351 0.0074 0.0
C3 C 0.17409 0.73121 0.88411 0.0
C4 C 0.17523 0.74236 0.06199 0.0
N5 N 0.15115 0.77001 0.04474 0.0
C6 C 0.18854 0.73439 0.13171 0.0
H7 H 0.19127 0.70578 0.87716 0.0
H8 H 0.18788 0.75497 0.85922 0.0
H9 H 0.14662 0.72691 0.85953 0.0
H10 H 0.21501 0.74961 0.14089 0.0
H11 H 0.1943 0.70444 0.13894 0.0
H12 H 0.16744 0.74325 0.16889 0.0
C13 C 0.67983 0.74507 0.54719 0.0
N14 N 0.65459 0.7196 0.5265 0.0
N15 N 0.69389 0.76389 0.49494 0.0
C16 C 0.69002 0.7525 0.6186 0.0
C17 C 0.67639 0.74905 0.44146 0.0
N18 N 0.65207 0.72225 0.46064 0.0
C19 C 0.68643 0.75772 0.37052 0.0
H20 H 0.69892 0.78176 0.62536 0.0
H21 H 0.71371 0.73415 0.63314 0.0
H22 H 0.666 0.74667 0.65182 0.0
H23 H 0.71546 0.76835 0.36681 0.0
H24 H 0.66709 0.77948 0.35147 0.0
H25 H 0.68375 0.73273 0.3386 0.0
C26 C 0.82429 0.26196 0.06032 0.0
N27 N 0.84738 0.23395 0.04156 0.0
N28 N 0.80848 0.27833 0.00654 0.0
C29 C 0.81412 0.27079 0.13106 0.0
C30 C 0.82246 0.25905 0.95448 0.0
N31 N 0.8462 0.23215 0.97563 0.0
C32 C 0.81164 0.26561 0.88315 0.0
H33 H 0.78817 0.25562 0.14405 0.0
H34 H 0.80858 0.30093 0.13713 0.0
H35 H 0.83676 0.26213 0.16574 0.0
H36 H 0.80319 0.295 0.87535 0.0
H37 H 0.78749 0.24765 0.87034 0.0
H38 H 0.83521 0.25848 0.84956 0.0
C39 C 0.31569 0.23919 0.44343 0.0
N40 N 0.34025 0.26613 0.46072 0.0
N41 N 0.29979 0.22422 0.49833 0.0
C42 C 0.30408 0.23056 0.37308 0.0
C43 C 0.3155 0.24319 0.54942 0.0
N44 N 0.3398 0.26873 0.52653 0.0
C45 C 0.30798 0.2363 0.62188 0.0
H46 H 0.27433 0.2219 0.37073 0.0
H47 H 0.32172 0.20747 0.35407 0.0
H48 H 0.30793 0.25496 0.3402 0.0
H49 H 0.29836 0.20743 0.63026 0.0
H50 H 0.28595 0.25586 0.6391 0.0
H51 H 0.33359 0.24139 0.65193 0.0
O52 O 0.90545 0.97349 0.50435 0.0
Zn53 Zn 0.94192 0.01626 0.50854 0.0
O54 O -0.00603 -0.00179 0.50926 0.0
Zn55 Zn 0.01982 0.016 0.58902 0.0
Zn56 Zn -0.00508 0.94411 0.50962 0.0
Zn57 Zn 0.0198 0.01582 0.42974 0.0
O58 O 0.06472 0.04644 0.5648 0.0
O59 O 0.06633 0.04431 0.45442 0.0
O60 O 0.93091 0.04651 0.59139 0.0
O61 O 0.98576 0.04807 0.64382 0.0
O62 O 0.0371 0.9738 0.64818 0.0
O63 O 0.01794 0.92395 0.59318 0.0
O64 O 0.02384 0.9236 0.43198 0.0
O65 O 0.93213 0.04894 0.4284 0.0
O66 O 0.03537 0.97344 0.37034 0.0
O67 O 0.9867 0.04963 0.37578 0.0
C68 C 0.91018 0.9384 0.50294 0.0
C69 C 0.08009 0.05478 0.50982 0.0
C70 C 0.03372 0.93871 0.64342 0.0
C71 C 0.95134 0.05722 0.63983 0.0
C72 C 0.03661 0.93849 0.37943 0.0
C73 C 0.95262 0.05985 0.38052 0.0
O74 O 0.9428 0.92399 0.50443 0.0
O75 O 0.58326 0.47471 0.00118 0.0
Zn76 Zn 0.5448 0.51609 0.99625 0.0
O77 O 0.4938 0.49625 0.99449 0.0
Zn78 Zn 0.46757 0.51509 0.91567 0.0
Zn79 Zn 0.49545 0.44196 0.99152 0.0
Zn80 Zn 0.46722 0.51183 0.07469 0.0
O81 O 0.42312 0.54628 0.9414 0.0
O82 O 0.42116 0.54179 0.05153 0.0
O83 O 0.55543 0.54554 0.91345 0.0
O84 O 0.50133 0.5465 0.85875 0.0
O85 O 0.44932 0.47303 0.85801 0.0
O86 O 0.47158 0.42239 0.90762 0.0
O87 O 0.46944 0.41909 0.07076 0.0
O88 O 0.55242 0.54989 0.07526 0.0
O89 O 0.45075 0.46819 0.12868 0.0
O90 O 0.50011 0.54318 0.13369 0.0
C91 C 0.58034 0.43949 0.9983 0.0
C92 C 0.4077 0.55375 0.99682 0.0
C93 C 0.45388 0.43795 0.86004 0.0
C94 C 0.53563 0.55566 0.86381 0.0
C95 C 0.45338 0.43318 0.12138 0.0
C96 C 0.53267 0.55682 0.12644 0.0
O97 O 0.54853 0.42388 0.99349 0.0
H98 H 0.29572 0.15761 0.43633 0.0
H99 H 0.10398 0.10128 0.60825 0.0
H100 H 0.23494 0.23155 0.56583 0.0
H101 H 0.13344 0.06117 0.4129 0.0
H102 H 0.15906 0.14141 0.60691 0.0
H103 H 0.24266 0.11421 0.43933 0.0
C104 C 0.27122 0.16454 0.46547 0.0
C105 C 0.2696 0.19794 0.50121 0.0
C106 C 0.15344 0.12373 0.56447 0.0
C107 C 0.20968 0.14858 0.50605 0.0
C108 C 0.12217 0.10072 0.56528 0.0
C109 C 0.11406 0.07802 0.51043 0.0
C110 C 0.17713 0.12352 0.509 0.0
C111 C 0.13855 0.07849 0.45597 0.0
C112 C 0.24114 0.1399 0.46726 0.0
C113 C 0.2375 0.20571 0.53876 0.0
N114 N 0.16916 0.10082 0.45671 0.0
N115 N 0.20885 0.18111 0.54053 0.0
H116 H 0.25204 0.73479 0.94473 0.0
H117 H 0.35328 0.55707 0.09219 0.0
H118 H 0.1914 0.65452 0.06003 0.0
H119 H 0.38501 0.60404 0.90333 0.0
H120 H 0.29766 0.59736 0.09282 0.0
H121 H 0.30552 0.69174 0.93952 0.0
C122 C 0.25016 0.70795 0.96872 0.0
C123 C 0.21769 0.69798 0.00308 0.0
C124 C 0.31679 0.59862 0.05121 0.0
C125 C 0.27845 0.64923 0.9987 0.0
C126 C 0.34855 0.57586 0.05095 0.0
C127 C 0.37375 0.57729 0.99763 0.0
C128 C 0.31074 0.62348 0.99856 0.0
C129 C 0.36621 0.60197 0.94527 0.0
C130 C 0.28048 0.68351 0.96582 0.0
C131 C 0.21633 0.66317 0.03393 0.0
N132 N 0.33555 0.6244 0.94736 0.0
N133 N 0.24651 0.64004 0.03162 0.0
H134 H 0.76327 0.75012 0.54072 0.0
H135 H 0.83636 0.95679 0.47979 0.0
H136 H 0.69447 0.83456 0.45007 0.0
H137 H 0.90907 0.86324 0.52043 0.0
H138 H 0.78278 0.91446 0.47676 0.0
H139 H 0.81608 0.79329 0.54246 0.0
C140 C 0.75948 0.77797 0.52148 0.0
C141 C 0.72484 0.78918 0.49559 0.0
C142 C 0.81052 0.9033 0.48615 0.0
C143 C 0.78468 0.83862 0.49694 0.0
C144 C 0.84108 0.92742 0.4881 0.0
C145 C 0.8773 0.91356 0.50038 0.0
C146 C 0.81622 0.86518 0.49729 0.0
C147 C 0.88174 0.87522 0.5106 0.0
C148 C 0.7895 0.80251 0.52208 0.0
C149 C 0.721 0.82523 0.47037 0.0
N150 N 0.85158 0.85246 0.50909 0.0
N151 N 0.75061 0.84888 0.4719 0.0
H152 H 0.80644 0.35084 0.04048 0.0
H153 H 0.58489 0.36436 0.98124 0.0
H154 H 0.73842 0.26035 0.97121 0.0
H155 H 0.65346 0.46066 0.01933 0.0
H156 H 0.64081 0.32558 0.9837 0.0
H157 H 0.75074 0.39157 0.03921 0.0
C158 C 0.77962 0.33978 0.02506 0.0
C159 C 0.77653 0.30258 0.00582 0.0
C160 C 0.64372 0.35519 0.99146 0.0
C161 C 0.71324 0.34823 0.00422 0.0
C162 C 0.61172 0.37742 0.99021 0.0
C163 C 0.61441 0.41591 1.00005 0.0
C164 C 0.67883 0.37141 0.00294 0.0
C165 C 0.65005 0.43113 0.01135 0.0
C166 C 0.748 0.36283 0.02414 0.0
C167 C 0.74157 0.28907 0.98601 0.0
N168 N 0.68091 0.40881 0.01261 0.0
N169 N 0.71121 0.31187 0.98584 0.0
H170 H 0.07816 0.79065 0.04934 0.0
H171 H 0.08362 0.87983 0.39836 0.0
H172 H 0.18608 0.81196 0.13783 0.0
H173 H 0.02805 0.94318 0.24481 0.0
H174 H 0.11251 0.84074 0.31216 0.0
H175 H 0.0497 0.8349 0.12814 0.0
C176 C 0.0958 0.80478 0.0851 0.0
C177 C 0.13435 0.79723 0.08813 0.0
C178 C 0.09393 0.86322 0.2977 0.0
C179 C 0.10209 0.84632 0.17874 0.0
C180 C 0.07739 0.8853 0.34652 0.0
C181 C 0.05365 0.91468 0.32827 0.0
C182 C 0.08556 0.86989 0.23065 0.0
C183 C 0.04648 0.92086 0.26052 0.0
C184 C 0.07961 0.82976 0.12987 0.0
C185 C 0.15608 0.81609 0.13547 0.0
N186 N 0.06202 0.89825 0.21385 0.0
N187 N 0.13955 0.83927 0.17992 0.0
H188 H 0.57996 0.7083 0.53874 0.0
H189 H 0.60982 0.57177 0.84793 0.0
H190 H 0.68767 0.67025 0.60795 0.0
H191 H 0.50123 0.59094 0.75865 0.0
H192 H 0.63822 0.60917 0.76106 0.0
H193 H 0.54959 0.66597 0.61812 0.0
C194 C 0.59704 0.69072 0.57041 0.0
C195 C 0.63616 0.69285 0.56799 0.0
C196 C 0.60818 0.60513 0.76021 0.0
C197 C 0.6022 0.64507 0.6586 0.0
C198 C 0.59189 0.58386 0.81007 0.0
C199 C 0.55303 0.57824 0.8108 0.0
C200 C 0.58551 0.62127 0.71075 0.0
C201 C 0.53131 0.59452 0.76007 0.0
C202 C 0.57988 0.66674 0.61565 0.0
C203 C 0.65739 0.66972 0.6096 0.0
N204 N 0.54783 0.61547 0.71224 0.0
N205 N 0.64017 0.647 0.65354 0.0
H206 H 0.92054 0.22398 0.07034 0.0
H207 H 0.87884 0.07847 0.36006 0.0
H208 H 0.81025 0.18293 0.1127 0.0
H209 H 0.98984 0.09769 0.28302 0.0
H210 H 0.8532 0.11922 0.27387 0.0
H211 H 0.94693 0.17972 0.15101 0.0
C212 C 0.90211 0.20502 0.09591 0.0
C213 C 0.86346 0.20636 0.08469 0.0
C214 C 0.88316 0.11441 0.27574 0.0
C215 C 0.8928 0.15681 0.17808 0.0
C216 C 0.89785 0.09128 0.32514 0.0
C217 C 0.93658 0.08464 0.32891 0.0
C218 C 0.90738 0.13136 0.23013 0.0
C219 C 0.9598 0.10192 0.28202 0.0
C220 C 0.91699 0.18005 0.1422 0.0
C221 C 0.84029 0.18227 0.12022 0.0
N222 N 0.94486 0.1246 0.23481 0.0
N223 N 0.85528 0.15856 0.1657 0.0
H224 H 0.41297 0.26908 0.55973 0.0
H225 H 0.39706 0.45533 0.77377 0.0
H226 H 0.30933 0.32879 0.58396 0.0
H227 H 0.47583 0.36808 0.82248 0.0
H228 H 0.3711 0.41599 0.6857 0.0
H229 H 0.44343 0.3124 0.63809 0.0
C230 C 0.397 0.29179 0.58096 0.0
C231 C 0.35895 0.29592 0.56592 0.0
C232 C 0.39415 0.40559 0.71563 0.0
C233 C 0.39292 0.34504 0.65426 0.0
C234 C 0.40902 0.42799 0.76572 0.0
C235 C 0.43845 0.41482 0.80582 0.0
C236 C 0.40928 0.37007 0.70474 0.0
C237 C 0.45288 0.37916 0.79316 0.0
C238 C 0.41412 0.3162 0.62567 0.0
C239 C 0.33885 0.3252 0.5947 0.0
N240 N 0.43823 0.35803 0.74351 0.0
N241 N 0.3561 0.34882 0.63747 0.0
H242 H 0.60689 0.74396 0.35995 0.0
H243 H 0.52668 0.54873 0.26082 0.0
H244 H 0.64842 0.64684 0.46191 0.0
H245 H 0.57305 0.62017 0.1104 0.0
H246 H 0.55361 0.58934 0.34709 0.0
H247 H 0.57587 0.70344 0.27838 0.0
C248 C 0.60912 0.71413 0.36542 0.0
C249 C 0.63033 0.69867 0.41737 0.0
C250 C 0.55763 0.59601 0.29511 0.0
C251 C 0.5941 0.65257 0.32634 0.0
C252 C 0.54228 0.5731 0.24611 0.0
C253 C 0.5479 0.58119 0.17868 0.0
C254 C 0.57748 0.62777 0.27621 0.0
C255 C 0.5684 0.61294 0.16194 0.0
C256 C 0.59145 0.69119 0.31922 0.0
C257 C 0.63185 0.65984 0.42323 0.0
N258 N 0.58215 0.63539 0.21048 0.0
N259 N 0.61381 0.638 0.37827 0.0
H260 H 0.91941 0.21982 0.95145 0.0
H261 H 0.87732 0.07474 0.66075 0.0
H262 H 0.80872 0.1803 0.90605 0.0
H263 H 0.98828 0.09379 0.73962 0.0
H264 H 0.85158 0.11463 0.74799 0.0
H265 H 0.9456 0.17433 0.87321 0.0
C266 C 0.90083 0.20088 0.92593 0.0
C267 C 0.86211 0.2032 0.93533 0.0
C268 C 0.88154 0.10991 0.74634 0.0
C269 C 0.89127 0.15223 0.84442 0.0
C270 C 0.89628 0.08726 0.69636 0.0
C271 C 0.93505 0.08094 0.69265 0.0
C272 C 0.90576 0.12668 0.79257 0.0
C273 C 0.95822 0.09782 0.74045 0.0
C274 C 0.9156 0.17522 0.8809 0.0
C275 C 0.8388 0.17905 0.89977 0.0
N276 N 0.94324 0.12006 0.78812 0.0
N277 N 0.8537 0.1547 0.85542 0.0
H278 H 0.38897 0.24545 0.36561 0.0
H279 H 0.4142 0.45342 0.23246 0.0
H280 H 0.33564 0.34088 0.45352 0.0
H281 H 0.45739 0.35703 0.12968 0.0
H282 H 0.38922 0.41294 0.31837 0.0
H283 H 0.41866 0.28616 0.28341 0.0
C284 C 0.38398 0.27512 0.36776 0.0
C285 C 0.36028 0.29009 0.41628 0.0
C286 C 0.40416 0.40061 0.27707 0.0
C287 C 0.39359 0.33669 0.32297 0.0
C288 C 0.41846 0.42372 0.22784 0.0
C289 C 0.43788 0.40864 0.17347 0.0
C290 C 0.40932 0.36203 0.27222 0.0
C291 C 0.44251 0.36991 0.17048 0.0
C292 C 0.40074 0.29829 0.32101 0.0
C293 C 0.35436 0.32853 0.41751 0.0
N294 N 0.42832 0.34795 0.21917 0.0
N295 N 0.37082 0.35055 0.37136 0.0
H296 H 0.16046 0.84169 0.96915 0.0
H297 H 0.02169 0.86438 0.65944 0.0
H298 H 0.08824 0.75494 0.89786 0.0
H299 H 0.07812 0.95744 0.75029 0.0
H300 H 0.04608 0.82418 0.74681 0.0
H301 H 0.13032 0.88534 0.89131 0.0
C302 C 0.13793 0.83213 0.93737 0.0
C303 C 0.12688 0.7949 0.93878 0.0
C304 C 0.05304 0.85341 0.74793 0.0
C305 C 0.09277 0.84392 0.84964 0.0
C306 C 0.03923 0.87642 0.69779 0.0
C307 C 0.04801 0.91437 0.69723 0.0
C308 C 0.07613 0.86827 0.79783 0.0
C309 C 0.07067 0.92835 0.74865 0.0
C310 C 0.12085 0.85684 0.89296 0.0
C311 C 0.09776 0.78342 0.89699 0.0
N312 N 0.08416 0.90524 0.79667 0.0
N313 N 0.08188 0.80776 0.85366 0.0
loop_
_geom_bond_atom_site_label_1
_geom_bond_atom_site_label_2
_geom_bond_distance
_geom_bond_site_symmetry_2
_ccdc_geom_bond_type
C0 N1 1.317 . S
C0 N2 1.348 1_556 S
C0 C3 1.485 . S
N1 C0 1.317 . S
N1 N5 1.370 1_556 S
N2 C0 1.348 1_554 S
N2 C4 1.346 . S
C3 C0 1.485 . S
C3 H7 0.960 . S
C3 H8 0.961 . S
C3 H9 0.960 . S
C4 N2 1.346 . S
C4 N5 1.307 . S
C4 C6 1.486 . S
N5 N1 1.370 1_554 S
N5 C4 1.307 . S
C6 C4 1.486 . S
C6 H10 0.960 . S
C6 H11 0.960 . S
C6 H12 0.959 . S
H7 C3 0.960 . S
H8 C3 0.961 . S
H9 C3 0.960 . S
H10 C6 0.960 . S
H11 C6 0.960 . S
H12 C6 0.959 . S
C13 N14 1.317 . S
C13 N15 1.348 . S
C13 C16 1.485 . S
N14 C13 1.317 . S
N14 N18 1.370 . S
N15 C13 1.348 . S
N15 C17 1.346 . S
C16 C13 1.485 . S
C16 H20 0.960 . S
C16 H21 0.961 . S
C16 H22 0.960 . S
C17 N15 1.346 . S
C17 N18 1.307 . S
C17 C19 1.486 . S
N18 N14 1.370 . S
N18 C17 1.307 . S
C19 C17 1.486 . S
C19 H23 0.960 . S
C19 H24 0.960 . S
C19 H25 0.959 . S
H20 C16 0.960 . S
H21 C16 0.961 . S
H22 C16 0.960 . S
H23 C19 0.960 . S
H24 C19 0.960 . S
H25 C19 0.959 . S
C26 N27 1.317 . S
C26 N28 1.348 . S
C26 C29 1.485 . S
N27 C26 1.317 . S
N27 N31 1.370 1_554 S
N28 C26 1.348 . S
N28 C30 1.346 1_554 S
C29 C26 1.485 . S
C29 H33 0.960 . S
C29 H34 0.961 . S
C29 H35 0.960 . S
C30 N28 1.346 1_556 S
C30 N31 1.307 . S
C30 C32 1.486 . S
N31 N27 1.370 1_556 S
N31 C30 1.307 . S
C32 C30 1.486 . S
C32 H36 0.960 . S
C32 H37 0.960 . S
C32 H38 0.959 . S
H33 C29 0.960 . S
H34 C29 0.961 . S
H35 C29 0.960 . S
H36 C32 0.960 . S
H37 C32 0.960 . S
H38 C32 0.959 . S
C39 N40 1.317 . S
C39 N41 1.348 . S
C39 C42 1.485 . S
N40 C39 1.317 . S
N40 N44 1.370 . S
N41 C39 1.348 . S
N41 C43 1.346 . S
C42 C39 1.485 . S
C42 H46 0.960 . S
C42 H47 0.961 . S
C42 H48 0.960 . S
C43 N41 1.346 . S
C43 N44 1.307 . S
C43 C45 1.486 . S
N44 N40 1.370 . S
N44 C43 1.307 . S
C45 C43 1.486 . S
C45 H49 0.960 . S
C45 H50 0.960 . S
C45 H51 0.959 . S
H46 C42 0.960 . S
H47 C42 0.961 . S
H48 C42 0.960 . S
H49 C45 0.960 . S
H50 C45 0.960 . S
H51 C45 0.959 . S
O52 Zn53 1.953 1_565 S
O52 C68 1.225 . S
Zn53 O52 1.953 1_545 S
Zn53 O54 1.949 1_655 S
Zn53 O60 1.919 . S
Zn53 O65 1.924 . S
O54 Zn53 1.949 1_455 S
O54 Zn55 1.923 . S
O54 Zn56 1.950 1_545 S
O54 Zn57 1.945 . S
Zn55 O54 1.923 . S
Zn55 O58 1.933 . S
Zn55 O61 1.941 1_455 S
Zn55 O62 1.965 1_545 S
Zn56 O54 1.950 1_565 S
Zn56 O63 1.938 . S
Zn56 O64 1.906 . S
Zn56 O74 1.953 1_455 S
Zn57 O54 1.945 . S
Zn57 O59 1.932 . S
Zn57 O66 1.977 1_545 S
Zn57 O67 1.910 1_455 S
O58 Zn55 1.933 . S
O58 C69 1.226 . S
O59 Zn57 1.932 . S
O59 C69 1.307 . S
O60 Zn53 1.919 . S
O60 C71 1.253 . S
O61 Zn55 1.941 1_655 S
O61 C71 1.283 . S
O62 Zn55 1.965 1_565 S
O62 C70 1.303 . S
O63 Zn56 1.938 . S
O63 C70 1.247 . S
O64 Zn56 1.906 . S
O64 C72 1.304 . S
O65 Zn53 1.924 . S
O65 C73 1.311 . S
O66 Zn57 1.977 1_565 S
O66 C72 1.272 . S
O67 Zn57 1.910 1_655 S
O67 C73 1.231 . S
C68 O52 1.225 . S
C68 O74 1.298 . S
C69 O58 1.226 . S
C69 O59 1.307 . S
C70 O62 1.303 . S
C70 O63 1.247 . S
C71 O60 1.253 . S
C71 O61 1.283 . S
C72 O64 1.304 . S
C72 O66 1.272 . S
C73 O65 1.311 . S
C73 O67 1.231 . S
O74 Zn56 1.953 1_655 S
O74 C68 1.298 . S
O75 Zn76 1.953 . S
O75 C91 1.226 1_556 S
Zn76 O75 1.953 . S
Zn76 O77 1.949 1_556 S
Zn76 O83 1.919 . S
Zn76 O88 1.924 1_556 S
O77 Zn76 1.949 1_554 S
O77 Zn78 1.923 1_554 S
O77 Zn79 1.950 . S
O77 Zn80 1.945 . S
Zn78 O77 1.923 1_556 S
Zn78 O81 1.933 . S
Zn78 O84 1.941 . S
Zn78 O85 1.965 . S
Zn79 O77 1.950 . S
Zn79 O86 1.938 1_554 S
Zn79 O87 1.906 . S
Zn79 O97 1.953 . S
Zn80 O77 1.945 . S
Zn80 O82 1.932 . S
Zn80 O89 1.977 . S
Zn80 O90 1.910 . S
O81 Zn78 1.933 . S
O81 C92 1.226 1_556 S
O82 Zn80 1.932 . S
O82 C92 1.307 . S
O83 Zn76 1.919 . S
O83 C94 1.253 . S
O84 Zn78 1.941 . S
O84 C94 1.283 . S
O85 Zn78 1.965 . S
O85 C93 1.303 . S
O86 Zn79 1.938 1_556 S
O86 C93 1.247 . S
O87 Zn79 1.906 . S
O87 C95 1.304 . S
O88 Zn76 1.924 1_554 S
O88 C96 1.311 . S
O89 Zn80 1.977 . S
O89 C95 1.272 . S
O90 Zn80 1.910 . S
O90 C96 1.231 . S
C91 O75 1.226 1_554 S
C91 O97 1.298 . S
C92 O81 1.226 1_554 S
C92 O82 1.307 . S
C93 O85 1.303 . S
C93 O86 1.247 . S
C94 O83 1.253 . S
C94 O84 1.283 . S
C95 O87 1.304 . S
C95 O89 1.272 . S
C96 O88 1.311 . S
C96 O90 1.231 . S
O97 Zn79 1.953 . S
O97 C91 1.298 . S
H98 C104 0.930 . S
H99 C108 0.930 . S
H100 C113 0.929 . S
H101 C111 0.929 . S
H102 C106 0.929 . S
H103 C112 0.929 . S
C104 H98 0.930 . S
C104 C105 1.367 . S
C104 C112 1.378 . S
C105 C104 1.367 . S
C105 C113 1.433 . S
C106 H102 0.929 . S
C106 C108 1.378 . S
C106 C110 1.350 . S
C107 C110 1.463 . S
C107 C112 1.350 . S
C107 N115 1.427 . S
C108 H99 0.930 . S
C108 C106 1.378 . S
C108 C109 1.367 . S
C109 C108 1.367 . S
C109 C111 1.433 . S
C110 C106 1.350 . S
C110 C107 1.463 . S
C110 N114 1.427 . S
C111 H101 0.929 . S
C111 C109 1.433 . S
C111 N114 1.384 . S
C112 H103 0.929 . S
C112 C104 1.378 . S
C112 C107 1.350 . S
C113 H100 0.929 . S
C113 C105 1.433 . S
C113 N115 1.384 . S
N114 C110 1.427 . S
N114 C111 1.384 . S
N115 C107 1.427 . S
N115 C113 1.384 . S
H116 C122 0.930 . S
H117 C126 0.930 . S
H118 C131 0.929 . S
H119 C129 0.929 . S
H120 C124 0.929 . S
H121 C130 0.929 . S
C122 H116 0.930 . S
C122 C123 1.367 1_556 S
C122 C130 1.378 . S
C123 C122 1.367 1_554 S
C123 C131 1.433 . S
C124 H120 0.929 . S
C124 C126 1.378 . S
C124 C128 1.350 . S
C125 C128 1.463 . S
C125 C130 1.336 1_554 S
C125 N133 1.441 . S
C126 H117 0.930 . S
C126 C124 1.378 . S
C126 C127 1.367 . S
C127 C126 1.367 . S
C127 C129 1.433 1_554 S
C128 C124 1.350 . S
C128 C125 1.463 . S
C128 N132 1.427 1_554 S
C129 H119 0.929 . S
C129 C127 1.433 1_556 S
C129 N132 1.384 . S
C130 H121 0.929 . S
C130 C122 1.378 . S
C130 C125 1.336 1_556 S
C131 H118 0.929 . S
C131 C123 1.433 . S
C131 N133 1.384 . S
N132 C128 1.427 1_556 S
N132 C129 1.384 . S
N133 C125 1.441 . S
N133 C131 1.384 . S
H134 C140 0.930 . S
H135 C144 0.930 . S
H136 C149 0.929 . S
H137 C147 0.929 . S
H138 C142 0.929 . S
H139 C148 0.929 . S
C140 H134 0.930 . S
C140 C141 1.367 . S
C140 C148 1.378 . S
C141 C140 1.367 . S
C141 C149 1.433 . S
C142 H138 0.929 . S
C142 C144 1.378 . S
C142 C146 1.350 . S
C143 C146 1.463 . S
C143 C148 1.350 . S
C143 N151 1.427 . S
C144 H135 0.930 . S
C144 C142 1.378 . S
C144 C145 1.367 . S
C145 C144 1.367 . S
C145 C147 1.433 . S
C146 C142 1.350 . S
C146 C143 1.463 . S
C146 N150 1.427 . S
C147 H137 0.929 . S
C147 C145 1.433 . S
C147 N150 1.384 . S
C148 H139 0.929 . S
C148 C140 1.378 . S
C148 C143 1.350 . S
C149 H136 0.929 . S
C149 C141 1.433 . S
C149 N151 1.384 . S
N150 C146 1.427 . S
N150 C147 1.384 . S
N151 C143 1.427 . S
N151 C149 1.384 . S
H152 C158 0.930 . S
H153 C162 0.930 . S
H154 C167 0.929 . S
H155 C165 0.929 . S
H156 C160 0.929 . S
H157 C166 0.929 . S
C158 H152 0.930 . S
C158 C159 1.367 . S
C158 C166 1.378 . S
C159 C158 1.367 . S
C159 C167 1.433 1_554 S
C160 H156 0.929 . S
C160 C162 1.378 . S
C160 C164 1.350 . S
C161 C164 1.463 1_554 S
C161 C166 1.350 . S
C161 N169 1.427 1_554 S
C162 H153 0.930 . S
C162 C160 1.378 . S
C162 C163 1.374 . S
C163 C162 1.374 . S
C163 C165 1.426 1_556 S
C164 C160 1.350 . S
C164 C161 1.463 1_556 S
C164 N168 1.427 1_556 S
C165 H155 0.929 . S
C165 C163 1.426 1_554 S
C165 N168 1.384 . S
C166 H157 0.929 . S
C166 C158 1.378 . S
C166 C161 1.350 . S
C167 H154 0.929 . S
C167 C159 1.433 1_556 S
C167 N169 1.384 . S
N168 C164 1.427 1_554 S
N168 C165 1.384 . S
N169 C161 1.427 1_556 S
N169 C167 1.384 . S
H170 C176 0.930 . S
H171 C180 0.930 . S
H172 C185 0.929 . S
H173 C183 0.929 . S
H174 C178 0.929 . S
H175 C184 0.929 . S
C176 H170 0.930 . S
C176 C177 1.367 . S
C176 C184 1.378 . S
C177 C176 1.367 . S
C177 C185 1.433 . S
C178 H174 0.929 . S
C178 C180 1.378 . S
C178 C182 1.350 . S
C179 C182 1.463 . S
C179 C184 1.350 . S
C179 N187 1.427 . S
C180 H171 0.930 . S
C180 C178 1.378 . S
C180 C181 1.367 . S
C181 C180 1.367 . S
C181 C183 1.433 . S
C182 C178 1.350 . S
C182 C179 1.463 . S
C182 N186 1.427 . S
C183 H173 0.929 . S
C183 C181 1.433 . S
C183 N186 1.384 . S
C184 H175 0.929 . S
C184 C176 1.378 . S
C184 C179 1.350 . S
C185 H172 0.929 . S
C185 C177 1.433 . S
C185 N187 1.384 . S
N186 C182 1.427 . S
N186 C183 1.384 . S
N187 C179 1.427 . S
N187 C185 1.384 . S
H188 C194 0.930 . S
H189 C198 0.930 . S
H190 C203 0.929 . S
H191 C201 0.929 . S
H192 C196 0.929 . S
H193 C202 0.929 . S
C194 H188 0.930 . S
C194 C195 1.367 . S
C194 C202 1.378 . S
C195 C194 1.367 . S
C195 C203 1.433 . S
C196 H192 0.929 . S
C196 C198 1.378 . S
C196 C200 1.350 . S
C197 C200 1.463 . S
C197 C202 1.350 . S
C197 N205 1.427 . S
C198 H189 0.930 . S
C198 C196 1.378 . S
C198 C199 1.367 . S
C199 C198 1.367 . S
C199 C201 1.433 . S
C200 C196 1.350 . S
C200 C197 1.463 . S
C200 N204 1.427 . S
C201 H191 0.929 . S
C201 C199 1.433 . S
C201 N204 1.384 . S
C202 H193 0.929 . S
C202 C194 1.378 . S
C202 C197 1.350 . S
C203 H190 0.929 . S
C203 C195 1.433 . S
C203 N205 1.384 . S
N204 C200 1.427 . S
N204 C201 1.384 . S
N205 C197 1.427 . S
N205 C203 1.384 . S
H206 C212 0.930 . S
H207 C216 0.930 . S
H208 C221 0.929 . S
H209 C219 0.929 . S
H210 C214 0.929 . S
H211 C220 0.929 . S
C212 H206 0.930 . S
C212 C213 1.367 . S
C212 C220 1.378 . S
C213 C212 1.367 . S
C213 C221 1.433 . S
C214 H210 0.929 . S
C214 C216 1.378 . S
C214 C218 1.350 . S
C215 C218 1.463 . S
C215 C220 1.350 . S
C215 N223 1.427 . S
C216 H207 0.930 . S
C216 C214 1.378 . S
C216 C217 1.367 . S
C217 C216 1.367 . S
C217 C219 1.433 . S
C218 C214 1.350 . S
C218 C215 1.463 . S
C218 N222 1.427 . S
C219 H209 0.929 . S
C219 C217 1.433 . S
C219 N222 1.384 . S
C220 H211 0.929 . S
C220 C212 1.378 . S
C220 C215 1.350 . S
C221 H208 0.929 . S
C221 C213 1.433 . S
C221 N223 1.384 . S
N222 C218 1.427 . S
N222 C219 1.384 . S
N223 C215 1.427 . S
N223 C221 1.384 . S
H224 C230 0.930 . S
H225 C234 0.930 . S
H226 C239 0.929 . S
H227 C237 0.929 . S
H228 C232 0.929 . S
H229 C238 0.929 . S
C230 H224 0.930 . S
C230 C231 1.367 . S
C230 C238 1.378 . S
C231 C230 1.367 . S
C231 C239 1.433 . S
C232 H228 0.929 . S
C232 C234 1.378 . S
C232 C236 1.350 . S
C233 C236 1.463 . S
C233 C238 1.350 . S
C233 N241 1.427 . S
C234 H225 0.930 . S
C234 C232 1.378 . S
C234 C235 1.367 . S
C235 C234 1.367 . S
C235 C237 1.433 . S
C236 C232 1.350 . S
C236 C233 1.463 . S
C236 N240 1.427 . S
C237 H227 0.929 . S
C237 C235 1.433 . S
C237 N240 1.384 . S
C238 H229 0.929 . S
C238 C230 1.378 . S
C238 C233 1.350 . S
C239 H226 0.929 . S
C239 C231 1.433 . S
C239 N241 1.384 . S
N240 C236 1.427 . S
N240 C237 1.384 . S
N241 C233 1.427 . S
N241 C239 1.384 . S
H242 C248 0.930 . S
H243 C252 0.930 . S
H244 C257 0.929 . S
H245 C255 0.929 . S
H246 C250 0.929 . S
H247 C256 0.929 . S
C248 H242 0.930 . S
C248 C249 1.367 . S
C248 C256 1.378 . S
C249 C248 1.367 . S
C249 C257 1.433 . S
C250 H246 0.929 . S
C250 C252 1.378 . S
C250 C254 1.350 . S
C251 C254 1.463 . S
C251 C256 1.350 . S
C251 N259 1.427 . S
C252 H243 0.930 . S
C252 C250 1.378 . S
C252 C253 1.367 . S
C253 C252 1.367 . S
C253 C255 1.433 . S
C254 C250 1.350 . S
C254 C251 1.463 . S
C254 N258 1.427 . S
C255 H245 0.929 . S
C255 C253 1.433 . S
C255 N258 1.384 . S
C256 H247 0.929 . S
C256 C248 1.378 . S
C256 C251 1.350 . S
C257 H244 0.929 . S
C257 C249 1.433 . S
C257 N259 1.384 . S
N258 C254 1.427 . S
N258 C255 1.384 . S
N259 C251 1.427 . S
N259 C257 1.384 . S
H260 C266 0.930 . S
H261 C270 0.930 . S
H262 C275 0.929 . S
H263 C273 0.929 . S
H264 C268 0.929 . S
H265 C274 0.929 . S
C266 H260 0.930 . S
C266 C267 1.367 . S
C266 C274 1.378 . S
C267 C266 1.367 . S
C267 C275 1.433 . S
C268 H264 0.929 . S
C268 C270 1.378 . S
C268 C272 1.350 . S
C269 C272 1.463 . S
C269 C274 1.350 . S
C269 N277 1.427 . S
C270 H261 0.930 . S
C270 C268 1.378 . S
C270 C271 1.367 . S
C271 C270 1.367 . S
C271 C273 1.433 . S
C272 C268 1.350 . S
C272 C269 1.463 . S
C272 N276 1.427 . S
C273 H263 0.929 . S
C273 C271 1.433 . S
C273 N276 1.384 . S
C274 H265 0.929 . S
C274 C266 1.378 . S
C274 C269 1.350 . S
C275 H262 0.929 . S
C275 C267 1.433 . S
C275 N277 1.384 . S
N276 C272 1.427 . S
N276 C273 1.384 . S
N277 C269 1.427 . S
N277 C275 1.384 . S
H278 C284 0.930 . S
H279 C288 0.930 . S
H280 C293 0.929 . S
H281 C291 0.929 . S
H282 C286 0.929 . S
H283 C292 0.929 . S
C284 H278 0.930 . S
C284 C285 1.367 . S
C284 C292 1.378 . S
C285 C284 1.367 . S
C285 C293 1.433 . S
C286 H282 0.929 . S
C286 C288 1.378 . S
C286 C290 1.350 . S
C287 C290 1.463 . S
C287 C292 1.350 . S
C287 N295 1.427 . S
C288 H279 0.930 . S
C288 C286 1.378 . S
C288 C289 1.367 . S
C289 C288 1.367 . S
C289 C291 1.433 . S
C290 C286 1.350 . S
C290 C287 1.463 . S
C290 N294 1.427 . S
C291 H281 0.929 . S
C291 C289 1.433 . S
C291 N294 1.384 . S
C292 H283 0.929 . S
C292 C284 1.378 . S
C292 C287 1.350 . S
C293 H280 0.929 . S
C293 C285 1.433 . S
C293 N295 1.384 . S
N294 C290 1.427 . S
N294 C291 1.384 . S
N295 C287 1.427 . S
N295 C293 1.384 . S
H296 C302 0.930 . S
H297 C306 0.930 . S
H298 C311 0.929 . S
H299 C309 0.929 . S
H300 C304 0.929 . S
H301 C310 0.929 . S
C302 H296 0.930 . S
C302 C303 1.367 . S
C302 C310 1.378 . S
C303 C302 1.367 . S
C303 C311 1.433 . S
C304 H300 0.929 . S
C304 C306 1.378 . S
C304 C308 1.350 . S
C305 C308 1.463 . S
C305 C310 1.350 . S
C305 N313 1.427 . S
C306 H297 0.930 . S
C306 C304 1.378 . S
C306 C307 1.367 . S
C307 C306 1.367 . S
C307 C309 1.433 . S
C308 C304 1.350 . S
C308 C305 1.463 . S
C308 N312 1.427 . S
C309 H299 0.929 . S
C309 C307 1.433 . S
C309 N312 1.384 . S
C310 H301 0.929 . S
C310 C302 1.378 . S
C310 C305 1.350 . S
C311 H298 0.929 . S
C311 C303 1.433 . S
C311 N313 1.384 . S
N312 C308 1.427 . S
N312 C309 1.384 . S
N313 C305 1.427 . S
N313 C311 1.384 . S
C109 C69 1.495 . S
C105 N41 1.494 . S
C123 N2 1.494 . S
C127 C92 1.494 . S
C141 N15 1.527 . S
C145 C68 1.528 . S
C159 N28 1.526 . S
C163 C91 1.527 1_556 S
C181 C72 1.445 . S
C177 N5 1.483 . S
C199 C94 1.469 . S
C195 N14 1.530 . S
C213 N27 1.493 . S
C217 C73 1.452 . S
C231 N44 1.521 . S
C235 C93 1.459 . S
C253 C96 1.448 . S
C249 N18 1.489 . S
C271 C71 1.470 . S
C267 N31 1.528 . S
C289 C95 1.450 . S
C285 N40 1.484 . S
C303 N1 1.523 . S
C307 C70 1.473 . S
