# Generated by pormake.
# Topology zzz, (3,6)-cn, num edge types: 1
# Building blocks:
#     Node 0, Type 0, BuildingBlock: MIDCAF_clean_linker_0, # of connection points: 3
#     Node 1, Type 0, BuildingBlock: MIDCAF_clean_linker_0, # of connection points: 3
#     Node 2, Type 0, BuildingBlock: MIDCAF_clean_linker_0, # of connection points: 3
#     Node 3, Type 0, BuildingBlock: MIDCAF_clean_linker_0, # of connection points: 3
#     Node 4, Type 0, BuildingBlock: MIDCAF_clean_linker_0, # of connection points: 3
#     Node 5, Type 0, BuildingBlock: MIDCAF_clean_linker_0, # of connection points: 3
#     Node 6, Type 0, BuildingBlock: MIDCAF_clean_linker_0, # of connection points: 3
#     Node 7, Type 0, BuildingBlock: MIDCAF_clean_linker_0, # of connection points: 3
#     Node 8, Type 1, BuildingBlock: BETFAJ_clean_sbu_0, # of connection points: 6
#     Node 9, Type 1, BuildingBlock: BETFAJ_clean_sbu_0, # of connection points: 6
#     Node 10, Type 1, BuildingBlock: BETFAJ_clean_sbu_0, # of connection points: 6
#     Node 11, Type 1, BuildingBlock: BETFAJ_clean_sbu_0, # of connection points: 6
#     Edge 12, Type (0, 1), BuildingBlock: UVAHIK_clean_linker_0, # of connection points: 2
#     Edge 13, Type (0, 1), BuildingBlock: UVAHIK_clean_linker_0, # of connection points: 2
#     Edge 14, Type (0, 1), BuildingBlock: UVAHIK_clean_linker_0, # of connection points: 2
#     Edge 15, Type (0, 1), BuildingBlock: UVAHIK_clean_linker_0, # of connection points: 2
#     Edge 16, Type (0, 1), BuildingBlock: UVAHIK_clean_linker_0, # of connection points: 2
#     Edge 17, Type (0, 1), BuildingBlock: UVAHIK_clean_linker_0, # of connection points: 2
#     Edge 18, Type (0, 1), BuildingBlock: UVAHIK_clean_linker_0, # of connection points: 2
#     Edge 19, Type (0, 1), BuildingBlock: UVAHIK_clean_linker_0, # of connection points: 2
#     Edge 20, Type (0, 1), BuildingBlock: UVAHIK_clean_linker_0, # of connection points: 2
#     Edge 21, Type (0, 1), BuildingBlock: UVAHIK_clean_linker_0, # of connection points: 2
#     Edge 22, Type (0, 1), BuildingBlock: UVAHIK_clean_linker_0, # of connection points: 2
#     Edge 23, Type (0, 1), BuildingBlock: UVAHIK_clean_linker_0, # of connection points: 2
#     Edge 24, Type (0, 1), BuildingBlock: UVAHIK_clean_linker_0, # of connection points: 2
#     Edge 25, Type (0, 1), BuildingBlock: UVAHIK_clean_linker_0, # of connection points: 2
#     Edge 26, Type (0, 1), BuildingBlock: UVAHIK_clean_linker_0, # of connection points: 2
#     Edge 27, Type (0, 1), BuildingBlock: UVAHIK_clean_linker_0, # of connection points: 2
#     Edge 28, Type (0, 1), BuildingBlock: UVAHIK_clean_linker_0, # of connection points: 2
#     Edge 29, Type (0, 1), BuildingBlock: UVAHIK_clean_linker_0, # of connection points: 2
#     Edge 30, Type (0, 1), BuildingBlock: UVAHIK_clean_linker_0, # of connection points: 2
#     Edge 31, Type (0, 1), BuildingBlock: UVAHIK_clean_linker_0, # of connection points: 2
#     Edge 32, Type (0, 1), BuildingBlock: UVAHIK_clean_linker_0, # of connection points: 2
#     Edge 33, Type (0, 1), BuildingBlock: UVAHIK_clean_linker_0, # of connection points: 2
#     Edge 34, Type (0, 1), BuildingBlock: UVAHIK_clean_linker_0, # of connection points: 2
#     Edge 35, Type (0, 1), BuildingBlock: UVAHIK_clean_linker_0, # of connection points: 2
# Relax obj value: 0.419
# Max RMSD: 0.276
# Mean RMSD: 0.253
data_MOF--net-zzz--node1-BETFAJ_clean_sbu_0--node2-MIDCAF_clean_linker_0--edge1-UVAHIK_clean_linker_0
_symmetry_space_group_name_H-M    P1
_symmetry_Int_Tables_number       1
_symmetry_cell_setting            triclinic
loop_
_symmetry_equiv_pos_as_xyz
'x, y, z'
_cell_length_a     74.19524
_cell_length_b     74.159246
_cell_length_c     22.533901
_cell_angle_alpha  89.908654
_cell_angle_beta   90.014339
_cell_angle_gamma 90.139628
loop_
_atom_site_label
_atom_site_type_symbol
_atom_site_fract_x
_atom_site_fract_y
_atom_site_fract_z
_atom_type_partial_charge
C0 C 0.77634 0.54024 0.41938 0.0
C1 C 0.77959 0.52252 0.43886 0.0
C2 C 0.76696 0.50901 0.42406 0.0
C3 C 0.75213 0.51293 0.3874 0.0
H4 H 0.68017 0.5356 0.31331 0.0
H5 H 0.64983 0.52972 0.27403 0.0
H6 H 0.67323 0.4992 0.13018 0.0
H7 H 0.7031 0.50488 0.16999 0.0
H8 H 0.72408 0.54578 0.09964 0.0
H9 H 0.74226 0.55192 0.01187 0.0
H10 H 0.78658 0.5683 0.12414 0.0
H11 H 0.76844 0.5626 0.21138 0.0
H12 H 0.76033 0.55765 0.36518 0.0
H13 H 0.78579 0.55098 0.42919 0.0
H14 H 0.76892 0.49525 0.43887 0.0
H15 H 0.74331 0.50206 0.37359 0.0
N16 N 0.72121 0.52616 0.307 0.0
N17 N 0.71935 0.53783 0.20985 0.0
N18 N 0.74504 0.54323 0.26661 0.0
C19 C 0.7118 0.52851 0.25539 0.0
C20 C 0.73589 0.54532 0.2151 0.0
C21 C 0.73795 0.53374 0.31262 0.0
C22 C 0.69389 0.5205 0.24498 0.0
C23 C 0.67864 0.52697 0.27489 0.0
C24 C 0.66132 0.52384 0.25175 0.0
C25 C 0.65902 0.51414 0.19844 0.0
C26 C 0.67432 0.50653 0.17156 0.0
C27 C 0.69151 0.50974 0.1944 0.0
C28 C 0.745 0.5532 0.16265 0.0
C29 C 0.73753 0.5512 0.10561 0.0
C30 C 0.74794 0.55468 0.05521 0.0
C31 C 0.76597 0.56027 0.06095 0.0
C32 C 0.77273 0.56408 0.11789 0.0
C33 C 0.76235 0.56061 0.16818 0.0
C34 C 0.74981 0.53039 0.3644 0.0
C35 C 0.76172 0.54408 0.3825 0.0
C36 C 0.00815 0.77688 0.40748 0.0
C37 C 0.99031 0.78313 0.40417 0.0
C38 C 0.97797 0.77366 0.3681 0.0
C39 C 0.98366 0.75899 0.33345 0.0
H40 H 0.97544 0.70259 0.22203 0.0
H41 H 0.96602 0.67362 0.17848 0.0
H42 H 0.02191 0.65934 0.1533 0.0
H43 H 0.03112 0.68786 0.19631 0.0
H44 H 0.03972 0.73093 0.09516 0.0
H45 H 0.05816 0.74883 0.02707 0.0
H46 H 0.07115 0.78549 0.16961 0.0
H47 H 0.05285 0.76771 0.23746 0.0
H48 H 0.02797 0.7588 0.3731 0.0
H49 H 0.01809 0.7839 0.43407 0.0
H50 H 0.96409 0.77805 0.3649 0.0
H51 H 0.97421 0.75265 0.30332 0.0
N52 N 1.00241 0.72571 0.27235 0.0
N53 N 0.02415 0.723 0.19662 0.0
N54 N 0.02342 0.74896 0.25482 0.0
C55 C 0.01019 0.71587 0.22795 0.0
C56 C 0.03078 0.73954 0.20957 0.0
C57 C 0.00933 0.74227 0.28632 0.0
C58 C 1.004 0.69749 0.2122 0.0
C59 C 0.98563 0.693 0.20846 0.0
C60 C 0.98027 0.67651 0.18313 0.0
C61 C 0.99322 0.66416 0.16225 0.0
C62 C 0.01156 0.66835 0.16945 0.0
C63 C 0.01685 0.6848 0.19377 0.0
C64 C 0.0446 0.74809 0.17148 0.0
C65 C 0.0469 0.74254 0.11231 0.0
C66 C 0.05741 0.75279 0.07325 0.0
C67 C 0.066 0.7686 0.09293 0.0
C68 C 0.06484 0.77329 0.15319 0.0
C69 C 0.0542 0.76319 0.19199 0.0
C70 C 1.00183 0.75374 0.33381 0.0
C71 C 0.01384 0.76247 0.37246 0.0
C72 C 0.72042 0.96819 0.39939 0.0
C73 C 0.71837 0.98412 0.43243 0.0
C74 C 0.73145 0.99782 0.42604 0.0
C75 C 0.7457 0.99594 0.38531 0.0
H76 H 0.81617 0.973 0.29497 0.0
H77 H 0.84674 0.97761 0.25631 0.0
H78 H 0.82663 0.01932 0.1397 0.0
H79 H 0.79653 0.01487 0.17929 0.0
H80 H 0.77608 0.9734 0.08292 0.0
H81 H 0.7605 0.96904 0.98883 0.0
H82 H 0.71119 0.95736 0.08368 0.0
H83 H 0.72673 0.96123 0.17724 0.0
H84 H 0.73498 0.95436 0.33152 0.0
H85 H 0.71056 0.95743 0.40244 0.0
H86 H 0.73036 0.0102 0.45117 0.0
H87 H 0.75501 0.00705 0.37901 0.0
N88 N 0.77589 0.98673 0.2966 0.0
N89 N 0.77805 0.98022 0.19455 0.0
N90 N 0.7516 0.97334 0.24557 0.0
C91 C 0.78559 0.98669 0.24503 0.0
C92 C 0.76113 0.97346 0.19433 0.0
C93 C 0.75874 0.9799 0.29672 0.0
C94 C 0.80411 0.99375 0.24056 0.0
C95 C 0.81858 0.98377 0.26337 0.0
C96 C 0.836 0.98621 0.24033 0.0
C97 C 0.83918 0.99864 0.19402 0.0
C98 C 0.82488 0.00974 0.17557 0.0
C99 C 0.80756 0.00726 0.19842 0.0
C100 C 0.75257 0.968 0.13776 0.0
C101 C 0.76199 0.96954 0.08375 0.0
C102 C 0.75307 0.96709 0.02972 0.0
C103 C 0.73458 0.96302 0.02861 0.0
C104 C 0.7255 0.96027 0.08271 0.0
C105 C 0.7344 0.96268 0.13661 0.0
C106 C 0.74691 0.98046 0.3497 0.0
C107 C 0.73442 0.96644 0.35847 0.0
C108 C 0.53379 0.73831 0.09336 0.0
C109 C 0.52934 0.74693 0.03969 0.0
C110 C 0.52433 0.76518 0.0409 0.0
C111 C 0.52272 0.77426 0.09495 0.0
H112 H 0.48092 0.81178 0.20639 0.0
H113 H 0.47794 0.84207 0.1661 0.0
H114 H 0.52565 0.85852 0.262 0.0
H115 H 0.52862 0.82786 0.30165 0.0
H116 H 0.54375 0.75066 0.3495 0.0
H117 H 0.54146 0.72397 0.41215 0.0
H118 H 0.48535 0.7357 0.44467 0.0
H119 H 0.48789 0.76288 0.38259 0.0
H120 H 0.535 0.73999 0.18773 0.0
H121 H 0.53745 0.72418 0.09433 0.0
H122 H 0.52101 0.77225 1.00025 0.0
H123 H 0.51811 0.78811 0.09447 0.0
N124 N 0.5158 0.79101 0.20835 0.0
N125 N 0.51051 0.78855 0.31124 0.0
N126 N 0.52185 0.76394 0.25699 0.0
C127 C 0.51045 0.79856 0.26017 0.0
C128 C 0.51635 0.77107 0.30935 0.0
C129 C 0.52157 0.77375 0.20632 0.0
C130 C 0.50482 0.81758 0.25783 0.0
C131 C 0.49021 0.82213 0.22125 0.0
C132 C 0.48859 0.83953 0.19787 0.0
C133 C 0.50171 0.85275 0.20997 0.0
C134 C 0.51544 0.8486 0.25103 0.0
C135 C 0.51699 0.83115 0.2747 0.0
C136 C 0.51603 0.75888 0.36142 0.0
C137 C 0.5311 0.74791 0.37186 0.0
C138 C 0.52971 0.73247 0.40715 0.0
C139 C 0.5131 0.72739 0.43228 0.0
C140 C 0.49835 0.7392 0.42602 0.0
C141 C 0.49981 0.75484 0.39082 0.0
C142 C 0.526 0.76522 0.14884 0.0
C143 C 0.53217 0.74734 0.14722 0.0
C144 C 0.22357 0.51918 0.94821 0.0
C145 C 0.22162 0.5029 0.91697 0.0
C146 C 0.23478 0.4894 0.92532 0.0
C147 C 0.24896 0.49186 0.9661 0.0
H148 H 0.3192 0.5084 0.04123 0.0
H149 H 0.35006 0.50241 0.07528 0.0
H150 H 0.32874 0.4729 0.22528 0.0
H151 H 0.29828 0.47883 0.19094 0.0
H152 H 0.28104 0.52422 0.26026 0.0
H153 H 0.26738 0.53812 0.34736 0.0
H154 H 0.22104 0.55295 0.2419 0.0
H155 H 0.23475 0.53961 0.15519 0.0
H156 H 0.23811 0.53408 0.01344 0.0
H157 H 0.2137 0.52983 0.94401 0.0
H158 H 0.23387 0.47676 0.90151 0.0
H159 H 0.25835 0.48094 0.9737 0.0
N160 N 0.27863 0.50097 0.05519 0.0
N161 N 0.28221 0.5121 0.1525 0.0
N162 N 0.25639 0.51925 0.09864 0.0
C163 C 0.28861 0.50241 0.10604 0.0
C164 C 0.26617 0.52065 0.14909 0.0
C165 C 0.26233 0.50949 0.05165 0.0
C166 C 0.30643 0.49392 0.11325 0.0
C167 C 0.32124 0.49994 0.07986 0.0
C168 C 0.33887 0.49671 0.09992 0.0
C169 C 0.34193 0.48734 0.15349 0.0
C170 C 0.32702 0.47999 0.18363 0.0
C171 C 0.30951 0.48336 0.16394 0.0
C172 C 0.2589 0.53059 0.20076 0.0
C173 C 0.26806 0.5307 0.25548 0.0
C174 C 0.26022 0.53863 0.30549 0.0
C175 C 0.24311 0.54664 0.30174 0.0
C176 C 0.23437 0.5472 0.24637 0.0
C177 C 0.24218 0.53933 0.19656 0.0
C178 C 0.25013 0.50779 0.99959 0.0
C179 C 0.23759 0.52158 0.98866 0.0
C180 C 0.0425 0.22665 0.89392 0.0
C181 C 0.02467 0.22351 0.87547 0.0
C182 C 0.01128 0.23597 0.89224 0.0
C183 C 0.01546 0.25052 0.92976 0.0
H184 H 1.00212 0.29427 0.13043 0.0
H185 H 0.99406 0.32164 0.18448 0.0
H186 H 0.03395 0.35154 0.08526 0.0
H187 H 0.04193 0.32402 0.03113 0.0
H188 H 0.05252 0.27814 0.21348 0.0
H189 H 0.06005 0.25937 0.2987 0.0
H190 H 0.07642 0.21662 0.18041 0.0
H191 H 0.0694 0.2354 0.09571 0.0
H192 H 0.06031 0.24236 0.94764 0.0
H193 H 0.05317 0.21733 0.88261 0.0
H194 H 0.99744 0.23409 0.87822 0.0
H195 H 0.00471 0.25923 0.94489 0.0
N196 N 0.02843 0.28067 0.01154 0.0
N197 N 0.0424 0.28314 0.10514 0.0
N198 N 0.04787 0.25795 0.04616 0.0
C199 C 0.03159 0.29014 0.06244 0.0
C200 C 0.05065 0.26707 0.09737 0.0
C201 C 0.03691 0.26454 0.00307 0.0
C202 C 0.0224 0.30718 0.07606 0.0
C203 C 0.0085 0.3069 0.11817 0.0
C204 C 1.00407 0.32251 0.14959 0.0
C205 C 0.01356 0.33867 0.13969 0.0
C206 C 0.02633 0.33932 0.09358 0.0
C207 C 0.03082 0.32363 0.06228 0.0
C208 C 0.05981 0.25805 0.14769 0.0
C209 C 0.05828 0.26495 0.2056 0.0
C210 C 0.06254 0.25418 0.25456 0.0
C211 C 0.06842 0.23634 0.24647 0.0
C212 C 0.07194 0.23028 0.18852 0.0
C213 C 0.06771 0.24103 0.13968 0.0
C214 C 0.03306 0.25272 0.95162 0.0
C215 C 0.04661 0.24101 0.93154 0.0
C216 C 0.28192 0.99293 0.98836 0.0
C217 C 0.28111 1.00438 0.93869 0.0
C218 C 0.26594 0.01565 0.93212 0.0
C219 C 0.25229 0.0159 0.97548 0.0
H220 H 0.18718 0.99373 0.06491 0.0
H221 H 0.15504 0.9935 0.09082 0.0
H222 H 0.16384 0.03894 0.20735 0.0
H223 H 0.19544 0.03926 0.18044 0.0
H224 H 0.22167 0.99983 0.28704 0.0
H225 H 0.23546 0.99536 0.38474 0.0
H226 H 0.2877 0.00766 0.3105 0.0
H227 H 0.2741 0.01191 0.21307 0.0
H228 H 0.27 0.98481 0.07041 0.0
H229 H 0.29342 0.98424 0.99552 0.0
H230 H 0.26484 0.02455 0.89416 0.0
H231 H 0.24114 0.02519 0.97055 0.0
N232 N 0.22361 0.01101 0.07266 0.0
N233 N 0.22101 0.01171 0.17686 0.0
N234 N 0.24894 0.006 0.13347 0.0
C235 C 0.21332 0.01322 0.12248 0.0
C236 C 0.23876 0.0081 0.18278 0.0
C237 C 0.24161 0.00742 0.07839 0.0
C238 C 0.19372 0.01655 0.12059 0.0
C239 C 0.18196 1.00414 0.09383 0.0
C240 C 0.16363 1.00386 0.10949 0.0
C241 C 0.1568 0.01602 0.15201 0.0
C242 C 0.16839 0.02945 0.17415 0.0
C243 C 0.1866 0.02966 0.15876 0.0
C244 C 0.24684 0.00617 0.24235 0.0
C245 C 0.23608 1.00173 0.29174 0.0
C246 C 0.24392 0.99913 0.34755 0.0
C247 C 0.26256 1.00133 0.35506 0.0
C248 C 0.27323 0.00615 0.306 0.0
C249 C 0.26547 0.00842 0.25015 0.0
C250 C 0.25374 0.00511 0.02657 0.0
C251 C 0.26849 0.99335 0.03166 0.0
C252 C 0.49111 0.27347 0.221 0.0
C253 C 0.5001 0.26528 0.26878 0.0
C254 C 0.50573 0.2473 0.26366 0.0
C255 C 0.50249 0.23772 0.21127 0.0
H256 H 0.51564 0.18694 0.07748 0.0
H257 H 0.51282 0.15719 0.12269 0.0
H258 H 0.45548 0.15798 0.08953 0.0
H259 H 0.45848 0.18792 0.04421 0.0
H260 H 0.45484 0.25225 0.96188 0.0
H261 H 0.45303 0.27925 0.89969 0.0
H262 H 0.51054 0.27682 0.8707 0.0
H263 H 0.51205 0.2496 0.93158 0.0
H264 H 0.48136 0.27087 0.13237 0.0
H265 H 0.48692 0.28744 0.22333 0.0
H266 H 0.51276 0.24074 0.29985 0.0
H267 H 0.50711 0.22391 0.20811 0.0
N268 N 0.49112 0.2183 0.10482 0.0
N269 N 0.48523 0.21883 1.00197 0.0
N270 N 0.48842 0.24587 0.05566 0.0
C271 C 0.4881 0.20937 0.05328 0.0
C272 C 0.48561 0.23726 0.00349 0.0
C273 C 0.49115 0.23651 0.10645 0.0
C274 C 0.48733 0.18955 0.05657 0.0
C275 C 0.5026 0.18031 0.07705 0.0
C276 C 0.50094 0.16329 0.1033 0.0
C277 C 0.48387 0.15528 0.11056 0.0
C278 C 0.46879 0.16387 0.08522 0.0
C279 C 0.47052 0.18087 0.05836 0.0
C280 C 0.4835 0.24861 0.95022 0.0
C281 C 0.46689 0.25702 0.93964 0.0
C282 C 0.46596 0.2727 0.90497 0.0
C283 C 0.48169 0.28049 0.88088 0.0
C284 C 0.4981 0.27121 0.88792 0.0
C285 C 0.49899 0.2555 0.92246 0.0
C286 C 0.49391 0.24614 0.16294 0.0
C287 C 0.48812 0.26404 0.1686 0.0
Sm288 Sm 0.0058 0.99563 0.71546 0.0
Sm289 Sm 0.98166 0.00857 0.60542 0.0
C290 C 0.01648 0.98215 0.81766 0.0
C291 C 0.02762 0.96653 0.83314 0.0
C292 C 0.03021 0.95264 0.79183 0.0
C293 C 0.04055 0.9376 0.80669 0.0
C294 C 0.04863 0.93626 0.863 0.0
C295 C 0.04637 0.95049 0.90366 0.0
C296 C 0.03591 0.96549 0.88882 0.0
C297 C 0.02673 0.99805 0.61358 0.0
C298 C 0.9883 0.96564 0.62095 0.0
C299 C 0.97074 0.02682 0.51225 0.0
C300 C 0.97945 0.04312 0.48868 0.0
C301 C 0.99782 0.046 0.50056 0.0
C302 C 0.00584 0.06252 0.48794 0.0
C303 C 0.99569 0.07654 0.46302 0.0
C304 C 0.97746 0.0735 0.44891 0.0
C305 C 0.96933 0.05689 0.46217 0.0
C306 C 0.96347 0.99995 0.70804 0.0
C307 C 1.0023 0.03857 0.69123 0.0
O308 O 1.00075 0.97837 0.79387 0.0
O309 O 0.02497 0.99539 0.79096 0.0
O310 O 0.01022 1.00121 0.61944 0.0
O311 O 0.03315 0.99331 0.66484 0.0
O312 O 0.99474 0.96904 0.67481 0.0
O313 O 0.98389 0.97859 0.58314 0.0
O314 O 0.98015 0.01194 0.50767 0.0
O315 O 0.96348 0.02887 0.56478 0.0
O316 O 0.97835 0.00811 0.70476 0.0
O317 O 0.95693 0.99704 0.65524 0.0
O318 O 0.99612 0.03439 0.63792 0.0
O319 O 0.0051 0.02616 0.73243 0.0
H320 H 0.02402 0.95332 0.74832 0.0
H321 H 0.04178 0.92682 0.77462 0.0
H322 H 0.05262 0.95 0.94706 0.0
H323 H 0.03422 0.97623 0.92089 0.0
H324 H 0.00586 0.03568 0.5218 0.0
H325 H 0.01997 0.06443 0.49846 0.0
H326 H 0.96937 0.08415 0.42968 0.0
H327 H 0.95508 0.05501 0.45359 0.0
Sm328 Sm 0.50265 0.01908 0.71416 0.0
Sm329 Sm 0.49254 0.99243 0.60863 0.0
C330 C 0.5202 0.03366 0.80298 0.0
C331 C 0.53817 0.02799 0.82313 0.0
C332 C 0.54252 0.00956 0.82297 0.0
C333 C 0.56038 1.00402 0.82682 0.0
C334 C 0.57436 0.01677 0.83096 0.0
C335 C 0.56994 0.03519 0.83437 0.0
C336 C 0.55197 0.04076 0.83031 0.0
C337 C 0.4921 0.03498 0.60979 0.0
C338 C 0.53478 0.99962 0.63115 0.0
C339 C 0.47674 0.9806 0.5124 0.0
C340 C 0.45858 0.9727 0.51004 0.0
C341 C 0.44619 0.97932 0.46852 0.0
C342 C 0.42772 0.97697 0.47779 0.0
C343 C 0.42141 0.96794 0.52869 0.0
C344 C 0.43386 0.95989 0.56727 0.0
C345 C 0.45231 0.96233 0.55821 0.0
C346 C 0.49628 0.97317 0.71367 0.0
C347 C 0.46082 0.00781 0.70121 0.0
O348 O 0.50711 0.02199 0.81113 0.0
O349 O 0.52003 0.04091 0.74996 0.0
O350 O 0.50212 0.02129 0.61436 0.0
O351 O 0.48786 0.04128 0.66183 0.0
O352 O 0.52993 0.0071 0.68216 0.0
O353 O 0.52284 0.9943 0.59122 0.0
O354 O 0.47676 0.99769 0.52718 0.0
O355 O 0.48915 0.97117 0.54007 0.0
O356 O 0.49796 0.98984 0.70552 0.0
O357 O 0.49273 0.96562 0.66306 0.0
O358 O 0.46508 1.00125 0.64835 0.0
O359 O 0.47313 0.01394 0.73866 0.0
H360 H 0.53224 0.99939 0.81594 0.0
H361 H 0.56324 0.98976 0.82299 0.0
H362 H 0.58039 0.04533 0.83852 0.0
H363 H 0.54893 0.05504 0.82959 0.0
H364 H 0.45071 0.98757 0.43164 0.0
H365 H 0.41834 0.98309 0.44693 0.0
H366 H 0.42934 0.95295 0.60693 0.0
H367 H 0.46155 0.95736 0.59161 0.0
Sm368 Sm 0.48495 0.51075 0.73116 0.0
Sm369 Sm 0.51334 0.50181 0.63087 0.0
C370 C 0.47298 0.52509 0.83001 0.0
C371 C 0.47724 0.5434 0.85079 0.0
C372 C 0.49469 0.55033 0.84221 0.0
C373 C 0.4979 0.56879 0.84594 0.0
C374 C 0.48371 0.58072 0.85806 0.0
C375 C 0.4665 0.5737 0.87057 0.0
C376 C 0.46327 0.55514 0.86674 0.0
C377 C 0.46679 0.50397 0.6264 0.0
C378 C 0.50058 0.54294 0.64155 0.0
C379 C 0.53258 0.48704 0.5455 0.0
C380 C 0.53429 0.46822 0.52687 0.0
C381 C 0.52005 0.45614 0.53716 0.0
C382 C 0.52244 0.43775 0.52797 0.0
C383 C 0.53908 0.43112 0.50809 0.0
C384 C 0.55317 0.44328 0.49595 0.0
C385 C 0.55082 0.46174 0.50575 0.0
C386 C 0.52719 0.51426 0.73653 0.0
C387 C 0.49373 0.4685 0.71038 0.0
O388 O 0.48638 0.51361 0.82923 0.0
O389 O 0.46337 0.52468 0.78139 0.0
O390 O 0.48357 0.50368 0.63466 0.0
O391 O 0.45873 0.5073 0.67637 0.0
O392 O 0.49477 0.53856 0.69534 0.0
O393 O 0.50629 0.53062 0.60373 0.0
O394 O 0.51693 0.49468 0.53598 0.0
O395 O 0.53904 0.49036 0.59836 0.0
O396 O 0.51437 0.50321 0.73046 0.0
O397 O 0.53347 0.519 0.68496 0.0
O398 O 0.50419 0.47363 0.6655 0.0
O399 O 0.48509 0.48017 0.74445 0.0
H400 H 0.50569 0.54165 0.82897 0.0
H401 H 0.51137 0.5738 0.83722 0.0
H402 H 0.45532 0.58261 0.87992 0.0
H403 H 0.44966 0.55011 0.87247 0.0
H404 H 0.5072 0.46086 0.55373 0.0
H405 H 0.51125 0.4287 0.53647 0.0
H406 H 0.56609 0.43845 0.48034 0.0
H407 H 0.56201 0.47089 0.49835 0.0
Sm408 Sm 0.99706 0.48778 0.70997 0.0
Sm409 Sm 0.00681 0.51211 0.61076 0.0
C410 C 0.97967 0.47409 0.80127 0.0
C411 C 0.96215 0.48035 0.82314 0.0
C412 C 0.9575 0.49855 0.81526 0.0
C413 C 0.93997 0.50431 0.82554 0.0
C414 C 0.92672 0.49202 0.84403 0.0
C415 C 0.93149 0.47394 0.8543 0.0
C416 C 0.94912 0.46809 0.84339 0.0
C417 C 0.00747 0.46955 0.6096 0.0
C418 C 0.96517 0.50405 0.62249 0.0
C419 C 0.02351 0.52875 0.52306 0.0
C420 C 0.0427 0.5338 0.51753 0.0
C421 C 0.05624 0.52065 0.52237 0.0
C422 C 0.0743 0.52571 0.52676 0.0
C423 C 0.07925 0.544 0.52658 0.0
C424 C 0.06578 0.55714 0.51952 0.0
C425 C 0.04766 0.55206 0.51504 0.0
C426 C 0.99544 0.52999 0.71072 0.0
C427 C 0.03911 0.4959 0.69892 0.0
O428 O 0.99301 0.48551 0.8073 0.0
O429 O 0.97917 0.46674 0.74863 0.0
O430 O 0.99745 0.48327 0.61043 0.0
O431 O 0.01177 0.46455 0.66307 0.0
O432 O 0.96981 0.49965 0.67726 0.0
O433 O 0.97764 0.50726 0.58216 0.0
O434 O 0.01972 0.5115 0.52193 0.0
O435 O 0.01462 0.53737 0.56418 0.0
O436 O 0.00612 0.51674 0.71026 0.0
O437 O 0.99073 0.53446 0.65729 0.0
O438 O 0.0347 0.50293 0.64697 0.0
O439 O 0.02667 0.4902 0.73621 0.0
H440 H 0.96725 0.50825 0.79893 0.0
H441 H 0.93671 0.51838 0.81825 0.0
H442 H 0.92145 0.46424 0.86869 0.0
H443 H 0.95241 0.45396 0.84876 0.0
H444 H 0.05291 0.50644 0.52461 0.0
H445 H 0.08439 0.51524 0.53069 0.0
H446 H 0.06917 0.57135 0.51926 0.0
H447 H 0.03746 0.56245 0.5118 0.0
C448 C 0.13259 0.99589 0.19414 0.0
C449 C 0.13869 0.01335 0.17995 0.0
C450 C 0.11761 0.99336 0.23105 0.0
C451 C 0.07951 0.01702 0.3077 0.0
H452 H 0.08781 0.98041 0.42752 0.0
C453 C 0.02954 1.00277 0.50308 0.0
C454 C 0.03755 0.99963 0.55862 0.0
C455 C 0.04017 1.0039 0.45164 0.0
C456 C 0.08527 0.99075 0.39459 0.0
H457 H 0.13265 0.04181 0.18936 0.0
H458 H 0.107 0.03743 0.2551 0.0
H459 H 0.10865 0.98339 0.34522 0.0
H460 H 0.06292 0.99534 0.60401 0.0
H461 H 0.08139 0.99746 0.51521 0.0
H462 H 0.05649 0.02484 0.3592 0.0
C463 C 0.11369 0.02564 0.23753 0.0
C464 C 0.09712 0.99229 0.34665 0.0
C465 C 0.12859 0.02817 0.2002 0.0
C466 C 0.05633 0.99769 0.5618 0.0
C467 C 0.06692 0.99879 0.51071 0.0
C468 C 0.06763 0.01549 0.35594 0.0
C469 C 0.1084 0.00821 0.25524 0.0
C470 C 0.09459 0.0056 0.30288 0.0
C471 C 0.05902 1.00177 0.45481 0.0
C472 C 0.07058 1.00255 0.40062 0.0
H473 H 0.13999 0.98411 0.17982 0.0
H474 H 0.11369 0.97971 0.24245 0.0
H475 H 0.07699 0.0273 0.27458 0.0
H476 H 0.01507 1.0041 0.49928 0.0
H477 H 0.03361 0.00609 0.40931 0.0
C478 C 0.49426 0.12554 0.15336 0.0
C479 C 0.48165 0.13969 0.15193 0.0
C480 C 0.49366 0.11247 0.19839 0.0
C481 C 0.47929 0.10781 0.35315 0.0
H482 H 0.48674 0.05657 0.33048 0.0
C483 C 0.47643 0.05912 0.55209 0.0
C484 C 0.48874 0.04479 0.55357 0.0
C485 C 0.47418 0.06938 0.50048 0.0
C486 C 0.48485 0.07087 0.33778 0.0
H487 H 0.45821 0.1508 0.19611 0.0
H488 H 0.45711 0.12803 0.27406 0.0
H489 H 0.48541 0.07662 0.2443 0.0
H490 H 0.50802 0.02962 0.5017 0.0
H491 H 0.50459 0.04786 0.41212 0.0
H492 H 0.47935 0.10242 0.4462 0.0
C493 C 0.4675 0.12707 0.24046 0.0
C494 C 0.48402 0.08234 0.28826 0.0
C495 C 0.468 0.14 0.19525 0.0
C496 C 0.49841 0.0406 0.50183 0.0
C497 C 0.49635 0.05103 0.45031 0.0
C498 C 0.48032 0.09643 0.40254 0.0
C499 C 0.48056 0.11338 0.2434 0.0
C500 C 0.48116 0.10094 0.29541 0.0
C501 C 0.48439 0.06577 0.44914 0.0
C502 C 0.48306 0.07776 0.39575 0.0
H503 H 0.50491 0.12486 0.12056 0.0
H504 H 0.50393 0.10213 0.19948 0.0
H505 H 0.47744 0.12213 0.36032 0.0
H506 H 0.46865 0.06254 0.59113 0.0
H507 H 0.46449 0.08027 0.50111 0.0
C508 C 0.37033 0.5033 0.18454 0.0
C509 C 0.36 0.48738 0.18282 0.0
C510 C 0.38534 0.50468 0.22191 0.0
C511 C 0.41656 0.47902 0.32092 0.0
H512 H 0.41479 0.5226 0.41555 0.0
C513 C 0.466 0.49558 0.51771 0.0
C514 C 0.45717 0.5014 0.56944 0.0
C515 C 0.45638 0.49367 0.46427 0.0
C516 C 0.41554 0.51039 0.38936 0.0
H517 H 0.35838 0.4599 0.21543 0.0
H518 H 0.3844 0.46238 0.28118 0.0
H519 H 0.39469 0.5193 0.33101 0.0
H520 H 0.43144 0.50959 0.60596 0.0
H521 H 0.41488 0.50646 0.51349 0.0
H522 H 0.43711 0.46996 0.38126 0.0
C523 C 0.38092 0.47382 0.25358 0.0
C524 C 0.40413 0.50856 0.34041 0.0
C525 C 0.36588 0.47244 0.21621 0.0
C526 C 0.43865 0.50513 0.56686 0.0
C527 C 0.42916 0.50344 0.51372 0.0
C528 C 0.42813 0.48093 0.36985 0.0
C529 C 0.39044 0.49018 0.25856 0.0
C530 C 0.40421 0.49272 0.30617 0.0
C531 C 0.43788 0.49782 0.46167 0.0
C532 C 0.42741 0.49647 0.40544 0.0
H533 H 0.36619 0.51514 0.1599 0.0
H534 H 0.39255 0.51738 0.22387 0.0
H535 H 0.41706 0.4667 0.29524 0.0
H536 H 0.48025 0.49253 0.51857 0.0
H537 H 0.46346 0.48929 0.42482 0.0
C538 C 0.01077 0.37178 0.16462 0.0
C539 C 0.01217 0.3537 0.18306 0.0
C540 C 0.01065 0.38576 0.20656 0.0
C541 C 0.02688 0.39653 0.3554 0.0
H542 H 0.98883 0.43216 0.36296 0.0
C543 C 0.01677 0.44047 0.56283 0.0
C544 C 0.00985 0.45797 0.55674 0.0
C545 C 0.01798 0.42903 0.51372 0.0
C546 C 0.99978 0.42256 0.36096 0.0
H547 H 0.01482 0.33618 0.2597 0.0
H548 H 0.01484 0.36048 0.33231 0.0
H549 H 0.98904 0.41009 0.28248 0.0
H550 H 0.99928 0.47746 0.49415 0.0
H551 H 1.00194 0.45773 0.40784 0.0
H552 H 0.03788 0.40894 0.43286 0.0
C553 C 0.01364 0.36385 0.28567 0.0
C554 C 0.99982 0.40988 0.31488 0.0
C555 C 0.01344 0.34993 0.24409 0.0
C556 C 0.00459 0.46398 0.50019 0.0
C557 C 0.00599 0.4526 0.45081 0.0
C558 C 0.02701 0.40933 0.40083 0.0
C559 C 0.01237 0.38191 0.26745 0.0
C560 C 0.01316 0.39651 0.31245 0.0
C561 C 0.01253 0.43488 0.45696 0.0
C562 C 0.01324 0.4223 0.40517 0.0
H563 H 0.00983 0.37507 0.11788 0.0
H564 H 0.00969 0.3996 0.19138 0.0
H565 H 0.03749 0.38653 0.35404 0.0
H566 H 0.02086 0.43542 0.60589 0.0
H567 H 0.02275 0.41542 0.5208 0.0
C568 C 0.86329 0.0143 0.13371 0.0
C569 C 0.85632 0.99839 0.1591 0.0
C570 C 0.87727 0.01362 0.09202 0.0
C571 C 0.89699 0.9819 0.98321 0.0
H572 H 0.93183 0.0203 0.9604 0.0
C573 C 0.9353 0.99129 0.76229 0.0
C574 C 0.9531 0.99772 0.76375 0.0
C575 C 0.92504 0.99033 0.81433 0.0
C576 C 0.92236 0.00932 0.96643 0.0
H577 H 0.85951 0.96932 0.16256 0.0
H578 H 0.88427 0.96822 0.09205 0.0
H579 H 0.9123 0.02061 0.04733 0.0
H580 H 0.97433 0.00771 0.82108 0.0
H581 H 0.95658 0.00569 0.9122 0.0
H582 H 0.90717 0.97048 0.90285 0.0
C583 C 0.87859 0.98122 0.10311 0.0
C584 C 0.91098 0.00962 0.01604 0.0
C585 C 0.86454 0.9819 0.14451 0.0
C586 C 0.96061 1.00275 0.81856 0.0
C587 C 0.95037 1.00172 0.87072 0.0
C588 C 0.9084 0.98156 0.93381 0.0
C589 C 0.88476 0.99701 0.07482 0.0
C590 C 0.89796 0.99603 0.02475 0.0
C591 C 0.93237 0.99567 0.86926 0.0
C592 C 0.92107 0.9954 0.92419 0.0
H593 H 0.85751 0.02729 0.14444 0.0
H594 H 0.88157 0.02608 0.07122 0.0
H595 H 0.88702 0.9713 0.98774 0.0
H596 H 0.92913 0.98737 0.72068 0.0
H597 H 0.91118 0.98585 0.81112 0.0
C598 C 0.48657 0.87838 0.15521 0.0
C599 C 0.50245 0.86957 0.17329 0.0
C600 C 0.48714 0.89219 0.11265 0.0
C601 C 0.51513 0.90671 0.9864 0.0
H602 H 0.48329 0.94809 0.9825 0.0
C603 C 0.49901 0.94436 0.76978 0.0
C604 C 0.49841 0.96328 0.77038 0.0
C605 C 0.50066 0.9346 0.82256 0.0
C606 C 0.4924 0.93671 0.98321 0.0
H607 H 0.5315 0.86912 0.16221 0.0
H608 H 0.5325 0.89334 0.08935 0.0
H609 H 0.48414 0.92879 0.07081 0.0
H610 H 0.49884 0.98684 0.82689 0.0
H611 H 0.50169 0.96971 0.9199 0.0
H612 H 0.52324 0.91442 0.8988 0.0
C613 C 0.51956 0.8894 0.10747 0.0
C614 C 0.49277 0.92555 0.03359 0.0
C615 C 0.51899 0.87564 0.15003 0.0
C616 C 0.49943 0.97227 0.82512 0.0
C617 C 0.50092 0.96246 0.87829 0.0
C618 C 0.51466 0.91776 0.93608 0.0
C619 C 0.5036 0.8975 0.08691 0.0
C620 C 0.50402 0.91029 0.03557 0.0
C621 C 0.50162 0.94348 0.87755 0.0
C622 C 0.50312 0.93275 0.93342 0.0
H623 H 0.4736 0.8742 0.17255 0.0
H624 H 0.47457 0.89807 0.09782 0.0
H625 H 0.5238 0.89499 0.98588 0.0
H626 H 0.49816 0.93703 0.72832 0.0
H627 H 0.50087 0.92001 0.82032 0.0
C628 C 0.63617 0.49845 0.13351 0.0
C629 C 0.64133 0.51367 0.16668 0.0
C630 C 0.62128 0.49909 0.09542 0.0
C631 C 0.59405 0.53231 0.01121 0.0
H632 H 0.5656 0.49007 0.97224 0.0
C633 C 0.55327 0.52696 0.79342 0.0
C634 C 0.53732 0.51674 0.79265 0.0
C635 C 0.56396 0.52773 0.84456 0.0
C636 C 0.57318 0.50212 0.98301 0.0
H637 H 0.63409 0.54125 0.18785 0.0
H638 H 0.60776 0.54214 0.1234 0.0
H639 H 0.58689 0.4888 0.0542 0.0
H640 H 0.51973 0.4998 0.84561 0.0
H641 H 0.53801 0.5016 0.93544 0.0
H642 H 0.58015 0.54571 0.94064 0.0
C643 C 0.61553 0.52981 0.12558 0.0
C644 C 0.58563 0.5013 0.02968 0.0
C645 C 0.63051 0.5292 0.16343 0.0
C646 C 0.53192 0.50785 0.84483 0.0
C647 C 0.54254 0.50871 0.89617 0.0
C648 C 0.58152 0.53316 0.96481 0.0
C649 C 0.61101 0.51494 0.08971 0.0
C650 C 0.59648 0.51628 0.04382 0.0
C651 C 0.55891 0.51838 0.89646 0.0
C652 C 0.57112 0.51798 0.9493 0.0
H653 H 0.64401 0.48617 0.13543 0.0
H654 H 0.61836 0.48737 0.06846 0.0
H655 H 0.60224 0.54409 0.02011 0.0
H656 H 0.55781 0.53393 0.75386 0.0
H657 H 0.57654 0.53513 0.84254 0.0
C658 C 0.99763 0.63156 0.13493 0.0
C659 C 0.98804 0.64777 0.12786 0.0
C660 C 0.99517 0.61724 0.09534 0.0
C661 C 0.98178 0.6098 0.94024 0.0
H662 H 0.98542 0.55915 0.98134 0.0
C663 C 0.97906 0.55537 0.75911 0.0
C664 C 0.9915 0.5412 0.76343 0.0
C665 C 0.97621 0.56699 0.80694 0.0
C666 C 0.98451 0.57324 0.96907 0.0
H667 H 0.9675 0.66116 0.07558 0.0
H668 H 0.96293 0.63606 0.00724 0.0
H669 H 0.98413 0.5818 0.05999 0.0
H670 H 0.01015 0.52757 0.82209 0.0
H671 H 0.00553 0.54812 0.90552 0.0
H672 H 0.98266 0.60146 0.84963 0.0
C673 C 0.97262 0.63454 0.04285 0.0
C674 C 0.98373 0.58623 0.0142 0.0
C675 C 0.97506 0.64886 0.08254 0.0
C676 C 1.00054 0.53843 0.81743 0.0
C677 C 0.99778 0.55017 0.86534 0.0
C678 C 0.98262 0.59687 0.89528 0.0
C679 C 0.98306 0.61877 0.0476 0.0
C680 C 0.98248 0.6047 1.00031 0.0
C681 C 0.98583 0.56484 0.8603 0.0
C682 C 0.98411 0.57841 0.90894 0.0
H683 H 0.00758 0.63019 0.16982 0.0
H684 H 1.00348 0.60535 0.10037 0.0
H685 H 0.98123 0.6239 0.92773 0.0
H686 H 0.97167 0.55767 0.71822 0.0
H687 H 0.96658 0.57783 0.8018 0.0
C688 C 0.07957 0.2085 0.29834 0.0
C689 C 0.06748 0.22305 0.29574 0.0
C690 C 0.07551 0.19328 0.33245 0.0
C691 C 0.04308 0.17356 0.44091 0.0
H692 H 0.04417 0.13267 0.33382 0.0
C693 C 0.01481 0.10228 0.49748 0.0
C694 C 1.00428 0.09427 0.45276 0.0
C695 C 0.0241 0.11834 0.48656 0.0
C696 C 0.0438 0.14396 0.36424 0.0
H697 H 0.04263 0.23379 0.33224 0.0
H698 H 0.03573 0.20746 0.39186 0.0
H699 H 0.05974 0.16037 0.30667 0.0
H700 H 0.99478 0.09692 0.36231 0.0
H701 H 0.01109 0.12502 0.34298 0.0
H702 H 0.02653 0.15715 0.49747 0.0
C703 C 0.04832 0.20774 0.36759 0.0
C704 C 0.05295 0.15974 0.34918 0.0
C705 C 0.05234 0.22291 0.33334 0.0
C706 C 1.00279 0.10285 0.39748 0.0
C707 C 0.01224 0.1188 0.38634 0.0
C708 C 0.03403 0.15766 0.45625 0.0
C709 C 0.05933 0.1924 0.36481 0.0
C710 C 0.05236 0.17486 0.38666 0.0
C711 C 0.02318 0.12655 0.43049 0.0
C712 C 0.03392 0.14289 0.41723 0.0
H713 H 0.09155 0.20836 0.27085 0.0
H714 H 0.08443 0.18175 0.33051 0.0
H715 H 0.04243 0.185 0.47064 0.0
H716 H 0.01602 0.09599 0.54073 0.0
H717 H 0.03242 0.12404 0.52134 0.0
C718 C 0.26871 0.98087 0.441 0.0
C719 C 0.27133 0.99755 0.41262 0.0
C720 C 0.28008 0.9756 0.48738 0.0
C721 C 0.31875 0.99093 0.58149 0.0
H722 H 0.34136 0.94764 0.52098 0.0
C723 C 0.39314 0.98537 0.54251 0.0
C724 C 0.40213 0.96877 0.5449 0.0
C725 C 0.37488 0.98645 0.55608 0.0
C726 C 0.33506 0.95942 0.5402 0.0
H727 H 0.28635 0.02259 0.41428 0.0
H728 H 0.30623 0.01348 0.49454 0.0
H729 H 0.31065 0.95455 0.49284 0.0
H730 H 0.3994 0.94043 0.56655 0.0
H731 H 0.36707 0.9422 0.5889 0.0
H732 H 0.34384 0.99646 0.62491 0.0
C733 C 0.29547 1.0044 0.48161 0.0
C734 C 0.31736 0.96341 0.52405 0.0
C735 C 0.28423 0.00958 0.43511 0.0
C736 C 0.39269 0.95335 0.56378 0.0
C737 C 0.37427 0.95439 0.57677 0.0
C738 C 0.33646 0.98692 0.59774 0.0
C739 C 0.29413 0.987 0.50622 0.0
C740 C 0.3095 0.97983 0.54109 0.0
C741 C 0.36512 0.97091 0.57196 0.0
C742 C 0.34517 0.97178 0.57369 0.0
H743 H 0.25881 0.97137 0.42442 0.0
H744 H 0.27866 0.96217 0.5058 0.0
H745 H 0.31286 1.00349 0.59637 0.0
H746 H 0.40021 0.99756 0.52961 0.0
H747 H 0.36822 0.99935 0.55107 0.0
C748 C 0.49207 0.28815 0.345 0.0
C749 C 0.50486 0.27631 0.32099 0.0
C750 C 0.49755 0.30221 0.38174 0.0
C751 C 0.53286 0.32395 0.46764 0.0
H752 H 0.52024 0.36612 0.3742 0.0
C753 C 0.53499 0.39917 0.54088 0.0
C754 C 0.54127 0.41158 0.49835 0.0
C755 C 0.53416 0.38082 0.5276 0.0
C756 C 0.524 0.35446 0.40046 0.0
H757 H 0.53299 0.26848 0.3219 0.0
H758 H 0.54257 0.29318 0.38676 0.0
H759 H 0.50987 0.33648 0.34303 0.0
H760 H 0.55283 0.41452 0.41058 0.0
H761 H 0.55116 0.38239 0.38704 0.0
H762 H 0.5467 0.3423 0.52592 0.0
C763 C 0.52836 0.29153 0.377 0.0
C764 C 0.51788 0.33757 0.3831 0.0
C765 C 0.52288 0.27744 0.33995 0.0
C766 C 0.54794 0.40522 0.44407 0.0
C767 C 0.54695 0.3869 0.43059 0.0
C768 C 0.53875 0.34105 0.48581 0.0
C769 C 0.51587 0.30455 0.39521 0.0
C770 C 0.52217 0.32221 0.41656 0.0
C771 C 0.53944 0.37468 0.47143 0.0
C772 C 0.53441 0.35639 0.452 0.0
H773 H 0.47805 0.28736 0.33173 0.0
H774 H 0.48769 0.31208 0.39583 0.0
H775 H 0.5364 0.31219 0.49367 0.0
H776 H 0.53 0.40378 0.5834 0.0
H777 H 0.52824 0.37164 0.55962 0.0
C778 C 0.23351 0.54197 0.40737 0.0
C779 C 0.23333 0.55263 0.35573 0.0
C780 C 0.22097 0.54498 0.45253 0.0
C781 C 0.182 0.57442 0.49656 0.0
H782 H 0.15933 0.52817 0.52682 0.0
C783 C 0.10595 0.56277 0.49708 0.0
C784 C 0.09848 0.54919 0.53303 0.0
C785 C 0.12446 0.56619 0.49826 0.0
C786 C 0.16561 0.54122 0.52033 0.0
H787 H 0.22155 0.57629 0.31467 0.0
H788 H 0.19922 0.581 0.39147 0.0
H789 H 0.1898 0.52914 0.48921 0.0
H790 H 0.10429 0.52966 0.60223 0.0
H791 H 0.1367 0.53544 0.60348 0.0
H792 H 0.15702 0.58633 0.52354 0.0
C793 C 0.20902 0.57039 0.39787 0.0
C794 C 0.18321 0.54181 0.49882 0.0
C795 C 0.22169 0.56752 0.35317 0.0
C796 C 0.10974 0.53989 0.57287 0.0
C797 C 0.12826 0.54328 0.57393 0.0
C798 C 0.16428 0.57381 0.5176 0.0
C799 C 0.20787 0.55855 0.44657 0.0
C800 C 0.19135 0.55838 0.48402 0.0
C801 C 0.13588 0.55609 0.53536 0.0
C802 C 0.15567 0.55717 0.5272 0.0
H803 H 0.24235 0.53042 0.41104 0.0
H804 H 0.22078 0.5359 0.49021 0.0
H805 H 0.188 0.58743 0.48699 0.0
H806 H 0.09767 0.57009 0.46571 0.0
H807 H 0.12995 0.57597 0.46739 0.0
C808 C 0.08954 0.79125 0.06348 0.0
C809 C 0.07368 0.78171 0.05009 0.0
C810 C 0.09425 0.80662 0.03096 0.0
C811 C 0.08892 0.84576 1.00027 0.0
H812 H 0.07302 0.85616 0.83998 0.0
C813 C 0.056 0.91224 0.93727 0.0
C814 C 0.0584 0.91959 0.88033 0.0
C815 C 0.06374 0.89574 0.95225 0.0
C816 C 0.0779 0.8535 0.88444 0.0
H817 H 0.05114 0.77987 0.98916 0.0
H818 H 0.05907 0.80669 0.93336 0.0
H819 H 0.07743 0.82494 0.87078 0.0
H820 H 0.07158 0.91574 0.79533 0.0
H821 H 0.08497 0.8867 0.82148 0.0
H822 H 0.08898 0.87426 0.01437 0.0
C823 C 0.06813 0.80228 0.96813 0.0
C824 C 0.08026 0.8356 0.90228 0.0
C825 C 0.06353 0.78685 1.00029 0.0
C826 C 0.06924 0.9103 0.8393 0.0
C827 C 0.07696 0.89371 0.85427 0.0
C828 C 0.08667 0.86362 0.98235 0.0
C829 C 0.08306 0.81284 0.98488 0.0
C830 C 0.08499 0.83149 0.96123 0.0
C831 C 0.07407 0.88614 0.91067 0.0
C832 C 0.08032 0.86765 0.92515 0.0
H833 H 0.09776 0.78741 0.10115 0.0
H834 H 0.10608 0.81421 0.04412 0.0
H835 H 0.09248 0.8432 0.0461 0.0
H836 H 0.04748 0.91883 0.96961 0.0
H837 H 0.06092 0.89013 0.99567 0.0
C838 C 0.72713 0.97829 0.93248 0.0
C839 C 0.7241 0.96404 0.97257 0.0
C840 C 0.71446 0.98225 0.88854 0.0
C841 C 0.66969 0.96776 0.82686 0.0
H842 H 0.65853 0.01846 0.84679 0.0
C843 C 0.59861 0.9946 0.8563 0.0
C844 C 0.59341 0.01073 0.82836 0.0
C845 C 0.61625 0.98838 0.85165 0.0
C846 C 0.66162 1.00437 0.83939 0.0
H847 H 0.70673 0.94131 0.99277 0.0
H848 H 0.68432 0.94861 0.91835 0.0
H849 H 0.68808 0.00742 0.87456 0.0
H850 H 0.60269 0.0328 0.7727 0.0
H851 H 0.63385 0.02221 0.76682 0.0
H852 H 0.64249 0.96465 0.79647 0.0
C853 C 0.69645 0.95673 0.92009 0.0
C854 C 0.67863 0.99799 0.85506 0.0
C855 C 0.70921 0.95266 0.96352 0.0
C856 C 0.60634 0.02053 0.79581 0.0
C857 C 0.62409 0.01437 0.79172 0.0
C858 C 0.65259 0.97413 0.81185 0.0
C859 C 0.69843 0.97218 0.88431 0.0
C860 C 0.68258 0.97944 0.85183 0.0
C861 C 0.62917 0.99822 0.81956 0.0
C862 C 0.64818 0.99234 0.82069 0.0
H863 H 0.7385 0.98732 0.93796 0.0
H864 H 0.71663 0.99397 0.8607 0.0
H865 H 0.67243 0.95349 0.82241 0.0
H866 H 0.58912 0.98687 0.88254 0.0
H867 H 0.61993 0.97611 0.87483 0.0
C868 C 0.53944 0.72176 0.97376 0.0
C869 C 0.52754 0.73605 0.98479 0.0
C870 C 0.5349 0.70832 0.93318 0.0
C871 C 0.49301 0.68759 0.88317 0.0
H872 H 0.52644 0.65268 0.81878 0.0
C873 C 0.47978 0.61201 0.89757 0.0
C874 C 0.48677 0.60041 0.85428 0.0
C875 C 0.48334 0.63048 0.89493 0.0
C876 C 0.51678 0.66237 0.83531 0.0
H877 H 0.50271 0.74878 0.95592 0.0
H878 H 0.49519 0.72575 0.88329 0.0
H879 H 0.53668 0.68326 0.8384 0.0
H880 H 0.50223 0.5991 0.77274 0.0
H881 H 0.50821 0.63138 0.76758 0.0
H882 H 0.47315 0.6667 0.88059 0.0
C883 C 0.50771 0.72454 0.90766 0.0
C884 C 0.52273 0.67988 0.84714 0.0
C885 C 0.51215 0.73789 0.94884 0.0
C886 C 0.49689 0.60771 0.80723 0.0
C887 C 0.50031 0.6262 0.80424 0.0
C888 C 0.48702 0.67017 0.87069 0.0
C889 C 0.51844 0.70903 0.90223 0.0
C890 C 0.51116 0.69242 0.8741 0.0
C891 C 0.49381 0.63778 0.84855 0.0
C892 C 0.49907 0.65711 0.84953 0.0
H893 H 0.55164 0.72023 0.99972 0.0
H894 H 0.54358 0.69664 0.9303 0.0
H895 H 0.48366 0.69679 0.9041 0.0
H896 H 0.47206 0.60673 0.93453 0.0
H897 H 0.47843 0.63893 0.93056 0.0
C898 C 0.79326 0.57089 0.00516 0.0
C899 C 0.77867 0.55887 0.01035 0.0
C900 C 0.80812 0.56642 0.97021 0.0
C901 C 0.82706 0.53336 0.8638 0.0
H902 H 0.86791 0.53406 0.97135 0.0
C903 C 0.89984 0.50911 0.80848 0.0
C904 C 0.90804 0.49834 0.85217 0.0
C905 C 0.88301 0.51686 0.8187 0.0
C906 C 0.85661 0.53378 0.94088 0.0
H907 H 0.76732 0.53379 0.97731 0.0
H908 H 0.79308 0.52619 0.91603 0.0
H909 H 0.84031 0.54963 0.99862 0.0
H910 H 0.9049 0.48658 0.93958 0.0
H911 H 0.87547 0.50035 0.95794 0.0
H912 H 0.8435 0.51712 0.80661 0.0
C913 C 0.7931 0.53901 0.93905 0.0
C914 C 0.84092 0.54292 0.95599 0.0
C915 C 0.77828 0.54341 0.97421 0.0
C916 C 0.89882 0.49481 0.90524 0.0
C917 C 0.8821 0.50276 0.91582 0.0
C918 C 0.84293 0.52438 0.84826 0.0
C919 C 0.80856 0.54993 0.93961 0.0
C920 C 0.82588 0.54258 0.91813 0.0
C921 C 0.87426 0.51416 0.87315 0.0
C922 C 0.85767 0.52421 0.88738 0.0
H923 H 0.79377 0.58308 0.03148 0.0
H924 H 0.81978 0.57524 0.97042 0.0
H925 H 0.81561 0.53285 0.83399 0.0
H926 H 0.90668 0.51192 0.76702 0.0
H927 H 0.87723 0.5256 0.7852 0.0
C928 C 0.00473 0.19631 0.86141 0.0
C929 C 0.02005 0.20629 0.84456 0.0
C930 C 1.00188 0.17886 0.8396 0.0
C931 C 0.01694 0.14582 0.72489 0.0
H932 H 1.00069 0.11077 0.84111 0.0
C933 C 1.00098 0.07143 0.66384 0.0
C934 C 0.00531 0.05793 0.70547 0.0
C935 C 1.00276 0.08971 0.67819 0.0
C936 C 0.0054 0.12032 0.80815 0.0
H937 H 0.04376 0.20604 0.78826 0.0
H938 H 0.03901 0.17556 0.75127 0.0
H939 H 1.00316 0.14235 0.86877 0.0
H940 H 0.0154 0.05323 0.79448 0.0
H941 H 0.0188 0.08505 0.81912 0.0
H942 H 0.0197 0.12363 0.66479 0.0
C943 C 0.02912 0.18121 0.78118 0.0
C944 C 0.00654 0.13854 0.82377 0.0
C945 C 0.03194 0.19868 0.80288 0.0
C946 C 0.01184 0.06322 0.76139 0.0
C947 C 0.01366 0.08151 0.77569 0.0
C948 C 0.01582 0.12756 0.70925 0.0
C949 C 0.0143 0.17087 0.80042 0.0
C950 C 0.01237 0.15156 0.78247 0.0
C951 C 0.00895 0.09502 0.73454 0.0
C952 C 0.01012 0.11453 0.7508 0.0
H953 H 0.99534 0.20162 0.89373 0.0
H954 H 0.99012 0.17147 0.85454 0.0
H955 H 0.02134 0.15544 0.6917 0.0
H956 H 0.99585 0.06793 0.62036 0.0
H957 H 0.9988 0.09967 0.64553 0.0
C958 C 0.30367 0.0221 0.8784 0.0
C959 C 0.29682 0.00535 0.8973 0.0
C960 C 0.32008 0.02316 0.84765 0.0
C961 C 0.35494 0.99571 0.76872 0.0
H962 H 0.38726 0.03323 0.82403 0.0
C963 C 0.42789 1.00337 0.67776 0.0
C964 C 0.44144 0.00831 0.71846 0.0
C965 C 0.40966 1.00376 0.69404 0.0
C966 C 0.37849 0.02257 0.8083 0.0
H967 H 0.3013 0.97648 0.89472 0.0
H968 H 0.32992 0.97832 0.84222 0.0
H969 H 0.35636 0.03239 0.85956 0.0
H970 H 0.44628 0.01733 0.80857 0.0
H971 H 0.41467 0.01763 0.83724 0.0
H972 H 0.37732 0.98547 0.71925 0.0
C973 C 0.32266 0.99069 0.85088 0.0
C974 C 0.36061 0.02226 0.82801 0.0
C975 C 0.30629 0.98963 0.8816 0.0
C976 C 0.43626 0.01357 0.77587 0.0
C977 C 0.41805 0.01386 0.79221 0.0
C978 C 0.37287 0.99599 0.74907 0.0
C979 C 0.33005 0.0075 0.83489 0.0
C980 C 0.34862 0.00868 0.80922 0.0
C981 C 0.40445 0.00901 0.75152 0.0
C982 C 0.38501 0.00926 0.76939 0.0
H983 H 0.29683 0.0345 0.8899 0.0
H984 H 0.32516 0.03633 0.83515 0.0
H985 H 0.34607 0.98518 0.75259 0.0
H986 H 0.43131 0.99927 0.63305 0.0
H987 H 0.39964 1.00015 0.66125 0.0
C988 C 0.49255 0.30383 0.80664 0.0
C989 C 0.48136 0.29907 0.85466 0.0
C990 C 0.49327 0.32168 0.78589 0.0
C991 C 0.46881 0.36563 0.79141 0.0
H992 H 0.51549 0.38595 0.75207 0.0
C993 C 0.48009 0.4426 0.76764 0.0
C994 C 0.49183 0.44883 0.72302 0.0
C995 C 0.47846 0.42413 0.77989 0.0
C996 C 0.5023 0.38046 0.76211 0.0
H997 H 0.46221 0.30965 0.91846 0.0
H998 H 0.46338 0.34049 0.88235 0.0
H999 H 0.51308 0.35416 0.77879 0.0
H1000 H 0.51112 0.44026 0.65649 0.0
H1001 H 0.5081 0.40815 0.67725 0.0
H1002 H 0.45805 0.39196 0.77537 0.0
C1003 C 0.47139 0.33041 0.85985 0.0
C1004 C 0.50091 0.36217 0.7774 0.0
C1005 C 0.47068 0.31261 0.88054 0.0
C1006 C 0.50188 0.43604 0.69097 0.0
C1007 C 0.50026 0.41757 0.70325 0.0
C1008 C 0.4702 0.38391 0.77619 0.0
C1009 C 0.48282 0.33527 0.81261 0.0
C1010 C 0.48417 0.35452 0.79286 0.0
C1011 C 0.48854 0.41134 0.74796 0.0
C1012 C 0.48698 0.39165 0.76187 0.0
H1013 H 0.50084 0.29377 0.78515 0.0
H1014 H 0.50203 0.32483 0.74885 0.0
H1015 H 0.45563 0.36019 0.80191 0.0
H1016 H 0.47216 0.452 0.79344 0.0
H1017 H 0.4695 0.41991 0.81522 0.0
C1018 C 0.19616 0.48304 0.88072 0.0
C1019 C 0.20509 0.4998 0.8801 0.0
C1020 C 0.17925 0.48098 0.85363 0.0
C1021 C 0.14592 0.50423 0.75338 0.0
H1022 H 0.11167 0.47421 0.83798 0.0
C1023 C 0.07205 0.49633 0.6725 0.0
C1024 C 0.05846 0.49473 0.7157 0.0
C1025 C 0.0903 0.49566 0.68843 0.0
C1026 C 0.12095 0.48283 0.81401 0.0
H1027 H 0.20363 0.52717 0.84619 0.0
H1028 H 0.17407 0.52386 0.80174 0.0
H1029 H 0.1427 0.47554 0.87124 0.0
H1030 H 0.05348 0.49129 0.80978 0.0
H1031 H 0.08513 0.49072 0.83794 0.0
H1032 H 0.12389 0.51235 0.69831 0.0
C1033 C 0.18009 0.51216 0.82243 0.0
C1034 C 0.13896 0.48333 0.83251 0.0
C1035 C 0.19705 0.51414 0.84884 0.0
C1036 C 0.06358 0.4924 0.77525 0.0
C1037 C 0.08181 0.49196 0.79133 0.0
C1038 C 0.12783 0.50392 0.73534 0.0
C1039 C 0.1707 0.49566 0.82557 0.0
C1040 C 0.15173 0.49416 0.80288 0.0
C1041 C 0.09549 0.49357 0.74821 0.0
C1042 C 0.115 0.49334 0.76574 0.0
H1043 H 0.20181 0.47168 0.90444 0.0
H1044 H 0.17274 0.46792 0.85587 0.0
H1045 H 0.1553 0.51252 0.72857 0.0
H1046 H 0.0686 0.49794 0.62614 0.0
H1047 H 0.10031 0.49662 0.65362 0.0
C1048 C 0.9757 0.81371 0.40171 0.0
C1049 C 0.98544 0.80055 0.43316 0.0
C1050 C 0.97366 0.83113 0.42471 0.0
C1051 C 0.9781 0.85889 0.56168 0.0
H1052 H 0.98743 0.89764 0.4501 0.0
C1053 C 0.99266 0.93231 0.63729 0.0
C1054 C 0.98611 0.94653 0.60199 0.0
C1055 C 0.99113 0.91437 0.61833 0.0
C1056 C 0.9845 0.88705 0.48183 0.0
H1057 H 0.99968 0.79513 0.51528 0.0
H1058 H 0.99622 0.82548 0.55519 0.0
H1059 H 0.98647 0.86665 0.41514 0.0
H1060 H 0.97243 0.95286 0.51944 0.0
H1061 H 0.9695 0.92171 0.48705 0.0
H1062 H 0.97625 0.87934 0.62848 0.0
C1063 C 0.99014 0.82238 0.51271 0.0
C1064 C 0.98395 0.86922 0.46169 0.0
C1065 C 0.99224 0.80498 0.48961 0.0
C1066 C 0.97776 0.94231 0.5477 0.0
C1067 C 0.97616 0.9244 0.52888 0.0
C1068 C 0.9786 0.87676 0.58184 0.0
C1069 C 0.98124 0.83582 0.47987 0.0
C1070 C 0.98083 0.85487 0.50133 0.0
C1071 C 0.98296 0.91016 0.56365 0.0
C1072 C 0.98191 0.8911 0.54223 0.0
H1073 H 0.97041 0.81086 0.35792 0.0
H1074 H 0.96647 0.84106 0.39862 0.0
H1075 H 0.97548 0.8482 0.59337 0.0
H1076 H 0.99924 0.935 0.67927 0.0
H1077 H 0.99674 0.90384 0.64601 0.0
C1078 C 0.69214 1.00312 0.46595 0.0
C1079 C 0.70172 0.98679 0.4687 0.0
C1080 C 0.67508 1.00467 0.49223 0.0
C1081 C 0.63639 0.9761 0.53501 0.0
H1082 H 0.61824 0.01993 0.60671 0.0
C1083 C 0.56018 0.98878 0.56634 0.0
C1084 C 0.55436 0.99749 0.61827 0.0
C1085 C 0.57857 0.98721 0.55347 0.0
C1086 C 0.62312 0.00752 0.58729 0.0
H1087 H 0.70135 0.95971 0.50518 0.0
H1088 H 0.67172 0.96244 0.55108 0.0
H1089 H 0.64995 0.01802 0.57812 0.0
H1090 H 0.56355 0.01142 0.6974 0.0
H1091 H 0.59558 0.00846 0.67524 0.0
H1092 H 0.60965 0.96557 0.54407 0.0
C1093 C 0.67719 0.97394 0.52742 0.0
C1094 C 0.64128 0.00649 0.57037 0.0
C1095 C 0.69422 0.97239 0.50122 0.0
C1096 C 0.56747 1.00453 0.65714 0.0
C1097 C 0.58588 1.00298 0.6442 0.0
C1098 C 0.61825 0.97716 0.55164 0.0
C1099 C 0.66717 0.98993 0.52194 0.0
C1100 C 0.64813 0.99081 0.54353 0.0
C1101 C 0.59169 0.99433 0.59209 0.0
C1102 C 0.61129 0.99294 0.57738 0.0
H1103 H 0.69737 0.01442 0.44076 0.0
H1104 H 0.66773 0.01716 0.48669 0.0
H1105 H 0.64109 0.96387 0.51392 0.0
H1106 H 0.55052 0.98324 0.53522 0.0
H1107 H 0.5825 0.98069 0.5125 0.0
C1108 C 0.50074 0.70597 0.51053 0.0
C1109 C 0.51092 0.70899 0.4587 0.0
C1110 C 0.49862 0.68844 0.5335 0.0
C1111 C 0.50054 0.64052 0.48721 0.0
H1112 H 0.50651 0.62986 0.65447 0.0
C1113 C 0.50903 0.56748 0.56952 0.0
C1114 C 0.50105 0.5623 0.62355 0.0
C1115 C 0.50934 0.58558 0.55187 0.0
C1116 C 0.50455 0.63261 0.60773 0.0
H1117 H 0.52645 0.69573 0.38988 0.0
H1118 H 0.5229 0.66553 0.42986 0.0
H1119 H 0.5083 0.66112 0.61982 0.0
H1120 H 0.48718 0.57233 0.70155 0.0
H1121 H 0.48738 0.60388 0.67 0.0
H1122 H 0.49674 0.6122 0.47471 0.0
C1123 C 0.51655 0.67662 0.45295 0.0
C1124 C 0.50559 0.65056 0.58787 0.0
C1125 C 0.51878 0.69404 0.4304 0.0
C1126 C 0.49347 0.57579 0.65966 0.0
C1127 C 0.49369 0.59394 0.64174 0.0
C1128 C 0.49942 0.62267 0.507 0.0
C1129 C 0.50638 0.67352 0.5046 0.0
C1130 C 0.50391 0.6547 0.52715 0.0
C1131 C 0.50158 0.59909 0.58743 0.0
C1132 C 0.50172 0.61837 0.56739 0.0
H1133 H 0.49452 0.71716 0.53347 0.0
H1134 H 0.49063 0.68652 0.57324 0.0
H1135 H 0.49878 0.64323 0.44032 0.0
H1136 H 0.51513 0.55755 0.54069 0.0
H1137 H 0.51587 0.58899 0.51036 0.0
C1138 C 0.80689 0.50275 0.45207 0.0
C1139 C 0.79703 0.51811 0.46881 0.0
C1140 C 0.82443 0.49998 0.47329 0.0
C1141 C 0.85776 0.51504 0.58727 0.0
H1142 H 0.89263 0.49896 0.47078 0.0
C1143 C 0.93238 0.50044 0.64827 0.0
C1144 C 0.94572 0.50546 0.60698 0.0
C1145 C 0.91406 0.50137 0.6335 0.0
C1146 C 0.88312 0.50359 0.50384 0.0
H1147 H 0.79764 0.54202 0.52403 0.0
H1148 H 0.82823 0.53735 0.56027 0.0
H1149 H 0.861 0.50132 0.44339 0.0
H1150 H 0.95014 0.51559 0.51786 0.0
H1151 H 0.91824 0.51756 0.49251 0.0
H1152 H 0.88002 0.5178 0.64724 0.0
C1153 C 0.82242 0.52738 0.53085 0.0
C1154 C 0.86488 0.50469 0.48835 0.0
C1155 C 0.80489 0.53015 0.50961 0.0
C1156 C 0.94026 0.51155 0.55069 0.0
C1157 C 0.92193 0.51256 0.53602 0.0
C1158 C 0.87603 0.51393 0.6028 0.0
C1159 C 0.8326 0.51248 0.51188 0.0
C1160 C 0.85194 0.51052 0.52971 0.0
C1161 C 0.90856 0.50743 0.57714 0.0
C1162 C 0.889 0.5083 0.56115 0.0
H1163 H 0.8014 0.49325 0.42037 0.0
H1164 H 0.83171 0.48818 0.45849 0.0
H1165 H 0.8482 0.51943 0.6205 0.0
H1166 H 0.93605 0.49556 0.69194 0.0
H1167 H 0.90421 0.49702 0.66597 0.0
loop_
_geom_bond_atom_site_label_1
_geom_bond_atom_site_label_2
_geom_bond_distance
_geom_bond_site_symmetry_2
_ccdc_geom_bond_type
C0 C1 1.384 . S
C0 H13 0.947 . S
C0 C35 1.382 . S
C1 C0 1.384 . S
C1 C2 1.378 . S
C2 C1 1.378 . S
C2 C3 1.378 . S
C2 H14 0.952 . S
C3 C2 1.378 . S
C3 H15 0.950 . S
C3 C34 1.383 . S
H4 C23 0.947 . S
H5 C24 0.946 . S
H6 C26 0.953 . S
H7 C27 0.945 . S
H8 C29 0.952 . S
H9 C30 0.949 . S
H10 C32 0.950 . S
H11 C33 0.948 . S
H12 C35 0.951 . S
H13 C0 0.947 . S
H14 C2 0.952 . S
H15 C3 0.950 . S
N16 C19 1.382 . S
N16 C21 1.363 . S
N17 C19 1.371 . S
N17 C20 1.372 . S
N18 C20 1.361 . S
N18 C21 1.377 . S
C19 N16 1.382 . S
C19 N17 1.371 . S
C19 C22 1.480 . S
C20 N17 1.372 . S
C20 N18 1.361 . S
C20 C28 1.457 . S
C21 N16 1.363 . S
C21 N18 1.377 . S
C21 C34 1.479 . S
C22 C19 1.480 . S
C22 C23 1.383 . S
C22 C27 1.385 . S
C23 H4 0.947 . S
C23 C22 1.383 . S
C23 C24 1.388 . S
C24 H5 0.946 . S
C24 C23 1.388 . S
C24 C25 1.384 . S
C25 C24 1.384 . S
C25 C26 1.377 . S
C26 H6 0.953 . S
C26 C25 1.377 . S
C26 C27 1.369 . S
C27 H7 0.945 . S
C27 C22 1.385 . S
C27 C26 1.369 . S
C28 C20 1.457 . S
C28 C29 1.372 . S
C28 C33 1.364 . S
C29 H8 0.952 . S
C29 C28 1.372 . S
C29 C30 1.389 . S
C30 H9 0.949 . S
C30 C29 1.389 . S
C30 C31 1.387 . S
C31 C30 1.387 . S
C31 C32 1.372 . S
C32 H10 0.950 . S
C32 C31 1.372 . S
C32 C33 1.379 . S
C33 H11 0.948 . S
C33 C28 1.364 . S
C33 C32 1.379 . S
C34 C3 1.383 . S
C34 C21 1.479 . S
C34 C35 1.398 . S
C35 C0 1.382 . S
C35 H12 0.951 . S
C35 C34 1.398 . S
C36 C37 1.381 1_655 S
C36 H49 0.948 . S
C36 C71 1.382 1_655 S
C37 C36 1.381 1_455 S
C37 C38 1.388 . S
C38 C37 1.388 . S
C38 C39 1.378 . S
C38 H50 0.952 . S
C39 C38 1.378 . S
C39 H51 0.950 . S
C39 C70 1.383 . S
H40 C59 0.947 . S
H41 C60 0.952 . S
H42 C62 0.953 . S
H43 C63 0.945 . S
H44 C65 0.949 1_655 S
H45 C66 0.956 . S
H46 C68 0.950 . S
H47 C69 0.948 . S
H48 C71 0.952 1_655 S
H49 C36 0.948 . S
H50 C38 0.952 . S
H51 C39 0.950 . S
N52 C55 1.382 . S
N52 C57 1.363 . S
N53 C55 1.371 . S
N53 C56 1.372 . S
N54 C56 1.361 . S
N54 C57 1.377 . S
C55 N52 1.382 . S
C55 N53 1.371 . S
C55 C58 1.480 . S
C56 N53 1.372 . S
C56 N54 1.361 . S
C56 C64 1.457 . S
C57 N52 1.363 . S
C57 N54 1.377 . S
C57 C70 1.479 . S
C58 C55 1.480 . S
C58 C59 1.383 . S
C58 C63 1.385 . S
C59 H40 0.947 . S
C59 C58 1.383 . S
C59 C60 1.386 1_455 S
C60 H41 0.952 . S
C60 C59 1.386 1_655 S
C60 C61 1.381 1_655 S
C61 C60 1.381 1_455 S
C61 C62 1.377 . S
C62 H42 0.953 . S
C62 C61 1.377 . S
C62 C63 1.369 . S
C63 H43 0.945 . S
C63 C58 1.385 . S
C63 C62 1.369 . S
C64 C56 1.457 . S
C64 C65 1.375 . S
C64 C69 1.364 . S
C65 H44 0.949 1_455 S
C65 C64 1.375 . S
C65 C66 1.387 1_455 S
C66 H45 0.956 . S
C66 C65 1.387 1_655 S
C66 C67 1.383 1_655 S
C67 C66 1.383 1_455 S
C67 C68 1.372 . S
C68 H46 0.950 . S
C68 C67 1.372 . S
C68 C69 1.379 . S
C69 H47 0.948 . S
C69 C64 1.364 . S
C69 C68 1.379 . S
C70 C39 1.383 . S
C70 C57 1.479 . S
C70 C71 1.397 . S
C71 C36 1.382 1_455 S
C71 H48 0.952 1_455 S
C71 C70 1.397 . S
C72 C73 1.384 . S
C72 H85 0.947 . S
C72 C107 1.382 . S
C73 C72 1.384 . S
C73 C74 1.382 . S
C74 C73 1.382 . S
C74 C75 1.374 1_565 S
C74 H86 0.952 1_565 S
C75 C74 1.374 1_545 S
C75 H87 0.965 . S
C75 C106 1.377 1_545 S
H76 C95 0.947 . S
H77 C96 0.946 . S
H78 C98 0.953 1_545 S
H79 C99 0.945 . S
H80 C101 0.952 . S
H81 C102 0.949 . S
H82 C104 0.956 . S
H83 C105 0.948 . S
H84 C107 0.951 . S
H85 C72 0.947 . S
H86 C74 0.952 1_545 S
H87 C75 0.965 . S
N88 C91 1.382 1_565 S
N88 C93 1.362 1_565 S
N89 C91 1.371 1_565 S
N89 C92 1.372 1_565 S
N90 C92 1.361 1_565 S
N90 C93 1.376 1_565 S
C91 N88 1.382 1_545 S
C91 N89 1.371 1_545 S
C91 C94 1.479 1_545 S
C92 N89 1.372 1_545 S
C92 N90 1.361 1_545 S
C92 C100 1.459 . S
C93 N88 1.362 1_545 S
C93 N90 1.376 1_545 S
C93 C106 1.476 1_545 S
C94 C91 1.479 1_565 S
C94 C95 1.385 . S
C94 C99 1.383 1_565 S
C95 H76 0.947 . S
C95 C94 1.385 . S
C95 C96 1.388 . S
C96 H77 0.946 . S
C96 C95 1.388 . S
C96 C97 1.384 . S
C97 C96 1.384 . S
C97 C98 1.378 . S
C98 H78 0.953 1_565 S
C98 C97 1.378 . S
C98 C99 1.368 1_565 S
C99 H79 0.945 . S
C99 C94 1.383 1_545 S
C99 C98 1.368 1_545 S
C100 C92 1.459 . S
C100 C101 1.364 1_545 S
C100 C105 1.368 . S
C101 H80 0.952 . S
C101 C100 1.364 1_565 S
C101 C102 1.389 . S
C102 H81 0.949 . S
C102 C101 1.389 . S
C102 C103 1.387 . S
C103 C102 1.387 . S
C103 C104 1.365 1_565 S
C104 H82 0.956 . S
C104 C103 1.365 1_545 S
C104 C105 1.383 . S
C105 H83 0.948 . S
C105 C100 1.368 . S
C105 C104 1.383 . S
C106 C75 1.377 1_565 S
C106 C93 1.476 1_565 S
C106 C107 1.398 . S
C107 C72 1.382 . S
C107 H84 0.951 . S
C107 C106 1.398 . S
C108 C109 1.384 . S
C108 H121 0.947 . S
C108 C143 1.382 . S
C109 C108 1.384 . S
C109 C110 1.378 . S
C110 C109 1.378 . S
C110 C111 1.378 . S
C110 H122 0.952 . S
C111 C110 1.378 . S
C111 H123 0.950 . S
C111 C142 1.383 . S
H112 C131 0.947 . S
H113 C132 0.946 . S
H114 C134 0.953 . S
H115 C135 0.945 . S
H116 C137 0.952 . S
H117 C138 0.949 . S
H118 C140 0.950 . S
H119 C141 0.948 . S
H120 C143 0.951 . S
H121 C108 0.947 . S
H122 C110 0.952 . S
H123 C111 0.950 . S
N124 C127 1.382 . S
N124 C129 1.363 . S
N125 C127 1.371 . S
N125 C128 1.372 . S
N126 C128 1.361 . S
N126 C129 1.377 . S
C127 N124 1.382 . S
C127 N125 1.371 . S
C127 C130 1.480 . S
C128 N125 1.372 . S
C128 N126 1.361 . S
C128 C136 1.457 . S
C129 N124 1.363 . S
C129 N126 1.377 . S
C129 C142 1.479 . S
C130 C127 1.480 . S
C130 C131 1.383 . S
C130 C135 1.385 . S
C131 H112 0.947 . S
C131 C130 1.383 . S
C131 C132 1.388 . S
C132 H113 0.946 . S
C132 C131 1.388 . S
C132 C133 1.384 . S
C133 C132 1.384 . S
C133 C134 1.377 . S
C134 H114 0.953 . S
C134 C133 1.377 . S
C134 C135 1.369 . S
C135 H115 0.945 . S
C135 C130 1.385 . S
C135 C134 1.369 . S
C136 C128 1.457 . S
C136 C137 1.372 . S
C136 C141 1.364 . S
C137 H116 0.952 . S
C137 C136 1.372 . S
C137 C138 1.389 . S
C138 H117 0.949 . S
C138 C137 1.389 . S
C138 C139 1.387 . S
C139 C138 1.387 . S
C139 C140 1.372 . S
C140 H118 0.950 . S
C140 C139 1.372 . S
C140 C141 1.379 . S
C141 H119 0.948 . S
C141 C136 1.364 . S
C141 C140 1.379 . S
C142 C111 1.383 . S
C142 C129 1.479 . S
C142 C143 1.398 . S
C143 C108 1.382 . S
C143 H120 0.951 . S
C143 C142 1.398 . S
C144 C145 1.384 . S
C144 H157 0.947 . S
C144 C179 1.382 . S
C145 C144 1.384 . S
C145 C146 1.378 . S
C146 C145 1.378 . S
C146 C147 1.378 . S
C146 H158 0.952 . S
C147 C146 1.378 . S
C147 H159 0.950 . S
C147 C178 1.383 . S
H148 C167 0.947 1_556 S
H149 C168 0.946 . S
H150 C170 0.953 . S
H151 C171 0.945 . S
H152 C173 0.952 . S
H153 C174 0.949 . S
H154 C176 0.950 . S
H155 C177 0.948 . S
H156 C179 0.951 . S
H157 C144 0.947 . S
H158 C146 0.952 . S
H159 C147 0.950 . S
N160 C163 1.382 1_556 S
N160 C165 1.363 . S
N161 C163 1.371 . S
N161 C164 1.372 . S
N162 C164 1.361 . S
N162 C165 1.377 1_554 S
C163 N160 1.382 1_554 S
C163 N161 1.371 . S
C163 C166 1.480 . S
C164 N161 1.372 . S
C164 N162 1.361 . S
C164 C172 1.457 . S
C165 N160 1.363 . S
C165 N162 1.377 1_556 S
C165 C178 1.479 . S
C166 C163 1.480 . S
C166 C167 1.383 . S
C166 C171 1.385 . S
C167 H148 0.947 1_554 S
C167 C166 1.383 . S
C167 C168 1.388 . S
C168 H149 0.946 . S
C168 C167 1.388 . S
C168 C169 1.384 . S
C169 C168 1.384 . S
C169 C170 1.377 . S
C170 H150 0.953 . S
C170 C169 1.377 . S
C170 C171 1.369 . S
C171 H151 0.945 . S
C171 C166 1.385 . S
C171 C170 1.369 . S
C172 C164 1.457 . S
C172 C173 1.372 . S
C172 C177 1.364 . S
C173 H152 0.952 . S
C173 C172 1.372 . S
C173 C174 1.389 . S
C174 H153 0.949 . S
C174 C173 1.389 . S
C174 C175 1.387 . S
C175 C174 1.387 . S
C175 C176 1.372 . S
C176 H154 0.950 . S
C176 C175 1.372 . S
C176 C177 1.379 . S
C177 H155 0.948 . S
C177 C172 1.364 . S
C177 C176 1.379 . S
C178 C147 1.383 . S
C178 C165 1.479 . S
C178 C179 1.398 . S
C179 C144 1.382 . S
C179 H156 0.951 . S
C179 C178 1.398 . S
C180 C181 1.384 . S
C180 H193 0.948 1_455 S
C180 C215 1.382 . S
C181 C180 1.384 . S
C181 C182 1.378 . S
C182 C181 1.378 . S
C182 C183 1.378 . S
C182 H194 0.952 . S
C183 C182 1.378 . S
C183 H195 0.950 . S
C183 C214 1.383 . S
H184 C203 0.947 1_556 S
H185 C204 0.948 . S
H186 C206 0.953 . S
H187 C207 0.945 . S
H188 C209 0.947 1_655 S
H189 C210 0.954 . S
H190 C212 0.950 . S
H191 C213 0.948 . S
H192 C215 0.950 1_655 S
H193 C180 0.948 1_655 S
H194 C182 0.952 . S
H195 C183 0.950 . S
N196 C199 1.382 1_556 S
N196 C201 1.363 . S
N197 C199 1.371 . S
N197 C200 1.372 . S
N198 C200 1.361 . S
N198 C201 1.377 1_554 S
C199 N196 1.382 1_554 S
C199 N197 1.371 . S
C199 C202 1.480 . S
C200 N197 1.372 . S
C200 N198 1.361 . S
C200 C208 1.457 . S
C201 N196 1.363 . S
C201 N198 1.377 1_556 S
C201 C214 1.479 . S
C202 C199 1.480 . S
C202 C203 1.383 . S
C202 C207 1.385 . S
C203 H184 0.947 1_554 S
C203 C202 1.383 . S
C203 C204 1.387 1_455 S
C204 H185 0.948 . S
C204 C203 1.387 1_655 S
C204 C205 1.383 1_655 S
C205 C204 1.383 1_455 S
C205 C206 1.377 . S
C206 H186 0.953 . S
C206 C205 1.377 . S
C206 C207 1.369 . S
C207 H187 0.945 . S
C207 C202 1.385 . S
C207 C206 1.369 . S
C208 C200 1.457 . S
C208 C209 1.379 . S
C208 C213 1.364 . S
C209 H188 0.947 1_455 S
C209 C208 1.379 . S
C209 C210 1.387 1_455 S
C210 H189 0.954 . S
C210 C209 1.387 1_655 S
C210 C211 1.384 1_655 S
C211 C210 1.384 1_455 S
C211 C212 1.372 . S
C212 H190 0.950 . S
C212 C211 1.372 . S
C212 C213 1.379 . S
C213 H191 0.948 . S
C213 C208 1.364 . S
C213 C212 1.379 . S
C214 C183 1.383 . S
C214 C201 1.479 . S
C214 C215 1.399 . S
C215 C180 1.382 . S
C215 H192 0.950 1_455 S
C215 C214 1.399 . S
C216 C217 1.384 . S
C216 H229 0.947 . S
C216 C251 1.382 . S
C217 C216 1.384 . S
C217 C218 1.378 . S
C218 C217 1.378 . S
C218 C219 1.378 . S
C218 H230 0.952 . S
C219 C218 1.378 . S
C219 H231 0.950 . S
C219 C250 1.383 . S
H220 C239 0.947 1_556 S
H221 C240 0.946 . S
H222 C242 0.953 . S
H223 C243 0.945 . S
H224 C245 0.952 . S
H225 C246 0.949 . S
H226 C248 0.950 . S
H227 C249 0.948 . S
H228 C251 0.951 . S
H229 C216 0.947 . S
H230 C218 0.952 . S
H231 C219 0.950 . S
N232 C235 1.382 1_556 S
N232 C237 1.363 . S
N233 C235 1.371 . S
N233 C236 1.372 . S
N234 C236 1.361 . S
N234 C237 1.377 1_554 S
C235 N232 1.382 1_554 S
C235 N233 1.371 . S
C235 C238 1.480 . S
C236 N233 1.372 . S
C236 N234 1.361 . S
C236 C244 1.457 . S
C237 N232 1.363 . S
C237 N234 1.377 1_556 S
C237 C250 1.479 . S
C238 C235 1.480 . S
C238 C239 1.383 . S
C238 C243 1.385 . S
C239 H220 0.947 1_554 S
C239 C238 1.383 . S
C239 C240 1.388 . S
C240 H221 0.946 . S
C240 C239 1.388 . S
C240 C241 1.384 . S
C241 C240 1.384 . S
C241 C242 1.377 . S
C242 H222 0.953 . S
C242 C241 1.377 . S
C242 C243 1.369 . S
C243 H223 0.945 . S
C243 C238 1.385 . S
C243 C242 1.369 . S
C244 C236 1.457 . S
C244 C245 1.372 . S
C244 C249 1.364 . S
C245 H224 0.952 . S
C245 C244 1.372 . S
C245 C246 1.389 . S
C246 H225 0.949 . S
C246 C245 1.389 . S
C246 C247 1.387 . S
C247 C246 1.387 . S
C247 C248 1.372 . S
C248 H226 0.950 . S
C248 C247 1.372 . S
C248 C249 1.379 . S
C249 H227 0.948 . S
C249 C244 1.364 . S
C249 C248 1.379 . S
C250 C219 1.383 . S
C250 C237 1.479 . S
C250 C251 1.398 . S
C251 C216 1.382 . S
C251 H228 0.951 . S
C251 C250 1.398 . S
C252 C253 1.384 . S
C252 H265 0.947 . S
C252 C287 1.382 . S
C253 C252 1.384 . S
C253 C254 1.378 . S
C254 C253 1.378 . S
C254 C255 1.378 . S
C254 H266 0.952 . S
C255 C254 1.378 . S
C255 H267 0.950 . S
C255 C286 1.383 . S
H256 C275 0.947 . S
H257 C276 0.946 . S
H258 C278 0.953 1_556 S
H259 C279 0.945 1_556 S
H260 C281 0.952 . S
H261 C282 0.949 . S
H262 C284 0.950 . S
H263 C285 0.948 . S
H264 C287 0.951 . S
H265 C252 0.947 . S
H266 C254 0.952 . S
H267 C255 0.950 . S
N268 C271 1.382 . S
N268 C273 1.363 . S
N269 C271 1.371 1_556 S
N269 C272 1.372 . S
N270 C272 1.361 1_554 S
N270 C273 1.377 . S
C271 N268 1.382 . S
C271 N269 1.371 1_554 S
C271 C274 1.480 . S
C272 N269 1.372 . S
C272 N270 1.361 1_556 S
C272 C280 1.457 . S
C273 N268 1.363 . S
C273 N270 1.377 . S
C273 C286 1.479 . S
C274 C271 1.480 . S
C274 C275 1.383 . S
C274 C279 1.385 . S
C275 H256 0.947 . S
C275 C274 1.383 . S
C275 C276 1.388 . S
C276 H257 0.946 . S
C276 C275 1.388 . S
C276 C277 1.384 . S
C277 C276 1.384 . S
C277 C278 1.377 . S
C278 H258 0.953 1_554 S
C278 C277 1.377 . S
C278 C279 1.369 . S
C279 H259 0.945 1_554 S
C279 C274 1.385 . S
C279 C278 1.369 . S
C280 C272 1.457 . S
C280 C281 1.372 . S
C280 C285 1.364 . S
C281 H260 0.952 . S
C281 C280 1.372 . S
C281 C282 1.389 . S
C282 H261 0.949 . S
C282 C281 1.389 . S
C282 C283 1.387 . S
C283 C282 1.387 . S
C283 C284 1.372 . S
C284 H262 0.950 . S
C284 C283 1.372 . S
C284 C285 1.379 . S
C285 H263 0.948 . S
C285 C280 1.364 . S
C285 C284 1.379 . S
C286 C255 1.383 . S
C286 C273 1.479 . S
C286 C287 1.398 . S
C287 C252 1.382 . S
C287 H264 0.951 . S
C287 C286 1.398 . S
Sm288 C290 2.846 . S
Sm288 O308 2.543 . S
Sm288 O309 2.450 . S
Sm288 O310 2.681 1_565 S
Sm288 O311 2.464 . S
Sm288 O312 2.396 . S
Sm288 O316 2.386 1_455 S
Sm288 O319 2.408 1_565 S
Sm289 C299 2.846 . S
Sm289 O310 2.386 1_655 S
Sm289 O313 2.408 1_545 S
Sm289 O314 2.543 . S
Sm289 O315 2.450 . S
Sm289 O316 2.681 1_545 S
Sm289 O317 2.464 . S
Sm289 O318 2.396 . S
C290 Sm288 2.846 . S
C290 C291 1.506 . S
C290 O308 1.261 . S
C290 O309 1.242 . S
C291 C290 1.506 . S
C291 C292 1.358 . S
C291 C296 1.382 . S
C292 C291 1.358 . S
C292 C293 1.385 . S
C292 H320 0.930 1_455 S
C293 C292 1.385 . S
C293 C294 1.395 . S
C293 H321 0.929 1_455 S
C294 C293 1.395 . S
C294 C295 1.335 . S
C295 C294 1.335 . S
C295 C296 1.398 . S
C295 H322 0.930 . S
C296 C291 1.382 . S
C296 C295 1.398 . S
C296 H323 0.929 . S
C297 O310 1.267 1_565 S
C297 O311 1.258 . S
C298 O312 1.252 1_655 S
C298 O313 1.272 . S
C299 Sm289 2.846 . S
C299 C300 1.506 . S
C299 O314 1.261 . S
C299 O315 1.242 . S
C300 C299 1.506 . S
C300 C301 1.358 . S
C300 C305 1.382 . S
C301 C300 1.358 . S
C301 C302 1.385 . S
C301 H324 0.930 1_655 S
C302 C301 1.385 . S
C302 C303 1.395 . S
C302 H325 0.929 1_655 S
C303 C302 1.395 . S
C303 C304 1.335 . S
C304 C303 1.335 . S
C304 C305 1.398 . S
C304 H326 0.930 . S
C305 C300 1.382 . S
C305 C304 1.398 . S
C305 H327 0.929 . S
C306 O316 1.255 1_545 S
C306 O317 1.281 . S
C307 O318 1.252 1_455 S
C307 O319 1.272 . S
O308 Sm288 2.543 . S
O308 C290 1.261 . S
O309 Sm288 2.450 . S
O309 C290 1.242 . S
O310 Sm288 2.681 1_545 S
O310 Sm289 2.386 1_455 S
O310 C297 1.267 1_545 S
O311 Sm288 2.464 . S
O311 C297 1.258 . S
O312 Sm288 2.396 . S
O312 C298 1.252 1_455 S
O313 Sm289 2.408 1_565 S
O313 C298 1.272 . S
O314 Sm289 2.543 . S
O314 C299 1.261 . S
O315 Sm289 2.450 . S
O315 C299 1.242 . S
O316 Sm288 2.386 1_655 S
O316 Sm289 2.681 1_565 S
O316 C306 1.255 1_565 S
O317 Sm289 2.464 . S
O317 C306 1.281 . S
O318 Sm289 2.396 . S
O318 C307 1.252 1_655 S
O319 Sm288 2.408 1_545 S
O319 C307 1.272 . S
H320 C292 0.930 1_655 S
H321 C293 0.929 1_655 S
H322 C295 0.930 . S
H323 C296 0.929 . S
H324 C301 0.930 1_455 S
H325 C302 0.929 1_455 S
H326 C304 0.930 . S
H327 C305 0.929 . S
Sm328 C330 2.846 . S
Sm328 O348 2.543 . S
Sm328 O349 2.450 . S
Sm328 O350 2.681 . S
Sm328 O351 2.464 . S
Sm328 O352 2.396 . S
Sm328 O356 2.386 1_545 S
Sm328 O359 2.408 . S
Sm329 C339 2.846 . S
Sm329 O350 2.386 1_565 S
Sm329 O353 2.408 . S
Sm329 O354 2.553 . S
Sm329 O355 2.450 . S
Sm329 O356 2.681 . S
Sm329 O357 2.464 . S
Sm329 O358 2.396 . S
C330 Sm328 2.846 . S
C330 C331 1.506 . S
C330 O348 1.261 . S
C330 O349 1.242 . S
C331 C330 1.506 . S
C331 C332 1.358 . S
C331 C336 1.382 . S
C332 C331 1.358 . S
C332 C333 1.385 . S
C332 H360 0.930 1_545 S
C333 C332 1.385 . S
C333 C334 1.395 . S
C333 H361 0.929 1_545 S
C334 C333 1.395 . S
C334 C335 1.335 . S
C335 C334 1.335 . S
C335 C336 1.398 . S
C335 H362 0.930 . S
C336 C331 1.382 . S
C336 C335 1.398 . S
C336 H363 0.929 . S
C337 O350 1.271 . S
C337 O351 1.251 . S
C338 O352 1.252 1_565 S
C338 O353 1.272 . S
C339 Sm329 2.846 . S
C339 C340 1.506 . S
C339 O354 1.286 . S
C339 O355 1.242 . S
C340 C339 1.506 . S
C340 C341 1.358 . S
C340 C345 1.382 . S
C341 C340 1.358 . S
C341 C342 1.385 . S
C341 H364 0.930 1_565 S
C342 C341 1.385 . S
C342 C343 1.395 . S
C342 H365 0.929 1_565 S
C343 C342 1.395 . S
C343 C344 1.335 . S
C344 C343 1.335 . S
C344 C345 1.398 . S
C344 H366 0.930 . S
C345 C340 1.382 . S
C345 C344 1.398 . S
C345 H367 0.929 . S
C346 O356 1.271 . S
C346 O357 1.251 . S
C347 O358 1.252 1_545 S
C347 O359 1.272 . S
O348 Sm328 2.543 . S
O348 C330 1.261 . S
O349 Sm328 2.450 . S
O349 C330 1.242 . S
O350 Sm328 2.681 . S
O350 Sm329 2.386 1_545 S
O350 C337 1.271 . S
O351 Sm328 2.464 . S
O351 C337 1.251 . S
O352 Sm328 2.396 . S
O352 C338 1.252 1_545 S
O353 Sm329 2.408 . S
O353 C338 1.272 . S
O354 Sm329 2.553 . S
O354 C339 1.286 . S
O355 Sm329 2.450 . S
O355 C339 1.242 . S
O356 Sm328 2.386 1_565 S
O356 Sm329 2.681 . S
O356 C346 1.271 . S
O357 Sm329 2.464 . S
O357 C346 1.251 . S
O358 Sm329 2.396 . S
O358 C347 1.252 1_565 S
O359 Sm328 2.408 . S
O359 C347 1.272 . S
H360 C332 0.930 1_565 S
H361 C333 0.929 1_565 S
H362 C335 0.930 . S
H363 C336 0.929 . S
H364 C341 0.930 1_545 S
H365 C342 0.929 1_545 S
H366 C344 0.930 . S
H367 C345 0.929 . S
Sm368 C370 2.846 . S
Sm368 O388 2.543 . S
Sm368 O389 2.450 . S
Sm368 O390 2.681 . S
Sm368 O391 2.464 . S
Sm368 O392 2.396 . S
Sm368 O396 2.386 . S
Sm368 O399 2.408 . S
Sm369 C379 2.846 . S
Sm369 O390 2.386 . S
Sm369 O393 2.408 . S
Sm369 O394 2.543 . S
Sm369 O395 2.450 . S
Sm369 O396 2.681 . S
Sm369 O397 2.464 . S
Sm369 O398 2.396 . S
C370 Sm368 2.846 . S
C370 C371 1.506 . S
C370 O388 1.261 . S
C370 O389 1.242 . S
C371 C370 1.506 . S
C371 C372 1.358 . S
C371 C376 1.382 . S
C372 C371 1.358 . S
C372 C373 1.385 . S
C372 H400 0.930 . S
C373 C372 1.385 . S
C373 C374 1.395 . S
C373 H401 0.929 . S
C374 C373 1.395 . S
C374 C375 1.335 . S
C375 C374 1.335 . S
C375 C376 1.398 . S
C375 H402 0.930 . S
C376 C371 1.382 . S
C376 C375 1.398 . S
C376 H403 0.929 . S
C377 O390 1.271 . S
C377 O391 1.251 . S
C378 O392 1.252 . S
C378 O393 1.272 . S
C379 Sm369 2.846 . S
C379 C380 1.506 . S
C379 O394 1.261 . S
C379 O395 1.242 . S
C380 C379 1.506 . S
C380 C381 1.358 . S
C380 C385 1.382 . S
C381 C380 1.358 . S
C381 C382 1.385 . S
C381 H404 0.930 . S
C382 C381 1.385 . S
C382 C383 1.395 . S
C382 H405 0.929 . S
C383 C382 1.395 . S
C383 C384 1.335 . S
C384 C383 1.335 . S
C384 C385 1.398 . S
C384 H406 0.930 . S
C385 C380 1.382 . S
C385 C384 1.398 . S
C385 H407 0.929 . S
C386 O396 1.271 . S
C386 O397 1.251 . S
C387 O398 1.252 . S
C387 O399 1.272 . S
O388 Sm368 2.543 . S
O388 C370 1.261 . S
O389 Sm368 2.450 . S
O389 C370 1.242 . S
O390 Sm368 2.681 . S
O390 Sm369 2.386 . S
O390 C377 1.271 . S
O391 Sm368 2.464 . S
O391 C377 1.251 . S
O392 Sm368 2.396 . S
O392 C378 1.252 . S
O393 Sm369 2.408 . S
O393 C378 1.272 . S
O394 Sm369 2.543 . S
O394 C379 1.261 . S
O395 Sm369 2.450 . S
O395 C379 1.242 . S
O396 Sm368 2.386 . S
O396 Sm369 2.681 . S
O396 C386 1.271 . S
O397 Sm369 2.464 . S
O397 C386 1.251 . S
O398 Sm369 2.396 . S
O398 C387 1.252 . S
O399 Sm368 2.408 . S
O399 C387 1.272 . S
H400 C372 0.930 . S
H401 C373 0.929 . S
H402 C375 0.930 . S
H403 C376 0.929 . S
H404 C381 0.930 . S
H405 C382 0.929 . S
H406 C384 0.930 . S
H407 C385 0.929 . S
Sm408 C410 2.846 . S
Sm408 O428 2.543 . S
Sm408 O429 2.450 . S
Sm408 O430 2.681 1_655 S
Sm408 O431 2.464 . S
Sm408 O432 2.396 . S
Sm408 O436 2.386 . S
Sm408 O439 2.408 1_655 S
Sm409 C419 2.846 . S
Sm409 O430 2.386 . S
Sm409 O433 2.408 1_455 S
Sm409 O434 2.543 . S
Sm409 O435 2.450 . S
Sm409 O436 2.681 1_455 S
Sm409 O437 2.464 . S
Sm409 O438 2.396 . S
C410 Sm408 2.846 . S
C410 C411 1.506 . S
C410 O428 1.261 . S
C410 O429 1.242 . S
C411 C410 1.506 . S
C411 C412 1.358 . S
C411 C416 1.382 . S
C412 C411 1.358 . S
C412 C413 1.385 . S
C412 H440 0.930 . S
C413 C412 1.385 . S
C413 C414 1.395 . S
C413 H441 0.929 . S
C414 C413 1.395 . S
C414 C415 1.335 . S
C415 C414 1.335 . S
C415 C416 1.398 . S
C415 H442 0.930 . S
C416 C411 1.382 . S
C416 C415 1.398 . S
C416 H443 0.929 . S
C417 O430 1.271 1_655 S
C417 O431 1.251 . S
C418 O432 1.252 . S
C418 O433 1.272 . S
C419 Sm409 2.846 . S
C419 C420 1.506 . S
C419 O434 1.261 . S
C419 O435 1.242 . S
C420 C419 1.506 . S
C420 C421 1.358 . S
C420 C425 1.382 . S
C421 C420 1.358 . S
C421 C422 1.385 . S
C421 H444 0.930 . S
C422 C421 1.385 . S
C422 C423 1.395 . S
C422 H445 0.929 . S
C423 C422 1.395 . S
C423 C424 1.335 . S
C424 C423 1.335 . S
C424 C425 1.398 . S
C424 H446 0.930 . S
C425 C420 1.382 . S
C425 C424 1.398 . S
C425 H447 0.929 . S
C426 O436 1.271 1_455 S
C426 O437 1.251 . S
C427 O438 1.252 . S
C427 O439 1.272 . S
O428 Sm408 2.543 . S
O428 C410 1.261 . S
O429 Sm408 2.450 . S
O429 C410 1.242 . S
O430 Sm408 2.681 1_455 S
O430 Sm409 2.386 . S
O430 C417 1.271 1_455 S
O431 Sm408 2.464 . S
O431 C417 1.251 . S
O432 Sm408 2.396 . S
O432 C418 1.252 . S
O433 Sm409 2.408 1_655 S
O433 C418 1.272 . S
O434 Sm409 2.543 . S
O434 C419 1.261 . S
O435 Sm409 2.450 . S
O435 C419 1.242 . S
O436 Sm408 2.386 . S
O436 Sm409 2.681 1_655 S
O436 C426 1.271 1_655 S
O437 Sm409 2.464 . S
O437 C426 1.251 . S
O438 Sm409 2.396 . S
O438 C427 1.252 . S
O439 Sm408 2.408 1_455 S
O439 C427 1.272 . S
H440 C412 0.930 . S
H441 C413 0.929 . S
H442 C415 0.930 . S
H443 C416 0.929 . S
H444 C421 0.930 . S
H445 C422 0.929 . S
H446 C424 0.930 . S
H447 C425 0.929 . S
C448 C449 1.349 1_565 S
C448 C450 1.327 . S
C448 H473 0.950 . S
C449 C448 1.349 1_545 S
C449 C465 1.349 . S
C450 C448 1.327 . S
C450 C469 1.429 1_565 S
C450 H474 0.950 . S
C451 C468 1.574 . S
C451 C470 1.368 . S
C451 H475 0.949 . S
H452 C456 0.949 . S
C453 C454 1.349 . S
C453 C455 1.327 . S
C453 H476 0.950 . S
C454 C453 1.349 . S
C454 C466 1.349 1_545 S
C455 C453 1.327 . S
C455 C471 1.429 . S
C455 H477 0.950 . S
C456 H452 0.949 . S
C456 C464 1.574 . S
C456 C472 1.368 1_565 S
H457 C465 0.950 . S
H458 C463 0.950 . S
H459 C464 0.949 . S
H460 C466 0.950 . S
H461 C467 0.950 . S
H462 C468 0.949 . S
C463 H458 0.950 . S
C463 C465 1.327 . S
C463 C469 1.429 . S
C464 C456 1.574 . S
C464 H459 0.949 . S
C464 C470 1.368 1_565 S
C465 C449 1.349 . S
C465 H457 0.950 . S
C465 C463 1.327 . S
C466 C454 1.349 1_565 S
C466 H460 0.950 . S
C466 C467 1.327 . S
C467 H461 0.950 . S
C467 C466 1.327 . S
C467 C471 1.429 1_565 S
C468 C451 1.574 . S
C468 H462 0.949 . S
C468 C472 1.368 . S
C469 C450 1.429 1_545 S
C469 C463 1.429 . S
C469 C470 1.523 . S
C470 C451 1.368 . S
C470 C464 1.368 1_545 S
C470 C469 1.523 . S
C471 C455 1.429 . S
C471 C467 1.429 1_545 S
C471 C472 1.523 . S
C472 C456 1.368 1_545 S
C472 C468 1.368 . S
C472 C471 1.523 . S
H473 C448 0.950 . S
H474 C450 0.950 . S
H475 C451 0.949 . S
H476 C453 0.950 . S
H477 C455 0.950 . S
C478 C479 1.349 . S
C478 C480 1.327 . S
C478 H503 0.950 . S
C479 C478 1.349 . S
C479 C495 1.349 . S
C480 C478 1.327 . S
C480 C499 1.429 . S
C480 H504 0.950 . S
C481 C498 1.574 . S
C481 C500 1.368 . S
C481 H505 0.949 . S
H482 C486 0.949 . S
C483 C484 1.349 . S
C483 C485 1.327 . S
C483 H506 0.950 . S
C484 C483 1.349 . S
C484 C496 1.349 . S
C485 C483 1.327 . S
C485 C501 1.429 . S
C485 H507 0.950 . S
C486 H482 0.949 . S
C486 C494 1.574 . S
C486 C502 1.368 . S
H487 C495 0.950 . S
H488 C493 0.950 . S
H489 C494 0.949 . S
H490 C496 0.950 . S
H491 C497 0.950 . S
H492 C498 0.949 . S
C493 H488 0.950 . S
C493 C495 1.327 . S
C493 C499 1.429 . S
C494 C486 1.574 . S
C494 H489 0.949 . S
C494 C500 1.368 . S
C495 C479 1.349 . S
C495 H487 0.950 . S
C495 C493 1.327 . S
C496 C484 1.349 . S
C496 H490 0.950 . S
C496 C497 1.327 . S
C497 H491 0.950 . S
C497 C496 1.327 . S
C497 C501 1.429 . S
C498 C481 1.574 . S
C498 H492 0.949 . S
C498 C502 1.368 . S
C499 C480 1.429 . S
C499 C493 1.429 . S
C499 C500 1.523 . S
C500 C481 1.368 . S
C500 C494 1.368 . S
C500 C499 1.523 . S
C501 C485 1.429 . S
C501 C497 1.429 . S
C501 C502 1.523 . S
C502 C486 1.368 . S
C502 C498 1.368 . S
C502 C501 1.523 . S
H503 C478 0.950 . S
H504 C480 0.950 . S
H505 C481 0.949 . S
H506 C483 0.950 . S
H507 C485 0.950 . S
C508 C509 1.349 . S
C508 C510 1.327 . S
C508 H533 0.950 . S
C509 C508 1.349 . S
C509 C525 1.349 . S
C510 C508 1.327 . S
C510 C529 1.429 . S
C510 H534 0.950 . S
C511 C528 1.574 . S
C511 C530 1.368 . S
C511 H535 0.949 . S
H512 C516 0.949 . S
C513 C514 1.349 . S
C513 C515 1.327 . S
C513 H536 0.950 . S
C514 C513 1.349 . S
C514 C526 1.349 . S
C515 C513 1.327 . S
C515 C531 1.429 . S
C515 H537 0.950 . S
C516 H512 0.949 . S
C516 C524 1.574 . S
C516 C532 1.368 . S
H517 C525 0.950 . S
H518 C523 0.950 . S
H519 C524 0.949 . S
H520 C526 0.950 . S
H521 C527 0.950 . S
H522 C528 0.949 . S
C523 H518 0.950 . S
C523 C525 1.327 . S
C523 C529 1.429 . S
C524 C516 1.574 . S
C524 H519 0.949 . S
C524 C530 1.368 . S
C525 C509 1.349 . S
C525 H517 0.950 . S
C525 C523 1.327 . S
C526 C514 1.349 . S
C526 H520 0.950 . S
C526 C527 1.327 . S
C527 H521 0.950 . S
C527 C526 1.327 . S
C527 C531 1.429 . S
C528 C511 1.574 . S
C528 H522 0.949 . S
C528 C532 1.368 . S
C529 C510 1.429 . S
C529 C523 1.429 . S
C529 C530 1.523 . S
C530 C511 1.368 . S
C530 C524 1.368 . S
C530 C529 1.523 . S
C531 C515 1.429 . S
C531 C527 1.429 . S
C531 C532 1.523 . S
C532 C516 1.368 . S
C532 C528 1.368 . S
C532 C531 1.523 . S
H533 C508 0.950 . S
H534 C510 0.950 . S
H535 C511 0.949 . S
H536 C513 0.950 . S
H537 C515 0.950 . S
C538 C539 1.350 . S
C538 C540 1.327 . S
C538 H563 0.950 . S
C539 C538 1.350 . S
C539 C555 1.347 1_455 S
C540 C538 1.327 . S
C540 C559 1.433 . S
C540 H564 0.950 . S
C541 C558 1.574 . S
C541 C560 1.362 1_655 S
C541 H565 0.949 . S
H542 C546 0.949 . S
C543 C544 1.335 1_655 S
C543 C545 1.327 . S
C543 H566 0.950 . S
C544 C543 1.335 1_455 S
C544 C556 1.365 . S
C545 C543 1.327 . S
C545 C561 1.418 1_655 S
C545 H567 0.950 . S
C546 H542 0.949 . S
C546 C554 1.574 . S
C546 C562 1.379 . S
H547 C555 0.950 . S
H548 C553 0.950 . S
H549 C554 0.949 . S
H550 C556 0.950 . S
H551 C557 0.950 . S
H552 C558 0.949 . S
C553 H548 0.950 . S
C553 C555 1.327 . S
C553 C559 1.424 1_655 S
C554 C546 1.574 . S
C554 H549 0.949 . S
C554 C560 1.376 . S
C555 C539 1.347 1_655 S
C555 H547 0.950 . S
C555 C553 1.327 . S
C556 C544 1.365 . S
C556 H550 0.950 . S
C556 C557 1.327 . S
C557 H551 0.950 . S
C557 C556 1.327 . S
C557 C561 1.441 . S
C558 C541 1.574 . S
C558 H552 0.949 . S
C558 C562 1.358 1_655 S
C559 C540 1.433 . S
C559 C553 1.424 1_455 S
C559 C560 1.523 . S
C560 C541 1.362 1_455 S
C560 C554 1.376 . S
C560 C559 1.523 . S
C561 C545 1.418 1_455 S
C561 C557 1.441 . S
C561 C562 1.523 . S
C562 C546 1.379 . S
C562 C558 1.358 1_455 S
C562 C561 1.523 . S
H563 C538 0.950 . S
H564 C540 0.950 . S
H565 C541 0.949 . S
H566 C543 0.950 . S
H567 C545 0.950 . S
C568 C569 1.349 1_545 S
C568 C570 1.327 . S
C568 H593 0.950 . S
C569 C568 1.349 1_565 S
C569 C585 1.349 . S
C570 C568 1.327 . S
C570 C589 1.429 1_545 S
C570 H594 0.950 . S
C571 C588 1.574 . S
C571 C590 1.368 1_556 S
C571 H595 0.949 1_556 S
H572 C576 0.949 . S
C573 C574 1.349 . S
C573 C575 1.327 . S
C573 H596 0.950 . S
C574 C573 1.349 . S
C574 C586 1.349 1_565 S
C575 C573 1.327 . S
C575 C591 1.429 . S
C575 H597 0.950 . S
C576 H572 0.949 . S
C576 C584 1.574 1_556 S
C576 C592 1.368 1_545 S
H577 C585 0.950 . S
H578 C583 0.950 . S
H579 C584 0.949 . S
H580 C586 0.950 . S
H581 C587 0.950 . S
H582 C588 0.949 . S
C583 H578 0.950 . S
C583 C585 1.327 . S
C583 C589 1.429 . S
C584 C576 1.574 1_554 S
C584 H579 0.949 . S
C584 C590 1.368 1_545 S
C585 C569 1.349 . S
C585 H577 0.950 . S
C585 C583 1.327 . S
C586 C574 1.349 1_545 S
C586 H580 0.950 . S
C586 C587 1.327 . S
C587 H581 0.950 . S
C587 C586 1.327 . S
C587 C591 1.429 1_545 S
C588 C571 1.574 . S
C588 H582 0.949 . S
C588 C592 1.368 . S
C589 C570 1.429 1_565 S
C589 C583 1.429 . S
C589 C590 1.523 . S
C590 C571 1.368 1_554 S
C590 C584 1.368 1_565 S
C590 C589 1.523 . S
C591 C575 1.429 . S
C591 C587 1.429 1_565 S
C591 C592 1.523 . S
C592 C576 1.368 1_565 S
C592 C588 1.368 . S
C592 C591 1.523 . S
H593 C568 0.950 . S
H594 C570 0.950 . S
H595 C571 0.949 1_554 S
H596 C573 0.950 . S
H597 C575 0.950 . S
C598 C599 1.349 . S
C598 C600 1.327 . S
C598 H623 0.950 . S
C599 C598 1.349 . S
C599 C615 1.349 . S
C600 C598 1.327 . S
C600 C619 1.429 . S
C600 H624 0.950 . S
C601 C618 1.574 1_554 S
C601 C620 1.368 . S
C601 H625 0.949 . S
H602 C606 0.949 . S
C603 C604 1.349 . S
C603 C605 1.327 . S
C603 H626 0.950 . S
C604 C603 1.349 . S
C604 C616 1.349 . S
C605 C603 1.327 . S
C605 C621 1.429 . S
C605 H627 0.950 . S
C606 H602 0.949 . S
C606 C614 1.574 1_556 S
C606 C622 1.368 . S
H607 C615 0.950 . S
H608 C613 0.950 . S
H609 C614 0.949 . S
H610 C616 0.950 . S
H611 C617 0.950 . S
H612 C618 0.949 . S
C613 H608 0.950 . S
C613 C615 1.327 . S
C613 C619 1.429 . S
C614 C606 1.574 1_554 S
C614 H609 0.949 . S
C614 C620 1.368 . S
C615 C599 1.349 . S
C615 H607 0.950 . S
C615 C613 1.327 . S
C616 C604 1.349 . S
C616 H610 0.950 . S
C616 C617 1.327 . S
C617 H611 0.950 . S
C617 C616 1.327 . S
C617 C621 1.429 . S
C618 C601 1.574 1_556 S
C618 H612 0.949 . S
C618 C622 1.368 . S
C619 C600 1.429 . S
C619 C613 1.429 . S
C619 C620 1.523 . S
C620 C601 1.368 . S
C620 C614 1.368 . S
C620 C619 1.523 . S
C621 C605 1.429 . S
C621 C617 1.429 . S
C621 C622 1.523 . S
C622 C606 1.368 . S
C622 C618 1.368 . S
C622 C621 1.523 . S
H623 C598 0.950 . S
H624 C600 0.950 . S
H625 C601 0.949 . S
H626 C603 0.950 . S
H627 C605 0.950 . S
C628 C629 1.349 . S
C628 C630 1.327 . S
C628 H653 0.950 . S
C629 C628 1.349 . S
C629 C645 1.349 . S
C630 C628 1.327 . S
C630 C649 1.429 . S
C630 H654 0.950 . S
C631 C648 1.574 . S
C631 C650 1.368 1_556 S
C631 H655 0.949 1_556 S
H632 C636 0.949 . S
C633 C634 1.349 . S
C633 C635 1.327 . S
C633 H656 0.950 . S
C634 C633 1.349 . S
C634 C646 1.349 . S
C635 C633 1.327 . S
C635 C651 1.429 . S
C635 H657 0.950 . S
C636 H632 0.949 . S
C636 C644 1.574 1_556 S
C636 C652 1.368 . S
H637 C645 0.950 . S
H638 C643 0.950 . S
H639 C644 0.949 . S
H640 C646 0.950 . S
H641 C647 0.950 . S
H642 C648 0.949 . S
C643 H638 0.950 . S
C643 C645 1.327 . S
C643 C649 1.429 . S
C644 C636 1.574 1_554 S
C644 H639 0.949 . S
C644 C650 1.368 . S
C645 C629 1.349 . S
C645 H637 0.950 . S
C645 C643 1.327 . S
C646 C634 1.349 . S
C646 H640 0.950 . S
C646 C647 1.327 . S
C647 H641 0.950 . S
C647 C646 1.327 . S
C647 C651 1.429 . S
C648 C631 1.574 . S
C648 H642 0.949 . S
C648 C652 1.368 . S
C649 C630 1.429 . S
C649 C643 1.429 . S
C649 C650 1.523 . S
C650 C631 1.368 1_554 S
C650 C644 1.368 . S
C650 C649 1.523 . S
C651 C635 1.429 . S
C651 C647 1.429 . S
C651 C652 1.523 . S
C652 C636 1.368 . S
C652 C648 1.368 . S
C652 C651 1.523 . S
H653 C628 0.950 . S
H654 C630 0.950 . S
H655 C631 0.949 1_554 S
H656 C633 0.950 . S
H657 C635 0.950 . S
C658 C659 1.345 1_455 S
C658 C660 1.327 . S
C658 H683 0.950 . S
C659 C658 1.345 1_655 S
C659 C675 1.352 . S
C660 C658 1.327 . S
C660 C679 1.418 1_455 S
C660 H684 0.950 . S
C661 C678 1.574 . S
C661 C680 1.385 1_556 S
C661 H685 0.949 . S
H662 C666 0.949 . S
C663 C664 1.385 . S
C663 C665 1.327 . S
C663 H686 0.950 . S
C664 C663 1.385 . S
C664 C676 1.315 1_655 S
C665 C663 1.327 . S
C665 C681 1.456 . S
C665 H687 0.950 . S
C666 H662 0.949 . S
C666 C674 1.574 1_556 S
C666 C682 1.344 1_455 S
H667 C675 0.950 . S
H668 C673 0.950 . S
H669 C674 0.949 . S
H670 C676 0.950 . S
H671 C677 0.950 . S
H672 C678 0.949 . S
C673 H668 0.950 . S
C673 C675 1.327 . S
C673 C679 1.440 . S
C674 C666 1.574 1_554 S
C674 H669 0.949 . S
C674 C680 1.352 1_455 S
C675 C659 1.352 . S
C675 H667 0.950 . S
C675 C673 1.327 . S
C676 C664 1.315 1_455 S
C676 H670 0.950 . S
C676 C677 1.327 . S
C677 H671 0.950 . S
C677 C676 1.327 . S
C677 C681 1.403 1_455 S
C678 C661 1.574 . S
C678 H672 0.949 . S
C678 C682 1.393 . S
C679 C660 1.418 1_655 S
C679 C673 1.440 . S
C679 C680 1.523 . S
C680 C661 1.385 1_554 S
C680 C674 1.352 1_655 S
C680 C679 1.523 . S
C681 C665 1.456 . S
C681 C677 1.403 1_655 S
C681 C682 1.523 . S
C682 C666 1.344 1_655 S
C682 C678 1.393 . S
C682 C681 1.523 . S
H683 C658 0.950 . S
H684 C660 0.950 . S
H685 C661 0.949 . S
H686 C663 0.950 . S
H687 C665 0.950 . S
C688 C689 1.349 . S
C688 C690 1.327 . S
C688 H713 0.950 . S
C689 C688 1.349 . S
C689 C705 1.349 1_455 S
C690 C688 1.327 . S
C690 C709 1.429 1_455 S
C690 H714 0.950 . S
C691 C708 1.574 . S
C691 C710 1.368 . S
C691 H715 0.949 . S
H692 C696 0.949 1_455 S
C693 C694 1.349 . S
C693 C695 1.327 . S
C693 H716 0.950 . S
C694 C693 1.349 . S
C694 C706 1.349 . S
C695 C693 1.327 . S
C695 C711 1.429 . S
C695 H717 0.950 . S
C696 H692 0.949 1_655 S
C696 C704 1.573 . S
C696 C712 1.368 . S
H697 C705 0.950 . S
H698 C703 0.950 . S
H699 C704 0.950 1_455 S
H700 C706 0.950 . S
H701 C707 0.950 . S
H702 C708 0.949 . S
C703 H698 0.950 . S
C703 C705 1.327 . S
C703 C709 1.429 . S
C704 C696 1.573 . S
C704 H699 0.950 1_655 S
C704 C710 1.367 . S
C705 C689 1.349 1_655 S
C705 H697 0.950 . S
C705 C703 1.327 . S
C706 C694 1.349 . S
C706 H700 0.950 . S
C706 C707 1.327 . S
C707 H701 0.950 . S
C707 C706 1.327 . S
C707 C711 1.429 . S
C708 C691 1.574 . S
C708 H702 0.949 . S
C708 C712 1.368 . S
C709 C690 1.429 1_655 S
C709 C703 1.429 . S
C709 C710 1.523 . S
C710 C691 1.368 . S
C710 C704 1.367 . S
C710 C709 1.523 . S
C711 C695 1.429 . S
C711 C707 1.429 . S
C711 C712 1.523 . S
C712 C696 1.368 . S
C712 C708 1.368 . S
C712 C711 1.523 . S
H713 C688 0.950 . S
H714 C690 0.950 . S
H715 C691 0.949 . S
H716 C693 0.950 . S
H717 C695 0.950 . S
C718 C719 1.349 . S
C718 C720 1.327 1_545 S
C718 H743 0.950 . S
C719 C718 1.349 . S
C719 C735 1.349 . S
C720 C718 1.327 1_565 S
C720 C739 1.429 . S
C720 H744 0.950 . S
C721 C738 1.574 . S
C721 C740 1.368 . S
C721 H745 0.949 . S
H722 C726 0.949 . S
C723 C724 1.349 . S
C723 C725 1.327 . S
C723 H746 0.950 . S
C724 C723 1.349 . S
C724 C736 1.349 . S
C725 C723 1.327 . S
C725 C741 1.429 . S
C725 H747 0.950 . S
C726 H722 0.949 . S
C726 C734 1.574 . S
C726 C742 1.368 . S
H727 C735 0.950 . S
H728 C733 0.950 . S
H729 C734 0.949 . S
H730 C736 0.950 . S
H731 C737 0.950 . S
H732 C738 0.949 . S
C733 H728 0.950 . S
C733 C735 1.327 . S
C733 C739 1.429 1_545 S
C734 C726 1.574 . S
C734 H729 0.949 . S
C734 C740 1.368 . S
C735 C719 1.349 . S
C735 H727 0.950 . S
C735 C733 1.327 . S
C736 C724 1.349 . S
C736 H730 0.950 . S
C736 C737 1.327 . S
C737 H731 0.950 . S
C737 C736 1.327 . S
C737 C741 1.429 . S
C738 C721 1.574 . S
C738 H732 0.949 . S
C738 C742 1.368 . S
C739 C720 1.429 . S
C739 C733 1.429 1_565 S
C739 C740 1.523 . S
C740 C721 1.368 . S
C740 C734 1.368 . S
C740 C739 1.523 . S
C741 C725 1.429 . S
C741 C737 1.429 . S
C741 C742 1.523 . S
C742 C726 1.368 . S
C742 C738 1.368 . S
C742 C741 1.523 . S
H743 C718 0.950 . S
H744 C720 0.950 . S
H745 C721 0.949 . S
H746 C723 0.950 . S
H747 C725 0.950 . S
C748 C749 1.349 . S
C748 C750 1.327 . S
C748 H773 0.950 . S
C749 C748 1.349 . S
C749 C765 1.349 . S
C750 C748 1.327 . S
C750 C769 1.429 . S
C750 H774 0.950 . S
C751 C768 1.574 . S
C751 C770 1.368 . S
C751 H775 0.949 . S
H752 C756 0.949 . S
C753 C754 1.349 . S
C753 C755 1.327 . S
C753 H776 0.950 . S
C754 C753 1.349 . S
C754 C766 1.349 . S
C755 C753 1.327 . S
C755 C771 1.429 . S
C755 H777 0.950 . S
C756 H752 0.949 . S
C756 C764 1.574 . S
C756 C772 1.368 . S
H757 C765 0.950 . S
H758 C763 0.950 . S
H759 C764 0.949 . S
H760 C766 0.950 . S
H761 C767 0.950 . S
H762 C768 0.949 . S
C763 H758 0.950 . S
C763 C765 1.327 . S
C763 C769 1.429 . S
C764 C756 1.574 . S
C764 H759 0.949 . S
C764 C770 1.368 . S
C765 C749 1.349 . S
C765 H757 0.950 . S
C765 C763 1.327 . S
C766 C754 1.349 . S
C766 H760 0.950 . S
C766 C767 1.327 . S
C767 H761 0.950 . S
C767 C766 1.327 . S
C767 C771 1.429 . S
C768 C751 1.574 . S
C768 H762 0.949 . S
C768 C772 1.368 . S
C769 C750 1.429 . S
C769 C763 1.429 . S
C769 C770 1.523 . S
C770 C751 1.368 . S
C770 C764 1.368 . S
C770 C769 1.523 . S
C771 C755 1.429 . S
C771 C767 1.429 . S
C771 C772 1.523 . S
C772 C756 1.368 . S
C772 C768 1.368 . S
C772 C771 1.523 . S
H773 C748 0.950 . S
H774 C750 0.950 . S
H775 C751 0.949 . S
H776 C753 0.950 . S
H777 C755 0.950 . S
C778 C779 1.349 . S
C778 C780 1.327 . S
C778 H803 0.950 . S
C779 C778 1.349 . S
C779 C795 1.349 . S
C780 C778 1.327 . S
C780 C799 1.429 . S
C780 H804 0.950 . S
C781 C798 1.574 . S
C781 C800 1.368 . S
C781 H805 0.949 . S
H782 C786 0.949 . S
C783 C784 1.349 . S
C783 C785 1.327 . S
C783 H806 0.950 . S
C784 C783 1.349 . S
C784 C796 1.349 . S
C785 C783 1.327 . S
C785 C801 1.429 . S
C785 H807 0.950 . S
C786 H782 0.949 . S
C786 C794 1.574 . S
C786 C802 1.368 . S
H787 C795 0.950 . S
H788 C793 0.950 . S
H789 C794 0.949 . S
H790 C796 0.950 . S
H791 C797 0.950 . S
H792 C798 0.949 . S
C793 H788 0.950 . S
C793 C795 1.327 . S
C793 C799 1.429 . S
C794 C786 1.574 . S
C794 H789 0.949 . S
C794 C800 1.368 . S
C795 C779 1.349 . S
C795 H787 0.950 . S
C795 C793 1.327 . S
C796 C784 1.349 . S
C796 H790 0.950 . S
C796 C797 1.327 . S
C797 H791 0.950 . S
C797 C796 1.327 . S
C797 C801 1.429 . S
C798 C781 1.574 . S
C798 H792 0.949 . S
C798 C802 1.368 . S
C799 C780 1.429 . S
C799 C793 1.429 . S
C799 C800 1.523 . S
C800 C781 1.368 . S
C800 C794 1.368 . S
C800 C799 1.523 . S
C801 C785 1.429 . S
C801 C797 1.429 . S
C801 C802 1.523 . S
C802 C786 1.368 . S
C802 C798 1.368 . S
C802 C801 1.523 . S
H803 C778 0.950 . S
H804 C780 0.950 . S
H805 C781 0.949 . S
H806 C783 0.950 . S
H807 C785 0.950 . S
C808 C809 1.349 . S
C808 C810 1.324 1_655 S
C808 H833 0.950 . S
C809 C808 1.349 . S
C809 C825 1.349 1_655 S
C810 C808 1.324 1_455 S
C810 C829 1.433 . S
C810 H834 0.947 1_454 S
C811 C828 1.574 . S
C811 C830 1.368 . S
C811 H835 0.949 . S
H812 C816 0.949 . S
C813 C814 1.349 . S
C813 C815 1.327 . S
C813 H836 0.950 . S
C814 C813 1.349 . S
C814 C826 1.349 . S
C815 C813 1.327 . S
C815 C831 1.429 . S
C815 H837 0.950 . S
C816 H812 0.949 . S
C816 C824 1.574 . S
C816 C832 1.368 . S
H817 C825 0.950 . S
H818 C823 0.950 . S
H819 C824 0.949 . S
H820 C826 0.950 . S
H821 C827 0.950 . S
H822 C828 0.949 . S
C823 H818 0.950 . S
C823 C825 1.327 . S
C823 C829 1.429 . S
C824 C816 1.574 . S
C824 H819 0.949 . S
C824 C830 1.368 1_556 S
C825 C809 1.349 1_455 S
C825 H817 0.950 . S
C825 C823 1.327 . S
C826 C814 1.349 . S
C826 H820 0.950 . S
C826 C827 1.327 . S
C827 H821 0.950 . S
C827 C826 1.327 . S
C827 C831 1.429 . S
C828 C811 1.574 . S
C828 H822 0.949 . S
C828 C832 1.368 1_554 S
C829 C810 1.433 . S
C829 C823 1.429 . S
C829 C830 1.523 . S
C830 C811 1.368 . S
C830 C824 1.368 1_554 S
C830 C829 1.523 . S
C831 C815 1.429 . S
C831 C827 1.429 . S
C831 C832 1.523 . S
C832 C816 1.368 . S
C832 C828 1.368 1_556 S
C832 C831 1.523 . S
H833 C808 0.950 . S
H834 C810 0.947 1_656 S
H835 C811 0.949 . S
H836 C813 0.950 . S
H837 C815 0.950 . S
C838 C839 1.349 1_545 S
C838 C840 1.327 . S
C838 H863 0.950 . S
C839 C838 1.349 1_565 S
C839 C855 1.349 . S
C840 C838 1.327 . S
C840 C859 1.429 . S
C840 H864 0.950 . S
C841 C858 1.574 1_554 S
C841 C860 1.368 1_565 S
C841 H865 0.949 . S
H842 C846 0.949 . S
C843 C844 1.349 . S
C843 C845 1.327 . S
C843 H866 0.950 . S
C844 C843 1.349 . S
C844 C856 1.349 . S
C845 C843 1.327 . S
C845 C861 1.429 . S
C845 H867 0.950 1_545 S
C846 H842 0.949 . S
C846 C854 1.574 . S
C846 C862 1.368 . S
H847 C855 0.950 . S
H848 C853 0.950 . S
H849 C854 0.949 . S
H850 C856 0.950 . S
H851 C857 0.950 . S
H852 C858 0.949 . S
C853 H848 0.950 . S
C853 C855 1.327 . S
C853 C859 1.429 1_565 S
C854 C846 1.574 . S
C854 H849 0.949 . S
C854 C860 1.368 1_556 S
C855 C839 1.349 . S
C855 H847 0.950 . S
C855 C853 1.327 . S
C856 C844 1.349 . S
C856 H850 0.950 . S
C856 C857 1.327 . S
C857 H851 0.950 . S
C857 C856 1.327 . S
C857 C861 1.429 . S
C858 C841 1.574 1_556 S
C858 H852 0.949 . S
C858 C862 1.368 1_565 S
C859 C840 1.429 . S
C859 C853 1.429 1_545 S
C859 C860 1.523 . S
C860 C841 1.368 1_545 S
C860 C854 1.368 1_554 S
C860 C859 1.523 . S
C861 C845 1.429 . S
C861 C857 1.429 . S
C861 C862 1.523 . S
C862 C846 1.368 . S
C862 C858 1.368 1_545 S
C862 C861 1.523 . S
H863 C838 0.950 . S
H864 C840 0.950 . S
H865 C841 0.949 . S
H866 C843 0.950 . S
H867 C845 0.950 1_565 S
C868 C869 1.349 . S
C868 C870 1.327 . S
C868 H893 0.950 . S
C869 C868 1.349 . S
C869 C885 1.349 . S
C870 C868 1.327 . S
C870 C889 1.429 . S
C870 H894 0.950 1_554 S
C871 C888 1.574 . S
C871 C890 1.368 . S
C871 H895 0.949 . S
H872 C876 0.949 . S
C873 C874 1.349 . S
C873 C875 1.327 . S
C873 H896 0.950 . S
C874 C873 1.349 . S
C874 C886 1.349 . S
C875 C873 1.327 . S
C875 C891 1.429 . S
C875 H897 0.950 . S
C876 H872 0.949 . S
C876 C884 1.574 . S
C876 C892 1.368 . S
H877 C885 0.950 . S
H878 C883 0.950 . S
H879 C884 0.949 . S
H880 C886 0.950 . S
H881 C887 0.950 . S
H882 C888 0.949 . S
C883 H878 0.950 . S
C883 C885 1.327 . S
C883 C889 1.429 . S
C884 C876 1.574 . S
C884 H879 0.949 . S
C884 C890 1.368 1_556 S
C885 C869 1.349 . S
C885 H877 0.950 . S
C885 C883 1.327 . S
C886 C874 1.349 . S
C886 H880 0.950 . S
C886 C887 1.327 . S
C887 H881 0.950 . S
C887 C886 1.327 . S
C887 C891 1.429 . S
C888 C871 1.574 . S
C888 H882 0.949 . S
C888 C892 1.368 1_554 S
C889 C870 1.429 . S
C889 C883 1.429 . S
C889 C890 1.523 . S
C890 C871 1.368 . S
C890 C884 1.368 1_554 S
C890 C889 1.523 . S
C891 C875 1.429 . S
C891 C887 1.429 . S
C891 C892 1.523 . S
C892 C876 1.368 . S
C892 C888 1.368 1_556 S
C892 C891 1.523 . S
H893 C868 0.950 . S
H894 C870 0.950 1_556 S
H895 C871 0.949 . S
H896 C873 0.950 . S
H897 C875 0.950 . S
C898 C899 1.349 . S
C898 C900 1.327 . S
C898 H923 0.950 . S
C899 C898 1.349 . S
C899 C915 1.349 . S
C900 C898 1.327 . S
C900 C919 1.429 . S
C900 H924 0.950 . S
C901 C918 1.574 . S
C901 C920 1.368 1_556 S
C901 H925 0.949 . S
H902 C906 0.949 . S
C903 C904 1.349 . S
C903 C905 1.327 . S
C903 H926 0.950 . S
C904 C903 1.349 . S
C904 C916 1.349 . S
C905 C903 1.327 . S
C905 C921 1.429 . S
C905 H927 0.950 . S
C906 H902 0.949 . S
C906 C914 1.574 . S
C906 C922 1.368 1_554 S
H907 C915 0.950 . S
H908 C913 0.950 1_556 S
H909 C914 0.949 . S
H910 C916 0.950 . S
H911 C917 0.950 . S
H912 C918 0.949 . S
C913 H908 0.950 1_554 S
C913 C915 1.327 . S
C913 C919 1.429 . S
C914 C906 1.574 . S
C914 H909 0.949 . S
C914 C920 1.368 . S
C915 C899 1.349 . S
C915 H907 0.950 . S
C915 C913 1.327 . S
C916 C904 1.349 . S
C916 H910 0.950 . S
C916 C917 1.327 . S
C917 H911 0.950 . S
C917 C916 1.327 . S
C917 C921 1.429 . S
C918 C901 1.574 . S
C918 H912 0.949 . S
C918 C922 1.368 . S
C919 C900 1.429 . S
C919 C913 1.429 . S
C919 C920 1.523 . S
C920 C901 1.368 1_554 S
C920 C914 1.368 . S
C920 C919 1.523 . S
C921 C905 1.429 . S
C921 C917 1.429 . S
C921 C922 1.523 . S
C922 C906 1.368 1_556 S
C922 C918 1.368 . S
C922 C921 1.523 . S
H923 C898 0.950 . S
H924 C900 0.950 . S
H925 C901 0.949 . S
H926 C903 0.950 . S
H927 C905 0.950 . S
C928 C929 1.349 1_655 S
C928 C930 1.327 . S
C928 H953 0.950 . S
C929 C928 1.349 1_455 S
C929 C945 1.349 . S
C930 C928 1.327 . S
C930 C949 1.429 1_655 S
C930 H954 0.950 . S
C931 C948 1.574 . S
C931 C950 1.368 . S
C931 H955 0.949 . S
H932 C936 0.949 . S
C933 C934 1.349 . S
C933 C935 1.327 . S
C933 H956 0.950 . S
C934 C933 1.349 . S
C934 C946 1.347 1_455 S
C935 C933 1.327 . S
C935 C951 1.429 . S
C935 H957 0.950 . S
C936 H932 0.949 . S
C936 C944 1.574 . S
C936 C952 1.368 1_655 S
H937 C945 0.950 . S
H938 C943 0.950 . S
H939 C944 0.949 . S
H940 C946 0.951 . S
H941 C947 0.950 . S
H942 C948 0.949 . S
C943 H938 0.950 . S
C943 C945 1.327 . S
C943 C949 1.429 . S
C944 C936 1.574 . S
C944 H939 0.949 . S
C944 C950 1.368 1_655 S
C945 C929 1.349 . S
C945 H937 0.950 . S
C945 C943 1.327 . S
C946 C934 1.347 1_655 S
C946 H940 0.951 . S
C946 C947 1.327 . S
C947 H941 0.950 . S
C947 C946 1.327 . S
C947 C951 1.429 1_655 S
C948 C931 1.574 . S
C948 H942 0.949 . S
C948 C952 1.368 . S
C949 C930 1.429 1_455 S
C949 C943 1.429 . S
C949 C950 1.523 . S
C950 C931 1.368 . S
C950 C944 1.368 1_455 S
C950 C949 1.523 . S
C951 C935 1.429 . S
C951 C947 1.429 1_455 S
C951 C952 1.523 . S
C952 C936 1.368 1_455 S
C952 C948 1.368 . S
C952 C951 1.523 . S
H953 C928 0.950 . S
H954 C930 0.950 . S
H955 C931 0.949 . S
H956 C933 0.950 . S
H957 C935 0.950 . S
C958 C959 1.349 . S
C958 C960 1.327 . S
C958 H983 0.950 . S
C959 C958 1.349 . S
C959 C975 1.349 1_545 S
C960 C958 1.327 . S
C960 C979 1.429 . S
C960 H984 0.950 . S
C961 C978 1.574 . S
C961 C980 1.368 1_565 S
C961 H985 0.949 . S
H962 C966 0.949 . S
C963 C964 1.349 1_565 S
C963 C965 1.327 . S
C963 H986 0.950 . S
C964 C963 1.349 1_545 S
C964 C976 1.349 . S
C965 C963 1.327 . S
C965 C981 1.429 1_565 S
C965 H987 0.950 . S
C966 H962 0.949 . S
C966 C974 1.574 . S
C966 C982 1.368 . S
H967 C975 0.950 . S
H968 C973 0.950 . S
H969 C974 0.949 . S
H970 C976 0.950 . S
H971 C977 0.950 . S
H972 C978 0.949 . S
C973 H968 0.950 . S
C973 C975 1.327 . S
C973 C979 1.429 1_565 S
C974 C966 1.574 . S
C974 H969 0.949 . S
C974 C980 1.368 . S
C975 C959 1.349 1_565 S
C975 H967 0.950 . S
C975 C973 1.327 . S
C976 C964 1.349 . S
C976 H970 0.950 . S
C976 C977 1.327 . S
C977 H971 0.950 . S
C977 C976 1.327 . S
C977 C981 1.429 . S
C978 C961 1.574 . S
C978 H972 0.949 . S
C978 C982 1.368 1_565 S
C979 C960 1.429 . S
C979 C973 1.429 1_545 S
C979 C980 1.523 . S
C980 C961 1.368 1_545 S
C980 C974 1.368 . S
C980 C979 1.523 . S
C981 C965 1.429 1_545 S
C981 C977 1.429 . S
C981 C982 1.523 . S
C982 C966 1.368 . S
C982 C978 1.368 1_545 S
C982 C981 1.523 . S
H983 C958 0.950 . S
H984 C960 0.950 . S
H985 C961 0.949 . S
H986 C963 0.950 . S
H987 C965 0.950 . S
C988 C989 1.349 . S
C988 C990 1.327 . S
C988 H1013 0.950 . S
C989 C988 1.349 . S
C989 C1005 1.349 . S
C990 C988 1.327 . S
C990 C1009 1.429 . S
C990 H1014 0.950 . S
C991 C1008 1.574 . S
C991 C1010 1.368 . S
C991 H1015 0.949 . S
H992 C996 0.949 . S
C993 C994 1.349 . S
C993 C995 1.327 . S
C993 H1016 0.950 . S
C994 C993 1.349 . S
C994 C1006 1.349 . S
C995 C993 1.327 . S
C995 C1011 1.429 . S
C995 H1017 0.950 . S
C996 H992 0.949 . S
C996 C1004 1.574 . S
C996 C1012 1.368 . S
H997 C1005 0.950 . S
H998 C1003 0.950 . S
H999 C1004 0.949 . S
H1000 C1006 0.950 . S
H1001 C1007 0.950 . S
H1002 C1008 0.949 . S
C1003 H998 0.950 . S
C1003 C1005 1.327 . S
C1003 C1009 1.429 . S
C1004 C996 1.574 . S
C1004 H999 0.949 . S
C1004 C1010 1.368 . S
C1005 C989 1.349 . S
C1005 H997 0.950 . S
C1005 C1003 1.327 . S
C1006 C994 1.349 . S
C1006 H1000 0.950 . S
C1006 C1007 1.327 . S
C1007 H1001 0.950 . S
C1007 C1006 1.327 . S
C1007 C1011 1.429 . S
C1008 C991 1.574 . S
C1008 H1002 0.949 . S
C1008 C1012 1.368 . S
C1009 C990 1.429 . S
C1009 C1003 1.429 . S
C1009 C1010 1.523 . S
C1010 C991 1.368 . S
C1010 C1004 1.368 . S
C1010 C1009 1.523 . S
C1011 C995 1.429 . S
C1011 C1007 1.429 . S
C1011 C1012 1.523 . S
C1012 C996 1.368 . S
C1012 C1008 1.368 . S
C1012 C1011 1.523 . S
H1013 C988 0.950 . S
H1014 C990 0.950 . S
H1015 C991 0.949 . S
H1016 C993 0.950 . S
H1017 C995 0.950 . S
C1018 C1019 1.349 . S
C1018 C1020 1.327 . S
C1018 H1043 0.950 . S
C1019 C1018 1.349 . S
C1019 C1035 1.349 . S
C1020 C1018 1.327 . S
C1020 C1039 1.429 . S
C1020 H1044 0.950 . S
C1021 C1038 1.574 . S
C1021 C1040 1.368 . S
C1021 H1045 0.949 . S
H1022 C1026 0.949 . S
C1023 C1024 1.349 . S
C1023 C1025 1.327 . S
C1023 H1046 0.950 . S
C1024 C1023 1.349 . S
C1024 C1036 1.349 . S
C1025 C1023 1.327 . S
C1025 C1041 1.429 . S
C1025 H1047 0.950 . S
C1026 H1022 0.949 . S
C1026 C1034 1.574 . S
C1026 C1042 1.368 . S
H1027 C1035 0.950 . S
H1028 C1033 0.950 . S
H1029 C1034 0.949 . S
H1030 C1036 0.950 . S
H1031 C1037 0.950 . S
H1032 C1038 0.949 . S
C1033 H1028 0.950 . S
C1033 C1035 1.327 . S
C1033 C1039 1.429 . S
C1034 C1026 1.574 . S
C1034 H1029 0.949 . S
C1034 C1040 1.368 . S
C1035 C1019 1.349 . S
C1035 H1027 0.950 . S
C1035 C1033 1.327 . S
C1036 C1024 1.349 . S
C1036 H1030 0.950 . S
C1036 C1037 1.327 . S
C1037 H1031 0.950 . S
C1037 C1036 1.327 . S
C1037 C1041 1.429 . S
C1038 C1021 1.574 . S
C1038 H1032 0.949 . S
C1038 C1042 1.368 . S
C1039 C1020 1.429 . S
C1039 C1033 1.429 . S
C1039 C1040 1.523 . S
C1040 C1021 1.368 . S
C1040 C1034 1.368 . S
C1040 C1039 1.523 . S
C1041 C1025 1.429 . S
C1041 C1037 1.429 . S
C1041 C1042 1.523 . S
C1042 C1026 1.368 . S
C1042 C1038 1.368 . S
C1042 C1041 1.523 . S
H1043 C1018 0.950 . S
H1044 C1020 0.950 . S
H1045 C1021 0.949 . S
H1046 C1023 0.950 . S
H1047 C1025 0.950 . S
C1048 C1049 1.349 . S
C1048 C1050 1.327 . S
C1048 H1073 0.950 . S
C1049 C1048 1.349 . S
C1049 C1065 1.349 1_655 S
C1050 C1048 1.327 . S
C1050 C1069 1.429 . S
C1050 H1074 0.950 . S
C1051 C1068 1.574 . S
C1051 C1070 1.368 1_455 S
C1051 H1075 0.949 . S
H1052 C1056 0.949 . S
C1053 C1054 1.349 1_455 S
C1053 C1055 1.327 . S
C1053 H1076 0.950 . S
C1054 C1053 1.349 1_655 S
C1054 C1066 1.349 . S
C1055 C1053 1.327 . S
C1055 C1071 1.429 1_455 S
C1055 H1077 0.950 . S
C1056 H1052 0.949 . S
C1056 C1064 1.574 . S
C1056 C1072 1.368 . S
H1057 C1065 0.950 . S
H1058 C1063 0.950 . S
H1059 C1064 0.949 . S
H1060 C1066 0.950 . S
H1061 C1067 0.950 . S
H1062 C1068 0.949 . S
C1063 H1058 0.950 . S
C1063 C1065 1.327 . S
C1063 C1069 1.429 1_455 S
C1064 C1056 1.574 . S
C1064 H1059 0.949 . S
C1064 C1070 1.368 . S
C1065 C1049 1.349 1_455 S
C1065 H1057 0.950 . S
C1065 C1063 1.327 . S
C1066 C1054 1.349 . S
C1066 H1060 0.950 . S
C1066 C1067 1.327 . S
C1067 H1061 0.950 . S
C1067 C1066 1.327 . S
C1067 C1071 1.429 . S
C1068 C1051 1.574 . S
C1068 H1062 0.949 . S
C1068 C1072 1.368 1_455 S
C1069 C1050 1.429 . S
C1069 C1063 1.429 1_655 S
C1069 C1070 1.523 . S
C1070 C1051 1.368 1_655 S
C1070 C1064 1.368 . S
C1070 C1069 1.523 . S
C1071 C1055 1.429 1_655 S
C1071 C1067 1.429 . S
C1071 C1072 1.523 . S
C1072 C1056 1.368 . S
C1072 C1068 1.368 1_655 S
C1072 C1071 1.523 . S
H1073 C1048 0.950 . S
H1074 C1050 0.950 . S
H1075 C1051 0.949 . S
H1076 C1053 0.950 . S
H1077 C1055 0.950 . S
C1078 C1079 1.349 1_545 S
C1078 C1080 1.327 . S
C1078 H1103 0.950 . S
C1079 C1078 1.349 1_565 S
C1079 C1095 1.349 . S
C1080 C1078 1.327 . S
C1080 C1099 1.429 1_545 S
C1080 H1104 0.950 . S
C1081 C1098 1.574 . S
C1081 C1100 1.368 . S
C1081 H1105 0.949 . S
H1082 C1086 0.949 . S
C1083 C1084 1.349 . S
C1083 C1085 1.327 . S
C1083 H1106 0.950 . S
C1084 C1083 1.349 . S
C1084 C1096 1.349 1_565 S
C1085 C1083 1.327 . S
C1085 C1101 1.429 . S
C1085 H1107 0.950 . S
C1086 H1082 0.949 . S
C1086 C1094 1.574 . S
C1086 C1102 1.368 1_545 S
H1087 C1095 0.950 . S
H1088 C1093 0.950 . S
H1089 C1094 0.949 . S
H1090 C1096 0.950 . S
H1091 C1097 0.950 . S
H1092 C1098 0.949 . S
C1093 H1088 0.950 . S
C1093 C1095 1.327 . S
C1093 C1099 1.429 . S
C1094 C1086 1.574 . S
C1094 H1089 0.949 . S
C1094 C1100 1.368 1_545 S
C1095 C1079 1.349 . S
C1095 H1087 0.950 . S
C1095 C1093 1.327 . S
C1096 C1084 1.349 1_545 S
C1096 H1090 0.950 . S
C1096 C1097 1.327 . S
C1097 H1091 0.950 . S
C1097 C1096 1.327 . S
C1097 C1101 1.429 1_545 S
C1098 C1081 1.574 . S
C1098 H1092 0.949 . S
C1098 C1102 1.368 . S
C1099 C1080 1.429 1_565 S
C1099 C1093 1.429 . S
C1099 C1100 1.523 . S
C1100 C1081 1.368 . S
C1100 C1094 1.368 1_565 S
C1100 C1099 1.523 . S
C1101 C1085 1.429 . S
C1101 C1097 1.429 1_565 S
C1101 C1102 1.523 . S
C1102 C1086 1.368 1_565 S
C1102 C1098 1.368 . S
C1102 C1101 1.523 . S
H1103 C1078 0.950 . S
H1104 C1080 0.950 . S
H1105 C1081 0.949 . S
H1106 C1083 0.950 . S
H1107 C1085 0.950 . S
C1108 C1109 1.349 . S
C1108 C1110 1.327 . S
C1108 H1133 0.950 . S
C1109 C1108 1.349 . S
C1109 C1125 1.349 . S
C1110 C1108 1.327 . S
C1110 C1129 1.429 . S
C1110 H1134 0.950 . S
C1111 C1128 1.574 . S
C1111 C1130 1.368 . S
C1111 H1135 0.949 . S
H1112 C1116 0.949 . S
C1113 C1114 1.349 . S
C1113 C1115 1.327 . S
C1113 H1136 0.950 . S
C1114 C1113 1.349 . S
C1114 C1126 1.349 . S
C1115 C1113 1.327 . S
C1115 C1131 1.429 . S
C1115 H1137 0.950 . S
C1116 H1112 0.949 . S
C1116 C1124 1.574 . S
C1116 C1132 1.368 . S
H1117 C1125 0.950 . S
H1118 C1123 0.950 . S
H1119 C1124 0.949 . S
H1120 C1126 0.950 . S
H1121 C1127 0.950 . S
H1122 C1128 0.949 . S
C1123 H1118 0.950 . S
C1123 C1125 1.327 . S
C1123 C1129 1.429 . S
C1124 C1116 1.574 . S
C1124 H1119 0.949 . S
C1124 C1130 1.368 . S
C1125 C1109 1.349 . S
C1125 H1117 0.950 . S
C1125 C1123 1.327 . S
C1126 C1114 1.349 . S
C1126 H1120 0.950 . S
C1126 C1127 1.327 . S
C1127 H1121 0.950 . S
C1127 C1126 1.327 . S
C1127 C1131 1.429 . S
C1128 C1111 1.574 . S
C1128 H1122 0.949 . S
C1128 C1132 1.368 . S
C1129 C1110 1.429 . S
C1129 C1123 1.429 . S
C1129 C1130 1.523 . S
C1130 C1111 1.368 . S
C1130 C1124 1.368 . S
C1130 C1129 1.523 . S
C1131 C1115 1.429 . S
C1131 C1127 1.429 . S
C1131 C1132 1.523 . S
C1132 C1116 1.368 . S
C1132 C1128 1.368 . S
C1132 C1131 1.523 . S
H1133 C1108 0.950 . S
H1134 C1110 0.950 . S
H1135 C1111 0.949 . S
H1136 C1113 0.950 . S
H1137 C1115 0.950 . S
C1138 C1139 1.349 . S
C1138 C1140 1.327 . S
C1138 H1163 0.950 . S
C1139 C1138 1.349 . S
C1139 C1155 1.349 . S
C1140 C1138 1.327 . S
C1140 C1159 1.429 . S
C1140 H1164 0.950 . S
C1141 C1158 1.574 . S
C1141 C1160 1.368 . S
C1141 H1165 0.949 . S
H1142 C1146 0.949 . S
C1143 C1144 1.349 . S
C1143 C1145 1.327 . S
C1143 H1166 0.950 . S
C1144 C1143 1.349 . S
C1144 C1156 1.349 . S
C1145 C1143 1.327 . S
C1145 C1161 1.429 . S
C1145 H1167 0.950 . S
C1146 H1142 0.949 . S
C1146 C1154 1.574 . S
C1146 C1162 1.368 . S
H1147 C1155 0.950 . S
H1148 C1153 0.950 . S
H1149 C1154 0.949 . S
H1150 C1156 0.950 . S
H1151 C1157 0.950 . S
H1152 C1158 0.949 . S
C1153 H1148 0.950 . S
C1153 C1155 1.327 . S
C1153 C1159 1.429 . S
C1154 C1146 1.574 . S
C1154 H1149 0.949 . S
C1154 C1160 1.368 . S
C1155 C1139 1.349 . S
C1155 H1147 0.950 . S
C1155 C1153 1.327 . S
C1156 C1144 1.349 . S
C1156 H1150 0.950 . S
C1156 C1157 1.327 . S
C1157 H1151 0.950 . S
C1157 C1156 1.327 . S
C1157 C1161 1.429 . S
C1158 C1141 1.574 . S
C1158 H1152 0.949 . S
C1158 C1162 1.368 . S
C1159 C1140 1.429 . S
C1159 C1153 1.429 . S
C1159 C1160 1.523 . S
C1160 C1141 1.368 . S
C1160 C1154 1.368 . S
C1160 C1159 1.523 . S
C1161 C1145 1.429 . S
C1161 C1157 1.429 . S
C1161 C1162 1.523 . S
C1162 C1146 1.368 . S
C1162 C1158 1.368 . S
C1162 C1161 1.523 . S
H1163 C1138 0.950 . S
H1164 C1140 0.950 . S
H1165 C1141 0.949 . S
H1166 C1143 0.950 . S
H1167 C1145 0.950 . S
C449 C241 1.862 . S
C454 C297 2.005 1_545 S
C484 C337 2.023 . S
C479 C277 1.920 . S
C514 C377 2.011 . S
C509 C169 1.863 . S
C544 C417 2.017 1_455 S
C539 C205 1.871 . S
C574 C306 2.007 1_565 S
C569 C97 1.867 . S
C599 C133 1.918 . S
C604 C346 2.023 . S
C629 C25 1.861 . S
C634 C386 2.012 . S
C659 C61 1.871 1_655 S
C664 C426 2.017 1_655 S
C694 C303 0.262 . S
C689 C211 0.270 . S
C724 C343 0.267 . S
C719 C247 0.274 . S
C754 C383 0.259 . S
C749 C253 0.281 . S
C779 C175 0.273 . S
C784 C423 0.265 . S
C809 C67 0.353 1_655 S
C814 C294 0.248 . S
C844 C334 0.267 . S
C839 C103 0.361 . S
C874 C374 0.259 . S
C869 C109 0.199 . S
C899 C31 0.360 . S
C904 C414 0.271 . S
C929 C181 2.540 . S
C934 C307 2.817 . S
C959 C217 2.526 . S
C964 C347 2.802 . S
C994 C387 2.812 . S
C989 C283 2.473 . S
C1024 C427 2.806 . S
C1019 C145 2.523 . S
C1049 C37 2.542 1_655 S
C1054 C298 2.818 . S
C1084 C338 2.802 . S
C1079 C73 2.530 . S
C1114 C378 2.812 . S
C1109 C139 2.465 . S
C1139 C1 2.534 . S
C1144 C418 2.813 . S
