# Generated by pormake.
# Topology anh, (6,3)-cn, num edge types: 1
# Building blocks:
#     Node 0, Type 0, BuildingBlock: PAMTUU_clean_sbu_0, # of connection points: 6
#     Node 1, Type 0, BuildingBlock: PAMTUU_clean_sbu_0, # of connection points: 6
#     Node 2, Type 0, BuildingBlock: PAMTUU_clean_sbu_0, # of connection points: 6
#     Node 3, Type 1, BuildingBlock: MIDCAF_clean_linker_0, # of connection points: 3
#     Node 4, Type 1, BuildingBlock: MIDCAF_clean_linker_0, # of connection points: 3
#     Node 5, Type 1, BuildingBlock: MIDCAF_clean_linker_0, # of connection points: 3
#     Node 6, Type 1, BuildingBlock: MIDCAF_clean_linker_0, # of connection points: 3
#     Node 7, Type 1, BuildingBlock: MIDCAF_clean_linker_0, # of connection points: 3
#     Node 8, Type 1, BuildingBlock: MIDCAF_clean_linker_0, # of connection points: 3
#     Edge 9, Type (0, 1), BuildingBlock: XIVTED_clean_linker_0, # of connection points: 2
#     Edge 10, Type (0, 1), BuildingBlock: XIVTED_clean_linker_0, # of connection points: 2
#     Edge 11, Type (0, 1), BuildingBlock: XIVTED_clean_linker_0, # of connection points: 2
#     Edge 12, Type (0, 1), BuildingBlock: XIVTED_clean_linker_0, # of connection points: 2
#     Edge 13, Type (0, 1), BuildingBlock: XIVTED_clean_linker_0, # of connection points: 2
#     Edge 14, Type (0, 1), BuildingBlock: XIVTED_clean_linker_0, # of connection points: 2
#     Edge 15, Type (0, 1), BuildingBlock: XIVTED_clean_linker_0, # of connection points: 2
#     Edge 16, Type (0, 1), BuildingBlock: XIVTED_clean_linker_0, # of connection points: 2
#     Edge 17, Type (0, 1), BuildingBlock: XIVTED_clean_linker_0, # of connection points: 2
#     Edge 18, Type (0, 1), BuildingBlock: XIVTED_clean_linker_0, # of connection points: 2
#     Edge 19, Type (0, 1), BuildingBlock: XIVTED_clean_linker_0, # of connection points: 2
#     Edge 20, Type (0, 1), BuildingBlock: XIVTED_clean_linker_0, # of connection points: 2
#     Edge 21, Type (0, 1), BuildingBlock: XIVTED_clean_linker_0, # of connection points: 2
#     Edge 22, Type (0, 1), BuildingBlock: XIVTED_clean_linker_0, # of connection points: 2
#     Edge 23, Type (0, 1), BuildingBlock: XIVTED_clean_linker_0, # of connection points: 2
#     Edge 24, Type (0, 1), BuildingBlock: XIVTED_clean_linker_0, # of connection points: 2
#     Edge 25, Type (0, 1), BuildingBlock: XIVTED_clean_linker_0, # of connection points: 2
#     Edge 26, Type (0, 1), BuildingBlock: XIVTED_clean_linker_0, # of connection points: 2
# Relax obj value: 0.239
# Max RMSD: 0.189
# Mean RMSD: 0.156
data_MOF--net-anh--node1-PAMTUU_clean_sbu_0--node2-MIDCAF_clean_linker_0--edge1-XIVTED_clean_linker_0
_symmetry_space_group_name_H-M    P1
_symmetry_Int_Tables_number       1
_symmetry_cell_setting            triclinic
loop_
_symmetry_equiv_pos_as_xyz
'x, y, z'
_cell_length_a     37.618189
_cell_length_b     37.481905
_cell_length_c     66.30235
_cell_angle_alpha  93.691518
_cell_angle_beta   90.448124
_cell_angle_gamma 119.6536
loop_
_atom_site_label
_atom_site_type_symbol
_atom_site_fract_x
_atom_site_fract_y
_atom_site_fract_z
_atom_type_partial_charge
Tb0 Tb 0.08277 0.62333 0.16309 0.0
Tb1 Tb 0.12871 0.57049 0.16484 0.0
C2 C 0.11151 0.59705 0.12244 0.0
C3 C 1.00019 0.64077 0.17586 0.0
C4 C 0.92091 0.59096 0.18916 0.0
C5 C 0.92765 0.618 0.17399 0.0
C6 C 0.96706 0.64262 0.16732 0.0
C7 C 0.99403 0.61671 0.1923 0.0
C8 C 0.95473 0.5921 0.19893 0.0
C9 C 1.03851 0.65617 0.1652 0.0
O10 O 1.03154 0.55829 0.16631 0.0
O11 O 0.06404 0.52015 0.16541 0.0
O12 O 0.10206 0.56663 0.19409 0.0
O13 O 0.10141 0.62686 0.19444 0.0
O14 O 0.13868 0.5225 0.15431 0.0
O15 O 0.17412 0.56389 0.18005 0.0
O16 O 0.17949 0.63675 0.16833 0.0
O17 O 0.14732 0.67365 0.16182 0.0
O18 O 0.09848 0.62023 0.13167 0.0
O19 O 0.1222 0.57426 0.13235 0.0
C20 C 1.02983 0.52195 0.1666 0.0
O21 O 0.07159 0.66896 0.17657 0.0
O22 O 1.03685 0.63183 0.14982 0.0
C23 C 0.09928 0.59643 0.20386 0.0
C24 C 0.20637 0.53633 0.1592 0.0
C25 C 0.27355 0.53371 0.14258 0.0
C26 C 0.26073 0.51979 0.16181 0.0
C27 C 0.22732 0.52102 0.17002 0.0
C28 C 0.22006 0.55197 0.14039 0.0
C29 C 0.25337 0.55049 0.13208 0.0
C30 C 0.16913 0.5336 0.16734 0.0
C31 C 0.18142 0.6727 0.16585 0.0
H32 H 0.90215 0.61747 0.166 0.0
H33 H 0.97115 0.66058 0.15449 0.0
H34 H 1.01911 0.61445 0.19903 0.0
H35 H 0.95048 0.57183 0.21073 0.0
H36 H 0.27534 0.50622 0.17013 0.0
H37 H 0.21708 0.50888 0.18456 0.0
H38 H 0.20435 0.56425 0.13191 0.0
H39 H 0.26288 0.56175 0.11732 0.0
Tb40 Tb 0.56385 0.05621 0.49129 0.0
Tb41 Tb 0.66185 0.10657 0.49831 0.0
C42 C 0.62047 0.08357 0.4539 0.0
C43 C 0.45886 0.97719 0.49792 0.0
C44 C 0.40511 0.90339 0.51475 0.0
C45 C 0.39015 0.92689 0.50598 0.0
C46 C 0.41689 0.96354 0.49758 0.0
C47 C 0.4741 0.95457 0.50724 0.0
C48 C 0.44739 0.91776 0.51548 0.0
C49 C 0.48698 1.01538 0.48899 0.0
O50 O 0.57918 1.00554 0.49119 0.0
O51 O 0.64803 0.04163 0.50012 0.0
O52 O 0.63475 0.10968 0.52687 0.0
O53 O 0.57792 0.04745 0.52142 0.0
O54 O 0.72042 0.14978 0.48972 0.0
O55 O 0.71255 0.11934 0.51721 0.0
O56 O 0.64739 0.15716 0.4965 0.0
O57 O 0.5774 0.12137 0.49786 0.0
O58 O 0.58543 0.07562 0.46151 0.0
O59 O 0.65217 0.09047 0.46552 0.0
C60 C 0.61361 1.00596 0.49638 0.0
O61 O 0.50787 0.04683 0.50205 0.0
O62 O 0.51001 1.01207 0.4752 0.0
C63 C 0.60383 0.07767 0.53387 0.0
C64 C 0.75717 0.19088 0.51856 0.0
C65 C 0.78452 0.27342 0.53191 0.0
C66 C 0.74816 0.24186 0.53892 0.0
C67 C 0.7346 0.20093 0.5323 0.0
C68 C 0.79521 0.22195 0.51293 0.0
C69 C 0.80896 0.26301 0.51965 0.0
C70 C 0.73712 0.1504 0.50713 0.0
C71 C 0.61223 0.15701 0.4981 0.0
H72 H 0.3576 0.91617 0.50494 0.0
H73 H 0.40478 0.9809 0.4906 0.0
H74 H 0.5066 0.96515 0.50794 0.0
H75 H 0.45968 0.90033 0.5222 0.0
H76 H 0.72889 0.24903 0.54843 0.0
H77 H 0.70499 0.17754 0.53679 0.0
H78 H 0.81278 0.21486 0.50215 0.0
H79 H 0.83693 0.28678 0.51382 0.0
Tb80 Tb 0.59052 0.52914 0.8257 0.0
Tb81 Tb 0.64182 0.62633 0.83442 0.0
C82 C 0.61346 0.58528 0.78876 0.0
C83 C 0.57087 0.42562 0.83327 0.0
C84 C 0.60311 0.38115 0.85157 0.0
C85 C 0.60843 0.38842 0.83097 0.0
C86 C 0.59242 0.41028 0.82193 0.0
C87 C 0.565 0.41789 0.85383 0.0
C88 C 0.58103 0.39592 0.8629 0.0
C89 C 0.55737 0.45193 0.82392 0.0
O90 O 0.65582 0.54331 0.83143 0.0
O91 O 0.69332 0.61359 0.83047 0.0
O92 O 0.65161 0.59966 0.86082 0.0
O93 O 0.58785 0.54654 0.85698 0.0
O94 O 0.67785 0.68749 0.82679 0.0
O95 O 0.65558 0.67399 0.85679 0.0
O96 O 0.57599 0.60937 0.83815 0.0
O97 O 0.5403 0.54405 0.82281 0.0
O98 O 0.59547 0.54831 0.7953 0.0
O99 O 0.63225 0.61883 0.80123 0.0
C100 C 0.69207 0.5777 0.83139 0.0
O101 O 0.5466 0.47303 0.83622 0.0
O102 O 0.58031 0.47423 0.80996 0.0
C103 C 0.62123 0.5679 0.86818 0.0
C104 C 0.64654 0.72358 0.84183 0.0
C105 C 0.58355 0.74358 0.84032 0.0
C106 C 0.60471 0.74819 0.85875 0.0
C107 C 0.63602 0.7384 0.85947 0.0
C108 C 0.62717 0.72153 0.82324 0.0
C109 C 0.59616 0.73158 0.8225 0.0
C110 C 0.66974 0.70161 0.84362 0.0
C111 C 0.54056 0.57732 0.83116 0.0
H112 H 0.62419 0.37636 0.82165 0.0
H113 H 0.59719 0.41543 0.80604 0.0
H114 H 0.54827 0.42901 0.86298 0.0
H115 H 0.5762 0.39053 0.87876 0.0
H116 H 0.59582 0.75747 0.87275 0.0
H117 H 0.65013 0.73976 0.87402 0.0
H118 H 0.63427 0.71 0.80935 0.0
H119 H 0.5814 0.72899 0.80796 0.0
C120 C 0.49598 0.9514 0.19693 0.0
C121 C 0.46349 0.94993 0.18522 0.0
C122 C 0.47253 0.98845 0.17786 0.0
C123 C 0.51103 1.02581 0.18237 0.0
H124 H 0.65277 0.18762 0.17618 0.0
H125 H 0.71473 0.25171 0.16817 0.0
H126 H 0.78722 0.2248 0.20848 0.0
H127 H 0.72638 0.16194 0.21617 0.0
H128 H 0.68499 0.13697 0.26196 0.0
H129 H 0.68821 0.13329 0.2985 0.0
H130 H 0.55617 0.05922 0.29734 0.0
H131 H 0.55355 0.06099 0.26092 0.0
H132 H 0.55631 0.98702 0.21126 0.0
H133 H 0.49187 0.92402 0.20351 0.0
H134 H 0.44959 0.99015 0.1687 0.0
H135 H 0.51502 0.05424 0.17707 0.0
N136 N 0.61131 0.09898 0.19438 0.0
N137 N 0.64697 0.12996 0.22594 0.0
N138 N 0.58424 0.06837 0.22483 0.0
C139 C 0.64534 0.13119 0.20542 0.0
C140 C 0.61672 0.09937 0.23577 0.0
C141 C 0.58035 0.06678 0.20433 0.0
C142 C 0.68339 0.16768 0.19663 0.0
C143 C 0.68203 0.19468 0.18295 0.0
C144 C 0.71813 0.23239 0.17857 0.0
C145 C 0.75777 0.24512 0.18744 0.0
C146 C 0.7587 0.21742 0.20075 0.0
C147 C 0.72296 0.18047 0.20526 0.0
C148 C 0.61904 0.09904 0.25834 0.0
C149 C 0.65668 0.11987 0.26955 0.0
C150 C 0.65843 0.1179 0.29066 0.0
C151 C 0.6225 0.09562 0.30132 0.0
C152 C 0.58483 0.0757 0.28999 0.0
C153 C 0.5832 0.07701 0.26892 0.0
C154 C 0.54287 1.0269 0.19448 0.0
C155 C 0.53394 0.9884 0.20145 0.0
C156 C 0.6465 0.4708 0.53211 0.0
C157 C 0.6155 0.43858 0.5192 0.0
C158 C 0.58607 0.44769 0.51089 0.0
C159 C 0.58729 0.48628 0.51556 0.0
H160 H 0.65757 0.67269 0.50969 0.0
H161 H 0.65787 0.73592 0.50087 0.0
H162 H 0.55799 0.70845 0.53994 0.0
H163 H 0.55807 0.64635 0.54863 0.0
H164 H 0.61092 0.6477 0.59666 0.0
H165 H 0.61107 0.64994 0.63358 0.0
H166 H 0.61974 0.53916 0.63165 0.0
H167 H 0.61888 0.53647 0.59493 0.0
H168 H 0.67088 0.53106 0.54772 0.0
H169 H 0.66967 0.46624 0.53934 0.0
H170 H 0.56152 0.42473 0.5008 0.0
H171 H 0.56302 0.49054 0.50941 0.0
N172 N 0.61247 0.58519 0.52824 0.0
N173 N 0.6111 0.61857 0.55958 0.0
N174 N 0.6161 0.55865 0.55914 0.0
C175 C 0.61062 0.61761 0.53896 0.0
C176 C 0.614 0.58972 0.56981 0.0
C177 C 0.61508 0.55509 0.53855 0.0
C178 C 0.60706 0.65268 0.52963 0.0
C179 C 0.63489 0.67942 0.51599 0.0
C180 C 0.63544 0.71656 0.51116 0.0
C181 C 0.60788 0.72875 0.5195 0.0
C182 C 0.57958 0.70122 0.5327 0.0
C183 C 0.57954 0.66483 0.53774 0.0
C184 C 0.61472 0.5918 0.59255 0.0
C185 C 0.61285 0.62376 0.60407 0.0
C186 C 0.61319 0.6252 0.62536 0.0
C187 C 0.61523 0.59464 0.63583 0.0
C188 C 0.6174 0.56292 0.62429 0.0
C189 C 0.61717 0.56152 0.60307 0.0
C190 C 0.61786 0.51784 0.52892 0.0
C191 C 0.64733 0.50879 0.53694 0.0
C192 C 0.96886 0.54525 0.86561 0.0
C193 C 0.96745 0.57319 0.85263 0.0
C194 C 1.00571 0.60012 0.8443 0.0
C195 C 1.04286 0.59954 0.84903 0.0
H196 H 0.1643 0.54147 0.83806 0.0
H197 H 0.22745 0.54046 0.82906 0.0
H198 H 0.29229 0.62708 0.8801 0.0
H199 H 0.2304 0.6283 0.88868 0.0
H200 H 0.18372 0.61883 0.93095 0.0
H201 H 0.1833 0.62159 0.96802 0.0
H202 H 1.05163 0.54763 0.96465 0.0
H203 H 1.0518 0.54587 0.92764 0.0
H204 H 1.00437 0.52385 0.8812 0.0
H205 H 0.94152 0.52414 0.8729 0.0
H206 H 1.0073 0.62226 0.83413 0.0
H207 H 0.0711 0.62199 0.84285 0.0
N208 N 0.1175 0.57885 0.86205 0.0
N209 N 0.1505 0.58409 0.89357 0.0
N210 N 0.08497 0.57685 0.89275 0.0
C211 C 0.15142 0.58255 0.87297 0.0
C212 C 0.11779 0.58102 0.90356 0.0
C213 C 0.08378 0.57628 0.87218 0.0
C214 C 0.19101 0.58552 0.8641 0.0
C215 C 0.19219 0.56114 0.8471 0.0
C216 C 0.22895 0.56014 0.84209 0.0
C217 C 0.26678 0.58372 0.85365 0.0
C218 C 0.26533 0.60864 0.87027 0.0
C219 C 0.22891 0.60929 0.87532 0.0
C220 C 0.11779 0.58217 0.9262 0.0
C221 C 0.15465 0.60316 0.93808 0.0
C222 C 0.15443 0.60492 0.95935 0.0
C223 C 0.11744 0.5848 0.96933 0.0
C224 C 0.08066 0.56331 0.95746 0.0
C225 C 0.08078 0.56246 0.93623 0.0
C226 C 1.04398 0.5721 0.86247 0.0
C227 C 1.00572 0.545 0.87044 0.0
C228 C 0.16935 0.6489 0.46849 0.0
C229 C 0.16532 0.65099 0.48955 0.0
C230 C 0.12595 0.634 0.49712 0.0
C231 C 0.09153 0.6177 0.48391 0.0
H232 H 0.97518 0.61921 0.47725 0.0
H233 H 0.91864 0.58485 0.49947 0.0
H234 H 0.85968 0.48117 0.4548 0.0
H235 H 0.9157 0.51624 0.43241 0.0
H236 H 0.96985 0.54794 0.38569 0.0
H237 H 0.97898 0.54654 0.34913 0.0
H238 H 0.10913 0.62713 0.35972 0.0
H239 H 0.10038 0.62852 0.39599 0.0
H240 H 0.13935 0.63292 0.43915 0.0
H241 H 0.19928 0.66225 0.46213 0.0
H242 H 0.12185 0.63475 0.51326 0.0
H243 H 0.06174 0.60605 0.49029 0.0
N244 N 1.02311 0.59545 0.4565 0.0
N245 N 0.99265 0.57951 0.42372 0.0
N246 N 0.06288 0.60231 0.42861 0.0
C247 C 0.9896 0.58302 0.4441 0.0
C248 C 1.02962 0.58985 0.41589 0.0
C249 C 1.05974 0.60476 0.44895 0.0
C250 C 0.95006 0.56978 0.4534 0.0
C251 C 0.94917 0.58985 0.47186 0.0
C252 C 0.91687 0.57016 0.48459 0.0
C253 C 0.88537 0.5298 0.47919 0.0
C254 C 0.88351 0.51225 0.45948 0.0
C255 C 0.91568 0.53226 0.44661 0.0
C256 C 1.03435 0.58836 0.39376 0.0
C257 C 1.00037 0.56535 0.3802 0.0
C258 C 1.00558 0.56433 0.35931 0.0
C259 C 1.04473 0.58687 0.35167 0.0
C260 C 0.07858 0.6098 0.36522 0.0
C261 C 0.07351 0.61036 0.38601 0.0
C262 C 0.09578 0.61799 0.46283 0.0
C263 C 0.13495 0.63252 0.45528 0.0
C264 C 0.61454 0.15203 0.80563 0.0
C265 C 0.60716 0.14412 0.82609 0.0
C266 C 0.58111 0.10351 0.83091 0.0
C267 C 0.56091 0.072 0.8156 0.0
H268 H 0.44346 0.95994 0.80218 0.0
H269 H 0.41593 0.89528 0.81817 0.0
H270 H 0.44893 0.84239 0.7668 0.0
H271 H 0.47443 0.9062 0.75055 0.0
H272 H 0.49894 0.96796 0.7114 0.0
H273 H 0.51412 0.98045 0.67616 0.0
H274 H 0.59218 0.1103 0.69309 0.0
H275 H 0.57791 0.09775 0.72847 0.0
H276 H 0.59974 0.12809 0.77473 0.0
H277 H 0.6339 0.18306 0.80132 0.0
H278 H 0.57513 0.09636 0.84652 0.0
H279 H 0.5401 0.04128 0.81988 0.0
N280 N 0.51236 1.01043 0.78381 0.0
N281 N 0.49876 0.98657 0.74954 0.0
N282 N 0.54974 0.05457 0.75914 0.0
C283 C 0.49043 0.97978 0.76927 0.0
C284 C 0.52808 1.02419 0.74434 0.0
C285 C 0.5422 0.04779 0.77893 0.0
C286 C 0.46217 0.93829 0.77544 0.0
C287 C 0.44325 0.93384 0.794 0.0
C288 C 0.42757 0.89684 0.80317 0.0
C289 C 0.43164 0.86412 0.79417 0.0
C290 C 0.44534 0.86686 0.7743 0.0
C291 C 0.46029 0.90366 0.76496 0.0
C292 C 0.5371 1.03183 0.72283 0.0
C293 C 0.51932 0.99922 0.70766 0.0
C294 C 0.52788 1.00642 0.6874 0.0
C295 C 0.55422 0.04644 0.68177 0.0
C296 C 0.57215 0.07904 0.69692 0.0
C297 C 0.56375 0.07182 0.71722 0.0
C298 C 0.56643 0.08042 0.79511 0.0
C299 C 0.59446 0.12053 0.79032 0.0
C300 C 0.67889 0.38586 0.11244 0.0
C301 C 0.66476 0.38494 0.13209 0.0
C302 C 0.62355 0.37351 0.13446 0.0
C303 C 0.59803 0.36701 0.11761 0.0
H304 H 0.50054 0.38067 0.10687 0.0
H305 H 0.45564 0.40744 0.1169 0.0
H306 H 0.45354 0.44191 0.05615 0.0
H307 H 0.49766 0.41435 0.04591 0.0
H308 H 0.5388 0.36399 0.01165 0.0
H309 H 0.56205 0.39134 0.97918 0.0
H310 H 0.68667 0.45983 0.00389 0.0
H311 H 0.66292 0.43198 0.03676 0.0
H312 H 0.66607 0.38327 0.08073 0.0
H313 H 0.71062 0.39484 0.11014 0.0
H314 H 0.61174 0.37204 0.14942 0.0
H315 H 0.56702 0.36046 0.12011 0.0
N316 N 0.55561 0.37816 0.08502 0.0
N317 N 0.54929 0.38973 0.05136 0.0
N318 N 0.60356 0.38029 0.06197 0.0
C319 C 0.53547 0.38562 0.07033 0.0
C320 C 0.58299 0.38685 0.04701 0.0
C321 C 0.58936 0.37503 0.08102 0.0
C322 C 0.50314 0.39572 0.07562 0.0
C323 C 0.49007 0.39338 0.09554 0.0
C324 C 0.4646 0.40906 0.10136 0.0
C325 C 0.45167 0.42746 0.08741 0.0
C326 C 0.4629 0.42782 0.06724 0.0
C327 C 0.48829 0.41204 0.06139 0.0
C328 C 0.59904 0.39597 0.02666 0.0
C329 C 0.57131 0.38395 0.01 0.0
C330 C 0.58475 0.39952 0.99135 0.0
C331 C 0.62626 0.4279 0.98896 0.0
C332 C 0.65449 0.43817 0.00534 0.0
C333 C 0.64099 0.42197 0.02405 0.0
C334 C 0.61331 0.37213 0.09805 0.0
C335 C 0.65339 0.37952 0.09556 0.0
H336 H 0.34647 0.54808 0.15957 0.0
H337 H 0.38652 0.42603 0.06763 0.0
H338 H 0.27263 0.5037 0.10382 0.0
H339 H 0.46357 0.47575 0.12231 0.0
H340 H 0.34774 0.45921 0.07939 0.0
H341 H 0.39344 0.52727 0.14491 0.0
C342 C 0.34041 0.53432 0.14416 0.0
C343 C 0.30545 0.52722 0.13295 0.0
C344 C 0.37325 0.46299 0.08878 0.0
C345 C 0.35878 0.50309 0.11612 0.0
C346 C 0.39543 0.44411 0.08205 0.0
C347 C 0.42801 0.4477 0.09412 0.0
C348 C 0.38369 0.48555 0.10772 0.0
C349 C 0.43807 0.47134 0.11273 0.0
C350 C 0.36722 0.52249 0.13579 0.0
C351 C 0.29933 0.50987 0.11296 0.0
N352 N 0.41586 0.48918 0.119 0.0
N353 N 0.32548 0.49794 0.10525 0.0
H354 H 0.73085 0.30086 0.52591 0.0
H355 H 0.91333 0.52761 0.51687 0.0
H356 H 0.85764 0.34382 0.54203 0.0
H357 H 0.80406 0.46909 0.47764 0.0
H358 H 0.88202 0.47045 0.53825 0.0
H359 H 0.74811 0.37151 0.52049 0.0
C360 C 0.76209 0.32537 0.52894 0.0
C361 C 0.79306 0.3165 0.53402 0.0
C362 C 0.86445 0.47077 0.5253 0.0
C363 C 0.81283 0.39702 0.52795 0.0
C364 C 0.88208 0.50361 0.51313 0.0
C365 C 0.86156 0.50278 0.49513 0.0
C366 C 0.82608 0.43689 0.51947 0.0
C367 C 0.82129 0.47048 0.4911 0.0
C368 C 0.77188 0.36556 0.52577 0.0
C369 C 0.83304 0.34934 0.53775 0.0
N370 N 0.8051 0.4383 0.50297 0.0
N371 N 0.84192 0.38818 0.53437 0.0
H372 H 0.57493 0.804 0.8615 0.0
H373 H 0.40684 0.78223 0.78368 0.0
H374 H 0.51154 0.6998 0.81755 0.0
H375 H 0.45934 0.87556 0.8336 0.0
H376 H 0.4316 0.74205 0.80053 0.0
H377 H 0.5213 0.82133 0.85642 0.0
C378 C 0.5494 0.78434 0.85102 0.0
C379 C 0.54844 0.75116 0.83948 0.0
C380 C 0.43667 0.77081 0.80804 0.0
C381 C 0.48715 0.7713 0.83325 0.0
C382 C 0.42253 0.79379 0.79841 0.0
C383 C 0.43216 0.83305 0.80684 0.0
C384 C 0.46087 0.78749 0.8261 0.0
C385 C 0.45149 0.8458 0.82626 0.0
C386 C 0.5187 0.79428 0.84807 0.0
C387 C 0.51438 0.72669 0.82617 0.0
N388 N 0.46611 0.8236 0.83496 0.0
N389 N 0.48552 0.73773 0.82311 0.0
H390 H 0.8494 0.59362 0.19204 0.0
H391 H 0.72855 0.37209 0.14181 0.0
H392 H 0.89698 0.50989 0.19156 0.0
H393 H 0.66958 0.44101 0.16175 0.0
H394 H 0.78695 0.41676 0.16507 0.0
H395 H 0.78026 0.53473 0.18659 0.0
C396 C 0.84517 0.56279 0.19127 0.0
C397 C 0.879 0.55666 0.19175 0.0
C398 C 0.76074 0.42141 0.16478 0.0
C399 C 0.80029 0.48923 0.18512 0.0
C400 C 0.72749 0.39596 0.15146 0.0
C401 C 0.69458 0.40336 0.14959 0.0
C402 C 0.76138 0.45503 0.17586 0.0
C403 C 0.69441 0.43432 0.16263 0.0
C404 C 0.80571 0.52913 0.1882 0.0
C405 C 0.8718 0.51606 0.19103 0.0
N406 N 0.72779 0.45969 0.17484 0.0
N407 N 0.83333 0.48389 0.18719 0.0
H408 H 0.33824 0.88142 0.53768 0.0
H409 H 0.24055 0.65553 0.48861 0.0
H410 H 0.40583 0.83159 0.50614 0.0
H411 H 0.17413 0.70575 0.52107 0.0
H412 H 0.30452 0.71211 0.50405 0.0
H413 H 0.28249 0.81145 0.54099 0.0
C414 C 0.3416 0.85565 0.5318 0.0
C415 C 0.37608 0.86216 0.52116 0.0
C416 C 0.27586 0.71016 0.50821 0.0
C417 C 0.31239 0.7822 0.52457 0.0
C418 C 0.23936 0.67791 0.49936 0.0
C419 C 0.2021 0.67665 0.50306 0.0
C420 C 0.27499 0.74156 0.5206 0.0
C421 C 0.20215 0.7057 0.51755 0.0
C422 C 0.30988 0.81571 0.53374 0.0
C423 C 0.37949 0.82786 0.51426 0.0
N424 N 0.23813 0.73754 0.5254 0.0
N425 N 0.34755 0.78929 0.51565 0.0
H426 H 0.56213 0.31906 0.87645 0.0
H427 H 0.68155 0.21583 0.83039 0.0
H428 H 0.67612 0.38269 0.84659 0.0
H429 H 0.5641 0.15247 0.85729 0.0
H430 H 0.69369 0.28012 0.84834 0.0
H431 H 0.57676 0.26395 0.8821 0.0
C432 C 0.59087 0.32209 0.87162 0.0
C433 C 0.6172 0.35466 0.86031 0.0
C434 C 0.66578 0.25192 0.85079 0.0
C435 C 0.63354 0.29115 0.86621 0.0
C436 C 0.65879 0.21523 0.84048 0.0
C437 C 0.62107 0.17906 0.8417 0.0
C438 C 0.63454 0.25237 0.8621 0.0
C439 C 0.59332 0.17971 0.85555 0.0
C440 C 0.59915 0.29044 0.87477 0.0
C441 C 0.65418 0.35716 0.85464 0.0
N442 N 0.60012 0.21603 0.86477 0.0
N443 N 0.66076 0.32522 0.85715 0.0
H444 H 0.67927 0.99126 0.50193 0.0
H445 H 0.5433 0.74626 0.51747 0.0
H446 H 0.54754 0.92497 0.49695 0.0
H447 H 0.67377 0.80667 0.51118 0.0
H448 H 0.54478 0.81102 0.51167 0.0
H449 H 0.67831 0.92608 0.50672 0.0
C450 C 0.64997 0.96322 0.50177 0.0
C451 C 0.61344 0.96487 0.49883 0.0
C452 C 0.57323 0.81036 0.51152 0.0
C453 C 0.61215 0.88799 0.50475 0.0
C454 C 0.57253 0.7729 0.51499 0.0
C455 C 0.60851 0.76952 0.51502 0.0
C456 C 0.61029 0.84637 0.50816 0.0
C457 C 0.64488 0.80639 0.51125 0.0
C458 C 0.6495 0.92554 0.50454 0.0
C459 C 0.57677 0.92634 0.49896 0.0
N460 N 0.64479 0.84255 0.50819 0.0
N461 N 0.57715 0.89032 0.50193 0.0
H462 H 0.70456 0.51107 0.83781 0.0
H463 H 0.95503 0.63859 0.84211 0.0
H464 H 0.77427 0.64116 0.83086 0.0
H465 H 0.88445 0.51045 0.85347 0.0
H466 H 0.8907 0.63968 0.83676 0.0
H467 H 0.76916 0.51001 0.84242 0.0
C468 C 0.73322 0.53957 0.83713 0.0
C469 C 0.73264 0.57628 0.83379 0.0
C470 C 0.88912 0.61121 0.84042 0.0
C471 C 0.80908 0.5752 0.83923 0.0
C472 C 0.92641 0.61041 0.84341 0.0
C473 C 0.92689 0.57438 0.84847 0.0
C474 C 0.85054 0.57566 0.84224 0.0
C475 C 0.88726 0.5395 0.85 0.0
C476 C 0.7706 0.53891 0.83985 0.0
C477 C 0.77199 0.61185 0.8333 0.0
N478 N 0.85166 0.54108 0.84693 0.0
N479 N 0.80779 0.61035 0.83591 0.0
H480 H 0.26071 0.68584 0.1742 0.0
H481 H 0.38398 0.93724 0.17557 0.0
H482 H 0.20031 0.75508 0.16294 0.0
H483 H 0.44315 0.86623 0.18586 0.0
H484 H 0.31804 0.87263 0.17062 0.0
H485 H 0.32661 0.7508 0.17832 0.0
C486 C 0.26087 0.71445 0.17251 0.0
C487 C 0.22348 0.71358 0.16809 0.0
C488 C 0.34541 0.87105 0.17398 0.0
C489 C 0.30139 0.79058 0.17301 0.0
C490 C 0.38384 0.90852 0.17674 0.0
C491 C 0.42109 0.90908 0.18138 0.0
C492 C 0.34268 0.8323 0.17571 0.0
C493 C 0.41654 0.86921 0.18276 0.0
C494 C 0.29909 0.75207 0.17492 0.0
C495 C 0.22738 0.75298 0.16626 0.0
N496 N 0.379 0.83346 0.18001 0.0
N497 N 0.26483 0.78903 0.16869 0.0
H498 H 0.6783 0.23774 0.50084 0.0
H499 H 0.54787 0.35843 0.51061 0.0
H500 H 0.54668 0.17341 0.50135 0.0
H501 H 0.67931 0.41942 0.51831 0.0
H502 H 0.54637 0.29198 0.50534 0.0
H503 H 0.67849 0.30361 0.5051 0.0
C504 C 0.64924 0.23703 0.50184 0.0
C505 C 0.61238 0.19863 0.50064 0.0
C506 C 0.57563 0.31985 0.50817 0.0
C507 C 0.61261 0.27638 0.5059 0.0
C508 C 0.57663 0.35843 0.51109 0.0
C509 C 0.61381 0.39617 0.5151 0.0
C510 C 0.61211 0.31767 0.50893 0.0
C511 C 0.64953 0.39222 0.51564 0.0
C512 C 0.64948 0.27519 0.50441 0.0
C513 C 0.57611 0.20136 0.50214 0.0
N514 N 0.64772 0.35452 0.5126 0.0
N515 N 0.5772 0.23887 0.50463 0.0
H516 H 0.52832 0.64162 0.8469 0.0
H517 H 0.27828 0.52065 0.83409 0.0
H518 H 0.45819 0.51643 0.82124 0.0
H519 H 0.35003 0.64367 0.8624 0.0
H520 H 0.34212 0.51899 0.82824 0.0
H521 H 0.46419 0.64315 0.85158 0.0
C522 C 0.49965 0.61423 0.84217 0.0
C523 C 0.50001 0.57874 0.83359 0.0
C524 C 0.34405 0.54644 0.83575 0.0
C525 C 0.42397 0.5804 0.83913 0.0
C526 C 0.30706 0.5476 0.83906 0.0
C527 C 0.30703 0.58231 0.84903 0.0
C528 C 0.38277 0.58033 0.8422 0.0
C529 C 0.3468 0.61559 0.85503 0.0
C530 C 0.46251 0.61519 0.84492 0.0
C531 C 0.46063 0.54472 0.82789 0.0
N532 N 0.38208 0.6137 0.85157 0.0
N533 N 0.42501 0.54644 0.83074 0.0
H534 H 0.94831 0.50739 0.16646 0.0
H535 H 0.84039 0.26428 0.18845 0.0
H536 H 1.01461 0.44217 0.17262 0.0
H537 H 0.76917 0.32272 0.17686 0.0
H538 H 0.90293 0.329 0.18351 0.0
H539 H 0.88368 0.44261 0.17066 0.0
C540 C 0.94973 0.47976 0.1687 0.0
C541 C 0.98837 0.4816 0.16906 0.0
C542 C 0.87377 0.32801 0.18202 0.0
C543 C 0.91226 0.40523 0.17426 0.0
C544 C 0.83727 0.29045 0.18502 0.0
C545 C 0.79769 0.28633 0.18337 0.0
C546 C 0.87242 0.36359 0.17731 0.0
C547 C 0.79789 0.32284 0.17831 0.0
C548 C 0.9123 0.44232 0.17114 0.0
C549 C 0.98656 0.44352 0.17209 0.0
N550 N 0.83392 0.35914 0.17564 0.0
N551 N 0.95001 0.40789 0.17458 0.0
H552 H 0.12024 0.65649 0.09744 0.0
H553 H 0.08003 0.52027 0.99347 0.0
H554 H 0.10751 0.5355 0.09581 0.0
H555 H 0.15394 0.65252 0.99686 0.0
H556 H 0.07968 0.52328 0.03065 0.0
H557 H 0.12278 0.65392 0.06038 0.0
C558 C 0.1179 0.62934 0.08933 0.0
C559 C 0.11374 0.59619 0.09988 0.0
C560 C 0.09602 0.55162 0.02325 0.0
C561 C 0.11588 0.59281 0.05726 0.0
C562 C 0.09608 0.54995 0.00203 0.0
C563 C 0.11713 0.58619 0.99199 0.0
C564 C 0.11627 0.5899 0.03462 0.0
C565 C 0.13756 0.6238 0.00394 0.0
C566 C 0.11952 0.62799 0.06815 0.0
C567 C 0.11099 0.5619 0.08841 0.0
N568 N 0.13627 0.62472 0.02454 0.0
N569 N 0.11166 0.56092 0.06779 0.0
H570 H 0.68906 0.12552 0.43154 0.0
H571 H 0.56942 1.03247 0.32409 0.0
H572 H 0.5585 0.04405 0.42487 0.0
H573 H 0.67917 0.15173 0.33096 0.0
H574 H 0.57018 1.02962 0.36065 0.0
H575 H 0.69133 0.12857 0.39447 0.0
C576 C 0.66097 0.10802 0.42232 0.0
C577 C 0.62351 0.08456 0.43143 0.0
C578 C 0.59411 0.05641 0.35413 0.0
C579 C 0.626 0.08756 0.38899 0.0
C580 C 0.59359 0.05836 0.33311 0.0
C581 C 0.62393 0.09278 0.32397 0.0
C582 C 0.62562 0.08862 0.36643 0.0
C583 C 0.65519 0.1243 0.33694 0.0
C584 C 0.66226 0.10998 0.40118 0.0
C585 C 0.58806 0.06275 0.41863 0.0
N586 N 0.65525 0.12142 0.3574 0.0
N587 N 0.59023 0.06457 0.39819 0.0
H588 H 0.57464 0.52228 0.75916 0.0
H589 H 0.65151 0.66159 0.66444 0.0
H590 H 0.65022 0.65457 0.76666 0.0
H591 H 0.57723 0.52912 0.65954 0.0
H592 H 0.65045 0.66099 0.70147 0.0
H593 H 0.5746 0.52567 0.7227 0.0
C594 C 0.59126 0.55223 0.75322 0.0
C595 C 0.61258 0.58822 0.76629 0.0
C596 C 0.6344 0.63208 0.69227 0.0
C597 C 0.61266 0.59224 0.72383 0.0
C598 C 0.63477 0.63237 0.67105 0.0
C599 C 0.6146 0.59531 0.65859 0.0
C600 C 0.61356 0.59447 0.70126 0.0
C601 C 0.5939 0.55849 0.66829 0.0
C602 C 0.59121 0.55409 0.73222 0.0
C603 C 0.63334 0.62595 0.75733 0.0
N604 N 0.59396 0.55908 0.68886 0.0
N605 N 0.63294 0.62697 0.73671 0.0
H606 H 0.53603 1.02168 0.55173 0.0
H607 H 0.62705 0.09896 0.66512 0.0
H608 H 0.65548 0.12778 0.56583 0.0
H609 H 0.50024 1.01136 0.64902 0.0
H610 H 0.63971 0.10926 0.6292 0.0
H611 H 0.5243 1.01616 0.58761 0.0
C612 C 0.5599 0.04391 0.56239 0.0
C613 C 0.5969 0.07522 0.55575 0.0
C614 C 0.60913 0.08791 0.63359 0.0
C615 C 0.58353 0.06895 0.5971 0.0
C616 C 0.60181 0.08211 0.65408 0.0
C617 C 0.56254 0.05399 0.66013 0.0
C618 C 0.57701 0.06529 0.61905 0.0
C619 C 0.53117 1.03269 0.6451 0.0
C620 C 0.55307 0.04078 0.58294 0.0
C621 C 0.62652 0.1032 0.57032 0.0
N622 N 0.53914 1.03867 0.62531 0.0
N623 N 0.61927 0.09928 0.59038 0.0
H624 H 0.56671 0.49509 0.88223 0.0
H625 H 0.67662 0.51059 0.98516 0.0
H626 H 0.68712 0.59996 0.89599 0.0
H627 H 0.60205 0.39516 0.94994 0.0
H628 H 0.68157 0.5472 0.95495 0.0
H629 H 0.57664 0.46153 0.90998 0.0
C630 C 0.59527 0.51129 0.89117 0.0
C631 C 0.62626 0.55041 0.88665 0.0
C632 C 0.66493 0.51385 0.95382 0.0
C633 C 0.63759 0.5119 0.9188 0.0
C634 C 0.66228 0.49289 0.97098 0.0
C635 C 0.63821 0.44973 0.97014 0.0
C636 C 0.64286 0.49138 0.93595 0.0
C637 C 0.62005 0.42845 0.9514 0.0
C638 C 0.601 0.49186 0.90695 0.0
C639 C 0.66245 0.56981 0.89897 0.0
N640 N 0.62207 0.4495 0.93517 0.0
N641 N 0.66707 0.55044 0.91469 0.0
H642 H 0.10764 0.6593 0.23028 0.0
H643 H 1.01534 0.52095 0.32338 0.0
H644 H 0.07377 0.53086 0.22715 0.0
H645 H 0.08779 0.65349 0.33 0.0
H646 H 1.0285 0.52263 0.28712 0.0
H647 H 0.09305 0.65646 0.26612 0.0
C648 C 0.09725 0.63051 0.23715 0.0
C649 C 0.09214 0.59531 0.22574 0.0
C650 C 1.04148 0.55129 0.29654 0.0
C651 C 0.07491 0.59176 0.26672 0.0
C652 C 1.03374 0.55036 0.31714 0.0
C653 C 1.05064 0.58713 0.32963 0.0
C654 C 0.06574 0.58931 0.28841 0.0
C655 C 0.07454 0.62443 0.32089 0.0
C656 C 0.08897 0.62894 0.25761 0.0
C657 C 0.07848 0.55881 0.23543 0.0
N658 N 0.08127 0.62458 0.30081 0.0
N659 N 0.07011 0.5579 0.25538 0.0
loop_
_geom_bond_atom_site_label_1
_geom_bond_atom_site_label_2
_geom_bond_distance
_geom_bond_site_symmetry_2
_ccdc_geom_bond_type
Tb0 C9 2.764 1_455 S
Tb0 O10 2.325 1_455 S
Tb0 O13 2.303 . S
Tb0 O17 2.322 . S
Tb0 O18 2.349 . S
Tb0 O21 2.415 1_455 S
Tb0 O22 2.399 1_455 S
Tb1 O11 2.322 . S
Tb1 O12 2.349 . S
Tb1 O14 2.415 . S
Tb1 O15 2.399 . S
Tb1 O16 2.325 . S
Tb1 O19 2.303 . S
Tb1 C30 2.764 . S
C2 O18 1.261 . S
C2 O19 1.257 . S
C3 C6 1.358 . S
C3 C7 1.332 . S
C3 C9 1.504 . S
C4 C5 1.373 . S
C4 C8 1.308 . S
C5 C4 1.373 . S
C5 C6 1.429 . S
C5 H32 0.932 . S
C6 C3 1.358 . S
C6 C5 1.429 . S
C6 H33 0.930 . S
C7 C3 1.332 . S
C7 C8 1.394 . S
C7 H34 0.932 . S
C8 C4 1.308 . S
C8 C7 1.394 . S
C8 H35 0.929 . S
C9 Tb0 2.764 1_655 S
C9 C3 1.504 . S
C9 O21 1.239 . S
C9 O22 1.263 . S
O10 Tb0 2.325 1_655 S
O10 C20 1.236 . S
O11 Tb1 2.322 . S
O11 C20 1.257 1_455 S
O12 Tb1 2.349 . S
O12 C23 1.261 . S
O13 Tb0 2.303 . S
O13 C23 1.257 . S
O14 Tb1 2.415 . S
O14 C30 1.239 . S
O15 Tb1 2.399 . S
O15 C30 1.263 . S
O16 Tb1 2.325 . S
O16 C31 1.236 . S
O17 Tb0 2.322 . S
O17 C31 1.257 . S
O18 Tb0 2.349 . S
O18 C2 1.261 . S
O19 Tb1 2.303 . S
O19 C2 1.257 . S
C20 O10 1.236 . S
C20 O11 1.257 1_655 S
O21 Tb0 2.415 1_655 S
O21 C9 1.239 . S
O22 Tb0 2.399 1_655 S
O22 C9 1.263 . S
C23 O12 1.261 . S
C23 O13 1.257 . S
C24 C27 1.358 . S
C24 C28 1.332 . S
C24 C30 1.504 . S
C25 C26 1.373 . S
C25 C29 1.308 . S
C26 C25 1.373 . S
C26 C27 1.429 . S
C26 H36 0.932 . S
C27 C24 1.358 . S
C27 C26 1.429 . S
C27 H37 0.930 . S
C28 C24 1.332 . S
C28 C29 1.394 . S
C28 H38 0.932 . S
C29 C25 1.308 . S
C29 C28 1.394 . S
C29 H39 0.929 . S
C30 Tb1 2.764 . S
C30 O14 1.239 . S
C30 O15 1.263 . S
C30 C24 1.504 . S
C31 O16 1.236 . S
C31 O17 1.257 . S
H32 C5 0.932 . S
H33 C6 0.930 . S
H34 C7 0.932 . S
H35 C8 0.929 . S
H36 C26 0.932 . S
H37 C27 0.930 . S
H38 C28 0.932 . S
H39 C29 0.929 . S
Tb40 C49 2.764 . S
Tb40 O50 2.325 . S
Tb40 O53 2.303 1_565 S
Tb40 O57 2.322 1_565 S
Tb40 O58 2.349 1_565 S
Tb40 O61 2.415 . S
Tb40 O62 2.399 . S
Tb41 O51 2.322 1_545 S
Tb41 O52 2.349 . S
Tb41 O54 2.415 . S
Tb41 O55 2.399 . S
Tb41 O56 2.325 . S
Tb41 O59 2.303 . S
Tb41 C70 2.764 . S
C42 O58 1.261 . S
C42 O59 1.257 . S
C43 C46 1.358 . S
C43 C47 1.332 . S
C43 C49 1.504 . S
C44 C45 1.373 . S
C44 C48 1.308 . S
C45 C44 1.373 . S
C45 C46 1.429 . S
C45 H72 0.932 . S
C46 C43 1.358 . S
C46 C45 1.429 . S
C46 H73 0.930 . S
C47 C43 1.332 . S
C47 C48 1.394 . S
C47 H74 0.932 . S
C48 C44 1.308 . S
C48 C47 1.394 . S
C48 H75 0.929 . S
C49 Tb40 2.764 . S
C49 C43 1.504 . S
C49 O61 1.239 . S
C49 O62 1.263 . S
O50 Tb40 2.325 . S
O50 C60 1.236 . S
O51 Tb41 2.322 1_565 S
O51 C60 1.257 . S
O52 Tb41 2.349 . S
O52 C63 1.261 . S
O53 Tb40 2.303 1_545 S
O53 C63 1.257 . S
O54 Tb41 2.415 . S
O54 C70 1.239 . S
O55 Tb41 2.399 . S
O55 C70 1.263 . S
O56 Tb41 2.325 . S
O56 C71 1.236 . S
O57 Tb40 2.322 1_545 S
O57 C71 1.257 . S
O58 Tb40 2.349 1_545 S
O58 C42 1.261 . S
O59 Tb41 2.303 . S
O59 C42 1.257 . S
C60 O50 1.236 . S
C60 O51 1.257 . S
O61 Tb40 2.415 . S
O61 C49 1.239 . S
O62 Tb40 2.399 . S
O62 C49 1.263 . S
C63 O52 1.261 . S
C63 O53 1.257 . S
C64 C67 1.358 . S
C64 C68 1.332 . S
C64 C70 1.504 . S
C65 C66 1.373 . S
C65 C69 1.308 . S
C66 C65 1.373 . S
C66 C67 1.429 . S
C66 H76 0.932 . S
C67 C64 1.358 . S
C67 C66 1.429 . S
C67 H77 0.930 . S
C68 C64 1.332 . S
C68 C69 1.394 . S
C68 H78 0.932 . S
C69 C65 1.308 . S
C69 C68 1.394 . S
C69 H79 0.929 . S
C70 Tb41 2.764 . S
C70 O54 1.239 . S
C70 O55 1.263 . S
C70 C64 1.504 . S
C71 O56 1.236 . S
C71 O57 1.257 . S
H72 C45 0.932 . S
H73 C46 0.930 . S
H74 C47 0.932 . S
H75 C48 0.929 . S
H76 C66 0.932 . S
H77 C67 0.930 . S
H78 C68 0.932 . S
H79 C69 0.929 . S
Tb80 C89 2.764 . S
Tb80 O90 2.325 . S
Tb80 O93 2.303 . S
Tb80 O97 2.322 . S
Tb80 O98 2.349 . S
Tb80 O101 2.415 . S
Tb80 O102 2.399 . S
Tb81 O91 2.322 . S
Tb81 O92 2.349 . S
Tb81 O94 2.415 . S
Tb81 O95 2.399 . S
Tb81 O96 2.325 . S
Tb81 O99 2.303 . S
Tb81 C110 2.764 . S
C82 O98 1.261 . S
C82 O99 1.257 . S
C83 C86 1.358 . S
C83 C87 1.332 . S
C83 C89 1.504 . S
C84 C85 1.373 . S
C84 C88 1.308 . S
C85 C84 1.373 . S
C85 C86 1.429 . S
C85 H112 0.932 . S
C86 C83 1.358 . S
C86 C85 1.429 . S
C86 H113 0.930 . S
C87 C83 1.332 . S
C87 C88 1.394 . S
C87 H114 0.932 . S
C88 C84 1.308 . S
C88 C87 1.394 . S
C88 H115 0.929 . S
C89 Tb80 2.764 . S
C89 C83 1.504 . S
C89 O101 1.239 . S
C89 O102 1.263 . S
O90 Tb80 2.325 . S
O90 C100 1.236 . S
O91 Tb81 2.322 . S
O91 C100 1.257 . S
O92 Tb81 2.349 . S
O92 C103 1.261 . S
O93 Tb80 2.303 . S
O93 C103 1.257 . S
O94 Tb81 2.415 . S
O94 C110 1.239 . S
O95 Tb81 2.399 . S
O95 C110 1.263 . S
O96 Tb81 2.325 . S
O96 C111 1.236 . S
O97 Tb80 2.322 . S
O97 C111 1.257 . S
O98 Tb80 2.349 . S
O98 C82 1.261 . S
O99 Tb81 2.303 . S
O99 C82 1.257 . S
C100 O90 1.236 . S
C100 O91 1.257 . S
O101 Tb80 2.415 . S
O101 C89 1.239 . S
O102 Tb80 2.399 . S
O102 C89 1.263 . S
C103 O92 1.261 . S
C103 O93 1.257 . S
C104 C107 1.358 . S
C104 C108 1.332 . S
C104 C110 1.504 . S
C105 C106 1.373 . S
C105 C109 1.308 . S
C106 C105 1.373 . S
C106 C107 1.429 . S
C106 H116 0.932 . S
C107 C104 1.358 . S
C107 C106 1.429 . S
C107 H117 0.930 . S
C108 C104 1.332 . S
C108 C109 1.394 . S
C108 H118 0.932 . S
C109 C105 1.308 . S
C109 C108 1.394 . S
C109 H119 0.929 . S
C110 Tb81 2.764 . S
C110 O94 1.239 . S
C110 O95 1.263 . S
C110 C104 1.504 . S
C111 O96 1.236 . S
C111 O97 1.257 . S
H112 C85 0.932 . S
H113 C86 0.930 . S
H114 C87 0.932 . S
H115 C88 0.929 . S
H116 C106 0.932 . S
H117 C107 0.930 . S
H118 C108 0.932 . S
H119 C109 0.929 . S
C120 C121 1.384 . S
C120 H133 0.947 . S
C120 C155 1.382 . S
C121 C120 1.384 . S
C121 C122 1.378 . S
C122 C121 1.378 . S
C122 C123 1.378 . S
C122 H134 0.952 . S
C123 C122 1.378 . S
C123 H135 0.950 . S
C123 C154 1.383 . S
H124 C143 0.947 . S
H125 C144 0.946 . S
H126 C146 0.953 . S
H127 C147 0.945 . S
H128 C149 0.952 . S
H129 C150 0.949 . S
H130 C152 0.950 1_565 S
H131 C153 0.948 . S
H132 C155 0.951 . S
H133 C120 0.947 . S
H134 C122 0.952 . S
H135 C123 0.950 . S
N136 C139 1.382 . S
N136 C141 1.363 1_545 S
N137 C139 1.371 . S
N137 C140 1.372 . S
N138 C140 1.361 1_565 S
N138 C141 1.377 . S
C139 N136 1.382 . S
C139 N137 1.371 . S
C139 C142 1.480 . S
C140 N137 1.372 . S
C140 N138 1.361 1_545 S
C140 C148 1.457 . S
C141 N136 1.363 1_565 S
C141 N138 1.377 . S
C141 C154 1.479 . S
C142 C139 1.480 . S
C142 C143 1.383 . S
C142 C147 1.385 . S
C143 H124 0.947 . S
C143 C142 1.383 . S
C143 C144 1.388 . S
C144 H125 0.946 . S
C144 C143 1.388 . S
C144 C145 1.384 . S
C145 C144 1.384 . S
C145 C146 1.377 . S
C146 H126 0.953 . S
C146 C145 1.377 . S
C146 C147 1.369 . S
C147 H127 0.945 . S
C147 C142 1.385 . S
C147 C146 1.369 . S
C148 C140 1.457 . S
C148 C149 1.372 . S
C148 C153 1.364 1_545 S
C149 H128 0.952 . S
C149 C148 1.372 . S
C149 C150 1.389 . S
C150 H129 0.949 . S
C150 C149 1.389 . S
C150 C151 1.387 . S
C151 C150 1.387 . S
C151 C152 1.372 . S
C152 H130 0.950 1_545 S
C152 C151 1.372 . S
C152 C153 1.379 1_545 S
C153 H131 0.948 . S
C153 C148 1.364 1_565 S
C153 C152 1.379 1_565 S
C154 C123 1.383 . S
C154 C141 1.479 . S
C154 C155 1.398 . S
C155 C120 1.382 . S
C155 H132 0.951 . S
C155 C154 1.398 . S
C156 C157 1.384 . S
C156 H169 0.947 . S
C156 C191 1.382 . S
C157 C156 1.384 . S
C157 C158 1.378 . S
C158 C157 1.378 . S
C158 C159 1.378 . S
C158 H170 0.952 . S
C159 C158 1.378 . S
C159 H171 0.950 . S
C159 C190 1.383 . S
H160 C179 0.947 . S
H161 C180 0.946 . S
H162 C182 0.953 . S
H163 C183 0.945 . S
H164 C185 0.952 . S
H165 C186 0.949 . S
H166 C188 0.950 . S
H167 C189 0.948 . S
H168 C191 0.951 . S
H169 C156 0.947 . S
H170 C158 0.952 . S
H171 C159 0.950 . S
N172 C175 1.382 . S
N172 C177 1.363 . S
N173 C175 1.371 . S
N173 C176 1.372 . S
N174 C176 1.361 . S
N174 C177 1.377 . S
C175 N172 1.382 . S
C175 N173 1.371 . S
C175 C178 1.480 . S
C176 N173 1.372 . S
C176 N174 1.361 . S
C176 C184 1.457 . S
C177 N172 1.363 . S
C177 N174 1.377 . S
C177 C190 1.479 . S
C178 C175 1.480 . S
C178 C179 1.383 . S
C178 C183 1.385 . S
C179 H160 0.947 . S
C179 C178 1.383 . S
C179 C180 1.388 . S
C180 H161 0.946 . S
C180 C179 1.388 . S
C180 C181 1.384 . S
C181 C180 1.384 . S
C181 C182 1.377 . S
C182 H162 0.953 . S
C182 C181 1.377 . S
C182 C183 1.369 . S
C183 H163 0.945 . S
C183 C178 1.385 . S
C183 C182 1.369 . S
C184 C176 1.457 . S
C184 C185 1.372 . S
C184 C189 1.364 . S
C185 H164 0.952 . S
C185 C184 1.372 . S
C185 C186 1.389 . S
C186 H165 0.949 . S
C186 C185 1.389 . S
C186 C187 1.387 . S
C187 C186 1.387 . S
C187 C188 1.372 . S
C188 H166 0.950 . S
C188 C187 1.372 . S
C188 C189 1.379 . S
C189 H167 0.948 . S
C189 C184 1.364 . S
C189 C188 1.379 . S
C190 C159 1.383 . S
C190 C177 1.479 . S
C190 C191 1.398 . S
C191 C156 1.382 . S
C191 H168 0.951 . S
C191 C190 1.398 . S
C192 C193 1.384 . S
C192 H205 0.947 . S
C192 C227 1.382 . S
C193 C192 1.384 . S
C193 C194 1.378 . S
C194 C193 1.378 . S
C194 C195 1.378 . S
C194 H206 0.952 . S
C195 C194 1.378 . S
C195 H207 0.950 1_655 S
C195 C226 1.383 1_655 S
H196 C215 0.947 . S
H197 C216 0.946 . S
H198 C218 0.953 . S
H199 C219 0.945 . S
H200 C221 0.952 . S
H201 C222 0.949 . S
H202 C224 0.950 . S
H203 C225 0.948 . S
H204 C227 0.951 . S
H205 C192 0.947 . S
H206 C194 0.952 . S
H207 C195 0.950 1_455 S
N208 C211 1.382 . S
N208 C213 1.363 . S
N209 C211 1.371 . S
N209 C212 1.372 . S
N210 C212 1.361 . S
N210 C213 1.377 . S
C211 N208 1.382 . S
C211 N209 1.371 . S
C211 C214 1.480 . S
C212 N209 1.372 . S
C212 N210 1.361 . S
C212 C220 1.457 . S
C213 N208 1.363 . S
C213 N210 1.377 . S
C213 C226 1.477 . S
C214 C211 1.480 . S
C214 C215 1.383 . S
C214 C219 1.385 . S
C215 H196 0.947 . S
C215 C214 1.383 . S
C215 C216 1.388 . S
C216 H197 0.946 . S
C216 C215 1.388 . S
C216 C217 1.384 . S
C217 C216 1.384 . S
C217 C218 1.377 . S
C218 H198 0.953 . S
C218 C217 1.377 . S
C218 C219 1.369 . S
C219 H199 0.945 . S
C219 C214 1.385 . S
C219 C218 1.369 . S
C220 C212 1.457 . S
C220 C221 1.372 . S
C220 C225 1.364 . S
C221 H200 0.952 . S
C221 C220 1.372 . S
C221 C222 1.389 . S
C222 H201 0.949 . S
C222 C221 1.389 . S
C222 C223 1.387 . S
C223 C222 1.387 . S
C223 C224 1.372 . S
C224 H202 0.950 . S
C224 C223 1.372 . S
C224 C225 1.379 . S
C225 H203 0.948 . S
C225 C220 1.364 . S
C225 C224 1.379 . S
C226 C195 1.383 1_455 S
C226 C213 1.477 . S
C226 C227 1.400 1_455 S
C227 C192 1.382 . S
C227 H204 0.951 . S
C227 C226 1.400 1_655 S
C228 C229 1.384 . S
C228 H241 0.947 . S
C228 C263 1.382 . S
C229 C228 1.384 . S
C229 C230 1.378 . S
C230 C229 1.378 . S
C230 C231 1.378 . S
C230 H242 0.952 . S
C231 C230 1.378 . S
C231 H243 0.950 . S
C231 C262 1.383 . S
H232 C251 0.947 . S
H233 C252 0.946 . S
H234 C254 0.953 . S
H235 C255 0.945 . S
H236 C257 0.952 . S
H237 C258 0.949 . S
H238 C260 0.950 . S
H239 C261 0.948 . S
H240 C263 0.951 . S
H241 C228 0.947 . S
H242 C230 0.952 . S
H243 C231 0.950 . S
N244 C247 1.382 1_455 S
N244 C249 1.363 . S
N245 C247 1.371 . S
N245 C248 1.372 1_655 S
N246 C248 1.361 . S
N246 C249 1.377 . S
C247 N244 1.382 1_655 S
C247 N245 1.371 . S
C247 C250 1.480 . S
C248 N245 1.372 1_455 S
C248 N246 1.361 . S
C248 C256 1.457 . S
C249 N244 1.363 . S
C249 N246 1.377 . S
C249 C262 1.479 . S
C250 C247 1.480 . S
C250 C251 1.383 . S
C250 C255 1.385 . S
C251 H232 0.947 . S
C251 C250 1.383 . S
C251 C252 1.388 . S
C252 H233 0.946 . S
C252 C251 1.388 . S
C252 C253 1.384 . S
C253 C252 1.384 . S
C253 C254 1.377 . S
C254 H234 0.953 . S
C254 C253 1.377 . S
C254 C255 1.369 . S
C255 H235 0.945 . S
C255 C250 1.385 . S
C255 C254 1.369 . S
C256 C248 1.457 . S
C256 C257 1.372 1_455 S
C256 C261 1.364 . S
C257 H236 0.952 . S
C257 C256 1.372 1_655 S
C257 C258 1.389 . S
C258 H237 0.949 . S
C258 C257 1.389 . S
C258 C259 1.381 1_655 S
C259 C258 1.381 1_455 S
C259 C260 1.377 . S
C260 H238 0.950 . S
C260 C259 1.377 . S
C260 C261 1.379 . S
C261 H239 0.948 . S
C261 C256 1.364 . S
C261 C260 1.379 . S
C262 C231 1.383 . S
C262 C249 1.479 . S
C262 C263 1.398 . S
C263 C228 1.382 . S
C263 H240 0.951 . S
C263 C262 1.398 . S
C264 C265 1.384 . S
C264 H277 0.947 . S
C264 C299 1.382 . S
C265 C264 1.384 . S
C265 C266 1.378 . S
C266 C265 1.378 . S
C266 C267 1.378 . S
C266 H278 0.952 . S
C267 C266 1.378 . S
C267 H279 0.950 . S
C267 C298 1.383 . S
H268 C287 0.947 . S
H269 C288 0.946 . S
H270 C290 0.953 . S
H271 C291 0.945 . S
H272 C293 0.952 . S
H273 C294 0.949 . S
H274 C296 0.950 . S
H275 C297 0.948 . S
H276 C299 0.951 . S
H277 C264 0.947 . S
H278 C266 0.952 . S
H279 C267 0.950 . S
N280 C283 1.382 1_545 S
N280 C285 1.363 . S
N281 C283 1.371 . S
N281 C284 1.372 1_565 S
N282 C284 1.361 . S
N282 C285 1.377 . S
C283 N280 1.382 1_565 S
C283 N281 1.371 . S
C283 C286 1.480 . S
C284 N281 1.372 1_545 S
C284 N282 1.361 . S
C284 C292 1.457 . S
C285 N280 1.363 . S
C285 N282 1.377 . S
C285 C298 1.479 . S
C286 C283 1.480 . S
C286 C287 1.383 . S
C286 C291 1.385 . S
C287 H268 0.947 . S
C287 C286 1.383 . S
C287 C288 1.388 . S
C288 H269 0.946 . S
C288 C287 1.388 . S
C288 C289 1.384 . S
C289 C288 1.384 . S
C289 C290 1.377 . S
C290 H270 0.953 . S
C290 C289 1.377 . S
C290 C291 1.369 . S
C291 H271 0.945 . S
C291 C286 1.385 . S
C291 C290 1.369 . S
C292 C284 1.457 . S
C292 C293 1.372 1_545 S
C292 C297 1.364 . S
C293 H272 0.952 . S
C293 C292 1.372 1_565 S
C293 C294 1.389 . S
C294 H273 0.949 . S
C294 C293 1.389 . S
C294 C295 1.387 . S
C295 C294 1.387 . S
C295 C296 1.372 1_565 S
C296 H274 0.950 . S
C296 C295 1.372 1_545 S
C296 C297 1.379 . S
C297 H275 0.948 . S
C297 C292 1.364 . S
C297 C296 1.379 . S
C298 C267 1.383 . S
C298 C285 1.479 . S
C298 C299 1.398 . S
C299 C264 1.382 . S
C299 H276 0.951 . S
C299 C298 1.398 . S
C300 C301 1.384 . S
C300 H313 0.947 . S
C300 C335 1.382 . S
C301 C300 1.384 . S
C301 C302 1.378 . S
C302 C301 1.378 . S
C302 C303 1.378 . S
C302 H314 0.952 . S
C303 C302 1.378 . S
C303 H315 0.950 . S
C303 C334 1.383 . S
H304 C323 0.947 . S
H305 C324 0.946 . S
H306 C326 0.953 . S
H307 C327 0.945 . S
H308 C329 0.952 . S
H309 C330 0.949 . S
H310 C332 0.950 . S
H311 C333 0.948 . S
H312 C335 0.951 . S
H313 C300 0.947 . S
H314 C302 0.952 . S
H315 C303 0.950 . S
N316 C319 1.382 . S
N316 C321 1.363 . S
N317 C319 1.371 . S
N317 C320 1.372 . S
N318 C320 1.361 . S
N318 C321 1.377 . S
C319 N316 1.382 . S
C319 N317 1.371 . S
C319 C322 1.480 . S
C320 N317 1.372 . S
C320 N318 1.361 . S
C320 C328 1.457 . S
C321 N316 1.363 . S
C321 N318 1.377 . S
C321 C334 1.479 . S
C322 C319 1.480 . S
C322 C323 1.383 . S
C322 C327 1.385 . S
C323 H304 0.947 . S
C323 C322 1.383 . S
C323 C324 1.388 . S
C324 H305 0.946 . S
C324 C323 1.388 . S
C324 C325 1.384 . S
C325 C324 1.384 . S
C325 C326 1.377 . S
C326 H306 0.953 . S
C326 C325 1.377 . S
C326 C327 1.369 . S
C327 H307 0.945 . S
C327 C322 1.385 . S
C327 C326 1.369 . S
C328 C320 1.457 . S
C328 C329 1.372 . S
C328 C333 1.364 . S
C329 H308 0.952 . S
C329 C328 1.372 . S
C329 C330 1.389 . S
C330 H309 0.949 . S
C330 C329 1.389 . S
C330 C331 1.387 . S
C331 C330 1.387 . S
C331 C332 1.372 . S
C332 H310 0.950 . S
C332 C331 1.372 . S
C332 C333 1.379 . S
C333 H311 0.948 . S
C333 C328 1.364 . S
C333 C332 1.379 . S
C334 C303 1.383 . S
C334 C321 1.479 . S
C334 C335 1.398 . S
C335 C300 1.382 . S
C335 H312 0.951 . S
C335 C334 1.398 . S
H336 C342 0.930 . S
H337 C346 0.930 . S
H338 C351 0.929 . S
H339 C349 0.929 . S
H340 C344 0.929 . S
H341 C350 0.929 . S
C342 H336 0.930 . S
C342 C343 1.367 . S
C342 C350 1.378 . S
C343 C342 1.367 . S
C343 C351 1.433 . S
C344 H340 0.929 . S
C344 C346 1.378 . S
C344 C348 1.350 . S
C345 C348 1.463 . S
C345 C350 1.350 . S
C345 N353 1.427 . S
C346 H337 0.930 . S
C346 C344 1.378 . S
C346 C347 1.367 . S
C347 C346 1.367 . S
C347 C349 1.433 . S
C348 C344 1.350 . S
C348 C345 1.463 . S
C348 N352 1.427 . S
C349 H339 0.929 . S
C349 C347 1.433 . S
C349 N352 1.384 . S
C350 H341 0.929 . S
C350 C342 1.378 . S
C350 C345 1.350 . S
C351 H338 0.929 . S
C351 C343 1.433 . S
C351 N353 1.384 . S
N352 C348 1.427 . S
N352 C349 1.384 . S
N353 C345 1.427 . S
N353 C351 1.384 . S
H354 C360 0.930 . S
H355 C364 0.930 . S
H356 C369 0.929 . S
H357 C367 0.929 . S
H358 C362 0.929 . S
H359 C368 0.929 . S
C360 H354 0.930 . S
C360 C361 1.367 . S
C360 C368 1.378 . S
C361 C360 1.367 . S
C361 C369 1.433 . S
C362 H358 0.929 . S
C362 C364 1.378 . S
C362 C366 1.350 . S
C363 C366 1.463 . S
C363 C368 1.350 . S
C363 N371 1.427 . S
C364 H355 0.930 . S
C364 C362 1.378 . S
C364 C365 1.367 . S
C365 C364 1.367 . S
C365 C367 1.433 . S
C366 C362 1.350 . S
C366 C363 1.463 . S
C366 N370 1.427 . S
C367 H357 0.929 . S
C367 C365 1.433 . S
C367 N370 1.384 . S
C368 H359 0.929 . S
C368 C360 1.378 . S
C368 C363 1.350 . S
C369 H356 0.929 . S
C369 C361 1.433 . S
C369 N371 1.384 . S
N370 C366 1.427 . S
N370 C367 1.384 . S
N371 C363 1.427 . S
N371 C369 1.384 . S
H372 C378 0.930 . S
H373 C382 0.930 . S
H374 C387 0.929 . S
H375 C385 0.929 . S
H376 C380 0.929 . S
H377 C386 0.929 . S
C378 H372 0.930 . S
C378 C379 1.367 . S
C378 C386 1.378 . S
C379 C378 1.367 . S
C379 C387 1.433 . S
C380 H376 0.929 . S
C380 C382 1.378 . S
C380 C384 1.350 . S
C381 C384 1.463 . S
C381 C386 1.350 . S
C381 N389 1.427 . S
C382 H373 0.930 . S
C382 C380 1.378 . S
C382 C383 1.367 . S
C383 C382 1.367 . S
C383 C385 1.433 . S
C384 C380 1.350 . S
C384 C381 1.463 . S
C384 N388 1.427 . S
C385 H375 0.929 . S
C385 C383 1.433 . S
C385 N388 1.384 . S
C386 H377 0.929 . S
C386 C378 1.378 . S
C386 C381 1.350 . S
C387 H374 0.929 . S
C387 C379 1.433 . S
C387 N389 1.384 . S
N388 C384 1.427 . S
N388 C385 1.384 . S
N389 C381 1.427 . S
N389 C387 1.384 . S
H390 C396 0.930 . S
H391 C400 0.930 . S
H392 C405 0.929 . S
H393 C403 0.929 . S
H394 C398 0.929 . S
H395 C404 0.929 . S
C396 H390 0.930 . S
C396 C397 1.367 . S
C396 C404 1.378 . S
C397 C396 1.367 . S
C397 C405 1.433 . S
C398 H394 0.929 . S
C398 C400 1.378 . S
C398 C402 1.350 . S
C399 C402 1.463 . S
C399 C404 1.350 . S
C399 N407 1.427 . S
C400 H391 0.930 . S
C400 C398 1.378 . S
C400 C401 1.367 . S
C401 C400 1.367 . S
C401 C403 1.433 . S
C402 C398 1.350 . S
C402 C399 1.463 . S
C402 N406 1.427 . S
C403 H393 0.929 . S
C403 C401 1.433 . S
C403 N406 1.384 . S
C404 H395 0.929 . S
C404 C396 1.378 . S
C404 C399 1.350 . S
C405 H392 0.929 . S
C405 C397 1.433 . S
C405 N407 1.384 . S
N406 C402 1.427 . S
N406 C403 1.384 . S
N407 C399 1.427 . S
N407 C405 1.384 . S
H408 C414 0.930 . S
H409 C418 0.930 . S
H410 C423 0.929 . S
H411 C421 0.929 . S
H412 C416 0.929 . S
H413 C422 0.929 . S
C414 H408 0.930 . S
C414 C415 1.367 . S
C414 C422 1.378 . S
C415 C414 1.367 . S
C415 C423 1.433 . S
C416 H412 0.929 . S
C416 C418 1.378 . S
C416 C420 1.350 . S
C417 C420 1.463 . S
C417 C422 1.350 . S
C417 N425 1.427 . S
C418 H409 0.930 . S
C418 C416 1.378 . S
C418 C419 1.367 . S
C419 C418 1.367 . S
C419 C421 1.433 . S
C420 C416 1.350 . S
C420 C417 1.463 . S
C420 N424 1.427 . S
C421 H411 0.929 . S
C421 C419 1.433 . S
C421 N424 1.384 . S
C422 H413 0.929 . S
C422 C414 1.378 . S
C422 C417 1.350 . S
C423 H410 0.929 . S
C423 C415 1.433 . S
C423 N425 1.384 . S
N424 C420 1.427 . S
N424 C421 1.384 . S
N425 C417 1.427 . S
N425 C423 1.384 . S
H426 C432 0.930 . S
H427 C436 0.930 . S
H428 C441 0.929 . S
H429 C439 0.929 . S
H430 C434 0.929 . S
H431 C440 0.929 . S
C432 H426 0.930 . S
C432 C433 1.367 . S
C432 C440 1.378 . S
C433 C432 1.367 . S
C433 C441 1.433 . S
C434 H430 0.929 . S
C434 C436 1.378 . S
C434 C438 1.350 . S
C435 C438 1.463 . S
C435 C440 1.350 . S
C435 N443 1.427 . S
C436 H427 0.930 . S
C436 C434 1.378 . S
C436 C437 1.367 . S
C437 C436 1.367 . S
C437 C439 1.433 . S
C438 C434 1.350 . S
C438 C435 1.463 . S
C438 N442 1.427 . S
C439 H429 0.929 . S
C439 C437 1.433 . S
C439 N442 1.384 . S
C440 H431 0.929 . S
C440 C432 1.378 . S
C440 C435 1.350 . S
C441 H428 0.929 . S
C441 C433 1.433 . S
C441 N443 1.384 . S
N442 C438 1.427 . S
N442 C439 1.384 . S
N443 C435 1.427 . S
N443 C441 1.384 . S
H444 C450 0.930 . S
H445 C454 0.930 . S
H446 C459 0.929 . S
H447 C457 0.929 . S
H448 C452 0.929 . S
H449 C458 0.929 . S
C450 H444 0.930 . S
C450 C451 1.367 . S
C450 C458 1.378 . S
C451 C450 1.367 . S
C451 C459 1.433 . S
C452 H448 0.929 . S
C452 C454 1.378 . S
C452 C456 1.350 . S
C453 C456 1.463 . S
C453 C458 1.350 . S
C453 N461 1.427 . S
C454 H445 0.930 . S
C454 C452 1.378 . S
C454 C455 1.367 . S
C455 C454 1.367 . S
C455 C457 1.433 . S
C456 C452 1.350 . S
C456 C453 1.463 . S
C456 N460 1.427 . S
C457 H447 0.929 . S
C457 C455 1.433 . S
C457 N460 1.384 . S
C458 H449 0.929 . S
C458 C450 1.378 . S
C458 C453 1.350 . S
C459 H446 0.929 . S
C459 C451 1.433 . S
C459 N461 1.384 . S
N460 C456 1.427 . S
N460 C457 1.384 . S
N461 C453 1.427 . S
N461 C459 1.384 . S
H462 C468 0.930 . S
H463 C472 0.930 . S
H464 C477 0.929 . S
H465 C475 0.929 . S
H466 C470 0.929 . S
H467 C476 0.929 . S
C468 H462 0.930 . S
C468 C469 1.367 . S
C468 C476 1.378 . S
C469 C468 1.367 . S
C469 C477 1.433 . S
C470 H466 0.929 . S
C470 C472 1.378 . S
C470 C474 1.350 . S
C471 C474 1.463 . S
C471 C476 1.350 . S
C471 N479 1.427 . S
C472 H463 0.930 . S
C472 C470 1.378 . S
C472 C473 1.367 . S
C473 C472 1.367 . S
C473 C475 1.433 . S
C474 C470 1.350 . S
C474 C471 1.463 . S
C474 N478 1.427 . S
C475 H465 0.929 . S
C475 C473 1.433 . S
C475 N478 1.384 . S
C476 H467 0.929 . S
C476 C468 1.378 . S
C476 C471 1.350 . S
C477 H464 0.929 . S
C477 C469 1.433 . S
C477 N479 1.384 . S
N478 C474 1.427 . S
N478 C475 1.384 . S
N479 C471 1.427 . S
N479 C477 1.384 . S
H480 C486 0.930 . S
H481 C490 0.930 . S
H482 C495 0.929 . S
H483 C493 0.929 . S
H484 C488 0.929 . S
H485 C494 0.929 . S
C486 H480 0.930 . S
C486 C487 1.367 . S
C486 C494 1.378 . S
C487 C486 1.367 . S
C487 C495 1.433 . S
C488 H484 0.929 . S
C488 C490 1.378 . S
C488 C492 1.350 . S
C489 C492 1.463 . S
C489 C494 1.350 . S
C489 N497 1.427 . S
C490 H481 0.930 . S
C490 C488 1.378 . S
C490 C491 1.367 . S
C491 C490 1.367 . S
C491 C493 1.433 . S
C492 C488 1.350 . S
C492 C489 1.463 . S
C492 N496 1.427 . S
C493 H483 0.929 . S
C493 C491 1.433 . S
C493 N496 1.384 . S
C494 H485 0.929 . S
C494 C486 1.378 . S
C494 C489 1.350 . S
C495 H482 0.929 . S
C495 C487 1.433 . S
C495 N497 1.384 . S
N496 C492 1.427 . S
N496 C493 1.384 . S
N497 C489 1.427 . S
N497 C495 1.384 . S
H498 C504 0.930 . S
H499 C508 0.930 . S
H500 C513 0.929 . S
H501 C511 0.929 . S
H502 C506 0.929 . S
H503 C512 0.929 . S
C504 H498 0.930 . S
C504 C505 1.367 . S
C504 C512 1.378 . S
C505 C504 1.367 . S
C505 C513 1.433 . S
C506 H502 0.929 . S
C506 C508 1.378 . S
C506 C510 1.350 . S
C507 C510 1.463 . S
C507 C512 1.350 . S
C507 N515 1.427 . S
C508 H499 0.930 . S
C508 C506 1.378 . S
C508 C509 1.367 . S
C509 C508 1.367 . S
C509 C511 1.433 . S
C510 C506 1.350 . S
C510 C507 1.463 . S
C510 N514 1.427 . S
C511 H501 0.929 . S
C511 C509 1.433 . S
C511 N514 1.384 . S
C512 H503 0.929 . S
C512 C504 1.378 . S
C512 C507 1.350 . S
C513 H500 0.929 . S
C513 C505 1.433 . S
C513 N515 1.384 . S
N514 C510 1.427 . S
N514 C511 1.384 . S
N515 C507 1.427 . S
N515 C513 1.384 . S
H516 C522 0.930 . S
H517 C526 0.930 . S
H518 C531 0.929 . S
H519 C529 0.929 . S
H520 C524 0.929 . S
H521 C530 0.929 . S
C522 H516 0.930 . S
C522 C523 1.367 . S
C522 C530 1.378 . S
C523 C522 1.367 . S
C523 C531 1.433 . S
C524 H520 0.929 . S
C524 C526 1.378 . S
C524 C528 1.350 . S
C525 C528 1.463 . S
C525 C530 1.350 . S
C525 N533 1.427 . S
C526 H517 0.930 . S
C526 C524 1.378 . S
C526 C527 1.367 . S
C527 C526 1.367 . S
C527 C529 1.433 . S
C528 C524 1.350 . S
C528 C525 1.463 . S
C528 N532 1.427 . S
C529 H519 0.929 . S
C529 C527 1.433 . S
C529 N532 1.384 . S
C530 H521 0.929 . S
C530 C522 1.378 . S
C530 C525 1.350 . S
C531 H518 0.929 . S
C531 C523 1.433 . S
C531 N533 1.384 . S
N532 C528 1.427 . S
N532 C529 1.384 . S
N533 C525 1.427 . S
N533 C531 1.384 . S
H534 C540 0.930 . S
H535 C544 0.930 . S
H536 C549 0.929 . S
H537 C547 0.929 . S
H538 C542 0.929 . S
H539 C548 0.929 . S
C540 H534 0.930 . S
C540 C541 1.367 . S
C540 C548 1.378 . S
C541 C540 1.367 . S
C541 C549 1.433 . S
C542 H538 0.929 . S
C542 C544 1.378 . S
C542 C546 1.350 . S
C543 C546 1.463 . S
C543 C548 1.350 . S
C543 N551 1.427 . S
C544 H535 0.930 . S
C544 C542 1.378 . S
C544 C545 1.367 . S
C545 C544 1.367 . S
C545 C547 1.433 . S
C546 C542 1.350 . S
C546 C543 1.463 . S
C546 N550 1.427 . S
C547 H537 0.929 . S
C547 C545 1.433 . S
C547 N550 1.384 . S
C548 H539 0.929 . S
C548 C540 1.378 . S
C548 C543 1.350 . S
C549 H536 0.929 . S
C549 C541 1.433 . S
C549 N551 1.384 . S
N550 C546 1.427 . S
N550 C547 1.384 . S
N551 C543 1.427 . S
N551 C549 1.384 . S
H552 C558 0.930 . S
H553 C562 0.940 . S
H554 C567 0.929 1_655 S
H555 C565 0.929 . S
H556 C560 0.929 . S
H557 C566 0.929 . S
C558 H552 0.930 . S
C558 C559 1.367 . S
C558 C566 1.378 . S
C559 C558 1.367 . S
C559 C567 1.433 . S
C560 H556 0.929 . S
C560 C562 1.378 . S
C560 C564 1.350 . S
C561 C564 1.463 . S
C561 C566 1.350 . S
C561 N569 1.427 . S
C562 H553 0.940 . S
C562 C560 1.378 . S
C562 C563 1.367 . S
C563 C562 1.367 . S
C563 C565 1.433 . S
C564 C560 1.350 . S
C564 C561 1.463 . S
C564 N568 1.427 . S
C565 H555 0.929 . S
C565 C563 1.433 . S
C565 N568 1.384 . S
C566 H557 0.929 . S
C566 C558 1.378 . S
C566 C561 1.350 . S
C567 H554 0.929 1_455 S
C567 C559 1.433 . S
C567 N569 1.384 . S
N568 C564 1.427 . S
N568 C565 1.384 . S
N569 C561 1.427 . S
N569 C567 1.384 . S
H570 C576 0.930 . S
H571 C580 0.930 1_565 S
H572 C585 0.932 . S
H573 C583 0.929 . S
H574 C578 0.929 1_565 S
H575 C584 0.929 . S
C576 H570 0.930 . S
C576 C577 1.367 . S
C576 C584 1.378 . S
C577 C576 1.367 . S
C577 C585 1.431 1_545 S
C578 H574 0.929 1_545 S
C578 C580 1.378 . S
C578 C582 1.350 . S
C579 C582 1.463 . S
C579 C584 1.350 . S
C579 N587 1.427 . S
C580 H571 0.930 1_545 S
C580 C578 1.378 . S
C580 C581 1.367 . S
C581 C580 1.367 . S
C581 C583 1.433 . S
C582 C578 1.350 . S
C582 C579 1.463 . S
C582 N586 1.427 . S
C583 H573 0.929 . S
C583 C581 1.433 . S
C583 N586 1.384 . S
C584 H575 0.929 . S
C584 C576 1.378 . S
C584 C579 1.350 . S
C585 H572 0.932 . S
C585 C577 1.431 1_565 S
C585 N587 1.383 1_565 S
N586 C582 1.427 . S
N586 C583 1.384 . S
N587 C579 1.427 . S
N587 C585 1.383 1_545 S
H588 C594 0.930 . S
H589 C598 0.930 . S
H590 C603 0.929 . S
H591 C601 0.929 . S
H592 C596 0.929 . S
H593 C602 0.929 . S
C594 H588 0.930 . S
C594 C595 1.367 . S
C594 C602 1.378 . S
C595 C594 1.367 . S
C595 C603 1.433 . S
C596 H592 0.929 . S
C596 C598 1.378 . S
C596 C600 1.350 . S
C597 C600 1.463 . S
C597 C602 1.350 . S
C597 N605 1.427 . S
C598 H589 0.930 . S
C598 C596 1.378 . S
C598 C599 1.367 . S
C599 C598 1.367 . S
C599 C601 1.433 . S
C600 C596 1.350 . S
C600 C597 1.463 . S
C600 N604 1.427 . S
C601 H591 0.929 . S
C601 C599 1.433 . S
C601 N604 1.384 . S
C602 H593 0.929 . S
C602 C594 1.378 . S
C602 C597 1.350 . S
C603 H590 0.929 . S
C603 C595 1.433 . S
C603 N605 1.384 . S
N604 C600 1.427 . S
N604 C601 1.384 . S
N605 C597 1.427 . S
N605 C603 1.384 . S
H606 C612 0.930 . S
H607 C616 0.930 . S
H608 C621 0.929 . S
H609 C619 0.929 . S
H610 C614 0.939 1_545 S
H611 C620 0.929 . S
C612 H606 0.930 . S
C612 C613 1.367 . S
C612 C620 1.378 . S
C613 C612 1.367 . S
C613 C621 1.433 . S
C614 H610 0.939 1_565 S
C614 C616 1.377 . S
C614 C618 1.352 1_565 S
C615 C618 1.463 . S
C615 C620 1.350 . S
C615 N623 1.427 . S
C616 H607 0.930 . S
C616 C614 1.377 . S
C616 C617 1.367 . S
C617 C616 1.367 . S
C617 C619 1.433 . S
C618 C614 1.352 1_545 S
C618 C615 1.463 . S
C618 N622 1.427 . S
C619 H609 0.929 . S
C619 C617 1.433 . S
C619 N622 1.384 1_565 S
C620 H611 0.929 . S
C620 C612 1.378 . S
C620 C615 1.350 . S
C621 H608 0.929 . S
C621 C613 1.433 . S
C621 N623 1.384 . S
N622 C618 1.427 . S
N622 C619 1.384 1_545 S
N623 C615 1.427 . S
N623 C621 1.384 . S
H624 C630 0.930 . S
H625 C634 0.930 . S
H626 C639 0.929 . S
H627 C637 0.929 . S
H628 C632 0.929 . S
H629 C638 0.929 . S
C630 H624 0.930 . S
C630 C631 1.367 . S
C630 C638 1.378 . S
C631 C630 1.367 . S
C631 C639 1.433 . S
C632 H628 0.929 . S
C632 C634 1.378 . S
C632 C636 1.350 . S
C633 C636 1.463 . S
C633 C638 1.350 . S
C633 N641 1.427 . S
C634 H625 0.930 . S
C634 C632 1.378 . S
C634 C635 1.367 . S
C635 C634 1.367 . S
C635 C637 1.433 . S
C636 C632 1.350 . S
C636 C633 1.463 . S
C636 N640 1.427 . S
C637 H627 0.929 . S
C637 C635 1.433 . S
C637 N640 1.384 . S
C638 H629 0.929 . S
C638 C630 1.378 . S
C638 C633 1.350 . S
C639 H626 0.929 . S
C639 C631 1.433 . S
C639 N641 1.384 . S
N640 C636 1.427 . S
N640 C637 1.384 . S
N641 C633 1.427 . S
N641 C639 1.384 . S
H642 C648 0.930 . S
H643 C652 0.930 . S
H644 C657 0.929 . S
H645 C655 0.929 . S
H646 C650 0.929 . S
H647 C656 0.929 . S
C648 H642 0.930 . S
C648 C649 1.367 . S
C648 C656 1.378 . S
C649 C648 1.367 . S
C649 C657 1.433 . S
C650 H646 0.929 . S
C650 C652 1.378 . S
C650 C654 1.350 1_655 S
C651 C654 1.463 . S
C651 C656 1.350 . S
C651 N659 1.427 . S
C652 H643 0.930 . S
C652 C650 1.378 . S
C652 C653 1.367 . S
C653 C652 1.367 . S
C653 C655 1.433 1_655 S
C654 C650 1.350 1_455 S
C654 C651 1.463 . S
C654 N658 1.427 . S
C655 H645 0.929 . S
C655 C653 1.433 1_455 S
C655 N658 1.384 . S
C656 H647 0.929 . S
C656 C648 1.378 . S
C656 C651 1.350 . S
C657 H644 0.929 . S
C657 C649 1.433 . S
C657 N659 1.384 . S
N658 C654 1.427 . S
N658 C655 1.384 . S
N659 C651 1.427 . S
N659 C657 1.384 . S
C343 C25 0.426 . S
C347 C325 0.389 . S
C361 C65 0.327 . S
C365 C253 0.293 . S
C379 C105 0.468 . S
C383 C289 0.392 . S
C397 C4 0.444 . S
C401 C301 0.306 . S
C419 C229 0.354 . S
C415 C44 0.386 . S
C437 C265 0.433 . S
C433 C84 0.449 . S
C451 C60 2.920 . S
C455 C181 2.843 . S
C469 C100 3.101 . S
C473 C193 3.053 . S
C487 C31 3.114 . S
C491 C121 3.062 . S
C509 C157 3.063 . S
C505 C71 3.106 . S
C527 C217 2.865 . S
C523 C111 2.926 . S
C541 C20 2.923 . S
C545 C145 2.847 . S
C563 C223 1.797 1_554 S
C559 C2 1.740 . S
C577 C42 1.760 . S
C581 C151 1.788 . S
C595 C82 1.746 . S
C599 C187 1.797 . S
C617 C295 1.057 . S
C613 C63 1.068 . S
C635 C331 1.107 1_556 S
C631 C103 1.097 . S
C649 C23 1.055 . S
C653 C259 1.052 1_655 S
