# Generated by pormake.
# Topology pto, (3,4)-cn, num edge types: 1
# Building blocks:
#     Node 0, Type 0, BuildingBlock: WUSLED_clean_sbu_0, # of connection points: 3
#     Node 1, Type 0, BuildingBlock: WUSLED_clean_sbu_0, # of connection points: 3
#     Node 2, Type 0, BuildingBlock: WUSLED_clean_sbu_0, # of connection points: 3
#     Node 3, Type 0, BuildingBlock: WUSLED_clean_sbu_0, # of connection points: 3
#     Node 4, Type 0, BuildingBlock: WUSLED_clean_sbu_0, # of connection points: 3
#     Node 5, Type 0, BuildingBlock: WUSLED_clean_sbu_0, # of connection points: 3
#     Node 6, Type 0, BuildingBlock: WUSLED_clean_sbu_0, # of connection points: 3
#     Node 7, Type 0, BuildingBlock: WUSLED_clean_sbu_0, # of connection points: 3
#     Node 8, Type 1, BuildingBlock: NAHDIM_clean_linker_0, # of connection points: 4
#     Node 9, Type 1, BuildingBlock: NAHDIM_clean_linker_0, # of connection points: 4
#     Node 10, Type 1, BuildingBlock: NAHDIM_clean_linker_0, # of connection points: 4
#     Node 11, Type 1, BuildingBlock: NAHDIM_clean_linker_0, # of connection points: 4
#     Node 12, Type 1, BuildingBlock: NAHDIM_clean_linker_0, # of connection points: 4
#     Node 13, Type 1, BuildingBlock: NAHDIM_clean_linker_0, # of connection points: 4
#     Edge 14, Type (0, 1), BuildingBlock: ZUJKAS_clean_linker_0, # of connection points: 2
#     Edge 15, Type (0, 1), BuildingBlock: ZUJKAS_clean_linker_0, # of connection points: 2
#     Edge 16, Type (0, 1), BuildingBlock: ZUJKAS_clean_linker_0, # of connection points: 2
#     Edge 17, Type (0, 1), BuildingBlock: ZUJKAS_clean_linker_0, # of connection points: 2
#     Edge 18, Type (0, 1), BuildingBlock: ZUJKAS_clean_linker_0, # of connection points: 2
#     Edge 19, Type (0, 1), BuildingBlock: ZUJKAS_clean_linker_0, # of connection points: 2
#     Edge 20, Type (0, 1), BuildingBlock: ZUJKAS_clean_linker_0, # of connection points: 2
#     Edge 21, Type (0, 1), BuildingBlock: ZUJKAS_clean_linker_0, # of connection points: 2
#     Edge 22, Type (0, 1), BuildingBlock: ZUJKAS_clean_linker_0, # of connection points: 2
#     Edge 23, Type (0, 1), BuildingBlock: ZUJKAS_clean_linker_0, # of connection points: 2
#     Edge 24, Type (0, 1), BuildingBlock: ZUJKAS_clean_linker_0, # of connection points: 2
#     Edge 25, Type (0, 1), BuildingBlock: ZUJKAS_clean_linker_0, # of connection points: 2
#     Edge 26, Type (0, 1), BuildingBlock: ZUJKAS_clean_linker_0, # of connection points: 2
#     Edge 27, Type (0, 1), BuildingBlock: ZUJKAS_clean_linker_0, # of connection points: 2
#     Edge 28, Type (0, 1), BuildingBlock: ZUJKAS_clean_linker_0, # of connection points: 2
#     Edge 29, Type (0, 1), BuildingBlock: ZUJKAS_clean_linker_0, # of connection points: 2
#     Edge 30, Type (0, 1), BuildingBlock: ZUJKAS_clean_linker_0, # of connection points: 2
#     Edge 31, Type (0, 1), BuildingBlock: ZUJKAS_clean_linker_0, # of connection points: 2
#     Edge 32, Type (0, 1), BuildingBlock: ZUJKAS_clean_linker_0, # of connection points: 2
#     Edge 33, Type (0, 1), BuildingBlock: ZUJKAS_clean_linker_0, # of connection points: 2
#     Edge 34, Type (0, 1), BuildingBlock: ZUJKAS_clean_linker_0, # of connection points: 2
#     Edge 35, Type (0, 1), BuildingBlock: ZUJKAS_clean_linker_0, # of connection points: 2
#     Edge 36, Type (0, 1), BuildingBlock: ZUJKAS_clean_linker_0, # of connection points: 2
#     Edge 37, Type (0, 1), BuildingBlock: ZUJKAS_clean_linker_0, # of connection points: 2
# Relax obj value: 0.001
# Max RMSD: 0.070
# Mean RMSD: 0.020
data_MOF--net-pto--node1-WUSLED_clean_sbu_0--node2-NAHDIM_clean_linker_0--edge1-ZUJKAS_clean_linker_0
_symmetry_space_group_name_H-M    P1
_symmetry_Int_Tables_number       1
_symmetry_cell_setting            triclinic
loop_
_symmetry_equiv_pos_as_xyz
'x, y, z'
_cell_length_a     88.134245
_cell_length_b     83.837204
_cell_length_c     79.248202
_cell_angle_alpha  89.154706
_cell_angle_beta   90.753207
_cell_angle_gamma 90.51325
loop_
_atom_site_label
_atom_site_type_symbol
_atom_site_fract_x
_atom_site_fract_y
_atom_site_fract_z
_atom_type_partial_charge
C0 C 0.25594 0.25565 0.29575 0.0
C1 C 0.2692 0.24657 0.29511 0.0
C2 C 0.25943 0.22852 0.31686 0.0
C3 C 0.27095 0.23312 0.30559 0.0
C4 C 0.24611 0.23763 0.3173 0.0
C5 C 0.2444 0.25108 0.30684 0.0
U6 U 0.26933 0.28345 0.26041 0.0
O7 O 0.2564 0.29587 0.24039 0.0
O8 O 0.26941 0.30971 0.25899 0.0
C9 C 0.25939 0.31004 0.24657 0.0
C10 C 0.25407 0.26998 0.2851 0.0
C11 C 0.2461 0.32012 0.2493 0.0
C12 C 0.22042 0.32348 0.2594 0.0
C13 C 0.23316 0.31392 0.25731 0.0
C14 C 0.23357 0.34568 0.24598 0.0
C15 C 0.22045 0.33944 0.25366 0.0
C16 C 0.24627 0.33608 0.24379 0.0
C17 C 0.30558 0.27355 0.23681 0.0
C18 C 0.31504 0.28976 0.21349 0.0
C19 C 0.32882 0.26629 0.22286 0.0
C20 C 0.31794 0.26334 0.23522 0.0
C21 C 0.32751 0.27952 0.21182 0.0
C22 C 0.30416 0.28679 0.22589 0.0
C23 C 0.29426 0.27013 0.24984 0.0
O24 O 0.26431 0.28125 0.28744 0.0
O25 O 0.25107 0.26737 0.26908 0.0
O26 O 0.28065 0.26628 0.24419 0.0
O27 O 0.29404 0.28018 0.26241 0.0
H28 H 0.27821 0.24992 0.28654 0.0
H29 H 0.28127 0.22627 0.3048 0.0
H30 H 0.23712 0.23455 0.32598 0.0
H31 H 0.2341 0.25799 0.3075 0.0
H32 H 0.21055 0.3184 0.26554 0.0
H33 H 0.23288 0.30166 0.26182 0.0
H34 H 0.23389 0.35788 0.24129 0.0
H35 H 0.25618 0.34106 0.23763 0.0
H36 H 0.3136 0.29996 0.2051 0.0
H37 H 0.33838 0.25831 0.22213 0.0
H38 H 0.31921 0.25308 0.24359 0.0
H39 H 0.29463 0.29477 0.22694 0.0
C40 C 0.25727 0.76288 0.70795 0.0
C41 C 0.26826 0.77426 0.71261 0.0
C42 C 0.26275 0.78982 0.6871 0.0
C43 C 0.27094 0.78764 0.7023 0.0
C44 C 0.25196 0.7782 0.68233 0.0
C45 C 0.24922 0.76486 0.69271 0.0
U46 U 0.26822 0.73619 0.74505 0.0
O47 O 0.25452 0.72634 0.76578 0.0
O48 O 0.26624 0.71021 0.74883 0.0
C49 C 0.25655 0.71152 0.7612 0.0
C50 C 0.25401 0.74909 0.71903 0.0
C51 C 0.24266 0.70181 0.75966 0.0
C52 C 0.21848 0.6959 0.74597 0.0
C53 C 0.23167 0.70526 0.74721 0.0
C54 C 0.22719 0.67959 0.76961 0.0
C55 C 0.21608 0.68294 0.75716 0.0
C56 C 0.24035 0.68895 0.77083 0.0
C57 C 0.30539 0.74535 0.76856 0.0
C58 C 0.31393 0.73012 0.79317 0.0
C59 C 0.32862 0.75289 0.78325 0.0
C60 C 0.31809 0.75538 0.77017 0.0
C61 C 0.32661 0.74032 0.79499 0.0
C62 C 0.30338 0.73264 0.78006 0.0
C63 C 0.29425 0.74852 0.75502 0.0
O64 O 0.26331 0.73701 0.71772 0.0
O65 O 0.25103 0.75259 0.73475 0.0
O66 O 0.28105 0.75376 0.75998 0.0
O67 O 0.29309 0.73756 0.74338 0.0
H68 H 0.27467 0.77285 0.72429 0.0
H69 H 0.27946 0.79626 0.70622 0.0
H70 H 0.24537 0.77962 0.67078 0.0
H71 H 0.24071 0.75618 0.68892 0.0
H72 H 0.2101 0.69892 0.73636 0.0
H73 H 0.23328 0.7152 0.73851 0.0
H74 H 0.22583 0.66957 0.77826 0.0
H75 H 0.24876 0.68612 0.78049 0.0
H76 H 0.31199 0.72043 0.80208 0.0
H77 H 0.33837 0.76081 0.78415 0.0
H78 H 0.31983 0.7652 0.76135 0.0
H79 H 0.29358 0.72481 0.77899 0.0
C80 C 0.72547 0.75991 0.22911 0.0
C81 C 0.72609 0.74599 0.21955 0.0
C82 C 0.70308 0.7537 0.20422 0.0
C83 C 0.71498 0.74289 0.20724 0.0
C84 C 0.70259 0.76769 0.21381 0.0
C85 C 0.71369 0.77074 0.22616 0.0
U86 U 0.76278 0.74998 0.25131 0.0
O87 O 0.78107 0.76559 0.26076 0.0
O88 O 0.76886 0.74978 0.27836 0.0
C89 C 0.77886 0.76139 0.2766 0.0
C90 C 0.73702 0.76322 0.24217 0.0
C91 C 0.77753 0.77457 0.28852 0.0
C92 C 0.76687 0.79992 0.29665 0.0
C93 C 0.76782 0.78743 0.28518 0.0
C94 C 0.78519 0.78668 0.31498 0.0
C95 C 0.77558 0.79972 0.31169 0.0
C96 C 0.78616 0.77425 0.30349 0.0
C97 C 0.78576 0.71464 0.23638 0.0
C98 C 0.80913 0.70645 0.25048 0.0
C99 C 0.80006 0.69238 0.22578 0.0
C100 C 0.78757 0.70252 0.22462 0.0
C101 C 0.81097 0.69418 0.23875 0.0
C102 C 0.79663 0.71661 0.24929 0.0
C103 C 0.77247 0.72505 0.23507 0.0
O104 O 0.73815 0.75238 0.25427 0.0
O105 O 0.75025 0.76812 0.23655 0.0
O106 O 0.77529 0.73983 0.23022 0.0
O107 O 0.76303 0.72402 0.24775 0.0
H108 H 0.73517 0.73753 0.22163 0.0
H109 H 0.71581 0.73212 0.19993 0.0
H110 H 0.6935 0.77617 0.21194 0.0
H111 H 0.71304 0.78154 0.23345 0.0
H112 H 0.75947 0.80983 0.29361 0.0
H113 H 0.76103 0.78785 0.27368 0.0
H114 H 0.79184 0.78597 0.32655 0.0
H115 H 0.79364 0.76436 0.30631 0.0
H116 H 0.81741 0.70829 0.2605 0.0
H117 H 0.801 0.68293 0.21669 0.0
H118 H 0.77926 0.70083 0.2146 0.0
H119 H 0.79541 0.72597 0.25845 0.0
C120 C 0.74139 0.24383 0.7183 0.0
C121 C 0.7551 0.24379 0.70952 0.0
C122 C 0.74718 0.21967 0.69487 0.0
C123 C 0.75798 0.2318 0.69791 0.0
C124 C 0.73337 0.21993 0.70359 0.0
C125 C 0.73052 0.23191 0.7152 0.0
U126 U 0.7528 0.28162 0.74158 0.0
O127 O 0.73892 0.30167 0.7499 0.0
O128 O 0.75155 0.28722 0.76852 0.0
C129 C 0.74159 0.29861 0.76597 0.0
C130 C 0.73843 0.25602 0.73096 0.0
C131 C 0.72818 0.2978 0.77677 0.0
C132 C 0.7061 0.28366 0.78761 0.0
C133 C 0.71852 0.28441 0.77679 0.0
C134 C 0.71276 0.30978 0.79827 0.0
C135 C 0.70311 0.29631 0.79855 0.0
C136 C 0.72517 0.3105 0.78748 0.0
C137 C 0.78977 0.30313 0.7309 0.0
C138 C 0.80014 0.32432 0.74831 0.0
C139 C 0.81196 0.31814 0.72178 0.0
C140 C 0.8011 0.30615 0.71903 0.0
C141 C 0.81167 0.32729 0.73651 0.0
C142 C 0.78926 0.31237 0.74551 0.0
C143 C 0.7787 0.2902 0.72805 0.0
O144 O 0.74776 0.25597 0.74404 0.0
O145 O 0.73571 0.27042 0.72494 0.0
O146 O 0.76546 0.29466 0.72188 0.0
O147 O 0.7776 0.27962 0.74039 0.0
H148 H 0.76361 0.25296 0.71175 0.0
H149 H 0.76865 0.23207 0.69128 0.0
H150 H 0.72489 0.21068 0.70173 0.0
H151 H 0.71988 0.23175 0.72192 0.0
H152 H 0.6988 0.2732 0.78737 0.0
H153 H 0.72067 0.27451 0.76854 0.0
H154 H 0.71094 0.31963 0.80668 0.0
H155 H 0.73255 0.32091 0.78764 0.0
H156 H 0.79949 0.33129 0.75967 0.0
H157 H 0.82076 0.32001 0.71254 0.0
H158 H 0.80165 0.29913 0.70769 0.0
H159 H 0.78051 0.31025 0.75477 0.0
C160 C 0.78671 0.71057 0.77079 0.0
C161 C 0.79782 0.71388 0.75867 0.0
C162 C 0.81164 0.69003 0.7674 0.0
C163 C 0.81018 0.70368 0.75697 0.0
C164 C 0.80037 0.68676 0.77944 0.0
C165 C 0.78804 0.69695 0.78111 0.0
U166 U 0.76448 0.7477 0.75813 0.0
O167 O 0.73984 0.7512 0.7555 0.0
O168 O 0.75302 0.76523 0.77378 0.0
C169 C 0.73947 0.76132 0.76799 0.0
C170 C 0.77373 0.7212 0.77283 0.0
C171 C 0.72802 0.75786 0.7809 0.0
C172 C 0.71937 0.74281 0.80544 0.0
C173 C 0.73033 0.74585 0.79316 0.0
C174 C 0.70365 0.76367 0.79324 0.0
C175 C 0.7059 0.75172 0.80566 0.0
C176 C 0.71462 0.7667 0.78099 0.0
C177 C 0.77919 0.77454 0.72237 0.0
C178 C 0.76803 0.80014 0.71495 0.0
C179 C 0.78741 0.789 0.69731 0.0
C180 C 0.78837 0.77571 0.70812 0.0
C181 C 0.77724 0.8014 0.70059 0.0
C182 C 0.76899 0.7868 0.72574 0.0
C183 C 0.78037 0.76042 0.73349 0.0
O184 O 0.77708 0.73545 0.77858 0.0
O185 O 0.76395 0.72151 0.76018 0.0
O186 O 0.76992 0.74936 0.73113 0.0
O187 O 0.7831 0.76329 0.74951 0.0
H188 H 0.79695 0.72439 0.7506 0.0
H189 H 0.81871 0.70662 0.74769 0.0
H190 H 0.80101 0.67622 0.78748 0.0
H191 H 0.77952 0.69418 0.79047 0.0
H192 H 0.72155 0.73364 0.81492 0.0
H193 H 0.74063 0.73889 0.79326 0.0
H194 H 0.69333 0.77058 0.79286 0.0
H195 H 0.71263 0.77596 0.77155 0.0
H196 H 0.76019 0.80952 0.71795 0.0
H197 H 0.79446 0.78941 0.68622 0.0
H198 H 0.79624 0.7663 0.70529 0.0
H199 H 0.76179 0.78606 0.73671 0.0
C200 C 0.73645 0.24845 0.21616 0.0
C201 C 0.73652 0.2634 0.20797 0.0
C202 C 0.71343 0.25628 0.19249 0.0
C203 C 0.72509 0.2673 0.19625 0.0
C204 C 0.71366 0.24117 0.20048 0.0
C205 C 0.72507 0.23731 0.21223 0.0
U206 U 0.77349 0.25802 0.23888 0.0
O207 O 0.77939 0.25708 0.26591 0.0
O208 O 0.79175 0.24231 0.24815 0.0
C209 C 0.78934 0.24569 0.26404 0.0
C210 C 0.74798 0.24453 0.22906 0.0
C211 C 0.7876 0.23195 0.27557 0.0
C212 C 0.77428 0.20781 0.2845 0.0
C213 C 0.77608 0.22053 0.27303 0.0
C214 C 0.79551 0.21782 0.30108 0.0
C215 C 0.78392 0.20638 0.29873 0.0
C216 C 0.79732 0.23048 0.28961 0.0
C217 C 0.79593 0.29515 0.22553 0.0
C218 C 0.82149 0.30083 0.23573 0.0
C219 C 0.80747 0.32109 0.22015 0.0
C220 C 0.79515 0.31058 0.21858 0.0
C221 C 0.82082 0.31634 0.2287 0.0
C222 C 0.80913 0.29034 0.23419 0.0
C223 C 0.78286 0.28428 0.22372 0.0
O224 O 0.76128 0.24045 0.22328 0.0
O225 O 0.74892 0.25453 0.24167 0.0
O226 O 0.7733 0.2842 0.2363 0.0
O227 O 0.78594 0.26992 0.21833 0.0
H228 H 0.74527 0.27214 0.21086 0.0
H229 H 0.72518 0.2791 0.1905 0.0
H230 H 0.705 0.23232 0.19768 0.0
H231 H 0.72491 0.22568 0.21837 0.0
H232 H 0.76516 0.19929 0.28241 0.0
H233 H 0.76841 0.22156 0.26228 0.0
H234 H 0.80327 0.21694 0.31177 0.0
H235 H 0.80626 0.2392 0.29175 0.0
H236 H 0.83164 0.2967 0.24221 0.0
H237 H 0.80646 0.33302 0.21484 0.0
H238 H 0.78499 0.31451 0.21196 0.0
H239 H 0.8099 0.27846 0.23969 0.0
C240 C 0.24476 0.23899 0.72407 0.0
C241 C 0.25947 0.2343 0.71982 0.0
C242 C 0.24905 0.21257 0.70307 0.0
C243 C 0.26159 0.22126 0.70931 0.0
C244 C 0.23436 0.21727 0.70745 0.0
C245 C 0.23224 0.23039 0.71782 0.0
U246 U 0.25713 0.26544 0.76054 0.0
O247 O 0.25592 0.29141 0.76353 0.0
O248 O 0.24369 0.27549 0.78101 0.0
C249 C 0.2461 0.29026 0.77584 0.0
C250 C 0.24225 0.25258 0.73522 0.0
C251 C 0.23247 0.3002 0.77403 0.0
C252 C 0.21277 0.31269 0.75677 0.0
C253 C 0.22559 0.30303 0.7582 0.0
C254 C 0.21336 0.31654 0.78701 0.0
C255 C 0.20649 0.31959 0.77117 0.0
C256 C 0.22624 0.30697 0.7884 0.0
C257 C 0.29417 0.25699 0.78407 0.0
C258 C 0.30252 0.27314 0.80769 0.0
C259 C 0.31807 0.25133 0.79839 0.0
C260 C 0.30734 0.24786 0.78579 0.0
C261 C 0.31579 0.26402 0.80949 0.0
C262 C 0.29179 0.26964 0.79508 0.0
C263 C 0.28304 0.25323 0.77075 0.0
O264 O 0.23963 0.24881 0.75107 0.0
O265 O 0.25163 0.26476 0.73343 0.0
O266 O 0.28193 0.26389 0.75847 0.0
O267 O 0.2698 0.24803 0.77607 0.0
H268 H 0.26931 0.24066 0.72466 0.0
H269 H 0.27304 0.21779 0.7063 0.0
H270 H 0.22448 0.2109 0.70271 0.0
H271 H 0.22082 0.23381 0.72101 0.0
H272 H 0.2079 0.31491 0.74435 0.0
H273 H 0.23018 0.29784 0.74693 0.0
H274 H 0.2087 0.32138 0.7984 0.0
H275 H 0.23133 0.30483 0.80074 0.0
H276 H 0.30034 0.28287 0.81614 0.0
H277 H 0.32825 0.24422 0.79927 0.0
H278 H 0.30936 0.23808 0.77734 0.0
H279 H 0.28163 0.27679 0.79393 0.0
C280 C 0.22228 0.73543 0.25949 0.0
C281 C 0.22489 0.72264 0.24872 0.0
C282 C 0.20039 0.7109 0.25604 0.0
C283 C 0.21404 0.71047 0.24701 0.0
C284 C 0.19785 0.72384 0.26673 0.0
C285 C 0.20871 0.73599 0.26843 0.0
U286 U 0.25917 0.75593 0.24667 0.0
O287 O 0.26499 0.78144 0.24448 0.0
O288 O 0.27752 0.76607 0.26235 0.0
C289 C 0.27507 0.78069 0.25684 0.0
C290 C 0.23366 0.74819 0.26156 0.0
C291 C 0.27353 0.79268 0.27002 0.0
C292 C 0.25906 0.80496 0.29216 0.0
C293 C 0.26024 0.79359 0.2795 0.0
C294 C 0.28444 0.81454 0.28598 0.0
C295 C 0.27116 0.81556 0.29557 0.0
C296 C 0.2856 0.80319 0.27332 0.0
C297 C 0.28238 0.73933 0.21087 0.0
C298 C 0.30493 0.75297 0.20053 0.0
C299 C 0.29848 0.72654 0.19056 0.0
C300 C 0.28564 0.72629 0.20073 0.0
C301 C 0.30831 0.73987 0.19034 0.0
C302 C 0.29209 0.75268 0.21074 0.0
C303 C 0.26899 0.73874 0.22172 0.0
O304 O 0.24704 0.74351 0.26712 0.0
O305 O 0.23446 0.75856 0.249 0.0
O306 O 0.25941 0.75055 0.2196 0.0
O307 O 0.27178 0.73525 0.23768 0.0
H308 H 0.23534 0.72204 0.24172 0.0
H309 H 0.21645 0.7006 0.23883 0.0
H310 H 0.18738 0.72468 0.27366 0.0
H311 H 0.2065 0.74583 0.27674 0.0
H312 H 0.24863 0.80553 0.29918 0.0
H313 H 0.25081 0.78552 0.2771 0.0
H314 H 0.29406 0.82233 0.28844 0.0
H315 H 0.29597 0.80257 0.26618 0.0
H316 H 0.31213 0.7635 0.20054 0.0
H317 H 0.30086 0.71615 0.18312 0.0
H318 H 0.2783 0.71585 0.20077 0.0
H319 H 0.28974 0.76285 0.21854 0.0
C320 C 0.96527 0.40837 0.24257 0.0
C321 C 0.95205 0.41835 0.24886 0.0
C322 C 0.96213 0.4448 0.24204 0.0
C323 C 0.96823 0.44898 0.25785 0.0
C324 C 0.9799 0.4604 0.25913 0.0
C325 C 0.98567 0.4677 0.24431 0.0
C326 C 0.9791 0.464 0.22842 0.0
C327 C 0.96722 0.45275 0.22755 0.0
C328 C 0.98636 0.46438 0.27631 0.0
C329 C 0.98502 0.47147 0.21234 0.0
C330 C 0.06956 0.41406 0.24239 0.0
C331 C 0.08167 0.42712 0.23996 0.0
C332 C 0.06702 0.45012 0.24907 0.0
C333 C 0.05984 0.45371 0.23353 0.0
C334 C 0.04718 0.46372 0.2327 0.0
C335 C 0.0414 0.47012 0.2477 0.0
C336 C 0.04882 0.46687 0.26332 0.0
C337 C 0.0617 0.45711 0.26373 0.0
C338 C 0.03976 0.46721 0.21578 0.0
C339 C 0.04285 0.47331 0.2796 0.0
C340 C 0.06604 0.57505 0.24494 0.0
C341 C 0.06047 0.56784 0.23015 0.0
C342 C 0.04689 0.55896 0.23023 0.0
C343 C 0.03889 0.55686 0.24548 0.0
C344 C 0.04437 0.56422 0.26035 0.0
C345 C 0.05779 0.57336 0.25981 0.0
C346 C 0.04117 0.5517 0.21399 0.0
C347 C 0.03615 0.56225 0.27684 0.0
C348 C 0.92194 0.56294 0.25864 0.0
C349 C 0.93054 0.57892 0.25835 0.0
C350 C 0.95499 0.57101 0.24641 0.0
C351 C 0.96311 0.57004 0.23143 0.0
C352 C 0.97686 0.56174 0.23082 0.0
C353 C 0.9828 0.55449 0.24571 0.0
C354 C 0.97486 0.55578 0.26103 0.0
C355 C 0.96097 0.56383 0.26119 0.0
C356 C 0.98498 0.56061 0.21425 0.0
C357 C 0.98104 0.54861 0.27729 0.0
C358 C 0.99941 0.47804 0.24532 0.0
C359 C 0.01346 0.47047 0.24631 0.0
C360 C 0.02701 0.47922 0.24712 0.0
C361 C 0.02661 0.49608 0.2469 0.0
C362 C 0.04002 0.50527 0.24745 0.0
C363 C 0.0395 0.52186 0.24726 0.0
C364 C 0.02556 0.5299 0.24635 0.0
C365 C 0.02494 0.54677 0.24589 0.0
C366 C 0.01088 0.55436 0.24552 0.0
C367 C 0.9973 0.54559 0.24532 0.0
C368 C 0.99771 0.52871 0.24521 0.0
C369 C 0.9843 0.51949 0.24445 0.0
C370 C 0.98482 0.5029 0.24455 0.0
C371 C 0.99875 0.49488 0.2453 0.0
C372 C 0.01242 0.50393 0.24604 0.0
C373 C 0.0119 0.52086 0.24587 0.0
C374 C 0.09946 0.56863 0.23375 0.0
C375 C 0.09051 0.58424 0.23345 0.0
O376 O 0.95163 0.43293 0.24032 0.0
O377 O 0.94152 0.5789 0.24595 0.0
O378 O 0.07924 0.58362 0.24552 0.0
O379 O 0.07887 0.43983 0.25049 0.0
H380 H 0.95368 0.42027 0.26261 0.0
H381 H 0.97623 0.41453 0.24526 0.0
H382 H 0.96423 0.40655 0.22874 0.0
H383 H 0.96547 0.39656 0.24911 0.0
H384 H 0.96394 0.44339 0.26922 0.0
H385 H 0.96231 0.44957 0.21543 0.0
H386 H 0.99804 0.45959 0.27752 0.0
H387 H 0.97943 0.45925 0.2867 0.0
H388 H 0.98712 0.47752 0.27777 0.0
H389 H 0.97887 0.46708 0.20097 0.0
H390 H 0.99727 0.46882 0.2111 0.0
H391 H 0.98388 0.48463 0.2128 0.0
H392 H 0.08145 0.43125 0.22659 0.0
H393 H 0.07188 0.40375 0.23418 0.0
H394 H 0.05817 0.41871 0.23892 0.0
H395 H 0.06939 0.40989 0.25576 0.0
H396 H 0.06398 0.44879 0.22197 0.0
H397 H 0.06735 0.45439 0.27565 0.0
H398 H 0.03777 0.48021 0.21421 0.0
H399 H 0.02855 0.46108 0.21514 0.0
H400 H 0.04672 0.4631 0.20511 0.0
H401 H 0.04955 0.46914 0.29077 0.0
H402 H 0.03084 0.46955 0.28121 0.0
H403 H 0.04316 0.48654 0.27915 0.0
H404 H 0.08532 0.58613 0.22073 0.0
H405 H 0.06656 0.56905 0.21845 0.0
H406 H 0.06209 0.57901 0.27114 0.0
H407 H 0.04255 0.53856 0.21468 0.0
H408 H 0.04741 0.55632 0.20283 0.0
H409 H 0.02889 0.55415 0.21213 0.0
H410 H 0.04254 0.56764 0.28754 0.0
H411 H 0.0342 0.54939 0.27969 0.0
H412 H 0.02488 0.56801 0.27579 0.0
H413 H 0.936 0.5809 0.27088 0.0
H414 H 0.91306 0.56296 0.26846 0.0
H415 H 0.92982 0.55301 0.26162 0.0
H416 H 0.91649 0.5607 0.24616 0.0
H417 H 0.95848 0.57564 0.2201 0.0
H418 H 0.95497 0.56443 0.27296 0.0
H419 H 0.9876 0.54796 0.21161 0.0
H420 H 0.99593 0.56723 0.21504 0.0
H421 H 0.9782 0.56561 0.20354 0.0
H422 H 0.97465 0.55251 0.28846 0.0
H423 H 0.99318 0.55195 0.27905 0.0
H424 H 0.98034 0.53541 0.2767 0.0
H425 H 0.01387 0.45754 0.24635 0.0
H426 H 0.05107 0.49973 0.24806 0.0
H427 H 0.05019 0.5283 0.24783 0.0
H428 H 0.01049 0.5673 0.24541 0.0
H429 H 0.97325 0.52501 0.24375 0.0
H430 H 0.97414 0.49641 0.24401 0.0
H431 H 0.10859 0.56913 0.22421 0.0
H432 H 0.09187 0.5584 0.23072 0.0
H433 H 0.10464 0.56648 0.24643 0.0
C434 C 0.05868 0.40317 0.76498 0.0
C435 C 0.07052 0.4133 0.75559 0.0
C436 C 0.06008 0.43963 0.76018 0.0
C437 C 0.05317 0.44275 0.74443 0.0
C438 C 0.04113 0.45353 0.74287 0.0
C439 C 0.0358 0.46124 0.75739 0.0
C440 C 0.04308 0.45851 0.77319 0.0
C441 C 0.05533 0.44792 0.7743 0.0
C442 C 0.0339 0.45645 0.72575 0.0
C443 C 0.03763 0.46638 0.78898 0.0
C444 C 0.92102 0.4157 0.76156 0.0
C445 C 0.93411 0.42603 0.7665 0.0
C446 C 0.95366 0.44315 0.75391 0.0
C447 C 0.95975 0.44845 0.76937 0.0
C448 C 0.97284 0.45813 0.76985 0.0
C449 C 0.97994 0.46267 0.7546 0.0
C450 C 0.97364 0.45769 0.73901 0.0
C451 C 0.96054 0.44802 0.73889 0.0
C452 C 0.97921 0.46334 0.78668 0.0
C453 C 0.98088 0.4624 0.72251 0.0
C454 C 0.95548 0.56696 0.7571 0.0
C455 C 0.96198 0.5597 0.77157 0.0
C456 C 0.97551 0.55108 0.77062 0.0
C457 C 0.98257 0.54935 0.75482 0.0
C458 C 0.97621 0.5568 0.74027 0.0
C459 C 0.96281 0.56563 0.74165 0.0
C460 C 0.9822 0.54371 0.78652 0.0
C461 C 0.98343 0.55522 0.72323 0.0
C462 C 0.09873 0.55705 0.73601 0.0
C463 C 0.09065 0.5731 0.73742 0.0
C464 C 0.06659 0.56463 0.75044 0.0
C465 C 0.05902 0.56304 0.76577 0.0
C466 C 0.04517 0.55471 0.7669 0.0
C467 C 0.0386 0.548 0.75221 0.0
C468 C 0.04596 0.54992 0.73655 0.0
C469 C 0.05993 0.55808 0.73583 0.0
C470 C 0.03763 0.5529 0.78381 0.0
C471 C 0.03912 0.54324 0.72054 0.0
C472 C 0.022 0.47127 0.75621 0.0
C473 C 0.00792 0.46345 0.75599 0.0
C474 C 0.99438 0.47196 0.75498 0.0
C475 C 0.99478 0.48882 0.75439 0.0
C476 C 0.98137 0.49777 0.75364 0.0
C477 C 0.98189 0.51437 0.75328 0.0
C478 C 0.99584 0.52267 0.75359 0.0
C479 C 0.99647 0.53954 0.7536 0.0
C480 C 0.01054 0.5474 0.75322 0.0
C481 C 0.0241 0.53886 0.75319 0.0
C482 C 0.0237 0.52198 0.75386 0.0
C483 C 0.03711 0.513 0.75446 0.0
C484 C 0.0366 0.4964 0.75513 0.0
C485 C 0.02266 0.48813 0.75531 0.0
C486 C 0.00898 0.49693 0.75455 0.0
C487 C 0.00951 0.51387 0.75397 0.0
C488 C 0.92312 0.5595 0.77138 0.0
C489 C 0.93185 0.57539 0.77045 0.0
O490 O 0.07113 0.42854 0.76219 0.0
O491 O 0.08023 0.57243 0.7504 0.0
O492 O 0.94221 0.57519 0.7574 0.0
O493 O 0.94135 0.43329 0.75294 0.0
H494 H 0.06724 0.41389 0.74201 0.0
H495 H 0.04725 0.40846 0.76328 0.0
H496 H 0.06145 0.40256 0.7787 0.0
H497 H 0.05827 0.39087 0.75994 0.0
H498 H 0.05718 0.43685 0.73331 0.0
H499 H 0.06085 0.44554 0.78637 0.0
H500 H 0.0224 0.45095 0.72547 0.0
H501 H 0.04062 0.45131 0.71542 0.0
H502 H 0.03259 0.46945 0.72333 0.0
H503 H 0.04395 0.46227 0.80044 0.0
H504 H 0.02536 0.46381 0.79072 0.0
H505 H 0.03902 0.47951 0.78771 0.0
H506 H 0.94216 0.42044 0.77578 0.0
H507 H 0.92445 0.40331 0.76561 0.0
H508 H 0.9221 0.41342 0.74765 0.0
H509 H 0.90235 0.42726 0.77174 0.0
H510 H 0.95441 0.44502 0.78111 0.0
H511 H 0.95573 0.444 0.72702 0.0
H512 H 0.98015 0.47655 0.78689 0.0
H513 H 0.99082 0.45851 0.78849 0.0
H514 H 0.9721 0.45925 0.7974 0.0
H515 H 0.97432 0.45798 0.71143 0.0
H516 H 0.99254 0.45752 0.7221 0.0
H517 H 0.98186 0.47559 0.72152 0.0
H518 H 0.93794 0.57738 0.78262 0.0
H519 H 0.95664 0.56061 0.7837 0.0
H520 H 0.95781 0.5713 0.73056 0.0
H521 H 0.9809 0.53055 0.78607 0.0
H522 H 0.97657 0.54797 0.79806 0.0
H523 H 0.99452 0.54649 0.7875 0.0
H524 H 0.97652 0.56079 0.71295 0.0
H525 H 0.98506 0.54242 0.72038 0.0
H526 H 0.99481 0.56102 0.72344 0.0
H527 H 0.08471 0.57595 0.7253 0.0
H528 H 0.1072 0.55762 0.72575 0.0
H529 H 0.09046 0.54741 0.73301 0.0
H530 H 0.10461 0.55391 0.74808 0.0
H531 H 0.06416 0.56817 0.77697 0.0
H532 H 0.06548 0.55921 0.7238 0.0
H533 H 0.03532 0.54009 0.7866 0.0
H534 H 0.02656 0.55912 0.78345 0.0
H535 H 0.04468 0.55789 0.79422 0.0
H536 H 0.0454 0.54719 0.70913 0.0
H537 H 0.0271 0.54697 0.71914 0.0
H538 H 0.03925 0.53001 0.72124 0.0
H539 H 0.0075 0.45051 0.7566 0.0
H540 H 0.97032 0.49204 0.75341 0.0
H541 H 0.9712 0.52063 0.75273 0.0
H542 H 0.01093 0.56034 0.75306 0.0
H543 H 0.04818 0.51871 0.75448 0.0
H544 H 0.04728 0.49012 0.75556 0.0
H545 H 0.9147 0.5597 0.78169 0.0
H546 H 0.931 0.5495 0.77403 0.0
H547 H 0.91709 0.5572 0.75924 0.0
C548 C 0.24744 0.06291 0.60642 0.0
C549 C 0.26126 0.07267 0.6006 0.0
C550 C 0.26354 0.06339 0.57214 0.0
C551 C 0.27822 0.05742 0.57066 0.0
C552 C 0.28115 0.04481 0.55972 0.0
C553 C 0.26902 0.03789 0.55037 0.0
C554 C 0.25418 0.04409 0.55177 0.0
C555 C 0.25171 0.05703 0.5624 0.0
C556 C 0.29714 0.03874 0.55837 0.0
C557 C 0.24086 0.03679 0.54243 0.0
C558 C 0.28539 0.94984 0.60986 0.0
C559 C 0.27527 0.93997 0.59803 0.0
C560 C 0.27933 0.95278 0.57083 0.0
C561 C 0.2649 0.95874 0.56676 0.0
C562 C 0.26325 0.97212 0.55605 0.0
C563 C 0.27632 0.9797 0.54937 0.0
C564 C 0.29086 0.97337 0.55304 0.0
C565 C 0.29214 0.95979 0.56354 0.0
C566 C 0.24756 0.9783 0.55208 0.0
C567 C 0.30505 0.98121 0.54626 0.0
C568 C 0.27424 0.95392 0.43898 0.0
C569 C 0.2609 0.95931 0.44651 0.0
C570 C 0.26085 0.97354 0.45561 0.0
C571 C 0.27448 0.98241 0.45758 0.0
C572 C 0.28787 0.97718 0.4498 0.0
C573 C 0.2875 0.96311 0.44039 0.0
C574 C 0.24618 0.97909 0.46314 0.0
C575 C 0.30259 0.98635 0.45159 0.0
C576 C 0.27932 0.10608 0.4529 0.0
C577 C 0.28132 0.09858 0.43555 0.0
C578 C 0.27252 0.07118 0.44169 0.0
C579 C 0.2595 0.06157 0.44232 0.0
C580 C 0.25953 0.04681 0.45095 0.0
C581 C 0.27309 0.04137 0.45877 0.0
C582 C 0.28649 0.05072 0.45759 0.0
C583 C 0.28603 0.06562 0.44929 0.0
C584 C 0.24502 0.03718 0.45195 0.0
C585 C 0.30131 0.04506 0.46524 0.0
C586 C 0.27166 0.02361 0.53995 0.0
C587 C 0.27308 0.0089 0.54832 0.0
C588 C 0.27483 0.99478 0.53942 0.0
C589 C 0.27495 0.99523 0.52158 0.0
C590 C 0.27618 0.98122 0.51219 0.0
C591 C 0.27621 0.98179 0.49463 0.0
C592 C 0.27496 0.9964 0.48577 0.0
C593 C 0.27467 0.99707 0.46791 0.0
C594 C 0.27398 0.01185 0.45952 0.0
C595 C 0.27325 0.02606 0.46848 0.0
C596 C 0.27292 0.02558 0.48633 0.0
C597 C 0.27161 0.03959 0.49574 0.0
C598 C 0.27135 0.039 0.51329 0.0
C599 C 0.27225 0.02437 0.52213 0.0
C600 C 0.27374 0.0101 0.51291 0.0
C601 C 0.2739 0.01069 0.49499 0.0
C602 C 0.27134 0.91749 0.44846 0.0
C603 C 0.26589 0.92658 0.43264 0.0
O604 O 0.26053 0.07503 0.58325 0.0
O605 O 0.27149 0.08566 0.43374 0.0
O606 O 0.27481 0.94013 0.43015 0.0
O607 O 0.28117 0.94041 0.58188 0.0
H608 H 0.27173 0.06595 0.60403 0.0
H609 H 0.24737 0.051 0.60047 0.0
H610 H 0.23676 0.06913 0.60284 0.0
H611 H 0.2478 0.06104 0.62033 0.0
H612 H 0.28734 0.06261 0.57813 0.0
H613 H 0.24041 0.06182 0.56369 0.0
H614 H 0.29792 0.02682 0.5646 0.0
H615 H 0.30556 0.04683 0.56444 0.0
H616 H 0.30016 0.03733 0.54491 0.0
H617 H 0.22986 0.04168 0.54656 0.0
H618 H 0.24065 0.02365 0.54439 0.0
H619 H 0.24198 0.0392 0.5287 0.0
H620 H 0.26373 0.94524 0.59797 0.0
H621 H 0.28086 0.94946 0.62288 0.0
H622 H 0.28568 0.96249 0.60547 0.0
H623 H 0.29717 0.94522 0.61009 0.0
H624 H 0.25493 0.95293 0.57192 0.0
H625 H 0.30321 0.95496 0.56664 0.0
H626 H 0.24611 0.99003 0.55815 0.0
H627 H 0.23852 0.97005 0.55665 0.0
H628 H 0.24609 0.98015 0.53825 0.0
H629 H 0.31553 0.97522 0.5509 0.0
H630 H 0.3055 0.99392 0.55 0.0
H631 H 0.30481 0.98094 0.53226 0.0
H632 H 0.25386 0.92988 0.43435 0.0
H633 H 0.25038 0.95273 0.44516 0.0
H634 H 0.2977 0.95898 0.43441 0.0
H635 H 0.24685 0.97781 0.47709 0.0
H636 H 0.23622 0.97211 0.45855 0.0
H637 H 0.24433 0.9919 0.46007 0.0
H638 H 0.31227 0.98002 0.44593 0.0
H639 H 0.30519 0.98841 0.46514 0.0
H640 H 0.30147 0.9982 0.44529 0.0
H641 H 0.29323 0.09462 0.43427 0.0
H642 H 0.28705 0.11654 0.45436 0.0
H643 H 0.2821 0.09731 0.46308 0.0
H644 H 0.26742 0.11001 0.45447 0.0
H645 H 0.24915 0.06587 0.43635 0.0
H646 H 0.2963 0.07271 0.4488 0.0
H647 H 0.24255 0.03405 0.46531 0.0
H648 H 0.24636 0.02585 0.44507 0.0
H649 H 0.23516 0.04367 0.44642 0.0
H650 H 0.3111 0.05249 0.46105 0.0
H651 H 0.30338 0.03247 0.46183 0.0
H652 H 0.30073 0.04558 0.4792 0.0
H653 H 0.27269 0.00841 0.562 0.0
H654 H 0.27709 0.96963 0.51832 0.0
H655 H 0.27722 0.97061 0.48808 0.0
H656 H 0.27395 0.01229 0.44583 0.0
H657 H 0.27072 0.05119 0.48965 0.0
H658 H 0.27039 0.05017 0.51986 0.0
H659 H 0.26446 0.90645 0.45036 0.0
H660 H 0.27011 0.92504 0.45975 0.0
H661 H 0.28348 0.91421 0.44734 0.0
C662 C 0.45709 0.71816 0.1106 0.0
C663 C 0.44855 0.73071 0.10003 0.0
C664 C 0.45941 0.72731 0.07248 0.0
C665 C 0.4664 0.74207 0.06915 0.0
C666 C 0.47911 0.74316 0.0587 0.0
C667 C 0.48503 0.72914 0.05162 0.0
C668 C 0.47769 0.71428 0.05462 0.0
C669 C 0.46477 0.71362 0.0648 0.0
C670 C 0.48641 0.75926 0.05551 0.0
C671 C 0.48376 0.69904 0.0475 0.0
C672 C 0.59896 0.72694 0.10554 0.0
C673 C 0.58589 0.72199 0.09465 0.0
C674 C 0.56614 0.73345 0.0763 0.0
C675 C 0.56075 0.71871 0.07027 0.0
C676 C 0.54817 0.71796 0.05923 0.0
C677 C 0.54089 0.7322 0.05401 0.0
C678 C 0.54648 0.74706 0.05975 0.0
C679 C 0.55904 0.74747 0.07083 0.0
C680 C 0.54251 0.70191 0.05331 0.0
C681 C 0.53904 0.76248 0.05435 0.0
C682 C 0.57076 0.73054 0.94434 0.0
C683 C 0.56521 0.71632 0.95176 0.0
C684 C 0.55147 0.71605 0.96056 0.0
C685 C 0.54323 0.73033 0.96227 0.0
C686 C 0.54874 0.74464 0.9548 0.0
C687 C 0.56238 0.74451 0.94584 0.0
C688 C 0.54576 0.70049 0.96803 0.0
C689 C 0.54027 0.7601 0.95637 0.0
C690 C 0.4258 0.73432 0.94863 0.0
C691 C 0.43453 0.73805 0.93243 0.0
C692 C 0.46004 0.7288 0.94043 0.0
C693 C 0.4682 0.71476 0.94316 0.0
C694 C 0.48159 0.71465 0.95298 0.0
C695 C 0.48716 0.72908 0.95985 0.0
C696 C 0.4793 0.74345 0.95659 0.0
C697 C 0.46576 0.74316 0.94708 0.0
C698 C 0.48968 0.69909 0.95621 0.0
C699 C 0.48522 0.75917 0.96318 0.0
C700 C 0.49939 0.72992 0.042 0.0
C701 C 0.513 0.73072 0.05123 0.0
C702 C 0.52701 0.73149 0.04319 0.0
C703 C 0.52756 0.73137 0.02536 0.0
C704 C 0.54145 0.73216 0.01684 0.0
C705 C 0.54188 0.73188 0.99929 0.0
C706 C 0.52845 0.73077 0.98958 0.0
C707 C 0.52877 0.73025 0.97174 0.0
C708 C 0.51517 0.72951 0.96249 0.0
C709 C 0.50115 0.72918 0.97053 0.0
C710 C 0.5006 0.72939 0.98837 0.0
C711 C 0.4867 0.72884 0.9969 0.0
C712 C 0.48626 0.72917 0.01444 0.0
C713 C 0.49971 0.72984 0.02415 0.0
C714 C 0.51386 0.73047 0.01582 0.0
C715 C 0.5143 0.7302 0.99791 0.0
C716 C 0.60416 0.71848 0.95112 0.0
C717 C 0.595 0.7197 0.93457 0.0
O718 O 0.44768 0.72598 0.08334 0.0
O719 O 0.44686 0.72796 0.93128 0.0
O720 O 0.58403 0.7314 0.93573 0.0
O721 O 0.578 0.73465 0.0874 0.0
H722 H 0.45488 0.74222 0.10095 0.0
H723 H 0.46885 0.71696 0.10592 0.0
H724 H 0.45129 0.70636 0.10978 0.0
H725 H 0.45777 0.72175 0.12404 0.0
H726 H 0.46193 0.75273 0.07475 0.0
H727 H 0.45917 0.7023 0.06738 0.0
H728 H 0.49746 0.75984 0.06236 0.0
H729 H 0.47923 0.76919 0.05983 0.0
H730 H 0.48868 0.76099 0.04185 0.0
H731 H 0.47746 0.68834 0.05212 0.0
H732 H 0.49594 0.69774 0.05093 0.0
H733 H 0.48288 0.6995 0.03352 0.0
H734 H 0.57831 0.71274 0.1004 0.0
H735 H 0.59595 0.72268 0.11862 0.0
H736 H 0.59733 0.73995 0.10834 0.0
H737 H 0.61785 0.71849 0.09272 0.0
H738 H 0.56621 0.70774 0.0742 0.0
H739 H 0.5633 0.75879 0.07545 0.0
H740 H 0.53057 0.70006 0.05725 0.0
H741 H 0.54946 0.69192 0.05844 0.0
H742 H 0.54267 0.70159 0.03932 0.0
H743 H 0.54525 0.7731 0.05916 0.0
H744 H 0.52725 0.76268 0.0591 0.0
H745 H 0.53838 0.76329 0.04036 0.0
H746 H 0.58947 0.70802 0.93193 0.0
H747 H 0.57144 0.70534 0.95076 0.0
H748 H 0.56668 0.75542 0.94007 0.0
H749 H 0.54607 0.70114 0.98201 0.0
H750 H 0.55268 0.69017 0.96419 0.0
H751 H 0.53379 0.69835 0.96408 0.0
H752 H 0.54667 0.77043 0.95103 0.0
H753 H 0.53791 0.7624 0.96985 0.0
H754 H 0.52918 0.75916 0.94963 0.0
H755 H 0.43841 0.75067 0.93271 0.0
H756 H 0.41577 0.74218 0.94951 0.0
H757 H 0.43321 0.73641 0.95984 0.0
H758 H 0.42194 0.72166 0.9489 0.0
H759 H 0.46382 0.70376 0.93789 0.0
H760 H 0.45993 0.75426 0.94479 0.0
H761 H 0.49127 0.69708 0.97 0.0
H762 H 0.50111 0.69968 0.95051 0.0
H763 H 0.48338 0.68876 0.95087 0.0
H764 H 0.47871 0.76949 0.95805 0.0
H765 H 0.49734 0.7608 0.95988 0.0
H766 H 0.48448 0.75917 0.97715 0.0
H767 H 0.51268 0.73072 0.06492 0.0
H768 H 0.55215 0.73297 0.02366 0.0
H769 H 0.5529 0.73253 0.99343 0.0
H770 H 0.5155 0.72927 0.94881 0.0
H771 H 0.47598 0.72816 0.99011 0.0
H772 H 0.47523 0.72882 0.02031 0.0
H773 H 0.61302 0.70921 0.95018 0.0
H774 H 0.59665 0.71511 0.96175 0.0
H775 H 0.6097 0.7301 0.95402 0.0
C776 C 0.78468 0.07021 0.61037 0.0
C777 C 0.78285 0.08269 0.59612 0.0
C778 C 0.77352 0.06505 0.5736 0.0
C779 C 0.78752 0.05795 0.57011 0.0
C780 C 0.78826 0.04447 0.55985 0.0
C781 C 0.77474 0.03789 0.55298 0.0
C782 C 0.76069 0.04531 0.55598 0.0
C783 C 0.76031 0.0589 0.56613 0.0
C784 C 0.80346 0.03701 0.5567 0.0
C785 C 0.74605 0.03861 0.54887 0.0
C786 C 0.76526 0.91717 0.60605 0.0
C787 C 0.76171 0.93121 0.595 0.0
C788 C 0.77436 0.95264 0.57913 0.0
C789 C 0.76104 0.9582 0.5711 0.0
C790 C 0.76145 0.97144 0.56005 0.0
C791 C 0.77546 0.97916 0.55677 0.0
C792 C 0.78891 0.97344 0.56459 0.0
C793 C 0.78816 0.96026 0.57571 0.0
C794 C 0.74687 0.97729 0.55201 0.0
C795 C 0.80405 0.98134 0.5613 0.0
C796 C 0.77393 0.94585 0.44765 0.0
C797 C 0.76088 0.95249 0.45473 0.0
C798 C 0.76166 0.967 0.46332 0.0
C799 C 0.77581 0.97494 0.46521 0.0
C800 C 0.78896 0.96831 0.45818 0.0
C801 C 0.78781 0.9539 0.44939 0.0
C802 C 0.74732 0.97388 0.47035 0.0
C803 C 0.80423 0.97642 0.45999 0.0
C804 C 0.77672 0.09781 0.44733 0.0
C805 C 0.78271 0.08868 0.43224 0.0
C806 C 0.77542 0.06133 0.44027 0.0
C807 C 0.76228 0.05218 0.44264 0.0
C808 C 0.76234 0.03859 0.45321 0.0
C809 C 0.77605 0.03378 0.4612 0.0
C810 C 0.78954 0.04263 0.45834 0.0
C811 C 0.78906 0.05641 0.44805 0.0
C812 C 0.74773 0.02944 0.45592 0.0
C813 C 0.80449 0.03749 0.46607 0.0
C814 C 0.77523 0.02261 0.54372 0.0
C815 C 0.77533 0.00848 0.55331 0.0
C816 C 0.77592 0.99359 0.54565 0.0
C817 C 0.77649 0.99267 0.52786 0.0
C818 C 0.77727 0.97791 0.51974 0.0
C819 C 0.77748 0.97711 0.50222 0.0
C820 C 0.77692 0.99104 0.49213 0.0
C821 C 0.7767 0.99032 0.4743 0.0
C822 C 0.77655 0.00443 0.46467 0.0
C823 C 0.77632 0.01935 0.47233 0.0
C824 C 0.77616 0.0203 0.49015 0.0
C825 C 0.77556 0.03508 0.49829 0.0
C826 C 0.77541 0.03589 0.51583 0.0
C827 C 0.77564 0.02194 0.5259 0.0
C828 C 0.77624 0.0069 0.51796 0.0
C829 C 0.7765 0.00609 0.50007 0.0
C830 C 0.75945 0.9115 0.45363 0.0
C831 C 0.76156 0.9213 0.43733 0.0
O832 O 0.77219 0.07755 0.58429 0.0
O833 O 0.7745 0.07462 0.43024 0.0
O834 O 0.7737 0.93183 0.43912 0.0
O835 O 0.77435 0.94009 0.59024 0.0
H836 H 0.79395 0.08467 0.58988 0.0
H837 H 0.78901 0.05884 0.60541 0.0
H838 H 0.7736 0.06778 0.61648 0.0
H839 H 0.79292 0.07451 0.62004 0.0
H840 H 0.79793 0.06268 0.57548 0.0
H841 H 0.74957 0.06451 0.56873 0.0
H842 H 0.80401 0.02524 0.56326 0.0
H843 H 0.81306 0.04453 0.5613 0.0
H844 H 0.80487 0.03495 0.543 0.0
H845 H 0.73603 0.04562 0.5526 0.0
H846 H 0.7445 0.02608 0.55331 0.0
H847 H 0.74654 0.03849 0.53489 0.0
H848 H 0.75223 0.93872 0.59946 0.0
H849 H 0.75967 0.91971 0.61841 0.0
H850 H 0.77715 0.91909 0.61107 0.0
H851 H 0.75908 0.89766 0.59115 0.0
H852 H 0.75026 0.95237 0.57348 0.0
H853 H 0.79838 0.95588 0.58187 0.0
H854 H 0.74753 0.97636 0.53808 0.0
H855 H 0.74523 0.99007 0.55495 0.0
H856 H 0.7368 0.97039 0.55638 0.0
H857 H 0.81361 0.97469 0.56727 0.0
H858 H 0.80404 0.99362 0.56635 0.0
H859 H 0.80598 0.98233 0.5475 0.0
H860 H 0.75102 0.92806 0.43445 0.0
H861 H 0.75001 0.94653 0.45362 0.0
H862 H 0.79782 0.94876 0.44392 0.0
H863 H 0.74799 0.97367 0.48434 0.0
H864 H 0.73702 0.96712 0.46636 0.0
H865 H 0.74609 0.98652 0.46618 0.0
H866 H 0.81355 0.96912 0.45496 0.0
H867 H 0.80666 0.97891 0.47349 0.0
H868 H 0.80405 0.98805 0.4531 0.0
H869 H 0.79489 0.08605 0.43452 0.0
H870 H 0.78312 0.10917 0.44894 0.0
H871 H 0.77813 0.09056 0.45908 0.0
H872 H 0.76447 0.1005 0.4455 0.0
H873 H 0.75185 0.05595 0.43645 0.0
H874 H 0.79947 0.06299 0.44591 0.0
H875 H 0.74578 0.02759 0.46963 0.0
H876 H 0.74857 0.0175 0.45016 0.0
H877 H 0.73778 0.03566 0.45025 0.0
H878 H 0.81421 0.04458 0.46112 0.0
H879 H 0.80646 0.02468 0.46357 0.0
H880 H 0.80417 0.03892 0.47996 0.0
H881 H 0.77487 0.00907 0.56696 0.0
H882 H 0.77766 0.96679 0.52686 0.0
H883 H 0.77804 0.96541 0.49666 0.0
H884 H 0.77641 0.00378 0.45101 0.0
H885 H 0.7752 0.0462 0.4912 0.0
H886 H 0.775 0.04758 0.52141 0.0
H887 H 0.75693 0.91943 0.46431 0.0
H888 H 0.74981 0.90297 0.45217 0.0
H889 H 0.76991 0.90473 0.45682 0.0
C890 C 0.46402 0.31334 0.11115 0.0
C891 C 0.45086 0.31147 0.09842 0.0
C892 C 0.46501 0.3002 0.0749 0.0
C893 C 0.47185 0.31453 0.06934 0.0
C894 C 0.48364 0.31445 0.0576 0.0
C895 C 0.48881 0.29977 0.05137 0.0
C896 C 0.48168 0.28536 0.05657 0.0
C897 C 0.46974 0.2858 0.06812 0.0
C898 C 0.49083 0.33007 0.05214 0.0
C899 C 0.48697 0.26946 0.0503 0.0
C900 C 0.57726 0.32013 0.10465 0.0
C901 C 0.58151 0.3043 0.09666 0.0
C902 C 0.57075 0.30456 0.06861 0.0
C903 C 0.56365 0.28968 0.06677 0.0
C904 C 0.55064 0.28803 0.05652 0.0
C905 C 0.54455 0.30164 0.04817 0.0
C906 C 0.55196 0.31662 0.04974 0.0
C907 C 0.56517 0.31782 0.05976 0.0
C908 C 0.54321 0.27184 0.05491 0.0
C909 C 0.54566 0.33145 0.0413 0.0
C910 C 0.56603 0.2943 0.93706 0.0
C911 C 0.56065 0.28066 0.94574 0.0
C912 C 0.5474 0.2812 0.95535 0.0
C913 C 0.53956 0.29577 0.95672 0.0
C914 C 0.54484 0.30948 0.9479 0.0
C915 C 0.55792 0.3085 0.93803 0.0
C916 C 0.54185 0.26619 0.96414 0.0
C917 C 0.53677 0.32522 0.94905 0.0
C918 C 0.42219 0.30752 0.95062 0.0
C919 C 0.4301 0.30488 0.93379 0.0
C920 C 0.45496 0.29458 0.94334 0.0
C921 C 0.46326 0.28066 0.94615 0.0
C922 C 0.47743 0.28102 0.95444 0.0
C923 C 0.48355 0.29578 0.95982 0.0
C924 C 0.47542 0.31001 0.95662 0.0
C925 C 0.46115 0.30926 0.94856 0.0
C926 C 0.48578 0.26561 0.95765 0.0
C927 C 0.48176 0.326 0.96185 0.0
C928 C 0.50232 0.29947 0.04036 0.0
C929 C 0.5166 0.30033 0.04818 0.0
C930 C 0.5299 0.30039 0.03878 0.0
C931 C 0.52903 0.29945 0.02099 0.0
C932 C 0.54217 0.29932 0.01114 0.0
C933 C 0.54119 0.29857 0.99363 0.0
C934 C 0.52702 0.29768 0.98529 0.0
C935 C 0.52591 0.29665 0.9675 0.0
C936 C 0.51163 0.29606 0.95964 0.0
C937 C 0.49832 0.29631 0.96905 0.0
C938 C 0.49921 0.29706 0.98686 0.0
C939 C 0.48605 0.29706 0.99674 0.0
C940 C 0.48703 0.29793 0.01425 0.0
C941 C 0.5012 0.29866 0.02257 0.0
C942 C 0.51461 0.29862 0.01286 0.0
C943 C 0.51361 0.29779 0.99499 0.0
C944 C 0.59959 0.28404 0.94438 0.0
C945 C 0.59023 0.28295 0.92798 0.0
O946 O 0.45409 0.29967 0.08692 0.0
O947 O 0.44109 0.29321 0.93568 0.0
O948 O 0.57892 0.29437 0.92773 0.0
O949 O 0.5827 0.30638 0.07935 0.0
H950 H 0.449 0.32298 0.09159 0.0
H951 H 0.47454 0.31718 0.10466 0.0
H952 H 0.46622 0.30185 0.11786 0.0
H953 H 0.46131 0.32255 0.12056 0.0
H954 H 0.46821 0.32584 0.07418 0.0
H955 H 0.46434 0.27481 0.07236 0.0
H956 H 0.50257 0.33081 0.05733 0.0
H957 H 0.48441 0.34053 0.05655 0.0
H958 H 0.49155 0.33072 0.03816 0.0
H959 H 0.48057 0.2593 0.05599 0.0
H960 H 0.49923 0.26797 0.05329 0.0
H961 H 0.48559 0.26906 0.03638 0.0
H962 H 0.57234 0.29547 0.0996 0.0
H963 H 0.57632 0.31866 0.11856 0.0
H964 H 0.56613 0.32419 0.09956 0.0
H965 H 0.58594 0.32947 0.10182 0.0
H966 H 0.56822 0.27943 0.07352 0.0
H967 H 0.57084 0.32924 0.06129 0.0
H968 H 0.53221 0.27177 0.0616 0.0
H969 H 0.55038 0.26217 0.06037 0.0
H970 H 0.54078 0.26925 0.04143 0.0
H971 H 0.5522 0.34234 0.04473 0.0
H972 H 0.53364 0.33304 0.04491 0.0
H973 H 0.54591 0.33016 0.02739 0.0
H974 H 0.58506 0.27085 0.92706 0.0
H975 H 0.56663 0.26949 0.9451 0.0
H976 H 0.56206 0.31895 0.93126 0.0
H977 H 0.54364 0.26729 0.97796 0.0
H978 H 0.54791 0.25542 0.95991 0.0
H979 H 0.5295 0.26446 0.9618 0.0
H980 H 0.54301 0.33506 0.94255 0.0
H981 H 0.5353 0.32838 0.96249 0.0
H982 H 0.52529 0.32416 0.94322 0.0
H983 H 0.43545 0.31624 0.9294 0.0
H984 H 0.41327 0.31674 0.94908 0.0
H985 H 0.43047 0.31171 0.96029 0.0
H986 H 0.41688 0.29624 0.95527 0.0
H987 H 0.45845 0.2694 0.94204 0.0
H988 H 0.45499 0.32021 0.94647 0.0
H989 H 0.48856 0.26428 0.9713 0.0
H990 H 0.49665 0.26588 0.95072 0.0
H991 H 0.47908 0.25503 0.95357 0.0
H992 H 0.47486 0.33608 0.95686 0.0
H993 H 0.49358 0.32748 0.95733 0.0
H994 H 0.48211 0.32661 0.97583 0.0
H995 H 0.51736 0.30108 0.06183 0.0
H996 H 0.55338 0.29986 0.01687 0.0
H997 H 0.5517 0.29866 0.98671 0.0
H998 H 0.51085 0.29532 0.94599 0.0
H999 H 0.47484 0.29642 0.99105 0.0
H1000 H 0.47654 0.29798 0.0212 0.0
H1001 H 0.60875 0.27501 0.94459 0.0
H1002 H 0.59229 0.28172 0.95547 0.0
H1003 H 0.60477 0.29611 0.94559 0.0
H1004 H 0.19108 0.33085 0.2468 0.0
H1005 H 0.16854 0.34757 0.24761 0.0
H1006 H 0.19598 0.38712 0.26481 0.0
H1007 H 0.21866 0.37048 0.2638 0.0
H1008 H 0.15497 0.36368 0.27297 0.0
H1009 H 0.17515 0.40599 0.22333 0.0
H1010 H 0.18446 0.38732 0.22789 0.0
H1011 H 0.18758 0.40414 0.24136 0.0
C1012 C 0.19231 0.34306 0.25091 0.0
C1013 C 0.20667 0.34938 0.25512 0.0
C1014 C 0.17941 0.35262 0.25133 0.0
C1015 C 0.1806 0.36867 0.256 0.0
C1016 C 0.19485 0.37488 0.26078 0.0
H1017 H 0.0973 0.42438 0.27052 0.0
H1018 H 0.12184 0.41154 0.27593 0.0
C1019 C 0.20779 0.36535 0.26022 0.0
C1020 C 0.16693 0.37889 0.25542 0.0
H1021 H 0.15161 0.41152 0.23559 0.0
C1022 C 0.15424 0.37421 0.26488 0.0
C1023 C 0.16598 0.39254 0.24473 0.0
C1024 C 0.17895 0.39776 0.23362 0.0
C1025 C 0.14053 0.38259 0.26369 0.0
C1026 C 0.13959 0.39624 0.25301 0.0
C1027 C 0.15239 0.40113 0.24386 0.0
C1028 C 0.12512 0.40481 0.24996 0.0
C1029 C 0.127 0.37633 0.2733 0.0
C1030 C 0.11905 0.40573 0.23353 0.0
C1031 C 0.10525 0.4133 0.23037 0.0
C1032 C 0.09724 0.42025 0.24356 0.0
C1033 C 0.10335 0.41939 0.26005 0.0
C1034 C 0.11727 0.41189 0.26319 0.0
H1035 H 0.12863 0.36382 0.27774 0.0
H1036 H 0.12529 0.3838 0.28455 0.0
H1037 H 0.11653 0.37686 0.26537 0.0
H1038 H 0.12487 0.4003 0.22314 0.0
H1039 H 0.10068 0.41351 0.21762 0.0
H1040 H 0.20199 0.6723 0.72838 0.0
H1041 H 0.17958 0.65501 0.72612 0.0
H1042 H 0.17672 0.65269 0.78038 0.0
H1043 H 0.19879 0.67044 0.78275 0.0
H1044 H 0.17667 0.62426 0.73863 0.0
H1045 H 0.13324 0.66324 0.76638 0.0
H1046 H 0.15151 0.67071 0.75968 0.0
H1047 H 0.14975 0.66022 0.77952 0.0
C1048 C 0.19643 0.66837 0.73983 0.0
C1049 C 0.20218 0.6728 0.75575 0.0
C1050 C 0.18368 0.65839 0.73852 0.0
C1051 C 0.17636 0.65272 0.75307 0.0
C1052 C 0.18201 0.65716 0.76898 0.0
H1053 H 0.10365 0.58259 0.76771 0.0
H1054 H 0.12418 0.60218 0.772 0.0
C1055 C 0.19475 0.66715 0.77031 0.0
C1056 C 0.16331 0.64151 0.75157 0.0
H1057 H 0.1258 0.63647 0.76096 0.0
C1058 C 0.16554 0.62696 0.74345 0.0
C1059 C 0.14881 0.64502 0.75797 0.0
C1060 C 0.14559 0.6607 0.76625 0.0
C1061 C 0.1537 0.6158 0.74162 0.0
C1062 C 0.1392 0.61936 0.7479 0.0
C1063 C 0.13696 0.6338 0.75619 0.0
C1064 C 0.12616 0.60833 0.74551 0.0
C1065 C 0.15682 0.60018 0.73315 0.0
C1066 C 0.12034 0.60556 0.72926 0.0
C1067 C 0.10859 0.59453 0.7268 0.0
C1068 C 0.10231 0.58615 0.74057 0.0
C1069 C 0.10805 0.5891 0.7569 0.0
C1070 C 0.11979 0.60022 0.75936 0.0
H1071 H 0.16917 0.59779 0.73244 0.0
H1072 H 0.15125 0.59012 0.74 0.0
H1073 H 0.15211 0.60059 0.7201 0.0
H1074 H 0.12507 0.61178 0.71843 0.0
H1075 H 0.10457 0.59232 0.71406 0.0
H1076 H 0.82832 0.68255 0.21329 0.0
H1077 H 0.84901 0.66332 0.21563 0.0
H1078 H 0.8443 0.66197 0.26972 0.0
H1079 H 0.82329 0.68074 0.26747 0.0
H1080 H 0.87673 0.665 0.23294 0.0
H1081 H 0.84133 0.61494 0.25729 0.0
H1082 H 0.83325 0.63276 0.24798 0.0
H1083 H 0.84002 0.63272 0.2695 0.0
C1084 C 0.83159 0.67805 0.22568 0.0
C1085 C 0.82405 0.6831 0.24019 0.0
C1086 C 0.84349 0.66715 0.227 0.0
C1087 C 0.84802 0.66102 0.24282 0.0
C1088 C 0.84079 0.66632 0.25735 0.0
H1089 H 0.9156 0.59621 0.28175 0.0
H1090 H 0.89613 0.61652 0.27714 0.0
C1091 C 0.82889 0.6772 0.25606 0.0
C1092 C 0.8603 0.64906 0.24416 0.0
H1093 H 0.86807 0.61135 0.25846 0.0
C1094 C 0.87483 0.65322 0.2384 0.0
C1095 C 0.85776 0.63367 0.25119 0.0
C1096 C 0.84222 0.62816 0.25669 0.0
C1097 C 0.88701 0.64256 0.23999 0.0
C1098 C 0.88451 0.62733 0.24738 0.0
C1099 C 0.86995 0.62309 0.25289 0.0
C1100 C 0.89691 0.6157 0.24991 0.0
C1101 C 0.90253 0.64778 0.23418 0.0
C1102 C 0.90374 0.60847 0.23609 0.0
C1103 C 0.91485 0.59683 0.23869 0.0
C1104 C 0.91945 0.59238 0.25517 0.0
C1105 C 0.91254 0.59966 0.26893 0.0
C1106 C 0.90139 0.61119 0.26633 0.0
H1107 H 0.90316 0.66083 0.23163 0.0
H1108 H 0.91131 0.64457 0.2438 0.0
H1109 H 0.90526 0.64151 0.22238 0.0
H1110 H 0.9002 0.61157 0.22333 0.0
H1111 H 0.91968 0.59113 0.22785 0.0
H1112 H 0.82671 0.33338 0.76618 0.0
H1113 H 0.84653 0.35341 0.77135 0.0
H1114 H 0.84373 0.36879 0.71926 0.0
H1115 H 0.82363 0.34904 0.71405 0.0
H1116 H 0.87495 0.35615 0.755 0.0
H1117 H 0.84019 0.41065 0.74552 0.0
H1118 H 0.83182 0.39115 0.74897 0.0
H1119 H 0.83928 0.39655 0.72867 0.0
C1120 C 0.83015 0.34118 0.75587 0.0
C1121 C 0.82353 0.33966 0.73971 0.0
C1122 C 0.84154 0.35254 0.75882 0.0
C1123 C 0.84647 0.3627 0.74574 0.0
C1124 C 0.83993 0.36123 0.72959 0.0
H1125 H 0.91418 0.44996 0.74541 0.0
H1126 H 0.8919 0.42597 0.73581 0.0
C1127 C 0.82855 0.34983 0.7266 0.0
C1128 C 0.85876 0.3745 0.74896 0.0
H1129 H 0.86647 0.41446 0.75017 0.0
C1130 C 0.8731 0.36891 0.75398 0.0
C1131 C 0.85636 0.39112 0.74739 0.0
C1132 C 0.84106 0.3978 0.74247 0.0
C1133 C 0.88513 0.37948 0.75755 0.0
C1134 C 0.88261 0.3961 0.75643 0.0
C1135 C 0.86838 0.40171 0.75102 0.0
C1136 C 0.89428 0.40791 0.76151 0.0
C1137 C 0.90047 0.37268 0.762 0.0
C1138 C 0.90286 0.40615 0.7823 0.0
C1139 C 0.91629 0.42088 0.78965 0.0
C1140 C 0.92266 0.43545 0.77323 0.0
C1141 C 0.91112 0.44032 0.75396 0.0
C1142 C 0.89785 0.42493 0.74779 0.0
H1143 H 0.90176 0.3605 0.75689 0.0
H1144 H 0.90976 0.38033 0.75702 0.0
H1145 H 0.90172 0.37175 0.77592 0.0
H1146 H 0.89969 0.39637 0.7906 0.0
H1147 H 0.92237 0.41926 0.80149 0.0
H1148 H 0.23837 0.20555 0.3251 0.0
H1149 H 0.24134 0.18314 0.34499 0.0
H1150 H 0.28795 0.19697 0.35403 0.0
H1151 H 0.28495 0.21968 0.3346 0.0
H1152 H 0.2614 0.15753 0.34467 0.0
H1153 H 0.27052 0.19434 0.40157 0.0
H1154 H 0.26323 0.2025 0.38191 0.0
H1155 H 0.28324 0.19916 0.38471 0.0
C1156 C 0.24921 0.20391 0.33144 0.0
C1157 C 0.26139 0.21448 0.32835 0.0
C1158 C 0.25092 0.19104 0.34271 0.0
C1159 C 0.26479 0.18855 0.35118 0.0
C1160 C 0.27706 0.19885 0.34786 0.0
H1161 H 0.30167 0.11934 0.42146 0.0
H1162 H 0.29708 0.14068 0.40062 0.0
C1163 C 0.27538 0.21172 0.33659 0.0
C1164 C 0.26645 0.17516 0.36347 0.0
H1165 H 0.27535 0.16657 0.40466 0.0
C1166 C 0.26434 0.15948 0.35782 0.0
C1167 C 0.27021 0.17777 0.38063 0.0
C1168 C 0.27179 0.19435 0.38764 0.0
C1169 C 0.26633 0.14633 0.36879 0.0
C1170 C 0.27039 0.14897 0.38583 0.0
C1171 C 0.2723 0.16462 0.39154 0.0
C1172 C 0.27308 0.13563 0.39792 0.0
C1173 C 0.26447 0.12969 0.36202 0.0
C1174 C 0.26105 0.12585 0.40337 0.0
C1175 C 0.26363 0.11369 0.41533 0.0
C1176 C 0.27834 0.11099 0.42183 0.0
C1177 C 0.29031 0.12092 0.41638 0.0
C1178 C 0.2877 0.13312 0.40455 0.0
H1179 H 0.26393 0.12964 0.34801 0.0
H1180 H 0.274 0.12203 0.36639 0.0
H1181 H 0.2538 0.12433 0.36688 0.0
H1182 H 0.24963 0.12782 0.39862 0.0
H1183 H 0.25411 0.10653 0.41962 0.0
H1184 H 0.33855 0.71239 0.80767 0.0
H1185 H 0.35651 0.70915 0.83139 0.0
H1186 H 0.35752 0.76011 0.83798 0.0
H1187 H 0.33939 0.76342 0.81466 0.0
H1188 H 0.38631 0.72282 0.83514 0.0
H1189 H 0.34761 0.74219 0.88531 0.0
H1190 H 0.34087 0.7363 0.86468 0.0
H1191 H 0.34868 0.75595 0.86778 0.0
C1192 C 0.34249 0.72288 0.8143 0.0
C1193 C 0.33752 0.73817 0.8093 0.0
C1194 C 0.3528 0.72101 0.82776 0.0
C1195 C 0.35818 0.73437 0.83655 0.0
C1196 C 0.35333 0.74962 0.83152 0.0
H1197 H 0.41946 0.76153 0.91501 0.0
H1198 H 0.40132 0.7589 0.89162 0.0
C1199 C 0.34308 0.75151 0.81807 0.0
C1200 C 0.36905 0.73256 0.85085 0.0
H1201 H 0.37399 0.74139 0.89247 0.0
C1202 C 0.3836 0.72666 0.84774 0.0
C1203 C 0.36542 0.73752 0.86728 0.0
C1204 C 0.34975 0.7432 0.87155 0.0
C1205 C 0.39486 0.72636 0.86047 0.0
C1206 C 0.39137 0.73191 0.87673 0.0
C1207 C 0.37666 0.73725 0.87996 0.0
C1208 C 0.40299 0.73322 0.89034 0.0
C1209 C 0.41058 0.72079 0.85625 0.0
C1210 C 0.40993 0.71962 0.89742 0.0
C1211 C 0.42039 0.7211 0.91078 0.0
C1212 C 0.42411 0.73623 0.91721 0.0
C1213 C 0.41705 0.74976 0.91011 0.0
C1214 C 0.40664 0.74827 0.89681 0.0
H1215 H 0.41218 0.71984 0.84242 0.0
H1216 H 0.41932 0.72907 0.86141 0.0
H1217 H 0.41247 0.70885 0.86208 0.0
H1218 H 0.40703 0.70786 0.89285 0.0
H1219 H 0.42539 0.71045 0.91627 0.0
H1220 H 0.79871 0.8135 0.32999 0.0
H1221 H 0.79694 0.83447 0.35098 0.0
H1222 H 0.74874 0.83747 0.34161 0.0
H1223 H 0.75028 0.81605 0.32113 0.0
H1224 H 0.78714 0.86553 0.34789 0.0
H1225 H 0.75094 0.83133 0.39254 0.0
H1226 H 0.76046 0.82206 0.37526 0.0
H1227 H 0.74305 0.83267 0.37158 0.0
C1228 C 0.78769 0.81847 0.33254 0.0
C1229 C 0.77461 0.81295 0.32397 0.0
C1230 C 0.78673 0.83055 0.34445 0.0
C1231 C 0.77268 0.83734 0.34808 0.0
C1232 C 0.75966 0.83217 0.33927 0.0
H1233 H 0.74067 0.91006 0.41451 0.0
H1234 H 0.74413 0.89037 0.39244 0.0
C1235 C 0.7606 0.82005 0.3274 0.0
C1236 C 0.77165 0.84988 0.36104 0.0
H1237 H 0.75439 0.85893 0.39798 0.0
C1238 C 0.78005 0.86407 0.35889 0.0
C1239 C 0.76246 0.84791 0.37545 0.0
C1240 C 0.75383 0.83261 0.37898 0.0
C1241 C 0.77918 0.87651 0.37053 0.0
C1242 C 0.76978 0.87462 0.38476 0.0
C1243 C 0.76152 0.86038 0.387 0.0
C1244 C 0.76812 0.88732 0.39741 0.0
C1245 C 0.78801 0.89172 0.36732 0.0
C1246 C 0.78048 0.89212 0.40755 0.0
C1247 C 0.77854 0.90342 0.42016 0.0
C1248 C 0.76421 0.91018 0.42277 0.0
C1249 C 0.75189 0.90532 0.41257 0.0
C1250 C 0.75384 0.89402 0.40002 0.0
H1251 H 0.79197 0.89265 0.35409 0.0
H1252 H 0.78102 0.90231 0.37004 0.0
H1253 H 0.79813 0.89199 0.3758 0.0
H1254 H 0.79153 0.88682 0.40601 0.0
H1255 H 0.78815 0.90664 0.4281 0.0
H1256 H 0.69384 0.27048 0.81742 0.0
H1257 H 0.67345 0.26918 0.83803 0.0
H1258 H 0.66344 0.31873 0.82818 0.0
H1259 H 0.68348 0.32 0.80712 0.0
H1260 H 0.67149 0.28686 0.86705 0.0
H1261 H 0.62152 0.29785 0.82519 0.0
H1262 H 0.63984 0.29255 0.81715 0.0
H1263 H 0.6363 0.31265 0.82353 0.0
C1264 C 0.68711 0.28102 0.81938 0.0
C1265 C 0.69028 0.29533 0.81057 0.0
C1266 C 0.67553 0.28029 0.83126 0.0
C1267 C 0.66681 0.2938 0.83451 0.0
C1268 C 0.66984 0.30808 0.82567 0.0
H1269 H 0.59906 0.31107 0.91179 0.0
H1270 H 0.61736 0.31432 0.88885 0.0
C1271 C 0.68143 0.30883 0.81377 0.0
C1272 C 0.65507 0.29311 0.84776 0.0
H1273 H 0.61713 0.29742 0.8547 0.0
C1274 C 0.6596 0.28913 0.86433 0.0
C1275 C 0.63957 0.29616 0.8442 0.0
C1276 C 0.63395 0.29991 0.82654 0.0
C1277 C 0.64907 0.28813 0.87744 0.0
C1278 C 0.63359 0.29104 0.87385 0.0
C1279 C 0.62904 0.29524 0.85737 0.0
C1280 C 0.62194 0.28911 0.88701 0.0
C1281 C 0.65456 0.28405 0.89508 0.0
C1282 C 0.61835 0.27386 0.89334 0.0
C1283 C 0.60783 0.27195 0.90624 0.0
C1284 C 0.60059 0.28526 0.913 0.0
C1285 C 0.60419 0.30056 0.90659 0.0
C1286 C 0.61466 0.30244 0.89355 0.0
H1287 H 0.66707 0.28531 0.89641 0.0
H1288 H 0.64909 0.29181 0.90443 0.0
H1289 H 0.6514 0.2715 0.89816 0.0
H1290 H 0.62385 0.26343 0.88841 0.0
H1291 H 0.60549 0.26007 0.91115 0.0
H1292 H 0.26569 0.82059 0.69761 0.0
H1293 H 0.26882 0.8447 0.68024 0.0
H1294 H 0.26846 0.81621 0.63536 0.0
H1295 H 0.26521 0.79201 0.65269 0.0
H1296 H 0.29116 0.85369 0.65822 0.0
H1297 H 0.23559 0.84871 0.62472 0.0
H1298 H 0.24027 0.83674 0.64314 0.0
H1299 H 0.24758 0.83163 0.62286 0.0
C1300 C 0.26639 0.81944 0.68405 0.0
C1301 C 0.26513 0.80439 0.67652 0.0
C1302 C 0.26813 0.83323 0.67413 0.0
C1303 C 0.26864 0.83228 0.65648 0.0
C1304 C 0.26774 0.81726 0.64892 0.0
H1305 H 0.29559 0.91535 0.5943 0.0
H1306 H 0.29447 0.8885 0.607 0.0
C1307 C 0.2659 0.80344 0.65884 0.0
C1308 C 0.27007 0.8471 0.64612 0.0
H1309 H 0.25176 0.86988 0.61626 0.0
C1310 C 0.28259 0.85721 0.64899 0.0
C1311 C 0.25879 0.85172 0.63419 0.0
C1312 C 0.24472 0.84173 0.6311 0.0
C1313 C 0.28407 0.87191 0.64041 0.0
C1314 C 0.27285 0.87647 0.62839 0.0
C1315 C 0.26041 0.86628 0.62537 0.0
C1316 C 0.27323 0.89226 0.6197 0.0
C1317 C 0.29732 0.88268 0.64476 0.0
C1318 C 0.26143 0.90308 0.62217 0.0
C1319 C 0.26195 0.91829 0.61476 0.0
C1320 C 0.27419 0.92294 0.60457 0.0
C1321 C 0.28591 0.91201 0.60189 0.0
C1322 C 0.28536 0.89674 0.60927 0.0
H1323 H 0.30289 0.87908 0.65687 0.0
H1324 H 0.3059 0.88205 0.63467 0.0
H1325 H 0.29365 0.89527 0.64569 0.0
H1326 H 0.25199 0.89989 0.63019 0.0
H1327 H 0.25289 0.92654 0.61726 0.0
H1328 H 0.69053 0.77465 0.18124 0.0
H1329 H 0.67104 0.76913 0.15975 0.0
H1330 H 0.6697 0.71977 0.17575 0.0
H1331 H 0.68888 0.72525 0.19753 0.0
H1332 H 0.67266 0.74744 0.13314 0.0
H1333 H 0.62481 0.73236 0.17543 0.0
H1334 H 0.64174 0.74254 0.18273 0.0
H1335 H 0.64177 0.7213 0.17995 0.0
C1336 C 0.68593 0.76267 0.18034 0.0
C1337 C 0.69122 0.7504 0.19115 0.0
C1338 C 0.67486 0.75952 0.16799 0.0
C1339 C 0.66876 0.7441 0.16632 0.0
C1340 C 0.67405 0.73182 0.17703 0.0
H1341 H 0.59913 0.68937 0.10074 0.0
H1342 H 0.62153 0.70014 0.12511 0.0
C1343 C 0.68514 0.73494 0.18934 0.0
C1344 C 0.6573 0.74069 0.15294 0.0
H1345 H 0.62141 0.72619 0.14638 0.0
C1346 C 0.66138 0.74297 0.13601 0.0
C1347 C 0.64263 0.73479 0.15674 0.0
C1348 C 0.63739 0.73273 0.17469 0.0
C1349 C 0.65138 0.73898 0.12275 0.0
C1350 C 0.63676 0.73295 0.12657 0.0
C1351 C 0.63261 0.73086 0.14349 0.0
C1352 C 0.62583 0.72794 0.11335 0.0
C1353 C 0.65694 0.74055 0.10487 0.0
C1354 C 0.62135 0.74123 0.09583 0.0
C1355 C 0.60811 0.73523 0.07955 0.0
C1356 C 0.59747 0.7164 0.08435 0.0
C1357 C 0.60477 0.7008 0.0992 0.0
C1358 C 0.61812 0.70794 0.11477 0.0
H1359 H 0.66953 0.74009 0.10439 0.0
H1360 H 0.65221 0.73099 0.09676 0.0
H1361 H 0.65342 0.75228 0.09954 0.0
H1362 H 0.62644 0.753 0.09517 0.0
H1363 H 0.60439 0.74353 0.0698 0.0
H1364 H 0.77384 0.20364 0.69124 0.0
H1365 H 0.77897 0.18153 0.67244 0.0
H1366 H 0.73293 0.18331 0.65347 0.0
H1367 H 0.72783 0.20579 0.67185 0.0
H1368 H 0.76462 0.152 0.67236 0.0
H1369 H 0.75759 0.18262 0.61014 0.0
H1370 H 0.75983 0.19337 0.6296 0.0
H1371 H 0.7418 0.18461 0.62403 0.0
C1372 C 0.76488 0.19955 0.68284 0.0
C1373 C 0.75043 0.20655 0.68302 0.0
C1374 C 0.7678 0.18682 0.67219 0.0
C1375 C 0.75639 0.18089 0.66141 0.0
C1376 C 0.74198 0.18787 0.66147 0.0
H1377 H 0.75395 0.0927 0.60395 0.0
H1378 H 0.74687 0.1169 0.61899 0.0
C1379 C 0.73904 0.20061 0.67213 0.0
C1380 C 0.75943 0.16691 0.65072 0.0
H1381 H 0.76069 0.1545 0.60985 0.0
C1382 C 0.76377 0.15257 0.6587 0.0
C1383 C 0.75831 0.16767 0.63288 0.0
C1384 C 0.75426 0.18292 0.6236 0.0
C1385 C 0.76697 0.13896 0.64933 0.0
C1386 C 0.76585 0.13974 0.63155 0.0
C1387 C 0.76144 0.15399 0.62352 0.0
C1388 C 0.76986 0.12592 0.6212 0.0
C1389 C 0.77163 0.1238 0.6584 0.0
C1390 C 0.78508 0.12318 0.61736 0.0
C1391 C 0.78913 0.1095 0.60869 0.0
C1392 C 0.77802 0.09835 0.60362 0.0
C1393 C 0.76272 0.10125 0.60735 0.0
C1394 C 0.75867 0.115 0.61598 0.0
H1395 H 0.77093 0.1248 0.67233 0.0
H1396 H 0.76428 0.11373 0.65425 0.0
H1397 H 0.78348 0.12089 0.65509 0.0
H1398 H 0.79386 0.13144 0.62145 0.0
H1399 H 0.80102 0.1074 0.60632 0.0
H1400 H 0.34176 0.25789 0.19198 0.0
H1401 H 0.36209 0.26295 0.17183 0.0
H1402 H 0.35971 0.31335 0.18146 0.0
H1403 H 0.33979 0.30834 0.20211 0.0
H1404 H 0.363 0.28123 0.14261 0.0
H1405 H 0.40439 0.304 0.18997 0.0
H1406 H 0.38708 0.29382 0.19584 0.0
H1407 H 0.38675 0.31455 0.18965 0.0
C1408 C 0.34566 0.27004 0.18995 0.0
C1409 C 0.33925 0.28269 0.19882 0.0
C1410 C 0.3572 0.27292 0.17832 0.0
C1411 C 0.36261 0.28849 0.17537 0.0
C1412 C 0.35592 0.3012 0.1838 0.0
H1413 H 0.43019 0.33202 0.11107 0.0
H1414 H 0.40831 0.32596 0.1289 0.0
C1415 C 0.34441 0.29833 0.19546 0.0
C1416 C 0.3753 0.2914 0.16357 0.0
H1417 H 0.41113 0.30709 0.16115 0.0
C1418 C 0.37355 0.2868 0.14667 0.0
C1419 C 0.38911 0.29857 0.16893 0.0
C1420 C 0.39205 0.30288 0.18712 0.0
C1421 C 0.38513 0.28954 0.13491 0.0
C1422 C 0.39877 0.297 0.14024 0.0
C1423 C 0.40058 0.30147 0.15713 0.0
C1424 C 0.41132 0.30041 0.12847 0.0
C1425 C 0.38264 0.28476 0.11681 0.0
C1426 C 0.42024 0.28802 0.12239 0.0
C1427 C 0.43279 0.29145 0.11227 0.0
C1428 C 0.43647 0.30734 0.10787 0.0
C1429 C 0.42741 0.31967 0.11393 0.0
C1430 C 0.41497 0.31624 0.12415 0.0
H1431 H 0.37065 0.28132 0.11416 0.0
H1432 H 0.38591 0.29469 0.10813 0.0
H1433 H 0.38995 0.27443 0.11405 0.0
H1434 H 0.41773 0.27574 0.12586 0.0
H1435 H 0.43978 0.28171 0.10818 0.0
H1436 H 0.82813 0.67591 0.79287 0.0
H1437 H 0.84912 0.65728 0.79047 0.0
H1438 H 0.84614 0.66103 0.73621 0.0
H1439 H 0.82501 0.67965 0.73849 0.0
H1440 H 0.84802 0.62782 0.77425 0.0
H1441 H 0.89168 0.66809 0.74608 0.0
H1442 H 0.87489 0.67553 0.75603 0.0
H1443 H 0.87366 0.66742 0.73521 0.0
C1444 C 0.8319 0.67276 0.78041 0.0
C1445 C 0.82484 0.67923 0.76587 0.0
C1446 C 0.84395 0.66218 0.77907 0.0
C1447 C 0.84928 0.65789 0.76318 0.0
C1448 C 0.8424 0.66442 0.74861 0.0
H1449 H 0.9188 0.58685 0.74068 0.0
H1450 H 0.89886 0.60704 0.73745 0.0
C1451 C 0.83031 0.67504 0.74993 0.0
C1452 C 0.86157 0.646 0.76203 0.0
H1453 H 0.89834 0.64103 0.7501 0.0
C1454 C 0.859 0.6307 0.76891 0.0
C1455 C 0.87584 0.64975 0.75495 0.0
C1456 C 0.87931 0.66611 0.74774 0.0
C1457 C 0.8704 0.61914 0.76915 0.0
C1458 C 0.8848 0.62303 0.76254 0.0
C1459 C 0.88727 0.63814 0.75518 0.0
C1460 C 0.89761 0.61179 0.76414 0.0
C1461 C 0.86699 0.60284 0.77658 0.0
C1462 C 0.90364 0.60806 0.78016 0.0
C1463 C 0.91503 0.5967 0.78202 0.0
C1464 C 0.92074 0.58893 0.76787 0.0
C1465 C 0.91483 0.59287 0.75176 0.0
C1466 C 0.90344 0.60433 0.74991 0.0
H1467 H 0.85459 0.60053 0.77742 0.0
H1468 H 0.87214 0.59336 0.76893 0.0
H1469 H 0.87194 0.60203 0.78952 0.0
H1470 H 0.89932 0.61375 0.79128 0.0
H1471 H 0.91918 0.59372 0.79459 0.0
H1472 H 0.83963 0.32075 0.2561 0.0
H1473 H 0.86138 0.33894 0.25846 0.0
H1474 H 0.85351 0.35548 0.20735 0.0
H1475 H 0.83189 0.33716 0.20475 0.0
H1476 H 0.88762 0.33991 0.23798 0.0
H1477 H 0.85602 0.397 0.23475 0.0
H1478 H 0.84687 0.37807 0.23923 0.0
H1479 H 0.85194 0.38335 0.21798 0.0
C1480 C 0.84257 0.32818 0.24531 0.0
C1481 C 0.83397 0.32751 0.23024 0.0
C1482 C 0.85494 0.33863 0.24672 0.0
C1483 C 0.85891 0.3487 0.23316 0.0
C1484 C 0.85044 0.34804 0.21808 0.0
H1485 H 0.93398 0.41646 0.2201 0.0
H1486 H 0.91123 0.3998 0.21574 0.0
C1487 C 0.83807 0.33756 0.21664 0.0
C1488 C 0.87222 0.35953 0.23467 0.0
H1489 H 0.88285 0.39882 0.23484 0.0
C1490 C 0.88658 0.35279 0.23732 0.0
C1491 C 0.87082 0.37632 0.2337 0.0
C1492 C 0.85558 0.38418 0.23139 0.0
C1493 C 0.89961 0.36239 0.239 0.0
C1494 C 0.89819 0.37918 0.23828 0.0
C1495 C 0.88387 0.38594 0.23539 0.0
C1496 C 0.91142 0.38985 0.24108 0.0
C1497 C 0.91484 0.35452 0.24136 0.0
C1498 C 0.91883 0.38995 0.25684 0.0
C1499 C 0.93168 0.3995 0.25939 0.0
C1500 C 0.93729 0.40929 0.24629 0.0
C1501 C 0.92974 0.40929 0.23052 0.0
C1502 C 0.91681 0.39975 0.228 0.0
H1503 H 0.9145 0.34183 0.23751 0.0
H1504 H 0.92369 0.3609 0.23397 0.0
H1505 H 0.91822 0.3549 0.25489 0.0
H1506 H 0.91476 0.38249 0.26712 0.0
H1507 H 0.93741 0.39907 0.27157 0.0
H1508 H 0.20042 0.34686 0.78851 0.0
H1509 H 0.17763 0.36322 0.78672 0.0
H1510 H 0.15923 0.33268 0.74806 0.0
H1511 H 0.18158 0.31577 0.75039 0.0
H1512 H 0.16563 0.38034 0.76069 0.0
H1513 H 0.12462 0.33356 0.78076 0.0
H1514 H 0.14486 0.33109 0.78292 0.0
H1515 H 0.1355 0.32778 0.76293 0.0
C1516 C 0.19143 0.34345 0.77982 0.0
C1517 C 0.19281 0.32987 0.76972 0.0
C1518 C 0.17846 0.35291 0.77871 0.0
C1519 C 0.16659 0.34902 0.76749 0.0
C1520 C 0.16807 0.33571 0.75711 0.0
H1521 H 0.08262 0.39165 0.73434 0.0
H1522 H 0.10637 0.37687 0.73756 0.0
C1523 C 0.18098 0.32617 0.75829 0.0
C1524 C 0.15278 0.35901 0.76645 0.0
H1525 H 0.11412 0.35741 0.76886 0.0
C1526 C 0.15438 0.37536 0.76262 0.0
C1527 C 0.1381 0.35252 0.76909 0.0
C1528 C 0.13564 0.33531 0.77433 0.0
C1529 C 0.14166 0.38526 0.76087 0.0
C1530 C 0.12702 0.37864 0.76304 0.0
C1531 C 0.1254 0.36238 0.7671 0.0
C1532 C 0.11315 0.38829 0.76078 0.0
C1533 C 0.14387 0.40265 0.75635 0.0
C1534 C 0.10914 0.39953 0.77284 0.0
C1535 C 0.09555 0.40795 0.77107 0.0
C1536 C 0.08588 0.40539 0.75706 0.0
C1537 C 0.09001 0.39411 0.74503 0.0
C1538 C 0.10351 0.38563 0.74689 0.0
H1539 H 0.15579 0.40548 0.75291 0.0
H1540 H 0.13628 0.40607 0.74562 0.0
H1541 H 0.14082 0.41003 0.76728 0.0
H1542 H 0.11635 0.40153 0.78379 0.0
H1543 H 0.09248 0.41625 0.78077 0.0
H1544 H 0.19128 0.69554 0.22728 0.0
H1545 H 0.17235 0.67418 0.22459 0.0
H1546 H 0.16451 0.67547 0.27814 0.0
H1547 H 0.18351 0.69674 0.28099 0.0
H1548 H 0.17194 0.64403 0.24022 0.0
H1549 H 0.12166 0.67934 0.25785 0.0
H1550 H 0.13955 0.68851 0.25228 0.0
H1551 H 0.13706 0.6798 0.27293 0.0
C1552 C 0.1856 0.69123 0.23851 0.0
C1553 C 0.18887 0.69792 0.25434 0.0
C1554 C 0.17473 0.67908 0.23694 0.0
C1555 C 0.16686 0.67342 0.25112 0.0
C1556 C 0.1702 0.67992 0.26697 0.0
H1557 H 0.0999 0.5969 0.26404 0.0
H1558 H 0.11842 0.61846 0.26881 0.0
C1559 C 0.18106 0.69208 0.26856 0.0
C1560 C 0.15541 0.66046 0.24935 0.0
H1561 H 0.11781 0.65155 0.25437 0.0
C1562 C 0.1601 0.64568 0.24328 0.0
C1563 C 0.13998 0.66265 0.25341 0.0
C1564 C 0.13418 0.67846 0.25934 0.0
C1565 C 0.14978 0.63299 0.24122 0.0
C1566 C 0.13436 0.63522 0.24515 0.0
C1567 C 0.12967 0.64991 0.25141 0.0
C1568 C 0.12285 0.62254 0.24231 0.0
C1569 C 0.15545 0.61723 0.23501 0.0
C1570 C 0.11911 0.6179 0.22584 0.0
C1571 C 0.10845 0.60576 0.22307 0.0
C1572 C 0.10122 0.59812 0.23672 0.0
C1573 C 0.10502 0.60279 0.25325 0.0
C1574 C 0.11563 0.61504 0.256 0.0
H1575 H 0.168 0.61635 0.23612 0.0
H1576 H 0.15024 0.60715 0.24218 0.0
H1577 H 0.15221 0.61593 0.22152 0.0
H1578 H 0.12451 0.62362 0.21511 0.0
H1579 H 0.10595 0.60221 0.21024 0.0
H1580 H 0.80035 0.81741 0.68459 0.0
H1581 H 0.79832 0.83948 0.66416 0.0
H1582 H 0.74973 0.83928 0.66969 0.0
H1583 H 0.75159 0.81706 0.6899 0.0
H1584 H 0.78178 0.83892 0.63339 0.0
H1585 H 0.76146 0.88665 0.675 0.0
H1586 H 0.77017 0.86864 0.68313 0.0
H1587 H 0.75064 0.86843 0.6763 0.0
C1588 C 0.78922 0.82204 0.68145 0.0
C1589 C 0.77613 0.81542 0.68889 0.0
C1590 C 0.7881 0.83472 0.66986 0.0
C1591 C 0.7739 0.84115 0.66558 0.0
C1592 C 0.76083 0.83472 0.67309 0.0
H1593 H 0.73049 0.91632 0.59493 0.0
H1594 H 0.73801 0.89208 0.61991 0.0
C1595 C 0.76192 0.82201 0.68466 0.0
C1596 C 0.77264 0.85391 0.6525 0.0
H1597 H 0.7597 0.8917 0.64536 0.0
C1598 C 0.77714 0.85055 0.63603 0.0
C1599 C 0.76651 0.86902 0.65599 0.0
C1600 C 0.76203 0.8735 0.67359 0.0
C1601 C 0.77513 0.86166 0.62276 0.0
C1602 C 0.76883 0.87671 0.62622 0.0
C1603 C 0.76458 0.88018 0.64275 0.0
C1604 C 0.76562 0.88868 0.61283 0.0
C1605 C 0.77903 0.85673 0.60511 0.0
C1606 C 0.78015 0.89438 0.59793 0.0
C1607 C 0.77626 0.90879 0.58137 0.0
C1608 C 0.75784 0.91933 0.58338 0.0
C1609 C 0.7415 0.91073 0.59512 0.0
C1610 C 0.74653 0.89627 0.61117 0.0
H1611 H 0.77884 0.84354 0.60388 0.0
H1612 H 0.77104 0.86188 0.5956 0.0
H1613 H 0.79068 0.86094 0.6022 0.0
H1614 H 0.79137 0.88934 0.59905 0.0
H1615 H 0.78518 0.91326 0.57328 0.0
H1616 H 0.68324 0.24943 0.19599 0.0
H1617 H 0.66226 0.25739 0.17741 0.0
H1618 H 0.69362 0.28196 0.14455 0.0
H1619 H 0.71482 0.27353 0.16277 0.0
H1620 H 0.65386 0.2884 0.1696 0.0
H1621 H 0.66803 0.25559 0.11149 0.0
H1622 H 0.67664 0.251 0.13176 0.0
H1623 H 0.68293 0.2681 0.11977 0.0
C1624 C 0.68575 0.25624 0.18463 0.0
C1625 C 0.70075 0.26075 0.18083 0.0
C1626 C 0.67372 0.26089 0.17409 0.0
C1627 C 0.67639 0.2701 0.1595 0.0
C1628 C 0.69133 0.27461 0.15559 0.0
H1629 H 0.61085 0.31331 0.08873 0.0
H1630 H 0.63448 0.30529 0.10317 0.0
C1631 C 0.70341 0.26994 0.16613 0.0
C1632 C 0.66339 0.2756 0.14895 0.0
H1633 H 0.64695 0.2729 0.10978 0.0
C1634 C 0.65237 0.28501 0.15652 0.0
C1635 C 0.66153 0.27127 0.13185 0.0
C1636 C 0.67283 0.26083 0.12322 0.0
C1637 C 0.63945 0.29008 0.14752 0.0
C1638 C 0.6374 0.28544 0.13056 0.0
C1639 C 0.64858 0.27638 0.12281 0.0
C1640 C 0.62338 0.28941 0.12099 0.0
C1641 C 0.62807 0.30039 0.1562 0.0
C1642 C 0.60943 0.28287 0.12603 0.0
C1643 C 0.59601 0.28733 0.11779 0.0
C1644 C 0.59629 0.29831 0.10422 0.0
C1645 C 0.61033 0.30463 0.09896 0.0
C1646 C 0.6238 0.3001 0.10721 0.0
H1647 H 0.63301 0.30606 0.16764 0.0
H1648 H 0.62378 0.3099 0.14752 0.0
H1649 H 0.61826 0.29291 0.16016 0.0
H1650 H 0.60892 0.2745 0.13657 0.0
H1651 H 0.58534 0.28245 0.12224 0.0
H1652 H 0.23515 0.1834 0.7053 0.0
H1653 H 0.23852 0.16045 0.68706 0.0
H1654 H 0.27092 0.18735 0.65755 0.0
H1655 H 0.26781 0.21025 0.67599 0.0
H1656 H 0.23287 0.15737 0.65416 0.0
H1657 H 0.29403 0.1469 0.66671 0.0
H1658 H 0.28296 0.16018 0.67924 0.0
H1659 H 0.29013 0.16673 0.65912 0.0
C1660 C 0.243 0.18441 0.69493 0.0
C1661 C 0.25125 0.1986 0.69209 0.0
C1662 C 0.24494 0.17128 0.68454 0.0
C1663 C 0.25514 0.17208 0.67108 0.0
C1664 C 0.26329 0.18629 0.66812 0.0
H1665 H 0.25035 0.10224 0.58992 0.0
H1666 H 0.2497 0.12691 0.60596 0.0
C1667 C 0.26146 0.19939 0.67862 0.0
C1668 C 0.25681 0.15815 0.6599 0.0
H1669 H 0.2826 0.13207 0.64456 0.0
C1670 C 0.24375 0.15182 0.65208 0.0
C1671 C 0.27098 0.1508 0.65734 0.0
C1672 C 0.2853 0.15639 0.66617 0.0
C1673 C 0.24441 0.13832 0.64185 0.0
C1674 C 0.25865 0.13124 0.63889 0.0
C1675 C 0.27173 0.1376 0.64667 0.0
C1676 C 0.26011 0.11673 0.62851 0.0
C1677 C 0.22977 0.1315 0.63484 0.0
C1678 C 0.26686 0.103 0.63552 0.0
C1679 C 0.26766 0.08903 0.6262 0.0
C1680 C 0.26175 0.08847 0.60966 0.0
C1681 C 0.2552 0.10231 0.60254 0.0
C1682 C 0.25462 0.11637 0.61179 0.0
H1683 H 0.21981 0.13542 0.64211 0.0
H1684 H 0.22817 0.13574 0.62161 0.0
H1685 H 0.22993 0.11826 0.63495 0.0
H1686 H 0.27117 0.10296 0.64838 0.0
H1687 H 0.27257 0.07849 0.63206 0.0
H1688 H 0.33665 0.75137 0.19847 0.0
H1689 H 0.35949 0.75096 0.18135 0.0
H1690 H 0.33449 0.72744 0.1416 0.0
H1691 H 0.31142 0.72841 0.15832 0.0
H1692 H 0.37417 0.7249 0.16987 0.0
H1693 H 0.35569 0.76307 0.11574 0.0
H1694 H 0.34549 0.76206 0.13533 0.0
H1695 H 0.34313 0.74658 0.12002 0.0
C1696 C 0.33591 0.74639 0.18595 0.0
C1697 C 0.32216 0.73998 0.17976 0.0
C1698 C 0.34902 0.74606 0.17623 0.0
C1699 C 0.34866 0.73936 0.1601 0.0
C1700 C 0.33497 0.73296 0.15386 0.0
H1701 H 0.42215 0.71362 0.09329 0.0
H1702 H 0.39749 0.71595 0.1071 0.0
C1703 C 0.32184 0.73333 0.16355 0.0
C1704 C 0.3628 0.7384 0.1502 0.0
H1705 H 0.379 0.7493 0.11274 0.0
C1706 C 0.37522 0.73029 0.15741 0.0
C1707 C 0.36417 0.74543 0.13392 0.0
C1708 C 0.35147 0.75491 0.12583 0.0
C1709 C 0.38892 0.72893 0.14874 0.0
C1710 C 0.39023 0.73589 0.13249 0.0
C1711 C 0.37785 0.74392 0.12519 0.0
C1712 C 0.40464 0.73529 0.12321 0.0
C1713 C 0.40194 0.72005 0.15694 0.0
C1714 C 0.41665 0.74553 0.12761 0.0
C1715 C 0.43063 0.74435 0.11966 0.0
C1716 C 0.43284 0.73294 0.10711 0.0
C1717 C 0.42069 0.72276 0.10264 0.0
C1718 C 0.40665 0.72403 0.11054 0.0
H1719 H 0.39855 0.71376 0.16875 0.0
H1720 H 0.40652 0.71121 0.14808 0.0
H1721 H 0.41123 0.72861 0.15999 0.0
H1722 H 0.41528 0.75422 0.13745 0.0
H1723 H 0.43987 0.75211 0.12359 0.0
H1724 H 0.78537 0.20803 0.33313 0.0
H1725 H 0.78326 0.18617 0.35371 0.0
H1726 H 0.77516 0.15302 0.31342 0.0
H1727 H 0.7777 0.17481 0.29265 0.0
H1728 H 0.75934 0.16486 0.35999 0.0
H1729 H 0.81116 0.13346 0.33961 0.0
H1730 H 0.80695 0.15366 0.33305 0.0
H1731 H 0.79719 0.13721 0.32335 0.0
C1732 C 0.78327 0.19608 0.32861 0.0
C1733 C 0.78189 0.19314 0.31123 0.0
C1734 C 0.78194 0.18362 0.3404 0.0
C1735 C 0.77926 0.16795 0.33508 0.0
C1736 C 0.77747 0.16499 0.31777 0.0
H1737 H 0.75851 0.09207 0.40974 0.0
H1738 H 0.75673 0.11 0.38506 0.0
C1739 C 0.77879 0.17748 0.30594 0.0
C1740 C 0.77861 0.15478 0.34777 0.0
H1741 H 0.79735 0.12157 0.36179 0.0
C1742 C 0.76757 0.15531 0.36034 0.0
C1743 C 0.78945 0.14244 0.34824 0.0
C1744 C 0.80195 0.14164 0.33545 0.0
C1745 C 0.76725 0.144 0.3736 0.0
C1746 C 0.77812 0.13167 0.37409 0.0
C1747 C 0.78897 0.13097 0.36131 0.0
C1748 C 0.77923 0.12014 0.38845 0.0
C1749 C 0.75567 0.14576 0.3873 0.0
C1750 C 0.7926 0.11954 0.39823 0.0
C1751 C 0.79373 0.10914 0.4121 0.0
C1752 C 0.78157 0.09899 0.41641 0.0
C1753 C 0.76817 0.09955 0.40657 0.0
C1754 C 0.76708 0.10991 0.39258 0.0
H1755 H 0.75053 0.15782 0.38709 0.0
H1756 H 0.74642 0.13688 0.38542 0.0
H1757 H 0.76087 0.14357 0.39995 0.0
H1758 H 0.80209 0.12737 0.39532 0.0
H1759 H 0.80408 0.10918 0.41963 0.0
H1760 H 0.32606 0.29346 0.81925 0.0
H1761 H 0.34537 0.29955 0.84072 0.0
H1762 H 0.35085 0.24931 0.85125 0.0
H1763 H 0.3315 0.2431 0.82987 0.0
H1764 H 0.34605 0.2919 0.87517 0.0
H1765 H 0.39429 0.26447 0.84216 0.0
H1766 H 0.37639 0.26863 0.83175 0.0
H1767 H 0.37831 0.25138 0.84532 0.0
C1768 C 0.33129 0.2837 0.82621 0.0
C1769 C 0.3273 0.26778 0.82276 0.0
C1770 C 0.34237 0.2872 0.83842 0.0
C1771 C 0.34972 0.27487 0.84736 0.0
C1772 C 0.34558 0.25899 0.8442 0.0
H1773 H 0.41884 0.27467 0.92707 0.0
H1774 H 0.39918 0.26718 0.90639 0.0
C1775 C 0.33452 0.25547 0.83198 0.0
C1776 C 0.3616 0.27868 0.86013 0.0
H1777 H 0.39913 0.27353 0.86992 0.0
C1778 C 0.35766 0.28792 0.87401 0.0
C1779 C 0.37674 0.27344 0.85859 0.0
C1780 C 0.38177 0.26405 0.84359 0.0
C1781 C 0.36843 0.29196 0.88647 0.0
C1782 C 0.38356 0.28678 0.88487 0.0
C1783 C 0.38749 0.27743 0.87109 0.0
C1784 C 0.39556 0.29128 0.8972 0.0
C1785 C 0.36353 0.30155 0.90137 0.0
C1786 C 0.4001 0.30728 0.8987 0.0
C1787 C 0.4114 0.31156 0.91034 0.0
C1788 C 0.41848 0.2999 0.92058 0.0
C1789 C 0.41383 0.28387 0.9191 0.0
C1790 C 0.40258 0.27959 0.90737 0.0
H1791 H 0.351 0.30143 0.90275 0.0
H1792 H 0.3688 0.29691 0.91325 0.0
H1793 H 0.36729 0.31413 0.89959 0.0
H1794 H 0.3949 0.31645 0.89085 0.0
H1795 H 0.41458 0.32402 0.91142 0.0
H1796 H 0.25898 0.81153 0.32701 0.0
H1797 H 0.2577 0.83111 0.34953 0.0
H1798 H 0.2801 0.86598 0.31776 0.0
H1799 H 0.281 0.84667 0.29499 0.0
H1800 H 0.28205 0.84675 0.36545 0.0
H1801 H 0.24291 0.88997 0.33435 0.0
H1802 H 0.24524 0.86991 0.32689 0.0
H1803 H 0.25916 0.88504 0.32209 0.0
C1804 C 0.26342 0.82344 0.3247 0.0
C1805 C 0.27006 0.82754 0.30916 0.0
C1806 C 0.26277 0.83458 0.33763 0.0
C1807 C 0.26866 0.85004 0.33525 0.0
C1808 C 0.27528 0.85419 0.31977 0.0
H1809 H 0.29093 0.91842 0.41411 0.0
H1810 H 0.29196 0.9001 0.39026 0.0
C1811 C 0.27593 0.84307 0.30684 0.0
C1812 C 0.2683 0.86166 0.34915 0.0
H1813 H 0.25458 0.89801 0.36005 0.0
C1814 C 0.27604 0.85796 0.36429 0.0
C1815 C 0.26035 0.87621 0.34763 0.0
C1816 C 0.25132 0.88051 0.33193 0.0
C1817 C 0.27615 0.86849 0.3779 0.0
C1818 C 0.26846 0.88317 0.37624 0.0
C1819 C 0.2606 0.88681 0.36118 0.0
C1820 C 0.26792 0.89461 0.39027 0.0
C1821 C 0.28422 0.86371 0.39408 0.0
C1822 C 0.25404 0.89778 0.39793 0.0
C1823 C 0.25342 0.90825 0.41143 0.0
C1824 C 0.26664 0.91594 0.4174 0.0
C1825 C 0.28054 0.91281 0.40963 0.0
C1826 C 0.28116 0.90229 0.39612 0.0
H1827 H 0.28694 0.85079 0.39448 0.0
H1828 H 0.29502 0.87055 0.39519 0.0
H1829 H 0.2772 0.86649 0.40518 0.0
H1830 H 0.24371 0.89193 0.39362 0.0
H1831 H 0.24259 0.91024 0.41733 0.0
H1832 H 0.69613 0.72284 0.81838 0.0
H1833 H 0.67688 0.71789 0.83987 0.0
H1834 H 0.67009 0.76853 0.84417 0.0
H1835 H 0.68938 0.77361 0.82282 0.0
H1836 H 0.67627 0.72821 0.87318 0.0
H1837 H 0.62693 0.75148 0.83648 0.0
H1838 H 0.64482 0.74702 0.82684 0.0
H1839 H 0.64258 0.76526 0.83815 0.0
C1840 C 0.69061 0.73294 0.82396 0.0
C1841 C 0.69425 0.74863 0.81879 0.0
C1842 C 0.67955 0.73008 0.83617 0.0
C1843 C 0.67187 0.74283 0.8434 0.0
C1844 C 0.67561 0.7585 0.83846 0.0
H1845 H 0.60536 0.74924 0.9233 0.0
H1846 H 0.62388 0.75493 0.9011 0.0
C1847 C 0.68665 0.76137 0.82624 0.0
C1848 C 0.66021 0.73974 0.85643 0.0
H1849 H 0.62278 0.74511 0.86537 0.0
C1850 C 0.66456 0.73184 0.87144 0.0
C1851 C 0.64494 0.74451 0.85414 0.0
C1852 C 0.63946 0.75241 0.83798 0.0
C1853 C 0.6541 0.72878 0.88433 0.0
C1854 C 0.63886 0.73356 0.88204 0.0
C1855 C 0.6345 0.74151 0.86707 0.0
C1856 C 0.62725 0.73017 0.89498 0.0
C1857 C 0.65947 0.72067 0.90042 0.0
C1858 C 0.62288 0.71439 0.89868 0.0
C1859 C 0.61222 0.71112 0.91119 0.0
C1860 C 0.60562 0.72358 0.92015 0.0
C1861 C 0.61 0.73941 0.91637 0.0
C1862 C 0.62061 0.74267 0.90377 0.0
H1863 H 0.67203 0.72092 0.90171 0.0
H1864 H 0.65453 0.72643 0.9116 0.0
H1865 H 0.65567 0.70801 0.90042 0.0
H1866 H 0.6278 0.70458 0.89195 0.0
H1867 H 0.60925 0.69881 0.91403 0.0
loop_
_geom_bond_atom_site_label_1
_geom_bond_atom_site_label_2
_geom_bond_distance
_geom_bond_site_symmetry_2
_ccdc_geom_bond_type
C0 C1 1.264 . S
C0 C5 1.479 . S
C0 C10 1.465 . S
C1 C0 1.264 . S
C1 C3 1.339 . S
C1 H28 0.931 . S
C2 C3 1.395 . S
C2 C4 1.320 . S
C3 C1 1.339 . S
C3 C2 1.395 . S
C3 H29 0.929 . S
C4 C2 1.320 . S
C4 C5 1.405 . S
C4 H30 0.930 . S
C5 C0 1.479 . S
C5 C4 1.405 . S
C5 H31 0.931 . S
U6 O7 2.454 . S
U6 O8 2.458 . S
U6 C9 2.984 . S
U6 C10 2.847 . S
U6 C23 2.882 . S
U6 O24 2.441 . S
U6 O25 2.420 . S
U6 O26 2.455 . S
U6 O27 2.449 . S
O7 U6 2.454 . S
O7 C9 1.353 . S
O8 U6 2.458 . S
O8 C9 1.286 . S
C9 U6 2.984 . S
C9 O7 1.353 . S
C9 O8 1.286 . S
C9 C11 1.363 . S
C10 C0 1.465 . S
C10 U6 2.847 . S
C10 O24 1.249 . S
C10 O25 1.202 . S
C11 C9 1.363 . S
C11 C13 1.408 . S
C11 C16 1.342 . S
C12 C13 1.310 . S
C12 C15 1.461 . S
C12 H32 0.932 . S
C13 C11 1.408 . S
C13 C12 1.310 . S
C13 H33 0.930 . S
C14 C15 1.474 . S
C14 C16 1.285 . S
C14 H34 0.929 . S
C15 C12 1.461 . S
C15 C14 1.474 . S
C16 C11 1.342 . S
C16 C14 1.285 . S
C16 H35 0.930 . S
C17 C20 1.424 . S
C17 C22 1.245 . S
C17 C23 1.428 . S
C18 C21 1.260 . S
C18 C22 1.477 . S
C18 H36 0.932 . S
C19 C20 1.384 . S
C19 C21 1.479 . S
C19 H37 0.929 . S
C20 C17 1.424 . S
C20 C19 1.384 . S
C20 H38 0.928 . S
C21 C18 1.260 . S
C21 C19 1.479 . S
C22 C17 1.245 . S
C22 C18 1.477 . S
C22 H39 0.932 . S
C23 U6 2.882 . S
C23 C17 1.428 . S
C23 O26 1.301 . S
C23 O27 1.282 . S
O24 U6 2.441 . S
O24 C10 1.249 . S
O25 U6 2.420 . S
O25 C10 1.202 . S
O26 U6 2.455 . S
O26 C23 1.301 . S
O27 U6 2.449 . S
O27 C23 1.282 . S
H28 C1 0.931 . S
H29 C3 0.929 . S
H30 C4 0.930 . S
H31 C5 0.931 . S
H32 C12 0.932 . S
H33 C13 0.930 . S
H34 C14 0.929 . S
H35 C16 0.930 . S
H36 C18 0.932 . S
H37 C19 0.929 . S
H38 C20 0.928 . S
H39 C22 0.932 . S
C40 C41 1.264 . S
C40 C45 1.479 . S
C40 C50 1.465 . S
C41 C40 1.264 . S
C41 C43 1.339 . S
C41 H68 0.931 . S
C42 C43 1.395 . S
C42 C44 1.320 . S
C43 C41 1.339 . S
C43 C42 1.395 . S
C43 H69 0.929 . S
C44 C42 1.320 . S
C44 C45 1.405 . S
C44 H70 0.930 . S
C45 C40 1.479 . S
C45 C44 1.405 . S
C45 H71 0.931 . S
U46 O47 2.454 . S
U46 O48 2.458 . S
U46 C49 2.984 . S
U46 C50 2.847 . S
U46 C63 2.882 . S
U46 O64 2.441 . S
U46 O65 2.420 . S
U46 O66 2.455 . S
U46 O67 2.449 . S
O47 U46 2.454 . S
O47 C49 1.353 . S
O48 U46 2.458 . S
O48 C49 1.286 . S
C49 U46 2.984 . S
C49 O47 1.353 . S
C49 O48 1.286 . S
C49 C51 1.363 . S
C50 C40 1.465 . S
C50 U46 2.847 . S
C50 O64 1.249 . S
C50 O65 1.202 . S
C51 C49 1.363 . S
C51 C53 1.408 . S
C51 C56 1.342 . S
C52 C53 1.310 . S
C52 C55 1.461 . S
C52 H72 0.932 . S
C53 C51 1.408 . S
C53 C52 1.310 . S
C53 H73 0.930 . S
C54 C55 1.474 . S
C54 C56 1.285 . S
C54 H74 0.929 . S
C55 C52 1.461 . S
C55 C54 1.474 . S
C56 C51 1.342 . S
C56 C54 1.285 . S
C56 H75 0.930 . S
C57 C60 1.424 . S
C57 C62 1.245 . S
C57 C63 1.428 . S
C58 C61 1.260 . S
C58 C62 1.477 . S
C58 H76 0.932 . S
C59 C60 1.384 . S
C59 C61 1.479 . S
C59 H77 0.929 . S
C60 C57 1.424 . S
C60 C59 1.384 . S
C60 H78 0.928 . S
C61 C58 1.260 . S
C61 C59 1.479 . S
C62 C57 1.245 . S
C62 C58 1.477 . S
C62 H79 0.932 . S
C63 U46 2.882 . S
C63 C57 1.428 . S
C63 O66 1.301 . S
C63 O67 1.282 . S
O64 U46 2.441 . S
O64 C50 1.249 . S
O65 U46 2.420 . S
O65 C50 1.202 . S
O66 U46 2.455 . S
O66 C63 1.301 . S
O67 U46 2.449 . S
O67 C63 1.282 . S
H68 C41 0.931 . S
H69 C43 0.929 . S
H70 C44 0.930 . S
H71 C45 0.931 . S
H72 C52 0.932 . S
H73 C53 0.930 . S
H74 C54 0.929 . S
H75 C56 0.930 . S
H76 C58 0.932 . S
H77 C59 0.929 . S
H78 C60 0.928 . S
H79 C62 0.932 . S
C80 C81 1.264 . S
C80 C85 1.479 . S
C80 C90 1.465 . S
C81 C80 1.264 . S
C81 C83 1.339 . S
C81 H108 0.931 . S
C82 C83 1.395 . S
C82 C84 1.320 . S
C83 C81 1.339 . S
C83 C82 1.395 . S
C83 H109 0.929 . S
C84 C82 1.320 . S
C84 C85 1.405 . S
C84 H110 0.930 . S
C85 C80 1.479 . S
C85 C84 1.405 . S
C85 H111 0.931 . S
U86 O87 2.454 . S
U86 O88 2.458 . S
U86 C89 2.984 . S
U86 C90 2.847 . S
U86 C103 2.882 . S
U86 O104 2.441 . S
U86 O105 2.420 . S
U86 O106 2.455 . S
U86 O107 2.449 . S
O87 U86 2.454 . S
O87 C89 1.353 . S
O88 U86 2.458 . S
O88 C89 1.286 . S
C89 U86 2.984 . S
C89 O87 1.353 . S
C89 O88 1.286 . S
C89 C91 1.363 . S
C90 C80 1.465 . S
C90 U86 2.847 . S
C90 O104 1.249 . S
C90 O105 1.202 . S
C91 C89 1.363 . S
C91 C93 1.408 . S
C91 C96 1.342 . S
C92 C93 1.310 . S
C92 C95 1.461 . S
C92 H112 0.932 . S
C93 C91 1.408 . S
C93 C92 1.310 . S
C93 H113 0.930 . S
C94 C95 1.474 . S
C94 C96 1.285 . S
C94 H114 0.929 . S
C95 C92 1.461 . S
C95 C94 1.474 . S
C96 C91 1.342 . S
C96 C94 1.285 . S
C96 H115 0.930 . S
C97 C100 1.424 . S
C97 C102 1.245 . S
C97 C103 1.428 . S
C98 C101 1.260 . S
C98 C102 1.477 . S
C98 H116 0.932 . S
C99 C100 1.384 . S
C99 C101 1.479 . S
C99 H117 0.929 . S
C100 C97 1.424 . S
C100 C99 1.384 . S
C100 H118 0.928 . S
C101 C98 1.260 . S
C101 C99 1.479 . S
C102 C97 1.245 . S
C102 C98 1.477 . S
C102 H119 0.932 . S
C103 U86 2.882 . S
C103 C97 1.428 . S
C103 O106 1.301 . S
C103 O107 1.282 . S
O104 U86 2.441 . S
O104 C90 1.249 . S
O105 U86 2.420 . S
O105 C90 1.202 . S
O106 U86 2.455 . S
O106 C103 1.301 . S
O107 U86 2.449 . S
O107 C103 1.282 . S
H108 C81 0.931 . S
H109 C83 0.929 . S
H110 C84 0.930 . S
H111 C85 0.931 . S
H112 C92 0.932 . S
H113 C93 0.930 . S
H114 C94 0.929 . S
H115 C96 0.930 . S
H116 C98 0.932 . S
H117 C99 0.929 . S
H118 C100 0.928 . S
H119 C102 0.932 . S
C120 C121 1.264 . S
C120 C125 1.479 . S
C120 C130 1.465 . S
C121 C120 1.264 . S
C121 C123 1.339 . S
C121 H148 0.931 . S
C122 C123 1.395 . S
C122 C124 1.320 . S
C123 C121 1.339 . S
C123 C122 1.395 . S
C123 H149 0.929 . S
C124 C122 1.320 . S
C124 C125 1.405 . S
C124 H150 0.930 . S
C125 C120 1.479 . S
C125 C124 1.405 . S
C125 H151 0.931 . S
U126 O127 2.454 . S
U126 O128 2.458 . S
U126 C129 2.984 . S
U126 C130 2.847 . S
U126 C143 2.882 . S
U126 O144 2.441 . S
U126 O145 2.420 . S
U126 O146 2.455 . S
U126 O147 2.449 . S
O127 U126 2.454 . S
O127 C129 1.353 . S
O128 U126 2.458 . S
O128 C129 1.286 . S
C129 U126 2.984 . S
C129 O127 1.353 . S
C129 O128 1.286 . S
C129 C131 1.363 . S
C130 C120 1.465 . S
C130 U126 2.847 . S
C130 O144 1.249 . S
C130 O145 1.202 . S
C131 C129 1.363 . S
C131 C133 1.408 . S
C131 C136 1.342 . S
C132 C133 1.310 . S
C132 C135 1.461 . S
C132 H152 0.932 . S
C133 C131 1.408 . S
C133 C132 1.310 . S
C133 H153 0.930 . S
C134 C135 1.474 . S
C134 C136 1.285 . S
C134 H154 0.929 . S
C135 C132 1.461 . S
C135 C134 1.474 . S
C136 C131 1.342 . S
C136 C134 1.285 . S
C136 H155 0.930 . S
C137 C140 1.424 . S
C137 C142 1.245 . S
C137 C143 1.428 . S
C138 C141 1.260 . S
C138 C142 1.477 . S
C138 H156 0.932 . S
C139 C140 1.384 . S
C139 C141 1.479 . S
C139 H157 0.929 . S
C140 C137 1.424 . S
C140 C139 1.384 . S
C140 H158 0.928 . S
C141 C138 1.260 . S
C141 C139 1.479 . S
C142 C137 1.245 . S
C142 C138 1.477 . S
C142 H159 0.932 . S
C143 U126 2.882 . S
C143 C137 1.428 . S
C143 O146 1.301 . S
C143 O147 1.282 . S
O144 U126 2.441 . S
O144 C130 1.249 . S
O145 U126 2.420 . S
O145 C130 1.202 . S
O146 U126 2.455 . S
O146 C143 1.301 . S
O147 U126 2.449 . S
O147 C143 1.282 . S
H148 C121 0.931 . S
H149 C123 0.929 . S
H150 C124 0.930 . S
H151 C125 0.931 . S
H152 C132 0.932 . S
H153 C133 0.930 . S
H154 C134 0.929 . S
H155 C136 0.930 . S
H156 C138 0.932 . S
H157 C139 0.929 . S
H158 C140 0.928 . S
H159 C142 0.932 . S
C160 C161 1.264 . S
C160 C165 1.479 . S
C160 C170 1.465 . S
C161 C160 1.264 . S
C161 C163 1.339 . S
C161 H188 0.931 . S
C162 C163 1.395 . S
C162 C164 1.320 . S
C163 C161 1.339 . S
C163 C162 1.395 . S
C163 H189 0.929 . S
C164 C162 1.320 . S
C164 C165 1.405 . S
C164 H190 0.930 . S
C165 C160 1.479 . S
C165 C164 1.405 . S
C165 H191 0.931 . S
U166 O167 2.454 . S
U166 O168 2.458 . S
U166 C169 2.984 . S
U166 C170 2.847 . S
U166 C183 2.882 . S
U166 O184 2.441 . S
U166 O185 2.420 . S
U166 O186 2.455 . S
U166 O187 2.449 . S
O167 U166 2.454 . S
O167 C169 1.353 . S
O168 U166 2.458 . S
O168 C169 1.286 . S
C169 U166 2.984 . S
C169 O167 1.353 . S
C169 O168 1.286 . S
C169 C171 1.363 . S
C170 C160 1.465 . S
C170 U166 2.847 . S
C170 O184 1.249 . S
C170 O185 1.202 . S
C171 C169 1.363 . S
C171 C173 1.408 . S
C171 C176 1.342 . S
C172 C173 1.310 . S
C172 C175 1.461 . S
C172 H192 0.932 . S
C173 C171 1.408 . S
C173 C172 1.310 . S
C173 H193 0.930 . S
C174 C175 1.474 . S
C174 C176 1.285 . S
C174 H194 0.929 . S
C175 C172 1.461 . S
C175 C174 1.474 . S
C176 C171 1.342 . S
C176 C174 1.285 . S
C176 H195 0.930 . S
C177 C180 1.424 . S
C177 C182 1.245 . S
C177 C183 1.428 . S
C178 C181 1.260 . S
C178 C182 1.477 . S
C178 H196 0.932 . S
C179 C180 1.384 . S
C179 C181 1.479 . S
C179 H197 0.929 . S
C180 C177 1.424 . S
C180 C179 1.384 . S
C180 H198 0.928 . S
C181 C178 1.260 . S
C181 C179 1.479 . S
C182 C177 1.245 . S
C182 C178 1.477 . S
C182 H199 0.932 . S
C183 U166 2.882 . S
C183 C177 1.428 . S
C183 O186 1.301 . S
C183 O187 1.282 . S
O184 U166 2.441 . S
O184 C170 1.249 . S
O185 U166 2.420 . S
O185 C170 1.202 . S
O186 U166 2.455 . S
O186 C183 1.301 . S
O187 U166 2.449 . S
O187 C183 1.282 . S
H188 C161 0.931 . S
H189 C163 0.929 . S
H190 C164 0.930 . S
H191 C165 0.931 . S
H192 C172 0.932 . S
H193 C173 0.930 . S
H194 C174 0.929 . S
H195 C176 0.930 . S
H196 C178 0.932 . S
H197 C179 0.929 . S
H198 C180 0.928 . S
H199 C182 0.932 . S
C200 C201 1.264 . S
C200 C205 1.479 . S
C200 C210 1.465 . S
C201 C200 1.264 . S
C201 C203 1.339 . S
C201 H228 0.931 . S
C202 C203 1.395 . S
C202 C204 1.320 . S
C203 C201 1.339 . S
C203 C202 1.395 . S
C203 H229 0.929 . S
C204 C202 1.320 . S
C204 C205 1.405 . S
C204 H230 0.930 . S
C205 C200 1.479 . S
C205 C204 1.405 . S
C205 H231 0.931 . S
U206 O207 2.454 . S
U206 O208 2.458 . S
U206 C209 2.984 . S
U206 C210 2.847 . S
U206 C223 2.882 . S
U206 O224 2.441 . S
U206 O225 2.420 . S
U206 O226 2.455 . S
U206 O227 2.449 . S
O207 U206 2.454 . S
O207 C209 1.353 . S
O208 U206 2.458 . S
O208 C209 1.286 . S
C209 U206 2.984 . S
C209 O207 1.353 . S
C209 O208 1.286 . S
C209 C211 1.363 . S
C210 C200 1.465 . S
C210 U206 2.847 . S
C210 O224 1.249 . S
C210 O225 1.202 . S
C211 C209 1.363 . S
C211 C213 1.408 . S
C211 C216 1.342 . S
C212 C213 1.310 . S
C212 C215 1.461 . S
C212 H232 0.932 . S
C213 C211 1.408 . S
C213 C212 1.310 . S
C213 H233 0.930 . S
C214 C215 1.474 . S
C214 C216 1.285 . S
C214 H234 0.929 . S
C215 C212 1.461 . S
C215 C214 1.474 . S
C216 C211 1.342 . S
C216 C214 1.285 . S
C216 H235 0.930 . S
C217 C220 1.424 . S
C217 C222 1.245 . S
C217 C223 1.428 . S
C218 C221 1.260 . S
C218 C222 1.477 . S
C218 H236 0.932 . S
C219 C220 1.384 . S
C219 C221 1.479 . S
C219 H237 0.929 . S
C220 C217 1.424 . S
C220 C219 1.384 . S
C220 H238 0.928 . S
C221 C218 1.260 . S
C221 C219 1.479 . S
C222 C217 1.245 . S
C222 C218 1.477 . S
C222 H239 0.932 . S
C223 U206 2.882 . S
C223 C217 1.428 . S
C223 O226 1.301 . S
C223 O227 1.282 . S
O224 U206 2.441 . S
O224 C210 1.249 . S
O225 U206 2.420 . S
O225 C210 1.202 . S
O226 U206 2.455 . S
O226 C223 1.301 . S
O227 U206 2.449 . S
O227 C223 1.282 . S
H228 C201 0.931 . S
H229 C203 0.929 . S
H230 C204 0.930 . S
H231 C205 0.931 . S
H232 C212 0.932 . S
H233 C213 0.930 . S
H234 C214 0.929 . S
H235 C216 0.930 . S
H236 C218 0.932 . S
H237 C219 0.929 . S
H238 C220 0.928 . S
H239 C222 0.932 . S
C240 C241 1.264 . S
C240 C245 1.479 . S
C240 C250 1.465 . S
C241 C240 1.264 . S
C241 C243 1.339 . S
C241 H268 0.931 . S
C242 C243 1.395 . S
C242 C244 1.320 . S
C243 C241 1.339 . S
C243 C242 1.395 . S
C243 H269 0.929 . S
C244 C242 1.320 . S
C244 C245 1.405 . S
C244 H270 0.930 . S
C245 C240 1.479 . S
C245 C244 1.405 . S
C245 H271 0.931 . S
U246 O247 2.454 . S
U246 O248 2.458 . S
U246 C249 2.984 . S
U246 C250 2.847 . S
U246 C263 2.882 . S
U246 O264 2.441 . S
U246 O265 2.420 . S
U246 O266 2.455 . S
U246 O267 2.449 . S
O247 U246 2.454 . S
O247 C249 1.353 . S
O248 U246 2.458 . S
O248 C249 1.286 . S
C249 U246 2.984 . S
C249 O247 1.353 . S
C249 O248 1.286 . S
C249 C251 1.363 . S
C250 C240 1.465 . S
C250 U246 2.847 . S
C250 O264 1.249 . S
C250 O265 1.202 . S
C251 C249 1.363 . S
C251 C253 1.408 . S
C251 C256 1.342 . S
C252 C253 1.310 . S
C252 C255 1.461 . S
C252 H272 0.932 . S
C253 C251 1.408 . S
C253 C252 1.310 . S
C253 H273 0.930 . S
C254 C255 1.474 . S
C254 C256 1.285 . S
C254 H274 0.929 . S
C255 C252 1.461 . S
C255 C254 1.474 . S
C256 C251 1.342 . S
C256 C254 1.285 . S
C256 H275 0.930 . S
C257 C260 1.424 . S
C257 C262 1.245 . S
C257 C263 1.428 . S
C258 C261 1.260 . S
C258 C262 1.477 . S
C258 H276 0.932 . S
C259 C260 1.384 . S
C259 C261 1.479 . S
C259 H277 0.929 . S
C260 C257 1.424 . S
C260 C259 1.384 . S
C260 H278 0.928 . S
C261 C258 1.260 . S
C261 C259 1.479 . S
C262 C257 1.245 . S
C262 C258 1.477 . S
C262 H279 0.932 . S
C263 U246 2.882 . S
C263 C257 1.428 . S
C263 O266 1.301 . S
C263 O267 1.282 . S
O264 U246 2.441 . S
O264 C250 1.249 . S
O265 U246 2.420 . S
O265 C250 1.202 . S
O266 U246 2.455 . S
O266 C263 1.301 . S
O267 U246 2.449 . S
O267 C263 1.282 . S
H268 C241 0.931 . S
H269 C243 0.929 . S
H270 C244 0.930 . S
H271 C245 0.931 . S
H272 C252 0.932 . S
H273 C253 0.930 . S
H274 C254 0.929 . S
H275 C256 0.930 . S
H276 C258 0.932 . S
H277 C259 0.929 . S
H278 C260 0.928 . S
H279 C262 0.932 . S
C280 C281 1.264 . S
C280 C285 1.479 . S
C280 C290 1.465 . S
C281 C280 1.264 . S
C281 C283 1.339 . S
C281 H308 0.931 . S
C282 C283 1.395 . S
C282 C284 1.320 . S
C283 C281 1.339 . S
C283 C282 1.395 . S
C283 H309 0.929 . S
C284 C282 1.320 . S
C284 C285 1.405 . S
C284 H310 0.930 . S
C285 C280 1.479 . S
C285 C284 1.405 . S
C285 H311 0.931 . S
U286 O287 2.454 . S
U286 O288 2.458 . S
U286 C289 2.984 . S
U286 C290 2.847 . S
U286 C303 2.882 . S
U286 O304 2.441 . S
U286 O305 2.420 . S
U286 O306 2.455 . S
U286 O307 2.449 . S
O287 U286 2.454 . S
O287 C289 1.353 . S
O288 U286 2.458 . S
O288 C289 1.286 . S
C289 U286 2.984 . S
C289 O287 1.353 . S
C289 O288 1.286 . S
C289 C291 1.363 . S
C290 C280 1.465 . S
C290 U286 2.847 . S
C290 O304 1.249 . S
C290 O305 1.202 . S
C291 C289 1.363 . S
C291 C293 1.408 . S
C291 C296 1.342 . S
C292 C293 1.310 . S
C292 C295 1.461 . S
C292 H312 0.932 . S
C293 C291 1.408 . S
C293 C292 1.310 . S
C293 H313 0.930 . S
C294 C295 1.474 . S
C294 C296 1.285 . S
C294 H314 0.929 . S
C295 C292 1.461 . S
C295 C294 1.474 . S
C296 C291 1.342 . S
C296 C294 1.285 . S
C296 H315 0.930 . S
C297 C300 1.424 . S
C297 C302 1.245 . S
C297 C303 1.428 . S
C298 C301 1.260 . S
C298 C302 1.477 . S
C298 H316 0.932 . S
C299 C300 1.384 . S
C299 C301 1.479 . S
C299 H317 0.929 . S
C300 C297 1.424 . S
C300 C299 1.384 . S
C300 H318 0.928 . S
C301 C298 1.260 . S
C301 C299 1.479 . S
C302 C297 1.245 . S
C302 C298 1.477 . S
C302 H319 0.932 . S
C303 U286 2.882 . S
C303 C297 1.428 . S
C303 O306 1.301 . S
C303 O307 1.282 . S
O304 U286 2.441 . S
O304 C290 1.249 . S
O305 U286 2.420 . S
O305 C290 1.202 . S
O306 U286 2.455 . S
O306 C303 1.301 . S
O307 U286 2.449 . S
O307 C303 1.282 . S
H308 C281 0.931 . S
H309 C283 0.929 . S
H310 C284 0.930 . S
H311 C285 0.931 . S
H312 C292 0.932 . S
H313 C293 0.930 . S
H314 C294 0.929 . S
H315 C296 0.930 . S
H316 C298 0.932 . S
H317 C299 0.929 . S
H318 C300 0.928 . S
H319 C302 0.932 . S
C320 C321 1.560 . S
C320 H381 0.959 . S
C320 H382 0.959 . S
C320 H383 0.960 . S
C321 C320 1.560 . S
C321 O376 1.426 . S
C321 H380 0.980 . S
C322 C323 1.407 . S
C322 C327 1.418 . S
C322 O376 1.334 . S
C323 C322 1.407 . S
C323 C324 1.360 . S
C323 H384 0.929 . S
C324 C323 1.360 . S
C324 C325 1.401 . S
C324 C328 1.527 . S
C325 C324 1.401 . S
C325 C326 1.405 . S
C325 C358 1.587 . S
C326 C325 1.405 . S
C326 C327 1.332 . S
C326 C329 1.496 . S
C327 C322 1.418 . S
C327 C326 1.332 . S
C327 H385 0.929 . S
C328 C324 1.527 . S
C328 H386 0.959 . S
C328 H387 0.961 . S
C328 H388 0.961 . S
C329 C326 1.496 . S
C329 H389 0.960 . S
C329 H390 0.960 1_655 S
C329 H391 0.961 . S
C330 C331 1.517 . S
C330 H393 0.961 . S
C330 H394 0.960 . S
C330 H395 0.959 . S
C331 C330 1.517 . S
C331 O379 1.468 . S
C331 H392 0.980 . S
C332 C333 1.349 . S
C332 C337 1.367 . S
C332 O379 1.408 . S
C333 C332 1.349 . S
C333 C334 1.407 . S
C333 H396 0.930 . S
C334 C333 1.407 . S
C334 C335 1.449 . S
C334 C338 1.535 . S
C335 C334 1.449 . S
C335 C336 1.384 . S
C335 C360 1.553 . S
C336 C335 1.384 . S
C336 C337 1.364 . S
C336 C339 1.450 . S
C337 C332 1.367 . S
C337 C336 1.364 . S
C337 H397 0.931 . S
C338 C334 1.535 . S
C338 H398 0.959 . S
C338 H399 0.961 . S
C338 H400 0.959 . S
C339 C336 1.450 . S
C339 H401 0.960 . S
C339 H402 0.960 . S
C339 H403 0.960 . S
C340 C341 1.309 . S
C340 C345 1.304 . S
C340 O378 1.435 . S
C341 C340 1.309 . S
C341 C342 1.476 . S
C341 H405 0.930 . S
C342 C341 1.476 . S
C342 C343 1.400 . S
C342 C346 1.567 . S
C343 C342 1.400 . S
C343 C344 1.373 . S
C343 C365 1.432 . S
C344 C343 1.373 . S
C344 C345 1.339 . S
C344 C347 1.530 . S
C345 C340 1.304 . S
C345 C344 1.339 . S
C345 H406 0.930 . S
C346 C342 1.567 . S
C346 H407 0.961 . S
C346 H408 0.960 . S
C346 H409 0.958 . S
C347 C344 1.530 . S
C347 H410 0.961 . S
C347 H411 0.960 . S
C347 H412 0.960 . S
C348 C349 1.530 . S
C348 H414 0.961 . S
C348 H415 0.961 . S
C348 H416 0.959 . S
C349 C348 1.530 . S
C349 O377 1.412 . S
C349 H413 0.980 . S
C350 C351 1.288 . S
C350 C355 1.377 . S
C350 O377 1.393 . S
C351 C350 1.288 . S
C351 C352 1.369 . S
C351 H417 0.932 . S
C352 C351 1.369 . S
C352 C353 1.398 . S
C352 C356 1.527 . S
C353 C352 1.398 . S
C353 C354 1.380 . S
C353 C367 1.497 . S
C354 C353 1.380 . S
C354 C355 1.383 . S
C354 C357 1.603 . S
C355 C350 1.377 . S
C355 C354 1.383 . S
C355 H418 0.929 . S
C356 C352 1.527 . S
C356 H419 0.961 . S
C356 H420 0.955 1_655 S
C356 H421 0.959 . S
C357 C354 1.603 . S
C357 H422 0.960 . S
C357 H423 0.962 . S
C357 H424 0.961 . S
C358 C325 1.587 . S
C358 C359 1.360 1_655 S
C358 C371 1.412 . S
C359 C358 1.360 1_455 S
C359 C360 1.365 . S
C359 H425 0.929 . S
C360 C335 1.553 . S
C360 C359 1.365 . S
C360 C361 1.404 . S
C361 C360 1.404 . S
C361 C362 1.395 . S
C361 C372 1.451 . S
C362 C361 1.395 . S
C362 C363 1.322 . S
C362 H426 0.930 . S
C363 C362 1.322 . S
C363 C364 1.459 . S
C363 H427 0.929 . S
C364 C363 1.459 . S
C364 C365 1.445 . S
C364 C373 1.395 . S
C365 C343 1.432 . S
C365 C364 1.445 . S
C365 C366 1.370 . S
C366 C365 1.370 . S
C366 C367 1.438 1_455 S
C366 H428 0.930 . S
C367 C353 1.497 . S
C367 C366 1.438 1_655 S
C367 C368 1.360 . S
C368 C367 1.360 . S
C368 C369 1.401 . S
C368 C373 1.446 1_655 S
C369 C368 1.401 . S
C369 C370 1.347 . S
C369 H429 0.929 . S
C370 C369 1.347 . S
C370 C371 1.455 . S
C370 H430 0.930 . S
C371 C358 1.412 . S
C371 C370 1.455 . S
C371 C372 1.331 1_655 S
C372 C361 1.451 . S
C372 C371 1.331 1_455 S
C372 C373 1.497 . S
C373 C364 1.395 . S
C373 C368 1.446 1_455 S
C373 C372 1.497 . S
C374 C375 1.582 . S
C374 H431 0.962 . S
C374 H432 0.959 . S
C374 H433 0.958 . S
C375 C374 1.582 . S
C375 O378 1.458 . S
C375 H404 0.980 . S
O376 C321 1.426 . S
O376 C322 1.334 . S
O377 C349 1.412 . S
O377 C350 1.393 . S
O378 C340 1.435 . S
O378 C375 1.458 . S
O379 C331 1.468 . S
O379 C332 1.408 . S
H380 C321 0.980 . S
H381 C320 0.959 . S
H382 C320 0.959 . S
H383 C320 0.960 . S
H384 C323 0.929 . S
H385 C327 0.929 . S
H386 C328 0.959 . S
H387 C328 0.961 . S
H388 C328 0.961 . S
H389 C329 0.960 . S
H390 C329 0.960 1_455 S
H391 C329 0.961 . S
H392 C331 0.980 . S
H393 C330 0.961 . S
H394 C330 0.960 . S
H395 C330 0.959 . S
H396 C333 0.930 . S
H397 C337 0.931 . S
H398 C338 0.959 . S
H399 C338 0.961 . S
H400 C338 0.959 . S
H401 C339 0.960 . S
H402 C339 0.960 . S
H403 C339 0.960 . S
H404 C375 0.980 . S
H405 C341 0.930 . S
H406 C345 0.930 . S
H407 C346 0.961 . S
H408 C346 0.960 . S
H409 C346 0.958 . S
H410 C347 0.961 . S
H411 C347 0.960 . S
H412 C347 0.960 . S
H413 C349 0.980 . S
H414 C348 0.961 . S
H415 C348 0.961 . S
H416 C348 0.959 . S
H417 C351 0.932 . S
H418 C355 0.929 . S
H419 C356 0.961 . S
H420 C356 0.955 1_455 S
H421 C356 0.959 . S
H422 C357 0.960 . S
H423 C357 0.962 . S
H424 C357 0.961 . S
H425 C359 0.929 . S
H426 C362 0.930 . S
H427 C363 0.929 . S
H428 C366 0.930 . S
H429 C369 0.929 . S
H430 C370 0.930 . S
H431 C374 0.962 . S
H432 C374 0.959 . S
H433 C374 0.958 . S
C434 C435 1.560 . S
C434 H495 0.959 . S
C434 H496 0.959 . S
C434 H497 0.960 . S
C435 C434 1.560 . S
C435 O490 1.426 . S
C435 H494 0.980 . S
C436 C437 1.407 . S
C436 C441 1.418 . S
C436 O490 1.334 . S
C437 C436 1.407 . S
C437 C438 1.360 . S
C437 H498 0.929 . S
C438 C437 1.360 . S
C438 C439 1.401 . S
C438 C442 1.527 . S
C439 C438 1.401 . S
C439 C440 1.405 . S
C439 C472 1.587 . S
C440 C439 1.405 . S
C440 C441 1.332 . S
C440 C443 1.496 . S
C441 C436 1.418 . S
C441 C440 1.332 . S
C441 H499 0.929 . S
C442 C438 1.527 . S
C442 H500 0.959 . S
C442 H501 0.961 . S
C442 H502 0.961 . S
C443 C440 1.496 . S
C443 H503 0.960 . S
C443 H504 0.960 . S
C443 H505 0.961 . S
C444 C445 1.517 . S
C444 H507 0.961 . S
C444 H508 0.960 . S
C444 H509 0.959 . S
C445 C444 1.517 . S
C445 O493 1.468 . S
C445 H506 0.980 . S
C446 C447 1.349 . S
C446 C451 1.367 . S
C446 O493 1.408 . S
C447 C446 1.349 . S
C447 C448 1.407 . S
C447 H510 0.930 . S
C448 C447 1.407 . S
C448 C449 1.449 . S
C448 C452 1.535 . S
C449 C448 1.449 . S
C449 C450 1.384 . S
C449 C474 1.553 . S
C450 C449 1.384 . S
C450 C451 1.364 . S
C450 C453 1.450 . S
C451 C446 1.367 . S
C451 C450 1.364 . S
C451 H511 0.931 . S
C452 C448 1.535 . S
C452 H512 0.959 . S
C452 H513 0.961 . S
C452 H514 0.959 . S
C453 C450 1.450 . S
C453 H515 0.960 . S
C453 H516 0.960 . S
C453 H517 0.960 . S
C454 C455 1.309 . S
C454 C459 1.304 . S
C454 O492 1.435 . S
C455 C454 1.309 . S
C455 C456 1.476 . S
C455 H519 0.930 . S
C456 C455 1.476 . S
C456 C457 1.400 . S
C456 C460 1.567 . S
C457 C456 1.400 . S
C457 C458 1.373 . S
C457 C479 1.432 . S
C458 C457 1.373 . S
C458 C459 1.339 . S
C458 C461 1.530 . S
C459 C454 1.304 . S
C459 C458 1.339 . S
C459 H520 0.930 . S
C460 C456 1.567 . S
C460 H521 0.961 . S
C460 H522 0.960 . S
C460 H523 0.958 . S
C461 C458 1.530 . S
C461 H524 0.961 . S
C461 H525 0.960 . S
C461 H526 0.960 . S
C462 C463 1.530 . S
C462 H528 0.961 . S
C462 H529 0.961 . S
C462 H530 0.959 . S
C463 C462 1.530 . S
C463 O491 1.412 . S
C463 H527 0.980 . S
C464 C465 1.288 . S
C464 C469 1.377 . S
C464 O491 1.393 . S
C465 C464 1.288 . S
C465 C466 1.369 . S
C465 H531 0.932 . S
C466 C465 1.369 . S
C466 C467 1.398 . S
C466 C470 1.527 . S
C467 C466 1.398 . S
C467 C468 1.380 . S
C467 C481 1.497 . S
C468 C467 1.380 . S
C468 C469 1.383 . S
C468 C471 1.603 . S
C469 C464 1.377 . S
C469 C468 1.383 . S
C469 H532 0.929 . S
C470 C466 1.527 . S
C470 H533 0.961 . S
C470 H534 0.959 . S
C470 H535 0.959 . S
C471 C468 1.603 . S
C471 H536 0.960 . S
C471 H537 0.962 . S
C471 H538 0.961 . S
C472 C439 1.587 . S
C472 C473 1.360 . S
C472 C485 1.412 . S
C473 C472 1.360 . S
C473 C474 1.365 1_455 S
C473 H539 0.929 . S
C474 C449 1.553 . S
C474 C473 1.365 1_655 S
C474 C475 1.404 . S
C475 C474 1.404 . S
C475 C476 1.395 . S
C475 C486 1.451 1_655 S
C476 C475 1.395 . S
C476 C477 1.322 . S
C476 H540 0.930 . S
C477 C476 1.322 . S
C477 C478 1.459 . S
C477 H541 0.929 . S
C478 C477 1.459 . S
C478 C479 1.445 . S
C478 C487 1.395 1_655 S
C479 C457 1.432 . S
C479 C478 1.445 . S
C479 C480 1.370 1_655 S
C480 C479 1.370 1_455 S
C480 C481 1.438 . S
C480 H542 0.930 . S
C481 C467 1.497 . S
C481 C480 1.438 . S
C481 C482 1.360 . S
C482 C481 1.360 . S
C482 C483 1.401 . S
C482 C487 1.446 . S
C483 C482 1.401 . S
C483 C484 1.347 . S
C483 H543 0.929 . S
C484 C483 1.347 . S
C484 C485 1.455 . S
C484 H544 0.930 . S
C485 C472 1.412 . S
C485 C484 1.455 . S
C485 C486 1.331 . S
C486 C475 1.451 1_455 S
C486 C485 1.331 . S
C486 C487 1.497 . S
C487 C478 1.395 1_455 S
C487 C482 1.446 . S
C487 C486 1.497 . S
C488 C489 1.582 . S
C488 H545 0.962 . S
C488 H546 0.959 . S
C488 H547 0.958 . S
C489 C488 1.582 . S
C489 O492 1.458 . S
C489 H518 0.980 . S
O490 C435 1.426 . S
O490 C436 1.334 . S
O491 C463 1.412 . S
O491 C464 1.393 . S
O492 C454 1.435 . S
O492 C489 1.458 . S
O493 C445 1.468 . S
O493 C446 1.408 . S
H494 C435 0.980 . S
H495 C434 0.959 . S
H496 C434 0.959 . S
H497 C434 0.960 . S
H498 C437 0.929 . S
H499 C441 0.929 . S
H500 C442 0.959 . S
H501 C442 0.961 . S
H502 C442 0.961 . S
H503 C443 0.960 . S
H504 C443 0.960 . S
H505 C443 0.961 . S
H506 C445 0.980 . S
H507 C444 0.961 . S
H508 C444 0.960 . S
H509 C444 0.959 . S
H510 C447 0.930 . S
H511 C451 0.931 . S
H512 C452 0.959 . S
H513 C452 0.961 . S
H514 C452 0.959 . S
H515 C453 0.960 . S
H516 C453 0.960 . S
H517 C453 0.960 . S
H518 C489 0.980 . S
H519 C455 0.930 . S
H520 C459 0.930 . S
H521 C460 0.961 . S
H522 C460 0.960 . S
H523 C460 0.958 . S
H524 C461 0.961 . S
H525 C461 0.960 . S
H526 C461 0.960 . S
H527 C463 0.980 . S
H528 C462 0.961 . S
H529 C462 0.961 . S
H530 C462 0.959 . S
H531 C465 0.932 . S
H532 C469 0.929 . S
H533 C470 0.961 . S
H534 C470 0.959 . S
H535 C470 0.959 . S
H536 C471 0.960 . S
H537 C471 0.962 . S
H538 C471 0.961 . S
H539 C473 0.929 . S
H540 C476 0.930 . S
H541 C477 0.929 . S
H542 C480 0.930 . S
H543 C483 0.929 . S
H544 C484 0.930 . S
H545 C488 0.962 . S
H546 C488 0.959 . S
H547 C488 0.958 . S
C548 C549 1.560 . S
C548 H609 0.959 . S
C548 H610 0.959 . S
C548 H611 0.960 . S
C549 C548 1.560 . S
C549 O604 1.426 . S
C549 H608 0.980 . S
C550 C551 1.407 . S
C550 C555 1.418 . S
C550 O604 1.334 . S
C551 C550 1.407 . S
C551 C552 1.360 . S
C551 H612 0.929 . S
C552 C551 1.360 . S
C552 C553 1.401 . S
C552 C556 1.527 . S
C553 C552 1.401 . S
C553 C554 1.405 . S
C553 C586 1.587 . S
C554 C553 1.405 . S
C554 C555 1.332 . S
C554 C557 1.496 . S
C555 C550 1.418 . S
C555 C554 1.332 . S
C555 H613 0.929 . S
C556 C552 1.527 . S
C556 H614 0.959 . S
C556 H615 0.961 . S
C556 H616 0.961 . S
C557 C554 1.496 . S
C557 H617 0.960 . S
C557 H618 0.960 . S
C557 H619 0.961 . S
C558 C559 1.517 . S
C558 H621 0.961 . S
C558 H622 0.960 . S
C558 H623 0.959 . S
C559 C558 1.517 . S
C559 O607 1.468 . S
C559 H620 0.980 . S
C560 C561 1.349 . S
C560 C565 1.367 . S
C560 O607 1.408 . S
C561 C560 1.349 . S
C561 C562 1.407 . S
C561 H624 0.930 . S
C562 C561 1.407 . S
C562 C563 1.449 . S
C562 C566 1.535 . S
C563 C562 1.449 . S
C563 C564 1.384 . S
C563 C588 1.553 . S
C564 C563 1.384 . S
C564 C565 1.364 . S
C564 C567 1.450 . S
C565 C560 1.367 . S
C565 C564 1.364 . S
C565 H625 0.931 . S
C566 C562 1.535 . S
C566 H626 0.959 . S
C566 H627 0.961 . S
C566 H628 0.959 . S
C567 C564 1.450 . S
C567 H629 0.960 . S
C567 H630 0.960 . S
C567 H631 0.960 . S
C568 C569 1.309 . S
C568 C573 1.304 . S
C568 O606 1.435 . S
C569 C568 1.309 . S
C569 C570 1.476 . S
C569 H633 0.930 . S
C570 C569 1.476 . S
C570 C571 1.400 . S
C570 C574 1.567 . S
C571 C570 1.400 . S
C571 C572 1.373 . S
C571 C593 1.432 . S
C572 C571 1.373 . S
C572 C573 1.339 . S
C572 C575 1.530 . S
C573 C568 1.304 . S
C573 C572 1.339 . S
C573 H634 0.930 . S
C574 C570 1.567 . S
C574 H635 0.961 . S
C574 H636 0.960 . S
C574 H637 0.958 . S
C575 C572 1.530 . S
C575 H638 0.961 . S
C575 H639 0.960 . S
C575 H640 1.012 . S
C576 C577 1.530 . S
C576 H642 0.961 . S
C576 H643 0.961 . S
C576 H644 0.959 . S
C577 C576 1.530 . S
C577 O605 1.412 . S
C577 H641 0.980 . S
C578 C579 1.288 . S
C578 C583 1.377 . S
C578 O605 1.393 . S
C579 C578 1.288 . S
C579 C580 1.369 . S
C579 H645 0.932 . S
C580 C579 1.369 . S
C580 C581 1.398 . S
C580 C584 1.527 . S
C581 C580 1.398 . S
C581 C582 1.380 . S
C581 C595 1.497 . S
C582 C581 1.380 . S
C582 C583 1.383 . S
C582 C585 1.603 . S
C583 C578 1.377 . S
C583 C582 1.383 . S
C583 H646 0.929 . S
C584 C580 1.527 . S
C584 H647 0.961 . S
C584 H648 0.959 . S
C584 H649 0.959 . S
C585 C582 1.603 . S
C585 H650 0.960 . S
C585 H651 0.962 . S
C585 H652 0.961 . S
C586 C553 1.587 . S
C586 C587 1.360 . S
C586 C599 1.412 . S
C587 C586 1.360 . S
C587 C588 1.365 1_545 S
C587 H653 0.929 . S
C588 C563 1.553 . S
C588 C587 1.365 1_565 S
C588 C589 1.404 . S
C589 C588 1.404 . S
C589 C590 1.395 . S
C589 C600 1.451 1_565 S
C590 C589 1.395 . S
C590 C591 1.322 . S
C590 H654 0.930 . S
C591 C590 1.322 . S
C591 C592 1.459 . S
C591 H655 0.929 . S
C592 C591 1.459 . S
C592 C593 1.445 . S
C592 C601 1.395 1_565 S
C593 C571 1.432 . S
C593 C592 1.445 . S
C593 C594 1.370 1_565 S
C594 C593 1.370 1_545 S
C594 C595 1.438 . S
C594 H656 0.930 . S
C595 C581 1.497 . S
C595 C594 1.438 . S
C595 C596 1.360 . S
C596 C595 1.360 . S
C596 C597 1.401 . S
C596 C601 1.446 . S
C597 C596 1.401 . S
C597 C598 1.347 . S
C597 H657 0.929 . S
C598 C597 1.347 . S
C598 C599 1.455 . S
C598 H658 0.930 . S
C599 C586 1.412 . S
C599 C598 1.455 . S
C599 C600 1.331 . S
C600 C589 1.451 1_545 S
C600 C599 1.331 . S
C600 C601 1.497 . S
C601 C592 1.395 1_545 S
C601 C596 1.446 . S
C601 C600 1.497 . S
C602 C603 1.582 . S
C602 H659 0.962 . S
C602 H660 0.959 . S
C602 H661 0.958 . S
C603 C602 1.582 . S
C603 O606 1.458 . S
C603 H632 0.980 . S
O604 C549 1.426 . S
O604 C550 1.334 . S
O605 C577 1.412 . S
O605 C578 1.393 . S
O606 C568 1.435 . S
O606 C603 1.458 . S
O607 C559 1.468 . S
O607 C560 1.408 . S
H608 C549 0.980 . S
H609 C548 0.959 . S
H610 C548 0.959 . S
H611 C548 0.960 . S
H612 C551 0.929 . S
H613 C555 0.929 . S
H614 C556 0.959 . S
H615 C556 0.961 . S
H616 C556 0.961 . S
H617 C557 0.960 . S
H618 C557 0.960 . S
H619 C557 0.961 . S
H620 C559 0.980 . S
H621 C558 0.961 . S
H622 C558 0.960 . S
H623 C558 0.959 . S
H624 C561 0.930 . S
H625 C565 0.931 . S
H626 C566 0.959 . S
H627 C566 0.961 . S
H628 C566 0.959 . S
H629 C567 0.960 . S
H630 C567 0.960 . S
H631 C567 0.960 . S
H632 C603 0.980 . S
H633 C569 0.930 . S
H634 C573 0.930 . S
H635 C574 0.961 . S
H636 C574 0.960 . S
H637 C574 0.958 . S
H638 C575 0.961 . S
H639 C575 0.960 . S
H640 C575 1.012 . S
H641 C577 0.980 . S
H642 C576 0.961 . S
H643 C576 0.961 . S
H644 C576 0.959 . S
H645 C579 0.932 . S
H646 C583 0.929 . S
H647 C584 0.961 . S
H648 C584 0.959 . S
H649 C584 0.959 . S
H650 C585 0.960 . S
H651 C585 0.962 . S
H652 C585 0.961 . S
H653 C587 0.929 . S
H654 C590 0.930 . S
H655 C591 0.929 . S
H656 C594 0.930 . S
H657 C597 0.929 . S
H658 C598 0.930 . S
H659 C602 0.962 . S
H660 C602 0.959 . S
H661 C602 0.958 . S
C662 C663 1.560 . S
C662 H723 0.959 . S
C662 H724 0.959 . S
C662 H725 0.960 . S
C663 C662 1.560 . S
C663 O718 1.426 . S
C663 H722 0.980 . S
C664 C665 1.407 . S
C664 C669 1.418 . S
C664 O718 1.334 . S
C665 C664 1.407 . S
C665 C666 1.360 . S
C665 H726 0.929 . S
C666 C665 1.360 . S
C666 C667 1.401 . S
C666 C670 1.527 . S
C667 C666 1.401 . S
C667 C668 1.405 . S
C667 C700 1.587 . S
C668 C667 1.405 . S
C668 C669 1.332 . S
C668 C671 1.496 . S
C669 C664 1.418 . S
C669 C668 1.332 . S
C669 H727 0.929 . S
C670 C666 1.527 . S
C670 H728 0.959 . S
C670 H729 0.961 . S
C670 H730 0.961 . S
C671 C668 1.496 . S
C671 H731 0.960 . S
C671 H732 0.960 . S
C671 H733 0.961 . S
C672 C673 1.517 . S
C672 H735 0.961 . S
C672 H736 0.960 . S
C672 H737 0.959 . S
C673 C672 1.517 . S
C673 O721 1.468 . S
C673 H734 0.980 . S
C674 C675 1.349 . S
C674 C679 1.367 . S
C674 O721 1.408 . S
C675 C674 1.349 . S
C675 C676 1.407 . S
C675 H738 0.930 . S
C676 C675 1.407 . S
C676 C677 1.449 . S
C676 C680 1.535 . S
C677 C676 1.449 . S
C677 C678 1.384 . S
C677 C702 1.553 . S
C678 C677 1.384 . S
C678 C679 1.364 . S
C678 C681 1.450 . S
C679 C674 1.367 . S
C679 C678 1.364 . S
C679 H739 0.931 . S
C680 C676 1.535 . S
C680 H740 0.959 . S
C680 H741 0.961 . S
C680 H742 0.959 . S
C681 C678 1.450 . S
C681 H743 0.960 . S
C681 H744 0.960 . S
C681 H745 0.960 . S
C682 C683 1.309 . S
C682 C687 1.304 . S
C682 O720 1.435 . S
C683 C682 1.309 . S
C683 C684 1.476 . S
C683 H747 0.930 . S
C684 C683 1.476 . S
C684 C685 1.400 . S
C684 C688 1.567 . S
C685 C684 1.400 . S
C685 C686 1.373 . S
C685 C707 1.432 . S
C686 C685 1.373 . S
C686 C687 1.339 . S
C686 C689 1.530 . S
C687 C682 1.304 . S
C687 C686 1.339 . S
C687 H748 0.930 . S
C688 C684 1.567 . S
C688 H749 0.961 . S
C688 H750 0.960 . S
C688 H751 0.958 . S
C689 C686 1.530 . S
C689 H752 0.961 . S
C689 H753 0.960 . S
C689 H754 0.960 . S
C690 C691 1.530 . S
C690 H756 0.961 . S
C690 H757 0.961 . S
C690 H758 0.959 . S
C691 C690 1.530 . S
C691 O719 1.412 . S
C691 H755 0.980 . S
C692 C693 1.288 . S
C692 C697 1.377 . S
C692 O719 1.393 . S
C693 C692 1.288 . S
C693 C694 1.369 . S
C693 H759 0.932 . S
C694 C693 1.369 . S
C694 C695 1.398 . S
C694 C698 1.527 . S
C695 C694 1.398 . S
C695 C696 1.380 . S
C695 C709 1.497 . S
C696 C695 1.380 . S
C696 C697 1.383 . S
C696 C699 1.603 . S
C697 C692 1.377 . S
C697 C696 1.383 . S
C697 H760 0.929 . S
C698 C694 1.527 . S
C698 H761 0.961 . S
C698 H762 0.959 . S
C698 H763 0.959 . S
C699 C696 1.603 . S
C699 H764 0.960 . S
C699 H765 0.962 . S
C699 H766 0.961 . S
C700 C667 1.587 . S
C700 C701 1.360 . S
C700 C713 1.412 . S
C701 C700 1.360 . S
C701 C702 1.365 . S
C701 H767 0.929 . S
C702 C677 1.553 . S
C702 C701 1.365 . S
C702 C703 1.404 . S
C703 C702 1.404 . S
C703 C704 1.395 . S
C703 C714 1.451 . S
C704 C703 1.395 . S
C704 C705 1.317 . S
C704 H768 0.930 . S
C705 C704 1.317 . S
C705 C706 1.461 1_554 S
C705 H769 0.932 1_554 S
C706 C705 1.461 1_556 S
C706 C707 1.445 . S
C706 C715 1.395 . S
C707 C685 1.432 . S
C707 C706 1.445 . S
C707 C708 1.370 . S
C708 C707 1.370 . S
C708 C709 1.438 . S
C708 H770 0.930 . S
C709 C695 1.497 . S
C709 C708 1.438 . S
C709 C710 1.360 . S
C710 C709 1.360 . S
C710 C711 1.401 . S
C710 C715 1.446 . S
C711 C710 1.401 . S
C711 C712 1.347 1_556 S
C711 H771 0.929 . S
C712 C711 1.347 1_554 S
C712 C713 1.455 . S
C712 H772 0.930 . S
C713 C700 1.412 . S
C713 C712 1.455 . S
C713 C714 1.331 . S
C714 C703 1.451 . S
C714 C713 1.331 . S
C714 C715 1.497 1_554 S
C715 C706 1.395 . S
C715 C710 1.446 . S
C715 C714 1.497 1_556 S
C716 C717 1.582 . S
C716 H773 0.962 . S
C716 H774 0.959 . S
C716 H775 0.958 . S
C717 C716 1.582 . S
C717 O720 1.458 . S
C717 H746 0.980 . S
O718 C663 1.426 . S
O718 C664 1.334 . S
O719 C691 1.412 . S
O719 C692 1.393 . S
O720 C682 1.435 . S
O720 C717 1.458 . S
O721 C673 1.468 . S
O721 C674 1.408 . S
H722 C663 0.980 . S
H723 C662 0.959 . S
H724 C662 0.959 . S
H725 C662 0.960 . S
H726 C665 0.929 . S
H727 C669 0.929 . S
H728 C670 0.959 . S
H729 C670 0.961 . S
H730 C670 0.961 . S
H731 C671 0.960 . S
H732 C671 0.960 . S
H733 C671 0.961 . S
H734 C673 0.980 . S
H735 C672 0.961 . S
H736 C672 0.960 . S
H737 C672 0.959 . S
H738 C675 0.930 . S
H739 C679 0.931 . S
H740 C680 0.959 . S
H741 C680 0.961 . S
H742 C680 0.959 . S
H743 C681 0.960 . S
H744 C681 0.960 . S
H745 C681 0.960 . S
H746 C717 0.980 . S
H747 C683 0.930 . S
H748 C687 0.930 . S
H749 C688 0.961 . S
H750 C688 0.960 . S
H751 C688 0.958 . S
H752 C689 0.961 . S
H753 C689 0.960 . S
H754 C689 0.960 . S
H755 C691 0.980 . S
H756 C690 0.961 . S
H757 C690 0.961 . S
H758 C690 0.959 . S
H759 C693 0.932 . S
H760 C697 0.929 . S
H761 C698 0.961 . S
H762 C698 0.959 . S
H763 C698 0.959 . S
H764 C699 0.960 . S
H765 C699 0.962 . S
H766 C699 0.961 . S
H767 C701 0.929 . S
H768 C704 0.930 . S
H769 C705 0.932 1_556 S
H770 C708 0.930 . S
H771 C711 0.929 . S
H772 C712 0.930 . S
H773 C716 0.962 . S
H774 C716 0.959 . S
H775 C716 0.958 . S
C776 C777 1.560 . S
C776 H837 0.959 . S
C776 H838 0.959 . S
C776 H839 0.960 . S
C777 C776 1.560 . S
C777 O832 1.426 . S
C777 H836 0.980 . S
C778 C779 1.407 . S
C778 C783 1.418 . S
C778 O832 1.334 . S
C779 C778 1.407 . S
C779 C780 1.360 . S
C779 H840 0.929 . S
C780 C779 1.360 . S
C780 C781 1.401 . S
C780 C784 1.527 . S
C781 C780 1.401 . S
C781 C782 1.405 . S
C781 C814 1.587 . S
C782 C781 1.405 . S
C782 C783 1.332 . S
C782 C785 1.496 . S
C783 C778 1.418 . S
C783 C782 1.332 . S
C783 H841 0.929 . S
C784 C780 1.527 . S
C784 H842 0.959 . S
C784 H843 0.961 . S
C784 H844 0.961 . S
C785 C782 1.496 . S
C785 H845 0.960 . S
C785 H846 0.960 . S
C785 H847 0.961 . S
C786 C787 1.517 . S
C786 H849 0.961 . S
C786 H850 0.960 . S
C786 H851 0.959 . S
C787 C786 1.517 . S
C787 O835 1.468 . S
C787 H848 0.980 . S
C788 C789 1.349 . S
C788 C793 1.367 . S
C788 O835 1.408 . S
C789 C788 1.349 . S
C789 C790 1.407 . S
C789 H852 0.930 . S
C790 C789 1.407 . S
C790 C791 1.449 . S
C790 C794 1.535 . S
C791 C790 1.449 . S
C791 C792 1.384 . S
C791 C816 1.553 . S
C792 C791 1.384 . S
C792 C793 1.364 . S
C792 C795 1.450 . S
C793 C788 1.367 . S
C793 C792 1.364 . S
C793 H853 0.931 . S
C794 C790 1.535 . S
C794 H854 0.959 . S
C794 H855 0.961 . S
C794 H856 0.959 . S
C795 C792 1.450 . S
C795 H857 0.960 . S
C795 H858 0.960 . S
C795 H859 0.960 . S
C796 C797 1.309 . S
C796 C801 1.304 . S
C796 O834 1.435 . S
C797 C796 1.309 . S
C797 C798 1.476 . S
C797 H861 0.930 . S
C798 C797 1.476 . S
C798 C799 1.400 . S
C798 C802 1.567 . S
C799 C798 1.400 . S
C799 C800 1.373 . S
C799 C821 1.432 . S
C800 C799 1.373 . S
C800 C801 1.339 . S
C800 C803 1.530 . S
C801 C796 1.304 . S
C801 C800 1.339 . S
C801 H862 0.930 . S
C802 C798 1.567 . S
C802 H863 0.961 . S
C802 H864 0.960 . S
C802 H865 0.958 . S
C803 C800 1.530 . S
C803 H866 0.961 . S
C803 H867 0.960 . S
C803 H868 0.960 . S
C804 C805 1.530 . S
C804 H870 0.961 . S
C804 H871 0.961 . S
C804 H872 0.959 . S
C805 C804 1.530 . S
C805 O833 1.412 . S
C805 H869 0.980 . S
C806 C807 1.288 . S
C806 C811 1.377 . S
C806 O833 1.393 . S
C807 C806 1.288 . S
C807 C808 1.369 . S
C807 H873 0.932 . S
C808 C807 1.369 . S
C808 C809 1.398 . S
C808 C812 1.527 . S
C809 C808 1.398 . S
C809 C810 1.380 . S
C809 C823 1.497 . S
C810 C809 1.380 . S
C810 C811 1.383 . S
C810 C813 1.603 . S
C811 C806 1.377 . S
C811 C810 1.383 . S
C811 H874 0.929 . S
C812 C808 1.527 . S
C812 H875 0.961 . S
C812 H876 0.959 . S
C812 H877 0.959 . S
C813 C810 1.603 . S
C813 H878 0.960 . S
C813 H879 0.962 . S
C813 H880 0.961 . S
C814 C781 1.587 . S
C814 C815 1.360 . S
C814 C827 1.412 . S
C815 C814 1.360 . S
C815 C816 1.365 1_545 S
C815 H881 0.929 . S
C816 C791 1.553 . S
C816 C815 1.365 1_565 S
C816 C817 1.404 . S
C817 C816 1.404 . S
C817 C818 1.395 . S
C817 C828 1.451 1_565 S
C818 C817 1.395 . S
C818 C819 1.322 . S
C818 H882 0.930 . S
C819 C818 1.322 . S
C819 C820 1.459 . S
C819 H883 0.929 . S
C820 C819 1.459 . S
C820 C821 1.445 . S
C820 C829 1.395 1_565 S
C821 C799 1.432 . S
C821 C820 1.445 . S
C821 C822 1.370 1_565 S
C822 C821 1.370 1_545 S
C822 C823 1.438 . S
C822 H884 0.930 . S
C823 C809 1.497 . S
C823 C822 1.438 . S
C823 C824 1.360 . S
C824 C823 1.360 . S
C824 C825 1.401 . S
C824 C829 1.446 . S
C825 C824 1.401 . S
C825 C826 1.347 . S
C825 H885 0.929 . S
C826 C825 1.347 . S
C826 C827 1.455 . S
C826 H886 0.930 . S
C827 C814 1.412 . S
C827 C826 1.455 . S
C827 C828 1.331 . S
C828 C817 1.451 1_545 S
C828 C827 1.331 . S
C828 C829 1.497 . S
C829 C820 1.395 1_545 S
C829 C824 1.446 . S
C829 C828 1.497 . S
C830 C831 1.582 . S
C830 H887 0.962 . S
C830 H888 0.959 . S
C830 H889 0.958 . S
C831 C830 1.582 . S
C831 O834 1.458 . S
C831 H860 0.980 . S
O832 C777 1.426 . S
O832 C778 1.334 . S
O833 C805 1.412 . S
O833 C806 1.393 . S
O834 C796 1.435 . S
O834 C831 1.458 . S
O835 C787 1.468 . S
O835 C788 1.408 . S
H836 C777 0.980 . S
H837 C776 0.959 . S
H838 C776 0.959 . S
H839 C776 0.960 . S
H840 C779 0.929 . S
H841 C783 0.929 . S
H842 C784 0.959 . S
H843 C784 0.961 . S
H844 C784 0.961 . S
H845 C785 0.960 . S
H846 C785 0.960 . S
H847 C785 0.961 . S
H848 C787 0.980 . S
H849 C786 0.961 . S
H850 C786 0.960 . S
H851 C786 0.959 . S
H852 C789 0.930 . S
H853 C793 0.931 . S
H854 C794 0.959 . S
H855 C794 0.961 . S
H856 C794 0.959 . S
H857 C795 0.960 . S
H858 C795 0.960 . S
H859 C795 0.960 . S
H860 C831 0.980 . S
H861 C797 0.930 . S
H862 C801 0.930 . S
H863 C802 0.961 . S
H864 C802 0.960 . S
H865 C802 0.958 . S
H866 C803 0.961 . S
H867 C803 0.960 . S
H868 C803 0.960 . S
H869 C805 0.980 . S
H870 C804 0.961 . S
H871 C804 0.961 . S
H872 C804 0.959 . S
H873 C807 0.932 . S
H874 C811 0.929 . S
H875 C812 0.961 . S
H876 C812 0.959 . S
H877 C812 0.959 . S
H878 C813 0.960 . S
H879 C813 0.962 . S
H880 C813 0.961 . S
H881 C815 0.929 . S
H882 C818 0.930 . S
H883 C819 0.929 . S
H884 C822 0.930 . S
H885 C825 0.929 . S
H886 C826 0.930 . S
H887 C830 0.962 . S
H888 C830 0.959 . S
H889 C830 0.958 . S
C890 C891 1.560 . S
C890 H951 0.959 . S
C890 H952 0.959 . S
C890 H953 0.960 . S
C891 C890 1.560 . S
C891 O946 1.426 . S
C891 H950 0.980 . S
C892 C893 1.407 . S
C892 C897 1.418 . S
C892 O946 1.334 . S
C893 C892 1.407 . S
C893 C894 1.360 . S
C893 H954 0.929 . S
C894 C893 1.360 . S
C894 C895 1.401 . S
C894 C898 1.527 . S
C895 C894 1.401 . S
C895 C896 1.405 . S
C895 C928 1.587 . S
C896 C895 1.405 . S
C896 C897 1.332 . S
C896 C899 1.496 . S
C897 C892 1.418 . S
C897 C896 1.332 . S
C897 H955 0.929 . S
C898 C894 1.527 . S
C898 H956 0.959 . S
C898 H957 0.961 . S
C898 H958 0.961 . S
C899 C896 1.496 . S
C899 H959 0.960 . S
C899 H960 0.960 . S
C899 H961 0.961 . S
C900 C901 1.517 . S
C900 H963 0.961 . S
C900 H964 0.960 . S
C900 H965 0.959 . S
C901 C900 1.517 . S
C901 O949 1.468 . S
C901 H962 0.980 . S
C902 C903 1.349 . S
C902 C907 1.367 . S
C902 O949 1.408 . S
C903 C902 1.349 . S
C903 C904 1.407 . S
C903 H966 0.930 . S
C904 C903 1.407 . S
C904 C905 1.449 . S
C904 C908 1.535 . S
C905 C904 1.449 . S
C905 C906 1.384 . S
C905 C930 1.553 . S
C906 C905 1.384 . S
C906 C907 1.364 . S
C906 C909 1.450 . S
C907 C902 1.367 . S
C907 C906 1.364 . S
C907 H967 0.931 . S
C908 C904 1.535 . S
C908 H968 0.959 . S
C908 H969 0.961 . S
C908 H970 0.959 . S
C909 C906 1.450 . S
C909 H971 0.960 . S
C909 H972 0.960 . S
C909 H973 0.960 . S
C910 C911 1.309 . S
C910 C915 1.304 . S
C910 O948 1.435 . S
C911 C910 1.309 . S
C911 C912 1.476 . S
C911 H975 0.930 . S
C912 C911 1.476 . S
C912 C913 1.400 . S
C912 C916 1.567 . S
C913 C912 1.400 . S
C913 C914 1.373 . S
C913 C935 1.432 . S
C914 C913 1.373 . S
C914 C915 1.339 . S
C914 C917 1.530 . S
C915 C910 1.304 . S
C915 C914 1.339 . S
C915 H976 0.930 . S
C916 C912 1.567 . S
C916 H977 0.961 . S
C916 H978 0.960 . S
C916 H979 0.958 . S
C917 C914 1.530 . S
C917 H980 0.961 . S
C917 H981 0.960 . S
C917 H982 0.960 . S
C918 C919 1.530 . S
C918 H984 0.961 . S
C918 H985 0.961 . S
C918 H986 0.959 . S
C919 C918 1.530 . S
C919 O947 1.412 . S
C919 H983 0.980 . S
C920 C921 1.288 . S
C920 C925 1.377 . S
C920 O947 1.393 . S
C921 C920 1.288 . S
C921 C922 1.369 . S
C921 H987 0.932 . S
C922 C921 1.369 . S
C922 C923 1.398 . S
C922 C926 1.527 . S
C923 C922 1.398 . S
C923 C924 1.380 . S
C923 C937 1.497 . S
C924 C923 1.380 . S
C924 C925 1.383 . S
C924 C927 1.603 . S
C925 C920 1.377 . S
C925 C924 1.383 . S
C925 H988 0.929 . S
C926 C922 1.527 . S
C926 H989 0.961 . S
C926 H990 0.959 . S
C926 H991 0.959 . S
C927 C924 1.603 . S
C927 H992 0.960 . S
C927 H993 0.962 . S
C927 H994 0.961 . S
C928 C895 1.587 . S
C928 C929 1.360 . S
C928 C941 1.412 . S
C929 C928 1.360 . S
C929 C930 1.365 . S
C929 H995 0.929 . S
C930 C905 1.553 . S
C930 C929 1.365 . S
C930 C931 1.404 . S
C931 C930 1.404 . S
C931 C932 1.395 . S
C931 C942 1.451 . S
C932 C931 1.395 . S
C932 C933 1.251 1_554 S
C932 H996 0.930 . S
C933 C932 1.251 1_556 S
C933 C934 1.495 . S
C933 H997 0.968 . S
C934 C933 1.495 . S
C934 C935 1.445 . S
C934 C943 1.395 . S
C935 C913 1.432 . S
C935 C934 1.445 . S
C935 C936 1.370 . S
C936 C935 1.370 . S
C936 C937 1.438 . S
C936 H998 0.930 . S
C937 C923 1.497 . S
C937 C936 1.438 . S
C937 C938 1.360 . S
C938 C937 1.360 . S
C938 C939 1.397 . S
C938 C943 1.446 . S
C939 C938 1.397 . S
C939 C940 1.354 1_556 S
C939 H999 0.926 . S
C940 C939 1.354 1_554 S
C940 C941 1.455 . S
C940 H1000 0.930 . S
C941 C928 1.412 . S
C941 C940 1.455 . S
C941 C942 1.331 . S
C942 C931 1.451 . S
C942 C941 1.331 . S
C942 C943 1.497 1_554 S
C943 C934 1.395 . S
C943 C938 1.446 . S
C943 C942 1.497 1_556 S
C944 C945 1.582 . S
C944 H1001 0.962 . S
C944 H1002 0.959 . S
C944 H1003 0.958 . S
C945 C944 1.582 . S
C945 O948 1.458 . S
C945 H974 0.980 . S
O946 C891 1.426 . S
O946 C892 1.334 . S
O947 C919 1.412 . S
O947 C920 1.393 . S
O948 C910 1.435 . S
O948 C945 1.458 . S
O949 C901 1.468 . S
O949 C902 1.408 . S
H950 C891 0.980 . S
H951 C890 0.959 . S
H952 C890 0.959 . S
H953 C890 0.960 . S
H954 C893 0.929 . S
H955 C897 0.929 . S
H956 C898 0.959 . S
H957 C898 0.961 . S
H958 C898 0.961 . S
H959 C899 0.960 . S
H960 C899 0.960 . S
H961 C899 0.961 . S
H962 C901 0.980 . S
H963 C900 0.961 . S
H964 C900 0.960 . S
H965 C900 0.959 . S
H966 C903 0.930 . S
H967 C907 0.931 . S
H968 C908 0.959 . S
H969 C908 0.961 . S
H970 C908 0.959 . S
H971 C909 0.960 . S
H972 C909 0.960 . S
H973 C909 0.960 . S
H974 C945 0.980 . S
H975 C911 0.930 . S
H976 C915 0.930 . S
H977 C916 0.961 . S
H978 C916 0.960 . S
H979 C916 0.958 . S
H980 C917 0.961 . S
H981 C917 0.960 . S
H982 C917 0.960 . S
H983 C919 0.980 . S
H984 C918 0.961 . S
H985 C918 0.961 . S
H986 C918 0.959 . S
H987 C921 0.932 . S
H988 C925 0.929 . S
H989 C926 0.961 . S
H990 C926 0.959 . S
H991 C926 0.959 . S
H992 C927 0.960 . S
H993 C927 0.962 . S
H994 C927 0.961 . S
H995 C929 0.929 . S
H996 C932 0.930 . S
H997 C933 0.968 . S
H998 C936 0.930 . S
H999 C939 0.926 . S
H1000 C940 0.930 . S
H1001 C944 0.962 . S
H1002 C944 0.959 . S
H1003 C944 0.958 . S
H1004 C1012 0.929 . S
H1005 C1014 0.930 . S
H1006 C1016 0.930 . S
H1007 C1019 0.929 . S
H1008 C1022 0.930 . S
H1009 C1024 0.960 . S
H1010 C1024 0.960 . S
H1011 C1024 0.960 . S
C1012 H1004 0.929 . S
C1012 C1013 1.377 . S
C1012 C1014 1.384 . S
C1013 C1012 1.377 . S
C1013 C1019 1.390 . S
C1014 H1005 0.930 . S
C1014 C1012 1.384 . S
C1014 C1015 1.372 . S
C1015 C1014 1.372 . S
C1015 C1016 1.400 . S
C1015 C1020 1.490 . S
C1016 H1006 0.930 . S
C1016 C1015 1.400 . S
C1016 C1019 1.386 . S
H1017 C1033 0.930 . S
H1018 C1034 0.931 . S
C1019 H1007 0.929 . S
C1019 C1013 1.390 . S
C1019 C1016 1.386 . S
C1020 C1015 1.490 . S
C1020 C1022 1.395 . S
C1020 C1023 1.403 . S
H1021 C1027 0.930 . S
C1022 H1008 0.930 . S
C1022 C1020 1.395 . S
C1022 C1025 1.403 . S
C1023 C1020 1.403 . S
C1023 C1024 1.524 . S
C1023 C1027 1.400 . S
C1024 H1009 0.960 . S
C1024 H1010 0.960 . S
C1024 H1011 0.960 . S
C1024 C1023 1.524 . S
C1025 C1022 1.403 . S
C1025 C1026 1.392 . S
C1025 C1029 1.495 . S
C1026 C1025 1.392 . S
C1026 C1027 1.385 . S
C1026 C1028 1.478 . S
C1027 H1021 0.930 . S
C1027 C1023 1.400 . S
C1027 C1026 1.385 . S
C1028 C1026 1.478 . S
C1028 C1030 1.381 . S
C1028 C1034 1.383 . S
C1029 C1025 1.495 . S
C1029 H1035 0.959 . S
C1029 H1036 0.961 . S
C1029 H1037 0.960 . S
C1030 C1028 1.381 . S
C1030 C1031 1.394 . S
C1030 H1038 0.930 . S
C1031 C1030 1.394 . S
C1031 C1032 1.383 . S
C1031 H1039 0.929 . S
C1032 C1031 1.383 . S
C1032 C1033 1.377 . S
C1033 H1017 0.930 . S
C1033 C1032 1.377 . S
C1033 C1034 1.379 . S
C1034 H1018 0.931 . S
C1034 C1028 1.383 . S
C1034 C1033 1.379 . S
H1035 C1029 0.959 . S
H1036 C1029 0.961 . S
H1037 C1029 0.960 . S
H1038 C1030 0.930 . S
H1039 C1031 0.929 . S
H1040 C1048 0.929 . S
H1041 C1050 0.930 . S
H1042 C1052 0.930 . S
H1043 C1055 0.929 . S
H1044 C1058 0.930 . S
H1045 C1060 0.960 . S
H1046 C1060 0.960 . S
H1047 C1060 0.960 . S
C1048 H1040 0.929 . S
C1048 C1049 1.377 . S
C1048 C1050 1.384 . S
C1049 C1048 1.377 . S
C1049 C1055 1.390 . S
C1050 H1041 0.930 . S
C1050 C1048 1.384 . S
C1050 C1051 1.372 . S
C1051 C1050 1.372 . S
C1051 C1052 1.400 . S
C1051 C1056 1.490 . S
C1052 H1042 0.930 . S
C1052 C1051 1.400 . S
C1052 C1055 1.386 . S
H1053 C1069 0.930 . S
H1054 C1070 0.931 . S
C1055 H1043 0.929 . S
C1055 C1049 1.390 . S
C1055 C1052 1.386 . S
C1056 C1051 1.490 . S
C1056 C1058 1.395 . S
C1056 C1059 1.403 . S
H1057 C1063 0.930 . S
C1058 H1044 0.930 . S
C1058 C1056 1.395 . S
C1058 C1061 1.403 . S
C1059 C1056 1.403 . S
C1059 C1060 1.524 . S
C1059 C1063 1.400 . S
C1060 H1045 0.960 . S
C1060 H1046 0.960 . S
C1060 H1047 0.960 . S
C1060 C1059 1.524 . S
C1061 C1058 1.403 . S
C1061 C1062 1.392 . S
C1061 C1065 1.495 . S
C1062 C1061 1.392 . S
C1062 C1063 1.385 . S
C1062 C1064 1.478 . S
C1063 H1057 0.930 . S
C1063 C1059 1.400 . S
C1063 C1062 1.385 . S
C1064 C1062 1.478 . S
C1064 C1066 1.381 . S
C1064 C1070 1.383 . S
C1065 C1061 1.495 . S
C1065 H1071 0.959 . S
C1065 H1072 0.961 . S
C1065 H1073 0.960 . S
C1066 C1064 1.381 . S
C1066 C1067 1.394 . S
C1066 H1074 0.930 . S
C1067 C1066 1.394 . S
C1067 C1068 1.383 . S
C1067 H1075 0.929 . S
C1068 C1067 1.383 . S
C1068 C1069 1.377 . S
C1069 H1053 0.930 . S
C1069 C1068 1.377 . S
C1069 C1070 1.379 . S
C1070 H1054 0.931 . S
C1070 C1064 1.383 . S
C1070 C1069 1.379 . S
H1071 C1065 0.959 . S
H1072 C1065 0.961 . S
H1073 C1065 0.960 . S
H1074 C1066 0.930 . S
H1075 C1067 0.929 . S
H1076 C1084 0.929 . S
H1077 C1086 0.930 . S
H1078 C1088 0.930 . S
H1079 C1091 0.929 . S
H1080 C1094 0.930 . S
H1081 C1096 0.960 . S
H1082 C1096 0.960 . S
H1083 C1096 0.960 . S
C1084 H1076 0.929 . S
C1084 C1085 1.377 . S
C1084 C1086 1.384 . S
C1085 C1084 1.377 . S
C1085 C1091 1.390 . S
C1086 H1077 0.930 . S
C1086 C1084 1.384 . S
C1086 C1087 1.372 . S
C1087 C1086 1.372 . S
C1087 C1088 1.400 . S
C1087 C1092 1.490 . S
C1088 H1078 0.930 . S
C1088 C1087 1.400 . S
C1088 C1091 1.386 . S
H1089 C1105 0.930 . S
H1090 C1106 0.931 . S
C1091 H1079 0.929 . S
C1091 C1085 1.390 . S
C1091 C1088 1.386 . S
C1092 C1087 1.490 . S
C1092 C1094 1.395 . S
C1092 C1095 1.403 . S
H1093 C1099 0.930 . S
C1094 H1080 0.930 . S
C1094 C1092 1.395 . S
C1094 C1097 1.403 . S
C1095 C1092 1.403 . S
C1095 C1096 1.524 . S
C1095 C1099 1.400 . S
C1096 H1081 0.960 . S
C1096 H1082 0.960 . S
C1096 H1083 0.960 . S
C1096 C1095 1.524 . S
C1097 C1094 1.403 . S
C1097 C1098 1.392 . S
C1097 C1101 1.495 . S
C1098 C1097 1.392 . S
C1098 C1099 1.385 . S
C1098 C1100 1.478 . S
C1099 H1093 0.930 . S
C1099 C1095 1.400 . S
C1099 C1098 1.385 . S
C1100 C1098 1.478 . S
C1100 C1102 1.381 . S
C1100 C1106 1.383 . S
C1101 C1097 1.495 . S
C1101 H1107 0.959 . S
C1101 H1108 0.961 . S
C1101 H1109 0.960 . S
C1102 C1100 1.381 . S
C1102 C1103 1.394 . S
C1102 H1110 0.930 . S
C1103 C1102 1.394 . S
C1103 C1104 1.383 . S
C1103 H1111 0.929 . S
C1104 C1103 1.383 . S
C1104 C1105 1.377 . S
C1105 H1089 0.930 . S
C1105 C1104 1.377 . S
C1105 C1106 1.379 . S
C1106 H1090 0.931 . S
C1106 C1100 1.383 . S
C1106 C1105 1.379 . S
H1107 C1101 0.959 . S
H1108 C1101 0.961 . S
H1109 C1101 0.960 . S
H1110 C1102 0.930 . S
H1111 C1103 0.929 . S
H1112 C1120 0.929 . S
H1113 C1122 0.930 . S
H1114 C1124 0.930 . S
H1115 C1127 0.929 . S
H1116 C1130 0.930 . S
H1117 C1132 0.960 . S
H1118 C1132 0.960 . S
H1119 C1132 0.960 . S
C1120 H1112 0.929 . S
C1120 C1121 1.377 . S
C1120 C1122 1.384 . S
C1121 C1120 1.377 . S
C1121 C1127 1.390 . S
C1122 H1113 0.930 . S
C1122 C1120 1.384 . S
C1122 C1123 1.372 . S
C1123 C1122 1.372 . S
C1123 C1124 1.400 . S
C1123 C1128 1.490 . S
C1124 H1114 0.930 . S
C1124 C1123 1.400 . S
C1124 C1127 1.386 . S
H1125 C1141 0.930 . S
H1126 C1142 0.931 . S
C1127 H1115 0.929 . S
C1127 C1121 1.390 . S
C1127 C1124 1.386 . S
C1128 C1123 1.490 . S
C1128 C1130 1.395 . S
C1128 C1131 1.403 . S
H1129 C1135 0.930 . S
C1130 H1116 0.930 . S
C1130 C1128 1.395 . S
C1130 C1133 1.403 . S
C1131 C1128 1.403 . S
C1131 C1132 1.524 . S
C1131 C1135 1.400 . S
C1132 H1117 0.960 . S
C1132 H1118 0.960 . S
C1132 H1119 0.960 . S
C1132 C1131 1.524 . S
C1133 C1130 1.403 . S
C1133 C1134 1.392 . S
C1133 C1137 1.495 . S
C1134 C1133 1.392 . S
C1134 C1135 1.385 . S
C1134 C1136 1.478 . S
C1135 H1129 0.930 . S
C1135 C1131 1.400 . S
C1135 C1134 1.385 . S
C1136 C1134 1.478 . S
C1136 C1138 1.381 . S
C1136 C1142 1.383 . S
C1137 C1133 1.495 . S
C1137 H1143 0.959 . S
C1137 H1144 0.961 . S
C1137 H1145 0.960 . S
C1138 C1136 1.381 . S
C1138 C1139 1.394 . S
C1138 H1146 0.930 . S
C1139 C1138 1.394 . S
C1139 C1140 1.383 . S
C1139 H1147 0.929 . S
C1140 C1139 1.383 . S
C1140 C1141 1.377 . S
C1141 H1125 0.930 . S
C1141 C1140 1.377 . S
C1141 C1142 1.379 . S
C1142 H1126 0.931 . S
C1142 C1136 1.383 . S
C1142 C1141 1.379 . S
H1143 C1137 0.959 . S
H1144 C1137 0.961 . S
H1145 C1137 0.960 . S
H1146 C1138 0.930 . S
H1147 C1139 0.929 . S
H1148 C1156 0.929 . S
H1149 C1158 0.930 . S
H1150 C1160 0.930 . S
H1151 C1163 0.929 . S
H1152 C1166 0.930 . S
H1153 C1168 0.960 . S
H1154 C1168 0.960 . S
H1155 C1168 0.960 . S
C1156 H1148 0.929 . S
C1156 C1157 1.377 . S
C1156 C1158 1.384 . S
C1157 C1156 1.377 . S
C1157 C1163 1.390 . S
C1158 H1149 0.930 . S
C1158 C1156 1.384 . S
C1158 C1159 1.372 . S
C1159 C1158 1.372 . S
C1159 C1160 1.400 . S
C1159 C1164 1.490 . S
C1160 H1150 0.930 . S
C1160 C1159 1.400 . S
C1160 C1163 1.386 . S
H1161 C1177 0.930 . S
H1162 C1178 0.931 . S
C1163 H1151 0.929 . S
C1163 C1157 1.390 . S
C1163 C1160 1.386 . S
C1164 C1159 1.490 . S
C1164 C1166 1.395 . S
C1164 C1167 1.403 . S
H1165 C1171 0.930 . S
C1166 H1152 0.930 . S
C1166 C1164 1.395 . S
C1166 C1169 1.403 . S
C1167 C1164 1.403 . S
C1167 C1168 1.524 . S
C1167 C1171 1.400 . S
C1168 H1153 0.960 . S
C1168 H1154 0.960 . S
C1168 H1155 0.960 . S
C1168 C1167 1.524 . S
C1169 C1166 1.403 . S
C1169 C1170 1.392 . S
C1169 C1173 1.495 . S
C1170 C1169 1.392 . S
C1170 C1171 1.385 . S
C1170 C1172 1.478 . S
C1171 H1165 0.930 . S
C1171 C1167 1.400 . S
C1171 C1170 1.385 . S
C1172 C1170 1.478 . S
C1172 C1174 1.381 . S
C1172 C1178 1.383 . S
C1173 C1169 1.495 . S
C1173 H1179 0.959 . S
C1173 H1180 0.961 . S
C1173 H1181 0.960 . S
C1174 C1172 1.381 . S
C1174 C1175 1.394 . S
C1174 H1182 0.930 . S
C1175 C1174 1.394 . S
C1175 C1176 1.383 . S
C1175 H1183 0.929 . S
C1176 C1175 1.383 . S
C1176 C1177 1.377 . S
C1177 H1161 0.930 . S
C1177 C1176 1.377 . S
C1177 C1178 1.379 . S
C1178 H1162 0.931 . S
C1178 C1172 1.383 . S
C1178 C1177 1.379 . S
H1179 C1173 0.959 . S
H1180 C1173 0.961 . S
H1181 C1173 0.960 . S
H1182 C1174 0.930 . S
H1183 C1175 0.929 . S
H1184 C1192 0.929 . S
H1185 C1194 0.930 . S
H1186 C1196 0.930 . S
H1187 C1199 0.929 . S
H1188 C1202 0.930 . S
H1189 C1204 0.960 . S
H1190 C1204 0.960 . S
H1191 C1204 0.960 . S
C1192 H1184 0.929 . S
C1192 C1193 1.377 . S
C1192 C1194 1.384 . S
C1193 C1192 1.377 . S
C1193 C1199 1.390 . S
C1194 H1185 0.930 . S
C1194 C1192 1.384 . S
C1194 C1195 1.372 . S
C1195 C1194 1.372 . S
C1195 C1196 1.400 . S
C1195 C1200 1.490 . S
C1196 H1186 0.930 . S
C1196 C1195 1.400 . S
C1196 C1199 1.386 . S
H1197 C1213 0.930 . S
H1198 C1214 0.931 . S
C1199 H1187 0.929 . S
C1199 C1193 1.390 . S
C1199 C1196 1.386 . S
C1200 C1195 1.490 . S
C1200 C1202 1.395 . S
C1200 C1203 1.403 . S
H1201 C1207 0.930 . S
C1202 H1188 0.930 . S
C1202 C1200 1.395 . S
C1202 C1205 1.403 . S
C1203 C1200 1.403 . S
C1203 C1204 1.524 . S
C1203 C1207 1.400 . S
C1204 H1189 0.960 . S
C1204 H1190 0.960 . S
C1204 H1191 0.960 . S
C1204 C1203 1.524 . S
C1205 C1202 1.403 . S
C1205 C1206 1.392 . S
C1205 C1209 1.495 . S
C1206 C1205 1.392 . S
C1206 C1207 1.385 . S
C1206 C1208 1.478 . S
C1207 H1201 0.930 . S
C1207 C1203 1.400 . S
C1207 C1206 1.385 . S
C1208 C1206 1.478 . S
C1208 C1210 1.381 . S
C1208 C1214 1.383 . S
C1209 C1205 1.495 . S
C1209 H1215 0.959 . S
C1209 H1216 0.961 . S
C1209 H1217 0.960 . S
C1210 C1208 1.381 . S
C1210 C1211 1.394 . S
C1210 H1218 0.930 . S
C1211 C1210 1.394 . S
C1211 C1212 1.383 . S
C1211 H1219 0.929 . S
C1212 C1211 1.383 . S
C1212 C1213 1.377 . S
C1213 H1197 0.930 . S
C1213 C1212 1.377 . S
C1213 C1214 1.379 . S
C1214 H1198 0.931 . S
C1214 C1208 1.383 . S
C1214 C1213 1.379 . S
H1215 C1209 0.959 . S
H1216 C1209 0.961 . S
H1217 C1209 0.960 . S
H1218 C1210 0.930 . S
H1219 C1211 0.929 . S
H1220 C1228 0.929 . S
H1221 C1230 0.930 . S
H1222 C1232 0.930 . S
H1223 C1235 0.929 . S
H1224 C1238 0.930 . S
H1225 C1240 0.960 . S
H1226 C1240 0.960 . S
H1227 C1240 0.960 . S
C1228 H1220 0.929 . S
C1228 C1229 1.377 . S
C1228 C1230 1.384 . S
C1229 C1228 1.377 . S
C1229 C1235 1.390 . S
C1230 H1221 0.930 . S
C1230 C1228 1.384 . S
C1230 C1231 1.372 . S
C1231 C1230 1.372 . S
C1231 C1232 1.400 . S
C1231 C1236 1.490 . S
C1232 H1222 0.930 . S
C1232 C1231 1.400 . S
C1232 C1235 1.386 . S
H1233 C1249 0.930 . S
H1234 C1250 0.931 . S
C1235 H1223 0.929 . S
C1235 C1229 1.390 . S
C1235 C1232 1.386 . S
C1236 C1231 1.490 . S
C1236 C1238 1.395 . S
C1236 C1239 1.403 . S
H1237 C1243 0.930 . S
C1238 H1224 0.930 . S
C1238 C1236 1.395 . S
C1238 C1241 1.403 . S
C1239 C1236 1.403 . S
C1239 C1240 1.524 . S
C1239 C1243 1.400 . S
C1240 H1225 0.960 . S
C1240 H1226 0.960 . S
C1240 H1227 0.960 . S
C1240 C1239 1.524 . S
C1241 C1238 1.403 . S
C1241 C1242 1.392 . S
C1241 C1245 1.495 . S
C1242 C1241 1.392 . S
C1242 C1243 1.385 . S
C1242 C1244 1.478 . S
C1243 H1237 0.930 . S
C1243 C1239 1.400 . S
C1243 C1242 1.385 . S
C1244 C1242 1.478 . S
C1244 C1246 1.381 . S
C1244 C1250 1.383 . S
C1245 C1241 1.495 . S
C1245 H1251 0.959 . S
C1245 H1252 0.961 . S
C1245 H1253 0.960 . S
C1246 C1244 1.381 . S
C1246 C1247 1.394 . S
C1246 H1254 0.930 . S
C1247 C1246 1.394 . S
C1247 C1248 1.383 . S
C1247 H1255 0.929 . S
C1248 C1247 1.383 . S
C1248 C1249 1.377 . S
C1249 H1233 0.930 . S
C1249 C1248 1.377 . S
C1249 C1250 1.379 . S
C1250 H1234 0.931 . S
C1250 C1244 1.383 . S
C1250 C1249 1.379 . S
H1251 C1245 0.959 . S
H1252 C1245 0.961 . S
H1253 C1245 0.960 . S
H1254 C1246 0.930 . S
H1255 C1247 0.929 . S
H1256 C1264 0.929 . S
H1257 C1266 0.930 . S
H1258 C1268 0.930 . S
H1259 C1271 0.929 . S
H1260 C1274 0.930 . S
H1261 C1276 0.960 . S
H1262 C1276 0.960 . S
H1263 C1276 0.960 . S
C1264 H1256 0.929 . S
C1264 C1265 1.377 . S
C1264 C1266 1.384 . S
C1265 C1264 1.377 . S
C1265 C1271 1.390 . S
C1266 H1257 0.930 . S
C1266 C1264 1.384 . S
C1266 C1267 1.372 . S
C1267 C1266 1.372 . S
C1267 C1268 1.400 . S
C1267 C1272 1.490 . S
C1268 H1258 0.930 . S
C1268 C1267 1.400 . S
C1268 C1271 1.386 . S
H1269 C1285 0.930 . S
H1270 C1286 0.931 . S
C1271 H1259 0.929 . S
C1271 C1265 1.390 . S
C1271 C1268 1.386 . S
C1272 C1267 1.490 . S
C1272 C1274 1.395 . S
C1272 C1275 1.403 . S
H1273 C1279 0.930 . S
C1274 H1260 0.930 . S
C1274 C1272 1.395 . S
C1274 C1277 1.403 . S
C1275 C1272 1.403 . S
C1275 C1276 1.524 . S
C1275 C1279 1.400 . S
C1276 H1261 0.960 . S
C1276 H1262 0.960 . S
C1276 H1263 0.960 . S
C1276 C1275 1.524 . S
C1277 C1274 1.403 . S
C1277 C1278 1.392 . S
C1277 C1281 1.495 . S
C1278 C1277 1.392 . S
C1278 C1279 1.385 . S
C1278 C1280 1.478 . S
C1279 H1273 0.930 . S
C1279 C1275 1.400 . S
C1279 C1278 1.385 . S
C1280 C1278 1.478 . S
C1280 C1282 1.381 . S
C1280 C1286 1.383 . S
C1281 C1277 1.495 . S
C1281 H1287 0.959 . S
C1281 H1288 0.961 . S
C1281 H1289 0.960 . S
C1282 C1280 1.381 . S
C1282 C1283 1.394 . S
C1282 H1290 0.930 . S
C1283 C1282 1.394 . S
C1283 C1284 1.383 . S
C1283 H1291 0.929 . S
C1284 C1283 1.383 . S
C1284 C1285 1.377 . S
C1285 H1269 0.930 . S
C1285 C1284 1.377 . S
C1285 C1286 1.379 . S
C1286 H1270 0.931 . S
C1286 C1280 1.383 . S
C1286 C1285 1.379 . S
H1287 C1281 0.959 . S
H1288 C1281 0.961 . S
H1289 C1281 0.960 . S
H1290 C1282 0.930 . S
H1291 C1283 0.929 . S
H1292 C1300 0.929 . S
H1293 C1302 0.930 . S
H1294 C1304 0.930 . S
H1295 C1307 0.929 . S
H1296 C1310 0.930 . S
H1297 C1312 0.960 . S
H1298 C1312 0.960 . S
H1299 C1312 0.960 . S
C1300 H1292 0.929 . S
C1300 C1301 1.377 . S
C1300 C1302 1.384 . S
C1301 C1300 1.377 . S
C1301 C1307 1.390 . S
C1302 H1293 0.930 . S
C1302 C1300 1.384 . S
C1302 C1303 1.372 . S
C1303 C1302 1.372 . S
C1303 C1304 1.400 . S
C1303 C1308 1.490 . S
C1304 H1294 0.930 . S
C1304 C1303 1.400 . S
C1304 C1307 1.386 . S
H1305 C1321 0.930 . S
H1306 C1322 0.931 . S
C1307 H1295 0.929 . S
C1307 C1301 1.390 . S
C1307 C1304 1.386 . S
C1308 C1303 1.490 . S
C1308 C1310 1.395 . S
C1308 C1311 1.403 . S
H1309 C1315 0.930 . S
C1310 H1296 0.930 . S
C1310 C1308 1.395 . S
C1310 C1313 1.403 . S
C1311 C1308 1.403 . S
C1311 C1312 1.524 . S
C1311 C1315 1.400 . S
C1312 H1297 0.960 . S
C1312 H1298 0.960 . S
C1312 H1299 0.960 . S
C1312 C1311 1.524 . S
C1313 C1310 1.403 . S
C1313 C1314 1.392 . S
C1313 C1317 1.495 . S
C1314 C1313 1.392 . S
C1314 C1315 1.385 . S
C1314 C1316 1.478 . S
C1315 H1309 0.930 . S
C1315 C1311 1.400 . S
C1315 C1314 1.385 . S
C1316 C1314 1.478 . S
C1316 C1318 1.381 . S
C1316 C1322 1.383 . S
C1317 C1313 1.495 . S
C1317 H1323 0.959 . S
C1317 H1324 0.961 . S
C1317 H1325 0.960 . S
C1318 C1316 1.381 . S
C1318 C1319 1.394 . S
C1318 H1326 0.930 . S
C1319 C1318 1.394 . S
C1319 C1320 1.383 . S
C1319 H1327 0.929 . S
C1320 C1319 1.383 . S
C1320 C1321 1.377 . S
C1321 H1305 0.930 . S
C1321 C1320 1.377 . S
C1321 C1322 1.379 . S
C1322 H1306 0.931 . S
C1322 C1316 1.383 . S
C1322 C1321 1.379 . S
H1323 C1317 0.959 . S
H1324 C1317 0.961 . S
H1325 C1317 0.960 . S
H1326 C1318 0.930 . S
H1327 C1319 0.929 . S
H1328 C1336 0.929 . S
H1329 C1338 0.930 . S
H1330 C1340 0.930 . S
H1331 C1343 0.929 . S
H1332 C1346 0.930 . S
H1333 C1348 0.960 . S
H1334 C1348 0.960 . S
H1335 C1348 0.960 . S
C1336 H1328 0.929 . S
C1336 C1337 1.377 . S
C1336 C1338 1.384 . S
C1337 C1336 1.377 . S
C1337 C1343 1.390 . S
C1338 H1329 0.930 . S
C1338 C1336 1.384 . S
C1338 C1339 1.372 . S
C1339 C1338 1.372 . S
C1339 C1340 1.400 . S
C1339 C1344 1.490 . S
C1340 H1330 0.930 . S
C1340 C1339 1.400 . S
C1340 C1343 1.386 . S
H1341 C1357 0.930 . S
H1342 C1358 0.931 . S
C1343 H1331 0.929 . S
C1343 C1337 1.390 . S
C1343 C1340 1.386 . S
C1344 C1339 1.490 . S
C1344 C1346 1.395 . S
C1344 C1347 1.403 . S
H1345 C1351 0.930 . S
C1346 H1332 0.930 . S
C1346 C1344 1.395 . S
C1346 C1349 1.403 . S
C1347 C1344 1.403 . S
C1347 C1348 1.524 . S
C1347 C1351 1.400 . S
C1348 H1333 0.960 . S
C1348 H1334 0.960 . S
C1348 H1335 0.960 . S
C1348 C1347 1.524 . S
C1349 C1346 1.403 . S
C1349 C1350 1.392 . S
C1349 C1353 1.495 . S
C1350 C1349 1.392 . S
C1350 C1351 1.385 . S
C1350 C1352 1.478 . S
C1351 H1345 0.930 . S
C1351 C1347 1.400 . S
C1351 C1350 1.385 . S
C1352 C1350 1.478 . S
C1352 C1354 1.381 . S
C1352 C1358 1.383 . S
C1353 C1349 1.495 . S
C1353 H1359 0.959 . S
C1353 H1360 0.961 . S
C1353 H1361 0.960 . S
C1354 C1352 1.381 . S
C1354 C1355 1.394 . S
C1354 H1362 0.930 . S
C1355 C1354 1.394 . S
C1355 C1356 1.383 . S
C1355 H1363 0.929 . S
C1356 C1355 1.383 . S
C1356 C1357 1.377 . S
C1357 H1341 0.930 . S
C1357 C1356 1.377 . S
C1357 C1358 1.379 . S
C1358 H1342 0.931 . S
C1358 C1352 1.383 . S
C1358 C1357 1.379 . S
H1359 C1353 0.959 . S
H1360 C1353 0.961 . S
H1361 C1353 0.960 . S
H1362 C1354 0.930 . S
H1363 C1355 0.929 . S
H1364 C1372 0.929 . S
H1365 C1374 0.930 . S
H1366 C1376 0.930 . S
H1367 C1379 0.929 . S
H1368 C1382 0.930 . S
H1369 C1384 0.960 . S
H1370 C1384 0.960 . S
H1371 C1384 0.960 . S
C1372 H1364 0.929 . S
C1372 C1373 1.377 . S
C1372 C1374 1.384 . S
C1373 C1372 1.377 . S
C1373 C1379 1.390 . S
C1374 H1365 0.930 . S
C1374 C1372 1.384 . S
C1374 C1375 1.372 . S
C1375 C1374 1.372 . S
C1375 C1376 1.400 . S
C1375 C1380 1.490 . S
C1376 H1366 0.930 . S
C1376 C1375 1.400 . S
C1376 C1379 1.386 . S
H1377 C1393 0.930 . S
H1378 C1394 0.931 . S
C1379 H1367 0.929 . S
C1379 C1373 1.390 . S
C1379 C1376 1.386 . S
C1380 C1375 1.490 . S
C1380 C1382 1.395 . S
C1380 C1383 1.403 . S
H1381 C1387 0.930 . S
C1382 H1368 0.930 . S
C1382 C1380 1.395 . S
C1382 C1385 1.403 . S
C1383 C1380 1.403 . S
C1383 C1384 1.524 . S
C1383 C1387 1.400 . S
C1384 H1369 0.960 . S
C1384 H1370 0.960 . S
C1384 H1371 0.960 . S
C1384 C1383 1.524 . S
C1385 C1382 1.403 . S
C1385 C1386 1.392 . S
C1385 C1389 1.495 . S
C1386 C1385 1.392 . S
C1386 C1387 1.385 . S
C1386 C1388 1.478 . S
C1387 H1381 0.930 . S
C1387 C1383 1.400 . S
C1387 C1386 1.385 . S
C1388 C1386 1.478 . S
C1388 C1390 1.381 . S
C1388 C1394 1.383 . S
C1389 C1385 1.495 . S
C1389 H1395 0.959 . S
C1389 H1396 0.961 . S
C1389 H1397 0.960 . S
C1390 C1388 1.381 . S
C1390 C1391 1.394 . S
C1390 H1398 0.930 . S
C1391 C1390 1.394 . S
C1391 C1392 1.383 . S
C1391 H1399 0.929 . S
C1392 C1391 1.383 . S
C1392 C1393 1.377 . S
C1393 H1377 0.930 . S
C1393 C1392 1.377 . S
C1393 C1394 1.379 . S
C1394 H1378 0.931 . S
C1394 C1388 1.383 . S
C1394 C1393 1.379 . S
H1395 C1389 0.959 . S
H1396 C1389 0.961 . S
H1397 C1389 0.960 . S
H1398 C1390 0.930 . S
H1399 C1391 0.929 . S
H1400 C1408 0.929 . S
H1401 C1410 0.930 . S
H1402 C1412 0.930 . S
H1403 C1415 0.929 . S
H1404 C1418 0.930 . S
H1405 C1420 0.960 . S
H1406 C1420 0.960 . S
H1407 C1420 0.960 . S
C1408 H1400 0.929 . S
C1408 C1409 1.377 . S
C1408 C1410 1.384 . S
C1409 C1408 1.377 . S
C1409 C1415 1.390 . S
C1410 H1401 0.930 . S
C1410 C1408 1.384 . S
C1410 C1411 1.372 . S
C1411 C1410 1.372 . S
C1411 C1412 1.400 . S
C1411 C1416 1.490 . S
C1412 H1402 0.930 . S
C1412 C1411 1.400 . S
C1412 C1415 1.386 . S
H1413 C1429 0.930 . S
H1414 C1430 0.931 . S
C1415 H1403 0.929 . S
C1415 C1409 1.390 . S
C1415 C1412 1.386 . S
C1416 C1411 1.490 . S
C1416 C1418 1.395 . S
C1416 C1419 1.403 . S
H1417 C1423 0.930 . S
C1418 H1404 0.930 . S
C1418 C1416 1.395 . S
C1418 C1421 1.403 . S
C1419 C1416 1.403 . S
C1419 C1420 1.524 . S
C1419 C1423 1.400 . S
C1420 H1405 0.960 . S
C1420 H1406 0.960 . S
C1420 H1407 0.960 . S
C1420 C1419 1.524 . S
C1421 C1418 1.403 . S
C1421 C1422 1.392 . S
C1421 C1425 1.495 . S
C1422 C1421 1.392 . S
C1422 C1423 1.385 . S
C1422 C1424 1.478 . S
C1423 H1417 0.930 . S
C1423 C1419 1.400 . S
C1423 C1422 1.385 . S
C1424 C1422 1.478 . S
C1424 C1426 1.381 . S
C1424 C1430 1.383 . S
C1425 C1421 1.495 . S
C1425 H1431 0.959 . S
C1425 H1432 0.961 . S
C1425 H1433 0.960 . S
C1426 C1424 1.381 . S
C1426 C1427 1.394 . S
C1426 H1434 0.930 . S
C1427 C1426 1.394 . S
C1427 C1428 1.383 . S
C1427 H1435 0.929 . S
C1428 C1427 1.383 . S
C1428 C1429 1.377 . S
C1429 H1413 0.930 . S
C1429 C1428 1.377 . S
C1429 C1430 1.379 . S
C1430 H1414 0.931 . S
C1430 C1424 1.383 . S
C1430 C1429 1.379 . S
H1431 C1425 0.959 . S
H1432 C1425 0.961 . S
H1433 C1425 0.960 . S
H1434 C1426 0.930 . S
H1435 C1427 0.929 . S
H1436 C1444 0.929 . S
H1437 C1446 0.930 . S
H1438 C1448 0.930 . S
H1439 C1451 0.929 . S
H1440 C1454 0.930 . S
H1441 C1456 0.960 . S
H1442 C1456 0.960 . S
H1443 C1456 0.960 . S
C1444 H1436 0.929 . S
C1444 C1445 1.377 . S
C1444 C1446 1.384 . S
C1445 C1444 1.377 . S
C1445 C1451 1.390 . S
C1446 H1437 0.930 . S
C1446 C1444 1.384 . S
C1446 C1447 1.372 . S
C1447 C1446 1.372 . S
C1447 C1448 1.400 . S
C1447 C1452 1.490 . S
C1448 H1438 0.930 . S
C1448 C1447 1.400 . S
C1448 C1451 1.386 . S
H1449 C1465 0.930 . S
H1450 C1466 0.931 . S
C1451 H1439 0.929 . S
C1451 C1445 1.390 . S
C1451 C1448 1.386 . S
C1452 C1447 1.490 . S
C1452 C1454 1.395 . S
C1452 C1455 1.403 . S
H1453 C1459 0.930 . S
C1454 H1440 0.930 . S
C1454 C1452 1.395 . S
C1454 C1457 1.403 . S
C1455 C1452 1.403 . S
C1455 C1456 1.524 . S
C1455 C1459 1.400 . S
C1456 H1441 0.960 . S
C1456 H1442 0.960 . S
C1456 H1443 0.960 . S
C1456 C1455 1.524 . S
C1457 C1454 1.403 . S
C1457 C1458 1.392 . S
C1457 C1461 1.495 . S
C1458 C1457 1.392 . S
C1458 C1459 1.385 . S
C1458 C1460 1.478 . S
C1459 H1453 0.930 . S
C1459 C1455 1.400 . S
C1459 C1458 1.385 . S
C1460 C1458 1.478 . S
C1460 C1462 1.381 . S
C1460 C1466 1.383 . S
C1461 C1457 1.495 . S
C1461 H1467 0.959 . S
C1461 H1468 0.961 . S
C1461 H1469 0.960 . S
C1462 C1460 1.381 . S
C1462 C1463 1.394 . S
C1462 H1470 0.930 . S
C1463 C1462 1.394 . S
C1463 C1464 1.383 . S
C1463 H1471 0.929 . S
C1464 C1463 1.383 . S
C1464 C1465 1.377 . S
C1465 H1449 0.930 . S
C1465 C1464 1.377 . S
C1465 C1466 1.379 . S
C1466 H1450 0.931 . S
C1466 C1460 1.383 . S
C1466 C1465 1.379 . S
H1467 C1461 0.959 . S
H1468 C1461 0.961 . S
H1469 C1461 0.960 . S
H1470 C1462 0.930 . S
H1471 C1463 0.929 . S
H1472 C1480 0.929 . S
H1473 C1482 0.930 . S
H1474 C1484 0.930 . S
H1475 C1487 0.929 . S
H1476 C1490 0.930 . S
H1477 C1492 0.960 . S
H1478 C1492 0.960 . S
H1479 C1492 0.960 . S
C1480 H1472 0.929 . S
C1480 C1481 1.377 . S
C1480 C1482 1.384 . S
C1481 C1480 1.377 . S
C1481 C1487 1.390 . S
C1482 H1473 0.930 . S
C1482 C1480 1.384 . S
C1482 C1483 1.372 . S
C1483 C1482 1.372 . S
C1483 C1484 1.400 . S
C1483 C1488 1.490 . S
C1484 H1474 0.930 . S
C1484 C1483 1.400 . S
C1484 C1487 1.386 . S
H1485 C1501 0.930 . S
H1486 C1502 0.931 . S
C1487 H1475 0.929 . S
C1487 C1481 1.390 . S
C1487 C1484 1.386 . S
C1488 C1483 1.490 . S
C1488 C1490 1.395 . S
C1488 C1491 1.403 . S
H1489 C1495 0.930 . S
C1490 H1476 0.930 . S
C1490 C1488 1.395 . S
C1490 C1493 1.403 . S
C1491 C1488 1.403 . S
C1491 C1492 1.524 . S
C1491 C1495 1.400 . S
C1492 H1477 0.960 . S
C1492 H1478 0.960 . S
C1492 H1479 0.960 . S
C1492 C1491 1.524 . S
C1493 C1490 1.403 . S
C1493 C1494 1.392 . S
C1493 C1497 1.495 . S
C1494 C1493 1.392 . S
C1494 C1495 1.385 . S
C1494 C1496 1.478 . S
C1495 H1489 0.930 . S
C1495 C1491 1.400 . S
C1495 C1494 1.385 . S
C1496 C1494 1.478 . S
C1496 C1498 1.381 . S
C1496 C1502 1.383 . S
C1497 C1493 1.495 . S
C1497 H1503 0.959 . S
C1497 H1504 0.961 . S
C1497 H1505 0.960 . S
C1498 C1496 1.381 . S
C1498 C1499 1.394 . S
C1498 H1506 0.930 . S
C1499 C1498 1.394 . S
C1499 C1500 1.383 . S
C1499 H1507 0.929 . S
C1500 C1499 1.383 . S
C1500 C1501 1.377 . S
C1501 H1485 0.930 . S
C1501 C1500 1.377 . S
C1501 C1502 1.379 . S
C1502 H1486 0.931 . S
C1502 C1496 1.383 . S
C1502 C1501 1.379 . S
H1503 C1497 0.959 . S
H1504 C1497 0.961 . S
H1505 C1497 0.960 . S
H1506 C1498 0.930 . S
H1507 C1499 0.929 . S
H1508 C1516 0.929 . S
H1509 C1518 0.930 . S
H1510 C1520 0.930 . S
H1511 C1523 0.929 . S
H1512 C1526 0.930 . S
H1513 C1528 0.960 . S
H1514 C1528 0.960 . S
H1515 C1528 0.960 . S
C1516 H1508 0.929 . S
C1516 C1517 1.377 . S
C1516 C1518 1.384 . S
C1517 C1516 1.377 . S
C1517 C1523 1.390 . S
C1518 H1509 0.930 . S
C1518 C1516 1.384 . S
C1518 C1519 1.372 . S
C1519 C1518 1.372 . S
C1519 C1520 1.400 . S
C1519 C1524 1.490 . S
C1520 H1510 0.930 . S
C1520 C1519 1.400 . S
C1520 C1523 1.386 . S
H1521 C1537 0.930 . S
H1522 C1538 0.931 . S
C1523 H1511 0.929 . S
C1523 C1517 1.390 . S
C1523 C1520 1.386 . S
C1524 C1519 1.490 . S
C1524 C1526 1.395 . S
C1524 C1527 1.403 . S
H1525 C1531 0.930 . S
C1526 H1512 0.930 . S
C1526 C1524 1.395 . S
C1526 C1529 1.403 . S
C1527 C1524 1.403 . S
C1527 C1528 1.524 . S
C1527 C1531 1.400 . S
C1528 H1513 0.960 . S
C1528 H1514 0.960 . S
C1528 H1515 0.960 . S
C1528 C1527 1.524 . S
C1529 C1526 1.403 . S
C1529 C1530 1.392 . S
C1529 C1533 1.495 . S
C1530 C1529 1.392 . S
C1530 C1531 1.385 . S
C1530 C1532 1.478 . S
C1531 H1525 0.930 . S
C1531 C1527 1.400 . S
C1531 C1530 1.385 . S
C1532 C1530 1.478 . S
C1532 C1534 1.381 . S
C1532 C1538 1.383 . S
C1533 C1529 1.495 . S
C1533 H1539 0.959 . S
C1533 H1540 0.961 . S
C1533 H1541 0.960 . S
C1534 C1532 1.381 . S
C1534 C1535 1.394 . S
C1534 H1542 0.930 . S
C1535 C1534 1.394 . S
C1535 C1536 1.383 . S
C1535 H1543 0.929 . S
C1536 C1535 1.383 . S
C1536 C1537 1.377 . S
C1537 H1521 0.930 . S
C1537 C1536 1.377 . S
C1537 C1538 1.379 . S
C1538 H1522 0.931 . S
C1538 C1532 1.383 . S
C1538 C1537 1.379 . S
H1539 C1533 0.959 . S
H1540 C1533 0.961 . S
H1541 C1533 0.960 . S
H1542 C1534 0.930 . S
H1543 C1535 0.929 . S
H1544 C1552 0.929 . S
H1545 C1554 0.930 . S
H1546 C1556 0.930 . S
H1547 C1559 0.929 . S
H1548 C1562 0.930 . S
H1549 C1564 0.960 . S
H1550 C1564 0.960 . S
H1551 C1564 0.960 . S
C1552 H1544 0.929 . S
C1552 C1553 1.377 . S
C1552 C1554 1.384 . S
C1553 C1552 1.377 . S
C1553 C1559 1.390 . S
C1554 H1545 0.930 . S
C1554 C1552 1.384 . S
C1554 C1555 1.372 . S
C1555 C1554 1.372 . S
C1555 C1556 1.400 . S
C1555 C1560 1.490 . S
C1556 H1546 0.930 . S
C1556 C1555 1.400 . S
C1556 C1559 1.386 . S
H1557 C1573 0.930 . S
H1558 C1574 0.931 . S
C1559 H1547 0.929 . S
C1559 C1553 1.390 . S
C1559 C1556 1.386 . S
C1560 C1555 1.490 . S
C1560 C1562 1.395 . S
C1560 C1563 1.403 . S
H1561 C1567 0.930 . S
C1562 H1548 0.930 . S
C1562 C1560 1.395 . S
C1562 C1565 1.403 . S
C1563 C1560 1.403 . S
C1563 C1564 1.524 . S
C1563 C1567 1.400 . S
C1564 H1549 0.960 . S
C1564 H1550 0.960 . S
C1564 H1551 0.960 . S
C1564 C1563 1.524 . S
C1565 C1562 1.403 . S
C1565 C1566 1.392 . S
C1565 C1569 1.495 . S
C1566 C1565 1.392 . S
C1566 C1567 1.385 . S
C1566 C1568 1.478 . S
C1567 H1561 0.930 . S
C1567 C1563 1.400 . S
C1567 C1566 1.385 . S
C1568 C1566 1.478 . S
C1568 C1570 1.381 . S
C1568 C1574 1.383 . S
C1569 C1565 1.495 . S
C1569 H1575 0.959 . S
C1569 H1576 0.961 . S
C1569 H1577 0.960 . S
C1570 C1568 1.381 . S
C1570 C1571 1.394 . S
C1570 H1578 0.930 . S
C1571 C1570 1.394 . S
C1571 C1572 1.383 . S
C1571 H1579 0.929 . S
C1572 C1571 1.383 . S
C1572 C1573 1.377 . S
C1573 H1557 0.930 . S
C1573 C1572 1.377 . S
C1573 C1574 1.379 . S
C1574 H1558 0.931 . S
C1574 C1568 1.383 . S
C1574 C1573 1.379 . S
H1575 C1569 0.959 . S
H1576 C1569 0.961 . S
H1577 C1569 0.960 . S
H1578 C1570 0.930 . S
H1579 C1571 0.929 . S
H1580 C1588 0.929 . S
H1581 C1590 0.930 . S
H1582 C1592 0.930 . S
H1583 C1595 0.929 . S
H1584 C1598 0.930 . S
H1585 C1600 0.960 . S
H1586 C1600 0.960 . S
H1587 C1600 0.960 . S
C1588 H1580 0.929 . S
C1588 C1589 1.377 . S
C1588 C1590 1.384 . S
C1589 C1588 1.377 . S
C1589 C1595 1.390 . S
C1590 H1581 0.930 . S
C1590 C1588 1.384 . S
C1590 C1591 1.372 . S
C1591 C1590 1.372 . S
C1591 C1592 1.400 . S
C1591 C1596 1.490 . S
C1592 H1582 0.930 . S
C1592 C1591 1.400 . S
C1592 C1595 1.386 . S
H1593 C1609 0.930 . S
H1594 C1610 0.931 . S
C1595 H1583 0.929 . S
C1595 C1589 1.390 . S
C1595 C1592 1.386 . S
C1596 C1591 1.490 . S
C1596 C1598 1.395 . S
C1596 C1599 1.403 . S
H1597 C1603 0.930 . S
C1598 H1584 0.930 . S
C1598 C1596 1.395 . S
C1598 C1601 1.403 . S
C1599 C1596 1.403 . S
C1599 C1600 1.524 . S
C1599 C1603 1.400 . S
C1600 H1585 0.960 . S
C1600 H1586 0.960 . S
C1600 H1587 0.960 . S
C1600 C1599 1.524 . S
C1601 C1598 1.403 . S
C1601 C1602 1.392 . S
C1601 C1605 1.495 . S
C1602 C1601 1.392 . S
C1602 C1603 1.385 . S
C1602 C1604 1.478 . S
C1603 H1597 0.930 . S
C1603 C1599 1.400 . S
C1603 C1602 1.385 . S
C1604 C1602 1.478 . S
C1604 C1606 1.381 . S
C1604 C1610 1.383 . S
C1605 C1601 1.495 . S
C1605 H1611 0.959 . S
C1605 H1612 0.961 . S
C1605 H1613 0.960 . S
C1606 C1604 1.381 . S
C1606 C1607 1.394 . S
C1606 H1614 0.930 . S
C1607 C1606 1.394 . S
C1607 C1608 1.383 . S
C1607 H1615 0.929 . S
C1608 C1607 1.383 . S
C1608 C1609 1.377 . S
C1609 H1593 0.930 . S
C1609 C1608 1.377 . S
C1609 C1610 1.379 . S
C1610 H1594 0.931 . S
C1610 C1604 1.383 . S
C1610 C1609 1.379 . S
H1611 C1605 0.959 . S
H1612 C1605 0.961 . S
H1613 C1605 0.960 . S
H1614 C1606 0.930 . S
H1615 C1607 0.929 . S
H1616 C1624 0.929 . S
H1617 C1626 0.930 . S
H1618 C1628 0.930 . S
H1619 C1631 0.929 . S
H1620 C1634 0.930 . S
H1621 C1636 0.960 . S
H1622 C1636 0.960 . S
H1623 C1636 0.960 . S
C1624 H1616 0.929 . S
C1624 C1625 1.377 . S
C1624 C1626 1.384 . S
C1625 C1624 1.377 . S
C1625 C1631 1.390 . S
C1626 H1617 0.930 . S
C1626 C1624 1.384 . S
C1626 C1627 1.372 . S
C1627 C1626 1.372 . S
C1627 C1628 1.400 . S
C1627 C1632 1.490 . S
C1628 H1618 0.930 . S
C1628 C1627 1.400 . S
C1628 C1631 1.386 . S
H1629 C1645 0.930 . S
H1630 C1646 0.931 . S
C1631 H1619 0.929 . S
C1631 C1625 1.390 . S
C1631 C1628 1.386 . S
C1632 C1627 1.490 . S
C1632 C1634 1.395 . S
C1632 C1635 1.403 . S
H1633 C1639 0.930 . S
C1634 H1620 0.930 . S
C1634 C1632 1.395 . S
C1634 C1637 1.403 . S
C1635 C1632 1.403 . S
C1635 C1636 1.524 . S
C1635 C1639 1.400 . S
C1636 H1621 0.960 . S
C1636 H1622 0.960 . S
C1636 H1623 0.960 . S
C1636 C1635 1.524 . S
C1637 C1634 1.403 . S
C1637 C1638 1.392 . S
C1637 C1641 1.495 . S
C1638 C1637 1.392 . S
C1638 C1639 1.385 . S
C1638 C1640 1.478 . S
C1639 H1633 0.930 . S
C1639 C1635 1.400 . S
C1639 C1638 1.385 . S
C1640 C1638 1.478 . S
C1640 C1642 1.381 . S
C1640 C1646 1.383 . S
C1641 C1637 1.495 . S
C1641 H1647 0.959 . S
C1641 H1648 0.961 . S
C1641 H1649 0.960 . S
C1642 C1640 1.381 . S
C1642 C1643 1.394 . S
C1642 H1650 0.930 . S
C1643 C1642 1.394 . S
C1643 C1644 1.383 . S
C1643 H1651 0.929 . S
C1644 C1643 1.383 . S
C1644 C1645 1.377 . S
C1645 H1629 0.930 . S
C1645 C1644 1.377 . S
C1645 C1646 1.379 . S
C1646 H1630 0.931 . S
C1646 C1640 1.383 . S
C1646 C1645 1.379 . S
H1647 C1641 0.959 . S
H1648 C1641 0.961 . S
H1649 C1641 0.960 . S
H1650 C1642 0.930 . S
H1651 C1643 0.929 . S
H1652 C1660 0.929 . S
H1653 C1662 0.930 . S
H1654 C1664 0.930 . S
H1655 C1667 0.929 . S
H1656 C1670 0.930 . S
H1657 C1672 0.960 . S
H1658 C1672 0.960 . S
H1659 C1672 0.960 . S
C1660 H1652 0.929 . S
C1660 C1661 1.377 . S
C1660 C1662 1.384 . S
C1661 C1660 1.377 . S
C1661 C1667 1.390 . S
C1662 H1653 0.930 . S
C1662 C1660 1.384 . S
C1662 C1663 1.372 . S
C1663 C1662 1.372 . S
C1663 C1664 1.400 . S
C1663 C1668 1.490 . S
C1664 H1654 0.930 . S
C1664 C1663 1.400 . S
C1664 C1667 1.386 . S
H1665 C1681 0.930 . S
H1666 C1682 0.931 . S
C1667 H1655 0.929 . S
C1667 C1661 1.390 . S
C1667 C1664 1.386 . S
C1668 C1663 1.490 . S
C1668 C1670 1.395 . S
C1668 C1671 1.403 . S
H1669 C1675 0.930 . S
C1670 H1656 0.930 . S
C1670 C1668 1.395 . S
C1670 C1673 1.403 . S
C1671 C1668 1.403 . S
C1671 C1672 1.524 . S
C1671 C1675 1.400 . S
C1672 H1657 0.960 . S
C1672 H1658 0.960 . S
C1672 H1659 0.960 . S
C1672 C1671 1.524 . S
C1673 C1670 1.403 . S
C1673 C1674 1.392 . S
C1673 C1677 1.495 . S
C1674 C1673 1.392 . S
C1674 C1675 1.385 . S
C1674 C1676 1.478 . S
C1675 H1669 0.930 . S
C1675 C1671 1.400 . S
C1675 C1674 1.385 . S
C1676 C1674 1.478 . S
C1676 C1678 1.381 . S
C1676 C1682 1.383 . S
C1677 C1673 1.495 . S
C1677 H1683 0.959 . S
C1677 H1684 0.961 . S
C1677 H1685 0.960 . S
C1678 C1676 1.381 . S
C1678 C1679 1.394 . S
C1678 H1686 0.930 . S
C1679 C1678 1.394 . S
C1679 C1680 1.383 . S
C1679 H1687 0.929 . S
C1680 C1679 1.383 . S
C1680 C1681 1.377 . S
C1681 H1665 0.930 . S
C1681 C1680 1.377 . S
C1681 C1682 1.379 . S
C1682 H1666 0.931 . S
C1682 C1676 1.383 . S
C1682 C1681 1.379 . S
H1683 C1677 0.959 . S
H1684 C1677 0.961 . S
H1685 C1677 0.960 . S
H1686 C1678 0.930 . S
H1687 C1679 0.929 . S
H1688 C1696 0.929 . S
H1689 C1698 0.930 . S
H1690 C1700 0.930 . S
H1691 C1703 0.929 . S
H1692 C1706 0.930 . S
H1693 C1708 0.960 . S
H1694 C1708 0.960 . S
H1695 C1708 0.960 . S
C1696 H1688 0.929 . S
C1696 C1697 1.377 . S
C1696 C1698 1.384 . S
C1697 C1696 1.377 . S
C1697 C1703 1.390 . S
C1698 H1689 0.930 . S
C1698 C1696 1.384 . S
C1698 C1699 1.372 . S
C1699 C1698 1.372 . S
C1699 C1700 1.400 . S
C1699 C1704 1.490 . S
C1700 H1690 0.930 . S
C1700 C1699 1.400 . S
C1700 C1703 1.386 . S
H1701 C1717 0.930 . S
H1702 C1718 0.931 . S
C1703 H1691 0.929 . S
C1703 C1697 1.390 . S
C1703 C1700 1.386 . S
C1704 C1699 1.490 . S
C1704 C1706 1.395 . S
C1704 C1707 1.403 . S
H1705 C1711 0.930 . S
C1706 H1692 0.930 . S
C1706 C1704 1.395 . S
C1706 C1709 1.403 . S
C1707 C1704 1.403 . S
C1707 C1708 1.524 . S
C1707 C1711 1.400 . S
C1708 H1693 0.960 . S
C1708 H1694 0.960 . S
C1708 H1695 0.960 . S
C1708 C1707 1.524 . S
C1709 C1706 1.403 . S
C1709 C1710 1.392 . S
C1709 C1713 1.495 . S
C1710 C1709 1.392 . S
C1710 C1711 1.385 . S
C1710 C1712 1.478 . S
C1711 H1705 0.930 . S
C1711 C1707 1.400 . S
C1711 C1710 1.385 . S
C1712 C1710 1.478 . S
C1712 C1714 1.381 . S
C1712 C1718 1.383 . S
C1713 C1709 1.495 . S
C1713 H1719 0.959 . S
C1713 H1720 0.961 . S
C1713 H1721 0.960 . S
C1714 C1712 1.381 . S
C1714 C1715 1.394 . S
C1714 H1722 0.930 . S
C1715 C1714 1.394 . S
C1715 C1716 1.383 . S
C1715 H1723 0.929 . S
C1716 C1715 1.383 . S
C1716 C1717 1.377 . S
C1717 H1701 0.930 . S
C1717 C1716 1.377 . S
C1717 C1718 1.379 . S
C1718 H1702 0.931 . S
C1718 C1712 1.383 . S
C1718 C1717 1.379 . S
H1719 C1713 0.959 . S
H1720 C1713 0.961 . S
H1721 C1713 0.960 . S
H1722 C1714 0.930 . S
H1723 C1715 0.929 . S
H1724 C1732 0.929 . S
H1725 C1734 0.930 . S
H1726 C1736 0.930 . S
H1727 C1739 0.929 . S
H1728 C1742 0.930 . S
H1729 C1744 0.960 . S
H1730 C1744 0.960 . S
H1731 C1744 0.960 . S
C1732 H1724 0.929 . S
C1732 C1733 1.377 . S
C1732 C1734 1.384 . S
C1733 C1732 1.377 . S
C1733 C1739 1.390 . S
C1734 H1725 0.930 . S
C1734 C1732 1.384 . S
C1734 C1735 1.372 . S
C1735 C1734 1.372 . S
C1735 C1736 1.400 . S
C1735 C1740 1.490 . S
C1736 H1726 0.930 . S
C1736 C1735 1.400 . S
C1736 C1739 1.386 . S
H1737 C1753 0.930 . S
H1738 C1754 0.931 . S
C1739 H1727 0.929 . S
C1739 C1733 1.390 . S
C1739 C1736 1.386 . S
C1740 C1735 1.490 . S
C1740 C1742 1.395 . S
C1740 C1743 1.403 . S
H1741 C1747 0.930 . S
C1742 H1728 0.930 . S
C1742 C1740 1.395 . S
C1742 C1745 1.403 . S
C1743 C1740 1.403 . S
C1743 C1744 1.524 . S
C1743 C1747 1.400 . S
C1744 H1729 0.960 . S
C1744 H1730 0.960 . S
C1744 H1731 0.960 . S
C1744 C1743 1.524 . S
C1745 C1742 1.403 . S
C1745 C1746 1.392 . S
C1745 C1749 1.495 . S
C1746 C1745 1.392 . S
C1746 C1747 1.385 . S
C1746 C1748 1.478 . S
C1747 H1741 0.930 . S
C1747 C1743 1.400 . S
C1747 C1746 1.385 . S
C1748 C1746 1.478 . S
C1748 C1750 1.381 . S
C1748 C1754 1.383 . S
C1749 C1745 1.495 . S
C1749 H1755 0.959 . S
C1749 H1756 0.961 . S
C1749 H1757 0.960 . S
C1750 C1748 1.381 . S
C1750 C1751 1.394 . S
C1750 H1758 0.930 . S
C1751 C1750 1.394 . S
C1751 C1752 1.383 . S
C1751 H1759 0.929 . S
C1752 C1751 1.383 . S
C1752 C1753 1.377 . S
C1753 H1737 0.930 . S
C1753 C1752 1.377 . S
C1753 C1754 1.379 . S
C1754 H1738 0.931 . S
C1754 C1748 1.383 . S
C1754 C1753 1.379 . S
H1755 C1749 0.959 . S
H1756 C1749 0.961 . S
H1757 C1749 0.960 . S
H1758 C1750 0.930 . S
H1759 C1751 0.929 . S
H1760 C1768 0.929 . S
H1761 C1770 0.930 . S
H1762 C1772 0.930 . S
H1763 C1775 0.929 . S
H1764 C1778 0.930 . S
H1765 C1780 0.960 . S
H1766 C1780 0.960 . S
H1767 C1780 0.960 . S
C1768 H1760 0.929 . S
C1768 C1769 1.377 . S
C1768 C1770 1.384 . S
C1769 C1768 1.377 . S
C1769 C1775 1.390 . S
C1770 H1761 0.930 . S
C1770 C1768 1.384 . S
C1770 C1771 1.372 . S
C1771 C1770 1.372 . S
C1771 C1772 1.400 . S
C1771 C1776 1.490 . S
C1772 H1762 0.930 . S
C1772 C1771 1.400 . S
C1772 C1775 1.386 . S
H1773 C1789 0.930 . S
H1774 C1790 0.931 . S
C1775 H1763 0.929 . S
C1775 C1769 1.390 . S
C1775 C1772 1.386 . S
C1776 C1771 1.490 . S
C1776 C1778 1.395 . S
C1776 C1779 1.403 . S
H1777 C1783 0.930 . S
C1778 H1764 0.930 . S
C1778 C1776 1.395 . S
C1778 C1781 1.403 . S
C1779 C1776 1.403 . S
C1779 C1780 1.524 . S
C1779 C1783 1.400 . S
C1780 H1765 0.960 . S
C1780 H1766 0.960 . S
C1780 H1767 0.960 . S
C1780 C1779 1.524 . S
C1781 C1778 1.403 . S
C1781 C1782 1.392 . S
C1781 C1785 1.495 . S
C1782 C1781 1.392 . S
C1782 C1783 1.385 . S
C1782 C1784 1.478 . S
C1783 H1777 0.930 . S
C1783 C1779 1.400 . S
C1783 C1782 1.385 . S
C1784 C1782 1.478 . S
C1784 C1786 1.381 . S
C1784 C1790 1.383 . S
C1785 C1781 1.495 . S
C1785 H1791 0.959 . S
C1785 H1792 0.961 . S
C1785 H1793 0.960 . S
C1786 C1784 1.381 . S
C1786 C1787 1.394 . S
C1786 H1794 0.930 . S
C1787 C1786 1.394 . S
C1787 C1788 1.383 . S
C1787 H1795 0.929 . S
C1788 C1787 1.383 . S
C1788 C1789 1.377 . S
C1789 H1773 0.930 . S
C1789 C1788 1.377 . S
C1789 C1790 1.379 . S
C1790 H1774 0.931 . S
C1790 C1784 1.383 . S
C1790 C1789 1.379 . S
H1791 C1785 0.959 . S
H1792 C1785 0.961 . S
H1793 C1785 0.960 . S
H1794 C1786 0.930 . S
H1795 C1787 0.929 . S
H1796 C1804 0.929 . S
H1797 C1806 0.930 . S
H1798 C1808 0.930 . S
H1799 C1811 0.929 . S
H1800 C1814 0.930 . S
H1801 C1816 0.960 . S
H1802 C1816 0.960 . S
H1803 C1816 0.960 . S
C1804 H1796 0.929 . S
C1804 C1805 1.377 . S
C1804 C1806 1.384 . S
C1805 C1804 1.377 . S
C1805 C1811 1.390 . S
C1806 H1797 0.930 . S
C1806 C1804 1.384 . S
C1806 C1807 1.372 . S
C1807 C1806 1.372 . S
C1807 C1808 1.400 . S
C1807 C1812 1.490 . S
C1808 H1798 0.930 . S
C1808 C1807 1.400 . S
C1808 C1811 1.386 . S
H1809 C1825 0.930 . S
H1810 C1826 0.931 . S
C1811 H1799 0.929 . S
C1811 C1805 1.390 . S
C1811 C1808 1.386 . S
C1812 C1807 1.490 . S
C1812 C1814 1.395 . S
C1812 C1815 1.403 . S
H1813 C1819 0.930 . S
C1814 H1800 0.930 . S
C1814 C1812 1.395 . S
C1814 C1817 1.403 . S
C1815 C1812 1.403 . S
C1815 C1816 1.524 . S
C1815 C1819 1.400 . S
C1816 H1801 0.960 . S
C1816 H1802 0.960 . S
C1816 H1803 0.960 . S
C1816 C1815 1.524 . S
C1817 C1814 1.403 . S
C1817 C1818 1.392 . S
C1817 C1821 1.495 . S
C1818 C1817 1.392 . S
C1818 C1819 1.385 . S
C1818 C1820 1.478 . S
C1819 H1813 0.930 . S
C1819 C1815 1.400 . S
C1819 C1818 1.385 . S
C1820 C1818 1.478 . S
C1820 C1822 1.381 . S
C1820 C1826 1.383 . S
C1821 C1817 1.495 . S
C1821 H1827 0.959 . S
C1821 H1828 0.961 . S
C1821 H1829 0.960 . S
C1822 C1820 1.381 . S
C1822 C1823 1.394 . S
C1822 H1830 0.930 . S
C1823 C1822 1.394 . S
C1823 C1824 1.383 . S
C1823 H1831 0.929 . S
C1824 C1823 1.383 . S
C1824 C1825 1.377 . S
C1825 H1809 0.930 . S
C1825 C1824 1.377 . S
C1825 C1826 1.379 . S
C1826 H1810 0.931 . S
C1826 C1820 1.383 . S
C1826 C1825 1.379 . S
H1827 C1821 0.959 . S
H1828 C1821 0.961 . S
H1829 C1821 0.960 . S
H1830 C1822 0.930 . S
H1831 C1823 0.929 . S
H1832 C1840 0.929 . S
H1833 C1842 0.930 . S
H1834 C1844 0.930 . S
H1835 C1847 0.929 . S
H1836 C1850 0.930 . S
H1837 C1852 0.960 . S
H1838 C1852 0.960 . S
H1839 C1852 0.960 . S
C1840 H1832 0.929 . S
C1840 C1841 1.377 . S
C1840 C1842 1.384 . S
C1841 C1840 1.377 . S
C1841 C1847 1.390 . S
C1842 H1833 0.930 . S
C1842 C1840 1.384 . S
C1842 C1843 1.372 . S
C1843 C1842 1.372 . S
C1843 C1844 1.400 . S
C1843 C1848 1.490 . S
C1844 H1834 0.930 . S
C1844 C1843 1.400 . S
C1844 C1847 1.386 . S
H1845 C1861 0.930 . S
H1846 C1862 0.931 . S
C1847 H1835 0.929 . S
C1847 C1841 1.390 . S
C1847 C1844 1.386 . S
C1848 C1843 1.490 . S
C1848 C1850 1.395 . S
C1848 C1851 1.403 . S
H1849 C1855 0.930 . S
C1850 H1836 0.930 . S
C1850 C1848 1.395 . S
C1850 C1853 1.403 . S
C1851 C1848 1.403 . S
C1851 C1852 1.524 . S
C1851 C1855 1.400 . S
C1852 H1837 0.960 . S
C1852 H1838 0.960 . S
C1852 H1839 0.960 . S
C1852 C1851 1.524 . S
C1853 C1850 1.403 . S
C1853 C1854 1.392 . S
C1853 C1857 1.495 . S
C1854 C1853 1.392 . S
C1854 C1855 1.385 . S
C1854 C1856 1.478 . S
C1855 H1849 0.930 . S
C1855 C1851 1.400 . S
C1855 C1854 1.385 . S
C1856 C1854 1.478 . S
C1856 C1858 1.381 . S
C1856 C1862 1.383 . S
C1857 C1853 1.495 . S
C1857 H1863 0.959 . S
C1857 H1864 0.961 . S
C1857 H1865 0.960 . S
C1858 C1856 1.381 . S
C1858 C1859 1.394 . S
C1858 H1866 0.930 . S
C1859 C1858 1.394 . S
C1859 C1860 1.383 . S
C1859 H1867 0.929 . S
C1860 C1859 1.383 . S
C1860 C1861 1.377 . S
C1861 H1845 0.930 . S
C1861 C1860 1.377 . S
C1861 C1862 1.379 . S
C1862 H1846 0.931 . S
C1862 C1856 1.383 . S
C1862 C1861 1.379 . S
H1863 C1857 0.959 . S
H1864 C1857 0.961 . S
H1865 C1857 0.960 . S
H1866 C1858 0.930 . S
H1867 C1859 0.929 . S
C1032 C331 0.878 . S
C1013 C15 1.602 . S
C1068 C463 1.231 . S
C1049 C55 1.504 . S
C1104 C349 1.318 . S
C1085 C101 1.531 . S
C1140 C445 0.864 . S
C1121 C141 1.567 . S
C1176 C577 1.278 . S
C1157 C2 1.500 . S
C1212 C691 1.310 . S
C1193 C61 1.545 . S
C1229 C95 1.621 . S
C1248 C831 1.233 . S
C1284 C945 1.116 . S
C1265 C135 1.539 . S
C1320 C559 0.812 . S
C1301 C42 1.440 . S
C1337 C82 1.625 . S
C1356 C673 1.045 . S
C1392 C777 1.154 . S
C1373 C122 1.565 . S
C1428 C891 1.131 . S
C1409 C21 1.385 . S
C1445 C162 1.519 . S
C1464 C489 1.113 . S
C1500 C321 1.026 . S
C1481 C221 1.415 . S
C1517 C255 1.367 . S
C1536 C435 1.116 . S
C1553 C282 1.542 . S
C1572 C375 1.101 . S
C1608 C787 1.056 . S
C1589 C181 1.603 . S
C1644 C901 0.993 . S
C1625 C202 1.553 . S
C1680 C549 0.962 . S
C1661 C242 1.292 . S
C1697 C301 1.520 . S
C1716 C663 1.157 . S
C1752 C805 1.155 . S
C1733 C215 1.465 . S
C1788 C919 1.116 . S
C1769 C261 1.470 . S
C1824 C603 1.109 . S
C1805 C295 1.564 . S
C1841 C175 1.651 . S
C1860 C717 1.133 . S
