# Generated by pormake.
# Topology anh, (6,3)-cn, num edge types: 1
# Building blocks:
#     Node 0, Type 0, BuildingBlock: BETFAJ_clean_sbu_0, # of connection points: 6
#     Node 1, Type 0, BuildingBlock: BETFAJ_clean_sbu_0, # of connection points: 6
#     Node 2, Type 0, BuildingBlock: BETFAJ_clean_sbu_0, # of connection points: 6
#     Node 3, Type 1, BuildingBlock: BETDIP_clean_linker_0, # of connection points: 3
#     Node 4, Type 1, BuildingBlock: BETDIP_clean_linker_0, # of connection points: 3
#     Node 5, Type 1, BuildingBlock: BETDIP_clean_linker_0, # of connection points: 3
#     Node 6, Type 1, BuildingBlock: BETDIP_clean_linker_0, # of connection points: 3
#     Node 7, Type 1, BuildingBlock: BETDIP_clean_linker_0, # of connection points: 3
#     Node 8, Type 1, BuildingBlock: BETDIP_clean_linker_0, # of connection points: 3
#     Edge 9, Type (0, 1), BuildingBlock: KIFKEQ_clean_linker_1, # of connection points: 2
#     Edge 10, Type (0, 1), BuildingBlock: KIFKEQ_clean_linker_1, # of connection points: 2
#     Edge 11, Type (0, 1), BuildingBlock: KIFKEQ_clean_linker_1, # of connection points: 2
#     Edge 12, Type (0, 1), BuildingBlock: KIFKEQ_clean_linker_1, # of connection points: 2
#     Edge 13, Type (0, 1), BuildingBlock: KIFKEQ_clean_linker_1, # of connection points: 2
#     Edge 14, Type (0, 1), BuildingBlock: KIFKEQ_clean_linker_1, # of connection points: 2
#     Edge 15, Type (0, 1), BuildingBlock: KIFKEQ_clean_linker_1, # of connection points: 2
#     Edge 16, Type (0, 1), BuildingBlock: KIFKEQ_clean_linker_1, # of connection points: 2
#     Edge 17, Type (0, 1), BuildingBlock: KIFKEQ_clean_linker_1, # of connection points: 2
#     Edge 18, Type (0, 1), BuildingBlock: KIFKEQ_clean_linker_1, # of connection points: 2
#     Edge 19, Type (0, 1), BuildingBlock: KIFKEQ_clean_linker_1, # of connection points: 2
#     Edge 20, Type (0, 1), BuildingBlock: KIFKEQ_clean_linker_1, # of connection points: 2
#     Edge 21, Type (0, 1), BuildingBlock: KIFKEQ_clean_linker_1, # of connection points: 2
#     Edge 22, Type (0, 1), BuildingBlock: KIFKEQ_clean_linker_1, # of connection points: 2
#     Edge 23, Type (0, 1), BuildingBlock: KIFKEQ_clean_linker_1, # of connection points: 2
#     Edge 24, Type (0, 1), BuildingBlock: KIFKEQ_clean_linker_1, # of connection points: 2
#     Edge 25, Type (0, 1), BuildingBlock: KIFKEQ_clean_linker_1, # of connection points: 2
#     Edge 26, Type (0, 1), BuildingBlock: KIFKEQ_clean_linker_1, # of connection points: 2
# Relax obj value: 0.157
# Max RMSD: 0.179
# Mean RMSD: 0.126
data_MOF--net-anh--node1-BETFAJ_clean_sbu_0--node2-BETDIP_clean_linker_0--edge1-KIFKEQ_clean_linker_1
_symmetry_space_group_name_H-M    P1
_symmetry_Int_Tables_number       1
_symmetry_cell_setting            triclinic
loop_
_symmetry_equiv_pos_as_xyz
'x, y, z'
_cell_length_a     31.601632
_cell_length_b     39.108821
_cell_length_c     50.201797
_cell_angle_alpha  95.433942
_cell_angle_beta   87.733165
_cell_angle_gamma 130.48119
loop_
_atom_site_label
_atom_site_type_symbol
_atom_site_fract_x
_atom_site_fract_y
_atom_site_fract_z
_atom_type_partial_charge
Sm0 Sm 0.17943 0.55886 0.14944 0.0
Sm1 Sm 0.1138 0.58679 0.15571 0.0
C2 C 0.25167 0.55249 0.13051 0.0
C3 C 0.30853 0.58136 0.14197 0.0
C4 C 0.35011 0.62486 0.13368 0.0
C5 C 0.4025 0.654 0.14639 0.0
C6 C 0.41493 0.63975 0.16715 0.0
C7 C 0.37135 0.59772 0.17688 0.0
C8 C 0.31926 0.5688 0.16425 0.0
C9 C 0.16441 0.56256 0.20402 0.0
C10 C 0.24768 0.66652 0.15779 0.0
C11 C 1.0595 0.61265 0.17364 0.0
C12 C 1.00316 0.58134 0.18391 0.0
C13 C 0.99525 0.57327 0.21113 0.0
C14 C 0.94214 0.53961 0.22024 0.0
C15 C 0.89632 0.51354 0.20228 0.0
C16 C 0.90483 0.52027 0.17488 0.0
C17 C 0.95748 0.55399 0.16585 0.0
C18 C 0.11207 0.5582 0.10358 0.0
C19 C 1.04819 0.47968 0.15425 0.0
O20 O 0.23985 0.5738 0.11857 0.0
O21 O 0.21184 0.52262 0.14578 0.0
O22 O 0.14603 0.57135 0.18651 0.0
O23 O 0.19111 0.55049 0.19293 0.0
O24 O 0.25009 0.63487 0.16116 0.0
O25 O 0.20009 0.65621 0.15226 0.0
O26 O 0.09844 0.61973 0.18813 0.0
O27 O 1.06394 0.60634 0.14795 0.0
O28 O 0.15505 0.58341 0.11898 0.0
O29 O 1.06835 0.54678 0.11606 0.0
O30 O 1.04898 0.5123 0.16496 0.0
O31 O 0.09219 0.48941 0.1421 0.0
H32 H 0.34242 0.63634 0.11719 0.0
H33 H 0.43447 0.68633 0.13866 0.0
H34 H 0.37805 0.58493 0.19292 0.0
H35 H 0.28759 0.53627 0.17184 0.0
H36 H 1.03003 0.59304 0.2254 0.0
H37 H 0.9364 0.53539 0.24146 0.0
H38 H 0.87023 0.50161 0.16052 0.0
H39 H 0.96216 0.5586 0.14467 0.0
Sm40 Sm 0.61411 0.0213 0.48119 0.0
Sm41 Sm 0.54053 0.05475 0.47706 0.0
C42 C 0.64956 0.9828 0.4992 0.0
C43 C 0.63164 0.93734 0.49359 0.0
C44 C 0.60687 0.90806 0.51397 0.0
C45 C 0.58696 0.86414 0.50907 0.0
C46 C 0.59195 0.84868 0.48373 0.0
C47 C 0.6162 0.87767 0.46315 0.0
C48 C 0.63548 0.92162 0.46797 0.0
C49 C 0.58778 0.01932 0.42888 0.0
C50 C 0.47499 0.9459 0.47438 0.0
C51 C 0.5043 0.09269 0.4588 0.0
C52 C 0.51984 0.13707 0.46535 0.0
C53 C 0.52574 0.16151 0.44471 0.0
C54 C 0.54238 0.20442 0.45055 0.0
C55 C 0.55344 0.22359 0.47717 0.0
C56 C 0.54902 0.19944 0.49774 0.0
C57 C 0.53254 0.15664 0.49188 0.0
C58 C 0.56573 0.05496 0.52948 0.0
C59 C 0.68016 0.13002 0.48331 0.0
O60 O 0.61312 0.98381 0.51169 0.0
O61 O 0.67488 0.01037 0.48018 0.0
O62 O 0.57469 0.02994 0.45004 0.0
O63 O 0.61626 0.00778 0.43518 0.0
O64 O 0.52264 0.95547 0.47966 0.0
O65 O 0.47087 0.97696 0.47085 0.0
O66 O 0.54284 0.09378 0.44701 0.0
O67 O 0.47843 0.06408 0.47727 0.0
O68 O 0.58101 0.04713 0.508 0.0
O69 O 0.53471 0.06429 0.52337 0.0
O70 O 0.63234 0.12097 0.47933 0.0
O71 O 0.68434 0.09877 0.48593 0.0
H72 H 0.60292 0.91922 0.53379 0.0
H73 H 0.56931 0.84271 0.52542 0.0
H74 H 0.62047 0.8664 0.44347 0.0
H75 H 0.65343 0.94316 0.45169 0.0
H76 H 0.51733 0.14732 0.42406 0.0
H77 H 0.54516 0.22204 0.43427 0.0
H78 H 0.55834 0.21366 0.5184 0.0
H79 H 0.52988 0.13894 0.50809 0.0
Sm80 Sm 0.66096 0.57171 0.82573 0.0
Sm81 Sm 0.58173 0.47185 0.82186 0.0
C82 C 0.71048 0.65711 0.82115 0.0
C83 C 0.68987 0.6817 0.82015 0.0
C84 C 0.64265 0.66378 0.80441 0.0
C85 C 0.6241 0.68772 0.80329 0.0
C86 C 0.65251 0.7302 0.81776 0.0
C87 C 0.69832 0.74714 0.83441 0.0
C88 C 0.71679 0.72305 0.83558 0.0
C89 C 0.63163 0.53536 0.87363 0.0
C90 C 0.52254 0.51617 0.82555 0.0
C91 C 0.53167 0.38711 0.82907 0.0
C92 C 0.54543 0.35732 0.82479 0.0
C93 C 0.55833 0.34552 0.8468 0.0
C94 C 0.56942 0.31611 0.84308 0.0
C95 C 0.56765 0.29773 0.81726 0.0
C96 C 0.55626 0.31061 0.79522 0.0
C97 C 0.54509 0.33989 0.79893 0.0
C98 C 0.60297 0.50541 0.77327 0.0
C99 C 0.72071 0.52795 0.82581 0.0
O100 O 0.69762 0.62834 0.80061 0.0
O101 O 0.70588 0.6418 0.84404 0.0
O102 O 0.59895 0.52248 0.85434 0.0
O103 O 0.6827 0.5692 0.8684 0.0
O104 O 0.57369 0.55336 0.82052 0.0
O105 O 0.51456 0.47946 0.83012 0.0
O106 O 0.5599 0.42008 0.84813 0.0
O107 O 0.52305 0.39901 0.80778 0.0
O108 O 0.63987 0.52123 0.79132 0.0
O109 O 0.55494 0.46894 0.7797 0.0
O110 O 0.66854 0.48957 0.82712 0.0
O111 O 0.73007 0.56574 0.82282 0.0
H112 H 0.62031 0.63146 0.79273 0.0
H113 H 0.58789 0.67321 0.79075 0.0
H114 H 0.72124 0.77977 0.84574 0.0
H115 H 0.75272 0.73708 0.8482 0.0
H116 H 0.55902 0.35851 0.86697 0.0
H117 H 0.57769 0.30673 0.86052 0.0
H118 H 0.55573 0.29791 0.77499 0.0
H119 H 0.53578 0.34851 0.78147 0.0
H120 H 0.61344 0.03086 0.15633 0.0
H121 H 0.67231 0.12119 0.22847 0.0
H122 H 0.54219 0.97857 0.23213 0.0
H123 H 0.66414 0.15857 0.18737 0.0
C124 C 0.69732 0.15939 0.17952 0.0
C125 C 0.61113 0.0364 0.1777 0.0
C126 C 0.57263 0.99934 0.19271 0.0
C127 C 0.6468 0.08075 0.19048 0.0
C128 C 0.6438 0.08752 0.21832 0.0
C129 C 0.60626 0.05066 0.23326 0.0
C130 C 0.57086 1.00699 0.22038 0.0
N131 N 0.68756 0.11818 0.1757 0.0
H132 H 0.61186 0.53229 0.49915 0.0
H133 H 0.62355 0.59733 0.57623 0.0
H134 H 0.62024 0.4855 0.57117 0.0
H135 H 0.56159 0.59703 0.55421 0.0
C136 C 0.58039 0.60802 0.53488 0.0
C137 C 0.61668 0.53598 0.52076 0.0
C138 C 0.61803 0.50638 0.53349 0.0
C139 C 0.61726 0.56817 0.53603 0.0
C140 C 0.6223 0.57221 0.56418 0.0
C141 C 0.62287 0.54219 0.57695 0.0
C142 C 0.62099 0.50951 0.56144 0.0
N143 N 0.60857 0.59372 0.52281 0.0
H144 H 1.07383 0.51647 0.82259 0.0
H145 H 0.15662 0.53108 0.8946 0.0
H146 H 1.02724 0.53891 0.90014 0.0
H147 H 0.23264 0.56965 0.86576 0.0
C148 C 0.21333 0.54028 0.85137 0.0
C149 C 1.07898 0.52175 0.84418 0.0
C150 C 1.04509 0.52828 0.85986 0.0
C151 C 0.12104 0.52377 0.85665 0.0
C152 C 0.12611 0.53029 0.88475 0.0
C153 C 0.09261 0.53548 0.90056 0.0
C154 C 1.05319 0.53505 0.88792 0.0
N155 N 0.15742 0.51852 0.84174 0.0
H156 H 0.10712 0.57873 0.48195 0.0
H157 H 1.03821 0.49466 0.40706 0.0
H158 H 0.17469 0.63634 0.40681 0.0
H159 H 0.95898 0.45841 0.43068 0.0
C160 C 0.97293 0.45502 0.44891 0.0
C161 C 0.10632 0.57487 0.46027 0.0
C162 C 0.14573 0.61275 0.44593 0.0
C163 C 1.06578 0.53191 0.44642 0.0
C164 C 1.06673 0.52745 0.41817 0.0
C165 C 0.10534 0.56504 0.40395 0.0
C166 C 0.1443 0.60741 0.41788 0.0
N167 N 1.02557 0.49334 0.46081 0.0
H168 H 0.62695 0.04959 0.80089 0.0
H169 H 0.62023 0.98492 0.7247 0.0
H170 H 0.60712 0.08783 0.72789 0.0
H171 H 0.55781 0.92352 0.75371 0.0
C172 C 0.58905 0.93716 0.76947 0.0
C173 C 0.62481 0.04671 0.7792 0.0
C174 C 0.61838 0.07316 0.766 0.0
C175 C 0.62419 0.01406 0.76447 0.0
C176 C 0.62032 0.00981 0.73626 0.0
C177 C 0.61457 0.03663 0.72301 0.0
C178 C 0.61323 0.06795 0.73802 0.0
N179 N 0.62379 0.98382 0.77831 0.0
H180 H 0.60672 0.53878 0.13864 0.0
H181 H 0.64562 0.52625 0.05836 0.0
H182 H 0.47779 0.46704 0.07604 0.0
H183 H 0.68488 0.50231 0.09017 0.0
C184 C 0.70158 0.5283 0.10676 0.0
C185 C 0.59149 0.5247 0.11827 0.0
C186 C 0.53568 0.50117 0.11044 0.0
C187 C 0.63017 0.53282 0.09968 0.0
C188 C 0.61456 0.51821 0.07284 0.0
C189 C 0.55973 0.49497 0.06451 0.0
C190 C 0.51987 0.485 0.08323 0.0
N191 N 0.68437 0.5538 0.10865 0.0
H192 H 0.50205 0.67896 0.13212 0.0
H193 H 0.46804 0.64827 0.21411 0.0
H194 H 0.52474 0.6308 0.12429 0.0
H195 H 0.48798 0.59749 0.20625 0.0
H196 H 0.53767 0.51037 0.16653 0.0
H197 H 0.53326 0.5661 0.18882 0.0
H198 H 0.43738 0.54755 0.12158 0.0
H199 H 0.44699 0.49679 0.09814 0.0
C200 C 0.5019 0.66372 0.14908 0.0
C201 C 0.47338 0.65983 0.17238 0.0
C202 C 0.51361 0.63506 0.14429 0.0
C203 C 0.50189 0.60682 0.16394 0.0
C204 C 0.49365 0.6167 0.19023 0.0
C205 C 0.4834 0.64659 0.19478 0.0
C206 C 0.51563 0.51821 0.15642 0.0
C207 C 0.50003 0.5043 0.129 0.0
C208 C 0.51283 0.54986 0.16938 0.0
C209 C 0.4901 0.56425 0.15555 0.0
C210 C 0.45964 0.53974 0.13155 0.0
C211 C 0.46442 0.50969 0.11827 0.0
H212 H 0.77369 0.16469 0.45506 0.0
H213 H 0.70087 0.20331 0.51072 0.0
H214 H 0.85178 0.24449 0.44949 0.0
H215 H 0.77987 0.28323 0.50587 0.0
H216 H 0.95627 0.42658 0.49995 0.0
H217 H 0.89069 0.34776 0.51184 0.0
H218 H 0.84894 0.30074 0.4281 0.0
H219 H 0.91232 0.3785 0.41649 0.0
C220 C 0.77534 0.19033 0.46672 0.0
C221 C 0.73151 0.17793 0.48342 0.0
C222 C 0.81983 0.23596 0.46345 0.0
C223 C 0.82211 0.27019 0.47733 0.0
C224 C 0.77964 0.25774 0.49514 0.0
C225 C 0.73437 0.21205 0.49783 0.0
C226 C 0.93357 0.39924 0.48418 0.0
C227 C 0.9394 0.40854 0.45727 0.0
C228 C 0.8959 0.35425 0.49095 0.0
C229 C 0.86491 0.31801 0.47086 0.0
C230 C 0.87258 0.32771 0.44402 0.0
C231 C 0.90876 0.37229 0.43738 0.0
H232 H 0.6486 0.78443 0.85523 0.0
H233 H 0.62353 0.74039 0.77078 0.0
H234 H 0.62902 0.83388 0.84699 0.0
H235 H 0.60377 0.78892 0.76274 0.0
H236 H 0.52394 0.84785 0.75672 0.0
H237 H 0.53297 0.79552 0.77192 0.0
H238 H 0.6731 0.90382 0.82322 0.0
H239 H 0.66317 0.9563 0.80828 0.0
C240 C 0.63877 0.78517 0.83498 0.0
C241 C 0.63726 0.7582 0.81368 0.0
C242 C 0.62759 0.81344 0.83029 0.0
C243 C 0.61446 0.81503 0.80425 0.0
C244 C 0.61251 0.78775 0.78312 0.0
C245 C 0.62375 0.75977 0.78776 0.0
C246 C 0.55628 0.86036 0.77147 0.0
C247 C 0.59325 0.9061 0.78104 0.0
C248 C 0.56157 0.83047 0.78012 0.0
C249 C 0.60427 0.84569 0.79844 0.0
C250 C 0.63971 0.89111 0.80912 0.0
C251 C 0.63429 0.92118 0.80044 0.0
H252 H 0.80057 0.42869 0.18546 0.0
H253 H 0.86344 0.54564 0.23981 0.0
H254 H 0.72346 0.4234 0.17275 0.0
H255 H 0.78599 0.54028 0.22742 0.0
H256 H 0.78886 0.58575 0.14138 0.0
H257 H 0.80853 0.56722 0.18154 0.0
H258 H 0.65166 0.43047 0.16991 0.0
H259 H 0.63357 0.4492 0.12894 0.0
C260 C 0.79529 0.45089 0.19643 0.0
C261 C 0.83961 0.48952 0.21197 0.0
C262 C 0.7511 0.44815 0.18899 0.0
C263 C 0.75102 0.48332 0.19792 0.0
C264 C 0.7865 0.51379 0.21952 0.0
C265 C 0.8307 0.5165 0.22685 0.0
C266 C 0.75858 0.55201 0.14773 0.0
C267 C 0.71112 0.51826 0.13193 0.0
C268 C 0.76899 0.54149 0.17099 0.0
C269 C 0.7313 0.4972 0.17893 0.0
C270 C 0.68136 0.46464 0.16415 0.0
C271 C 0.67151 0.47507 0.14064 0.0
H272 H 0.36927 0.9056 0.49152 0.0
H273 H 0.46751 0.8763 0.4522 0.0
H274 H 0.29014 0.82503 0.49106 0.0
H275 H 0.38834 0.79663 0.44918 0.0
H276 H 0.25304 0.65159 0.45516 0.0
H277 H 0.33143 0.73114 0.46557 0.0
H278 H 0.21805 0.75808 0.47224 0.0
H279 H 0.14005 0.67765 0.46393 0.0
C280 C 0.37345 0.88179 0.48227 0.0
C281 C 0.42457 0.89727 0.47193 0.0
C282 C 0.32786 0.83523 0.48185 0.0
C283 C 0.33162 0.80283 0.47031 0.0
C284 C 0.38293 0.81918 0.45926 0.0
C285 C 0.4287 0.86541 0.46051 0.0
C286 C 0.24513 0.67457 0.45995 0.0
C287 C 0.19055 0.65846 0.45913 0.0
C288 C 0.29033 0.72076 0.46522 0.0
C289 C 0.28252 0.75264 0.4689 0.0
C290 C 0.22708 0.73566 0.46962 0.0
C291 C 0.18179 0.6892 0.4649 0.0
H292 H 0.64105 0.29584 0.84347 0.0
H293 H 0.5107 0.22225 0.78209 0.0
H294 H 0.65176 0.23911 0.83661 0.0
H295 H 0.5237 0.16768 0.77412 0.0
H296 H 0.52131 0.05459 0.77566 0.0
H297 H 0.50793 0.10743 0.7926 0.0
H298 H 0.68604 0.21297 0.80467 0.0
H299 H 0.69858 0.15893 0.78862 0.0
C300 C 0.61465 0.2676 0.82856 0.0
C301 C 0.57517 0.26378 0.81325 0.0
C302 C 0.62118 0.23532 0.82445 0.0
C303 C 0.58838 0.19857 0.80493 0.0
C304 C 0.54895 0.1949 0.78972 0.0
C305 C 0.54219 0.22681 0.79395 0.0
C306 C 0.55727 0.08883 0.78267 0.0
C307 C 0.61085 0.10301 0.78095 0.0
C308 C 0.54984 0.11927 0.79205 0.0
C309 C 0.596 0.1648 0.79944 0.0
C310 C 0.64954 0.1782 0.79923 0.0
C311 C 0.65688 0.14744 0.79003 0.0
H312 H 0.65563 0.82937 0.46281 0.0
H313 H 0.49583 0.76815 0.49731 0.0
H314 H 0.64373 0.76271 0.4692 0.0
H315 H 0.48276 0.7006 0.50295 0.0
H316 H 0.53614 0.64386 0.55582 0.0
H317 H 0.52815 0.69367 0.53594 0.0
H318 H 0.59954 0.68416 0.46328 0.0
H319 H 0.60926 0.63517 0.48382 0.0
C320 C 0.61694 0.80083 0.47075 0.0
C321 C 0.5772 0.80414 0.48016 0.0
C322 C 0.61002 0.76254 0.4744 0.0
C323 C 0.56299 0.72688 0.48731 0.0
C324 C 0.52026 0.72814 0.49371 0.0
C325 C 0.52751 0.76661 0.49036 0.0
C326 C 0.54965 0.65214 0.53551 0.0
C327 C 0.5736 0.63607 0.52144 0.0
C328 C 0.54446 0.68022 0.52394 0.0
C329 C 0.56266 0.69256 0.49785 0.0
C330 C 0.58539 0.67544 0.48344 0.0
C331 C 0.59097 0.64745 0.49518 0.0
H332 H 0.71794 0.45638 0.83167 0.0
H333 H 0.83533 0.5999 0.82597 0.0
H334 H 0.79444 0.45652 0.83714 0.0
H335 H 0.91213 0.6002 0.83062 0.0
H336 H 1.04487 0.59874 0.8639 0.0
H337 H 0.9696 0.59868 0.85518 0.0
H338 H 0.86679 0.45895 0.8237 0.0
H339 H 0.94276 0.45937 0.83319 0.0
C340 C 0.76011 0.48818 0.83136 0.0
C341 C 0.76926 0.52815 0.82832 0.0
C342 C 0.80479 0.48826 0.83436 0.0
C343 C 0.86136 0.52837 0.83448 0.0
C344 C 0.87025 0.56831 0.83121 0.0
C345 C 0.82553 0.56819 0.82825 0.0
C346 C 1.00669 0.56818 0.85449 0.0
C347 C 1.00142 0.52943 0.84874 0.0
C348 C 0.96266 0.56801 0.84943 0.0
C349 C 0.9102 0.52881 0.83854 0.0
C350 C 0.90532 0.49009 0.83231 0.0
C351 C 0.94976 0.4904 0.83731 0.0
H352 H 0.27738 0.73118 0.12603 0.0
H353 H 0.33377 0.71001 0.19432 0.0
H354 H 0.36081 0.81043 0.12948 0.0
H355 H 0.4149 0.79005 0.19973 0.0
H356 H 0.57334 0.93175 0.19977 0.0
H357 H 0.49931 0.85123 0.18828 0.0
H358 H 0.40517 0.87937 0.15042 0.0
H359 H 0.48163 0.95986 0.16037 0.0
C360 C 0.30761 0.74383 0.14202 0.0
C361 C 0.29916 0.71455 0.15992 0.0
C362 C 0.35549 0.78957 0.14425 0.0
C363 C 0.39547 0.80781 0.16508 0.0
C364 C 0.38654 0.77794 0.18297 0.0
C365 C 0.33953 0.73184 0.18011 0.0
C366 C 0.53748 0.92047 0.18814 0.0
C367 C 0.53352 0.95197 0.18056 0.0
C368 C 0.49419 0.87408 0.182 0.0
C369 C 0.4448 0.8577 0.16875 0.0
C370 C 0.44222 0.8898 0.16026 0.0
C371 C 0.4862 0.93628 0.16592 0.0
H372 H 0.51455 0.24591 0.51842 0.0
H373 H 0.62137 0.30019 0.4505 0.0
H374 H 0.5319 0.31603 0.52835 0.0
H375 H 0.6368 0.37018 0.45982 0.0
H376 H 0.69513 0.50435 0.50931 0.0
H377 H 0.68126 0.43631 0.49322 0.0
H378 H 0.50574 0.35435 0.50882 0.0
H379 H 0.52032 0.42212 0.52532 0.0
C380 C 0.54202 0.27292 0.50567 0.0
C381 C 0.56647 0.2674 0.48363 0.0
C382 C 0.55126 0.3129 0.51111 0.0
C383 C 0.58485 0.3483 0.49455 0.0
C384 C 0.61055 0.34339 0.47287 0.0
C385 C 0.60135 0.30324 0.46743 0.0
C386 C 0.65357 0.47171 0.50857 0.0
C387 C 0.60867 0.46792 0.51837 0.0
C388 C 0.64555 0.43288 0.49944 0.0
C389 C 0.59258 0.38996 0.50025 0.0
C390 C 0.54724 0.38685 0.50851 0.0
C391 C 0.5553 0.4255 0.51762 0.0
H392 H 0.41086 0.44863 0.8379 0.0
H393 H 0.52381 0.58555 0.81673 0.0
H394 H 0.33593 0.45157 0.84153 0.0
H395 H 0.44979 0.58837 0.81881 0.0
H396 H 0.32282 0.60336 0.84242 0.0
H397 H 0.39334 0.59697 0.83614 0.0
H398 H 0.26659 0.45157 0.83282 0.0
H399 H 0.19557 0.45918 0.84027 0.0
C400 C 0.41993 0.47946 0.8338 0.0
C401 C 0.47453 0.51689 0.82706 0.0
C402 C 0.37621 0.4812 0.83572 0.0
C403 C 0.38461 0.52043 0.83082 0.0
C404 C 0.43947 0.55745 0.82364 0.0
C405 C 0.48302 0.55581 0.82205 0.0
C406 C 0.30953 0.56978 0.83974 0.0
C407 C 0.25258 0.53198 0.84123 0.0
C408 C 0.3508 0.56583 0.83601 0.0
C409 C 0.33794 0.52353 0.83362 0.0
C410 C 0.28017 0.48518 0.83461 0.0
C411 C 0.23847 0.48931 0.83838 0.0
H412 H 1.0369 0.40366 0.14442 0.0
H413 H 0.94458 0.44691 0.16911 0.0
H414 H 0.9535 0.32524 0.14793 0.0
H415 H 0.86219 0.36932 0.17375 0.0
H416 H 0.70703 0.22631 0.16059 0.0
H417 H 0.79122 0.30149 0.15199 0.0
H418 H 0.89042 0.26834 0.17523 0.0
H419 H 0.80499 0.1916 0.18183 0.0
C420 C 0.99874 0.39643 0.15055 0.0
C421 C 0.99746 0.43168 0.15628 0.0
C422 C 0.95084 0.35133 0.15286 0.0
C423 C 0.90023 0.34018 0.16094 0.0
C424 C 0.89949 0.3758 0.16683 0.0
C425 C 0.94721 0.42072 0.16446 0.0
C426 C 0.74691 0.23497 0.16341 0.0
C427 C 0.74945 0.20313 0.17176 0.0
C428 C 0.7955 0.27843 0.15886 0.0
C429 C 0.84844 0.29202 0.16343 0.0
C430 C 0.85082 0.25947 0.17118 0.0
C431 C 0.80182 0.21536 0.17503 0.0
H432 H 0.18591 0.56202 0.06964 0.0
H433 H 1.0412 0.55149 0.07032 0.0
H434 H 0.18496 0.55867 0.02037 0.0
H435 H 1.0409 0.54907 0.02179 0.0
H436 H 0.08924 0.59121 0.93673 0.0
H437 H 0.09849 0.59918 0.98549 0.0
H438 H 0.12113 0.50125 0.98117 0.0
H439 H 0.11036 0.4922 0.93253 0.0
C440 C 0.15419 0.55922 0.05933 0.0
C441 C 0.11349 0.55678 0.07388 0.0
C442 C 0.1535 0.55718 0.03116 0.0
C443 C 0.11295 0.55383 0.01714 0.0
C444 C 1.07301 0.55211 0.03188 0.0
C445 C 1.07297 0.55313 0.05976 0.0
C446 C 0.09566 0.57102 0.94612 0.0
C447 C 0.09888 0.54097 0.93049 0.0
C448 C 0.10133 0.57581 0.9741 0.0
C449 C 0.11074 0.55094 0.98726 0.0
C450 C 0.11481 0.52144 0.97169 0.0
C451 C 0.10861 0.5163 0.94373 0.0
H452 H 0.56625 0.96312 0.38613 0.0
H453 H 0.59228 0.08476 0.40896 0.0
H454 H 0.56962 0.97506 0.33909 0.0
H455 H 0.59592 0.0971 0.36147 0.0
H456 H 0.55083 0.06893 0.26634 0.0
H457 H 0.54051 0.06255 0.31501 0.0
H458 H 0.65306 0.03541 0.3141 0.0
H459 H 0.66285 0.04161 0.26595 0.0
C460 C 0.5715 0.99196 0.38099 0.0
C461 C 0.57857 0.02283 0.40109 0.0
C462 C 0.57386 0.999 0.3541 0.0
C463 C 0.58418 0.0375 0.34665 0.0
C464 C 0.58782 0.0671 0.36667 0.0
C465 C 0.58518 0.05984 0.3938 0.0
C466 C 0.57424 0.06274 0.27688 0.0
C467 C 0.60786 0.05597 0.26274 0.0
C468 C 0.56825 0.05894 0.30457 0.0
C469 C 0.59518 0.04765 0.3182 0.0
C470 C 0.63097 0.04328 0.30405 0.0
C471 C 0.6371 0.04728 0.27661 0.0
H472 H 0.58768 0.45113 0.73069 0.0
H473 H 0.64138 0.58341 0.75331 0.0
H474 H 0.59422 0.46379 0.68364 0.0
H475 H 0.64589 0.59592 0.70587 0.0
H476 H 0.69324 0.61153 0.61529 0.0
H477 H 0.69236 0.60658 0.66375 0.0
H478 H 0.5424 0.4665 0.65266 0.0
H479 H 0.54487 0.4713 0.60464 0.0
C480 C 0.60148 0.48318 0.72543 0.0
C481 C 0.61481 0.51656 0.74539 0.0
C482 C 0.60452 0.4903 0.69851 0.0
C483 C 0.61962 0.5306 0.6909 0.0
C484 C 0.63452 0.56466 0.71102 0.0
C485 C 0.63221 0.55767 0.73813 0.0
C486 C 0.6601 0.57992 0.62344 0.0
C487 C 0.61985 0.54151 0.60636 0.0
C488 C 0.65942 0.57705 0.65111 0.0
C489 C 0.61812 0.53581 0.66205 0.0
C490 C 0.576 0.49835 0.64489 0.0
C491 C 0.57713 0.50109 0.6174 0.0
H492 H 0.51857 0.05935 0.57415 0.0
H493 H 0.63407 0.04057 0.54751 0.0
H494 H 0.52997 0.05037 0.61964 0.0
H495 H 0.64203 0.0272 0.593 0.0
H496 H 0.69015 0.06024 0.68422 0.0
H497 H 0.67872 0.06155 0.63643 0.0
H498 H 0.50615 0.99826 0.6485 0.0
H499 H 0.51923 0.99972 0.6962 0.0
C500 C 0.54565 0.0523 0.57795 0.0
C501 C 0.57413 0.04927 0.55703 0.0
C502 C 0.55168 0.0465 0.60411 0.0
C503 C 0.58585 0.0368 0.61019 0.0
C504 C 0.61513 0.0344 0.58922 0.0
C505 C 0.60979 0.04113 0.56298 0.0
C506 C 0.64976 0.04617 0.67636 0.0
C507 C 0.60565 0.03026 0.69368 0.0
C508 C 0.643 0.04671 0.64899 0.0
C509 C 0.59176 0.03094 0.63847 0.0
C510 C 0.54677 0.01217 0.65583 0.0
C511 C 0.55387 0.01241 0.68313 0.0
H512 H 0.67011 0.51394 0.91012 0.0
H513 H 0.54861 0.52853 0.89692 0.0
H514 H 0.63675 0.49373 0.95559 0.0
H515 H 0.516 0.50943 0.94248 0.0
H516 H 0.5562 0.54792 0.03621 0.0
H517 H 0.5644 0.5513 0.98775 0.0
H518 H 0.54951 0.43285 0.98018 0.0
H519 H 0.54241 0.43024 0.02892 0.0
C520 C 0.63633 0.51277 0.9171 0.0
C521 C 0.61194 0.52289 0.90053 0.0
C522 C 0.61683 0.50078 0.94282 0.0
C523 C 0.57364 0.49984 0.95231 0.0
C524 C 0.54915 0.50977 0.9355 0.0
C525 C 0.56776 0.52068 0.90962 0.0
C526 C 0.55229 0.52159 0.02395 0.0
C527 C 0.54788 0.4884 0.03582 0.0
C528 C 0.5572 0.52358 -0.00364 0.0
C529 C 0.55784 0.49242 0.98043 0.0
C530 C 0.54956 0.45739 0.99221 0.0
C531 C 0.5449 0.45554 0.01985 0.0
H532 H 0.14251 0.61119 0.2346 0.0
H533 H 0.15702 0.50956 0.23852 0.0
H534 H 0.12567 0.61014 0.2825 0.0
H535 H 0.13553 0.50522 0.28568 0.0
H536 H 0.15595 0.53903 0.37542 0.0
H537 H 0.16869 0.53795 0.32736 0.0
H538 H 1.07016 0.57738 0.31806 0.0
H539 H 1.06132 0.58126 0.36663 0.0
C540 C 0.14132 0.58816 0.24571 0.0
C541 C 0.15182 0.56091 0.23291 0.0
C542 C 0.13107 0.58711 0.27324 0.0
C543 C 0.12948 0.55778 0.28855 0.0
C544 C 0.13814 0.52944 0.27521 0.0
C545 C 0.15004 0.53156 0.24795 0.0
C546 C 0.13691 0.54718 0.36291 0.0
C547 C 0.10762 0.56007 0.37449 0.0
C548 C 0.1437 0.54626 0.33521 0.0
C549 C 0.12048 0.5575 0.31824 0.0
C550 C 0.08981 0.56936 0.33014 0.0
C551 C 0.08398 0.57106 0.35797 0.0
loop_
_geom_bond_atom_site_label_1
_geom_bond_atom_site_label_2
_geom_bond_distance
_geom_bond_site_symmetry_2
_ccdc_geom_bond_type
Sm0 C2 2.846 . S
Sm0 O20 2.543 . S
Sm0 O21 2.450 . S
Sm0 O22 2.681 . S
Sm0 O23 2.464 . S
Sm0 O24 2.396 . S
Sm0 O28 2.386 . S
Sm0 O31 2.408 . S
Sm1 C11 2.846 1_455 S
Sm1 O22 2.386 . S
Sm1 O25 2.408 . S
Sm1 O26 2.543 1_455 S
Sm1 O27 2.450 1_455 S
Sm1 O28 2.681 . S
Sm1 O29 2.464 . S
Sm1 O30 2.396 1_455 S
C2 Sm0 2.846 . S
C2 C3 1.506 . S
C2 O20 1.261 . S
C2 O21 1.242 . S
C3 C2 1.506 . S
C3 C4 1.358 . S
C3 C8 1.382 . S
C4 C3 1.358 . S
C4 C5 1.385 . S
C4 H32 0.930 . S
C5 C4 1.385 . S
C5 C6 1.395 . S
C5 H33 0.929 . S
C6 C5 1.395 . S
C6 C7 1.335 . S
C7 C6 1.335 . S
C7 C8 1.398 . S
C7 H34 0.930 . S
C8 C3 1.382 . S
C8 C7 1.398 . S
C8 H35 0.929 . S
C9 O22 1.271 . S
C9 O23 1.251 . S
C10 O24 1.252 . S
C10 O25 1.272 . S
C11 Sm1 2.846 1_655 S
C11 C12 1.506 . S
C11 O26 1.261 . S
C11 O27 1.242 . S
C12 C11 1.506 . S
C12 C13 1.358 . S
C12 C17 1.382 . S
C13 C12 1.358 . S
C13 C14 1.385 . S
C13 H36 0.930 . S
C14 C13 1.385 . S
C14 C15 1.395 . S
C14 H37 0.929 . S
C15 C14 1.395 . S
C15 C16 1.335 . S
C16 C15 1.335 . S
C16 C17 1.398 . S
C16 H38 0.930 . S
C17 C12 1.382 . S
C17 C16 1.398 . S
C17 H39 0.929 . S
C18 O28 1.271 . S
C18 O29 1.251 . S
C19 O30 1.252 . S
C19 O31 1.272 1_655 S
O20 Sm0 2.543 . S
O20 C2 1.261 . S
O21 Sm0 2.450 . S
O21 C2 1.242 . S
O22 Sm0 2.681 . S
O22 Sm1 2.386 . S
O22 C9 1.271 . S
O23 Sm0 2.464 . S
O23 C9 1.251 . S
O24 Sm0 2.396 . S
O24 C10 1.252 . S
O25 Sm1 2.408 . S
O25 C10 1.272 . S
O26 Sm1 2.543 1_655 S
O26 C11 1.261 . S
O27 Sm1 2.450 1_655 S
O27 C11 1.242 . S
O28 Sm0 2.386 . S
O28 Sm1 2.681 . S
O28 C18 1.271 . S
O29 Sm1 2.464 . S
O29 C18 1.251 . S
O30 Sm1 2.396 1_655 S
O30 C19 1.252 . S
O31 Sm0 2.408 . S
O31 C19 1.272 1_455 S
H32 C4 0.930 . S
H33 C5 0.929 . S
H34 C7 0.930 . S
H35 C8 0.929 . S
H36 C13 0.930 . S
H37 C14 0.929 . S
H38 C16 0.930 . S
H39 C17 0.929 . S
Sm40 C42 2.846 1_545 S
Sm40 O60 2.543 1_545 S
Sm40 O61 2.450 1_545 S
Sm40 O62 2.681 . S
Sm40 O63 2.464 . S
Sm40 O64 2.396 1_545 S
Sm40 O68 2.386 . S
Sm40 O71 2.408 . S
Sm41 C51 2.846 . S
Sm41 O62 2.386 . S
Sm41 O65 2.408 1_545 S
Sm41 O66 2.543 . S
Sm41 O67 2.450 . S
Sm41 O68 2.681 . S
Sm41 O69 2.464 . S
Sm41 O70 2.396 . S
C42 Sm40 2.846 1_565 S
C42 C43 1.506 . S
C42 O60 1.261 . S
C42 O61 1.242 . S
C43 C42 1.506 . S
C43 C44 1.358 . S
C43 C48 1.382 . S
C44 C43 1.358 . S
C44 C45 1.385 . S
C44 H72 0.930 . S
C45 C44 1.385 . S
C45 C46 1.395 . S
C45 H73 0.929 . S
C46 C45 1.395 . S
C46 C47 1.335 . S
C47 C46 1.335 . S
C47 C48 1.398 . S
C47 H74 0.930 . S
C48 C43 1.382 . S
C48 C47 1.398 . S
C48 H75 0.929 . S
C49 O62 1.271 . S
C49 O63 1.251 . S
C50 O64 1.252 . S
C50 O65 1.272 . S
C51 Sm41 2.846 . S
C51 C52 1.506 . S
C51 O66 1.261 . S
C51 O67 1.242 . S
C52 C51 1.506 . S
C52 C53 1.358 . S
C52 C57 1.382 . S
C53 C52 1.358 . S
C53 C54 1.385 . S
C53 H76 0.930 . S
C54 C53 1.385 . S
C54 C55 1.395 . S
C54 H77 0.929 . S
C55 C54 1.395 . S
C55 C56 1.335 . S
C56 C55 1.335 . S
C56 C57 1.398 . S
C56 H78 0.930 . S
C57 C52 1.382 . S
C57 C56 1.398 . S
C57 H79 0.929 . S
C58 O68 1.271 . S
C58 O69 1.251 . S
C59 O70 1.252 . S
C59 O71 1.272 . S
O60 Sm40 2.543 1_565 S
O60 C42 1.261 . S
O61 Sm40 2.450 1_565 S
O61 C42 1.242 . S
O62 Sm40 2.681 . S
O62 Sm41 2.386 . S
O62 C49 1.271 . S
O63 Sm40 2.464 . S
O63 C49 1.251 . S
O64 Sm40 2.396 1_565 S
O64 C50 1.252 . S
O65 Sm41 2.408 1_565 S
O65 C50 1.272 . S
O66 Sm41 2.543 . S
O66 C51 1.261 . S
O67 Sm41 2.450 . S
O67 C51 1.242 . S
O68 Sm40 2.386 . S
O68 Sm41 2.681 . S
O68 C58 1.271 . S
O69 Sm41 2.464 . S
O69 C58 1.251 . S
O70 Sm41 2.396 . S
O70 C59 1.252 . S
O71 Sm40 2.408 . S
O71 C59 1.272 . S
H72 C44 0.930 . S
H73 C45 0.929 . S
H74 C47 0.930 . S
H75 C48 0.929 . S
H76 C53 0.930 . S
H77 C54 0.929 . S
H78 C56 0.930 . S
H79 C57 0.929 . S
Sm80 C82 2.846 . S
Sm80 O100 2.543 . S
Sm80 O101 2.450 . S
Sm80 O102 2.681 . S
Sm80 O103 2.464 . S
Sm80 O104 2.396 . S
Sm80 O108 2.386 . S
Sm80 O111 2.408 . S
Sm81 C91 2.846 . S
Sm81 O102 2.386 . S
Sm81 O105 2.408 . S
Sm81 O106 2.543 . S
Sm81 O107 2.450 . S
Sm81 O108 2.681 . S
Sm81 O109 2.464 . S
Sm81 O110 2.396 . S
C82 Sm80 2.846 . S
C82 C83 1.506 . S
C82 O100 1.261 . S
C82 O101 1.242 . S
C83 C82 1.506 . S
C83 C84 1.358 . S
C83 C88 1.382 . S
C84 C83 1.358 . S
C84 C85 1.385 . S
C84 H112 0.930 . S
C85 C84 1.385 . S
C85 C86 1.395 . S
C85 H113 0.929 . S
C86 C85 1.395 . S
C86 C87 1.335 . S
C87 C86 1.335 . S
C87 C88 1.398 . S
C87 H114 0.930 . S
C88 C83 1.382 . S
C88 C87 1.398 . S
C88 H115 0.929 . S
C89 O102 1.271 . S
C89 O103 1.251 . S
C90 O104 1.252 . S
C90 O105 1.272 . S
C91 Sm81 2.846 . S
C91 C92 1.506 . S
C91 O106 1.261 . S
C91 O107 1.242 . S
C92 C91 1.506 . S
C92 C93 1.358 . S
C92 C97 1.382 . S
C93 C92 1.358 . S
C93 C94 1.385 . S
C93 H116 0.930 . S
C94 C93 1.385 . S
C94 C95 1.395 . S
C94 H117 0.929 . S
C95 C94 1.395 . S
C95 C96 1.335 . S
C96 C95 1.335 . S
C96 C97 1.398 . S
C96 H118 0.930 . S
C97 C92 1.382 . S
C97 C96 1.398 . S
C97 H119 0.929 . S
C98 O108 1.271 . S
C98 O109 1.251 . S
C99 O110 1.252 . S
C99 O111 1.272 . S
O100 Sm80 2.543 . S
O100 C82 1.261 . S
O101 Sm80 2.450 . S
O101 C82 1.242 . S
O102 Sm80 2.681 . S
O102 Sm81 2.386 . S
O102 C89 1.271 . S
O103 Sm80 2.464 . S
O103 C89 1.251 . S
O104 Sm80 2.396 . S
O104 C90 1.252 . S
O105 Sm81 2.408 . S
O105 C90 1.272 . S
O106 Sm81 2.543 . S
O106 C91 1.261 . S
O107 Sm81 2.450 . S
O107 C91 1.242 . S
O108 Sm80 2.386 . S
O108 Sm81 2.681 . S
O108 C98 1.271 . S
O109 Sm81 2.464 . S
O109 C98 1.251 . S
O110 Sm81 2.396 . S
O110 C99 1.252 . S
O111 Sm80 2.408 . S
O111 C99 1.272 . S
H112 C84 0.930 . S
H113 C85 0.929 . S
H114 C87 0.930 . S
H115 C88 0.929 . S
H116 C93 0.930 . S
H117 C94 0.929 . S
H118 C96 0.930 . S
H119 C97 0.929 . S
H120 C125 0.930 . S
H121 C128 0.930 . S
H122 C130 0.930 1_565 S
H123 C124 1.016 . S
C124 H123 1.016 . S
C124 N131 1.286 . S
C125 H120 0.930 . S
C125 C126 1.397 1_545 S
C125 C127 1.361 . S
C126 C125 1.397 1_565 S
C126 C130 1.390 1_565 S
C127 C125 1.361 . S
C127 C128 1.393 . S
C127 N131 1.413 . S
C128 H121 0.930 . S
C128 C127 1.393 . S
C128 C129 1.399 . S
C129 C128 1.399 . S
C129 C130 1.381 . S
C130 H122 0.930 1_545 S
C130 C126 1.390 1_545 S
C130 C129 1.381 . S
N131 C124 1.286 . S
N131 C127 1.413 . S
H132 C137 0.930 . S
H133 C140 0.930 . S
H134 C142 0.930 . S
H135 C136 1.016 . S
C136 H135 1.016 . S
C136 N143 1.286 . S
C137 H132 0.930 . S
C137 C138 1.397 . S
C137 C139 1.361 . S
C138 C137 1.397 . S
C138 C142 1.390 . S
C139 C137 1.361 . S
C139 C140 1.393 . S
C139 N143 1.413 . S
C140 H133 0.930 . S
C140 C139 1.393 . S
C140 C141 1.399 . S
C141 C140 1.399 . S
C141 C142 1.381 . S
C142 H134 0.930 . S
C142 C138 1.390 . S
C142 C141 1.381 . S
N143 C136 1.286 . S
N143 C139 1.413 . S
H144 C149 0.930 . S
H145 C152 0.930 . S
H146 C154 0.930 1_655 S
H147 C148 1.016 . S
C148 H147 1.016 . S
C148 N155 1.286 . S
C149 H144 0.930 . S
C149 C150 1.397 1_455 S
C149 C151 1.361 . S
C150 C149 1.397 1_655 S
C150 C154 1.390 1_655 S
C151 C149 1.361 . S
C151 C152 1.393 . S
C151 N155 1.413 . S
C152 H145 0.930 . S
C152 C151 1.393 . S
C152 C153 1.399 . S
C153 C152 1.399 . S
C153 C154 1.381 . S
C154 H146 0.930 1_455 S
C154 C150 1.390 1_455 S
C154 C153 1.381 . S
N155 C148 1.286 . S
N155 C151 1.413 . S
H156 C161 0.930 . S
H157 C164 0.930 . S
H158 C166 0.930 . S
H159 C160 1.016 . S
C160 H159 1.016 . S
C160 N167 1.286 . S
C161 H156 0.930 . S
C161 C162 1.397 . S
C161 C163 1.361 1_455 S
C162 C161 1.397 . S
C162 C166 1.390 . S
C163 C161 1.361 1_655 S
C163 C164 1.393 . S
C163 N167 1.413 . S
C164 H157 0.930 . S
C164 C163 1.393 . S
C164 C165 1.399 1_655 S
C165 C164 1.399 1_455 S
C165 C166 1.381 . S
C166 H158 0.930 . S
C166 C162 1.390 . S
C166 C165 1.381 . S
N167 C160 1.286 . S
N167 C163 1.413 . S
H168 C173 0.930 . S
H169 C176 0.930 1_565 S
H170 C178 0.930 . S
H171 C172 1.016 . S
C172 H171 1.016 . S
C172 N179 1.286 . S
C173 H168 0.930 . S
C173 C174 1.397 . S
C173 C175 1.361 . S
C174 C173 1.397 . S
C174 C178 1.390 . S
C175 C173 1.361 . S
C175 C176 1.393 . S
C175 N179 1.413 1_545 S
C176 H169 0.930 1_545 S
C176 C175 1.393 . S
C176 C177 1.399 . S
C177 C176 1.399 . S
C177 C178 1.381 . S
C178 H170 0.930 . S
C178 C174 1.390 . S
C178 C177 1.381 . S
N179 C172 1.286 . S
N179 C175 1.413 1_565 S
H180 C185 0.930 . S
H181 C188 0.930 . S
H182 C190 0.930 . S
H183 C184 1.016 . S
C184 H183 1.016 . S
C184 N191 1.286 . S
C185 H180 0.930 . S
C185 C186 1.397 . S
C185 C187 1.361 . S
C186 C185 1.397 . S
C186 C190 1.390 . S
C187 C185 1.361 . S
C187 C188 1.393 . S
C187 N191 1.413 . S
C188 H181 0.930 . S
C188 C187 1.393 . S
C188 C189 1.399 . S
C189 C188 1.399 . S
C189 C190 1.381 . S
C190 H182 0.930 . S
C190 C186 1.390 . S
C190 C189 1.381 . S
N191 C184 1.286 . S
N191 C187 1.413 . S
H192 C200 0.950 . S
H193 C205 0.950 . S
H194 C202 0.950 . S
H195 C204 0.950 . S
H196 C206 0.950 . S
H197 C208 0.950 . S
H198 C210 0.950 . S
H199 C211 0.950 . S
C200 H192 0.950 . S
C200 C201 1.386 . S
C200 C202 1.391 . S
C201 C200 1.386 . S
C201 C205 1.393 . S
C202 H194 0.950 . S
C202 C200 1.391 . S
C202 C203 1.400 . S
C203 C202 1.400 . S
C203 C204 1.398 . S
C203 C209 1.491 . S
C204 H195 0.950 . S
C204 C203 1.398 . S
C204 C205 1.391 . S
C205 H193 0.950 . S
C205 C201 1.393 . S
C205 C204 1.391 . S
C206 H196 0.950 . S
C206 C207 1.386 . S
C206 C208 1.391 . S
C207 C206 1.386 . S
C207 C211 1.393 . S
C208 H197 0.950 . S
C208 C206 1.391 . S
C208 C209 1.400 . S
C209 C203 1.491 . S
C209 C208 1.400 . S
C209 C210 1.398 . S
C210 H198 0.950 . S
C210 C209 1.398 . S
C210 C211 1.391 . S
C211 H199 0.950 . S
C211 C207 1.393 . S
C211 C210 1.391 . S
H212 C220 0.950 . S
H213 C225 0.950 . S
H214 C222 0.950 . S
H215 C224 0.950 . S
H216 C226 0.950 . S
H217 C228 0.950 . S
H218 C230 0.950 . S
H219 C231 0.950 . S
C220 H212 0.950 . S
C220 C221 1.386 . S
C220 C222 1.391 . S
C221 C220 1.386 . S
C221 C225 1.393 . S
C222 H214 0.950 . S
C222 C220 1.391 . S
C222 C223 1.400 . S
C223 C222 1.400 . S
C223 C224 1.398 . S
C223 C229 1.491 . S
C224 H215 0.950 . S
C224 C223 1.398 . S
C224 C225 1.391 . S
C225 H213 0.950 . S
C225 C221 1.393 . S
C225 C224 1.391 . S
C226 H216 0.950 . S
C226 C227 1.386 . S
C226 C228 1.391 . S
C227 C226 1.386 . S
C227 C231 1.393 . S
C228 H217 0.950 . S
C228 C226 1.391 . S
C228 C229 1.400 . S
C229 C223 1.491 . S
C229 C228 1.400 . S
C229 C230 1.398 . S
C230 H218 0.950 . S
C230 C229 1.398 . S
C230 C231 1.391 . S
C231 H219 0.950 . S
C231 C227 1.393 . S
C231 C230 1.391 . S
H232 C240 0.950 . S
H233 C245 0.950 . S
H234 C242 0.950 . S
H235 C244 0.950 . S
H236 C246 0.950 . S
H237 C248 0.950 . S
H238 C250 0.950 . S
H239 C251 0.950 . S
C240 H232 0.950 . S
C240 C241 1.386 . S
C240 C242 1.391 . S
C241 C240 1.386 . S
C241 C245 1.393 . S
C242 H234 0.950 . S
C242 C240 1.391 . S
C242 C243 1.400 . S
C243 C242 1.400 . S
C243 C244 1.398 . S
C243 C249 1.491 . S
C244 H235 0.950 . S
C244 C243 1.398 . S
C244 C245 1.391 . S
C245 H233 0.950 . S
C245 C241 1.393 . S
C245 C244 1.391 . S
C246 H236 0.950 . S
C246 C247 1.386 . S
C246 C248 1.391 . S
C247 C246 1.386 . S
C247 C251 1.393 . S
C248 H237 0.950 . S
C248 C246 1.391 . S
C248 C249 1.400 . S
C249 C243 1.491 . S
C249 C248 1.400 . S
C249 C250 1.398 . S
C250 H238 0.950 . S
C250 C249 1.398 . S
C250 C251 1.391 . S
C251 H239 0.950 . S
C251 C247 1.393 . S
C251 C250 1.391 . S
H252 C260 0.950 . S
H253 C265 0.950 . S
H254 C262 0.950 . S
H255 C264 0.950 . S
H256 C266 0.950 . S
H257 C268 0.950 . S
H258 C270 0.950 . S
H259 C271 0.950 . S
C260 H252 0.950 . S
C260 C261 1.386 . S
C260 C262 1.391 . S
C261 C260 1.386 . S
C261 C265 1.393 . S
C262 H254 0.950 . S
C262 C260 1.391 . S
C262 C263 1.400 . S
C263 C262 1.400 . S
C263 C264 1.398 . S
C263 C269 1.491 . S
C264 H255 0.950 . S
C264 C263 1.398 . S
C264 C265 1.391 . S
C265 H253 0.950 . S
C265 C261 1.393 . S
C265 C264 1.391 . S
C266 H256 0.950 . S
C266 C267 1.386 . S
C266 C268 1.391 . S
C267 C266 1.386 . S
C267 C271 1.393 . S
C268 H257 0.950 . S
C268 C266 1.391 . S
C268 C269 1.400 . S
C269 C263 1.491 . S
C269 C268 1.400 . S
C269 C270 1.398 . S
C270 H258 0.950 . S
C270 C269 1.398 . S
C270 C271 1.391 . S
C271 H259 0.950 . S
C271 C267 1.393 . S
C271 C270 1.391 . S
H272 C280 0.950 . S
H273 C285 0.950 . S
H274 C282 0.950 . S
H275 C284 0.950 . S
H276 C286 0.950 . S
H277 C288 0.950 . S
H278 C290 0.950 . S
H279 C291 0.950 . S
C280 H272 0.950 . S
C280 C281 1.386 . S
C280 C282 1.391 . S
C281 C280 1.386 . S
C281 C285 1.393 . S
C282 H274 0.950 . S
C282 C280 1.391 . S
C282 C283 1.400 . S
C283 C282 1.400 . S
C283 C284 1.398 . S
C283 C289 1.491 . S
C284 H275 0.950 . S
C284 C283 1.398 . S
C284 C285 1.391 . S
C285 H273 0.950 . S
C285 C281 1.393 . S
C285 C284 1.391 . S
C286 H276 0.950 . S
C286 C287 1.386 . S
C286 C288 1.391 . S
C287 C286 1.386 . S
C287 C291 1.393 . S
C288 H277 0.950 . S
C288 C286 1.391 . S
C288 C289 1.400 . S
C289 C283 1.491 . S
C289 C288 1.400 . S
C289 C290 1.398 . S
C290 H278 0.950 . S
C290 C289 1.398 . S
C290 C291 1.391 . S
C291 H279 0.950 . S
C291 C287 1.393 . S
C291 C290 1.391 . S
H292 C300 0.950 . S
H293 C305 0.950 . S
H294 C302 0.950 . S
H295 C304 0.950 . S
H296 C306 0.950 . S
H297 C308 0.950 . S
H298 C310 0.950 . S
H299 C311 0.950 . S
C300 H292 0.950 . S
C300 C301 1.386 . S
C300 C302 1.391 . S
C301 C300 1.386 . S
C301 C305 1.393 . S
C302 H294 0.950 . S
C302 C300 1.391 . S
C302 C303 1.400 . S
C303 C302 1.400 . S
C303 C304 1.398 . S
C303 C309 1.491 . S
C304 H295 0.950 . S
C304 C303 1.398 . S
C304 C305 1.391 . S
C305 H293 0.950 . S
C305 C301 1.393 . S
C305 C304 1.391 . S
C306 H296 0.950 . S
C306 C307 1.386 . S
C306 C308 1.391 . S
C307 C306 1.386 . S
C307 C311 1.393 . S
C308 H297 0.950 . S
C308 C306 1.391 . S
C308 C309 1.400 . S
C309 C303 1.491 . S
C309 C308 1.400 . S
C309 C310 1.398 . S
C310 H298 0.950 . S
C310 C309 1.398 . S
C310 C311 1.391 . S
C311 H299 0.950 . S
C311 C307 1.393 . S
C311 C310 1.391 . S
H312 C320 0.950 . S
H313 C325 0.950 . S
H314 C322 0.950 . S
H315 C324 0.950 . S
H316 C326 0.950 . S
H317 C328 0.950 . S
H318 C330 0.950 . S
H319 C331 0.950 . S
C320 H312 0.950 . S
C320 C321 1.386 . S
C320 C322 1.391 . S
C321 C320 1.386 . S
C321 C325 1.393 . S
C322 H314 0.950 . S
C322 C320 1.391 . S
C322 C323 1.400 . S
C323 C322 1.400 . S
C323 C324 1.398 . S
C323 C329 1.491 . S
C324 H315 0.950 . S
C324 C323 1.398 . S
C324 C325 1.391 . S
C325 H313 0.950 . S
C325 C321 1.393 . S
C325 C324 1.391 . S
C326 H316 0.950 . S
C326 C327 1.386 . S
C326 C328 1.391 . S
C327 C326 1.386 . S
C327 C331 1.393 . S
C328 H317 0.950 . S
C328 C326 1.391 . S
C328 C329 1.400 . S
C329 C323 1.491 . S
C329 C328 1.400 . S
C329 C330 1.398 . S
C330 H318 0.950 . S
C330 C329 1.398 . S
C330 C331 1.391 . S
C331 H319 0.950 . S
C331 C327 1.393 . S
C331 C330 1.391 . S
H332 C340 0.950 . S
H333 C345 0.950 . S
H334 C342 0.950 . S
H335 C344 0.950 . S
H336 C346 0.950 . S
H337 C348 0.950 . S
H338 C350 0.950 . S
H339 C351 0.950 . S
C340 H332 0.950 . S
C340 C341 1.386 . S
C340 C342 1.391 . S
C341 C340 1.386 . S
C341 C345 1.393 . S
C342 H334 0.950 . S
C342 C340 1.391 . S
C342 C343 1.400 . S
C343 C342 1.400 . S
C343 C344 1.398 . S
C343 C349 1.491 . S
C344 H335 0.950 . S
C344 C343 1.398 . S
C344 C345 1.391 . S
C345 H333 0.950 . S
C345 C341 1.393 . S
C345 C344 1.391 . S
C346 H336 0.950 . S
C346 C347 1.386 . S
C346 C348 1.391 . S
C347 C346 1.386 . S
C347 C351 1.393 . S
C348 H337 0.950 . S
C348 C346 1.391 . S
C348 C349 1.400 . S
C349 C343 1.491 . S
C349 C348 1.400 . S
C349 C350 1.398 . S
C350 H338 0.950 . S
C350 C349 1.398 . S
C350 C351 1.391 . S
C351 H339 0.950 . S
C351 C347 1.393 . S
C351 C350 1.391 . S
H352 C360 0.950 . S
H353 C365 0.950 . S
H354 C362 0.950 . S
H355 C364 0.950 . S
H356 C366 0.950 . S
H357 C368 0.950 . S
H358 C370 0.950 . S
H359 C371 0.950 . S
C360 H352 0.950 . S
C360 C361 1.386 . S
C360 C362 1.391 . S
C361 C360 1.386 . S
C361 C365 1.393 . S
C362 H354 0.950 . S
C362 C360 1.391 . S
C362 C363 1.400 . S
C363 C362 1.400 . S
C363 C364 1.398 . S
C363 C369 1.491 . S
C364 H355 0.950 . S
C364 C363 1.398 . S
C364 C365 1.391 . S
C365 H353 0.950 . S
C365 C361 1.393 . S
C365 C364 1.391 . S
C366 H356 0.950 . S
C366 C367 1.386 . S
C366 C368 1.391 . S
C367 C366 1.386 . S
C367 C371 1.393 . S
C368 H357 0.950 . S
C368 C366 1.391 . S
C368 C369 1.400 . S
C369 C363 1.491 . S
C369 C368 1.400 . S
C369 C370 1.398 . S
C370 H358 0.950 . S
C370 C369 1.398 . S
C370 C371 1.391 . S
C371 H359 0.950 . S
C371 C367 1.393 . S
C371 C370 1.391 . S
H372 C380 0.950 . S
H373 C385 0.950 . S
H374 C382 0.950 . S
H375 C384 0.950 . S
H376 C386 0.950 . S
H377 C388 0.950 . S
H378 C390 0.950 . S
H379 C391 0.950 . S
C380 H372 0.950 . S
C380 C381 1.386 . S
C380 C382 1.391 . S
C381 C380 1.386 . S
C381 C385 1.393 . S
C382 H374 0.950 . S
C382 C380 1.391 . S
C382 C383 1.400 . S
C383 C382 1.400 . S
C383 C384 1.398 . S
C383 C389 1.491 . S
C384 H375 0.950 . S
C384 C383 1.398 . S
C384 C385 1.391 . S
C385 H373 0.950 . S
C385 C381 1.393 . S
C385 C384 1.391 . S
C386 H376 0.950 . S
C386 C387 1.386 . S
C386 C388 1.391 . S
C387 C386 1.386 . S
C387 C391 1.393 . S
C388 H377 0.950 . S
C388 C386 1.391 . S
C388 C389 1.400 . S
C389 C383 1.491 . S
C389 C388 1.400 . S
C389 C390 1.398 . S
C390 H378 0.950 . S
C390 C389 1.398 . S
C390 C391 1.391 . S
C391 H379 0.950 . S
C391 C387 1.393 . S
C391 C390 1.391 . S
H392 C400 0.950 . S
H393 C405 0.950 . S
H394 C402 0.950 . S
H395 C404 0.950 . S
H396 C406 0.950 . S
H397 C408 0.950 . S
H398 C410 0.950 . S
H399 C411 0.950 . S
C400 H392 0.950 . S
C400 C401 1.386 . S
C400 C402 1.391 . S
C401 C400 1.386 . S
C401 C405 1.393 . S
C402 H394 0.950 . S
C402 C400 1.391 . S
C402 C403 1.400 . S
C403 C402 1.400 . S
C403 C404 1.398 . S
C403 C409 1.491 . S
C404 H395 0.950 . S
C404 C403 1.398 . S
C404 C405 1.391 . S
C405 H393 0.950 . S
C405 C401 1.393 . S
C405 C404 1.391 . S
C406 H396 0.950 . S
C406 C407 1.386 . S
C406 C408 1.391 . S
C407 C406 1.386 . S
C407 C411 1.393 . S
C408 H397 0.950 . S
C408 C406 1.391 . S
C408 C409 1.400 . S
C409 C403 1.491 . S
C409 C408 1.400 . S
C409 C410 1.398 . S
C410 H398 0.950 . S
C410 C409 1.398 . S
C410 C411 1.391 . S
C411 H399 0.950 . S
C411 C407 1.393 . S
C411 C410 1.391 . S
H412 C420 0.950 . S
H413 C425 0.950 . S
H414 C422 0.950 . S
H415 C424 0.950 . S
H416 C426 0.950 . S
H417 C428 0.950 . S
H418 C430 0.950 . S
H419 C431 0.950 . S
C420 H412 0.950 . S
C420 C421 1.386 . S
C420 C422 1.391 . S
C421 C420 1.386 . S
C421 C425 1.393 . S
C422 H414 0.950 . S
C422 C420 1.391 . S
C422 C423 1.400 . S
C423 C422 1.400 . S
C423 C424 1.398 . S
C423 C429 1.491 . S
C424 H415 0.950 . S
C424 C423 1.398 . S
C424 C425 1.391 . S
C425 H413 0.950 . S
C425 C421 1.393 . S
C425 C424 1.391 . S
C426 H416 0.950 . S
C426 C427 1.386 . S
C426 C428 1.391 . S
C427 C426 1.386 . S
C427 C431 1.393 . S
C428 H417 0.950 . S
C428 C426 1.391 . S
C428 C429 1.400 . S
C429 C423 1.491 . S
C429 C428 1.400 . S
C429 C430 1.398 . S
C430 H418 0.950 . S
C430 C429 1.398 . S
C430 C431 1.391 . S
C431 H419 0.950 . S
C431 C427 1.393 . S
C431 C430 1.391 . S
H432 C440 0.950 . S
H433 C445 0.950 . S
H434 C442 0.950 . S
H435 C444 0.950 . S
H436 C446 0.950 . S
H437 C448 0.950 . S
H438 C450 0.950 . S
H439 C451 0.950 . S
C440 H432 0.950 . S
C440 C441 1.386 . S
C440 C442 1.391 . S
C441 C440 1.386 . S
C441 C445 1.393 . S
C442 H434 0.950 . S
C442 C440 1.391 . S
C442 C443 1.400 . S
C443 C442 1.400 . S
C443 C444 1.398 . S
C443 C449 1.491 1_554 S
C444 H435 0.950 . S
C444 C443 1.398 . S
C444 C445 1.391 . S
C445 H433 0.950 . S
C445 C441 1.393 . S
C445 C444 1.391 . S
C446 H436 0.950 . S
C446 C447 1.386 . S
C446 C448 1.391 . S
C447 C446 1.386 . S
C447 C451 1.393 . S
C448 H437 0.950 . S
C448 C446 1.391 . S
C448 C449 1.400 . S
C449 C443 1.491 1_556 S
C449 C448 1.400 . S
C449 C450 1.398 . S
C450 H438 0.950 . S
C450 C449 1.398 . S
C450 C451 1.391 . S
C451 H439 0.950 . S
C451 C447 1.393 . S
C451 C450 1.391 . S
H452 C460 0.950 1_565 S
H453 C465 0.950 . S
H454 C462 0.950 1_565 S
H455 C464 0.950 . S
H456 C466 0.950 . S
H457 C468 0.950 . S
H458 C470 0.950 . S
H459 C471 0.950 . S
C460 H452 0.950 1_545 S
C460 C461 1.386 . S
C460 C462 1.391 . S
C461 C460 1.386 . S
C461 C465 1.393 . S
C462 H454 0.950 1_545 S
C462 C460 1.391 . S
C462 C463 1.400 . S
C463 C462 1.400 . S
C463 C464 1.398 . S
C463 C469 1.491 . S
C464 H455 0.950 . S
C464 C463 1.398 . S
C464 C465 1.391 . S
C465 H453 0.950 . S
C465 C461 1.393 . S
C465 C464 1.391 . S
C466 H456 0.950 . S
C466 C467 1.386 . S
C466 C468 1.391 . S
C467 C466 1.386 . S
C467 C471 1.393 . S
C468 H457 0.950 . S
C468 C466 1.391 . S
C468 C469 1.400 . S
C469 C463 1.491 . S
C469 C468 1.400 . S
C469 C470 1.398 . S
C470 H458 0.950 . S
C470 C469 1.398 . S
C470 C471 1.391 . S
C471 H459 0.950 . S
C471 C467 1.393 . S
C471 C470 1.391 . S
H472 C480 0.950 . S
H473 C485 0.950 . S
H474 C482 0.950 . S
H475 C484 0.950 . S
H476 C486 0.950 . S
H477 C488 0.950 . S
H478 C490 0.950 . S
H479 C491 0.950 . S
C480 H472 0.950 . S
C480 C481 1.386 . S
C480 C482 1.391 . S
C481 C480 1.386 . S
C481 C485 1.393 . S
C482 H474 0.950 . S
C482 C480 1.391 . S
C482 C483 1.400 . S
C483 C482 1.400 . S
C483 C484 1.398 . S
C483 C489 1.491 . S
C484 H475 0.950 . S
C484 C483 1.398 . S
C484 C485 1.391 . S
C485 H473 0.950 . S
C485 C481 1.393 . S
C485 C484 1.391 . S
C486 H476 0.950 . S
C486 C487 1.386 . S
C486 C488 1.391 . S
C487 C486 1.386 . S
C487 C491 1.393 . S
C488 H477 0.950 . S
C488 C486 1.391 . S
C488 C489 1.400 . S
C489 C483 1.491 . S
C489 C488 1.400 . S
C489 C490 1.398 . S
C490 H478 0.950 . S
C490 C489 1.398 . S
C490 C491 1.391 . S
C491 H479 0.950 . S
C491 C487 1.393 . S
C491 C490 1.391 . S
H492 C500 0.950 . S
H493 C505 0.950 . S
H494 C502 0.950 . S
H495 C504 0.950 . S
H496 C506 0.950 . S
H497 C508 0.950 . S
H498 C510 0.950 . S
H499 C511 0.950 . S
C500 H492 0.950 . S
C500 C501 1.386 . S
C500 C502 1.391 . S
C501 C500 1.386 . S
C501 C505 1.393 . S
C502 H494 0.950 . S
C502 C500 1.391 . S
C502 C503 1.400 . S
C503 C502 1.400 . S
C503 C504 1.398 . S
C503 C509 1.491 . S
C504 H495 0.950 . S
C504 C503 1.398 . S
C504 C505 1.391 . S
C505 H493 0.950 . S
C505 C501 1.393 . S
C505 C504 1.391 . S
C506 H496 0.950 . S
C506 C507 1.386 . S
C506 C508 1.391 . S
C507 C506 1.386 . S
C507 C511 1.393 . S
C508 H497 0.950 . S
C508 C506 1.391 . S
C508 C509 1.400 . S
C509 C503 1.491 . S
C509 C508 1.400 . S
C509 C510 1.398 . S
C510 H498 0.950 . S
C510 C509 1.398 . S
C510 C511 1.391 . S
C511 H499 0.950 . S
C511 C507 1.393 . S
C511 C510 1.391 . S
H512 C520 0.950 . S
H513 C525 0.950 . S
H514 C522 0.950 . S
H515 C524 0.950 . S
H516 C526 0.950 . S
H517 C528 0.950 1_556 S
H518 C530 0.950 1_556 S
H519 C531 0.950 . S
C520 H512 0.950 . S
C520 C521 1.386 . S
C520 C522 1.391 . S
C521 C520 1.386 . S
C521 C525 1.393 . S
C522 H514 0.950 . S
C522 C520 1.391 . S
C522 C523 1.400 . S
C523 C522 1.400 . S
C523 C524 1.398 . S
C523 C529 1.491 . S
C524 H515 0.950 . S
C524 C523 1.398 . S
C524 C525 1.391 . S
C525 H513 0.950 . S
C525 C521 1.393 . S
C525 C524 1.391 . S
C526 H516 0.950 . S
C526 C527 1.386 . S
C526 C528 1.391 . S
C527 C526 1.386 . S
C527 C531 1.393 . S
C528 H517 0.950 1_554 S
C528 C526 1.391 . S
C528 C529 1.400 1_554 S
C529 C523 1.491 . S
C529 C528 1.400 1_556 S
C529 C530 1.398 1_556 S
C530 H518 0.950 1_554 S
C530 C529 1.398 1_554 S
C530 C531 1.391 . S
C531 H519 0.950 . S
C531 C527 1.393 . S
C531 C530 1.391 . S
H532 C540 0.950 . S
H533 C545 0.950 . S
H534 C542 0.950 . S
H535 C544 0.950 . S
H536 C546 0.950 . S
H537 C548 0.950 . S
H538 C550 0.950 . S
H539 C551 0.950 1_655 S
C540 H532 0.950 . S
C540 C541 1.386 . S
C540 C542 1.391 . S
C541 C540 1.386 . S
C541 C545 1.393 . S
C542 H534 0.950 . S
C542 C540 1.391 . S
C542 C543 1.400 . S
C543 C542 1.400 . S
C543 C544 1.398 . S
C543 C549 1.491 . S
C544 H535 0.950 . S
C544 C543 1.398 . S
C544 C545 1.391 . S
C545 H533 0.950 . S
C545 C541 1.393 . S
C545 C544 1.391 . S
C546 H536 0.950 . S
C546 C547 1.386 . S
C546 C548 1.391 . S
C547 C546 1.386 . S
C547 C551 1.393 . S
C548 H537 0.950 . S
C548 C546 1.391 . S
C548 C549 1.400 . S
C549 C543 1.491 . S
C549 C548 1.400 . S
C549 C550 1.398 . S
C550 H538 0.950 . S
C550 C549 1.398 . S
C550 C551 1.391 . S
C551 H539 0.950 1_455 S
C551 C547 1.393 . S
C551 C550 1.391 . S
C201 C6 0.843 . S
C207 C186 0.849 . S
C221 C59 1.953 . S
C227 C160 1.889 . S
C241 C86 1.275 . S
C247 C172 1.274 . S
C261 C15 0.355 . S
C267 C184 0.238 . S
C287 C162 1.845 . S
C281 C50 1.860 . S
C307 C174 1.146 . S
C301 C95 1.158 . S
C321 C46 1.289 . S
C327 C136 1.290 . S
C341 C99 3.349 . S
C347 C150 3.321 . S
C361 C10 1.874 . S
C367 C126 1.873 . S
C387 C138 1.155 . S
C381 C55 1.141 . S
C407 C148 2.700 . S
C401 C90 2.785 . S
C421 C19 1.959 . S
C427 C124 1.911 . S
C447 C153 1.772 . S
C441 C18 1.688 . S
C461 C49 1.421 . S
C467 C129 1.482 . S
C481 C98 1.505 . S
C487 C141 1.526 . S
C507 C177 1.525 . S
C501 C58 1.517 . S
C527 C189 1.254 . S
C521 C89 1.209 . S
C541 C9 1.401 . S
C547 C165 1.439 . S
