# Generated by pormake.
# Topology ctn, (3,4)-cn, num edge types: 1
# Building blocks:
#     Node 0, Type 0, BuildingBlock: KAKCAD_clean_linker_0, # of connection points: 3
#     Node 1, Type 0, BuildingBlock: KAKCAD_clean_linker_0, # of connection points: 3
#     Node 2, Type 0, BuildingBlock: KAKCAD_clean_linker_0, # of connection points: 3
#     Node 3, Type 0, BuildingBlock: KAKCAD_clean_linker_0, # of connection points: 3
#     Node 4, Type 0, BuildingBlock: KAKCAD_clean_linker_0, # of connection points: 3
#     Node 5, Type 0, BuildingBlock: KAKCAD_clean_linker_0, # of connection points: 3
#     Node 6, Type 0, BuildingBlock: KAKCAD_clean_linker_0, # of connection points: 3
#     Node 7, Type 0, BuildingBlock: KAKCAD_clean_linker_0, # of connection points: 3
#     Node 8, Type 0, BuildingBlock: KAKCAD_clean_linker_0, # of connection points: 3
#     Node 9, Type 0, BuildingBlock: KAKCAD_clean_linker_0, # of connection points: 3
#     Node 10, Type 0, BuildingBlock: KAKCAD_clean_linker_0, # of connection points: 3
#     Node 11, Type 0, BuildingBlock: KAKCAD_clean_linker_0, # of connection points: 3
#     Node 12, Type 0, BuildingBlock: KAKCAD_clean_linker_0, # of connection points: 3
#     Node 13, Type 0, BuildingBlock: KAKCAD_clean_linker_0, # of connection points: 3
#     Node 14, Type 0, BuildingBlock: KAKCAD_clean_linker_0, # of connection points: 3
#     Node 15, Type 0, BuildingBlock: KAKCAD_clean_linker_0, # of connection points: 3
#     Node 16, Type 1, BuildingBlock: UXUYUI_clean_sbu_0, # of connection points: 4
#     Node 17, Type 1, BuildingBlock: UXUYUI_clean_sbu_0, # of connection points: 4
#     Node 18, Type 1, BuildingBlock: UXUYUI_clean_sbu_0, # of connection points: 4
#     Node 19, Type 1, BuildingBlock: UXUYUI_clean_sbu_0, # of connection points: 4
#     Node 20, Type 1, BuildingBlock: UXUYUI_clean_sbu_0, # of connection points: 4
#     Node 21, Type 1, BuildingBlock: UXUYUI_clean_sbu_0, # of connection points: 4
#     Node 22, Type 1, BuildingBlock: UXUYUI_clean_sbu_0, # of connection points: 4
#     Node 23, Type 1, BuildingBlock: UXUYUI_clean_sbu_0, # of connection points: 4
#     Node 24, Type 1, BuildingBlock: UXUYUI_clean_sbu_0, # of connection points: 4
#     Node 25, Type 1, BuildingBlock: UXUYUI_clean_sbu_0, # of connection points: 4
#     Node 26, Type 1, BuildingBlock: UXUYUI_clean_sbu_0, # of connection points: 4
#     Node 27, Type 1, BuildingBlock: UXUYUI_clean_sbu_0, # of connection points: 4
#     Edge 28, Type (0, 1), BuildingBlock: XIVTED_clean_linker_0, # of connection points: 2
#     Edge 29, Type (0, 1), BuildingBlock: XIVTED_clean_linker_0, # of connection points: 2
#     Edge 30, Type (0, 1), BuildingBlock: XIVTED_clean_linker_0, # of connection points: 2
#     Edge 31, Type (0, 1), BuildingBlock: XIVTED_clean_linker_0, # of connection points: 2
#     Edge 32, Type (0, 1), BuildingBlock: XIVTED_clean_linker_0, # of connection points: 2
#     Edge 33, Type (0, 1), BuildingBlock: XIVTED_clean_linker_0, # of connection points: 2
#     Edge 34, Type (0, 1), BuildingBlock: XIVTED_clean_linker_0, # of connection points: 2
#     Edge 35, Type (0, 1), BuildingBlock: XIVTED_clean_linker_0, # of connection points: 2
#     Edge 36, Type (0, 1), BuildingBlock: XIVTED_clean_linker_0, # of connection points: 2
#     Edge 37, Type (0, 1), BuildingBlock: XIVTED_clean_linker_0, # of connection points: 2
#     Edge 38, Type (0, 1), BuildingBlock: XIVTED_clean_linker_0, # of connection points: 2
#     Edge 39, Type (0, 1), BuildingBlock: XIVTED_clean_linker_0, # of connection points: 2
#     Edge 40, Type (0, 1), BuildingBlock: XIVTED_clean_linker_0, # of connection points: 2
#     Edge 41, Type (0, 1), BuildingBlock: XIVTED_clean_linker_0, # of connection points: 2
#     Edge 42, Type (0, 1), BuildingBlock: XIVTED_clean_linker_0, # of connection points: 2
#     Edge 43, Type (0, 1), BuildingBlock: XIVTED_clean_linker_0, # of connection points: 2
#     Edge 44, Type (0, 1), BuildingBlock: XIVTED_clean_linker_0, # of connection points: 2
#     Edge 45, Type (0, 1), BuildingBlock: XIVTED_clean_linker_0, # of connection points: 2
#     Edge 46, Type (0, 1), BuildingBlock: XIVTED_clean_linker_0, # of connection points: 2
#     Edge 47, Type (0, 1), BuildingBlock: XIVTED_clean_linker_0, # of connection points: 2
#     Edge 48, Type (0, 1), BuildingBlock: XIVTED_clean_linker_0, # of connection points: 2
#     Edge 49, Type (0, 1), BuildingBlock: XIVTED_clean_linker_0, # of connection points: 2
#     Edge 50, Type (0, 1), BuildingBlock: XIVTED_clean_linker_0, # of connection points: 2
#     Edge 51, Type (0, 1), BuildingBlock: XIVTED_clean_linker_0, # of connection points: 2
#     Edge 52, Type (0, 1), BuildingBlock: XIVTED_clean_linker_0, # of connection points: 2
#     Edge 53, Type (0, 1), BuildingBlock: XIVTED_clean_linker_0, # of connection points: 2
#     Edge 54, Type (0, 1), BuildingBlock: XIVTED_clean_linker_0, # of connection points: 2
#     Edge 55, Type (0, 1), BuildingBlock: XIVTED_clean_linker_0, # of connection points: 2
#     Edge 56, Type (0, 1), BuildingBlock: XIVTED_clean_linker_0, # of connection points: 2
#     Edge 57, Type (0, 1), BuildingBlock: XIVTED_clean_linker_0, # of connection points: 2
#     Edge 58, Type (0, 1), BuildingBlock: XIVTED_clean_linker_0, # of connection points: 2
#     Edge 59, Type (0, 1), BuildingBlock: XIVTED_clean_linker_0, # of connection points: 2
#     Edge 60, Type (0, 1), BuildingBlock: XIVTED_clean_linker_0, # of connection points: 2
#     Edge 61, Type (0, 1), BuildingBlock: XIVTED_clean_linker_0, # of connection points: 2
#     Edge 62, Type (0, 1), BuildingBlock: XIVTED_clean_linker_0, # of connection points: 2
#     Edge 63, Type (0, 1), BuildingBlock: XIVTED_clean_linker_0, # of connection points: 2
#     Edge 64, Type (0, 1), BuildingBlock: XIVTED_clean_linker_0, # of connection points: 2
#     Edge 65, Type (0, 1), BuildingBlock: XIVTED_clean_linker_0, # of connection points: 2
#     Edge 66, Type (0, 1), BuildingBlock: XIVTED_clean_linker_0, # of connection points: 2
#     Edge 67, Type (0, 1), BuildingBlock: XIVTED_clean_linker_0, # of connection points: 2
#     Edge 68, Type (0, 1), BuildingBlock: XIVTED_clean_linker_0, # of connection points: 2
#     Edge 69, Type (0, 1), BuildingBlock: XIVTED_clean_linker_0, # of connection points: 2
#     Edge 70, Type (0, 1), BuildingBlock: XIVTED_clean_linker_0, # of connection points: 2
#     Edge 71, Type (0, 1), BuildingBlock: XIVTED_clean_linker_0, # of connection points: 2
#     Edge 72, Type (0, 1), BuildingBlock: XIVTED_clean_linker_0, # of connection points: 2
#     Edge 73, Type (0, 1), BuildingBlock: XIVTED_clean_linker_0, # of connection points: 2
#     Edge 74, Type (0, 1), BuildingBlock: XIVTED_clean_linker_0, # of connection points: 2
#     Edge 75, Type (0, 1), BuildingBlock: XIVTED_clean_linker_0, # of connection points: 2
# Relax obj value: 0.000
# Max RMSD: 0.005
# Mean RMSD: 0.004
data_MOF--net-ctn--node1-UXUYUI_clean_sbu_0--node2-KAKCAD_clean_linker_0--edge1-XIVTED_clean_linker_0
_symmetry_space_group_name_H-M    P1
_symmetry_Int_Tables_number       1
_symmetry_cell_setting            triclinic
loop_
_symmetry_equiv_pos_as_xyz
'x, y, z'
_cell_length_a     81.410083
_cell_length_b     81.333276
_cell_length_c     81.23631
_cell_angle_alpha  90.100227
_cell_angle_beta   90.318945
_cell_angle_gamma 90.236824
loop_
_atom_site_label
_atom_site_type_symbol
_atom_site_fract_x
_atom_site_fract_y
_atom_site_fract_z
_atom_type_partial_charge
C0 C 0.02914 0.07655 0.98763 0.0
C1 C 0.02672 0.09233 0.99425 0.0
C2 C 0.03166 0.06308 0.998 0.0
C3 C 0.03156 0.06508 0.01518 0.0
C4 C 0.02899 0.08083 0.0218 0.0
C5 C 0.0267 0.09434 0.01144 0.0
C6 C 0.03421 0.05082 0.02621 0.0
C7 C 0.04736 0.04005 0.02351 0.0
C8 C 0.05019 0.02669 0.0341 0.0
C9 C 0.03953 0.02417 0.04745 0.0
C10 C 0.02627 0.03481 0.05034 0.0
C11 C 0.02373 0.04811 0.0396 0.0
C12 C 0.01516 0.03213 0.06461 0.0
C13 C 0.01056 0.01613 0.06939 0.0
C14 C 0.00911 0.04556 0.07365 0.0
C15 C 0.99868 0.04307 0.08703 0.0
C16 C 0.9942 0.0271 0.09182 0.0
C17 C 0.06442 0.01557 0.0314 0.0
C18 C 0.06907 0.01096 0.01539 0.0
C19 C 0.07355 0.00953 0.04484 0.0
C20 C 0.0869 0.9991 0.04233 0.0
C21 C 0.09156 0.99457 0.02634 0.0
C22 C 0.08254 0.00065 0.01289 0.0
C23 C 1.00027 0.01365 0.08289 0.0
H24 H 0.02932 0.07468 0.97443 0.0
H25 H 0.03353 0.05105 0.99259 0.0
H26 H 0.02897 0.08273 0.035 0.0
H27 H 0.02475 0.10634 0.01687 0.0
H28 H 0.0557 0.04242 0.01343 0.0
H29 H 0.01337 0.05622 0.04143 0.0
H30 H 0.04162 0.01392 0.05569 0.0
H31 H 0.01473 0.00551 0.06256 0.0
H32 H 0.01261 0.05803 0.07055 0.0
H33 H 0.99435 0.05366 0.09382 0.0
H34 H 0.06219 0.01516 0.00477 0.0
H35 H 0.07056 0.01307 0.05732 0.0
H36 H 0.99685 0.0012 0.08618 0.0
H37 H 0.08573 0.99721 1.00042 0.0
H38 H 0.09377 0.9948 0.05293 0.0
C39 C 0.33019 0.7406 0.25456 0.0
C40 C 0.34172 0.72803 0.25709 0.0
C41 C 0.31651 0.73794 0.2444 0.0
C42 C 0.31395 0.72257 0.23687 0.0
C43 C 0.32539 0.70996 0.23953 0.0
C44 C 0.33923 0.71272 0.24943 0.0
C45 C 0.29941 0.71969 0.2262 0.0
C46 C 0.29587 0.73048 0.21321 0.0
C47 C 0.28235 0.72763 0.20274 0.0
C48 C 0.27223 0.71387 0.20561 0.0
C49 C 0.27552 0.70298 0.21864 0.0
C50 C 0.28922 0.706 0.22884 0.0
C51 C 0.26473 0.68843 0.22153 0.0
C52 C 0.24762 0.68952 0.21934 0.0
C53 C 0.27146 0.67329 0.22641 0.0
C54 C 0.26135 0.65962 0.22904 0.0
C55 C 0.24425 0.66066 0.2267 0.0
C56 C 0.27903 0.73877 0.18858 0.0
C57 C 0.2812 0.75587 0.19014 0.0
C58 C 0.27388 0.73236 0.17331 0.0
C59 C 0.271 0.74276 0.15994 0.0
C60 C 0.27334 0.75984 0.16143 0.0
C61 C 0.27842 0.76627 0.17672 0.0
C62 C 0.23753 0.67581 0.22181 0.0
H63 H 0.33189 0.75253 0.26027 0.0
H64 H 0.30781 0.74783 0.24257 0.0
H65 H 0.32372 0.69804 0.23378 0.0
H66 H 0.3479 0.7028 0.25128 0.0
H67 H 0.30401 0.7408 0.21096 0.0
H68 H 0.29182 0.69791 0.23911 0.0
H69 H 0.26179 0.71159 0.19759 0.0
H70 H 0.24195 0.70102 0.21581 0.0
H71 H 0.28459 0.67191 0.22803 0.0
H72 H 0.26698 0.64826 0.23303 0.0
H73 H 0.28498 0.76126 0.20176 0.0
H74 H 0.27228 0.71925 0.17157 0.0
H75 H 0.22446 0.67707 0.21967 0.0
H76 H 0.28052 0.77933 0.1783 0.0
H77 H 0.26687 0.73737 0.14843 0.0
C78 C 0.98937 0.47791 0.0949 0.0
C79 C 0.00642 0.47565 0.09351 0.0
C80 C 0.97903 0.47558 0.0813 0.0
C81 C 0.98549 0.4709 0.06598 0.0
C82 C 0.00254 0.46861 0.06458 0.0
C83 C 0.01288 0.47096 0.07818 0.0
C84 C 0.97449 0.46845 0.0515 0.0
C85 C 0.96159 0.47944 0.04838 0.0
C86 C 0.95097 0.47715 0.03487 0.0
C87 C 0.95365 0.46381 0.02418 0.0
C88 C 0.96654 0.45266 0.02703 0.0
C89 C 0.9768 0.45506 0.04083 0.0
C90 C 0.96918 0.43842 0.01575 0.0
C91 C 0.95577 0.43013 0.00845 0.0
C92 C 0.98518 0.43294 0.01223 0.0
C93 C 0.98767 0.41945 0.00188 0.0
C94 C 0.97425 0.4113 0.99457 0.0
C95 C 0.93695 0.48855 0.03209 0.0
C96 C 0.92792 0.49462 0.04549 0.0
C97 C 0.93234 0.49332 0.01607 0.0
C98 C 0.91898 0.50379 0.01354 0.0
C99 C 0.91004 0.50987 0.02697 0.0
C100 C 0.91468 0.50522 0.04297 0.0
C101 C 0.95829 0.41682 0.99787 0.0
H102 H 0.98401 0.48168 0.10647 0.0
H103 H 0.96594 0.47728 0.08283 0.0
H104 H 0.00792 0.46516 0.05292 0.0
H105 H 0.02593 0.46894 0.07672 0.0
H106 H 0.96 0.49 0.05636 0.0
H107 H 0.98638 0.44626 0.04354 0.0
H108 H 0.9456 0.46205 0.01367 0.0
H109 H 0.94327 0.43372 0.0111 0.0
H110 H 0.99583 0.43918 0.01732 0.0
H111 H 1.00011 0.41552 0.99937 0.0
H112 H 0.93088 0.49097 0.05797 0.0
H113 H 0.93916 0.48913 0.00547 0.0
H114 H 0.94774 0.41062 0.99252 0.0
H115 H 0.90787 0.50952 0.05354 0.0
H116 H 0.91579 0.50733 0.00109 0.0
C117 C 0.70858 0.74976 0.16578 0.0
C118 C 0.72449 0.74458 0.16161 0.0
C119 C 0.70605 0.75994 0.1794 0.0
C120 C 0.71938 0.76523 0.18915 0.0
C121 C 0.73529 0.76011 0.18499 0.0
C122 C 0.73781 0.74987 0.1714 0.0
C123 C 0.71669 0.77609 0.20361 0.0
C124 C 0.7037 0.77297 0.21449 0.0
C125 C 0.70099 0.7832 0.22816 0.0
C126 C 0.71161 0.79661 0.23095 0.0
C127 C 0.72465 0.80002 0.22016 0.0
C128 C 0.72704 0.78967 0.2065 0.0
C129 C 0.7356 0.81452 0.22299 0.0
C130 C 0.72928 0.82934 0.22923 0.0
C131 C 0.75246 0.81373 0.21937 0.0
C132 C 0.76266 0.8274 0.22175 0.0
C133 C 0.75635 0.84221 0.22804 0.0
C134 C 0.68691 0.78005 0.23936 0.0
C135 C 0.67153 0.77524 0.23296 0.0
C136 C 0.68864 0.78208 0.25648 0.0
C137 C 0.67526 0.77956 0.26692 0.0
C138 C 0.65988 0.77484 0.26049 0.0
C139 C 0.6582 0.77262 0.2434 0.0
C140 C 0.73953 0.84293 0.23184 0.0
H141 H 0.69807 0.74617 0.15836 0.0
H142 H 0.69367 0.76387 0.18216 0.0
H143 H 0.74578 0.76381 0.19239 0.0
H144 H 0.7502 0.74591 0.16873 0.0
H145 H 0.69587 0.76234 0.21248 0.0
H146 H 0.73669 0.79241 0.19778 0.0
H147 H 0.70963 0.80448 0.24151 0.0
H148 H 0.71634 0.83056 0.23194 0.0
H149 H 0.75786 0.80249 0.21477 0.0
H150 H 0.77548 0.82637 0.21843 0.0
H151 H 0.66969 0.77382 0.21982 0.0
H152 H 0.70036 0.7855 0.26186 0.0
H153 H 0.73421 0.85399 0.23695 0.0
H154 H 0.64645 0.76921 0.23805 0.0
H155 H 0.67701 0.78113 0.28005 0.0
C156 C 0.98712 0.97179 0.4267 0.0
C157 C 0.99358 0.97649 0.41139 0.0
C158 C 0.99747 0.96946 0.44028 0.0
C159 C 0.01453 0.97178 0.43887 0.0
C160 C 0.02099 0.97652 0.42358 0.0
C161 C 0.01064 0.97885 0.41 0.0
C162 C 0.02555 0.96923 0.4533 0.0
C163 C 0.02308 0.95583 0.46392 0.0
C164 C 0.03336 0.95333 0.47766 0.0
C165 C 0.04632 0.96447 0.48062 0.0
C166 C 0.04919 0.97775 0.46996 0.0
C167 C 0.03868 0.98009 0.45641 0.0
C168 C 0.06342 0.98893 0.47275 0.0
C169 C 0.0673 0.99468 0.48864 0.0
C170 C 0.07343 0.99367 0.45953 0.0
C171 C 0.08711 0.00378 0.46214 0.0
C172 C 0.09107 0.00946 0.47804 0.0
C173 C 0.03079 0.9389 0.48868 0.0
C174 C 0.01486 0.93326 0.49229 0.0
C175 C 0.04426 0.93052 0.49555 0.0
C176 C 0.04187 0.91695 0.50579 0.0
C177 C 0.02594 0.91118 0.50925 0.0
C178 C 0.01247 0.91953 0.50234 0.0
C179 C 0.08095 0.00487 0.49125 0.0
H180 H 0.97406 0.9697 0.42816 0.0
H181 H 0.99208 0.96597 0.45193 0.0
H182 H 0.03409 0.97826 0.42203 0.0
H183 H 0.01602 0.98265 0.39845 0.0
H184 H 0.01339 0.94707 0.46117 0.0
H185 H 0.04057 0.99058 0.44842 0.0
H186 H 0.05434 0.96274 0.49116 0.0
H187 H 0.05974 0.99135 0.49905 0.0
H188 H 0.07085 0.98932 0.44716 0.0
H189 H 0.09455 0.00725 0.45168 0.0
H190 H 0.00416 0.9395 0.48743 0.0
H191 H 0.05673 0.9343 0.49288 0.0
H192 H 0.08374 0.00893 0.50366 0.0
H193 H 1.00001 0.91538 0.50449 0.0
H194 H 0.05257 0.91106 0.51106 0.0
C195 C 0.16601 0.71133 0.7488 0.0
C196 C 0.16154 0.72739 0.74433 0.0
C197 C 0.17947 0.7086 0.75916 0.0
C198 C 0.18885 0.72187 0.76524 0.0
C199 C 0.18436 0.73794 0.76077 0.0
C200 C 0.17084 0.74067 0.75047 0.0
C201 C 0.20329 0.71893 0.77615 0.0
C202 C 0.21388 0.70568 0.77313 0.0
C203 C 0.22747 0.70272 0.7834 0.0
C204 C 0.23059 0.71333 0.79673 0.0
C205 C 0.22011 0.72662 0.80005 0.0
C206 C 0.20647 0.72928 0.7897 0.0
C207 C 0.22321 0.73753 0.81449 0.0
C208 C 0.2287 0.73098 0.82955 0.0
C209 C 0.22056 0.75457 0.81339 0.0
C210 C 0.22323 0.76477 0.82702 0.0
C211 C 0.2287 0.75822 0.84209 0.0
C212 C 0.23822 0.68832 0.78038 0.0
C213 C 0.23129 0.67286 0.77677 0.0
C214 C 0.2554 0.68985 0.78127 0.0
C215 C 0.26545 0.6762 0.77862 0.0
C216 C 0.2585 0.66071 0.77516 0.0
C217 C 0.24132 0.6592 0.77424 0.0
C218 C 0.23147 0.74119 0.84315 0.0
H219 H 0.15893 0.70085 0.74448 0.0
H220 H 0.18239 0.69608 0.76259 0.0
H221 H 0.19146 0.74843 0.76502 0.0
H222 H 0.16782 0.75318 0.74708 0.0
H223 H 0.21174 0.6978 0.76256 0.0
H224 H 0.19803 0.73915 0.79246 0.0
H225 H 0.24112 0.71112 0.80461 0.0
H226 H 0.23067 0.71789 0.83094 0.0
H227 H 0.21652 0.76007 0.80194 0.0
H228 H 0.22076 0.77778 0.82577 0.0
H229 H 0.21809 0.67127 0.77615 0.0
H230 H 0.2611 0.70164 0.7839 0.0
H231 H 0.2359 0.73572 0.85446 0.0
H232 H 0.23561 0.64747 0.77143 0.0
H233 H 0.27864 0.67772 0.77955 0.0
C234 C 0.97807 0.59281 0.49252 0.0
C235 C 0.97702 0.59095 0.50968 0.0
C236 C 0.97584 0.5793 0.48208 0.0
C237 C 0.97236 0.56367 0.48856 0.0
C238 C 0.97124 0.56181 0.50572 0.0
C239 C 0.97363 0.5753 0.51617 0.0
C240 C 0.96986 0.54936 0.47744 0.0
C241 C 0.98065 0.54661 0.46431 0.0
C242 C 0.97829 0.53327 0.45352 0.0
C243 C 0.96499 0.5225 0.45618 0.0
C244 C 0.95401 0.52505 0.46926 0.0
C245 C 0.95659 0.53857 0.47981 0.0
C246 C 0.9397 0.51382 0.47174 0.0
C247 C 0.93118 0.50708 0.45817 0.0
C248 C 0.93432 0.50986 0.4877 0.0
C249 C 0.92069 0.49962 0.49001 0.0
C250 C 0.91229 0.49289 0.47644 0.0
C251 C 0.98954 0.53077 0.43934 0.0
C252 C 0.99546 0.54431 0.43037 0.0
C253 C 0.99432 0.51488 0.43452 0.0
C254 C 0.00462 0.51259 0.42099 0.0
C255 C 0.01051 0.52614 0.412 0.0
C256 C 0.00586 0.54203 0.41694 0.0
C257 C 0.91772 0.49663 0.4605 0.0
H258 H 0.9808 0.60469 0.48716 0.0
H259 H 0.97664 0.58113 0.4689 0.0
H260 H 0.96868 0.54989 0.51106 0.0
H261 H 0.97261 0.57351 0.52934 0.0
H262 H 0.99109 0.55474 0.46269 0.0
H263 H 0.94797 0.54104 0.48962 0.0
H264 H 0.96313 0.51217 0.44795 0.0
H265 H 0.93469 0.51009 0.4457 0.0
H266 H 0.94073 0.51453 0.49846 0.0
H267 H 0.91686 0.49677 0.50244 0.0
H268 H 0.99189 0.55671 0.43357 0.0
H269 H 0.99018 0.50417 0.44125 0.0
H270 H 0.91132 0.49175 0.44982 0.0
H271 H 0.01032 0.55279 0.4105 0.0
H272 H 0.00776 0.50016 0.41746 0.0
C273 C 0.79099 0.75327 0.84012 0.0
C274 C 0.77567 0.74565 0.84248 0.0
C275 C 0.79373 0.76308 0.82629 0.0
C276 C 0.7811 0.7657 0.81475 0.0
C277 C 0.76574 0.75818 0.81718 0.0
C278 C 0.76309 0.74811 0.83085 0.0
C279 C 0.78392 0.77634 0.80027 0.0
C280 C 0.79751 0.7737 0.79007 0.0
C281 C 0.80032 0.78376 0.77631 0.0
C282 C 0.78935 0.79667 0.77296 0.0
C283 C 0.77575 0.79961 0.78315 0.0
C284 C 0.7731 0.78925 0.79673 0.0
C285 C 0.76455 0.81368 0.77985 0.0
C286 C 0.77082 0.82885 0.77437 0.0
C287 C 0.74753 0.81217 0.78243 0.0
C288 C 0.7371 0.82554 0.77981 0.0
C289 C 0.74342 0.84067 0.77438 0.0
C290 C 0.81473 0.78086 0.7655 0.0
C291 C 0.83006 0.77661 0.77229 0.0
C292 C 0.81329 0.78243 0.74831 0.0
C293 C 0.82689 0.77996 0.73818 0.0
C294 C 0.84221 0.77577 0.74499 0.0
C295 C 0.84363 0.77404 0.76214 0.0
C296 C 0.76037 0.84215 0.77158 0.0
H297 H 0.8009 0.75147 0.84887 0.0
H298 H 0.80565 0.76882 0.82471 0.0
H299 H 0.75584 0.75997 0.8084 0.0
H300 H 0.75115 0.74243 0.83245 0.0
H301 H 0.80568 0.76353 0.79268 0.0
H302 H 0.76289 0.79153 0.80493 0.0
H303 H 0.79148 0.80453 0.76243 0.0
H304 H 0.78388 0.83059 0.77255 0.0
H305 H 0.74221 0.80061 0.78637 0.0
H306 H 0.72405 0.82399 0.78188 0.0
H307 H 0.83168 0.77554 0.78549 0.0
H308 H 0.80161 0.78539 0.74264 0.0
H309 H 0.76561 0.85374 0.7676 0.0
H310 H 0.85533 0.77103 0.76777 0.0
H311 H 0.82534 0.78114 0.72499 0.0
C312 C 0.29172 0.24902 0.33737 0.0
C313 C 0.27562 0.24489 0.34199 0.0
C314 C 0.29455 0.25937 0.32396 0.0
C315 C 0.28135 0.26574 0.31477 0.0
C316 C 0.26523 0.26158 0.3194 0.0
C317 C 0.2624 0.25131 0.33289 0.0
C318 C 0.28444 0.2768 0.30052 0.0
C319 C 0.29766 0.27381 0.28986 0.0
C320 C 0.30112 0.28449 0.27674 0.0
C321 C 0.29098 0.29821 0.27419 0.0
C322 C 0.27757 0.30129 0.28454 0.0
C323 C 0.27442 0.29055 0.29768 0.0
C324 C 0.26698 0.31587 0.28176 0.0
C325 C 0.27398 0.33129 0.27827 0.0
C326 C 0.24979 0.31445 0.28258 0.0
C327 C 0.23982 0.32815 0.27992 0.0
C328 C 0.24682 0.34359 0.27648 0.0
C329 C 0.31545 0.28145 0.26587 0.0
C330 C 0.33046 0.27603 0.27253 0.0
C331 C 0.31433 0.28412 0.2488 0.0
C332 C 0.32791 0.28155 0.23867 0.0
C333 C 0.34294 0.2762 0.24535 0.0
C334 C 0.34401 0.2734 0.2624 0.0
C335 C 0.26401 0.34501 0.27571 0.0
H336 H 0.30216 0.24448 0.3443 0.0
H337 H 0.30711 0.26256 0.32097 0.0
H338 H 0.25478 0.26608 0.31246 0.0
H339 H 0.24986 0.24819 0.33604 0.0
H340 H 0.30514 0.26296 0.29164 0.0
H341 H 0.26443 0.29321 0.30602 0.0
H342 H 0.29356 0.30657 0.26415 0.0
H343 H 0.28719 0.3328 0.27771 0.0
H344 H 0.24404 0.3027 0.28513 0.0
H345 H 0.22662 0.32669 0.28075 0.0
H346 H 0.33182 0.27403 0.28565 0.0
H347 H 0.30291 0.28811 0.24323 0.0
H348 H 0.26977 0.3567 0.27294 0.0
H349 H 0.35531 0.26907 0.26795 0.0
H350 H 0.32667 0.284 0.22563 0.0
C351 C 0.49083 0.97754 0.59281 0.0
C352 C 0.50801 0.97794 0.59089 0.0
C353 C 0.48047 0.97528 0.57923 0.0
C354 C 0.48701 0.97314 0.56342 0.0
C355 C 0.50412 0.97341 0.56143 0.0
C356 C 0.51451 0.9759 0.57499 0.0
C357 C 0.47593 0.97049 0.54911 0.0
C358 C 0.46234 0.98078 0.54663 0.0
C359 C 0.45135 0.97805 0.53348 0.0
C360 C 0.45414 0.9647 0.52281 0.0
C361 C 0.46777 0.95436 0.52504 0.0
C362 C 0.47867 0.95743 0.53816 0.0
C363 C 0.47039 0.9401 0.51391 0.0
C364 C 0.45719 0.92982 0.50942 0.0
C365 C 0.48613 0.93654 0.50788 0.0
C366 C 0.48862 0.92297 0.4976 0.0
C367 C 0.47543 0.91261 0.49322 0.0
C368 C 0.437 0.98909 0.53093 0.0
C369 C 0.42836 0.99547 0.54446 0.0
C370 C 0.43186 0.99345 0.51495 0.0
C371 C 0.41842 0.00385 0.51259 0.0
C372 C 0.40994 0.0103 0.52613 0.0
C373 C 0.41506 0.00603 0.54209 0.0
C374 C 0.45968 0.91621 0.49922 0.0
H375 H 0.48534 0.9787 0.60486 0.0
H376 H 0.46731 0.9749 0.58113 0.0
H377 H 0.50946 0.97193 0.54933 0.0
H378 H 0.52763 0.97642 0.57293 0.0
H379 H 0.46055 0.99113 0.55483 0.0
H380 H 0.48898 0.94928 0.54024 0.0
H381 H 0.44566 0.9623 0.51276 0.0
H382 H 0.44494 0.93214 0.51399 0.0
H383 H 0.49653 0.94431 0.51103 0.0
H384 H 0.50092 0.92045 0.49329 0.0
H385 H 0.43173 0.99216 0.55693 0.0
H386 H 0.43836 0.98904 0.50424 0.0
H387 H 0.44924 0.90856 0.49595 0.0
H388 H 0.4086 0.01065 0.55275 0.0
H389 H 0.41484 0.00709 0.50015 0.0
C390 C 0.21058 0.25132 0.66436 0.0
C391 C 0.2263 0.2451 0.66106 0.0
C392 C 0.20794 0.2613 0.67811 0.0
C393 C 0.22101 0.26542 0.68872 0.0
C394 C 0.23675 0.25923 0.68541 0.0
C395 C 0.23934 0.24908 0.67177 0.0
C396 C 0.21826 0.27631 0.7031 0.0
C397 C 0.20492 0.27352 0.71363 0.0
C398 C 0.20201 0.28394 0.72713 0.0
C399 C 0.21273 0.29727 0.72998 0.0
C400 C 0.22616 0.30028 0.71956 0.0
C401 C 0.22883 0.28966 0.70617 0.0
C402 C 0.23721 0.31465 0.72247 0.0
C403 C 0.23079 0.32985 0.72757 0.0
C404 C 0.25424 0.31335 0.72002 0.0
C405 C 0.26457 0.32692 0.72249 0.0
C406 C 0.25814 0.34212 0.72758 0.0
C407 C 0.18773 0.28099 0.73815 0.0
C408 C 0.17253 0.27572 0.73165 0.0
C409 C 0.18912 0.28355 0.75524 0.0
C410 C 0.17562 0.2811 0.76552 0.0
C411 C 0.16046 0.27587 0.75898 0.0
C412 C 0.15908 0.27311 0.74196 0.0
C413 C 0.24112 0.34338 0.73016 0.0
H414 H 0.20028 0.24834 0.65638 0.0
H415 H 0.19571 0.266 0.68031 0.0
H416 H 0.24702 0.26215 0.69345 0.0
H417 H 0.2516 0.24453 0.66946 0.0
H418 H 0.19699 0.263 0.71145 0.0
H419 H 0.23885 0.29207 0.69777 0.0
H420 H 0.21056 0.30541 0.7403 0.0
H421 H 0.21771 0.33139 0.72937 0.0
H422 H 0.25965 0.3018 0.71628 0.0
H423 H 0.27757 0.32552 0.72019 0.0
H424 H 0.17091 0.27389 0.71853 0.0
H425 H 0.20069 0.2873 0.76074 0.0
H426 H 0.23574 0.3548 0.73429 0.0
H427 H 0.14749 0.26927 0.73655 0.0
H428 H 0.17709 0.28311 0.77863 0.0
C429 C 0.8304 0.2398 0.75489 0.0
C430 C 0.84089 0.22666 0.75892 0.0
C431 C 0.81696 0.23738 0.74434 0.0
C432 C 0.81359 0.22175 0.73776 0.0
C433 C 0.82402 0.20862 0.74175 0.0
C434 C 0.83756 0.21106 0.75212 0.0
C435 C 0.79923 0.21906 0.72676 0.0
C436 C 0.79628 0.22965 0.71345 0.0
C437 C 0.78291 0.22695 0.70273 0.0
C438 C 0.77242 0.21347 0.70559 0.0
C439 C 0.77516 0.20273 0.71888 0.0
C440 C 0.78861 0.20571 0.72942 0.0
C441 C 0.76412 0.18835 0.72169 0.0
C442 C 0.7471 0.1895 0.71883 0.0
C443 C 0.77054 0.17329 0.72721 0.0
C444 C 0.76023 0.15979 0.72988 0.0
C445 C 0.74323 0.16089 0.72689 0.0
C446 C 0.78008 0.23804 0.68841 0.0
C447 C 0.78279 0.25507 0.6898 0.0
C448 C 0.77476 0.23165 0.67317 0.0
C449 C 0.77218 0.24202 0.65972 0.0
C450 C 0.77501 0.25905 0.66106 0.0
C451 C 0.78036 0.26543 0.67629 0.0
C452 C 0.73682 0.17593 0.7213 0.0
H453 H 0.83237 0.25192 0.76008 0.0
H454 H 0.80902 0.24767 0.74157 0.0
H455 H 0.82183 0.19649 0.73665 0.0
H456 H 0.84552 0.20073 0.75461 0.0
H457 H 0.80475 0.23969 0.71117 0.0
H458 H 0.79069 0.19781 0.73995 0.0
H459 H 0.76213 0.21126 0.69736 0.0
H460 H 0.74166 0.20094 0.71479 0.0
H461 H 0.78359 0.17183 0.72933 0.0
H462 H 0.76563 0.14853 0.73443 0.0
H463 H 0.7867 0.26047 0.70138 0.0
H464 H 0.77276 0.21858 0.67154 0.0
H465 H 0.72384 0.17723 0.71864 0.0
H466 H 0.78288 0.27843 0.67778 0.0
H467 H 0.76784 0.23666 0.64828 0.0
C468 C 0.53104 0.57731 0.48912 0.0
C469 C 0.52795 0.59289 0.49591 0.0
C470 C 0.53358 0.56372 0.49933 0.0
C471 C 0.5329 0.5654 0.51654 0.0
C472 C 0.52975 0.58097 0.52332 0.0
C473 C 0.52738 0.59459 0.51312 0.0
C474 C 0.53541 0.55095 0.52739 0.0
C475 C 0.54847 0.54008 0.52457 0.0
C476 C 0.551 0.52638 0.53482 0.0
C477 C 0.54014 0.52366 0.54798 0.0
C478 C 0.52711 0.5345 0.55108 0.0
C479 C 0.52483 0.54809 0.54067 0.0
C480 C 0.51603 0.53179 0.56534 0.0
C481 C 0.51054 0.51589 0.56939 0.0
C482 C 0.511 0.54511 0.57512 0.0
C483 C 0.50075 0.5426 0.58863 0.0
C484 C 0.4953 0.52671 0.59272 0.0
C485 C 0.56515 0.51515 0.53202 0.0
C486 C 0.57032 0.51131 0.51596 0.0
C487 C 0.57374 0.50827 0.54542 0.0
C488 C 0.58701 0.49777 0.54282 0.0
C489 C 0.5922 0.49409 0.52679 0.0
C490 C 0.58377 0.501 0.51338 0.0
C491 C 0.50031 0.51338 0.58294 0.0
H492 H 0.53168 0.57566 0.47591 0.0
H493 H 0.53587 0.55184 0.49376 0.0
H494 H 0.52928 0.58266 0.53654 0.0
H495 H 0.52489 0.60641 0.51871 0.0
H496 H 0.55695 0.54263 0.51466 0.0
H497 H 0.51459 0.5563 0.54271 0.0
H498 H 0.54189 0.51314 0.55594 0.0
H499 H 0.51398 0.50539 0.56197 0.0
H500 H 0.51522 0.55747 0.57252 0.0
H501 H 0.49732 0.5531 0.59606 0.0
H502 H 0.56387 0.51613 0.50533 0.0
H503 H 0.5704 0.51119 0.55797 0.0
H504 H 0.49614 0.50101 0.58562 0.0
H505 H 0.58742 0.49822 0.50088 0.0
H506 H 0.59345 0.49277 0.55338 0.0
C507 C 0.48728 0.47337 0.92683 0.0
C508 C 0.4939 0.47597 0.91107 0.0
C509 C 0.49757 0.47097 0.94044 0.0
C510 C 0.51471 0.4713 0.93865 0.0
C511 C 0.52137 0.47387 0.92296 0.0
C512 C 0.5111 0.47608 0.90931 0.0
C513 C 0.52564 0.46912 0.95315 0.0
C514 C 0.52287 0.45624 0.9643 0.0
C515 C 0.53316 0.45405 0.97809 0.0
C516 C 0.54624 0.46516 0.98068 0.0
C517 C 0.54931 0.47797 0.96951 0.0
C518 C 0.53894 0.47985 0.95579 0.0
C519 C 0.56357 0.48918 0.97198 0.0
C520 C 0.56727 0.49565 0.98763 0.0
C521 C 0.57374 0.49332 0.95867 0.0
C522 C 0.58737 0.50357 0.96098 0.0
C523 C 0.59112 0.50998 0.97664 0.0
C524 C 0.53058 0.4399 0.98946 0.0
C525 C 0.51464 0.43433 0.9932 0.0
C526 C 0.54406 0.43161 0.99642 0.0
C527 C 0.54168 0.41814 0.0068 0.0
C528 C 0.52577 0.41238 0.01033 0.0
C529 C 0.51228 0.4207 0.0034 0.0
C530 C 0.58087 0.50599 0.98993 0.0
H531 H 0.47413 0.47348 0.92875 0.0
H532 H 0.49212 0.46919 0.95245 0.0
H533 H 0.53455 0.47396 0.9212 0.0
H534 H 0.51667 0.47769 0.89735 0.0
H535 H 0.51297 0.4476 0.96187 0.0
H536 H 0.54102 0.4899 0.9473 0.0
H537 H 0.55422 0.46373 0.99129 0.0
H538 H 0.55959 0.4928 0.9981 0.0
H539 H 0.5713 0.48841 0.94649 0.0
H540 H 0.59492 0.50656 0.95046 0.0
H541 H 0.50394 0.44051 0.98828 0.0
H542 H 0.55652 0.43532 0.99367 0.0
H543 H 0.5835 0.51063 0.00217 0.0
H544 H 0.49983 0.41656 0.00562 0.0
H545 H 0.5524 0.41229 0.0121 0.0
C546 C 0.66784 0.21019 0.24698 0.0
C547 C 0.66273 0.22617 0.24284 0.0
C548 C 0.68134 0.20776 0.25737 0.0
C549 C 0.69015 0.22123 0.26384 0.0
C550 C 0.6851 0.23721 0.25963 0.0
C551 C 0.67155 0.23964 0.24928 0.0
C552 C 0.70447 0.21862 0.275 0.0
C553 C 0.71563 0.20585 0.27197 0.0
C554 C 0.72902 0.20308 0.28259 0.0
C555 C 0.73136 0.21352 0.29622 0.0
C556 C 0.72038 0.22642 0.29946 0.0
C557 C 0.70692 0.22879 0.28881 0.0
C558 C 0.72286 0.23733 0.31404 0.0
C559 C 0.72854 0.23092 0.3291 0.0
C560 C 0.71954 0.25427 0.31301 0.0
C561 C 0.72173 0.2645 0.3267 0.0
C562 C 0.72747 0.25807 0.34169 0.0
C563 C 0.74039 0.1891 0.27959 0.0
C564 C 0.73423 0.17376 0.27437 0.0
C565 C 0.7574 0.19087 0.28217 0.0
C566 C 0.76797 0.17758 0.27975 0.0
C567 C 0.76178 0.16224 0.2746 0.0
C568 C 0.7448 0.16051 0.27186 0.0
C569 C 0.7309 0.24119 0.34274 0.0
H570 H 0.66148 0.19952 0.24209 0.0
H571 H 0.68476 0.19529 0.2605 0.0
H572 H 0.6917 0.24787 0.26424 0.0
H573 H 0.66787 0.25212 0.24652 0.0
H574 H 0.71406 0.19821 0.26113 0.0
H575 H 0.69805 0.23829 0.29154 0.0
H576 H 0.74171 0.21152 0.3044 0.0
H577 H 0.73093 0.21791 0.33047 0.0
H578 H 0.71543 0.2597 0.30155 0.0
H579 H 0.71918 0.2775 0.32548 0.0
H580 H 0.72117 0.17187 0.27253 0.0
H581 H 0.7626 0.20258 0.28593 0.0
H582 H 0.73514 0.23586 0.3542 0.0
H583 H 0.73962 0.14879 0.26812 0.0
H584 H 0.78102 0.17937 0.28174 0.0
C585 C 0.47762 0.09335 0.99188 0.0
C586 C 0.4769 0.09164 0.00908 0.0
C587 C 0.47541 0.07971 0.98161 0.0
C588 C 0.47227 0.0641 0.9883 0.0
C589 C 0.47152 0.06237 0.00549 0.0
C590 C 0.4739 0.07599 0.01578 0.0
C591 C 0.46957 0.04972 0.97732 0.0
C592 C 0.48 0.04697 0.9639 0.0
C593 C 0.47724 0.03375 0.95303 0.0
C594 C 0.46386 0.02315 0.9559 0.0
C595 C 0.45334 0.02562 0.96936 0.0
C596 C 0.45634 0.03895 0.98001 0.0
C597 C 0.43903 0.01452 0.9721 0.0
C598 C 0.42953 0.00881 0.95874 0.0
C599 C 0.43467 0.00965 0.9881 0.0
C600 C 0.42108 0.99943 0.99068 0.0
C601 C 0.41155 0.99376 0.97733 0.0
C602 C 0.48816 0.03118 0.93859 0.0
C603 C 0.49448 0.04469 0.92983 0.0
C604 C 0.49228 0.01524 0.93333 0.0
C605 C 0.50231 0.01287 0.91962 0.0
C606 C 0.50865 0.02639 0.91089 0.0
C607 C 0.50466 0.04233 0.91625 0.0
C608 C 0.41599 0.99853 0.96132 0.0
H609 H 0.48005 0.10522 0.98637 0.0
H610 H 0.47591 0.08143 0.9684 0.0
H611 H 0.46921 0.05046 0.01098 0.0
H612 H 0.47316 0.07432 0.02898 0.0
H613 H 0.49046 0.05504 0.9621 0.0
H614 H 0.44803 0.04131 0.99011 0.0
H615 H 0.46154 0.01298 0.94758 0.0
H616 H 0.43239 0.01246 0.94627 0.0
H617 H 0.44182 0.01367 0.99866 0.0
H618 H 0.41793 0.99617 0.00319 0.0
H619 H 0.49142 0.05715 0.93333 0.0
H620 H 0.48786 0.00452 0.93987 0.0
H621 H 0.40908 0.99423 0.95072 0.0
H622 H 0.50949 0.05306 0.91004 0.0
H623 H 0.50491 1.00041 0.91576 0.0
Li624 Li 0.26654 0.88719 0.00058 0.0
Li625 Li 0.25236 0.86696 0.01626 0.0
Li626 Li 0.24923 0.86571 0.98734 0.0
Li627 Li 0.23523 0.88762 0.00456 0.0
C628 C 0.28269 0.85979 0.98937 0.0
N629 N 0.30814 0.85383 0.96779 0.0
C630 C 0.2957 0.84961 0.99401 0.0
C631 C 0.28266 0.86694 0.97374 0.0
C632 C 0.30845 0.84675 0.98294 0.0
C633 C 0.29561 0.86377 0.963 0.0
C634 C 0.25724 0.89232 0.0368 0.0
C635 C 0.24984 0.89869 0.06478 0.0
N636 N 0.26517 0.89433 0.06983 0.0
C637 C 0.27297 0.88805 0.04222 0.0
C638 C 0.24559 0.89779 0.04811 0.0
C639 C 0.27672 0.88909 0.059 0.0
C640 C 0.28289 0.91668 0.9927 0.0
N641 N 0.2852 0.90112 0.99829 0.0
C642 C 0.31418 0.90558 1.00021 0.0
C643 C 0.30041 0.89551 0.00226 0.0
C644 C 0.31226 0.92166 0.99419 0.0
C645 C 0.29631 0.9272 0.99053 0.0
H646 H 0.27061 0.9209 0.98991 0.0
H647 H 0.30189 0.88318 0.00696 0.0
C648 C 0.26623 0.84175 0.03556 0.0
N649 N 0.25442 0.8535 0.03559 0.0
C650 C 0.26827 0.83143 0.04911 0.0
C651 C 0.24585 0.84537 0.0625 0.0
C652 C 0.2443 0.85547 0.04871 0.0
C653 C 0.25797 0.83311 0.06284 0.0
H654 H 0.27404 0.84036 0.02496 0.0
H655 H 0.23488 0.86478 0.0484 0.0
C656 C 0.24426 0.89766 0.96976 0.0
N657 N 0.23515 0.91329 0.94095 0.0
C658 C 0.22765 0.89944 0.96571 0.0
C659 C 0.25623 0.90398 0.9592 0.0
C660 C 0.22329 0.90733 0.95108 0.0
C661 C 0.25138 0.9118 0.94468 0.0
C662 C 0.22463 0.85092 0.01227 0.0
C663 C 0.23027 0.8349 0.00982 0.0
C664 C 0.21227 0.85386 0.02376 0.0
C665 C 0.22354 0.82208 0.01903 0.0
C666 C 0.20582 0.8407 0.03271 0.0
N667 N 0.21156 0.82522 0.0302 0.0
C668 C 0.25424 0.8369 0.96854 0.0
C669 C 0.23766 0.85672 0.95518 0.0
C670 C 0.25283 0.8263 0.95506 0.0
N671 N 0.24677 0.85183 0.96835 0.0
C672 C 0.23602 0.84658 0.94138 0.0
C673 C 0.24366 0.83113 0.94121 0.0
H674 H 0.26134 0.83321 0.97919 0.0
H675 H 0.23152 0.86842 0.95538 0.0
C676 C 0.21914 0.91778 0.00971 0.0
N677 N 0.21672 0.90154 0.00653 0.0
C678 C 0.20572 0.92831 0.01133 0.0
C679 C 0.18761 0.90515 0.00639 0.0
C680 C 0.20138 0.89512 0.00472 0.0
C681 C 0.1897 0.92198 0.00978 0.0
H682 H 0.23152 0.92252 0.01104 0.0
H683 H 0.19984 0.88221 0.00188 0.0
O684 O 0.27022 0.86283 1.00022 0.0
O685 O 0.25326 0.89121 0.02048 0.0
O686 O 0.24876 0.8902 0.98419 0.0
O687 O 0.23129 0.86366 0.00355 0.0
H688 H 0.29605 0.84405 0.00609 0.0
H689 H 0.27271 0.87473 0.96986 0.0
H690 H 0.3186 0.83892 0.9864 0.0
H691 H 0.29569 0.86921 0.95086 0.0
H692 H 0.24093 0.90281 0.0737 0.0
H693 H 0.28209 0.88379 0.03359 0.0
H694 H 0.23337 0.90118 0.04405 0.0
H695 H 0.2888 0.88571 0.0634 0.0
H696 H 0.32621 0.90069 0.00307 0.0
H697 H 0.29417 0.93959 0.98618 0.0
H698 H 0.27794 0.82233 0.04887 0.0
H699 H 0.23745 0.84698 0.07266 0.0
H700 H 0.21821 0.89453 0.97363 0.0
H701 H 0.26915 0.90291 0.96218 0.0
H702 H 0.21048 0.90869 0.94775 0.0
H703 H 0.26052 0.9167 0.93639 0.0
H704 H 0.2399 0.83243 0.00106 0.0
H705 H 0.2079 0.8662 0.02599 0.0
H706 H 0.22787 0.80964 0.01735 0.0
H707 H 0.19633 0.84281 0.04173 0.0
H708 H 0.259 0.81453 0.95539 0.0
H709 H 0.22861 0.85066 0.93107 0.0
H710 H 0.20785 0.94118 0.01406 0.0
H711 H 0.17547 0.89985 0.00486 0.0
Li712 Li 0.11647 0.50247 0.26716 0.0
Li713 Li 0.13757 0.48577 0.25287 0.0
Li714 Li 0.13716 0.51594 0.24937 0.0
Li715 Li 0.11586 0.49762 0.23709 0.0
C716 C 0.14605 0.50778 0.28488 0.0
N717 N 0.15621 0.51693 0.31608 0.0
C718 C 0.15347 0.4963 0.29527 0.0
C719 C 0.1439 0.52394 0.29029 0.0
C720 C 0.15849 0.50116 0.31103 0.0
C721 C 0.14909 0.52832 0.30612 0.0
C722 C 0.10063 0.47228 0.24983 0.0
C723 C 0.08853 0.45275 0.2309 0.0
N724 N 0.07362 0.45525 0.23792 0.0
C725 C 0.08521 0.47459 0.25692 0.0
C726 C 0.10235 0.4612 0.23678 0.0
C727 C 0.0717 0.46588 0.25071 0.0
C728 C 0.08908 0.51344 0.28491 0.0
N729 N 0.10348 0.50518 0.28641 0.0
C730 C 0.09871 0.5008 0.31508 0.0
C731 C 0.10833 0.49871 0.30105 0.0
C732 C 0.08378 0.50939 0.31398 0.0
C733 C 0.07899 0.51566 0.29857 0.0
H734 H 0.08531 0.51812 0.27303 0.0
H735 H 0.11964 0.49186 0.30185 0.0
C736 C 0.1682 0.4702 0.25772 0.0
N737 N 0.15184 0.46749 0.25562 0.0
C738 C 0.17894 0.45697 0.2595 0.0
C739 C 0.15573 0.43846 0.25732 0.0
C740 C 0.14546 0.45204 0.25549 0.0
C741 C 0.17275 0.4408 0.2593 0.0
H742 H 0.1729 0.48266 0.2579 0.0
H743 H 0.13237 0.45025 0.25406 0.0
C744 C 0.10733 0.53408 0.24776 0.0
N745 N 0.09645 0.56602 0.24429 0.0
C746 C 0.1013 0.53953 0.23258 0.0
C747 C 0.10768 0.54482 0.2612 0.0
C748 C 0.0959 0.55574 0.23107 0.0
C749 C 0.10217 0.56094 0.25919 0.0
C750 C 0.15269 0.49119 0.225 0.0
C751 C 0.16811 0.4988 0.22516 0.0
C752 C 0.15089 0.47557 0.21798 0.0
C753 C 0.18154 0.49057 0.21844 0.0
C754 C 0.16462 0.46773 0.21142 0.0
N755 N 0.17953 0.47532 0.21179 0.0
C756 C 0.16483 0.5361 0.25518 0.0
C757 C 0.14567 0.54736 0.2363 0.0
C758 C 0.17509 0.54978 0.25345 0.0
N759 N 0.15038 0.53519 0.24674 0.0
C760 C 0.15544 0.56137 0.23437 0.0
C761 C 0.17039 0.56268 0.24299 0.0
H762 H 0.16848 0.5261 0.26312 0.0
H763 H 0.13444 0.54613 0.22928 0.0
C764 C 0.08515 0.49801 0.22064 0.0
N765 N 0.10147 0.49516 0.2187 0.0
C766 C 0.07434 0.49603 0.20737 0.0
C767 C 0.09738 0.48852 0.19032 0.0
C768 C 0.10773 0.4906 0.20393 0.0
C769 C 0.08042 0.49122 0.19194 0.0
H770 H 0.08056 0.50182 0.23251 0.0
H771 H 0.12076 0.48855 0.2027 0.0
O772 O 0.14103 0.5032 0.26945 0.0
O773 O 0.11395 0.48095 0.25551 0.0
O774 O 0.1126 0.51823 0.24947 0.0
O775 O 0.13946 0.49893 0.23179 0.0
H776 H 0.15525 0.48374 0.29124 0.0
H777 H 0.13838 0.53302 0.28231 0.0
H778 H 0.1642 0.49239 0.31923 0.0
H779 H 0.14749 0.54079 0.31048 0.0
H780 H 0.08965 0.44425 0.22072 0.0
H781 H 0.08367 0.48307 0.26705 0.0
H782 H 0.11417 0.45931 0.2311 0.0
H783 H 0.05968 0.4676 0.25604 0.0
H784 H 0.10303 0.49585 0.32668 0.0
H785 H 0.06743 0.52201 0.29696 0.0
H786 H 0.19197 0.4594 0.26083 0.0
H787 H 0.15034 0.42626 0.25741 0.0
H788 H 0.10093 0.53136 0.22206 0.0
H789 H 0.11206 0.54073 0.27309 0.0
H790 H 0.09128 0.56015 0.21938 0.0
H791 H 0.10239 0.56939 0.26949 0.0
H792 H 0.16973 0.51089 0.23048 0.0
H793 H 0.13906 0.46946 0.21782 0.0
H794 H 0.19356 0.49628 0.21854 0.0
H795 H 0.16342 0.45559 0.20608 0.0
H796 H 0.18653 0.55033 0.26031 0.0
H797 H 0.15153 0.57091 0.22595 0.0
H798 H 0.0614 0.49847 0.20912 0.0
H799 H 0.10258 0.48464 0.17871 0.0
Li800 Li 0.73624 0.61708 0.99859 0.0
Li801 Li 0.74846 0.63763 0.01692 0.0
Li802 Li 0.75295 0.63813 0.98607 0.0
Li803 Li 0.76661 0.6173 0.00333 0.0
C804 C 0.7157 0.64171 0.99723 0.0
N805 N 0.68188 0.6415 0.99432 0.0
C806 C 0.70593 0.64364 0.01119 0.0
C807 C 0.70829 0.63986 0.98178 0.0
C808 C 0.68885 0.64347 0.00946 0.0
C809 C 0.69117 0.63972 0.98057 0.0
C810 C 0.75246 0.60781 0.03486 0.0
C811 C 0.77161 0.60575 0.05751 0.0
N812 N 0.76043 0.59671 0.06601 0.0
C813 C 0.74121 0.59837 0.04375 0.0
C814 C 0.76782 0.61144 0.04173 0.0
C815 C 0.74545 0.59293 0.05951 0.0
C816 C 0.71495 0.59506 0.98156 0.0
N817 N 0.7174 0.6033 0.99594 0.0
C818 C 0.69265 0.59207 0.00704 0.0
C819 C 0.70665 0.60195 0.00861 0.0
C820 C 0.68974 0.58343 0.9923 0.0
C821 C 0.70112 0.58507 0.97945 0.0
H822 H 0.72373 0.59624 0.97173 0.0
H823 H 0.70895 0.60859 0.01994 0.0
C824 C 0.75053 0.6668 0.0355 0.0
N825 N 0.74525 0.65093 0.03594 0.0
C826 C 0.74838 0.67708 0.0491 0.0
C827 C 0.73515 0.65458 0.06327 0.0
C828 C 0.73753 0.64475 0.04938 0.0
C829 C 0.74062 0.671 0.06328 0.0
H830 H 0.75638 0.67147 0.02453 0.0
H831 H 0.73307 0.63223 0.0493 0.0
C832 C 0.75813 0.61167 0.96637 0.0
N833 N 0.76639 0.6076 0.93367 0.0
C834 C 0.77361 0.60567 0.96214 0.0
C835 C 0.74679 0.61547 0.95396 0.0
C836 C 0.77756 0.60373 0.94554 0.0
C837 C 0.75122 0.61337 0.93751 0.0
C838 C 0.78353 0.64894 0.00841 0.0
C839 C 0.79384 0.65501 0.99611 0.0
C840 C 0.78811 0.65075 0.02494 0.0
C841 C 0.80871 0.66248 0.00053 0.0
C842 C 0.80307 0.6583 0.02886 0.0
N843 N 0.81299 0.66395 0.01668 0.0
C844 C 0.74483 0.66465 0.96514 0.0
C845 C 0.7684 0.64979 0.95694 0.0
C846 C 0.74636 0.67511 0.95159 0.0
N847 N 0.75572 0.65223 0.96748 0.0
C848 C 0.77019 0.65972 0.94308 0.0
C849 C 0.75908 0.67256 0.94029 0.0
H850 H 0.73495 0.66644 0.9738 0.0
H851 H 0.77715 0.64011 0.95926 0.0
C852 C 0.78296 0.58766 0.00946 0.0
N853 N 0.78557 0.60378 0.0059 0.0
C854 C 0.79624 0.57701 0.01152 0.0
C855 C 0.81464 0.59975 0.00619 0.0
C856 C 0.80102 0.60991 0.00409 0.0
C857 C 0.81233 0.58306 0.00997 0.0
H858 H 0.77054 0.58309 0.01074 0.0
H859 H 0.80284 0.62263 0.0009 0.0
O860 O 0.73243 0.64147 0.99872 0.0
O861 O 0.74845 0.61327 0.01943 0.0
O862 O 0.75408 0.61369 0.98256 0.0
O863 O 0.76888 0.64165 0.00427 0.0
H864 H 0.71148 0.64509 0.02324 0.0
H865 H 0.7157 0.63842 0.97086 0.0
H866 H 0.68112 0.64484 0.02017 0.0
H867 H 0.68526 0.63819 0.9687 0.0
H868 H 0.78346 0.60849 0.06297 0.0
H869 H 0.72931 0.59532 0.03857 0.0
H870 H 0.77679 0.6184 0.0349 0.0
H871 H 0.73683 0.58568 0.06657 0.0
H872 H 0.68435 0.59102 0.01736 0.0
H873 H 0.6993 0.57882 0.96779 0.0
H874 H 0.75253 0.68973 0.04841 0.0
H875 H 0.72921 0.6493 0.07393 0.0
H876 H 0.78252 0.60262 0.97157 0.0
H877 H 0.73479 0.62018 0.95701 0.0
H878 H 0.78952 0.59916 0.94209 0.0
H879 H 0.74262 0.61638 0.92778 0.0
H880 H 0.79049 0.65384 0.98329 0.0
H881 H 0.78017 0.64651 0.03468 0.0
H882 H 0.81685 0.66711 0.99112 0.0
H883 H 0.80676 0.65974 0.04159 0.0
H884 H 0.73755 0.6849 0.94981 0.0
H885 H 0.78031 0.65755 0.93475 0.0
H886 H 0.79393 0.56424 0.01452 0.0
H887 H 0.82685 0.60484 0.00463 0.0
Li888 Li 0.86668 0.01646 0.25325 0.0
Li889 Li 0.88695 0.99803 0.26569 0.0
Li890 Li 0.88685 0.00258 0.23516 0.0
Li891 Li 0.86578 0.98564 0.24883 0.0
C892 C 0.89697 0.03413 0.25041 0.0
N893 N 0.909 0.06538 0.24452 0.0
C894 C 0.90571 0.04255 0.26268 0.0
C895 C 0.89455 0.04152 0.23508 0.0
C896 C 0.91163 0.05837 0.25949 0.0
C897 C 0.90069 0.05734 0.23235 0.0
C898 C 0.86199 0.9973 0.28614 0.0
C899 C 0.86381 0.98118 0.31096 0.0
N900 N 0.8614 0.99501 0.32005 0.0
C901 C 0.85941 0.01134 0.29571 0.0
C902 C 0.86409 0.98207 0.29379 0.0
C903 C 0.85919 0.00993 0.31284 0.0
C904 C 0.83796 0.03527 0.25034 0.0
N905 N 0.85364 0.03563 0.25616 0.0
C906 C 0.85013 0.06314 0.26589 0.0
C907 C 0.85977 0.04911 0.26401 0.0
C908 C 0.83393 0.06325 0.25979 0.0
C909 C 0.82786 0.04901 0.25198 0.0
H910 H 0.8333 0.02428 0.24439 0.0
H911 H 0.87212 0.04898 0.26891 0.0
C912 C 0.90967 0.98125 0.28607 0.0
N913 N 0.90071 0.99523 0.28454 0.0
C914 C 0.91979 0.97891 0.29979 0.0
C915 C 0.91136 0.00545 0.31008 0.0
C916 C 0.90142 0.00728 0.29614 0.0
C917 C 0.92075 0.99112 0.31204 0.0
H918 H 0.90901 0.97193 0.27662 0.0
H919 H 0.89427 0.01834 0.29454 0.0
C920 C 0.85579 0.0083 0.21803 0.0
N921 N 0.84193 0.0176 0.18835 0.0
C922 C 0.84892 0.99648 0.20751 0.0
C923 C 0.85538 0.02488 0.21354 0.0
C924 C 0.84204 0.00142 0.19253 0.0
C925 C 0.84838 0.02933 0.19846 0.0
C926 C 0.89163 0.96564 0.24368 0.0
C927 C 0.89707 0.96115 0.22802 0.0
C928 C 0.88784 0.95345 0.25518 0.0
C929 C 0.89845 0.9445 0.22406 0.0
C930 C 0.88936 0.93693 0.25073 0.0
N931 N 0.89458 0.93283 0.23539 0.0
C932 C 0.91644 0.00906 0.21889 0.0
C933 C 0.89443 0.00268 0.20074 0.0
C934 C 0.92709 0.0112 0.20563 0.0
N935 N 0.90043 0.005 0.21623 0.0
C936 C 0.9046 0.00485 0.18712 0.0
C937 C 0.92115 0.0092 0.18949 0.0
H938 H 0.92091 0.01072 0.23135 0.0
H939 H 0.88182 0.99905 0.19889 0.0
C940 C 0.83953 0.96452 0.25739 0.0
N941 N 0.85148 0.96715 0.24605 0.0
C942 C 0.82899 0.95099 0.2559 0.0
C943 C 0.84329 0.94309 0.23113 0.0
C944 C 0.85335 0.95692 0.23294 0.0
C945 C 0.83094 0.94 0.24271 0.0
H946 H 0.8382 0.97293 0.26761 0.0
H947 H 0.86268 0.95946 0.22389 0.0
O948 O 0.89105 0.01865 0.25339 0.0
O949 O 0.86256 0.99848 0.26937 0.0
O950 O 0.86254 0.00365 0.23277 0.0
O951 O 0.89013 0.98189 0.24775 0.0
H952 H 0.90783 0.03697 0.27457 0.0
H953 H 0.88819 0.03506 0.22533 0.0
H954 H 0.91832 0.06506 0.26891 0.0
H955 H 0.89888 0.0632 0.22054 0.0
H956 H 0.86552 0.96949 0.31706 0.0
H957 H 0.85775 0.02321 0.28997 0.0
H958 H 0.86602 0.97109 0.28655 0.0
H959 H 0.8573 0.02071 0.32041 0.0
H960 H 0.85539 0.07384 0.2719 0.0
H961 H 0.81537 0.04838 0.24737 0.0
H962 H 0.92666 0.96759 0.30086 0.0
H963 H 0.91189 0.01528 0.31908 0.0
H964 H 0.84898 0.98362 0.21082 0.0
H965 H 0.86023 0.03427 0.22166 0.0
H966 H 0.83678 0.99238 0.18424 0.0
H967 H 0.84801 0.04211 0.19484 0.0
H968 H 0.90012 0.97042 0.219 0.0
H969 H 0.88361 0.9567 0.26734 0.0
H970 H 0.90258 0.94084 0.21196 0.0
H971 H 0.88635 0.92736 0.25946 0.0
H972 H 0.93976 0.01464 0.20798 0.0
H973 H 0.89961 0.00291 0.17488 0.0
H974 H 0.81961 0.94898 0.26508 0.0
H975 H 0.845 0.93502 0.22066 0.0
Li976 Li 0.24873 0.13839 0.51625 0.0
Li977 Li 0.236 0.11677 0.49854 0.0
Li978 Li 0.26619 0.11714 0.50285 0.0
Li979 Li 0.25144 0.1383 0.48631 0.0
C980 C 0.24559 0.10653 0.53371 0.0
N981 N 0.23891 0.09119 0.56327 0.0
C982 C 0.22938 0.10283 0.538 0.0
C983 C 0.2584 0.10233 0.54442 0.0
C984 C 0.22626 0.0951 0.55301 0.0
C985 C 0.25477 0.09462 0.55932 0.0
C986 C 0.22362 0.1534 0.49166 0.0
C987 C 0.2091 0.16444 0.46822 0.0
N988 N 0.20977 0.17966 0.47517 0.0
C989 C 0.22403 0.16912 0.49864 0.0
C990 C 0.21597 0.15101 0.47639 0.0
C991 C 0.217 0.18224 0.49009 0.0
C992 C 0.25349 0.16714 0.53533 0.0
N993 N 0.24669 0.15184 0.53552 0.0
C994 C 0.23683 0.15613 0.56286 0.0
C995 C 0.23836 0.14628 0.54887 0.0
C996 C 0.24369 0.17199 0.563 0.0
C997 C 0.25207 0.17751 0.54898 0.0
H998 H 0.25987 0.17138 0.52449 0.0
H999 H 0.2327 0.13429 0.54867 0.0
C1000 C 0.21968 0.0859 0.49829 0.0
N1001 N 0.21756 0.10238 0.49659 0.0
C1002 C 0.2063 0.0752 0.49663 0.0
C1003 C 0.18878 0.09869 0.49197 0.0
C1004 C 0.2025 0.10891 0.49361 0.0
C1005 C 0.19059 0.08158 0.49341 0.0
H1006 H 0.23177 0.08108 0.50092 0.0
H1007 H 0.20114 0.12207 0.49251 0.0
C1008 C 0.28239 0.14702 0.51178 0.0
N1009 N 0.30961 0.15774 0.52923 0.0
C1010 C 0.29309 0.15853 0.50485 0.0
C1011 C 0.28548 0.141 0.52758 0.0
C1012 C 0.30681 0.16378 0.51387 0.0
C1013 C 0.29932 0.14656 0.53621 0.0
C1014 C 0.24809 0.10153 0.47261 0.0
C1015 C 0.25565 0.08618 0.4738 0.0
C1016 C 0.23452 0.10346 0.46218 0.0
C1017 C 0.24933 0.07294 0.46476 0.0
C1018 C 0.22854 0.08992 0.45336 0.0
N1019 N 0.236 0.07506 0.45483 0.0
C1020 C 0.2831 0.08838 0.51132 0.0
C1021 C 0.30039 0.10978 0.50169 0.0
C1022 C 0.29656 0.078 0.51339 0.0
N1023 N 0.28523 0.10391 0.50555 0.0
C1024 C 0.31424 0.09989 0.5038 0.0
C1025 C 0.31239 0.08375 0.50964 0.0
H1026 H 0.27088 0.08401 0.5142 0.0
H1027 H 0.30174 0.1221 0.4969 0.0
C1028 C 0.2559 0.16872 0.47002 0.0
N1029 N 0.25374 0.15229 0.46769 0.0
C1030 C 0.25762 0.17919 0.45652 0.0
C1031 C 0.25526 0.15559 0.43852 0.0
C1032 C 0.25345 0.1456 0.45235 0.0
C1033 C 0.25738 0.17262 0.44051 0.0
H1034 H 0.25632 0.17366 0.48238 0.0
H1035 H 0.25191 0.13249 0.45084 0.0
O1036 O 0.24891 0.11393 0.51898 0.0
O1037 O 0.23072 0.14046 0.49971 0.0
O1038 O 0.26894 0.14178 0.50307 0.0
O1039 O 0.25395 0.11458 0.48158 0.0
H1040 H 0.21929 0.10608 0.52994 0.0
H1041 H 0.27103 0.10492 0.54126 0.0
H1042 H 0.21377 0.09223 0.55652 0.0
H1043 H 0.26456 0.09132 0.56772 0.0
H1044 H 0.20326 0.16278 0.45633 0.0
H1045 H 0.22977 0.1712 0.51048 0.0
H1046 H 0.21547 0.13894 0.47084 0.0
H1047 H 0.21731 0.19448 0.49531 0.0
H1048 H 0.23004 0.15153 0.57333 0.0
H1049 H 0.25756 0.18965 0.54862 0.0
H1050 H 0.2082 0.06211 0.49806 0.0
H1051 H 0.17693 0.10411 0.48936 0.0
H1052 H 0.29082 0.16332 0.49263 0.0
H1053 H 0.27723 0.13222 0.53314 0.0
H1054 H 0.31522 0.17267 0.50866 0.0
H1055 H 0.30186 0.14202 0.54847 0.0
H1056 H 0.26628 0.08448 0.48162 0.0
H1057 H 0.22854 0.11524 0.46104 0.0
H1058 H 0.25503 0.06098 0.46563 0.0
H1059 H 0.21795 0.09122 0.44537 0.0
H1060 H 0.29464 0.06568 0.51804 0.0
H1061 H 0.32623 0.10471 0.50061 0.0
H1062 H 0.25945 0.19223 0.4586 0.0
H1063 H 0.25488 0.15004 0.42639 0.0
Li1064 Li 0.38703 0.50024 0.76628 0.0
Li1065 Li 0.36595 0.51719 0.75189 0.0
Li1066 Li 0.36558 0.4873 0.74848 0.0
Li1067 Li 0.3872 0.50502 0.73614 0.0
C1068 C 0.35729 0.49188 0.78259 0.0
N1069 N 0.34679 0.4753 0.81026 0.0
C1070 C 0.34661 0.49948 0.79362 0.0
C1071 C 0.36261 0.47586 0.7856 0.0
C1072 C 0.34145 0.4909 0.80756 0.0
C1073 C 0.35716 0.46767 0.79966 0.0
C1074 C 0.40294 0.53039 0.74888 0.0
C1075 C 0.41484 0.5498 0.72989 0.0
N1076 N 0.42975 0.54766 0.73719 0.0
C1077 C 0.41836 0.52848 0.75626 0.0
C1078 C 0.40113 0.54124 0.73567 0.0
C1079 C 0.43177 0.53729 0.75015 0.0
C1080 C 0.41534 0.49052 0.78358 0.0
N1081 N 0.40018 0.49718 0.78544 0.0
C1082 C 0.40419 0.49924 0.81455 0.0
C1083 C 0.39451 0.50165 0.80051 0.0
C1084 C 0.41994 0.49244 0.81298 0.0
C1085 C 0.42552 0.4881 0.79724 0.0
H1086 H 0.41957 0.48719 0.77142 0.0
H1087 H 0.38252 0.50716 0.80163 0.0
C1088 C 0.33575 0.53334 0.75695 0.0
N1089 N 0.3521 0.53578 0.75463 0.0
C1090 C 0.32525 0.54674 0.75875 0.0
C1091 C 0.34867 0.56489 0.75615 0.0
C1092 C 0.3587 0.55114 0.75431 0.0
C1093 C 0.33167 0.56282 0.75837 0.0
H1094 H 0.33087 0.52095 0.75727 0.0
H1095 H 0.37177 0.55272 0.75272 0.0
C1096 C 0.39661 0.46934 0.745 0.0
N1097 N 0.41032 0.43917 0.73779 0.0
C1098 C 0.40027 0.4652 0.72872 0.0
C1099 C 0.40006 0.45819 0.75762 0.0
C1100 C 0.40717 0.44986 0.72533 0.0
C1101 C 0.40695 0.44299 0.75372 0.0
C1102 C 0.35046 0.51229 0.72402 0.0
C1103 C 0.33478 0.50523 0.72416 0.0
C1104 C 0.35273 0.52779 0.71694 0.0
C1105 C 0.32158 0.51389 0.71742 0.0
C1106 C 0.33922 0.53607 0.71036 0.0
N1107 N 0.32405 0.52902 0.71074 0.0
C1108 C 0.33692 0.46828 0.75345 0.0
C1109 C 0.35677 0.45525 0.73674 0.0
C1110 C 0.32638 0.45477 0.7519 0.0
N1111 N 0.35185 0.46826 0.74599 0.0
C1112 C 0.3467 0.44141 0.735 0.0
C1113 C 0.33127 0.44107 0.74263 0.0
H1114 H 0.33313 0.47889 0.76049 0.0
H1115 H 0.36841 0.45564 0.73051 0.0
C1116 C 0.41778 0.50483 0.71949 0.0
N1117 N 0.40136 0.50729 0.71767 0.0
C1118 C 0.42829 0.50684 0.70609 0.0
C1119 C 0.40474 0.51353 0.68917 0.0
C1120 C 0.39471 0.51139 0.70288 0.0
C1121 C 0.42179 0.51133 0.69068 0.0
H1122 H 0.42272 0.50144 0.7314 0.0
H1123 H 0.38159 0.51299 0.70171 0.0
O1124 O 0.36249 0.50018 0.76895 0.0
O1125 O 0.38971 0.52167 0.75453 0.0
O1126 O 0.39004 0.48438 0.74859 0.0
O1127 O 0.36348 0.50412 0.73084 0.0
H1128 H 0.34238 0.5119 0.79143 0.0
H1129 H 0.37075 0.46979 0.7771 0.0
H1130 H 0.3332 0.49663 0.81622 0.0
H1131 H 0.36116 0.45525 0.80214 0.0
H1132 H 0.41363 0.55812 0.71958 0.0
H1133 H 0.41998 0.52027 0.76658 0.0
H1134 H 0.3893 0.54288 0.72979 0.0
H1135 H 0.44378 0.53587 0.75572 0.0
H1136 H 0.39954 0.50292 0.82645 0.0
H1137 H 0.43754 0.48274 0.79554 0.0
H1138 H 0.31222 0.54452 0.76024 0.0
H1139 H 0.35424 0.57701 0.7561 0.0
H1140 H 0.39764 0.47363 0.71878 0.0
H1141 H 0.39755 0.46126 0.77031 0.0
H1142 H 0.40998 0.44646 0.71278 0.0
H1143 H 0.40965 0.43423 0.76336 0.0
H1144 H 0.3328 0.49322 0.72948 0.0
H1145 H 0.36476 0.53346 0.71672 0.0
H1146 H 0.30937 0.5086 0.71753 0.0
H1147 H 0.34078 0.54813 0.70497 0.0
H1148 H 0.3146 0.45499 0.75802 0.0
H1149 H 0.3508 0.43123 0.72748 0.0
H1150 H 0.44137 0.50514 0.70785 0.0
H1151 H 0.39916 0.51668 0.67747 0.0
Li1152 Li 0.76687 0.38742 0.49917 0.0
Li1153 Li 0.75338 0.36664 0.51678 0.0
Li1154 Li 0.74915 0.36663 0.48585 0.0
Li1155 Li 0.73597 0.3876 0.50341 0.0
C1156 C 0.78519 0.35842 0.49538 0.0
N1157 N 0.81695 0.34909 0.48827 0.0
C1158 C 0.79523 0.35184 0.50771 0.0
C1159 C 0.79122 0.36007 0.4794 0.0
C1160 C 0.81128 0.34725 0.50388 0.0
C1161 C 0.80734 0.35533 0.47606 0.0
C1162 C 0.75502 0.39596 0.53562 0.0
C1163 C 0.74233 0.40061 0.56196 0.0
N1164 N 0.75696 0.4061 0.56804 0.0
C1165 C 0.76989 0.40181 0.54207 0.0
C1166 C 0.74109 0.39549 0.54557 0.0
C1167 C 0.77064 0.40682 0.55852 0.0
C1168 C 0.7841 0.41548 0.48849 0.0
N1169 N 0.7858 0.40105 0.49674 0.0
C1170 C 0.81435 0.40646 0.50133 0.0
C1171 C 0.80048 0.39654 0.50338 0.0
C1172 C 0.81299 0.42135 0.49273 0.0
C1173 C 0.7976 0.42591 0.48639 0.0
H1174 H 0.77223 0.41889 0.48356 0.0
H1175 H 0.80141 0.38533 0.51039 0.0
C1176 C 0.74756 0.33849 0.53605 0.0
N1177 N 0.75604 0.35292 0.53559 0.0
C1178 C 0.74922 0.32794 0.5495 0.0
C1179 C 0.76841 0.34722 0.56172 0.0
C1180 C 0.76651 0.3573 0.54795 0.0
C1181 C 0.7597 0.33231 0.5626 0.0
H1182 H 0.73954 0.33514 0.52592 0.0
H1183 H 0.77358 0.36851 0.54705 0.0
C1184 C 0.74752 0.39537 0.46684 0.0
N1185 N 0.74485 0.40431 0.43415 0.0
C1186 C 0.73257 0.40106 0.46059 0.0
C1187 C 0.76118 0.39445 0.45654 0.0
C1188 C 0.73144 0.40546 0.44401 0.0
C1189 C 0.75956 0.39897 0.44003 0.0
C1190 C 0.71747 0.35835 0.50786 0.0
C1191 C 0.70703 0.3515 0.49595 0.0
C1192 C 0.71208 0.35995 0.52407 0.0
C1193 C 0.69122 0.34659 0.50044 0.0
C1194 C 0.69618 0.35489 0.52808 0.0
N1195 N 0.68616 0.34839 0.51627 0.0
C1196 C 0.75519 0.33896 0.46583 0.0
C1197 C 0.73481 0.35687 0.45536 0.0
C1198 C 0.75322 0.32848 0.45232 0.0
N1199 N 0.74615 0.35291 0.46702 0.0
C1200 C 0.73256 0.34685 0.44155 0.0
C1201 C 0.74182 0.33239 0.43986 0.0
H1202 H 0.76382 0.33586 0.47549 0.0
H1203 H 0.7274 0.36774 0.45682 0.0
C1204 C 0.71931 0.41616 0.5134 0.0
N1205 N 0.71725 0.40137 0.50582 0.0
C1206 C 0.70596 0.42669 0.51547 0.0
C1207 C 0.68863 0.40661 0.50183 0.0
C1208 C 0.70236 0.39658 0.49981 0.0
C1209 C 0.69036 0.42187 0.50976 0.0
H1210 H 0.73135 0.41976 0.51785 0.0
H1211 H 0.70112 0.38506 0.49332 0.0
O1212 O 0.76947 0.363 0.49894 0.0
O1213 O 0.75409 0.39105 0.51954 0.0
O1214 O 0.74883 0.39105 0.48304 0.0
O1215 O 0.73297 0.36324 0.50365 0.0
H1216 H 0.79069 0.35041 0.52013 0.0
H1217 H 0.78352 0.36487 0.46967 0.0
H1218 H 0.81922 0.34222 0.51331 0.0
H1219 H 0.81219 0.35658 0.46375 0.0
H1220 H 0.73166 0.40027 0.56982 0.0
H1221 H 0.78076 0.40237 0.53447 0.0
H1222 H 0.72942 0.39133 0.54067 0.0
H1223 H 0.78208 0.41128 0.56371 0.0
H1224 H 0.82597 0.40267 0.50664 0.0
H1225 H 0.79608 0.43731 0.47968 0.0
H1226 H 0.74226 0.31656 0.54973 0.0
H1227 H 0.77686 0.35088 0.57141 0.0
H1228 H 0.72191 0.40196 0.46845 0.0
H1229 H 0.77292 0.39039 0.46127 0.0
H1230 H 0.71992 0.40978 0.43897 0.0
H1231 H 0.77002 0.39827 0.4319 0.0
H1232 H 0.71108 0.35009 0.48336 0.0
H1233 H 0.72011 0.36494 0.53348 0.0
H1234 H 0.68296 0.34136 0.49134 0.0
H1235 H 0.69182 0.35609 0.54057 0.0
H1236 H 0.76037 0.3173 0.45181 0.0
H1237 H 0.72372 0.3505 0.43226 0.0
H1238 H 0.70777 0.43836 0.52167 0.0
H1239 H 0.67685 0.40259 0.49701 0.0
Li1240 Li 0.63644 0.98509 0.75372 0.0
Li1241 Li 0.61571 0.00275 0.76681 0.0
Li1242 Li 0.6158 0.99843 0.73587 0.0
Li1243 Li 0.63656 0.01598 0.74959 0.0
C1244 C 0.60732 0.96621 0.75431 0.0
N1245 N 0.59763 0.93364 0.75523 0.0
C1246 C 0.60116 0.95947 0.76885 0.0
C1247 C 0.6083 0.95647 0.74017 0.0
C1248 C 0.5964 0.94295 0.76908 0.0
C1249 C 0.60341 0.94001 0.7409 0.0
C1250 C 0.64362 0.00588 0.78621 0.0
C1251 C 0.64545 0.0243 0.80944 0.0
N1252 N 0.65077 0.01165 0.819 0.0
C1253 C 0.64926 0.9931 0.7962 0.0
C1254 C 0.64184 0.02164 0.79282 0.0
C1255 C 0.65274 0.99625 0.81277 0.0
C1256 C 0.66419 0.96526 0.74803 0.0
N1257 N 0.64992 0.96619 0.75656 0.0
C1258 C 0.65519 0.94026 0.7693 0.0
C1259 C 0.6454 0.95416 0.76723 0.0
C1260 C 0.66997 0.93883 0.76054 0.0
C1261 C 0.67444 0.95164 0.74983 0.0
H1262 H 0.6677 0.97518 0.73991 0.0
H1263 H 0.63428 0.9554 0.77427 0.0
C1264 C 0.58867 0.01513 0.78438 0.0
N1265 N 0.60201 0.00522 0.7856 0.0
C1266 C 0.5783 0.01729 0.79785 0.0
C1267 C 0.59554 0.99892 0.81356 0.0
C1268 C 0.60544 0.99696 0.79972 0.0
C1269 C 0.58172 0.00923 0.81278 0.0
H1270 H 0.58599 0.02127 0.77289 0.0
H1271 H 0.61582 0.98876 0.80025 0.0
C1272 C 0.64508 0.99422 0.7178 0.0
N1273 N 0.65507 0.98643 0.68631 0.0
C1274 C 0.65176 0.00636 0.70765 0.0
C1275 C 0.64371 0.97808 0.71203 0.0
C1276 C 0.65667 0.00219 0.69174 0.0
C1277 C 0.64877 0.9744 0.69605 0.0
C1278 C 0.60858 0.03512 0.74685 0.0
C1279 C 0.60305 0.04095 0.73163 0.0
C1280 C 0.61017 0.04597 0.76013 0.0
C1281 C 0.59948 0.05765 0.72988 0.0
C1282 C 0.60648 0.06257 0.75787 0.0
N1283 N 0.60128 0.06802 0.74292 0.0
C1284 C 0.58763 0.98803 0.71839 0.0
C1285 C 0.60711 0.00221 0.70207 0.0
C1286 C 0.57728 0.98594 0.70476 0.0
N1287 N 0.60229 0.99592 0.71678 0.0
C1288 C 0.59727 1.0002 0.68808 0.0
C1289 C 0.58214 0.99197 0.68934 0.0
H1290 H 0.58397 0.98337 0.73028 0.0
H1291 H 0.6185 0.00896 0.7012 0.0
C1292 C 0.66367 0.03651 0.75689 0.0
N1293 N 0.65026 0.03484 0.74696 0.0
C1294 C 0.6741 0.05008 0.75522 0.0
C1295 C 0.65676 0.05995 0.73314 0.0
C1296 C 0.6468 0.04607 0.73507 0.0
C1297 C 0.67062 0.06205 0.74329 0.0
H1298 H 0.66632 0.02725 0.76604 0.0
H1299 H 0.63644 0.04418 0.72694 0.0
O1300 O 0.61206 0.98235 0.75389 0.0
O1301 O 0.64011 0.003 0.76998 0.0
O1302 O 0.64016 0.99813 0.73339 0.0
O1303 O 0.61216 0.01883 0.74878 0.0
H1304 H 0.6002 0.96689 0.77987 0.0
H1305 H 0.61267 0.96159 0.72873 0.0
H1306 H 0.59173 0.93754 0.78028 0.0
H1307 H 0.60415 0.93231 0.73006 0.0
H1308 H 0.64407 0.03642 0.81474 0.0
H1309 H 0.65082 0.98086 0.79125 0.0
H1310 H 0.63778 0.03172 0.78518 0.0
H1311 H 0.65702 0.98646 0.82068 0.0
H1312 H 0.65112 0.9307 0.7776 0.0
H1313 H 0.68587 0.95131 0.74309 0.0
H1314 H 0.5676 0.02504 0.79645 0.0
H1315 H 0.59882 0.99253 0.82478 0.0
H1316 H 0.65302 0.01889 0.71197 0.0
H1317 H 0.63891 0.96848 0.71984 0.0
H1318 H 0.66176 0.01148 0.6837 0.0
H1319 H 0.64773 0.96196 0.6914 0.0
H1320 H 0.60163 0.03269 0.72127 0.0
H1321 H 0.61414 0.0416 0.77205 0.0
H1322 H 0.59529 0.06235 0.71814 0.0
H1323 H 0.60772 0.07112 0.76803 0.0
H1324 H 0.5657 0.97951 0.70622 0.0
H1325 H 0.6013 0.0053 0.67647 0.0
H1326 H 0.68469 0.05128 0.76328 0.0
H1327 H 0.65384 0.06876 0.72359 0.0
Li1328 Li 0.01656 0.25468 0.86653 0.0
Li1329 Li 0.99892 0.26759 0.88746 0.0
Li1330 Li 0.00344 0.23675 0.88725 0.0
Li1331 Li 0.98575 0.25022 0.86657 0.0
C1332 C 0.03541 0.25544 0.89606 0.0
N1333 N 0.06772 0.25644 0.9066 0.0
C1334 C 0.04207 0.27001 0.9024 0.0
C1335 C 0.0451 0.24132 0.8953 0.0
C1336 C 0.05845 0.27029 0.9076 0.0
C1337 C 0.06142 0.24209 0.90064 0.0
C1338 C 0.99587 0.28697 0.85973 0.0
C1339 C 0.97785 0.3104 0.85867 0.0
N1340 N 0.9905 0.31981 0.85311 0.0
C1341 C 0.00866 0.29682 0.85386 0.0
C1342 C 0.98031 0.29375 0.86203 0.0
C1343 C 0.0057 0.31342 0.85064 0.0
C1344 C 0.03591 0.24956 0.8383 0.0
N1345 N 0.03536 0.25765 0.85294 0.0
C1346 C 0.06149 0.2701 0.84782 0.0
C1347 C 0.04769 0.26795 0.85772 0.0
C1348 C 0.06253 0.26179 0.83267 0.0
C1349 C 0.04943 0.25144 0.82794 0.0
H1350 H 0.02578 0.24172 0.83461 0.0
H1351 H 0.04676 0.27464 0.86915 0.0
C1352 C 0.9867 0.28474 0.91489 0.0
N1353 N 0.99637 0.28629 0.90138 0.0
C1354 C 0.9844 0.29809 0.92545 0.0
C1355 C 0.00204 0.31441 0.90801 0.0
C1356 C 0.00424 0.30066 0.89796 0.0
C1357 C 0.99201 0.31319 0.92195 0.0
H1358 H 0.9808 0.27311 0.91748 0.0
H1359 H 0.01232 0.30143 0.8875 0.0
C1360 C 0.00806 0.21885 0.85762 0.0
N1361 N 0.01693 0.18786 0.84704 0.0
C1362 C 0.99629 0.2083 0.85071 0.0
C1363 C 0.02437 0.21373 0.85894 0.0
C1364 C 0.00101 0.19265 0.84549 0.0
C1365 C 0.0286 0.19799 0.85357 0.0
C1366 C 0.96673 0.24698 0.89437 0.0
C1367 C 0.96119 0.23154 0.89949 0.0
C1368 C 0.95563 0.25996 0.89293 0.0
C1369 C 0.94451 0.22927 0.90281 0.0
C1370 C 0.93905 0.25719 0.89635 0.0
N1371 N 0.93388 0.24203 0.90116 0.0
C1372 C 0.01349 0.21998 0.91579 0.0
C1373 C 0.00082 0.20282 0.89582 0.0
C1374 C 0.01585 0.20659 0.92626 0.0
N1375 N 0.00622 0.21785 0.90083 0.0
C1376 C 0.00309 0.18905 0.90581 0.0
C1377 C 0.01073 0.19079 0.92129 0.0
H1378 H 0.01738 0.23214 0.91962 0.0
H1379 H 0.99464 0.20148 0.88411 0.0
C1380 C 0.96455 0.25778 0.84004 0.0
N1381 N 0.96683 0.24738 0.85292 0.0
C1382 C 0.95086 0.25602 0.82973 0.0
C1383 C 0.94213 0.23283 0.8461 0.0
C1384 C 0.9561 0.23492 0.85594 0.0
C1385 C 0.93933 0.24345 0.83273 0.0
H1386 H 0.97346 0.26736 0.83766 0.0
H1387 H 0.95842 0.22652 0.86596 0.0
O1388 O 0.01939 0.25497 0.89092 0.0
O1389 O 0.99856 0.27072 0.86301 0.0
O1390 O 0.00361 0.23418 0.86283 0.0
O1391 O 0.983 0.24941 0.89103 0.0
H1392 H 0.03469 0.28101 0.90319 0.0
H1393 H 0.04003 0.22986 0.89078 0.0
H1394 H 0.06381 0.28151 0.91244 0.0
H1395 H 0.06908 0.23126 0.90008 0.0
H1396 H 0.96589 0.31583 0.86046 0.0
H1397 H 0.02075 0.29173 0.85192 0.0
H1398 H 0.97024 0.28623 0.86632 0.0
H1399 H 0.0155 0.32123 0.84618 0.0
H1400 H 0.07128 0.2781 0.85209 0.0
H1401 H 0.04946 0.24506 0.81623 0.0
H1402 H 0.97658 0.29671 0.9361 0.0
H1403 H 0.00832 0.32579 0.90508 0.0
H1404 H 0.98363 0.21213 0.8495 0.0
H1405 H 0.03368 0.22185 0.86394 0.0
H1406 H 0.99202 0.18432 0.84022 0.0
H1407 H 0.04118 0.19384 0.85456 0.0
H1408 H 0.96965 0.2214 0.90078 0.0
H1409 H 0.95978 0.27204 0.88925 0.0
H1410 H 0.94002 0.21736 0.90669 0.0
H1411 H 0.93031 0.26711 0.89522 0.0
H1412 H 0.02145 0.20867 0.93821 0.0
H1413 H 0.99904 0.17716 0.90132 0.0
H1414 H 0.9495 0.26428 0.81938 0.0
H1415 H 0.93359 0.22306 0.84906 0.0
Li1416 Li 0.51553 0.75434 0.36748 0.0
Li1417 Li 0.49725 0.76643 0.38795 0.0
Li1418 Li 0.5019 0.73604 0.38773 0.0
Li1419 Li 0.48472 0.74968 0.36673 0.0
C1420 C 0.53343 0.75061 0.39749 0.0
N1421 N 0.5646 0.74323 0.40883 0.0
C1422 C 0.54223 0.76205 0.40693 0.0
C1423 C 0.54042 0.73535 0.39398 0.0
C1424 C 0.558 0.75812 0.4125 0.0
C1425 C 0.5562 0.73186 0.39979 0.0
C1426 C 0.49614 0.78706 0.36325 0.0
C1427 C 0.47977 0.81161 0.36512 0.0
N1428 N 0.49359 0.8209 0.3634 0.0
C1429 C 0.51016 0.79682 0.36139 0.0
C1430 C 0.4808 0.79447 0.36502 0.0
C1431 C 0.50862 0.81392 0.36153 0.0
C1432 C 0.53386 0.75221 0.33838 0.0
N1433 N 0.53452 0.7575 0.35425 0.0
C1434 C 0.56206 0.7671 0.35065 0.0
C1435 C 0.54816 0.76502 0.36044 0.0
C1436 C 0.56186 0.76154 0.33425 0.0
C1437 C 0.54746 0.75407 0.32813 0.0
H1438 H 0.52275 0.74652 0.3337 0.0
H1439 H 0.54827 0.76949 0.37297 0.0
C1440 C 0.48022 0.78736 0.40995 0.0
N1441 N 0.49456 0.78522 0.40176 0.0
C1442 C 0.478 0.80112 0.41998 0.0
C1443 C 0.50544 0.81015 0.41313 0.0
C1444 C 0.5071 0.79622 0.4032 0.0
C1445 C 0.49072 0.81275 0.42171 0.0
H1446 H 0.47048 0.77839 0.40871 0.0
H1447 H 0.51841 0.79417 0.3966 0.0
C1448 C 0.50686 0.71917 0.35621 0.0
N1449 N 0.51494 0.68967 0.3414 0.0
C1450 C 0.49453 0.70882 0.35002 0.0
C1451 C 0.52332 0.7146 0.35463 0.0
C1452 C 0.49886 0.69393 0.34265 0.0
C1453 C 0.52715 0.69962 0.34717 0.0
C1454 C 0.46501 0.74426 0.39299 0.0
C1455 C 0.46071 0.7287 0.3989 0.0
C1456 C 0.45269 0.75554 0.38907 0.0
C1457 C 0.44412 0.72463 0.40063 0.0
C1458 C 0.43624 0.751 0.39095 0.0
N1459 N 0.43233 0.73576 0.39664 0.0
C1460 C 0.50889 0.71953 0.41723 0.0
C1461 C 0.50207 0.7016 0.39521 0.0
C1462 C 0.51119 0.70619 0.4278 0.0
N1463 N 0.50453 0.71701 0.40124 0.0
C1464 C 0.50433 0.68791 0.4053 0.0
C1465 C 0.50899 0.69007 0.42186 0.0
H1466 H 0.51058 0.73194 0.42176 0.0
H1467 H 0.49832 0.69985 0.38259 0.0
C1468 C 0.46407 0.75789 0.33994 0.0
N1469 N 0.4662 0.74692 0.35238 0.0
C1470 C 0.4506 0.75643 0.32927 0.0
C1471 C 0.44173 0.73251 0.34448 0.0
C1472 C 0.45552 0.73423 0.35463 0.0
C1473 C 0.43917 0.7437 0.33162 0.0
H1474 H 0.47283 0.76777 0.3383 0.0
H1475 H 0.45767 0.72543 0.36433 0.0
O1476 O 0.51801 0.75433 0.39189 0.0
O1477 O 0.49745 0.77031 0.36353 0.0
O1478 O 0.50281 0.73384 0.36338 0.0
O1479 O 0.48119 0.74843 0.39118 0.0
H1480 H 0.53696 0.77388 0.40988 0.0
H1481 H 0.53367 0.72622 0.38702 0.0
H1482 H 0.56497 0.76689 0.41975 0.0
H1483 H 0.56175 0.72009 0.39715 0.0
H1484 H 0.46799 0.81753 0.36658 0.0
H1485 H 0.52213 0.79126 0.36002 0.0
H1486 H 0.46983 0.78707 0.36641 0.0
H1487 H 0.51938 0.82165 0.3602 0.0
H1488 H 0.57289 0.77283 0.35595 0.0
H1489 H 0.54659 0.7499 0.31549 0.0
H1490 H 0.46637 0.80269 0.42617 0.0
H1491 H 0.51566 0.81864 0.41425 0.0
H1492 H 0.48175 0.71216 0.351 0.0
H1493 H 0.53308 0.72258 0.35895 0.0
H1494 H 0.48943 0.68576 0.33792 0.0
H1495 H 0.53983 0.69594 0.34591 0.0
H1496 H 0.47008 0.71984 0.40206 0.0
H1497 H 0.45579 0.76761 0.38441 0.0
H1498 H 0.44062 0.71262 0.40513 0.0
H1499 H 0.42658 0.75956 0.38785 0.0
H1500 H 0.51447 0.70853 0.44052 0.0
H1501 H 0.50264 0.67575 0.40009 0.0
H1502 H 0.449 0.7653 0.31947 0.0
H1503 H 0.43329 0.72239 0.34651 0.0
Li1504 Li 0.00368 0.7665 0.61645 0.0
Li1505 Li 0.98593 0.754 0.63752 0.0
Li1506 Li 0.01636 0.75004 0.63759 0.0
Li1507 Li 0.99937 0.73565 0.61722 0.0
C1508 C 0.00449 0.78722 0.64245 0.0
N1509 N 0.0059 0.82104 0.64554 0.0
C1510 C 0.99095 0.79587 0.64838 0.0
C1511 C 0.0188 0.79576 0.63822 0.0
C1512 C 0.9919 0.81297 0.64983 0.0
C1513 C 0.01925 0.81286 0.63982 0.0
C1514 C 0.96809 0.75321 0.60592 0.0
C1515 C 0.944 0.73838 0.59668 0.0
N1516 N 0.93758 0.75262 0.59079 0.0
C1517 C 0.96133 0.76766 0.59958 0.0
C1518 C 0.95943 0.73841 0.6043 0.0
C1519 C 0.94586 0.76713 0.59206 0.0
C1520 C 0.0175 0.78419 0.59001 0.0
N1521 N 0.0061 0.78494 0.60213 0.0
C1522 C 0.99863 0.81216 0.59403 0.0
C1523 C 0.99656 0.79846 0.60414 0.0
C1524 C 0.01041 0.81185 0.58142 0.0
C1525 C 0.01982 0.79751 0.57943 0.0
H1526 H 0.02477 0.77319 0.58852 0.0
H1527 H 0.9874 0.7987 0.6137 0.0
C1528 C 0.96786 0.75183 0.66683 0.0
N1529 N 0.96705 0.75707 0.65097 0.0
C1530 C 0.95443 0.7538 0.67728 0.0
C1531 C 0.93965 0.76668 0.65492 0.0
C1532 C 0.95338 0.76451 0.64494 0.0
C1533 C 0.94004 0.76129 0.67135 0.0
H1534 H 0.97898 0.74615 0.67138 0.0
H1535 H 0.95311 0.76889 0.63243 0.0
C1536 C 0.03615 0.74484 0.61286 0.0
N1537 N 0.06918 0.73725 0.61299 0.0
C1538 C 0.04118 0.72854 0.61105 0.0
C1539 C 0.0479 0.75731 0.61456 0.0
C1540 C 0.05795 0.72495 0.61117 0.0
C1541 C 0.06455 0.75321 0.61466 0.0
C1542 C 0.99083 0.71985 0.64743 0.0
C1543 C 0.99924 0.70839 0.65708 0.0
C1544 C 0.97418 0.71741 0.64392 0.0
C1545 C 0.99089 0.69453 0.66285 0.0
C1546 C 0.96625 0.70341 0.64993 0.0
N1547 N 0.97471 0.69233 0.65917 0.0
C1548 C 0.04191 0.76072 0.65912 0.0
C1549 C 0.04195 0.73227 0.6528 0.0
C1550 C 0.05592 0.75895 0.66893 0.0
N1551 N 0.03529 0.74749 0.65124 0.0
C1552 C 0.05594 0.72992 0.66252 0.0
C1553 C 0.06314 0.74338 0.67075 0.0
H1554 H 0.03633 0.77266 0.65778 0.0
H1555 H 0.0364 0.72195 0.64642 0.0
C1556 C 0.99317 0.71893 0.58769 0.0
N1557 N 0.99689 0.71654 0.60384 0.0
C1558 C 0.991 0.70551 0.57715 0.0
C1559 C 0.99677 0.68739 0.59998 0.0
C1560 C 0.99892 0.70117 0.61006 0.0
C1561 C 0.9927 0.68943 0.58327 0.0
H1562 H 0.99185 0.7313 0.58303 0.0
H1563 H 0.00225 0.69956 0.62283 0.0
O1564 O 0.00375 0.77049 0.64089 0.0
O1565 O 0.98331 0.75352 0.6132 0.0
O1566 O 0.01979 0.74855 0.61316 0.0
O1567 O 0.99888 0.73346 0.64166 0.0
H1568 H 0.97981 0.78947 0.65179 0.0
H1569 H 0.02936 0.78927 0.63353 0.0
H1570 H 0.98149 0.81983 0.65435 0.0
H1571 H 0.03019 0.81963 0.63648 0.0
H1572 H 0.93717 0.72701 0.59539 0.0
H1573 H 0.96787 0.7792 0.60057 0.0
H1574 H 0.96458 0.727 0.6087 0.0
H1575 H 0.94044 0.77826 0.58722 0.0
H1576 H 0.99122 0.82294 0.59628 0.0
H1577 H 0.0288 0.79648 0.5697 0.0
H1578 H 0.95543 0.74971 0.68992 0.0
H1579 H 0.92881 0.77239 0.64974 0.0
H1580 H 0.03223 0.71875 0.60974 0.0
H1581 H 0.04419 0.77 0.61593 0.0
H1582 H 0.06202 0.71237 0.60989 0.0
H1583 H 0.07378 0.76272 0.61608 0.0
H1584 H 0.0121 0.71015 0.66006 0.0
H1585 H 0.96739 0.72632 0.63683 0.0
H1586 H 0.99727 0.68552 0.67026 0.0
H1587 H 0.95337 0.70137 0.64729 0.0
H1588 H 0.06114 0.76971 0.67486 0.0
H1589 H 0.0609 0.71765 0.66373 0.0
H1590 H 0.98821 0.70774 0.5643 0.0
H1591 H 0.99809 0.67528 0.60532 0.0
Li1592 Li 0.50397 0.26687 0.11657 0.0
Li1593 Li 0.48629 0.2541 0.1375 0.0
Li1594 Li 0.51673 0.25014 0.13747 0.0
Li1595 Li 0.49968 0.23598 0.11698 0.0
C1596 C 0.50493 0.28724 0.14292 0.0
N1597 N 0.50646 0.32099 0.14658 0.0
C1598 C 0.49141 0.29584 0.14898 0.0
C1599 C 0.51928 0.29578 0.13886 0.0
C1600 C 0.49242 0.31291 0.15072 0.0
C1601 C 0.51979 0.31285 0.14075 0.0
C1602 C 0.4683 0.25383 0.10606 0.0
C1603 C 0.44402 0.23934 0.09678 0.0
N1604 N 0.43761 0.25376 0.09129 0.0
C1605 C 0.46155 0.26846 0.10013 0.0
C1606 C 0.45953 0.23911 0.10421 0.0
C1607 C 0.44599 0.26818 0.09279 0.0
C1608 C 0.51761 0.28485 0.09023 0.0
N1609 N 0.50635 0.28552 0.10249 0.0
C1610 C 0.49894 0.31288 0.09481 0.0
C1611 C 0.49691 0.29907 0.10477 0.0
C1612 C 0.51057 0.31266 0.08206 0.0
C1613 C 0.51988 0.2983 0.07979 0.0
H1614 H 0.5248 0.27384 0.08851 0.0
H1615 H 0.48785 0.29923 0.11444 0.0
C1616 C 0.46813 0.25119 0.16671 0.0
N1617 N 0.46741 0.25694 0.15102 0.0
C1618 C 0.45466 0.25285 0.17715 0.0
C1619 C 0.44003 0.26654 0.15518 0.0
C1620 C 0.4538 0.26467 0.1452 0.0
C1621 C 0.44033 0.26056 0.17138 0.0
H1622 H 0.47917 0.24524 0.17109 0.0
H1623 H 0.45366 0.26958 0.13288 0.0
C1624 C 0.53647 0.24541 0.11257 0.0
N1625 N 0.56957 0.23812 0.11236 0.0
C1626 C 0.54163 0.22918 0.1105 0.0
C1627 C 0.54812 0.25796 0.11436 0.0
C1628 C 0.55843 0.22574 0.11046 0.0
C1629 C 0.5648 0.25401 0.11428 0.0
C1630 C 0.49122 0.21985 0.14701 0.0
C1631 C 0.49961 0.20837 0.15665 0.0
C1632 C 0.4746 0.21735 0.14337 0.0
C1633 C 0.49128 0.19443 0.16227 0.0
C1634 C 0.46669 0.20328 0.14923 0.0
N1635 N 0.47513 0.19219 0.15846 0.0
C1636 C 0.54248 0.26027 0.15914 0.0
C1637 C 0.54215 0.23194 0.15229 0.0
C1638 C 0.55645 0.25813 0.16894 0.0
N1639 N 0.53569 0.24726 0.15103 0.0
C1640 C 0.55607 0.22922 0.16201 0.0
C1641 C 0.56341 0.24242 0.1705 0.0
H1642 H 0.537 0.27229 0.15809 0.0
H1643 H 0.53653 0.22183 0.14565 0.0
C1644 C 0.49301 0.21912 0.08751 0.0
N1645 N 0.49726 0.2169 0.10354 0.0
C1646 C 0.49098 0.2056 0.07705 0.0
C1647 C 0.49798 0.18776 0.09977 0.0
C1648 C 0.49997 0.20163 0.10974 0.0
C1649 C 0.49338 0.18961 0.08316 0.0
H1650 H 0.49118 0.23143 0.08285 0.0
H1651 H 0.50374 0.20017 0.12241 0.0
O1652 O 0.50412 0.27054 0.14107 0.0
O1653 O 0.4836 0.25388 0.11316 0.0
O1654 O 0.52008 0.24897 0.11302 0.0
O1655 O 0.49925 0.23353 0.14137 0.0
H1656 H 0.48024 0.28942 0.15225 0.0
H1657 H 0.52982 0.28933 0.1341 0.0
H1658 H 0.48204 0.31973 0.15533 0.0
H1659 H 0.53077 0.31964 0.13755 0.0
H1660 H 0.4371 0.22805 0.09531 0.0
H1661 H 0.46818 0.27993 0.1013 0.0
H1662 H 0.46467 0.22758 0.10827 0.0
H1663 H 0.44059 0.27945 0.08827 0.0
H1664 H 0.49161 0.32366 0.09726 0.0
H1665 H 0.52874 0.29734 0.06995 0.0
H1666 H 0.45539 0.24798 0.18953 0.0
H1667 H 0.42936 0.27286 0.15034 0.0
H1668 H 0.53276 0.21932 0.10911 0.0
H1669 H 0.54431 0.27059 0.11592 0.0
H1670 H 0.56262 0.21322 0.10897 0.0
H1671 H 0.57396 0.26359 0.11577 0.0
H1672 H 0.51243 0.21017 0.15974 0.0
H1673 H 0.46783 0.22629 0.1363 0.0
H1674 H 0.49764 0.18541 0.16967 0.0
H1675 H 0.45383 0.20121 0.14649 0.0
H1676 H 0.56158 0.2686 0.17546 0.0
H1677 H 0.56114 0.21694 0.16271 0.0
H1678 H 0.48776 0.2077 0.06428 0.0
H1679 H 0.49984 0.17571 0.10509 0.0
H1680 H 0.24138 0.78963 0.8429 0.0
H1681 H 0.23756 0.79798 0.94094 0.0
H1682 H 0.2222 0.75163 0.8746 0.0
H1683 H 0.24576 0.83915 0.90855 0.0
H1684 H 0.23437 0.78008 0.91689 0.0
H1685 H 0.24522 0.80733 0.86693 0.0
C1686 C 0.23788 0.78501 0.85487 0.0
C1687 C 0.2314 0.76907 0.85665 0.0
C1688 C 0.23686 0.79303 0.91504 0.0
C1689 C 0.23607 0.78925 0.88431 0.0
C1690 C 0.23879 0.80323 0.92876 0.0
C1691 C 0.24191 0.82009 0.92674 0.0
C1692 C 0.23821 0.79969 0.89916 0.0
C1693 C 0.24319 0.82626 0.91066 0.0
C1694 C 0.24017 0.79511 0.86861 0.0
C1695 C 0.22745 0.7637 0.8726 0.0
N1696 N 0.24137 0.81607 0.8975 0.0
N1697 N 0.22986 0.77375 0.88578 0.0
H1698 H 0.01078 0.54355 0.38302 0.0
H1699 H 0.07845 0.4879 0.3396 0.0
H1700 H 0.03493 0.50321 0.40764 0.0
H1701 H 0.06488 0.53613 0.32211 0.0
H1702 H 0.06097 0.492 0.36357 0.0
H1703 H 0.02882 0.53966 0.35948 0.0
C1704 C 0.01994 0.53395 0.38357 0.0
C1705 C 0.02133 0.52375 0.39746 0.0
C1706 C 0.06186 0.50168 0.35448 0.0
C1707 C 0.04184 0.51903 0.37028 0.0
C1708 C 0.07193 0.4994 0.34081 0.0
C1709 C 0.07321 0.51169 0.32872 0.0
C1710 C 0.05285 0.51627 0.35606 0.0
C1711 C 0.06411 0.52618 0.33089 0.0
C1712 C 0.03018 0.53169 0.37006 0.0
C1713 C 0.03321 0.51125 0.39718 0.0
N1714 N 0.0543 0.52803 0.34424 0.0
N1715 N 0.04297 0.50923 0.38381 0.0
H1716 H 0.78187 0.753 0.87475 0.0
H1717 H 0.76267 0.66321 0.90823 0.0
H1718 H 0.76308 0.71446 0.84326 0.0
H1719 H 0.75965 0.70615 0.93925 0.0
H1720 H 0.76627 0.68112 0.88425 0.0
H1721 H 0.77728 0.73528 0.89872 0.0
C1722 C 0.77681 0.74079 0.87292 0.0
C1723 C 0.77283 0.73514 0.85706 0.0
C1724 C 0.76475 0.68661 0.8963 0.0
C1725 C 0.76769 0.71485 0.88429 0.0
C1726 C 0.76279 0.67642 0.90996 0.0
C1727 C 0.76086 0.68326 0.92569 0.0
C1728 C 0.76512 0.70374 0.89845 0.0
C1729 C 0.76099 0.70043 0.92729 0.0
C1730 C 0.77412 0.73075 0.88657 0.0
C1731 C 0.7662 0.71928 0.85532 0.0
N1732 N 0.76323 0.71011 0.91385 0.0
N1733 N 0.76396 0.70962 0.86877 0.0
H1734 H 0.96312 0.99088 0.41033 0.0
H1735 H 0.95169 0.97793 0.31315 0.0
H1736 H 0.999 0.96737 0.37935 0.0
H1737 H 0.91464 0.99941 0.34424 0.0
H1738 H 0.96927 0.97427 0.33727 0.0
H1739 H 0.94527 0.9944 0.3863 0.0
C1740 C 0.96722 0.98638 0.3985 0.0
C1741 C 0.98261 0.97881 0.39688 0.0
C1742 C 0.9573 0.97978 0.33884 0.0
C1743 C 0.96228 0.98296 0.36926 0.0
C1744 C 0.9472 0.98179 0.32507 0.0
C1745 C 0.93162 0.98895 0.32665 0.0
C1746 C 0.95183 0.98496 0.35436 0.0
C1747 C 0.92662 0.994 0.34238 0.0
C1748 C 0.95706 0.98847 0.38476 0.0
C1749 C 0.98736 0.97347 0.38117 0.0
N1750 N 0.93668 0.99189 0.35562 0.0
N1751 N 0.97724 0.97564 0.368 0.0
H1752 H 0.21568 0.25012 0.62947 0.0
H1753 H 0.24826 0.16415 0.59544 0.0
H1754 H 0.24324 0.21612 0.6594 0.0
H1755 H 0.23466 0.20436 0.56369 0.0
H1756 H 0.2443 0.18201 0.61939 0.0
H1757 H 0.22025 0.23246 0.6055 0.0
C1758 C 0.22264 0.2389 0.63099 0.0
C1759 C 0.22909 0.23456 0.64643 0.0
C1760 C 0.24225 0.18694 0.60718 0.0
C1761 C 0.23435 0.21431 0.6191 0.0
C1762 C 0.24442 0.17674 0.59353 0.0
C1763 C 0.24179 0.1828 0.57758 0.0
C1764 C 0.23718 0.20326 0.60487 0.0
C1765 C 0.23697 0.19925 0.57578 0.0
C1766 C 0.22533 0.22889 0.6173 0.0
C1767 C 0.23817 0.21998 0.64769 0.0
N1768 N 0.23471 0.20888 0.58926 0.0
N1769 N 0.24046 0.21032 0.63422 0.0
H1770 H 0.49681 0.5021 0.61576 0.0
H1771 H 0.41998 0.53531 0.66708 0.0
H1772 H 0.46914 0.54533 0.60262 0.0
H1773 H 0.44843 0.49295 0.68136 0.0
H1774 H 0.43764 0.53887 0.64317 0.0
H1775 H 0.47897 0.49819 0.63956 0.0
C1776 C 0.48692 0.51072 0.61782 0.0
C1777 C 0.48448 0.52407 0.60717 0.0
C1778 C 0.44005 0.52879 0.65153 0.0
C1779 C 0.46409 0.51975 0.6345 0.0
C1780 C 0.4299 0.5267 0.66515 0.0
C1781 C 0.43268 0.51377 0.67625 0.0
C1782 C 0.45311 0.51788 0.64891 0.0
C1783 C 0.44592 0.50318 0.67325 0.0
C1784 C 0.4768 0.50853 0.63148 0.0
C1785 C 0.47161 0.53498 0.6106 0.0
N1786 N 0.45561 0.50545 0.65985 0.0
N1787 N 0.46191 0.53257 0.62394 0.0
H1788 H 0.76287 0.2906 0.66063 0.0
H1789 H 0.76408 0.29896 0.56268 0.0
H1790 H 0.78137 0.2527 0.62843 0.0
H1791 H 0.75988 0.34064 0.59528 0.0
H1792 H 0.76756 0.28106 0.58662 0.0
H1793 H 0.75916 0.30847 0.63679 0.0
C1794 C 0.76626 0.28603 0.6486 0.0
C1795 C 0.77249 0.27006 0.64663 0.0
C1796 C 0.7659 0.29412 0.58853 0.0
C1797 C 0.76792 0.29043 0.61919 0.0
C1798 C 0.7638 0.30432 0.57489 0.0
C1799 C 0.7617 0.32131 0.57701 0.0
C1800 C 0.76569 0.30092 0.60444 0.0
C1801 C 0.76163 0.32763 0.5931 0.0
C1802 C 0.76404 0.29624 0.63497 0.0
C1803 C 0.77629 0.26478 0.6306 0.0
N1804 N 0.76353 0.31743 0.60621 0.0
N1805 N 0.77391 0.27491 0.61753 0.0
H1806 H 0.50288 0.99723 0.61826 0.0
H1807 H 0.59084 0.9814 0.65864 0.0
H1808 H 0.53842 0.96434 0.5968 0.0
H1809 H 0.54916 0.9978 0.6867 0.0
H1810 H 0.57294 0.97814 0.63448 0.0
H1811 H 0.52079 0.00047 0.64223 0.0
C1812 C 0.51437 0.99059 0.61858 0.0
C1813 C 0.51903 0.9804 0.60542 0.0
C1814 C 0.56772 0.98242 0.64594 0.0
C1815 C 0.5398 0.98444 0.63277 0.0
C1816 C 0.57792 0.98436 0.65968 0.0
C1817 C 0.57144 0.98985 0.67467 0.0
C1818 C 0.55096 0.98624 0.64714 0.0
C1819 C 0.5546 0.99339 0.67541 0.0
C1820 C 0.52463 0.99254 0.63226 0.0
C1821 C 0.53434 0.97251 0.60646 0.0
N1822 N 0.54496 0.99162 0.6618 0.0
N1823 N 0.54418 0.97473 0.61987 0.0
H1824 H 0.85339 0.20532 0.78201 0.0
H1825 H 0.92093 0.26734 0.81734 0.0
H1826 H 0.86118 0.25376 0.76168 0.0
H1827 H 0.92401 0.21466 0.8233 0.0
H1828 H 0.89706 0.26343 0.79939 0.0
H1829 H 0.87727 0.2094 0.79983 0.0
C1830 C 0.86014 0.21678 0.78117 0.0
C1831 C 0.85523 0.22917 0.77017 0.0
C1832 C 0.903 0.25275 0.80464 0.0
C1833 C 0.88244 0.23403 0.79092 0.0
C1834 C 0.91671 0.25495 0.81483 0.0
C1835 C 0.92462 0.24132 0.8219 0.0
C1836 C 0.89699 0.23684 0.80162 0.0
C1837 C 0.91824 0.22559 0.81843 0.0
C1838 C 0.87374 0.21911 0.79144 0.0
C1839 C 0.8643 0.24392 0.77006 0.0
N1840 N 0.90479 0.22379 0.80859 0.0
N1841 N 0.87743 0.24595 0.78029 0.0
H1842 H 0.49425 0.91029 0.46538 0.0
H1843 H 0.47532 0.81452 0.45164 0.0
H1844 H 0.4627 0.8816 0.49686 0.0
H1845 H 0.50147 0.84442 0.4165 0.0
H1846 H 0.47167 0.83873 0.46896 0.0
H1847 H 0.49836 0.88601 0.44807 0.0
C1848 C 0.48825 0.89886 0.46869 0.0
C1849 C 0.47808 0.89799 0.48258 0.0
C1850 C 0.4782 0.84001 0.45746 0.0
C1851 C 0.48267 0.87017 0.46278 0.0
C1852 C 0.48021 0.82619 0.44749 0.0
C1853 C 0.48866 0.8274 0.43251 0.0
C1854 C 0.48472 0.85521 0.45249 0.0
C1855 C 0.49504 0.84283 0.42801 0.0
C1856 C 0.49052 0.88503 0.45876 0.0
C1857 C 0.47046 0.88291 0.48616 0.0
N1858 N 0.49293 0.85612 0.43795 0.0
N1859 N 0.47293 0.86961 0.47635 0.0
H1860 H 0.1386 0.25017 0.75915 0.0
H1861 H 0.0807 0.28988 0.82746 0.0
H1862 H 0.14957 0.29611 0.78353 0.0
H1863 H 0.07762 0.23882 0.81301 0.0
H1864 H 0.10466 0.29316 0.80987 0.0
H1865 H 0.11473 0.24664 0.77704 0.0
C1866 C 0.13594 0.25953 0.76824 0.0
C1867 C 0.14607 0.27345 0.76987 0.0
C1868 C 0.09875 0.28123 0.81058 0.0
C1869 C 0.11882 0.26951 0.79036 0.0
C1870 C 0.0851 0.27931 0.82071 0.0
C1871 C 0.07708 0.26401 0.82183 0.0
C1872 C 0.10441 0.26783 0.80133 0.0
C1873 C 0.0832 0.2509 0.81241 0.0
C1874 C 0.12239 0.25747 0.7785 0.0
C1875 C 0.14218 0.28512 0.78197 0.0
N1876 N 0.09646 0.25312 0.80255 0.0
N1877 N 0.12882 0.28293 0.79169 0.0
H1878 H 0.54088 0.62387 0.49923 0.0
H1879 H 0.49163 0.66098 0.42252 0.0
H1880 H 0.50898 0.59481 0.46802 0.0
H1881 H 0.53215 0.68612 0.44631 0.0
H1882 H 0.49634 0.63731 0.44032 0.0
H1883 H 0.53618 0.6476 0.48137 0.0
C1884 C 0.53283 0.62251 0.48865 0.0
C1885 C 0.52531 0.60735 0.4851 0.0
C1886 C 0.50421 0.648 0.44162 0.0
C1887 C 0.5199 0.63443 0.46459 0.0
C1888 C 0.50159 0.66153 0.43139 0.0
C1889 C 0.51153 0.67563 0.43283 0.0
C1890 C 0.51678 0.64857 0.4535 0.0
C1891 C 0.524 0.67566 0.44487 0.0
C1892 C 0.53023 0.63603 0.47841 0.0
C1893 C 0.51515 0.60623 0.47111 0.0
N1894 N 0.52625 0.66237 0.45473 0.0
N1895 N 0.51269 0.61961 0.46141 0.0
H1896 H 0.86548 0.75153 0.74671 0.0
H1897 H 0.91905 0.78762 0.67268 0.0
H1898 H 0.85194 0.79454 0.71881 0.0
H1899 H 0.92802 0.74029 0.69493 0.0
H1900 H 0.8952 0.79102 0.6904 0.0
H1901 H 0.88939 0.74798 0.72895 0.0
C1902 C 0.86758 0.76027 0.73689 0.0
C1903 C 0.85669 0.77335 0.73423 0.0
C1904 C 0.90238 0.77988 0.69139 0.0
C1905 C 0.88399 0.76933 0.71382 0.0
C1906 C 0.91596 0.77787 0.6812 0.0
C1907 C 0.92558 0.76361 0.68223 0.0
C1908 C 0.89836 0.76757 0.7028 0.0
C1909 C 0.92113 0.75159 0.69382 0.0
C1910 C 0.88117 0.75818 0.7267 0.0
C1911 C 0.8599 0.78418 0.72118 0.0
N1912 N 0.90786 0.75385 0.70364 0.0
N1913 N 0.87328 0.78195 0.71151 0.0
H1914 H 0.00099 0.90528 0.53131 0.0
H1915 H 0.03918 0.82315 0.56766 0.0
H1916 H 0.04511 0.88344 0.51177 0.0
H1917 H 0.98731 0.83393 0.57022 0.0
H1918 H 0.04286 0.84701 0.54986 0.0
H1919 H 0.99702 0.88099 0.54846 0.0
C1920 C 0.0098 0.89539 0.53049 0.0
C1921 C 0.02341 0.89651 0.51996 0.0
C1922 C 0.03068 0.84409 0.55432 0.0
C1923 C 0.0191 0.86881 0.53997 0.0
C1924 C 0.02852 0.8304 0.56442 0.0
C1925 C 0.01288 0.82638 0.57052 0.0
C1926 C 0.01718 0.85405 0.55045 0.0
C1927 C 0.99966 0.83661 0.56614 0.0
C1928 C 0.00755 0.88155 0.54038 0.0
C1929 C 0.03459 0.88336 0.51985 0.0
N1930 N 0.00212 0.84999 0.55645 0.0
N1931 N 0.03222 0.87011 0.52974 0.0
H1932 H 0.13754 0.75074 0.74731 0.0
H1933 H 0.08973 0.72343 0.66523 0.0
H1934 H 0.15288 0.71055 0.71632 0.0
H1935 H 0.07051 0.75828 0.70029 0.0
H1936 H 0.11376 0.71967 0.68293 0.0
H1937 H 0.11387 0.75503 0.72918 0.0
C1938 C 0.13598 0.74288 0.73663 0.0
C1939 C 0.14719 0.73025 0.73334 0.0
C1940 C 0.10428 0.72814 0.68674 0.0
C1941 C 0.12006 0.73502 0.71259 0.0
C1942 C 0.09049 0.73024 0.67668 0.0
C1943 C 0.078 0.74116 0.68126 0.0
C1944 C 0.10566 0.73707 0.7015 0.0
C1945 C 0.07989 0.74989 0.69611 0.0
C1946 C 0.12241 0.74527 0.72635 0.0
C1947 C 0.14443 0.7203 0.71944 0.0
N1948 N 0.09344 0.74765 0.70568 0.0
N1949 N 0.13117 0.72292 0.70957 0.0
H1950 H 0.99509 0.59264 0.5382 0.0
H1951 H 0.9702 0.68554 0.55819 0.0
H1952 H 0.96436 0.62192 0.50636 0.0
H1953 H 0.00949 0.66012 0.58329 0.0
H1954 H 0.96647 0.66171 0.54025 0.0
H1955 H 0.99886 0.61651 0.55624 0.0
C1956 C 0.98908 0.60408 0.53505 0.0
C1957 C 0.97941 0.60531 0.52075 0.0
C1958 C 0.97592 0.66136 0.54967 0.0
C1959 C 0.9837 0.63267 0.5413 0.0
C1960 C 0.97813 0.67502 0.55988 0.0
C1961 C 0.99022 0.67493 0.5723 0.0
C1962 C 0.98577 0.64741 0.55191 0.0
C1963 C 0.99985 0.66072 0.57408 0.0
C1964 C 0.99132 0.61772 0.54529 0.0
C1965 C 0.97206 0.62048 0.51717 0.0
N1966 N 0.9974 0.64755 0.56403 0.0
N1967 N 0.97431 0.63355 0.5274 0.0
H1968 H 0.74873 0.87495 0.22407 0.0
H1969 H 0.8399 0.90817 0.23701 0.0
H1970 H 0.78891 0.84304 0.23758 0.0
H1971 H 0.79741 0.93876 0.24435 0.0
H1972 H 0.82174 0.88425 0.23373 0.0
H1973 H 0.76672 0.89867 0.22829 0.0
C1974 C 0.76126 0.87286 0.22805 0.0
C1975 C 0.76722 0.85684 0.23051 0.0
C1976 C 0.81641 0.89619 0.23611 0.0
C1977 C 0.78801 0.88407 0.23491 0.0
C1978 C 0.82673 0.90983 0.23789 0.0
C1979 C 0.82011 0.92542 0.24095 0.0
C1980 C 0.79932 0.89822 0.23712 0.0
C1981 C 0.80299 0.92691 0.24212 0.0
C1982 C 0.77154 0.88645 0.23036 0.0
C1983 C 0.78377 0.85505 0.23525 0.0
N1984 N 0.79316 0.91349 0.24007 0.0
N1985 N 0.79358 0.86848 0.23721 0.0
H1986 H 0.78728 0.15249 0.29442 0.0
H1987 H 0.81171 0.0759 0.23765 0.0
H1988 H 0.76164 0.13958 0.24956 0.0
H1989 H 0.83216 0.0845 0.28608 0.0
H1990 H 0.79436 0.10007 0.24104 0.0
H1991 H 0.80518 0.12872 0.29065 0.0
C1992 C 0.78549 0.14472 0.28371 0.0
C1993 C 0.77293 0.14803 0.27229 0.0
C1994 C 0.80264 0.09666 0.25093 0.0
C1995 C 0.7933 0.12071 0.26796 0.0
C1996 C 0.81251 0.08279 0.24904 0.0
C1997 C 0.82342 0.07808 0.26161 0.0
C1998 C 0.80371 0.10598 0.26547 0.0
C1999 C 0.82411 0.08775 0.27596 0.0
C2000 C 0.79564 0.13108 0.28162 0.0
C2001 C 0.77104 0.13739 0.25877 0.0
N2002 N 0.8144 0.10121 0.27749 0.0
N2003 N 0.78112 0.12424 0.25697 0.0
H2004 H 0.40794 0.96872 0.99976 0.0
H2005 H 0.31767 0.94367 0.96917 0.0
H2006 H 0.38181 0.99424 0.96116 0.0
H2007 H 0.34008 0.92444 0.01339 0.0
H2008 H 0.34163 0.96133 0.96521 0.0
H2009 H 0.38378 0.95141 0.00412 0.0
C2010 C 0.39711 0.97078 0.99226 0.0
C2011 C 0.39697 0.98301 0.98007 0.0
C2012 C 0.34129 0.95326 0.9758 0.0
C2013 C 0.36929 0.963 0.98485 0.0
C2014 C 0.32756 0.94323 0.97813 0.0
C2015 C 0.32679 0.93253 0.99166 0.0
C2016 C 0.35445 0.95258 0.98703 0.0
C2017 C 0.34019 0.93229 0.00265 0.0
C2018 C 0.38334 0.96081 0.9947 0.0
C2019 C 0.38263 0.98483 0.97053 0.0
N2020 N 0.35345 0.94214 1.00008 0.0
N2021 N 0.36941 0.97494 0.97311 0.0
H2022 H 0.25121 0.37488 0.28833 0.0
H2023 H 0.17113 0.41083 0.24372 0.0
H2024 H 0.21831 0.34551 0.25845 0.0
H2025 H 0.19984 0.43805 0.27945 0.0
H2026 H 0.18916 0.38725 0.24772 0.0
H2027 H 0.23356 0.39871 0.28376 0.0
C2028 C 0.24031 0.37347 0.28073 0.0
C2029 C 0.23623 0.35817 0.27377 0.0
C2030 C 0.19152 0.39838 0.25468 0.0
C2031 C 0.2159 0.38538 0.26858 0.0
C2032 C 0.18117 0.41185 0.25247 0.0
C2033 C 0.18389 0.42648 0.26131 0.0
C2034 C 0.20477 0.39953 0.26576 0.0
C2035 C 0.19734 0.42713 0.27221 0.0
C2036 C 0.23019 0.38705 0.27821 0.0
C2037 C 0.22184 0.35701 0.26422 0.0
N2038 N 0.20726 0.41386 0.27413 0.0
N2039 N 0.21222 0.37044 0.26188 0.0
H2040 H 0.09387 0.03679 0.49771 0.0
H2041 H 0.18875 0.05228 0.47675 0.0
H2042 H 0.12175 0.00617 0.46472 0.0
H2043 H 0.15957 0.08562 0.5057 0.0
H2044 H 0.16472 0.03443 0.47341 0.0
H2045 H 0.11819 0.05405 0.50197 0.0
C2046 C 0.10513 0.03365 0.49143 0.0
C2047 C 0.10575 0.02003 0.48082 0.0
C2048 C 0.16357 0.04565 0.4805 0.0
C2049 C 0.13363 0.0398 0.48555 0.0
C2050 C 0.17731 0.05579 0.4825 0.0
C2051 C 0.17617 0.07048 0.4915 0.0
C2052 C 0.14856 0.05017 0.48762 0.0
C2053 C 0.16096 0.07452 0.49848 0.0
C2054 C 0.11899 0.04356 0.49379 0.0
C2055 C 0.12063 0.01667 0.47284 0.0
N2056 N 0.14777 0.06442 0.49642 0.0
N2057 N 0.13397 0.02647 0.47539 0.0
H2058 H 0.71146 0.1604 0.73844 0.0
H2059 H 0.70415 0.06265 0.7415 0.0
H2060 H 0.74991 0.12816 0.72147 0.0
H2061 H 0.66182 0.09435 0.74039 0.0
H2062 H 0.7219 0.08674 0.73773 0.0
H2063 H 0.69373 0.13647 0.74243 0.0
C2064 C 0.71619 0.14835 0.73544 0.0
C2065 C 0.73228 0.1464 0.72956 0.0
C2066 C 0.70873 0.08841 0.7383 0.0
C2067 C 0.71208 0.11888 0.73451 0.0
C2068 C 0.69862 0.0747 0.74056 0.0
C2069 C 0.68151 0.07654 0.74124 0.0
C2070 C 0.70169 0.10409 0.73696 0.0
C2071 C 0.67495 0.09241 0.73978 0.0
C2072 C 0.70606 0.13468 0.73782 0.0
C2073 C 0.73774 0.13034 0.72629 0.0
N2074 N 0.68506 0.10559 0.73779 0.0
N2075 N 0.72769 0.11723 0.72886 0.0
H2076 H 0.40364 0.03942 0.54177 0.0
H2077 H 0.31561 0.05174 0.49989 0.0
H2078 H 0.38401 0.00648 0.50486 0.0
H2079 H 0.34198 0.09109 0.52414 0.0
H2080 H 0.33947 0.03389 0.50373 0.0
H2081 H 0.37999 0.0575 0.53762 0.0
C2082 C 0.39431 0.03598 0.53283 0.0
C2083 C 0.39576 0.02144 0.52364 0.0
C2084 C 0.34005 0.04644 0.50817 0.0
C2085 C 0.3687 0.04201 0.51886 0.0
C2086 C 0.32642 0.05659 0.50607 0.0
C2087 C 0.32684 0.0729 0.51172 0.0
C2088 C 0.35413 0.05257 0.51618 0.0
C2089 C 0.34121 0.07863 0.51949 0.0
C2090 C 0.38089 0.04634 0.5304 0.0
C2091 C 0.38342 0.01764 0.5121 0.0
N2092 N 0.35426 0.06844 0.52158 0.0
N2093 N 0.37036 0.02782 0.5101 0.0
H2094 H 0.59818 0.46417 0.54083 0.0
H2095 H 0.68796 0.45478 0.5033 0.0
H2096 H 0.61862 0.4992 0.50673 0.0
H2097 H 0.66003 0.41351 0.52142 0.0
H2098 H 0.66393 0.47241 0.5072 0.0
H2099 H 0.62207 0.44646 0.53657 0.0
C2100 C 0.60773 0.46813 0.53247 0.0
C2101 C 0.60645 0.48314 0.5241 0.0
C2102 C 0.66306 0.45949 0.51028 0.0
C2103 C 0.6338 0.46305 0.51926 0.0
C2104 C 0.67678 0.44947 0.50816 0.0
C2105 C 0.67594 0.43269 0.51204 0.0
C2106 C 0.6485 0.45272 0.51659 0.0
C2107 C 0.66112 0.42637 0.51816 0.0
C2108 C 0.6213 0.458 0.52999 0.0
C2109 C 0.61909 0.48765 0.51331 0.0
N2110 N 0.64801 0.43641 0.52035 0.0
N2111 N 0.63231 0.4777 0.51128 0.0
H2112 H 0.7537 0.2593 0.36291 0.0
H2113 H 0.71321 0.32525 0.42304 0.0
H2114 H 0.70655 0.2815 0.35351 0.0
H2115 H 0.76509 0.3143 0.4234 0.0
H2116 H 0.70977 0.30742 0.39908 0.0
H2117 H 0.75725 0.27731 0.38688 0.0
C2118 C 0.74408 0.26793 0.36594 0.0
C2119 C 0.72982 0.26893 0.35621 0.0
C2120 C 0.72191 0.30896 0.40441 0.0
C2121 C 0.73378 0.28954 0.38358 0.0
C2122 C 0.72392 0.31923 0.41806 0.0
C2123 C 0.7395 0.3214 0.42531 0.0
C2124 C 0.73552 0.30061 0.39801 0.0
C2125 C 0.75281 0.31287 0.41845 0.0
C2126 C 0.74615 0.27826 0.37954 0.0
C2127 C 0.7178 0.28044 0.36059 0.0
N2128 N 0.7505 0.30284 0.40523 0.0
N2129 N 0.72002 0.29024 0.37399 0.0
H2130 H 0.50982 0.04466 0.88243 0.0
H2131 H 0.57342 0.98654 0.83654 0.0
H2132 H 0.53187 0.00239 0.90576 0.0
H2133 H 0.56526 0.03709 0.82249 0.0
H2134 H 0.55593 0.9907 0.86048 0.0
H2135 H 0.52771 0.04062 0.85879 0.0
C2136 C 0.51848 0.0346 0.88269 0.0
C2137 C 0.51933 0.02391 0.89625 0.0
C2138 C 0.55801 0.00087 0.85214 0.0
C2139 C 0.53961 0.01901 0.86892 0.0
C2140 C 0.56809 0.99855 0.83849 0.0
C2141 C 0.57093 0.01149 0.82739 0.0
C2142 C 0.55051 0.01616 0.85465 0.0
C2143 C 0.56326 0.02664 0.83047 0.0
C2144 C 0.52863 0.03226 0.86911 0.0
C2145 C 0.53055 0.01083 0.89556 0.0
N2146 N 0.55338 0.02853 0.84376 0.0
N2147 N 0.54021 0.00873 0.88212 0.0
H2148 H 0.29166 0.21645 0.34991 0.0
H2149 H 0.24359 0.20277 0.43453 0.0
H2150 H 0.25295 0.24838 0.3666 0.0
H2151 H 0.27638 0.16703 0.4134 0.0
H2152 H 0.24775 0.22037 0.41046 0.0
H2153 H 0.28711 0.19885 0.37381 0.0
C2154 C 0.28223 0.21978 0.35865 0.0
C2155 C 0.2727 0.23392 0.35628 0.0
C2156 C 0.254 0.20865 0.41108 0.0
C2157 C 0.26736 0.21379 0.38366 0.0
C2158 C 0.25171 0.19866 0.42485 0.0
C2159 C 0.25965 0.18341 0.42596 0.0
C2160 C 0.26442 0.20343 0.39839 0.0
C2161 C 0.26987 0.1786 0.41297 0.0
C2162 C 0.27957 0.20968 0.37224 0.0
C2163 C 0.26049 0.23752 0.36787 0.0
N2164 N 0.27201 0.1886 0.39977 0.0
N2165 N 0.25822 0.22756 0.3811 0.0
H2166 H 0.49883 0.4965 0.88465 0.0
H2167 H 0.41156 0.47908 0.84271 0.0
H2168 H 0.46388 0.46164 0.90427 0.0
H2169 H 0.45244 0.50034 0.8166 0.0
H2170 H 0.42943 0.47517 0.86677 0.0
H2171 H 0.48092 0.50041 0.86083 0.0
C2172 C 0.48747 0.48956 0.88394 0.0
C2173 C 0.48296 0.47864 0.89655 0.0
C2174 C 0.43448 0.48066 0.85576 0.0
C2175 C 0.46219 0.48341 0.86936 0.0
C2176 C 0.42428 0.48298 0.84208 0.0
C2177 C 0.43056 0.49002 0.82766 0.0
C2178 C 0.45101 0.48562 0.85507 0.0
C2179 C 0.44716 0.49472 0.82743 0.0
C2180 C 0.4772 0.49189 0.87035 0.0
C2181 C 0.46783 0.47036 0.89503 0.0
N2182 N 0.4568 0.49251 0.84096 0.0
N2183 N 0.45798 0.47294 0.88172 0.0
H2184 H 0.74968 0.74564 0.13923 0.0
H2185 H 0.71389 0.67226 0.08373 0.0
H2186 H 0.70542 0.71872 0.15083 0.0
H2187 H 0.7616 0.6943 0.07621 0.0
H2188 H 0.71011 0.68988 0.10775 0.0
H2189 H 0.75381 0.72765 0.11552 0.0
C2190 C 0.74088 0.73589 0.13688 0.0
C2191 C 0.72717 0.73372 0.1471 0.0
C2192 C 0.72141 0.69085 0.10086 0.0
C2193 C 0.73172 0.71319 0.11977 0.0
C2194 C 0.72363 0.68071 0.08718 0.0
C2195 C 0.73812 0.68173 0.0779 0.0
C2196 C 0.73373 0.70217 0.10533 0.0
C2197 C 0.75015 0.6932 0.08282 0.0
C2198 C 0.7432 0.72567 0.12327 0.0
C2199 C 0.71603 0.72104 0.1432 0.0
N2200 N 0.74768 0.70296 0.09618 0.0
N2201 N 0.71855 0.71128 0.12986 0.0
H2202 H 0.96571 0.04323 0.0991 0.0
H2203 H 0.95258 0.99803 0.18539 0.0
H2204 H 0.99777 0.00507 0.11704 0.0
H2205 H 0.91469 0.02602 0.16105 0.0
H2206 H 0.97044 0.00233 0.16161 0.0
H2207 H 0.94791 0.03892 0.12291 0.0
C2208 C 0.96902 0.03398 0.1081 0.0
C2209 C 0.98323 0.02449 0.10611 0.0
C2210 C 0.95821 0.00749 0.16146 0.0
C2211 C 0.96295 0.01949 0.13336 0.0
C2212 C 0.94805 0.00513 0.17506 0.0
C2213 C 0.93213 0.01167 0.17517 0.0
C2214 C 0.95246 0.01662 0.14796 0.0
C2215 C 0.92682 0.02063 0.16139 0.0
C2216 C 0.95882 0.03146 0.12162 0.0
C2217 C 0.98685 0.01255 0.11803 0.0
N2218 N 0.93699 0.0229 0.14838 0.0
N2219 N 0.97682 0.01044 0.1312 0.0
H2220 H 0.25989 0.79085 0.16093 0.0
H2221 H 0.26531 0.80019 0.06313 0.0
H2222 H 0.28073 0.75401 0.12899 0.0
H2223 H 0.25481 0.8408 0.09568 0.0
H2224 H 0.26894 0.78245 0.08704 0.0
H2225 H 0.25597 0.80872 0.13709 0.0
C2226 C 0.26373 0.78652 0.14895 0.0
C2227 C 0.27067 0.77085 0.14703 0.0
C2228 C 0.26585 0.79525 0.08895 0.0
C2229 C 0.26595 0.79121 0.11961 0.0
C2230 C 0.26386 0.80543 0.07529 0.0
C2231 C 0.25984 0.82209 0.07734 0.0
C2232 C 0.26372 0.80169 0.10484 0.0
C2233 C 0.25773 0.82802 0.09345 0.0
C2234 C 0.2614 0.79672 0.13532 0.0
C2235 C 0.27509 0.76585 0.13109 0.0
N2236 N 0.2597 0.81784 0.10657 0.0
N2237 N 0.27264 0.77598 0.11803 0.0
H2238 H 0.03674 0.4905 0.09441 0.0
H2239 H 0.04972 0.47715 0.19132 0.0
H2240 H 0.0012 0.46656 0.1256 0.0
H2241 H 0.08553 0.50033 0.15987 0.0
H2242 H 0.03155 0.47359 0.16751 0.0
H2243 H 0.0547 0.49435 0.1183 0.0
C2244 C 0.03274 0.48597 0.10626 0.0
C2245 C 0.01743 0.47817 0.10797 0.0
C2246 C 0.04338 0.47946 0.16581 0.0
C2247 C 0.03789 0.4827 0.13546 0.0
C2248 C 0.05373 0.48158 0.17943 0.0
C2249 C 0.06919 0.48905 0.1776 0.0
C2250 C 0.0485 0.48485 0.15024 0.0
C2251 C 0.07382 0.49432 0.16183 0.0
C2252 C 0.04297 0.48826 0.11993 0.0
C2253 C 0.0128 0.47281 0.12372 0.0
N2254 N 0.06353 0.49213 0.14878 0.0
N2255 N 0.02299 0.47516 0.13683 0.0
H2256 H 0.37389 0.72185 0.25006 0.0
H2257 H 0.40707 0.74011 0.34052 0.0
H2258 H 0.34253 0.74048 0.28835 0.0
H2259 H 0.43833 0.74338 0.29796 0.0
H2260 H 0.3832 0.73679 0.32223 0.0
H2261 H 0.39779 0.72621 0.26812 0.0
C2262 C 0.37207 0.72684 0.26229 0.0
C2263 C 0.35627 0.73083 0.26776 0.0
C2264 C 0.39528 0.73829 0.31691 0.0
C2265 C 0.38341 0.73569 0.28845 0.0
C2266 C 0.40887 0.7401 0.32731 0.0
C2267 C 0.42464 0.74202 0.32069 0.0
C2268 C 0.39752 0.73809 0.29979 0.0
C2269 C 0.42634 0.74204 0.30352 0.0
C2270 C 0.38568 0.7294 0.27252 0.0
C2271 C 0.35454 0.73735 0.28366 0.0
N2272 N 0.41295 0.73996 0.29364 0.0
N2273 N 0.36794 0.73946 0.29351 0.0
H2274 H 0.96148 0.40603 0.96382 0.0
H2275 H 0.99514 0.31466 0.95543 0.0
H2276 H 0.99295 0.38411 0.0005 0.0
H2277 H 0.98328 0.34437 0.91312 0.0
H2278 H 0.99095 0.33869 0.9732 0.0
H2279 H 0.96591 0.38212 0.94594 0.0
C2280 C 0.96928 0.39615 0.9681 0.0
C2281 C 0.97689 0.397 0.98361 0.0
C2282 C 0.98931 0.33993 0.96002 0.0
C2283 C 0.98188 0.36967 0.96338 0.0
C2284 C 0.9916 0.32624 0.94992 0.0
C2285 C 0.98956 0.32759 0.93282 0.0
C2286 C 0.98465 0.35498 0.95299 0.0
C2287 C 0.98508 0.34288 0.92625 0.0
C2288 C 0.97187 0.38258 0.95789 0.0
C2289 C 0.98697 0.38394 0.98856 0.0
N2290 N 0.98265 0.35598 0.93636 0.0
N2291 N 0.98908 0.37074 0.97853 0.0
H2292 H 0.6368 0.7502 0.25962 0.0
H2293 H 0.58334 0.78768 0.33297 0.0
H2294 H 0.65037 0.79408 0.28645 0.0
H2295 H 0.5739 0.74011 0.31111 0.0
H2296 H 0.6074 0.79069 0.31542 0.0
H2297 H 0.61301 0.74686 0.27758 0.0
C2298 C 0.63474 0.75916 0.26926 0.0
C2299 C 0.64559 0.77245 0.27153 0.0
C2300 C 0.60008 0.77958 0.31448 0.0
C2301 C 0.61841 0.76867 0.29218 0.0
C2302 C 0.58637 0.7778 0.32457 0.0
C2303 C 0.57653 0.76359 0.32357 0.0
C2304 C 0.60401 0.76711 0.30321 0.0
C2305 C 0.58094 0.75138 0.31218 0.0
C2306 C 0.62121 0.7572 0.27957 0.0
C2307 C 0.64243 0.78356 0.28437 0.0
N2308 N 0.59432 0.75343 0.30245 0.0
N2309 N 0.62911 0.78145 0.29416 0.0
H2310 H 0.00631 0.09473 0.96748 0.0
H2311 H 0.03666 0.18456 0.94224 0.0
H2312 H 0.04159 0.1225 0.9961 0.0
H2313 H 0.99069 0.16371 0.92525 0.0
H2314 H 0.04047 0.16076 0.96008 0.0
H2315 H 0.00241 0.11866 0.9496 0.0
C2316 C 0.01328 0.10585 0.96994 0.0
C2317 C 0.02427 0.10667 0.98328 0.0
C2318 C 0.02955 0.16143 0.95244 0.0
C2319 C 0.01991 0.13402 0.96291 0.0
C2320 C 0.02729 0.17508 0.9423 0.0
C2321 C 0.01329 0.17627 0.93217 0.0
C2322 C 0.01784 0.14872 0.95236 0.0
C2323 C 0.00181 0.1633 0.93258 0.0
C2324 C 0.01098 0.11951 0.95981 0.0
C2325 C 0.03289 0.12142 0.98603 0.0
N2326 N 0.00437 0.15007 0.94246 0.0
N2327 N 0.03059 0.13449 0.97588 0.0
H2328 H 0.37524 0.28356 0.25208 0.0
H2329 H 0.40784 0.25607 0.1635 0.0
H2330 H 0.34387 0.2632 0.21409 0.0
H2331 H 0.4398 0.26949 0.20394 0.0
H2332 H 0.38412 0.25974 0.18144 0.0
H2333 H 0.39893 0.27935 0.23432 0.0
C2334 C 0.37332 0.27809 0.24006 0.0
C2335 C 0.35748 0.2737 0.23462 0.0
C2336 C 0.39632 0.26184 0.1864 0.0
C2337 C 0.38461 0.26909 0.21407 0.0
C2338 C 0.40987 0.25984 0.17614 0.0
C2339 C 0.42584 0.26249 0.18222 0.0
C2340 C 0.39873 0.26663 0.20286 0.0
C2341 C 0.42773 0.26714 0.19878 0.0
C2342 C 0.38687 0.27577 0.22988 0.0
C2343 C 0.35578 0.26698 0.21875 0.0
N2344 N 0.41434 0.26912 0.2085 0.0
N2345 N 0.36916 0.2649 0.20905 0.0
H2346 H 0.50088 0.40642 0.03246 0.0
H2347 H 0.53924 0.324 0.06813 0.0
H2348 H 0.54496 0.38467 0.01275 0.0
H2349 H 0.48745 0.33496 0.07135 0.0
H2350 H 0.54283 0.348 0.05051 0.0
H2351 H 0.49699 0.38208 0.04957 0.0
C2352 C 0.5097 0.39654 0.0316 0.0
C2353 C 0.52328 0.39771 0.02104 0.0
C2354 C 0.53069 0.34509 0.05507 0.0
C2355 C 0.51905 0.36994 0.04099 0.0
C2356 C 0.52857 0.33132 0.06507 0.0
C2357 C 0.51298 0.32731 0.07129 0.0
C2358 C 0.51718 0.35513 0.05141 0.0
C2359 C 0.49976 0.33763 0.06715 0.0
C2360 C 0.50749 0.38268 0.04147 0.0
C2361 C 0.53447 0.38456 0.02086 0.0
N2362 N 0.50218 0.35108 0.05755 0.0
N2363 N 0.53214 0.37129 0.03072 0.0
H2364 H 0.65857 0.2494 0.21863 0.0
H2365 H 0.5693 0.21705 0.19186 0.0
H2366 H 0.63371 0.20881 0.24213 0.0
H2367 H 0.59098 0.26178 0.17328 0.0
H2368 H 0.59352 0.21296 0.20924 0.0
H2369 H 0.63449 0.25347 0.20105 0.0
C2370 C 0.64803 0.24139 0.22018 0.0
C2371 C 0.64821 0.22874 0.23193 0.0
C2372 C 0.59299 0.22368 0.20138 0.0
C2373 C 0.62065 0.2332 0.21162 0.0
C2374 C 0.5792 0.22597 0.19136 0.0
C2375 C 0.5781 0.23978 0.18108 0.0
C2376 C 0.60585 0.23524 0.20107 0.0
C2377 C 0.59122 0.25106 0.18115 0.0
C2378 C 0.63431 0.24368 0.21006 0.0
C2379 C 0.63427 0.21857 0.23311 0.0
N2380 N 0.60455 0.24852 0.19095 0.0
N2381 N 0.62109 0.22102 0.22309 0.0
H2382 H 0.46345 0.12223 0.00566 0.0
H2383 H 0.51119 0.16093 0.08285 0.0
H2384 H 0.49549 0.09408 0.03721 0.0
H2385 H 0.47045 0.18484 0.0586 0.0
H2386 H 0.50705 0.13701 0.06509 0.0
H2387 H 0.46749 0.14611 0.02361 0.0
C2388 C 0.47139 0.12111 0.01634 0.0
C2389 C 0.47916 0.10616 0.01995 0.0
C2390 C 0.49901 0.14749 0.06369 0.0
C2391 C 0.48382 0.13341 0.04056 0.0
C2392 C 0.5013 0.16115 0.07389 0.0
C2393 C 0.49114 0.17499 0.0723 0.0
C2394 C 0.48654 0.14766 0.05168 0.0
C2395 C 0.47876 0.17461 0.06016 0.0
C2396 C 0.47362 0.1347 0.02663 0.0
C2397 C 0.48916 0.10533 0.03406 0.0
N2398 N 0.47684 0.1612 0.05032 0.0
N2399 N 0.49126 0.11878 0.04381 0.0
H2400 H 0.28947 0.3429 0.74051 0.0
H2401 H 0.29821 0.44077 0.73617 0.0
H2402 H 0.25192 0.37454 0.7204 0.0
H2403 H 0.33928 0.40844 0.74466 0.0
H2404 H 0.28034 0.41673 0.73278 0.0
H2405 H 0.30729 0.36686 0.74421 0.0
C2406 C 0.28497 0.35484 0.73677 0.0
C2407 C 0.26912 0.35663 0.7301 0.0
C2408 C 0.29326 0.41489 0.73538 0.0
C2409 C 0.28943 0.3842 0.73461 0.0
C2410 C 0.30344 0.4286 0.73742 0.0
C2411 C 0.32026 0.42659 0.7407 0.0
C2412 C 0.29989 0.39904 0.73678 0.0
C2413 C 0.32642 0.41054 0.74198 0.0
C2414 C 0.29515 0.36854 0.73898 0.0
C2415 C 0.26391 0.37253 0.72583 0.0
N2416 N 0.31623 0.39738 0.74007 0.0
N2417 N 0.27402 0.38568 0.72818 0.0
H2418 H 0.2542 0.62958 0.78726 0.0
H2419 H 0.33338 0.59268 0.74266 0.0
H2420 H 0.28698 0.65861 0.75738 0.0
H2421 H 0.30508 0.5661 0.77879 0.0
H2422 H 0.3157 0.61651 0.7467 0.0
H2423 H 0.27174 0.60567 0.7829 0.0
C2424 C 0.26505 0.6309 0.77971 0.0
C2425 C 0.26912 0.64612 0.77266 0.0
C2426 C 0.31336 0.60546 0.75374 0.0
C2427 C 0.28932 0.6188 0.7677 0.0
C2428 C 0.32351 0.59185 0.75151 0.0
C2429 C 0.32078 0.57732 0.76043 0.0
C2430 C 0.3003 0.60455 0.76493 0.0
C2431 C 0.30755 0.57693 0.77147 0.0
C2432 C 0.27511 0.61727 0.77731 0.0
C2433 C 0.28346 0.64716 0.76319 0.0
N2434 N 0.29783 0.59033 0.7734 0.0
N2435 N 0.29302 0.63368 0.76095 0.0
H2436 H 0.90603 0.46297 0.46229 0.0
H2437 H 0.81554 0.45443 0.49834 0.0
H2438 H 0.88566 0.49832 0.49604 0.0
H2439 H 0.84348 0.41261 0.48195 0.0
H2440 H 0.83983 0.47192 0.49451 0.0
H2441 H 0.88182 0.44541 0.4663 0.0
C2442 C 0.89642 0.46703 0.47051 0.0
C2443 C 0.89781 0.48208 0.47887 0.0
C2444 C 0.84064 0.45891 0.49179 0.0
C2445 C 0.87012 0.46219 0.48342 0.0
C2446 C 0.82678 0.44897 0.49388 0.0
C2447 C 0.82755 0.43208 0.49046 0.0
C2448 C 0.85526 0.45195 0.48598 0.0
C2449 C 0.84244 0.42556 0.48483 0.0
C2450 C 0.88268 0.45699 0.47286 0.0
C2451 C 0.88509 0.48674 0.48947 0.0
N2452 N 0.85569 0.43553 0.48266 0.0
N2453 N 0.87171 0.47688 0.49136 0.0
H2454 H 0.74266 0.86207 0.7484 0.0
H2455 H 0.67596 0.92117 0.78879 0.0
H2456 H 0.71926 0.8518 0.79479 0.0
H2457 H 0.6886 0.92298 0.73724 0.0
H2458 H 0.69339 0.89706 0.79196 0.0
H2459 H 0.72473 0.88594 0.74489 0.0
C2460 C 0.73376 0.86487 0.75785 0.0
C2461 C 0.73242 0.85496 0.77191 0.0
C2462 C 0.69231 0.90273 0.77995 0.0
C2463 C 0.71192 0.88221 0.76799 0.0
C2464 C 0.68227 0.91647 0.77809 0.0
C2465 C 0.6807 0.92418 0.76269 0.0
C2466 C 0.70102 0.89668 0.76638 0.0
C2467 C 0.68957 0.91766 0.7494 0.0
C2468 C 0.72349 0.87843 0.75581 0.0
C2469 C 0.72058 0.85904 0.7837 0.0
N2470 N 0.69937 0.90433 0.75156 0.0
N2471 N 0.71085 0.8724 0.78153 0.0
H2472 H 0.62193 0.50596 0.96393 0.0
H2473 H 0.65833 0.58886 0.00328 0.0
H2474 H 0.59375 0.5383 0.99495 0.0
H2475 H 0.68753 0.55343 0.9769 0.0
H2476 H 0.63437 0.57094 0.99988 0.0
H2477 H 0.64585 0.52378 0.96779 0.0
C2478 C 0.62075 0.51686 0.97149 0.0
C2479 C 0.60579 0.52066 0.97909 0.0
C2480 C 0.64603 0.56709 0.99485 0.0
C2481 C 0.63321 0.5411 0.98369 0.0
C2482 C 0.65975 0.57728 0.99686 0.0
C2483 C 0.67501 0.57268 0.99035 0.0
C2484 C 0.64753 0.55219 0.98624 0.0
C2485 C 0.67599 0.55763 0.98191 0.0
C2486 C 0.63445 0.52699 0.97378 0.0
C2487 C 0.60507 0.53481 0.98899 0.0
N2488 N 0.66246 0.54796 0.98009 0.0
N2489 N 0.61857 0.54454 0.99096 0.0
H2490 H 0.25081 0.62827 0.21956 0.0
H2491 H 0.16158 0.59512 0.24309 0.0
H2492 H 0.21305 0.65951 0.2396 0.0
H2493 H 0.2036 0.56342 0.23796 0.0
H2494 H 0.17953 0.61905 0.23925 0.0
H2495 H 0.23303 0.60447 0.22391 0.0
C2496 C 0.23885 0.63016 0.22499 0.0
C2497 C 0.2335 0.64601 0.22925 0.0
C2498 C 0.18482 0.60685 0.23901 0.0
C2499 C 0.2129 0.61873 0.23392 0.0
C2500 C 0.17458 0.59321 0.24111 0.0
C2501 C 0.18113 0.57728 0.24086 0.0
C2502 C 0.2017 0.60454 0.23643 0.0
C2503 C 0.19808 0.5755 0.2384 0.0
C2504 C 0.22867 0.61654 0.22738 0.0
C2505 C 0.21766 0.64762 0.23587 0.0
N2506 N 0.20777 0.58895 0.23619 0.0
N2507 N 0.20792 0.63418 0.23795 0.0
H2508 H 0.9028 0.53825 0.04349 0.0
H2509 H 0.81666 0.55191 0.99788 0.0
H2510 H 0.88497 0.50665 0.00455 0.0
H2511 H 0.8406 0.58923 0.02734 0.0
H2512 H 0.84051 0.53406 0.00185 0.0
H2513 H 0.87901 0.55609 0.03936 0.0
C2514 C 0.89384 0.53506 0.03409 0.0
C2515 C 0.89585 0.52096 0.02435 0.0
C2516 C 0.84055 0.54617 0.00741 0.0
C2517 C 0.8686 0.54129 0.01955 0.0
C2518 C 0.82691 0.55631 0.00524 0.0
C2519 C 0.82666 0.57208 0.01228 0.0
C2520 C 0.85397 0.55177 0.01685 0.0
C2521 C 0.84035 0.57723 0.02156 0.0
C2522 C 0.88032 0.54528 0.03168 0.0
C2523 C 0.88396 0.51749 0.01223 0.0
N2524 N 0.85341 0.56708 0.02363 0.0
N2525 N 0.8708 0.52754 0.01023 0.0
H2526 H 0.09911 0.96624 0.0428 0.0
H2527 H 0.18483 0.95284 0.99716 0.0
H2528 H 0.11645 0.99791 0.00399 0.0
H2529 H 0.16164 0.91576 0.02713 0.0
H2530 H 0.16085 0.97051 0.00096 0.0
H2531 H 0.12294 0.94852 0.03866 0.0
C2532 C 0.10797 0.96948 0.03344 0.0
C2533 C 0.10582 0.98357 0.02373 0.0
C2534 C 0.161 0.95849 0.00666 0.0
C2535 C 0.1331 0.96335 0.01891 0.0
C2536 C 0.17471 0.94845 0.00459 0.0
C2537 C 0.17522 0.93281 0.01184 0.0
C2538 C 0.14777 0.95293 0.01622 0.0
C2539 C 0.16169 0.92766 0.02118 0.0
C2540 C 0.12152 0.95932 0.03101 0.0
C2541 C 0.11757 0.98708 0.01164 0.0
N2542 N 0.14856 0.93772 0.02316 0.0
N2543 N 0.13076 0.97708 0.00963 0.0
loop_
_geom_bond_atom_site_label_1
_geom_bond_atom_site_label_2
_geom_bond_distance
_geom_bond_site_symmetry_2
_ccdc_geom_bond_type
C0 C1 1.386 . S
C0 C2 1.397 . S
C0 H24 0.931 . S
C1 C0 1.386 . S
C1 C5 1.397 1_556 S
C2 C0 1.397 . S
C2 C3 1.384 1_556 S
C2 H25 0.930 . S
C3 C2 1.384 1_554 S
C3 C4 1.377 . S
C3 C6 1.481 . S
C4 C3 1.377 . S
C4 C5 1.389 . S
C4 H26 0.929 . S
C5 C1 1.397 1_554 S
C5 C4 1.389 . S
C5 H27 0.931 . S
C6 C3 1.481 . S
C6 C7 1.387 . S
C6 C11 1.390 . S
C7 C6 1.387 . S
C7 C8 1.401 . S
C7 H28 0.930 . S
C8 C7 1.401 . S
C8 C9 1.376 . S
C8 C17 1.511 . S
C9 C8 1.376 . S
C9 C10 1.392 . S
C9 H30 0.931 . S
C10 C9 1.392 . S
C10 C11 1.361 . S
C10 C12 1.500 . S
C11 C6 1.390 . S
C11 C10 1.361 . S
C11 H29 0.931 . S
C12 C10 1.500 . S
C12 C13 1.371 . S
C12 C14 1.365 . S
C13 C12 1.371 . S
C13 C23 1.386 1_455 S
C13 H31 0.931 . S
C14 C12 1.365 . S
C14 C15 1.409 1_455 S
C14 H32 0.929 . S
C15 C14 1.409 1_655 S
C15 C16 1.380 . S
C15 H33 0.930 . S
C16 C15 1.380 . S
C16 C23 1.357 . S
C17 C8 1.511 . S
C17 C18 1.341 . S
C17 C19 1.350 1_545 S
C18 C17 1.341 . S
C18 C22 1.394 1_545 S
C18 H34 0.930 . S
C19 C17 1.350 1_565 S
C19 C20 1.415 . S
C19 H35 0.931 . S
C20 C19 1.415 . S
C20 C21 1.331 . S
C20 H38 0.932 . S
C21 C20 1.331 . S
C21 C22 1.336 . S
C22 C18 1.394 1_565 S
C22 C21 1.336 . S
C22 H37 0.877 1_554 S
C23 C13 1.386 1_655 S
C23 C16 1.357 . S
C23 H36 0.928 1_545 S
H24 C0 0.931 . S
H25 C2 0.930 . S
H26 C4 0.929 . S
H27 C5 0.931 . S
H28 C7 0.930 . S
H29 C11 0.931 . S
H30 C9 0.931 . S
H31 C13 0.931 . S
H32 C14 0.929 . S
H33 C15 0.930 . S
H34 C18 0.930 . S
H35 C19 0.931 . S
H36 C23 0.928 1_565 S
H37 C22 0.877 1_556 S
H38 C20 0.932 . S
C39 C40 1.386 . S
C39 C41 1.397 . S
C39 H63 0.931 . S
C40 C39 1.386 . S
C40 C44 1.397 . S
C41 C39 1.397 . S
C41 C42 1.384 . S
C41 H64 0.930 . S
C42 C41 1.384 . S
C42 C43 1.377 . S
C42 C45 1.481 . S
C43 C42 1.377 . S
C43 C44 1.389 . S
C43 H65 0.929 . S
C44 C40 1.397 . S
C44 C43 1.389 . S
C44 H66 0.931 . S
C45 C42 1.481 . S
C45 C46 1.387 . S
C45 C50 1.390 . S
C46 C45 1.387 . S
C46 C47 1.401 . S
C46 H67 0.930 . S
C47 C46 1.401 . S
C47 C48 1.376 . S
C47 C56 1.511 . S
C48 C47 1.376 . S
C48 C49 1.392 . S
C48 H69 0.931 . S
C49 C48 1.392 . S
C49 C50 1.361 . S
C49 C51 1.500 . S
C50 C45 1.390 . S
C50 C49 1.361 . S
C50 H68 0.931 . S
C51 C49 1.500 . S
C51 C52 1.371 . S
C51 C53 1.365 . S
C52 C51 1.371 . S
C52 C62 1.386 . S
C52 H70 0.931 . S
C53 C51 1.365 . S
C53 C54 1.409 . S
C53 H71 0.929 . S
C54 C53 1.409 . S
C54 C55 1.380 . S
C54 H72 0.930 . S
C55 C54 1.380 . S
C55 C62 1.357 . S
C56 C47 1.511 . S
C56 C57 1.341 . S
C56 C58 1.371 . S
C57 C56 1.341 . S
C57 C61 1.394 . S
C57 H73 0.930 . S
C58 C56 1.371 . S
C58 C59 1.392 . S
C58 H74 0.931 . S
C59 C58 1.392 . S
C59 C60 1.331 . S
C59 H77 0.932 . S
C60 C59 1.331 . S
C60 C61 1.336 . S
C61 C57 1.394 . S
C61 C60 1.336 . S
C61 H76 0.929 . S
C62 C52 1.386 . S
C62 C55 1.357 . S
C62 H75 0.928 . S
H63 C39 0.931 . S
H64 C41 0.930 . S
H65 C43 0.929 . S
H66 C44 0.931 . S
H67 C46 0.930 . S
H68 C50 0.931 . S
H69 C48 0.931 . S
H70 C52 0.931 . S
H71 C53 0.929 . S
H72 C54 0.930 . S
H73 C57 0.930 . S
H74 C58 0.931 . S
H75 C62 0.928 . S
H76 C61 0.929 . S
H77 C59 0.932 . S
C78 C79 1.386 1_655 S
C78 C80 1.397 . S
C78 H102 0.931 . S
C79 C78 1.386 1_455 S
C79 C83 1.397 . S
C80 C78 1.397 . S
C80 C81 1.384 . S
C80 H103 0.930 . S
C81 C80 1.384 . S
C81 C82 1.377 1_655 S
C81 C84 1.481 . S
C82 C81 1.377 1_455 S
C82 C83 1.389 . S
C82 H104 0.929 . S
C83 C79 1.397 . S
C83 C82 1.389 . S
C83 H105 0.931 . S
C84 C81 1.481 . S
C84 C85 1.387 . S
C84 C89 1.390 . S
C85 C84 1.387 . S
C85 C86 1.401 . S
C85 H106 0.930 . S
C86 C85 1.401 . S
C86 C87 1.376 . S
C86 C95 1.511 . S
C87 C86 1.376 . S
C87 C88 1.392 . S
C87 H108 0.931 . S
C88 C87 1.392 . S
C88 C89 1.361 . S
C88 C90 1.500 . S
C89 C84 1.390 . S
C89 C88 1.361 . S
C89 H107 0.931 . S
C90 C88 1.500 . S
C90 C91 1.371 . S
C90 C92 1.365 . S
C91 C90 1.371 . S
C91 C101 1.386 1_554 S
C91 H109 0.931 . S
C92 C90 1.365 . S
C92 C93 1.409 1_554 S
C92 H110 0.929 . S
C93 C92 1.409 1_556 S
C93 C94 1.380 . S
C93 H111 0.930 1_655 S
C94 C93 1.380 . S
C94 C101 1.357 . S
C95 C86 1.511 . S
C95 C96 1.341 . S
C95 C97 1.371 . S
C96 C95 1.341 . S
C96 C100 1.394 . S
C96 H112 0.930 . S
C97 C95 1.371 . S
C97 C98 1.392 . S
C97 H113 0.931 . S
C98 C97 1.392 . S
C98 C99 1.331 . S
C98 H116 0.929 1_554 S
C99 C98 1.331 . S
C99 C100 1.336 . S
C100 C96 1.394 . S
C100 C99 1.336 . S
C100 H115 0.929 . S
C101 C91 1.386 1_556 S
C101 C94 1.357 . S
C101 H114 0.928 . S
H102 C78 0.931 . S
H103 C80 0.930 . S
H104 C82 0.929 . S
H105 C83 0.931 . S
H106 C85 0.930 . S
H107 C89 0.931 . S
H108 C87 0.931 . S
H109 C91 0.931 . S
H110 C92 0.929 . S
H111 C93 0.930 1_455 S
H112 C96 0.930 . S
H113 C97 0.931 . S
H114 C101 0.928 . S
H115 C100 0.929 . S
H116 C98 0.929 1_556 S
C117 C118 1.386 . S
C117 C119 1.397 . S
C117 H141 0.931 . S
C118 C117 1.386 . S
C118 C122 1.397 . S
C119 C117 1.397 . S
C119 C120 1.384 . S
C119 H142 0.930 . S
C120 C119 1.384 . S
C120 C121 1.377 . S
C120 C123 1.481 . S
C121 C120 1.377 . S
C121 C122 1.389 . S
C121 H143 0.929 . S
C122 C118 1.397 . S
C122 C121 1.389 . S
C122 H144 0.931 . S
C123 C120 1.481 . S
C123 C124 1.387 . S
C123 C128 1.390 . S
C124 C123 1.387 . S
C124 C125 1.401 . S
C124 H145 0.930 . S
C125 C124 1.401 . S
C125 C126 1.376 . S
C125 C134 1.511 . S
C126 C125 1.376 . S
C126 C127 1.392 . S
C126 H147 0.931 . S
C127 C126 1.392 . S
C127 C128 1.361 . S
C127 C129 1.500 . S
C128 C123 1.390 . S
C128 C127 1.361 . S
C128 H146 0.931 . S
C129 C127 1.500 . S
C129 C130 1.371 . S
C129 C131 1.365 . S
C130 C129 1.371 . S
C130 C140 1.386 . S
C130 H148 0.931 . S
C131 C129 1.365 . S
C131 C132 1.409 . S
C131 H149 0.929 . S
C132 C131 1.409 . S
C132 C133 1.380 . S
C132 H150 0.930 . S
C133 C132 1.380 . S
C133 C140 1.357 . S
C134 C125 1.511 . S
C134 C135 1.341 . S
C134 C136 1.371 . S
C135 C134 1.341 . S
C135 C139 1.394 . S
C135 H151 0.930 . S
C136 C134 1.371 . S
C136 C137 1.392 . S
C136 H152 0.931 . S
C137 C136 1.392 . S
C137 C138 1.331 . S
C137 H155 0.932 . S
C138 C137 1.331 . S
C138 C139 1.336 . S
C139 C135 1.394 . S
C139 C138 1.336 . S
C139 H154 0.929 . S
C140 C130 1.386 . S
C140 C133 1.357 . S
C140 H153 0.928 . S
H141 C117 0.931 . S
H142 C119 0.930 . S
H143 C121 0.929 . S
H144 C122 0.931 . S
H145 C124 0.930 . S
H146 C128 0.931 . S
H147 C126 0.931 . S
H148 C130 0.931 . S
H149 C131 0.929 . S
H150 C132 0.930 . S
H151 C135 0.930 . S
H152 C136 0.931 . S
H153 C140 0.928 . S
H154 C139 0.929 . S
H155 C137 0.932 . S
C156 C157 1.386 . S
C156 C158 1.397 . S
C156 H180 0.931 . S
C157 C156 1.386 . S
C157 C161 1.397 1_655 S
C158 C156 1.397 . S
C158 C159 1.384 1_655 S
C158 H181 0.930 . S
C159 C158 1.384 1_455 S
C159 C160 1.377 . S
C159 C162 1.481 . S
C160 C159 1.377 . S
C160 C161 1.389 . S
C160 H182 0.929 . S
C161 C157 1.397 1_455 S
C161 C160 1.389 . S
C161 H183 0.931 . S
C162 C159 1.481 . S
C162 C163 1.387 . S
C162 C167 1.390 . S
C163 C162 1.387 . S
C163 C164 1.401 . S
C163 H184 0.930 . S
C164 C163 1.401 . S
C164 C165 1.376 . S
C164 C173 1.511 . S
C165 C164 1.376 . S
C165 C166 1.392 . S
C165 H186 0.931 . S
C166 C165 1.392 . S
C166 C167 1.361 . S
C166 C168 1.500 . S
C167 C162 1.390 . S
C167 C166 1.361 . S
C167 H185 0.931 . S
C168 C166 1.500 . S
C168 C169 1.371 . S
C168 C170 1.365 . S
C169 C168 1.371 . S
C169 C179 1.386 1_565 S
C169 H187 0.931 . S
C170 C168 1.365 . S
C170 C171 1.409 1_565 S
C170 H188 0.929 . S
C171 C170 1.409 1_545 S
C171 C172 1.380 . S
C171 H189 0.930 . S
C172 C171 1.380 . S
C172 C179 1.357 . S
C173 C164 1.511 . S
C173 C174 1.341 . S
C173 C175 1.371 . S
C174 C173 1.341 . S
C174 C178 1.394 . S
C174 H190 0.930 . S
C175 C173 1.371 . S
C175 C176 1.392 . S
C175 H191 0.931 . S
C176 C175 1.392 . S
C176 C177 1.331 . S
C176 H194 0.932 . S
C177 C176 1.331 . S
C177 C178 1.336 . S
C178 C174 1.394 . S
C178 C177 1.336 . S
C178 H193 0.877 1_455 S
C179 C169 1.386 1_545 S
C179 C172 1.357 . S
C179 H192 0.928 . S
H180 C156 0.931 . S
H181 C158 0.930 . S
H182 C160 0.929 . S
H183 C161 0.931 . S
H184 C163 0.930 . S
H185 C167 0.931 . S
H186 C165 0.931 . S
H187 C169 0.931 . S
H188 C170 0.929 . S
H189 C171 0.930 . S
H190 C174 0.930 . S
H191 C175 0.931 . S
H192 C179 0.928 . S
H193 C178 0.877 1_655 S
H194 C176 0.932 . S
C195 C196 1.386 . S
C195 C197 1.397 . S
C195 H219 0.931 . S
C196 C195 1.386 . S
C196 C200 1.397 . S
C197 C195 1.397 . S
C197 C198 1.384 . S
C197 H220 0.930 . S
C198 C197 1.384 . S
C198 C199 1.377 . S
C198 C201 1.481 . S
C199 C198 1.377 . S
C199 C200 1.389 . S
C199 H221 0.929 . S
C200 C196 1.397 . S
C200 C199 1.389 . S
C200 H222 0.931 . S
C201 C198 1.481 . S
C201 C202 1.387 . S
C201 C206 1.390 . S
C202 C201 1.387 . S
C202 C203 1.401 . S
C202 H223 0.930 . S
C203 C202 1.401 . S
C203 C204 1.376 . S
C203 C212 1.511 . S
C204 C203 1.376 . S
C204 C205 1.392 . S
C204 H225 0.931 . S
C205 C204 1.392 . S
C205 C206 1.361 . S
C205 C207 1.500 . S
C206 C201 1.390 . S
C206 C205 1.361 . S
C206 H224 0.931 . S
C207 C205 1.500 . S
C207 C208 1.371 . S
C207 C209 1.365 . S
C208 C207 1.371 . S
C208 C218 1.386 . S
C208 H226 0.931 . S
C209 C207 1.365 . S
C209 C210 1.409 . S
C209 H227 0.929 . S
C210 C209 1.409 . S
C210 C211 1.380 . S
C210 H228 0.930 . S
C211 C210 1.380 . S
C211 C218 1.357 . S
C212 C203 1.511 . S
C212 C213 1.341 . S
C212 C214 1.371 . S
C213 C212 1.341 . S
C213 C217 1.394 . S
C213 H229 0.930 . S
C214 C212 1.371 . S
C214 C215 1.392 . S
C214 H230 0.931 . S
C215 C214 1.392 . S
C215 C216 1.331 . S
C215 H233 0.932 . S
C216 C215 1.331 . S
C216 C217 1.336 . S
C217 C213 1.394 . S
C217 C216 1.336 . S
C217 H232 0.929 . S
C218 C208 1.386 . S
C218 C211 1.357 . S
C218 H231 0.928 . S
H219 C195 0.931 . S
H220 C197 0.930 . S
H221 C199 0.929 . S
H222 C200 0.931 . S
H223 C202 0.930 . S
H224 C206 0.931 . S
H225 C204 0.931 . S
H226 C208 0.931 . S
H227 C209 0.929 . S
H228 C210 0.930 . S
H229 C213 0.930 . S
H230 C214 0.931 . S
H231 C218 0.928 . S
H232 C217 0.929 . S
H233 C215 0.932 . S
C234 C235 1.386 . S
C234 C236 1.397 . S
C234 H258 0.931 . S
C235 C234 1.386 . S
C235 C239 1.397 . S
C236 C234 1.397 . S
C236 C237 1.384 . S
C236 H259 0.930 . S
C237 C236 1.384 . S
C237 C238 1.377 . S
C237 C240 1.481 . S
C238 C237 1.377 . S
C238 C239 1.389 . S
C238 H260 0.929 . S
C239 C235 1.397 . S
C239 C238 1.389 . S
C239 H261 0.931 . S
C240 C237 1.481 . S
C240 C241 1.387 . S
C240 C245 1.390 . S
C241 C240 1.387 . S
C241 C242 1.401 . S
C241 H262 0.930 . S
C242 C241 1.401 . S
C242 C243 1.376 . S
C242 C251 1.511 . S
C243 C242 1.376 . S
C243 C244 1.392 . S
C243 H264 0.931 . S
C244 C243 1.392 . S
C244 C245 1.361 . S
C244 C246 1.500 . S
C245 C240 1.390 . S
C245 C244 1.361 . S
C245 H263 0.931 . S
C246 C244 1.500 . S
C246 C247 1.371 . S
C246 C248 1.365 . S
C247 C246 1.371 . S
C247 C257 1.386 . S
C247 H265 0.931 . S
C248 C246 1.365 . S
C248 C249 1.409 . S
C248 H266 0.929 . S
C249 C248 1.409 . S
C249 C250 1.380 . S
C249 H267 0.930 . S
C250 C249 1.380 . S
C250 C257 1.357 . S
C251 C242 1.511 . S
C251 C252 1.341 1_655 S
C251 C253 1.371 . S
C252 C251 1.341 1_455 S
C252 C256 1.394 . S
C252 H268 0.934 . S
C253 C251 1.371 . S
C253 C254 1.392 1_655 S
C253 H269 0.931 . S
C254 C253 1.392 1_455 S
C254 C255 1.331 . S
C254 H272 0.932 . S
C255 C254 1.331 . S
C255 C256 1.336 . S
C256 C252 1.394 . S
C256 C255 1.336 . S
C256 H271 0.929 . S
C257 C247 1.386 . S
C257 C250 1.357 . S
C257 H270 0.928 . S
H258 C234 0.931 . S
H259 C236 0.930 . S
H260 C238 0.929 . S
H261 C239 0.931 . S
H262 C241 0.930 . S
H263 C245 0.931 . S
H264 C243 0.931 . S
H265 C247 0.931 . S
H266 C248 0.929 . S
H267 C249 0.930 . S
H268 C252 0.934 . S
H269 C253 0.931 . S
H270 C257 0.928 . S
H271 C256 0.929 . S
H272 C254 0.932 . S
C273 C274 1.386 . S
C273 C275 1.397 . S
C273 H297 0.931 . S
C274 C273 1.386 . S
C274 C278 1.397 . S
C275 C273 1.397 . S
C275 C276 1.384 . S
C275 H298 0.930 . S
C276 C275 1.384 . S
C276 C277 1.377 . S
C276 C279 1.481 . S
C277 C276 1.377 . S
C277 C278 1.389 . S
C277 H299 0.929 . S
C278 C274 1.397 . S
C278 C277 1.389 . S
C278 H300 0.931 . S
C279 C276 1.481 . S
C279 C280 1.387 . S
C279 C284 1.390 . S
C280 C279 1.387 . S
C280 C281 1.401 . S
C280 H301 0.930 . S
C281 C280 1.401 . S
C281 C282 1.376 . S
C281 C290 1.511 . S
C282 C281 1.376 . S
C282 C283 1.392 . S
C282 H303 0.931 . S
C283 C282 1.392 . S
C283 C284 1.361 . S
C283 C285 1.500 . S
C284 C279 1.390 . S
C284 C283 1.361 . S
C284 H302 0.931 . S
C285 C283 1.500 . S
C285 C286 1.371 . S
C285 C287 1.365 . S
C286 C285 1.371 . S
C286 C296 1.386 . S
C286 H304 0.931 . S
C287 C285 1.365 . S
C287 C288 1.409 . S
C287 H305 0.929 . S
C288 C287 1.409 . S
C288 C289 1.380 . S
C288 H306 0.930 . S
C289 C288 1.380 . S
C289 C296 1.357 . S
C290 C281 1.511 . S
C290 C291 1.341 . S
C290 C292 1.371 . S
C291 C290 1.341 . S
C291 C295 1.394 . S
C291 H307 0.930 . S
C292 C290 1.371 . S
C292 C293 1.392 . S
C292 H308 0.931 . S
C293 C292 1.392 . S
C293 C294 1.331 . S
C293 H311 0.932 . S
C294 C293 1.331 . S
C294 C295 1.336 . S
C295 C291 1.394 . S
C295 C294 1.336 . S
C295 H310 0.929 . S
C296 C286 1.386 . S
C296 C289 1.357 . S
C296 H309 0.928 . S
H297 C273 0.931 . S
H298 C275 0.930 . S
H299 C277 0.929 . S
H300 C278 0.931 . S
H301 C280 0.930 . S
H302 C284 0.931 . S
H303 C282 0.931 . S
H304 C286 0.931 . S
H305 C287 0.929 . S
H306 C288 0.930 . S
H307 C291 0.930 . S
H308 C292 0.931 . S
H309 C296 0.928 . S
H310 C295 0.929 . S
H311 C293 0.932 . S
C312 C313 1.386 . S
C312 C314 1.397 . S
C312 H336 0.931 . S
C313 C312 1.386 . S
C313 C317 1.397 . S
C314 C312 1.397 . S
C314 C315 1.384 . S
C314 H337 0.930 . S
C315 C314 1.384 . S
C315 C316 1.377 . S
C315 C318 1.481 . S
C316 C315 1.377 . S
C316 C317 1.389 . S
C316 H338 0.929 . S
C317 C313 1.397 . S
C317 C316 1.389 . S
C317 H339 0.931 . S
C318 C315 1.481 . S
C318 C319 1.387 . S
C318 C323 1.390 . S
C319 C318 1.387 . S
C319 C320 1.401 . S
C319 H340 0.930 . S
C320 C319 1.401 . S
C320 C321 1.376 . S
C320 C329 1.511 . S
C321 C320 1.376 . S
C321 C322 1.392 . S
C321 H342 0.931 . S
C322 C321 1.392 . S
C322 C323 1.361 . S
C322 C324 1.500 . S
C323 C318 1.390 . S
C323 C322 1.361 . S
C323 H341 0.931 . S
C324 C322 1.500 . S
C324 C325 1.371 . S
C324 C326 1.365 . S
C325 C324 1.371 . S
C325 C335 1.386 . S
C325 H343 0.931 . S
C326 C324 1.365 . S
C326 C327 1.409 . S
C326 H344 0.929 . S
C327 C326 1.409 . S
C327 C328 1.380 . S
C327 H345 0.930 . S
C328 C327 1.380 . S
C328 C335 1.357 . S
C329 C320 1.511 . S
C329 C330 1.341 . S
C329 C331 1.371 . S
C330 C329 1.341 . S
C330 C334 1.394 . S
C330 H346 0.930 . S
C331 C329 1.371 . S
C331 C332 1.392 . S
C331 H347 0.931 . S
C332 C331 1.392 . S
C332 C333 1.331 . S
C332 H350 0.932 . S
C333 C332 1.331 . S
C333 C334 1.336 . S
C334 C330 1.394 . S
C334 C333 1.336 . S
C334 H349 0.929 . S
C335 C325 1.386 . S
C335 C328 1.357 . S
C335 H348 0.928 . S
H336 C312 0.931 . S
H337 C314 0.930 . S
H338 C316 0.929 . S
H339 C317 0.931 . S
H340 C319 0.930 . S
H341 C323 0.931 . S
H342 C321 0.931 . S
H343 C325 0.931 . S
H344 C326 0.929 . S
H345 C327 0.930 . S
H346 C330 0.930 . S
H347 C331 0.931 . S
H348 C335 0.928 . S
H349 C334 0.929 . S
H350 C332 0.932 . S
C351 C352 1.386 . S
C351 C353 1.397 . S
C351 H375 0.931 . S
C352 C351 1.386 . S
C352 C356 1.397 . S
C353 C351 1.397 . S
C353 C354 1.384 . S
C353 H376 0.930 . S
C354 C353 1.384 . S
C354 C355 1.377 . S
C354 C357 1.481 . S
C355 C354 1.377 . S
C355 C356 1.389 . S
C355 H377 0.929 . S
C356 C352 1.397 . S
C356 C355 1.389 . S
C356 H378 0.931 . S
C357 C354 1.481 . S
C357 C358 1.387 . S
C357 C362 1.390 . S
C358 C357 1.387 . S
C358 C359 1.401 . S
C358 H379 0.930 . S
C359 C358 1.401 . S
C359 C360 1.376 . S
C359 C368 1.511 . S
C360 C359 1.376 . S
C360 C361 1.392 . S
C360 H381 0.931 . S
C361 C360 1.392 . S
C361 C362 1.361 . S
C361 C363 1.500 . S
C362 C357 1.390 . S
C362 C361 1.361 . S
C362 H380 0.931 . S
C363 C361 1.500 . S
C363 C364 1.371 . S
C363 C365 1.365 . S
C364 C363 1.371 . S
C364 C374 1.386 . S
C364 H382 0.931 . S
C365 C363 1.365 . S
C365 C366 1.409 . S
C365 H383 0.929 . S
C366 C365 1.409 . S
C366 C367 1.380 . S
C366 H384 0.930 . S
C367 C366 1.380 . S
C367 C374 1.357 . S
C368 C359 1.511 . S
C368 C369 1.341 1_565 S
C368 C370 1.371 . S
C369 C368 1.341 1_545 S
C369 C373 1.394 . S
C369 H385 0.932 . S
C370 C368 1.371 . S
C370 C371 1.392 1_565 S
C370 H386 0.931 . S
C371 C370 1.392 1_545 S
C371 C372 1.331 . S
C371 H389 0.932 . S
C372 C371 1.331 . S
C372 C373 1.336 . S
C373 C369 1.394 . S
C373 C372 1.336 . S
C373 H388 0.929 . S
C374 C364 1.386 . S
C374 C367 1.357 . S
C374 H387 0.928 . S
H375 C351 0.931 . S
H376 C353 0.930 . S
H377 C355 0.929 . S
H378 C356 0.931 . S
H379 C358 0.930 . S
H380 C362 0.931 . S
H381 C360 0.931 . S
H382 C364 0.931 . S
H383 C365 0.929 . S
H384 C366 0.930 . S
H385 C369 0.932 . S
H386 C370 0.931 . S
H387 C374 0.928 . S
H388 C373 0.929 . S
H389 C371 0.932 . S
C390 C391 1.386 . S
C390 C392 1.397 . S
C390 H414 0.931 . S
C391 C390 1.386 . S
C391 C395 1.397 . S
C392 C390 1.397 . S
C392 C393 1.384 . S
C392 H415 0.930 . S
C393 C392 1.384 . S
C393 C394 1.377 . S
C393 C396 1.481 . S
C394 C393 1.377 . S
C394 C395 1.389 . S
C394 H416 0.929 . S
C395 C391 1.397 . S
C395 C394 1.389 . S
C395 H417 0.931 . S
C396 C393 1.481 . S
C396 C397 1.387 . S
C396 C401 1.390 . S
C397 C396 1.387 . S
C397 C398 1.401 . S
C397 H418 0.930 . S
C398 C397 1.401 . S
C398 C399 1.376 . S
C398 C407 1.511 . S
C399 C398 1.376 . S
C399 C400 1.392 . S
C399 H420 0.931 . S
C400 C399 1.392 . S
C400 C401 1.361 . S
C400 C402 1.500 . S
C401 C396 1.390 . S
C401 C400 1.361 . S
C401 H419 0.931 . S
C402 C400 1.500 . S
C402 C403 1.371 . S
C402 C404 1.365 . S
C403 C402 1.371 . S
C403 C413 1.386 . S
C403 H421 0.931 . S
C404 C402 1.365 . S
C404 C405 1.409 . S
C404 H422 0.929 . S
C405 C404 1.409 . S
C405 C406 1.380 . S
C405 H423 0.930 . S
C406 C405 1.380 . S
C406 C413 1.357 . S
C407 C398 1.511 . S
C407 C408 1.341 . S
C407 C409 1.371 . S
C408 C407 1.341 . S
C408 C412 1.394 . S
C408 H424 0.930 . S
C409 C407 1.371 . S
C409 C410 1.392 . S
C409 H425 0.931 . S
C410 C409 1.392 . S
C410 C411 1.331 . S
C410 H428 0.932 . S
C411 C410 1.331 . S
C411 C412 1.336 . S
C412 C408 1.394 . S
C412 C411 1.336 . S
C412 H427 0.929 . S
C413 C403 1.386 . S
C413 C406 1.357 . S
C413 H426 0.928 . S
H414 C390 0.931 . S
H415 C392 0.930 . S
H416 C394 0.929 . S
H417 C395 0.931 . S
H418 C397 0.930 . S
H419 C401 0.931 . S
H420 C399 0.931 . S
H421 C403 0.931 . S
H422 C404 0.929 . S
H423 C405 0.930 . S
H424 C408 0.930 . S
H425 C409 0.931 . S
H426 C413 0.928 . S
H427 C412 0.929 . S
H428 C410 0.932 . S
C429 C430 1.386 . S
C429 C431 1.397 . S
C429 H453 0.931 . S
C430 C429 1.386 . S
C430 C434 1.397 . S
C431 C429 1.397 . S
C431 C432 1.384 . S
C431 H454 0.930 . S
C432 C431 1.384 . S
C432 C433 1.377 . S
C432 C435 1.481 . S
C433 C432 1.377 . S
C433 C434 1.389 . S
C433 H455 0.929 . S
C434 C430 1.397 . S
C434 C433 1.389 . S
C434 H456 0.931 . S
C435 C432 1.481 . S
C435 C436 1.387 . S
C435 C440 1.390 . S
C436 C435 1.387 . S
C436 C437 1.401 . S
C436 H457 0.930 . S
C437 C436 1.401 . S
C437 C438 1.376 . S
C437 C446 1.511 . S
C438 C437 1.376 . S
C438 C439 1.392 . S
C438 H459 0.931 . S
C439 C438 1.392 . S
C439 C440 1.361 . S
C439 C441 1.500 . S
C440 C435 1.390 . S
C440 C439 1.361 . S
C440 H458 0.931 . S
C441 C439 1.500 . S
C441 C442 1.371 . S
C441 C443 1.365 . S
C442 C441 1.371 . S
C442 C452 1.386 . S
C442 H460 0.931 . S
C443 C441 1.365 . S
C443 C444 1.409 . S
C443 H461 0.929 . S
C444 C443 1.409 . S
C444 C445 1.380 . S
C444 H462 0.930 . S
C445 C444 1.380 . S
C445 C452 1.357 . S
C446 C437 1.511 . S
C446 C447 1.341 . S
C446 C448 1.371 . S
C447 C446 1.341 . S
C447 C451 1.394 . S
C447 H463 0.930 . S
C448 C446 1.371 . S
C448 C449 1.392 . S
C448 H464 0.931 . S
C449 C448 1.392 . S
C449 C450 1.331 . S
C449 H467 0.932 . S
C450 C449 1.331 . S
C450 C451 1.336 . S
C451 C447 1.394 . S
C451 C450 1.336 . S
C451 H466 0.929 . S
C452 C442 1.386 . S
C452 C445 1.357 . S
C452 H465 0.928 . S
H453 C429 0.931 . S
H454 C431 0.930 . S
H455 C433 0.929 . S
H456 C434 0.931 . S
H457 C436 0.930 . S
H458 C440 0.931 . S
H459 C438 0.931 . S
H460 C442 0.931 . S
H461 C443 0.929 . S
H462 C444 0.930 . S
H463 C447 0.930 . S
H464 C448 0.931 . S
H465 C452 0.928 . S
H466 C451 0.929 . S
H467 C449 0.932 . S
C468 C469 1.386 . S
C468 C470 1.397 . S
C468 H492 0.931 . S
C469 C468 1.386 . S
C469 C473 1.397 . S
C470 C468 1.397 . S
C470 C471 1.384 . S
C470 H493 0.930 . S
C471 C470 1.384 . S
C471 C472 1.377 . S
C471 C474 1.481 . S
C472 C471 1.377 . S
C472 C473 1.389 . S
C472 H494 0.929 . S
C473 C469 1.397 . S
C473 C472 1.389 . S
C473 H495 0.931 . S
C474 C471 1.481 . S
C474 C475 1.387 . S
C474 C479 1.390 . S
C475 C474 1.387 . S
C475 C476 1.401 . S
C475 H496 0.930 . S
C476 C475 1.401 . S
C476 C477 1.376 . S
C476 C485 1.511 . S
C477 C476 1.376 . S
C477 C478 1.392 . S
C477 H498 0.931 . S
C478 C477 1.392 . S
C478 C479 1.361 . S
C478 C480 1.500 . S
C479 C474 1.390 . S
C479 C478 1.361 . S
C479 H497 0.931 . S
C480 C478 1.500 . S
C480 C481 1.371 . S
C480 C482 1.365 . S
C481 C480 1.371 . S
C481 C491 1.386 . S
C481 H499 0.931 . S
C482 C480 1.365 . S
C482 C483 1.409 . S
C482 H500 0.929 . S
C483 C482 1.409 . S
C483 C484 1.380 . S
C483 H501 0.930 . S
C484 C483 1.380 . S
C484 C491 1.357 . S
C485 C476 1.511 . S
C485 C486 1.341 . S
C485 C487 1.371 . S
C486 C485 1.341 . S
C486 C490 1.394 . S
C486 H502 0.930 . S
C487 C485 1.371 . S
C487 C488 1.392 . S
C487 H503 0.931 . S
C488 C487 1.392 . S
C488 C489 1.331 . S
C488 H506 0.932 . S
C489 C488 1.331 . S
C489 C490 1.336 . S
C490 C486 1.394 . S
C490 C489 1.336 . S
C490 H505 0.929 . S
C491 C481 1.386 . S
C491 C484 1.357 . S
C491 H504 0.928 . S
H492 C468 0.931 . S
H493 C470 0.930 . S
H494 C472 0.929 . S
H495 C473 0.931 . S
H496 C475 0.930 . S
H497 C479 0.931 . S
H498 C477 0.931 . S
H499 C481 0.931 . S
H500 C482 0.929 . S
H501 C483 0.930 . S
H502 C486 0.930 . S
H503 C487 0.931 . S
H504 C491 0.928 . S
H505 C490 0.929 . S
H506 C488 0.932 . S
C507 C508 1.386 . S
C507 C509 1.397 . S
C507 H531 0.931 . S
C508 C507 1.386 . S
C508 C512 1.397 . S
C509 C507 1.397 . S
C509 C510 1.384 . S
C509 H532 0.930 . S
C510 C509 1.384 . S
C510 C511 1.377 . S
C510 C513 1.481 . S
C511 C510 1.377 . S
C511 C512 1.389 . S
C511 H533 0.929 . S
C512 C508 1.397 . S
C512 C511 1.389 . S
C512 H534 0.931 . S
C513 C510 1.481 . S
C513 C514 1.387 . S
C513 C518 1.390 . S
C514 C513 1.387 . S
C514 C515 1.401 . S
C514 H535 0.930 . S
C515 C514 1.401 . S
C515 C516 1.376 . S
C515 C524 1.511 . S
C516 C515 1.376 . S
C516 C517 1.392 . S
C516 H537 0.931 . S
C517 C516 1.392 . S
C517 C518 1.361 . S
C517 C519 1.500 . S
C518 C513 1.390 . S
C518 C517 1.361 . S
C518 H536 0.931 . S
C519 C517 1.500 . S
C519 C520 1.371 . S
C519 C521 1.365 . S
C520 C519 1.371 . S
C520 C530 1.386 . S
C520 H538 0.969 . S
C521 C519 1.365 . S
C521 C522 1.409 . S
C521 H539 0.929 . S
C522 C521 1.409 . S
C522 C523 1.380 . S
C522 H540 0.930 . S
C523 C522 1.380 . S
C523 C530 1.357 . S
C524 C515 1.511 . S
C524 C525 1.341 . S
C524 C526 1.371 1_556 S
C525 C524 1.341 . S
C525 C529 1.394 1_556 S
C525 H541 0.930 . S
C526 C524 1.371 1_554 S
C526 C527 1.392 . S
C526 H542 0.931 . S
C527 C526 1.392 . S
C527 C528 1.331 . S
C527 H545 0.932 . S
C528 C527 1.331 . S
C528 C529 1.336 . S
C529 C525 1.394 1_554 S
C529 C528 1.336 . S
C529 H544 0.929 . S
C530 C520 1.386 . S
C530 C523 1.357 . S
C530 H543 0.928 1_556 S
H531 C507 0.931 . S
H532 C509 0.930 . S
H533 C511 0.929 . S
H534 C512 0.931 . S
H535 C514 0.930 . S
H536 C518 0.931 . S
H537 C516 0.931 . S
H538 C520 0.969 . S
H539 C521 0.929 . S
H540 C522 0.930 . S
H541 C525 0.930 . S
H542 C526 0.931 . S
H543 C530 0.928 1_554 S
H544 C529 0.929 . S
H545 C527 0.932 . S
C546 C547 1.386 . S
C546 C548 1.397 . S
C546 H570 0.931 . S
C547 C546 1.386 . S
C547 C551 1.397 . S
C548 C546 1.397 . S
C548 C549 1.384 . S
C548 H571 0.930 . S
C549 C548 1.384 . S
C549 C550 1.377 . S
C549 C552 1.481 . S
C550 C549 1.377 . S
C550 C551 1.389 . S
C550 H572 0.929 . S
C551 C547 1.397 . S
C551 C550 1.389 . S
C551 H573 0.931 . S
C552 C549 1.481 . S
C552 C553 1.387 . S
C552 C557 1.390 . S
C553 C552 1.387 . S
C553 C554 1.401 . S
C553 H574 0.930 . S
C554 C553 1.401 . S
C554 C555 1.376 . S
C554 C563 1.511 . S
C555 C554 1.376 . S
C555 C556 1.392 . S
C555 H576 0.931 . S
C556 C555 1.392 . S
C556 C557 1.361 . S
C556 C558 1.500 . S
C557 C552 1.390 . S
C557 C556 1.361 . S
C557 H575 0.931 . S
C558 C556 1.500 . S
C558 C559 1.371 . S
C558 C560 1.365 . S
C559 C558 1.371 . S
C559 C569 1.386 . S
C559 H577 0.931 . S
C560 C558 1.365 . S
C560 C561 1.409 . S
C560 H578 0.929 . S
C561 C560 1.409 . S
C561 C562 1.380 . S
C561 H579 0.930 . S
C562 C561 1.380 . S
C562 C569 1.357 . S
C563 C554 1.511 . S
C563 C564 1.341 . S
C563 C565 1.371 . S
C564 C563 1.341 . S
C564 C568 1.394 . S
C564 H580 0.930 . S
C565 C563 1.371 . S
C565 C566 1.392 . S
C565 H581 0.931 . S
C566 C565 1.392 . S
C566 C567 1.331 . S
C566 H584 0.932 . S
C567 C566 1.331 . S
C567 C568 1.336 . S
C568 C564 1.394 . S
C568 C567 1.336 . S
C568 H583 0.929 . S
C569 C559 1.386 . S
C569 C562 1.357 . S
C569 H582 0.928 . S
H570 C546 0.931 . S
H571 C548 0.930 . S
H572 C550 0.929 . S
H573 C551 0.931 . S
H574 C553 0.930 . S
H575 C557 0.931 . S
H576 C555 0.931 . S
H577 C559 0.931 . S
H578 C560 0.929 . S
H579 C561 0.930 . S
H580 C564 0.930 . S
H581 C565 0.931 . S
H582 C569 0.928 . S
H583 C568 0.929 . S
H584 C566 0.932 . S
C585 C586 1.386 1_556 S
C585 C587 1.397 . S
C585 H609 0.931 . S
C586 C585 1.386 1_554 S
C586 C590 1.397 . S
C587 C585 1.397 . S
C587 C588 1.384 . S
C587 H610 0.930 . S
C588 C587 1.384 . S
C588 C589 1.377 1_556 S
C588 C591 1.481 . S
C589 C588 1.377 1_554 S
C589 C590 1.389 . S
C589 H611 0.929 . S
C590 C586 1.397 . S
C590 C589 1.389 . S
C590 H612 0.931 . S
C591 C588 1.481 . S
C591 C592 1.387 . S
C591 C596 1.390 . S
C592 C591 1.387 . S
C592 C593 1.401 . S
C592 H613 0.930 . S
C593 C592 1.401 . S
C593 C594 1.376 . S
C593 C602 1.511 . S
C594 C593 1.376 . S
C594 C595 1.392 . S
C594 H615 0.931 . S
C595 C594 1.392 . S
C595 C596 1.361 . S
C595 C597 1.500 . S
C596 C591 1.390 . S
C596 C595 1.361 . S
C596 H614 0.931 . S
C597 C595 1.500 . S
C597 C598 1.371 . S
C597 C599 1.365 . S
C598 C597 1.371 . S
C598 C608 1.386 1_545 S
C598 H616 0.931 . S
C599 C597 1.365 . S
C599 C600 1.409 1_545 S
C599 H617 0.937 . S
C600 C599 1.409 1_565 S
C600 C601 1.380 . S
C600 H618 0.930 1_556 S
C601 C600 1.380 . S
C601 C608 1.357 . S
C602 C593 1.511 . S
C602 C603 1.341 . S
C602 C604 1.371 . S
C603 C602 1.341 . S
C603 C607 1.394 . S
C603 H619 0.930 . S
C604 C602 1.371 . S
C604 C605 1.392 . S
C604 H620 0.931 . S
C605 C604 1.392 . S
C605 C606 1.331 . S
C605 H623 0.932 1_545 S
C606 C605 1.331 . S
C606 C607 1.336 . S
C607 C603 1.394 . S
C607 C606 1.336 . S
C607 H622 0.929 . S
C608 C598 1.386 1_565 S
C608 C601 1.357 . S
C608 H621 0.928 . S
H609 C585 0.931 . S
H610 C587 0.930 . S
H611 C589 0.929 . S
H612 C590 0.931 . S
H613 C592 0.930 . S
H614 C596 0.931 . S
H615 C594 0.931 . S
H616 C598 0.931 . S
H617 C599 0.937 . S
H618 C600 0.930 1_554 S
H619 C603 0.930 . S
H620 C604 0.931 . S
H621 C608 0.928 . S
H622 C607 0.929 . S
H623 C605 0.932 1_565 S
Li624 N641 1.990 . S
Li624 O684 1.956 . S
Li624 O685 1.970 1_556 S
Li624 O686 1.961 . S
Li625 N649 1.990 . S
Li625 O684 1.970 1_554 S
Li625 O685 1.956 . S
Li625 O687 1.961 . S
Li626 N671 1.990 . S
Li626 O684 1.961 . S
Li626 O686 1.956 . S
Li626 O687 1.970 1_556 S
Li627 N677 1.990 . S
Li627 O685 1.961 . S
Li627 O686 1.970 1_554 S
Li627 O687 1.956 . S
C628 C630 1.348 1_556 S
C628 C631 1.356 . S
C628 O684 1.325 . S
N629 C632 1.314 1_556 S
N629 C633 1.279 . S
C630 C628 1.348 1_554 S
C630 C632 1.353 . S
C630 H688 0.929 . S
C631 C628 1.356 . S
C631 C633 1.358 . S
C631 H689 0.930 . S
C632 N629 1.314 1_554 S
C632 C630 1.353 . S
C632 H690 0.930 . S
C633 N629 1.279 . S
C633 C631 1.358 . S
C633 H691 0.930 . S
C634 C637 1.348 . S
C634 C638 1.356 . S
C634 O685 1.325 . S
C635 N636 1.279 . S
C635 C638 1.358 . S
C635 H692 0.930 . S
N636 C635 1.279 . S
N636 C639 1.314 . S
C637 C634 1.348 . S
C637 C639 1.353 . S
C637 H693 0.929 . S
C638 C634 1.356 . S
C638 C635 1.358 . S
C638 H694 0.930 . S
C639 N636 1.314 . S
C639 C637 1.353 . S
C639 H695 0.930 . S
C640 N641 1.314 . S
C640 C645 1.353 . S
C640 H646 0.930 . S
N641 Li624 1.990 . S
N641 C640 1.314 . S
N641 C643 1.279 . S
C642 C643 1.358 . S
C642 C644 1.356 . S
C642 H696 0.930 . S
C643 N641 1.279 . S
C643 C642 1.358 . S
C643 H647 0.930 . S
C644 C642 1.356 . S
C644 C645 1.348 . S
C645 C640 1.353 . S
C645 C644 1.348 . S
C645 H697 0.929 . S
H646 C640 0.930 . S
H647 C643 0.930 . S
C648 N649 1.314 . S
C648 C650 1.353 . S
C648 H654 0.930 . S
N649 Li625 1.990 . S
N649 C648 1.314 . S
N649 C652 1.279 . S
C650 C648 1.353 . S
C650 C653 1.348 . S
C650 H698 0.929 . S
C651 C652 1.358 . S
C651 C653 1.356 . S
C651 H699 0.930 . S
C652 N649 1.279 . S
C652 C651 1.358 . S
C652 H655 0.930 . S
C653 C650 1.348 . S
C653 C651 1.356 . S
H654 C648 0.930 . S
H655 C652 0.930 . S
C656 C658 1.348 . S
C656 C659 1.356 . S
C656 O686 1.325 . S
N657 C660 1.314 . S
N657 C661 1.279 . S
C658 C656 1.348 . S
C658 C660 1.353 . S
C658 H700 0.929 . S
C659 C656 1.356 . S
C659 C661 1.358 . S
C659 H701 0.930 . S
C660 N657 1.314 . S
C660 C658 1.353 . S
C660 H702 0.930 . S
C661 N657 1.279 . S
C661 C659 1.358 . S
C661 H703 0.930 . S
C662 C663 1.348 1_554 S
C662 C664 1.356 . S
C662 O687 1.325 . S
C663 C662 1.348 1_556 S
C663 C665 1.353 . S
C663 H704 0.929 . S
C664 C662 1.356 . S
C664 C666 1.358 . S
C664 H705 0.930 . S
C665 C663 1.353 . S
C665 N667 1.314 1_556 S
C665 H706 0.930 . S
C666 C664 1.358 . S
C666 N667 1.279 . S
C666 H707 0.930 . S
N667 C665 1.314 1_554 S
N667 C666 1.279 . S
C668 C670 1.353 . S
C668 N671 1.314 . S
C668 H674 0.930 . S
C669 N671 1.279 . S
C669 C672 1.358 . S
C669 H675 0.930 . S
C670 C668 1.353 . S
C670 C673 1.348 . S
C670 H708 0.929 . S
N671 Li626 1.990 . S
N671 C668 1.314 . S
N671 C669 1.279 . S
C672 C669 1.358 . S
C672 C673 1.356 . S
C672 H709 0.930 . S
C673 C670 1.348 . S
C673 C672 1.356 . S
H674 C668 0.930 . S
H675 C669 0.930 . S
C676 N677 1.314 . S
C676 C678 1.353 . S
C676 H682 0.930 . S
N677 Li627 1.990 . S
N677 C676 1.314 . S
N677 C680 1.279 . S
C678 C676 1.353 . S
C678 C681 1.348 . S
C678 H710 0.929 . S
C679 C680 1.358 . S
C679 C681 1.356 . S
C679 H711 0.930 . S
C680 N677 1.279 . S
C680 C679 1.358 . S
C680 H683 0.930 . S
C681 C678 1.348 . S
C681 C679 1.356 . S
H682 C676 0.930 . S
H683 C680 0.930 . S
O684 Li624 1.956 . S
O684 Li625 1.970 1_556 S
O684 Li626 1.961 . S
O684 C628 1.325 . S
O685 Li624 1.970 1_554 S
O685 Li625 1.956 . S
O685 Li627 1.961 . S
O685 C634 1.325 . S
O686 Li624 1.961 . S
O686 Li626 1.956 . S
O686 Li627 1.970 1_556 S
O686 C656 1.325 . S
O687 Li625 1.961 . S
O687 Li626 1.970 1_554 S
O687 Li627 1.956 . S
O687 C662 1.325 . S
H688 C630 0.929 . S
H689 C631 0.930 . S
H690 C632 0.930 . S
H691 C633 0.930 . S
H692 C635 0.930 . S
H693 C637 0.929 . S
H694 C638 0.930 . S
H695 C639 0.930 . S
H696 C642 0.930 . S
H697 C645 0.929 . S
H698 C650 0.929 . S
H699 C651 0.930 . S
H700 C658 0.929 . S
H701 C659 0.930 . S
H702 C660 0.930 . S
H703 C661 0.930 . S
H704 C663 0.929 . S
H705 C664 0.930 . S
H706 C665 0.930 . S
H707 C666 0.930 . S
H708 C670 0.929 . S
H709 C672 0.930 . S
H710 C678 0.929 . S
H711 C679 0.930 . S
Li712 N729 1.990 . S
Li712 O772 1.956 . S
Li712 O773 1.970 . S
Li712 O774 1.961 . S
Li713 N737 1.990 . S
Li713 O772 1.970 . S
Li713 O773 1.956 . S
Li713 O775 1.961 . S
Li714 N759 1.990 . S
Li714 O772 1.961 . S
Li714 O774 1.956 . S
Li714 O775 1.970 . S
Li715 N765 1.990 . S
Li715 O773 1.961 . S
Li715 O774 1.970 . S
Li715 O775 1.956 . S
C716 C718 1.348 . S
C716 C719 1.356 . S
C716 O772 1.325 . S
N717 C720 1.314 . S
N717 C721 1.279 . S
C718 C716 1.348 . S
C718 C720 1.353 . S
C718 H776 0.929 . S
C719 C716 1.356 . S
C719 C721 1.358 . S
C719 H777 0.930 . S
C720 N717 1.314 . S
C720 C718 1.353 . S
C720 H778 0.930 . S
C721 N717 1.279 . S
C721 C719 1.358 . S
C721 H779 0.930 . S
C722 C725 1.348 . S
C722 C726 1.356 . S
C722 O773 1.325 . S
C723 N724 1.279 . S
C723 C726 1.358 . S
C723 H780 0.930 . S
N724 C723 1.279 . S
N724 C727 1.314 . S
C725 C722 1.348 . S
C725 C727 1.353 . S
C725 H781 0.929 . S
C726 C722 1.356 . S
C726 C723 1.358 . S
C726 H782 0.930 . S
C727 N724 1.314 . S
C727 C725 1.353 . S
C727 H783 0.930 . S
C728 N729 1.314 . S
C728 C733 1.353 . S
C728 H734 0.930 . S
N729 Li712 1.990 . S
N729 C728 1.314 . S
N729 C731 1.279 . S
C730 C731 1.358 . S
C730 C732 1.356 . S
C730 H784 0.930 . S
C731 N729 1.279 . S
C731 C730 1.358 . S
C731 H735 0.930 . S
C732 C730 1.356 . S
C732 C733 1.348 . S
C733 C728 1.353 . S
C733 C732 1.348 . S
C733 H785 0.929 . S
H734 C728 0.930 . S
H735 C731 0.930 . S
C736 N737 1.314 . S
C736 C738 1.353 . S
C736 H742 0.930 . S
N737 Li713 1.990 . S
N737 C736 1.314 . S
N737 C740 1.279 . S
C738 C736 1.353 . S
C738 C741 1.348 . S
C738 H786 0.929 . S
C739 C740 1.358 . S
C739 C741 1.356 . S
C739 H787 0.930 . S
C740 N737 1.279 . S
C740 C739 1.358 . S
C740 H743 0.930 . S
C741 C738 1.348 . S
C741 C739 1.356 . S
H742 C736 0.930 . S
H743 C740 0.930 . S
C744 C746 1.348 . S
C744 C747 1.356 . S
C744 O774 1.325 . S
N745 C748 1.314 . S
N745 C749 1.279 . S
C746 C744 1.348 . S
C746 C748 1.353 . S
C746 H788 0.929 . S
C747 C744 1.356 . S
C747 C749 1.358 . S
C747 H789 0.930 . S
C748 N745 1.314 . S
C748 C746 1.353 . S
C748 H790 0.930 . S
C749 N745 1.279 . S
C749 C747 1.358 . S
C749 H791 0.930 . S
C750 C751 1.348 . S
C750 C752 1.356 . S
C750 O775 1.325 . S
C751 C750 1.348 . S
C751 C753 1.353 . S
C751 H792 0.929 . S
C752 C750 1.356 . S
C752 C754 1.358 . S
C752 H793 0.930 . S
C753 C751 1.353 . S
C753 N755 1.314 . S
C753 H794 0.930 . S
C754 C752 1.358 . S
C754 N755 1.279 . S
C754 H795 0.930 . S
N755 C753 1.314 . S
N755 C754 1.279 . S
C756 C758 1.353 . S
C756 N759 1.314 . S
C756 H762 0.930 . S
C757 N759 1.279 . S
C757 C760 1.358 . S
C757 H763 0.930 . S
C758 C756 1.353 . S
C758 C761 1.348 . S
C758 H796 0.929 . S
N759 Li714 1.990 . S
N759 C756 1.314 . S
N759 C757 1.279 . S
C760 C757 1.358 . S
C760 C761 1.356 . S
C760 H797 0.930 . S
C761 C758 1.348 . S
C761 C760 1.356 . S
H762 C756 0.930 . S
H763 C757 0.930 . S
C764 N765 1.314 . S
C764 C766 1.353 . S
C764 H770 0.930 . S
N765 Li715 1.990 . S
N765 C764 1.314 . S
N765 C768 1.279 . S
C766 C764 1.353 . S
C766 C769 1.348 . S
C766 H798 0.929 . S
C767 C768 1.358 . S
C767 C769 1.356 . S
C767 H799 0.930 . S
C768 N765 1.279 . S
C768 C767 1.358 . S
C768 H771 0.930 . S
C769 C766 1.348 . S
C769 C767 1.356 . S
H770 C764 0.930 . S
H771 C768 0.930 . S
O772 Li712 1.956 . S
O772 Li713 1.970 . S
O772 Li714 1.961 . S
O772 C716 1.325 . S
O773 Li712 1.970 . S
O773 Li713 1.956 . S
O773 Li715 1.961 . S
O773 C722 1.325 . S
O774 Li712 1.961 . S
O774 Li714 1.956 . S
O774 Li715 1.970 . S
O774 C744 1.325 . S
O775 Li713 1.961 . S
O775 Li714 1.970 . S
O775 Li715 1.956 . S
O775 C750 1.325 . S
H776 C718 0.929 . S
H777 C719 0.930 . S
H778 C720 0.930 . S
H779 C721 0.930 . S
H780 C723 0.930 . S
H781 C725 0.929 . S
H782 C726 0.930 . S
H783 C727 0.930 . S
H784 C730 0.930 . S
H785 C733 0.929 . S
H786 C738 0.929 . S
H787 C739 0.930 . S
H788 C746 0.929 . S
H789 C747 0.930 . S
H790 C748 0.930 . S
H791 C749 0.930 . S
H792 C751 0.929 . S
H793 C752 0.930 . S
H794 C753 0.930 . S
H795 C754 0.930 . S
H796 C758 0.929 . S
H797 C760 0.930 . S
H798 C766 0.929 . S
H799 C767 0.930 . S
Li800 N817 1.990 . S
Li800 O860 1.956 . S
Li800 O861 1.970 1_556 S
Li800 O862 1.961 . S
Li801 N825 1.990 . S
Li801 O860 1.970 1_554 S
Li801 O861 1.956 . S
Li801 O863 1.961 . S
Li802 N847 1.990 . S
Li802 O860 1.961 . S
Li802 O862 1.956 . S
Li802 O863 1.970 1_556 S
Li803 N853 1.990 . S
Li803 O861 1.961 . S
Li803 O862 1.970 1_554 S
Li803 O863 1.956 . S
C804 C806 1.348 1_556 S
C804 C807 1.356 . S
C804 O860 1.325 . S
N805 C808 1.314 1_556 S
N805 C809 1.279 . S
C806 C804 1.348 1_554 S
C806 C808 1.353 . S
C806 H864 0.929 . S
C807 C804 1.356 . S
C807 C809 1.358 . S
C807 H865 0.930 . S
C808 N805 1.314 1_554 S
C808 C806 1.353 . S
C808 H866 0.930 . S
C809 N805 1.279 . S
C809 C807 1.358 . S
C809 H867 0.930 . S
C810 C813 1.348 . S
C810 C814 1.356 . S
C810 O861 1.325 . S
C811 N812 1.279 . S
C811 C814 1.358 . S
C811 H868 0.930 . S
N812 C811 1.279 . S
N812 C815 1.314 . S
C813 C810 1.348 . S
C813 C815 1.353 . S
C813 H869 0.929 . S
C814 C810 1.356 . S
C814 C811 1.358 . S
C814 H870 0.930 . S
C815 N812 1.314 . S
C815 C813 1.353 . S
C815 H871 0.930 . S
C816 N817 1.314 . S
C816 C821 1.353 . S
C816 H822 0.930 . S
N817 Li800 1.990 . S
N817 C816 1.314 . S
N817 C819 1.279 . S
C818 C819 1.358 . S
C818 C820 1.356 . S
C818 H872 0.930 . S
C819 N817 1.279 . S
C819 C818 1.358 . S
C819 H823 0.930 . S
C820 C818 1.356 . S
C820 C821 1.348 . S
C821 C816 1.353 . S
C821 C820 1.348 . S
C821 H873 0.929 . S
H822 C816 0.930 . S
H823 C819 0.930 . S
C824 N825 1.314 . S
C824 C826 1.353 . S
C824 H830 0.930 . S
N825 Li801 1.990 . S
N825 C824 1.314 . S
N825 C828 1.279 . S
C826 C824 1.353 . S
C826 C829 1.348 . S
C826 H874 0.929 . S
C827 C828 1.358 . S
C827 C829 1.356 . S
C827 H875 0.930 . S
C828 N825 1.279 . S
C828 C827 1.358 . S
C828 H831 0.930 . S
C829 C826 1.348 . S
C829 C827 1.356 . S
H830 C824 0.930 . S
H831 C828 0.930 . S
C832 C834 1.348 . S
C832 C835 1.356 . S
C832 O862 1.325 . S
N833 C836 1.314 . S
N833 C837 1.279 . S
C834 C832 1.348 . S
C834 C836 1.353 . S
C834 H876 0.929 . S
C835 C832 1.356 . S
C835 C837 1.358 . S
C835 H877 0.930 . S
C836 N833 1.314 . S
C836 C834 1.353 . S
C836 H878 0.930 . S
C837 N833 1.279 . S
C837 C835 1.358 . S
C837 H879 0.930 . S
C838 C839 1.348 1_554 S
C838 C840 1.356 . S
C838 O863 1.325 . S
C839 C838 1.348 1_556 S
C839 C841 1.353 . S
C839 H880 0.929 . S
C840 C838 1.356 . S
C840 C842 1.358 . S
C840 H881 0.930 . S
C841 C839 1.353 . S
C841 N843 1.314 1_556 S
C841 H882 0.930 . S
C842 C840 1.358 . S
C842 N843 1.279 . S
C842 H883 0.930 . S
N843 C841 1.314 1_554 S
N843 C842 1.279 . S
C844 C846 1.353 . S
C844 N847 1.314 . S
C844 H850 0.930 . S
C845 N847 1.279 . S
C845 C848 1.358 . S
C845 H851 0.930 . S
C846 C844 1.353 . S
C846 C849 1.348 . S
C846 H884 0.929 . S
N847 Li802 1.990 . S
N847 C844 1.314 . S
N847 C845 1.279 . S
C848 C845 1.358 . S
C848 C849 1.356 . S
C848 H885 0.930 . S
C849 C846 1.348 . S
C849 C848 1.356 . S
H850 C844 0.930 . S
H851 C845 0.930 . S
C852 N853 1.314 . S
C852 C854 1.353 . S
C852 H858 0.930 . S
N853 Li803 1.990 . S
N853 C852 1.314 . S
N853 C856 1.279 . S
C854 C852 1.353 . S
C854 C857 1.348 . S
C854 H886 0.929 . S
C855 C856 1.358 . S
C855 C857 1.356 . S
C855 H887 0.930 . S
C856 N853 1.279 . S
C856 C855 1.358 . S
C856 H859 0.930 . S
C857 C854 1.348 . S
C857 C855 1.356 . S
H858 C852 0.930 . S
H859 C856 0.930 . S
O860 Li800 1.956 . S
O860 Li801 1.970 1_556 S
O860 Li802 1.961 . S
O860 C804 1.325 . S
O861 Li800 1.970 1_554 S
O861 Li801 1.956 . S
O861 Li803 1.961 . S
O861 C810 1.325 . S
O862 Li800 1.961 . S
O862 Li802 1.956 . S
O862 Li803 1.970 1_556 S
O862 C832 1.325 . S
O863 Li801 1.961 . S
O863 Li802 1.970 1_554 S
O863 Li803 1.956 . S
O863 C838 1.325 . S
H864 C806 0.929 . S
H865 C807 0.930 . S
H866 C808 0.930 . S
H867 C809 0.930 . S
H868 C811 0.930 . S
H869 C813 0.929 . S
H870 C814 0.930 . S
H871 C815 0.930 . S
H872 C818 0.930 . S
H873 C821 0.929 . S
H874 C826 0.929 . S
H875 C827 0.930 . S
H876 C834 0.929 . S
H877 C835 0.930 . S
H878 C836 0.930 . S
H879 C837 0.930 . S
H880 C839 0.929 . S
H881 C840 0.930 . S
H882 C841 0.930 . S
H883 C842 0.930 . S
H884 C846 0.929 . S
H885 C848 0.930 . S
H886 C854 0.929 . S
H887 C855 0.930 . S
Li888 N905 1.990 . S
Li888 O948 1.956 . S
Li888 O949 1.923 1_545 S
Li888 O950 1.961 . S
Li889 N913 1.990 . S
Li889 O948 1.970 1_565 S
Li889 O949 1.958 . S
Li889 O951 1.961 . S
Li890 N935 1.990 . S
Li890 O948 1.961 . S
Li890 O950 1.956 . S
Li890 O951 1.970 1_545 S
Li891 N941 1.990 . S
Li891 O949 1.998 . S
Li891 O950 1.970 1_565 S
Li891 O951 1.956 . S
C892 C894 1.348 . S
C892 C895 1.356 . S
C892 O948 1.325 . S
N893 C896 1.314 . S
N893 C897 1.279 . S
C894 C892 1.348 . S
C894 C896 1.353 . S
C894 H952 0.929 . S
C895 C892 1.356 . S
C895 C897 1.358 . S
C895 H953 0.930 . S
C896 N893 1.314 . S
C896 C894 1.353 . S
C896 H954 0.930 . S
C897 N893 1.279 . S
C897 C895 1.358 . S
C897 H955 0.930 . S
C898 C901 1.348 1_565 S
C898 C902 1.356 . S
C898 O949 1.334 . S
C899 N900 1.279 . S
C899 C902 1.358 . S
C899 H956 0.930 . S
N900 C899 1.279 . S
N900 C903 1.314 1_565 S
C901 C898 1.348 1_545 S
C901 C903 1.353 . S
C901 H957 0.929 . S
C902 C898 1.356 . S
C902 C899 1.358 . S
C902 H958 0.930 . S
C903 N900 1.314 1_545 S
C903 C901 1.353 . S
C903 H959 0.930 . S
C904 N905 1.314 . S
C904 C909 1.353 . S
C904 H910 0.930 . S
N905 Li888 1.990 . S
N905 C904 1.314 . S
N905 C907 1.279 . S
C906 C907 1.358 . S
C906 C908 1.356 . S
C906 H960 0.930 . S
C907 N905 1.279 . S
C907 C906 1.358 . S
C907 H911 0.930 . S
C908 C906 1.356 . S
C908 C909 1.348 . S
C909 C904 1.353 . S
C909 C908 1.348 . S
C909 H961 0.929 . S
H910 C904 0.930 . S
H911 C907 0.930 . S
C912 N913 1.314 . S
C912 C914 1.353 . S
C912 H918 0.930 . S
N913 Li889 1.990 . S
N913 C912 1.314 . S
N913 C916 1.279 . S
C914 C912 1.353 . S
C914 C917 1.348 . S
C914 H962 0.929 . S
C915 C916 1.358 . S
C915 C917 1.356 . S
C915 H963 0.930 . S
C916 N913 1.279 . S
C916 C915 1.358 . S
C916 H919 0.930 . S
C917 C914 1.348 . S
C917 C915 1.356 . S
H918 C912 0.930 . S
H919 C916 0.930 . S
C920 C922 1.348 1_545 S
C920 C923 1.356 . S
C920 O950 1.325 . S
N921 C924 1.314 1_545 S
N921 C925 1.279 . S
C922 C920 1.348 1_565 S
C922 C924 1.353 . S
C922 H964 0.929 . S
C923 C920 1.356 . S
C923 C925 1.358 . S
C923 H965 0.930 . S
C924 N921 1.314 1_565 S
C924 C922 1.353 . S
C924 H966 0.930 . S
C925 N921 1.279 . S
C925 C923 1.358 . S
C925 H967 0.930 . S
C926 C927 1.348 . S
C926 C928 1.356 . S
C926 O951 1.325 . S
C927 C926 1.348 . S
C927 C929 1.353 . S
C927 H968 0.929 . S
C928 C926 1.356 . S
C928 C930 1.358 . S
C928 H969 0.930 . S
C929 C927 1.353 . S
C929 N931 1.314 . S
C929 H970 0.930 . S
C930 C928 1.358 . S
C930 N931 1.279 . S
C930 H971 0.930 . S
N931 C929 1.314 . S
N931 C930 1.279 . S
C932 C934 1.353 . S
C932 N935 1.314 . S
C932 H938 0.930 . S
C933 N935 1.279 . S
C933 C936 1.358 . S
C933 H939 0.930 . S
C934 C932 1.353 . S
C934 C937 1.348 . S
C934 H972 0.929 . S
N935 Li890 1.990 . S
N935 C932 1.314 . S
N935 C933 1.279 . S
C936 C933 1.358 . S
C936 C937 1.356 . S
C936 H973 0.930 . S
C937 C934 1.348 . S
C937 C936 1.356 . S
H938 C932 0.930 . S
H939 C933 0.930 . S
C940 N941 1.314 . S
C940 C942 1.353 . S
C940 H946 0.930 . S
N941 Li891 1.990 . S
N941 C940 1.314 . S
N941 C944 1.279 . S
C942 C940 1.353 . S
C942 C945 1.348 . S
C942 H974 0.929 . S
C943 C944 1.358 . S
C943 C945 1.356 . S
C943 H975 0.930 . S
C944 N941 1.279 . S
C944 C943 1.358 . S
C944 H947 0.930 . S
C945 C942 1.348 . S
C945 C943 1.356 . S
H946 C940 0.930 . S
H947 C944 0.930 . S
O948 Li888 1.956 . S
O948 Li889 1.970 1_545 S
O948 Li890 1.961 . S
O948 C892 1.325 . S
O949 Li888 1.923 1_565 S
O949 Li889 1.958 . S
O949 Li891 1.998 . S
O949 C898 1.334 . S
O950 Li888 1.961 . S
O950 Li890 1.956 . S
O950 Li891 1.970 1_545 S
O950 C920 1.325 . S
O951 Li889 1.961 . S
O951 Li890 1.970 1_565 S
O951 Li891 1.956 . S
O951 C926 1.325 . S
H952 C894 0.929 . S
H953 C895 0.930 . S
H954 C896 0.930 . S
H955 C897 0.930 . S
H956 C899 0.930 . S
H957 C901 0.929 . S
H958 C902 0.930 . S
H959 C903 0.930 . S
H960 C906 0.930 . S
H961 C909 0.929 . S
H962 C914 0.929 . S
H963 C915 0.930 . S
H964 C922 0.929 . S
H965 C923 0.930 . S
H966 C924 0.930 . S
H967 C925 0.930 . S
H968 C927 0.929 . S
H969 C928 0.930 . S
H970 C929 0.930 . S
H971 C930 0.930 . S
H972 C934 0.929 . S
H973 C936 0.930 . S
H974 C942 0.929 . S
H975 C943 0.930 . S
Li976 N993 1.990 . S
Li976 O1036 1.956 . S
Li976 O1037 1.970 . S
Li976 O1038 1.961 . S
Li977 N1001 1.990 . S
Li977 O1036 1.970 . S
Li977 O1037 1.956 . S
Li977 O1039 1.961 . S
Li978 N1023 1.990 . S
Li978 O1036 1.961 . S
Li978 O1038 1.956 . S
Li978 O1039 1.970 . S
Li979 N1029 1.990 . S
Li979 O1037 1.961 . S
Li979 O1038 1.970 . S
Li979 O1039 1.956 . S
C980 C982 1.348 . S
C980 C983 1.356 . S
C980 O1036 1.325 . S
N981 C984 1.314 . S
N981 C985 1.279 . S
C982 C980 1.348 . S
C982 C984 1.353 . S
C982 H1040 0.929 . S
C983 C980 1.356 . S
C983 C985 1.358 . S
C983 H1041 0.930 . S
C984 N981 1.314 . S
C984 C982 1.353 . S
C984 H1042 0.930 . S
C985 N981 1.279 . S
C985 C983 1.358 . S
C985 H1043 0.930 . S
C986 C989 1.348 . S
C986 C990 1.356 . S
C986 O1037 1.325 . S
C987 N988 1.279 . S
C987 C990 1.358 . S
C987 H1044 0.930 . S
N988 C987 1.279 . S
N988 C991 1.314 . S
C989 C986 1.348 . S
C989 C991 1.353 . S
C989 H1045 0.929 . S
C990 C986 1.356 . S
C990 C987 1.358 . S
C990 H1046 0.930 . S
C991 N988 1.314 . S
C991 C989 1.353 . S
C991 H1047 0.930 . S
C992 N993 1.314 . S
C992 C997 1.353 . S
C992 H998 0.930 . S
N993 Li976 1.990 . S
N993 C992 1.314 . S
N993 C995 1.279 . S
C994 C995 1.358 . S
C994 C996 1.356 . S
C994 H1048 0.930 . S
C995 N993 1.279 . S
C995 C994 1.358 . S
C995 H999 0.930 . S
C996 C994 1.356 . S
C996 C997 1.348 . S
C997 C992 1.353 . S
C997 C996 1.348 . S
C997 H1049 0.929 . S
H998 C992 0.930 . S
H999 C995 0.930 . S
C1000 N1001 1.314 . S
C1000 C1002 1.353 . S
C1000 H1006 0.930 . S
N1001 Li977 1.990 . S
N1001 C1000 1.314 . S
N1001 C1004 1.279 . S
C1002 C1000 1.353 . S
C1002 C1005 1.348 . S
C1002 H1050 0.929 . S
C1003 C1004 1.358 . S
C1003 C1005 1.356 . S
C1003 H1051 0.930 . S
C1004 N1001 1.279 . S
C1004 C1003 1.358 . S
C1004 H1007 0.930 . S
C1005 C1002 1.348 . S
C1005 C1003 1.356 . S
H1006 C1000 0.930 . S
H1007 C1004 0.930 . S
C1008 C1010 1.348 . S
C1008 C1011 1.356 . S
C1008 O1038 1.325 . S
N1009 C1012 1.314 . S
N1009 C1013 1.279 . S
C1010 C1008 1.348 . S
C1010 C1012 1.353 . S
C1010 H1052 0.929 . S
C1011 C1008 1.356 . S
C1011 C1013 1.358 . S
C1011 H1053 0.930 . S
C1012 N1009 1.314 . S
C1012 C1010 1.353 . S
C1012 H1054 0.930 . S
C1013 N1009 1.279 . S
C1013 C1011 1.358 . S
C1013 H1055 0.930 . S
C1014 C1015 1.348 . S
C1014 C1016 1.356 . S
C1014 O1039 1.325 . S
C1015 C1014 1.348 . S
C1015 C1017 1.353 . S
C1015 H1056 0.929 . S
C1016 C1014 1.356 . S
C1016 C1018 1.358 . S
C1016 H1057 0.930 . S
C1017 C1015 1.353 . S
C1017 N1019 1.314 . S
C1017 H1058 0.930 . S
C1018 C1016 1.358 . S
C1018 N1019 1.279 . S
C1018 H1059 0.930 . S
N1019 C1017 1.314 . S
N1019 C1018 1.279 . S
C1020 C1022 1.353 . S
C1020 N1023 1.314 . S
C1020 H1026 0.930 . S
C1021 N1023 1.279 . S
C1021 C1024 1.358 . S
C1021 H1027 0.930 . S
C1022 C1020 1.353 . S
C1022 C1025 1.348 . S
C1022 H1060 0.929 . S
N1023 Li978 1.990 . S
N1023 C1020 1.314 . S
N1023 C1021 1.279 . S
C1024 C1021 1.358 . S
C1024 C1025 1.356 . S
C1024 H1061 0.930 . S
C1025 C1022 1.348 . S
C1025 C1024 1.356 . S
H1026 C1020 0.930 . S
H1027 C1021 0.930 . S
C1028 N1029 1.314 . S
C1028 C1030 1.353 . S
C1028 H1034 0.930 . S
N1029 Li979 1.990 . S
N1029 C1028 1.314 . S
N1029 C1032 1.279 . S
C1030 C1028 1.353 . S
C1030 C1033 1.348 . S
C1030 H1062 0.929 . S
C1031 C1032 1.358 . S
C1031 C1033 1.356 . S
C1031 H1063 0.930 . S
C1032 N1029 1.279 . S
C1032 C1031 1.358 . S
C1032 H1035 0.930 . S
C1033 C1030 1.348 . S
C1033 C1031 1.356 . S
H1034 C1028 0.930 . S
H1035 C1032 0.930 . S
O1036 Li976 1.956 . S
O1036 Li977 1.970 . S
O1036 Li978 1.961 . S
O1036 C980 1.325 . S
O1037 Li976 1.970 . S
O1037 Li977 1.956 . S
O1037 Li979 1.961 . S
O1037 C986 1.325 . S
O1038 Li976 1.961 . S
O1038 Li978 1.956 . S
O1038 Li979 1.970 . S
O1038 C1008 1.325 . S
O1039 Li977 1.961 . S
O1039 Li978 1.970 . S
O1039 Li979 1.956 . S
O1039 C1014 1.325 . S
H1040 C982 0.929 . S
H1041 C983 0.930 . S
H1042 C984 0.930 . S
H1043 C985 0.930 . S
H1044 C987 0.930 . S
H1045 C989 0.929 . S
H1046 C990 0.930 . S
H1047 C991 0.930 . S
H1048 C994 0.930 . S
H1049 C997 0.929 . S
H1050 C1002 0.929 . S
H1051 C1003 0.930 . S
H1052 C1010 0.929 . S
H1053 C1011 0.930 . S
H1054 C1012 0.930 . S
H1055 C1013 0.930 . S
H1056 C1015 0.929 . S
H1057 C1016 0.930 . S
H1058 C1017 0.930 . S
H1059 C1018 0.930 . S
H1060 C1022 0.929 . S
H1061 C1024 0.930 . S
H1062 C1030 0.929 . S
H1063 C1031 0.930 . S
Li1064 N1081 1.990 . S
Li1064 O1124 1.956 . S
Li1064 O1125 1.970 . S
Li1064 O1126 1.961 . S
Li1065 N1089 1.990 . S
Li1065 O1124 1.970 . S
Li1065 O1125 1.956 . S
Li1065 O1127 1.961 . S
Li1066 N1111 1.990 . S
Li1066 O1124 1.961 . S
Li1066 O1126 1.956 . S
Li1066 O1127 1.970 . S
Li1067 N1117 1.990 . S
Li1067 O1125 1.961 . S
Li1067 O1126 1.970 . S
Li1067 O1127 1.956 . S
C1068 C1070 1.348 . S
C1068 C1071 1.356 . S
C1068 O1124 1.325 . S
N1069 C1072 1.314 . S
N1069 C1073 1.279 . S
C1070 C1068 1.348 . S
C1070 C1072 1.353 . S
C1070 H1128 0.929 . S
C1071 C1068 1.356 . S
C1071 C1073 1.358 . S
C1071 H1129 0.930 . S
C1072 N1069 1.314 . S
C1072 C1070 1.353 . S
C1072 H1130 0.930 . S
C1073 N1069 1.279 . S
C1073 C1071 1.358 . S
C1073 H1131 0.930 . S
C1074 C1077 1.348 . S
C1074 C1078 1.356 . S
C1074 O1125 1.325 . S
C1075 N1076 1.279 . S
C1075 C1078 1.358 . S
C1075 H1132 0.930 . S
N1076 C1075 1.279 . S
N1076 C1079 1.314 . S
C1077 C1074 1.348 . S
C1077 C1079 1.353 . S
C1077 H1133 0.929 . S
C1078 C1074 1.356 . S
C1078 C1075 1.358 . S
C1078 H1134 0.930 . S
C1079 N1076 1.314 . S
C1079 C1077 1.353 . S
C1079 H1135 0.930 . S
C1080 N1081 1.314 . S
C1080 C1085 1.353 . S
C1080 H1086 0.930 . S
N1081 Li1064 1.990 . S
N1081 C1080 1.314 . S
N1081 C1083 1.279 . S
C1082 C1083 1.358 . S
C1082 C1084 1.356 . S
C1082 H1136 0.930 . S
C1083 N1081 1.279 . S
C1083 C1082 1.358 . S
C1083 H1087 0.930 . S
C1084 C1082 1.356 . S
C1084 C1085 1.348 . S
C1085 C1080 1.353 . S
C1085 C1084 1.348 . S
C1085 H1137 0.929 . S
H1086 C1080 0.930 . S
H1087 C1083 0.930 . S
C1088 N1089 1.314 . S
C1088 C1090 1.353 . S
C1088 H1094 0.930 . S
N1089 Li1065 1.990 . S
N1089 C1088 1.314 . S
N1089 C1092 1.279 . S
C1090 C1088 1.353 . S
C1090 C1093 1.348 . S
C1090 H1138 0.929 . S
C1091 C1092 1.358 . S
C1091 C1093 1.356 . S
C1091 H1139 0.930 . S
C1092 N1089 1.279 . S
C1092 C1091 1.358 . S
C1092 H1095 0.930 . S
C1093 C1090 1.348 . S
C1093 C1091 1.356 . S
H1094 C1088 0.930 . S
H1095 C1092 0.930 . S
C1096 C1098 1.348 . S
C1096 C1099 1.356 . S
C1096 O1126 1.325 . S
N1097 C1100 1.314 . S
N1097 C1101 1.279 . S
C1098 C1096 1.348 . S
C1098 C1100 1.353 . S
C1098 H1140 0.929 . S
C1099 C1096 1.356 . S
C1099 C1101 1.358 . S
C1099 H1141 0.930 . S
C1100 N1097 1.314 . S
C1100 C1098 1.353 . S
C1100 H1142 0.930 . S
C1101 N1097 1.279 . S
C1101 C1099 1.358 . S
C1101 H1143 0.930 . S
C1102 C1103 1.348 . S
C1102 C1104 1.356 . S
C1102 O1127 1.325 . S
C1103 C1102 1.348 . S
C1103 C1105 1.353 . S
C1103 H1144 0.929 . S
C1104 C1102 1.356 . S
C1104 C1106 1.358 . S
C1104 H1145 0.930 . S
C1105 C1103 1.353 . S
C1105 N1107 1.314 . S
C1105 H1146 0.930 . S
C1106 C1104 1.358 . S
C1106 N1107 1.279 . S
C1106 H1147 0.930 . S
N1107 C1105 1.314 . S
N1107 C1106 1.279 . S
C1108 C1110 1.353 . S
C1108 N1111 1.314 . S
C1108 H1114 0.930 . S
C1109 N1111 1.279 . S
C1109 C1112 1.358 . S
C1109 H1115 0.930 . S
C1110 C1108 1.353 . S
C1110 C1113 1.348 . S
C1110 H1148 0.929 . S
N1111 Li1066 1.990 . S
N1111 C1108 1.314 . S
N1111 C1109 1.279 . S
C1112 C1109 1.358 . S
C1112 C1113 1.356 . S
C1112 H1149 0.930 . S
C1113 C1110 1.348 . S
C1113 C1112 1.356 . S
H1114 C1108 0.930 . S
H1115 C1109 0.930 . S
C1116 N1117 1.314 . S
C1116 C1118 1.353 . S
C1116 H1122 0.930 . S
N1117 Li1067 1.990 . S
N1117 C1116 1.314 . S
N1117 C1120 1.279 . S
C1118 C1116 1.353 . S
C1118 C1121 1.348 . S
C1118 H1150 0.929 . S
C1119 C1120 1.358 . S
C1119 C1121 1.356 . S
C1119 H1151 0.930 . S
C1120 N1117 1.279 . S
C1120 C1119 1.358 . S
C1120 H1123 0.930 . S
C1121 C1118 1.348 . S
C1121 C1119 1.356 . S
H1122 C1116 0.930 . S
H1123 C1120 0.930 . S
O1124 Li1064 1.956 . S
O1124 Li1065 1.970 . S
O1124 Li1066 1.961 . S
O1124 C1068 1.325 . S
O1125 Li1064 1.970 . S
O1125 Li1065 1.956 . S
O1125 Li1067 1.961 . S
O1125 C1074 1.325 . S
O1126 Li1064 1.961 . S
O1126 Li1066 1.956 . S
O1126 Li1067 1.970 . S
O1126 C1096 1.325 . S
O1127 Li1065 1.961 . S
O1127 Li1066 1.970 . S
O1127 Li1067 1.956 . S
O1127 C1102 1.325 . S
H1128 C1070 0.929 . S
H1129 C1071 0.930 . S
H1130 C1072 0.930 . S
H1131 C1073 0.930 . S
H1132 C1075 0.930 . S
H1133 C1077 0.929 . S
H1134 C1078 0.930 . S
H1135 C1079 0.930 . S
H1136 C1082 0.930 . S
H1137 C1085 0.929 . S
H1138 C1090 0.929 . S
H1139 C1091 0.930 . S
H1140 C1098 0.929 . S
H1141 C1099 0.930 . S
H1142 C1100 0.930 . S
H1143 C1101 0.930 . S
H1144 C1103 0.929 . S
H1145 C1104 0.930 . S
H1146 C1105 0.930 . S
H1147 C1106 0.930 . S
H1148 C1110 0.929 . S
H1149 C1112 0.930 . S
H1150 C1118 0.929 . S
H1151 C1119 0.930 . S
Li1152 N1169 1.990 . S
Li1152 O1212 1.956 . S
Li1152 O1213 1.970 . S
Li1152 O1214 1.961 . S
Li1153 N1177 1.990 . S
Li1153 O1212 1.970 . S
Li1153 O1213 1.956 . S
Li1153 O1215 1.961 . S
Li1154 N1199 1.990 . S
Li1154 O1212 1.961 . S
Li1154 O1214 1.956 . S
Li1154 O1215 1.970 . S
Li1155 N1205 1.990 . S
Li1155 O1213 1.961 . S
Li1155 O1214 1.970 . S
Li1155 O1215 1.956 . S
C1156 C1158 1.348 . S
C1156 C1159 1.356 . S
C1156 O1212 1.325 . S
N1157 C1160 1.314 . S
N1157 C1161 1.279 . S
C1158 C1156 1.348 . S
C1158 C1160 1.353 . S
C1158 H1216 0.929 . S
C1159 C1156 1.356 . S
C1159 C1161 1.358 . S
C1159 H1217 0.930 . S
C1160 N1157 1.314 . S
C1160 C1158 1.353 . S
C1160 H1218 0.930 . S
C1161 N1157 1.279 . S
C1161 C1159 1.358 . S
C1161 H1219 0.930 . S
C1162 C1165 1.348 . S
C1162 C1166 1.356 . S
C1162 O1213 1.325 . S
C1163 N1164 1.279 . S
C1163 C1166 1.358 . S
C1163 H1220 0.930 . S
N1164 C1163 1.279 . S
N1164 C1167 1.314 . S
C1165 C1162 1.348 . S
C1165 C1167 1.353 . S
C1165 H1221 0.929 . S
C1166 C1162 1.356 . S
C1166 C1163 1.358 . S
C1166 H1222 0.930 . S
C1167 N1164 1.314 . S
C1167 C1165 1.353 . S
C1167 H1223 0.930 . S
C1168 N1169 1.314 . S
C1168 C1173 1.353 . S
C1168 H1174 0.930 . S
N1169 Li1152 1.990 . S
N1169 C1168 1.314 . S
N1169 C1171 1.279 . S
C1170 C1171 1.358 . S
C1170 C1172 1.356 . S
C1170 H1224 0.930 . S
C1171 N1169 1.279 . S
C1171 C1170 1.358 . S
C1171 H1175 0.930 . S
C1172 C1170 1.356 . S
C1172 C1173 1.348 . S
C1173 C1168 1.353 . S
C1173 C1172 1.348 . S
C1173 H1225 0.929 . S
H1174 C1168 0.930 . S
H1175 C1171 0.930 . S
C1176 N1177 1.314 . S
C1176 C1178 1.353 . S
C1176 H1182 0.930 . S
N1177 Li1153 1.990 . S
N1177 C1176 1.314 . S
N1177 C1180 1.279 . S
C1178 C1176 1.353 . S
C1178 C1181 1.348 . S
C1178 H1226 0.929 . S
C1179 C1180 1.358 . S
C1179 C1181 1.356 . S
C1179 H1227 0.930 . S
C1180 N1177 1.279 . S
C1180 C1179 1.358 . S
C1180 H1183 0.930 . S
C1181 C1178 1.348 . S
C1181 C1179 1.356 . S
H1182 C1176 0.930 . S
H1183 C1180 0.930 . S
C1184 C1186 1.348 . S
C1184 C1187 1.356 . S
C1184 O1214 1.325 . S
N1185 C1188 1.314 . S
N1185 C1189 1.279 . S
C1186 C1184 1.348 . S
C1186 C1188 1.353 . S
C1186 H1228 0.929 . S
C1187 C1184 1.356 . S
C1187 C1189 1.358 . S
C1187 H1229 0.930 . S
C1188 N1185 1.314 . S
C1188 C1186 1.353 . S
C1188 H1230 0.930 . S
C1189 N1185 1.279 . S
C1189 C1187 1.358 . S
C1189 H1231 0.930 . S
C1190 C1191 1.348 . S
C1190 C1192 1.356 . S
C1190 O1215 1.325 . S
C1191 C1190 1.348 . S
C1191 C1193 1.353 . S
C1191 H1232 0.929 . S
C1192 C1190 1.356 . S
C1192 C1194 1.358 . S
C1192 H1233 0.930 . S
C1193 C1191 1.353 . S
C1193 N1195 1.314 . S
C1193 H1234 0.930 . S
C1194 C1192 1.358 . S
C1194 N1195 1.279 . S
C1194 H1235 0.930 . S
N1195 C1193 1.314 . S
N1195 C1194 1.279 . S
C1196 C1198 1.353 . S
C1196 N1199 1.314 . S
C1196 H1202 0.930 . S
C1197 N1199 1.279 . S
C1197 C1200 1.358 . S
C1197 H1203 0.930 . S
C1198 C1196 1.353 . S
C1198 C1201 1.348 . S
C1198 H1236 0.929 . S
N1199 Li1154 1.990 . S
N1199 C1196 1.314 . S
N1199 C1197 1.279 . S
C1200 C1197 1.358 . S
C1200 C1201 1.356 . S
C1200 H1237 0.930 . S
C1201 C1198 1.348 . S
C1201 C1200 1.356 . S
H1202 C1196 0.930 . S
H1203 C1197 0.930 . S
C1204 N1205 1.314 . S
C1204 C1206 1.353 . S
C1204 H1210 0.930 . S
N1205 Li1155 1.990 . S
N1205 C1204 1.314 . S
N1205 C1208 1.279 . S
C1206 C1204 1.353 . S
C1206 C1209 1.348 . S
C1206 H1238 0.929 . S
C1207 C1208 1.358 . S
C1207 C1209 1.356 . S
C1207 H1239 0.930 . S
C1208 N1205 1.279 . S
C1208 C1207 1.358 . S
C1208 H1211 0.930 . S
C1209 C1206 1.348 . S
C1209 C1207 1.356 . S
H1210 C1204 0.930 . S
H1211 C1208 0.930 . S
O1212 Li1152 1.956 . S
O1212 Li1153 1.970 . S
O1212 Li1154 1.961 . S
O1212 C1156 1.325 . S
O1213 Li1152 1.970 . S
O1213 Li1153 1.956 . S
O1213 Li1155 1.961 . S
O1213 C1162 1.325 . S
O1214 Li1152 1.961 . S
O1214 Li1154 1.956 . S
O1214 Li1155 1.970 . S
O1214 C1184 1.325 . S
O1215 Li1153 1.961 . S
O1215 Li1154 1.970 . S
O1215 Li1155 1.956 . S
O1215 C1190 1.325 . S
H1216 C1158 0.929 . S
H1217 C1159 0.930 . S
H1218 C1160 0.930 . S
H1219 C1161 0.930 . S
H1220 C1163 0.930 . S
H1221 C1165 0.929 . S
H1222 C1166 0.930 . S
H1223 C1167 0.930 . S
H1224 C1170 0.930 . S
H1225 C1173 0.929 . S
H1226 C1178 0.929 . S
H1227 C1179 0.930 . S
H1228 C1186 0.929 . S
H1229 C1187 0.930 . S
H1230 C1188 0.930 . S
H1231 C1189 0.930 . S
H1232 C1191 0.929 . S
H1233 C1192 0.930 . S
H1234 C1193 0.930 . S
H1235 C1194 0.930 . S
H1236 C1198 0.929 . S
H1237 C1200 0.930 . S
H1238 C1206 0.929 . S
H1239 C1207 0.930 . S
Li1240 N1257 1.990 . S
Li1240 O1300 1.956 . S
Li1240 O1301 1.970 1_565 S
Li1240 O1302 1.961 . S
Li1241 N1265 1.990 . S
Li1241 O1300 1.970 1_545 S
Li1241 O1301 1.956 . S
Li1241 O1303 1.961 . S
Li1242 N1287 1.990 . S
Li1242 O1300 1.961 . S
Li1242 O1302 1.956 . S
Li1242 O1303 1.970 1_565 S
Li1243 N1293 1.990 . S
Li1243 O1301 1.961 . S
Li1243 O1302 1.970 1_545 S
Li1243 O1303 1.956 . S
C1244 C1246 1.348 . S
C1244 C1247 1.356 . S
C1244 O1300 1.325 . S
N1245 C1248 1.314 . S
N1245 C1249 1.279 . S
C1246 C1244 1.348 . S
C1246 C1248 1.353 . S
C1246 H1304 0.929 . S
C1247 C1244 1.356 . S
C1247 C1249 1.358 . S
C1247 H1305 0.930 . S
C1248 N1245 1.314 . S
C1248 C1246 1.353 . S
C1248 H1306 0.930 . S
C1249 N1245 1.279 . S
C1249 C1247 1.358 . S
C1249 H1307 0.930 . S
C1250 C1253 1.348 1_545 S
C1250 C1254 1.356 . S
C1250 O1301 1.325 . S
C1251 N1252 1.279 . S
C1251 C1254 1.358 . S
C1251 H1308 0.930 . S
N1252 C1251 1.279 . S
N1252 C1255 1.314 1_545 S
C1253 C1250 1.348 1_565 S
C1253 C1255 1.353 . S
C1253 H1309 0.929 . S
C1254 C1250 1.356 . S
C1254 C1251 1.358 . S
C1254 H1310 0.930 . S
C1255 N1252 1.314 1_565 S
C1255 C1253 1.353 . S
C1255 H1311 0.930 . S
C1256 N1257 1.314 . S
C1256 C1261 1.353 . S
C1256 H1262 0.930 . S
N1257 Li1240 1.990 . S
N1257 C1256 1.314 . S
N1257 C1259 1.279 . S
C1258 C1259 1.358 . S
C1258 C1260 1.356 . S
C1258 H1312 0.930 . S
C1259 N1257 1.279 . S
C1259 C1258 1.358 . S
C1259 H1263 0.930 . S
C1260 C1258 1.356 . S
C1260 C1261 1.348 . S
C1261 C1256 1.353 . S
C1261 C1260 1.348 . S
C1261 H1313 0.929 . S
H1262 C1256 0.930 . S
H1263 C1259 0.930 . S
C1264 N1265 1.314 . S
C1264 C1266 1.353 . S
C1264 H1270 0.930 . S
N1265 Li1241 1.990 . S
N1265 C1264 1.314 . S
N1265 C1268 1.279 . S
C1266 C1264 1.353 . S
C1266 C1269 1.348 . S
C1266 H1314 0.929 . S
C1267 C1268 1.358 . S
C1267 C1269 1.356 . S
C1267 H1315 0.930 . S
C1268 N1265 1.279 . S
C1268 C1267 1.358 . S
C1268 H1271 0.930 . S
C1269 C1266 1.348 . S
C1269 C1267 1.356 . S
H1270 C1264 0.930 . S
H1271 C1268 0.930 . S
C1272 C1274 1.348 1_565 S
C1272 C1275 1.356 . S
C1272 O1302 1.325 . S
N1273 C1276 1.314 1_565 S
N1273 C1277 1.279 . S
C1274 C1272 1.348 1_545 S
C1274 C1276 1.353 . S
C1274 H1316 0.929 . S
C1275 C1272 1.356 . S
C1275 C1277 1.358 . S
C1275 H1317 0.930 . S
C1276 N1273 1.314 1_545 S
C1276 C1274 1.353 . S
C1276 H1318 0.930 . S
C1277 N1273 1.279 . S
C1277 C1275 1.358 . S
C1277 H1319 0.930 . S
C1278 C1279 1.348 . S
C1278 C1280 1.356 . S
C1278 O1303 1.325 . S
C1279 C1278 1.348 . S
C1279 C1281 1.353 . S
C1279 H1320 0.929 . S
C1280 C1278 1.356 . S
C1280 C1282 1.358 . S
C1280 H1321 0.930 . S
C1281 C1279 1.353 . S
C1281 N1283 1.314 . S
C1281 H1322 0.930 . S
C1282 C1280 1.358 . S
C1282 N1283 1.279 . S
C1282 H1323 0.930 . S
N1283 C1281 1.314 . S
N1283 C1282 1.279 . S
C1284 C1286 1.353 . S
C1284 N1287 1.314 . S
C1284 H1290 0.930 . S
C1285 N1287 1.279 . S
C1285 C1288 1.358 . S
C1285 H1291 0.930 . S
C1286 C1284 1.353 . S
C1286 C1289 1.348 . S
C1286 H1324 0.929 . S
N1287 Li1242 1.990 . S
N1287 C1284 1.314 . S
N1287 C1285 1.279 . S
C1288 C1285 1.358 . S
C1288 C1289 1.356 . S
C1288 H1325 0.930 . S
C1289 C1286 1.348 . S
C1289 C1288 1.356 . S
H1290 C1284 0.930 . S
H1291 C1285 0.930 . S
C1292 N1293 1.314 . S
C1292 C1294 1.353 . S
C1292 H1298 0.930 . S
N1293 Li1243 1.990 . S
N1293 C1292 1.314 . S
N1293 C1296 1.279 . S
C1294 C1292 1.353 . S
C1294 C1297 1.348 . S
C1294 H1326 0.929 . S
C1295 C1296 1.358 . S
C1295 C1297 1.356 . S
C1295 H1327 0.930 . S
C1296 N1293 1.279 . S
C1296 C1295 1.358 . S
C1296 H1299 0.930 . S
C1297 C1294 1.348 . S
C1297 C1295 1.356 . S
H1298 C1292 0.930 . S
H1299 C1296 0.930 . S
O1300 Li1240 1.956 . S
O1300 Li1241 1.970 1_565 S
O1300 Li1242 1.961 . S
O1300 C1244 1.325 . S
O1301 Li1240 1.970 1_545 S
O1301 Li1241 1.956 . S
O1301 Li1243 1.961 . S
O1301 C1250 1.325 . S
O1302 Li1240 1.961 . S
O1302 Li1242 1.956 . S
O1302 Li1243 1.970 1_565 S
O1302 C1272 1.325 . S
O1303 Li1241 1.961 . S
O1303 Li1242 1.970 1_545 S
O1303 Li1243 1.956 . S
O1303 C1278 1.325 . S
H1304 C1246 0.929 . S
H1305 C1247 0.930 . S
H1306 C1248 0.930 . S
H1307 C1249 0.930 . S
H1308 C1251 0.930 . S
H1309 C1253 0.929 . S
H1310 C1254 0.930 . S
H1311 C1255 0.930 . S
H1312 C1258 0.930 . S
H1313 C1261 0.929 . S
H1314 C1266 0.929 . S
H1315 C1267 0.930 . S
H1316 C1274 0.929 . S
H1317 C1275 0.930 . S
H1318 C1276 0.930 . S
H1319 C1277 0.930 . S
H1320 C1279 0.929 . S
H1321 C1280 0.930 . S
H1322 C1281 0.930 . S
H1323 C1282 0.930 . S
H1324 C1286 0.929 . S
H1325 C1288 0.930 . S
H1326 C1294 0.929 . S
H1327 C1295 0.930 . S
Li1328 N1345 1.990 . S
Li1328 O1388 1.956 . S
Li1328 O1389 1.970 1_455 S
Li1328 O1390 1.961 . S
Li1329 N1353 1.990 . S
Li1329 O1388 1.970 1_655 S
Li1329 O1389 1.956 . S
Li1329 O1391 1.961 . S
Li1330 N1375 1.990 . S
Li1330 O1388 1.961 . S
Li1330 O1390 1.956 . S
Li1330 O1391 1.970 1_455 S
Li1331 N1381 1.990 . S
Li1331 O1389 1.961 . S
Li1331 O1390 1.970 1_655 S
Li1331 O1391 1.956 . S
C1332 C1334 1.348 . S
C1332 C1335 1.356 . S
C1332 O1388 1.325 . S
N1333 C1336 1.314 . S
N1333 C1337 1.279 . S
C1334 C1332 1.348 . S
C1334 C1336 1.353 . S
C1334 H1392 0.929 . S
C1335 C1332 1.356 . S
C1335 C1337 1.358 . S
C1335 H1393 0.930 . S
C1336 N1333 1.314 . S
C1336 C1334 1.353 . S
C1336 H1394 0.930 . S
C1337 N1333 1.279 . S
C1337 C1335 1.358 . S
C1337 H1395 0.930 . S
C1338 C1341 1.348 1_655 S
C1338 C1342 1.356 . S
C1338 O1389 1.325 . S
C1339 N1340 1.279 . S
C1339 C1342 1.358 . S
C1339 H1396 0.930 . S
N1340 C1339 1.279 . S
N1340 C1343 1.314 1_655 S
C1341 C1338 1.348 1_455 S
C1341 C1343 1.353 . S
C1341 H1397 0.929 . S
C1342 C1338 1.356 . S
C1342 C1339 1.358 . S
C1342 H1398 0.930 . S
C1343 N1340 1.314 1_455 S
C1343 C1341 1.353 . S
C1343 H1399 0.930 . S
C1344 N1345 1.314 . S
C1344 C1349 1.353 . S
C1344 H1350 0.930 . S
N1345 Li1328 1.990 . S
N1345 C1344 1.314 . S
N1345 C1347 1.279 . S
C1346 C1347 1.358 . S
C1346 C1348 1.356 . S
C1346 H1400 0.930 . S
C1347 N1345 1.279 . S
C1347 C1346 1.358 . S
C1347 H1351 0.930 . S
C1348 C1346 1.356 . S
C1348 C1349 1.348 . S
C1349 C1344 1.353 . S
C1349 C1348 1.348 . S
C1349 H1401 0.929 . S
H1350 C1344 0.930 . S
H1351 C1347 0.930 . S
C1352 N1353 1.314 . S
C1352 C1354 1.353 . S
C1352 H1358 0.930 . S
N1353 Li1329 1.990 . S
N1353 C1352 1.314 . S
N1353 C1356 1.279 . S
C1354 C1352 1.353 . S
C1354 C1357 1.348 . S
C1354 H1402 0.929 . S
C1355 C1356 1.358 . S
C1355 C1357 1.356 . S
C1355 H1403 0.930 . S
C1356 N1353 1.279 . S
C1356 C1355 1.358 . S
C1356 H1359 0.930 . S
C1357 C1354 1.348 . S
C1357 C1355 1.356 . S
H1358 C1352 0.930 . S
H1359 C1356 0.930 . S
C1360 C1362 1.348 1_455 S
C1360 C1363 1.356 . S
C1360 O1390 1.325 . S
N1361 C1364 1.314 1_455 S
N1361 C1365 1.279 . S
C1362 C1360 1.348 1_655 S
C1362 C1364 1.353 . S
C1362 H1404 0.929 . S
C1363 C1360 1.356 . S
C1363 C1365 1.358 . S
C1363 H1405 0.930 . S
C1364 N1361 1.314 1_655 S
C1364 C1362 1.353 . S
C1364 H1406 0.930 . S
C1365 N1361 1.279 . S
C1365 C1363 1.358 . S
C1365 H1407 0.930 . S
C1366 C1367 1.348 . S
C1366 C1368 1.356 . S
C1366 O1391 1.325 . S
C1367 C1366 1.348 . S
C1367 C1369 1.353 . S
C1367 H1408 0.929 . S
C1368 C1366 1.356 . S
C1368 C1370 1.358 . S
C1368 H1409 0.930 . S
C1369 C1367 1.353 . S
C1369 N1371 1.314 . S
C1369 H1410 0.930 . S
C1370 C1368 1.358 . S
C1370 N1371 1.279 . S
C1370 H1411 0.930 . S
N1371 C1369 1.314 . S
N1371 C1370 1.279 . S
C1372 C1374 1.353 . S
C1372 N1375 1.314 . S
C1372 H1378 0.930 . S
C1373 N1375 1.279 . S
C1373 C1376 1.358 . S
C1373 H1379 0.930 . S
C1374 C1372 1.353 . S
C1374 C1377 1.348 . S
C1374 H1412 0.929 . S
N1375 Li1330 1.990 . S
N1375 C1372 1.314 . S
N1375 C1373 1.279 . S
C1376 C1373 1.358 . S
C1376 C1377 1.356 . S
C1376 H1413 0.930 . S
C1377 C1374 1.348 . S
C1377 C1376 1.356 . S
H1378 C1372 0.930 . S
H1379 C1373 0.930 . S
C1380 N1381 1.314 . S
C1380 C1382 1.353 . S
C1380 H1386 0.930 . S
N1381 Li1331 1.990 . S
N1381 C1380 1.314 . S
N1381 C1384 1.279 . S
C1382 C1380 1.353 . S
C1382 C1385 1.348 . S
C1382 H1414 0.929 . S
C1383 C1384 1.358 . S
C1383 C1385 1.356 . S
C1383 H1415 0.930 . S
C1384 N1381 1.279 . S
C1384 C1383 1.358 . S
C1384 H1387 0.930 . S
C1385 C1382 1.348 . S
C1385 C1383 1.356 . S
H1386 C1380 0.930 . S
H1387 C1384 0.930 . S
O1388 Li1328 1.956 . S
O1388 Li1329 1.970 1_455 S
O1388 Li1330 1.961 . S
O1388 C1332 1.325 . S
O1389 Li1328 1.970 1_655 S
O1389 Li1329 1.956 . S
O1389 Li1331 1.961 . S
O1389 C1338 1.325 . S
O1390 Li1328 1.961 . S
O1390 Li1330 1.956 . S
O1390 Li1331 1.970 1_455 S
O1390 C1360 1.325 . S
O1391 Li1329 1.961 . S
O1391 Li1330 1.970 1_655 S
O1391 Li1331 1.956 . S
O1391 C1366 1.325 . S
H1392 C1334 0.929 . S
H1393 C1335 0.930 . S
H1394 C1336 0.930 . S
H1395 C1337 0.930 . S
H1396 C1339 0.930 . S
H1397 C1341 0.929 . S
H1398 C1342 0.930 . S
H1399 C1343 0.930 . S
H1400 C1346 0.930 . S
H1401 C1349 0.929 . S
H1402 C1354 0.929 . S
H1403 C1355 0.930 . S
H1404 C1362 0.929 . S
H1405 C1363 0.930 . S
H1406 C1364 0.930 . S
H1407 C1365 0.930 . S
H1408 C1367 0.929 . S
H1409 C1368 0.930 . S
H1410 C1369 0.930 . S
H1411 C1370 0.930 . S
H1412 C1374 0.929 . S
H1413 C1376 0.930 . S
H1414 C1382 0.929 . S
H1415 C1383 0.930 . S
Li1416 N1433 1.990 . S
Li1416 O1476 1.956 . S
Li1416 O1477 1.970 . S
Li1416 O1478 1.961 . S
Li1417 N1441 1.990 . S
Li1417 O1476 1.970 . S
Li1417 O1477 1.956 . S
Li1417 O1479 1.961 . S
Li1418 N1463 1.990 . S
Li1418 O1476 1.961 . S
Li1418 O1478 1.956 . S
Li1418 O1479 1.970 . S
Li1419 N1469 1.990 . S
Li1419 O1477 1.961 . S
Li1419 O1478 1.970 . S
Li1419 O1479 1.956 . S
C1420 C1422 1.348 . S
C1420 C1423 1.356 . S
C1420 O1476 1.325 . S
N1421 C1424 1.314 . S
N1421 C1425 1.279 . S
C1422 C1420 1.348 . S
C1422 C1424 1.353 . S
C1422 H1480 0.929 . S
C1423 C1420 1.356 . S
C1423 C1425 1.358 . S
C1423 H1481 0.930 . S
C1424 N1421 1.314 . S
C1424 C1422 1.353 . S
C1424 H1482 0.930 . S
C1425 N1421 1.279 . S
C1425 C1423 1.358 . S
C1425 H1483 0.930 . S
C1426 C1429 1.348 . S
C1426 C1430 1.356 . S
C1426 O1477 1.325 . S
C1427 N1428 1.279 . S
C1427 C1430 1.358 . S
C1427 H1484 0.930 . S
N1428 C1427 1.279 . S
N1428 C1431 1.314 . S
C1429 C1426 1.348 . S
C1429 C1431 1.353 . S
C1429 H1485 0.929 . S
C1430 C1426 1.356 . S
C1430 C1427 1.358 . S
C1430 H1486 0.930 . S
C1431 N1428 1.314 . S
C1431 C1429 1.353 . S
C1431 H1487 0.930 . S
C1432 N1433 1.314 . S
C1432 C1437 1.353 . S
C1432 H1438 0.930 . S
N1433 Li1416 1.990 . S
N1433 C1432 1.314 . S
N1433 C1435 1.279 . S
C1434 C1435 1.358 . S
C1434 C1436 1.356 . S
C1434 H1488 0.930 . S
C1435 N1433 1.279 . S
C1435 C1434 1.358 . S
C1435 H1439 0.930 . S
C1436 C1434 1.356 . S
C1436 C1437 1.348 . S
C1437 C1432 1.353 . S
C1437 C1436 1.348 . S
C1437 H1489 0.929 . S
H1438 C1432 0.930 . S
H1439 C1435 0.930 . S
C1440 N1441 1.314 . S
C1440 C1442 1.353 . S
C1440 H1446 0.930 . S
N1441 Li1417 1.990 . S
N1441 C1440 1.314 . S
N1441 C1444 1.279 . S
C1442 C1440 1.353 . S
C1442 C1445 1.348 . S
C1442 H1490 0.929 . S
C1443 C1444 1.358 . S
C1443 C1445 1.356 . S
C1443 H1491 0.930 . S
C1444 N1441 1.279 . S
C1444 C1443 1.358 . S
C1444 H1447 0.930 . S
C1445 C1442 1.348 . S
C1445 C1443 1.356 . S
H1446 C1440 0.930 . S
H1447 C1444 0.930 . S
C1448 C1450 1.348 . S
C1448 C1451 1.356 . S
C1448 O1478 1.325 . S
N1449 C1452 1.314 . S
N1449 C1453 1.279 . S
C1450 C1448 1.348 . S
C1450 C1452 1.353 . S
C1450 H1492 0.929 . S
C1451 C1448 1.356 . S
C1451 C1453 1.358 . S
C1451 H1493 0.930 . S
C1452 N1449 1.314 . S
C1452 C1450 1.353 . S
C1452 H1494 0.930 . S
C1453 N1449 1.279 . S
C1453 C1451 1.358 . S
C1453 H1495 0.930 . S
C1454 C1455 1.348 . S
C1454 C1456 1.356 . S
C1454 O1479 1.325 . S
C1455 C1454 1.348 . S
C1455 C1457 1.353 . S
C1455 H1496 0.929 . S
C1456 C1454 1.356 . S
C1456 C1458 1.358 . S
C1456 H1497 0.930 . S
C1457 C1455 1.353 . S
C1457 N1459 1.314 . S
C1457 H1498 0.930 . S
C1458 C1456 1.358 . S
C1458 N1459 1.279 . S
C1458 H1499 0.930 . S
N1459 C1457 1.314 . S
N1459 C1458 1.279 . S
C1460 C1462 1.353 . S
C1460 N1463 1.314 . S
C1460 H1466 0.930 . S
C1461 N1463 1.279 . S
C1461 C1464 1.358 . S
C1461 H1467 0.930 . S
C1462 C1460 1.353 . S
C1462 C1465 1.348 . S
C1462 H1500 0.929 . S
N1463 Li1418 1.990 . S
N1463 C1460 1.314 . S
N1463 C1461 1.279 . S
C1464 C1461 1.358 . S
C1464 C1465 1.356 . S
C1464 H1501 0.930 . S
C1465 C1462 1.348 . S
C1465 C1464 1.356 . S
H1466 C1460 0.930 . S
H1467 C1461 0.930 . S
C1468 N1469 1.314 . S
C1468 C1470 1.353 . S
C1468 H1474 0.930 . S
N1469 Li1419 1.990 . S
N1469 C1468 1.314 . S
N1469 C1472 1.279 . S
C1470 C1468 1.353 . S
C1470 C1473 1.348 . S
C1470 H1502 0.929 . S
C1471 C1472 1.358 . S
C1471 C1473 1.356 . S
C1471 H1503 0.930 . S
C1472 N1469 1.279 . S
C1472 C1471 1.358 . S
C1472 H1475 0.930 . S
C1473 C1470 1.348 . S
C1473 C1471 1.356 . S
H1474 C1468 0.930 . S
H1475 C1472 0.930 . S
O1476 Li1416 1.956 . S
O1476 Li1417 1.970 . S
O1476 Li1418 1.961 . S
O1476 C1420 1.325 . S
O1477 Li1416 1.970 . S
O1477 Li1417 1.956 . S
O1477 Li1419 1.961 . S
O1477 C1426 1.325 . S
O1478 Li1416 1.961 . S
O1478 Li1418 1.956 . S
O1478 Li1419 1.970 . S
O1478 C1448 1.325 . S
O1479 Li1417 1.961 . S
O1479 Li1418 1.970 . S
O1479 Li1419 1.956 . S
O1479 C1454 1.325 . S
H1480 C1422 0.929 . S
H1481 C1423 0.930 . S
H1482 C1424 0.930 . S
H1483 C1425 0.930 . S
H1484 C1427 0.930 . S
H1485 C1429 0.929 . S
H1486 C1430 0.930 . S
H1487 C1431 0.930 . S
H1488 C1434 0.930 . S
H1489 C1437 0.929 . S
H1490 C1442 0.929 . S
H1491 C1443 0.930 . S
H1492 C1450 0.929 . S
H1493 C1451 0.930 . S
H1494 C1452 0.930 . S
H1495 C1453 0.930 . S
H1496 C1455 0.929 . S
H1497 C1456 0.930 . S
H1498 C1457 0.930 . S
H1499 C1458 0.930 . S
H1500 C1462 0.929 . S
H1501 C1464 0.930 . S
H1502 C1470 0.929 . S
H1503 C1471 0.930 . S
Li1504 N1521 1.990 . S
Li1504 O1564 1.956 . S
Li1504 O1565 1.970 1_455 S
Li1504 O1566 1.961 . S
Li1505 N1529 1.990 . S
Li1505 O1564 1.970 1_655 S
Li1505 O1565 1.956 . S
Li1505 O1567 1.961 . S
Li1506 N1551 1.990 . S
Li1506 O1564 1.961 . S
Li1506 O1566 1.956 . S
Li1506 O1567 1.970 1_455 S
Li1507 N1557 1.990 . S
Li1507 O1565 1.961 . S
Li1507 O1566 1.970 1_655 S
Li1507 O1567 1.956 . S
C1508 C1510 1.348 1_455 S
C1508 C1511 1.356 . S
C1508 O1564 1.325 . S
N1509 C1512 1.314 1_455 S
N1509 C1513 1.279 . S
C1510 C1508 1.348 1_655 S
C1510 C1512 1.353 . S
C1510 H1568 0.929 . S
C1511 C1508 1.356 . S
C1511 C1513 1.358 . S
C1511 H1569 0.930 . S
C1512 N1509 1.314 1_655 S
C1512 C1510 1.353 . S
C1512 H1570 0.930 . S
C1513 N1509 1.279 . S
C1513 C1511 1.358 . S
C1513 H1571 0.930 . S
C1514 C1517 1.348 . S
C1514 C1518 1.356 . S
C1514 O1565 1.325 . S
C1515 N1516 1.279 . S
C1515 C1518 1.358 . S
C1515 H1572 0.930 . S
N1516 C1515 1.279 . S
N1516 C1519 1.314 . S
C1517 C1514 1.348 . S
C1517 C1519 1.353 . S
C1517 H1573 0.929 . S
C1518 C1514 1.356 . S
C1518 C1515 1.358 . S
C1518 H1574 0.930 . S
C1519 N1516 1.314 . S
C1519 C1517 1.353 . S
C1519 H1575 0.930 . S
C1520 N1521 1.314 . S
C1520 C1525 1.353 . S
C1520 H1526 0.930 . S
N1521 Li1504 1.990 . S
N1521 C1520 1.314 . S
N1521 C1523 1.279 . S
C1522 C1523 1.358 . S
C1522 C1524 1.356 . S
C1522 H1576 0.930 . S
C1523 N1521 1.279 . S
C1523 C1522 1.358 . S
C1523 H1527 0.930 . S
C1524 C1522 1.356 . S
C1524 C1525 1.348 . S
C1525 C1520 1.353 . S
C1525 C1524 1.348 . S
C1525 H1577 0.929 . S
H1526 C1520 0.930 . S
H1527 C1523 0.930 . S
C1528 N1529 1.314 . S
C1528 C1530 1.353 . S
C1528 H1534 0.930 . S
N1529 Li1505 1.990 . S
N1529 C1528 1.314 . S
N1529 C1532 1.279 . S
C1530 C1528 1.353 . S
C1530 C1533 1.348 . S
C1530 H1578 0.929 . S
C1531 C1532 1.358 . S
C1531 C1533 1.356 . S
C1531 H1579 0.930 . S
C1532 N1529 1.279 . S
C1532 C1531 1.358 . S
C1532 H1535 0.930 . S
C1533 C1530 1.348 . S
C1533 C1531 1.356 . S
H1534 C1528 0.930 . S
H1535 C1532 0.930 . S
C1536 C1538 1.348 . S
C1536 C1539 1.356 . S
C1536 O1566 1.325 . S
N1537 C1540 1.314 . S
N1537 C1541 1.279 . S
C1538 C1536 1.348 . S
C1538 C1540 1.353 . S
C1538 H1580 0.929 . S
C1539 C1536 1.356 . S
C1539 C1541 1.358 . S
C1539 H1581 0.930 . S
C1540 N1537 1.314 . S
C1540 C1538 1.353 . S
C1540 H1582 0.930 . S
C1541 N1537 1.279 . S
C1541 C1539 1.358 . S
C1541 H1583 0.930 . S
C1542 C1543 1.348 1_655 S
C1542 C1544 1.356 . S
C1542 O1567 1.325 . S
C1543 C1542 1.348 1_455 S
C1543 C1545 1.353 . S
C1543 H1584 0.929 . S
C1544 C1542 1.356 . S
C1544 C1546 1.358 . S
C1544 H1585 0.930 . S
C1545 C1543 1.353 . S
C1545 N1547 1.314 1_455 S
C1545 H1586 0.930 . S
C1546 C1544 1.358 . S
C1546 N1547 1.279 . S
C1546 H1587 0.930 . S
N1547 C1545 1.314 1_655 S
N1547 C1546 1.279 . S
C1548 C1550 1.353 . S
C1548 N1551 1.314 . S
C1548 H1554 0.930 . S
C1549 N1551 1.279 . S
C1549 C1552 1.358 . S
C1549 H1555 0.930 . S
C1550 C1548 1.353 . S
C1550 C1553 1.348 . S
C1550 H1588 0.929 . S
N1551 Li1506 1.990 . S
N1551 C1548 1.314 . S
N1551 C1549 1.279 . S
C1552 C1549 1.358 . S
C1552 C1553 1.356 . S
C1552 H1589 0.930 . S
C1553 C1550 1.348 . S
C1553 C1552 1.356 . S
H1554 C1548 0.930 . S
H1555 C1549 0.930 . S
C1556 N1557 1.314 . S
C1556 C1558 1.353 . S
C1556 H1562 0.930 . S
N1557 Li1507 1.990 . S
N1557 C1556 1.314 . S
N1557 C1560 1.279 . S
C1558 C1556 1.353 . S
C1558 C1561 1.348 . S
C1558 H1590 0.929 . S
C1559 C1560 1.358 . S
C1559 C1561 1.356 . S
C1559 H1591 0.930 . S
C1560 N1557 1.279 . S
C1560 C1559 1.358 . S
C1560 H1563 0.930 . S
C1561 C1558 1.348 . S
C1561 C1559 1.356 . S
H1562 C1556 0.930 . S
H1563 C1560 0.930 . S
O1564 Li1504 1.956 . S
O1564 Li1505 1.970 1_455 S
O1564 Li1506 1.961 . S
O1564 C1508 1.325 . S
O1565 Li1504 1.970 1_655 S
O1565 Li1505 1.956 . S
O1565 Li1507 1.961 . S
O1565 C1514 1.325 . S
O1566 Li1504 1.961 . S
O1566 Li1506 1.956 . S
O1566 Li1507 1.970 1_455 S
O1566 C1536 1.325 . S
O1567 Li1505 1.961 . S
O1567 Li1506 1.970 1_655 S
O1567 Li1507 1.956 . S
O1567 C1542 1.325 . S
H1568 C1510 0.929 . S
H1569 C1511 0.930 . S
H1570 C1512 0.930 . S
H1571 C1513 0.930 . S
H1572 C1515 0.930 . S
H1573 C1517 0.929 . S
H1574 C1518 0.930 . S
H1575 C1519 0.930 . S
H1576 C1522 0.930 . S
H1577 C1525 0.929 . S
H1578 C1530 0.929 . S
H1579 C1531 0.930 . S
H1580 C1538 0.929 . S
H1581 C1539 0.930 . S
H1582 C1540 0.930 . S
H1583 C1541 0.930 . S
H1584 C1543 0.929 . S
H1585 C1544 0.930 . S
H1586 C1545 0.930 . S
H1587 C1546 0.930 . S
H1588 C1550 0.929 . S
H1589 C1552 0.930 . S
H1590 C1558 0.929 . S
H1591 C1559 0.930 . S
Li1592 N1609 1.990 . S
Li1592 O1652 1.956 . S
Li1592 O1653 1.970 . S
Li1592 O1654 1.961 . S
Li1593 N1617 1.990 . S
Li1593 O1652 1.970 . S
Li1593 O1653 1.956 . S
Li1593 O1655 1.961 . S
Li1594 N1639 1.990 . S
Li1594 O1652 1.961 . S
Li1594 O1654 1.956 . S
Li1594 O1655 1.970 . S
Li1595 N1645 1.990 . S
Li1595 O1653 1.961 . S
Li1595 O1654 1.970 . S
Li1595 O1655 1.956 . S
C1596 C1598 1.348 . S
C1596 C1599 1.356 . S
C1596 O1652 1.325 . S
N1597 C1600 1.314 . S
N1597 C1601 1.279 . S
C1598 C1596 1.348 . S
C1598 C1600 1.353 . S
C1598 H1656 0.929 . S
C1599 C1596 1.356 . S
C1599 C1601 1.358 . S
C1599 H1657 0.930 . S
C1600 N1597 1.314 . S
C1600 C1598 1.353 . S
C1600 H1658 0.930 . S
C1601 N1597 1.279 . S
C1601 C1599 1.358 . S
C1601 H1659 0.930 . S
C1602 C1605 1.348 . S
C1602 C1606 1.356 . S
C1602 O1653 1.325 . S
C1603 N1604 1.279 . S
C1603 C1606 1.358 . S
C1603 H1660 0.930 . S
N1604 C1603 1.279 . S
N1604 C1607 1.314 . S
C1605 C1602 1.348 . S
C1605 C1607 1.353 . S
C1605 H1661 0.929 . S
C1606 C1602 1.356 . S
C1606 C1603 1.358 . S
C1606 H1662 0.930 . S
C1607 N1604 1.314 . S
C1607 C1605 1.353 . S
C1607 H1663 0.930 . S
C1608 N1609 1.314 . S
C1608 C1613 1.353 . S
C1608 H1614 0.930 . S
N1609 Li1592 1.990 . S
N1609 C1608 1.314 . S
N1609 C1611 1.279 . S
C1610 C1611 1.358 . S
C1610 C1612 1.356 . S
C1610 H1664 0.930 . S
C1611 N1609 1.279 . S
C1611 C1610 1.358 . S
C1611 H1615 0.930 . S
C1612 C1610 1.356 . S
C1612 C1613 1.348 . S
C1613 C1608 1.353 . S
C1613 C1612 1.348 . S
C1613 H1665 0.929 . S
H1614 C1608 0.930 . S
H1615 C1611 0.930 . S
C1616 N1617 1.314 . S
C1616 C1618 1.353 . S
C1616 H1622 0.930 . S
N1617 Li1593 1.990 . S
N1617 C1616 1.314 . S
N1617 C1620 1.279 . S
C1618 C1616 1.353 . S
C1618 C1621 1.348 . S
C1618 H1666 0.929 . S
C1619 C1620 1.358 . S
C1619 C1621 1.356 . S
C1619 H1667 0.930 . S
C1620 N1617 1.279 . S
C1620 C1619 1.358 . S
C1620 H1623 0.930 . S
C1621 C1618 1.348 . S
C1621 C1619 1.356 . S
H1622 C1616 0.930 . S
H1623 C1620 0.930 . S
C1624 C1626 1.348 . S
C1624 C1627 1.356 . S
C1624 O1654 1.325 . S
N1625 C1628 1.314 . S
N1625 C1629 1.279 . S
C1626 C1624 1.348 . S
C1626 C1628 1.353 . S
C1626 H1668 0.929 . S
C1627 C1624 1.356 . S
C1627 C1629 1.358 . S
C1627 H1669 0.930 . S
C1628 N1625 1.314 . S
C1628 C1626 1.353 . S
C1628 H1670 0.930 . S
C1629 N1625 1.279 . S
C1629 C1627 1.358 . S
C1629 H1671 0.930 . S
C1630 C1631 1.348 . S
C1630 C1632 1.356 . S
C1630 O1655 1.325 . S
C1631 C1630 1.348 . S
C1631 C1633 1.353 . S
C1631 H1672 0.929 . S
C1632 C1630 1.356 . S
C1632 C1634 1.358 . S
C1632 H1673 0.930 . S
C1633 C1631 1.353 . S
C1633 N1635 1.314 . S
C1633 H1674 0.930 . S
C1634 C1632 1.358 . S
C1634 N1635 1.279 . S
C1634 H1675 0.930 . S
N1635 C1633 1.314 . S
N1635 C1634 1.279 . S
C1636 C1638 1.353 . S
C1636 N1639 1.314 . S
C1636 H1642 0.930 . S
C1637 N1639 1.279 . S
C1637 C1640 1.358 . S
C1637 H1643 0.930 . S
C1638 C1636 1.353 . S
C1638 C1641 1.348 . S
C1638 H1676 0.929 . S
N1639 Li1594 1.990 . S
N1639 C1636 1.314 . S
N1639 C1637 1.279 . S
C1640 C1637 1.358 . S
C1640 C1641 1.356 . S
C1640 H1677 0.930 . S
C1641 C1638 1.348 . S
C1641 C1640 1.356 . S
H1642 C1636 0.930 . S
H1643 C1637 0.930 . S
C1644 N1645 1.314 . S
C1644 C1646 1.353 . S
C1644 H1650 0.930 . S
N1645 Li1595 1.990 . S
N1645 C1644 1.314 . S
N1645 C1648 1.279 . S
C1646 C1644 1.353 . S
C1646 C1649 1.348 . S
C1646 H1678 0.929 . S
C1647 C1648 1.358 . S
C1647 C1649 1.356 . S
C1647 H1679 0.930 . S
C1648 N1645 1.279 . S
C1648 C1647 1.358 . S
C1648 H1651 0.930 . S
C1649 C1646 1.348 . S
C1649 C1647 1.356 . S
H1650 C1644 0.930 . S
H1651 C1648 0.930 . S
O1652 Li1592 1.956 . S
O1652 Li1593 1.970 . S
O1652 Li1594 1.961 . S
O1652 C1596 1.325 . S
O1653 Li1592 1.970 . S
O1653 Li1593 1.956 . S
O1653 Li1595 1.961 . S
O1653 C1602 1.325 . S
O1654 Li1592 1.961 . S
O1654 Li1594 1.956 . S
O1654 Li1595 1.970 . S
O1654 C1624 1.325 . S
O1655 Li1593 1.961 . S
O1655 Li1594 1.970 . S
O1655 Li1595 1.956 . S
O1655 C1630 1.325 . S
H1656 C1598 0.929 . S
H1657 C1599 0.930 . S
H1658 C1600 0.930 . S
H1659 C1601 0.930 . S
H1660 C1603 0.930 . S
H1661 C1605 0.929 . S
H1662 C1606 0.930 . S
H1663 C1607 0.930 . S
H1664 C1610 0.930 . S
H1665 C1613 0.929 . S
H1666 C1618 0.929 . S
H1667 C1619 0.930 . S
H1668 C1626 0.929 . S
H1669 C1627 0.930 . S
H1670 C1628 0.930 . S
H1671 C1629 0.930 . S
H1672 C1631 0.929 . S
H1673 C1632 0.930 . S
H1674 C1633 0.930 . S
H1675 C1634 0.930 . S
H1676 C1638 0.929 . S
H1677 C1640 0.930 . S
H1678 C1646 0.929 . S
H1679 C1647 0.930 . S
H1680 C1686 0.930 . S
H1681 C1690 0.930 . S
H1682 C1695 0.929 . S
H1683 C1693 0.929 . S
H1684 C1688 0.929 . S
H1685 C1694 0.929 . S
C1686 H1680 0.930 . S
C1686 C1687 1.367 . S
C1686 C1694 1.378 . S
C1687 C1686 1.367 . S
C1687 C1695 1.433 . S
C1688 H1684 0.929 . S
C1688 C1690 1.378 . S
C1688 C1692 1.350 . S
C1689 C1692 1.463 . S
C1689 C1694 1.350 . S
C1689 N1697 1.427 . S
C1690 H1681 0.930 . S
C1690 C1688 1.378 . S
C1690 C1691 1.367 . S
C1691 C1690 1.367 . S
C1691 C1693 1.433 . S
C1692 C1688 1.350 . S
C1692 C1689 1.463 . S
C1692 N1696 1.427 . S
C1693 H1683 0.929 . S
C1693 C1691 1.433 . S
C1693 N1696 1.384 . S
C1694 H1685 0.929 . S
C1694 C1686 1.378 . S
C1694 C1689 1.350 . S
C1695 H1682 0.929 . S
C1695 C1687 1.433 . S
C1695 N1697 1.384 . S
N1696 C1692 1.427 . S
N1696 C1693 1.384 . S
N1697 C1689 1.427 . S
N1697 C1695 1.384 . S
H1698 C1704 0.930 . S
H1699 C1708 0.930 . S
H1700 C1713 0.929 . S
H1701 C1711 0.929 . S
H1702 C1706 0.929 . S
H1703 C1712 0.929 . S
C1704 H1698 0.930 . S
C1704 C1705 1.367 . S
C1704 C1712 1.378 . S
C1705 C1704 1.367 . S
C1705 C1713 1.433 . S
C1706 H1702 0.929 . S
C1706 C1708 1.378 . S
C1706 C1710 1.350 . S
C1707 C1710 1.463 . S
C1707 C1712 1.350 . S
C1707 N1715 1.427 . S
C1708 H1699 0.930 . S
C1708 C1706 1.378 . S
C1708 C1709 1.367 . S
C1709 C1708 1.367 . S
C1709 C1711 1.433 . S
C1710 C1706 1.350 . S
C1710 C1707 1.463 . S
C1710 N1714 1.427 . S
C1711 H1701 0.929 . S
C1711 C1709 1.433 . S
C1711 N1714 1.384 . S
C1712 H1703 0.929 . S
C1712 C1704 1.378 . S
C1712 C1707 1.350 . S
C1713 H1700 0.929 . S
C1713 C1705 1.433 . S
C1713 N1715 1.384 . S
N1714 C1710 1.427 . S
N1714 C1711 1.384 . S
N1715 C1707 1.427 . S
N1715 C1713 1.384 . S
H1716 C1722 0.930 . S
H1717 C1726 0.930 . S
H1718 C1731 0.929 . S
H1719 C1729 0.929 . S
H1720 C1724 0.929 . S
H1721 C1730 0.929 . S
C1722 H1716 0.930 . S
C1722 C1723 1.367 . S
C1722 C1730 1.378 . S
C1723 C1722 1.367 . S
C1723 C1731 1.433 . S
C1724 H1720 0.929 . S
C1724 C1726 1.378 . S
C1724 C1728 1.350 . S
C1725 C1728 1.463 . S
C1725 C1730 1.350 . S
C1725 N1733 1.427 . S
C1726 H1717 0.930 . S
C1726 C1724 1.378 . S
C1726 C1727 1.367 . S
C1727 C1726 1.367 . S
C1727 C1729 1.433 . S
C1728 C1724 1.350 . S
C1728 C1725 1.463 . S
C1728 N1732 1.427 . S
C1729 H1719 0.929 . S
C1729 C1727 1.433 . S
C1729 N1732 1.384 . S
C1730 H1721 0.929 . S
C1730 C1722 1.378 . S
C1730 C1725 1.350 . S
C1731 H1718 0.929 . S
C1731 C1723 1.433 . S
C1731 N1733 1.384 . S
N1732 C1728 1.427 . S
N1732 C1729 1.384 . S
N1733 C1725 1.427 . S
N1733 C1731 1.384 . S
H1734 C1740 0.930 . S
H1735 C1744 0.930 . S
H1736 C1749 0.929 . S
H1737 C1747 0.929 . S
H1738 C1742 0.929 . S
H1739 C1748 0.929 . S
C1740 H1734 0.930 . S
C1740 C1741 1.367 . S
C1740 C1748 1.378 . S
C1741 C1740 1.367 . S
C1741 C1749 1.433 . S
C1742 H1738 0.929 . S
C1742 C1744 1.378 . S
C1742 C1746 1.350 . S
C1743 C1746 1.463 . S
C1743 C1748 1.350 . S
C1743 N1751 1.427 . S
C1744 H1735 0.930 . S
C1744 C1742 1.378 . S
C1744 C1745 1.367 . S
C1745 C1744 1.367 . S
C1745 C1747 1.433 . S
C1746 C1742 1.350 . S
C1746 C1743 1.463 . S
C1746 N1750 1.427 . S
C1747 H1737 0.929 . S
C1747 C1745 1.433 . S
C1747 N1750 1.384 . S
C1748 H1739 0.929 . S
C1748 C1740 1.378 . S
C1748 C1743 1.350 . S
C1749 H1736 0.929 . S
C1749 C1741 1.433 . S
C1749 N1751 1.384 . S
N1750 C1746 1.427 . S
N1750 C1747 1.384 . S
N1751 C1743 1.427 . S
N1751 C1749 1.384 . S
H1752 C1758 0.930 . S
H1753 C1762 0.930 . S
H1754 C1767 0.929 . S
H1755 C1765 0.929 . S
H1756 C1760 0.929 . S
H1757 C1766 0.929 . S
C1758 H1752 0.930 . S
C1758 C1759 1.367 . S
C1758 C1766 1.378 . S
C1759 C1758 1.367 . S
C1759 C1767 1.433 . S
C1760 H1756 0.929 . S
C1760 C1762 1.378 . S
C1760 C1764 1.350 . S
C1761 C1764 1.463 . S
C1761 C1766 1.350 . S
C1761 N1769 1.427 . S
C1762 H1753 0.930 . S
C1762 C1760 1.378 . S
C1762 C1763 1.367 . S
C1763 C1762 1.367 . S
C1763 C1765 1.433 . S
C1764 C1760 1.350 . S
C1764 C1761 1.463 . S
C1764 N1768 1.427 . S
C1765 H1755 0.929 . S
C1765 C1763 1.433 . S
C1765 N1768 1.384 . S
C1766 H1757 0.929 . S
C1766 C1758 1.378 . S
C1766 C1761 1.350 . S
C1767 H1754 0.929 . S
C1767 C1759 1.433 . S
C1767 N1769 1.384 . S
N1768 C1764 1.427 . S
N1768 C1765 1.384 . S
N1769 C1761 1.427 . S
N1769 C1767 1.384 . S
H1770 C1776 0.930 . S
H1771 C1780 0.930 . S
H1772 C1785 0.929 . S
H1773 C1783 0.929 . S
H1774 C1778 0.929 . S
H1775 C1784 0.929 . S
C1776 H1770 0.930 . S
C1776 C1777 1.367 . S
C1776 C1784 1.378 . S
C1777 C1776 1.367 . S
C1777 C1785 1.433 . S
C1778 H1774 0.929 . S
C1778 C1780 1.378 . S
C1778 C1782 1.350 . S
C1779 C1782 1.463 . S
C1779 C1784 1.350 . S
C1779 N1787 1.427 . S
C1780 H1771 0.930 . S
C1780 C1778 1.378 . S
C1780 C1781 1.367 . S
C1781 C1780 1.367 . S
C1781 C1783 1.433 . S
C1782 C1778 1.350 . S
C1782 C1779 1.463 . S
C1782 N1786 1.427 . S
C1783 H1773 0.929 . S
C1783 C1781 1.433 . S
C1783 N1786 1.384 . S
C1784 H1775 0.929 . S
C1784 C1776 1.378 . S
C1784 C1779 1.350 . S
C1785 H1772 0.929 . S
C1785 C1777 1.433 . S
C1785 N1787 1.384 . S
N1786 C1782 1.427 . S
N1786 C1783 1.384 . S
N1787 C1779 1.427 . S
N1787 C1785 1.384 . S
H1788 C1794 0.930 . S
H1789 C1798 0.930 . S
H1790 C1803 0.929 . S
H1791 C1801 0.929 . S
H1792 C1796 0.929 . S
H1793 C1802 0.929 . S
C1794 H1788 0.930 . S
C1794 C1795 1.367 . S
C1794 C1802 1.378 . S
C1795 C1794 1.367 . S
C1795 C1803 1.433 . S
C1796 H1792 0.929 . S
C1796 C1798 1.378 . S
C1796 C1800 1.350 . S
C1797 C1800 1.463 . S
C1797 C1802 1.350 . S
C1797 N1805 1.427 . S
C1798 H1789 0.930 . S
C1798 C1796 1.378 . S
C1798 C1799 1.367 . S
C1799 C1798 1.367 . S
C1799 C1801 1.433 . S
C1800 C1796 1.350 . S
C1800 C1797 1.463 . S
C1800 N1804 1.427 . S
C1801 H1791 0.929 . S
C1801 C1799 1.433 . S
C1801 N1804 1.384 . S
C1802 H1793 0.929 . S
C1802 C1794 1.378 . S
C1802 C1797 1.350 . S
C1803 H1790 0.929 . S
C1803 C1795 1.433 . S
C1803 N1805 1.384 . S
N1804 C1800 1.427 . S
N1804 C1801 1.384 . S
N1805 C1797 1.427 . S
N1805 C1803 1.384 . S
H1806 C1812 0.930 . S
H1807 C1816 0.930 . S
H1808 C1821 0.929 . S
H1809 C1819 0.929 1_545 S
H1810 C1814 0.929 . S
H1811 C1820 0.939 . S
C1812 H1806 0.930 . S
C1812 C1813 1.367 . S
C1812 C1820 1.378 . S
C1813 C1812 1.367 . S
C1813 C1821 1.433 . S
C1814 H1810 0.929 . S
C1814 C1816 1.378 . S
C1814 C1818 1.350 . S
C1815 C1818 1.463 . S
C1815 C1820 1.350 . S
C1815 N1823 1.427 . S
C1816 H1807 0.930 . S
C1816 C1814 1.378 . S
C1816 C1817 1.367 . S
C1817 C1816 1.367 . S
C1817 C1819 1.433 . S
C1818 C1814 1.350 . S
C1818 C1815 1.463 . S
C1818 N1822 1.427 . S
C1819 H1809 0.929 1_565 S
C1819 C1817 1.433 . S
C1819 N1822 1.384 . S
C1820 H1811 0.939 . S
C1820 C1812 1.378 . S
C1820 C1815 1.350 . S
C1821 H1808 0.929 . S
C1821 C1813 1.433 . S
C1821 N1823 1.384 . S
N1822 C1818 1.427 . S
N1822 C1819 1.384 . S
N1823 C1815 1.427 . S
N1823 C1821 1.384 . S
H1824 C1830 0.930 . S
H1825 C1834 0.930 . S
H1826 C1839 0.929 . S
H1827 C1837 0.929 . S
H1828 C1832 0.929 . S
H1829 C1838 0.929 . S
C1830 H1824 0.930 . S
C1830 C1831 1.367 . S
C1830 C1838 1.378 . S
C1831 C1830 1.367 . S
C1831 C1839 1.433 . S
C1832 H1828 0.929 . S
C1832 C1834 1.378 . S
C1832 C1836 1.350 . S
C1833 C1836 1.463 . S
C1833 C1838 1.350 . S
C1833 N1841 1.427 . S
C1834 H1825 0.930 . S
C1834 C1832 1.378 . S
C1834 C1835 1.367 . S
C1835 C1834 1.367 . S
C1835 C1837 1.433 . S
C1836 C1832 1.350 . S
C1836 C1833 1.463 . S
C1836 N1840 1.427 . S
C1837 H1827 0.929 . S
C1837 C1835 1.433 . S
C1837 N1840 1.384 . S
C1838 H1829 0.929 . S
C1838 C1830 1.378 . S
C1838 C1833 1.350 . S
C1839 H1826 0.929 . S
C1839 C1831 1.433 . S
C1839 N1841 1.384 . S
N1840 C1836 1.427 . S
N1840 C1837 1.384 . S
N1841 C1833 1.427 . S
N1841 C1839 1.384 . S
H1842 C1848 0.930 . S
H1843 C1852 0.930 . S
H1844 C1857 0.929 . S
H1845 C1855 0.929 . S
H1846 C1850 0.929 . S
H1847 C1856 0.929 . S
C1848 H1842 0.930 . S
C1848 C1849 1.367 . S
C1848 C1856 1.378 . S
C1849 C1848 1.367 . S
C1849 C1857 1.433 . S
C1850 H1846 0.929 . S
C1850 C1852 1.378 . S
C1850 C1854 1.350 . S
C1851 C1854 1.463 . S
C1851 C1856 1.350 . S
C1851 N1859 1.427 . S
C1852 H1843 0.930 . S
C1852 C1850 1.378 . S
C1852 C1853 1.367 . S
C1853 C1852 1.367 . S
C1853 C1855 1.433 . S
C1854 C1850 1.350 . S
C1854 C1851 1.463 . S
C1854 N1858 1.427 . S
C1855 H1845 0.929 . S
C1855 C1853 1.433 . S
C1855 N1858 1.384 . S
C1856 H1847 0.929 . S
C1856 C1848 1.378 . S
C1856 C1851 1.350 . S
C1857 H1844 0.929 . S
C1857 C1849 1.433 . S
C1857 N1859 1.384 . S
N1858 C1854 1.427 . S
N1858 C1855 1.384 . S
N1859 C1851 1.427 . S
N1859 C1857 1.384 . S
H1860 C1866 0.930 . S
H1861 C1870 0.930 . S
H1862 C1875 0.929 . S
H1863 C1873 0.929 . S
H1864 C1868 0.929 . S
H1865 C1874 0.929 . S
C1866 H1860 0.930 . S
C1866 C1867 1.367 . S
C1866 C1874 1.378 . S
C1867 C1866 1.367 . S
C1867 C1875 1.433 . S
C1868 H1864 0.929 . S
C1868 C1870 1.378 . S
C1868 C1872 1.350 . S
C1869 C1872 1.463 . S
C1869 C1874 1.350 . S
C1869 N1877 1.427 . S
C1870 H1861 0.930 . S
C1870 C1868 1.378 . S
C1870 C1871 1.367 . S
C1871 C1870 1.367 . S
C1871 C1873 1.433 . S
C1872 C1868 1.350 . S
C1872 C1869 1.463 . S
C1872 N1876 1.427 . S
C1873 H1863 0.929 . S
C1873 C1871 1.433 . S
C1873 N1876 1.384 . S
C1874 H1865 0.929 . S
C1874 C1866 1.378 . S
C1874 C1869 1.350 . S
C1875 H1862 0.929 . S
C1875 C1867 1.433 . S
C1875 N1877 1.384 . S
N1876 C1872 1.427 . S
N1876 C1873 1.384 . S
N1877 C1869 1.427 . S
N1877 C1875 1.384 . S
H1878 C1884 0.930 . S
H1879 C1888 0.930 . S
H1880 C1893 0.929 . S
H1881 C1891 0.929 . S
H1882 C1886 0.929 . S
H1883 C1892 0.929 . S
C1884 H1878 0.930 . S
C1884 C1885 1.367 . S
C1884 C1892 1.378 . S
C1885 C1884 1.367 . S
C1885 C1893 1.433 . S
C1886 H1882 0.929 . S
C1886 C1888 1.378 . S
C1886 C1890 1.350 . S
C1887 C1890 1.463 . S
C1887 C1892 1.350 . S
C1887 N1895 1.427 . S
C1888 H1879 0.930 . S
C1888 C1886 1.378 . S
C1888 C1889 1.367 . S
C1889 C1888 1.367 . S
C1889 C1891 1.433 . S
C1890 C1886 1.350 . S
C1890 C1887 1.463 . S
C1890 N1894 1.427 . S
C1891 H1881 0.929 . S
C1891 C1889 1.433 . S
C1891 N1894 1.384 . S
C1892 H1883 0.929 . S
C1892 C1884 1.378 . S
C1892 C1887 1.350 . S
C1893 H1880 0.929 . S
C1893 C1885 1.433 . S
C1893 N1895 1.384 . S
N1894 C1890 1.427 . S
N1894 C1891 1.384 . S
N1895 C1887 1.427 . S
N1895 C1893 1.384 . S
H1896 C1902 0.930 . S
H1897 C1906 0.930 . S
H1898 C1911 0.929 . S
H1899 C1909 0.929 . S
H1900 C1904 0.929 . S
H1901 C1910 0.929 . S
C1902 H1896 0.930 . S
C1902 C1903 1.367 . S
C1902 C1910 1.378 . S
C1903 C1902 1.367 . S
C1903 C1911 1.433 . S
C1904 H1900 0.929 . S
C1904 C1906 1.378 . S
C1904 C1908 1.350 . S
C1905 C1908 1.463 . S
C1905 C1910 1.350 . S
C1905 N1913 1.427 . S
C1906 H1897 0.930 . S
C1906 C1904 1.378 . S
C1906 C1907 1.367 . S
C1907 C1906 1.367 . S
C1907 C1909 1.433 . S
C1908 C1904 1.350 . S
C1908 C1905 1.463 . S
C1908 N1912 1.427 . S
C1909 H1899 0.929 . S
C1909 C1907 1.433 . S
C1909 N1912 1.384 . S
C1910 H1901 0.929 . S
C1910 C1902 1.378 . S
C1910 C1905 1.350 . S
C1911 H1898 0.929 . S
C1911 C1903 1.433 . S
C1911 N1913 1.384 . S
N1912 C1908 1.427 . S
N1912 C1909 1.384 . S
N1913 C1905 1.427 . S
N1913 C1911 1.384 . S
H1914 C1920 0.930 1_655 S
H1915 C1924 0.930 . S
H1916 C1929 0.929 . S
H1917 C1927 0.929 . S
H1918 C1922 0.929 . S
H1919 C1928 0.929 1_655 S
C1920 H1914 0.930 1_455 S
C1920 C1921 1.367 . S
C1920 C1928 1.378 . S
C1921 C1920 1.367 . S
C1921 C1929 1.433 . S
C1922 H1918 0.929 . S
C1922 C1924 1.378 . S
C1922 C1926 1.350 . S
C1923 C1926 1.463 . S
C1923 C1928 1.350 . S
C1923 N1931 1.427 . S
C1924 H1915 0.930 . S
C1924 C1922 1.378 . S
C1924 C1925 1.367 . S
C1925 C1924 1.367 . S
C1925 C1927 1.433 1_455 S
C1926 C1922 1.350 . S
C1926 C1923 1.463 . S
C1926 N1930 1.429 . S
C1927 H1917 0.929 . S
C1927 C1925 1.433 1_655 S
C1927 N1930 1.383 1_655 S
C1928 H1919 0.929 1_455 S
C1928 C1920 1.378 . S
C1928 C1923 1.350 . S
C1929 H1916 0.929 . S
C1929 C1921 1.433 . S
C1929 N1931 1.384 . S
N1930 C1926 1.429 . S
N1930 C1927 1.383 1_455 S
N1931 C1923 1.427 . S
N1931 C1929 1.384 . S
H1932 C1938 0.930 . S
H1933 C1942 0.930 . S
H1934 C1947 0.929 . S
H1935 C1945 0.929 . S
H1936 C1940 0.929 . S
H1937 C1946 0.929 . S
C1938 H1932 0.930 . S
C1938 C1939 1.367 . S
C1938 C1946 1.378 . S
C1939 C1938 1.367 . S
C1939 C1947 1.433 . S
C1940 H1936 0.929 . S
C1940 C1942 1.378 . S
C1940 C1944 1.350 . S
C1941 C1944 1.463 . S
C1941 C1946 1.350 . S
C1941 N1949 1.427 . S
C1942 H1933 0.930 . S
C1942 C1940 1.378 . S
C1942 C1943 1.367 . S
C1943 C1942 1.367 . S
C1943 C1945 1.433 . S
C1944 C1940 1.350 . S
C1944 C1941 1.463 . S
C1944 N1948 1.427 . S
C1945 H1935 0.929 . S
C1945 C1943 1.433 . S
C1945 N1948 1.384 . S
C1946 H1937 0.929 . S
C1946 C1938 1.378 . S
C1946 C1941 1.350 . S
C1947 H1934 0.929 . S
C1947 C1939 1.433 . S
C1947 N1949 1.384 . S
N1948 C1944 1.427 . S
N1948 C1945 1.384 . S
N1949 C1941 1.427 . S
N1949 C1947 1.384 . S
H1950 C1956 0.930 . S
H1951 C1960 0.930 . S
H1952 C1965 0.929 . S
H1953 C1963 0.907 1_455 S
H1954 C1958 0.929 . S
H1955 C1964 0.929 . S
C1956 H1950 0.930 . S
C1956 C1957 1.367 . S
C1956 C1964 1.378 . S
C1957 C1956 1.367 . S
C1957 C1965 1.433 . S
C1958 H1954 0.929 . S
C1958 C1960 1.378 . S
C1958 C1962 1.350 . S
C1959 C1962 1.463 . S
C1959 C1964 1.350 . S
C1959 N1967 1.427 . S
C1960 H1951 0.930 . S
C1960 C1958 1.378 . S
C1960 C1961 1.367 . S
C1961 C1960 1.367 . S
C1961 C1963 1.433 . S
C1962 C1958 1.350 . S
C1962 C1959 1.463 . S
C1962 N1966 1.427 . S
C1963 H1953 0.907 1_655 S
C1963 C1961 1.433 . S
C1963 N1966 1.384 . S
C1964 H1955 0.929 . S
C1964 C1956 1.378 . S
C1964 C1959 1.350 . S
C1965 H1952 0.929 . S
C1965 C1957 1.433 . S
C1965 N1967 1.384 . S
N1966 C1962 1.427 . S
N1966 C1963 1.384 . S
N1967 C1959 1.427 . S
N1967 C1965 1.384 . S
H1968 C1974 0.930 . S
H1969 C1978 0.930 . S
H1970 C1983 0.929 . S
H1971 C1981 0.929 . S
H1972 C1976 0.929 . S
H1973 C1982 0.929 . S
C1974 H1968 0.930 . S
C1974 C1975 1.367 . S
C1974 C1982 1.378 . S
C1975 C1974 1.367 . S
C1975 C1983 1.433 . S
C1976 H1972 0.929 . S
C1976 C1978 1.378 . S
C1976 C1980 1.350 . S
C1977 C1980 1.463 . S
C1977 C1982 1.350 . S
C1977 N1985 1.427 . S
C1978 H1969 0.930 . S
C1978 C1976 1.378 . S
C1978 C1979 1.367 . S
C1979 C1978 1.367 . S
C1979 C1981 1.433 . S
C1980 C1976 1.350 . S
C1980 C1977 1.463 . S
C1980 N1984 1.427 . S
C1981 H1971 0.929 . S
C1981 C1979 1.433 . S
C1981 N1984 1.384 . S
C1982 H1973 0.929 . S
C1982 C1974 1.378 . S
C1982 C1977 1.350 . S
C1983 H1970 0.929 . S
C1983 C1975 1.433 . S
C1983 N1985 1.384 . S
N1984 C1980 1.427 . S
N1984 C1981 1.384 . S
N1985 C1977 1.427 . S
N1985 C1983 1.384 . S
H1986 C1992 0.930 . S
H1987 C1996 0.930 . S
H1988 C2001 0.929 . S
H1989 C1999 0.929 . S
H1990 C1994 0.929 . S
H1991 C2000 0.929 . S
C1992 H1986 0.930 . S
C1992 C1993 1.367 . S
C1992 C2000 1.378 . S
C1993 C1992 1.367 . S
C1993 C2001 1.433 . S
C1994 H1990 0.929 . S
C1994 C1996 1.378 . S
C1994 C1998 1.350 . S
C1995 C1998 1.463 . S
C1995 C2000 1.350 . S
C1995 N2003 1.427 . S
C1996 H1987 0.930 . S
C1996 C1994 1.378 . S
C1996 C1997 1.367 . S
C1997 C1996 1.367 . S
C1997 C1999 1.433 . S
C1998 C1994 1.350 . S
C1998 C1995 1.463 . S
C1998 N2002 1.427 . S
C1999 H1989 0.929 . S
C1999 C1997 1.433 . S
C1999 N2002 1.384 . S
C2000 H1991 0.929 . S
C2000 C1992 1.378 . S
C2000 C1995 1.350 . S
C2001 H1988 0.929 . S
C2001 C1993 1.433 . S
C2001 N2003 1.384 . S
N2002 C1998 1.427 . S
N2002 C1999 1.384 . S
N2003 C1995 1.427 . S
N2003 C2001 1.384 . S
H2004 C2010 0.930 1_554 S
H2005 C2014 0.930 . S
H2006 C2019 0.929 . S
H2007 C2017 0.929 . S
H2008 C2012 0.929 . S
H2009 C2018 0.937 . S
C2010 H2004 0.930 1_556 S
C2010 C2011 1.367 . S
C2010 C2018 1.377 1_556 S
C2011 C2010 1.367 . S
C2011 C2019 1.433 . S
C2012 H2008 0.929 . S
C2012 C2014 1.378 . S
C2012 C2016 1.350 . S
C2013 C2016 1.463 . S
C2013 C2018 1.342 1_556 S
C2013 N2021 1.427 . S
C2014 H2005 0.930 . S
C2014 C2012 1.378 . S
C2014 C2015 1.367 . S
C2015 C2014 1.367 . S
C2015 C2017 1.433 1_556 S
C2016 C2012 1.350 . S
C2016 C2013 1.463 . S
C2016 N2020 1.427 1_556 S
C2017 H2007 0.929 . S
C2017 C2015 1.433 1_554 S
C2017 N2020 1.384 . S
C2018 H2009 0.937 . S
C2018 C2010 1.377 1_554 S
C2018 C2013 1.342 1_554 S
C2019 H2006 0.929 . S
C2019 C2011 1.433 . S
C2019 N2021 1.384 . S
N2020 C2016 1.427 1_554 S
N2020 C2017 1.384 . S
N2021 C2013 1.427 . S
N2021 C2019 1.384 . S
H2022 C2028 0.930 . S
H2023 C2032 0.930 . S
H2024 C2037 0.929 . S
H2025 C2035 0.929 . S
H2026 C2030 0.929 . S
H2027 C2036 0.929 . S
C2028 H2022 0.930 . S
C2028 C2029 1.367 . S
C2028 C2036 1.378 . S
C2029 C2028 1.367 . S
C2029 C2037 1.433 . S
C2030 H2026 0.929 . S
C2030 C2032 1.378 . S
C2030 C2034 1.350 . S
C2031 C2034 1.463 . S
C2031 C2036 1.350 . S
C2031 N2039 1.427 . S
C2032 H2023 0.930 . S
C2032 C2030 1.378 . S
C2032 C2033 1.367 . S
C2033 C2032 1.367 . S
C2033 C2035 1.433 . S
C2034 C2030 1.350 . S
C2034 C2031 1.463 . S
C2034 N2038 1.427 . S
C2035 H2025 0.929 . S
C2035 C2033 1.433 . S
C2035 N2038 1.384 . S
C2036 H2027 0.929 . S
C2036 C2028 1.378 . S
C2036 C2031 1.350 . S
C2037 H2024 0.929 . S
C2037 C2029 1.433 . S
C2037 N2039 1.384 . S
N2038 C2034 1.427 . S
N2038 C2035 1.384 . S
N2039 C2031 1.427 . S
N2039 C2037 1.384 . S
H2040 C2046 0.930 . S
H2041 C2050 0.930 . S
H2042 C2055 0.929 . S
H2043 C2053 0.929 . S
H2044 C2048 0.929 . S
H2045 C2054 0.929 . S
C2046 H2040 0.930 . S
C2046 C2047 1.367 . S
C2046 C2054 1.378 . S
C2047 C2046 1.367 . S
C2047 C2055 1.433 . S
C2048 H2044 0.929 . S
C2048 C2050 1.378 . S
C2048 C2052 1.350 . S
C2049 C2052 1.463 . S
C2049 C2054 1.350 . S
C2049 N2057 1.427 . S
C2050 H2041 0.930 . S
C2050 C2048 1.378 . S
C2050 C2051 1.367 . S
C2051 C2050 1.367 . S
C2051 C2053 1.433 . S
C2052 C2048 1.350 . S
C2052 C2049 1.463 . S
C2052 N2056 1.427 . S
C2053 H2043 0.929 . S
C2053 C2051 1.433 . S
C2053 N2056 1.384 . S
C2054 H2045 0.929 . S
C2054 C2046 1.378 . S
C2054 C2049 1.350 . S
C2055 H2042 0.929 . S
C2055 C2047 1.433 . S
C2055 N2057 1.384 . S
N2056 C2052 1.427 . S
N2056 C2053 1.384 . S
N2057 C2049 1.427 . S
N2057 C2055 1.384 . S
H2058 C2064 0.930 . S
H2059 C2068 0.930 . S
H2060 C2073 0.929 . S
H2061 C2071 0.929 . S
H2062 C2066 0.929 . S
H2063 C2072 0.929 . S
C2064 H2058 0.930 . S
C2064 C2065 1.367 . S
C2064 C2072 1.378 . S
C2065 C2064 1.367 . S
C2065 C2073 1.433 . S
C2066 H2062 0.929 . S
C2066 C2068 1.378 . S
C2066 C2070 1.350 . S
C2067 C2070 1.463 . S
C2067 C2072 1.350 . S
C2067 N2075 1.427 . S
C2068 H2059 0.930 . S
C2068 C2066 1.378 . S
C2068 C2069 1.367 . S
C2069 C2068 1.367 . S
C2069 C2071 1.433 . S
C2070 C2066 1.350 . S
C2070 C2067 1.463 . S
C2070 N2074 1.427 . S
C2071 H2061 0.929 . S
C2071 C2069 1.433 . S
C2071 N2074 1.384 . S
C2072 H2063 0.929 . S
C2072 C2064 1.378 . S
C2072 C2067 1.350 . S
C2073 H2060 0.929 . S
C2073 C2065 1.433 . S
C2073 N2075 1.384 . S
N2074 C2070 1.427 . S
N2074 C2071 1.384 . S
N2075 C2067 1.427 . S
N2075 C2073 1.384 . S
H2076 C2082 0.930 . S
H2077 C2086 0.930 . S
H2078 C2091 0.929 . S
H2079 C2089 0.929 . S
H2080 C2084 0.929 . S
H2081 C2090 0.929 . S
C2082 H2076 0.930 . S
C2082 C2083 1.367 . S
C2082 C2090 1.378 . S
C2083 C2082 1.367 . S
C2083 C2091 1.433 . S
C2084 H2080 0.929 . S
C2084 C2086 1.378 . S
C2084 C2088 1.350 . S
C2085 C2088 1.463 . S
C2085 C2090 1.350 . S
C2085 N2093 1.427 . S
C2086 H2077 0.930 . S
C2086 C2084 1.378 . S
C2086 C2087 1.367 . S
C2087 C2086 1.367 . S
C2087 C2089 1.433 . S
C2088 C2084 1.350 . S
C2088 C2085 1.463 . S
C2088 N2092 1.427 . S
C2089 H2079 0.929 . S
C2089 C2087 1.433 . S
C2089 N2092 1.384 . S
C2090 H2081 0.929 . S
C2090 C2082 1.378 . S
C2090 C2085 1.350 . S
C2091 H2078 0.929 . S
C2091 C2083 1.433 . S
C2091 N2093 1.384 . S
N2092 C2088 1.427 . S
N2092 C2089 1.384 . S
N2093 C2085 1.427 . S
N2093 C2091 1.384 . S
H2094 C2100 0.930 . S
H2095 C2104 0.930 . S
H2096 C2109 0.929 . S
H2097 C2107 0.929 . S
H2098 C2102 0.929 . S
H2099 C2108 0.929 . S
C2100 H2094 0.930 . S
C2100 C2101 1.367 . S
C2100 C2108 1.378 . S
C2101 C2100 1.367 . S
C2101 C2109 1.433 . S
C2102 H2098 0.929 . S
C2102 C2104 1.378 . S
C2102 C2106 1.350 . S
C2103 C2106 1.463 . S
C2103 C2108 1.350 . S
C2103 N2111 1.427 . S
C2104 H2095 0.930 . S
C2104 C2102 1.378 . S
C2104 C2105 1.367 . S
C2105 C2104 1.367 . S
C2105 C2107 1.433 . S
C2106 C2102 1.350 . S
C2106 C2103 1.463 . S
C2106 N2110 1.427 . S
C2107 H2097 0.929 . S
C2107 C2105 1.433 . S
C2107 N2110 1.384 . S
C2108 H2099 0.929 . S
C2108 C2100 1.378 . S
C2108 C2103 1.350 . S
C2109 H2096 0.929 . S
C2109 C2101 1.433 . S
C2109 N2111 1.384 . S
N2110 C2106 1.427 . S
N2110 C2107 1.384 . S
N2111 C2103 1.427 . S
N2111 C2109 1.384 . S
H2112 C2118 0.930 . S
H2113 C2122 0.930 . S
H2114 C2127 0.929 . S
H2115 C2125 0.929 . S
H2116 C2120 0.929 . S
H2117 C2126 0.929 . S
C2118 H2112 0.930 . S
C2118 C2119 1.367 . S
C2118 C2126 1.378 . S
C2119 C2118 1.367 . S
C2119 C2127 1.433 . S
C2120 H2116 0.929 . S
C2120 C2122 1.378 . S
C2120 C2124 1.350 . S
C2121 C2124 1.463 . S
C2121 C2126 1.350 . S
C2121 N2129 1.427 . S
C2122 H2113 0.930 . S
C2122 C2120 1.378 . S
C2122 C2123 1.367 . S
C2123 C2122 1.367 . S
C2123 C2125 1.433 . S
C2124 C2120 1.350 . S
C2124 C2121 1.463 . S
C2124 N2128 1.427 . S
C2125 H2115 0.929 . S
C2125 C2123 1.433 . S
C2125 N2128 1.384 . S
C2126 H2117 0.929 . S
C2126 C2118 1.378 . S
C2126 C2121 1.350 . S
C2127 H2114 0.929 . S
C2127 C2119 1.433 . S
C2127 N2129 1.384 . S
N2128 C2124 1.427 . S
N2128 C2125 1.384 . S
N2129 C2121 1.427 . S
N2129 C2127 1.384 . S
H2130 C2136 0.930 . S
H2131 C2140 0.930 . S
H2132 C2145 0.929 1_565 S
H2133 C2143 0.929 . S
H2134 C2138 0.937 . S
H2135 C2144 0.929 . S
C2136 H2130 0.930 . S
C2136 C2137 1.367 . S
C2136 C2144 1.378 . S
C2137 C2136 1.367 . S
C2137 C2145 1.433 . S
C2138 H2134 0.937 . S
C2138 C2140 1.379 . S
C2138 C2142 1.340 1_565 S
C2139 C2142 1.463 . S
C2139 C2144 1.350 . S
C2139 N2147 1.427 . S
C2140 H2131 0.930 . S
C2140 C2138 1.379 . S
C2140 C2141 1.367 1_565 S
C2141 C2140 1.367 1_545 S
C2141 C2143 1.433 . S
C2142 C2138 1.340 1_545 S
C2142 C2139 1.463 . S
C2142 N2146 1.427 . S
C2143 H2133 0.929 . S
C2143 C2141 1.433 . S
C2143 N2146 1.384 . S
C2144 H2135 0.929 . S
C2144 C2136 1.378 . S
C2144 C2139 1.350 . S
C2145 H2132 0.929 1_545 S
C2145 C2137 1.433 . S
C2145 N2147 1.384 . S
N2146 C2142 1.427 . S
N2146 C2143 1.384 . S
N2147 C2139 1.427 . S
N2147 C2145 1.384 . S
H2148 C2154 0.930 . S
H2149 C2158 0.930 . S
H2150 C2163 0.929 . S
H2151 C2161 0.929 . S
H2152 C2156 0.929 . S
H2153 C2162 0.929 . S
C2154 H2148 0.930 . S
C2154 C2155 1.367 . S
C2154 C2162 1.378 . S
C2155 C2154 1.367 . S
C2155 C2163 1.433 . S
C2156 H2152 0.929 . S
C2156 C2158 1.378 . S
C2156 C2160 1.350 . S
C2157 C2160 1.463 . S
C2157 C2162 1.350 . S
C2157 N2165 1.427 . S
C2158 H2149 0.930 . S
C2158 C2156 1.378 . S
C2158 C2159 1.367 . S
C2159 C2158 1.367 . S
C2159 C2161 1.433 . S
C2160 C2156 1.350 . S
C2160 C2157 1.463 . S
C2160 N2164 1.427 . S
C2161 H2151 0.929 . S
C2161 C2159 1.433 . S
C2161 N2164 1.384 . S
C2162 H2153 0.929 . S
C2162 C2154 1.378 . S
C2162 C2157 1.350 . S
C2163 H2150 0.929 . S
C2163 C2155 1.433 . S
C2163 N2165 1.384 . S
N2164 C2160 1.427 . S
N2164 C2161 1.384 . S
N2165 C2157 1.427 . S
N2165 C2163 1.384 . S
H2166 C2172 0.930 . S
H2167 C2176 0.930 . S
H2168 C2181 0.929 . S
H2169 C2179 0.929 . S
H2170 C2174 0.929 . S
H2171 C2180 0.929 . S
C2172 H2166 0.930 . S
C2172 C2173 1.367 . S
C2172 C2180 1.378 . S
C2173 C2172 1.367 . S
C2173 C2181 1.433 . S
C2174 H2170 0.929 . S
C2174 C2176 1.378 . S
C2174 C2178 1.350 . S
C2175 C2178 1.463 . S
C2175 C2180 1.350 . S
C2175 N2183 1.427 . S
C2176 H2167 0.930 . S
C2176 C2174 1.378 . S
C2176 C2177 1.367 . S
C2177 C2176 1.367 . S
C2177 C2179 1.433 . S
C2178 C2174 1.350 . S
C2178 C2175 1.463 . S
C2178 N2182 1.427 . S
C2179 H2169 0.929 . S
C2179 C2177 1.433 . S
C2179 N2182 1.384 . S
C2180 H2171 0.929 . S
C2180 C2172 1.378 . S
C2180 C2175 1.350 . S
C2181 H2168 0.929 . S
C2181 C2173 1.433 . S
C2181 N2183 1.384 . S
N2182 C2178 1.427 . S
N2182 C2179 1.384 . S
N2183 C2175 1.427 . S
N2183 C2181 1.384 . S
H2184 C2190 0.930 . S
H2185 C2194 0.930 . S
H2186 C2199 0.929 . S
H2187 C2197 0.929 . S
H2188 C2192 0.929 . S
H2189 C2198 0.929 . S
C2190 H2184 0.930 . S
C2190 C2191 1.367 . S
C2190 C2198 1.378 . S
C2191 C2190 1.367 . S
C2191 C2199 1.433 . S
C2192 H2188 0.929 . S
C2192 C2194 1.378 . S
C2192 C2196 1.350 . S
C2193 C2196 1.463 . S
C2193 C2198 1.350 . S
C2193 N2201 1.427 . S
C2194 H2185 0.930 . S
C2194 C2192 1.378 . S
C2194 C2195 1.367 . S
C2195 C2194 1.367 . S
C2195 C2197 1.433 . S
C2196 C2192 1.350 . S
C2196 C2193 1.463 . S
C2196 N2200 1.427 . S
C2197 H2187 0.929 . S
C2197 C2195 1.433 . S
C2197 N2200 1.384 . S
C2198 H2189 0.929 . S
C2198 C2190 1.378 . S
C2198 C2193 1.350 . S
C2199 H2186 0.929 . S
C2199 C2191 1.433 . S
C2199 N2201 1.384 . S
N2200 C2196 1.427 . S
N2200 C2197 1.384 . S
N2201 C2193 1.427 . S
N2201 C2199 1.384 . S
H2202 C2208 0.930 . S
H2203 C2212 0.885 1_565 S
H2204 C2217 0.897 1_565 S
H2205 C2215 0.929 . S
H2206 C2210 0.929 1_565 S
H2207 C2216 0.929 . S
C2208 H2202 0.930 . S
C2208 C2209 1.367 . S
C2208 C2216 1.378 . S
C2209 C2208 1.367 . S
C2209 C2217 1.433 . S
C2210 H2206 0.929 1_545 S
C2210 C2212 1.385 . S
C2210 C2214 1.350 . S
C2211 C2214 1.463 . S
C2211 C2216 1.350 . S
C2211 N2219 1.427 . S
C2212 H2203 0.885 1_545 S
C2212 C2210 1.385 . S
C2212 C2213 1.408 . S
C2213 C2212 1.408 . S
C2213 C2215 1.433 . S
C2214 C2210 1.350 . S
C2214 C2211 1.463 . S
C2214 N2218 1.427 . S
C2215 H2205 0.929 . S
C2215 C2213 1.433 . S
C2215 N2218 1.384 . S
C2216 H2207 0.929 . S
C2216 C2208 1.378 . S
C2216 C2211 1.350 . S
C2217 H2204 0.897 1_545 S
C2217 C2209 1.433 . S
C2217 N2219 1.384 . S
N2218 C2214 1.427 . S
N2218 C2215 1.384 . S
N2219 C2211 1.427 . S
N2219 C2217 1.384 . S
H2220 C2226 0.930 . S
H2221 C2230 0.930 . S
H2222 C2235 0.929 . S
H2223 C2233 0.929 . S
H2224 C2228 0.929 . S
H2225 C2234 0.929 . S
C2226 H2220 0.930 . S
C2226 C2227 1.367 . S
C2226 C2234 1.378 . S
C2227 C2226 1.367 . S
C2227 C2235 1.433 . S
C2228 H2224 0.929 . S
C2228 C2230 1.378 . S
C2228 C2232 1.350 . S
C2229 C2232 1.463 . S
C2229 C2234 1.350 . S
C2229 N2237 1.427 . S
C2230 H2221 0.930 . S
C2230 C2228 1.378 . S
C2230 C2231 1.367 . S
C2231 C2230 1.367 . S
C2231 C2233 1.433 . S
C2232 C2228 1.350 . S
C2232 C2229 1.463 . S
C2232 N2236 1.427 . S
C2233 H2223 0.929 . S
C2233 C2231 1.433 . S
C2233 N2236 1.384 . S
C2234 H2225 0.929 . S
C2234 C2226 1.378 . S
C2234 C2229 1.350 . S
C2235 H2222 0.929 . S
C2235 C2227 1.433 . S
C2235 N2237 1.384 . S
N2236 C2232 1.427 . S
N2236 C2233 1.384 . S
N2237 C2229 1.427 . S
N2237 C2235 1.384 . S
H2238 C2244 0.930 . S
H2239 C2248 0.930 . S
H2240 C2253 0.929 . S
H2241 C2251 0.929 . S
H2242 C2246 0.929 . S
H2243 C2252 0.929 . S
C2244 H2238 0.930 . S
C2244 C2245 1.367 . S
C2244 C2252 1.378 . S
C2245 C2244 1.367 . S
C2245 C2253 1.433 . S
C2246 H2242 0.929 . S
C2246 C2248 1.378 . S
C2246 C2250 1.350 . S
C2247 C2250 1.463 . S
C2247 C2252 1.350 . S
C2247 N2255 1.427 . S
C2248 H2239 0.930 . S
C2248 C2246 1.378 . S
C2248 C2249 1.367 . S
C2249 C2248 1.367 . S
C2249 C2251 1.433 . S
C2250 C2246 1.350 . S
C2250 C2247 1.463 . S
C2250 N2254 1.427 . S
C2251 H2241 0.929 . S
C2251 C2249 1.433 . S
C2251 N2254 1.384 . S
C2252 H2243 0.929 . S
C2252 C2244 1.378 . S
C2252 C2247 1.350 . S
C2253 H2240 0.929 . S
C2253 C2245 1.433 . S
C2253 N2255 1.384 . S
N2254 C2250 1.427 . S
N2254 C2251 1.384 . S
N2255 C2247 1.427 . S
N2255 C2253 1.384 . S
H2256 C2262 0.930 . S
H2257 C2266 0.930 . S
H2258 C2271 0.929 . S
H2259 C2269 0.929 . S
H2260 C2264 0.929 . S
H2261 C2270 0.929 . S
C2262 H2256 0.930 . S
C2262 C2263 1.367 . S
C2262 C2270 1.378 . S
C2263 C2262 1.367 . S
C2263 C2271 1.433 . S
C2264 H2260 0.929 . S
C2264 C2266 1.378 . S
C2264 C2268 1.350 . S
C2265 C2268 1.463 . S
C2265 C2270 1.350 . S
C2265 N2273 1.427 . S
C2266 H2257 0.930 . S
C2266 C2264 1.378 . S
C2266 C2267 1.367 . S
C2267 C2266 1.367 . S
C2267 C2269 1.433 . S
C2268 C2264 1.350 . S
C2268 C2265 1.463 . S
C2268 N2272 1.427 . S
C2269 H2259 0.929 . S
C2269 C2267 1.433 . S
C2269 N2272 1.384 . S
C2270 H2261 0.929 . S
C2270 C2262 1.378 . S
C2270 C2265 1.350 . S
C2271 H2258 0.929 . S
C2271 C2263 1.433 . S
C2271 N2273 1.384 . S
N2272 C2268 1.427 . S
N2272 C2269 1.384 . S
N2273 C2265 1.427 . S
N2273 C2271 1.384 . S
H2274 C2280 0.930 . S
H2275 C2284 0.930 . S
H2276 C2289 0.968 . S
H2277 C2287 0.929 . S
H2278 C2282 0.929 . S
H2279 C2288 0.929 . S
C2280 H2274 0.930 . S
C2280 C2281 1.367 . S
C2280 C2288 1.378 . S
C2281 C2280 1.367 . S
C2281 C2289 1.433 . S
C2282 H2278 0.929 . S
C2282 C2284 1.378 . S
C2282 C2286 1.350 . S
C2283 C2286 1.463 . S
C2283 C2288 1.350 . S
C2283 N2291 1.427 . S
C2284 H2275 0.930 . S
C2284 C2282 1.378 . S
C2284 C2285 1.367 . S
C2285 C2284 1.367 . S
C2285 C2287 1.433 . S
C2286 C2282 1.350 . S
C2286 C2283 1.463 . S
C2286 N2290 1.427 . S
C2287 H2277 0.929 . S
C2287 C2285 1.433 . S
C2287 N2290 1.384 . S
C2288 H2279 0.929 . S
C2288 C2280 1.378 . S
C2288 C2283 1.350 . S
C2289 H2276 0.968 . S
C2289 C2281 1.433 . S
C2289 N2291 1.384 . S
N2290 C2286 1.427 . S
N2290 C2287 1.384 . S
N2291 C2283 1.427 . S
N2291 C2289 1.384 . S
H2292 C2298 0.930 . S
H2293 C2302 0.930 . S
H2294 C2307 0.929 . S
H2295 C2305 0.929 . S
H2296 C2300 0.929 . S
H2297 C2306 0.929 . S
C2298 H2292 0.930 . S
C2298 C2299 1.367 . S
C2298 C2306 1.378 . S
C2299 C2298 1.367 . S
C2299 C2307 1.433 . S
C2300 H2296 0.929 . S
C2300 C2302 1.378 . S
C2300 C2304 1.350 . S
C2301 C2304 1.463 . S
C2301 C2306 1.350 . S
C2301 N2309 1.427 . S
C2302 H2293 0.930 . S
C2302 C2300 1.378 . S
C2302 C2303 1.367 . S
C2303 C2302 1.367 . S
C2303 C2305 1.433 . S
C2304 C2300 1.350 . S
C2304 C2301 1.463 . S
C2304 N2308 1.427 . S
C2305 H2295 0.929 . S
C2305 C2303 1.433 . S
C2305 N2308 1.384 . S
C2306 H2297 0.929 . S
C2306 C2298 1.378 . S
C2306 C2301 1.350 . S
C2307 H2294 0.929 . S
C2307 C2299 1.433 . S
C2307 N2309 1.384 . S
N2308 C2304 1.427 . S
N2308 C2305 1.384 . S
N2309 C2301 1.427 . S
N2309 C2307 1.384 . S
H2310 C2316 0.930 . S
H2311 C2320 0.930 . S
H2312 C2325 0.929 . S
H2313 C2323 0.929 . S
H2314 C2318 0.929 . S
H2315 C2324 0.929 . S
C2316 H2310 0.930 . S
C2316 C2317 1.367 . S
C2316 C2324 1.378 . S
C2317 C2316 1.367 . S
C2317 C2325 1.433 . S
C2318 H2314 0.929 . S
C2318 C2320 1.378 . S
C2318 C2322 1.350 . S
C2319 C2322 1.463 . S
C2319 C2324 1.350 . S
C2319 N2327 1.427 . S
C2320 H2311 0.930 . S
C2320 C2318 1.378 . S
C2320 C2321 1.367 . S
C2321 C2320 1.367 . S
C2321 C2323 1.433 . S
C2322 C2318 1.350 . S
C2322 C2319 1.463 . S
C2322 N2326 1.427 . S
C2323 H2313 0.929 . S
C2323 C2321 1.433 . S
C2323 N2326 1.384 . S
C2324 H2315 0.929 . S
C2324 C2316 1.378 . S
C2324 C2319 1.350 . S
C2325 H2312 0.929 . S
C2325 C2317 1.433 . S
C2325 N2327 1.384 . S
N2326 C2322 1.427 . S
N2326 C2323 1.384 . S
N2327 C2319 1.427 . S
N2327 C2325 1.384 . S
H2328 C2334 0.930 . S
H2329 C2338 0.930 . S
H2330 C2343 0.929 . S
H2331 C2341 0.929 . S
H2332 C2336 0.929 . S
H2333 C2342 0.929 . S
C2334 H2328 0.930 . S
C2334 C2335 1.367 . S
C2334 C2342 1.378 . S
C2335 C2334 1.367 . S
C2335 C2343 1.433 . S
C2336 H2332 0.929 . S
C2336 C2338 1.378 . S
C2336 C2340 1.350 . S
C2337 C2340 1.463 . S
C2337 C2342 1.350 . S
C2337 N2345 1.427 . S
C2338 H2329 0.930 . S
C2338 C2336 1.378 . S
C2338 C2339 1.367 . S
C2339 C2338 1.367 . S
C2339 C2341 1.433 . S
C2340 C2336 1.350 . S
C2340 C2337 1.463 . S
C2340 N2344 1.427 . S
C2341 H2331 0.929 . S
C2341 C2339 1.433 . S
C2341 N2344 1.384 . S
C2342 H2333 0.929 . S
C2342 C2334 1.378 . S
C2342 C2337 1.350 . S
C2343 H2330 0.929 . S
C2343 C2335 1.433 . S
C2343 N2345 1.384 . S
N2344 C2340 1.427 . S
N2344 C2341 1.384 . S
N2345 C2337 1.427 . S
N2345 C2343 1.384 . S
H2346 C2352 0.930 . S
H2347 C2356 0.930 . S
H2348 C2361 0.929 . S
H2349 C2359 0.929 . S
H2350 C2354 0.929 . S
H2351 C2360 0.929 . S
C2352 H2346 0.930 . S
C2352 C2353 1.367 . S
C2352 C2360 1.378 . S
C2353 C2352 1.367 . S
C2353 C2361 1.433 . S
C2354 H2350 0.929 . S
C2354 C2356 1.378 . S
C2354 C2358 1.350 . S
C2355 C2358 1.463 . S
C2355 C2360 1.350 . S
C2355 N2363 1.427 . S
C2356 H2347 0.930 . S
C2356 C2354 1.378 . S
C2356 C2357 1.367 . S
C2357 C2356 1.367 . S
C2357 C2359 1.433 . S
C2358 C2354 1.350 . S
C2358 C2355 1.463 . S
C2358 N2362 1.427 . S
C2359 H2349 0.929 . S
C2359 C2357 1.433 . S
C2359 N2362 1.384 . S
C2360 H2351 0.929 . S
C2360 C2352 1.378 . S
C2360 C2355 1.350 . S
C2361 H2348 0.929 . S
C2361 C2353 1.433 . S
C2361 N2363 1.384 . S
N2362 C2358 1.427 . S
N2362 C2359 1.384 . S
N2363 C2355 1.427 . S
N2363 C2361 1.384 . S
H2364 C2370 0.930 . S
H2365 C2374 0.930 . S
H2366 C2379 0.929 . S
H2367 C2377 0.929 . S
H2368 C2372 0.929 . S
H2369 C2378 0.929 . S
C2370 H2364 0.930 . S
C2370 C2371 1.367 . S
C2370 C2378 1.378 . S
C2371 C2370 1.367 . S
C2371 C2379 1.433 . S
C2372 H2368 0.929 . S
C2372 C2374 1.378 . S
C2372 C2376 1.350 . S
C2373 C2376 1.463 . S
C2373 C2378 1.350 . S
C2373 N2381 1.427 . S
C2374 H2365 0.930 . S
C2374 C2372 1.378 . S
C2374 C2375 1.367 . S
C2375 C2374 1.367 . S
C2375 C2377 1.433 . S
C2376 C2372 1.350 . S
C2376 C2373 1.463 . S
C2376 N2380 1.427 . S
C2377 H2367 0.929 . S
C2377 C2375 1.433 . S
C2377 N2380 1.384 . S
C2378 H2369 0.929 . S
C2378 C2370 1.378 . S
C2378 C2373 1.350 . S
C2379 H2366 0.929 . S
C2379 C2371 1.433 . S
C2379 N2381 1.384 . S
N2380 C2376 1.427 . S
N2380 C2377 1.384 . S
N2381 C2373 1.427 . S
N2381 C2379 1.384 . S
H2382 C2388 0.930 . S
H2383 C2392 0.930 . S
H2384 C2397 0.929 . S
H2385 C2395 0.929 . S
H2386 C2390 0.929 . S
H2387 C2396 0.929 . S
C2388 H2382 0.930 . S
C2388 C2389 1.367 . S
C2388 C2396 1.378 . S
C2389 C2388 1.367 . S
C2389 C2397 1.433 . S
C2390 H2386 0.929 . S
C2390 C2392 1.378 . S
C2390 C2394 1.350 . S
C2391 C2394 1.463 . S
C2391 C2396 1.350 . S
C2391 N2399 1.427 . S
C2392 H2383 0.930 . S
C2392 C2390 1.378 . S
C2392 C2393 1.367 . S
C2393 C2392 1.367 . S
C2393 C2395 1.433 . S
C2394 C2390 1.350 . S
C2394 C2391 1.463 . S
C2394 N2398 1.427 . S
C2395 H2385 0.929 . S
C2395 C2393 1.433 . S
C2395 N2398 1.384 . S
C2396 H2387 0.929 . S
C2396 C2388 1.378 . S
C2396 C2391 1.350 . S
C2397 H2384 0.929 . S
C2397 C2389 1.433 . S
C2397 N2399 1.384 . S
N2398 C2394 1.427 . S
N2398 C2395 1.384 . S
N2399 C2391 1.427 . S
N2399 C2397 1.384 . S
H2400 C2406 0.930 . S
H2401 C2410 0.930 . S
H2402 C2415 0.929 . S
H2403 C2413 0.929 . S
H2404 C2408 0.929 . S
H2405 C2414 0.929 . S
C2406 H2400 0.930 . S
C2406 C2407 1.367 . S
C2406 C2414 1.378 . S
C2407 C2406 1.367 . S
C2407 C2415 1.433 . S
C2408 H2404 0.929 . S
C2408 C2410 1.378 . S
C2408 C2412 1.350 . S
C2409 C2412 1.463 . S
C2409 C2414 1.350 . S
C2409 N2417 1.427 . S
C2410 H2401 0.930 . S
C2410 C2408 1.378 . S
C2410 C2411 1.367 . S
C2411 C2410 1.367 . S
C2411 C2413 1.433 . S
C2412 C2408 1.350 . S
C2412 C2409 1.463 . S
C2412 N2416 1.427 . S
C2413 H2403 0.929 . S
C2413 C2411 1.433 . S
C2413 N2416 1.384 . S
C2414 H2405 0.929 . S
C2414 C2406 1.378 . S
C2414 C2409 1.350 . S
C2415 H2402 0.929 . S
C2415 C2407 1.433 . S
C2415 N2417 1.384 . S
N2416 C2412 1.427 . S
N2416 C2413 1.384 . S
N2417 C2409 1.427 . S
N2417 C2415 1.384 . S
H2418 C2424 0.930 . S
H2419 C2428 0.930 . S
H2420 C2433 0.929 . S
H2421 C2431 0.929 . S
H2422 C2426 0.929 . S
H2423 C2432 0.929 . S
C2424 H2418 0.930 . S
C2424 C2425 1.367 . S
C2424 C2432 1.378 . S
C2425 C2424 1.367 . S
C2425 C2433 1.433 . S
C2426 H2422 0.929 . S
C2426 C2428 1.378 . S
C2426 C2430 1.350 . S
C2427 C2430 1.463 . S
C2427 C2432 1.350 . S
C2427 N2435 1.427 . S
C2428 H2419 0.930 . S
C2428 C2426 1.378 . S
C2428 C2429 1.367 . S
C2429 C2428 1.367 . S
C2429 C2431 1.433 . S
C2430 C2426 1.350 . S
C2430 C2427 1.463 . S
C2430 N2434 1.427 . S
C2431 H2421 0.929 . S
C2431 C2429 1.433 . S
C2431 N2434 1.384 . S
C2432 H2423 0.929 . S
C2432 C2424 1.378 . S
C2432 C2427 1.350 . S
C2433 H2420 0.929 . S
C2433 C2425 1.433 . S
C2433 N2435 1.384 . S
N2434 C2430 1.427 . S
N2434 C2431 1.384 . S
N2435 C2427 1.427 . S
N2435 C2433 1.384 . S
H2436 C2442 0.930 . S
H2437 C2446 0.930 . S
H2438 C2451 0.929 . S
H2439 C2449 0.929 . S
H2440 C2444 0.929 . S
H2441 C2450 0.929 . S
C2442 H2436 0.930 . S
C2442 C2443 1.367 . S
C2442 C2450 1.378 . S
C2443 C2442 1.367 . S
C2443 C2451 1.433 . S
C2444 H2440 0.929 . S
C2444 C2446 1.378 . S
C2444 C2448 1.350 . S
C2445 C2448 1.463 . S
C2445 C2450 1.350 . S
C2445 N2453 1.427 . S
C2446 H2437 0.930 . S
C2446 C2444 1.378 . S
C2446 C2447 1.367 . S
C2447 C2446 1.367 . S
C2447 C2449 1.433 . S
C2448 C2444 1.350 . S
C2448 C2445 1.463 . S
C2448 N2452 1.427 . S
C2449 H2439 0.929 . S
C2449 C2447 1.433 . S
C2449 N2452 1.384 . S
C2450 H2441 0.929 . S
C2450 C2442 1.378 . S
C2450 C2445 1.350 . S
C2451 H2438 0.929 . S
C2451 C2443 1.433 . S
C2451 N2453 1.384 . S
N2452 C2448 1.427 . S
N2452 C2449 1.384 . S
N2453 C2445 1.427 . S
N2453 C2451 1.384 . S
H2454 C2460 0.930 . S
H2455 C2464 0.930 . S
H2456 C2469 0.929 . S
H2457 C2467 0.929 . S
H2458 C2462 0.929 . S
H2459 C2468 0.929 . S
C2460 H2454 0.930 . S
C2460 C2461 1.367 . S
C2460 C2468 1.378 . S
C2461 C2460 1.367 . S
C2461 C2469 1.433 . S
C2462 H2458 0.929 . S
C2462 C2464 1.378 . S
C2462 C2466 1.350 . S
C2463 C2466 1.463 . S
C2463 C2468 1.350 . S
C2463 N2471 1.427 . S
C2464 H2455 0.930 . S
C2464 C2462 1.378 . S
C2464 C2465 1.367 . S
C2465 C2464 1.367 . S
C2465 C2467 1.433 . S
C2466 C2462 1.350 . S
C2466 C2463 1.463 . S
C2466 N2470 1.427 . S
C2467 H2457 0.929 . S
C2467 C2465 1.433 . S
C2467 N2470 1.384 . S
C2468 H2459 0.929 . S
C2468 C2460 1.378 . S
C2468 C2463 1.350 . S
C2469 H2456 0.929 . S
C2469 C2461 1.433 . S
C2469 N2471 1.384 . S
N2470 C2466 1.427 . S
N2470 C2467 1.384 . S
N2471 C2463 1.427 . S
N2471 C2469 1.384 . S
H2472 C2478 0.930 . S
H2473 C2482 0.930 . S
H2474 C2487 0.929 . S
H2475 C2485 0.929 . S
H2476 C2480 0.929 . S
H2477 C2486 0.929 . S
C2478 H2472 0.930 . S
C2478 C2479 1.367 . S
C2478 C2486 1.378 . S
C2479 C2478 1.367 . S
C2479 C2487 1.433 . S
C2480 H2476 0.929 . S
C2480 C2482 1.378 . S
C2480 C2484 1.350 . S
C2481 C2484 1.463 . S
C2481 C2486 1.350 . S
C2481 N2489 1.427 . S
C2482 H2473 0.930 . S
C2482 C2480 1.378 . S
C2482 C2483 1.367 . S
C2483 C2482 1.367 . S
C2483 C2485 1.433 . S
C2484 C2480 1.350 . S
C2484 C2481 1.463 . S
C2484 N2488 1.427 . S
C2485 H2475 0.929 . S
C2485 C2483 1.433 . S
C2485 N2488 1.384 . S
C2486 H2477 0.929 . S
C2486 C2478 1.378 . S
C2486 C2481 1.350 . S
C2487 H2474 0.929 . S
C2487 C2479 1.433 . S
C2487 N2489 1.384 . S
N2488 C2484 1.427 . S
N2488 C2485 1.384 . S
N2489 C2481 1.427 . S
N2489 C2487 1.384 . S
H2490 C2496 0.930 . S
H2491 C2500 0.930 . S
H2492 C2505 0.929 . S
H2493 C2503 0.929 . S
H2494 C2498 0.929 . S
H2495 C2504 0.929 . S
C2496 H2490 0.930 . S
C2496 C2497 1.367 . S
C2496 C2504 1.378 . S
C2497 C2496 1.367 . S
C2497 C2505 1.433 . S
C2498 H2494 0.929 . S
C2498 C2500 1.378 . S
C2498 C2502 1.350 . S
C2499 C2502 1.463 . S
C2499 C2504 1.350 . S
C2499 N2507 1.427 . S
C2500 H2491 0.930 . S
C2500 C2498 1.378 . S
C2500 C2501 1.367 . S
C2501 C2500 1.367 . S
C2501 C2503 1.433 . S
C2502 C2498 1.350 . S
C2502 C2499 1.463 . S
C2502 N2506 1.427 . S
C2503 H2493 0.929 . S
C2503 C2501 1.433 . S
C2503 N2506 1.384 . S
C2504 H2495 0.929 . S
C2504 C2496 1.378 . S
C2504 C2499 1.350 . S
C2505 H2492 0.929 . S
C2505 C2497 1.433 . S
C2505 N2507 1.384 . S
N2506 C2502 1.427 . S
N2506 C2503 1.384 . S
N2507 C2499 1.427 . S
N2507 C2505 1.384 . S
H2508 C2514 0.930 . S
H2509 C2518 0.982 . S
H2510 C2523 0.929 1_556 S
H2511 C2521 0.929 . S
H2512 C2516 0.892 1_556 S
H2513 C2522 0.929 . S
C2514 H2508 0.930 . S
C2514 C2515 1.367 . S
C2514 C2522 1.378 . S
C2515 C2514 1.367 . S
C2515 C2523 1.433 . S
C2516 H2512 0.892 1_554 S
C2516 C2518 1.373 1_554 S
C2516 C2520 1.392 . S
C2517 C2520 1.463 . S
C2517 C2522 1.350 . S
C2517 N2525 1.427 . S
C2518 H2509 0.982 . S
C2518 C2516 1.373 1_556 S
C2518 C2519 1.321 1_556 S
C2519 C2518 1.321 1_554 S
C2519 C2521 1.433 . S
C2520 C2516 1.392 . S
C2520 C2517 1.463 . S
C2520 N2524 1.427 . S
C2521 H2511 0.929 . S
C2521 C2519 1.433 . S
C2521 N2524 1.384 . S
C2522 H2513 0.929 . S
C2522 C2514 1.378 . S
C2522 C2517 1.350 . S
C2523 H2510 0.929 1_554 S
C2523 C2515 1.433 . S
C2523 N2525 1.384 . S
N2524 C2520 1.427 . S
N2524 C2521 1.384 . S
N2525 C2517 1.427 . S
N2525 C2523 1.384 . S
H2526 C2532 0.930 . S
H2527 C2536 0.930 . S
H2528 C2541 0.929 1_556 S
H2529 C2539 0.929 . S
H2530 C2534 0.940 . S
H2531 C2540 0.929 . S
C2532 H2526 0.930 . S
C2532 C2533 1.367 . S
C2532 C2540 1.378 . S
C2533 C2532 1.367 . S
C2533 C2541 1.433 . S
C2534 H2530 0.940 . S
C2534 C2536 1.379 . S
C2534 C2538 1.337 1_556 S
C2535 C2538 1.463 . S
C2535 C2540 1.350 . S
C2535 N2543 1.427 . S
C2536 H2527 0.930 . S
C2536 C2534 1.379 . S
C2536 C2537 1.367 1_556 S
C2537 C2536 1.367 1_554 S
C2537 C2539 1.433 . S
C2538 C2534 1.337 1_554 S
C2538 C2535 1.463 . S
C2538 N2542 1.427 . S
C2539 H2529 0.929 . S
C2539 C2537 1.433 . S
C2539 N2542 1.384 . S
C2540 H2531 0.929 . S
C2540 C2532 1.378 . S
C2540 C2535 1.350 . S
C2541 H2528 0.929 1_554 S
C2541 C2533 1.433 . S
C2541 N2543 1.384 . S
N2542 C2538 1.427 . S
N2542 C2539 1.384 . S
N2543 C2535 1.427 . S
N2543 C2541 1.384 . S
C1691 C673 1.505 . S
C1687 C211 1.505 . S
C1709 C732 1.515 . S
C1705 C255 1.510 . S
C1723 C274 1.507 . S
C1727 C849 1.509 . S
C1745 C917 1.525 . S
C1741 C157 1.524 . S
C1763 C996 1.517 . S
C1759 C391 1.515 . S
C1781 C1121 1.521 . S
C1777 C484 1.519 . S
C1795 C450 1.506 . S
C1799 C1181 1.506 . S
C1817 C1289 1.524 . S
C1813 C352 1.521 . S
C1831 C430 1.505 . S
C1835 C1385 1.505 . S
C1853 C1445 1.532 . S
C1849 C367 1.531 . S
C1867 C411 1.528 . S
C1871 C1348 1.530 . S
C1889 C1465 1.518 . S
C1885 C469 1.516 . S
C1903 C294 1.503 . S
C1907 C1533 1.506 . S
C1921 C177 1.525 . S
C1925 C1524 1.524 . S
C1939 C196 1.507 . S
C1943 C1553 1.509 . S
C1957 C235 1.517 . S
C1961 C1561 1.518 . S
C1975 C133 1.509 . S
C1979 C945 1.510 . S
C1993 C567 1.500 . S
C1997 C908 1.504 . S
C2015 C644 1.517 . S
C2011 C601 1.517 . S
C2033 C741 1.510 . S
C2029 C328 1.510 . S
C2047 C172 1.519 . S
C2051 C1005 1.520 . S
C2069 C1297 1.511 . S
C2065 C445 1.510 . S
C2087 C1025 1.539 . S
C2083 C372 1.535 . S
C2105 C1209 1.510 . S
C2101 C489 1.509 . S
C2123 C1201 1.504 . S
C2119 C562 1.503 . S
C2137 C606 1.510 . S
C2141 C1269 1.515 . S
C2155 C313 1.509 . S
C2159 C1033 1.511 . S
C2177 C1084 1.523 . S
C2173 C508 1.523 . S
C2191 C118 1.517 . S
C2195 C829 1.519 . S
C2213 C937 1.522 . S
C2209 C16 1.519 . S
C2231 C653 1.506 . S
C2227 C60 1.506 . S
C2249 C769 1.525 . S
C2245 C79 1.524 . S
C2263 C40 1.505 . S
C2267 C1473 1.505 . S
C2281 C94 1.531 . S
C2285 C1357 1.532 . S
C2299 C138 1.526 . S
C2303 C1436 1.529 . S
C2317 C1 1.519 . S
C2321 C1377 1.519 . S
C2339 C1621 1.505 . S
C2335 C333 1.502 . S
C2357 C1612 1.525 . S
C2353 C528 1.525 . S
C2375 C1641 1.511 . S
C2371 C547 1.510 . S
C2389 C586 1.513 . S
C2393 C1649 1.517 . S
C2407 C406 1.512 . S
C2411 C1113 1.512 . S
C2429 C1093 1.505 . S
C2425 C216 1.501 . S
C2447 C1172 1.518 . S
C2443 C250 1.517 . S
C2465 C1260 1.512 . S
C2461 C289 1.511 . S
C2479 C523 1.516 . S
C2483 C820 1.519 . S
C2501 C761 1.509 . S
C2497 C55 1.507 . S
C2515 C99 1.535 . S
C2519 C857 1.539 . S
C2537 C681 1.510 . S
C2533 C21 1.508 . S
