# Generated by pormake.
# Topology llj, (12,3)-cn, num edge types: 1
# Building blocks:
#     Node 0, Type 0, BuildingBlock: QEWDON_clean_sbu_0, # of connection points: 12
#     Node 1, Type 0, BuildingBlock: QEWDON_clean_sbu_0, # of connection points: 12
#     Node 2, Type 1, BuildingBlock: CUQRIR_clean_linker_1, # of connection points: 3
#     Node 3, Type 1, BuildingBlock: CUQRIR_clean_linker_1, # of connection points: 3
#     Node 4, Type 1, BuildingBlock: CUQRIR_clean_linker_1, # of connection points: 3
#     Node 5, Type 1, BuildingBlock: CUQRIR_clean_linker_1, # of connection points: 3
#     Node 6, Type 1, BuildingBlock: CUQRIR_clean_linker_1, # of connection points: 3
#     Node 7, Type 1, BuildingBlock: CUQRIR_clean_linker_1, # of connection points: 3
#     Node 8, Type 1, BuildingBlock: CUQRIR_clean_linker_1, # of connection points: 3
#     Node 9, Type 1, BuildingBlock: CUQRIR_clean_linker_1, # of connection points: 3
#     Edge 10, Type (0, 1), BuildingBlock: XUDNAN_clean_linker_2, # of connection points: 2
#     Edge 11, Type (0, 1), BuildingBlock: XUDNAN_clean_linker_2, # of connection points: 2
#     Edge 12, Type (0, 1), BuildingBlock: XUDNAN_clean_linker_2, # of connection points: 2
#     Edge 13, Type (0, 1), BuildingBlock: XUDNAN_clean_linker_2, # of connection points: 2
#     Edge 14, Type (0, 1), BuildingBlock: XUDNAN_clean_linker_2, # of connection points: 2
#     Edge 15, Type (0, 1), BuildingBlock: XUDNAN_clean_linker_2, # of connection points: 2
#     Edge 16, Type (0, 1), BuildingBlock: XUDNAN_clean_linker_2, # of connection points: 2
#     Edge 17, Type (0, 1), BuildingBlock: XUDNAN_clean_linker_2, # of connection points: 2
#     Edge 18, Type (0, 1), BuildingBlock: XUDNAN_clean_linker_2, # of connection points: 2
#     Edge 19, Type (0, 1), BuildingBlock: XUDNAN_clean_linker_2, # of connection points: 2
#     Edge 20, Type (0, 1), BuildingBlock: XUDNAN_clean_linker_2, # of connection points: 2
#     Edge 21, Type (0, 1), BuildingBlock: XUDNAN_clean_linker_2, # of connection points: 2
#     Edge 22, Type (0, 1), BuildingBlock: XUDNAN_clean_linker_2, # of connection points: 2
#     Edge 23, Type (0, 1), BuildingBlock: XUDNAN_clean_linker_2, # of connection points: 2
#     Edge 24, Type (0, 1), BuildingBlock: XUDNAN_clean_linker_2, # of connection points: 2
#     Edge 25, Type (0, 1), BuildingBlock: XUDNAN_clean_linker_2, # of connection points: 2
#     Edge 26, Type (0, 1), BuildingBlock: XUDNAN_clean_linker_2, # of connection points: 2
#     Edge 27, Type (0, 1), BuildingBlock: XUDNAN_clean_linker_2, # of connection points: 2
#     Edge 28, Type (0, 1), BuildingBlock: XUDNAN_clean_linker_2, # of connection points: 2
#     Edge 29, Type (0, 1), BuildingBlock: XUDNAN_clean_linker_2, # of connection points: 2
#     Edge 30, Type (0, 1), BuildingBlock: XUDNAN_clean_linker_2, # of connection points: 2
#     Edge 31, Type (0, 1), BuildingBlock: XUDNAN_clean_linker_2, # of connection points: 2
#     Edge 32, Type (0, 1), BuildingBlock: XUDNAN_clean_linker_2, # of connection points: 2
#     Edge 33, Type (0, 1), BuildingBlock: XUDNAN_clean_linker_2, # of connection points: 2
# Relax obj value: 0.011
# Max RMSD: 0.115
# Mean RMSD: 0.100
data_MOF--net-llj--node1-QEWDON_clean_sbu_0--node2-CUQRIR_clean_linker_1--edge1-XUDNAN_clean_linker_2
_symmetry_space_group_name_H-M    P1
_symmetry_Int_Tables_number       1
_symmetry_cell_setting            triclinic
loop_
_symmetry_equiv_pos_as_xyz
'x, y, z'
_cell_length_a     37.162487
_cell_length_b     37.138703
_cell_length_c     22.745652
_cell_angle_alpha  89.966803
_cell_angle_beta   90.051662
_cell_angle_gamma 90.008203
loop_
_atom_site_label
_atom_site_type_symbol
_atom_site_fract_x
_atom_site_fract_y
_atom_site_fract_z
_atom_type_partial_charge
Zn0 Zn 0.94714 0.06018 0.95158 0.0
Zn1 Zn 0.94454 0.06499 0.09073 0.0
O2 O 0.97892 0.05815 0.02421 0.0
H3 H 0.00067 0.04395 0.02584 0.0
C4 C 0.87754 0.99351 0.85998 0.0
O5 O 0.89996 0.01265 0.89184 0.0
Zn6 Zn 0.0536 0.93289 0.08498 0.0
Zn7 Zn 0.05218 0.92054 0.94439 0.0
O8 O 0.02486 0.94379 0.01197 0.0
H9 H 0.00745 0.96298 0.00809 0.0
Zn10 Zn 0.87623 0.95018 0.96767 0.0
O11 O 0.92463 0.96343 0.00236 0.0
Zn12 Zn 0.92325 0.93643 0.07838 0.0
H13 H 0.93908 0.98433 0.99324 0.0
Zn14 Zn 0.08303 0.07317 0.9731 0.0
O15 O 0.07384 0.03251 0.03158 0.0
H16 H 0.06259 0.00987 0.02162 0.0
Zn17 Zn 0.07423 0.05771 0.10944 0.0
C18 C 0.08148 0.03009 0.86396 0.0
O19 O 0.05768 0.01147 0.89395 0.0
O20 O 0.89836 0.08545 0.96766 0.0
O21 O 0.90203 0.09534 0.06434 0.0
O22 O 0.09928 0.89589 0.96857 0.0
O23 O 0.09919 0.90532 0.06519 0.0
O24 O 0.85595 0.90261 1.0 0.0
O25 O 0.89479 0.88992 0.0716 0.0
C26 C 0.00437 0.08767 0.16532 0.0
O27 O 0.11433 0.11351 0.0097 0.0
O28 O 0.11002 0.099 0.1045 0.0
O29 O 0.02729 0.90215 0.86817 0.0
C30 C 0.88602 0.09911 0.015 0.0
O31 O 0.9738 0.07096 0.87282 0.0
C32 C 0.98901 0.90719 0.14036 0.0
O33 O 0.86346 0.96548 0.88227 0.0
C34 C 0.11384 0.89268 0.01898 0.0
O35 O 0.09548 0.05788 0.88729 0.0
C36 C 0.90271 6e-05 0.14277 0.0
O37 O 0.97033 0.0886 0.15926 0.0
O38 O 0.02276 0.07269 0.12495 0.0
C39 C 0.86751 0.88164 0.04021 0.0
O40 O 0.02299 0.90438 0.14141 0.0
O41 O 0.97464 0.92726 0.10167 0.0
C42 C 0.0841 0.99049 0.16903 0.0
O43 O 0.89734 0.96653 0.13729 0.0
O44 O 0.92647 0.01486 0.1104 0.0
C45 C 0.12293 0.11844 0.06338 0.0
O46 O 0.08992 0.024 0.1743 0.0
O47 O 0.06858 0.97984 0.12219 0.0
C48 C -0.00216 0.91419 0.8477 0.0
O49 O 0.98063 0.93945 0.87664 0.0
C50 C 0.98165 0.0473 0.83445 0.0
O51 O 0.97176 0.01377 0.84293 0.0
Zn52 Zn 0.43826 0.60004 0.47615 0.0
Zn53 Zn 0.45502 0.58596 0.60353 0.0
O54 O 0.48199 0.59297 0.52913 0.0
H55 H 0.50493 0.60488 0.52447 0.0
C56 C 0.39524 0.49079 0.31347 0.0
O57 O 0.42382 0.50244 0.3417 0.0
Zn58 Zn 0.5378 0.42266 0.56158 0.0
Zn59 Zn 0.55916 0.4244 0.42741 0.0
O60 O 0.51735 0.43593 0.48335 0.0
H61 H 0.49761 0.45229 0.47614 0.0
Zn62 Zn 0.39442 0.44466 0.4156 0.0
O63 O 0.41475 0.48131 0.47391 0.0
Zn64 Zn 0.40829 0.45891 0.5524 0.0
H65 H 0.42884 0.50253 0.46525 0.0
Zn66 Zn 0.60329 0.53031 0.45597 0.0
O67 O 0.56173 0.51895 0.51063 0.0
H68 H 0.53769 0.51201 0.49902 0.0
Zn69 Zn 0.57577 0.54259 0.586 0.0
C70 C 0.63136 0.50056 0.3455 0.0
O71 O 0.66208 0.50558 0.37294 0.0
O72 O 0.39781 0.62951 0.51665 0.0
O73 O 0.41596 0.62405 0.60946 0.0
O74 O 0.59661 0.3888 0.46233 0.0
O75 O 0.57393 0.38257 0.55212 0.0
O76 O 0.36598 0.40238 0.45328 0.0
O77 O 0.37268 0.41764 0.54716 0.0
C78 C 0.5218 0.58097 0.66726 0.0
O79 O 0.63297 0.57543 0.47899 0.0
O80 O 0.61186 0.58259 0.56989 0.0
O81 O 0.54602 0.41444 0.34014 0.0
C82 C 0.3948 0.63741 0.571 0.0
O83 O 0.45157 0.61271 0.39011 0.0
C84 C 0.46699 0.41803 0.61942 0.0
O85 O 0.37727 0.46495 0.33529 0.0
C86 C 0.59641 0.37358 0.51256 0.0
O87 O 0.60233 0.50957 0.37099 0.0
C88 C 0.40362 0.52605 0.62271 0.0
O89 O 0.48958 0.59196 0.67185 0.0
O90 O 0.53077 0.56542 0.61949 0.0
C91 C 0.35938 0.39728 0.50765 0.0
O92 O 0.49947 0.40777 0.61896 0.0
O93 O 0.45611 0.4382 0.57767 0.0
C94 C 0.58323 0.47314 0.63898 0.0
O95 O 0.3896 0.49592 0.60966 0.0
O96 O 0.43257 0.53605 0.59775 0.0
C97 C 0.63197 0.59267 0.52749 0.0
O98 O 0.59477 0.5051 0.64341 0.0
O99 O 0.56369 0.46575 0.59451 0.0
C100 C 0.52015 0.43022 0.31422 0.0
O101 O 0.50177 0.4549 0.34265 0.0
C102 C 0.47308 0.59213 0.36264 0.0
O103 O 0.48413 0.5624 0.38829 0.0
C104 C 0.33173 0.29267 0.97562 0.0
N105 N 0.35982 0.31577 0.97405 0.0
N106 N 0.32495 0.28198 0.03159 0.0
C107 C 0.31291 0.27854 0.9217 0.0
C108 C 0.35019 0.29949 0.06388 0.0
N109 N 0.37139 0.31986 0.02879 0.0
C110 C 0.35357 0.29762 0.1298 0.0
H111 H 0.28944 0.29595 0.91165 0.0
H112 H 0.30329 0.25059 0.92873 0.0
H113 H 0.3312 0.27904 0.88316 0.0
H114 H 0.37253 0.27568 0.14149 0.0
H115 H 0.32715 0.29201 0.15053 0.0
H116 H 0.3644 0.32305 0.1481 0.0
C117 C 0.68438 0.29819 0.95398 0.0
N118 N 0.66654 0.32871 0.96816 0.0
N119 N 0.70015 0.28358 0.0021 0.0
C120 C 0.68893 0.28447 0.89211 0.0
C121 C 0.69166 0.30674 0.04601 0.0
N122 N 0.67146 0.33443 0.02523 0.0
C123 C 0.70006 0.30043 0.10996 0.0
H124 H 0.66686 0.26534 0.8819 0.0
H125 H 0.71502 0.27031 0.88693 0.0
H126 H 0.68763 0.30693 0.85997 0.0
H127 H 0.72619 0.31327 0.12076 0.0
H128 H 0.70216 0.27121 0.11959 0.0
H129 H 0.67902 0.31238 0.13851 0.0
C130 C 0.67015 0.67605 0.09558 0.0
N131 N 0.64547 0.65481 0.069 0.0
N132 N 0.69909 0.68071 0.06056 0.0
C133 C 0.66473 0.69454 0.15371 0.0
C134 C 0.69109 0.66174 0.01144 0.0
N135 N 0.65856 0.64542 0.01684 0.0
C136 C 0.71389 0.66149 0.95661 0.0
H137 H 0.65048 0.72038 0.14611 0.0
H138 H 0.69085 0.70046 0.17522 0.0
H139 H 0.64802 0.67774 0.18342 0.0
H140 H 0.72921 0.6359 0.95471 0.0
H141 H 0.73368 0.68377 0.95591 0.0
H142 H 0.69667 0.66329 0.91683 0.0
C143 C 0.31752 0.69344 0.04222 0.0
N144 N 0.33059 0.66386 0.01482 0.0
N145 N 0.30966 0.71955 0.00249 0.0
C146 C 0.3083 0.69516 0.10663 0.0
C147 C 0.31865 0.7046 0.95019 0.0
N148 N 0.33094 0.67077 0.95769 0.0
C149 C 0.31531 0.7228 0.89129 0.0
H150 H 0.28193 0.70858 0.11314 0.0
H151 H 0.32912 0.71124 0.12969 0.0
H152 H 0.30728 0.668 0.12686 0.0
H153 H 0.31454 0.75253 0.89604 0.0
H154 H 0.29029 0.7136 0.8693 0.0
H155 H 0.33827 0.71513 0.86273 0.0
C156 C 0.81418 0.80609 0.46133 0.0
N157 N 0.8449 0.82459 0.47115 0.0
N158 N 0.79869 0.79616 0.51278 0.0
C159 C 0.79992 0.79712 0.40118 0.0
C160 C 0.8212 0.8096 0.55432 0.0
N161 N 0.84924 0.82691 0.52894 0.0
C162 C 0.81801 0.80228 0.61926 0.0
H163 H 0.80544 0.81952 0.37016 0.0
H164 H 0.77055 0.79183 0.40245 0.0
H165 H 0.81394 0.77282 0.38444 0.0
H166 H 0.84444 0.80422 0.64172 0.0
H167 H 0.80657 0.77513 0.6273 0.0
H168 H 0.79967 0.82251 0.63897 0.0
C169 C 0.20258 0.85552 0.60118 0.0
N170 N 0.18173 0.8778 0.56851 0.0
N171 N 0.2215 0.83282 0.56621 0.0
C172 C 0.20408 0.85585 0.66734 0.0
C173 C 0.21135 0.84232 0.51102 0.0
N174 N 0.18696 0.86944 0.51234 0.0
C175 C 0.22827 0.82804 0.45555 0.0
H176 H 0.21145 0.82897 0.68489 0.0
H177 H 0.17785 0.8639 0.68638 0.0
H178 H 0.22452 0.87576 0.68173 0.0
H179 H 0.21345 0.80374 0.44082 0.0
H180 H 0.25678 0.82051 0.46324 0.0
H181 H 0.22708 0.84841 0.41987 0.0
C182 C 0.18007 0.17129 0.58208 0.0
N183 N 0.15221 0.15301 0.55795 0.0
N184 N 0.19454 0.19459 0.54271 0.0
C185 C 0.19407 0.1651 0.64334 0.0
C186 C 0.17443 0.18968 0.49355 0.0
N187 N 0.14903 0.16417 0.50269 0.0
C188 C 0.17631 0.2131 0.43945 0.0
H189 H 0.17918 0.1825 0.67458 0.0
H190 H 0.22314 0.17173 0.64617 0.0
H191 H 0.18985 0.13666 0.6567 0.0
H192 H 0.19656 0.20177 0.40879 0.0
H193 H 0.18441 0.24098 0.45087 0.0
H194 H 0.15003 0.21421 0.41638 0.0
C195 C 0.79653 0.16329 0.55222 0.0
N196 N 0.8115 0.13454 0.52493 0.0
N197 N 0.77643 0.18288 0.51403 0.0
C198 C 0.79966 0.17084 0.61712 0.0
C199 C 0.77986 0.1651 0.46239 0.0
N200 N 0.80089 0.1357 0.46922 0.0
C201 C 0.76073 0.17524 0.40635 0.0
H202 H 0.78895 0.19777 0.62867 0.0
H203 H 0.82822 0.16978 0.63098 0.0
H204 H 0.78486 0.14982 0.642 0.0
H205 H 0.77348 0.19973 0.38776 0.0
H206 H 0.73213 0.18166 0.41565 0.0
H207 H 0.76202 0.15368 0.3728 0.0
H208 H 0.13665 0.18384 0.01238 0.0
H209 H 0.17608 0.10882 0.14363 0.0
H210 H 0.23084 0.14568 0.1562 0.0
H211 H 0.21704 0.2014 0.94343 0.0
H212 H 0.20994 0.24889 0.93199 0.0
H213 H 0.17197 0.21905 0.93764 0.0
H214 H 0.14602 0.25715 0.02311 0.0
H215 H 0.1837 0.28751 0.01716 0.0
H216 H 0.17362 0.26637 0.08658 0.0
H217 H 0.28556 0.18381 0.14002 0.0
H218 H 0.33272 0.22636 0.10781 0.0
H219 H 0.25476 0.28194 0.99892 0.0
C220 C 0.15645 0.17578 0.04479 0.0
C221 C 0.15225 0.14369 0.07722 0.0
C222 C 0.17871 0.13363 0.11892 0.0
C223 C 0.20992 0.15429 0.12619 0.0
C224 C 0.21377 0.18533 0.09242 0.0
C225 C 0.18733 0.19664 0.05375 0.0
C226 C 0.19859 0.23055 0.02172 0.0
C227 C 0.19943 0.22459 0.95475 0.0
C228 C 0.17402 0.26228 0.03815 0.0
C229 C 0.23609 0.23552 0.04638 0.0
C230 C 0.24444 0.20903 0.08679 0.0
C231 C 0.27895 0.20552 0.11015 0.0
C232 C 0.30552 0.22987 0.09188 0.0
C233 C 0.29724 0.2578 0.05173 0.0
C234 C 0.26187 0.26086 0.02962 0.0
H235 H 0.87258 0.16365 0.06761 0.0
H236 H 0.82504 0.08261 0.95458 0.0
H237 H 0.76939 0.11902 0.94724 0.0
H238 H 0.79039 0.19295 0.14323 0.0
H239 H 0.80311 0.23977 0.14197 0.0
H240 H 0.83728 0.20536 0.14471 0.0
H241 H 0.86687 0.2318 0.05096 0.0
H242 H 0.83292 0.2663 0.0481 0.0
H243 H 0.84013 0.23751 0.98543 0.0
H244 H 0.71949 0.16439 0.9516 0.0
H245 H 0.68167 0.21908 0.9561 0.0
H246 H 0.76478 0.27374 0.0555 0.0
C247 C 0.85012 0.15339 0.04227 0.0
C248 C 0.85259 0.12021 0.01237 0.0
C249 C 0.82332 0.10793 0.97805 0.0
C250 C 0.79165 0.12829 0.97395 0.0
C251 C 0.79009 0.1611 0.00358 0.0
C252 C 0.81873 0.17387 0.03634 0.0
C253 C 0.8116 0.21165 0.05857 0.0
C254 C 0.81053 0.21246 0.12614 0.0
C255 C 0.83954 0.23838 0.03429 0.0
C256 C 0.77467 0.2183 0.0326 0.0
C257 C 0.7624 0.18846 0.00231 0.0
C258 C 0.72895 0.18803 0.97472 0.0
C259 C 0.70781 0.21922 0.97709 0.0
C260 C 0.72062 0.25068 0.00528 0.0
C261 C 0.75427 0.24995 0.03408 0.0
H262 H 0.80504 0.85927 0.98874 0.0
H263 H 0.88461 0.8279 0.11909 0.0
H264 H 0.84967 0.77258 0.1398 0.0
H265 H 0.72814 0.82931 0.0688 0.0
H266 H 0.70442 0.81435 0.00411 0.0
H267 H 0.73619 0.85083 0.99897 0.0
H268 H 0.77114 0.8164 0.91791 0.0
H269 H 0.7394 0.77988 0.92264 0.0
H270 H 0.78678 0.77129 0.93228 0.0
H271 H 0.80552 0.72006 0.14505 0.0
H272 H 0.75577 0.67561 0.13425 0.0
H273 H 0.70543 0.74354 0.00359 0.0
C274 C 0.81539 0.84077 0.02146 0.0
C275 C 0.84772 0.84784 0.05199 0.0
C276 C 0.85999 0.82296 0.09487 0.0
C277 C 0.84031 0.79151 0.107 0.0
C278 C 0.80842 0.78555 0.07613 0.0
C279 C 0.79608 0.80959 0.03434 0.0
C280 C 0.76086 0.79747 0.00766 0.0
C281 C 0.73063 0.8246 0.0207 0.0
C282 C 0.7648 0.79086 0.94119 0.0
C283 C 0.75529 0.76267 0.04066 0.0
C284 C 0.78296 0.75608 0.07994 0.0
C285 C 0.78372 0.72503 0.11454 0.0
C286 C 0.75557 0.70006 0.10831 0.0
C287 C 0.72736 0.70653 0.06805 0.0
C288 C 0.72702 0.73831 0.03446 0.0
H289 H 0.13696 0.83843 0.94873 0.0
H290 H 0.16665 0.90124 0.102 0.0
H291 H 0.22313 0.86616 0.11107 0.0
H292 H 0.16606 0.75532 0.00642 0.0
H293 H 0.18109 0.73799 0.93662 0.0
H294 H 0.14531 0.77056 0.93918 0.0
H295 H 0.18121 0.8122 0.8688 0.0
H296 H 0.21724 0.77979 0.86633 0.0
H297 H 0.22634 0.82554 0.88812 0.0
H298 H 0.27648 0.82322 0.1027 0.0
H299 H 0.31862 0.77264 0.08325 0.0
H300 H 0.2489 0.73529 0.94339 0.0
C301 C 0.15562 0.8452 0.98364 0.0
C302 C 0.14787 0.87275 0.02417 0.0
C303 C 0.17237 0.88024 0.07032 0.0
C304 C 0.2045 0.86062 0.07562 0.0
C305 C 0.21127 0.83341 0.03491 0.0
C306 C 0.18723 0.82547 0.99029 0.0
C307 C 0.19899 0.79308 0.95525 0.0
C308 C 0.17122 0.76243 0.95968 0.0
C309 C 0.20638 0.80328 0.89082 0.0
C310 C 0.23334 0.78384 0.98723 0.0
C311 C 0.24049 0.8077 0.03232 0.0
C312 C 0.27107 0.80434 0.06757 0.0
C313 C 0.29471 0.77561 0.0565 0.0
C314 C 0.28709 0.75048 0.01146 0.0
C315 C 0.25594 0.75473 0.97685 0.0
H316 H 0.69258 0.61274 0.46681 0.0
H317 H 0.61919 0.64807 0.6035 0.0
H318 H 0.65295 0.70505 0.61264 0.0
H319 H 0.77241 0.64905 0.53471 0.0
H320 H 0.79289 0.66146 0.46581 0.0
H321 H 0.76221 0.62399 0.4689 0.0
H322 H 0.72323 0.65356 0.38753 0.0
H323 H 0.75364 0.69129 0.3846 0.0
H324 H 0.70643 0.69863 0.39807 0.0
H325 H 0.6935 0.75927 0.60423 0.0
H326 H 0.74151 0.80418 0.58504 0.0
H327 H 0.79092 0.73107 0.46076 0.0
C328 C 0.68359 0.6325 0.49856 0.0
C329 C 0.65316 0.62609 0.53418 0.0
C330 C 0.64249 0.6524 0.57581 0.0
C331 C 0.66137 0.68491 0.58115 0.0
C332 C 0.69112 0.6905 0.54511 0.0
C333 C 0.70249 0.66483 0.50523 0.0
C334 C 0.73619 0.67687 0.47349 0.0
C335 C 0.76779 0.65133 0.48654 0.0
C336 C 0.72945 0.68029 0.40698 0.0
C337 C 0.74184 0.71337 0.50152 0.0
C338 C 0.71534 0.72097 0.5422 0.0
C339 C 0.71456 0.75349 0.5728 0.0
C340 C 0.74184 0.77875 0.56183 0.0
C341 C 0.76964 0.77106 0.52133 0.0
C342 C 0.76956 0.73791 0.49104 0.0
H343 H 0.32917 0.65143 0.52139 0.0
H344 H 0.4017 0.68644 0.65945 0.0
H345 H 0.36227 0.73864 0.67937 0.0
H346 H 0.30795 0.73455 0.46421 0.0
H347 H 0.26095 0.72567 0.45104 0.0
H348 H 0.2927 0.68911 0.45152 0.0
H349 H 0.25579 0.6565 0.5322 0.0
H350 H 0.22355 0.69276 0.5314 0.0
H351 H 0.24501 0.67988 0.59934 0.0
H352 H 0.32113 0.7925 0.67069 0.0
H353 H 0.2762 0.83902 0.64493 0.0
H354 H 0.22552 0.76482 0.52352 0.0
C355 C 0.33629 0.6697 0.55663 0.0
C356 C 0.36849 0.66512 0.58872 0.0
C357 C 0.37699 0.68942 0.63462 0.0
C358 C 0.35484 0.7192 0.64608 0.0
C359 C 0.32381 0.72362 0.61236 0.0
C360 C 0.31397 0.69897 0.56973 0.0
C361 C 0.27962 0.71026 0.539 0.0
C362 C 0.2857 0.71519 0.47253 0.0
C363 C 0.24919 0.68324 0.55124 0.0
C364 C 0.27262 0.74593 0.569 0.0
C365 C 0.2985 0.7533 0.61095 0.0
C366 C 0.29996 0.78648 0.63952 0.0
C367 C 0.27424 0.81269 0.62488 0.0
C368 C 0.24697 0.80531 0.58306 0.0
C369 C 0.246 0.77122 0.55566 0.0
H370 H 0.34299 0.33555 0.44653 0.0
H371 H 0.32239 0.39148 0.61069 0.0
H372 H 0.28123 0.34284 0.64108 0.0
H373 H 0.25518 0.30294 0.42244 0.0
H374 H 0.26899 0.25975 0.39432 0.0
H375 H 0.29809 0.29817 0.38634 0.0
H376 H 0.34944 0.26351 0.43886 0.0
H377 H 0.32043 0.22494 0.44703 0.0
H378 H 0.34164 0.24456 0.51072 0.0
H379 H 0.23718 0.29225 0.64836 0.0
H380 H 0.19619 0.24066 0.63481 0.0
H381 H 0.25042 0.21323 0.47238 0.0
C382 C 0.32992 0.33745 0.48894 0.0
C383 C 0.33563 0.36742 0.52602 0.0
C384 C 0.31836 0.36879 0.58151 0.0
C385 C 0.29497 0.34129 0.59923 0.0
C386 C 0.28972 0.31225 0.56151 0.0
C387 C 0.30704 0.30984 0.50791 0.0
C388 C 0.29639 0.27581 0.47556 0.0
C389 C 0.2786 0.28472 0.41617 0.0
C390 C 0.32892 0.25072 0.46759 0.0
C391 C 0.26949 0.26014 0.51851 0.0
C392 C 0.266 0.28163 0.56773 0.0
C393 C 0.24038 0.2746 0.6109 0.0
C394 C 0.21744 0.24504 0.60316 0.0
C395 C 0.22068 0.22254 0.55324 0.0
C396 C 0.2476 0.22986 0.51115 0.0
H397 H 0.65905 0.35728 0.45407 0.0
H398 H 0.59169 0.32368 0.60016 0.0
H399 H 0.63271 0.27297 0.61968 0.0
H400 H 0.68135 0.27059 0.402 0.0
H401 H 0.72736 0.28134 0.38417 0.0
H402 H 0.69359 0.31608 0.38275 0.0
H403 H 0.73116 0.35411 0.45596 0.0
H404 H 0.76515 0.31951 0.45749 0.0
H405 H 0.74483 0.33458 0.52506 0.0
H406 H 0.67681 0.2227 0.61683 0.0
H407 H 0.72468 0.17829 0.59665 0.0
H408 H 0.76727 0.24724 0.45972 0.0
C409 C 0.65306 0.33936 0.49033 0.0
C410 C 0.62206 0.34427 0.52534 0.0
C411 C 0.61528 0.32043 0.57273 0.0
C412 C 0.6384 0.29154 0.5842 0.0
C413 C 0.66849 0.28724 0.54855 0.0
C414 C 0.67622 0.3107 0.5031 0.0
C415 C 0.71031 0.29975 0.47132 0.0
C416 C 0.70267 0.29145 0.40622 0.0
C417 C 0.7396 0.32871 0.47788 0.0
C418 C 0.71994 0.26596 0.50511 0.0
C419 C 0.69535 0.25921 0.54931 0.0
C420 C 0.69683 0.22814 0.58346 0.0
C421 C 0.72418 0.20324 0.57204 0.0
C422 C 0.75007 0.20992 0.52777 0.0
C423 C 0.74801 0.24181 0.49425 0.0
H424 H 0.07656 0.09275 0.19639 0.0
H425 H 0.96927 0.1161 0.25896 0.0
H426 H 0.994 0.13609 0.3536 0.0
H427 H 0.11689 0.06286 0.32823 0.0
H428 H 0.1588 0.08599 0.31648 0.0
H429 H 0.13205 0.0723 0.25436 0.0
H430 H 0.13039 0.1388 0.21705 0.0
H431 H 0.15808 0.15137 0.27882 0.0
H432 H 0.1157 0.17373 0.2663 0.0
H433 H 0.03044 0.15196 0.44283 0.0
H434 H 0.07681 0.16782 0.51688 0.0
H435 H 0.16059 0.13722 0.39465 0.0
C436 C 0.05829 0.10211 0.22956 0.0
C437 C 0.02072 0.10179 0.22034 0.0
C438 C -0.00206 0.11501 0.26533 0.0
C439 C 0.0118 0.12667 0.31926 0.0
C440 C 0.04886 0.12603 0.32714 0.0
C441 C 0.0719 0.11487 0.28311 0.0
C442 C 0.11082 0.11897 0.30176 0.0
C443 C 0.13082 0.08284 0.30002 0.0
C444 C 0.1299 0.14742 0.26376 0.0
C445 C 0.10589 0.13215 0.36418 0.0
C446 C 0.06993 0.13641 0.37781 0.0
C447 C 0.05871 0.14869 0.43276 0.0
C448 C 0.08505 0.15724 0.47467 0.0
C449 C 0.12195 0.15309 0.46135 0.0
C450 C 0.1324 0.14026 0.4056 0.0
H451 H 0.92208 0.0568 0.21372 0.0
H452 H 0.83338 0.98589 0.17075 0.0
H453 H 0.79769 0.01192 0.25161 0.0
H454 H 0.91186 0.0532 0.37061 0.0
H455 H 0.9254 0.09956 0.37826 0.0
H456 H 0.94085 0.07314 0.3168 0.0
H457 H 0.91027 0.12492 0.24445 0.0
H458 H 0.89929 0.14751 0.31235 0.0
H459 H 0.86457 0.13661 0.25995 0.0
H460 H 0.7722 0.04461 0.33895 0.0
H461 H 0.75829 0.08391 0.42434 0.0
H462 H 0.86384 0.13222 0.41193 0.0
C463 C 0.89476 0.04782 0.21993 0.0
C464 C 0.88027 0.01999 0.1852 0.0
C465 C 0.84487 0.00754 0.19658 0.0
C466 C 0.82441 0.02205 0.24247 0.0
C467 C 0.83976 0.04897 0.27678 0.0
C468 C 0.87396 0.06199 0.26582 0.0
C469 C 0.88448 0.09034 0.31039 0.0
C470 C 0.91763 0.07845 0.34606 0.0
C471 C 0.89009 0.12699 0.28014 0.0
C472 C 0.85118 0.09087 0.34848 0.0
C473 C 0.82556 0.06693 0.32819 0.0
C474 C 0.79213 0.06333 0.35536 0.0
C475 C 0.78452 0.08539 0.40379 0.0
C476 C 0.81033 0.11027 0.42449 0.0
C477 C 0.84413 0.11276 0.39707 0.0
H478 H 0.93427 0.93294 0.20826 0.0
H479 H -0.00115 0.83816 0.17516 0.0
H480 H 0.96951 0.80714 0.25854 0.0
H481 H 0.93626 0.9295 0.3609 0.0
H482 H 0.89037 0.94344 0.37269 0.0
H483 H 0.91387 0.95759 0.30747 0.0
H484 H 0.86423 0.93031 0.24154 0.0
H485 H 0.83982 0.91698 0.30638 0.0
H486 H 0.85122 0.88394 0.25141 0.0
H487 H 0.93511 0.78738 0.3467 0.0
H488 H 0.8947 0.77868 0.43216 0.0
H489 H 0.85239 0.88619 0.40904 0.0
C490 C 0.94079 0.90512 0.21675 0.0
C491 C 0.9677 0.88739 0.18412 0.0
C492 C 0.97773 0.85183 0.19919 0.0
C493 C 0.96133 0.83411 0.24646 0.0
C494 C 0.93514 0.85249 0.27831 0.0
C495 C 0.9246 0.88707 0.26383 0.0
C496 C 0.8966 0.90112 0.30648 0.0
C497 C 0.91011 0.93491 0.33879 0.0
C498 C 0.86084 0.9085 0.27455 0.0
C499 C 0.89352 0.86921 0.34777 0.0
C500 C 0.91598 0.84147 0.3305 0.0
C501 C 0.91756 0.80894 0.36089 0.0
C502 C 0.89498 0.80432 0.4095 0.0
C503 C 0.87161 0.83216 0.42749 0.0
C504 C 0.87094 0.86505 0.39661 0.0
H505 H 0.1127 0.00854 0.27575 0.0
H506 H 0.08434 0.91604 0.17017 0.0
H507 H 0.10093 0.87583 0.25145 0.0
H508 H 0.19197 0.96973 0.33363 0.0
H509 H 0.18795 0.99059 0.40488 0.0
H510 H 0.16894 0.01218 0.34123 0.0
H511 H 0.10642 0.0138 0.39309 0.0
H512 H 0.12578 0.99208 0.45646 0.0
H513 H 0.08729 0.97252 0.4203 0.0
H514 H 0.12021 0.84575 0.34523 0.0
H515 H 0.1504 0.82725 0.43724 0.0
H516 H 0.17574 0.93876 0.47476 0.0
C517 C 0.10953 0.9799 0.26987 0.0
C518 C 0.09546 0.96564 0.2169 0.0
C519 C 0.09298 0.92785 0.21074 0.0
C520 C 0.10273 0.90473 0.25683 0.0
C521 C 0.11582 0.91981 0.30865 0.0
C522 C 0.11997 0.95652 0.31502 0.0
C523 C 0.13821 0.96566 0.37283 0.0
C524 C 0.17388 0.98571 0.3625 0.0
C525 C 0.11293 0.9873 0.413 0.0
C526 C 0.14441 0.92823 0.39724 0.0
C527 C 0.13022 0.90228 0.36037 0.0
C528 C 0.13177 0.86581 0.3741 0.0
C529 C 0.14906 0.85557 0.4262 0.0
C530 C 0.16558 0.88148 0.46309 0.0
C531 C 0.1628 0.91833 0.44857 0.0
H532 H 0.06121 0.96861 0.80592 0.0
H533 H 0.13141 0.06158 0.79171 0.0
H534 H 0.15705 0.03691 0.70037 0.0
H535 H 0.12316 0.90487 0.76571 0.0
H536 H 0.09182 0.87717 0.72546 0.0
H537 H 0.07602 0.90586 0.78346 0.0
H538 H 0.03114 0.93695 0.70808 0.0
H539 H 0.04787 0.9063 0.6529 0.0
H540 H 0.04912 0.95415 0.64028 0.0
H541 H 0.1839 0.99665 0.62503 0.0
H542 H 0.20763 0.94495 0.56852 0.0
H543 H 0.11802 0.87963 0.62502 0.0
C544 C 0.08142 0.98417 0.7829 0.0
C545 C 0.0942 0.01712 0.80597 0.0
C546 C 0.12094 0.03645 0.77479 0.0
C547 C 0.13562 0.02267 0.72268 0.0
C548 C 0.12304 0.98969 0.70188 0.0
C549 C 0.09621 0.97089 0.73061 0.0
C550 C 0.08987 0.93451 0.7023 0.0
C551 C 0.09557 0.90379 0.74685 0.0
C552 C 0.05227 0.93285 0.67425 0.0
C553 C 0.11897 0.9347 0.65576 0.0
C554 C 0.13744 0.96708 0.65562 0.0
C555 C 0.16877 0.97179 0.62288 0.0
C556 C 0.182 0.94247 0.59075 0.0
C557 C 0.16359 0.90919 0.59048 0.0
C558 C 0.13133 0.90551 0.62237 0.0
H559 H 0.01389 0.11198 0.81256 0.0
H560 H -0.00022 0.00487 0.73984 0.0
H561 H 0.04074 0.02063 0.65793 0.0
H562 H 0.01814 0.15876 0.67109 0.0
H563 H 0.05092 0.19066 0.69755 0.0
H564 H 0.01872 0.17133 0.74762 0.0
H565 H 0.07088 0.14923 0.81445 0.0
H566 H 0.10311 0.16841 0.76442 0.0
H567 H 0.10577 0.12144 0.78352 0.0
H568 H 0.08761 0.04733 0.58769 0.0
H569 H 0.13237 0.08433 0.53291 0.0
H570 H 0.11389 0.17298 0.65233 0.0
C571 C 0.01905 0.09186 0.77918 0.0
C572 C 0.00381 0.05714 0.78284 0.0
C573 C 0.01127 0.03166 0.73807 0.0
C574 C 0.03447 0.04034 0.69137 0.0
C575 C 0.0499 0.07456 0.69012 0.0
C576 C 0.04207 0.1 0.73259 0.0
C577 C 0.06221 0.13474 0.72204 0.0
C578 C 0.03593 0.16569 0.70877 0.0
C579 C 0.08695 0.14396 0.7742 0.0
C580 C 0.08361 0.12457 0.66815 0.0
C581 C 0.07611 0.08987 0.64989 0.0
C582 C 0.09337 0.07465 0.60133 0.0
C583 C 0.11871 0.09564 0.57064 0.0
C584 C 0.12657 0.13113 0.58914 0.0
C585 C 0.10863 0.14566 0.63817 0.0
H586 H 0.90719 0.04856 0.79577 0.0
H587 H 0.825 0.96566 0.78891 0.0
H588 H 0.80697 0.98671 0.69043 0.0
H589 H 0.85615 0.11617 0.73579 0.0
H590 H 0.89192 0.13691 0.69438 0.0
H591 H 0.90225 0.11155 0.75953 0.0
H592 H 0.9457 0.07195 0.69939 0.0
H593 H 0.93509 0.0963 0.63313 0.0
H594 H 0.92959 0.04807 0.63565 0.0
H595 H 0.79211 0.02153 0.60059 0.0
H596 H 0.77893 0.07022 0.52985 0.0
H597 H 0.87181 0.12943 0.59107 0.0
C598 C 0.88601 0.03426 0.77298 0.0
C599 C 0.86792 0.00506 0.79971 0.0
C600 C 0.83962 0.98775 0.76903 0.0
C601 C 0.82927 -0.00058 0.71292 0.0
C602 C 0.84762 0.02832 0.68784 0.0
C603 C 0.87541 0.04554 0.71686 0.0
C604 C 0.88807 0.07836 0.6831 0.0
C605 C 0.88434 0.11276 0.72042 0.0
C606 C 0.92692 0.07334 0.66149 0.0
C607 C 0.86174 0.07802 0.63221 0.0
C608 C 0.83921 0.0484 0.63506 0.0
C609 C 0.81017 0.04428 0.59686 0.0
C610 C 0.80303 0.07184 0.55644 0.0
C611 C 0.82476 0.10303 0.55463 0.0
C612 C 0.85528 0.10544 0.59127 0.0
H613 H 0.93664 0.93524 0.78926 0.0
H614 H 0.02586 0.86001 0.77995 0.0
H615 H 0.0016 0.83559 0.68731 0.0
H616 H 0.87006 0.8731 0.74122 0.0
H617 H 0.84498 0.90769 0.70356 0.0
H618 H 0.873 0.91906 0.76545 0.0
H619 H 0.90561 0.96624 0.69607 0.0
H620 H 0.87778 0.95195 0.63535 0.0
H621 H 0.9261 0.95034 0.62934 0.0
H622 H 0.96471 0.81531 0.60097 0.0
H623 H 0.91576 0.79819 0.53248 0.0
H624 H 0.8503 0.88546 0.59816 0.0
C625 C 0.95133 0.91391 0.76741 0.0
C626 C 0.98338 0.89984 0.79167 0.0
C627 C 0.00145 0.87155 0.76203 0.0
C628 C 0.98795 0.85756 0.70917 0.0
C629 C 0.95625 0.872 0.68649 0.0
C630 C 0.93804 0.89937 0.71489 0.0
C631 C 0.90282 0.90781 0.68441 0.0
C632 C 0.87081 0.90156 0.72608 0.0
C633 C 0.90307 0.94638 0.65983 0.0
C634 C 0.9035 0.88023 0.63542 0.0
C635 C 0.93489 0.86024 0.63669 0.0
C636 C 0.9404 0.83128 0.59869 0.0
C637 C 0.9127 0.8219 0.5596 0.0
C638 C 0.88003 0.84131 0.55912 0.0
C639 C 0.87566 0.87115 0.59669 0.0
H640 H 0.50885 0.61449 0.77322 0.0
H641 H 0.59414 0.56481 0.67362 0.0
H642 H 0.63263 0.56358 0.76104 0.0
H643 H 0.57191 0.677 0.83425 0.0
H644 H 0.54778 0.68221 0.90245 0.0
H645 H 0.52379 0.67087 0.83626 0.0
H646 H 0.49738 0.61564 0.8889 0.0
H647 H 0.52238 0.62522 0.95492 0.0
H648 H 0.52685 0.58196 0.9197 0.0
H649 H 0.66053 0.56558 0.86175 0.0
H650 H 0.68554 0.58998 0.95418 0.0
H651 H 0.58997 0.65534 0.97683 0.0
C652 C 0.5353 0.60258 0.77 0.0
C653 C 0.54697 0.58555 0.71765 0.0
C654 C 0.58288 0.57332 0.71449 0.0
C655 C 0.60528 0.57344 0.76398 0.0
C656 C 0.59221 0.58848 0.81566 0.0
C657 C 0.55886 0.60479 0.81798 0.0
C658 C 0.5545 0.62615 0.87435 0.0
C659 C 0.54921 0.66644 0.86101 0.0
C660 C 0.52343 0.6113 0.9117 0.0
C661 C 0.59056 0.61901 0.90327 0.0
C662 C 0.61117 0.59591 0.86971 0.0
C663 C 0.64505 0.58442 0.88775 0.0
C664 C 0.65909 0.59852 0.93998 0.0
C665 C 0.64015 0.62519 0.97181 0.0
C666 C 0.60495 0.6347 0.95408 0.0
H667 H 0.43537 0.56361 0.71112 0.0
H668 H 0.33168 0.53605 0.63707 0.0
H669 H 0.30143 0.56828 0.71841 0.0
H670 H 0.41366 0.55351 0.85664 0.0
H671 H 0.43734 0.59174 0.88593 0.0
H672 H 0.45333 0.57018 0.81993 0.0
H673 H 0.44838 0.62878 0.75617 0.0
H674 H 0.43881 0.65113 0.82469 0.0
H675 H 0.40867 0.65599 0.76301 0.0
H676 H 0.28289 0.60242 0.80831 0.0
H677 H 0.27724 0.63984 0.89814 0.0
H678 H 0.39307 0.64566 0.91268 0.0
C679 C 0.40645 0.56584 0.71064 0.0
C680 C 0.38585 0.54855 0.66705 0.0
C681 C 0.34784 0.54969 0.66988 0.0
C682 C 0.3305 0.56783 0.71581 0.0
C683 C 0.35169 0.58449 0.7584 0.0
C684 C 0.38882 0.5841 0.75581 0.0
C685 C 0.40534 0.60367 0.80752 0.0
C686 C 0.42884 0.57825 0.84464 0.0
C687 C 0.42658 0.63686 0.78668 0.0
C688 C 0.37172 0.61465 0.84021 0.0
C689 C 0.34104 0.60336 0.81102 0.0
C690 C 0.30669 0.6113 0.83161 0.0
C691 C 0.30368 0.63223 0.88249 0.0
C692 C 0.33476 0.64474 0.91185 0.0
C693 C 0.36913 0.63549 0.89117 0.0
H694 H 0.48613 0.37377 0.71022 0.0
H695 H 0.39604 0.4356 0.64363 0.0
H696 H 0.36022 0.41848 0.72954 0.0
H697 H 0.43433 0.30065 0.76763 0.0
H698 H 0.46275 0.29446 0.83111 0.0
H699 H 0.48138 0.31231 0.76412 0.0
H700 H 0.50459 0.36803 0.82103 0.0
H701 H 0.48566 0.35064 0.88819 0.0
H702 H 0.47334 0.39492 0.86277 0.0
H703 H 0.33425 0.39473 0.8231 0.0
H704 H 0.31859 0.36254 0.91501 0.0
H705 H 0.4249 0.31518 0.92016 0.0
C706 C 0.45881 0.38375 0.71328 0.0
C707 C 0.44393 0.40634 0.66926 0.0
C708 C 0.40815 0.41852 0.67579 0.0
C709 C 0.38759 0.40894 0.72498 0.0
C710 C 0.40332 0.38713 0.76759 0.0
C711 C 0.43803 0.37444 0.76211 0.0
C712 C 0.44837 0.35066 0.81357 0.0
C713 C 0.45721 0.31224 0.79285 0.0
C714 C 0.47985 0.36705 0.84843 0.0
C715 C 0.41377 0.35169 0.84861 0.0
C716 C 0.38828 0.37319 0.8215 0.0
C717 C 0.35398 0.3779 0.84481 0.0
C718 C 0.34532 0.35964 0.89673 0.0
C719 C 0.37072 0.33691 0.92435 0.0
C720 C 0.40544 0.33312 0.90038 0.0
H721 H 0.62625 0.48281 0.73651 0.0
H722 H 0.55904 0.4035 0.65083 0.0
H723 H 0.56493 0.36336 0.73513 0.0
H724 H 0.68892 0.418 0.78953 0.0
H725 H 0.69815 0.44134 0.85736 0.0
H726 H 0.68433 0.46628 0.79337 0.0
H727 H 0.63166 0.49388 0.85279 0.0
H728 H 0.64508 0.46854 0.91682 0.0
H729 H 0.5999 0.46451 0.88868 0.0
H730 H 0.57822 0.33134 0.82714 0.0
H731 H 0.60915 0.30303 0.91146 0.0
H732 H 0.67391 0.39878 0.93518 0.0
C733 C 0.61256 0.45707 0.73553 0.0
C734 C 0.59062 0.44703 0.68715 0.0
C735 C 0.57433 0.4127 0.68748 0.0
C736 C 0.5777 0.38955 0.73561 0.0
C737 C 0.59846 0.4007 0.78304 0.0
C738 C 0.61657 0.43314 0.78285 0.0
C739 C 0.64078 0.43645 0.83642 0.0
C740 C 0.68039 0.44075 0.81805 0.0
C741 C 0.62862 0.4677 0.87601 0.0
C742 C 0.63405 0.4003 0.86569 0.0
C743 C 0.60855 0.38078 0.8349 0.0
C744 C 0.59826 0.34625 0.85163 0.0
C745 C 0.6158 0.33045 0.89943 0.0
C746 C 0.64373 0.34881 0.92907 0.0
C747 C 0.65224 0.38459 0.91338 0.0
H748 H 0.68828 0.47326 0.28372 0.0
H749 H 0.57231 0.48596 0.27677 0.0
H750 H 0.57065 0.45131 0.1841 0.0
H751 H 0.70382 0.47596 0.12241 0.0
H752 H 0.73889 0.44254 0.1269 0.0
H753 H 0.73136 0.47286 0.18752 0.0
H754 H 0.72372 0.41832 0.25773 0.0
H755 H 0.7311 0.38792 0.19748 0.0
H756 H 0.69066 0.38433 0.24074 0.0
H757 H 0.5807 0.40622 0.10174 0.0
H758 H 0.60268 0.35858 0.03414 0.0
H759 H 0.71172 0.37778 0.09294 0.0
C760 C 0.66255 0.46923 0.26237 0.0
C761 C 0.63043 0.4823 0.28761 0.0
C762 C 0.59729 0.47611 0.25838 0.0
C763 C 0.59605 0.4564 0.20576 0.0
C764 C 0.62813 0.44285 0.18312 0.0
C765 C 0.66081 0.44941 0.21021 0.0
C766 C 0.69118 0.43001 0.17942 0.0
C767 C 0.71789 0.45696 0.15245 0.0
C768 C 0.71026 0.40359 0.22134 0.0
C769 C 0.67036 0.41032 0.13225 0.0
C770 C 0.63404 0.41822 0.13454 0.0
C771 C 0.60918 0.4005 0.09864 0.0
C772 C 0.62182 0.37364 0.06027 0.0
C773 C 0.65884 0.36492 0.05838 0.0
C774 C 0.68332 0.38421 0.09365 0.0
H775 H 0.52256 0.55605 0.29559 0.0
H776 H 0.46063 0.65503 0.30309 0.0
H777 H 0.49141 0.67686 0.21407 0.0
H778 H 0.60408 0.59742 0.26036 0.0
H779 H 0.61892 0.56034 0.21529 0.0
H780 H 0.5871 0.55286 0.27352 0.0
H781 H 0.54383 0.52378 0.19387 0.0
H782 H 0.57654 0.53379 0.13764 0.0
H783 H 0.53112 0.55039 0.13105 0.0
H784 H 0.53486 0.69208 0.13538 0.0
H785 H 0.58993 0.70045 0.07571 0.0
H786 H 0.62438 0.5925 0.11842 0.0
C787 C 0.51481 0.58194 0.27766 0.0
C788 C 0.48879 0.6036 0.30588 0.0
C789 C 0.48013 0.63772 0.28186 0.0
C790 C 0.4974 0.65032 0.23114 0.0
C791 C 0.52341 0.62859 0.20501 0.0
C792 C 0.53216 0.59514 0.22749 0.0
C793 C 0.56417 0.57909 0.19575 0.0
C794 C 0.59543 0.57201 0.23872 0.0
C795 C 0.55329 0.54472 0.1626 0.0
C796 C 0.57304 0.60935 0.15357 0.0
C797 C 0.54866 0.63736 0.15881 0.0
C798 C 0.55354 0.67001 0.12967 0.0
C799 C 0.5847 0.67458 0.09597 0.0
C800 C 0.61042 0.64672 0.09173 0.0
C801 C 0.60414 0.61345 0.11949 0.0
H802 H 0.42326 0.55151 0.26409 0.0
H803 H 0.34018 0.47082 0.23934 0.0
H804 H 0.31968 0.50243 0.14964 0.0
H805 H 0.36748 0.62601 0.2247 0.0
H806 H 0.40569 0.64968 0.19485 0.0
H807 H 0.41178 0.61676 0.25215 0.0
H808 H 0.45836 0.58445 0.17918 0.0
H809 H 0.4483 0.6179 0.12405 0.0
H810 H 0.44243 0.57072 0.10799 0.0
H811 H 0.30471 0.54655 0.06788 0.0
H812 H 0.29446 0.601 0.00653 0.0
H813 H 0.3861 0.65271 0.08741 0.0
C814 C 0.40113 0.54007 0.23934 0.0
C815 C 0.3836 0.50848 0.25837 0.0
C816 C 0.35423 0.49488 0.22533 0.0
C817 C 0.3425 0.51255 0.17416 0.0
C818 C 0.36026 0.5439 0.15692 0.0
C819 C 0.38877 0.55761 0.18891 0.0
C820 C 0.40088 0.59363 0.16528 0.0
C821 C 0.39623 0.62329 0.21194 0.0
C822 C 0.43981 0.59159 0.14276 0.0
C823 C 0.37453 0.59845 0.11537 0.0
C824 C 0.35151 0.56932 0.11058 0.0
C825 C 0.32299 0.56917 0.07058 0.0
C826 C 0.3174 0.59997 0.03583 0.0
C827 C 0.34 0.63031 0.04201 0.0
C828 C 0.3692 0.62925 0.08129 0.0
H829 H 0.45886 0.44905 0.25492 0.0
H830 H 0.55431 0.38231 0.24165 0.0
H831 H 0.53058 0.35528 0.15058 0.0
H832 H 0.39912 0.38197 0.21875 0.0
H833 H 0.36858 0.41164 0.18063 0.0
H834 H 0.39765 0.42898 0.23695 0.0
H835 H 0.42255 0.47601 0.15887 0.0
H836 H 0.39296 0.45645 0.10468 0.0
H837 H 0.44065 0.45917 0.09094 0.0
H838 H 0.49159 0.32661 0.07518 0.0
H839 H 0.44022 0.29881 0.02269 0.0
H840 H 0.37055 0.38438 0.08172 0.0
C841 C 0.4753 0.4296 0.23183 0.0
C842 C 0.50847 0.4179 0.25533 0.0
C843 C 0.52879 0.39173 0.22451 0.0
C844 C 0.51564 0.3764 0.17243 0.0
C845 C 0.48218 0.38757 0.15155 0.0
C846 C 0.46235 0.41374 0.18015 0.0
C847 C 0.42507 0.41723 0.15387 0.0
C848 C 0.39588 0.4095 0.20025 0.0
C849 C 0.41998 0.45442 0.1254 0.0
C850 C 0.42631 0.3878 0.10799 0.0
C851 C 0.45975 0.37138 0.10657 0.0
C852 C 0.46575 0.34003 0.07429 0.0
C853 C 0.43661 0.32447 0.04447 0.0
C854 C 0.40215 0.34033 0.04703 0.0
C855 C 0.3972 0.37289 0.0775 0.0
loop_
_geom_bond_atom_site_label_1
_geom_bond_atom_site_label_2
_geom_bond_distance
_geom_bond_site_symmetry_2
_ccdc_geom_bond_type
Zn0 O2 1.933 1_556 S
Zn0 O20 1.985 . S
Zn0 O31 1.955 . S
Zn1 O2 1.911 . S
Zn1 O21 1.970 . S
Zn1 O37 1.945 . S
Zn1 O44 1.981 . S
O2 Zn0 1.933 1_554 S
O2 Zn1 1.911 . S
O2 H3 0.841 1_655 S
H3 O2 0.841 1_455 S
C4 O5 1.246 . S
C4 O33 1.276 1_545 S
O5 C4 1.246 . S
Zn6 O8 1.911 . S
Zn6 O23 1.970 . S
Zn6 O40 1.945 . S
Zn6 O47 1.981 . S
Zn7 O8 1.933 1_556 S
Zn7 O22 1.985 . S
Zn7 O29 1.955 . S
O8 Zn6 1.911 . S
O8 Zn7 1.933 1_554 S
O8 H9 0.841 1_455 S
H9 O8 0.841 1_655 S
Zn10 O11 1.933 1_556 S
Zn10 O24 1.985 . S
Zn10 O33 1.955 . S
O11 Zn10 1.933 1_554 S
O11 Zn12 1.911 . S
O11 H13 0.841 1_565 S
Zn12 O11 1.911 . S
Zn12 O25 1.970 . S
Zn12 O41 1.981 . S
Zn12 O43 1.945 . S
H13 O11 0.841 1_545 S
Zn14 O15 1.933 1_556 S
Zn14 O27 1.985 . S
Zn14 O35 1.955 . S
O15 Zn14 1.933 1_554 S
O15 H16 0.841 1_545 S
O15 Zn17 1.911 . S
H16 O15 0.841 1_565 S
Zn17 O15 1.911 . S
Zn17 O28 1.970 . S
Zn17 O38 1.981 . S
Zn17 O46 1.945 . S
C18 O19 1.246 . S
C18 O35 1.276 1_565 S
O19 C18 1.246 . S
O20 Zn0 1.985 . S
O20 C30 1.245 1_556 S
O21 Zn1 1.970 . S
O21 C30 1.263 . S
O22 Zn7 1.985 . S
O22 C34 1.245 1_556 S
O23 Zn6 1.970 . S
O23 C34 1.263 . S
O24 Zn10 1.985 . S
O24 C39 1.245 1_556 S
O25 Zn12 1.970 . S
O25 C39 1.263 . S
C26 O37 1.262 1_455 S
C26 O38 1.245 . S
O27 Zn14 1.985 . S
O27 C45 1.245 1_556 S
O28 Zn17 1.970 . S
O28 C45 1.263 . S
O29 Zn7 1.955 . S
O29 C48 1.276 1_455 S
C30 O20 1.245 1_554 S
C30 O21 1.263 . S
O31 Zn0 1.955 . S
O31 C50 1.276 1_655 S
C32 O40 1.262 1_655 S
C32 O41 1.245 . S
O33 C4 1.276 1_565 S
O33 Zn10 1.955 . S
C34 O22 1.245 1_554 S
C34 O23 1.263 . S
O35 Zn14 1.955 . S
O35 C18 1.276 1_545 S
C36 O43 1.262 1_545 S
C36 O44 1.245 . S
O37 Zn1 1.945 . S
O37 C26 1.262 1_655 S
O38 Zn17 1.981 . S
O38 C26 1.245 . S
C39 O24 1.245 1_554 S
C39 O25 1.263 . S
O40 Zn6 1.945 . S
O40 C32 1.262 1_455 S
O41 Zn12 1.981 . S
O41 C32 1.245 . S
C42 O46 1.262 1_565 S
C42 O47 1.245 . S
O43 Zn12 1.945 . S
O43 C36 1.262 1_565 S
O44 Zn1 1.981 . S
O44 C36 1.245 . S
C45 O27 1.245 1_554 S
C45 O28 1.263 . S
O46 Zn17 1.945 . S
O46 C42 1.262 1_545 S
O47 Zn6 1.981 . S
O47 C42 1.245 . S
C48 O29 1.276 1_655 S
C48 O49 1.246 . S
O49 C48 1.246 . S
C50 O31 1.276 1_455 S
C50 O51 1.246 . S
O51 C50 1.246 . S
Zn52 O54 1.933 . S
Zn52 O72 1.985 . S
Zn52 O83 1.955 . S
Zn53 O54 1.911 . S
Zn53 O73 1.970 . S
Zn53 O89 1.945 . S
Zn53 O96 1.981 . S
O54 Zn52 1.933 . S
O54 Zn53 1.911 . S
O54 H55 0.841 . S
H55 O54 0.841 . S
C56 O57 1.246 . S
C56 O85 1.276 . S
O57 C56 1.246 . S
Zn58 O60 1.911 . S
Zn58 O75 1.970 . S
Zn58 O92 1.945 . S
Zn58 O99 1.981 . S
Zn59 O60 1.933 . S
Zn59 O74 1.985 . S
Zn59 O81 1.955 . S
O60 Zn58 1.911 . S
O60 Zn59 1.933 . S
O60 H61 0.841 . S
H61 O60 0.841 . S
Zn62 O63 1.933 . S
Zn62 O76 1.985 . S
Zn62 O85 1.955 . S
O63 Zn62 1.933 . S
O63 Zn64 1.911 . S
O63 H65 0.841 . S
Zn64 O63 1.911 . S
Zn64 O77 1.970 . S
Zn64 O93 1.981 . S
Zn64 O95 1.945 . S
H65 O63 0.841 . S
Zn66 O67 1.933 . S
Zn66 O79 1.985 . S
Zn66 O87 1.955 . S
O67 Zn66 1.933 . S
O67 H68 0.841 . S
O67 Zn69 1.911 . S
H68 O67 0.841 . S
Zn69 O67 1.911 . S
Zn69 O80 1.970 . S
Zn69 O90 1.981 . S
Zn69 O98 1.945 . S
C70 O71 1.246 . S
C70 O87 1.276 . S
O71 C70 1.246 . S
O72 Zn52 1.985 . S
O72 C82 1.245 . S
O73 Zn53 1.970 . S
O73 C82 1.263 . S
O74 Zn59 1.985 . S
O74 C86 1.245 . S
O75 Zn58 1.970 . S
O75 C86 1.263 . S
O76 Zn62 1.985 . S
O76 C91 1.245 . S
O77 Zn64 1.970 . S
O77 C91 1.263 . S
C78 O89 1.262 . S
C78 O90 1.245 . S
O79 Zn66 1.985 . S
O79 C97 1.245 . S
O80 Zn69 1.970 . S
O80 C97 1.263 . S
O81 Zn59 1.955 . S
O81 C100 1.276 . S
C82 O72 1.245 . S
C82 O73 1.263 . S
O83 Zn52 1.955 . S
O83 C102 1.276 . S
C84 O92 1.262 . S
C84 O93 1.245 . S
O85 C56 1.276 . S
O85 Zn62 1.955 . S
C86 O74 1.245 . S
C86 O75 1.263 . S
O87 Zn66 1.955 . S
O87 C70 1.276 . S
C88 O95 1.262 . S
C88 O96 1.245 . S
O89 Zn53 1.945 . S
O89 C78 1.262 . S
O90 Zn69 1.981 . S
O90 C78 1.245 . S
C91 O76 1.245 . S
C91 O77 1.263 . S
O92 Zn58 1.945 . S
O92 C84 1.262 . S
O93 Zn64 1.981 . S
O93 C84 1.245 . S
C94 O98 1.262 . S
C94 O99 1.245 . S
O95 Zn64 1.945 . S
O95 C88 1.262 . S
O96 Zn53 1.981 . S
O96 C88 1.245 . S
C97 O79 1.245 . S
C97 O80 1.263 . S
O98 Zn69 1.945 . S
O98 C94 1.262 . S
O99 Zn58 1.981 . S
O99 C94 1.245 . S
C100 O81 1.276 . S
C100 O101 1.246 . S
O101 C100 1.246 . S
C102 O83 1.276 . S
C102 O103 1.246 . S
O103 C102 1.246 . S
C104 N105 1.317 . S
C104 N106 1.348 1_556 S
C104 C107 1.485 . S
N105 C104 1.317 . S
N105 N109 1.370 1_556 S
N106 C104 1.348 1_554 S
N106 C108 1.346 . S
C107 C104 1.485 . S
C107 H111 0.960 . S
C107 H112 0.961 . S
C107 H113 0.960 . S
C108 N106 1.346 . S
C108 N109 1.307 . S
C108 C110 1.486 . S
N109 N105 1.370 1_554 S
N109 C108 1.307 . S
C110 C108 1.486 . S
C110 H114 0.960 . S
C110 H115 0.960 . S
C110 H116 0.959 . S
H111 C107 0.960 . S
H112 C107 0.961 . S
H113 C107 0.960 . S
H114 C110 0.960 . S
H115 C110 0.960 . S
H116 C110 0.959 . S
C117 N118 1.317 . S
C117 N119 1.348 1_556 S
C117 C120 1.485 . S
N118 C117 1.317 . S
N118 N122 1.370 1_556 S
N119 C117 1.348 1_554 S
N119 C121 1.346 . S
C120 C117 1.485 . S
C120 H124 0.960 . S
C120 H125 0.961 . S
C120 H126 0.960 . S
C121 N119 1.346 . S
C121 N122 1.307 . S
C121 C123 1.486 . S
N122 N118 1.370 1_554 S
N122 C121 1.307 . S
C123 C121 1.486 . S
C123 H127 0.960 . S
C123 H128 0.960 . S
C123 H129 0.959 . S
H124 C120 0.960 . S
H125 C120 0.961 . S
H126 C120 0.960 . S
H127 C123 0.960 . S
H128 C123 0.960 . S
H129 C123 0.959 . S
C130 N131 1.317 . S
C130 N132 1.348 . S
C130 C133 1.485 . S
N131 C130 1.317 . S
N131 N135 1.370 1_554 S
N132 C130 1.348 . S
N132 C134 1.346 1_554 S
C133 C130 1.485 . S
C133 H137 0.960 . S
C133 H138 0.961 . S
C133 H139 0.960 . S
C134 N132 1.346 1_556 S
C134 N135 1.307 . S
C134 C136 1.486 . S
N135 N131 1.370 1_556 S
N135 C134 1.307 . S
C136 C134 1.486 . S
C136 H140 0.960 . S
C136 H141 0.960 . S
C136 H142 0.959 . S
H137 C133 0.960 . S
H138 C133 0.961 . S
H139 C133 0.960 . S
H140 C136 0.960 . S
H141 C136 0.960 . S
H142 C136 0.959 . S
C143 N144 1.317 . S
C143 N145 1.348 . S
C143 C146 1.485 . S
N144 C143 1.317 . S
N144 N148 1.370 1_554 S
N145 C143 1.348 . S
N145 C147 1.346 1_554 S
C146 C143 1.485 . S
C146 H150 0.960 . S
C146 H151 0.961 . S
C146 H152 0.960 . S
C147 N145 1.346 1_556 S
C147 N148 1.307 . S
C147 C149 1.486 . S
N148 N144 1.370 1_556 S
N148 C147 1.307 . S
C149 C147 1.486 . S
C149 H153 0.960 . S
C149 H154 0.960 . S
C149 H155 0.959 . S
H150 C146 0.960 . S
H151 C146 0.961 . S
H152 C146 0.960 . S
H153 C149 0.960 . S
H154 C149 0.960 . S
H155 C149 0.959 . S
C156 N157 1.317 . S
C156 N158 1.348 . S
C156 C159 1.485 . S
N157 C156 1.317 . S
N157 N161 1.370 . S
N158 C156 1.348 . S
N158 C160 1.346 . S
C159 C156 1.485 . S
C159 H163 0.960 . S
C159 H164 0.961 . S
C159 H165 0.960 . S
C160 N158 1.346 . S
C160 N161 1.307 . S
C160 C162 1.486 . S
N161 N157 1.370 . S
N161 C160 1.307 . S
C162 C160 1.486 . S
C162 H166 0.960 . S
C162 H167 0.960 . S
C162 H168 0.959 . S
H163 C159 0.960 . S
H164 C159 0.961 . S
H165 C159 0.960 . S
H166 C162 0.960 . S
H167 C162 0.960 . S
H168 C162 0.959 . S
C169 N170 1.317 . S
C169 N171 1.348 . S
C169 C172 1.485 . S
N170 C169 1.317 . S
N170 N174 1.370 . S
N171 C169 1.348 . S
N171 C173 1.346 . S
C172 C169 1.485 . S
C172 H176 0.960 . S
C172 H177 0.961 . S
C172 H178 0.960 . S
C173 N171 1.346 . S
C173 N174 1.307 . S
C173 C175 1.486 . S
N174 N170 1.370 . S
N174 C173 1.307 . S
C175 C173 1.486 . S
C175 H179 0.960 . S
C175 H180 0.960 . S
C175 H181 0.959 . S
H176 C172 0.960 . S
H177 C172 0.961 . S
H178 C172 0.960 . S
H179 C175 0.960 . S
H180 C175 0.960 . S
H181 C175 0.959 . S
C182 N183 1.317 . S
C182 N184 1.348 . S
C182 C185 1.485 . S
N183 C182 1.317 . S
N183 N187 1.370 . S
N184 C182 1.348 . S
N184 C186 1.346 . S
C185 C182 1.485 . S
C185 H189 0.960 . S
C185 H190 0.961 . S
C185 H191 0.960 . S
C186 N184 1.346 . S
C186 N187 1.307 . S
C186 C188 1.486 . S
N187 N183 1.370 . S
N187 C186 1.307 . S
C188 C186 1.486 . S
C188 H192 0.960 . S
C188 H193 0.960 . S
C188 H194 0.959 . S
H189 C185 0.960 . S
H190 C185 0.961 . S
H191 C185 0.960 . S
H192 C188 0.960 . S
H193 C188 0.960 . S
H194 C188 0.959 . S
C195 N196 1.317 . S
C195 N197 1.348 . S
C195 C198 1.485 . S
N196 C195 1.317 . S
N196 N200 1.370 . S
N197 C195 1.348 . S
N197 C199 1.346 . S
C198 C195 1.485 . S
C198 H202 0.960 . S
C198 H203 0.961 . S
C198 H204 0.960 . S
C199 N197 1.346 . S
C199 N200 1.307 . S
C199 C201 1.486 . S
N200 N196 1.370 . S
N200 C199 1.307 . S
C201 C199 1.486 . S
C201 H205 0.960 . S
C201 H206 0.960 . S
C201 H207 0.959 . S
H202 C198 0.960 . S
H203 C198 0.961 . S
H204 C198 0.960 . S
H205 C201 0.960 . S
H206 C201 0.960 . S
H207 C201 0.959 . S
H208 C220 0.930 . S
H209 C222 0.930 . S
H210 C223 0.930 . S
H211 C227 0.959 . S
H212 C227 0.959 . S
H213 C227 0.961 . S
H214 C228 0.960 . S
H215 C228 0.961 . S
H216 C228 0.959 . S
H217 C231 0.929 . S
H218 C232 0.931 . S
H219 C234 0.930 . S
C220 H208 0.930 . S
C220 C221 1.399 1_556 S
C220 C225 1.399 . S
C221 C220 1.399 1_554 S
C221 C222 1.376 . S
C222 H209 0.930 . S
C222 C221 1.376 . S
C222 C223 1.388 . S
C223 H210 0.930 . S
C223 C222 1.388 . S
C223 C224 1.390 . S
C224 C223 1.390 . S
C224 C225 1.394 1_554 S
C224 C230 1.465 . S
C225 C220 1.399 . S
C225 C224 1.394 1_556 S
C225 C226 1.516 . S
C226 C225 1.516 . S
C226 C227 1.502 . S
C226 C228 1.561 . S
C226 C229 1.526 . S
C227 H211 0.959 . S
C227 H212 0.959 . S
C227 H213 0.961 . S
C227 C226 1.502 . S
C228 H214 0.960 . S
C228 H215 0.961 . S
C228 H216 0.959 . S
C228 C226 1.561 . S
C229 C226 1.526 . S
C229 C230 1.396 1_556 S
C229 C234 1.390 . S
C230 C224 1.465 . S
C230 C229 1.396 1_554 S
C230 C231 1.399 . S
C231 H217 0.929 . S
C231 C230 1.399 . S
C231 C232 1.385 . S
C232 H218 0.931 . S
C232 C231 1.385 . S
C232 C233 1.389 . S
C233 C232 1.389 . S
C233 C234 1.387 1_554 S
C234 H219 0.930 . S
C234 C229 1.390 . S
C234 C233 1.387 1_556 S
H235 C247 0.930 . S
H236 C249 0.930 . S
H237 C250 0.930 . S
H238 C254 0.959 . S
H239 C254 0.959 . S
H240 C254 0.961 . S
H241 C255 0.960 . S
H242 C255 0.961 . S
H243 C255 0.959 . S
H244 C258 0.929 . S
H245 C259 0.931 . S
H246 C261 0.930 . S
C247 H235 0.930 . S
C247 C248 1.399 . S
C247 C252 1.399 . S
C248 C247 1.399 . S
C248 C249 1.376 1_554 S
C249 H236 0.930 . S
C249 C248 1.376 1_556 S
C249 C250 1.388 . S
C250 H237 0.930 . S
C250 C249 1.388 . S
C250 C251 1.390 . S
C251 C250 1.390 . S
C251 C252 1.394 1_556 S
C251 C257 1.465 . S
C252 C247 1.399 . S
C252 C251 1.394 1_554 S
C252 C253 1.516 . S
C253 C252 1.516 . S
C253 C254 1.502 . S
C253 C255 1.561 . S
C253 C256 1.526 . S
C254 H238 0.959 . S
C254 H239 0.959 . S
C254 H240 0.961 . S
C254 C253 1.502 . S
C255 H241 0.960 . S
C255 H242 0.961 . S
C255 H243 0.959 . S
C255 C253 1.561 . S
C256 C253 1.526 . S
C256 C257 1.396 1_554 S
C256 C261 1.390 . S
C257 C251 1.465 . S
C257 C256 1.396 1_556 S
C257 C258 1.399 . S
C258 H244 0.929 . S
C258 C257 1.399 . S
C258 C259 1.385 . S
C259 H245 0.931 . S
C259 C258 1.385 . S
C259 C260 1.389 1_556 S
C260 C259 1.389 1_554 S
C260 C261 1.387 . S
C261 H246 0.930 . S
C261 C256 1.390 . S
C261 C260 1.387 . S
H262 C274 0.930 . S
H263 C276 0.930 . S
H264 C277 0.930 . S
H265 C281 0.959 . S
H266 C281 0.959 . S
H267 C281 0.961 . S
H268 C282 0.960 . S
H269 C282 0.961 . S
H270 C282 0.959 . S
H271 C285 0.929 . S
H272 C286 0.931 . S
H273 C288 0.930 . S
C274 H262 0.930 . S
C274 C275 1.399 1_556 S
C274 C279 1.399 . S
C275 C274 1.399 1_554 S
C275 C276 1.376 . S
C276 H263 0.930 . S
C276 C275 1.376 . S
C276 C277 1.388 . S
C277 H264 0.930 . S
C277 C276 1.388 . S
C277 C278 1.390 . S
C278 C277 1.390 . S
C278 C279 1.394 1_554 S
C278 C284 1.465 . S
C279 C274 1.399 . S
C279 C278 1.394 1_556 S
C279 C280 1.516 . S
C280 C279 1.516 . S
C280 C281 1.502 . S
C280 C282 1.561 . S
C280 C283 1.526 . S
C281 H265 0.959 . S
C281 H266 0.959 . S
C281 H267 0.961 . S
C281 C280 1.502 . S
C282 H268 0.960 . S
C282 H269 0.961 . S
C282 H270 0.959 . S
C282 C280 1.561 . S
C283 C280 1.526 . S
C283 C284 1.396 1_556 S
C283 C288 1.390 . S
C284 C278 1.465 . S
C284 C283 1.396 1_554 S
C284 C285 1.399 . S
C285 H271 0.929 . S
C285 C284 1.399 . S
C285 C286 1.385 . S
C286 H272 0.931 . S
C286 C285 1.385 . S
C286 C287 1.389 . S
C287 C286 1.389 . S
C287 C288 1.387 1_554 S
C288 H273 0.930 . S
C288 C283 1.390 . S
C288 C287 1.387 1_556 S
H289 C301 0.930 . S
H290 C303 0.930 . S
H291 C304 0.930 . S
H292 C308 0.959 1_554 S
H293 C308 0.959 . S
H294 C308 0.961 . S
H295 C309 0.960 . S
H296 C309 0.961 . S
H297 C309 0.959 . S
H298 C312 0.929 . S
H299 C313 0.931 . S
H300 C315 0.930 . S
C301 H289 0.930 . S
C301 C302 1.399 1_556 S
C301 C306 1.399 . S
C302 C301 1.399 1_554 S
C302 C303 1.376 . S
C303 H290 0.930 . S
C303 C302 1.376 . S
C303 C304 1.388 . S
C304 H291 0.930 . S
C304 C303 1.388 . S
C304 C305 1.390 . S
C305 C304 1.390 . S
C305 C306 1.394 1_554 S
C305 C311 1.465 . S
C306 C301 1.399 . S
C306 C305 1.394 1_556 S
C306 C307 1.516 . S
C307 C306 1.516 . S
C307 C308 1.502 . S
C307 C309 1.561 . S
C307 C310 1.526 . S
C308 H292 0.959 1_556 S
C308 H293 0.959 . S
C308 H294 0.961 . S
C308 C307 1.502 . S
C309 H295 0.960 . S
C309 H296 0.961 . S
C309 H297 0.959 . S
C309 C307 1.561 . S
C310 C307 1.526 . S
C310 C311 1.396 1_556 S
C310 C315 1.390 . S
C311 C305 1.465 . S
C311 C310 1.396 1_554 S
C311 C312 1.399 . S
C312 H298 0.929 . S
C312 C311 1.399 . S
C312 C313 1.385 . S
C313 H299 0.931 . S
C313 C312 1.385 . S
C313 C314 1.389 . S
C314 C313 1.389 . S
C314 C315 1.387 1_554 S
C315 H300 0.930 . S
C315 C310 1.390 . S
C315 C314 1.387 1_556 S
H316 C328 0.930 . S
H317 C330 0.930 . S
H318 C331 0.930 . S
H319 C335 0.959 . S
H320 C335 0.959 . S
H321 C335 0.961 . S
H322 C336 0.960 . S
H323 C336 0.961 . S
H324 C336 0.959 . S
H325 C339 0.929 . S
H326 C340 0.931 . S
H327 C342 0.930 . S
C328 H316 0.930 . S
C328 C329 1.399 . S
C328 C333 1.399 . S
C329 C328 1.399 . S
C329 C330 1.376 . S
C330 H317 0.930 . S
C330 C329 1.376 . S
C330 C331 1.388 . S
C331 H318 0.930 . S
C331 C330 1.388 . S
C331 C332 1.390 . S
C332 C331 1.390 . S
C332 C333 1.394 . S
C332 C338 1.465 . S
C333 C328 1.399 . S
C333 C332 1.394 . S
C333 C334 1.516 . S
C334 C333 1.516 . S
C334 C335 1.502 . S
C334 C336 1.561 . S
C334 C337 1.526 . S
C335 H319 0.959 . S
C335 H320 0.959 . S
C335 H321 0.961 . S
C335 C334 1.502 . S
C336 H322 0.960 . S
C336 H323 0.961 . S
C336 H324 0.959 . S
C336 C334 1.561 . S
C337 C334 1.526 . S
C337 C338 1.396 . S
C337 C342 1.390 . S
C338 C332 1.465 . S
C338 C337 1.396 . S
C338 C339 1.399 . S
C339 H325 0.929 . S
C339 C338 1.399 . S
C339 C340 1.385 . S
C340 H326 0.931 . S
C340 C339 1.385 . S
C340 C341 1.389 . S
C341 C340 1.389 . S
C341 C342 1.387 . S
C342 H327 0.930 . S
C342 C337 1.390 . S
C342 C341 1.387 . S
H343 C355 0.930 . S
H344 C357 0.930 . S
H345 C358 0.930 . S
H346 C362 0.959 . S
H347 C362 0.959 . S
H348 C362 0.961 . S
H349 C363 0.960 . S
H350 C363 0.961 . S
H351 C363 0.959 . S
H352 C366 0.929 . S
H353 C367 0.931 . S
H354 C369 0.930 . S
C355 H343 0.930 . S
C355 C356 1.399 . S
C355 C360 1.399 . S
C356 C355 1.399 . S
C356 C357 1.376 . S
C357 H344 0.930 . S
C357 C356 1.376 . S
C357 C358 1.388 . S
C358 H345 0.930 . S
C358 C357 1.388 . S
C358 C359 1.390 . S
C359 C358 1.390 . S
C359 C360 1.394 . S
C359 C365 1.465 . S
C360 C355 1.399 . S
C360 C359 1.394 . S
C360 C361 1.516 . S
C361 C360 1.516 . S
C361 C362 1.502 . S
C361 C363 1.561 . S
C361 C364 1.526 . S
C362 H346 0.959 . S
C362 H347 0.959 . S
C362 H348 0.961 . S
C362 C361 1.502 . S
C363 H349 0.960 . S
C363 H350 0.961 . S
C363 H351 0.959 . S
C363 C361 1.561 . S
C364 C361 1.526 . S
C364 C365 1.396 . S
C364 C369 1.390 . S
C365 C359 1.465 . S
C365 C364 1.396 . S
C365 C366 1.399 . S
C366 H352 0.929 . S
C366 C365 1.399 . S
C366 C367 1.385 . S
C367 H353 0.931 . S
C367 C366 1.385 . S
C367 C368 1.389 . S
C368 C367 1.389 . S
C368 C369 1.387 . S
C369 H354 0.930 . S
C369 C364 1.390 . S
C369 C368 1.387 . S
H370 C382 0.930 . S
H371 C384 0.930 . S
H372 C385 0.930 . S
H373 C389 0.959 . S
H374 C389 0.959 . S
H375 C389 0.961 . S
H376 C390 0.960 . S
H377 C390 0.961 . S
H378 C390 0.959 . S
H379 C393 0.929 . S
H380 C394 0.931 . S
H381 C396 0.930 . S
C382 H370 0.930 . S
C382 C383 1.399 . S
C382 C387 1.399 . S
C383 C382 1.399 . S
C383 C384 1.376 . S
C384 H371 0.930 . S
C384 C383 1.376 . S
C384 C385 1.388 . S
C385 H372 0.930 . S
C385 C384 1.388 . S
C385 C386 1.390 . S
C386 C385 1.390 . S
C386 C387 1.394 . S
C386 C392 1.465 . S
C387 C382 1.399 . S
C387 C386 1.394 . S
C387 C388 1.516 . S
C388 C387 1.516 . S
C388 C389 1.502 . S
C388 C390 1.561 . S
C388 C391 1.526 . S
C389 H373 0.959 . S
C389 H374 0.959 . S
C389 H375 0.961 . S
C389 C388 1.502 . S
C390 H376 0.960 . S
C390 H377 0.961 . S
C390 H378 0.959 . S
C390 C388 1.561 . S
C391 C388 1.526 . S
C391 C392 1.396 . S
C391 C396 1.390 . S
C392 C386 1.465 . S
C392 C391 1.396 . S
C392 C393 1.399 . S
C393 H379 0.929 . S
C393 C392 1.399 . S
C393 C394 1.385 . S
C394 H380 0.931 . S
C394 C393 1.385 . S
C394 C395 1.389 . S
C395 C394 1.389 . S
C395 C396 1.387 . S
C396 H381 0.930 . S
C396 C391 1.390 . S
C396 C395 1.387 . S
H397 C409 0.930 . S
H398 C411 0.930 . S
H399 C412 0.930 . S
H400 C416 0.959 . S
H401 C416 0.959 . S
H402 C416 0.961 . S
H403 C417 0.960 . S
H404 C417 0.961 . S
H405 C417 0.959 . S
H406 C420 0.929 . S
H407 C421 0.931 . S
H408 C423 0.930 . S
C409 H397 0.930 . S
C409 C410 1.399 . S
C409 C414 1.399 . S
C410 C409 1.399 . S
C410 C411 1.376 . S
C411 H398 0.930 . S
C411 C410 1.376 . S
C411 C412 1.388 . S
C412 H399 0.930 . S
C412 C411 1.388 . S
C412 C413 1.390 . S
C413 C412 1.390 . S
C413 C414 1.394 . S
C413 C419 1.465 . S
C414 C409 1.399 . S
C414 C413 1.394 . S
C414 C415 1.516 . S
C415 C414 1.516 . S
C415 C416 1.502 . S
C415 C417 1.561 . S
C415 C418 1.526 . S
C416 H400 0.959 . S
C416 H401 0.959 . S
C416 H402 0.961 . S
C416 C415 1.502 . S
C417 H403 0.960 . S
C417 H404 0.961 . S
C417 H405 0.959 . S
C417 C415 1.561 . S
C418 C415 1.526 . S
C418 C419 1.396 . S
C418 C423 1.390 . S
C419 C413 1.465 . S
C419 C418 1.396 . S
C419 C420 1.399 . S
C420 H406 0.929 . S
C420 C419 1.399 . S
C420 C421 1.385 . S
C421 H407 0.931 . S
C421 C420 1.385 . S
C421 C422 1.389 . S
C422 C421 1.389 . S
C422 C423 1.387 . S
C423 H408 0.930 . S
C423 C418 1.390 . S
C423 C422 1.387 . S
H424 C436 0.930 . S
H425 C438 0.930 . S
H426 C439 0.930 . S
H427 C443 0.959 . S
H428 C443 0.959 . S
H429 C443 0.961 . S
H430 C444 0.960 . S
H431 C444 0.961 . S
H432 C444 0.959 . S
H433 C447 0.929 . S
H434 C448 0.931 . S
H435 C450 0.930 . S
C436 H424 0.930 . S
C436 C437 1.399 . S
C436 C441 1.399 . S
C437 C436 1.399 . S
C437 C438 1.376 . S
C438 H425 0.930 . S
C438 C437 1.376 . S
C438 C439 1.388 . S
C439 H426 0.930 . S
C439 C438 1.388 . S
C439 C440 1.390 . S
C440 C439 1.390 . S
C440 C441 1.394 . S
C440 C446 1.465 . S
C441 C436 1.399 . S
C441 C440 1.394 . S
C441 C442 1.516 . S
C442 C441 1.516 . S
C442 C443 1.502 . S
C442 C444 1.561 . S
C442 C445 1.526 . S
C443 H427 0.959 . S
C443 H428 0.959 . S
C443 H429 0.961 . S
C443 C442 1.502 . S
C444 H430 0.960 . S
C444 H431 0.961 . S
C444 H432 0.959 . S
C444 C442 1.561 . S
C445 C442 1.526 . S
C445 C446 1.396 . S
C445 C450 1.390 . S
C446 C440 1.465 . S
C446 C445 1.396 . S
C446 C447 1.399 . S
C447 H433 0.929 . S
C447 C446 1.399 . S
C447 C448 1.385 . S
C448 H434 0.931 . S
C448 C447 1.385 . S
C448 C449 1.389 . S
C449 C448 1.389 . S
C449 C450 1.387 . S
C450 H435 0.930 . S
C450 C445 1.390 . S
C450 C449 1.387 . S
H451 C463 0.930 . S
H452 C465 0.930 1_565 S
H453 C466 0.930 . S
H454 C470 0.959 . S
H455 C470 0.959 . S
H456 C470 0.961 . S
H457 C471 0.960 . S
H458 C471 0.961 . S
H459 C471 0.959 . S
H460 C474 0.929 . S
H461 C475 0.931 . S
H462 C477 0.930 . S
C463 H451 0.930 . S
C463 C464 1.399 . S
C463 C468 1.399 . S
C464 C463 1.399 . S
C464 C465 1.376 . S
C465 H452 0.930 1_545 S
C465 C464 1.376 . S
C465 C466 1.388 . S
C466 H453 0.930 . S
C466 C465 1.388 . S
C466 C467 1.390 . S
C467 C466 1.390 . S
C467 C468 1.394 . S
C467 C473 1.465 . S
C468 C463 1.399 . S
C468 C467 1.394 . S
C468 C469 1.516 . S
C469 C468 1.516 . S
C469 C470 1.502 . S
C469 C471 1.561 . S
C469 C472 1.526 . S
C470 H454 0.959 . S
C470 H455 0.959 . S
C470 H456 0.961 . S
C470 C469 1.502 . S
C471 H457 0.960 . S
C471 H458 0.961 . S
C471 H459 0.959 . S
C471 C469 1.561 . S
C472 C469 1.526 . S
C472 C473 1.396 . S
C472 C477 1.390 . S
C473 C467 1.465 . S
C473 C472 1.396 . S
C473 C474 1.399 . S
C474 H460 0.929 . S
C474 C473 1.399 . S
C474 C475 1.385 . S
C475 H461 0.931 . S
C475 C474 1.385 . S
C475 C476 1.389 . S
C476 C475 1.389 . S
C476 C477 1.387 . S
C477 H462 0.930 . S
C477 C472 1.390 . S
C477 C476 1.387 . S
H478 C490 0.930 . S
H479 C492 0.919 1_455 S
H480 C493 0.930 . S
H481 C497 0.959 . S
H482 C497 0.959 . S
H483 C497 0.961 . S
H484 C498 0.960 . S
H485 C498 0.961 . S
H486 C498 0.959 . S
H487 C501 0.929 . S
H488 C502 0.931 . S
H489 C504 0.930 . S
C490 H478 0.930 . S
C490 C491 1.399 . S
C490 C495 1.399 . S
C491 C490 1.399 . S
C491 C492 1.376 . S
C492 H479 0.919 1_655 S
C492 C491 1.376 . S
C492 C493 1.388 . S
C493 H480 0.930 . S
C493 C492 1.388 . S
C493 C494 1.390 . S
C494 C493 1.390 . S
C494 C495 1.394 . S
C494 C500 1.465 . S
C495 C490 1.399 . S
C495 C494 1.394 . S
C495 C496 1.516 . S
C496 C495 1.516 . S
C496 C497 1.502 . S
C496 C498 1.561 . S
C496 C499 1.526 . S
C497 H481 0.959 . S
C497 H482 0.959 . S
C497 H483 0.961 . S
C497 C496 1.502 . S
C498 H484 0.960 . S
C498 H485 0.961 . S
C498 H486 0.959 . S
C498 C496 1.561 . S
C499 C496 1.526 . S
C499 C500 1.396 . S
C499 C504 1.390 . S
C500 C494 1.465 . S
C500 C499 1.396 . S
C500 C501 1.399 . S
C501 H487 0.929 . S
C501 C500 1.399 . S
C501 C502 1.385 . S
C502 H488 0.931 . S
C502 C501 1.385 . S
C502 C503 1.389 . S
C503 C502 1.389 . S
C503 C504 1.387 . S
C504 H489 0.930 . S
C504 C499 1.390 . S
C504 C503 1.387 . S
H505 C517 0.930 . S
H506 C519 0.930 . S
H507 C520 0.930 . S
H508 C524 0.962 . S
H509 C524 0.965 . S
H510 C524 0.979 . S
H511 C525 0.960 . S
H512 C525 0.961 . S
H513 C525 0.959 . S
H514 C528 0.929 . S
H515 C529 0.931 . S
H516 C531 0.930 . S
C517 H505 0.930 . S
C517 C518 1.399 . S
C517 C522 1.399 . S
C518 C517 1.399 . S
C518 C519 1.376 . S
C519 H506 0.930 . S
C519 C518 1.376 . S
C519 C520 1.388 . S
C520 H507 0.930 . S
C520 C519 1.388 . S
C520 C521 1.390 . S
C521 C520 1.390 . S
C521 C522 1.394 . S
C521 C527 1.465 . S
C522 C517 1.399 . S
C522 C521 1.394 . S
C522 C523 1.516 . S
C523 C522 1.516 . S
C523 C524 1.475 1_565 S
C523 C525 1.561 . S
C523 C526 1.526 . S
C524 H508 0.962 . S
C524 H509 0.965 . S
C524 H510 0.979 . S
C524 C523 1.475 1_545 S
C525 H511 0.960 . S
C525 H512 0.961 . S
C525 H513 0.959 . S
C525 C523 1.561 . S
C526 C523 1.526 . S
C526 C527 1.396 . S
C526 C531 1.390 . S
C527 C521 1.465 . S
C527 C526 1.396 . S
C527 C528 1.399 . S
C528 H514 0.929 . S
C528 C527 1.399 . S
C528 C529 1.385 . S
C529 H515 0.931 . S
C529 C528 1.385 . S
C529 C530 1.389 . S
C530 C529 1.389 . S
C530 C531 1.387 . S
C531 H516 0.930 . S
C531 C526 1.390 . S
C531 C530 1.387 . S
H532 C544 0.930 . S
H533 C546 0.930 1_545 S
H534 C547 0.930 . S
H535 C551 0.959 . S
H536 C551 0.959 . S
H537 C551 0.961 . S
H538 C552 0.960 . S
H539 C552 0.961 . S
H540 C552 0.959 . S
H541 C555 0.929 . S
H542 C556 0.931 . S
H543 C558 0.930 . S
C544 H532 0.930 . S
C544 C545 1.399 . S
C544 C549 1.399 . S
C545 C544 1.399 . S
C545 C546 1.376 . S
C546 H533 0.930 1_565 S
C546 C545 1.376 . S
C546 C547 1.388 . S
C547 H534 0.930 . S
C547 C546 1.388 . S
C547 C548 1.390 . S
C548 C547 1.390 . S
C548 C549 1.394 . S
C548 C554 1.465 . S
C549 C544 1.399 . S
C549 C548 1.394 . S
C549 C550 1.516 . S
C550 C549 1.516 . S
C550 C551 1.502 . S
C550 C552 1.561 . S
C550 C553 1.526 . S
C551 H535 0.959 . S
C551 H536 0.959 . S
C551 H537 0.961 . S
C551 C550 1.502 . S
C552 H538 0.960 . S
C552 H539 0.961 . S
C552 H540 0.959 . S
C552 C550 1.561 . S
C553 C550 1.526 . S
C553 C554 1.396 . S
C553 C558 1.390 . S
C554 C548 1.465 . S
C554 C553 1.396 . S
C554 C555 1.399 . S
C555 H541 0.929 . S
C555 C554 1.399 . S
C555 C556 1.385 . S
C556 H542 0.931 . S
C556 C555 1.385 . S
C556 C557 1.389 . S
C557 C556 1.389 . S
C557 C558 1.387 . S
C558 H543 0.930 . S
C558 C553 1.390 . S
C558 C557 1.387 . S
H559 C571 0.930 . S
H560 C573 0.930 . S
H561 C574 0.930 . S
H562 C578 0.959 . S
H563 C578 0.959 . S
H564 C578 0.961 . S
H565 C579 0.960 . S
H566 C579 0.961 . S
H567 C579 0.959 . S
H568 C582 0.929 . S
H569 C583 0.931 . S
H570 C585 0.930 . S
C571 H559 0.930 . S
C571 C572 1.399 . S
C571 C576 1.399 . S
C572 C571 1.399 . S
C572 C573 1.376 . S
C573 H560 0.930 . S
C573 C572 1.376 . S
C573 C574 1.388 . S
C574 H561 0.930 . S
C574 C573 1.388 . S
C574 C575 1.390 . S
C575 C574 1.390 . S
C575 C576 1.394 . S
C575 C581 1.465 . S
C576 C571 1.399 . S
C576 C575 1.394 . S
C576 C577 1.516 . S
C577 C576 1.516 . S
C577 C578 1.502 . S
C577 C579 1.561 . S
C577 C580 1.526 . S
C578 H562 0.959 . S
C578 H563 0.959 . S
C578 H564 0.961 . S
C578 C577 1.502 . S
C579 H565 0.960 . S
C579 H566 0.961 . S
C579 H567 0.959 . S
C579 C577 1.561 . S
C580 C577 1.526 . S
C580 C581 1.396 . S
C580 C585 1.390 . S
C581 C575 1.465 . S
C581 C580 1.396 . S
C581 C582 1.399 . S
C582 H568 0.929 . S
C582 C581 1.399 . S
C582 C583 1.385 . S
C583 H569 0.931 . S
C583 C582 1.385 . S
C583 C584 1.389 . S
C584 C583 1.389 . S
C584 C585 1.387 . S
C585 H570 0.930 . S
C585 C580 1.390 . S
C585 C584 1.387 . S
H586 C598 0.930 . S
H587 C600 0.930 1_565 S
H588 C601 0.930 1_565 S
H589 C605 0.959 . S
H590 C605 0.959 . S
H591 C605 0.961 . S
H592 C606 0.960 . S
H593 C606 0.961 . S
H594 C606 0.959 . S
H595 C609 0.929 . S
H596 C610 0.931 . S
H597 C612 0.930 . S
C598 H586 0.930 . S
C598 C599 1.399 . S
C598 C603 1.399 . S
C599 C598 1.399 . S
C599 C600 1.376 . S
C600 H587 0.930 1_545 S
C600 C599 1.376 . S
C600 C601 1.388 . S
C601 H588 0.930 1_545 S
C601 C600 1.388 . S
C601 C602 1.390 . S
C602 C601 1.390 . S
C602 C603 1.394 . S
C602 C608 1.465 . S
C603 C598 1.399 . S
C603 C602 1.394 . S
C603 C604 1.516 . S
C604 C603 1.516 . S
C604 C605 1.502 . S
C604 C606 1.561 . S
C604 C607 1.526 . S
C605 H589 0.959 . S
C605 H590 0.959 . S
C605 H591 0.961 . S
C605 C604 1.502 . S
C606 H592 0.960 . S
C606 H593 0.961 . S
C606 H594 0.959 . S
C606 C604 1.561 . S
C607 C604 1.526 . S
C607 C608 1.396 . S
C607 C612 1.390 . S
C608 C602 1.465 . S
C608 C607 1.396 . S
C608 C609 1.399 . S
C609 H595 0.929 . S
C609 C608 1.399 . S
C609 C610 1.385 . S
C610 H596 0.931 . S
C610 C609 1.385 . S
C610 C611 1.389 . S
C611 C610 1.389 . S
C611 C612 1.387 . S
C612 H597 0.930 . S
C612 C607 1.390 . S
C612 C611 1.387 . S
H613 C625 0.930 . S
H614 C627 0.951 . S
H615 C628 0.930 . S
H616 C632 0.959 . S
H617 C632 0.959 . S
H618 C632 0.961 . S
H619 C633 0.960 . S
H620 C633 0.961 . S
H621 C633 0.959 . S
H622 C636 0.929 . S
H623 C637 0.931 . S
H624 C639 0.930 . S
C625 H613 0.930 . S
C625 C626 1.399 . S
C625 C630 1.399 . S
C626 C625 1.399 . S
C626 C627 1.376 . S
C627 H614 0.951 . S
C627 C626 1.376 . S
C627 C628 1.388 . S
C628 H615 0.930 . S
C628 C627 1.388 . S
C628 C629 1.390 . S
C629 C628 1.390 . S
C629 C630 1.394 . S
C629 C635 1.465 . S
C630 C625 1.399 . S
C630 C629 1.394 . S
C630 C631 1.516 . S
C631 C630 1.516 . S
C631 C632 1.502 . S
C631 C633 1.561 . S
C631 C634 1.526 . S
C632 H616 0.959 . S
C632 H617 0.959 . S
C632 H618 0.961 . S
C632 C631 1.502 . S
C633 H619 0.960 . S
C633 H620 0.961 . S
C633 H621 0.959 . S
C633 C631 1.561 . S
C634 C631 1.526 . S
C634 C635 1.396 . S
C634 C639 1.390 . S
C635 C629 1.465 . S
C635 C634 1.396 . S
C635 C636 1.399 . S
C636 H622 0.929 . S
C636 C635 1.399 . S
C636 C637 1.385 . S
C637 H623 0.931 . S
C637 C636 1.385 . S
C637 C638 1.389 . S
C638 C637 1.389 . S
C638 C639 1.387 . S
C639 H624 0.930 . S
C639 C634 1.390 . S
C639 C638 1.387 . S
H640 C652 0.930 . S
H641 C654 0.930 . S
H642 C655 0.930 . S
H643 C659 0.959 . S
H644 C659 0.959 . S
H645 C659 0.961 . S
H646 C660 0.960 . S
H647 C660 0.961 . S
H648 C660 0.959 . S
H649 C663 0.929 . S
H650 C664 0.931 . S
H651 C666 0.930 . S
C652 H640 0.930 . S
C652 C653 1.399 . S
C652 C657 1.399 . S
C653 C652 1.399 . S
C653 C654 1.376 . S
C654 H641 0.930 . S
C654 C653 1.376 . S
C654 C655 1.388 . S
C655 H642 0.930 . S
C655 C654 1.388 . S
C655 C656 1.390 . S
C656 C655 1.390 . S
C656 C657 1.394 . S
C656 C662 1.465 . S
C657 C652 1.399 . S
C657 C656 1.394 . S
C657 C658 1.516 . S
C658 C657 1.516 . S
C658 C659 1.502 . S
C658 C660 1.561 . S
C658 C661 1.526 . S
C659 H643 0.959 . S
C659 H644 0.959 . S
C659 H645 0.961 . S
C659 C658 1.502 . S
C660 H646 0.960 . S
C660 H647 0.961 . S
C660 H648 0.959 . S
C660 C658 1.561 . S
C661 C658 1.526 . S
C661 C662 1.396 . S
C661 C666 1.390 . S
C662 C656 1.465 . S
C662 C661 1.396 . S
C662 C663 1.399 . S
C663 H649 0.929 . S
C663 C662 1.399 . S
C663 C664 1.385 . S
C664 H650 0.931 . S
C664 C663 1.385 . S
C664 C665 1.389 . S
C665 C664 1.389 . S
C665 C666 1.387 . S
C666 H651 0.930 . S
C666 C661 1.390 . S
C666 C665 1.387 . S
H667 C679 0.930 . S
H668 C681 0.930 . S
H669 C682 0.930 . S
H670 C686 0.959 . S
H671 C686 0.959 . S
H672 C686 0.961 . S
H673 C687 0.960 . S
H674 C687 0.961 . S
H675 C687 0.959 . S
H676 C690 0.929 . S
H677 C691 0.931 . S
H678 C693 0.930 . S
C679 H667 0.930 . S
C679 C680 1.399 . S
C679 C684 1.399 . S
C680 C679 1.399 . S
C680 C681 1.376 . S
C681 H668 0.930 . S
C681 C680 1.376 . S
C681 C682 1.388 . S
C682 H669 0.930 . S
C682 C681 1.388 . S
C682 C683 1.390 . S
C683 C682 1.390 . S
C683 C684 1.394 . S
C683 C689 1.465 . S
C684 C679 1.399 . S
C684 C683 1.394 . S
C684 C685 1.516 . S
C685 C684 1.516 . S
C685 C686 1.502 . S
C685 C687 1.561 . S
C685 C688 1.526 . S
C686 H670 0.959 . S
C686 H671 0.959 . S
C686 H672 0.961 . S
C686 C685 1.502 . S
C687 H673 0.960 . S
C687 H674 0.961 . S
C687 H675 0.959 . S
C687 C685 1.561 . S
C688 C685 1.526 . S
C688 C689 1.396 . S
C688 C693 1.390 . S
C689 C683 1.465 . S
C689 C688 1.396 . S
C689 C690 1.399 . S
C690 H676 0.929 . S
C690 C689 1.399 . S
C690 C691 1.385 . S
C691 H677 0.931 . S
C691 C690 1.385 . S
C691 C692 1.389 . S
C692 C691 1.389 . S
C692 C693 1.387 . S
C693 H678 0.930 . S
C693 C688 1.390 . S
C693 C692 1.387 . S
H694 C706 0.930 . S
H695 C708 0.930 . S
H696 C709 0.930 . S
H697 C713 0.959 . S
H698 C713 0.959 . S
H699 C713 0.961 . S
H700 C714 0.960 . S
H701 C714 0.961 . S
H702 C714 0.959 . S
H703 C717 0.929 . S
H704 C718 0.931 . S
H705 C720 0.930 . S
C706 H694 0.930 . S
C706 C707 1.399 . S
C706 C711 1.399 . S
C707 C706 1.399 . S
C707 C708 1.376 . S
C708 H695 0.930 . S
C708 C707 1.376 . S
C708 C709 1.388 . S
C709 H696 0.930 . S
C709 C708 1.388 . S
C709 C710 1.390 . S
C710 C709 1.390 . S
C710 C711 1.394 . S
C710 C716 1.465 . S
C711 C706 1.399 . S
C711 C710 1.394 . S
C711 C712 1.516 . S
C712 C711 1.516 . S
C712 C713 1.502 . S
C712 C714 1.561 . S
C712 C715 1.526 . S
C713 H697 0.959 . S
C713 H698 0.959 . S
C713 H699 0.961 . S
C713 C712 1.502 . S
C714 H700 0.960 . S
C714 H701 0.961 . S
C714 H702 0.959 . S
C714 C712 1.561 . S
C715 C712 1.526 . S
C715 C716 1.396 . S
C715 C720 1.390 . S
C716 C710 1.465 . S
C716 C715 1.396 . S
C716 C717 1.399 . S
C717 H703 0.929 . S
C717 C716 1.399 . S
C717 C718 1.385 . S
C718 H704 0.931 . S
C718 C717 1.385 . S
C718 C719 1.389 . S
C719 C718 1.389 . S
C719 C720 1.387 . S
C720 H705 0.930 . S
C720 C715 1.390 . S
C720 C719 1.387 . S
H721 C733 0.930 . S
H722 C735 0.930 . S
H723 C736 0.930 . S
H724 C740 0.959 . S
H725 C740 0.959 . S
H726 C740 0.961 . S
H727 C741 0.960 . S
H728 C741 0.961 . S
H729 C741 0.959 . S
H730 C744 0.929 . S
H731 C745 0.931 . S
H732 C747 0.930 . S
C733 H721 0.930 . S
C733 C734 1.399 . S
C733 C738 1.399 . S
C734 C733 1.399 . S
C734 C735 1.376 . S
C735 H722 0.930 . S
C735 C734 1.376 . S
C735 C736 1.388 . S
C736 H723 0.930 . S
C736 C735 1.388 . S
C736 C737 1.390 . S
C737 C736 1.390 . S
C737 C738 1.394 . S
C737 C743 1.465 . S
C738 C733 1.399 . S
C738 C737 1.394 . S
C738 C739 1.516 . S
C739 C738 1.516 . S
C739 C740 1.502 . S
C739 C741 1.561 . S
C739 C742 1.526 . S
C740 H724 0.959 . S
C740 H725 0.959 . S
C740 H726 0.961 . S
C740 C739 1.502 . S
C741 H727 0.960 . S
C741 H728 0.961 . S
C741 H729 0.959 . S
C741 C739 1.561 . S
C742 C739 1.526 . S
C742 C743 1.396 . S
C742 C747 1.390 . S
C743 C737 1.465 . S
C743 C742 1.396 . S
C743 C744 1.399 . S
C744 H730 0.929 . S
C744 C743 1.399 . S
C744 C745 1.385 . S
C745 H731 0.931 . S
C745 C744 1.385 . S
C745 C746 1.389 . S
C746 C745 1.389 . S
C746 C747 1.387 . S
C747 H732 0.930 . S
C747 C742 1.390 . S
C747 C746 1.387 . S
H748 C760 0.930 . S
H749 C762 0.930 . S
H750 C763 0.930 . S
H751 C767 0.959 . S
H752 C767 0.959 . S
H753 C767 0.961 . S
H754 C768 0.960 . S
H755 C768 0.961 . S
H756 C768 0.959 . S
H757 C771 0.929 . S
H758 C772 0.931 . S
H759 C774 0.930 . S
C760 H748 0.930 . S
C760 C761 1.399 . S
C760 C765 1.399 . S
C761 C760 1.399 . S
C761 C762 1.376 . S
C762 H749 0.930 . S
C762 C761 1.376 . S
C762 C763 1.388 . S
C763 H750 0.930 . S
C763 C762 1.388 . S
C763 C764 1.390 . S
C764 C763 1.390 . S
C764 C765 1.394 . S
C764 C770 1.465 . S
C765 C760 1.399 . S
C765 C764 1.394 . S
C765 C766 1.516 . S
C766 C765 1.516 . S
C766 C767 1.502 . S
C766 C768 1.561 . S
C766 C769 1.526 . S
C767 H751 0.959 . S
C767 H752 0.959 . S
C767 H753 0.961 . S
C767 C766 1.502 . S
C768 H754 0.960 . S
C768 H755 0.961 . S
C768 H756 0.959 . S
C768 C766 1.561 . S
C769 C766 1.526 . S
C769 C770 1.396 . S
C769 C774 1.390 . S
C770 C764 1.465 . S
C770 C769 1.396 . S
C770 C771 1.399 . S
C771 H757 0.929 . S
C771 C770 1.399 . S
C771 C772 1.385 . S
C772 H758 0.931 . S
C772 C771 1.385 . S
C772 C773 1.389 . S
C773 C772 1.389 . S
C773 C774 1.387 . S
C774 H759 0.930 . S
C774 C769 1.390 . S
C774 C773 1.387 . S
H775 C787 0.930 . S
H776 C789 0.930 . S
H777 C790 0.930 . S
H778 C794 0.959 . S
H779 C794 0.959 . S
H780 C794 0.961 . S
H781 C795 0.960 . S
H782 C795 0.961 . S
H783 C795 0.959 . S
H784 C798 0.929 . S
H785 C799 0.931 . S
H786 C801 0.930 . S
C787 H775 0.930 . S
C787 C788 1.399 . S
C787 C792 1.399 . S
C788 C787 1.399 . S
C788 C789 1.376 . S
C789 H776 0.930 . S
C789 C788 1.376 . S
C789 C790 1.388 . S
C790 H777 0.930 . S
C790 C789 1.388 . S
C790 C791 1.390 . S
C791 C790 1.390 . S
C791 C792 1.394 . S
C791 C797 1.465 . S
C792 C787 1.399 . S
C792 C791 1.394 . S
C792 C793 1.516 . S
C793 C792 1.516 . S
C793 C794 1.502 . S
C793 C795 1.561 . S
C793 C796 1.526 . S
C794 H778 0.959 . S
C794 H779 0.959 . S
C794 H780 0.961 . S
C794 C793 1.502 . S
C795 H781 0.960 . S
C795 H782 0.961 . S
C795 H783 0.959 . S
C795 C793 1.561 . S
C796 C793 1.526 . S
C796 C797 1.396 . S
C796 C801 1.390 . S
C797 C791 1.465 . S
C797 C796 1.396 . S
C797 C798 1.399 . S
C798 H784 0.929 . S
C798 C797 1.399 . S
C798 C799 1.385 . S
C799 H785 0.931 . S
C799 C798 1.385 . S
C799 C800 1.389 . S
C800 C799 1.389 . S
C800 C801 1.387 . S
C801 H786 0.930 . S
C801 C796 1.390 . S
C801 C800 1.387 . S
H802 C814 0.930 . S
H803 C816 0.930 . S
H804 C817 0.930 . S
H805 C821 0.959 . S
H806 C821 0.959 . S
H807 C821 0.961 . S
H808 C822 0.960 . S
H809 C822 0.961 . S
H810 C822 0.959 . S
H811 C825 0.929 . S
H812 C826 0.931 . S
H813 C828 0.930 . S
C814 H802 0.930 . S
C814 C815 1.399 . S
C814 C819 1.399 . S
C815 C814 1.399 . S
C815 C816 1.376 . S
C816 H803 0.930 . S
C816 C815 1.376 . S
C816 C817 1.388 . S
C817 H804 0.930 . S
C817 C816 1.388 . S
C817 C818 1.390 . S
C818 C817 1.390 . S
C818 C819 1.394 . S
C818 C824 1.465 . S
C819 C814 1.399 . S
C819 C818 1.394 . S
C819 C820 1.516 . S
C820 C819 1.516 . S
C820 C821 1.502 . S
C820 C822 1.561 . S
C820 C823 1.526 . S
C821 H805 0.959 . S
C821 H806 0.959 . S
C821 H807 0.961 . S
C821 C820 1.502 . S
C822 H808 0.960 . S
C822 H809 0.961 . S
C822 H810 0.959 . S
C822 C820 1.561 . S
C823 C820 1.526 . S
C823 C824 1.396 . S
C823 C828 1.390 . S
C824 C818 1.465 . S
C824 C823 1.396 . S
C824 C825 1.399 . S
C825 H811 0.929 . S
C825 C824 1.399 . S
C825 C826 1.385 . S
C826 H812 0.931 . S
C826 C825 1.385 . S
C826 C827 1.389 . S
C827 C826 1.389 . S
C827 C828 1.387 . S
C828 H813 0.930 . S
C828 C823 1.390 . S
C828 C827 1.387 . S
H829 C841 0.930 . S
H830 C843 0.930 . S
H831 C844 0.930 . S
H832 C848 0.959 . S
H833 C848 0.959 . S
H834 C848 0.961 . S
H835 C849 0.960 . S
H836 C849 0.961 . S
H837 C849 0.959 . S
H838 C852 0.929 . S
H839 C853 0.931 . S
H840 C855 0.930 . S
C841 H829 0.930 . S
C841 C842 1.399 . S
C841 C846 1.399 . S
C842 C841 1.399 . S
C842 C843 1.376 . S
C843 H830 0.930 . S
C843 C842 1.376 . S
C843 C844 1.388 . S
C844 H831 0.930 . S
C844 C843 1.388 . S
C844 C845 1.390 . S
C845 C844 1.390 . S
C845 C846 1.394 . S
C845 C851 1.465 . S
C846 C841 1.399 . S
C846 C845 1.394 . S
C846 C847 1.516 . S
C847 C846 1.516 . S
C847 C848 1.502 . S
C847 C849 1.561 . S
C847 C850 1.526 . S
C848 H832 0.959 . S
C848 H833 0.959 . S
C848 H834 0.961 . S
C848 C847 1.502 . S
C849 H835 0.960 . S
C849 H836 0.961 . S
C849 H837 0.959 . S
C849 C847 1.561 . S
C850 C847 1.526 . S
C850 C851 1.396 . S
C850 C855 1.390 . S
C851 C845 1.465 . S
C851 C850 1.396 . S
C851 C852 1.399 . S
C852 H838 0.929 . S
C852 C851 1.399 . S
C852 C853 1.385 . S
C853 H839 0.931 . S
C853 C852 1.385 . S
C853 C854 1.389 . S
C854 C853 1.389 . S
C854 C855 1.387 . S
C855 H840 0.930 . S
C855 C850 1.390 . S
C855 C854 1.387 . S
C221 C45 1.551 . S
C233 N106 1.547 . S
C248 C30 1.525 . S
C260 N119 1.551 . S
C275 C39 1.556 . S
C287 N132 1.527 . S
C314 N145 1.521 . S
C302 C34 1.560 . S
C329 C97 1.559 . S
C341 N158 1.539 . S
C368 N171 1.551 . S
C356 C82 1.524 . S
C395 N184 1.542 . S
C383 C91 1.541 . S
C422 N197 1.559 . S
C410 C86 1.518 . S
C449 N187 1.524 . S
C437 C26 1.454 . S
C476 N200 1.536 . S
C464 C36 1.449 . S
C503 N157 1.548 . S
C491 C32 1.482 . S
C530 N174 1.500 . S
C518 C42 1.502 . S
C545 C18 1.561 . S
C557 N170 1.607 . S
C584 N183 1.578 . S
C572 C50 1.586 . S
C599 C4 1.544 . S
C611 N196 1.612 . S
C626 C48 1.514 . S
C638 N161 1.615 . S
C665 N135 1.500 . S
C653 C78 1.495 . S
C680 C88 1.451 . S
C692 N148 1.540 . S
C719 N105 1.512 . S
C707 C84 1.498 . S
C746 N118 1.516 . S
C734 C94 1.521 . S
C773 N122 1.608 . S
C761 C70 1.583 . S
C800 N131 1.590 . S
C788 C102 1.504 . S
C815 C56 1.561 . S
C827 N144 1.607 . S
C842 C100 1.505 . S
C854 N109 1.605 . S
