# Generated by pormake.
# Topology eea, (3,6)-cn, num edge types: 1
# Building blocks:
#     Node 0, Type 0, BuildingBlock: MIDCAF_clean_linker_0, # of connection points: 3
#     Node 1, Type 0, BuildingBlock: MIDCAF_clean_linker_0, # of connection points: 3
#     Node 2, Type 0, BuildingBlock: MIDCAF_clean_linker_0, # of connection points: 3
#     Node 3, Type 0, BuildingBlock: MIDCAF_clean_linker_0, # of connection points: 3
#     Node 4, Type 0, BuildingBlock: MIDCAF_clean_linker_0, # of connection points: 3
#     Node 5, Type 0, BuildingBlock: MIDCAF_clean_linker_0, # of connection points: 3
#     Node 6, Type 0, BuildingBlock: MIDCAF_clean_linker_0, # of connection points: 3
#     Node 7, Type 0, BuildingBlock: MIDCAF_clean_linker_0, # of connection points: 3
#     Node 8, Type 0, BuildingBlock: MIDCAF_clean_linker_0, # of connection points: 3
#     Node 9, Type 0, BuildingBlock: MIDCAF_clean_linker_0, # of connection points: 3
#     Node 10, Type 0, BuildingBlock: MIDCAF_clean_linker_0, # of connection points: 3
#     Node 11, Type 0, BuildingBlock: MIDCAF_clean_linker_0, # of connection points: 3
#     Node 12, Type 0, BuildingBlock: MIDCAF_clean_linker_0, # of connection points: 3
#     Node 13, Type 0, BuildingBlock: MIDCAF_clean_linker_0, # of connection points: 3
#     Node 14, Type 0, BuildingBlock: MIDCAF_clean_linker_0, # of connection points: 3
#     Node 15, Type 0, BuildingBlock: MIDCAF_clean_linker_0, # of connection points: 3
#     Node 16, Type 0, BuildingBlock: MIDCAF_clean_linker_0, # of connection points: 3
#     Node 17, Type 0, BuildingBlock: MIDCAF_clean_linker_0, # of connection points: 3
#     Node 18, Type 1, BuildingBlock: HISSIN_clean_sbu_0, # of connection points: 6
#     Node 19, Type 1, BuildingBlock: HISSIN_clean_sbu_0, # of connection points: 6
#     Node 20, Type 1, BuildingBlock: HISSIN_clean_sbu_0, # of connection points: 6
#     Node 21, Type 1, BuildingBlock: HISSIN_clean_sbu_0, # of connection points: 6
#     Node 22, Type 1, BuildingBlock: HISSIN_clean_sbu_0, # of connection points: 6
#     Node 23, Type 1, BuildingBlock: HISSIN_clean_sbu_0, # of connection points: 6
#     Node 24, Type 1, BuildingBlock: HISSIN_clean_sbu_0, # of connection points: 6
#     Node 25, Type 1, BuildingBlock: HISSIN_clean_sbu_0, # of connection points: 6
#     Node 26, Type 1, BuildingBlock: HISSIN_clean_sbu_0, # of connection points: 6
#     Edge 27, Type (0, 1), None
#     Edge 28, Type (0, 1), None
#     Edge 29, Type (0, 1), None
#     Edge 30, Type (0, 1), None
#     Edge 31, Type (0, 1), None
#     Edge 32, Type (0, 1), None
#     Edge 33, Type (0, 1), None
#     Edge 34, Type (0, 1), None
#     Edge 35, Type (0, 1), None
#     Edge 36, Type (0, 1), None
#     Edge 37, Type (0, 1), None
#     Edge 38, Type (0, 1), None
#     Edge 39, Type (0, 1), None
#     Edge 40, Type (0, 1), None
#     Edge 41, Type (0, 1), None
#     Edge 42, Type (0, 1), None
#     Edge 43, Type (0, 1), None
#     Edge 44, Type (0, 1), None
#     Edge 45, Type (0, 1), None
#     Edge 46, Type (0, 1), None
#     Edge 47, Type (0, 1), None
#     Edge 48, Type (0, 1), None
#     Edge 49, Type (0, 1), None
#     Edge 50, Type (0, 1), None
#     Edge 51, Type (0, 1), None
#     Edge 52, Type (0, 1), None
#     Edge 53, Type (0, 1), None
#     Edge 54, Type (0, 1), None
#     Edge 55, Type (0, 1), None
#     Edge 56, Type (0, 1), None
#     Edge 57, Type (0, 1), None
#     Edge 58, Type (0, 1), None
#     Edge 59, Type (0, 1), None
#     Edge 60, Type (0, 1), None
#     Edge 61, Type (0, 1), None
#     Edge 62, Type (0, 1), None
#     Edge 63, Type (0, 1), None
#     Edge 64, Type (0, 1), None
#     Edge 65, Type (0, 1), None
#     Edge 66, Type (0, 1), None
#     Edge 67, Type (0, 1), None
#     Edge 68, Type (0, 1), None
#     Edge 69, Type (0, 1), None
#     Edge 70, Type (0, 1), None
#     Edge 71, Type (0, 1), None
#     Edge 72, Type (0, 1), None
#     Edge 73, Type (0, 1), None
#     Edge 74, Type (0, 1), None
#     Edge 75, Type (0, 1), None
#     Edge 76, Type (0, 1), None
#     Edge 77, Type (0, 1), None
#     Edge 78, Type (0, 1), None
#     Edge 79, Type (0, 1), None
#     Edge 80, Type (0, 1), None
# Relax obj value: 0.034
# Max RMSD: 0.130
# Mean RMSD: 0.112
data_MOF--net-eea--node1-HISSIN_clean_sbu_0--node2-MIDCAF_clean_linker_0--edge1-none
_symmetry_space_group_name_H-M    P1
_symmetry_Int_Tables_number       1
_symmetry_cell_setting            triclinic
loop_
_symmetry_equiv_pos_as_xyz
'x, y, z'
_cell_length_a     33.720902
_cell_length_b     33.660437
_cell_length_c     55.616658
_cell_angle_alpha  92.521322
_cell_angle_beta   92.294598
_cell_angle_gamma 119.90728
loop_
_atom_site_label
_atom_site_type_symbol
_atom_site_fract_x
_atom_site_fract_y
_atom_site_fract_z
_atom_type_partial_charge
C0 C 0.24852 0.98304 0.39673 0.0
C1 C 0.21636 0.96641 0.37671 0.0
C2 C 0.20236 -0.00453 0.36681 0.0
C3 C 0.21975 0.04017 0.37693 0.0
H4 H 0.2415 0.17 0.36273 0.0
H5 H 0.21009 0.21388 0.3446 0.0
H6 H 0.22832 0.28675 0.41376 0.0
H7 H 0.25971 0.24294 0.43196 0.0
H8 H 0.33346 0.23509 0.47252 0.0
H9 H 0.3631 0.24858 0.51482 0.0
H10 H 0.34449 0.11197 0.51286 0.0
H11 H 0.31524 0.09826 0.47101 0.0
H12 H 0.2899 0.03913 0.42262 0.0
H13 H 0.26001 0.96145 0.40477 0.0
H14 H 0.17785 0.98371 0.35126 0.0
H15 H 0.20777 0.06149 0.36905 0.0
N16 N 0.25641 0.13201 0.39865 0.0
N17 N 0.28944 0.18438 0.43268 0.0
N18 N 0.28879 0.11435 0.43145 0.0
C19 C 0.26769 0.173 0.41018 0.0
C20 C 0.30038 0.15515 0.44335 0.0
C21 C 0.26684 0.10253 0.40915 0.0
C22 C 0.25284 0.20278 0.39886 0.0
C23 C 0.23901 0.19555 0.37408 0.0
C24 C 0.22103 0.22069 0.36364 0.0
C25 C 0.21603 0.25319 0.37783 0.0
C26 C 0.23096 0.26131 0.40245 0.0
C27 C 0.24941 0.23653 0.41284 0.0
C28 C 0.32157 0.16547 0.46835 0.0
C29 C 0.33603 0.20808 0.48106 0.0
C30 C 0.35317 0.21592 0.50521 0.0
C31 C 0.35561 0.18112 0.51707 0.0
C32 C 0.34238 0.13914 0.50421 0.0
C33 C 0.32576 0.13145 0.48014 0.0
C34 C 0.25117 0.05652 0.3973 0.0
C35 C 0.26565 0.0276 0.40697 0.0
C36 C 0.03057 0.25555 0.40121 0.0
C37 C 0.03951 0.23886 0.3796 0.0
C38 C 0.00905 0.19352 0.37062 0.0
C39 C 0.97021 0.1657 0.38281 0.0
H40 H 0.85918 0.04208 0.37564 0.0
H41 H 0.80493 0.96788 0.35566 0.0
H42 H 0.71023 0.94561 0.41063 0.0
H43 H 0.76486 0.02037 0.43083 0.0
H44 H 0.82623 0.07676 0.48343 0.0
H45 H 0.80792 0.09334 0.52303 0.0
H46 H 0.88402 0.23865 0.51331 0.0
H47 H 0.90305 0.22203 0.47318 0.0
H48 H 0.98615 0.24173 0.42999 0.0
H49 H 0.05358 0.29027 0.40884 0.0
H50 H 0.01498 0.17958 0.35411 0.0
H51 H 0.9474 0.1309 0.37526 0.0
N52 N 0.88813 0.11111 0.40613 0.0
N53 N 0.84342 0.09514 0.43921 0.0
N54 N 0.91241 0.16548 0.43931 0.0
C55 C 0.84998 0.08232 0.41701 0.0
C56 C 0.87428 0.13648 0.45053 0.0
C57 C 0.91953 0.1526 0.41699 0.0
C58 C 0.81643 0.0372 0.40486 0.0
C59 C 0.82682 0.02156 0.38351 0.0
C60 C 0.7957 0.97886 0.37207 0.0
C61 C 0.75333 0.95089 0.3816 0.0
C62 C 0.74259 0.96653 0.40283 0.0
C63 C 0.77397 0.00928 0.41442 0.0
C64 C 0.86603 0.14812 0.47512 0.0
C65 C 0.8393 0.11235 0.48965 0.0
C66 C 0.82893 0.12179 0.51242 0.0
C67 C 0.84453 0.16723 0.52122 0.0
C68 C 0.87141 0.20327 0.50684 0.0
C69 C 0.88255 0.19381 0.48403 0.0
C70 C 0.96111 0.18247 0.40438 0.0
C71 C 0.99192 0.22768 0.41347 0.0
C72 C 0.75018 0.77723 0.4061 0.0
C73 C 0.75226 0.78493 0.3814 0.0
C74 C 0.78501 0.78067 0.36845 0.0
C75 C 0.81549 0.76974 0.37999 0.0
H76 H 0.93046 0.76472 0.36894 0.0
H77 H 0.00077 0.78968 0.34858 0.0
H78 H 0.07145 0.79391 0.41604 0.0
H79 H 0.00084 0.76859 0.43644 0.0
H80 H 0.91028 0.68135 0.47304 0.0
H81 H 0.89257 0.64749 0.51213 0.0
H82 H 0.79599 0.69482 0.52099 0.0
H83 H 0.81323 0.72823 0.48221 0.0
H84 H 0.77814 0.76042 0.43669 0.0
H85 H 0.72518 0.78004 0.41659 0.0
H86 H 0.78759 0.78637 0.34942 0.0
H87 H 0.84052 0.76713 0.36944 0.0
N88 N 0.88563 0.76061 0.40602 0.0
N89 N 0.91064 0.73568 0.43906 0.0
N90 N 0.84079 0.73556 0.43908 0.0
C91 C 0.91757 0.75275 0.41683 0.0
C92 C 0.87199 0.72678 0.45026 0.0
C93 C 0.8473 0.75228 0.41692 0.0
C94 C 0.95994 0.76468 0.40441 0.0
C95 C 0.96094 0.77081 0.37948 0.0
C96 C 0.00131 0.78518 0.36773 0.0
C97 C 0.04191 0.79432 0.38065 0.0
C98 C 0.04086 0.78764 0.40553 0.0
C99 C 0.00028 0.77272 0.41725 0.0
C100 C 0.86321 0.70756 0.47439 0.0
C101 C 0.88543 0.6847 0.48339 0.0
C102 C 0.87506 0.665 0.50569 0.0
C103 C 0.84286 0.66846 0.51968 0.0
C104 C 0.82121 0.69183 0.51079 0.0
C105 C 0.831 0.71083 0.48844 0.0
C106 C 0.8137 0.76232 0.40473 0.0
C107 C 0.78041 0.76578 0.41762 0.0
C108 C 0.95916 0.21561 0.6261 0.0
C109 C 0.94955 0.18994 0.64662 0.0
C110 C 0.98032 0.1759 0.65457 0.0
C111 C 0.01997 0.18773 0.64255 0.0
H112 H 0.13104 0.17706 0.64893 0.0
H113 H 0.18485 0.15938 0.66907 0.0
H114 H 0.28556 0.23601 0.61874 0.0
H115 H 0.23141 0.25379 0.5984 0.0
H116 H 0.18893 0.27015 0.5488 0.0
H117 H 0.20653 0.30593 0.51074 0.0
H118 H 0.09671 0.33588 0.51631 0.0
H119 H 0.07867 0.29973 0.55477 0.0
H120 H 0.00513 0.24721 0.59837 0.0
H121 H 0.93599 0.22671 0.61929 0.0
H122 H 0.97403 0.15603 0.6702 0.0
H123 H 0.04286 0.17635 0.64941 0.0
N124 N 0.10395 0.21702 0.62023 0.0
N125 N 0.15234 0.24917 0.5891 0.0
N126 N 0.08208 0.24825 0.58896 0.0
C127 C 0.14366 0.22805 0.61007 0.0
C128 C 0.12185 0.25941 0.57833 0.0
C129 C 0.07294 0.2268 0.61 0.0
C130 C 0.1768 0.21698 0.62199 0.0
C131 C 0.16463 0.19028 0.64208 0.0
C132 C 0.19555 0.18001 0.65367 0.0
C133 C 0.23962 0.19636 0.6456 0.0
C134 C 0.25193 0.22303 0.6255 0.0
C135 C 0.22081 0.23311 0.61378 0.0
C136 C 0.1322 0.28183 0.55501 0.0
C137 C 0.16837 0.28434 0.54208 0.0
C138 C 0.17843 0.30472 0.5201 0.0
C139 C 0.15297 0.32366 0.51039 0.0
C140 C 0.11717 0.32186 0.52337 0.0
C141 C 0.10667 0.30087 0.54535 0.0
C142 C 0.02992 0.21377 0.62215 0.0
C143 C -0.00121 0.22729 0.61398 0.0
C144 C 0.76314 0.73107 0.62643 0.0
C145 C 0.77673 0.73937 0.65124 0.0
C146 C 0.7694 0.7707 0.66504 0.0
C147 C 0.7505 0.79459 0.65406 0.0
H148 H 0.74878 0.91599 0.66482 0.0
H149 H 0.77922 0.99376 0.68298 0.0
H150 H 0.76421 0.03913 0.6134 0.0
H151 H 0.73348 0.9615 0.59527 0.0
H152 H 0.67698 0.88989 0.55497 0.0
H153 H 0.64796 0.8756 0.51312 0.0
H154 H 0.63216 0.7401 0.51148 0.0
H155 H 0.66145 0.75414 0.55387 0.0
H156 H 0.7347 0.74817 0.59624 0.0
H157 H 0.7676 0.70651 0.61536 0.0
H158 H 0.77917 0.77753 0.68422 0.0
H159 H 0.74627 0.81934 0.66511 0.0
N160 N 0.73322 0.85719 0.62844 0.0
N161 N 0.70308 0.87459 0.59462 0.0
N162 N 0.70257 0.80469 0.59434 0.0
C163 C 0.72348 0.88651 0.61724 0.0
C164 C 0.69214 0.83375 0.58305 0.0
C165 C 0.72294 0.81627 0.61719 0.0
C166 C 0.73878 0.93264 0.62863 0.0
C167 C 0.75175 0.94252 0.65344 0.0
C168 C 0.76915 0.98703 0.66384 0.0
C169 C 0.7744 0.02249 0.64954 0.0
C170 C 0.76089 0.01251 0.62481 0.0
C171 C 0.74296 0.96794 0.61448 0.0
C172 C 0.67192 0.82322 0.55785 0.0
C173 C 0.66721 0.85682 0.54591 0.0
C174 C 0.65072 0.84883 0.52183 0.0
C175 C 0.63821 0.80696 0.50906 0.0
C176 C 0.64148 0.77266 0.52102 0.0
C177 C 0.65842 0.7808 0.54521 0.0
C178 C 0.73808 0.78723 0.6291 0.0
C179 C 0.74379 0.75458 0.61549 0.0
C180 C 0.24141 0.02599 0.62006 0.0
C181 C 0.24298 0.03457 0.6451 0.0
C182 C 0.21108 8e-05 0.65869 0.0
C183 C 0.17777 0.958 0.64742 0.0
H184 H 0.04485 0.85841 0.65326 0.0
H185 H 0.97815 0.81064 0.67524 0.0
H186 H 0.93649 0.69874 0.62089 0.0
H187 H 0.003 0.74641 0.59886 0.0
H188 H 0.08077 0.76619 0.55252 0.0
H189 H 0.10038 0.75021 0.51244 0.0
H190 H 0.1822 0.89604 0.50491 0.0
H191 H 0.16256 0.91183 0.54413 0.0
H192 H 0.2079 0.97814 0.58943 0.0
H193 H 0.26559 0.05193 0.60913 0.0
H194 H 0.21129 0.00576 0.67803 0.0
H195 H 0.1535 0.93221 0.65838 0.0
N196 N 0.10326 0.87653 0.62192 0.0
N197 N 0.07562 0.82285 0.58822 0.0
N198 N 0.14509 0.89243 0.58774 0.0
C199 C 0.07047 0.83558 0.61105 0.0
C200 C 0.11308 0.85162 0.57646 0.0
C201 C 0.14063 0.905 0.61042 0.0
C202 C 0.02951 0.80619 0.62423 0.0
C203 C 0.02157 0.82353 0.64597 0.0
C204 C 0.98324 0.79624 0.65864 0.0
C205 C 0.95219 0.75083 0.65001 0.0
C206 C 0.96003 0.73352 0.62826 0.0
C207 C -0.00189 0.7609 0.61549 0.0
C208 C 0.12023 0.84022 0.55155 0.0
C209 C 0.1024 0.79465 0.54208 0.0
C210 C 0.11397 0.78555 0.5193 0.0
C211 C 0.14289 0.8219 0.50554 0.0
C212 C 0.15951 0.86725 0.51488 0.0
C213 C 0.14841 0.87627 0.53751 0.0
C214 C 0.17604 0.94941 0.62236 0.0
C215 C 0.20839 0.98368 0.6088 0.0
C216 C 0.90589 0.30605 0.73112 0.0
C217 C 0.87398 0.28916 0.71099 0.0
C218 C 0.8584 0.31728 0.70146 0.0
C219 C 0.87418 0.36138 0.71199 0.0
H220 H 0.86375 0.47243 0.70421 0.0
H221 H 0.83816 0.51994 0.68514 0.0
H222 H 0.91749 0.62979 0.74022 0.0
H223 H 0.94315 0.58216 0.75945 0.0
H224 H 0.98652 0.55706 0.8073 0.0
H225 H 0.01808 0.57116 0.84931 0.0
H226 H 0.00847 0.43829 0.84559 0.0
H227 H 0.97749 0.42402 0.80408 0.0
H228 H 0.94572 0.36188 0.7574 0.0
H229 H 0.91848 0.28512 0.73888 0.0
H230 H 0.83398 0.30528 0.68587 0.0
H231 H 0.86117 0.38203 0.70431 0.0
N232 N 0.90874 0.45252 0.73387 0.0
N233 N 0.94405 0.50652 0.7671 0.0
N234 N 0.94402 0.43677 0.76607 0.0
C235 C 0.92042 0.49388 0.74505 0.0
C236 C 0.95602 0.47791 0.77769 0.0
C237 C 0.92048 0.42387 0.7442 0.0
C238 C 0.90563 0.5235 0.73343 0.0
C239 C 0.87596 0.50678 0.71229 0.0
C240 C 0.8611 0.53396 0.70132 0.0
C241 C 0.87578 0.57859 0.71111 0.0
C242 C 0.90566 0.59552 0.73214 0.0
C243 C 0.92033 0.5682 0.74323 0.0
C244 C 0.97895 0.48922 0.80232 0.0
C245 C 0.99158 0.53108 0.81538 0.0
C246 C 0.00977 0.53926 0.83935 0.0
C247 C 0.01513 0.50554 0.85065 0.0
C248 C 0.00404 0.46455 0.83737 0.0
C249 C 0.98637 0.45654 0.8135 0.0
C250 C 0.90559 0.37808 0.73236 0.0
C251 C 0.92145 0.35004 0.74175 0.0
C252 C 0.70454 0.58743 0.73713 0.0
C253 C 0.70582 0.57944 0.71215 0.0
C254 C 0.66521 0.54748 0.69877 0.0
C255 C 0.62456 0.52302 0.71024 0.0
H256 H 0.52171 0.39089 0.70587 0.0
H257 H 0.47028 0.31456 0.6872 0.0
H258 H 0.37651 0.28966 0.74297 0.0
H259 H 0.42829 0.36645 0.76188 0.0
H260 H 0.48575 0.42278 0.81327 0.0
H261 H 0.46916 0.43838 0.85348 0.0
H262 H 0.55244 0.58418 0.84658 0.0
H263 H 0.56963 0.56857 0.80581 0.0
H264 H 0.66421 0.56969 0.76786 0.0
H265 H 0.73514 0.6123 0.74798 0.0
H266 H 0.66494 0.54079 0.67952 0.0
H267 H 0.59402 0.49796 0.69943 0.0
N268 N 0.54967 0.45989 0.73637 0.0
N269 N 0.5057 0.44265 0.7698 0.0
N270 N 0.57482 0.51294 0.77022 0.0
C271 C 0.51186 0.43056 0.74732 0.0
C272 C 0.53673 0.48367 0.78138 0.0
C273 C 0.58127 0.50102 0.74753 0.0
C274 C 0.47922 0.38483 0.73542 0.0
C275 C 0.49008 0.36938 0.71416 0.0
C276 C 0.46064 0.32542 0.70349 0.0
C277 C 0.41948 0.29602 0.7137 0.0
C278 C 0.40803 0.31161 0.7347 0.0
C279 C 0.43775 0.35558 0.74553 0.0
C280 C 0.52898 0.49448 0.80627 0.0
C281 C 0.50072 0.45828 0.82021 0.0
C282 C 0.49134 0.46714 0.84334 0.0
C283 C 0.50952 0.51245 0.85315 0.0
C284 C 0.53782 0.54891 0.83934 0.0
C285 C 0.54789 0.53998 0.81614 0.0
C286 C 0.62347 0.53034 0.73531 0.0
C287 C 0.66377 0.56335 0.74856 0.0
C288 C 0.41999 0.11975 0.73998 0.0
C289 C 0.42246 0.12744 0.71527 0.0
C290 C 0.45447 0.12181 0.70236 0.0
C291 C 0.48375 0.10935 0.71393 0.0
H292 H 0.59476 0.09723 0.70285 0.0
H293 H 0.66417 0.11828 0.68235 0.0
H294 H 0.73298 0.1184 0.74961 0.0
H295 H 0.66318 0.09699 0.77019 0.0
H296 H 0.57771 0.0222 0.80919 0.0
H297 H 0.55881 0.98808 0.84804 0.0
H298 H 0.45164 0.02229 0.85222 0.0
H299 H 0.47048 0.0565 0.81376 0.0
H300 H 0.44633 0.10132 0.77056 0.0
H301 H 0.39551 0.12357 0.75044 0.0
H302 H 0.45728 0.12745 0.68333 0.0
H303 H 0.50818 0.1056 0.70339 0.0
N304 N 0.5512 0.096 0.73996 0.0
N305 N 0.57382 0.06895 0.77298 0.0
N306 N 0.50595 0.07264 0.77295 0.0
C307 C 0.58166 0.08608 0.75077 0.0
C308 C 0.53567 0.06189 0.78415 0.0
C309 C 0.51345 0.0896 0.75084 0.0
C310 C 0.62335 0.09553 0.73827 0.0
C311 C 0.62461 0.10157 0.71333 0.0
C312 C 0.66447 0.11365 0.70149 0.0
C313 C 0.70434 0.12051 0.7143 0.0
C314 C 0.70297 0.11379 0.73918 0.0
C315 C 0.66285 0.10118 0.751 0.0
C316 C 0.52569 0.04219 0.80818 0.0
C317 C 0.55025 0.02263 0.81843 0.0
C318 C 0.53919 0.00275 0.84064 0.0
C319 C 0.50363 0.00235 0.85329 0.0
C320 C 0.47951 0.02235 0.84315 0.0
C321 C 0.49025 0.04181 0.82094 0.0
C322 C 0.48142 0.10172 0.73864 0.0
C323 C 0.44897 0.10677 0.75151 0.0
C324 C 0.6313 0.5546 0.95859 0.0
C325 C 0.62108 0.52986 0.97946 0.0
C326 C 0.65087 0.51488 0.9878 0.0
C327 C 0.69005 0.52472 0.9758 0.0
H328 H 0.79665 0.5057 0.98137 0.0
H329 H 0.8487 0.48589 1.00182 0.0
H330 H 0.95162 0.56176 0.95236 0.0
H331 H 0.89934 0.5816 0.93174 0.0
H332 H 0.86154 0.6036 0.88256 0.0
H333 H 0.88033 0.63984 0.84462 0.0
H334 H 0.76727 0.66542 0.84802 0.0
H335 H 0.74837 0.62924 0.88631 0.0
H336 H 0.67733 0.58355 0.93057 0.0
H337 H 0.60893 0.56645 0.9515 0.0
H338 H 0.64413 0.49569 1.00373 0.0
H339 H 0.71212 0.51259 0.98296 0.0
N340 N 0.77272 0.54897 0.95305 0.0
N341 N 0.8214 0.57903 0.9218 0.0
N342 N 0.7529 0.58156 0.92167 0.0
C343 C 0.8119 0.55809 0.94284 0.0
C344 C 0.79215 0.59086 0.91099 0.0
C345 C 0.74299 0.56043 0.94279 0.0
C346 C 0.84375 0.54541 0.95487 0.0
C347 C 0.83036 0.51826 0.97478 0.0
C348 C 0.86024 0.50677 0.98655 0.0
C349 C 0.90443 0.52236 0.97884 0.0
C350 C 0.91788 0.54937 0.95888 0.0
C351 C 0.88782 0.56063 0.94697 0.0
C352 C 0.80329 0.61331 0.88768 0.0
C353 C 0.84054 0.61693 0.87536 0.0
C354 C 0.85126 0.63755 0.85343 0.0
C355 C 0.82532 0.65554 0.84316 0.0
C356 C 0.78827 0.65234 0.8555 0.0
C357 C 0.77726 0.6313 0.87742 0.0
C358 C 0.70056 0.5497 0.955 0.0
C359 C 0.67051 0.56434 0.94649 0.0
C360 C 0.41668 0.06091 0.96442 0.0
C361 C 0.44553 0.07783 0.98582 0.0
C362 C 0.45883 0.12205 0.99577 0.0
C363 C 0.44392 0.14895 0.98447 0.0
H364 H 0.42816 0.26245 0.99755 0.0
H365 H 0.45543 0.33958 0.01581 0.0
H366 H 0.43834 0.38373 0.94622 0.0
H367 H 0.41077 0.30669 0.928 0.0
H368 H 0.3529 0.23361 0.88839 0.0
H369 H 0.32236 0.21828 0.8468 0.0
H370 H 0.30777 0.0833 0.84544 0.0
H371 H 0.33862 0.09839 0.8876 0.0
H372 H 0.38027 0.07407 0.93642 0.0
H373 H 0.4059 0.02696 0.9562 0.0
H374 H 0.48091 0.13602 1.01225 0.0
H375 H 0.45522 0.18306 0.99261 0.0
N376 N 0.4129 0.20355 0.96134 0.0
N377 N 0.38159 0.21992 0.92762 0.0
N378 N 0.38026 0.14965 0.92788 0.0
C379 C 0.40286 0.23256 0.95004 0.0
C380 C 0.36993 0.17861 0.9164 0.0
C381 C 0.40182 0.16209 0.95047 0.0
C382 C 0.41738 0.27854 0.96136 0.0
C383 C 0.43008 0.28859 0.98619 0.0
C384 C 0.44557 0.3327 0.99665 0.0
C385 C 0.44918 0.36762 0.98239 0.0
C386 C 0.43615 0.35751 0.95762 0.0
C387 C 0.42012 0.31329 0.94722 0.0
C388 C 0.34862 0.16731 0.8914 0.0
C389 C 0.34309 0.20043 0.87945 0.0
C390 C 0.32572 0.19184 0.85552 0.0
C391 C 0.31313 0.14984 0.84289 0.0
C392 C 0.31715 0.11596 0.85487 0.0
C393 C 0.33498 0.12469 0.87893 0.0
C394 C 0.41565 0.13238 0.96284 0.0
C395 C 0.40202 0.08795 0.95301 0.0
C396 C 0.90697 0.34739 0.95446 0.0
C397 C 0.90782 0.35645 0.9794 0.0
C398 C 0.87721 0.32136 0.99317 0.0
C399 C 0.84568 0.2783 0.98214 0.0
H400 H 0.72968 0.15796 0.99423 0.0
H401 H 0.65973 0.11651 0.01515 0.0
H402 H 0.58502 0.04702 0.94719 0.0
H403 H 0.65488 0.0882 0.92633 0.0
H404 H 0.749 0.08734 0.88627 0.0
H405 H 0.76764 0.07245 0.84572 0.0
H406 H 0.84835 0.21862 0.83894 0.0
H407 H 0.82975 0.23335 0.8787 0.0
H408 H 0.87557 0.29837 0.92412 0.0
H409 H 0.93028 0.37372 0.94339 0.0
H410 H 0.87699 0.32731 0.01246 0.0
H411 H 0.82219 0.25214 0.99322 0.0
N412 N 0.77266 0.19551 0.95686 0.0
N413 N 0.74399 0.1432 0.92257 0.0
N414 N 0.81382 0.21253 0.92241 0.0
C415 C 0.73953 0.15503 0.94573 0.0
C416 C 0.7815 0.1721 0.9109 0.0
C417 C 0.80981 0.2244 0.94533 0.0
C418 C 0.69787 0.12644 0.95853 0.0
C419 C 0.69833 0.13364 0.98374 0.0
C420 C 0.65824 0.11 0.99579 0.0
C421 C 0.61668 0.07901 0.98287 0.0
C422 C 0.61639 0.07116 0.95772 0.0
C423 C 0.65655 0.09441 0.94572 0.0
C424 C 0.78802 0.16146 0.88573 0.0
C425 C 0.77018 0.1161 0.8759 0.0
C426 C 0.78119 0.10763 0.85285 0.0
C427 C 0.80952 0.14441 0.83918 0.0
C428 C 0.82612 0.18954 0.84886 0.0
C429 C 0.81562 0.19794 0.87179 0.0
C430 C 0.84444 0.26932 0.95715 0.0
C431 C 0.87573 0.30414 0.94345 0.0
C432 C 0.58725 0.6531 0.06192 0.0
C433 C 0.55423 0.63613 0.04229 0.0
C434 C 0.54022 0.66518 0.03238 0.0
C435 C 0.55814 0.7101 0.04227 0.0
H436 H 0.58058 0.84083 0.0284 0.0
H437 H 0.5471 0.88298 1.0104 0.0
H438 H 0.55857 0.95086 0.08024 0.0
H439 H 0.59205 0.90874 0.09829 0.0
H440 H 0.66754 0.90223 0.13941 0.0
H441 H 0.69515 0.91363 0.18203 0.0
H442 H 0.67886 0.77791 0.17824 0.0
H443 H 0.65184 0.76633 0.13613 0.0
H444 H 0.6296 0.70964 0.08739 0.0
H445 H 0.59883 0.63153 0.0699 0.0
H446 H 0.51514 0.65319 0.01709 0.0
H447 H 0.54593 0.73131 0.03448 0.0
N448 N 0.59442 0.80171 0.06411 0.0
N449 N 0.62555 0.85298 0.09866 0.0
N450 N 0.62661 0.78379 0.09684 0.0
C451 C 0.60453 0.84207 0.07598 0.0
C452 C 0.63703 0.82392 0.10911 0.0
C453 C 0.60535 0.77243 0.0744 0.0
C454 C 0.58875 0.87126 0.06484 0.0
C455 C 0.57617 0.86493 0.03992 0.0
C456 C 0.55695 0.88905 0.02957 0.0
C457 C 0.54947 0.91963 0.04395 0.0
C458 C 0.56316 0.9269 0.06874 0.0
C459 C 0.58283 0.90313 0.07906 0.0
C460 C 0.65708 0.83325 0.13433 0.0
C461 C 0.67022 0.87501 0.14763 0.0
C462 C 0.68615 0.88164 0.17195 0.0
C463 C 0.68859 0.84641 0.18336 0.0
C464 C 0.67669 0.80535 0.16992 0.0
C465 C 0.66136 0.7989 0.1457 0.0
C466 C 0.59008 0.72666 0.06241 0.0
C467 C 0.60489 0.69789 0.07194 0.0
C468 C 0.36263 0.92302 0.06739 0.0
C469 C 0.37202 0.90602 0.04603 0.0
C470 C 0.34189 0.86046 0.03726 0.0
C471 C 0.30301 0.83268 0.04943 0.0
H472 H 0.19267 0.70821 0.04277 0.0
H473 H 0.13869 0.63373 0.02296 0.0
H474 H 0.04311 0.61237 0.07731 0.0
H475 H 0.09745 0.68738 0.09733 0.0
H476 H 0.15455 0.74541 0.14925 0.0
H477 H 0.13708 0.76338 0.18876 0.0
H478 H 0.21999 0.90836 0.17952 0.0
H479 H 0.23811 0.89036 0.13947 0.0
H480 H 0.31782 0.90946 0.09596 0.0
H481 H 0.38535 0.95793 0.07484 0.0
H482 H 0.34815 0.84628 0.02095 0.0
H483 H 0.2805 0.79769 0.04205 0.0
N484 N 0.22085 0.77801 0.07272 0.0
N485 N 0.17574 0.76255 0.10562 0.0
N486 N 0.24443 0.83311 0.1055 0.0
C487 C 0.18269 0.74929 0.08361 0.0
C488 C 0.20628 0.80423 0.11674 0.0
C489 C 0.25191 0.81984 0.08338 0.0
C490 C 0.14943 0.70384 0.07165 0.0
C491 C 0.16017 0.68782 0.05055 0.0
C492 C 0.12919 0.64495 0.03919 0.0
C493 C 0.08662 0.61717 0.04858 0.0
C494 C 0.07561 0.63313 0.06961 0.0
C495 C 0.10683 0.67603 0.0811 0.0
C496 C 0.19771 0.8165 0.14115 0.0
C497 C 0.16922 0.78123 0.15551 0.0
C498 C 0.15932 0.79145 0.17825 0.0
C499 C 0.17719 0.83722 0.1872 0.0
C500 C 0.20561 0.87275 0.17293 0.0
C501 C 0.21621 0.86247 0.15016 0.0
C502 C 0.2935 0.84971 0.07076 0.0
C503 C 0.32392 0.89518 0.07963 0.0
C504 C 0.08423 0.44451 0.0733 0.0
C505 C 0.08612 0.45197 0.04858 0.0
C506 C 0.11923 0.44829 0.03566 0.0
C507 C 0.15028 0.43818 0.04727 0.0
H508 H 0.26575 0.43422 0.03658 0.0
H509 H 0.33564 0.45876 0.01595 0.0
H510 H 0.40742 0.46431 0.08326 0.0
H511 H 0.33715 0.43944 0.10398 0.0
H512 H 0.25145 0.35944 0.14343 0.0
H513 H 0.23276 0.3254 0.1824 0.0
H514 H 0.12395 0.35733 0.18604 0.0
H515 H 0.14254 0.39138 0.14761 0.0
H516 H 0.11285 0.42867 0.10396 0.0
H517 H 0.05898 0.44688 0.08376 0.0
H518 H 0.12165 0.45385 0.01661 0.0
H519 H 0.17559 0.43601 0.03676 0.0
N520 N 0.22117 0.43029 0.07355 0.0
N521 N 0.24662 0.40644 0.10693 0.0
N522 N 0.17629 0.40537 0.10656 0.0
C523 C 0.25341 0.42307 0.08456 0.0
C524 C 0.20773 0.39728 0.11801 0.0
C525 C 0.18269 0.42172 0.08434 0.0
C526 C 0.29573 0.4349 0.07205 0.0
C527 C 0.29638 0.44054 0.04706 0.0
C528 C 0.33653 0.45467 0.03514 0.0
C529 C 0.37735 0.46403 0.0479 0.0
C530 C 0.37668 0.45786 0.07285 0.0
C531 C 0.33629 0.44321 0.08476 0.0
C532 C 0.19855 0.37819 0.14221 0.0
C533 C 0.22374 0.35944 0.15262 0.0
C534 C 0.2128 0.33961 0.17488 0.0
C535 C 0.17678 0.33856 0.18739 0.0
C536 C 0.15218 0.35791 0.1771 0.0
C537 C 0.16278 0.37727 0.15488 0.0
C538 C 0.14867 0.43101 0.07203 0.0
C539 C 0.11501 0.43387 0.08487 0.0
C540 C 0.29739 0.88767 0.29313 0.0
C541 C 0.28735 0.86265 0.3139 0.0
C542 C 0.31746 0.848 0.32216 0.0
C543 C 0.35678 0.85841 0.31013 0.0
H544 H 0.46348 0.83943 0.3147 0.0
H545 H 0.51579 0.81961 0.33474 0.0
H546 H 0.61824 0.89629 0.28522 0.0
H547 H 0.56561 0.91619 0.26497 0.0
H548 H 0.51974 0.92921 0.2135 0.0
H549 H 0.53708 0.96482 0.1753 0.0
H550 H 0.43751 0.00801 0.18491 0.0
H551 H 0.41968 0.97196 0.22338 0.0
H552 H 0.34329 0.91729 0.26516 0.0
H553 H 0.27477 0.89926 0.2861 0.0
H554 H 0.31084 0.82863 0.33801 0.0
H555 H 0.37912 0.84652 0.31719 0.0
N556 N 0.43928 0.88317 0.28697 0.0
N557 N 0.48726 0.91335 0.25544 0.0
N558 N 0.41885 0.91599 0.25597 0.0
C559 C 0.47823 0.89235 0.27647 0.0
C560 C 0.4578 0.92528 0.24499 0.0
C561 C 0.40937 0.89469 0.27703 0.0
C562 C 0.51028 0.87959 0.28818 0.0
C563 C 0.49713 0.85218 0.30799 0.0
C564 C 0.52718 0.84068 0.31953 0.0
C565 C 0.57132 0.85649 0.31169 0.0
C566 C 0.58454 0.88373 0.29182 0.0
C567 C 0.55428 0.89501 0.28013 0.0
C568 C 0.46818 0.94755 0.22165 0.0
C569 C 0.50145 0.94631 0.20762 0.0
C570 C 0.5113 0.96657 0.18558 0.0
C571 C 0.48865 0.9892 0.177 0.0
C572 C 0.45579 0.99108 0.19109 0.0
C573 C 0.44539 0.97016 0.21307 0.0
C574 C 0.36704 0.88361 0.28941 0.0
C575 C 0.33668 0.89795 0.28102 0.0
C576 C 0.08095 0.39217 0.2979 0.0
C577 C 0.1095 0.40925 0.3194 0.0
C578 C 0.12159 0.45299 0.32958 0.0
C579 C 0.10593 0.47936 0.31837 0.0
H580 H 0.09038 0.59249 0.33112 0.0
H581 H 0.11923 0.66985 0.3494 0.0
H582 H 0.10441 0.71515 0.27976 0.0
H583 H 0.07523 0.63777 0.2615 0.0
H584 H 0.01577 0.56357 0.22156 0.0
H585 H 0.98503 0.54749 0.17995 0.0
H586 H 0.96891 0.41194 0.17968 0.0
H587 H -0.00013 0.42779 0.2218 0.0
H588 H 0.04417 0.40481 0.26987 0.0
H589 H 0.07109 0.35857 0.28953 0.0
H590 H 0.14334 0.46703 0.34616 0.0
H591 H 0.1164 0.51316 0.32668 0.0
N592 N 0.07534 0.53385 0.29495 0.0
N593 N 0.04411 0.55021 0.26118 0.0
N594 N 0.04237 0.47971 0.26164 0.0
C595 C 0.06549 0.56292 0.28359 0.0
C596 C 0.03214 0.50868 0.25007 0.0
C597 C 0.06403 0.49227 0.28419 0.0
C598 C 0.0806 0.60908 0.29488 0.0
C599 C 0.09313 0.61892 0.31974 0.0
C600 C 0.10957 0.6632 0.33021 0.0
C601 C 0.11431 0.69852 0.31596 0.0
C602 C 0.10141 0.68863 0.29116 0.0
C603 C 0.08441 0.64423 0.28073 0.0
C604 C 0.0107 0.49706 0.22509 0.0
C605 C 0.00555 0.53013 0.21285 0.0
C606 C 0.98807 0.52108 0.1889 0.0
C607 C 0.97499 0.47868 0.17657 0.0
C608 C 0.97863 0.4449 0.18887 0.0
C609 C -0.00345 0.45408 0.21292 0.0
C610 C 0.07813 0.46276 0.29659 0.0
C611 C 0.06554 0.41871 0.28657 0.0
C612 C 0.57316 0.68218 0.28697 0.0
C613 C 0.57478 0.691 0.31199 0.0
C614 C 0.54441 0.6559 0.32584 0.0
C615 C 0.51234 0.61304 0.31482 0.0
H616 H 0.39593 0.49327 0.32712 0.0
H617 H 0.32648 0.45153 0.3484 0.0
H618 H 0.25066 0.38208 0.28066 0.0
H619 H 0.31996 0.42355 0.25945 0.0
H620 H 0.41542 0.42376 0.21856 0.0
H621 H 0.43496 0.41031 0.17795 0.0
H622 H 0.5103 0.55683 0.17123 0.0
H623 H 0.49059 0.57002 0.21095 0.0
H624 H 0.54062 0.63356 0.25659 0.0
H625 H 0.59626 0.70854 0.27586 0.0
H626 H 0.54478 0.66168 0.34518 0.0
H627 H 0.48905 0.58687 0.32595 0.0
N628 N 0.43835 0.53071 0.28966 0.0
N629 N 0.40858 0.47894 0.25515 0.0
N630 N 0.47846 0.54813 0.25485 0.0
C631 C 0.40483 0.49045 0.2785 0.0
C632 C 0.44575 0.50799 0.24331 0.0
C633 C 0.47519 0.55966 0.27794 0.0
C634 C 0.3635 0.46179 0.29151 0.0
C635 C 0.36445 0.46891 0.31676 0.0
C636 C 0.32465 0.4451 0.32902 0.0
C637 C 0.28293 0.41403 0.31626 0.0
C638 C 0.28216 0.40629 0.29107 0.0
C639 C 0.32202 0.4297 0.27886 0.0
C640 C 0.45164 0.4979 0.21797 0.0
C641 C 0.43545 0.45284 0.20813 0.0
C642 C 0.44703 0.44523 0.18506 0.0
C643 C 0.47429 0.48255 0.17143 0.0
C644 C 0.48891 0.5273 0.18109 0.0
C645 C 0.47779 0.53485 0.20399 0.0
C646 C 0.51031 0.60433 0.28976 0.0
C647 C 0.54137 0.63914 0.27597 0.0
Eu648 Eu 0.47682 0.96259 0.989 0.0
Eu649 Eu 0.512 0.02886 0.04088 0.0
C650 C 0.46231 0.04967 0.99723 0.0
C651 C 0.46731 0.941 0.92167 0.0
C652 C 0.46999 0.98335 0.91819 0.0
C653 C 0.48906 0.93895 0.88055 0.0
C654 C 0.48167 0.00309 0.89606 0.0
C655 C 0.47704 0.91904 0.90269 0.0
C656 C 0.49148 0.98124 0.87693 0.0
C657 C 0.4583 0.92179 0.9456 0.0
O658 O 0.43637 0.97981 0.04086 0.0
O659 O 0.42675 0.91921 0.0157 0.0
C660 C 0.41347 0.93609 0.03347 0.0
O661 O 0.52474 0.94582 1.0098 0.0
O662 O 0.49815 0.06408 0.07064 0.0
O663 O 0.56068 0.06101 0.07242 0.0
O664 O 0.51193 0.96384 0.04769 0.0
C665 C 0.52773 0.94408 0.03329 0.0
O666 O 0.53525 0.03121 0.98176 0.0
O667 O 0.57437 0.05345 0.0189 0.0
O668 O 0.49569 0.06844 0.01446 0.0
O669 O 0.49474 0.93134 0.95922 0.0
O670 O 0.42822 0.92631 0.95774 0.0
O671 O 0.4439 0.00643 0.98916 0.0
C672 C 0.52167 0.04938 0.10821 0.0
C673 C 0.51294 0.00445 0.11083 0.0
C674 C 0.50663 0.05453 0.15045 0.0
C675 C 0.50214 0.9851 0.13307 0.0
C676 C 0.51807 0.07416 0.12816 0.0
C677 C 0.49901 0.00989 0.15321 0.0
C678 C 0.53283 0.06933 0.08448 0.0
C679 C 0.5737 0.05386 0.99521 0.0
H680 H 0.46368 0.00155 0.93272 0.0
H681 H 0.49604 0.92101 0.86619 0.0
H682 H 0.48384 0.03597 0.89407 0.0
H683 H 0.47582 0.88668 0.90507 0.0
H684 H 0.51437 0.98417 0.09562 0.0
H685 H 0.50459 0.07456 0.16563 0.0
H686 H 0.49575 0.95042 0.13443 0.0
H687 H 0.52412 0.10866 0.12652 0.0
Eu688 Eu 0.02693 0.50184 0.98997 0.0
Eu689 Eu 0.96393 0.47256 0.03722 0.0
C690 C 0.9397 0.40243 0.99104 0.0
C691 C 0.05846 0.51966 0.92562 0.0
C692 C 0.01826 0.48036 0.9159 0.0
C693 C 0.06952 0.55123 0.88637 0.0
C694 C 0.00429 0.47617 0.89157 0.0
C695 C 0.08386 0.55521 0.91077 0.0
C696 C 0.02986 0.51141 0.87656 0.0
C697 C 0.07268 0.52449 0.95141 0.0
O698 O 0.02994 0.47615 0.04958 0.0
O699 O 0.05138 0.46329 0.01271 0.0
C700 C 0.05414 0.46404 0.0364 0.0
O701 O 0.06951 0.55493 0.01976 0.0
O702 O 0.93028 0.42294 0.06395 0.0
O703 O 0.92372 0.48374 0.06365 0.0
O704 O 0.01201 0.549 0.04274 0.0
C705 C 0.05442 0.5717 0.03644 0.0
O706 O 0.97898 0.52993 0.98584 0.0
O707 O 0.92075 0.48002 1.00779 0.0
O708 O 0.94445 0.40781 0.01464 0.0
O709 O 0.06579 0.55308 0.9647 0.0
O710 O 0.06097 0.48635 0.96166 0.0
O711 O 0.96169 0.43705 0.9777 0.0
C712 C 0.93027 0.45722 0.10139 0.0
C713 C 0.96994 0.49782 0.11032 0.0
C714 C 0.91982 0.43008 0.14166 0.0
C715 C 0.98418 0.50469 0.13477 0.0
C716 C 0.90531 0.42339 0.11716 0.0
C717 C 0.95935 0.47087 0.15067 0.0
C718 C 0.91706 0.44842 0.07541 0.0
C719 C 0.93614 0.5103 0.99145 0.0
H720 H -0.00247 0.45288 0.9271 0.0
H721 H 0.08977 0.57879 0.8751 0.0
H722 H 0.97319 0.44543 0.88449 0.0
H723 H 0.11467 0.58601 0.91807 0.0
H724 H 0.99029 0.52394 0.09834 0.0
H725 H 0.90003 0.4036 0.15358 0.0
H726 H 0.01517 0.53615 0.14118 0.0
H727 H 0.87496 0.39158 0.11046 0.0
Eu728 Eu 0.51885 0.48746 0.03806 0.0
Eu729 Eu 0.48025 0.51375 0.989 0.0
C730 C 0.53427 0.58829 0.03232 0.0
C731 C 0.52439 0.47054 0.10312 0.0
C732 C 0.50636 0.49978 0.10676 0.0
C733 C 0.50621 0.44591 0.14365 0.0
C734 C 0.48877 0.50238 0.12864 0.0
C735 C 0.52378 0.44321 0.12158 0.0
C736 C 0.48895 0.47593 0.14746 0.0
C737 C 0.54003 0.46629 0.07933 0.0
O738 O 0.55516 0.53819 0.98511 0.0
O739 O 0.56773 0.49237 1.01015 0.0
C740 C 0.57945 0.51958 0.99224 0.0
O741 O 0.46982 0.42146 0.01673 0.0
O742 O 0.48977 0.56431 0.96317 0.0
O743 O 0.43124 0.49544 0.95792 0.0
O744 O 0.47974 0.44836 0.97921 0.0
C745 C 0.46689 0.41449 0.99324 0.0
O746 O 0.45878 0.49428 0.04851 0.0
O747 O 0.41909 0.47743 1.0116 0.0
O748 O 0.49779 0.57058 0.01721 0.0
O749 O 0.5078 0.43644 0.06384 0.0
O750 O 0.56647 0.50479 0.06977 0.0
O751 O 0.55347 0.56443 0.03881 0.0
C752 C 0.47048 0.52946 0.92383 0.0
C753 C 0.48865 0.50054 0.9194 0.0
C754 C 0.4817 0.55083 0.88239 0.0
C755 C 0.50228 0.496 0.89659 0.0
C756 C 0.4676 0.55506 0.90529 0.0
C757 C 0.49854 0.5207 0.87777 0.0
C758 C 0.45673 0.534 0.94812 0.0
C759 C 0.42023 0.47937 0.03536 0.0
H760 H 0.50571 0.52057 0.09259 0.0
H761 H 0.50713 0.42539 0.15789 0.0
H762 H 0.47509 0.5253 0.13085 0.0
H763 H 0.53686 0.41988 0.11892 0.0
H764 H 0.49212 0.48122 0.9336 0.0
H765 H 0.47828 0.57008 0.86815 0.0
H766 H 0.51566 0.47299 0.89362 0.0
H767 H 0.45428 0.57805 0.9085 0.0
Eu768 Eu 0.14436 0.29642 0.32256 0.0
Eu769 Eu 0.17866 0.36296 0.37439 0.0
C770 C 0.12732 0.38186 0.3307 0.0
C771 C 0.13812 0.27597 0.25534 0.0
C772 C 0.14081 0.31832 0.25186 0.0
C773 C 0.16213 0.27506 0.21462 0.0
C774 C 0.15352 0.33858 0.22992 0.0
C775 C 0.14908 0.25463 0.23657 0.0
C776 C 0.16436 0.31726 0.21098 0.0
C777 C 0.12794 0.25622 0.27911 0.0
O778 O 0.10335 0.31282 0.37443 0.0
O779 O 0.09408 0.25255 0.34906 0.0
C780 C 0.08077 0.26913 0.36696 0.0
O781 O 0.19225 0.28005 0.34367 0.0
O782 O 0.1637 0.39784 0.40384 0.0
O783 O 0.22695 0.39615 0.40601 0.0
O784 O 0.17978 0.29864 0.38156 0.0
C785 C 0.19518 0.27844 0.36716 0.0
O786 O 0.20166 0.36577 0.31548 0.0
O787 O 0.24116 0.38823 0.35248 0.0
O788 O 0.16088 0.4013 0.34783 0.0
O789 O 0.16383 0.26575 0.29321 0.0
O790 O 0.09712 0.26027 0.29079 0.0
O791 O 0.10977 0.33872 0.32262 0.0
C792 C 0.18722 0.38396 0.44165 0.0
C793 C 0.18285 0.34086 0.44502 0.0
C794 C 0.16687 0.38697 0.48305 0.0
C795 C 0.17157 0.32145 0.46721 0.0
C796 C 0.17877 0.4067 0.46081 0.0
C797 C 0.16361 0.34427 0.48658 0.0
C798 C 0.19844 0.40376 0.41786 0.0
C799 C 0.24024 0.38864 0.32879 0.0
H800 H 0.13363 0.33609 0.26624 0.0
H801 H 0.1699 0.25753 0.2004 0.0
H802 H 0.15553 0.37138 0.22792 0.0
H803 H 0.14795 0.22232 0.23898 0.0
H804 H 0.188 0.322 0.43041 0.0
H805 H 0.16106 0.40548 0.49762 0.0
H806 H 0.16859 0.2882 0.46914 0.0
H807 H 0.18131 0.43968 0.45857 0.0
Eu808 Eu 0.69409 0.83614 0.3228 0.0
Eu809 Eu 0.63074 0.80637 0.36988 0.0
C810 C 0.60703 0.73682 0.32362 0.0
C811 C 0.72747 0.85641 0.25871 0.0
C812 C 0.68653 0.81866 0.24845 0.0
C813 C 0.74195 0.88943 0.21982 0.0
C814 C 0.67389 0.81588 0.22402 0.0
C815 C 0.75492 0.89197 0.24432 0.0
C816 C 0.70158 0.85105 0.20945 0.0
C817 C 0.74064 0.85959 0.28452 0.0
O818 O 0.69655 0.80974 0.38242 0.0
O819 O 0.71827 0.79729 0.34554 0.0
C820 C 0.72077 0.79768 0.36923 0.0
O821 O 0.73635 0.88876 0.3528 0.0
O822 O 0.59603 0.75587 0.39605 0.0
O823 O 0.5905 0.8173 0.39638 0.0
O824 O 0.67871 0.88278 0.37566 0.0
C825 C 0.72115 0.9055 0.36943 0.0
O826 O 0.646 0.86411 0.31853 0.0
O827 O 0.58777 0.81397 0.34041 0.0
O828 O 0.61214 0.74202 0.34721 0.0
O829 O 0.7342 0.88812 0.29814 0.0
O830 O 0.72766 0.82068 0.29421 0.0
O831 O 0.62883 0.77156 0.31035 0.0
C832 C 0.59563 0.78892 0.43375 0.0
C833 C 0.6353 0.82903 0.44317 0.0
C834 C 0.58393 0.75993 0.4736 0.0
C835 C 0.64891 0.83475 0.46767 0.0
C836 C 0.57004 0.7544 0.44906 0.0
C837 C 0.62343 0.80025 0.4831 0.0
C838 C 0.58303 0.7813 0.40774 0.0
C839 C 0.60315 0.84439 0.32415 0.0
H840 H 0.66429 0.79124 0.25931 0.0
H841 H 0.76384 0.91689 0.2089 0.0
H842 H 0.64226 0.78624 0.21649 0.0
H843 H 0.78636 0.9216 0.25202 0.0
H844 H 0.65613 0.85565 0.43154 0.0
H845 H 0.56364 0.73296 0.48517 0.0
H846 H 0.67988 0.86588 0.47448 0.0
H847 H 0.53969 0.72295 0.44197 0.0
Eu848 Eu 0.18377 0.81847 0.37185 0.0
Eu849 Eu 0.14597 0.84469 0.32241 0.0
C850 C 0.1975 0.91895 0.3663 0.0
C851 C 0.18999 0.80416 0.43725 0.0
C852 C 0.17403 0.83521 0.44059 0.0
C853 C 0.17193 0.78178 0.47815 0.0
C854 C 0.15761 0.83987 0.46252 0.0
C855 C 0.18843 0.7771 0.45606 0.0
C856 C 0.15676 0.81358 0.48166 0.0
C857 C 0.2043 0.79773 0.41342 0.0
O858 O 0.22131 0.87054 0.31958 0.0
O859 O 0.23335 0.82394 0.34421 0.0
C860 C 0.24549 0.85177 0.32658 0.0
O861 O 0.13546 0.75234 0.35039 0.0
O862 O 0.15619 0.89459 0.29603 0.0
O863 O 0.09737 0.8259 0.29108 0.0
O864 O 0.14609 0.77949 0.31293 0.0
C865 C 0.13272 0.74548 0.3269 0.0
O866 O 0.12338 0.82513 0.38173 0.0
O867 O 0.08433 0.80809 0.34462 0.0
O868 O 0.16204 0.90142 0.35047 0.0
O869 O 0.17096 0.76816 0.39834 0.0
O870 O 0.23182 0.83519 0.40331 0.0
O871 O 0.21682 0.89536 0.37313 0.0
C872 C 0.13749 0.85834 0.25699 0.0
C873 C 0.15623 0.82966 0.25352 0.0
C874 C 0.14854 0.87685 0.21511 0.0
C875 C 0.17005 0.82381 0.23099 0.0
C876 C 0.13424 0.88239 0.23775 0.0
C877 C 0.16594 0.84693 0.21148 0.0
C878 C 0.12331 0.86398 0.281 0.0
C879 C 0.08504 0.80997 0.36836 0.0
H880 H 0.17401 0.85576 0.42614 0.0
H881 H 0.17197 0.76129 0.49263 0.0
H882 H 0.14553 0.86415 0.46451 0.0
H883 H 0.19986 0.75237 0.45365 0.0
H884 H 0.15998 0.81153 0.26826 0.0
H885 H 0.14486 0.89491 0.20031 0.0
H886 H 0.18384 0.80098 0.22878 0.0
H887 H 0.12044 0.90515 0.24019 0.0
Eu888 Eu 0.81273 0.62934 0.65547 0.0
Eu889 Eu 0.84741 0.69583 0.70729 0.0
C890 C 0.79818 0.71509 0.66245 0.0
C891 C 0.80608 0.60877 0.58833 0.0
C892 C 0.81668 0.65427 0.58563 0.0
C893 C 0.82222 0.60291 0.54638 0.0
C894 C 0.82895 0.67357 0.56346 0.0
C895 C 0.80935 0.58336 0.56859 0.0
C896 C 0.83165 0.64811 0.5435 0.0
C897 C 0.79324 0.58883 0.61195 0.0
O898 O 0.78729 0.62801 0.71432 0.0
O899 O 0.74968 0.60526 0.67673 0.0
C900 C 0.74939 0.60516 0.7004 0.0
O901 O 0.82657 0.58898 0.68238 0.0
O902 O 0.8296 0.72646 0.73744 0.0
O903 O 0.89667 0.73278 0.73823 0.0
O904 O 0.87891 0.6507 0.70762 0.0
C905 C 0.8597 0.60729 0.69972 0.0
O906 O 0.88863 0.67725 0.65626 0.0
O907 O 0.8979 0.73863 0.68053 0.0
O908 O 0.80107 0.71409 0.68601 0.0
O909 O 0.82692 0.59324 0.62634 0.0
O910 O 0.76535 0.59802 0.6234 0.0
O911 O 0.81379 0.69469 0.64836 0.0
C912 C 0.85872 0.71744 0.77472 0.0
C913 C 0.85913 0.67657 0.77834 0.0
C914 C 0.83617 0.71784 0.81582 0.0
C915 C 0.84858 0.65678 0.80052 0.0
C916 C 0.84711 0.73785 0.79365 0.0
C917 C 0.83679 0.67702 0.81956 0.0
C918 C 0.86659 0.73659 0.75074 0.0
C919 C 0.9113 0.72122 0.66307 0.0
H920 H 0.81548 0.675 0.60069 0.0
H921 H 0.82384 0.58235 0.53132 0.0
H922 H 0.83665 0.70865 0.56198 0.0
H923 H 0.80186 0.5484 0.57032 0.0
H924 H 0.86694 0.6595 0.76388 0.0
H925 H 0.82758 0.73454 0.83011 0.0
H926 H 0.84872 0.62501 0.80258 0.0
H927 H 0.84596 0.76902 0.79118 0.0
Eu928 Eu 0.36444 0.17873 0.65661 0.0
Eu929 Eu 0.30134 0.14847 0.7038 0.0
C930 C 0.27659 0.0797 0.65698 0.0
C931 C 0.39723 0.19638 0.59242 0.0
C932 C 0.35639 0.1577 0.5828 0.0
C933 C 0.41024 0.22647 0.5528 0.0
C934 C 0.34299 0.15306 0.55834 0.0
C935 C 0.42395 0.23087 0.57732 0.0
C936 C 0.36985 0.18726 0.54309 0.0
C937 C 0.41093 0.20158 0.61829 0.0
O938 O 0.36819 0.15405 0.71616 0.0
O939 O 0.3884 0.13965 0.67934 0.0
C940 C 0.39169 0.14103 0.70304 0.0
O941 O 0.40547 0.23296 0.68623 0.0
O942 O 0.26813 0.09777 0.73008 0.0
O943 O 0.26099 0.1583 0.73066 0.0
O944 O 0.34689 0.22533 0.70881 0.0
C945 C 0.38911 0.24933 0.70241 0.0
O946 O 0.31476 0.20478 0.65187 0.0
O947 O 0.25755 0.15559 0.6747 0.0
O948 O 0.28186 0.08435 0.68059 0.0
O949 O 0.40328 0.22993 0.63131 0.0
O950 O 0.39939 0.16361 0.62867 0.0
O951 O 0.29911 0.11454 0.64389 0.0
C952 C 0.26805 0.13056 0.7679 0.0
C953 C 0.30786 0.17085 0.77699 0.0
C954 C 0.25792 0.10208 0.80786 0.0
C955 C 0.32231 0.17694 0.80137 0.0
C956 C 0.24319 0.09618 0.78343 0.0
C957 C 0.29753 0.14262 0.81703 0.0
C958 C 0.25466 0.1226 0.74197 0.0
C959 C 0.27219 0.18522 0.65802 0.0
H960 H 0.33472 0.13104 0.5942 0.0
H961 H 0.43151 0.25323 0.54136 0.0
H962 H 0.31133 0.12284 0.55137 0.0
H963 H 0.45532 0.26119 0.58452 0.0
H964 H 0.32814 0.19736 0.76517 0.0
H965 H 0.23818 0.07524 0.81961 0.0
H966 H 0.35335 0.20823 0.80792 0.0
H967 H 0.21276 0.06457 0.77659 0.0
Eu968 Eu 0.8464 0.14301 0.7048 0.0
Eu969 Eu 0.80754 0.16895 0.65567 0.0
C970 C 0.85691 0.2424 0.70006 0.0
C971 C 0.85495 0.12843 0.77006 0.0
C972 C 0.8384 0.15888 0.77391 0.0
C973 C 0.83855 0.10546 0.81099 0.0
C974 C 0.82257 0.16301 0.79613 0.0
C975 C 0.85452 0.10137 0.78863 0.0
C976 C 0.82283 0.13671 0.81502 0.0
C977 C 0.86884 0.12266 0.746 0.0
O978 O 0.88323 0.19691 0.65311 0.0
O979 O 0.89553 0.14925 0.67666 0.0
C980 C 0.90757 0.17797 0.65944 0.0
O981 O 0.79704 0.07681 0.68382 0.0
O982 O 0.81683 0.21929 0.62975 0.0
O983 O 0.75975 0.1497 0.62392 0.0
O984 O 0.80755 0.1036 0.64631 0.0
C985 C 0.79384 0.06966 0.66035 0.0
O986 O 0.78526 0.14796 0.71525 0.0
O987 O 0.74624 0.13327 0.67817 0.0
O988 O 0.82182 0.22456 0.684 0.0
O989 O 0.83544 0.09276 0.73105 0.0
O990 O 0.89542 0.16045 0.73588 0.0
O991 O 0.87733 0.21971 0.70668 0.0
C992 C 0.80086 0.1845 0.5905 0.0
C993 C 0.8227 0.15859 0.5874 0.0
C994 C 0.81173 0.2033 0.54867 0.0
C995 C 0.83795 0.15416 0.56505 0.0
C996 C 0.796 0.20739 0.57112 0.0
C997 C 0.83217 0.176 0.54537 0.0
C998 C 0.78508 0.1885 0.6143 0.0
C999 C 0.74712 0.1344 0.70192 0.0
H1000 H 0.8375 0.17941 0.75965 0.0
H1001 H 0.83944 0.085 0.82527 0.0
H1002 H 0.81007 0.18688 0.79854 0.0
H1003 H 0.86643 0.07711 0.78582 0.0
H1004 H 0.82768 0.14144 0.60228 0.0
H1005 H 0.8067 0.22028 0.53373 0.0
H1006 H 0.85403 0.13335 0.56309 0.0
H1007 H 0.77981 0.22805 0.57329 0.0
loop_
_geom_bond_atom_site_label_1
_geom_bond_atom_site_label_2
_geom_bond_distance
_geom_bond_site_symmetry_2
_ccdc_geom_bond_type
C0 C1 1.384 . S
C0 H13 0.947 1_545 S
C0 C35 1.382 . S
C1 C0 1.384 . S
C1 C2 1.401 . S
C2 C1 1.401 . S
C2 C3 1.378 . S
C2 H14 0.952 . S
C3 C2 1.378 . S
C3 H15 0.950 . S
C3 C34 1.383 . S
H4 C23 0.947 . S
H5 C24 0.946 . S
H6 C26 0.953 . S
H7 C27 0.945 . S
H8 C29 0.952 . S
H9 C30 0.949 . S
H10 C32 0.950 . S
H11 C33 0.948 . S
H12 C35 0.951 . S
H13 C0 0.947 1_565 S
H14 C2 0.952 . S
H15 C3 0.950 . S
N16 C19 1.382 . S
N16 C21 1.363 . S
N17 C19 1.371 . S
N17 C20 1.372 . S
N18 C20 1.361 . S
N18 C21 1.377 . S
C19 N16 1.382 . S
C19 N17 1.371 . S
C19 C22 1.480 . S
C20 N17 1.372 . S
C20 N18 1.361 . S
C20 C28 1.457 . S
C21 N16 1.363 . S
C21 N18 1.377 . S
C21 C34 1.479 . S
C22 C19 1.480 . S
C22 C23 1.383 . S
C22 C27 1.385 . S
C23 H4 0.947 . S
C23 C22 1.383 . S
C23 C24 1.388 . S
C24 H5 0.946 . S
C24 C23 1.388 . S
C24 C25 1.384 . S
C25 C24 1.384 . S
C25 C26 1.377 . S
C26 H6 0.953 . S
C26 C25 1.377 . S
C26 C27 1.369 . S
C27 H7 0.945 . S
C27 C22 1.385 . S
C27 C26 1.369 . S
C28 C20 1.457 . S
C28 C29 1.372 . S
C28 C33 1.364 . S
C29 H8 0.952 . S
C29 C28 1.372 . S
C29 C30 1.389 . S
C30 H9 0.949 . S
C30 C29 1.389 . S
C30 C31 1.387 . S
C31 C30 1.387 . S
C31 C32 1.372 . S
C32 H10 0.950 . S
C32 C31 1.372 . S
C32 C33 1.379 . S
C33 H11 0.948 . S
C33 C28 1.364 . S
C33 C32 1.379 . S
C34 C3 1.383 . S
C34 C21 1.479 . S
C34 C35 1.398 . S
C35 C0 1.382 . S
C35 H12 0.951 . S
C35 C34 1.398 . S
C36 C37 1.384 . S
C36 H49 0.947 . S
C36 C71 1.382 1_455 S
C37 C36 1.384 . S
C37 C38 1.378 1_455 S
C38 C37 1.378 1_655 S
C38 C39 1.378 . S
C38 H50 0.952 . S
C39 C38 1.378 . S
C39 H51 0.950 . S
C39 C70 1.383 . S
H40 C59 0.947 . S
H41 C60 0.946 . S
H42 C62 0.952 1_565 S
H43 C63 0.945 . S
H44 C65 0.952 . S
H45 C66 0.949 . S
H46 C68 0.950 . S
H47 C69 0.948 . S
H48 C71 0.951 . S
H49 C36 0.947 . S
H50 C38 0.952 . S
H51 C39 0.950 . S
N52 C55 1.382 . S
N52 C57 1.363 . S
N53 C55 1.371 . S
N53 C56 1.372 . S
N54 C56 1.361 . S
N54 C57 1.377 . S
C55 N52 1.382 . S
C55 N53 1.371 . S
C55 C58 1.480 . S
C56 N53 1.372 . S
C56 N54 1.361 . S
C56 C64 1.457 . S
C57 N52 1.363 . S
C57 N54 1.377 . S
C57 C70 1.479 . S
C58 C55 1.480 . S
C58 C59 1.383 . S
C58 C63 1.385 . S
C59 H40 0.947 . S
C59 C58 1.383 . S
C59 C60 1.388 . S
C60 H41 0.946 . S
C60 C59 1.388 . S
C60 C61 1.384 1_545 S
C61 C60 1.384 1_565 S
C61 C62 1.376 1_565 S
C62 H42 0.952 1_545 S
C62 C61 1.376 1_545 S
C62 C63 1.371 . S
C63 H43 0.945 . S
C63 C58 1.385 . S
C63 C62 1.371 . S
C64 C56 1.457 . S
C64 C65 1.372 . S
C64 C69 1.364 . S
C65 H44 0.952 . S
C65 C64 1.372 . S
C65 C66 1.389 . S
C66 H45 0.949 . S
C66 C65 1.389 . S
C66 C67 1.387 . S
C67 C66 1.387 . S
C67 C68 1.372 . S
C68 H46 0.950 . S
C68 C67 1.372 . S
C68 C69 1.379 . S
C69 H47 0.948 . S
C69 C64 1.364 . S
C69 C68 1.379 . S
C70 C39 1.383 . S
C70 C57 1.479 . S
C70 C71 1.398 . S
C71 C36 1.382 1_655 S
C71 H48 0.951 . S
C71 C70 1.398 . S
C72 C73 1.384 . S
C72 H85 0.947 . S
C72 C107 1.382 . S
C73 C72 1.384 . S
C73 C74 1.378 . S
C74 C73 1.378 . S
C74 C75 1.378 . S
C74 H86 0.952 . S
C75 C74 1.378 . S
C75 H87 0.950 . S
C75 C106 1.383 . S
H76 C95 0.947 . S
H77 C96 0.946 . S
H78 C98 0.953 . S
H79 C99 0.945 . S
H80 C101 0.952 . S
H81 C102 0.949 . S
H82 C104 0.950 . S
H83 C105 0.948 . S
H84 C107 0.951 . S
H85 C72 0.947 . S
H86 C74 0.952 . S
H87 C75 0.950 . S
N88 C91 1.382 . S
N88 C93 1.363 . S
N89 C91 1.371 . S
N89 C92 1.372 . S
N90 C92 1.361 . S
N90 C93 1.377 . S
C91 N88 1.382 . S
C91 N89 1.371 . S
C91 C94 1.480 . S
C92 N89 1.372 . S
C92 N90 1.361 . S
C92 C100 1.457 . S
C93 N88 1.363 . S
C93 N90 1.377 . S
C93 C106 1.479 . S
C94 C91 1.480 . S
C94 C95 1.383 . S
C94 C99 1.385 . S
C95 H76 0.947 . S
C95 C94 1.383 . S
C95 C96 1.388 1_655 S
C96 H77 0.946 . S
C96 C95 1.388 1_455 S
C96 C97 1.384 . S
C97 C96 1.384 . S
C97 C98 1.377 . S
C98 H78 0.953 . S
C98 C97 1.377 . S
C98 C99 1.369 1_455 S
C99 H79 0.945 . S
C99 C94 1.385 . S
C99 C98 1.369 1_655 S
C100 C92 1.457 . S
C100 C101 1.372 . S
C100 C105 1.364 . S
C101 H80 0.952 . S
C101 C100 1.372 . S
C101 C102 1.389 . S
C102 H81 0.949 . S
C102 C101 1.389 . S
C102 C103 1.387 . S
C103 C102 1.387 . S
C103 C104 1.372 . S
C104 H82 0.950 . S
C104 C103 1.372 . S
C104 C105 1.379 . S
C105 H83 0.948 . S
C105 C100 1.364 . S
C105 C104 1.379 . S
C106 C75 1.383 . S
C106 C93 1.479 . S
C106 C107 1.398 . S
C107 C72 1.382 . S
C107 H84 0.951 . S
C107 C106 1.398 . S
C108 C109 1.384 . S
C108 H121 0.947 . S
C108 C143 1.382 1_655 S
C109 C108 1.384 . S
C109 C110 1.378 1_655 S
C110 C109 1.378 1_455 S
C110 C111 1.378 . S
C110 H122 0.952 1_455 S
C111 C110 1.378 . S
C111 H123 0.950 . S
C111 C142 1.383 . S
H112 C131 0.947 . S
H113 C132 0.946 . S
H114 C134 0.953 . S
H115 C135 0.945 . S
H116 C137 0.952 . S
H117 C138 0.949 . S
H118 C140 0.950 . S
H119 C141 0.948 . S
H120 C143 0.951 . S
H121 C108 0.947 . S
H122 C110 0.952 1_655 S
H123 C111 0.950 . S
N124 C127 1.382 . S
N124 C129 1.363 . S
N125 C127 1.371 . S
N125 C128 1.372 . S
N126 C128 1.361 . S
N126 C129 1.377 . S
C127 N124 1.382 . S
C127 N125 1.371 . S
C127 C130 1.480 . S
C128 N125 1.372 . S
C128 N126 1.361 . S
C128 C136 1.457 . S
C129 N124 1.363 . S
C129 N126 1.377 . S
C129 C142 1.479 . S
C130 C127 1.480 . S
C130 C131 1.383 . S
C130 C135 1.385 . S
C131 H112 0.947 . S
C131 C130 1.383 . S
C131 C132 1.388 . S
C132 H113 0.946 . S
C132 C131 1.388 . S
C132 C133 1.384 . S
C133 C132 1.384 . S
C133 C134 1.377 . S
C134 H114 0.953 . S
C134 C133 1.377 . S
C134 C135 1.369 . S
C135 H115 0.945 . S
C135 C130 1.385 . S
C135 C134 1.369 . S
C136 C128 1.457 . S
C136 C137 1.372 . S
C136 C141 1.364 . S
C137 H116 0.952 . S
C137 C136 1.372 . S
C137 C138 1.389 . S
C138 H117 0.949 . S
C138 C137 1.389 . S
C138 C139 1.387 . S
C139 C138 1.387 . S
C139 C140 1.372 . S
C140 H118 0.950 . S
C140 C139 1.372 . S
C140 C141 1.379 . S
C141 H119 0.948 . S
C141 C136 1.364 . S
C141 C140 1.379 . S
C142 C111 1.383 . S
C142 C129 1.479 . S
C142 C143 1.398 . S
C143 C108 1.382 1_455 S
C143 H120 0.951 . S
C143 C142 1.398 . S
C144 C145 1.384 . S
C144 H157 0.947 . S
C144 C179 1.382 . S
C145 C144 1.384 . S
C145 C146 1.378 . S
C146 C145 1.378 . S
C146 C147 1.378 . S
C146 H158 0.952 . S
C147 C146 1.378 . S
C147 H159 0.950 . S
C147 C178 1.383 . S
H148 C167 0.947 . S
H149 C168 0.946 . S
H150 C170 0.953 1_545 S
H151 C171 0.945 . S
H152 C173 0.952 . S
H153 C174 0.949 . S
H154 C176 0.950 . S
H155 C177 0.948 . S
H156 C179 0.951 . S
H157 C144 0.947 . S
H158 C146 0.952 . S
H159 C147 0.950 . S
N160 C163 1.382 . S
N160 C165 1.363 . S
N161 C163 1.371 . S
N161 C164 1.372 . S
N162 C164 1.361 . S
N162 C165 1.377 . S
C163 N160 1.382 . S
C163 N161 1.371 . S
C163 C166 1.480 . S
C164 N161 1.372 . S
C164 N162 1.361 . S
C164 C172 1.457 . S
C165 N160 1.363 . S
C165 N162 1.377 . S
C165 C178 1.479 . S
C166 C163 1.480 . S
C166 C167 1.383 . S
C166 C171 1.385 . S
C167 H148 0.947 . S
C167 C166 1.383 . S
C167 C168 1.388 . S
C168 H149 0.946 . S
C168 C167 1.388 . S
C168 C169 1.384 1_565 S
C169 C168 1.384 1_545 S
C169 C170 1.377 1_545 S
C170 H150 0.953 1_565 S
C170 C169 1.377 1_565 S
C170 C171 1.369 . S
C171 H151 0.945 . S
C171 C166 1.385 . S
C171 C170 1.369 . S
C172 C164 1.457 . S
C172 C173 1.372 . S
C172 C177 1.364 . S
C173 H152 0.952 . S
C173 C172 1.372 . S
C173 C174 1.389 . S
C174 H153 0.949 . S
C174 C173 1.389 . S
C174 C175 1.387 . S
C175 C174 1.387 . S
C175 C176 1.372 . S
C176 H154 0.950 . S
C176 C175 1.372 . S
C176 C177 1.379 . S
C177 H155 0.948 . S
C177 C172 1.364 . S
C177 C176 1.379 . S
C178 C147 1.383 . S
C178 C165 1.479 . S
C178 C179 1.398 . S
C179 C144 1.382 . S
C179 H156 0.951 . S
C179 C178 1.398 . S
C180 C181 1.384 . S
C180 H193 0.947 . S
C180 C215 1.382 1_545 S
C181 C180 1.384 . S
C181 C182 1.378 1_545 S
C182 C181 1.378 1_565 S
C182 C183 1.378 . S
C182 H194 0.952 . S
C183 C182 1.378 . S
C183 H195 0.950 . S
C183 C214 1.383 . S
H184 C203 0.947 . S
H185 C204 0.946 . S
H186 C206 0.953 . S
H187 C207 0.945 . S
H188 C209 0.952 . S
H189 C210 0.949 . S
H190 C212 0.950 . S
H191 C213 0.948 . S
H192 C215 0.951 . S
H193 C180 0.947 . S
H194 C182 0.952 . S
H195 C183 0.950 . S
N196 C199 1.382 . S
N196 C201 1.363 . S
N197 C199 1.371 . S
N197 C200 1.372 . S
N198 C200 1.361 . S
N198 C201 1.377 . S
C199 N196 1.382 . S
C199 N197 1.371 . S
C199 C202 1.480 . S
C200 N197 1.372 . S
C200 N198 1.361 . S
C200 C208 1.457 . S
C201 N196 1.363 . S
C201 N198 1.377 . S
C201 C214 1.479 . S
C202 C199 1.480 . S
C202 C203 1.383 . S
C202 C207 1.385 . S
C203 H184 0.947 . S
C203 C202 1.383 . S
C203 C204 1.388 . S
C204 H185 0.946 . S
C204 C203 1.388 . S
C204 C205 1.384 1_455 S
C205 C204 1.384 1_655 S
C205 C206 1.377 . S
C206 H186 0.953 . S
C206 C205 1.377 . S
C206 C207 1.369 1_655 S
C207 H187 0.945 . S
C207 C202 1.385 . S
C207 C206 1.369 1_455 S
C208 C200 1.457 . S
C208 C209 1.372 . S
C208 C213 1.364 . S
C209 H188 0.952 . S
C209 C208 1.372 . S
C209 C210 1.389 . S
C210 H189 0.949 . S
C210 C209 1.389 . S
C210 C211 1.387 . S
C211 C210 1.387 . S
C211 C212 1.372 . S
C212 H190 0.950 . S
C212 C211 1.372 . S
C212 C213 1.379 . S
C213 H191 0.948 . S
C213 C208 1.364 . S
C213 C212 1.379 . S
C214 C183 1.383 . S
C214 C201 1.479 . S
C214 C215 1.398 . S
C215 C180 1.382 1_565 S
C215 H192 0.951 . S
C215 C214 1.398 . S
C216 C217 1.384 . S
C216 H229 0.947 . S
C216 C251 1.382 . S
C217 C216 1.384 . S
C217 C218 1.378 . S
C218 C217 1.378 . S
C218 C219 1.378 . S
C218 H230 0.952 . S
C219 C218 1.378 . S
C219 H231 0.950 . S
C219 C250 1.383 . S
H220 C239 0.947 . S
H221 C240 0.946 . S
H222 C242 0.953 . S
H223 C243 0.945 . S
H224 C245 0.952 . S
H225 C246 0.958 . S
H226 C248 0.950 . S
H227 C249 0.948 . S
H228 C251 0.951 . S
H229 C216 0.947 . S
H230 C218 0.952 . S
H231 C219 0.950 . S
N232 C235 1.382 . S
N232 C237 1.363 . S
N233 C235 1.371 . S
N233 C236 1.372 . S
N234 C236 1.361 . S
N234 C237 1.377 . S
C235 N232 1.382 . S
C235 N233 1.371 . S
C235 C238 1.480 . S
C236 N233 1.372 . S
C236 N234 1.361 . S
C236 C244 1.457 . S
C237 N232 1.363 . S
C237 N234 1.377 . S
C237 C250 1.479 . S
C238 C235 1.480 . S
C238 C239 1.383 . S
C238 C243 1.385 . S
C239 H220 0.947 . S
C239 C238 1.383 . S
C239 C240 1.388 . S
C240 H221 0.946 . S
C240 C239 1.388 . S
C240 C241 1.384 . S
C241 C240 1.384 . S
C241 C242 1.377 . S
C242 H222 0.953 . S
C242 C241 1.377 . S
C242 C243 1.369 . S
C243 H223 0.945 . S
C243 C238 1.385 . S
C243 C242 1.369 . S
C244 C236 1.457 . S
C244 C245 1.372 . S
C244 C249 1.364 1_655 S
C245 H224 0.952 . S
C245 C244 1.372 . S
C245 C246 1.389 1_655 S
C246 H225 0.958 . S
C246 C245 1.389 1_455 S
C246 C247 1.387 . S
C247 C246 1.387 . S
C247 C248 1.372 . S
C248 H226 0.950 . S
C248 C247 1.372 . S
C248 C249 1.379 . S
C249 H227 0.948 . S
C249 C244 1.364 1_455 S
C249 C248 1.379 . S
C250 C219 1.383 . S
C250 C237 1.479 . S
C250 C251 1.398 . S
C251 C216 1.382 . S
C251 H228 0.951 . S
C251 C250 1.398 . S
C252 C253 1.384 . S
C252 H265 0.947 . S
C252 C287 1.382 . S
C253 C252 1.384 . S
C253 C254 1.378 . S
C254 C253 1.378 . S
C254 C255 1.378 . S
C254 H266 0.952 . S
C255 C254 1.378 . S
C255 H267 0.950 . S
C255 C286 1.383 . S
H256 C275 0.947 . S
H257 C276 0.946 . S
H258 C278 0.953 . S
H259 C279 0.945 . S
H260 C281 0.952 . S
H261 C282 0.949 . S
H262 C284 0.950 . S
H263 C285 0.948 . S
H264 C287 0.951 . S
H265 C252 0.947 . S
H266 C254 0.952 . S
H267 C255 0.950 . S
N268 C271 1.382 . S
N268 C273 1.363 . S
N269 C271 1.371 . S
N269 C272 1.372 . S
N270 C272 1.361 . S
N270 C273 1.377 . S
C271 N268 1.382 . S
C271 N269 1.371 . S
C271 C274 1.480 . S
C272 N269 1.372 . S
C272 N270 1.361 . S
C272 C280 1.457 . S
C273 N268 1.363 . S
C273 N270 1.377 . S
C273 C286 1.479 . S
C274 C271 1.480 . S
C274 C275 1.383 . S
C274 C279 1.385 . S
C275 H256 0.947 . S
C275 C274 1.383 . S
C275 C276 1.388 . S
C276 H257 0.946 . S
C276 C275 1.388 . S
C276 C277 1.384 . S
C277 C276 1.384 . S
C277 C278 1.377 . S
C278 H258 0.953 . S
C278 C277 1.377 . S
C278 C279 1.369 . S
C279 H259 0.945 . S
C279 C274 1.385 . S
C279 C278 1.369 . S
C280 C272 1.457 . S
C280 C281 1.372 . S
C280 C285 1.364 . S
C281 H260 0.952 . S
C281 C280 1.372 . S
C281 C282 1.389 . S
C282 H261 0.949 . S
C282 C281 1.389 . S
C282 C283 1.387 . S
C283 C282 1.387 . S
C283 C284 1.372 . S
C284 H262 0.950 . S
C284 C283 1.372 . S
C284 C285 1.379 . S
C285 H263 0.948 . S
C285 C280 1.364 . S
C285 C284 1.379 . S
C286 C255 1.383 . S
C286 C273 1.479 . S
C286 C287 1.398 . S
C287 C252 1.382 . S
C287 H264 0.951 . S
C287 C286 1.398 . S
C288 C289 1.384 . S
C288 H301 0.947 . S
C288 C323 1.382 . S
C289 C288 1.384 . S
C289 C290 1.378 . S
C290 C289 1.378 . S
C290 C291 1.378 . S
C290 H302 0.952 . S
C291 C290 1.378 . S
C291 H303 0.950 . S
C291 C322 1.383 . S
H292 C311 0.947 . S
H293 C312 0.946 . S
H294 C314 0.953 . S
H295 C315 0.945 . S
H296 C317 0.952 . S
H297 C318 0.949 . S
H298 C320 0.950 . S
H299 C321 0.948 . S
H300 C323 0.951 . S
H301 C288 0.947 . S
H302 C290 0.952 . S
H303 C291 0.950 . S
N304 C307 1.382 . S
N304 C309 1.363 . S
N305 C307 1.371 . S
N305 C308 1.372 . S
N306 C308 1.361 . S
N306 C309 1.377 . S
C307 N304 1.382 . S
C307 N305 1.371 . S
C307 C310 1.480 . S
C308 N305 1.372 . S
C308 N306 1.361 . S
C308 C316 1.457 . S
C309 N304 1.363 . S
C309 N306 1.377 . S
C309 C322 1.479 . S
C310 C307 1.480 . S
C310 C311 1.383 . S
C310 C315 1.385 . S
C311 H292 0.947 . S
C311 C310 1.383 . S
C311 C312 1.388 . S
C312 H293 0.946 . S
C312 C311 1.388 . S
C312 C313 1.384 . S
C313 C312 1.384 . S
C313 C314 1.377 . S
C314 H294 0.953 . S
C314 C313 1.377 . S
C314 C315 1.369 . S
C315 H295 0.945 . S
C315 C310 1.385 . S
C315 C314 1.369 . S
C316 C308 1.457 . S
C316 C317 1.372 . S
C316 C321 1.364 . S
C317 H296 0.952 . S
C317 C316 1.372 . S
C317 C318 1.389 . S
C318 H297 0.949 . S
C318 C317 1.389 . S
C318 C319 1.387 . S
C319 C318 1.387 . S
C319 C320 1.372 . S
C320 H298 0.950 . S
C320 C319 1.372 . S
C320 C321 1.379 . S
C321 H299 0.948 . S
C321 C316 1.364 . S
C321 C320 1.379 . S
C322 C291 1.383 . S
C322 C309 1.479 . S
C322 C323 1.398 . S
C323 C288 1.382 . S
C323 H300 0.951 . S
C323 C322 1.398 . S
C324 C325 1.384 . S
C324 H337 0.947 . S
C324 C359 1.382 . S
C325 C324 1.384 . S
C325 C326 1.378 . S
C326 C325 1.378 . S
C326 C327 1.378 . S
C326 H338 0.952 1_556 S
C327 C326 1.378 . S
C327 H339 0.950 . S
C327 C358 1.383 . S
H328 C347 0.947 . S
H329 C348 0.946 1_554 S
H330 C350 0.953 . S
H331 C351 0.945 . S
H332 C353 0.952 . S
H333 C354 0.949 . S
H334 C356 0.950 . S
H335 C357 0.948 . S
H336 C359 0.951 . S
H337 C324 0.947 . S
H338 C326 0.952 1_554 S
H339 C327 0.950 . S
N340 C343 1.382 . S
N340 C345 1.363 . S
N341 C343 1.371 . S
N341 C344 1.372 . S
N342 C344 1.361 . S
N342 C345 1.377 . S
C343 N340 1.382 . S
C343 N341 1.371 . S
C343 C346 1.480 . S
C344 N341 1.372 . S
C344 N342 1.361 . S
C344 C352 1.457 . S
C345 N340 1.363 . S
C345 N342 1.377 . S
C345 C358 1.479 . S
C346 C343 1.480 . S
C346 C347 1.383 . S
C346 C351 1.385 . S
C347 H328 0.947 . S
C347 C346 1.383 . S
C347 C348 1.388 . S
C348 H329 0.946 1_556 S
C348 C347 1.388 . S
C348 C349 1.384 . S
C349 C348 1.384 . S
C349 C350 1.377 . S
C350 H330 0.953 . S
C350 C349 1.377 . S
C350 C351 1.369 . S
C351 H331 0.945 . S
C351 C346 1.385 . S
C351 C350 1.369 . S
C352 C344 1.457 . S
C352 C353 1.372 . S
C352 C357 1.364 . S
C353 H332 0.952 . S
C353 C352 1.372 . S
C353 C354 1.389 . S
C354 H333 0.949 . S
C354 C353 1.389 . S
C354 C355 1.387 . S
C355 C354 1.387 . S
C355 C356 1.372 . S
C356 H334 0.950 . S
C356 C355 1.372 . S
C356 C357 1.379 . S
C357 H335 0.948 . S
C357 C352 1.364 . S
C357 C356 1.379 . S
C358 C327 1.383 . S
C358 C345 1.479 . S
C358 C359 1.398 . S
C359 C324 1.382 . S
C359 H336 0.951 . S
C359 C358 1.398 . S
C360 C361 1.384 . S
C360 H373 0.947 . S
C360 C395 1.382 . S
C361 C360 1.384 . S
C361 C362 1.378 1_556 S
C362 C361 1.378 1_554 S
C362 C363 1.378 1_554 S
C362 H374 0.952 . S
C363 C362 1.378 1_556 S
C363 H375 0.950 1_556 S
C363 C394 1.383 . S
H364 C383 0.947 1_554 S
H365 C384 0.946 . S
H366 C386 0.953 . S
H367 C387 0.945 . S
H368 C389 0.952 . S
H369 C390 0.949 . S
H370 C392 0.950 . S
H371 C393 0.948 . S
H372 C395 0.951 . S
H373 C360 0.947 . S
H374 C362 0.952 . S
H375 C363 0.950 1_554 S
N376 C379 1.382 . S
N376 C381 1.363 . S
N377 C379 1.371 . S
N377 C380 1.372 . S
N378 C380 1.361 . S
N378 C381 1.377 . S
C379 N376 1.382 . S
C379 N377 1.371 . S
C379 C382 1.480 . S
C380 N377 1.372 . S
C380 N378 1.361 . S
C380 C388 1.457 . S
C381 N376 1.363 . S
C381 N378 1.377 . S
C381 C394 1.479 . S
C382 C379 1.480 . S
C382 C383 1.383 . S
C382 C387 1.385 . S
C383 H364 0.947 1_556 S
C383 C382 1.383 . S
C383 C384 1.388 1_556 S
C384 H365 0.946 . S
C384 C383 1.388 1_554 S
C384 C385 1.384 1_554 S
C385 C384 1.384 1_556 S
C385 C386 1.377 . S
C386 H366 0.953 . S
C386 C385 1.377 . S
C386 C387 1.369 . S
C387 H367 0.945 . S
C387 C382 1.385 . S
C387 C386 1.369 . S
C388 C380 1.457 . S
C388 C389 1.372 . S
C388 C393 1.364 . S
C389 H368 0.952 . S
C389 C388 1.372 . S
C389 C390 1.389 . S
C390 H369 0.949 . S
C390 C389 1.389 . S
C390 C391 1.387 . S
C391 C390 1.387 . S
C391 C392 1.372 . S
C392 H370 0.950 . S
C392 C391 1.372 . S
C392 C393 1.379 . S
C393 H371 0.948 . S
C393 C388 1.364 . S
C393 C392 1.379 . S
C394 C363 1.383 . S
C394 C381 1.479 . S
C394 C395 1.398 . S
C395 C360 1.382 . S
C395 H372 0.951 . S
C395 C394 1.398 . S
C396 C397 1.384 . S
C396 H409 0.947 . S
C396 C431 1.382 . S
C397 C396 1.384 . S
C397 C398 1.378 1_556 S
C398 C397 1.378 1_554 S
C398 C399 1.378 1_554 S
C398 H410 0.952 . S
C399 C398 1.378 1_556 S
C399 H411 0.952 1_556 S
C399 C430 1.383 . S
H400 C419 0.947 . S
H401 C420 0.946 1_554 S
H402 C422 0.953 . S
H403 C423 0.945 . S
H404 C425 0.952 . S
H405 C426 0.949 . S
H406 C428 0.950 . S
H407 C429 0.948 . S
H408 C431 0.951 . S
H409 C396 0.947 . S
H410 C398 0.952 . S
H411 C399 0.952 1_554 S
N412 C415 1.382 . S
N412 C417 1.363 . S
N413 C415 1.371 . S
N413 C416 1.372 . S
N414 C416 1.361 . S
N414 C417 1.377 . S
C415 N412 1.382 . S
C415 N413 1.371 . S
C415 C418 1.480 . S
C416 N413 1.372 . S
C416 N414 1.361 . S
C416 C424 1.457 . S
C417 N412 1.363 . S
C417 N414 1.377 . S
C417 C430 1.479 . S
C418 C415 1.480 . S
C418 C419 1.383 . S
C418 C423 1.385 . S
C419 H400 0.947 . S
C419 C418 1.383 . S
C419 C420 1.388 . S
C420 H401 0.946 1_556 S
C420 C419 1.388 . S
C420 C421 1.384 . S
C421 C420 1.384 . S
C421 C422 1.377 . S
C422 H402 0.953 . S
C422 C421 1.377 . S
C422 C423 1.369 . S
C423 H403 0.945 . S
C423 C418 1.385 . S
C423 C422 1.369 . S
C424 C416 1.457 . S
C424 C425 1.372 . S
C424 C429 1.364 . S
C425 H404 0.952 . S
C425 C424 1.372 . S
C425 C426 1.389 . S
C426 H405 0.949 . S
C426 C425 1.389 . S
C426 C427 1.387 . S
C427 C426 1.387 . S
C427 C428 1.372 . S
C428 H406 0.950 . S
C428 C427 1.372 . S
C428 C429 1.379 . S
C429 H407 0.948 . S
C429 C424 1.364 . S
C429 C428 1.379 . S
C430 C399 1.383 . S
C430 C417 1.479 . S
C430 C431 1.398 . S
C431 C396 1.382 . S
C431 H408 0.951 . S
C431 C430 1.398 . S
C432 C433 1.384 . S
C432 H445 0.947 . S
C432 C467 1.382 . S
C433 C432 1.384 . S
C433 C434 1.378 1_554 S
C434 C433 1.378 1_556 S
C434 C435 1.378 1_556 S
C434 H446 0.952 . S
C435 C434 1.378 1_554 S
C435 H447 0.950 1_554 S
C435 C466 1.383 . S
H436 C455 0.947 . S
H437 C456 0.955 . S
H438 C458 0.934 1_545 S
H439 C459 0.945 . S
H440 C461 0.952 . S
H441 C462 0.949 . S
H442 C464 0.950 . S
H443 C465 0.948 . S
H444 C467 0.951 . S
H445 C432 0.947 . S
H446 C434 0.952 . S
H447 C435 0.950 1_556 S
N448 C451 1.382 . S
N448 C453 1.363 . S
N449 C451 1.371 . S
N449 C452 1.372 . S
N450 C452 1.361 . S
N450 C453 1.377 . S
C451 N448 1.382 . S
C451 N449 1.371 . S
C451 C454 1.480 . S
C452 N449 1.372 . S
C452 N450 1.361 . S
C452 C460 1.457 . S
C453 N448 1.363 . S
C453 N450 1.377 . S
C453 C466 1.479 . S
C454 C451 1.480 . S
C454 C455 1.383 . S
C454 C459 1.385 . S
C455 H436 0.947 . S
C455 C454 1.383 . S
C455 C456 1.383 1_554 S
C456 H437 0.955 . S
C456 C455 1.383 1_556 S
C456 C457 1.379 1_556 S
C457 C456 1.379 1_554 S
C457 C458 1.377 . S
C458 H438 0.934 1_565 S
C458 C457 1.377 . S
C458 C459 1.369 . S
C459 H439 0.945 . S
C459 C454 1.385 . S
C459 C458 1.369 . S
C460 C452 1.457 . S
C460 C461 1.372 . S
C460 C465 1.364 . S
C461 H440 0.952 . S
C461 C460 1.372 . S
C461 C462 1.389 . S
C462 H441 0.949 . S
C462 C461 1.389 . S
C462 C463 1.387 . S
C463 C462 1.387 . S
C463 C464 1.372 . S
C464 H442 0.950 . S
C464 C463 1.372 . S
C464 C465 1.379 . S
C465 H443 0.948 . S
C465 C460 1.364 . S
C465 C464 1.379 . S
C466 C435 1.383 . S
C466 C453 1.479 . S
C466 C467 1.398 . S
C467 C432 1.382 . S
C467 H444 0.951 . S
C467 C466 1.398 . S
C468 C469 1.384 . S
C468 H481 0.947 . S
C468 C503 1.382 . S
C469 C468 1.384 . S
C469 C470 1.378 . S
C470 C469 1.378 . S
C470 C471 1.378 . S
C470 H482 0.952 1_554 S
C471 C470 1.378 . S
C471 H483 0.950 . S
C471 C502 1.383 . S
H472 C491 0.947 . S
H473 C492 0.946 1_556 S
H474 C494 0.953 . S
H475 C495 0.945 . S
H476 C497 0.952 . S
H477 C498 0.949 . S
H478 C500 0.950 . S
H479 C501 0.948 . S
H480 C503 0.951 . S
H481 C468 0.947 . S
H482 C470 0.952 1_556 S
H483 C471 0.950 . S
N484 C487 1.382 . S
N484 C489 1.363 . S
N485 C487 1.371 . S
N485 C488 1.372 . S
N486 C488 1.361 . S
N486 C489 1.377 . S
C487 N484 1.382 . S
C487 N485 1.371 . S
C487 C490 1.480 . S
C488 N485 1.372 . S
C488 N486 1.361 . S
C488 C496 1.457 . S
C489 N484 1.363 . S
C489 N486 1.377 . S
C489 C502 1.479 . S
C490 C487 1.480 . S
C490 C491 1.383 . S
C490 C495 1.385 . S
C491 H472 0.947 . S
C491 C490 1.383 . S
C491 C492 1.388 . S
C492 H473 0.946 1_554 S
C492 C491 1.388 . S
C492 C493 1.384 . S
C493 C492 1.384 . S
C493 C494 1.377 . S
C494 H474 0.953 . S
C494 C493 1.377 . S
C494 C495 1.369 . S
C495 H475 0.945 . S
C495 C490 1.385 . S
C495 C494 1.369 . S
C496 C488 1.457 . S
C496 C497 1.372 . S
C496 C501 1.364 . S
C497 H476 0.952 . S
C497 C496 1.372 . S
C497 C498 1.389 . S
C498 H477 0.949 . S
C498 C497 1.389 . S
C498 C499 1.387 . S
C499 C498 1.387 . S
C499 C500 1.372 . S
C500 H478 0.950 . S
C500 C499 1.372 . S
C500 C501 1.379 . S
C501 H479 0.948 . S
C501 C496 1.364 . S
C501 C500 1.379 . S
C502 C471 1.383 . S
C502 C489 1.479 . S
C502 C503 1.398 . S
C503 C468 1.382 . S
C503 H480 0.951 . S
C503 C502 1.398 . S
C504 C505 1.384 . S
C504 H517 0.947 . S
C504 C539 1.382 . S
C505 C504 1.384 . S
C505 C506 1.378 . S
C506 C505 1.378 . S
C506 C507 1.378 . S
C506 H518 0.952 1_554 S
C507 C506 1.378 . S
C507 H519 0.950 . S
C507 C538 1.383 . S
H508 C527 0.947 . S
H509 C528 0.946 . S
H510 C530 0.953 . S
H511 C531 0.945 . S
H512 C533 0.952 . S
H513 C534 0.949 . S
H514 C536 0.950 . S
H515 C537 0.948 . S
H516 C539 0.951 . S
H517 C504 0.947 . S
H518 C506 0.952 1_556 S
H519 C507 0.950 . S
N520 C523 1.382 . S
N520 C525 1.363 . S
N521 C523 1.371 . S
N521 C524 1.372 . S
N522 C524 1.361 . S
N522 C525 1.377 . S
C523 N520 1.382 . S
C523 N521 1.371 . S
C523 C526 1.480 . S
C524 N521 1.372 . S
C524 N522 1.361 . S
C524 C532 1.457 . S
C525 N520 1.363 . S
C525 N522 1.377 . S
C525 C538 1.479 . S
C526 C523 1.480 . S
C526 C527 1.383 . S
C526 C531 1.385 . S
C527 H508 0.947 . S
C527 C526 1.383 . S
C527 C528 1.388 . S
C528 H509 0.946 . S
C528 C527 1.388 . S
C528 C529 1.384 . S
C529 C528 1.384 . S
C529 C530 1.377 . S
C530 H510 0.953 . S
C530 C529 1.377 . S
C530 C531 1.369 . S
C531 H511 0.945 . S
C531 C526 1.385 . S
C531 C530 1.369 . S
C532 C524 1.457 . S
C532 C533 1.372 . S
C532 C537 1.364 . S
C533 H512 0.952 . S
C533 C532 1.372 . S
C533 C534 1.389 . S
C534 H513 0.949 . S
C534 C533 1.389 . S
C534 C535 1.387 . S
C535 C534 1.387 . S
C535 C536 1.372 . S
C536 H514 0.950 . S
C536 C535 1.372 . S
C536 C537 1.379 . S
C537 H515 0.948 . S
C537 C532 1.364 . S
C537 C536 1.379 . S
C538 C507 1.383 . S
C538 C525 1.479 . S
C538 C539 1.398 . S
C539 C504 1.382 . S
C539 H516 0.951 . S
C539 C538 1.398 . S
C540 C541 1.384 . S
C540 H553 0.947 . S
C540 C575 1.382 . S
C541 C540 1.384 . S
C541 C542 1.378 . S
C542 C541 1.378 . S
C542 C543 1.378 . S
C542 H554 0.952 . S
C543 C542 1.378 . S
C543 H555 0.950 . S
C543 C574 1.383 . S
H544 C563 0.947 . S
H545 C564 0.946 . S
H546 C566 0.953 . S
H547 C567 0.945 . S
H548 C569 0.952 . S
H549 C570 0.949 . S
H550 C572 0.950 . S
H551 C573 0.948 . S
H552 C575 0.951 . S
H553 C540 0.947 . S
H554 C542 0.952 . S
H555 C543 0.950 . S
N556 C559 1.382 . S
N556 C561 1.363 . S
N557 C559 1.371 . S
N557 C560 1.372 . S
N558 C560 1.361 . S
N558 C561 1.377 . S
C559 N556 1.382 . S
C559 N557 1.371 . S
C559 C562 1.480 . S
C560 N557 1.372 . S
C560 N558 1.361 . S
C560 C568 1.457 . S
C561 N556 1.363 . S
C561 N558 1.377 . S
C561 C574 1.479 . S
C562 C559 1.480 . S
C562 C563 1.383 . S
C562 C567 1.385 . S
C563 H544 0.947 . S
C563 C562 1.383 . S
C563 C564 1.388 . S
C564 H545 0.946 . S
C564 C563 1.388 . S
C564 C565 1.384 . S
C565 C564 1.384 . S
C565 C566 1.377 . S
C566 H546 0.953 . S
C566 C565 1.377 . S
C566 C567 1.369 . S
C567 H547 0.945 . S
C567 C562 1.385 . S
C567 C566 1.369 . S
C568 C560 1.457 . S
C568 C569 1.372 . S
C568 C573 1.364 . S
C569 H548 0.952 . S
C569 C568 1.372 . S
C569 C570 1.389 . S
C570 H549 0.949 . S
C570 C569 1.389 . S
C570 C571 1.387 . S
C571 C570 1.387 . S
C571 C572 1.372 . S
C572 H550 0.950 . S
C572 C571 1.372 . S
C572 C573 1.379 . S
C573 H551 0.948 . S
C573 C568 1.364 . S
C573 C572 1.379 . S
C574 C543 1.383 . S
C574 C561 1.479 . S
C574 C575 1.398 . S
C575 C540 1.382 . S
C575 H552 0.951 . S
C575 C574 1.398 . S
C576 C577 1.384 . S
C576 H589 0.947 . S
C576 C611 1.382 . S
C577 C576 1.384 . S
C577 C578 1.378 . S
C578 C577 1.378 . S
C578 C579 1.378 . S
C578 H590 0.952 . S
C579 C578 1.378 . S
C579 H591 0.950 . S
C579 C610 1.383 . S
H580 C599 0.947 . S
H581 C600 0.946 . S
H582 C602 0.953 . S
H583 C603 0.945 . S
H584 C605 0.952 . S
H585 C606 0.959 1_455 S
H586 C608 0.950 . S
H587 C609 0.948 . S
H588 C611 0.951 . S
H589 C576 0.947 . S
H590 C578 0.952 . S
H591 C579 0.950 . S
N592 C595 1.382 . S
N592 C597 1.363 . S
N593 C595 1.371 . S
N593 C596 1.372 . S
N594 C596 1.361 . S
N594 C597 1.377 . S
C595 N592 1.382 . S
C595 N593 1.371 . S
C595 C598 1.480 . S
C596 N593 1.372 . S
C596 N594 1.361 . S
C596 C604 1.457 . S
C597 N592 1.363 . S
C597 N594 1.377 . S
C597 C610 1.479 . S
C598 C595 1.480 . S
C598 C599 1.383 . S
C598 C603 1.385 . S
C599 H580 0.947 . S
C599 C598 1.383 . S
C599 C600 1.388 . S
C600 H581 0.946 . S
C600 C599 1.388 . S
C600 C601 1.384 . S
C601 C600 1.384 . S
C601 C602 1.377 . S
C602 H582 0.953 . S
C602 C601 1.377 . S
C602 C603 1.369 . S
C603 H583 0.945 . S
C603 C598 1.385 . S
C603 C602 1.369 . S
C604 C596 1.457 . S
C604 C605 1.372 . S
C604 C609 1.364 1_455 S
C605 H584 0.952 . S
C605 C604 1.372 . S
C605 C606 1.388 1_455 S
C606 H585 0.959 1_655 S
C606 C605 1.388 1_655 S
C606 C607 1.386 . S
C607 C606 1.386 . S
C607 C608 1.372 . S
C608 H586 0.950 . S
C608 C607 1.372 . S
C608 C609 1.379 . S
C609 H587 0.948 . S
C609 C604 1.364 1_655 S
C609 C608 1.379 . S
C610 C579 1.383 . S
C610 C597 1.479 . S
C610 C611 1.398 . S
C611 C576 1.382 . S
C611 H588 0.951 . S
C611 C610 1.398 . S
C612 C613 1.384 . S
C612 H625 0.947 . S
C612 C647 1.382 . S
C613 C612 1.384 . S
C613 C614 1.378 . S
C614 C613 1.378 . S
C614 C615 1.378 . S
C614 H626 0.952 . S
C615 C614 1.378 . S
C615 H627 0.950 . S
C615 C646 1.383 . S
H616 C635 0.947 . S
H617 C636 0.946 . S
H618 C638 0.953 . S
H619 C639 0.945 . S
H620 C641 0.952 . S
H621 C642 0.949 . S
H622 C644 0.950 . S
H623 C645 0.948 . S
H624 C647 0.951 . S
H625 C612 0.947 . S
H626 C614 0.952 . S
H627 C615 0.950 . S
N628 C631 1.382 . S
N628 C633 1.363 . S
N629 C631 1.371 . S
N629 C632 1.372 . S
N630 C632 1.361 . S
N630 C633 1.377 . S
C631 N628 1.382 . S
C631 N629 1.371 . S
C631 C634 1.480 . S
C632 N629 1.372 . S
C632 N630 1.361 . S
C632 C640 1.457 . S
C633 N628 1.363 . S
C633 N630 1.377 . S
C633 C646 1.479 . S
C634 C631 1.480 . S
C634 C635 1.383 . S
C634 C639 1.385 . S
C635 H616 0.947 . S
C635 C634 1.383 . S
C635 C636 1.388 . S
C636 H617 0.946 . S
C636 C635 1.388 . S
C636 C637 1.384 . S
C637 C636 1.384 . S
C637 C638 1.377 . S
C638 H618 0.953 . S
C638 C637 1.377 . S
C638 C639 1.369 . S
C639 H619 0.945 . S
C639 C634 1.385 . S
C639 C638 1.369 . S
C640 C632 1.457 . S
C640 C641 1.372 . S
C640 C645 1.364 . S
C641 H620 0.952 . S
C641 C640 1.372 . S
C641 C642 1.389 . S
C642 H621 0.949 . S
C642 C641 1.389 . S
C642 C643 1.387 . S
C643 C642 1.387 . S
C643 C644 1.372 . S
C644 H622 0.950 . S
C644 C643 1.372 . S
C644 C645 1.379 . S
C645 H623 0.948 . S
C645 C640 1.364 . S
C645 C644 1.379 . S
C646 C615 1.383 . S
C646 C633 1.479 . S
C646 C647 1.398 . S
C647 C612 1.382 . S
C647 H624 0.951 . S
C647 C646 1.398 . S
Eu648 C657 2.828 . S
Eu648 O659 2.392 . S
Eu648 O661 2.418 . S
Eu648 O666 2.373 1_565 S
Eu648 O669 2.488 . S
Eu648 O670 2.471 . S
Eu648 O671 2.349 1_565 S
Eu649 O658 2.373 1_545 S
Eu649 O662 2.488 . S
Eu649 O663 2.471 . S
Eu649 O664 2.349 1_545 S
Eu649 O667 2.392 . S
Eu649 O668 2.418 . S
Eu649 C678 2.828 . S
C650 O668 1.244 1_556 S
C650 O671 1.265 . S
C651 C652 1.379 1_565 S
C651 C655 1.373 . S
C651 C657 1.505 . S
C652 C651 1.379 1_545 S
C652 C654 1.369 . S
C652 H680 0.930 . S
C653 C655 1.383 . S
C653 C656 1.386 . S
C653 H681 0.930 . S
C654 C652 1.369 . S
C654 C656 1.389 1_545 S
C654 H682 0.930 . S
C655 C651 1.373 . S
C655 C653 1.383 . S
C655 H683 0.931 . S
C656 C653 1.386 . S
C656 C654 1.389 1_565 S
C657 Eu648 2.828 . S
C657 C651 1.505 . S
C657 O669 1.249 . S
C657 O670 1.244 . S
O658 Eu649 2.373 1_565 S
O658 C660 1.258 . S
O659 Eu648 2.392 . S
O659 C660 1.242 1_556 S
C660 O658 1.258 . S
C660 O659 1.242 1_554 S
O661 Eu648 2.418 . S
O661 C665 1.244 1_556 S
O662 Eu649 2.488 . S
O662 C678 1.249 . S
O663 Eu649 2.471 . S
O663 C678 1.244 . S
O664 Eu649 2.349 1_565 S
O664 C665 1.265 . S
C665 O661 1.244 1_554 S
C665 O664 1.265 . S
O666 Eu648 2.373 1_545 S
O666 C679 1.258 . S
O667 Eu649 2.392 . S
O667 C679 1.242 1_554 S
O668 Eu649 2.418 . S
O668 C650 1.244 1_554 S
O669 Eu648 2.488 . S
O669 C657 1.249 . S
O670 Eu648 2.471 . S
O670 C657 1.244 . S
O671 Eu648 2.349 1_545 S
O671 C650 1.265 . S
C672 C673 1.379 1_545 S
C672 C676 1.373 . S
C672 C678 1.505 . S
C673 C672 1.379 1_565 S
C673 C675 1.369 . S
C673 H684 0.930 . S
C674 C676 1.383 . S
C674 C677 1.397 . S
C674 H685 0.930 . S
C675 C673 1.369 . S
C675 C677 1.379 1_565 S
C675 H686 0.930 . S
C676 C672 1.373 . S
C676 C674 1.383 . S
C676 H687 0.931 . S
C677 C674 1.397 . S
C677 C675 1.379 1_545 S
C678 Eu649 2.828 . S
C678 O662 1.249 . S
C678 O663 1.244 . S
C678 C672 1.505 . S
C679 O666 1.258 . S
C679 O667 1.242 1_556 S
H680 C652 0.930 . S
H681 C653 0.930 . S
H682 C654 0.930 . S
H683 C655 0.931 . S
H684 C673 0.930 . S
H685 C674 0.930 . S
H686 C675 0.930 . S
H687 C676 0.931 . S
Eu688 C697 2.828 . S
Eu688 O699 2.392 1_556 S
Eu688 O701 2.418 . S
Eu688 O706 2.373 1_455 S
Eu688 O709 2.488 . S
Eu688 O710 2.471 1_455 S
Eu688 O711 2.349 1_455 S
Eu689 O698 2.373 1_655 S
Eu689 O702 2.488 . S
Eu689 O703 2.471 1_655 S
Eu689 O704 2.349 1_655 S
Eu689 O707 2.392 1_554 S
Eu689 O708 2.418 . S
Eu689 C718 2.828 . S
C690 O708 1.244 1_556 S
C690 O711 1.265 . S
C691 C692 1.379 1_455 S
C691 C695 1.373 . S
C691 C697 1.505 . S
C692 C691 1.379 1_655 S
C692 C694 1.369 . S
C692 H720 0.930 . S
C693 C695 1.383 . S
C693 C696 1.382 1_455 S
C693 H721 0.930 . S
C694 C692 1.369 . S
C694 C696 1.392 . S
C694 H722 0.930 . S
C695 C691 1.373 . S
C695 C693 1.383 . S
C695 H723 0.931 . S
C696 C693 1.382 1_655 S
C696 C694 1.392 . S
C697 Eu688 2.828 . S
C697 C691 1.505 . S
C697 O709 1.249 . S
C697 O710 1.244 1_455 S
O698 Eu689 2.373 1_455 S
O698 C700 1.258 . S
O699 Eu688 2.392 1_554 S
O699 C700 1.242 . S
C700 O698 1.258 . S
C700 O699 1.242 . S
O701 Eu688 2.418 . S
O701 C705 1.244 1_556 S
O702 Eu689 2.488 . S
O702 C718 1.249 . S
O703 Eu689 2.471 1_455 S
O703 C718 1.244 1_455 S
O704 Eu689 2.349 1_455 S
O704 C705 1.265 . S
C705 O701 1.244 1_554 S
C705 O704 1.265 . S
O706 Eu688 2.373 1_655 S
O706 C719 1.258 . S
O707 Eu689 2.392 1_556 S
O707 C719 1.242 . S
O708 Eu689 2.418 . S
O708 C690 1.244 1_554 S
O709 Eu688 2.488 . S
O709 C697 1.249 . S
O710 Eu688 2.471 1_655 S
O710 C697 1.244 1_655 S
O711 Eu688 2.349 1_655 S
O711 C690 1.265 . S
C712 C713 1.379 1_655 S
C712 C716 1.373 . S
C712 C718 1.505 . S
C713 C712 1.379 1_455 S
C713 C715 1.369 . S
C713 H724 0.930 . S
C714 C716 1.383 . S
C714 C717 1.382 1_655 S
C714 H725 0.930 . S
C715 C713 1.369 . S
C715 C717 1.392 . S
C715 H726 0.930 . S
C716 C712 1.373 . S
C716 C714 1.383 . S
C716 H727 0.931 . S
C717 C714 1.382 1_455 S
C717 C715 1.392 . S
C718 Eu689 2.828 . S
C718 O702 1.249 . S
C718 O703 1.244 1_655 S
C718 C712 1.505 . S
C719 O706 1.258 . S
C719 O707 1.242 . S
H720 C692 0.930 . S
H721 C693 0.930 . S
H722 C694 0.930 . S
H723 C695 0.931 . S
H724 C713 0.930 . S
H725 C714 0.930 . S
H726 C715 0.930 . S
H727 C716 0.931 . S
Eu728 C737 2.828 . S
Eu728 O739 2.404 . S
Eu728 O741 2.418 . S
Eu728 O746 2.373 . S
Eu728 O749 2.488 . S
Eu728 O750 2.471 . S
Eu728 O751 2.349 . S
Eu729 O738 2.373 . S
Eu729 O742 2.488 . S
Eu729 O743 2.471 . S
Eu729 O744 2.349 . S
Eu729 O747 2.392 1_556 S
Eu729 O748 2.418 . S
Eu729 C758 2.828 . S
C730 O748 1.244 1_554 S
C730 O751 1.265 . S
C731 C732 1.379 . S
C731 C735 1.373 . S
C731 C737 1.505 . S
C732 C731 1.379 . S
C732 C734 1.369 . S
C732 H760 0.930 . S
C733 C735 1.383 . S
C733 C736 1.382 . S
C733 H761 0.930 . S
C734 C732 1.369 . S
C734 C736 1.392 . S
C734 H762 0.930 . S
C735 C731 1.373 . S
C735 C733 1.383 . S
C735 H763 0.931 . S
C736 C733 1.382 . S
C736 C734 1.392 . S
C737 Eu728 2.828 . S
C737 C731 1.505 . S
C737 O749 1.249 . S
C737 O750 1.244 . S
O738 Eu729 2.373 . S
O738 C740 1.258 . S
O739 Eu728 2.404 . S
O739 C740 1.228 1_554 S
C740 O738 1.258 . S
C740 O739 1.228 1_556 S
O741 Eu728 2.418 . S
O741 C745 1.244 1_554 S
O742 Eu729 2.488 . S
O742 C758 1.249 . S
O743 Eu729 2.471 . S
O743 C758 1.244 . S
O744 Eu729 2.349 . S
O744 C745 1.265 . S
C745 O741 1.244 1_556 S
C745 O744 1.265 . S
O746 Eu728 2.373 . S
O746 C759 1.258 . S
O747 Eu729 2.392 1_554 S
O747 C759 1.242 . S
O748 Eu729 2.418 . S
O748 C730 1.244 1_556 S
O749 Eu728 2.488 . S
O749 C737 1.249 . S
O750 Eu728 2.471 . S
O750 C737 1.244 . S
O751 Eu728 2.349 . S
O751 C730 1.265 . S
C752 C753 1.379 . S
C752 C756 1.373 . S
C752 C758 1.505 . S
C753 C752 1.379 . S
C753 C755 1.369 . S
C753 H764 0.930 . S
C754 C756 1.383 . S
C754 C757 1.382 . S
C754 H765 0.930 . S
C755 C753 1.369 . S
C755 C757 1.392 . S
C755 H766 0.930 . S
C756 C752 1.373 . S
C756 C754 1.383 . S
C756 H767 0.931 . S
C757 C754 1.382 . S
C757 C755 1.392 . S
C758 Eu729 2.828 . S
C758 O742 1.249 . S
C758 O743 1.244 . S
C758 C752 1.505 . S
C759 O746 1.258 . S
C759 O747 1.242 . S
H760 C732 0.930 . S
H761 C733 0.930 . S
H762 C734 0.930 . S
H763 C735 0.931 . S
H764 C753 0.930 . S
H765 C754 0.930 . S
H766 C755 0.930 . S
H767 C756 0.931 . S
Eu768 C777 2.828 . S
Eu768 O779 2.392 . S
Eu768 O781 2.418 . S
Eu768 O786 2.373 . S
Eu768 O789 2.488 . S
Eu768 O790 2.471 . S
Eu768 O791 2.349 . S
Eu769 O778 2.373 . S
Eu769 O782 2.488 . S
Eu769 O783 2.471 . S
Eu769 O784 2.349 . S
Eu769 O787 2.392 . S
Eu769 O788 2.418 . S
Eu769 C798 2.828 . S
C770 O788 1.244 . S
C770 O791 1.265 . S
C771 C772 1.379 . S
C771 C775 1.373 . S
C771 C777 1.505 . S
C772 C771 1.379 . S
C772 C774 1.369 . S
C772 H800 0.930 . S
C773 C775 1.383 . S
C773 C776 1.382 . S
C773 H801 0.930 . S
C774 C772 1.369 . S
C774 C776 1.392 . S
C774 H802 0.930 . S
C775 C771 1.373 . S
C775 C773 1.383 . S
C775 H803 0.931 . S
C776 C773 1.382 . S
C776 C774 1.392 . S
C777 Eu768 2.828 . S
C777 C771 1.505 . S
C777 O789 1.249 . S
C777 O790 1.244 . S
O778 Eu769 2.373 . S
O778 C780 1.258 . S
O779 Eu768 2.392 . S
O779 C780 1.242 . S
C780 O778 1.258 . S
C780 O779 1.242 . S
O781 Eu768 2.418 . S
O781 C785 1.244 . S
O782 Eu769 2.488 . S
O782 C798 1.249 . S
O783 Eu769 2.471 . S
O783 C798 1.244 . S
O784 Eu769 2.349 . S
O784 C785 1.265 . S
C785 O781 1.244 . S
C785 O784 1.265 . S
O786 Eu768 2.373 . S
O786 C799 1.258 . S
O787 Eu769 2.392 . S
O787 C799 1.242 . S
O788 Eu769 2.418 . S
O788 C770 1.244 . S
O789 Eu768 2.488 . S
O789 C777 1.249 . S
O790 Eu768 2.471 . S
O790 C777 1.244 . S
O791 Eu768 2.349 . S
O791 C770 1.265 . S
C792 C793 1.379 . S
C792 C796 1.373 . S
C792 C798 1.505 . S
C793 C792 1.379 . S
C793 C795 1.369 . S
C793 H804 0.930 . S
C794 C796 1.383 . S
C794 C797 1.382 . S
C794 H805 0.930 . S
C795 C793 1.369 . S
C795 C797 1.392 . S
C795 H806 0.930 . S
C796 C792 1.373 . S
C796 C794 1.383 . S
C796 H807 0.931 . S
C797 C794 1.382 . S
C797 C795 1.392 . S
C798 Eu769 2.828 . S
C798 O782 1.249 . S
C798 O783 1.244 . S
C798 C792 1.505 . S
C799 O786 1.258 . S
C799 O787 1.242 . S
H800 C772 0.930 . S
H801 C773 0.930 . S
H802 C774 0.930 . S
H803 C775 0.931 . S
H804 C793 0.930 . S
H805 C794 0.930 . S
H806 C795 0.930 . S
H807 C796 0.931 . S
Eu808 C817 2.828 . S
Eu808 O819 2.392 . S
Eu808 O821 2.418 . S
Eu808 O826 2.373 . S
Eu808 O829 2.488 . S
Eu808 O830 2.471 . S
Eu808 O831 2.349 . S
Eu809 O818 2.373 . S
Eu809 O822 2.488 . S
Eu809 O823 2.471 . S
Eu809 O824 2.349 . S
Eu809 O827 2.392 . S
Eu809 O828 2.418 . S
Eu809 C838 2.828 . S
C810 O828 1.244 . S
C810 O831 1.265 . S
C811 C812 1.379 . S
C811 C815 1.373 . S
C811 C817 1.505 . S
C812 C811 1.379 . S
C812 C814 1.369 . S
C812 H840 0.930 . S
C813 C815 1.383 . S
C813 C816 1.382 . S
C813 H841 0.930 . S
C814 C812 1.369 . S
C814 C816 1.392 . S
C814 H842 0.930 . S
C815 C811 1.373 . S
C815 C813 1.383 . S
C815 H843 0.931 . S
C816 C813 1.382 . S
C816 C814 1.392 . S
C817 Eu808 2.828 . S
C817 C811 1.505 . S
C817 O829 1.249 . S
C817 O830 1.244 . S
O818 Eu809 2.373 . S
O818 C820 1.258 . S
O819 Eu808 2.392 . S
O819 C820 1.242 . S
C820 O818 1.258 . S
C820 O819 1.242 . S
O821 Eu808 2.418 . S
O821 C825 1.244 . S
O822 Eu809 2.488 . S
O822 C838 1.249 . S
O823 Eu809 2.471 . S
O823 C838 1.244 . S
O824 Eu809 2.349 . S
O824 C825 1.265 . S
C825 O821 1.244 . S
C825 O824 1.265 . S
O826 Eu808 2.373 . S
O826 C839 1.258 . S
O827 Eu809 2.392 . S
O827 C839 1.242 . S
O828 Eu809 2.418 . S
O828 C810 1.244 . S
O829 Eu808 2.488 . S
O829 C817 1.249 . S
O830 Eu808 2.471 . S
O830 C817 1.244 . S
O831 Eu808 2.349 . S
O831 C810 1.265 . S
C832 C833 1.379 . S
C832 C836 1.373 . S
C832 C838 1.505 . S
C833 C832 1.379 . S
C833 C835 1.369 . S
C833 H844 0.930 . S
C834 C836 1.383 . S
C834 C837 1.382 . S
C834 H845 0.930 . S
C835 C833 1.369 . S
C835 C837 1.392 . S
C835 H846 0.930 . S
C836 C832 1.373 . S
C836 C834 1.383 . S
C836 H847 0.931 . S
C837 C834 1.382 . S
C837 C835 1.392 . S
C838 Eu809 2.828 . S
C838 O822 1.249 . S
C838 O823 1.244 . S
C838 C832 1.505 . S
C839 O826 1.258 . S
C839 O827 1.242 . S
H840 C812 0.930 . S
H841 C813 0.930 . S
H842 C814 0.930 . S
H843 C815 0.931 . S
H844 C833 0.930 . S
H845 C834 0.930 . S
H846 C835 0.930 . S
H847 C836 0.931 . S
Eu848 C857 2.828 . S
Eu848 O859 2.392 . S
Eu848 O861 2.418 . S
Eu848 O866 2.373 . S
Eu848 O869 2.488 . S
Eu848 O870 2.471 . S
Eu848 O871 2.349 . S
Eu849 O858 2.373 . S
Eu849 O862 2.488 . S
Eu849 O863 2.471 . S
Eu849 O864 2.349 . S
Eu849 O867 2.392 . S
Eu849 O868 2.418 . S
Eu849 C878 2.828 . S
C850 O868 1.244 . S
C850 O871 1.265 . S
C851 C852 1.379 . S
C851 C855 1.373 . S
C851 C857 1.505 . S
C852 C851 1.379 . S
C852 C854 1.369 . S
C852 H880 0.930 . S
C853 C855 1.383 . S
C853 C856 1.382 . S
C853 H881 0.930 . S
C854 C852 1.369 . S
C854 C856 1.392 . S
C854 H882 0.930 . S
C855 C851 1.373 . S
C855 C853 1.383 . S
C855 H883 0.931 . S
C856 C853 1.382 . S
C856 C854 1.392 . S
C857 Eu848 2.828 . S
C857 C851 1.505 . S
C857 O869 1.249 . S
C857 O870 1.244 . S
O858 Eu849 2.373 . S
O858 C860 1.258 . S
O859 Eu848 2.392 . S
O859 C860 1.242 . S
C860 O858 1.258 . S
C860 O859 1.242 . S
O861 Eu848 2.418 . S
O861 C865 1.244 . S
O862 Eu849 2.488 . S
O862 C878 1.249 . S
O863 Eu849 2.471 . S
O863 C878 1.244 . S
O864 Eu849 2.349 . S
O864 C865 1.265 . S
C865 O861 1.244 . S
C865 O864 1.265 . S
O866 Eu848 2.373 . S
O866 C879 1.258 . S
O867 Eu849 2.392 . S
O867 C879 1.242 . S
O868 Eu849 2.418 . S
O868 C850 1.244 . S
O869 Eu848 2.488 . S
O869 C857 1.249 . S
O870 Eu848 2.471 . S
O870 C857 1.244 . S
O871 Eu848 2.349 . S
O871 C850 1.265 . S
C872 C873 1.379 . S
C872 C876 1.373 . S
C872 C878 1.505 . S
C873 C872 1.379 . S
C873 C875 1.369 . S
C873 H884 0.930 . S
C874 C876 1.383 . S
C874 C877 1.382 . S
C874 H885 0.930 . S
C875 C873 1.369 . S
C875 C877 1.392 . S
C875 H886 0.930 . S
C876 C872 1.373 . S
C876 C874 1.383 . S
C876 H887 0.931 . S
C877 C874 1.382 . S
C877 C875 1.392 . S
C878 Eu849 2.828 . S
C878 O862 1.249 . S
C878 O863 1.244 . S
C878 C872 1.505 . S
C879 O866 1.258 . S
C879 O867 1.242 . S
H880 C852 0.930 . S
H881 C853 0.930 . S
H882 C854 0.930 . S
H883 C855 0.931 . S
H884 C873 0.930 . S
H885 C874 0.930 . S
H886 C875 0.930 . S
H887 C876 0.931 . S
Eu888 C897 2.828 . S
Eu888 O899 2.392 . S
Eu888 O901 2.418 . S
Eu888 O906 2.373 . S
Eu888 O909 2.488 . S
Eu888 O910 2.471 . S
Eu888 O911 2.349 . S
Eu889 O898 2.373 . S
Eu889 O902 2.488 . S
Eu889 O903 2.471 . S
Eu889 O904 2.349 . S
Eu889 O907 2.392 . S
Eu889 O908 2.418 . S
Eu889 C918 2.828 . S
C890 O908 1.244 . S
C890 O911 1.265 . S
C891 C892 1.379 . S
C891 C895 1.373 . S
C891 C897 1.505 . S
C892 C891 1.379 . S
C892 C894 1.369 . S
C892 H920 0.930 . S
C893 C895 1.383 . S
C893 C896 1.382 . S
C893 H921 0.930 . S
C894 C892 1.369 . S
C894 C896 1.392 . S
C894 H922 0.930 . S
C895 C891 1.373 . S
C895 C893 1.383 . S
C895 H923 0.931 . S
C896 C893 1.382 . S
C896 C894 1.392 . S
C897 Eu888 2.828 . S
C897 C891 1.505 . S
C897 O909 1.249 . S
C897 O910 1.244 . S
O898 Eu889 2.373 . S
O898 C900 1.258 . S
O899 Eu888 2.392 . S
O899 C900 1.242 . S
C900 O898 1.258 . S
C900 O899 1.242 . S
O901 Eu888 2.418 . S
O901 C905 1.244 . S
O902 Eu889 2.488 . S
O902 C918 1.249 . S
O903 Eu889 2.471 . S
O903 C918 1.244 . S
O904 Eu889 2.349 . S
O904 C905 1.265 . S
C905 O901 1.244 . S
C905 O904 1.265 . S
O906 Eu888 2.373 . S
O906 C919 1.258 . S
O907 Eu889 2.392 . S
O907 C919 1.242 . S
O908 Eu889 2.418 . S
O908 C890 1.244 . S
O909 Eu888 2.488 . S
O909 C897 1.249 . S
O910 Eu888 2.471 . S
O910 C897 1.244 . S
O911 Eu888 2.349 . S
O911 C890 1.265 . S
C912 C913 1.379 . S
C912 C916 1.373 . S
C912 C918 1.505 . S
C913 C912 1.379 . S
C913 C915 1.369 . S
C913 H924 0.930 . S
C914 C916 1.383 . S
C914 C917 1.382 . S
C914 H925 0.930 . S
C915 C913 1.369 . S
C915 C917 1.392 . S
C915 H926 0.930 . S
C916 C912 1.373 . S
C916 C914 1.383 . S
C916 H927 0.931 . S
C917 C914 1.382 . S
C917 C915 1.392 . S
C918 Eu889 2.828 . S
C918 O902 1.249 . S
C918 O903 1.244 . S
C918 C912 1.505 . S
C919 O906 1.258 . S
C919 O907 1.242 . S
H920 C892 0.930 . S
H921 C893 0.930 . S
H922 C894 0.930 . S
H923 C895 0.931 . S
H924 C913 0.930 . S
H925 C914 0.930 . S
H926 C915 0.930 . S
H927 C916 0.931 . S
Eu928 C937 2.828 . S
Eu928 O939 2.392 . S
Eu928 O941 2.418 . S
Eu928 O946 2.373 . S
Eu928 O949 2.488 . S
Eu928 O950 2.471 . S
Eu928 O951 2.349 . S
Eu929 O938 2.373 . S
Eu929 O942 2.488 . S
Eu929 O943 2.471 . S
Eu929 O944 2.349 . S
Eu929 O947 2.392 . S
Eu929 O948 2.418 . S
Eu929 C958 2.828 . S
C930 O948 1.244 . S
C930 O951 1.265 . S
C931 C932 1.379 . S
C931 C935 1.373 . S
C931 C937 1.505 . S
C932 C931 1.379 . S
C932 C934 1.369 . S
C932 H960 0.930 . S
C933 C935 1.383 . S
C933 C936 1.382 . S
C933 H961 0.930 . S
C934 C932 1.369 . S
C934 C936 1.392 . S
C934 H962 0.930 . S
C935 C931 1.373 . S
C935 C933 1.383 . S
C935 H963 0.931 . S
C936 C933 1.382 . S
C936 C934 1.392 . S
C937 Eu928 2.828 . S
C937 C931 1.505 . S
C937 O949 1.249 . S
C937 O950 1.244 . S
O938 Eu929 2.373 . S
O938 C940 1.258 . S
O939 Eu928 2.392 . S
O939 C940 1.242 . S
C940 O938 1.258 . S
C940 O939 1.242 . S
O941 Eu928 2.418 . S
O941 C945 1.244 . S
O942 Eu929 2.488 . S
O942 C958 1.249 . S
O943 Eu929 2.471 . S
O943 C958 1.244 . S
O944 Eu929 2.349 . S
O944 C945 1.265 . S
C945 O941 1.244 . S
C945 O944 1.265 . S
O946 Eu928 2.373 . S
O946 C959 1.258 . S
O947 Eu929 2.392 . S
O947 C959 1.242 . S
O948 Eu929 2.418 . S
O948 C930 1.244 . S
O949 Eu928 2.488 . S
O949 C937 1.249 . S
O950 Eu928 2.471 . S
O950 C937 1.244 . S
O951 Eu928 2.349 . S
O951 C930 1.265 . S
C952 C953 1.379 . S
C952 C956 1.373 . S
C952 C958 1.505 . S
C953 C952 1.379 . S
C953 C955 1.369 . S
C953 H964 0.930 . S
C954 C956 1.383 . S
C954 C957 1.382 . S
C954 H965 0.930 . S
C955 C953 1.369 . S
C955 C957 1.392 . S
C955 H966 0.930 . S
C956 C952 1.373 . S
C956 C954 1.383 . S
C956 H967 0.931 . S
C957 C954 1.382 . S
C957 C955 1.392 . S
C958 Eu929 2.828 . S
C958 O942 1.249 . S
C958 O943 1.244 . S
C958 C952 1.505 . S
C959 O946 1.258 . S
C959 O947 1.242 . S
H960 C932 0.930 . S
H961 C933 0.930 . S
H962 C934 0.930 . S
H963 C935 0.931 . S
H964 C953 0.930 . S
H965 C954 0.930 . S
H966 C955 0.930 . S
H967 C956 0.931 . S
Eu968 C977 2.828 . S
Eu968 O979 2.392 . S
Eu968 O981 2.418 . S
Eu968 O986 2.373 . S
Eu968 O989 2.488 . S
Eu968 O990 2.471 . S
Eu968 O991 2.349 . S
Eu969 O978 2.373 . S
Eu969 O982 2.488 . S
Eu969 O983 2.471 . S
Eu969 O984 2.349 . S
Eu969 O987 2.392 . S
Eu969 O988 2.418 . S
Eu969 C998 2.828 . S
C970 O988 1.244 . S
C970 O991 1.265 . S
C971 C972 1.379 . S
C971 C975 1.373 . S
C971 C977 1.505 . S
C972 C971 1.379 . S
C972 C974 1.369 . S
C972 H1000 0.930 . S
C973 C975 1.383 . S
C973 C976 1.382 . S
C973 H1001 0.930 . S
C974 C972 1.369 . S
C974 C976 1.392 . S
C974 H1002 0.930 . S
C975 C971 1.373 . S
C975 C973 1.383 . S
C975 H1003 0.931 . S
C976 C973 1.382 . S
C976 C974 1.392 . S
C977 Eu968 2.828 . S
C977 C971 1.505 . S
C977 O989 1.249 . S
C977 O990 1.244 . S
O978 Eu969 2.373 . S
O978 C980 1.258 . S
O979 Eu968 2.392 . S
O979 C980 1.242 . S
C980 O978 1.258 . S
C980 O979 1.242 . S
O981 Eu968 2.418 . S
O981 C985 1.244 . S
O982 Eu969 2.488 . S
O982 C998 1.249 . S
O983 Eu969 2.471 . S
O983 C998 1.244 . S
O984 Eu969 2.349 . S
O984 C985 1.265 . S
C985 O981 1.244 . S
C985 O984 1.265 . S
O986 Eu968 2.373 . S
O986 C999 1.258 . S
O987 Eu969 2.392 . S
O987 C999 1.242 . S
O988 Eu969 2.418 . S
O988 C970 1.244 . S
O989 Eu968 2.488 . S
O989 C977 1.249 . S
O990 Eu968 2.471 . S
O990 C977 1.244 . S
O991 Eu968 2.349 . S
O991 C970 1.265 . S
C992 C993 1.379 . S
C992 C996 1.373 . S
C992 C998 1.505 . S
C993 C992 1.379 . S
C993 C995 1.369 . S
C993 H1004 0.930 . S
C994 C996 1.383 . S
C994 C997 1.382 . S
C994 H1005 0.930 . S
C995 C993 1.369 . S
C995 C997 1.392 . S
C995 H1006 0.930 . S
C996 C992 1.373 . S
C996 C994 1.383 . S
C996 H1007 0.931 . S
C997 C994 1.382 . S
C997 C995 1.392 . S
C998 Eu969 2.828 . S
C998 O982 1.249 . S
C998 O983 1.244 . S
C998 C992 1.505 . S
C999 O986 1.258 . S
C999 O987 1.242 . S
H1000 C972 0.930 . S
H1001 C973 0.930 . S
H1002 C974 0.930 . S
H1003 C975 0.931 . S
H1004 C993 0.930 . S
H1005 C994 0.930 . S
H1006 C995 0.930 . S
H1007 C996 0.931 . S
C469 C660 2.450 . S
C505 C700 2.220 . S
C433 C730 2.609 . S
C397 C690 2.218 . S
C740 C325 1.916 . S
C361 C650 2.354 . S
C679 C421 2.487 . S
C719 C349 2.219 . S
C385 C745 2.611 . S
C493 C705 2.231 . S
C529 C759 1.969 . S
C665 C457 2.396 . S
C780 C37 2.449 . S
C73 C820 2.220 . S
C1 C850 2.596 1_545 S
C613 C810 2.220 . S
C541 C860 1.917 . S
C577 C770 2.354 . S
C637 C799 2.488 . S
C565 C839 2.219 . S
C865 C601 2.612 . S
C61 C825 2.230 . S
C879 C97 1.968 . S
C25 C785 2.395 . S
C900 C253 2.451 . S
C289 C940 2.221 . S
C970 C217 2.610 . S
C930 C181 2.218 . S
C980 C109 1.915 . S
C145 C890 2.353 . S
C205 C919 2.487 . S
C133 C959 2.218 . S
C985 C169 2.611 . S
C277 C945 2.231 . S
C313 C999 1.970 . S
C241 C905 2.396 . S
C571 C677 1.501 1_565 S
C717 C607 2.198 1_455 S
C643 C736 1.654 . S
C247 C696 2.209 1_455 S
C283 C757 1.662 . S
C656 C319 1.526 1_565 S
C139 C797 1.511 . S
C175 C837 2.197 . S
C211 C856 1.653 . S
C463 C816 2.209 . S
C877 C499 1.661 . S
C535 C776 1.529 . S
C355 C917 1.510 . S
C391 C957 2.198 . S
C976 C427 1.653 . S
C31 C936 2.208 . S
C67 C997 1.661 . S
C103 C896 1.529 . S
