# Generated by pormake.
# Topology anh, (6,3)-cn, num edge types: 1
# Building blocks:
#     Node 0, Type 0, BuildingBlock: INOVEN_clean_sbu_0, # of connection points: 6
#     Node 1, Type 0, BuildingBlock: INOVEN_clean_sbu_0, # of connection points: 6
#     Node 2, Type 0, BuildingBlock: INOVEN_clean_sbu_0, # of connection points: 6
#     Node 3, Type 1, BuildingBlock: BETDAH_clean_linker_0, # of connection points: 3
#     Node 4, Type 1, BuildingBlock: BETDAH_clean_linker_0, # of connection points: 3
#     Node 5, Type 1, BuildingBlock: BETDAH_clean_linker_0, # of connection points: 3
#     Node 6, Type 1, BuildingBlock: BETDAH_clean_linker_0, # of connection points: 3
#     Node 7, Type 1, BuildingBlock: BETDAH_clean_linker_0, # of connection points: 3
#     Node 8, Type 1, BuildingBlock: BETDAH_clean_linker_0, # of connection points: 3
#     Edge 9, Type (0, 1), BuildingBlock: TEMPAE_clean_linker_10, # of connection points: 2
#     Edge 10, Type (0, 1), BuildingBlock: TEMPAE_clean_linker_10, # of connection points: 2
#     Edge 11, Type (0, 1), BuildingBlock: TEMPAE_clean_linker_10, # of connection points: 2
#     Edge 12, Type (0, 1), BuildingBlock: TEMPAE_clean_linker_10, # of connection points: 2
#     Edge 13, Type (0, 1), BuildingBlock: TEMPAE_clean_linker_10, # of connection points: 2
#     Edge 14, Type (0, 1), BuildingBlock: TEMPAE_clean_linker_10, # of connection points: 2
#     Edge 15, Type (0, 1), BuildingBlock: TEMPAE_clean_linker_10, # of connection points: 2
#     Edge 16, Type (0, 1), BuildingBlock: TEMPAE_clean_linker_10, # of connection points: 2
#     Edge 17, Type (0, 1), BuildingBlock: TEMPAE_clean_linker_10, # of connection points: 2
#     Edge 18, Type (0, 1), BuildingBlock: TEMPAE_clean_linker_10, # of connection points: 2
#     Edge 19, Type (0, 1), BuildingBlock: TEMPAE_clean_linker_10, # of connection points: 2
#     Edge 20, Type (0, 1), BuildingBlock: TEMPAE_clean_linker_10, # of connection points: 2
#     Edge 21, Type (0, 1), BuildingBlock: TEMPAE_clean_linker_10, # of connection points: 2
#     Edge 22, Type (0, 1), BuildingBlock: TEMPAE_clean_linker_10, # of connection points: 2
#     Edge 23, Type (0, 1), BuildingBlock: TEMPAE_clean_linker_10, # of connection points: 2
#     Edge 24, Type (0, 1), BuildingBlock: TEMPAE_clean_linker_10, # of connection points: 2
#     Edge 25, Type (0, 1), BuildingBlock: TEMPAE_clean_linker_10, # of connection points: 2
#     Edge 26, Type (0, 1), BuildingBlock: TEMPAE_clean_linker_10, # of connection points: 2
# Relax obj value: 0.143
# Max RMSD: 0.186
# Mean RMSD: 0.109
data_MOF--net-anh--node1-INOVEN_clean_sbu_0--node2-BETDAH_clean_linker_0--edge1-TEMPAE_clean_linker_10
_symmetry_space_group_name_H-M    P1
_symmetry_Int_Tables_number       1
_symmetry_cell_setting            triclinic
loop_
_symmetry_equiv_pos_as_xyz
'x, y, z'
_cell_length_a     33.129075
_cell_length_b     38.60203
_cell_length_c     49.778547
_cell_angle_alpha  95.187262
_cell_angle_beta   91.515082
_cell_angle_gamma 129.84221
loop_
_atom_site_label
_atom_site_type_symbol
_atom_site_fract_x
_atom_site_fract_y
_atom_site_fract_z
_atom_type_partial_charge
Gd0 Gd 0.10613 0.5417 0.14113 0.0
Gd1 Gd 0.05436 0.57416 0.16845 0.0
C2 C 0.17355 0.65206 0.15951 0.0
C3 C 0.15588 0.52945 0.10809 0.0
C4 C 0.2084 0.54282 0.10761 0.0
C5 C 0.23287 0.54141 0.13039 0.0
C6 C 0.23166 0.55219 0.0833 0.0
C7 C 0.29682 0.54862 0.10287 0.0
C8 C 0.276 0.5556 0.08101 0.0
C9 C 0.27644 0.54395 0.128 0.0
C10 C 0.11452 0.54695 0.1957 0.0
C11 C 0.98812 0.46438 0.15293 0.0
C12 C 0.99349 0.57705 0.19729 0.0
C13 C 0.93573 0.54149 0.19285 0.0
C14 C 0.91275 0.51661 0.16682 0.0
C15 C 0.90432 0.5276 0.2144 0.0
C16 C 0.8275 0.46433 0.18358 0.0
C17 C 0.85022 0.48935 0.20973 0.0
C18 C 0.85942 0.47871 0.16223 0.0
C19 C 1.04628 0.56709 0.11343 0.0
O20 O 0.16766 0.61949 0.14323 0.0
O21 O 0.13662 0.64189 0.17519 0.0
O22 O 0.12624 0.50142 0.12522 0.0
O23 O 0.15295 0.56151 0.10703 0.0
O24 O 0.11224 0.51739 0.17949 0.0
O25 O 0.11826 0.57502 0.18253 0.0
O26 O 0.99552 0.49746 0.16919 0.0
O27 O 1.02283 0.47417 0.13579 0.0
O28 O 1.01529 0.6016 0.17751 0.0
O29 O 1.01771 0.56285 0.20578 0.0
O30 O 0.05194 0.5989 0.12916 0.0
O31 O 1.04153 0.5394 0.12738 0.0
H32 H 0.21609 0.53506 0.14955 0.0
H33 H 0.21375 0.5542 0.06564 0.0
H34 H 0.29166 0.5606 0.06159 0.0
H35 H 0.29092 0.53821 0.14533 0.0
H36 H 0.93638 0.52592 0.14996 0.0
H37 H 0.92173 0.54575 0.23475 0.0
H38 H 0.82637 0.47907 0.22651 0.0
H39 H 0.84303 0.46102 0.14171 0.0
Gd40 Gd 0.67115 0.07439 0.47759 0.0
Gd41 Gd 0.6024 0.09647 0.46462 0.0
C42 C 0.54342 0.99239 0.46562 0.0
C43 C 0.7138 0.0429 0.49666 0.0
C44 C 0.69665 0.99938 0.50397 0.0
C45 C 0.72438 0.98486 0.49574 0.0
C46 C 0.65316 0.97198 0.51874 0.0
C47 C 0.66569 0.91613 0.51685 0.0
C48 C 0.63799 0.93078 0.52525 0.0
C49 C 0.70903 0.94365 0.50203 0.0
C50 C 0.65937 0.07992 0.42468 0.0
C51 C 0.73207 0.1787 0.47328 0.0
C52 C 0.55854 0.12771 0.44705 0.0
C53 C 0.56608 0.16949 0.45458 0.0
C54 C 0.52192 0.1669 0.45452 0.0
C55 C 0.61642 0.2113 0.46371 0.0
C56 C 0.57804 0.24722 0.47344 0.0
C57 C 0.62239 0.24984 0.47287 0.0
C58 C 0.52776 0.20532 0.46389 0.0
C59 C 0.61502 0.09298 0.51798 0.0
O60 O 0.58776 0.00783 0.47975 0.0
O61 O 0.54209 0.02029 0.45286 0.0
O62 O 0.7077 0.04413 0.47083 0.0
O63 O 0.7019 0.06394 0.51199 0.0
O64 O 0.70352 0.09486 0.43748 0.0
O65 O 0.62297 0.061 0.43999 0.0
O66 O 0.68514 0.16441 0.46383 0.0
O67 O 0.73672 0.15059 0.48318 0.0
O68 O 0.53977 0.10004 0.46527 0.0
O69 O 0.59667 0.13232 0.43571 0.0
O70 O 0.5718 0.0797 0.50524 0.0
O71 O 0.65106 0.11056 0.50243 0.0
H72 H 0.75803 0.00548 0.48437 0.0
H73 H 0.63082 0.98227 0.52516 0.0
H74 H 0.60416 0.91005 0.53648 0.0
H75 H 0.73148 0.93351 0.49554 0.0
H76 H 0.48267 0.13482 0.44784 0.0
H77 H 0.65105 0.21405 0.46424 0.0
H78 H 0.66178 0.28161 0.4797 0.0
H79 H 0.49261 0.20176 0.46441 0.0
Gd80 Gd 0.60853 0.6053 0.851 0.0
Gd81 Gd 0.53137 0.50532 0.84519 0.0
C82 C 0.47713 0.55359 0.85004 0.0
C83 C 0.66182 0.68935 0.84327 0.0
C84 C 0.65249 0.72023 0.83638 0.0
C85 C 0.69185 0.7672 0.84461 0.0
C86 C 0.60628 0.70388 0.8205 0.0
C87 C 0.64001 0.78157 0.82039 0.0
C88 C 0.60017 0.73431 0.8125 0.0
C89 C 0.68568 0.79758 0.83675 0.0
C90 C 0.58855 0.57003 0.89787 0.0
C91 C 0.6636 0.55757 0.84932 0.0
C92 C 0.48378 0.42114 0.84965 0.0
C93 C 0.4963 0.39152 0.84149 0.0
C94 C 0.52007 0.39586 0.81766 0.0
C95 C 0.48668 0.36001 0.85813 0.0
C96 C 0.52337 0.33669 0.82682 0.0
C97 C 0.50009 0.33285 0.85089 0.0
C98 C 0.53312 0.36858 0.81032 0.0
C99 C 0.55101 0.53899 0.79769 0.0
O100 O 0.52665 0.59087 0.84663 0.0
O101 O 0.46984 0.5157 0.85287 0.0
O102 O 0.65159 0.67633 0.86731 0.0
O103 O 0.64671 0.65647 0.82411 0.0
O104 O 0.63579 0.60472 0.89306 0.0
O105 O 0.55515 0.55743 0.87831 0.0
O106 O 0.61292 0.51928 0.84906 0.0
O107 O 0.67221 0.59647 0.84873 0.0
O108 O 0.47073 0.43364 0.82994 0.0
O109 O 0.51624 0.45457 0.86922 0.0
O110 O 0.50449 0.50429 0.80294 0.0
O111 O 0.5851 0.5528 0.81728 0.0
H112 H 0.72789 0.78048 0.85673 0.0
H113 H 0.57529 0.66769 0.81396 0.0
H114 H 0.56425 0.72086 0.8002 0.0
H115 H 0.71731 0.83375 0.84295 0.0
H116 H 0.52861 0.42041 0.80465 0.0
H117 H 0.46916 0.35666 0.87683 0.0
H118 H 0.49281 0.30926 0.86433 0.0
H119 H 0.55028 0.37214 0.79148 0.0
H120 H 0.51601 0.97305 0.22798 0.0
H121 H 0.64411 0.10768 0.21094 0.0
H122 H 0.52767 1.00324 0.14609 0.0
C123 C 0.53671 0.99665 0.21336 0.0
C124 C 0.51631 0.98184 0.18589 0.0
C125 C 0.5827 0.0416 0.22256 0.0
C126 C 0.60852 0.07306 0.20392 0.0
C127 C 0.58883 0.05944 0.17622 0.0
C128 C 0.54255 0.01384 0.16743 0.0
N129 N 0.61453 0.09015 0.15659 0.0
C130 C 0.66112 0.13588 0.16143 0.0
H131 H 0.60073 0.49359 0.59924 0.0
H132 H 0.58695 0.59599 0.59051 0.0
H133 H 0.59275 0.52658 0.52035 0.0
C134 C 0.59703 0.5131 0.58667 0.0
C135 C 0.59642 0.50577 0.55849 0.0
C136 C 0.5932 0.54529 0.59867 0.0
C137 C 0.59092 0.57169 0.58186 0.0
C138 C 0.59154 0.56527 0.55361 0.0
C139 C 0.59386 0.53219 0.54219 0.0
N140 N 0.58799 0.59008 0.53573 0.0
C141 C 0.59368 0.62864 0.54348 0.0
H142 H 0.9718 0.55223 0.9111 0.0
H143 H 0.1003 0.55205 0.90186 0.0
H144 H 1.02554 0.55897 0.83205 0.0
C145 C 0.99766 0.55333 0.89767 0.0
C146 C 0.99132 0.5564 0.8701 0.0
C147 C 1.03616 0.55198 0.90904 0.0
C148 C 0.07128 0.5533 0.89273 0.0
C149 C 0.06921 0.55553 0.86484 0.0
C150 C 1.0281 0.55683 0.85347 0.0
N151 N 0.10732 0.55672 0.84857 0.0
C152 C 0.15055 0.55597 0.85486 0.0
H153 H 0.2247 0.66054 0.39421 0.0
H154 H 0.08936 0.52895 0.4116 0.0
H155 H 0.19388 0.63851 0.47697 0.0
C156 C 0.2013 0.63809 0.40895 0.0
C157 C 0.21613 0.65534 0.43669 0.0
C158 C 0.15627 0.59272 0.3997 0.0
C159 C 0.12405 0.56396 0.41864 0.0
C160 C 0.13733 0.58034 0.44663 0.0
C161 C 0.18332 0.62609 0.45544 0.0
N162 N 0.10612 0.55204 0.46654 0.0
C163 C 0.06006 0.50604 0.46183 0.0
H164 H 0.61154 0.15141 0.7181 0.0
H165 H 0.63333 0.05474 0.72987 0.0
H166 H 0.59641 0.10649 0.79582 0.0
C167 C 0.61286 0.13105 0.73108 0.0
C168 C 0.60329 0.133 0.75827 0.0
C169 C 0.62399 0.10315 0.72044 0.0
C170 C 0.62447 0.07612 0.73754 0.0
C171 C 0.61466 0.07765 0.76482 0.0
C172 C 0.60449 0.10614 0.77489 0.0
N173 N 0.61518 0.05176 0.78315 0.0
C174 C 0.61705 0.01704 0.77663 0.0
H175 H 0.55364 0.36922 0.04108 0.0
H176 H 0.4145 0.35495 0.04428 0.0
H177 H 0.45144 0.30337 0.10392 0.0
C178 C 0.51776 0.35595 0.05023 0.0
C179 C 0.50704 0.33508 0.07392 0.0
C180 C 0.48511 0.364 0.0398 0.0
C181 C 0.43934 0.34806 0.05194 0.0
C182 C 0.42664 0.32498 0.07462 0.0
C183 C 0.45992 0.31796 0.08517 0.0
N184 N 0.38486 0.31438 0.08935 0.0
C185 C 0.3767 0.34536 0.09352 0.0
C186 C 0.32068 0.50858 0.07457 0.0
C187 C 0.33111 0.53676 0.0984 0.0
C188 C 0.33962 0.48495 0.07315 0.0
C189 C 0.36865 0.48887 0.09628 0.0
C190 C 0.38484 0.52138 0.11908 0.0
C191 C 0.3664 0.54549 0.11973 0.0
C192 C 0.3237 0.45209 0.04795 0.0
C193 C 0.41713 0.52739 0.14383 0.0
C194 C 0.33318 0.37645 0.10566 0.0
C195 C 0.37619 0.38234 0.09626 0.0
C196 C 0.33155 0.41194 0.10689 0.0
C197 C 0.37375 0.45374 0.09815 0.0
C198 C 0.41813 0.46008 0.08949 0.0
C199 C 0.4188 0.4241 0.08875 0.0
C200 C 0.28392 0.4042 0.11672 0.0
C201 C 0.46367 0.50372 0.07977 0.0
H202 H 0.29373 0.50148 0.05782 0.0
H203 H 0.37634 0.56854 0.13782 0.0
H204 H 0.35765 0.45467 0.04236 0.0
H205 H 0.29193 0.4167 0.05196 0.0
H206 H 0.30879 0.45838 0.03042 0.0
H207 H 0.43372 0.55886 0.15782 0.0
H208 H 0.3916 0.49774 0.15498 0.0
H209 H 0.45006 0.52865 0.13793 0.0
H210 H 0.30057 0.34396 0.11163 0.0
H211 H 0.45229 0.42835 0.08184 0.0
H212 H 0.26185 0.40463 0.09978 0.0
H213 H 0.29668 0.43202 0.133 0.0
H214 H 0.25657 0.37114 0.12466 0.0
H215 H 0.45353 0.50248 0.05808 0.0
H216 H 0.50032 0.50821 0.08152 0.0
H217 H 0.4718 0.53395 0.09126 0.0
C218 C 0.77638 0.25623 0.45933 0.0
C219 C 0.78046 0.22709 0.47174 0.0
C220 C 0.82136 0.30144 0.457 0.0
C221 C 0.87233 0.3185 0.46718 0.0
C222 C 0.87682 0.2893 0.47969 0.0
C223 C 0.83108 0.24418 0.4818 0.0
C224 C 0.81424 0.33099 0.44357 0.0
C225 C 0.93009 0.30578 0.49092 0.0
C226 C 0.99513 0.42414 0.44126 0.0
C227 C 1.01202 0.45893 0.46228 0.0
C228 C 0.94978 0.3784 0.4425 0.0
C229 C 0.92065 0.36711 0.46533 0.0
C230 C 0.93775 0.40251 0.48649 0.0
C231 C 0.98309 0.44781 0.48469 0.0
C232 C 0.93317 0.34207 0.41942 0.0
C233 C 0.90829 0.39252 0.51118 0.0
H234 H 0.73786 0.24367 0.45118 0.0
H235 H 0.83512 0.22224 0.49132 0.0
H236 H 0.82989 0.36182 0.45791 0.0
H237 H 0.83712 0.34271 0.42579 0.0
H238 H 0.77211 0.31281 0.43668 0.0
H239 H 0.92723 0.27894 0.49974 0.0
H240 H 0.95666 0.31731 0.47464 0.0
H241 H 0.9488 0.33552 0.50689 0.0
H242 H 1.01757 0.43262 0.42395 0.0
H243 H 0.99622 0.47466 0.50103 0.0
H244 H 0.8921 0.32436 0.41067 0.0
H245 H 0.93343 0.31609 0.42708 0.0
H246 H 0.95953 0.35623 0.40303 0.0
H247 H 0.86659 0.37632 0.50495 0.0
H248 H 0.92638 0.42373 0.5258 0.0
H249 H 0.90766 0.36805 0.52169 0.0
C250 C 0.61618 0.80928 0.7844 0.0
C251 C 0.63449 0.81426 0.8114 0.0
C252 C 0.61219 0.8407 0.77558 0.0
C253 C 0.62651 0.87782 0.79423 0.0
C254 C 0.64472 0.88283 0.82153 0.0
C255 C 0.64858 0.85111 0.82974 0.0
C256 C 0.59293 0.83432 0.74629 0.0
C257 C 0.65989 0.92165 0.84216 0.0
C258 C 0.66286 0.98596 0.77243 0.0
C259 C 0.61688 0.97949 0.77621 0.0
C260 C 0.66571 0.95205 0.77686 0.0
C261 C 0.62169 0.91116 0.78556 0.0
C262 C 0.57439 0.90394 0.7882 0.0
C263 C 0.57263 0.93831 0.7835 0.0
C264 C 0.71668 0.96095 0.7736 0.0
C265 C 0.52663 0.86102 0.79748 0.0
H266 H 0.60584 0.7812 0.77003 0.0
H267 H 0.66215 0.85489 0.8507 0.0
H268 H 0.55685 0.83065 0.74509 0.0
H269 H 0.6234 0.86486 0.73682 0.0
H270 H 0.58374 0.8039 0.73428 0.0
H271 H 0.67352 0.92083 0.86255 0.0
H272 H 0.69197 0.95471 0.83539 0.0
H273 H 0.62555 0.92022 0.84396 0.0
H274 H 0.69722 0.01819 0.76707 0.0
H275 H 0.53731 0.93376 0.78671 0.0
H276 H 0.70872 0.93145 0.76111 0.0
H277 H 0.73556 0.96531 0.79379 0.0
H278 H 0.74508 0.99202 0.76399 0.0
H279 H 0.51633 0.83049 0.78504 0.0
H280 H 0.49157 0.85892 0.79624 0.0
H281 H 0.53585 0.85995 0.81883 0.0
C282 C 0.73371 0.43069 0.18552 0.0
C283 C 0.77003 0.42581 0.17718 0.0
C284 C 0.68235 0.40281 0.17205 0.0
C285 C 0.66802 0.37037 0.14952 0.0
C286 C 0.70166 0.36056 0.14403 0.0
C287 C 0.7523 0.38827 0.15819 0.0
C288 C 0.64611 0.41226 0.17959 0.0
C289 C 0.68718 0.32408 0.12163 0.0
C290 C 0.53605 0.30719 0.10711 0.0
C291 C 0.54898 0.33932 0.08995 0.0
C292 C 0.5744 0.31612 0.12646 0.0
C293 C 0.62701 0.35739 0.12803 0.0
C294 C 0.64117 0.38808 0.1093 0.0
C295 C 0.60195 0.37913 0.09094 0.0
C296 C 0.55857 0.28222 0.14565 0.0
C297 C 0.69757 0.43155 0.10935 0.0
H298 H 0.74678 0.45908 0.20056 0.0
H299 H 0.77976 0.38329 0.15243 0.0
H300 H 0.64917 0.43475 0.16583 0.0
H301 H 0.60432 0.38021 0.1773 0.0
H302 H 0.65693 0.42961 0.20078 0.0
H303 H 0.68028 0.2959 0.13099 0.0
H304 H 0.65115 0.30958 0.10807 0.0
H305 H 0.7205 0.33774 0.10912 0.0
H306 H 0.49558 0.27574 0.10609 0.0
H307 H 0.61284 0.40483 0.07837 0.0
H308 H 0.56746 0.29862 0.16693 0.0
H309 H 0.58204 0.271 0.14349 0.0
H310 H 0.51585 0.25176 0.14194 0.0
H311 H 0.70948 0.45523 0.12815 0.0
H312 H 0.70273 0.44918 0.09166 0.0
H313 H 0.72488 0.42413 0.10901 0.0
C314 C 0.44999 0.9244 0.446 0.0
C315 C 0.49517 0.94306 0.46377 0.0
C316 C 0.40476 0.87781 0.44364 0.0
C317 C 0.404 0.84876 0.4596 0.0
C318 C 0.44912 0.86758 0.47795 0.0
C319 C 0.49403 0.91422 0.47972 0.0
C320 C 0.35808 0.85941 0.42355 0.0
C321 C 0.45025 0.83829 0.49555 0.0
C322 C 0.26809 0.73322 0.46518 0.0
C323 C 0.26602 0.70388 0.44514 0.0
C324 C 0.31314 0.78009 0.4707 0.0
C325 C 0.35733 0.79836 0.4558 0.0
C326 C 0.35612 0.76852 0.43631 0.0
C327 C 0.31101 0.72197 0.43142 0.0
C328 C 0.31283 0.81035 0.49193 0.0
C329 C 0.40195 0.78602 0.41988 0.0
H330 H 0.45017 0.94611 0.43355 0.0
H331 H 0.5284 0.92806 0.49366 0.0
H332 H 0.35122 0.83327 0.4079 0.0
H333 H 0.32177 0.84253 0.43397 0.0
H334 H 0.36402 0.8865 0.41324 0.0
H335 H 0.48716 0.85836 0.50972 0.0
H336 H 0.4159 0.82084 0.50753 0.0
H337 H 0.4469 0.81143 0.48261 0.0
H338 H 0.23376 0.71993 0.47588 0.0
H339 H 0.31066 0.69966 0.41634 0.0
H340 H 0.31312 0.83518 0.48211 0.0
H341 H 0.34899 0.83018 0.50659 0.0
H342 H 0.27758 0.79062 0.50326 0.0
H343 H 0.40786 0.81119 0.40753 0.0
H344 H 0.39561 0.75829 0.40606 0.0
H345 H 0.43894 0.8038 0.43356 0.0
C346 C 0.58307 0.32496 0.8063 0.0
C347 C 0.5369 0.30732 0.81866 0.0
C348 C 0.59486 0.29713 0.79711 0.0
C349 C 0.56005 0.25057 0.80068 0.0
C350 C 0.51418 0.23281 0.81382 0.0
C351 C 0.50301 0.26128 0.8225 0.0
C352 C 0.6441 0.3174 0.78313 0.0
C353 C 0.4764 0.18348 0.81831 0.0
C354 C 0.56029 0.16756 0.7534 0.0
C355 C 0.5919 0.16294 0.76926 0.0
C356 C 0.54989 0.1961 0.76333 0.0
C357 C 0.57085 0.22017 0.78996 0.0
C358 C 0.60225 0.21533 0.80622 0.0
C359 C 0.6127 0.18709 0.79563 0.0
C360 C 0.51653 0.20057 0.74526 0.0
C361 C 0.62494 0.24009 0.83481 0.0
H362 H 0.61013 0.36066 0.80372 0.0
H363 H 0.46697 0.2471 0.83174 0.0
H364 H 0.66944 0.31228 0.79372 0.0
H365 H 0.63303 0.29977 0.76203 0.0
H366 H 0.66768 0.35445 0.78247 0.0
H367 H 0.44407 0.17555 0.83015 0.0
H368 H 0.45853 0.16114 0.79847 0.0
H369 H 0.49801 0.17493 0.82922 0.0
H370 H 0.54315 0.14849 0.73322 0.0
H371 H 0.63779 0.18438 0.80795 0.0
H372 H 0.53911 0.23682 0.74263 0.0
H373 H 0.48075 0.18932 0.75487 0.0
H374 H 0.50388 0.18014 0.7249 0.0
H375 H 0.65174 0.27743 0.83454 0.0
H376 H 0.64738 0.23175 0.84508 0.0
H377 H 0.59266 0.23118 0.84701 0.0
C378 C 0.64643 0.84251 0.50312 0.0
C379 C 0.64979 0.87229 0.5233 0.0
C380 C 0.63456 0.80221 0.50903 0.0
C381 C 0.62613 0.79144 0.53586 0.0
C382 C 0.62832 0.82086 0.55624 0.0
C383 C 0.63992 0.8609 0.54969 0.0
C384 C 0.63197 0.77153 0.4866 0.0
C385 C 0.61975 0.81063 0.58508 0.0
C386 C 0.55749 0.66755 0.54114 0.0
C387 C 0.60081 0.66982 0.54653 0.0
C388 C 0.56483 0.70732 0.53916 0.0
C389 C 0.61679 0.75006 0.54247 0.0
C390 C 0.66041 0.75245 0.54933 0.0
C391 C 0.65183 0.71212 0.5512 0.0
C392 C 0.51731 0.70327 0.5319 0.0
C393 C 0.71638 0.79726 0.55309 0.0
H394 H 0.65326 0.85086 0.48261 0.0
H395 H 0.64282 0.884 0.56539 0.0
H396 H 0.66294 0.76917 0.49152 0.0
H397 H 0.59315 0.73658 0.48478 0.0
H398 H 0.63766 0.78399 0.46664 0.0
H399 H 0.61999 0.83563 0.59821 0.0
H400 H 0.58148 0.77598 0.58552 0.0
H401 H 0.65132 0.81112 0.5938 0.0
H402 H 0.51807 0.63453 0.5373 0.0
H403 H 0.68524 0.71351 0.55512 0.0
H404 H 0.51767 0.71075 0.51086 0.0
H405 H 0.51873 0.72852 0.5455 0.0
H406 H 0.47952 0.66864 0.53322 0.0
H407 H 0.72759 0.81037 0.53331 0.0
H408 H 0.7452 0.79393 0.5611 0.0
H409 H 0.71945 0.823 0.56719 0.0
C410 C 0.76411 0.59481 0.84572 0.0
C411 C 0.71161 0.55691 0.85019 0.0
C412 C 0.80825 0.595 0.84631 0.0
C413 C 0.80344 0.55673 0.85242 0.0
C414 C 0.75045 0.51838 0.85712 0.0
C415 C 0.70662 0.5187 0.85558 0.0
C416 C 0.86051 0.63745 0.83998 0.0
C417 C 0.73916 0.47595 0.86411 0.0
C418 C 0.90698 0.53481 0.8394 0.0
C419 C 0.94642 0.5598 0.86222 0.0
C420 C 0.8623 0.53399 0.83565 0.0
C421 C 0.85307 0.55776 0.85524 0.0
C422 C 0.89306 0.5832 0.87803 0.0
C423 C 0.93774 0.58452 0.88077 0.0
C424 C 0.82451 0.50648 0.81024 0.0
C425 C 0.88885 0.60928 0.90054 0.0
H426 H 0.77118 0.62517 0.84132 0.0
H427 H 0.66783 0.48842 0.85913 0.0
H428 H 0.87944 0.66395 0.85805 0.0
H429 H 0.88798 0.63156 0.83418 0.0
H430 H 0.85431 0.65123 0.82319 0.0
H431 H 0.70306 0.45522 0.87474 0.0
H432 H 0.7325 0.45477 0.84511 0.0
H433 H 0.7729 0.48434 0.87709 0.0
H434 H 0.90996 0.51456 0.82443 0.0
H435 H 0.96632 0.6052 0.8985 0.0
H436 H 0.80226 0.51784 0.80491 0.0
H437 H 0.79584 0.47016 0.8133 0.0
H438 H 0.84602 0.50858 0.79286 0.0
H439 H 0.90612 0.64314 0.89495 0.0
H440 H 0.91098 0.61493 0.91991 0.0
H441 H 0.84704 0.59126 0.90402 0.0
C442 C 0.26074 0.71325 0.14241 0.0
C443 C 0.22332 0.70061 0.16079 0.0
C444 C 0.30812 0.75877 0.14371 0.0
C445 C 0.31899 0.79278 0.16404 0.0
C446 C 0.28109 0.78032 0.18244 0.0
C447 C 0.23387 0.73468 0.18053 0.0
C448 C 0.34696 0.77032 0.12353 0.0
C449 C 0.29094 0.8151 0.20461 0.0
C450 C 0.46196 0.89812 0.18893 0.0
C451 C 0.46774 0.93284 0.17737 0.0
C452 C 0.41449 0.8526 0.18426 0.0
C453 C 0.37119 0.84071 0.16725 0.0
C454 C 0.37743 0.87509 0.15445 0.0
C455 C 0.42549 0.92065 0.15966 0.0
C456 C 0.41015 0.81744 0.19833 0.0
C457 C 0.33268 0.86402 0.13592 0.0
H458 H 0.25313 0.6875 0.12694 0.0
H459 H 0.2055 0.72559 0.19487 0.0
H460 H 0.35679 0.79877 0.11317 0.0
H461 H 0.38433 0.78194 0.13428 0.0
H462 H 0.33141 0.74078 0.10795 0.0
H463 H 0.2569 0.8005 0.21669 0.0
H464 H 0.32645 0.829 0.2185 0.0
H465 H 0.29901 0.84408 0.19572 0.0
H466 H 0.49457 0.90676 0.2022 0.0
H467 H 0.42921 0.947 0.15067 0.0
H468 H 0.39801 0.7885 0.18324 0.0
H469 H 0.37918 0.80357 0.2124 0.0
H470 H 0.44795 0.83171 0.2101 0.0
H471 H 0.31738 0.8348 0.12017 0.0
H472 H 0.34496 0.89344 0.12577 0.0
H473 H 0.29955 0.85377 0.1478 0.0
C474 C 0.61926 0.31617 0.50814 0.0
C475 C 0.58385 0.28743 0.48491 0.0
C476 C 0.62368 0.35311 0.51984 0.0
C477 C 0.59151 0.36133 0.50825 0.0
C478 C 0.55614 0.33286 0.48465 0.0
C479 C 0.55293 0.29644 0.4732 0.0
C480 C 0.66207 0.38281 0.54493 0.0
C481 C 0.52104 0.34043 0.47174 0.0
C482 C 0.56224 0.42566 0.55386 0.0
C483 C 0.59631 0.46924 0.54599 0.0
C484 C 0.56029 0.39028 0.54173 0.0
C485 C 0.59354 0.39875 0.52136 0.0
C486 C 0.62841 0.4428 0.5135 0.0
C487 C 0.62918 0.47747 0.52582 0.0
C488 C 0.52219 0.34369 0.55049 0.0
C489 C 0.6649 0.45328 0.4921 0.0
H490 H 0.64275 0.30918 0.51763 0.0
H491 H 0.52607 0.27494 0.45502 0.0
H492 H 0.689 0.41909 0.54168 0.0
H493 H 0.64009 0.37983 0.56225 0.0
H494 H 0.68628 0.3734 0.55057 0.0
H495 H 0.49635 0.31576 0.45316 0.0
H496 H 0.49452 0.33718 0.48643 0.0
H497 H 0.54544 0.37545 0.46633 0.0
H498 H 0.53624 0.41898 0.56918 0.0
H499 H 0.65588 0.51121 0.51984 0.0
H500 H 0.54407 0.3331 0.55814 0.0
H501 H 0.49416 0.31823 0.53284 0.0
H502 H 0.49912 0.34276 0.56664 0.0
H503 H 0.69086 0.44589 0.49827 0.0
H504 H 0.69015 0.48942 0.48854 0.0
H505 H 0.64144 0.4311 0.47267 0.0
C506 C 0.37675 0.51585 0.85524 0.0
C507 C 0.42922 0.55435 0.85105 0.0
C508 C 0.33276 0.51583 0.85625 0.0
C509 C 0.33815 0.55527 0.85307 0.0
C510 C 0.39101 0.59428 0.84883 0.0
C511 C 0.43437 0.59339 0.84793 0.0
C512 C 0.27949 0.4726 0.8608 0.0
C513 C 0.4022 0.6379 0.84516 0.0
C514 C 0.21127 0.54379 0.83089 0.0
C515 C 0.19768 0.55542 0.85499 0.0
C516 C 0.25512 0.54364 0.83003 0.0
C517 C 0.28947 0.55549 0.85382 0.0
C518 C 0.27595 0.5673 0.87827 0.0
C519 C 0.23176 0.56718 0.87856 0.0
C520 C 0.26479 0.5306 0.80305 0.0
C521 C 0.30879 0.58042 0.90467 0.0
H522 H 0.36958 0.48481 0.85781 0.0
H523 H 0.47306 0.62408 0.84465 0.0
H524 H 0.26594 0.47905 0.87926 0.0
H525 H 0.24999 0.46124 0.84345 0.0
H526 H 0.2802 0.44465 0.86317 0.0
H527 H 0.44417 0.66554 0.84211 0.0
H528 H 0.37651 0.6319 0.82738 0.0
H529 H 0.39261 0.64943 0.86322 0.0
H530 H 0.18721 0.53462 0.81211 0.0
H531 H 0.22403 0.57661 0.89769 0.0
H532 H 0.26242 0.50073 0.80394 0.0
H533 H 0.30528 0.55902 0.79844 0.0
H534 H 0.23588 0.52216 0.78622 0.0
H535 H 0.30785 0.55212 0.90872 0.0
H536 H 0.29468 0.5887 0.92208 0.0
H537 H 0.35064 0.61043 0.90325 0.0
C538 C 0.93331 0.37937 0.13952 0.0
C539 C 0.94008 0.41587 0.15428 0.0
C540 C 0.8889 0.33363 0.14135 0.0
C541 C 0.8497 0.32371 0.1582 0.0
C542 C 0.85628 0.36044 0.1731 0.0
C543 C 0.9012 0.40579 0.17104 0.0
C544 C 0.88399 0.29582 0.12523 0.0
C545 C 0.81584 0.35184 0.19136 0.0
C546 C 0.70981 0.20813 0.14202 0.0
C547 C 0.70825 0.18353 0.16161 0.0
C548 C 0.75539 0.25353 0.14073 0.0
C549 C 0.80089 0.27512 0.15948 0.0
C550 C 0.79932 0.25021 0.17939 0.0
C551 C 0.75303 0.20473 0.18021 0.0
C552 C 0.75508 0.27823 0.11901 0.0
C553 C 0.84679 0.27146 0.19963 0.0
H554 H 0.96301 0.38648 0.12663 0.0
H555 H 0.90574 0.43344 0.18267 0.0
H556 H 0.88007 0.27298 0.139 0.0
H557 H 0.84772 0.27487 0.1106 0.0
H558 H 0.91856 0.30896 0.11382 0.0
H559 H 0.82455 0.38382 0.20003 0.0
H560 H 0.77575 0.3287 0.17997 0.0
H561 H 0.81494 0.33466 0.20831 0.0
H562 H 0.67534 0.19166 0.12745 0.0
H563 H 0.75203 0.18562 0.19526 0.0
H564 H 0.78291 0.28439 0.10429 0.0
H565 H 0.76891 0.31199 0.12809 0.0
H566 H 0.71522 0.2586 0.10776 0.0
H567 H 0.88125 0.28225 0.1888 0.0
H568 H 0.83953 0.2477 0.21373 0.0
H569 H 0.85766 0.30246 0.21172 0.0
C570 C 0.04653 0.5938 0.06938 0.0
C571 C 0.04667 0.56413 0.08355 0.0
C572 C 0.04655 0.59108 0.041 0.0
C573 C 0.04758 0.55837 0.02646 0.0
C574 C 0.04873 0.52888 0.0408 0.0
C575 C 0.0477 0.5318 0.06912 0.0
C576 C 1.04466 0.62281 0.02651 0.0
C577 C 0.05073 0.49405 0.02623 0.0
C578 C 0.99368 0.52236 0.95173 0.0
C579 C 1.03985 0.55032 0.93888 0.0
C580 C 0.99576 0.52409 0.98008 0.0
C581 C 1.04532 0.55393 -0.00382 0.0
C582 C 0.09228 0.58068 0.98332 0.0
C583 C 0.089 0.57874 0.95487 0.0
C584 C 0.94468 0.49498 0.99287 0.0
C585 C 0.14596 0.61238 -0.00032 0.0
H586 H 1.04576 0.61884 0.08045 0.0
H587 H 0.04798 0.50886 0.08 0.0
H588 H 0.07919 0.64302 0.01481 0.0
H589 H 1.00855 0.6027 0.01179 0.0
H590 H 1.04459 0.64665 0.04075 0.0
H591 H 0.0547 0.4756 0.04049 0.0
H592 H 1.01418 0.46881 0.01209 0.0
H593 H 0.08455 0.51086 0.01389 0.0
H594 H 0.95556 0.49953 0.93957 0.0
H595 H 0.1249 0.60068 0.94524 0.0
H596 H 0.94066 0.51712 0.00611 0.0
H597 H 0.94502 0.4733 0.00589 0.0
H598 H 0.90947 0.47264 0.97751 0.0
H599 H 0.15032 0.64007 0.01224 0.0
H600 H 0.1787 0.62797 0.98661 0.0
H601 H 0.1499 0.59377 0.01377 0.0
C602 C 0.69516 0.10291 0.38026 0.0
C603 C 0.65182 0.08086 0.39545 0.0
C604 C 0.68839 0.10198 0.35216 0.0
C605 C 0.63699 0.07822 0.33894 0.0
C606 C 0.59332 0.05721 0.35438 0.0
C607 C 0.6013 0.05889 0.38249 0.0
C608 C 0.73599 0.12507 0.33649 0.0
C609 C 0.53787 0.03148 0.34106 0.0
C610 C 0.61559 0.09357 0.26679 0.0
C611 C 0.60283 0.05454 0.25185 0.0
C612 C 0.62822 0.10254 0.29515 0.0
C613 C 0.6281 0.07176 0.30875 0.0
C614 C 0.6174 0.03338 0.29356 0.0
C615 C 0.60509 0.02536 0.26535 0.0
C616 C 0.63978 0.14398 0.31064 0.0
C617 C 0.61719 0.99985 0.30719 0.0
H618 H 0.73439 0.1203 0.39029 0.0
H619 H 0.56776 0.04207 0.39422 0.0
H620 H 0.733 0.09901 0.3228 0.0
H621 H 0.73727 0.14764 0.32356 0.0
H622 H 0.77369 0.14561 0.35005 0.0
H623 H 0.50882 0.0198 0.35612 0.0
H624 H 0.53661 0.05323 0.32858 0.0
H625 H 0.52549 1.00123 0.32723 0.0
H626 H 0.61364 0.11608 0.25645 0.0
H627 H 0.59605 0.99551 0.25382 0.0
H628 H 0.67738 0.16397 0.32418 0.0
H629 H 0.60795 0.13312 0.32372 0.0
H630 H 0.64259 0.16647 0.29694 0.0
H631 H 0.65552 0.01781 0.31964 0.0
H632 H 0.61007 0.9727 0.29234 0.0
H633 H 0.58586 0.98355 0.32108 0.0
C634 C 0.52492 0.54328 0.75166 0.0
C635 C 0.56317 0.55042 0.76997 0.0
C636 C 0.53295 0.54874 0.7243 0.0
C637 C 0.57958 0.56008 0.7149 0.0
C638 C 0.61929 0.56909 0.73362 0.0
C639 C 0.61092 0.56481 0.76109 0.0
C640 C 0.49036 0.54024 0.70522 0.0
C641 C 0.66897 0.58016 0.72436 0.0
C642 C 0.5635 0.51119 0.642 0.0
C643 C 0.58978 0.54977 0.62853 0.0
C644 C 0.56113 0.51447 0.67009 0.0
C645 C 0.58379 0.55712 0.68519 0.0
C646 C 0.60924 0.5961 0.6718 0.0
C647 C 0.61255 0.59211 0.6437 0.0
C648 C 0.5342 0.47209 0.68358 0.0
C649 C 0.63265 0.64192 0.68711 0.0
H650 H 0.48821 0.53258 0.75866 0.0
H651 H 0.64043 0.57017 0.77528 0.0
H652 H 0.50796 0.56767 0.69223 0.0
H653 H 0.46993 0.50766 0.69161 0.0
H654 H 0.4604 0.53827 0.71629 0.0
H655 H 0.69805 0.59042 0.74169 0.0
H656 H 0.65861 0.54977 0.71166 0.0
H657 H 0.68801 0.60797 0.71162 0.0
H658 H 0.54422 0.478 0.63058 0.0
H659 H 0.63342 0.62229 0.63372 0.0
H660 H 0.49886 0.46367 0.69231 0.0
H661 H 0.56132 0.47809 0.70055 0.0
H662 H 0.5215 0.44216 0.66923 0.0
H663 H 0.6018 0.63937 0.69754 0.0
H664 H 0.64966 0.66864 0.67361 0.0
H665 H 0.66421 0.65282 0.70303 0.0
C666 C 0.58144 0.083 0.56314 0.0
C667 C 0.62203 0.09405 0.54763 0.0
C668 C 0.58654 0.08417 0.59132 0.0
C669 C 0.6328 0.09536 0.60436 0.0
C670 C 0.67347 0.10545 0.58872 0.0
C671 C 0.66805 0.10558 0.56057 0.0
C672 C 0.54275 0.07435 0.6072 0.0
C673 C 0.72269 0.11623 0.60172 0.0
C674 C 0.66031 0.1419 0.67899 0.0
C675 C 0.63366 0.1021 0.6913 0.0
C676 C 0.66243 0.14055 0.65084 0.0
C677 C 0.63901 0.09863 0.63451 0.0
C678 C 0.61607 0.05903 0.64699 0.0
C679 C 0.61307 0.06108 0.67518 0.0
C680 C 0.68659 0.18351 0.63843 0.0
C681 C 0.59215 0.01394 0.6304 0.0
H682 H 0.5458 0.07418 0.55328 0.0
H683 H 0.6997 0.11456 0.54872 0.0
H684 H 0.52675 0.04481 0.61813 0.0
H685 H 0.55859 0.10405 0.62269 0.0
H686 H 0.50969 0.06682 0.59402 0.0
H687 H 0.74792 0.11861 0.58644 0.0
H688 H 0.74629 0.1491 0.6154 0.0
H689 H 0.71185 0.08964 0.61432 0.0
H690 H 0.67809 0.17414 0.69128 0.0
H691 H 0.59244 0.03006 0.68431 0.0
H692 H 0.65518 0.17949 0.62598 0.0
H693 H 0.71584 0.18971 0.62473 0.0
H694 H 0.70645 0.21395 0.65403 0.0
H695 H 0.55427 1.00001 0.61896 0.0
H696 H 0.58415 0.98857 0.64333 0.0
H697 H 0.61879 0.01841 0.61536 0.0
C698 C 0.61655 0.55099 0.93722 0.0
C699 C 0.57624 0.54258 0.91994 0.0
C700 C 0.60445 0.52255 0.9569 0.0
C701 C 0.55089 0.48489 0.95915 0.0
C702 C 0.51016 0.47664 0.94186 0.0
C703 C 0.52334 0.50578 0.92262 0.0
C704 C 0.64884 0.53282 0.97534 0.0
C705 C 0.4526 0.43682 0.94355 0.0
C706 C 0.51501 0.38599 0.99397 0.0
C707 C 0.50281 0.39485 0.01901 0.0
C708 C 0.53151 0.41539 0.97431 0.0
C709 C 0.53693 0.45491 0.98021 0.0
C710 C 0.52621 0.4646 0.00583 0.0
C711 C 0.50885 0.43424 0.0248 0.0
C712 C 0.54208 0.40375 0.94707 0.0
C713 C 0.53188 0.50649 0.01308 0.0
H714 H 0.65748 0.57939 0.93512 0.0
H715 H 0.49206 0.49925 0.9093 0.0
H716 H 0.64409 0.53885 -0.0032 0.0
H717 H 0.64731 0.50313 0.97323 0.0
H718 H 0.68836 0.56318 0.97086 0.0
H719 H 0.42584 0.43437 0.92804 0.0
H720 H 0.44581 0.40453 0.94076 0.0
H721 H 0.44172 0.44011 0.96394 0.0
H722 H 0.51061 0.35563 0.98961 0.0
H723 H 0.50052 0.4416 0.04439 0.0
H724 H 0.58277 0.43242 0.94287 0.0
H725 H 0.51442 0.39854 0.93079 0.0
H726 H 0.53745 0.37247 0.94595 0.0
H727 H 0.56915 0.53698 0.00683 0.0
H728 H 0.53161 0.51336 0.03518 0.0
H729 H 0.49859 0.5016 0.00215 0.0
C730 C 0.10538 0.51327 0.238 0.0
C731 C 0.11525 0.54879 0.2255 0.0
C732 C 0.10666 0.51486 0.26635 0.0
C733 C 0.11869 0.55315 0.28255 0.0
C734 C 0.12765 0.58868 0.26991 0.0
C735 C 0.12556 0.58595 0.24152 0.0
C736 C 0.09625 0.47606 0.279 0.0
C737 C 0.14099 0.63025 0.28643 0.0
C738 C 0.09318 0.55285 0.3568 0.0
C739 C 0.14406 0.57654 0.37001 0.0
C740 C 0.08366 0.54331 0.32828 0.0
C741 C 0.12606 0.55796 0.31273 0.0
C742 C 0.17683 0.57987 0.32608 0.0
C743 C 0.18507 0.5886 0.35449 0.0
C744 C 1.02883 0.51931 0.31477 0.0
C745 C 0.22313 0.59597 0.31035 0.0
H746 H 0.09682 0.48424 0.2256 0.0
H747 H 0.13292 0.61335 0.23189 0.0
H748 H 0.13274 0.48825 0.29116 0.0
H749 H 0.06542 0.46347 0.29304 0.0
H750 H 0.08326 0.44717 0.26354 0.0
H751 H 0.14447 0.65385 0.27348 0.0
H752 H 0.1102 0.61993 0.30014 0.0
H753 H 0.17903 0.64897 0.29938 0.0
H754 H 0.06138 0.54355 0.36867 0.0
H755 H 0.22426 0.60615 0.36462 0.0
H756 H 1.01636 0.49063 0.29932 0.0
H757 H 1.02895 0.54337 0.30407 0.0
H758 H 0.99916 0.50593 0.3296 0.0
H759 H 0.21333 0.56737 0.29584 0.0
H760 H 0.25941 0.61047 0.3238 0.0
H761 H 0.23184 0.62249 0.29832 0.0
loop_
_geom_bond_atom_site_label_1
_geom_bond_atom_site_label_2
_geom_bond_distance
_geom_bond_site_symmetry_2
_ccdc_geom_bond_type
Gd0 C3 2.818 . S
Gd0 O20 2.377 . S
Gd0 O22 2.448 . S
Gd0 O23 2.506 . S
Gd0 O24 2.435 . S
Gd0 O25 2.717 . S
Gd0 O27 2.395 1_455 S
Gd0 O31 2.327 . S
Gd1 C12 2.818 1_455 S
Gd1 O21 2.395 . S
Gd1 O25 2.327 . S
Gd1 O26 2.377 1_455 S
Gd1 O28 2.448 1_455 S
Gd1 O29 2.506 1_455 S
Gd1 O30 2.435 . S
Gd1 O31 2.717 . S
C2 O20 1.240 . S
C2 O21 1.240 . S
C3 Gd0 2.818 . S
C3 C4 1.510 . S
C3 O22 1.249 . S
C3 O23 1.252 . S
C4 C3 1.510 . S
C4 C5 1.404 . S
C4 C6 1.352 . S
C5 C4 1.404 . S
C5 C9 1.389 . S
C5 H32 0.930 . S
C6 C4 1.352 . S
C6 C8 1.374 . S
C6 H33 0.931 . S
C7 C8 1.359 . S
C7 C9 1.364 . S
C8 C6 1.374 . S
C8 C7 1.359 . S
C8 H34 0.931 . S
C9 C5 1.389 . S
C9 C7 1.364 . S
C9 H35 0.931 . S
C10 O24 1.256 . S
C10 O25 1.257 . S
C11 O26 1.240 . S
C11 O27 1.240 . S
C12 Gd1 2.818 1_655 S
C12 C13 1.510 . S
C12 O28 1.249 . S
C12 O29 1.252 . S
C13 C12 1.510 . S
C13 C14 1.404 . S
C13 C15 1.352 . S
C14 C13 1.404 . S
C14 C18 1.389 . S
C14 H36 0.930 . S
C15 C13 1.352 . S
C15 C17 1.374 . S
C15 H37 0.931 . S
C16 C17 1.359 . S
C16 C18 1.364 . S
C17 C15 1.374 . S
C17 C16 1.359 . S
C17 H38 0.931 . S
C18 C14 1.389 . S
C18 C16 1.364 . S
C18 H39 0.931 . S
C19 O30 1.256 . S
C19 O31 1.257 . S
O20 Gd0 2.377 . S
O20 C2 1.240 . S
O21 Gd1 2.395 . S
O21 C2 1.240 . S
O22 Gd0 2.448 . S
O22 C3 1.249 . S
O23 Gd0 2.506 . S
O23 C3 1.252 . S
O24 Gd0 2.435 . S
O24 C10 1.256 . S
O25 Gd0 2.717 . S
O25 Gd1 2.327 . S
O25 C10 1.257 . S
O26 Gd1 2.377 1_655 S
O26 C11 1.240 . S
O27 Gd0 2.395 1_655 S
O27 C11 1.240 . S
O28 Gd1 2.448 1_655 S
O28 C12 1.249 . S
O29 Gd1 2.506 1_655 S
O29 C12 1.252 . S
O30 Gd1 2.435 . S
O30 C19 1.256 . S
O31 Gd0 2.327 . S
O31 Gd1 2.717 . S
O31 C19 1.257 . S
H32 C5 0.930 . S
H33 C6 0.931 . S
H34 C8 0.931 . S
H35 C9 0.931 . S
H36 C14 0.930 . S
H37 C15 0.931 . S
H38 C17 0.931 . S
H39 C18 0.931 . S
Gd40 C43 2.818 1_545 S
Gd40 O60 2.377 1_545 S
Gd40 O62 2.448 1_545 S
Gd40 O63 2.506 1_545 S
Gd40 O64 2.435 . S
Gd40 O65 2.717 . S
Gd40 O67 2.395 . S
Gd40 O71 2.327 . S
Gd41 C52 2.818 . S
Gd41 O61 2.395 1_545 S
Gd41 O65 2.327 . S
Gd41 O66 2.377 . S
Gd41 O68 2.448 . S
Gd41 O69 2.506 . S
Gd41 O70 2.435 . S
Gd41 O71 2.717 . S
C42 O60 1.240 . S
C42 O61 1.240 . S
C43 Gd40 2.818 1_565 S
C43 C44 1.510 . S
C43 O62 1.249 . S
C43 O63 1.252 . S
C44 C43 1.510 . S
C44 C45 1.404 . S
C44 C46 1.352 . S
C45 C44 1.404 . S
C45 C49 1.389 . S
C45 H72 0.930 . S
C46 C44 1.352 . S
C46 C48 1.374 . S
C46 H73 0.931 . S
C47 C48 1.359 . S
C47 C49 1.364 . S
C48 C46 1.374 . S
C48 C47 1.359 . S
C48 H74 0.931 . S
C49 C45 1.389 . S
C49 C47 1.364 . S
C49 H75 0.931 . S
C50 O64 1.256 . S
C50 O65 1.257 . S
C51 O66 1.240 . S
C51 O67 1.240 . S
C52 Gd41 2.818 . S
C52 C53 1.510 . S
C52 O68 1.249 . S
C52 O69 1.252 . S
C53 C52 1.510 . S
C53 C54 1.404 . S
C53 C55 1.352 . S
C54 C53 1.404 . S
C54 C58 1.389 . S
C54 H76 0.930 . S
C55 C53 1.352 . S
C55 C57 1.374 . S
C55 H77 0.931 . S
C56 C57 1.359 . S
C56 C58 1.364 . S
C57 C55 1.374 . S
C57 C56 1.359 . S
C57 H78 0.931 . S
C58 C54 1.389 . S
C58 C56 1.364 . S
C58 H79 0.931 . S
C59 O70 1.256 . S
C59 O71 1.257 . S
O60 Gd40 2.377 1_565 S
O60 C42 1.240 . S
O61 Gd41 2.395 1_565 S
O61 C42 1.240 . S
O62 Gd40 2.448 1_565 S
O62 C43 1.249 . S
O63 Gd40 2.506 1_565 S
O63 C43 1.252 . S
O64 Gd40 2.435 . S
O64 C50 1.256 . S
O65 Gd40 2.717 . S
O65 Gd41 2.327 . S
O65 C50 1.257 . S
O66 Gd41 2.377 . S
O66 C51 1.240 . S
O67 Gd40 2.395 . S
O67 C51 1.240 . S
O68 Gd41 2.448 . S
O68 C52 1.249 . S
O69 Gd41 2.506 . S
O69 C52 1.252 . S
O70 Gd41 2.435 . S
O70 C59 1.256 . S
O71 Gd40 2.327 . S
O71 Gd41 2.717 . S
O71 C59 1.257 . S
H72 C45 0.930 . S
H73 C46 0.931 . S
H74 C48 0.931 . S
H75 C49 0.931 . S
H76 C54 0.930 . S
H77 C55 0.931 . S
H78 C57 0.931 . S
H79 C58 0.931 . S
Gd80 C83 2.818 . S
Gd80 O100 2.377 . S
Gd80 O102 2.448 . S
Gd80 O103 2.506 . S
Gd80 O104 2.435 . S
Gd80 O105 2.717 . S
Gd80 O107 2.395 . S
Gd80 O111 2.327 . S
Gd81 C92 2.818 . S
Gd81 O101 2.395 . S
Gd81 O105 2.327 . S
Gd81 O106 2.377 . S
Gd81 O108 2.448 . S
Gd81 O109 2.506 . S
Gd81 O110 2.435 . S
Gd81 O111 2.717 . S
C82 O100 1.240 . S
C82 O101 1.240 . S
C83 Gd80 2.818 . S
C83 C84 1.510 . S
C83 O102 1.249 . S
C83 O103 1.252 . S
C84 C83 1.510 . S
C84 C85 1.404 . S
C84 C86 1.352 . S
C85 C84 1.404 . S
C85 C89 1.389 . S
C85 H112 0.930 . S
C86 C84 1.352 . S
C86 C88 1.374 . S
C86 H113 0.931 . S
C87 C88 1.359 . S
C87 C89 1.364 . S
C88 C86 1.374 . S
C88 C87 1.359 . S
C88 H114 0.931 . S
C89 C85 1.389 . S
C89 C87 1.364 . S
C89 H115 0.931 . S
C90 O104 1.256 . S
C90 O105 1.257 . S
C91 O106 1.240 . S
C91 O107 1.240 . S
C92 Gd81 2.818 . S
C92 C93 1.510 . S
C92 O108 1.249 . S
C92 O109 1.252 . S
C93 C92 1.510 . S
C93 C94 1.404 . S
C93 C95 1.352 . S
C94 C93 1.404 . S
C94 C98 1.389 . S
C94 H116 0.930 . S
C95 C93 1.352 . S
C95 C97 1.374 . S
C95 H117 0.931 . S
C96 C97 1.359 . S
C96 C98 1.364 . S
C97 C95 1.374 . S
C97 C96 1.359 . S
C97 H118 0.931 . S
C98 C94 1.389 . S
C98 C96 1.364 . S
C98 H119 0.931 . S
C99 O110 1.256 . S
C99 O111 1.257 . S
O100 Gd80 2.377 . S
O100 C82 1.240 . S
O101 Gd81 2.395 . S
O101 C82 1.240 . S
O102 Gd80 2.448 . S
O102 C83 1.249 . S
O103 Gd80 2.506 . S
O103 C83 1.252 . S
O104 Gd80 2.435 . S
O104 C90 1.256 . S
O105 Gd80 2.717 . S
O105 Gd81 2.327 . S
O105 C90 1.257 . S
O106 Gd81 2.377 . S
O106 C91 1.240 . S
O107 Gd80 2.395 . S
O107 C91 1.240 . S
O108 Gd81 2.448 . S
O108 C92 1.249 . S
O109 Gd81 2.506 . S
O109 C92 1.252 . S
O110 Gd81 2.435 . S
O110 C99 1.256 . S
O111 Gd80 2.327 . S
O111 Gd81 2.717 . S
O111 C99 1.257 . S
H112 C85 0.930 . S
H113 C86 0.931 . S
H114 C88 0.931 . S
H115 C89 0.931 . S
H116 C94 0.930 . S
H117 C95 0.931 . S
H118 C97 0.931 . S
H119 C98 0.931 . S
H120 C123 0.929 1_565 S
H121 C126 0.929 . S
H122 C128 0.930 . S
C123 H120 0.929 1_545 S
C123 C124 1.398 1_545 S
C123 C125 1.396 . S
C124 C123 1.398 1_565 S
C124 C128 1.407 1_565 S
C125 C123 1.396 . S
C125 C126 1.394 . S
C126 H121 0.929 . S
C126 C125 1.394 . S
C126 C127 1.382 . S
C127 C126 1.382 . S
C127 C128 1.392 . S
C127 N129 1.420 . S
C128 H122 0.930 . S
C128 C124 1.407 1_545 S
C128 C127 1.392 . S
N129 C127 1.420 . S
N129 C130 1.244 . S
C130 N129 1.244 . S
H131 C134 0.929 . S
H132 C137 0.929 . S
H133 C139 0.930 . S
C134 H131 0.929 . S
C134 C135 1.398 . S
C134 C136 1.396 . S
C135 C134 1.398 . S
C135 C139 1.407 . S
C136 C134 1.396 . S
C136 C137 1.394 . S
C137 H132 0.929 . S
C137 C136 1.394 . S
C137 C138 1.382 . S
C138 C137 1.382 . S
C138 C139 1.392 . S
C138 N140 1.420 . S
C139 H133 0.930 . S
C139 C135 1.407 . S
C139 C138 1.392 . S
N140 C138 1.420 . S
N140 C141 1.244 . S
C141 N140 1.244 . S
H142 C145 0.929 . S
H143 C148 0.929 . S
H144 C150 0.930 . S
C145 H142 0.929 . S
C145 C146 1.398 . S
C145 C147 1.396 . S
C146 C145 1.398 . S
C146 C150 1.407 . S
C147 C145 1.396 . S
C147 C148 1.394 . S
C148 H143 0.929 . S
C148 C147 1.394 . S
C148 C149 1.382 . S
C149 C148 1.382 . S
C149 C150 1.392 . S
C149 N151 1.420 . S
C150 H144 0.930 . S
C150 C146 1.407 . S
C150 C149 1.392 . S
N151 C149 1.420 . S
N151 C152 1.244 . S
C152 N151 1.244 . S
H153 C156 0.929 . S
H154 C159 0.929 . S
H155 C161 0.930 . S
C156 H153 0.929 . S
C156 C157 1.398 . S
C156 C158 1.396 . S
C157 C156 1.398 . S
C157 C161 1.407 . S
C158 C156 1.396 . S
C158 C159 1.394 1_455 S
C159 H154 0.929 . S
C159 C158 1.394 1_655 S
C159 C160 1.382 . S
C160 C159 1.382 . S
C160 C161 1.392 1_655 S
C160 N162 1.420 . S
C161 H155 0.930 . S
C161 C157 1.407 . S
C161 C160 1.392 1_455 S
N162 C160 1.420 . S
N162 C163 1.244 . S
C163 N162 1.244 . S
H164 C167 0.929 . S
H165 C170 0.929 1_565 S
H166 C172 0.930 . S
C167 H164 0.929 . S
C167 C168 1.398 . S
C167 C169 1.396 . S
C168 C167 1.398 . S
C168 C172 1.407 . S
C169 C167 1.396 . S
C169 C170 1.394 . S
C170 H165 0.929 1_545 S
C170 C169 1.394 . S
C170 C171 1.382 . S
C171 C170 1.382 . S
C171 C172 1.392 . S
C171 N173 1.420 . S
C172 H166 0.930 . S
C172 C168 1.407 . S
C172 C171 1.392 . S
N173 C171 1.420 . S
N173 C174 1.244 1_545 S
C174 N173 1.244 1_565 S
H175 C178 0.929 . S
H176 C181 0.929 . S
H177 C183 0.930 . S
C178 H175 0.929 . S
C178 C179 1.398 . S
C178 C180 1.396 . S
C179 C178 1.398 . S
C179 C183 1.407 . S
C180 C178 1.396 . S
C180 C181 1.394 . S
C181 H176 0.929 . S
C181 C180 1.394 . S
C181 C182 1.382 . S
C182 C181 1.382 . S
C182 C183 1.392 . S
C182 N184 1.420 . S
C183 H177 0.930 . S
C183 C179 1.407 . S
C183 C182 1.392 . S
N184 C182 1.420 . S
N184 C185 1.244 . S
C185 N184 1.244 . S
C186 C187 1.391 . S
C186 C188 1.394 . S
C186 H202 0.931 . S
C187 C186 1.391 . S
C187 C191 1.376 . S
C188 C186 1.394 . S
C188 C189 1.369 . S
C188 C192 1.531 . S
C189 C188 1.369 . S
C189 C190 1.410 . S
C189 C197 1.503 . S
C190 C189 1.410 . S
C190 C191 1.392 . S
C190 C193 1.511 . S
C191 C187 1.376 . S
C191 C190 1.392 . S
C191 H203 0.929 . S
C192 C188 1.531 . S
C192 H204 0.960 . S
C192 H205 0.962 . S
C192 H206 0.960 . S
C193 C190 1.511 . S
C193 H207 0.961 . S
C193 H208 0.961 . S
C193 H209 0.961 . S
C194 C195 1.370 . S
C194 C196 1.363 . S
C194 H210 0.931 . S
C195 C194 1.370 . S
C195 C199 1.408 . S
C196 C194 1.363 . S
C196 C197 1.370 . S
C196 C200 1.524 . S
C197 C189 1.503 . S
C197 C196 1.370 . S
C197 C198 1.403 . S
C198 C197 1.403 . S
C198 C199 1.404 . S
C198 C201 1.539 . S
C199 C195 1.408 . S
C199 C198 1.404 . S
C199 H211 0.930 . S
C200 C196 1.524 . S
C200 H212 0.956 . S
C200 H213 0.961 . S
C200 H214 0.961 . S
C201 C198 1.539 . S
C201 H215 0.958 . S
C201 H216 0.961 . S
C201 H217 0.960 . S
H202 C186 0.931 . S
H203 C191 0.929 . S
H204 C192 0.960 . S
H205 C192 0.962 . S
H206 C192 0.960 . S
H207 C193 0.961 . S
H208 C193 0.961 . S
H209 C193 0.961 . S
H210 C194 0.931 . S
H211 C199 0.930 . S
H212 C200 0.956 . S
H213 C200 0.961 . S
H214 C200 0.961 . S
H215 C201 0.958 . S
H216 C201 0.961 . S
H217 C201 0.960 . S
C218 C219 1.391 . S
C218 C220 1.394 . S
C218 H234 0.931 . S
C219 C218 1.391 . S
C219 C223 1.376 . S
C220 C218 1.394 . S
C220 C221 1.369 . S
C220 C224 1.531 . S
C221 C220 1.369 . S
C221 C222 1.410 . S
C221 C229 1.503 . S
C222 C221 1.410 . S
C222 C223 1.392 . S
C222 C225 1.511 . S
C223 C219 1.376 . S
C223 C222 1.392 . S
C223 H235 0.929 . S
C224 C220 1.531 . S
C224 H236 0.960 . S
C224 H237 0.962 . S
C224 H238 0.960 . S
C225 C222 1.511 . S
C225 H239 0.961 . S
C225 H240 0.961 . S
C225 H241 0.961 . S
C226 C227 1.370 . S
C226 C228 1.363 . S
C226 H242 0.931 . S
C227 C226 1.370 . S
C227 C231 1.408 . S
C228 C226 1.363 . S
C228 C229 1.370 . S
C228 C232 1.524 . S
C229 C221 1.503 . S
C229 C228 1.370 . S
C229 C230 1.403 . S
C230 C229 1.403 . S
C230 C231 1.404 . S
C230 C233 1.539 . S
C231 C227 1.408 . S
C231 C230 1.404 . S
C231 H243 0.930 . S
C232 C228 1.524 . S
C232 H244 0.956 . S
C232 H245 0.961 . S
C232 H246 0.961 . S
C233 C230 1.539 . S
C233 H247 0.958 . S
C233 H248 0.961 . S
C233 H249 0.960 . S
H234 C218 0.931 . S
H235 C223 0.929 . S
H236 C224 0.960 . S
H237 C224 0.962 . S
H238 C224 0.960 . S
H239 C225 0.961 . S
H240 C225 0.961 . S
H241 C225 0.961 . S
H242 C226 0.931 . S
H243 C231 0.930 . S
H244 C232 0.956 . S
H245 C232 0.961 . S
H246 C232 0.961 . S
H247 C233 0.958 . S
H248 C233 0.961 . S
H249 C233 0.960 . S
C250 C251 1.391 . S
C250 C252 1.394 . S
C250 H266 0.931 . S
C251 C250 1.391 . S
C251 C255 1.376 . S
C252 C250 1.394 . S
C252 C253 1.369 . S
C252 C256 1.531 . S
C253 C252 1.369 . S
C253 C254 1.410 . S
C253 C261 1.503 . S
C254 C253 1.410 . S
C254 C255 1.392 . S
C254 C257 1.511 . S
C255 C251 1.376 . S
C255 C254 1.392 . S
C255 H267 0.929 . S
C256 C252 1.531 . S
C256 H268 0.960 . S
C256 H269 0.962 . S
C256 H270 0.960 . S
C257 C254 1.511 . S
C257 H271 0.961 . S
C257 H272 0.961 . S
C257 H273 0.961 . S
C258 C259 1.370 . S
C258 C260 1.363 . S
C258 H274 0.931 . S
C259 C258 1.370 . S
C259 C263 1.408 . S
C260 C258 1.363 . S
C260 C261 1.370 . S
C260 C264 1.524 . S
C261 C253 1.503 . S
C261 C260 1.370 . S
C261 C262 1.403 . S
C262 C261 1.403 . S
C262 C263 1.404 . S
C262 C265 1.539 . S
C263 C259 1.408 . S
C263 C262 1.404 . S
C263 H275 0.930 . S
C264 C260 1.524 . S
C264 H276 0.956 . S
C264 H277 0.961 . S
C264 H278 0.961 . S
C265 C262 1.539 . S
C265 H279 0.958 . S
C265 H280 0.961 . S
C265 H281 0.960 . S
H266 C250 0.931 . S
H267 C255 0.929 . S
H268 C256 0.960 . S
H269 C256 0.962 . S
H270 C256 0.960 . S
H271 C257 0.961 . S
H272 C257 0.961 . S
H273 C257 0.961 . S
H274 C258 0.931 . S
H275 C263 0.930 . S
H276 C264 0.956 . S
H277 C264 0.961 . S
H278 C264 0.961 . S
H279 C265 0.958 . S
H280 C265 0.961 . S
H281 C265 0.960 . S
C282 C283 1.391 . S
C282 C284 1.394 . S
C282 H298 0.931 . S
C283 C282 1.391 . S
C283 C287 1.376 . S
C284 C282 1.394 . S
C284 C285 1.369 . S
C284 C288 1.531 . S
C285 C284 1.369 . S
C285 C286 1.410 . S
C285 C293 1.503 . S
C286 C285 1.410 . S
C286 C287 1.392 . S
C286 C289 1.511 . S
C287 C283 1.376 . S
C287 C286 1.392 . S
C287 H299 0.929 . S
C288 C284 1.531 . S
C288 H300 0.960 . S
C288 H301 0.962 . S
C288 H302 0.960 . S
C289 C286 1.511 . S
C289 H303 0.961 . S
C289 H304 0.961 . S
C289 H305 0.961 . S
C290 C291 1.370 . S
C290 C292 1.363 . S
C290 H306 0.931 . S
C291 C290 1.370 . S
C291 C295 1.408 . S
C292 C290 1.363 . S
C292 C293 1.370 . S
C292 C296 1.524 . S
C293 C285 1.503 . S
C293 C292 1.370 . S
C293 C294 1.403 . S
C294 C293 1.403 . S
C294 C295 1.404 . S
C294 C297 1.539 . S
C295 C291 1.408 . S
C295 C294 1.404 . S
C295 H307 0.930 . S
C296 C292 1.524 . S
C296 H308 0.956 . S
C296 H309 0.961 . S
C296 H310 0.961 . S
C297 C294 1.539 . S
C297 H311 0.958 . S
C297 H312 0.961 . S
C297 H313 0.960 . S
H298 C282 0.931 . S
H299 C287 0.929 . S
H300 C288 0.960 . S
H301 C288 0.962 . S
H302 C288 0.960 . S
H303 C289 0.961 . S
H304 C289 0.961 . S
H305 C289 0.961 . S
H306 C290 0.931 . S
H307 C295 0.930 . S
H308 C296 0.956 . S
H309 C296 0.961 . S
H310 C296 0.961 . S
H311 C297 0.958 . S
H312 C297 0.961 . S
H313 C297 0.960 . S
C314 C315 1.391 . S
C314 C316 1.394 . S
C314 H330 0.931 . S
C315 C314 1.391 . S
C315 C319 1.376 . S
C316 C314 1.394 . S
C316 C317 1.369 . S
C316 C320 1.531 . S
C317 C316 1.369 . S
C317 C318 1.410 . S
C317 C325 1.503 . S
C318 C317 1.410 . S
C318 C319 1.392 . S
C318 C321 1.511 . S
C319 C315 1.376 . S
C319 C318 1.392 . S
C319 H331 0.929 . S
C320 C316 1.531 . S
C320 H332 0.960 . S
C320 H333 0.962 . S
C320 H334 0.960 . S
C321 C318 1.511 . S
C321 H335 0.961 . S
C321 H336 0.961 . S
C321 H337 0.961 . S
C322 C323 1.370 . S
C322 C324 1.363 . S
C322 H338 0.931 . S
C323 C322 1.370 . S
C323 C327 1.408 . S
C324 C322 1.363 . S
C324 C325 1.370 . S
C324 C328 1.524 . S
C325 C317 1.503 . S
C325 C324 1.370 . S
C325 C326 1.403 . S
C326 C325 1.403 . S
C326 C327 1.404 . S
C326 C329 1.539 . S
C327 C323 1.408 . S
C327 C326 1.404 . S
C327 H339 0.930 . S
C328 C324 1.524 . S
C328 H340 0.956 . S
C328 H341 0.961 . S
C328 H342 0.961 . S
C329 C326 1.539 . S
C329 H343 0.958 . S
C329 H344 0.961 . S
C329 H345 0.960 . S
H330 C314 0.931 . S
H331 C319 0.929 . S
H332 C320 0.960 . S
H333 C320 0.962 . S
H334 C320 0.960 . S
H335 C321 0.961 . S
H336 C321 0.961 . S
H337 C321 0.961 . S
H338 C322 0.931 . S
H339 C327 0.930 . S
H340 C328 0.956 . S
H341 C328 0.961 . S
H342 C328 0.961 . S
H343 C329 0.958 . S
H344 C329 0.961 . S
H345 C329 0.960 . S
C346 C347 1.391 . S
C346 C348 1.394 . S
C346 H362 0.931 . S
C347 C346 1.391 . S
C347 C351 1.376 . S
C348 C346 1.394 . S
C348 C349 1.369 . S
C348 C352 1.531 . S
C349 C348 1.369 . S
C349 C350 1.410 . S
C349 C357 1.503 . S
C350 C349 1.410 . S
C350 C351 1.392 . S
C350 C353 1.511 . S
C351 C347 1.376 . S
C351 C350 1.392 . S
C351 H363 0.929 . S
C352 C348 1.531 . S
C352 H364 0.960 . S
C352 H365 0.962 . S
C352 H366 0.960 . S
C353 C350 1.511 . S
C353 H367 0.961 . S
C353 H368 0.961 . S
C353 H369 0.961 . S
C354 C355 1.370 . S
C354 C356 1.363 . S
C354 H370 0.931 . S
C355 C354 1.370 . S
C355 C359 1.408 . S
C356 C354 1.363 . S
C356 C357 1.370 . S
C356 C360 1.524 . S
C357 C349 1.503 . S
C357 C356 1.370 . S
C357 C358 1.403 . S
C358 C357 1.403 . S
C358 C359 1.404 . S
C358 C361 1.539 . S
C359 C355 1.408 . S
C359 C358 1.404 . S
C359 H371 0.930 . S
C360 C356 1.524 . S
C360 H372 0.956 . S
C360 H373 0.961 . S
C360 H374 0.961 . S
C361 C358 1.539 . S
C361 H375 0.958 . S
C361 H376 0.961 . S
C361 H377 0.960 . S
H362 C346 0.931 . S
H363 C351 0.929 . S
H364 C352 0.960 . S
H365 C352 0.962 . S
H366 C352 0.960 . S
H367 C353 0.961 . S
H368 C353 0.961 . S
H369 C353 0.961 . S
H370 C354 0.931 . S
H371 C359 0.930 . S
H372 C360 0.956 . S
H373 C360 0.961 . S
H374 C360 0.961 . S
H375 C361 0.958 . S
H376 C361 0.961 . S
H377 C361 0.960 . S
C378 C379 1.391 . S
C378 C380 1.394 . S
C378 H394 0.931 . S
C379 C378 1.391 . S
C379 C383 1.376 . S
C380 C378 1.394 . S
C380 C381 1.369 . S
C380 C384 1.531 . S
C381 C380 1.369 . S
C381 C382 1.410 . S
C381 C389 1.503 . S
C382 C381 1.410 . S
C382 C383 1.392 . S
C382 C385 1.511 . S
C383 C379 1.376 . S
C383 C382 1.392 . S
C383 H395 0.929 . S
C384 C380 1.531 . S
C384 H396 0.960 . S
C384 H397 0.962 . S
C384 H398 0.960 . S
C385 C382 1.511 . S
C385 H399 0.961 . S
C385 H400 0.961 . S
C385 H401 0.961 . S
C386 C387 1.370 . S
C386 C388 1.363 . S
C386 H402 0.931 . S
C387 C386 1.370 . S
C387 C391 1.408 . S
C388 C386 1.363 . S
C388 C389 1.370 . S
C388 C392 1.524 . S
C389 C381 1.503 . S
C389 C388 1.370 . S
C389 C390 1.403 . S
C390 C389 1.403 . S
C390 C391 1.404 . S
C390 C393 1.539 . S
C391 C387 1.408 . S
C391 C390 1.404 . S
C391 H403 0.930 . S
C392 C388 1.524 . S
C392 H404 0.956 . S
C392 H405 0.961 . S
C392 H406 0.961 . S
C393 C390 1.539 . S
C393 H407 0.958 . S
C393 H408 0.961 . S
C393 H409 0.960 . S
H394 C378 0.931 . S
H395 C383 0.929 . S
H396 C384 0.960 . S
H397 C384 0.962 . S
H398 C384 0.960 . S
H399 C385 0.961 . S
H400 C385 0.961 . S
H401 C385 0.961 . S
H402 C386 0.931 . S
H403 C391 0.930 . S
H404 C392 0.956 . S
H405 C392 0.961 . S
H406 C392 0.961 . S
H407 C393 0.958 . S
H408 C393 0.961 . S
H409 C393 0.960 . S
C410 C411 1.391 . S
C410 C412 1.394 . S
C410 H426 0.931 . S
C411 C410 1.391 . S
C411 C415 1.376 . S
C412 C410 1.394 . S
C412 C413 1.369 . S
C412 C416 1.531 . S
C413 C412 1.369 . S
C413 C414 1.410 . S
C413 C421 1.503 . S
C414 C413 1.410 . S
C414 C415 1.392 . S
C414 C417 1.511 . S
C415 C411 1.376 . S
C415 C414 1.392 . S
C415 H427 0.929 . S
C416 C412 1.531 . S
C416 H428 0.960 . S
C416 H429 0.962 . S
C416 H430 0.960 . S
C417 C414 1.511 . S
C417 H431 0.961 . S
C417 H432 0.961 . S
C417 H433 0.961 . S
C418 C419 1.370 . S
C418 C420 1.363 . S
C418 H434 0.931 . S
C419 C418 1.370 . S
C419 C423 1.408 . S
C420 C418 1.363 . S
C420 C421 1.370 . S
C420 C424 1.524 . S
C421 C413 1.503 . S
C421 C420 1.370 . S
C421 C422 1.403 . S
C422 C421 1.403 . S
C422 C423 1.404 . S
C422 C425 1.539 . S
C423 C419 1.408 . S
C423 C422 1.404 . S
C423 H435 0.930 . S
C424 C420 1.524 . S
C424 H436 0.956 . S
C424 H437 0.961 . S
C424 H438 0.961 . S
C425 C422 1.539 . S
C425 H439 0.958 . S
C425 H440 0.961 . S
C425 H441 0.960 . S
H426 C410 0.931 . S
H427 C415 0.929 . S
H428 C416 0.960 . S
H429 C416 0.962 . S
H430 C416 0.960 . S
H431 C417 0.961 . S
H432 C417 0.961 . S
H433 C417 0.961 . S
H434 C418 0.931 . S
H435 C423 0.930 . S
H436 C424 0.956 . S
H437 C424 0.961 . S
H438 C424 0.961 . S
H439 C425 0.958 . S
H440 C425 0.961 . S
H441 C425 0.960 . S
C442 C443 1.391 . S
C442 C444 1.394 . S
C442 H458 0.931 . S
C443 C442 1.391 . S
C443 C447 1.376 . S
C444 C442 1.394 . S
C444 C445 1.369 . S
C444 C448 1.531 . S
C445 C444 1.369 . S
C445 C446 1.410 . S
C445 C453 1.503 . S
C446 C445 1.410 . S
C446 C447 1.392 . S
C446 C449 1.511 . S
C447 C443 1.376 . S
C447 C446 1.392 . S
C447 H459 0.929 . S
C448 C444 1.531 . S
C448 H460 0.960 . S
C448 H461 0.962 . S
C448 H462 0.960 . S
C449 C446 1.511 . S
C449 H463 0.961 . S
C449 H464 0.961 . S
C449 H465 0.961 . S
C450 C451 1.370 . S
C450 C452 1.363 . S
C450 H466 0.931 . S
C451 C450 1.370 . S
C451 C455 1.408 . S
C452 C450 1.363 . S
C452 C453 1.370 . S
C452 C456 1.524 . S
C453 C445 1.503 . S
C453 C452 1.370 . S
C453 C454 1.403 . S
C454 C453 1.403 . S
C454 C455 1.404 . S
C454 C457 1.539 . S
C455 C451 1.408 . S
C455 C454 1.404 . S
C455 H467 0.930 . S
C456 C452 1.524 . S
C456 H468 0.956 . S
C456 H469 0.961 . S
C456 H470 0.961 . S
C457 C454 1.539 . S
C457 H471 0.958 . S
C457 H472 0.961 . S
C457 H473 0.960 . S
H458 C442 0.931 . S
H459 C447 0.929 . S
H460 C448 0.960 . S
H461 C448 0.962 . S
H462 C448 0.960 . S
H463 C449 0.961 . S
H464 C449 0.961 . S
H465 C449 0.961 . S
H466 C450 0.931 . S
H467 C455 0.930 . S
H468 C456 0.956 . S
H469 C456 0.961 . S
H470 C456 0.961 . S
H471 C457 0.958 . S
H472 C457 0.961 . S
H473 C457 0.960 . S
C474 C475 1.391 . S
C474 C476 1.394 . S
C474 H490 0.931 . S
C475 C474 1.391 . S
C475 C479 1.376 . S
C476 C474 1.394 . S
C476 C477 1.369 . S
C476 C480 1.531 . S
C477 C476 1.369 . S
C477 C478 1.410 . S
C477 C485 1.503 . S
C478 C477 1.410 . S
C478 C479 1.392 . S
C478 C481 1.511 . S
C479 C475 1.376 . S
C479 C478 1.392 . S
C479 H491 0.929 . S
C480 C476 1.531 . S
C480 H492 0.960 . S
C480 H493 0.962 . S
C480 H494 0.960 . S
C481 C478 1.511 . S
C481 H495 0.961 . S
C481 H496 0.961 . S
C481 H497 0.961 . S
C482 C483 1.370 . S
C482 C484 1.363 . S
C482 H498 0.931 . S
C483 C482 1.370 . S
C483 C487 1.408 . S
C484 C482 1.363 . S
C484 C485 1.370 . S
C484 C488 1.524 . S
C485 C477 1.503 . S
C485 C484 1.370 . S
C485 C486 1.403 . S
C486 C485 1.403 . S
C486 C487 1.404 . S
C486 C489 1.539 . S
C487 C483 1.408 . S
C487 C486 1.404 . S
C487 H499 0.930 . S
C488 C484 1.524 . S
C488 H500 0.956 . S
C488 H501 0.961 . S
C488 H502 0.961 . S
C489 C486 1.539 . S
C489 H503 0.958 . S
C489 H504 0.961 . S
C489 H505 0.960 . S
H490 C474 0.931 . S
H491 C479 0.929 . S
H492 C480 0.960 . S
H493 C480 0.962 . S
H494 C480 0.960 . S
H495 C481 0.961 . S
H496 C481 0.961 . S
H497 C481 0.961 . S
H498 C482 0.931 . S
H499 C487 0.930 . S
H500 C488 0.956 . S
H501 C488 0.961 . S
H502 C488 0.961 . S
H503 C489 0.958 . S
H504 C489 0.961 . S
H505 C489 0.960 . S
C506 C507 1.391 . S
C506 C508 1.394 . S
C506 H522 0.931 . S
C507 C506 1.391 . S
C507 C511 1.376 . S
C508 C506 1.394 . S
C508 C509 1.369 . S
C508 C512 1.531 . S
C509 C508 1.369 . S
C509 C510 1.410 . S
C509 C517 1.503 . S
C510 C509 1.410 . S
C510 C511 1.392 . S
C510 C513 1.511 . S
C511 C507 1.376 . S
C511 C510 1.392 . S
C511 H523 0.929 . S
C512 C508 1.531 . S
C512 H524 0.960 . S
C512 H525 0.962 . S
C512 H526 0.960 . S
C513 C510 1.511 . S
C513 H527 0.961 . S
C513 H528 0.961 . S
C513 H529 0.961 . S
C514 C515 1.370 . S
C514 C516 1.363 . S
C514 H530 0.931 . S
C515 C514 1.370 . S
C515 C519 1.408 . S
C516 C514 1.363 . S
C516 C517 1.370 . S
C516 C520 1.524 . S
C517 C509 1.503 . S
C517 C516 1.370 . S
C517 C518 1.403 . S
C518 C517 1.403 . S
C518 C519 1.404 . S
C518 C521 1.539 . S
C519 C515 1.408 . S
C519 C518 1.404 . S
C519 H531 0.930 . S
C520 C516 1.524 . S
C520 H532 0.956 . S
C520 H533 0.961 . S
C520 H534 0.961 . S
C521 C518 1.539 . S
C521 H535 0.958 . S
C521 H536 0.961 . S
C521 H537 0.960 . S
H522 C506 0.931 . S
H523 C511 0.929 . S
H524 C512 0.960 . S
H525 C512 0.962 . S
H526 C512 0.960 . S
H527 C513 0.961 . S
H528 C513 0.961 . S
H529 C513 0.961 . S
H530 C514 0.931 . S
H531 C519 0.930 . S
H532 C520 0.956 . S
H533 C520 0.961 . S
H534 C520 0.961 . S
H535 C521 0.958 . S
H536 C521 0.961 . S
H537 C521 0.960 . S
C538 C539 1.391 . S
C538 C540 1.394 . S
C538 H554 0.931 . S
C539 C538 1.391 . S
C539 C543 1.376 . S
C540 C538 1.394 . S
C540 C541 1.369 . S
C540 C544 1.531 . S
C541 C540 1.369 . S
C541 C542 1.410 . S
C541 C549 1.503 . S
C542 C541 1.410 . S
C542 C543 1.392 . S
C542 C545 1.511 . S
C543 C539 1.376 . S
C543 C542 1.392 . S
C543 H555 0.929 . S
C544 C540 1.531 . S
C544 H556 0.960 . S
C544 H557 0.962 . S
C544 H558 0.960 . S
C545 C542 1.511 . S
C545 H559 0.961 . S
C545 H560 0.961 . S
C545 H561 0.961 . S
C546 C547 1.370 . S
C546 C548 1.363 . S
C546 H562 0.931 . S
C547 C546 1.370 . S
C547 C551 1.408 . S
C548 C546 1.363 . S
C548 C549 1.370 . S
C548 C552 1.524 . S
C549 C541 1.503 . S
C549 C548 1.370 . S
C549 C550 1.403 . S
C550 C549 1.403 . S
C550 C551 1.404 . S
C550 C553 1.539 . S
C551 C547 1.408 . S
C551 C550 1.404 . S
C551 H563 0.930 . S
C552 C548 1.524 . S
C552 H564 0.956 . S
C552 H565 0.961 . S
C552 H566 0.961 . S
C553 C550 1.539 . S
C553 H567 0.958 . S
C553 H568 0.961 . S
C553 H569 0.960 . S
H554 C538 0.931 . S
H555 C543 0.929 . S
H556 C544 0.960 . S
H557 C544 0.962 . S
H558 C544 0.960 . S
H559 C545 0.961 . S
H560 C545 0.961 . S
H561 C545 0.961 . S
H562 C546 0.931 . S
H563 C551 0.930 . S
H564 C552 0.956 . S
H565 C552 0.961 . S
H566 C552 0.961 . S
H567 C553 0.958 . S
H568 C553 0.961 . S
H569 C553 0.960 . S
C570 C571 1.391 . S
C570 C572 1.394 . S
C570 H586 0.931 1_455 S
C571 C570 1.391 . S
C571 C575 1.376 . S
C572 C570 1.394 . S
C572 C573 1.369 . S
C572 C576 1.531 1_455 S
C573 C572 1.369 . S
C573 C574 1.410 . S
C573 C581 1.503 1_554 S
C574 C573 1.410 . S
C574 C575 1.392 . S
C574 C577 1.511 . S
C575 C571 1.376 . S
C575 C574 1.392 . S
C575 H587 0.929 . S
C576 C572 1.531 1_655 S
C576 H588 0.960 1_655 S
C576 H589 0.962 . S
C576 H590 0.960 . S
C577 C574 1.511 . S
C577 H591 0.961 . S
C577 H592 0.961 . S
C577 H593 0.961 . S
C578 C579 1.370 . S
C578 C580 1.363 . S
C578 H594 0.931 . S
C579 C578 1.370 . S
C579 C583 1.408 . S
C580 C578 1.363 . S
C580 C581 1.370 . S
C580 C584 1.524 1_455 S
C581 C573 1.503 1_556 S
C581 C580 1.370 . S
C581 C582 1.403 . S
C582 C581 1.403 . S
C582 C583 1.404 . S
C582 C585 1.539 1_556 S
C583 C579 1.408 . S
C583 C582 1.404 . S
C583 H595 0.930 . S
C584 C580 1.524 1_655 S
C584 H596 0.956 1_556 S
C584 H597 0.961 1_656 S
C584 H598 0.961 . S
C585 C582 1.539 1_554 S
C585 H599 0.958 . S
C585 H600 0.961 1_554 S
C585 H601 0.960 . S
H586 C570 0.931 1_655 S
H587 C575 0.929 . S
H588 C576 0.960 1_455 S
H589 C576 0.962 . S
H590 C576 0.960 . S
H591 C577 0.961 . S
H592 C577 0.961 . S
H593 C577 0.961 . S
H594 C578 0.931 . S
H595 C583 0.930 . S
H596 C584 0.956 1_554 S
H597 C584 0.961 1_454 S
H598 C584 0.961 . S
H599 C585 0.958 . S
H600 C585 0.961 1_556 S
H601 C585 0.960 . S
C602 C603 1.391 . S
C602 C604 1.394 . S
C602 H618 0.931 . S
C603 C602 1.391 . S
C603 C607 1.376 . S
C604 C602 1.394 . S
C604 C605 1.369 . S
C604 C608 1.531 . S
C605 C604 1.369 . S
C605 C606 1.410 . S
C605 C613 1.503 . S
C606 C605 1.410 . S
C606 C607 1.392 . S
C606 C609 1.511 . S
C607 C603 1.376 . S
C607 C606 1.392 . S
C607 H619 0.929 . S
C608 C604 1.531 . S
C608 H620 0.960 . S
C608 H621 0.962 . S
C608 H622 0.960 . S
C609 C606 1.511 . S
C609 H623 0.961 1_545 S
C609 H624 0.961 1_545 S
C609 H625 0.961 . S
C610 C611 1.370 . S
C610 C612 1.363 . S
C610 H626 0.931 1_545 S
C611 C610 1.370 . S
C611 C615 1.408 . S
C612 C610 1.363 . S
C612 C613 1.370 . S
C612 C616 1.524 1_545 S
C613 C605 1.503 . S
C613 C612 1.370 . S
C613 C614 1.403 . S
C614 C613 1.403 . S
C614 C615 1.404 . S
C614 C617 1.539 . S
C615 C611 1.408 . S
C615 C614 1.404 . S
C615 H627 0.930 . S
C616 C612 1.524 1_565 S
C616 H628 0.956 . S
C616 H629 0.961 . S
C616 H630 0.961 . S
C617 C614 1.539 . S
C617 H631 0.958 . S
C617 H632 0.961 . S
C617 H633 0.960 . S
H618 C602 0.931 . S
H619 C607 0.929 . S
H620 C608 0.960 . S
H621 C608 0.962 . S
H622 C608 0.960 . S
H623 C609 0.961 1_565 S
H624 C609 0.961 1_565 S
H625 C609 0.961 . S
H626 C610 0.931 1_565 S
H627 C615 0.930 . S
H628 C616 0.956 . S
H629 C616 0.961 . S
H630 C616 0.961 . S
H631 C617 0.958 . S
H632 C617 0.961 . S
H633 C617 0.960 . S
C634 C635 1.391 . S
C634 C636 1.394 . S
C634 H650 0.931 . S
C635 C634 1.391 . S
C635 C639 1.376 . S
C636 C634 1.394 . S
C636 C637 1.369 . S
C636 C640 1.531 . S
C637 C636 1.369 . S
C637 C638 1.410 . S
C637 C645 1.503 . S
C638 C637 1.410 . S
C638 C639 1.392 . S
C638 C641 1.511 . S
C639 C635 1.376 . S
C639 C638 1.392 . S
C639 H651 0.929 . S
C640 C636 1.531 . S
C640 H652 0.960 . S
C640 H653 0.962 . S
C640 H654 0.960 . S
C641 C638 1.511 . S
C641 H655 0.961 . S
C641 H656 0.961 . S
C641 H657 0.961 . S
C642 C643 1.370 . S
C642 C644 1.363 . S
C642 H658 0.931 . S
C643 C642 1.370 . S
C643 C647 1.408 . S
C644 C642 1.363 . S
C644 C645 1.370 . S
C644 C648 1.524 . S
C645 C637 1.503 . S
C645 C644 1.370 . S
C645 C646 1.403 . S
C646 C645 1.403 . S
C646 C647 1.404 . S
C646 C649 1.539 . S
C647 C643 1.408 . S
C647 C646 1.404 . S
C647 H659 0.930 . S
C648 C644 1.524 . S
C648 H660 0.956 . S
C648 H661 0.961 . S
C648 H662 0.961 . S
C649 C646 1.539 . S
C649 H663 0.958 . S
C649 H664 0.961 . S
C649 H665 0.960 . S
H650 C634 0.931 . S
H651 C639 0.929 . S
H652 C640 0.960 . S
H653 C640 0.962 . S
H654 C640 0.960 . S
H655 C641 0.961 . S
H656 C641 0.961 . S
H657 C641 0.961 . S
H658 C642 0.931 . S
H659 C647 0.930 . S
H660 C648 0.956 . S
H661 C648 0.961 . S
H662 C648 0.961 . S
H663 C649 0.958 . S
H664 C649 0.961 . S
H665 C649 0.960 . S
C666 C667 1.391 . S
C666 C668 1.394 . S
C666 H682 0.931 1_545 S
C667 C666 1.391 . S
C667 C671 1.376 . S
C668 C666 1.394 . S
C668 C669 1.369 . S
C668 C672 1.531 1_545 S
C669 C668 1.369 . S
C669 C670 1.410 . S
C669 C677 1.503 . S
C670 C669 1.410 . S
C670 C671 1.392 . S
C670 C673 1.511 . S
C671 C667 1.376 . S
C671 C670 1.392 . S
C671 H683 0.929 . S
C672 C668 1.531 1_565 S
C672 H684 0.960 . S
C672 H685 0.962 . S
C672 H686 0.960 . S
C673 C670 1.511 . S
C673 H687 0.961 . S
C673 H688 0.961 . S
C673 H689 0.961 . S
C674 C675 1.370 . S
C674 C676 1.363 . S
C674 H690 0.931 . S
C675 C674 1.370 . S
C675 C679 1.408 1_545 S
C676 C674 1.363 . S
C676 C677 1.370 . S
C676 C680 1.524 . S
C677 C669 1.503 . S
C677 C676 1.370 . S
C677 C678 1.403 1_545 S
C678 C677 1.403 1_565 S
C678 C679 1.404 . S
C678 C681 1.539 . S
C679 C675 1.408 1_565 S
C679 C678 1.404 . S
C679 H691 0.930 . S
C680 C676 1.524 . S
C680 H692 0.956 . S
C680 H693 0.961 . S
C680 H694 0.961 . S
C681 C678 1.539 . S
C681 H695 0.958 . S
C681 H696 0.961 . S
C681 H697 0.960 . S
H682 C666 0.931 1_565 S
H683 C671 0.929 . S
H684 C672 0.960 . S
H685 C672 0.962 . S
H686 C672 0.960 . S
H687 C673 0.961 . S
H688 C673 0.961 . S
H689 C673 0.961 . S
H690 C674 0.931 . S
H691 C679 0.930 . S
H692 C680 0.956 . S
H693 C680 0.961 . S
H694 C680 0.961 . S
H695 C681 0.958 . S
H696 C681 0.961 . S
H697 C681 0.960 . S
C698 C699 1.391 . S
C698 C700 1.394 . S
C698 H714 0.931 . S
C699 C698 1.391 . S
C699 C703 1.376 . S
C700 C698 1.394 . S
C700 C701 1.369 . S
C700 C704 1.531 . S
C701 C700 1.369 . S
C701 C702 1.410 . S
C701 C709 1.503 . S
C702 C701 1.410 . S
C702 C703 1.392 . S
C702 C705 1.511 . S
C703 C699 1.376 . S
C703 C702 1.392 . S
C703 H715 0.929 . S
C704 C700 1.531 . S
C704 H716 0.960 . S
C704 H717 0.962 . S
C704 H718 0.960 . S
C705 C702 1.511 . S
C705 H719 0.961 . S
C705 H720 0.961 . S
C705 H721 0.961 . S
C706 C707 1.370 . S
C706 C708 1.363 . S
C706 H722 0.931 . S
C707 C706 1.370 . S
C707 C711 1.408 . S
C708 C706 1.363 . S
C708 C709 1.370 1_554 S
C708 C712 1.524 1_554 S
C709 C701 1.503 . S
C709 C708 1.370 1_556 S
C709 C710 1.403 1_556 S
C710 C709 1.403 1_554 S
C710 C711 1.404 . S
C710 C713 1.539 1_554 S
C711 C707 1.408 . S
C711 C710 1.404 . S
C711 H723 0.930 . S
C712 C708 1.524 1_556 S
C712 H724 0.956 . S
C712 H725 0.961 . S
C712 H726 0.961 . S
C713 C710 1.539 1_556 S
C713 H727 0.958 . S
C713 H728 0.961 1_556 S
C713 H729 0.960 . S
H714 C698 0.931 . S
H715 C703 0.929 . S
H716 C704 0.960 . S
H717 C704 0.962 . S
H718 C704 0.960 . S
H719 C705 0.961 . S
H720 C705 0.961 . S
H721 C705 0.961 . S
H722 C706 0.931 . S
H723 C711 0.930 . S
H724 C712 0.956 . S
H725 C712 0.961 . S
H726 C712 0.961 . S
H727 C713 0.958 . S
H728 C713 0.961 1_554 S
H729 C713 0.960 . S
C730 C731 1.391 1_655 S
C730 C732 1.394 . S
C730 H746 0.931 . S
C731 C730 1.391 1_455 S
C731 C735 1.376 . S
C732 C730 1.394 . S
C732 C733 1.369 1_655 S
C732 C736 1.531 . S
C733 C732 1.369 1_455 S
C733 C734 1.410 . S
C733 C741 1.503 . S
C734 C733 1.410 . S
C734 C735 1.392 . S
C734 C737 1.511 . S
C735 C731 1.376 . S
C735 C734 1.392 . S
C735 H747 0.929 . S
C736 C732 1.531 . S
C736 H748 0.960 . S
C736 H749 0.962 . S
C736 H750 0.960 . S
C737 C734 1.511 . S
C737 H751 0.961 . S
C737 H752 0.961 . S
C737 H753 0.961 . S
C738 C739 1.370 . S
C738 C740 1.363 . S
C738 H754 0.931 . S
C739 C738 1.370 . S
C739 C743 1.408 . S
C740 C738 1.363 . S
C740 C741 1.370 . S
C740 C744 1.524 . S
C741 C733 1.503 . S
C741 C740 1.370 . S
C741 C742 1.403 . S
C742 C741 1.403 . S
C742 C743 1.404 . S
C742 C745 1.539 . S
C743 C739 1.408 . S
C743 C742 1.404 . S
C743 H755 0.930 . S
C744 C740 1.524 . S
C744 H756 0.956 1_455 S
C744 H757 0.961 . S
C744 H758 0.961 . S
C745 C742 1.539 . S
C745 H759 0.958 1_455 S
C745 H760 0.961 . S
C745 H761 0.960 . S
H746 C730 0.931 . S
H747 C735 0.929 . S
H748 C736 0.960 . S
H749 C736 0.962 . S
H750 C736 0.960 . S
H751 C737 0.961 . S
H752 C737 0.961 . S
H753 C737 0.961 . S
H754 C738 0.931 . S
H755 C743 0.930 . S
H756 C744 0.956 1_655 S
H757 C744 0.961 . S
H758 C744 0.961 . S
H759 C745 0.958 1_655 S
H760 C745 0.961 . S
H761 C745 0.960 . S
C187 C7 0.813 . S
C195 C185 0.758 . S
C219 C51 1.932 . S
C227 C163 1.893 . S
C251 C87 1.269 . S
C259 C174 1.287 . S
C283 C16 0.287 . S
C291 C179 0.236 . S
C323 C157 1.841 . S
C315 C42 1.881 . S
C355 C168 1.181 . S
C347 C96 1.185 . S
C379 C47 1.288 . S
C387 C141 1.304 . S
C411 C91 3.034 . S
C419 C146 2.988 1_655 S
C443 C2 1.891 . S
C451 C124 1.884 . S
C483 C135 1.182 . S
C475 C56 1.190 . S
C515 C152 2.975 . S
C507 C82 3.016 . S
C539 C11 1.948 . S
C547 C130 1.895 . S
C579 C147 1.727 . S
C571 C19 1.678 . S
C603 C50 1.399 . S
C611 C125 1.473 . S
C635 C99 1.530 . S
C643 C136 1.542 . S
C675 C169 1.521 . S
C667 C59 1.519 . S
C707 C180 1.279 . S
C699 C90 1.222 . S
C731 C10 1.358 . S
C739 C158 1.432 . S
