# Generated by pormake.
# Topology eea, (3,6)-cn, num edge types: 1
# Building blocks:
#     Node 0, Type 0, BuildingBlock: BETDIP_clean_linker_0, # of connection points: 3
#     Node 1, Type 0, BuildingBlock: BETDIP_clean_linker_0, # of connection points: 3
#     Node 2, Type 0, BuildingBlock: BETDIP_clean_linker_0, # of connection points: 3
#     Node 3, Type 0, BuildingBlock: BETDIP_clean_linker_0, # of connection points: 3
#     Node 4, Type 0, BuildingBlock: BETDIP_clean_linker_0, # of connection points: 3
#     Node 5, Type 0, BuildingBlock: BETDIP_clean_linker_0, # of connection points: 3
#     Node 6, Type 0, BuildingBlock: BETDIP_clean_linker_0, # of connection points: 3
#     Node 7, Type 0, BuildingBlock: BETDIP_clean_linker_0, # of connection points: 3
#     Node 8, Type 0, BuildingBlock: BETDIP_clean_linker_0, # of connection points: 3
#     Node 9, Type 0, BuildingBlock: BETDIP_clean_linker_0, # of connection points: 3
#     Node 10, Type 0, BuildingBlock: BETDIP_clean_linker_0, # of connection points: 3
#     Node 11, Type 0, BuildingBlock: BETDIP_clean_linker_0, # of connection points: 3
#     Node 12, Type 0, BuildingBlock: BETDIP_clean_linker_0, # of connection points: 3
#     Node 13, Type 0, BuildingBlock: BETDIP_clean_linker_0, # of connection points: 3
#     Node 14, Type 0, BuildingBlock: BETDIP_clean_linker_0, # of connection points: 3
#     Node 15, Type 0, BuildingBlock: BETDIP_clean_linker_0, # of connection points: 3
#     Node 16, Type 0, BuildingBlock: BETDIP_clean_linker_0, # of connection points: 3
#     Node 17, Type 0, BuildingBlock: BETDIP_clean_linker_0, # of connection points: 3
#     Node 18, Type 1, BuildingBlock: NUHQIS_clean_sbu_0, # of connection points: 6
#     Node 19, Type 1, BuildingBlock: NUHQIS_clean_sbu_0, # of connection points: 6
#     Node 20, Type 1, BuildingBlock: NUHQIS_clean_sbu_0, # of connection points: 6
#     Node 21, Type 1, BuildingBlock: NUHQIS_clean_sbu_0, # of connection points: 6
#     Node 22, Type 1, BuildingBlock: NUHQIS_clean_sbu_0, # of connection points: 6
#     Node 23, Type 1, BuildingBlock: NUHQIS_clean_sbu_0, # of connection points: 6
#     Node 24, Type 1, BuildingBlock: NUHQIS_clean_sbu_0, # of connection points: 6
#     Node 25, Type 1, BuildingBlock: NUHQIS_clean_sbu_0, # of connection points: 6
#     Node 26, Type 1, BuildingBlock: NUHQIS_clean_sbu_0, # of connection points: 6
#     Edge 27, Type (0, 1), BuildingBlock: KIFKEQ_clean_linker_1, # of connection points: 2
#     Edge 28, Type (0, 1), BuildingBlock: KIFKEQ_clean_linker_1, # of connection points: 2
#     Edge 29, Type (0, 1), BuildingBlock: KIFKEQ_clean_linker_1, # of connection points: 2
#     Edge 30, Type (0, 1), BuildingBlock: KIFKEQ_clean_linker_1, # of connection points: 2
#     Edge 31, Type (0, 1), BuildingBlock: KIFKEQ_clean_linker_1, # of connection points: 2
#     Edge 32, Type (0, 1), BuildingBlock: KIFKEQ_clean_linker_1, # of connection points: 2
#     Edge 33, Type (0, 1), BuildingBlock: KIFKEQ_clean_linker_1, # of connection points: 2
#     Edge 34, Type (0, 1), BuildingBlock: KIFKEQ_clean_linker_1, # of connection points: 2
#     Edge 35, Type (0, 1), BuildingBlock: KIFKEQ_clean_linker_1, # of connection points: 2
#     Edge 36, Type (0, 1), BuildingBlock: KIFKEQ_clean_linker_1, # of connection points: 2
#     Edge 37, Type (0, 1), BuildingBlock: KIFKEQ_clean_linker_1, # of connection points: 2
#     Edge 38, Type (0, 1), BuildingBlock: KIFKEQ_clean_linker_1, # of connection points: 2
#     Edge 39, Type (0, 1), BuildingBlock: KIFKEQ_clean_linker_1, # of connection points: 2
#     Edge 40, Type (0, 1), BuildingBlock: KIFKEQ_clean_linker_1, # of connection points: 2
#     Edge 41, Type (0, 1), BuildingBlock: KIFKEQ_clean_linker_1, # of connection points: 2
#     Edge 42, Type (0, 1), BuildingBlock: KIFKEQ_clean_linker_1, # of connection points: 2
#     Edge 43, Type (0, 1), BuildingBlock: KIFKEQ_clean_linker_1, # of connection points: 2
#     Edge 44, Type (0, 1), BuildingBlock: KIFKEQ_clean_linker_1, # of connection points: 2
#     Edge 45, Type (0, 1), BuildingBlock: KIFKEQ_clean_linker_1, # of connection points: 2
#     Edge 46, Type (0, 1), BuildingBlock: KIFKEQ_clean_linker_1, # of connection points: 2
#     Edge 47, Type (0, 1), BuildingBlock: KIFKEQ_clean_linker_1, # of connection points: 2
#     Edge 48, Type (0, 1), BuildingBlock: KIFKEQ_clean_linker_1, # of connection points: 2
#     Edge 49, Type (0, 1), BuildingBlock: KIFKEQ_clean_linker_1, # of connection points: 2
#     Edge 50, Type (0, 1), BuildingBlock: KIFKEQ_clean_linker_1, # of connection points: 2
#     Edge 51, Type (0, 1), BuildingBlock: KIFKEQ_clean_linker_1, # of connection points: 2
#     Edge 52, Type (0, 1), BuildingBlock: KIFKEQ_clean_linker_1, # of connection points: 2
#     Edge 53, Type (0, 1), BuildingBlock: KIFKEQ_clean_linker_1, # of connection points: 2
#     Edge 54, Type (0, 1), BuildingBlock: KIFKEQ_clean_linker_1, # of connection points: 2
#     Edge 55, Type (0, 1), BuildingBlock: KIFKEQ_clean_linker_1, # of connection points: 2
#     Edge 56, Type (0, 1), BuildingBlock: KIFKEQ_clean_linker_1, # of connection points: 2
#     Edge 57, Type (0, 1), BuildingBlock: KIFKEQ_clean_linker_1, # of connection points: 2
#     Edge 58, Type (0, 1), BuildingBlock: KIFKEQ_clean_linker_1, # of connection points: 2
#     Edge 59, Type (0, 1), BuildingBlock: KIFKEQ_clean_linker_1, # of connection points: 2
#     Edge 60, Type (0, 1), BuildingBlock: KIFKEQ_clean_linker_1, # of connection points: 2
#     Edge 61, Type (0, 1), BuildingBlock: KIFKEQ_clean_linker_1, # of connection points: 2
#     Edge 62, Type (0, 1), BuildingBlock: KIFKEQ_clean_linker_1, # of connection points: 2
#     Edge 63, Type (0, 1), BuildingBlock: KIFKEQ_clean_linker_1, # of connection points: 2
#     Edge 64, Type (0, 1), BuildingBlock: KIFKEQ_clean_linker_1, # of connection points: 2
#     Edge 65, Type (0, 1), BuildingBlock: KIFKEQ_clean_linker_1, # of connection points: 2
#     Edge 66, Type (0, 1), BuildingBlock: KIFKEQ_clean_linker_1, # of connection points: 2
#     Edge 67, Type (0, 1), BuildingBlock: KIFKEQ_clean_linker_1, # of connection points: 2
#     Edge 68, Type (0, 1), BuildingBlock: KIFKEQ_clean_linker_1, # of connection points: 2
#     Edge 69, Type (0, 1), BuildingBlock: KIFKEQ_clean_linker_1, # of connection points: 2
#     Edge 70, Type (0, 1), BuildingBlock: KIFKEQ_clean_linker_1, # of connection points: 2
#     Edge 71, Type (0, 1), BuildingBlock: KIFKEQ_clean_linker_1, # of connection points: 2
#     Edge 72, Type (0, 1), BuildingBlock: KIFKEQ_clean_linker_1, # of connection points: 2
#     Edge 73, Type (0, 1), BuildingBlock: KIFKEQ_clean_linker_1, # of connection points: 2
#     Edge 74, Type (0, 1), BuildingBlock: KIFKEQ_clean_linker_1, # of connection points: 2
#     Edge 75, Type (0, 1), BuildingBlock: KIFKEQ_clean_linker_1, # of connection points: 2
#     Edge 76, Type (0, 1), BuildingBlock: KIFKEQ_clean_linker_1, # of connection points: 2
#     Edge 77, Type (0, 1), BuildingBlock: KIFKEQ_clean_linker_1, # of connection points: 2
#     Edge 78, Type (0, 1), BuildingBlock: KIFKEQ_clean_linker_1, # of connection points: 2
#     Edge 79, Type (0, 1), BuildingBlock: KIFKEQ_clean_linker_1, # of connection points: 2
#     Edge 80, Type (0, 1), BuildingBlock: KIFKEQ_clean_linker_1, # of connection points: 2
# Relax obj value: 0.060
# Max RMSD: 0.208
# Mean RMSD: 0.147
data_MOF--net-eea--node1-NUHQIS_clean_sbu_0--node2-BETDIP_clean_linker_0--edge1-KIFKEQ_clean_linker_1
_symmetry_space_group_name_H-M    P1
_symmetry_Int_Tables_number       1
_symmetry_cell_setting            triclinic
loop_
_symmetry_equiv_pos_as_xyz
'x, y, z'
_cell_length_a     55.947171
_cell_length_b     56.330771
_cell_length_c     69.512801
_cell_angle_alpha  93.127266
_cell_angle_beta   93.629142
_cell_angle_gamma 119.81229
loop_
_atom_site_label
_atom_site_type_symbol
_atom_site_fract_x
_atom_site_fract_y
_atom_site_fract_z
_atom_type_partial_charge
H0 H 0.23532 0.1059 0.38025 0.0
H1 H 0.26552 0.16587 0.4299 0.0
H2 H 0.26367 0.08914 0.43403 0.0
H3 H 0.27932 0.195 0.40295 0.0
C4 C 0.25855 0.18407 0.3954 0.0
C5 C 0.24405 0.11218 0.39525 0.0
C6 C 0.24931 0.09463 0.40603 0.0
C7 C 0.25057 0.13816 0.40357 0.0
C8 C 0.26158 0.14632 0.42312 0.0
C9 C 0.26589 0.12847 0.43427 0.0
C10 C 0.26014 0.10289 0.42552 0.0
N11 N 0.24413 0.15493 0.39238 0.0
H12 H 0.91864 0.12514 0.39128 0.0
H13 H 0.8637 0.10443 0.43579 0.0
H14 H 0.93956 0.18211 0.44205 0.0
H15 H 0.83227 0.0871 0.40473 0.0
C16 C 0.84114 0.07441 0.40076 0.0
C17 C 0.91377 0.1307 0.40505 0.0
C18 C 0.93225 0.15617 0.41567 0.0
C19 C 0.88881 0.1123 0.41205 0.0
C20 C 0.8827 0.11891 0.43015 0.0
C21 C 0.90104 0.14391 0.44113 0.0
C22 C 0.92557 0.16261 0.43369 0.0
N23 N 0.87036 0.08679 0.40108 0.0
H24 H 0.89491 0.79914 0.40336 0.0
H25 H 0.91878 0.76692 0.45111 0.0
H26 H 0.84343 0.76923 0.44989 0.0
H27 H 0.95971 0.78794 0.44141 0.0
C28 C 0.95858 0.79117 0.42623 0.0
C29 C 0.89083 0.79009 0.41699 0.0
C30 C 0.86677 0.78509 0.42553 0.0
C31 C 0.91018 0.78424 0.42617 0.0
C32 C 0.90475 0.77234 0.44391 0.0
C33 C 0.88096 0.76744 0.45269 0.0
C34 C 0.86218 0.77381 0.44338 0.0
N35 N 0.93469 0.79062 0.41716 0.0
H36 H 0.09133 0.20847 0.64386 0.0
H37 H 0.13961 0.23038 0.59549 0.0
H38 H 0.07082 0.24429 0.59685 0.0
H39 H 0.13745 0.18703 0.60366 0.0
C40 C 0.14569 0.19529 0.61861 0.0
C41 C 0.09507 0.21672 0.62994 0.0
C42 C 0.07804 0.22603 0.62152 0.0
C43 C 0.11685 0.21767 0.62043 0.0
C44 C 0.1222 0.22876 0.60253 0.0
C45 C 0.10602 0.23891 0.59411 0.0
C46 C 0.08391 0.23735 0.60365 0.0
N47 N 0.13375 0.20823 0.62935 0.0
H48 H 0.77681 0.87906 0.66621 0.0
H49 H 0.74607 0.90244 0.61694 0.0
H50 H 0.74254 0.82429 0.61369 0.0
H51 H 0.73152 0.91993 0.64557 0.0
C52 C 0.75317 0.93175 0.65142 0.0
C53 C 0.76719 0.8743 0.65142 0.0
C54 C 0.76003 0.8492 0.64101 0.0
C55 C 0.76124 0.89303 0.64301 0.0
C56 C 0.74923 0.88723 0.62374 0.0
C57 C 0.74277 0.86263 0.61291 0.0
C58 C 0.74775 0.84351 0.62182 0.0
N59 N 0.76874 0.91828 0.65377 0.0
H60 H 0.11609 0.90121 0.64493 0.0
H61 H 0.09002 0.84526 0.59286 0.0
H62 H 0.16747 0.9209 0.59818 0.0
H63 H 0.0498 0.82508 0.60338 0.0
C64 C 0.05096 0.83035 0.61877 0.0
C65 C 0.11966 0.89586 0.6306 0.0
C66 C 0.14425 0.91366 0.62284 0.0
C67 C 0.09965 0.87107 0.61999 0.0
C68 C 0.10468 0.86427 0.60137 0.0
C69 C 0.12888 0.88246 0.59333 0.0
C70 C 0.1486 0.90693 0.60424 0.0
N71 N 0.07499 0.85373 0.62854 0.0
H72 H 0.90132 0.4429 0.71946 0.0
H73 H 0.94317 0.50912 0.76482 0.0
H74 H 0.94707 0.43531 0.76869 0.0
H75 H 0.9492 0.53357 0.73588 0.0
C76 C 0.92721 0.52221 0.73092 0.0
C77 C 0.91449 0.45141 0.73303 0.0
C78 C 0.92349 0.43575 0.743 0.0
C79 C 0.92217 0.47808 0.74053 0.0
C80 C 0.9381 0.48892 0.75857 0.0
C81 C 0.94696 0.47346 0.76882 0.0
C82 C 0.94004 0.44715 0.7608 0.0
N83 N 0.91241 0.4931 0.73017 0.0
H84 H 0.58212 0.46079 0.7231 0.0
H85 H 0.53067 0.44087 0.76974 0.0
H86 H 0.60699 0.51782 0.77441 0.0
H87 H 0.49684 0.42162 0.74216 0.0
C88 C 0.50551 0.40977 0.73598 0.0
C89 C 0.57831 0.46651 0.73723 0.0
C90 C 0.59777 0.49177 0.74771 0.0
C91 C 0.55378 0.44842 0.74488 0.0
C92 C 0.54917 0.45512 0.7635 0.0
C93 C 0.56836 0.47999 0.77426 0.0
C94 C 0.59238 0.49842 0.76618 0.0
N95 N 0.53438 0.42309 0.73403 0.0
H96 H 0.56351 0.13582 0.73618 0.0
H97 H 0.58944 0.10494 0.78366 0.0
H98 H 0.51348 0.10673 0.78342 0.0
H99 H 0.60982 0.09409 0.75797 0.0
C100 C 0.61902 0.11374 0.75189 0.0
C101 C 0.55985 0.12691 0.74988 0.0
C102 C 0.53608 0.12189 0.75872 0.0
C103 C 0.5791 0.12067 0.75864 0.0
C104 C 0.57442 0.10923 0.77652 0.0
C105 C 0.55094 0.10453 0.7857 0.0
C106 C 0.53196 0.11093 0.77666 0.0
N107 N 0.60357 0.12741 0.74962 0.0
H108 H 0.75446 0.53817 0.97441 0.0
H109 H 0.8053 0.56403 0.92753 0.0
H110 H 0.73637 0.57771 0.9289 0.0
H111 H 0.80589 0.52335 0.93389 0.0
C112 C 0.81197 0.52896 0.94936 0.0
C113 C 0.75894 0.54754 0.96092 0.0
C114 C 0.7422 0.55735 0.95269 0.0
C115 C 0.78142 0.5495 0.95176 0.0
C116 C 0.78777 0.5622 0.93449 0.0
C117 C 0.77185 0.57275 0.9262 0.0
C118 C 0.74896 0.56998 0.93533 0.0
N119 N 0.79789 0.5393 0.96038 0.0
H120 H 0.43475 0.20715 0.99953 0.0
H121 H 0.41088 0.23773 0.9512 0.0
H122 H 0.41831 0.16591 0.94203 0.0
H123 H 0.39108 0.24979 0.9763 0.0
C124 C 0.41023 0.26019 0.98594 0.0
C125 C 0.42905 0.20542 0.98412 0.0
C126 C 0.42739 0.18391 0.97172 0.0
C127 C 0.42261 0.22451 0.97689 0.0
C128 C 0.41481 0.2224 0.95698 0.0
C129 C 0.41294 0.20114 0.94434 0.0
C130 C 0.41949 0.18217 0.95181 0.0
N131 N 0.42522 0.24639 0.98971 0.0
H132 H 0.78778 0.23241 0.98151 0.0
H133 H 0.75708 0.17178 0.93207 0.0
H134 H 0.83244 0.24792 0.93102 0.0
H135 H 0.73479 0.14274 0.95345 0.0
C136 C 0.72915 0.15401 0.96358 0.0
C137 C 0.79016 0.22587 0.96716 0.0
C138 C 0.81273 0.24369 0.95739 0.0
C139 C 0.77022 0.19963 0.95842 0.0
C140 C 0.77272 0.19136 0.9395 0.0
C141 C 0.79496 0.20896 0.92958 0.0
C142 C 0.8149 0.23483 0.93863 0.0
N143 N 0.74726 0.1827 0.96861 0.0
H144 H 0.57296 0.77883 0.04605 0.0
H145 H 0.59482 0.8335 0.09794 0.0
H146 H 0.5897 0.75536 0.10108 0.0
H147 H 0.61189 0.86567 0.07299 0.0
C148 C 0.59186 0.85492 0.06438 0.0
C149 C 0.57863 0.78314 0.06156 0.0
C150 C 0.58137 0.76401 0.07231 0.0
C151 C 0.58366 0.80826 0.07063 0.0
C152 C 0.59149 0.81442 0.0907 0.0
C153 C 0.59353 0.79524 0.10168 0.0
C154 C 0.58835 0.77017 0.09244 0.0
N155 N 0.57878 0.82609 0.05951 0.0
H156 H 0.24499 0.79542 0.05156 0.0
H157 H 0.19375 0.77353 0.09833 0.0
H158 H 0.26854 0.85201 0.10286 0.0
H159 H 0.16004 0.75321 0.07227 0.0
C160 C 0.16879 0.74251 0.06456 0.0
C161 C 0.24116 0.80053 0.06586 0.0
C162 C 0.25998 0.82602 0.07632 0.0
C163 C 0.21675 0.78197 0.0734 0.0
C164 C 0.21176 0.78847 0.09198 0.0
C165 C 0.23016 0.81373 0.10271 0.0
C166 C 0.25424 0.83242 0.09474 0.0
N167 N 0.1976 0.7567 0.06229 0.0
H168 H 0.22464 0.45967 0.07069 0.0
H169 H 0.24941 0.42689 0.11765 0.0
H170 H 0.1706 0.42225 0.11484 0.0
H171 H 0.28192 0.4308 0.10089 0.0
C172 C 0.28542 0.44458 0.08975 0.0
C173 C 0.22024 0.44926 0.08377 0.0
C174 C 0.19524 0.44195 0.09178 0.0
C175 C 0.23998 0.4437 0.09271 0.0
C176 C 0.23452 0.4309 0.1101 0.0
C177 C 0.20939 0.42287 0.11798 0.0
C178 C 0.18994 0.42839 0.1087 0.0
N179 N 0.26505 0.4517 0.08398 0.0
H180 H 0.42172 0.87034 0.30607 0.0
H181 H 0.47341 0.9015 0.25997 0.0
H182 H 0.4002 0.9078 0.26079 0.0
H183 H 0.50674 0.90806 0.28218 0.0
C184 C 0.49722 0.89024 0.2903 0.0
C185 C 0.42614 0.88058 0.29292 0.0
C186 C 0.40751 0.88782 0.28423 0.0
C187 C 0.45047 0.88626 0.28466 0.0
C188 C 0.45572 0.89861 0.26718 0.0
C189 C 0.43781 0.90659 0.25847 0.0
C190 C 0.41379 0.90114 0.26714 0.0
N191 N 0.46895 0.87877 0.29389 0.0
H192 H 0.09819 0.53555 0.33447 0.0
H193 H 0.07667 0.5632 0.28343 0.0
H194 H 0.08196 0.48983 0.27872 0.0
H195 H 0.05714 0.57838 0.30669 0.0
C196 C 0.07614 0.58893 0.31649 0.0
C197 C 0.09272 0.5327 0.31896 0.0
C198 C 0.09082 0.51015 0.3077 0.0
C199 C 0.08701 0.55148 0.31037 0.0
C200 C 0.0798 0.54802 0.29028 0.0
C201 C 0.07761 0.52566 0.27879 0.0
C202 C 0.08331 0.50693 0.2876 0.0
N203 N 0.08992 0.57451 0.32196 0.0
H204 H 0.45444 0.56433 0.31327 0.0
H205 H 0.42552 0.50402 0.26384 0.0
H206 H 0.50636 0.57585 0.26747 0.0
H207 H 0.38355 0.50063 0.27132 0.0
C208 C 0.38562 0.49988 0.28689 0.0
C209 C 0.45791 0.55735 0.29945 0.0
C210 C 0.48314 0.57312 0.29165 0.0
C211 C 0.43683 0.53271 0.28939 0.0
C212 C 0.44132 0.52339 0.27148 0.0
C213 C 0.46665 0.53862 0.26371 0.0
C214 C 0.48728 0.56347 0.27384 0.0
N215 N 0.41163 0.51746 0.29783 0.0
Tb216 Tb 0.48177 0.99271 0.99835 0.0
Eu217 Eu 0.50041 0.01843 0.04426 0.0
C218 C 0.50603 0.9683 0.02833 0.0
C219 C 0.4401 0.967 0.0294 0.0
C220 C 0.47823 0.98934 0.94459 0.0
C221 C 0.49215 0.98913 0.91216 0.0
C222 C 0.48339 0.97619 0.92903 0.0
C223 C 0.48189 0.01569 0.94302 0.0
C224 C 0.49039 0.02854 0.92606 0.0
C225 C 0.49577 0.01546 0.91047 0.0
C226 C 0.47056 0.9759 0.96263 0.0
O227 O 0.46484 0.01969 1.00378 0.0
O228 O 0.49705 0.05013 0.02801 0.0
O229 O 0.53937 0.03629 0.02913 0.0
O230 O 0.5194 0.03218 0.99833 0.0
C231 C 0.47757 0.04388 0.01392 0.0
O232 O 0.4934 0.03681 0.07024 0.0
O233 O 0.52753 0.02878 0.07103 0.0
O234 O 0.49702 0.977 0.04243 0.0
O235 O 0.50723 0.97713 1.01114 0.0
O236 O 0.44993 0.96172 0.01403 0.0
O237 O 0.45416 0.99047 0.04036 0.0
C238 C 0.54132 0.04247 1.0111 0.0
O239 O 0.49082 0.97686 0.97355 0.0
O240 O 0.45454 0.98095 0.97284 0.0
C241 C 0.50432 0.02273 0.09919 0.0
C242 C 0.48777 0.99798 0.13391 0.0
C243 C 0.49547 0.02574 0.13275 0.0
C244 C 0.50371 0.03797 0.11557 0.0
C245 C 0.49638 0.99497 0.10015 0.0
C246 C 0.48833 0.98276 0.11735 0.0
C247 C 0.51267 0.03576 0.08112 0.0
H248 H 0.49587 0.97842 0.90035 0.0
H249 H 0.48088 0.95596 0.93001 0.0
H250 H 0.47846 0.02645 0.95496 0.0
H251 H 0.4933 0.04895 0.92529 0.0
H252 H 0.49485 0.03798 0.14506 0.0
H253 H 0.50949 0.05934 0.11503 0.0
H254 H 0.4965 0.98273 0.08761 0.0
H255 H 0.48292 0.96149 0.11773 0.0
Tb256 Tb 0.01452 0.48682 0.99978 0.0
Eu257 Eu 0.99249 0.48401 0.04296 0.0
C258 C 0.03974 0.5393 0.02916 0.0
C259 C 0.04338 0.47436 0.03534 0.0
C260 C 0.02867 0.49524 0.94752 0.0
C261 C 0.04224 0.49958 0.91491 0.0
C262 C 0.04653 0.49564 0.93418 0.0
C263 C 0.00723 0.50024 0.94169 0.0
C264 C 0.00292 0.50423 0.92236 0.0
C265 C 0.01993 0.50314 0.90868 0.0
C266 C 0.03124 0.48695 0.96681 0.0
O267 O 0.99 0.44378 1.00534 0.0
O268 O 0.95976 0.4473 0.02404 0.0
O269 O 0.96966 0.49984 0.02485 0.0
O270 O 0.97767 0.49037 0.99392 0.0
C271 C 0.96557 0.43287 1.01186 0.0
O272 O 0.9749 0.46075 0.06747 0.0
O273 O 0.98413 0.50307 0.06773 0.0
O274 O 0.03277 0.52355 0.0434 0.0
O275 O 0.02918 0.52912 1.01121 0.0
O276 O 0.0463 0.48647 0.01933 0.0
O277 O 0.02165 0.46726 0.04489 0.0
C278 C 0.96466 0.49779 1.0059 0.0
O279 O 0.04502 0.50645 0.98081 0.0
O280 O 0.00874 0.46685 0.97217 0.0
C281 C 0.98951 0.4873 0.09777 0.0
C282 C 0.01279 0.49669 0.13647 0.0
C283 C 0.98895 0.4716 0.12966 0.0
C284 C 0.97735 0.46701 0.1105 0.0
C285 C 0.01358 0.51229 0.10446 0.0
C286 C 0.02503 0.51699 0.12369 0.0
C287 C 0.97679 0.48189 0.07766 0.0
H288 H 0.05591 0.49904 0.90475 0.0
H289 H 0.06321 0.49186 0.93849 0.0
H290 H 0.99322 0.49996 0.95186 0.0
H291 H 0.98547 0.50676 0.91795 0.0
H292 H 0.97895 0.45572 0.13927 0.0
H293 H 0.95879 0.44761 0.10562 0.0
H294 H 0.02355 0.52822 0.09489 0.0
H295 H 0.04356 0.53641 0.12855 0.0
Tb296 Tb 0.52934 0.51994 0.04071 0.0
Eu297 Eu 0.50382 0.51841 0.99627 0.0
C298 C 0.49785 0.46516 1.01345 0.0
C299 C 0.56582 0.52874 1.00605 0.0
C300 C 0.53749 0.5173 0.09419 0.0
C301 C 0.54604 0.51887 0.12901 0.0
C302 C 0.55531 0.52122 0.11063 0.0
C303 C 0.50993 0.50995 0.09623 0.0
C304 C 0.50063 0.50771 0.11463 0.0
C305 C 0.51879 0.51275 0.1313 0.0
C306 C 0.54856 0.5232 0.07533 0.0
O307 O 0.54759 0.56153 0.03194 0.0
O308 O 0.50941 0.55552 0.01395 0.0
O309 O 0.46695 0.50185 1.01356 0.0
O310 O 0.48972 0.51754 0.0444 0.0
C311 C 0.53242 0.57147 0.025 0.0
O312 O 0.50547 0.54098 0.97139 0.0
O313 O 0.47544 0.49742 0.97012 0.0
O314 O 0.50496 0.47946 0.99845 0.0
O315 O 0.50018 0.47698 0.03083 0.0
O316 O 0.55908 0.51829 0.02266 0.0
O317 O 0.54969 0.53488 0.99546 0.0
C318 C 0.46692 0.50671 0.03231 0.0
O319 O 0.54109 0.50223 0.06264 0.0
O320 O 0.54738 0.54313 0.06752 0.0
C321 C 0.49543 0.515 0.94126 0.0
C322 C 0.51376 0.50984 0.90512 0.0
C323 C 0.50946 0.5319 0.91011 0.0
C324 C 0.50032 0.53437 0.92796 0.0
C325 C 0.49961 0.49291 0.93637 0.0
C326 C 0.50853 0.49028 0.91845 0.0
C327 C 0.48727 0.51893 0.96042 0.0
H328 H 0.56042 0.52234 0.14148 0.0
H329 H 0.57664 0.52683 0.10931 0.0
H330 H 0.49591 0.5068 0.08364 0.0
H331 H 0.47959 0.50316 0.11584 0.0
H332 H 0.51366 0.54758 0.90037 0.0
H333 H 0.49745 0.55171 0.93152 0.0
H334 H 0.49618 0.47774 0.94642 0.0
H335 H 0.51117 0.47279 0.91502 0.0
Tb336 Tb 0.14821 0.32433 0.33433 0.0
Eu337 Eu 0.17144 0.35031 0.38004 0.0
C338 C 0.17603 0.30062 0.3615 0.0
C339 C 0.11013 0.29873 0.36735 0.0
C340 C 0.14069 0.31744 0.28028 0.0
C341 C 0.13264 0.31336 0.24519 0.0
C342 C 0.12433 0.30306 0.26294 0.0
C343 C 0.16562 0.34214 0.27965 0.0
C344 C 0.17412 0.35234 0.2619 0.0
C345 C 0.15758 0.33819 0.24446 0.0
C346 C 0.13104 0.30706 0.2989 0.0
O347 O 0.1306 0.34956 0.34343 0.0
O348 O 0.16655 0.38171 0.36455 0.0
O349 O 0.20894 0.36958 0.36332 0.0
O350 O 0.18686 0.36219 0.33253 0.0
C351 C 0.14485 0.37455 0.35226 0.0
O352 O 0.16721 0.36949 0.40682 0.0
O353 O 0.19977 0.35924 0.40594 0.0
O354 O 0.16808 0.30898 0.37644 0.0
O355 O 0.17593 0.30986 0.34458 0.0
O356 O 0.11824 0.2936 0.35106 0.0
O357 O 0.12522 0.322 0.37841 0.0
C358 C 0.20938 0.3739 0.34487 0.0
O359 O 0.14639 0.30028 0.30939 0.0
O360 O 0.1232 0.32127 0.30938 0.0
C361 C 0.17825 0.35386 0.435 0.0
C362 C 0.16126 0.32859 0.46955 0.0
C363 C 0.16684 0.35568 0.46803 0.0
C364 C 0.1753 0.36817 0.45095 0.0
C365 C 0.17259 0.3268 0.43636 0.0
C366 C 0.16435 0.31436 0.45348 0.0
C367 C 0.18624 0.36703 0.41687 0.0
H368 H 0.11956 0.30187 0.232 0.0
H369 H 0.10495 0.284 0.26315 0.0
H370 H 0.17826 0.35372 0.29291 0.0
H371 H 0.19324 0.37168 0.26185 0.0
H372 H 0.16425 0.36715 0.47992 0.0
H373 H 0.17927 0.38896 0.45013 0.0
H374 H 0.17448 0.3152 0.42419 0.0
H375 H 0.16064 0.29366 0.45414 0.0
Tb376 Tb 0.6808 0.82308 0.33365 0.0
Eu377 Eu 0.65828 0.81598 0.37673 0.0
C378 C 0.70646 0.87237 0.36628 0.0
C379 C 0.71069 0.80981 0.36786 0.0
C380 C 0.68618 0.82584 0.28058 0.0
C381 C 0.6898 0.8407 0.24827 0.0
C382 C 0.7016 0.84361 0.26717 0.0
C383 C 0.65878 0.80495 0.2749 0.0
C384 C 0.64702 0.80185 0.25592 0.0
C385 C 0.66239 0.81985 0.24248 0.0
C386 C 0.69849 0.83066 0.30067 0.0
O387 O 0.6535 0.77887 0.33429 0.0
O388 O 0.6262 0.77907 0.35748 0.0
O389 O 0.63732 0.83435 0.35925 0.0
O390 O 0.64036 0.81959 0.32854 0.0
C391 C 0.63082 0.76645 0.34305 0.0
O392 O 0.64171 0.79135 0.40086 0.0
O393 O 0.64691 0.83225 0.40139 0.0
O394 O 0.69923 0.85535 0.3797 0.0
O395 O 0.69526 0.86378 0.34831 0.0
O396 O 0.71359 0.82379 0.35279 0.0
O397 O 0.68834 0.80034 0.37702 0.0
C398 C 0.62941 0.8294 0.34055 0.0
O399 O 0.69641 0.84893 0.31153 0.0
O400 O 0.69311 0.80909 0.30963 0.0
C401 C 0.65198 0.81662 0.43137 0.0
C402 C 0.67228 0.82738 0.47086 0.0
C403 C 0.64613 0.80456 0.46438 0.0
C404 C 0.63606 0.7993 0.44482 0.0
C405 C 0.67829 0.83916 0.43764 0.0
C406 C 0.68831 0.84457 0.45724 0.0
C407 C 0.64062 0.81094 0.41097 0.0
H408 H 0.70219 0.85465 0.23815 0.0
H409 H 0.72271 0.85997 0.27139 0.0
H410 H 0.64641 0.79128 0.28518 0.0
H411 H 0.62577 0.78575 0.25185 0.0
H412 H 0.63348 0.79061 0.4744 0.0
H413 H 0.61579 0.7817 0.44018 0.0
H414 H 0.69096 0.85272 0.42743 0.0
H415 H 0.70841 0.86246 0.46175 0.0
Tb416 Tb 0.19355 0.84629 0.37233 0.0
Eu417 Eu 0.17072 0.84931 0.32794 0.0
C418 C 0.16425 0.79433 0.34193 0.0
C419 C 0.23136 0.85725 0.33852 0.0
C420 C 0.20125 0.84808 0.42594 0.0
C421 C 0.18969 0.8336 0.45799 0.0
C422 C 0.19832 0.83029 0.44011 0.0
C423 C 0.19562 0.86942 0.42993 0.0
C424 C 0.18728 0.87293 0.44791 0.0
C425 C 0.18402 0.85491 0.46206 0.0
C426 C 0.20831 0.84282 0.40674 0.0
O427 O 0.21054 0.88971 0.36865 0.0
O428 O 0.17782 0.88708 0.34569 0.0
O429 O 0.13369 0.83244 0.34531 0.0
O430 O 0.15701 0.84981 0.37574 0.0
C431 C 0.19803 0.901 0.35953 0.0
O432 O 0.17433 0.8734 0.30361 0.0
O433 O 0.1427 0.8303 0.30136 0.0
O434 O 0.17154 0.80988 0.32762 0.0
O435 O 0.16532 0.80455 0.35956 0.0
O436 O 0.22298 0.84434 0.35409 0.0
O437 O 0.21666 0.86576 0.32872 0.0
C438 C 0.13402 0.83866 0.36391 0.0
O439 O 0.18813 0.8225 0.39564 0.0
O440 O 0.22226 0.86398 0.3972 0.0
C441 C 0.16341 0.84862 0.2729 0.0
C442 C 0.18008 0.84362 0.23604 0.0
C443 C 0.17291 0.86375 0.24077 0.0
C444 C 0.16461 0.86615 0.25898 0.0
C445 C 0.17075 0.82863 0.26838 0.0
C446 C 0.17887 0.82607 0.2501 0.0
C447 C 0.15552 0.85224 0.29222 0.0
H448 H 0.18759 0.81957 0.46868 0.0
H449 H 0.20236 0.81357 0.43723 0.0
H450 H 0.19729 0.88313 0.41908 0.0
H451 H 0.18277 0.88935 0.4506 0.0
H452 H 0.17406 0.87797 0.23049 0.0
H453 H 0.15936 0.88193 0.26227 0.0
H454 H 0.17024 0.81501 0.27897 0.0
H455 H 0.18389 0.81011 0.24694 0.0
Tb456 Tb 0.81556 0.65895 0.66631 0.0
Eu457 Eu 0.83529 0.68515 0.71216 0.0
C458 C 0.84073 0.63524 0.6959 0.0
C459 C 0.7748 0.63347 0.69801 0.0
C460 C 0.8106 0.65411 0.61247 0.0
C461 C 0.82339 0.65334 0.57976 0.0
C462 C 0.81533 0.64074 0.59683 0.0
C463 C 0.81386 0.68027 0.61078 0.0
C464 C 0.82167 0.69279 0.59363 0.0
C465 C 0.82674 0.67955 0.57798 0.0
C466 C 0.80412 0.64121 0.63077 0.0
O467 O 0.79876 0.68609 0.67121 0.0
O468 O 0.82884 0.71578 0.6968 0.0
O469 O 0.87352 0.70422 0.69601 0.0
O470 O 0.85156 0.69939 0.66584 0.0
C471 C 0.81003 0.70962 0.68218 0.0
O472 O 0.82912 0.70323 0.73868 0.0
O473 O 0.86336 0.69545 0.73844 0.0
O474 O 0.83158 0.64365 0.71005 0.0
O475 O 0.84222 0.64464 0.67891 0.0
O476 O 0.78415 0.62822 0.68237 0.0
O477 O 0.78912 0.65686 0.70901 0.0
C478 C 0.87413 0.71056 0.67803 0.0
O479 O 0.8253 0.64378 0.64155 0.0
O480 O 0.78759 0.64536 0.64104 0.0
C481 C 0.84093 0.6887 0.76716 0.0
C482 C 0.82489 0.66326 0.80169 0.0
C483 C 0.82834 0.68952 0.79995 0.0
C484 C 0.83636 0.70214 0.78286 0.0
C485 C 0.83724 0.66234 0.76877 0.0
C486 C 0.82947 0.64983 0.78591 0.0
C487 C 0.84868 0.70202 0.74907 0.0
H488 H 0.82689 0.64251 0.56791 0.0
H489 H 0.81313 0.62064 0.59791 0.0
H490 H 0.81074 0.69118 0.6228 0.0
H491 H 0.82436 0.71311 0.59276 0.0
H492 H 0.82518 0.70048 0.8119 0.0
H493 H 0.83895 0.7224 0.78188 0.0
H494 H 0.84024 0.65134 0.75676 0.0
H495 H 0.82664 0.62945 0.78672 0.0
Tb496 Tb 0.34914 0.15874 0.66757 0.0
Eu497 Eu 0.32428 0.14803 0.70988 0.0
C498 C 0.37386 0.20658 0.70098 0.0
C499 C 0.37872 0.14558 0.7024 0.0
C500 C 0.35567 0.1649 0.61461 0.0
C501 C 0.36136 0.1836 0.58349 0.0
C502 C 0.3715 0.18509 0.60267 0.0
C503 C 0.32934 0.14326 0.60721 0.0
C504 C 0.31925 0.14163 0.58797 0.0
C505 C 0.3352 0.16175 0.57585 0.0
C506 C 0.36699 0.16703 0.63471 0.0
O507 O 0.30964 0.12032 0.66281 0.0
O508 O 0.30905 0.10685 0.69328 0.0
O509 O 0.29131 0.1467 0.68889 0.0
O510 O 0.32036 0.17444 0.66785 0.0
C511 C 0.30033 0.10111 0.67477 0.0
O512 O 0.31298 0.12394 0.73468 0.0
O513 O 0.30505 0.15778 0.733 0.0
O514 O 0.35112 0.19395 0.70959 0.0
O515 O 0.37933 0.19373 0.68717 0.0
O516 O 0.37098 0.14157 0.68365 0.0
O517 O 0.36668 0.15331 0.71489 0.0
C518 C 0.29631 0.16291 0.67501 0.0
O519 O 0.36739 0.186 0.64654 0.0
O520 O 0.35895 0.14411 0.64261 0.0
C521 C 0.31631 0.14861 0.76399 0.0
C522 C 0.3384 0.16445 0.80314 0.0
C523 C 0.31397 0.13917 0.79764 0.0
C524 C 0.30302 0.13138 0.77825 0.0
C525 C 0.3407 0.17384 0.7693 0.0
C526 C 0.3516 0.18175 0.78873 0.0
C527 C 0.30507 0.13939 0.74363 0.0
H528 H 0.37399 0.1997 0.57471 0.0
H529 H 0.39177 0.20207 0.60819 0.0
H530 H 0.31665 0.12753 0.61623 0.0
H531 H 0.29918 0.12433 0.58253 0.0
H532 H 0.30355 0.1251 0.80827 0.0
H533 H 0.28434 0.11169 0.77435 0.0
H534 H 0.35137 0.18733 0.75842 0.0
H535 H 0.37028 0.20146 0.79247 0.0
Tb536 Tb 0.86367 0.18818 0.70824 0.0
Eu537 Eu 0.84142 0.18982 0.66365 0.0
C538 C 0.83476 0.1358 0.6789 0.0
C539 C 0.90257 0.19903 0.67491 0.0
C540 C 0.8654 0.1842 0.76131 0.0
C541 C 0.85477 0.16455 0.79205 0.0
C542 C 0.86642 0.16673 0.77454 0.0
C543 C 0.85212 0.19913 0.76568 0.0
C544 C 0.84079 0.19722 0.78324 0.0
C545 C 0.84207 0.18003 0.79674 0.0
C546 C 0.87831 0.18678 0.74312 0.0
O547 O 0.88287 0.23082 0.70196 0.0
O548 O 0.84783 0.22744 0.68131 0.0
O549 O 0.80384 0.17142 0.68028 0.0
O550 O 0.82566 0.18943 0.71102 0.0
C551 C 0.86934 0.24194 0.6941 0.0
O552 O 0.84501 0.21282 0.63866 0.0
O553 O 0.81278 0.17002 0.63749 0.0
O554 O 0.84378 0.15127 0.66467 0.0
O555 O 0.83424 0.14636 0.69604 0.0
O556 O 0.89454 0.18727 0.69097 0.0
O557 O 0.88731 0.20613 0.66425 0.0
C558 C 0.8031 0.17733 0.69873 0.0
O559 O 0.86639 0.1653 0.73043 0.0
O560 O 0.88545 0.20933 0.735 0.0
C561 C 0.83314 0.18629 0.60854 0.0
C562 C 0.84911 0.17853 0.57203 0.0
C563 C 0.84627 0.20154 0.57687 0.0
C564 C 0.83829 0.20531 0.59492 0.0
C565 C 0.83595 0.1633 0.60382 0.0
C566 C 0.84369 0.15939 0.58572 0.0
C567 C 0.8258 0.19129 0.62775 0.0
H568 H 0.85574 0.15074 0.80188 0.0
H569 H 0.87633 0.15484 0.77135 0.0
H570 H 0.85082 0.2126 0.75565 0.0
H571 H 0.83163 0.20981 0.7864 0.0
H572 H 0.85068 0.21693 0.56686 0.0
H573 H 0.83646 0.2233 0.59834 0.0
H574 H 0.83226 0.14838 0.61412 0.0
H575 H 0.84524 0.14122 0.58242 0.0
H576 H 0.28106 0.88141 0.07631 0.0
H577 H 0.29626 0.81629 0.0573 0.0
H578 H 0.32341 0.91487 0.06377 0.0
H579 H 0.33897 0.84988 0.04491 0.0
H580 H 0.4028 0.91615 1.01043 0.0
H581 H 0.35844 0.88181 0.02052 0.0
H582 H 0.37227 0.93575 0.07179 0.0
H583 H 0.41589 0.97005 0.06158 0.0
C584 C 0.29357 0.87426 0.06956 0.0
C585 C 0.2854 0.8462 0.06798 0.0
C586 C 0.3179 0.89346 0.06236 0.0
C587 C 0.33483 0.88517 0.05346 0.0
C588 C 0.32633 0.857 0.05148 0.0
C589 C 0.30188 0.83774 0.05863 0.0
C590 C 0.39628 0.92069 0.0238 0.0
C591 C 0.41292 0.94596 0.03511 0.0
C592 C 0.37092 0.90094 0.02965 0.0
C593 C 0.36164 0.90602 0.04694 0.0
C594 C 0.37839 0.93128 0.05821 0.0
C595 C 0.4036 0.95096 0.05237 0.0
H596 H 0.16675 0.46259 0.11012 0.0
H597 H 0.17675 0.43611 0.05323 0.0
H598 H 0.13047 0.47028 0.09617 0.0
H599 H 0.1402 0.44375 0.03918 0.0
H600 H 0.09141 0.4861 0.01968 0.0
H601 H 0.12869 0.47919 0.03282 0.0
H602 H 0.08318 0.4439 0.08146 0.0
H603 H 0.04614 0.45126 0.06855 0.0
C604 C 0.1611 0.45828 0.09461 0.0
C605 C 0.1745 0.44846 0.08282 0.0
C606 C 0.14021 0.46263 0.0866 0.0
C607 C 0.13211 0.45733 0.06656 0.0
C608 C 0.14602 0.44823 0.05466 0.0
C609 C 0.167 0.44387 0.0627 0.0
C610 C 0.08929 0.47683 0.03317 0.0
C611 C 0.06572 0.46934 0.04307 0.0
C612 C 0.11066 0.47273 0.04066 0.0
C613 C 0.10907 0.46109 0.05825 0.0
C614 C 0.08535 0.45333 0.06803 0.0
C615 C 0.06398 0.4574 0.06055 0.0
H616 H 0.54299 0.73108 0.04182 0.0
H617 H 0.60894 0.73658 0.08119 0.0
H618 H 0.53356 0.68642 0.02784 0.0
H619 H 0.59775 0.69097 0.06862 0.0
H620 H 0.58471 0.61453 0.03539 0.0
H621 H 0.59848 0.66249 0.0439 0.0
H622 H 0.51259 0.64132 0.03511 0.0
H623 H 0.49933 0.59396 0.02543 0.0
C624 C 0.55557 0.72287 0.04748 0.0
C625 C 0.57651 0.7374 0.06284 0.0
C626 C 0.54984 0.69696 0.03966 0.0
C627 C 0.56456 0.6847 0.04723 0.0
C628 C 0.58606 0.69966 0.0622 0.0
C629 C 0.59215 0.72574 0.06972 0.0
C630 C 0.56889 0.6203 0.03516 0.0
C631 C 0.54099 0.6006 0.02979 0.0
C632 C 0.57671 0.64776 0.04015 0.0
C633 C 0.55668 0.65597 0.04034 0.0
C634 C 0.52875 0.63609 0.03477 0.0
C635 C 0.52106 0.60881 0.02937 0.0
H636 H 0.83547 0.25919 0.99541 0.0
H637 H 0.83868 0.29145 0.94 0.0
H638 H 0.8728 0.30442 1.00953 0.0
H639 H 0.87647 0.33605 0.95398 0.0
H640 H 0.9641 0.4009 0.98026 0.0
H641 H 0.92684 0.35477 0.96794 0.0
H642 H 0.8812 0.3538 0.01598 0.0
H643 H 0.9183 0.4 0.02827 0.0
C644 C 0.84391 0.27589 0.98628 0.0
C645 C 0.8342 0.27151 0.9665 0.0
C646 C 0.86538 0.30172 0.99435 0.0
C647 C 0.87777 0.32358 0.98276 0.0
C648 C 0.86771 0.3194 0.96314 0.0
C649 C 0.84607 0.29378 0.95515 0.0
C650 C 0.94625 0.39076 0.9883 0.0
C651 C 0.9441 0.40414 1.00519 0.0
C652 C 0.92487 0.36444 0.98118 0.0
C653 C 0.90109 0.35081 0.99097 0.0
C654 C 0.89935 0.36379 1.0082 0.0
C655 C 0.92054 0.39028 0.01517 0.0
H656 H 0.70439 0.51302 0.97001 0.0
H657 H 0.72355 0.59411 0.95626 0.0
H658 H 0.66265 0.50672 0.98354 0.0
H659 H 0.68167 0.58763 0.96957 0.0
H660 H 0.58849 0.55278 0.97358 0.0
H661 H 0.63142 0.56008 0.96164 0.0
H662 H 0.64642 0.5232 1.01038 0.0
H663 H 0.60327 0.51559 0.02229 0.0
C664 C 0.69993 0.52966 0.97007 0.0
C665 C 0.71738 0.55403 0.96191 0.0
C666 C 0.67592 0.52601 0.97782 0.0
C667 C 0.66864 0.54659 0.97755 0.0
C668 C 0.68633 0.57113 0.9697 0.0
C669 C 0.71038 0.57483 0.96204 0.0
C670 C 0.60091 0.54624 0.98181 0.0
C671 C 0.5923 0.53357 0.99893 0.0
C672 C 0.62567 0.55059 0.975 0.0
C673 C 0.64247 0.54228 0.98505 0.0
C674 C 0.63388 0.52961 1.00216 0.0
C675 C 0.60917 0.52539 1.00905 0.0
H676 H 0.40279 0.12891 0.95944 0.0
H677 H 0.46615 0.19153 1.00155 0.0
H678 H 0.41532 0.09606 0.9699 0.0
H679 H 0.47657 0.15771 1.01359 0.0
H680 H 0.51081 0.09947 0.01656 0.0
H681 H 0.49831 0.13319 1.0071 0.0
H682 H 0.41321 0.06801 0.99285 0.0
H683 H 0.42646 0.03438 1.00091 0.0
C684 C 0.41936 0.13574 0.97101 0.0
C685 C 0.43371 0.16317 0.97938 0.0
C686 C 0.42618 0.11659 0.97736 0.0
C687 C 0.44702 0.12399 0.99269 0.0
C688 C 0.46078 0.15121 1.0015 0.0
C689 C 0.45442 0.1706 0.9948 0.0
C690 C 0.48945 0.0925 1.0114 0.0
C691 C 0.46962 0.06439 1.00931 0.0
C692 C 0.48216 0.11183 1.00611 0.0
C693 C 0.45467 0.10352 0.99908 0.0
C694 C 0.43472 0.07531 0.99764 0.0
C695 C 0.44222 0.05596 1.00241 0.0
H696 H 0.68846 0.10211 0.95206 0.0
H697 H 0.70888 0.17169 0.99287 0.0
H698 H 0.64308 0.07644 0.96393 0.0
H699 H 0.66337 0.14585 1.00489 0.0
H700 H 0.59081 0.0744 0.03363 0.0
H701 H 0.63655 0.10265 0.02265 0.0
H702 H 0.5999 0.08029 0.96325 0.0
H703 H 0.55433 0.05222 0.97407 0.0
C704 C 0.68322 0.11187 0.96361 0.0
C705 C 0.70211 0.13887 0.97149 0.0
C706 C 0.65722 0.09725 0.97033 0.0
C707 C 0.64964 0.10921 0.98526 0.0
C708 C 0.66873 0.1361 0.99341 0.0
C709 C 0.6947 0.15091 0.98649 0.0
C710 C 0.59249 0.07566 0.01823 0.0
C711 C 0.5689 0.06096 1.00474 0.0
C712 C 0.61866 0.09193 1.01197 0.0
C713 C 0.62179 0.09351 0.9921 0.0
C714 C 0.59815 0.07921 0.97865 0.0
C715 C 0.57201 0.06324 0.98489 0.0
H716 H 0.83938 0.54665 0.98619 0.0
H717 H 0.83428 0.50116 0.93264 0.0
H718 H 0.87698 0.54036 0.99978 0.0
H719 H 0.87087 0.49369 0.94634 0.0
H720 H 0.95471 0.50672 0.96858 0.0
H721 H 0.91853 0.51517 0.95543 0.0
H722 H 0.88813 0.50848 1.01168 0.0
H723 H 0.92499 0.50122 0.02494 0.0
C724 C 0.84608 0.53501 0.97742 0.0
C725 C 0.83389 0.52434 0.95837 0.0
C726 C 0.86759 0.53127 0.98521 0.0
C727 C 0.8772 0.51654 0.9742 0.0
C728 C 0.86459 0.50563 0.95519 0.0
C729 C 0.84338 0.50966 0.94737 0.0
C730 C 0.94036 0.50714 0.97815 0.0
C731 C 0.94284 0.5033 0.99783 0.0
C732 C 0.91942 0.51181 0.97058 0.0
C733 C 0.90013 0.51241 0.98242 0.0
C734 C 0.90275 0.50865 1.00213 0.0
C735 C 0.92388 0.50431 1.00974 0.0
H736 H 0.39107 0.2931 0.97438 0.0
H737 H 0.45646 0.29377 1.01135 0.0
H738 H 0.41231 0.34276 0.98199 0.0
H739 H 0.47768 0.34355 0.01905 0.0
H740 H 0.48867 0.42923 0.04089 0.0
H741 H 0.46701 0.37913 0.03558 0.0
H742 H 0.45763 0.38306 0.97391 0.0
H743 H 0.47926 0.43288 0.97908 0.0
C744 C 0.40984 0.30387 0.98429 0.0
C745 C 0.42221 0.28971 0.99218 0.0
C746 C 0.42205 0.33225 0.98855 0.0
C747 C 0.44673 0.34696 1.00097 0.0
C748 C 0.4586 0.33264 1.00947 0.0
C749 C 0.44652 0.30422 1.00501 0.0
C750 C 0.48204 0.41938 0.0262 0.0
C751 C 0.48563 0.43501 1.01041 0.0
C752 C 0.46976 0.39076 0.02318 0.0
C753 C 0.4605 0.37728 1.00435 0.0
C754 C 0.46428 0.39293 0.98859 0.0
C755 C 0.47683 0.42148 0.99157 0.0
H756 H 0.17954 0.70828 0.04129 0.0
H757 H 0.11662 0.71027 0.07308 0.0
H758 H 0.1485 0.6589 0.03189 0.0
H759 H 0.08588 0.66115 0.0639 0.0
H760 H 0.05561 0.56903 0.06452 0.0
H761 H 0.08739 0.6182 0.07211 0.0
H762 H 0.10056 0.62652 1.01175 0.0
H763 H 0.06844 0.57709 1.00401 0.0
C764 C 0.1591 0.69819 0.04621 0.0
C765 C 0.15045 0.713 0.05798 0.0
C766 C 0.14133 0.67002 0.04078 0.0
C767 C 0.11487 0.65621 0.04728 0.0
C768 C 0.10626 0.67119 0.05886 0.0
C769 C 0.12379 0.69929 0.06404 0.0
C770 C 0.06528 0.58126 0.05283 0.0
C771 C 0.0594 0.56915 0.03364 0.0
C772 C 0.0834 0.60945 0.05719 0.0
C773 C 0.09635 0.62616 0.04251 0.0
C774 C 0.09093 0.61406 0.02335 0.0
C775 C 0.07244 0.58583 0.01892 0.0
H776 H 0.32871 0.43827 0.10123 0.0
H777 H 0.30161 0.47433 0.05794 0.0
H778 H 0.37236 0.45453 0.08709 0.0
H779 H 0.34553 0.49068 0.04368 0.0
H780 H 0.41511 0.48502 1.01251 0.0
H781 H 0.37127 0.47142 0.02599 0.0
H782 H 0.41453 0.4988 0.08354 0.0
H783 H 0.4582 0.51247 0.07021 0.0
C784 C 0.33216 0.44976 0.08869 0.0
C785 C 0.31178 0.45508 0.08075 0.0
C786 C 0.35723 0.4592 0.08065 0.0
C787 C 0.36252 0.47403 0.0643 0.0
C788 C 0.34202 0.47919 0.05621 0.0
C789 C 0.31694 0.46995 0.06443 0.0
C790 C 0.41533 0.48828 0.02804 0.0
C791 C 0.44029 0.4996 0.04026 0.0
C792 C 0.39018 0.4806 0.03574 0.0
C793 C 0.38935 0.48383 0.05585 0.0
C794 C 0.41436 0.49564 0.06801 0.0
C795 C 0.43947 0.50352 0.06032 0.0
H796 H 0.617 0.90975 0.06157 0.0
H797 H 0.53724 0.8353 0.05224 0.0
H798 H 0.59534 0.93637 0.05148 0.0
H799 H 0.51557 0.86204 0.04272 0.0
H800 H 0.49285 0.93276 0.05621 0.0
H801 H 0.51309 0.90405 0.06371 0.0
H802 H 0.56534 0.93476 0.01752 0.0
H803 H 0.54467 0.96292 1.00961 0.0
C804 C 0.5949 0.89914 0.05728 0.0
C805 C 0.57881 0.87055 0.05754 0.0
C806 C 0.58258 0.91429 0.0515 0.0
C807 C 0.55387 0.90113 0.04637 0.0
C808 C 0.53775 0.87255 0.04666 0.0
C809 C 0.55017 0.85731 0.052 0.0
C810 C 0.50848 0.93319 0.04756 0.0
C811 C 0.51717 0.95 0.03232 0.0
C812 C 0.51995 0.91674 0.05181 0.0
C813 C 0.54072 0.91736 0.04118 0.0
C814 C 0.54937 0.93407 0.02591 0.0
C815 C 0.53745 0.95002 0.02136 0.0
H816 H 0.94024 0.1701 0.37845 0.0
H817 H 0.98367 0.18728 0.43563 0.0
H818 H 0.98296 0.20406 0.36633 0.0
H819 H 0.02625 0.22119 0.42356 0.0
H820 H 0.08812 0.30121 0.4009 0.0
H821 H 0.04527 0.26641 0.41197 0.0
H822 H 0.02926 0.21318 0.35985 0.0
H823 H 0.07208 0.24827 0.34853 0.0
C824 C 0.95896 0.1809 0.38839 0.0
C825 C 0.95847 0.17608 0.40805 0.0
C826 C 0.98344 0.20037 0.38144 0.0
C827 C 0.008 0.21549 0.394 0.0
C828 C 0.00759 0.21031 0.41357 0.0
C829 C 0.98316 0.19086 0.4205 0.0
C830 C 0.07549 0.28215 0.39172 0.0
C831 C 0.08363 0.27758 0.3738 0.0
C832 C 0.05096 0.26208 0.39816 0.0
C833 C 0.03389 0.23692 0.38687 0.0
C834 C 0.04183 0.23243 0.36884 0.0
C835 C 0.06645 0.25251 0.3624 0.0
H836 H 0.84686 0.77579 0.38699 0.0
H837 H 0.83976 0.80849 0.44264 0.0
H838 H 0.80968 0.7821 0.37235 0.0
H839 H 0.8026 0.81446 0.4281 0.0
H840 H 0.71554 0.78857 0.40142 0.0
H841 H 0.75419 0.78376 0.41443 0.0
H842 H 0.79736 0.81778 0.36468 0.0
H843 H 0.75852 0.82245 0.35149 0.0
C844 C 0.83766 0.78466 0.39605 0.0
C845 C 0.84609 0.7913 0.41605 0.0
C846 C 0.81631 0.78821 0.38766 0.0
C847 C 0.80288 0.79839 0.39912 0.0
C848 C 0.81203 0.80595 0.41895 0.0
C849 C 0.83337 0.80254 0.42728 0.0
C850 C 0.73318 0.79494 0.39317 0.0
C851 C 0.73388 0.80598 0.37541 0.0
C852 C 0.75545 0.79235 0.40071 0.0
C853 C 0.77897 0.80058 0.39067 0.0
C854 C 0.7795 0.81112 0.37273 0.0
C855 C 0.75726 0.81391 0.36523 0.0
H856 H 0.28278 0.07242 0.40751 0.0
H857 H 0.20156 0.05538 0.38496 0.0
H858 H 0.27156 0.0264 0.39496 0.0
H859 H 0.18986 0.00897 0.37285 0.0
H860 H 0.18498 0.93454 0.33997 0.0
H861 H 0.19869 0.98218 0.34968 0.0
H862 H 0.2434 0.9803 0.40209 0.0
H863 H 0.23049 0.93306 0.39206 0.0
C864 C 0.26249 0.05873 0.39988 0.0
C865 C 0.24298 0.06734 0.39726 0.0
C866 C 0.25599 0.03233 0.39276 0.0
C867 C 0.2297 0.01384 0.38305 0.0
C868 C 0.21042 0.02275 0.38005 0.0
C869 C 0.21705 0.04929 0.38701 0.0
C870 C 0.19783 0.94435 0.35353 0.0
C871 C 0.20668 0.93004 0.36523 0.0
C872 C 0.20558 0.97163 0.35914 0.0
C873 C 0.22216 0.98512 0.37667 0.0
C874 C 0.23106 0.97076 0.38832 0.0
C875 C 0.22352 0.94359 0.38263 0.0
H876 H 0.47631 0.6141 0.30854 0.0
H877 H 0.53915 0.5937 0.29664 0.0
H878 H 0.51224 0.66028 0.32166 0.0
H879 H 0.57511 0.63981 0.30985 0.0
H880 H 0.63048 0.73375 0.31216 0.0
H881 H 0.59497 0.68652 0.30105 0.0
H882 H 0.54796 0.68617 0.3481 0.0
H883 H 0.58307 0.73347 0.35899 0.0
C884 C 0.49778 0.61932 0.30905 0.0
C885 C 0.50487 0.60027 0.30146 0.0
C886 C 0.51841 0.64582 0.31655 0.0
C887 C 0.54661 0.65386 0.31667 0.0
C888 C 0.55364 0.63451 0.30962 0.0
C889 C 0.53303 0.60804 0.30211 0.0
C890 C 0.61262 0.72359 0.32017 0.0
C891 C 0.60965 0.73749 0.33644 0.0
C892 C 0.59231 0.69643 0.31387 0.0
C893 C 0.56858 0.68251 0.32368 0.0
C894 C 0.56576 0.69637 0.34004 0.0
C895 C 0.58602 0.72349 0.34633 0.0
H896 H 0.4001 0.89331 0.32265 0.0
H897 H 0.35593 0.8684 0.26532 0.0
H898 H 0.35785 0.88553 0.33631 0.0
H899 H 0.31389 0.86068 0.2789 0.0
H900 H 0.25381 0.88114 0.3061 0.0
H901 H 0.29618 0.88783 0.29377 0.0
H902 H 0.31097 0.84988 0.34193 0.0
H903 H 0.26858 0.84354 0.35455 0.0
C904 C 0.38133 0.88587 0.31298 0.0
C905 C 0.38152 0.88173 0.29285 0.0
C906 C 0.3571 0.88143 0.32081 0.0
C907 C 0.3325 0.87274 0.3087 0.0
C908 C 0.33258 0.86796 0.28864 0.0
C909 C 0.35672 0.87238 0.28084 0.0
C910 C 0.26605 0.87424 0.31415 0.0
C911 C 0.25765 0.86173 0.33134 0.0
C912 C 0.29032 0.87792 0.30697 0.0
C913 C 0.30694 0.86921 0.31675 0.0
C914 C 0.29879 0.85701 0.33409 0.0
C915 C 0.27439 0.85326 0.34128 0.0
H916 H 0.06515 0.45444 0.2982 0.0
H917 H 0.13009 0.52005 0.33775 0.0
H918 H 0.07801 0.42251 0.31025 0.0
H919 H 0.14116 0.48738 0.35128 0.0
H920 H 0.17723 0.43012 0.35347 0.0
H921 H 0.16312 0.46283 0.34439 0.0
H922 H 0.0778 0.39676 0.33468 0.0
H923 H 0.09245 0.36403 0.34245 0.0
C924 C 0.08209 0.46208 0.30959 0.0
C925 C 0.09688 0.49004 0.3167 0.0
C926 C 0.08914 0.44353 0.31683 0.0
C927 C 0.11075 0.4522 0.33179 0.0
C928 C 0.12478 0.47995 0.3395 0.0
C929 C 0.11809 0.49868 0.33195 0.0
C930 C 0.15546 0.42273 0.34947 0.0
C931 C 0.13595 0.39459 0.34846 0.0
C932 C 0.14727 0.44149 0.34439 0.0
C933 C 0.11925 0.43257 0.33862 0.0
C934 C 0.09964 0.40443 0.33848 0.0
C935 C 0.10796 0.38562 0.34308 0.0
H936 H 0.33264 0.47455 0.27072 0.0
H937 H 0.38186 0.48602 0.32444 0.0
H938 H 0.29063 0.44532 0.28542 0.0
H939 H 0.33988 0.45563 0.33907 0.0
H940 H 0.25573 0.41839 0.36431 0.0
H941 H 0.29865 0.44986 0.35097 0.0
H942 H 0.2662 0.40136 0.29542 0.0
H943 H 0.22344 0.37089 0.30858 0.0
C944 C 0.33442 0.47064 0.28568 0.0
C945 C 0.36046 0.48252 0.29641 0.0
C946 C 0.31035 0.45368 0.29411 0.0
C947 C 0.31171 0.44773 0.31344 0.0
C948 C 0.3379 0.45992 0.32424 0.0
C949 C 0.36201 0.47724 0.31584 0.0
C950 C 0.2579 0.41458 0.34926 0.0
C951 C 0.23602 0.39248 0.33739 0.0
C952 C 0.28253 0.43252 0.3416 0.0
C953 C 0.28591 0.42848 0.32199 0.0
C954 C 0.26419 0.40578 0.31039 0.0
C955 C 0.23958 0.38818 0.31795 0.0
H956 H 0.48575 0.85099 0.31593 0.0
H957 H 0.54829 0.90442 0.28092 0.0
H958 H 0.51621 0.834 0.32772 0.0
H959 H 0.57856 0.88746 0.29255 0.0
H960 H 0.61444 0.8316 0.30268 0.0
H961 H 0.58072 0.84402 0.29027 0.0
H962 H 0.56201 0.85353 0.34852 0.0
H963 H 0.59568 0.84112 0.361 0.0
C964 C 0.50592 0.859 0.31071 0.0
C965 C 0.51471 0.87904 0.29752 0.0
C966 C 0.52338 0.84936 0.31749 0.0
C967 C 0.54974 0.85932 0.31099 0.0
C968 C 0.55826 0.87912 0.29764 0.0
C969 C 0.54101 0.88895 0.29108 0.0
C970 C 0.60302 0.83615 0.31285 0.0
C971 C 0.60792 0.83553 0.33286 0.0
C972 C 0.58378 0.84337 0.30573 0.0
C973 C 0.56878 0.84984 0.31843 0.0
C974 C 0.57309 0.84845 0.33837 0.0
C975 C 0.59254 0.84152 0.34551 0.0
H976 H 0.12256 0.62307 0.34144 0.0
H977 H 0.05944 0.62229 0.30185 0.0
H978 H 0.14509 0.67313 0.34737 0.0
H979 H 0.08194 0.67232 0.30777 0.0
H980 H 0.14768 0.76328 0.30685 0.0
H981 H 0.12689 0.71341 0.30101 0.0
H982 H 0.13448 0.70801 0.3626 0.0
H983 H 0.15528 0.75771 0.36851 0.0
C984 C 0.11345 0.6336 0.33409 0.0
C985 C 0.08927 0.61891 0.32118 0.0
C986 C 0.12631 0.6622 0.3375 0.0
C987 C 0.11534 0.67658 0.32792 0.0
C988 C 0.09104 0.66179 0.31514 0.0
C989 C 0.07806 0.63321 0.31188 0.0
C990 C 0.14507 0.75147 0.31913 0.0
C991 C 0.153 0.76441 0.33814 0.0
C992 C 0.13303 0.72294 0.31579 0.0
C993 C 0.12899 0.70689 0.33137 0.0
C994 C 0.13752 0.7199 0.35033 0.0
C995 C 0.14928 0.74835 0.35368 0.0
H996 H 0.78601 0.049 0.39071 0.0
H997 H 0.85381 0.0331 0.39814 0.0
H998 H 0.75374 -0.00014 0.38221 0.0
H999 H 0.82136 0.98377 0.38999 0.0
H1000 H 0.74474 0.89649 0.3981 0.0
H1001 H 0.77846 0.94555 0.40599 0.0
H1002 H 0.74717 0.96382 0.35392 0.0
H1003 H 0.71387 0.915 0.34584 0.0
C1004 C 0.79397 0.03495 0.39044 0.0
C1005 C 0.82235 0.04479 0.39492 0.0
C1006 C 0.77556 0.00692 0.38558 0.0
C1007 C 0.78511 0.9881 0.38548 0.0
C1008 C 0.81351 0.99789 0.39007 0.0
C1009 C 0.83205 0.02607 0.39458 0.0
C1010 C 0.74508 0.911 0.38836 0.0
C1011 C 0.72664 0.90191 0.37138 0.0
C1012 C 0.76447 0.93899 0.39281 0.0
C1013 C 0.76535 0.95837 0.38055 0.0
C1014 C 0.74681 0.94929 0.36365 0.0
C1015 C 0.72783 0.92134 0.35902 0.0
H1016 H 0.96817 0.8055 0.38883 0.0
H1017 H 0.00502 0.79216 0.44052 0.0
H1018 H 0.01031 0.81787 0.37315 0.0
H1019 H 0.04663 0.80373 0.42484 0.0
H1020 H 0.12798 0.85336 0.40062 0.0
H1021 H 0.08551 0.84265 0.41463 0.0
H1022 H 0.03795 0.79969 0.36002 0.0
H1023 H 0.08078 0.81108 0.34575 0.0
C1024 C 0.98519 0.80506 0.3968 0.0
C1025 C 0.98337 0.79799 0.41596 0.0
C1026 C 0.00931 0.81201 0.38778 0.0
C1027 C 0.03207 0.81205 0.39775 0.0
C1028 C 0.02987 0.80454 0.41682 0.0
C1029 C 0.00591 0.7977 0.42578 0.0
C1030 C 0.10853 0.84172 0.3915 0.0
C1031 C 0.10789 0.83298 0.37203 0.0
C1032 C 0.08406 0.8354 0.39961 0.0
C1033 C 0.05815 0.81999 0.38856 0.0
C1034 C 0.0575 0.81175 0.36895 0.0
C1035 C 0.08208 0.81818 0.36078 0.0
H1036 H 0.28473 0.23832 0.39032 0.0
H1037 H 0.20385 0.16519 0.38396 0.0
H1038 H 0.26374 0.2653 0.37969 0.0
H1039 H 0.18293 0.19227 0.3738 0.0
H1040 H 0.16246 0.26353 0.38809 0.0
H1041 H 0.18178 0.23377 0.39409 0.0
H1042 H 0.23324 0.26546 0.34759 0.0
H1043 H 0.21342 0.2949 0.34121 0.0
C1044 C 0.26254 0.22805 0.3865 0.0
C1045 C 0.24592 0.19976 0.3879 0.0
C1046 C 0.2506 0.24339 0.38036 0.0
C1047 C 0.22179 0.23076 0.37595 0.0
C1048 C 0.2052 0.20241 0.37715 0.0
C1049 C 0.21719 0.18696 0.3829 0.0
C1050 C 0.1777 0.26396 0.37903 0.0
C1051 C 0.18649 0.2815 0.3642 0.0
C1052 C 0.18862 0.24687 0.38241 0.0
C1053 C 0.20895 0.24744 0.37129 0.0
C1054 C 0.21761 0.26477 0.35635 0.0
C1055 C 0.2062 0.28145 0.35266 0.0
H1056 H 0.60463 0.5052 0.71022 0.0
H1057 H 0.64995 0.52218 0.76669 0.0
H1058 H 0.64709 0.53851 0.69738 0.0
H1059 H 0.6921 0.55557 0.75392 0.0
H1060 H 0.75209 0.636 0.73111 0.0
H1061 H 0.70945 0.60107 0.74219 0.0
H1062 H 0.69413 0.54746 0.69044 0.0
H1063 H 0.73704 0.58275 0.67911 0.0
C1064 C 0.62366 0.5158 0.71985 0.0
C1065 C 0.62377 0.51117 0.73955 0.0
C1066 C 0.64798 0.5349 0.71248 0.0
C1067 C 0.67291 0.54988 0.72467 0.0
C1068 C 0.67312 0.54478 0.74423 0.0
C1069 C 0.64891 0.52566 0.75156 0.0
C1070 C 0.73969 0.61685 0.72198 0.0
C1071 C 0.74812 0.61222 0.70419 0.0
C1072 C 0.71527 0.59671 0.72844 0.0
C1073 C 0.6985 0.57138 0.71729 0.0
C1074 C 0.70656 0.56683 0.69932 0.0
C1075 C 0.73119 0.58701 0.69287 0.0
H1076 H 0.51436 0.15126 0.77464 0.0
H1077 H 0.51047 0.10526 0.72172 0.0
H1078 H 0.47755 0.15795 0.76033 0.0
H1079 H 0.47264 0.11077 0.70749 0.0
H1080 H 0.41869 0.1441 0.68223 0.0
H1081 H 0.45815 0.14024 0.69506 0.0
H1082 H 0.42983 0.13347 0.75203 0.0
H1083 H 0.39138 0.13858 0.73938 0.0
C1084 C 0.50551 0.14253 0.75991 0.0
C1085 C 0.51518 0.12767 0.74931 0.0
C1086 C 0.48422 0.14614 0.75172 0.0
C1087 C 0.47164 0.13455 0.73279 0.0
C1088 C 0.48189 0.12025 0.72201 0.0
C1089 C 0.50354 0.117 0.73015 0.0
C1090 C 0.42094 0.14175 0.69749 0.0
C1091 C 0.40197 0.14181 0.70979 0.0
C1092 C 0.44353 0.13942 0.70486 0.0
C1093 C 0.44749 0.13678 0.72468 0.0
C1094 C 0.42805 0.13623 0.73682 0.0
C1095 C 0.40577 0.13892 0.72952 0.0
H1096 H 0.91995 0.41635 0.70522 0.0
H1097 H 0.90785 0.39066 0.76301 0.0
H1098 H 0.90689 0.36965 0.69262 0.0
H1099 H 0.89556 0.34438 0.75045 0.0
H1100 H 0.9071 0.27505 0.72426 0.0
H1101 H 0.92019 0.32209 0.73539 0.0
H1102 H 0.86461 0.32152 0.6891 0.0
H1103 H 0.85143 0.2743 0.67784 0.0
C1104 C 0.91435 0.40075 0.71521 0.0
C1105 C 0.91516 0.40732 0.73515 0.0
C1106 C 0.90695 0.37407 0.70799 0.0
C1107 C 0.90044 0.3535 0.72059 0.0
C1108 C 0.90097 0.35997 0.74046 0.0
C1109 C 0.90811 0.38652 0.74765 0.0
C1110 C 0.89777 0.28496 0.71635 0.0
C1111 C 0.87817 0.27092 0.70018 0.0
C1112 C 0.90515 0.31184 0.72281 0.0
C1113 C 0.89329 0.32536 0.71317 0.0
C1114 C 0.87417 0.31161 0.69674 0.0
C1115 C 0.86656 0.28456 0.69036 0.0
H1116 H 0.1961 0.92696 0.63697 0.0
H1117 H 0.14067 0.95926 0.63201 0.0
H1118 H 0.23391 0.97232 0.65063 0.0
H1119 H 0.17862 0.00489 0.64535 0.0
H1120 H 0.26394 0.08518 0.64217 0.0
H1121 H 0.22491 0.03919 0.6316 0.0
H1122 H 0.24653 0.00764 0.68087 0.0
H1123 H 0.28535 0.05369 0.69166 0.0
C1124 C 0.19199 0.94374 0.63917 0.0
C1125 C 0.16559 0.93978 0.63369 0.0
C1126 C 0.21355 0.96961 0.64693 0.0
C1127 C 0.20917 0.99208 0.64892 0.0
C1128 C 0.18253 0.98791 0.64383 0.0
C1129 C 0.16083 0.96188 0.6364 0.0
C1130 C 0.26046 0.06842 0.6507 0.0
C1131 C 0.27775 0.07303 0.66772 0.0
C1132 C 0.23798 0.04218 0.64474 0.0
C1133 C 0.23265 0.01996 0.65551 0.0
C1134 C 0.25022 0.02444 0.67232 0.0
C1135 C 0.27239 0.05077 0.67848 0.0
H1136 H 0.04095 0.18267 0.63987 0.0
H1137 H 0.05983 0.26309 0.62468 0.0
H1138 H 0.99973 0.17708 0.65379 0.0
H1139 H 0.0186 0.25748 0.63858 0.0
H1140 H 0.9259 0.22329 0.64278 0.0
H1141 H 0.96882 0.23044 0.63114 0.0
H1142 H 0.98325 0.1936 0.68016 0.0
H1143 H 0.93985 0.18596 0.69172 0.0
C1144 C 0.03656 0.19934 0.63974 0.0
C1145 C 0.05371 0.22329 0.63104 0.0
C1146 C 0.01288 0.19612 0.64774 0.0
C1147 C 0.0057 0.21675 0.64723 0.0
C1148 C 0.02319 0.24094 0.63891 0.0
C1149 C 0.04686 0.24417 0.63093 0.0
C1150 C 0.93819 0.21675 0.65117 0.0
C1151 C 0.9293 0.20401 0.66822 0.0
C1152 C 0.96298 0.22104 0.64453 0.0
C1153 C 0.97962 0.21269 0.65472 0.0
C1154 C 0.97082 0.20005 0.67183 0.0
C1155 C 0.94599 0.1958 0.67852 0.0
H1156 H 0.80817 0.85899 0.661 0.0
H1157 H 0.7253 0.79402 0.64056 0.0
H1158 H 0.81939 0.82506 0.67236 0.0
H1159 H 0.73623 0.76011 0.65218 0.0
H1160 H 0.77706 0.7072 0.65059 0.0
H1161 H 0.76421 0.74105 0.64247 0.0
H1162 H 0.81042 0.79158 0.69544 0.0
H1163 H 0.82391 0.75794 0.70339 0.0
C1164 C 0.79222 0.83749 0.65929 0.0
C1165 C 0.76597 0.82907 0.64976 0.0
C1166 C 0.79861 0.81805 0.6658 0.0
C1167 C 0.77878 0.78985 0.663 0.0
C1168 C 0.75216 0.78162 0.65418 0.0
C1169 C 0.74585 0.80101 0.64758 0.0
C1170 C 0.78439 0.72544 0.66059 0.0
C1171 C 0.80153 0.72986 0.67764 0.0
C1172 C 0.77687 0.7448 0.65598 0.0
C1173 C 0.78619 0.76898 0.66835 0.0
C1174 C 0.80314 0.77331 0.6855 0.0
C1175 C 0.81077 0.75397 0.69009 0.0
H1176 H 0.00349 0.78571 0.60309 0.0
H1177 H 0.04231 0.83701 0.65694 0.0
H1178 H 0.96161 0.7578 0.61837 0.0
H1179 H 0.99998 0.80932 0.67227 0.0
H1180 H 0.92709 0.73362 0.69629 0.0
H1181 H 0.97059 0.76332 0.68289 0.0
H1182 H 0.92442 0.76219 0.63029 0.0
H1183 H 0.88134 0.73235 0.64337 0.0
C1184 C 0.003 0.79104 0.61821 0.0
C1185 C 0.02609 0.81358 0.62876 0.0
C1186 C 0.97893 0.77517 0.62696 0.0
C1187 C 0.97727 0.78147 0.64652 0.0
C1188 C 1.00061 0.80381 0.65722 0.0
C1189 C 0.02481 0.81975 0.64842 0.0
C1190 C 0.92627 0.7399 0.68193 0.0
C1191 C 0.90069 0.73037 0.67087 0.0
C1192 C 0.9512 0.75699 0.67427 0.0
C1193 C 0.95103 0.76487 0.65541 0.0
C1194 C 0.92539 0.75604 0.64468 0.0
C1195 C 0.90061 0.739 0.65227 0.0
H1196 H 0.18193 0.22314 0.65111 0.0
H1197 H 0.15851 0.15694 0.60643 0.0
H1198 H 0.21899 0.21579 0.66498 0.0
H1199 H 0.1949 0.14904 0.62072 0.0
H1200 H 0.2405 0.129 0.67385 0.0
H1201 H 0.20378 0.13699 0.66049 0.0
H1202 H 0.26533 0.2164 0.64556 0.0
H1203 H 0.30224 0.20817 0.65836 0.0
C1204 C 0.18451 0.20686 0.6444 0.0
C1205 C 0.16733 0.19049 0.62775 0.0
C1206 C 0.20573 0.20277 0.65227 0.0
C1207 C 0.20962 0.18186 0.64387 0.0
C1208 C 0.19218 0.16524 0.62744 0.0
C1209 C 0.17145 0.16976 0.6193 0.0
C1210 C 0.24621 0.14818 0.66775 0.0
C1211 C 0.27422 0.16798 0.66714 0.0
C1212 C 0.22522 0.15268 0.66009 0.0
C1213 C 0.23187 0.17732 0.65214 0.0
C1214 C 0.25981 0.1973 0.65174 0.0
C1215 C 0.28083 0.19253 0.65896 0.0
H1216 H 0.80837 0.97049 0.65748 0.0
H1217 H 0.72644 0.96006 0.65686 0.0
H1218 H 0.8287 0.02026 0.66444 0.0
H1219 H 0.74685 0.0098 0.66424 0.0
H1220 H 0.79893 0.09595 0.69978 0.0
H1221 H 0.77957 0.0463 0.69374 0.0
H1222 H 0.82615 0.05847 0.64442 0.0
H1223 H 0.84522 0.10822 0.65018 0.0
C1224 C 0.79474 0.97881 0.65905 0.0
C1225 C 0.76584 0.96154 0.65674 0.0
C1226 C 0.80637 0.00723 0.6629 0.0
C1227 C 0.78928 0.01869 0.66485 0.0
C1228 C 0.76041 0.00135 0.6629 0.0
C1229 C 0.74878 0.97302 0.65867 0.0
C1230 C 0.8051 0.08805 0.68767 0.0
C1231 C 0.82355 0.10591 0.67541 0.0
C1232 C 0.79394 0.05969 0.6842 0.0
C1233 C 0.80145 0.04873 0.66866 0.0
C1234 C 0.82022 0.06654 0.65657 0.0
C1235 C 0.83097 0.09491 0.6598 0.0
H1236 H 0.45005 0.38116 0.73654 0.0
H1237 H 0.51912 0.37131 0.72321 0.0
H1238 H 0.41859 0.33197 0.72845 0.0
H1239 H 0.48785 0.32192 0.71564 0.0
H1240 H 0.41967 0.24045 0.68357 0.0
H1241 H 0.45161 0.28927 0.69196 0.0
H1242 H 0.40605 0.28839 0.74011 0.0
H1243 H 0.37352 0.23954 0.73138 0.0
C1244 C 0.45846 0.36839 0.73189 0.0
C1245 C 0.48693 0.38002 0.73041 0.0
C1246 C 0.4405 0.34018 0.72743 0.0
C1247 C 0.45066 0.3229 0.72148 0.0
C1248 C 0.47925 0.33464 0.71995 0.0
C1249 C 0.49721 0.36294 0.72433 0.0
C1250 C 0.41647 0.25059 0.69601 0.0
C1251 C 0.39394 0.23606 0.70677 0.0
C1252 C 0.43493 0.27862 0.70088 0.0
C1253 C 0.43143 0.29284 0.71669 0.0
C1254 C 0.40912 0.2782 0.72764 0.0
C1255 C 0.39054 0.25014 0.72271 0.0
H1256 H 0.65516 0.16608 0.74329 0.0
H1257 H 0.6437 0.08437 0.74241 0.0
H1258 H 0.7 0.18235 0.73037 0.0
H1259 H 0.6881 0.10049 0.72896 0.0
H1260 H 0.75184 0.13705 0.68277 0.0
H1261 H 0.7073 0.12217 0.69557 0.0
H1262 H 0.74827 0.18466 0.74381 0.0
H1263 H 0.79306 0.19919 0.73133 0.0
C1264 C 0.66213 0.15158 0.7402 0.0
C1265 C 0.64593 0.12391 0.74376 0.0
C1266 C 0.6878 0.16092 0.7329 0.0
C1267 C 0.69741 0.14264 0.72862 0.0
C1268 C 0.68107 0.11495 0.73203 0.0
C1269 C 0.65576 0.10577 0.73974 0.0
C1270 C 0.75137 0.14774 0.69604 0.0
C1271 C 0.77599 0.16933 0.70602 0.0
C1272 C 0.7259 0.13912 0.7034 0.0
C1273 C 0.7244 0.15229 0.72065 0.0
C1274 C 0.74888 0.17427 0.73042 0.0
C1275 C 0.77447 0.1825 0.72331 0.0
H1276 H 0.95194 0.57491 0.72226 0.0
H1277 H 0.87154 0.50345 0.7249 0.0
H1278 H 0.92966 0.60096 0.71232 0.0
H1279 H 0.84934 0.52964 0.71531 0.0
H1280 H 0.83004 0.60204 0.72513 0.0
H1281 H 0.84995 0.57306 0.73229 0.0
H1282 H 0.89615 0.5979 0.6826 0.0
H1283 H 0.87599 0.62659 0.67519 0.0
C1284 C 0.92953 0.5648 0.72061 0.0
C1285 C 0.91345 0.53724 0.72424 0.0
C1286 C 0.91683 0.57961 0.71488 0.0
C1287 C 0.88785 0.56721 0.71306 0.0
C1288 C 0.87173 0.53961 0.71667 0.0
C1289 C 0.88443 0.52465 0.72207 0.0
C1290 C 0.84428 0.60115 0.71565 0.0
C1291 C 0.85152 0.6166 0.69963 0.0
C1292 C 0.85553 0.58449 0.7197 0.0
C1293 C 0.87457 0.58339 0.708 0.0
C1294 C 0.8816 0.59857 0.69187 0.0
C1295 C 0.86997 0.61485 0.68761 0.0
H1296 H 0.48857 0.94562 0.24911 0.0
H1297 H 0.4021 0.89968 0.22681 0.0
H1298 H 0.49991 0.96727 0.21917 0.0
H1299 H 0.41326 0.92262 0.19721 0.0
H1300 H 0.44705 0.94542 0.13855 0.0
H1301 H 0.43491 0.9238 0.16854 0.0
H1302 H 0.49637 6e-05 0.20113 0.0
H1303 H 0.50966 0.02116 0.17111 0.0
C1304 C 0.47193 0.94014 0.23783 0.0
C1305 C 0.44442 0.92071 0.24038 0.0
C1306 C 0.4784 0.9529 0.22072 0.0
C1307 C 0.45753 0.94679 0.20571 0.0
C1308 C 0.42994 0.92761 0.20834 0.0
C1309 C 0.42348 0.9147 0.22544 0.0
C1310 C 0.45821 0.95752 0.15209 0.0
C1311 C 0.47948 0.98505 0.15233 0.0
C1312 C 0.45095 0.9452 0.16935 0.0
C1313 C 0.46464 0.96013 0.18733 0.0
C1314 C 0.48562 0.98777 0.18757 0.0
C1315 C 0.49299 3e-05 0.17032 0.0
H1316 H 0.03818 0.53396 0.26029 0.0
H1317 H 0.09797 0.50878 0.24936 0.0
H1318 H 0.02447 0.52814 0.22563 0.0
H1319 H 0.08354 0.5022 0.21466 0.0
H1320 H 0.02281 0.46268 0.15778 0.0
H1321 H 0.03978 0.47034 0.19214 0.0
H1322 H 0.04593 0.55 0.19565 0.0
H1323 H 0.02876 0.54227 0.16136 0.0
C1324 C 0.04858 0.52741 0.25051 0.0
C1325 C 0.06924 0.5219 0.25763 0.0
C1326 C 0.04066 0.52403 0.23066 0.0
C1327 C 0.053 0.51479 0.2175 0.0
C1328 C 0.07353 0.50912 0.22454 0.0
C1329 C 0.08169 0.51278 0.24441 0.0
C1330 C 0.02784 0.48182 0.16592 0.0
C1331 C 0.02442 0.50186 0.15697 0.0
C1332 C 0.03774 0.48628 0.1855 0.0
C1333 C 0.04407 0.51072 0.19652 0.0
C1334 C 0.04098 0.53089 0.1875 0.0
C1335 C 0.03138 0.52657 0.16788 0.0
H1336 H 0.51263 0.53696 0.2551 0.0
H1337 H 0.43249 0.51956 0.22964 0.0
H1338 H 0.52396 0.52744 0.22339 0.0
H1339 H 0.44394 0.51033 0.19771 0.0
H1340 H 0.46864 0.47814 0.14449 0.0
H1341 H 0.45439 0.48066 0.17676 0.0
H1342 H 0.53479 0.55173 0.1947 0.0
H1343 H 0.5489 0.54932 0.16271 0.0
C1344 C 0.49739 0.53096 0.2427 0.0
C1345 C 0.47182 0.52934 0.2448 0.0
C1346 C 0.50389 0.52558 0.22452 0.0
C1347 C 0.48505 0.51856 0.20795 0.0
C1348 C 0.45888 0.51555 0.21019 0.0
C1349 C 0.45231 0.52085 0.22846 0.0
C1350 C 0.48323 0.49431 0.15534 0.0
C1351 C 0.51001 0.51339 0.15102 0.0
C1352 C 0.47506 0.49574 0.17382 0.0
C1353 C 0.49352 0.51625 0.18838 0.0
C1354 C 0.52025 0.53526 0.18401 0.0
C1355 C 0.52837 0.53386 0.16561 0.0
H1356 H 0.93247 0.4943 0.79928 0.0
H1357 H 0.99466 0.47543 0.78268 0.0
H1358 H 0.95318 0.50527 0.83281 0.0
H1359 H 0.0161 0.4873 0.81607 0.0
H1360 H 0.01856 0.46872 0.87917 0.0
H1361 H 0.00427 0.46592 0.84507 0.0
H1362 H 0.99111 0.53456 0.85649 0.0
H1363 H 0.00496 0.5369 0.89097 0.0
C1364 C 0.95102 0.49319 0.80277 0.0
C1365 C 0.96186 0.4838 0.78849 0.0
C1366 C 0.96296 0.49955 0.82197 0.0
C1367 C 0.98616 0.49688 0.82722 0.0
C1368 C 0.99787 0.48896 0.81264 0.0
C1369 C 0.98572 0.48229 0.79351 0.0
C1370 C 0.01309 0.48355 0.87437 0.0
C1371 C 0.013 0.50312 0.88773 0.0
C1372 C 0.00496 0.482 0.85477 0.0
C1373 C 0.99667 0.50012 0.84795 0.0
C1374 C 0.99707 0.52009 0.86127 0.0
C1375 C 0.00504 0.52149 0.88099 0.0
H1376 H 0.57076 0.52709 0.7894 0.0
H1377 H 0.55402 0.44693 0.80357 0.0
H1378 H 0.55936 0.53604 0.8215 0.0
H1379 H 0.54253 0.45575 0.83549 0.0
H1380 H 0.55054 0.49257 0.89753 0.0
H1381 H 0.56563 0.48689 0.86634 0.0
H1382 H 0.51558 0.51644 0.83862 0.0
H1383 H 0.49978 0.52145 0.86969 0.0
C1384 C 0.56491 0.51154 0.79946 0.0
C1385 C 0.56316 0.4863 0.79402 0.0
C1386 C 0.55819 0.51655 0.81772 0.0
C1387 C 0.55001 0.49656 0.83096 0.0
C1388 C 0.54896 0.47162 0.82566 0.0
C1389 C 0.55534 0.46649 0.80735 0.0
C1390 C 0.54249 0.49761 0.88479 0.0
C1391 C 0.52375 0.50729 0.88617 0.0
C1392 C 0.55128 0.49448 0.86693 0.0
C1393 C 0.54178 0.50122 0.85006 0.0
C1394 C 0.52353 0.51142 0.85143 0.0
C1395 C 0.51451 0.51431 0.86926 0.0
H1396 H 0.55313 0.05961 0.79666 0.0
H1397 H 0.5371 0.12333 0.81764 0.0
H1398 H 0.5406 0.03841 0.82693 0.0
H1399 H 0.52547 0.10287 0.8481 0.0
H1400 H 0.47508 0.04278 0.89032 0.0
H1401 H 0.48979 0.06468 0.86067 0.0
H1402 H 0.55295 0.04175 0.86063 0.0
H1403 H 0.53757 0.01916 0.89003 0.0
C1404 C 0.54738 0.06932 0.8079 0.0
C1405 C 0.54587 0.09298 0.80474 0.0
C1406 C 0.54023 0.05723 0.82529 0.0
C1407 C 0.53171 0.06871 0.84 0.0
C1408 C 0.53121 0.09297 0.83699 0.0
C1409 C 0.53804 0.10484 0.81956 0.0
C1410 C 0.49221 0.04257 0.88402 0.0
C1411 C 0.50514 0.02922 0.89252 0.0
C1412 C 0.50077 0.05524 0.86703 0.0
C1413 C 0.52271 0.05518 0.85818 0.0
C1414 C 0.53572 0.0419 0.86679 0.0
C1415 C 0.52697 0.02899 0.88369 0.0
H1416 H 0.10924 0.28693 0.58487 0.0
H1417 H 0.1177 0.21929 0.56129 0.0
H1418 H 0.12162 0.30839 0.55465 0.0
H1419 H 0.13036 0.24086 0.53116 0.0
H1420 H 0.12328 0.27464 0.47339 0.0
H1421 H 0.1092 0.25274 0.50316 0.0
H1422 H 0.16395 0.33031 0.53686 0.0
H1423 H 0.17868 0.35217 0.50716 0.0
C1424 C 0.11354 0.27656 0.57318 0.0
C1425 C 0.11252 0.25144 0.57547 0.0
C1426 C 0.12088 0.28896 0.55594 0.0
C1427 C 0.12704 0.27636 0.54053 0.0
C1428 C 0.12554 0.251 0.54271 0.0
C1429 C 0.11851 0.23875 0.56001 0.0
C1430 C 0.13262 0.28703 0.48711 0.0
C1431 C 0.15223 0.31524 0.48777 0.0
C1432 C 0.12444 0.27445 0.50419 0.0
C1433 C 0.13543 0.28979 0.52236 0.0
C1434 C 0.15481 0.318 0.52307 0.0
C1435 C 0.1632 0.33054 0.506 0.0
H1436 H 0.70451 0.87379 0.59558 0.0
H1437 H 0.75693 0.83996 0.58313 0.0
H1438 H 0.68819 0.86657 0.56125 0.0
H1439 H 0.73945 0.83127 0.54908 0.0
H1440 H 0.72516 0.84559 0.48704 0.0
H1441 H 0.7422 0.85521 0.52127 0.0
H1442 H 0.65973 0.8305 0.53621 0.0
H1443 H 0.64303 0.82243 0.50198 0.0
C1444 C 0.71249 0.86475 0.58553 0.0
C1445 C 0.73199 0.85741 0.59212 0.0
C1446 C 0.7029 0.86031 0.56589 0.0
C1447 C 0.7125 0.84833 0.5524 0.0
C1448 C 0.73188 0.84088 0.55902 0.0
C1449 C 0.74159 0.84547 0.57862 0.0
C1450 C 0.71074 0.84259 0.49762 0.0
C1451 C 0.68272 0.8332 0.49175 0.0
C1452 C 0.72043 0.84775 0.51726 0.0
C1453 C 0.70231 0.84349 0.53151 0.0
C1454 C 0.67432 0.83426 0.52563 0.0
C1455 C 0.66466 0.82926 0.50599 0.0
H1456 H 0.14053 0.91538 0.56416 0.0
H1457 H 0.12834 0.83655 0.57772 0.0
H1458 H 0.15189 0.90784 0.53199 0.0
H1459 H 0.14089 0.82927 0.54575 0.0
H1460 H 0.14375 0.81517 0.48083 0.0
H1461 H 0.12811 0.82066 0.51189 0.0
H1462 H 0.18833 0.90759 0.51726 0.0
H1463 H 0.20312 0.90208 0.48595 0.0
C1464 C 0.14036 0.89642 0.56019 0.0
C1465 C 0.13371 0.87659 0.57338 0.0
C1466 C 0.14708 0.89216 0.54182 0.0
C1467 C 0.14774 0.86811 0.53628 0.0
C1468 C 0.14035 0.84791 0.54938 0.0
C1469 C 0.13323 0.85206 0.56772 0.0
C1470 C 0.15361 0.83541 0.48872 0.0
C1471 C 0.1746 0.85822 0.48098 0.0
C1472 C 0.14473 0.83857 0.50656 0.0
C1473 C 0.15685 0.86458 0.51715 0.0
C1474 C 0.17802 0.88733 0.50938 0.0
C1475 C 0.18664 0.88421 0.49146 0.0
H1476 H 0.56583 0.76292 0.1294 0.0
H1477 H 0.63794 0.84024 0.12155 0.0
H1478 H 0.58023 0.76986 0.16405 0.0
H1479 H 0.65309 0.84692 0.15614 0.0
H1480 H 0.66389 0.86022 0.22171 0.0
H1481 H 0.64486 0.85561 0.18824 0.0
H1482 H 0.61479 0.76821 0.18447 0.0
H1483 H 0.63313 0.77286 0.21803 0.0
C1484 C 0.58477 0.78144 0.13518 0.0
C1485 C 0.60092 0.80097 0.12288 0.0
C1486 C 0.59313 0.78537 0.15498 0.0
C1487 C 0.61803 0.80876 0.16288 0.0
C1488 C 0.63366 0.82879 0.15061 0.0
C1489 C 0.62508 0.82499 0.1308 0.0
C1490 C 0.65314 0.84005 0.21367 0.0
C1491 C 0.65 0.81689 0.22241 0.0
C1492 C 0.6423 0.8374 0.1945 0.0
C1493 C 0.6283 0.81155 0.18361 0.0
C1494 C 0.62496 0.78836 0.1925 0.0
C1495 C 0.63556 0.79099 0.21171 0.0
H1496 H 0.1799 0.80278 0.11381 0.0
H1497 H 0.2661 0.83959 0.13574 0.0
H1498 H 0.16872 0.81052 0.14587 0.0
H1499 H 0.25514 0.84882 0.16774 0.0
H1500 H 0.22019 0.83158 0.22671 0.0
H1501 H 0.23273 0.82549 0.19465 0.0
H1502 H 0.17293 0.84498 0.16907 0.0
H1503 H 0.15922 0.84939 0.20093 0.0
C1504 C 0.19653 0.81263 0.12547 0.0
C1505 C 0.22389 0.82032 0.12217 0.0
C1506 C 0.19016 0.81744 0.14386 0.0
C1507 C 0.211 0.83033 0.15948 0.0
C1508 C 0.23848 0.83852 0.15613 0.0
C1509 C 0.24484 0.83356 0.1377 0.0
C1510 C 0.20947 0.83426 0.21424 0.0
C1511 C 0.18855 0.84084 0.21649 0.0
C1512 C 0.21698 0.83117 0.19583 0.0
C1513 C 0.20386 0.8347 0.17919 0.0
C1514 C 0.18324 0.8417 0.18149 0.0
C1515 C 0.17562 0.84461 0.19985 0.0
H1516 H 0.16255 0.37599 0.12428 0.0
H1517 H 0.24221 0.4383 0.15245 0.0
H1518 H 0.15085 0.3544 0.15434 0.0
H1519 H 0.2303 0.41733 0.18284 0.0
H1520 H 0.20875 0.36035 0.23115 0.0
H1521 H 0.22213 0.37938 0.20029 0.0
H1522 H 0.13846 0.36185 0.18484 0.0
H1523 H 0.1251 0.34223 0.21536 0.0
C1524 C 0.17753 0.3851 0.13697 0.0
C1525 C 0.20322 0.40889 0.13606 0.0
C1526 C 0.17079 0.37284 0.15427 0.0
C1527 C 0.18946 0.38424 0.17119 0.0
C1528 C 0.21548 0.40773 0.17011 0.0
C1529 C 0.22233 0.41983 0.15271 0.0
C1530 C 0.19327 0.36061 0.22112 0.0
C1531 C 0.16584 0.34967 0.22565 0.0
C1532 C 0.20094 0.3716 0.20344 0.0
C1533 C 0.1814 0.37213 0.18994 0.0
C1534 C 0.15398 0.36127 0.1946 0.0
C1535 C 0.14629 0.35007 0.21216 0.0
H1536 H 0.82368 0.60787 0.91608 0.0
H1537 H 0.73692 0.56927 0.89506 0.0
H1538 H 0.83604 0.62936 0.88603 0.0
H1539 H 0.74942 0.59144 0.86517 0.0
H1540 H 0.78452 0.66015 0.82353 0.0
H1541 H 0.77145 0.63865 0.85369 0.0
H1542 H 0.83347 0.61458 0.85107 0.0
H1543 H 0.84675 0.63633 0.82108 0.0
C1544 C 0.80721 0.60379 0.90503 0.0
C1545 C 0.77927 0.58663 0.90802 0.0
C1546 C 0.81433 0.6162 0.88781 0.0
C1547 C 0.79372 0.61203 0.87319 0.0
C1548 C 0.76577 0.59527 0.87625 0.0
C1549 C 0.75863 0.58263 0.89342 0.0
C1550 C 0.79544 0.65038 0.82946 0.0
C1551 C 0.8167 0.64997 0.81994 0.0
C1552 C 0.78779 0.63787 0.84663 0.0
C1553 C 0.80145 0.62495 0.85477 0.0
C1554 C 0.82272 0.62458 0.84525 0.0
C1555 C 0.83016 0.63682 0.82799 0.0
H1556 H 0.43274 0.18706 0.91318 0.0
H1557 H 0.37186 0.20897 0.92808 0.0
H1558 H 0.41517 0.17959 0.87916 0.0
H1559 H 0.35546 0.20318 0.89397 0.0
H1560 H 0.31051 0.15657 0.8353 0.0
H1561 H 0.32948 0.16674 0.86908 0.0
H1562 H 0.41221 0.20189 0.8516 0.0
H1563 H 0.39307 0.19019 0.81773 0.0
C1564 C 0.41569 0.19041 0.9092 0.0
C1565 C 0.40357 0.1984 0.92341 0.0
C1566 C 0.40588 0.18652 0.88964 0.0
C1567 C 0.38383 0.19071 0.8838 0.0
C1568 C 0.37219 0.19936 0.89797 0.0
C1569 C 0.38186 0.20305 0.91753 0.0
C1570 C 0.33274 0.16625 0.83864 0.0
C1571 C 0.35023 0.17237 0.82377 0.0
C1572 C 0.34367 0.17246 0.85804 0.0
C1573 C 0.3724 0.18515 0.8631 0.0
C1574 C 0.38996 0.19179 0.84823 0.0
C1575 C 0.379 0.18541 0.8288 0.0
H1576 H 0.79683 0.16346 0.91627 0.0
H1577 H 0.79902 0.23644 0.898 0.0
H1578 H 0.80511 0.15245 0.88353 0.0
H1579 H 0.8068 0.22529 0.86533 0.0
H1580 H 0.79601 0.18278 0.80489 0.0
H1581 H 0.78143 0.1867 0.83668 0.0
H1582 H 0.848 0.17828 0.86375 0.0
H1583 H 0.86352 0.1756 0.83215 0.0
C1584 C 0.79867 0.17685 0.90515 0.0
C1585 C 0.79741 0.2008 0.90955 0.0
C1586 C 0.8035 0.17065 0.88653 0.0
C1587 C 0.80653 0.18802 0.87196 0.0
C1588 C 0.80428 0.21144 0.87625 0.0
C1589 C 0.79999 0.21789 0.89491 0.0
C1590 C 0.80768 0.18189 0.81758 0.0
C1591 C 0.83121 0.17922 0.81588 0.0
C1592 C 0.79917 0.18393 0.83576 0.0
C1593 C 0.81365 0.18285 0.85262 0.0
C1594 C 0.83631 0.17888 0.85094 0.0
C1595 C 0.84512 0.17726 0.83279 0.0
H1596 H 0.3094 0.1764 0.45229 0.0
H1597 H 0.24323 0.09685 0.46349 0.0
H1598 H 0.32589 0.18698 0.48692 0.0
H1599 H 0.25973 0.10725 0.4979 0.0
H1600 H 0.28215 0.14495 0.56058 0.0
H1601 H 0.26488 0.13911 0.52653 0.0
H1602 H 0.34753 0.16843 0.51037 0.0
H1603 H 0.36478 0.17367 0.54431 0.0
C1604 C 0.2983 0.16132 0.46219 0.0
C1605 C 0.27521 0.13574 0.45525 0.0
C1606 C 0.30779 0.16728 0.48193 0.0
C1607 C 0.2941 0.14791 0.49507 0.0
C1608 C 0.27055 0.12266 0.48815 0.0
C1609 C 0.26128 0.11661 0.46844 0.0
C1610 C 0.29664 0.15001 0.54978 0.0
C1611 C 0.32484 0.15962 0.55522 0.0
C1612 C 0.28675 0.14679 0.5303 0.0
C1613 C 0.30487 0.15331 0.51582 0.0
C1614 C 0.33316 0.1636 0.52125 0.0
C1615 C 0.34302 0.16662 0.54071 0.0
H1616 H 0.88438 0.11045 0.4702 0.0
H1617 H 0.90328 0.19116 0.45578 0.0
H1618 H 0.87262 0.11974 0.50189 0.0
H1619 H 0.89168 0.20058 0.48765 0.0
H1620 H 0.83442 0.18953 0.53659 0.0
H1621 H 0.84842 0.18259 0.50521 0.0
H1622 H 0.89693 0.15105 0.5325 0.0
H1623 H 0.88365 0.15865 0.56397 0.0
C1624 C 0.886 0.13018 0.47383 0.0
C1625 C 0.89466 0.15006 0.46053 0.0
C1626 C 0.87948 0.13558 0.49202 0.0
C1627 C 0.88125 0.16089 0.49723 0.0
C1628 C 0.88996 0.18083 0.48395 0.0
C1629 C 0.89679 0.17553 0.46581 0.0
C1630 C 0.8484 0.1815 0.53599 0.0
C1631 C 0.8578 0.17457 0.55286 0.0
C1632 C 0.85637 0.17749 0.51798 0.0
C1633 C 0.87369 0.16622 0.51642 0.0
C1634 C 0.88325 0.15944 0.53325 0.0
C1635 C 0.87551 0.16368 0.55126 0.0
H1636 H 0.88264 0.72228 0.46372 0.0
H1637 H 0.86655 0.78609 0.48437 0.0
H1638 H 0.87011 0.70128 0.49405 0.0
H1639 H 0.85488 0.76581 0.5149 0.0
H1640 H 0.80543 0.70632 0.55778 0.0
H1641 H 0.81952 0.72775 0.52787 0.0
H1642 H 0.88308 0.70537 0.52769 0.0
H1643 H 0.86832 0.68325 0.55733 0.0
C1644 C 0.87683 0.73203 0.47489 0.0
C1645 C 0.87539 0.7557 0.47164 0.0
C1646 C 0.86969 0.72006 0.49231 0.0
C1647 C 0.86122 0.73167 0.50697 0.0
C1648 C 0.86061 0.75585 0.50384 0.0
C1649 C 0.86746 0.7676 0.48637 0.0
C1650 C 0.8225 0.70612 0.55138 0.0
C1651 C 0.83572 0.69306 0.5599 0.0
C1652 C 0.8307 0.71851 0.53425 0.0
C1653 C 0.85256 0.71844 0.52529 0.0
C1654 C 0.86588 0.70548 0.53393 0.0
C1655 C 0.85748 0.69285 0.55097 0.0
loop_
_geom_bond_atom_site_label_1
_geom_bond_atom_site_label_2
_geom_bond_distance
_geom_bond_site_symmetry_2
_ccdc_geom_bond_type
H0 C5 0.930 . S
H1 C8 0.930 . S
H2 C10 0.930 . S
H3 C4 1.016 . S
C4 H3 1.016 . S
C4 N11 1.286 . S
C5 H0 0.930 . S
C5 C6 1.397 . S
C5 C7 1.361 . S
C6 C5 1.397 . S
C6 C10 1.390 . S
C7 C5 1.361 . S
C7 C8 1.393 . S
C7 N11 1.413 . S
C8 H1 0.930 . S
C8 C7 1.393 . S
C8 C9 1.399 . S
C9 C8 1.399 . S
C9 C10 1.381 . S
C10 H2 0.930 . S
C10 C6 1.390 . S
C10 C9 1.381 . S
N11 C4 1.286 . S
N11 C7 1.413 . S
H12 C17 0.930 . S
H13 C20 0.930 . S
H14 C22 0.930 . S
H15 C16 1.016 . S
C16 H15 1.016 . S
C16 N23 1.286 . S
C17 H12 0.930 . S
C17 C18 1.397 . S
C17 C19 1.361 . S
C18 C17 1.397 . S
C18 C22 1.390 . S
C19 C17 1.361 . S
C19 C20 1.393 . S
C19 N23 1.413 . S
C20 H13 0.930 . S
C20 C19 1.393 . S
C20 C21 1.399 . S
C21 C20 1.399 . S
C21 C22 1.381 . S
C22 H14 0.930 . S
C22 C18 1.390 . S
C22 C21 1.381 . S
N23 C16 1.286 . S
N23 C19 1.413 . S
H24 C29 0.930 . S
H25 C32 0.930 . S
H26 C34 0.930 . S
H27 C28 1.016 . S
C28 H27 1.016 . S
C28 N35 1.286 . S
C29 H24 0.930 . S
C29 C30 1.397 . S
C29 C31 1.361 . S
C30 C29 1.397 . S
C30 C34 1.390 . S
C31 C29 1.361 . S
C31 C32 1.393 . S
C31 N35 1.413 . S
C32 H25 0.930 . S
C32 C31 1.393 . S
C32 C33 1.399 . S
C33 C32 1.399 . S
C33 C34 1.381 . S
C34 H26 0.930 . S
C34 C30 1.390 . S
C34 C33 1.381 . S
N35 C28 1.286 . S
N35 C31 1.413 . S
H36 C41 0.930 . S
H37 C44 0.930 . S
H38 C46 0.930 . S
H39 C40 1.016 . S
C40 H39 1.016 . S
C40 N47 1.286 . S
C41 H36 0.930 . S
C41 C42 1.397 . S
C41 C43 1.361 . S
C42 C41 1.397 . S
C42 C46 1.390 . S
C43 C41 1.361 . S
C43 C44 1.393 . S
C43 N47 1.413 . S
C44 H37 0.930 . S
C44 C43 1.393 . S
C44 C45 1.399 . S
C45 C44 1.399 . S
C45 C46 1.381 . S
C46 H38 0.930 . S
C46 C42 1.390 . S
C46 C45 1.381 . S
N47 C40 1.286 . S
N47 C43 1.413 . S
H48 C53 0.930 . S
H49 C56 0.930 . S
H50 C58 0.930 . S
H51 C52 1.016 . S
C52 H51 1.016 . S
C52 N59 1.286 . S
C53 H48 0.930 . S
C53 C54 1.397 . S
C53 C55 1.361 . S
C54 C53 1.397 . S
C54 C58 1.390 . S
C55 C53 1.361 . S
C55 C56 1.393 . S
C55 N59 1.413 . S
C56 H49 0.930 . S
C56 C55 1.393 . S
C56 C57 1.399 . S
C57 C56 1.399 . S
C57 C58 1.381 . S
C58 H50 0.930 . S
C58 C54 1.390 . S
C58 C57 1.381 . S
N59 C52 1.286 . S
N59 C55 1.413 . S
H60 C65 0.930 . S
H61 C68 0.930 . S
H62 C70 0.930 . S
H63 C64 1.016 . S
C64 H63 1.016 . S
C64 N71 1.286 . S
C65 H60 0.930 . S
C65 C66 1.397 . S
C65 C67 1.361 . S
C66 C65 1.397 . S
C66 C70 1.390 . S
C67 C65 1.361 . S
C67 C68 1.393 . S
C67 N71 1.413 . S
C68 H61 0.930 . S
C68 C67 1.393 . S
C68 C69 1.399 . S
C69 C68 1.399 . S
C69 C70 1.381 . S
C70 H62 0.930 . S
C70 C66 1.390 . S
C70 C69 1.381 . S
N71 C64 1.286 . S
N71 C67 1.413 . S
H72 C77 0.930 . S
H73 C80 0.930 . S
H74 C82 0.930 . S
H75 C76 1.016 . S
C76 H75 1.016 . S
C76 N83 1.286 . S
C77 H72 0.930 . S
C77 C78 1.397 . S
C77 C79 1.361 . S
C78 C77 1.397 . S
C78 C82 1.390 . S
C79 C77 1.361 . S
C79 C80 1.393 . S
C79 N83 1.413 . S
C80 H73 0.930 . S
C80 C79 1.393 . S
C80 C81 1.399 . S
C81 C80 1.399 . S
C81 C82 1.381 . S
C82 H74 0.930 . S
C82 C78 1.390 . S
C82 C81 1.381 . S
N83 C76 1.286 . S
N83 C79 1.413 . S
H84 C89 0.930 . S
H85 C92 0.930 . S
H86 C94 0.930 . S
H87 C88 1.016 . S
C88 H87 1.016 . S
C88 N95 1.286 . S
C89 H84 0.930 . S
C89 C90 1.397 . S
C89 C91 1.361 . S
C90 C89 1.397 . S
C90 C94 1.390 . S
C91 C89 1.361 . S
C91 C92 1.393 . S
C91 N95 1.413 . S
C92 H85 0.930 . S
C92 C91 1.393 . S
C92 C93 1.399 . S
C93 C92 1.399 . S
C93 C94 1.381 . S
C94 H86 0.930 . S
C94 C90 1.390 . S
C94 C93 1.381 . S
N95 C88 1.286 . S
N95 C91 1.413 . S
H96 C101 0.930 . S
H97 C104 0.930 . S
H98 C106 0.930 . S
H99 C100 1.016 . S
C100 H99 1.016 . S
C100 N107 1.286 . S
C101 H96 0.930 . S
C101 C102 1.397 . S
C101 C103 1.361 . S
C102 C101 1.397 . S
C102 C106 1.390 . S
C103 C101 1.361 . S
C103 C104 1.393 . S
C103 N107 1.413 . S
C104 H97 0.930 . S
C104 C103 1.393 . S
C104 C105 1.399 . S
C105 C104 1.399 . S
C105 C106 1.381 . S
C106 H98 0.930 . S
C106 C102 1.390 . S
C106 C105 1.381 . S
N107 C100 1.286 . S
N107 C103 1.413 . S
H108 C113 0.930 . S
H109 C116 0.930 . S
H110 C118 0.930 . S
H111 C112 1.016 . S
C112 H111 1.016 . S
C112 N119 1.286 . S
C113 H108 0.930 . S
C113 C114 1.397 . S
C113 C115 1.361 . S
C114 C113 1.397 . S
C114 C118 1.390 . S
C115 C113 1.361 . S
C115 C116 1.393 . S
C115 N119 1.413 . S
C116 H109 0.930 . S
C116 C115 1.393 . S
C116 C117 1.399 . S
C117 C116 1.399 . S
C117 C118 1.381 . S
C118 H110 0.930 . S
C118 C114 1.390 . S
C118 C117 1.381 . S
N119 C112 1.286 . S
N119 C115 1.413 . S
H120 C125 0.930 . S
H121 C128 0.930 . S
H122 C130 0.930 . S
H123 C124 1.016 . S
C124 H123 1.016 . S
C124 N131 1.286 . S
C125 H120 0.930 . S
C125 C126 1.397 . S
C125 C127 1.361 . S
C126 C125 1.397 . S
C126 C130 1.390 . S
C127 C125 1.361 . S
C127 C128 1.393 . S
C127 N131 1.413 . S
C128 H121 0.930 . S
C128 C127 1.393 . S
C128 C129 1.399 . S
C129 C128 1.399 . S
C129 C130 1.381 . S
C130 H122 0.930 . S
C130 C126 1.390 . S
C130 C129 1.381 . S
N131 C124 1.286 . S
N131 C127 1.413 . S
H132 C137 0.930 . S
H133 C140 0.930 . S
H134 C142 0.930 . S
H135 C136 1.016 . S
C136 H135 1.016 . S
C136 N143 1.286 . S
C137 H132 0.930 . S
C137 C138 1.397 . S
C137 C139 1.361 . S
C138 C137 1.397 . S
C138 C142 1.390 . S
C139 C137 1.361 . S
C139 C140 1.393 . S
C139 N143 1.413 . S
C140 H133 0.930 . S
C140 C139 1.393 . S
C140 C141 1.399 . S
C141 C140 1.399 . S
C141 C142 1.381 . S
C142 H134 0.930 . S
C142 C138 1.390 . S
C142 C141 1.381 . S
N143 C136 1.286 . S
N143 C139 1.413 . S
H144 C149 0.930 . S
H145 C152 0.930 . S
H146 C154 0.930 . S
H147 C148 1.016 . S
C148 H147 1.016 . S
C148 N155 1.286 . S
C149 H144 0.930 . S
C149 C150 1.397 . S
C149 C151 1.361 . S
C150 C149 1.397 . S
C150 C154 1.390 . S
C151 C149 1.361 . S
C151 C152 1.393 . S
C151 N155 1.413 . S
C152 H145 0.930 . S
C152 C151 1.393 . S
C152 C153 1.399 . S
C153 C152 1.399 . S
C153 C154 1.381 . S
C154 H146 0.930 . S
C154 C150 1.390 . S
C154 C153 1.381 . S
N155 C148 1.286 . S
N155 C151 1.413 . S
H156 C161 0.930 . S
H157 C164 0.930 . S
H158 C166 0.930 . S
H159 C160 1.016 . S
C160 H159 1.016 . S
C160 N167 1.286 . S
C161 H156 0.930 . S
C161 C162 1.397 . S
C161 C163 1.361 . S
C162 C161 1.397 . S
C162 C166 1.390 . S
C163 C161 1.361 . S
C163 C164 1.393 . S
C163 N167 1.413 . S
C164 H157 0.930 . S
C164 C163 1.393 . S
C164 C165 1.399 . S
C165 C164 1.399 . S
C165 C166 1.381 . S
C166 H158 0.930 . S
C166 C162 1.390 . S
C166 C165 1.381 . S
N167 C160 1.286 . S
N167 C163 1.413 . S
H168 C173 0.930 . S
H169 C176 0.930 . S
H170 C178 0.930 . S
H171 C172 1.016 . S
C172 H171 1.016 . S
C172 N179 1.286 . S
C173 H168 0.930 . S
C173 C174 1.397 . S
C173 C175 1.361 . S
C174 C173 1.397 . S
C174 C178 1.390 . S
C175 C173 1.361 . S
C175 C176 1.393 . S
C175 N179 1.413 . S
C176 H169 0.930 . S
C176 C175 1.393 . S
C176 C177 1.399 . S
C177 C176 1.399 . S
C177 C178 1.381 . S
C178 H170 0.930 . S
C178 C174 1.390 . S
C178 C177 1.381 . S
N179 C172 1.286 . S
N179 C175 1.413 . S
H180 C185 0.930 . S
H181 C188 0.930 . S
H182 C190 0.930 . S
H183 C184 1.016 . S
C184 H183 1.016 . S
C184 N191 1.286 . S
C185 H180 0.930 . S
C185 C186 1.397 . S
C185 C187 1.361 . S
C186 C185 1.397 . S
C186 C190 1.390 . S
C187 C185 1.361 . S
C187 C188 1.393 . S
C187 N191 1.413 . S
C188 H181 0.930 . S
C188 C187 1.393 . S
C188 C189 1.399 . S
C189 C188 1.399 . S
C189 C190 1.381 . S
C190 H182 0.930 . S
C190 C186 1.390 . S
C190 C189 1.381 . S
N191 C184 1.286 . S
N191 C187 1.413 . S
H192 C197 0.930 . S
H193 C200 0.930 . S
H194 C202 0.930 . S
H195 C196 1.016 . S
C196 H195 1.016 . S
C196 N203 1.286 . S
C197 H192 0.930 . S
C197 C198 1.397 . S
C197 C199 1.361 . S
C198 C197 1.397 . S
C198 C202 1.390 . S
C199 C197 1.361 . S
C199 C200 1.393 . S
C199 N203 1.413 . S
C200 H193 0.930 . S
C200 C199 1.393 . S
C200 C201 1.399 . S
C201 C200 1.399 . S
C201 C202 1.381 . S
C202 H194 0.930 . S
C202 C198 1.390 . S
C202 C201 1.381 . S
N203 C196 1.286 . S
N203 C199 1.413 . S
H204 C209 0.930 . S
H205 C212 0.930 . S
H206 C214 0.930 . S
H207 C208 1.016 . S
C208 H207 1.016 . S
C208 N215 1.286 . S
C209 H204 0.930 . S
C209 C210 1.397 . S
C209 C211 1.361 . S
C210 C209 1.397 . S
C210 C214 1.390 . S
C211 C209 1.361 . S
C211 C212 1.393 . S
C211 N215 1.413 . S
C212 H205 0.930 . S
C212 C211 1.393 . S
C212 C213 1.399 . S
C213 C212 1.399 . S
C213 C214 1.381 . S
C214 H206 0.930 . S
C214 C210 1.390 . S
C214 C213 1.381 . S
N215 C208 1.286 . S
N215 C211 1.413 . S
Tb216 C226 2.825 1_565 S
Tb216 O227 2.347 1_565 S
Tb216 O230 2.366 1_565 S
Tb216 O235 2.418 . S
Tb216 O236 2.384 . S
Tb216 O239 2.479 . S
Tb216 O240 2.471 1_565 S
Eu217 O228 2.418 . S
Eu217 O229 2.384 . S
Eu217 O232 2.479 . S
Eu217 O233 2.471 1_545 S
Eu217 O234 2.347 1_545 S
Eu217 O237 2.366 1_545 S
Eu217 C247 2.825 . S
C218 O234 1.259 . S
C218 O235 1.265 1_554 S
C219 O236 1.255 1_554 S
C219 O237 1.265 . S
C220 C222 1.380 1_545 S
C220 C223 1.374 . S
C220 C226 1.507 . S
C221 C222 1.384 1_545 S
C221 C225 1.387 . S
C221 H248 0.930 1_545 S
C222 C220 1.380 1_565 S
C222 C221 1.384 1_565 S
C222 H249 0.931 . S
C223 C220 1.374 . S
C223 C224 1.390 . S
C223 H250 0.930 . S
C224 C223 1.390 . S
C224 C225 1.391 . S
C224 H251 0.930 . S
C225 C221 1.387 . S
C225 C224 1.391 . S
C226 Tb216 2.825 1_545 S
C226 C220 1.507 . S
C226 O239 1.238 1_545 S
C226 O240 1.247 . S
O227 Tb216 2.347 1_545 S
O227 C231 1.259 1_556 S
O228 Eu217 2.418 . S
O228 C231 1.265 . S
O229 Eu217 2.384 . S
O229 C238 1.255 1_554 S
O230 Tb216 2.366 1_545 S
O230 C238 1.265 . S
C231 O227 1.259 1_554 S
C231 O228 1.265 . S
O232 Eu217 2.479 . S
O232 C247 1.238 . S
O233 Eu217 2.471 1_565 S
O233 C247 1.247 1_565 S
O234 Eu217 2.347 1_565 S
O234 C218 1.259 . S
O235 Tb216 2.418 . S
O235 C218 1.265 1_556 S
O236 Tb216 2.384 . S
O236 C219 1.255 1_556 S
O237 Eu217 2.366 1_565 S
O237 C219 1.265 . S
C238 O229 1.255 1_556 S
C238 O230 1.265 . S
O239 Tb216 2.479 . S
O239 C226 1.238 1_565 S
O240 Tb216 2.471 1_545 S
O240 C226 1.247 . S
C241 C244 1.380 1_565 S
C241 C245 1.374 . S
C241 C247 1.507 1_565 S
C242 C243 1.387 1_565 S
C242 C246 1.391 . S
C243 C242 1.387 1_545 S
C243 C244 1.384 . S
C243 H252 0.930 . S
C244 C241 1.380 1_545 S
C244 C243 1.384 . S
C244 H253 0.931 . S
C245 C241 1.374 . S
C245 C246 1.390 . S
C245 H254 0.930 . S
C246 C242 1.391 . S
C246 C245 1.390 . S
C246 H255 0.930 . S
C247 Eu217 2.825 . S
C247 O232 1.238 . S
C247 O233 1.247 1_545 S
C247 C241 1.507 1_545 S
H248 C221 0.930 1_565 S
H249 C222 0.931 . S
H250 C223 0.930 . S
H251 C224 0.930 . S
H252 C243 0.930 . S
H253 C244 0.931 . S
H254 C245 0.930 . S
H255 C246 0.930 . S
Tb256 C266 2.828 . S
Tb256 O267 2.347 1_455 S
Tb256 O270 2.366 1_455 S
Tb256 O275 2.418 . S
Tb256 O276 2.384 1_556 S
Tb256 O279 2.479 . S
Tb256 O280 2.471 1_455 S
Eu257 O268 2.418 . S
Eu257 O269 2.384 . S
Eu257 O272 2.479 . S
Eu257 O273 2.471 1_655 S
Eu257 O274 2.347 1_655 S
Eu257 O277 2.366 1_655 S
Eu257 C287 2.825 1_655 S
C258 O274 1.259 . S
C258 O275 1.265 1_554 S
C259 O276 1.255 . S
C259 O277 1.265 . S
C260 C262 1.380 1_655 S
C260 C263 1.374 . S
C260 C266 1.504 1_655 S
C261 C262 1.384 1_655 S
C261 C265 1.387 . S
C261 H288 0.930 1_655 S
C262 C260 1.380 1_455 S
C262 C261 1.384 1_455 S
C262 H289 0.931 . S
C263 C260 1.374 . S
C263 C264 1.390 . S
C263 H290 0.930 . S
C264 C263 1.390 . S
C264 C265 1.391 . S
C264 H291 0.930 . S
C265 C261 1.387 . S
C265 C264 1.391 . S
C266 Tb256 2.828 . S
C266 C260 1.504 1_455 S
C266 O279 1.241 . S
C266 O280 1.247 1_455 S
O267 Tb256 2.347 1_655 S
O267 C271 1.259 1_556 S
O268 Eu257 2.418 . S
O268 C271 1.265 . S
O269 Eu257 2.384 . S
O269 C278 1.255 1_554 S
O270 Tb256 2.366 1_655 S
O270 C278 1.265 . S
C271 O267 1.259 1_554 S
C271 O268 1.265 . S
O272 Eu257 2.479 . S
O272 C287 1.238 1_655 S
O273 Eu257 2.471 1_455 S
O273 C287 1.247 . S
O274 Eu257 2.347 1_455 S
O274 C258 1.259 . S
O275 Tb256 2.418 . S
O275 C258 1.265 1_556 S
O276 Tb256 2.384 1_554 S
O276 C259 1.255 . S
O277 Eu257 2.366 1_455 S
O277 C259 1.265 . S
C278 O269 1.255 1_556 S
C278 O270 1.265 . S
O279 Tb256 2.479 . S
O279 C266 1.241 . S
O280 Tb256 2.471 1_655 S
O280 C266 1.247 1_655 S
C281 C284 1.381 . S
C281 C285 1.374 . S
C281 C287 1.507 . S
C282 C283 1.387 . S
C282 C286 1.391 . S
C283 C282 1.387 . S
C283 C284 1.386 . S
C283 H292 0.924 1_455 S
C284 C281 1.381 . S
C284 C283 1.386 . S
C284 H293 0.928 1_455 S
C285 C281 1.374 . S
C285 C286 1.390 . S
C285 H294 0.930 . S
C286 C282 1.391 . S
C286 C285 1.390 . S
C286 H295 0.930 . S
C287 Eu257 2.825 1_455 S
C287 O272 1.238 1_455 S
C287 O273 1.247 . S
C287 C281 1.507 . S
H288 C261 0.930 1_455 S
H289 C262 0.931 . S
H290 C263 0.930 . S
H291 C264 0.930 . S
H292 C283 0.924 1_655 S
H293 C284 0.928 1_655 S
H294 C285 0.930 . S
H295 C286 0.930 . S
Tb296 C306 2.825 . S
Tb296 O307 2.347 . S
Tb296 O310 2.366 . S
Tb296 O315 2.418 . S
Tb296 O316 2.384 . S
Tb296 O319 2.479 . S
Tb296 O320 2.471 . S
Eu297 O308 2.418 . S
Eu297 O309 2.384 1_556 S
Eu297 O312 2.479 . S
Eu297 O313 2.471 . S
Eu297 O314 2.331 1_556 S
Eu297 O317 2.366 . S
Eu297 C327 2.825 . S
C298 O314 1.274 . S
C298 O315 1.265 . S
C299 O316 1.255 1_556 S
C299 O317 1.265 . S
C300 C302 1.380 . S
C300 C303 1.374 . S
C300 C306 1.507 . S
C301 C302 1.384 . S
C301 C305 1.387 . S
C301 H328 0.930 . S
C302 C300 1.380 . S
C302 C301 1.384 . S
C302 H329 0.931 . S
C303 C300 1.374 . S
C303 C304 1.390 . S
C303 H330 0.930 . S
C304 C303 1.390 . S
C304 C305 1.391 . S
C304 H331 0.930 . S
C305 C301 1.387 . S
C305 C304 1.391 . S
C306 Tb296 2.825 . S
C306 C300 1.507 . S
C306 O319 1.238 . S
C306 O320 1.247 . S
O307 Tb296 2.347 . S
O307 C311 1.259 . S
O308 Eu297 2.418 . S
O308 C311 1.265 1_556 S
O309 Eu297 2.384 1_554 S
O309 C318 1.255 . S
O310 Tb296 2.366 . S
O310 C318 1.265 . S
C311 O307 1.259 . S
C311 O308 1.265 1_554 S
O312 Eu297 2.479 . S
O312 C327 1.238 . S
O313 Eu297 2.471 . S
O313 C327 1.247 . S
O314 Eu297 2.331 1_554 S
O314 C298 1.274 . S
O315 Tb296 2.418 . S
O315 C298 1.265 . S
O316 Tb296 2.384 . S
O316 C299 1.255 1_554 S
O317 Eu297 2.366 . S
O317 C299 1.265 . S
C318 O309 1.255 . S
C318 O310 1.265 . S
O319 Tb296 2.479 . S
O319 C306 1.238 . S
O320 Tb296 2.471 . S
O320 C306 1.247 . S
C321 C324 1.380 . S
C321 C325 1.374 . S
C321 C327 1.507 . S
C322 C323 1.387 . S
C322 C326 1.391 . S
C323 C322 1.387 . S
C323 C324 1.384 . S
C323 H332 0.930 . S
C324 C321 1.380 . S
C324 C323 1.384 . S
C324 H333 0.931 . S
C325 C321 1.374 . S
C325 C326 1.390 . S
C325 H334 0.930 . S
C326 C322 1.391 . S
C326 C325 1.390 . S
C326 H335 0.930 . S
C327 Eu297 2.825 . S
C327 O312 1.238 . S
C327 O313 1.247 . S
C327 C321 1.507 . S
H328 C301 0.930 . S
H329 C302 0.931 . S
H330 C303 0.930 . S
H331 C304 0.930 . S
H332 C323 0.930 . S
H333 C324 0.931 . S
H334 C325 0.930 . S
H335 C326 0.930 . S
Tb336 C346 2.825 . S
Tb336 O347 2.347 . S
Tb336 O350 2.366 . S
Tb336 O355 2.418 . S
Tb336 O356 2.384 . S
Tb336 O359 2.479 . S
Tb336 O360 2.471 . S
Eu337 O348 2.418 . S
Eu337 O349 2.384 . S
Eu337 O352 2.479 . S
Eu337 O353 2.471 . S
Eu337 O354 2.347 . S
Eu337 O357 2.366 . S
Eu337 C367 2.825 . S
C338 O354 1.259 . S
C338 O355 1.265 . S
C339 O356 1.255 . S
C339 O357 1.265 . S
C340 C342 1.380 . S
C340 C343 1.374 . S
C340 C346 1.507 . S
C341 C342 1.384 . S
C341 C345 1.387 . S
C341 H368 0.930 . S
C342 C340 1.380 . S
C342 C341 1.384 . S
C342 H369 0.931 . S
C343 C340 1.374 . S
C343 C344 1.390 . S
C343 H370 0.930 . S
C344 C343 1.390 . S
C344 C345 1.391 . S
C344 H371 0.930 . S
C345 C341 1.387 . S
C345 C344 1.391 . S
C346 Tb336 2.825 . S
C346 C340 1.507 . S
C346 O359 1.238 . S
C346 O360 1.247 . S
O347 Tb336 2.347 . S
O347 C351 1.259 . S
O348 Eu337 2.418 . S
O348 C351 1.265 . S
O349 Eu337 2.384 . S
O349 C358 1.255 . S
O350 Tb336 2.366 . S
O350 C358 1.265 . S
C351 O347 1.259 . S
C351 O348 1.265 . S
O352 Eu337 2.479 . S
O352 C367 1.238 . S
O353 Eu337 2.471 . S
O353 C367 1.247 . S
O354 Eu337 2.347 . S
O354 C338 1.259 . S
O355 Tb336 2.418 . S
O355 C338 1.265 . S
O356 Tb336 2.384 . S
O356 C339 1.255 . S
O357 Eu337 2.366 . S
O357 C339 1.265 . S
C358 O349 1.255 . S
C358 O350 1.265 . S
O359 Tb336 2.479 . S
O359 C346 1.238 . S
O360 Tb336 2.471 . S
O360 C346 1.247 . S
C361 C364 1.380 . S
C361 C365 1.374 . S
C361 C367 1.507 . S
C362 C363 1.387 . S
C362 C366 1.391 . S
C363 C362 1.387 . S
C363 C364 1.384 . S
C363 H372 0.930 . S
C364 C361 1.380 . S
C364 C363 1.384 . S
C364 H373 0.931 . S
C365 C361 1.374 . S
C365 C366 1.390 . S
C365 H374 0.930 . S
C366 C362 1.391 . S
C366 C365 1.390 . S
C366 H375 0.930 . S
C367 Eu337 2.825 . S
C367 O352 1.238 . S
C367 O353 1.247 . S
C367 C361 1.507 . S
H368 C341 0.930 . S
H369 C342 0.931 . S
H370 C343 0.930 . S
H371 C344 0.930 . S
H372 C363 0.930 . S
H373 C364 0.931 . S
H374 C365 0.930 . S
H375 C366 0.930 . S
Tb376 C386 2.825 . S
Tb376 O387 2.347 . S
Tb376 O390 2.366 . S
Tb376 O395 2.418 . S
Tb376 O396 2.384 . S
Tb376 O399 2.479 . S
Tb376 O400 2.471 . S
Eu377 O388 2.418 . S
Eu377 O389 2.384 . S
Eu377 O392 2.479 . S
Eu377 O393 2.471 . S
Eu377 O394 2.347 . S
Eu377 O397 2.366 . S
Eu377 C407 2.825 . S
C378 O394 1.259 . S
C378 O395 1.265 . S
C379 O396 1.255 . S
C379 O397 1.265 . S
C380 C382 1.380 . S
C380 C383 1.374 . S
C380 C386 1.507 . S
C381 C382 1.384 . S
C381 C385 1.387 . S
C381 H408 0.930 . S
C382 C380 1.380 . S
C382 C381 1.384 . S
C382 H409 0.931 . S
C383 C380 1.374 . S
C383 C384 1.390 . S
C383 H410 0.930 . S
C384 C383 1.390 . S
C384 C385 1.391 . S
C384 H411 0.930 . S
C385 C381 1.387 . S
C385 C384 1.391 . S
C386 Tb376 2.825 . S
C386 C380 1.507 . S
C386 O399 1.238 . S
C386 O400 1.247 . S
O387 Tb376 2.347 . S
O387 C391 1.259 . S
O388 Eu377 2.418 . S
O388 C391 1.265 . S
O389 Eu377 2.384 . S
O389 C398 1.255 . S
O390 Tb376 2.366 . S
O390 C398 1.265 . S
C391 O387 1.259 . S
C391 O388 1.265 . S
O392 Eu377 2.479 . S
O392 C407 1.238 . S
O393 Eu377 2.471 . S
O393 C407 1.247 . S
O394 Eu377 2.347 . S
O394 C378 1.259 . S
O395 Tb376 2.418 . S
O395 C378 1.265 . S
O396 Tb376 2.384 . S
O396 C379 1.255 . S
O397 Eu377 2.366 . S
O397 C379 1.265 . S
C398 O389 1.255 . S
C398 O390 1.265 . S
O399 Tb376 2.479 . S
O399 C386 1.238 . S
O400 Tb376 2.471 . S
O400 C386 1.247 . S
C401 C404 1.380 . S
C401 C405 1.374 . S
C401 C407 1.507 . S
C402 C403 1.387 . S
C402 C406 1.391 . S
C403 C402 1.387 . S
C403 C404 1.384 . S
C403 H412 0.930 . S
C404 C401 1.380 . S
C404 C403 1.384 . S
C404 H413 0.931 . S
C405 C401 1.374 . S
C405 C406 1.390 . S
C405 H414 0.930 . S
C406 C402 1.391 . S
C406 C405 1.390 . S
C406 H415 0.930 . S
C407 Eu377 2.825 . S
C407 O392 1.238 . S
C407 O393 1.247 . S
C407 C401 1.507 . S
H408 C381 0.930 . S
H409 C382 0.931 . S
H410 C383 0.930 . S
H411 C384 0.930 . S
H412 C403 0.930 . S
H413 C404 0.931 . S
H414 C405 0.930 . S
H415 C406 0.930 . S
Tb416 C426 2.825 . S
Tb416 O427 2.347 . S
Tb416 O430 2.366 . S
Tb416 O435 2.418 . S
Tb416 O436 2.384 . S
Tb416 O439 2.479 . S
Tb416 O440 2.471 . S
Eu417 O428 2.418 . S
Eu417 O429 2.384 . S
Eu417 O432 2.479 . S
Eu417 O433 2.471 . S
Eu417 O434 2.347 . S
Eu417 O437 2.366 . S
Eu417 C447 2.825 . S
C418 O434 1.259 . S
C418 O435 1.265 . S
C419 O436 1.255 . S
C419 O437 1.265 . S
C420 C422 1.380 . S
C420 C423 1.374 . S
C420 C426 1.507 . S
C421 C422 1.384 . S
C421 C425 1.387 . S
C421 H448 0.930 . S
C422 C420 1.380 . S
C422 C421 1.384 . S
C422 H449 0.931 . S
C423 C420 1.374 . S
C423 C424 1.390 . S
C423 H450 0.930 . S
C424 C423 1.390 . S
C424 C425 1.391 . S
C424 H451 0.930 . S
C425 C421 1.387 . S
C425 C424 1.391 . S
C426 Tb416 2.825 . S
C426 C420 1.507 . S
C426 O439 1.238 . S
C426 O440 1.247 . S
O427 Tb416 2.347 . S
O427 C431 1.259 . S
O428 Eu417 2.418 . S
O428 C431 1.265 . S
O429 Eu417 2.384 . S
O429 C438 1.255 . S
O430 Tb416 2.366 . S
O430 C438 1.265 . S
C431 O427 1.259 . S
C431 O428 1.265 . S
O432 Eu417 2.479 . S
O432 C447 1.238 . S
O433 Eu417 2.471 . S
O433 C447 1.247 . S
O434 Eu417 2.347 . S
O434 C418 1.259 . S
O435 Tb416 2.418 . S
O435 C418 1.265 . S
O436 Tb416 2.384 . S
O436 C419 1.255 . S
O437 Eu417 2.366 . S
O437 C419 1.265 . S
C438 O429 1.255 . S
C438 O430 1.265 . S
O439 Tb416 2.479 . S
O439 C426 1.238 . S
O440 Tb416 2.471 . S
O440 C426 1.247 . S
C441 C444 1.380 . S
C441 C445 1.374 . S
C441 C447 1.507 . S
C442 C443 1.387 . S
C442 C446 1.391 . S
C443 C442 1.387 . S
C443 C444 1.384 . S
C443 H452 0.930 . S
C444 C441 1.380 . S
C444 C443 1.384 . S
C444 H453 0.931 . S
C445 C441 1.374 . S
C445 C446 1.390 . S
C445 H454 0.930 . S
C446 C442 1.391 . S
C446 C445 1.390 . S
C446 H455 0.930 . S
C447 Eu417 2.825 . S
C447 O432 1.238 . S
C447 O433 1.247 . S
C447 C441 1.507 . S
H448 C421 0.930 . S
H449 C422 0.931 . S
H450 C423 0.930 . S
H451 C424 0.930 . S
H452 C443 0.930 . S
H453 C444 0.931 . S
H454 C445 0.930 . S
H455 C446 0.930 . S
Tb456 C466 2.825 . S
Tb456 O467 2.347 . S
Tb456 O470 2.366 . S
Tb456 O475 2.418 . S
Tb456 O476 2.384 . S
Tb456 O479 2.479 . S
Tb456 O480 2.471 . S
Eu457 O468 2.418 . S
Eu457 O469 2.384 . S
Eu457 O472 2.479 . S
Eu457 O473 2.471 . S
Eu457 O474 2.347 . S
Eu457 O477 2.366 . S
Eu457 C487 2.825 . S
C458 O474 1.259 . S
C458 O475 1.265 . S
C459 O476 1.255 . S
C459 O477 1.265 . S
C460 C462 1.380 . S
C460 C463 1.374 . S
C460 C466 1.507 . S
C461 C462 1.384 . S
C461 C465 1.387 . S
C461 H488 0.930 . S
C462 C460 1.380 . S
C462 C461 1.384 . S
C462 H489 0.931 . S
C463 C460 1.374 . S
C463 C464 1.390 . S
C463 H490 0.930 . S
C464 C463 1.390 . S
C464 C465 1.391 . S
C464 H491 0.930 . S
C465 C461 1.387 . S
C465 C464 1.391 . S
C466 Tb456 2.825 . S
C466 C460 1.507 . S
C466 O479 1.238 . S
C466 O480 1.247 . S
O467 Tb456 2.347 . S
O467 C471 1.259 . S
O468 Eu457 2.418 . S
O468 C471 1.265 . S
O469 Eu457 2.384 . S
O469 C478 1.255 . S
O470 Tb456 2.366 . S
O470 C478 1.265 . S
C471 O467 1.259 . S
C471 O468 1.265 . S
O472 Eu457 2.479 . S
O472 C487 1.238 . S
O473 Eu457 2.471 . S
O473 C487 1.247 . S
O474 Eu457 2.347 . S
O474 C458 1.259 . S
O475 Tb456 2.418 . S
O475 C458 1.265 . S
O476 Tb456 2.384 . S
O476 C459 1.255 . S
O477 Eu457 2.366 . S
O477 C459 1.265 . S
C478 O469 1.255 . S
C478 O470 1.265 . S
O479 Tb456 2.479 . S
O479 C466 1.238 . S
O480 Tb456 2.471 . S
O480 C466 1.247 . S
C481 C484 1.380 . S
C481 C485 1.374 . S
C481 C487 1.507 . S
C482 C483 1.387 . S
C482 C486 1.391 . S
C483 C482 1.387 . S
C483 C484 1.384 . S
C483 H492 0.930 . S
C484 C481 1.380 . S
C484 C483 1.384 . S
C484 H493 0.931 . S
C485 C481 1.374 . S
C485 C486 1.390 . S
C485 H494 0.930 . S
C486 C482 1.391 . S
C486 C485 1.390 . S
C486 H495 0.930 . S
C487 Eu457 2.825 . S
C487 O472 1.238 . S
C487 O473 1.247 . S
C487 C481 1.507 . S
H488 C461 0.930 . S
H489 C462 0.931 . S
H490 C463 0.930 . S
H491 C464 0.930 . S
H492 C483 0.930 . S
H493 C484 0.931 . S
H494 C485 0.930 . S
H495 C486 0.930 . S
Tb496 C506 2.825 . S
Tb496 O507 2.347 . S
Tb496 O510 2.366 . S
Tb496 O515 2.418 . S
Tb496 O516 2.384 . S
Tb496 O519 2.479 . S
Tb496 O520 2.471 . S
Eu497 O508 2.418 . S
Eu497 O509 2.384 . S
Eu497 O512 2.479 . S
Eu497 O513 2.471 . S
Eu497 O514 2.347 . S
Eu497 O517 2.366 . S
Eu497 C527 2.825 . S
C498 O514 1.259 . S
C498 O515 1.265 . S
C499 O516 1.255 . S
C499 O517 1.265 . S
C500 C502 1.380 . S
C500 C503 1.374 . S
C500 C506 1.507 . S
C501 C502 1.384 . S
C501 C505 1.387 . S
C501 H528 0.930 . S
C502 C500 1.380 . S
C502 C501 1.384 . S
C502 H529 0.931 . S
C503 C500 1.374 . S
C503 C504 1.390 . S
C503 H530 0.930 . S
C504 C503 1.390 . S
C504 C505 1.391 . S
C504 H531 0.930 . S
C505 C501 1.387 . S
C505 C504 1.391 . S
C506 Tb496 2.825 . S
C506 C500 1.507 . S
C506 O519 1.238 . S
C506 O520 1.247 . S
O507 Tb496 2.347 . S
O507 C511 1.259 . S
O508 Eu497 2.418 . S
O508 C511 1.265 . S
O509 Eu497 2.384 . S
O509 C518 1.255 . S
O510 Tb496 2.366 . S
O510 C518 1.265 . S
C511 O507 1.259 . S
C511 O508 1.265 . S
O512 Eu497 2.479 . S
O512 C527 1.238 . S
O513 Eu497 2.471 . S
O513 C527 1.247 . S
O514 Eu497 2.347 . S
O514 C498 1.259 . S
O515 Tb496 2.418 . S
O515 C498 1.265 . S
O516 Tb496 2.384 . S
O516 C499 1.255 . S
O517 Eu497 2.366 . S
O517 C499 1.265 . S
C518 O509 1.255 . S
C518 O510 1.265 . S
O519 Tb496 2.479 . S
O519 C506 1.238 . S
O520 Tb496 2.471 . S
O520 C506 1.247 . S
C521 C524 1.380 . S
C521 C525 1.374 . S
C521 C527 1.507 . S
C522 C523 1.387 . S
C522 C526 1.391 . S
C523 C522 1.387 . S
C523 C524 1.384 . S
C523 H532 0.930 . S
C524 C521 1.380 . S
C524 C523 1.384 . S
C524 H533 0.931 . S
C525 C521 1.374 . S
C525 C526 1.390 . S
C525 H534 0.930 . S
C526 C522 1.391 . S
C526 C525 1.390 . S
C526 H535 0.930 . S
C527 Eu497 2.825 . S
C527 O512 1.238 . S
C527 O513 1.247 . S
C527 C521 1.507 . S
H528 C501 0.930 . S
H529 C502 0.931 . S
H530 C503 0.930 . S
H531 C504 0.930 . S
H532 C523 0.930 . S
H533 C524 0.931 . S
H534 C525 0.930 . S
H535 C526 0.930 . S
Tb536 C546 2.825 . S
Tb536 O547 2.347 . S
Tb536 O550 2.366 . S
Tb536 O555 2.418 . S
Tb536 O556 2.384 . S
Tb536 O559 2.479 . S
Tb536 O560 2.471 . S
Eu537 O548 2.418 . S
Eu537 O549 2.384 . S
Eu537 O552 2.479 . S
Eu537 O553 2.471 . S
Eu537 O554 2.347 . S
Eu537 O557 2.366 . S
Eu537 C567 2.825 . S
C538 O554 1.259 . S
C538 O555 1.265 . S
C539 O556 1.255 . S
C539 O557 1.265 . S
C540 C542 1.380 . S
C540 C543 1.374 . S
C540 C546 1.507 . S
C541 C542 1.384 . S
C541 C545 1.387 . S
C541 H568 0.930 . S
C542 C540 1.380 . S
C542 C541 1.384 . S
C542 H569 0.931 . S
C543 C540 1.374 . S
C543 C544 1.390 . S
C543 H570 0.930 . S
C544 C543 1.390 . S
C544 C545 1.391 . S
C544 H571 0.930 . S
C545 C541 1.387 . S
C545 C544 1.391 . S
C546 Tb536 2.825 . S
C546 C540 1.507 . S
C546 O559 1.238 . S
C546 O560 1.247 . S
O547 Tb536 2.347 . S
O547 C551 1.259 . S
O548 Eu537 2.418 . S
O548 C551 1.265 . S
O549 Eu537 2.384 . S
O549 C558 1.255 . S
O550 Tb536 2.366 . S
O550 C558 1.265 . S
C551 O547 1.259 . S
C551 O548 1.265 . S
O552 Eu537 2.479 . S
O552 C567 1.238 . S
O553 Eu537 2.471 . S
O553 C567 1.247 . S
O554 Eu537 2.347 . S
O554 C538 1.259 . S
O555 Tb536 2.418 . S
O555 C538 1.265 . S
O556 Tb536 2.384 . S
O556 C539 1.255 . S
O557 Eu537 2.366 . S
O557 C539 1.265 . S
C558 O549 1.255 . S
C558 O550 1.265 . S
O559 Tb536 2.479 . S
O559 C546 1.238 . S
O560 Tb536 2.471 . S
O560 C546 1.247 . S
C561 C564 1.380 . S
C561 C565 1.374 . S
C561 C567 1.507 . S
C562 C563 1.387 . S
C562 C566 1.391 . S
C563 C562 1.387 . S
C563 C564 1.384 . S
C563 H572 0.930 . S
C564 C561 1.380 . S
C564 C563 1.384 . S
C564 H573 0.931 . S
C565 C561 1.374 . S
C565 C566 1.390 . S
C565 H574 0.930 . S
C566 C562 1.391 . S
C566 C565 1.390 . S
C566 H575 0.930 . S
C567 Eu537 2.825 . S
C567 O552 1.238 . S
C567 O553 1.247 . S
C567 C561 1.507 . S
H568 C541 0.930 . S
H569 C542 0.931 . S
H570 C543 0.930 . S
H571 C544 0.930 . S
H572 C563 0.930 . S
H573 C564 0.931 . S
H574 C565 0.930 . S
H575 C566 0.930 . S
H576 C584 0.950 . S
H577 C589 0.950 . S
H578 C586 0.950 . S
H579 C588 0.950 . S
H580 C590 0.950 . S
H581 C592 0.950 . S
H582 C594 0.950 . S
H583 C595 0.950 . S
C584 H576 0.950 . S
C584 C585 1.386 . S
C584 C586 1.391 . S
C585 C584 1.386 . S
C585 C589 1.393 . S
C586 H578 0.950 . S
C586 C584 1.391 . S
C586 C587 1.400 . S
C587 C586 1.400 . S
C587 C588 1.398 . S
C587 C593 1.491 . S
C588 H579 0.950 . S
C588 C587 1.398 . S
C588 C589 1.391 . S
C589 H577 0.950 . S
C589 C585 1.393 . S
C589 C588 1.391 . S
C590 H580 0.950 . S
C590 C591 1.386 . S
C590 C592 1.391 . S
C591 C590 1.386 . S
C591 C595 1.393 . S
C592 H581 0.950 . S
C592 C590 1.391 . S
C592 C593 1.400 . S
C593 C587 1.491 . S
C593 C592 1.400 . S
C593 C594 1.398 . S
C594 H582 0.950 . S
C594 C593 1.398 . S
C594 C595 1.391 . S
C595 H583 0.950 . S
C595 C591 1.393 . S
C595 C594 1.391 . S
H596 C604 0.950 . S
H597 C609 0.950 . S
H598 C606 0.950 . S
H599 C608 0.950 . S
H600 C610 0.950 . S
H601 C612 0.950 . S
H602 C614 0.950 . S
H603 C615 0.950 . S
C604 H596 0.950 . S
C604 C605 1.386 . S
C604 C606 1.391 . S
C605 C604 1.386 . S
C605 C609 1.393 . S
C606 H598 0.950 . S
C606 C604 1.391 . S
C606 C607 1.400 . S
C607 C606 1.400 . S
C607 C608 1.398 . S
C607 C613 1.491 . S
C608 H599 0.950 . S
C608 C607 1.398 . S
C608 C609 1.391 . S
C609 H597 0.950 . S
C609 C605 1.393 . S
C609 C608 1.391 . S
C610 H600 0.950 . S
C610 C611 1.386 . S
C610 C612 1.391 . S
C611 C610 1.386 . S
C611 C615 1.393 . S
C612 H601 0.950 . S
C612 C610 1.391 . S
C612 C613 1.400 . S
C613 C607 1.491 . S
C613 C612 1.400 . S
C613 C614 1.398 . S
C614 H602 0.950 . S
C614 C613 1.398 . S
C614 C615 1.391 . S
C615 H603 0.950 . S
C615 C611 1.393 . S
C615 C614 1.391 . S
H616 C624 0.950 . S
H617 C629 0.950 . S
H618 C626 0.950 . S
H619 C628 0.950 . S
H620 C630 0.950 . S
H621 C632 0.950 . S
H622 C634 0.950 . S
H623 C635 0.950 . S
C624 H616 0.950 . S
C624 C625 1.386 . S
C624 C626 1.391 . S
C625 C624 1.386 . S
C625 C629 1.393 . S
C626 H618 0.950 . S
C626 C624 1.391 . S
C626 C627 1.400 . S
C627 C626 1.400 . S
C627 C628 1.398 . S
C627 C633 1.491 . S
C628 H619 0.950 . S
C628 C627 1.398 . S
C628 C629 1.391 . S
C629 H617 0.950 . S
C629 C625 1.393 . S
C629 C628 1.391 . S
C630 H620 0.950 . S
C630 C631 1.386 . S
C630 C632 1.391 . S
C631 C630 1.386 . S
C631 C635 1.393 . S
C632 H621 0.950 . S
C632 C630 1.391 . S
C632 C633 1.400 . S
C633 C627 1.491 . S
C633 C632 1.400 . S
C633 C634 1.398 . S
C634 H622 0.950 . S
C634 C633 1.398 . S
C634 C635 1.391 . S
C635 H623 0.950 . S
C635 C631 1.393 . S
C635 C634 1.391 . S
H636 C644 0.950 . S
H637 C649 0.950 . S
H638 C646 0.950 1_554 S
H639 C648 0.950 . S
H640 C650 0.950 . S
H641 C652 0.950 . S
H642 C654 0.950 . S
H643 C655 0.950 . S
C644 H636 0.950 . S
C644 C645 1.386 . S
C644 C646 1.391 . S
C645 C644 1.386 . S
C645 C649 1.393 . S
C646 H638 0.950 1_556 S
C646 C644 1.391 . S
C646 C647 1.400 . S
C647 C646 1.400 . S
C647 C648 1.398 . S
C647 C653 1.491 . S
C648 H639 0.950 . S
C648 C647 1.398 . S
C648 C649 1.391 . S
C649 H637 0.950 . S
C649 C645 1.393 . S
C649 C648 1.391 . S
C650 H640 0.950 . S
C650 C651 1.386 . S
C650 C652 1.391 . S
C651 C650 1.386 . S
C651 C655 1.393 1_556 S
C652 H641 0.950 . S
C652 C650 1.391 . S
C652 C653 1.400 . S
C653 C647 1.491 . S
C653 C652 1.400 . S
C653 C654 1.398 1_556 S
C654 H642 0.950 . S
C654 C653 1.398 1_554 S
C654 C655 1.391 . S
C655 H643 0.950 . S
C655 C651 1.393 1_554 S
C655 C654 1.391 . S
H656 C664 0.950 . S
H657 C669 0.950 . S
H658 C666 0.950 . S
H659 C668 0.950 . S
H660 C670 0.950 . S
H661 C672 0.950 . S
H662 C674 0.950 . S
H663 C675 0.950 1_554 S
C664 H656 0.950 . S
C664 C665 1.386 . S
C664 C666 1.391 . S
C665 C664 1.386 . S
C665 C669 1.393 . S
C666 H658 0.950 . S
C666 C664 1.391 . S
C666 C667 1.400 . S
C667 C666 1.400 . S
C667 C668 1.398 . S
C667 C673 1.491 . S
C668 H659 0.950 . S
C668 C667 1.398 . S
C668 C669 1.391 . S
C669 H657 0.950 . S
C669 C665 1.393 . S
C669 C668 1.391 . S
C670 H660 0.950 . S
C670 C671 1.386 . S
C670 C672 1.391 . S
C671 C670 1.386 . S
C671 C675 1.393 . S
C672 H661 0.950 . S
C672 C670 1.391 . S
C672 C673 1.400 . S
C673 C667 1.491 . S
C673 C672 1.400 . S
C673 C674 1.398 . S
C674 H662 0.950 . S
C674 C673 1.398 . S
C674 C675 1.391 . S
C675 H663 0.950 1_556 S
C675 C671 1.393 . S
C675 C674 1.391 . S
H676 C684 0.950 . S
H677 C689 0.950 . S
H678 C686 0.950 . S
H679 C688 0.950 . S
H680 C690 0.950 . S
H681 C692 0.950 . S
H682 C694 0.950 . S
H683 C695 0.946 1_554 S
C684 H676 0.950 . S
C684 C685 1.386 . S
C684 C686 1.391 . S
C685 C684 1.386 . S
C685 C689 1.393 . S
C686 H678 0.950 . S
C686 C684 1.391 . S
C686 C687 1.400 . S
C687 C686 1.400 . S
C687 C688 1.398 . S
C687 C693 1.491 . S
C688 H679 0.950 . S
C688 C687 1.398 . S
C688 C689 1.391 . S
C689 H677 0.950 . S
C689 C685 1.393 . S
C689 C688 1.391 . S
C690 H680 0.950 . S
C690 C691 1.396 . S
C690 C692 1.391 . S
C691 C690 1.396 . S
C691 C695 1.391 . S
C692 H681 0.950 . S
C692 C690 1.391 . S
C692 C693 1.400 . S
C693 C687 1.491 . S
C693 C692 1.400 . S
C693 C694 1.398 . S
C694 H682 0.950 . S
C694 C693 1.398 . S
C694 C695 1.393 . S
C695 H683 0.946 1_556 S
C695 C691 1.391 . S
C695 C694 1.393 . S
H696 C704 0.950 . S
H697 C709 0.950 . S
H698 C706 0.950 . S
H699 C708 0.950 1_554 S
H700 C710 0.950 . S
H701 C712 0.954 1_554 S
H702 C714 0.950 . S
H703 C715 0.950 . S
C704 H696 0.950 . S
C704 C705 1.386 . S
C704 C706 1.391 . S
C705 C704 1.386 . S
C705 C709 1.393 . S
C706 H698 0.950 . S
C706 C704 1.391 . S
C706 C707 1.400 . S
C707 C706 1.400 . S
C707 C708 1.398 . S
C707 C713 1.491 . S
C708 H699 0.950 1_556 S
C708 C707 1.398 . S
C708 C709 1.391 . S
C709 H697 0.950 . S
C709 C705 1.393 . S
C709 C708 1.391 . S
C710 H700 0.950 . S
C710 C711 1.386 1_554 S
C710 C712 1.393 1_554 S
C711 C710 1.386 1_556 S
C711 C715 1.393 . S
C712 H701 0.954 1_556 S
C712 C710 1.393 1_556 S
C712 C713 1.395 . S
C713 C707 1.491 . S
C713 C712 1.395 . S
C713 C714 1.398 . S
C714 H702 0.950 . S
C714 C713 1.398 . S
C714 C715 1.391 . S
C715 H703 0.950 . S
C715 C711 1.393 . S
C715 C714 1.391 . S
H716 C724 0.950 . S
H717 C729 0.950 . S
H718 C726 0.950 . S
H719 C728 0.950 . S
H720 C730 0.950 . S
H721 C732 0.950 . S
H722 C734 0.950 1_554 S
H723 C735 0.950 1_554 S
C724 H716 0.950 . S
C724 C725 1.386 . S
C724 C726 1.391 . S
C725 C724 1.386 . S
C725 C729 1.393 . S
C726 H718 0.950 . S
C726 C724 1.391 . S
C726 C727 1.400 . S
C727 C726 1.400 . S
C727 C728 1.398 . S
C727 C733 1.491 . S
C728 H719 0.950 . S
C728 C727 1.398 . S
C728 C729 1.391 . S
C729 H717 0.950 . S
C729 C725 1.393 . S
C729 C728 1.391 . S
C730 H720 0.950 . S
C730 C731 1.386 . S
C730 C732 1.391 . S
C731 C730 1.386 . S
C731 C735 1.393 . S
C732 H721 0.950 . S
C732 C730 1.391 . S
C732 C733 1.400 . S
C733 C727 1.491 . S
C733 C732 1.400 . S
C733 C734 1.398 . S
C734 H722 0.950 1_556 S
C734 C733 1.398 . S
C734 C735 1.391 . S
C735 H723 0.950 1_556 S
C735 C731 1.393 . S
C735 C734 1.391 . S
H736 C744 0.950 . S
H737 C749 0.950 . S
H738 C746 0.950 . S
H739 C748 0.950 . S
H740 C750 0.950 . S
H741 C752 0.950 . S
H742 C754 0.950 . S
H743 C755 0.950 . S
C744 H736 0.950 . S
C744 C745 1.386 . S
C744 C746 1.391 . S
C745 C744 1.386 . S
C745 C749 1.393 1_556 S
C746 H738 0.950 . S
C746 C744 1.391 . S
C746 C747 1.400 . S
C747 C746 1.400 . S
C747 C748 1.398 1_556 S
C747 C753 1.491 . S
C748 H739 0.950 . S
C748 C747 1.398 1_554 S
C748 C749 1.391 . S
C749 H737 0.950 . S
C749 C745 1.393 1_554 S
C749 C748 1.391 . S
C750 H740 0.950 . S
C750 C751 1.415 . S
C750 C752 1.391 . S
C751 C750 1.415 . S
C751 C755 1.363 1_554 S
C752 H741 0.950 . S
C752 C750 1.391 . S
C752 C753 1.400 1_554 S
C753 C747 1.491 . S
C753 C752 1.400 1_556 S
C753 C754 1.398 . S
C754 H742 0.950 . S
C754 C753 1.398 . S
C754 C755 1.391 . S
C755 H743 0.950 . S
C755 C751 1.363 1_556 S
C755 C754 1.391 . S
H756 C764 0.950 . S
H757 C769 0.950 . S
H758 C766 0.950 . S
H759 C768 0.950 . S
H760 C770 0.950 . S
H761 C772 0.950 . S
H762 C774 0.950 . S
H763 C775 0.950 . S
C764 H756 0.950 . S
C764 C765 1.386 . S
C764 C766 1.391 . S
C765 C764 1.386 . S
C765 C769 1.393 . S
C766 H758 0.950 . S
C766 C764 1.391 . S
C766 C767 1.400 . S
C767 C766 1.400 . S
C767 C768 1.398 . S
C767 C773 1.491 . S
C768 H759 0.950 . S
C768 C767 1.398 . S
C768 C769 1.391 . S
C769 H757 0.950 . S
C769 C765 1.393 . S
C769 C768 1.391 . S
C770 H760 0.950 . S
C770 C771 1.386 . S
C770 C772 1.391 . S
C771 C770 1.386 . S
C771 C775 1.393 . S
C772 H761 0.950 . S
C772 C770 1.391 . S
C772 C773 1.400 . S
C773 C767 1.491 . S
C773 C772 1.400 . S
C773 C774 1.398 . S
C774 H762 0.950 . S
C774 C773 1.398 . S
C774 C775 1.391 . S
C775 H763 0.950 . S
C775 C771 1.393 . S
C775 C774 1.391 . S
H776 C784 0.950 . S
H777 C789 0.950 . S
H778 C786 0.950 . S
H779 C788 0.950 . S
H780 C790 0.950 . S
H781 C792 0.950 . S
H782 C794 0.950 . S
H783 C795 0.950 . S
C784 H776 0.950 . S
C784 C785 1.386 . S
C784 C786 1.391 . S
C785 C784 1.386 . S
C785 C789 1.393 . S
C786 H778 0.950 . S
C786 C784 1.391 . S
C786 C787 1.400 . S
C787 C786 1.400 . S
C787 C788 1.398 . S
C787 C793 1.491 . S
C788 H779 0.950 . S
C788 C787 1.398 . S
C788 C789 1.391 . S
C789 H777 0.950 . S
C789 C785 1.393 . S
C789 C788 1.391 . S
C790 H780 0.950 . S
C790 C791 1.386 . S
C790 C792 1.391 . S
C791 C790 1.386 . S
C791 C795 1.393 . S
C792 H781 0.950 . S
C792 C790 1.391 . S
C792 C793 1.400 . S
C793 C787 1.491 . S
C793 C792 1.400 . S
C793 C794 1.398 . S
C794 H782 0.950 . S
C794 C793 1.398 . S
C794 C795 1.391 . S
C795 H783 0.950 . S
C795 C791 1.393 . S
C795 C794 1.391 . S
H796 C804 0.950 . S
H797 C809 0.950 . S
H798 C806 0.950 1_556 S
H799 C808 0.950 . S
H800 C810 0.950 . S
H801 C812 0.950 . S
H802 C814 0.950 1_556 S
H803 C815 0.950 . S
C804 H796 0.950 . S
C804 C805 1.386 . S
C804 C806 1.391 . S
C805 C804 1.386 . S
C805 C809 1.393 . S
C806 H798 0.950 1_554 S
C806 C804 1.391 . S
C806 C807 1.400 . S
C807 C806 1.400 . S
C807 C808 1.398 . S
C807 C813 1.491 . S
C808 H799 0.950 . S
C808 C807 1.398 . S
C808 C809 1.391 . S
C809 H797 0.950 . S
C809 C805 1.393 . S
C809 C808 1.391 . S
C810 H800 0.950 . S
C810 C811 1.386 . S
C810 C812 1.391 . S
C811 C810 1.386 . S
C811 C815 1.393 1_554 S
C812 H801 0.950 . S
C812 C810 1.391 . S
C812 C813 1.400 . S
C813 C807 1.491 . S
C813 C812 1.400 . S
C813 C814 1.398 . S
C814 H802 0.950 1_554 S
C814 C813 1.398 . S
C814 C815 1.391 1_554 S
C815 H803 0.950 . S
C815 C811 1.393 1_556 S
C815 C814 1.391 1_556 S
H816 C824 0.950 . S
H817 C829 0.950 . S
H818 C826 0.950 . S
H819 C828 0.950 . S
H820 C830 0.950 . S
H821 C832 0.950 . S
H822 C834 0.950 1_655 S
H823 C835 0.950 . S
C824 H816 0.950 . S
C824 C825 1.386 . S
C824 C826 1.391 . S
C825 C824 1.386 . S
C825 C829 1.393 . S
C826 H818 0.950 . S
C826 C824 1.391 . S
C826 C827 1.400 . S
C827 C826 1.400 . S
C827 C828 1.398 . S
C827 C833 1.491 1_655 S
C828 H819 0.950 . S
C828 C827 1.398 . S
C828 C829 1.391 . S
C829 H817 0.950 . S
C829 C825 1.393 . S
C829 C828 1.391 . S
C830 H820 0.950 . S
C830 C831 1.386 . S
C830 C832 1.391 . S
C831 C830 1.386 . S
C831 C835 1.393 . S
C832 H821 0.950 . S
C832 C830 1.391 . S
C832 C833 1.400 . S
C833 C827 1.491 1_455 S
C833 C832 1.400 . S
C833 C834 1.398 . S
C834 H822 0.950 1_455 S
C834 C833 1.398 . S
C834 C835 1.391 . S
C835 H823 0.950 . S
C835 C831 1.393 . S
C835 C834 1.391 . S
H836 C844 0.950 . S
H837 C849 0.950 . S
H838 C846 0.950 . S
H839 C848 0.950 . S
H840 C850 0.950 . S
H841 C852 0.950 . S
H842 C854 0.950 . S
H843 C855 0.950 . S
C844 H836 0.950 . S
C844 C845 1.386 . S
C844 C846 1.391 . S
C845 C844 1.386 . S
C845 C849 1.393 . S
C846 H838 0.950 . S
C846 C844 1.391 . S
C846 C847 1.400 . S
C847 C846 1.400 . S
C847 C848 1.398 . S
C847 C853 1.491 . S
C848 H839 0.950 . S
C848 C847 1.398 . S
C848 C849 1.391 . S
C849 H837 0.950 . S
C849 C845 1.393 . S
C849 C848 1.391 . S
C850 H840 0.950 . S
C850 C851 1.386 . S
C850 C852 1.391 . S
C851 C850 1.386 . S
C851 C855 1.393 . S
C852 H841 0.950 . S
C852 C850 1.391 . S
C852 C853 1.400 . S
C853 C847 1.491 . S
C853 C852 1.400 . S
C853 C854 1.398 . S
C854 H842 0.950 . S
C854 C853 1.398 . S
C854 C855 1.391 . S
C855 H843 0.950 . S
C855 C851 1.393 . S
C855 C854 1.391 . S
H856 C864 0.950 . S
H857 C869 0.950 . S
H858 C866 0.950 . S
H859 C868 0.950 . S
H860 C870 0.950 . S
H861 C872 0.950 . S
H862 C874 0.950 1_545 S
H863 C875 0.950 . S
C864 H856 0.950 . S
C864 C865 1.386 . S
C864 C866 1.391 . S
C865 C864 1.386 . S
C865 C869 1.393 . S
C866 H858 0.950 . S
C866 C864 1.391 . S
C866 C867 1.400 . S
C867 C866 1.400 . S
C867 C868 1.398 . S
C867 C873 1.491 . S
C868 H859 0.950 . S
C868 C867 1.398 . S
C868 C869 1.391 . S
C869 H857 0.950 . S
C869 C865 1.393 . S
C869 C868 1.391 . S
C870 H860 0.950 . S
C870 C871 1.386 . S
C870 C872 1.391 . S
C871 C870 1.386 . S
C871 C875 1.393 . S
C872 H861 0.950 . S
C872 C870 1.391 . S
C872 C873 1.400 1_565 S
C873 C867 1.491 . S
C873 C872 1.400 1_545 S
C873 C874 1.398 1_545 S
C874 H862 0.950 1_565 S
C874 C873 1.398 1_565 S
C874 C875 1.391 . S
C875 H863 0.950 . S
C875 C871 1.393 . S
C875 C874 1.391 . S
H876 C884 0.950 . S
H877 C889 0.950 . S
H878 C886 0.950 . S
H879 C888 0.950 . S
H880 C890 0.950 . S
H881 C892 0.950 . S
H882 C894 0.950 . S
H883 C895 0.950 . S
C884 H876 0.950 . S
C884 C885 1.386 . S
C884 C886 1.391 . S
C885 C884 1.386 . S
C885 C889 1.393 . S
C886 H878 0.950 . S
C886 C884 1.391 . S
C886 C887 1.400 . S
C887 C886 1.400 . S
C887 C888 1.398 . S
C887 C893 1.491 . S
C888 H879 0.950 . S
C888 C887 1.398 . S
C888 C889 1.391 . S
C889 H877 0.950 . S
C889 C885 1.393 . S
C889 C888 1.391 . S
C890 H880 0.950 . S
C890 C891 1.386 . S
C890 C892 1.391 . S
C891 C890 1.386 . S
C891 C895 1.393 . S
C892 H881 0.950 . S
C892 C890 1.391 . S
C892 C893 1.400 . S
C893 C887 1.491 . S
C893 C892 1.400 . S
C893 C894 1.398 . S
C894 H882 0.950 . S
C894 C893 1.398 . S
C894 C895 1.391 . S
C895 H883 0.950 . S
C895 C891 1.393 . S
C895 C894 1.391 . S
H896 C904 0.950 . S
H897 C909 0.950 . S
H898 C906 0.950 . S
H899 C908 0.950 . S
H900 C910 0.950 . S
H901 C912 0.950 . S
H902 C914 0.950 . S
H903 C915 0.950 . S
C904 H896 0.950 . S
C904 C905 1.386 . S
C904 C906 1.391 . S
C905 C904 1.386 . S
C905 C909 1.393 . S
C906 H898 0.950 . S
C906 C904 1.391 . S
C906 C907 1.400 . S
C907 C906 1.400 . S
C907 C908 1.398 . S
C907 C913 1.491 . S
C908 H899 0.950 . S
C908 C907 1.398 . S
C908 C909 1.391 . S
C909 H897 0.950 . S
C909 C905 1.393 . S
C909 C908 1.391 . S
C910 H900 0.950 . S
C910 C911 1.386 . S
C910 C912 1.391 . S
C911 C910 1.386 . S
C911 C915 1.393 . S
C912 H901 0.950 . S
C912 C910 1.391 . S
C912 C913 1.400 . S
C913 C907 1.491 . S
C913 C912 1.400 . S
C913 C914 1.398 . S
C914 H902 0.950 . S
C914 C913 1.398 . S
C914 C915 1.391 . S
C915 H903 0.950 . S
C915 C911 1.393 . S
C915 C914 1.391 . S
H916 C924 0.950 . S
H917 C929 0.950 . S
H918 C926 0.950 . S
H919 C928 0.950 . S
H920 C930 0.950 . S
H921 C932 0.950 . S
H922 C934 0.950 . S
H923 C935 0.950 . S
C924 H916 0.950 . S
C924 C925 1.386 . S
C924 C926 1.391 . S
C925 C924 1.386 . S
C925 C929 1.393 . S
C926 H918 0.950 . S
C926 C924 1.391 . S
C926 C927 1.400 . S
C927 C926 1.400 . S
C927 C928 1.398 . S
C927 C933 1.491 . S
C928 H919 0.950 . S
C928 C927 1.398 . S
C928 C929 1.391 . S
C929 H917 0.950 . S
C929 C925 1.393 . S
C929 C928 1.391 . S
C930 H920 0.950 . S
C930 C931 1.386 . S
C930 C932 1.391 . S
C931 C930 1.386 . S
C931 C935 1.393 . S
C932 H921 0.950 . S
C932 C930 1.391 . S
C932 C933 1.400 . S
C933 C927 1.491 . S
C933 C932 1.400 . S
C933 C934 1.398 . S
C934 H922 0.950 . S
C934 C933 1.398 . S
C934 C935 1.391 . S
C935 H923 0.950 . S
C935 C931 1.393 . S
C935 C934 1.391 . S
H936 C944 0.950 . S
H937 C949 0.950 . S
H938 C946 0.950 . S
H939 C948 0.950 . S
H940 C950 0.950 . S
H941 C952 0.950 . S
H942 C954 0.950 . S
H943 C955 0.950 . S
C944 H936 0.950 . S
C944 C945 1.386 . S
C944 C946 1.391 . S
C945 C944 1.386 . S
C945 C949 1.393 . S
C946 H938 0.950 . S
C946 C944 1.391 . S
C946 C947 1.400 . S
C947 C946 1.400 . S
C947 C948 1.398 . S
C947 C953 1.491 . S
C948 H939 0.950 . S
C948 C947 1.398 . S
C948 C949 1.391 . S
C949 H937 0.950 . S
C949 C945 1.393 . S
C949 C948 1.391 . S
C950 H940 0.950 . S
C950 C951 1.386 . S
C950 C952 1.391 . S
C951 C950 1.386 . S
C951 C955 1.393 . S
C952 H941 0.950 . S
C952 C950 1.391 . S
C952 C953 1.400 . S
C953 C947 1.491 . S
C953 C952 1.400 . S
C953 C954 1.398 . S
C954 H942 0.950 . S
C954 C953 1.398 . S
C954 C955 1.391 . S
C955 H943 0.950 . S
C955 C951 1.393 . S
C955 C954 1.391 . S
H956 C964 0.950 . S
H957 C969 0.950 . S
H958 C966 0.950 . S
H959 C968 0.950 . S
H960 C970 0.950 . S
H961 C972 0.950 . S
H962 C974 0.950 . S
H963 C975 0.950 . S
C964 H956 0.950 . S
C964 C965 1.386 . S
C964 C966 1.391 . S
C965 C964 1.386 . S
C965 C969 1.393 . S
C966 H958 0.950 . S
C966 C964 1.391 . S
C966 C967 1.400 . S
C967 C966 1.400 . S
C967 C968 1.398 . S
C967 C973 1.491 . S
C968 H959 0.950 . S
C968 C967 1.398 . S
C968 C969 1.391 . S
C969 H957 0.950 . S
C969 C965 1.393 . S
C969 C968 1.391 . S
C970 H960 0.950 . S
C970 C971 1.386 . S
C970 C972 1.391 . S
C971 C970 1.386 . S
C971 C975 1.393 . S
C972 H961 0.950 . S
C972 C970 1.391 . S
C972 C973 1.400 . S
C973 C967 1.491 . S
C973 C972 1.400 . S
C973 C974 1.398 . S
C974 H962 0.950 . S
C974 C973 1.398 . S
C974 C975 1.391 . S
C975 H963 0.950 . S
C975 C971 1.393 . S
C975 C974 1.391 . S
H976 C984 0.950 . S
H977 C989 0.950 . S
H978 C986 0.950 . S
H979 C988 0.950 . S
H980 C990 0.950 . S
H981 C992 0.950 . S
H982 C994 0.950 . S
H983 C995 0.950 . S
C984 H976 0.950 . S
C984 C985 1.386 . S
C984 C986 1.391 . S
C985 C984 1.386 . S
C985 C989 1.393 . S
C986 H978 0.950 . S
C986 C984 1.391 . S
C986 C987 1.400 . S
C987 C986 1.400 . S
C987 C988 1.398 . S
C987 C993 1.491 . S
C988 H979 0.950 . S
C988 C987 1.398 . S
C988 C989 1.391 . S
C989 H977 0.950 . S
C989 C985 1.393 . S
C989 C988 1.391 . S
C990 H980 0.950 . S
C990 C991 1.386 . S
C990 C992 1.391 . S
C991 C990 1.386 . S
C991 C995 1.393 . S
C992 H981 0.950 . S
C992 C990 1.391 . S
C992 C993 1.400 . S
C993 C987 1.491 . S
C993 C992 1.400 . S
C993 C994 1.398 . S
C994 H982 0.950 . S
C994 C993 1.398 . S
C994 C995 1.391 . S
C995 H983 0.950 . S
C995 C991 1.393 . S
C995 C994 1.391 . S
H996 C1004 0.950 . S
H997 C1009 0.950 . S
H998 C1006 0.950 . S
H999 C1008 0.950 . S
H1000 C1010 0.950 . S
H1001 C1012 0.950 . S
H1002 C1014 0.950 . S
H1003 C1015 0.950 . S
C1004 H996 0.950 . S
C1004 C1005 1.386 . S
C1004 C1006 1.391 1_545 S
C1005 C1004 1.386 . S
C1005 C1009 1.393 . S
C1006 H998 0.950 . S
C1006 C1004 1.391 1_565 S
C1006 C1007 1.400 . S
C1007 C1006 1.400 . S
C1007 C1008 1.398 . S
C1007 C1013 1.491 . S
C1008 H999 0.950 . S
C1008 C1007 1.398 . S
C1008 C1009 1.391 1_565 S
C1009 H997 0.950 . S
C1009 C1005 1.393 . S
C1009 C1008 1.391 1_545 S
C1010 H1000 0.950 . S
C1010 C1011 1.386 . S
C1010 C1012 1.391 . S
C1011 C1010 1.386 . S
C1011 C1015 1.393 . S
C1012 H1001 0.950 . S
C1012 C1010 1.391 . S
C1012 C1013 1.400 . S
C1013 C1007 1.491 . S
C1013 C1012 1.400 . S
C1013 C1014 1.398 . S
C1014 H1002 0.950 . S
C1014 C1013 1.398 . S
C1014 C1015 1.391 . S
C1015 H1003 0.950 . S
C1015 C1011 1.393 . S
C1015 C1014 1.391 . S
H1016 C1024 0.950 . S
H1017 C1029 0.950 . S
H1018 C1026 0.950 . S
H1019 C1028 0.950 . S
H1020 C1030 0.950 . S
H1021 C1032 0.950 . S
H1022 C1034 0.950 . S
H1023 C1035 0.950 . S
C1024 H1016 0.950 . S
C1024 C1025 1.386 . S
C1024 C1026 1.391 1_655 S
C1025 C1024 1.386 . S
C1025 C1029 1.393 1_655 S
C1026 H1018 0.950 . S
C1026 C1024 1.391 1_455 S
C1026 C1027 1.400 . S
C1027 C1026 1.400 . S
C1027 C1028 1.398 . S
C1027 C1033 1.491 . S
C1028 H1019 0.950 . S
C1028 C1027 1.398 . S
C1028 C1029 1.391 . S
C1029 H1017 0.950 . S
C1029 C1025 1.393 1_455 S
C1029 C1028 1.391 . S
C1030 H1020 0.950 . S
C1030 C1031 1.386 . S
C1030 C1032 1.391 . S
C1031 C1030 1.386 . S
C1031 C1035 1.393 . S
C1032 H1021 0.950 . S
C1032 C1030 1.391 . S
C1032 C1033 1.400 . S
C1033 C1027 1.491 . S
C1033 C1032 1.400 . S
C1033 C1034 1.398 . S
C1034 H1022 0.950 . S
C1034 C1033 1.398 . S
C1034 C1035 1.391 . S
C1035 H1023 0.950 . S
C1035 C1031 1.393 . S
C1035 C1034 1.391 . S
H1036 C1044 0.950 . S
H1037 C1049 0.950 . S
H1038 C1046 0.950 . S
H1039 C1048 0.950 . S
H1040 C1050 0.950 . S
H1041 C1052 0.950 . S
H1042 C1054 0.950 . S
H1043 C1055 0.950 . S
C1044 H1036 0.950 . S
C1044 C1045 1.386 . S
C1044 C1046 1.391 . S
C1045 C1044 1.386 . S
C1045 C1049 1.393 . S
C1046 H1038 0.950 . S
C1046 C1044 1.391 . S
C1046 C1047 1.400 . S
C1047 C1046 1.400 . S
C1047 C1048 1.398 . S
C1047 C1053 1.491 . S
C1048 H1039 0.950 . S
C1048 C1047 1.398 . S
C1048 C1049 1.391 . S
C1049 H1037 0.950 . S
C1049 C1045 1.393 . S
C1049 C1048 1.391 . S
C1050 H1040 0.950 . S
C1050 C1051 1.386 . S
C1050 C1052 1.391 . S
C1051 C1050 1.386 . S
C1051 C1055 1.393 . S
C1052 H1041 0.950 . S
C1052 C1050 1.391 . S
C1052 C1053 1.400 . S
C1053 C1047 1.491 . S
C1053 C1052 1.400 . S
C1053 C1054 1.398 . S
C1054 H1042 0.950 . S
C1054 C1053 1.398 . S
C1054 C1055 1.391 . S
C1055 H1043 0.950 . S
C1055 C1051 1.393 . S
C1055 C1054 1.391 . S
H1056 C1064 0.950 . S
H1057 C1069 0.950 . S
H1058 C1066 0.950 . S
H1059 C1068 0.950 . S
H1060 C1070 0.950 . S
H1061 C1072 0.950 . S
H1062 C1074 0.950 . S
H1063 C1075 0.950 . S
C1064 H1056 0.950 . S
C1064 C1065 1.386 . S
C1064 C1066 1.391 . S
C1065 C1064 1.386 . S
C1065 C1069 1.393 . S
C1066 H1058 0.950 . S
C1066 C1064 1.391 . S
C1066 C1067 1.400 . S
C1067 C1066 1.400 . S
C1067 C1068 1.398 . S
C1067 C1073 1.491 . S
C1068 H1059 0.950 . S
C1068 C1067 1.398 . S
C1068 C1069 1.391 . S
C1069 H1057 0.950 . S
C1069 C1065 1.393 . S
C1069 C1068 1.391 . S
C1070 H1060 0.950 . S
C1070 C1071 1.386 . S
C1070 C1072 1.391 . S
C1071 C1070 1.386 . S
C1071 C1075 1.393 . S
C1072 H1061 0.950 . S
C1072 C1070 1.391 . S
C1072 C1073 1.400 . S
C1073 C1067 1.491 . S
C1073 C1072 1.400 . S
C1073 C1074 1.398 . S
C1074 H1062 0.950 . S
C1074 C1073 1.398 . S
C1074 C1075 1.391 . S
C1075 H1063 0.950 . S
C1075 C1071 1.393 . S
C1075 C1074 1.391 . S
H1076 C1084 0.950 . S
H1077 C1089 0.950 . S
H1078 C1086 0.950 . S
H1079 C1088 0.950 . S
H1080 C1090 0.950 . S
H1081 C1092 0.950 . S
H1082 C1094 0.950 . S
H1083 C1095 0.950 . S
C1084 H1076 0.950 . S
C1084 C1085 1.386 . S
C1084 C1086 1.391 . S
C1085 C1084 1.386 . S
C1085 C1089 1.393 . S
C1086 H1078 0.950 . S
C1086 C1084 1.391 . S
C1086 C1087 1.400 . S
C1087 C1086 1.400 . S
C1087 C1088 1.398 . S
C1087 C1093 1.491 . S
C1088 H1079 0.950 . S
C1088 C1087 1.398 . S
C1088 C1089 1.391 . S
C1089 H1077 0.950 . S
C1089 C1085 1.393 . S
C1089 C1088 1.391 . S
C1090 H1080 0.950 . S
C1090 C1091 1.386 . S
C1090 C1092 1.391 . S
C1091 C1090 1.386 . S
C1091 C1095 1.393 . S
C1092 H1081 0.950 . S
C1092 C1090 1.391 . S
C1092 C1093 1.400 . S
C1093 C1087 1.491 . S
C1093 C1092 1.400 . S
C1093 C1094 1.398 . S
C1094 H1082 0.950 . S
C1094 C1093 1.398 . S
C1094 C1095 1.391 . S
C1095 H1083 0.950 . S
C1095 C1091 1.393 . S
C1095 C1094 1.391 . S
H1096 C1104 0.950 . S
H1097 C1109 0.950 . S
H1098 C1106 0.950 . S
H1099 C1108 0.950 . S
H1100 C1110 0.950 . S
H1101 C1112 0.950 . S
H1102 C1114 0.950 . S
H1103 C1115 0.950 . S
C1104 H1096 0.950 . S
C1104 C1105 1.386 . S
C1104 C1106 1.391 . S
C1105 C1104 1.386 . S
C1105 C1109 1.393 . S
C1106 H1098 0.950 . S
C1106 C1104 1.391 . S
C1106 C1107 1.400 . S
C1107 C1106 1.400 . S
C1107 C1108 1.398 . S
C1107 C1113 1.491 . S
C1108 H1099 0.950 . S
C1108 C1107 1.398 . S
C1108 C1109 1.391 . S
C1109 H1097 0.950 . S
C1109 C1105 1.393 . S
C1109 C1108 1.391 . S
C1110 H1100 0.950 . S
C1110 C1111 1.386 . S
C1110 C1112 1.391 . S
C1111 C1110 1.386 . S
C1111 C1115 1.393 . S
C1112 H1101 0.950 . S
C1112 C1110 1.391 . S
C1112 C1113 1.400 . S
C1113 C1107 1.491 . S
C1113 C1112 1.400 . S
C1113 C1114 1.398 . S
C1114 H1102 0.950 . S
C1114 C1113 1.398 . S
C1114 C1115 1.391 . S
C1115 H1103 0.950 . S
C1115 C1111 1.393 . S
C1115 C1114 1.391 . S
H1116 C1124 0.950 . S
H1117 C1129 0.950 . S
H1118 C1126 0.950 . S
H1119 C1128 0.950 . S
H1120 C1130 0.950 . S
H1121 C1132 0.950 . S
H1122 C1134 0.950 1_565 S
H1123 C1135 0.950 . S
C1124 H1116 0.950 . S
C1124 C1125 1.386 . S
C1124 C1126 1.391 . S
C1125 C1124 1.386 . S
C1125 C1129 1.393 . S
C1126 H1118 0.950 . S
C1126 C1124 1.391 . S
C1126 C1127 1.400 . S
C1127 C1126 1.400 . S
C1127 C1128 1.398 . S
C1127 C1133 1.491 1_565 S
C1128 H1119 0.950 . S
C1128 C1127 1.398 . S
C1128 C1129 1.391 . S
C1129 H1117 0.950 . S
C1129 C1125 1.393 . S
C1129 C1128 1.391 . S
C1130 H1120 0.950 . S
C1130 C1131 1.386 . S
C1130 C1132 1.391 . S
C1131 C1130 1.386 . S
C1131 C1135 1.393 . S
C1132 H1121 0.950 . S
C1132 C1130 1.391 . S
C1132 C1133 1.400 . S
C1133 C1127 1.491 1_545 S
C1133 C1132 1.400 . S
C1133 C1134 1.398 . S
C1134 H1122 0.950 1_545 S
C1134 C1133 1.398 . S
C1134 C1135 1.391 . S
C1135 H1123 0.950 . S
C1135 C1131 1.393 . S
C1135 C1134 1.391 . S
H1136 C1144 0.950 . S
H1137 C1149 0.950 . S
H1138 C1146 0.950 . S
H1139 C1148 0.950 . S
H1140 C1150 0.950 . S
H1141 C1152 0.950 . S
H1142 C1154 0.950 . S
H1143 C1155 0.950 . S
C1144 H1136 0.950 . S
C1144 C1145 1.386 . S
C1144 C1146 1.391 . S
C1145 C1144 1.386 . S
C1145 C1149 1.393 . S
C1146 H1138 0.950 . S
C1146 C1144 1.391 . S
C1146 C1147 1.400 . S
C1147 C1146 1.400 . S
C1147 C1148 1.398 . S
C1147 C1153 1.491 1_455 S
C1148 H1139 0.950 . S
C1148 C1147 1.398 . S
C1148 C1149 1.391 . S
C1149 H1137 0.950 . S
C1149 C1145 1.393 . S
C1149 C1148 1.391 . S
C1150 H1140 0.950 . S
C1150 C1151 1.386 . S
C1150 C1152 1.391 . S
C1151 C1150 1.386 . S
C1151 C1155 1.393 . S
C1152 H1141 0.950 . S
C1152 C1150 1.391 . S
C1152 C1153 1.400 . S
C1153 C1147 1.491 1_655 S
C1153 C1152 1.400 . S
C1153 C1154 1.398 . S
C1154 H1142 0.950 . S
C1154 C1153 1.398 . S
C1154 C1155 1.391 . S
C1155 H1143 0.950 . S
C1155 C1151 1.393 . S
C1155 C1154 1.391 . S
H1156 C1164 0.950 . S
H1157 C1169 0.950 . S
H1158 C1166 0.950 . S
H1159 C1168 0.950 . S
H1160 C1170 0.950 . S
H1161 C1172 0.950 . S
H1162 C1174 0.950 . S
H1163 C1175 0.950 . S
C1164 H1156 0.950 . S
C1164 C1165 1.386 . S
C1164 C1166 1.391 . S
C1165 C1164 1.386 . S
C1165 C1169 1.393 . S
C1166 H1158 0.950 . S
C1166 C1164 1.391 . S
C1166 C1167 1.400 . S
C1167 C1166 1.400 . S
C1167 C1168 1.398 . S
C1167 C1173 1.491 . S
C1168 H1159 0.950 . S
C1168 C1167 1.398 . S
C1168 C1169 1.391 . S
C1169 H1157 0.950 . S
C1169 C1165 1.393 . S
C1169 C1168 1.391 . S
C1170 H1160 0.950 . S
C1170 C1171 1.386 . S
C1170 C1172 1.391 . S
C1171 C1170 1.386 . S
C1171 C1175 1.393 . S
C1172 H1161 0.950 . S
C1172 C1170 1.391 . S
C1172 C1173 1.400 . S
C1173 C1167 1.491 . S
C1173 C1172 1.400 . S
C1173 C1174 1.398 . S
C1174 H1162 0.950 . S
C1174 C1173 1.398 . S
C1174 C1175 1.391 . S
C1175 H1163 0.950 . S
C1175 C1171 1.393 . S
C1175 C1174 1.391 . S
H1176 C1184 0.950 . S
H1177 C1189 0.950 . S
H1178 C1186 0.950 . S
H1179 C1188 0.950 . S
H1180 C1190 0.950 . S
H1181 C1192 0.950 . S
H1182 C1194 0.950 . S
H1183 C1195 0.950 . S
C1184 H1176 0.950 . S
C1184 C1185 1.386 . S
C1184 C1186 1.391 1_455 S
C1185 C1184 1.386 . S
C1185 C1189 1.393 . S
C1186 H1178 0.950 . S
C1186 C1184 1.391 1_655 S
C1186 C1187 1.400 . S
C1187 C1186 1.400 . S
C1187 C1188 1.398 . S
C1187 C1193 1.491 . S
C1188 H1179 0.950 . S
C1188 C1187 1.398 . S
C1188 C1189 1.391 1_655 S
C1189 H1177 0.950 . S
C1189 C1185 1.393 . S
C1189 C1188 1.391 1_455 S
C1190 H1180 0.950 . S
C1190 C1191 1.386 . S
C1190 C1192 1.391 . S
C1191 C1190 1.386 . S
C1191 C1195 1.393 . S
C1192 H1181 0.950 . S
C1192 C1190 1.391 . S
C1192 C1193 1.400 . S
C1193 C1187 1.491 . S
C1193 C1192 1.400 . S
C1193 C1194 1.398 . S
C1194 H1182 0.950 . S
C1194 C1193 1.398 . S
C1194 C1195 1.391 . S
C1195 H1183 0.950 . S
C1195 C1191 1.393 . S
C1195 C1194 1.391 . S
H1196 C1204 0.950 . S
H1197 C1209 0.950 . S
H1198 C1206 0.950 . S
H1199 C1208 0.950 . S
H1200 C1210 0.950 . S
H1201 C1212 0.950 . S
H1202 C1214 0.950 . S
H1203 C1215 0.950 . S
C1204 H1196 0.950 . S
C1204 C1205 1.386 . S
C1204 C1206 1.391 . S
C1205 C1204 1.386 . S
C1205 C1209 1.393 . S
C1206 H1198 0.950 . S
C1206 C1204 1.391 . S
C1206 C1207 1.400 . S
C1207 C1206 1.400 . S
C1207 C1208 1.398 . S
C1207 C1213 1.491 . S
C1208 H1199 0.950 . S
C1208 C1207 1.398 . S
C1208 C1209 1.391 . S
C1209 H1197 0.950 . S
C1209 C1205 1.393 . S
C1209 C1208 1.391 . S
C1210 H1200 0.950 . S
C1210 C1211 1.386 . S
C1210 C1212 1.391 . S
C1211 C1210 1.386 . S
C1211 C1215 1.393 . S
C1212 H1201 0.950 . S
C1212 C1210 1.391 . S
C1212 C1213 1.400 . S
C1213 C1207 1.491 . S
C1213 C1212 1.400 . S
C1213 C1214 1.398 . S
C1214 H1202 0.950 . S
C1214 C1213 1.398 . S
C1214 C1215 1.391 . S
C1215 H1203 0.950 . S
C1215 C1211 1.393 . S
C1215 C1214 1.391 . S
H1216 C1224 0.950 . S
H1217 C1229 0.950 . S
H1218 C1226 0.950 . S
H1219 C1228 0.950 . S
H1220 C1230 0.950 . S
H1221 C1232 0.950 . S
H1222 C1234 0.950 . S
H1223 C1235 0.950 . S
C1224 H1216 0.950 . S
C1224 C1225 1.386 . S
C1224 C1226 1.391 1_565 S
C1225 C1224 1.386 . S
C1225 C1229 1.393 . S
C1226 H1218 0.950 . S
C1226 C1224 1.391 1_545 S
C1226 C1227 1.400 . S
C1227 C1226 1.400 . S
C1227 C1228 1.398 . S
C1227 C1233 1.491 . S
C1228 H1219 0.950 . S
C1228 C1227 1.398 . S
C1228 C1229 1.391 1_545 S
C1229 H1217 0.950 . S
C1229 C1225 1.393 . S
C1229 C1228 1.391 1_565 S
C1230 H1220 0.950 . S
C1230 C1231 1.386 . S
C1230 C1232 1.391 . S
C1231 C1230 1.386 . S
C1231 C1235 1.393 . S
C1232 H1221 0.950 . S
C1232 C1230 1.391 . S
C1232 C1233 1.400 . S
C1233 C1227 1.491 . S
C1233 C1232 1.400 . S
C1233 C1234 1.398 . S
C1234 H1222 0.950 . S
C1234 C1233 1.398 . S
C1234 C1235 1.391 . S
C1235 H1223 0.950 . S
C1235 C1231 1.393 . S
C1235 C1234 1.391 . S
H1236 C1244 0.950 . S
H1237 C1249 0.950 . S
H1238 C1246 0.950 . S
H1239 C1248 0.950 . S
H1240 C1250 0.950 . S
H1241 C1252 0.950 . S
H1242 C1254 0.950 . S
H1243 C1255 0.950 . S
C1244 H1236 0.950 . S
C1244 C1245 1.386 . S
C1244 C1246 1.391 . S
C1245 C1244 1.386 . S
C1245 C1249 1.393 . S
C1246 H1238 0.950 . S
C1246 C1244 1.391 . S
C1246 C1247 1.400 . S
C1247 C1246 1.400 . S
C1247 C1248 1.398 . S
C1247 C1253 1.491 . S
C1248 H1239 0.950 . S
C1248 C1247 1.398 . S
C1248 C1249 1.391 . S
C1249 H1237 0.950 . S
C1249 C1245 1.393 . S
C1249 C1248 1.391 . S
C1250 H1240 0.950 . S
C1250 C1251 1.386 . S
C1250 C1252 1.391 . S
C1251 C1250 1.386 . S
C1251 C1255 1.393 . S
C1252 H1241 0.950 . S
C1252 C1250 1.391 . S
C1252 C1253 1.400 . S
C1253 C1247 1.491 . S
C1253 C1252 1.400 . S
C1253 C1254 1.398 . S
C1254 H1242 0.950 . S
C1254 C1253 1.398 . S
C1254 C1255 1.391 . S
C1255 H1243 0.950 . S
C1255 C1251 1.393 . S
C1255 C1254 1.391 . S
H1256 C1264 0.950 . S
H1257 C1269 0.950 . S
H1258 C1266 0.950 . S
H1259 C1268 0.950 . S
H1260 C1270 0.950 . S
H1261 C1272 0.950 . S
H1262 C1274 0.950 . S
H1263 C1275 0.950 . S
C1264 H1256 0.950 . S
C1264 C1265 1.386 . S
C1264 C1266 1.391 . S
C1265 C1264 1.386 . S
C1265 C1269 1.393 . S
C1266 H1258 0.950 . S
C1266 C1264 1.391 . S
C1266 C1267 1.400 . S
C1267 C1266 1.400 . S
C1267 C1268 1.398 . S
C1267 C1273 1.491 . S
C1268 H1259 0.950 . S
C1268 C1267 1.398 . S
C1268 C1269 1.391 . S
C1269 H1257 0.950 . S
C1269 C1265 1.393 . S
C1269 C1268 1.391 . S
C1270 H1260 0.950 . S
C1270 C1271 1.386 . S
C1270 C1272 1.391 . S
C1271 C1270 1.386 . S
C1271 C1275 1.393 . S
C1272 H1261 0.950 . S
C1272 C1270 1.391 . S
C1272 C1273 1.400 . S
C1273 C1267 1.491 . S
C1273 C1272 1.400 . S
C1273 C1274 1.398 . S
C1274 H1262 0.950 . S
C1274 C1273 1.398 . S
C1274 C1275 1.391 . S
C1275 H1263 0.950 . S
C1275 C1271 1.393 . S
C1275 C1274 1.391 . S
H1276 C1284 0.950 . S
H1277 C1289 0.950 . S
H1278 C1286 0.950 . S
H1279 C1288 0.950 . S
H1280 C1290 0.950 . S
H1281 C1292 0.950 . S
H1282 C1294 0.950 . S
H1283 C1295 0.950 . S
C1284 H1276 0.950 . S
C1284 C1285 1.386 . S
C1284 C1286 1.391 . S
C1285 C1284 1.386 . S
C1285 C1289 1.393 . S
C1286 H1278 0.950 . S
C1286 C1284 1.391 . S
C1286 C1287 1.400 . S
C1287 C1286 1.400 . S
C1287 C1288 1.398 . S
C1287 C1293 1.491 . S
C1288 H1279 0.950 . S
C1288 C1287 1.398 . S
C1288 C1289 1.391 . S
C1289 H1277 0.950 . S
C1289 C1285 1.393 . S
C1289 C1288 1.391 . S
C1290 H1280 0.950 . S
C1290 C1291 1.386 . S
C1290 C1292 1.391 . S
C1291 C1290 1.386 . S
C1291 C1295 1.393 . S
C1292 H1281 0.950 . S
C1292 C1290 1.391 . S
C1292 C1293 1.400 . S
C1293 C1287 1.491 . S
C1293 C1292 1.400 . S
C1293 C1294 1.398 . S
C1294 H1282 0.950 . S
C1294 C1293 1.398 . S
C1294 C1295 1.391 . S
C1295 H1283 0.950 . S
C1295 C1291 1.393 . S
C1295 C1294 1.391 . S
H1296 C1304 0.950 . S
H1297 C1309 0.950 . S
H1298 C1306 0.950 . S
H1299 C1308 0.950 . S
H1300 C1310 0.950 . S
H1301 C1312 0.950 . S
H1302 C1314 0.950 . S
H1303 C1315 0.950 . S
C1304 H1296 0.950 . S
C1304 C1305 1.386 . S
C1304 C1306 1.391 . S
C1305 C1304 1.386 . S
C1305 C1309 1.393 . S
C1306 H1298 0.950 . S
C1306 C1304 1.391 . S
C1306 C1307 1.400 . S
C1307 C1306 1.400 . S
C1307 C1308 1.398 . S
C1307 C1313 1.491 . S
C1308 H1299 0.950 . S
C1308 C1307 1.398 . S
C1308 C1309 1.391 . S
C1309 H1297 0.950 . S
C1309 C1305 1.393 . S
C1309 C1308 1.391 . S
C1310 H1300 0.950 . S
C1310 C1311 1.386 . S
C1310 C1312 1.391 . S
C1311 C1310 1.386 . S
C1311 C1315 1.393 . S
C1312 H1301 0.950 . S
C1312 C1310 1.391 . S
C1312 C1313 1.400 . S
C1313 C1307 1.491 . S
C1313 C1312 1.400 . S
C1313 C1314 1.398 . S
C1314 H1302 0.950 . S
C1314 C1313 1.398 . S
C1314 C1315 1.391 . S
C1315 H1303 0.950 . S
C1315 C1311 1.393 . S
C1315 C1314 1.391 . S
H1316 C1324 0.950 . S
H1317 C1329 0.950 . S
H1318 C1326 0.950 . S
H1319 C1328 0.950 . S
H1320 C1330 0.950 . S
H1321 C1332 0.950 . S
H1322 C1334 0.950 . S
H1323 C1335 0.950 . S
C1324 H1316 0.950 . S
C1324 C1325 1.386 . S
C1324 C1326 1.391 . S
C1325 C1324 1.386 . S
C1325 C1329 1.393 . S
C1326 H1318 0.950 . S
C1326 C1324 1.391 . S
C1326 C1327 1.400 . S
C1327 C1326 1.400 . S
C1327 C1328 1.398 . S
C1327 C1333 1.491 . S
C1328 H1319 0.950 . S
C1328 C1327 1.398 . S
C1328 C1329 1.391 . S
C1329 H1317 0.950 . S
C1329 C1325 1.393 . S
C1329 C1328 1.391 . S
C1330 H1320 0.950 . S
C1330 C1331 1.386 . S
C1330 C1332 1.391 . S
C1331 C1330 1.386 . S
C1331 C1335 1.393 . S
C1332 H1321 0.950 . S
C1332 C1330 1.391 . S
C1332 C1333 1.400 . S
C1333 C1327 1.491 . S
C1333 C1332 1.400 . S
C1333 C1334 1.398 . S
C1334 H1322 0.950 . S
C1334 C1333 1.398 . S
C1334 C1335 1.391 . S
C1335 H1323 0.950 . S
C1335 C1331 1.393 . S
C1335 C1334 1.391 . S
H1336 C1344 0.950 . S
H1337 C1349 0.950 . S
H1338 C1346 0.950 . S
H1339 C1348 0.950 . S
H1340 C1350 0.950 . S
H1341 C1352 0.950 . S
H1342 C1354 0.950 . S
H1343 C1355 0.950 . S
C1344 H1336 0.950 . S
C1344 C1345 1.386 . S
C1344 C1346 1.391 . S
C1345 C1344 1.386 . S
C1345 C1349 1.393 . S
C1346 H1338 0.950 . S
C1346 C1344 1.391 . S
C1346 C1347 1.400 . S
C1347 C1346 1.400 . S
C1347 C1348 1.398 . S
C1347 C1353 1.491 . S
C1348 H1339 0.950 . S
C1348 C1347 1.398 . S
C1348 C1349 1.391 . S
C1349 H1337 0.950 . S
C1349 C1345 1.393 . S
C1349 C1348 1.391 . S
C1350 H1340 0.950 . S
C1350 C1351 1.386 . S
C1350 C1352 1.391 . S
C1351 C1350 1.386 . S
C1351 C1355 1.393 . S
C1352 H1341 0.950 . S
C1352 C1350 1.391 . S
C1352 C1353 1.400 . S
C1353 C1347 1.491 . S
C1353 C1352 1.400 . S
C1353 C1354 1.398 . S
C1354 H1342 0.950 . S
C1354 C1353 1.398 . S
C1354 C1355 1.391 . S
C1355 H1343 0.950 . S
C1355 C1351 1.393 . S
C1355 C1354 1.391 . S
H1356 C1364 0.950 . S
H1357 C1369 0.950 . S
H1358 C1366 0.950 . S
H1359 C1368 0.950 . S
H1360 C1370 0.950 . S
H1361 C1372 0.950 . S
H1362 C1374 0.950 . S
H1363 C1375 0.950 . S
C1364 H1356 0.950 . S
C1364 C1365 1.386 . S
C1364 C1366 1.391 . S
C1365 C1364 1.386 . S
C1365 C1369 1.393 . S
C1366 H1358 0.950 . S
C1366 C1364 1.391 . S
C1366 C1367 1.400 . S
C1367 C1366 1.400 . S
C1367 C1368 1.398 . S
C1367 C1373 1.491 . S
C1368 H1359 0.950 . S
C1368 C1367 1.398 . S
C1368 C1369 1.391 . S
C1369 H1357 0.950 . S
C1369 C1365 1.393 . S
C1369 C1368 1.391 . S
C1370 H1360 0.950 . S
C1370 C1371 1.386 . S
C1370 C1372 1.391 . S
C1371 C1370 1.386 . S
C1371 C1375 1.393 . S
C1372 H1361 0.950 . S
C1372 C1370 1.391 . S
C1372 C1373 1.400 . S
C1373 C1367 1.491 . S
C1373 C1372 1.400 . S
C1373 C1374 1.398 . S
C1374 H1362 0.950 . S
C1374 C1373 1.398 . S
C1374 C1375 1.391 . S
C1375 H1363 0.950 . S
C1375 C1371 1.393 . S
C1375 C1374 1.391 . S
H1376 C1384 0.950 . S
H1377 C1389 0.950 . S
H1378 C1386 0.950 . S
H1379 C1388 0.950 . S
H1380 C1390 0.950 . S
H1381 C1392 0.950 . S
H1382 C1394 0.950 . S
H1383 C1395 0.950 . S
C1384 H1376 0.950 . S
C1384 C1385 1.386 . S
C1384 C1386 1.391 . S
C1385 C1384 1.386 . S
C1385 C1389 1.393 . S
C1386 H1378 0.950 . S
C1386 C1384 1.391 . S
C1386 C1387 1.400 . S
C1387 C1386 1.400 . S
C1387 C1388 1.398 . S
C1387 C1393 1.491 . S
C1388 H1379 0.950 . S
C1388 C1387 1.398 . S
C1388 C1389 1.391 . S
C1389 H1377 0.950 . S
C1389 C1385 1.393 . S
C1389 C1388 1.391 . S
C1390 H1380 0.950 . S
C1390 C1391 1.386 . S
C1390 C1392 1.391 . S
C1391 C1390 1.386 . S
C1391 C1395 1.393 . S
C1392 H1381 0.950 . S
C1392 C1390 1.391 . S
C1392 C1393 1.400 . S
C1393 C1387 1.491 . S
C1393 C1392 1.400 . S
C1393 C1394 1.398 . S
C1394 H1382 0.950 . S
C1394 C1393 1.398 . S
C1394 C1395 1.391 . S
C1395 H1383 0.950 . S
C1395 C1391 1.393 . S
C1395 C1394 1.391 . S
H1396 C1404 0.950 . S
H1397 C1409 0.950 . S
H1398 C1406 0.950 . S
H1399 C1408 0.950 . S
H1400 C1410 0.950 . S
H1401 C1412 0.950 . S
H1402 C1414 0.950 . S
H1403 C1415 0.950 . S
C1404 H1396 0.950 . S
C1404 C1405 1.386 . S
C1404 C1406 1.391 . S
C1405 C1404 1.386 . S
C1405 C1409 1.393 . S
C1406 H1398 0.950 . S
C1406 C1404 1.391 . S
C1406 C1407 1.400 . S
C1407 C1406 1.400 . S
C1407 C1408 1.398 . S
C1407 C1413 1.491 . S
C1408 H1399 0.950 . S
C1408 C1407 1.398 . S
C1408 C1409 1.391 . S
C1409 H1397 0.950 . S
C1409 C1405 1.393 . S
C1409 C1408 1.391 . S
C1410 H1400 0.950 . S
C1410 C1411 1.386 . S
C1410 C1412 1.391 . S
C1411 C1410 1.386 . S
C1411 C1415 1.393 . S
C1412 H1401 0.950 . S
C1412 C1410 1.391 . S
C1412 C1413 1.400 . S
C1413 C1407 1.491 . S
C1413 C1412 1.400 . S
C1413 C1414 1.398 . S
C1414 H1402 0.950 . S
C1414 C1413 1.398 . S
C1414 C1415 1.391 . S
C1415 H1403 0.950 . S
C1415 C1411 1.393 . S
C1415 C1414 1.391 . S
H1416 C1424 0.950 . S
H1417 C1429 0.950 . S
H1418 C1426 0.950 . S
H1419 C1428 0.950 . S
H1420 C1430 0.950 . S
H1421 C1432 0.950 . S
H1422 C1434 0.950 . S
H1423 C1435 0.950 . S
C1424 H1416 0.950 . S
C1424 C1425 1.386 . S
C1424 C1426 1.391 . S
C1425 C1424 1.386 . S
C1425 C1429 1.393 . S
C1426 H1418 0.950 . S
C1426 C1424 1.391 . S
C1426 C1427 1.400 . S
C1427 C1426 1.400 . S
C1427 C1428 1.398 . S
C1427 C1433 1.491 . S
C1428 H1419 0.950 . S
C1428 C1427 1.398 . S
C1428 C1429 1.391 . S
C1429 H1417 0.950 . S
C1429 C1425 1.393 . S
C1429 C1428 1.391 . S
C1430 H1420 0.950 . S
C1430 C1431 1.386 . S
C1430 C1432 1.391 . S
C1431 C1430 1.386 . S
C1431 C1435 1.393 . S
C1432 H1421 0.950 . S
C1432 C1430 1.391 . S
C1432 C1433 1.400 . S
C1433 C1427 1.491 . S
C1433 C1432 1.400 . S
C1433 C1434 1.398 . S
C1434 H1422 0.950 . S
C1434 C1433 1.398 . S
C1434 C1435 1.391 . S
C1435 H1423 0.950 . S
C1435 C1431 1.393 . S
C1435 C1434 1.391 . S
H1436 C1444 0.950 . S
H1437 C1449 0.950 . S
H1438 C1446 0.950 . S
H1439 C1448 0.950 . S
H1440 C1450 0.950 . S
H1441 C1452 0.950 . S
H1442 C1454 0.950 . S
H1443 C1455 0.950 . S
C1444 H1436 0.950 . S
C1444 C1445 1.386 . S
C1444 C1446 1.391 . S
C1445 C1444 1.386 . S
C1445 C1449 1.393 . S
C1446 H1438 0.950 . S
C1446 C1444 1.391 . S
C1446 C1447 1.400 . S
C1447 C1446 1.400 . S
C1447 C1448 1.398 . S
C1447 C1453 1.491 . S
C1448 H1439 0.950 . S
C1448 C1447 1.398 . S
C1448 C1449 1.391 . S
C1449 H1437 0.950 . S
C1449 C1445 1.393 . S
C1449 C1448 1.391 . S
C1450 H1440 0.950 . S
C1450 C1451 1.386 . S
C1450 C1452 1.391 . S
C1451 C1450 1.386 . S
C1451 C1455 1.393 . S
C1452 H1441 0.950 . S
C1452 C1450 1.391 . S
C1452 C1453 1.400 . S
C1453 C1447 1.491 . S
C1453 C1452 1.400 . S
C1453 C1454 1.398 . S
C1454 H1442 0.950 . S
C1454 C1453 1.398 . S
C1454 C1455 1.391 . S
C1455 H1443 0.950 . S
C1455 C1451 1.393 . S
C1455 C1454 1.391 . S
H1456 C1464 0.950 . S
H1457 C1469 0.950 . S
H1458 C1466 0.950 . S
H1459 C1468 0.950 . S
H1460 C1470 0.950 . S
H1461 C1472 0.950 . S
H1462 C1474 0.950 . S
H1463 C1475 0.950 . S
C1464 H1456 0.950 . S
C1464 C1465 1.386 . S
C1464 C1466 1.391 . S
C1465 C1464 1.386 . S
C1465 C1469 1.393 . S
C1466 H1458 0.950 . S
C1466 C1464 1.391 . S
C1466 C1467 1.400 . S
C1467 C1466 1.400 . S
C1467 C1468 1.398 . S
C1467 C1473 1.491 . S
C1468 H1459 0.950 . S
C1468 C1467 1.398 . S
C1468 C1469 1.391 . S
C1469 H1457 0.950 . S
C1469 C1465 1.393 . S
C1469 C1468 1.391 . S
C1470 H1460 0.950 . S
C1470 C1471 1.386 . S
C1470 C1472 1.391 . S
C1471 C1470 1.386 . S
C1471 C1475 1.393 . S
C1472 H1461 0.950 . S
C1472 C1470 1.391 . S
C1472 C1473 1.400 . S
C1473 C1467 1.491 . S
C1473 C1472 1.400 . S
C1473 C1474 1.398 . S
C1474 H1462 0.950 . S
C1474 C1473 1.398 . S
C1474 C1475 1.391 . S
C1475 H1463 0.950 . S
C1475 C1471 1.393 . S
C1475 C1474 1.391 . S
H1476 C1484 0.950 . S
H1477 C1489 0.950 . S
H1478 C1486 0.950 . S
H1479 C1488 0.950 . S
H1480 C1490 0.950 . S
H1481 C1492 0.950 . S
H1482 C1494 0.950 . S
H1483 C1495 0.950 . S
C1484 H1476 0.950 . S
C1484 C1485 1.386 . S
C1484 C1486 1.391 . S
C1485 C1484 1.386 . S
C1485 C1489 1.393 . S
C1486 H1478 0.950 . S
C1486 C1484 1.391 . S
C1486 C1487 1.400 . S
C1487 C1486 1.400 . S
C1487 C1488 1.398 . S
C1487 C1493 1.491 . S
C1488 H1479 0.950 . S
C1488 C1487 1.398 . S
C1488 C1489 1.391 . S
C1489 H1477 0.950 . S
C1489 C1485 1.393 . S
C1489 C1488 1.391 . S
C1490 H1480 0.950 . S
C1490 C1491 1.386 . S
C1490 C1492 1.391 . S
C1491 C1490 1.386 . S
C1491 C1495 1.393 . S
C1492 H1481 0.950 . S
C1492 C1490 1.391 . S
C1492 C1493 1.400 . S
C1493 C1487 1.491 . S
C1493 C1492 1.400 . S
C1493 C1494 1.398 . S
C1494 H1482 0.950 . S
C1494 C1493 1.398 . S
C1494 C1495 1.391 . S
C1495 H1483 0.950 . S
C1495 C1491 1.393 . S
C1495 C1494 1.391 . S
H1496 C1504 0.950 . S
H1497 C1509 0.950 . S
H1498 C1506 0.950 . S
H1499 C1508 0.950 . S
H1500 C1510 0.950 . S
H1501 C1512 0.950 . S
H1502 C1514 0.950 . S
H1503 C1515 0.950 . S
C1504 H1496 0.950 . S
C1504 C1505 1.386 . S
C1504 C1506 1.391 . S
C1505 C1504 1.386 . S
C1505 C1509 1.393 . S
C1506 H1498 0.950 . S
C1506 C1504 1.391 . S
C1506 C1507 1.400 . S
C1507 C1506 1.400 . S
C1507 C1508 1.398 . S
C1507 C1513 1.491 . S
C1508 H1499 0.950 . S
C1508 C1507 1.398 . S
C1508 C1509 1.391 . S
C1509 H1497 0.950 . S
C1509 C1505 1.393 . S
C1509 C1508 1.391 . S
C1510 H1500 0.950 . S
C1510 C1511 1.386 . S
C1510 C1512 1.391 . S
C1511 C1510 1.386 . S
C1511 C1515 1.393 . S
C1512 H1501 0.950 . S
C1512 C1510 1.391 . S
C1512 C1513 1.400 . S
C1513 C1507 1.491 . S
C1513 C1512 1.400 . S
C1513 C1514 1.398 . S
C1514 H1502 0.950 . S
C1514 C1513 1.398 . S
C1514 C1515 1.391 . S
C1515 H1503 0.950 . S
C1515 C1511 1.393 . S
C1515 C1514 1.391 . S
H1516 C1524 0.950 . S
H1517 C1529 0.950 . S
H1518 C1526 0.950 . S
H1519 C1528 0.950 . S
H1520 C1530 0.950 . S
H1521 C1532 0.950 . S
H1522 C1534 0.950 . S
H1523 C1535 0.950 . S
C1524 H1516 0.950 . S
C1524 C1525 1.386 . S
C1524 C1526 1.391 . S
C1525 C1524 1.386 . S
C1525 C1529 1.393 . S
C1526 H1518 0.950 . S
C1526 C1524 1.391 . S
C1526 C1527 1.400 . S
C1527 C1526 1.400 . S
C1527 C1528 1.398 . S
C1527 C1533 1.491 . S
C1528 H1519 0.950 . S
C1528 C1527 1.398 . S
C1528 C1529 1.391 . S
C1529 H1517 0.950 . S
C1529 C1525 1.393 . S
C1529 C1528 1.391 . S
C1530 H1520 0.950 . S
C1530 C1531 1.386 . S
C1530 C1532 1.391 . S
C1531 C1530 1.386 . S
C1531 C1535 1.393 . S
C1532 H1521 0.950 . S
C1532 C1530 1.391 . S
C1532 C1533 1.400 . S
C1533 C1527 1.491 . S
C1533 C1532 1.400 . S
C1533 C1534 1.398 . S
C1534 H1522 0.950 . S
C1534 C1533 1.398 . S
C1534 C1535 1.391 . S
C1535 H1523 0.950 . S
C1535 C1531 1.393 . S
C1535 C1534 1.391 . S
H1536 C1544 0.950 . S
H1537 C1549 0.950 . S
H1538 C1546 0.950 . S
H1539 C1548 0.950 . S
H1540 C1550 0.950 . S
H1541 C1552 0.950 . S
H1542 C1554 0.950 . S
H1543 C1555 0.950 . S
C1544 H1536 0.950 . S
C1544 C1545 1.386 . S
C1544 C1546 1.391 . S
C1545 C1544 1.386 . S
C1545 C1549 1.393 . S
C1546 H1538 0.950 . S
C1546 C1544 1.391 . S
C1546 C1547 1.400 . S
C1547 C1546 1.400 . S
C1547 C1548 1.398 . S
C1547 C1553 1.491 . S
C1548 H1539 0.950 . S
C1548 C1547 1.398 . S
C1548 C1549 1.391 . S
C1549 H1537 0.950 . S
C1549 C1545 1.393 . S
C1549 C1548 1.391 . S
C1550 H1540 0.950 . S
C1550 C1551 1.386 . S
C1550 C1552 1.391 . S
C1551 C1550 1.386 . S
C1551 C1555 1.393 . S
C1552 H1541 0.950 . S
C1552 C1550 1.391 . S
C1552 C1553 1.400 . S
C1553 C1547 1.491 . S
C1553 C1552 1.400 . S
C1553 C1554 1.398 . S
C1554 H1542 0.950 . S
C1554 C1553 1.398 . S
C1554 C1555 1.391 . S
C1555 H1543 0.950 . S
C1555 C1551 1.393 . S
C1555 C1554 1.391 . S
H1556 C1564 0.950 . S
H1557 C1569 0.950 . S
H1558 C1566 0.950 . S
H1559 C1568 0.950 . S
H1560 C1570 0.950 . S
H1561 C1572 0.950 . S
H1562 C1574 0.950 . S
H1563 C1575 0.950 . S
C1564 H1556 0.950 . S
C1564 C1565 1.386 . S
C1564 C1566 1.391 . S
C1565 C1564 1.386 . S
C1565 C1569 1.393 . S
C1566 H1558 0.950 . S
C1566 C1564 1.391 . S
C1566 C1567 1.400 . S
C1567 C1566 1.400 . S
C1567 C1568 1.398 . S
C1567 C1573 1.491 . S
C1568 H1559 0.950 . S
C1568 C1567 1.398 . S
C1568 C1569 1.391 . S
C1569 H1557 0.950 . S
C1569 C1565 1.393 . S
C1569 C1568 1.391 . S
C1570 H1560 0.950 . S
C1570 C1571 1.386 . S
C1570 C1572 1.391 . S
C1571 C1570 1.386 . S
C1571 C1575 1.393 . S
C1572 H1561 0.950 . S
C1572 C1570 1.391 . S
C1572 C1573 1.400 . S
C1573 C1567 1.491 . S
C1573 C1572 1.400 . S
C1573 C1574 1.398 . S
C1574 H1562 0.950 . S
C1574 C1573 1.398 . S
C1574 C1575 1.391 . S
C1575 H1563 0.950 . S
C1575 C1571 1.393 . S
C1575 C1574 1.391 . S
H1576 C1584 0.950 . S
H1577 C1589 0.950 . S
H1578 C1586 0.950 . S
H1579 C1588 0.950 . S
H1580 C1590 0.950 . S
H1581 C1592 0.950 . S
H1582 C1594 0.950 . S
H1583 C1595 0.950 . S
C1584 H1576 0.950 . S
C1584 C1585 1.386 . S
C1584 C1586 1.391 . S
C1585 C1584 1.386 . S
C1585 C1589 1.393 . S
C1586 H1578 0.950 . S
C1586 C1584 1.391 . S
C1586 C1587 1.400 . S
C1587 C1586 1.400 . S
C1587 C1588 1.398 . S
C1587 C1593 1.491 . S
C1588 H1579 0.950 . S
C1588 C1587 1.398 . S
C1588 C1589 1.391 . S
C1589 H1577 0.950 . S
C1589 C1585 1.393 . S
C1589 C1588 1.391 . S
C1590 H1580 0.950 . S
C1590 C1591 1.386 . S
C1590 C1592 1.391 . S
C1591 C1590 1.386 . S
C1591 C1595 1.393 . S
C1592 H1581 0.950 . S
C1592 C1590 1.391 . S
C1592 C1593 1.400 . S
C1593 C1587 1.491 . S
C1593 C1592 1.400 . S
C1593 C1594 1.398 . S
C1594 H1582 0.950 . S
C1594 C1593 1.398 . S
C1594 C1595 1.391 . S
C1595 H1583 0.950 . S
C1595 C1591 1.393 . S
C1595 C1594 1.391 . S
H1596 C1604 0.950 . S
H1597 C1609 0.950 . S
H1598 C1606 0.950 . S
H1599 C1608 0.950 . S
H1600 C1610 0.950 . S
H1601 C1612 0.950 . S
H1602 C1614 0.950 . S
H1603 C1615 0.950 . S
C1604 H1596 0.950 . S
C1604 C1605 1.386 . S
C1604 C1606 1.391 . S
C1605 C1604 1.386 . S
C1605 C1609 1.393 . S
C1606 H1598 0.950 . S
C1606 C1604 1.391 . S
C1606 C1607 1.400 . S
C1607 C1606 1.400 . S
C1607 C1608 1.398 . S
C1607 C1613 1.491 . S
C1608 H1599 0.950 . S
C1608 C1607 1.398 . S
C1608 C1609 1.391 . S
C1609 H1597 0.950 . S
C1609 C1605 1.393 . S
C1609 C1608 1.391 . S
C1610 H1600 0.950 . S
C1610 C1611 1.386 . S
C1610 C1612 1.391 . S
C1611 C1610 1.386 . S
C1611 C1615 1.393 . S
C1612 H1601 0.950 . S
C1612 C1610 1.391 . S
C1612 C1613 1.400 . S
C1613 C1607 1.491 . S
C1613 C1612 1.400 . S
C1613 C1614 1.398 . S
C1614 H1602 0.950 . S
C1614 C1613 1.398 . S
C1614 C1615 1.391 . S
C1615 H1603 0.950 . S
C1615 C1611 1.393 . S
C1615 C1614 1.391 . S
H1616 C1624 0.950 . S
H1617 C1629 0.950 . S
H1618 C1626 0.950 . S
H1619 C1628 0.950 . S
H1620 C1630 0.950 . S
H1621 C1632 0.950 . S
H1622 C1634 0.950 . S
H1623 C1635 0.950 . S
C1624 H1616 0.950 . S
C1624 C1625 1.386 . S
C1624 C1626 1.391 . S
C1625 C1624 1.386 . S
C1625 C1629 1.393 . S
C1626 H1618 0.950 . S
C1626 C1624 1.391 . S
C1626 C1627 1.400 . S
C1627 C1626 1.400 . S
C1627 C1628 1.398 . S
C1627 C1633 1.491 . S
C1628 H1619 0.950 . S
C1628 C1627 1.398 . S
C1628 C1629 1.391 . S
C1629 H1617 0.950 . S
C1629 C1625 1.393 . S
C1629 C1628 1.391 . S
C1630 H1620 0.950 . S
C1630 C1631 1.386 . S
C1630 C1632 1.391 . S
C1631 C1630 1.386 . S
C1631 C1635 1.393 . S
C1632 H1621 0.950 . S
C1632 C1630 1.391 . S
C1632 C1633 1.400 . S
C1633 C1627 1.491 . S
C1633 C1632 1.400 . S
C1633 C1634 1.398 . S
C1634 H1622 0.950 . S
C1634 C1633 1.398 . S
C1634 C1635 1.391 . S
C1635 H1623 0.950 . S
C1635 C1631 1.393 . S
C1635 C1634 1.391 . S
H1636 C1644 0.950 . S
H1637 C1649 0.950 . S
H1638 C1646 0.950 . S
H1639 C1648 0.950 . S
H1640 C1650 0.950 . S
H1641 C1652 0.950 . S
H1642 C1654 0.950 . S
H1643 C1655 0.950 . S
C1644 H1636 0.950 . S
C1644 C1645 1.386 . S
C1644 C1646 1.391 . S
C1645 C1644 1.386 . S
C1645 C1649 1.393 . S
C1646 H1638 0.950 . S
C1646 C1644 1.391 . S
C1646 C1647 1.400 . S
C1647 C1646 1.400 . S
C1647 C1648 1.398 . S
C1647 C1653 1.491 . S
C1648 H1639 0.950 . S
C1648 C1647 1.398 . S
C1648 C1649 1.391 . S
C1649 H1637 0.950 . S
C1649 C1645 1.393 . S
C1649 C1648 1.391 . S
C1650 H1640 0.950 . S
C1650 C1651 1.386 . S
C1650 C1652 1.391 . S
C1651 C1650 1.386 . S
C1651 C1655 1.393 . S
C1652 H1641 0.950 . S
C1652 C1650 1.391 . S
C1652 C1653 1.400 . S
C1653 C1647 1.491 . S
C1653 C1652 1.400 . S
C1653 C1654 1.398 . S
C1654 H1642 0.950 . S
C1654 C1653 1.398 . S
C1654 C1655 1.391 . S
C1655 H1643 0.950 . S
C1655 C1651 1.393 . S
C1655 C1654 1.391 . S
C585 C162 1.671 . S
C591 C219 1.679 . S
C605 C174 1.807 . S
C611 C259 1.804 . S
C625 C150 1.608 . S
C631 C311 1.596 . S
C645 C138 1.478 . S
C651 C271 1.449 1_556 S
C671 C299 1.503 . S
C665 C114 1.507 . S
C685 C126 1.350 . S
C691 C231 1.331 1_556 S
C711 C238 1.677 . S
C705 C136 1.651 . S
C731 C278 1.674 . S
C725 C112 1.657 . S
C745 C124 1.658 . S
C751 C298 1.698 . S
C765 C160 1.485 . S
C771 C258 1.502 . S
C785 C172 1.456 . S
C791 C318 1.464 . S
C811 C218 1.471 . S
C805 C148 1.438 . S
C831 C339 1.681 . S
C825 C18 1.678 . S
C845 C30 1.803 . S
C851 C379 1.798 . S
C865 C6 1.595 . S
C871 C431 1.585 . S
C885 C210 1.485 . S
C891 C391 1.460 . S
C905 C186 1.507 . S
C911 C419 1.503 . S
C925 C198 1.350 . S
C931 C351 1.341 . S
C945 C208 1.643 . S
C951 C358 1.672 . S
C965 C184 1.653 . S
C971 C398 1.672 . S
C991 C418 1.675 . S
C985 C196 1.635 . S
C1005 C16 1.493 . S
C1011 C378 1.514 . S
C1031 C438 1.458 . S
C1025 C28 1.453 . S
C1045 C4 1.452 . S
C1051 C338 1.480 . S
C1071 C459 1.680 . S
C1065 C90 1.675 . S
C1085 C102 1.807 . S
C1091 C499 1.805 . S
C1111 C551 1.582 . S
C1105 C78 1.603 . S
C1131 C511 1.446 . S
C1125 C66 1.475 . S
C1151 C539 1.503 . S
C1145 C42 1.507 . S
C1165 C54 1.362 . S
C1171 C471 1.350 . S
C1185 C64 1.642 . S
C1191 C478 1.671 . S
C1205 C40 1.667 . S
C1211 C518 1.681 . S
C1231 C538 1.677 . S
C1225 C52 1.643 . S
C1245 C88 1.503 . S
C1251 C498 1.515 . S
C1265 C100 1.443 . S
C1271 C558 1.455 . S
C1285 C76 1.446 . S
C1291 C458 1.477 . S
C1305 C189 1.508 . S
C1311 C242 1.480 . S
C1331 C282 1.919 . S
C1325 C201 1.959 . S
C1345 C213 1.575 . S
C1351 C305 1.583 . S
C1365 C81 1.785 . S
C1371 C265 1.787 . S
C1385 C93 1.699 . S
C1391 C322 1.680 . S
C1411 C225 1.309 . S
C1405 C105 1.306 . S
C1425 C45 1.510 . S
C1431 C362 1.487 . S
C1445 C57 1.962 . S
C1451 C402 1.923 . S
C1465 C69 1.563 . S
C1471 C425 1.581 . S
C1485 C153 1.790 . S
C1491 C385 1.793 . S
C1511 C442 1.679 . S
C1505 C165 1.698 . S
C1525 C177 1.308 . S
C1531 C345 1.312 . S
C1545 C117 1.505 . S
C1551 C482 1.476 . S
C1565 C129 1.959 . S
C1571 C522 1.919 . S
C1591 C545 1.581 . S
C1585 C141 1.574 . S
C1605 C9 1.794 . S
C1611 C505 1.786 . S
C1625 C21 1.690 . S
C1631 C562 1.665 . S
C1645 C33 1.309 . S
C1651 C465 1.309 . S
