# Generated by pormake.
# Topology eea, (3,6)-cn, num edge types: 1
# Building blocks:
#     Node 0, Type 0, BuildingBlock: VETTIZ_charged_linker_0, # of connection points: 3
#     Node 1, Type 0, BuildingBlock: VETTIZ_charged_linker_0, # of connection points: 3
#     Node 2, Type 0, BuildingBlock: VETTIZ_charged_linker_0, # of connection points: 3
#     Node 3, Type 0, BuildingBlock: VETTIZ_charged_linker_0, # of connection points: 3
#     Node 4, Type 0, BuildingBlock: VETTIZ_charged_linker_0, # of connection points: 3
#     Node 5, Type 0, BuildingBlock: VETTIZ_charged_linker_0, # of connection points: 3
#     Node 6, Type 0, BuildingBlock: VETTIZ_charged_linker_0, # of connection points: 3
#     Node 7, Type 0, BuildingBlock: VETTIZ_charged_linker_0, # of connection points: 3
#     Node 8, Type 0, BuildingBlock: VETTIZ_charged_linker_0, # of connection points: 3
#     Node 9, Type 0, BuildingBlock: VETTIZ_charged_linker_0, # of connection points: 3
#     Node 10, Type 0, BuildingBlock: VETTIZ_charged_linker_0, # of connection points: 3
#     Node 11, Type 0, BuildingBlock: VETTIZ_charged_linker_0, # of connection points: 3
#     Node 12, Type 0, BuildingBlock: VETTIZ_charged_linker_0, # of connection points: 3
#     Node 13, Type 0, BuildingBlock: VETTIZ_charged_linker_0, # of connection points: 3
#     Node 14, Type 0, BuildingBlock: VETTIZ_charged_linker_0, # of connection points: 3
#     Node 15, Type 0, BuildingBlock: VETTIZ_charged_linker_0, # of connection points: 3
#     Node 16, Type 0, BuildingBlock: VETTIZ_charged_linker_0, # of connection points: 3
#     Node 17, Type 0, BuildingBlock: VETTIZ_charged_linker_0, # of connection points: 3
#     Node 18, Type 1, BuildingBlock: KUMJIN_clean_sbu_0, # of connection points: 6
#     Node 19, Type 1, BuildingBlock: KUMJIN_clean_sbu_0, # of connection points: 6
#     Node 20, Type 1, BuildingBlock: KUMJIN_clean_sbu_0, # of connection points: 6
#     Node 21, Type 1, BuildingBlock: KUMJIN_clean_sbu_0, # of connection points: 6
#     Node 22, Type 1, BuildingBlock: KUMJIN_clean_sbu_0, # of connection points: 6
#     Node 23, Type 1, BuildingBlock: KUMJIN_clean_sbu_0, # of connection points: 6
#     Node 24, Type 1, BuildingBlock: KUMJIN_clean_sbu_0, # of connection points: 6
#     Node 25, Type 1, BuildingBlock: KUMJIN_clean_sbu_0, # of connection points: 6
#     Node 26, Type 1, BuildingBlock: KUMJIN_clean_sbu_0, # of connection points: 6
#     Edge 27, Type (0, 1), BuildingBlock: XIVTED_clean_linker_0, # of connection points: 2
#     Edge 28, Type (0, 1), BuildingBlock: XIVTED_clean_linker_0, # of connection points: 2
#     Edge 29, Type (0, 1), BuildingBlock: XIVTED_clean_linker_0, # of connection points: 2
#     Edge 30, Type (0, 1), BuildingBlock: XIVTED_clean_linker_0, # of connection points: 2
#     Edge 31, Type (0, 1), BuildingBlock: XIVTED_clean_linker_0, # of connection points: 2
#     Edge 32, Type (0, 1), BuildingBlock: XIVTED_clean_linker_0, # of connection points: 2
#     Edge 33, Type (0, 1), BuildingBlock: XIVTED_clean_linker_0, # of connection points: 2
#     Edge 34, Type (0, 1), BuildingBlock: XIVTED_clean_linker_0, # of connection points: 2
#     Edge 35, Type (0, 1), BuildingBlock: XIVTED_clean_linker_0, # of connection points: 2
#     Edge 36, Type (0, 1), BuildingBlock: XIVTED_clean_linker_0, # of connection points: 2
#     Edge 37, Type (0, 1), BuildingBlock: XIVTED_clean_linker_0, # of connection points: 2
#     Edge 38, Type (0, 1), BuildingBlock: XIVTED_clean_linker_0, # of connection points: 2
#     Edge 39, Type (0, 1), BuildingBlock: XIVTED_clean_linker_0, # of connection points: 2
#     Edge 40, Type (0, 1), BuildingBlock: XIVTED_clean_linker_0, # of connection points: 2
#     Edge 41, Type (0, 1), BuildingBlock: XIVTED_clean_linker_0, # of connection points: 2
#     Edge 42, Type (0, 1), BuildingBlock: XIVTED_clean_linker_0, # of connection points: 2
#     Edge 43, Type (0, 1), BuildingBlock: XIVTED_clean_linker_0, # of connection points: 2
#     Edge 44, Type (0, 1), BuildingBlock: XIVTED_clean_linker_0, # of connection points: 2
#     Edge 45, Type (0, 1), BuildingBlock: XIVTED_clean_linker_0, # of connection points: 2
#     Edge 46, Type (0, 1), BuildingBlock: XIVTED_clean_linker_0, # of connection points: 2
#     Edge 47, Type (0, 1), BuildingBlock: XIVTED_clean_linker_0, # of connection points: 2
#     Edge 48, Type (0, 1), BuildingBlock: XIVTED_clean_linker_0, # of connection points: 2
#     Edge 49, Type (0, 1), BuildingBlock: XIVTED_clean_linker_0, # of connection points: 2
#     Edge 50, Type (0, 1), BuildingBlock: XIVTED_clean_linker_0, # of connection points: 2
#     Edge 51, Type (0, 1), BuildingBlock: XIVTED_clean_linker_0, # of connection points: 2
#     Edge 52, Type (0, 1), BuildingBlock: XIVTED_clean_linker_0, # of connection points: 2
#     Edge 53, Type (0, 1), BuildingBlock: XIVTED_clean_linker_0, # of connection points: 2
#     Edge 54, Type (0, 1), BuildingBlock: XIVTED_clean_linker_0, # of connection points: 2
#     Edge 55, Type (0, 1), BuildingBlock: XIVTED_clean_linker_0, # of connection points: 2
#     Edge 56, Type (0, 1), BuildingBlock: XIVTED_clean_linker_0, # of connection points: 2
#     Edge 57, Type (0, 1), BuildingBlock: XIVTED_clean_linker_0, # of connection points: 2
#     Edge 58, Type (0, 1), BuildingBlock: XIVTED_clean_linker_0, # of connection points: 2
#     Edge 59, Type (0, 1), BuildingBlock: XIVTED_clean_linker_0, # of connection points: 2
#     Edge 60, Type (0, 1), BuildingBlock: XIVTED_clean_linker_0, # of connection points: 2
#     Edge 61, Type (0, 1), BuildingBlock: XIVTED_clean_linker_0, # of connection points: 2
#     Edge 62, Type (0, 1), BuildingBlock: XIVTED_clean_linker_0, # of connection points: 2
#     Edge 63, Type (0, 1), BuildingBlock: XIVTED_clean_linker_0, # of connection points: 2
#     Edge 64, Type (0, 1), BuildingBlock: XIVTED_clean_linker_0, # of connection points: 2
#     Edge 65, Type (0, 1), BuildingBlock: XIVTED_clean_linker_0, # of connection points: 2
#     Edge 66, Type (0, 1), BuildingBlock: XIVTED_clean_linker_0, # of connection points: 2
#     Edge 67, Type (0, 1), BuildingBlock: XIVTED_clean_linker_0, # of connection points: 2
#     Edge 68, Type (0, 1), BuildingBlock: XIVTED_clean_linker_0, # of connection points: 2
#     Edge 69, Type (0, 1), BuildingBlock: XIVTED_clean_linker_0, # of connection points: 2
#     Edge 70, Type (0, 1), BuildingBlock: XIVTED_clean_linker_0, # of connection points: 2
#     Edge 71, Type (0, 1), BuildingBlock: XIVTED_clean_linker_0, # of connection points: 2
#     Edge 72, Type (0, 1), BuildingBlock: XIVTED_clean_linker_0, # of connection points: 2
#     Edge 73, Type (0, 1), BuildingBlock: XIVTED_clean_linker_0, # of connection points: 2
#     Edge 74, Type (0, 1), BuildingBlock: XIVTED_clean_linker_0, # of connection points: 2
#     Edge 75, Type (0, 1), BuildingBlock: XIVTED_clean_linker_0, # of connection points: 2
#     Edge 76, Type (0, 1), BuildingBlock: XIVTED_clean_linker_0, # of connection points: 2
#     Edge 77, Type (0, 1), BuildingBlock: XIVTED_clean_linker_0, # of connection points: 2
#     Edge 78, Type (0, 1), BuildingBlock: XIVTED_clean_linker_0, # of connection points: 2
#     Edge 79, Type (0, 1), BuildingBlock: XIVTED_clean_linker_0, # of connection points: 2
#     Edge 80, Type (0, 1), BuildingBlock: XIVTED_clean_linker_0, # of connection points: 2
# Relax obj value: 0.010
# Max RMSD: 0.096
# Mean RMSD: 0.061
data_MOF--net-eea--node1-KUMJIN_clean_sbu_0--node2-VETTIZ_charged_linker_0--edge1-XIVTED_clean_linker_0
_symmetry_space_group_name_H-M    P1
_symmetry_Int_Tables_number       1
_symmetry_cell_setting            triclinic
loop_
_symmetry_equiv_pos_as_xyz
'x, y, z'
_cell_length_a     62.109466
_cell_length_b     63.476526
_cell_length_c     88.860309
_cell_angle_alpha  90.13394
_cell_angle_beta   90.09074
_cell_angle_gamma 119.95868
loop_
_atom_site_label
_atom_site_type_symbol
_atom_site_fract_x
_atom_site_fract_y
_atom_site_fract_z
_atom_type_partial_charge
C0 C 0.22692 0.17001 0.39774 0.0
C1 C 0.23205 0.19247 0.40395 0.0
C2 C 0.24631 0.20053 0.41732 0.0
C3 C 0.24943 0.16397 0.41806 0.0
C4 C 0.23605 0.15638 0.40479 0.0
C5 C 0.23332 0.13288 0.39909 0.0
H6 H 0.25762 0.04108 0.40704 0.0
C7 C 0.25601 0.14544 0.42247 0.0
C8 C 0.2469 0.12738 0.41126 0.0
H9 H 0.21604 0.0517 0.37159 0.0
H10 H 0.22311 0.08866 0.38339 0.0
H11 H 0.30127 0.09815 0.4115 0.0
H12 H 0.23104 0.05166 0.43265 0.0
H13 H 0.24987 0.07201 0.44669 0.0
H14 H 0.25871 0.05152 0.43826 0.0
H15 H 0.295 0.07249 0.423 0.0
H16 H 0.30526 0.102 0.43116 0.0
C17 C 0.2467 0.13788 0.38368 0.0
C18 C 0.20524 0.1137 0.3986 0.0
C19 C 0.29767 0.15165 0.47293 0.0
C20 C 0.30417 0.1361 0.48041 0.0
C21 C 0.30089 0.11507 0.47295 0.0
C22 C 0.29094 0.10938 0.45838 0.0
C23 C 0.28394 0.12474 0.45119 0.0
C24 C 0.28742 0.14553 0.45842 0.0
C25 C 0.27834 0.15935 0.44912 0.0
C26 C 0.26832 0.1431 0.4353 0.0
C27 C 0.27184 0.12296 0.43656 0.0
C28 C 0.30088 0.18455 0.4453 0.0
C29 C 0.2575 0.16048 0.45799 0.0
C30 C 0.24989 0.05122 0.4018 0.0
C31 C 0.23643 0.04334 0.38819 0.0
C32 C 0.22699 0.05746 0.38182 0.0
C33 C 0.23091 0.0789 0.38879 0.0
C34 C 0.24422 0.08636 0.40239 0.0
C35 C 0.2533 0.07251 0.40874 0.0
C36 C 0.26576 0.08252 0.42367 0.0
C37 C 0.26332 0.1051 0.42499 0.0
C38 C 0.2508 0.10726 0.41246 0.0
C39 C 0.29327 0.08906 0.42241 0.0
C40 C 0.25081 0.06352 0.43601 0.0
H41 H 0.26556 0.1935 0.43455 0.0
H42 H 0.21587 0.16291 0.38761 0.0
H43 H 0.19518 0.1165 0.40805 0.0
H44 H 0.20156 0.0949 0.40003 0.0
H45 H 0.19656 0.11487 0.38793 0.0
H46 H 0.26338 0.15639 0.38343 0.0
H47 H 0.23424 0.13674 0.37435 0.0
H48 H 0.25394 0.1255 0.38126 0.0
H49 H 0.29983 0.16785 0.47842 0.0
H50 H 0.30608 0.10301 0.47841 0.0
H51 H 0.28891 0.09313 0.45333 0.0
H52 H 0.31829 0.18366 0.4445 0.0
H53 H 0.3038 0.19824 0.45407 0.0
H54 H 0.29905 0.19132 0.43419 0.0
H55 H 0.2447 0.14253 0.46314 0.0
H56 H 0.24565 0.16476 0.45086 0.0
H57 H 0.26539 0.17414 0.4672 0.0
H58 H 0.25122 0.21798 0.42224 0.0
C59 C 0.25489 0.18638 0.42442 0.0
C60 C 0.95621 0.17236 0.39546 0.0
C61 C 0.97304 0.19571 0.40093 0.0
C62 C 0.969 0.20268 0.41527 0.0
C63 C 0.93181 0.16339 0.41836 0.0
C64 C 0.93575 0.15666 0.40427 0.0
C65 C 0.91563 0.1316 0.39983 0.0
H66 H 0.80796 0.02935 0.41634 0.0
C67 C 0.90872 0.14288 0.42451 0.0
C68 C 0.89913 0.12426 0.41365 0.0
H69 H 0.85105 0.04638 0.37542 0.0
H70 H 0.8814 0.08508 0.38581 0.0
H71 H 0.8532 0.04888 0.43868 0.0
H72 H 0.81371 0.08269 0.42052 0.0
H73 H 0.81864 0.09004 0.43977 0.0
H74 H 0.80054 0.05863 0.4341 0.0
H75 H 0.8235 0.04234 0.44581 0.0
H76 H 0.85211 0.06724 0.4531 0.0
C77 C 0.92764 0.11549 0.39764 0.0
C78 C 0.90228 0.13386 0.38568 0.0
C79 C 0.87849 0.1485 0.47692 0.0
C80 C 0.85815 0.13189 0.48563 0.0
C81 C 0.8416 0.1088 0.47954 0.0
C82 C 0.84514 0.10232 0.46507 0.0
C83 C 0.86551 0.11904 0.45651 0.0
C84 C 0.88189 0.14164 0.46247 0.0
C85 C 0.90277 0.15677 0.45177 0.0
C86 C 0.89614 0.13952 0.43844 0.0
C87 C 0.8742 0.11752 0.44129 0.0
C88 C 0.92751 0.16212 0.45929 0.0
C89 C 0.90133 0.17975 0.44771 0.0
C90 C 0.82381 0.04151 0.40956 0.0
C91 C 0.82705 0.03475 0.39502 0.0
C92 C 0.84822 0.05098 0.38671 0.0
C93 C 0.86577 0.07356 0.39274 0.0
C94 C 0.8622 0.0801 0.40725 0.0
C95 C 0.84152 0.06415 0.41541 0.0
C96 C 0.84085 0.07412 0.43067 0.0
C97 C 0.86436 0.09882 0.43022 0.0
C98 C 0.87677 0.10219 0.41649 0.0
C99 C 0.8423 0.05731 0.44278 0.0
C100 C 0.81717 0.07642 0.43147 0.0
H101 H 0.94654 0.19302 0.43483 0.0
H102 H 0.95858 0.16661 0.3844 0.0
H103 H 0.9022 0.15135 0.38571 0.0
H104 H 0.88245 0.11974 0.38511 0.0
H105 H 0.91166 0.13321 0.3752 0.0
H106 H 0.94244 0.11997 0.40619 0.0
H107 H 0.93629 0.11831 0.38635 0.0
H108 H 0.91438 0.09592 0.39918 0.0
H109 H 0.89168 0.1663 0.48132 0.0
H110 H 0.82561 0.09578 0.48591 0.0
H111 H 0.8318 0.08451 0.46112 0.0
H112 H 0.9251 0.14598 0.46562 0.0
H113 H 0.93412 0.17752 0.46736 0.0
H114 H 0.94239 0.1661 0.4511 0.0
H115 H 0.88166 0.17544 0.44689 0.0
H116 H 0.90941 0.18727 0.4366 0.0
H117 H 0.91066 0.19415 0.4564 0.0
H118 H 0.98182 0.22052 0.41978 0.0
C119 C 0.94855 0.18665 0.42402 0.0
C120 C 0.95879 0.7893 0.3932 0.0
C121 C 0.97877 0.78786 0.39959 0.0
C122 C 0.97684 0.77999 0.4146 0.0
C123 C 0.93557 0.77501 0.41659 0.0
C124 C 0.93758 0.78309 0.40193 0.0
C125 C 0.91521 0.78485 0.3972 0.0
H126 H 0.80121 0.76866 0.41372 0.0
C127 C 0.91124 0.77012 0.4226 0.0
C128 C 0.89931 0.77609 0.4113 0.0
H129 H 0.8432 0.79739 0.37277 0.0
H130 H 0.87674 0.79289 0.38307 0.0
H131 H 0.81449 0.72565 0.41836 0.0
H132 H 0.84607 0.79842 0.43582 0.0
H133 H 0.84699 0.7805 0.45053 0.0
H134 H 0.81737 0.77389 0.44277 0.0
H135 H 0.79896 0.73431 0.43195 0.0
H136 H 0.82056 0.72464 0.43759 0.0
C137 C 0.90271 0.76736 0.38374 0.0
C138 C 0.92387 0.81185 0.39375 0.0
C139 C 0.88394 0.73457 0.47525 0.0
C140 C 0.86248 0.72831 0.48381 0.0
C141 C 0.84379 0.73203 0.47751 0.0
C142 C 0.84625 0.74159 0.463 0.0
C143 C 0.86769 0.74766 0.45457 0.0
C144 C 0.8862 0.7443 0.46075 0.0
C145 C 0.90795 0.75244 0.45023 0.0
C146 C 0.89922 0.7608 0.43665 0.0
C147 C 0.87557 0.75785 0.43926 0.0
C148 C 0.91076 0.73011 0.44647 0.0
C149 C 0.93113 0.77377 0.45779 0.0
C150 C 0.81752 0.77377 0.40691 0.0
C151 C 0.81944 0.78329 0.39237 0.0
C152 C 0.84128 0.79017 0.38403 0.0
C153 C 0.86072 0.78746 0.39002 0.0
C154 C 0.85849 0.7779 0.40457 0.0
C155 C 0.83717 0.77137 0.41277 0.0
C156 C 0.83819 0.76209 0.42817 0.0
C157 C 0.86358 0.76404 0.42788 0.0
C158 C 0.87538 0.77318 0.414 0.0
C159 C 0.81691 0.73532 0.42924 0.0
C160 C 0.83692 0.7794 0.44003 0.0
H161 H 0.95507 0.76749 0.43441 0.0
H162 H 0.95989 0.79565 0.38177 0.0
H163 H 0.93978 0.82423 0.40108 0.0
H164 H 0.90941 0.81669 0.39608 0.0
H165 H 0.93 0.81637 0.38188 0.0
H166 H 0.90231 0.74984 0.38563 0.0
H167 H 0.91305 0.77534 0.37315 0.0
H168 H 0.88314 0.76242 0.38208 0.0
H169 H 0.8988 0.73225 0.47981 0.0
H170 H 0.82695 0.72714 0.48372 0.0
H171 H 0.83125 0.74379 0.45889 0.0
H172 H 0.89225 0.71379 0.44438 0.0
H173 H 0.91964 0.72585 0.45595 0.0
H174 H 0.92155 0.73245 0.43615 0.0
H175 H 0.92583 0.78458 0.46521 0.0
H176 H 0.94413 0.78704 0.44956 0.0
H177 H 0.94122 0.76704 0.46482 0.0
H178 H 0.99193 0.77864 0.41975 0.0
C179 C 0.95538 0.77346 0.42308 0.0
C180 C 0.16801 0.20832 0.61641 0.0
C181 C 0.19127 0.21402 0.61035 0.0
C182 C 0.19728 0.22373 0.5957 0.0
C183 C 0.15795 0.22291 0.59362 0.0
C184 C 0.15176 0.21308 0.6079 0.0
C185 C 0.12677 0.20923 0.61276 0.0
H186 H 0.02692 0.22303 0.59845 0.0
C187 C 0.13754 0.2264 0.58792 0.0
C188 C 0.11916 0.21848 0.59909 0.0
H189 H 0.04098 0.19228 0.63806 0.0
H190 H 0.07898 0.19776 0.62702 0.0
H191 H 0.08349 0.26693 0.59376 0.0
H192 H 0.04285 0.19481 0.57477 0.0
H193 H 0.06099 0.2146 0.56037 0.0
H194 H 0.03713 0.21871 0.56912 0.0
H195 H 0.05826 0.25802 0.58072 0.0
H196 H 0.08957 0.26889 0.57433 0.0
C197 C 0.13076 0.2251 0.62689 0.0
C198 C 0.10919 0.18166 0.61524 0.0
C199 C 0.14518 0.2636 0.53614 0.0
C200 C 0.12993 0.26985 0.52775 0.0
C201 C 0.10702 0.26503 0.53401 0.0
C202 C 0.09964 0.25452 0.54834 0.0
C203 C 0.11526 0.24867 0.55662 0.0
C204 C 0.13754 0.25312 0.55043 0.0
C205 C 0.15185 0.24581 0.56077 0.0
C206 C 0.1345 0.23615 0.5742 0.0
C207 C 0.11311 0.23791 0.57177 0.0
C208 C 0.17677 0.26897 0.5648 0.0
C209 C 0.15468 0.22552 0.55288 0.0
C210 C 0.03828 0.21765 0.6048 0.0
C211 C 0.03095 0.20738 0.61923 0.0
C212 C 0.04606 0.20012 0.62692 0.0
C213 C 0.06823 0.20346 0.62052 0.0
C214 C 0.07548 0.21412 0.60621 0.0
C215 C 0.06039 0.22071 0.59852 0.0
C216 C 0.07062 0.23112 0.58325 0.0
C217 C 0.09456 0.23012 0.58313 0.0
C218 C 0.09744 0.22027 0.59666 0.0
C219 C 0.07567 0.25759 0.58284 0.0
C220 C 0.05198 0.21415 0.57116 0.0
H221 H 0.18668 0.23561 0.57631 0.0
H222 H 0.16288 0.20096 0.62765 0.0
H223 H 0.11286 0.1708 0.60684 0.0
H224 H 0.08941 0.17608 0.61366 0.0
H225 H 0.11182 0.17608 0.62662 0.0
H226 H 0.14796 0.2431 0.62578 0.0
H227 H 0.1327 0.21625 0.63716 0.0
H228 H 0.11572 0.22929 0.62865 0.0
H229 H 0.16272 0.26667 0.53168 0.0
H230 H 0.09497 0.26985 0.52795 0.0
H231 H 0.08212 0.25155 0.55248 0.0
H232 H 0.17459 0.28533 0.5651 0.0
H233 H 0.19136 0.27236 0.5564 0.0
H234 H 0.18365 0.26822 0.57615 0.0
H235 H 0.13766 0.21323 0.54632 0.0
H236 H 0.15696 0.21348 0.56087 0.0
H237 H 0.17059 0.23334 0.54495 0.0
H238 H 0.21485 0.22793 0.59066 0.0
C239 C 0.18082 0.22812 0.58734 0.0
C240 C 0.78605 0.83032 0.60829 0.0
C241 C 0.77815 0.80653 0.60322 0.0
C242 C 0.76217 0.79766 0.59059 0.0
C243 C 0.7623 0.8358 0.58852 0.0
C244 C 0.77763 0.84435 0.60099 0.0
C245 C 0.78296 0.86923 0.60573 0.0
H246 H 0.76064 0.96224 0.59767 0.0
C247 C 0.75661 0.85482 0.58381 0.0
C248 C 0.76839 0.87428 0.59399 0.0
H249 H 0.809 0.95508 0.62992 0.0
H250 H 0.79956 0.91692 0.61886 0.0
H251 H 0.78243 0.94859 0.57044 0.0
H252 H 0.71636 0.90561 0.59631 0.0
H253 H 0.70876 0.89981 0.57703 0.0
H254 H 0.72107 0.93022 0.58424 0.0
H255 H 0.75404 0.94833 0.56632 0.0
H256 H 0.7612 0.92662 0.55791 0.0
C257 C 0.81133 0.88696 0.6044 0.0
C258 C 0.77232 0.86721 0.62177 0.0
C259 C 0.70737 0.84445 0.53585 0.0
C260 C 0.7001 0.85954 0.52849 0.0
C261 C 0.7052 0.88158 0.53543 0.0
C262 C 0.71766 0.88867 0.54927 0.0
C263 C 0.72531 0.8737 0.55628 0.0
C264 C 0.71998 0.8519 0.54965 0.0
C265 C 0.72961 0.83839 0.5588 0.0
C266 C 0.74251 0.85621 0.57164 0.0
C267 C 0.73976 0.87676 0.57013 0.0
C268 C 0.74823 0.83494 0.54901 0.0
C269 C 0.70711 0.81431 0.56433 0.0
C270 C 0.7694 0.95264 0.60235 0.0
C271 C 0.78523 0.96173 0.61499 0.0
C272 C 0.79609 0.94834 0.62056 0.0
C273 C 0.79077 0.92618 0.61402 0.0
C274 C 0.77459 0.91722 0.60163 0.0
C275 C 0.76463 0.93065 0.59578 0.0
C276 C 0.74936 0.91913 0.58185 0.0
C277 C 0.75095 0.89607 0.58073 0.0
C278 C 0.76551 0.89497 0.59244 0.0
C279 C 0.76218 0.93649 0.5684 0.0
C280 C 0.72244 0.91345 0.58488 0.0
H281 H 0.74219 0.80438 0.57368 0.0
H282 H 0.79855 0.83804 0.61779 0.0
H283 H 0.75437 0.84993 0.62305 0.0
H284 H 0.76796 0.88165 0.62441 0.0
H285 H 0.78532 0.8674 0.63045 0.0
H286 H 0.81949 0.88139 0.59513 0.0
H287 H 0.82115 0.88744 0.61496 0.0
H288 H 0.81588 0.90566 0.60148 0.0
H289 H 0.70341 0.82722 0.53097 0.0
H290 H 0.70012 0.89373 0.52998 0.0
H291 H 0.72111 0.90571 0.55388 0.0
H292 H 0.76094 0.85207 0.54299 0.0
H293 H 0.73833 0.82048 0.54043 0.0
H294 H 0.76036 0.83038 0.55564 0.0
H295 H 0.69023 0.81605 0.56556 0.0
H296 H 0.71016 0.80904 0.57565 0.0
H297 H 0.70252 0.79919 0.55631 0.0
H298 H 0.75525 0.77929 0.58654 0.0
C299 C 0.75434 0.81219 0.58319 0.0
C300 C 0.04365 0.82758 0.61399 0.0
C301 C 0.0267 0.80425 0.60853 0.0
C302 C 0.03064 0.79728 0.59417 0.0
C303 C 0.06822 0.83632 0.59116 0.0
C304 C 0.06424 0.84315 0.60521 0.0
C305 C 0.0846 0.86807 0.60972 0.0
H306 H 0.19626 0.96678 0.59519 0.0
C307 C 0.09178 0.85647 0.58519 0.0
C308 C 0.10148 0.87507 0.5961 0.0
H309 H 0.14921 0.95348 0.63402 0.0
H310 H 0.11845 0.91521 0.62342 0.0
H311 H 0.18689 0.9127 0.59152 0.0
H312 H 0.1528 0.95039 0.57142 0.0
H313 H 0.15331 0.93124 0.55735 0.0
H314 H 0.18224 0.95489 0.56517 0.0
H315 H 0.20221 0.93645 0.5779 0.0
H316 H 0.18285 0.90516 0.57228 0.0
C317 C 0.09731 0.86548 0.62407 0.0
C318 C 0.0731 0.88468 0.61162 0.0
C319 C 0.12396 0.84961 0.53358 0.0
C320 C 0.14578 0.86522 0.5256 0.0
C321 C 0.16286 0.88785 0.53204 0.0
C322 C 0.15858 0.89473 0.54619 0.0
C323 C 0.13698 0.87885 0.55414 0.0
C324 C 0.12 0.85675 0.54783 0.0
C325 C 0.0983 0.84218 0.55816 0.0
C326 C 0.10494 0.85938 0.57154 0.0
C327 C 0.12768 0.88078 0.56908 0.0
C328 C 0.09822 0.81848 0.56238 0.0
C329 C 0.07436 0.83805 0.55014 0.0
C330 C 0.17926 0.9558 0.60139 0.0
C331 C 0.17544 0.96324 0.6156 0.0
C332 C 0.15302 0.94808 0.62324 0.0
C333 C 0.13502 0.92587 0.617 0.0
C334 C 0.13932 0.91859 0.6029 0.0
C335 C 0.161 0.93363 0.59527 0.0
C336 C 0.16208 0.92329 0.58023 0.0
C337 C 0.13764 0.89939 0.5802 0.0
C338 C 0.12449 0.89665 0.59356 0.0
C339 C 0.18473 0.91927 0.58032 0.0
C340 C 0.16283 0.9408 0.56782 0.0
H341 H 0.05317 0.80679 0.57463 0.0
H342 H 0.04134 0.83339 0.62505 0.0
H343 H 0.05756 0.87956 0.60352 0.0
H344 H 0.0864 0.90397 0.60917 0.0
H345 H 0.06555 0.88322 0.62314 0.0
H346 H 0.09852 0.84859 0.62359 0.0
H347 H 0.08666 0.86455 0.63433 0.0
H348 H 0.11669 0.8803 0.62546 0.0
H349 H 0.11057 0.83201 0.52901 0.0
H350 H 0.1796 0.90038 0.52606 0.0
H351 H 0.17241 0.91214 0.55042 0.0
H352 H 0.11751 0.82168 0.56323 0.0
H353 H 0.08825 0.80409 0.55377 0.0
H354 H 0.08998 0.81143 0.57353 0.0
H355 H 0.07771 0.85485 0.54421 0.0
H356 H 0.05897 0.83373 0.55799 0.0
H357 H 0.06805 0.82328 0.54162 0.0
H358 H 0.01772 0.77948 0.58964 0.0
C359 C 0.05121 0.81319 0.58545 0.0
C360 C 0.88789 0.50242 0.73486 0.0
C361 C 0.89241 0.5245 0.74132 0.0
C362 C 0.90369 0.53106 0.75566 0.0
C363 C 0.90581 0.49397 0.75673 0.0
C364 C 0.89464 0.48752 0.74272 0.0
C365 C 0.89096 0.46347 0.73739 0.0
H366 H 0.9018 0.36427 0.74999 0.0
C367 C 0.91053 0.47445 0.76178 0.0
C368 C 0.90178 0.45652 0.75049 0.0
H369 H 0.8711 0.38055 0.71092 0.0
H370 H 0.87986 0.41862 0.72206 0.0
H371 H 0.94928 0.41781 0.75303 0.0
H372 H 0.87778 0.38276 0.77451 0.0
H373 H 0.89983 0.39985 0.78842 0.0
H374 H 0.90154 0.37554 0.77898 0.0
H375 H 0.94127 0.3953 0.7674 0.0
H376 H 0.95435 0.42712 0.77194 0.0
C377 C 0.90628 0.46783 0.7228 0.0
C378 C 0.86265 0.44578 0.73554 0.0
C379 C 0.95318 0.48151 0.81204 0.0
C380 C 0.96009 0.46625 0.81954 0.0
C381 C 0.95448 0.44394 0.81279 0.0
C382 C 0.94247 0.43703 0.79881 0.0
C383 C 0.93588 0.45254 0.79142 0.0
C384 C 0.94116 0.47432 0.79805 0.0
C385 C 0.93265 0.48839 0.7885 0.0
C386 C 0.92161 0.47151 0.77503 0.0
C387 C 0.92358 0.45056 0.77683 0.0
C388 C 0.95578 0.51283 0.78415 0.0
C389 C 0.91269 0.49103 0.79739 0.0
C390 C 0.89718 0.37613 0.74376 0.0
C391 C 0.88561 0.36927 0.72956 0.0
C392 C 0.87964 0.38517 0.72196 0.0
C393 C 0.88488 0.40738 0.72843 0.0
C394 C 0.89625 0.41387 0.74267 0.0
C395 C 0.90232 0.39841 0.75005 0.0
C396 C 0.91452 0.40843 0.76503 0.0
C397 C 0.91459 0.43237 0.76546 0.0
C398 C 0.90383 0.43541 0.75235 0.0
C399 C 0.9412 0.41228 0.76449 0.0
C400 C 0.89778 0.39078 0.77747 0.0
H401 H 0.91891 0.52195 0.77425 0.0
H402 H 0.87959 0.49693 0.72378 0.0
H403 H 0.85197 0.44924 0.74429 0.0
H404 H 0.85736 0.42653 0.73707 0.0
H405 H 0.85596 0.44795 0.72437 0.0
H406 H 0.92377 0.48573 0.7232 0.0
H407 H 0.89562 0.46777 0.71273 0.0
H408 H 0.91245 0.45441 0.72115 0.0
H409 H 0.95735 0.49885 0.81684 0.0
H410 H 0.95914 0.43161 0.8184 0.0
H411 H 0.93875 0.41983 0.79433 0.0
H412 H 0.97188 0.51024 0.78172 0.0
H413 H 0.9613 0.52631 0.79344 0.0
H414 H 0.95305 0.52078 0.7738 0.0
H415 H 0.90109 0.47454 0.80426 0.0
H416 H 0.89934 0.49277 0.79002 0.0
H417 H 0.9214 0.50686 0.80518 0.0
H418 H 0.90711 0.54781 0.76101 0.0
C419 C 0.91041 0.51594 0.76339 0.0
C420 C 0.62612 0.50946 0.72779 0.0
C421 C 0.64298 0.53315 0.73276 0.0
C422 C 0.63854 0.54124 0.74661 0.0
C423 C 0.60076 0.50253 0.75008 0.0
C424 C 0.60518 0.49463 0.73653 0.0
C425 C 0.58492 0.46941 0.7325 0.0
H426 H 0.47306 0.37152 0.74788 0.0
C427 C 0.57702 0.48284 0.75618 0.0
C428 C 0.56763 0.46344 0.74585 0.0
H429 H 0.52118 0.38258 0.70992 0.0
H430 H 0.55148 0.42154 0.71983 0.0
H431 H 0.51622 0.38998 0.77219 0.0
H432 H 0.48227 0.42609 0.74983 0.0
H433 H 0.48548 0.43424 0.76898 0.0
H434 H 0.46656 0.40277 0.76365 0.0
H435 H 0.48658 0.38566 0.77785 0.0
H436 H 0.51529 0.41001 0.78545 0.0
C437 C 0.59644 0.45267 0.73176 0.0
C438 C 0.57267 0.47092 0.71763 0.0
C439 C 0.54446 0.49317 0.80675 0.0
C440 C 0.52318 0.47771 0.81522 0.0
C441 C 0.50599 0.45474 0.80922 0.0
C442 C 0.50994 0.44716 0.7952 0.0
C443 C 0.53135 0.46263 0.78696 0.0
C444 C 0.54821 0.48523 0.79273 0.0
C445 C 0.57 0.49907 0.78236 0.0
C446 C 0.56355 0.48091 0.76955 0.0
C447 C 0.54081 0.45966 0.77231 0.0
C448 C 0.5939 0.5039 0.79077 0.0
C449 C 0.57001 0.52235 0.77718 0.0
C450 C 0.49019 0.38219 0.74173 0.0
C451 C 0.49441 0.3739 0.72793 0.0
C452 C 0.51702 0.38863 0.72036 0.0
C453 C 0.53476 0.41126 0.7262 0.0
C454 C 0.53006 0.41942 0.73985 0.0
C455 C 0.50823 0.40483 0.74747 0.0
C456 C 0.50681 0.41618 0.76206 0.0
C457 C 0.53116 0.4402 0.76174 0.0
C458 C 0.5446 0.44203 0.74866 0.0
C459 C 0.506 0.39966 0.77513 0.0
C460 C 0.48404 0.41995 0.76125 0.0
H461 H 0.61531 0.5333 0.76571 0.0
H462 H 0.6288 0.50281 0.71713 0.0
H463 H 0.57175 0.48797 0.7172 0.0
H464 H 0.55321 0.4562 0.71637 0.0
H465 H 0.58344 0.47078 0.7077 0.0
H466 H 0.6117 0.45838 0.74014 0.0
H467 H 0.60436 0.45329 0.72046 0.0
H468 H 0.58304 0.43358 0.73462 0.0
H469 H 0.55813 0.51086 0.81105 0.0
H470 H 0.48926 0.44262 0.81535 0.0
H471 H 0.4961 0.42949 0.79132 0.0
H472 H 0.59046 0.48773 0.79747 0.0
H473 H 0.6003 0.51953 0.79864 0.0
H474 H 0.60927 0.5073 0.78312 0.0
H475 H 0.55069 0.51894 0.77591 0.0
H476 H 0.5785 0.52868 0.76599 0.0
H477 H 0.5797 0.53733 0.78547 0.0
H478 H 0.65138 0.55933 0.75076 0.0
C479 C 0.61762 0.52606 0.7553 0.0
C480 C 0.62294 0.12197 0.72856 0.0
C481 C 0.64035 0.11583 0.73412 0.0
C482 C 0.63664 0.10545 0.74858 0.0
C483 C 0.59847 0.10675 0.75146 0.0
C484 C 0.60213 0.11711 0.73734 0.0
C485 C 0.58119 0.1214 0.73288 0.0
H486 H 0.46833 0.10878 0.74857 0.0
C487 C 0.57472 0.1034 0.75751 0.0
C488 C 0.56444 0.1119 0.74662 0.0
H489 H 0.5128 0.1398 0.70871 0.0
H490 H 0.54524 0.13371 0.71919 0.0
H491 H 0.47895 0.06454 0.75213 0.0
H492 H 0.51304 0.13605 0.77181 0.0
H493 H 0.51231 0.11646 0.78594 0.0
H494 H 0.4835 0.11191 0.77801 0.0
H495 H 0.46383 0.07319 0.76602 0.0
H496 H 0.48397 0.06158 0.77128 0.0
C497 C 0.56853 0.10599 0.71865 0.0
C498 C 0.59198 0.14907 0.73078 0.0
C499 C 0.54409 0.06499 0.80925 0.0
C500 C 0.52233 0.05877 0.81748 0.0
C501 C 0.50483 0.06435 0.81129 0.0
C502 C 0.5086 0.07542 0.79717 0.0
C503 C 0.53014 0.08109 0.78896 0.0
C504 C 0.54755 0.07603 0.79505 0.0
C505 C 0.56919 0.08318 0.78457 0.0
C506 C 0.56192 0.09346 0.77128 0.0
C507 C 0.53897 0.0921 0.77393 0.0
C508 C 0.56994 0.05989 0.78023 0.0
C509 C 0.593 0.10294 0.7925 0.0
C510 C 0.48497 0.1141 0.74204 0.0
C511 C 0.48783 0.12459 0.72771 0.0
C512 C 0.51011 0.13178 0.71978 0.0
C513 C 0.52888 0.12808 0.72586 0.0
C514 C 0.5255 0.11713 0.74008 0.0
C515 C 0.50393 0.11066 0.74798 0.0
C516 C 0.50367 0.09981 0.76306 0.0
C517 C 0.52841 0.1004 0.76284 0.0
C518 C 0.54113 0.11044 0.74931 0.0
C519 C 0.4814 0.07345 0.7633 0.0
C520 C 0.50291 0.1167 0.77543 0.0
H521 H 0.61427 0.093 0.76813 0.0
H522 H 0.6251 0.12977 0.71745 0.0
H523 H 0.60685 0.15956 0.73921 0.0
H524 H 0.57806 0.15479 0.73259 0.0
H525 H 0.60023 0.15496 0.71942 0.0
H526 H 0.56741 0.08796 0.71934 0.0
H527 H 0.57918 0.1152 0.70835 0.0
H528 H 0.54915 0.10181 0.71721 0.0
H529 H 0.55786 0.06083 0.81357 0.0
H530 H 0.48813 0.06022 0.81744 0.0
H531 H 0.49446 0.07901 0.79315 0.0
H532 H 0.55086 0.04385 0.77963 0.0
H533 H 0.58059 0.05582 0.78865 0.0
H534 H 0.57782 0.06094 0.76895 0.0
H535 H 0.58913 0.11588 0.79878 0.0
H536 H 0.60797 0.11431 0.78456 0.0
H537 H 0.60013 0.09469 0.8007 0.0
H538 H 0.64988 0.10083 0.75323 0.0
C539 C 0.61595 0.10097 0.75726 0.0
C540 C 0.83689 0.54504 0.94926 0.0
C541 C 0.86049 0.5516 0.94343 0.0
C542 C 0.86676 0.56187 0.92893 0.0
C543 C 0.8268 0.55968 0.92652 0.0
C544 C 0.82047 0.54941 0.94068 0.0
C545 C 0.7951 0.54461 0.94537 0.0
H546 H 0.6925 0.55333 0.9307 0.0
C547 C 0.806 0.56247 0.92072 0.0
C548 C 0.78736 0.55375 0.93173 0.0
H549 H 0.7082 0.5234 0.97011 0.0
H550 H 0.74716 0.5314 0.95933 0.0
H551 H 0.74881 0.59955 0.9264 0.0
H552 H 0.71137 0.52764 0.90681 0.0
H553 H 0.72879 0.54842 0.89262 0.0
H554 H 0.70384 0.5505 0.90155 0.0
H555 H 0.72338 0.58977 0.9134 0.0
H556 H 0.75486 0.60196 0.90694 0.0
C557 C 0.79824 0.56001 0.95962 0.0
C558 C 0.7782 0.51684 0.94755 0.0
C559 C 0.81324 0.59973 0.86906 0.0
C560 C 0.79767 0.6054 0.86056 0.0
C561 C 0.7744 0.5998 0.86664 0.0
C562 C 0.767 0.58908 0.88093 0.0
C563 C 0.78295 0.58381 0.88933 0.0
C564 C 0.80559 0.58906 0.88329 0.0
C565 C 0.82028 0.58236 0.89372 0.0
C566 C 0.80275 0.5721 0.90702 0.0
C567 C 0.78089 0.57301 0.90445 0.0
C568 C 0.84468 0.60595 0.89793 0.0
C569 C 0.82412 0.56267 0.88585 0.0
C570 C 0.70446 0.54871 0.93705 0.0
C571 C 0.69723 0.5378 0.95134 0.0
C572 C 0.71316 0.53164 0.95907 0.0
C573 C 0.73589 0.53642 0.95281 0.0
C574 C 0.74292 0.54745 0.9386 0.0
C575 C 0.7272 0.55322 0.93089 0.0
C576 C 0.73745 0.56418 0.91571 0.0
C577 C 0.76206 0.56441 0.91568 0.0
C578 C 0.76521 0.55469 0.92918 0.0
C579 C 0.74125 0.5902 0.91544 0.0
C580 C 0.71947 0.54701 0.90344 0.0
H581 H 0.85612 0.57377 0.90954 0.0
H582 H 0.83157 0.53728 0.96041 0.0
H583 H 0.78281 0.50653 0.93926 0.0
H584 H 0.75834 0.5106 0.94558 0.0
H585 H 0.78051 0.51121 0.95898 0.0
H586 H 0.81541 0.57811 0.95889 0.0
H587 H 0.79974 0.55088 0.9699 0.0
H588 H 0.78305 0.56405 0.96113 0.0
H589 H 0.83106 0.60339 0.86473 0.0
H590 H 0.76208 0.60414 0.86047 0.0
H591 H 0.7492 0.58549 0.88495 0.0
H592 H 0.84187 0.62195 0.89811 0.0
H593 H 0.85963 0.60982 0.88969 0.0
H594 H 0.85139 0.60543 0.90936 0.0
H595 H 0.80728 0.54988 0.87931 0.0
H596 H 0.82707 0.55105 0.89384 0.0
H597 H 0.83999 0.571 0.8779 0.0
H598 H 0.88465 0.56678 0.92408 0.0
C599 C 0.85009 0.56586 0.92046 0.0
C600 C 0.44602 0.1598 0.94433 0.0
C601 C 0.44215 0.13815 0.93758 0.0
C602 C 0.43083 0.13167 0.92325 0.0
C603 C 0.4278 0.16829 0.92264 0.0
C604 C 0.43883 0.17452 0.9367 0.0
C605 C 0.44202 0.19823 0.94232 0.0
H606 H 0.43123 0.29748 0.93045 0.0
C607 C 0.42286 0.18775 0.9178 0.0
C608 C 0.43123 0.20534 0.92929 0.0
H609 H 0.45999 0.27974 0.96986 0.0
H610 H 0.45172 0.24207 0.95833 0.0
H611 H 0.45592 0.27954 0.90603 0.0
H612 H 0.38382 0.24441 0.92673 0.0
H613 H 0.37918 0.23522 0.90781 0.0
H614 H 0.39222 0.26701 0.91239 0.0
H615 H 0.43246 0.28715 0.9015 0.0
H616 H 0.43421 0.26303 0.89183 0.0
C617 C 0.47022 0.21617 0.9444 0.0
C618 C 0.42637 0.19319 0.95684 0.0
C619 C 0.38155 0.18211 0.86725 0.0
C620 C 0.37489 0.19762 0.85984 0.0
C621 C 0.38029 0.21972 0.86682 0.0
C622 C 0.39185 0.22617 0.88093 0.0
C623 C 0.3982 0.21043 0.88823 0.0
C624 C 0.39315 0.18886 0.88138 0.0
C625 C 0.40149 0.17457 0.89084 0.0
C626 C 0.41209 0.19103 0.90452 0.0
C627 C 0.4101 0.21198 0.90289 0.0
C628 C 0.42177 0.17233 0.88202 0.0
C629 C 0.37834 0.14994 0.89483 0.0
C630 C 0.43553 0.2854 0.93668 0.0
C631 C 0.44641 0.29173 0.95108 0.0
C632 C 0.452 0.27554 0.95866 0.0
C633 C 0.44703 0.25357 0.95198 0.0
C634 C 0.43632 0.24761 0.93754 0.0
C635 C 0.43058 0.26333 0.93019 0.0
C636 C 0.41885 0.25378 0.91505 0.0
C637 C 0.41872 0.22982 0.91447 0.0
C638 C 0.42908 0.22641 0.92762 0.0
C639 C 0.43602 0.27176 0.90288 0.0
C640 C 0.39218 0.25 0.91535 0.0
H641 H 0.41519 0.14075 0.90487 0.0
H642 H 0.45427 0.16515 0.95543 0.0
H643 H 0.40931 0.17495 0.95637 0.0
H644 H 0.41943 0.20602 0.95844 0.0
H645 H 0.43712 0.19365 0.96696 0.0
H646 H 0.48116 0.21343 0.93548 0.0
H647 H 0.47688 0.21349 0.95545 0.0
H648 H 0.47524 0.23541 0.94336 0.0
H649 H 0.37756 0.16493 0.86228 0.0
H650 H 0.37584 0.23225 0.86126 0.0
H651 H 0.39544 0.24323 0.88558 0.0
H652 H 0.43347 0.18904 0.87536 0.0
H653 H 0.41333 0.15673 0.87405 0.0
H654 H 0.43499 0.17046 0.88944 0.0
H655 H 0.36215 0.15237 0.89729 0.0
H656 H 0.38092 0.14164 0.90507 0.0
H657 H 0.37306 0.1368 0.88536 0.0
H658 H 0.42783 0.11519 0.91772 0.0
C659 C 0.42363 0.14661 0.91575 0.0
C660 C 0.71034 0.16234 0.95036 0.0
C661 C 0.6937 0.13889 0.94489 0.0
C662 C 0.69805 0.13195 0.93063 0.0
C663 C 0.73542 0.17115 0.92775 0.0
C664 C 0.73107 0.17803 0.94169 0.0
C665 C 0.7512 0.20312 0.94615 0.0
H666 H 0.86248 0.30252 0.93118 0.0
C667 C 0.75894 0.19139 0.92183 0.0
C668 C 0.76832 0.21016 0.93262 0.0
H669 H 0.81567 0.28956 0.97008 0.0
H670 H 0.78507 0.25086 0.95975 0.0
H671 H 0.85397 0.24884 0.9282 0.0
H672 H 0.81902 0.28521 0.90746 0.0
H673 H 0.81967 0.2658 0.89361 0.0
H674 H 0.84854 0.28985 0.90126 0.0
H675 H 0.86895 0.27219 0.91431 0.0
H676 H 0.84992 0.24067 0.90907 0.0
C677 C 0.76383 0.20092 0.96065 0.0
C678 C 0.73941 0.2195 0.94779 0.0
C679 C 0.79225 0.18377 0.8708 0.0
C680 C 0.81406 0.19944 0.86283 0.0
C681 C 0.83066 0.22243 0.86903 0.0
C682 C 0.82599 0.22956 0.88298 0.0
C683 C 0.80445 0.21361 0.89095 0.0
C684 C 0.78788 0.1912 0.88483 0.0
C685 C 0.76607 0.17669 0.89509 0.0
C686 C 0.77229 0.19419 0.90827 0.0
C687 C 0.79485 0.21571 0.90575 0.0
C688 C 0.7663 0.15328 0.89971 0.0
C689 C 0.74216 0.17206 0.88679 0.0
C690 C 0.84556 0.29154 0.93745 0.0
C691 C 0.84173 0.29922 0.95157 0.0
C692 C 0.81945 0.28401 0.95933 0.0
C693 C 0.80156 0.26155 0.95326 0.0
C694 C 0.80587 0.25409 0.93923 0.0
C695 C 0.82746 0.26915 0.93152 0.0
C696 C 0.82873 0.25859 0.91662 0.0
C697 C 0.80449 0.23453 0.91673 0.0
C698 C 0.79122 0.23188 0.93003 0.0
C699 C 0.85163 0.25496 0.9169 0.0
C700 C 0.8292 0.2757 0.90401 0.0
H701 H 0.72097 0.14153 0.91129 0.0
H702 H 0.70767 0.16813 0.96134 0.0
H703 H 0.7244 0.21453 0.93931 0.0
H704 H 0.75275 0.2389 0.9457 0.0
H705 H 0.73109 0.21757 0.95911 0.0
H706 H 0.76536 0.18419 0.96033 0.0
H707 H 0.75293 0.1999 0.9708 0.0
H708 H 0.78308 0.21596 0.96209 0.0
H709 H 0.77918 0.16593 0.86641 0.0
H710 H 0.84733 0.23505 0.86303 0.0
H711 H 0.83948 0.24724 0.88704 0.0
H712 H 0.78567 0.15677 0.90078 0.0
H713 H 0.75661 0.13863 0.89121 0.0
H714 H 0.75794 0.14642 0.91086 0.0
H715 H 0.74551 0.18849 0.88041 0.0
H716 H 0.72672 0.16821 0.8945 0.0
H717 H 0.73591 0.15681 0.87863 0.0
H718 H 0.68536 0.1141 0.92608 0.0
C719 C 0.71871 0.14794 0.92203 0.0
C720 C 0.56839 0.84203 0.06283 0.0
C721 C 0.57048 0.86264 0.07013 0.0
C722 C 0.58066 0.86836 0.08478 0.0
C723 C 0.58596 0.83302 0.08465 0.0
C724 C 0.57615 0.82756 0.07026 0.0
C725 C 0.5747 0.80481 0.06413 0.0
H726 H 0.58819 0.70681 0.07508 0.0
C727 C 0.59171 0.81399 0.08923 0.0
C728 C 0.58514 0.79743 0.07723 0.0
H729 H 0.56004 0.72493 0.03558 0.0
H730 H 0.56851 0.76274 0.04713 0.0
H731 H 0.63501 0.76138 0.08073 0.0
H732 H 0.56095 0.72173 0.0986 0.0
H733 H 0.58055 0.7382 0.11364 0.0
H734 H 0.58502 0.71552 0.10415 0.0
H735 H 0.62574 0.73704 0.09395 0.0
H736 H 0.63719 0.76798 0.10006 0.0
C737 C 0.59161 0.81167 0.05007 0.0
C738 C 0.54697 0.78606 0.06111 0.0
C739 C 0.6273 0.8165 0.14129 0.0
C740 C 0.6333 0.80063 0.14883 0.0
C741 C 0.62991 0.77959 0.14134 0.0
C742 C 0.62072 0.7744 0.12659 0.0
C743 C 0.61463 0.7903 0.11923 0.0
C744 C 0.6179 0.81092 0.12657 0.0
C745 C 0.60981 0.82535 0.11706 0.0
C746 C 0.60149 0.81014 0.10275 0.0
C747 C 0.60439 0.78967 0.10411 0.0
C748 C 0.6327 0.85079 0.11434 0.0
C749 C 0.58791 0.82577 0.12512 0.0
C750 C 0.58384 0.71892 0.06892 0.0
C751 C 0.57324 0.71277 0.05444 0.0
C752 C 0.56835 0.72929 0.0467 0.0
C753 C 0.57307 0.75115 0.05349 0.0
C754 C 0.58273 0.75656 0.06821 0.0
C755 C 0.58834 0.74075 0.07556 0.0
C756 C 0.59847 0.74942 0.09113 0.0
C757 C 0.59766 0.77289 0.09201 0.0
C758 C 0.58833 0.7769 0.07859 0.0
C759 C 0.62545 0.7541 0.09165 0.0
C760 C 0.58055 0.73028 0.10257 0.0
H761 H 0.59589 0.85895 0.10321 0.0
H762 H 0.56103 0.83729 0.0515 0.0
H763 H 0.53489 0.78737 0.06987 0.0
H764 H 0.54285 0.76704 0.06163 0.0
H765 H 0.54086 0.78925 0.05002 0.0
H766 H 0.60819 0.83011 0.05133 0.0
H767 H 0.58151 0.81178 0.03977 0.0
H768 H 0.5993 0.79949 0.04826 0.0
H769 H 0.62944 0.83267 0.14682 0.0
H770 H 0.63465 0.76724 0.14686 0.0
H771 H 0.61863 0.75812 0.12153 0.0
H772 H 0.64966 0.84939 0.1125 0.0
H773 H 0.63625 0.86295 0.12417 0.0
H774 H 0.63092 0.85969 0.10413 0.0
H775 H 0.57613 0.80841 0.13119 0.0
H776 H 0.57505 0.82741 0.11726 0.0
H777 H 0.59475 0.84075 0.13352 0.0
H778 H 0.58226 0.88399 0.09074 0.0
C779 C 0.58842 0.8537 0.09206 0.0
C780 C 0.29497 0.84109 0.06629 0.0
C781 C 0.3122 0.86462 0.0713 0.0
C782 C 0.30839 0.87251 0.0854 0.0
C783 C 0.27062 0.83378 0.08911 0.0
C784 C 0.27439 0.82616 0.07526 0.0
C785 C 0.25388 0.80111 0.07118 0.0
H786 H 0.14437 0.70119 0.08791 0.0
C787 C 0.24716 0.8139 0.09545 0.0
C788 C 0.23729 0.79478 0.0849 0.0
H789 H 0.18865 0.7159 0.04764 0.0
H790 H 0.21934 0.75453 0.05779 0.0
H791 H 0.18913 0.72078 0.11094 0.0
H792 H 0.15195 0.7557 0.091 0.0
H793 H 0.15629 0.76336 0.11023 0.0
H794 H 0.13765 0.73194 0.10472 0.0
H795 H 0.15937 0.7151 0.11742 0.0
H796 H 0.18797 0.73986 0.12484 0.0
C797 C 0.2653 0.78437 0.06964 0.0
C798 C 0.24089 0.80307 0.05675 0.0
C799 C 0.21605 0.82308 0.14694 0.0
C800 C 0.19483 0.80753 0.15546 0.0
C801 C 0.17824 0.78416 0.1497 0.0
C802 C 0.18226 0.77659 0.13569 0.0
C803 C 0.20315 0.79244 0.12719 0.0
C804 C 0.21981 0.81517 0.13288 0.0
C805 C 0.24109 0.82939 0.1222 0.0
C806 C 0.23438 0.81145 0.10922 0.0
C807 C 0.21202 0.78988 0.11221 0.0
C808 C 0.26545 0.83453 0.13012 0.0
C809 C 0.24049 0.85253 0.1174 0.0
C810 C 0.16059 0.71283 0.08123 0.0
C811 C 0.16403 0.70533 0.06694 0.0
C812 C 0.18564 0.72097 0.05876 0.0
C813 C 0.20342 0.74355 0.06464 0.0
C814 C 0.19969 0.75081 0.07889 0.0
C815 C 0.1786 0.73553 0.08696 0.0
C816 C 0.17791 0.74633 0.10195 0.0
C817 C 0.20192 0.7707 0.10142 0.0
C818 C 0.21453 0.77317 0.08788 0.0
C819 C 0.17843 0.7297 0.11452 0.0
C820 C 0.1547 0.74943 0.10215 0.0
H821 H 0.28597 0.86429 0.10495 0.0
H822 H 0.29708 0.8346 0.05541 0.0
H823 H 0.24151 0.82088 0.05623 0.0
H824 H 0.22088 0.78944 0.05629 0.0
H825 H 0.25005 0.80141 0.04644 0.0
H826 H 0.28015 0.78913 0.07819 0.0
H827 H 0.27374 0.78622 0.05836 0.0
H828 H 0.25174 0.76502 0.07167 0.0
H829 H 0.22914 0.84118 0.15094 0.0
H830 H 0.16207 0.77155 0.15609 0.0
H831 H 0.16881 0.75864 0.132 0.0
H832 H 0.26257 0.81836 0.13662 0.0
H833 H 0.27192 0.85002 0.13811 0.0
H834 H 0.28056 0.83829 0.12217 0.0
H835 H 0.221 0.8486 0.11609 0.0
H836 H 0.24919 0.85952 0.10635 0.0
H837 H 0.24969 0.86719 0.12595 0.0
H838 H 0.32148 0.89051 0.08958 0.0
C839 C 0.2878 0.85722 0.09434 0.0
C840 C 0.2884 0.45579 0.06153 0.0
C841 C 0.30576 0.44949 0.06691 0.0
C842 C 0.30201 0.43865 0.08123 0.0
C843 C 0.26392 0.44005 0.08439 0.0
C844 C 0.26757 0.4507 0.07036 0.0
C845 C 0.24655 0.45488 0.06597 0.0
H846 H 0.13343 0.44134 0.08185 0.0
C847 C 0.24017 0.43659 0.09051 0.0
C848 C 0.22982 0.44515 0.07969 0.0
H849 H 0.17763 0.47263 0.04194 0.0
H850 H 0.21033 0.46683 0.05234 0.0
H851 H 0.14478 0.39729 0.0855 0.0
H852 H 0.17744 0.46892 0.10477 0.0
H853 H 0.17853 0.45024 0.11891 0.0
H854 H 0.1488 0.44424 0.11164 0.0
H855 H 0.12923 0.40602 0.09904 0.0
H856 H 0.14942 0.39472 0.10477 0.0
C857 C 0.23397 0.4396 0.05167 0.0
C858 C 0.25719 0.48256 0.06402 0.0
C859 C 0.20988 0.39842 0.14238 0.0
C860 C 0.18824 0.39248 0.15069 0.0
C861 C 0.17084 0.39824 0.14456 0.0
C862 C 0.17453 0.40915 0.1304 0.0
C863 C 0.19588 0.41449 0.12211 0.0
C864 C 0.21327 0.40935 0.12815 0.0
C865 C 0.23478 0.41635 0.11757 0.0
C866 C 0.22747 0.42665 0.10431 0.0
C867 C 0.20457 0.42535 0.10704 0.0
C868 C 0.23535 0.39297 0.11323 0.0
C869 C 0.25872 0.43604 0.12542 0.0
C870 C 0.15004 0.44674 0.07527 0.0
C871 C 0.15278 0.45722 0.06096 0.0
C872 C 0.17504 0.46457 0.05299 0.0
C873 C 0.19396 0.46105 0.05902 0.0
C874 C 0.19071 0.45012 0.07323 0.0
C875 C 0.16913 0.44348 0.08117 0.0
C876 C 0.16906 0.4328 0.09626 0.0
C877 C 0.19389 0.43357 0.09599 0.0
C878 C 0.20649 0.4436 0.08244 0.0
C879 C 0.14693 0.40636 0.09657 0.0
C880 C 0.16824 0.4497 0.10862 0.0
H881 H 0.27961 0.42575 0.10077 0.0
H882 H 0.29058 0.46385 0.05051 0.0
H883 H 0.27184 0.49298 0.07258 0.0
H884 H 0.24311 0.4881 0.06573 0.0
H885 H 0.26567 0.48866 0.05273 0.0
H886 H 0.23327 0.42176 0.05216 0.0
H887 H 0.2444 0.44913 0.04139 0.0
H888 H 0.21445 0.43503 0.05038 0.0
H889 H 0.22357 0.39415 0.14667 0.0
H890 H 0.15428 0.39437 0.15077 0.0
H891 H 0.16045 0.41285 0.12644 0.0
H892 H 0.21623 0.37699 0.11269 0.0
H893 H 0.24604 0.38887 0.12159 0.0
H894 H 0.2431 0.39395 0.10191 0.0
H895 H 0.25509 0.44927 0.13153 0.0
H896 H 0.27378 0.44705 0.11744 0.0
H897 H 0.26563 0.42776 0.13375 0.0
H898 H 0.3152 0.4338 0.08568 0.0
C899 C 0.28134 0.43403 0.08999 0.0
C900 C 0.50687 0.8772 0.2821 0.0
C901 C 0.53052 0.88369 0.27638 0.0
C902 C 0.53718 0.89443 0.26202 0.0
C903 C 0.49744 0.89269 0.25949 0.0
C904 C 0.49077 0.88203 0.27354 0.0
C905 C 0.46538 0.87731 0.27813 0.0
H906 H 0.36381 0.88768 0.26323 0.0
C907 C 0.47686 0.8958 0.25365 0.0
C908 C 0.45801 0.88692 0.26455 0.0
H909 H 0.37806 0.8563 0.30246 0.0
H910 H 0.41713 0.86406 0.29188 0.0
H911 H 0.42012 0.93341 0.2595 0.0
H912 H 0.38213 0.86197 0.2394 0.0
H913 H 0.40038 0.88258 0.22537 0.0
H914 H 0.37565 0.88545 0.23394 0.0
H915 H 0.39515 0.92423 0.24623 0.0
H916 H 0.4268 0.93632 0.24013 0.0
C917 C 0.4684 0.89238 0.29252 0.0
C918 C 0.44825 0.84953 0.28003 0.0
C919 C 0.48473 0.93389 0.20214 0.0
C920 C 0.46919 0.93966 0.19367 0.0
C921 C 0.446 0.9342 0.1998 0.0
C922 C 0.43857 0.92342 0.21405 0.0
C923 C 0.45442 0.91794 0.22238 0.0
C924 C 0.47703 0.92313 0.21635 0.0
C925 C 0.49156 0.91615 0.22676 0.0
C926 C 0.4739 0.90577 0.24001 0.0
C927 C 0.45218 0.9069 0.23743 0.0
C928 C 0.516 0.9396 0.2311 0.0
C929 C 0.49533 0.8965 0.21879 0.0
C930 C 0.37547 0.8827 0.2696 0.0
C931 C 0.36786 0.8715 0.28377 0.0
C932 C 0.38338 0.86481 0.29151 0.0
C933 C 0.40615 0.86946 0.28537 0.0
C934 C 0.41358 0.88084 0.27127 0.0
C935 C 0.3982 0.88703 0.26356 0.0
C936 C 0.40875 0.89825 0.24849 0.0
C937 C 0.43319 0.8982 0.24855 0.0
C938 C 0.43601 0.8881 0.26197 0.0
C939 C 0.41285 0.92439 0.24843 0.0
C940 C 0.39084 0.88141 0.23607 0.0
H941 H 0.5271 0.90711 0.24274 0.0
H942 H 0.50127 0.8691 0.29314 0.0
H943 H 0.45283 0.83934 0.27163 0.0
H944 H 0.42845 0.84351 0.27802 0.0
H945 H 0.45036 0.84354 0.2914 0.0
H946 H 0.48559 0.91049 0.29194 0.0
H947 H 0.46977 0.883 0.30271 0.0
H948 H 0.4532 0.8964 0.29407 0.0
H949 H 0.50252 0.93748 0.19778 0.0
H950 H 0.43373 0.93867 0.19368 0.0
H951 H 0.42081 0.91992 0.21808 0.0
H952 H 0.51329 0.95566 0.23138 0.0
H953 H 0.53098 0.94351 0.22288 0.0
H954 H 0.52259 0.93883 0.24253 0.0
H955 H 0.47842 0.88373 0.2123 0.0
H956 H 0.49841 0.88489 0.22671 0.0
H957 H 0.51111 0.90488 0.21077 0.0
H958 H 0.55512 0.89931 0.25725 0.0
C959 C 0.52081 0.89888 0.25356 0.0
C960 C 0.10826 0.49155 0.28024 0.0
C961 C 0.10581 0.47082 0.27292 0.0
C962 C 0.09548 0.46518 0.2583 0.0
C963 C 0.09012 0.50046 0.25868 0.0
C964 C 0.10037 0.50603 0.27295 0.0
C965 C 0.10173 0.52865 0.27923 0.0
H966 H 0.08458 0.62479 0.26967 0.0
C967 C 0.08379 0.5192 0.25437 0.0
C968 C 0.09061 0.53577 0.26637 0.0
H969 H 0.1145 0.60718 0.30857 0.0
H970 H 0.10792 0.57047 0.2964 0.0
H971 H 0.11155 0.61068 0.24518 0.0
H972 H 0.0388 0.57023 0.26469 0.0
H973 H 0.03541 0.56249 0.24553 0.0
H974 H 0.04642 0.59364 0.25101 0.0
H975 H 0.08679 0.6164 0.24058 0.0
H976 H 0.09108 0.59407 0.23049 0.0
C977 C 0.12949 0.54768 0.28188 0.0
C978 C 0.08537 0.52166 0.29355 0.0
C979 C 0.04344 0.51461 0.20364 0.0
C980 C 0.03566 0.52959 0.19666 0.0
C981 C 0.03939 0.55072 0.20422 0.0
C982 C 0.05033 0.55669 0.21851 0.0
C983 C 0.05778 0.54146 0.22539 0.0
C984 C 0.05443 0.52089 0.21795 0.0
C985 C 0.06377 0.50705 0.22702 0.0
C986 C 0.07294 0.52257 0.24117 0.0
C987 C 0.06935 0.54267 0.24011 0.0
C988 C 0.08527 0.50704 0.21821 0.0
C989 C 0.04151 0.48142 0.23026 0.0
C990 C 0.08938 0.61286 0.27567 0.0
C991 C 0.10023 0.61901 0.29007 0.0
C992 C 0.10649 0.60308 0.29737 0.0
C993 C 0.10259 0.58171 0.2903 0.0
C994 C 0.09231 0.57615 0.27575 0.0
C995 C 0.08561 0.59144 0.26877 0.0
C996 C 0.07477 0.58253 0.25337 0.0
C997 C 0.0764 0.55951 0.25219 0.0
C998 C 0.08678 0.55595 0.26529 0.0
C999 C 0.09169 0.60187 0.24171 0.0
C1000 C 0.04748 0.57704 0.25349 0.0
H1001 H 0.07992 0.4746 0.24006 0.0
H1002 H 0.11577 0.49625 0.29155 0.0
H1003 H 0.06899 0.50304 0.2925 0.0
H1004 H 0.07735 0.53353 0.29553 0.0
H1005 H 0.096 0.52193 0.30368 0.0
H1006 H 0.14132 0.54655 0.27288 0.0
H1007 H 0.13615 0.54461 0.29282 0.0
H1008 H 0.13331 0.56661 0.28148 0.0
H1009 H 0.04075 0.49817 0.1982 0.0
H1010 H 0.0341 0.56287 0.19901 0.0
H1011 H 0.05262 0.57301 0.22361 0.0
H1012 H 0.09629 0.52437 0.21197 0.0
H1013 H 0.07807 0.49196 0.20986 0.0
H1014 H 0.0989 0.5058 0.22561 0.0
H1015 H 0.02445 0.4824 0.23267 0.0
H1016 H 0.04433 0.47289 0.2403 0.0
H1017 H 0.03747 0.46912 0.22044 0.0
H1018 H 0.09366 0.44948 0.25232 0.0
C1019 C 0.08763 0.47986 0.25116 0.0
C1020 C 0.3772 0.48753 0.2844 0.0
C1021 C 0.36023 0.46423 0.27892 0.0
C1022 C 0.364 0.45732 0.2645 0.0
C1023 C 0.40116 0.49658 0.26132 0.0
C1024 C 0.39752 0.50326 0.2755 0.0
C1025 C 0.41779 0.52828 0.2799 0.0
H1026 H 0.52544 0.63034 0.26291 0.0
C1027 C 0.42414 0.51708 0.25506 0.0
C1028 C 0.43401 0.53566 0.26596 0.0
H1029 H 0.48319 0.61344 0.30416 0.0
H1030 H 0.45248 0.57479 0.29385 0.0
H1031 H 0.51924 0.57687 0.25836 0.0
H1032 H 0.47973 0.61117 0.24099 0.0
H1033 H 0.4803 0.59278 0.22641 0.0
H1034 H 0.50918 0.61754 0.23352 0.0
H1035 H 0.53224 0.60104 0.24484 0.0
H1036 H 0.51387 0.5697 0.2391 0.0
C1037 C 0.43138 0.52591 0.29389 0.0
C1038 C 0.40591 0.54445 0.28235 0.0
C1039 C 0.45296 0.51159 0.20224 0.0
C1040 C 0.47313 0.52817 0.19341 0.0
C1041 C 0.48992 0.5512 0.19947 0.0
C1042 C 0.48678 0.55766 0.21403 0.0
C1043 C 0.46658 0.54096 0.22272 0.0
C1044 C 0.44998 0.51841 0.21679 0.0
C1045 C 0.42934 0.50328 0.22763 0.0
C1046 C 0.43638 0.52048 0.24101 0.0
C1047 C 0.45829 0.54244 0.23807 0.0
C1048 C 0.43077 0.48022 0.23146 0.0
C1049 C 0.40446 0.49809 0.22039 0.0
C1050 C 0.5097 0.61821 0.26978 0.0
C1051 C 0.5068 0.62498 0.28439 0.0
C1052 C 0.48575 0.60881 0.29282 0.0
C1053 C 0.468 0.58628 0.28684 0.0
C1054 C 0.47123 0.57974 0.27225 0.0
C1055 C 0.49177 0.59564 0.26397 0.0
C1056 C 0.49203 0.58571 0.24863 0.0
C1057 C 0.46845 0.56108 0.24917 0.0
C1058 C 0.45636 0.55769 0.26302 0.0
C1059 C 0.5156 0.58328 0.24751 0.0
C1060 C 0.49041 0.60264 0.23668 0.0
H1061 H 0.38609 0.46704 0.24479 0.0
H1062 H 0.37501 0.49324 0.29552 0.0
H1063 H 0.39097 0.54008 0.27392 0.0
H1064 H 0.41919 0.56401 0.28084 0.0
H1065 H 0.39747 0.54157 0.29371 0.0
H1066 H 0.4315 0.50843 0.29368 0.0
H1067 H 0.42216 0.52642 0.30447 0.0
H1068 H 0.45121 0.54004 0.29439 0.0
H1069 H 0.4396 0.49383 0.19786 0.0
H1070 H 0.50579 0.56419 0.193 0.0
H1071 H 0.50029 0.57542 0.21797 0.0
H1072 H 0.45042 0.48438 0.2319 0.0
H1073 H 0.42096 0.46578 0.22285 0.0
H1074 H 0.42319 0.47281 0.24268 0.0
H1075 H 0.40678 0.51431 0.21419 0.0
H1076 H 0.38978 0.49409 0.22874 0.0
H1077 H 0.39761 0.48276 0.21224 0.0
H1078 H 0.35107 0.43952 0.25998 0.0
C1079 C 0.3843 0.47337 0.25566 0.0
Eu1080 Eu 0.48944 0.97738 0.98865 0.0
C1081 C 0.54653 0.07711 0.02371 0.0
C1082 C 0.58993 0.08847 0.02254 0.0
C1083 C 0.57844 0.11983 0.02409 0.0
C1084 C 0.56454 0.07052 0.02262 0.0
C1085 C 0.55325 0.10182 0.02475 0.0
C1086 C 0.59676 0.11316 0.02297 0.0
C1087 C 0.50982 0.08901 0.02811 0.0
N1088 N 0.52243 0.05927 0.02443 0.0
C1089 C 0.50412 0.06477 0.02708 0.0
C1090 C 0.53447 0.10764 0.02677 0.0
Eu1091 Eu 0.51389 0.01867 0.02183 0.0
N1092 N 0.55728 0.04652 0.02232 0.0
C1093 C 0.57454 0.03921 0.02303 0.0
C1094 C 0.60769 0.08106 0.02239 0.0
C1095 C 0.59994 0.0563 0.02285 0.0
H1096 H 0.485 0.05045 0.02803 0.0
H1097 H 0.61352 0.05036 0.02302 0.0
H1098 H 0.61615 0.12722 0.02278 0.0
H1099 H 0.49519 0.09329 0.0299 0.0
H1100 H 0.56892 0.02018 0.0233 0.0
H1101 H 0.38951 0.94394 0.98858 0.0
H1102 H 0.62737 0.09426 0.02227 0.0
H1103 H 0.5192 0.94662 0.98167 0.0
H1104 H 0.43395 0.97477 0.9878 0.0
H1105 H 0.5098 0.90404 0.9796 0.0
H1106 H 0.58397 0.13892 0.02474 0.0
H1107 H 0.37652 0.90023 0.98936 0.0
H1108 H 0.38858 0.86788 0.98849 0.0
H1109 H 0.53886 0.12641 0.02761 0.0
H1110 H 0.42131 0.857 0.98593 0.0
N1111 N 0.44625 0.94894 0.98861 0.0
C1112 C 0.42864 0.9558 0.98811 0.0
C1113 C 0.39611 0.91371 0.98905 0.0
C1114 C 0.41422 0.90675 0.98863 0.0
C1115 C 0.40336 0.93836 0.98857 0.0
C1116 C 0.43946 0.92505 0.9883 0.0
H1117 H 0.46652 0.87035 0.98239 0.0
N1118 N 0.48173 0.93709 0.9859 0.0
C1119 C 0.495 0.90796 0.98171 0.0
C1120 C 0.45779 0.91892 0.98688 0.0
C1121 C 0.50025 0.93205 0.98285 0.0
C1122 C 0.47055 0.889 0.98332 0.0
C1123 C 0.45152 0.89435 0.98574 0.0
O1124 O 0.50739 0.9814 0.96687 0.0
O1125 O 0.52069 0.01129 0.99837 0.0
O1126 O 0.50759 0.03898 1.00299 0.0
O1127 O 0.47765 0.00614 0.98903 0.0
O1128 O 0.53042 0.99007 0.98569 0.0
O1129 O 0.47427 0.98435 0.96822 0.0
O1130 O 0.49649 0.01625 0.04362 0.0
O1131 O 0.4824 0.98476 0.01218 0.0
O1132 O 0.49598 0.95694 0.00727 0.0
O1133 O 0.5255 0.98973 0.02147 0.0
O1134 O 0.47311 0.00662 0.02454 0.0
O1135 O 0.52745 0.00977 0.0422 0.0
C1136 C 0.53892 0.0101 0.99315 0.0
C1137 C 0.48245 0.97122 0.94504 0.0
C1138 C 0.48096 0.97175 0.91748 0.0
C1139 C 0.48895 0.98415 0.93137 0.0
C1140 C 0.4666 0.94617 0.91758 0.0
C1141 C 0.46807 0.9458 0.94483 0.0
C1142 C 0.46025 0.93338 0.93115 0.0
C1143 C 0.48974 0.02954 0.99269 0.0
C1144 C 0.4911 0.98446 0.9594 0.0
C1145 C 0.42649 0.876 0.98666 0.0
C1146 C 0.40786 0.88219 0.98812 0.0
C1147 C 0.46432 0.98638 0.01728 0.0
C1148 C 0.52132 0.02434 0.06539 0.0
C1149 C 0.51342 0.01144 0.07901 0.0
C1150 C 0.52247 0.02343 0.09293 0.0
C1151 C 0.53951 0.04861 0.09289 0.0
C1152 C 0.53831 0.04935 0.06564 0.0
C1153 C 0.54732 0.06139 0.07935 0.0
C1154 C 0.51371 0.96639 0.01763 0.0
C1155 C 0.5116 0.01139 0.05104 0.0
H1156 H 0.49989 0.00383 0.93159 0.0
H1157 H 0.46047 0.93598 0.90715 0.0
H1158 H 0.46297 0.93559 0.95522 0.0
H1159 H 0.44925 0.91373 0.93104 0.0
H1160 H 0.50048 0.99204 0.07872 0.0
H1161 H 0.54658 0.05854 0.10334 0.0
H1162 H 0.54455 0.05953 0.05526 0.0
H1163 H 0.56038 0.08074 0.07949 0.0
Eu1164 Eu 0.02355 0.5092 0.99161 0.0
C1165 C 0.92208 0.47591 0.02387 0.0
C1166 C 0.91352 0.50837 0.01849 0.0
C1167 C 0.87933 0.4672 0.0221 0.0
C1168 C 0.93053 0.50003 0.02065 0.0
C1169 C 0.8964 0.45936 0.02517 0.0
C1170 C 0.88789 0.49169 0.01874 0.0
C1171 C 0.90653 0.42963 0.0345 0.0
N1172 N 0.93907 0.46913 0.02711 0.0
C1173 C 0.93179 0.44681 0.03315 0.0
C1174 C 0.88873 0.43578 0.03022 0.0
Eu1175 Eu 0.98151 0.49859 0.02403 0.0
N1176 N 0.9554 0.51567 0.02076 0.0
C1177 C 0.96443 0.54018 0.02005 0.0
C1178 C 0.92278 0.53333 0.01672 0.0
C1179 C 0.94833 0.54933 0.01778 0.0
H1180 H 0.94557 0.44204 0.03645 0.0
H1181 H 0.95566 0.56872 0.01679 0.0
H1182 H 0.87454 0.49769 0.0169 0.0
H1183 H 0.90083 0.41169 0.03885 0.0
H1184 H 0.98411 0.5528 0.02077 0.0
H1185 H 0.049 0.43846 0.99603 0.0
H1186 H 0.91035 0.54046 0.015 0.0
H1187 H 0.05969 0.56807 0.98329 0.0
H1188 H 0.02054 0.45473 0.9937 0.0
H1189 H 0.10445 0.59849 0.9815 0.0
H1190 H 0.85951 0.4547 0.02284 0.0
H1191 H 0.09442 0.46648 0.99695 0.0
H1192 H 0.13027 0.50925 0.99556 0.0
H1193 H 0.86918 0.42252 0.03138 0.0
H1194 H 0.14539 0.55281 0.9917 0.0
N1195 N 0.04943 0.49177 0.99362 0.0
C1196 C 0.04029 0.46723 0.99402 0.0
C1197 C 0.082 0.47376 0.9959 0.0
C1198 C 0.09131 0.49882 0.99472 0.0
C1199 C 0.05638 0.4579 0.99536 0.0
C1200 C 0.07433 0.50737 0.99345 0.0
H1201 H 0.13591 0.5862 0.98623 0.0
N1202 N 0.06595 0.5392 0.9894 0.0
C1203 C 0.09864 0.57984 0.98435 0.0
C1204 C 0.08286 0.53186 0.99135 0.0
C1205 C 0.07336 0.5626 0.98534 0.0
C1206 C 0.11634 0.57284 0.98707 0.0
C1207 C 0.10855 0.54852 0.99037 0.0
O1208 O 0.02388 0.52286 0.96905 0.0
O1209 O 0.98912 0.5083 0.99972 0.0
O1210 O 0.96013 0.46714 0.00802 0.0
O1211 O 0.99164 0.46974 0.9922 0.0
O1212 O 0.01238 0.53734 0.98624 0.0
O1213 O 0.01621 0.48584 0.97197 0.0
O1214 O 0.98272 0.48709 0.04701 0.0
O1215 O 0.01523 0.49878 0.01561 0.0
O1216 O 0.04541 0.53739 0.00945 0.0
O1217 O 0.01327 0.53812 0.02253 0.0
O1218 O 0.99372 0.47131 0.03037 0.0
O1219 O 0.98865 0.5232 0.04299 0.0
C1220 C 0.99139 0.52692 0.99319 0.0
C1221 C 0.03541 0.50571 0.94933 0.0
C1222 C 0.03966 0.50478 0.92206 0.0
C1223 C 0.02508 0.50188 0.93485 0.0
C1224 C 0.06481 0.51163 0.92405 0.0
C1225 C 0.06046 0.51242 0.95108 0.0
C1226 C 0.07508 0.51539 0.93848 0.0
C1227 C 0.96861 0.45827 0.99755 0.0
C1228 C 0.01978 0.50285 0.9624 0.0
C1229 C 0.12556 0.54026 0.99226 0.0
C1230 C 0.11696 0.51545 0.99444 0.0
C1231 C 0.01384 0.48085 0.02253 0.0
C1232 C 0.96921 0.50401 0.0657 0.0
C1233 C 0.97799 0.50592 0.08046 0.0
C1234 C 0.96238 0.50242 0.09281 0.0
C1235 C 0.93775 0.49688 0.09009 0.0
C1236 C 0.94472 0.49873 0.06322 0.0
C1237 C 0.92906 0.49512 0.07537 0.0
C1238 C 0.03709 0.54774 0.01897 0.0
C1239 C 0.98569 0.50707 0.05306 0.0
H1240 H 0.00559 0.49632 0.9336 0.0
H1241 H 0.07664 0.51434 0.91445 0.0
H1242 H 0.0687 0.51537 0.96214 0.0
H1243 H 0.09444 0.52067 0.9399 0.0
H1244 H 0.99709 0.51044 0.08228 0.0
H1245 H 0.92512 0.4937 0.09931 0.0
H1246 H 0.9377 0.4974 0.05195 0.0
H1247 H 0.91011 0.49089 0.07338 0.0
Eu1248 Eu 0.50988 0.49354 0.02114 0.0
C1249 C 0.44875 0.52501 0.99032 0.0
C1250 C 0.40741 0.48974 0.99084 0.0
C1251 C 0.41283 0.52985 0.99514 0.0
C1252 C 0.43343 0.50011 0.98933 0.0
C1253 C 0.43844 0.54021 0.99263 0.0
C1254 C 0.39733 0.50465 0.99424 0.0
C1255 C 0.47858 0.57472 0.98728 0.0
N1256 N 0.47338 0.5345 0.98766 0.0
C1257 C 0.48779 0.55891 0.98488 0.0
C1258 C 0.45393 0.56538 0.99159 0.0
Eu1259 Eu 0.48818 0.50622 0.98573 0.0
N1260 N 0.44373 0.48613 0.98611 0.0
C1261 C 0.42865 0.46204 0.98272 0.0
C1262 C 0.3922 0.46476 0.98855 0.0
C1263 C 0.40285 0.45096 0.98414 0.0
H1264 H 0.50661 0.56648 0.98088 0.0
H1265 H 0.3912 0.43176 0.98174 0.0
H1266 H 0.37748 0.49692 0.99571 0.0
H1267 H 0.49045 0.59407 0.9856 0.0
H1268 H 0.43609 0.45108 0.97874 0.0
H1269 H 0.60574 0.56783 0.01722 0.0
H1270 H 0.37219 0.45613 0.98964 0.0
H1271 H 0.48904 0.43623 0.03217 0.0
H1272 H 0.56015 0.54909 0.01858 0.0
H1273 H 0.50522 0.40799 0.03608 0.0
H1274 H 0.4047 0.54124 0.99718 0.0
H1275 H 0.62507 0.54192 0.01797 0.0
H1276 H 0.61986 0.50021 0.0207 0.0
H1277 H 0.44673 0.57763 0.99328 0.0
H1278 H 0.59243 0.45658 0.02562 0.0
N1279 N 0.55367 0.51297 0.01984 0.0
C1280 C 0.56833 0.53761 0.01891 0.0
C1281 C 0.60504 0.53361 0.0186 0.0
C1282 C 0.58993 0.50843 0.02019 0.0
C1283 C 0.5942 0.5483 0.01819 0.0
C1284 C 0.56396 0.49854 0.02094 0.0
H1285 H 0.54971 0.4221 0.03165 0.0
N1286 N 0.52381 0.46542 0.025 0.0
C1287 C 0.51756 0.42643 0.0324 0.0
C1288 C 0.54853 0.47397 0.02349 0.0
C1289 C 0.50847 0.4424 0.03019 0.0
C1290 C 0.54267 0.43445 0.02985 0.0
C1291 C 0.55862 0.45863 0.02566 0.0
O1292 O 0.49229 0.47964 0.04296 0.0
O1293 O 0.47895 0.49649 0.01009 0.0
O1294 O 0.51523 0.54193 0.99731 0.0
O1295 O 0.51182 0.52997 0.02218 0.0
O1296 O 0.46934 0.46522 0.02251 0.0
O1297 O 0.52563 0.51469 0.04174 0.0
O1298 O 0.50619 0.53074 0.96682 0.0
O1299 O 0.52168 0.51058 0.9984 0.0
O1300 O 0.50074 0.46193 0.00551 0.0
O1301 O 0.47645 0.46587 0.98676 0.0
O1302 O 0.51621 0.49679 0.97661 0.0
O1303 O 0.4768 0.49366 0.96265 0.0
C1304 C 0.46082 0.47698 0.01508 0.0
C1305 C 0.51804 0.49281 0.06446 0.0
C1306 C 0.51734 0.49082 0.09193 0.0
C1307 C 0.50933 0.49609 0.07834 0.0
C1308 C 0.53412 0.48203 0.09137 0.0
C1309 C 0.53496 0.48429 0.06415 0.0
C1310 C 0.54286 0.47885 0.07755 0.0
C1311 C 0.51705 0.54672 0.01189 0.0
C1312 C 0.50903 0.4982 0.05051 0.0
C1313 C 0.58436 0.46814 0.02419 0.0
C1314 C 0.59998 0.493 0.02143 0.0
C1315 C 0.53055 0.50317 0.98817 0.0
C1316 C 0.48508 0.52233 0.9433 0.0
C1317 C 0.49126 0.51715 0.92912 0.0
C1318 C 0.4844 0.52436 0.91584 0.0
C1319 C 0.47135 0.53712 0.91704 0.0
C1320 C 0.47183 0.53479 0.9443 0.0
C1321 C 0.46509 0.54222 0.93118 0.0
C1322 C 0.48552 0.45352 0.9938 0.0
C1323 C 0.49288 0.5144 0.95673 0.0
H1324 H 0.49613 0.50254 0.07853 0.0
H1325 H 0.54086 0.47806 0.10161 0.0
H1326 H 0.54208 0.4819 0.0536 0.0
H1327 H 0.55593 0.47228 0.07724 0.0
H1328 H 0.50171 0.50767 0.92847 0.0
H1329 H 0.46558 0.54277 0.90705 0.0
H1330 H 0.46673 0.53875 0.95515 0.0
H1331 H 0.45486 0.55187 0.93197 0.0
Eu1332 Eu 0.1539 0.30992 0.32203 0.0
C1333 C 0.21279 0.40805 0.35832 0.0
C1334 C 0.25565 0.41745 0.35775 0.0
C1335 C 0.24613 0.45017 0.35929 0.0
C1336 C 0.22999 0.40037 0.35744 0.0
C1337 C 0.22063 0.43301 0.35958 0.0
C1338 C 0.26361 0.4424 0.35836 0.0
C1339 C 0.17759 0.42204 0.36251 0.0
N1340 N 0.18835 0.391 0.35869 0.0
C1341 C 0.17077 0.39751 0.36129 0.0
C1342 C 0.20262 0.4399 0.36148 0.0
Eu1343 Eu 0.17799 0.34992 0.35588 0.0
N1344 N 0.22164 0.37614 0.35697 0.0
C1345 C 0.23799 0.36771 0.35791 0.0
C1346 C 0.27251 0.40891 0.35782 0.0
C1347 C 0.26362 0.38392 0.3581 0.0
H1348 H 0.15138 0.38375 0.362 0.0
H1349 H 0.27648 0.37711 0.35845 0.0
H1350 H 0.28324 0.4558 0.35847 0.0
H1351 H 0.16355 0.42715 0.36423 0.0
H1352 H 0.23145 0.34846 0.35809 0.0
H1353 H 0.0547 0.2802 0.32138 0.0
H1354 H 0.29237 0.42143 0.358 0.0
H1355 H 0.18137 0.27783 0.31313 0.0
H1356 H 0.09952 0.30972 0.32115 0.0
H1357 H 0.17024 0.23498 0.30935 0.0
H1358 H 0.25253 0.46945 0.36011 0.0
H1359 H 0.03995 0.23608 0.32127 0.0
H1360 H 0.05024 0.20255 0.31949 0.0
H1361 H 0.20788 0.45889 0.36248 0.0
H1362 H 0.08172 0.19019 0.3161 0.0
N1363 N 0.11035 0.28276 0.32149 0.0
C1364 C 0.09347 0.29058 0.3211 0.0
C1365 C 0.05972 0.24899 0.32122 0.0
C1366 C 0.07708 0.2411 0.32059 0.0
C1367 C 0.06796 0.27387 0.32124 0.0
C1368 C 0.10259 0.25867 0.32064 0.0
H1369 H 0.12648 0.20219 0.31196 0.0
N1370 N 0.14441 0.2693 0.31809 0.0
C1371 C 0.15599 0.23941 0.31211 0.0
C1372 C 0.12021 0.25171 0.31885 0.0
C1373 C 0.16223 0.26366 0.31424 0.0
C1374 C 0.13129 0.22096 0.31364 0.0
C1375 C 0.11296 0.22701 0.31681 0.0
O1376 O 0.17241 0.31442 0.30038 0.0
O1377 O 0.18543 0.34281 0.33249 0.0
O1378 O 0.17329 0.37152 0.3372 0.0
O1379 O 0.14341 0.3396 0.32264 0.0
O1380 O 0.19458 0.32114 0.31982 0.0
O1381 O 0.14037 0.31909 0.30173 0.0
O1382 O 0.1598 0.34778 0.37735 0.0
O1383 O 0.1465 0.31679 0.34559 0.0
O1384 O 0.15969 0.28806 0.34011 0.0
O1385 O 0.18755 0.31956 0.35593 0.0
O1386 O 0.13736 0.33877 0.358 0.0
O1387 O 0.19021 0.34044 0.37657 0.0
C1388 C 0.20342 0.34092 0.32758 0.0
C1389 C 0.14777 0.30564 0.27849 0.0
C1390 C 0.14586 0.30647 0.25096 0.0
C1391 C 0.15463 0.31867 0.26486 0.0
C1392 C 0.13043 0.281 0.25101 0.0
C1393 C 0.13227 0.28034 0.27822 0.0
C1394 C 0.12373 0.26811 0.26453 0.0
C1395 C 0.15587 0.36285 0.32663 0.0
C1396 C 0.15687 0.31859 0.29292 0.0
C1397 C 0.08766 0.2093 0.31748 0.0
C1398 C 0.06974 0.21633 0.3194 0.0
C1399 C 0.12851 0.31868 0.35055 0.0
C1400 C 0.18357 0.35512 0.39955 0.0
C1401 C 0.1754 0.34203 0.4131 0.0
C1402 C 0.18421 0.35381 0.4271 0.0
C1403 C 0.20123 0.379 0.42722 0.0
C1404 C 0.20055 0.38013 0.39997 0.0
C1405 C 0.20928 0.39198 0.41376 0.0
C1406 C 0.17598 0.29654 0.35136 0.0
C1407 C 0.17423 0.3424 0.38509 0.0
H1408 H 0.16639 0.33828 0.26512 0.0
H1409 H 0.12367 0.27096 0.24057 0.0
H1410 H 0.12678 0.27005 0.28856 0.0
H1411 H 0.11185 0.24855 0.26439 0.0
H1412 H 0.16249 0.32262 0.41269 0.0
H1413 H 0.2081 0.38878 0.43774 0.0
H1414 H 0.20702 0.39046 0.38966 0.0
H1415 H 0.22233 0.41133 0.41403 0.0
Eu1416 Eu 0.68993 0.83435 0.32292 0.0
C1417 C 0.58849 0.80049 0.35499 0.0
C1418 C 0.57901 0.83268 0.3508 0.0
C1419 C 0.54545 0.79095 0.35348 0.0
C1420 C 0.59645 0.82478 0.35249 0.0
C1421 C 0.56291 0.78337 0.35587 0.0
C1422 C 0.55349 0.81556 0.35094 0.0
C1423 C 0.57379 0.75304 0.3628 0.0
N1424 N 0.60583 0.79384 0.35746 0.0
C1425 C 0.59894 0.77072 0.36189 0.0
C1426 C 0.55568 0.75931 0.35959 0.0
Eu1427 Eu 0.64798 0.82454 0.35522 0.0
N1428 N 0.62123 0.84087 0.35259 0.0
C1429 C 0.62979 0.86529 0.35213 0.0
C1430 C 0.58775 0.85762 0.34946 0.0
C1431 C 0.61324 0.87401 0.35034 0.0
H1432 H 0.61292 0.7658 0.36429 0.0
H1433 H 0.62017 0.89336 0.34959 0.0
H1434 H 0.53982 0.82126 0.34949 0.0
H1435 H 0.5684 0.7346 0.36596 0.0
H1436 H 0.64944 0.87814 0.35274 0.0
H1437 H 0.71723 0.76508 0.3283 0.0
H1438 H 0.57497 0.86443 0.34809 0.0
H1439 H 0.72511 0.89303 0.31368 0.0
H1440 H 0.68814 0.78056 0.32571 0.0
H1441 H 0.76959 0.92392 0.31142 0.0
H1442 H 0.52571 0.77803 0.35396 0.0
H1443 H 0.76255 0.79372 0.32879 0.0
H1444 H 0.79786 0.8367 0.32673 0.0
H1445 H 0.53621 0.74561 0.36038 0.0
H1446 H 0.81213 0.87994 0.32219 0.0
N1447 N 0.71655 0.81776 0.32509 0.0
C1448 C 0.70782 0.79332 0.32586 0.0
C1449 C 0.74985 0.80065 0.32763 0.0
C1450 C 0.75871 0.82558 0.32607 0.0
C1451 C 0.72429 0.78443 0.32733 0.0
C1452 C 0.74137 0.83366 0.32468 0.0
H1453 H 0.80173 0.91257 0.31626 0.0
N1454 N 0.73211 0.86476 0.32013 0.0
C1455 C 0.76417 0.90545 0.31452 0.0
C1456 C 0.7494 0.85794 0.32218 0.0
C1457 C 0.73902 0.88793 0.31578 0.0
C1458 C 0.78226 0.89899 0.3173 0.0
C1459 C 0.77498 0.8749 0.32094 0.0
O1460 O 0.68817 0.84603 0.3001 0.0
O1461 O 0.65626 0.83475 0.33111 0.0
O1462 O 0.62623 0.79624 0.3375 0.0
O1463 O 0.65838 0.79481 0.32488 0.0
O1464 O 0.67918 0.86271 0.31695 0.0
O1465 O 0.68239 0.80986 0.30381 0.0
O1466 O 0.64781 0.81243 0.37822 0.0
O1467 O 0.68162 0.82436 0.34701 0.0
O1468 O 0.71181 0.86301 0.34044 0.0
O1469 O 0.67977 0.86402 0.35359 0.0
O1470 O 0.65981 0.79699 0.36172 0.0
O1471 O 0.65518 0.84911 0.37422 0.0
C1472 C 0.65867 0.85327 0.32439 0.0
C1473 C 0.70007 0.82886 0.28067 0.0
C1474 C 0.70404 0.82891 0.25336 0.0
C1475 C 0.68949 0.82515 0.26627 0.0
C1476 C 0.72938 0.83641 0.25509 0.0
C1477 C 0.72531 0.83614 0.2822 0.0
C1478 C 0.73988 0.83989 0.26944 0.0
C1479 C 0.63454 0.78546 0.32834 0.0
C1480 C 0.6847 0.82597 0.29388 0.0
C1481 C 0.79238 0.86715 0.32295 0.0
C1482 C 0.78426 0.84252 0.32552 0.0
C1483 C 0.68008 0.80646 0.35403 0.0
C1484 C 0.63505 0.83018 0.39689 0.0
C1485 C 0.644 0.83305 0.41169 0.0
C1486 C 0.62849 0.83025 0.42398 0.0
C1487 C 0.60381 0.82445 0.42115 0.0
C1488 C 0.61047 0.82455 0.39433 0.0
C1489 C 0.59494 0.82168 0.40642 0.0
C1490 C 0.70353 0.87361 0.3498 0.0
C1491 C 0.65144 0.83268 0.38428 0.0
H1492 H 0.67002 0.81978 0.26513 0.0
H1493 H 0.74099 0.83926 0.24535 0.0
H1494 H 0.73376 0.83904 0.2932 0.0
H1495 H 0.75937 0.84554 0.27068 0.0
H1496 H 0.66314 0.83776 0.41358 0.0
H1497 H 0.59125 0.82177 0.43033 0.0
H1498 H 0.60327 0.82235 0.38304 0.0
H1499 H 0.57594 0.8172 0.40436 0.0
Eu1500 Eu 0.18422 0.8285 0.35418 0.0
C1501 C 0.09886 0.81628 0.31532 0.0
C1502 C 0.08374 0.78326 0.29727 0.0
C1503 C 0.05489 0.79372 0.30888 0.0
C1504 C 0.10327 0.80167 0.3058 0.0
C1505 C 0.07468 0.81283 0.31672 0.0
C1506 C 0.05942 0.77897 0.29914 0.0
C1507 C 0.09178 0.84871 0.33243 0.0
N1508 N 0.11844 0.83474 0.32256 0.0
C1509 C 0.11541 0.85143 0.33062 0.0
C1510 C 0.07126 0.82913 0.32562 0.0
Eu1511 Eu 0.15788 0.838 0.31927 0.0
N1512 N 0.12699 0.80644 0.30419 0.0
C1513 C 0.13285 0.79507 0.29318 0.0
C1514 C 0.08939 0.77033 0.28673 0.0
C1515 C 0.11413 0.77655 0.2845 0.0
H1516 H 0.13105 0.86661 0.336 0.0
H1517 H 0.11879 0.76713 0.27609 0.0
H1518 H 0.04412 0.76474 0.29281 0.0
H1519 H 0.08942 0.86168 0.33913 0.0
H1520 H 0.15194 0.79985 0.29137 0.0
H1521 H 0.28507 0.88046 0.34763 0.0
H1522 H 0.07493 0.75607 0.27994 0.0
H1523 H 0.1495 0.77155 0.36747 0.0
H1524 H 0.24282 0.8743 0.3499 0.0
H1525 H 0.15322 0.73522 0.37207 0.0
H1526 H 0.03615 0.79062 0.30994 0.0
H1527 H 0.29186 0.8453 0.34911 0.0
H1528 H 0.27407 0.80053 0.35346 0.0
H1529 H 0.05298 0.82708 0.32703 0.0
H1530 H 0.2381 0.7609 0.36005 0.0
N1531 N 0.22553 0.8359 0.35233 0.0
C1532 C 0.24541 0.85876 0.35061 0.0
C1533 C 0.27322 0.84247 0.35014 0.0
C1534 C 0.25294 0.81926 0.35268 0.0
C1535 C 0.26947 0.86236 0.34933 0.0
C1536 C 0.22905 0.81658 0.35387 0.0
H1537 H 0.19304 0.73646 0.36723 0.0
N1538 N 0.18655 0.79295 0.35945 0.0
C1539 C 0.16898 0.75169 0.36788 0.0
C1540 C 0.2089 0.79436 0.35754 0.0
C1541 C 0.16695 0.77234 0.36525 0.0
C1542 C 0.19148 0.75244 0.36511 0.0
C1543 C 0.21194 0.7741 0.36016 0.0
O1544 O 0.16791 0.82548 0.3765 0.0
O1545 O 0.15372 0.83347 0.34415 0.0
O1546 O 0.17206 0.87131 0.33447 0.0
O1547 O 0.20125 0.86877 0.34949 0.0
O1548 O 0.14329 0.80489 0.35903 0.0
O1549 O 0.20655 0.851 0.37308 0.0
O1550 O 0.15773 0.86869 0.30823 0.0
O1551 O 0.19242 0.84322 0.33085 0.0
O1552 O 0.17136 0.79576 0.33885 0.0
O1553 O 0.14179 0.79735 0.32315 0.0
O1554 O 0.18551 0.82874 0.30919 0.0
O1555 O 0.17814 0.85318 0.29826 0.0
C1556 C 0.1353 0.81594 0.35056 0.0
C1557 C 0.19475 0.83238 0.39692 0.0
C1558 C 0.1926 0.82884 0.42436 0.0
C1559 C 0.18703 0.83682 0.41087 0.0
C1560 C 0.20562 0.81599 0.4236 0.0
C1561 C 0.20784 0.81967 0.39649 0.0
C1562 C 0.21313 0.81146 0.40976 0.0
C1563 C 0.19091 0.88096 0.34405 0.0
C1564 C 0.18879 0.8407 0.38288 0.0
C1565 C 0.23544 0.77633 0.35825 0.0
C1566 C 0.25591 0.79889 0.35451 0.0
C1567 C 0.20052 0.83538 0.32046 0.0
C1568 C 0.15843 0.86734 0.28142 0.0
C1569 C 0.16556 0.8596 0.26835 0.0
C1570 C 0.15468 0.85886 0.25425 0.0
C1571 C 0.13688 0.86636 0.25339 0.0
C1572 C 0.14064 0.87475 0.28012 0.0
C1573 C 0.12999 0.87424 0.26621 0.0
C1574 C 0.15249 0.78575 0.32923 0.0
C1575 C 0.16952 0.86787 0.29635 0.0
H1576 H 0.17711 0.84684 0.41121 0.0
H1577 H 0.20986 0.80928 0.43372 0.0
H1578 H 0.21402 0.81614 0.38592 0.0
H1579 H 0.22315 0.80158 0.40932 0.0
H1580 H 0.17922 0.85379 0.26919 0.0
H1581 H 0.12846 0.86646 0.24273 0.0
H1582 H 0.13489 0.88098 0.28987 0.0
H1583 H 0.11633 0.88002 0.26535 0.0
Eu1584 Eu 0.82529 0.64628 0.65508 0.0
C1585 C 0.88233 0.74472 0.69181 0.0
C1586 C 0.92551 0.75544 0.69023 0.0
C1587 C 0.91478 0.78719 0.69302 0.0
C1588 C 0.90001 0.73781 0.69018 0.0
C1589 C 0.88949 0.76945 0.69363 0.0
C1590 C 0.93277 0.7802 0.69129 0.0
C1591 C 0.84634 0.75703 0.69786 0.0
N1592 N 0.85813 0.72711 0.69249 0.0
C1593 C 0.84019 0.73277 0.69597 0.0
C1594 C 0.87107 0.7755 0.69647 0.0
Eu1595 Eu 0.8488 0.68648 0.68877 0.0
N1596 N 0.89232 0.71373 0.68941 0.0
C1597 C 0.90925 0.70598 0.68986 0.0
C1598 C 0.94292 0.74761 0.68969 0.0
C1599 C 0.93474 0.72275 0.68973 0.0
H1600 H 0.82103 0.7186 0.69696 0.0
H1601 H 0.94805 0.71647 0.68965 0.0
H1602 H 0.95226 0.79402 0.69121 0.0
H1603 H 0.83201 0.76147 0.70033 0.0
H1604 H 0.90326 0.68685 0.68985 0.0
H1605 H 0.7264 0.61729 0.65228 0.0
H1606 H 0.96268 0.76056 0.68965 0.0
H1607 H 0.853 0.6133 0.64925 0.0
H1608 H 0.77132 0.64659 0.65257 0.0
H1609 H 0.84165 0.57011 0.64729 0.0
H1610 H 0.92066 0.80631 0.69425 0.0
H1611 H 0.71132 0.57312 0.65305 0.0
H1612 H 0.72131 0.53932 0.65286 0.0
H1613 H 0.8758 0.79427 0.69797 0.0
H1614 H 0.75266 0.52646 0.6514 0.0
N1615 N 0.78178 0.61943 0.65398 0.0
C1616 C 0.76509 0.62741 0.65289 0.0
C1617 C 0.73112 0.58593 0.65321 0.0
C1618 C 0.74835 0.57784 0.6534 0.0
C1619 C 0.73955 0.61083 0.65273 0.0
C1620 C 0.7739 0.59528 0.65367 0.0
H1621 H 0.79755 0.53781 0.6491 0.0
N1622 N 0.81579 0.60542 0.65246 0.0
C1623 C 0.82735 0.57489 0.64892 0.0
C1624 C 0.79146 0.58804 0.65287 0.0
C1625 C 0.83371 0.59932 0.64999 0.0
C1626 C 0.80244 0.55672 0.64998 0.0
C1627 C 0.78409 0.56318 0.65177 0.0
O1628 O 0.8443 0.64953 0.6338 0.0
O1629 O 0.85655 0.67968 0.6653 0.0
O1630 O 0.84329 0.7081 0.67041 0.0
O1631 O 0.81534 0.67638 0.65479 0.0
O1632 O 0.86605 0.65772 0.65321 0.0
O1633 O 0.81214 0.65421 0.63416 0.0
O1634 O 0.83005 0.68226 0.71031 0.0
O1635 O 0.81738 0.65348 0.67835 0.0
O1636 O 0.82968 0.6248 0.67395 0.0
O1637 O 0.85943 0.65686 0.68846 0.0
O1638 O 0.80811 0.67536 0.69068 0.0
O1639 O 0.86201 0.67738 0.70922 0.0
C1640 C 0.8747 0.67793 0.66051 0.0
C1641 C 0.82103 0.64083 0.61132 0.0
C1642 C 0.82221 0.64231 0.58377 0.0
C1643 C 0.82892 0.6542 0.59785 0.0
C1644 C 0.80729 0.61681 0.58344 0.0
C1645 C 0.80612 0.61547 0.61071 0.0
C1646 C 0.79928 0.60356 0.59682 0.0
C1647 C 0.82701 0.6995 0.65917 0.0
C1648 C 0.82911 0.6536 0.62585 0.0
C1649 C 0.7587 0.54567 0.65211 0.0
C1650 C 0.74085 0.55299 0.65294 0.0
C1651 C 0.79932 0.65545 0.68305 0.0
C1652 C 0.85414 0.6906 0.73241 0.0
C1653 C 0.84556 0.67748 0.74593 0.0
C1654 C 0.85377 0.6893 0.75998 0.0
C1655 C 0.87057 0.71453 0.76017 0.0
C1656 C 0.87091 0.71566 0.73291 0.0
C1657 C 0.87903 0.72753 0.74674 0.0
C1658 C 0.84697 0.63355 0.68459 0.0
C1659 C 0.84537 0.67792 0.71789 0.0
H1660 H 0.84066 0.67381 0.59837 0.0
H1661 H 0.80151 0.60709 0.57284 0.0
H1662 H 0.79989 0.60492 0.62096 0.0
H1663 H 0.78774 0.58396 0.59641 0.0
H1664 H 0.83279 0.65804 0.74547 0.0
H1665 H 0.87697 0.72434 0.77071 0.0
H1666 H 0.87768 0.72601 0.72263 0.0
H1667 H 0.8919 0.74692 0.74707 0.0
Eu1668 Eu 0.35776 0.17328 0.65479 0.0
C1669 C 0.25722 0.14236 0.68744 0.0
C1670 C 0.2504 0.17611 0.68271 0.0
C1671 C 0.21508 0.13545 0.68586 0.0
C1672 C 0.26663 0.16678 0.68461 0.0
C1673 C 0.23136 0.12657 0.68867 0.0
C1674 C 0.22459 0.1602 0.68286 0.0
C1675 C 0.23979 0.0954 0.69745 0.0
N1676 N 0.27345 0.13451 0.6904 0.0
C1677 C 0.26526 0.11184 0.69617 0.0
C1678 C 0.22273 0.10265 0.69339 0.0
Eu1679 Eu 0.31628 0.16287 0.68758 0.0
N1680 N 0.29165 0.18167 0.68474 0.0
C1681 C 0.30159 0.20633 0.6843 0.0
C1682 C 0.26059 0.20125 0.68126 0.0
C1683 C 0.28627 0.21645 0.68234 0.0
H1684 H 0.27848 0.10624 0.6993 0.0
H1685 H 0.29432 0.23596 0.68157 0.0
H1686 H 0.21185 0.16699 0.6812 0.0
H1687 H 0.23336 0.07719 0.70157 0.0
H1688 H 0.32138 0.21838 0.685 0.0
H1689 H 0.38001 0.1005 0.66155 0.0
H1690 H 0.24878 0.20914 0.67973 0.0
H1691 H 0.39519 0.22976 0.64278 0.0
H1692 H 0.35281 0.11792 0.65813 0.0
H1693 H 0.44022 0.25881 0.64006 0.0
H1694 H 0.19514 0.12354 0.68654 0.0
H1695 H 0.42561 0.12739 0.66266 0.0
H1696 H 0.46245 0.16948 0.66049 0.0
H1697 H 0.20301 0.08995 0.69449 0.0
H1698 H 0.47894 0.21279 0.6548 0.0
N1699 N 0.38252 0.15463 0.65768 0.0
C1700 C 0.37262 0.13 0.65852 0.0
C1701 C 0.41373 0.1352 0.66114 0.0
C1702 C 0.42384 0.16027 0.65934 0.0
C1703 C 0.38801 0.11997 0.66048 0.0
C1704 C 0.40754 0.16953 0.65748 0.0
H1705 H 0.4708 0.2462 0.64685 0.0
N1706 N 0.4005 0.20164 0.65165 0.0
C1707 C 0.43393 0.24066 0.64426 0.0
C1708 C 0.41683 0.19387 0.65447 0.0
C1709 C 0.4085 0.22422 0.64579 0.0
C1710 C 0.45112 0.2335 0.64815 0.0
C1711 C 0.44265 0.20967 0.65299 0.0
O1712 O 0.35691 0.18603 0.63209 0.0
O1713 O 0.32353 0.17247 0.66325 0.0
O1714 O 0.29439 0.13156 0.67154 0.0
O1715 O 0.3255 0.13413 0.65543 0.0
O1716 O 0.34625 0.20113 0.64931 0.0
O1717 O 0.35047 0.14958 0.6353 0.0
O1718 O 0.31612 0.14966 0.71028 0.0
O1719 O 0.35048 0.16381 0.6791 0.0
O1720 O 0.37972 0.20473 0.67077 0.0
O1721 O 0.34867 0.202 0.68702 0.0
O1722 O 0.32835 0.13542 0.69328 0.0
O1723 O 0.3238 0.18655 0.70708 0.0
C1724 C 0.32559 0.19097 0.65664 0.0
C1725 C 0.36917 0.16929 0.61253 0.0
C1726 C 0.3741 0.16962 0.58528 0.0
C1727 C 0.35913 0.16591 0.59798 0.0
C1728 C 0.39931 0.17683 0.58735 0.0
C1729 C 0.39425 0.17613 0.61438 0.0
C1730 C 0.40925 0.17995 0.60183 0.0
C1731 C 0.30258 0.12271 0.66089 0.0
C1732 C 0.35338 0.16615 0.62558 0.0
C1733 C 0.45903 0.20087 0.65568 0.0
C1734 C 0.44964 0.1762 0.65888 0.0
C1735 C 0.34893 0.14566 0.68587 0.0
C1736 C 0.30391 0.16687 0.72958 0.0
C1737 C 0.31322 0.16939 0.74426 0.0
C1738 C 0.2981 0.16653 0.75676 0.0
C1739 C 0.27341 0.16094 0.75429 0.0
C1740 C 0.27936 0.16157 0.72735 0.0
C1741 C 0.26417 0.15853 0.73966 0.0
C1742 C 0.37156 0.2135 0.68149 0.0
C1743 C 0.32003 0.16968 0.71678 0.0
H1744 H 0.33975 0.1607 0.59657 0.0
H1745 H 0.41121 0.17962 0.57778 0.0
H1746 H 0.40225 0.17853 0.62547 0.0
H1747 H 0.42861 0.18528 0.60334 0.0
H1748 H 0.33238 0.17397 0.74588 0.0
H1749 H 0.26116 0.15826 0.76364 0.0
H1750 H 0.27194 0.15981 0.71615 0.0
H1751 H 0.24518 0.1543 0.73787 0.0
Eu1752 Eu 0.84734 0.15762 0.69111 0.0
C1753 C 0.78798 0.19625 0.65463 0.0
C1754 C 0.74483 0.16476 0.65675 0.0
C1755 C 0.75547 0.20695 0.6539 0.0
C1756 C 0.77031 0.17203 0.65645 0.0
C1757 C 0.78075 0.21394 0.65299 0.0
C1758 C 0.73754 0.18241 0.65579 0.0
C1759 C 0.82379 0.24374 0.64845 0.0
N1760 N 0.81219 0.20235 0.65368 0.0
C1761 C 0.83002 0.22552 0.65008 0.0
C1762 C 0.79908 0.23799 0.65009 0.0
Eu1763 Eu 0.82143 0.17076 0.65713 0.0
N1764 N 0.77797 0.15543 0.6572 0.0
C1765 C 0.76104 0.13113 0.65714 0.0
C1766 C 0.72742 0.13993 0.65758 0.0
C1767 C 0.73557 0.12303 0.65756 0.0
H1768 H 0.84916 0.23004 0.64889 0.0
H1769 H 0.72225 0.10376 0.65791 0.0
H1770 H 0.71807 0.1772 0.65613 0.0
H1771 H 0.83804 0.26219 0.64594 0.0
H1772 H 0.76706 0.11787 0.65718 0.0
H1773 H 0.94663 0.22416 0.68893 0.0
H1774 H 0.70768 0.1336 0.65788 0.0
H1775 H 0.81992 0.09924 0.70134 0.0
H1776 H 0.90192 0.2103 0.68997 0.0
H1777 H 0.83097 0.06731 0.7055 0.0
H1778 H 0.74955 0.2203 0.6528 0.0
H1779 H 0.96103 0.1942 0.68959 0.0
H1780 H 0.95051 0.15069 0.69236 0.0
H1781 H 0.79428 0.25212 0.64876 0.0
H1782 H 0.91901 0.10794 0.69692 0.0
N1783 N 0.89081 0.17271 0.69072 0.0
C1784 C 0.90783 0.19698 0.69029 0.0
C1785 C 0.94132 0.18798 0.69002 0.0
C1786 C 0.92386 0.16324 0.69139 0.0
C1787 C 0.93327 0.20494 0.68968 0.0
C1788 C 0.89841 0.15611 0.69182 0.0
H1789 H 0.87446 0.07677 0.70217 0.0
N1790 N 0.85665 0.12626 0.69543 0.0
C1791 C 0.84514 0.08542 0.70226 0.0
C1792 C 0.88075 0.13209 0.69425 0.0
C1793 C 0.83895 0.10354 0.69991 0.0
C1794 C 0.86969 0.09081 0.70032 0.0
C1795 C 0.88794 0.11448 0.6965 0.0
O1796 O 0.83053 0.14574 0.71331 0.0
O1797 O 0.81518 0.15913 0.6811 0.0
O1798 O 0.827 0.19846 0.67489 0.0
O1799 O 0.85799 0.19765 0.68928 0.0
O1800 O 0.80666 0.12982 0.69478 0.0
O1801 O 0.86297 0.18133 0.71076 0.0
O1802 O 0.83834 0.18376 0.6351 0.0
O1803 O 0.85333 0.16879 0.66704 0.0
O1804 O 0.84064 0.12873 0.67385 0.0
O1805 O 0.81124 0.13086 0.65842 0.0
O1806 O 0.86228 0.19819 0.65338 0.0
O1807 O 0.80589 0.14794 0.63712 0.0
C1808 C 0.79739 0.14035 0.68685 0.0
C1809 C 0.85761 0.16147 0.73407 0.0
C1810 C 0.85933 0.1616 0.76156 0.0
C1811 C 0.84977 0.16543 0.74809 0.0
C1812 C 0.87667 0.1535 0.7607 0.0
C1813 C 0.87502 0.15359 0.7335 0.0
C1814 C 0.88443 0.14956 0.74676 0.0
C1815 C 0.84514 0.20815 0.68495 0.0
C1816 C 0.84722 0.1653 0.72015 0.0
C1817 C 0.91314 0.12125 0.69539 0.0
C1818 C 0.93107 0.14559 0.69281 0.0
C1819 C 0.8713 0.18725 0.66115 0.0
C1820 C 0.81197 0.16852 0.61399 0.0
C1821 C 0.82031 0.16468 0.60013 0.0
C1822 C 0.81183 0.16927 0.5865 0.0
C1823 C 0.79482 0.1778 0.587 0.0
C1824 C 0.79495 0.1769 0.61426 0.0
C1825 C 0.78643 0.18151 0.6008 0.0
C1826 C 0.82339 0.11985 0.66316 0.0
C1827 C 0.82186 0.16437 0.62799 0.0
H1828 H 0.83655 0.17184 0.74846 0.0
H1829 H 0.8841 0.14999 0.77081 0.0
H1830 H 0.88133 0.15053 0.72283 0.0
H1831 H 0.89778 0.14335 0.74624 0.0
H1832 H 0.83372 0.15848 0.6 0.0
H1833 H 0.78772 0.18124 0.57672 0.0
H1834 H 0.78832 0.17994 0.62483 0.0
H1835 H 0.77327 0.18797 0.60106 0.0
H1836 H 0.34364 0.85405 0.05541 0.0
H1837 H 0.42291 0.98882 0.0223 0.0
H1838 H 0.32938 0.91259 0.06505 0.0
H1839 H 0.45004 0.9382 0.02217 0.0
H1840 H 0.38428 0.95784 0.03375 0.0
H1841 H 0.37891 0.88178 0.03961 0.0
C1842 C 0.34786 0.8727 0.05415 0.0
C1843 C 0.33365 0.88108 0.06167 0.0
C1844 C 0.3985 0.95333 0.03106 0.0
C1845 C 0.37377 0.91276 0.04353 0.0
C1846 C 0.42047 0.97095 0.02443 0.0
C1847 C 0.43957 0.96599 0.02123 0.0
C1848 C 0.39563 0.93056 0.03469 0.0
C1849 C 0.43561 0.94263 0.02431 0.0
C1850 C 0.368 0.88849 0.04517 0.0
C1851 C 0.34002 0.90543 0.05968 0.0
N1852 N 0.41409 0.92577 0.03098 0.0
N1853 N 0.35954 0.92035 0.05081 0.0
H1854 H 0.10282 0.42452 0.06096 0.0
H1855 H 0.06312 0.51571 0.02537 0.0
H1856 H 0.15614 0.4967 0.04603 0.0
H1857 H 0.01244 0.43896 0.0306 0.0
H1858 H 0.09727 0.50981 0.03378 0.0
H1859 H 0.06933 0.43007 0.0509 0.0
C1860 C 0.10749 0.44159 0.05559 0.0
C1861 C 0.13236 0.46022 0.05441 0.0
C1862 C 0.07874 0.49421 0.03296 0.0
C1863 C 0.09399 0.46671 0.04282 0.0
C1864 C 0.05925 0.49755 0.02805 0.0
C1865 C 0.03506 0.47764 0.0268 0.0
C1866 C 0.0739 0.47086 0.03703 0.0
C1867 C 0.03094 0.45469 0.03111 0.0
C1868 C 0.08835 0.44469 0.04977 0.0
C1869 C 0.13728 0.4818 0.04712 0.0
N1870 N 0.05014 0.4519 0.036 0.0
N1871 N 0.11827 0.48451 0.0417 0.0
H1872 H 0.55092 0.66908 0.06879 0.0
H1873 H 0.54304 0.59002 0.99645 0.0
H1874 H 0.57821 0.70122 0.02521 0.0
H1875 H 0.51121 0.56039 0.03982 0.0
H1876 H 0.55711 0.63102 0.00639 0.0
H1877 H 0.53789 0.62921 0.05812 0.0
C1878 C 0.55441 0.66777 0.05698 0.0
C1879 C 0.56584 0.68856 0.04791 0.0
C1880 C 0.54698 0.61548 0.01367 0.0
C1881 C 0.5505 0.64269 0.03547 0.0
C1882 C 0.53882 0.5921 0.00798 0.0
C1883 C 0.52576 0.57174 0.01728 0.0
C1884 C 0.54214 0.6184 0.02876 0.0
C1885 C 0.52128 0.57552 0.03223 0.0
C1886 C 0.54676 0.64493 0.05084 0.0
C1887 C 0.56933 0.68563 0.03258 0.0
N1888 N 0.52945 0.59832 0.03748 0.0
N1889 N 0.56171 0.66309 0.02683 0.0
H1890 H 0.87188 0.3424 0.93702 0.0
H1891 H 0.93407 0.41757 0.01219 0.0
H1892 H 0.85566 0.31009 0.98125 0.0
H1893 H 0.96364 0.44428 0.96809 0.0
H1894 H 0.90329 0.37892 1.00103 0.0
H1895 H 0.90382 0.3806 0.94809 0.0
C1896 C 0.87508 0.34321 0.94904 0.0
C1897 C 0.86095 0.32283 0.95818 0.0
C1898 C 0.91649 0.3932 0.99377 0.0
C1899 C 0.89733 0.36682 0.97096 0.0
C1900 C 0.93388 0.41538 1.00014 0.0
C1901 C 0.95106 0.43429 0.99104 0.0
C1902 C 0.91617 0.38993 0.97812 0.0
C1903 C 0.95066 0.43012 0.9755 0.0
C1904 C 0.89329 0.36511 0.95536 0.0
C1905 C 0.86571 0.32532 0.97375 0.0
N1906 N 0.93333 0.40844 0.9695 0.0
N1907 N 0.88341 0.34688 0.97963 0.0
H1908 H 0.66297 0.49673 0.96619 0.0
H1909 H 0.57086 0.54783 0.98422 0.0
H1910 H 0.67678 0.56744 0.95222 0.0
H1911 H 0.54834 0.47185 0.98638 0.0
H1912 H 0.61256 0.55695 0.97643 0.0
H1913 H 0.62358 0.48886 0.97735 0.0
C1914 C 0.6578 0.51067 0.96554 0.0
C1915 C 0.67321 0.53277 0.95819 0.0
C1916 C 0.59864 0.53832 0.97883 0.0
C1917 C 0.62809 0.52385 0.97098 0.0
C1918 C 0.575 0.53318 0.98344 0.0
C1919 C 0.55657 0.5092 0.98643 0.0
C1920 C 0.60377 0.51925 0.97702 0.0
C1921 C 0.56237 0.49066 0.98458 0.0
C1922 C 0.63525 0.50611 0.97186 0.0
C1923 C 0.66538 0.55004 0.95759 0.0
N1924 N 0.58551 0.49606 0.98007 0.0
N1925 N 0.64343 0.54524 0.96391 0.0
H1926 H 0.48446 0.15211 0.95419 0.0
H1927 H 0.44972 0.01609 0.97422 0.0
H1928 H 0.41731 0.08836 0.93922 0.0
H1929 H 0.51308 0.07948 0.99324 0.0
H1930 H 0.43836 0.04246 0.96081 0.0
H1931 H 0.49598 0.12598 0.96802 0.0
C1932 C 0.47208 0.13262 0.95385 0.0
C1933 C 0.44982 0.12242 0.94556 0.0
C1934 C 0.4547 0.05064 0.96795 0.0
C1935 C 0.46306 0.0924 0.96125 0.0
C1936 C 0.46125 0.03557 0.97563 0.0
C1937 C 0.48239 0.04556 0.98493 0.0
C1938 C 0.46943 0.07595 0.96948 0.0
C1939 C 0.49654 0.07097 0.98629 0.0
C1940 C 0.47873 0.11771 0.96171 0.0
C1941 C 0.43476 0.09702 0.94531 0.0
N1942 N 0.48982 0.0853 0.97861 0.0
N1943 N 0.44165 0.0829 0.95305 0.0
H1944 H 0.66057 0.14705 0.96082 0.0
H1945 H 0.58099 0.00869 0.98815 0.0
H1946 H 0.67804 0.09098 0.95006 0.0
H1947 H 0.55256 0.05825 0.98933 0.0
H1948 H 0.62037 0.04129 0.9784 0.0
H1949 H 0.62438 0.11718 0.97519 0.0
C1950 C 0.65689 0.12851 0.96157 0.0
C1951 C 0.67219 0.12142 0.9541 0.0
C1952 C 0.60566 0.04517 0.98096 0.0
C1953 C 0.63101 0.08729 0.97053 0.0
C1954 C 0.58326 0.02661 0.98658 0.0
C1955 C 0.56366 0.03089 0.98968 0.0
C1956 C 0.60845 0.06819 0.97821 0.0
C1957 C 0.56738 0.05433 0.98731 0.0
C1958 C 0.63622 0.11149 0.96971 0.0
C1959 C 0.66652 0.09715 0.95541 0.0
N1960 N 0.58934 0.07213 0.98164 0.0
N1961 N 0.64643 0.08101 0.96343 0.0
H1962 H 0.90971 0.58435 0.94749 0.0
H1963 H 0.94227 0.49211 0.98909 0.0
H1964 H 0.8534 0.51173 0.95972 0.0
H1965 H 0.99385 0.56874 0.98416 0.0
H1966 H 0.90927 0.4982 0.97839 0.0
H1967 H 0.94065 0.57843 0.96079 0.0
C1968 C 0.90386 0.56712 0.95299 0.0
C1969 C 0.87896 0.54843 0.95237 0.0
C1970 C 0.92775 0.51371 0.97978 0.0
C1971 C 0.91442 0.54146 0.96769 0.0
C1972 C 0.94652 0.51026 0.98595 0.0
C1973 C 0.97064 0.53008 0.98781 0.0
C1974 C 0.93332 0.53707 0.97515 0.0
C1975 C 0.9754 0.55306 0.9831 0.0
C1976 C 0.92153 0.56377 0.96065 0.0
C1977 C 0.87239 0.52663 0.95994 0.0
N1978 N 0.95695 0.55592 0.97699 0.0
N1979 N 0.89006 0.52364 0.96717 0.0
H1980 H 0.48721 0.32279 0.96796 0.0
H1981 H 0.44878 0.42497 0.9736 0.0
H1982 H 0.41846 0.31418 0.95023 0.0
H1983 H 0.50852 0.42712 0.99968 0.0
H1984 H 0.43881 0.38536 0.96388 0.0
H1985 H 0.4964 0.36174 0.97895 0.0
C1986 C 0.47394 0.32896 0.96648 0.0
C1987 C 0.45204 0.31517 0.95811 0.0
C1988 C 0.45394 0.39438 0.97187 0.0
C1989 C 0.46269 0.35993 0.97044 0.0
C1990 C 0.45965 0.4171 0.97747 0.0
C1991 C 0.47914 0.4293 0.98782 0.0
C1992 C 0.46806 0.38384 0.97644 0.0
C1993 C 0.49289 0.41816 0.99207 0.0
C1994 C 0.47928 0.35126 0.97269 0.0
C1995 C 0.43577 0.32434 0.95635 0.0
N1996 N 0.48712 0.39609 0.98634 0.0
N1997 N 0.44147 0.34617 0.96242 0.0
H1998 H 0.17224 0.67294 0.05103 0.0
H1999 H 0.02799 0.57858 0.03606 0.0
H2000 H 0.11303 0.68326 0.06794 0.0
H2001 H 0.08793 0.5699 0.01854 0.0
H2002 H 0.05858 0.61654 0.04816 0.0
H2003 H 0.14139 0.6348 0.03941 0.0
C2004 C 0.15274 0.66724 0.05227 0.0
C2005 C 0.14527 0.68147 0.06042 0.0
C2006 C 0.06503 0.60635 0.04162 0.0
C2007 C 0.10969 0.63752 0.0472 0.0
C2008 C 0.04756 0.58465 0.0347 0.0
C2009 C 0.05535 0.57106 0.02613 0.0
C2010 C 0.0905 0.61453 0.04003 0.0
C2011 C 0.08099 0.57987 0.02483 0.0
C2012 C 0.1351 0.64536 0.04567 0.0
C2013 C 0.11967 0.67282 0.06188 0.0
N2014 N 0.09759 0.601 0.03169 0.0
N2015 N 0.10282 0.65147 0.05529 0.0
H2016 H 0.32151 0.41716 0.06092 0.0
H2017 H 0.44958 0.51233 0.02296 0.0
H2018 H 0.33916 0.49072 0.05166 0.0
H2019 H 0.41765 0.43475 0.01881 0.0
H2020 H 0.41043 0.50585 0.03401 0.0
H2021 H 0.35789 0.42405 0.04645 0.0
C2022 C 0.33309 0.4348 0.05583 0.0
C2023 C 0.32737 0.45343 0.05758 0.0
C2024 C 0.41187 0.49027 0.03046 0.0
C2025 C 0.36925 0.46153 0.04098 0.0
C2026 C 0.43411 0.49397 0.02406 0.0
C2027 C 0.43654 0.47402 0.01961 0.0
C2028 C 0.39226 0.46644 0.03285 0.0
C2029 C 0.41633 0.45059 0.02185 0.0
C2030 C 0.35379 0.43868 0.04749 0.0
C2031 C 0.34288 0.47584 0.05056 0.0
N2032 N 0.39513 0.44744 0.02836 0.0
N2033 N 0.36327 0.47937 0.04271 0.0
H2034 H 0.59287 0.91237 0.07019 0.0
H2035 H 0.49199 0.91659 0.0159 0.0
H2036 H 0.52895 0.84806 0.05258 0.0
H2037 H 0.55331 0.97991 0.0365 0.0
H2038 H 0.50568 0.89107 0.02852 0.0
H2039 H 0.57887 0.93737 0.05741 0.0
C2040 C 0.5758 0.90348 0.06372 0.0
C2041 C 0.56207 0.87806 0.06248 0.0
C2042 C 0.51613 0.91057 0.03024 0.0
C2043 C 0.54605 0.90662 0.04762 0.0
C2044 C 0.50839 0.92517 0.02298 0.0
C2045 C 0.5216 0.95049 0.02504 0.0
C2046 C 0.5372 0.92137 0.03963 0.0
C2047 C 0.54252 0.96052 0.03452 0.0
C2048 C 0.56787 0.91778 0.05634 0.0
C2049 C 0.54031 0.8676 0.0537 0.0
N2050 N 0.54966 0.94595 0.04143 0.0
N2051 N 0.53297 0.88192 0.0466 0.0
H2052 H 0.9892 0.24368 0.39567 0.0
H2053 H 0.11376 0.27023 0.35404 0.0
H2054 H 0.00555 0.18682 0.385 0.0
H2055 H 0.08739 0.32139 0.35639 0.0
H2056 H 0.07396 0.23872 0.36436 0.0
H2057 H 0.02517 0.27215 0.38094 0.0
C2058 C 1.00043 0.23722 0.39024 0.0
C2059 C 0.9945 0.21292 0.39165 0.0
C2060 C 0.07675 0.25674 0.3624 0.0
C2061 C 0.03575 0.2454 0.37469 0.0
C2062 C 0.09938 0.27465 0.35642 0.0
C2063 C 0.10367 0.29832 0.35425 0.0
C2064 C 0.05865 0.2628 0.36654 0.0
C2065 C 0.08471 0.3033 0.35786 0.0
C2066 C 0.02086 0.25342 0.38172 0.0
C2067 C 0.00945 0.20541 0.38415 0.0
N2068 N 0.06313 0.28577 0.36393 0.0
N2069 N 0.02954 0.22165 0.3761 0.0
H2070 H 0.76935 0.751 0.39349 0.0
H2071 H 0.72944 0.84115 0.3565 0.0
H2072 H 0.82244 0.822 0.37674 0.0
H2073 H 0.67846 0.7647 0.3628 0.0
H2074 H 0.76356 0.83528 0.36502 0.0
H2075 H 0.73562 0.75638 0.38359 0.0
C2076 C 0.77392 0.76775 0.38775 0.0
C2077 C 0.7988 0.7861 0.38599 0.0
C2078 C 0.74496 0.81973 0.36443 0.0
C2079 C 0.76019 0.7924 0.3746 0.0
C2080 C 0.72549 0.82305 0.35945 0.0
C2081 C 0.70122 0.80322 0.35847 0.0
C2082 C 0.74004 0.79649 0.36883 0.0
C2083 C 0.69701 0.78036 0.36311 0.0
C2084 C 0.75465 0.77076 0.38202 0.0
C2085 C 0.80357 0.8073 0.37826 0.0
N2086 N 0.71621 0.7776 0.36806 0.0
N2087 N 0.78447 0.80993 0.37295 0.0
H2088 H 0.23277 0.03219 0.35791 0.0
H2089 H 0.2181 0.90167 0.36944 0.0
H2090 H 0.22865 0.00123 0.40183 0.0
H2091 H 0.18432 0.91695 0.33163 0.0
H2092 H 0.23072 0.9419 0.37967 0.0
H2093 H 0.22277 0.99325 0.34647 0.0
C2094 C 0.22972 0.01731 0.36519 0.0
C2095 C 0.23151 0.02016 0.38093 0.0
C2096 C 0.22065 0.93646 0.3691 0.0
C2097 C 0.22085 0.97585 0.36779 0.0
C2098 C 0.21355 0.91357 0.36319 0.0
C2099 C 0.20005 0.90592 0.34967 0.0
C2100 C 0.21459 0.952 0.36133 0.0
C2101 C 0.19458 0.9221 0.34213 0.0
C2102 C 0.22416 0.99515 0.35861 0.0
C2103 C 0.22797 0.00024 0.38967 0.0
N2104 N 0.20195 0.94449 0.34805 0.0
N2105 N 0.22291 0.979 0.38298 0.0
H2106 H 0.49877 0.65679 0.30104 0.0
H2107 H 0.64336 0.7533 0.3125 0.0
H2108 H 0.55762 0.64743 0.28243 0.0
H2109 H 0.58383 0.76372 0.32878 0.0
H2110 H 0.61246 0.71426 0.30168 0.0
H2111 H 0.52991 0.69566 0.31178 0.0
C2112 C 0.51826 0.66285 0.29928 0.0
C2113 C 0.52558 0.64879 0.29084 0.0
C2114 C 0.60619 0.72508 0.30767 0.0
C2115 C 0.56141 0.69347 0.303 0.0
C2116 C 0.62383 0.74739 0.31385 0.0
C2117 C 0.61622 0.76174 0.32172 0.0
C2118 C 0.58076 0.71707 0.30935 0.0
C2119 C 0.59062 0.75314 0.32304 0.0
C2120 C 0.53605 0.68514 0.30534 0.0
C2121 C 0.55112 0.65779 0.28871 0.0
N2122 N 0.57386 0.73139 0.31695 0.0
N2123 N 0.56811 0.67953 0.29478 0.0
H2124 H 0.34863 0.90209 0.28492 0.0
H2125 H 0.21711 0.80321 0.3181 0.0
H2126 H 0.33244 0.83022 0.29792 0.0
H2127 H 0.24141 0.87964 0.31643 0.0
H2128 H 0.25883 0.81223 0.31034 0.0
H2129 H 0.30888 0.89381 0.29564 0.0
C2130 C 0.33668 0.88454 0.29 0.0
C2131 C 0.34387 0.8668 0.29047 0.0
C2132 C 0.25519 0.82709 0.31188 0.0
C2133 C 0.29827 0.85718 0.30281 0.0
C2134 C 0.23148 0.82194 0.31638 0.0
C2135 C 0.22626 0.84083 0.31836 0.0
C2136 C 0.2735 0.85124 0.30882 0.0
C2137 C 0.24506 0.86471 0.31545 0.0
C2138 C 0.31406 0.87988 0.29622 0.0
C2139 C 0.32774 0.84449 0.29739 0.0
N2140 N 0.26784 0.86924 0.31076 0.0
N2141 N 0.30565 0.84025 0.30317 0.0
H2142 H 0.08209 0.42108 0.27289 0.0
H2143 H 0.17956 0.41284 0.32824 0.0
H2144 H 0.14703 0.4843 0.29062 0.0
H2145 H 0.11679 0.3508 0.30765 0.0
H2146 H 0.16772 0.43954 0.31524 0.0
H2147 H 0.09458 0.39518 0.28598 0.0
C2148 C 0.0991 0.42954 0.27943 0.0
C2149 C 0.11355 0.45492 0.28062 0.0
C2150 C 0.15656 0.42007 0.31361 0.0
C2151 C 0.12781 0.42531 0.29588 0.0
C2152 C 0.16324 0.40481 0.32109 0.0
C2153 C 0.14909 0.37951 0.31912 0.0
C2154 C 0.13561 0.40992 0.30411 0.0
C2155 C 0.1283 0.37016 0.30954 0.0
C2156 C 0.10615 0.41472 0.287 0.0
C2157 C 0.13517 0.46481 0.28953 0.0
N2158 N 0.12222 0.38535 0.30243 0.0
N2159 N 0.14165 0.44999 0.29682 0.0
H2160 H 0.34405 0.41624 0.28411 0.0
H2161 H 0.21857 0.38946 0.32434 0.0
H2162 H 0.32784 0.47314 0.29495 0.0
H2163 H 0.24468 0.33808 0.32244 0.0
H2164 H 0.25884 0.42106 0.31471 0.0
H2165 H 0.30783 0.38764 0.29862 0.0
C2166 C 0.33282 0.42269 0.28955 0.0
C2167 C 0.33882 0.44702 0.28822 0.0
C2168 C 0.2559 0.40298 0.31664 0.0
C2169 C 0.29728 0.4144 0.30492 0.0
C2170 C 0.233 0.38501 0.32224 0.0
C2171 C 0.2285 0.36125 0.32435 0.0
C2172 C 0.2741 0.39691 0.31278 0.0
C2173 C 0.24754 0.35624 0.32104 0.0
C2174 C 0.31224 0.40641 0.29794 0.0
C2175 C 0.32387 0.45451 0.29572 0.0
N2176 N 0.26941 0.37384 0.3153 0.0
N2177 N 0.30361 0.4382 0.30362 0.0
H2178 H 0.5799 0.91561 0.28086 0.0
H2179 H 0.60909 0.81971 0.32051 0.0
H2180 H 0.52234 0.84303 0.29216 0.0
H2181 H 0.66234 0.89609 0.31656 0.0
H2182 H 0.57677 0.82735 0.31048 0.0
H2183 H 0.61013 0.90845 0.29404 0.0
C2184 C 0.57362 0.89813 0.28613 0.0
C2185 C 0.54858 0.87982 0.28528 0.0
C2186 C 0.59545 0.84249 0.31197 0.0
C2187 C 0.58322 0.87142 0.30046 0.0
C2188 C 0.61385 0.83815 0.31778 0.0
C2189 C 0.63826 0.85743 0.3197 0.0
C2190 C 0.60168 0.86619 0.30772 0.0
C2191 C 0.64365 0.88081 0.31545 0.0
C2192 C 0.59089 0.89408 0.29373 0.0
C2193 C 0.54145 0.85767 0.29256 0.0
N2194 N 0.62556 0.88453 0.30966 0.0
N2195 N 0.55873 0.85399 0.29972 0.0
H2196 H 0.07199 0.64129 0.29028 0.0
H2197 H 0.177 0.76036 0.33191 0.0
H2198 H 0.14206 0.65038 0.30577 0.0
H2199 H 0.10801 0.7534 0.31598 0.0
H2200 H 0.16303 0.71897 0.32372 0.0
H2201 H 0.08357 0.68133 0.30066 0.0
C2202 C 0.08978 0.65168 0.29588 0.0
C2203 C 0.10611 0.64248 0.29713 0.0
C2204 C 0.15087 0.72641 0.32203 0.0
C2205 C 0.11938 0.68816 0.3091 0.0
C2206 C 0.15879 0.75006 0.32679 0.0
C2207 C 0.14366 0.7604 0.32461 0.0
C2208 C 0.12766 0.71293 0.31494 0.0
C2209 C 0.1204 0.74624 0.31771 0.0
C2210 C 0.09632 0.67447 0.30186 0.0
C2211 C 0.12875 0.65657 0.3047 0.0
N2212 N 0.11312 0.72321 0.31306 0.0
N2213 N 0.13474 0.67872 0.31033 0.0
H2214 H 0.7762 0.01204 0.39677 0.0
H2215 H 0.75431 0.89614 0.34865 0.0
H2216 H 0.83549 0.00314 0.37841 0.0
H2217 H 0.69456 0.90517 0.36616 0.0
H2218 H 0.78421 0.93532 0.35947 0.0
H2219 H 0.74597 0.9728 0.38589 0.0
C2220 C 0.78288 0.00178 0.39052 0.0
C2221 C 0.80845 0.01092 0.3885 0.0
C2222 C 0.76457 0.92879 0.36092 0.0
C2223 C 0.77391 0.96607 0.37588 0.0
C2224 C 0.74742 0.90642 0.35466 0.0
C2225 C 0.72181 0.8974 0.35634 0.0
C2226 C 0.75612 0.94226 0.36902 0.0
C2227 C 0.7141 0.9114 0.36454 0.0
C2228 C 0.76559 0.97944 0.38424 0.0
C2229 C 0.81598 0.99698 0.38009 0.0
N2230 N 0.73119 0.93313 0.37057 0.0
N2231 N 0.7988 0.97527 0.37412 0.0
H2232 H 0.02688 0.81902 0.40784 0.0
H2233 H 0.08833 0.78042 0.34341 0.0
H2234 H 0.98287 0.77207 0.37149 0.0
H2235 H 0.12915 0.84788 0.36773 0.0
H2236 H 0.04938 0.77548 0.35386 0.0
H2237 H 0.06469 0.8283 0.39401 0.0
C2238 C 0.02521 0.81073 0.39691 0.0
C2239 C 1.00172 0.79469 0.39082 0.0
C2240 C 0.06681 0.79158 0.3567 0.0
C2241 C 0.04494 0.80502 0.37498 0.0
C2242 C 0.08894 0.79442 0.3507 0.0
C2243 C 0.11174 0.81491 0.35442 0.0
C2244 C 0.06768 0.80888 0.36697 0.0
C2245 C 0.1118 0.83217 0.36431 0.0
C2246 C 0.04678 0.81613 0.38899 0.0
C2247 C 1.00063 0.78459 0.37655 0.0
N2248 N 0.09013 0.82867 0.37036 0.0
N2249 N 0.02193 0.78966 0.3692 0.0
H2250 H 0.21771 0.22299 0.41704 0.0
H2251 H 0.16393 0.24984 0.34351 0.0
H2252 H 0.22491 0.19623 0.37361 0.0
H2253 H 0.20236 0.30494 0.3775 0.0
H2254 H 0.17703 0.2239 0.35626 0.0
H2255 H 0.20317 0.24771 0.40439 0.0
C2256 C 0.21642 0.22231 0.40489 0.0
C2257 C 0.22275 0.20742 0.39645 0.0
C2258 C 0.18254 0.24173 0.36084 0.0
C2259 C 0.20511 0.23502 0.38203 0.0
C2260 C 0.17517 0.25658 0.35355 0.0
C2261 C 0.1825 0.27989 0.35918 0.0
C2262 C 0.19662 0.24996 0.37412 0.0
C2263 C 0.1965 0.28729 0.37257 0.0
C2264 C 0.2079 0.23629 0.39772 0.0
C2265 C 0.21986 0.20694 0.3807 0.0
N2266 N 0.20299 0.27233 0.37962 0.0
N2267 N 0.21112 0.22042 0.37402 0.0
H2268 H 0.67541 0.52275 0.71791 0.0
H2269 H 0.75802 0.65856 0.687 0.0
H2270 H 0.66 0.58093 0.72615 0.0
H2271 H 0.78395 0.607 0.68746 0.0
H2272 H 0.71817 0.62739 0.69707 0.0
H2273 H 0.71175 0.55073 0.70295 0.0
C2274 C 0.67958 0.54136 0.71649 0.0
C2275 C 0.66479 0.5496 0.72341 0.0
C2276 C 0.73241 0.62273 0.69479 0.0
C2277 C 0.70616 0.58157 0.70628 0.0
C2278 C 0.75508 0.64047 0.68897 0.0
C2279 C 0.77415 0.63526 0.68631 0.0
C2280 C 0.72884 0.59961 0.69819 0.0
C2281 C 0.76957 0.61163 0.68917 0.0
C2282 C 0.70034 0.5573 0.708 0.0
C2283 C 0.67111 0.5739 0.72125 0.0
N2284 N 0.74737 0.59466 0.69507 0.0
N2285 N 0.69128 0.58899 0.7129 0.0
H2286 H 0.43783 0.0921 0.72783 0.0
H2287 H 0.39804 0.18118 0.68875 0.0
H2288 H 0.49133 0.16381 0.71228 0.0
H2289 H 0.34789 0.10466 0.69551 0.0
H2290 H 0.43233 0.17619 0.69834 0.0
H2291 H 0.40449 0.09732 0.71723 0.0
C2292 C 0.44257 0.10901 0.72224 0.0
C2293 C 0.46747 0.12758 0.72102 0.0
C2294 C 0.41386 0.16045 0.69763 0.0
C2295 C 0.42922 0.13368 0.70875 0.0
C2296 C 0.39433 0.16328 0.69208 0.0
C2297 C 0.37026 0.14314 0.69094 0.0
C2298 C 0.40915 0.13743 0.70241 0.0
C2299 C 0.36628 0.12054 0.69596 0.0
C2300 C 0.42351 0.11193 0.71609 0.0
C2301 C 0.47245 0.14895 0.71341 0.0
N2302 N 0.38549 0.11829 0.70143 0.0
N2303 N 0.45351 0.15147 0.70764 0.0
H2304 H 0.84366 0.33748 0.71394 0.0
H2305 H 0.88598 0.23845 0.70194 0.0
H2306 H 0.91377 0.34696 0.72969 0.0
H2307 H 0.8189 0.23218 0.68302 0.0
H2308 H 0.89609 0.27778 0.71269 0.0
H2309 H 0.83406 0.29856 0.70283 0.0
C2310 C 0.85713 0.33147 0.71498 0.0
C2311 C 0.87959 0.34557 0.72274 0.0
C2312 C 0.87921 0.26783 0.70614 0.0
C2313 C 0.86854 0.30078 0.71021 0.0
C2314 C 0.87339 0.24533 0.70001 0.0
C2315 C 0.85163 0.23204 0.69146 0.0
C2316 C 0.8631 0.27705 0.70378 0.0
C2317 C 0.83603 0.24189 0.68937 0.0
C2318 C 0.85157 0.30915 0.7087 0.0
C2319 C 0.8961 0.33658 0.72397 0.0
N2320 N 0.84206 0.26378 0.69549 0.0
N2321 N 0.89024 0.31476 0.71777 0.0
H2322 H 0.18881 0.97318 0.6454 0.0
H2323 H 0.29904 0.10902 0.63149 0.0
H2324 H 0.20632 0.00668 0.6015 0.0
H2325 H 0.26635 0.08217 0.67497 0.0
H2326 H 0.26858 0.06999 0.62028 0.0
H2327 H 0.2201 0.01167 0.65644 0.0
C2328 C 0.19906 0.98862 0.63806 0.0
C2329 C 0.19471 0.98658 0.62246 0.0
C2330 C 0.26802 0.0727 0.63228 0.0
C2331 C 0.23108 0.03068 0.63507 0.0
C2332 C 0.28546 0.09489 0.63868 0.0
C2333 C 0.28489 0.09895 0.65416 0.0
C2334 C 0.25016 0.05434 0.64147 0.0
C2335 C 0.26695 0.08008 0.66297 0.0
C2336 C 0.21707 0.01058 0.64439 0.0
C2337 C 0.20916 0.00718 0.61354 0.0
N2338 N 0.25032 0.05856 0.65652 0.0
N2339 N 0.2267 0.02833 0.61997 0.0
H2340 H 0.01445 0.24016 0.61959 0.0
H2341 H 0.88447 0.15176 0.65926 0.0
H2342 H 0.99491 0.16845 0.63509 0.0
H2343 H 0.91298 0.22846 0.65288 0.0
H2344 H 0.92405 0.15672 0.65016 0.0
H2345 H 0.97649 0.23541 0.63096 0.0
C2346 C 1.00212 0.22335 0.62534 0.0
C2347 C 0.00789 0.20464 0.62631 0.0
C2348 C 0.92174 0.17251 0.65089 0.0
C2349 C 0.96423 0.19908 0.63948 0.0
C2350 C 0.89921 0.16971 0.65619 0.0
C2351 C 0.89566 0.18984 0.65713 0.0
C2352 C 0.94061 0.19552 0.64614 0.0
C2353 C 0.91509 0.21253 0.6525 0.0
C2354 C 0.9805 0.22071 0.63194 0.0
C2355 C 0.99132 0.18342 0.63413 0.0
N2356 N 0.93664 0.21473 0.64718 0.0
N2357 N 0.97019 0.18114 0.64032 0.0
H2358 H 0.78717 0.77146 0.59138 0.0
H2359 H 0.8412 0.7471 0.66591 0.0
H2360 H 0.78755 0.80588 0.63352 0.0
H2361 H 0.79946 0.69025 0.63344 0.0
H2362 H 0.82969 0.77359 0.65235 0.0
H2363 H 0.79952 0.74576 0.60496 0.0
C2364 C 0.78969 0.77363 0.60345 0.0
C2365 C 0.78618 0.79097 0.61125 0.0
C2366 C 0.82306 0.75526 0.64829 0.0
C2367 C 0.80119 0.76208 0.62671 0.0
C2368 C 0.82952 0.74009 0.65604 0.0
C2369 C 0.82091 0.7162 0.65104 0.0
C2370 C 0.80851 0.74668 0.6352 0.0
C2371 C 0.80635 0.7084 0.63787 0.0
C2372 C 0.79693 0.75903 0.61116 0.0
C2373 C 0.79047 0.79322 0.6269 0.0
N2374 N 0.80073 0.72364 0.63037 0.0
N2375 N 0.79787 0.77904 0.63409 0.0
H2376 H 0.99467 0.81313 0.62508 0.0
H2377 H 0.91626 0.676 0.6546 0.0
H2378 H 0.01043 0.75614 0.61358 0.0
H2379 H 0.88859 0.72614 0.65655 0.0
H2380 H 0.95493 0.70794 0.64369 0.0
H2381 H 0.95939 0.78397 0.64032 0.0
C2382 C 0.99078 0.79453 0.62582 0.0
C2383 C 0.00538 0.78699 0.61794 0.0
C2384 C 0.94055 0.7121 0.64666 0.0
C2385 C 0.96524 0.75367 0.6354 0.0
C2386 C 0.91856 0.69392 0.65296 0.0
C2387 C 0.89933 0.69851 0.65654 0.0
C2388 C 0.9433 0.73505 0.64378 0.0
C2389 C 0.90311 0.72196 0.65411 0.0
C2390 C 0.97063 0.77791 0.63448 0.0
C2391 C 0.99945 0.76265 0.61926 0.0
N2392 N 0.92466 0.73937 0.64779 0.0
N2393 N 0.97988 0.74691 0.6278 0.0
H2394 H 0.18378 0.1744 0.62714 0.0
H2395 H 0.32824 0.23315 0.6484 0.0
H2396 H 0.2409 0.24592 0.61359 0.0
H2397 H 0.27614 0.15657 0.65294 0.0
H2398 H 0.29484 0.23913 0.63864 0.0
H2399 H 0.21568 0.16861 0.6399 0.0
C2400 C 0.20296 0.18894 0.62697 0.0
C2401 C 0.20973 0.21058 0.61915 0.0
C2402 C 0.29059 0.22101 0.64187 0.0
C2403 C 0.2462 0.20408 0.63364 0.0
C2404 C 0.30965 0.21763 0.64746 0.0
C2405 C 0.30479 0.19446 0.6518 0.0
C2406 C 0.26644 0.20101 0.64038 0.0
C2407 C 0.28049 0.17484 0.65007 0.0
C2408 C 0.22115 0.18557 0.63415 0.0
C2409 C 0.23487 0.22879 0.61925 0.0
N2410 N 0.26216 0.17856 0.64454 0.0
N2411 N 0.25211 0.22511 0.62633 0.0
H2412 H 0.79417 0.9743 0.64499 0.0
H2413 H 0.79191 0.09706 0.6394 0.0
H2414 H 0.78826 0.00253 0.60187 0.0
H2415 H 0.84139 0.08938 0.67024 0.0
H2416 H 0.7825 0.05856 0.62757 0.0
H2417 H 0.80388 0.0129 0.65663 0.0
C2418 C 0.79506 0.98854 0.6379 0.0
C2419 C 0.79053 0.985 0.62232 0.0
C2420 C 0.7953 0.06535 0.63699 0.0
C2421 C 0.80069 0.02889 0.63581 0.0
C2422 C 0.80065 0.08726 0.64381 0.0
C2423 C 0.81721 0.09637 0.65606 0.0
C2424 C 0.80618 0.05225 0.64263 0.0
C2425 C 0.82809 0.08287 0.66112 0.0
C2426 C 0.80044 0.01051 0.64462 0.0
C2427 C 0.79118 0.00408 0.61392 0.0
N2428 N 0.8222 0.06135 0.65448 0.0
N2429 N 0.79601 0.02514 0.62079 0.0
H2430 H 0.46327 0.33114 0.74268 0.0
H2431 H 0.40847 0.25354 0.66739 0.0
H2432 H 0.48203 0.36227 0.69816 0.0
H2433 H 0.37425 0.2281 0.7107 0.0
H2434 H 0.43809 0.29245 0.67875 0.0
H2435 H 0.43258 0.29236 0.73149 0.0
C2436 C 0.46087 0.32995 0.73057 0.0
C2437 C 0.47543 0.35013 0.72138 0.0
C2438 C 0.42412 0.27837 0.68579 0.0
C2439 C 0.44058 0.30555 0.7085 0.0
C2440 C 0.40739 0.25602 0.67932 0.0
C2441 C 0.38914 0.23742 0.68812 0.0
C2442 C 0.42273 0.28211 0.70126 0.0
C2443 C 0.38804 0.242 0.70349 0.0
C2444 C 0.44341 0.30773 0.7242 0.0
C2445 C 0.47169 0.3472 0.70573 0.0
N2446 N 0.40473 0.26384 0.7096 0.0
N2447 N 0.45475 0.32535 0.6998 0.0
H2448 H 0.67267 0.15595 0.71749 0.0
H2449 H 0.75614 0.09768 0.69299 0.0
H2450 H 0.65737 0.08406 0.72968 0.0
H2451 H 0.78236 0.17446 0.68976 0.0
H2452 H 0.71643 0.09128 0.70251 0.0
H2453 H 0.70959 0.16196 0.70361 0.0
C2454 C 0.67694 0.14137 0.71714 0.0
C2455 C 0.66203 0.11955 0.7249 0.0
C2456 C 0.73072 0.10953 0.69957 0.0
C2457 C 0.70411 0.12627 0.70903 0.0
C2458 C 0.75334 0.11316 0.69407 0.0
C2459 C 0.77242 0.13656 0.69041 0.0
C2460 C 0.72712 0.12951 0.70164 0.0
C2461 C 0.76796 0.15605 0.6922 0.0
C2462 C 0.69806 0.14486 0.70929 0.0
C2463 C 0.66852 0.10132 0.7241 0.0
N2464 N 0.74577 0.15211 0.69775 0.0
N2465 N 0.689 0.1051 0.71636 0.0
H2466 H 0.91868 0.57426 0.73953 0.0
H2467 H 0.82261 0.58355 0.68348 0.0
H2468 H 0.85086 0.51172 0.72407 0.0
H2469 H 0.886 0.64553 0.70365 0.0
H2470 H 0.83356 0.55671 0.6971 0.0
H2471 H 0.90761 0.60052 0.72555 0.0
C2472 C 0.90136 0.56603 0.7333 0.0
C2473 C 0.88567 0.54071 0.73302 0.0
C2474 C 0.84506 0.57619 0.69851 0.0
C2475 C 0.87304 0.57072 0.71675 0.0
C2476 C 0.83889 0.59154 0.69068 0.0
C2477 C 0.85343 0.61686 0.69237 0.0
C2478 C 0.86593 0.58627 0.70807 0.0
C2479 C 0.87418 0.62615 0.70198 0.0
C2480 C 0.89512 0.58105 0.72522 0.0
C2481 C 0.86369 0.53111 0.72447 0.0
N2482 N 0.87979 0.61087 0.70944 0.0
N2483 N 0.85803 0.54612 0.71667 0.0
H2484 H 0.51583 0.97517 0.18502 0.0
H2485 H 0.4757 0.98691 0.10094 0.0
H2486 H 0.44107 0.93162 0.16798 0.0
H2487 H 0.55048 0.02903 0.11819 0.0
H2488 H 0.46268 0.96589 0.12512 0.0
H2489 H 0.52879 0.99454 0.16045 0.0
C2490 C 0.50213 0.96952 0.1761 0.0
C2491 C 0.47728 0.95163 0.17865 0.0
C2492 C 0.48194 0.97971 0.12361 0.0
C2493 C 0.49203 0.97411 0.15037 0.0
C2494 C 0.48945 0.99165 0.10975 0.0
C2495 C 0.51426 0.00991 0.10747 0.0
C2496 C 0.49934 0.986 0.13533 0.0
C2497 C 0.53109 0.01541 0.11944 0.0
C2498 C 0.50954 0.98073 0.16206 0.0
C2499 C 0.46035 0.94549 0.16665 0.0
N2500 N 0.52334 0.00356 0.1328 0.0
N2501 N 0.46803 0.95668 0.15307 0.0
H2502 H 0.04769 0.51097 0.17218 0.0
H2503 H 0.95281 0.5232 0.11708 0.0
H2504 H 0.99644 0.53416 0.18669 0.0
H2505 H 0.99373 0.48749 0.10425 0.0
H2506 H 0.96925 0.52795 0.14256 0.0
H2507 H 0.02875 0.50266 0.14713 0.0
C2508 C 0.03232 0.51412 0.17015 0.0
C2509 C 0.02377 0.52345 0.18155 0.0
C2510 C 0.97456 0.51899 0.13419 0.0
C2511 C 1.00226 0.5143 0.15286 0.0
C2512 C 0.96506 0.51614 0.11964 0.0
C2513 C 0.97188 0.50493 0.10846 0.0
C2514 C 0.99116 0.51071 0.13763 0.0
C2515 C 0.98825 0.49659 0.11242 0.0
C2516 C 0.0216 0.50948 0.15583 0.0
C2517 C 0.00399 0.52745 0.17819 0.0
N2518 N 0.99739 0.49972 0.12666 0.0
N2519 N 0.99401 0.52296 0.16415 0.0
H2520 H 0.48588 0.55622 0.16806 0.0
H2521 H 0.50294 0.46161 0.11695 0.0
H2522 H 0.46932 0.48536 0.1836 0.0
H2523 H 0.512 0.52947 0.10049 0.0
H2524 H 0.49021 0.46963 0.14135 0.0
H2525 H 0.49494 0.54637 0.14313 0.0
C2526 C 0.48415 0.53856 0.16621 0.0
C2527 C 0.47701 0.52166 0.17797 0.0
C2528 C 0.49486 0.48271 0.13238 0.0
C2529 C 0.48731 0.51018 0.14939 0.0
C2530 C 0.50228 0.47821 0.11847 0.0
C2531 C 0.50863 0.49493 0.10665 0.0
C2532 C 0.49395 0.50417 0.13455 0.0
C2533 C 0.50705 0.51595 0.10921 0.0
C2534 C 0.48921 0.5329 0.15196 0.0
C2535 C 0.47465 0.49889 0.17485 0.0
N2536 N 0.50002 0.52003 0.12289 0.0
N2537 N 0.47997 0.49389 0.1609 0.0
H2538 H 0.99856 0.46031 0.82936 0.0
H2539 H 0.00628 0.51739 0.911 0.0
H2540 H 0.95126 0.48846 0.84343 0.0
H2541 H 0.04772 0.48225 0.89811 0.0
H2542 H 0.98753 0.50905 0.88592 0.0
H2543 H 0.01849 0.47047 0.85405 0.0
C2544 C 0.99228 0.46855 0.83766 0.0
C2545 C 0.97304 0.47335 0.83433 0.0
C2546 C 1.00076 0.50321 0.88858 0.0
C2547 C 0.99605 0.48533 0.86264 0.0
C2548 C 0.01138 0.50784 0.90293 0.0
C2549 C 0.02857 0.50044 0.90672 0.0
C2550 C 0.00737 0.49111 0.8779 0.0
C2551 C 0.0348 0.48856 0.89567 0.0
C2552 C 0.00377 0.47446 0.85175 0.0
C2553 C 0.96612 0.48458 0.84545 0.0
N2554 N 0.02417 0.48423 0.88179 0.0
N2555 N 0.97755 0.49011 0.85912 0.0
H2556 H 0.50643 0.4501 0.84071 0.0
H2557 H 0.50125 0.55298 0.89051 0.0
H2558 H 0.52992 0.52221 0.82414 0.0
H2559 H 0.48172 0.48173 0.90696 0.0
H2560 H 0.51157 0.54232 0.86609 0.0
H2561 H 0.49735 0.4617 0.86504 0.0
C2562 C 0.50961 0.46839 0.84217 0.0
C2563 C 0.51878 0.48514 0.83029 0.0
C2564 C 0.50507 0.52905 0.87506 0.0
C2565 C 0.50854 0.49867 0.85829 0.0
C2566 C 0.49902 0.53507 0.88898 0.0
C2567 C 0.49064 0.51826 0.90085 0.0
C2568 C 0.5026 0.50599 0.87294 0.0
C2569 C 0.48843 0.49542 0.89824 0.0
C2570 C 0.50453 0.47505 0.85612 0.0
C2571 C 0.52301 0.50874 0.83299 0.0
N2572 N 0.49432 0.48998 0.88461 0.0
N2573 N 0.51773 0.51477 0.84667 0.0
H2574 H 0.55486 0.0672 0.841 0.0
H2575 H 0.45081 0.96262 0.89289 0.0
H2576 H 0.47831 0.02119 0.82778 0.0
H2577 H 0.52529 0.01153 0.90866 0.0
H2578 H 0.46138 0.98348 0.86875 0.0
H2579 H 0.54536 0.04654 0.86546 0.0
C2580 C 0.5361 0.0527 0.84319 0.0
C2581 C 0.51733 0.04608 0.8323 0.0
C2582 C 0.47547 0.98973 0.87746 0.0
C2583 C 0.5063 0.02241 0.86032 0.0
C2584 C 0.46947 0.97771 0.89127 0.0
C2585 C 0.4872 0.98517 0.90288 0.0
C2586 C 0.49948 0.00947 0.87507 0.0
C2587 C 0.51094 0.00521 0.90012 0.0
C2588 C 0.53066 0.04101 0.85719 0.0
C2589 C 0.49332 0.02725 0.83586 0.0
N2590 N 0.51641 0.01658 0.8865 0.0
N2591 N 0.48854 0.01615 0.84949 0.0
H2592 H 0.17682 0.30458 0.51899 0.0
H2593 H 0.13731 0.31726 0.4349 0.0
H2594 H 0.10178 0.26242 0.50213 0.0
H2595 H 0.21196 0.35902 0.45241 0.0
H2596 H 0.12399 0.29611 0.45905 0.0
H2597 H 0.18997 0.32387 0.49442 0.0
C2598 C 0.16309 0.29921 0.5101 0.0
C2599 C 0.13811 0.28173 0.51272 0.0
C2600 C 0.14329 0.30989 0.4576 0.0
C2601 C 0.15311 0.30413 0.48442 0.0
C2602 C 0.15096 0.32189 0.44376 0.0
C2603 C 0.17582 0.3401 0.44157 0.0
C2604 C 0.16057 0.31604 0.46938 0.0
C2605 C 0.19253 0.34544 0.45359 0.0
C2606 C 0.17062 0.31038 0.49606 0.0
C2607 C 0.12117 0.27597 0.50076 0.0
N2608 N 0.18462 0.33353 0.46692 0.0
N2609 N 0.12897 0.2871 0.48716 0.0
H2610 H 0.7108 0.83851 0.50478 0.0
H2611 H 0.61904 0.85226 0.44765 0.0
H2612 H 0.66211 0.86566 0.51772 0.0
H2613 H 0.65969 0.81571 0.43617 0.0
H2614 H 0.63491 0.85755 0.47332 0.0
H2615 H 0.69239 0.82995 0.47962 0.0
C2616 C 0.69605 0.84242 0.5024 0.0
C2617 C 0.68807 0.85292 0.51341 0.0
C2618 C 0.64031 0.8483 0.46521 0.0
C2619 C 0.66722 0.84354 0.48449 0.0
C2620 C 0.63115 0.84516 0.45054 0.0
C2621 C 0.638 0.8335 0.43968 0.0
C2622 C 0.65658 0.83984 0.4691 0.0
C2623 C 0.65416 0.82512 0.44407 0.0
C2624 C 0.68566 0.83767 0.48799 0.0
C2625 C 0.66916 0.85795 0.50955 0.0
N2626 N 0.66293 0.8285 0.45842 0.0
N2627 N 0.65947 0.85332 0.49541 0.0
H2628 H 0.11432 0.84383 0.50144 0.0
H2629 H 0.22054 0.84414 0.45006 0.0
H2630 H 0.18992 0.87049 0.51595 0.0
H2631 H 0.1483 0.82567 0.43265 0.0
H2632 H 0.20841 0.85163 0.47467 0.0
H2633 H 0.12503 0.83446 0.47665 0.0
C2634 C 0.1331 0.84754 0.49945 0.0
C2635 C 0.15131 0.85813 0.51075 0.0
C2636 C 0.19516 0.84595 0.4655 0.0
C2637 C 0.1637 0.8476 0.48246 0.0
C2638 C 0.20205 0.84155 0.45143 0.0
C2639 C 0.18539 0.83414 0.43926 0.0
C2640 C 0.17134 0.84289 0.46754 0.0
C2641 C 0.16181 0.83152 0.44168 0.0
C2642 C 0.13924 0.84235 0.48528 0.0
C2643 C 0.17539 0.86271 0.50752 0.0
N2644 N 0.15544 0.83581 0.45556 0.0
N2645 N 0.18085 0.85744 0.49372 0.0
H2646 H 0.6696 0.84382 0.16066 0.0
H2647 H 0.65995 0.79077 0.24356 0.0
H2648 H 0.61902 0.76915 0.17253 0.0
H2649 H 0.7225 0.85819 0.2286 0.0
H2650 H 0.64181 0.78446 0.21834 0.0
H2651 H 0.68634 0.85137 0.18635 0.0
C2652 C 0.66191 0.82908 0.16871 0.0
C2653 C 0.643 0.80579 0.16446 0.0
C2654 C 0.65951 0.80063 0.22057 0.0
C2655 C 0.66201 0.81427 0.19379 0.0
C2656 C 0.66979 0.8043 0.23497 0.0
C2657 C 0.69279 0.825 0.23815 0.0
C2658 C 0.67219 0.8179 0.20929 0.0
C2659 C 0.70487 0.84185 0.22657 0.0
C2660 C 0.67156 0.83335 0.18332 0.0
C2661 C 0.63382 0.78729 0.1753 0.0
N2662 N 0.69439 0.83796 0.21266 0.0
N2663 N 0.64338 0.79193 0.18946 0.0
H2664 H 0.14977 0.79885 0.16608 0.0
H2665 H 0.20115 0.86873 0.24477 0.0
H2666 H 0.2274 0.83452 0.17831 0.0
H2667 H 0.12377 0.82939 0.23196 0.0
H2668 H 0.21165 0.85635 0.22093 0.0
H2669 H 0.1405 0.8103 0.19033 0.0
C2670 C 0.16491 0.80898 0.17391 0.0
C2671 C 0.18941 0.81548 0.17013 0.0
C2672 C 0.19238 0.85041 0.22338 0.0
C2673 C 0.17887 0.82905 0.19809 0.0
C2674 C 0.18635 0.85734 0.23703 0.0
C2675 C 0.16154 0.8503 0.24035 0.0
C2676 C 0.17346 0.83628 0.21299 0.0
C2677 C 0.14319 0.83568 0.2298 0.0
C2678 C 0.15959 0.81564 0.18778 0.0
C2679 C 0.20826 0.82919 0.18067 0.0
N2680 N 0.14952 0.82927 0.21665 0.0
N2681 N 0.2026 0.83547 0.19418 0.0
H2682 H 0.22086 0.40059 0.17412 0.0
H2683 H 0.11537 0.29902 0.22684 0.0
H2684 H 0.14405 0.35544 0.16114 0.0
H2685 H 0.19102 0.34476 0.24181 0.0
H2686 H 0.12622 0.31965 0.20264 0.0
H2687 H 0.21116 0.38028 0.19871 0.0
C2688 C 0.20201 0.38634 0.17639 0.0
C2689 C 0.18322 0.37988 0.16553 0.0
C2690 C 0.14052 0.32526 0.21118 0.0
C2691 C 0.17196 0.35668 0.1937 0.0
C2692 C 0.13434 0.31337 0.22503 0.0
C2693 C 0.15233 0.31998 0.2364 0.0
C2694 C 0.16496 0.34402 0.20853 0.0
C2695 C 0.17649 0.33912 0.23342 0.0
C2696 C 0.19646 0.37487 0.19047 0.0
C2697 C 0.15909 0.36139 0.16919 0.0
N2698 N 0.18213 0.35039 0.21977 0.0
N2699 N 0.1542 0.35053 0.18289 0.0
H2700 H 0.84432 0.64118 0.85224 0.0
H2701 H 0.80678 0.65239 0.76738 0.0
H2702 H 0.76998 0.59743 0.83464 0.0
H2703 H 0.8808 0.69488 0.78566 0.0
H2704 H 0.79288 0.63137 0.79155 0.0
H2705 H 0.85783 0.66046 0.82772 0.0
C2706 C 0.83082 0.63547 0.8432 0.0
C2707 C 0.80594 0.6175 0.84558 0.0
C2708 C 0.81217 0.64529 0.79026 0.0
C2709 C 0.82135 0.6399 0.81731 0.0
C2710 C 0.82017 0.65721 0.77641 0.0
C2711 C 0.84502 0.6756 0.77444 0.0
C2712 C 0.82912 0.65171 0.80226 0.0
C2713 C 0.8614 0.68118 0.78667 0.0
C2714 C 0.83855 0.64663 0.82918 0.0
C2715 C 0.78928 0.61133 0.83343 0.0
N2716 N 0.85317 0.66935 0.8 0.0
N2717 N 0.79727 0.62247 0.81984 0.0
H2718 H 0.38445 0.17605 0.8359 0.0
H2719 H 0.28977 0.1888 0.78072 0.0
H2720 H 0.33696 0.20416 0.84968 0.0
H2721 H 0.32955 0.15177 0.76828 0.0
H2722 H 0.30709 0.19466 0.80603 0.0
H2723 H 0.36472 0.16693 0.81107 0.0
C2724 C 0.36974 0.18012 0.83376 0.0
C2725 C 0.36247 0.19104 0.84489 0.0
C2726 C 0.31198 0.18517 0.79779 0.0
C2727 C 0.34004 0.18094 0.81642 0.0
C2728 C 0.30197 0.18169 0.78333 0.0
C2729 C 0.30819 0.16977 0.77231 0.0
C2730 C 0.32846 0.17678 0.80129 0.0
C2731 C 0.3245 0.16138 0.77633 0.0
C2732 C 0.35857 0.17502 0.81955 0.0
C2733 C 0.34351 0.19618 0.84138 0.0
N2734 N 0.33412 0.16511 0.79047 0.0
N2735 N 0.33305 0.19117 0.82746 0.0
H2736 H 0.85895 0.20621 0.8535 0.0
H2737 H 0.81267 0.15114 0.77081 0.0
H2738 H 0.78285 0.17583 0.83888 0.0
H2739 H 0.88849 0.18299 0.78637 0.0
H2740 H 0.80083 0.15914 0.79556 0.0
H2741 H 0.86944 0.1965 0.82904 0.0
C2742 C 0.84443 0.19753 0.84511 0.0
C2743 C 0.82002 0.19207 0.84821 0.0
C2744 C 0.82004 0.16432 0.79355 0.0
C2745 C 0.83191 0.18067 0.82006 0.0
C2746 C 0.82685 0.1599 0.77939 0.0
C2747 C 0.85163 0.16634 0.77648 0.0
C2748 C 0.83814 0.17532 0.80488 0.0
C2749 C 0.86911 0.17735 0.78812 0.0
C2750 C 0.85041 0.19189 0.83113 0.0
C2751 C 0.80188 0.1803 0.83699 0.0
N2752 N 0.86203 0.18149 0.80175 0.0
N2753 N 0.80821 0.17512 0.82337 0.0
H2754 H 0.2899 0.10464 0.50408 0.0
H2755 H 0.39353 0.19884 0.56058 0.0
H2756 H 0.34018 0.17944 0.49233 0.0
H2757 H 0.33046 0.1314 0.57501 0.0
H2758 H 0.37609 0.19127 0.53508 0.0
H2759 H 0.30637 0.11323 0.52975 0.0
C2760 C 0.30448 0.12286 0.50691 0.0
C2761 C 0.31378 0.14134 0.49606 0.0
C2762 C 0.36602 0.17819 0.54385 0.0
C2763 C 0.33269 0.15132 0.52542 0.0
C2764 C 0.37602 0.18243 0.55836 0.0
C2765 C 0.36342 0.16569 0.5699 0.0
C2766 C 0.34342 0.1569 0.54081 0.0
C2767 C 0.34067 0.14486 0.56646 0.0
C2768 C 0.31376 0.12779 0.52158 0.0
C2769 C 0.33242 0.16471 0.50039 0.0
N2770 N 0.33149 0.14097 0.55221 0.0
N2771 N 0.3414 0.16901 0.51471 0.0
H2772 H 0.84505 0.10393 0.51103 0.0
H2773 H 0.82557 0.19791 0.56125 0.0
H2774 H 0.86131 0.17455 0.49517 0.0
H2775 H 0.81786 0.13088 0.57827 0.0
H2776 H 0.83868 0.18985 0.53698 0.0
H2777 H 0.83527 0.11371 0.53577 0.0
C2778 C 0.84657 0.12152 0.51277 0.0
C2779 C 0.85384 0.13838 0.50098 0.0
C2780 C 0.83423 0.17696 0.54604 0.0
C2781 C 0.84268 0.14976 0.52934 0.0
C2782 C 0.82658 0.18147 0.55987 0.0
C2783 C 0.82051 0.16501 0.57181 0.0
C2784 C 0.83566 0.15573 0.54407 0.0
C2785 C 0.82255 0.14419 0.56944 0.0
C2786 C 0.84108 0.12714 0.52692 0.0
C2787 C 0.8559 0.16106 0.50395 0.0
N2788 N 0.82981 0.1401 0.55585 0.0
N2789 N 0.85016 0.16601 0.51781 0.0
H2790 H 0.84466 0.73916 0.50917 0.0
H2791 H 0.83993 0.63144 0.55836 0.0
H2792 H 0.87253 0.69296 0.49346 0.0
H2793 H 0.82355 0.68503 0.57639 0.0
H2794 H 0.85165 0.65348 0.5345 0.0
H2795 H 0.83664 0.7195 0.53378 0.0
C2796 C 0.84912 0.72488 0.51089 0.0
C2797 C 0.85916 0.71762 0.49916 0.0
C2798 C 0.84561 0.6605 0.54369 0.0
C2799 C 0.84999 0.69496 0.52741 0.0
C2800 C 0.83877 0.64784 0.55731 0.0
C2801 C 0.83058 0.65629 0.56942 0.0
C2802 C 0.84409 0.68173 0.54204 0.0
C2803 C 0.82988 0.6779 0.56742 0.0
C2804 C 0.84464 0.71373 0.52499 0.0
C2805 C 0.86492 0.69926 0.50217 0.0
N2806 N 0.83634 0.68974 0.55399 0.0
N2807 N 0.86007 0.68845 0.51593 0.0
loop_
_geom_bond_atom_site_label_1
_geom_bond_atom_site_label_2
_geom_bond_distance
_geom_bond_site_symmetry_2
_ccdc_geom_bond_type
C0 C1 1.391 . S
C0 C4 1.391 . S
C0 H42 0.948 . S
C1 C0 1.391 . S
C1 C2 1.391 . S
C2 C1 1.391 . S
C2 H58 0.947 . S
C2 C59 1.392 . S
C3 C4 1.391 . S
C3 C7 1.397 . S
C3 C59 1.419 . S
C4 C0 1.391 . S
C4 C3 1.391 . S
C4 C5 1.399 . S
C5 C4 1.399 . S
C5 C8 1.396 . S
C5 C17 1.453 . S
C5 C18 1.684 . S
H6 C30 0.948 . S
C7 C3 1.397 . S
C7 C8 1.394 . S
C7 C26 1.723 . S
C8 C5 1.396 . S
C8 C7 1.394 . S
C8 C38 1.723 . S
H9 C32 0.947 . S
H10 C33 0.948 . S
H11 C39 0.982 . S
H12 C40 0.979 . S
H13 C40 0.980 . S
H14 C40 0.983 . S
H15 C39 0.979 . S
H16 C39 0.977 . S
C17 C5 1.453 . S
C17 H46 0.982 . S
C17 H47 0.979 . S
C17 H48 0.977 . S
C18 C5 1.684 . S
C18 H43 0.979 . S
C18 H44 0.980 . S
C18 H45 0.983 . S
C19 C20 1.391 . S
C19 C24 1.391 . S
C19 H49 0.948 . S
C20 C19 1.391 . S
C20 C21 1.391 . S
C21 C20 1.391 . S
C21 C22 1.392 . S
C21 H50 0.947 . S
C22 C21 1.392 . S
C22 C23 1.419 . S
C22 H51 0.948 . S
C23 C22 1.419 . S
C23 C24 1.391 . S
C23 C27 1.397 . S
C24 C19 1.391 . S
C24 C23 1.391 . S
C24 C25 1.399 . S
C25 C24 1.399 . S
C25 C26 1.396 . S
C25 C28 1.453 . S
C25 C29 1.684 . S
C26 C7 1.723 . S
C26 C25 1.396 . S
C26 C27 1.394 . S
C27 C23 1.397 . S
C27 C26 1.394 . S
C27 C37 1.723 . S
C28 C25 1.453 . S
C28 H52 0.982 . S
C28 H53 0.979 . S
C28 H54 0.977 . S
C29 C25 1.684 . S
C29 H55 0.979 . S
C29 H56 0.980 . S
C29 H57 0.983 . S
C30 H6 0.948 . S
C30 C31 1.391 . S
C30 C35 1.391 . S
C31 C30 1.391 . S
C31 C32 1.391 . S
C32 H9 0.947 . S
C32 C31 1.391 . S
C32 C33 1.392 . S
C33 H10 0.948 . S
C33 C32 1.392 . S
C33 C34 1.419 . S
C34 C33 1.419 . S
C34 C35 1.391 . S
C34 C38 1.397 . S
C35 C30 1.391 . S
C35 C34 1.391 . S
C35 C36 1.399 . S
C36 C35 1.399 . S
C36 C37 1.396 . S
C36 C39 1.453 . S
C36 C40 1.684 . S
C37 C27 1.723 . S
C37 C36 1.396 . S
C37 C38 1.394 . S
C38 C8 1.723 . S
C38 C34 1.397 . S
C38 C37 1.394 . S
C39 H11 0.982 . S
C39 H15 0.979 . S
C39 H16 0.977 . S
C39 C36 1.453 . S
C40 H12 0.979 . S
C40 H13 0.980 . S
C40 H14 0.983 . S
C40 C36 1.684 . S
H41 C59 0.948 . S
H42 C0 0.948 . S
H43 C18 0.979 . S
H44 C18 0.980 . S
H45 C18 0.983 . S
H46 C17 0.982 . S
H47 C17 0.979 . S
H48 C17 0.977 . S
H49 C19 0.948 . S
H50 C21 0.947 . S
H51 C22 0.948 . S
H52 C28 0.982 . S
H53 C28 0.979 . S
H54 C28 0.977 . S
H55 C29 0.979 . S
H56 C29 0.980 . S
H57 C29 0.983 . S
H58 C2 0.947 . S
C59 C2 1.392 . S
C59 C3 1.419 . S
C59 H41 0.948 . S
C60 C61 1.391 . S
C60 C64 1.391 . S
C60 H102 0.948 . S
C61 C60 1.391 . S
C61 C62 1.391 . S
C62 C61 1.391 . S
C62 H118 0.947 . S
C62 C119 1.392 . S
C63 C64 1.391 . S
C63 C67 1.397 . S
C63 C119 1.419 . S
C64 C60 1.391 . S
C64 C63 1.391 . S
C64 C65 1.399 . S
C65 C64 1.399 . S
C65 C68 1.396 . S
C65 C77 1.453 . S
C65 C78 1.684 . S
H66 C90 0.948 . S
C67 C63 1.397 . S
C67 C68 1.394 . S
C67 C86 1.723 . S
C68 C65 1.396 . S
C68 C67 1.394 . S
C68 C98 1.723 . S
H69 C92 0.947 . S
H70 C93 0.948 . S
H71 C99 0.982 . S
H72 C100 0.979 . S
H73 C100 0.980 . S
H74 C100 0.983 . S
H75 C99 0.979 . S
H76 C99 0.977 . S
C77 C65 1.453 . S
C77 H106 0.982 . S
C77 H107 0.979 . S
C77 H108 0.977 . S
C78 C65 1.684 . S
C78 H103 0.979 . S
C78 H104 0.980 . S
C78 H105 0.983 . S
C79 C80 1.391 . S
C79 C84 1.391 . S
C79 H109 0.948 . S
C80 C79 1.391 . S
C80 C81 1.391 . S
C81 C80 1.391 . S
C81 C82 1.392 . S
C81 H110 0.947 . S
C82 C81 1.392 . S
C82 C83 1.419 . S
C82 H111 0.948 . S
C83 C82 1.419 . S
C83 C84 1.391 . S
C83 C87 1.397 . S
C84 C79 1.391 . S
C84 C83 1.391 . S
C84 C85 1.399 . S
C85 C84 1.399 . S
C85 C86 1.396 . S
C85 C88 1.453 . S
C85 C89 1.684 . S
C86 C67 1.723 . S
C86 C85 1.396 . S
C86 C87 1.394 . S
C87 C83 1.397 . S
C87 C86 1.394 . S
C87 C97 1.723 . S
C88 C85 1.453 . S
C88 H112 0.982 . S
C88 H113 0.979 . S
C88 H114 0.977 . S
C89 C85 1.684 . S
C89 H115 0.979 . S
C89 H116 0.980 . S
C89 H117 0.983 . S
C90 H66 0.948 . S
C90 C91 1.391 . S
C90 C95 1.391 . S
C91 C90 1.391 . S
C91 C92 1.391 . S
C92 H69 0.947 . S
C92 C91 1.391 . S
C92 C93 1.392 . S
C93 H70 0.948 . S
C93 C92 1.392 . S
C93 C94 1.419 . S
C94 C93 1.419 . S
C94 C95 1.391 . S
C94 C98 1.397 . S
C95 C90 1.391 . S
C95 C94 1.391 . S
C95 C96 1.399 . S
C96 C95 1.399 . S
C96 C97 1.396 . S
C96 C99 1.453 . S
C96 C100 1.684 . S
C97 C87 1.723 . S
C97 C96 1.396 . S
C97 C98 1.394 . S
C98 C68 1.723 . S
C98 C94 1.397 . S
C98 C97 1.394 . S
C99 H71 0.982 . S
C99 H75 0.979 . S
C99 H76 0.977 . S
C99 C96 1.453 . S
C100 H72 0.979 . S
C100 H73 0.980 . S
C100 H74 0.983 . S
C100 C96 1.684 . S
H101 C119 0.948 . S
H102 C60 0.948 . S
H103 C78 0.979 . S
H104 C78 0.980 . S
H105 C78 0.983 . S
H106 C77 0.982 . S
H107 C77 0.979 . S
H108 C77 0.977 . S
H109 C79 0.948 . S
H110 C81 0.947 . S
H111 C82 0.948 . S
H112 C88 0.982 . S
H113 C88 0.979 . S
H114 C88 0.977 . S
H115 C89 0.979 . S
H116 C89 0.980 . S
H117 C89 0.983 . S
H118 C62 0.947 . S
C119 C62 1.392 . S
C119 C63 1.419 . S
C119 H101 0.948 . S
C120 C121 1.391 . S
C120 C124 1.391 . S
C120 H162 0.948 . S
C121 C120 1.391 . S
C121 C122 1.391 . S
C122 C121 1.391 . S
C122 H178 0.947 . S
C122 C179 1.392 . S
C123 C124 1.391 . S
C123 C127 1.397 . S
C123 C179 1.419 . S
C124 C120 1.391 . S
C124 C123 1.391 . S
C124 C125 1.399 . S
C125 C124 1.399 . S
C125 C128 1.396 . S
C125 C137 1.453 . S
C125 C138 1.684 . S
H126 C150 0.948 . S
C127 C123 1.397 . S
C127 C128 1.394 . S
C127 C146 1.723 . S
C128 C125 1.396 . S
C128 C127 1.394 . S
C128 C158 1.723 . S
H129 C152 0.947 . S
H130 C153 0.948 . S
H131 C159 0.982 . S
H132 C160 0.979 . S
H133 C160 0.980 . S
H134 C160 0.983 . S
H135 C159 0.979 . S
H136 C159 0.977 . S
C137 C125 1.453 . S
C137 H166 0.982 . S
C137 H167 0.979 . S
C137 H168 0.977 . S
C138 C125 1.684 . S
C138 H163 0.979 . S
C138 H164 0.980 . S
C138 H165 0.983 . S
C139 C140 1.391 . S
C139 C144 1.391 . S
C139 H169 0.948 . S
C140 C139 1.391 . S
C140 C141 1.391 . S
C141 C140 1.391 . S
C141 C142 1.392 . S
C141 H170 0.947 . S
C142 C141 1.392 . S
C142 C143 1.419 . S
C142 H171 0.948 . S
C143 C142 1.419 . S
C143 C144 1.391 . S
C143 C147 1.397 . S
C144 C139 1.391 . S
C144 C143 1.391 . S
C144 C145 1.399 . S
C145 C144 1.399 . S
C145 C146 1.396 . S
C145 C148 1.453 . S
C145 C149 1.684 . S
C146 C127 1.723 . S
C146 C145 1.396 . S
C146 C147 1.394 . S
C147 C143 1.397 . S
C147 C146 1.394 . S
C147 C157 1.723 . S
C148 C145 1.453 . S
C148 H172 0.982 . S
C148 H173 0.979 . S
C148 H174 0.977 . S
C149 C145 1.684 . S
C149 H175 0.979 . S
C149 H176 0.980 . S
C149 H177 0.983 . S
C150 H126 0.948 . S
C150 C151 1.391 . S
C150 C155 1.391 . S
C151 C150 1.391 . S
C151 C152 1.391 . S
C152 H129 0.947 . S
C152 C151 1.391 . S
C152 C153 1.392 . S
C153 H130 0.948 . S
C153 C152 1.392 . S
C153 C154 1.419 . S
C154 C153 1.419 . S
C154 C155 1.391 . S
C154 C158 1.397 . S
C155 C150 1.391 . S
C155 C154 1.391 . S
C155 C156 1.399 . S
C156 C155 1.399 . S
C156 C157 1.396 . S
C156 C159 1.453 . S
C156 C160 1.684 . S
C157 C147 1.723 . S
C157 C156 1.396 . S
C157 C158 1.394 . S
C158 C128 1.723 . S
C158 C154 1.397 . S
C158 C157 1.394 . S
C159 H131 0.982 . S
C159 H135 0.979 . S
C159 H136 0.977 . S
C159 C156 1.453 . S
C160 H132 0.979 . S
C160 H133 0.980 . S
C160 H134 0.983 . S
C160 C156 1.684 . S
H161 C179 0.948 . S
H162 C120 0.948 . S
H163 C138 0.979 . S
H164 C138 0.980 . S
H165 C138 0.983 . S
H166 C137 0.982 . S
H167 C137 0.979 . S
H168 C137 0.977 . S
H169 C139 0.948 . S
H170 C141 0.947 . S
H171 C142 0.948 . S
H172 C148 0.982 . S
H173 C148 0.979 . S
H174 C148 0.977 . S
H175 C149 0.979 . S
H176 C149 0.980 . S
H177 C149 0.983 . S
H178 C122 0.947 . S
C179 C122 1.392 . S
C179 C123 1.419 . S
C179 H161 0.948 . S
C180 C181 1.391 . S
C180 C184 1.391 . S
C180 H222 0.948 . S
C181 C180 1.391 . S
C181 C182 1.391 . S
C182 C181 1.391 . S
C182 H238 0.947 . S
C182 C239 1.392 . S
C183 C184 1.391 . S
C183 C187 1.397 . S
C183 C239 1.419 . S
C184 C180 1.391 . S
C184 C183 1.391 . S
C184 C185 1.399 . S
C185 C184 1.399 . S
C185 C188 1.396 . S
C185 C197 1.453 . S
C185 C198 1.684 . S
H186 C210 0.948 . S
C187 C183 1.397 . S
C187 C188 1.394 . S
C187 C206 1.723 . S
C188 C185 1.396 . S
C188 C187 1.394 . S
C188 C218 1.723 . S
H189 C212 0.947 . S
H190 C213 0.948 . S
H191 C219 0.982 . S
H192 C220 0.979 . S
H193 C220 0.980 . S
H194 C220 0.983 . S
H195 C219 0.979 . S
H196 C219 0.977 . S
C197 C185 1.453 . S
C197 H226 0.982 . S
C197 H227 0.979 . S
C197 H228 0.977 . S
C198 C185 1.684 . S
C198 H223 0.979 . S
C198 H224 0.980 . S
C198 H225 0.983 . S
C199 C200 1.391 . S
C199 C204 1.391 . S
C199 H229 0.948 . S
C200 C199 1.391 . S
C200 C201 1.391 . S
C201 C200 1.391 . S
C201 C202 1.392 . S
C201 H230 0.947 . S
C202 C201 1.392 . S
C202 C203 1.419 . S
C202 H231 0.948 . S
C203 C202 1.419 . S
C203 C204 1.391 . S
C203 C207 1.397 . S
C204 C199 1.391 . S
C204 C203 1.391 . S
C204 C205 1.399 . S
C205 C204 1.399 . S
C205 C206 1.396 . S
C205 C208 1.453 . S
C205 C209 1.684 . S
C206 C187 1.723 . S
C206 C205 1.396 . S
C206 C207 1.394 . S
C207 C203 1.397 . S
C207 C206 1.394 . S
C207 C217 1.723 . S
C208 C205 1.453 . S
C208 H232 0.982 . S
C208 H233 0.979 . S
C208 H234 0.977 . S
C209 C205 1.684 . S
C209 H235 0.979 . S
C209 H236 0.980 . S
C209 H237 0.983 . S
C210 H186 0.948 . S
C210 C211 1.391 . S
C210 C215 1.391 . S
C211 C210 1.391 . S
C211 C212 1.391 . S
C212 H189 0.947 . S
C212 C211 1.391 . S
C212 C213 1.392 . S
C213 H190 0.948 . S
C213 C212 1.392 . S
C213 C214 1.419 . S
C214 C213 1.419 . S
C214 C215 1.391 . S
C214 C218 1.397 . S
C215 C210 1.391 . S
C215 C214 1.391 . S
C215 C216 1.399 . S
C216 C215 1.399 . S
C216 C217 1.396 . S
C216 C219 1.453 . S
C216 C220 1.684 . S
C217 C207 1.723 . S
C217 C216 1.396 . S
C217 C218 1.394 . S
C218 C188 1.723 . S
C218 C214 1.397 . S
C218 C217 1.394 . S
C219 H191 0.982 . S
C219 H195 0.979 . S
C219 H196 0.977 . S
C219 C216 1.453 . S
C220 H192 0.979 . S
C220 H193 0.980 . S
C220 H194 0.983 . S
C220 C216 1.684 . S
H221 C239 0.948 . S
H222 C180 0.948 . S
H223 C198 0.979 . S
H224 C198 0.980 . S
H225 C198 0.983 . S
H226 C197 0.982 . S
H227 C197 0.979 . S
H228 C197 0.977 . S
H229 C199 0.948 . S
H230 C201 0.947 . S
H231 C202 0.948 . S
H232 C208 0.982 . S
H233 C208 0.979 . S
H234 C208 0.977 . S
H235 C209 0.979 . S
H236 C209 0.980 . S
H237 C209 0.983 . S
H238 C182 0.947 . S
C239 C182 1.392 . S
C239 C183 1.419 . S
C239 H221 0.948 . S
C240 C241 1.391 . S
C240 C244 1.391 . S
C240 H282 0.948 . S
C241 C240 1.391 . S
C241 C242 1.391 . S
C242 C241 1.391 . S
C242 H298 0.947 . S
C242 C299 1.392 . S
C243 C244 1.391 . S
C243 C247 1.397 . S
C243 C299 1.419 . S
C244 C240 1.391 . S
C244 C243 1.391 . S
C244 C245 1.399 . S
C245 C244 1.399 . S
C245 C248 1.396 . S
C245 C257 1.453 . S
C245 C258 1.684 . S
H246 C270 0.948 . S
C247 C243 1.397 . S
C247 C248 1.394 . S
C247 C266 1.723 . S
C248 C245 1.396 . S
C248 C247 1.394 . S
C248 C278 1.723 . S
H249 C272 0.947 . S
H250 C273 0.948 . S
H251 C279 0.982 . S
H252 C280 0.979 . S
H253 C280 0.980 . S
H254 C280 0.983 . S
H255 C279 0.979 . S
H256 C279 0.977 . S
C257 C245 1.453 . S
C257 H286 0.982 . S
C257 H287 0.979 . S
C257 H288 0.977 . S
C258 C245 1.684 . S
C258 H283 0.979 . S
C258 H284 0.980 . S
C258 H285 0.983 . S
C259 C260 1.391 . S
C259 C264 1.391 . S
C259 H289 0.948 . S
C260 C259 1.391 . S
C260 C261 1.391 . S
C261 C260 1.391 . S
C261 C262 1.392 . S
C261 H290 0.947 . S
C262 C261 1.392 . S
C262 C263 1.419 . S
C262 H291 0.948 . S
C263 C262 1.419 . S
C263 C264 1.391 . S
C263 C267 1.397 . S
C264 C259 1.391 . S
C264 C263 1.391 . S
C264 C265 1.399 . S
C265 C264 1.399 . S
C265 C266 1.396 . S
C265 C268 1.453 . S
C265 C269 1.684 . S
C266 C247 1.723 . S
C266 C265 1.396 . S
C266 C267 1.394 . S
C267 C263 1.397 . S
C267 C266 1.394 . S
C267 C277 1.723 . S
C268 C265 1.453 . S
C268 H292 0.982 . S
C268 H293 0.979 . S
C268 H294 0.977 . S
C269 C265 1.684 . S
C269 H295 0.979 . S
C269 H296 0.980 . S
C269 H297 0.983 . S
C270 H246 0.948 . S
C270 C271 1.391 . S
C270 C275 1.391 . S
C271 C270 1.391 . S
C271 C272 1.391 . S
C272 H249 0.947 . S
C272 C271 1.391 . S
C272 C273 1.392 . S
C273 H250 0.948 . S
C273 C272 1.392 . S
C273 C274 1.419 . S
C274 C273 1.419 . S
C274 C275 1.391 . S
C274 C278 1.397 . S
C275 C270 1.391 . S
C275 C274 1.391 . S
C275 C276 1.399 . S
C276 C275 1.399 . S
C276 C277 1.396 . S
C276 C279 1.453 . S
C276 C280 1.684 . S
C277 C267 1.723 . S
C277 C276 1.396 . S
C277 C278 1.394 . S
C278 C248 1.723 . S
C278 C274 1.397 . S
C278 C277 1.394 . S
C279 H251 0.982 . S
C279 H255 0.979 . S
C279 H256 0.977 . S
C279 C276 1.453 . S
C280 H252 0.979 . S
C280 H253 0.980 . S
C280 H254 0.983 . S
C280 C276 1.684 . S
H281 C299 0.948 . S
H282 C240 0.948 . S
H283 C258 0.979 . S
H284 C258 0.980 . S
H285 C258 0.983 . S
H286 C257 0.982 . S
H287 C257 0.979 . S
H288 C257 0.977 . S
H289 C259 0.948 . S
H290 C261 0.947 . S
H291 C262 0.948 . S
H292 C268 0.982 . S
H293 C268 0.979 . S
H294 C268 0.977 . S
H295 C269 0.979 . S
H296 C269 0.980 . S
H297 C269 0.983 . S
H298 C242 0.947 . S
C299 C242 1.392 . S
C299 C243 1.419 . S
C299 H281 0.948 . S
C300 C301 1.391 . S
C300 C304 1.391 . S
C300 H342 0.948 . S
C301 C300 1.391 . S
C301 C302 1.391 . S
C302 C301 1.391 . S
C302 H358 0.947 . S
C302 C359 1.392 . S
C303 C304 1.391 . S
C303 C307 1.397 . S
C303 C359 1.419 . S
C304 C300 1.391 . S
C304 C303 1.391 . S
C304 C305 1.399 . S
C305 C304 1.399 . S
C305 C308 1.396 . S
C305 C317 1.453 . S
C305 C318 1.684 . S
H306 C330 0.948 . S
C307 C303 1.397 . S
C307 C308 1.394 . S
C307 C326 1.723 . S
C308 C305 1.396 . S
C308 C307 1.394 . S
C308 C338 1.723 . S
H309 C332 0.947 . S
H310 C333 0.948 . S
H311 C339 0.982 . S
H312 C340 0.979 . S
H313 C340 0.980 . S
H314 C340 0.983 . S
H315 C339 0.979 . S
H316 C339 0.977 . S
C317 C305 1.453 . S
C317 H346 0.982 . S
C317 H347 0.979 . S
C317 H348 0.977 . S
C318 C305 1.684 . S
C318 H343 0.979 . S
C318 H344 0.980 . S
C318 H345 0.983 . S
C319 C320 1.391 . S
C319 C324 1.391 . S
C319 H349 0.948 . S
C320 C319 1.391 . S
C320 C321 1.391 . S
C321 C320 1.391 . S
C321 C322 1.392 . S
C321 H350 0.947 . S
C322 C321 1.392 . S
C322 C323 1.419 . S
C322 H351 0.948 . S
C323 C322 1.419 . S
C323 C324 1.391 . S
C323 C327 1.397 . S
C324 C319 1.391 . S
C324 C323 1.391 . S
C324 C325 1.399 . S
C325 C324 1.399 . S
C325 C326 1.396 . S
C325 C328 1.453 . S
C325 C329 1.684 . S
C326 C307 1.723 . S
C326 C325 1.396 . S
C326 C327 1.394 . S
C327 C323 1.397 . S
C327 C326 1.394 . S
C327 C337 1.723 . S
C328 C325 1.453 . S
C328 H352 0.982 . S
C328 H353 0.979 . S
C328 H354 0.977 . S
C329 C325 1.684 . S
C329 H355 0.979 . S
C329 H356 0.980 . S
C329 H357 0.983 . S
C330 H306 0.948 . S
C330 C331 1.391 . S
C330 C335 1.391 . S
C331 C330 1.391 . S
C331 C332 1.391 . S
C332 H309 0.947 . S
C332 C331 1.391 . S
C332 C333 1.392 . S
C333 H310 0.948 . S
C333 C332 1.392 . S
C333 C334 1.419 . S
C334 C333 1.419 . S
C334 C335 1.391 . S
C334 C338 1.397 . S
C335 C330 1.391 . S
C335 C334 1.391 . S
C335 C336 1.399 . S
C336 C335 1.399 . S
C336 C337 1.396 . S
C336 C339 1.453 . S
C336 C340 1.684 . S
C337 C327 1.723 . S
C337 C336 1.396 . S
C337 C338 1.394 . S
C338 C308 1.723 . S
C338 C334 1.397 . S
C338 C337 1.394 . S
C339 H311 0.982 . S
C339 H315 0.979 . S
C339 H316 0.977 . S
C339 C336 1.453 . S
C340 H312 0.979 . S
C340 H313 0.980 . S
C340 H314 0.983 . S
C340 C336 1.684 . S
H341 C359 0.948 . S
H342 C300 0.948 . S
H343 C318 0.979 . S
H344 C318 0.980 . S
H345 C318 0.983 . S
H346 C317 0.982 . S
H347 C317 0.979 . S
H348 C317 0.977 . S
H349 C319 0.948 . S
H350 C321 0.947 . S
H351 C322 0.948 . S
H352 C328 0.982 . S
H353 C328 0.979 . S
H354 C328 0.977 . S
H355 C329 0.979 . S
H356 C329 0.980 . S
H357 C329 0.983 . S
H358 C302 0.947 . S
C359 C302 1.392 . S
C359 C303 1.419 . S
C359 H341 0.948 . S
C360 C361 1.391 . S
C360 C364 1.391 . S
C360 H402 0.948 . S
C361 C360 1.391 . S
C361 C362 1.391 . S
C362 C361 1.391 . S
C362 H418 0.947 . S
C362 C419 1.392 . S
C363 C364 1.391 . S
C363 C367 1.397 . S
C363 C419 1.419 . S
C364 C360 1.391 . S
C364 C363 1.391 . S
C364 C365 1.399 . S
C365 C364 1.399 . S
C365 C368 1.396 . S
C365 C377 1.453 . S
C365 C378 1.684 . S
H366 C390 0.948 . S
C367 C363 1.397 . S
C367 C368 1.394 . S
C367 C386 1.723 . S
C368 C365 1.396 . S
C368 C367 1.394 . S
C368 C398 1.723 . S
H369 C392 0.947 . S
H370 C393 0.948 . S
H371 C399 0.982 . S
H372 C400 0.979 . S
H373 C400 0.980 . S
H374 C400 0.983 . S
H375 C399 0.979 . S
H376 C399 0.977 . S
C377 C365 1.453 . S
C377 H406 0.982 . S
C377 H407 0.979 . S
C377 H408 0.977 . S
C378 C365 1.684 . S
C378 H403 0.979 . S
C378 H404 0.980 . S
C378 H405 0.983 . S
C379 C380 1.391 . S
C379 C384 1.391 . S
C379 H409 0.948 . S
C380 C379 1.391 . S
C380 C381 1.391 . S
C381 C380 1.391 . S
C381 C382 1.392 . S
C381 H410 0.947 . S
C382 C381 1.392 . S
C382 C383 1.419 . S
C382 H411 0.948 . S
C383 C382 1.419 . S
C383 C384 1.391 . S
C383 C387 1.397 . S
C384 C379 1.391 . S
C384 C383 1.391 . S
C384 C385 1.399 . S
C385 C384 1.399 . S
C385 C386 1.396 . S
C385 C388 1.453 . S
C385 C389 1.684 . S
C386 C367 1.723 . S
C386 C385 1.396 . S
C386 C387 1.394 . S
C387 C383 1.397 . S
C387 C386 1.394 . S
C387 C397 1.723 . S
C388 C385 1.453 . S
C388 H412 0.982 . S
C388 H413 0.979 . S
C388 H414 0.977 . S
C389 C385 1.684 . S
C389 H415 0.979 . S
C389 H416 0.980 . S
C389 H417 0.983 . S
C390 H366 0.948 . S
C390 C391 1.391 . S
C390 C395 1.391 . S
C391 C390 1.391 . S
C391 C392 1.391 . S
C392 H369 0.947 . S
C392 C391 1.391 . S
C392 C393 1.392 . S
C393 H370 0.948 . S
C393 C392 1.392 . S
C393 C394 1.419 . S
C394 C393 1.419 . S
C394 C395 1.391 . S
C394 C398 1.397 . S
C395 C390 1.391 . S
C395 C394 1.391 . S
C395 C396 1.399 . S
C396 C395 1.399 . S
C396 C397 1.396 . S
C396 C399 1.453 . S
C396 C400 1.684 . S
C397 C387 1.723 . S
C397 C396 1.396 . S
C397 C398 1.394 . S
C398 C368 1.723 . S
C398 C394 1.397 . S
C398 C397 1.394 . S
C399 H371 0.982 . S
C399 H375 0.979 . S
C399 H376 0.977 . S
C399 C396 1.453 . S
C400 H372 0.979 . S
C400 H373 0.980 . S
C400 H374 0.983 . S
C400 C396 1.684 . S
H401 C419 0.948 . S
H402 C360 0.948 . S
H403 C378 0.979 . S
H404 C378 0.980 . S
H405 C378 0.983 . S
H406 C377 0.982 . S
H407 C377 0.979 . S
H408 C377 0.977 . S
H409 C379 0.948 . S
H410 C381 0.947 . S
H411 C382 0.948 . S
H412 C388 0.982 . S
H413 C388 0.979 . S
H414 C388 0.977 . S
H415 C389 0.979 . S
H416 C389 0.980 . S
H417 C389 0.983 . S
H418 C362 0.947 . S
C419 C362 1.392 . S
C419 C363 1.419 . S
C419 H401 0.948 . S
C420 C421 1.391 . S
C420 C424 1.391 . S
C420 H462 0.948 . S
C421 C420 1.391 . S
C421 C422 1.391 . S
C422 C421 1.391 . S
C422 H478 0.947 . S
C422 C479 1.392 . S
C423 C424 1.391 . S
C423 C427 1.397 . S
C423 C479 1.419 . S
C424 C420 1.391 . S
C424 C423 1.391 . S
C424 C425 1.399 . S
C425 C424 1.399 . S
C425 C428 1.396 . S
C425 C437 1.453 . S
C425 C438 1.684 . S
H426 C450 0.948 . S
C427 C423 1.397 . S
C427 C428 1.394 . S
C427 C446 1.723 . S
C428 C425 1.396 . S
C428 C427 1.394 . S
C428 C458 1.723 . S
H429 C452 0.947 . S
H430 C453 0.948 . S
H431 C459 0.982 . S
H432 C460 0.979 . S
H433 C460 0.980 . S
H434 C460 0.983 . S
H435 C459 0.979 . S
H436 C459 0.977 . S
C437 C425 1.453 . S
C437 H466 0.982 . S
C437 H467 0.979 . S
C437 H468 0.977 . S
C438 C425 1.684 . S
C438 H463 0.979 . S
C438 H464 0.980 . S
C438 H465 0.983 . S
C439 C440 1.391 . S
C439 C444 1.391 . S
C439 H469 0.948 . S
C440 C439 1.391 . S
C440 C441 1.391 . S
C441 C440 1.391 . S
C441 C442 1.392 . S
C441 H470 0.947 . S
C442 C441 1.392 . S
C442 C443 1.419 . S
C442 H471 0.948 . S
C443 C442 1.419 . S
C443 C444 1.391 . S
C443 C447 1.397 . S
C444 C439 1.391 . S
C444 C443 1.391 . S
C444 C445 1.399 . S
C445 C444 1.399 . S
C445 C446 1.396 . S
C445 C448 1.453 . S
C445 C449 1.684 . S
C446 C427 1.723 . S
C446 C445 1.396 . S
C446 C447 1.394 . S
C447 C443 1.397 . S
C447 C446 1.394 . S
C447 C457 1.723 . S
C448 C445 1.453 . S
C448 H472 0.982 . S
C448 H473 0.979 . S
C448 H474 0.977 . S
C449 C445 1.684 . S
C449 H475 0.979 . S
C449 H476 0.980 . S
C449 H477 0.983 . S
C450 H426 0.948 . S
C450 C451 1.391 . S
C450 C455 1.391 . S
C451 C450 1.391 . S
C451 C452 1.391 . S
C452 H429 0.947 . S
C452 C451 1.391 . S
C452 C453 1.392 . S
C453 H430 0.948 . S
C453 C452 1.392 . S
C453 C454 1.419 . S
C454 C453 1.419 . S
C454 C455 1.391 . S
C454 C458 1.397 . S
C455 C450 1.391 . S
C455 C454 1.391 . S
C455 C456 1.399 . S
C456 C455 1.399 . S
C456 C457 1.396 . S
C456 C459 1.453 . S
C456 C460 1.684 . S
C457 C447 1.723 . S
C457 C456 1.396 . S
C457 C458 1.394 . S
C458 C428 1.723 . S
C458 C454 1.397 . S
C458 C457 1.394 . S
C459 H431 0.982 . S
C459 H435 0.979 . S
C459 H436 0.977 . S
C459 C456 1.453 . S
C460 H432 0.979 . S
C460 H433 0.980 . S
C460 H434 0.983 . S
C460 C456 1.684 . S
H461 C479 0.948 . S
H462 C420 0.948 . S
H463 C438 0.979 . S
H464 C438 0.980 . S
H465 C438 0.983 . S
H466 C437 0.982 . S
H467 C437 0.979 . S
H468 C437 0.977 . S
H469 C439 0.948 . S
H470 C441 0.947 . S
H471 C442 0.948 . S
H472 C448 0.982 . S
H473 C448 0.979 . S
H474 C448 0.977 . S
H475 C449 0.979 . S
H476 C449 0.980 . S
H477 C449 0.983 . S
H478 C422 0.947 . S
C479 C422 1.392 . S
C479 C423 1.419 . S
C479 H461 0.948 . S
C480 C481 1.391 . S
C480 C484 1.391 . S
C480 H522 0.948 . S
C481 C480 1.391 . S
C481 C482 1.391 . S
C482 C481 1.391 . S
C482 H538 0.947 . S
C482 C539 1.392 . S
C483 C484 1.391 . S
C483 C487 1.397 . S
C483 C539 1.419 . S
C484 C480 1.391 . S
C484 C483 1.391 . S
C484 C485 1.399 . S
C485 C484 1.399 . S
C485 C488 1.396 . S
C485 C497 1.453 . S
C485 C498 1.684 . S
H486 C510 0.948 . S
C487 C483 1.397 . S
C487 C488 1.394 . S
C487 C506 1.723 . S
C488 C485 1.396 . S
C488 C487 1.394 . S
C488 C518 1.723 . S
H489 C512 0.947 . S
H490 C513 0.948 . S
H491 C519 0.982 . S
H492 C520 0.979 . S
H493 C520 0.980 . S
H494 C520 0.983 . S
H495 C519 0.979 . S
H496 C519 0.977 . S
C497 C485 1.453 . S
C497 H526 0.982 . S
C497 H527 0.979 . S
C497 H528 0.977 . S
C498 C485 1.684 . S
C498 H523 0.979 . S
C498 H524 0.980 . S
C498 H525 0.983 . S
C499 C500 1.391 . S
C499 C504 1.391 . S
C499 H529 0.948 . S
C500 C499 1.391 . S
C500 C501 1.391 . S
C501 C500 1.391 . S
C501 C502 1.392 . S
C501 H530 0.947 . S
C502 C501 1.392 . S
C502 C503 1.419 . S
C502 H531 0.948 . S
C503 C502 1.419 . S
C503 C504 1.391 . S
C503 C507 1.397 . S
C504 C499 1.391 . S
C504 C503 1.391 . S
C504 C505 1.399 . S
C505 C504 1.399 . S
C505 C506 1.396 . S
C505 C508 1.453 . S
C505 C509 1.684 . S
C506 C487 1.723 . S
C506 C505 1.396 . S
C506 C507 1.394 . S
C507 C503 1.397 . S
C507 C506 1.394 . S
C507 C517 1.723 . S
C508 C505 1.453 . S
C508 H532 0.982 . S
C508 H533 0.979 . S
C508 H534 0.977 . S
C509 C505 1.684 . S
C509 H535 0.979 . S
C509 H536 0.980 . S
C509 H537 0.983 . S
C510 H486 0.948 . S
C510 C511 1.391 . S
C510 C515 1.391 . S
C511 C510 1.391 . S
C511 C512 1.391 . S
C512 H489 0.947 . S
C512 C511 1.391 . S
C512 C513 1.392 . S
C513 H490 0.948 . S
C513 C512 1.392 . S
C513 C514 1.419 . S
C514 C513 1.419 . S
C514 C515 1.391 . S
C514 C518 1.397 . S
C515 C510 1.391 . S
C515 C514 1.391 . S
C515 C516 1.399 . S
C516 C515 1.399 . S
C516 C517 1.396 . S
C516 C519 1.453 . S
C516 C520 1.684 . S
C517 C507 1.723 . S
C517 C516 1.396 . S
C517 C518 1.394 . S
C518 C488 1.723 . S
C518 C514 1.397 . S
C518 C517 1.394 . S
C519 H491 0.982 . S
C519 H495 0.979 . S
C519 H496 0.977 . S
C519 C516 1.453 . S
C520 H492 0.979 . S
C520 H493 0.980 . S
C520 H494 0.983 . S
C520 C516 1.684 . S
H521 C539 0.948 . S
H522 C480 0.948 . S
H523 C498 0.979 . S
H524 C498 0.980 . S
H525 C498 0.983 . S
H526 C497 0.982 . S
H527 C497 0.979 . S
H528 C497 0.977 . S
H529 C499 0.948 . S
H530 C501 0.947 . S
H531 C502 0.948 . S
H532 C508 0.982 . S
H533 C508 0.979 . S
H534 C508 0.977 . S
H535 C509 0.979 . S
H536 C509 0.980 . S
H537 C509 0.983 . S
H538 C482 0.947 . S
C539 C482 1.392 . S
C539 C483 1.419 . S
C539 H521 0.948 . S
C540 C541 1.391 . S
C540 C544 1.391 . S
C540 H582 0.948 . S
C541 C540 1.391 . S
C541 C542 1.391 . S
C542 C541 1.391 . S
C542 H598 0.947 . S
C542 C599 1.392 . S
C543 C544 1.391 . S
C543 C547 1.397 . S
C543 C599 1.419 . S
C544 C540 1.391 . S
C544 C543 1.391 . S
C544 C545 1.399 . S
C545 C544 1.399 . S
C545 C548 1.396 . S
C545 C557 1.453 . S
C545 C558 1.684 . S
H546 C570 0.948 . S
C547 C543 1.397 . S
C547 C548 1.394 . S
C547 C566 1.723 . S
C548 C545 1.396 . S
C548 C547 1.394 . S
C548 C578 1.723 . S
H549 C572 0.947 . S
H550 C573 0.948 . S
H551 C579 0.982 . S
H552 C580 0.979 . S
H553 C580 0.980 . S
H554 C580 0.983 . S
H555 C579 0.979 . S
H556 C579 0.977 . S
C557 C545 1.453 . S
C557 H586 0.982 . S
C557 H587 0.979 . S
C557 H588 0.977 . S
C558 C545 1.684 . S
C558 H583 0.979 . S
C558 H584 0.980 . S
C558 H585 0.983 . S
C559 C560 1.391 . S
C559 C564 1.391 . S
C559 H589 0.948 . S
C560 C559 1.391 . S
C560 C561 1.391 . S
C561 C560 1.391 . S
C561 C562 1.392 . S
C561 H590 0.947 . S
C562 C561 1.392 . S
C562 C563 1.419 . S
C562 H591 0.948 . S
C563 C562 1.419 . S
C563 C564 1.391 . S
C563 C567 1.397 . S
C564 C559 1.391 . S
C564 C563 1.391 . S
C564 C565 1.399 . S
C565 C564 1.399 . S
C565 C566 1.396 . S
C565 C568 1.453 . S
C565 C569 1.684 . S
C566 C547 1.723 . S
C566 C565 1.396 . S
C566 C567 1.394 . S
C567 C563 1.397 . S
C567 C566 1.394 . S
C567 C577 1.723 . S
C568 C565 1.453 . S
C568 H592 0.982 . S
C568 H593 0.979 . S
C568 H594 0.977 . S
C569 C565 1.684 . S
C569 H595 0.979 . S
C569 H596 0.980 . S
C569 H597 0.983 . S
C570 H546 0.948 . S
C570 C571 1.391 . S
C570 C575 1.391 . S
C571 C570 1.391 . S
C571 C572 1.391 . S
C572 H549 0.947 . S
C572 C571 1.391 . S
C572 C573 1.392 . S
C573 H550 0.948 . S
C573 C572 1.392 . S
C573 C574 1.419 . S
C574 C573 1.419 . S
C574 C575 1.391 . S
C574 C578 1.397 . S
C575 C570 1.391 . S
C575 C574 1.391 . S
C575 C576 1.399 . S
C576 C575 1.399 . S
C576 C577 1.396 . S
C576 C579 1.453 . S
C576 C580 1.684 . S
C577 C567 1.723 . S
C577 C576 1.396 . S
C577 C578 1.394 . S
C578 C548 1.723 . S
C578 C574 1.397 . S
C578 C577 1.394 . S
C579 H551 0.982 . S
C579 H555 0.979 . S
C579 H556 0.977 . S
C579 C576 1.453 . S
C580 H552 0.979 . S
C580 H553 0.980 . S
C580 H554 0.983 . S
C580 C576 1.684 . S
H581 C599 0.948 . S
H582 C540 0.948 . S
H583 C558 0.979 . S
H584 C558 0.980 . S
H585 C558 0.983 . S
H586 C557 0.982 . S
H587 C557 0.979 . S
H588 C557 0.977 . S
H589 C559 0.948 . S
H590 C561 0.947 . S
H591 C562 0.948 . S
H592 C568 0.982 . S
H593 C568 0.979 . S
H594 C568 0.977 . S
H595 C569 0.979 . S
H596 C569 0.980 . S
H597 C569 0.983 . S
H598 C542 0.947 . S
C599 C542 1.392 . S
C599 C543 1.419 . S
C599 H581 0.948 . S
C600 C601 1.391 . S
C600 C604 1.391 . S
C600 H642 0.948 . S
C601 C600 1.391 . S
C601 C602 1.391 . S
C602 C601 1.391 . S
C602 H658 0.947 . S
C602 C659 1.392 . S
C603 C604 1.391 . S
C603 C607 1.397 . S
C603 C659 1.419 . S
C604 C600 1.391 . S
C604 C603 1.391 . S
C604 C605 1.399 . S
C605 C604 1.399 . S
C605 C608 1.396 . S
C605 C617 1.453 . S
C605 C618 1.684 . S
H606 C630 0.948 . S
C607 C603 1.397 . S
C607 C608 1.394 . S
C607 C626 1.723 . S
C608 C605 1.396 . S
C608 C607 1.394 . S
C608 C638 1.723 . S
H609 C632 0.947 . S
H610 C633 0.948 . S
H611 C639 0.982 . S
H612 C640 0.979 . S
H613 C640 0.980 . S
H614 C640 0.983 . S
H615 C639 0.979 . S
H616 C639 0.977 . S
C617 C605 1.453 . S
C617 H646 0.982 . S
C617 H647 0.979 . S
C617 H648 0.977 . S
C618 C605 1.684 . S
C618 H643 0.979 . S
C618 H644 0.980 . S
C618 H645 0.983 . S
C619 C620 1.391 . S
C619 C624 1.391 . S
C619 H649 0.948 . S
C620 C619 1.391 . S
C620 C621 1.391 . S
C621 C620 1.391 . S
C621 C622 1.392 . S
C621 H650 0.947 . S
C622 C621 1.392 . S
C622 C623 1.419 . S
C622 H651 0.948 . S
C623 C622 1.419 . S
C623 C624 1.391 . S
C623 C627 1.397 . S
C624 C619 1.391 . S
C624 C623 1.391 . S
C624 C625 1.399 . S
C625 C624 1.399 . S
C625 C626 1.396 . S
C625 C628 1.453 . S
C625 C629 1.684 . S
C626 C607 1.723 . S
C626 C625 1.396 . S
C626 C627 1.394 . S
C627 C623 1.397 . S
C627 C626 1.394 . S
C627 C637 1.723 . S
C628 C625 1.453 . S
C628 H652 0.982 . S
C628 H653 0.979 . S
C628 H654 0.977 . S
C629 C625 1.684 . S
C629 H655 0.979 . S
C629 H656 0.980 . S
C629 H657 0.983 . S
C630 H606 0.948 . S
C630 C631 1.391 . S
C630 C635 1.391 . S
C631 C630 1.391 . S
C631 C632 1.391 . S
C632 H609 0.947 . S
C632 C631 1.391 . S
C632 C633 1.392 . S
C633 H610 0.948 . S
C633 C632 1.392 . S
C633 C634 1.419 . S
C634 C633 1.419 . S
C634 C635 1.391 . S
C634 C638 1.397 . S
C635 C630 1.391 . S
C635 C634 1.391 . S
C635 C636 1.399 . S
C636 C635 1.399 . S
C636 C637 1.396 . S
C636 C639 1.453 . S
C636 C640 1.684 . S
C637 C627 1.723 . S
C637 C636 1.396 . S
C637 C638 1.394 . S
C638 C608 1.723 . S
C638 C634 1.397 . S
C638 C637 1.394 . S
C639 H611 0.982 . S
C639 H615 0.979 . S
C639 H616 0.977 . S
C639 C636 1.453 . S
C640 H612 0.979 . S
C640 H613 0.980 . S
C640 H614 0.983 . S
C640 C636 1.684 . S
H641 C659 0.948 . S
H642 C600 0.948 . S
H643 C618 0.979 . S
H644 C618 0.980 . S
H645 C618 0.983 . S
H646 C617 0.982 . S
H647 C617 0.979 . S
H648 C617 0.977 . S
H649 C619 0.948 . S
H650 C621 0.947 . S
H651 C622 0.948 . S
H652 C628 0.982 . S
H653 C628 0.979 . S
H654 C628 0.977 . S
H655 C629 0.979 . S
H656 C629 0.980 . S
H657 C629 0.983 . S
H658 C602 0.947 . S
C659 C602 1.392 . S
C659 C603 1.419 . S
C659 H641 0.948 . S
C660 C661 1.391 . S
C660 C664 1.391 . S
C660 H702 0.948 . S
C661 C660 1.391 . S
C661 C662 1.391 . S
C662 C661 1.391 . S
C662 H718 0.947 . S
C662 C719 1.392 . S
C663 C664 1.391 . S
C663 C667 1.397 . S
C663 C719 1.419 . S
C664 C660 1.391 . S
C664 C663 1.391 . S
C664 C665 1.399 . S
C665 C664 1.399 . S
C665 C668 1.396 . S
C665 C677 1.453 . S
C665 C678 1.684 . S
H666 C690 0.948 . S
C667 C663 1.397 . S
C667 C668 1.394 . S
C667 C686 1.723 . S
C668 C665 1.396 . S
C668 C667 1.394 . S
C668 C698 1.723 . S
H669 C692 0.947 . S
H670 C693 0.948 . S
H671 C699 0.982 . S
H672 C700 0.979 . S
H673 C700 0.980 . S
H674 C700 0.983 . S
H675 C699 0.979 . S
H676 C699 0.977 . S
C677 C665 1.453 . S
C677 H706 0.982 . S
C677 H707 0.979 . S
C677 H708 0.977 . S
C678 C665 1.684 . S
C678 H703 0.979 . S
C678 H704 0.980 . S
C678 H705 0.983 . S
C679 C680 1.391 . S
C679 C684 1.391 . S
C679 H709 0.948 . S
C680 C679 1.391 . S
C680 C681 1.391 . S
C681 C680 1.391 . S
C681 C682 1.392 . S
C681 H710 0.947 . S
C682 C681 1.392 . S
C682 C683 1.419 . S
C682 H711 0.948 . S
C683 C682 1.419 . S
C683 C684 1.391 . S
C683 C687 1.397 . S
C684 C679 1.391 . S
C684 C683 1.391 . S
C684 C685 1.399 . S
C685 C684 1.399 . S
C685 C686 1.396 . S
C685 C688 1.453 . S
C685 C689 1.684 . S
C686 C667 1.723 . S
C686 C685 1.396 . S
C686 C687 1.394 . S
C687 C683 1.397 . S
C687 C686 1.394 . S
C687 C697 1.723 . S
C688 C685 1.453 . S
C688 H712 0.982 . S
C688 H713 0.979 . S
C688 H714 0.977 . S
C689 C685 1.684 . S
C689 H715 0.979 . S
C689 H716 0.980 . S
C689 H717 0.983 . S
C690 H666 0.948 . S
C690 C691 1.391 . S
C690 C695 1.391 . S
C691 C690 1.391 . S
C691 C692 1.391 . S
C692 H669 0.947 . S
C692 C691 1.391 . S
C692 C693 1.392 . S
C693 H670 0.948 . S
C693 C692 1.392 . S
C693 C694 1.419 . S
C694 C693 1.419 . S
C694 C695 1.391 . S
C694 C698 1.397 . S
C695 C690 1.391 . S
C695 C694 1.391 . S
C695 C696 1.399 . S
C696 C695 1.399 . S
C696 C697 1.396 . S
C696 C699 1.453 . S
C696 C700 1.684 . S
C697 C687 1.723 . S
C697 C696 1.396 . S
C697 C698 1.394 . S
C698 C668 1.723 . S
C698 C694 1.397 . S
C698 C697 1.394 . S
C699 H671 0.982 . S
C699 H675 0.979 . S
C699 H676 0.977 . S
C699 C696 1.453 . S
C700 H672 0.979 . S
C700 H673 0.980 . S
C700 H674 0.983 . S
C700 C696 1.684 . S
H701 C719 0.948 . S
H702 C660 0.948 . S
H703 C678 0.979 . S
H704 C678 0.980 . S
H705 C678 0.983 . S
H706 C677 0.982 . S
H707 C677 0.979 . S
H708 C677 0.977 . S
H709 C679 0.948 . S
H710 C681 0.947 . S
H711 C682 0.948 . S
H712 C688 0.982 . S
H713 C688 0.979 . S
H714 C688 0.977 . S
H715 C689 0.979 . S
H716 C689 0.980 . S
H717 C689 0.983 . S
H718 C662 0.947 . S
C719 C662 1.392 . S
C719 C663 1.419 . S
C719 H701 0.948 . S
C720 C721 1.391 . S
C720 C724 1.391 . S
C720 H762 0.948 . S
C721 C720 1.391 . S
C721 C722 1.391 . S
C722 C721 1.391 . S
C722 H778 0.947 . S
C722 C779 1.392 . S
C723 C724 1.391 . S
C723 C727 1.397 . S
C723 C779 1.419 . S
C724 C720 1.391 . S
C724 C723 1.391 . S
C724 C725 1.399 . S
C725 C724 1.399 . S
C725 C728 1.396 . S
C725 C737 1.453 . S
C725 C738 1.684 . S
H726 C750 0.948 . S
C727 C723 1.397 . S
C727 C728 1.394 . S
C727 C746 1.723 . S
C728 C725 1.396 . S
C728 C727 1.394 . S
C728 C758 1.723 . S
H729 C752 0.947 . S
H730 C753 0.948 . S
H731 C759 0.982 . S
H732 C760 0.979 . S
H733 C760 0.980 . S
H734 C760 0.983 . S
H735 C759 0.979 . S
H736 C759 0.977 . S
C737 C725 1.453 . S
C737 H766 0.982 . S
C737 H767 0.979 . S
C737 H768 0.977 . S
C738 C725 1.684 . S
C738 H763 0.979 . S
C738 H764 0.980 . S
C738 H765 0.983 . S
C739 C740 1.391 . S
C739 C744 1.391 . S
C739 H769 0.948 . S
C740 C739 1.391 . S
C740 C741 1.391 . S
C741 C740 1.391 . S
C741 C742 1.392 . S
C741 H770 0.947 . S
C742 C741 1.392 . S
C742 C743 1.419 . S
C742 H771 0.948 . S
C743 C742 1.419 . S
C743 C744 1.391 . S
C743 C747 1.397 . S
C744 C739 1.391 . S
C744 C743 1.391 . S
C744 C745 1.399 . S
C745 C744 1.399 . S
C745 C746 1.396 . S
C745 C748 1.453 . S
C745 C749 1.684 . S
C746 C727 1.723 . S
C746 C745 1.396 . S
C746 C747 1.394 . S
C747 C743 1.397 . S
C747 C746 1.394 . S
C747 C757 1.723 . S
C748 C745 1.453 . S
C748 H772 0.982 . S
C748 H773 0.979 . S
C748 H774 0.977 . S
C749 C745 1.684 . S
C749 H775 0.979 . S
C749 H776 0.980 . S
C749 H777 0.983 . S
C750 H726 0.948 . S
C750 C751 1.391 . S
C750 C755 1.391 . S
C751 C750 1.391 . S
C751 C752 1.391 . S
C752 H729 0.947 . S
C752 C751 1.391 . S
C752 C753 1.392 . S
C753 H730 0.948 . S
C753 C752 1.392 . S
C753 C754 1.419 . S
C754 C753 1.419 . S
C754 C755 1.391 . S
C754 C758 1.397 . S
C755 C750 1.391 . S
C755 C754 1.391 . S
C755 C756 1.399 . S
C756 C755 1.399 . S
C756 C757 1.396 . S
C756 C759 1.453 . S
C756 C760 1.684 . S
C757 C747 1.723 . S
C757 C756 1.396 . S
C757 C758 1.394 . S
C758 C728 1.723 . S
C758 C754 1.397 . S
C758 C757 1.394 . S
C759 H731 0.982 . S
C759 H735 0.979 . S
C759 H736 0.977 . S
C759 C756 1.453 . S
C760 H732 0.979 . S
C760 H733 0.980 . S
C760 H734 0.983 . S
C760 C756 1.684 . S
H761 C779 0.948 . S
H762 C720 0.948 . S
H763 C738 0.979 . S
H764 C738 0.980 . S
H765 C738 0.983 . S
H766 C737 0.982 . S
H767 C737 0.979 . S
H768 C737 0.977 . S
H769 C739 0.948 . S
H770 C741 0.947 . S
H771 C742 0.948 . S
H772 C748 0.982 . S
H773 C748 0.979 . S
H774 C748 0.977 . S
H775 C749 0.979 . S
H776 C749 0.980 . S
H777 C749 0.983 . S
H778 C722 0.947 . S
C779 C722 1.392 . S
C779 C723 1.419 . S
C779 H761 0.948 . S
C780 C781 1.391 . S
C780 C784 1.391 . S
C780 H822 0.948 . S
C781 C780 1.391 . S
C781 C782 1.391 . S
C782 C781 1.391 . S
C782 H838 0.947 . S
C782 C839 1.392 . S
C783 C784 1.391 . S
C783 C787 1.397 . S
C783 C839 1.419 . S
C784 C780 1.391 . S
C784 C783 1.391 . S
C784 C785 1.399 . S
C785 C784 1.399 . S
C785 C788 1.396 . S
C785 C797 1.453 . S
C785 C798 1.684 . S
H786 C810 0.948 . S
C787 C783 1.397 . S
C787 C788 1.394 . S
C787 C806 1.723 . S
C788 C785 1.396 . S
C788 C787 1.394 . S
C788 C818 1.723 . S
H789 C812 0.947 . S
H790 C813 0.948 . S
H791 C819 0.982 . S
H792 C820 0.979 . S
H793 C820 0.980 . S
H794 C820 0.983 . S
H795 C819 0.979 . S
H796 C819 0.977 . S
C797 C785 1.453 . S
C797 H826 0.982 . S
C797 H827 0.979 . S
C797 H828 0.977 . S
C798 C785 1.684 . S
C798 H823 0.979 . S
C798 H824 0.980 . S
C798 H825 0.983 . S
C799 C800 1.391 . S
C799 C804 1.391 . S
C799 H829 0.948 . S
C800 C799 1.391 . S
C800 C801 1.391 . S
C801 C800 1.391 . S
C801 C802 1.392 . S
C801 H830 0.947 . S
C802 C801 1.392 . S
C802 C803 1.419 . S
C802 H831 0.948 . S
C803 C802 1.419 . S
C803 C804 1.391 . S
C803 C807 1.397 . S
C804 C799 1.391 . S
C804 C803 1.391 . S
C804 C805 1.399 . S
C805 C804 1.399 . S
C805 C806 1.396 . S
C805 C808 1.453 . S
C805 C809 1.684 . S
C806 C787 1.723 . S
C806 C805 1.396 . S
C806 C807 1.394 . S
C807 C803 1.397 . S
C807 C806 1.394 . S
C807 C817 1.723 . S
C808 C805 1.453 . S
C808 H832 0.982 . S
C808 H833 0.979 . S
C808 H834 0.977 . S
C809 C805 1.684 . S
C809 H835 0.979 . S
C809 H836 0.980 . S
C809 H837 0.983 . S
C810 H786 0.948 . S
C810 C811 1.391 . S
C810 C815 1.391 . S
C811 C810 1.391 . S
C811 C812 1.391 . S
C812 H789 0.947 . S
C812 C811 1.391 . S
C812 C813 1.392 . S
C813 H790 0.948 . S
C813 C812 1.392 . S
C813 C814 1.419 . S
C814 C813 1.419 . S
C814 C815 1.391 . S
C814 C818 1.397 . S
C815 C810 1.391 . S
C815 C814 1.391 . S
C815 C816 1.399 . S
C816 C815 1.399 . S
C816 C817 1.396 . S
C816 C819 1.453 . S
C816 C820 1.684 . S
C817 C807 1.723 . S
C817 C816 1.396 . S
C817 C818 1.394 . S
C818 C788 1.723 . S
C818 C814 1.397 . S
C818 C817 1.394 . S
C819 H791 0.982 . S
C819 H795 0.979 . S
C819 H796 0.977 . S
C819 C816 1.453 . S
C820 H792 0.979 . S
C820 H793 0.980 . S
C820 H794 0.983 . S
C820 C816 1.684 . S
H821 C839 0.948 . S
H822 C780 0.948 . S
H823 C798 0.979 . S
H824 C798 0.980 . S
H825 C798 0.983 . S
H826 C797 0.982 . S
H827 C797 0.979 . S
H828 C797 0.977 . S
H829 C799 0.948 . S
H830 C801 0.947 . S
H831 C802 0.948 . S
H832 C808 0.982 . S
H833 C808 0.979 . S
H834 C808 0.977 . S
H835 C809 0.979 . S
H836 C809 0.980 . S
H837 C809 0.983 . S
H838 C782 0.947 . S
C839 C782 1.392 . S
C839 C783 1.419 . S
C839 H821 0.948 . S
C840 C841 1.391 . S
C840 C844 1.391 . S
C840 H882 0.948 . S
C841 C840 1.391 . S
C841 C842 1.391 . S
C842 C841 1.391 . S
C842 H898 0.947 . S
C842 C899 1.392 . S
C843 C844 1.391 . S
C843 C847 1.397 . S
C843 C899 1.419 . S
C844 C840 1.391 . S
C844 C843 1.391 . S
C844 C845 1.399 . S
C845 C844 1.399 . S
C845 C848 1.396 . S
C845 C857 1.453 . S
C845 C858 1.684 . S
H846 C870 0.948 . S
C847 C843 1.397 . S
C847 C848 1.394 . S
C847 C866 1.723 . S
C848 C845 1.396 . S
C848 C847 1.394 . S
C848 C878 1.723 . S
H849 C872 0.947 . S
H850 C873 0.948 . S
H851 C879 0.982 . S
H852 C880 0.979 . S
H853 C880 0.980 . S
H854 C880 0.983 . S
H855 C879 0.979 . S
H856 C879 0.977 . S
C857 C845 1.453 . S
C857 H886 0.982 . S
C857 H887 0.979 . S
C857 H888 0.977 . S
C858 C845 1.684 . S
C858 H883 0.979 . S
C858 H884 0.980 . S
C858 H885 0.983 . S
C859 C860 1.391 . S
C859 C864 1.391 . S
C859 H889 0.948 . S
C860 C859 1.391 . S
C860 C861 1.391 . S
C861 C860 1.391 . S
C861 C862 1.392 . S
C861 H890 0.947 . S
C862 C861 1.392 . S
C862 C863 1.419 . S
C862 H891 0.948 . S
C863 C862 1.419 . S
C863 C864 1.391 . S
C863 C867 1.397 . S
C864 C859 1.391 . S
C864 C863 1.391 . S
C864 C865 1.399 . S
C865 C864 1.399 . S
C865 C866 1.396 . S
C865 C868 1.453 . S
C865 C869 1.684 . S
C866 C847 1.723 . S
C866 C865 1.396 . S
C866 C867 1.394 . S
C867 C863 1.397 . S
C867 C866 1.394 . S
C867 C877 1.723 . S
C868 C865 1.453 . S
C868 H892 0.982 . S
C868 H893 0.979 . S
C868 H894 0.977 . S
C869 C865 1.684 . S
C869 H895 0.979 . S
C869 H896 0.980 . S
C869 H897 0.983 . S
C870 H846 0.948 . S
C870 C871 1.391 . S
C870 C875 1.391 . S
C871 C870 1.391 . S
C871 C872 1.391 . S
C872 H849 0.947 . S
C872 C871 1.391 . S
C872 C873 1.392 . S
C873 H850 0.948 . S
C873 C872 1.392 . S
C873 C874 1.419 . S
C874 C873 1.419 . S
C874 C875 1.391 . S
C874 C878 1.397 . S
C875 C870 1.391 . S
C875 C874 1.391 . S
C875 C876 1.399 . S
C876 C875 1.399 . S
C876 C877 1.396 . S
C876 C879 1.453 . S
C876 C880 1.684 . S
C877 C867 1.723 . S
C877 C876 1.396 . S
C877 C878 1.394 . S
C878 C848 1.723 . S
C878 C874 1.397 . S
C878 C877 1.394 . S
C879 H851 0.982 . S
C879 H855 0.979 . S
C879 H856 0.977 . S
C879 C876 1.453 . S
C880 H852 0.979 . S
C880 H853 0.980 . S
C880 H854 0.983 . S
C880 C876 1.684 . S
H881 C899 0.948 . S
H882 C840 0.948 . S
H883 C858 0.979 . S
H884 C858 0.980 . S
H885 C858 0.983 . S
H886 C857 0.982 . S
H887 C857 0.979 . S
H888 C857 0.977 . S
H889 C859 0.948 . S
H890 C861 0.947 . S
H891 C862 0.948 . S
H892 C868 0.982 . S
H893 C868 0.979 . S
H894 C868 0.977 . S
H895 C869 0.979 . S
H896 C869 0.980 . S
H897 C869 0.983 . S
H898 C842 0.947 . S
C899 C842 1.392 . S
C899 C843 1.419 . S
C899 H881 0.948 . S
C900 C901 1.391 . S
C900 C904 1.391 . S
C900 H942 0.948 . S
C901 C900 1.391 . S
C901 C902 1.391 . S
C902 C901 1.391 . S
C902 H958 0.947 . S
C902 C959 1.392 . S
C903 C904 1.391 . S
C903 C907 1.397 . S
C903 C959 1.419 . S
C904 C900 1.391 . S
C904 C903 1.391 . S
C904 C905 1.399 . S
C905 C904 1.399 . S
C905 C908 1.396 . S
C905 C917 1.453 . S
C905 C918 1.684 . S
H906 C930 0.948 . S
C907 C903 1.397 . S
C907 C908 1.394 . S
C907 C926 1.723 . S
C908 C905 1.396 . S
C908 C907 1.394 . S
C908 C938 1.723 . S
H909 C932 0.947 . S
H910 C933 0.948 . S
H911 C939 0.982 . S
H912 C940 0.979 . S
H913 C940 0.980 . S
H914 C940 0.983 . S
H915 C939 0.979 . S
H916 C939 0.977 . S
C917 C905 1.453 . S
C917 H946 0.982 . S
C917 H947 0.979 . S
C917 H948 0.977 . S
C918 C905 1.684 . S
C918 H943 0.979 . S
C918 H944 0.980 . S
C918 H945 0.983 . S
C919 C920 1.391 . S
C919 C924 1.391 . S
C919 H949 0.948 . S
C920 C919 1.391 . S
C920 C921 1.391 . S
C921 C920 1.391 . S
C921 C922 1.392 . S
C921 H950 0.947 . S
C922 C921 1.392 . S
C922 C923 1.419 . S
C922 H951 0.948 . S
C923 C922 1.419 . S
C923 C924 1.391 . S
C923 C927 1.397 . S
C924 C919 1.391 . S
C924 C923 1.391 . S
C924 C925 1.399 . S
C925 C924 1.399 . S
C925 C926 1.396 . S
C925 C928 1.453 . S
C925 C929 1.684 . S
C926 C907 1.723 . S
C926 C925 1.396 . S
C926 C927 1.394 . S
C927 C923 1.397 . S
C927 C926 1.394 . S
C927 C937 1.723 . S
C928 C925 1.453 . S
C928 H952 0.982 . S
C928 H953 0.979 . S
C928 H954 0.977 . S
C929 C925 1.684 . S
C929 H955 0.979 . S
C929 H956 0.980 . S
C929 H957 0.983 . S
C930 H906 0.948 . S
C930 C931 1.391 . S
C930 C935 1.391 . S
C931 C930 1.391 . S
C931 C932 1.391 . S
C932 H909 0.947 . S
C932 C931 1.391 . S
C932 C933 1.392 . S
C933 H910 0.948 . S
C933 C932 1.392 . S
C933 C934 1.419 . S
C934 C933 1.419 . S
C934 C935 1.391 . S
C934 C938 1.397 . S
C935 C930 1.391 . S
C935 C934 1.391 . S
C935 C936 1.399 . S
C936 C935 1.399 . S
C936 C937 1.396 . S
C936 C939 1.453 . S
C936 C940 1.684 . S
C937 C927 1.723 . S
C937 C936 1.396 . S
C937 C938 1.394 . S
C938 C908 1.723 . S
C938 C934 1.397 . S
C938 C937 1.394 . S
C939 H911 0.982 . S
C939 H915 0.979 . S
C939 H916 0.977 . S
C939 C936 1.453 . S
C940 H912 0.979 . S
C940 H913 0.980 . S
C940 H914 0.983 . S
C940 C936 1.684 . S
H941 C959 0.948 . S
H942 C900 0.948 . S
H943 C918 0.979 . S
H944 C918 0.980 . S
H945 C918 0.983 . S
H946 C917 0.982 . S
H947 C917 0.979 . S
H948 C917 0.977 . S
H949 C919 0.948 . S
H950 C921 0.947 . S
H951 C922 0.948 . S
H952 C928 0.982 . S
H953 C928 0.979 . S
H954 C928 0.977 . S
H955 C929 0.979 . S
H956 C929 0.980 . S
H957 C929 0.983 . S
H958 C902 0.947 . S
C959 C902 1.392 . S
C959 C903 1.419 . S
C959 H941 0.948 . S
C960 C961 1.391 . S
C960 C964 1.391 . S
C960 H1002 0.948 . S
C961 C960 1.391 . S
C961 C962 1.391 . S
C962 C961 1.391 . S
C962 H1018 0.947 . S
C962 C1019 1.392 . S
C963 C964 1.391 . S
C963 C967 1.397 . S
C963 C1019 1.419 . S
C964 C960 1.391 . S
C964 C963 1.391 . S
C964 C965 1.399 . S
C965 C964 1.399 . S
C965 C968 1.396 . S
C965 C977 1.453 . S
C965 C978 1.684 . S
H966 C990 0.948 . S
C967 C963 1.397 . S
C967 C968 1.394 . S
C967 C986 1.723 . S
C968 C965 1.396 . S
C968 C967 1.394 . S
C968 C998 1.723 . S
H969 C992 0.947 . S
H970 C993 0.948 . S
H971 C999 0.982 . S
H972 C1000 0.979 . S
H973 C1000 0.980 . S
H974 C1000 0.983 . S
H975 C999 0.979 . S
H976 C999 0.977 . S
C977 C965 1.453 . S
C977 H1006 0.982 . S
C977 H1007 0.979 . S
C977 H1008 0.977 . S
C978 C965 1.684 . S
C978 H1003 0.979 . S
C978 H1004 0.980 . S
C978 H1005 0.983 . S
C979 C980 1.391 . S
C979 C984 1.391 . S
C979 H1009 0.948 . S
C980 C979 1.391 . S
C980 C981 1.391 . S
C981 C980 1.391 . S
C981 C982 1.392 . S
C981 H1010 0.947 . S
C982 C981 1.392 . S
C982 C983 1.419 . S
C982 H1011 0.948 . S
C983 C982 1.419 . S
C983 C984 1.391 . S
C983 C987 1.397 . S
C984 C979 1.391 . S
C984 C983 1.391 . S
C984 C985 1.399 . S
C985 C984 1.399 . S
C985 C986 1.396 . S
C985 C988 1.453 . S
C985 C989 1.684 . S
C986 C967 1.723 . S
C986 C985 1.396 . S
C986 C987 1.394 . S
C987 C983 1.397 . S
C987 C986 1.394 . S
C987 C997 1.723 . S
C988 C985 1.453 . S
C988 H1012 0.982 . S
C988 H1013 0.979 . S
C988 H1014 0.977 . S
C989 C985 1.684 . S
C989 H1015 0.979 . S
C989 H1016 0.980 . S
C989 H1017 0.983 . S
C990 H966 0.948 . S
C990 C991 1.391 . S
C990 C995 1.391 . S
C991 C990 1.391 . S
C991 C992 1.391 . S
C992 H969 0.947 . S
C992 C991 1.391 . S
C992 C993 1.392 . S
C993 H970 0.948 . S
C993 C992 1.392 . S
C993 C994 1.419 . S
C994 C993 1.419 . S
C994 C995 1.391 . S
C994 C998 1.397 . S
C995 C990 1.391 . S
C995 C994 1.391 . S
C995 C996 1.399 . S
C996 C995 1.399 . S
C996 C997 1.396 . S
C996 C999 1.453 . S
C996 C1000 1.684 . S
C997 C987 1.723 . S
C997 C996 1.396 . S
C997 C998 1.394 . S
C998 C968 1.723 . S
C998 C994 1.397 . S
C998 C997 1.394 . S
C999 H971 0.982 . S
C999 H975 0.979 . S
C999 H976 0.977 . S
C999 C996 1.453 . S
C1000 H972 0.979 . S
C1000 H973 0.980 . S
C1000 H974 0.983 . S
C1000 C996 1.684 . S
H1001 C1019 0.948 . S
H1002 C960 0.948 . S
H1003 C978 0.979 . S
H1004 C978 0.980 . S
H1005 C978 0.983 . S
H1006 C977 0.982 . S
H1007 C977 0.979 . S
H1008 C977 0.977 . S
H1009 C979 0.948 . S
H1010 C981 0.947 . S
H1011 C982 0.948 . S
H1012 C988 0.982 . S
H1013 C988 0.979 . S
H1014 C988 0.977 . S
H1015 C989 0.979 . S
H1016 C989 0.980 . S
H1017 C989 0.983 . S
H1018 C962 0.947 . S
C1019 C962 1.392 . S
C1019 C963 1.419 . S
C1019 H1001 0.948 . S
C1020 C1021 1.391 . S
C1020 C1024 1.391 . S
C1020 H1062 0.948 . S
C1021 C1020 1.391 . S
C1021 C1022 1.391 . S
C1022 C1021 1.391 . S
C1022 H1078 0.947 . S
C1022 C1079 1.392 . S
C1023 C1024 1.391 . S
C1023 C1027 1.397 . S
C1023 C1079 1.419 . S
C1024 C1020 1.391 . S
C1024 C1023 1.391 . S
C1024 C1025 1.399 . S
C1025 C1024 1.399 . S
C1025 C1028 1.396 . S
C1025 C1037 1.453 . S
C1025 C1038 1.684 . S
H1026 C1050 0.948 . S
C1027 C1023 1.397 . S
C1027 C1028 1.394 . S
C1027 C1046 1.723 . S
C1028 C1025 1.396 . S
C1028 C1027 1.394 . S
C1028 C1058 1.723 . S
H1029 C1052 0.947 . S
H1030 C1053 0.948 . S
H1031 C1059 0.982 . S
H1032 C1060 0.979 . S
H1033 C1060 0.980 . S
H1034 C1060 0.983 . S
H1035 C1059 0.979 . S
H1036 C1059 0.977 . S
C1037 C1025 1.453 . S
C1037 H1066 0.982 . S
C1037 H1067 0.979 . S
C1037 H1068 0.977 . S
C1038 C1025 1.684 . S
C1038 H1063 0.979 . S
C1038 H1064 0.980 . S
C1038 H1065 0.983 . S
C1039 C1040 1.391 . S
C1039 C1044 1.391 . S
C1039 H1069 0.948 . S
C1040 C1039 1.391 . S
C1040 C1041 1.391 . S
C1041 C1040 1.391 . S
C1041 C1042 1.392 . S
C1041 H1070 0.947 . S
C1042 C1041 1.392 . S
C1042 C1043 1.419 . S
C1042 H1071 0.948 . S
C1043 C1042 1.419 . S
C1043 C1044 1.391 . S
C1043 C1047 1.397 . S
C1044 C1039 1.391 . S
C1044 C1043 1.391 . S
C1044 C1045 1.399 . S
C1045 C1044 1.399 . S
C1045 C1046 1.396 . S
C1045 C1048 1.453 . S
C1045 C1049 1.684 . S
C1046 C1027 1.723 . S
C1046 C1045 1.396 . S
C1046 C1047 1.394 . S
C1047 C1043 1.397 . S
C1047 C1046 1.394 . S
C1047 C1057 1.723 . S
C1048 C1045 1.453 . S
C1048 H1072 0.982 . S
C1048 H1073 0.979 . S
C1048 H1074 0.977 . S
C1049 C1045 1.684 . S
C1049 H1075 0.979 . S
C1049 H1076 0.980 . S
C1049 H1077 0.983 . S
C1050 H1026 0.948 . S
C1050 C1051 1.391 . S
C1050 C1055 1.391 . S
C1051 C1050 1.391 . S
C1051 C1052 1.391 . S
C1052 H1029 0.947 . S
C1052 C1051 1.391 . S
C1052 C1053 1.392 . S
C1053 H1030 0.948 . S
C1053 C1052 1.392 . S
C1053 C1054 1.419 . S
C1054 C1053 1.419 . S
C1054 C1055 1.391 . S
C1054 C1058 1.397 . S
C1055 C1050 1.391 . S
C1055 C1054 1.391 . S
C1055 C1056 1.399 . S
C1056 C1055 1.399 . S
C1056 C1057 1.396 . S
C1056 C1059 1.453 . S
C1056 C1060 1.684 . S
C1057 C1047 1.723 . S
C1057 C1056 1.396 . S
C1057 C1058 1.394 . S
C1058 C1028 1.723 . S
C1058 C1054 1.397 . S
C1058 C1057 1.394 . S
C1059 H1031 0.982 . S
C1059 H1035 0.979 . S
C1059 H1036 0.977 . S
C1059 C1056 1.453 . S
C1060 H1032 0.979 . S
C1060 H1033 0.980 . S
C1060 H1034 0.983 . S
C1060 C1056 1.684 . S
H1061 C1079 0.948 . S
H1062 C1020 0.948 . S
H1063 C1038 0.979 . S
H1064 C1038 0.980 . S
H1065 C1038 0.983 . S
H1066 C1037 0.982 . S
H1067 C1037 0.979 . S
H1068 C1037 0.977 . S
H1069 C1039 0.948 . S
H1070 C1041 0.947 . S
H1071 C1042 0.948 . S
H1072 C1048 0.982 . S
H1073 C1048 0.979 . S
H1074 C1048 0.977 . S
H1075 C1049 0.979 . S
H1076 C1049 0.980 . S
H1077 C1049 0.983 . S
H1078 C1022 0.947 . S
C1079 C1022 1.392 . S
C1079 C1023 1.419 . S
C1079 H1061 0.948 . S
Eu1080 N1111 2.657 . S
Eu1080 N1118 2.609 . S
Eu1080 O1124 2.558 . S
Eu1080 O1125 2.612 1_565 S
Eu1080 O1127 2.339 1_565 S
Eu1080 O1128 2.563 1_565 S
Eu1080 O1129 2.419 . S
Eu1080 O1131 2.380 1_556 S
Eu1080 O1132 2.432 . S
Eu1080 C1144 2.848 . S
C1081 C1084 1.429 . S
C1081 C1085 1.411 . S
C1081 N1088 1.377 . S
C1082 C1084 1.420 . S
C1082 C1086 1.423 . S
C1082 C1094 1.392 . S
C1083 C1085 1.420 . S
C1083 C1086 1.351 . S
C1083 H1106 0.931 . S
C1084 C1081 1.429 . S
C1084 C1082 1.420 . S
C1084 N1092 1.362 . S
C1085 C1081 1.411 . S
C1085 C1083 1.420 . S
C1085 C1090 1.395 . S
C1086 C1082 1.423 . S
C1086 C1083 1.351 . S
C1086 H1098 0.930 . S
C1087 C1089 1.400 . S
C1087 C1090 1.386 . S
C1087 H1099 0.930 . S
N1088 C1081 1.377 . S
N1088 C1089 1.321 . S
N1088 Eu1091 2.609 . S
C1089 C1087 1.400 . S
C1089 N1088 1.321 . S
C1089 H1096 0.930 . S
C1090 C1085 1.395 . S
C1090 C1087 1.386 . S
C1090 H1109 0.930 . S
Eu1091 N1088 2.609 . S
Eu1091 N1092 2.657 . S
Eu1091 O1125 2.380 1_554 S
Eu1091 O1126 2.432 . S
Eu1091 O1130 2.558 . S
Eu1091 O1131 2.612 1_545 S
Eu1091 O1133 2.339 1_545 S
Eu1091 O1134 2.563 1_545 S
Eu1091 O1135 2.419 . S
Eu1091 C1155 2.848 . S
N1092 C1084 1.362 . S
N1092 Eu1091 2.657 . S
N1092 C1093 1.334 . S
C1093 N1092 1.334 . S
C1093 C1095 1.413 . S
C1093 H1100 0.929 . S
C1094 C1082 1.392 . S
C1094 C1095 1.367 . S
C1094 H1102 0.930 . S
C1095 C1093 1.413 . S
C1095 C1094 1.367 . S
C1095 H1097 0.930 . S
H1096 C1089 0.930 . S
H1097 C1095 0.930 . S
H1098 C1086 0.930 . S
H1099 C1087 0.930 . S
H1100 C1093 0.929 . S
H1101 C1115 0.930 . S
H1102 C1094 0.930 . S
H1103 C1121 0.930 . S
H1104 C1112 0.929 . S
H1105 C1119 0.930 . S
H1106 C1083 0.931 . S
H1107 C1113 0.930 . S
H1108 C1146 0.930 . S
H1109 C1090 0.930 . S
H1110 C1145 0.931 . S
N1111 Eu1080 2.657 . S
N1111 C1112 1.334 . S
N1111 C1116 1.362 . S
C1112 H1104 0.929 . S
C1112 N1111 1.334 . S
C1112 C1115 1.413 . S
C1113 H1107 0.930 . S
C1113 C1114 1.392 . S
C1113 C1115 1.367 . S
C1114 C1113 1.392 . S
C1114 C1116 1.420 . S
C1114 C1146 1.423 . S
C1115 H1101 0.930 . S
C1115 C1112 1.413 . S
C1115 C1113 1.367 . S
C1116 N1111 1.362 . S
C1116 C1114 1.420 . S
C1116 C1120 1.429 . S
H1117 C1122 0.930 . S
N1118 Eu1080 2.609 . S
N1118 C1120 1.377 . S
N1118 C1121 1.321 . S
C1119 H1105 0.930 . S
C1119 C1121 1.400 . S
C1119 C1122 1.386 . S
C1120 C1116 1.429 . S
C1120 N1118 1.377 . S
C1120 C1123 1.411 . S
C1121 H1103 0.930 . S
C1121 N1118 1.321 . S
C1121 C1119 1.400 . S
C1122 H1117 0.930 . S
C1122 C1119 1.386 . S
C1122 C1123 1.395 . S
C1123 C1120 1.411 . S
C1123 C1122 1.395 . S
C1123 C1145 1.420 . S
O1124 Eu1080 2.558 . S
O1124 C1144 1.257 . S
O1125 Eu1080 2.612 1_545 S
O1125 Eu1091 2.380 1_556 S
O1125 C1136 1.276 . S
O1126 Eu1091 2.432 . S
O1126 C1143 1.264 1_554 S
O1127 Eu1080 2.339 1_545 S
O1127 C1143 1.254 . S
O1128 Eu1080 2.563 1_545 S
O1128 C1136 1.235 . S
O1129 Eu1080 2.419 . S
O1129 C1144 1.249 . S
O1130 Eu1091 2.558 . S
O1130 C1155 1.257 . S
O1131 Eu1080 2.380 1_554 S
O1131 Eu1091 2.612 1_565 S
O1131 C1147 1.276 . S
O1132 Eu1080 2.432 . S
O1132 C1154 1.264 1_556 S
O1133 Eu1091 2.339 1_565 S
O1133 C1154 1.254 . S
O1134 Eu1091 2.563 1_565 S
O1134 C1147 1.235 . S
O1135 Eu1091 2.419 . S
O1135 C1155 1.249 . S
C1136 O1125 1.276 . S
C1136 O1128 1.235 . S
C1137 C1139 1.393 1_565 S
C1137 C1141 1.395 . S
C1137 C1144 1.492 . S
C1138 C1139 1.392 . S
C1138 C1140 1.386 1_545 S
C1139 C1137 1.393 1_545 S
C1139 C1138 1.392 . S
C1139 H1156 0.930 . S
C1140 C1138 1.386 1_565 S
C1140 C1142 1.395 . S
C1140 H1157 0.930 . S
C1141 C1137 1.395 . S
C1141 C1142 1.379 . S
C1141 H1158 0.930 . S
C1142 C1140 1.395 . S
C1142 C1141 1.379 . S
C1142 H1159 0.930 . S
C1143 O1126 1.264 1_556 S
C1143 O1127 1.254 . S
C1144 Eu1080 2.848 . S
C1144 O1124 1.257 . S
C1144 O1129 1.249 . S
C1144 C1137 1.492 . S
C1145 H1110 0.931 . S
C1145 C1123 1.420 . S
C1145 C1146 1.351 . S
C1146 H1108 0.930 . S
C1146 C1114 1.423 . S
C1146 C1145 1.351 . S
C1147 O1131 1.276 . S
C1147 O1134 1.235 . S
C1148 C1149 1.393 1_545 S
C1148 C1152 1.395 . S
C1148 C1155 1.492 . S
C1149 C1148 1.393 1_565 S
C1149 C1150 1.392 . S
C1149 H1160 0.930 . S
C1150 C1149 1.392 . S
C1150 C1151 1.386 1_565 S
C1151 C1150 1.386 1_545 S
C1151 C1153 1.395 . S
C1151 H1161 0.930 . S
C1152 C1148 1.395 . S
C1152 C1153 1.379 . S
C1152 H1162 0.930 . S
C1153 C1151 1.395 . S
C1153 C1152 1.379 . S
C1153 H1163 0.930 . S
C1154 O1132 1.264 1_554 S
C1154 O1133 1.254 . S
C1155 Eu1091 2.848 . S
C1155 O1130 1.257 . S
C1155 O1135 1.249 . S
C1155 C1148 1.492 . S
H1156 C1139 0.930 . S
H1157 C1140 0.930 . S
H1158 C1141 0.930 . S
H1159 C1142 0.930 . S
H1160 C1149 0.930 . S
H1161 C1151 0.930 . S
H1162 C1152 0.930 . S
H1163 C1153 0.930 . S
Eu1164 N1195 2.657 . S
Eu1164 N1202 2.609 . S
Eu1164 O1208 2.558 . S
Eu1164 O1209 2.612 1_455 S
Eu1164 O1211 2.339 1_455 S
Eu1164 O1212 2.563 1_455 S
Eu1164 O1213 2.419 . S
Eu1164 O1215 2.380 1_556 S
Eu1164 O1216 2.432 . S
Eu1164 C1228 2.848 . S
C1165 C1168 1.429 . S
C1165 C1169 1.411 . S
C1165 N1172 1.377 . S
C1166 C1168 1.420 . S
C1166 C1170 1.423 . S
C1166 C1178 1.392 . S
C1167 C1169 1.420 . S
C1167 C1170 1.351 . S
C1167 H1190 0.931 . S
C1168 C1165 1.429 . S
C1168 C1166 1.420 . S
C1168 N1176 1.362 . S
C1169 C1165 1.411 . S
C1169 C1167 1.420 . S
C1169 C1174 1.395 . S
C1170 C1166 1.423 . S
C1170 C1167 1.351 . S
C1170 H1182 0.930 . S
C1171 C1173 1.400 . S
C1171 C1174 1.386 . S
C1171 H1183 0.930 . S
N1172 C1165 1.377 . S
N1172 C1173 1.321 . S
N1172 Eu1175 2.609 . S
C1173 C1171 1.400 . S
C1173 N1172 1.321 . S
C1173 H1180 0.930 . S
C1174 C1169 1.395 . S
C1174 C1171 1.386 . S
C1174 H1193 0.930 . S
Eu1175 N1172 2.609 . S
Eu1175 N1176 2.657 . S
Eu1175 O1209 2.380 1_554 S
Eu1175 O1210 2.432 . S
Eu1175 O1214 2.558 . S
Eu1175 O1215 2.612 1_655 S
Eu1175 O1217 2.339 1_655 S
Eu1175 O1218 2.563 1_655 S
Eu1175 O1219 2.419 . S
Eu1175 C1239 2.848 . S
N1176 C1168 1.362 . S
N1176 Eu1175 2.657 . S
N1176 C1177 1.334 . S
C1177 N1176 1.334 . S
C1177 C1179 1.413 . S
C1177 H1184 0.929 . S
C1178 C1166 1.392 . S
C1178 C1179 1.367 . S
C1178 H1186 0.930 . S
C1179 C1177 1.413 . S
C1179 C1178 1.367 . S
C1179 H1181 0.930 . S
H1180 C1173 0.930 . S
H1181 C1179 0.930 . S
H1182 C1170 0.930 . S
H1183 C1171 0.930 . S
H1184 C1177 0.929 . S
H1185 C1199 0.930 . S
H1186 C1178 0.930 . S
H1187 C1205 0.930 . S
H1188 C1196 0.929 . S
H1189 C1203 0.930 . S
H1190 C1167 0.931 . S
H1191 C1197 0.930 . S
H1192 C1230 0.930 . S
H1193 C1174 0.930 . S
H1194 C1229 0.931 . S
N1195 Eu1164 2.657 . S
N1195 C1196 1.334 . S
N1195 C1200 1.362 . S
C1196 H1188 0.929 . S
C1196 N1195 1.334 . S
C1196 C1199 1.413 . S
C1197 H1191 0.930 . S
C1197 C1198 1.392 . S
C1197 C1199 1.367 . S
C1198 C1197 1.392 . S
C1198 C1200 1.420 . S
C1198 C1230 1.423 . S
C1199 H1185 0.930 . S
C1199 C1196 1.413 . S
C1199 C1197 1.367 . S
C1200 N1195 1.362 . S
C1200 C1198 1.420 . S
C1200 C1204 1.429 . S
H1201 C1206 0.930 . S
N1202 Eu1164 2.609 . S
N1202 C1204 1.377 . S
N1202 C1205 1.321 . S
C1203 H1189 0.930 . S
C1203 C1205 1.400 . S
C1203 C1206 1.386 . S
C1204 C1200 1.429 . S
C1204 N1202 1.377 . S
C1204 C1207 1.411 . S
C1205 H1187 0.930 . S
C1205 N1202 1.321 . S
C1205 C1203 1.400 . S
C1206 H1201 0.930 . S
C1206 C1203 1.386 . S
C1206 C1207 1.395 . S
C1207 C1204 1.411 . S
C1207 C1206 1.395 . S
C1207 C1229 1.420 . S
O1208 Eu1164 2.558 . S
O1208 C1228 1.257 . S
O1209 Eu1164 2.612 1_655 S
O1209 Eu1175 2.380 1_556 S
O1209 C1220 1.276 . S
O1210 Eu1175 2.432 . S
O1210 C1227 1.264 1_554 S
O1211 Eu1164 2.339 1_655 S
O1211 C1227 1.254 . S
O1212 Eu1164 2.563 1_655 S
O1212 C1220 1.235 . S
O1213 Eu1164 2.419 . S
O1213 C1228 1.249 . S
O1214 Eu1175 2.558 . S
O1214 C1239 1.257 . S
O1215 Eu1164 2.380 1_554 S
O1215 Eu1175 2.612 1_455 S
O1215 C1231 1.276 . S
O1216 Eu1164 2.432 . S
O1216 C1238 1.264 1_556 S
O1217 Eu1175 2.339 1_455 S
O1217 C1238 1.254 . S
O1218 Eu1175 2.563 1_455 S
O1218 C1231 1.235 . S
O1219 Eu1175 2.419 . S
O1219 C1239 1.249 . S
C1220 O1209 1.276 . S
C1220 O1212 1.235 . S
C1221 C1223 1.393 1_455 S
C1221 C1225 1.395 . S
C1221 C1228 1.492 . S
C1222 C1223 1.392 . S
C1222 C1224 1.386 1_655 S
C1223 C1221 1.393 1_655 S
C1223 C1222 1.392 . S
C1223 H1240 0.930 . S
C1224 C1222 1.386 1_455 S
C1224 C1226 1.395 . S
C1224 H1241 0.930 . S
C1225 C1221 1.395 . S
C1225 C1226 1.379 . S
C1225 H1242 0.930 . S
C1226 C1224 1.395 . S
C1226 C1225 1.379 . S
C1226 H1243 0.930 . S
C1227 O1210 1.264 1_556 S
C1227 O1211 1.254 . S
C1228 Eu1164 2.848 . S
C1228 O1208 1.257 . S
C1228 O1213 1.249 . S
C1228 C1221 1.492 . S
C1229 H1194 0.931 . S
C1229 C1207 1.420 . S
C1229 C1230 1.351 . S
C1230 H1192 0.930 . S
C1230 C1198 1.423 . S
C1230 C1229 1.351 . S
C1231 O1215 1.276 . S
C1231 O1218 1.235 . S
C1232 C1233 1.393 1_655 S
C1232 C1236 1.395 . S
C1232 C1239 1.492 . S
C1233 C1232 1.393 1_455 S
C1233 C1234 1.392 . S
C1233 H1244 0.930 . S
C1234 C1233 1.392 . S
C1234 C1235 1.386 1_455 S
C1235 C1234 1.386 1_655 S
C1235 C1237 1.395 . S
C1235 H1245 0.930 . S
C1236 C1232 1.395 . S
C1236 C1237 1.379 . S
C1236 H1246 0.930 . S
C1237 C1235 1.395 . S
C1237 C1236 1.379 . S
C1237 H1247 0.930 . S
C1238 O1216 1.264 1_554 S
C1238 O1217 1.254 . S
C1239 Eu1175 2.848 . S
C1239 O1214 1.257 . S
C1239 O1219 1.249 . S
C1239 C1232 1.492 . S
H1240 C1223 0.930 . S
H1241 C1224 0.930 . S
H1242 C1225 0.930 . S
H1243 C1226 0.930 . S
H1244 C1233 0.930 . S
H1245 C1235 0.930 . S
H1246 C1236 0.930 . S
H1247 C1237 0.930 . S
Eu1248 N1279 2.657 . S
Eu1248 N1286 2.609 . S
Eu1248 O1292 2.558 . S
Eu1248 O1293 2.612 . S
Eu1248 O1295 2.339 . S
Eu1248 O1296 2.563 . S
Eu1248 O1297 2.419 . S
Eu1248 O1299 2.380 1_554 S
Eu1248 O1300 2.432 . S
Eu1248 C1312 2.848 . S
C1249 C1252 1.429 . S
C1249 C1253 1.411 . S
C1249 N1256 1.377 . S
C1250 C1252 1.420 . S
C1250 C1254 1.423 . S
C1250 C1262 1.392 . S
C1251 C1253 1.420 . S
C1251 C1254 1.351 . S
C1251 H1274 0.931 . S
C1252 C1249 1.429 . S
C1252 C1250 1.420 . S
C1252 N1260 1.362 . S
C1253 C1249 1.411 . S
C1253 C1251 1.420 . S
C1253 C1258 1.395 . S
C1254 C1250 1.423 . S
C1254 C1251 1.351 . S
C1254 H1266 0.930 . S
C1255 C1257 1.400 . S
C1255 C1258 1.386 . S
C1255 H1267 0.930 . S
N1256 C1249 1.377 . S
N1256 C1257 1.321 . S
N1256 Eu1259 2.609 . S
C1257 C1255 1.400 . S
C1257 N1256 1.321 . S
C1257 H1264 0.930 . S
C1258 C1253 1.395 . S
C1258 C1255 1.386 . S
C1258 H1277 0.930 . S
Eu1259 N1256 2.609 . S
Eu1259 N1260 2.657 . S
Eu1259 O1293 2.380 1_556 S
Eu1259 O1294 2.432 . S
Eu1259 O1298 2.558 . S
Eu1259 O1299 2.612 . S
Eu1259 O1301 2.339 . S
Eu1259 O1302 2.563 . S
Eu1259 O1303 2.419 . S
Eu1259 C1323 2.848 . S
N1260 C1252 1.362 . S
N1260 Eu1259 2.657 . S
N1260 C1261 1.334 . S
C1261 N1260 1.334 . S
C1261 C1263 1.413 . S
C1261 H1268 0.929 . S
C1262 C1250 1.392 . S
C1262 C1263 1.367 . S
C1262 H1270 0.930 . S
C1263 C1261 1.413 . S
C1263 C1262 1.367 . S
C1263 H1265 0.930 . S
H1264 C1257 0.930 . S
H1265 C1263 0.930 . S
H1266 C1254 0.930 . S
H1267 C1255 0.930 . S
H1268 C1261 0.929 . S
H1269 C1283 0.930 . S
H1270 C1262 0.930 . S
H1271 C1289 0.930 . S
H1272 C1280 0.929 . S
H1273 C1287 0.930 . S
H1274 C1251 0.931 . S
H1275 C1281 0.930 . S
H1276 C1314 0.930 . S
H1277 C1258 0.930 . S
H1278 C1313 0.931 . S
N1279 Eu1248 2.657 . S
N1279 C1280 1.334 . S
N1279 C1284 1.362 . S
C1280 H1272 0.929 . S
C1280 N1279 1.334 . S
C1280 C1283 1.413 . S
C1281 H1275 0.930 . S
C1281 C1282 1.392 . S
C1281 C1283 1.367 . S
C1282 C1281 1.392 . S
C1282 C1284 1.420 . S
C1282 C1314 1.423 . S
C1283 H1269 0.930 . S
C1283 C1280 1.413 . S
C1283 C1281 1.367 . S
C1284 N1279 1.362 . S
C1284 C1282 1.420 . S
C1284 C1288 1.429 . S
H1285 C1290 0.930 . S
N1286 Eu1248 2.609 . S
N1286 C1288 1.377 . S
N1286 C1289 1.321 . S
C1287 H1273 0.930 . S
C1287 C1289 1.400 . S
C1287 C1290 1.386 . S
C1288 C1284 1.429 . S
C1288 N1286 1.377 . S
C1288 C1291 1.411 . S
C1289 H1271 0.930 . S
C1289 N1286 1.321 . S
C1289 C1287 1.400 . S
C1290 H1285 0.930 . S
C1290 C1287 1.386 . S
C1290 C1291 1.395 . S
C1291 C1288 1.411 . S
C1291 C1290 1.395 . S
C1291 C1313 1.420 . S
O1292 Eu1248 2.558 . S
O1292 C1312 1.257 . S
O1293 Eu1248 2.612 . S
O1293 Eu1259 2.380 1_554 S
O1293 C1304 1.276 . S
O1294 Eu1259 2.432 . S
O1294 C1311 1.264 1_556 S
O1295 Eu1248 2.339 . S
O1295 C1311 1.254 . S
O1296 Eu1248 2.563 . S
O1296 C1304 1.235 . S
O1297 Eu1248 2.419 . S
O1297 C1312 1.249 . S
O1298 Eu1259 2.558 . S
O1298 C1323 1.257 . S
O1299 Eu1248 2.380 1_556 S
O1299 Eu1259 2.612 . S
O1299 C1315 1.276 . S
O1300 Eu1248 2.432 . S
O1300 C1322 1.264 1_554 S
O1301 Eu1259 2.339 . S
O1301 C1322 1.254 . S
O1302 Eu1259 2.563 . S
O1302 C1315 1.235 . S
O1303 Eu1259 2.419 . S
O1303 C1323 1.249 . S
C1304 O1293 1.276 . S
C1304 O1296 1.235 . S
C1305 C1307 1.393 . S
C1305 C1309 1.395 . S
C1305 C1312 1.492 . S
C1306 C1307 1.392 . S
C1306 C1308 1.386 . S
C1307 C1305 1.393 . S
C1307 C1306 1.392 . S
C1307 H1324 0.930 . S
C1308 C1306 1.386 . S
C1308 C1310 1.395 . S
C1308 H1325 0.930 . S
C1309 C1305 1.395 . S
C1309 C1310 1.379 . S
C1309 H1326 0.930 . S
C1310 C1308 1.395 . S
C1310 C1309 1.379 . S
C1310 H1327 0.930 . S
C1311 O1294 1.264 1_554 S
C1311 O1295 1.254 . S
C1312 Eu1248 2.848 . S
C1312 O1292 1.257 . S
C1312 O1297 1.249 . S
C1312 C1305 1.492 . S
C1313 H1278 0.931 . S
C1313 C1291 1.420 . S
C1313 C1314 1.351 . S
C1314 H1276 0.930 . S
C1314 C1282 1.423 . S
C1314 C1313 1.351 . S
C1315 O1299 1.276 . S
C1315 O1302 1.235 . S
C1316 C1317 1.393 . S
C1316 C1320 1.395 . S
C1316 C1323 1.492 . S
C1317 C1316 1.393 . S
C1317 C1318 1.392 . S
C1317 H1328 0.930 . S
C1318 C1317 1.392 . S
C1318 C1319 1.386 . S
C1319 C1318 1.386 . S
C1319 C1321 1.395 . S
C1319 H1329 0.930 . S
C1320 C1316 1.395 . S
C1320 C1321 1.379 . S
C1320 H1330 0.930 . S
C1321 C1319 1.395 . S
C1321 C1320 1.379 . S
C1321 H1331 0.930 . S
C1322 O1300 1.264 1_556 S
C1322 O1301 1.254 . S
C1323 Eu1259 2.848 . S
C1323 O1298 1.257 . S
C1323 O1303 1.249 . S
C1323 C1316 1.492 . S
H1324 C1307 0.930 . S
H1325 C1308 0.930 . S
H1326 C1309 0.930 . S
H1327 C1310 0.930 . S
H1328 C1317 0.930 . S
H1329 C1319 0.930 . S
H1330 C1320 0.930 . S
H1331 C1321 0.930 . S
Eu1332 N1363 2.657 . S
Eu1332 N1370 2.609 . S
Eu1332 O1376 2.558 . S
Eu1332 O1377 2.612 . S
Eu1332 O1379 2.339 . S
Eu1332 O1380 2.563 . S
Eu1332 O1381 2.419 . S
Eu1332 O1383 2.380 . S
Eu1332 O1384 2.432 . S
Eu1332 C1396 2.848 . S
C1333 C1336 1.429 . S
C1333 C1337 1.411 . S
C1333 N1340 1.377 . S
C1334 C1336 1.420 . S
C1334 C1338 1.423 . S
C1334 C1346 1.392 . S
C1335 C1337 1.420 . S
C1335 C1338 1.351 . S
C1335 H1358 0.931 . S
C1336 C1333 1.429 . S
C1336 C1334 1.420 . S
C1336 N1344 1.362 . S
C1337 C1333 1.411 . S
C1337 C1335 1.420 . S
C1337 C1342 1.395 . S
C1338 C1334 1.423 . S
C1338 C1335 1.351 . S
C1338 H1350 0.930 . S
C1339 C1341 1.400 . S
C1339 C1342 1.386 . S
C1339 H1351 0.930 . S
N1340 C1333 1.377 . S
N1340 C1341 1.321 . S
N1340 Eu1343 2.609 . S
C1341 C1339 1.400 . S
C1341 N1340 1.321 . S
C1341 H1348 0.930 . S
C1342 C1337 1.395 . S
C1342 C1339 1.386 . S
C1342 H1361 0.930 . S
Eu1343 N1340 2.609 . S
Eu1343 N1344 2.657 . S
Eu1343 O1377 2.380 . S
Eu1343 O1378 2.432 . S
Eu1343 O1382 2.558 . S
Eu1343 O1383 2.612 . S
Eu1343 O1385 2.339 . S
Eu1343 O1386 2.563 . S
Eu1343 O1387 2.419 . S
Eu1343 C1407 2.848 . S
N1344 C1336 1.362 . S
N1344 Eu1343 2.657 . S
N1344 C1345 1.334 . S
C1345 N1344 1.334 . S
C1345 C1347 1.413 . S
C1345 H1352 0.929 . S
C1346 C1334 1.392 . S
C1346 C1347 1.367 . S
C1346 H1354 0.930 . S
C1347 C1345 1.413 . S
C1347 C1346 1.367 . S
C1347 H1349 0.930 . S
H1348 C1341 0.930 . S
H1349 C1347 0.930 . S
H1350 C1338 0.930 . S
H1351 C1339 0.930 . S
H1352 C1345 0.929 . S
H1353 C1367 0.930 . S
H1354 C1346 0.930 . S
H1355 C1373 0.930 . S
H1356 C1364 0.929 . S
H1357 C1371 0.930 . S
H1358 C1335 0.931 . S
H1359 C1365 0.930 . S
H1360 C1398 0.930 . S
H1361 C1342 0.930 . S
H1362 C1397 0.931 . S
N1363 Eu1332 2.657 . S
N1363 C1364 1.334 . S
N1363 C1368 1.362 . S
C1364 H1356 0.929 . S
C1364 N1363 1.334 . S
C1364 C1367 1.413 . S
C1365 H1359 0.930 . S
C1365 C1366 1.392 . S
C1365 C1367 1.367 . S
C1366 C1365 1.392 . S
C1366 C1368 1.420 . S
C1366 C1398 1.423 . S
C1367 H1353 0.930 . S
C1367 C1364 1.413 . S
C1367 C1365 1.367 . S
C1368 N1363 1.362 . S
C1368 C1366 1.420 . S
C1368 C1372 1.429 . S
H1369 C1374 0.930 . S
N1370 Eu1332 2.609 . S
N1370 C1372 1.377 . S
N1370 C1373 1.321 . S
C1371 H1357 0.930 . S
C1371 C1373 1.400 . S
C1371 C1374 1.386 . S
C1372 C1368 1.429 . S
C1372 N1370 1.377 . S
C1372 C1375 1.411 . S
C1373 H1355 0.930 . S
C1373 N1370 1.321 . S
C1373 C1371 1.400 . S
C1374 H1369 0.930 . S
C1374 C1371 1.386 . S
C1374 C1375 1.395 . S
C1375 C1372 1.411 . S
C1375 C1374 1.395 . S
C1375 C1397 1.420 . S
O1376 Eu1332 2.558 . S
O1376 C1396 1.257 . S
O1377 Eu1332 2.612 . S
O1377 Eu1343 2.380 . S
O1377 C1388 1.276 . S
O1378 Eu1343 2.432 . S
O1378 C1395 1.264 . S
O1379 Eu1332 2.339 . S
O1379 C1395 1.254 . S
O1380 Eu1332 2.563 . S
O1380 C1388 1.235 . S
O1381 Eu1332 2.419 . S
O1381 C1396 1.249 . S
O1382 Eu1343 2.558 . S
O1382 C1407 1.257 . S
O1383 Eu1332 2.380 . S
O1383 Eu1343 2.612 . S
O1383 C1399 1.276 . S
O1384 Eu1332 2.432 . S
O1384 C1406 1.264 . S
O1385 Eu1343 2.339 . S
O1385 C1406 1.254 . S
O1386 Eu1343 2.563 . S
O1386 C1399 1.235 . S
O1387 Eu1343 2.419 . S
O1387 C1407 1.249 . S
C1388 O1377 1.276 . S
C1388 O1380 1.235 . S
C1389 C1391 1.393 . S
C1389 C1393 1.395 . S
C1389 C1396 1.492 . S
C1390 C1391 1.392 . S
C1390 C1392 1.386 . S
C1391 C1389 1.393 . S
C1391 C1390 1.392 . S
C1391 H1408 0.930 . S
C1392 C1390 1.386 . S
C1392 C1394 1.395 . S
C1392 H1409 0.930 . S
C1393 C1389 1.395 . S
C1393 C1394 1.379 . S
C1393 H1410 0.930 . S
C1394 C1392 1.395 . S
C1394 C1393 1.379 . S
C1394 H1411 0.930 . S
C1395 O1378 1.264 . S
C1395 O1379 1.254 . S
C1396 Eu1332 2.848 . S
C1396 O1376 1.257 . S
C1396 O1381 1.249 . S
C1396 C1389 1.492 . S
C1397 H1362 0.931 . S
C1397 C1375 1.420 . S
C1397 C1398 1.351 . S
C1398 H1360 0.930 . S
C1398 C1366 1.423 . S
C1398 C1397 1.351 . S
C1399 O1383 1.276 . S
C1399 O1386 1.235 . S
C1400 C1401 1.393 . S
C1400 C1404 1.395 . S
C1400 C1407 1.492 . S
C1401 C1400 1.393 . S
C1401 C1402 1.392 . S
C1401 H1412 0.930 . S
C1402 C1401 1.392 . S
C1402 C1403 1.386 . S
C1403 C1402 1.386 . S
C1403 C1405 1.395 . S
C1403 H1413 0.930 . S
C1404 C1400 1.395 . S
C1404 C1405 1.379 . S
C1404 H1414 0.930 . S
C1405 C1403 1.395 . S
C1405 C1404 1.379 . S
C1405 H1415 0.930 . S
C1406 O1384 1.264 . S
C1406 O1385 1.254 . S
C1407 Eu1343 2.848 . S
C1407 O1382 1.257 . S
C1407 O1387 1.249 . S
C1407 C1400 1.492 . S
H1408 C1391 0.930 . S
H1409 C1392 0.930 . S
H1410 C1393 0.930 . S
H1411 C1394 0.930 . S
H1412 C1401 0.930 . S
H1413 C1403 0.930 . S
H1414 C1404 0.930 . S
H1415 C1405 0.930 . S
Eu1416 N1447 2.657 . S
Eu1416 N1454 2.609 . S
Eu1416 O1460 2.558 . S
Eu1416 O1461 2.612 . S
Eu1416 O1463 2.339 . S
Eu1416 O1464 2.563 . S
Eu1416 O1465 2.419 . S
Eu1416 O1467 2.380 . S
Eu1416 O1468 2.432 . S
Eu1416 C1480 2.848 . S
C1417 C1420 1.429 . S
C1417 C1421 1.411 . S
C1417 N1424 1.377 . S
C1418 C1420 1.420 . S
C1418 C1422 1.423 . S
C1418 C1430 1.392 . S
C1419 C1421 1.420 . S
C1419 C1422 1.351 . S
C1419 H1442 0.931 . S
C1420 C1417 1.429 . S
C1420 C1418 1.420 . S
C1420 N1428 1.362 . S
C1421 C1417 1.411 . S
C1421 C1419 1.420 . S
C1421 C1426 1.395 . S
C1422 C1418 1.423 . S
C1422 C1419 1.351 . S
C1422 H1434 0.930 . S
C1423 C1425 1.400 . S
C1423 C1426 1.386 . S
C1423 H1435 0.930 . S
N1424 C1417 1.377 . S
N1424 C1425 1.321 . S
N1424 Eu1427 2.609 . S
C1425 C1423 1.400 . S
C1425 N1424 1.321 . S
C1425 H1432 0.930 . S
C1426 C1421 1.395 . S
C1426 C1423 1.386 . S
C1426 H1445 0.930 . S
Eu1427 N1424 2.609 . S
Eu1427 N1428 2.657 . S
Eu1427 O1461 2.380 . S
Eu1427 O1462 2.432 . S
Eu1427 O1466 2.558 . S
Eu1427 O1467 2.612 . S
Eu1427 O1469 2.339 . S
Eu1427 O1470 2.563 . S
Eu1427 O1471 2.419 . S
Eu1427 C1491 2.848 . S
N1428 C1420 1.362 . S
N1428 Eu1427 2.657 . S
N1428 C1429 1.334 . S
C1429 N1428 1.334 . S
C1429 C1431 1.413 . S
C1429 H1436 0.929 . S
C1430 C1418 1.392 . S
C1430 C1431 1.367 . S
C1430 H1438 0.930 . S
C1431 C1429 1.413 . S
C1431 C1430 1.367 . S
C1431 H1433 0.930 . S
H1432 C1425 0.930 . S
H1433 C1431 0.930 . S
H1434 C1422 0.930 . S
H1435 C1423 0.930 . S
H1436 C1429 0.929 . S
H1437 C1451 0.930 . S
H1438 C1430 0.930 . S
H1439 C1457 0.930 . S
H1440 C1448 0.929 . S
H1441 C1455 0.930 . S
H1442 C1419 0.931 . S
H1443 C1449 0.930 . S
H1444 C1482 0.930 . S
H1445 C1426 0.930 . S
H1446 C1481 0.931 . S
N1447 Eu1416 2.657 . S
N1447 C1448 1.334 . S
N1447 C1452 1.362 . S
C1448 H1440 0.929 . S
C1448 N1447 1.334 . S
C1448 C1451 1.413 . S
C1449 H1443 0.930 . S
C1449 C1450 1.392 . S
C1449 C1451 1.367 . S
C1450 C1449 1.392 . S
C1450 C1452 1.420 . S
C1450 C1482 1.423 . S
C1451 H1437 0.930 . S
C1451 C1448 1.413 . S
C1451 C1449 1.367 . S
C1452 N1447 1.362 . S
C1452 C1450 1.420 . S
C1452 C1456 1.429 . S
H1453 C1458 0.930 . S
N1454 Eu1416 2.609 . S
N1454 C1456 1.377 . S
N1454 C1457 1.321 . S
C1455 H1441 0.930 . S
C1455 C1457 1.400 . S
C1455 C1458 1.386 . S
C1456 C1452 1.429 . S
C1456 N1454 1.377 . S
C1456 C1459 1.411 . S
C1457 H1439 0.930 . S
C1457 N1454 1.321 . S
C1457 C1455 1.400 . S
C1458 H1453 0.930 . S
C1458 C1455 1.386 . S
C1458 C1459 1.395 . S
C1459 C1456 1.411 . S
C1459 C1458 1.395 . S
C1459 C1481 1.420 . S
O1460 Eu1416 2.558 . S
O1460 C1480 1.257 . S
O1461 Eu1416 2.612 . S
O1461 Eu1427 2.380 . S
O1461 C1472 1.276 . S
O1462 Eu1427 2.432 . S
O1462 C1479 1.264 . S
O1463 Eu1416 2.339 . S
O1463 C1479 1.254 . S
O1464 Eu1416 2.563 . S
O1464 C1472 1.235 . S
O1465 Eu1416 2.419 . S
O1465 C1480 1.249 . S
O1466 Eu1427 2.558 . S
O1466 C1491 1.257 . S
O1467 Eu1416 2.380 . S
O1467 Eu1427 2.612 . S
O1467 C1483 1.276 . S
O1468 Eu1416 2.432 . S
O1468 C1490 1.264 . S
O1469 Eu1427 2.339 . S
O1469 C1490 1.254 . S
O1470 Eu1427 2.563 . S
O1470 C1483 1.235 . S
O1471 Eu1427 2.419 . S
O1471 C1491 1.249 . S
C1472 O1461 1.276 . S
C1472 O1464 1.235 . S
C1473 C1475 1.393 . S
C1473 C1477 1.395 . S
C1473 C1480 1.492 . S
C1474 C1475 1.392 . S
C1474 C1476 1.386 . S
C1475 C1473 1.393 . S
C1475 C1474 1.392 . S
C1475 H1492 0.930 . S
C1476 C1474 1.386 . S
C1476 C1478 1.395 . S
C1476 H1493 0.930 . S
C1477 C1473 1.395 . S
C1477 C1478 1.379 . S
C1477 H1494 0.930 . S
C1478 C1476 1.395 . S
C1478 C1477 1.379 . S
C1478 H1495 0.930 . S
C1479 O1462 1.264 . S
C1479 O1463 1.254 . S
C1480 Eu1416 2.848 . S
C1480 O1460 1.257 . S
C1480 O1465 1.249 . S
C1480 C1473 1.492 . S
C1481 H1446 0.931 . S
C1481 C1459 1.420 . S
C1481 C1482 1.351 . S
C1482 H1444 0.930 . S
C1482 C1450 1.423 . S
C1482 C1481 1.351 . S
C1483 O1467 1.276 . S
C1483 O1470 1.235 . S
C1484 C1485 1.393 . S
C1484 C1488 1.395 . S
C1484 C1491 1.492 . S
C1485 C1484 1.393 . S
C1485 C1486 1.392 . S
C1485 H1496 0.930 . S
C1486 C1485 1.392 . S
C1486 C1487 1.386 . S
C1487 C1486 1.386 . S
C1487 C1489 1.395 . S
C1487 H1497 0.930 . S
C1488 C1484 1.395 . S
C1488 C1489 1.379 . S
C1488 H1498 0.930 . S
C1489 C1487 1.395 . S
C1489 C1488 1.379 . S
C1489 H1499 0.930 . S
C1490 O1468 1.264 . S
C1490 O1469 1.254 . S
C1491 Eu1427 2.848 . S
C1491 O1466 1.257 . S
C1491 O1471 1.249 . S
C1491 C1484 1.492 . S
H1492 C1475 0.930 . S
H1493 C1476 0.930 . S
H1494 C1477 0.930 . S
H1495 C1478 0.930 . S
H1496 C1485 0.930 . S
H1497 C1487 0.930 . S
H1498 C1488 0.930 . S
H1499 C1489 0.930 . S
Eu1500 N1531 2.657 . S
Eu1500 N1538 2.609 . S
Eu1500 O1544 2.558 . S
Eu1500 O1545 2.612 . S
Eu1500 O1547 2.339 . S
Eu1500 O1548 2.563 . S
Eu1500 O1549 2.419 . S
Eu1500 O1551 2.380 . S
Eu1500 O1552 2.432 . S
Eu1500 C1564 2.848 . S
C1501 C1504 1.429 . S
C1501 C1505 1.411 . S
C1501 N1508 1.377 . S
C1502 C1504 1.420 . S
C1502 C1506 1.423 . S
C1502 C1514 1.392 . S
C1503 C1505 1.420 . S
C1503 C1506 1.351 . S
C1503 H1526 0.931 . S
C1504 C1501 1.429 . S
C1504 C1502 1.420 . S
C1504 N1512 1.362 . S
C1505 C1501 1.411 . S
C1505 C1503 1.420 . S
C1505 C1510 1.395 . S
C1506 C1502 1.423 . S
C1506 C1503 1.351 . S
C1506 H1518 0.930 . S
C1507 C1509 1.400 . S
C1507 C1510 1.386 . S
C1507 H1519 0.930 . S
N1508 C1501 1.377 . S
N1508 C1509 1.321 . S
N1508 Eu1511 2.609 . S
C1509 C1507 1.400 . S
C1509 N1508 1.321 . S
C1509 H1516 0.930 . S
C1510 C1505 1.395 . S
C1510 C1507 1.386 . S
C1510 H1529 0.930 . S
Eu1511 N1508 2.609 . S
Eu1511 N1512 2.657 . S
Eu1511 O1545 2.380 . S
Eu1511 O1546 2.432 . S
Eu1511 O1550 2.558 . S
Eu1511 O1551 2.612 . S
Eu1511 O1553 2.339 . S
Eu1511 O1554 2.563 . S
Eu1511 O1555 2.419 . S
Eu1511 C1575 2.848 . S
N1512 C1504 1.362 . S
N1512 Eu1511 2.657 . S
N1512 C1513 1.334 . S
C1513 N1512 1.334 . S
C1513 C1515 1.413 . S
C1513 H1520 0.929 . S
C1514 C1502 1.392 . S
C1514 C1515 1.367 . S
C1514 H1522 0.930 . S
C1515 C1513 1.413 . S
C1515 C1514 1.367 . S
C1515 H1517 0.930 . S
H1516 C1509 0.930 . S
H1517 C1515 0.930 . S
H1518 C1506 0.930 . S
H1519 C1507 0.930 . S
H1520 C1513 0.929 . S
H1521 C1535 0.930 . S
H1522 C1514 0.930 . S
H1523 C1541 0.930 . S
H1524 C1532 0.929 . S
H1525 C1539 0.930 . S
H1526 C1503 0.931 . S
H1527 C1533 0.930 . S
H1528 C1566 0.930 . S
H1529 C1510 0.930 . S
H1530 C1565 0.931 . S
N1531 Eu1500 2.657 . S
N1531 C1532 1.334 . S
N1531 C1536 1.362 . S
C1532 H1524 0.929 . S
C1532 N1531 1.334 . S
C1532 C1535 1.413 . S
C1533 H1527 0.930 . S
C1533 C1534 1.392 . S
C1533 C1535 1.367 . S
C1534 C1533 1.392 . S
C1534 C1536 1.420 . S
C1534 C1566 1.423 . S
C1535 H1521 0.930 . S
C1535 C1532 1.413 . S
C1535 C1533 1.367 . S
C1536 N1531 1.362 . S
C1536 C1534 1.420 . S
C1536 C1540 1.429 . S
H1537 C1542 0.930 . S
N1538 Eu1500 2.609 . S
N1538 C1540 1.377 . S
N1538 C1541 1.321 . S
C1539 H1525 0.930 . S
C1539 C1541 1.400 . S
C1539 C1542 1.386 . S
C1540 C1536 1.429 . S
C1540 N1538 1.377 . S
C1540 C1543 1.411 . S
C1541 H1523 0.930 . S
C1541 N1538 1.321 . S
C1541 C1539 1.400 . S
C1542 H1537 0.930 . S
C1542 C1539 1.386 . S
C1542 C1543 1.395 . S
C1543 C1540 1.411 . S
C1543 C1542 1.395 . S
C1543 C1565 1.420 . S
O1544 Eu1500 2.558 . S
O1544 C1564 1.257 . S
O1545 Eu1500 2.612 . S
O1545 Eu1511 2.380 . S
O1545 C1556 1.276 . S
O1546 Eu1511 2.432 . S
O1546 C1563 1.264 . S
O1547 Eu1500 2.339 . S
O1547 C1563 1.254 . S
O1548 Eu1500 2.563 . S
O1548 C1556 1.235 . S
O1549 Eu1500 2.419 . S
O1549 C1564 1.249 . S
O1550 Eu1511 2.558 . S
O1550 C1575 1.257 . S
O1551 Eu1500 2.380 . S
O1551 Eu1511 2.612 . S
O1551 C1567 1.276 . S
O1552 Eu1500 2.432 . S
O1552 C1574 1.264 . S
O1553 Eu1511 2.339 . S
O1553 C1574 1.254 . S
O1554 Eu1511 2.563 . S
O1554 C1567 1.235 . S
O1555 Eu1511 2.419 . S
O1555 C1575 1.249 . S
C1556 O1545 1.276 . S
C1556 O1548 1.235 . S
C1557 C1559 1.393 . S
C1557 C1561 1.395 . S
C1557 C1564 1.492 . S
C1558 C1559 1.392 . S
C1558 C1560 1.386 . S
C1559 C1557 1.393 . S
C1559 C1558 1.392 . S
C1559 H1576 0.930 . S
C1560 C1558 1.386 . S
C1560 C1562 1.395 . S
C1560 H1577 0.930 . S
C1561 C1557 1.395 . S
C1561 C1562 1.379 . S
C1561 H1578 0.930 . S
C1562 C1560 1.395 . S
C1562 C1561 1.379 . S
C1562 H1579 0.930 . S
C1563 O1546 1.264 . S
C1563 O1547 1.254 . S
C1564 Eu1500 2.848 . S
C1564 O1544 1.257 . S
C1564 O1549 1.249 . S
C1564 C1557 1.492 . S
C1565 H1530 0.931 . S
C1565 C1543 1.420 . S
C1565 C1566 1.351 . S
C1566 H1528 0.930 . S
C1566 C1534 1.423 . S
C1566 C1565 1.351 . S
C1567 O1551 1.276 . S
C1567 O1554 1.235 . S
C1568 C1569 1.393 . S
C1568 C1572 1.395 . S
C1568 C1575 1.492 . S
C1569 C1568 1.393 . S
C1569 C1570 1.392 . S
C1569 H1580 0.930 . S
C1570 C1569 1.392 . S
C1570 C1571 1.386 . S
C1571 C1570 1.386 . S
C1571 C1573 1.395 . S
C1571 H1581 0.930 . S
C1572 C1568 1.395 . S
C1572 C1573 1.379 . S
C1572 H1582 0.930 . S
C1573 C1571 1.395 . S
C1573 C1572 1.379 . S
C1573 H1583 0.930 . S
C1574 O1552 1.264 . S
C1574 O1553 1.254 . S
C1575 Eu1511 2.848 . S
C1575 O1550 1.257 . S
C1575 O1555 1.249 . S
C1575 C1568 1.492 . S
H1576 C1559 0.930 . S
H1577 C1560 0.930 . S
H1578 C1561 0.930 . S
H1579 C1562 0.930 . S
H1580 C1569 0.930 . S
H1581 C1571 0.930 . S
H1582 C1572 0.930 . S
H1583 C1573 0.930 . S
Eu1584 N1615 2.657 . S
Eu1584 N1622 2.609 . S
Eu1584 O1628 2.558 . S
Eu1584 O1629 2.612 . S
Eu1584 O1631 2.339 . S
Eu1584 O1632 2.563 . S
Eu1584 O1633 2.419 . S
Eu1584 O1635 2.380 . S
Eu1584 O1636 2.432 . S
Eu1584 C1648 2.848 . S
C1585 C1588 1.429 . S
C1585 C1589 1.411 . S
C1585 N1592 1.377 . S
C1586 C1588 1.420 . S
C1586 C1590 1.423 . S
C1586 C1598 1.392 . S
C1587 C1589 1.420 . S
C1587 C1590 1.351 . S
C1587 H1610 0.931 . S
C1588 C1585 1.429 . S
C1588 C1586 1.420 . S
C1588 N1596 1.362 . S
C1589 C1585 1.411 . S
C1589 C1587 1.420 . S
C1589 C1594 1.395 . S
C1590 C1586 1.423 . S
C1590 C1587 1.351 . S
C1590 H1602 0.930 . S
C1591 C1593 1.400 . S
C1591 C1594 1.386 . S
C1591 H1603 0.930 . S
N1592 C1585 1.377 . S
N1592 C1593 1.321 . S
N1592 Eu1595 2.609 . S
C1593 C1591 1.400 . S
C1593 N1592 1.321 . S
C1593 H1600 0.930 . S
C1594 C1589 1.395 . S
C1594 C1591 1.386 . S
C1594 H1613 0.930 . S
Eu1595 N1592 2.609 . S
Eu1595 N1596 2.657 . S
Eu1595 O1629 2.380 . S
Eu1595 O1630 2.432 . S
Eu1595 O1634 2.558 . S
Eu1595 O1635 2.612 . S
Eu1595 O1637 2.339 . S
Eu1595 O1638 2.563 . S
Eu1595 O1639 2.419 . S
Eu1595 C1659 2.848 . S
N1596 C1588 1.362 . S
N1596 Eu1595 2.657 . S
N1596 C1597 1.334 . S
C1597 N1596 1.334 . S
C1597 C1599 1.413 . S
C1597 H1604 0.929 . S
C1598 C1586 1.392 . S
C1598 C1599 1.367 . S
C1598 H1606 0.930 . S
C1599 C1597 1.413 . S
C1599 C1598 1.367 . S
C1599 H1601 0.930 . S
H1600 C1593 0.930 . S
H1601 C1599 0.930 . S
H1602 C1590 0.930 . S
H1603 C1591 0.930 . S
H1604 C1597 0.929 . S
H1605 C1619 0.930 . S
H1606 C1598 0.930 . S
H1607 C1625 0.930 . S
H1608 C1616 0.929 . S
H1609 C1623 0.930 . S
H1610 C1587 0.931 . S
H1611 C1617 0.930 . S
H1612 C1650 0.930 . S
H1613 C1594 0.930 . S
H1614 C1649 0.931 . S
N1615 Eu1584 2.657 . S
N1615 C1616 1.334 . S
N1615 C1620 1.362 . S
C1616 H1608 0.929 . S
C1616 N1615 1.334 . S
C1616 C1619 1.413 . S
C1617 H1611 0.930 . S
C1617 C1618 1.392 . S
C1617 C1619 1.367 . S
C1618 C1617 1.392 . S
C1618 C1620 1.420 . S
C1618 C1650 1.423 . S
C1619 H1605 0.930 . S
C1619 C1616 1.413 . S
C1619 C1617 1.367 . S
C1620 N1615 1.362 . S
C1620 C1618 1.420 . S
C1620 C1624 1.429 . S
H1621 C1626 0.930 . S
N1622 Eu1584 2.609 . S
N1622 C1624 1.377 . S
N1622 C1625 1.321 . S
C1623 H1609 0.930 . S
C1623 C1625 1.400 . S
C1623 C1626 1.386 . S
C1624 C1620 1.429 . S
C1624 N1622 1.377 . S
C1624 C1627 1.411 . S
C1625 H1607 0.930 . S
C1625 N1622 1.321 . S
C1625 C1623 1.400 . S
C1626 H1621 0.930 . S
C1626 C1623 1.386 . S
C1626 C1627 1.395 . S
C1627 C1624 1.411 . S
C1627 C1626 1.395 . S
C1627 C1649 1.420 . S
O1628 Eu1584 2.558 . S
O1628 C1648 1.257 . S
O1629 Eu1584 2.612 . S
O1629 Eu1595 2.380 . S
O1629 C1640 1.276 . S
O1630 Eu1595 2.432 . S
O1630 C1647 1.264 . S
O1631 Eu1584 2.339 . S
O1631 C1647 1.254 . S
O1632 Eu1584 2.563 . S
O1632 C1640 1.235 . S
O1633 Eu1584 2.419 . S
O1633 C1648 1.249 . S
O1634 Eu1595 2.558 . S
O1634 C1659 1.257 . S
O1635 Eu1584 2.380 . S
O1635 Eu1595 2.612 . S
O1635 C1651 1.276 . S
O1636 Eu1584 2.432 . S
O1636 C1658 1.264 . S
O1637 Eu1595 2.339 . S
O1637 C1658 1.254 . S
O1638 Eu1595 2.563 . S
O1638 C1651 1.235 . S
O1639 Eu1595 2.419 . S
O1639 C1659 1.249 . S
C1640 O1629 1.276 . S
C1640 O1632 1.235 . S
C1641 C1643 1.393 . S
C1641 C1645 1.395 . S
C1641 C1648 1.492 . S
C1642 C1643 1.392 . S
C1642 C1644 1.386 . S
C1643 C1641 1.393 . S
C1643 C1642 1.392 . S
C1643 H1660 0.930 . S
C1644 C1642 1.386 . S
C1644 C1646 1.395 . S
C1644 H1661 0.930 . S
C1645 C1641 1.395 . S
C1645 C1646 1.379 . S
C1645 H1662 0.930 . S
C1646 C1644 1.395 . S
C1646 C1645 1.379 . S
C1646 H1663 0.930 . S
C1647 O1630 1.264 . S
C1647 O1631 1.254 . S
C1648 Eu1584 2.848 . S
C1648 O1628 1.257 . S
C1648 O1633 1.249 . S
C1648 C1641 1.492 . S
C1649 H1614 0.931 . S
C1649 C1627 1.420 . S
C1649 C1650 1.351 . S
C1650 H1612 0.930 . S
C1650 C1618 1.423 . S
C1650 C1649 1.351 . S
C1651 O1635 1.276 . S
C1651 O1638 1.235 . S
C1652 C1653 1.393 . S
C1652 C1656 1.395 . S
C1652 C1659 1.492 . S
C1653 C1652 1.393 . S
C1653 C1654 1.392 . S
C1653 H1664 0.930 . S
C1654 C1653 1.392 . S
C1654 C1655 1.386 . S
C1655 C1654 1.386 . S
C1655 C1657 1.395 . S
C1655 H1665 0.930 . S
C1656 C1652 1.395 . S
C1656 C1657 1.379 . S
C1656 H1666 0.930 . S
C1657 C1655 1.395 . S
C1657 C1656 1.379 . S
C1657 H1667 0.930 . S
C1658 O1636 1.264 . S
C1658 O1637 1.254 . S
C1659 Eu1595 2.848 . S
C1659 O1634 1.257 . S
C1659 O1639 1.249 . S
C1659 C1652 1.492 . S
H1660 C1643 0.930 . S
H1661 C1644 0.930 . S
H1662 C1645 0.930 . S
H1663 C1646 0.930 . S
H1664 C1653 0.930 . S
H1665 C1655 0.930 . S
H1666 C1656 0.930 . S
H1667 C1657 0.930 . S
Eu1668 N1699 2.657 . S
Eu1668 N1706 2.609 . S
Eu1668 O1712 2.558 . S
Eu1668 O1713 2.612 . S
Eu1668 O1715 2.339 . S
Eu1668 O1716 2.563 . S
Eu1668 O1717 2.419 . S
Eu1668 O1719 2.380 . S
Eu1668 O1720 2.432 . S
Eu1668 C1732 2.848 . S
C1669 C1672 1.429 . S
C1669 C1673 1.411 . S
C1669 N1676 1.377 . S
C1670 C1672 1.420 . S
C1670 C1674 1.423 . S
C1670 C1682 1.392 . S
C1671 C1673 1.420 . S
C1671 C1674 1.351 . S
C1671 H1694 0.931 . S
C1672 C1669 1.429 . S
C1672 C1670 1.420 . S
C1672 N1680 1.362 . S
C1673 C1669 1.411 . S
C1673 C1671 1.420 . S
C1673 C1678 1.395 . S
C1674 C1670 1.423 . S
C1674 C1671 1.351 . S
C1674 H1686 0.930 . S
C1675 C1677 1.400 . S
C1675 C1678 1.386 . S
C1675 H1687 0.930 . S
N1676 C1669 1.377 . S
N1676 C1677 1.321 . S
N1676 Eu1679 2.609 . S
C1677 C1675 1.400 . S
C1677 N1676 1.321 . S
C1677 H1684 0.930 . S
C1678 C1673 1.395 . S
C1678 C1675 1.386 . S
C1678 H1697 0.930 . S
Eu1679 N1676 2.609 . S
Eu1679 N1680 2.657 . S
Eu1679 O1713 2.380 . S
Eu1679 O1714 2.432 . S
Eu1679 O1718 2.558 . S
Eu1679 O1719 2.612 . S
Eu1679 O1721 2.339 . S
Eu1679 O1722 2.563 . S
Eu1679 O1723 2.419 . S
Eu1679 C1743 2.848 . S
N1680 C1672 1.362 . S
N1680 Eu1679 2.657 . S
N1680 C1681 1.334 . S
C1681 N1680 1.334 . S
C1681 C1683 1.413 . S
C1681 H1688 0.929 . S
C1682 C1670 1.392 . S
C1682 C1683 1.367 . S
C1682 H1690 0.930 . S
C1683 C1681 1.413 . S
C1683 C1682 1.367 . S
C1683 H1685 0.930 . S
H1684 C1677 0.930 . S
H1685 C1683 0.930 . S
H1686 C1674 0.930 . S
H1687 C1675 0.930 . S
H1688 C1681 0.929 . S
H1689 C1703 0.930 . S
H1690 C1682 0.930 . S
H1691 C1709 0.930 . S
H1692 C1700 0.929 . S
H1693 C1707 0.930 . S
H1694 C1671 0.931 . S
H1695 C1701 0.930 . S
H1696 C1734 0.930 . S
H1697 C1678 0.930 . S
H1698 C1733 0.931 . S
N1699 Eu1668 2.657 . S
N1699 C1700 1.334 . S
N1699 C1704 1.362 . S
C1700 H1692 0.929 . S
C1700 N1699 1.334 . S
C1700 C1703 1.413 . S
C1701 H1695 0.930 . S
C1701 C1702 1.392 . S
C1701 C1703 1.367 . S
C1702 C1701 1.392 . S
C1702 C1704 1.420 . S
C1702 C1734 1.423 . S
C1703 H1689 0.930 . S
C1703 C1700 1.413 . S
C1703 C1701 1.367 . S
C1704 N1699 1.362 . S
C1704 C1702 1.420 . S
C1704 C1708 1.429 . S
H1705 C1710 0.930 . S
N1706 Eu1668 2.609 . S
N1706 C1708 1.377 . S
N1706 C1709 1.321 . S
C1707 H1693 0.930 . S
C1707 C1709 1.400 . S
C1707 C1710 1.386 . S
C1708 C1704 1.429 . S
C1708 N1706 1.377 . S
C1708 C1711 1.411 . S
C1709 H1691 0.930 . S
C1709 N1706 1.321 . S
C1709 C1707 1.400 . S
C1710 H1705 0.930 . S
C1710 C1707 1.386 . S
C1710 C1711 1.395 . S
C1711 C1708 1.411 . S
C1711 C1710 1.395 . S
C1711 C1733 1.420 . S
O1712 Eu1668 2.558 . S
O1712 C1732 1.257 . S
O1713 Eu1668 2.612 . S
O1713 Eu1679 2.380 . S
O1713 C1724 1.276 . S
O1714 Eu1679 2.432 . S
O1714 C1731 1.264 . S
O1715 Eu1668 2.339 . S
O1715 C1731 1.254 . S
O1716 Eu1668 2.563 . S
O1716 C1724 1.235 . S
O1717 Eu1668 2.419 . S
O1717 C1732 1.249 . S
O1718 Eu1679 2.558 . S
O1718 C1743 1.257 . S
O1719 Eu1668 2.380 . S
O1719 Eu1679 2.612 . S
O1719 C1735 1.276 . S
O1720 Eu1668 2.432 . S
O1720 C1742 1.264 . S
O1721 Eu1679 2.339 . S
O1721 C1742 1.254 . S
O1722 Eu1679 2.563 . S
O1722 C1735 1.235 . S
O1723 Eu1679 2.419 . S
O1723 C1743 1.249 . S
C1724 O1713 1.276 . S
C1724 O1716 1.235 . S
C1725 C1727 1.393 . S
C1725 C1729 1.395 . S
C1725 C1732 1.492 . S
C1726 C1727 1.392 . S
C1726 C1728 1.386 . S
C1727 C1725 1.393 . S
C1727 C1726 1.392 . S
C1727 H1744 0.930 . S
C1728 C1726 1.386 . S
C1728 C1730 1.395 . S
C1728 H1745 0.930 . S
C1729 C1725 1.395 . S
C1729 C1730 1.379 . S
C1729 H1746 0.930 . S
C1730 C1728 1.395 . S
C1730 C1729 1.379 . S
C1730 H1747 0.930 . S
C1731 O1714 1.264 . S
C1731 O1715 1.254 . S
C1732 Eu1668 2.848 . S
C1732 O1712 1.257 . S
C1732 O1717 1.249 . S
C1732 C1725 1.492 . S
C1733 H1698 0.931 . S
C1733 C1711 1.420 . S
C1733 C1734 1.351 . S
C1734 H1696 0.930 . S
C1734 C1702 1.423 . S
C1734 C1733 1.351 . S
C1735 O1719 1.276 . S
C1735 O1722 1.235 . S
C1736 C1737 1.393 . S
C1736 C1740 1.395 . S
C1736 C1743 1.492 . S
C1737 C1736 1.393 . S
C1737 C1738 1.392 . S
C1737 H1748 0.930 . S
C1738 C1737 1.392 . S
C1738 C1739 1.386 . S
C1739 C1738 1.386 . S
C1739 C1741 1.395 . S
C1739 H1749 0.930 . S
C1740 C1736 1.395 . S
C1740 C1741 1.379 . S
C1740 H1750 0.930 . S
C1741 C1739 1.395 . S
C1741 C1740 1.379 . S
C1741 H1751 0.930 . S
C1742 O1720 1.264 . S
C1742 O1721 1.254 . S
C1743 Eu1679 2.848 . S
C1743 O1718 1.257 . S
C1743 O1723 1.249 . S
C1743 C1736 1.492 . S
H1744 C1727 0.930 . S
H1745 C1728 0.930 . S
H1746 C1729 0.930 . S
H1747 C1730 0.930 . S
H1748 C1737 0.930 . S
H1749 C1739 0.930 . S
H1750 C1740 0.930 . S
H1751 C1741 0.930 . S
Eu1752 N1783 2.657 . S
Eu1752 N1790 2.609 . S
Eu1752 O1796 2.558 . S
Eu1752 O1797 2.612 . S
Eu1752 O1799 2.339 . S
Eu1752 O1800 2.563 . S
Eu1752 O1801 2.419 . S
Eu1752 O1803 2.380 . S
Eu1752 O1804 2.432 . S
Eu1752 C1816 2.848 . S
C1753 C1756 1.429 . S
C1753 C1757 1.411 . S
C1753 N1760 1.377 . S
C1754 C1756 1.420 . S
C1754 C1758 1.423 . S
C1754 C1766 1.392 . S
C1755 C1757 1.420 . S
C1755 C1758 1.351 . S
C1755 H1778 0.931 . S
C1756 C1753 1.429 . S
C1756 C1754 1.420 . S
C1756 N1764 1.362 . S
C1757 C1753 1.411 . S
C1757 C1755 1.420 . S
C1757 C1762 1.395 . S
C1758 C1754 1.423 . S
C1758 C1755 1.351 . S
C1758 H1770 0.930 . S
C1759 C1761 1.400 . S
C1759 C1762 1.386 . S
C1759 H1771 0.930 . S
N1760 C1753 1.377 . S
N1760 C1761 1.321 . S
N1760 Eu1763 2.609 . S
C1761 C1759 1.400 . S
C1761 N1760 1.321 . S
C1761 H1768 0.930 . S
C1762 C1757 1.395 . S
C1762 C1759 1.386 . S
C1762 H1781 0.930 . S
Eu1763 N1760 2.609 . S
Eu1763 N1764 2.657 . S
Eu1763 O1797 2.380 . S
Eu1763 O1798 2.432 . S
Eu1763 O1802 2.558 . S
Eu1763 O1803 2.612 . S
Eu1763 O1805 2.339 . S
Eu1763 O1806 2.563 . S
Eu1763 O1807 2.419 . S
Eu1763 C1827 2.848 . S
N1764 C1756 1.362 . S
N1764 Eu1763 2.657 . S
N1764 C1765 1.334 . S
C1765 N1764 1.334 . S
C1765 C1767 1.413 . S
C1765 H1772 0.929 . S
C1766 C1754 1.392 . S
C1766 C1767 1.367 . S
C1766 H1774 0.930 . S
C1767 C1765 1.413 . S
C1767 C1766 1.367 . S
C1767 H1769 0.930 . S
H1768 C1761 0.930 . S
H1769 C1767 0.930 . S
H1770 C1758 0.930 . S
H1771 C1759 0.930 . S
H1772 C1765 0.929 . S
H1773 C1787 0.930 . S
H1774 C1766 0.930 . S
H1775 C1793 0.930 . S
H1776 C1784 0.929 . S
H1777 C1791 0.930 . S
H1778 C1755 0.931 . S
H1779 C1785 0.930 . S
H1780 C1818 0.930 . S
H1781 C1762 0.930 . S
H1782 C1817 0.931 . S
N1783 Eu1752 2.657 . S
N1783 C1784 1.334 . S
N1783 C1788 1.362 . S
C1784 H1776 0.929 . S
C1784 N1783 1.334 . S
C1784 C1787 1.413 . S
C1785 H1779 0.930 . S
C1785 C1786 1.392 . S
C1785 C1787 1.367 . S
C1786 C1785 1.392 . S
C1786 C1788 1.420 . S
C1786 C1818 1.423 . S
C1787 H1773 0.930 . S
C1787 C1784 1.413 . S
C1787 C1785 1.367 . S
C1788 N1783 1.362 . S
C1788 C1786 1.420 . S
C1788 C1792 1.429 . S
H1789 C1794 0.930 . S
N1790 Eu1752 2.609 . S
N1790 C1792 1.377 . S
N1790 C1793 1.321 . S
C1791 H1777 0.930 . S
C1791 C1793 1.400 . S
C1791 C1794 1.386 . S
C1792 C1788 1.429 . S
C1792 N1790 1.377 . S
C1792 C1795 1.411 . S
C1793 H1775 0.930 . S
C1793 N1790 1.321 . S
C1793 C1791 1.400 . S
C1794 H1789 0.930 . S
C1794 C1791 1.386 . S
C1794 C1795 1.395 . S
C1795 C1792 1.411 . S
C1795 C1794 1.395 . S
C1795 C1817 1.420 . S
O1796 Eu1752 2.558 . S
O1796 C1816 1.257 . S
O1797 Eu1752 2.612 . S
O1797 Eu1763 2.380 . S
O1797 C1808 1.276 . S
O1798 Eu1763 2.432 . S
O1798 C1815 1.264 . S
O1799 Eu1752 2.339 . S
O1799 C1815 1.254 . S
O1800 Eu1752 2.563 . S
O1800 C1808 1.235 . S
O1801 Eu1752 2.419 . S
O1801 C1816 1.249 . S
O1802 Eu1763 2.558 . S
O1802 C1827 1.257 . S
O1803 Eu1752 2.380 . S
O1803 Eu1763 2.612 . S
O1803 C1819 1.276 . S
O1804 Eu1752 2.432 . S
O1804 C1826 1.264 . S
O1805 Eu1763 2.339 . S
O1805 C1826 1.254 . S
O1806 Eu1763 2.563 . S
O1806 C1819 1.235 . S
O1807 Eu1763 2.419 . S
O1807 C1827 1.249 . S
C1808 O1797 1.276 . S
C1808 O1800 1.235 . S
C1809 C1811 1.393 . S
C1809 C1813 1.395 . S
C1809 C1816 1.492 . S
C1810 C1811 1.392 . S
C1810 C1812 1.386 . S
C1811 C1809 1.393 . S
C1811 C1810 1.392 . S
C1811 H1828 0.930 . S
C1812 C1810 1.386 . S
C1812 C1814 1.395 . S
C1812 H1829 0.930 . S
C1813 C1809 1.395 . S
C1813 C1814 1.379 . S
C1813 H1830 0.930 . S
C1814 C1812 1.395 . S
C1814 C1813 1.379 . S
C1814 H1831 0.930 . S
C1815 O1798 1.264 . S
C1815 O1799 1.254 . S
C1816 Eu1752 2.848 . S
C1816 O1796 1.257 . S
C1816 O1801 1.249 . S
C1816 C1809 1.492 . S
C1817 H1782 0.931 . S
C1817 C1795 1.420 . S
C1817 C1818 1.351 . S
C1818 H1780 0.930 . S
C1818 C1786 1.423 . S
C1818 C1817 1.351 . S
C1819 O1803 1.276 . S
C1819 O1806 1.235 . S
C1820 C1821 1.393 . S
C1820 C1824 1.395 . S
C1820 C1827 1.492 . S
C1821 C1820 1.393 . S
C1821 C1822 1.392 . S
C1821 H1832 0.930 . S
C1822 C1821 1.392 . S
C1822 C1823 1.386 . S
C1823 C1822 1.386 . S
C1823 C1825 1.395 . S
C1823 H1833 0.930 . S
C1824 C1820 1.395 . S
C1824 C1825 1.379 . S
C1824 H1834 0.930 . S
C1825 C1823 1.395 . S
C1825 C1824 1.379 . S
C1825 H1835 0.930 . S
C1826 O1804 1.264 . S
C1826 O1805 1.254 . S
C1827 Eu1763 2.848 . S
C1827 O1802 1.257 . S
C1827 O1807 1.249 . S
C1827 C1820 1.492 . S
H1828 C1811 0.930 . S
H1829 C1812 0.930 . S
H1830 C1813 0.930 . S
H1831 C1814 0.930 . S
H1832 C1821 0.930 . S
H1833 C1823 0.930 . S
H1834 C1824 0.930 . S
H1835 C1825 0.930 . S
H1836 C1842 0.930 . S
H1837 C1846 0.930 1_556 S
H1838 C1851 0.929 . S
H1839 C1849 0.929 . S
H1840 C1844 0.929 . S
H1841 C1850 0.929 . S
C1842 H1836 0.930 . S
C1842 C1843 1.367 . S
C1842 C1850 1.378 . S
C1843 C1842 1.367 . S
C1843 C1851 1.433 . S
C1844 H1840 0.929 . S
C1844 C1846 1.378 . S
C1844 C1848 1.350 . S
C1845 C1848 1.463 . S
C1845 C1850 1.350 . S
C1845 N1853 1.427 . S
C1846 H1837 0.930 1_554 S
C1846 C1844 1.378 . S
C1846 C1847 1.367 . S
C1847 C1846 1.367 . S
C1847 C1849 1.433 . S
C1848 C1844 1.350 . S
C1848 C1845 1.463 . S
C1848 N1852 1.427 . S
C1849 H1839 0.929 . S
C1849 C1847 1.433 . S
C1849 N1852 1.384 . S
C1850 H1841 0.929 . S
C1850 C1842 1.378 . S
C1850 C1845 1.350 . S
C1851 H1838 0.929 . S
C1851 C1843 1.433 . S
C1851 N1853 1.384 . S
N1852 C1848 1.427 . S
N1852 C1849 1.384 . S
N1853 C1845 1.427 . S
N1853 C1851 1.384 . S
H1854 C1860 0.930 . S
H1855 C1864 0.930 . S
H1856 C1869 0.929 . S
H1857 C1867 0.929 1_556 S
H1858 C1862 0.929 . S
H1859 C1868 0.929 . S
C1860 H1854 0.930 . S
C1860 C1861 1.367 . S
C1860 C1868 1.378 . S
C1861 C1860 1.367 . S
C1861 C1869 1.433 . S
C1862 H1858 0.929 . S
C1862 C1864 1.378 . S
C1862 C1866 1.350 . S
C1863 C1866 1.463 . S
C1863 C1868 1.350 . S
C1863 N1871 1.427 . S
C1864 H1855 0.930 . S
C1864 C1862 1.378 . S
C1864 C1865 1.367 . S
C1865 C1864 1.367 . S
C1865 C1867 1.433 . S
C1866 C1862 1.350 . S
C1866 C1863 1.463 . S
C1866 N1870 1.427 . S
C1867 H1857 0.929 1_554 S
C1867 C1865 1.433 . S
C1867 N1870 1.384 . S
C1868 H1859 0.929 . S
C1868 C1860 1.378 . S
C1868 C1863 1.350 . S
C1869 H1856 0.929 . S
C1869 C1861 1.433 . S
C1869 N1871 1.384 . S
N1870 C1866 1.427 . S
N1870 C1867 1.384 . S
N1871 C1863 1.427 . S
N1871 C1869 1.384 . S
H1872 C1878 0.930 . S
H1873 C1882 0.930 1_556 S
H1874 C1887 0.929 . S
H1875 C1885 0.929 . S
H1876 C1880 0.929 . S
H1877 C1886 0.929 . S
C1878 H1872 0.930 . S
C1878 C1879 1.367 . S
C1878 C1886 1.378 . S
C1879 C1878 1.367 . S
C1879 C1887 1.433 . S
C1880 H1876 0.929 . S
C1880 C1882 1.378 . S
C1880 C1884 1.350 . S
C1881 C1884 1.463 . S
C1881 C1886 1.350 . S
C1881 N1889 1.427 . S
C1882 H1873 0.930 1_554 S
C1882 C1880 1.378 . S
C1882 C1883 1.367 . S
C1883 C1882 1.367 . S
C1883 C1885 1.433 . S
C1884 C1880 1.350 . S
C1884 C1881 1.463 . S
C1884 N1888 1.427 . S
C1885 H1875 0.929 . S
C1885 C1883 1.433 . S
C1885 N1888 1.384 . S
C1886 H1877 0.929 . S
C1886 C1878 1.378 . S
C1886 C1881 1.350 . S
C1887 H1874 0.929 . S
C1887 C1879 1.433 . S
C1887 N1889 1.384 . S
N1888 C1884 1.427 . S
N1888 C1885 1.384 . S
N1889 C1881 1.427 . S
N1889 C1887 1.384 . S
H1890 C1896 0.930 . S
H1891 C1900 0.930 1_554 S
H1892 C1905 0.929 . S
H1893 C1903 0.929 . S
H1894 C1898 0.929 . S
H1895 C1904 0.929 . S
C1896 H1890 0.930 . S
C1896 C1897 1.367 . S
C1896 C1904 1.378 . S
C1897 C1896 1.367 . S
C1897 C1905 1.433 . S
C1898 H1894 0.929 . S
C1898 C1900 1.378 . S
C1898 C1902 1.350 . S
C1899 C1902 1.463 . S
C1899 C1904 1.350 . S
C1899 N1907 1.427 . S
C1900 H1891 0.930 1_556 S
C1900 C1898 1.378 . S
C1900 C1901 1.367 . S
C1901 C1900 1.367 . S
C1901 C1903 1.433 . S
C1902 C1898 1.350 . S
C1902 C1899 1.463 . S
C1902 N1906 1.427 . S
C1903 H1893 0.929 . S
C1903 C1901 1.433 . S
C1903 N1906 1.384 . S
C1904 H1895 0.929 . S
C1904 C1896 1.378 . S
C1904 C1899 1.350 . S
C1905 H1892 0.929 . S
C1905 C1897 1.433 . S
C1905 N1907 1.384 . S
N1906 C1902 1.427 . S
N1906 C1903 1.384 . S
N1907 C1899 1.427 . S
N1907 C1905 1.384 . S
H1908 C1914 0.930 . S
H1909 C1918 0.930 . S
H1910 C1923 0.929 . S
H1911 C1921 0.929 . S
H1912 C1916 0.929 . S
H1913 C1922 0.929 . S
C1914 H1908 0.930 . S
C1914 C1915 1.367 . S
C1914 C1922 1.378 . S
C1915 C1914 1.367 . S
C1915 C1923 1.433 . S
C1916 H1912 0.929 . S
C1916 C1918 1.378 . S
C1916 C1920 1.350 . S
C1917 C1920 1.463 . S
C1917 C1922 1.350 . S
C1917 N1925 1.427 . S
C1918 H1909 0.930 . S
C1918 C1916 1.378 . S
C1918 C1919 1.367 . S
C1919 C1918 1.367 . S
C1919 C1921 1.433 . S
C1920 C1916 1.350 . S
C1920 C1917 1.463 . S
C1920 N1924 1.427 . S
C1921 H1911 0.929 . S
C1921 C1919 1.433 . S
C1921 N1924 1.384 . S
C1922 H1913 0.929 . S
C1922 C1914 1.378 . S
C1922 C1917 1.350 . S
C1923 H1910 0.929 . S
C1923 C1915 1.433 . S
C1923 N1925 1.384 . S
N1924 C1920 1.427 . S
N1924 C1921 1.384 . S
N1925 C1917 1.427 . S
N1925 C1923 1.384 . S
H1926 C1932 0.930 . S
H1927 C1936 0.930 . S
H1928 C1941 0.929 . S
H1929 C1939 0.929 . S
H1930 C1934 0.929 . S
H1931 C1940 0.929 . S
C1932 H1926 0.930 . S
C1932 C1933 1.367 . S
C1932 C1940 1.378 . S
C1933 C1932 1.367 . S
C1933 C1941 1.433 . S
C1934 H1930 0.929 . S
C1934 C1936 1.378 . S
C1934 C1938 1.350 . S
C1935 C1938 1.463 . S
C1935 C1940 1.350 . S
C1935 N1943 1.427 . S
C1936 H1927 0.930 . S
C1936 C1934 1.378 . S
C1936 C1937 1.367 . S
C1937 C1936 1.367 . S
C1937 C1939 1.433 . S
C1938 C1934 1.350 . S
C1938 C1935 1.463 . S
C1938 N1942 1.427 . S
C1939 H1929 0.929 . S
C1939 C1937 1.433 . S
C1939 N1942 1.384 . S
C1940 H1931 0.929 . S
C1940 C1932 1.378 . S
C1940 C1935 1.350 . S
C1941 H1928 0.929 . S
C1941 C1933 1.433 . S
C1941 N1943 1.384 . S
N1942 C1938 1.427 . S
N1942 C1939 1.384 . S
N1943 C1935 1.427 . S
N1943 C1941 1.384 . S
H1944 C1950 0.930 . S
H1945 C1954 0.930 . S
H1946 C1959 0.929 . S
H1947 C1957 0.929 . S
H1948 C1952 0.929 . S
H1949 C1958 0.929 . S
C1950 H1944 0.930 . S
C1950 C1951 1.367 . S
C1950 C1958 1.378 . S
C1951 C1950 1.367 . S
C1951 C1959 1.433 . S
C1952 H1948 0.929 . S
C1952 C1954 1.378 . S
C1952 C1956 1.350 . S
C1953 C1956 1.463 . S
C1953 C1958 1.350 . S
C1953 N1961 1.427 . S
C1954 H1945 0.930 . S
C1954 C1952 1.378 . S
C1954 C1955 1.367 . S
C1955 C1954 1.367 . S
C1955 C1957 1.433 . S
C1956 C1952 1.350 . S
C1956 C1953 1.463 . S
C1956 N1960 1.427 . S
C1957 H1947 0.929 . S
C1957 C1955 1.433 . S
C1957 N1960 1.384 . S
C1958 H1949 0.929 . S
C1958 C1950 1.378 . S
C1958 C1953 1.350 . S
C1959 H1946 0.929 . S
C1959 C1951 1.433 . S
C1959 N1961 1.384 . S
N1960 C1956 1.427 . S
N1960 C1957 1.384 . S
N1961 C1953 1.427 . S
N1961 C1959 1.384 . S
H1962 C1968 0.930 . S
H1963 C1972 0.930 . S
H1964 C1977 0.929 . S
H1965 C1975 0.929 1_554 S
H1966 C1970 0.929 . S
H1967 C1976 0.929 . S
C1968 H1962 0.930 . S
C1968 C1969 1.367 . S
C1968 C1976 1.378 . S
C1969 C1968 1.367 . S
C1969 C1977 1.433 . S
C1970 H1966 0.929 . S
C1970 C1972 1.378 . S
C1970 C1974 1.350 . S
C1971 C1974 1.463 . S
C1971 C1976 1.350 . S
C1971 N1979 1.427 . S
C1972 H1963 0.930 . S
C1972 C1970 1.378 . S
C1972 C1973 1.367 . S
C1973 C1972 1.367 . S
C1973 C1975 1.433 . S
C1974 C1970 1.350 . S
C1974 C1971 1.463 . S
C1974 N1978 1.427 . S
C1975 H1965 0.929 1_556 S
C1975 C1973 1.433 . S
C1975 N1978 1.384 . S
C1976 H1967 0.929 . S
C1976 C1968 1.378 . S
C1976 C1971 1.350 . S
C1977 H1964 0.929 . S
C1977 C1969 1.433 . S
C1977 N1979 1.384 . S
N1978 C1974 1.427 . S
N1978 C1975 1.384 . S
N1979 C1971 1.427 . S
N1979 C1977 1.384 . S
H1980 C1986 0.930 . S
H1981 C1990 0.930 . S
H1982 C1995 0.929 . S
H1983 C1993 0.927 1_554 S
H1984 C1988 0.929 . S
H1985 C1994 0.929 . S
C1986 H1980 0.930 . S
C1986 C1987 1.367 . S
C1986 C1994 1.378 . S
C1987 C1986 1.367 . S
C1987 C1995 1.433 . S
C1988 H1984 0.929 . S
C1988 C1990 1.378 . S
C1988 C1992 1.350 . S
C1989 C1992 1.463 . S
C1989 C1994 1.350 . S
C1989 N1997 1.427 . S
C1990 H1981 0.930 . S
C1990 C1988 1.378 . S
C1990 C1991 1.367 . S
C1991 C1990 1.367 . S
C1991 C1993 1.433 . S
C1992 C1988 1.350 . S
C1992 C1989 1.463 . S
C1992 N1996 1.427 . S
C1993 H1983 0.927 1_556 S
C1993 C1991 1.433 . S
C1993 N1996 1.384 . S
C1994 H1985 0.929 . S
C1994 C1986 1.378 . S
C1994 C1989 1.350 . S
C1995 H1982 0.929 . S
C1995 C1987 1.433 . S
C1995 N1997 1.384 . S
N1996 C1992 1.427 . S
N1996 C1993 1.384 . S
N1997 C1989 1.427 . S
N1997 C1995 1.384 . S
H1998 C2004 0.930 . S
H1999 C2008 0.930 . S
H2000 C2013 0.929 . S
H2001 C2011 0.929 . S
H2002 C2006 0.929 . S
H2003 C2012 0.929 . S
C2004 H1998 0.930 . S
C2004 C2005 1.367 . S
C2004 C2012 1.378 . S
C2005 C2004 1.367 . S
C2005 C2013 1.433 . S
C2006 H2002 0.929 . S
C2006 C2008 1.378 . S
C2006 C2010 1.350 . S
C2007 C2010 1.463 . S
C2007 C2012 1.350 . S
C2007 N2015 1.427 . S
C2008 H1999 0.930 . S
C2008 C2006 1.378 . S
C2008 C2009 1.367 . S
C2009 C2008 1.367 . S
C2009 C2011 1.433 . S
C2010 C2006 1.350 . S
C2010 C2007 1.463 . S
C2010 N2014 1.427 . S
C2011 H2001 0.929 . S
C2011 C2009 1.433 . S
C2011 N2014 1.384 . S
C2012 H2003 0.929 . S
C2012 C2004 1.378 . S
C2012 C2007 1.350 . S
C2013 H2000 0.929 . S
C2013 C2005 1.433 . S
C2013 N2015 1.384 . S
N2014 C2010 1.427 . S
N2014 C2011 1.384 . S
N2015 C2007 1.427 . S
N2015 C2013 1.384 . S
H2016 C2022 0.930 . S
H2017 C2026 0.930 . S
H2018 C2031 0.929 . S
H2019 C2029 0.929 . S
H2020 C2024 0.929 . S
H2021 C2030 0.929 . S
C2022 H2016 0.930 . S
C2022 C2023 1.367 . S
C2022 C2030 1.378 . S
C2023 C2022 1.367 . S
C2023 C2031 1.433 . S
C2024 H2020 0.929 . S
C2024 C2026 1.378 . S
C2024 C2028 1.350 . S
C2025 C2028 1.463 . S
C2025 C2030 1.350 . S
C2025 N2033 1.427 . S
C2026 H2017 0.930 . S
C2026 C2024 1.378 . S
C2026 C2027 1.367 . S
C2027 C2026 1.367 . S
C2027 C2029 1.433 . S
C2028 C2024 1.350 . S
C2028 C2025 1.463 . S
C2028 N2032 1.427 . S
C2029 H2019 0.929 . S
C2029 C2027 1.433 . S
C2029 N2032 1.384 . S
C2030 H2021 0.929 . S
C2030 C2022 1.378 . S
C2030 C2025 1.350 . S
C2031 H2018 0.929 . S
C2031 C2023 1.433 . S
C2031 N2033 1.384 . S
N2032 C2028 1.427 . S
N2032 C2029 1.384 . S
N2033 C2025 1.427 . S
N2033 C2031 1.384 . S
H2034 C2040 0.930 . S
H2035 C2044 0.930 . S
H2036 C2049 0.929 . S
H2037 C2047 0.929 . S
H2038 C2042 0.929 . S
H2039 C2048 0.929 . S
C2040 H2034 0.930 . S
C2040 C2041 1.367 . S
C2040 C2048 1.378 . S
C2041 C2040 1.367 . S
C2041 C2049 1.433 . S
C2042 H2038 0.929 . S
C2042 C2044 1.378 . S
C2042 C2046 1.350 . S
C2043 C2046 1.463 . S
C2043 C2048 1.350 . S
C2043 N2051 1.427 . S
C2044 H2035 0.930 . S
C2044 C2042 1.378 . S
C2044 C2045 1.367 . S
C2045 C2044 1.367 . S
C2045 C2047 1.433 . S
C2046 C2042 1.350 . S
C2046 C2043 1.463 . S
C2046 N2050 1.427 . S
C2047 H2037 0.929 . S
C2047 C2045 1.433 . S
C2047 N2050 1.384 . S
C2048 H2039 0.929 . S
C2048 C2040 1.378 . S
C2048 C2043 1.350 . S
C2049 H2036 0.929 . S
C2049 C2041 1.433 . S
C2049 N2051 1.384 . S
N2050 C2046 1.427 . S
N2050 C2047 1.384 . S
N2051 C2043 1.427 . S
N2051 C2049 1.384 . S
H2052 C2058 0.930 . S
H2053 C2062 0.930 . S
H2054 C2067 0.929 1_655 S
H2055 C2065 0.929 . S
H2056 C2060 0.929 . S
H2057 C2066 0.929 . S
C2058 H2052 0.930 . S
C2058 C2059 1.367 . S
C2058 C2066 1.378 1_655 S
C2059 C2058 1.367 . S
C2059 C2067 1.433 1_655 S
C2060 H2056 0.929 . S
C2060 C2062 1.378 . S
C2060 C2064 1.350 . S
C2061 C2064 1.463 . S
C2061 C2066 1.350 . S
C2061 N2069 1.427 . S
C2062 H2053 0.930 . S
C2062 C2060 1.378 . S
C2062 C2063 1.367 . S
C2063 C2062 1.367 . S
C2063 C2065 1.433 . S
C2064 C2060 1.350 . S
C2064 C2061 1.463 . S
C2064 N2068 1.427 . S
C2065 H2055 0.929 . S
C2065 C2063 1.433 . S
C2065 N2068 1.384 . S
C2066 H2057 0.929 . S
C2066 C2058 1.378 1_455 S
C2066 C2061 1.350 . S
C2067 H2054 0.929 1_455 S
C2067 C2059 1.433 1_455 S
C2067 N2069 1.384 . S
N2068 C2064 1.427 . S
N2068 C2065 1.384 . S
N2069 C2061 1.427 . S
N2069 C2067 1.384 . S
H2070 C2076 0.930 . S
H2071 C2080 0.930 . S
H2072 C2085 0.929 . S
H2073 C2083 0.929 . S
H2074 C2078 0.929 . S
H2075 C2084 0.929 . S
C2076 H2070 0.930 . S
C2076 C2077 1.367 . S
C2076 C2084 1.378 . S
C2077 C2076 1.367 . S
C2077 C2085 1.433 . S
C2078 H2074 0.929 . S
C2078 C2080 1.378 . S
C2078 C2082 1.350 . S
C2079 C2082 1.463 . S
C2079 C2084 1.350 . S
C2079 N2087 1.427 . S
C2080 H2071 0.930 . S
C2080 C2078 1.378 . S
C2080 C2081 1.367 . S
C2081 C2080 1.367 . S
C2081 C2083 1.433 . S
C2082 C2078 1.350 . S
C2082 C2079 1.463 . S
C2082 N2086 1.427 . S
C2083 H2073 0.929 . S
C2083 C2081 1.433 . S
C2083 N2086 1.384 . S
C2084 H2075 0.929 . S
C2084 C2076 1.378 . S
C2084 C2079 1.350 . S
C2085 H2072 0.929 . S
C2085 C2077 1.433 . S
C2085 N2087 1.384 . S
N2086 C2082 1.427 . S
N2086 C2083 1.384 . S
N2087 C2079 1.427 . S
N2087 C2085 1.384 . S
H2088 C2094 0.930 . S
H2089 C2098 0.930 . S
H2090 C2103 0.929 1_545 S
H2091 C2101 0.929 . S
H2092 C2096 0.929 . S
H2093 C2102 0.929 . S
C2094 H2088 0.930 . S
C2094 C2095 1.367 . S
C2094 C2102 1.378 1_545 S
C2095 C2094 1.367 . S
C2095 C2103 1.433 1_545 S
C2096 H2092 0.929 . S
C2096 C2098 1.378 . S
C2096 C2100 1.350 . S
C2097 C2100 1.463 . S
C2097 C2102 1.350 . S
C2097 N2105 1.427 . S
C2098 H2089 0.930 . S
C2098 C2096 1.378 . S
C2098 C2099 1.367 . S
C2099 C2098 1.367 . S
C2099 C2101 1.433 . S
C2100 C2096 1.350 . S
C2100 C2097 1.463 . S
C2100 N2104 1.427 . S
C2101 H2091 0.929 . S
C2101 C2099 1.433 . S
C2101 N2104 1.384 . S
C2102 H2093 0.929 . S
C2102 C2094 1.378 1_565 S
C2102 C2097 1.350 . S
C2103 H2090 0.929 1_565 S
C2103 C2095 1.433 1_565 S
C2103 N2105 1.384 . S
N2104 C2100 1.427 . S
N2104 C2101 1.384 . S
N2105 C2097 1.427 . S
N2105 C2103 1.384 . S
H2106 C2112 0.930 . S
H2107 C2116 0.930 . S
H2108 C2121 0.929 . S
H2109 C2119 0.929 . S
H2110 C2114 0.929 . S
H2111 C2120 0.929 . S
C2112 H2106 0.930 . S
C2112 C2113 1.367 . S
C2112 C2120 1.378 . S
C2113 C2112 1.367 . S
C2113 C2121 1.433 . S
C2114 H2110 0.929 . S
C2114 C2116 1.378 . S
C2114 C2118 1.350 . S
C2115 C2118 1.463 . S
C2115 C2120 1.350 . S
C2115 N2123 1.427 . S
C2116 H2107 0.930 . S
C2116 C2114 1.378 . S
C2116 C2117 1.367 . S
C2117 C2116 1.367 . S
C2117 C2119 1.433 . S
C2118 C2114 1.350 . S
C2118 C2115 1.463 . S
C2118 N2122 1.427 . S
C2119 H2109 0.929 . S
C2119 C2117 1.433 . S
C2119 N2122 1.384 . S
C2120 H2111 0.929 . S
C2120 C2112 1.378 . S
C2120 C2115 1.350 . S
C2121 H2108 0.929 . S
C2121 C2113 1.433 . S
C2121 N2123 1.384 . S
N2122 C2118 1.427 . S
N2122 C2119 1.384 . S
N2123 C2115 1.427 . S
N2123 C2121 1.384 . S
H2124 C2130 0.930 . S
H2125 C2134 0.930 . S
H2126 C2139 0.929 . S
H2127 C2137 0.929 . S
H2128 C2132 0.929 . S
H2129 C2138 0.929 . S
C2130 H2124 0.930 . S
C2130 C2131 1.367 . S
C2130 C2138 1.378 . S
C2131 C2130 1.367 . S
C2131 C2139 1.433 . S
C2132 H2128 0.929 . S
C2132 C2134 1.378 . S
C2132 C2136 1.350 . S
C2133 C2136 1.463 . S
C2133 C2138 1.350 . S
C2133 N2141 1.427 . S
C2134 H2125 0.930 . S
C2134 C2132 1.378 . S
C2134 C2135 1.367 . S
C2135 C2134 1.367 . S
C2135 C2137 1.433 . S
C2136 C2132 1.350 . S
C2136 C2133 1.463 . S
C2136 N2140 1.427 . S
C2137 H2127 0.929 . S
C2137 C2135 1.433 . S
C2137 N2140 1.384 . S
C2138 H2129 0.929 . S
C2138 C2130 1.378 . S
C2138 C2133 1.350 . S
C2139 H2126 0.929 . S
C2139 C2131 1.433 . S
C2139 N2141 1.384 . S
N2140 C2136 1.427 . S
N2140 C2137 1.384 . S
N2141 C2133 1.427 . S
N2141 C2139 1.384 . S
H2142 C2148 0.930 . S
H2143 C2152 0.930 . S
H2144 C2157 0.929 . S
H2145 C2155 0.929 . S
H2146 C2150 0.929 . S
H2147 C2156 0.929 . S
C2148 H2142 0.930 . S
C2148 C2149 1.367 . S
C2148 C2156 1.378 . S
C2149 C2148 1.367 . S
C2149 C2157 1.433 . S
C2150 H2146 0.929 . S
C2150 C2152 1.378 . S
C2150 C2154 1.350 . S
C2151 C2154 1.463 . S
C2151 C2156 1.350 . S
C2151 N2159 1.427 . S
C2152 H2143 0.930 . S
C2152 C2150 1.378 . S
C2152 C2153 1.367 . S
C2153 C2152 1.367 . S
C2153 C2155 1.433 . S
C2154 C2150 1.350 . S
C2154 C2151 1.463 . S
C2154 N2158 1.427 . S
C2155 H2145 0.929 . S
C2155 C2153 1.433 . S
C2155 N2158 1.384 . S
C2156 H2147 0.929 . S
C2156 C2148 1.378 . S
C2156 C2151 1.350 . S
C2157 H2144 0.929 . S
C2157 C2149 1.433 . S
C2157 N2159 1.384 . S
N2158 C2154 1.427 . S
N2158 C2155 1.384 . S
N2159 C2151 1.427 . S
N2159 C2157 1.384 . S
H2160 C2166 0.930 . S
H2161 C2170 0.930 . S
H2162 C2175 0.929 . S
H2163 C2173 0.929 . S
H2164 C2168 0.929 . S
H2165 C2174 0.929 . S
C2166 H2160 0.930 . S
C2166 C2167 1.367 . S
C2166 C2174 1.378 . S
C2167 C2166 1.367 . S
C2167 C2175 1.433 . S
C2168 H2164 0.929 . S
C2168 C2170 1.378 . S
C2168 C2172 1.350 . S
C2169 C2172 1.463 . S
C2169 C2174 1.350 . S
C2169 N2177 1.427 . S
C2170 H2161 0.930 . S
C2170 C2168 1.378 . S
C2170 C2171 1.367 . S
C2171 C2170 1.367 . S
C2171 C2173 1.433 . S
C2172 C2168 1.350 . S
C2172 C2169 1.463 . S
C2172 N2176 1.427 . S
C2173 H2163 0.929 . S
C2173 C2171 1.433 . S
C2173 N2176 1.384 . S
C2174 H2165 0.929 . S
C2174 C2166 1.378 . S
C2174 C2169 1.350 . S
C2175 H2162 0.929 . S
C2175 C2167 1.433 . S
C2175 N2177 1.384 . S
N2176 C2172 1.427 . S
N2176 C2173 1.384 . S
N2177 C2169 1.427 . S
N2177 C2175 1.384 . S
H2178 C2184 0.930 . S
H2179 C2188 0.930 . S
H2180 C2193 0.929 . S
H2181 C2191 0.929 . S
H2182 C2186 0.929 . S
H2183 C2192 0.929 . S
C2184 H2178 0.930 . S
C2184 C2185 1.367 . S
C2184 C2192 1.378 . S
C2185 C2184 1.367 . S
C2185 C2193 1.433 . S
C2186 H2182 0.929 . S
C2186 C2188 1.378 . S
C2186 C2190 1.350 . S
C2187 C2190 1.463 . S
C2187 C2192 1.350 . S
C2187 N2195 1.427 . S
C2188 H2179 0.930 . S
C2188 C2186 1.378 . S
C2188 C2189 1.367 . S
C2189 C2188 1.367 . S
C2189 C2191 1.433 . S
C2190 C2186 1.350 . S
C2190 C2187 1.463 . S
C2190 N2194 1.427 . S
C2191 H2181 0.929 . S
C2191 C2189 1.433 . S
C2191 N2194 1.384 . S
C2192 H2183 0.929 . S
C2192 C2184 1.378 . S
C2192 C2187 1.350 . S
C2193 H2180 0.929 . S
C2193 C2185 1.433 . S
C2193 N2195 1.384 . S
N2194 C2190 1.427 . S
N2194 C2191 1.384 . S
N2195 C2187 1.427 . S
N2195 C2193 1.384 . S
H2196 C2202 0.930 . S
H2197 C2206 0.930 . S
H2198 C2211 0.929 . S
H2199 C2209 0.929 . S
H2200 C2204 0.929 . S
H2201 C2210 0.929 . S
C2202 H2196 0.930 . S
C2202 C2203 1.367 . S
C2202 C2210 1.378 . S
C2203 C2202 1.367 . S
C2203 C2211 1.433 . S
C2204 H2200 0.929 . S
C2204 C2206 1.378 . S
C2204 C2208 1.350 . S
C2205 C2208 1.463 . S
C2205 C2210 1.350 . S
C2205 N2213 1.427 . S
C2206 H2197 0.930 . S
C2206 C2204 1.378 . S
C2206 C2207 1.367 . S
C2207 C2206 1.367 . S
C2207 C2209 1.433 . S
C2208 C2204 1.350 . S
C2208 C2205 1.463 . S
C2208 N2212 1.427 . S
C2209 H2199 0.929 . S
C2209 C2207 1.433 . S
C2209 N2212 1.384 . S
C2210 H2201 0.929 . S
C2210 C2202 1.378 . S
C2210 C2205 1.350 . S
C2211 H2198 0.929 . S
C2211 C2203 1.433 . S
C2211 N2213 1.384 . S
N2212 C2208 1.427 . S
N2212 C2209 1.384 . S
N2213 C2205 1.427 . S
N2213 C2211 1.384 . S
H2214 C2220 0.930 . S
H2215 C2224 0.930 . S
H2216 C2229 0.929 . S
H2217 C2227 0.929 . S
H2218 C2222 0.929 . S
H2219 C2228 0.929 . S
C2220 H2214 0.930 . S
C2220 C2221 1.367 . S
C2220 C2228 1.378 1_545 S
C2221 C2220 1.367 . S
C2221 C2229 1.433 . S
C2222 H2218 0.929 . S
C2222 C2224 1.378 . S
C2222 C2226 1.350 . S
C2223 C2226 1.463 . S
C2223 C2228 1.350 . S
C2223 N2231 1.427 . S
C2224 H2215 0.930 . S
C2224 C2222 1.378 . S
C2224 C2225 1.367 . S
C2225 C2224 1.367 . S
C2225 C2227 1.433 . S
C2226 C2222 1.350 . S
C2226 C2223 1.463 . S
C2226 N2230 1.427 . S
C2227 H2217 0.929 . S
C2227 C2225 1.433 . S
C2227 N2230 1.384 . S
C2228 H2219 0.929 . S
C2228 C2220 1.378 1_565 S
C2228 C2223 1.350 . S
C2229 H2216 0.929 . S
C2229 C2221 1.433 . S
C2229 N2231 1.384 1_545 S
N2230 C2226 1.427 . S
N2230 C2227 1.384 . S
N2231 C2223 1.427 . S
N2231 C2229 1.384 1_565 S
H2232 C2238 0.930 . S
H2233 C2242 0.930 . S
H2234 C2247 0.929 . S
H2235 C2245 0.929 . S
H2236 C2240 0.929 . S
H2237 C2246 0.929 . S
C2238 H2232 0.930 . S
C2238 C2239 1.367 1_455 S
C2238 C2246 1.378 . S
C2239 C2238 1.367 1_655 S
C2239 C2247 1.433 . S
C2240 H2236 0.929 . S
C2240 C2242 1.378 . S
C2240 C2244 1.350 . S
C2241 C2244 1.463 . S
C2241 C2246 1.350 . S
C2241 N2249 1.427 . S
C2242 H2233 0.930 . S
C2242 C2240 1.378 . S
C2242 C2243 1.367 . S
C2243 C2242 1.367 . S
C2243 C2245 1.433 . S
C2244 C2240 1.350 . S
C2244 C2241 1.463 . S
C2244 N2248 1.427 . S
C2245 H2235 0.929 . S
C2245 C2243 1.433 . S
C2245 N2248 1.384 . S
C2246 H2237 0.929 . S
C2246 C2238 1.378 . S
C2246 C2241 1.350 . S
C2247 H2234 0.929 . S
C2247 C2239 1.433 . S
C2247 N2249 1.384 1_655 S
N2248 C2244 1.427 . S
N2248 C2245 1.384 . S
N2249 C2241 1.427 . S
N2249 C2247 1.384 1_455 S
H2250 C2256 0.930 . S
H2251 C2260 0.930 . S
H2252 C2265 0.929 . S
H2253 C2263 0.929 . S
H2254 C2258 0.929 . S
H2255 C2264 0.929 . S
C2256 H2250 0.930 . S
C2256 C2257 1.367 . S
C2256 C2264 1.378 . S
C2257 C2256 1.367 . S
C2257 C2265 1.433 . S
C2258 H2254 0.929 . S
C2258 C2260 1.378 . S
C2258 C2262 1.350 . S
C2259 C2262 1.463 . S
C2259 C2264 1.350 . S
C2259 N2267 1.427 . S
C2260 H2251 0.930 . S
C2260 C2258 1.378 . S
C2260 C2261 1.367 . S
C2261 C2260 1.367 . S
C2261 C2263 1.433 . S
C2262 C2258 1.350 . S
C2262 C2259 1.463 . S
C2262 N2266 1.427 . S
C2263 H2253 0.929 . S
C2263 C2261 1.433 . S
C2263 N2266 1.384 . S
C2264 H2255 0.929 . S
C2264 C2256 1.378 . S
C2264 C2259 1.350 . S
C2265 H2252 0.929 . S
C2265 C2257 1.433 . S
C2265 N2267 1.384 . S
N2266 C2262 1.427 . S
N2266 C2263 1.384 . S
N2267 C2259 1.427 . S
N2267 C2265 1.384 . S
H2268 C2274 0.930 . S
H2269 C2278 0.930 . S
H2270 C2283 0.929 . S
H2271 C2281 0.929 . S
H2272 C2276 0.929 . S
H2273 C2282 0.929 . S
C2274 H2268 0.930 . S
C2274 C2275 1.367 . S
C2274 C2282 1.378 . S
C2275 C2274 1.367 . S
C2275 C2283 1.433 . S
C2276 H2272 0.929 . S
C2276 C2278 1.378 . S
C2276 C2280 1.350 . S
C2277 C2280 1.463 . S
C2277 C2282 1.350 . S
C2277 N2285 1.427 . S
C2278 H2269 0.930 . S
C2278 C2276 1.378 . S
C2278 C2279 1.367 . S
C2279 C2278 1.367 . S
C2279 C2281 1.433 . S
C2280 C2276 1.350 . S
C2280 C2277 1.463 . S
C2280 N2284 1.427 . S
C2281 H2271 0.929 . S
C2281 C2279 1.433 . S
C2281 N2284 1.384 . S
C2282 H2273 0.929 . S
C2282 C2274 1.378 . S
C2282 C2277 1.350 . S
C2283 H2270 0.929 . S
C2283 C2275 1.433 . S
C2283 N2285 1.384 . S
N2284 C2280 1.427 . S
N2284 C2281 1.384 . S
N2285 C2277 1.427 . S
N2285 C2283 1.384 . S
H2286 C2292 0.930 . S
H2287 C2296 0.930 . S
H2288 C2301 0.929 . S
H2289 C2299 0.929 . S
H2290 C2294 0.929 . S
H2291 C2300 0.929 . S
C2292 H2286 0.930 . S
C2292 C2293 1.367 . S
C2292 C2300 1.378 . S
C2293 C2292 1.367 . S
C2293 C2301 1.433 . S
C2294 H2290 0.929 . S
C2294 C2296 1.378 . S
C2294 C2298 1.350 . S
C2295 C2298 1.463 . S
C2295 C2300 1.350 . S
C2295 N2303 1.427 . S
C2296 H2287 0.930 . S
C2296 C2294 1.378 . S
C2296 C2297 1.367 . S
C2297 C2296 1.367 . S
C2297 C2299 1.433 . S
C2298 C2294 1.350 . S
C2298 C2295 1.463 . S
C2298 N2302 1.427 . S
C2299 H2289 0.929 . S
C2299 C2297 1.433 . S
C2299 N2302 1.384 . S
C2300 H2291 0.929 . S
C2300 C2292 1.378 . S
C2300 C2295 1.350 . S
C2301 H2288 0.929 . S
C2301 C2293 1.433 . S
C2301 N2303 1.384 . S
N2302 C2298 1.427 . S
N2302 C2299 1.384 . S
N2303 C2295 1.427 . S
N2303 C2301 1.384 . S
H2304 C2310 0.930 . S
H2305 C2314 0.930 . S
H2306 C2319 0.929 . S
H2307 C2317 0.929 . S
H2308 C2312 0.929 . S
H2309 C2318 0.929 . S
C2310 H2304 0.930 . S
C2310 C2311 1.367 . S
C2310 C2318 1.378 . S
C2311 C2310 1.367 . S
C2311 C2319 1.433 . S
C2312 H2308 0.929 . S
C2312 C2314 1.378 . S
C2312 C2316 1.350 . S
C2313 C2316 1.463 . S
C2313 C2318 1.350 . S
C2313 N2321 1.427 . S
C2314 H2305 0.930 . S
C2314 C2312 1.378 . S
C2314 C2315 1.367 . S
C2315 C2314 1.367 . S
C2315 C2317 1.433 . S
C2316 C2312 1.350 . S
C2316 C2313 1.463 . S
C2316 N2320 1.427 . S
C2317 H2307 0.929 . S
C2317 C2315 1.433 . S
C2317 N2320 1.384 . S
C2318 H2309 0.929 . S
C2318 C2310 1.378 . S
C2318 C2313 1.350 . S
C2319 H2306 0.929 . S
C2319 C2311 1.433 . S
C2319 N2321 1.384 . S
N2320 C2316 1.427 . S
N2320 C2317 1.384 . S
N2321 C2313 1.427 . S
N2321 C2319 1.384 . S
H2322 C2328 0.930 . S
H2323 C2332 0.930 . S
H2324 C2337 0.929 . S
H2325 C2335 0.929 . S
H2326 C2330 0.929 . S
H2327 C2336 0.929 . S
C2328 H2322 0.930 . S
C2328 C2329 1.367 . S
C2328 C2336 1.378 1_565 S
C2329 C2328 1.367 . S
C2329 C2337 1.433 1_565 S
C2330 H2326 0.929 . S
C2330 C2332 1.378 . S
C2330 C2334 1.350 . S
C2331 C2334 1.463 . S
C2331 C2336 1.350 . S
C2331 N2339 1.427 . S
C2332 H2323 0.930 . S
C2332 C2330 1.378 . S
C2332 C2333 1.367 . S
C2333 C2332 1.367 . S
C2333 C2335 1.433 . S
C2334 C2330 1.350 . S
C2334 C2331 1.463 . S
C2334 N2338 1.427 . S
C2335 H2325 0.929 . S
C2335 C2333 1.433 . S
C2335 N2338 1.384 . S
C2336 H2327 0.929 . S
C2336 C2328 1.378 1_545 S
C2336 C2331 1.350 . S
C2337 H2324 0.929 . S
C2337 C2329 1.433 1_545 S
C2337 N2339 1.384 . S
N2338 C2334 1.427 . S
N2338 C2335 1.384 . S
N2339 C2331 1.427 . S
N2339 C2337 1.384 . S
H2340 C2346 0.930 . S
H2341 C2350 0.930 . S
H2342 C2355 0.929 . S
H2343 C2353 0.929 . S
H2344 C2348 0.929 . S
H2345 C2354 0.929 . S
C2346 H2340 0.930 . S
C2346 C2347 1.367 . S
C2346 C2354 1.378 1_455 S
C2347 C2346 1.367 . S
C2347 C2355 1.433 1_455 S
C2348 H2344 0.929 . S
C2348 C2350 1.378 . S
C2348 C2352 1.350 . S
C2349 C2352 1.463 . S
C2349 C2354 1.350 . S
C2349 N2357 1.427 . S
C2350 H2341 0.930 . S
C2350 C2348 1.378 . S
C2350 C2351 1.367 . S
C2351 C2350 1.367 . S
C2351 C2353 1.433 . S
C2352 C2348 1.350 . S
C2352 C2349 1.463 . S
C2352 N2356 1.427 . S
C2353 H2343 0.929 . S
C2353 C2351 1.433 . S
C2353 N2356 1.384 . S
C2354 H2345 0.929 . S
C2354 C2346 1.378 1_655 S
C2354 C2349 1.350 . S
C2355 H2342 0.929 . S
C2355 C2347 1.433 1_655 S
C2355 N2357 1.384 . S
N2356 C2352 1.427 . S
N2356 C2353 1.384 . S
N2357 C2349 1.427 . S
N2357 C2355 1.384 . S
H2358 C2364 0.930 . S
H2359 C2368 0.930 . S
H2360 C2373 0.929 . S
H2361 C2371 0.929 . S
H2362 C2366 0.929 . S
H2363 C2372 0.929 . S
C2364 H2358 0.930 . S
C2364 C2365 1.367 . S
C2364 C2372 1.378 . S
C2365 C2364 1.367 . S
C2365 C2373 1.433 . S
C2366 H2362 0.929 . S
C2366 C2368 1.378 . S
C2366 C2370 1.350 . S
C2367 C2370 1.463 . S
C2367 C2372 1.350 . S
C2367 N2375 1.427 . S
C2368 H2359 0.930 . S
C2368 C2366 1.378 . S
C2368 C2369 1.367 . S
C2369 C2368 1.367 . S
C2369 C2371 1.433 . S
C2370 C2366 1.350 . S
C2370 C2367 1.463 . S
C2370 N2374 1.427 . S
C2371 H2361 0.929 . S
C2371 C2369 1.433 . S
C2371 N2374 1.384 . S
C2372 H2363 0.929 . S
C2372 C2364 1.378 . S
C2372 C2367 1.350 . S
C2373 H2360 0.929 . S
C2373 C2365 1.433 . S
C2373 N2375 1.384 . S
N2374 C2370 1.427 . S
N2374 C2371 1.384 . S
N2375 C2367 1.427 . S
N2375 C2373 1.384 . S
H2376 C2382 0.930 . S
H2377 C2386 0.930 . S
H2378 C2391 0.929 . S
H2379 C2389 0.929 . S
H2380 C2384 0.929 . S
H2381 C2390 0.929 . S
C2382 H2376 0.930 . S
C2382 C2383 1.367 . S
C2382 C2390 1.378 1_455 S
C2383 C2382 1.367 . S
C2383 C2391 1.433 1_455 S
C2384 H2380 0.929 . S
C2384 C2386 1.378 . S
C2384 C2388 1.350 . S
C2385 C2388 1.463 . S
C2385 C2390 1.350 . S
C2385 N2393 1.427 . S
C2386 H2377 0.930 . S
C2386 C2384 1.378 . S
C2386 C2387 1.367 . S
C2387 C2386 1.367 . S
C2387 C2389 1.433 . S
C2388 C2384 1.350 . S
C2388 C2385 1.463 . S
C2388 N2392 1.427 . S
C2389 H2379 0.929 . S
C2389 C2387 1.433 . S
C2389 N2392 1.384 . S
C2390 H2381 0.929 . S
C2390 C2382 1.378 1_655 S
C2390 C2385 1.350 . S
C2391 H2378 0.929 . S
C2391 C2383 1.433 1_655 S
C2391 N2393 1.384 . S
N2392 C2388 1.427 . S
N2392 C2389 1.384 . S
N2393 C2385 1.427 . S
N2393 C2391 1.384 . S
H2394 C2400 0.930 . S
H2395 C2404 0.930 . S
H2396 C2409 0.929 . S
H2397 C2407 0.929 . S
H2398 C2402 0.929 . S
H2399 C2408 0.929 . S
C2400 H2394 0.930 . S
C2400 C2401 1.367 . S
C2400 C2408 1.378 . S
C2401 C2400 1.367 . S
C2401 C2409 1.433 . S
C2402 H2398 0.929 . S
C2402 C2404 1.378 . S
C2402 C2406 1.350 . S
C2403 C2406 1.463 . S
C2403 C2408 1.350 . S
C2403 N2411 1.427 . S
C2404 H2395 0.930 . S
C2404 C2402 1.378 . S
C2404 C2405 1.367 . S
C2405 C2404 1.367 . S
C2405 C2407 1.433 . S
C2406 C2402 1.350 . S
C2406 C2403 1.463 . S
C2406 N2410 1.427 . S
C2407 H2397 0.929 . S
C2407 C2405 1.433 . S
C2407 N2410 1.384 . S
C2408 H2399 0.929 . S
C2408 C2400 1.378 . S
C2408 C2403 1.350 . S
C2409 H2396 0.929 . S
C2409 C2401 1.433 . S
C2409 N2411 1.384 . S
N2410 C2406 1.427 . S
N2410 C2407 1.384 . S
N2411 C2403 1.427 . S
N2411 C2409 1.384 . S
H2412 C2418 0.930 . S
H2413 C2422 0.930 . S
H2414 C2427 0.929 1_565 S
H2415 C2425 0.929 . S
H2416 C2420 0.929 . S
H2417 C2426 0.929 . S
C2418 H2412 0.930 . S
C2418 C2419 1.367 . S
C2418 C2426 1.378 1_565 S
C2419 C2418 1.367 . S
C2419 C2427 1.433 1_565 S
C2420 H2416 0.929 . S
C2420 C2422 1.378 . S
C2420 C2424 1.350 . S
C2421 C2424 1.463 . S
C2421 C2426 1.350 . S
C2421 N2429 1.427 . S
C2422 H2413 0.930 . S
C2422 C2420 1.378 . S
C2422 C2423 1.367 . S
C2423 C2422 1.367 . S
C2423 C2425 1.433 . S
C2424 C2420 1.350 . S
C2424 C2421 1.463 . S
C2424 N2428 1.427 . S
C2425 H2415 0.929 . S
C2425 C2423 1.433 . S
C2425 N2428 1.384 . S
C2426 H2417 0.929 . S
C2426 C2418 1.378 1_545 S
C2426 C2421 1.350 . S
C2427 H2414 0.929 1_545 S
C2427 C2419 1.433 1_545 S
C2427 N2429 1.384 . S
N2428 C2424 1.427 . S
N2428 C2425 1.384 . S
N2429 C2421 1.427 . S
N2429 C2427 1.384 . S
H2430 C2436 0.930 . S
H2431 C2440 0.930 . S
H2432 C2445 0.929 . S
H2433 C2443 0.929 . S
H2434 C2438 0.929 . S
H2435 C2444 0.929 . S
C2436 H2430 0.930 . S
C2436 C2437 1.367 . S
C2436 C2444 1.378 . S
C2437 C2436 1.367 . S
C2437 C2445 1.433 . S
C2438 H2434 0.929 . S
C2438 C2440 1.378 . S
C2438 C2442 1.350 . S
C2439 C2442 1.463 . S
C2439 C2444 1.350 . S
C2439 N2447 1.427 . S
C2440 H2431 0.930 . S
C2440 C2438 1.378 . S
C2440 C2441 1.367 . S
C2441 C2440 1.367 . S
C2441 C2443 1.433 . S
C2442 C2438 1.350 . S
C2442 C2439 1.463 . S
C2442 N2446 1.427 . S
C2443 H2433 0.929 . S
C2443 C2441 1.433 . S
C2443 N2446 1.384 . S
C2444 H2435 0.929 . S
C2444 C2436 1.378 . S
C2444 C2439 1.350 . S
C2445 H2432 0.929 . S
C2445 C2437 1.433 . S
C2445 N2447 1.384 . S
N2446 C2442 1.427 . S
N2446 C2443 1.384 . S
N2447 C2439 1.427 . S
N2447 C2445 1.384 . S
H2448 C2454 0.930 . S
H2449 C2458 0.930 . S
H2450 C2463 0.929 . S
H2451 C2461 0.929 . S
H2452 C2456 0.929 . S
H2453 C2462 0.929 . S
C2454 H2448 0.930 . S
C2454 C2455 1.367 . S
C2454 C2462 1.378 . S
C2455 C2454 1.367 . S
C2455 C2463 1.433 . S
C2456 H2452 0.929 . S
C2456 C2458 1.378 . S
C2456 C2460 1.350 . S
C2457 C2460 1.463 . S
C2457 C2462 1.350 . S
C2457 N2465 1.427 . S
C2458 H2449 0.930 . S
C2458 C2456 1.378 . S
C2458 C2459 1.367 . S
C2459 C2458 1.367 . S
C2459 C2461 1.433 . S
C2460 C2456 1.350 . S
C2460 C2457 1.463 . S
C2460 N2464 1.427 . S
C2461 H2451 0.929 . S
C2461 C2459 1.433 . S
C2461 N2464 1.384 . S
C2462 H2453 0.929 . S
C2462 C2454 1.378 . S
C2462 C2457 1.350 . S
C2463 H2450 0.929 . S
C2463 C2455 1.433 . S
C2463 N2465 1.384 . S
N2464 C2460 1.427 . S
N2464 C2461 1.384 . S
N2465 C2457 1.427 . S
N2465 C2463 1.384 . S
H2466 C2472 0.930 . S
H2467 C2476 0.930 . S
H2468 C2481 0.929 . S
H2469 C2479 0.929 . S
H2470 C2474 0.929 . S
H2471 C2480 0.929 . S
C2472 H2466 0.930 . S
C2472 C2473 1.367 . S
C2472 C2480 1.378 . S
C2473 C2472 1.367 . S
C2473 C2481 1.433 . S
C2474 H2470 0.929 . S
C2474 C2476 1.378 . S
C2474 C2478 1.350 . S
C2475 C2478 1.463 . S
C2475 C2480 1.350 . S
C2475 N2483 1.427 . S
C2476 H2467 0.930 . S
C2476 C2474 1.378 . S
C2476 C2477 1.367 . S
C2477 C2476 1.367 . S
C2477 C2479 1.433 . S
C2478 C2474 1.350 . S
C2478 C2475 1.463 . S
C2478 N2482 1.427 . S
C2479 H2469 0.929 . S
C2479 C2477 1.433 . S
C2479 N2482 1.384 . S
C2480 H2471 0.929 . S
C2480 C2472 1.378 . S
C2480 C2475 1.350 . S
C2481 H2468 0.929 . S
C2481 C2473 1.433 . S
C2481 N2483 1.384 . S
N2482 C2478 1.427 . S
N2482 C2479 1.384 . S
N2483 C2475 1.427 . S
N2483 C2481 1.384 . S
H2484 C2490 0.930 . S
H2485 C2494 0.930 . S
H2486 C2499 0.929 . S
H2487 C2497 0.929 1_545 S
H2488 C2492 0.929 . S
H2489 C2498 0.929 . S
C2490 H2484 0.930 . S
C2490 C2491 1.367 . S
C2490 C2498 1.378 . S
C2491 C2490 1.367 . S
C2491 C2499 1.433 . S
C2492 H2488 0.929 . S
C2492 C2494 1.378 . S
C2492 C2496 1.350 . S
C2493 C2496 1.463 . S
C2493 C2498 1.350 . S
C2493 N2501 1.427 . S
C2494 H2485 0.930 . S
C2494 C2492 1.378 . S
C2494 C2495 1.367 . S
C2495 C2494 1.367 . S
C2495 C2497 1.433 . S
C2496 C2492 1.350 . S
C2496 C2493 1.463 . S
C2496 N2500 1.427 . S
C2497 H2487 0.929 1_565 S
C2497 C2495 1.433 . S
C2497 N2500 1.384 . S
C2498 H2489 0.929 . S
C2498 C2490 1.378 . S
C2498 C2493 1.350 . S
C2499 H2486 0.929 . S
C2499 C2491 1.433 . S
C2499 N2501 1.384 . S
N2500 C2496 1.427 . S
N2500 C2497 1.384 . S
N2501 C2493 1.427 . S
N2501 C2499 1.384 . S
H2502 C2508 0.930 . S
H2503 C2512 0.930 1_655 S
H2504 C2517 0.929 . S
H2505 C2515 0.929 . S
H2506 C2510 0.929 1_655 S
H2507 C2516 0.929 . S
C2508 H2502 0.930 . S
C2508 C2509 1.367 . S
C2508 C2516 1.378 . S
C2509 C2508 1.367 . S
C2509 C2517 1.433 . S
C2510 H2506 0.929 1_455 S
C2510 C2512 1.378 . S
C2510 C2514 1.350 . S
C2511 C2514 1.463 . S
C2511 C2516 1.350 . S
C2511 N2519 1.427 . S
C2512 H2503 0.930 1_455 S
C2512 C2510 1.378 . S
C2512 C2513 1.367 . S
C2513 C2512 1.367 . S
C2513 C2515 1.433 . S
C2514 C2510 1.350 . S
C2514 C2511 1.463 . S
C2514 N2518 1.427 . S
C2515 H2505 0.929 . S
C2515 C2513 1.433 . S
C2515 N2518 1.384 . S
C2516 H2507 0.929 . S
C2516 C2508 1.378 . S
C2516 C2511 1.350 . S
C2517 H2504 0.929 . S
C2517 C2509 1.433 . S
C2517 N2519 1.384 . S
N2518 C2514 1.427 . S
N2518 C2515 1.384 . S
N2519 C2511 1.427 . S
N2519 C2517 1.384 . S
H2520 C2526 0.930 . S
H2521 C2530 0.930 . S
H2522 C2535 0.929 . S
H2523 C2533 0.929 . S
H2524 C2528 0.929 . S
H2525 C2534 0.929 . S
C2526 H2520 0.930 . S
C2526 C2527 1.367 . S
C2526 C2534 1.378 . S
C2527 C2526 1.367 . S
C2527 C2535 1.433 . S
C2528 H2524 0.929 . S
C2528 C2530 1.378 . S
C2528 C2532 1.350 . S
C2529 C2532 1.463 . S
C2529 C2534 1.350 . S
C2529 N2537 1.427 . S
C2530 H2521 0.930 . S
C2530 C2528 1.378 . S
C2530 C2531 1.367 . S
C2531 C2530 1.367 . S
C2531 C2533 1.433 . S
C2532 C2528 1.350 . S
C2532 C2529 1.463 . S
C2532 N2536 1.427 . S
C2533 H2523 0.929 . S
C2533 C2531 1.433 . S
C2533 N2536 1.384 . S
C2534 H2525 0.929 . S
C2534 C2526 1.378 . S
C2534 C2529 1.350 . S
C2535 H2522 0.929 . S
C2535 C2527 1.433 . S
C2535 N2537 1.384 . S
N2536 C2532 1.427 . S
N2536 C2533 1.384 . S
N2537 C2529 1.427 . S
N2537 C2535 1.384 . S
H2538 C2544 0.930 . S
H2539 C2548 0.930 . S
H2540 C2553 0.929 . S
H2541 C2551 0.929 . S
H2542 C2546 0.929 . S
H2543 C2552 0.929 . S
C2544 H2538 0.930 . S
C2544 C2545 1.367 . S
C2544 C2552 1.378 . S
C2545 C2544 1.367 . S
C2545 C2553 1.433 . S
C2546 H2542 0.929 . S
C2546 C2548 1.378 . S
C2546 C2550 1.350 . S
C2547 C2550 1.463 . S
C2547 C2552 1.350 . S
C2547 N2555 1.427 . S
C2548 H2539 0.930 . S
C2548 C2546 1.378 . S
C2548 C2549 1.367 . S
C2549 C2548 1.367 . S
C2549 C2551 1.433 . S
C2550 C2546 1.350 . S
C2550 C2547 1.463 . S
C2550 N2554 1.427 . S
C2551 H2541 0.929 . S
C2551 C2549 1.433 . S
C2551 N2554 1.384 . S
C2552 H2543 0.929 . S
C2552 C2544 1.378 . S
C2552 C2547 1.350 . S
C2553 H2540 0.929 . S
C2553 C2545 1.433 . S
C2553 N2555 1.384 . S
N2554 C2550 1.427 . S
N2554 C2551 1.384 . S
N2555 C2547 1.427 . S
N2555 C2553 1.384 . S
H2556 C2562 0.930 . S
H2557 C2566 0.930 . S
H2558 C2571 0.929 . S
H2559 C2569 0.929 . S
H2560 C2564 0.929 . S
H2561 C2570 0.929 . S
C2562 H2556 0.930 . S
C2562 C2563 1.367 . S
C2562 C2570 1.378 . S
C2563 C2562 1.367 . S
C2563 C2571 1.433 . S
C2564 H2560 0.929 . S
C2564 C2566 1.378 . S
C2564 C2568 1.350 . S
C2565 C2568 1.463 . S
C2565 C2570 1.350 . S
C2565 N2573 1.427 . S
C2566 H2557 0.930 . S
C2566 C2564 1.378 . S
C2566 C2567 1.367 . S
C2567 C2566 1.367 . S
C2567 C2569 1.433 . S
C2568 C2564 1.350 . S
C2568 C2565 1.463 . S
C2568 N2572 1.427 . S
C2569 H2559 0.929 . S
C2569 C2567 1.433 . S
C2569 N2572 1.384 . S
C2570 H2561 0.929 . S
C2570 C2562 1.378 . S
C2570 C2565 1.350 . S
C2571 H2558 0.929 . S
C2571 C2563 1.433 . S
C2571 N2573 1.384 . S
N2572 C2568 1.427 . S
N2572 C2569 1.384 . S
N2573 C2565 1.427 . S
N2573 C2571 1.384 . S
H2574 C2580 0.930 . S
H2575 C2584 0.930 1_565 S
H2576 C2589 0.929 . S
H2577 C2587 0.929 . S
H2578 C2582 0.929 . S
H2579 C2588 0.929 . S
C2580 H2574 0.930 . S
C2580 C2581 1.367 . S
C2580 C2588 1.378 . S
C2581 C2580 1.367 . S
C2581 C2589 1.433 . S
C2582 H2578 0.929 . S
C2582 C2584 1.378 . S
C2582 C2586 1.350 . S
C2583 C2586 1.463 . S
C2583 C2588 1.350 . S
C2583 N2591 1.427 . S
C2584 H2575 0.930 1_545 S
C2584 C2582 1.378 . S
C2584 C2585 1.367 . S
C2585 C2584 1.367 . S
C2585 C2587 1.433 . S
C2586 C2582 1.350 . S
C2586 C2583 1.463 . S
C2586 N2590 1.427 . S
C2587 H2577 0.929 . S
C2587 C2585 1.433 . S
C2587 N2590 1.384 . S
C2588 H2579 0.929 . S
C2588 C2580 1.378 . S
C2588 C2583 1.350 . S
C2589 H2576 0.929 . S
C2589 C2581 1.433 . S
C2589 N2591 1.384 . S
N2590 C2586 1.427 . S
N2590 C2587 1.384 . S
N2591 C2583 1.427 . S
N2591 C2589 1.384 . S
H2592 C2598 0.930 . S
H2593 C2602 0.930 . S
H2594 C2607 0.929 . S
H2595 C2605 0.929 . S
H2596 C2600 0.929 . S
H2597 C2606 0.929 . S
C2598 H2592 0.930 . S
C2598 C2599 1.367 . S
C2598 C2606 1.378 . S
C2599 C2598 1.367 . S
C2599 C2607 1.433 . S
C2600 H2596 0.929 . S
C2600 C2602 1.378 . S
C2600 C2604 1.350 . S
C2601 C2604 1.463 . S
C2601 C2606 1.350 . S
C2601 N2609 1.427 . S
C2602 H2593 0.930 . S
C2602 C2600 1.378 . S
C2602 C2603 1.367 . S
C2603 C2602 1.367 . S
C2603 C2605 1.433 . S
C2604 C2600 1.350 . S
C2604 C2601 1.463 . S
C2604 N2608 1.427 . S
C2605 H2595 0.929 . S
C2605 C2603 1.433 . S
C2605 N2608 1.384 . S
C2606 H2597 0.929 . S
C2606 C2598 1.378 . S
C2606 C2601 1.350 . S
C2607 H2594 0.929 . S
C2607 C2599 1.433 . S
C2607 N2609 1.384 . S
N2608 C2604 1.427 . S
N2608 C2605 1.384 . S
N2609 C2601 1.427 . S
N2609 C2607 1.384 . S
H2610 C2616 0.930 . S
H2611 C2620 0.930 . S
H2612 C2625 0.929 . S
H2613 C2623 0.929 . S
H2614 C2618 0.929 . S
H2615 C2624 0.929 . S
C2616 H2610 0.930 . S
C2616 C2617 1.367 . S
C2616 C2624 1.378 . S
C2617 C2616 1.367 . S
C2617 C2625 1.433 . S
C2618 H2614 0.929 . S
C2618 C2620 1.378 . S
C2618 C2622 1.350 . S
C2619 C2622 1.463 . S
C2619 C2624 1.350 . S
C2619 N2627 1.427 . S
C2620 H2611 0.930 . S
C2620 C2618 1.378 . S
C2620 C2621 1.367 . S
C2621 C2620 1.367 . S
C2621 C2623 1.433 . S
C2622 C2618 1.350 . S
C2622 C2619 1.463 . S
C2622 N2626 1.427 . S
C2623 H2613 0.929 . S
C2623 C2621 1.433 . S
C2623 N2626 1.384 . S
C2624 H2615 0.929 . S
C2624 C2616 1.378 . S
C2624 C2619 1.350 . S
C2625 H2612 0.929 . S
C2625 C2617 1.433 . S
C2625 N2627 1.384 . S
N2626 C2622 1.427 . S
N2626 C2623 1.384 . S
N2627 C2619 1.427 . S
N2627 C2625 1.384 . S
H2628 C2634 0.930 . S
H2629 C2638 0.930 . S
H2630 C2643 0.929 . S
H2631 C2641 0.929 . S
H2632 C2636 0.929 . S
H2633 C2642 0.929 . S
C2634 H2628 0.930 . S
C2634 C2635 1.367 . S
C2634 C2642 1.378 . S
C2635 C2634 1.367 . S
C2635 C2643 1.433 . S
C2636 H2632 0.929 . S
C2636 C2638 1.378 . S
C2636 C2640 1.350 . S
C2637 C2640 1.463 . S
C2637 C2642 1.350 . S
C2637 N2645 1.427 . S
C2638 H2629 0.930 . S
C2638 C2636 1.378 . S
C2638 C2639 1.367 . S
C2639 C2638 1.367 . S
C2639 C2641 1.433 . S
C2640 C2636 1.350 . S
C2640 C2637 1.463 . S
C2640 N2644 1.427 . S
C2641 H2631 0.929 . S
C2641 C2639 1.433 . S
C2641 N2644 1.384 . S
C2642 H2633 0.929 . S
C2642 C2634 1.378 . S
C2642 C2637 1.350 . S
C2643 H2630 0.929 . S
C2643 C2635 1.433 . S
C2643 N2645 1.384 . S
N2644 C2640 1.427 . S
N2644 C2641 1.384 . S
N2645 C2637 1.427 . S
N2645 C2643 1.384 . S
H2646 C2652 0.930 . S
H2647 C2656 0.930 . S
H2648 C2661 0.929 . S
H2649 C2659 0.929 . S
H2650 C2654 0.929 . S
H2651 C2660 0.929 . S
C2652 H2646 0.930 . S
C2652 C2653 1.367 . S
C2652 C2660 1.378 . S
C2653 C2652 1.367 . S
C2653 C2661 1.433 . S
C2654 H2650 0.929 . S
C2654 C2656 1.378 . S
C2654 C2658 1.350 . S
C2655 C2658 1.463 . S
C2655 C2660 1.350 . S
C2655 N2663 1.427 . S
C2656 H2647 0.930 . S
C2656 C2654 1.378 . S
C2656 C2657 1.367 . S
C2657 C2656 1.367 . S
C2657 C2659 1.433 . S
C2658 C2654 1.350 . S
C2658 C2655 1.463 . S
C2658 N2662 1.427 . S
C2659 H2649 0.929 . S
C2659 C2657 1.433 . S
C2659 N2662 1.384 . S
C2660 H2651 0.929 . S
C2660 C2652 1.378 . S
C2660 C2655 1.350 . S
C2661 H2648 0.929 . S
C2661 C2653 1.433 . S
C2661 N2663 1.384 . S
N2662 C2658 1.427 . S
N2662 C2659 1.384 . S
N2663 C2655 1.427 . S
N2663 C2661 1.384 . S
H2664 C2670 0.930 . S
H2665 C2674 0.930 . S
H2666 C2679 0.929 . S
H2667 C2677 0.929 . S
H2668 C2672 0.929 . S
H2669 C2678 0.929 . S
C2670 H2664 0.930 . S
C2670 C2671 1.367 . S
C2670 C2678 1.378 . S
C2671 C2670 1.367 . S
C2671 C2679 1.433 . S
C2672 H2668 0.929 . S
C2672 C2674 1.378 . S
C2672 C2676 1.350 . S
C2673 C2676 1.463 . S
C2673 C2678 1.350 . S
C2673 N2681 1.427 . S
C2674 H2665 0.930 . S
C2674 C2672 1.378 . S
C2674 C2675 1.367 . S
C2675 C2674 1.367 . S
C2675 C2677 1.433 . S
C2676 C2672 1.350 . S
C2676 C2673 1.463 . S
C2676 N2680 1.427 . S
C2677 H2667 0.929 . S
C2677 C2675 1.433 . S
C2677 N2680 1.384 . S
C2678 H2669 0.929 . S
C2678 C2670 1.378 . S
C2678 C2673 1.350 . S
C2679 H2666 0.929 . S
C2679 C2671 1.433 . S
C2679 N2681 1.384 . S
N2680 C2676 1.427 . S
N2680 C2677 1.384 . S
N2681 C2673 1.427 . S
N2681 C2679 1.384 . S
H2682 C2688 0.930 . S
H2683 C2692 0.930 . S
H2684 C2697 0.929 . S
H2685 C2695 0.929 . S
H2686 C2690 0.929 . S
H2687 C2696 0.929 . S
C2688 H2682 0.930 . S
C2688 C2689 1.367 . S
C2688 C2696 1.378 . S
C2689 C2688 1.367 . S
C2689 C2697 1.433 . S
C2690 H2686 0.929 . S
C2690 C2692 1.378 . S
C2690 C2694 1.350 . S
C2691 C2694 1.463 . S
C2691 C2696 1.350 . S
C2691 N2699 1.427 . S
C2692 H2683 0.930 . S
C2692 C2690 1.378 . S
C2692 C2693 1.367 . S
C2693 C2692 1.367 . S
C2693 C2695 1.433 . S
C2694 C2690 1.350 . S
C2694 C2691 1.463 . S
C2694 N2698 1.427 . S
C2695 H2685 0.929 . S
C2695 C2693 1.433 . S
C2695 N2698 1.384 . S
C2696 H2687 0.929 . S
C2696 C2688 1.378 . S
C2696 C2691 1.350 . S
C2697 H2684 0.929 . S
C2697 C2689 1.433 . S
C2697 N2699 1.384 . S
N2698 C2694 1.427 . S
N2698 C2695 1.384 . S
N2699 C2691 1.427 . S
N2699 C2697 1.384 . S
H2700 C2706 0.930 . S
H2701 C2710 0.930 . S
H2702 C2715 0.929 . S
H2703 C2713 0.929 . S
H2704 C2708 0.929 . S
H2705 C2714 0.929 . S
C2706 H2700 0.930 . S
C2706 C2707 1.367 . S
C2706 C2714 1.378 . S
C2707 C2706 1.367 . S
C2707 C2715 1.433 . S
C2708 H2704 0.929 . S
C2708 C2710 1.378 . S
C2708 C2712 1.350 . S
C2709 C2712 1.463 . S
C2709 C2714 1.350 . S
C2709 N2717 1.427 . S
C2710 H2701 0.930 . S
C2710 C2708 1.378 . S
C2710 C2711 1.367 . S
C2711 C2710 1.367 . S
C2711 C2713 1.433 . S
C2712 C2708 1.350 . S
C2712 C2709 1.463 . S
C2712 N2716 1.427 . S
C2713 H2703 0.929 . S
C2713 C2711 1.433 . S
C2713 N2716 1.384 . S
C2714 H2705 0.929 . S
C2714 C2706 1.378 . S
C2714 C2709 1.350 . S
C2715 H2702 0.929 . S
C2715 C2707 1.433 . S
C2715 N2717 1.384 . S
N2716 C2712 1.427 . S
N2716 C2713 1.384 . S
N2717 C2709 1.427 . S
N2717 C2715 1.384 . S
H2718 C2724 0.930 . S
H2719 C2728 0.930 . S
H2720 C2733 0.929 . S
H2721 C2731 0.929 . S
H2722 C2726 0.929 . S
H2723 C2732 0.929 . S
C2724 H2718 0.930 . S
C2724 C2725 1.367 . S
C2724 C2732 1.378 . S
C2725 C2724 1.367 . S
C2725 C2733 1.433 . S
C2726 H2722 0.929 . S
C2726 C2728 1.378 . S
C2726 C2730 1.350 . S
C2727 C2730 1.463 . S
C2727 C2732 1.350 . S
C2727 N2735 1.427 . S
C2728 H2719 0.930 . S
C2728 C2726 1.378 . S
C2728 C2729 1.367 . S
C2729 C2728 1.367 . S
C2729 C2731 1.433 . S
C2730 C2726 1.350 . S
C2730 C2727 1.463 . S
C2730 N2734 1.427 . S
C2731 H2721 0.929 . S
C2731 C2729 1.433 . S
C2731 N2734 1.384 . S
C2732 H2723 0.929 . S
C2732 C2724 1.378 . S
C2732 C2727 1.350 . S
C2733 H2720 0.929 . S
C2733 C2725 1.433 . S
C2733 N2735 1.384 . S
N2734 C2730 1.427 . S
N2734 C2731 1.384 . S
N2735 C2727 1.427 . S
N2735 C2733 1.384 . S
H2736 C2742 0.930 . S
H2737 C2746 0.930 . S
H2738 C2751 0.929 . S
H2739 C2749 0.929 . S
H2740 C2744 0.929 . S
H2741 C2750 0.929 . S
C2742 H2736 0.930 . S
C2742 C2743 1.367 . S
C2742 C2750 1.378 . S
C2743 C2742 1.367 . S
C2743 C2751 1.433 . S
C2744 H2740 0.929 . S
C2744 C2746 1.378 . S
C2744 C2748 1.350 . S
C2745 C2748 1.463 . S
C2745 C2750 1.350 . S
C2745 N2753 1.427 . S
C2746 H2737 0.930 . S
C2746 C2744 1.378 . S
C2746 C2747 1.367 . S
C2747 C2746 1.367 . S
C2747 C2749 1.433 . S
C2748 C2744 1.350 . S
C2748 C2745 1.463 . S
C2748 N2752 1.427 . S
C2749 H2739 0.929 . S
C2749 C2747 1.433 . S
C2749 N2752 1.384 . S
C2750 H2741 0.929 . S
C2750 C2742 1.378 . S
C2750 C2745 1.350 . S
C2751 H2738 0.929 . S
C2751 C2743 1.433 . S
C2751 N2753 1.384 . S
N2752 C2748 1.427 . S
N2752 C2749 1.384 . S
N2753 C2745 1.427 . S
N2753 C2751 1.384 . S
H2754 C2760 0.930 . S
H2755 C2764 0.930 . S
H2756 C2769 0.929 . S
H2757 C2767 0.929 . S
H2758 C2762 0.929 . S
H2759 C2768 0.929 . S
C2760 H2754 0.930 . S
C2760 C2761 1.367 . S
C2760 C2768 1.378 . S
C2761 C2760 1.367 . S
C2761 C2769 1.433 . S
C2762 H2758 0.929 . S
C2762 C2764 1.378 . S
C2762 C2766 1.350 . S
C2763 C2766 1.463 . S
C2763 C2768 1.350 . S
C2763 N2771 1.427 . S
C2764 H2755 0.930 . S
C2764 C2762 1.378 . S
C2764 C2765 1.367 . S
C2765 C2764 1.367 . S
C2765 C2767 1.433 . S
C2766 C2762 1.350 . S
C2766 C2763 1.463 . S
C2766 N2770 1.427 . S
C2767 H2757 0.929 . S
C2767 C2765 1.433 . S
C2767 N2770 1.384 . S
C2768 H2759 0.929 . S
C2768 C2760 1.378 . S
C2768 C2763 1.350 . S
C2769 H2756 0.929 . S
C2769 C2761 1.433 . S
C2769 N2771 1.384 . S
N2770 C2766 1.427 . S
N2770 C2767 1.384 . S
N2771 C2763 1.427 . S
N2771 C2769 1.384 . S
H2772 C2778 0.930 . S
H2773 C2782 0.930 . S
H2774 C2787 0.929 . S
H2775 C2785 0.929 . S
H2776 C2780 0.929 . S
H2777 C2786 0.929 . S
C2778 H2772 0.930 . S
C2778 C2779 1.367 . S
C2778 C2786 1.378 . S
C2779 C2778 1.367 . S
C2779 C2787 1.433 . S
C2780 H2776 0.929 . S
C2780 C2782 1.378 . S
C2780 C2784 1.350 . S
C2781 C2784 1.463 . S
C2781 C2786 1.350 . S
C2781 N2789 1.427 . S
C2782 H2773 0.930 . S
C2782 C2780 1.378 . S
C2782 C2783 1.367 . S
C2783 C2782 1.367 . S
C2783 C2785 1.433 . S
C2784 C2780 1.350 . S
C2784 C2781 1.463 . S
C2784 N2788 1.427 . S
C2785 H2775 0.929 . S
C2785 C2783 1.433 . S
C2785 N2788 1.384 . S
C2786 H2777 0.929 . S
C2786 C2778 1.378 . S
C2786 C2781 1.350 . S
C2787 H2774 0.929 . S
C2787 C2779 1.433 . S
C2787 N2789 1.384 . S
N2788 C2784 1.427 . S
N2788 C2785 1.384 . S
N2789 C2781 1.427 . S
N2789 C2787 1.384 . S
H2790 C2796 0.930 . S
H2791 C2800 0.930 . S
H2792 C2805 0.929 . S
H2793 C2803 0.929 . S
H2794 C2798 0.929 . S
H2795 C2804 0.929 . S
C2796 H2790 0.930 . S
C2796 C2797 1.367 . S
C2796 C2804 1.378 . S
C2797 C2796 1.367 . S
C2797 C2805 1.433 . S
C2798 H2794 0.929 . S
C2798 C2800 1.378 . S
C2798 C2802 1.350 . S
C2799 C2802 1.463 . S
C2799 C2804 1.350 . S
C2799 N2807 1.427 . S
C2800 H2791 0.930 . S
C2800 C2798 1.378 . S
C2800 C2801 1.367 . S
C2801 C2800 1.367 . S
C2801 C2803 1.433 . S
C2802 C2798 1.350 . S
C2802 C2799 1.463 . S
C2802 N2806 1.427 . S
C2803 H2793 0.929 . S
C2803 C2801 1.433 . S
C2803 N2806 1.384 . S
C2804 H2795 0.929 . S
C2804 C2796 1.378 . S
C2804 C2799 1.350 . S
C2805 H2792 0.929 . S
C2805 C2797 1.433 . S
C2805 N2807 1.384 . S
N2806 C2802 1.427 . S
N2806 C2803 1.384 . S
N2807 C2799 1.427 . S
N2807 C2805 1.384 . S
C1843 C781 1.423 . S
C1847 C1147 1.377 . S
C1861 C871 1.437 . S
C1865 C1231 1.386 . S
C1879 C751 1.444 . S
C1883 C1311 1.428 . S
C1897 C691 1.404 . S
C1901 C1227 1.389 . S
C1919 C1315 1.320 . S
C1915 C571 1.367 . S
C1933 C601 1.400 . S
C1937 C1143 1.360 . S
C1955 C1136 1.362 . S
C1951 C661 1.398 . S
C1973 C1220 1.388 . S
C1969 C541 1.436 . S
C1987 C631 1.473 . S
C1991 C1322 1.431 . S
C2005 C811 1.426 . S
C2009 C1238 1.389 . S
C2023 C841 1.369 . S
C2027 C1304 1.336 . S
C2045 C1154 1.380 . S
C2041 C721 1.378 . S
C2063 C1399 1.376 . S
C2059 C61 1.425 . S
C2077 C151 1.442 . S
C2081 C1483 1.404 . S
C2095 C31 1.448 . S
C2099 C1563 1.439 . S
C2113 C1051 1.398 . S
C2117 C1479 1.388 . S
C2131 C931 1.379 . S
C2135 C1567 1.339 . S
C2149 C961 1.396 . S
C2153 C1395 1.373 . S
C2167 C1021 1.409 . S
C2171 C1388 1.370 . S
C2185 C901 1.432 . S
C2189 C1472 1.396 . S
C2207 C1574 1.439 . S
C2203 C991 1.477 . S
C2221 C91 1.431 . S
C2225 C1490 1.398 . S
C2243 C1556 1.330 . S
C2239 C121 1.360 . S
C2257 C1 1.364 . S
C2261 C1406 1.372 . S
C2279 C1651 1.366 . S
C2275 C421 1.428 . S
C2293 C511 1.440 . S
C2297 C1735 1.394 . S
C2315 C1815 1.425 . S
C2311 C391 1.439 . S
C2333 C1731 1.397 . S
C2329 C331 1.404 . S
C2351 C1819 1.323 . S
C2347 C211 1.372 . S
C2365 C241 1.395 . S
C2369 C1647 1.371 . S
C2383 C301 1.407 . S
C2387 C1640 1.360 . S
C2401 C181 1.420 . S
C2405 C1724 1.396 . S
C2423 C1826 1.437 . S
C2419 C271 1.474 . S
C2437 C451 1.432 . S
C2441 C1742 1.392 . S
C2455 C481 1.363 . S
C2459 C1808 1.326 . S
C2473 C361 1.366 . S
C2477 C1658 1.374 . S
C2491 C920 1.433 . S
C2495 C1150 1.350 . S
C2513 C1234 1.353 . S
C2509 C980 1.491 . S
C2527 C1040 1.445 . S
C2531 C1306 1.334 . S
C2545 C380 1.476 . S
C2549 C1222 1.362 . S
C2563 C440 1.452 . S
C2567 C1318 1.336 . S
C2585 C1138 1.327 . S
C2581 C500 1.425 . S
C2599 C200 1.433 . S
C2603 C1402 1.347 . S
C2617 C260 1.492 . S
C2621 C1486 1.353 . S
C2635 C320 1.454 . S
C2639 C1558 1.348 . S
C2653 C740 1.485 . S
C2657 C1474 1.373 . S
C2675 C1570 1.357 . S
C2671 C800 1.454 . S
C2689 C860 1.428 . S
C2693 C1390 1.327 . S
C2707 C560 1.435 . S
C2711 C1654 1.339 . S
C2725 C620 1.492 . S
C2729 C1738 1.353 . S
C2747 C1810 1.355 . S
C2743 C680 1.452 . S
C2761 C20 1.475 . S
C2765 C1726 1.357 . S
C2779 C80 1.453 . S
C2783 C1822 1.335 . S
C2797 C140 1.426 . S
C2801 C1642 1.328 . S
