# Generated by pormake.
# Topology pto, (3,4)-cn, num edge types: 1
# Building blocks:
#     Node 0, Type 0, BuildingBlock: WUSLED_clean_sbu_0, # of connection points: 3
#     Node 1, Type 0, BuildingBlock: WUSLED_clean_sbu_0, # of connection points: 3
#     Node 2, Type 0, BuildingBlock: WUSLED_clean_sbu_0, # of connection points: 3
#     Node 3, Type 0, BuildingBlock: WUSLED_clean_sbu_0, # of connection points: 3
#     Node 4, Type 0, BuildingBlock: WUSLED_clean_sbu_0, # of connection points: 3
#     Node 5, Type 0, BuildingBlock: WUSLED_clean_sbu_0, # of connection points: 3
#     Node 6, Type 0, BuildingBlock: WUSLED_clean_sbu_0, # of connection points: 3
#     Node 7, Type 0, BuildingBlock: WUSLED_clean_sbu_0, # of connection points: 3
#     Node 8, Type 1, BuildingBlock: NAHDIM_clean_linker_0, # of connection points: 4
#     Node 9, Type 1, BuildingBlock: NAHDIM_clean_linker_0, # of connection points: 4
#     Node 10, Type 1, BuildingBlock: NAHDIM_clean_linker_0, # of connection points: 4
#     Node 11, Type 1, BuildingBlock: NAHDIM_clean_linker_0, # of connection points: 4
#     Node 12, Type 1, BuildingBlock: NAHDIM_clean_linker_0, # of connection points: 4
#     Node 13, Type 1, BuildingBlock: NAHDIM_clean_linker_0, # of connection points: 4
#     Edge 14, Type (0, 1), BuildingBlock: MIFKUJ_clean_linker_0, # of connection points: 2
#     Edge 15, Type (0, 1), BuildingBlock: MIFKUJ_clean_linker_0, # of connection points: 2
#     Edge 16, Type (0, 1), BuildingBlock: MIFKUJ_clean_linker_0, # of connection points: 2
#     Edge 17, Type (0, 1), BuildingBlock: MIFKUJ_clean_linker_0, # of connection points: 2
#     Edge 18, Type (0, 1), BuildingBlock: MIFKUJ_clean_linker_0, # of connection points: 2
#     Edge 19, Type (0, 1), BuildingBlock: MIFKUJ_clean_linker_0, # of connection points: 2
#     Edge 20, Type (0, 1), BuildingBlock: MIFKUJ_clean_linker_0, # of connection points: 2
#     Edge 21, Type (0, 1), BuildingBlock: MIFKUJ_clean_linker_0, # of connection points: 2
#     Edge 22, Type (0, 1), BuildingBlock: MIFKUJ_clean_linker_0, # of connection points: 2
#     Edge 23, Type (0, 1), BuildingBlock: MIFKUJ_clean_linker_0, # of connection points: 2
#     Edge 24, Type (0, 1), BuildingBlock: MIFKUJ_clean_linker_0, # of connection points: 2
#     Edge 25, Type (0, 1), BuildingBlock: MIFKUJ_clean_linker_0, # of connection points: 2
#     Edge 26, Type (0, 1), BuildingBlock: MIFKUJ_clean_linker_0, # of connection points: 2
#     Edge 27, Type (0, 1), BuildingBlock: MIFKUJ_clean_linker_0, # of connection points: 2
#     Edge 28, Type (0, 1), BuildingBlock: MIFKUJ_clean_linker_0, # of connection points: 2
#     Edge 29, Type (0, 1), BuildingBlock: MIFKUJ_clean_linker_0, # of connection points: 2
#     Edge 30, Type (0, 1), BuildingBlock: MIFKUJ_clean_linker_0, # of connection points: 2
#     Edge 31, Type (0, 1), BuildingBlock: MIFKUJ_clean_linker_0, # of connection points: 2
#     Edge 32, Type (0, 1), BuildingBlock: MIFKUJ_clean_linker_0, # of connection points: 2
#     Edge 33, Type (0, 1), BuildingBlock: MIFKUJ_clean_linker_0, # of connection points: 2
#     Edge 34, Type (0, 1), BuildingBlock: MIFKUJ_clean_linker_0, # of connection points: 2
#     Edge 35, Type (0, 1), BuildingBlock: MIFKUJ_clean_linker_0, # of connection points: 2
#     Edge 36, Type (0, 1), BuildingBlock: MIFKUJ_clean_linker_0, # of connection points: 2
#     Edge 37, Type (0, 1), BuildingBlock: MIFKUJ_clean_linker_0, # of connection points: 2
# Relax obj value: 0.001
# Max RMSD: 0.070
# Mean RMSD: 0.020
data_MOF--net-pto--node1-WUSLED_clean_sbu_0--node2-NAHDIM_clean_linker_0--edge1-MIFKUJ_clean_linker_0
_symmetry_space_group_name_H-M    P1
_symmetry_Int_Tables_number       1
_symmetry_cell_setting            triclinic
loop_
_symmetry_equiv_pos_as_xyz
'x, y, z'
_cell_length_a     88.269283
_cell_length_b     83.918366
_cell_length_c     79.366232
_cell_angle_alpha  89.162555
_cell_angle_beta   90.776665
_cell_angle_gamma 90.497958
loop_
_atom_site_label
_atom_site_type_symbol
_atom_site_fract_x
_atom_site_fract_y
_atom_site_fract_z
_atom_type_partial_charge
C0 C 0.25435 0.25779 0.29853 0.0
C1 C 0.26346 0.24518 0.29337 0.0
C2 C 0.25849 0.23075 0.31966 0.0
C3 C 0.26546 0.23176 0.30381 0.0
C4 C 0.24951 0.24355 0.32479 0.0
C5 C 0.24745 0.25691 0.3143 0.0
U6 U 0.26674 0.28577 0.26289 0.0
O7 O 0.25343 0.29697 0.24238 0.0
O8 O 0.26556 0.3119 0.2607 0.0
C9 C 0.25601 0.31145 0.24786 0.0
C10 C 0.25196 0.27192 0.28764 0.0
C11 C 0.2426 0.3216 0.24911 0.0
C12 C 0.21877 0.32854 0.26205 0.0
C13 C 0.23156 0.31878 0.26138 0.0
C14 C 0.22807 0.34398 0.23824 0.0
C15 C 0.21683 0.34118 0.25038 0.0
C16 C 0.2408 0.33427 0.23762 0.0
C17 C 0.30379 0.27778 0.2401 0.0
C18 C 0.31116 0.29122 0.21408 0.0
C19 C 0.32917 0.2746 0.22932 0.0
C20 C 0.31829 0.27123 0.24152 0.0
C21 C 0.32574 0.28459 0.21542 0.0
C22 C 0.30029 0.28789 0.22637 0.0
C23 C 0.29249 0.27384 0.25301 0.0
O24 O 0.2616 0.28373 0.28993 0.0
O25 O 0.24914 0.26905 0.27165 0.0
O26 O 0.2792 0.269 0.24732 0.0
O27 O 0.29155 0.28402 0.26537 0.0
H28 H 0.26894 0.24567 0.28124 0.0
H29 H 0.2723 0.22208 0.29935 0.0
H30 H 0.24419 0.24334 0.33701 0.0
H31 H 0.24048 0.26659 0.31853 0.0
H32 H 0.21029 0.32603 0.27148 0.0
H33 H 0.23279 0.309 0.27035 0.0
H34 H 0.22709 0.35378 0.22928 0.0
H35 H 0.24926 0.33665 0.22811 0.0
H36 H 0.30821 0.29908 0.20363 0.0
H37 H 0.3402 0.26912 0.23061 0.0
H38 H 0.32117 0.26339 0.25203 0.0
H39 H 0.28915 0.29315 0.22513 0.0
C40 C 0.25912 0.7659 0.70321 0.0
C41 C 0.26729 0.77922 0.70899 0.0
C42 C 0.26424 0.79239 0.68159 0.0
C43 C 0.26977 0.79236 0.69831 0.0
C44 C 0.25649 0.77876 0.67573 0.0
C45 C 0.25392 0.76568 0.68646 0.0
U46 U 0.26882 0.73933 0.74109 0.0
O47 O 0.25431 0.73025 0.76151 0.0
O48 O 0.26593 0.71352 0.74515 0.0
C49 C 0.25601 0.71533 0.75718 0.0
C50 C 0.2556 0.75238 0.71457 0.0
C51 C 0.24194 0.70588 0.7557 0.0
C52 C 0.22131 0.69452 0.73906 0.0
C53 C 0.2345 0.70387 0.74012 0.0
C54 C 0.22271 0.68943 0.76916 0.0
C55 C 0.21529 0.68717 0.75358 0.0
C56 C 0.23591 0.69868 0.77019 0.0
C57 C 0.30556 0.74696 0.76577 0.0
C58 C 0.3107 0.73691 0.79413 0.0
C59 C 0.33122 0.74744 0.77719 0.0
C60 C 0.32099 0.75059 0.76399 0.0
C61 C 0.32618 0.74067 0.79245 0.0
C62 C 0.30048 0.73995 0.78087 0.0
C63 C 0.29497 0.75063 0.75181 0.0
O64 O 0.26462 0.74005 0.71363 0.0
O65 O 0.25237 0.75613 0.73013 0.0
O66 O 0.28187 0.75657 0.75611 0.0
O67 O 0.29375 0.7397 0.74017 0.0
H68 H 0.27151 0.77959 0.72187 0.0
H69 H 0.27563 0.80267 0.70333 0.0
H70 H 0.25232 0.77822 0.66285 0.0
H71 H 0.24771 0.75545 0.68173 0.0
H72 H 0.21576 0.69314 0.7269 0.0
H73 H 0.23891 0.70945 0.72879 0.0
H74 H 0.21847 0.68378 0.78054 0.0
H75 H 0.2415 0.70011 0.78232 0.0
H76 H 0.30652 0.73151 0.80566 0.0
H77 H 0.34304 0.75061 0.77558 0.0
H78 H 0.3251 0.75597 0.75242 0.0
H79 H 0.28863 0.73692 0.78242 0.0
C80 C 0.72648 0.75403 0.2341 0.0
C81 C 0.73067 0.74668 0.2191 0.0
C82 C 0.70448 0.74733 0.20901 0.0
C83 C 0.71976 0.74343 0.20661 0.0
C84 C 0.70036 0.75455 0.22415 0.0
C85 C 0.71127 0.75789 0.23656 0.0
U86 U 0.76416 0.74592 0.25642 0.0
O87 O 0.78141 0.76245 0.26641 0.0
O88 O 0.76996 0.74559 0.28348 0.0
C89 C 0.77924 0.75786 0.2821 0.0
C90 C 0.73777 0.75762 0.24735 0.0
C91 C 0.77687 0.77075 0.29411 0.0
C92 C 0.76289 0.79376 0.30346 0.0
C93 C 0.76478 0.78139 0.29205 0.0
C94 C 0.78505 0.78484 0.31917 0.0
C95 C 0.77302 0.79564 0.31716 0.0
C96 C 0.78694 0.77252 0.30774 0.0
C97 C 0.78891 0.71222 0.24038 0.0
C98 C 0.81266 0.70448 0.25384 0.0
C99 C 0.80369 0.69077 0.22891 0.0
C100 C 0.79092 0.7005 0.22826 0.0
C101 C 0.81471 0.69261 0.24173 0.0
C102 C 0.79986 0.71422 0.25316 0.0
C103 C 0.77523 0.72206 0.23959 0.0
O104 O 0.73937 0.74655 0.25911 0.0
O105 O 0.75073 0.76358 0.24213 0.0
O106 O 0.77736 0.73708 0.23523 0.0
O107 O 0.76591 0.72017 0.25224 0.0
H108 H 0.74235 0.74345 0.21704 0.0
H109 H 0.72326 0.73772 0.19517 0.0
H110 H 0.68872 0.75785 0.2263 0.0
H111 H 0.70784 0.76353 0.24807 0.0
H112 H 0.75344 0.80177 0.30165 0.0
H113 H 0.75686 0.78014 0.28159 0.0
H114 H 0.79319 0.78608 0.32941 0.0
H115 H 0.79636 0.76444 0.30949 0.0
H116 H 0.821 0.70632 0.26377 0.0
H117 H 0.80477 0.68161 0.21955 0.0
H118 H 0.78253 0.69877 0.21834 0.0
H119 H 0.79848 0.72327 0.26261 0.0
C120 C 0.73796 0.24206 0.71783 0.0
C121 C 0.75284 0.238 0.71367 0.0
C122 C 0.74329 0.21872 0.69333 0.0
C123 C 0.75548 0.2264 0.7016 0.0
C124 C 0.72842 0.22319 0.69724 0.0
C125 C 0.7258 0.23471 0.7094 0.0
U126 U 0.74835 0.27923 0.74288 0.0
O127 O 0.73403 0.29807 0.7529 0.0
O128 O 0.74767 0.28321 0.77023 0.0
C129 C 0.73716 0.29415 0.76867 0.0
C130 C 0.73492 0.25357 0.7312 0.0
C131 C 0.72418 0.29233 0.78009 0.0
C132 C 0.69734 0.28783 0.78519 0.0
C133 C 0.70949 0.28888 0.77405 0.0
C134 C 0.71446 0.29326 0.80856 0.0
C135 C 0.6997 0.29005 0.80257 0.0
C136 C 0.72655 0.29443 0.79742 0.0
C137 C 0.78401 0.30311 0.73191 0.0
C138 C 0.79654 0.32192 0.75062 0.0
C139 C 0.80309 0.32144 0.72108 0.0
C140 C 0.79255 0.30916 0.71848 0.0
C141 C 0.80532 0.32786 0.73721 0.0
C142 C 0.78593 0.30969 0.74797 0.0
C143 C 0.77335 0.28983 0.72896 0.0
O144 O 0.74444 0.25337 0.74408 0.0
O145 O 0.73137 0.26805 0.72607 0.0
O146 O 0.75978 0.2939 0.72353 0.0
O147 O 0.77312 0.27861 0.74069 0.0
H148 H 0.76243 0.24359 0.71996 0.0
H149 H 0.76707 0.22317 0.69909 0.0
H150 H 0.71876 0.21778 0.69092 0.0
H151 H 0.71424 0.23777 0.71235 0.0
H152 H 0.68612 0.28519 0.78023 0.0
H153 H 0.70736 0.28709 0.76073 0.0
H154 H 0.71662 0.29522 0.82184 0.0
H155 H 0.73778 0.29714 0.80233 0.0
H156 H 0.79788 0.32673 0.76314 0.0
H157 H 0.80978 0.32563 0.71054 0.0
H158 H 0.7912 0.30425 0.70599 0.0
H159 H 0.77932 0.30528 0.75849 0.0
C160 C 0.78597 0.7063 0.77265 0.0
C161 C 0.79379 0.70624 0.75736 0.0
C162 C 0.81105 0.68618 0.7687 0.0
C163 C 0.80618 0.6962 0.75538 0.0
C164 C 0.80329 0.68644 0.78405 0.0
C165 C 0.79083 0.6964 0.78598 0.0
U166 U 0.76328 0.74311 0.7604 0.0
O167 O 0.73869 0.74626 0.75728 0.0
O168 O 0.75131 0.76017 0.7761 0.0
C169 C 0.73795 0.75618 0.7699 0.0
C170 C 0.77282 0.71666 0.77485 0.0
C171 C 0.72633 0.75239 0.78243 0.0
C172 C 0.71651 0.73564 0.80506 0.0
C173 C 0.72764 0.73898 0.79309 0.0
C174 C 0.70269 0.75907 0.79575 0.0
C175 C 0.7039 0.74566 0.80653 0.0
C176 C 0.71381 0.76238 0.78381 0.0
C177 C 0.77771 0.77092 0.72558 0.0
C178 C 0.76229 0.79126 0.7118 0.0
C179 C 0.78947 0.79124 0.70791 0.0
C180 C 0.79067 0.77776 0.71838 0.0
C181 C 0.77526 0.79808 0.70441 0.0
C182 C 0.76351 0.77782 0.72237 0.0
C183 C 0.77922 0.75661 0.73637 0.0
O184 O 0.77591 0.73086 0.78084 0.0
O185 O 0.76301 0.71696 0.76223 0.0
O186 O 0.7692 0.74521 0.73366 0.0
O187 O 0.78169 0.75929 0.75245 0.0
H188 H 0.79029 0.71393 0.74696 0.0
H189 H 0.81205 0.69642 0.74348 0.0
H190 H 0.8067 0.67876 0.79449 0.0
H191 H 0.78494 0.69633 0.79788 0.0
H192 H 0.71771 0.72514 0.81305 0.0
H193 H 0.73725 0.73112 0.79214 0.0
H194 H 0.69327 0.76717 0.79671 0.0
H195 H 0.71267 0.77282 0.7757 0.0
H196 H 0.75121 0.79637 0.70949 0.0
H197 H 0.79965 0.7961 0.70227 0.0
H198 H 0.80171 0.7726 0.72076 0.0
H199 H 0.75338 0.77278 0.72796 0.0
C200 C 0.73387 0.24776 0.21286 0.0
C201 C 0.7353 0.26141 0.20258 0.0
C202 C 0.71109 0.25537 0.18892 0.0
C203 C 0.72401 0.26519 0.19069 0.0
C204 C 0.70987 0.24155 0.1991 0.0
C205 C 0.72118 0.2378 0.21098 0.0
U206 U 0.77051 0.25791 0.23606 0.0
O207 O 0.77612 0.25675 0.26313 0.0
O208 O 0.78895 0.24253 0.24533 0.0
C209 C 0.78631 0.24562 0.26122 0.0
C210 C 0.74532 0.24405 0.22588 0.0
C211 C 0.78475 0.23168 0.27249 0.0
C212 C 0.77301 0.20626 0.27986 0.0
C213 C 0.77445 0.21934 0.26882 0.0
C214 C 0.79204 0.21785 0.29837 0.0
C215 C 0.78181 0.20536 0.29477 0.0
C216 C 0.7935 0.23086 0.28731 0.0
C217 C 0.7926 0.29537 0.22335 0.0
C218 C 0.81838 0.30089 0.2328 0.0
C219 C 0.80361 0.32172 0.21916 0.0
C220 C 0.7914 0.31112 0.21745 0.0
C221 C 0.81729 0.31672 0.22679 0.0
C222 C 0.80612 0.29033 0.23115 0.0
C223 C 0.77965 0.2844 0.2213 0.0
O224 O 0.75874 0.24025 0.22027 0.0
O225 O 0.74597 0.25406 0.23846 0.0
O226 O 0.77002 0.28409 0.23377 0.0
O227 O 0.78289 0.27015 0.21576 0.0
H228 H 0.74504 0.26926 0.20394 0.0
H229 H 0.7252 0.276 0.1832 0.0
H230 H 0.70017 0.23364 0.1979 0.0
H231 H 0.71993 0.22718 0.2188 0.0
H232 H 0.76513 0.19679 0.27662 0.0
H233 H 0.76755 0.21983 0.25744 0.0
H234 H 0.79879 0.21771 0.30986 0.0
H235 H 0.80141 0.24036 0.2904 0.0
H236 H 0.82878 0.29657 0.23856 0.0
H237 H 0.80227 0.33387 0.21466 0.0
H238 H 0.78099 0.31524 0.21151 0.0
H239 H 0.80723 0.2782 0.23586 0.0
C240 C 0.24467 0.23905 0.72246 0.0
C241 C 0.25806 0.23027 0.72418 0.0
C242 C 0.24978 0.21281 0.70151 0.0
C243 C 0.26061 0.21727 0.71379 0.0
C244 C 0.23635 0.22168 0.69991 0.0
C245 C 0.23383 0.23468 0.71029 0.0
U246 U 0.25639 0.26553 0.75888 0.0
O247 O 0.25561 0.29159 0.76128 0.0
O248 O 0.24283 0.27624 0.77873 0.0
C249 C 0.24572 0.29087 0.7735 0.0
C250 C 0.2419 0.25275 0.73326 0.0
C251 C 0.23244 0.30115 0.77131 0.0
C252 C 0.20868 0.30785 0.75722 0.0
C253 C 0.22136 0.29802 0.75893 0.0
C254 C 0.21811 0.32403 0.7802 0.0
C255 C 0.2069 0.32097 0.76786 0.0
C256 C 0.23075 0.3142 0.78189 0.0
C257 C 0.29275 0.25651 0.78364 0.0
C258 C 0.30632 0.27544 0.8013 0.0
C259 C 0.3111 0.24717 0.80453 0.0
C260 C 0.30049 0.24401 0.79174 0.0
C261 C 0.31423 0.26293 0.80941 0.0
C262 C 0.29562 0.27225 0.78859 0.0
C263 C 0.28172 0.25289 0.77011 0.0
O264 O 0.23884 0.24921 0.74905 0.0
O265 O 0.2516 0.26464 0.73165 0.0
O266 O 0.28111 0.26322 0.75751 0.0
O267 O 0.2683 0.24808 0.77515 0.0
H268 H 0.26656 0.23352 0.73353 0.0
H269 H 0.27114 0.21083 0.71524 0.0
H270 H 0.22767 0.21843 0.69078 0.0
H271 H 0.2234 0.24131 0.70885 0.0
H272 H 0.20034 0.30526 0.74748 0.0
H273 H 0.22252 0.28798 0.75062 0.0
H274 H 0.21699 0.33386 0.78878 0.0
H275 H 0.23918 0.31673 0.79156 0.0
H276 H 0.30854 0.28773 0.80456 0.0
H277 H 0.31675 0.23722 0.81068 0.0
H278 H 0.29833 0.23177 0.78818 0.0
H279 H 0.28969 0.28209 0.78257 0.0
C280 C 0.22138 0.73144 0.25944 0.0
C281 C 0.21764 0.72645 0.24306 0.0
C282 C 0.20069 0.70608 0.25448 0.0
C283 C 0.20729 0.71394 0.24061 0.0
C284 C 0.20453 0.71107 0.27083 0.0
C285 C 0.21475 0.72367 0.27328 0.0
U286 U 0.25803 0.75312 0.2485 0.0
O287 O 0.26369 0.77869 0.24754 0.0
O288 O 0.27602 0.76277 0.26499 0.0
C289 C 0.27355 0.77754 0.26006 0.0
C290 C 0.23244 0.74438 0.26239 0.0
C291 C 0.27178 0.78903 0.27369 0.0
C292 C 0.25676 0.80104 0.29552 0.0
C293 C 0.25813 0.79011 0.28247 0.0
C294 C 0.28267 0.80978 0.29116 0.0
C295 C 0.26905 0.81096 0.30006 0.0
C296 C 0.284 0.79892 0.27811 0.0
C297 C 0.2816 0.73703 0.21243 0.0
C298 C 0.30444 0.75006 0.20219 0.0
C299 C 0.29727 0.72392 0.19201 0.0
C300 C 0.28448 0.72399 0.20218 0.0
C301 C 0.30742 0.73694 0.19191 0.0
C302 C 0.29164 0.75008 0.21242 0.0
C303 C 0.26821 0.73666 0.22323 0.0
O304 O 0.24574 0.73977 0.26818 0.0
O305 O 0.23334 0.75546 0.25053 0.0
O306 O 0.25884 0.74866 0.22129 0.0
O307 O 0.27085 0.73281 0.23909 0.0
H308 H 0.22275 0.73214 0.23218 0.0
H309 H 0.20465 0.71025 0.22787 0.0
H310 H 0.1995 0.70536 0.28175 0.0
H311 H 0.21753 0.72731 0.286 0.0
H312 H 0.24617 0.80157 0.30222 0.0
H313 H 0.24859 0.78248 0.27926 0.0
H314 H 0.29226 0.81741 0.29415 0.0
H315 H 0.29461 0.79824 0.27144 0.0
H316 H 0.31212 0.76018 0.20253 0.0
H317 H 0.29914 0.71374 0.18409 0.0
H318 H 0.27682 0.71383 0.20206 0.0
H319 H 0.28962 0.76021 0.22036 0.0
C320 C 0.96385 0.40328 0.23403 0.0
C321 C 0.95209 0.41369 0.24253 0.0
C322 C 0.96298 0.43998 0.23723 0.0
C323 C 0.96886 0.44365 0.25324 0.0
C324 C 0.98082 0.45463 0.25507 0.0
C325 C 0.98707 0.46201 0.24057 0.0
C326 C 0.98079 0.45877 0.22447 0.0
C327 C 0.96864 0.44794 0.22304 0.0
C328 C 0.98695 0.45818 0.27247 0.0
C329 C 0.98716 0.46645 0.20875 0.0
C330 C 0.10612 0.42629 0.239 0.0
C331 C 0.09289 0.43646 0.23446 0.0
C332 C 0.06951 0.44681 0.24612 0.0
C333 C 0.06507 0.45517 0.23138 0.0
C334 C 0.05167 0.46406 0.23081 0.0
C335 C 0.04275 0.4651 0.24543 0.0
C336 C 0.04738 0.45703 0.26041 0.0
C337 C 0.06062 0.44786 0.26048 0.0
C338 C 0.04694 0.47214 0.21447 0.0
C339 C 0.03824 0.45792 0.27629 0.0
C340 C 0.06364 0.57292 0.2505 0.0
C341 C 0.05694 0.56939 0.23494 0.0
C342 C 0.0446 0.55879 0.23374 0.0
C343 C 0.03872 0.55167 0.24857 0.0
C344 C 0.04562 0.55491 0.26435 0.0
C345 C 0.05815 0.56531 0.26514 0.0
C346 C 0.03771 0.55538 0.21666 0.0
C347 C 0.03961 0.54754 0.28042 0.0
C348 C 0.92142 0.55807 0.2568 0.0
C349 C 0.93073 0.57355 0.25754 0.0
C350 C 0.95523 0.5652 0.24614 0.0
C351 C 0.96393 0.56488 0.23157 0.0
C352 C 0.9776 0.55645 0.23117 0.0
C353 C 0.98287 0.54839 0.24588 0.0
C354 C 0.97428 0.54891 0.26079 0.0
C355 C 0.96047 0.5571 0.26071 0.0
C356 C 0.98641 0.5562 0.21502 0.0
C357 C 0.97971 0.54085 0.27688 0.0
C358 C 0.00069 0.47241 0.24222 0.0
C359 C 0.01482 0.46504 0.24309 0.0
C360 C 0.0282 0.47393 0.24481 0.0
C361 C 0.02753 0.49075 0.24562 0.0
C362 C 0.04074 0.50011 0.24734 0.0
C363 C 0.03997 0.51666 0.24779 0.0
C364 C 0.02594 0.52447 0.24695 0.0
C365 C 0.02504 0.54127 0.24757 0.0
C366 C 0.01088 0.54863 0.24711 0.0
C367 C 0.99749 0.5397 0.24579 0.0
C368 C 0.99818 0.5229 0.24474 0.0
C369 C 0.98497 0.51354 0.24297 0.0
C370 C 0.98575 0.497 0.24222 0.0
C371 C 0.99978 0.4892 0.24303 0.0
C372 C 0.01326 0.49839 0.24469 0.0
C373 C 0.01246 0.51527 0.24547 0.0
C374 C 0.0718 0.60177 0.27381 0.0
C375 C 0.08234 0.59032 0.26472 0.0
O376 O 0.95198 0.42875 0.23507 0.0
O377 O 0.94199 0.57345 0.2455 0.0
O378 O 0.07511 0.58388 0.25074 0.0
O379 O 0.08211 0.43754 0.24695 0.0
H380 H 0.95514 0.41454 0.25612 0.0
H381 H 0.97536 0.40854 0.23572 0.0
H382 H 0.96135 0.40236 0.22031 0.0
H383 H 0.96388 0.39112 0.23977 0.0
H384 H 0.96409 0.43803 0.26435 0.0
H385 H 0.96387 0.44517 0.21076 0.0
H386 H 0.99861 0.45345 0.27379 0.0
H387 H 0.97987 0.45276 0.28254 0.0
H388 H 0.98759 0.47126 0.27432 0.0
H389 H 0.98121 0.4624 0.19713 0.0
H390 H 0.99939 0.46362 0.20779 0.0
H391 H 0.98621 0.4796 0.20948 0.0
H392 H 0.08788 0.43399 0.22178 0.0
H393 H 0.10555 0.41607 0.22998 0.0
H394 H 0.10268 0.41887 0.25029 0.0
H395 H 0.1243 0.44254 0.23959 0.0
H396 H 0.07185 0.45467 0.22016 0.0
H397 H 0.06411 0.44145 0.27182 0.0
H398 H 0.04781 0.48526 0.21582 0.0
H399 H 0.03494 0.4692 0.21137 0.0
H400 H 0.05411 0.46862 0.20377 0.0
H401 H 0.04449 0.45307 0.28744 0.0
H402 H 0.0276 0.45093 0.27465 0.0
H403 H 0.03508 0.47044 0.27876 0.0
H404 H 0.08582 0.58054 0.27355 0.0
H405 H 0.06132 0.57516 0.22369 0.0
H406 H 0.0634 0.56756 0.27727 0.0
H407 H 0.03677 0.54231 0.21483 0.0
H408 H 0.04445 0.56068 0.20624 0.0
H409 H 0.02609 0.56032 0.21593 0.0
H410 H 0.04576 0.55187 0.29179 0.0
H411 H 0.04064 0.53438 0.27998 0.0
H412 H 0.02739 0.5503 0.28163 0.0
H413 H 0.93594 0.57472 0.2703 0.0
H414 H 0.91234 0.55812 0.26637 0.0
H415 H 0.92875 0.54763 0.25948 0.0
H416 H 0.91616 0.55666 0.2441 0.0
H417 H 0.95987 0.57116 0.22039 0.0
H418 H 0.95397 0.55713 0.27215 0.0
H419 H 0.98972 0.54381 0.21208 0.0
H420 H 0.99696 0.56334 0.21659 0.0
H421 H 0.97985 0.56121 0.20417 0.0
H422 H 0.97282 0.54414 0.28789 0.0
H423 H 0.99174 0.54405 0.27952 0.0
H424 H 0.97905 0.52773 0.27545 0.0
H425 H 0.01542 0.45215 0.2424 0.0
H426 H 0.05183 0.49474 0.24824 0.0
H427 H 0.05052 0.52325 0.24893 0.0
H428 H 0.01029 0.56151 0.24784 0.0
H429 H 0.97387 0.51889 0.24218 0.0
H430 H 0.97521 0.49041 0.24095 0.0
H431 H 0.06777 0.61133 0.26506 0.0
H432 H 0.07788 0.60734 0.28461 0.0
H433 H 0.06175 0.59539 0.27884 0.0
C434 C 0.06654 0.41225 0.79077 0.0
C435 C 0.0717 0.41575 0.77272 0.0
C436 C 0.06179 0.44198 0.76739 0.0
C437 C 0.05558 0.44382 0.75119 0.0
C438 C 0.04322 0.45396 0.74822 0.0
C439 C 0.03686 0.46219 0.76186 0.0
C440 C 0.04323 0.46034 0.77826 0.0
C441 C 0.05583 0.45046 0.78074 0.0
C442 C 0.03688 0.4558 0.73056 0.0
C443 C 0.03658 0.46856 0.79321 0.0
C444 C 0.95167 0.40873 0.74804 0.0
C445 C 0.94123 0.42018 0.75717 0.0
C446 C 0.95487 0.44506 0.7521 0.0
C447 C 0.96165 0.44764 0.76794 0.0
C448 C 0.97474 0.45715 0.76951 0.0
C449 C 0.98126 0.46408 0.75491 0.0
C450 C 0.97426 0.46175 0.73897 0.0
C451 C 0.96096 0.45248 0.73783 0.0
C452 C 0.98168 0.45968 0.78676 0.0
C453 C 0.98099 0.46872 0.72308 0.0
C454 C 0.95967 0.57147 0.75179 0.0
C455 C 0.96569 0.5667 0.76742 0.0
C456 C 0.97813 0.55643 0.76859 0.0
C457 C 0.9847 0.55077 0.75369 0.0
C458 C 0.97846 0.55519 0.73782 0.0
C459 C 0.96595 0.56542 0.73701 0.0
C460 C 0.9844 0.5518 0.78573 0.0
C461 C 0.98514 0.54925 0.7217 0.0
C462 C 0.10219 0.55601 0.76053 0.0
C463 C 0.09498 0.57006 0.75096 0.0
C464 C 0.06822 0.5659 0.75755 0.0
C465 C 0.05939 0.56454 0.77198 0.0
C466 C 0.04572 0.55588 0.77186 0.0
C467 C 0.04054 0.54881 0.75674 0.0
C468 C 0.04914 0.55065 0.7419 0.0
C469 C 0.06296 0.55907 0.74249 0.0
C470 C 0.03683 0.55425 0.78791 0.0
C471 C 0.04368 0.54384 0.72538 0.0
C472 C 0.02323 0.47225 0.75915 0.0
C473 C 0.00916 0.46456 0.75791 0.0
C474 C 0.99573 0.4732 0.75627 0.0
C475 C 0.99628 0.49006 0.75603 0.0
C476 C 0.98298 0.49915 0.75506 0.0
C477 C 0.98364 0.51573 0.75468 0.0
C478 C 0.99764 0.52385 0.75523 0.0
C479 C 0.99844 0.54069 0.75471 0.0
C480 C 0.01254 0.54839 0.75519 0.0
C481 C 0.02599 0.53975 0.75636 0.0
C482 C 0.02542 0.52289 0.75707 0.0
C483 C 0.0387 0.5138 0.75848 0.0
C484 C 0.03803 0.49722 0.75903 0.0
C485 C 0.02405 0.48909 0.75835 0.0
C486 C 0.01051 0.49801 0.75689 0.0
C487 C 0.01119 0.51493 0.75638 0.0
C488 C 0.95269 0.60276 0.73111 0.0
C489 C 0.94172 0.58993 0.73782 0.0
O490 O 0.07356 0.43202 0.77021 0.0
O491 O 0.08152 0.57415 0.75856 0.0
O492 O 0.94803 0.58202 0.75165 0.0
O493 O 0.94257 0.43538 0.75019 0.0
H494 H 0.06286 0.4112 0.76379 0.0
H495 H 0.05526 0.41757 0.79285 0.0
H496 H 0.07477 0.41729 0.80002 0.0
H497 H 0.06549 0.39919 0.79305 0.0
H498 H 0.06043 0.43727 0.74094 0.0
H499 H 0.06086 0.44899 0.79319 0.0
H500 H 0.02545 0.4502 0.72988 0.0
H501 H 0.04417 0.45013 0.72109 0.0
H502 H 0.03562 0.46862 0.72723 0.0
H503 H 0.04174 0.46441 0.80533 0.0
H504 H 0.02415 0.46641 0.79363 0.0
H505 H 0.03847 0.48161 0.79197 0.0
H506 H 0.94456 0.42031 0.77072 0.0
H507 H 0.9506 0.39648 0.75344 0.0
H508 H 0.96366 0.41262 0.74955 0.0
H509 H 0.94878 0.40846 0.73438 0.0
H510 H 0.95666 0.44238 0.77911 0.0
H511 H 0.95556 0.45051 0.72569 0.0
H512 H 0.98399 0.47255 0.78872 0.0
H513 H 0.99266 0.45336 0.7877 0.0
H514 H 0.97425 0.45517 0.79699 0.0
H515 H 0.97494 0.4646 0.71156 0.0
H516 H 0.99311 0.46543 0.72226 0.0
H517 H 0.98044 0.48192 0.7234 0.0
H518 H 0.93911 0.58123 0.72772 0.0
H519 H 0.96072 0.5713 0.77876 0.0
H520 H 0.96131 0.56871 0.72479 0.0
H521 H 0.98478 0.53861 0.78702 0.0
H522 H 0.97756 0.55658 0.79613 0.0
H523 H 0.99619 0.55636 0.78706 0.0
H524 H 0.97896 0.55372 0.71032 0.0
H525 H 0.98489 0.53602 0.72171 0.0
H526 H 0.99719 0.55308 0.7209 0.0
H527 H 0.09284 0.5665 0.73771 0.0
H528 H 0.11303 0.55266 0.75462 0.0
H529 H 0.09447 0.54549 0.76019 0.0
H530 H 0.10442 0.55913 0.7739 0.0
H531 H 0.06345 0.57004 0.78349 0.0
H532 H 0.06936 0.56057 0.73105 0.0
H533 H 0.03391 0.54154 0.79039 0.0
H534 H 0.02605 0.56089 0.7865 0.0
H535 H 0.04317 0.55896 0.79898 0.0
H536 H 0.05085 0.54771 0.71465 0.0
H537 H 0.03182 0.54751 0.72272 0.0
H538 H 0.0438 0.53063 0.7262 0.0
H539 H 0.00863 0.45164 0.75839 0.0
H540 H 0.97189 0.49354 0.75461 0.0
H541 H 0.97304 0.5221 0.7539 0.0
H542 H 0.01306 0.56131 0.75467 0.0
H543 H 0.04979 0.5194 0.75916 0.0
H544 H 0.04863 0.49085 0.76 0.0
H545 H 0.9557 0.61136 0.74115 0.0
H546 H 0.94742 0.60934 0.72031 0.0
H547 H 0.96328 0.59733 0.72663 0.0
C548 C 0.25228 0.06018 0.61044 0.0
C549 C 0.26478 0.07086 0.60302 0.0
C550 C 0.26489 0.06106 0.57447 0.0
C551 C 0.27908 0.05388 0.57315 0.0
C552 C 0.28129 0.04147 0.56177 0.0
C553 C 0.26895 0.03599 0.55176 0.0
C554 C 0.25464 0.04339 0.553 0.0
C555 C 0.25291 0.0561 0.5641 0.0
C556 C 0.29677 0.03411 0.56059 0.0
C557 C 0.24107 0.03767 0.54294 0.0
C558 C 0.26376 0.91055 0.58933 0.0
C559 C 0.26008 0.92435 0.57804 0.0
C560 C 0.27194 0.94786 0.56513 0.0
C561 C 0.25819 0.95487 0.55988 0.0
C562 C 0.25805 0.96958 0.55124 0.0
C563 C 0.2719 0.97747 0.54774 0.0
C564 C 0.28574 0.9705 0.55302 0.0
C565 C 0.28556 0.95577 0.56165 0.0
C566 C 0.24309 0.97673 0.54584 0.0
C567 C 0.3007 0.97865 0.54955 0.0
C568 C 0.2732 0.95851 0.43401 0.0
C569 C 0.25956 0.96506 0.4392 0.0
C570 C 0.25936 0.97795 0.45028 0.0
C571 C 0.27321 0.98442 0.45636 0.0
C572 C 0.28706 0.97765 0.4515 0.0
C573 C 0.28694 0.96472 0.44046 0.0
C574 C 0.24437 0.98478 0.45535 0.0
C575 C 0.30202 0.98421 0.45786 0.0
C576 C 0.28982 0.10663 0.45007 0.0
C577 C 0.28593 0.09821 0.43352 0.0
C578 C 0.27436 0.07305 0.44373 0.0
C579 C 0.26062 0.06502 0.44621 0.0
C580 C 0.26006 0.05017 0.45457 0.0
C581 C 0.27366 0.04311 0.46048 0.0
C582 C 0.28766 0.05101 0.4578 0.0
C583 C 0.28788 0.06591 0.44951 0.0
C584 C 0.24495 0.04204 0.45718 0.0
C585 C 0.30239 0.04371 0.46378 0.0
C586 C 0.27078 0.02201 0.54068 0.0
C587 C 0.27097 0.00688 0.54829 0.0
C588 C 0.27187 0.9931 0.5387 0.0
C589 C 0.27237 0.99433 0.52092 0.0
C590 C 0.2728 0.9807 0.51085 0.0
C591 C 0.27304 0.98202 0.49335 0.0
C592 C 0.27301 0.99704 0.48526 0.0
C593 C 0.2732 0.99851 0.46748 0.0
C594 C 0.27336 0.01364 0.45985 0.0
C595 C 0.27326 0.02746 0.46949 0.0
C596 C 0.27287 0.02623 0.48728 0.0
C597 C 0.2726 0.03986 0.49736 0.0
C598 C 0.27209 0.03853 0.51485 0.0
C599 C 0.27174 0.02351 0.52294 0.0
C600 C 0.27232 0.0096 0.51303 0.0
C601 C 0.27276 0.01096 0.49517 0.0
C602 C 0.29054 0.95152 0.40076 0.0
C603 C 0.28452 0.93981 0.41418 0.0
O604 O 0.26245 0.07269 0.58578 0.0
O605 O 0.27398 0.08759 0.43584 0.0
O606 O 0.27253 0.94646 0.42269 0.0
O607 O 0.27252 0.93363 0.57357 0.0
H608 H 0.27593 0.06514 0.60556 0.0
H609 H 0.25256 0.0482 0.60468 0.0
H610 H 0.24096 0.06547 0.60795 0.0
H611 H 0.25396 0.05861 0.62426 0.0
H612 H 0.28844 0.05804 0.58093 0.0
H613 H 0.24202 0.06183 0.56522 0.0
H614 H 0.2965 0.02197 0.56633 0.0
H615 H 0.30562 0.04124 0.56723 0.0
H616 H 0.29999 0.03293 0.54719 0.0
H617 H 0.23037 0.04315 0.54714 0.0
H618 H 0.23992 0.0245 0.54403 0.0
H619 H 0.24262 0.04075 0.52943 0.0
H620 H 0.25256 0.92147 0.56707 0.0
H621 H 0.25273 0.91589 0.61177 0.0
H622 H 0.27638 0.90882 0.58866 0.0
H623 H 0.26086 0.89969 0.58172 0.0
H624 H 0.24752 0.94897 0.5625 0.0
H625 H 0.29611 0.95033 0.56575 0.0
H626 H 0.24283 0.97854 0.53196 0.0
H627 H 0.24183 0.9886 0.55164 0.0
H628 H 0.23328 0.9691 0.54948 0.0
H629 H 0.31049 0.97165 0.55442 0.0
H630 H 0.30095 0.99056 0.55549 0.0
H631 H 0.30197 0.98055 0.53577 0.0
H632 H 0.29377 0.93683 0.42332 0.0
H633 H 0.24902 0.96016 0.43431 0.0
H634 H 0.29763 0.9597 0.43686 0.0
H635 H 0.24351 0.98461 0.4693 0.0
H636 H 0.23458 0.97809 0.44995 0.0
H637 H 0.24368 0.99741 0.45105 0.0
H638 H 0.31184 0.97758 0.45299 0.0
H639 H 0.30238 0.98364 0.47185 0.0
H640 H 0.30316 0.99694 0.45403 0.0
H641 H 0.29604 0.09168 0.42917 0.0
H642 H 0.29926 0.11528 0.44816 0.0
H643 H 0.29343 0.09788 0.45991 0.0
H644 H 0.2798 0.11309 0.45474 0.0
H645 H 0.25025 0.07055 0.4417 0.0
H646 H 0.29867 0.07183 0.44769 0.0
H647 H 0.24329 0.03954 0.47081 0.0
H648 H 0.24475 0.03044 0.45064 0.0
H649 H 0.23535 0.04935 0.45235 0.0
H650 H 0.3124 0.051 0.46005 0.0
H651 H 0.30351 0.03159 0.45853 0.0
H652 H 0.30239 0.04245 0.47772 0.0
H653 H 0.27023 0.00579 0.5619 0.0
H654 H 0.27287 0.96883 0.51638 0.0
H655 H 0.27327 0.97112 0.48625 0.0
H656 H 0.2736 0.01468 0.44621 0.0
H657 H 0.27273 0.05174 0.49185 0.0
H658 H 0.27192 0.04943 0.52197 0.0
H659 H 0.28136 0.95492 0.39171 0.0
H660 H 0.2999 0.94602 0.39372 0.0
H661 H 0.29504 0.96253 0.40663 0.0
C662 C 0.45393 0.75082 0.10541 0.0
C663 C 0.44208 0.74619 0.09198 0.0
C664 C 0.45825 0.73209 0.07215 0.0
C665 C 0.46509 0.74577 0.065 0.0
C666 C 0.47742 0.74452 0.05415 0.0
C667 C 0.48316 0.72931 0.05042 0.0
C668 C 0.4761 0.7155 0.05719 0.0
C669 C 0.46363 0.71708 0.06786 0.0
C670 C 0.48457 0.75952 0.04699 0.0
C671 C 0.48197 0.69911 0.05349 0.0
C672 C 0.56782 0.75506 0.10546 0.0
C673 C 0.57498 0.73964 0.09933 0.0
C674 C 0.56449 0.73755 0.07129 0.0
C675 C 0.55798 0.72234 0.07009 0.0
C676 C 0.54529 0.71969 0.05962 0.0
C677 C 0.53887 0.73262 0.05043 0.0
C678 C 0.54557 0.74799 0.05155 0.0
C679 C 0.55852 0.75017 0.06176 0.0
C680 C 0.53859 0.70312 0.05858 0.0
C681 C 0.53885 0.76217 0.04233 0.0
C682 C 0.56472 0.73153 0.94027 0.0
C683 C 0.56137 0.71684 0.94804 0.0
C684 C 0.54799 0.71471 0.95722 0.0
C685 C 0.53801 0.7277 0.95899 0.0
C686 C 0.54133 0.74246 0.95094 0.0
C687 C 0.55454 0.74408 0.94142 0.0
C688 C 0.5445 0.6986 0.96499 0.0
C689 C 0.53098 0.75658 0.95249 0.0
C690 C 0.42177 0.70516 0.94458 0.0
C691 C 0.42891 0.71846 0.93383 0.0
C692 C 0.45599 0.71645 0.9394 0.0
C693 C 0.46553 0.70358 0.94275 0.0
C694 C 0.47862 0.70537 0.9528 0.0
C695 C 0.48246 0.72057 0.95919 0.0
C696 C 0.47306 0.73377 0.95535 0.0
C697 C 0.45983 0.73153 0.9456 0.0
C698 C 0.48836 0.69102 0.95655 0.0
C699 C 0.47712 0.75028 0.96131 0.0
C700 C 0.49719 0.72807 0.04041 0.0
C701 C 0.51103 0.72984 0.04897 0.0
C702 C 0.52473 0.73023 0.04036 0.0
C703 C 0.52471 0.72886 0.02262 0.0
C704 C 0.53824 0.72954 0.01349 0.0
C705 C 0.53806 0.72875 0.996 0.0
C706 C 0.52437 0.72676 0.98696 0.0
C707 C 0.52407 0.7259 0.96917 0.0
C708 C 0.51027 0.72384 0.96061 0.0
C709 C 0.49662 0.72272 0.96929 0.0
C710 C 0.49665 0.72371 0.98708 0.0
C711 C 0.48313 0.72277 0.99625 0.0
C712 C 0.48326 0.72426 0.0137 0.0
C713 C 0.49694 0.72635 0.0227 0.0
C714 C 0.51075 0.7269 0.01377 0.0
C715 C 0.51059 0.72572 0.99593 0.0
C716 C 0.59701 0.74281 0.95003 0.0
C717 C 0.59207 0.73043 0.93696 0.0
O718 O 0.44673 0.73282 0.08339 0.0
O719 O 0.44348 0.71411 0.92961 0.0
O720 O 0.57752 0.73387 0.93127 0.0
O721 O 0.57631 0.74028 0.08194 0.0
H722 H 0.44053 0.7563 0.08294 0.0
H723 H 0.46486 0.75403 0.09947 0.0
H724 H 0.45589 0.74074 0.1144 0.0
H725 H 0.45005 0.76131 0.11251 0.0
H726 H 0.46105 0.75752 0.06792 0.0
H727 H 0.45827 0.70658 0.0733 0.0
H728 H 0.49615 0.76101 0.05242 0.0
H729 H 0.47793 0.77033 0.04977 0.0
H730 H 0.48567 0.75857 0.03312 0.0
H731 H 0.47515 0.68952 0.05962 0.0
H732 H 0.49391 0.69813 0.05797 0.0
H733 H 0.48185 0.69722 0.03968 0.0
H734 H 0.5675 0.72943 0.103 0.0
H735 H 0.56673 0.75475 0.11939 0.0
H736 H 0.55631 0.75645 0.09985 0.0
H737 H 0.57485 0.76555 0.10174 0.0
H738 H 0.56284 0.7126 0.07741 0.0
H739 H 0.56371 0.76187 0.06283 0.0
H740 H 0.52736 0.70287 0.0647 0.0
H741 H 0.54591 0.69406 0.06487 0.0
H742 H 0.53682 0.69981 0.04519 0.0
H743 H 0.54448 0.77354 0.04593 0.0
H744 H 0.52657 0.763 0.04499 0.0
H745 H 0.54004 0.76067 0.02855 0.0
H746 H 0.59236 0.71839 0.94298 0.0
H747 H 0.56901 0.70694 0.94665 0.0
H748 H 0.55719 0.75531 0.93517 0.0
H749 H 0.54549 0.6993 0.97892 0.0
H750 H 0.55233 0.68926 0.96065 0.0
H751 H 0.53268 0.69494 0.96186 0.0
H752 H 0.53597 0.76765 0.94696 0.0
H753 H 0.52847 0.75867 0.96595 0.0
H754 H 0.52007 0.75406 0.9459 0.0
H755 H 0.42914 0.72957 0.94132 0.0
H756 H 0.41016 0.70846 0.94837 0.0
H757 H 0.42868 0.70317 0.95621 0.0
H758 H 0.4212 0.69386 0.93746 0.0
H759 H 0.46254 0.69204 0.93767 0.0
H760 H 0.4527 0.74162 0.94247 0.0
H761 H 0.49077 0.69003 0.97029 0.0
H762 H 0.49937 0.69249 0.95009 0.0
H763 H 0.48293 0.67977 0.95227 0.0
H764 H 0.46952 0.75952 0.95578 0.0
H765 H 0.489 0.75329 0.95797 0.0
H766 H 0.47632 0.75066 0.97524 0.0
H767 H 0.51112 0.73126 0.06254 0.0
H768 H 0.54913 0.73091 0.01977 0.0
H769 H 0.54881 0.72965 0.98966 0.0
H770 H 0.51014 0.72321 0.94696 0.0
H771 H 0.47227 0.72107 0.99 0.0
H772 H 0.4725 0.72368 0.02008 0.0
H773 H 0.59702 0.75497 0.94428 0.0
H774 H 0.60853 0.74018 0.95508 0.0
H775 H 0.5891 0.74258 0.96079 0.0
C776 C 0.78906 0.07491 0.60427 0.0
C777 C 0.78171 0.08538 0.59044 0.0
C778 C 0.77098 0.0646 0.572 0.0
C779 C 0.78482 0.05938 0.56555 0.0
C780 C 0.78544 0.04577 0.5555 0.0
C781 C 0.77194 0.03729 0.55164 0.0
C782 C 0.75794 0.0428 0.55763 0.0
C783 C 0.75765 0.05641 0.56772 0.0
C784 C 0.80056 0.04026 0.54923 0.0
C785 C 0.74331 0.03415 0.55359 0.0
C786 C 0.78547 0.91455 0.56387 0.0
C787 C 0.77504 0.92176 0.57696 0.0
C788 C 0.77898 0.95029 0.57274 0.0
C789 C 0.76491 0.9549 0.56591 0.0
C790 C 0.76351 0.96905 0.55639 0.0
C791 C 0.77649 0.9787 0.55353 0.0
C792 C 0.7906 0.97429 0.56081 0.0
C793 C 0.7916 0.96021 0.57053 0.0
C794 C 0.74817 0.9737 0.54938 0.0
C795 C 0.80463 0.98436 0.55817 0.0
C796 C 0.77848 0.94987 0.44201 0.0
C797 C 0.76471 0.95345 0.44948 0.0
C798 C 0.76326 0.96714 0.45931 0.0
C799 C 0.776 0.97728 0.46184 0.0
C800 C 0.78997 0.97357 0.45433 0.0
C801 C 0.79096 0.96002 0.44425 0.0
C802 C 0.74807 0.97094 0.46668 0.0
C803 C 0.80381 0.98401 0.45673 0.0
C804 C 0.78047 0.10037 0.44459 0.0
C805 C 0.78236 0.08964 0.42931 0.0
C806 C 0.77237 0.06389 0.43978 0.0
C807 C 0.75929 0.05446 0.4409 0.0
C808 C 0.75891 0.04064 0.45109 0.0
C809 C 0.77213 0.03591 0.46006 0.0
C810 C 0.78554 0.04517 0.45868 0.0
C811 C 0.78546 0.05919 0.44884 0.0
C812 C 0.74437 0.03112 0.45231 0.0
C813 C 0.80006 0.04023 0.46753 0.0
C814 C 0.77259 0.02227 0.54199 0.0
C815 C 0.77401 0.00798 0.55112 0.0
C816 C 0.77526 0.99341 0.54297 0.0
C817 C 0.77522 0.993 0.52515 0.0
C818 C 0.77691 0.97861 0.51651 0.0
C819 C 0.77672 0.97831 0.49898 0.0
C820 C 0.77481 0.99239 0.48939 0.0
C821 C 0.77454 0.99221 0.47155 0.0
C822 C 0.77324 0.00654 0.46245 0.0
C823 C 0.7721 0.02112 0.47061 0.0
C824 C 0.77182 0.02148 0.48842 0.0
C825 C 0.77018 0.03587 0.49705 0.0
C826 C 0.7704 0.03617 0.51459 0.0
C827 C 0.77216 0.02207 0.52417 0.0
C828 C 0.77353 0.00738 0.51573 0.0
C829 C 0.77333 0.00707 0.49783 0.0
C830 C 0.8013 0.922 0.43992 0.0
C831 C 0.78408 0.9222 0.43704 0.0
O832 O 0.76992 0.07722 0.58253 0.0
O833 O 0.77184 0.07726 0.42983 0.0
O834 O 0.77945 0.93722 0.4317 0.0
O835 O 0.78068 0.93652 0.58175 0.0
H836 H 0.79036 0.08885 0.58097 0.0
H837 H 0.79416 0.06414 0.59885 0.0
H838 H 0.78049 0.07102 0.61364 0.0
H839 H 0.79822 0.08164 0.61086 0.0
H840 H 0.79524 0.0657 0.56842 0.0
H841 H 0.747 0.06056 0.57259 0.0
H842 H 0.80283 0.02801 0.55404 0.0
H843 H 0.81004 0.04819 0.55324 0.0
H844 H 0.80029 0.03981 0.53525 0.0
H845 H 0.73327 0.04041 0.55845 0.0
H846 H 0.74364 0.02196 0.5592 0.0
H847 H 0.742 0.0329 0.53973 0.0
H848 H 0.76358 0.92298 0.57115 0.0
H849 H 0.78115 0.90264 0.56002 0.0
H850 H 0.79716 0.91327 0.56907 0.0
H851 H 0.78588 0.92237 0.55248 0.0
H852 H 0.75494 0.94764 0.56823 0.0
H853 H 0.80236 0.95667 0.57609 0.0
H854 H 0.7456 0.98617 0.55276 0.0
H855 H 0.73897 0.96577 0.55409 0.0
H856 H 0.74827 0.97311 0.53542 0.0
H857 H 0.81496 0.97866 0.56358 0.0
H858 H 0.80318 0.9961 0.56419 0.0
H859 H 0.80633 0.9866 0.54449 0.0
H860 H 0.77843 0.91907 0.44913 0.0
H861 H 0.75506 0.94563 0.44736 0.0
H862 H 0.80146 0.95735 0.43801 0.0
H863 H 0.74883 0.97016 0.48064 0.0
H864 H 0.73901 0.96265 0.46231 0.0
H865 H 0.7448 0.98333 0.46322 0.0
H866 H 0.81425 0.97831 0.45209 0.0
H867 H 0.80545 0.98683 0.47027 0.0
H868 H 0.80219 0.99544 0.44974 0.0
H869 H 0.79403 0.08478 0.42941 0.0
H870 H 0.78883 0.11034 0.44423 0.0
H871 H 0.78239 0.09344 0.45643 0.0
H872 H 0.76885 0.10536 0.44474 0.0
H873 H 0.74924 0.05811 0.4339 0.0
H874 H 0.79574 0.06623 0.44826 0.0
H875 H 0.74163 0.02872 0.46574 0.0
H876 H 0.74582 0.01945 0.44616 0.0
H877 H 0.73467 0.03734 0.44615 0.0
H878 H 0.81 0.04722 0.46305 0.0
H879 H 0.80224 0.02738 0.46556 0.0
H880 H 0.79901 0.04206 0.48128 0.0
H881 H 0.7742 0.0082 0.56479 0.0
H882 H 0.77842 0.9674 0.52323 0.0
H883 H 0.77811 0.9669 0.49303 0.0
H884 H 0.77341 0.00637 0.44878 0.0
H885 H 0.76876 0.04709 0.49034 0.0
H886 H 0.76918 0.0476 0.52055 0.0
H887 H 0.80724 0.92614 0.42838 0.0
H888 H 0.80518 0.90978 0.44329 0.0
H889 H 0.80453 0.92986 0.45052 0.0
C890 C 0.45353 0.26666 0.1045 0.0
C891 C 0.45038 0.28452 0.10221 0.0
C892 C 0.46072 0.29068 0.0749 0.0
C893 C 0.46652 0.30601 0.07205 0.0
C894 C 0.47894 0.30852 0.06141 0.0
C895 C 0.48573 0.29532 0.05363 0.0
C896 C 0.47977 0.27979 0.05648 0.0
C897 C 0.46711 0.27772 0.06683 0.0
C898 C 0.48483 0.32525 0.05851 0.0
C899 C 0.48683 0.26536 0.04872 0.0
C900 C 0.5837 0.33053 0.09714 0.0
C901 C 0.58308 0.31267 0.09351 0.0
C902 C 0.5688 0.30821 0.06795 0.0
C903 C 0.56315 0.29285 0.06525 0.0
C904 C 0.54934 0.29051 0.05659 0.0
C905 C 0.5411 0.3039 0.05059 0.0
C906 C 0.54688 0.31946 0.05332 0.0
C907 C 0.56079 0.32142 0.06184 0.0
C908 C 0.54359 0.27377 0.05376 0.0
C909 C 0.53837 0.33399 0.04719 0.0
C910 C 0.56262 0.30327 0.93902 0.0
C911 C 0.55856 0.2888 0.94689 0.0
C912 C 0.54556 0.28766 0.95687 0.0
C913 C 0.53659 0.30135 0.9592 0.0
C914 C 0.54054 0.31587 0.95103 0.0
C915 C 0.55341 0.31656 0.94083 0.0
C916 C 0.54138 0.27182 0.96484 0.0
C917 C 0.53123 0.33068 0.95316 0.0
C918 C 0.41917 0.29534 0.95553 0.0
C919 C 0.42621 0.29878 0.93828 0.0
C920 C 0.45285 0.2924 0.94486 0.0
C921 C 0.46279 0.27957 0.94619 0.0
C922 C 0.47667 0.28094 0.9549 0.0
C923 C 0.4809 0.29571 0.96203 0.0
C924 C 0.47115 0.30895 0.96018 0.0
C925 C 0.45711 0.3071 0.95186 0.0
C926 C 0.48674 0.26654 0.95662 0.0
C927 C 0.47553 0.32507 0.967 0.0
C928 C 0.4992 0.29769 0.04277 0.0
C929 C 0.51333 0.29971 0.05068 0.0
C930 C 0.52653 0.30163 0.04131 0.0
C931 C 0.52574 0.30143 0.0235 0.0
C932 C 0.53882 0.30313 0.0137 0.0
C933 C 0.53794 0.30291 0.99618 0.0
C934 C 0.52394 0.30087 0.98778 0.0
C935 C 0.52295 0.30039 0.96998 0.0
C936 C 0.5088 0.29874 0.96205 0.0
C937 C 0.49553 0.29732 0.97138 0.0
C938 C 0.49632 0.2974 0.98921 0.0
C939 C 0.48325 0.29562 0.99903 0.0
C940 C 0.48413 0.2959 0.01654 0.0
C941 C 0.49815 0.29768 0.02495 0.0
C942 C 0.51149 0.29947 0.01531 0.0
C943 C 0.51058 0.29927 0.99742 0.0
C944 C 0.5971 0.31161 0.94539 0.0
C945 C 0.58947 0.29942 0.93379 0.0
O946 O 0.44877 0.28846 0.08525 0.0
O947 O 0.43937 0.29003 0.93671 0.0
O948 O 0.57509 0.30466 0.92927 0.0
O949 O 0.58213 0.31025 0.0763 0.0
H950 H 0.46013 0.29135 0.10765 0.0
H951 H 0.4648 0.26375 0.09942 0.0
H952 H 0.44471 0.25947 0.09789 0.0
H953 H 0.45366 0.26326 0.11809 0.0
H954 H 0.46132 0.31597 0.07823 0.0
H955 H 0.46228 0.26594 0.0688 0.0
H956 H 0.49628 0.32644 0.06432 0.0
H957 H 0.47734 0.33434 0.064 0.0
H958 H 0.48591 0.32773 0.04479 0.0
H959 H 0.48207 0.25403 0.05388 0.0
H960 H 0.49928 0.26548 0.05094 0.0
H961 H 0.48481 0.26566 0.03489 0.0
H962 H 0.57282 0.30756 0.09972 0.0
H963 H 0.58534 0.33251 0.11086 0.0
H964 H 0.5729 0.33622 0.09319 0.0
H965 H 0.59315 0.33639 0.09022 0.0
H966 H 0.56956 0.28274 0.06997 0.0
H967 H 0.56544 0.33325 0.06378 0.0
H968 H 0.53256 0.27206 0.06014 0.0
H969 H 0.55162 0.26463 0.05863 0.0
H970 H 0.54161 0.27188 0.04009 0.0
H971 H 0.54392 0.34526 0.05124 0.0
H972 H 0.52662 0.33363 0.05201 0.0
H973 H 0.53762 0.33401 0.03321 0.0
H974 H 0.58878 0.28783 0.94071 0.0
H975 H 0.56531 0.2783 0.94495 0.0
H976 H 0.55654 0.32761 0.93449 0.0
H977 H 0.54267 0.27255 0.97874 0.0
H978 H 0.54859 0.26199 0.96039 0.0
H979 H 0.52933 0.26886 0.962 0.0
H980 H 0.53656 0.34136 0.9472 0.0
H981 H 0.52964 0.33299 0.96677 0.0
H982 H 0.51983 0.32887 0.94739 0.0
H983 H 0.42878 0.31172 0.93699 0.0
H984 H 0.40866 0.30235 0.95704 0.0
H985 H 0.4272 0.29874 0.96578 0.0
H986 H 0.4164 0.28245 0.95694 0.0
H987 H 0.45946 0.26832 0.94067 0.0
H988 H 0.4497 0.31724 0.95077 0.0
H989 H 0.49018 0.26466 0.97001 0.0
H990 H 0.4972 0.26859 0.94926 0.0
H991 H 0.48108 0.25553 0.95201 0.0
H992 H 0.46788 0.33463 0.96227 0.0
H993 H 0.48734 0.3282 0.9635 0.0
H994 H 0.47501 0.32471 0.98096 0.0
H995 H 0.51407 0.29973 0.06434 0.0
H996 H 0.54992 0.30464 0.01945 0.0
H997 H 0.54838 0.30433 0.98931 0.0
H998 H 0.50812 0.29851 0.94839 0.0
H999 H 0.47216 0.29403 0.99328 0.0
H1000 H 0.47367 0.29462 0.02341 0.0
H1001 H 0.60863 0.30759 0.9492 0.0
H1002 H 0.59034 0.31296 0.95698 0.0
H1003 H 0.598 0.32341 0.93892 0.0
H1004 H 0.20274 0.35373 0.27784 0.0
H1005 H 0.18164 0.37259 0.27772 0.0
H1006 H 0.17922 0.37083 0.22346 0.0
H1007 H 0.20009 0.35198 0.22349 0.0
H1008 H 0.18105 0.40106 0.23465 0.0
H1009 H 0.1522 0.35335 0.24792 0.0
H1010 H 0.14576 0.32936 0.26473 0.0
H1011 H 0.13824 0.35827 0.30797 0.0
H1012 H 0.14485 0.38243 0.29147 0.0
H1013 H 0.11171 0.4448 0.20435 0.0
H1014 H 0.13478 0.42155 0.21206 0.0
H1015 H 0.1279 0.42833 0.27408 0.0
H1016 H 0.1045 0.45197 0.26805 0.0
H1017 H 0.13154 0.39515 0.26306 0.0
H1018 H 0.15861 0.44253 0.25033 0.0
H1019 H 0.16539 0.46704 0.23458 0.0
H1020 H 0.17718 0.43925 0.19176 0.0
H1021 H 0.17025 0.41457 0.20717 0.0
C1022 C 0.19752 0.35716 0.26591 0.0
C1023 C 0.20321 0.3515 0.25065 0.0
C1024 C 0.18548 0.36794 0.26587 0.0
C1025 C 0.17887 0.37315 0.25057 0.0
C1026 C 0.18421 0.36708 0.23541 0.0
C1027 C 0.1962 0.35635 0.23544 0.0
C1028 C 0.16712 0.38571 0.25006 0.0
C1029 C 0.17015 0.39964 0.24067 0.0
C1030 C 0.15317 0.3842 0.2586 0.0
C1031 C 0.1492 0.36968 0.26851 0.0
C1032 C 0.14932 0.35458 0.26105 0.0
C1033 C 0.1456 0.34095 0.27052 0.0
C1034 C 0.14164 0.34228 0.28742 0.0
C1035 C 0.14134 0.35725 0.29488 0.0
C1036 C 0.14506 0.37092 0.28548 0.0
C1037 C 0.11517 0.44232 0.21725 0.0
C1038 C 0.10375 0.44871 0.2354 0.0
C1039 C 0.12893 0.42726 0.22219 0.0
C1040 C 0.13311 0.42163 0.24381 0.0
C1041 C 0.12449 0.43146 0.26133 0.0
C1042 C 0.11052 0.44675 0.25773 0.0
C1043 C 0.14533 0.41006 0.24703 0.0
C1044 C 0.14246 0.3965 0.25706 0.0
C1045 C 0.15953 0.41189 0.23919 0.0
C1046 C 0.16378 0.4267 0.22987 0.0
C1047 C 0.16254 0.44165 0.23751 0.0
C1048 C 0.16643 0.45557 0.22865 0.0
C1049 C 0.17168 0.45471 0.21216 0.0
C1050 C 0.17309 0.43991 0.20452 0.0
C1051 C 0.16921 0.42594 0.21333 0.0
H1052 H 0.17468 0.4655 0.20532 0.0
H1053 H 0.13877 0.33171 0.29472 0.0
H1054 H 0.20839 0.66466 0.73001 0.0
H1055 H 0.18645 0.64669 0.72921 0.0
H1056 H 0.16917 0.66831 0.77396 0.0
H1057 H 0.19114 0.68625 0.77487 0.0
H1058 H 0.16795 0.63693 0.77683 0.0
H1059 H 0.15287 0.67514 0.73455 0.0
H1060 H 0.15561 0.69172 0.70885 0.0
H1061 H 0.16005 0.64965 0.67923 0.0
H1062 H 0.15755 0.63281 0.7048 0.0
H1063 H 0.09803 0.59461 0.77385 0.0
H1064 H 0.11674 0.61629 0.77386 0.0
H1065 H 0.13613 0.59796 0.7285 0.0
H1066 H 0.11705 0.57666 0.72809 0.0
H1067 H 0.13507 0.62915 0.7264 0.0
H1068 H 0.15183 0.59109 0.7687 0.0
H1069 H 0.1493 0.57433 0.79431 0.0
H1070 H 0.14201 0.61602 0.82377 0.0
H1071 H 0.14429 0.63301 0.79828 0.0
C1072 C 0.1998 0.66575 0.73953 0.0
C1073 C 0.20151 0.67688 0.75251 0.0
C1074 C 0.18726 0.65547 0.73906 0.0
C1075 C 0.17606 0.65624 0.75144 0.0
C1076 C 0.17766 0.66747 0.76429 0.0
C1077 C 0.19024 0.6777 0.76482 0.0
C1078 C 0.16306 0.64486 0.75141 0.0
C1079 C 0.1606 0.63543 0.76589 0.0
C1080 C 0.15366 0.64262 0.73703 0.0
C1081 C 0.15515 0.65272 0.72162 0.0
C1082 C 0.15454 0.66943 0.72258 0.0
C1083 C 0.15604 0.67887 0.70803 0.0
C1084 C 0.15804 0.67174 0.69242 0.0
C1085 C 0.15852 0.65515 0.69133 0.0
C1086 C 0.15704 0.64566 0.70584 0.0
C1087 C 0.10611 0.59538 0.76372 0.0
C1088 C 0.10588 0.58412 0.75075 0.0
C1089 C 0.1169 0.60768 0.76383 0.0
C1090 C 0.12796 0.60869 0.75126 0.0
C1091 C 0.12768 0.5975 0.73828 0.0
C1092 C 0.11679 0.58533 0.73806 0.0
C1093 C 0.14006 0.62113 0.75176 0.0
C1094 C 0.14236 0.63075 0.73737 0.0
C1095 C 0.14935 0.62351 0.76622 0.0
C1096 C 0.14808 0.6133 0.78156 0.0
C1097 C 0.14959 0.59667 0.78062 0.0
C1098 C 0.14821 0.58713 0.79511 0.0
C1099 C 0.14546 0.5941 0.81065 0.0
C1100 C 0.14412 0.61063 0.81173 0.0
C1101 C 0.14546 0.62022 0.79726 0.0
H1102 H 0.14439 0.58669 0.82186 0.0
H1103 H 0.15919 0.67908 0.68117 0.0
H1104 H 0.83197 0.68227 0.21567 0.0
H1105 H 0.85303 0.66353 0.217 0.0
H1106 H 0.84884 0.66007 0.27102 0.0
H1107 H 0.8277 0.67871 0.26978 0.0
H1108 H 0.87835 0.66235 0.26166 0.0
H1109 H 0.8342 0.63127 0.24577 0.0
H1110 H 0.81185 0.62479 0.2281 0.0
H1111 H 0.84027 0.62016 0.185 0.0
H1112 H 0.86278 0.62682 0.20238 0.0
H1113 H 0.91606 0.59064 0.28124 0.0
H1114 H 0.89793 0.6122 0.27709 0.0
H1115 H 0.90337 0.60951 0.22326 0.0
H1116 H 0.92124 0.58753 0.22738 0.0
H1117 H 0.8745 0.61162 0.23048 0.0
H1118 H 0.9189 0.6408 0.24633 0.0
H1119 H 0.94143 0.64746 0.26361 0.0
H1120 H 0.91314 0.65611 0.30605 0.0
H1121 H 0.89044 0.64928 0.28908 0.0
C1122 C 0.83549 0.67747 0.22783 0.0
C1123 C 0.82807 0.68191 0.24261 0.0
C1124 C 0.84755 0.66679 0.22857 0.0
C1125 C 0.85239 0.66025 0.24409 0.0
C1126 C 0.8453 0.66499 0.25891 0.0
C1127 C 0.83324 0.67568 0.25818 0.0
C1128 C 0.8646 0.64819 0.24489 0.0
C1129 C 0.87746 0.65119 0.25497 0.0
C1130 C 0.86365 0.63384 0.23575 0.0
C1131 C 0.85014 0.6297 0.22533 0.0
C1132 C 0.83566 0.62898 0.2325 0.0
C1133 C 0.82297 0.62526 0.22254 0.0
C1134 C 0.82463 0.62211 0.20543 0.0
C1135 C 0.839 0.62263 0.19825 0.0
C1136 C 0.85173 0.62636 0.20815 0.0
C1137 C 0.91356 0.59482 0.26853 0.0
C1138 C 0.92039 0.58769 0.25467 0.0
C1139 C 0.90322 0.60717 0.26616 0.0
C1140 C 0.89952 0.61275 0.24987 0.0
C1141 C 0.90617 0.60552 0.23596 0.0
C1142 C 0.91646 0.59306 0.23832 0.0
C1143 C 0.88822 0.62566 0.24744 0.0
C1144 C 0.87551 0.62283 0.23706 0.0
C1145 C 0.88936 0.6402 0.25623 0.0
C1146 C 0.90297 0.64441 0.26646 0.0
C1147 C 0.91749 0.64401 0.25938 0.0
C1148 C 0.93029 0.64784 0.26912 0.0
C1149 C 0.92872 0.65217 0.28593 0.0
C1150 C 0.91434 0.65274 0.29303 0.0
C1151 C 0.9015 0.64891 0.28335 0.0
H1152 H 0.93865 0.65512 0.29345 0.0
H1153 H 0.81479 0.61924 0.19774 0.0
H1154 H 0.8259 0.32942 0.76318 0.0
H1155 H 0.84655 0.34865 0.76686 0.0
H1156 H 0.83233 0.37348 0.72144 0.0
H1157 H 0.81169 0.35415 0.71761 0.0
H1158 H 0.86164 0.36873 0.72106 0.0
H1159 H 0.8276 0.38967 0.76115 0.0
H1160 H 0.81022 0.38902 0.78522 0.0
H1161 H 0.84636 0.37316 0.81794 0.0
H1162 H 0.86391 0.37351 0.79402 0.0
H1163 H 0.91925 0.42715 0.73284 0.0
H1164 H 0.89393 0.41529 0.72991 0.0
H1165 H 0.90199 0.38664 0.77468 0.0
H1166 H 0.92701 0.39897 0.77805 0.0
H1167 H 0.87386 0.39651 0.77434 0.0
H1168 H 0.90682 0.37252 0.73352 0.0
H1169 H 0.92422 0.37298 0.70945 0.0
H1170 H 0.8898 0.39452 0.67812 0.0
H1171 H 0.87226 0.39437 0.70208 0.0
C1172 C 0.827 0.33914 0.75414 0.0
C1173 C 0.81716 0.34026 0.7401 0.0
C1174 C 0.83881 0.35015 0.75627 0.0
C1175 C 0.84092 0.36264 0.74453 0.0
C1176 C 0.83094 0.36395 0.73066 0.0
C1177 C 0.81917 0.35288 0.72846 0.0
C1178 C 0.85414 0.37365 0.74616 0.0
C1179 C 0.86414 0.37506 0.73261 0.0
C1180 C 0.85757 0.38171 0.76131 0.0
C1181 C 0.84705 0.38151 0.77575 0.0
C1182 C 0.83182 0.38593 0.77345 0.0
C1183 C 0.82194 0.38563 0.78708 0.0
C1184 C 0.82718 0.38102 0.80309 0.0
C1185 C 0.84231 0.37672 0.80553 0.0
C1186 C 0.85224 0.37699 0.79194 0.0
C1187 C 0.91548 0.4186 0.74227 0.0
C1188 C 0.92501 0.41419 0.75588 0.0
C1189 C 0.90106 0.4117 0.74049 0.0
C1190 C 0.8961 0.39992 0.75197 0.0
C1191 C 0.90551 0.39575 0.76571 0.0
C1192 C 0.9198 0.40278 0.76762 0.0
C1193 C 0.88147 0.39131 0.74936 0.0
C1194 C 0.87122 0.39035 0.76273 0.0
C1195 C 0.8778 0.38363 0.73405 0.0
C1196 C 0.8883 0.38359 0.71963 0.0
C1197 C 0.90301 0.37744 0.72152 0.0
C1198 C 0.91288 0.37764 0.7079 0.0
C1199 C 0.90813 0.38382 0.69228 0.0
C1200 C 0.89347 0.38977 0.69023 0.0
C1201 C 0.88356 0.38962 0.70382 0.0
H1202 H 0.9158 0.38396 0.68175 0.0
H1203 H 0.81951 0.3808 0.81362 0.0
H1204 H 0.28429 0.21325 0.325 0.0
H1205 H 0.28759 0.18981 0.34325 0.0
H1206 H 0.24089 0.19255 0.35811 0.0
H1207 H 0.23737 0.21581 0.33962 0.0
H1208 H 0.25995 0.18805 0.38514 0.0
H1209 H 0.25135 0.1645 0.33123 0.0
H1210 H 0.25553 0.16038 0.30095 0.0
H1211 H 0.30131 0.14612 0.31159 0.0
H1212 H 0.29748 0.15039 0.34192 0.0
H1213 H 0.25857 0.11334 0.42816 0.0
H1214 H 0.25272 0.1348 0.40791 0.0
H1215 H 0.2984 0.13313 0.38939 0.0
H1216 H 0.30419 0.11147 0.40937 0.0
H1217 H 0.27857 0.13661 0.36378 0.0
H1218 H 0.28769 0.16129 0.4173 0.0
H1219 H 0.28385 0.16557 0.44761 0.0
H1220 H 0.23744 0.17797 0.43772 0.0
H1221 H 0.24096 0.17352 0.40736 0.0
C1222 C 0.27465 0.20877 0.33196 0.0
C1223 C 0.26055 0.21644 0.33078 0.0
C1224 C 0.27657 0.19538 0.34244 0.0
C1225 C 0.26445 0.18935 0.35194 0.0
C1226 C 0.2504 0.19702 0.35091 0.0
C1227 C 0.24844 0.21037 0.34038 0.0
C1228 C 0.26651 0.1752 0.36316 0.0
C1229 C 0.26379 0.17672 0.38043 0.0
C1230 C 0.27184 0.16053 0.35706 0.0
C1231 C 0.27417 0.15791 0.33884 0.0
C1232 C 0.26235 0.16061 0.3271 0.0
C1233 C 0.26465 0.15823 0.30993 0.0
C1234 C 0.27869 0.15303 0.30435 0.0
C1235 C 0.29045 0.15017 0.31593 0.0
C1236 C 0.28822 0.15256 0.33312 0.0
C1237 C 0.26727 0.11737 0.41956 0.0
C1238 C 0.28177 0.11053 0.42014 0.0
C1239 C 0.26396 0.12972 0.4081 0.0
C1240 C 0.27516 0.13567 0.39722 0.0
C1241 C 0.28956 0.12869 0.3976 0.0
C1242 C 0.29285 0.11632 0.40901 0.0
C1243 C 0.27209 0.14949 0.38579 0.0
C1244 C 0.27464 0.14791 0.36847 0.0
C1245 C 0.26666 0.16414 0.39185 0.0
C1246 C 0.26455 0.16691 0.41008 0.0
C1247 C 0.27664 0.16481 0.42161 0.0
C1248 C 0.27452 0.16728 0.43879 0.0
C1249 C 0.2604 0.17199 0.44459 0.0
C1250 C 0.24837 0.17429 0.43321 0.0
C1251 C 0.25042 0.1718 0.41601 0.0
H1252 H 0.25878 0.1739 0.4579 0.0
H1253 H 0.28045 0.15118 0.29105 0.0
H1254 H 0.32235 0.74737 0.82571 0.0
H1255 H 0.34047 0.74347 0.84899 0.0
H1256 H 0.37262 0.72395 0.81461 0.0
H1257 H 0.35446 0.72764 0.79127 0.0
H1258 H 0.37025 0.70638 0.84462 0.0
H1259 H 0.37743 0.76099 0.82701 0.0
H1260 H 0.36913 0.78829 0.81995 0.0
H1261 H 0.35246 0.79358 0.87012 0.0
H1262 H 0.36047 0.76621 0.8774 0.0
H1263 H 0.43291 0.70755 0.90119 0.0
H1264 H 0.41642 0.71173 0.87663 0.0
H1265 H 0.38589 0.73889 0.9068 0.0
H1266 H 0.40284 0.7355 0.9312 0.0
H1267 H 0.38804 0.75269 0.87788 0.0
H1268 H 0.37953 0.69838 0.89568 0.0
H1269 H 0.38678 0.67084 0.90322 0.0
H1270 H 0.40457 0.66455 0.85369 0.0
H1271 H 0.39761 0.69213 0.84593 0.0
C1272 C 0.33322 0.7421 0.82314 0.0
C1273 C 0.337 0.73785 0.80666 0.0
C1274 C 0.3436 0.73999 0.83642 0.0
C1275 C 0.35794 0.73357 0.83348 0.0
C1276 C 0.36163 0.72898 0.81712 0.0
C1277 C 0.35129 0.73119 0.8038 0.0
C1278 C 0.36912 0.7318 0.84748 0.0
C1279 C 0.37432 0.71651 0.85178 0.0
C1280 C 0.37413 0.74499 0.85701 0.0
C1281 C 0.36943 0.7615 0.8527 0.0
C1282 C 0.3719 0.76793 0.8365 0.0
C1283 C 0.36726 0.78342 0.83246 0.0
C1284 C 0.36024 0.79265 0.84456 0.0
C1285 C 0.35788 0.78641 0.86075 0.0
C1286 C 0.36248 0.77092 0.86484 0.0
C1287 C 0.42282 0.71464 0.90256 0.0
C1288 C 0.41929 0.72143 0.91812 0.0
C1289 C 0.41328 0.71686 0.88852 0.0
C1290 C 0.39975 0.72542 0.88988 0.0
C1291 C 0.39626 0.73227 0.90538 0.0
C1292 C 0.40593 0.73031 0.91932 0.0
C1293 C 0.38913 0.72719 0.87524 0.0
C1294 C 0.38403 0.74251 0.87077 0.0
C1295 C 0.38408 0.71399 0.86567 0.0
C1296 C 0.38818 0.69737 0.87028 0.0
C1297 C 0.38508 0.69115 0.88644 0.0
C1298 C 0.38912 0.67554 0.89075 0.0
C1299 C 0.39617 0.66596 0.87896 0.0
C1300 C 0.39913 0.67198 0.86282 0.0
C1301 C 0.39513 0.6876 0.85845 0.0
H1302 H 0.39929 0.65388 0.88232 0.0
H1303 H 0.35665 0.80464 0.84141 0.0
H1304 H 0.76585 0.82677 0.31 0.0
H1305 H 0.76457 0.84891 0.32967 0.0
H1306 H 0.77544 0.81691 0.37101 0.0
H1307 H 0.77634 0.79465 0.35151 0.0
H1308 H 0.75334 0.83804 0.37929 0.0
H1309 H 0.80271 0.84005 0.35305 0.0
H1310 H 0.81983 0.84154 0.32876 0.0
H1311 H 0.79995 0.88593 0.31298 0.0
H1312 H 0.78257 0.88459 0.33707 0.0
H1313 H 0.78071 0.89017 0.44207 0.0
H1314 H 0.77625 0.86946 0.42122 0.0
H1315 H 0.77307 0.90547 0.38196 0.0
H1316 H 0.7785 0.92609 0.40261 0.0
H1317 H 0.78917 0.88328 0.37122 0.0
H1318 H 0.74107 0.88303 0.39791 0.0
H1319 H 0.72321 0.88198 0.42153 0.0
H1320 H 0.73905 0.83535 0.43558 0.0
H1321 H 0.75716 0.8362 0.41218 0.0
C1322 C 0.76774 0.82439 0.32331 0.0
C1323 C 0.77132 0.80895 0.32917 0.0
C1324 C 0.76711 0.83708 0.33452 0.0
C1325 C 0.77011 0.8346 0.35178 0.0
C1326 C 0.77315 0.81911 0.35773 0.0
C1327 C 0.7738 0.80643 0.34655 0.0
C1328 C 0.77072 0.84817 0.36358 0.0
C1329 C 0.76123 0.8479 0.37763 0.0
C1330 C 0.7807 0.86127 0.36112 0.0
C1331 C 0.79125 0.86214 0.34675 0.0
C1332 C 0.80193 0.85007 0.34433 0.0
C1333 C 0.81168 0.8509 0.33061 0.0
C1334 C 0.81095 0.8638 0.31931 0.0
C1335 C 0.80049 0.87593 0.32173 0.0
C1336 C 0.7907 0.87515 0.33542 0.0
C1337 C 0.77885 0.89365 0.42901 0.0
C1338 C 0.77965 0.90979 0.4241 0.0
C1339 C 0.7762 0.88181 0.41709 0.0
C1340 C 0.77396 0.88586 0.39999 0.0
C1341 C 0.77465 0.902 0.39507 0.0
C1342 C 0.77763 0.91382 0.40694 0.0
C1343 C 0.77184 0.8732 0.38715 0.0
C1344 C 0.78109 0.87359 0.37288 0.0
C1345 C 0.7615 0.86033 0.38932 0.0
C1346 C 0.75055 0.85973 0.40336 0.0
C1347 C 0.74081 0.87259 0.4061 0.0
C1348 C 0.73063 0.87202 0.41944 0.0
C1349 C 0.73001 0.85862 0.43007 0.0
C1350 C 0.73955 0.84573 0.42735 0.0
C1351 C 0.74976 0.84624 0.41403 0.0
H1352 H 0.72213 0.8582 0.4404 0.0
H1353 H 0.81851 0.86441 0.30869 0.0
H1354 H 0.67177 0.30362 0.7986 0.0
H1355 H 0.6512 0.304 0.819 0.0
H1356 H 0.67806 0.27575 0.85381 0.0
H1357 H 0.69858 0.27514 0.8334 0.0
H1358 H 0.64786 0.26589 0.85224 0.0
H1359 H 0.67655 0.31496 0.85858 0.0
H1360 H 0.68797 0.34016 0.84835 0.0
H1361 H 0.64407 0.35693 0.83276 0.0
H1362 H 0.63242 0.33172 0.84268 0.0
H1363 H 0.61349 0.27957 0.93041 0.0
H1364 H 0.63042 0.27703 0.90651 0.0
H1365 H 0.60419 0.31183 0.87847 0.0
H1366 H 0.58768 0.31495 0.90267 0.0
H1367 H 0.6324 0.31813 0.87456 0.0
H1368 H 0.60305 0.27044 0.86961 0.0
H1369 H 0.59107 0.24527 0.87908 0.0
H1370 H 0.63483 0.22575 0.89078 0.0
H1371 H 0.64707 0.25088 0.8816 0.0
C1372 C 0.6732 0.2973 0.8105 0.0
C1373 C 0.68683 0.28943 0.81444 0.0
C1374 C 0.66149 0.29761 0.82218 0.0
C1375 C 0.66317 0.29004 0.83798 0.0
C1376 C 0.67655 0.28171 0.84171 0.0
C1377 C 0.6883 0.28147 0.83009 0.0
C1378 C 0.65129 0.29129 0.85092 0.0
C1379 C 0.64453 0.27728 0.85724 0.0
C1380 C 0.64665 0.3062 0.85705 0.0
C1381 C 0.65364 0.3214 0.85121 0.0
C1382 C 0.66935 0.32397 0.85285 0.0
C1383 C 0.67586 0.33827 0.84713 0.0
C1384 C 0.66676 0.35012 0.83987 0.0
C1385 C 0.65111 0.34773 0.83836 0.0
C1386 C 0.64455 0.33345 0.84404 0.0
C1387 C 0.61124 0.28651 0.91905 0.0
C1388 C 0.59902 0.29714 0.91829 0.0
C1389 C 0.62087 0.28501 0.90535 0.0
C1390 C 0.6184 0.29395 0.89048 0.0
C1391 C 0.60626 0.30467 0.88972 0.0
C1392 C 0.59674 0.30635 0.90353 0.0
C1393 C 0.62895 0.29268 0.87609 0.0
C1394 C 0.63552 0.3067 0.86948 0.0
C1395 C 0.63328 0.27778 0.86958 0.0
C1396 C 0.62597 0.2626 0.87504 0.0
C1397 C 0.61012 0.26082 0.87431 0.0
C1398 C 0.60328 0.24655 0.87961 0.0
C1399 C 0.61218 0.23393 0.88556 0.0
C1400 C 0.62795 0.23554 0.88618 0.0
C1401 C 0.63484 0.24979 0.88091 0.0
H1402 H 0.60687 0.2229 0.88966 0.0
H1403 H 0.67182 0.36118 0.83544 0.0
H1404 H 0.24352 0.80472 0.6591 0.0
H1405 H 0.24564 0.82893 0.64198 0.0
H1406 H 0.29048 0.83752 0.6623 0.0
H1407 H 0.28861 0.81299 0.67928 0.0
H1408 H 0.27298 0.86396 0.66334 0.0
H1409 H 0.28666 0.8268 0.62203 0.0
H1410 H 0.28488 0.80241 0.60517 0.0
H1411 H 0.24202 0.81756 0.58466 0.0
H1412 H 0.24342 0.84194 0.6016 0.0
H1413 H 0.27675 0.9411 0.60811 0.0
H1414 H 0.28417 0.91145 0.62534 0.0
H1415 H 0.23662 0.88551 0.60352 0.0
H1416 H 0.22805 0.91429 0.5855 0.0
H1417 H 0.26161 0.86623 0.60196 0.0
H1418 H 0.24648 0.90088 0.64672 0.0
H1419 H 0.24785 0.92499 0.6641 0.0
H1420 H 0.29379 0.91412 0.67819 0.0
H1421 H 0.29274 0.89003 0.66072 0.0
C1422 C 0.25399 0.81152 0.6597 0.0
C1423 C 0.26591 0.80681 0.67056 0.0
C1424 C 0.25516 0.82542 0.64991 0.0
C1425 C 0.26828 0.83496 0.65072 0.0
C1426 C 0.28026 0.83031 0.66146 0.0
C1427 C 0.27913 0.81633 0.67122 0.0
C1428 C 0.26898 0.85019 0.64099 0.0
C1429 C 0.27091 0.86444 0.64983 0.0
C1430 C 0.26604 0.85083 0.62342 0.0
C1431 C 0.2651 0.83617 0.6132 0.0
C1432 C 0.27679 0.82488 0.61403 0.0
C1433 C 0.27586 0.81106 0.60444 0.0
C1434 C 0.26333 0.80842 0.59387 0.0
C1435 C 0.25172 0.81962 0.59286 0.0
C1436 C 0.25258 0.83345 0.60244 0.0
C1437 C 0.26905 0.931 0.60782 0.0
C1438 C 0.25288 0.92984 0.59248 0.0
C1439 C 0.27389 0.91229 0.61784 0.0
C1440 C 0.26171 0.89499 0.61544 0.0
C1441 C 0.24392 0.89591 0.60399 0.0
C1442 C 0.23806 0.91401 0.59351 0.0
C1443 C 0.2653 0.87992 0.62438 0.0
C1444 C 0.26408 0.86571 0.61539 0.0
C1445 C 0.26896 0.87931 0.64178 0.0
C1446 C 0.2696 0.8938 0.65223 0.0
C1447 C 0.25691 0.90371 0.65341 0.0
C1448 C 0.25762 0.91735 0.6633 0.0
C1449 C 0.27092 0.92112 0.67219 0.0
C1450 C 0.28351 0.91122 0.67126 0.0
C1451 C 0.28287 0.89757 0.66137 0.0
H1452 H 0.27144 0.93169 0.67984 0.0
H1453 H 0.26264 0.79772 0.58644 0.0
H1454 H 0.67613 0.73462 0.21303 0.0
H1455 H 0.65646 0.7308 0.19145 0.0
H1456 H 0.68686 0.74879 0.15342 0.0
H1457 H 0.70655 0.75288 0.17504 0.0
H1458 H 0.6592 0.76287 0.15142 0.0
H1459 H 0.67805 0.70981 0.15464 0.0
H1460 H 0.68608 0.68473 0.1685 0.0
H1461 H 0.64128 0.6776 0.18778 0.0
H1462 H 0.63302 0.70276 0.17424 0.0
H1463 H 0.60349 0.7489 0.08815 0.0
H1464 H 0.6276 0.74735 0.10363 0.0
H1465 H 0.6048 0.72533 0.14585 0.0
H1466 H 0.58084 0.72614 0.13008 0.0
H1467 H 0.63116 0.71212 0.14264 0.0
H1468 H 0.61334 0.76656 0.14298 0.0
H1469 H 0.60501 0.79188 0.12983 0.0
H1470 H 0.64765 0.79663 0.10475 0.0
H1471 H 0.65615 0.77122 0.11759 0.0
C1472 C 0.67863 0.73774 0.20007 0.0
C1473 C 0.69287 0.7441 0.19574 0.0
C1474 C 0.66743 0.73541 0.18772 0.0
C1475 C 0.67024 0.73938 0.1708 0.0
C1476 C 0.68449 0.74558 0.1664 0.0
C1477 C 0.69574 0.74782 0.17874 0.0
C1478 C 0.65796 0.7379 0.15794 0.0
C1479 C 0.65325 0.7517 0.14924 0.0
C1480 C 0.65003 0.7234 0.15535 0.0
C1481 C 0.65495 0.70825 0.16352 0.0
C1482 C 0.66994 0.70296 0.16195 0.0
C1483 C 0.67452 0.68872 0.16973 0.0
C1484 C 0.66421 0.67959 0.17904 0.0
C1485 C 0.64926 0.68468 0.18057 0.0
C1486 C 0.64462 0.69893 0.17283 0.0
C1487 C 0.60369 0.74338 0.10057 0.0
C1488 C 0.5903 0.73739 0.10782 0.0
C1489 C 0.61746 0.74265 0.10949 0.0
C1490 C 0.61801 0.73643 0.12603 0.0
C1491 C 0.60471 0.73013 0.1331 0.0
C1492 C 0.59102 0.73061 0.1241 0.0
C1493 C 0.63217 0.73717 0.13639 0.0
C1494 C 0.63723 0.72324 0.14464 0.0
C1495 C 0.64037 0.75159 0.13869 0.0
C1496 C 0.63531 0.76692 0.13109 0.0
C1497 C 0.62089 0.77297 0.13458 0.0
C1498 C 0.61615 0.78733 0.12719 0.0
C1499 C 0.62578 0.79584 0.11643 0.0
C1500 C 0.64019 0.79001 0.11307 0.0
C1501 C 0.64498 0.77564 0.1204 0.0
H1502 H 0.62208 0.80696 0.11072 0.0
H1503 H 0.66778 0.66857 0.18505 0.0
H1504 H 0.76593 0.21691 0.66997 0.0
H1505 H 0.77114 0.19498 0.65109 0.0
H1506 H 0.7319 0.16955 0.66954 0.0
H1507 H 0.72708 0.19102 0.68909 0.0
H1508 H 0.75479 0.15019 0.66815 0.0
H1509 H 0.73261 0.18833 0.62981 0.0
H1510 H 0.72968 0.2145 0.61566 0.0
H1511 H 0.77473 0.21138 0.59631 0.0
H1512 H 0.778 0.18527 0.61053 0.0
H1513 H 0.75498 0.08958 0.6074 0.0
H1514 H 0.74699 0.11301 0.62289 0.0
H1515 H 0.78765 0.13801 0.60788 0.0
H1516 H 0.79555 0.11469 0.59212 0.0
H1517 H 0.76325 0.15763 0.60686 0.0
H1518 H 0.78562 0.12005 0.64606 0.0
H1519 H 0.78852 0.0938 0.66005 0.0
H1520 H 0.74284 0.09602 0.67776 0.0
H1521 H 0.7396 0.12219 0.66365 0.0
C1522 C 0.75844 0.20662 0.67011 0.0
C1523 C 0.74606 0.20578 0.68109 0.0
C1524 C 0.76134 0.19415 0.65912 0.0
C1525 C 0.7518 0.18067 0.6587 0.0
C1526 C 0.73939 0.17985 0.66956 0.0
C1527 C 0.73656 0.19224 0.68063 0.0
C1528 C 0.75509 0.16712 0.64747 0.0
C1529 C 0.75637 0.15181 0.6547 0.0
C1530 C 0.75755 0.16923 0.62997 0.0
C1531 C 0.7556 0.18491 0.62136 0.0
C1532 C 0.74193 0.19328 0.62264 0.0
C1533 C 0.7402 0.20809 0.61459 0.0
C1534 C 0.75203 0.21462 0.60513 0.0
C1535 C 0.76559 0.20632 0.60366 0.0
C1536 C 0.76738 0.19151 0.61169 0.0
C1537 C 0.76204 0.1002 0.6071 0.0
C1538 C 0.77578 0.1004 0.59833 0.0
C1539 C 0.75753 0.11353 0.61606 0.0
C1540 C 0.7668 0.12721 0.61668 0.0
C1541 C 0.7803 0.12761 0.60753 0.0
C1542 C 0.7848 0.1143 0.59854 0.0
C1543 C 0.76285 0.14078 0.62756 0.0
C1544 C 0.76153 0.15606 0.62029 0.0
C1545 C 0.76033 0.13866 0.64503 0.0
C1546 C 0.76232 0.123 0.65366 0.0
C1547 C 0.77616 0.11489 0.65284 0.0
C1548 C 0.77787 0.10003 0.6608 0.0
C1549 C 0.76586 0.09323 0.66975 0.0
C1550 C 0.75213 0.10129 0.6708 0.0
C1551 C 0.75035 0.11614 0.66283 0.0
H1552 H 0.76721 0.08173 0.67591 0.0
H1553 H 0.75067 0.22609 0.5989 0.0
H1554 H 0.35593 0.29108 0.22002 0.0
H1555 H 0.37525 0.29446 0.19849 0.0
H1556 H 0.34111 0.28898 0.15956 0.0
H1557 H 0.32173 0.28518 0.18109 0.0
H1558 H 0.3653 0.27064 0.1539 0.0
H1559 H 0.35732 0.32526 0.16662 0.0
H1560 H 0.35473 0.34867 0.18475 0.0
H1561 H 0.40043 0.34275 0.20285 0.0
H1562 H 0.40323 0.31917 0.18501 0.0
H1563 H 0.42043 0.28418 0.0911 0.0
H1564 H 0.39768 0.28799 0.10783 0.0
H1565 H 0.42564 0.29635 0.15191 0.0
H1566 H 0.44836 0.29324 0.13506 0.0
H1567 H 0.40234 0.31542 0.15227 0.0
H1568 H 0.40911 0.25907 0.1426 0.0
H1569 H 0.41188 0.23532 0.12499 0.0
H1570 H 0.36849 0.24423 0.10177 0.0
H1571 H 0.36557 0.26817 0.11909 0.0
C1572 C 0.35252 0.2906 0.20688 0.0
C1573 C 0.33729 0.2878 0.20228 0.0
C1574 C 0.36356 0.29271 0.19457 0.0
C1575 C 0.35962 0.29214 0.17739 0.0
C1576 C 0.3444 0.28954 0.17274 0.0
C1577 C 0.33333 0.28748 0.18506 0.0
C1578 C 0.37156 0.29332 0.16439 0.0
C1579 C 0.37321 0.28059 0.15331 0.0
C1580 C 0.38207 0.30616 0.16383 0.0
C1581 C 0.38044 0.32037 0.17456 0.0
C1582 C 0.36678 0.32888 0.17456 0.0
C1583 C 0.36528 0.34219 0.18477 0.0
C1584 C 0.3774 0.34718 0.19497 0.0
C1585 C 0.39105 0.33887 0.19495 0.0
C1586 C 0.39261 0.32554 0.18477 0.0
C1587 C 0.42171 0.28723 0.10426 0.0
C1588 C 0.4362 0.28869 0.11172 0.0
C1589 C 0.4087 0.28924 0.11386 0.0
C1590 C 0.40991 0.29224 0.13121 0.0
C1591 C 0.42437 0.29411 0.13855 0.0
C1592 C 0.43736 0.29233 0.12892 0.0
C1593 C 0.39626 0.29258 0.14202 0.0
C1594 C 0.39429 0.30558 0.1527 0.0
C1595 C 0.3855 0.27995 0.1423 0.0
C1596 C 0.3872 0.26549 0.132 0.0
C1597 C 0.40021 0.25601 0.13366 0.0
C1598 C 0.4018 0.24252 0.12374 0.0
C1599 C 0.39039 0.2383 0.11223 0.0
C1600 C 0.37734 0.24754 0.11066 0.0
C1601 C 0.3757 0.26106 0.12053 0.0
H1602 H 0.39164 0.22784 0.10456 0.0
H1603 H 0.37622 0.35749 0.20286 0.0
H1604 H 0.81712 0.66739 0.7418 0.0
H1605 H 0.83884 0.64991 0.73818 0.0
H1606 H 0.85623 0.66308 0.78713 0.0
H1607 H 0.83463 0.68079 0.79073 0.0
H1608 H 0.87817 0.66391 0.76299 0.0
H1609 H 0.83993 0.62746 0.78228 0.0
H1610 H 0.8148 0.61442 0.78229 0.0
H1611 H 0.82209 0.5974 0.73232 0.0
H1612 H 0.84719 0.61055 0.7319 0.0
H1613 H 0.93557 0.60575 0.76712 0.0
H1614 H 0.9128 0.62067 0.7739 0.0
H1615 H 0.89265 0.60775 0.72613 0.0
H1616 H 0.91531 0.59257 0.71944 0.0
H1617 H 0.87197 0.60632 0.75104 0.0
H1618 H 0.90945 0.64366 0.73109 0.0
H1619 H 0.93455 0.65677 0.73068 0.0
H1620 H 0.92854 0.67233 0.78144 0.0
H1621 H 0.90348 0.65909 0.78224 0.0
C1622 C 0.82561 0.66662 0.75176 0.0
C1623 C 0.82416 0.67545 0.76656 0.0
C1624 C 0.83794 0.65653 0.74973 0.0
C1625 C 0.84907 0.65508 0.76246 0.0
C1626 C 0.84773 0.66398 0.77719 0.0
C1627 C 0.83534 0.674 0.77927 0.0
C1628 C 0.86225 0.64451 0.76022 0.0
C1629 C 0.87684 0.65127 0.76065 0.0
C1630 C 0.86046 0.62809 0.75678 0.0
C1631 C 0.84539 0.62012 0.757 0.0
C1632 C 0.83613 0.62105 0.77124 0.0
C1633 C 0.8219 0.61362 0.77133 0.0
C1634 C 0.81683 0.60512 0.7573 0.0
C1635 C 0.82601 0.604 0.74317 0.0
C1636 C 0.84025 0.61143 0.743 0.0
C1637 C 0.92616 0.60584 0.75823 0.0
C1638 C 0.92712 0.59779 0.74285 0.0
C1639 C 0.91321 0.61446 0.76205 0.0
C1640 C 0.90108 0.61545 0.75045 0.0
C1641 C 0.90185 0.60711 0.73529 0.0
C1642 C 0.91479 0.59845 0.73147 0.0
C1643 C 0.88789 0.62573 0.75376 0.0
C1644 C 0.8733 0.61894 0.75349 0.0
C1645 C 0.88966 0.64215 0.75728 0.0
C1646 C 0.90466 0.65024 0.75678 0.0
C1647 C 0.91353 0.64978 0.7422 0.0
C1648 C 0.92774 0.65724 0.7419 0.0
C1649 C 0.93316 0.66534 0.75604 0.0
C1650 C 0.92434 0.66603 0.7705 0.0
C1651 C 0.91013 0.65855 0.77089 0.0
H1652 H 0.94416 0.67111 0.75578 0.0
H1653 H 0.80581 0.59937 0.75739 0.0
H1654 H 0.83735 0.31971 0.2533 0.0
H1655 H 0.85913 0.33771 0.25548 0.0
H1656 H 0.84841 0.35756 0.20636 0.0
H1657 H 0.82701 0.33907 0.20372 0.0
H1658 H 0.87774 0.3523 0.20912 0.0
H1659 H 0.84091 0.37783 0.24303 0.0
H1660 H 0.82199 0.37972 0.26548 0.0
H1661 H 0.85597 0.36787 0.30271 0.0
H1662 H 0.87505 0.3657 0.28045 0.0
H1663 H 0.93117 0.4157 0.21629 0.0
H1664 H 0.90706 0.40126 0.21341 0.0
H1665 H 0.91472 0.37866 0.26194 0.0
H1666 H 0.93856 0.39343 0.26507 0.0
H1667 H 0.88589 0.38697 0.25858 0.0
H1668 H 0.92223 0.35986 0.22447 0.0
H1669 H 0.94118 0.35798 0.20205 0.0
H1670 H 0.90797 0.37284 0.16518 0.0
H1671 H 0.88887 0.37503 0.18743 0.0
C1672 C 0.83968 0.3278 0.24288 0.0
C1673 C 0.83038 0.32793 0.22834 0.0
C1674 C 0.85205 0.33823 0.24424 0.0
C1675 C 0.85529 0.34917 0.23119 0.0
C1676 C 0.84608 0.3493 0.21663 0.0
C1677 C 0.83376 0.3388 0.21522 0.0
C1678 C 0.86851 0.36018 0.23254 0.0
C1679 C 0.87938 0.36008 0.2198 0.0
C1680 C 0.87082 0.37012 0.24663 0.0
C1681 C 0.85938 0.37147 0.26005 0.0
C1682 C 0.84432 0.37552 0.25599 0.0
C1683 C 0.83357 0.37665 0.26868 0.0
C1684 C 0.83777 0.37388 0.2855 0.0
C1685 C 0.85273 0.37 0.28967 0.0
C1686 C 0.86352 0.36883 0.27702 0.0
C1687 C 0.92754 0.40789 0.22647 0.0
C1688 C 0.9366 0.40592 0.24107 0.0
C1689 C 0.91385 0.39953 0.22475 0.0
C1690 C 0.90914 0.38876 0.2374 0.0
C1691 C 0.91807 0.38696 0.25206 0.0
C1692 C 0.93168 0.39539 0.25384 0.0
C1693 C 0.89517 0.37896 0.23525 0.0
C1694 C 0.88417 0.37928 0.24784 0.0
C1695 C 0.89273 0.36921 0.22103 0.0
C1696 C 0.90418 0.36776 0.20764 0.0
C1697 C 0.919 0.36283 0.2116 0.0
C1698 C 0.92977 0.36169 0.19892 0.0
C1699 C 0.9258 0.36533 0.18221 0.0
C1700 C 0.91104 0.37005 0.17813 0.0
C1701 C 0.90024 0.37124 0.19077 0.0
H1702 H 0.93414 0.36444 0.17241 0.0
H1703 H 0.82943 0.37477 0.29531 0.0
H1704 H 0.20574 0.3535 0.76986 0.0
H1705 H 0.1833 0.37036 0.76892 0.0
H1706 H 0.15495 0.3289 0.76132 0.0
H1707 H 0.17734 0.31191 0.7624 0.0
H1708 H 0.14643 0.35391 0.74085 0.0
H1709 H 0.15811 0.3452 0.79983 0.0
H1710 H 0.17461 0.34536 0.82516 0.0
H1711 H 0.18089 0.39596 0.81969 0.0
H1712 H 0.16459 0.39607 0.79418 0.0
H1713 H 0.07512 0.3851 0.76255 0.0
H1714 H 0.09845 0.36992 0.76 0.0
H1715 H 0.12467 0.41153 0.77366 0.0
H1716 H 0.10129 0.42652 0.77701 0.0
H1717 H 0.13498 0.38726 0.79011 0.0
H1718 H 0.12272 0.39659 0.7319 0.0
H1719 H 0.10654 0.39679 0.70633 0.0
H1720 H 0.10176 0.34589 0.70969 0.0
H1721 H 0.11775 0.3454 0.73542 0.0
C1722 C 0.19473 0.34795 0.76807 0.0
C1723 C 0.19334 0.33133 0.76634 0.0
C1724 C 0.18192 0.35761 0.76748 0.0
C1725 C 0.16743 0.35086 0.76525 0.0
C1726 C 0.16602 0.33435 0.76304 0.0
C1727 C 0.17884 0.32467 0.76362 0.0
C1728 C 0.15372 0.36097 0.76565 0.0
C1729 C 0.14382 0.36109 0.75168 0.0
C1730 C 0.15055 0.37065 0.7796 0.0
C1731 C 0.16025 0.37062 0.79501 0.0
C1732 C 0.1631 0.35634 0.80396 0.0
C1733 C 0.1724 0.35639 0.81836 0.0
C1734 C 0.17882 0.37065 0.824 0.0
C1735 C 0.17593 0.38492 0.81529 0.0
C1736 C 0.16665 0.38493 0.80087 0.0
C1737 C 0.08589 0.39106 0.76474 0.0
C1738 C 0.08637 0.40711 0.76954 0.0
C1739 C 0.09923 0.38239 0.76322 0.0
C1740 C 0.11339 0.38964 0.76627 0.0
C1741 C 0.11391 0.40569 0.7711 0.0
C1742 C 0.10054 0.4143 0.77286 0.0
C1743 C 0.12758 0.38026 0.76528 0.0
C1744 C 0.13759 0.38021 0.77919 0.0
C1745 C 0.13089 0.37074 0.75121 0.0
C1746 C 0.12134 0.37098 0.73567 0.0
C1747 C 0.11814 0.38545 0.72725 0.0
C1748 C 0.10902 0.38561 0.71272 0.0
C1749 C 0.1031 0.37137 0.70641 0.0
C1750 C 0.10634 0.35692 0.7146 0.0
C1751 C 0.11545 0.35669 0.72915 0.0
H1752 H 0.09604 0.37152 0.69516 0.0
H1753 H 0.18602 0.37066 0.83515 0.0
H1754 H 0.19979 0.67741 0.27117 0.0
H1755 H 0.18083 0.65616 0.26827 0.0
H1756 H 0.15791 0.68339 0.22925 0.0
H1757 H 0.17679 0.7048 0.23222 0.0
H1758 H 0.13858 0.67263 0.25332 0.0
H1759 H 0.17646 0.65063 0.2189 0.0
H1760 H 0.20201 0.64192 0.21117 0.0
H1761 H 0.20197 0.60768 0.25189 0.0
H1762 H 0.17649 0.61635 0.26004 0.0
H1763 H 0.08526 0.61141 0.23807 0.0
H1764 H 0.10669 0.62918 0.2319 0.0
H1765 H 0.13209 0.60814 0.2732 0.0
H1766 H 0.11068 0.59033 0.27945 0.0
H1767 H 0.15006 0.61557 0.24452 0.0
H1768 H 0.1134 0.64005 0.28049 0.0
H1769 H 0.08765 0.64848 0.28783 0.0
H1770 H 0.0856 0.67823 0.24338 0.0
H1771 H 0.11126 0.66973 0.23562 0.0
C1772 C 0.19073 0.67884 0.26194 0.0
C1773 C 0.18973 0.69279 0.25197 0.0
C1774 C 0.17999 0.66663 0.26018 0.0
C1775 C 0.16803 0.66814 0.24845 0.0
C1776 C 0.1671 0.68196 0.23832 0.0
C1777 C 0.17792 0.69414 0.23998 0.0
C1778 C 0.15597 0.65575 0.24763 0.0
C1779 C 0.14106 0.66021 0.25104 0.0
C1780 C 0.15925 0.63949 0.24498 0.0
C1781 C 0.17461 0.63425 0.24018 0.0
C1782 C 0.18195 0.64134 0.22631 0.0
C1783 C 0.19641 0.6364 0.22183 0.0
C1784 C 0.20362 0.62428 0.23106 0.0
C1785 C 0.19637 0.61707 0.24477 0.0
C1786 C 0.18191 0.62199 0.24931 0.0
C1787 C 0.09555 0.61032 0.24557 0.0
C1788 C 0.09634 0.59943 0.25919 0.0
C1789 C 0.10776 0.62049 0.24206 0.0
C1790 C 0.12092 0.62002 0.25217 0.0
C1791 C 0.12206 0.60861 0.26521 0.0
C1792 C 0.10982 0.59849 0.26878 0.0
C1793 C 0.13279 0.63249 0.25033 0.0
C1794 C 0.14762 0.62804 0.24653 0.0
C1795 C 0.12947 0.64878 0.25259 0.0
C1796 C 0.11417 0.65412 0.25738 0.0
C1797 C 0.10741 0.6483 0.27222 0.0
C1798 C 0.09284 0.65309 0.27646 0.0
C1799 C 0.08498 0.66385 0.26605 0.0
C1800 C 0.0917 0.66988 0.25141 0.0
C1801 C 0.10625 0.66507 0.24709 0.0
H1802 H 0.0737 0.66756 0.26936 0.0
H1803 H 0.21481 0.62046 0.22756 0.0
H1804 H 0.7934 0.8247 0.70319 0.0
H1805 H 0.79218 0.84688 0.68287 0.0
H1806 H 0.75303 0.82529 0.65907 0.0
H1807 H 0.75436 0.80292 0.67915 0.0
H1808 H 0.774 0.83439 0.63626 0.0
H1809 H 0.74916 0.85789 0.68287 0.0
H1810 H 0.74613 0.86611 0.71232 0.0
H1811 H 0.78575 0.89594 0.70859 0.0
H1812 H 0.78915 0.88771 0.67917 0.0
H1813 H 0.75357 0.8988 0.58294 0.0
H1814 H 0.75272 0.87906 0.60592 0.0
H1815 H 0.79346 0.89933 0.6276 0.0
H1816 H 0.7944 0.91912 0.60457 0.0
H1817 H 0.77145 0.89137 0.6518 0.0
H1818 H 0.79654 0.86732 0.60546 0.0
H1819 H 0.79938 0.85931 0.57592 0.0
H1820 H 0.75907 0.83048 0.57931 0.0
H1821 H 0.75586 0.83853 0.60882 0.0
C1822 C 0.78453 0.82469 0.69363 0.0
C1823 C 0.77399 0.81204 0.69275 0.0
C1824 C 0.78376 0.83743 0.68212 0.0
C1825 C 0.77245 0.83779 0.66952 0.0
C1826 C 0.76183 0.82527 0.66872 0.0
C1827 C 0.76254 0.81255 0.68027 0.0
C1828 C 0.77211 0.85084 0.6567 0.0
C1829 C 0.7732 0.84683 0.63966 0.0
C1830 C 0.77148 0.8671 0.66117 0.0
C1831 C 0.7695 0.87205 0.67887 0.0
C1832 C 0.75731 0.86608 0.68838 0.0
C1833 C 0.75551 0.87077 0.70505 0.0
C1834 C 0.76577 0.88151 0.71234 0.0
C1835 C 0.77783 0.8876 0.70294 0.0
C1836 C 0.77969 0.88294 0.68626 0.0
C1837 C 0.7622 0.8992 0.59276 0.0
C1838 C 0.77389 0.91067 0.59211 0.0
C1839 C 0.76174 0.8879 0.60582 0.0
C1840 C 0.77306 0.88772 0.61841 0.0
C1841 C 0.78458 0.89934 0.61805 0.0
C1842 C 0.78509 0.91063 0.60491 0.0
C1843 C 0.77324 0.87487 0.63143 0.0
C1844 C 0.77219 0.87892 0.64846 0.0
C1845 C 0.77391 0.85862 0.62699 0.0
C1846 C 0.77587 0.85365 0.6093 0.0
C1847 C 0.78821 0.85937 0.59987 0.0
C1848 C 0.7899 0.85481 0.58313 0.0
C1849 C 0.77939 0.84442 0.57573 0.0
C1850 C 0.76719 0.83854 0.58506 0.0
C1851 C 0.76544 0.84309 0.60179 0.0
H1852 H 0.78072 0.8409 0.56277 0.0
H1853 H 0.76435 0.88513 0.72525 0.0
H1854 H 0.71348 0.26727 0.15665 0.0
H1855 H 0.69289 0.27542 0.13749 0.0
H1856 H 0.66014 0.26173 0.17498 0.0
H1857 H 0.68059 0.25361 0.19416 0.0
H1858 H 0.65135 0.25196 0.14416 0.0
H1859 H 0.67082 0.3008 0.16865 0.0
H1860 H 0.69075 0.3206 0.17528 0.0
H1861 H 0.69881 0.32799 0.12249 0.0
H1862 H 0.67904 0.30807 0.11556 0.0
H1863 H 0.58561 0.29513 0.12276 0.0
H1864 H 0.60841 0.28374 0.13574 0.0
H1865 H 0.63494 0.30117 0.09398 0.0
H1866 H 0.6121 0.3128 0.08104 0.0
H1867 H 0.64851 0.30789 0.12329 0.0
H1868 H 0.62732 0.26145 0.09846 0.0
H1869 H 0.60753 0.24165 0.09141 0.0
H1870 H 0.60298 0.22943 0.14383 0.0
H1871 H 0.6226 0.24933 0.15124 0.0
C1872 C 0.70189 0.26605 0.16082 0.0
C1873 C 0.69867 0.25982 0.17695 0.0
C1874 C 0.69014 0.27068 0.14985 0.0
C1875 C 0.67498 0.26931 0.15486 0.0
C1876 C 0.67175 0.26283 0.17082 0.0
C1877 C 0.68346 0.25816 0.18176 0.0
C1878 C 0.66241 0.27494 0.14374 0.0
C1879 C 0.65066 0.26422 0.13969 0.0
C1880 C 0.66177 0.29079 0.13742 0.0
C1881 C 0.67358 0.30283 0.14159 0.0
C1882 C 0.67692 0.30656 0.15846 0.0
C1883 C 0.68817 0.31782 0.16227 0.0
C1884 C 0.69607 0.32551 0.14932 0.0
C1885 C 0.6927 0.322 0.13252 0.0
C1886 C 0.68147 0.31074 0.12864 0.0
C1887 C 0.59626 0.29631 0.11623 0.0
C1888 C 0.59704 0.30459 0.10075 0.0
C1889 C 0.60928 0.28978 0.12363 0.0
C1890 C 0.62336 0.29137 0.1157 0.0
C1891 C 0.62419 0.29969 0.10025 0.0
C1892 C 0.61114 0.30624 0.09284 0.0
C1893 C 0.63725 0.28501 0.12404 0.0
C1894 C 0.64926 0.29558 0.12755 0.0
C1895 C 0.63816 0.269 0.1298 0.0
C1896 C 0.62636 0.25698 0.12541 0.0
C1897 C 0.62202 0.25463 0.10851 0.0
C1898 C 0.61085 0.24337 0.10444 0.0
C1899 C 0.60398 0.23431 0.11717 0.0
C1900 C 0.6083 0.23647 0.13399 0.0
C1901 C 0.61947 0.24772 0.13813 0.0
H1902 H 0.59533 0.2256 0.114 0.0
H1903 H 0.70478 0.33422 0.15229 0.0
H1904 H 0.24333 0.21019 0.66777 0.0
H1905 H 0.24687 0.18704 0.64994 0.0
H1906 H 0.26586 0.16095 0.6923 0.0
H1907 H 0.26219 0.18397 0.71028 0.0
H1908 H 0.28218 0.15699 0.66341 0.0
H1909 H 0.22971 0.15433 0.67998 0.0
H1910 H 0.20391 0.16491 0.6829 0.0
H1911 H 0.20023 0.17126 0.62922 0.0
H1912 H 0.2261 0.16091 0.62601 0.0
H1913 H 0.27725 0.07818 0.63354 0.0
H1914 H 0.27565 0.103 0.64908 0.0
H1915 H 0.25068 0.12445 0.6076 0.0
H1916 H 0.25149 0.09934 0.59246 0.0
H1917 H 0.23789 0.13188 0.63488 0.0
H1918 H 0.28955 0.13385 0.61753 0.0
H1919 H 0.31551 0.12395 0.61393 0.0
H1920 H 0.32124 0.11988 0.66763 0.0
H1921 H 0.29523 0.12957 0.67155 0.0
C1922 C 0.24816 0.19949 0.67334 0.0
C1923 C 0.25239 0.19892 0.6905 0.0
C1924 C 0.25023 0.18629 0.66311 0.0
C1925 C 0.2565 0.17222 0.66983 0.0
C1926 C 0.26103 0.1717 0.68685 0.0
C1927 C 0.25896 0.1849 0.6971 0.0
C1928 C 0.25807 0.15792 0.65923 0.0
C1929 C 0.2725 0.15138 0.65729 0.0
C1930 C 0.24549 0.15091 0.65085 0.0
C1931 C 0.22988 0.15699 0.65277 0.0
C1932 C 0.22343 0.15808 0.66882 0.0
C1933 C 0.2088 0.16403 0.67052 0.0
C1934 C 0.20045 0.1688 0.65626 0.0
C1935 C 0.20671 0.16758 0.64026 0.0
C1936 C 0.22136 0.16167 0.63849 0.0
C1937 C 0.27159 0.08827 0.62767 0.0
C1938 C 0.26482 0.08688 0.61162 0.0
C1939 C 0.27074 0.1025 0.63652 0.0
C1940 C 0.26335 0.11579 0.62939 0.0
C1941 C 0.25656 0.11443 0.61334 0.0
C1942 C 0.25715 0.10009 0.60462 0.0
C1943 C 0.26206 0.13081 0.63901 0.0
C1944 C 0.24765 0.1375 0.64083 0.0
C1945 C 0.27471 0.13805 0.64713 0.0
C1946 C 0.29039 0.13232 0.64482 0.0
C1947 C 0.29631 0.13075 0.62857 0.0
C1948 C 0.31104 0.12519 0.62647 0.0
C1949 C 0.32001 0.12126 0.64054 0.0
C1950 C 0.31428 0.12292 0.65674 0.0
C1951 C 0.29955 0.12847 0.65891 0.0
H1952 H 0.3314 0.11695 0.6389 0.0
H1953 H 0.18912 0.1734 0.65761 0.0
H1954 H 0.32677 0.71219 0.18693 0.0
H1955 H 0.34902 0.71183 0.16891 0.0
H1956 H 0.34135 0.76095 0.15474 0.0
H1957 H 0.31886 0.76129 0.17245 0.0
H1958 H 0.34785 0.74262 0.12754 0.0
H1959 H 0.36857 0.75145 0.18326 0.0
H1960 H 0.37252 0.74528 0.21347 0.0
H1961 H 0.39152 0.70004 0.20118 0.0
H1962 H 0.3875 0.70586 0.17088 0.0
H1963 H 0.41851 0.76673 0.09521 0.0
H1964 H 0.39518 0.76292 0.111 0.0
H1965 H 0.40863 0.715 0.12427 0.0
H1966 H 0.43224 0.71891 0.10867 0.0
H1967 H 0.39879 0.73016 0.15117 0.0
H1968 H 0.37983 0.72176 0.09553 0.0
H1969 H 0.37588 0.72755 0.06525 0.0
H1970 H 0.35345 0.77111 0.07704 0.0
H1971 H 0.35745 0.76569 0.1074 0.0
C1972 C 0.32975 0.72288 0.17988 0.0
C1973 C 0.32106 0.73678 0.18113 0.0
C1974 C 0.34254 0.72269 0.16969 0.0
C1975 C 0.34691 0.7364 0.16059 0.0
C1976 C 0.33819 0.75025 0.16168 0.0
C1977 C 0.32542 0.75046 0.17192 0.0
C1978 C 0.3606 0.73636 0.14995 0.0
C1979 C 0.35902 0.74005 0.13272 0.0
C1980 C 0.37508 0.73249 0.15662 0.0
C1981 C 0.37759 0.72902 0.17482 0.0
C1982 C 0.37348 0.74013 0.18701 0.0
C1983 C 0.37576 0.73671 0.20414 0.0
C1984 C 0.38223 0.72226 0.20924 0.0
C1985 C 0.38649 0.71122 0.19721 0.0
C1986 C 0.38423 0.71458 0.18006 0.0
C1987 C 0.41636 0.75528 0.10123 0.0
C1988 C 0.42702 0.74298 0.10035 0.0
C1989 C 0.40302 0.7531 0.11024 0.0
C1990 C 0.40001 0.73857 0.11858 0.0
C1991 C 0.41065 0.72626 0.1178 0.0
C1992 C 0.42406 0.72845 0.1088 0.0
C1993 C 0.3861 0.73664 0.12876 0.0
C1994 C 0.38762 0.73258 0.14592 0.0
C1995 C 0.37154 0.74009 0.122 0.0
C1996 C 0.36904 0.74337 0.10375 0.0
C1997 C 0.37415 0.73263 0.09167 0.0
C1998 C 0.37189 0.73584 0.07449 0.0
C1999 C 0.36445 0.74971 0.06923 0.0
C2000 C 0.35922 0.76038 0.08114 0.0
C2001 C 0.36146 0.75723 0.09833 0.0
H2002 H 0.36271 0.75217 0.05592 0.0
H2003 H 0.38398 0.71963 0.22251 0.0
H2004 H 0.80443 0.18991 0.31216 0.0
H2005 H 0.80199 0.16821 0.3327 0.0
H2006 H 0.75358 0.16724 0.32442 0.0
H2007 H 0.75587 0.18952 0.30432 0.0
H2008 H 0.75997 0.16585 0.35709 0.0
H2009 H 0.77634 0.13764 0.30912 0.0
H2010 H 0.79228 0.13191 0.28471 0.0
H2011 H 0.831 0.12612 0.31748 0.0
H2012 H 0.81535 0.13205 0.34208 0.0
H2013 H 0.75604 0.09701 0.41138 0.0
H2014 H 0.7535 0.11415 0.38621 0.0
H2015 H 0.80183 0.12241 0.3868 0.0
H2016 H 0.80444 0.10499 0.41156 0.0
H2017 H 0.79207 0.11768 0.35554 0.0
H2018 H 0.77602 0.14936 0.40281 0.0
H2019 H 0.75998 0.15518 0.42714 0.0
H2020 H 0.72033 0.15417 0.39521 0.0
H2021 H 0.73613 0.14813 0.37072 0.0
C2022 C 0.79324 0.18517 0.31475 0.0
C2023 C 0.78034 0.19152 0.30661 0.0
C2024 C 0.79188 0.17259 0.32636 0.0
C2025 C 0.77762 0.16591 0.32994 0.0
C2026 C 0.76471 0.17214 0.32178 0.0
C2027 C 0.76605 0.18479 0.31019 0.0
C2028 C 0.77624 0.15291 0.34276 0.0
C2029 C 0.76676 0.15516 0.35657 0.0
C2030 C 0.78521 0.13902 0.34221 0.0
C2031 C 0.79467 0.13539 0.32744 0.0
C2032 C 0.78828 0.13526 0.31112 0.0
C2033 C 0.79726 0.13195 0.29724 0.0
C2034 C 0.81265 0.12868 0.29954 0.0
C2035 C 0.81908 0.12867 0.31572 0.0
C2036 C 0.81015 0.13197 0.32964 0.0
C2037 C 0.76613 0.10228 0.40594 0.0
C2038 C 0.7805 0.09939 0.41321 0.0
C2039 C 0.76466 0.11217 0.39166 0.0
C2040 C 0.77748 0.11963 0.38465 0.0
C2041 C 0.7918 0.11669 0.39188 0.0
C2042 C 0.79328 0.10675 0.40603 0.0
C2043 C 0.77616 0.13087 0.37007 0.0
C2044 C 0.78511 0.12826 0.35591 0.0
C2045 C 0.76669 0.1444 0.37029 0.0
C2046 C 0.75723 0.14812 0.38499 0.0
C2047 C 0.76387 0.15027 0.40101 0.0
C2048 C 0.75482 0.15362 0.41482 0.0
C2049 C 0.73914 0.15499 0.41273 0.0
C2050 C 0.73248 0.15307 0.39681 0.0
C2051 C 0.74147 0.14969 0.38297 0.0
H2052 H 0.73216 0.15759 0.42344 0.0
H2053 H 0.81959 0.12613 0.28878 0.0
H2054 H 0.31324 0.28549 0.83409 0.0
H2055 H 0.33249 0.29135 0.85559 0.0
H2056 H 0.36038 0.25372 0.83698 0.0
H2057 H 0.34142 0.24805 0.81511 0.0
H2058 H 0.35793 0.25341 0.87216 0.0
H2059 H 0.36931 0.29086 0.82729 0.0
H2060 H 0.36331 0.31219 0.80662 0.0
H2061 H 0.35097 0.34314 0.84671 0.0
H2062 H 0.3567 0.32191 0.86761 0.0
H2063 H 0.42513 0.27226 0.91742 0.0
H2064 H 0.40654 0.26623 0.89539 0.0
H2065 H 0.38238 0.3092 0.90668 0.0
H2066 H 0.40153 0.3158 0.92806 0.0
H2067 H 0.38287 0.30654 0.87481 0.0
H2068 H 0.37059 0.27011 0.91978 0.0
H2069 H 0.37546 0.24913 0.94121 0.0
H2070 H 0.38784 0.21674 0.90244 0.0
H2071 H 0.38323 0.2376 0.88079 0.0
C2072 C 0.32353 0.27856 0.83441 0.0
C2073 C 0.32577 0.26632 0.82278 0.0
C2074 C 0.33449 0.28189 0.84678 0.0
C2075 C 0.34789 0.27303 0.8478 0.0
C2076 C 0.35008 0.26066 0.83643 0.0
C2077 C 0.33919 0.25739 0.82398 0.0
C2078 C 0.35966 0.27674 0.86068 0.0
C2079 C 0.36354 0.26496 0.87265 0.0
C2080 C 0.36665 0.29194 0.86155 0.0
C2081 C 0.36329 0.30474 0.849 0.0
C2082 C 0.3652 0.30217 0.83169 0.0
C2083 C 0.36187 0.31425 0.81993 0.0
C2084 C 0.35673 0.32899 0.82535 0.0
C2085 C 0.35494 0.33171 0.84253 0.0
C2086 C 0.35824 0.31966 0.85434 0.0
C2087 C 0.41598 0.28055 0.91511 0.0
C2088 C 0.41492 0.29467 0.92438 0.0
C2089 C 0.40522 0.27697 0.90261 0.0
C2090 C 0.39287 0.28712 0.8995 0.0
C2091 C 0.39179 0.30118 0.90878 0.0
C2092 C 0.4027 0.30492 0.92102 0.0
C2093 C 0.38116 0.28324 0.88648 0.0
C2094 C 0.37729 0.29498 0.87442 0.0
C2095 C 0.37402 0.26806 0.8857 0.0
C2096 C 0.3767 0.25547 0.89868 0.0
C2097 C 0.37445 0.25855 0.91584 0.0
C2098 C 0.37715 0.24667 0.92802 0.0
C2099 C 0.38199 0.23162 0.92319 0.0
C2100 C 0.3841 0.22841 0.90616 0.0
C2101 C 0.38144 0.24025 0.89393 0.0
H2102 H 0.38408 0.22245 0.93264 0.0
H2103 H 0.35416 0.33833 0.81623 0.0
H2104 H 0.24523 0.83058 0.3068 0.0
H2105 H 0.24392 0.85081 0.32867 0.0
H2106 H 0.28874 0.83812 0.34622 0.0
H2107 H 0.28995 0.81762 0.32475 0.0
H2108 H 0.26996 0.84352 0.3724 0.0
H2109 H 0.2832 0.86983 0.31965 0.0
H2110 H 0.27913 0.87731 0.28977 0.0
H2111 H 0.23691 0.89912 0.30195 0.0
H2112 H 0.24065 0.89158 0.33188 0.0
H2113 H 0.30032 0.91213 0.41104 0.0
H2114 H 0.29369 0.88883 0.3943 0.0
H2115 H 0.25087 0.91016 0.38063 0.0
H2116 H 0.25763 0.93369 0.39717 0.0
H2117 H 0.26439 0.89985 0.35367 0.0
H2118 H 0.25263 0.87696 0.40696 0.0
H2119 H 0.2564 0.86961 0.4369 0.0
H2120 H 0.29489 0.84144 0.42428 0.0
H2121 H 0.29149 0.84881 0.39428 0.0
C2122 C 0.2547 0.83193 0.31549 0.0
C2123 C 0.26776 0.82259 0.31393 0.0
C2124 C 0.25398 0.84357 0.32791 0.0
C2125 C 0.26631 0.84611 0.33895 0.0
C2126 C 0.27911 0.8364 0.33781 0.0
C2127 C 0.27985 0.8248 0.32542 0.0
C2128 C 0.26631 0.85935 0.35117 0.0
C2129 C 0.26882 0.85586 0.36833 0.0
C2130 C 0.26433 0.8754 0.34592 0.0
C2131 C 0.26212 0.87998 0.32795 0.0
C2132 C 0.273 0.87611 0.31593 0.0
C2133 C 0.27076 0.88038 0.29899 0.0
C2134 C 0.25775 0.88864 0.29395 0.0
C2135 C 0.24697 0.89269 0.30586 0.0
C2136 C 0.24914 0.88843 0.32281 0.0
C2137 C 0.28935 0.91168 0.40478 0.0
C2138 C 0.27938 0.92459 0.40569 0.0
C2139 C 0.28554 0.89834 0.39524 0.0
C2140 C 0.27167 0.8976 0.38639 0.0
C2141 C 0.26158 0.9104 0.38745 0.0
C2142 C 0.26541 0.92378 0.39698 0.0
C2143 C 0.26837 0.8841 0.37494 0.0
C2144 C 0.26527 0.88753 0.35788 0.0
C2145 C 0.26974 0.868 0.38031 0.0
C2146 C 0.27186 0.86354 0.39836 0.0
C2147 C 0.26197 0.8693 0.41057 0.0
C2148 C 0.26403 0.86511 0.42756 0.0
C2149 C 0.27589 0.85509 0.43249 0.0
C2150 C 0.28571 0.84921 0.42044 0.0
C2151 C 0.28371 0.85338 0.40344 0.0
H2152 H 0.27746 0.85185 0.44565 0.0
H2153 H 0.25603 0.89194 0.28084 0.0
H2154 H 0.708 0.73557 0.83928 0.0
H2155 H 0.68864 0.73132 0.86068 0.0
H2156 H 0.65388 0.74423 0.8244 0.0
H2157 H 0.67314 0.74834 0.80289 0.0
H2158 H 0.65087 0.75984 0.85385 0.0
H2159 H 0.65863 0.70559 0.83685 0.0
H2160 H 0.67382 0.68172 0.83144 0.0
H2161 H 0.68846 0.68022 0.88325 0.0
H2162 H 0.67351 0.70422 0.88892 0.0
H2163 H 0.58779 0.74099 0.90365 0.0
H2164 H 0.60617 0.74164 0.88111 0.0
H2165 H 0.64004 0.72193 0.91496 0.0
H2166 H 0.6213 0.72013 0.93732 0.0
H2167 H 0.64354 0.70949 0.88633 0.0
H2168 H 0.63746 0.76358 0.90379 0.0
H2169 H 0.62341 0.78801 0.91011 0.0
H2170 H 0.60725 0.79077 0.85889 0.0
H2171 H 0.62106 0.76624 0.85231 0.0
C2172 C 0.69622 0.73726 0.83578 0.0
C2173 C 0.69212 0.74234 0.81938 0.0
C2174 C 0.68516 0.73485 0.84804 0.0
C2175 C 0.66981 0.73737 0.84411 0.0
C2176 C 0.66567 0.74226 0.82771 0.0
C2177 C 0.6767 0.74467 0.81546 0.0
C2178 C 0.65808 0.73556 0.85723 0.0
C2179 C 0.64911 0.74877 0.8608 0.0
C2180 C 0.65613 0.72126 0.86666 0.0
C2181 C 0.66506 0.70678 0.86327 0.0
C2182 C 0.66518 0.70024 0.84706 0.0
C2183 C 0.67373 0.68667 0.84395 0.0
C2184 C 0.68212 0.67948 0.85699 0.0
C2185 C 0.68196 0.68581 0.87317 0.0
C2186 C 0.67344 0.69939 0.87633 0.0
C2187 C 0.59907 0.73659 0.90633 0.0
C2188 C 0.60308 0.73053 0.92241 0.0
C2189 C 0.60967 0.73715 0.8934 0.0
C2190 C 0.62465 0.73222 0.89639 0.0
C2191 C 0.62859 0.72588 0.91231 0.0
C2192 C 0.6179 0.72494 0.92512 0.0
C2193 C 0.63626 0.73381 0.88301 0.0
C2194 C 0.64525 0.72058 0.8794 0.0
C2195 C 0.63841 0.74818 0.87371 0.0
C2196 C 0.63018 0.763 0.87761 0.0
C2197 C 0.63084 0.76935 0.89391 0.0
C2198 C 0.62293 0.78321 0.89753 0.0
C2199 C 0.61441 0.79091 0.88492 0.0
C2200 C 0.61383 0.78479 0.86865 0.0
C2201 C 0.62171 0.77091 0.86496 0.0
H2202 H 0.60829 0.80165 0.88775 0.0
H2203 H 0.68874 0.66898 0.85456 0.0
loop_
_geom_bond_atom_site_label_1
_geom_bond_atom_site_label_2
_geom_bond_distance
_geom_bond_site_symmetry_2
_ccdc_geom_bond_type
C0 C1 1.264 . S
C0 C5 1.479 . S
C0 C10 1.465 . S
C1 C0 1.264 . S
C1 C3 1.339 . S
C1 H28 0.931 . S
C2 C3 1.395 . S
C2 C4 1.320 . S
C3 C1 1.339 . S
C3 C2 1.395 . S
C3 H29 0.929 . S
C4 C2 1.320 . S
C4 C5 1.405 . S
C4 H30 0.930 . S
C5 C0 1.479 . S
C5 C4 1.405 . S
C5 H31 0.931 . S
U6 O7 2.454 . S
U6 O8 2.458 . S
U6 C9 2.984 . S
U6 C10 2.847 . S
U6 C23 2.882 . S
U6 O24 2.441 . S
U6 O25 2.420 . S
U6 O26 2.455 . S
U6 O27 2.449 . S
O7 U6 2.454 . S
O7 C9 1.353 . S
O8 U6 2.458 . S
O8 C9 1.286 . S
C9 U6 2.984 . S
C9 O7 1.353 . S
C9 O8 1.286 . S
C9 C11 1.363 . S
C10 C0 1.465 . S
C10 U6 2.847 . S
C10 O24 1.249 . S
C10 O25 1.202 . S
C11 C9 1.363 . S
C11 C13 1.408 . S
C11 C16 1.342 . S
C12 C13 1.310 . S
C12 C15 1.461 . S
C12 H32 0.932 . S
C13 C11 1.408 . S
C13 C12 1.310 . S
C13 H33 0.930 . S
C14 C15 1.474 . S
C14 C16 1.285 . S
C14 H34 0.929 . S
C15 C12 1.461 . S
C15 C14 1.474 . S
C16 C11 1.342 . S
C16 C14 1.285 . S
C16 H35 0.930 . S
C17 C20 1.424 . S
C17 C22 1.245 . S
C17 C23 1.428 . S
C18 C21 1.260 . S
C18 C22 1.477 . S
C18 H36 0.932 . S
C19 C20 1.384 . S
C19 C21 1.479 . S
C19 H37 0.929 . S
C20 C17 1.424 . S
C20 C19 1.384 . S
C20 H38 0.928 . S
C21 C18 1.260 . S
C21 C19 1.479 . S
C22 C17 1.245 . S
C22 C18 1.477 . S
C22 H39 0.932 . S
C23 U6 2.882 . S
C23 C17 1.428 . S
C23 O26 1.301 . S
C23 O27 1.282 . S
O24 U6 2.441 . S
O24 C10 1.249 . S
O25 U6 2.420 . S
O25 C10 1.202 . S
O26 U6 2.455 . S
O26 C23 1.301 . S
O27 U6 2.449 . S
O27 C23 1.282 . S
H28 C1 0.931 . S
H29 C3 0.929 . S
H30 C4 0.930 . S
H31 C5 0.931 . S
H32 C12 0.932 . S
H33 C13 0.930 . S
H34 C14 0.929 . S
H35 C16 0.930 . S
H36 C18 0.932 . S
H37 C19 0.929 . S
H38 C20 0.928 . S
H39 C22 0.932 . S
C40 C41 1.264 . S
C40 C45 1.479 . S
C40 C50 1.465 . S
C41 C40 1.264 . S
C41 C43 1.339 . S
C41 H68 0.931 . S
C42 C43 1.395 . S
C42 C44 1.320 . S
C43 C41 1.339 . S
C43 C42 1.395 . S
C43 H69 0.929 . S
C44 C42 1.320 . S
C44 C45 1.405 . S
C44 H70 0.930 . S
C45 C40 1.479 . S
C45 C44 1.405 . S
C45 H71 0.931 . S
U46 O47 2.454 . S
U46 O48 2.458 . S
U46 C49 2.984 . S
U46 C50 2.847 . S
U46 C63 2.882 . S
U46 O64 2.441 . S
U46 O65 2.420 . S
U46 O66 2.455 . S
U46 O67 2.449 . S
O47 U46 2.454 . S
O47 C49 1.353 . S
O48 U46 2.458 . S
O48 C49 1.286 . S
C49 U46 2.984 . S
C49 O47 1.353 . S
C49 O48 1.286 . S
C49 C51 1.363 . S
C50 C40 1.465 . S
C50 U46 2.847 . S
C50 O64 1.249 . S
C50 O65 1.202 . S
C51 C49 1.363 . S
C51 C53 1.408 . S
C51 C56 1.342 . S
C52 C53 1.310 . S
C52 C55 1.461 . S
C52 H72 0.932 . S
C53 C51 1.408 . S
C53 C52 1.310 . S
C53 H73 0.930 . S
C54 C55 1.474 . S
C54 C56 1.285 . S
C54 H74 0.929 . S
C55 C52 1.461 . S
C55 C54 1.474 . S
C56 C51 1.342 . S
C56 C54 1.285 . S
C56 H75 0.930 . S
C57 C60 1.424 . S
C57 C62 1.245 . S
C57 C63 1.428 . S
C58 C61 1.260 . S
C58 C62 1.477 . S
C58 H76 0.932 . S
C59 C60 1.384 . S
C59 C61 1.479 . S
C59 H77 0.929 . S
C60 C57 1.424 . S
C60 C59 1.384 . S
C60 H78 0.928 . S
C61 C58 1.260 . S
C61 C59 1.479 . S
C62 C57 1.245 . S
C62 C58 1.477 . S
C62 H79 0.932 . S
C63 U46 2.882 . S
C63 C57 1.428 . S
C63 O66 1.301 . S
C63 O67 1.282 . S
O64 U46 2.441 . S
O64 C50 1.249 . S
O65 U46 2.420 . S
O65 C50 1.202 . S
O66 U46 2.455 . S
O66 C63 1.301 . S
O67 U46 2.449 . S
O67 C63 1.282 . S
H68 C41 0.931 . S
H69 C43 0.929 . S
H70 C44 0.930 . S
H71 C45 0.931 . S
H72 C52 0.932 . S
H73 C53 0.930 . S
H74 C54 0.929 . S
H75 C56 0.930 . S
H76 C58 0.932 . S
H77 C59 0.929 . S
H78 C60 0.928 . S
H79 C62 0.932 . S
C80 C81 1.264 . S
C80 C85 1.479 . S
C80 C90 1.465 . S
C81 C80 1.264 . S
C81 C83 1.339 . S
C81 H108 0.931 . S
C82 C83 1.395 . S
C82 C84 1.320 . S
C83 C81 1.339 . S
C83 C82 1.395 . S
C83 H109 0.929 . S
C84 C82 1.320 . S
C84 C85 1.405 . S
C84 H110 0.930 . S
C85 C80 1.479 . S
C85 C84 1.405 . S
C85 H111 0.931 . S
U86 O87 2.454 . S
U86 O88 2.458 . S
U86 C89 2.984 . S
U86 C90 2.847 . S
U86 C103 2.882 . S
U86 O104 2.441 . S
U86 O105 2.420 . S
U86 O106 2.455 . S
U86 O107 2.449 . S
O87 U86 2.454 . S
O87 C89 1.353 . S
O88 U86 2.458 . S
O88 C89 1.286 . S
C89 U86 2.984 . S
C89 O87 1.353 . S
C89 O88 1.286 . S
C89 C91 1.363 . S
C90 C80 1.465 . S
C90 U86 2.847 . S
C90 O104 1.249 . S
C90 O105 1.202 . S
C91 C89 1.363 . S
C91 C93 1.408 . S
C91 C96 1.342 . S
C92 C93 1.310 . S
C92 C95 1.461 . S
C92 H112 0.932 . S
C93 C91 1.408 . S
C93 C92 1.310 . S
C93 H113 0.930 . S
C94 C95 1.474 . S
C94 C96 1.285 . S
C94 H114 0.929 . S
C95 C92 1.461 . S
C95 C94 1.474 . S
C96 C91 1.342 . S
C96 C94 1.285 . S
C96 H115 0.930 . S
C97 C100 1.424 . S
C97 C102 1.245 . S
C97 C103 1.428 . S
C98 C101 1.260 . S
C98 C102 1.477 . S
C98 H116 0.932 . S
C99 C100 1.384 . S
C99 C101 1.479 . S
C99 H117 0.929 . S
C100 C97 1.424 . S
C100 C99 1.384 . S
C100 H118 0.928 . S
C101 C98 1.260 . S
C101 C99 1.479 . S
C102 C97 1.245 . S
C102 C98 1.477 . S
C102 H119 0.932 . S
C103 U86 2.882 . S
C103 C97 1.428 . S
C103 O106 1.301 . S
C103 O107 1.282 . S
O104 U86 2.441 . S
O104 C90 1.249 . S
O105 U86 2.420 . S
O105 C90 1.202 . S
O106 U86 2.455 . S
O106 C103 1.301 . S
O107 U86 2.449 . S
O107 C103 1.282 . S
H108 C81 0.931 . S
H109 C83 0.929 . S
H110 C84 0.930 . S
H111 C85 0.931 . S
H112 C92 0.932 . S
H113 C93 0.930 . S
H114 C94 0.929 . S
H115 C96 0.930 . S
H116 C98 0.932 . S
H117 C99 0.929 . S
H118 C100 0.928 . S
H119 C102 0.932 . S
C120 C121 1.264 . S
C120 C125 1.479 . S
C120 C130 1.465 . S
C121 C120 1.264 . S
C121 C123 1.339 . S
C121 H148 0.931 . S
C122 C123 1.395 . S
C122 C124 1.320 . S
C123 C121 1.339 . S
C123 C122 1.395 . S
C123 H149 0.929 . S
C124 C122 1.320 . S
C124 C125 1.405 . S
C124 H150 0.930 . S
C125 C120 1.479 . S
C125 C124 1.405 . S
C125 H151 0.931 . S
U126 O127 2.454 . S
U126 O128 2.458 . S
U126 C129 2.984 . S
U126 C130 2.847 . S
U126 C143 2.882 . S
U126 O144 2.441 . S
U126 O145 2.420 . S
U126 O146 2.455 . S
U126 O147 2.449 . S
O127 U126 2.454 . S
O127 C129 1.353 . S
O128 U126 2.458 . S
O128 C129 1.286 . S
C129 U126 2.984 . S
C129 O127 1.353 . S
C129 O128 1.286 . S
C129 C131 1.363 . S
C130 C120 1.465 . S
C130 U126 2.847 . S
C130 O144 1.249 . S
C130 O145 1.202 . S
C131 C129 1.363 . S
C131 C133 1.408 . S
C131 C136 1.342 . S
C132 C133 1.310 . S
C132 C135 1.461 . S
C132 H152 0.932 . S
C133 C131 1.408 . S
C133 C132 1.310 . S
C133 H153 0.930 . S
C134 C135 1.474 . S
C134 C136 1.285 . S
C134 H154 0.929 . S
C135 C132 1.461 . S
C135 C134 1.474 . S
C136 C131 1.342 . S
C136 C134 1.285 . S
C136 H155 0.930 . S
C137 C140 1.424 . S
C137 C142 1.245 . S
C137 C143 1.428 . S
C138 C141 1.260 . S
C138 C142 1.477 . S
C138 H156 0.932 . S
C139 C140 1.384 . S
C139 C141 1.479 . S
C139 H157 0.929 . S
C140 C137 1.424 . S
C140 C139 1.384 . S
C140 H158 0.928 . S
C141 C138 1.260 . S
C141 C139 1.479 . S
C142 C137 1.245 . S
C142 C138 1.477 . S
C142 H159 0.932 . S
C143 U126 2.882 . S
C143 C137 1.428 . S
C143 O146 1.301 . S
C143 O147 1.282 . S
O144 U126 2.441 . S
O144 C130 1.249 . S
O145 U126 2.420 . S
O145 C130 1.202 . S
O146 U126 2.455 . S
O146 C143 1.301 . S
O147 U126 2.449 . S
O147 C143 1.282 . S
H148 C121 0.931 . S
H149 C123 0.929 . S
H150 C124 0.930 . S
H151 C125 0.931 . S
H152 C132 0.932 . S
H153 C133 0.930 . S
H154 C134 0.929 . S
H155 C136 0.930 . S
H156 C138 0.932 . S
H157 C139 0.929 . S
H158 C140 0.928 . S
H159 C142 0.932 . S
C160 C161 1.264 . S
C160 C165 1.479 . S
C160 C170 1.465 . S
C161 C160 1.264 . S
C161 C163 1.339 . S
C161 H188 0.931 . S
C162 C163 1.395 . S
C162 C164 1.320 . S
C163 C161 1.339 . S
C163 C162 1.395 . S
C163 H189 0.929 . S
C164 C162 1.320 . S
C164 C165 1.405 . S
C164 H190 0.930 . S
C165 C160 1.479 . S
C165 C164 1.405 . S
C165 H191 0.931 . S
U166 O167 2.454 . S
U166 O168 2.458 . S
U166 C169 2.984 . S
U166 C170 2.847 . S
U166 C183 2.882 . S
U166 O184 2.441 . S
U166 O185 2.420 . S
U166 O186 2.455 . S
U166 O187 2.449 . S
O167 U166 2.454 . S
O167 C169 1.353 . S
O168 U166 2.458 . S
O168 C169 1.286 . S
C169 U166 2.984 . S
C169 O167 1.353 . S
C169 O168 1.286 . S
C169 C171 1.363 . S
C170 C160 1.465 . S
C170 U166 2.847 . S
C170 O184 1.249 . S
C170 O185 1.202 . S
C171 C169 1.363 . S
C171 C173 1.408 . S
C171 C176 1.342 . S
C172 C173 1.310 . S
C172 C175 1.461 . S
C172 H192 0.932 . S
C173 C171 1.408 . S
C173 C172 1.310 . S
C173 H193 0.930 . S
C174 C175 1.474 . S
C174 C176 1.285 . S
C174 H194 0.929 . S
C175 C172 1.461 . S
C175 C174 1.474 . S
C176 C171 1.342 . S
C176 C174 1.285 . S
C176 H195 0.930 . S
C177 C180 1.424 . S
C177 C182 1.245 . S
C177 C183 1.428 . S
C178 C181 1.260 . S
C178 C182 1.477 . S
C178 H196 0.932 . S
C179 C180 1.384 . S
C179 C181 1.479 . S
C179 H197 0.929 . S
C180 C177 1.424 . S
C180 C179 1.384 . S
C180 H198 0.928 . S
C181 C178 1.260 . S
C181 C179 1.479 . S
C182 C177 1.245 . S
C182 C178 1.477 . S
C182 H199 0.932 . S
C183 U166 2.882 . S
C183 C177 1.428 . S
C183 O186 1.301 . S
C183 O187 1.282 . S
O184 U166 2.441 . S
O184 C170 1.249 . S
O185 U166 2.420 . S
O185 C170 1.202 . S
O186 U166 2.455 . S
O186 C183 1.301 . S
O187 U166 2.449 . S
O187 C183 1.282 . S
H188 C161 0.931 . S
H189 C163 0.929 . S
H190 C164 0.930 . S
H191 C165 0.931 . S
H192 C172 0.932 . S
H193 C173 0.930 . S
H194 C174 0.929 . S
H195 C176 0.930 . S
H196 C178 0.932 . S
H197 C179 0.929 . S
H198 C180 0.928 . S
H199 C182 0.932 . S
C200 C201 1.264 . S
C200 C205 1.479 . S
C200 C210 1.465 . S
C201 C200 1.264 . S
C201 C203 1.339 . S
C201 H228 0.931 . S
C202 C203 1.395 . S
C202 C204 1.320 . S
C203 C201 1.339 . S
C203 C202 1.395 . S
C203 H229 0.929 . S
C204 C202 1.320 . S
C204 C205 1.405 . S
C204 H230 0.930 . S
C205 C200 1.479 . S
C205 C204 1.405 . S
C205 H231 0.931 . S
U206 O207 2.454 . S
U206 O208 2.458 . S
U206 C209 2.984 . S
U206 C210 2.847 . S
U206 C223 2.882 . S
U206 O224 2.441 . S
U206 O225 2.420 . S
U206 O226 2.455 . S
U206 O227 2.449 . S
O207 U206 2.454 . S
O207 C209 1.353 . S
O208 U206 2.458 . S
O208 C209 1.286 . S
C209 U206 2.984 . S
C209 O207 1.353 . S
C209 O208 1.286 . S
C209 C211 1.363 . S
C210 C200 1.465 . S
C210 U206 2.847 . S
C210 O224 1.249 . S
C210 O225 1.202 . S
C211 C209 1.363 . S
C211 C213 1.408 . S
C211 C216 1.342 . S
C212 C213 1.310 . S
C212 C215 1.461 . S
C212 H232 0.932 . S
C213 C211 1.408 . S
C213 C212 1.310 . S
C213 H233 0.930 . S
C214 C215 1.474 . S
C214 C216 1.285 . S
C214 H234 0.929 . S
C215 C212 1.461 . S
C215 C214 1.474 . S
C216 C211 1.342 . S
C216 C214 1.285 . S
C216 H235 0.930 . S
C217 C220 1.424 . S
C217 C222 1.245 . S
C217 C223 1.428 . S
C218 C221 1.260 . S
C218 C222 1.477 . S
C218 H236 0.932 . S
C219 C220 1.384 . S
C219 C221 1.479 . S
C219 H237 0.929 . S
C220 C217 1.424 . S
C220 C219 1.384 . S
C220 H238 0.928 . S
C221 C218 1.260 . S
C221 C219 1.479 . S
C222 C217 1.245 . S
C222 C218 1.477 . S
C222 H239 0.932 . S
C223 U206 2.882 . S
C223 C217 1.428 . S
C223 O226 1.301 . S
C223 O227 1.282 . S
O224 U206 2.441 . S
O224 C210 1.249 . S
O225 U206 2.420 . S
O225 C210 1.202 . S
O226 U206 2.455 . S
O226 C223 1.301 . S
O227 U206 2.449 . S
O227 C223 1.282 . S
H228 C201 0.931 . S
H229 C203 0.929 . S
H230 C204 0.930 . S
H231 C205 0.931 . S
H232 C212 0.932 . S
H233 C213 0.930 . S
H234 C214 0.929 . S
H235 C216 0.930 . S
H236 C218 0.932 . S
H237 C219 0.929 . S
H238 C220 0.928 . S
H239 C222 0.932 . S
C240 C241 1.264 . S
C240 C245 1.479 . S
C240 C250 1.465 . S
C241 C240 1.264 . S
C241 C243 1.339 . S
C241 H268 0.931 . S
C242 C243 1.395 . S
C242 C244 1.320 . S
C243 C241 1.339 . S
C243 C242 1.395 . S
C243 H269 0.929 . S
C244 C242 1.320 . S
C244 C245 1.405 . S
C244 H270 0.930 . S
C245 C240 1.479 . S
C245 C244 1.405 . S
C245 H271 0.931 . S
U246 O247 2.454 . S
U246 O248 2.458 . S
U246 C249 2.984 . S
U246 C250 2.847 . S
U246 C263 2.882 . S
U246 O264 2.441 . S
U246 O265 2.420 . S
U246 O266 2.455 . S
U246 O267 2.449 . S
O247 U246 2.454 . S
O247 C249 1.353 . S
O248 U246 2.458 . S
O248 C249 1.286 . S
C249 U246 2.984 . S
C249 O247 1.353 . S
C249 O248 1.286 . S
C249 C251 1.363 . S
C250 C240 1.465 . S
C250 U246 2.847 . S
C250 O264 1.249 . S
C250 O265 1.202 . S
C251 C249 1.363 . S
C251 C253 1.408 . S
C251 C256 1.342 . S
C252 C253 1.310 . S
C252 C255 1.461 . S
C252 H272 0.932 . S
C253 C251 1.408 . S
C253 C252 1.310 . S
C253 H273 0.930 . S
C254 C255 1.474 . S
C254 C256 1.285 . S
C254 H274 0.929 . S
C255 C252 1.461 . S
C255 C254 1.474 . S
C256 C251 1.342 . S
C256 C254 1.285 . S
C256 H275 0.930 . S
C257 C260 1.424 . S
C257 C262 1.245 . S
C257 C263 1.428 . S
C258 C261 1.260 . S
C258 C262 1.477 . S
C258 H276 0.932 . S
C259 C260 1.384 . S
C259 C261 1.479 . S
C259 H277 0.929 . S
C260 C257 1.424 . S
C260 C259 1.384 . S
C260 H278 0.928 . S
C261 C258 1.260 . S
C261 C259 1.479 . S
C262 C257 1.245 . S
C262 C258 1.477 . S
C262 H279 0.932 . S
C263 U246 2.882 . S
C263 C257 1.428 . S
C263 O266 1.301 . S
C263 O267 1.282 . S
O264 U246 2.441 . S
O264 C250 1.249 . S
O265 U246 2.420 . S
O265 C250 1.202 . S
O266 U246 2.455 . S
O266 C263 1.301 . S
O267 U246 2.449 . S
O267 C263 1.282 . S
H268 C241 0.931 . S
H269 C243 0.929 . S
H270 C244 0.930 . S
H271 C245 0.931 . S
H272 C252 0.932 . S
H273 C253 0.930 . S
H274 C254 0.929 . S
H275 C256 0.930 . S
H276 C258 0.932 . S
H277 C259 0.929 . S
H278 C260 0.928 . S
H279 C262 0.932 . S
C280 C281 1.264 . S
C280 C285 1.479 . S
C280 C290 1.465 . S
C281 C280 1.264 . S
C281 C283 1.339 . S
C281 H308 0.931 . S
C282 C283 1.395 . S
C282 C284 1.320 . S
C283 C281 1.339 . S
C283 C282 1.395 . S
C283 H309 0.929 . S
C284 C282 1.320 . S
C284 C285 1.405 . S
C284 H310 0.930 . S
C285 C280 1.479 . S
C285 C284 1.405 . S
C285 H311 0.931 . S
U286 O287 2.454 . S
U286 O288 2.458 . S
U286 C289 2.984 . S
U286 C290 2.847 . S
U286 C303 2.882 . S
U286 O304 2.441 . S
U286 O305 2.420 . S
U286 O306 2.455 . S
U286 O307 2.449 . S
O287 U286 2.454 . S
O287 C289 1.353 . S
O288 U286 2.458 . S
O288 C289 1.286 . S
C289 U286 2.984 . S
C289 O287 1.353 . S
C289 O288 1.286 . S
C289 C291 1.363 . S
C290 C280 1.465 . S
C290 U286 2.847 . S
C290 O304 1.249 . S
C290 O305 1.202 . S
C291 C289 1.363 . S
C291 C293 1.408 . S
C291 C296 1.342 . S
C292 C293 1.310 . S
C292 C295 1.461 . S
C292 H312 0.932 . S
C293 C291 1.408 . S
C293 C292 1.310 . S
C293 H313 0.930 . S
C294 C295 1.474 . S
C294 C296 1.285 . S
C294 H314 0.929 . S
C295 C292 1.461 . S
C295 C294 1.474 . S
C296 C291 1.342 . S
C296 C294 1.285 . S
C296 H315 0.930 . S
C297 C300 1.424 . S
C297 C302 1.245 . S
C297 C303 1.428 . S
C298 C301 1.260 . S
C298 C302 1.477 . S
C298 H316 0.932 . S
C299 C300 1.384 . S
C299 C301 1.479 . S
C299 H317 0.929 . S
C300 C297 1.424 . S
C300 C299 1.384 . S
C300 H318 0.928 . S
C301 C298 1.260 . S
C301 C299 1.479 . S
C302 C297 1.245 . S
C302 C298 1.477 . S
C302 H319 0.932 . S
C303 U286 2.882 . S
C303 C297 1.428 . S
C303 O306 1.301 . S
C303 O307 1.282 . S
O304 U286 2.441 . S
O304 C290 1.249 . S
O305 U286 2.420 . S
O305 C290 1.202 . S
O306 U286 2.455 . S
O306 C303 1.301 . S
O307 U286 2.449 . S
O307 C303 1.282 . S
H308 C281 0.931 . S
H309 C283 0.929 . S
H310 C284 0.930 . S
H311 C285 0.931 . S
H312 C292 0.932 . S
H313 C293 0.930 . S
H314 C294 0.929 . S
H315 C296 0.930 . S
H316 C298 0.932 . S
H317 C299 0.929 . S
H318 C300 0.928 . S
H319 C302 0.932 . S
C320 C321 1.560 . S
C320 H381 0.959 . S
C320 H382 0.959 . S
C320 H383 0.960 . S
C321 C320 1.560 . S
C321 O376 1.426 . S
C321 H380 0.980 . S
C322 C323 1.407 . S
C322 C327 1.418 . S
C322 O376 1.334 . S
C323 C322 1.407 . S
C323 C324 1.360 . S
C323 H384 0.929 . S
C324 C323 1.360 . S
C324 C325 1.401 . S
C324 C328 1.527 . S
C325 C324 1.401 . S
C325 C326 1.405 . S
C325 C358 1.587 . S
C326 C325 1.405 . S
C326 C327 1.332 . S
C326 C329 1.496 . S
C327 C322 1.418 . S
C327 C326 1.332 . S
C327 H385 0.929 . S
C328 C324 1.527 . S
C328 H386 0.959 . S
C328 H387 0.961 . S
C328 H388 0.961 . S
C329 C326 1.496 . S
C329 H389 0.960 . S
C329 H390 0.960 1_655 S
C329 H391 0.961 . S
C330 C331 1.517 . S
C330 H393 0.961 . S
C330 H394 0.960 . S
C330 H395 0.959 . S
C331 C330 1.517 . S
C331 O379 1.468 . S
C331 H392 0.980 . S
C332 C333 1.349 . S
C332 C337 1.367 . S
C332 O379 1.408 . S
C333 C332 1.349 . S
C333 C334 1.407 . S
C333 H396 0.930 . S
C334 C333 1.407 . S
C334 C335 1.449 . S
C334 C338 1.535 . S
C335 C334 1.449 . S
C335 C336 1.384 . S
C335 C360 1.553 . S
C336 C335 1.384 . S
C336 C337 1.364 . S
C336 C339 1.450 . S
C337 C332 1.367 . S
C337 C336 1.364 . S
C337 H397 0.931 . S
C338 C334 1.535 . S
C338 H398 0.959 . S
C338 H399 0.961 . S
C338 H400 0.959 . S
C339 C336 1.450 . S
C339 H401 0.960 . S
C339 H402 0.960 . S
C339 H403 0.960 . S
C340 C341 1.309 . S
C340 C345 1.304 . S
C340 O378 1.435 . S
C341 C340 1.309 . S
C341 C342 1.476 . S
C341 H405 0.930 . S
C342 C341 1.476 . S
C342 C343 1.400 . S
C342 C346 1.567 . S
C343 C342 1.400 . S
C343 C344 1.373 . S
C343 C365 1.432 . S
C344 C343 1.373 . S
C344 C345 1.339 . S
C344 C347 1.530 . S
C345 C340 1.304 . S
C345 C344 1.339 . S
C345 H406 0.930 . S
C346 C342 1.567 . S
C346 H407 0.961 . S
C346 H408 0.960 . S
C346 H409 0.958 . S
C347 C344 1.530 . S
C347 H410 0.961 . S
C347 H411 0.960 . S
C347 H412 0.960 . S
C348 C349 1.530 . S
C348 H414 0.961 . S
C348 H415 0.961 . S
C348 H416 0.959 . S
C349 C348 1.530 . S
C349 O377 1.412 . S
C349 H413 0.980 . S
C350 C351 1.288 . S
C350 C355 1.377 . S
C350 O377 1.393 . S
C351 C350 1.288 . S
C351 C352 1.369 . S
C351 H417 0.932 . S
C352 C351 1.369 . S
C352 C353 1.398 . S
C352 C356 1.527 . S
C353 C352 1.398 . S
C353 C354 1.380 . S
C353 C367 1.497 . S
C354 C353 1.380 . S
C354 C355 1.383 . S
C354 C357 1.603 . S
C355 C350 1.377 . S
C355 C354 1.383 . S
C355 H418 0.929 . S
C356 C352 1.527 . S
C356 H419 0.961 . S
C356 H420 0.956 1_655 S
C356 H421 0.959 . S
C357 C354 1.603 . S
C357 H422 0.960 . S
C357 H423 0.962 . S
C357 H424 0.961 . S
C358 C325 1.587 . S
C358 C359 1.360 1_655 S
C358 C371 1.412 . S
C359 C358 1.360 1_455 S
C359 C360 1.365 . S
C359 H425 0.929 . S
C360 C335 1.553 . S
C360 C359 1.365 . S
C360 C361 1.404 . S
C361 C360 1.404 . S
C361 C362 1.395 . S
C361 C372 1.451 . S
C362 C361 1.395 . S
C362 C363 1.322 . S
C362 H426 0.930 . S
C363 C362 1.322 . S
C363 C364 1.459 . S
C363 H427 0.929 . S
C364 C363 1.459 . S
C364 C365 1.445 . S
C364 C373 1.395 . S
C365 C343 1.432 . S
C365 C364 1.445 . S
C365 C366 1.370 . S
C366 C365 1.370 . S
C366 C367 1.438 1_455 S
C366 H428 0.930 . S
C367 C353 1.497 . S
C367 C366 1.438 1_655 S
C367 C368 1.360 . S
C368 C367 1.360 . S
C368 C369 1.401 . S
C368 C373 1.446 1_655 S
C369 C368 1.401 . S
C369 C370 1.347 . S
C369 H429 0.929 . S
C370 C369 1.347 . S
C370 C371 1.455 . S
C370 H430 0.930 . S
C371 C358 1.412 . S
C371 C370 1.455 . S
C371 C372 1.331 1_655 S
C372 C361 1.451 . S
C372 C371 1.331 1_455 S
C372 C373 1.497 . S
C373 C364 1.395 . S
C373 C368 1.446 1_455 S
C373 C372 1.497 . S
C374 C375 1.582 . S
C374 H431 0.962 . S
C374 H432 0.959 . S
C374 H433 0.958 . S
C375 C374 1.582 . S
C375 O378 1.458 . S
C375 H404 0.980 . S
O376 C321 1.426 . S
O376 C322 1.334 . S
O377 C349 1.412 . S
O377 C350 1.393 . S
O378 C340 1.435 . S
O378 C375 1.458 . S
O379 C331 1.468 . S
O379 C332 1.408 . S
H380 C321 0.980 . S
H381 C320 0.959 . S
H382 C320 0.959 . S
H383 C320 0.960 . S
H384 C323 0.929 . S
H385 C327 0.929 . S
H386 C328 0.959 . S
H387 C328 0.961 . S
H388 C328 0.961 . S
H389 C329 0.960 . S
H390 C329 0.960 1_455 S
H391 C329 0.961 . S
H392 C331 0.980 . S
H393 C330 0.961 . S
H394 C330 0.960 . S
H395 C330 0.959 . S
H396 C333 0.930 . S
H397 C337 0.931 . S
H398 C338 0.959 . S
H399 C338 0.961 . S
H400 C338 0.959 . S
H401 C339 0.960 . S
H402 C339 0.960 . S
H403 C339 0.960 . S
H404 C375 0.980 . S
H405 C341 0.930 . S
H406 C345 0.930 . S
H407 C346 0.961 . S
H408 C346 0.960 . S
H409 C346 0.958 . S
H410 C347 0.961 . S
H411 C347 0.960 . S
H412 C347 0.960 . S
H413 C349 0.980 . S
H414 C348 0.961 . S
H415 C348 0.961 . S
H416 C348 0.959 . S
H417 C351 0.932 . S
H418 C355 0.929 . S
H419 C356 0.961 . S
H420 C356 0.956 1_455 S
H421 C356 0.959 . S
H422 C357 0.960 . S
H423 C357 0.962 . S
H424 C357 0.961 . S
H425 C359 0.929 . S
H426 C362 0.930 . S
H427 C363 0.929 . S
H428 C366 0.930 . S
H429 C369 0.929 . S
H430 C370 0.930 . S
H431 C374 0.962 . S
H432 C374 0.959 . S
H433 C374 0.958 . S
C434 C435 1.560 . S
C434 H495 0.959 . S
C434 H496 0.959 . S
C434 H497 0.960 . S
C435 C434 1.560 . S
C435 O490 1.426 . S
C435 H494 0.980 . S
C436 C437 1.407 . S
C436 C441 1.418 . S
C436 O490 1.334 . S
C437 C436 1.407 . S
C437 C438 1.360 . S
C437 H498 0.929 . S
C438 C437 1.360 . S
C438 C439 1.401 . S
C438 C442 1.527 . S
C439 C438 1.401 . S
C439 C440 1.405 . S
C439 C472 1.587 . S
C440 C439 1.405 . S
C440 C441 1.332 . S
C440 C443 1.496 . S
C441 C436 1.418 . S
C441 C440 1.332 . S
C441 H499 0.929 . S
C442 C438 1.527 . S
C442 H500 0.959 . S
C442 H501 0.961 . S
C442 H502 0.961 . S
C443 C440 1.496 . S
C443 H503 0.960 . S
C443 H504 0.960 . S
C443 H505 0.961 . S
C444 C445 1.517 . S
C444 H507 0.961 . S
C444 H508 0.960 . S
C444 H509 0.959 . S
C445 C444 1.517 . S
C445 O493 1.468 . S
C445 H506 0.980 . S
C446 C447 1.349 . S
C446 C451 1.367 . S
C446 O493 1.408 . S
C447 C446 1.349 . S
C447 C448 1.407 . S
C447 H510 0.930 . S
C448 C447 1.407 . S
C448 C449 1.449 . S
C448 C452 1.535 . S
C449 C448 1.449 . S
C449 C450 1.384 . S
C449 C474 1.553 . S
C450 C449 1.384 . S
C450 C451 1.364 . S
C450 C453 1.450 . S
C451 C446 1.367 . S
C451 C450 1.364 . S
C451 H511 0.931 . S
C452 C448 1.535 . S
C452 H512 0.959 . S
C452 H513 0.961 . S
C452 H514 0.959 . S
C453 C450 1.450 . S
C453 H515 0.960 . S
C453 H516 0.960 . S
C453 H517 0.960 . S
C454 C455 1.309 . S
C454 C459 1.304 . S
C454 O492 1.435 . S
C455 C454 1.309 . S
C455 C456 1.476 . S
C455 H519 0.930 . S
C456 C455 1.476 . S
C456 C457 1.400 . S
C456 C460 1.567 . S
C457 C456 1.400 . S
C457 C458 1.373 . S
C457 C479 1.432 . S
C458 C457 1.373 . S
C458 C459 1.339 . S
C458 C461 1.530 . S
C459 C454 1.304 . S
C459 C458 1.339 . S
C459 H520 0.930 . S
C460 C456 1.567 . S
C460 H521 0.961 . S
C460 H522 0.960 . S
C460 H523 0.958 . S
C461 C458 1.530 . S
C461 H524 0.961 . S
C461 H525 0.960 . S
C461 H526 0.960 . S
C462 C463 1.530 . S
C462 H528 0.961 . S
C462 H529 0.961 . S
C462 H530 0.959 . S
C463 C462 1.530 . S
C463 O491 1.412 . S
C463 H527 0.980 . S
C464 C465 1.288 . S
C464 C469 1.377 . S
C464 O491 1.393 . S
C465 C464 1.288 . S
C465 C466 1.369 . S
C465 H531 0.932 . S
C466 C465 1.369 . S
C466 C467 1.398 . S
C466 C470 1.527 . S
C467 C466 1.398 . S
C467 C468 1.380 . S
C467 C481 1.497 . S
C468 C467 1.380 . S
C468 C469 1.383 . S
C468 C471 1.603 . S
C469 C464 1.377 . S
C469 C468 1.383 . S
C469 H532 0.929 . S
C470 C466 1.527 . S
C470 H533 0.961 . S
C470 H534 0.959 . S
C470 H535 0.959 . S
C471 C468 1.603 . S
C471 H536 0.960 . S
C471 H537 0.962 . S
C471 H538 0.961 . S
C472 C439 1.587 . S
C472 C473 1.360 . S
C472 C485 1.412 . S
C473 C472 1.360 . S
C473 C474 1.365 1_455 S
C473 H539 0.929 . S
C474 C449 1.553 . S
C474 C473 1.365 1_655 S
C474 C475 1.404 . S
C475 C474 1.404 . S
C475 C476 1.395 . S
C475 C486 1.451 1_655 S
C476 C475 1.395 . S
C476 C477 1.322 . S
C476 H540 0.930 . S
C477 C476 1.322 . S
C477 C478 1.459 . S
C477 H541 0.929 . S
C478 C477 1.459 . S
C478 C479 1.445 . S
C478 C487 1.395 1_655 S
C479 C457 1.432 . S
C479 C478 1.445 . S
C479 C480 1.370 1_655 S
C480 C479 1.370 1_455 S
C480 C481 1.438 . S
C480 H542 0.930 . S
C481 C467 1.497 . S
C481 C480 1.438 . S
C481 C482 1.360 . S
C482 C481 1.360 . S
C482 C483 1.401 . S
C482 C487 1.446 . S
C483 C482 1.401 . S
C483 C484 1.347 . S
C483 H543 0.929 . S
C484 C483 1.347 . S
C484 C485 1.455 . S
C484 H544 0.930 . S
C485 C472 1.412 . S
C485 C484 1.455 . S
C485 C486 1.331 . S
C486 C475 1.451 1_455 S
C486 C485 1.331 . S
C486 C487 1.497 . S
C487 C478 1.395 1_455 S
C487 C482 1.446 . S
C487 C486 1.497 . S
C488 C489 1.582 . S
C488 H545 0.962 . S
C488 H546 0.959 . S
C488 H547 0.958 . S
C489 C488 1.582 . S
C489 O492 1.458 . S
C489 H518 0.980 . S
O490 C435 1.426 . S
O490 C436 1.334 . S
O491 C463 1.412 . S
O491 C464 1.393 . S
O492 C454 1.435 . S
O492 C489 1.458 . S
O493 C445 1.468 . S
O493 C446 1.408 . S
H494 C435 0.980 . S
H495 C434 0.959 . S
H496 C434 0.959 . S
H497 C434 0.960 . S
H498 C437 0.929 . S
H499 C441 0.929 . S
H500 C442 0.959 . S
H501 C442 0.961 . S
H502 C442 0.961 . S
H503 C443 0.960 . S
H504 C443 0.960 . S
H505 C443 0.961 . S
H506 C445 0.980 . S
H507 C444 0.961 . S
H508 C444 0.960 . S
H509 C444 0.959 . S
H510 C447 0.930 . S
H511 C451 0.931 . S
H512 C452 0.959 . S
H513 C452 0.961 . S
H514 C452 0.959 . S
H515 C453 0.960 . S
H516 C453 0.960 . S
H517 C453 0.960 . S
H518 C489 0.980 . S
H519 C455 0.930 . S
H520 C459 0.930 . S
H521 C460 0.961 . S
H522 C460 0.960 . S
H523 C460 0.958 . S
H524 C461 0.961 . S
H525 C461 0.960 . S
H526 C461 0.960 . S
H527 C463 0.980 . S
H528 C462 0.961 . S
H529 C462 0.961 . S
H530 C462 0.959 . S
H531 C465 0.932 . S
H532 C469 0.929 . S
H533 C470 0.961 . S
H534 C470 0.959 . S
H535 C470 0.959 . S
H536 C471 0.960 . S
H537 C471 0.962 . S
H538 C471 0.961 . S
H539 C473 0.929 . S
H540 C476 0.930 . S
H541 C477 0.929 . S
H542 C480 0.930 . S
H543 C483 0.929 . S
H544 C484 0.930 . S
H545 C488 0.962 . S
H546 C488 0.959 . S
H547 C488 0.958 . S
C548 C549 1.560 . S
C548 H609 0.959 . S
C548 H610 0.959 . S
C548 H611 0.960 . S
C549 C548 1.560 . S
C549 O604 1.426 . S
C549 H608 0.980 . S
C550 C551 1.407 . S
C550 C555 1.418 . S
C550 O604 1.334 . S
C551 C550 1.407 . S
C551 C552 1.360 . S
C551 H612 0.929 . S
C552 C551 1.360 . S
C552 C553 1.401 . S
C552 C556 1.527 . S
C553 C552 1.401 . S
C553 C554 1.405 . S
C553 C586 1.587 . S
C554 C553 1.405 . S
C554 C555 1.332 . S
C554 C557 1.496 . S
C555 C550 1.418 . S
C555 C554 1.332 . S
C555 H613 0.929 . S
C556 C552 1.527 . S
C556 H614 0.959 . S
C556 H615 0.961 . S
C556 H616 0.961 . S
C557 C554 1.496 . S
C557 H617 0.960 . S
C557 H618 0.960 . S
C557 H619 0.961 . S
C558 C559 1.517 . S
C558 H621 0.961 . S
C558 H622 0.960 . S
C558 H623 0.959 . S
C559 C558 1.517 . S
C559 O607 1.468 . S
C559 H620 0.980 . S
C560 C561 1.349 . S
C560 C565 1.367 . S
C560 O607 1.408 . S
C561 C560 1.349 . S
C561 C562 1.407 . S
C561 H624 0.930 . S
C562 C561 1.407 . S
C562 C563 1.449 . S
C562 C566 1.535 . S
C563 C562 1.449 . S
C563 C564 1.384 . S
C563 C588 1.553 . S
C564 C563 1.384 . S
C564 C565 1.364 . S
C564 C567 1.450 . S
C565 C560 1.367 . S
C565 C564 1.364 . S
C565 H625 0.931 . S
C566 C562 1.535 . S
C566 H626 0.959 . S
C566 H627 0.961 . S
C566 H628 0.959 . S
C567 C564 1.450 . S
C567 H629 0.960 . S
C567 H630 0.960 . S
C567 H631 0.960 . S
C568 C569 1.309 . S
C568 C573 1.304 . S
C568 O606 1.435 . S
C569 C568 1.309 . S
C569 C570 1.476 . S
C569 H633 0.930 . S
C570 C569 1.476 . S
C570 C571 1.400 . S
C570 C574 1.567 . S
C571 C570 1.400 . S
C571 C572 1.373 . S
C571 C593 1.432 . S
C572 C571 1.373 . S
C572 C573 1.339 . S
C572 C575 1.530 . S
C573 C568 1.304 . S
C573 C572 1.339 . S
C573 H634 0.930 . S
C574 C570 1.567 . S
C574 H635 0.961 . S
C574 H636 0.960 . S
C574 H637 0.958 . S
C575 C572 1.530 . S
C575 H638 0.961 . S
C575 H639 0.960 . S
C575 H640 1.012 . S
C576 C577 1.530 . S
C576 H642 0.961 . S
C576 H643 0.961 . S
C576 H644 0.959 . S
C577 C576 1.530 . S
C577 O605 1.412 . S
C577 H641 0.980 . S
C578 C579 1.288 . S
C578 C583 1.377 . S
C578 O605 1.393 . S
C579 C578 1.288 . S
C579 C580 1.369 . S
C579 H645 0.932 . S
C580 C579 1.369 . S
C580 C581 1.398 . S
C580 C584 1.527 . S
C581 C580 1.398 . S
C581 C582 1.380 . S
C581 C595 1.497 . S
C582 C581 1.380 . S
C582 C583 1.383 . S
C582 C585 1.603 . S
C583 C578 1.377 . S
C583 C582 1.383 . S
C583 H646 0.929 . S
C584 C580 1.527 . S
C584 H647 0.961 . S
C584 H648 0.959 . S
C584 H649 0.959 . S
C585 C582 1.603 . S
C585 H650 0.960 . S
C585 H651 0.962 . S
C585 H652 0.961 . S
C586 C553 1.587 . S
C586 C587 1.360 . S
C586 C599 1.412 . S
C587 C586 1.360 . S
C587 C588 1.365 1_545 S
C587 H653 0.929 . S
C588 C563 1.553 . S
C588 C587 1.365 1_565 S
C588 C589 1.404 . S
C589 C588 1.404 . S
C589 C590 1.395 . S
C589 C600 1.451 1_565 S
C590 C589 1.395 . S
C590 C591 1.322 . S
C590 H654 0.930 . S
C591 C590 1.322 . S
C591 C592 1.459 . S
C591 H655 0.929 . S
C592 C591 1.459 . S
C592 C593 1.445 . S
C592 C601 1.395 1_565 S
C593 C571 1.432 . S
C593 C592 1.445 . S
C593 C594 1.370 1_565 S
C594 C593 1.370 1_545 S
C594 C595 1.438 . S
C594 H656 0.930 . S
C595 C581 1.497 . S
C595 C594 1.438 . S
C595 C596 1.360 . S
C596 C595 1.360 . S
C596 C597 1.401 . S
C596 C601 1.446 . S
C597 C596 1.401 . S
C597 C598 1.347 . S
C597 H657 0.929 . S
C598 C597 1.347 . S
C598 C599 1.455 . S
C598 H658 0.930 . S
C599 C586 1.412 . S
C599 C598 1.455 . S
C599 C600 1.331 . S
C600 C589 1.451 1_545 S
C600 C599 1.331 . S
C600 C601 1.497 . S
C601 C592 1.395 1_545 S
C601 C596 1.446 . S
C601 C600 1.497 . S
C602 C603 1.582 . S
C602 H659 0.962 . S
C602 H660 0.959 . S
C602 H661 0.958 . S
C603 C602 1.582 . S
C603 O606 1.458 . S
C603 H632 0.980 . S
O604 C549 1.426 . S
O604 C550 1.334 . S
O605 C577 1.412 . S
O605 C578 1.393 . S
O606 C568 1.435 . S
O606 C603 1.458 . S
O607 C559 1.468 . S
O607 C560 1.408 . S
H608 C549 0.980 . S
H609 C548 0.959 . S
H610 C548 0.959 . S
H611 C548 0.960 . S
H612 C551 0.929 . S
H613 C555 0.929 . S
H614 C556 0.959 . S
H615 C556 0.961 . S
H616 C556 0.961 . S
H617 C557 0.960 . S
H618 C557 0.960 . S
H619 C557 0.961 . S
H620 C559 0.980 . S
H621 C558 0.961 . S
H622 C558 0.960 . S
H623 C558 0.959 . S
H624 C561 0.930 . S
H625 C565 0.931 . S
H626 C566 0.959 . S
H627 C566 0.961 . S
H628 C566 0.959 . S
H629 C567 0.960 . S
H630 C567 0.960 . S
H631 C567 0.960 . S
H632 C603 0.980 . S
H633 C569 0.930 . S
H634 C573 0.930 . S
H635 C574 0.961 . S
H636 C574 0.960 . S
H637 C574 0.958 . S
H638 C575 0.961 . S
H639 C575 0.960 . S
H640 C575 1.012 . S
H641 C577 0.980 . S
H642 C576 0.961 . S
H643 C576 0.961 . S
H644 C576 0.959 . S
H645 C579 0.932 . S
H646 C583 0.929 . S
H647 C584 0.961 . S
H648 C584 0.959 . S
H649 C584 0.959 . S
H650 C585 0.960 . S
H651 C585 0.962 . S
H652 C585 0.961 . S
H653 C587 0.929 . S
H654 C590 0.930 . S
H655 C591 0.929 . S
H656 C594 0.930 . S
H657 C597 0.929 . S
H658 C598 0.930 . S
H659 C602 0.962 . S
H660 C602 0.959 . S
H661 C602 0.958 . S
C662 C663 1.560 . S
C662 H723 0.959 . S
C662 H724 0.959 . S
C662 H725 0.960 . S
C663 C662 1.560 . S
C663 O718 1.426 . S
C663 H722 0.980 . S
C664 C665 1.407 . S
C664 C669 1.418 . S
C664 O718 1.334 . S
C665 C664 1.407 . S
C665 C666 1.360 . S
C665 H726 0.929 . S
C666 C665 1.360 . S
C666 C667 1.401 . S
C666 C670 1.527 . S
C667 C666 1.401 . S
C667 C668 1.405 . S
C667 C700 1.587 . S
C668 C667 1.405 . S
C668 C669 1.332 . S
C668 C671 1.496 . S
C669 C664 1.418 . S
C669 C668 1.332 . S
C669 H727 0.929 . S
C670 C666 1.527 . S
C670 H728 0.959 . S
C670 H729 0.961 . S
C670 H730 0.961 . S
C671 C668 1.496 . S
C671 H731 0.960 . S
C671 H732 0.960 . S
C671 H733 0.961 . S
C672 C673 1.517 . S
C672 H735 0.961 . S
C672 H736 0.960 . S
C672 H737 0.959 . S
C673 C672 1.517 . S
C673 O721 1.468 . S
C673 H734 0.980 . S
C674 C675 1.349 . S
C674 C679 1.367 . S
C674 O721 1.408 . S
C675 C674 1.349 . S
C675 C676 1.407 . S
C675 H738 0.930 . S
C676 C675 1.407 . S
C676 C677 1.449 . S
C676 C680 1.535 . S
C677 C676 1.449 . S
C677 C678 1.384 . S
C677 C702 1.553 . S
C678 C677 1.384 . S
C678 C679 1.364 . S
C678 C681 1.450 . S
C679 C674 1.367 . S
C679 C678 1.364 . S
C679 H739 0.931 . S
C680 C676 1.535 . S
C680 H740 0.959 . S
C680 H741 0.961 . S
C680 H742 0.959 . S
C681 C678 1.450 . S
C681 H743 0.960 . S
C681 H744 0.960 . S
C681 H745 0.960 . S
C682 C683 1.309 . S
C682 C687 1.304 . S
C682 O720 1.435 . S
C683 C682 1.309 . S
C683 C684 1.476 . S
C683 H747 0.930 . S
C684 C683 1.476 . S
C684 C685 1.400 . S
C684 C688 1.567 . S
C685 C684 1.400 . S
C685 C686 1.373 . S
C685 C707 1.432 . S
C686 C685 1.373 . S
C686 C687 1.339 . S
C686 C689 1.530 . S
C687 C682 1.304 . S
C687 C686 1.339 . S
C687 H748 0.930 . S
C688 C684 1.567 . S
C688 H749 0.961 . S
C688 H750 0.960 . S
C688 H751 0.958 . S
C689 C686 1.530 . S
C689 H752 0.961 . S
C689 H753 0.960 . S
C689 H754 0.960 . S
C690 C691 1.530 . S
C690 H756 0.961 . S
C690 H757 0.961 . S
C690 H758 0.959 . S
C691 C690 1.530 . S
C691 O719 1.412 . S
C691 H755 0.980 . S
C692 C693 1.288 . S
C692 C697 1.377 . S
C692 O719 1.393 . S
C693 C692 1.288 . S
C693 C694 1.369 . S
C693 H759 0.932 . S
C694 C693 1.369 . S
C694 C695 1.398 . S
C694 C698 1.527 . S
C695 C694 1.398 . S
C695 C696 1.380 . S
C695 C709 1.497 . S
C696 C695 1.380 . S
C696 C697 1.383 . S
C696 C699 1.603 . S
C697 C692 1.377 . S
C697 C696 1.383 . S
C697 H760 0.929 . S
C698 C694 1.527 . S
C698 H761 0.961 . S
C698 H762 0.959 . S
C698 H763 0.959 . S
C699 C696 1.603 . S
C699 H764 0.960 . S
C699 H765 0.962 . S
C699 H766 0.961 . S
C700 C667 1.587 . S
C700 C701 1.360 . S
C700 C713 1.412 . S
C701 C700 1.360 . S
C701 C702 1.365 . S
C701 H767 0.929 . S
C702 C677 1.553 . S
C702 C701 1.365 . S
C702 C703 1.404 . S
C703 C702 1.404 . S
C703 C704 1.395 . S
C703 C714 1.451 . S
C704 C703 1.395 . S
C704 C705 1.317 . S
C704 H768 0.930 . S
C705 C704 1.317 . S
C705 C706 1.461 1_554 S
C705 H769 0.932 1_554 S
C706 C705 1.461 1_556 S
C706 C707 1.445 . S
C706 C715 1.395 . S
C707 C685 1.432 . S
C707 C706 1.445 . S
C707 C708 1.370 . S
C708 C707 1.370 . S
C708 C709 1.438 . S
C708 H770 0.930 . S
C709 C695 1.497 . S
C709 C708 1.438 . S
C709 C710 1.360 . S
C710 C709 1.360 . S
C710 C711 1.401 . S
C710 C715 1.446 . S
C711 C710 1.401 . S
C711 C712 1.347 1_556 S
C711 H771 0.929 . S
C712 C711 1.347 1_554 S
C712 C713 1.455 . S
C712 H772 0.930 . S
C713 C700 1.412 . S
C713 C712 1.455 . S
C713 C714 1.331 . S
C714 C703 1.451 . S
C714 C713 1.331 . S
C714 C715 1.497 1_554 S
C715 C706 1.395 . S
C715 C710 1.446 . S
C715 C714 1.497 1_556 S
C716 C717 1.582 . S
C716 H773 0.962 . S
C716 H774 0.959 . S
C716 H775 0.958 . S
C717 C716 1.582 . S
C717 O720 1.458 . S
C717 H746 0.980 . S
O718 C663 1.426 . S
O718 C664 1.334 . S
O719 C691 1.412 . S
O719 C692 1.393 . S
O720 C682 1.435 . S
O720 C717 1.458 . S
O721 C673 1.468 . S
O721 C674 1.408 . S
H722 C663 0.980 . S
H723 C662 0.959 . S
H724 C662 0.959 . S
H725 C662 0.960 . S
H726 C665 0.929 . S
H727 C669 0.929 . S
H728 C670 0.959 . S
H729 C670 0.961 . S
H730 C670 0.961 . S
H731 C671 0.960 . S
H732 C671 0.960 . S
H733 C671 0.961 . S
H734 C673 0.980 . S
H735 C672 0.961 . S
H736 C672 0.960 . S
H737 C672 0.959 . S
H738 C675 0.930 . S
H739 C679 0.931 . S
H740 C680 0.959 . S
H741 C680 0.961 . S
H742 C680 0.959 . S
H743 C681 0.960 . S
H744 C681 0.960 . S
H745 C681 0.960 . S
H746 C717 0.980 . S
H747 C683 0.930 . S
H748 C687 0.930 . S
H749 C688 0.961 . S
H750 C688 0.960 . S
H751 C688 0.958 . S
H752 C689 0.961 . S
H753 C689 0.960 . S
H754 C689 0.960 . S
H755 C691 0.980 . S
H756 C690 0.961 . S
H757 C690 0.961 . S
H758 C690 0.959 . S
H759 C693 0.932 . S
H760 C697 0.929 . S
H761 C698 0.961 . S
H762 C698 0.959 . S
H763 C698 0.959 . S
H764 C699 0.960 . S
H765 C699 0.962 . S
H766 C699 0.961 . S
H767 C701 0.929 . S
H768 C704 0.930 . S
H769 C705 0.932 1_556 S
H770 C708 0.930 . S
H771 C711 0.929 . S
H772 C712 0.930 . S
H773 C716 0.962 . S
H774 C716 0.959 . S
H775 C716 0.958 . S
C776 C777 1.560 . S
C776 H837 0.959 . S
C776 H838 0.959 . S
C776 H839 0.960 . S
C777 C776 1.560 . S
C777 O832 1.426 . S
C777 H836 0.980 . S
C778 C779 1.407 . S
C778 C783 1.418 . S
C778 O832 1.334 . S
C779 C778 1.407 . S
C779 C780 1.360 . S
C779 H840 0.929 . S
C780 C779 1.360 . S
C780 C781 1.401 . S
C780 C784 1.527 . S
C781 C780 1.401 . S
C781 C782 1.405 . S
C781 C814 1.587 . S
C782 C781 1.405 . S
C782 C783 1.332 . S
C782 C785 1.496 . S
C783 C778 1.418 . S
C783 C782 1.332 . S
C783 H841 0.929 . S
C784 C780 1.527 . S
C784 H842 0.959 . S
C784 H843 0.961 . S
C784 H844 0.961 . S
C785 C782 1.496 . S
C785 H845 0.960 . S
C785 H846 0.960 . S
C785 H847 0.961 . S
C786 C787 1.517 . S
C786 H849 0.961 . S
C786 H850 0.960 . S
C786 H851 0.959 . S
C787 C786 1.517 . S
C787 O835 1.468 . S
C787 H848 0.980 . S
C788 C789 1.349 . S
C788 C793 1.367 . S
C788 O835 1.408 . S
C789 C788 1.349 . S
C789 C790 1.407 . S
C789 H852 0.930 . S
C790 C789 1.407 . S
C790 C791 1.449 . S
C790 C794 1.535 . S
C791 C790 1.449 . S
C791 C792 1.384 . S
C791 C816 1.553 . S
C792 C791 1.384 . S
C792 C793 1.364 . S
C792 C795 1.450 . S
C793 C788 1.367 . S
C793 C792 1.364 . S
C793 H853 0.931 . S
C794 C790 1.535 . S
C794 H854 0.959 . S
C794 H855 0.961 . S
C794 H856 0.959 . S
C795 C792 1.450 . S
C795 H857 0.960 . S
C795 H858 0.960 . S
C795 H859 0.960 . S
C796 C797 1.309 . S
C796 C801 1.304 . S
C796 O834 1.435 . S
C797 C796 1.309 . S
C797 C798 1.476 . S
C797 H861 0.930 . S
C798 C797 1.476 . S
C798 C799 1.400 . S
C798 C802 1.567 . S
C799 C798 1.400 . S
C799 C800 1.373 . S
C799 C821 1.432 . S
C800 C799 1.373 . S
C800 C801 1.339 . S
C800 C803 1.530 . S
C801 C796 1.304 . S
C801 C800 1.339 . S
C801 H862 0.930 . S
C802 C798 1.567 . S
C802 H863 0.961 . S
C802 H864 0.960 . S
C802 H865 0.958 . S
C803 C800 1.530 . S
C803 H866 0.961 . S
C803 H867 0.960 . S
C803 H868 0.960 . S
C804 C805 1.530 . S
C804 H870 0.961 . S
C804 H871 0.961 . S
C804 H872 0.959 . S
C805 C804 1.530 . S
C805 O833 1.412 . S
C805 H869 0.980 . S
C806 C807 1.288 . S
C806 C811 1.377 . S
C806 O833 1.393 . S
C807 C806 1.288 . S
C807 C808 1.369 . S
C807 H873 0.932 . S
C808 C807 1.369 . S
C808 C809 1.398 . S
C808 C812 1.527 . S
C809 C808 1.398 . S
C809 C810 1.380 . S
C809 C823 1.497 . S
C810 C809 1.380 . S
C810 C811 1.383 . S
C810 C813 1.603 . S
C811 C806 1.377 . S
C811 C810 1.383 . S
C811 H874 0.929 . S
C812 C808 1.527 . S
C812 H875 0.961 . S
C812 H876 0.959 . S
C812 H877 0.959 . S
C813 C810 1.603 . S
C813 H878 0.960 . S
C813 H879 0.962 . S
C813 H880 0.961 . S
C814 C781 1.587 . S
C814 C815 1.360 . S
C814 C827 1.412 . S
C815 C814 1.360 . S
C815 C816 1.365 1_545 S
C815 H881 0.929 . S
C816 C791 1.553 . S
C816 C815 1.365 1_565 S
C816 C817 1.404 . S
C817 C816 1.404 . S
C817 C818 1.395 . S
C817 C828 1.451 1_565 S
C818 C817 1.395 . S
C818 C819 1.322 . S
C818 H882 0.930 . S
C819 C818 1.322 . S
C819 C820 1.459 . S
C819 H883 0.929 . S
C820 C819 1.459 . S
C820 C821 1.445 . S
C820 C829 1.395 1_565 S
C821 C799 1.432 . S
C821 C820 1.445 . S
C821 C822 1.370 1_565 S
C822 C821 1.370 1_545 S
C822 C823 1.438 . S
C822 H884 0.930 . S
C823 C809 1.497 . S
C823 C822 1.438 . S
C823 C824 1.360 . S
C824 C823 1.360 . S
C824 C825 1.401 . S
C824 C829 1.446 . S
C825 C824 1.401 . S
C825 C826 1.347 . S
C825 H885 0.929 . S
C826 C825 1.347 . S
C826 C827 1.455 . S
C826 H886 0.930 . S
C827 C814 1.412 . S
C827 C826 1.455 . S
C827 C828 1.331 . S
C828 C817 1.451 1_545 S
C828 C827 1.331 . S
C828 C829 1.497 . S
C829 C820 1.395 1_545 S
C829 C824 1.446 . S
C829 C828 1.497 . S
C830 C831 1.582 . S
C830 H887 0.962 . S
C830 H888 0.959 . S
C830 H889 0.958 . S
C831 C830 1.582 . S
C831 O834 1.458 . S
C831 H860 0.980 . S
O832 C777 1.426 . S
O832 C778 1.334 . S
O833 C805 1.412 . S
O833 C806 1.393 . S
O834 C796 1.435 . S
O834 C831 1.458 . S
O835 C787 1.468 . S
O835 C788 1.408 . S
H836 C777 0.980 . S
H837 C776 0.959 . S
H838 C776 0.959 . S
H839 C776 0.960 . S
H840 C779 0.929 . S
H841 C783 0.929 . S
H842 C784 0.959 . S
H843 C784 0.961 . S
H844 C784 0.961 . S
H845 C785 0.960 . S
H846 C785 0.960 . S
H847 C785 0.961 . S
H848 C787 0.980 . S
H849 C786 0.961 . S
H850 C786 0.960 . S
H851 C786 0.959 . S
H852 C789 0.930 . S
H853 C793 0.931 . S
H854 C794 0.959 . S
H855 C794 0.961 . S
H856 C794 0.959 . S
H857 C795 0.960 . S
H858 C795 0.960 . S
H859 C795 0.960 . S
H860 C831 0.980 . S
H861 C797 0.930 . S
H862 C801 0.930 . S
H863 C802 0.961 . S
H864 C802 0.960 . S
H865 C802 0.958 . S
H866 C803 0.961 . S
H867 C803 0.960 . S
H868 C803 0.960 . S
H869 C805 0.980 . S
H870 C804 0.961 . S
H871 C804 0.961 . S
H872 C804 0.959 . S
H873 C807 0.932 . S
H874 C811 0.929 . S
H875 C812 0.961 . S
H876 C812 0.959 . S
H877 C812 0.959 . S
H878 C813 0.960 . S
H879 C813 0.962 . S
H880 C813 0.961 . S
H881 C815 0.929 . S
H882 C818 0.930 . S
H883 C819 0.929 . S
H884 C822 0.930 . S
H885 C825 0.929 . S
H886 C826 0.930 . S
H887 C830 0.962 . S
H888 C830 0.959 . S
H889 C830 0.958 . S
C890 C891 1.560 . S
C890 H951 0.959 . S
C890 H952 0.959 . S
C890 H953 0.960 . S
C891 C890 1.560 . S
C891 O946 1.426 . S
C891 H950 0.980 . S
C892 C893 1.407 . S
C892 C897 1.418 . S
C892 O946 1.334 . S
C893 C892 1.407 . S
C893 C894 1.360 . S
C893 H954 0.929 . S
C894 C893 1.360 . S
C894 C895 1.401 . S
C894 C898 1.527 . S
C895 C894 1.401 . S
C895 C896 1.405 . S
C895 C928 1.587 . S
C896 C895 1.405 . S
C896 C897 1.332 . S
C896 C899 1.496 . S
C897 C892 1.418 . S
C897 C896 1.332 . S
C897 H955 0.929 . S
C898 C894 1.527 . S
C898 H956 0.959 . S
C898 H957 0.961 . S
C898 H958 0.961 . S
C899 C896 1.496 . S
C899 H959 0.960 . S
C899 H960 0.960 . S
C899 H961 0.961 . S
C900 C901 1.517 . S
C900 H963 0.961 . S
C900 H964 0.960 . S
C900 H965 0.959 . S
C901 C900 1.517 . S
C901 O949 1.468 . S
C901 H962 0.980 . S
C902 C903 1.349 . S
C902 C907 1.367 . S
C902 O949 1.408 . S
C903 C902 1.349 . S
C903 C904 1.407 . S
C903 H966 0.930 . S
C904 C903 1.407 . S
C904 C905 1.449 . S
C904 C908 1.535 . S
C905 C904 1.449 . S
C905 C906 1.384 . S
C905 C930 1.553 . S
C906 C905 1.384 . S
C906 C907 1.364 . S
C906 C909 1.450 . S
C907 C902 1.367 . S
C907 C906 1.364 . S
C907 H967 0.931 . S
C908 C904 1.535 . S
C908 H968 0.959 . S
C908 H969 0.961 . S
C908 H970 0.959 . S
C909 C906 1.450 . S
C909 H971 0.960 . S
C909 H972 0.960 . S
C909 H973 0.960 . S
C910 C911 1.309 . S
C910 C915 1.304 . S
C910 O948 1.435 . S
C911 C910 1.309 . S
C911 C912 1.476 . S
C911 H975 0.930 . S
C912 C911 1.476 . S
C912 C913 1.400 . S
C912 C916 1.567 . S
C913 C912 1.400 . S
C913 C914 1.373 . S
C913 C935 1.432 . S
C914 C913 1.373 . S
C914 C915 1.339 . S
C914 C917 1.530 . S
C915 C910 1.304 . S
C915 C914 1.339 . S
C915 H976 0.930 . S
C916 C912 1.567 . S
C916 H977 0.961 . S
C916 H978 0.960 . S
C916 H979 0.958 . S
C917 C914 1.530 . S
C917 H980 0.961 . S
C917 H981 0.960 . S
C917 H982 0.960 . S
C918 C919 1.530 . S
C918 H984 0.961 . S
C918 H985 0.961 . S
C918 H986 0.959 . S
C919 C918 1.530 . S
C919 O947 1.412 . S
C919 H983 0.980 . S
C920 C921 1.288 . S
C920 C925 1.377 . S
C920 O947 1.393 . S
C921 C920 1.288 . S
C921 C922 1.369 . S
C921 H987 0.932 . S
C922 C921 1.369 . S
C922 C923 1.398 . S
C922 C926 1.527 . S
C923 C922 1.398 . S
C923 C924 1.380 . S
C923 C937 1.497 . S
C924 C923 1.380 . S
C924 C925 1.383 . S
C924 C927 1.603 . S
C925 C920 1.377 . S
C925 C924 1.383 . S
C925 H988 0.929 . S
C926 C922 1.527 . S
C926 H989 0.961 . S
C926 H990 0.959 . S
C926 H991 0.959 . S
C927 C924 1.603 . S
C927 H992 0.960 . S
C927 H993 0.962 . S
C927 H994 0.961 . S
C928 C895 1.587 . S
C928 C929 1.360 . S
C928 C941 1.412 . S
C929 C928 1.360 . S
C929 C930 1.365 . S
C929 H995 0.929 . S
C930 C905 1.553 . S
C930 C929 1.365 . S
C930 C931 1.404 . S
C931 C930 1.404 . S
C931 C932 1.395 . S
C931 C942 1.451 . S
C932 C931 1.395 . S
C932 C933 1.251 1_554 S
C932 H996 0.930 . S
C933 C932 1.251 1_556 S
C933 C934 1.495 . S
C933 H997 0.967 . S
C934 C933 1.495 . S
C934 C935 1.445 . S
C934 C943 1.395 . S
C935 C913 1.432 . S
C935 C934 1.445 . S
C935 C936 1.370 . S
C936 C935 1.370 . S
C936 C937 1.438 . S
C936 H998 0.930 . S
C937 C923 1.497 . S
C937 C936 1.438 . S
C937 C938 1.360 . S
C938 C937 1.360 . S
C938 C939 1.397 . S
C938 C943 1.446 . S
C939 C938 1.397 . S
C939 C940 1.354 1_556 S
C939 H999 0.926 . S
C940 C939 1.354 1_554 S
C940 C941 1.455 . S
C940 H1000 0.930 . S
C941 C928 1.412 . S
C941 C940 1.455 . S
C941 C942 1.331 . S
C942 C931 1.451 . S
C942 C941 1.331 . S
C942 C943 1.497 1_554 S
C943 C934 1.395 . S
C943 C938 1.446 . S
C943 C942 1.497 1_556 S
C944 C945 1.582 . S
C944 H1001 0.962 . S
C944 H1002 0.959 . S
C944 H1003 0.958 . S
C945 C944 1.582 . S
C945 O948 1.458 . S
C945 H974 0.980 . S
O946 C891 1.426 . S
O946 C892 1.334 . S
O947 C919 1.412 . S
O947 C920 1.393 . S
O948 C910 1.435 . S
O948 C945 1.458 . S
O949 C901 1.468 . S
O949 C902 1.408 . S
H950 C891 0.980 . S
H951 C890 0.959 . S
H952 C890 0.959 . S
H953 C890 0.960 . S
H954 C893 0.929 . S
H955 C897 0.929 . S
H956 C898 0.959 . S
H957 C898 0.961 . S
H958 C898 0.961 . S
H959 C899 0.960 . S
H960 C899 0.960 . S
H961 C899 0.961 . S
H962 C901 0.980 . S
H963 C900 0.961 . S
H964 C900 0.960 . S
H965 C900 0.959 . S
H966 C903 0.930 . S
H967 C907 0.931 . S
H968 C908 0.959 . S
H969 C908 0.961 . S
H970 C908 0.959 . S
H971 C909 0.960 . S
H972 C909 0.960 . S
H973 C909 0.960 . S
H974 C945 0.980 . S
H975 C911 0.930 . S
H976 C915 0.930 . S
H977 C916 0.961 . S
H978 C916 0.960 . S
H979 C916 0.958 . S
H980 C917 0.961 . S
H981 C917 0.960 . S
H982 C917 0.960 . S
H983 C919 0.980 . S
H984 C918 0.961 . S
H985 C918 0.961 . S
H986 C918 0.959 . S
H987 C921 0.932 . S
H988 C925 0.929 . S
H989 C926 0.961 . S
H990 C926 0.959 . S
H991 C926 0.959 . S
H992 C927 0.960 . S
H993 C927 0.962 . S
H994 C927 0.961 . S
H995 C929 0.929 . S
H996 C932 0.930 . S
H997 C933 0.967 . S
H998 C936 0.930 . S
H999 C939 0.926 . S
H1000 C940 0.930 . S
H1001 C944 0.962 . S
H1002 C944 0.959 . S
H1003 C944 0.958 . S
H1004 C1022 0.951 . S
H1005 C1024 0.951 . S
H1006 C1026 0.950 . S
H1007 C1027 0.950 . S
H1008 C1029 0.950 . S
H1009 C1032 0.950 . S
H1010 C1033 0.950 . S
H1011 C1035 0.950 . S
H1012 C1036 0.950 . S
H1013 C1037 0.951 . S
H1014 C1039 0.951 . S
H1015 C1041 0.950 . S
H1016 C1042 0.950 . S
H1017 C1044 0.950 . S
H1018 C1047 0.950 . S
H1019 C1048 0.950 . S
H1020 C1050 0.950 . S
H1021 C1051 0.950 . S
C1022 H1004 0.951 . S
C1022 C1023 1.366 . S
C1022 C1024 1.388 . S
C1023 C1022 1.366 . S
C1023 C1027 1.385 . S
C1024 H1005 0.951 . S
C1024 C1022 1.388 . S
C1024 C1025 1.366 . S
C1025 C1024 1.366 . S
C1025 C1026 1.414 . S
C1025 C1028 1.499 . S
C1026 H1006 0.950 . S
C1026 C1025 1.414 . S
C1026 C1027 1.374 . S
C1027 H1007 0.950 . S
C1027 C1023 1.385 . S
C1027 C1026 1.374 . S
C1028 C1025 1.499 . S
C1028 C1029 1.373 . S
C1028 C1030 1.389 . S
C1029 H1008 0.950 . S
C1029 C1028 1.373 . S
C1029 C1045 1.377 . S
C1030 C1028 1.389 . S
C1030 C1031 1.524 . S
C1030 C1044 1.377 . S
C1031 C1030 1.524 . S
C1031 C1032 1.397 . S
C1031 C1036 1.363 . S
C1032 H1009 0.950 . S
C1032 C1031 1.397 . S
C1032 C1033 1.334 . S
C1033 H1010 0.950 . S
C1033 C1032 1.334 . S
C1033 C1034 1.287 . S
C1034 C1033 1.287 . S
C1034 C1035 1.524 . S
C1034 H1053 0.913 . S
C1035 H1011 0.950 . S
C1035 C1034 1.524 . S
C1035 C1036 1.415 . S
C1036 H1012 0.950 . S
C1036 C1031 1.363 . S
C1036 C1035 1.415 . S
C1037 H1013 0.951 . S
C1037 C1038 1.366 . S
C1037 C1039 1.388 . S
C1038 C1037 1.366 . S
C1038 C1042 1.385 . S
C1039 H1014 0.951 . S
C1039 C1037 1.388 . S
C1039 C1040 1.366 . S
C1040 C1039 1.366 . S
C1040 C1041 1.414 . S
C1040 C1043 1.499 . S
C1041 H1015 0.950 . S
C1041 C1040 1.414 . S
C1041 C1042 1.374 . S
C1042 H1016 0.950 . S
C1042 C1038 1.385 . S
C1042 C1041 1.374 . S
C1043 C1040 1.499 . S
C1043 C1044 1.373 . S
C1043 C1045 1.389 . S
C1044 H1017 0.950 . S
C1044 C1030 1.377 . S
C1044 C1043 1.373 . S
C1045 C1029 1.377 . S
C1045 C1043 1.389 . S
C1045 C1046 1.524 . S
C1046 C1045 1.524 . S
C1046 C1047 1.397 . S
C1046 C1051 1.363 . S
C1047 H1018 0.950 . S
C1047 C1046 1.397 . S
C1047 C1048 1.334 . S
C1048 H1019 0.950 . S
C1048 C1047 1.334 . S
C1048 C1049 1.287 . S
C1049 C1048 1.287 . S
C1049 C1050 1.524 . S
C1049 H1052 0.999 . S
C1050 H1020 0.950 . S
C1050 C1049 1.524 . S
C1050 C1051 1.415 . S
C1051 H1021 0.950 . S
C1051 C1046 1.363 . S
C1051 C1050 1.415 . S
H1052 C1049 0.999 . S
H1053 C1034 0.913 . S
H1054 C1072 0.951 . S
H1055 C1074 0.951 . S
H1056 C1076 0.950 . S
H1057 C1077 0.950 . S
H1058 C1079 0.950 . S
H1059 C1082 0.950 . S
H1060 C1083 0.950 . S
H1061 C1085 0.950 . S
H1062 C1086 0.950 . S
H1063 C1087 0.951 . S
H1064 C1089 0.951 . S
H1065 C1091 0.950 . S
H1066 C1092 0.950 . S
H1067 C1094 0.950 . S
H1068 C1097 0.950 . S
H1069 C1098 0.950 . S
H1070 C1100 0.950 . S
H1071 C1101 0.950 . S
C1072 H1054 0.951 . S
C1072 C1073 1.366 . S
C1072 C1074 1.388 . S
C1073 C1072 1.366 . S
C1073 C1077 1.385 . S
C1074 H1055 0.951 . S
C1074 C1072 1.388 . S
C1074 C1075 1.366 . S
C1075 C1074 1.366 . S
C1075 C1076 1.414 . S
C1075 C1078 1.499 . S
C1076 H1056 0.950 . S
C1076 C1075 1.414 . S
C1076 C1077 1.374 . S
C1077 H1057 0.950 . S
C1077 C1073 1.385 . S
C1077 C1076 1.374 . S
C1078 C1075 1.499 . S
C1078 C1079 1.373 . S
C1078 C1080 1.389 . S
C1079 H1058 0.950 . S
C1079 C1078 1.373 . S
C1079 C1095 1.377 . S
C1080 C1078 1.389 . S
C1080 C1081 1.524 . S
C1080 C1094 1.377 . S
C1081 C1080 1.524 . S
C1081 C1082 1.397 . S
C1081 C1086 1.363 . S
C1082 H1059 0.950 . S
C1082 C1081 1.397 . S
C1082 C1083 1.334 . S
C1083 H1060 0.950 . S
C1083 C1082 1.334 . S
C1083 C1084 1.287 . S
C1084 C1083 1.287 . S
C1084 C1085 1.524 . S
C1084 H1103 0.913 . S
C1085 H1061 0.950 . S
C1085 C1084 1.524 . S
C1085 C1086 1.415 . S
C1086 H1062 0.950 . S
C1086 C1081 1.363 . S
C1086 C1085 1.415 . S
C1087 H1063 0.951 . S
C1087 C1088 1.366 . S
C1087 C1089 1.388 . S
C1088 C1087 1.366 . S
C1088 C1092 1.385 . S
C1089 H1064 0.951 . S
C1089 C1087 1.388 . S
C1089 C1090 1.366 . S
C1090 C1089 1.366 . S
C1090 C1091 1.414 . S
C1090 C1093 1.499 . S
C1091 H1065 0.950 . S
C1091 C1090 1.414 . S
C1091 C1092 1.374 . S
C1092 H1066 0.950 . S
C1092 C1088 1.385 . S
C1092 C1091 1.374 . S
C1093 C1090 1.499 . S
C1093 C1094 1.373 . S
C1093 C1095 1.389 . S
C1094 H1067 0.950 . S
C1094 C1080 1.377 . S
C1094 C1093 1.373 . S
C1095 C1079 1.377 . S
C1095 C1093 1.389 . S
C1095 C1096 1.524 . S
C1096 C1095 1.524 . S
C1096 C1097 1.397 . S
C1096 C1101 1.363 . S
C1097 H1068 0.950 . S
C1097 C1096 1.397 . S
C1097 C1098 1.334 . S
C1098 H1069 0.950 . S
C1098 C1097 1.334 . S
C1098 C1099 1.287 . S
C1099 C1098 1.287 . S
C1099 C1100 1.524 . S
C1099 H1102 0.999 . S
C1100 H1070 0.950 . S
C1100 C1099 1.524 . S
C1100 C1101 1.415 . S
C1101 H1071 0.950 . S
C1101 C1096 1.363 . S
C1101 C1100 1.415 . S
H1102 C1099 0.999 . S
H1103 C1084 0.913 . S
H1104 C1122 0.951 . S
H1105 C1124 0.951 . S
H1106 C1126 0.950 . S
H1107 C1127 0.950 . S
H1108 C1129 0.950 . S
H1109 C1132 0.950 . S
H1110 C1133 0.950 . S
H1111 C1135 0.950 . S
H1112 C1136 0.950 . S
H1113 C1137 0.951 . S
H1114 C1139 0.951 . S
H1115 C1141 0.950 . S
H1116 C1142 0.950 . S
H1117 C1144 0.950 . S
H1118 C1147 0.950 . S
H1119 C1148 0.950 . S
H1120 C1150 0.950 . S
H1121 C1151 0.950 . S
C1122 H1104 0.951 . S
C1122 C1123 1.366 . S
C1122 C1124 1.388 . S
C1123 C1122 1.366 . S
C1123 C1127 1.385 . S
C1124 H1105 0.951 . S
C1124 C1122 1.388 . S
C1124 C1125 1.366 . S
C1125 C1124 1.366 . S
C1125 C1126 1.414 . S
C1125 C1128 1.499 . S
C1126 H1106 0.950 . S
C1126 C1125 1.414 . S
C1126 C1127 1.374 . S
C1127 H1107 0.950 . S
C1127 C1123 1.385 . S
C1127 C1126 1.374 . S
C1128 C1125 1.499 . S
C1128 C1129 1.373 . S
C1128 C1130 1.389 . S
C1129 H1108 0.950 . S
C1129 C1128 1.373 . S
C1129 C1145 1.377 . S
C1130 C1128 1.389 . S
C1130 C1131 1.524 . S
C1130 C1144 1.377 . S
C1131 C1130 1.524 . S
C1131 C1132 1.397 . S
C1131 C1136 1.363 . S
C1132 H1109 0.950 . S
C1132 C1131 1.397 . S
C1132 C1133 1.334 . S
C1133 H1110 0.950 . S
C1133 C1132 1.334 . S
C1133 C1134 1.287 . S
C1134 C1133 1.287 . S
C1134 C1135 1.524 . S
C1134 H1153 0.913 . S
C1135 H1111 0.950 . S
C1135 C1134 1.524 . S
C1135 C1136 1.415 . S
C1136 H1112 0.950 . S
C1136 C1131 1.363 . S
C1136 C1135 1.415 . S
C1137 H1113 0.951 . S
C1137 C1138 1.366 . S
C1137 C1139 1.388 . S
C1138 C1137 1.366 . S
C1138 C1142 1.385 . S
C1139 H1114 0.951 . S
C1139 C1137 1.388 . S
C1139 C1140 1.366 . S
C1140 C1139 1.366 . S
C1140 C1141 1.414 . S
C1140 C1143 1.499 . S
C1141 H1115 0.950 . S
C1141 C1140 1.414 . S
C1141 C1142 1.374 . S
C1142 H1116 0.950 . S
C1142 C1138 1.385 . S
C1142 C1141 1.374 . S
C1143 C1140 1.499 . S
C1143 C1144 1.373 . S
C1143 C1145 1.389 . S
C1144 H1117 0.950 . S
C1144 C1130 1.377 . S
C1144 C1143 1.373 . S
C1145 C1129 1.377 . S
C1145 C1143 1.389 . S
C1145 C1146 1.524 . S
C1146 C1145 1.524 . S
C1146 C1147 1.397 . S
C1146 C1151 1.363 . S
C1147 H1118 0.950 . S
C1147 C1146 1.397 . S
C1147 C1148 1.334 . S
C1148 H1119 0.950 . S
C1148 C1147 1.334 . S
C1148 C1149 1.287 . S
C1149 C1148 1.287 . S
C1149 C1150 1.524 . S
C1149 H1152 0.999 . S
C1150 H1120 0.950 . S
C1150 C1149 1.524 . S
C1150 C1151 1.415 . S
C1151 H1121 0.950 . S
C1151 C1146 1.363 . S
C1151 C1150 1.415 . S
H1152 C1149 0.999 . S
H1153 C1134 0.913 . S
H1154 C1172 0.951 . S
H1155 C1174 0.951 . S
H1156 C1176 0.950 . S
H1157 C1177 0.950 . S
H1158 C1179 0.950 . S
H1159 C1182 0.950 . S
H1160 C1183 0.950 . S
H1161 C1185 0.950 . S
H1162 C1186 0.950 . S
H1163 C1187 0.951 . S
H1164 C1189 0.951 . S
H1165 C1191 0.950 . S
H1166 C1192 0.950 . S
H1167 C1194 0.950 . S
H1168 C1197 0.950 . S
H1169 C1198 0.950 . S
H1170 C1200 0.950 . S
H1171 C1201 0.950 . S
C1172 H1154 0.951 . S
C1172 C1173 1.366 . S
C1172 C1174 1.388 . S
C1173 C1172 1.366 . S
C1173 C1177 1.385 . S
C1174 H1155 0.951 . S
C1174 C1172 1.388 . S
C1174 C1175 1.366 . S
C1175 C1174 1.366 . S
C1175 C1176 1.414 . S
C1175 C1178 1.499 . S
C1176 H1156 0.950 . S
C1176 C1175 1.414 . S
C1176 C1177 1.374 . S
C1177 H1157 0.950 . S
C1177 C1173 1.385 . S
C1177 C1176 1.374 . S
C1178 C1175 1.499 . S
C1178 C1179 1.373 . S
C1178 C1180 1.389 . S
C1179 H1158 0.950 . S
C1179 C1178 1.373 . S
C1179 C1195 1.377 . S
C1180 C1178 1.389 . S
C1180 C1181 1.524 . S
C1180 C1194 1.377 . S
C1181 C1180 1.524 . S
C1181 C1182 1.397 . S
C1181 C1186 1.363 . S
C1182 H1159 0.950 . S
C1182 C1181 1.397 . S
C1182 C1183 1.334 . S
C1183 H1160 0.950 . S
C1183 C1182 1.334 . S
C1183 C1184 1.287 . S
C1184 C1183 1.287 . S
C1184 C1185 1.524 . S
C1184 H1203 0.913 . S
C1185 H1161 0.950 . S
C1185 C1184 1.524 . S
C1185 C1186 1.415 . S
C1186 H1162 0.950 . S
C1186 C1181 1.363 . S
C1186 C1185 1.415 . S
C1187 H1163 0.951 . S
C1187 C1188 1.366 . S
C1187 C1189 1.388 . S
C1188 C1187 1.366 . S
C1188 C1192 1.385 . S
C1189 H1164 0.951 . S
C1189 C1187 1.388 . S
C1189 C1190 1.366 . S
C1190 C1189 1.366 . S
C1190 C1191 1.414 . S
C1190 C1193 1.499 . S
C1191 H1165 0.950 . S
C1191 C1190 1.414 . S
C1191 C1192 1.374 . S
C1192 H1166 0.950 . S
C1192 C1188 1.385 . S
C1192 C1191 1.374 . S
C1193 C1190 1.499 . S
C1193 C1194 1.373 . S
C1193 C1195 1.389 . S
C1194 H1167 0.950 . S
C1194 C1180 1.377 . S
C1194 C1193 1.373 . S
C1195 C1179 1.377 . S
C1195 C1193 1.389 . S
C1195 C1196 1.524 . S
C1196 C1195 1.524 . S
C1196 C1197 1.397 . S
C1196 C1201 1.363 . S
C1197 H1168 0.950 . S
C1197 C1196 1.397 . S
C1197 C1198 1.334 . S
C1198 H1169 0.950 . S
C1198 C1197 1.334 . S
C1198 C1199 1.287 . S
C1199 C1198 1.287 . S
C1199 C1200 1.524 . S
C1199 H1202 0.999 . S
C1200 H1170 0.950 . S
C1200 C1199 1.524 . S
C1200 C1201 1.415 . S
C1201 H1171 0.950 . S
C1201 C1196 1.363 . S
C1201 C1200 1.415 . S
H1202 C1199 0.999 . S
H1203 C1184 0.913 . S
H1204 C1222 0.951 . S
H1205 C1224 0.951 . S
H1206 C1226 0.950 . S
H1207 C1227 0.950 . S
H1208 C1229 0.950 . S
H1209 C1232 0.950 . S
H1210 C1233 0.950 . S
H1211 C1235 0.950 . S
H1212 C1236 0.950 . S
H1213 C1237 0.951 . S
H1214 C1239 0.951 . S
H1215 C1241 0.950 . S
H1216 C1242 0.950 . S
H1217 C1244 0.950 . S
H1218 C1247 0.950 . S
H1219 C1248 0.950 . S
H1220 C1250 0.950 . S
H1221 C1251 0.950 . S
C1222 H1204 0.951 . S
C1222 C1223 1.366 . S
C1222 C1224 1.388 . S
C1223 C1222 1.366 . S
C1223 C1227 1.385 . S
C1224 H1205 0.951 . S
C1224 C1222 1.388 . S
C1224 C1225 1.366 . S
C1225 C1224 1.366 . S
C1225 C1226 1.414 . S
C1225 C1228 1.499 . S
C1226 H1206 0.950 . S
C1226 C1225 1.414 . S
C1226 C1227 1.374 . S
C1227 H1207 0.950 . S
C1227 C1223 1.385 . S
C1227 C1226 1.374 . S
C1228 C1225 1.499 . S
C1228 C1229 1.373 . S
C1228 C1230 1.389 . S
C1229 H1208 0.950 . S
C1229 C1228 1.373 . S
C1229 C1245 1.377 . S
C1230 C1228 1.389 . S
C1230 C1231 1.524 . S
C1230 C1244 1.377 . S
C1231 C1230 1.524 . S
C1231 C1232 1.397 . S
C1231 C1236 1.363 . S
C1232 H1209 0.950 . S
C1232 C1231 1.397 . S
C1232 C1233 1.334 . S
C1233 H1210 0.950 . S
C1233 C1232 1.334 . S
C1233 C1234 1.287 . S
C1234 C1233 1.287 . S
C1234 C1235 1.524 . S
C1234 H1253 0.913 . S
C1235 H1211 0.950 . S
C1235 C1234 1.524 . S
C1235 C1236 1.415 . S
C1236 H1212 0.950 . S
C1236 C1231 1.363 . S
C1236 C1235 1.415 . S
C1237 H1213 0.951 . S
C1237 C1238 1.366 . S
C1237 C1239 1.388 . S
C1238 C1237 1.366 . S
C1238 C1242 1.385 . S
C1239 H1214 0.951 . S
C1239 C1237 1.388 . S
C1239 C1240 1.366 . S
C1240 C1239 1.366 . S
C1240 C1241 1.414 . S
C1240 C1243 1.499 . S
C1241 H1215 0.950 . S
C1241 C1240 1.414 . S
C1241 C1242 1.374 . S
C1242 H1216 0.950 . S
C1242 C1238 1.385 . S
C1242 C1241 1.374 . S
C1243 C1240 1.499 . S
C1243 C1244 1.373 . S
C1243 C1245 1.389 . S
C1244 H1217 0.950 . S
C1244 C1230 1.377 . S
C1244 C1243 1.373 . S
C1245 C1229 1.377 . S
C1245 C1243 1.389 . S
C1245 C1246 1.524 . S
C1246 C1245 1.524 . S
C1246 C1247 1.397 . S
C1246 C1251 1.363 . S
C1247 H1218 0.950 . S
C1247 C1246 1.397 . S
C1247 C1248 1.334 . S
C1248 H1219 0.950 . S
C1248 C1247 1.334 . S
C1248 C1249 1.287 . S
C1249 C1248 1.287 . S
C1249 C1250 1.524 . S
C1249 H1252 0.999 . S
C1250 H1220 0.950 . S
C1250 C1249 1.524 . S
C1250 C1251 1.415 . S
C1251 H1221 0.950 . S
C1251 C1246 1.363 . S
C1251 C1250 1.415 . S
H1252 C1249 0.999 . S
H1253 C1234 0.913 . S
H1254 C1272 0.951 . S
H1255 C1274 0.951 . S
H1256 C1276 0.950 . S
H1257 C1277 0.950 . S
H1258 C1279 0.950 . S
H1259 C1282 0.950 . S
H1260 C1283 0.950 . S
H1261 C1285 0.950 . S
H1262 C1286 0.950 . S
H1263 C1287 0.951 . S
H1264 C1289 0.951 . S
H1265 C1291 0.950 . S
H1266 C1292 0.950 . S
H1267 C1294 0.950 . S
H1268 C1297 0.950 . S
H1269 C1298 0.950 . S
H1270 C1300 0.950 . S
H1271 C1301 0.950 . S
C1272 H1254 0.951 . S
C1272 C1273 1.366 . S
C1272 C1274 1.388 . S
C1273 C1272 1.366 . S
C1273 C1277 1.385 . S
C1274 H1255 0.951 . S
C1274 C1272 1.388 . S
C1274 C1275 1.366 . S
C1275 C1274 1.366 . S
C1275 C1276 1.414 . S
C1275 C1278 1.499 . S
C1276 H1256 0.950 . S
C1276 C1275 1.414 . S
C1276 C1277 1.374 . S
C1277 H1257 0.950 . S
C1277 C1273 1.385 . S
C1277 C1276 1.374 . S
C1278 C1275 1.499 . S
C1278 C1279 1.373 . S
C1278 C1280 1.389 . S
C1279 H1258 0.950 . S
C1279 C1278 1.373 . S
C1279 C1295 1.377 . S
C1280 C1278 1.389 . S
C1280 C1281 1.524 . S
C1280 C1294 1.377 . S
C1281 C1280 1.524 . S
C1281 C1282 1.397 . S
C1281 C1286 1.363 . S
C1282 H1259 0.950 . S
C1282 C1281 1.397 . S
C1282 C1283 1.334 . S
C1283 H1260 0.950 . S
C1283 C1282 1.334 . S
C1283 C1284 1.287 . S
C1284 C1283 1.287 . S
C1284 C1285 1.524 . S
C1284 H1303 0.913 . S
C1285 H1261 0.950 . S
C1285 C1284 1.524 . S
C1285 C1286 1.415 . S
C1286 H1262 0.950 . S
C1286 C1281 1.363 . S
C1286 C1285 1.415 . S
C1287 H1263 0.951 . S
C1287 C1288 1.366 . S
C1287 C1289 1.388 . S
C1288 C1287 1.366 . S
C1288 C1292 1.385 . S
C1289 H1264 0.951 . S
C1289 C1287 1.388 . S
C1289 C1290 1.366 . S
C1290 C1289 1.366 . S
C1290 C1291 1.414 . S
C1290 C1293 1.499 . S
C1291 H1265 0.950 . S
C1291 C1290 1.414 . S
C1291 C1292 1.374 . S
C1292 H1266 0.950 . S
C1292 C1288 1.385 . S
C1292 C1291 1.374 . S
C1293 C1290 1.499 . S
C1293 C1294 1.373 . S
C1293 C1295 1.389 . S
C1294 H1267 0.950 . S
C1294 C1280 1.377 . S
C1294 C1293 1.373 . S
C1295 C1279 1.377 . S
C1295 C1293 1.389 . S
C1295 C1296 1.524 . S
C1296 C1295 1.524 . S
C1296 C1297 1.397 . S
C1296 C1301 1.363 . S
C1297 H1268 0.950 . S
C1297 C1296 1.397 . S
C1297 C1298 1.334 . S
C1298 H1269 0.950 . S
C1298 C1297 1.334 . S
C1298 C1299 1.287 . S
C1299 C1298 1.287 . S
C1299 C1300 1.524 . S
C1299 H1302 0.999 . S
C1300 H1270 0.950 . S
C1300 C1299 1.524 . S
C1300 C1301 1.415 . S
C1301 H1271 0.950 . S
C1301 C1296 1.363 . S
C1301 C1300 1.415 . S
H1302 C1299 0.999 . S
H1303 C1284 0.913 . S
H1304 C1322 0.951 . S
H1305 C1324 0.951 . S
H1306 C1326 0.950 . S
H1307 C1327 0.950 . S
H1308 C1329 0.950 . S
H1309 C1332 0.950 . S
H1310 C1333 0.950 . S
H1311 C1335 0.950 . S
H1312 C1336 0.950 . S
H1313 C1337 0.951 . S
H1314 C1339 0.951 . S
H1315 C1341 0.950 . S
H1316 C1342 0.950 . S
H1317 C1344 0.950 . S
H1318 C1347 0.950 . S
H1319 C1348 0.950 . S
H1320 C1350 0.950 . S
H1321 C1351 0.950 . S
C1322 H1304 0.951 . S
C1322 C1323 1.366 . S
C1322 C1324 1.388 . S
C1323 C1322 1.366 . S
C1323 C1327 1.385 . S
C1324 H1305 0.951 . S
C1324 C1322 1.388 . S
C1324 C1325 1.366 . S
C1325 C1324 1.366 . S
C1325 C1326 1.414 . S
C1325 C1328 1.499 . S
C1326 H1306 0.950 . S
C1326 C1325 1.414 . S
C1326 C1327 1.374 . S
C1327 H1307 0.950 . S
C1327 C1323 1.385 . S
C1327 C1326 1.374 . S
C1328 C1325 1.499 . S
C1328 C1329 1.373 . S
C1328 C1330 1.389 . S
C1329 H1308 0.950 . S
C1329 C1328 1.373 . S
C1329 C1345 1.377 . S
C1330 C1328 1.389 . S
C1330 C1331 1.524 . S
C1330 C1344 1.377 . S
C1331 C1330 1.524 . S
C1331 C1332 1.397 . S
C1331 C1336 1.363 . S
C1332 H1309 0.950 . S
C1332 C1331 1.397 . S
C1332 C1333 1.334 . S
C1333 H1310 0.950 . S
C1333 C1332 1.334 . S
C1333 C1334 1.287 . S
C1334 C1333 1.287 . S
C1334 C1335 1.524 . S
C1334 H1353 0.913 . S
C1335 H1311 0.950 . S
C1335 C1334 1.524 . S
C1335 C1336 1.415 . S
C1336 H1312 0.950 . S
C1336 C1331 1.363 . S
C1336 C1335 1.415 . S
C1337 H1313 0.951 . S
C1337 C1338 1.366 . S
C1337 C1339 1.388 . S
C1338 C1337 1.366 . S
C1338 C1342 1.385 . S
C1339 H1314 0.951 . S
C1339 C1337 1.388 . S
C1339 C1340 1.366 . S
C1340 C1339 1.366 . S
C1340 C1341 1.414 . S
C1340 C1343 1.499 . S
C1341 H1315 0.950 . S
C1341 C1340 1.414 . S
C1341 C1342 1.374 . S
C1342 H1316 0.950 . S
C1342 C1338 1.385 . S
C1342 C1341 1.374 . S
C1343 C1340 1.499 . S
C1343 C1344 1.373 . S
C1343 C1345 1.389 . S
C1344 H1317 0.950 . S
C1344 C1330 1.377 . S
C1344 C1343 1.373 . S
C1345 C1329 1.377 . S
C1345 C1343 1.389 . S
C1345 C1346 1.524 . S
C1346 C1345 1.524 . S
C1346 C1347 1.397 . S
C1346 C1351 1.363 . S
C1347 H1318 0.950 . S
C1347 C1346 1.397 . S
C1347 C1348 1.334 . S
C1348 H1319 0.950 . S
C1348 C1347 1.334 . S
C1348 C1349 1.287 . S
C1349 C1348 1.287 . S
C1349 C1350 1.524 . S
C1349 H1352 0.999 . S
C1350 H1320 0.950 . S
C1350 C1349 1.524 . S
C1350 C1351 1.415 . S
C1351 H1321 0.950 . S
C1351 C1346 1.363 . S
C1351 C1350 1.415 . S
H1352 C1349 0.999 . S
H1353 C1334 0.913 . S
H1354 C1372 0.951 . S
H1355 C1374 0.951 . S
H1356 C1376 0.950 . S
H1357 C1377 0.950 . S
H1358 C1379 0.950 . S
H1359 C1382 0.950 . S
H1360 C1383 0.950 . S
H1361 C1385 0.950 . S
H1362 C1386 0.950 . S
H1363 C1387 0.951 . S
H1364 C1389 0.951 . S
H1365 C1391 0.950 . S
H1366 C1392 0.950 . S
H1367 C1394 0.950 . S
H1368 C1397 0.950 . S
H1369 C1398 0.950 . S
H1370 C1400 0.950 . S
H1371 C1401 0.950 . S
C1372 H1354 0.951 . S
C1372 C1373 1.366 . S
C1372 C1374 1.388 . S
C1373 C1372 1.366 . S
C1373 C1377 1.385 . S
C1374 H1355 0.951 . S
C1374 C1372 1.388 . S
C1374 C1375 1.366 . S
C1375 C1374 1.366 . S
C1375 C1376 1.414 . S
C1375 C1378 1.499 . S
C1376 H1356 0.950 . S
C1376 C1375 1.414 . S
C1376 C1377 1.374 . S
C1377 H1357 0.950 . S
C1377 C1373 1.385 . S
C1377 C1376 1.374 . S
C1378 C1375 1.499 . S
C1378 C1379 1.373 . S
C1378 C1380 1.389 . S
C1379 H1358 0.950 . S
C1379 C1378 1.373 . S
C1379 C1395 1.377 . S
C1380 C1378 1.389 . S
C1380 C1381 1.524 . S
C1380 C1394 1.377 . S
C1381 C1380 1.524 . S
C1381 C1382 1.397 . S
C1381 C1386 1.363 . S
C1382 H1359 0.950 . S
C1382 C1381 1.397 . S
C1382 C1383 1.334 . S
C1383 H1360 0.950 . S
C1383 C1382 1.334 . S
C1383 C1384 1.287 . S
C1384 C1383 1.287 . S
C1384 C1385 1.524 . S
C1384 H1403 0.913 . S
C1385 H1361 0.950 . S
C1385 C1384 1.524 . S
C1385 C1386 1.415 . S
C1386 H1362 0.950 . S
C1386 C1381 1.363 . S
C1386 C1385 1.415 . S
C1387 H1363 0.951 . S
C1387 C1388 1.366 . S
C1387 C1389 1.388 . S
C1388 C1387 1.366 . S
C1388 C1392 1.385 . S
C1389 H1364 0.951 . S
C1389 C1387 1.388 . S
C1389 C1390 1.366 . S
C1390 C1389 1.366 . S
C1390 C1391 1.414 . S
C1390 C1393 1.499 . S
C1391 H1365 0.950 . S
C1391 C1390 1.414 . S
C1391 C1392 1.374 . S
C1392 H1366 0.950 . S
C1392 C1388 1.385 . S
C1392 C1391 1.374 . S
C1393 C1390 1.499 . S
C1393 C1394 1.373 . S
C1393 C1395 1.389 . S
C1394 H1367 0.950 . S
C1394 C1380 1.377 . S
C1394 C1393 1.373 . S
C1395 C1379 1.377 . S
C1395 C1393 1.389 . S
C1395 C1396 1.524 . S
C1396 C1395 1.524 . S
C1396 C1397 1.397 . S
C1396 C1401 1.363 . S
C1397 H1368 0.950 . S
C1397 C1396 1.397 . S
C1397 C1398 1.334 . S
C1398 H1369 0.950 . S
C1398 C1397 1.334 . S
C1398 C1399 1.287 . S
C1399 C1398 1.287 . S
C1399 C1400 1.524 . S
C1399 H1402 0.999 . S
C1400 H1370 0.950 . S
C1400 C1399 1.524 . S
C1400 C1401 1.415 . S
C1401 H1371 0.950 . S
C1401 C1396 1.363 . S
C1401 C1400 1.415 . S
H1402 C1399 0.999 . S
H1403 C1384 0.913 . S
H1404 C1422 0.951 . S
H1405 C1424 0.951 . S
H1406 C1426 0.950 . S
H1407 C1427 0.950 . S
H1408 C1429 0.950 . S
H1409 C1432 0.950 . S
H1410 C1433 0.950 . S
H1411 C1435 0.950 . S
H1412 C1436 0.950 . S
H1413 C1437 0.951 . S
H1414 C1439 0.951 . S
H1415 C1441 0.950 . S
H1416 C1442 0.950 . S
H1417 C1444 0.950 . S
H1418 C1447 0.950 . S
H1419 C1448 0.950 . S
H1420 C1450 0.950 . S
H1421 C1451 0.950 . S
C1422 H1404 0.951 . S
C1422 C1423 1.366 . S
C1422 C1424 1.388 . S
C1423 C1422 1.366 . S
C1423 C1427 1.385 . S
C1424 H1405 0.951 . S
C1424 C1422 1.388 . S
C1424 C1425 1.366 . S
C1425 C1424 1.366 . S
C1425 C1426 1.414 . S
C1425 C1428 1.499 . S
C1426 H1406 0.950 . S
C1426 C1425 1.414 . S
C1426 C1427 1.374 . S
C1427 H1407 0.950 . S
C1427 C1423 1.385 . S
C1427 C1426 1.374 . S
C1428 C1425 1.499 . S
C1428 C1429 1.373 . S
C1428 C1430 1.389 . S
C1429 H1408 0.950 . S
C1429 C1428 1.373 . S
C1429 C1445 1.377 . S
C1430 C1428 1.389 . S
C1430 C1431 1.524 . S
C1430 C1444 1.377 . S
C1431 C1430 1.524 . S
C1431 C1432 1.397 . S
C1431 C1436 1.363 . S
C1432 H1409 0.950 . S
C1432 C1431 1.397 . S
C1432 C1433 1.334 . S
C1433 H1410 0.950 . S
C1433 C1432 1.334 . S
C1433 C1434 1.287 . S
C1434 C1433 1.287 . S
C1434 C1435 1.524 . S
C1434 H1453 0.913 . S
C1435 H1411 0.950 . S
C1435 C1434 1.524 . S
C1435 C1436 1.415 . S
C1436 H1412 0.950 . S
C1436 C1431 1.363 . S
C1436 C1435 1.415 . S
C1437 H1413 0.951 . S
C1437 C1438 1.366 . S
C1437 C1439 1.388 . S
C1438 C1437 1.366 . S
C1438 C1442 1.385 . S
C1439 H1414 0.951 . S
C1439 C1437 1.388 . S
C1439 C1440 1.366 . S
C1440 C1439 1.366 . S
C1440 C1441 1.414 . S
C1440 C1443 1.499 . S
C1441 H1415 0.950 . S
C1441 C1440 1.414 . S
C1441 C1442 1.374 . S
C1442 H1416 0.950 . S
C1442 C1438 1.385 . S
C1442 C1441 1.374 . S
C1443 C1440 1.499 . S
C1443 C1444 1.373 . S
C1443 C1445 1.389 . S
C1444 H1417 0.950 . S
C1444 C1430 1.377 . S
C1444 C1443 1.373 . S
C1445 C1429 1.377 . S
C1445 C1443 1.389 . S
C1445 C1446 1.524 . S
C1446 C1445 1.524 . S
C1446 C1447 1.397 . S
C1446 C1451 1.363 . S
C1447 H1418 0.950 . S
C1447 C1446 1.397 . S
C1447 C1448 1.334 . S
C1448 H1419 0.950 . S
C1448 C1447 1.334 . S
C1448 C1449 1.287 . S
C1449 C1448 1.287 . S
C1449 C1450 1.524 . S
C1449 H1452 0.999 . S
C1450 H1420 0.950 . S
C1450 C1449 1.524 . S
C1450 C1451 1.415 . S
C1451 H1421 0.950 . S
C1451 C1446 1.363 . S
C1451 C1450 1.415 . S
H1452 C1449 0.999 . S
H1453 C1434 0.913 . S
H1454 C1472 0.951 . S
H1455 C1474 0.951 . S
H1456 C1476 0.950 . S
H1457 C1477 0.950 . S
H1458 C1479 0.950 . S
H1459 C1482 0.950 . S
H1460 C1483 0.950 . S
H1461 C1485 0.950 . S
H1462 C1486 0.950 . S
H1463 C1487 0.951 . S
H1464 C1489 0.951 . S
H1465 C1491 0.950 . S
H1466 C1492 0.950 . S
H1467 C1494 0.950 . S
H1468 C1497 0.950 . S
H1469 C1498 0.950 . S
H1470 C1500 0.950 . S
H1471 C1501 0.950 . S
C1472 H1454 0.951 . S
C1472 C1473 1.366 . S
C1472 C1474 1.388 . S
C1473 C1472 1.366 . S
C1473 C1477 1.385 . S
C1474 H1455 0.951 . S
C1474 C1472 1.388 . S
C1474 C1475 1.366 . S
C1475 C1474 1.366 . S
C1475 C1476 1.414 . S
C1475 C1478 1.499 . S
C1476 H1456 0.950 . S
C1476 C1475 1.414 . S
C1476 C1477 1.374 . S
C1477 H1457 0.950 . S
C1477 C1473 1.385 . S
C1477 C1476 1.374 . S
C1478 C1475 1.499 . S
C1478 C1479 1.373 . S
C1478 C1480 1.389 . S
C1479 H1458 0.950 . S
C1479 C1478 1.373 . S
C1479 C1495 1.377 . S
C1480 C1478 1.389 . S
C1480 C1481 1.524 . S
C1480 C1494 1.377 . S
C1481 C1480 1.524 . S
C1481 C1482 1.397 . S
C1481 C1486 1.363 . S
C1482 H1459 0.950 . S
C1482 C1481 1.397 . S
C1482 C1483 1.334 . S
C1483 H1460 0.950 . S
C1483 C1482 1.334 . S
C1483 C1484 1.287 . S
C1484 C1483 1.287 . S
C1484 C1485 1.524 . S
C1484 H1503 0.913 . S
C1485 H1461 0.950 . S
C1485 C1484 1.524 . S
C1485 C1486 1.415 . S
C1486 H1462 0.950 . S
C1486 C1481 1.363 . S
C1486 C1485 1.415 . S
C1487 H1463 0.951 . S
C1487 C1488 1.366 . S
C1487 C1489 1.388 . S
C1488 C1487 1.366 . S
C1488 C1492 1.385 . S
C1489 H1464 0.951 . S
C1489 C1487 1.388 . S
C1489 C1490 1.366 . S
C1490 C1489 1.366 . S
C1490 C1491 1.414 . S
C1490 C1493 1.499 . S
C1491 H1465 0.950 . S
C1491 C1490 1.414 . S
C1491 C1492 1.374 . S
C1492 H1466 0.950 . S
C1492 C1488 1.385 . S
C1492 C1491 1.374 . S
C1493 C1490 1.499 . S
C1493 C1494 1.373 . S
C1493 C1495 1.389 . S
C1494 H1467 0.950 . S
C1494 C1480 1.377 . S
C1494 C1493 1.373 . S
C1495 C1479 1.377 . S
C1495 C1493 1.389 . S
C1495 C1496 1.524 . S
C1496 C1495 1.524 . S
C1496 C1497 1.397 . S
C1496 C1501 1.363 . S
C1497 H1468 0.950 . S
C1497 C1496 1.397 . S
C1497 C1498 1.334 . S
C1498 H1469 0.950 . S
C1498 C1497 1.334 . S
C1498 C1499 1.287 . S
C1499 C1498 1.287 . S
C1499 C1500 1.524 . S
C1499 H1502 0.999 . S
C1500 H1470 0.950 . S
C1500 C1499 1.524 . S
C1500 C1501 1.415 . S
C1501 H1471 0.950 . S
C1501 C1496 1.363 . S
C1501 C1500 1.415 . S
H1502 C1499 0.999 . S
H1503 C1484 0.913 . S
H1504 C1522 0.951 . S
H1505 C1524 0.951 . S
H1506 C1526 0.950 . S
H1507 C1527 0.950 . S
H1508 C1529 0.950 . S
H1509 C1532 0.950 . S
H1510 C1533 0.950 . S
H1511 C1535 0.950 . S
H1512 C1536 0.950 . S
H1513 C1537 0.951 . S
H1514 C1539 0.951 . S
H1515 C1541 0.950 . S
H1516 C1542 0.950 . S
H1517 C1544 0.950 . S
H1518 C1547 0.950 . S
H1519 C1548 0.950 . S
H1520 C1550 0.950 . S
H1521 C1551 0.950 . S
C1522 H1504 0.951 . S
C1522 C1523 1.366 . S
C1522 C1524 1.388 . S
C1523 C1522 1.366 . S
C1523 C1527 1.385 . S
C1524 H1505 0.951 . S
C1524 C1522 1.388 . S
C1524 C1525 1.366 . S
C1525 C1524 1.366 . S
C1525 C1526 1.414 . S
C1525 C1528 1.499 . S
C1526 H1506 0.950 . S
C1526 C1525 1.414 . S
C1526 C1527 1.374 . S
C1527 H1507 0.950 . S
C1527 C1523 1.385 . S
C1527 C1526 1.374 . S
C1528 C1525 1.499 . S
C1528 C1529 1.373 . S
C1528 C1530 1.389 . S
C1529 H1508 0.950 . S
C1529 C1528 1.373 . S
C1529 C1545 1.377 . S
C1530 C1528 1.389 . S
C1530 C1531 1.524 . S
C1530 C1544 1.377 . S
C1531 C1530 1.524 . S
C1531 C1532 1.397 . S
C1531 C1536 1.363 . S
C1532 H1509 0.950 . S
C1532 C1531 1.397 . S
C1532 C1533 1.334 . S
C1533 H1510 0.950 . S
C1533 C1532 1.334 . S
C1533 C1534 1.287 . S
C1534 C1533 1.287 . S
C1534 C1535 1.524 . S
C1534 H1553 0.913 . S
C1535 H1511 0.950 . S
C1535 C1534 1.524 . S
C1535 C1536 1.415 . S
C1536 H1512 0.950 . S
C1536 C1531 1.363 . S
C1536 C1535 1.415 . S
C1537 H1513 0.951 . S
C1537 C1538 1.366 . S
C1537 C1539 1.388 . S
C1538 C1537 1.366 . S
C1538 C1542 1.385 . S
C1539 H1514 0.951 . S
C1539 C1537 1.388 . S
C1539 C1540 1.366 . S
C1540 C1539 1.366 . S
C1540 C1541 1.414 . S
C1540 C1543 1.499 . S
C1541 H1515 0.950 . S
C1541 C1540 1.414 . S
C1541 C1542 1.374 . S
C1542 H1516 0.950 . S
C1542 C1538 1.385 . S
C1542 C1541 1.374 . S
C1543 C1540 1.499 . S
C1543 C1544 1.373 . S
C1543 C1545 1.389 . S
C1544 H1517 0.950 . S
C1544 C1530 1.377 . S
C1544 C1543 1.373 . S
C1545 C1529 1.377 . S
C1545 C1543 1.389 . S
C1545 C1546 1.524 . S
C1546 C1545 1.524 . S
C1546 C1547 1.397 . S
C1546 C1551 1.363 . S
C1547 H1518 0.950 . S
C1547 C1546 1.397 . S
C1547 C1548 1.334 . S
C1548 H1519 0.950 . S
C1548 C1547 1.334 . S
C1548 C1549 1.287 . S
C1549 C1548 1.287 . S
C1549 C1550 1.524 . S
C1549 H1552 0.999 . S
C1550 H1520 0.950 . S
C1550 C1549 1.524 . S
C1550 C1551 1.415 . S
C1551 H1521 0.950 . S
C1551 C1546 1.363 . S
C1551 C1550 1.415 . S
H1552 C1549 0.999 . S
H1553 C1534 0.913 . S
H1554 C1572 0.951 . S
H1555 C1574 0.951 . S
H1556 C1576 0.950 . S
H1557 C1577 0.950 . S
H1558 C1579 0.950 . S
H1559 C1582 0.950 . S
H1560 C1583 0.950 . S
H1561 C1585 0.950 . S
H1562 C1586 0.950 . S
H1563 C1587 0.951 . S
H1564 C1589 0.951 . S
H1565 C1591 0.950 . S
H1566 C1592 0.950 . S
H1567 C1594 0.950 . S
H1568 C1597 0.950 . S
H1569 C1598 0.950 . S
H1570 C1600 0.950 . S
H1571 C1601 0.950 . S
C1572 H1554 0.951 . S
C1572 C1573 1.366 . S
C1572 C1574 1.388 . S
C1573 C1572 1.366 . S
C1573 C1577 1.385 . S
C1574 H1555 0.951 . S
C1574 C1572 1.388 . S
C1574 C1575 1.366 . S
C1575 C1574 1.366 . S
C1575 C1576 1.414 . S
C1575 C1578 1.499 . S
C1576 H1556 0.950 . S
C1576 C1575 1.414 . S
C1576 C1577 1.374 . S
C1577 H1557 0.950 . S
C1577 C1573 1.385 . S
C1577 C1576 1.374 . S
C1578 C1575 1.499 . S
C1578 C1579 1.373 . S
C1578 C1580 1.389 . S
C1579 H1558 0.950 . S
C1579 C1578 1.373 . S
C1579 C1595 1.377 . S
C1580 C1578 1.389 . S
C1580 C1581 1.524 . S
C1580 C1594 1.377 . S
C1581 C1580 1.524 . S
C1581 C1582 1.397 . S
C1581 C1586 1.363 . S
C1582 H1559 0.950 . S
C1582 C1581 1.397 . S
C1582 C1583 1.334 . S
C1583 H1560 0.950 . S
C1583 C1582 1.334 . S
C1583 C1584 1.287 . S
C1584 C1583 1.287 . S
C1584 C1585 1.524 . S
C1584 H1603 0.913 . S
C1585 H1561 0.950 . S
C1585 C1584 1.524 . S
C1585 C1586 1.415 . S
C1586 H1562 0.950 . S
C1586 C1581 1.363 . S
C1586 C1585 1.415 . S
C1587 H1563 0.951 . S
C1587 C1588 1.366 . S
C1587 C1589 1.388 . S
C1588 C1587 1.366 . S
C1588 C1592 1.385 . S
C1589 H1564 0.951 . S
C1589 C1587 1.388 . S
C1589 C1590 1.366 . S
C1590 C1589 1.366 . S
C1590 C1591 1.414 . S
C1590 C1593 1.499 . S
C1591 H1565 0.950 . S
C1591 C1590 1.414 . S
C1591 C1592 1.374 . S
C1592 H1566 0.950 . S
C1592 C1588 1.385 . S
C1592 C1591 1.374 . S
C1593 C1590 1.499 . S
C1593 C1594 1.373 . S
C1593 C1595 1.389 . S
C1594 H1567 0.950 . S
C1594 C1580 1.377 . S
C1594 C1593 1.373 . S
C1595 C1579 1.377 . S
C1595 C1593 1.389 . S
C1595 C1596 1.524 . S
C1596 C1595 1.524 . S
C1596 C1597 1.397 . S
C1596 C1601 1.363 . S
C1597 H1568 0.950 . S
C1597 C1596 1.397 . S
C1597 C1598 1.334 . S
C1598 H1569 0.950 . S
C1598 C1597 1.334 . S
C1598 C1599 1.287 . S
C1599 C1598 1.287 . S
C1599 C1600 1.524 . S
C1599 H1602 0.999 . S
C1600 H1570 0.950 . S
C1600 C1599 1.524 . S
C1600 C1601 1.415 . S
C1601 H1571 0.950 . S
C1601 C1596 1.363 . S
C1601 C1600 1.415 . S
H1602 C1599 0.999 . S
H1603 C1584 0.913 . S
H1604 C1622 0.951 . S
H1605 C1624 0.951 . S
H1606 C1626 0.950 . S
H1607 C1627 0.950 . S
H1608 C1629 0.950 . S
H1609 C1632 0.950 . S
H1610 C1633 0.950 . S
H1611 C1635 0.950 . S
H1612 C1636 0.950 . S
H1613 C1637 0.951 . S
H1614 C1639 0.951 . S
H1615 C1641 0.950 . S
H1616 C1642 0.950 . S
H1617 C1644 0.950 . S
H1618 C1647 0.950 . S
H1619 C1648 0.950 . S
H1620 C1650 0.950 . S
H1621 C1651 0.950 . S
C1622 H1604 0.951 . S
C1622 C1623 1.366 . S
C1622 C1624 1.388 . S
C1623 C1622 1.366 . S
C1623 C1627 1.385 . S
C1624 H1605 0.951 . S
C1624 C1622 1.388 . S
C1624 C1625 1.366 . S
C1625 C1624 1.366 . S
C1625 C1626 1.414 . S
C1625 C1628 1.499 . S
C1626 H1606 0.950 . S
C1626 C1625 1.414 . S
C1626 C1627 1.374 . S
C1627 H1607 0.950 . S
C1627 C1623 1.385 . S
C1627 C1626 1.374 . S
C1628 C1625 1.499 . S
C1628 C1629 1.373 . S
C1628 C1630 1.389 . S
C1629 H1608 0.950 . S
C1629 C1628 1.373 . S
C1629 C1645 1.377 . S
C1630 C1628 1.389 . S
C1630 C1631 1.524 . S
C1630 C1644 1.377 . S
C1631 C1630 1.524 . S
C1631 C1632 1.397 . S
C1631 C1636 1.363 . S
C1632 H1609 0.950 . S
C1632 C1631 1.397 . S
C1632 C1633 1.334 . S
C1633 H1610 0.950 . S
C1633 C1632 1.334 . S
C1633 C1634 1.287 . S
C1634 C1633 1.287 . S
C1634 C1635 1.524 . S
C1634 H1653 0.913 . S
C1635 H1611 0.950 . S
C1635 C1634 1.524 . S
C1635 C1636 1.415 . S
C1636 H1612 0.950 . S
C1636 C1631 1.363 . S
C1636 C1635 1.415 . S
C1637 H1613 0.951 . S
C1637 C1638 1.366 . S
C1637 C1639 1.388 . S
C1638 C1637 1.366 . S
C1638 C1642 1.385 . S
C1639 H1614 0.951 . S
C1639 C1637 1.388 . S
C1639 C1640 1.366 . S
C1640 C1639 1.366 . S
C1640 C1641 1.414 . S
C1640 C1643 1.499 . S
C1641 H1615 0.950 . S
C1641 C1640 1.414 . S
C1641 C1642 1.374 . S
C1642 H1616 0.950 . S
C1642 C1638 1.385 . S
C1642 C1641 1.374 . S
C1643 C1640 1.499 . S
C1643 C1644 1.373 . S
C1643 C1645 1.389 . S
C1644 H1617 0.950 . S
C1644 C1630 1.377 . S
C1644 C1643 1.373 . S
C1645 C1629 1.377 . S
C1645 C1643 1.389 . S
C1645 C1646 1.524 . S
C1646 C1645 1.524 . S
C1646 C1647 1.397 . S
C1646 C1651 1.363 . S
C1647 H1618 0.950 . S
C1647 C1646 1.397 . S
C1647 C1648 1.334 . S
C1648 H1619 0.950 . S
C1648 C1647 1.334 . S
C1648 C1649 1.287 . S
C1649 C1648 1.287 . S
C1649 C1650 1.524 . S
C1649 H1652 0.999 . S
C1650 H1620 0.950 . S
C1650 C1649 1.524 . S
C1650 C1651 1.415 . S
C1651 H1621 0.950 . S
C1651 C1646 1.363 . S
C1651 C1650 1.415 . S
H1652 C1649 0.999 . S
H1653 C1634 0.913 . S
H1654 C1672 0.951 . S
H1655 C1674 0.951 . S
H1656 C1676 0.950 . S
H1657 C1677 0.950 . S
H1658 C1679 0.950 . S
H1659 C1682 0.950 . S
H1660 C1683 0.950 . S
H1661 C1685 0.950 . S
H1662 C1686 0.950 . S
H1663 C1687 0.951 . S
H1664 C1689 0.951 . S
H1665 C1691 0.950 . S
H1666 C1692 0.950 . S
H1667 C1694 0.950 . S
H1668 C1697 0.950 . S
H1669 C1698 0.950 . S
H1670 C1700 0.950 . S
H1671 C1701 0.950 . S
C1672 H1654 0.951 . S
C1672 C1673 1.366 . S
C1672 C1674 1.388 . S
C1673 C1672 1.366 . S
C1673 C1677 1.385 . S
C1674 H1655 0.951 . S
C1674 C1672 1.388 . S
C1674 C1675 1.366 . S
C1675 C1674 1.366 . S
C1675 C1676 1.414 . S
C1675 C1678 1.499 . S
C1676 H1656 0.950 . S
C1676 C1675 1.414 . S
C1676 C1677 1.374 . S
C1677 H1657 0.950 . S
C1677 C1673 1.385 . S
C1677 C1676 1.374 . S
C1678 C1675 1.499 . S
C1678 C1679 1.373 . S
C1678 C1680 1.389 . S
C1679 H1658 0.950 . S
C1679 C1678 1.373 . S
C1679 C1695 1.377 . S
C1680 C1678 1.389 . S
C1680 C1681 1.524 . S
C1680 C1694 1.377 . S
C1681 C1680 1.524 . S
C1681 C1682 1.397 . S
C1681 C1686 1.363 . S
C1682 H1659 0.950 . S
C1682 C1681 1.397 . S
C1682 C1683 1.334 . S
C1683 H1660 0.950 . S
C1683 C1682 1.334 . S
C1683 C1684 1.287 . S
C1684 C1683 1.287 . S
C1684 C1685 1.524 . S
C1684 H1703 0.913 . S
C1685 H1661 0.950 . S
C1685 C1684 1.524 . S
C1685 C1686 1.415 . S
C1686 H1662 0.950 . S
C1686 C1681 1.363 . S
C1686 C1685 1.415 . S
C1687 H1663 0.951 . S
C1687 C1688 1.366 . S
C1687 C1689 1.388 . S
C1688 C1687 1.366 . S
C1688 C1692 1.385 . S
C1689 H1664 0.951 . S
C1689 C1687 1.388 . S
C1689 C1690 1.366 . S
C1690 C1689 1.366 . S
C1690 C1691 1.414 . S
C1690 C1693 1.499 . S
C1691 H1665 0.950 . S
C1691 C1690 1.414 . S
C1691 C1692 1.374 . S
C1692 H1666 0.950 . S
C1692 C1688 1.385 . S
C1692 C1691 1.374 . S
C1693 C1690 1.499 . S
C1693 C1694 1.373 . S
C1693 C1695 1.389 . S
C1694 H1667 0.950 . S
C1694 C1680 1.377 . S
C1694 C1693 1.373 . S
C1695 C1679 1.377 . S
C1695 C1693 1.389 . S
C1695 C1696 1.524 . S
C1696 C1695 1.524 . S
C1696 C1697 1.397 . S
C1696 C1701 1.363 . S
C1697 H1668 0.950 . S
C1697 C1696 1.397 . S
C1697 C1698 1.334 . S
C1698 H1669 0.950 . S
C1698 C1697 1.334 . S
C1698 C1699 1.287 . S
C1699 C1698 1.287 . S
C1699 C1700 1.524 . S
C1699 H1702 0.999 . S
C1700 H1670 0.950 . S
C1700 C1699 1.524 . S
C1700 C1701 1.415 . S
C1701 H1671 0.950 . S
C1701 C1696 1.363 . S
C1701 C1700 1.415 . S
H1702 C1699 0.999 . S
H1703 C1684 0.913 . S
H1704 C1722 0.951 . S
H1705 C1724 0.951 . S
H1706 C1726 0.950 . S
H1707 C1727 0.950 . S
H1708 C1729 0.950 . S
H1709 C1732 0.950 . S
H1710 C1733 0.950 . S
H1711 C1735 0.950 . S
H1712 C1736 0.950 . S
H1713 C1737 0.951 . S
H1714 C1739 0.951 . S
H1715 C1741 0.950 . S
H1716 C1742 0.950 . S
H1717 C1744 0.950 . S
H1718 C1747 0.950 . S
H1719 C1748 0.950 . S
H1720 C1750 0.950 . S
H1721 C1751 0.950 . S
C1722 H1704 0.951 . S
C1722 C1723 1.366 . S
C1722 C1724 1.388 . S
C1723 C1722 1.366 . S
C1723 C1727 1.385 . S
C1724 H1705 0.951 . S
C1724 C1722 1.388 . S
C1724 C1725 1.366 . S
C1725 C1724 1.366 . S
C1725 C1726 1.414 . S
C1725 C1728 1.499 . S
C1726 H1706 0.950 . S
C1726 C1725 1.414 . S
C1726 C1727 1.374 . S
C1727 H1707 0.950 . S
C1727 C1723 1.385 . S
C1727 C1726 1.374 . S
C1728 C1725 1.499 . S
C1728 C1729 1.373 . S
C1728 C1730 1.389 . S
C1729 H1708 0.950 . S
C1729 C1728 1.373 . S
C1729 C1745 1.377 . S
C1730 C1728 1.389 . S
C1730 C1731 1.524 . S
C1730 C1744 1.377 . S
C1731 C1730 1.524 . S
C1731 C1732 1.397 . S
C1731 C1736 1.363 . S
C1732 H1709 0.950 . S
C1732 C1731 1.397 . S
C1732 C1733 1.334 . S
C1733 H1710 0.950 . S
C1733 C1732 1.334 . S
C1733 C1734 1.287 . S
C1734 C1733 1.287 . S
C1734 C1735 1.524 . S
C1734 H1753 0.913 . S
C1735 H1711 0.950 . S
C1735 C1734 1.524 . S
C1735 C1736 1.415 . S
C1736 H1712 0.950 . S
C1736 C1731 1.363 . S
C1736 C1735 1.415 . S
C1737 H1713 0.951 . S
C1737 C1738 1.366 . S
C1737 C1739 1.388 . S
C1738 C1737 1.366 . S
C1738 C1742 1.385 . S
C1739 H1714 0.951 . S
C1739 C1737 1.388 . S
C1739 C1740 1.366 . S
C1740 C1739 1.366 . S
C1740 C1741 1.414 . S
C1740 C1743 1.499 . S
C1741 H1715 0.950 . S
C1741 C1740 1.414 . S
C1741 C1742 1.374 . S
C1742 H1716 0.950 . S
C1742 C1738 1.385 . S
C1742 C1741 1.374 . S
C1743 C1740 1.499 . S
C1743 C1744 1.373 . S
C1743 C1745 1.389 . S
C1744 H1717 0.950 . S
C1744 C1730 1.377 . S
C1744 C1743 1.373 . S
C1745 C1729 1.377 . S
C1745 C1743 1.389 . S
C1745 C1746 1.524 . S
C1746 C1745 1.524 . S
C1746 C1747 1.397 . S
C1746 C1751 1.363 . S
C1747 H1718 0.950 . S
C1747 C1746 1.397 . S
C1747 C1748 1.334 . S
C1748 H1719 0.950 . S
C1748 C1747 1.334 . S
C1748 C1749 1.287 . S
C1749 C1748 1.287 . S
C1749 C1750 1.524 . S
C1749 H1752 0.999 . S
C1750 H1720 0.950 . S
C1750 C1749 1.524 . S
C1750 C1751 1.415 . S
C1751 H1721 0.950 . S
C1751 C1746 1.363 . S
C1751 C1750 1.415 . S
H1752 C1749 0.999 . S
H1753 C1734 0.913 . S
H1754 C1772 0.951 . S
H1755 C1774 0.951 . S
H1756 C1776 0.950 . S
H1757 C1777 0.950 . S
H1758 C1779 0.950 . S
H1759 C1782 0.950 . S
H1760 C1783 0.950 . S
H1761 C1785 0.950 . S
H1762 C1786 0.950 . S
H1763 C1787 0.951 . S
H1764 C1789 0.951 . S
H1765 C1791 0.950 . S
H1766 C1792 0.950 . S
H1767 C1794 0.950 . S
H1768 C1797 0.950 . S
H1769 C1798 0.950 . S
H1770 C1800 0.950 . S
H1771 C1801 0.950 . S
C1772 H1754 0.951 . S
C1772 C1773 1.366 . S
C1772 C1774 1.388 . S
C1773 C1772 1.366 . S
C1773 C1777 1.385 . S
C1774 H1755 0.951 . S
C1774 C1772 1.388 . S
C1774 C1775 1.366 . S
C1775 C1774 1.366 . S
C1775 C1776 1.414 . S
C1775 C1778 1.499 . S
C1776 H1756 0.950 . S
C1776 C1775 1.414 . S
C1776 C1777 1.374 . S
C1777 H1757 0.950 . S
C1777 C1773 1.385 . S
C1777 C1776 1.374 . S
C1778 C1775 1.499 . S
C1778 C1779 1.373 . S
C1778 C1780 1.389 . S
C1779 H1758 0.950 . S
C1779 C1778 1.373 . S
C1779 C1795 1.377 . S
C1780 C1778 1.389 . S
C1780 C1781 1.524 . S
C1780 C1794 1.377 . S
C1781 C1780 1.524 . S
C1781 C1782 1.397 . S
C1781 C1786 1.363 . S
C1782 H1759 0.950 . S
C1782 C1781 1.397 . S
C1782 C1783 1.334 . S
C1783 H1760 0.950 . S
C1783 C1782 1.334 . S
C1783 C1784 1.287 . S
C1784 C1783 1.287 . S
C1784 C1785 1.524 . S
C1784 H1803 0.913 . S
C1785 H1761 0.950 . S
C1785 C1784 1.524 . S
C1785 C1786 1.415 . S
C1786 H1762 0.950 . S
C1786 C1781 1.363 . S
C1786 C1785 1.415 . S
C1787 H1763 0.951 . S
C1787 C1788 1.366 . S
C1787 C1789 1.388 . S
C1788 C1787 1.366 . S
C1788 C1792 1.385 . S
C1789 H1764 0.951 . S
C1789 C1787 1.388 . S
C1789 C1790 1.366 . S
C1790 C1789 1.366 . S
C1790 C1791 1.414 . S
C1790 C1793 1.499 . S
C1791 H1765 0.950 . S
C1791 C1790 1.414 . S
C1791 C1792 1.374 . S
C1792 H1766 0.950 . S
C1792 C1788 1.385 . S
C1792 C1791 1.374 . S
C1793 C1790 1.499 . S
C1793 C1794 1.373 . S
C1793 C1795 1.389 . S
C1794 H1767 0.950 . S
C1794 C1780 1.377 . S
C1794 C1793 1.373 . S
C1795 C1779 1.377 . S
C1795 C1793 1.389 . S
C1795 C1796 1.524 . S
C1796 C1795 1.524 . S
C1796 C1797 1.397 . S
C1796 C1801 1.363 . S
C1797 H1768 0.950 . S
C1797 C1796 1.397 . S
C1797 C1798 1.334 . S
C1798 H1769 0.950 . S
C1798 C1797 1.334 . S
C1798 C1799 1.287 . S
C1799 C1798 1.287 . S
C1799 C1800 1.524 . S
C1799 H1802 0.999 . S
C1800 H1770 0.950 . S
C1800 C1799 1.524 . S
C1800 C1801 1.415 . S
C1801 H1771 0.950 . S
C1801 C1796 1.363 . S
C1801 C1800 1.415 . S
H1802 C1799 0.999 . S
H1803 C1784 0.913 . S
H1804 C1822 0.951 . S
H1805 C1824 0.951 . S
H1806 C1826 0.950 . S
H1807 C1827 0.950 . S
H1808 C1829 0.950 . S
H1809 C1832 0.950 . S
H1810 C1833 0.950 . S
H1811 C1835 0.950 . S
H1812 C1836 0.950 . S
H1813 C1837 0.951 . S
H1814 C1839 0.951 . S
H1815 C1841 0.950 . S
H1816 C1842 0.950 . S
H1817 C1844 0.950 . S
H1818 C1847 0.950 . S
H1819 C1848 0.950 . S
H1820 C1850 0.950 . S
H1821 C1851 0.950 . S
C1822 H1804 0.951 . S
C1822 C1823 1.366 . S
C1822 C1824 1.388 . S
C1823 C1822 1.366 . S
C1823 C1827 1.385 . S
C1824 H1805 0.951 . S
C1824 C1822 1.388 . S
C1824 C1825 1.366 . S
C1825 C1824 1.366 . S
C1825 C1826 1.414 . S
C1825 C1828 1.499 . S
C1826 H1806 0.950 . S
C1826 C1825 1.414 . S
C1826 C1827 1.374 . S
C1827 H1807 0.950 . S
C1827 C1823 1.385 . S
C1827 C1826 1.374 . S
C1828 C1825 1.499 . S
C1828 C1829 1.373 . S
C1828 C1830 1.389 . S
C1829 H1808 0.950 . S
C1829 C1828 1.373 . S
C1829 C1845 1.377 . S
C1830 C1828 1.389 . S
C1830 C1831 1.524 . S
C1830 C1844 1.377 . S
C1831 C1830 1.524 . S
C1831 C1832 1.397 . S
C1831 C1836 1.363 . S
C1832 H1809 0.950 . S
C1832 C1831 1.397 . S
C1832 C1833 1.334 . S
C1833 H1810 0.950 . S
C1833 C1832 1.334 . S
C1833 C1834 1.287 . S
C1834 C1833 1.287 . S
C1834 C1835 1.524 . S
C1834 H1853 0.913 . S
C1835 H1811 0.950 . S
C1835 C1834 1.524 . S
C1835 C1836 1.415 . S
C1836 H1812 0.950 . S
C1836 C1831 1.363 . S
C1836 C1835 1.415 . S
C1837 H1813 0.951 . S
C1837 C1838 1.366 . S
C1837 C1839 1.388 . S
C1838 C1837 1.366 . S
C1838 C1842 1.385 . S
C1839 H1814 0.951 . S
C1839 C1837 1.388 . S
C1839 C1840 1.366 . S
C1840 C1839 1.366 . S
C1840 C1841 1.414 . S
C1840 C1843 1.499 . S
C1841 H1815 0.950 . S
C1841 C1840 1.414 . S
C1841 C1842 1.374 . S
C1842 H1816 0.950 . S
C1842 C1838 1.385 . S
C1842 C1841 1.374 . S
C1843 C1840 1.499 . S
C1843 C1844 1.373 . S
C1843 C1845 1.389 . S
C1844 H1817 0.950 . S
C1844 C1830 1.377 . S
C1844 C1843 1.373 . S
C1845 C1829 1.377 . S
C1845 C1843 1.389 . S
C1845 C1846 1.524 . S
C1846 C1845 1.524 . S
C1846 C1847 1.397 . S
C1846 C1851 1.363 . S
C1847 H1818 0.950 . S
C1847 C1846 1.397 . S
C1847 C1848 1.334 . S
C1848 H1819 0.950 . S
C1848 C1847 1.334 . S
C1848 C1849 1.287 . S
C1849 C1848 1.287 . S
C1849 C1850 1.524 . S
C1849 H1852 0.999 . S
C1850 H1820 0.950 . S
C1850 C1849 1.524 . S
C1850 C1851 1.415 . S
C1851 H1821 0.950 . S
C1851 C1846 1.363 . S
C1851 C1850 1.415 . S
H1852 C1849 0.999 . S
H1853 C1834 0.913 . S
H1854 C1872 0.951 . S
H1855 C1874 0.951 . S
H1856 C1876 0.950 . S
H1857 C1877 0.950 . S
H1858 C1879 0.950 . S
H1859 C1882 0.950 . S
H1860 C1883 0.950 . S
H1861 C1885 0.950 . S
H1862 C1886 0.950 . S
H1863 C1887 0.951 . S
H1864 C1889 0.951 . S
H1865 C1891 0.950 . S
H1866 C1892 0.950 . S
H1867 C1894 0.950 . S
H1868 C1897 0.950 . S
H1869 C1898 0.950 . S
H1870 C1900 0.950 . S
H1871 C1901 0.950 . S
C1872 H1854 0.951 . S
C1872 C1873 1.366 . S
C1872 C1874 1.388 . S
C1873 C1872 1.366 . S
C1873 C1877 1.385 . S
C1874 H1855 0.951 . S
C1874 C1872 1.388 . S
C1874 C1875 1.366 . S
C1875 C1874 1.366 . S
C1875 C1876 1.414 . S
C1875 C1878 1.499 . S
C1876 H1856 0.950 . S
C1876 C1875 1.414 . S
C1876 C1877 1.374 . S
C1877 H1857 0.950 . S
C1877 C1873 1.385 . S
C1877 C1876 1.374 . S
C1878 C1875 1.499 . S
C1878 C1879 1.373 . S
C1878 C1880 1.389 . S
C1879 H1858 0.950 . S
C1879 C1878 1.373 . S
C1879 C1895 1.377 . S
C1880 C1878 1.389 . S
C1880 C1881 1.524 . S
C1880 C1894 1.377 . S
C1881 C1880 1.524 . S
C1881 C1882 1.397 . S
C1881 C1886 1.363 . S
C1882 H1859 0.950 . S
C1882 C1881 1.397 . S
C1882 C1883 1.334 . S
C1883 H1860 0.950 . S
C1883 C1882 1.334 . S
C1883 C1884 1.287 . S
C1884 C1883 1.287 . S
C1884 C1885 1.524 . S
C1884 H1903 0.913 . S
C1885 H1861 0.950 . S
C1885 C1884 1.524 . S
C1885 C1886 1.415 . S
C1886 H1862 0.950 . S
C1886 C1881 1.363 . S
C1886 C1885 1.415 . S
C1887 H1863 0.951 . S
C1887 C1888 1.366 . S
C1887 C1889 1.388 . S
C1888 C1887 1.366 . S
C1888 C1892 1.385 . S
C1889 H1864 0.951 . S
C1889 C1887 1.388 . S
C1889 C1890 1.366 . S
C1890 C1889 1.366 . S
C1890 C1891 1.414 . S
C1890 C1893 1.499 . S
C1891 H1865 0.950 . S
C1891 C1890 1.414 . S
C1891 C1892 1.374 . S
C1892 H1866 0.950 . S
C1892 C1888 1.385 . S
C1892 C1891 1.374 . S
C1893 C1890 1.499 . S
C1893 C1894 1.373 . S
C1893 C1895 1.389 . S
C1894 H1867 0.950 . S
C1894 C1880 1.377 . S
C1894 C1893 1.373 . S
C1895 C1879 1.377 . S
C1895 C1893 1.389 . S
C1895 C1896 1.524 . S
C1896 C1895 1.524 . S
C1896 C1897 1.397 . S
C1896 C1901 1.363 . S
C1897 H1868 0.950 . S
C1897 C1896 1.397 . S
C1897 C1898 1.334 . S
C1898 H1869 0.950 . S
C1898 C1897 1.334 . S
C1898 C1899 1.287 . S
C1899 C1898 1.287 . S
C1899 C1900 1.524 . S
C1899 H1902 0.999 . S
C1900 H1870 0.950 . S
C1900 C1899 1.524 . S
C1900 C1901 1.415 . S
C1901 H1871 0.950 . S
C1901 C1896 1.363 . S
C1901 C1900 1.415 . S
H1902 C1899 0.999 . S
H1903 C1884 0.913 . S
H1904 C1922 0.951 . S
H1905 C1924 0.951 . S
H1906 C1926 0.950 . S
H1907 C1927 0.950 . S
H1908 C1929 0.950 . S
H1909 C1932 0.950 . S
H1910 C1933 0.950 . S
H1911 C1935 0.950 . S
H1912 C1936 0.950 . S
H1913 C1937 0.951 . S
H1914 C1939 0.951 . S
H1915 C1941 0.950 . S
H1916 C1942 0.950 . S
H1917 C1944 0.950 . S
H1918 C1947 0.950 . S
H1919 C1948 0.950 . S
H1920 C1950 0.950 . S
H1921 C1951 0.950 . S
C1922 H1904 0.951 . S
C1922 C1923 1.366 . S
C1922 C1924 1.388 . S
C1923 C1922 1.366 . S
C1923 C1927 1.385 . S
C1924 H1905 0.951 . S
C1924 C1922 1.388 . S
C1924 C1925 1.366 . S
C1925 C1924 1.366 . S
C1925 C1926 1.414 . S
C1925 C1928 1.499 . S
C1926 H1906 0.950 . S
C1926 C1925 1.414 . S
C1926 C1927 1.374 . S
C1927 H1907 0.950 . S
C1927 C1923 1.385 . S
C1927 C1926 1.374 . S
C1928 C1925 1.499 . S
C1928 C1929 1.373 . S
C1928 C1930 1.389 . S
C1929 H1908 0.950 . S
C1929 C1928 1.373 . S
C1929 C1945 1.377 . S
C1930 C1928 1.389 . S
C1930 C1931 1.524 . S
C1930 C1944 1.377 . S
C1931 C1930 1.524 . S
C1931 C1932 1.397 . S
C1931 C1936 1.363 . S
C1932 H1909 0.950 . S
C1932 C1931 1.397 . S
C1932 C1933 1.334 . S
C1933 H1910 0.950 . S
C1933 C1932 1.334 . S
C1933 C1934 1.287 . S
C1934 C1933 1.287 . S
C1934 C1935 1.524 . S
C1934 H1953 0.913 . S
C1935 H1911 0.950 . S
C1935 C1934 1.524 . S
C1935 C1936 1.415 . S
C1936 H1912 0.950 . S
C1936 C1931 1.363 . S
C1936 C1935 1.415 . S
C1937 H1913 0.951 . S
C1937 C1938 1.366 . S
C1937 C1939 1.388 . S
C1938 C1937 1.366 . S
C1938 C1942 1.385 . S
C1939 H1914 0.951 . S
C1939 C1937 1.388 . S
C1939 C1940 1.366 . S
C1940 C1939 1.366 . S
C1940 C1941 1.414 . S
C1940 C1943 1.499 . S
C1941 H1915 0.950 . S
C1941 C1940 1.414 . S
C1941 C1942 1.374 . S
C1942 H1916 0.950 . S
C1942 C1938 1.385 . S
C1942 C1941 1.374 . S
C1943 C1940 1.499 . S
C1943 C1944 1.373 . S
C1943 C1945 1.389 . S
C1944 H1917 0.950 . S
C1944 C1930 1.377 . S
C1944 C1943 1.373 . S
C1945 C1929 1.377 . S
C1945 C1943 1.389 . S
C1945 C1946 1.524 . S
C1946 C1945 1.524 . S
C1946 C1947 1.397 . S
C1946 C1951 1.363 . S
C1947 H1918 0.950 . S
C1947 C1946 1.397 . S
C1947 C1948 1.334 . S
C1948 H1919 0.950 . S
C1948 C1947 1.334 . S
C1948 C1949 1.287 . S
C1949 C1948 1.287 . S
C1949 C1950 1.524 . S
C1949 H1952 0.999 . S
C1950 H1920 0.950 . S
C1950 C1949 1.524 . S
C1950 C1951 1.415 . S
C1951 H1921 0.950 . S
C1951 C1946 1.363 . S
C1951 C1950 1.415 . S
H1952 C1949 0.999 . S
H1953 C1934 0.913 . S
H1954 C1972 0.951 . S
H1955 C1974 0.951 . S
H1956 C1976 0.950 . S
H1957 C1977 0.950 . S
H1958 C1979 0.950 . S
H1959 C1982 0.950 . S
H1960 C1983 0.950 . S
H1961 C1985 0.950 . S
H1962 C1986 0.950 . S
H1963 C1987 0.951 . S
H1964 C1989 0.951 . S
H1965 C1991 0.950 . S
H1966 C1992 0.950 . S
H1967 C1994 0.950 . S
H1968 C1997 0.950 . S
H1969 C1998 0.950 . S
H1970 C2000 0.950 . S
H1971 C2001 0.950 . S
C1972 H1954 0.951 . S
C1972 C1973 1.366 . S
C1972 C1974 1.388 . S
C1973 C1972 1.366 . S
C1973 C1977 1.385 . S
C1974 H1955 0.951 . S
C1974 C1972 1.388 . S
C1974 C1975 1.366 . S
C1975 C1974 1.366 . S
C1975 C1976 1.414 . S
C1975 C1978 1.499 . S
C1976 H1956 0.950 . S
C1976 C1975 1.414 . S
C1976 C1977 1.374 . S
C1977 H1957 0.950 . S
C1977 C1973 1.385 . S
C1977 C1976 1.374 . S
C1978 C1975 1.499 . S
C1978 C1979 1.373 . S
C1978 C1980 1.389 . S
C1979 H1958 0.950 . S
C1979 C1978 1.373 . S
C1979 C1995 1.377 . S
C1980 C1978 1.389 . S
C1980 C1981 1.524 . S
C1980 C1994 1.377 . S
C1981 C1980 1.524 . S
C1981 C1982 1.397 . S
C1981 C1986 1.363 . S
C1982 H1959 0.950 . S
C1982 C1981 1.397 . S
C1982 C1983 1.334 . S
C1983 H1960 0.950 . S
C1983 C1982 1.334 . S
C1983 C1984 1.287 . S
C1984 C1983 1.287 . S
C1984 C1985 1.524 . S
C1984 H2003 0.913 . S
C1985 H1961 0.950 . S
C1985 C1984 1.524 . S
C1985 C1986 1.415 . S
C1986 H1962 0.950 . S
C1986 C1981 1.363 . S
C1986 C1985 1.415 . S
C1987 H1963 0.951 . S
C1987 C1988 1.366 . S
C1987 C1989 1.388 . S
C1988 C1987 1.366 . S
C1988 C1992 1.385 . S
C1989 H1964 0.951 . S
C1989 C1987 1.388 . S
C1989 C1990 1.366 . S
C1990 C1989 1.366 . S
C1990 C1991 1.414 . S
C1990 C1993 1.499 . S
C1991 H1965 0.950 . S
C1991 C1990 1.414 . S
C1991 C1992 1.374 . S
C1992 H1966 0.950 . S
C1992 C1988 1.385 . S
C1992 C1991 1.374 . S
C1993 C1990 1.499 . S
C1993 C1994 1.373 . S
C1993 C1995 1.389 . S
C1994 H1967 0.950 . S
C1994 C1980 1.377 . S
C1994 C1993 1.373 . S
C1995 C1979 1.377 . S
C1995 C1993 1.389 . S
C1995 C1996 1.524 . S
C1996 C1995 1.524 . S
C1996 C1997 1.397 . S
C1996 C2001 1.363 . S
C1997 H1968 0.950 . S
C1997 C1996 1.397 . S
C1997 C1998 1.334 . S
C1998 H1969 0.950 . S
C1998 C1997 1.334 . S
C1998 C1999 1.287 . S
C1999 C1998 1.287 . S
C1999 C2000 1.524 . S
C1999 H2002 0.999 . S
C2000 H1970 0.950 . S
C2000 C1999 1.524 . S
C2000 C2001 1.415 . S
C2001 H1971 0.950 . S
C2001 C1996 1.363 . S
C2001 C2000 1.415 . S
H2002 C1999 0.999 . S
H2003 C1984 0.913 . S
H2004 C2022 0.951 . S
H2005 C2024 0.951 . S
H2006 C2026 0.950 . S
H2007 C2027 0.950 . S
H2008 C2029 0.950 . S
H2009 C2032 0.950 . S
H2010 C2033 0.950 . S
H2011 C2035 0.950 . S
H2012 C2036 0.950 . S
H2013 C2037 0.951 . S
H2014 C2039 0.951 . S
H2015 C2041 0.950 . S
H2016 C2042 0.950 . S
H2017 C2044 0.950 . S
H2018 C2047 0.950 . S
H2019 C2048 0.950 . S
H2020 C2050 0.950 . S
H2021 C2051 0.950 . S
C2022 H2004 0.951 . S
C2022 C2023 1.366 . S
C2022 C2024 1.388 . S
C2023 C2022 1.366 . S
C2023 C2027 1.385 . S
C2024 H2005 0.951 . S
C2024 C2022 1.388 . S
C2024 C2025 1.366 . S
C2025 C2024 1.366 . S
C2025 C2026 1.414 . S
C2025 C2028 1.499 . S
C2026 H2006 0.950 . S
C2026 C2025 1.414 . S
C2026 C2027 1.374 . S
C2027 H2007 0.950 . S
C2027 C2023 1.385 . S
C2027 C2026 1.374 . S
C2028 C2025 1.499 . S
C2028 C2029 1.373 . S
C2028 C2030 1.389 . S
C2029 H2008 0.950 . S
C2029 C2028 1.373 . S
C2029 C2045 1.377 . S
C2030 C2028 1.389 . S
C2030 C2031 1.524 . S
C2030 C2044 1.377 . S
C2031 C2030 1.524 . S
C2031 C2032 1.397 . S
C2031 C2036 1.363 . S
C2032 H2009 0.950 . S
C2032 C2031 1.397 . S
C2032 C2033 1.334 . S
C2033 H2010 0.950 . S
C2033 C2032 1.334 . S
C2033 C2034 1.287 . S
C2034 C2033 1.287 . S
C2034 C2035 1.524 . S
C2034 H2053 0.913 . S
C2035 H2011 0.950 . S
C2035 C2034 1.524 . S
C2035 C2036 1.415 . S
C2036 H2012 0.950 . S
C2036 C2031 1.363 . S
C2036 C2035 1.415 . S
C2037 H2013 0.951 . S
C2037 C2038 1.366 . S
C2037 C2039 1.388 . S
C2038 C2037 1.366 . S
C2038 C2042 1.385 . S
C2039 H2014 0.951 . S
C2039 C2037 1.388 . S
C2039 C2040 1.366 . S
C2040 C2039 1.366 . S
C2040 C2041 1.414 . S
C2040 C2043 1.499 . S
C2041 H2015 0.950 . S
C2041 C2040 1.414 . S
C2041 C2042 1.374 . S
C2042 H2016 0.950 . S
C2042 C2038 1.385 . S
C2042 C2041 1.374 . S
C2043 C2040 1.499 . S
C2043 C2044 1.373 . S
C2043 C2045 1.389 . S
C2044 H2017 0.950 . S
C2044 C2030 1.377 . S
C2044 C2043 1.373 . S
C2045 C2029 1.377 . S
C2045 C2043 1.389 . S
C2045 C2046 1.524 . S
C2046 C2045 1.524 . S
C2046 C2047 1.397 . S
C2046 C2051 1.363 . S
C2047 H2018 0.950 . S
C2047 C2046 1.397 . S
C2047 C2048 1.334 . S
C2048 H2019 0.950 . S
C2048 C2047 1.334 . S
C2048 C2049 1.287 . S
C2049 C2048 1.287 . S
C2049 C2050 1.524 . S
C2049 H2052 0.999 . S
C2050 H2020 0.950 . S
C2050 C2049 1.524 . S
C2050 C2051 1.415 . S
C2051 H2021 0.950 . S
C2051 C2046 1.363 . S
C2051 C2050 1.415 . S
H2052 C2049 0.999 . S
H2053 C2034 0.913 . S
H2054 C2072 0.951 . S
H2055 C2074 0.951 . S
H2056 C2076 0.950 . S
H2057 C2077 0.950 . S
H2058 C2079 0.950 . S
H2059 C2082 0.950 . S
H2060 C2083 0.950 . S
H2061 C2085 0.950 . S
H2062 C2086 0.950 . S
H2063 C2087 0.951 . S
H2064 C2089 0.951 . S
H2065 C2091 0.950 . S
H2066 C2092 0.950 . S
H2067 C2094 0.950 . S
H2068 C2097 0.950 . S
H2069 C2098 0.950 . S
H2070 C2100 0.950 . S
H2071 C2101 0.950 . S
C2072 H2054 0.951 . S
C2072 C2073 1.366 . S
C2072 C2074 1.388 . S
C2073 C2072 1.366 . S
C2073 C2077 1.385 . S
C2074 H2055 0.951 . S
C2074 C2072 1.388 . S
C2074 C2075 1.366 . S
C2075 C2074 1.366 . S
C2075 C2076 1.414 . S
C2075 C2078 1.499 . S
C2076 H2056 0.950 . S
C2076 C2075 1.414 . S
C2076 C2077 1.374 . S
C2077 H2057 0.950 . S
C2077 C2073 1.385 . S
C2077 C2076 1.374 . S
C2078 C2075 1.499 . S
C2078 C2079 1.373 . S
C2078 C2080 1.389 . S
C2079 H2058 0.950 . S
C2079 C2078 1.373 . S
C2079 C2095 1.377 . S
C2080 C2078 1.389 . S
C2080 C2081 1.524 . S
C2080 C2094 1.377 . S
C2081 C2080 1.524 . S
C2081 C2082 1.397 . S
C2081 C2086 1.363 . S
C2082 H2059 0.950 . S
C2082 C2081 1.397 . S
C2082 C2083 1.334 . S
C2083 H2060 0.950 . S
C2083 C2082 1.334 . S
C2083 C2084 1.287 . S
C2084 C2083 1.287 . S
C2084 C2085 1.524 . S
C2084 H2103 0.913 . S
C2085 H2061 0.950 . S
C2085 C2084 1.524 . S
C2085 C2086 1.415 . S
C2086 H2062 0.950 . S
C2086 C2081 1.363 . S
C2086 C2085 1.415 . S
C2087 H2063 0.951 . S
C2087 C2088 1.366 . S
C2087 C2089 1.388 . S
C2088 C2087 1.366 . S
C2088 C2092 1.385 . S
C2089 H2064 0.951 . S
C2089 C2087 1.388 . S
C2089 C2090 1.366 . S
C2090 C2089 1.366 . S
C2090 C2091 1.414 . S
C2090 C2093 1.499 . S
C2091 H2065 0.950 . S
C2091 C2090 1.414 . S
C2091 C2092 1.374 . S
C2092 H2066 0.950 . S
C2092 C2088 1.385 . S
C2092 C2091 1.374 . S
C2093 C2090 1.499 . S
C2093 C2094 1.373 . S
C2093 C2095 1.389 . S
C2094 H2067 0.950 . S
C2094 C2080 1.377 . S
C2094 C2093 1.373 . S
C2095 C2079 1.377 . S
C2095 C2093 1.389 . S
C2095 C2096 1.524 . S
C2096 C2095 1.524 . S
C2096 C2097 1.397 . S
C2096 C2101 1.363 . S
C2097 H2068 0.950 . S
C2097 C2096 1.397 . S
C2097 C2098 1.334 . S
C2098 H2069 0.950 . S
C2098 C2097 1.334 . S
C2098 C2099 1.287 . S
C2099 C2098 1.287 . S
C2099 C2100 1.524 . S
C2099 H2102 0.999 . S
C2100 H2070 0.950 . S
C2100 C2099 1.524 . S
C2100 C2101 1.415 . S
C2101 H2071 0.950 . S
C2101 C2096 1.363 . S
C2101 C2100 1.415 . S
H2102 C2099 0.999 . S
H2103 C2084 0.913 . S
H2104 C2122 0.951 . S
H2105 C2124 0.951 . S
H2106 C2126 0.950 . S
H2107 C2127 0.950 . S
H2108 C2129 0.950 . S
H2109 C2132 0.950 . S
H2110 C2133 0.950 . S
H2111 C2135 0.950 . S
H2112 C2136 0.950 . S
H2113 C2137 0.951 . S
H2114 C2139 0.951 . S
H2115 C2141 0.950 . S
H2116 C2142 0.950 . S
H2117 C2144 0.950 . S
H2118 C2147 0.950 . S
H2119 C2148 0.950 . S
H2120 C2150 0.950 . S
H2121 C2151 0.950 . S
C2122 H2104 0.951 . S
C2122 C2123 1.366 . S
C2122 C2124 1.388 . S
C2123 C2122 1.366 . S
C2123 C2127 1.385 . S
C2124 H2105 0.951 . S
C2124 C2122 1.388 . S
C2124 C2125 1.366 . S
C2125 C2124 1.366 . S
C2125 C2126 1.414 . S
C2125 C2128 1.499 . S
C2126 H2106 0.950 . S
C2126 C2125 1.414 . S
C2126 C2127 1.374 . S
C2127 H2107 0.950 . S
C2127 C2123 1.385 . S
C2127 C2126 1.374 . S
C2128 C2125 1.499 . S
C2128 C2129 1.373 . S
C2128 C2130 1.389 . S
C2129 H2108 0.950 . S
C2129 C2128 1.373 . S
C2129 C2145 1.377 . S
C2130 C2128 1.389 . S
C2130 C2131 1.524 . S
C2130 C2144 1.377 . S
C2131 C2130 1.524 . S
C2131 C2132 1.397 . S
C2131 C2136 1.363 . S
C2132 H2109 0.950 . S
C2132 C2131 1.397 . S
C2132 C2133 1.334 . S
C2133 H2110 0.950 . S
C2133 C2132 1.334 . S
C2133 C2134 1.287 . S
C2134 C2133 1.287 . S
C2134 C2135 1.524 . S
C2134 H2153 0.913 . S
C2135 H2111 0.950 . S
C2135 C2134 1.524 . S
C2135 C2136 1.415 . S
C2136 H2112 0.950 . S
C2136 C2131 1.363 . S
C2136 C2135 1.415 . S
C2137 H2113 0.951 . S
C2137 C2138 1.366 . S
C2137 C2139 1.388 . S
C2138 C2137 1.366 . S
C2138 C2142 1.385 . S
C2139 H2114 0.951 . S
C2139 C2137 1.388 . S
C2139 C2140 1.366 . S
C2140 C2139 1.366 . S
C2140 C2141 1.414 . S
C2140 C2143 1.499 . S
C2141 H2115 0.950 . S
C2141 C2140 1.414 . S
C2141 C2142 1.374 . S
C2142 H2116 0.950 . S
C2142 C2138 1.385 . S
C2142 C2141 1.374 . S
C2143 C2140 1.499 . S
C2143 C2144 1.373 . S
C2143 C2145 1.389 . S
C2144 H2117 0.950 . S
C2144 C2130 1.377 . S
C2144 C2143 1.373 . S
C2145 C2129 1.377 . S
C2145 C2143 1.389 . S
C2145 C2146 1.524 . S
C2146 C2145 1.524 . S
C2146 C2147 1.397 . S
C2146 C2151 1.363 . S
C2147 H2118 0.950 . S
C2147 C2146 1.397 . S
C2147 C2148 1.334 . S
C2148 H2119 0.950 . S
C2148 C2147 1.334 . S
C2148 C2149 1.287 . S
C2149 C2148 1.287 . S
C2149 C2150 1.524 . S
C2149 H2152 0.999 . S
C2150 H2120 0.950 . S
C2150 C2149 1.524 . S
C2150 C2151 1.415 . S
C2151 H2121 0.950 . S
C2151 C2146 1.363 . S
C2151 C2150 1.415 . S
H2152 C2149 0.999 . S
H2153 C2134 0.913 . S
H2154 C2172 0.951 . S
H2155 C2174 0.951 . S
H2156 C2176 0.950 . S
H2157 C2177 0.950 . S
H2158 C2179 0.950 . S
H2159 C2182 0.950 . S
H2160 C2183 0.950 . S
H2161 C2185 0.950 . S
H2162 C2186 0.950 . S
H2163 C2187 0.951 . S
H2164 C2189 0.951 . S
H2165 C2191 0.950 . S
H2166 C2192 0.950 . S
H2167 C2194 0.950 . S
H2168 C2197 0.950 . S
H2169 C2198 0.950 . S
H2170 C2200 0.950 . S
H2171 C2201 0.950 . S
C2172 H2154 0.951 . S
C2172 C2173 1.366 . S
C2172 C2174 1.388 . S
C2173 C2172 1.366 . S
C2173 C2177 1.385 . S
C2174 H2155 0.951 . S
C2174 C2172 1.388 . S
C2174 C2175 1.366 . S
C2175 C2174 1.366 . S
C2175 C2176 1.414 . S
C2175 C2178 1.499 . S
C2176 H2156 0.950 . S
C2176 C2175 1.414 . S
C2176 C2177 1.374 . S
C2177 H2157 0.950 . S
C2177 C2173 1.385 . S
C2177 C2176 1.374 . S
C2178 C2175 1.499 . S
C2178 C2179 1.373 . S
C2178 C2180 1.389 . S
C2179 H2158 0.950 . S
C2179 C2178 1.373 . S
C2179 C2195 1.377 . S
C2180 C2178 1.389 . S
C2180 C2181 1.524 . S
C2180 C2194 1.377 . S
C2181 C2180 1.524 . S
C2181 C2182 1.397 . S
C2181 C2186 1.363 . S
C2182 H2159 0.950 . S
C2182 C2181 1.397 . S
C2182 C2183 1.334 . S
C2183 H2160 0.950 . S
C2183 C2182 1.334 . S
C2183 C2184 1.287 . S
C2184 C2183 1.287 . S
C2184 C2185 1.524 . S
C2184 H2203 0.913 . S
C2185 H2161 0.950 . S
C2185 C2184 1.524 . S
C2185 C2186 1.415 . S
C2186 H2162 0.950 . S
C2186 C2181 1.363 . S
C2186 C2185 1.415 . S
C2187 H2163 0.951 . S
C2187 C2188 1.366 . S
C2187 C2189 1.388 . S
C2188 C2187 1.366 . S
C2188 C2192 1.385 . S
C2189 H2164 0.951 . S
C2189 C2187 1.388 . S
C2189 C2190 1.366 . S
C2190 C2189 1.366 . S
C2190 C2191 1.414 . S
C2190 C2193 1.499 . S
C2191 H2165 0.950 . S
C2191 C2190 1.414 . S
C2191 C2192 1.374 . S
C2192 H2166 0.950 . S
C2192 C2188 1.385 . S
C2192 C2191 1.374 . S
C2193 C2190 1.499 . S
C2193 C2194 1.373 . S
C2193 C2195 1.389 . S
C2194 H2167 0.950 . S
C2194 C2180 1.377 . S
C2194 C2193 1.373 . S
C2195 C2179 1.377 . S
C2195 C2193 1.389 . S
C2195 C2196 1.524 . S
C2196 C2195 1.524 . S
C2196 C2197 1.397 . S
C2196 C2201 1.363 . S
C2197 H2168 0.950 . S
C2197 C2196 1.397 . S
C2197 C2198 1.334 . S
C2198 H2169 0.950 . S
C2198 C2197 1.334 . S
C2198 C2199 1.287 . S
C2199 C2198 1.287 . S
C2199 C2200 1.524 . S
C2199 H2202 0.999 . S
C2200 H2170 0.950 . S
C2200 C2199 1.524 . S
C2200 C2201 1.415 . S
C2201 H2171 0.950 . S
C2201 C2196 1.363 . S
C2201 C2200 1.415 . S
H2202 C2199 0.999 . S
H2203 C2184 0.913 . S
C1038 C331 0.953 . S
C1023 C15 1.603 . S
C1088 C463 1.242 . S
C1073 C55 1.505 . S
C1138 C349 1.296 . S
C1123 C101 1.531 . S
C1188 C445 0.941 . S
C1173 C141 1.566 . S
C1238 C577 1.229 . S
C1223 C2 1.503 . S
C1288 C691 1.302 . S
C1273 C61 1.547 . S
C1323 C95 1.621 . S
C1338 C831 1.242 . S
C1388 C945 1.151 . S
C1373 C135 1.539 . S
C1438 C559 0.896 . S
C1423 C42 1.443 . S
C1473 C82 1.627 . S
C1488 C673 0.987 . S
C1538 C777 1.211 . S
C1523 C122 1.564 . S
C1588 C891 1.079 . S
C1573 C21 1.385 . S
C1623 C162 1.517 . S
C1638 C489 1.127 . S
C1688 C321 1.094 . S
C1673 C221 1.418 . S
C1723 C255 1.366 . S
C1738 C435 1.051 . S
C1773 C282 1.544 . S
C1788 C375 1.140 . S
C1838 C787 1.008 . S
C1823 C181 1.601 . S
C1888 C901 1.065 . S
C1873 C202 1.552 . S
C1938 C549 0.993 . S
C1923 C242 1.289 . S
C1973 C301 1.520 . S
C1988 C663 1.218 . S
C2038 C805 1.211 . S
C2023 C215 1.465 . S
C2088 C919 1.145 . S
C2073 C261 1.475 . S
C2138 C603 1.175 . S
C2123 C295 1.564 . S
C2173 C175 1.652 . S
C2188 C717 1.172 . S
