# Generated by pormake.
# Topology rtl, (3,6)-cn, num edge types: 1
# Building blocks:
#     Node 0, Type 0, BuildingBlock: PAMTOO_clean_linker_0, # of connection points: 3
#     Node 1, Type 0, BuildingBlock: PAMTOO_clean_linker_0, # of connection points: 3
#     Node 2, Type 0, BuildingBlock: PAMTOO_clean_linker_0, # of connection points: 3
#     Node 3, Type 0, BuildingBlock: PAMTOO_clean_linker_0, # of connection points: 3
#     Node 4, Type 1, BuildingBlock: KUMBOL_clean_sbu_1, # of connection points: 6
#     Node 5, Type 1, BuildingBlock: KUMBOL_clean_sbu_1, # of connection points: 6
#     Edge 6, Type (0, 1), BuildingBlock: TEMPAE_clean_linker_10, # of connection points: 2
#     Edge 7, Type (0, 1), BuildingBlock: TEMPAE_clean_linker_10, # of connection points: 2
#     Edge 8, Type (0, 1), BuildingBlock: TEMPAE_clean_linker_10, # of connection points: 2
#     Edge 9, Type (0, 1), BuildingBlock: TEMPAE_clean_linker_10, # of connection points: 2
#     Edge 10, Type (0, 1), BuildingBlock: TEMPAE_clean_linker_10, # of connection points: 2
#     Edge 11, Type (0, 1), BuildingBlock: TEMPAE_clean_linker_10, # of connection points: 2
#     Edge 12, Type (0, 1), BuildingBlock: TEMPAE_clean_linker_10, # of connection points: 2
#     Edge 13, Type (0, 1), BuildingBlock: TEMPAE_clean_linker_10, # of connection points: 2
#     Edge 14, Type (0, 1), BuildingBlock: TEMPAE_clean_linker_10, # of connection points: 2
#     Edge 15, Type (0, 1), BuildingBlock: TEMPAE_clean_linker_10, # of connection points: 2
#     Edge 16, Type (0, 1), BuildingBlock: TEMPAE_clean_linker_10, # of connection points: 2
#     Edge 17, Type (0, 1), BuildingBlock: TEMPAE_clean_linker_10, # of connection points: 2
# Relax obj value: 0.052
# Max RMSD: 0.218
# Mean RMSD: 0.163
data_MOF--net-rtl--node1-KUMBOL_clean_sbu_1--node2-PAMTOO_clean_linker_0--edge1-TEMPAE_clean_linker_10
_symmetry_space_group_name_H-M    P1
_symmetry_Int_Tables_number       1
_symmetry_cell_setting            triclinic
loop_
_symmetry_equiv_pos_as_xyz
'x, y, z'
_cell_length_a     35.59421
_cell_length_b     35.910474
_cell_length_c     27.545368
_cell_angle_alpha  79.339026
_cell_angle_beta   99.189478
_cell_angle_gamma 91.287604
loop_
_atom_site_label
_atom_site_type_symbol
_atom_site_fract_x
_atom_site_fract_y
_atom_site_fract_z
_atom_type_partial_charge
H0 H 0.15816 0.88884 0.00439 0.0
H1 H 0.23516 0.80579 0.09921 0.0
H2 H 0.22512 0.81819 0.93965 0.0
H3 H 0.22617 0.74048 1.00157 0.0
C4 C 0.25075 0.74434 0.03073 0.0
O5 O 0.26025 0.78224 0.02532 0.0
H6 H 0.24235 0.73467 0.06819 0.0
C7 C 0.1787 0.86624 0.00827 0.0
C8 C 0.18906 0.85583 0.96547 0.0
C9 C 0.19438 0.8479 0.05646 0.0
C10 C 0.22266 0.82015 0.0622 0.0
C11 C 0.23376 0.80973 0.01988 0.0
C12 C 0.21691 0.82738 0.97178 0.0
H13 H 0.64777 0.64214 0.64387 0.0
H14 H 0.72836 0.71567 0.57421 0.0
H15 H 0.72338 0.7098 0.73018 0.0
H16 H 0.74086 0.78907 0.68015 0.0
C17 C 0.74787 0.78134 0.64536 0.0
O18 O 0.75577 0.74292 0.65414 0.0
H19 H 0.72279 0.78821 0.6153 0.0
C20 C 0.67096 0.66208 0.64693 0.0
C21 C 0.68391 0.67307 0.6931 0.0
C22 C 0.68722 0.67644 0.60421 0.0
C23 C 0.7155 0.70416 0.60684 0.0
C24 C 0.728 0.71658 0.65204 0.0
C25 C 0.71255 0.7008 0.6952 0.0
H26 H 0.87562 0.14127 0.08128 0.0
H27 H 0.79683 0.22418 0.98998 0.0
H28 H 0.8074 0.20823 0.14975 0.0
H29 H 0.72897 0.21085 0.09265 0.0
C30 C 0.7328 0.23507 0.06219 0.0
O31 O 0.77087 0.24441 0.06549 0.0
H32 H 0.7229 0.22645 0.02553 0.0
C33 C 0.85479 0.16338 0.07864 0.0
C34 C 0.84428 0.17228 0.12226 0.0
C35 C 0.83863 0.18245 0.03103 0.0
C36 C 0.80979 0.20941 0.02656 0.0
C37 C 0.79826 0.21803 0.06961 0.0
C38 C 0.81583 0.20002 0.11714 0.0
H39 H 0.38279 0.37443 0.44311 0.0
H40 H 0.30799 0.29626 0.51736 0.0
H41 H 0.30825 0.30404 0.35986 0.0
H42 H 0.23035 0.28907 0.39252 0.0
C43 C 0.24065 0.27677 0.43244 0.0
O44 O 0.27915 0.26892 0.43797 0.0
H45 H 0.23568 0.2979 0.4557 0.0
C46 C 0.36057 0.35336 0.44126 0.0
C47 C 0.34702 0.34206 0.39548 0.0
C48 C 0.34623 0.33782 0.48509 0.0
C49 C 0.31933 0.30872 0.48383 0.0
C50 C 0.30574 0.29651 0.43873 0.0
C51 C 0.31947 0.31322 0.3946 0.0
C52 C 0.93874 0.11372 0.49859 0.0
C53 C 0.87583 0.08989 0.47279 0.0
C54 C 0.91277 0.08417 0.5007 0.0
C55 C 0.86596 0.12498 0.44161 0.0
C56 C 0.92876 0.14916 0.46782 0.0
C57 C 0.89234 0.15452 0.4391 0.0
N58 N 0.97419 0.10744 0.52561 0.0
C59 C 1.00059 0.13556 0.52492 0.0
C60 C 0.95591 0.17802 0.46635 0.0
C61 C 0.99196 0.17119 0.4951 0.0
Gd62 Gd 0.03728 0.97245 0.51278 0.0
Gd63 Gd 0.98625 0.04711 0.57473 0.0
N64 N 0.92317 0.05037 0.53118 0.0
C65 C 0.84945 0.06057 0.47824 0.0
C66 C 0.89616 0.02353 0.54058 0.0
C67 C 0.85943 0.02757 0.51315 0.0
H68 H 0.90191 0.99972 0.5707 0.0
H69 H 0.83852 0.00566 0.52002 0.0
H70 H 0.12291 0.00771 0.55516 0.0
H71 H 0.02816 0.13054 0.54774 0.0
H72 H 0.18132 0.98523 0.61252 0.0
H73 H 0.82082 0.06384 0.45746 0.0
H74 H 0.83776 0.12974 0.41986 0.0
H75 H 0.98176 0.89627 0.50792 0.0
H76 H 0.94935 0.2056 0.44307 0.0
H77 H 0.01307 0.19337 0.4944 0.0
H78 H 0.16017 0.85267 0.66593 0.0
H79 H 0.88425 0.18145 0.41496 0.0
H80 H 0.04077 0.80086 0.60369 0.0
H81 H 0.98343 0.82836 0.54627 0.0
N82 N 0.03668 0.90737 0.54517 0.0
C83 C 0.06886 0.8927 0.57561 0.0
C84 C 1.00646 0.88473 0.53395 0.0
C85 C 0.04004 0.83074 0.58729 0.0
C86 C 0.00756 0.84618 0.55506 0.0
C87 C 0.07127 0.85398 0.59782 0.0
H88 H 0.10677 0.81014 0.6477 0.0
N89 N 0.09528 0.95436 0.56553 0.0
C90 C 0.09911 0.91678 0.58583 0.0
C91 C 0.162 0.92768 0.62863 0.0
C92 C 0.13239 0.90258 0.61852 0.0
C93 C 0.12475 0.97858 0.57357 0.0
C94 C 0.15827 0.96575 0.60569 0.0
O95 O 0.99063 0.0602 0.49233 0.0
O96 O 0.98409 1.00235 0.46852 0.0
O97 O 0.07393 0.98539 0.45618 0.0
O98 O 0.03766 0.93622 0.45786 0.0
O99 O 0.96938 0.98503 0.58838 0.0
O100 O 0.97448 0.96482 0.51499 0.0
O101 O 0.03945 0.96052 0.59651 0.0
O102 O 0.03935 0.01837 0.62129 0.0
O103 O 0.952 0.04297 0.63394 0.0
O104 O 0.99136 0.08911 0.62305 0.0
O105 O 0.06079 0.03232 0.50566 0.0
O106 O 0.04861 0.0591 0.57237 0.0
C107 C 0.97894 0.03921 0.45878 0.0
C108 C 0.96009 0.96163 0.55671 0.0
C109 C 0.05296 0.96533 0.37988 0.0
C110 C 0.06702 0.95623 0.29908 0.0
C111 C 0.0145 0.99714 0.3035 0.0
C112 C 0.02278 0.98965 0.35563 0.0
C113 C 0.03646 0.98062 0.27527 0.0
C114 C 0.075 0.94871 0.35165 0.0
C115 C 0.06197 0.95702 0.43457 0.0
C116 C 0.1349 0.864 0.64053 0.0
C117 C 0.10447 0.83978 0.63016 0.0
H118 H 0.18795 0.91791 0.65369 0.0
C119 C 0.04855 0.98227 0.62987 0.0
C120 C 0.06759 0.05762 0.53527 0.0
C121 C 0.97871 0.06739 0.70487 0.0
C122 C 0.96652 0.0786 0.78564 0.0
C123 C 0.02036 0.03954 0.78082 0.0
C124 C 0.0104 0.045 0.7289 0.0
C125 C 0.99859 0.05617 0.80912 0.0
C126 C 0.95689 0.08418 0.73323 0.0
C127 C 0.96722 0.07237 0.6505 0.0
H128 H 0.99092 0.01565 0.28495 0.0
H129 H 1.00577 1.00271 0.37706 0.0
H130 H 0.02921 0.98652 0.23488 0.0
H131 H 0.09863 0.93028 0.37069 0.0
H132 H 0.04495 0.02228 0.79916 0.0
H133 H 0.02717 0.03164 0.70753 0.0
H134 H 0.00702 0.05175 0.84934 0.0
H135 H 0.93198 0.10092 0.71454 0.0
C136 C 0.62889 0.56426 0.06316 0.0
C137 C 0.61812 0.62878 0.01765 0.0
C138 C 0.60428 0.59486 0.04334 0.0
C139 C 0.65669 0.6315 0.01214 0.0
C140 C 0.66759 0.56687 0.0574 0.0
C141 C 0.68136 0.60069 0.03207 0.0
N142 N 0.61463 0.5314 0.08611 0.0
C143 C 0.63751 0.5005 0.10526 0.0
C144 C 0.69117 0.53511 0.07643 0.0
C145 C 0.67606 0.50181 0.10052 0.0
Gd146 Gd 0.47418 0.49081 0.99139 0.0
Gd147 Gd 0.54997 0.53218 0.09255 0.0
N148 N 0.56675 0.59113 0.04804 0.0
C149 C 0.59277 0.65903 0.99819 0.0
C150 C 0.54257 0.62142 0.03188 0.0
C151 C 0.55497 0.65547 0.00591 0.0
H152 H 0.51403 0.62018 0.03994 0.0
H153 H 0.53545 0.67917 0.99251 0.0
H154 H 0.50072 0.40265 0.05281 0.0
H155 H 0.62618 0.47505 0.12498 0.0
H156 H 0.47121 0.34624 0.09625 0.0
H157 H 0.60227 0.68548 0.97806 0.0
H158 H 0.66772 0.6573 0.99239 0.0
H159 H 0.40359 0.55373 0.94484 0.0
H160 H 0.72102 0.53598 0.07262 0.0
H161 H 0.69411 0.47719 0.11562 0.0
H162 H 0.33912 0.3798 0.07501 0.0
H163 H 0.71097 0.60317 0.02716 0.0
H164 H 0.30017 0.5041 0.98633 0.0
H165 H 0.33449 0.55857 0.94509 0.0
N166 N 0.40852 0.49799 0.9877 0.0
C167 C 0.39012 0.4673 0.0094 0.0
C168 C 0.38902 0.53026 0.96414 0.0
C169 C 0.33054 0.50197 0.98675 0.0
C170 C 0.34983 0.53286 0.96364 0.0
C171 C 0.3506 0.46858 0.00977 0.0
H172 H 0.30211 0.43725 0.03411 0.0
N173 N 0.44947 0.43498 0.03348 0.0
C174 C 0.41107 0.43475 0.03248 0.0
C175 C 0.41497 0.37089 0.08009 0.0
C176 C 0.3929 0.40284 0.05642 0.0
C177 C 0.47083 0.40335 0.05465 0.0
C178 C 0.45403 0.37106 0.07883 0.0
O179 O 0.5651 0.53045 0.016 0.0
O180 O 0.50855 0.54141 0.96243 0.0
O181 O 0.48681 0.45321 0.94284 0.0
O182 O 0.44088 0.49411 0.91745 0.0
O183 O 0.48977 0.55575 0.07437 0.0
O184 O 0.47142 0.55335 0.99102 0.0
O185 O 0.45943 0.48709 0.06926 0.0
O186 O 0.51608 0.48199 0.12407 0.0
O187 O 0.5436 0.57005 0.14354 0.0
O188 O 0.58581 0.52526 0.16535 0.0
O189 O 0.53255 0.46322 0.01416 0.0
O190 O 0.55521 0.46924 0.09603 0.0
C191 C 0.54581 0.54386 0.97167 0.0
C192 C 0.46728 0.56642 0.03136 0.0
C193 C 0.47153 0.47551 0.85615 0.0
C194 C 0.46398 0.46173 0.77171 0.0
C195 C 0.50829 0.51018 0.79601 0.0
C196 C 0.49864 0.50306 0.84401 0.0
C197 C 0.49114 0.4897 0.75999 0.0
C198 C 0.4544 0.45486 0.82017 0.0
C199 C 0.46056 0.46782 0.90605 0.0
C200 C 0.35351 0.40399 0.0566 0.0
C201 C 0.33243 0.43674 0.03335 0.0
H202 H 0.40211 0.34589 0.09911 0.0
C203 C 0.47924 0.47636 0.11406 0.0
C204 C 0.55507 0.45251 0.05726 0.0
C205 C 0.5587 0.54472 0.22919 0.0
C206 C 0.56719 0.55748 0.31421 0.0
C207 C 0.51995 0.51195 0.28828 0.0
C208 C 0.52989 0.51886 0.24043 0.0
C209 C 0.53844 0.53108 0.32503 0.0
C210 C 0.57719 0.564 0.26596 0.0
C211 C 0.56926 0.55265 0.17902 0.0
H212 H 0.52895 0.53177 0.78661 0.0
H213 H 0.51218 0.51893 0.87161 0.0
H214 H 0.49872 0.49614 0.72281 0.0
H215 H 0.43387 0.43317 0.83018 0.0
H216 H 0.49786 0.49174 0.29689 0.0
H217 H 0.51505 0.50428 0.21217 0.0
H218 H 0.53047 0.52496 0.36201 0.0
H219 H 0.59889 0.58456 0.25662 0.0
C220 C 0.23427 0.21001 0.48223 0.0
C221 C 0.21783 0.24171 0.44829 0.0
C222 C 0.21204 0.17857 0.49834 0.0
C223 C 0.17229 0.17921 0.48118 0.0
C224 C 0.15551 0.21145 0.44774 0.0
C225 C 0.17845 0.2422 0.43177 0.0
C226 C 0.23106 0.14466 0.53374 0.0
C227 C 0.11319 0.21359 0.42904 0.0
C228 C 0.11487 0.08843 0.48202 0.0
C229 C 0.09685 0.087 0.52416 0.0
C230 C 0.14046 0.11748 0.46869 0.0
C231 C 0.14806 0.14622 0.49777 0.0
C232 C 0.13091 0.14438 0.54117 0.0
C233 C 0.10593 0.11459 0.55417 0.0
C234 C 0.15857 0.11796 0.4226 0.0
C235 C 0.13793 0.17461 0.57298 0.0
H236 H 0.2645 0.20971 0.49629 0.0
H237 H 0.16553 0.267 0.40651 0.0
H238 H 0.21892 0.13979 0.56903 0.0
H239 H 0.22551 0.11886 0.51698 0.0
H240 H 0.26232 0.14824 0.54286 0.0
H241 H 0.10447 0.24095 0.40391 0.0
H242 H 0.1046 0.19023 0.40839 0.0
H243 H 0.09733 0.20998 0.46115 0.0
H244 H 0.10853 0.06717 0.45869 0.0
H245 H 0.09283 0.11348 0.58731 0.0
H246 H 0.18993 0.12044 0.43177 0.0
H247 H 0.14825 0.14303 0.39385 0.0
H248 H 0.15201 0.09208 0.4062 0.0
H249 H 0.16891 0.17777 0.58503 0.0
H250 H 0.12384 0.16822 0.60674 0.0
H251 H 0.12706 0.20228 0.55062 0.0
C252 C 0.27673 0.6852 0.01124 0.0
C253 C 0.28388 0.72024 0.02628 0.0
C254 C 0.30664 0.66068 0.01014 0.0
C255 C 0.34471 0.67148 0.02445 0.0
C256 C 0.35217 0.70692 0.0395 0.0
C257 C 0.32166 0.73065 0.04092 0.0
C258 C 0.29747 0.62296 0.9944 0.0
C259 C 0.39238 0.71946 0.05495 0.0
C260 C 0.41936 0.59377 0.07168 0.0
C261 C 0.43638 0.59373 0.0292 0.0
C262 C 0.38943 0.61882 0.07053 0.0
C263 C 0.3766 0.6449 0.02599 0.0
C264 C 0.39401 0.64526 0.9831 0.0
C265 C 0.42363 0.61951 0.98516 0.0
C266 C 0.37125 0.61705 0.11683 0.0
C267 C 0.38138 0.67288 0.93512 0.0
H268 H 0.24754 0.67674 1.00095 0.0
H269 H 0.32741 0.75725 0.05383 0.0
H270 H 0.3101 0.62146 0.96052 0.0
H271 H 0.31017 0.59953 0.02428 0.0
H272 H 0.26633 0.61824 0.98607 0.0
H273 H 0.39348 0.74876 0.06276 0.0
H274 H 0.40589 0.7 0.08906 0.0
H275 H 0.40961 0.71814 0.02509 0.0
H276 H 0.42899 0.57362 0.10568 0.0
H277 H 0.43703 0.61969 0.95242 0.0
H278 H 0.34048 0.61083 0.10833 0.0
H279 H 0.37366 0.64488 0.12902 0.0
H280 H 0.38452 0.59503 0.14836 0.0
H281 H 0.35101 0.6682 0.92099 0.0
H282 H 0.39845 0.67013 0.90552 0.0
H283 H 0.38383 0.70234 0.9422 0.0
C284 C 0.77556 0.84449 0.61449 0.0
C285 C 0.78108 0.80527 0.62966 0.0
C286 C 0.80542 0.86846 0.60112 0.0
C287 C 0.84194 0.8529 0.60296 0.0
C288 C 0.84774 0.81324 0.61784 0.0
C289 C 0.81733 0.78989 0.6313 0.0
C290 C 0.79801 0.91059 0.58582 0.0
C291 C 0.88624 0.79558 0.62022 0.0
C292 C 0.91017 0.9154 0.53067 0.0
C293 C 0.93174 0.93167 0.56852 0.0
C294 C 0.88161 0.88884 0.54151 0.0
C295 C 0.87426 0.87849 0.5913 0.0
C296 C 0.89654 0.89425 0.62976 0.0
C297 C 0.92496 0.92056 0.61792 0.0
C298 C 0.85859 0.87263 0.49945 0.0
C299 C 0.88969 0.88411 0.68332 0.0
H300 H 0.7477 0.85647 0.61356 0.0
H301 H 0.82214 0.75968 0.64332 0.0
H302 H 0.81611 0.92584 0.61236 0.0
H303 H 0.80575 0.92096 0.54822 0.0
H304 H 0.76777 0.91808 0.58493 0.0
H305 H 0.88569 0.76417 0.63009 0.0
H306 H 0.89636 0.80374 0.58367 0.0
H307 H 0.9073 0.80635 0.64852 0.0
H308 H 0.91497 0.92412 0.49234 0.0
H309 H 0.94162 0.93285 0.64746 0.0
H310 H 0.82854 0.88217 0.49417 0.0
H311 H 0.85874 0.84122 0.50891 0.0
H312 H 0.86957 0.88143 0.46352 0.0
H313 H 0.86072 0.89348 0.68602 0.0
H314 H 0.91068 0.89743 0.70919 0.0
H315 H 0.89112 0.85294 0.69603 0.0
C316 C 0.66999 0.26129 0.07062 0.0
C317 C 0.7084 0.26793 0.06648 0.0
C318 C 0.64542 0.29095 0.07207 0.0
C319 C 0.6596 0.32831 0.06927 0.0
C320 C 0.69851 0.33521 0.06583 0.0
C321 C 0.72242 0.30501 0.06407 0.0
C322 C 0.60405 0.28246 0.07528 0.0
C323 C 0.71468 0.37467 0.06284 0.0
C324 C 0.58899 0.40903 0.01745 0.0
C325 C 0.58191 0.42069 0.06107 0.0
C326 C 0.61432 0.37921 0.01969 0.0
C327 C 0.63315 0.36044 0.06673 0.0
C328 C 0.62622 0.37202 0.11097 0.0
C329 C 0.60057 0.40195 0.10763 0.0
C330 C 0.62086 0.36774 0.9716 0.0
C331 C 0.64578 0.35269 0.1618 0.0
H332 H 0.65906 0.23274 0.07199 0.0
H333 H 0.75194 0.31066 0.06033 0.0
H334 H 0.59571 0.2931 0.10739 0.0
H335 H 0.58592 0.29735 0.04092 0.0
H336 H 0.59793 0.25165 0.07959 0.0
H337 H 0.74599 0.37494 0.06374 0.0
H338 H 0.70123 0.39304 0.02771 0.0
H339 H 0.70812 0.38735 0.09435 0.0
H340 H 0.57489 0.42339 0.98122 0.0
H341 H 0.59501 0.41054 0.14154 0.0
H342 H 0.61297 0.33763 0.97204 0.0
H343 H 0.65147 0.37028 0.9681 0.0
H344 H 0.60411 0.38536 0.93805 0.0
H345 H 0.63824 0.32222 0.16826 0.0
H346 H 0.63788 0.36553 0.19252 0.0
H347 H 0.67712 0.35431 0.16345 0.0
C348 C 0.20333 0.86902 0.13947 0.0
C349 C 0.17924 0.85728 0.09981 0.0
C350 C 0.18816 0.88299 0.1768 0.0
C351 C 0.14813 0.88491 0.17425 0.0
C352 C 0.12391 0.8711 0.13567 0.0
C353 C 0.13977 0.85751 0.09895 0.0
C354 C 0.21484 0.89735 0.2175 0.0
C355 C 0.08111 0.87228 0.13178 0.0
C356 C 0.10057 0.89999 0.28315 0.0
C357 C 0.09026 0.93844 0.26914 0.0
C358 C 0.12092 0.88244 0.25377 0.0
C359 C 0.1311 0.90385 0.20932 0.0
C360 C 0.12183 0.94295 0.19587 0.0
C361 C 0.10153 0.95974 0.22592 0.0
C362 C 0.13018 0.84069 0.26926 0.0
C363 C 0.13226 0.96679 0.14879 0.0
H364 H 0.23384 0.86891 0.14001 0.0
H365 H 0.12119 0.84795 0.06853 0.0
H366 H 0.21196 0.92859 0.21235 0.0
H367 H 0.20734 0.88522 0.25475 0.0
H368 H 0.24503 0.89029 0.21728 0.0
H369 H 0.06646 0.85793 0.10164 0.0
H370 H 0.07239 0.85856 0.16773 0.0
H371 H 0.07117 0.90218 0.12393 0.0
H372 H 0.0917 0.88327 0.3163 0.0
H373 H 0.09424 0.98961 0.2154 0.0
H374 H 0.16069 0.83552 0.2686 0.0
H375 H 0.11335 0.82491 0.24227 0.0
H376 H 0.12376 0.829 0.30727 0.0
H377 H 0.16311 0.96395 0.14795 0.0
H378 H 0.12535 0.99726 0.14548 0.0
H379 H 0.11664 0.95663 0.11557 0.0
C380 C 0.66053 0.67522 0.77477 0.0
C381 C 0.66735 0.65471 0.73824 0.0
C382 C 0.64219 0.65832 0.815 0.0
C383 C 0.62952 0.62037 0.81806 0.0
C384 C 0.6371 0.59934 0.78205 0.0
C385 C 0.65656 0.61643 0.74345 0.0
C386 C 0.63586 0.68115 0.85385 0.0
C387 C 0.62379 0.55894 0.78348 0.0
C388 C 0.60665 0.55997 0.93808 0.0
C389 C 0.56694 0.56378 0.93225 0.0
C390 C 0.62751 0.57963 0.90241 0.0
C391 C 0.60808 0.60239 0.85852 0.0
C392 C 0.5679 0.60577 0.8518 0.0
C393 C 0.54788 0.58694 0.88913 0.0
C394 C 0.67036 0.57593 0.9117 0.0
C395 C 0.54595 0.62848 0.80459 0.0
H396 H 0.66865 0.70474 0.77135 0.0
H397 H 0.66286 0.5997 0.71676 0.0
H398 H 0.60493 0.68551 0.85245 0.0
H399 H 0.64711 0.66547 0.89186 0.0
H400 H 0.64976 0.70929 0.84824 0.0
H401 H 0.63167 0.54659 0.75234 0.0
H402 H 0.63613 0.54087 0.8194 0.0
H403 H 0.59241 0.55792 0.78111 0.0
H404 H 0.62159 0.54141 0.97057 0.0
H405 H 0.51721 0.59002 0.88421 0.0
H406 H 0.68326 0.60426 0.91264 0.0
H407 H 0.6803 0.56499 0.88082 0.0
H408 H 0.68109 0.55671 0.94749 0.0
H409 H 0.5561 0.65815 0.79897 0.0
H410 H 0.51484 0.62865 0.80537 0.0
H411 H 0.55095 0.61644 0.77183 0.0
C412 C 0.90179 0.14114 0.17925 0.0
C413 C 0.86355 0.15282 0.17251 0.0
C414 C 0.91995 0.12118 0.22527 0.0
C415 C 0.90014 0.11417 0.26657 0.0
C416 C 0.86198 0.12669 0.26075 0.0
C417 C 0.84397 0.14534 0.21367 0.0
C418 C 0.96037 0.10743 0.22956 0.0
C419 C 0.8405 0.12141 0.30453 0.0
C420 C 0.93633 0.03706 0.37762 0.0
C421 C 0.95917 0.05789 0.40918 0.0
C422 C 0.91718 0.05494 0.33081 0.0
C423 C 0.91993 0.09472 0.31611 0.0
C424 C 0.94268 0.11588 0.34805 0.0
C425 C 0.96271 0.09707 0.39359 0.0
C426 C 0.89423 0.03128 0.29695 0.0
C427 C 0.94562 0.15845 0.33436 0.0
H428 H 0.91789 0.14769 0.14859 0.0
H429 H 0.81442 0.15378 0.20921 0.0
H430 H 0.97942 0.12021 0.25791 0.0
H431 H 0.96173 0.07627 0.24233 0.0
H432 H 0.97146 0.11435 0.19349 0.0
H433 H 0.80968 0.12793 0.29264 0.0
H434 H 0.84379 0.09204 0.32609 0.0
H435 H 0.85249 0.1407 0.33011 0.0
H436 H 0.93356 0.00674 0.38939 0.0
H437 H 0.98112 0.11321 0.41715 0.0
H438 H 0.90472 0.03555 0.26048 0.0
H439 H 0.86397 0.04044 0.28931 0.0
H440 H 0.89579 1.00057 0.31339 0.0
H441 H 0.95569 0.16661 0.29781 0.0
H442 H 0.96533 0.17057 0.36282 0.0
H443 H 0.91705 0.17146 0.33041 0.0
C444 C 0.36146 0.39284 0.52812 0.0
C445 C 0.35903 0.35345 0.53121 0.0
C446 C 0.37697 0.40865 0.56963 0.0
C447 C 0.39018 0.3845 0.61564 0.0
C448 C 0.38635 0.34472 0.6197 0.0
C449 C 0.37075 0.3296 0.57732 0.0
C450 C 0.38032 0.45122 0.56373 0.0
C451 C 0.39987 0.31814 0.66831 0.0
C452 C 0.46664 0.42722 0.70102 0.0
C453 C 0.44538 0.44006 0.73344 0.0
C454 C 0.4492 0.40794 0.66358 0.0
C455 C 0.40954 0.40119 0.65852 0.0
C456 C 0.38807 0.41312 0.69197 0.0
C457 C 0.40622 0.43253 0.72891 0.0
C458 C 0.47306 0.39571 0.62855 0.0
C459 C 0.34573 0.40648 0.68772 0.0
H460 H 0.35173 0.4114 0.49274 0.0
H461 H 0.36897 0.29915 0.5798 0.0
H462 H 0.36641 0.46155 0.59206 0.0
H463 H 0.41077 0.45918 0.57013 0.0
H464 H 0.36722 0.46604 0.52596 0.0
H465 H 0.39225 0.28823 0.66634 0.0
H466 H 0.43125 0.31998 0.67788 0.0
H467 H 0.38743 0.32652 0.69919 0.0
H468 H 0.49701 0.43233 0.70485 0.0
H469 H 0.38948 0.4427 0.75344 0.0
H470 H 0.4636 0.41117 0.58988 0.0
H471 H 0.46921 0.36503 0.62806 0.0
H472 H 0.50384 0.40118 0.63922 0.0
H473 H 0.33099 0.42339 0.65222 0.0
H474 H 0.33379 0.41448 0.71927 0.0
H475 H 0.33932 0.37624 0.68666 0.0
C476 C 0.66489 0.68535 0.51145 0.0
C477 C 0.67475 0.66117 0.55774 0.0
C478 C 0.6493 0.6708 0.46861 0.0
C479 C 0.6436 0.63124 0.47239 0.0
C480 C 0.65503 0.60667 0.51863 0.0
C481 C 0.67054 0.62193 0.56062 0.0
C482 C 0.63765 0.69781 0.41981 0.0
C483 C 0.64966 0.56432 0.52425 0.0
C484 C 0.56574 0.59222 0.38492 0.0
C485 C 0.58664 0.57818 0.35306 0.0
C486 C 0.58382 0.61069 0.42285 0.0
C487 C 0.62381 0.61536 0.42903 0.0
C488 C 0.64498 0.6022 0.39617 0.0
C489 C 0.62617 0.58368 0.35866 0.0
C490 C 0.56023 0.6243 0.45717 0.0
C491 C 0.68765 0.60663 0.40161 0.0
H492 H 0.66803 0.71569 0.50915 0.0
H493 H 0.6788 0.60309 0.5962 0.0
H494 H 0.64992 0.68855 0.38938 0.0
H495 H 0.60623 0.69769 0.40936 0.0
H496 H 0.64685 0.7273 0.42205 0.0
H497 H 0.6618 0.54903 0.56219 0.0
H498 H 0.61886 0.55783 0.51712 0.0
H499 H 0.66329 0.5532 0.49628 0.0
H500 H 0.53512 0.58872 0.38023 0.0
H501 H 0.64259 0.57261 0.33451 0.0
H502 H 0.56558 0.65477 0.45784 0.0
H503 H 0.56861 0.60855 0.49594 0.0
H504 H 0.52925 0.62036 0.44569 0.0
H505 H 0.69555 0.63654 0.40289 0.0
H506 H 0.6995 0.59782 0.37051 0.0
H507 H 0.70123 0.58918 0.4374 0.0
C508 C 0.82948 0.16128 0.94815 0.0
C509 C 0.85347 0.17431 0.98686 0.0
C510 C 0.84469 0.14802 0.91033 0.0
C511 C 0.88465 0.1482 0.91136 0.0
C512 C 0.90864 0.16345 0.94886 0.0
C513 C 0.89275 0.17617 0.98623 0.0
C514 C 0.81824 0.13196 0.87094 0.0
C515 C 0.95132 0.16457 0.95108 0.0
C516 C 0.93371 0.07468 0.86029 0.0
C517 C 0.94313 0.09589 0.81586 0.0
C518 C 0.91327 0.09101 0.89061 0.0
C519 C 0.90201 0.12957 0.87624 0.0
C520 C 0.91033 0.15084 0.83063 0.0
C521 C 0.9308 0.13372 0.80093 0.0
C522 C 0.90478 0.06729 0.93888 0.0
C523 C 0.89893 0.19203 0.81416 0.0
H524 H 0.79912 0.15973 0.94886 0.0
H525 H 0.91121 0.18659 0.01604 0.0
H526 H 0.82469 0.14398 0.8331 0.0
H527 H 0.82255 0.10084 0.87693 0.0
H528 H 0.78787 0.13771 0.87198 0.0
H529 H 0.96557 0.18023 0.98004 0.0
H530 H 0.9629 0.13524 0.95969 0.0
H531 H 0.95874 0.17815 0.9143 0.0
H532 H 0.94255 0.04524 0.87152 0.0
H533 H 0.93819 0.15033 0.76676 0.0
H534 H 0.87397 0.06868 0.94084 0.0
H535 H 0.92036 0.0787 0.97112 0.0
H536 H 0.91316 0.03713 0.94291 0.0
H537 H 0.86833 0.19577 0.81576 0.0
H538 H 0.90423 0.20353 0.77557 0.0
H539 H 0.9153 0.209 0.84003 0.0
C540 C 0.37051 0.40004 0.34331 0.0
C541 C 0.36205 0.36116 0.34954 0.0
C542 C 0.38909 0.41797 0.30423 0.0
C543 C 0.39833 0.397 0.26901 0.0
C544 C 0.38798 0.35832 0.27314 0.0
C545 C 0.37029 0.34072 0.31366 0.0
C546 C 0.39969 0.45922 0.3014 0.0
C547 C 0.39634 0.3354 0.23533 0.0
C548 C 0.41894 0.45676 0.14736 0.0
C549 C 0.45887 0.4558 0.15391 0.0
C550 C 0.39887 0.43652 0.18353 0.0
C551 C 0.41918 0.41579 0.22836 0.0
C552 C 0.45952 0.41516 0.23567 0.0
C553 C 0.47886 0.43475 0.19809 0.0
C554 C 0.35589 0.43743 0.17373 0.0
C555 C 0.48228 0.39446 0.28367 0.0
H556 H 0.36316 0.41653 0.3697 0.0
H557 H 0.36397 0.31075 0.31798 0.0
H558 H 0.43096 0.46234 0.30348 0.0
H559 H 0.38633 0.47609 0.2651 0.0
H560 H 0.39077 0.47142 0.33204 0.0
H561 H 0.3843 0.30642 0.24186 0.0
H562 H 0.3845 0.34994 0.19693 0.0
H563 H 0.42756 0.33301 0.23702 0.0
H564 H 0.40317 0.47353 0.1139 0.0
H565 H 0.50969 0.43376 0.20349 0.0
H566 H 0.34466 0.44757 0.20431 0.0
H567 H 0.34499 0.40833 0.17286 0.0
H568 H 0.34442 0.45602 0.13773 0.0
H569 H 0.47593 0.40669 0.31567 0.0
H570 H 0.51343 0.39618 0.28322 0.0
H571 H 0.47404 0.3642 0.29033 0.0
C572 C 0.18954 0.88196 0.87395 0.0
C573 C 0.16973 0.87422 0.91486 0.0
C574 C 0.17137 0.90001 0.82659 0.0
C575 C 0.13281 0.91138 0.82036 0.0
C576 C 0.11273 0.90386 0.86138 0.0
C577 C 0.13116 0.88475 0.9077 0.0
C578 C 0.19326 0.90667 0.78314 0.0
C579 C 0.07163 0.91583 0.8563 0.0
C580 C 0.09185 0.98675 0.70978 0.0
C581 C 0.07027 0.9647 0.67873 0.0
C582 C 0.11268 0.96978 0.75598 0.0
C583 C 0.11269 0.92982 0.77058 0.0
C584 C 0.09156 0.90744 0.73886 0.0
C585 C 0.07013 0.92519 0.69379 0.0
C586 C 0.13409 0.9946 0.78952 0.0
C587 C 0.09136 0.86472 0.75262 0.0
H588 H 0.21936 0.87431 0.87896 0.0
H589 H 0.11505 0.8779 0.93835 0.0
H590 H 0.17905 0.89199 0.75314 0.0
H591 H 0.19343 0.93733 0.76694 0.0
H592 H 0.22314 0.89635 0.7942 0.0
H593 H 0.06084 0.91001 0.89263 0.0
H594 H 0.06835 0.94659 0.84075 0.0
H595 H 0.0535 0.90058 0.82982 0.0
H596 H 0.09247 0.01724 0.69803 0.0
H597 H 0.05312 0.90796 0.67033 0.0
H598 H 0.16469 0.98665 0.79797 0.0
H599 H 0.1231 0.9902 0.82565 0.0
H600 H 0.13143 0.02517 0.77246 0.0
H601 H 0.12084 0.85355 0.75798 0.0
H602 H 0.07352 0.85149 0.72356 0.0
H603 H 0.08048 0.85578 0.78851 0.0
loop_
_geom_bond_atom_site_label_1
_geom_bond_atom_site_label_2
_geom_bond_distance
_geom_bond_site_symmetry_2
_ccdc_geom_bond_type
H0 C7 0.929 . S
H1 C10 0.930 . S
H2 C12 0.929 . S
H3 C4 0.969 . S
C4 H3 0.969 . S
C4 O5 1.550 . S
C4 H6 0.973 . S
O5 C4 1.550 . S
O5 C11 1.412 . S
H6 C4 0.973 . S
C7 H0 0.929 . S
C7 C8 1.400 1_554 S
C7 C9 1.364 . S
C8 C7 1.400 1_556 S
C8 C12 1.377 . S
C9 C7 1.364 . S
C9 C10 1.374 . S
C10 H1 0.930 . S
C10 C9 1.374 . S
C10 C11 1.383 . S
C11 O5 1.412 . S
C11 C10 1.383 . S
C11 C12 1.394 1_554 S
C12 H2 0.929 . S
C12 C8 1.377 . S
C12 C11 1.394 1_556 S
H13 C20 0.929 . S
H14 C23 0.930 . S
H15 C25 0.929 . S
H16 C17 0.969 . S
C17 H16 0.969 . S
C17 O18 1.550 . S
C17 H19 0.973 . S
O18 C17 1.550 . S
O18 C24 1.412 . S
H19 C17 0.973 . S
C20 H13 0.929 . S
C20 C21 1.400 . S
C20 C22 1.364 . S
C21 C20 1.400 . S
C21 C25 1.377 . S
C22 C20 1.364 . S
C22 C23 1.374 . S
C23 H14 0.930 . S
C23 C22 1.374 . S
C23 C24 1.383 . S
C24 O18 1.412 . S
C24 C23 1.383 . S
C24 C25 1.394 . S
C25 H15 0.929 . S
C25 C21 1.377 . S
C25 C24 1.394 . S
H26 C33 0.929 . S
H27 C36 0.930 1_556 S
H28 C38 0.929 . S
H29 C30 0.969 . S
C30 H29 0.969 . S
C30 O31 1.550 . S
C30 H32 0.973 1_554 S
O31 C30 1.550 . S
O31 C37 1.412 . S
H32 C30 0.973 1_556 S
C33 H26 0.929 . S
C33 C34 1.400 . S
C33 C35 1.364 . S
C34 C33 1.400 . S
C34 C38 1.377 . S
C35 C33 1.364 . S
C35 C36 1.374 . S
C36 H27 0.930 1_554 S
C36 C35 1.374 . S
C36 C37 1.383 . S
C37 O31 1.412 . S
C37 C36 1.383 . S
C37 C38 1.394 . S
C38 H28 0.929 . S
C38 C34 1.377 . S
C38 C37 1.394 . S
H39 C46 0.929 . S
H40 C49 0.930 . S
H41 C51 0.929 . S
H42 C43 0.969 . S
C43 H42 0.969 . S
C43 O44 1.550 . S
C43 H45 0.973 . S
O44 C43 1.550 . S
O44 C50 1.412 . S
H45 C43 0.973 . S
C46 H39 0.929 . S
C46 C47 1.400 . S
C46 C48 1.364 . S
C47 C46 1.400 . S
C47 C51 1.377 . S
C48 C46 1.364 . S
C48 C49 1.374 . S
C49 H40 0.930 . S
C49 C48 1.374 . S
C49 C50 1.383 . S
C50 O44 1.412 . S
C50 C49 1.383 . S
C50 C51 1.394 . S
C51 H41 0.929 . S
C51 C47 1.377 . S
C51 C50 1.394 . S
C52 C54 1.422 . S
C52 C56 1.415 . S
C52 N58 1.369 . S
C53 C54 1.421 . S
C53 C55 1.417 . S
C53 C65 1.422 . S
C54 C52 1.422 . S
C54 C53 1.421 . S
C54 N64 1.359 . S
C55 C53 1.417 . S
C55 C57 1.329 . S
C55 H74 0.930 . S
C56 C52 1.415 . S
C56 C57 1.437 . S
C56 C60 1.413 . S
C57 C55 1.329 . S
C57 C56 1.437 . S
C57 H79 0.929 . S
N58 C52 1.369 . S
N58 C59 1.338 1_655 S
N58 Gd63 2.622 . S
C59 N58 1.338 1_455 S
C59 C61 1.378 . S
C59 H71 0.929 . S
C60 C56 1.413 . S
C60 C61 1.348 1_655 S
C60 H76 0.931 . S
C61 C59 1.378 . S
C61 C60 1.348 1_455 S
C61 H77 0.930 . S
Gd62 N82 2.622 . S
Gd62 N89 2.570 . S
Gd62 O96 2.353 1_465 S
Gd62 O97 2.468 . S
Gd62 O98 2.427 . S
Gd62 O100 2.388 1_455 S
Gd62 O101 2.386 . S
Gd62 O105 2.307 1_565 S
Gd62 C115 2.805 . S
Gd63 N58 2.622 . S
Gd63 N64 2.570 . S
Gd63 O95 2.386 . S
Gd63 O99 2.307 1_545 S
Gd63 O102 2.353 1_655 S
Gd63 O103 2.468 . S
Gd63 O104 2.427 . S
Gd63 O106 2.388 1_655 S
Gd63 C127 2.805 . S
N64 C54 1.359 . S
N64 Gd63 2.570 . S
N64 C66 1.343 . S
C65 C53 1.422 . S
C65 C67 1.321 . S
C65 H73 0.931 . S
C66 N64 1.343 . S
C66 C67 1.390 . S
C66 H68 0.931 . S
C67 C65 1.321 . S
C67 C66 1.390 . S
C67 H69 0.930 . S
H68 C66 0.931 . S
H69 C67 0.930 . S
H70 C93 0.931 . S
H71 C59 0.929 . S
H72 C94 0.930 . S
H73 C65 0.931 . S
H74 C55 0.930 . S
H75 C84 0.929 1_655 S
H76 C60 0.931 . S
H77 C61 0.930 . S
H78 C116 0.930 . S
H79 C57 0.929 . S
H80 C85 0.931 . S
H81 C86 0.930 1_655 S
N82 Gd62 2.622 . S
N82 C83 1.369 . S
N82 C84 1.338 . S
C83 N82 1.369 . S
C83 C87 1.415 . S
C83 C90 1.422 . S
C84 H75 0.929 1_455 S
C84 N82 1.338 . S
C84 C86 1.378 . S
C85 H80 0.931 . S
C85 C86 1.348 . S
C85 C87 1.413 . S
C86 H81 0.930 1_455 S
C86 C84 1.378 . S
C86 C85 1.348 . S
C87 C83 1.415 . S
C87 C85 1.413 . S
C87 C117 1.437 . S
H88 C117 0.929 . S
N89 Gd62 2.570 . S
N89 C90 1.359 . S
N89 C93 1.343 . S
C90 C83 1.422 . S
C90 N89 1.359 . S
C90 C92 1.421 . S
C91 C92 1.422 . S
C91 C94 1.321 . S
C91 H118 0.931 . S
C92 C90 1.421 . S
C92 C91 1.422 . S
C92 C116 1.417 . S
C93 H70 0.931 . S
C93 N89 1.343 . S
C93 C94 1.390 . S
C94 H72 0.930 . S
C94 C91 1.321 . S
C94 C93 1.390 . S
O95 Gd63 2.386 . S
O95 C107 1.265 . S
O96 Gd62 2.353 1_645 S
O96 C107 1.242 . S
O97 Gd62 2.468 . S
O97 C115 1.263 . S
O98 Gd62 2.427 . S
O98 C115 1.252 . S
O99 Gd63 2.307 1_565 S
O99 C108 1.261 . S
O100 Gd62 2.388 1_655 S
O100 C108 1.252 . S
O101 Gd62 2.386 . S
O101 C119 1.265 . S
O102 Gd63 2.353 1_455 S
O102 C119 1.242 1_545 S
O103 Gd63 2.468 . S
O103 C127 1.263 . S
O104 Gd63 2.427 . S
O104 C127 1.252 . S
O105 Gd62 2.307 1_545 S
O105 C120 1.261 . S
O106 Gd63 2.388 1_455 S
O106 C120 1.252 . S
C107 O95 1.265 . S
C107 O96 1.242 . S
C108 O99 1.261 . S
C108 O100 1.252 . S
C109 C112 1.394 . S
C109 C114 1.370 . S
C109 C115 1.500 . S
C110 C113 1.383 . S
C110 C114 1.395 . S
C111 C112 1.396 . S
C111 C113 1.365 . S
C111 H128 0.929 . S
C112 C109 1.394 . S
C112 C111 1.396 . S
C112 H129 0.930 . S
C113 C110 1.383 . S
C113 C111 1.365 . S
C113 H130 0.931 . S
C114 C109 1.370 . S
C114 C110 1.395 . S
C114 H131 0.930 . S
C115 Gd62 2.805 . S
C115 O97 1.263 . S
C115 O98 1.252 . S
C115 C109 1.500 . S
C116 H78 0.930 . S
C116 C92 1.417 . S
C116 C117 1.329 . S
C117 C87 1.437 . S
C117 H88 0.929 . S
C117 C116 1.329 . S
H118 C91 0.931 . S
C119 O101 1.265 . S
C119 O102 1.242 1_565 S
C120 O105 1.261 . S
C120 O106 1.252 . S
C121 C124 1.394 . S
C121 C126 1.370 . S
C121 C127 1.500 . S
C122 C125 1.383 . S
C122 C126 1.395 . S
C123 C124 1.396 . S
C123 C125 1.365 . S
C123 H132 0.929 . S
C124 C121 1.394 . S
C124 C123 1.396 . S
C124 H133 0.930 . S
C125 C122 1.383 . S
C125 C123 1.365 . S
C125 H134 0.931 . S
C126 C121 1.370 . S
C126 C122 1.395 . S
C126 H135 0.930 . S
C127 Gd63 2.805 . S
C127 O103 1.263 . S
C127 O104 1.252 . S
C127 C121 1.500 . S
H128 C111 0.929 . S
H129 C112 0.930 . S
H130 C113 0.931 . S
H131 C114 0.930 . S
H132 C123 0.929 . S
H133 C124 0.930 . S
H134 C125 0.931 . S
H135 C126 0.930 . S
C136 C138 1.422 . S
C136 C140 1.415 . S
C136 N142 1.369 . S
C137 C138 1.421 . S
C137 C139 1.417 . S
C137 C149 1.422 . S
C138 C136 1.422 . S
C138 C137 1.421 . S
C138 N148 1.359 . S
C139 C137 1.417 . S
C139 C141 1.329 . S
C139 H158 0.930 . S
C140 C136 1.415 . S
C140 C141 1.437 . S
C140 C144 1.413 . S
C141 C139 1.329 . S
C141 C140 1.437 . S
C141 H163 0.929 . S
N142 C136 1.369 . S
N142 C143 1.338 . S
N142 Gd147 2.622 . S
C143 N142 1.338 . S
C143 C145 1.378 . S
C143 H155 0.929 . S
C144 C140 1.413 . S
C144 C145 1.348 . S
C144 H160 0.931 . S
C145 C143 1.378 . S
C145 C144 1.348 . S
C145 H161 0.930 . S
Gd146 N166 2.622 . S
Gd146 N173 2.570 1_556 S
Gd146 O180 2.353 . S
Gd146 O181 2.468 . S
Gd146 O182 2.427 . S
Gd146 O184 2.388 1_556 S
Gd146 O185 2.386 1_556 S
Gd146 O189 2.307 1_556 S
Gd146 C199 2.805 . S
Gd147 N142 2.622 . S
Gd147 N148 2.570 . S
Gd147 O179 2.386 . S
Gd147 O183 2.307 . S
Gd147 O186 2.353 . S
Gd147 O187 2.468 . S
Gd147 O188 2.427 . S
Gd147 O190 2.388 . S
Gd147 C211 2.805 . S
N148 C138 1.359 . S
N148 Gd147 2.570 . S
N148 C150 1.343 . S
C149 C137 1.422 . S
C149 C151 1.321 . S
C149 H157 0.931 . S
C150 N148 1.343 . S
C150 C151 1.390 . S
C150 H152 0.931 . S
C151 C149 1.321 . S
C151 C150 1.390 . S
C151 H153 0.930 . S
H152 C150 0.931 . S
H153 C151 0.930 . S
H154 C177 0.931 . S
H155 C143 0.929 . S
H156 C178 0.930 . S
H157 C149 0.931 . S
H158 C139 0.930 . S
H159 C168 0.929 . S
H160 C144 0.931 . S
H161 C145 0.930 . S
H162 C200 0.930 . S
H163 C141 0.929 . S
H164 C169 0.931 . S
H165 C170 0.930 . S
N166 Gd146 2.622 . S
N166 C167 1.369 1_556 S
N166 C168 1.338 . S
C167 N166 1.369 1_554 S
C167 C171 1.415 . S
C167 C174 1.422 . S
C168 H159 0.929 . S
C168 N166 1.338 . S
C168 C170 1.378 . S
C169 H164 0.931 . S
C169 C170 1.348 1_554 S
C169 C171 1.413 . S
C170 H165 0.930 . S
C170 C168 1.378 . S
C170 C169 1.348 1_556 S
C171 C167 1.415 . S
C171 C169 1.413 . S
C171 C201 1.437 . S
H172 C201 0.929 . S
N173 Gd146 2.570 1_554 S
N173 C174 1.359 . S
N173 C177 1.343 . S
C174 C167 1.422 . S
C174 N173 1.359 . S
C174 C176 1.421 . S
C175 C176 1.422 . S
C175 C178 1.321 . S
C175 H202 0.931 . S
C176 C174 1.421 . S
C176 C175 1.422 . S
C176 C200 1.417 . S
C177 H154 0.931 . S
C177 N173 1.343 . S
C177 C178 1.390 . S
C178 H156 0.930 . S
C178 C175 1.321 . S
C178 C177 1.390 . S
O179 Gd147 2.386 . S
O179 C191 1.265 1_554 S
O180 Gd146 2.353 . S
O180 C191 1.242 . S
O181 Gd146 2.468 . S
O181 C199 1.263 . S
O182 Gd146 2.427 . S
O182 C199 1.252 . S
O183 Gd147 2.307 . S
O183 C192 1.261 . S
O184 Gd146 2.388 1_554 S
O184 C192 1.252 . S
O185 Gd146 2.386 1_554 S
O185 C203 1.265 . S
O186 Gd147 2.353 . S
O186 C203 1.242 . S
O187 Gd147 2.468 . S
O187 C211 1.263 . S
O188 Gd147 2.427 . S
O188 C211 1.252 . S
O189 Gd146 2.307 1_554 S
O189 C204 1.261 . S
O190 Gd147 2.388 . S
O190 C204 1.252 . S
C191 O179 1.265 1_556 S
C191 O180 1.242 . S
C192 O183 1.261 . S
C192 O184 1.252 . S
C193 C196 1.394 . S
C193 C198 1.370 . S
C193 C199 1.500 . S
C194 C197 1.383 . S
C194 C198 1.395 . S
C195 C196 1.396 . S
C195 C197 1.365 . S
C195 H212 0.929 . S
C196 C193 1.394 . S
C196 C195 1.396 . S
C196 H213 0.930 . S
C197 C194 1.383 . S
C197 C195 1.365 . S
C197 H214 0.931 . S
C198 C193 1.370 . S
C198 C194 1.395 . S
C198 H215 0.930 . S
C199 Gd146 2.805 . S
C199 O181 1.263 . S
C199 O182 1.252 . S
C199 C193 1.500 . S
C200 H162 0.930 . S
C200 C176 1.417 . S
C200 C201 1.329 . S
C201 C171 1.437 . S
C201 H172 0.929 . S
C201 C200 1.329 . S
H202 C175 0.931 . S
C203 O185 1.265 . S
C203 O186 1.242 . S
C204 O189 1.261 . S
C204 O190 1.252 . S
C205 C208 1.394 . S
C205 C210 1.370 . S
C205 C211 1.500 . S
C206 C209 1.383 . S
C206 C210 1.395 . S
C207 C208 1.396 . S
C207 C209 1.365 . S
C207 H216 0.929 . S
C208 C205 1.394 . S
C208 C207 1.396 . S
C208 H217 0.930 . S
C209 C206 1.383 . S
C209 C207 1.365 . S
C209 H218 0.931 . S
C210 C205 1.370 . S
C210 C206 1.395 . S
C210 H219 0.930 . S
C211 Gd147 2.805 . S
C211 O187 1.263 . S
C211 O188 1.252 . S
C211 C205 1.500 . S
H212 C195 0.929 . S
H213 C196 0.930 . S
H214 C197 0.931 . S
H215 C198 0.930 . S
H216 C207 0.929 . S
H217 C208 0.930 . S
H218 C209 0.931 . S
H219 C210 0.930 . S
C220 C221 1.391 . S
C220 C222 1.394 . S
C220 H236 0.931 . S
C221 C220 1.391 . S
C221 C225 1.376 . S
C222 C220 1.394 . S
C222 C223 1.369 . S
C222 C226 1.531 . S
C223 C222 1.369 . S
C223 C224 1.410 . S
C223 C231 1.503 . S
C224 C223 1.410 . S
C224 C225 1.392 . S
C224 C227 1.511 . S
C225 C221 1.376 . S
C225 C224 1.392 . S
C225 H237 0.929 . S
C226 C222 1.531 . S
C226 H238 0.960 . S
C226 H239 0.962 . S
C226 H240 0.960 . S
C227 C224 1.511 . S
C227 H241 0.961 . S
C227 H242 0.961 . S
C227 H243 0.961 . S
C228 C229 1.370 . S
C228 C230 1.363 . S
C228 H244 0.931 . S
C229 C228 1.370 . S
C229 C233 1.408 . S
C230 C228 1.363 . S
C230 C231 1.370 . S
C230 C234 1.524 . S
C231 C223 1.503 . S
C231 C230 1.370 . S
C231 C232 1.403 . S
C232 C231 1.403 . S
C232 C233 1.404 . S
C232 C235 1.539 . S
C233 C229 1.408 . S
C233 C232 1.404 . S
C233 H245 0.930 . S
C234 C230 1.524 . S
C234 H246 0.956 . S
C234 H247 0.961 . S
C234 H248 0.961 . S
C235 C232 1.539 . S
C235 H249 0.958 . S
C235 H250 0.961 . S
C235 H251 0.960 . S
H236 C220 0.931 . S
H237 C225 0.929 . S
H238 C226 0.960 . S
H239 C226 0.962 . S
H240 C226 0.960 . S
H241 C227 0.961 . S
H242 C227 0.961 . S
H243 C227 0.961 . S
H244 C228 0.931 . S
H245 C233 0.930 . S
H246 C234 0.956 . S
H247 C234 0.961 . S
H248 C234 0.961 . S
H249 C235 0.958 . S
H250 C235 0.961 . S
H251 C235 0.960 . S
C252 C253 1.391 . S
C252 C254 1.394 . S
C252 H268 0.931 1_554 S
C253 C252 1.391 . S
C253 C257 1.376 . S
C254 C252 1.394 . S
C254 C255 1.369 . S
C254 C258 1.531 1_554 S
C255 C254 1.369 . S
C255 C256 1.410 . S
C255 C263 1.503 . S
C256 C255 1.410 . S
C256 C257 1.392 . S
C256 C259 1.511 . S
C257 C253 1.376 . S
C257 C256 1.392 . S
C257 H269 0.929 . S
C258 C254 1.531 1_556 S
C258 H270 0.960 . S
C258 H271 0.962 . S
C258 H272 0.960 . S
C259 C256 1.511 . S
C259 H273 0.961 . S
C259 H274 0.961 . S
C259 H275 0.961 . S
C260 C261 1.370 . S
C260 C262 1.363 . S
C260 H276 0.931 . S
C261 C260 1.370 . S
C261 C265 1.408 . S
C262 C260 1.363 . S
C262 C263 1.370 . S
C262 C266 1.524 . S
C263 C255 1.503 . S
C263 C262 1.370 . S
C263 C264 1.403 . S
C264 C263 1.403 . S
C264 C265 1.404 . S
C264 C267 1.539 . S
C265 C261 1.408 . S
C265 C264 1.404 . S
C265 H277 0.930 . S
C266 C262 1.524 . S
C266 H278 0.956 . S
C266 H279 0.961 . S
C266 H280 0.961 . S
C267 C264 1.539 . S
C267 H281 0.958 1_554 S
C267 H282 0.961 . S
C267 H283 0.960 . S
H268 C252 0.931 1_556 S
H269 C257 0.929 . S
H270 C258 0.960 . S
H271 C258 0.962 . S
H272 C258 0.960 . S
H273 C259 0.961 . S
H274 C259 0.961 . S
H275 C259 0.961 . S
H276 C260 0.931 . S
H277 C265 0.930 . S
H278 C266 0.956 . S
H279 C266 0.961 . S
H280 C266 0.961 . S
H281 C267 0.958 1_556 S
H282 C267 0.961 . S
H283 C267 0.960 . S
C284 C285 1.391 . S
C284 C286 1.394 . S
C284 H300 0.931 . S
C285 C284 1.391 . S
C285 C289 1.376 . S
C286 C284 1.394 . S
C286 C287 1.369 . S
C286 C290 1.531 . S
C287 C286 1.369 . S
C287 C288 1.410 . S
C287 C295 1.503 . S
C288 C287 1.410 . S
C288 C289 1.392 . S
C288 C291 1.511 . S
C289 C285 1.376 . S
C289 C288 1.392 . S
C289 H301 0.929 . S
C290 C286 1.531 . S
C290 H302 0.960 . S
C290 H303 0.962 . S
C290 H304 0.960 . S
C291 C288 1.511 . S
C291 H305 0.961 . S
C291 H306 0.961 . S
C291 H307 0.961 . S
C292 C293 1.370 . S
C292 C294 1.363 . S
C292 H308 0.931 . S
C293 C292 1.370 . S
C293 C297 1.408 . S
C294 C292 1.363 . S
C294 C295 1.370 . S
C294 C298 1.524 . S
C295 C287 1.503 . S
C295 C294 1.370 . S
C295 C296 1.403 . S
C296 C295 1.403 . S
C296 C297 1.404 . S
C296 C299 1.539 . S
C297 C293 1.408 . S
C297 C296 1.404 . S
C297 H309 0.930 . S
C298 C294 1.524 . S
C298 H310 0.956 . S
C298 H311 0.961 . S
C298 H312 0.961 . S
C299 C296 1.539 . S
C299 H313 0.958 . S
C299 H314 0.961 . S
C299 H315 0.960 . S
H300 C284 0.931 . S
H301 C289 0.929 . S
H302 C290 0.960 . S
H303 C290 0.962 . S
H304 C290 0.960 . S
H305 C291 0.961 . S
H306 C291 0.961 . S
H307 C291 0.961 . S
H308 C292 0.931 . S
H309 C297 0.930 . S
H310 C298 0.956 . S
H311 C298 0.961 . S
H312 C298 0.961 . S
H313 C299 0.958 . S
H314 C299 0.961 . S
H315 C299 0.960 . S
C316 C317 1.391 . S
C316 C318 1.394 . S
C316 H332 0.930 . S
C317 C316 1.391 . S
C317 C321 1.376 . S
C318 C316 1.394 . S
C318 C319 1.369 . S
C318 C322 1.531 1_554 S
C319 C318 1.369 . S
C319 C320 1.410 . S
C319 C327 1.503 . S
C320 C319 1.410 . S
C320 C321 1.392 . S
C320 C323 1.511 . S
C321 C317 1.376 . S
C321 C320 1.392 . S
C321 H333 0.929 . S
C322 C318 1.531 1_556 S
C322 H334 0.960 1_556 S
C322 H335 0.962 . S
C322 H336 0.960 . S
C323 C320 1.511 . S
C323 H337 0.961 . S
C323 H338 0.961 . S
C323 H339 0.961 . S
C324 C325 1.370 . S
C324 C326 1.363 . S
C324 H340 0.931 1_554 S
C325 C324 1.370 . S
C325 C329 1.408 . S
C326 C324 1.363 . S
C326 C327 1.370 . S
C326 C330 1.524 1_554 S
C327 C319 1.503 . S
C327 C326 1.370 . S
C327 C328 1.403 . S
C328 C327 1.403 . S
C328 C329 1.404 . S
C328 C331 1.539 . S
C329 C325 1.408 . S
C329 C328 1.404 . S
C329 H341 0.930 . S
C330 C326 1.524 1_556 S
C330 H342 0.956 . S
C330 H343 0.961 . S
C330 H344 0.961 . S
C331 C328 1.539 . S
C331 H345 0.958 . S
C331 H346 0.961 . S
C331 H347 0.960 . S
H332 C316 0.930 . S
H333 C321 0.929 . S
H334 C322 0.960 1_554 S
H335 C322 0.962 . S
H336 C322 0.960 . S
H337 C323 0.961 . S
H338 C323 0.961 . S
H339 C323 0.961 . S
H340 C324 0.931 1_556 S
H341 C329 0.930 . S
H342 C330 0.956 . S
H343 C330 0.961 . S
H344 C330 0.961 . S
H345 C331 0.958 . S
H346 C331 0.961 . S
H347 C331 0.960 . S
C348 C349 1.391 . S
C348 C350 1.394 . S
C348 H364 0.931 . S
C349 C348 1.391 . S
C349 C353 1.376 . S
C350 C348 1.394 . S
C350 C351 1.369 . S
C350 C354 1.531 . S
C351 C350 1.369 . S
C351 C352 1.410 . S
C351 C359 1.503 . S
C352 C351 1.410 . S
C352 C353 1.392 . S
C352 C355 1.511 . S
C353 C349 1.376 . S
C353 C352 1.392 . S
C353 H365 0.929 . S
C354 C350 1.531 . S
C354 H366 0.960 . S
C354 H367 0.962 . S
C354 H368 0.960 . S
C355 C352 1.511 . S
C355 H369 0.961 . S
C355 H370 0.961 . S
C355 H371 0.961 . S
C356 C357 1.370 . S
C356 C358 1.363 . S
C356 H372 0.931 . S
C357 C356 1.370 . S
C357 C361 1.408 . S
C358 C356 1.363 . S
C358 C359 1.370 . S
C358 C362 1.524 . S
C359 C351 1.503 . S
C359 C358 1.370 . S
C359 C360 1.403 . S
C360 C359 1.403 . S
C360 C361 1.404 . S
C360 C363 1.539 . S
C361 C357 1.408 . S
C361 C360 1.404 . S
C361 H373 0.930 . S
C362 C358 1.524 . S
C362 H374 0.956 . S
C362 H375 0.961 . S
C362 H376 0.961 . S
C363 C360 1.539 . S
C363 H377 0.958 . S
C363 H378 0.961 . S
C363 H379 0.960 . S
H364 C348 0.931 . S
H365 C353 0.929 . S
H366 C354 0.960 . S
H367 C354 0.962 . S
H368 C354 0.960 . S
H369 C355 0.961 . S
H370 C355 0.961 . S
H371 C355 0.961 . S
H372 C356 0.931 . S
H373 C361 0.930 . S
H374 C362 0.956 . S
H375 C362 0.961 . S
H376 C362 0.961 . S
H377 C363 0.958 . S
H378 C363 0.961 . S
H379 C363 0.960 . S
C380 C381 1.391 . S
C380 C382 1.394 . S
C380 H396 0.931 . S
C381 C380 1.391 . S
C381 C385 1.376 . S
C382 C380 1.394 . S
C382 C383 1.369 . S
C382 C386 1.531 . S
C383 C382 1.369 . S
C383 C384 1.410 . S
C383 C391 1.503 . S
C384 C383 1.410 . S
C384 C385 1.392 . S
C384 C387 1.511 . S
C385 C381 1.376 . S
C385 C384 1.392 . S
C385 H397 0.929 . S
C386 C382 1.531 . S
C386 H398 0.960 . S
C386 H399 0.962 . S
C386 H400 0.960 . S
C387 C384 1.511 . S
C387 H401 0.961 . S
C387 H402 0.961 . S
C387 H403 0.961 . S
C388 C389 1.370 . S
C388 C390 1.363 . S
C388 H404 0.931 . S
C389 C388 1.370 . S
C389 C393 1.408 . S
C390 C388 1.363 . S
C390 C391 1.370 . S
C390 C394 1.524 . S
C391 C383 1.503 . S
C391 C390 1.370 . S
C391 C392 1.403 . S
C392 C391 1.403 . S
C392 C393 1.404 . S
C392 C395 1.539 . S
C393 C389 1.408 . S
C393 C392 1.404 . S
C393 H405 0.930 . S
C394 C390 1.524 . S
C394 H406 0.956 . S
C394 H407 0.961 . S
C394 H408 0.961 . S
C395 C392 1.539 . S
C395 H409 0.958 . S
C395 H410 0.961 . S
C395 H411 0.960 . S
H396 C380 0.931 . S
H397 C385 0.929 . S
H398 C386 0.960 . S
H399 C386 0.962 . S
H400 C386 0.960 . S
H401 C387 0.961 . S
H402 C387 0.961 . S
H403 C387 0.961 . S
H404 C388 0.931 . S
H405 C393 0.930 . S
H406 C394 0.956 . S
H407 C394 0.961 . S
H408 C394 0.961 . S
H409 C395 0.958 . S
H410 C395 0.961 . S
H411 C395 0.960 . S
C412 C413 1.391 . S
C412 C414 1.394 . S
C412 H428 0.931 . S
C413 C412 1.391 . S
C413 C417 1.376 . S
C414 C412 1.394 . S
C414 C415 1.369 . S
C414 C418 1.531 . S
C415 C414 1.369 . S
C415 C416 1.410 . S
C415 C423 1.503 . S
C416 C415 1.410 . S
C416 C417 1.392 . S
C416 C419 1.511 . S
C417 C413 1.376 . S
C417 C416 1.392 . S
C417 H429 0.929 . S
C418 C414 1.531 . S
C418 H430 0.960 . S
C418 H431 0.962 . S
C418 H432 0.960 . S
C419 C416 1.511 . S
C419 H433 0.961 . S
C419 H434 0.961 . S
C419 H435 0.961 . S
C420 C421 1.370 . S
C420 C422 1.363 . S
C420 H436 0.931 . S
C421 C420 1.370 . S
C421 C425 1.408 . S
C422 C420 1.363 . S
C422 C423 1.370 . S
C422 C426 1.524 . S
C423 C415 1.503 . S
C423 C422 1.370 . S
C423 C424 1.403 . S
C424 C423 1.403 . S
C424 C425 1.404 . S
C424 C427 1.539 . S
C425 C421 1.408 . S
C425 C424 1.404 . S
C425 H437 0.930 . S
C426 C422 1.524 . S
C426 H438 0.956 . S
C426 H439 0.961 . S
C426 H440 0.965 . S
C427 C424 1.539 . S
C427 H441 0.958 . S
C427 H442 0.961 . S
C427 H443 0.960 . S
H428 C412 0.931 . S
H429 C417 0.929 . S
H430 C418 0.960 . S
H431 C418 0.962 . S
H432 C418 0.960 . S
H433 C419 0.961 . S
H434 C419 0.961 . S
H435 C419 0.961 . S
H436 C420 0.931 . S
H437 C425 0.930 . S
H438 C426 0.956 . S
H439 C426 0.961 . S
H440 C426 0.965 . S
H441 C427 0.958 . S
H442 C427 0.961 . S
H443 C427 0.960 . S
C444 C445 1.391 . S
C444 C446 1.394 . S
C444 H460 0.931 . S
C445 C444 1.391 . S
C445 C449 1.376 . S
C446 C444 1.394 . S
C446 C447 1.369 . S
C446 C450 1.531 . S
C447 C446 1.369 . S
C447 C448 1.410 . S
C447 C455 1.503 . S
C448 C447 1.410 . S
C448 C449 1.392 . S
C448 C451 1.511 . S
C449 C445 1.376 . S
C449 C448 1.392 . S
C449 H461 0.929 . S
C450 C446 1.531 . S
C450 H462 0.960 . S
C450 H463 0.962 . S
C450 H464 0.960 . S
C451 C448 1.511 . S
C451 H465 0.961 . S
C451 H466 0.961 . S
C451 H467 0.961 . S
C452 C453 1.370 . S
C452 C454 1.363 . S
C452 H468 0.931 . S
C453 C452 1.370 . S
C453 C457 1.408 . S
C454 C452 1.363 . S
C454 C455 1.370 . S
C454 C458 1.524 . S
C455 C447 1.503 . S
C455 C454 1.370 . S
C455 C456 1.403 . S
C456 C455 1.403 . S
C456 C457 1.404 . S
C456 C459 1.539 . S
C457 C453 1.408 . S
C457 C456 1.404 . S
C457 H469 0.930 . S
C458 C454 1.524 . S
C458 H470 0.956 . S
C458 H471 0.961 . S
C458 H472 0.961 . S
C459 C456 1.539 . S
C459 H473 0.958 . S
C459 H474 0.961 . S
C459 H475 0.960 . S
H460 C444 0.931 . S
H461 C449 0.929 . S
H462 C450 0.960 . S
H463 C450 0.962 . S
H464 C450 0.960 . S
H465 C451 0.961 . S
H466 C451 0.961 . S
H467 C451 0.961 . S
H468 C452 0.931 . S
H469 C457 0.930 . S
H470 C458 0.956 . S
H471 C458 0.961 . S
H472 C458 0.961 . S
H473 C459 0.958 . S
H474 C459 0.961 . S
H475 C459 0.960 . S
C476 C477 1.391 . S
C476 C478 1.394 . S
C476 H492 0.931 . S
C477 C476 1.391 . S
C477 C481 1.376 . S
C478 C476 1.394 . S
C478 C479 1.369 . S
C478 C482 1.531 . S
C479 C478 1.369 . S
C479 C480 1.410 . S
C479 C487 1.503 . S
C480 C479 1.410 . S
C480 C481 1.392 . S
C480 C483 1.511 . S
C481 C477 1.376 . S
C481 C480 1.392 . S
C481 H493 0.929 . S
C482 C478 1.531 . S
C482 H494 0.960 . S
C482 H495 0.962 . S
C482 H496 0.960 . S
C483 C480 1.511 . S
C483 H497 0.961 . S
C483 H498 0.961 . S
C483 H499 0.961 . S
C484 C485 1.370 . S
C484 C486 1.363 . S
C484 H500 0.931 . S
C485 C484 1.370 . S
C485 C489 1.408 . S
C486 C484 1.363 . S
C486 C487 1.370 . S
C486 C490 1.524 . S
C487 C479 1.503 . S
C487 C486 1.370 . S
C487 C488 1.403 . S
C488 C487 1.403 . S
C488 C489 1.404 . S
C488 C491 1.539 . S
C489 C485 1.408 . S
C489 C488 1.404 . S
C489 H501 0.930 . S
C490 C486 1.524 . S
C490 H502 0.956 . S
C490 H503 0.961 . S
C490 H504 0.961 . S
C491 C488 1.539 . S
C491 H505 0.958 . S
C491 H506 0.961 . S
C491 H507 0.960 . S
H492 C476 0.931 . S
H493 C481 0.929 . S
H494 C482 0.960 . S
H495 C482 0.962 . S
H496 C482 0.960 . S
H497 C483 0.961 . S
H498 C483 0.961 . S
H499 C483 0.961 . S
H500 C484 0.931 . S
H501 C489 0.930 . S
H502 C490 0.956 . S
H503 C490 0.961 . S
H504 C490 0.961 . S
H505 C491 0.958 . S
H506 C491 0.961 . S
H507 C491 0.960 . S
C508 C509 1.391 . S
C508 C510 1.394 . S
C508 H524 0.931 . S
C509 C508 1.391 . S
C509 C513 1.376 . S
C510 C508 1.394 . S
C510 C511 1.369 . S
C510 C514 1.531 . S
C511 C510 1.369 . S
C511 C512 1.410 . S
C511 C519 1.503 . S
C512 C511 1.410 . S
C512 C513 1.392 . S
C512 C515 1.511 . S
C513 C509 1.376 . S
C513 C512 1.392 . S
C513 H525 0.929 . S
C514 C510 1.531 . S
C514 H526 0.960 . S
C514 H527 0.962 . S
C514 H528 0.960 . S
C515 C512 1.511 . S
C515 H529 0.961 . S
C515 H530 0.961 . S
C515 H531 0.961 . S
C516 C517 1.370 . S
C516 C518 1.363 . S
C516 H532 0.931 . S
C517 C516 1.370 . S
C517 C521 1.408 . S
C518 C516 1.363 . S
C518 C519 1.370 . S
C518 C522 1.524 . S
C519 C511 1.503 . S
C519 C518 1.370 . S
C519 C520 1.403 . S
C520 C519 1.403 . S
C520 C521 1.404 . S
C520 C523 1.539 . S
C521 C517 1.408 . S
C521 C520 1.404 . S
C521 H533 0.930 . S
C522 C518 1.524 . S
C522 H534 0.956 . S
C522 H535 0.961 . S
C522 H536 0.961 . S
C523 C520 1.539 . S
C523 H537 0.958 . S
C523 H538 0.961 . S
C523 H539 0.960 . S
H524 C508 0.931 . S
H525 C513 0.929 . S
H526 C514 0.960 . S
H527 C514 0.962 . S
H528 C514 0.960 . S
H529 C515 0.961 . S
H530 C515 0.961 . S
H531 C515 0.961 . S
H532 C516 0.931 . S
H533 C521 0.930 . S
H534 C522 0.956 . S
H535 C522 0.961 . S
H536 C522 0.961 . S
H537 C523 0.958 . S
H538 C523 0.961 . S
H539 C523 0.960 . S
C540 C541 1.391 . S
C540 C542 1.394 . S
C540 H556 0.931 . S
C541 C540 1.391 . S
C541 C545 1.376 . S
C542 C540 1.394 . S
C542 C543 1.369 . S
C542 C546 1.531 . S
C543 C542 1.369 . S
C543 C544 1.410 . S
C543 C551 1.503 . S
C544 C543 1.410 . S
C544 C545 1.392 . S
C544 C547 1.511 . S
C545 C541 1.376 . S
C545 C544 1.392 . S
C545 H557 0.929 . S
C546 C542 1.531 . S
C546 H558 0.960 . S
C546 H559 0.962 . S
C546 H560 0.960 . S
C547 C544 1.511 . S
C547 H561 0.961 . S
C547 H562 0.961 . S
C547 H563 0.961 . S
C548 C549 1.370 . S
C548 C550 1.363 . S
C548 H564 0.931 . S
C549 C548 1.370 . S
C549 C553 1.408 . S
C550 C548 1.363 . S
C550 C551 1.370 . S
C550 C554 1.524 . S
C551 C543 1.503 . S
C551 C550 1.370 . S
C551 C552 1.403 . S
C552 C551 1.403 . S
C552 C553 1.404 . S
C552 C555 1.539 . S
C553 C549 1.408 . S
C553 C552 1.404 . S
C553 H565 0.930 . S
C554 C550 1.524 . S
C554 H566 0.956 . S
C554 H567 0.961 . S
C554 H568 0.961 . S
C555 C552 1.539 . S
C555 H569 0.958 . S
C555 H570 0.961 . S
C555 H571 0.960 . S
H556 C540 0.931 . S
H557 C545 0.929 . S
H558 C546 0.960 . S
H559 C546 0.962 . S
H560 C546 0.960 . S
H561 C547 0.961 . S
H562 C547 0.961 . S
H563 C547 0.961 . S
H564 C548 0.931 . S
H565 C553 0.930 . S
H566 C554 0.956 . S
H567 C554 0.961 . S
H568 C554 0.961 . S
H569 C555 0.958 . S
H570 C555 0.961 . S
H571 C555 0.960 . S
C572 C573 1.391 . S
C572 C574 1.394 . S
C572 H588 0.931 . S
C573 C572 1.391 . S
C573 C577 1.376 . S
C574 C572 1.394 . S
C574 C575 1.369 . S
C574 C578 1.531 . S
C575 C574 1.369 . S
C575 C576 1.410 . S
C575 C583 1.503 . S
C576 C575 1.410 . S
C576 C577 1.392 . S
C576 C579 1.511 . S
C577 C573 1.376 . S
C577 C576 1.392 . S
C577 H589 0.929 . S
C578 C574 1.531 . S
C578 H590 0.960 . S
C578 H591 0.962 . S
C578 H592 0.960 . S
C579 C576 1.511 . S
C579 H593 0.961 . S
C579 H594 0.961 . S
C579 H595 0.961 . S
C580 C581 1.370 . S
C580 C582 1.363 . S
C580 H596 0.931 1_565 S
C581 C580 1.370 . S
C581 C585 1.408 . S
C582 C580 1.363 . S
C582 C583 1.370 . S
C582 C586 1.524 . S
C583 C575 1.503 . S
C583 C582 1.370 . S
C583 C584 1.403 . S
C584 C583 1.403 . S
C584 C585 1.404 . S
C584 C587 1.539 . S
C585 C581 1.408 . S
C585 C584 1.404 . S
C585 H597 0.930 . S
C586 C582 1.524 . S
C586 H598 0.956 . S
C586 H599 0.961 . S
C586 H600 0.961 1_565 S
C587 C584 1.539 . S
C587 H601 0.958 . S
C587 H602 0.961 . S
C587 H603 0.960 . S
H588 C572 0.931 . S
H589 C577 0.929 . S
H590 C578 0.960 . S
H591 C578 0.962 . S
H592 C578 0.960 . S
H593 C579 0.961 . S
H594 C579 0.961 . S
H595 C579 0.961 . S
H596 C580 0.931 1_545 S
H597 C585 0.930 . S
H598 C586 0.956 . S
H599 C586 0.961 . S
H600 C586 0.961 1_545 S
H601 C587 0.958 . S
H602 C587 0.961 . S
H603 C587 0.960 . S
C229 C120 1.645 . S
C221 C43 1.527 . S
C253 C4 1.624 . S
C261 C192 1.638 . S
C285 C17 1.611 . S
C293 C108 1.652 . S
C317 C30 1.648 . S
C325 C204 1.632 . S
C357 C110 1.400 . S
C349 C9 1.554 . S
C389 C191 1.673 . S
C381 C21 1.662 . S
C413 C34 1.612 . S
C421 C107 1.626 . S
C445 C48 1.587 . S
C453 C194 1.415 . S
C485 C206 1.405 . S
C477 C22 1.587 . S
C517 C122 1.400 . S
C509 C35 1.589 1_556 S
C549 C203 1.673 . S
C541 C47 1.660 . S
C573 C8 1.605 . S
C581 C119 1.626 . S
