# Generated by pormake.
# Topology zzz, (3,6)-cn, num edge types: 1
# Building blocks:
#     Node 0, Type 0, BuildingBlock: ESEHIV_clean_linker_0, # of connection points: 3
#     Node 1, Type 0, BuildingBlock: ESEHIV_clean_linker_0, # of connection points: 3
#     Node 2, Type 0, BuildingBlock: ESEHIV_clean_linker_0, # of connection points: 3
#     Node 3, Type 0, BuildingBlock: ESEHIV_clean_linker_0, # of connection points: 3
#     Node 4, Type 0, BuildingBlock: ESEHIV_clean_linker_0, # of connection points: 3
#     Node 5, Type 0, BuildingBlock: ESEHIV_clean_linker_0, # of connection points: 3
#     Node 6, Type 0, BuildingBlock: ESEHIV_clean_linker_0, # of connection points: 3
#     Node 7, Type 0, BuildingBlock: ESEHIV_clean_linker_0, # of connection points: 3
#     Node 8, Type 1, BuildingBlock: PAMTUU_clean_sbu_0, # of connection points: 6
#     Node 9, Type 1, BuildingBlock: PAMTUU_clean_sbu_0, # of connection points: 6
#     Node 10, Type 1, BuildingBlock: PAMTUU_clean_sbu_0, # of connection points: 6
#     Node 11, Type 1, BuildingBlock: PAMTUU_clean_sbu_0, # of connection points: 6
#     Edge 12, Type (0, 1), BuildingBlock: EZIPEK_clean_linker_0, # of connection points: 2
#     Edge 13, Type (0, 1), BuildingBlock: EZIPEK_clean_linker_0, # of connection points: 2
#     Edge 14, Type (0, 1), BuildingBlock: EZIPEK_clean_linker_0, # of connection points: 2
#     Edge 15, Type (0, 1), BuildingBlock: EZIPEK_clean_linker_0, # of connection points: 2
#     Edge 16, Type (0, 1), BuildingBlock: EZIPEK_clean_linker_0, # of connection points: 2
#     Edge 17, Type (0, 1), BuildingBlock: EZIPEK_clean_linker_0, # of connection points: 2
#     Edge 18, Type (0, 1), BuildingBlock: EZIPEK_clean_linker_0, # of connection points: 2
#     Edge 19, Type (0, 1), BuildingBlock: EZIPEK_clean_linker_0, # of connection points: 2
#     Edge 20, Type (0, 1), BuildingBlock: EZIPEK_clean_linker_0, # of connection points: 2
#     Edge 21, Type (0, 1), BuildingBlock: EZIPEK_clean_linker_0, # of connection points: 2
#     Edge 22, Type (0, 1), BuildingBlock: EZIPEK_clean_linker_0, # of connection points: 2
#     Edge 23, Type (0, 1), BuildingBlock: EZIPEK_clean_linker_0, # of connection points: 2
#     Edge 24, Type (0, 1), BuildingBlock: EZIPEK_clean_linker_0, # of connection points: 2
#     Edge 25, Type (0, 1), BuildingBlock: EZIPEK_clean_linker_0, # of connection points: 2
#     Edge 26, Type (0, 1), BuildingBlock: EZIPEK_clean_linker_0, # of connection points: 2
#     Edge 27, Type (0, 1), BuildingBlock: EZIPEK_clean_linker_0, # of connection points: 2
#     Edge 28, Type (0, 1), BuildingBlock: EZIPEK_clean_linker_0, # of connection points: 2
#     Edge 29, Type (0, 1), BuildingBlock: EZIPEK_clean_linker_0, # of connection points: 2
#     Edge 30, Type (0, 1), BuildingBlock: EZIPEK_clean_linker_0, # of connection points: 2
#     Edge 31, Type (0, 1), BuildingBlock: EZIPEK_clean_linker_0, # of connection points: 2
#     Edge 32, Type (0, 1), BuildingBlock: EZIPEK_clean_linker_0, # of connection points: 2
#     Edge 33, Type (0, 1), BuildingBlock: EZIPEK_clean_linker_0, # of connection points: 2
#     Edge 34, Type (0, 1), BuildingBlock: EZIPEK_clean_linker_0, # of connection points: 2
#     Edge 35, Type (0, 1), BuildingBlock: EZIPEK_clean_linker_0, # of connection points: 2
# Relax obj value: 0.511
# Max RMSD: 0.326
# Mean RMSD: 0.214
data_MOF--net-zzz--node1-PAMTUU_clean_sbu_0--node2-ESEHIV_clean_linker_0--edge1-EZIPEK_clean_linker_0
_symmetry_space_group_name_H-M    P1
_symmetry_Int_Tables_number       1
_symmetry_cell_setting            triclinic
loop_
_symmetry_equiv_pos_as_xyz
'x, y, z'
_cell_length_a     31.227372
_cell_length_b     34.536189
_cell_length_c     12.409342
_cell_angle_alpha  104.35765
_cell_angle_beta   90.206536
_cell_angle_gamma 86.455444
loop_
_atom_site_label
_atom_site_type_symbol
_atom_site_fract_x
_atom_site_fract_y
_atom_site_fract_z
_atom_type_partial_charge
H0 H 0.84309 0.42756 0.35657 0.0
H1 H 0.7282 0.43002 0.1705 0.0
H2 H 0.74835 0.52711 0.45908 0.0
C3 C 0.8123 0.4426 0.34683 0.0
C4 C 0.79928 0.4785 0.42418 0.0
C5 C 0.78678 0.42581 0.25616 0.0
C6 C 0.74707 0.44419 0.24143 0.0
C7 C 0.73252 0.48137 0.30889 0.0
C8 C 0.75888 0.49874 0.40346 0.0
H9 H 0.06776 0.79582 0.39718 0.0
H10 H 0.06495 0.67438 0.20613 0.0
H11 H 0.98294 0.7168 0.4967 0.0
C12 C 0.05467 0.76662 0.38384 0.0
C13 C 0.0245 0.76027 0.45983 0.0
C14 C 0.06933 0.73587 0.29293 0.0
C15 C 0.05302 0.69822 0.27595 0.0
C16 C 1.02033 0.69134 0.34493 0.0
C17 C 1.00682 0.72221 0.43999 0.0
H18 H 0.71625 0.06854 0.4842 0.0
H19 H 0.83519 0.06409 0.31152 0.0
H20 H 0.80326 0.96304 0.43742 0.0
C21 C 0.74634 0.0521 0.45387 0.0
C22 C 0.75627 0.01514 0.47922 0.0
C23 C 0.77446 0.06934 0.39388 0.0
C24 C 0.81359 0.04943 0.35479 0.0
C25 C 0.82352 0.00984 0.35915 0.0
C26 C 0.7951 0.99266 0.42608 0.0
H27 H 0.52265 0.7084 0.23416 0.0
H28 H 0.57026 0.82609 0.33338 0.0
H29 H 0.50359 0.78851 0.02194 0.0
C30 C 0.52532 0.73802 0.2202 0.0
C31 C 0.51024 0.74553 0.12123 0.0
C32 C 0.54758 0.76602 0.2963 0.0
C33 C 0.55265 0.80413 0.27549 0.0
C34 C 0.536 0.81284 0.17633 0.0
C35 C 0.51475 0.78309 0.10005 0.0
H36 H 0.19831 0.5814 0.39176 0.0
H37 H 0.31443 0.57693 0.5734 0.0
H38 H 0.29552 0.48512 0.27284 0.0
C39 C 0.22947 0.56655 0.39869 0.0
C40 C 0.24355 0.53262 0.31429 0.0
C41 C 0.25482 0.5822 0.49122 0.0
C42 C 0.29511 0.56391 0.50219 0.0
C43 C 0.30968 0.52774 0.4301 0.0
C44 C 0.2841 0.51222 0.3327 0.0
H45 H 0.98032 0.19345 0.34225 0.0
H46 H 0.97699 0.31636 0.52607 0.0
H47 H 0.07119 0.27135 0.26338 0.0
C48 C 0.99254 0.223 0.35567 0.0
C49 C 0.026 0.2288 0.28787 0.0
C50 C 0.9753 0.25411 0.44231 0.0
C51 C 0.99068 0.29224 0.45939 0.0
C52 C 0.0263 0.29859 0.39879 0.0
C53 C 0.04372 0.26684 0.31082 0.0
H54 H 0.33868 0.92842 0.27317 0.0
H55 H 0.22278 0.93402 0.46025 0.0
H56 H 0.24724 0.03069 0.30876 0.0
C57 C 0.30832 0.94438 0.30312 0.0
C58 C 0.29629 0.98028 0.27277 0.0
C59 C 0.28212 0.92831 0.37087 0.0
C60 C 0.24259 0.94754 0.40958 0.0
C61 C 0.23014 0.98555 0.39636 0.0
C62 C 0.25687 0.00196 0.32431 0.0
H63 H 0.5026 0.30831 0.52909 0.0
H64 H 0.44931 0.19286 0.44109 0.0
H65 H 0.53754 0.22206 0.71506 0.0
C66 C 0.50031 0.27855 0.54233 0.0
C67 C 0.52264 0.26837 0.62972 0.0
C68 C 0.47435 0.2519 0.473 0.0
C69 C 0.46997 0.21363 0.4931 0.0
C70 C 0.49283 0.20262 0.58156 0.0
C71 C 0.51992 0.23001 0.64738 0.0
Tb72 Tb 0.98988 0.00932 0.80837 0.0
Tb73 Tb 0.06671 0.97927 0.94237 0.0
C74 C 0.9686 0.98505 0.03481 0.0
C75 C 0.92054 0.07486 0.68052 0.0
C76 C 0.90774 0.15029 0.63524 0.0
C77 C 0.87398 0.1339 0.67941 0.0
C78 C 0.88025 0.09601 0.70078 0.0
C79 C 0.95422 0.09166 0.63725 0.0
C80 C 0.94764 0.12873 0.61333 0.0
C81 C 0.92822 0.03667 0.71139 0.0
O82 O 1.00472 0.06251 0.93749 0.0
O83 O 0.07279 0.04393 0.98072 0.0
O84 O 0.0962 0.98158 0.78194 0.0
O85 O 0.04785 0.02472 0.7261 0.0
O86 O 0.10007 0.97767 0.08869 0.0
O87 O 0.12548 0.94559 0.92833 0.0
O88 O 0.03368 0.92509 0.86867 0.0
O89 O 1.00284 0.94576 0.72409 0.0
O90 O 0.95621 0.98584 0.93338 0.0
O91 O 1.01022 0.9859 0.05799 0.0
C92 C 0.04121 0.07136 0.98774 0.0
O93 O 0.95947 0.01253 0.6595 0.0
O94 O 0.92908 0.03967 0.81771 0.0
C95 C 0.08618 0.00523 0.71573 0.0
C96 C 0.13593 0.914 0.07151 0.0
C97 C 0.145 0.83758 0.11142 0.0
C98 C 0.17968 0.85288 0.06768 0.0
C99 C 0.17522 0.89123 0.04866 0.0
C100 C 0.10165 0.8987 0.11672 0.0
C101 C 0.10639 0.86107 0.13789 0.0
C102 C 0.12912 0.95114 0.03518 0.0
C103 C 1.01669 0.91671 0.76927 0.0
H104 H 0.8433 0.15059 0.6986 0.0
H105 H 0.85409 0.08363 0.73555 0.0
H106 H 0.98576 0.07629 0.62249 0.0
H107 H 0.97414 0.14114 0.57987 0.0
H108 H 0.20952 0.83492 0.04597 0.0
H109 H 0.20178 0.90247 1.01212 0.0
H110 H 0.07082 0.91536 0.13308 0.0
H111 H 0.07926 0.84956 0.17146 0.0
Tb112 Tb 0.50726 0.97044 0.76513 0.0
Tb113 Tb 0.53494 0.04011 0.97085 0.0
C114 C 0.54271 0.95093 0.99045 0.0
C115 C 0.46129 0.88092 0.57136 0.0
C116 C 0.38973 0.83564 0.50634 0.0
C117 C 0.41702 0.84446 0.42615 0.0
C118 C 0.45218 0.8672 0.45899 0.0
C119 C 0.43923 0.86677 0.65024 0.0
C120 C 0.40425 0.84332 0.61738 0.0
C121 C 0.48873 0.9145 0.60282 0.0
O122 O 0.4464 0.98668 0.86821 0.0
O123 O 0.4728 0.02464 0.03024 0.0
O124 O 0.49299 0.06714 0.86415 0.0
O125 O 0.50922 0.02355 0.69985 0.0
O126 O 0.53921 0.06969 0.13966 0.0
O127 O 0.55305 0.09947 1.01156 0.0
O128 O 0.59595 0.02503 0.86858 0.0
O129 O 0.57408 0.97831 0.71709 0.0
O130 O 0.5195 0.94117 0.9004 0.0
O131 O 0.55825 0.98653 0.02375 0.0
C132 C 0.44123 0.00451 0.97634 0.0
O133 O 0.4686 0.94996 0.62763 0.0
O134 O 0.5203 0.91151 0.67005 0.0
C135 C 0.49815 0.06 0.75629 0.0
C136 C 0.58801 0.12133 0.18197 0.0
C137 C 0.66005 0.15631 0.29208 0.0
C138 C 0.63558 0.17624 0.22515 0.0
C139 C 0.59954 0.15891 0.17091 0.0
C140 C 0.61125 0.10251 0.25337 0.0
C141 C 0.64658 0.12004 0.30879 0.0
C142 C 0.55196 0.10223 0.11803 0.0
C143 C 0.60421 0.00134 0.76745 0.0
H144 H 0.40865 0.8385 0.3393 0.0
H145 H 0.46998 0.87733 0.39772 0.0
H146 H 0.44687 0.87629 0.73767 0.0
H147 H 0.38626 0.8351 0.68146 0.0
H148 H 0.64551 0.20402 0.21056 0.0
H149 H 0.58165 0.17407 0.11676 0.0
H150 H 0.60298 0.07371 0.26433 0.0
H151 H 0.66522 0.10369 0.35881 0.0
Tb152 Tb 0.4857 0.49395 0.95197 0.0
Tb153 Tb 0.55567 0.51359 0.77669 0.0
C154 C 0.45659 0.50206 0.71057 0.0
C155 C 0.43705 0.43238 0.12599 0.0
C156 C 0.43881 0.36398 0.21642 0.0
C157 C 0.42008 0.36292 0.11268 0.0
C158 C 0.41913 0.39667 0.06814 0.0
C159 C 0.45498 0.43353 0.23108 0.0
C160 C 0.4559 0.39976 0.27551 0.0
C161 C 0.43622 0.46829 0.07795 0.0
O162 O 0.50736 0.43951 0.8311 0.0
O163 O 0.57419 0.45219 0.78197 0.0
O164 O 0.59176 0.51966 0.93573 0.0
O165 O 0.54858 0.48821 0.03232 0.0
O166 O 0.57672 0.51165 0.6131 0.0
O167 O 0.60787 0.5467 0.75537 0.0
O168 O 0.51204 0.5657 0.83255 0.0
O169 O 0.48948 0.55903 1.00189 0.0
O170 O 0.44632 0.51057 0.81818 0.0
O171 O 0.49743 0.4937 0.67885 0.0
C172 C 0.54689 0.42704 0.79992 0.0
O173 O 0.46415 0.4949 0.11403 0.0
O174 O 0.43197 0.462 0.97073 0.0
C175 C 0.58535 0.50424 0.02201 0.0
C176 C 0.59914 0.57656 0.60373 0.0
C177 C 0.59049 0.64846 0.53003 0.0
C178 C 0.62072 0.64422 0.61098 0.0
C179 C 0.62507 0.60872 0.64706 0.0
C180 C 0.56919 0.58074 0.52152 0.0
C181 C 0.56487 0.61631 0.48541 0.0
C182 C 0.60299 0.53999 0.64847 0.0
C183 C 0.498 0.58137 0.93382 0.0
H184 H 0.40636 0.33586 0.06587 0.0
H185 H 0.40455 0.39464 0.98778 0.0
H186 H 0.46842 0.46055 0.27917 0.0
H187 H 0.4701 0.40154 0.35623 0.0
H188 H 0.64095 0.66845 0.64636 0.0
H189 H 0.64857 0.60655 0.71006 0.0
H190 H 0.54887 0.55667 0.48553 0.0
H191 H 0.54147 0.61877 0.42239 0.0
Tb192 Tb 0.03654 0.53781 0.80533 0.0
Tb193 Tb 1.01535 0.46271 0.89654 0.0
C194 C 0.99718 0.54955 0.0446 0.0
C195 C 0.07666 0.63204 0.7564 0.0
C196 C 0.14894 0.67673 0.76363 0.0
C197 C 0.13607 0.66436 0.85852 0.0
C198 C 0.10081 0.64102 0.85344 0.0
C199 C 0.08307 0.65206 0.67381 0.0
C200 C 0.11888 0.6744 0.67696 0.0
C201 C 0.05058 0.59732 0.73028 0.0
O202 O 0.09727 0.5254 0.89311 0.0
O203 O 0.07264 0.48375 0.99412 0.0
O204 O 0.06647 0.44637 0.77231 0.0
O205 O 0.03818 0.48421 0.66667 0.0
O206 O 1.00679 0.43202 0.02016 0.0
O207 O 1.01037 0.40049 0.84707 0.0
O208 O 0.96083 0.46775 0.78034 0.0
O209 O 0.96783 0.5317 0.76497 0.0
O210 O 0.0243 0.56146 0.98136 0.0
O211 O 0.98214 0.5136 0.0153 0.0
C212 C 0.10274 0.50649 0.97444 0.0
O213 O 0.07207 0.56259 0.69937 0.0
O214 O 1.01946 0.59699 0.79963 0.0
C215 C 0.05914 0.45093 0.67252 0.0
C216 C 0.97004 0.37246 0.9669 0.0
C217 C 0.89735 0.33329 1.00435 0.0
C218 C 0.91529 0.32585 0.89688 0.0
C219 C 0.95124 0.34558 0.87806 0.0
C220 C 0.95581 0.3754 0.07552 0.0
C221 C 0.91995 0.35603 0.09431 0.0
C222 C 1.00434 0.39755 0.94842 0.0
C223 C 0.94633 0.49897 0.74264 0.0
H224 H 0.15565 0.66823 0.93171 0.0
H225 H 0.09471 0.62729 0.92085 0.0
H226 H 0.06284 0.64697 0.60147 0.0
H227 H 0.1253 0.68494 0.60392 0.0
H228 H 0.89993 0.30717 0.82635 0.0
H229 H 0.96284 0.34134 0.79354 0.0
H230 H 0.97075 0.39483 0.14561 0.0
H231 H 0.90756 0.36248 0.17872 0.0
C232 C 0.19591 0.02167 0.58546 0.0
C233 C 0.19038 0.00524 0.46902 0.0
C234 C 0.11338 0.99648 0.51181 0.0
C235 C 0.12021 0.00954 0.62896 0.0
N236 N 0.16544 0.04397 0.77375 0.0
N237 N 0.14285 0.97895 0.32173 0.0
C238 C 0.16084 0.02489 0.66424 0.0
C239 C 0.14839 0.99412 0.43282 0.0
N240 N 0.23594 0.03223 0.62142 0.0
N241 N 0.07333 0.98582 0.47595 0.0
H242 H 0.167 0.97863 0.26349 0.0
H243 H 0.11509 0.96643 0.28726 0.0
H244 H 0.04812 0.98533 0.53027 0.0
H245 H 0.06395 0.97904 0.39332 0.0
H246 H 0.24496 0.03922 0.70442 0.0
H247 H 0.261 0.03255 0.56625 0.0
H248 H 0.19216 0.0593 0.80562 0.0
H249 H 0.14068 0.04741 0.8322 0.0
C250 C 0.52341 0.13308 0.57784 0.0
C251 C 0.48934 0.16279 0.60891 0.0
C252 C 0.45661 0.12093 0.71754 0.0
C253 C 0.49376 0.09397 0.6992 0.0
N254 N 0.56592 0.07858 0.62361 0.0
N255 N 0.42499 0.18706 0.71702 0.0
C256 C 0.52786 0.10089 0.63125 0.0
C257 C 0.45616 0.15714 0.68063 0.0
N258 N 0.55181 0.1357 0.49688 0.0
N259 N 0.42115 0.11135 0.76719 0.0
H260 H 0.42286 0.21324 0.68917 0.0
H261 H 0.40299 0.18709 0.77989 0.0
H262 H 0.41992 0.08479 0.79246 0.0
H263 H 0.3917 0.12768 0.77347 0.0
H264 H 0.57489 0.11299 0.46278 0.0
H265 H 0.54963 0.15887 0.4564 0.0
H266 H 0.59362 0.08538 0.58748 0.0
H267 H 0.57136 0.05551 0.66282 0.0
C268 C 0.39082 0.52581 0.46041 0.0
C269 C 0.35098 0.50884 0.46974 0.0
C270 C 0.3837 0.48072 0.62065 0.0
C271 C 0.4213 0.50247 0.62246 0.0
N272 N 0.45769 0.54964 0.54654 0.0
N273 N 0.31202 0.46672 0.55879 0.0
C274 C 0.42436 0.52543 0.54128 0.0
C275 C 0.34845 0.48525 0.5488 0.0
N276 N 0.39639 0.54267 0.37333 0.0
N277 N 0.381 0.45522 0.68825 0.0
H278 H 0.28512 0.46778 0.50912 0.0
H279 H 0.28512 0.46778 0.50912 0.0
H280 H 0.40627 0.44909 0.73788 0.0
H281 H 0.35408 0.43893 0.69056 0.0
H282 H 0.42561 0.55217 0.35296 0.0
H283 H 0.37248 0.5432 0.31456 0.0
H284 H 0.45972 0.57031 0.49864 0.0
H285 H 0.48157 0.55195 0.60619 0.0
C286 C 0.07927 0.34148 0.51984 0.0
C287 C 0.0463 0.33793 0.43912 0.0
C288 C 0.0375 0.41154 0.47882 0.0
C289 C 0.06363 0.41465 0.5742 0.0
N290 N 0.12462 0.38519 0.64984 0.0
N291 N 0.99324 0.36966 0.34272 0.0
C292 C 0.08932 0.38027 0.58367 0.0
C293 C 0.02579 0.37305 0.41751 0.0
N294 N 0.09872 0.30767 0.54124 0.0
N295 N 0.02637 0.44482 0.44191 0.0
H296 H 0.98551 0.34219 0.29155 0.0
H297 H 0.97235 0.3938 0.33723 0.0
H298 H 0.03976 0.47212 0.47441 0.0
H299 H 1.00956 0.44396 0.36877 0.0
H300 H 0.11862 0.30782 0.60877 0.0
H301 H 0.09325 0.27895 0.49413 0.0
H302 H 0.14691 0.36204 0.65484 0.0
H303 H 0.13433 0.41353 0.68968 0.0
C304 C 0.85977 0.96906 0.17394 0.0
C305 C 0.86365 0.99039 0.28751 0.0
C306 C 0.93675 0.00719 0.23795 0.0
C307 C 0.934 0.98428 0.12503 0.0
N308 N 0.89543 0.93357 0.99975 0.0
N309 N 0.91216 0.01906 0.42995 0.0
C310 C 0.8962 0.96229 0.09755 0.0
C311 C 0.90442 0.0055 0.31959 0.0
N312 N 0.8206 0.95636 0.1371 0.0
N313 N 0.96809 0.03362 0.26704 0.0
H314 H 0.88919 0.01839 0.49028 0.0
H315 H 0.94269 0.02591 0.45973 0.0
H316 H 0.99011 0.03893 0.21052 0.0
H317 H 0.96901 0.05389 0.34464 0.0
H318 H 0.81384 0.94525 0.05322 0.0
H319 H 0.79427 0.95917 0.19067 0.0
H320 H 0.87066 0.9143 0.97876 0.0
H321 H 0.92183 0.92581 0.94585 0.0
C322 C 0.58059 0.85944 0.09873 0.0
C323 C 0.5414 0.8521 0.14675 0.0
C324 C 0.51044 0.91682 0.12427 0.0
C325 C 0.54668 0.92124 0.06101 0.0
N326 N 0.61626 0.89606 0.98368 0.0
N327 N 0.46606 0.87094 0.18343 0.0
C328 C 0.58207 0.89254 0.04815 0.0
C329 C 0.50555 0.88009 0.1538 0.0
N330 N 0.61608 0.8343 0.09918 0.0
N331 N 0.48097 0.94828 0.15867 0.0
H332 H 0.4608 0.84443 0.20558 0.0
H333 H 0.438 0.88822 0.17738 0.0
H334 H 0.48575 0.97634 0.14577 0.0
H335 H 0.45533 0.94801 0.21197 0.0
H336 H 0.64658 0.83993 0.07565 0.0
H337 H 0.61561 0.80887 0.13006 0.0
H338 H 0.64101 0.87401 0.95953 0.0
H339 H 0.61872 0.92063 0.94966 0.0
C340 C 0.65457 0.47259 0.25432 0.0
C341 C 0.68956 0.49789 0.26957 0.0
C342 C 0.65055 0.53431 0.14381 0.0
C343 C 0.62125 0.50317 0.10946 0.0
N344 N 0.60706 0.43599 0.11777 0.0
N345 N 0.72117 0.5525 0.21785 0.0
C346 C 0.62599 0.4708 0.16241 0.0
C347 C 0.68741 0.52888 0.21164 0.0
N348 N 0.6503 0.44811 0.32407 0.0
N349 N 0.6426 0.56985 0.11602 0.0
H350 H 0.74741 0.5503 0.26872 0.0
H351 H 0.72399 0.57249 0.16802 0.0
H352 H 0.61495 0.57614 0.07479 0.0
H353 H 0.66071 0.59455 0.14565 0.0
H354 H 0.62388 0.4309 0.32223 0.0
H355 H 0.67099 0.44859 0.39067 0.0
H356 H 0.61162 0.41059 0.14863 0.0
H357 H 0.59315 0.43041 0.03964 0.0
C358 C 0.96386 0.64739 0.24511 0.0
C359 C 1.00171 0.6511 0.31 0.0
C360 C 1.0189 0.57869 0.2387 0.0
C361 C 0.98777 0.57765 0.1553 0.0
N362 N 0.92716 0.60873 0.08381 0.0
N363 N 0.06548 0.61982 0.36989 0.0
C364 C 0.95841 0.61111 0.16201 0.0
C365 C 0.02857 0.61624 0.30981 0.0
N366 N 0.93431 0.67912 0.25972 0.0
N367 N 0.04034 0.54381 0.24601 0.0
H368 H 0.07369 0.64707 0.42117 0.0
H369 H 0.08908 0.59669 0.36361 0.0
H370 H 0.03314 0.51628 0.19421 0.0
H371 H 0.06164 0.54171 0.30938 0.0
H372 H 0.90469 0.67779 0.22072 0.0
H373 H 0.938 0.70602 0.31855 0.0
H374 H 0.90751 0.63307 0.0742 0.0
H375 H 0.92191 0.58189 0.02579 0.0
C376 C 0.90613 0.22532 0.46824 0.0
C377 C 0.94292 0.24444 0.51754 0.0
C378 C 0.93078 0.21903 0.68118 0.0
C379 C 0.90416 0.19094 0.61651 0.0
N380 N 0.85848 0.17236 0.45765 0.0
N381 N 0.98972 0.26056 0.67733 0.0
C382 C 0.88842 0.19638 0.51435 0.0
C383 C 0.95415 0.24309 0.62801 0.0
N384 N 0.88995 0.23169 0.37177 0.0
N385 N 0.93569 0.22029 0.79121 0.0
H386 H 1.0087 0.27797 0.64219 0.0
H387 H 1.002 0.25593 0.75159 0.0
H388 H 0.91917 0.2017 0.82911 0.0
H389 H 0.95223 0.24212 0.84563 0.0
H390 H 0.90167 0.25254 0.33291 0.0
H391 H 0.90167 0.25254 0.33291 0.0
H392 H 0.84708 0.17489 0.38031 0.0
H393 H 0.84513 0.15043 0.48912 0.0
C394 C 0.30732 0.85479 0.33038 0.0
C395 C 0.29718 0.89214 0.40871 0.0
C396 C 0.31558 0.85939 0.55619 0.0
C397 C 0.34277 0.83174 0.48115 0.0
N398 N 0.34605 0.78885 0.29821 0.0
N399 N 0.29294 0.92913 0.60405 0.0
C400 C 0.33076 0.82385 0.36824 0.0
C401 C 0.30052 0.89414 0.52464 0.0
N402 N 0.29519 0.84951 0.22219 0.0
N403 N 0.30598 0.85317 0.65708 0.0
H404 H 0.28621 0.95667 0.58566 0.0
H405 H 0.2981 0.93109 0.68831 0.0
H406 H 0.31585 0.82633 0.67689 0.0
H407 H 0.2848 0.87252 0.71338 0.0
H408 H 0.30081 0.82287 0.16155 0.0
H409 H 0.277 0.87149 0.19467 0.0
H410 H 0.34154 0.7813 0.21263 0.0
H411 H 0.36401 0.7675 0.32914 0.0
C412 C 0.57821 0.31828 0.65543 0.0
C413 C 0.54594 0.30064 0.70408 0.0
C414 C 0.53524 0.36274 0.84922 0.0
C415 C 0.5578 0.38306 0.7825 0.0
N416 N 0.61134 0.37719 0.63638 0.0
N417 N 0.49519 0.30552 0.85358 0.0
C418 C 0.58323 0.35999 0.69153 0.0
C419 C 0.52609 0.32221 0.80529 0.0
N420 N 0.60247 0.29611 0.56836 0.0
N421 N 0.52211 0.38247 0.9544 0.0
H422 H 0.48858 0.27549 0.82744 0.0
H423 H 0.47453 0.32208 0.91615 0.0
H424 H 0.52748 0.41239 0.98919 0.0
H425 H 0.50965 0.3682 1.01077 0.0
H426 H 0.6004 0.26527 0.5374 0.0
H427 H 0.6004 0.26527 0.5374 0.0
H428 H 0.62891 0.36075 0.56682 0.0
H429 H 0.61887 0.40692 0.66204 0.0
C430 C 0.227 0.65451 0.55301 0.0
C431 C 0.23893 0.61771 0.58024 0.0
C432 C 0.22339 0.6508 0.7743 0.0
C433 C 0.19589 0.6789 0.73935 0.0
N434 N 0.19543 0.72333 0.62021 0.0
N435 N 0.24712 0.58118 0.72476 0.0
C436 C 0.20681 0.68655 0.63668 0.0
C437 C 0.23789 0.61602 0.69386 0.0
N438 N 0.23376 0.65694 0.44669 0.0
N439 N 0.23464 0.65718 0.88295 0.0
H440 H 0.25362 0.55368 0.66793 0.0
H441 H 0.24361 0.57922 0.80678 0.0
H442 H 0.22504 0.68397 0.94029 0.0
H443 H 0.25646 0.63793 0.91134 0.0
H444 H 0.22457 0.68174 0.41636 0.0
H445 H 0.22457 0.68174 0.41636 0.0
H446 H 0.20355 0.73261 0.5498 0.0
H447 H 0.17953 0.74529 0.6831 0.0
C448 C 0.09212 0.7471 0.10857 0.0
C449 C 0.10262 0.74432 0.21826 0.0
C450 C 0.16134 0.78814 0.2236 0.0
C451 C 0.146 0.79615 0.12393 0.0
N452 N 0.11234 0.77149 0.94904 0.0
N453 N 0.15662 0.75109 0.36149 0.0
C454 C 0.11729 0.77061 0.0577 0.0
C455 C 0.14099 0.76006 0.2675 0.0
N456 N 0.05606 0.73113 0.05796 0.0
N457 N 0.19354 0.80904 0.28017 0.0
H458 H 0.14326 0.7304 0.39819 0.0
H459 H 0.14326 0.7304 0.39819 0.0
H460 H 0.20906 0.8301 0.24977 0.0
H461 H 0.2047 0.80467 0.35599 0.0
H462 H 0.04453 0.73629 0.98362 0.0
H463 H 0.03616 0.71418 0.09224 0.0
H464 H 0.09381 0.75198 0.89309 0.0
H465 H 0.13047 0.78963 0.91337 0.0
C466 C 0.74586 0.14075 0.45909 0.0
C467 C 0.76134 0.10845 0.36986 0.0
C468 C 0.73433 0.14684 0.24128 0.0
C469 C 0.7044 0.16664 0.32345 0.0
N470 N 0.69069 0.19512 0.51625 0.0
N471 N 0.76977 0.08192 0.16864 0.0
C472 C 0.71482 0.16925 0.43529 0.0
C473 C 0.75725 0.11235 0.25825 0.0
N474 N 0.75921 0.14265 0.56492 0.0
N475 N 0.73559 0.15741 0.14282 0.0
H476 H 0.78262 0.05402 0.17422 0.0
H477 H 0.76333 0.08315 0.08702 0.0
H478 H 0.71666 0.1819 0.13038 0.0
H479 H 0.75807 0.14449 0.08028 0.0
H480 H 0.7505 0.16639 0.63255 0.0
H481 H 0.78201 0.1217 0.58236 0.0
H482 H 0.6929 0.19597 0.60052 0.0
H483 H 0.66742 0.21507 0.49565 0.0
C484 C 0.46033 0.6914 0.05399 0.0
C485 C 0.49795 0.71002 0.03539 0.0
C486 C 0.53384 0.64512 0.95234 0.0
C487 C 0.49681 0.62573 0.97174 0.0
N488 N 0.42127 0.63073 0.01656 0.0
N489 N 0.56603 0.70423 0.93786 0.0
C490 C 0.45875 0.64897 0.01492 0.0
C491 C 0.5322 0.68696 0.97173 0.0
N492 N 0.42733 0.71431 0.11458 0.0
N493 N 0.57199 0.62386 0.92126 0.0
H494 H 0.56747 0.73502 0.94807 0.0
H495 H 0.56747 0.73502 0.94807 0.0
H496 H 0.5769 0.59396 0.92267 0.0
H497 H 0.59963 0.63713 0.90509 0.0
H498 H 0.40097 0.70255 0.14322 0.0
H499 H 0.42754 0.74551 0.13922 0.0
H500 H 0.39171 0.6464 0.03808 0.0
H501 H 0.41925 0.59984 0.98819 0.0
C502 C 0.8137 0.3529 0.19901 0.0
C503 C 0.80274 0.38975 0.17038 0.0
C504 C 0.8249 0.35729 0.97994 0.0
C505 C 0.85078 0.32948 0.02054 0.0
N506 N 0.85443 0.28902 0.15134 0.0
N507 N 0.80004 0.42667 0.02615 0.0
C508 C 0.83851 0.3226 0.1229 0.0
C509 C 0.80774 0.39172 0.05768 0.0
N510 N 0.8025 0.3465 0.29871 0.0
N511 N 0.81957 0.35211 0.86851 0.0
H512 H 0.79155 0.45402 0.0816 0.0
H513 H 0.80662 0.42907 0.94588 0.0
H514 H 0.83126 0.32592 0.81211 0.0
H515 H 0.79946 0.37131 0.83515 0.0
H516 H 0.78366 0.36705 0.35843 0.0
H517 H 0.78366 0.36705 0.35843 0.0
H518 H 0.84704 0.28311 0.2274 0.0
H519 H 0.8741 0.26745 0.09629 0.0
C520 C 0.06352 0.1604 0.23454 0.0
C521 C 0.04243 0.19266 0.19961 0.0
C522 C 0.03238 0.14695 0.01527 0.0
C523 C 0.04581 0.11341 0.05762 0.0
N524 N 0.06878 0.08895 0.21687 0.0
N525 N 1.00476 0.21651 0.05708 0.0
C526 C 0.06073 0.12032 0.1692 0.0
C527 C 0.0268 0.18599 0.08941 0.0
N528 N 0.0853 0.1682 0.3324 0.0
N529 N 0.02585 0.14168 0.90375 0.0
H530 H 1.00163 0.24565 0.10736 0.0
H531 H 0.98768 0.21235 0.98338 0.0
H532 H 0.03117 0.11398 0.84678 0.0
H533 H 1.0195 0.16529 0.86645 0.0
H534 H 0.10465 0.14663 0.35832 0.0
H535 H 0.08746 0.19729 0.38167 0.0
H536 H 0.07505 0.09267 0.30121 0.0
H537 H 0.06487 0.05924 0.17597 0.0
C538 C 0.33855 0.96263 0.08534 0.0
C539 C 0.32703 0.99166 0.18698 0.0
C540 C 0.38303 0.03303 0.13382 0.0
C541 C 0.39958 1.00087 0.04348 0.0
N542 N 0.39537 0.93047 0.95465 0.0
N543 N 0.34505 0.05337 0.31277 0.0
C544 C 0.37761 0.96458 0.02458 0.0
C545 C 0.35109 0.02663 0.212 0.0
N546 N 0.31172 0.93273 0.04539 0.0
N547 N 0.39637 0.07061 0.14325 0.0
H548 H 0.3225 0.05004 0.371 0.0
H549 H 0.36481 0.0769 0.34174 0.0
H550 H 0.41679 0.07734 0.08508 0.0
H551 H 0.38305 0.09581 0.20047 0.0
H552 H 0.31589 0.91283 0.96736 0.0
H553 H 0.28271 0.93086 0.08479 0.0
H554 H 0.38313 0.90249 0.94633 0.0
H555 H 0.42508 0.92894 0.91571 0.0
C556 C 0.41852 0.29743 0.41397 0.0
C557 C 0.45256 0.26749 0.38301 0.0
C558 C 0.4723 0.29614 0.22875 0.0
C559 C 0.44028 0.32795 0.2646 0.0
N560 N 0.37623 0.35355 0.37276 0.0
N561 N 0.50313 0.23119 0.2445 0.0
C562 C 0.41102 0.32666 0.35097 0.0
C563 C 0.47613 0.26432 0.28374 0.0
N564 N 0.39527 0.29915 0.50825 0.0
N565 N 0.50077 0.29765 0.14685 0.0
H566 H 0.50639 0.20801 0.28485 0.0
H567 H 0.51889 0.22488 0.16782 0.0
H568 H 0.49891 0.32032 0.10505 0.0
H569 H 0.52772 0.27801 0.12476 0.0
H570 H 0.37358 0.32277 0.5451 0.0
H571 H 0.39899 0.27688 0.55176 0.0
H572 H 0.35169 0.35255 0.42831 0.0
H573 H 0.3702 0.37538 0.32869 0.0
C574 C 0.19331 0.48494 0.17839 0.0
C575 C 0.21392 0.52179 0.21079 0.0
C576 C 0.16136 0.54915 0.09084 0.0
C577 C 0.14312 0.51136 0.05025 0.0
N578 N 0.15238 0.44042 0.03778 0.0
N579 N 0.22388 0.58476 0.16633 0.0
C580 C 0.16232 0.47847 0.08903 0.0
C581 C 0.19996 0.5523 0.15624 0.0
N582 N 0.20156 0.45641 0.23581 0.0
N583 N 0.14034 0.5831 0.07504 0.0
H584 H 0.25266 0.58761 0.20981 0.0
H585 H 0.21768 0.60623 0.12126 0.0
H586 H 0.11047 0.58312 0.03765 0.0
H587 H 0.14991 0.61174 0.1117 0.0
H588 H 0.1841 0.431 0.22499 0.0
H589 H 0.22334 0.45983 0.3008 0.0
H590 H 0.16788 0.4151 0.05518 0.0
H591 H 0.13253 0.43397 0.96871 0.0
C592 C 0.97917 0.82202 0.56385 0.0
C593 C 1.01508 0.79445 0.56071 0.0
C594 C 0.05129 0.84583 0.69779 0.0
C595 C 1.0149 0.87349 0.70411 0.0
N596 N 0.93964 0.88284 0.66563 0.0
N597 N 0.07909 0.77635 0.64902 0.0
C598 C 0.97737 0.85998 0.64403 0.0
C599 C 0.04869 0.80513 0.63728 0.0
N600 N 0.94757 0.81269 0.48719 0.0
N601 N 0.08973 0.85885 0.74042 0.0
H602 H 0.0779 0.7465 0.60477 0.0
H603 H 0.10246 0.78123 0.71018 0.0
H604 H 0.09479 0.88881 0.77522 0.0
H605 H 0.11807 0.84068 0.72908 0.0
H606 H 0.92323 0.8333 0.47596 0.0
H607 H 0.94718 0.78477 0.4306 0.0
H608 H 0.91048 0.87308 0.63173 0.0
H609 H 0.93664 0.90979 0.72659 0.0
C610 C 0.69741 0.97194 0.5384 0.0
C611 C 0.72431 0.00488 0.56431 0.0
C612 C 0.6731 0.03611 0.72226 0.0
C613 C 0.64778 0.00172 0.70303 0.0
N614 N 0.64848 0.93131 0.60829 0.0
N615 N 0.74335 0.06158 0.70854 0.0
C616 C 0.66372 0.96804 0.6155 0.0
C617 C 0.71395 0.03439 0.66571 0.0
N618 N 0.70275 0.94463 0.43846 0.0
N619 N 0.65737 0.07201 0.78758 0.0
H620 H 0.77353 0.06071 0.67174 0.0
H621 H 0.73961 0.08165 0.78644 0.0
H622 H 0.62655 0.07704 0.82137 0.0
H623 H 0.6729 0.09842 0.79546 0.0
H624 H 0.6813 0.92255 0.40905 0.0
H625 H 0.72679 0.9461 0.38178 0.0
H626 H 0.66094 0.90537 0.55235 0.0
H627 H 0.62787 0.9258 0.66787 0.0
C628 C 0.60669 0.72618 0.36188 0.0
C629 C 0.56811 0.75058 0.3883 0.0
C630 C 0.5522 0.71561 0.53298 0.0
C631 C 0.58591 0.68625 0.49036 0.0
N632 N 0.64624 0.66359 0.36519 0.0
N633 N 0.50521 0.7709 0.50332 0.0
C634 C 0.61402 0.69199 0.40651 0.0
C635 C 0.54175 0.74654 0.47731 0.0
N636 N 0.63551 0.73526 0.29083 0.0
N637 N 0.5302 0.71371 0.62634 0.0
H638 H 0.49832 0.79458 0.46642 0.0
H639 H 0.48143 0.76702 0.55757 0.0
H640 H 0.53697 0.69127 0.66795 0.0
H641 H 0.50773 0.7359 0.66759 0.0
H642 H 0.66586 0.72084 0.27323 0.0
H643 H 0.63029 0.76007 0.25754 0.0
H644 H 0.66494 0.66352 0.29591 0.0
H645 H 0.65282 0.63849 0.39642 0.0
C646 C 0.83084 0.47772 0.6179 0.0
C647 C 0.83126 0.49258 0.52008 0.0
C648 C 0.90704 0.50984 0.56526 0.0
C649 C 0.90601 0.49712 0.66702 0.0
N650 N 0.86156 0.47674 0.79859 0.0
N651 N 0.8681 0.5301 0.41489 0.0
C652 C 0.86631 0.48324 0.69534 0.0
C653 C 0.86882 0.51114 0.49932 0.0
N654 N 0.79686 0.45693 0.63549 0.0
N655 N 0.94539 0.51811 0.52611 0.0
H656 H 0.84117 0.53123 0.36542 0.0
H657 H 0.8922 0.54795 0.40127 0.0
H658 H 0.97428 0.51602 0.56685 0.0
H659 H 0.94952 0.52288 0.44727 0.0
H660 H 0.79648 0.44075 0.696 0.0
H661 H 0.7699 0.45408 0.5848 0.0
H662 H 0.83232 0.47102 0.82963 0.0
H663 H 0.88583 0.48103 0.8575 0.0
loop_
_geom_bond_atom_site_label_1
_geom_bond_atom_site_label_2
_geom_bond_distance
_geom_bond_site_symmetry_2
_ccdc_geom_bond_type
H0 C3 0.931 . S
H1 C6 0.928 . S
H2 C8 0.930 . S
C3 H0 0.931 . S
C3 C4 1.413 . S
C3 C5 1.360 . S
C4 C3 1.413 . S
C4 C8 1.429 . S
C5 C3 1.360 . S
C5 C6 1.372 . S
C6 H1 0.928 . S
C6 C5 1.372 . S
C6 C7 1.404 . S
C7 C6 1.404 . S
C7 C8 1.391 . S
C8 H2 0.930 . S
C8 C4 1.429 . S
C8 C7 1.391 . S
H9 C12 0.931 . S
H10 C15 0.928 . S
H11 C17 0.931 . S
C12 H9 0.931 . S
C12 C13 1.414 . S
C12 C14 1.360 . S
C13 C12 1.414 . S
C13 C17 1.430 1_655 S
C14 C12 1.360 . S
C14 C15 1.374 . S
C15 H10 0.928 . S
C15 C14 1.374 . S
C15 C16 1.404 . S
C16 C15 1.404 . S
C16 C17 1.390 1_655 S
C17 H11 0.931 . S
C17 C13 1.430 1_455 S
C17 C16 1.390 1_455 S
H18 C21 0.930 . S
H19 C24 0.928 . S
H20 C26 0.934 . S
C21 H18 0.930 . S
C21 C22 1.415 . S
C21 C23 1.360 . S
C22 C21 1.415 . S
C22 C26 1.428 1_565 S
C23 C21 1.360 . S
C23 C24 1.370 . S
C24 H19 0.928 . S
C24 C23 1.370 . S
C24 C25 1.402 . S
C25 C24 1.402 . S
C25 C26 1.395 1_565 S
C26 H20 0.934 . S
C26 C22 1.428 1_545 S
C26 C25 1.395 1_545 S
H27 C30 0.931 . S
H28 C33 0.928 . S
H29 C35 0.930 . S
C30 H27 0.931 . S
C30 C31 1.413 1_554 S
C30 C32 1.360 . S
C31 C30 1.413 1_556 S
C31 C35 1.429 . S
C32 C30 1.360 . S
C32 C33 1.372 . S
C33 H28 0.928 . S
C33 C32 1.372 . S
C33 C34 1.404 1_554 S
C34 C33 1.404 1_556 S
C34 C35 1.391 . S
C35 H29 0.930 . S
C35 C31 1.429 . S
C35 C34 1.391 . S
H36 C39 0.931 . S
H37 C42 0.928 . S
H38 C44 0.930 . S
C39 H36 0.931 . S
C39 C40 1.413 . S
C39 C41 1.360 . S
C40 C39 1.413 . S
C40 C44 1.429 . S
C41 C39 1.360 . S
C41 C42 1.372 . S
C42 H37 0.928 . S
C42 C41 1.372 . S
C42 C43 1.404 . S
C43 C42 1.404 . S
C43 C44 1.391 . S
C44 H38 0.930 . S
C44 C40 1.429 . S
C44 C43 1.391 . S
H45 C48 0.930 . S
H46 C51 0.928 . S
H47 C53 0.931 . S
C48 H45 0.930 . S
C48 C49 1.413 . S
C48 C50 1.360 . S
C49 C48 1.413 . S
C49 C53 1.428 1_655 S
C50 C48 1.360 . S
C50 C51 1.371 . S
C51 H46 0.928 . S
C51 C50 1.371 . S
C51 C52 1.404 . S
C52 C51 1.404 . S
C52 C53 1.391 1_655 S
C53 H47 0.931 . S
C53 C49 1.428 1_455 S
C53 C52 1.391 1_455 S
H54 C57 0.931 . S
H55 C60 0.928 . S
H56 C62 0.932 . S
C57 H54 0.931 . S
C57 C58 1.412 . S
C57 C59 1.360 . S
C58 C57 1.412 . S
C58 C62 1.431 1_565 S
C59 C57 1.360 . S
C59 C60 1.374 . S
C60 H55 0.928 . S
C60 C59 1.374 . S
C60 C61 1.405 . S
C61 C60 1.405 . S
C61 C62 1.386 1_565 S
C62 H56 0.932 . S
C62 C58 1.431 1_545 S
C62 C61 1.386 1_545 S
H63 C66 0.931 . S
H64 C69 0.928 . S
H65 C71 0.930 . S
C66 H63 0.931 . S
C66 C67 1.413 . S
C66 C68 1.360 . S
C67 C66 1.413 . S
C67 C71 1.429 . S
C68 C66 1.360 . S
C68 C69 1.372 . S
C69 H64 0.928 . S
C69 C68 1.372 . S
C69 C70 1.404 . S
C70 C69 1.404 . S
C70 C71 1.391 . S
C71 H65 0.930 . S
C71 C67 1.429 . S
C71 C70 1.391 . S
Tb72 C81 2.764 . S
Tb72 O82 2.325 . S
Tb72 O85 2.303 1_655 S
Tb72 O89 2.322 1_545 S
Tb72 O90 2.349 . S
Tb72 O93 2.415 . S
Tb72 O94 2.399 . S
Tb73 O83 2.322 1_565 S
Tb73 O84 2.349 . S
Tb73 O86 2.415 1_556 S
Tb73 O87 2.399 . S
Tb73 O88 2.325 . S
Tb73 O91 2.303 1_455 S
Tb73 C102 2.764 1_556 S
C74 O90 1.261 . S
C74 O91 1.257 1_545 S
C75 C78 1.358 . S
C75 C79 1.332 . S
C75 C81 1.504 . S
C76 C77 1.373 . S
C76 C80 1.308 . S
C77 C76 1.373 . S
C77 C78 1.429 . S
C77 H104 0.932 . S
C78 C75 1.358 . S
C78 C77 1.429 . S
C78 H105 0.930 . S
C79 C75 1.332 . S
C79 C80 1.394 . S
C79 H106 0.932 . S
C80 C76 1.308 . S
C80 C79 1.394 . S
C80 H107 0.929 . S
C81 Tb72 2.764 . S
C81 C75 1.504 . S
C81 O93 1.239 . S
C81 O94 1.263 . S
O82 Tb72 2.325 . S
O82 C92 1.236 1_655 S
O83 Tb73 2.322 1_545 S
O83 C92 1.257 . S
O84 Tb73 2.349 . S
O84 C95 1.261 . S
O85 Tb72 2.303 1_455 S
O85 C95 1.257 1_545 S
O86 Tb73 2.415 1_554 S
O86 C102 1.239 . S
O87 Tb73 2.399 . S
O87 C102 1.263 1_556 S
O88 Tb73 2.325 . S
O88 C103 1.236 1_455 S
O89 Tb72 2.322 1_565 S
O89 C103 1.257 . S
O90 Tb72 2.349 . S
O90 C74 1.261 . S
O91 Tb73 2.303 1_655 S
O91 C74 1.257 1_565 S
C92 O82 1.236 1_455 S
C92 O83 1.257 . S
O93 Tb72 2.415 . S
O93 C81 1.239 . S
O94 Tb72 2.399 . S
O94 C81 1.263 . S
C95 O84 1.261 . S
C95 O85 1.257 1_565 S
C96 C99 1.358 . S
C96 C100 1.332 . S
C96 C102 1.504 . S
C97 C98 1.373 . S
C97 C101 1.308 . S
C98 C97 1.373 . S
C98 C99 1.429 . S
C98 H108 0.932 . S
C99 C96 1.358 . S
C99 C98 1.429 . S
C99 H109 0.930 . S
C100 C96 1.332 . S
C100 C101 1.394 . S
C100 H110 0.932 . S
C101 C97 1.308 . S
C101 C100 1.394 . S
C101 H111 0.929 . S
C102 Tb73 2.764 1_554 S
C102 O86 1.239 . S
C102 O87 1.263 1_554 S
C102 C96 1.504 . S
C103 O88 1.236 1_655 S
C103 O89 1.257 . S
H104 C77 0.932 . S
H105 C78 0.930 . S
H106 C79 0.932 . S
H107 C80 0.929 . S
H108 C98 0.932 . S
H109 C99 0.930 . S
H110 C100 0.932 . S
H111 C101 0.929 . S
Tb112 C121 2.764 . S
Tb112 O122 2.325 . S
Tb112 O125 2.303 1_565 S
Tb112 O129 2.322 . S
Tb112 O130 2.349 . S
Tb112 O133 2.415 1_565 S
Tb112 O134 2.399 . S
Tb113 O123 2.322 . S
Tb113 O124 2.349 1_554 S
Tb113 O126 2.415 1_545 S
Tb113 O127 2.399 . S
Tb113 O128 2.325 1_554 S
Tb113 O131 2.303 1_544 S
Tb113 C142 2.764 . S
C114 O130 1.261 . S
C114 O131 1.257 . S
C115 C118 1.358 . S
C115 C119 1.341 . S
C115 C121 1.504 . S
C116 C117 1.373 . S
C116 C120 1.308 . S
C117 C116 1.373 . S
C117 C118 1.429 . S
C117 H144 0.932 . S
C118 C115 1.358 . S
C118 C117 1.429 . S
C118 H145 0.930 . S
C119 C115 1.341 . S
C119 C120 1.394 . S
C119 H146 0.923 1_565 S
C120 C116 1.308 . S
C120 C119 1.394 . S
C120 H147 0.929 1_565 S
C121 Tb112 2.764 . S
C121 C115 1.504 . S
C121 O133 1.239 1_565 S
C121 O134 1.263 . S
O122 Tb112 2.325 . S
O122 C132 1.236 1_565 S
O123 Tb113 2.322 . S
O123 C132 1.257 1_554 S
O124 Tb113 2.349 1_556 S
O124 C135 1.261 . S
O125 Tb112 2.303 1_545 S
O125 C135 1.257 . S
O126 Tb113 2.415 1_565 S
O126 C142 1.239 1_565 S
O127 Tb113 2.399 . S
O127 C142 1.263 . S
O128 Tb113 2.325 1_556 S
O128 C143 1.236 1_545 S
O129 Tb112 2.322 . S
O129 C143 1.257 . S
O130 Tb112 2.349 . S
O130 C114 1.261 . S
O131 Tb113 2.303 1_566 S
O131 C114 1.257 . S
C132 O122 1.236 1_545 S
C132 O123 1.257 1_556 S
O133 Tb112 2.415 1_545 S
O133 C121 1.239 1_545 S
O134 Tb112 2.399 . S
O134 C121 1.263 . S
C135 O124 1.261 . S
C135 O125 1.257 . S
C136 C139 1.358 . S
C136 C140 1.346 . S
C136 C142 1.504 . S
C137 C138 1.373 . S
C137 C141 1.308 . S
C138 C137 1.373 . S
C138 C139 1.429 . S
C138 H148 0.932 . S
C139 C136 1.358 . S
C139 C138 1.429 . S
C139 H149 0.930 . S
C140 C136 1.346 . S
C140 C141 1.394 . S
C140 H150 0.918 1_545 S
C141 C137 1.308 . S
C141 C140 1.394 . S
C141 H151 0.929 1_545 S
C142 Tb113 2.764 . S
C142 O126 1.239 1_545 S
C142 O127 1.263 . S
C142 C136 1.504 . S
C143 O128 1.236 1_565 S
C143 O129 1.257 . S
H144 C117 0.932 . S
H145 C118 0.930 . S
H146 C119 0.923 1_545 S
H147 C120 0.929 1_545 S
H148 C138 0.932 . S
H149 C139 0.930 . S
H150 C140 0.918 1_565 S
H151 C141 0.929 1_565 S
Tb152 C161 2.764 1_556 S
Tb152 O162 2.325 . S
Tb152 O165 2.303 . S
Tb152 O169 2.322 . S
Tb152 O170 2.349 . S
Tb152 O173 2.415 1_556 S
Tb152 O174 2.399 1_556 S
Tb153 O163 2.322 . S
Tb153 O164 2.349 . S
Tb153 O166 2.415 . S
Tb153 O167 2.399 . S
Tb153 O168 2.325 . S
Tb153 O171 2.303 . S
Tb153 C182 2.764 . S
C154 O170 1.261 . S
C154 O171 1.257 . S
C155 C158 1.358 . S
C155 C159 1.332 . S
C155 C161 1.504 . S
C156 C157 1.373 . S
C156 C160 1.308 . S
C157 C156 1.373 . S
C157 C158 1.429 . S
C157 H184 0.932 . S
C158 C155 1.358 . S
C158 C157 1.429 . S
C158 H185 0.930 . S
C159 C155 1.332 . S
C159 C160 1.394 . S
C159 H186 0.932 . S
C160 C156 1.308 . S
C160 C159 1.394 . S
C160 H187 0.929 . S
C161 Tb152 2.764 1_554 S
C161 C155 1.504 . S
C161 O173 1.239 . S
C161 O174 1.263 . S
O162 Tb152 2.325 . S
O162 C172 1.236 . S
O163 Tb153 2.322 . S
O163 C172 1.257 . S
O164 Tb153 2.349 . S
O164 C175 1.261 . S
O165 Tb152 2.303 . S
O165 C175 1.257 . S
O166 Tb153 2.415 . S
O166 C182 1.239 . S
O167 Tb153 2.399 . S
O167 C182 1.263 . S
O168 Tb153 2.325 . S
O168 C183 1.236 . S
O169 Tb152 2.322 . S
O169 C183 1.257 . S
O170 Tb152 2.349 . S
O170 C154 1.261 . S
O171 Tb153 2.303 . S
O171 C154 1.257 . S
C172 O162 1.236 . S
C172 O163 1.257 . S
O173 Tb152 2.415 1_554 S
O173 C161 1.239 . S
O174 Tb152 2.399 1_554 S
O174 C161 1.263 . S
C175 O164 1.261 . S
C175 O165 1.257 . S
C176 C179 1.358 . S
C176 C180 1.332 . S
C176 C182 1.504 . S
C177 C178 1.373 . S
C177 C181 1.308 . S
C178 C177 1.373 . S
C178 C179 1.429 . S
C178 H188 0.932 . S
C179 C176 1.358 . S
C179 C178 1.429 . S
C179 H189 0.930 . S
C180 C176 1.332 . S
C180 C181 1.394 . S
C180 H190 0.932 . S
C181 C177 1.308 . S
C181 C180 1.394 . S
C181 H191 0.929 . S
C182 Tb153 2.764 . S
C182 O166 1.239 . S
C182 O167 1.263 . S
C182 C176 1.504 . S
C183 O168 1.236 . S
C183 O169 1.257 . S
H184 C157 0.932 . S
H185 C158 0.930 . S
H186 C159 0.932 . S
H187 C160 0.929 . S
H188 C178 0.932 . S
H189 C179 0.930 . S
H190 C180 0.932 . S
H191 C181 0.929 . S
Tb192 C201 2.764 . S
Tb192 O202 2.325 . S
Tb192 O205 2.303 . S
Tb192 O209 2.322 1_455 S
Tb192 O210 2.349 . S
Tb192 O213 2.415 . S
Tb192 O214 2.399 . S
Tb193 O203 2.322 1_655 S
Tb193 O204 2.349 . S
Tb193 O206 2.415 1_556 S
Tb193 O207 2.399 1_556 S
Tb193 O208 2.325 . S
Tb193 O211 2.303 . S
Tb193 C222 2.764 1_556 S
C194 O210 1.261 . S
C194 O211 1.257 1_455 S
C195 C198 1.358 . S
C195 C199 1.332 . S
C195 C201 1.504 . S
C196 C197 1.373 . S
C196 C200 1.308 . S
C197 C196 1.373 . S
C197 C198 1.429 . S
C197 H224 0.932 . S
C198 C195 1.358 . S
C198 C197 1.429 . S
C198 H225 0.930 . S
C199 C195 1.332 . S
C199 C200 1.394 . S
C199 H226 0.932 . S
C200 C196 1.308 . S
C200 C199 1.394 . S
C200 H227 0.929 . S
C201 Tb192 2.764 . S
C201 C195 1.504 . S
C201 O213 1.239 . S
C201 O214 1.263 . S
O202 Tb192 2.325 . S
O202 C212 1.236 . S
O203 Tb193 2.322 1_455 S
O203 C212 1.257 . S
O204 Tb193 2.349 . S
O204 C215 1.261 . S
O205 Tb192 2.303 . S
O205 C215 1.257 1_455 S
O206 Tb193 2.415 1_554 S
O206 C222 1.239 . S
O207 Tb193 2.399 1_554 S
O207 C222 1.263 . S
O208 Tb193 2.325 . S
O208 C223 1.236 . S
O209 Tb192 2.322 1_655 S
O209 C223 1.257 . S
O210 Tb192 2.349 . S
O210 C194 1.261 . S
O211 Tb193 2.303 . S
O211 C194 1.257 1_655 S
C212 O202 1.236 . S
C212 O203 1.257 . S
O213 Tb192 2.415 . S
O213 C201 1.239 . S
O214 Tb192 2.399 . S
O214 C201 1.263 . S
C215 O204 1.261 . S
C215 O205 1.257 1_655 S
C216 C219 1.358 . S
C216 C220 1.332 . S
C216 C222 1.504 . S
C217 C218 1.373 . S
C217 C221 1.308 . S
C218 C217 1.373 . S
C218 C219 1.429 . S
C218 H228 0.932 . S
C219 C216 1.358 . S
C219 C218 1.429 . S
C219 H229 0.930 . S
C220 C216 1.332 . S
C220 C221 1.394 . S
C220 H230 0.932 . S
C221 C217 1.308 . S
C221 C220 1.394 . S
C221 H231 0.929 . S
C222 Tb193 2.764 1_554 S
C222 O206 1.239 . S
C222 O207 1.263 . S
C222 C216 1.504 . S
C223 O208 1.236 . S
C223 O209 1.257 . S
H224 C197 0.932 . S
H225 C198 0.930 . S
H226 C199 0.932 . S
H227 C200 0.929 . S
H228 C218 0.932 . S
H229 C219 0.930 . S
H230 C220 0.932 . S
H231 C221 0.929 . S
C232 C233 1.362 . S
C232 C238 1.379 . S
C232 N240 1.356 . S
C233 C232 1.362 . S
C233 C239 1.365 1_545 S
C234 C235 1.363 . S
C234 C239 1.379 . S
C234 N241 1.356 . S
C235 C234 1.363 . S
C235 C238 1.363 1_565 S
N236 C238 1.356 . S
N236 H248 0.984 . S
N236 H249 0.985 . S
N237 C239 1.356 . S
N237 H242 0.984 . S
N237 H243 0.985 . S
C238 C232 1.379 . S
C238 C235 1.363 1_545 S
C238 N236 1.356 . S
C239 C233 1.365 1_565 S
C239 C234 1.379 . S
C239 N237 1.356 . S
N240 C232 1.356 . S
N240 H246 0.984 . S
N240 H247 0.984 . S
N241 C234 1.356 . S
N241 H244 0.984 . S
N241 H245 0.985 . S
H242 N237 0.984 . S
H243 N237 0.985 . S
H244 N241 0.984 . S
H245 N241 0.985 . S
H246 N240 0.984 . S
H247 N240 0.984 . S
H248 N236 0.984 . S
H249 N236 0.985 . S
C250 C251 1.363 . S
C250 C256 1.379 . S
C250 N258 1.356 . S
C251 C250 1.363 . S
C251 C257 1.363 . S
C252 C253 1.363 . S
C252 C257 1.379 . S
C252 N259 1.356 . S
C253 C252 1.363 . S
C253 C256 1.363 . S
N254 C256 1.356 . S
N254 H266 0.984 1_556 S
N254 H267 0.985 . S
N255 C257 1.356 . S
N255 H260 0.984 . S
N255 H261 0.985 . S
C256 C250 1.379 . S
C256 C253 1.363 . S
C256 N254 1.356 . S
C257 C251 1.363 . S
C257 C252 1.379 . S
C257 N255 1.356 . S
N258 C250 1.356 . S
N258 H264 0.984 . S
N258 H265 0.984 . S
N259 C252 1.356 . S
N259 H262 0.984 . S
N259 H263 0.985 . S
H260 N255 0.984 . S
H261 N255 0.985 . S
H262 N259 0.984 . S
H263 N259 0.985 . S
H264 N258 0.984 . S
H265 N258 0.984 . S
H266 N254 0.984 1_554 S
H267 N254 0.985 . S
C268 C269 1.363 . S
C268 C274 1.379 . S
C268 N276 1.356 . S
C269 C268 1.363 . S
C269 C275 1.363 . S
C270 C271 1.363 . S
C270 C275 1.379 . S
C270 N277 1.356 . S
C271 C270 1.363 . S
C271 C274 1.363 . S
N272 C274 1.356 . S
N272 H284 0.984 . S
N272 H285 0.985 . S
N273 C275 1.356 . S
N273 H278 0.984 . S
N273 H279 0.985 . S
C274 C268 1.379 . S
C274 C271 1.363 . S
C274 N272 1.356 . S
C275 C269 1.363 . S
C275 C270 1.379 . S
C275 N273 1.356 . S
N276 C268 1.356 . S
N276 H282 0.984 . S
N276 H283 0.984 . S
N277 C270 1.356 . S
N277 H280 0.984 . S
N277 H281 0.985 . S
H278 N273 0.984 . S
H279 N273 0.985 . S
H280 N277 0.984 . S
H281 N277 0.985 . S
H282 N276 0.984 . S
H283 N276 0.984 . S
H284 N272 0.984 . S
H285 N272 0.985 . S
C286 C287 1.372 . S
C286 C292 1.379 . S
C286 N294 1.356 . S
C287 C286 1.372 . S
C287 C293 1.355 1_455 S
C288 C289 1.363 1_655 S
C288 C293 1.379 . S
C288 N295 1.356 . S
C289 C288 1.363 1_455 S
C289 C292 1.363 . S
N290 C292 1.356 . S
N290 H302 0.984 . S
N290 H303 0.985 . S
N291 C293 1.356 . S
N291 H296 0.984 . S
N291 H297 0.985 . S
C292 C286 1.379 . S
C292 C289 1.363 . S
C292 N290 1.356 . S
C293 C287 1.355 1_655 S
C293 C288 1.379 . S
C293 N291 1.356 . S
N294 C286 1.356 . S
N294 H300 0.984 . S
N294 H301 0.984 . S
N295 C288 1.356 . S
N295 H298 0.984 . S
N295 H299 0.985 . S
H296 N291 0.984 . S
H297 N291 0.985 . S
H298 N295 0.984 . S
H299 N295 0.985 . S
H300 N294 0.984 . S
H301 N294 0.984 . S
H302 N290 0.984 . S
H303 N290 0.985 . S
C304 C305 1.362 1_565 S
C304 C310 1.379 . S
C304 N312 1.356 . S
C305 C304 1.362 1_545 S
C305 C311 1.365 . S
C306 C307 1.367 . S
C306 C311 1.379 . S
C306 N313 1.356 . S
C307 C306 1.367 . S
C307 C310 1.357 1_545 S
N308 C310 1.356 . S
N308 H320 0.984 . S
N308 H321 0.985 . S
N309 C311 1.356 . S
N309 H314 0.984 . S
N309 H315 0.985 . S
C310 C304 1.379 . S
C310 C307 1.357 1_565 S
C310 N308 1.356 . S
C311 C305 1.365 . S
C311 C306 1.379 . S
C311 N309 1.356 . S
N312 C304 1.356 . S
N312 H318 0.984 . S
N312 H319 0.984 . S
N313 C306 1.356 . S
N313 H316 0.984 . S
N313 H317 0.985 . S
H314 N309 0.984 . S
H315 N309 0.985 . S
H316 N313 0.984 . S
H317 N313 0.985 . S
H318 N312 0.984 . S
H319 N312 0.984 . S
H320 N308 0.984 . S
H321 N308 0.985 . S
C322 C323 1.363 . S
C322 C328 1.379 . S
C322 N330 1.356 . S
C323 C322 1.363 . S
C323 C329 1.363 1_556 S
C324 C325 1.363 . S
C324 C329 1.379 1_556 S
C324 N331 1.356 1_556 S
C325 C324 1.363 . S
C325 C328 1.363 . S
N326 C328 1.356 . S
N326 H338 0.984 . S
N326 H339 0.985 . S
N327 C329 1.356 . S
N327 H332 0.984 . S
N327 H333 0.985 . S
C328 C322 1.379 . S
C328 C325 1.363 . S
C328 N326 1.356 . S
C329 C323 1.363 1_554 S
C329 C324 1.379 1_554 S
C329 N327 1.356 . S
N330 C322 1.356 . S
N330 H336 0.984 . S
N330 H337 0.984 . S
N331 C324 1.356 1_554 S
N331 H334 0.984 1_554 S
N331 H335 0.985 . S
H332 N327 0.984 . S
H333 N327 0.985 . S
H334 N331 0.984 1_556 S
H335 N331 0.985 . S
H336 N330 0.984 . S
H337 N330 0.984 . S
H338 N326 0.984 . S
H339 N326 0.985 . S
C340 C341 1.363 . S
C340 C346 1.379 . S
C340 N348 1.356 . S
C341 C340 1.363 . S
C341 C347 1.363 . S
C342 C343 1.363 . S
C342 C347 1.379 . S
C342 N349 1.356 . S
C343 C342 1.363 . S
C343 C346 1.363 . S
N344 C346 1.356 . S
N344 H356 0.984 . S
N344 H357 0.985 . S
N345 C347 1.356 . S
N345 H350 0.984 . S
N345 H351 0.985 . S
C346 C340 1.379 . S
C346 C343 1.363 . S
C346 N344 1.356 . S
C347 C341 1.363 . S
C347 C342 1.379 . S
C347 N345 1.356 . S
N348 C340 1.356 . S
N348 H354 0.984 . S
N348 H355 0.984 . S
N349 C342 1.356 . S
N349 H352 0.984 . S
N349 H353 0.985 . S
H350 N345 0.984 . S
H351 N345 0.985 . S
H352 N349 0.984 . S
H353 N349 0.985 . S
H354 N348 0.984 . S
H355 N348 0.984 . S
H356 N344 0.984 . S
H357 N344 0.985 . S
C358 C359 1.370 . S
C358 C364 1.379 . S
C358 N366 1.356 . S
C359 C358 1.370 . S
C359 C365 1.356 1_655 S
C360 C361 1.363 1_455 S
C360 C365 1.379 . S
C360 N367 1.356 . S
C361 C360 1.363 1_655 S
C361 C364 1.363 . S
N362 C364 1.356 . S
N362 H374 0.984 . S
N362 H375 0.985 1_554 S
N363 C365 1.356 . S
N363 H368 0.984 . S
N363 H369 0.985 . S
C364 C358 1.379 . S
C364 C361 1.363 . S
C364 N362 1.356 . S
C365 C359 1.356 1_455 S
C365 C360 1.379 . S
C365 N363 1.356 . S
N366 C358 1.356 . S
N366 H372 0.984 . S
N366 H373 0.984 . S
N367 C360 1.356 . S
N367 H370 0.984 . S
N367 H371 0.985 . S
H368 N363 0.984 . S
H369 N363 0.985 . S
H370 N367 0.984 . S
H371 N367 0.985 . S
H372 N366 0.984 . S
H373 N366 0.984 . S
H374 N362 0.984 . S
H375 N362 0.985 1_556 S
C376 C377 1.363 . S
C376 C382 1.379 . S
C376 N384 1.356 . S
C377 C376 1.363 . S
C377 C383 1.363 . S
C378 C379 1.363 . S
C378 C383 1.379 . S
C378 N385 1.356 . S
C379 C378 1.363 . S
C379 C382 1.363 . S
N380 C382 1.356 . S
N380 H392 0.984 . S
N380 H393 0.985 . S
N381 C383 1.356 1_455 S
N381 H386 0.984 . S
N381 H387 0.985 . S
C382 C376 1.379 . S
C382 C379 1.363 . S
C382 N380 1.356 . S
C383 C377 1.363 . S
C383 C378 1.379 . S
C383 N381 1.356 1_655 S
N384 C376 1.356 . S
N384 H390 0.984 . S
N384 H391 0.984 . S
N385 C378 1.356 . S
N385 H388 0.984 . S
N385 H389 0.985 . S
H386 N381 0.984 . S
H387 N381 0.985 . S
H388 N385 0.984 . S
H389 N385 0.985 . S
H390 N384 0.984 . S
H391 N384 0.984 . S
H392 N380 0.984 . S
H393 N380 0.985 . S
C394 C395 1.363 1_565 S
C394 C400 1.379 . S
C394 N402 1.356 . S
C395 C394 1.363 1_545 S
C395 C401 1.363 . S
C396 C397 1.363 . S
C396 C401 1.379 1_565 S
C396 N403 1.356 . S
C397 C396 1.363 . S
C397 C400 1.363 . S
N398 C400 1.356 . S
N398 H410 0.984 . S
N398 H411 0.985 . S
N399 C401 1.356 . S
N399 H404 0.984 . S
N399 H405 0.985 . S
C400 C394 1.379 . S
C400 C397 1.363 . S
C400 N398 1.356 . S
C401 C395 1.363 . S
C401 C396 1.379 1_545 S
C401 N399 1.356 . S
N402 C394 1.356 . S
N402 H408 0.984 . S
N402 H409 0.984 . S
N403 C396 1.356 . S
N403 H406 0.984 . S
N403 H407 0.985 1_565 S
H404 N399 0.984 . S
H405 N399 0.985 . S
H406 N403 0.984 . S
H407 N403 0.985 1_545 S
H408 N402 0.984 . S
H409 N402 0.984 . S
H410 N398 0.984 . S
H411 N398 0.985 . S
C412 C413 1.363 . S
C412 C418 1.379 . S
C412 N420 1.356 . S
C413 C412 1.363 . S
C413 C419 1.363 . S
C414 C415 1.363 . S
C414 C419 1.379 . S
C414 N421 1.356 . S
C415 C414 1.363 . S
C415 C418 1.363 . S
N416 C418 1.356 . S
N416 H428 0.984 . S
N416 H429 0.985 . S
N417 C419 1.356 . S
N417 H422 0.984 . S
N417 H423 0.985 1_556 S
C418 C412 1.379 . S
C418 C415 1.363 . S
C418 N416 1.356 . S
C419 C413 1.363 . S
C419 C414 1.379 . S
C419 N417 1.356 . S
N420 C412 1.356 . S
N420 H426 0.984 . S
N420 H427 0.984 . S
N421 C414 1.356 . S
N421 H424 0.984 . S
N421 H425 0.985 . S
H422 N417 0.984 . S
H423 N417 0.985 1_554 S
H424 N421 0.984 . S
H425 N421 0.985 . S
H426 N420 0.984 . S
H427 N420 0.984 . S
H428 N416 0.984 . S
H429 N416 0.985 . S
C430 C431 1.363 . S
C430 C436 1.379 . S
C430 N438 1.356 . S
C431 C430 1.363 . S
C431 C437 1.363 . S
C432 C433 1.363 . S
C432 C437 1.379 . S
C432 N439 1.356 . S
C433 C432 1.363 . S
C433 C436 1.363 . S
N434 C436 1.356 . S
N434 H446 0.984 . S
N434 H447 0.985 . S
N435 C437 1.356 . S
N435 H440 0.984 . S
N435 H441 0.985 . S
C436 C430 1.379 . S
C436 C433 1.363 . S
C436 N434 1.356 . S
C437 C431 1.363 . S
C437 C432 1.379 . S
C437 N435 1.356 . S
N438 C430 1.356 . S
N438 H444 0.984 . S
N438 H445 0.984 . S
N439 C432 1.356 . S
N439 H442 0.984 . S
N439 H443 0.985 . S
H440 N435 0.984 . S
H441 N435 0.985 . S
H442 N439 0.984 . S
H443 N439 0.985 . S
H444 N438 0.984 . S
H445 N438 0.984 . S
H446 N434 0.984 . S
H447 N434 0.985 . S
C448 C449 1.363 . S
C448 C454 1.379 . S
C448 N456 1.356 1_455 S
C449 C448 1.363 . S
C449 C455 1.363 . S
C450 C451 1.363 . S
C450 C455 1.379 . S
C450 N457 1.356 . S
C451 C450 1.363 . S
C451 C454 1.363 . S
N452 C454 1.356 . S
N452 H464 0.984 . S
N452 H465 0.985 . S
N453 C455 1.356 . S
N453 H458 0.984 . S
N453 H459 0.985 . S
C454 C448 1.379 . S
C454 C451 1.363 . S
C454 N452 1.356 . S
C455 C449 1.363 . S
C455 C450 1.379 . S
C455 N453 1.356 . S
N456 C448 1.356 1_655 S
N456 H462 0.984 . S
N456 H463 0.984 . S
N457 C450 1.356 . S
N457 H460 0.984 . S
N457 H461 0.985 . S
H458 N453 0.984 . S
H459 N453 0.985 . S
H460 N457 0.984 . S
H461 N457 0.985 . S
H462 N456 0.984 . S
H463 N456 0.984 . S
H464 N452 0.984 . S
H465 N452 0.985 . S
C466 C467 1.363 1_545 S
C466 C472 1.379 . S
C466 N474 1.356 . S
C467 C466 1.363 1_565 S
C467 C473 1.363 . S
C468 C469 1.363 . S
C468 C473 1.379 1_545 S
C468 N475 1.356 . S
C469 C468 1.363 . S
C469 C472 1.363 . S
N470 C472 1.356 . S
N470 H482 0.984 . S
N470 H483 0.985 . S
N471 C473 1.356 . S
N471 H476 0.984 . S
N471 H477 0.985 . S
C472 C466 1.379 . S
C472 C469 1.363 . S
C472 N470 1.356 . S
C473 C467 1.363 . S
C473 C468 1.379 1_565 S
C473 N471 1.356 . S
N474 C466 1.356 . S
N474 H480 0.984 . S
N474 H481 0.982 1_545 S
N475 C468 1.356 . S
N475 H478 0.984 . S
N475 H479 0.985 . S
H476 N471 0.984 . S
H477 N471 0.985 . S
H478 N475 0.984 . S
H479 N475 0.985 . S
H480 N474 0.984 . S
H481 N474 0.982 1_565 S
H482 N470 0.984 . S
H483 N470 0.985 . S
C484 C485 1.363 . S
C484 C490 1.379 . S
C484 N492 1.356 . S
C485 C484 1.363 . S
C485 C491 1.363 . S
C486 C487 1.363 . S
C486 C491 1.379 . S
C486 N493 1.356 1_556 S
C487 C486 1.363 . S
C487 C490 1.363 . S
N488 C490 1.356 . S
N488 H500 0.984 . S
N488 H501 0.985 . S
N489 C491 1.356 1_554 S
N489 H494 0.984 1_554 S
N489 H495 0.985 . S
C490 C484 1.379 . S
C490 C487 1.363 . S
C490 N488 1.356 . S
C491 C485 1.363 . S
C491 C486 1.379 . S
C491 N489 1.356 1_556 S
N492 C484 1.356 . S
N492 H498 0.984 . S
N492 H499 0.984 . S
N493 C486 1.356 1_554 S
N493 H496 0.984 . S
N493 H497 0.985 . S
H494 N489 0.984 1_556 S
H495 N489 0.985 . S
H496 N493 0.984 . S
H497 N493 0.985 . S
H498 N492 0.984 . S
H499 N492 0.984 . S
H500 N488 0.984 . S
H501 N488 0.985 . S
C502 C503 1.363 . S
C502 C508 1.379 . S
C502 N510 1.356 . S
C503 C502 1.363 . S
C503 C509 1.363 . S
C504 C505 1.363 . S
C504 C509 1.379 . S
C504 N511 1.356 . S
C505 C504 1.363 . S
C505 C508 1.363 . S
N506 C508 1.356 . S
N506 H518 0.984 . S
N506 H519 0.985 . S
N507 C509 1.356 . S
N507 H512 0.984 . S
N507 H513 0.985 . S
C508 C502 1.379 . S
C508 C505 1.363 . S
C508 N506 1.356 . S
C509 C503 1.363 . S
C509 C504 1.379 . S
C509 N507 1.356 . S
N510 C502 1.356 . S
N510 H516 0.984 . S
N510 H517 0.984 . S
N511 C504 1.356 . S
N511 H514 0.984 . S
N511 H515 0.985 . S
H512 N507 0.984 . S
H513 N507 0.985 . S
H514 N511 0.984 . S
H515 N511 0.985 . S
H516 N510 0.984 . S
H517 N510 0.984 . S
H518 N506 0.984 . S
H519 N506 0.985 . S
C520 C521 1.363 . S
C520 C526 1.379 . S
C520 N528 1.356 . S
C521 C520 1.363 . S
C521 C527 1.363 1_454 S
C522 C523 1.363 1_656 S
C522 C527 1.379 . S
C522 N529 1.356 . S
C523 C522 1.363 1_454 S
C523 C526 1.363 . S
N524 C526 1.356 . S
N524 H536 0.984 . S
N524 H537 0.985 . S
N525 C527 1.356 . S
N525 H530 0.984 . S
N525 H531 0.985 . S
C526 C520 1.379 . S
C526 C523 1.363 . S
C526 N524 1.356 . S
C527 C521 1.363 1_656 S
C527 C522 1.379 . S
C527 N525 1.356 . S
N528 C520 1.356 . S
N528 H534 0.984 . S
N528 H535 0.984 . S
N529 C522 1.356 . S
N529 H532 0.984 . S
N529 H533 0.985 . S
H530 N525 0.984 . S
H531 N525 0.985 . S
H532 N529 0.984 . S
H533 N529 0.985 . S
H534 N528 0.984 . S
H535 N528 0.984 . S
H536 N524 0.984 . S
H537 N524 0.985 . S
C538 C539 1.363 1_565 S
C538 C544 1.379 . S
C538 N546 1.356 . S
C539 C538 1.363 1_545 S
C539 C545 1.363 1_554 S
C540 C541 1.363 . S
C540 C545 1.379 . S
C540 N547 1.356 . S
C541 C540 1.363 . S
C541 C544 1.363 1_546 S
N542 C544 1.356 . S
N542 H554 0.984 . S
N542 H555 0.985 . S
N543 C545 1.356 . S
N543 H548 0.984 . S
N543 H549 0.985 . S
C544 C538 1.379 . S
C544 C541 1.363 1_564 S
C544 N542 1.356 . S
C545 C539 1.363 1_556 S
C545 C540 1.379 . S
C545 N543 1.356 . S
N546 C538 1.356 . S
N546 H552 0.984 . S
N546 H553 0.984 . S
N547 C540 1.356 . S
N547 H550 0.984 . S
N547 H551 0.985 . S
H548 N543 0.984 . S
H549 N543 0.985 . S
H550 N547 0.984 . S
H551 N547 0.985 . S
H552 N546 0.984 . S
H553 N546 0.984 . S
H554 N542 0.984 . S
H555 N542 0.985 . S
C556 C557 1.363 . S
C556 C562 1.379 . S
C556 N564 1.356 . S
C557 C556 1.363 . S
C557 C563 1.363 . S
C558 C559 1.363 . S
C558 C563 1.379 . S
C558 N565 1.356 . S
C559 C558 1.363 . S
C559 C562 1.363 . S
N560 C562 1.356 . S
N560 H572 0.984 . S
N560 H573 0.985 . S
N561 C563 1.356 . S
N561 H566 0.984 . S
N561 H567 0.985 . S
C562 C556 1.379 . S
C562 C559 1.363 . S
C562 N560 1.356 . S
C563 C557 1.363 . S
C563 C558 1.379 . S
C563 N561 1.356 . S
N564 C556 1.356 . S
N564 H570 0.984 . S
N564 H571 0.984 . S
N565 C558 1.356 . S
N565 H568 0.984 . S
N565 H569 0.985 . S
H566 N561 0.984 . S
H567 N561 0.985 . S
H568 N565 0.984 . S
H569 N565 0.985 . S
H570 N564 0.984 . S
H571 N564 0.984 . S
H572 N560 0.984 . S
H573 N560 0.985 . S
C574 C575 1.363 . S
C574 C580 1.379 . S
C574 N582 1.356 1_556 S
C575 C574 1.363 . S
C575 C581 1.363 . S
C576 C577 1.363 . S
C576 C581 1.379 . S
C576 N583 1.356 . S
C577 C576 1.363 . S
C577 C580 1.363 . S
N578 C580 1.356 . S
N578 H590 0.984 . S
N578 H591 0.985 . S
N579 C581 1.356 . S
N579 H584 0.984 . S
N579 H585 0.985 . S
C580 C574 1.379 . S
C580 C577 1.363 . S
C580 N578 1.356 . S
C581 C575 1.363 . S
C581 C576 1.379 . S
C581 N579 1.356 . S
N582 C574 1.356 1_554 S
N582 H588 0.984 . S
N582 H589 0.984 . S
N583 C576 1.356 . S
N583 H586 0.984 . S
N583 H587 0.985 . S
H584 N579 0.984 . S
H585 N579 0.985 . S
H586 N583 0.984 . S
H587 N583 0.985 . S
H588 N582 0.984 . S
H589 N582 0.984 . S
H590 N578 0.984 . S
H591 N578 0.985 . S
C592 C593 1.363 . S
C592 C598 1.379 . S
C592 N600 1.356 . S
C593 C592 1.363 . S
C593 C599 1.363 1_655 S
C594 C595 1.363 . S
C594 C599 1.379 1_655 S
C594 N601 1.356 1_655 S
C595 C594 1.363 . S
C595 C598 1.363 . S
N596 C598 1.356 . S
N596 H608 0.984 . S
N596 H609 0.985 . S
N597 C599 1.356 . S
N597 H602 0.984 . S
N597 H603 0.985 . S
C598 C592 1.379 . S
C598 C595 1.363 . S
C598 N596 1.356 . S
C599 C593 1.363 1_455 S
C599 C594 1.379 1_455 S
C599 N597 1.356 . S
N600 C592 1.356 . S
N600 H606 0.984 . S
N600 H607 0.984 . S
N601 C594 1.356 1_455 S
N601 H604 0.981 1_455 S
N601 H605 0.985 . S
H602 N597 0.984 . S
H603 N597 0.985 . S
H604 N601 0.981 1_655 S
H605 N601 0.985 . S
H606 N600 0.984 . S
H607 N600 0.984 . S
H608 N596 0.984 . S
H609 N596 0.985 . S
C610 C611 1.363 . S
C610 C616 1.379 . S
C610 N618 1.356 . S
C611 C610 1.363 . S
C611 C617 1.363 1_565 S
C612 C613 1.363 1_545 S
C612 C617 1.379 . S
C612 N619 1.356 . S
C613 C612 1.363 1_565 S
C613 C616 1.363 . S
N614 C616 1.356 . S
N614 H626 0.984 . S
N614 H627 0.985 . S
N615 C617 1.356 . S
N615 H620 0.984 . S
N615 H621 0.985 . S
C616 C610 1.379 . S
C616 C613 1.363 . S
C616 N614 1.356 . S
C617 C611 1.363 1_545 S
C617 C612 1.379 . S
C617 N615 1.356 . S
N618 C610 1.356 . S
N618 H624 0.984 . S
N618 H625 0.984 . S
N619 C612 1.356 . S
N619 H622 0.984 . S
N619 H623 0.985 . S
H620 N615 0.984 . S
H621 N615 0.985 . S
H622 N619 0.984 . S
H623 N619 0.985 . S
H624 N618 0.984 . S
H625 N618 0.984 . S
H626 N614 0.984 . S
H627 N614 0.985 . S
C628 C629 1.363 . S
C628 C634 1.379 . S
C628 N636 1.356 . S
C629 C628 1.363 . S
C629 C635 1.363 . S
C630 C631 1.363 . S
C630 C635 1.379 . S
C630 N637 1.356 . S
C631 C630 1.363 . S
C631 C634 1.363 . S
N632 C634 1.356 . S
N632 H644 0.984 . S
N632 H645 0.985 . S
N633 C635 1.356 . S
N633 H638 0.984 . S
N633 H639 0.985 . S
C634 C628 1.379 . S
C634 C631 1.363 . S
C634 N632 1.356 . S
C635 C629 1.363 . S
C635 C630 1.379 . S
C635 N633 1.356 . S
N636 C628 1.356 . S
N636 H642 0.984 . S
N636 H643 0.984 . S
N637 C630 1.356 . S
N637 H640 0.984 . S
N637 H641 0.985 . S
H638 N633 0.984 . S
H639 N633 0.985 . S
H640 N637 0.984 . S
H641 N637 0.985 . S
H642 N636 0.984 . S
H643 N636 0.984 . S
H644 N632 0.984 . S
H645 N632 0.985 . S
C646 C647 1.363 . S
C646 C652 1.379 . S
C646 N654 1.356 . S
C647 C646 1.363 . S
C647 C653 1.363 . S
C648 C649 1.363 . S
C648 C653 1.379 . S
C648 N655 1.356 . S
C649 C648 1.363 . S
C649 C652 1.363 . S
N650 C652 1.356 . S
N650 H662 0.984 . S
N650 H663 0.985 . S
N651 C653 1.356 . S
N651 H656 0.984 . S
N651 H657 0.985 . S
C652 C646 1.379 . S
C652 C649 1.363 . S
C652 N650 1.356 . S
C653 C647 1.363 . S
C653 C648 1.379 . S
C653 N651 1.356 . S
N654 C646 1.356 . S
N654 H660 0.984 . S
N654 H661 0.984 . S
N655 C648 1.356 . S
N655 H658 0.984 . S
N655 H659 0.985 . S
H656 N651 0.984 . S
H657 N651 0.985 . S
H658 N655 0.984 . S
H659 N655 0.985 . S
H660 N654 0.984 . S
H661 N654 0.984 . S
H662 N650 0.984 . S
H663 N650 0.985 . S
C233 C61 2.069 1_545 S
C235 C95 2.340 . S
C253 C135 1.735 . S
C251 C70 1.712 . S
C271 C154 2.370 . S
C269 C43 2.111 . S
C289 C215 1.614 1_455 S
C287 C52 1.428 1_455 S
C307 C74 2.344 1_554 S
C305 C25 2.067 1_545 S
C323 C34 1.708 . S
C325 C114 1.737 . S
C341 C7 2.117 . S
C343 C175 2.370 1_554 S
C359 C16 1.428 . S
C361 C194 1.614 1_654 S
C379 C76 1.231 . S
C377 C50 1.365 . S
C397 C116 0.601 . S
C395 C59 0.562 1_545 S
C415 C172 1.154 . S
C413 C67 1.060 . S
C431 C41 0.787 . S
C433 C196 0.778 . S
C449 C14 1.369 1_455 S
C451 C97 1.235 . S
C469 C137 0.602 . S
C467 C23 0.554 . S
C487 C183 1.154 . S
C485 C31 1.055 . S
C503 C5 0.790 . S
C505 C217 0.784 . S
C521 C49 1.754 1_455 S
C523 C92 1.971 1_554 S
C539 C58 2.364 1_545 S
C541 C132 2.650 . S
C559 C156 1.853 . S
C557 C68 1.935 . S
C577 C212 2.623 . S
C575 C40 2.361 1_556 S
C593 C13 1.753 . S
C595 C103 1.978 . S
C613 C143 2.650 . S
C611 C22 2.365 . S
C631 C177 1.853 . S
C629 C32 1.944 . S
C647 C4 2.364 . S
C649 C223 2.625 . S
