# Generated by pormake.
# Topology zzz, (3,6)-cn, num edge types: 1
# Building blocks:
#     Node 0, Type 0, BuildingBlock: CUQRIR_clean_linker_1, # of connection points: 3
#     Node 1, Type 0, BuildingBlock: CUQRIR_clean_linker_1, # of connection points: 3
#     Node 2, Type 0, BuildingBlock: CUQRIR_clean_linker_1, # of connection points: 3
#     Node 3, Type 0, BuildingBlock: CUQRIR_clean_linker_1, # of connection points: 3
#     Node 4, Type 0, BuildingBlock: CUQRIR_clean_linker_1, # of connection points: 3
#     Node 5, Type 0, BuildingBlock: CUQRIR_clean_linker_1, # of connection points: 3
#     Node 6, Type 0, BuildingBlock: CUQRIR_clean_linker_1, # of connection points: 3
#     Node 7, Type 0, BuildingBlock: CUQRIR_clean_linker_1, # of connection points: 3
#     Node 8, Type 1, BuildingBlock: NUHQIS_clean_sbu_0, # of connection points: 6
#     Node 9, Type 1, BuildingBlock: NUHQIS_clean_sbu_0, # of connection points: 6
#     Node 10, Type 1, BuildingBlock: NUHQIS_clean_sbu_0, # of connection points: 6
#     Node 11, Type 1, BuildingBlock: NUHQIS_clean_sbu_0, # of connection points: 6
#     Edge 12, Type (0, 1), BuildingBlock: XUDNAN_clean_linker_2, # of connection points: 2
#     Edge 13, Type (0, 1), BuildingBlock: XUDNAN_clean_linker_2, # of connection points: 2
#     Edge 14, Type (0, 1), BuildingBlock: XUDNAN_clean_linker_2, # of connection points: 2
#     Edge 15, Type (0, 1), BuildingBlock: XUDNAN_clean_linker_2, # of connection points: 2
#     Edge 16, Type (0, 1), BuildingBlock: XUDNAN_clean_linker_2, # of connection points: 2
#     Edge 17, Type (0, 1), BuildingBlock: XUDNAN_clean_linker_2, # of connection points: 2
#     Edge 18, Type (0, 1), BuildingBlock: XUDNAN_clean_linker_2, # of connection points: 2
#     Edge 19, Type (0, 1), BuildingBlock: XUDNAN_clean_linker_2, # of connection points: 2
#     Edge 20, Type (0, 1), BuildingBlock: XUDNAN_clean_linker_2, # of connection points: 2
#     Edge 21, Type (0, 1), BuildingBlock: XUDNAN_clean_linker_2, # of connection points: 2
#     Edge 22, Type (0, 1), BuildingBlock: XUDNAN_clean_linker_2, # of connection points: 2
#     Edge 23, Type (0, 1), BuildingBlock: XUDNAN_clean_linker_2, # of connection points: 2
#     Edge 24, Type (0, 1), BuildingBlock: XUDNAN_clean_linker_2, # of connection points: 2
#     Edge 25, Type (0, 1), BuildingBlock: XUDNAN_clean_linker_2, # of connection points: 2
#     Edge 26, Type (0, 1), BuildingBlock: XUDNAN_clean_linker_2, # of connection points: 2
#     Edge 27, Type (0, 1), BuildingBlock: XUDNAN_clean_linker_2, # of connection points: 2
#     Edge 28, Type (0, 1), BuildingBlock: XUDNAN_clean_linker_2, # of connection points: 2
#     Edge 29, Type (0, 1), BuildingBlock: XUDNAN_clean_linker_2, # of connection points: 2
#     Edge 30, Type (0, 1), BuildingBlock: XUDNAN_clean_linker_2, # of connection points: 2
#     Edge 31, Type (0, 1), BuildingBlock: XUDNAN_clean_linker_2, # of connection points: 2
#     Edge 32, Type (0, 1), BuildingBlock: XUDNAN_clean_linker_2, # of connection points: 2
#     Edge 33, Type (0, 1), BuildingBlock: XUDNAN_clean_linker_2, # of connection points: 2
#     Edge 34, Type (0, 1), BuildingBlock: XUDNAN_clean_linker_2, # of connection points: 2
#     Edge 35, Type (0, 1), BuildingBlock: XUDNAN_clean_linker_2, # of connection points: 2
# Relax obj value: 0.292
# Max RMSD: 0.163
# Mean RMSD: 0.136
data_MOF--net-zzz--node1-NUHQIS_clean_sbu_0--node2-CUQRIR_clean_linker_1--edge1-XUDNAN_clean_linker_2
_symmetry_space_group_name_H-M    P1
_symmetry_Int_Tables_number       1
_symmetry_cell_setting            triclinic
loop_
_symmetry_equiv_pos_as_xyz
'x, y, z'
_cell_length_a     48.726676
_cell_length_b     48.687971
_cell_length_c     12.589093
_cell_angle_alpha  89.766396
_cell_angle_beta   89.93216
_cell_angle_gamma 89.846719
loop_
_atom_site_label
_atom_site_type_symbol
_atom_site_fract_x
_atom_site_fract_y
_atom_site_fract_z
_atom_type_partial_charge
C0 C 0.76749 0.50867 0.32818 0.0
N1 N 0.78942 0.49155 0.34373 0.0
N2 N 0.74712 0.49601 0.27219 0.0
C3 C 0.76602 0.53766 0.36737 0.0
C4 C 0.75711 0.47035 0.25792 0.0
N5 N 0.78267 0.46763 0.29953 0.0
C6 C 0.74054 0.44695 0.21332 0.0
H7 H 0.75649 0.53769 0.44745 0.0
H8 H 0.75319 0.55047 0.31372 0.0
H9 H 0.78688 0.54661 0.37377 0.0
H10 H 0.742 0.4471 0.1254 0.0
H11 H 0.71856 0.44921 0.23508 0.0
H12 H 0.74815 0.42687 0.24332 0.0
C13 C 0.02115 0.75171 0.39964 0.0
N14 N 1.00683 0.77557 0.41367 0.0
N15 N 1.0077 0.73426 0.33258 0.0
C16 C 0.04897 0.74616 0.44595 0.0
C17 C 0.98475 0.74859 0.30647 0.0
N18 N 0.98417 0.7734 0.35534 0.0
C19 C 0.96389 0.73904 0.22652 0.0
H20 H 0.06456 0.75749 0.39887 0.0
H21 H 0.05391 0.7239 0.44396 0.0
H22 H 0.05001 0.75364 0.5289 0.0
H23 H 0.95567 0.71877 0.25071 0.0
H24 H 0.97399 0.7365 0.1481 0.0
H25 H 0.94639 0.75349 0.21881 0.0
C26 C 0.78639 0.02015 0.38781 0.0
N27 N 0.76372 0.03583 0.40779 0.0
N28 N 0.804 0.03302 0.31905 0.0
C29 C 0.79153 0.99263 0.43832 0.0
C30 C 0.79086 0.05713 0.29799 0.0
N31 N 0.76687 0.05889 0.35226 0.0
C32 C 0.79991 0.07787 0.21544 0.0
H33 H 0.81387 0.98873 0.4467 0.0
H34 H 0.78254 0.97635 0.38788 0.0
H35 H 0.78157 0.99153 0.51756 0.0
H36 H 0.80886 0.06743 0.14527 0.0
H37 H 0.81564 0.09148 0.25061 0.0
H38 H 0.78295 0.09131 0.18814 0.0
C39 C 0.53717 0.7852 0.38477 0.0
N40 N 0.51946 0.76515 0.41641 0.0
N41 N 0.52378 0.80549 0.33006 0.0
C42 C 0.56753 0.78436 0.40298 0.0
C43 C 0.49737 0.79685 0.32977 0.0
N44 N 0.49476 0.77252 0.38147 0.0
C45 C 0.47443 0.81134 0.27175 0.0
H46 H 0.57212 0.77533 0.48209 0.0
H47 H 0.5765 0.80523 0.39683 0.0
H48 H 0.57711 0.77107 0.3418 0.0
H49 H 0.4795 0.81266 0.1859 0.0
H50 H 0.47226 0.8326 0.30183 0.0
H51 H 0.45444 0.80086 0.28226 0.0
C52 C 0.28691 0.51163 0.18522 0.0
N53 N 0.26665 0.52907 0.15178 0.0
N54 N 0.30809 0.52561 0.23053 0.0
C55 C 0.28585 0.48095 0.17618 0.0
C56 C 0.2997 0.55214 0.22461 0.0
N57 N 0.27469 0.55429 0.17769 0.0
C58 C 0.31417 0.57552 0.27883 0.0
H59 H 0.27648 0.47229 0.24931 0.0
H60 H 0.30688 0.47236 0.16838 0.0
H61 H 0.27322 0.47477 0.10704 0.0
H62 H 0.33528 0.57751 0.24681 0.0
H63 H 0.31586 0.57104 0.3651 0.0
H64 H 0.30336 0.59537 0.2671 0.0
C65 C 1.01344 0.27899 0.19842 0.0
N66 N 0.99586 0.25814 0.17378 0.0
N67 N 0.99952 0.30163 0.23322 0.0
C68 C 0.04414 0.27663 0.19696 0.0
C69 C 0.97297 0.29381 0.22695 0.0
N70 N 0.97064 0.26725 0.19603 0.0
C71 C 0.94893 0.31271 0.24639 0.0
H72 H 0.05098 0.25498 0.18923 0.0
H73 H 0.05283 0.28562 0.27045 0.0
H74 H 0.05221 0.28857 0.12856 0.0
H75 H 0.95384 0.33383 0.21883 0.0
H76 H 0.9443 0.31372 0.33249 0.0
H77 H 0.93039 0.30523 0.20443 0.0
C78 C 0.26645 1.01736 0.2385 0.0
N79 N 0.2926 1.00769 0.2525 0.0
N80 N 0.25122 1.01446 0.32914 0.0
C81 C 0.25559 0.02895 0.1362 0.0
C82 C 0.26917 1.00324 0.39894 0.0
N83 N 0.29396 0.99894 0.35275 0.0
C84 C 0.2625 0.99607 0.51321 0.0
H85 H 0.23822 0.04321 0.15062 0.0
H86 H 0.24803 1.01184 0.08631 0.0
H87 H 0.27207 0.03979 0.09202 0.0
H88 H 0.24106 1.00048 0.53614 0.0
H89 H 0.27545 1.00845 0.56694 0.0
H90 H 0.267 0.97404 0.52827 0.0
C91 C 0.53156 0.25723 0.17718 0.0
N92 N 0.54725 0.27964 0.15354 0.0
N93 N 0.54571 0.23873 0.23864 0.0
C94 C 0.50202 0.25427 0.14586 0.0
C95 C 0.5707 0.25067 0.24923 0.0
N96 N 0.57157 0.27518 0.1982 0.0
C97 C 0.59509 0.23757 0.30274 0.0
H98 H 0.49218 0.27471 0.13617 0.0
H99 H 0.4906 0.2421 0.20599 0.0
H100 H 0.50096 0.24341 0.06868 0.0
H101 H 0.61455 0.24509 0.26727 0.0
H102 H 0.59437 0.21487 0.29593 0.0
H103 H 0.59502 0.2431 0.38814 0.0
Tb104 Tb 0.03868 1.0074 0.90062 0.0
Eu105 Eu 1.0072 0.02656 0.6882 0.0
C106 C 0.07395 0.0239 0.69805 0.0
C107 C 0.02163 0.07121 0.86844 0.0
C108 C 0.03416 0.9786 0.15229 0.0
C109 C 1.01628 0.93275 0.17731 0.0
C110 C 0.03834 0.95016 0.15784 0.0
C111 C 1.00827 0.98933 0.18236 0.0
C112 C 0.98613 0.97181 0.20212 0.0
C113 C 0.98968 0.94342 0.19303 0.0
C114 C 0.05272 0.99525 0.0849 0.0
O115 O 0.99531 0.99775 0.9285 0.0
O116 O 0.97419 0.02743 0.8145 0.0
O117 O 1.01543 0.98025 0.66664 0.0
O118 O 0.02954 0.96725 0.83317 0.0
C119 C 0.97349 1.01144 0.89819 0.0
O120 O 0.97315 0.02074 0.57827 0.0
O121 O 1.00599 0.04915 0.53909 0.0
O122 O 0.05197 0.03571 0.65818 0.0
O123 O 0.07298 1.00934 0.78667 0.0
O124 O 0.03881 0.05259 0.90589 0.0
O125 O 1.00558 0.06565 0.78739 0.0
C126 C 0.0224 0.96095 0.73564 0.0
O127 O 0.06293 0.98274 1.00191 0.0
O128 O 0.04328 0.01945 0.05953 0.0
C129 C 0.96194 0.06091 0.47947 0.0
C130 C 0.92728 0.1046 0.42054 0.0
C131 C 0.91944 0.08657 0.50236 0.0
C132 C 0.9367 0.06482 0.5318 0.0
C133 C 0.96943 0.0786 0.39664 0.0
C134 C 0.9525 0.10042 0.3684 0.0
C135 C 0.98177 0.03992 0.51357 0.0
H136 H 0.01978 0.91077 0.17475 0.0
H137 H 0.05798 0.94126 0.1366 0.0
H138 H 1.00431 1.01123 0.18059 0.0
H139 H 0.96599 0.98046 0.21711 0.0
H140 H 0.90024 0.08954 0.54426 0.0
H141 H 0.93057 0.05151 0.59672 0.0
H142 H 0.98885 0.07603 0.35569 0.0
H143 H 0.95948 0.11438 0.30685 0.0
Tb144 Tb 0.52852 0.03721 0.87184 0.0
Eu145 Eu 0.51453 1.00017 0.66693 0.0
C146 C 0.51803 0.06603 0.64696 0.0
C147 C 0.4681 1.01178 0.84551 0.0
C148 C 0.5527 0.09139 0.05945 0.0
C149 C 0.58839 0.12363 0.0121 0.0
C150 C 0.56725 0.10607 0.98183 0.0
C151 C 0.55707 0.09692 0.16708 0.0
C152 C 0.57831 0.11433 0.19742 0.0
C153 C 0.59559 0.12598 0.11995 0.0
C154 C 0.5356 0.068 0.03044 0.0
O155 O 0.52583 0.99491 0.93624 0.0
O156 O 0.53449 0.97119 0.78358 0.0
O157 O 0.55668 1.01676 0.63493 0.0
O158 O 0.56983 0.02803 0.80438 0.0
C159 C 0.53277 0.97199 0.88738 0.0
O160 O 0.52576 0.96644 0.56184 0.0
O161 O 0.48984 0.99127 0.52752 0.0
O162 O 0.50504 0.04378 0.617 0.0
O163 O 0.53174 0.06633 0.73717 0.0
O164 O 0.48355 0.03225 0.87792 0.0
O165 O 0.47717 0.99456 0.77316 0.0
C166 C 0.57596 0.02242 0.70411 0.0
O167 O 0.51739 0.07248 0.95673 0.0
O168 O 0.54861 0.04485 0.01606 0.0
C169 C 0.48691 0.94455 0.48943 0.0
C170 C 0.44443 0.90587 0.48855 0.0
C171 C 0.46588 0.90348 0.56267 0.0
C172 C 0.48689 0.92297 0.56396 0.0
C173 C 0.46776 0.94468 0.40718 0.0
C174 C 0.44681 0.92542 0.40612 0.0
C175 C 0.50368 0.96912 0.50438 0.0
H176 H 0.60118 0.13271 0.95093 0.0
H177 H 0.56378 0.10227 0.89816 0.0
H178 H 0.54569 0.08594 0.22773 0.0
H179 H 0.58321 0.11576 0.28113 0.0
H180 H 0.46461 0.88867 0.62692 0.0
H181 H 0.50168 0.92241 0.6281 0.0
H182 H 0.46768 0.96103 0.34845 0.0
H183 H 0.43083 0.9281 0.34734 0.0
Tb184 Tb 0.50784 0.52391 0.86239 0.0
Eu185 Eu 0.54417 0.51436 0.65084 0.0
C186 C 0.47923 0.51035 0.64666 0.0
C187 C 0.5304 0.46371 0.81543 0.0
C188 C 0.46344 0.55624 0.06904 0.0
C189 C 0.4296 0.59296 0.07894 0.0
C190 C 0.43997 0.56963 0.0289 0.0
C191 C 0.47562 0.56598 0.16253 0.0
C192 C 0.4651 0.58918 0.21283 0.0
C193 C 0.44217 0.60292 0.171 0.0
C194 C 0.47493 0.53206 0.01433 0.0
O195 O 0.5493 0.53443 0.91534 0.0
O196 O 0.57444 0.51171 0.7889 0.0
O197 O 0.53994 0.56052 0.65533 0.0
O198 O 0.50898 0.5657 0.79177 0.0
C199 C 0.57263 0.52353 0.88274 0.0
O200 O 0.5803 0.52394 0.55564 0.0
O201 O 0.54943 0.49615 0.49414 0.0
O202 O 0.5001 0.52147 0.59696 0.0
O203 O 0.48254 0.50231 0.74537 0.0
O204 O 0.52303 0.48191 0.88728 0.0
O205 O 0.53557 0.47117 0.71613 0.0
C206 C 0.5238 0.57604 0.71312 0.0
O207 O 0.4675 0.52885 0.91596 0.0
O208 O 0.501 0.52703 0.02706 0.0
C209 C 0.59469 0.49003 0.43353 0.0
C210 C 0.62869 0.4487 0.35047 0.0
C211 C 0.63178 0.45729 0.45646 0.0
C212 C 0.61466 0.47765 0.49812 0.0
C213 C 0.59363 0.48369 0.32532 0.0
C214 C 0.61053 0.46324 0.28385 0.0
C215 C 0.57325 0.5077 0.47819 0.0
H216 H 0.41199 0.60344 0.0452 0.0
H217 H 0.42982 0.56237 0.9579 0.0
H218 H 0.4934 0.55582 0.19636 0.0
H219 H 0.47517 0.59664 0.28355 0.0
H220 H 0.6459 0.44679 0.50927 0.0
H221 H 0.61598 0.48255 0.58183 0.0
H222 H 0.57848 0.49332 0.27424 0.0
H223 H 0.60739 0.45718 0.2021 0.0
Tb224 Tb 1.0154 0.49899 0.8824 0.0
Eu225 Eu 0.0326 0.5358 0.67504 0.0
C226 C 0.02668 0.47002 0.6609 0.0
C227 C 0.07819 0.51722 0.84758 0.0
C228 C 0.98889 0.44852 0.09064 0.0
C229 C 0.96682 0.40388 0.08203 0.0
C230 C 0.98608 0.42265 0.04285 0.0
C231 C 0.97404 0.4543 0.18323 0.0
C232 C 0.95465 0.43579 0.22154 0.0
C233 C 0.94977 0.41089 0.16828 0.0
C234 C 1.00689 0.47001 0.04668 0.0
O235 O 0.01995 0.54084 0.94933 0.0
O236 O 0.02786 0.56792 0.802 0.0
O237 O 0.98756 0.52441 0.64909 0.0
O238 O 0.97491 0.50674 0.81158 0.0
C239 C 0.02414 0.5651 0.90481 0.0
O240 O 0.02392 0.5702 0.56823 0.0
O241 O 0.0558 0.54081 0.5285 0.0
O242 O 0.04155 0.4915 0.63521 0.0
O243 O 1.01121 0.4704 0.74709 0.0
O244 O 0.06024 0.49837 0.87543 0.0
O245 O 0.07171 0.53617 0.77661 0.0
C246 C 0.96864 0.5148 0.71419 0.0
O247 O 0.02377 0.46325 0.97078 0.0
O248 O 0.99567 0.49396 0.0296 0.0
C249 C 0.06103 0.58553 0.46274 0.0
C250 C 0.10439 0.61807 0.38778 0.0
C251 C 0.09702 0.61856 0.49601 0.0
C252 C 0.07561 0.60213 0.53351 0.0
C253 C 0.06616 0.58748 0.35357 0.0
C254 C 0.08758 0.60378 0.31607 0.0
C255 C 0.04327 0.56349 0.50146 0.0
H256 H 0.96404 0.38464 0.04056 0.0
H257 H 0.99788 0.41733 0.97291 0.0
H258 H 0.97642 0.47386 0.22303 0.0
H259 H 0.94197 0.44223 0.2876 0.0
H260 H 0.10938 0.62968 0.55286 0.0
H261 H 0.07173 0.60094 0.61817 0.0
H262 H 0.05486 0.57489 0.29795 0.0
H263 H 0.09265 0.6028 0.23237 0.0
H264 H 0.21179 0.97849 0.39054 0.0
H265 H 0.22674 0.06453 0.32797 0.0
H266 H 0.18163 0.07622 0.40806 0.0
H267 H 0.13555 0.97825 0.36566 0.0
H268 H 0.1316 0.95515 0.47684 0.0
H269 H 0.162 0.95343 0.3954 0.0
H270 H 0.19198 0.95965 0.56316 0.0
H271 H 0.16172 0.96197 0.64491 0.0
H272 H 0.18668 0.98924 0.64637 0.0
H273 H 0.13587 0.07849 0.50752 0.0
H274 H 0.09439 0.07162 0.61809 0.0
H275 H 0.11232 0.98457 0.6392 0.0
C276 C 0.20497 0.99967 0.39011 0.0
C277 C 0.22254 0.0206 0.35074 0.0
C278 C 0.21339 0.04817 0.35489 0.0
C279 C 0.18792 0.05496 0.40157 0.0
C280 C 0.1719 0.03396 0.44552 0.0
C281 C 0.18011 1.00682 0.44016 0.0
C282 C 0.16084 0.98847 0.50387 0.0
C283 C 0.14665 0.96759 0.43109 0.0
C284 C 0.17623 0.97398 0.59496 0.0
C285 C 0.14047 1.00944 0.54641 0.0
C286 C 0.14697 0.03551 0.51023 0.0
C287 C 0.13078 0.05817 0.5365 0.0
C288 C 0.10728 0.0541 0.59985 0.0
C289 C 0.10035 0.02769 0.63925 0.0
C290 C 0.11741 1.00511 0.61253 0.0
H291 H 0.55298 0.21997 0.44234 0.0
H292 H 0.51953 0.1971 0.13673 0.0
H293 H 0.50768 0.1512 0.20925 0.0
H294 H 0.58477 0.15392 0.49356 0.0
H295 H 0.57869 0.15499 0.63478 0.0
H296 H 0.58282 0.18648 0.56085 0.0
H297 H 0.53587 0.20378 0.63062 0.0
H298 H 0.53158 0.17235 0.70472 0.0
H299 H 0.5057 0.18307 0.611 0.0
H300 H 0.49957 0.10739 0.31675 0.0
H301 H 0.49782 0.0689 0.44398 0.0
H302 H 0.53966 0.11863 0.67869 0.0
C303 C 0.54318 0.20532 0.39052 0.0
C304 C 0.53699 0.21242 0.28343 0.0
C305 C 0.52394 0.19254 0.21916 0.0
C306 C 0.51735 0.16628 0.2597 0.0
C307 C 0.52407 0.15991 0.365 0.0
C308 C 0.53689 0.17884 0.42933 0.0
C309 C 0.54306 0.16642 0.53816 0.0
C310 C 0.57418 0.16539 0.558 0.0
C311 C 0.52816 0.18236 0.62633 0.0
C312 C 0.53132 0.13764 0.52598 0.0
C313 C 0.52039 0.1344 0.42545 0.0
C314 C 0.50815 0.10978 0.3954 0.0
C315 C 0.5072 0.08794 0.46897 0.0
C316 C 0.51851 0.0904 0.57254 0.0
C317 C 0.53075 0.11583 0.60076 0.0
H318 H 0.36241 0.53711 0.20448 0.0
H319 H 0.3056 0.4923 0.40392 0.0
H320 H 0.34362 0.48066 0.52764 0.0
H321 H 0.42235 0.49271 0.2439 0.0
H322 H 0.44645 0.52054 0.2506 0.0
H323 H 0.41575 0.52403 0.17141 0.0
H324 H 0.40207 0.56759 0.27105 0.0
H325 H 0.43175 0.56531 0.35691 0.0
H326 H 0.39794 0.56676 0.41322 0.0
H327 H 0.38822 0.47801 0.63947 0.0
H328 H 0.43391 0.48283 0.72227 0.0
H329 H 0.46183 0.52968 0.44928 0.0
C330 C 0.35812 0.52434 0.27304 0.0
C331 C 0.33101 0.51528 0.29358 0.0
C332 C 0.32624 0.49893 0.38514 0.0
C333 C 0.34775 0.49242 0.45629 0.0
C334 C 0.37416 0.50224 0.43493 0.0
C335 C 0.37938 0.51759 0.34464 0.0
C336 C 0.40901 0.52716 0.34294 0.0
C337 C 0.42429 0.51545 0.24636 0.0
C338 C 0.41024 0.5586 0.34584 0.0
C339 C 0.41992 0.51497 0.44584 0.0
C340 C 0.39947 0.50068 0.49826 0.0
C341 C 0.40433 0.48891 0.59787 0.0
C342 C 0.4305 0.49184 0.64459 0.0
C343 C 0.45189 0.50646 0.59257 0.0
C344 C 0.44628 0.51802 0.49117 0.0
H345 H 0.98551 0.32071 0.42949 0.0
H346 H 0.03574 0.33906 0.15458 0.0
H347 H 0.04914 0.38342 0.23648 0.0
H348 H 0.95992 0.38971 0.46497 0.0
H349 H 0.95921 0.38731 0.60772 0.0
H350 H 0.95511 0.35683 0.52853 0.0
H351 H 0.99615 0.33443 0.62846 0.0
H352 H 1.00044 0.36513 0.70605 0.0
H353 H 0.02882 0.35173 0.63008 0.0
H354 H 0.05554 0.42676 0.34719 0.0
H355 H 0.05511 0.46499 0.47416 0.0
H356 H 0.99901 0.41963 0.67727 0.0
C357 C 0.99935 0.33408 0.38651 0.0
C358 C 1.0096 0.32635 0.28509 0.0
C359 C 0.02795 0.3443 0.23246 0.0
C360 C 0.03547 0.36963 0.27833 0.0
C361 C 0.02451 0.37683 0.37736 0.0
C362 C 1.00686 0.35951 0.4309 0.0
C363 C 0.99725 0.37241 0.53477 0.0
C364 C 0.966 0.3768 0.53399 0.0
C365 C 1.00621 0.35488 0.63051 0.0
C366 C 1.01234 0.39975 0.53205 0.0
C367 C 0.02795 0.40181 0.44043 0.0
C368 C 0.04345 0.4252 0.41911 0.0
C369 C 0.04303 0.44694 0.49246 0.0
C370 C 0.02712 0.44564 0.58716 0.0
C371 C 1.01156 0.42148 0.60659 0.0
H372 H 0.85103 0.06153 0.27416 0.0
H373 H 0.81388 0.98126 0.24121 0.0
H374 H 0.85445 0.96557 0.13962 0.0
H375 H 0.87161 0.06423 0.99934 0.0
H376 H 0.90203 0.08402 0.02627 0.0
H377 H 0.87249 0.08714 0.11144 0.0
H378 H 0.90168 0.0739 0.27452 0.0
H379 H 0.93153 0.07192 0.18956 0.0
H380 H 0.92233 0.04315 0.27302 0.0
H381 H 0.90153 0.95906 0.04149 0.0
H382 H 0.9448 0.96418 0.93849 0.0
H383 H 0.94453 0.05149 1.00159 0.0
C384 C 0.85099 0.04075 0.24456 0.0
C385 C 0.8289 0.02275 0.26739 0.0
C386 C 0.83064 0.99541 0.22884 0.0
C387 C 0.85356 0.98639 0.16929 0.0
C388 C 0.87433 1.00517 0.14487 0.0
C389 C 0.87273 0.03199 0.17938 0.0
C390 C 0.89596 0.04907 0.13393 0.0
C391 C 0.88485 0.07249 0.06353 0.0
C392 C 0.91403 0.06016 0.22318 0.0
C393 C 0.91122 0.02782 0.06907 0.0
C394 C 0.89894 1.00233 0.07848 0.0
C395 C 0.91078 0.9791 0.03193 0.0
C396 C 0.93538 0.98216 0.97362 0.0
C397 C 0.94753 1.00834 0.95957 0.0
C398 C 0.93523 0.03137 1.00834 0.0
H399 H 0.51129 0.85962 0.35056 0.0
H400 H 0.55879 0.80253 0.16278 0.0
H401 H 0.56931 0.83981 0.03353 0.0
H402 H 0.48043 0.89306 0.13074 0.0
H403 H 0.47955 0.9261 0.19412 0.0
H404 H 0.47927 0.89497 0.27305 0.0
H405 H 0.52355 0.91241 0.37476 0.0
H406 H 0.52261 0.9433 0.29431 0.0
H407 H 0.55302 0.92224 0.29777 0.0
H408 H 0.56972 0.88303 0.91376 0.0
H409 H 0.56261 0.92741 0.82201 0.0
H410 H 0.51449 0.95663 0.08879 0.0
C411 C 0.52447 0.85519 0.28349 0.0
C412 C 0.53454 0.82821 0.26744 0.0
C413 C 0.5514 0.82313 0.1779 0.0
C414 C 0.55723 0.84418 0.10364 0.0
C415 C 0.54612 0.87038 0.11996 0.0
C416 C 0.53035 0.87592 0.20851 0.0
C417 C 0.51928 0.90509 0.20458 0.0
C418 C 0.48775 0.90486 0.20061 0.0
C419 C 0.53021 0.92179 0.29852 0.0
C420 C 0.53114 0.9154 0.10044 0.0
C421 C 0.5465 0.895 0.05227 0.0
C422 C 0.55806 0.89914 0.95207 0.0
C423 C 0.5538 0.92453 0.90028 0.0
C424 C 0.53822 0.94589 0.94816 0.0
C425 C 0.52697 0.94112 0.05044 0.0
H426 H 0.72858 0.49353 0.06872 0.0
H427 H 0.7058 0.5205 0.38383 0.0
H428 H 0.65902 0.53197 0.31795 0.0
H429 H 0.68851 0.54392 0.9179 0.0
H430 H 0.67927 0.5197 0.81616 0.0
H431 H 0.71116 0.51572 0.88697 0.0
H432 H 0.69736 0.46623 0.9411 0.0
H433 H 0.66553 0.47016 0.86991 0.0
H434 H 0.66517 0.46066 1.0083 0.0
H435 H 0.61366 0.53892 0.21566 0.0
H436 H 0.57453 0.54018 0.09136 0.0
H437 H 0.62645 0.50672 0.84297 0.0
C438 C 0.71382 0.50218 0.12355 0.0
C439 C 0.72103 0.50638 0.23159 0.0
C440 C 0.70103 0.51764 0.30067 0.0
C441 C 0.67432 0.52398 0.26381 0.0
C442 C 0.66778 0.51902 0.15723 0.0
C443 C 0.68708 0.50841 0.08811 0.0
C444 C 0.67473 0.50397 0.97841 0.0
C445 C 0.68929 0.5219 0.89493 0.0
C446 C 0.67577 0.47344 0.94765 0.0
C447 C 0.64534 0.51355 0.99613 0.0
C448 C 0.64179 0.52234 0.09964 0.0
C449 C 0.61639 0.53211 0.13458 0.0
C450 C 0.59417 0.5328 0.0628 0.0
C451 C 0.59709 0.52369 0.95625 0.0
C452 C 0.62326 0.51396 0.92327 0.0
H453 H 0.98315 0.68357 0.32766 0.0
H454 H 0.05375 0.72879 0.21413 0.0
H455 H 0.06718 0.68912 0.10252 0.0
H456 H 1.01546 0.61531 0.33099 0.0
H457 H 0.98562 0.59736 0.2835 0.0
H458 H 0.98172 0.62818 0.3611 0.0
H459 H 0.95296 0.65121 0.2147 0.0
H460 H 0.95551 0.62044 0.13633 0.0
H461 H 0.96615 0.65293 0.08102 0.0
H462 H 0.06971 0.64682 0.9862 0.0
H463 H 0.06357 0.60396 0.88496 0.0
H464 H 0.99221 0.58394 0.07575 0.0
C465 C 1.00164 0.68491 0.28031 0.0
C466 C 1.01754 0.70939 0.28032 0.0
C467 C 0.04156 0.71024 0.21707 0.0
C468 C 0.04919 0.68781 0.15275 0.0
C469 C 0.0327 0.66433 0.15231 0.0
C470 C 1.00957 0.66257 0.21546 0.0
C471 C 0.99485 0.63533 0.19691 0.0
C472 C 0.99439 0.61799 0.29916 0.0
C473 C 0.96564 0.64028 0.15474 0.0
C474 C 1.01305 0.6222 0.11221 0.0
C475 C 0.03468 0.63946 0.08751 0.0
C476 C 0.0531 0.63303 1.00633 0.0
C477 C 0.04936 0.6086 0.94872 0.0
C478 C 0.0276 0.59028 0.97246 0.0
C479 C 1.00937 0.59715 0.05668 0.0
H480 H 0.94656 0.22635 0.08322 0.0
H481 H 0.94593 0.26737 0.38712 0.0
H482 H 0.91383 0.2336 0.45731 0.0
H483 H 0.87385 0.19061 0.11269 0.0
H484 H 0.88748 0.15966 0.05464 0.0
H485 H 0.8994 0.19276 1.00928 0.0
H486 H 0.9505 0.17968 0.05422 0.0
H487 H 0.9376 0.14627 0.08496 0.0
H488 H 0.95759 0.16452 0.18197 0.0
H489 H 0.8977 0.1902 0.51583 0.0
H490 H 0.90533 0.14165 0.55816 0.0
H491 H 0.9146 0.12377 0.22392 0.0
C492 C 0.93874 0.22849 0.16314 0.0
C493 C 0.94821 0.24983 0.22858 0.0
C494 C 0.93806 0.25197 0.33364 0.0
C495 C 0.91973 0.2327 0.37451 0.0
C496 C 0.91194 0.21085 0.31049 0.0
C497 C 0.92106 0.20861 0.20644 0.0
C498 C 0.91561 0.1801 0.16385 0.0
C499 C 0.89271 0.18084 0.08017 0.0
C500 C 0.9419 0.16686 0.11869 0.0
C501 C 0.90603 0.16576 0.26433 0.0
C502 C 0.90231 0.18428 0.34639 0.0
C503 C 0.89968 0.17557 0.45183 0.0
C504 C 0.90398 0.14781 0.47554 0.0
C505 C 0.91094 0.12927 0.39399 0.0
C506 C 0.90918 0.13781 0.28705 0.0
H507 H 0.31515 0.95321 0.26217 0.0
H508 H 0.32085 1.00517 0.53916 0.0
H509 H 0.34776 0.96951 0.63175 0.0
H510 H 0.32168 0.88383 0.38998 0.0
H511 H 0.3454 0.87194 0.29012 0.0
H512 H 0.31926 0.89675 0.25591 0.0
H513 H 0.35607 0.93053 0.18478 0.0
H514 H 0.38197 0.90543 0.21413 0.0
H515 H 0.38451 0.93954 0.26878 0.0
H516 H 0.37532 0.93083 0.69107 0.0
H517 H 0.42025 0.90913 0.68241 0.0
H518 H 0.40468 0.88446 0.35823 0.0
C519 C 0.3221 0.95696 0.34239 0.0
C520 C 0.31471 0.98117 0.39626 0.0
C521 C 0.32493 0.98595 0.49943 0.0
C522 C 0.33994 0.96569 0.55276 0.0
C523 C 0.34557 0.94121 0.49993 0.0
C524 C 0.33838 0.93752 0.39476 0.0
C525 C 0.35362 0.9135 0.34657 0.0
C526 C 0.33379 0.89012 0.31905 0.0
C527 C 0.37004 0.9228 0.24792 0.0
C528 C 0.37197 0.90551 0.43917 0.0
C529 C 0.36513 0.92028 0.52932 0.0
C530 C 0.38094 0.91921 0.62118 0.0
C531 C 0.40649 0.90633 0.61583 0.0
C532 C 0.4164 0.89671 0.51694 0.0
C533 C 0.3975 0.89229 0.43371 0.0
H534 H 0.59119 0.29767 0.37458 0.0
H535 H 0.59888 0.29818 0.03312 0.0
H536 H 0.62867 0.33928 0.04284 0.0
H537 H 0.5791 0.36291 0.40054 0.0
H538 H 0.59707 0.36852 0.52365 0.0
H539 H 0.58488 0.33494 0.49217 0.0
H540 H 0.63409 0.31536 0.51423 0.0
H541 H 0.64654 0.34923 0.54552 0.0
H542 H 0.66199 0.32998 0.43895 0.0
H543 H 0.64705 0.38533 0.08591 0.0
H544 H 0.64836 0.43268 0.15456 0.0
H545 H 0.62846 0.40223 0.46899 0.0
C546 C 0.60055 0.30568 0.30292 0.0
C547 C 0.59337 0.29489 0.20356 0.0
C548 C 0.60465 0.30625 0.10992 0.0
C549 C 0.6217 0.32938 0.11505 0.0
C550 C 0.62747 0.3405 0.21462 0.0
C551 C 0.61735 0.32879 0.30716 0.0
C552 C 0.62152 0.34734 0.40163 0.0
C553 C 0.59403 0.35383 0.45751 0.0
C554 C 0.64229 0.33472 0.47967 0.0
C555 C 0.63338 0.37229 0.34669 0.0
C556 C 0.63775 0.36764 0.23962 0.0
C557 C 0.6445 0.38898 0.17008 0.0
C558 C 0.6451 0.41587 0.20959 0.0
C559 C 0.6385 0.42117 0.31713 0.0
C560 C 0.63438 0.39887 0.38721 0.0
H561 H 0.25166 0.56478 0.36411 0.0
H562 H 0.25457 0.59184 0.03748 0.0
H563 H 0.21437 0.62224 0.06907 0.0
H564 H 0.18497 0.55706 0.38434 0.0
H565 H 0.18095 0.56893 0.51902 0.0
H566 H 0.21328 0.55542 0.4763 0.0
H567 H 0.23726 0.60054 0.53293 0.0
H568 H 0.2047 0.61429 0.57578 0.0
H569 H 0.22527 0.63298 0.48099 0.0
H570 H 0.16818 0.63983 0.12597 0.0
H571 H 0.12142 0.64306 0.20148 0.0
H572 H 0.15099 0.60687 0.49498 0.0
C573 C 0.24444 0.57817 0.30114 0.0
C574 C 0.25566 0.57614 0.19873 0.0
C575 C 0.24578 0.59318 0.11625 0.0
C576 C 0.22325 0.61063 0.13401 0.0
C577 C 0.21166 0.61128 0.23557 0.0
C578 C 0.2224 0.59587 0.31841 0.0
C579 C 0.20434 0.59696 0.41575 0.0
C580 C 0.19534 0.5679 0.45068 0.0
C581 C 0.21876 0.61211 0.50672 0.0
C582 C 0.18063 0.61362 0.37256 0.0
C583 C 0.18539 0.6223 0.26936 0.0
C584 C 0.16457 0.63403 0.20787 0.0
C585 C 0.13804 0.63573 0.25123 0.0
C586 C 0.13262 0.62552 0.35466 0.0
C587 C 0.15459 0.61582 0.41737 0.0
H588 H 0.9788 0.79603 0.16429 0.0
H589 H 0.95222 0.80279 0.48961 0.0
H590 H 0.93126 0.84802 0.45003 0.0
H591 H 1.00525 0.85336 0.14084 0.0
H592 H 0.99582 0.86242 1.00662 0.0
H593 H 0.99666 0.82723 0.04531 0.0
H594 H 0.94615 0.82161 0.98684 0.0
H595 H 0.94515 0.85729 0.94767 0.0
H596 H 0.92003 0.84402 0.03958 0.0
H597 H 0.92709 0.89594 0.39391 0.0
H598 H 0.94989 0.93939 0.34702 0.0
H599 H 0.97777 0.90401 0.05222 0.0
C600 C 0.96695 0.80648 0.22464 0.0
C601 C 0.96645 0.79606 0.32878 0.0
C602 C 0.95222 0.81047 0.40877 0.0
C603 C 0.94004 0.83599 0.38633 0.0
C604 C 0.94207 0.84665 0.28322 0.0
C605 C 0.95505 0.83203 0.20308 0.0
C606 C 0.961 0.85005 0.10781 0.0
C607 C 0.99147 0.84818 0.07357 0.0
C608 C 0.94193 0.84281 0.01502 0.0
C609 C 0.95359 0.87783 0.15324 0.0
C610 C 0.94054 0.87534 0.25088 0.0
C611 C 0.93661 0.89814 0.31666 0.0
C612 C 0.94962 0.92289 0.28956 0.0
C613 C 0.96624 0.92426 0.19789 0.0
C614 C 0.96543 0.90277 0.12365 0.0
H615 H 0.73723 0.05849 0.17475 0.0
H616 H 0.74796 0.101 0.47218 0.0
H617 H 0.70785 0.13087 0.43048 0.0
H618 H 0.71638 0.12094 0.01923 0.0
H619 H 0.69272 0.10148 0.93961 0.0
H620 H 0.72354 0.08544 0.9894 0.0
H621 H 0.69497 0.04707 0.0796 0.0
H622 H 0.66424 0.06234 0.0278 0.0
H623 H 0.66751 0.05637 0.16869 0.0
H624 H 0.66202 0.14973 0.36736 0.0
H625 H 0.61572 0.15578 0.28939 0.0
H626 H 0.63994 0.1052 0.02254 0.0
C627 C 0.73128 0.07453 0.22957 0.0
C628 C 0.74497 0.07748 0.32683 0.0
C629 C 0.7371 0.09841 0.39798 0.0
C630 C 0.71472 0.11559 0.37417 0.0
C631 C 0.70142 0.1121 0.277 0.0
C632 C 0.70984 0.09236 0.20508 0.0
C633 C 0.69145 0.09141 0.10911 0.0
C634 C 0.70696 0.10036 1.00841 0.0
C635 C 0.67878 0.06262 0.09567 0.0
C636 C 0.67028 0.11253 0.14087 0.0
C637 C 0.67638 0.12454 0.23738 0.0
C638 C 0.65745 0.14125 0.29006 0.0
C639 C 0.63125 0.14467 0.24523 0.0
C640 C 0.62446 0.13145 0.14882 0.0
C641 C 0.64481 0.11654 0.09388 0.0
H642 H 0.47484 0.75439 0.19837 0.0
H643 H 0.46664 0.74689 0.53858 0.0
H644 H 0.43815 0.70536 0.51548 0.0
H645 H 0.4035 0.72115 0.1275 0.0
H646 H 0.41918 0.70536 0.01318 0.0
H647 H 0.42999 0.73901 0.05516 0.0
H648 H 0.48017 0.72167 0.06405 0.0
H649 H 0.46972 0.68813 0.02414 0.0
H650 H 0.48838 0.69242 0.14652 0.0
H651 H 0.42473 0.65932 0.45946 0.0
H652 H 0.42741 0.61371 0.37702 0.0
H653 H 0.44054 0.6514 0.06961 0.0
C654 C 0.46542 0.74491 0.26717 0.0
C655 C 0.4724 0.75369 0.36983 0.0
C656 C 0.46113 0.74035 0.45938 0.0
C657 C 0.44478 0.71698 0.44668 0.0
C658 C 0.43943 0.70781 0.34379 0.0
C659 C 0.44893 0.72182 0.25519 0.0
C660 C 0.44513 0.70534 0.15484 0.0
C661 C 0.42313 0.7185 0.08349 0.0
C662 C 0.47246 0.70165 0.09412 0.0
C663 C 0.43503 0.67865 0.20199 0.0
C664 C 0.43082 0.68077 0.31057 0.0
C665 C 0.42668 0.65762 0.37411 0.0
C666 C 0.42836 0.63172 0.32677 0.0
C667 C 0.43358 0.6293 0.21679 0.0
C668 C 0.43554 0.653 0.15322 0.0
H669 H 0.81701 0.4401 0.43589 0.0
H670 H 0.79127 0.44546 0.10768 0.0
H671 H 0.82474 0.4103 0.05911 0.0
H672 H 0.87827 0.44846 0.38704 0.0
H673 H 0.89611 0.42616 0.47927 0.0
H674 H 0.86212 0.43781 0.50871 0.0
H675 H 0.84326 0.38918 0.52491 0.0
H676 H 0.87734 0.37583 0.50212 0.0
H677 H 0.84915 0.36459 0.4207 0.0
H678 H 0.86665 0.38642 0.03247 0.0
H679 H 0.91631 0.38871 0.01802 0.0
H680 H 0.92229 0.40238 0.35715 0.0
C681 C 0.81818 0.43344 0.35443 0.0
C682 C 0.80122 0.44529 0.27592 0.0
C683 C 0.80333 0.43599 0.16999 0.0
C684 C 0.82226 0.41578 0.14179 0.0
C685 C 0.83971 0.40533 0.21967 0.0
C686 C 0.83804 0.414 0.32426 0.0
C687 C 0.86382 0.40619 0.38482 0.0
C688 C 0.8759 0.43112 0.44336 0.0
C689 C 0.85804 0.38253 0.46272 0.0
C690 C 0.8818 0.39636 0.29371 0.0
C691 C 0.8665 0.39333 0.20195 0.0
C692 C 0.8788 0.38823 0.10401 0.0
C693 C 0.90734 0.38945 0.09665 0.0
C694 C 0.92328 0.39644 0.18639 0.0
C695 C 0.91051 0.39726 0.28742 0.0
H696 H 0.99928 0.23541 0.97452 0.0
H697 H 1.00716 0.21656 0.30913 0.0
H698 H 1.0158 0.16762 0.26558 0.0
H699 H 0.9646 0.1726 0.88586 0.0
H700 H 0.98396 0.17193 0.76499 0.0
H701 H 0.97791 0.20415 0.83084 0.0
H702 H 0.03147 0.21038 0.82261 0.0
H703 H 0.03574 0.17653 0.76735 0.0
H704 H 0.05311 0.18554 0.88851 0.0
H705 H 0.02188 0.1204 0.18711 0.0
H706 H 0.02566 0.07818 0.08109 0.0
H707 H 1.01231 0.12536 0.7926 0.0
C708 C 1.00314 0.2209 0.03812 0.0
C709 C 1.00281 0.22985 0.1458 0.0
C710 C 1.00766 0.21025 0.22679 0.0
C711 C 1.01254 0.1824 0.20242 0.0
C712 C 1.01241 0.17411 0.09606 0.0
C713 C 1.0079 0.19275 0.01478 0.0
C714 C 1.00898 0.1781 0.90717 0.0
C715 C 0.98227 0.18198 0.84383 0.0
C716 C 0.0338 0.18824 0.84259 0.0
C717 C 1.01297 0.14814 0.94119 0.0
C718 C 1.01551 0.14659 0.05054 0.0
C719 C 0.02002 0.1215 0.10154 0.0
C720 C 0.02219 0.09749 0.04015 0.0
C721 C 0.01935 0.09807 0.92792 0.0
C722 C 1.01444 0.12396 0.87803 0.0
H723 H 0.34529 0.02595 0.27882 0.0
H724 H 0.29188 0.98579 0.05363 0.0
H725 H 0.33062 0.98193 0.92655 0.0
H726 H 0.38406 0.06567 0.08722 0.0
H727 H 0.41629 0.06193 0.15597 0.0
H728 H 0.38455 0.061 0.22936 0.0
H729 H 0.39781 1.01347 0.30795 0.0
H730 H 0.42967 1.01451 0.23521 0.0
H731 H 0.40674 0.98586 0.21937 0.0
H732 H 0.37659 0.98102 0.82484 0.0
H733 H 0.42371 0.9862 0.75407 0.0
H734 H 0.44735 0.02924 0.0405 0.0
C735 C 0.34177 1.01647 0.20244 0.0
C736 C 0.31523 1.00654 0.17584 0.0
C737 C 0.31165 0.99412 0.07519 0.0
C738 C 0.33372 0.9916 1.00282 0.0
C739 C 0.35955 1.00169 0.03124 0.0
C740 C 0.36361 1.01406 0.12862 0.0
C741 C 0.3933 0.02362 0.13903 0.0
C742 C 0.39462 0.05492 0.15375 0.0
C743 C 0.40772 1.00847 0.23085 0.0
C744 C 0.40526 1.0151 0.03195 0.0
C745 C 0.38555 1.00203 0.97164 0.0
C746 C 0.39199 0.99147 0.87145 0.0
C747 C 0.41897 0.99448 0.8317 0.0
C748 C 0.43948 1.00843 0.8904 0.0
C749 C 0.43224 0.01882 0.9923 0.0
H750 H 0.54777 0.3337 0.21507 0.0
H751 H 0.53212 0.28075 0.94684 0.0
H752 H 0.52644 0.32173 0.83078 0.0
H753 H 0.49924 0.38813 0.14212 0.0
H754 H 0.52122 0.41542 0.1872 0.0
H755 H 0.5232 0.382 0.24876 0.0
H756 H 0.57518 0.37993 0.2078 0.0
H757 H 0.57338 0.41328 0.14589 0.0
H758 H 0.58686 0.38446 0.07302 0.0
H759 H 0.52591 0.36914 0.74046 0.0
H760 H 0.52539 0.41819 0.68814 0.0
H761 H 0.53938 0.44113 0.01611 0.0
C762 C 0.54273 0.33081 0.13216 0.0
C763 C 0.54017 0.30385 0.09008 0.0
C764 C 0.53376 0.30104 0.98104 0.0
C765 C 0.53078 0.32427 0.91443 0.0
C766 C 0.53405 0.3505 0.95767 0.0
C767 C 0.53953 0.35389 0.06455 0.0
C768 C 0.5421 0.38433 0.09108 0.0
C769 C 0.52012 0.39298 0.17208 0.0
C770 C 0.5711 0.39089 0.13186 0.0
C771 C 0.53701 0.39758 0.98278 0.0
C772 C 0.53283 0.37766 0.90659 0.0
C773 C 0.52885 0.38482 0.8 0.0
C774 C 0.5287 0.41286 0.77075 0.0
C775 C 0.53207 0.43383 0.84749 0.0
C776 C 0.53637 0.42581 0.95515 0.0
H777 H 0.23951 0.54859 0.97523 0.0
H778 H 0.23026 0.49487 0.24777 0.0
H779 H 0.18221 0.48577 0.19568 0.0
H780 H 0.17154 0.57932 1.0013 0.0
H781 H 0.16594 0.58294 0.86037 0.0
H782 H 0.20032 0.58381 0.91292 0.0
H783 H 0.21468 0.54424 0.78858 0.0
H784 H 0.18047 0.54328 0.7346 0.0
H785 H 0.19553 0.5126 0.7904 0.0
H786 H 0.13517 0.48272 0.11613 0.0
H787 H 0.09171 0.48635 0.02023 0.0
H788 H 0.12808 0.54535 0.80198 0.0
C789 C 0.22729 0.53503 0.02414 0.0
C790 C 0.23897 0.52219 0.11553 0.0
C791 C 0.22224 0.50434 0.17634 0.0
C792 C 0.19475 0.49931 0.14773 0.0
C793 C 0.18382 0.51256 0.05845 0.0
C794 C 0.19946 0.53024 0.99773 0.0
C795 C 0.18208 0.54275 0.90842 0.0
C796 C 0.17983 0.57407 0.92155 0.0
C797 C 0.1939 0.53526 0.79901 0.0
C798 C 0.15434 0.52891 0.92712 0.0
C799 C 0.15609 0.51158 0.01428 0.0
C800 C 0.13364 0.49624 0.04792 0.0
C801 C 0.10884 0.49846 0.99185 0.0
C802 C 0.10594 0.51604 0.90193 0.0
C803 C 0.12927 0.53166 0.86977 0.0
H804 H 0.01827 0.82815 0.34657 0.0
H805 H 1.00966 0.77763 0.62791 0.0
H806 H 1.01513 0.8189 0.741 0.0
H807 H 0.06907 0.87792 0.45828 0.0
H808 H 0.05368 0.90671 0.38997 0.0
H809 H 0.05211 0.87289 0.33262 0.0
H810 H 0.99965 0.87724 0.32197 0.0
H811 H 1.00066 0.91057 0.38422 0.0
H812 H 0.98028 0.88352 0.44197 0.0
H813 H 1.01822 0.86695 0.82364 0.0
H814 H 0.01912 0.91624 0.8684 0.0
H815 H 0.02478 0.93677 0.53344 0.0
C816 C 0.0183 0.82573 0.43208 0.0
C817 C 1.01403 0.79938 0.47846 0.0
C818 C 1.0135 0.79733 0.59068 0.0
C819 C 1.01646 0.82078 0.65547 0.0
C820 C 0.02022 0.84648 0.60747 0.0
C821 C 0.02151 0.84902 0.49819 0.0
C822 C 0.02417 0.87919 0.46672 0.0
C823 C 0.05139 0.88448 0.40846 0.0
C824 C 0.9997 0.88814 0.39928 0.0
C825 C 0.02351 0.89339 0.57443 0.0
C826 C 0.0215 0.87405 0.65476 0.0
C827 C 0.01992 0.88212 0.76094 0.0
C828 C 0.0204 0.91038 0.78562 0.0
C829 C 0.02199 0.93086 0.70498 0.0
C830 C 0.02349 0.92194 0.59755 0.0
H831 H 0.73456 0.06096 0.56813 0.0
H832 H 0.7334 0.99173 0.35352 0.0
H833 H 0.68697 0.97952 0.41733 0.0
H834 H 0.69465 0.03006 0.78628 0.0
H835 H 0.67571 0.06101 0.81473 0.0
H836 H 0.70994 0.06313 0.76089 0.0
H837 H 0.6921 0.09293 0.60539 0.0
H838 H 0.65777 0.09108 0.65817 0.0
H839 H 0.66454 0.08041 0.52364 0.0
H840 H 0.63968 0.97663 0.49275 0.0
H841 H 0.59432 0.98251 0.57511 0.0
H842 H 0.62333 0.05466 0.74172 0.0
C843 C 0.72452 0.0432 0.53499 0.0
C844 C 0.73785 0.02714 0.45586 0.0
C845 C 0.72402 1.00391 0.41551 0.0
C846 C 0.69749 0.997 0.45083 0.0
C847 C 0.68472 1.01354 0.52684 0.0
C848 C 0.69773 0.03616 0.56892 0.0
C849 C 0.67855 0.05126 0.6455 0.0
C850 C 0.69043 0.05137 0.75855 0.0
C851 C 0.6729 0.08066 0.6058 0.0
C852 C 0.65271 0.0336 0.63968 0.0
C853 C 0.65699 1.01197 0.57052 0.0
C854 C 0.63622 0.99335 0.54755 0.0
C855 C 0.6104 0.99694 0.59493 0.0
C856 C 0.60502 0.01891 0.66582 0.0
C857 C 0.62676 0.03736 0.68955 0.0
H858 H 0.52511 0.7126 0.34176 0.0
H859 H 0.52365 0.76087 0.62906 0.0
H860 H 0.524 0.7181 0.73731 0.0
H861 H 0.48189 0.6586 0.435 0.0
H862 H 0.50025 0.63157 0.36809 0.0
H863 H 0.50056 0.66593 0.31455 0.0
H864 H 0.55384 0.66549 0.3194 0.0
H865 H 0.55335 0.6311 0.37277 0.0
H866 H 0.57117 0.65792 0.44264 0.0
H867 H 0.51973 0.66908 0.81413 0.0
H868 H 0.51841 0.61911 0.85292 0.0
H869 H 0.52674 0.60205 0.5168 0.0
C870 C 0.52577 0.71406 0.4275 0.0
C871 C 0.52502 0.74018 0.47727 0.0
C872 C 0.52492 0.74119 0.58962 0.0
C873 C 0.52481 0.71693 0.65155 0.0
C874 C 0.52511 0.69148 0.60039 0.0
C875 C 0.52619 0.68991 0.49073 0.0
C876 C 0.52636 0.65999 0.45552 0.0
C877 C 0.50074 0.65366 0.38914 0.0
C878 C 0.55276 0.65323 0.39394 0.0
C879 C 0.52542 0.64493 0.56204 0.0
C880 C 0.52408 0.66349 0.64465 0.0
C881 C 0.52126 0.65446 0.74983 0.0
C882 C 0.52035 0.62594 0.77128 0.0
C883 C 0.52281 0.6064 0.68858 0.0
C884 C 0.52528 0.6163 0.5824 0.0
H885 H 0.84149 0.51018 0.29169 0.0
H886 H 0.79078 0.48305 0.55402 0.0
H887 H 0.8306 0.48646 0.67541 0.0
H888 H 0.91031 0.48028 0.36843 0.0
H889 H 0.92591 0.51117 0.32195 0.0
H890 H 0.89357 0.50055 0.26672 0.0
H891 H 0.87916 0.55174 0.32061 0.0
H892 H 0.91092 0.55701 0.39086 0.0
H893 H 0.87867 0.56054 0.45959 0.0
H894 H 0.87642 0.48979 0.76721 0.0
H895 H 0.92392 0.49686 0.82762 0.0
H896 H 0.94627 0.52545 0.51206 0.0
C897 C 0.83893 0.50506 0.37482 0.0
C898 C 0.81295 0.496 0.41354 0.0
C899 C 0.81033 0.48995 0.52304 0.0
C900 C 0.83294 0.4917 0.5923 0.0
C901 C 0.85829 0.50024 0.5522 0.0
C902 C 0.86144 0.50731 0.4463 0.0
C903 C 0.89067 0.51794 0.427 0.0
C904 C 0.90586 0.50146 0.34089 0.0
C905 C 0.8898 0.54863 0.39778 0.0
C906 C 0.9038 0.51366 0.53628 0.0
C907 C 0.88455 0.50374 0.60723 0.0
C908 C 0.89158 0.49775 0.71232 0.0
C909 C 0.91883 0.50184 0.74607 0.0
C910 C 0.93931 0.51186 0.67569 0.0
C911 C 0.93137 0.51794 0.56892 0.0
loop_
_geom_bond_atom_site_label_1
_geom_bond_atom_site_label_2
_geom_bond_distance
_geom_bond_site_symmetry_2
_ccdc_geom_bond_type
C0 N1 1.317 . S
C0 N2 1.348 . S
C0 C3 1.485 . S
N1 C0 1.317 . S
N1 N5 1.370 . S
N2 C0 1.348 . S
N2 C4 1.346 . S
C3 C0 1.485 . S
C3 H7 0.960 . S
C3 H8 0.961 . S
C3 H9 0.960 . S
C4 N2 1.346 . S
C4 N5 1.307 . S
C4 C6 1.486 . S
N5 N1 1.370 . S
N5 C4 1.307 . S
C6 C4 1.486 . S
C6 H10 0.960 . S
C6 H11 0.960 . S
C6 H12 0.959 . S
H7 C3 0.960 . S
H8 C3 0.961 . S
H9 C3 0.960 . S
H10 C6 0.960 . S
H11 C6 0.960 . S
H12 C6 0.959 . S
C13 N14 1.317 . S
C13 N15 1.350 . S
C13 C16 1.485 . S
N14 C13 1.317 . S
N14 N18 1.371 . S
N15 C13 1.350 . S
N15 C17 1.345 1_655 S
C16 C13 1.485 . S
C16 H20 0.960 1_655 S
C16 H21 0.961 . S
C16 H22 0.960 . S
C17 N15 1.345 1_455 S
C17 N18 1.307 1_455 S
C17 C19 1.486 . S
N18 N14 1.371 . S
N18 C17 1.307 1_655 S
C19 C17 1.486 . S
C19 H23 0.922 1_455 S
C19 H24 0.991 . S
C19 H25 0.967 . S
H20 C16 0.960 1_455 S
H21 C16 0.961 . S
H22 C16 0.960 . S
H23 C19 0.922 1_655 S
H24 C19 0.991 . S
H25 C19 0.967 . S
C26 N27 1.317 . S
C26 N28 1.350 . S
C26 C29 1.485 . S
N27 C26 1.317 . S
N27 N31 1.371 . S
N28 C26 1.350 . S
N28 C30 1.345 1_565 S
C29 C26 1.485 . S
C29 H33 0.960 1_565 S
C29 H34 0.961 . S
C29 H35 0.960 . S
C30 N28 1.345 1_545 S
C30 N31 1.307 1_545 S
C30 C32 1.486 . S
N31 N27 1.371 . S
N31 C30 1.307 1_565 S
C32 C30 1.486 . S
C32 H36 0.922 1_545 S
C32 H37 0.991 . S
C32 H38 0.967 . S
H33 C29 0.960 1_545 S
H34 C29 0.961 . S
H35 C29 0.960 . S
H36 C32 0.922 1_565 S
H37 C32 0.991 . S
H38 C32 0.967 . S
C39 N40 1.317 . S
C39 N41 1.348 . S
C39 C42 1.485 . S
N40 C39 1.317 . S
N40 N44 1.370 . S
N41 C39 1.348 . S
N41 C43 1.346 . S
C42 C39 1.485 . S
C42 H46 0.960 . S
C42 H47 0.961 . S
C42 H48 0.960 . S
C43 N41 1.346 . S
C43 N44 1.307 . S
C43 C45 1.486 . S
N44 N40 1.370 . S
N44 C43 1.307 . S
C45 C43 1.486 . S
C45 H49 0.960 . S
C45 H50 0.960 . S
C45 H51 0.959 . S
H46 C42 0.960 . S
H47 C42 0.961 . S
H48 C42 0.960 . S
H49 C45 0.960 . S
H50 C45 0.960 . S
H51 C45 0.959 . S
C52 N53 1.317 . S
C52 N54 1.348 1_556 S
C52 C55 1.485 . S
N53 C52 1.317 . S
N53 N57 1.370 1_556 S
N54 C52 1.348 1_554 S
N54 C56 1.346 . S
C55 C52 1.485 . S
C55 H59 0.960 . S
C55 H60 0.961 . S
C55 H61 0.960 . S
C56 N54 1.346 . S
C56 N57 1.307 . S
C56 C58 1.486 . S
N57 N53 1.370 1_554 S
N57 C56 1.307 . S
C58 C56 1.486 . S
C58 H62 0.960 . S
C58 H63 0.960 . S
C58 H64 0.959 . S
H59 C55 0.960 . S
H60 C55 0.961 . S
H61 C55 0.960 . S
H62 C58 0.960 . S
H63 C58 0.960 . S
H64 C58 0.959 . S
C65 N66 1.317 . S
C65 N67 1.350 1_556 S
C65 C68 1.485 . S
N66 C65 1.317 . S
N66 N70 1.370 1_556 S
N67 C65 1.350 1_554 S
N67 C69 1.345 1_655 S
C68 C65 1.485 . S
C68 H72 0.960 1_655 S
C68 H73 0.961 . S
C68 H74 0.960 . S
C69 N67 1.345 1_455 S
C69 N70 1.307 1_455 S
C69 C71 1.486 . S
N70 N66 1.370 1_554 S
N70 C69 1.307 1_655 S
C71 C69 1.486 . S
C71 H75 0.960 1_455 S
C71 H76 0.960 . S
C71 H77 0.959 . S
H72 C68 0.960 1_455 S
H73 C68 0.961 . S
H74 C68 0.960 . S
H75 C71 0.960 1_655 S
H76 C71 0.960 . S
H77 C71 0.959 . S
C78 N79 1.317 . S
C78 N80 1.350 1_556 S
C78 C81 1.485 . S
N79 C78 1.317 . S
N79 N83 1.370 1_556 S
N80 C78 1.350 1_554 S
N80 C82 1.345 1_565 S
C81 C78 1.485 . S
C81 H85 0.960 1_565 S
C81 H86 0.961 . S
C81 H87 0.960 . S
C82 N80 1.345 1_545 S
C82 N83 1.307 1_545 S
C82 C84 1.487 . S
N83 N79 1.370 1_554 S
N83 C82 1.307 1_565 S
C84 C82 1.487 . S
C84 H88 0.960 1_545 S
C84 H89 0.960 . S
C84 H90 0.959 . S
H85 C81 0.960 1_545 S
H86 C81 0.961 . S
H87 C81 0.960 . S
H88 C84 0.960 1_565 S
H89 C84 0.960 . S
H90 C84 0.959 . S
C91 N92 1.317 . S
C91 N93 1.348 1_556 S
C91 C94 1.485 . S
N92 C91 1.317 . S
N92 N96 1.370 1_556 S
N93 C91 1.348 1_554 S
N93 C95 1.346 . S
C94 C91 1.485 . S
C94 H98 0.960 . S
C94 H99 0.961 . S
C94 H100 0.960 . S
C95 N93 1.346 . S
C95 N96 1.307 . S
C95 C97 1.486 . S
N96 N92 1.370 1_554 S
N96 C95 1.307 . S
C97 C95 1.486 . S
C97 H101 0.960 . S
C97 H102 0.960 . S
C97 H103 0.959 . S
H98 C94 0.960 . S
H99 C94 0.961 . S
H100 C94 0.960 . S
H101 C97 0.960 . S
H102 C97 0.960 . S
H103 C97 0.959 . S
Tb104 C114 2.825 1_556 S
Tb104 O115 2.347 1_455 S
Tb104 O118 2.366 . S
Tb104 O123 2.418 . S
Tb104 O124 2.384 1_565 S
Tb104 O127 2.479 . S
Tb104 O128 2.471 1_556 S
Eu105 O116 2.418 . S
Eu105 O117 2.384 1_545 S
Eu105 O120 2.479 . S
Eu105 O121 2.471 . S
Eu105 O122 2.347 1_655 S
Eu105 O125 2.366 . S
Eu105 C135 2.825 . S
C106 O122 1.259 1_565 S
C106 O123 1.265 . S
C107 O124 1.255 . S
C107 O125 1.265 1_455 S
C108 C110 1.380 . S
C108 C111 1.374 . S
C108 C114 1.507 . S
C109 C110 1.384 . S
C109 C113 1.387 . S
C109 H136 0.930 . S
C110 C108 1.380 . S
C110 C109 1.384 . S
C110 H137 0.931 . S
C111 C108 1.374 . S
C111 C112 1.390 . S
C111 H138 0.930 1_455 S
C112 C111 1.390 . S
C112 C113 1.391 . S
C112 H139 0.930 1_455 S
C113 C109 1.387 . S
C113 C112 1.391 . S
C114 Tb104 2.825 1_554 S
C114 C108 1.507 . S
C114 O127 1.238 1_554 S
C114 O128 1.247 . S
O115 Tb104 2.347 1_655 S
O115 C119 1.259 1_565 S
O116 Eu105 2.418 . S
O116 C119 1.265 . S
O117 Eu105 2.384 1_565 S
O117 C126 1.255 . S
O118 Tb104 2.366 . S
O118 C126 1.265 1_455 S
C119 O115 1.259 1_545 S
C119 O116 1.265 . S
O120 Eu105 2.479 . S
O120 C135 1.238 . S
O121 Eu105 2.471 . S
O121 C135 1.247 . S
O122 Eu105 2.347 1_455 S
O122 C106 1.259 1_545 S
O123 Tb104 2.418 . S
O123 C106 1.265 . S
O124 Tb104 2.384 1_545 S
O124 C107 1.255 . S
O125 Eu105 2.366 . S
O125 C107 1.265 1_655 S
C126 O117 1.255 . S
C126 O118 1.265 1_655 S
O127 Tb104 2.479 . S
O127 C114 1.238 1_556 S
O128 Tb104 2.471 1_554 S
O128 C114 1.247 . S
C129 C132 1.380 . S
C129 C133 1.374 . S
C129 C135 1.507 . S
C130 C131 1.387 . S
C130 C134 1.391 . S
C131 C130 1.387 . S
C131 C132 1.384 . S
C131 H140 0.930 . S
C132 C129 1.380 . S
C132 C131 1.384 . S
C132 H141 0.931 . S
C133 C129 1.374 . S
C133 C134 1.390 . S
C133 H142 0.930 1_655 S
C134 C130 1.391 . S
C134 C133 1.390 . S
C134 H143 0.930 1_655 S
C135 Eu105 2.825 . S
C135 O120 1.238 . S
C135 O121 1.247 . S
C135 C129 1.507 . S
H136 C109 0.930 . S
H137 C110 0.931 . S
H138 C111 0.930 1_655 S
H139 C112 0.930 1_655 S
H140 C131 0.930 . S
H141 C132 0.931 . S
H142 C133 0.930 1_455 S
H143 C134 0.930 1_455 S
Tb144 C154 2.825 1_556 S
Tb144 O155 2.347 1_545 S
Tb144 O158 2.366 . S
Tb144 O163 2.418 . S
Tb144 O164 2.384 . S
Tb144 O167 2.479 . S
Tb144 O168 2.471 1_556 S
Eu145 O156 2.418 . S
Eu145 O157 2.384 . S
Eu145 O160 2.479 . S
Eu145 O161 2.471 . S
Eu145 O162 2.347 1_565 S
Eu145 O165 2.366 . S
Eu145 C175 2.825 . S
C146 O162 1.259 . S
C146 O163 1.265 . S
C147 O164 1.255 . S
C147 O165 1.265 1_545 S
C148 C150 1.380 . S
C148 C151 1.374 . S
C148 C154 1.507 . S
C149 C150 1.384 . S
C149 C153 1.387 . S
C149 H176 0.930 . S
C150 C148 1.380 . S
C150 C149 1.384 . S
C150 H177 0.931 . S
C151 C148 1.374 . S
C151 C152 1.390 . S
C151 H178 0.930 1_545 S
C152 C151 1.390 . S
C152 C153 1.391 . S
C152 H179 0.930 1_545 S
C153 C149 1.387 . S
C153 C152 1.391 . S
C154 Tb144 2.825 1_554 S
C154 C148 1.507 . S
C154 O167 1.238 1_554 S
C154 O168 1.247 . S
O155 Tb144 2.347 1_565 S
O155 C159 1.259 . S
O156 Eu145 2.418 . S
O156 C159 1.265 . S
O157 Eu145 2.384 . S
O157 C166 1.255 . S
O158 Tb144 2.366 . S
O158 C166 1.265 1_545 S
C159 O155 1.259 . S
C159 O156 1.265 . S
O160 Eu145 2.479 . S
O160 C175 1.238 . S
O161 Eu145 2.471 . S
O161 C175 1.247 . S
O162 Eu145 2.347 1_545 S
O162 C146 1.259 . S
O163 Tb144 2.418 . S
O163 C146 1.265 . S
O164 Tb144 2.384 . S
O164 C147 1.255 . S
O165 Eu145 2.366 . S
O165 C147 1.265 1_565 S
C166 O157 1.255 . S
C166 O158 1.265 1_565 S
O167 Tb144 2.479 . S
O167 C154 1.238 1_556 S
O168 Tb144 2.471 1_554 S
O168 C154 1.247 . S
C169 C172 1.380 . S
C169 C173 1.374 . S
C169 C175 1.507 . S
C170 C171 1.387 . S
C170 C174 1.391 . S
C171 C170 1.387 . S
C171 C172 1.384 . S
C171 H180 0.930 . S
C172 C169 1.380 . S
C172 C171 1.384 . S
C172 H181 0.931 . S
C173 C169 1.374 . S
C173 C174 1.390 . S
C173 H182 0.930 1_565 S
C174 C170 1.391 . S
C174 C173 1.390 . S
C174 H183 0.930 1_565 S
C175 Eu145 2.825 . S
C175 O160 1.238 . S
C175 O161 1.247 . S
C175 C169 1.507 . S
H176 C149 0.930 . S
H177 C150 0.931 . S
H178 C151 0.930 1_565 S
H179 C152 0.930 1_565 S
H180 C171 0.930 . S
H181 C172 0.931 . S
H182 C173 0.930 1_545 S
H183 C174 0.930 1_545 S
Tb184 C194 2.825 1_556 S
Tb184 O195 2.347 . S
Tb184 O198 2.366 . S
Tb184 O203 2.418 . S
Tb184 O204 2.384 . S
Tb184 O207 2.479 . S
Tb184 O208 2.471 1_556 S
Eu185 O196 2.418 . S
Eu185 O197 2.384 . S
Eu185 O200 2.479 . S
Eu185 O201 2.471 . S
Eu185 O202 2.347 . S
Eu185 O205 2.366 . S
Eu185 C215 2.825 . S
C186 O202 1.259 . S
C186 O203 1.265 . S
C187 O204 1.255 . S
C187 O205 1.265 . S
C188 C190 1.380 . S
C188 C191 1.374 . S
C188 C194 1.507 . S
C189 C190 1.384 . S
C189 C193 1.387 . S
C189 H216 0.930 . S
C190 C188 1.380 . S
C190 C189 1.384 . S
C190 H217 0.931 . S
C191 C188 1.374 . S
C191 C192 1.390 . S
C191 H218 0.930 . S
C192 C191 1.390 . S
C192 C193 1.391 . S
C192 H219 0.930 . S
C193 C189 1.387 . S
C193 C192 1.391 . S
C194 Tb184 2.825 1_554 S
C194 C188 1.507 . S
C194 O207 1.238 1_554 S
C194 O208 1.247 . S
O195 Tb184 2.347 . S
O195 C199 1.259 . S
O196 Eu185 2.418 . S
O196 C199 1.265 . S
O197 Eu185 2.384 . S
O197 C206 1.255 . S
O198 Tb184 2.366 . S
O198 C206 1.265 . S
C199 O195 1.259 . S
C199 O196 1.265 . S
O200 Eu185 2.479 . S
O200 C215 1.238 . S
O201 Eu185 2.471 . S
O201 C215 1.247 . S
O202 Eu185 2.347 . S
O202 C186 1.259 . S
O203 Tb184 2.418 . S
O203 C186 1.265 . S
O204 Tb184 2.384 . S
O204 C187 1.255 . S
O205 Eu185 2.366 . S
O205 C187 1.265 . S
C206 O197 1.255 . S
C206 O198 1.265 . S
O207 Tb184 2.479 . S
O207 C194 1.238 1_556 S
O208 Tb184 2.471 1_554 S
O208 C194 1.247 . S
C209 C212 1.380 . S
C209 C213 1.374 . S
C209 C215 1.507 . S
C210 C211 1.387 . S
C210 C214 1.391 . S
C211 C210 1.387 . S
C211 C212 1.384 . S
C211 H220 0.930 . S
C212 C209 1.380 . S
C212 C211 1.384 . S
C212 H221 0.931 . S
C213 C209 1.374 . S
C213 C214 1.390 . S
C213 H222 0.930 . S
C214 C210 1.391 . S
C214 C213 1.390 . S
C214 H223 0.930 . S
C215 Eu185 2.825 . S
C215 O200 1.238 . S
C215 O201 1.247 . S
C215 C209 1.507 . S
H216 C189 0.930 . S
H217 C190 0.931 . S
H218 C191 0.930 . S
H219 C192 0.930 . S
H220 C211 0.930 . S
H221 C212 0.931 . S
H222 C213 0.930 . S
H223 C214 0.930 . S
Tb224 C234 2.825 1_556 S
Tb224 O235 2.347 . S
Tb224 O238 2.366 . S
Tb224 O243 2.418 . S
Tb224 O244 2.384 1_655 S
Tb224 O247 2.479 . S
Tb224 O248 2.471 1_556 S
Eu225 O236 2.418 . S
Eu225 O237 2.384 1_455 S
Eu225 O240 2.479 . S
Eu225 O241 2.471 . S
Eu225 O242 2.347 . S
Eu225 O245 2.366 . S
Eu225 C255 2.825 . S
C226 O242 1.259 1_655 S
C226 O243 1.265 . S
C227 O244 1.255 . S
C227 O245 1.265 . S
C228 C230 1.380 . S
C228 C231 1.374 . S
C228 C234 1.507 . S
C229 C230 1.384 . S
C229 C233 1.387 . S
C229 H256 0.930 . S
C230 C228 1.380 . S
C230 C229 1.384 . S
C230 H257 0.931 . S
C231 C228 1.374 . S
C231 C232 1.390 . S
C231 H258 0.930 . S
C232 C231 1.390 . S
C232 C233 1.391 . S
C232 H259 0.930 . S
C233 C229 1.387 . S
C233 C232 1.391 . S
C234 Tb224 2.825 1_554 S
C234 C228 1.507 . S
C234 O247 1.238 1_554 S
C234 O248 1.247 . S
O235 Tb224 2.347 . S
O235 C239 1.259 1_655 S
O236 Eu225 2.418 . S
O236 C239 1.265 . S
O237 Eu225 2.384 1_655 S
O237 C246 1.255 . S
O238 Tb224 2.366 . S
O238 C246 1.265 . S
C239 O235 1.259 1_455 S
C239 O236 1.265 . S
O240 Eu225 2.479 . S
O240 C255 1.238 . S
O241 Eu225 2.471 . S
O241 C255 1.247 . S
O242 Eu225 2.347 . S
O242 C226 1.259 1_455 S
O243 Tb224 2.418 . S
O243 C226 1.265 . S
O244 Tb224 2.384 1_455 S
O244 C227 1.255 . S
O245 Eu225 2.366 . S
O245 C227 1.265 . S
C246 O237 1.255 . S
C246 O238 1.265 . S
O247 Tb224 2.479 . S
O247 C234 1.238 1_556 S
O248 Tb224 2.471 1_554 S
O248 C234 1.247 . S
C249 C252 1.380 . S
C249 C253 1.374 . S
C249 C255 1.507 . S
C250 C251 1.387 . S
C250 C254 1.391 . S
C251 C250 1.387 . S
C251 C252 1.384 . S
C251 H260 0.930 . S
C252 C249 1.380 . S
C252 C251 1.384 . S
C252 H261 0.931 . S
C253 C249 1.374 . S
C253 C254 1.390 . S
C253 H262 0.930 . S
C254 C250 1.391 . S
C254 C253 1.390 . S
C254 H263 0.930 . S
C255 Eu225 2.825 . S
C255 O240 1.238 . S
C255 O241 1.247 . S
C255 C249 1.507 . S
H256 C229 0.930 . S
H257 C230 0.931 . S
H258 C231 0.930 . S
H259 C232 0.930 . S
H260 C251 0.930 . S
H261 C252 0.931 . S
H262 C253 0.930 . S
H263 C254 0.930 . S
H264 C276 0.930 . S
H265 C278 0.930 . S
H266 C279 0.930 . S
H267 C283 0.959 . S
H268 C283 0.959 . S
H269 C283 0.961 . S
H270 C284 0.960 . S
H271 C284 0.961 . S
H272 C284 0.959 . S
H273 C287 0.929 . S
H274 C288 0.931 . S
H275 C290 0.930 . S
C276 H264 0.930 . S
C276 C277 1.399 1_565 S
C276 C281 1.399 . S
C277 C276 1.399 1_545 S
C277 C278 1.376 . S
C278 H265 0.930 . S
C278 C277 1.376 . S
C278 C279 1.388 . S
C279 H266 0.930 . S
C279 C278 1.388 . S
C279 C280 1.390 . S
C280 C279 1.390 . S
C280 C281 1.394 1_545 S
C280 C286 1.465 . S
C281 C276 1.399 . S
C281 C280 1.394 1_565 S
C281 C282 1.516 . S
C282 C281 1.516 . S
C282 C283 1.502 . S
C282 C284 1.561 . S
C282 C285 1.526 . S
C283 H267 0.959 . S
C283 H268 0.959 . S
C283 H269 0.961 . S
C283 C282 1.502 . S
C284 H270 0.960 . S
C284 H271 0.961 . S
C284 H272 0.959 . S
C284 C282 1.561 . S
C285 C282 1.526 . S
C285 C286 1.396 1_565 S
C285 C290 1.390 . S
C286 C280 1.465 . S
C286 C285 1.396 1_545 S
C286 C287 1.399 . S
C287 H273 0.929 . S
C287 C286 1.399 . S
C287 C288 1.385 . S
C288 H274 0.931 . S
C288 C287 1.385 . S
C288 C289 1.389 . S
C289 C288 1.389 . S
C289 C290 1.387 1_545 S
C290 H275 0.930 . S
C290 C285 1.390 . S
C290 C289 1.387 1_565 S
H291 C303 0.930 . S
H292 C305 0.930 . S
H293 C306 0.930 . S
H294 C310 0.959 . S
H295 C310 0.959 . S
H296 C310 0.961 . S
H297 C311 0.960 . S
H298 C311 0.961 . S
H299 C311 0.959 . S
H300 C314 0.929 . S
H301 C315 0.931 . S
H302 C317 0.930 . S
C303 H291 0.930 . S
C303 C304 1.399 . S
C303 C308 1.399 . S
C304 C303 1.399 . S
C304 C305 1.376 . S
C305 H292 0.930 . S
C305 C304 1.376 . S
C305 C306 1.388 . S
C306 H293 0.930 . S
C306 C305 1.388 . S
C306 C307 1.390 . S
C307 C306 1.390 . S
C307 C308 1.394 . S
C307 C313 1.465 . S
C308 C303 1.399 . S
C308 C307 1.394 . S
C308 C309 1.516 . S
C309 C308 1.516 . S
C309 C310 1.502 . S
C309 C311 1.561 . S
C309 C312 1.526 . S
C310 H294 0.959 . S
C310 H295 0.959 . S
C310 H296 0.961 . S
C310 C309 1.502 . S
C311 H297 0.960 . S
C311 H298 0.961 . S
C311 H299 0.959 . S
C311 C309 1.561 . S
C312 C309 1.526 . S
C312 C313 1.396 . S
C312 C317 1.390 . S
C313 C307 1.465 . S
C313 C312 1.396 . S
C313 C314 1.399 . S
C314 H300 0.929 . S
C314 C313 1.399 . S
C314 C315 1.385 . S
C315 H301 0.931 . S
C315 C314 1.385 . S
C315 C316 1.389 . S
C316 C315 1.389 . S
C316 C317 1.387 . S
C317 H302 0.930 . S
C317 C312 1.390 . S
C317 C316 1.387 . S
H318 C330 0.930 . S
H319 C332 0.930 . S
H320 C333 0.930 . S
H321 C337 0.959 . S
H322 C337 0.959 . S
H323 C337 0.961 . S
H324 C338 0.960 . S
H325 C338 0.961 . S
H326 C338 0.959 . S
H327 C341 0.929 . S
H328 C342 0.931 . S
H329 C344 0.930 . S
C330 H318 0.930 . S
C330 C331 1.399 . S
C330 C335 1.399 . S
C331 C330 1.399 . S
C331 C332 1.376 . S
C332 H319 0.930 . S
C332 C331 1.376 . S
C332 C333 1.388 . S
C333 H320 0.930 . S
C333 C332 1.388 . S
C333 C334 1.390 . S
C334 C333 1.390 . S
C334 C335 1.394 . S
C334 C340 1.465 . S
C335 C330 1.399 . S
C335 C334 1.394 . S
C335 C336 1.516 . S
C336 C335 1.516 . S
C336 C337 1.502 . S
C336 C338 1.561 . S
C336 C339 1.526 . S
C337 H321 0.959 . S
C337 H322 0.959 . S
C337 H323 0.961 . S
C337 C336 1.502 . S
C338 H324 0.960 . S
C338 H325 0.961 . S
C338 H326 0.959 . S
C338 C336 1.561 . S
C339 C336 1.526 . S
C339 C340 1.396 . S
C339 C344 1.390 . S
C340 C334 1.465 . S
C340 C339 1.396 . S
C340 C341 1.399 . S
C341 H327 0.929 . S
C341 C340 1.399 . S
C341 C342 1.385 . S
C342 H328 0.931 . S
C342 C341 1.385 . S
C342 C343 1.389 . S
C343 C342 1.389 . S
C343 C344 1.387 . S
C344 H329 0.930 . S
C344 C339 1.390 . S
C344 C343 1.387 . S
H345 C357 0.930 . S
H346 C359 0.930 . S
H347 C360 0.930 . S
H348 C364 0.959 . S
H349 C364 0.959 . S
H350 C364 0.961 . S
H351 C365 0.960 . S
H352 C365 0.961 . S
H353 C365 0.959 . S
H354 C368 0.929 . S
H355 C369 0.931 . S
H356 C371 0.930 . S
C357 H345 0.930 . S
C357 C358 1.399 1_455 S
C357 C362 1.399 . S
C358 C357 1.399 1_655 S
C358 C359 1.376 . S
C359 H346 0.930 . S
C359 C358 1.376 . S
C359 C360 1.388 . S
C360 H347 0.930 . S
C360 C359 1.388 . S
C360 C361 1.390 . S
C361 C360 1.390 . S
C361 C362 1.394 1_655 S
C361 C367 1.465 . S
C362 C357 1.399 . S
C362 C361 1.394 1_455 S
C362 C363 1.516 . S
C363 C362 1.516 . S
C363 C364 1.502 . S
C363 C365 1.561 . S
C363 C366 1.526 . S
C364 H348 0.959 . S
C364 H349 0.959 . S
C364 H350 0.961 . S
C364 C363 1.502 . S
C365 H351 0.960 . S
C365 H352 0.961 . S
C365 H353 0.959 . S
C365 C363 1.561 . S
C366 C363 1.526 . S
C366 C367 1.396 1_455 S
C366 C371 1.390 . S
C367 C361 1.465 . S
C367 C366 1.396 1_655 S
C367 C368 1.399 . S
C368 H354 0.929 . S
C368 C367 1.399 . S
C368 C369 1.385 . S
C369 H355 0.931 . S
C369 C368 1.385 . S
C369 C370 1.389 . S
C370 C369 1.389 . S
C370 C371 1.387 1_655 S
C371 H356 0.930 . S
C371 C366 1.390 . S
C371 C370 1.387 1_455 S
H372 C384 0.930 . S
H373 C386 0.930 . S
H374 C387 0.930 . S
H375 C391 0.959 . S
H376 C391 0.959 . S
H377 C391 0.961 . S
H378 C392 0.960 . S
H379 C392 0.961 . S
H380 C392 0.959 . S
H381 C395 0.929 . S
H382 C396 0.931 1_556 S
H383 C398 0.930 1_556 S
C384 H372 0.930 . S
C384 C385 1.399 1_545 S
C384 C389 1.399 . S
C385 C384 1.399 1_565 S
C385 C386 1.376 . S
C386 H373 0.930 . S
C386 C385 1.376 . S
C386 C387 1.388 . S
C387 H374 0.930 . S
C387 C386 1.388 . S
C387 C388 1.390 . S
C388 C387 1.390 . S
C388 C389 1.394 1_565 S
C388 C394 1.465 . S
C389 C384 1.399 . S
C389 C388 1.394 1_545 S
C389 C390 1.516 . S
C390 C389 1.516 . S
C390 C391 1.502 . S
C390 C392 1.561 . S
C390 C393 1.526 . S
C391 H375 0.959 . S
C391 H376 0.959 . S
C391 H377 0.961 . S
C391 C390 1.502 . S
C392 H378 0.960 . S
C392 H379 0.961 . S
C392 H380 0.959 . S
C392 C390 1.561 . S
C393 C390 1.526 . S
C393 C394 1.396 1_545 S
C393 C398 1.390 . S
C394 C388 1.465 . S
C394 C393 1.396 1_565 S
C394 C395 1.399 . S
C395 H381 0.929 . S
C395 C394 1.399 . S
C395 C396 1.385 . S
C396 H382 0.931 1_554 S
C396 C395 1.385 . S
C396 C397 1.389 1_554 S
C397 C396 1.389 1_556 S
C397 C398 1.387 1_566 S
C398 H383 0.930 1_554 S
C398 C393 1.390 . S
C398 C397 1.387 1_544 S
H399 C411 0.930 . S
H400 C413 0.930 . S
H401 C414 0.930 . S
H402 C418 0.959 . S
H403 C418 0.959 . S
H404 C418 0.961 . S
H405 C419 0.960 . S
H406 C419 0.961 . S
H407 C419 0.959 . S
H408 C422 0.929 1_556 S
H409 C423 0.931 . S
H410 C425 0.930 . S
C411 H399 0.930 . S
C411 C412 1.399 . S
C411 C416 1.399 . S
C412 C411 1.399 . S
C412 C413 1.376 . S
C413 H400 0.930 . S
C413 C412 1.376 . S
C413 C414 1.388 . S
C414 H401 0.930 . S
C414 C413 1.388 . S
C414 C415 1.390 . S
C415 C414 1.390 . S
C415 C416 1.394 . S
C415 C421 1.465 . S
C416 C411 1.399 . S
C416 C415 1.394 . S
C416 C417 1.516 . S
C417 C416 1.516 . S
C417 C418 1.502 . S
C417 C419 1.561 . S
C417 C420 1.526 . S
C418 H402 0.959 . S
C418 H403 0.959 . S
C418 H404 0.961 . S
C418 C417 1.502 . S
C419 H405 0.960 . S
C419 H406 0.961 . S
C419 H407 0.959 . S
C419 C417 1.561 . S
C420 C417 1.526 . S
C420 C421 1.396 . S
C420 C425 1.390 . S
C421 C415 1.465 . S
C421 C420 1.396 . S
C421 C422 1.399 . S
C422 H408 0.929 1_554 S
C422 C421 1.399 . S
C422 C423 1.385 1_554 S
C423 H409 0.931 . S
C423 C422 1.385 1_556 S
C423 C424 1.389 . S
C424 C423 1.389 . S
C424 C425 1.387 1_556 S
C425 H410 0.930 . S
C425 C420 1.390 . S
C425 C424 1.387 1_554 S
H426 C438 0.930 . S
H427 C440 0.930 . S
H428 C441 0.930 . S
H429 C445 0.959 . S
H430 C445 0.959 1_556 S
H431 C445 0.961 . S
H432 C446 0.960 . S
H433 C446 0.961 . S
H434 C446 0.959 . S
H435 C449 0.929 . S
H436 C450 0.931 . S
H437 C452 0.930 . S
C438 H426 0.930 . S
C438 C439 1.399 . S
C438 C443 1.399 . S
C439 C438 1.399 . S
C439 C440 1.376 . S
C440 H427 0.930 . S
C440 C439 1.376 . S
C440 C441 1.388 . S
C441 H428 0.930 . S
C441 C440 1.388 . S
C441 C442 1.390 . S
C442 C441 1.390 . S
C442 C443 1.394 . S
C442 C448 1.465 . S
C443 C438 1.399 . S
C443 C442 1.394 . S
C443 C444 1.516 . S
C444 C443 1.516 . S
C444 C445 1.502 . S
C444 C446 1.561 . S
C444 C447 1.526 . S
C445 H429 0.959 . S
C445 H430 0.959 1_554 S
C445 H431 0.961 . S
C445 C444 1.502 . S
C446 H432 0.960 . S
C446 H433 0.961 . S
C446 H434 0.959 . S
C446 C444 1.561 . S
C447 C444 1.526 . S
C447 C448 1.396 . S
C447 C452 1.390 1_554 S
C448 C442 1.465 . S
C448 C447 1.396 . S
C448 C449 1.399 . S
C449 H435 0.929 . S
C449 C448 1.399 . S
C449 C450 1.385 . S
C450 H436 0.931 . S
C450 C449 1.385 . S
C450 C451 1.389 1_554 S
C451 C450 1.389 1_556 S
C451 C452 1.387 . S
C452 H437 0.930 . S
C452 C447 1.390 1_556 S
C452 C451 1.387 . S
H453 C465 0.930 . S
H454 C467 0.930 1_455 S
H455 C468 0.929 1_455 S
H456 C472 0.959 . S
H457 C472 0.959 . S
H458 C472 0.961 . S
H459 C473 0.960 . S
H460 C473 0.961 . S
H461 C473 0.959 . S
H462 C476 0.929 1_455 S
H463 C477 0.933 . S
H464 C479 0.930 . S
C465 H453 0.930 . S
C465 C466 1.399 . S
C465 C470 1.399 . S
C466 C465 1.399 . S
C466 C467 1.377 . S
C467 H454 0.930 1_655 S
C467 C466 1.377 . S
C467 C468 1.388 . S
C468 H455 0.929 1_655 S
C468 C467 1.388 . S
C468 C469 1.392 . S
C469 C468 1.392 . S
C469 C470 1.394 . S
C469 C475 1.465 . S
C470 C465 1.399 . S
C470 C469 1.394 . S
C470 C471 1.516 . S
C471 C470 1.516 . S
C471 C472 1.502 1_655 S
C471 C473 1.561 . S
C471 C474 1.526 . S
C472 H456 0.959 . S
C472 H457 0.959 . S
C472 H458 0.961 . S
C472 C471 1.502 1_455 S
C473 H459 0.960 . S
C473 H460 0.961 . S
C473 H461 0.959 . S
C473 C471 1.561 . S
C474 C471 1.526 . S
C474 C475 1.396 . S
C474 C479 1.390 . S
C475 C469 1.465 . S
C475 C474 1.396 . S
C475 C476 1.399 1_554 S
C476 H462 0.929 1_655 S
C476 C475 1.399 1_556 S
C476 C477 1.385 1_655 S
C477 H463 0.933 . S
C477 C476 1.385 1_455 S
C477 C478 1.388 1_455 S
C478 C477 1.388 1_655 S
C478 C479 1.387 1_556 S
C479 H464 0.930 . S
C479 C474 1.390 . S
C479 C478 1.387 1_554 S
H480 C492 0.930 . S
H481 C494 0.930 . S
H482 C495 0.930 . S
H483 C499 0.959 . S
H484 C499 0.959 . S
H485 C499 0.961 1_556 S
H486 C500 0.960 . S
H487 C500 0.961 . S
H488 C500 0.959 . S
H489 C503 0.929 . S
H490 C504 0.931 . S
H491 C506 0.930 . S
C492 H480 0.930 . S
C492 C493 1.399 1_655 S
C492 C497 1.399 . S
C493 C492 1.399 1_455 S
C493 C494 1.376 . S
C494 H481 0.930 . S
C494 C493 1.376 . S
C494 C495 1.388 1_455 S
C495 H482 0.930 . S
C495 C494 1.388 1_655 S
C495 C496 1.390 . S
C496 C495 1.390 . S
C496 C497 1.394 . S
C496 C502 1.465 . S
C497 C492 1.399 . S
C497 C496 1.394 . S
C497 C498 1.516 . S
C498 C497 1.516 . S
C498 C499 1.502 . S
C498 C500 1.561 1_655 S
C498 C501 1.526 . S
C499 H483 0.959 . S
C499 H484 0.959 . S
C499 H485 0.961 1_554 S
C499 C498 1.502 . S
C500 H486 0.960 . S
C500 H487 0.961 . S
C500 H488 0.959 . S
C500 C498 1.561 1_455 S
C501 C498 1.526 . S
C501 C502 1.396 . S
C501 C506 1.390 . S
C502 C496 1.465 . S
C502 C501 1.396 . S
C502 C503 1.399 . S
C503 H489 0.929 . S
C503 C502 1.399 . S
C503 C504 1.385 . S
C504 H490 0.931 . S
C504 C503 1.385 . S
C504 C505 1.389 . S
C505 C504 1.389 . S
C505 C506 1.387 . S
C506 H491 0.930 . S
C506 C501 1.390 . S
C506 C505 1.387 . S
H507 C519 0.930 . S
H508 C521 0.930 . S
H509 C522 0.930 . S
H510 C526 0.959 . S
H511 C526 0.959 . S
H512 C526 0.961 . S
H513 C527 0.960 . S
H514 C527 0.961 . S
H515 C527 0.959 . S
H516 C530 0.929 . S
H517 C531 0.931 1_545 S
H518 C533 0.930 . S
C519 H507 0.930 . S
C519 C520 1.399 1_565 S
C519 C524 1.399 . S
C520 C519 1.399 1_545 S
C520 C521 1.376 . S
C521 H508 0.930 . S
C521 C520 1.376 . S
C521 C522 1.388 . S
C522 H509 0.930 . S
C522 C521 1.388 . S
C522 C523 1.390 . S
C523 C522 1.390 . S
C523 C524 1.394 1_545 S
C523 C529 1.465 1_545 S
C524 C519 1.399 . S
C524 C523 1.394 1_565 S
C524 C525 1.516 . S
C525 C524 1.516 . S
C525 C526 1.502 . S
C525 C527 1.561 . S
C525 C528 1.526 . S
C526 H510 0.959 . S
C526 H511 0.959 . S
C526 H512 0.961 . S
C526 C525 1.502 . S
C527 H513 0.960 . S
C527 H514 0.961 . S
C527 H515 0.959 . S
C527 C525 1.561 . S
C528 C525 1.526 . S
C528 C529 1.396 . S
C528 C533 1.390 . S
C529 C523 1.465 1_565 S
C529 C528 1.396 . S
C529 C530 1.399 1_565 S
C530 H516 0.929 . S
C530 C529 1.399 1_545 S
C530 C531 1.385 1_545 S
C531 H517 0.931 1_565 S
C531 C530 1.385 1_565 S
C531 C532 1.389 . S
C532 C531 1.389 . S
C532 C533 1.387 . S
C533 H518 0.930 . S
C533 C528 1.390 . S
C533 C532 1.387 . S
H534 C546 0.930 . S
H535 C548 0.930 1_556 S
H536 C549 0.930 . S
H537 C553 0.959 . S
H538 C553 0.959 . S
H539 C553 0.961 . S
H540 C554 0.960 . S
H541 C554 0.961 . S
H542 C554 0.959 . S
H543 C557 0.929 . S
H544 C558 0.931 . S
H545 C560 0.930 . S
C546 H534 0.930 . S
C546 C547 1.399 . S
C546 C551 1.399 . S
C547 C546 1.399 . S
C547 C548 1.376 . S
C548 H535 0.930 1_554 S
C548 C547 1.376 . S
C548 C549 1.388 . S
C549 H536 0.930 . S
C549 C548 1.388 . S
C549 C550 1.390 . S
C550 C549 1.390 . S
C550 C551 1.394 . S
C550 C556 1.465 . S
C551 C546 1.399 . S
C551 C550 1.394 . S
C551 C552 1.516 . S
C552 C551 1.516 . S
C552 C553 1.502 . S
C552 C554 1.561 . S
C552 C555 1.526 . S
C553 H537 0.959 . S
C553 H538 0.959 . S
C553 H539 0.961 . S
C553 C552 1.502 . S
C554 H540 0.960 . S
C554 H541 0.961 . S
C554 H542 0.959 . S
C554 C552 1.561 . S
C555 C552 1.526 . S
C555 C556 1.396 . S
C555 C560 1.390 . S
C556 C550 1.465 . S
C556 C555 1.396 . S
C556 C557 1.399 . S
C557 H543 0.929 . S
C557 C556 1.399 . S
C557 C558 1.385 . S
C558 H544 0.931 . S
C558 C557 1.385 . S
C558 C559 1.389 . S
C559 C558 1.389 . S
C559 C560 1.387 . S
C560 H545 0.930 . S
C560 C555 1.390 . S
C560 C559 1.387 . S
H561 C573 0.930 . S
H562 C575 0.930 . S
H563 C576 0.930 . S
H564 C580 0.959 . S
H565 C580 0.959 . S
H566 C580 0.961 . S
H567 C581 0.960 . S
H568 C581 0.961 . S
H569 C581 0.959 . S
H570 C584 0.929 . S
H571 C585 0.931 . S
H572 C587 0.930 . S
C573 H561 0.930 . S
C573 C574 1.399 . S
C573 C578 1.399 . S
C574 C573 1.399 . S
C574 C575 1.376 . S
C575 H562 0.930 . S
C575 C574 1.376 . S
C575 C576 1.388 . S
C576 H563 0.930 . S
C576 C575 1.388 . S
C576 C577 1.390 . S
C577 C576 1.390 . S
C577 C578 1.394 . S
C577 C583 1.465 . S
C578 C573 1.399 . S
C578 C577 1.394 . S
C578 C579 1.516 . S
C579 C578 1.516 . S
C579 C580 1.502 . S
C579 C581 1.561 . S
C579 C582 1.526 . S
C580 H564 0.959 . S
C580 H565 0.959 . S
C580 H566 0.961 . S
C580 C579 1.502 . S
C581 H567 0.960 . S
C581 H568 0.961 . S
C581 H569 0.959 . S
C581 C579 1.561 . S
C582 C579 1.526 . S
C582 C583 1.396 . S
C582 C587 1.390 . S
C583 C577 1.465 . S
C583 C582 1.396 . S
C583 C584 1.399 . S
C584 H570 0.929 . S
C584 C583 1.399 . S
C584 C585 1.385 . S
C585 H571 0.931 . S
C585 C584 1.385 . S
C585 C586 1.389 . S
C586 C585 1.389 . S
C586 C587 1.387 . S
C587 H572 0.930 . S
C587 C582 1.390 . S
C587 C586 1.387 . S
H588 C600 0.930 . S
H589 C602 0.930 . S
H590 C603 0.930 . S
H591 C607 0.959 . S
H592 C607 0.959 . S
H593 C607 0.961 . S
H594 C608 0.960 . S
H595 C608 0.961 . S
H596 C608 0.959 1_655 S
H597 C611 0.929 . S
H598 C612 0.931 . S
H599 C614 0.930 . S
C600 H588 0.930 . S
C600 C601 1.399 1_455 S
C600 C605 1.399 . S
C601 C600 1.399 1_655 S
C601 C602 1.376 . S
C602 H589 0.930 . S
C602 C601 1.376 . S
C602 C603 1.388 . S
C603 H590 0.930 . S
C603 C602 1.388 . S
C603 C604 1.390 1_655 S
C604 C603 1.390 1_455 S
C604 C605 1.394 . S
C604 C610 1.465 . S
C605 C600 1.399 . S
C605 C604 1.394 . S
C605 C606 1.516 . S
C606 C605 1.516 . S
C606 C607 1.502 . S
C606 C608 1.561 . S
C606 C609 1.526 . S
C607 H591 0.959 . S
C607 H592 0.959 . S
C607 H593 0.961 . S
C607 C606 1.502 . S
C608 H594 0.960 . S
C608 H595 0.961 . S
C608 H596 0.959 1_455 S
C608 C606 1.561 . S
C609 C606 1.526 . S
C609 C610 1.396 . S
C609 C614 1.390 . S
C610 C604 1.465 . S
C610 C609 1.396 . S
C610 C611 1.399 . S
C611 H597 0.929 . S
C611 C610 1.399 . S
C611 C612 1.385 . S
C612 H598 0.931 . S
C612 C611 1.385 . S
C612 C613 1.389 . S
C613 C612 1.389 . S
C613 C614 1.387 . S
C614 H599 0.930 . S
C614 C609 1.390 . S
C614 C613 1.387 . S
H615 C627 0.930 . S
H616 C629 0.930 . S
H617 C630 0.930 . S
H618 C634 0.959 . S
H619 C634 0.959 . S
H620 C634 0.961 . S
H621 C635 0.960 . S
H622 C635 0.961 . S
H623 C635 0.959 . S
H624 C638 0.929 . S
H625 C639 0.931 . S
H626 C641 0.930 1_565 S
C627 H615 0.930 . S
C627 C628 1.386 1_565 S
C627 C632 1.399 . S
C628 C627 1.386 1_545 S
C628 C629 1.401 . S
C629 H616 0.930 . S
C629 C628 1.401 . S
C629 C630 1.388 . S
C630 H617 0.930 . S
C630 C629 1.388 . S
C630 C631 1.390 . S
C631 C630 1.390 . S
C631 C632 1.394 1_545 S
C631 C637 1.465 . S
C632 C627 1.399 . S
C632 C631 1.394 1_565 S
C632 C633 1.516 . S
C633 C632 1.516 . S
C633 C634 1.502 . S
C633 C635 1.561 . S
C633 C636 1.526 1_565 S
C634 H618 0.959 . S
C634 H619 0.959 . S
C634 H620 0.961 . S
C634 C633 1.502 . S
C635 H621 0.960 . S
C635 H622 0.961 . S
C635 H623 0.959 . S
C635 C633 1.561 . S
C636 C633 1.526 1_545 S
C636 C637 1.396 . S
C636 C641 1.390 . S
C637 C631 1.465 . S
C637 C636 1.396 . S
C637 C638 1.399 . S
C638 H624 0.929 . S
C638 C637 1.399 . S
C638 C639 1.385 . S
C639 H625 0.931 . S
C639 C638 1.385 . S
C639 C640 1.389 . S
C640 C639 1.389 . S
C640 C641 1.387 . S
C641 H626 0.930 1_545 S
C641 C636 1.390 . S
C641 C640 1.387 . S
H642 C654 0.930 . S
H643 C656 0.930 . S
H644 C657 0.930 . S
H645 C661 0.959 . S
H646 C661 0.959 . S
H647 C661 0.961 . S
H648 C662 0.960 . S
H649 C662 0.961 . S
H650 C662 0.959 . S
H651 C665 0.929 . S
H652 C666 0.931 . S
H653 C668 0.930 . S
C654 H642 0.930 . S
C654 C655 1.399 . S
C654 C659 1.399 . S
C655 C654 1.399 . S
C655 C656 1.376 . S
C656 H643 0.930 . S
C656 C655 1.376 . S
C656 C657 1.388 . S
C657 H644 0.930 . S
C657 C656 1.388 . S
C657 C658 1.390 . S
C658 C657 1.390 . S
C658 C659 1.394 . S
C658 C664 1.465 . S
C659 C654 1.399 . S
C659 C658 1.394 . S
C659 C660 1.516 . S
C660 C659 1.516 . S
C660 C661 1.502 . S
C660 C662 1.561 . S
C660 C663 1.526 . S
C661 H645 0.959 . S
C661 H646 0.959 . S
C661 H647 0.961 . S
C661 C660 1.502 . S
C662 H648 0.960 . S
C662 H649 0.961 . S
C662 H650 0.959 . S
C662 C660 1.561 . S
C663 C660 1.526 . S
C663 C664 1.396 . S
C663 C668 1.390 . S
C664 C658 1.465 . S
C664 C663 1.396 . S
C664 C665 1.399 . S
C665 H651 0.929 . S
C665 C664 1.399 . S
C665 C666 1.385 . S
C666 H652 0.931 . S
C666 C665 1.385 . S
C666 C667 1.389 . S
C667 C666 1.389 . S
C667 C668 1.387 . S
C668 H653 0.930 . S
C668 C663 1.390 . S
C668 C667 1.387 . S
H669 C681 0.930 . S
H670 C683 0.930 . S
H671 C684 0.930 . S
H672 C688 0.959 . S
H673 C688 0.959 . S
H674 C688 0.961 . S
H675 C689 0.960 . S
H676 C689 0.961 . S
H677 C689 0.959 . S
H678 C692 0.929 . S
H679 C693 0.931 . S
H680 C695 0.930 . S
C681 H669 0.930 . S
C681 C682 1.399 . S
C681 C686 1.399 . S
C682 C681 1.399 . S
C682 C683 1.376 . S
C683 H670 0.930 . S
C683 C682 1.376 . S
C683 C684 1.388 . S
C684 H671 0.930 . S
C684 C683 1.388 . S
C684 C685 1.390 . S
C685 C684 1.390 . S
C685 C686 1.394 . S
C685 C691 1.465 . S
C686 C681 1.399 . S
C686 C685 1.394 . S
C686 C687 1.516 . S
C687 C686 1.516 . S
C687 C688 1.502 . S
C687 C689 1.561 . S
C687 C690 1.526 . S
C688 H672 0.959 . S
C688 H673 0.959 . S
C688 H674 0.961 . S
C688 C687 1.502 . S
C689 H675 0.960 . S
C689 H676 0.961 . S
C689 H677 0.959 . S
C689 C687 1.561 . S
C690 C687 1.526 . S
C690 C691 1.396 . S
C690 C695 1.390 . S
C691 C685 1.465 . S
C691 C690 1.396 . S
C691 C692 1.399 . S
C692 H678 0.929 . S
C692 C691 1.399 . S
C692 C693 1.385 . S
C693 H679 0.931 . S
C693 C692 1.385 . S
C693 C694 1.389 . S
C694 C693 1.389 . S
C694 C695 1.387 . S
C695 H680 0.930 . S
C695 C690 1.390 . S
C695 C694 1.387 . S
H696 C708 0.930 . S
H697 C710 0.930 . S
H698 C711 0.930 . S
H699 C715 0.959 . S
H700 C715 0.959 . S
H701 C715 0.961 . S
H702 C716 0.960 . S
H703 C716 0.961 . S
H704 C716 0.959 . S
H705 C719 0.929 . S
H706 C720 0.931 1_554 S
H707 C722 0.930 1_655 S
C708 H696 0.930 . S
C708 C709 1.399 1_655 S
C708 C713 1.399 1_655 S
C709 C708 1.399 1_455 S
C709 C710 1.376 1_556 S
C710 H697 0.930 . S
C710 C709 1.376 1_554 S
C710 C711 1.388 . S
C711 H698 0.930 . S
C711 C710 1.388 . S
C711 C712 1.390 1_554 S
C712 C711 1.390 1_556 S
C712 C713 1.394 . S
C712 C718 1.465 . S
C713 C708 1.399 1_455 S
C713 C712 1.394 . S
C713 C714 1.512 1_455 S
C714 C713 1.512 1_655 S
C714 C715 1.540 . S
C714 C716 1.532 1_655 S
C714 C717 1.518 1_655 S
C715 H699 0.959 . S
C715 H700 0.959 . S
C715 H701 0.961 . S
C715 C714 1.540 . S
C716 H702 0.960 . S
C716 H703 0.961 . S
C716 H704 0.959 . S
C716 C714 1.532 1_455 S
C717 C714 1.518 1_455 S
C717 C718 1.396 . S
C717 C722 1.390 . S
C718 C712 1.465 . S
C718 C717 1.396 . S
C718 C719 1.399 1_556 S
C719 H705 0.929 . S
C719 C718 1.399 1_554 S
C719 C720 1.385 1_554 S
C720 H706 0.931 1_556 S
C720 C719 1.385 1_556 S
C720 C721 1.389 . S
C721 C720 1.389 . S
C721 C722 1.387 . S
C722 H707 0.930 1_455 S
C722 C717 1.390 . S
C722 C721 1.387 . S
H723 C735 0.930 . S
H724 C737 0.930 . S
H725 C738 0.930 . S
H726 C742 0.959 . S
H727 C742 0.959 . S
H728 C742 0.961 . S
H729 C743 0.960 . S
H730 C743 0.961 1_556 S
H731 C743 0.959 . S
H732 C746 0.929 . S
H733 C747 0.931 . S
H734 C749 0.930 . S
C735 H723 0.930 . S
C735 C736 1.375 1_545 S
C735 C740 1.399 . S
C736 C735 1.375 1_565 S
C736 C737 1.405 . S
C737 H724 0.930 . S
C737 C736 1.405 . S
C737 C738 1.388 . S
C738 H725 0.930 . S
C738 C737 1.388 . S
C738 C739 1.390 . S
C739 C738 1.390 . S
C739 C740 1.394 1_565 S
C739 C745 1.465 . S
C740 C735 1.399 . S
C740 C739 1.394 1_545 S
C740 C741 1.516 . S
C741 C740 1.516 . S
C741 C742 1.502 . S
C741 C743 1.561 1_556 S
C741 C744 1.526 . S
C742 H726 0.959 . S
C742 H727 0.959 . S
C742 H728 0.961 . S
C742 C741 1.502 . S
C743 H729 0.960 . S
C743 H730 0.961 1_554 S
C743 H731 0.959 . S
C743 C741 1.561 1_554 S
C744 C741 1.526 . S
C744 C745 1.396 1_545 S
C744 C749 1.390 . S
C745 C739 1.465 . S
C745 C744 1.396 1_565 S
C745 C746 1.399 . S
C746 H732 0.929 . S
C746 C745 1.399 . S
C746 C747 1.385 . S
C747 H733 0.931 . S
C747 C746 1.385 . S
C747 C748 1.389 1_565 S
C748 C747 1.389 1_545 S
C748 C749 1.387 . S
C749 H734 0.930 . S
C749 C744 1.390 . S
C749 C748 1.387 . S
H750 C762 0.930 1_554 S
H751 C764 0.930 . S
H752 C765 0.930 . S
H753 C769 0.959 . S
H754 C769 0.959 . S
H755 C769 0.961 . S
H756 C770 0.960 . S
H757 C770 0.961 . S
H758 C770 0.959 . S
H759 C773 0.929 . S
H760 C774 0.931 . S
H761 C776 0.930 1_554 S
C762 H750 0.930 1_556 S
C762 C763 1.399 . S
C762 C767 1.399 . S
C763 C762 1.399 . S
C763 C764 1.376 . S
C764 H751 0.930 . S
C764 C763 1.376 . S
C764 C765 1.388 . S
C765 H752 0.930 . S
C765 C764 1.388 . S
C765 C766 1.390 . S
C766 C765 1.390 . S
C766 C767 1.394 . S
C766 C772 1.465 . S
C767 C762 1.399 . S
C767 C766 1.394 . S
C767 C768 1.516 1_556 S
C768 C767 1.516 1_554 S
C768 C769 1.502 . S
C768 C770 1.561 . S
C768 C771 1.526 1_554 S
C769 H753 0.959 . S
C769 H754 0.959 . S
C769 H755 0.961 . S
C769 C768 1.502 . S
C770 H756 0.960 . S
C770 H757 0.961 . S
C770 H758 0.959 . S
C770 C768 1.561 . S
C771 C768 1.526 1_556 S
C771 C772 1.396 . S
C771 C776 1.390 . S
C772 C766 1.465 . S
C772 C771 1.396 . S
C772 C773 1.399 . S
C773 H759 0.929 . S
C773 C772 1.399 . S
C773 C774 1.385 . S
C774 H760 0.931 . S
C774 C773 1.385 . S
C774 C775 1.389 . S
C775 C774 1.389 . S
C775 C776 1.387 . S
C776 H761 0.930 1_556 S
C776 C771 1.390 . S
C776 C775 1.387 . S
H777 C789 0.930 1_554 S
H778 C791 0.930 . S
H779 C792 0.930 . S
H780 C796 0.959 . S
H781 C796 0.959 . S
H782 C796 0.961 . S
H783 C797 0.960 . S
H784 C797 0.961 . S
H785 C797 0.959 . S
H786 C800 0.929 . S
H787 C801 0.931 . S
H788 C803 0.930 . S
C789 H777 0.930 1_556 S
C789 C790 1.399 . S
C789 C794 1.399 . S
C790 C789 1.399 . S
C790 C791 1.376 . S
C791 H778 0.930 . S
C791 C790 1.376 . S
C791 C792 1.388 . S
C792 H779 0.930 . S
C792 C791 1.388 . S
C792 C793 1.390 . S
C793 C792 1.390 . S
C793 C794 1.394 . S
C793 C799 1.465 . S
C794 C789 1.399 . S
C794 C793 1.394 . S
C794 C795 1.516 . S
C795 C794 1.516 . S
C795 C796 1.502 1_556 S
C795 C797 1.561 . S
C795 C798 1.526 . S
C796 H780 0.959 . S
C796 H781 0.959 . S
C796 H782 0.961 . S
C796 C795 1.502 1_554 S
C797 H783 0.960 . S
C797 H784 0.961 . S
C797 H785 0.959 . S
C797 C795 1.561 . S
C798 C795 1.526 . S
C798 C799 1.396 . S
C798 C803 1.390 . S
C799 C793 1.465 . S
C799 C798 1.396 . S
C799 C800 1.399 . S
C800 H786 0.929 . S
C800 C799 1.399 . S
C800 C801 1.385 . S
C801 H787 0.931 . S
C801 C800 1.385 . S
C801 C802 1.389 . S
C802 C801 1.389 . S
C802 C803 1.387 . S
C803 H788 0.930 . S
C803 C798 1.390 . S
C803 C802 1.387 . S
H804 C816 0.930 . S
H805 C818 0.930 . S
H806 C819 0.930 . S
H807 C823 0.959 . S
H808 C823 0.959 . S
H809 C823 0.961 . S
H810 C824 0.960 . S
H811 C824 0.961 . S
H812 C824 0.959 . S
H813 C827 0.929 . S
H814 C828 0.931 . S
H815 C830 0.930 1_455 S
C816 H804 0.930 . S
C816 C817 1.399 1_455 S
C816 C821 1.399 1_455 S
C817 C816 1.399 1_655 S
C817 C818 1.376 . S
C818 H805 0.930 . S
C818 C817 1.376 . S
C818 C819 1.388 . S
C819 H806 0.930 . S
C819 C818 1.388 . S
C819 C820 1.390 . S
C820 C819 1.390 . S
C820 C821 1.394 . S
C820 C826 1.465 . S
C821 C816 1.399 1_655 S
C821 C820 1.394 . S
C821 C822 1.516 1_655 S
C822 C821 1.516 1_455 S
C822 C823 1.502 . S
C822 C824 1.561 1_455 S
C822 C825 1.526 1_455 S
C823 H807 0.959 . S
C823 H808 0.959 . S
C823 H809 0.961 . S
C823 C822 1.502 . S
C824 H810 0.960 . S
C824 H811 0.961 . S
C824 H812 0.959 . S
C824 C822 1.561 1_655 S
C825 C822 1.526 1_655 S
C825 C826 1.396 . S
C825 C830 1.390 . S
C826 C820 1.465 . S
C826 C825 1.396 . S
C826 C827 1.399 . S
C827 H813 0.929 . S
C827 C826 1.399 . S
C827 C828 1.385 . S
C828 H814 0.931 . S
C828 C827 1.385 . S
C828 C829 1.389 . S
C829 C828 1.389 . S
C829 C830 1.387 . S
C830 H815 0.930 1_655 S
C830 C825 1.390 . S
C830 C829 1.387 . S
H831 C843 0.930 . S
H832 C845 0.930 . S
H833 C846 0.930 . S
H834 C850 0.959 . S
H835 C850 0.959 . S
H836 C850 0.961 . S
H837 C851 0.960 . S
H838 C851 0.961 . S
H839 C851 0.959 . S
H840 C854 0.929 . S
H841 C855 0.931 . S
H842 C857 0.930 . S
C843 H831 0.930 . S
C843 C844 1.399 1_545 S
C843 C848 1.399 . S
C844 C843 1.399 1_565 S
C844 C845 1.376 . S
C845 H832 0.930 . S
C845 C844 1.376 . S
C845 C846 1.388 . S
C846 H833 0.930 . S
C846 C845 1.388 . S
C846 C847 1.390 . S
C847 C846 1.390 . S
C847 C848 1.394 1_565 S
C847 C853 1.465 . S
C848 C843 1.399 . S
C848 C847 1.394 1_545 S
C848 C849 1.516 . S
C849 C848 1.516 . S
C849 C850 1.502 . S
C849 C851 1.561 . S
C849 C852 1.526 . S
C850 H834 0.959 . S
C850 H835 0.959 . S
C850 H836 0.961 . S
C850 C849 1.502 . S
C851 H837 0.960 . S
C851 H838 0.961 . S
C851 H839 0.959 . S
C851 C849 1.561 . S
C852 C849 1.526 . S
C852 C853 1.396 1_545 S
C852 C857 1.390 . S
C853 C847 1.465 . S
C853 C852 1.396 1_565 S
C853 C854 1.399 . S
C854 H840 0.929 . S
C854 C853 1.399 . S
C854 C855 1.385 . S
C855 H841 0.931 . S
C855 C854 1.385 . S
C855 C856 1.389 . S
C856 C855 1.389 . S
C856 C857 1.387 1_565 S
C857 H842 0.930 . S
C857 C852 1.390 . S
C857 C856 1.387 1_545 S
H858 C870 0.930 . S
H859 C872 0.930 . S
H860 C873 0.930 . S
H861 C877 0.959 . S
H862 C877 0.959 . S
H863 C877 0.961 . S
H864 C878 0.960 . S
H865 C878 0.961 . S
H866 C878 0.959 . S
H867 C881 0.929 . S
H868 C882 0.931 . S
H869 C884 0.930 . S
C870 H858 0.930 . S
C870 C871 1.399 . S
C870 C875 1.399 . S
C871 C870 1.399 . S
C871 C872 1.376 . S
C872 H859 0.930 . S
C872 C871 1.376 . S
C872 C873 1.388 . S
C873 H860 0.930 . S
C873 C872 1.388 . S
C873 C874 1.390 . S
C874 C873 1.390 . S
C874 C875 1.394 . S
C874 C880 1.465 . S
C875 C870 1.399 . S
C875 C874 1.394 . S
C875 C876 1.516 . S
C876 C875 1.516 . S
C876 C877 1.502 . S
C876 C878 1.561 . S
C876 C879 1.526 . S
C877 H861 0.959 . S
C877 H862 0.959 . S
C877 H863 0.961 . S
C877 C876 1.502 . S
C878 H864 0.960 . S
C878 H865 0.961 . S
C878 H866 0.959 . S
C878 C876 1.561 . S
C879 C876 1.526 . S
C879 C880 1.396 . S
C879 C884 1.390 . S
C880 C874 1.465 . S
C880 C879 1.396 . S
C880 C881 1.399 . S
C881 H867 0.929 . S
C881 C880 1.399 . S
C881 C882 1.385 . S
C882 H868 0.931 . S
C882 C881 1.385 . S
C882 C883 1.389 . S
C883 C882 1.389 . S
C883 C884 1.387 . S
C884 H869 0.930 . S
C884 C879 1.390 . S
C884 C883 1.387 . S
H885 C897 0.930 . S
H886 C899 0.930 . S
H887 C900 0.930 . S
H888 C904 0.959 . S
H889 C904 0.959 . S
H890 C904 0.961 . S
H891 C905 0.960 . S
H892 C905 0.961 . S
H893 C905 0.959 . S
H894 C908 0.929 . S
H895 C909 0.931 . S
H896 C911 0.930 . S
C897 H885 0.930 . S
C897 C898 1.399 . S
C897 C902 1.399 . S
C898 C897 1.399 . S
C898 C899 1.376 . S
C899 H886 0.930 . S
C899 C898 1.376 . S
C899 C900 1.388 . S
C900 H887 0.930 . S
C900 C899 1.388 . S
C900 C901 1.390 . S
C901 C900 1.390 . S
C901 C902 1.394 . S
C901 C907 1.465 . S
C902 C897 1.399 . S
C902 C901 1.394 . S
C902 C903 1.516 . S
C903 C902 1.516 . S
C903 C904 1.502 . S
C903 C905 1.561 . S
C903 C906 1.526 . S
C904 H888 0.959 . S
C904 H889 0.959 . S
C904 H890 0.961 . S
C904 C903 1.502 . S
C905 H891 0.960 . S
C905 H892 0.961 . S
C905 H893 0.959 . S
C905 C903 1.561 . S
C906 C903 1.526 . S
C906 C907 1.396 . S
C906 C911 1.390 . S
C907 C901 1.465 . S
C907 C906 1.396 . S
C907 C908 1.399 . S
C908 H894 0.929 . S
C908 C907 1.399 . S
C908 C909 1.385 . S
C909 H895 0.931 . S
C909 C908 1.385 . S
C909 C910 1.389 . S
C910 C909 1.389 . S
C910 C911 1.387 . S
C911 H896 0.930 . S
C911 C906 1.390 . S
C911 C910 1.387 . S
C277 N80 1.853 1_545 S
C289 C106 1.969 1_545 S
C316 C146 1.975 . S
C304 N93 1.864 . S
C343 C186 2.000 . S
C331 N54 1.895 . S
C370 C226 1.970 . S
C358 N67 1.912 . S
C397 C119 1.978 1_565 S
C385 N28 1.908 . S
C412 N41 1.869 . S
C424 C159 1.986 . S
C439 N2 1.939 . S
C451 C199 1.995 . S
C466 N15 1.862 . S
C478 C239 1.976 1_655 S
C505 C130 0.436 . S
C493 N70 0.439 1_455 S
C532 C170 0.367 . S
C520 N83 0.509 1_545 S
C559 C210 0.451 . S
C547 N96 0.447 . S
C574 N57 0.373 . S
C586 C250 0.496 . S
C601 N18 0.488 . S
C613 C113 0.386 . S
C640 C153 0.510 . S
C628 N31 0.395 1_545 S
C667 C193 0.516 . S
C655 N44 0.388 . S
C682 N5 0.397 . S
C694 C233 0.449 . S
C709 N66 2.157 1_455 S
C721 C107 2.286 . S
C736 N79 2.125 . S
C748 C147 2.238 . S
C775 C187 2.222 . S
C763 N92 2.155 . S
C802 C227 2.267 . S
C790 N53 2.190 . S
C817 N14 2.191 . S
C829 C126 2.288 . S
C856 C166 2.257 . S
C844 N27 2.105 . S
C883 C206 2.223 . S
C871 N40 2.149 . S
C898 N1 2.185 . S
C910 C246 2.260 . S
