# Generated by pormake.
# Topology anh, (6,3)-cn, num edge types: 1
# Building blocks:
#     Node 0, Type 0, BuildingBlock: CUKXOW_clean_sbu_0, # of connection points: 6
#     Node 1, Type 0, BuildingBlock: CUKXOW_clean_sbu_0, # of connection points: 6
#     Node 2, Type 0, BuildingBlock: CUKXOW_clean_sbu_0, # of connection points: 6
#     Node 3, Type 1, BuildingBlock: VETTIZ_charged_linker_0, # of connection points: 3
#     Node 4, Type 1, BuildingBlock: VETTIZ_charged_linker_0, # of connection points: 3
#     Node 5, Type 1, BuildingBlock: VETTIZ_charged_linker_0, # of connection points: 3
#     Node 6, Type 1, BuildingBlock: VETTIZ_charged_linker_0, # of connection points: 3
#     Node 7, Type 1, BuildingBlock: VETTIZ_charged_linker_0, # of connection points: 3
#     Node 8, Type 1, BuildingBlock: VETTIZ_charged_linker_0, # of connection points: 3
#     Edge 9, Type (0, 1), BuildingBlock: CIFDUS_clean_linker_0, # of connection points: 2
#     Edge 10, Type (0, 1), BuildingBlock: CIFDUS_clean_linker_0, # of connection points: 2
#     Edge 11, Type (0, 1), BuildingBlock: CIFDUS_clean_linker_0, # of connection points: 2
#     Edge 12, Type (0, 1), BuildingBlock: CIFDUS_clean_linker_0, # of connection points: 2
#     Edge 13, Type (0, 1), BuildingBlock: CIFDUS_clean_linker_0, # of connection points: 2
#     Edge 14, Type (0, 1), BuildingBlock: CIFDUS_clean_linker_0, # of connection points: 2
#     Edge 15, Type (0, 1), BuildingBlock: CIFDUS_clean_linker_0, # of connection points: 2
#     Edge 16, Type (0, 1), BuildingBlock: CIFDUS_clean_linker_0, # of connection points: 2
#     Edge 17, Type (0, 1), BuildingBlock: CIFDUS_clean_linker_0, # of connection points: 2
#     Edge 18, Type (0, 1), BuildingBlock: CIFDUS_clean_linker_0, # of connection points: 2
#     Edge 19, Type (0, 1), BuildingBlock: CIFDUS_clean_linker_0, # of connection points: 2
#     Edge 20, Type (0, 1), BuildingBlock: CIFDUS_clean_linker_0, # of connection points: 2
#     Edge 21, Type (0, 1), BuildingBlock: CIFDUS_clean_linker_0, # of connection points: 2
#     Edge 22, Type (0, 1), BuildingBlock: CIFDUS_clean_linker_0, # of connection points: 2
#     Edge 23, Type (0, 1), BuildingBlock: CIFDUS_clean_linker_0, # of connection points: 2
#     Edge 24, Type (0, 1), BuildingBlock: CIFDUS_clean_linker_0, # of connection points: 2
#     Edge 25, Type (0, 1), BuildingBlock: CIFDUS_clean_linker_0, # of connection points: 2
#     Edge 26, Type (0, 1), BuildingBlock: CIFDUS_clean_linker_0, # of connection points: 2
# Relax obj value: 0.138
# Max RMSD: 0.196
# Mean RMSD: 0.142
data_MOF--net-anh--node1-CUKXOW_clean_sbu_0--node2-VETTIZ_charged_linker_0--edge1-CIFDUS_clean_linker_0
_symmetry_space_group_name_H-M    P1
_symmetry_Int_Tables_number       1
_symmetry_cell_setting            triclinic
loop_
_symmetry_equiv_pos_as_xyz
'x, y, z'
_cell_length_a     31.094028
_cell_length_b     30.081262
_cell_length_c     58.79077
_cell_angle_alpha  96.042057
_cell_angle_beta   89.992396
_cell_angle_gamma 114.0839
loop_
_atom_site_label
_atom_site_type_symbol
_atom_site_fract_x
_atom_site_fract_y
_atom_site_fract_z
_atom_type_partial_charge
Tb0 Tb 0.07594 0.53811 0.15041 0.0
C1 C 0.04881 0.50727 0.19986 0.0
Tb2 Tb 1.01672 0.4242 0.15748 0.0
O3 O 1.01415 0.55832 0.15081 0.0
O4 O 1.00607 0.48837 0.15409 0.0
O5 O 0.07776 0.54022 0.18735 0.0
C6 C 0.94435 0.33929 0.1623 0.0
O7 O 1.01798 0.4628 0.19134 0.0
C8 C 0.11053 0.44959 0.15532 0.0
C9 C 0.04063 0.45544 0.10765 0.0
O10 O 0.98274 0.35914 0.17533 0.0
O11 O 0.94704 0.36699 0.14637 0.0
O12 O 0.07988 0.40616 0.15889 0.0
O13 O 0.08602 0.47373 0.15316 0.0
O14 O 1.01347 0.42155 0.12041 0.0
O15 O 0.07054 0.50057 0.11603 0.0
C16 C 0.15601 0.61794 0.14983 0.0
O17 O 0.11883 0.60733 0.13646 0.0
O18 O 0.1472 0.5845 0.16351 0.0
C19 C 0.98274 0.51425 0.15315 0.0
Tb20 Tb 0.52848 0.01148 0.49664 0.0
C21 C 0.57175 0.03442 0.44822 0.0
Tb22 Tb 0.63414 0.07801 0.49375 0.0
O23 O 0.51773 0.07251 0.51488 0.0
O24 O 0.56937 0.08638 0.49071 0.0
O25 O 0.53717 1.0045 0.45975 0.0
C26 C 0.71547 0.1557 0.49276 0.0
O27 O 0.61069 0.06959 0.45824 0.0
C28 C 0.62196 0.98497 0.49355 0.0
C29 C 0.592 0.05021 0.5418 0.0
O30 O 0.70315 0.11434 0.47987 0.0
O31 O 0.68168 0.15371 0.50617 0.0
O32 O 0.66266 0.02166 0.49327 0.0
O33 O 0.59178 1.00295 0.49443 0.0
O34 O 0.62519 0.0822 0.53045 0.0
O35 O 0.55363 0.01433 0.53153 0.0
C36 C 0.44031 0.94321 0.49329 0.0
O37 O 0.47615 0.93847 0.50231 0.0
O38 O 0.45433 0.98592 0.48605 0.0
C39 C 0.55158 0.10645 0.50568 0.0
Tb40 Tb 0.53739 0.59033 0.82889 0.0
C41 C 0.57388 0.58925 0.87909 0.0
Tb42 Tb 0.64659 0.61133 0.83905 0.0
O43 O 0.51121 0.50955 0.82337 0.0
O44 O 0.5801 0.55259 0.83252 0.0
O45 O 0.54082 0.59303 0.86602 0.0
C46 C 0.7188 0.58652 0.8413 0.0
O47 O 0.6149 0.59083 0.87161 0.0
C48 C 0.63132 0.69244 0.839 0.0
C49 C 0.60883 0.61065 0.78885 0.0
O50 O 0.70968 0.61492 0.85704 0.0
O51 O 0.6881 0.57353 0.82426 0.0
O52 O 0.67315 0.69327 0.84264 0.0
O53 O 0.60357 0.64806 0.8361 0.0
O54 O 0.64121 0.60569 0.80188 0.0
O55 O 0.56957 0.61295 0.79676 0.0
C56 C 0.45702 0.60029 0.82387 0.0
O57 O 0.47301 0.57631 0.80904 0.0
O58 O 0.48665 0.61899 0.84148 0.0
C59 C 0.55179 0.50853 0.82775 0.0
C60 C 0.65043 0.11017 0.17556 0.0
C61 C 0.69051 0.14546 0.18829 0.0
C62 C 0.68909 0.1525 0.2123 0.0
C63 C 0.61043 0.08817 0.21087 0.0
C64 C 0.61078 0.08177 0.18725 0.0
C65 C 0.56526 0.04148 0.17689 0.0
H66 H 0.35416 0.85762 0.19543 0.0
C67 C 0.56539 0.05215 0.21804 0.0
C68 C 0.53834 0.02449 0.19825 0.0
H69 H 0.41118 0.89584 0.12985 0.0
H70 H 0.4794 0.96469 0.14889 0.0
H71 H 0.44398 0.86615 0.21856 0.0
H72 H 0.38093 0.96928 0.21875 0.0
H73 H 0.40146 0.97282 0.247 0.0
H74 H 0.35765 0.91558 0.23345 0.0
H75 H 0.39642 0.8629 0.23652 0.0
H76 H 0.45726 0.8986 0.24601 0.0
C77 C 0.57694 1.00095 0.16361 0.0
C78 C 0.54065 0.06431 0.16193 0.0
C79 C 0.53909 0.04073 0.30297 0.0
C80 C 0.5032 0.00769 0.3151 0.0
C81 C 0.46342 0.97122 0.30268 0.0
C82 C 0.45976 0.96733 0.27876 0.0
C83 C 0.4965 0.9998 0.26692 0.0
C84 C 0.53523 0.03575 0.27903 0.0
C85 C 0.57175 0.06558 0.26356 0.0
C86 C 0.54841 0.04155 0.24013 0.0
C87 C 0.50439 1.00337 0.24226 0.0
C88 C 0.61755 0.05825 0.26798 0.0
C89 C 0.57725 0.1194 0.26807 0.0
C90 C 0.38117 0.88109 0.18514 0.0
C91 C 0.37779 0.87146 0.16126 0.0
C92 C 0.41332 0.90284 0.14835 0.0
C93 C 0.45285 0.94241 0.15944 0.0
C94 C 0.45647 0.9504 0.18359 0.0
C95 C 0.42034 0.92018 0.19586 0.0
C96 C 0.42922 0.93264 0.22121 0.0
C97 C 0.47676 0.97554 0.22244 0.0
C98 C 0.49314 0.98603 0.20046 0.0
C99 C 0.43159 0.88791 0.23129 0.0
C100 C 0.39029 0.94812 0.23081 0.0
H101 H 0.65107 0.13151 0.24188 0.0
H102 H 0.65034 0.10417 0.15707 0.0
H103 H 0.54366 0.10033 0.17048 0.0
H104 H 0.50247 0.04171 0.15907 0.0
H105 H 0.55697 0.07046 0.14508 0.0
H106 H 0.60282 0.99324 0.17375 0.0
H107 H 0.59258 0.01234 0.14706 0.0
H108 H 0.54594 0.96572 0.16018 0.0
H109 H 0.56991 0.06969 0.31184 0.0
H110 H 0.43552 0.9447 0.31139 0.0
H111 H 0.42876 0.93852 0.27042 0.0
H112 H 0.60938 0.02112 0.27303 0.0
H113 H 0.6403 0.08547 0.28198 0.0
H114 H 0.63829 0.06009 0.25258 0.0
H115 H 0.54292 0.12097 0.27217 0.0
H116 H 0.58849 0.13958 0.25295 0.0
H117 H 0.60256 0.13963 0.28276 0.0
H118 H 0.71882 0.18026 0.22246 0.0
C119 C 0.64947 0.12427 0.22359 0.0
C120 C 0.56603 0.66802 0.50341 0.0
C121 C 0.55942 0.70936 0.51391 0.0
C122 C 0.55346 0.71355 0.53756 0.0
C123 C 0.5641 0.63913 0.5407 0.0
C124 C 0.5675 0.63263 0.51725 0.0
C125 C 0.572 0.58455 0.50996 0.0
H126 H 0.60342 0.38888 0.54702 0.0
C127 C 0.57058 0.59939 0.55083 0.0
C128 C 0.57514 0.56643 0.5331 0.0
H129 H 0.5764 0.4035 0.4768 0.0
H130 H 0.57617 0.48393 0.48886 0.0
H131 H 0.67441 0.49979 0.56196 0.0
H132 H 0.52561 0.41622 0.56595 0.0
H133 H 0.54362 0.45471 0.5918 0.0
H134 H 0.56844 0.41067 0.58454 0.0
H135 H 0.65032 0.45702 0.58251 0.0
H136 H 0.65962 0.52049 0.58859 0.0
C137 C 0.61721 0.59497 0.49673 0.0
C138 C 0.5269 0.54984 0.49574 0.0
C139 C 0.58123 0.60968 0.63755 0.0
C140 C 0.59097 0.58137 0.65261 0.0
C141 C 0.60056 0.54127 0.64356 0.0
C142 C 0.59979 0.52916 0.61987 0.0
C143 C 0.58927 0.5574 0.60497 0.0
C144 C 0.58079 0.59717 0.61393 0.0
C145 C 0.57182 0.62395 0.59564 0.0
C146 C 0.57553 0.59317 0.57412 0.0
C147 C 0.58531 0.55418 0.5797 0.0
C148 C 0.61177 0.67655 0.59823 0.0
C149 C 0.52112 0.62143 0.59803 0.0
C150 C 0.59692 0.40874 0.53405 0.0
C151 C 0.5888 0.3888 0.511 0.0
C152 C 0.58233 0.41751 0.49478 0.0
C153 C 0.58157 0.46388 0.50182 0.0
C154 C 0.58691 0.48157 0.52532 0.0
C155 C 0.59481 0.45369 0.54078 0.0
C156 C 0.59737 0.47498 0.56511 0.0
C157 C 0.58874 0.51992 0.56215 0.0
C158 C 0.58328 0.52503 0.53883 0.0
C159 C 0.64781 0.48858 0.57528 0.0
C160 C 0.55705 0.43739 0.57771 0.0
H161 H 0.5518 0.6855 0.56886 0.0
H162 H 0.57002 0.66362 0.48513 0.0
H163 H 0.49501 0.5495 0.50443 0.0
H164 H 0.52311 0.51157 0.49354 0.0
H165 H 0.52653 0.56192 0.47854 0.0
H166 H 0.64814 0.62372 0.50679 0.0
H167 H 0.61423 0.60805 0.48006 0.0
H168 H 0.62471 0.5621 0.49332 0.0
H169 H 0.5744 0.64116 0.644 0.0
H170 H 0.60775 0.51863 0.65485 0.0
H171 H 0.60692 0.49791 0.61412 0.0
H172 H 0.64542 0.67677 0.60482 0.0
H173 H 0.60261 0.7018 0.61041 0.0
H174 H 0.6207 0.69222 0.58182 0.0
H175 H 0.49766 0.58771 0.60542 0.0
H176 H 0.50341 0.61907 0.58133 0.0
H177 H 0.52115 0.65335 0.6094 0.0
H178 H 0.54826 0.74477 0.54592 0.0
C179 C 0.5558 0.67902 0.55091 0.0
C180 C 0.15983 0.50169 0.85075 0.0
C181 C 0.20167 0.51107 0.86327 0.0
C182 C 0.19973 0.48713 0.8828 0.0
C183 C 0.11476 0.44888 0.87857 0.0
C184 C 0.11667 0.47074 0.85884 0.0
C185 C 0.06828 0.45987 0.84898 0.0
H186 H 0.84197 0.40306 0.87001 0.0
C187 C 0.06492 0.42315 0.88378 0.0
C188 C 0.03725 0.42874 0.86641 0.0
H189 H 0.91593 0.45937 0.8101 0.0
H190 H 0.98136 0.44185 0.82214 0.0
H191 H 0.87776 0.30991 0.86941 0.0
H192 H 0.9219 0.45547 0.90462 0.0
H193 H 0.92423 0.41743 0.92478 0.0
H194 H 0.86865 0.40524 0.91069 0.0
H195 H 0.84607 0.32383 0.89259 0.0
H196 H 0.89497 0.30767 0.89759 0.0
C197 C 0.06154 0.43047 0.82499 0.0
C198 C 0.06408 0.50946 0.84893 0.0
C199 C 0.02796 0.36841 0.96247 0.0
C200 C 0.98714 0.35653 0.97503 0.0
C201 C 0.94356 0.34463 0.96338 0.0
C202 C 0.94162 0.34923 0.93993 0.0
C203 C 0.98378 0.36686 0.92825 0.0
C204 C 0.02571 0.37433 0.93934 0.0
C205 C 0.06747 0.39611 0.92497 0.0
C206 C 0.0438 0.40108 0.90342 0.0
C207 C 0.9949 0.38416 0.90545 0.0
C208 C 0.08963 0.35853 0.92033 0.0
C209 C 0.10132 0.44667 0.93761 0.0
C210 C 0.87191 0.41045 0.85928 0.0
C211 C 0.8747 0.43347 0.83945 0.0
C212 C 0.9135 0.44198 0.82557 0.0
C213 C 0.9516 0.43254 0.83276 0.0
C214 C 0.95084 0.41532 0.85413 0.0
C215 C 0.9103 0.40157 0.86629 0.0
C216 C 0.91568 0.38329 0.88847 0.0
C217 C 0.96687 0.39049 0.8881 0.0
C218 C 0.98763 0.41068 0.86824 0.0
C219 C 0.88173 0.3284 0.88719 0.0
C220 C 0.90696 0.41661 0.90829 0.0
H221 H 0.15747 0.4391 0.9055 0.0
H222 H 0.16066 0.51931 0.8355 0.0
H223 H 0.07656 0.53201 0.8658 0.0
H224 H 0.02783 0.50576 0.84596 0.0
H225 H 0.08592 0.53072 0.83561 0.0
H226 H 0.08441 0.41001 0.82338 0.0
H227 H 0.07042 0.45504 0.81125 0.0
H228 H 0.02518 0.40194 0.82161 0.0
H229 H 0.06187 0.3771 0.97092 0.0
H230 H 0.91154 0.3352 0.97269 0.0
H231 H 0.90783 0.34199 0.93219 0.0
H232 H 0.06177 0.32052 0.91727 0.0
H233 H 0.11255 0.36016 0.93517 0.0
H234 H 0.11019 0.36363 0.90474 0.0
H235 H 0.08274 0.46199 0.95019 0.0
H236 H 0.11616 0.47532 0.926 0.0
H237 H 0.1307 0.44373 0.94715 0.0
H238 H 0.2318 0.4929 0.8923 0.0
C239 C 0.15658 0.4557 0.89036 0.0
C240 C 0.94405 0.45279 0.48035 0.0
C241 C 0.90479 0.41225 0.47005 0.0
C242 C 0.89303 0.40917 0.44668 0.0
C243 C 0.96075 0.48465 0.44353 0.0
C244 C 0.97172 0.48863 0.46667 0.0
C245 C 1.01632 0.53329 0.47406 0.0
H246 H 0.2012 0.73185 0.44398 0.0
C247 C 0.99701 0.52618 0.43383 0.0
C248 C 0.02958 0.55537 0.45159 0.0
H249 H 0.17642 0.6812 0.51084 0.0
H250 H 0.10275 0.61476 0.4961 0.0
H251 H 0.17043 0.62496 0.41642 0.0
H252 H 0.0977 0.71855 0.43179 0.0
H253 H 0.07706 0.68822 0.40422 0.0
H254 H 0.13874 0.72852 0.40943 0.0
H255 H 0.1849 0.68163 0.40451 0.0
H256 H 0.1402 0.62509 0.3912 0.0
C257 C 0.05321 0.5159 0.48281 0.0
C258 C 1.00396 0.5671 0.49203 0.0
C259 C 0.99523 0.53112 0.3479 0.0
C260 C 0.02434 0.5647 0.33361 0.0
C261 C 0.05952 0.60944 0.34378 0.0
C262 C 0.06741 0.61912 0.3676 0.0
C263 C 0.03976 0.58385 0.3815 0.0
C264 C 1.0033 0.54162 0.37166 0.0
C265 C 0.97594 0.50949 0.38916 0.0
C266 C 1.00343 0.53846 0.41107 0.0
C267 C 0.04116 0.58145 0.40644 0.0
C268 C 0.97936 0.45938 0.38421 0.0
C269 C 0.92492 0.50658 0.38826 0.0
C270 C 0.1796 0.7069 0.45556 0.0
C271 C 0.19426 0.71193 0.47862 0.0
C272 C 0.16576 0.67791 0.49298 0.0
C273 C 0.12308 0.63951 0.48439 0.0
C274 C 0.10922 0.63481 0.46115 0.0
C275 C 0.13745 0.66834 0.44722 0.0
C276 C 0.11865 0.65711 0.42283 0.0
C277 C 0.07418 0.61127 0.42429 0.0
C278 C 0.06866 0.59826 0.44675 0.0
C279 C 0.15529 0.64688 0.40777 0.0
C280 C 0.10767 0.70029 0.41652 0.0
H281 H 0.91008 0.44018 0.41565 0.0
H282 H 0.95372 0.45564 0.49832 0.0
H283 H 0.97022 0.56873 0.48692 0.0
H284 H 0.03045 0.6054 0.49381 0.0
H285 H 0.99975 0.55331 0.50906 0.0
H286 H 0.04973 0.48098 0.4728 0.0
H287 H 0.04858 0.50942 0.50108 0.0
H288 H 0.08989 0.54182 0.48074 0.0
H289 H 0.96779 0.49642 0.34084 0.0
H290 H 0.08152 0.63684 0.33331 0.0
H291 H 0.09536 0.6533 0.37423 0.0
H292 H 1.01565 0.46468 0.37949 0.0
H293 H 0.95469 0.43621 0.36978 0.0
H294 H 0.97234 0.43853 0.39915 0.0
H295 H 0.9232 0.53836 0.38082 0.0
H296 H 0.91093 0.50808 0.40552 0.0
H297 H 0.90054 0.47281 0.37766 0.0
H298 H 0.86262 0.37822 0.43859 0.0
C299 C 0.92061 0.44518 0.43341 0.0
C300 C 0.62132 0.98772 0.82503 0.0
C301 C 0.61379 0.94009 0.81469 0.0
C302 C 0.60085 0.92788 0.7912 0.0
C303 C 0.60336 0.00844 0.78831 0.0
C304 C 0.61524 0.0213 0.81144 0.0
C305 C 0.61941 0.07312 0.81882 0.0
H306 H 0.6077 0.28019 0.78371 0.0
C307 C 0.60103 0.05048 0.77843 0.0
C308 C 0.61017 0.0892 0.79607 0.0
H309 H 0.6293 0.25918 0.85349 0.0
H310 H 0.62873 0.17867 0.84044 0.0
H311 H 0.67849 0.23847 0.76232 0.0
H312 H 0.52895 0.17802 0.76987 0.0
H313 H 0.53724 0.15498 0.74235 0.0
H314 H 0.55763 0.22025 0.74962 0.0
H315 H 0.63926 0.2497 0.74371 0.0
H316 H 0.65449 0.19796 0.7374 0.0
C317 C 0.66965 0.10489 0.82899 0.0
C318 C 0.58085 0.07004 0.83584 0.0
C319 C 0.57319 0.0355 0.69223 0.0
C320 C 0.5737 0.06926 0.67736 0.0
C321 C 0.57924 0.11653 0.68655 0.0
C322 C 0.5851 0.13036 0.71021 0.0
C323 C 0.58583 0.09669 0.72492 0.0
C324 C 0.57975 0.05018 0.71584 0.0
C325 C 0.58344 0.02005 0.73393 0.0
C326 C 0.59302 0.05631 0.75539 0.0
C327 C 0.59398 0.10077 0.75 0.0
C328 C 0.62591 1.00656 0.72863 0.0
C329 C 0.53504 0.97563 0.73417 0.0
C330 C 0.61247 0.25849 0.79629 0.0
C331 C 0.61802 0.27584 0.81959 0.0
C332 C 0.62485 0.24657 0.83536 0.0
C333 C 0.624 0.19973 0.82778 0.0
C334 C 0.61627 0.18214 0.80424 0.0
C335 C 0.61138 0.21229 0.7891 0.0
C336 C 0.60307 0.18945 0.76482 0.0
C337 C 0.60226 0.1398 0.76752 0.0
C338 C 0.61029 0.13477 0.79058 0.0
C339 C 0.64566 0.2204 0.75118 0.0
C340 C 0.55444 0.1856 0.75598 0.0
H341 H 0.58602 0.94906 0.76036 0.0
H342 H 0.63107 0.99814 0.8431 0.0
H343 H 0.54612 0.04135 0.82904 0.0
H344 H 0.57626 0.10459 0.83888 0.0
H345 H 0.58921 0.06046 0.85254 0.0
H346 H 0.69626 0.10121 0.81719 0.0
H347 H 0.67533 0.09335 0.84567 0.0
H348 H 0.67684 0.14419 0.83167 0.0
H349 H 0.56961 0.99911 0.68558 0.0
H350 H 0.57935 0.14297 0.67535 0.0
H351 H 0.58929 0.16695 0.71603 0.0
H352 H 0.65379 0.03557 0.7201 0.0
H353 H 0.61486 0.97176 0.71705 0.0
H354 H 0.64417 1.00371 0.74417 0.0
H355 H 0.50558 0.9849 0.7289 0.0
H356 H 0.52634 0.96411 0.75146 0.0
H357 H 0.53357 0.94384 0.72223 0.0
H358 H 0.59556 0.89215 0.78268 0.0
C359 C 0.59559 0.96137 0.77811 0.0
C360 C 0.67594 0.49083 0.15032 0.0
C361 C 0.71534 0.48884 0.1382 0.0
C362 C 0.7122 0.48459 0.11419 0.0
C363 C 0.63621 0.48982 0.11435 0.0
C364 C 0.63578 0.48987 0.13782 0.0
C365 C 0.58795 0.48749 0.14623 0.0
H366 H 0.37734 0.50274 0.11406 0.0
C367 C 0.59333 0.49438 0.106 0.0
C368 C 0.56332 0.49223 0.12433 0.0
H369 H 0.4051 0.46388 0.17931 0.0
H370 H 0.48423 0.47366 0.16763 0.0
H371 H 0.47769 0.58865 0.1112 0.0
H372 H 0.41351 0.43663 0.08473 0.0
H373 H 0.44536 0.46751 0.0624 0.0
H374 H 0.39879 0.4826 0.07399 0.0
H375 H 0.43912 0.56731 0.08604 0.0
H376 H 0.50206 0.58581 0.0845 0.0
C377 C 0.59564 0.5301 0.16491 0.0
C378 C 0.56113 0.43727 0.15486 0.0
C379 C 0.59022 0.53286 0.02399 0.0
C380 C 0.56039 0.54714 0.01145 0.0
C381 C 0.52078 0.55009 0.02206 0.0
C382 C 0.51103 0.53879 0.04453 0.0
C383 C 0.54138 0.52481 0.05685 0.0
C384 C 0.5804 0.52261 0.04658 0.0
C385 C 0.61026 0.50995 0.06253 0.0
C386 C 0.5826 0.5047 0.08421 0.0
C387 C 0.54199 0.51258 0.08062 0.0
C388 C 0.65926 0.55405 0.06558 0.0
C389 C 0.61106 0.46047 0.05235 0.0
C390 C 0.40008 0.49682 0.12621 0.0
C391 C 0.38392 0.4827 0.14771 0.0
C392 C 0.41568 0.47441 0.16246 0.0
C393 C 0.46159 0.47974 0.15567 0.0
C394 C 0.47622 0.49255 0.13365 0.0
C395 C 0.44497 0.50089 0.11961 0.0
C396 C 0.46353 0.51259 0.0966 0.0
C397 C 0.51002 0.50791 0.09832 0.0
C398 C 0.51929 0.49712 0.1202 0.0
C399 C 0.47077 0.56614 0.09423 0.0
C400 C 0.42862 0.47323 0.07834 0.0
H401 H 0.67501 0.48301 0.08418 0.0
H402 H 0.6764 0.49281 0.1688 0.0
H403 H 0.55892 0.40722 0.14152 0.0
H404 H 0.52471 0.43112 0.15904 0.0
H405 H 0.57951 0.43415 0.17043 0.0
H406 H 0.61684 0.56575 0.15848 0.0
H407 H 0.61468 0.52705 0.18026 0.0
H408 H 0.56159 0.53041 0.17024 0.0
H409 H 0.62071 0.52954 0.01647 0.0
H410 H 0.49752 0.56189 0.01315 0.0
H411 H 0.48012 0.54147 0.05138 0.0
H412 H 0.65556 0.58939 0.06595 0.0
H413 H 0.68193 0.55221 0.05123 0.0
H414 H 0.67841 0.55736 0.08188 0.0
H415 H 0.57967 0.43833 0.0407 0.0
H416 H 0.6094 0.43646 0.06569 0.0
H417 H 0.64284 0.46637 0.04233 0.0
H418 H 0.74103 0.4828 0.10433 0.0
C419 C 0.67352 0.4851 0.1024 0.0
H420 H 0.16519 0.40555 0.17082 0.0
H421 H 0.17517 0.52791 0.1358 0.0
H422 H 0.25984 0.55082 0.13183 0.0
H423 H 0.33115 0.53412 0.13673 0.0
H424 H 0.32088 0.41104 0.17151 0.0
H425 H 0.23745 0.39119 0.17734 0.0
C426 C 0.18591 0.43749 0.16244 0.0
C427 C 0.16327 0.46529 0.15389 0.0
C428 C 0.23504 0.45036 0.1601 0.0
C429 C 0.1912 0.50639 0.14304 0.0
C430 C 0.23984 0.51924 0.14057 0.0
C431 C 0.31091 0.50286 0.14562 0.0
C432 C 0.33339 0.4741 0.15352 0.0
C433 C 0.26222 0.49127 0.14883 0.0
C434 C 0.30571 0.43442 0.16537 0.0
C435 C 0.25747 0.42268 0.16854 0.0
H436 H 0.73974 0.24873 0.51313 0.0
H437 H 0.78947 0.15911 0.46789 0.0
H438 H 0.85817 0.23162 0.46009 0.0
H439 H 0.89786 0.32067 0.46193 0.0
H440 H 0.84725 0.41188 0.50518 0.0
H441 H 0.78566 0.33878 0.51851 0.0
C442 C 0.76613 0.24521 0.50189 0.0
C443 C 0.75946 0.19898 0.49082 0.0
C444 C 0.8052 0.28728 0.49715 0.0
C445 C 0.79374 0.19453 0.47637 0.0
C446 C 0.833 0.2359 0.47191 0.0
C447 C 0.87404 0.32434 0.47475 0.0
C448 C 0.87656 0.37099 0.48261 0.0
C449 C 0.83822 0.28246 0.48162 0.0
C450 C 0.84581 0.37599 0.49912 0.0
C451 C 0.81043 0.33428 0.5065 0.0
H452 H 0.68681 0.79073 0.84989 0.0
H453 H 0.5491 0.68959 0.82216 0.0
H454 H 0.52871 0.75763 0.81605 0.0
H455 H 0.55219 0.84558 0.81514 0.0
H456 H 0.69084 0.94837 0.84066 0.0
H457 H 0.70828 0.88068 0.85173 0.0
C458 C 0.65223 0.78374 0.84272 0.0
C459 C 0.61932 0.73491 0.83662 0.0
C460 C 0.64088 0.82353 0.83895 0.0
C461 C 0.57472 0.72652 0.82733 0.0
C462 C 0.56313 0.76555 0.82371 0.0
C463 C 0.58592 0.85329 0.82358 0.0
C464 C 0.62021 0.90204 0.82702 0.0
C465 C 0.59614 0.81414 0.82909 0.0
C466 C 0.66365 0.91138 0.83803 0.0
C467 C 0.67382 0.87251 0.84404 0.0
H468 H 0.93225 0.5673 0.16919 0.0
H469 H 0.91353 0.42654 0.13487 0.0
H470 H 0.82867 0.40357 0.12987 0.0
H471 H 0.76025 0.42652 0.13178 0.0
H472 H 0.77776 0.56607 0.16713 0.0
H473 H 0.86139 0.58599 0.1755 0.0
C474 C 0.90948 0.53126 0.16093 0.0
C475 C 0.92983 0.49851 0.15259 0.0
C476 C 0.86002 0.51807 0.15827 0.0
C477 C 0.89934 0.4521 0.14193 0.0
C478 C 0.85057 0.43914 0.13886 0.0
C479 C 0.78196 0.4607 0.14197 0.0
C480 C 0.76189 0.49446 0.14902 0.0
C481 C 0.83049 0.47207 0.1466 0.0
C482 C 0.79133 0.53885 0.16186 0.0
C483 C 0.8396 0.55056 0.16636 0.0
H484 H 0.40536 0.85265 0.50796 0.0
H485 H 0.36552 0.95144 0.47394 0.0
H486 H 0.2845 0.88998 0.46853 0.0
H487 H 0.2262 0.80692 0.47137 0.0
H488 H 0.26497 0.70622 0.50426 0.0
H489 H 0.34484 0.77001 0.51284 0.0
C490 C 0.37877 0.86063 0.49949 0.0
C491 C 0.39129 0.9062 0.49117 0.0
C492 C 0.33211 0.82497 0.49638 0.0
C493 C 0.35667 0.91643 0.48035 0.0
C494 C 0.31035 0.88138 0.47728 0.0
C495 C 0.2521 0.79906 0.48055 0.0
C496 C 0.24 0.75195 0.48698 0.0
C497 C 0.29788 0.83537 0.48492 0.0
C498 C 0.27349 0.74238 0.49923 0.0
C499 C 0.31922 0.77866 0.50394 0.0
H500 H 0.62839 0.49212 0.84369 0.0
H501 H 0.4927 0.42136 0.80718 0.0
H502 H 0.49984 0.3437 0.80326 0.0
H503 H 0.54406 0.29517 0.80906 0.0
H504 H 0.68017 0.3616 0.84471 0.0
H505 H 0.67344 0.44092 0.85035 0.0
C506 C 0.60077 0.45976 0.83472 0.0
C507 C 0.5602 0.46294 0.82553 0.0
C508 C 0.60488 0.41412 0.83258 0.0
C509 C 0.52432 0.42029 0.81436 0.0
C510 C 0.52824 0.3756 0.81212 0.0
C511 C 0.5721 0.3269 0.81831 0.0
C512 C 0.61241 0.3224 0.82653 0.0
C513 C 0.5682 0.37202 0.8211 0.0
C514 C 0.64844 0.36388 0.83849 0.0
C515 C 0.64473 0.40935 0.84148 0.0
H516 H 0.53927 0.90038 0.49259 0.0
H517 H 0.69081 0.95279 0.49473 0.0
H518 H 0.68473 0.87017 0.49688 0.0
H519 H 0.63718 0.78409 0.50213 0.0
H520 H 0.48606 0.7306 0.50166 0.0
H521 H 0.49082 0.81127 0.49434 0.0
C522 C 0.5708 0.89356 0.49343 0.0
C523 C 0.61544 0.93309 0.49382 0.0
C524 C 0.56712 0.84531 0.4947 0.0
C525 C 0.65597 0.92335 0.49462 0.0
C526 C 0.65261 0.87592 0.49578 0.0
C527 C 0.60528 0.78965 0.49945 0.0
C528 C 0.56131 0.75107 0.50179 0.0
C529 C 0.60849 0.83669 0.4962 0.0
C530 C 0.52026 0.75934 0.49924 0.0
C531 C 0.52306 0.80576 0.49546 0.0
H532 H 0.73478 0.52293 0.81034 0.0
H533 H 0.77813 0.60115 0.878 0.0
H534 H 0.82922 0.55882 0.88346 0.0
H535 H 0.86007 0.49868 0.86925 0.0
H536 H 0.81894 0.42184 0.80132 0.0
H537 H 0.76768 0.46433 0.79562 0.0
C538 C 0.75584 0.53103 0.82617 0.0
C539 C 0.75306 0.56511 0.84375 0.0
C540 C 0.78479 0.50644 0.82918 0.0
C541 C 0.78011 0.57523 0.86423 0.0
C542 C 0.80901 0.55087 0.86739 0.0
C543 C 0.83944 0.49098 0.85329 0.0
C544 C 0.8423 0.45682 0.83582 0.0
C545 C 0.8112 0.51613 0.85007 0.0
C546 C 0.81665 0.4478 0.81499 0.0
C547 C 0.78763 0.47212 0.81175 0.0
H548 H 0.17912 0.70363 0.13026 0.0
H549 H 0.23728 0.62483 0.16875 0.0
H550 H 0.31361 0.69425 0.17225 0.0
H551 H 0.36151 0.77997 0.16834 0.0
H552 H 0.30503 0.86278 0.13211 0.0
H553 H 0.23098 0.78933 0.12322 0.0
C554 C 0.20877 0.70171 0.13914 0.0
C555 C 0.20244 0.65952 0.14954 0.0
C556 C 0.25287 0.74247 0.14146 0.0
C557 C 0.24106 0.65721 0.16093 0.0
C558 C 0.28483 0.69682 0.16288 0.0
C559 C 0.3333 0.7815 0.15801 0.0
C560 C 0.33839 0.82632 0.15084 0.0
C561 C 0.29079 0.73996 0.15377 0.0
C562 C 0.30183 0.82832 0.13758 0.0
C563 C 0.2594 0.78652 0.13276 0.0
H564 H 0.59672 0.18208 0.47872 0.0
H565 H 0.52103 0.14845 0.54063 0.0
H566 H 0.52364 0.23056 0.54673 0.0
H567 H 0.54499 0.31099 0.53461 0.0
H568 H 0.62298 0.34989 0.47384 0.0
H569 H 0.62048 0.2667 0.46677 0.0
C570 C 0.58127 0.19305 0.49361 0.0
C571 C 0.55859 0.15882 0.50919 0.0
C572 C 0.58257 0.24111 0.49706 0.0
C573 C 0.53851 0.17368 0.52832 0.0
C574 C 0.53984 0.22074 0.53183 0.0
C575 C 0.56208 0.30179 0.5199 0.0
C576 C 0.58475 0.33731 0.50499 0.0
C577 C 0.56138 0.25458 0.51628 0.0
C578 C 0.60513 0.32355 0.48563 0.0
C579 C 0.60405 0.27598 0.4817 0.0
H580 H 0.41615 0.63579 0.85712 0.0
H581 H 0.38808 0.5518 0.79053 0.0
H582 H 0.30323 0.52314 0.79529 0.0
H583 H 0.23858 0.50895 0.82169 0.0
H584 H 0.26799 0.58823 0.88937 0.0
H585 H 0.35064 0.63223 0.8809 0.0
C586 C 0.3914 0.61234 0.8434 0.0
C587 C 0.40797 0.59503 0.82375 0.0
C588 C 0.34292 0.59451 0.84667 0.0
C589 C 0.37585 0.56509 0.80595 0.0
C590 C 0.32739 0.54843 0.80873 0.0
C591 C 0.26293 0.53693 0.83426 0.0
C592 C 0.24787 0.54492 0.85619 0.0
C593 C 0.31065 0.56083 0.82952 0.0
C594 C 0.27939 0.58111 0.87248 0.0
C595 C 0.32652 0.60617 0.86766 0.0
H596 H 0.8569 0.3045 0.14134 0.0
H597 H 0.93734 0.27688 0.19358 0.0
H598 H 0.86615 0.21029 0.20437 0.0
H599 H 0.78045 0.16498 0.20129 0.0
H600 H 0.69839 0.1944 0.15057 0.0
H601 H 0.77082 0.25431 0.1364 0.0
C602 C 0.85883 0.28335 0.15485 0.0
C603 C 0.90218 0.29564 0.16676 0.0
C604 C 0.81749 0.24557 0.16124 0.0
C605 C 0.90431 0.26818 0.18425 0.0
C606 C 0.86363 0.23016 0.19044 0.0
C607 C 0.77843 0.18432 0.18703 0.0
C608 C 0.7341 0.1758 0.1772 0.0
C609 C 0.81993 0.21936 0.17943 0.0
C610 C 0.73208 0.20025 0.15841 0.0
C611 C 0.77346 0.23478 0.15045 0.0
H612 H 0.97705 0.37286 0.08269 0.0
H613 H 0.09762 0.50852 0.07615 0.0
H614 H 0.09213 0.48839 0.0348 0.0
H615 H 0.05209 0.43436 0.00059 0.0
H616 H 0.93127 0.2989 0.00612 0.0
H617 H 0.9377 0.31718 0.04798 0.0
C618 C 1.00231 0.39793 0.07226 0.0
C619 C 0.03766 0.44222 0.08258 0.0
C620 C 0.99887 0.38628 0.04838 0.0
C621 C 0.06991 0.47431 0.06874 0.0
C622 C 0.06689 0.46284 0.04506 0.0
C623 C 0.02769 0.40824 0.01094 0.0
C624 C 0.9917 0.36495 0.00034 0.0
C625 C 0.03144 0.41913 0.03474 0.0
C626 C 0.95936 0.33237 0.01394 0.0
C627 C 0.96308 0.34282 0.03782 0.0
H628 H 0.49057 1.00547 0.42248 0.0
H629 H 0.64102 0.05377 0.41784 0.0
H630 H 0.63293 0.04866 0.37619 0.0
H631 H 0.58331 0.03066 0.34131 0.0
H632 H 0.43357 0.98972 0.34608 0.0
H633 H 0.44112 0.99089 0.38744 0.0
C634 C 0.52146 0.01451 0.41228 0.0
C635 C 0.56625 0.02967 0.42309 0.0
C636 C 0.5167 0.01278 0.38842 0.0
C637 C 0.60617 0.04208 0.40982 0.0
C638 C 0.60158 0.03915 0.38605 0.0
C639 C 0.55233 0.0228 0.35135 0.0
C640 C 0.50792 0.01004 0.34044 0.0
C641 C 0.55705 0.02486 0.37519 0.0
C642 C 0.46813 0.99885 0.35386 0.0
C643 C 0.47241 0.99982 0.37758 0.0
H644 H 0.55186 0.62015 0.75628 0.0
H645 H 0.68103 0.60112 0.76528 0.0
H646 H 0.68782 0.59249 0.72393 0.0
H647 H 0.65477 0.58546 0.68514 0.0
H648 H 0.52514 0.60306 0.67614 0.0
H649 H 0.52115 0.61758 0.71761 0.0
C650 C 0.58176 0.61454 0.74927 0.0
C651 C 0.61561 0.61089 0.76395 0.0
C652 C 0.58529 0.60911 0.72545 0.0
C653 C 0.65427 0.60393 0.75446 0.0
C654 C 0.65817 0.59881 0.73077 0.0
C655 C 0.62565 0.59242 0.6923 0.0
C656 C 0.59014 0.59284 0.67767 0.0
C657 C 0.62344 0.60043 0.71612 0.0
C658 C 0.55304 0.60282 0.68709 0.0
C659 C 0.55062 0.61089 0.71078 0.0
H660 H 0.53485 0.99223 0.57206 0.0
H661 H 0.6602 0.12526 0.56857 0.0
H662 H 0.66548 0.14209 0.61002 0.0
H663 H 0.6333 0.12125 0.64725 0.0
H664 H 0.50927 0.98827 0.65162 0.0
H665 H 0.50478 0.96907 0.60985 0.0
C666 C 0.56349 0.02472 0.58036 0.0
C667 C 0.59685 0.0575 0.56711 0.0
C668 C 0.56645 0.03438 0.60436 0.0
C669 C 0.6339 0.0993 0.57823 0.0
C670 C 0.63697 0.10916 0.60199 0.0
C671 C 0.6052 0.08818 0.63899 0.0
C672 C 0.57131 0.05652 0.6523 0.0
C673 C 0.60314 0.07735 0.61517 0.0
C674 C 0.53565 0.01319 0.64159 0.0
C675 C 0.53307 1.00231 0.61777 0.0
H676 H 0.63687 0.6079 0.91463 0.0
H677 H 0.48759 0.5506 0.89753 0.0
H678 H 0.47029 0.53207 0.93682 0.0
H679 H 0.49746 0.52963 0.97558 0.0
H680 H 0.64691 0.59262 0.99338 0.0
H681 H 0.66404 0.61021 0.95409 0.0
C682 C 0.60054 0.59141 0.91951 0.0
C683 C 0.5636 0.58046 0.90316 0.0
C684 C 0.59081 0.58135 0.94218 0.0
C685 C 0.51672 0.55961 0.90981 0.0
C686 C 0.50677 0.5488 0.93225 0.0
C687 C 0.53382 0.54795 0.97106 0.0
C688 C 0.57073 0.55928 0.98755 0.0
C689 C 0.54354 0.55931 0.94855 0.0
C690 C 0.61763 0.58227 0.98106 0.0
C691 C 0.62756 0.59284 0.95859 0.0
H692 H 0.97652 0.4835 0.22868 0.0
H693 H 0.12707 0.56375 0.22636 0.0
H694 H 0.13267 0.58892 0.26749 0.0
H695 H 0.09527 0.5867 0.30399 0.0
H696 H 0.94378 0.51273 0.30624 0.0
H697 H 0.93816 0.48599 0.26528 0.0
C698 C 1.01047 0.50632 0.23728 0.0
C699 C 0.05136 0.52153 0.22468 0.0
C700 C 1.01329 0.52172 0.26084 0.0
C701 C 0.09513 0.55172 0.2358 0.0
C702 C 0.09837 0.56608 0.25928 0.0
C703 C 0.06082 0.56567 0.29555 0.0
C704 C 1.02008 0.55174 0.30834 0.0
C705 C 0.05768 0.55136 0.27194 0.0
C706 C 0.97591 0.52338 0.29699 0.0
C707 C 0.97259 0.50823 0.27351 0.0
loop_
_geom_bond_atom_site_label_1
_geom_bond_atom_site_label_2
_geom_bond_distance
_geom_bond_site_symmetry_2
_ccdc_geom_bond_type
Tb0 O3 2.453 1_455 S
Tb0 O4 2.596 1_455 S
Tb0 O5 2.374 . S
Tb0 O13 2.343 . S
Tb0 O15 2.353 . S
Tb0 O17 2.427 . S
Tb0 O18 2.513 . S
C1 O5 1.251 . S
C1 O7 1.263 . S
Tb2 O4 2.343 1_455 S
Tb2 O7 2.353 . S
Tb2 O10 2.427 1_455 S
Tb2 O11 2.513 1_455 S
Tb2 O12 2.453 . S
Tb2 O13 2.596 . S
Tb2 O14 2.374 . S
O3 Tb0 2.453 1_655 S
O3 C19 1.245 . S
O4 Tb0 2.596 1_655 S
O4 Tb2 2.343 1_655 S
O4 C19 1.259 . S
O5 Tb0 2.374 . S
O5 C1 1.251 . S
C6 O10 1.275 . S
C6 O11 1.246 . S
O7 C1 1.263 . S
O7 Tb2 2.353 . S
C8 O12 1.245 . S
C8 O13 1.259 . S
C9 O14 1.250 . S
C9 O15 1.263 . S
O10 Tb2 2.427 1_655 S
O10 C6 1.275 . S
O11 Tb2 2.513 1_655 S
O11 C6 1.246 . S
O12 Tb2 2.453 . S
O12 C8 1.245 . S
O13 Tb0 2.343 . S
O13 Tb2 2.596 . S
O13 C8 1.259 . S
O14 Tb2 2.374 . S
O14 C9 1.250 . S
O15 Tb0 2.353 . S
O15 C9 1.263 . S
C16 O17 1.275 . S
C16 O18 1.246 . S
O17 Tb0 2.427 . S
O17 C16 1.275 . S
O18 Tb0 2.513 . S
O18 C16 1.246 . S
C19 O3 1.245 . S
C19 O4 1.259 . S
Tb20 O23 2.453 . S
Tb20 O24 2.596 . S
Tb20 O25 2.374 . S
Tb20 O33 2.343 1_545 S
Tb20 O35 2.353 . S
Tb20 O37 2.427 1_545 S
Tb20 O38 2.513 1_545 S
C21 O25 1.251 . S
C21 O27 1.263 . S
Tb22 O24 2.343 . S
Tb22 O27 2.353 . S
Tb22 O30 2.427 . S
Tb22 O31 2.513 . S
Tb22 O32 2.453 1_545 S
Tb22 O33 2.596 1_545 S
Tb22 O34 2.374 . S
O23 Tb20 2.453 . S
O23 C39 1.245 . S
O24 Tb20 2.596 . S
O24 Tb22 2.343 . S
O24 C39 1.259 . S
O25 Tb20 2.374 . S
O25 C21 1.251 . S
C26 O30 1.275 . S
C26 O31 1.246 . S
O27 C21 1.263 . S
O27 Tb22 2.353 . S
C28 O32 1.245 . S
C28 O33 1.259 . S
C29 O34 1.250 . S
C29 O35 1.263 . S
O30 Tb22 2.427 . S
O30 C26 1.275 . S
O31 Tb22 2.513 . S
O31 C26 1.246 . S
O32 Tb22 2.453 1_565 S
O32 C28 1.245 . S
O33 Tb20 2.343 1_565 S
O33 Tb22 2.596 1_565 S
O33 C28 1.259 . S
O34 Tb22 2.374 . S
O34 C29 1.250 . S
O35 Tb20 2.353 . S
O35 C29 1.263 . S
C36 O37 1.275 . S
C36 O38 1.246 . S
O37 Tb20 2.427 1_565 S
O37 C36 1.275 . S
O38 Tb20 2.513 1_565 S
O38 C36 1.246 . S
C39 O23 1.245 . S
C39 O24 1.259 . S
Tb40 O43 2.453 . S
Tb40 O44 2.596 . S
Tb40 O45 2.374 . S
Tb40 O53 2.343 . S
Tb40 O55 2.353 . S
Tb40 O57 2.427 . S
Tb40 O58 2.513 . S
C41 O45 1.251 . S
C41 O47 1.263 . S
Tb42 O44 2.343 . S
Tb42 O47 2.353 . S
Tb42 O50 2.427 . S
Tb42 O51 2.513 . S
Tb42 O52 2.453 . S
Tb42 O53 2.596 . S
Tb42 O54 2.374 . S
O43 Tb40 2.453 . S
O43 C59 1.245 . S
O44 Tb40 2.596 . S
O44 Tb42 2.343 . S
O44 C59 1.259 . S
O45 Tb40 2.374 . S
O45 C41 1.251 . S
C46 O50 1.275 . S
C46 O51 1.246 . S
O47 C41 1.263 . S
O47 Tb42 2.353 . S
C48 O52 1.245 . S
C48 O53 1.259 . S
C49 O54 1.250 . S
C49 O55 1.263 . S
O50 Tb42 2.427 . S
O50 C46 1.275 . S
O51 Tb42 2.513 . S
O51 C46 1.246 . S
O52 Tb42 2.453 . S
O52 C48 1.245 . S
O53 Tb40 2.343 . S
O53 Tb42 2.596 . S
O53 C48 1.259 . S
O54 Tb42 2.374 . S
O54 C49 1.250 . S
O55 Tb40 2.353 . S
O55 C49 1.263 . S
C56 O57 1.275 . S
C56 O58 1.246 . S
O57 Tb40 2.427 . S
O57 C56 1.275 . S
O58 Tb40 2.513 . S
O58 C56 1.246 . S
C59 O43 1.245 . S
C59 O44 1.259 . S
C60 C61 1.391 . S
C60 C64 1.391 . S
C60 H102 0.948 . S
C61 C60 1.391 . S
C61 C62 1.391 . S
C62 C61 1.391 . S
C62 H118 0.947 . S
C62 C119 1.392 . S
C63 C64 1.391 . S
C63 C67 1.397 . S
C63 C119 1.419 . S
C64 C60 1.391 . S
C64 C63 1.391 . S
C64 C65 1.399 . S
C65 C64 1.399 . S
C65 C68 1.396 . S
C65 C77 1.453 . S
C65 C78 1.684 . S
H66 C90 0.948 . S
C67 C63 1.397 . S
C67 C68 1.394 . S
C67 C86 1.723 . S
C68 C65 1.396 . S
C68 C67 1.394 . S
C68 C98 1.730 . S
H69 C92 0.947 . S
H70 C93 0.948 . S
H71 C99 0.982 . S
H72 C100 0.979 . S
H73 C100 0.980 . S
H74 C100 0.983 . S
H75 C99 0.979 . S
H76 C99 0.977 . S
C77 C65 1.453 . S
C77 H106 0.982 . S
C77 H107 0.979 . S
C77 H108 0.977 . S
C78 C65 1.684 . S
C78 H103 0.979 . S
C78 H104 0.980 . S
C78 H105 0.983 . S
C79 C80 1.391 . S
C79 C84 1.391 . S
C79 H109 0.948 . S
C80 C79 1.391 . S
C80 C81 1.391 . S
C81 C80 1.391 . S
C81 C82 1.392 . S
C81 H110 0.947 1_545 S
C82 C81 1.392 . S
C82 C83 1.419 . S
C82 H111 0.948 1_545 S
C83 C82 1.419 . S
C83 C84 1.391 . S
C83 C87 1.397 . S
C84 C79 1.391 . S
C84 C83 1.391 . S
C84 C85 1.399 . S
C85 C84 1.399 . S
C85 C86 1.396 . S
C85 C88 1.453 . S
C85 C89 1.684 . S
C86 C67 1.723 . S
C86 C85 1.396 . S
C86 C87 1.394 . S
C87 C83 1.397 . S
C87 C86 1.394 . S
C87 C97 1.723 1_545 S
C88 C85 1.453 . S
C88 H112 0.982 . S
C88 H113 0.979 . S
C88 H114 0.977 . S
C89 C85 1.684 . S
C89 H115 0.979 . S
C89 H116 0.980 . S
C89 H117 0.983 . S
C90 H66 0.948 . S
C90 C91 1.391 . S
C90 C95 1.391 . S
C91 C90 1.391 . S
C91 C92 1.391 . S
C92 H69 0.947 . S
C92 C91 1.391 . S
C92 C93 1.392 . S
C93 H70 0.948 . S
C93 C92 1.392 . S
C93 C94 1.419 . S
C94 C93 1.419 . S
C94 C95 1.391 . S
C94 C98 1.391 1_565 S
C95 C90 1.391 . S
C95 C94 1.391 . S
C95 C96 1.399 . S
C96 C95 1.399 . S
C96 C97 1.396 . S
C96 C99 1.453 . S
C96 C100 1.684 . S
C97 C87 1.723 1_565 S
C97 C96 1.396 . S
C97 C98 1.391 1_565 S
C98 C68 1.730 . S
C98 C94 1.391 1_545 S
C98 C97 1.391 1_545 S
C99 H71 0.982 . S
C99 H75 0.979 . S
C99 H76 0.977 . S
C99 C96 1.453 . S
C100 H72 0.979 . S
C100 H73 0.980 . S
C100 H74 0.983 . S
C100 C96 1.684 . S
H101 C119 0.948 . S
H102 C60 0.948 . S
H103 C78 0.979 . S
H104 C78 0.980 . S
H105 C78 0.983 . S
H106 C77 0.982 . S
H107 C77 0.979 . S
H108 C77 0.977 . S
H109 C79 0.948 . S
H110 C81 0.947 1_565 S
H111 C82 0.948 1_565 S
H112 C88 0.982 . S
H113 C88 0.979 . S
H114 C88 0.977 . S
H115 C89 0.979 . S
H116 C89 0.980 . S
H117 C89 0.983 . S
H118 C62 0.947 . S
C119 C62 1.392 . S
C119 C63 1.419 . S
C119 H101 0.948 . S
C120 C121 1.391 . S
C120 C124 1.391 . S
C120 H162 0.948 . S
C121 C120 1.391 . S
C121 C122 1.391 . S
C122 C121 1.391 . S
C122 H178 0.947 . S
C122 C179 1.392 . S
C123 C124 1.391 . S
C123 C127 1.397 . S
C123 C179 1.419 . S
C124 C120 1.391 . S
C124 C123 1.391 . S
C124 C125 1.399 . S
C125 C124 1.399 . S
C125 C128 1.396 . S
C125 C137 1.453 . S
C125 C138 1.684 . S
H126 C150 0.948 . S
C127 C123 1.397 . S
C127 C128 1.394 . S
C127 C146 1.723 . S
C128 C125 1.396 . S
C128 C127 1.394 . S
C128 C158 1.723 . S
H129 C152 0.947 . S
H130 C153 0.948 . S
H131 C159 0.982 . S
H132 C160 0.979 . S
H133 C160 0.980 . S
H134 C160 0.983 . S
H135 C159 0.979 . S
H136 C159 0.977 . S
C137 C125 1.453 . S
C137 H166 0.982 . S
C137 H167 0.979 . S
C137 H168 0.977 . S
C138 C125 1.684 . S
C138 H163 0.979 . S
C138 H164 0.980 . S
C138 H165 0.983 . S
C139 C140 1.391 . S
C139 C144 1.391 . S
C139 H169 0.948 . S
C140 C139 1.391 . S
C140 C141 1.391 . S
C141 C140 1.391 . S
C141 C142 1.392 . S
C141 H170 0.947 . S
C142 C141 1.392 . S
C142 C143 1.419 . S
C142 H171 0.948 . S
C143 C142 1.419 . S
C143 C144 1.391 . S
C143 C147 1.397 . S
C144 C139 1.391 . S
C144 C143 1.391 . S
C144 C145 1.399 . S
C145 C144 1.399 . S
C145 C146 1.396 . S
C145 C148 1.453 . S
C145 C149 1.684 . S
C146 C127 1.723 . S
C146 C145 1.396 . S
C146 C147 1.394 . S
C147 C143 1.397 . S
C147 C146 1.394 . S
C147 C157 1.723 . S
C148 C145 1.453 . S
C148 H172 0.982 . S
C148 H173 0.979 . S
C148 H174 0.977 . S
C149 C145 1.684 . S
C149 H175 0.979 . S
C149 H176 0.980 . S
C149 H177 0.983 . S
C150 H126 0.948 . S
C150 C151 1.391 . S
C150 C155 1.391 . S
C151 C150 1.391 . S
C151 C152 1.391 . S
C152 H129 0.947 . S
C152 C151 1.391 . S
C152 C153 1.392 . S
C153 H130 0.948 . S
C153 C152 1.392 . S
C153 C154 1.419 . S
C154 C153 1.419 . S
C154 C155 1.391 . S
C154 C158 1.397 . S
C155 C150 1.391 . S
C155 C154 1.391 . S
C155 C156 1.399 . S
C156 C155 1.399 . S
C156 C157 1.396 . S
C156 C159 1.453 . S
C156 C160 1.684 . S
C157 C147 1.723 . S
C157 C156 1.396 . S
C157 C158 1.394 . S
C158 C128 1.723 . S
C158 C154 1.397 . S
C158 C157 1.394 . S
C159 H131 0.982 . S
C159 H135 0.979 . S
C159 H136 0.977 . S
C159 C156 1.453 . S
C160 H132 0.979 . S
C160 H133 0.980 . S
C160 H134 0.983 . S
C160 C156 1.684 . S
H161 C179 0.948 . S
H162 C120 0.948 . S
H163 C138 0.979 . S
H164 C138 0.980 . S
H165 C138 0.983 . S
H166 C137 0.982 . S
H167 C137 0.979 . S
H168 C137 0.977 . S
H169 C139 0.948 . S
H170 C141 0.947 . S
H171 C142 0.948 . S
H172 C148 0.982 . S
H173 C148 0.979 . S
H174 C148 0.977 . S
H175 C149 0.979 . S
H176 C149 0.980 . S
H177 C149 0.983 . S
H178 C122 0.947 . S
C179 C122 1.392 . S
C179 C123 1.419 . S
C179 H161 0.948 . S
C180 C181 1.391 . S
C180 C184 1.391 . S
C180 H222 0.948 . S
C181 C180 1.391 . S
C181 C182 1.391 . S
C182 C181 1.391 . S
C182 H238 0.947 . S
C182 C239 1.392 . S
C183 C184 1.391 . S
C183 C187 1.397 . S
C183 C239 1.419 . S
C184 C180 1.391 . S
C184 C183 1.391 . S
C184 C185 1.399 . S
C185 C184 1.399 . S
C185 C188 1.396 . S
C185 C197 1.453 . S
C185 C198 1.684 . S
H186 C210 0.948 . S
C187 C183 1.397 . S
C187 C188 1.394 . S
C187 C206 1.723 . S
C188 C185 1.396 . S
C188 C187 1.394 . S
C188 C218 1.723 . S
H189 C212 0.947 . S
H190 C213 0.948 . S
H191 C219 0.982 . S
H192 C220 0.979 . S
H193 C220 0.980 . S
H194 C220 0.983 . S
H195 C219 0.979 . S
H196 C219 0.977 . S
C197 C185 1.453 . S
C197 H226 0.982 . S
C197 H227 0.979 . S
C197 H228 0.977 . S
C198 C185 1.684 . S
C198 H223 0.979 . S
C198 H224 0.980 . S
C198 H225 0.983 . S
C199 C200 1.391 . S
C199 C204 1.391 . S
C199 H229 0.948 . S
C200 C199 1.391 . S
C200 C201 1.391 . S
C201 C200 1.391 . S
C201 C202 1.392 . S
C201 H230 0.947 1_455 S
C202 C201 1.392 . S
C202 C203 1.419 . S
C202 H231 0.948 1_455 S
C203 C202 1.419 . S
C203 C204 1.391 . S
C203 C207 1.397 . S
C204 C199 1.391 . S
C204 C203 1.391 . S
C204 C205 1.399 . S
C205 C204 1.399 . S
C205 C206 1.396 . S
C205 C208 1.453 . S
C205 C209 1.684 . S
C206 C187 1.723 . S
C206 C205 1.396 . S
C206 C207 1.394 . S
C207 C203 1.397 . S
C207 C206 1.394 . S
C207 C217 1.723 . S
C208 C205 1.453 . S
C208 H232 0.982 . S
C208 H233 0.979 . S
C208 H234 0.977 . S
C209 C205 1.684 . S
C209 H235 0.979 . S
C209 H236 0.980 . S
C209 H237 0.983 . S
C210 H186 0.948 . S
C210 C211 1.391 . S
C210 C215 1.391 . S
C211 C210 1.391 . S
C211 C212 1.391 . S
C212 H189 0.947 . S
C212 C211 1.391 . S
C212 C213 1.392 1_655 S
C213 H190 0.948 . S
C213 C212 1.392 1_455 S
C213 C214 1.419 . S
C214 C213 1.419 . S
C214 C215 1.391 1_455 S
C214 C218 1.397 . S
C215 C210 1.391 . S
C215 C214 1.391 1_655 S
C215 C216 1.399 . S
C216 C215 1.399 . S
C216 C217 1.396 1_655 S
C216 C219 1.453 . S
C216 C220 1.684 . S
C217 C207 1.723 . S
C217 C216 1.396 1_455 S
C217 C218 1.394 . S
C218 C188 1.723 . S
C218 C214 1.397 . S
C218 C217 1.394 . S
C219 H191 0.982 . S
C219 H195 0.979 . S
C219 H196 0.977 . S
C219 C216 1.453 . S
C220 H192 0.979 . S
C220 H193 0.980 . S
C220 H194 0.983 . S
C220 C216 1.684 . S
H221 C239 0.948 . S
H222 C180 0.948 . S
H223 C198 0.979 . S
H224 C198 0.980 . S
H225 C198 0.983 . S
H226 C197 0.982 . S
H227 C197 0.979 . S
H228 C197 0.977 . S
H229 C199 0.948 . S
H230 C201 0.947 1_655 S
H231 C202 0.948 1_655 S
H232 C208 0.982 . S
H233 C208 0.979 . S
H234 C208 0.977 . S
H235 C209 0.979 . S
H236 C209 0.980 . S
H237 C209 0.983 . S
H238 C182 0.947 . S
C239 C182 1.392 . S
C239 C183 1.419 . S
C239 H221 0.948 . S
C240 C241 1.391 . S
C240 C244 1.391 . S
C240 H282 0.948 . S
C241 C240 1.391 . S
C241 C242 1.391 . S
C242 C241 1.391 . S
C242 H298 0.947 . S
C242 C299 1.392 . S
C243 C244 1.391 . S
C243 C247 1.397 . S
C243 C299 1.419 . S
C244 C240 1.391 . S
C244 C243 1.391 . S
C244 C245 1.399 . S
C245 C244 1.399 . S
C245 C248 1.396 . S
C245 C257 1.453 . S
C245 C258 1.684 . S
H246 C270 0.948 . S
C247 C243 1.397 . S
C247 C248 1.394 . S
C247 C266 1.723 . S
C248 C245 1.396 . S
C248 C247 1.394 . S
C248 C278 1.723 1_655 S
H249 C272 0.947 . S
H250 C273 0.948 . S
H251 C279 0.982 . S
H252 C280 0.979 . S
H253 C280 0.980 . S
H254 C280 0.983 . S
H255 C279 0.979 . S
H256 C279 0.977 . S
C257 C245 1.453 . S
C257 H286 0.982 1_655 S
C257 H287 0.979 . S
C257 H288 0.977 1_655 S
C258 C245 1.684 . S
C258 H283 0.979 . S
C258 H284 0.980 . S
C258 H285 0.983 . S
C259 C260 1.391 1_655 S
C259 C264 1.391 . S
C259 H289 0.948 . S
C260 C259 1.391 1_455 S
C260 C261 1.391 . S
C261 C260 1.391 . S
C261 C262 1.392 . S
C261 H290 0.947 . S
C262 C261 1.392 . S
C262 C263 1.419 . S
C262 H291 0.948 . S
C263 C262 1.419 . S
C263 C264 1.391 1_455 S
C263 C267 1.397 . S
C264 C259 1.391 . S
C264 C263 1.391 1_655 S
C264 C265 1.399 . S
C265 C264 1.399 . S
C265 C266 1.396 . S
C265 C268 1.453 . S
C265 C269 1.684 . S
C266 C247 1.723 . S
C266 C265 1.396 . S
C266 C267 1.394 1_655 S
C267 C263 1.397 . S
C267 C266 1.394 1_455 S
C267 C277 1.723 . S
C268 C265 1.453 . S
C268 H292 0.982 . S
C268 H293 0.979 . S
C268 H294 0.977 . S
C269 C265 1.684 . S
C269 H295 0.979 . S
C269 H296 0.980 . S
C269 H297 0.983 . S
C270 H246 0.948 . S
C270 C271 1.391 . S
C270 C275 1.391 . S
C271 C270 1.391 . S
C271 C272 1.391 . S
C272 H249 0.947 . S
C272 C271 1.391 . S
C272 C273 1.392 . S
C273 H250 0.948 . S
C273 C272 1.392 . S
C273 C274 1.419 . S
C274 C273 1.419 . S
C274 C275 1.391 . S
C274 C278 1.397 . S
C275 C270 1.391 . S
C275 C274 1.391 . S
C275 C276 1.399 . S
C276 C275 1.399 . S
C276 C277 1.396 . S
C276 C279 1.453 . S
C276 C280 1.684 . S
C277 C267 1.723 . S
C277 C276 1.396 . S
C277 C278 1.394 . S
C278 C248 1.723 1_455 S
C278 C274 1.397 . S
C278 C277 1.394 . S
C279 H251 0.982 . S
C279 H255 0.979 . S
C279 H256 0.977 . S
C279 C276 1.453 . S
C280 H252 0.979 . S
C280 H253 0.980 . S
C280 H254 0.983 . S
C280 C276 1.684 . S
H281 C299 0.948 . S
H282 C240 0.948 . S
H283 C258 0.979 . S
H284 C258 0.980 . S
H285 C258 0.983 . S
H286 C257 0.982 1_455 S
H287 C257 0.979 . S
H288 C257 0.977 1_455 S
H289 C259 0.948 . S
H290 C261 0.947 . S
H291 C262 0.948 . S
H292 C268 0.982 . S
H293 C268 0.979 . S
H294 C268 0.977 . S
H295 C269 0.979 . S
H296 C269 0.980 . S
H297 C269 0.983 . S
H298 C242 0.947 . S
C299 C242 1.392 . S
C299 C243 1.419 . S
C299 H281 0.948 . S
C300 C301 1.391 . S
C300 C304 1.391 . S
C300 H342 0.948 . S
C301 C300 1.391 . S
C301 C302 1.391 . S
C302 C301 1.391 . S
C302 H358 0.947 . S
C302 C359 1.392 . S
C303 C304 1.391 . S
C303 C307 1.397 . S
C303 C359 1.419 . S
C304 C300 1.391 . S
C304 C303 1.391 . S
C304 C305 1.399 . S
C305 C304 1.399 . S
C305 C308 1.396 1_565 S
C305 C317 1.453 1_565 S
C305 C318 1.684 . S
H306 C330 0.948 . S
C307 C303 1.397 . S
C307 C308 1.394 1_565 S
C307 C326 1.723 . S
C308 C305 1.396 1_545 S
C308 C307 1.394 1_545 S
C308 C338 1.723 . S
H309 C332 0.947 . S
H310 C333 0.948 . S
H311 C339 0.982 . S
H312 C340 0.979 . S
H313 C340 0.980 . S
H314 C340 0.983 . S
H315 C339 0.979 . S
H316 C339 0.977 . S
C317 C305 1.453 1_545 S
C317 H346 0.982 . S
C317 H347 0.979 . S
C317 H348 0.977 . S
C318 C305 1.684 . S
C318 H343 0.979 . S
C318 H344 0.980 1_565 S
C318 H345 0.983 . S
C319 C320 1.391 1_565 S
C319 C324 1.391 . S
C319 H349 0.948 . S
C320 C319 1.391 1_545 S
C320 C321 1.391 . S
C321 C320 1.391 . S
C321 C322 1.392 . S
C321 H350 0.947 . S
C322 C321 1.392 . S
C322 C323 1.419 . S
C322 H351 0.948 . S
C323 C322 1.419 . S
C323 C324 1.391 1_545 S
C323 C327 1.397 . S
C324 C319 1.391 . S
C324 C323 1.391 1_565 S
C324 C325 1.399 . S
C325 C324 1.399 . S
C325 C326 1.396 . S
C325 C328 1.453 . S
C325 C329 1.684 . S
C326 C307 1.723 . S
C326 C325 1.396 . S
C326 C327 1.394 1_565 S
C327 C323 1.397 . S
C327 C326 1.394 1_545 S
C327 C337 1.723 . S
C328 C325 1.453 . S
C328 H352 0.982 . S
C328 H353 0.979 . S
C328 H354 0.977 . S
C329 C325 1.684 . S
C329 H355 0.979 . S
C329 H356 0.980 . S
C329 H357 0.983 . S
C330 H306 0.948 . S
C330 C331 1.391 . S
C330 C335 1.391 . S
C331 C330 1.391 . S
C331 C332 1.391 . S
C332 H309 0.947 . S
C332 C331 1.391 . S
C332 C333 1.392 . S
C333 H310 0.948 . S
C333 C332 1.392 . S
C333 C334 1.419 . S
C334 C333 1.419 . S
C334 C335 1.391 . S
C334 C338 1.397 . S
C335 C330 1.391 . S
C335 C334 1.391 . S
C335 C336 1.399 . S
C336 C335 1.399 . S
C336 C337 1.396 . S
C336 C339 1.453 . S
C336 C340 1.684 . S
C337 C327 1.723 . S
C337 C336 1.396 . S
C337 C338 1.394 . S
C338 C308 1.723 . S
C338 C334 1.397 . S
C338 C337 1.394 . S
C339 H311 0.982 . S
C339 H315 0.979 . S
C339 H316 0.977 . S
C339 C336 1.453 . S
C340 H312 0.979 . S
C340 H313 0.980 . S
C340 H314 0.983 . S
C340 C336 1.684 . S
H341 C359 0.948 . S
H342 C300 0.948 . S
H343 C318 0.979 . S
H344 C318 0.980 1_545 S
H345 C318 0.983 . S
H346 C317 0.982 . S
H347 C317 0.979 . S
H348 C317 0.977 . S
H349 C319 0.948 . S
H350 C321 0.947 . S
H351 C322 0.948 . S
H352 C328 0.982 . S
H353 C328 0.979 . S
H354 C328 0.977 . S
H355 C329 0.979 . S
H356 C329 0.980 . S
H357 C329 0.983 . S
H358 C302 0.947 . S
C359 C302 1.392 . S
C359 C303 1.419 . S
C359 H341 0.948 . S
C360 C361 1.391 . S
C360 C364 1.391 . S
C360 H402 0.948 . S
C361 C360 1.391 . S
C361 C362 1.391 . S
C362 C361 1.391 . S
C362 H418 0.947 . S
C362 C419 1.392 . S
C363 C364 1.391 . S
C363 C367 1.397 . S
C363 C419 1.419 . S
C364 C360 1.391 . S
C364 C363 1.391 . S
C364 C365 1.399 . S
C365 C364 1.399 . S
C365 C368 1.396 . S
C365 C377 1.453 . S
C365 C378 1.684 . S
H366 C390 0.948 . S
C367 C363 1.397 . S
C367 C368 1.394 . S
C367 C386 1.723 . S
C368 C365 1.396 . S
C368 C367 1.394 . S
C368 C398 1.723 . S
H369 C392 0.947 . S
H370 C393 0.948 . S
H371 C399 0.982 . S
H372 C400 0.979 . S
H373 C400 0.980 . S
H374 C400 0.983 . S
H375 C399 0.979 . S
H376 C399 0.977 . S
C377 C365 1.453 . S
C377 H406 0.982 . S
C377 H407 0.979 . S
C377 H408 0.977 . S
C378 C365 1.684 . S
C378 H403 0.979 . S
C378 H404 0.980 . S
C378 H405 0.983 . S
C379 C380 1.391 . S
C379 C384 1.391 . S
C379 H409 0.948 . S
C380 C379 1.391 . S
C380 C381 1.391 . S
C381 C380 1.391 . S
C381 C382 1.392 . S
C381 H410 0.947 . S
C382 C381 1.392 . S
C382 C383 1.419 . S
C382 H411 0.948 . S
C383 C382 1.419 . S
C383 C384 1.391 . S
C383 C387 1.397 . S
C384 C379 1.391 . S
C384 C383 1.391 . S
C384 C385 1.399 . S
C385 C384 1.399 . S
C385 C386 1.396 . S
C385 C388 1.453 . S
C385 C389 1.684 . S
C386 C367 1.723 . S
C386 C385 1.396 . S
C386 C387 1.394 . S
C387 C383 1.397 . S
C387 C386 1.394 . S
C387 C397 1.723 . S
C388 C385 1.453 . S
C388 H412 0.982 . S
C388 H413 0.979 . S
C388 H414 0.977 . S
C389 C385 1.684 . S
C389 H415 0.979 . S
C389 H416 0.980 . S
C389 H417 0.983 . S
C390 H366 0.948 . S
C390 C391 1.391 . S
C390 C395 1.391 . S
C391 C390 1.391 . S
C391 C392 1.391 . S
C392 H369 0.947 . S
C392 C391 1.391 . S
C392 C393 1.392 . S
C393 H370 0.948 . S
C393 C392 1.392 . S
C393 C394 1.419 . S
C394 C393 1.419 . S
C394 C395 1.391 . S
C394 C398 1.397 . S
C395 C390 1.391 . S
C395 C394 1.391 . S
C395 C396 1.399 . S
C396 C395 1.399 . S
C396 C397 1.396 . S
C396 C399 1.453 . S
C396 C400 1.684 . S
C397 C387 1.723 . S
C397 C396 1.396 . S
C397 C398 1.394 . S
C398 C368 1.723 . S
C398 C394 1.397 . S
C398 C397 1.394 . S
C399 H371 0.982 . S
C399 H375 0.979 . S
C399 H376 0.977 . S
C399 C396 1.453 . S
C400 H372 0.979 . S
C400 H373 0.980 . S
C400 H374 0.983 . S
C400 C396 1.684 . S
H401 C419 0.948 . S
H402 C360 0.948 . S
H403 C378 0.979 . S
H404 C378 0.980 . S
H405 C378 0.983 . S
H406 C377 0.982 . S
H407 C377 0.979 . S
H408 C377 0.977 . S
H409 C379 0.948 . S
H410 C381 0.947 . S
H411 C382 0.948 . S
H412 C388 0.982 . S
H413 C388 0.979 . S
H414 C388 0.977 . S
H415 C389 0.979 . S
H416 C389 0.980 . S
H417 C389 0.983 . S
H418 C362 0.947 . S
C419 C362 1.392 . S
C419 C363 1.419 . S
C419 H401 0.948 . S
H420 C426 0.930 . S
H421 C429 0.930 . S
H422 C430 0.930 . S
H423 C431 0.930 . S
H424 C434 0.930 . S
H425 C435 0.930 . S
C426 H420 0.930 . S
C426 C427 1.355 . S
C426 C428 1.415 . S
C427 C426 1.355 . S
C427 C429 1.419 . S
C428 C426 1.415 . S
C428 C433 1.425 . S
C428 C435 1.409 . S
C429 H421 0.930 . S
C429 C427 1.419 . S
C429 C430 1.362 . S
C430 H422 0.930 . S
C430 C429 1.362 . S
C430 C433 1.409 . S
C431 H423 0.930 . S
C431 C432 1.355 . S
C431 C433 1.415 . S
C432 C431 1.355 . S
C432 C434 1.419 . S
C433 C428 1.425 . S
C433 C430 1.409 . S
C433 C431 1.415 . S
C434 H424 0.930 . S
C434 C432 1.419 . S
C434 C435 1.362 . S
C435 H425 0.930 . S
C435 C428 1.409 . S
C435 C434 1.362 . S
H436 C442 0.930 . S
H437 C445 0.930 . S
H438 C446 0.930 . S
H439 C447 0.930 . S
H440 C450 0.930 . S
H441 C451 0.930 . S
C442 H436 0.930 . S
C442 C443 1.355 . S
C442 C444 1.415 . S
C443 C442 1.355 . S
C443 C445 1.419 . S
C444 C442 1.415 . S
C444 C449 1.425 . S
C444 C451 1.409 . S
C445 H437 0.930 . S
C445 C443 1.419 . S
C445 C446 1.362 . S
C446 H438 0.930 . S
C446 C445 1.362 . S
C446 C449 1.409 . S
C447 H439 0.930 . S
C447 C448 1.355 . S
C447 C449 1.415 . S
C448 C447 1.355 . S
C448 C450 1.419 . S
C449 C444 1.425 . S
C449 C446 1.409 . S
C449 C447 1.415 . S
C450 H440 0.930 . S
C450 C448 1.419 . S
C450 C451 1.362 . S
C451 H441 0.930 . S
C451 C444 1.409 . S
C451 C450 1.362 . S
H452 C458 0.930 . S
H453 C461 0.930 . S
H454 C462 0.930 . S
H455 C463 0.930 . S
H456 C466 0.930 . S
H457 C467 0.930 . S
C458 H452 0.930 . S
C458 C459 1.355 . S
C458 C460 1.415 . S
C459 C458 1.355 . S
C459 C461 1.419 . S
C460 C458 1.415 . S
C460 C465 1.425 . S
C460 C467 1.409 . S
C461 H453 0.930 . S
C461 C459 1.419 . S
C461 C462 1.362 . S
C462 H454 0.930 . S
C462 C461 1.362 . S
C462 C465 1.409 . S
C463 H455 0.930 . S
C463 C464 1.355 . S
C463 C465 1.415 . S
C464 C463 1.355 . S
C464 C466 1.419 . S
C465 C460 1.425 . S
C465 C462 1.409 . S
C465 C463 1.415 . S
C466 H456 0.930 . S
C466 C464 1.419 . S
C466 C467 1.362 . S
C467 H457 0.930 . S
C467 C460 1.409 . S
C467 C466 1.362 . S
H468 C474 0.930 . S
H469 C477 0.930 . S
H470 C478 0.930 . S
H471 C479 0.930 . S
H472 C482 0.930 . S
H473 C483 0.930 . S
C474 H468 0.930 . S
C474 C475 1.355 . S
C474 C476 1.415 . S
C475 C474 1.355 . S
C475 C477 1.419 . S
C476 C474 1.415 . S
C476 C481 1.425 . S
C476 C483 1.409 . S
C477 H469 0.930 . S
C477 C475 1.419 . S
C477 C478 1.362 . S
C478 H470 0.930 . S
C478 C477 1.362 . S
C478 C481 1.409 . S
C479 H471 0.930 . S
C479 C480 1.355 . S
C479 C481 1.415 . S
C480 C479 1.355 . S
C480 C482 1.419 . S
C481 C476 1.425 . S
C481 C478 1.409 . S
C481 C479 1.415 . S
C482 H472 0.930 . S
C482 C480 1.419 . S
C482 C483 1.362 . S
C483 H473 0.930 . S
C483 C476 1.409 . S
C483 C482 1.362 . S
H484 C490 0.930 . S
H485 C493 0.930 . S
H486 C494 0.930 . S
H487 C495 0.930 . S
H488 C498 0.930 . S
H489 C499 0.930 . S
C490 H484 0.930 . S
C490 C491 1.355 . S
C490 C492 1.415 . S
C491 C490 1.355 . S
C491 C493 1.419 . S
C492 C490 1.415 . S
C492 C497 1.425 . S
C492 C499 1.409 . S
C493 H485 0.930 . S
C493 C491 1.419 . S
C493 C494 1.362 . S
C494 H486 0.930 . S
C494 C493 1.362 . S
C494 C497 1.409 . S
C495 H487 0.930 . S
C495 C496 1.355 . S
C495 C497 1.415 . S
C496 C495 1.355 . S
C496 C498 1.419 . S
C497 C492 1.425 . S
C497 C494 1.409 . S
C497 C495 1.415 . S
C498 H488 0.930 . S
C498 C496 1.419 . S
C498 C499 1.362 . S
C499 H489 0.930 . S
C499 C492 1.409 . S
C499 C498 1.362 . S
H500 C506 0.930 . S
H501 C509 0.930 . S
H502 C510 0.930 . S
H503 C511 0.930 . S
H504 C514 0.930 . S
H505 C515 0.930 . S
C506 H500 0.930 . S
C506 C507 1.355 . S
C506 C508 1.415 . S
C507 C506 1.355 . S
C507 C509 1.419 . S
C508 C506 1.415 . S
C508 C513 1.425 . S
C508 C515 1.409 . S
C509 H501 0.930 . S
C509 C507 1.419 . S
C509 C510 1.362 . S
C510 H502 0.930 . S
C510 C509 1.362 . S
C510 C513 1.409 . S
C511 H503 0.930 . S
C511 C512 1.355 . S
C511 C513 1.415 . S
C512 C511 1.355 . S
C512 C514 1.419 . S
C513 C508 1.425 . S
C513 C510 1.409 . S
C513 C511 1.415 . S
C514 H504 0.930 . S
C514 C512 1.419 . S
C514 C515 1.362 . S
C515 H505 0.930 . S
C515 C508 1.409 . S
C515 C514 1.362 . S
H516 C522 0.930 . S
H517 C525 0.930 . S
H518 C526 0.930 . S
H519 C527 0.930 . S
H520 C530 0.930 . S
H521 C531 0.930 . S
C522 H516 0.930 . S
C522 C523 1.355 . S
C522 C524 1.415 . S
C523 C522 1.355 . S
C523 C525 1.419 . S
C524 C522 1.415 . S
C524 C529 1.425 . S
C524 C531 1.409 . S
C525 H517 0.930 . S
C525 C523 1.419 . S
C525 C526 1.362 . S
C526 H518 0.930 . S
C526 C525 1.362 . S
C526 C529 1.409 . S
C527 H519 0.930 . S
C527 C528 1.355 . S
C527 C529 1.415 . S
C528 C527 1.355 . S
C528 C530 1.419 . S
C529 C524 1.425 . S
C529 C526 1.409 . S
C529 C527 1.415 . S
C530 H520 0.930 . S
C530 C528 1.419 . S
C530 C531 1.362 . S
C531 H521 0.930 . S
C531 C524 1.409 . S
C531 C530 1.362 . S
H532 C538 0.930 . S
H533 C541 0.930 . S
H534 C542 0.930 . S
H535 C543 0.930 . S
H536 C546 0.930 . S
H537 C547 0.930 . S
C538 H532 0.930 . S
C538 C539 1.355 . S
C538 C540 1.415 . S
C539 C538 1.355 . S
C539 C541 1.419 . S
C540 C538 1.415 . S
C540 C545 1.425 . S
C540 C547 1.409 . S
C541 H533 0.930 . S
C541 C539 1.419 . S
C541 C542 1.362 . S
C542 H534 0.930 . S
C542 C541 1.362 . S
C542 C545 1.409 . S
C543 H535 0.930 . S
C543 C544 1.355 . S
C543 C545 1.415 . S
C544 C543 1.355 . S
C544 C546 1.419 . S
C545 C540 1.425 . S
C545 C542 1.409 . S
C545 C543 1.415 . S
C546 H536 0.930 . S
C546 C544 1.419 . S
C546 C547 1.362 . S
C547 H537 0.930 . S
C547 C540 1.409 . S
C547 C546 1.362 . S
H548 C554 0.930 . S
H549 C557 0.930 . S
H550 C558 0.930 . S
H551 C559 0.930 . S
H552 C562 0.930 . S
H553 C563 0.930 . S
C554 H548 0.930 . S
C554 C555 1.355 . S
C554 C556 1.415 . S
C555 C554 1.355 . S
C555 C557 1.419 . S
C556 C554 1.415 . S
C556 C561 1.425 . S
C556 C563 1.409 . S
C557 H549 0.930 . S
C557 C555 1.419 . S
C557 C558 1.362 . S
C558 H550 0.930 . S
C558 C557 1.362 . S
C558 C561 1.409 . S
C559 H551 0.930 . S
C559 C560 1.355 . S
C559 C561 1.415 . S
C560 C559 1.355 . S
C560 C562 1.419 . S
C561 C556 1.425 . S
C561 C558 1.409 . S
C561 C559 1.415 . S
C562 H552 0.930 . S
C562 C560 1.419 . S
C562 C563 1.362 . S
C563 H553 0.930 . S
C563 C556 1.409 . S
C563 C562 1.362 . S
H564 C570 0.930 . S
H565 C573 0.930 . S
H566 C574 0.930 . S
H567 C575 0.930 . S
H568 C578 0.930 . S
H569 C579 0.930 . S
C570 H564 0.930 . S
C570 C571 1.355 . S
C570 C572 1.415 . S
C571 C570 1.355 . S
C571 C573 1.419 . S
C572 C570 1.415 . S
C572 C577 1.425 . S
C572 C579 1.409 . S
C573 H565 0.930 . S
C573 C571 1.419 . S
C573 C574 1.362 . S
C574 H566 0.930 . S
C574 C573 1.362 . S
C574 C577 1.409 . S
C575 H567 0.930 . S
C575 C576 1.355 . S
C575 C577 1.415 . S
C576 C575 1.355 . S
C576 C578 1.419 . S
C577 C572 1.425 . S
C577 C574 1.409 . S
C577 C575 1.415 . S
C578 H568 0.930 . S
C578 C576 1.419 . S
C578 C579 1.362 . S
C579 H569 0.930 . S
C579 C572 1.409 . S
C579 C578 1.362 . S
H580 C586 0.930 . S
H581 C589 0.930 . S
H582 C590 0.930 . S
H583 C591 0.930 . S
H584 C594 0.930 . S
H585 C595 0.930 . S
C586 H580 0.930 . S
C586 C587 1.355 . S
C586 C588 1.415 . S
C587 C586 1.355 . S
C587 C589 1.419 . S
C588 C586 1.415 . S
C588 C593 1.425 . S
C588 C595 1.409 . S
C589 H581 0.930 . S
C589 C587 1.419 . S
C589 C590 1.362 . S
C590 H582 0.930 . S
C590 C589 1.362 . S
C590 C593 1.409 . S
C591 H583 0.930 . S
C591 C592 1.355 . S
C591 C593 1.415 . S
C592 C591 1.355 . S
C592 C594 1.419 . S
C593 C588 1.425 . S
C593 C590 1.409 . S
C593 C591 1.415 . S
C594 H584 0.930 . S
C594 C592 1.419 . S
C594 C595 1.362 . S
C595 H585 0.930 . S
C595 C588 1.409 . S
C595 C594 1.362 . S
H596 C602 0.930 . S
H597 C605 0.930 . S
H598 C606 0.930 . S
H599 C607 0.930 . S
H600 C610 0.930 . S
H601 C611 0.930 . S
C602 H596 0.930 . S
C602 C603 1.355 . S
C602 C604 1.415 . S
C603 C602 1.355 . S
C603 C605 1.419 . S
C604 C602 1.415 . S
C604 C609 1.425 . S
C604 C611 1.409 . S
C605 H597 0.930 . S
C605 C603 1.419 . S
C605 C606 1.362 . S
C606 H598 0.930 . S
C606 C605 1.362 . S
C606 C609 1.409 . S
C607 H599 0.930 . S
C607 C608 1.355 . S
C607 C609 1.415 . S
C608 C607 1.355 . S
C608 C610 1.419 . S
C609 C604 1.425 . S
C609 C606 1.409 . S
C609 C607 1.415 . S
C610 H600 0.930 . S
C610 C608 1.419 . S
C610 C611 1.362 . S
C611 H601 0.930 . S
C611 C604 1.409 . S
C611 C610 1.362 . S
H612 C618 0.930 1_655 S
H613 C621 0.930 . S
H614 C622 0.930 . S
H615 C623 0.930 . S
H616 C626 0.930 1_656 S
H617 C627 0.930 1_655 S
C618 H612 0.930 1_455 S
C618 C619 1.355 . S
C618 C620 1.415 . S
C619 C618 1.355 . S
C619 C621 1.419 . S
C620 C618 1.415 . S
C620 C625 1.425 . S
C620 C627 1.409 . S
C621 H613 0.930 . S
C621 C619 1.419 . S
C621 C622 1.362 . S
C622 H614 0.930 . S
C622 C621 1.362 . S
C622 C625 1.409 . S
C623 H615 0.930 . S
C623 C624 1.355 . S
C623 C625 1.415 . S
C624 C623 1.355 . S
C624 C626 1.419 . S
C625 C620 1.425 . S
C625 C622 1.409 . S
C625 C623 1.415 . S
C626 H616 0.930 1_454 S
C626 C624 1.419 . S
C626 C627 1.362 . S
C627 H617 0.930 1_455 S
C627 C620 1.409 . S
C627 C626 1.362 . S
H628 C634 0.932 . S
H629 C637 0.930 . S
H630 C638 0.930 . S
H631 C639 0.930 . S
H632 C642 0.930 . S
H633 C643 0.930 1_565 S
C634 H628 0.932 . S
C634 C635 1.355 . S
C634 C636 1.415 . S
C635 C634 1.355 . S
C635 C637 1.419 . S
C636 C634 1.415 . S
C636 C641 1.425 . S
C636 C643 1.409 . S
C637 H629 0.930 . S
C637 C635 1.419 . S
C637 C638 1.362 . S
C638 H630 0.930 . S
C638 C637 1.362 . S
C638 C641 1.409 . S
C639 H631 0.930 . S
C639 C640 1.355 . S
C639 C641 1.415 . S
C640 C639 1.355 . S
C640 C642 1.419 . S
C641 C636 1.425 . S
C641 C638 1.409 . S
C641 C639 1.415 . S
C642 H632 0.930 . S
C642 C640 1.419 . S
C642 C643 1.362 . S
C643 H633 0.930 1_545 S
C643 C636 1.409 . S
C643 C642 1.362 . S
H644 C650 0.930 . S
H645 C653 0.930 . S
H646 C654 0.930 . S
H647 C655 0.930 . S
H648 C658 0.930 . S
H649 C659 0.930 . S
C650 H644 0.930 . S
C650 C651 1.355 . S
C650 C652 1.415 . S
C651 C650 1.355 . S
C651 C653 1.419 . S
C652 C650 1.415 . S
C652 C657 1.425 . S
C652 C659 1.409 . S
C653 H645 0.930 . S
C653 C651 1.419 . S
C653 C654 1.362 . S
C654 H646 0.930 . S
C654 C653 1.362 . S
C654 C657 1.409 . S
C655 H647 0.930 . S
C655 C656 1.355 . S
C655 C657 1.415 . S
C656 C655 1.355 . S
C656 C658 1.419 . S
C657 C652 1.425 . S
C657 C654 1.409 . S
C657 C655 1.415 . S
C658 H648 0.930 . S
C658 C656 1.419 . S
C658 C659 1.362 . S
C659 H649 0.930 . S
C659 C652 1.409 . S
C659 C658 1.362 . S
H660 C666 0.930 . S
H661 C669 0.930 . S
H662 C670 0.930 . S
H663 C671 0.930 . S
H664 C674 0.930 . S
H665 C675 0.930 . S
C666 H660 0.930 . S
C666 C667 1.355 . S
C666 C668 1.415 . S
C667 C666 1.355 . S
C667 C669 1.419 1_545 S
C668 C666 1.415 . S
C668 C673 1.425 1_545 S
C668 C675 1.409 . S
C669 H661 0.930 . S
C669 C667 1.419 1_565 S
C669 C670 1.362 . S
C670 H662 0.930 . S
C670 C669 1.362 . S
C670 C673 1.409 . S
C671 H663 0.930 . S
C671 C672 1.355 1_565 S
C671 C673 1.415 . S
C672 C671 1.355 1_545 S
C672 C674 1.419 . S
C673 C668 1.425 1_565 S
C673 C670 1.409 . S
C673 C671 1.415 . S
C674 H664 0.930 . S
C674 C672 1.419 . S
C674 C675 1.362 . S
C675 H665 0.930 . S
C675 C668 1.409 . S
C675 C674 1.362 . S
H676 C682 0.930 . S
H677 C685 0.930 . S
H678 C686 0.930 . S
H679 C687 0.930 . S
H680 C690 0.939 . S
H681 C691 0.930 . S
C682 H676 0.930 . S
C682 C683 1.355 . S
C682 C684 1.415 . S
C683 C682 1.355 . S
C683 C685 1.419 . S
C684 C682 1.415 . S
C684 C689 1.425 . S
C684 C691 1.409 . S
C685 H677 0.930 . S
C685 C683 1.419 . S
C685 C686 1.362 . S
C686 H678 0.930 . S
C686 C685 1.362 . S
C686 C689 1.409 . S
C687 H679 0.930 . S
C687 C688 1.355 . S
C687 C689 1.415 . S
C688 C687 1.355 . S
C688 C690 1.419 . S
C689 C684 1.425 . S
C689 C686 1.409 . S
C689 C687 1.415 . S
C690 H680 0.939 . S
C690 C688 1.419 . S
C690 C691 1.362 . S
C691 H681 0.930 . S
C691 C684 1.409 . S
C691 C690 1.362 . S
H692 C698 0.930 . S
H693 C701 0.930 . S
H694 C702 0.930 . S
H695 C703 0.930 . S
H696 C706 0.930 . S
H697 C707 0.930 . S
C698 H692 0.930 . S
C698 C699 1.355 1_655 S
C698 C700 1.415 . S
C699 C698 1.355 1_455 S
C699 C701 1.419 . S
C700 C698 1.415 . S
C700 C705 1.425 1_655 S
C700 C707 1.409 . S
C701 H693 0.930 . S
C701 C699 1.419 . S
C701 C702 1.362 . S
C702 H694 0.930 . S
C702 C701 1.362 . S
C702 C705 1.409 . S
C703 H695 0.930 . S
C703 C704 1.355 1_455 S
C703 C705 1.415 . S
C704 C703 1.355 1_655 S
C704 C706 1.419 . S
C705 C700 1.425 1_455 S
C705 C702 1.409 . S
C705 C703 1.415 . S
C706 H696 0.930 . S
C706 C704 1.419 . S
C706 C707 1.362 . S
C707 H697 0.930 . S
C707 C700 1.409 . S
C707 C706 1.362 . S
C427 C8 2.004 . S
C432 C391 2.143 . S
C443 C26 1.345 . S
C448 C241 1.302 . S
C459 C48 1.564 . S
C464 C301 1.519 . S
C475 C19 1.901 . S
C480 C361 1.761 . S
C496 C271 1.596 . S
C491 C36 1.512 . S
C512 C331 1.854 . S
C507 C59 1.719 . S
C523 C28 1.514 . S
C528 C121 1.452 . S
C539 C46 1.223 . S
C544 C211 1.302 . S
C555 C16 1.643 . S
C560 C91 1.664 . S
C576 C151 1.803 . S
C571 C39 1.702 . S
C592 C181 0.947 . S
C587 C56 1.053 . S
C603 C6 1.410 . S
C608 C61 1.369 . S
C624 C200 1.406 1_554 S
C619 C9 1.420 . S
C635 C21 1.501 . S
C640 C80 1.455 . S
C651 C49 1.492 . S
C656 C140 1.420 . S
C672 C320 1.399 . S
C667 C29 1.479 . S
C688 C380 1.579 1_556 S
C683 C41 1.571 . S
C699 C1 1.484 . S
C704 C260 1.507 1_655 S
