# Generated by pormake.
# Topology anh, (6,3)-cn, num edge types: 1
# Building blocks:
#     Node 0, Type 0, BuildingBlock: BETDIP_clean_sbu_0, # of connection points: 6
#     Node 1, Type 0, BuildingBlock: BETDIP_clean_sbu_0, # of connection points: 6
#     Node 2, Type 0, BuildingBlock: BETDIP_clean_sbu_0, # of connection points: 6
#     Node 3, Type 1, BuildingBlock: BELTOD_clean_linker_0, # of connection points: 3
#     Node 4, Type 1, BuildingBlock: BELTOD_clean_linker_0, # of connection points: 3
#     Node 5, Type 1, BuildingBlock: BELTOD_clean_linker_0, # of connection points: 3
#     Node 6, Type 1, BuildingBlock: BELTOD_clean_linker_0, # of connection points: 3
#     Node 7, Type 1, BuildingBlock: BELTOD_clean_linker_0, # of connection points: 3
#     Node 8, Type 1, BuildingBlock: BELTOD_clean_linker_0, # of connection points: 3
#     Edge 9, Type (0, 1), BuildingBlock: AJUNOK_clean_linker_0, # of connection points: 2
#     Edge 10, Type (0, 1), BuildingBlock: AJUNOK_clean_linker_0, # of connection points: 2
#     Edge 11, Type (0, 1), BuildingBlock: AJUNOK_clean_linker_0, # of connection points: 2
#     Edge 12, Type (0, 1), BuildingBlock: AJUNOK_clean_linker_0, # of connection points: 2
#     Edge 13, Type (0, 1), BuildingBlock: AJUNOK_clean_linker_0, # of connection points: 2
#     Edge 14, Type (0, 1), BuildingBlock: AJUNOK_clean_linker_0, # of connection points: 2
#     Edge 15, Type (0, 1), BuildingBlock: AJUNOK_clean_linker_0, # of connection points: 2
#     Edge 16, Type (0, 1), BuildingBlock: AJUNOK_clean_linker_0, # of connection points: 2
#     Edge 17, Type (0, 1), BuildingBlock: AJUNOK_clean_linker_0, # of connection points: 2
#     Edge 18, Type (0, 1), BuildingBlock: AJUNOK_clean_linker_0, # of connection points: 2
#     Edge 19, Type (0, 1), BuildingBlock: AJUNOK_clean_linker_0, # of connection points: 2
#     Edge 20, Type (0, 1), BuildingBlock: AJUNOK_clean_linker_0, # of connection points: 2
#     Edge 21, Type (0, 1), BuildingBlock: AJUNOK_clean_linker_0, # of connection points: 2
#     Edge 22, Type (0, 1), BuildingBlock: AJUNOK_clean_linker_0, # of connection points: 2
#     Edge 23, Type (0, 1), BuildingBlock: AJUNOK_clean_linker_0, # of connection points: 2
#     Edge 24, Type (0, 1), BuildingBlock: AJUNOK_clean_linker_0, # of connection points: 2
#     Edge 25, Type (0, 1), BuildingBlock: AJUNOK_clean_linker_0, # of connection points: 2
#     Edge 26, Type (0, 1), BuildingBlock: AJUNOK_clean_linker_0, # of connection points: 2
# Relax obj value: 0.329
# Max RMSD: 0.189
# Mean RMSD: 0.158
data_MOF--net-anh--node1-BETDIP_clean_sbu_0--node2-BELTOD_clean_linker_0--edge1-AJUNOK_clean_linker_0
_symmetry_space_group_name_H-M    P1
_symmetry_Int_Tables_number       1
_symmetry_cell_setting            triclinic
loop_
_symmetry_equiv_pos_as_xyz
'x, y, z'
_cell_length_a     27.836685
_cell_length_b     27.612079
_cell_length_c     46.612915
_cell_angle_alpha  90.484846
_cell_angle_beta   89.433921
_cell_angle_gamma 120.04789
loop_
_atom_site_label
_atom_site_type_symbol
_atom_site_fract_x
_atom_site_fract_y
_atom_site_fract_z
_atom_type_partial_charge
Tb0 Tb 0.11775 0.64192 0.17976 0.0
Tb1 Tb 1.06548 0.52813 0.16275 0.0
C2 C 0.18258 0.73357 0.20232 0.0
C3 C 0.2416 0.76883 0.19423 0.0
C4 C 0.28256 0.76404 0.20914 0.0
C5 C 0.33671 0.78921 0.19852 0.0
C6 C 0.35102 0.81954 0.17274 0.0
C7 C 0.31062 0.82579 0.15825 0.0
C8 C 0.25646 0.80078 0.16889 0.0
C9 C 0.10143 0.62852 0.1248 0.0
C10 C 0.19793 0.58588 0.16366 0.0
C11 C 1.00881 0.43782 0.13599 0.0
C12 C 0.95279 0.40969 0.12391 0.0
C13 C 0.92703 0.43999 0.11547 0.0
C14 C 0.86968 0.41231 0.11103 0.0
C15 C 0.83798 0.35416 0.11467 0.0
C16 C 0.86545 0.32373 0.11935 0.0
C17 C 0.92233 0.35136 0.12417 0.0
C18 C 1.08261 0.54425 0.21937 0.0
C19 C 0.98722 0.58738 0.16849 0.0
O20 O 0.16903 0.68578 0.21457 0.0
O21 O 0.14716 0.72789 0.18258 0.0
O22 O 0.11752 0.60266 0.14047 0.0
O23 O 0.09877 0.66695 0.13942 0.0
O24 O 0.19366 0.62927 0.17426 0.0
O25 O 0.15085 0.54048 0.15596 0.0
O26 O 1.04466 0.48461 0.1237 0.0
O27 O 1.01122 0.44133 0.16402 0.0
O28 O 1.06446 0.56795 0.20312 0.0
O29 O 0.09067 0.5095 0.204 0.0
O30 O 0.99347 0.54517 0.15846 0.0
O31 O 1.0309 0.62906 0.18191 0.0
H32 H 0.2725 0.73976 0.22867 0.0
H33 H 0.3677 0.78584 0.21083 0.0
H34 H 0.32097 0.85005 0.1387 0.0
H35 H 0.22597 0.80535 0.15677 0.0
H36 H 0.95035 0.48516 0.11415 0.0
H37 H 0.84961 0.43662 0.10723 0.0
H38 H 0.8423 0.27885 0.12249 0.0
H39 H 0.94167 0.32734 0.13027 0.0
Tb40 Tb 0.62071 1.03472 0.51431 0.0
Tb41 Tb 0.55847 0.0867 0.49784 0.0
C42 C 0.65572 0.9824 0.54299 0.0
C43 C 0.65654 0.92986 0.54188 0.0
C44 C 0.66209 0.90735 0.56757 0.0
C45 C 0.67674 0.86592 0.56701 0.0
C46 C 0.68654 0.84706 0.54073 0.0
C47 C 0.67665 0.86639 0.51498 0.0
C48 C 0.66135 0.90744 0.51553 0.0
C49 C 0.62219 1.04719 0.45936 0.0
C50 C 0.48609 0.95242 0.49767 0.0
C51 C 0.52536 0.14756 0.47602 0.0
C52 C 0.55053 0.20897 0.47788 0.0
C53 C 0.59285 0.2437 0.45856 0.0
C54 C 0.62941 0.29953 0.46565 0.0
C55 C 0.62382 0.32119 0.49193 0.0
C56 C 0.57711 0.28881 0.50925 0.0
C57 C 0.54043 0.23317 0.50216 0.0
C58 C 0.56789 0.0793 0.55499 0.0
C59 C 0.6948 0.16645 0.50007 0.0
O60 O 0.60834 0.97997 0.54851 0.0
O61 O 0.6841 1.01806 0.52278 0.0
O62 O 0.58057 1.03339 0.4754 0.0
O63 O 0.66169 1.04653 0.47335 0.0
O64 O 0.53308 0.95709 0.50867 0.0
O65 O 0.48809 0.99973 0.48978 0.0
O66 O 0.55432 0.12965 0.4619 0.0
O67 O 0.50568 0.12033 0.50005 0.0
O68 O 0.60481 0.09263 0.53601 0.0
O69 O 0.52362 0.07157 0.54213 0.0
O70 O 0.64634 0.15903 0.49048 0.0
O71 O 0.69317 0.12384 0.51443 0.0
H72 H 0.6587 0.92438 0.58803 0.0
H73 H 0.68426 0.85152 0.58713 0.0
H74 H 0.68344 0.85181 0.49451 0.0
H75 H 0.65691 0.9242 0.49544 0.0
H76 H 0.60078 0.22664 0.43926 0.0
H77 H 0.66436 0.32469 0.45172 0.0
H78 H 0.57184 0.3047 0.52966 0.0
H79 H 0.50741 0.20791 0.51716 0.0
Tb80 Tb 0.55326 0.55473 0.8394 0.0
Tb81 Tb 0.67139 0.62089 0.83692 0.0
C82 C 0.45453 0.51904 0.85389 0.0
C83 C 0.41856 0.54347 0.8507 0.0
C84 C 0.40057 0.55933 0.87534 0.0
C85 C 0.3719 0.58836 0.87291 0.0
C86 C 0.36017 0.60146 0.84579 0.0
C87 C 0.37653 0.58414 0.82105 0.0
C88 C 0.40595 0.5557 0.82346 0.0
C89 C 0.59435 0.57199 0.78713 0.0
C90 C 0.61061 0.69367 0.83235 0.0
C91 C 0.77139 0.65992 0.82278 0.0
C92 C 0.79994 0.63444 0.8078 0.0
C93 C 0.77233 0.59235 0.78704 0.0
C94 C 0.79533 0.56029 0.77735 0.0
C95 C 0.84572 0.56952 0.78852 0.0
C96 C 0.87542 0.61489 0.80737 0.0
C97 C 0.85265 0.64708 0.81694 0.0
C98 C 0.63232 0.6086 0.89056 0.0
C99 C 0.61146 0.48224 0.83175 0.0
O100 O 0.49628 0.54606 0.87144 0.0
O101 O 0.4689 0.5035 0.83027 0.0
O102 O 0.60905 0.60602 0.80754 0.0
O103 O 0.55262 0.52469 0.79529 0.0
O104 O 0.56457 0.64308 0.83558 0.0
O105 O 0.65936 0.69518 0.832 0.0
O106 O 0.73585 0.66634 0.80761 0.0
O107 O 0.75173 0.63945 0.84818 0.0
O108 O 0.61536 0.57084 0.8712 0.0
O109 O 0.67295 0.654 0.87987 0.0
O110 O 0.65488 0.53275 0.82514 0.0
O111 O 0.5665 0.48131 0.8425 0.0
H112 H 0.40984 0.55038 0.89652 0.0
H113 H 0.35863 0.60042 0.89229 0.0
H114 H 0.36773 0.59379 0.79994 0.0
H115 H 0.41972 0.54443 0.80402 0.0
H116 H 0.73157 0.58197 0.77965 0.0
H117 H 0.77238 0.52617 0.76257 0.0
H118 H 0.91415 0.62254 0.81667 0.0
H119 H 0.87451 0.6793 0.83295 0.0
P120 P 0.71391 0.08076 0.24481 0.0
H121 H 0.71313 1.01811 0.19353 0.0
H122 H 0.6361 0.95591 0.16156 0.0
H123 H 0.51965 0.95935 0.22221 0.0
H124 H 0.595 1.0213 0.25315 0.0
H125 H 0.78829 0.14731 0.19919 0.0
H126 H 0.78207 0.20821 0.16381 0.0
H127 H 0.63902 0.19557 0.20777 0.0
H128 H 0.64507 0.1335 0.2434 0.0
H129 H 0.65847 0.9918 0.28656 0.0
H130 H 0.72886 0.17096 0.28425 0.0
O131 O 0.7729 0.07899 0.24308 0.0
H132 H 0.62775 0.99029 0.33601 0.0
H133 H 0.69891 0.16961 0.33414 0.0
C134 C 0.65958 1.02254 0.22622 0.0
C135 C 0.67076 1.00372 0.20026 0.0
C136 C 0.62719 0.96907 0.1819 0.0
C137 C 0.57265 0.95414 0.18942 0.0
C138 C 0.56171 0.97115 0.21591 0.0
C139 C 0.60476 1.00557 0.23395 0.0
C140 C 0.71838 0.13749 0.2244 0.0
C141 C 0.7564 0.15858 0.20172 0.0
C142 C 0.75196 0.19226 0.18117 0.0
C143 C 0.70905 0.20503 0.18277 0.0
C144 C 0.6718 0.18541 0.20596 0.0
C145 C 0.67604 0.15108 0.22651 0.0
C146 C 0.69447 0.08126 0.28158 0.0
C147 C 0.66679 1.03072 0.29663 0.0
C148 C 0.64875 1.02977 0.32469 0.0
C149 C 0.65951 0.07962 0.33837 0.0
C150 C 0.68905 0.13057 0.32365 0.0
C151 C 0.70636 0.13136 0.29533 0.0
P152 P 0.86754 0.64153 0.61788 0.0
H153 H 0.91274 0.61118 0.56902 0.0
H154 H 0.86232 0.53435 0.53484 0.0
H155 H 0.73102 0.44989 0.5971 0.0
H156 H 0.77994 0.52616 0.63069 0.0
H157 H 0.91353 0.76043 0.60463 0.0
H158 H 0.87341 0.80748 0.57776 0.0
H159 H 0.74568 0.64787 0.54555 0.0
H160 H 0.78444 0.60121 0.57253 0.0
H161 H 0.85172 0.58884 0.67437 0.0
H162 H 0.78443 0.67674 0.62847 0.0
O163 O 0.93438 0.6768 0.62692 0.0
H164 H 0.78451 0.57029 0.71345 0.0
H165 H 0.71906 0.65868 0.66695 0.0
C166 C 0.84987 0.57501 0.60227 0.0
C167 C 0.87463 0.57465 0.57592 0.0
C168 C 0.84567 0.53114 0.55629 0.0
C169 C 0.79238 0.48764 0.56329 0.0
C170 C 0.77179 0.48388 0.59124 0.0
C171 C 0.80025 0.52746 0.61062 0.0
C172 C 0.8528 0.67742 0.5903 0.0
C173 C 0.87854 0.7359 0.59071 0.0
C174 C 0.85559 0.76267 0.57537 0.0
C175 C 0.80656 0.73104 0.55964 0.0
C176 C 0.78361 0.67303 0.55743 0.0
C177 C 0.80632 0.64642 0.57274 0.0
C178 C 0.82352 0.63409 0.64831 0.0
C179 C 0.8233 0.60472 0.67279 0.0
C180 C 0.78471 0.59372 0.69491 0.0
C181 C 0.74683 0.61312 0.69303 0.0
C182 C 0.74807 0.64355 0.6689 0.0
C183 C 0.78588 0.65388 0.64679 0.0
P184 P 1.04383 0.62735 0.9079 0.0
H185 H 0.09166 0.67595 0.85251 0.0
H186 H 0.17896 0.69437 0.82965 0.0
H187 H 0.235 0.66725 0.91085 0.0
H188 H 0.14863 0.64874 0.93335 0.0
H189 H 0.92547 0.55276 0.90522 0.0
H190 H 0.86978 0.48837 0.86816 0.0
H191 H 1.0158 0.49296 0.83193 0.0
H192 H 1.07148 0.55746 0.86994 0.0
H193 H 1.05311 0.6978 0.95622 0.0
H194 H 1.03399 0.5344 0.94241 0.0
O195 O 1.01794 0.66901 0.90109 0.0
H196 H 1.05888 0.68781 0.00778 0.0
H197 H 1.03891 0.52373 0.99442 0.0
C198 C 0.11356 0.66036 0.89448 0.0
C199 C 0.12382 0.67631 0.86557 0.0
C200 C 0.17345 0.68669 0.85253 0.0
C201 C 0.21317 0.68162 0.86847 0.0
C202 C 0.20513 0.67179 0.89812 0.0
C203 C 0.15543 0.66078 0.91101 0.0
C204 C 1.00272 0.56243 0.88919 0.0
C205 C 0.94515 0.53802 0.89008 0.0
C206 C 0.91314 0.50018 0.86884 0.0
C207 C 0.93867 0.48698 0.8461 0.0
C208 C 0.99511 0.50341 0.84862 0.0
C209 C 1.02713 0.54118 0.87012 0.0
C210 C 1.04159 0.61624 0.94574 0.0
C211 C 1.0488 0.6592 0.9644 0.0
C212 C 1.05193 0.65336 0.99382 0.0
C213 C 1.04804 0.60443 0.00502 0.0
C214 C 1.04133 0.5615 0.98624 0.0
C215 C 1.03815 0.56741 0.95668 0.0
P216 P 0.10195 0.54688 0.44878 0.0
H217 H 0.18228 0.59073 0.49965 0.0
H218 H 0.26691 0.67851 0.51153 0.0
H219 H 0.24262 0.75642 0.43789 0.0
H220 H 0.15787 0.66933 0.42659 0.0
H221 H 0.99457 0.4706 0.41717 0.0
H222 H 0.90811 0.38725 0.42799 0.0
H223 H 0.95079 0.40559 0.51744 0.0
H224 H 1.04105 0.48896 0.50579 0.0
H225 H 0.1272 0.48984 0.40164 0.0
H226 H 1.06805 0.60685 0.40719 0.0
O227 O 0.13385 0.51047 0.4549 0.0
H228 H 0.12176 0.48954 0.34975 0.0
H229 H 1.06693 0.61053 0.35456 0.0
C230 C 0.15947 0.62008 0.46216 0.0
C231 C 0.19371 0.62662 0.48614 0.0
C232 C 0.24439 0.67812 0.4927 0.0
C233 C 0.26564 0.72767 0.47568 0.0
C234 C 0.23034 0.72146 0.45221 0.0
C235 C 0.17987 0.66994 0.44562 0.0
C236 C 1.02704 0.49115 0.46037 0.0
C237 C 0.98603 0.45894 0.43949 0.0
C238 C 0.93415 0.40931 0.44601 0.0
C239 C 0.91765 0.38694 0.47422 0.0
C240 C 0.95883 0.4191 0.49533 0.0
C241 C 1.01154 0.46881 0.48863 0.0
C242 C 0.10024 0.55013 0.40903 0.0
C243 C 0.1146 0.51705 0.39182 0.0
C244 C 0.11208 0.51743 0.36162 0.0
C245 C 0.0961 0.55182 0.34707 0.0
C246 C 1.08017 0.58384 0.36442 0.0
C247 C 1.08152 0.58242 0.39481 0.0
P248 P 0.62698 0.09457 0.78207 0.0
H249 H 0.53921 0.11554 0.81592 0.0
H250 H 0.53436 0.2012 0.82708 0.0
H251 H 0.6929 0.30102 0.78582 0.0
H252 H 0.69682 0.21746 0.7746 0.0
H253 H 0.67118 1.05315 0.83001 0.0
H254 H 0.66727 0.96441 0.84123 0.0
H255 H 0.54599 0.88244 0.77504 0.0
H256 H 0.55015 0.97062 0.76392 0.0
H257 H 0.69987 0.15073 0.7322 0.0
H258 H 0.5259 1.0339 0.74474 0.0
O259 O 0.69591 0.12459 0.78423 0.0
H260 H 0.6861 0.14865 0.68087 0.0
H261 H 0.51243 1.02781 0.69252 0.0
C262 C 0.61921 0.15736 0.79456 0.0
C263 C 0.57337 0.1557 0.80937 0.0
C264 C 0.57063 0.20593 0.81581 0.0
C265 C 0.61276 0.26099 0.80727 0.0
C266 C 0.65807 0.26161 0.79259 0.0
C267 C 0.66085 0.2122 0.7864 0.0
C268 C 0.60985 1.02177 0.7963 0.0
C269 C 0.64213 1.01616 0.81822 0.0
C270 C 0.6405 0.96419 0.82449 0.0
C271 C 0.60593 0.91314 0.80957 0.0
C272 C 0.57266 0.91847 0.78808 0.0
C273 C 0.5749 0.97062 0.78157 0.0
C274 C 0.61454 0.09043 0.74294 0.0
C275 C 0.6587 0.12304 0.724 0.0
C276 C 0.65081 0.12131 0.69413 0.0
C277 C 0.59849 0.08607 0.68167 0.0
C278 C 0.55368 1.05493 0.7008 0.0
C279 C 0.56147 1.05772 0.73091 0.0
P280 P 0.58407 0.56564 0.11865 0.0
H281 H 0.62282 0.4985 0.15375 0.0
H282 H 0.71155 0.50433 0.16417 0.0
H283 H 0.79783 0.66621 0.1245 0.0
H284 H 0.70821 0.65963 0.11355 0.0
H285 H 0.49347 0.57153 0.08585 0.0
H286 H 0.41142 0.57795 0.0968 0.0
H287 H 0.452 0.59485 0.18647 0.0
H288 H 0.53614 0.58999 0.17498 0.0
H289 H 0.58967 0.49468 0.0722 0.0
H290 H 0.60365 0.6569 0.07763 0.0
O291 O 0.54614 0.49637 0.1225 0.0
H292 H 0.599 0.50275 0.02006 0.0
H293 H 0.61118 0.66463 0.02508 0.0
C294 C 0.65528 0.57916 0.1332 0.0
C295 C 0.66024 0.53638 0.14758 0.0
C296 C 0.71261 0.53946 0.15344 0.0
C297 C 0.76517 0.58598 0.14576 0.0
C298 C 0.76042 0.62949 0.1318 0.0
C299 C 0.7077 0.62594 0.1255 0.0
C300 C 0.52641 0.58348 0.1289 0.0
C301 C 0.48716 0.57898 0.10799 0.0
C302 C 0.4377 0.58147 0.11457 0.0
C303 C 0.42165 0.58768 0.14289 0.0
C304 C 0.46069 0.59175 0.16411 0.0
C305 C 0.51059 0.5891 0.15742 0.0
C306 C 0.59462 0.57458 0.07933 0.0
C307 C 0.59412 0.53199 0.06223 0.0
C308 C 0.59886 0.5364 0.03205 0.0
C309 C 0.60426 0.58368 0.01763 0.0
C310 C 0.60674 0.62725 0.03497 0.0
C311 C 0.60233 0.62291 0.06525 0.0
C312 C 0.26546 0.55955 0.13597 0.0
C313 C 0.25588 0.58804 0.15906 0.0
C314 C 0.3173 0.56016 0.13114 0.0
C315 C 0.36482 0.58799 0.14936 0.0
H316 H 0.23221 0.53647 0.12088 0.0
H317 H 0.31934 0.53706 0.11277 0.0
S318 S 0.36247 0.66588 0.21506 0.0
N319 N 0.30047 0.64388 0.20125 0.0
N320 N 0.39439 0.64326 0.19334 0.0
C321 C 0.35513 0.61549 0.17312 0.0
C322 C 0.30257 0.61607 0.17757 0.0
C323 C 0.8005 0.24303 0.51058 0.0
C324 C 0.75139 0.22301 0.49381 0.0
C325 C 0.85197 0.29468 0.50468 0.0
C326 C 0.85987 0.33098 0.48108 0.0
H327 H 0.79933 0.21856 0.52887 0.0
H328 H 0.88657 0.30557 0.51879 0.0
S329 S 0.74585 0.29842 0.42905 0.0
N330 N 0.71662 0.24532 0.45151 0.0
N331 N 0.80943 0.33945 0.44088 0.0
C332 C 0.81076 0.31094 0.46413 0.0
C333 C 0.75846 0.25865 0.47028 0.0
C334 C 0.6558 0.80366 0.82827 0.0
C335 C 0.60787 0.74907 0.82717 0.0
C336 C 0.65473 0.85478 0.82317 0.0
C337 C 0.6058 0.85634 0.81581 0.0
H338 H 0.69538 0.80732 0.83329 0.0
H339 H 0.6936 0.89389 0.82453 0.0
S340 S 0.46741 0.72647 0.81004 0.0
N341 N 0.50883 0.70196 0.81827 0.0
N342 N 0.50695 0.79516 0.80851 0.0
C343 C 0.55754 0.80198 0.81461 0.0
C344 C 0.5585 0.74994 0.82026 0.0
C345 C 0.88015 0.5395 0.1554 0.0
C346 C 0.93086 0.58812 0.16346 0.0
C347 C 0.82862 0.53913 0.15019 0.0
C348 C 0.82274 0.58773 0.15178 0.0
H349 H 0.88 0.50044 0.15322 0.0
H350 H 0.79278 0.49965 0.14428 0.0
S351 S 0.94179 0.7279 0.17165 0.0
N352 N 0.96965 0.68735 0.1726 0.0
N353 N 0.8762 0.68714 0.16255 0.0
C354 C 0.87344 0.63688 0.15956 0.0
C355 C 0.92568 0.63696 0.16539 0.0
C356 C 0.38269 0.89037 0.47956 0.0
C357 C 0.43067 0.89404 0.49262 0.0
C358 C 0.3316 0.83838 0.47438 0.0
C359 C 0.32279 0.78442 0.48192 0.0
H360 H 0.38435 0.92871 0.47302 0.0
H361 H 0.29802 0.84106 0.46448 0.0
S362 S 0.43469 0.76712 0.51575 0.0
N363 N 0.46436 0.83567 0.5123 0.0
N364 N 0.37134 0.74057 0.50282 0.0
C365 C 0.37071 0.78743 0.49493 0.0
C366 C 0.42298 0.84061 0.50008 0.0
C367 C 0.58682 0.37839 0.84401 0.0
C368 C 0.61191 0.42587 0.82548 0.0
C369 C 0.58666 0.32655 0.83826 0.0
C370 C 0.61064 0.31695 0.81313 0.0
H371 H 0.56751 0.38143 0.8637 0.0
H372 H 0.56781 0.29369 0.8541 0.0
S373 S 0.67223 0.42226 0.75432 0.0
N374 N 0.65696 0.45551 0.77915 0.0
N375 N 0.65354 0.36013 0.76768 0.0
C376 C 0.63331 0.36326 0.79382 0.0
C377 C 0.63477 0.41636 0.80007 0.0
C378 C 0.69004 0.76309 0.55655 0.0
C379 C 0.71355 0.81282 0.5407 0.0
C380 C 0.71957 0.73522 0.56113 0.0
C381 C 0.77384 0.75663 0.55032 0.0
H382 H 0.64944 0.74687 0.56638 0.0
H383 H 0.7009 0.69826 0.57452 0.0
S384 S 0.85248 0.88357 0.50598 0.0
N385 N 0.79288 0.8809 0.51289 0.0
N386 N 0.8486 0.82833 0.52173 0.0
C387 C 0.79691 0.805 0.53345 0.0
C388 C 0.7666 0.83309 0.52851 0.0
C389 C 0.91818 0.54343 0.78161 0.0
C390 C 0.86204 0.52621 0.78654 0.0
C391 C 0.94334 0.51827 0.79648 0.0
C392 C 0.9129 0.47688 0.81723 0.0
H393 H 0.94446 0.58199 0.77017 0.0
H394 H 0.98824 0.53928 0.79593 0.0
S395 S 0.76068 0.39944 0.82605 0.0
N396 N 0.77349 0.45198 0.80463 0.0
N397 N 0.8212 0.40388 0.83172 0.0
C398 C 0.85482 0.44908 0.81537 0.0
C399 C 0.82907 0.47495 0.8006 0.0
C400 C 0.43456 0.90961 0.16044 0.0
C401 C 0.40985 0.85143 0.16381 0.0
C402 C 0.49175 0.94411 0.16359 0.0
C403 C 0.52528 0.92122 0.17053 0.0
H404 H 0.40926 0.92915 0.15896 0.0
H405 H 0.50852 0.98897 0.16467 0.0
S406 S 0.48333 0.7714 0.17069 0.0
N407 N 0.42489 0.77199 0.16576 0.0
N408 N 0.53283 0.83762 0.17283 0.0
C409 C 0.50264 0.86326 0.16876 0.0
C410 C 0.44443 0.82797 0.16525 0.0
C411 C 0.72204 0.37311 0.50788 0.0
C412 C 0.67113 0.37173 0.50423 0.0
C413 C 0.7631 0.41283 0.52592 0.0
C414 C 0.75407 0.45195 0.54077 0.0
H415 H 0.72859 0.34093 0.49836 0.0
H416 H 0.80049 0.4109 0.52954 0.0
S417 S 0.6325 0.47204 0.53444 0.0
N418 N 0.61725 0.41718 0.51393 0.0
N419 N 0.69453 0.49218 0.54773 0.0
C420 C 0.70543 0.45385 0.53544 0.0
C421 C 0.66382 0.41356 0.51717 0.0
C422 C 0.34625 0.68046 0.86021 0.0
C423 C 0.32895 0.63143 0.84395 0.0
C424 C 0.31048 0.70143 0.86525 0.0
C425 C 0.25636 0.67385 0.85423 0.0
H426 H 0.38618 0.70033 0.87078 0.0
H427 H 0.32339 0.73641 0.8799 0.0
S428 S 0.19444 0.54865 0.80694 0.0
N429 N 0.25722 0.55987 0.81399 0.0
N430 N 0.18956 0.59905 0.82358 0.0
C431 C 0.24082 0.62831 0.83544 0.0
C432 C 0.27731 0.60702 0.8303 0.0
C433 C 0.74407 0.27142 0.11257 0.0
C434 C 0.77833 0.3266 0.12231 0.0
C435 C 0.7097 0.22966 0.132 0.0
C436 C 0.70823 0.24306 0.16107 0.0
H437 H 0.75224 0.25864 0.09191 0.0
H438 H 0.69231 0.18633 0.1255 0.0
S439 S 0.76659 0.38481 0.19219 0.0
N440 N 0.79086 0.39505 0.15899 0.0
N441 N 0.72604 0.31645 0.19547 0.0
C442 C 0.72986 0.29935 0.16854 0.0
C443 C 0.76487 0.34173 0.14881 0.0
C444 C 0.10832 0.59532 0.07584 0.0
C445 C 1.08202 0.61392 0.0952 0.0
C446 C 0.09489 0.58907 0.0466 0.0
C447 C 1.05431 0.60052 0.03618 0.0
H448 H 0.14139 0.58856 0.08304 0.0
H449 H 0.11839 0.57814 0.0319 0.0
S450 S 0.96562 0.63849 0.07957 0.0
N451 N 1.00871 0.63618 0.10286 0.0
N452 N 0.98218 0.62254 0.04818 0.0
C453 C 1.02459 0.61438 0.05587 0.0
C454 C 1.03882 0.6216 0.08537 0.0
C455 C 0.68006 0.09932 0.41797 0.0
C456 C 0.62712 0.06158 0.42891 0.0
C457 C 0.68923 0.10805 0.3885 0.0
C458 C 0.64588 0.07857 0.36905 0.0
H459 H 0.71514 0.12087 0.43225 0.0
H460 H 0.73118 0.13543 0.38085 0.0
S461 S 0.49844 0.97997 0.38709 0.0
N462 N 0.52972 0.99878 0.41851 0.0
N463 N 0.54718 1.01411 0.36266 0.0
C464 C 0.59203 1.0432 0.37978 0.0
C465 C 0.58252 1.03506 0.40992 0.0
C466 C 0.62774 0.53758 0.74598 0.0
C467 C 0.62804 0.58213 0.76092 0.0
C468 C 0.66682 0.54773 0.72415 0.0
C469 C 0.70628 0.6027 0.71623 0.0
H470 H 0.59851 0.49479 0.75188 0.0
H471 H 0.66623 0.51251 0.7134 0.0
S472 S 0.71939 0.73345 0.74628 0.0
N473 N 0.66744 0.68292 0.76438 0.0
N474 N 0.74073 0.7019 0.72354 0.0
C475 C 0.70494 0.64739 0.72999 0.0
C476 C 0.66561 0.63711 0.75221 0.0
C477 C 0.5352 0.07663 0.60654 0.0
C478 C 0.57618 0.08043 0.5871 0.0
C479 C 0.54244 0.07812 0.6367 0.0
C480 C 0.59083 0.08293 0.64915 0.0
H481 H 0.49731 0.07311 0.59842 0.0
H482 H 0.50988 0.07639 0.65035 0.0
S483 S 0.709 0.08945 0.60761 0.0
N484 N 0.66642 0.08766 0.5827 0.0
N485 N 0.67876 0.08717 0.63861 0.0
C486 C 0.63149 0.08528 0.62975 0.0
C487 C 0.62449 0.08483 0.5991 0.0
C488 C 0.65307 0.64532 0.94163 0.0
C489 C 0.62221 0.60015 0.92265 0.0
C490 C 0.64672 0.63968 0.97179 0.0
C491 C 0.60901 0.58841 0.98494 0.0
H492 H 0.68321 0.68588 0.93312 0.0
H493 H 0.67257 0.67589 0.98492 0.0
S494 S 0.51485 0.45743 0.94514 0.0
N495 N 0.55067 0.50248 0.91951 0.0
N496 N 0.53776 0.49179 0.97573 0.0
C497 C 0.57703 0.54294 0.96615 0.0
C498 C 0.58372 0.5488 0.93531 0.0
C499 C 1.05023 0.55683 0.26901 0.0
C500 C 0.08804 0.54962 0.25166 0.0
C501 C 1.05326 0.55797 0.29946 0.0
C502 C 0.09492 0.55303 0.31422 0.0
H503 H 1.01689 0.5599 0.25903 0.0
H504 H 1.0217 0.5615 0.3115 0.0
S505 S 0.20968 0.54277 0.27822 0.0
N506 N 0.17114 0.54226 0.2514 0.0
N507 N 0.1791 0.54763 0.30775 0.0
C508 C 0.1346 0.54866 0.29676 0.0
C509 C 0.13061 0.54619 0.26589 0.0
loop_
_geom_bond_atom_site_label_1
_geom_bond_atom_site_label_2
_geom_bond_distance
_geom_bond_site_symmetry_2
_ccdc_geom_bond_type
Tb0 C2 2.809 . S
Tb0 O20 2.484 . S
Tb0 O21 2.440 . S
Tb0 O22 2.658 . S
Tb0 O23 2.409 . S
Tb0 O24 2.378 . S
Tb0 O28 2.325 . S
Tb0 O31 2.341 1_455 S
Tb1 C11 2.809 . S
Tb1 O22 2.325 1_655 S
Tb1 O25 2.341 1_655 S
Tb1 O26 2.484 . S
Tb1 O27 2.440 . S
Tb1 O28 2.658 1_655 S
Tb1 O29 2.409 . S
Tb1 O30 2.378 . S
C2 Tb0 2.809 . S
C2 C3 1.514 . S
C2 O20 1.248 . S
C2 O21 1.266 . S
C3 C2 1.514 . S
C3 C4 1.359 . S
C3 C8 1.348 . S
C4 C3 1.359 . S
C4 C5 1.380 . S
C4 H32 0.929 . S
C5 C4 1.380 . S
C5 C6 1.347 . S
C5 H33 0.931 . S
C6 C5 1.347 . S
C6 C7 1.369 . S
C7 C6 1.369 . S
C7 C8 1.408 . S
C7 H34 0.930 . S
C8 C3 1.348 . S
C8 C7 1.408 . S
C8 H35 0.930 . S
C9 O22 1.281 . S
C9 O23 1.254 . S
C10 O24 1.236 . S
C10 O25 1.266 . S
C11 Tb1 2.809 . S
C11 C12 1.514 . S
C11 O26 1.248 . S
C11 O27 1.266 . S
C12 C11 1.514 . S
C12 C13 1.359 . S
C12 C17 1.348 . S
C13 C12 1.359 . S
C13 C14 1.380 . S
C13 H36 0.929 . S
C14 C13 1.380 . S
C14 C15 1.347 . S
C14 H37 0.931 . S
C15 C14 1.347 . S
C15 C16 1.369 . S
C16 C15 1.369 . S
C16 C17 1.408 . S
C16 H38 0.930 . S
C17 C12 1.348 . S
C17 C16 1.408 . S
C17 H39 0.930 . S
C18 O28 1.281 . S
C18 O29 1.254 1_455 S
C19 O30 1.236 . S
C19 O31 1.266 . S
O20 Tb0 2.484 . S
O20 C2 1.248 . S
O21 Tb0 2.440 . S
O21 C2 1.266 . S
O22 Tb0 2.658 . S
O22 Tb1 2.325 1_455 S
O22 C9 1.281 . S
O23 Tb0 2.409 . S
O23 C9 1.254 . S
O24 Tb0 2.378 . S
O24 C10 1.236 . S
O25 Tb1 2.341 1_455 S
O25 C10 1.266 . S
O26 Tb1 2.484 . S
O26 C11 1.248 . S
O27 Tb1 2.440 . S
O27 C11 1.266 . S
O28 Tb0 2.325 . S
O28 Tb1 2.658 1_455 S
O28 C18 1.281 . S
O29 Tb1 2.409 . S
O29 C18 1.254 1_655 S
O30 Tb1 2.378 . S
O30 C19 1.236 . S
O31 Tb0 2.341 1_655 S
O31 C19 1.266 . S
H32 C4 0.929 . S
H33 C5 0.931 . S
H34 C7 0.930 . S
H35 C8 0.930 . S
H36 C13 0.929 . S
H37 C14 0.931 . S
H38 C16 0.930 . S
H39 C17 0.930 . S
Tb40 C42 2.809 . S
Tb40 O60 2.484 . S
Tb40 O61 2.440 . S
Tb40 O62 2.658 1_565 S
Tb40 O63 2.410 . S
Tb40 O64 2.378 . S
Tb40 O68 2.325 1_565 S
Tb40 O71 2.341 1_565 S
Tb41 C51 2.809 . S
Tb41 O62 2.325 . S
Tb41 O65 2.341 1_545 S
Tb41 O66 2.484 . S
Tb41 O67 2.440 . S
Tb41 O68 2.658 . S
Tb41 O69 2.409 . S
Tb41 O70 2.378 . S
C42 Tb40 2.809 . S
C42 C43 1.514 . S
C42 O60 1.248 . S
C42 O61 1.266 . S
C43 C42 1.514 . S
C43 C44 1.359 . S
C43 C48 1.348 . S
C44 C43 1.359 . S
C44 C45 1.380 . S
C44 H72 0.929 . S
C45 C44 1.380 . S
C45 C46 1.347 . S
C45 H73 0.931 . S
C46 C45 1.347 . S
C46 C47 1.369 . S
C47 C46 1.369 . S
C47 C48 1.408 . S
C47 H74 0.930 . S
C48 C43 1.348 . S
C48 C47 1.408 . S
C48 H75 0.930 . S
C49 O62 1.281 . S
C49 O63 1.248 1_545 S
C50 O64 1.236 . S
C50 O65 1.266 . S
C51 Tb41 2.809 . S
C51 C52 1.514 . S
C51 O66 1.248 . S
C51 O67 1.266 . S
C52 C51 1.514 . S
C52 C53 1.359 . S
C52 C57 1.348 . S
C53 C52 1.359 . S
C53 C54 1.380 . S
C53 H76 0.929 . S
C54 C53 1.380 . S
C54 C55 1.347 . S
C54 H77 0.931 . S
C55 C54 1.347 . S
C55 C56 1.369 . S
C56 C55 1.369 . S
C56 C57 1.408 . S
C56 H78 0.930 . S
C57 C52 1.348 . S
C57 C56 1.408 . S
C57 H79 0.930 . S
C58 O68 1.281 . S
C58 O69 1.254 . S
C59 O70 1.236 . S
C59 O71 1.266 . S
O60 Tb40 2.484 . S
O60 C42 1.248 . S
O61 Tb40 2.440 . S
O61 C42 1.266 . S
O62 Tb40 2.658 1_545 S
O62 Tb41 2.325 . S
O62 C49 1.281 . S
O63 Tb40 2.410 . S
O63 C49 1.248 1_565 S
O64 Tb40 2.378 . S
O64 C50 1.236 . S
O65 Tb41 2.341 1_565 S
O65 C50 1.266 . S
O66 Tb41 2.484 . S
O66 C51 1.248 . S
O67 Tb41 2.440 . S
O67 C51 1.266 . S
O68 Tb40 2.325 1_545 S
O68 Tb41 2.658 . S
O68 C58 1.281 . S
O69 Tb41 2.409 . S
O69 C58 1.254 . S
O70 Tb41 2.378 . S
O70 C59 1.236 . S
O71 Tb40 2.341 1_545 S
O71 C59 1.266 . S
H72 C44 0.929 . S
H73 C45 0.931 . S
H74 C47 0.930 . S
H75 C48 0.930 . S
H76 C53 0.929 . S
H77 C54 0.931 . S
H78 C56 0.930 . S
H79 C57 0.930 . S
Tb80 C82 2.809 . S
Tb80 O100 2.484 . S
Tb80 O101 2.440 . S
Tb80 O102 2.658 . S
Tb80 O103 2.409 . S
Tb80 O104 2.378 . S
Tb80 O108 2.325 . S
Tb80 O111 2.341 . S
Tb81 C91 2.809 . S
Tb81 O102 2.325 . S
Tb81 O105 2.341 . S
Tb81 O106 2.484 . S
Tb81 O107 2.440 . S
Tb81 O108 2.658 . S
Tb81 O109 2.409 . S
Tb81 O110 2.378 . S
C82 Tb80 2.809 . S
C82 C83 1.514 . S
C82 O100 1.248 . S
C82 O101 1.266 . S
C83 C82 1.514 . S
C83 C84 1.359 . S
C83 C88 1.348 . S
C84 C83 1.359 . S
C84 C85 1.380 . S
C84 H112 0.929 . S
C85 C84 1.380 . S
C85 C86 1.347 . S
C85 H113 0.931 . S
C86 C85 1.347 . S
C86 C87 1.369 . S
C87 C86 1.369 . S
C87 C88 1.408 . S
C87 H114 0.930 . S
C88 C83 1.348 . S
C88 C87 1.408 . S
C88 H115 0.930 . S
C89 O102 1.281 . S
C89 O103 1.254 . S
C90 O104 1.236 . S
C90 O105 1.266 . S
C91 Tb81 2.809 . S
C91 C92 1.514 . S
C91 O106 1.248 . S
C91 O107 1.266 . S
C92 C91 1.514 . S
C92 C93 1.359 . S
C92 C97 1.348 . S
C93 C92 1.359 . S
C93 C94 1.380 . S
C93 H116 0.929 . S
C94 C93 1.380 . S
C94 C95 1.347 . S
C94 H117 0.931 . S
C95 C94 1.347 . S
C95 C96 1.369 . S
C96 C95 1.369 . S
C96 C97 1.408 . S
C96 H118 0.930 . S
C97 C92 1.348 . S
C97 C96 1.408 . S
C97 H119 0.930 . S
C98 O108 1.281 . S
C98 O109 1.254 . S
C99 O110 1.236 . S
C99 O111 1.266 . S
O100 Tb80 2.484 . S
O100 C82 1.248 . S
O101 Tb80 2.440 . S
O101 C82 1.266 . S
O102 Tb80 2.658 . S
O102 Tb81 2.325 . S
O102 C89 1.281 . S
O103 Tb80 2.409 . S
O103 C89 1.254 . S
O104 Tb80 2.378 . S
O104 C90 1.236 . S
O105 Tb81 2.341 . S
O105 C90 1.266 . S
O106 Tb81 2.484 . S
O106 C91 1.248 . S
O107 Tb81 2.440 . S
O107 C91 1.266 . S
O108 Tb80 2.325 . S
O108 Tb81 2.658 . S
O108 C98 1.281 . S
O109 Tb81 2.409 . S
O109 C98 1.254 . S
O110 Tb81 2.378 . S
O110 C99 1.236 . S
O111 Tb80 2.341 . S
O111 C99 1.266 . S
H112 C84 0.929 . S
H113 C85 0.931 . S
H114 C87 0.930 . S
H115 C88 0.930 . S
H116 C93 0.929 . S
H117 C94 0.931 . S
H118 C96 0.930 . S
H119 C97 0.930 . S
P120 O131 1.490 1_545 S
P120 C134 1.812 1_545 S
P120 C140 1.803 . S
P120 C146 1.819 . S
H121 C135 0.941 . S
H122 C136 0.939 . S
H123 C138 0.940 . S
H124 C139 0.940 1_545 S
H125 C141 0.939 . S
H126 C142 0.942 . S
H127 C144 0.940 . S
H128 C145 0.939 . S
H129 C147 0.941 . S
H130 C151 0.939 . S
O131 P120 1.490 1_565 S
H132 C148 0.939 . S
H133 C150 0.940 . S
C134 P120 1.812 1_565 S
C134 C135 1.389 . S
C134 C139 1.391 . S
C135 H121 0.941 . S
C135 C134 1.389 . S
C135 C136 1.397 . S
C136 H122 0.939 . S
C136 C135 1.397 . S
C136 C137 1.378 . S
C137 C136 1.378 . S
C137 C138 1.378 . S
C138 H123 0.940 . S
C138 C137 1.378 . S
C138 C139 1.396 . S
C139 H124 0.940 1_565 S
C139 C134 1.391 . S
C139 C138 1.396 . S
C140 P120 1.803 . S
C140 C141 1.378 . S
C140 C145 1.400 . S
C141 H125 0.939 . S
C141 C140 1.378 . S
C141 C142 1.361 . S
C142 H126 0.942 . S
C142 C141 1.361 . S
C142 C143 1.369 . S
C143 C142 1.369 . S
C143 C144 1.404 . S
C144 H127 0.940 . S
C144 C143 1.404 . S
C144 C145 1.389 . S
C145 H128 0.939 . S
C145 C140 1.400 . S
C145 C144 1.389 . S
C146 P120 1.819 . S
C146 C147 1.391 1_545 S
C146 C151 1.391 . S
C147 H129 0.941 . S
C147 C146 1.391 1_565 S
C147 C148 1.396 . S
C148 H132 0.939 . S
C148 C147 1.396 . S
C148 C149 1.397 1_565 S
C149 C148 1.397 1_545 S
C149 C150 1.385 . S
C150 H133 0.940 . S
C150 C149 1.385 . S
C150 C151 1.388 . S
C151 H130 0.939 . S
C151 C146 1.391 . S
C151 C150 1.388 . S
P152 O163 1.490 . S
P152 C166 1.812 . S
P152 C172 1.803 . S
P152 C178 1.819 . S
H153 C167 0.941 . S
H154 C168 0.939 . S
H155 C170 0.940 . S
H156 C171 0.940 . S
H157 C173 0.939 . S
H158 C174 0.942 . S
H159 C176 0.940 . S
H160 C177 0.939 . S
H161 C179 0.941 . S
H162 C183 0.939 . S
O163 P152 1.490 . S
H164 C180 0.939 . S
H165 C182 0.940 . S
C166 P152 1.812 . S
C166 C167 1.389 . S
C166 C171 1.391 . S
C167 H153 0.941 . S
C167 C166 1.389 . S
C167 C168 1.397 . S
C168 H154 0.939 . S
C168 C167 1.397 . S
C168 C169 1.378 . S
C169 C168 1.378 . S
C169 C170 1.378 . S
C170 H155 0.940 . S
C170 C169 1.378 . S
C170 C171 1.396 . S
C171 H156 0.940 . S
C171 C166 1.391 . S
C171 C170 1.396 . S
C172 P152 1.803 . S
C172 C173 1.378 . S
C172 C177 1.400 . S
C173 H157 0.939 . S
C173 C172 1.378 . S
C173 C174 1.361 . S
C174 H158 0.942 . S
C174 C173 1.361 . S
C174 C175 1.369 . S
C175 C174 1.369 . S
C175 C176 1.404 . S
C176 H159 0.940 . S
C176 C175 1.404 . S
C176 C177 1.389 . S
C177 H160 0.939 . S
C177 C172 1.400 . S
C177 C176 1.389 . S
C178 P152 1.819 . S
C178 C179 1.391 . S
C178 C183 1.391 . S
C179 H161 0.941 . S
C179 C178 1.391 . S
C179 C180 1.396 . S
C180 H164 0.939 . S
C180 C179 1.396 . S
C180 C181 1.397 . S
C181 C180 1.397 . S
C181 C182 1.385 . S
C182 H165 0.940 . S
C182 C181 1.385 . S
C182 C183 1.388 . S
C183 H162 0.939 . S
C183 C178 1.391 . S
C183 C182 1.388 . S
P184 O195 1.490 . S
P184 C198 1.812 . S
P184 C204 1.803 1_455 S
P184 C210 1.819 . S
H185 C199 0.941 . S
H186 C200 0.939 . S
H187 C202 0.940 . S
H188 C203 0.940 . S
H189 C205 0.939 . S
H190 C206 0.942 . S
H191 C208 0.940 . S
H192 C209 0.939 . S
H193 C211 0.941 . S
H194 C215 0.939 . S
O195 P184 1.490 . S
H196 C212 0.939 1_554 S
H197 C214 0.940 . S
C198 P184 1.812 . S
C198 C199 1.389 . S
C198 C203 1.391 . S
C199 H185 0.941 . S
C199 C198 1.389 . S
C199 C200 1.397 . S
C200 H186 0.939 . S
C200 C199 1.397 . S
C200 C201 1.378 . S
C201 C200 1.378 . S
C201 C202 1.378 . S
C202 H187 0.940 . S
C202 C201 1.378 . S
C202 C203 1.396 . S
C203 H188 0.940 . S
C203 C198 1.391 . S
C203 C202 1.396 . S
C204 P184 1.803 1_655 S
C204 C205 1.378 . S
C204 C209 1.400 . S
C205 H189 0.939 . S
C205 C204 1.378 . S
C205 C206 1.361 . S
C206 H190 0.942 . S
C206 C205 1.361 . S
C206 C207 1.369 . S
C207 C206 1.369 . S
C207 C208 1.404 . S
C208 H191 0.940 . S
C208 C207 1.404 . S
C208 C209 1.389 . S
C209 H192 0.939 . S
C209 C204 1.400 . S
C209 C208 1.389 . S
C210 P184 1.819 . S
C210 C211 1.391 . S
C210 C215 1.391 1_455 S
C211 H193 0.941 . S
C211 C210 1.391 . S
C211 C212 1.396 . S
C212 H196 0.939 1_556 S
C212 C211 1.396 . S
C212 C213 1.397 1_556 S
C213 C212 1.397 1_554 S
C213 C214 1.385 1_454 S
C214 H197 0.940 . S
C214 C213 1.385 1_656 S
C214 C215 1.388 . S
C215 H194 0.939 . S
C215 C210 1.391 1_655 S
C215 C214 1.388 . S
P216 O227 1.490 . S
P216 C230 1.812 . S
P216 C236 1.803 . S
P216 C242 1.819 . S
H217 C231 0.941 . S
H218 C232 0.939 . S
H219 C234 0.940 . S
H220 C235 0.940 . S
H221 C237 0.939 1_455 S
H222 C238 0.942 . S
H223 C240 0.940 . S
H224 C241 0.939 1_455 S
H225 C243 0.941 . S
H226 C247 0.939 1_655 S
O227 P216 1.490 . S
H228 C244 0.939 . S
H229 C246 0.940 1_655 S
C230 P216 1.812 . S
C230 C231 1.389 . S
C230 C235 1.391 . S
C231 H217 0.941 . S
C231 C230 1.389 . S
C231 C232 1.397 . S
C232 H218 0.939 . S
C232 C231 1.397 . S
C232 C233 1.378 . S
C233 C232 1.378 . S
C233 C234 1.378 . S
C234 H219 0.940 . S
C234 C233 1.378 . S
C234 C235 1.396 . S
C235 H220 0.940 . S
C235 C230 1.391 . S
C235 C234 1.396 . S
C236 P216 1.803 . S
C236 C237 1.378 1_455 S
C236 C241 1.400 1_455 S
C237 H221 0.939 1_655 S
C237 C236 1.378 1_655 S
C237 C238 1.361 . S
C238 H222 0.942 . S
C238 C237 1.361 . S
C238 C239 1.369 . S
C239 C238 1.369 . S
C239 C240 1.404 . S
C240 H223 0.940 . S
C240 C239 1.404 . S
C240 C241 1.389 . S
C241 H224 0.939 1_655 S
C241 C236 1.400 1_655 S
C241 C240 1.389 . S
C242 P216 1.819 . S
C242 C243 1.391 . S
C242 C247 1.391 . S
C243 H225 0.941 . S
C243 C242 1.391 . S
C243 C244 1.396 . S
C244 H228 0.939 . S
C244 C243 1.396 . S
C244 C245 1.397 . S
C245 C244 1.397 . S
C245 C246 1.385 . S
C246 H229 0.940 1_455 S
C246 C245 1.385 . S
C246 C247 1.388 . S
C247 H226 0.939 1_455 S
C247 C242 1.391 . S
C247 C246 1.388 . S
P248 O259 1.490 . S
P248 C262 1.812 . S
P248 C268 1.803 1_545 S
P248 C274 1.819 . S
H249 C263 0.941 . S
H250 C264 0.939 . S
H251 C266 0.940 . S
H252 C267 0.940 . S
H253 C269 0.939 . S
H254 C270 0.942 . S
H255 C272 0.940 . S
H256 C273 0.939 . S
H257 C275 0.941 . S
H258 C279 0.939 . S
O259 P248 1.490 . S
H260 C276 0.939 . S
H261 C278 0.940 . S
C262 P248 1.812 . S
C262 C263 1.389 . S
C262 C267 1.391 . S
C263 H249 0.941 . S
C263 C262 1.389 . S
C263 C264 1.397 . S
C264 H250 0.939 . S
C264 C263 1.397 . S
C264 C265 1.378 . S
C265 C264 1.378 . S
C265 C266 1.378 . S
C266 H251 0.940 . S
C266 C265 1.378 . S
C266 C267 1.396 . S
C267 H252 0.940 . S
C267 C262 1.391 . S
C267 C266 1.396 . S
C268 P248 1.803 1_565 S
C268 C269 1.378 . S
C268 C273 1.400 . S
C269 H253 0.939 . S
C269 C268 1.378 . S
C269 C270 1.361 . S
C270 H254 0.942 . S
C270 C269 1.361 . S
C270 C271 1.369 . S
C271 C270 1.369 . S
C271 C272 1.404 . S
C272 H255 0.940 . S
C272 C271 1.404 . S
C272 C273 1.389 . S
C273 H256 0.939 . S
C273 C268 1.400 . S
C273 C272 1.389 . S
C274 P248 1.819 . S
C274 C275 1.391 . S
C274 C279 1.391 1_545 S
C275 H257 0.941 . S
C275 C274 1.391 . S
C275 C276 1.396 . S
C276 H260 0.939 . S
C276 C275 1.396 . S
C276 C277 1.397 . S
C277 C276 1.397 . S
C277 C278 1.385 1_545 S
C278 H261 0.940 . S
C278 C277 1.385 1_565 S
C278 C279 1.388 . S
C279 H258 0.939 . S
C279 C274 1.391 1_565 S
C279 C278 1.388 . S
P280 O291 1.490 . S
P280 C294 1.812 . S
P280 C300 1.803 . S
P280 C306 1.819 . S
H281 C295 0.941 . S
H282 C296 0.939 . S
H283 C298 0.940 . S
H284 C299 0.940 . S
H285 C301 0.939 . S
H286 C302 0.942 . S
H287 C304 0.940 . S
H288 C305 0.939 . S
H289 C307 0.941 . S
H290 C311 0.939 . S
O291 P280 1.490 . S
H292 C308 0.939 . S
H293 C310 0.940 . S
C294 P280 1.812 . S
C294 C295 1.389 . S
C294 C299 1.391 . S
C295 H281 0.941 . S
C295 C294 1.389 . S
C295 C296 1.397 . S
C296 H282 0.939 . S
C296 C295 1.397 . S
C296 C297 1.378 . S
C297 C296 1.378 . S
C297 C298 1.378 . S
C298 H283 0.940 . S
C298 C297 1.378 . S
C298 C299 1.396 . S
C299 H284 0.940 . S
C299 C294 1.391 . S
C299 C298 1.396 . S
C300 P280 1.803 . S
C300 C301 1.378 . S
C300 C305 1.400 . S
C301 H285 0.939 . S
C301 C300 1.378 . S
C301 C302 1.361 . S
C302 H286 0.942 . S
C302 C301 1.361 . S
C302 C303 1.369 . S
C303 C302 1.369 . S
C303 C304 1.404 . S
C304 H287 0.940 . S
C304 C303 1.404 . S
C304 C305 1.389 . S
C305 H288 0.939 . S
C305 C300 1.400 . S
C305 C304 1.389 . S
C306 P280 1.819 . S
C306 C307 1.391 . S
C306 C311 1.391 . S
C307 H289 0.941 . S
C307 C306 1.391 . S
C307 C308 1.396 . S
C308 H292 0.939 . S
C308 C307 1.396 . S
C308 C309 1.397 . S
C309 C308 1.397 . S
C309 C310 1.385 . S
C310 H293 0.940 . S
C310 C309 1.385 . S
C310 C311 1.388 . S
C311 H290 0.939 . S
C311 C306 1.391 . S
C311 C310 1.388 . S
C312 C313 1.369 . S
C312 C314 1.419 . S
C312 H316 0.930 . S
C313 C312 1.369 . S
C313 C322 1.429 . S
C314 C312 1.419 . S
C314 C315 1.363 . S
C314 H317 0.929 . S
C315 C314 1.363 . S
C315 C321 1.428 . S
H316 C312 0.930 . S
H317 C314 0.929 . S
S318 N319 1.613 . S
S318 N320 1.610 . S
N319 S318 1.613 . S
N319 C322 1.350 . S
N320 S318 1.610 . S
N320 C321 1.351 . S
C321 C315 1.428 . S
C321 N320 1.351 . S
C321 C322 1.434 . S
C322 C313 1.429 . S
C322 N319 1.350 . S
C322 C321 1.434 . S
C323 C324 1.369 . S
C323 C325 1.419 . S
C323 H327 0.930 . S
C324 C323 1.369 . S
C324 C333 1.429 . S
C325 C323 1.419 . S
C325 C326 1.363 . S
C325 H328 0.929 . S
C326 C325 1.363 . S
C326 C332 1.428 . S
H327 C323 0.930 . S
H328 C325 0.929 . S
S329 N330 1.613 . S
S329 N331 1.610 . S
N330 S329 1.613 . S
N330 C333 1.350 . S
N331 S329 1.610 . S
N331 C332 1.351 . S
C332 C326 1.428 . S
C332 N331 1.351 . S
C332 C333 1.434 . S
C333 C324 1.429 . S
C333 N330 1.350 . S
C333 C332 1.434 . S
C334 C335 1.369 . S
C334 C336 1.419 . S
C334 H338 0.930 . S
C335 C334 1.369 . S
C335 C344 1.429 . S
C336 C334 1.419 . S
C336 C337 1.363 . S
C336 H339 0.929 . S
C337 C336 1.363 . S
C337 C343 1.428 . S
H338 C334 0.930 . S
H339 C336 0.929 . S
S340 N341 1.613 . S
S340 N342 1.610 . S
N341 S340 1.613 . S
N341 C344 1.350 . S
N342 S340 1.610 . S
N342 C343 1.351 . S
C343 C337 1.428 . S
C343 N342 1.351 . S
C343 C344 1.434 . S
C344 C335 1.429 . S
C344 N341 1.350 . S
C344 C343 1.434 . S
C345 C346 1.369 . S
C345 C347 1.419 . S
C345 H349 0.930 . S
C346 C345 1.369 . S
C346 C355 1.429 . S
C347 C345 1.419 . S
C347 C348 1.363 . S
C347 H350 0.929 . S
C348 C347 1.363 . S
C348 C354 1.428 . S
H349 C345 0.930 . S
H350 C347 0.929 . S
S351 N352 1.613 . S
S351 N353 1.610 . S
N352 S351 1.613 . S
N352 C355 1.350 . S
N353 S351 1.610 . S
N353 C354 1.351 . S
C354 C348 1.428 . S
C354 N353 1.351 . S
C354 C355 1.434 . S
C355 C346 1.429 . S
C355 N352 1.350 . S
C355 C354 1.434 . S
C356 C357 1.369 . S
C356 C358 1.419 . S
C356 H360 0.930 . S
C357 C356 1.369 . S
C357 C366 1.429 . S
C358 C356 1.419 . S
C358 C359 1.363 . S
C358 H361 0.929 . S
C359 C358 1.363 . S
C359 C365 1.428 . S
H360 C356 0.930 . S
H361 C358 0.929 . S
S362 N363 1.613 . S
S362 N364 1.610 . S
N363 S362 1.613 . S
N363 C366 1.350 . S
N364 S362 1.610 . S
N364 C365 1.351 . S
C365 C359 1.428 . S
C365 N364 1.351 . S
C365 C366 1.434 . S
C366 C357 1.429 . S
C366 N363 1.350 . S
C366 C365 1.434 . S
C367 C368 1.369 . S
C367 C369 1.419 . S
C367 H371 0.930 . S
C368 C367 1.369 . S
C368 C377 1.429 . S
C369 C367 1.419 . S
C369 C370 1.363 . S
C369 H372 0.929 . S
C370 C369 1.363 . S
C370 C376 1.428 . S
H371 C367 0.930 . S
H372 C369 0.929 . S
S373 N374 1.613 . S
S373 N375 1.610 . S
N374 S373 1.613 . S
N374 C377 1.350 . S
N375 S373 1.610 . S
N375 C376 1.351 . S
C376 C370 1.428 . S
C376 N375 1.351 . S
C376 C377 1.434 . S
C377 C368 1.429 . S
C377 N374 1.350 . S
C377 C376 1.434 . S
C378 C379 1.369 . S
C378 C380 1.419 . S
C378 H382 0.930 . S
C379 C378 1.369 . S
C379 C388 1.429 . S
C380 C378 1.419 . S
C380 C381 1.363 . S
C380 H383 0.929 . S
C381 C380 1.363 . S
C381 C387 1.428 . S
H382 C378 0.930 . S
H383 C380 0.929 . S
S384 N385 1.613 . S
S384 N386 1.610 . S
N385 S384 1.613 . S
N385 C388 1.350 . S
N386 S384 1.610 . S
N386 C387 1.351 . S
C387 C381 1.428 . S
C387 N386 1.351 . S
C387 C388 1.434 . S
C388 C379 1.429 . S
C388 N385 1.350 . S
C388 C387 1.434 . S
C389 C390 1.369 . S
C389 C391 1.419 . S
C389 H393 0.930 . S
C390 C389 1.369 . S
C390 C399 1.429 . S
C391 C389 1.419 . S
C391 C392 1.363 . S
C391 H394 0.929 . S
C392 C391 1.363 . S
C392 C398 1.428 . S
H393 C389 0.930 . S
H394 C391 0.929 . S
S395 N396 1.613 . S
S395 N397 1.610 . S
N396 S395 1.613 . S
N396 C399 1.350 . S
N397 S395 1.610 . S
N397 C398 1.351 . S
C398 C392 1.428 . S
C398 N397 1.351 . S
C398 C399 1.434 . S
C399 C390 1.429 . S
C399 N396 1.350 . S
C399 C398 1.434 . S
C400 C401 1.369 . S
C400 C402 1.419 . S
C400 H404 0.930 . S
C401 C400 1.369 . S
C401 C410 1.429 . S
C402 C400 1.419 . S
C402 C403 1.363 . S
C402 H405 0.929 . S
C403 C402 1.363 . S
C403 C409 1.428 . S
H404 C400 0.930 . S
H405 C402 0.929 . S
S406 N407 1.613 . S
S406 N408 1.610 . S
N407 S406 1.613 . S
N407 C410 1.350 . S
N408 S406 1.610 . S
N408 C409 1.351 . S
C409 C403 1.428 . S
C409 N408 1.351 . S
C409 C410 1.434 . S
C410 C401 1.429 . S
C410 N407 1.350 . S
C410 C409 1.434 . S
C411 C412 1.369 . S
C411 C413 1.419 . S
C411 H415 0.930 . S
C412 C411 1.369 . S
C412 C421 1.429 . S
C413 C411 1.419 . S
C413 C414 1.363 . S
C413 H416 0.929 . S
C414 C413 1.363 . S
C414 C420 1.428 . S
H415 C411 0.930 . S
H416 C413 0.929 . S
S417 N418 1.613 . S
S417 N419 1.610 . S
N418 S417 1.613 . S
N418 C421 1.350 . S
N419 S417 1.610 . S
N419 C420 1.351 . S
C420 C414 1.428 . S
C420 N419 1.351 . S
C420 C421 1.434 . S
C421 C412 1.429 . S
C421 N418 1.350 . S
C421 C420 1.434 . S
C422 C423 1.369 . S
C422 C424 1.419 . S
C422 H426 0.930 . S
C423 C422 1.369 . S
C423 C432 1.429 . S
C424 C422 1.419 . S
C424 C425 1.363 . S
C424 H427 0.929 . S
C425 C424 1.363 . S
C425 C431 1.428 . S
H426 C422 0.930 . S
H427 C424 0.929 . S
S428 N429 1.613 . S
S428 N430 1.610 . S
N429 S428 1.613 . S
N429 C432 1.350 . S
N430 S428 1.610 . S
N430 C431 1.351 . S
C431 C425 1.428 . S
C431 N430 1.351 . S
C431 C432 1.434 . S
C432 C423 1.429 . S
C432 N429 1.350 . S
C432 C431 1.434 . S
C433 C434 1.369 . S
C433 C435 1.419 . S
C433 H437 0.930 . S
C434 C433 1.369 . S
C434 C443 1.429 . S
C435 C433 1.419 . S
C435 C436 1.363 . S
C435 H438 0.929 . S
C436 C435 1.363 . S
C436 C442 1.428 . S
H437 C433 0.930 . S
H438 C435 0.929 . S
S439 N440 1.613 . S
S439 N441 1.610 . S
N440 S439 1.613 . S
N440 C443 1.350 . S
N441 S439 1.610 . S
N441 C442 1.351 . S
C442 C436 1.428 . S
C442 N441 1.351 . S
C442 C443 1.434 . S
C443 C434 1.429 . S
C443 N440 1.350 . S
C443 C442 1.434 . S
C444 C445 1.369 1_655 S
C444 C446 1.419 . S
C444 H448 0.930 . S
C445 C444 1.369 1_455 S
C445 C454 1.429 . S
C446 C444 1.419 . S
C446 C447 1.363 1_655 S
C446 H449 0.929 . S
C447 C446 1.363 1_455 S
C447 C453 1.428 . S
H448 C444 0.930 . S
H449 C446 0.929 . S
S450 N451 1.613 . S
S450 N452 1.610 . S
N451 S450 1.613 . S
N451 C454 1.350 . S
N452 S450 1.610 . S
N452 C453 1.351 . S
C453 C447 1.428 . S
C453 N452 1.351 . S
C453 C454 1.434 . S
C454 C445 1.429 . S
C454 N451 1.350 . S
C454 C453 1.434 . S
C455 C456 1.369 . S
C455 C457 1.419 . S
C455 H459 0.930 . S
C456 C455 1.369 . S
C456 C465 1.429 . S
C457 C455 1.419 . S
C457 C458 1.363 . S
C457 H460 0.929 . S
C458 C457 1.363 . S
C458 C464 1.428 . S
H459 C455 0.930 . S
H460 C457 0.929 . S
S461 N462 1.613 . S
S461 N463 1.610 . S
N462 S461 1.613 . S
N462 C465 1.350 . S
N463 S461 1.610 . S
N463 C464 1.351 . S
C464 C458 1.428 . S
C464 N463 1.351 . S
C464 C465 1.434 . S
C465 C456 1.429 . S
C465 N462 1.350 . S
C465 C464 1.434 . S
C466 C467 1.369 . S
C466 C468 1.419 . S
C466 H470 0.930 . S
C467 C466 1.369 . S
C467 C476 1.429 . S
C468 C466 1.419 . S
C468 C469 1.363 . S
C468 H471 0.929 . S
C469 C468 1.363 . S
C469 C475 1.428 . S
H470 C466 0.930 . S
H471 C468 0.929 . S
S472 N473 1.613 . S
S472 N474 1.610 . S
N473 S472 1.613 . S
N473 C476 1.350 . S
N474 S472 1.610 . S
N474 C475 1.351 . S
C475 C469 1.428 . S
C475 N474 1.351 . S
C475 C476 1.434 . S
C476 C467 1.429 . S
C476 N473 1.350 . S
C476 C475 1.434 . S
C477 C478 1.369 1_565 S
C477 C479 1.419 . S
C477 H481 0.930 . S
C478 C477 1.369 1_545 S
C478 C487 1.429 . S
C479 C477 1.419 . S
C479 C480 1.363 1_565 S
C479 H482 0.929 . S
C480 C479 1.363 1_545 S
C480 C486 1.428 . S
H481 C477 0.930 . S
H482 C479 0.929 . S
S483 N484 1.613 . S
S483 N485 1.610 . S
N484 S483 1.613 . S
N484 C487 1.350 . S
N485 S483 1.610 . S
N485 C486 1.351 . S
C486 C480 1.428 . S
C486 N485 1.351 . S
C486 C487 1.434 . S
C487 C478 1.429 . S
C487 N484 1.350 . S
C487 C486 1.434 . S
C488 C489 1.369 . S
C488 C490 1.419 . S
C488 H492 0.930 . S
C489 C488 1.369 . S
C489 C498 1.429 . S
C490 C488 1.419 . S
C490 C491 1.363 . S
C490 H493 0.929 . S
C491 C490 1.363 . S
C491 C497 1.428 . S
H492 C488 0.930 . S
H493 C490 0.929 . S
S494 N495 1.613 . S
S494 N496 1.610 . S
N495 S494 1.613 . S
N495 C498 1.350 . S
N496 S494 1.610 . S
N496 C497 1.351 . S
C497 C491 1.428 . S
C497 N496 1.351 . S
C497 C498 1.434 . S
C498 C489 1.429 . S
C498 N495 1.350 . S
C498 C497 1.434 . S
C499 C500 1.369 . S
C499 C501 1.419 . S
C499 H503 0.930 1_455 S
C500 C499 1.369 . S
C500 C509 1.429 . S
C501 C499 1.419 . S
C501 C502 1.363 . S
C501 H504 0.929 1_455 S
C502 C501 1.363 . S
C502 C508 1.428 . S
H503 C499 0.930 1_655 S
H504 C501 0.929 1_655 S
S505 N506 1.613 . S
S505 N507 1.610 . S
N506 S505 1.613 . S
N506 C509 1.350 . S
N507 S505 1.610 . S
N507 C508 1.351 . S
C508 C502 1.428 . S
C508 N507 1.351 . S
C508 C509 1.434 . S
C509 C500 1.429 . S
C509 N506 1.350 . S
C509 C508 1.434 . S
C313 C10 3.047 . S
C315 C303 2.985 . S
C324 C59 3.128 . S
C326 C239 3.058 . S
C335 C90 3.065 . S
C337 C271 3.007 . S
C346 C19 3.132 . S
C348 C297 3.073 . S
C359 C233 2.989 . S
C357 C50 3.050 . S
C370 C265 3.048 . S
C368 C99 3.113 . S
C379 C46 0.707 . S
C381 C175 0.691 . S
C390 C95 0.659 . S
C392 C207 0.646 . S
C401 C6 0.689 . S
C403 C137 0.671 . S
C414 C169 0.636 . S
C412 C55 0.699 . S
C425 C201 0.708 . S
C423 C86 0.704 . S
C434 C15 0.678 . S
C436 C143 0.663 . S
C447 C213 0.979 . S
C445 C9 1.010 . S
C456 C49 1.003 . S
C458 C149 0.983 . S
C467 C89 1.018 . S
C469 C181 1.021 . S
C480 C277 1.768 . S
C478 C58 1.732 . S
C491 C309 1.771 1_556 S
C489 C98 1.727 . S
C500 C18 1.731 . S
C502 C245 1.788 . S
