# Generated by pormake.
# Topology anh, (6,3)-cn, num edge types: 1
# Building blocks:
#     Node 0, Type 0, BuildingBlock: VOLQOD_clean_sbu_1, # of connection points: 6
#     Node 1, Type 0, BuildingBlock: VOLQOD_clean_sbu_1, # of connection points: 6
#     Node 2, Type 0, BuildingBlock: VOLQOD_clean_sbu_1, # of connection points: 6
#     Node 3, Type 1, BuildingBlock: KAKCAD_clean_linker_0, # of connection points: 3
#     Node 4, Type 1, BuildingBlock: KAKCAD_clean_linker_0, # of connection points: 3
#     Node 5, Type 1, BuildingBlock: KAKCAD_clean_linker_0, # of connection points: 3
#     Node 6, Type 1, BuildingBlock: KAKCAD_clean_linker_0, # of connection points: 3
#     Node 7, Type 1, BuildingBlock: KAKCAD_clean_linker_0, # of connection points: 3
#     Node 8, Type 1, BuildingBlock: KAKCAD_clean_linker_0, # of connection points: 3
#     Edge 9, Type (0, 1), BuildingBlock: OJICUG_clean_linker_0, # of connection points: 2
#     Edge 10, Type (0, 1), BuildingBlock: OJICUG_clean_linker_0, # of connection points: 2
#     Edge 11, Type (0, 1), BuildingBlock: OJICUG_clean_linker_0, # of connection points: 2
#     Edge 12, Type (0, 1), BuildingBlock: OJICUG_clean_linker_0, # of connection points: 2
#     Edge 13, Type (0, 1), BuildingBlock: OJICUG_clean_linker_0, # of connection points: 2
#     Edge 14, Type (0, 1), BuildingBlock: OJICUG_clean_linker_0, # of connection points: 2
#     Edge 15, Type (0, 1), BuildingBlock: OJICUG_clean_linker_0, # of connection points: 2
#     Edge 16, Type (0, 1), BuildingBlock: OJICUG_clean_linker_0, # of connection points: 2
#     Edge 17, Type (0, 1), BuildingBlock: OJICUG_clean_linker_0, # of connection points: 2
#     Edge 18, Type (0, 1), BuildingBlock: OJICUG_clean_linker_0, # of connection points: 2
#     Edge 19, Type (0, 1), BuildingBlock: OJICUG_clean_linker_0, # of connection points: 2
#     Edge 20, Type (0, 1), BuildingBlock: OJICUG_clean_linker_0, # of connection points: 2
#     Edge 21, Type (0, 1), BuildingBlock: OJICUG_clean_linker_0, # of connection points: 2
#     Edge 22, Type (0, 1), BuildingBlock: OJICUG_clean_linker_0, # of connection points: 2
#     Edge 23, Type (0, 1), BuildingBlock: OJICUG_clean_linker_0, # of connection points: 2
#     Edge 24, Type (0, 1), BuildingBlock: OJICUG_clean_linker_0, # of connection points: 2
#     Edge 25, Type (0, 1), BuildingBlock: OJICUG_clean_linker_0, # of connection points: 2
#     Edge 26, Type (0, 1), BuildingBlock: OJICUG_clean_linker_0, # of connection points: 2
# Relax obj value: 0.167
# Max RMSD: 0.230
# Mean RMSD: 0.114
data_MOF--net-anh--node1-VOLQOD_clean_sbu_1--node2-KAKCAD_clean_linker_0--edge1-OJICUG_clean_linker_0
_symmetry_space_group_name_H-M    P1
_symmetry_Int_Tables_number       1
_symmetry_cell_setting            triclinic
loop_
_symmetry_equiv_pos_as_xyz
'x, y, z'
_cell_length_a     27.697893
_cell_length_b     27.474953
_cell_length_c     58.961178
_cell_angle_alpha  89.728751
_cell_angle_beta   89.962285
_cell_angle_gamma 120.76445
loop_
_atom_site_label
_atom_site_type_symbol
_atom_site_fract_x
_atom_site_fract_y
_atom_site_fract_z
_atom_type_partial_charge
O0 O 0.98453 0.57744 0.21046 0.0
Zn1 Zn -0.01109 0.59872 0.17747 0.0
O2 O 0.00374 0.54878 0.15863 0.0
Zn3 Zn 0.94372 0.50753 0.1371 0.0
Zn4 Zn 0.00899 0.4935 0.1777 0.0
Zn5 Zn 0.07294 0.59381 0.14157 0.0
O6 O 0.97047 0.52219 0.1049 0.0
O7 O 0.05999 0.59004 0.10778 0.0
O8 O 0.91603 0.59477 0.16845 0.0
O9 O 0.89137 0.53566 0.13931 0.0
O10 O 0.89725 0.42364 0.14394 0.0
O11 O 0.94289 0.41558 0.17317 0.0
O12 O 0.07945 0.49195 0.17121 0.0
O13 O 0.05398 0.67949 0.17556 0.0
O14 O 0.12456 0.56461 0.14736 0.0
O15 O 0.11277 0.67497 0.15122 0.0
C16 C -0.00567 0.5429 0.22105 0.0
C17 C 0.0171 0.55805 0.09581 0.0
C18 C 0.90198 0.39375 0.15935 0.0
C19 C 0.8834 0.56811 0.152 0.0
C20 C 0.12206 0.52423 0.15899 0.0
C21 C 0.10045 0.70301 0.16474 0.0
O22 O 0.00649 0.51008 0.21061 0.0
O23 O 0.49661 0.01768 0.44504 0.0
Zn24 Zn 0.47934 0.0167 0.47814 0.0
O25 O 0.53267 0.00719 0.49644 0.0
Zn26 Zn 0.57627 0.07312 0.5155 0.0
Zn27 Zn 0.58336 -0.00399 0.47672 0.0
Zn28 Zn 0.49068 0.94219 0.51607 0.0
O29 O 0.56578 0.05389 0.54896 0.0
O30 O 0.49781 0.96349 0.54874 0.0
O31 O 0.47946 0.08804 0.48611 0.0
O32 O 0.54977 0.12737 0.51074 0.0
O33 O 0.65808 0.11485 0.50702 0.0
O34 O 0.66182 0.06321 0.47899 0.0
O35 O 0.585 0.92502 0.4853 0.0
O36 O 0.40115 0.95076 0.48207 0.0
O37 O 0.52339 0.89331 0.5138 0.0
O38 O 0.40883 0.89582 0.50767 0.0
C39 C 0.52856 0.00567 0.43392 0.0
C40 C 0.53099 0.00856 0.55939 0.0
C41 C 0.68551 0.10663 0.4917 0.0
C42 C 0.51152 0.12846 0.49923 0.0
C43 C 0.55891 0.8899 0.50133 0.0
C44 C 0.37933 0.90555 0.4939 0.0
O45 O 0.56213 0.99374 0.44383 0.0
O46 O 0.40963 0.43853 0.78245 0.0
Zn47 Zn 0.39641 0.41919 0.81563 0.0
O48 O 0.46367 0.47139 0.83308 0.0
Zn49 Zn 0.44685 0.51334 0.85479 0.0
Zn50 Zn 0.52269 0.5257 0.81276 0.0
Zn51 Zn 0.48969 0.42847 0.84998 0.0
O52 O 0.46213 0.50122 0.88684 0.0
O53 O 0.48313 0.43366 0.88383 0.0
O54 O 0.32778 0.42238 0.82577 0.0
O55 O 0.36557 0.48434 0.85388 0.0
O56 O 0.48378 0.59647 0.84705 0.0
O57 O 0.53419 0.60333 0.81673 0.0
O58 O 0.59639 0.52923 0.81831 0.0
O59 O 0.38168 0.33916 0.81769 0.0
O60 O 0.57043 0.4586 0.843 0.0
O61 O 0.44806 0.347 0.84109 0.0
C62 C 0.45288 0.47225 0.77083 0.0
C63 C 0.47347 0.4661 0.89586 0.0
C64 C 0.51643 0.62552 0.83086 0.0
C65 C 0.32349 0.45035 0.84204 0.0
C66 C 0.60765 0.49817 0.83066 0.0
C67 C 0.4064 0.31741 0.82819 0.0
O68 O 0.49969 0.50615 0.78017 0.0
C69 C 0.56027 0.0674 0.32535 0.0
C70 C 0.52313 0.01633 0.3364 0.0
C71 C 0.55695 0.07266 0.3019 0.0
C72 C 0.51709 0.02652 0.28898 0.0
C73 C 0.48093 0.97495 0.30017 0.0
C74 C 0.48351 0.97015 0.32366 0.0
C75 C 0.51266 0.03227 0.26403 0.0
C76 C 0.56065 0.06628 0.25084 0.0
C77 C 0.55666 0.07349 0.22741 0.0
C78 C 0.5039 0.04238 0.21684 0.0
C79 C 0.4554 0.00647 0.22965 0.0
C80 C 0.4602 0.00377 0.2533 0.0
C81 C 0.39982 0.96999 0.21862 0.0
C82 C 0.38349 0.98791 0.19915 0.0
C83 C 0.36264 0.91572 0.22755 0.0
C84 C 0.3105 0.88085 0.21766 0.0
C85 C 0.29451 0.89856 0.19822 0.0
C86 C 0.60773 0.11485 0.21446 0.0
C87 C 0.64781 0.16568 0.22483 0.0
C88 C 0.61721 0.10465 0.19194 0.0
C89 C 0.66597 0.14419 0.18028 0.0
C90 C 0.70634 0.19391 0.19109 0.0
C91 C 0.69664 0.20433 0.21339 0.0
C92 C 0.33147 0.95215 0.18888 0.0
H93 H 0.59081 0.10371 0.33495 0.0
H94 H 0.58485 0.11333 0.29403 0.0
H95 H 0.45061 0.93806 0.29081 0.0
H96 H 0.45474 0.93023 0.3319 0.0
H97 H 0.60155 0.08701 0.25883 0.0
H98 H 0.42267 0.97952 0.26349 0.0
H99 H 0.50066 0.04614 0.1987 0.0
H100 H 0.41061 0.02953 0.19188 0.0
H101 H 0.37411 0.89935 0.24201 0.0
H102 H 0.28324 0.83906 0.22482 0.0
H103 H 0.64135 0.17608 0.24183 0.0
H104 H 0.58752 0.06587 0.18345 0.0
H105 H 0.31997 0.96635 0.17375 0.0
H106 H 0.72664 0.24304 0.22189 0.0
H107 H 0.67263 0.13556 0.16301 0.0
C108 C 0.42501 0.5013 0.66092 0.0
C109 C 0.44054 0.46792 0.67338 0.0
C110 C 0.42547 0.50054 0.63722 0.0
C111 C 0.4428 0.46737 0.62557 0.0
C112 C 0.45827 0.43396 0.63831 0.0
C113 C 0.45651 0.43377 0.66195 0.0
C114 C 0.44716 0.46929 0.60035 0.0
C115 C 0.4649 0.52013 0.58845 0.0
C116 C 0.47301 0.52336 0.56481 0.0
C117 C 0.46485 0.4754 0.55312 0.0
C118 C 0.44853 0.4247 0.5648 0.0
C119 C 0.43765 0.42139 0.58818 0.0
C120 C 0.45044 0.37795 0.55331 0.0
C121 C 0.43027 0.36159 0.53108 0.0
C122 C 0.47728 0.35259 0.56412 0.0
C123 C 0.48543 0.31316 0.5528 0.0
C124 C 0.4672 0.29824 0.53035 0.0
C125 C 0.49242 0.57774 0.55269 0.0
C126 C 0.47085 0.61223 0.55887 0.0
C127 C 0.5335 0.59645 0.53544 0.0
C128 C 0.5534 0.64923 0.525 0.0
C129 C 0.53308 0.68419 0.53193 0.0
C130 C 0.49118 0.66496 0.54869 0.0
C131 C 0.43832 0.32166 0.51971 0.0
H132 H 0.41231 0.52773 0.66955 0.0
H133 H 0.41234 0.52606 0.62807 0.0
H134 H 0.47327 0.40899 0.63011 0.0
H135 H 0.46917 0.40817 0.67135 0.0
H136 H 0.47483 0.5581 0.59769 0.0
H137 H 0.42327 0.38156 0.59697 0.0
H138 H 0.47306 0.47807 0.53505 0.0
H139 H 0.40916 0.3803 0.52242 0.0
H140 H 0.49404 0.36482 0.58109 0.0
H141 H 0.50693 0.2949 0.56152 0.0
H142 H 0.43832 0.59858 0.57168 0.0
H143 H 0.55139 0.5711 0.53045 0.0
H144 H 0.42368 0.31049 0.50242 0.0
H145 H 0.47416 0.69094 0.55396 0.0
H146 H 0.58567 0.66342 0.51206 0.0
C147 C 0.0737 0.62398 0.98644 0.0
C148 C 0.02611 0.5813 -0.00199 0.0
C149 C 0.07443 0.62728 0.96273 0.0
C150 C 0.0272 0.58879 0.95023 0.0
C151 C 0.9797 0.54646 0.96166 0.0
C152 C 0.97934 0.54236 0.98522 0.0
C153 C 0.02753 0.59026 0.92522 0.0
C154 C 0.06645 0.58234 0.91313 0.0
C155 C 0.06094 0.57328 0.88958 0.0
C156 C 0.01713 0.57439 0.87809 0.0
C157 C 0.97799 0.58244 0.89005 0.0
C158 C 0.98394 0.59109 0.91358 0.0
C159 C 0.92664 0.57369 0.87865 0.0
C160 C 0.92896 0.59745 0.8572 0.0
C161 C 0.87419 0.53845 0.88891 0.0
C162 C 0.82504 0.52669 0.87796 0.0
C163 C 0.82701 0.54962 0.85641 0.0
C164 C 0.09644 0.55526 0.87785 0.0
C165 C 0.15376 0.58124 0.88303 0.0
C166 C 0.0721 0.50798 0.86338 0.0
C167 C 0.10383 0.48513 0.85539 0.0
C168 C 0.16004 0.50899 0.86195 0.0
C169 C 0.18521 0.55822 0.8752 0.0
C170 C 0.87939 0.5858 0.84621 0.0
H171 H 0.11022 0.65519 0.99566 0.0
H172 H 0.11157 0.66015 0.95416 0.0
H173 H 0.94322 0.51558 0.95228 0.0
H174 H 0.94254 0.50791 0.99333 0.0
H175 H 0.0983 0.57872 0.92239 0.0
H176 H 0.95327 0.59622 0.92305 0.0
H177 H 0.01169 0.56582 0.86005 0.0
H178 H 0.96898 0.62484 0.84897 0.0
H179 H 0.87097 0.51877 0.90525 0.0
H180 H 0.78526 0.49949 0.88641 0.0
H181 H 0.17381 0.61821 0.89381 0.0
H182 H 0.02782 0.48669 0.85927 0.0
H183 H 0.88191 0.6041 0.82962 0.0
H184 H 0.22895 0.57796 0.88008 0.0
H185 H 0.08376 0.4472 0.84514 0.0
C186 C 0.94619 0.4975 0.33123 0.0
C187 C -0.00684 0.53694 0.31866 0.0
C188 C 0.94919 0.49514 0.35482 0.0
C189 C -0.0003 0.53135 0.36624 0.0
C190 C 0.04661 0.57095 0.35346 0.0
C191 C 0.04314 0.57408 0.32994 0.0
C192 C 0.00399 0.527 0.39127 0.0
C193 C 0.97528 0.47423 0.40228 0.0
C194 C 0.9789 0.46956 0.42591 0.0
C195 C 0.01532 0.51838 0.43836 0.0
C196 C 0.04614 0.5714 0.42749 0.0
C197 C 0.03811 0.5754 0.40417 0.0
C198 C 0.08906 0.62234 0.43991 0.0
C199 C 0.08147 0.632 0.46274 0.0
C200 C 0.13924 0.66151 0.42882 0.0
C201 C 0.18012 0.70941 0.43998 0.0
C202 C 0.17258 0.71895 0.46267 0.0
C203 C 0.9437 0.41364 0.43732 0.0
C204 C 0.88931 0.376 0.42919 0.0
C205 C 0.96321 0.39733 0.4563 0.0
C206 C 0.92891 0.34475 0.46686 0.0
C207 C 0.87523 0.30728 0.45828 0.0
C208 C 0.85584 0.32331 0.43939 0.0
C209 C 0.12325 0.67973 0.47411 0.0
H210 H 0.90711 0.46869 0.32278 0.0
H211 H 0.91186 0.46493 0.36406 0.0
H212 H 0.08656 0.59872 0.36151 0.0
H213 H 0.08005 0.60439 0.32047 0.0
H214 H 0.95065 0.43634 0.39235 0.0
H215 H 0.05887 0.61658 0.39598 0.0
H216 H 0.01996 0.51509 0.45642 0.0
H217 H 0.04324 0.60305 0.47178 0.0
H218 H 0.14766 0.6548 0.41153 0.0
H219 H 0.21846 0.7385 0.43098 0.0
H220 H 0.87195 0.38746 0.41512 0.0
H221 H 0.00501 0.42482 0.4629 0.0
H222 H 0.11686 0.68634 0.49169 0.0
H223 H 0.81398 0.29547 0.43282 0.0
H224 H 0.94438 0.33313 0.48155 0.0
C225 C 0.46839 0.94863 0.66751 0.0
C226 C 0.51008 -0.00073 0.65719 0.0
C227 C 0.46129 0.94476 0.69101 0.0
C228 C 0.49471 0.99176 0.70466 0.0
C229 C 0.53567 0.04265 0.69457 0.0
C230 C 0.54373 0.04624 0.67108 0.0
C231 C 0.48664 0.98752 0.72945 0.0
C232 C 0.494 0.94839 0.74188 0.0
C233 C 0.48546 0.94305 0.76549 0.0
C234 C 0.47003 0.9784 0.77658 0.0
C235 C 0.46251 0.01809 0.76423 0.0
C236 C 0.47074 0.02194 0.74058 0.0
C237 C 0.44596 0.05563 0.77567 0.0
C238 C 0.40833 0.03631 0.79419 0.0
C239 C 0.46701 0.11127 0.76766 0.0
C240 C 0.44975 0.14597 0.77738 0.0
C241 C 0.41206 0.12651 0.79568 0.0
C242 C 0.49261 0.90021 0.77818 0.0
C243 C 0.47559 0.8474 0.76826 0.0
C244 C 0.51802 0.91196 0.79973 0.0
C245 C 0.5275 0.87227 0.81074 0.0
C246 C 0.51252 0.82078 0.8002 0.0
C247 C 0.48592 0.80847 0.77904 0.0
C248 C 0.392 0.07176 0.80428 0.0
H249 H 0.44059 0.91195 0.65746 0.0
H250 H 0.42905 0.90528 0.69852 0.0
H251 H 0.56206 0.0793 0.70492 0.0
H252 H 0.57686 0.08563 0.66391 0.0
H253 H 0.50737 0.92274 0.73305 0.0
H254 H 0.46351 0.05078 0.73057 0.0
H255 H 0.46376 0.97488 0.79478 0.0
H256 H 0.39075 0.99359 0.80068 0.0
H257 H 0.49731 0.12843 0.75394 0.0
H258 H 0.46676 0.18864 0.77085 0.0
H259 H 0.45439 0.83607 0.75204 0.0
H260 H 0.53196 0.95231 0.80781 0.0
H261 H 0.36319 0.05625 0.81855 0.0
H262 H 0.4729 0.76842 0.77083 0.0
H263 H 0.54786 0.88237 0.82715 0.0
C264 C 0.46455 0.39901 0.00488 0.0
C265 C 0.46281 0.44355 0.99368 0.0
C266 C 0.46107 0.3945 0.02856 0.0
C267 C 0.45465 0.43372 0.04135 0.0
C268 C 0.45317 0.47819 0.03031 0.0
C269 C 0.4578 0.48343 0.00679 0.0
C270 C 0.45121 0.43025 0.06631 0.0
C271 C 0.49699 0.4372 0.07897 0.0
C272 C 0.49868 0.44506 0.10258 0.0
C273 C 0.45299 0.4438 0.11349 0.0
C274 C 0.40692 0.43685 0.10092 0.0
C275 C 0.40596 0.42913 0.07738 0.0
C276 C 0.36418 0.4462 0.11174 0.0
C277 C 0.34147 0.42305 0.13316 0.0
C278 C 0.34844 0.48169 0.10103 0.0
C279 C 0.31122 0.49422 0.1115 0.0
C280 C 0.2891 0.47198 0.13304 0.0
C281 C 0.55141 0.4625 0.11503 0.0
C282 C 0.58301 0.43702 0.11015 0.0
C283 C 0.57362 0.50896 0.12992 0.0
C284 C 0.62787 0.53162 0.1386 0.0
C285 C 0.6606 0.50841 0.1323 0.0
C286 C 0.63718 0.45991 0.11864 0.0
C287 C 0.3039 0.43563 0.1437 0.0
H288 H 0.46772 0.36713 0.99538 0.0
H289 H 0.46252 0.36001 0.03686 0.0
H290 H 0.44938 0.50957 0.03995 0.0
H291 H 0.458 0.51924 -0.00104 0.0
H292 H 0.53319 0.44114 0.07015 0.0
H293 H 0.37107 0.42481 0.06743 0.0
H294 H 0.45482 0.45161 0.13156 0.0
H295 H 0.35293 0.39548 0.14175 0.0
H296 H 0.36596 0.50103 0.08471 0.0
H297 H 0.2997 0.52146 0.10267 0.0
H298 H 0.56663 0.4007 0.09904 0.0
H299 H 0.55048 0.5299 0.13382 0.0
H300 H 0.28728 0.41787 0.1603 0.0
H301 H 0.66165 0.44087 0.11389 0.0
H302 H 0.64533 0.56905 0.14911 0.0
C303 C 0.2206 0.55531 0.14859 0.0
C304 C 0.16802 0.51249 0.15659 0.0
H305 H 0.30091 0.57618 0.13558 0.0
C306 C 0.15841 0.45752 0.15988 0.0
H307 H 0.22953 0.5983 0.14629 0.0
C308 C 0.19922 0.44466 0.15345 0.0
C309 C 0.25014 0.48674 0.14382 0.0
H310 H 0.11821 0.42375 0.16607 0.0
H311 H 0.18957 0.40124 0.15473 0.0
C312 C 0.26137 0.54263 0.1424 0.0
C313 C 0.77033 0.20161 0.49961 0.0
C314 C 0.74294 0.15302 0.48594 0.0
H315 H 0.83524 0.28913 0.5015 0.0
C316 C 0.76672 0.15316 0.46484 0.0
H317 H 0.75334 0.20274 0.51602 0.0
C318 C 0.8131 0.20266 0.45654 0.0
C319 C 0.83715 0.25248 0.46936 0.0
H320 H 0.74698 0.11647 0.45391 0.0
H321 H 0.82802 0.20305 0.43951 0.0
C322 C 0.81732 0.25099 0.49139 0.0
C323 C 0.55504 0.7115 0.80609 0.0
C324 C 0.52658 0.68303 0.82606 0.0
H325 H 0.57275 0.7778 0.78233 0.0
C326 C 0.50107 0.70623 0.83934 0.0
H327 H 0.57559 0.69526 0.79552 0.0
C328 C 0.50001 0.75409 0.83179 0.0
C329 C 0.52408 0.77902 0.81081 0.0
H330 H 0.47901 0.68555 0.85487 0.0
H331 H 0.47716 0.76917 0.84155 0.0
C332 C 0.55342 0.75874 0.79848 0.0
C333 C 0.79476 0.56149 0.16555 0.0
C334 C 0.83221 0.56997 0.14782 0.0
H335 H 0.70926 0.53451 0.17442 0.0
C336 C 0.81498 0.56735 0.12527 0.0
H337 H 0.80718 0.56279 0.18306 0.0
C338 C 0.75968 0.5509 0.12041 0.0
C339 C 0.72065 0.53681 0.13801 0.0
H340 H 0.84333 0.57403 0.11134 0.0
H341 H 0.74657 0.54597 0.10284 0.0
C342 C 0.73891 0.54492 0.16064 0.0
C343 C 0.29611 0.80807 0.50056 0.0
C344 C 0.32053 0.86081 0.48935 0.0
H345 H 0.2288 0.72131 0.50096 0.0
C346 C 0.29063 0.86822 0.47173 0.0
H347 H 0.31783 0.80107 0.5143 0.0
C348 C 0.24009 0.82266 0.46413 0.0
C349 C 0.21807 0.76901 0.47416 0.0
H350 H 0.3078 0.90834 0.46285 0.0
H351 H 0.21963 0.82858 0.4496 0.0
C352 C 0.24507 0.76249 0.49305 0.0
C353 C 0.37139 0.23721 0.80097 0.0
C354 C 0.3935 0.25973 0.8224 0.0
H355 H 0.36038 0.17674 0.77561 0.0
C356 C 0.41236 0.23129 0.83644 0.0
H357 H 0.35672 0.25821 0.78973 0.0
C358 C 0.41363 0.18417 0.82843 0.0
C359 C 0.3968 0.16541 0.80618 0.0
H360 H 0.42939 0.24756 0.85308 0.0
H361 H 0.43183 0.16525 0.83894 0.0
C362 C 0.37363 0.19077 0.79283 0.0
C363 C 0.55703 0.80087 0.49133 0.0
C364 C 0.56995 0.84451 0.50679 0.0
H365 H 0.53514 0.71416 0.48742 0.0
C366 C 0.58103 0.83827 0.52947 0.0
H367 H 0.54764 0.80483 0.47381 0.0
C368 C 0.57391 0.78714 0.53717 0.0
C369 C 0.55524 0.74133 0.52232 0.0
H370 H 0.59096 0.87156 0.54163 0.0
H371 H 0.57897 0.78203 0.55509 0.0
C372 C 0.54968 0.7492 0.4991 0.0
C373 C 0.67507 0.46685 0.83956 0.0
C374 C 0.66571 0.5101 0.8324 0.0
H375 H 0.73419 0.44548 0.85211 0.0
C376 C 0.7117 0.56544 0.82974 0.0
H377 H 0.64049 0.42361 0.84136 0.0
C378 C 0.76555 0.57811 0.83616 0.0
C379 C 0.77379 0.53546 0.84516 0.0
H380 H 0.70552 0.59952 0.82421 0.0
H381 H 0.79981 0.62171 0.83551 0.0
C382 C 0.72862 0.47936 0.84576 0.0
C383 C 0.1431 0.78434 0.19165 0.0
C384 C 0.14479 0.76132 0.17062 0.0
H385 H 0.19006 0.84666 0.21692 0.0
C386 C 0.19337 0.79058 0.15707 0.0
H387 H 0.10638 0.76293 0.2025 0.0
C388 C 0.24098 0.83901 0.16526 0.0
C389 C 0.24088 0.85841 0.1872 0.0
H390 H 0.19579 0.77411 0.14072 0.0
H391 H 0.27916 0.85849 0.15519 0.0
C392 C 0.19096 0.83218 0.19995 0.0
C393 C 0.54525 0.22632 0.51234 0.0
C394 C 0.50213 0.17597 0.50288 0.0
H395 H 0.56797 0.30509 0.52795 0.0
C396 C 0.44895 0.16963 0.49949 0.0
H397 H 0.58693 0.23284 0.51478 0.0
C398 C 0.43799 0.21113 0.50723 0.0
C399 C 0.48016 0.25929 0.51834 0.0
H400 H 0.41501 0.13122 0.49218 0.0
H401 H 0.39587 0.20399 0.50577 0.0
C402 C 0.53441 0.2676 0.51993 0.0
C403 C 0.2586 0.45468 0.86935 0.0
C404 C 0.27061 0.44856 0.84679 0.0
H405 H 0.21342 0.47821 0.8917 0.0
C406 C 0.23906 0.45332 0.8292 0.0
H407 H 0.2822 0.45082 0.88319 0.0
C408 C 0.19979 0.46961 0.8341 0.0
C409 C 0.19213 0.48116 0.85658 0.0
H410 H 0.24809 0.44926 0.81166 0.0
H411 H 0.17852 0.47705 0.8203 0.0
C412 C 0.2197 0.47079 0.8742 0.0
C413 C 0.80397 0.31309 0.15194 0.0
C414 C 0.85511 0.33523 0.16374 0.0
H415 H 0.71614 0.24978 0.15136 0.0
C416 C 0.85831 0.30432 0.18218 0.0
H417 H 0.8001 0.33565 0.13761 0.0
C418 C 0.81034 0.25568 0.19003 0.0
C419 C 0.75836 0.23647 0.17947 0.0
H420 H 0.89705 0.31963 0.19153 0.0
H421 H 0.8132 0.23477 0.20517 0.0
C422 C 0.75592 0.2639 0.15974 0.0
C423 C 0.07135 0.5849 0.05928 0.0
C424 C 0.02025 0.56444 0.07091 0.0
H425 H 0.11316 0.60454 0.02712 0.0
C426 C 0.9717 0.55099 0.05859 0.0
H427 H 0.10942 0.59552 0.06841 0.0
C428 C 0.97405 0.55778 0.03511 0.0
C429 C 0.02476 0.57687 0.02322 0.0
H430 H 0.93189 0.53612 0.06716 0.0
H431 H 0.93594 0.5484 0.02633 0.0
C432 C 0.0735 0.5905 0.03564 0.0
C433 C 0.57479 0.01946 0.39604 0.0
C434 C 0.52689 0.00641 0.40892 0.0
H435 H 0.6113 0.03386 0.36275 0.0
C436 C 0.47757 -0.00451 0.39774 0.0
H437 H 0.61341 0.02834 0.40425 0.0
C438 C 0.47615 -0.00242 0.37411 0.0
C439 C 0.52435 0.01186 0.36129 0.0
H440 H 0.44 0.98512 0.40726 0.0
H441 H 0.43772 0.98918 0.36584 0.0
C442 C 0.57371 0.02286 0.37239 0.0
C443 C 0.40946 0.42198 0.73464 0.0
C444 C 0.44866 0.47166 0.7459 0.0
H445 H 0.3769 0.38186 0.70258 0.0
C446 C 0.48401 0.52055 0.73312 0.0
H447 H 0.38188 0.38365 0.74409 0.0
C448 C 0.48017 0.51974 0.70948 0.0
C449 C 0.44186 0.46974 0.69831 0.0
H450 H 0.51436 0.55946 0.74139 0.0
H451 H 0.50793 0.55776 0.69989 0.0
C452 C 0.40659 0.42085 0.71099 0.0
C453 C 0.54035 0.05609 0.59658 0.0
C454 C 0.52864 0.00758 0.58436 0.0
H455 H 0.54156 0.09117 0.62898 0.0
C456 C 0.51286 0.95711 0.59616 0.0
H457 H 0.55224 0.09544 0.58783 0.0
C458 C 0.50835 0.95494 0.61974 0.0
C459 C 0.51807 0.00282 0.6321 0.0
H460 H 0.50434 0.91926 0.58714 0.0
H461 H 0.49729 0.91554 0.62823 0.0
C462 C 0.5345 0.0536 0.62019 0.0
C463 C 0.50135 0.43877 0.93205 0.0
C464 C 0.47184 0.46071 0.9208 0.0
H465 H 0.52322 0.41774 0.96391 0.0
C466 C 0.43894 0.47608 0.93353 0.0
H467 H 0.52708 0.42663 0.92261 0.0
C468 C 0.43534 0.46948 0.95702 0.0
C469 C 0.46562 0.44857 0.9685 0.0
H470 H 0.41489 0.49215 0.92529 0.0
H471 H 0.40814 0.48024 0.96613 0.0
C472 C 0.4987 0.43325 0.95569 0.0
C473 C 0.97899 0.49096 0.25766 0.0
C474 C -0.00803 0.54098 0.24603 0.0
H475 H 0.96812 0.45042 0.28998 0.0
C476 C 0.00366 0.58929 0.25847 0.0
H477 H 0.96952 0.45304 0.24847 0.0
C478 C 0.00382 0.58798 0.28216 0.0
C479 C -0.00908 0.53797 0.29371 0.0
H480 H 0.014 0.62844 0.2499 0.0
H481 H 0.01399 0.62594 0.29147 0.0
C482 C 0.97786 0.4893 0.28133 0.0
loop_
_geom_bond_atom_site_label_1
_geom_bond_atom_site_label_2
_geom_bond_distance
_geom_bond_site_symmetry_2
_ccdc_geom_bond_type
O0 Zn1 1.953 . S
O0 C16 1.225 1_655 S
Zn1 O0 1.953 . S
Zn1 O2 1.949 1_655 S
Zn1 O8 1.919 . S
Zn1 O13 1.924 1_655 S
O2 Zn1 1.949 1_455 S
O2 Zn3 1.923 1_455 S
O2 Zn4 1.950 . S
O2 Zn5 1.945 . S
Zn3 O2 1.923 1_655 S
Zn3 O6 1.933 . S
Zn3 O9 1.941 . S
Zn3 O10 1.965 . S
Zn4 O2 1.950 . S
Zn4 O11 1.938 1_455 S
Zn4 O12 1.906 . S
Zn4 O22 1.953 . S
Zn5 O2 1.945 . S
Zn5 O7 1.932 . S
Zn5 O14 1.977 . S
Zn5 O15 1.910 . S
O6 Zn3 1.933 . S
O6 C17 1.226 1_655 S
O7 Zn5 1.932 . S
O7 C17 1.307 . S
O8 Zn1 1.919 . S
O8 C19 1.253 . S
O9 Zn3 1.941 . S
O9 C19 1.283 . S
O10 Zn3 1.965 . S
O10 C18 1.303 . S
O11 Zn4 1.938 1_655 S
O11 C18 1.247 . S
O12 Zn4 1.906 . S
O12 C20 1.304 . S
O13 Zn1 1.924 1_455 S
O13 C21 1.311 . S
O14 Zn5 1.977 . S
O14 C20 1.272 . S
O15 Zn5 1.910 . S
O15 C21 1.231 . S
C16 O0 1.225 1_455 S
C16 O22 1.298 . S
C17 O6 1.226 1_455 S
C17 O7 1.307 . S
C18 O10 1.303 . S
C18 O11 1.247 . S
C19 O8 1.253 . S
C19 O9 1.283 . S
C20 O12 1.304 . S
C20 O14 1.272 . S
C21 O13 1.311 . S
C21 O15 1.231 . S
O22 Zn4 1.953 . S
O22 C16 1.298 . S
O23 Zn24 1.953 . S
O23 C39 1.225 . S
Zn24 O23 1.953 . S
Zn24 O25 1.949 . S
Zn24 O31 1.919 . S
Zn24 O36 1.924 1_545 S
O25 Zn24 1.949 . S
O25 Zn26 1.923 . S
O25 Zn27 1.950 1_545 S
O25 Zn28 1.945 1_545 S
Zn26 O25 1.923 . S
Zn26 O29 1.933 . S
Zn26 O32 1.941 . S
Zn26 O33 1.965 . S
Zn27 O25 1.950 1_565 S
Zn27 O34 1.938 1_565 S
Zn27 O35 1.906 . S
Zn27 O45 1.953 . S
Zn28 O25 1.945 1_565 S
Zn28 O30 1.932 . S
Zn28 O37 1.977 . S
Zn28 O38 1.910 . S
O29 Zn26 1.933 . S
O29 C40 1.226 . S
O30 Zn28 1.932 . S
O30 C40 1.307 1_565 S
O31 Zn24 1.919 . S
O31 C42 1.253 . S
O32 Zn26 1.941 . S
O32 C42 1.283 . S
O33 Zn26 1.965 . S
O33 C41 1.303 . S
O34 Zn27 1.938 1_545 S
O34 C41 1.247 . S
O35 Zn27 1.906 . S
O35 C43 1.304 . S
O36 Zn24 1.924 1_565 S
O36 C44 1.311 . S
O37 Zn28 1.977 . S
O37 C43 1.272 . S
O38 Zn28 1.910 . S
O38 C44 1.231 . S
C39 O23 1.225 . S
C39 O45 1.298 1_545 S
C40 O29 1.226 . S
C40 O30 1.307 1_545 S
C41 O33 1.303 . S
C41 O34 1.247 . S
C42 O31 1.253 . S
C42 O32 1.283 . S
C43 O35 1.304 . S
C43 O37 1.272 . S
C44 O36 1.311 . S
C44 O38 1.231 . S
O45 Zn27 1.953 . S
O45 C39 1.298 1_565 S
O46 Zn47 1.953 . S
O46 C62 1.225 . S
Zn47 O46 1.953 . S
Zn47 O48 1.949 . S
Zn47 O54 1.919 . S
Zn47 O59 1.924 . S
O48 Zn47 1.949 . S
O48 Zn49 1.923 . S
O48 Zn50 1.950 . S
O48 Zn51 1.945 . S
Zn49 O48 1.923 . S
Zn49 O52 1.933 . S
Zn49 O55 1.941 . S
Zn49 O56 1.965 . S
Zn50 O48 1.950 . S
Zn50 O57 1.938 . S
Zn50 O58 1.906 . S
Zn50 O68 1.953 . S
Zn51 O48 1.945 . S
Zn51 O53 1.932 . S
Zn51 O60 1.977 . S
Zn51 O61 1.910 . S
O52 Zn49 1.933 . S
O52 C63 1.226 . S
O53 Zn51 1.932 . S
O53 C63 1.307 . S
O54 Zn47 1.919 . S
O54 C65 1.253 . S
O55 Zn49 1.941 . S
O55 C65 1.283 . S
O56 Zn49 1.965 . S
O56 C64 1.303 . S
O57 Zn50 1.938 . S
O57 C64 1.247 . S
O58 Zn50 1.906 . S
O58 C66 1.304 . S
O59 Zn47 1.924 . S
O59 C67 1.311 . S
O60 Zn51 1.977 . S
O60 C66 1.272 . S
O61 Zn51 1.910 . S
O61 C67 1.231 . S
C62 O46 1.225 . S
C62 O68 1.298 . S
C63 O52 1.226 . S
C63 O53 1.307 . S
C64 O56 1.303 . S
C64 O57 1.247 . S
C65 O54 1.253 . S
C65 O55 1.283 . S
C66 O58 1.304 . S
C66 O60 1.272 . S
C67 O59 1.311 . S
C67 O61 1.231 . S
O68 Zn50 1.953 . S
O68 C62 1.298 . S
C69 C70 1.386 . S
C69 C71 1.397 . S
C69 H93 0.931 . S
C70 C69 1.386 . S
C70 C74 1.397 1_545 S
C71 C69 1.397 . S
C71 C72 1.384 . S
C71 H94 0.930 . S
C72 C71 1.384 . S
C72 C73 1.377 1_545 S
C72 C75 1.481 . S
C73 C72 1.377 1_565 S
C73 C74 1.389 . S
C73 H95 0.929 . S
C74 C70 1.397 1_565 S
C74 C73 1.389 . S
C74 H96 0.931 . S
C75 C72 1.481 . S
C75 C76 1.387 . S
C75 C80 1.390 1_545 S
C76 C75 1.387 . S
C76 C77 1.401 . S
C76 H97 0.930 . S
C77 C76 1.401 . S
C77 C78 1.376 . S
C77 C86 1.511 . S
C78 C77 1.376 . S
C78 C79 1.392 1_545 S
C78 H99 0.931 . S
C79 C78 1.392 1_565 S
C79 C80 1.361 . S
C79 C81 1.500 . S
C80 C75 1.390 1_565 S
C80 C79 1.361 . S
C80 H98 0.931 . S
C81 C79 1.500 . S
C81 C82 1.371 . S
C81 C83 1.365 . S
C82 C81 1.371 . S
C82 C92 1.386 . S
C82 H100 0.931 . S
C83 C81 1.365 . S
C83 C84 1.409 . S
C83 H101 0.929 . S
C84 C83 1.409 . S
C84 C85 1.380 . S
C84 H102 0.930 . S
C85 C84 1.380 . S
C85 C92 1.357 . S
C86 C77 1.511 . S
C86 C87 1.341 . S
C86 C88 1.371 . S
C87 C86 1.341 . S
C87 C91 1.394 . S
C87 H103 0.930 . S
C88 C86 1.371 . S
C88 C89 1.392 . S
C88 H104 0.931 . S
C89 C88 1.392 . S
C89 C90 1.331 . S
C89 H107 0.932 . S
C90 C89 1.331 . S
C90 C91 1.336 . S
C91 C87 1.394 . S
C91 C90 1.336 . S
C91 H106 0.929 . S
C92 C82 1.386 . S
C92 C85 1.357 . S
C92 H105 0.928 . S
H93 C69 0.931 . S
H94 C71 0.930 . S
H95 C73 0.929 . S
H96 C74 0.931 . S
H97 C76 0.930 . S
H98 C80 0.931 . S
H99 C78 0.931 . S
H100 C82 0.931 . S
H101 C83 0.929 . S
H102 C84 0.930 . S
H103 C87 0.930 . S
H104 C88 0.931 . S
H105 C92 0.928 . S
H106 C91 0.929 . S
H107 C89 0.932 . S
C108 C109 1.386 . S
C108 C110 1.397 . S
C108 H132 0.931 . S
C109 C108 1.386 . S
C109 C113 1.397 . S
C110 C108 1.397 . S
C110 C111 1.384 . S
C110 H133 0.930 . S
C111 C110 1.384 . S
C111 C112 1.377 . S
C111 C114 1.481 . S
C112 C111 1.377 . S
C112 C113 1.389 . S
C112 H134 0.929 . S
C113 C109 1.397 . S
C113 C112 1.389 . S
C113 H135 0.931 . S
C114 C111 1.481 . S
C114 C115 1.387 . S
C114 C119 1.390 . S
C115 C114 1.387 . S
C115 C116 1.401 . S
C115 H136 0.930 . S
C116 C115 1.401 . S
C116 C117 1.376 . S
C116 C125 1.511 . S
C117 C116 1.376 . S
C117 C118 1.392 . S
C117 H138 0.931 . S
C118 C117 1.392 . S
C118 C119 1.361 . S
C118 C120 1.500 . S
C119 C114 1.390 . S
C119 C118 1.361 . S
C119 H137 0.931 . S
C120 C118 1.500 . S
C120 C121 1.371 . S
C120 C122 1.365 . S
C121 C120 1.371 . S
C121 C131 1.386 . S
C121 H139 0.931 . S
C122 C120 1.365 . S
C122 C123 1.409 . S
C122 H140 0.929 . S
C123 C122 1.409 . S
C123 C124 1.380 . S
C123 H141 0.930 . S
C124 C123 1.380 . S
C124 C131 1.357 . S
C125 C116 1.511 . S
C125 C126 1.341 . S
C125 C127 1.371 . S
C126 C125 1.341 . S
C126 C130 1.394 . S
C126 H142 0.930 . S
C127 C125 1.371 . S
C127 C128 1.392 . S
C127 H143 0.931 . S
C128 C127 1.392 . S
C128 C129 1.331 . S
C128 H146 0.932 . S
C129 C128 1.331 . S
C129 C130 1.336 . S
C130 C126 1.394 . S
C130 C129 1.336 . S
C130 H145 0.929 . S
C131 C121 1.386 . S
C131 C124 1.357 . S
C131 H144 0.928 . S
H132 C108 0.931 . S
H133 C110 0.930 . S
H134 C112 0.929 . S
H135 C113 0.931 . S
H136 C115 0.930 . S
H137 C119 0.931 . S
H138 C117 0.931 . S
H139 C121 0.931 . S
H140 C122 0.929 . S
H141 C123 0.930 . S
H142 C126 0.930 . S
H143 C127 0.931 . S
H144 C131 0.928 . S
H145 C130 0.929 . S
H146 C128 0.932 . S
C147 C148 1.386 1_556 S
C147 C149 1.397 . S
C147 H171 0.931 1_556 S
C148 C147 1.386 1_554 S
C148 C152 1.397 1_454 S
C149 C147 1.397 . S
C149 C150 1.384 . S
C149 H172 0.930 . S
C150 C149 1.384 . S
C150 C151 1.377 1_455 S
C150 C153 1.481 . S
C151 C150 1.377 1_655 S
C151 C152 1.389 . S
C151 H173 0.929 . S
C152 C148 1.397 1_656 S
C152 C151 1.389 . S
C152 H174 0.931 1_556 S
C153 C150 1.481 . S
C153 C154 1.387 . S
C153 C158 1.390 1_455 S
C154 C153 1.387 . S
C154 C155 1.401 . S
C154 H175 0.930 . S
C155 C154 1.401 . S
C155 C156 1.376 . S
C155 C164 1.511 . S
C156 C155 1.376 . S
C156 C157 1.392 1_455 S
C156 H177 0.931 . S
C157 C156 1.392 1_655 S
C157 C158 1.361 . S
C157 C159 1.500 . S
C158 C153 1.390 1_655 S
C158 C157 1.361 . S
C158 H176 0.931 . S
C159 C157 1.500 . S
C159 C160 1.371 . S
C159 C161 1.365 . S
C160 C159 1.371 . S
C160 C170 1.386 . S
C160 H178 0.931 . S
C161 C159 1.365 . S
C161 C162 1.409 . S
C161 H179 0.929 . S
C162 C161 1.409 . S
C162 C163 1.380 . S
C162 H180 0.930 . S
C163 C162 1.380 . S
C163 C170 1.357 . S
C164 C155 1.511 . S
C164 C165 1.341 . S
C164 C166 1.371 . S
C165 C164 1.341 . S
C165 C169 1.394 . S
C165 H181 0.930 . S
C166 C164 1.371 . S
C166 C167 1.392 . S
C166 H182 0.931 . S
C167 C166 1.392 . S
C167 C168 1.331 . S
C167 H185 0.932 . S
C168 C167 1.331 . S
C168 C169 1.336 . S
C169 C165 1.394 . S
C169 C168 1.336 . S
C169 H184 0.929 . S
C170 C160 1.386 . S
C170 C163 1.357 . S
C170 H183 0.928 . S
H171 C147 0.931 1_554 S
H172 C149 0.930 . S
H173 C151 0.929 . S
H174 C152 0.931 1_554 S
H175 C154 0.930 . S
H176 C158 0.931 . S
H177 C156 0.931 . S
H178 C160 0.931 . S
H179 C161 0.929 . S
H180 C162 0.930 . S
H181 C165 0.930 . S
H182 C166 0.931 . S
H183 C170 0.928 . S
H184 C169 0.929 . S
H185 C167 0.932 . S
C186 C187 1.386 1_655 S
C186 C188 1.397 . S
C186 H210 0.931 . S
C187 C186 1.386 1_455 S
C187 C191 1.397 . S
C188 C186 1.397 . S
C188 C189 1.384 1_655 S
C188 H211 0.930 . S
C189 C188 1.384 1_455 S
C189 C190 1.377 . S
C189 C192 1.481 . S
C190 C189 1.377 . S
C190 C191 1.389 . S
C190 H212 0.929 . S
C191 C187 1.397 . S
C191 C190 1.389 . S
C191 H213 0.931 . S
C192 C189 1.481 . S
C192 C193 1.387 1_455 S
C192 C197 1.390 . S
C193 C192 1.387 1_655 S
C193 C194 1.401 . S
C193 H214 0.930 . S
C194 C193 1.401 . S
C194 C195 1.376 1_655 S
C194 C203 1.511 . S
C195 C194 1.376 1_455 S
C195 C196 1.392 . S
C195 H216 0.931 . S
C196 C195 1.392 . S
C196 C197 1.361 . S
C196 C198 1.500 . S
C197 C192 1.390 . S
C197 C196 1.361 . S
C197 H215 0.931 . S
C198 C196 1.500 . S
C198 C199 1.371 . S
C198 C200 1.365 . S
C199 C198 1.371 . S
C199 C209 1.386 . S
C199 H217 0.931 . S
C200 C198 1.365 . S
C200 C201 1.409 . S
C200 H218 0.929 . S
C201 C200 1.409 . S
C201 C202 1.380 . S
C201 H219 0.930 . S
C202 C201 1.380 . S
C202 C209 1.357 . S
C203 C194 1.511 . S
C203 C204 1.341 . S
C203 C205 1.371 . S
C204 C203 1.341 . S
C204 C208 1.394 . S
C204 H220 0.930 . S
C205 C203 1.371 . S
C205 C206 1.392 . S
C205 H221 0.931 . S
C206 C205 1.392 . S
C206 C207 1.331 . S
C206 H224 0.932 . S
C207 C206 1.331 . S
C207 C208 1.336 . S
C208 C204 1.394 . S
C208 C207 1.336 . S
C208 H223 0.929 . S
C209 C199 1.386 . S
C209 C202 1.357 . S
C209 H222 0.928 . S
H210 C186 0.931 . S
H211 C188 0.930 . S
H212 C190 0.929 . S
H213 C191 0.931 . S
H214 C193 0.930 . S
H215 C197 0.931 . S
H216 C195 0.931 . S
H217 C199 0.931 . S
H218 C200 0.929 . S
H219 C201 0.930 . S
H220 C204 0.930 . S
H221 C205 0.931 . S
H222 C209 0.928 . S
H223 C208 0.929 . S
H224 C206 0.932 . S
C225 C226 1.386 1_565 S
C225 C227 1.397 . S
C225 H249 0.931 . S
C226 C225 1.386 1_545 S
C226 C230 1.397 . S
C227 C225 1.397 . S
C227 C228 1.384 1_565 S
C227 H250 0.930 . S
C228 C227 1.384 1_545 S
C228 C229 1.377 . S
C228 C231 1.481 . S
C229 C228 1.377 . S
C229 C230 1.389 . S
C229 H251 0.929 . S
C230 C226 1.397 . S
C230 C229 1.389 . S
C230 H252 0.931 . S
C231 C228 1.481 . S
C231 C232 1.387 1_545 S
C231 C236 1.390 . S
C232 C231 1.387 1_565 S
C232 C233 1.401 . S
C232 H253 0.930 . S
C233 C232 1.401 . S
C233 C234 1.376 1_565 S
C233 C242 1.511 . S
C234 C233 1.376 1_545 S
C234 C235 1.392 . S
C234 H255 0.931 . S
C235 C234 1.392 . S
C235 C236 1.361 . S
C235 C237 1.500 . S
C236 C231 1.390 . S
C236 C235 1.361 . S
C236 H254 0.931 . S
C237 C235 1.500 . S
C237 C238 1.371 . S
C237 C239 1.365 . S
C238 C237 1.371 . S
C238 C248 1.386 . S
C238 H256 0.931 . S
C239 C237 1.365 . S
C239 C240 1.409 . S
C239 H257 0.929 . S
C240 C239 1.409 . S
C240 C241 1.380 . S
C240 H258 0.930 . S
C241 C240 1.380 . S
C241 C248 1.357 . S
C242 C233 1.511 . S
C242 C243 1.341 . S
C242 C244 1.371 . S
C243 C242 1.341 . S
C243 C247 1.394 . S
C243 H259 0.930 . S
C244 C242 1.371 . S
C244 C245 1.392 . S
C244 H260 0.931 . S
C245 C244 1.392 . S
C245 C246 1.331 . S
C245 H263 0.932 . S
C246 C245 1.331 . S
C246 C247 1.336 . S
C247 C243 1.394 . S
C247 C246 1.336 . S
C247 H262 0.929 . S
C248 C238 1.386 . S
C248 C241 1.357 . S
C248 H261 0.928 . S
H249 C225 0.931 . S
H250 C227 0.930 . S
H251 C229 0.929 . S
H252 C230 0.931 . S
H253 C232 0.930 . S
H254 C236 0.931 . S
H255 C234 0.931 . S
H256 C238 0.931 . S
H257 C239 0.929 . S
H258 C240 0.930 . S
H259 C243 0.930 . S
H260 C244 0.931 . S
H261 C248 0.928 . S
H262 C247 0.929 . S
H263 C245 0.932 . S
C264 C265 1.386 1_554 S
C264 C266 1.397 . S
C264 H288 0.931 1_554 S
C265 C264 1.386 1_556 S
C265 C269 1.397 1_556 S
C266 C264 1.397 . S
C266 C267 1.384 . S
C266 H289 0.930 . S
C267 C266 1.384 . S
C267 C268 1.377 . S
C267 C270 1.481 . S
C268 C267 1.377 . S
C268 C269 1.389 . S
C268 H290 0.929 . S
C269 C265 1.397 1_554 S
C269 C268 1.389 . S
C269 H291 0.931 1_554 S
C270 C267 1.481 . S
C270 C271 1.387 . S
C270 C275 1.390 . S
C271 C270 1.387 . S
C271 C272 1.401 . S
C271 H292 0.930 . S
C272 C271 1.401 . S
C272 C273 1.376 . S
C272 C281 1.511 . S
C273 C272 1.376 . S
C273 C274 1.392 . S
C273 H294 0.931 . S
C274 C273 1.392 . S
C274 C275 1.361 . S
C274 C276 1.500 . S
C275 C270 1.390 . S
C275 C274 1.361 . S
C275 H293 0.931 . S
C276 C274 1.500 . S
C276 C277 1.371 . S
C276 C278 1.365 . S
C277 C276 1.371 . S
C277 C287 1.386 . S
C277 H295 0.931 . S
C278 C276 1.365 . S
C278 C279 1.409 . S
C278 H296 0.929 . S
C279 C278 1.409 . S
C279 C280 1.380 . S
C279 H297 0.930 . S
C280 C279 1.380 . S
C280 C287 1.357 . S
C281 C272 1.511 . S
C281 C282 1.341 . S
C281 C283 1.371 . S
C282 C281 1.341 . S
C282 C286 1.394 . S
C282 H298 0.930 . S
C283 C281 1.371 . S
C283 C284 1.392 . S
C283 H299 0.931 . S
C284 C283 1.392 . S
C284 C285 1.331 . S
C284 H302 0.932 . S
C285 C284 1.331 . S
C285 C286 1.336 . S
C286 C282 1.394 . S
C286 C285 1.336 . S
C286 H301 0.929 . S
C287 C277 1.386 . S
C287 C280 1.357 . S
C287 H300 0.928 . S
H288 C264 0.931 1_556 S
H289 C266 0.930 . S
H290 C268 0.929 . S
H291 C269 0.931 1_556 S
H292 C271 0.930 . S
H293 C275 0.931 . S
H294 C273 0.931 . S
H295 C277 0.931 . S
H296 C278 0.929 . S
H297 C279 0.930 . S
H298 C282 0.930 . S
H299 C283 0.931 . S
H300 C287 0.928 . S
H301 C286 0.929 . S
H302 C284 0.932 . S
C303 C304 1.387 . S
C303 H307 0.950 . S
C303 C312 1.390 . S
C304 C303 1.387 . S
C304 C306 1.387 . S
H305 C312 0.950 . S
C306 C304 1.387 . S
C306 C308 1.390 . S
C306 H310 0.950 . S
H307 C303 0.950 . S
C308 C306 1.390 . S
C308 C309 1.387 . S
C308 H311 0.950 . S
C309 C308 1.387 . S
C309 C312 1.387 . S
H310 C306 0.950 . S
H311 C308 0.950 . S
C312 C303 1.390 . S
C312 H305 0.950 . S
C312 C309 1.387 . S
C313 C314 1.387 . S
C313 H317 0.950 . S
C313 C322 1.390 . S
C314 C313 1.387 . S
C314 C316 1.387 . S
H315 C322 0.950 . S
C316 C314 1.387 . S
C316 C318 1.390 . S
C316 H320 0.950 . S
H317 C313 0.950 . S
C318 C316 1.390 . S
C318 C319 1.387 . S
C318 H321 0.950 . S
C319 C318 1.387 . S
C319 C322 1.387 . S
H320 C316 0.950 . S
H321 C318 0.950 . S
C322 C313 1.390 . S
C322 H315 0.950 . S
C322 C319 1.387 . S
C323 C324 1.387 . S
C323 H327 0.950 . S
C323 C332 1.390 . S
C324 C323 1.387 . S
C324 C326 1.387 . S
H325 C332 0.950 . S
C326 C324 1.387 . S
C326 C328 1.390 . S
C326 H330 0.950 . S
H327 C323 0.950 . S
C328 C326 1.390 . S
C328 C329 1.387 . S
C328 H331 0.950 . S
C329 C328 1.387 . S
C329 C332 1.387 . S
H330 C326 0.950 . S
H331 C328 0.950 . S
C332 C323 1.390 . S
C332 H325 0.950 . S
C332 C329 1.387 . S
C333 C334 1.387 . S
C333 H337 0.950 . S
C333 C342 1.390 . S
C334 C333 1.387 . S
C334 C336 1.387 . S
H335 C342 0.950 . S
C336 C334 1.387 . S
C336 C338 1.390 . S
C336 H340 0.950 . S
H337 C333 0.950 . S
C338 C336 1.390 . S
C338 C339 1.387 . S
C338 H341 0.950 . S
C339 C338 1.387 . S
C339 C342 1.387 . S
H340 C336 0.950 . S
H341 C338 0.950 . S
C342 C333 1.390 . S
C342 H335 0.950 . S
C342 C339 1.387 . S
C343 C344 1.387 . S
C343 H347 0.950 . S
C343 C352 1.390 . S
C344 C343 1.387 . S
C344 C346 1.387 . S
H345 C352 0.950 . S
C346 C344 1.387 . S
C346 C348 1.390 . S
C346 H350 0.950 . S
H347 C343 0.950 . S
C348 C346 1.390 . S
C348 C349 1.387 . S
C348 H351 0.950 . S
C349 C348 1.387 . S
C349 C352 1.387 . S
H350 C346 0.950 . S
H351 C348 0.950 . S
C352 C343 1.390 . S
C352 H345 0.950 . S
C352 C349 1.387 . S
C353 C354 1.387 . S
C353 H357 0.950 . S
C353 C362 1.390 . S
C354 C353 1.387 . S
C354 C356 1.387 . S
H355 C362 0.950 . S
C356 C354 1.387 . S
C356 C358 1.390 . S
C356 H360 0.950 . S
H357 C353 0.950 . S
C358 C356 1.390 . S
C358 C359 1.387 . S
C358 H361 0.950 . S
C359 C358 1.387 . S
C359 C362 1.387 . S
H360 C356 0.950 . S
H361 C358 0.950 . S
C362 C353 1.390 . S
C362 H355 0.950 . S
C362 C359 1.387 . S
C363 C364 1.387 . S
C363 H367 0.950 . S
C363 C372 1.390 . S
C364 C363 1.387 . S
C364 C366 1.387 . S
H365 C372 0.950 . S
C366 C364 1.387 . S
C366 C368 1.390 . S
C366 H370 0.950 . S
H367 C363 0.950 . S
C368 C366 1.390 . S
C368 C369 1.387 . S
C368 H371 0.950 . S
C369 C368 1.387 . S
C369 C372 1.387 . S
H370 C366 0.950 . S
H371 C368 0.950 . S
C372 C363 1.390 . S
C372 H365 0.950 . S
C372 C369 1.387 . S
C373 C374 1.387 . S
C373 H377 0.950 . S
C373 C382 1.390 . S
C374 C373 1.387 . S
C374 C376 1.387 . S
H375 C382 0.950 . S
C376 C374 1.387 . S
C376 C378 1.390 . S
C376 H380 0.950 . S
H377 C373 0.950 . S
C378 C376 1.390 . S
C378 C379 1.387 . S
C378 H381 0.950 . S
C379 C378 1.387 . S
C379 C382 1.387 . S
H380 C376 0.950 . S
H381 C378 0.950 . S
C382 C373 1.390 . S
C382 H375 0.950 . S
C382 C379 1.387 . S
C383 C384 1.387 . S
C383 H387 0.950 . S
C383 C392 1.390 . S
C384 C383 1.387 . S
C384 C386 1.387 . S
H385 C392 0.950 . S
C386 C384 1.387 . S
C386 C388 1.390 . S
C386 H390 0.950 . S
H387 C383 0.950 . S
C388 C386 1.390 . S
C388 C389 1.387 . S
C388 H391 0.950 . S
C389 C388 1.387 . S
C389 C392 1.387 . S
H390 C386 0.950 . S
H391 C388 0.950 . S
C392 C383 1.390 . S
C392 H385 0.950 . S
C392 C389 1.387 . S
C393 C394 1.387 . S
C393 H397 0.950 . S
C393 C402 1.390 . S
C394 C393 1.387 . S
C394 C396 1.387 . S
H395 C402 0.950 . S
C396 C394 1.387 . S
C396 C398 1.390 . S
C396 H400 0.950 . S
H397 C393 0.950 . S
C398 C396 1.390 . S
C398 C399 1.387 . S
C398 H401 0.950 . S
C399 C398 1.387 . S
C399 C402 1.387 . S
H400 C396 0.950 . S
H401 C398 0.950 . S
C402 C393 1.390 . S
C402 H395 0.950 . S
C402 C399 1.387 . S
C403 C404 1.387 . S
C403 H407 0.950 . S
C403 C412 1.390 . S
C404 C403 1.387 . S
C404 C406 1.387 . S
H405 C412 0.950 . S
C406 C404 1.387 . S
C406 C408 1.390 . S
C406 H410 0.950 . S
H407 C403 0.950 . S
C408 C406 1.390 . S
C408 C409 1.387 . S
C408 H411 0.950 . S
C409 C408 1.387 . S
C409 C412 1.387 . S
H410 C406 0.950 . S
H411 C408 0.950 . S
C412 C403 1.390 . S
C412 H405 0.950 . S
C412 C409 1.387 . S
C413 C414 1.387 . S
C413 H417 0.950 . S
C413 C422 1.390 . S
C414 C413 1.387 . S
C414 C416 1.387 . S
H415 C422 0.950 . S
C416 C414 1.387 . S
C416 C418 1.390 . S
C416 H420 0.950 . S
H417 C413 0.950 . S
C418 C416 1.390 . S
C418 C419 1.387 . S
C418 H421 0.950 . S
C419 C418 1.387 . S
C419 C422 1.387 . S
H420 C416 0.950 . S
H421 C418 0.950 . S
C422 C413 1.390 . S
C422 H415 0.950 . S
C422 C419 1.387 . S
C423 C424 1.387 . S
C423 H427 0.950 . S
C423 C432 1.390 . S
C424 C423 1.387 . S
C424 C426 1.387 1_455 S
H425 C432 0.950 . S
C426 C424 1.387 1_655 S
C426 C428 1.390 . S
C426 H430 0.950 . S
H427 C423 0.950 . S
C428 C426 1.390 . S
C428 C429 1.387 1_655 S
C428 H431 0.950 . S
C429 C428 1.387 1_455 S
C429 C432 1.387 . S
H430 C426 0.950 . S
H431 C428 0.950 . S
C432 C423 1.390 . S
C432 H425 0.950 . S
C432 C429 1.387 . S
C433 C434 1.387 . S
C433 H437 0.950 . S
C433 C442 1.390 . S
C434 C433 1.387 . S
C434 C436 1.387 1_545 S
H435 C442 0.950 . S
C436 C434 1.387 1_565 S
C436 C438 1.390 . S
C436 H440 0.950 . S
H437 C433 0.950 . S
C438 C436 1.390 . S
C438 C439 1.387 1_565 S
C438 H441 0.950 . S
C439 C438 1.387 1_545 S
C439 C442 1.387 . S
H440 C436 0.950 . S
H441 C438 0.950 . S
C442 C433 1.390 . S
C442 H435 0.950 . S
C442 C439 1.387 . S
C443 C444 1.387 . S
C443 H447 0.950 . S
C443 C452 1.390 . S
C444 C443 1.387 . S
C444 C446 1.387 . S
H445 C452 0.950 . S
C446 C444 1.387 . S
C446 C448 1.390 . S
C446 H450 0.950 . S
H447 C443 0.950 . S
C448 C446 1.390 . S
C448 C449 1.387 . S
C448 H451 0.950 . S
C449 C448 1.387 . S
C449 C452 1.387 . S
H450 C446 0.950 . S
H451 C448 0.950 . S
C452 C443 1.390 . S
C452 H445 0.950 . S
C452 C449 1.387 . S
C453 C454 1.387 . S
C453 H457 0.950 . S
C453 C462 1.390 . S
C454 C453 1.387 . S
C454 C456 1.387 1_545 S
H455 C462 0.950 . S
C456 C454 1.387 1_565 S
C456 C458 1.390 . S
C456 H460 0.950 . S
H457 C453 0.950 . S
C458 C456 1.390 . S
C458 C459 1.387 1_565 S
C458 H461 0.950 . S
C459 C458 1.387 1_545 S
C459 C462 1.387 . S
H460 C456 0.950 . S
H461 C458 0.950 . S
C462 C453 1.390 . S
C462 H455 0.950 . S
C462 C459 1.387 . S
C463 C464 1.387 . S
C463 H467 0.950 . S
C463 C472 1.390 . S
C464 C463 1.387 . S
C464 C466 1.387 . S
H465 C472 0.950 . S
C466 C464 1.387 . S
C466 C468 1.390 . S
C466 H470 0.950 . S
H467 C463 0.950 . S
C468 C466 1.390 . S
C468 C469 1.387 . S
C468 H471 0.950 . S
C469 C468 1.387 . S
C469 C472 1.387 . S
H470 C466 0.950 . S
H471 C468 0.950 . S
C472 C463 1.390 . S
C472 H465 0.950 . S
C472 C469 1.387 . S
C473 C474 1.387 1_655 S
C473 H477 0.950 . S
C473 C482 1.390 . S
C474 C473 1.387 1_455 S
C474 C476 1.387 . S
H475 C482 0.950 . S
C476 C474 1.387 . S
C476 C478 1.390 . S
C476 H480 0.950 . S
H477 C473 0.950 . S
C478 C476 1.390 . S
C478 C479 1.387 . S
C478 H481 0.950 . S
C479 C478 1.387 . S
C479 C482 1.387 1_455 S
H480 C476 0.950 . S
H481 C478 0.950 . S
C482 C473 1.390 . S
C482 H475 0.950 . S
C482 C479 1.387 1_655 S
C304 C20 1.279 . S
C309 C280 1.324 . S
C314 C41 1.369 . S
C319 C207 1.356 . S
C324 C64 1.403 . S
C329 C246 1.390 . S
C334 C19 1.315 . S
C339 C285 1.388 . S
C349 C202 1.348 . S
C344 C44 1.345 . S
C359 C241 1.330 . S
C354 C67 1.330 . S
C364 C43 1.273 . S
C369 C129 1.326 . S
C374 C66 1.279 . S
C379 C163 1.324 . S
C384 C21 1.344 . S
C389 C85 1.347 . S
C399 C124 1.371 . S
C394 C42 1.309 . S
C409 C168 1.389 . S
C404 C65 1.319 . S
C414 C18 1.372 . S
C419 C90 1.359 . S
C429 C148 1.471 . S
C424 C17 1.471 . S
C434 C39 1.466 . S
C439 C70 1.467 . S
C444 C62 1.484 . S
C449 C109 1.482 . S
C459 C226 1.454 . S
C454 C40 1.453 . S
C469 C265 1.471 . S
C464 C63 1.471 . S
C474 C16 1.466 . S
C479 C187 1.466 . S
