# Generated by pormake.
# Topology pyr, (3,6)-cn, num edge types: 1
# Building blocks:
#     Node 0, Type 0, BuildingBlock: BETDAH_clean_linker_0, # of connection points: 3
#     Node 1, Type 0, BuildingBlock: BETDAH_clean_linker_0, # of connection points: 3
#     Node 2, Type 0, BuildingBlock: BETDAH_clean_linker_0, # of connection points: 3
#     Node 3, Type 0, BuildingBlock: BETDAH_clean_linker_0, # of connection points: 3
#     Node 4, Type 0, BuildingBlock: BETDAH_clean_linker_0, # of connection points: 3
#     Node 5, Type 0, BuildingBlock: BETDAH_clean_linker_0, # of connection points: 3
#     Node 6, Type 0, BuildingBlock: BETDAH_clean_linker_0, # of connection points: 3
#     Node 7, Type 0, BuildingBlock: BETDAH_clean_linker_0, # of connection points: 3
#     Node 8, Type 1, BuildingBlock: VOLQOD_clean_sbu_1, # of connection points: 6
#     Node 9, Type 1, BuildingBlock: VOLQOD_clean_sbu_1, # of connection points: 6
#     Node 10, Type 1, BuildingBlock: VOLQOD_clean_sbu_1, # of connection points: 6
#     Node 11, Type 1, BuildingBlock: VOLQOD_clean_sbu_1, # of connection points: 6
#     Edge 12, Type (0, 1), BuildingBlock: XUDNAN_clean_linker_2, # of connection points: 2
#     Edge 13, Type (0, 1), BuildingBlock: XUDNAN_clean_linker_2, # of connection points: 2
#     Edge 14, Type (0, 1), BuildingBlock: XUDNAN_clean_linker_2, # of connection points: 2
#     Edge 15, Type (0, 1), BuildingBlock: XUDNAN_clean_linker_2, # of connection points: 2
#     Edge 16, Type (0, 1), BuildingBlock: XUDNAN_clean_linker_2, # of connection points: 2
#     Edge 17, Type (0, 1), BuildingBlock: XUDNAN_clean_linker_2, # of connection points: 2
#     Edge 18, Type (0, 1), BuildingBlock: XUDNAN_clean_linker_2, # of connection points: 2
#     Edge 19, Type (0, 1), BuildingBlock: XUDNAN_clean_linker_2, # of connection points: 2
#     Edge 20, Type (0, 1), BuildingBlock: XUDNAN_clean_linker_2, # of connection points: 2
#     Edge 21, Type (0, 1), BuildingBlock: XUDNAN_clean_linker_2, # of connection points: 2
#     Edge 22, Type (0, 1), BuildingBlock: XUDNAN_clean_linker_2, # of connection points: 2
#     Edge 23, Type (0, 1), BuildingBlock: XUDNAN_clean_linker_2, # of connection points: 2
#     Edge 24, Type (0, 1), BuildingBlock: XUDNAN_clean_linker_2, # of connection points: 2
#     Edge 25, Type (0, 1), BuildingBlock: XUDNAN_clean_linker_2, # of connection points: 2
#     Edge 26, Type (0, 1), BuildingBlock: XUDNAN_clean_linker_2, # of connection points: 2
#     Edge 27, Type (0, 1), BuildingBlock: XUDNAN_clean_linker_2, # of connection points: 2
#     Edge 28, Type (0, 1), BuildingBlock: XUDNAN_clean_linker_2, # of connection points: 2
#     Edge 29, Type (0, 1), BuildingBlock: XUDNAN_clean_linker_2, # of connection points: 2
#     Edge 30, Type (0, 1), BuildingBlock: XUDNAN_clean_linker_2, # of connection points: 2
#     Edge 31, Type (0, 1), BuildingBlock: XUDNAN_clean_linker_2, # of connection points: 2
#     Edge 32, Type (0, 1), BuildingBlock: XUDNAN_clean_linker_2, # of connection points: 2
#     Edge 33, Type (0, 1), BuildingBlock: XUDNAN_clean_linker_2, # of connection points: 2
#     Edge 34, Type (0, 1), BuildingBlock: XUDNAN_clean_linker_2, # of connection points: 2
#     Edge 35, Type (0, 1), BuildingBlock: XUDNAN_clean_linker_2, # of connection points: 2
# Relax obj value: 0.105
# Max RMSD: 0.189
# Mean RMSD: 0.148
data_MOF--net-pry--node1-VOLQOD_clean_sbu_1--node2-BETDAH_clean_linker_0--edge1-XUDNAN_clean_linker_2
_symmetry_space_group_name_H-M    P1
_symmetry_Int_Tables_number       1
_symmetry_cell_setting            triclinic
loop_
_symmetry_equiv_pos_as_xyz
'x, y, z'
_cell_length_a     35.997836
_cell_length_b     36.651224
_cell_length_c     38.259068
_cell_angle_alpha  90.444452
_cell_angle_beta   90.514166
_cell_angle_gamma 96.842861
loop_
_atom_site_label
_atom_site_type_symbol
_atom_site_fract_x
_atom_site_fract_y
_atom_site_fract_z
_atom_type_partial_charge
H0 H 0.18249 0.09734 0.21034 0.0
H1 H 0.1818 0.15027 0.11037 0.0
H2 H 0.11172 0.18271 0.19225 0.0
C3 C 0.17211 0.11732 0.19318 0.0
C4 C 0.14524 0.13931 0.20541 0.0
C5 C 0.18557 0.12113 0.15886 0.0
C6 C 0.17162 0.14688 0.13688 0.0
C7 C 0.14546 0.16928 0.14861 0.0
C8 C 0.13241 0.16578 0.1831 0.0
N9 N 0.13258 0.19401 0.12417 0.0
C10 C 0.11308 0.2237 0.13138 0.0
H11 H 0.43562 0.85057 0.7334 0.0
H12 H 0.39175 0.95434 0.74383 0.0
H13 H 0.37491 0.89329 0.64825 0.0
C14 C 0.42068 0.87187 0.72259 0.0
C15 C 0.40559 0.86766 0.68844 0.0
C16 C 0.41621 0.90314 0.74301 0.0
C17 C 0.39659 0.93039 0.72856 0.0
C18 C 0.38169 0.92699 0.69479 0.0
C19 C 0.38601 0.89557 0.67467 0.0
N20 N 0.36332 0.95643 0.68207 0.0
C21 C 0.33794 0.95454 0.65439 0.0
H22 H 0.63987 0.37519 0.96957 0.0
H23 H 0.62652 0.48168 0.92857 0.0
H24 H 0.52954 0.40539 0.9483 0.0
C25 C 0.62163 0.39524 0.96185 0.0
C26 C 0.58255 0.38556 0.96046 0.0
C27 C 0.63765 0.42995 0.95071 0.0
C28 C 0.61443 0.45516 0.93811 0.0
C29 C 0.57554 0.44629 0.93755 0.0
C30 C 0.55968 0.41194 0.94932 0.0
N31 N 0.55238 0.47061 0.92247 0.0
C32 C 0.5551 0.47816 0.88704 0.0
H33 H 0.86533 0.69804 0.45703 0.0
H34 H 0.93668 0.65364 0.38236 0.0
H35 H 0.83699 0.58803 0.41697 0.0
C36 C 0.87149 0.67539 0.44051 0.0
C37 C 0.84708 0.64262 0.43963 0.0
C38 C 0.90387 0.67933 0.42014 0.0
C39 C 0.91164 0.65052 0.39808 0.0
C40 C 0.88708 0.61768 0.39663 0.0
C41 C 0.85543 0.61366 0.4179 0.0
N42 N 0.89337 0.58823 0.37408 0.0
C43 C 0.91081 0.59348 0.34198 0.0
H44 H 0.93542 0.86767 0.83601 0.0
H45 H 0.90908 0.87597 0.94497 0.0
H46 H 0.89292 0.96468 0.87635 0.0
C47 C 0.92558 0.88306 0.85761 0.0
C48 C 0.91482 0.91824 0.85168 0.0
C49 C 0.92351 0.8673 0.89106 0.0
C50 C 0.91102 0.88753 0.91897 0.0
C51 C 0.89919 0.92205 0.9136 0.0
C52 C 0.90093 0.93739 0.87998 0.0
N53 N 0.8878 0.94145 0.94308 0.0
C54 C 0.85647 0.96027 0.94379 0.0
H55 H 0.67483 0.1006 0.3761 0.0
H56 H 0.6781 0.14468 0.48074 0.0
H57 H 0.61141 0.18944 0.40164 0.0
C58 C 0.66606 0.11986 0.39512 0.0
C59 C 0.64122 0.14471 0.38503 0.0
C60 C 0.6797 0.11975 0.42952 0.0
C61 C 0.66772 0.14441 0.45404 0.0
C62 C 0.64353 0.16984 0.44429 0.0
C63 C 0.63048 0.17021 0.4095 0.0
N64 N 0.63286 0.19419 0.47038 0.0
C65 C 0.61542 0.22535 0.46396 0.0
H66 H 0.36463 0.70728 0.10442 0.0
H67 H 0.3506 0.59241 0.12988 0.0
H68 H 0.43624 0.66521 0.18161 0.0
C69 C 0.37273 0.68477 0.11983 0.0
C70 C 0.40335 0.6906 0.14322 0.0
C71 C 0.3538 0.64935 0.11485 0.0
C72 C 0.36519 0.61983 0.13355 0.0
C73 C 0.39407 0.6256 0.15822 0.0
C74 C 0.41321 0.66096 0.16302 0.0
N75 N 0.40332 0.59541 0.17799 0.0
C76 C 0.41224 0.59899 0.21326 0.0
H77 H 0.13532 0.36834 0.58149 0.0
H78 H 0.13199 0.47549 0.62674 0.0
H79 H 0.0304 0.40272 0.61407 0.0
C80 C 0.1194 0.38864 0.59291 0.0
C81 C 0.08051 0.38067 0.59686 0.0
C82 C 0.13832 0.42245 0.60397 0.0
C83 C 0.11777 0.44945 0.61743 0.0
C84 C 0.0788 0.44244 0.62013 0.0
C85 C 0.06026 0.40823 0.60992 0.0
N86 N 0.05845 0.46841 0.63626 0.0
C87 C 0.0627 0.47476 0.67188 0.0
O88 O 0.9829 0.09748 0.55151 0.0
Zn89 Zn 0.97012 0.04317 0.54567 0.0
O90 O 0.00859 0.02197 0.52008 0.0
Zn91 Zn 0.98873 0.007 0.47314 0.0
Zn92 Zn 0.05194 0.05884 0.5153 0.0
Zn93 Zn 0.02289 0.98062 0.54747 0.0
O94 O 0.99056 0.9525 0.46745 0.0
O95 O 0.01167 0.93424 0.51871 0.0
O96 O 0.92119 0.03452 0.52092 0.0
O97 O 0.93379 0.01554 0.46752 0.0
O98 O 0.01887 0.03451 0.4342 0.0
O99 O 0.06007 0.07224 0.46479 0.0
O100 O 0.09919 0.04029 0.53328 0.0
O101 O 0.96196 0.0214 0.59314 0.0
O102 O 0.07852 0.98648 0.55665 0.0
O103 O 0.99666 0.97538 0.59501 0.0
C104 C 0.01387 0.11808 0.55016 0.0
C105 C 0.99981 0.9274 0.48755 0.0
C106 C 0.04585 0.06046 0.43565 0.0
C107 C 0.91075 0.02488 0.49009 0.0
C108 C 0.10523 0.01107 0.54914 0.0
C109 C 0.97343 0.99457 0.60919 0.0
O110 O 0.04368 0.10602 0.53974 0.0
O111 O 0.50021 0.10132 0.01499 0.0
Zn112 Zn 0.48587 0.04868 0.02982 0.0
O113 O 0.52232 0.03333 0.0633 0.0
Zn114 Zn 0.54164 0.98904 0.04617 0.0
Zn115 Zn 0.56433 0.07205 0.06853 0.0
Zn116 Zn 0.49788 0.02304 0.10843 0.0
O117 O 0.53247 0.94774 0.08027 0.0
O118 O 0.49481 0.96877 0.11948 0.0
O119 O 0.48152 0.01582 0.98689 0.0
O120 O 0.51549 0.97133 0.0015 0.0
O121 O 0.59659 0.99799 0.03479 0.0
O122 O 0.61224 0.05684 0.04815 0.0
O123 O 0.57247 0.0861 0.11921 0.0
O124 O 0.43472 0.04673 0.05185 0.0
O125 O 0.52703 0.05189 0.14719 0.0
O126 O 0.44468 0.03626 0.1081 0.0
C127 C 0.52741 0.12537 0.02343 0.0
C128 C 0.51156 0.94296 0.10689 0.0
C129 C 0.6207 0.0264 0.03606 0.0
C130 C 0.49378 0.9853 0.98034 0.0
C131 C 0.55562 0.07607 0.1473 0.0
C132 C 0.423 0.04327 0.08315 0.0
O133 O 0.55339 0.11772 0.04391 0.0
O134 O 0.53531 0.55836 0.62915 0.0
Zn135 Zn 0.52756 0.5837 0.58284 0.0
O136 O 0.49878 0.54892 0.54983 0.0
Zn137 Zn 0.52573 0.54405 0.5065 0.0
Zn138 Zn 0.48929 0.5 0.5703 0.0
Zn139 Zn 0.45166 0.56717 0.53837 0.0
O140 O 0.49924 0.5622 0.46491 0.0
O141 O 0.44606 0.57642 0.48701 0.0
O142 O 0.57916 0.60016 0.56281 0.0
O143 O 0.57588 0.57278 0.51061 0.0
O144 O 0.53388 0.49176 0.49581 0.0
O145 O 0.50954 0.46059 0.54117 0.0
O146 O 0.434 0.48536 0.57632 0.0
O147 O 0.50048 0.62893 0.5927 0.0
O148 O 0.40823 0.53201 0.55356 0.0
O149 O 0.44772 0.61482 0.5626 0.0
C150 C 0.52924 0.52475 0.63821 0.0
C151 C 0.46752 0.57373 0.46111 0.0
C152 C 0.5263 0.46162 0.51196 0.0
C153 C 0.59383 0.59327 0.53358 0.0
C154 C 0.40526 0.50087 0.5684 0.0
C155 C 0.46835 0.63652 0.58273 0.0
O156 O 0.51318 0.50013 0.61771 0.0
O157 O 0.9652 0.53934 0.08594 0.0
Zn158 Zn 0.97001 0.5094 0.04205 0.0
O159 O 0.00523 0.53774 0.01038 0.0
Zn160 Zn 0.98002 0.54391 0.96669 0.0
Zn161 Zn 0.02276 0.58722 0.02955 0.0
Zn162 Zn 0.04743 0.51015 1.00074 0.0
O163 O 0.00578 0.52424 0.92648 0.0
O164 O 0.05136 0.49639 0.94948 0.0
O165 O 0.9181 0.4955 0.0195 0.0
O166 O 0.92845 0.51863 0.96666 0.0
O167 O 0.97634 0.59622 0.95656 0.0
O168 O 0.00512 0.62871 1.00003 0.0
O169 O 0.0797 0.59496 0.03208 0.0
O170 O 0.99057 0.46267 0.0575 0.0
O171 O 0.09518 0.54167 0.01219 0.0
O172 O 0.04492 0.46436 0.03015 0.0
C173 C 0.9803 0.57055 0.09719 0.0
C174 C 0.03303 0.50554 0.92299 0.0
C175 C 0.98695 0.62697 0.97115 0.0
C176 C 0.90691 0.50109 0.98845 0.0
C177 C 0.10431 0.57413 0.02391 0.0
C178 C 0.02076 0.44888 0.05116 0.0
O179 O 0.00304 0.5913 0.07854 0.0
H180 H 0.11346 0.07586 0.23629 0.0
H181 H 0.14412 0.19228 0.25572 0.0
H182 H 0.12131 0.1847 0.31641 0.0
H183 H 0.02765 0.06851 0.28661 0.0
H184 H 0.03283 0.02322 0.30253 0.0
H185 H 0.05196 0.03768 0.26083 0.0
H186 H 0.11733 0.02293 0.28111 0.0
H187 H 0.09842 0.00843 0.32286 0.0
H188 H 0.13775 0.0437 0.32077 0.0
H189 H 0.09871 0.16384 0.37563 0.0
H190 H 0.07305 0.13232 0.42845 0.0
H191 H 0.05227 0.02992 0.36995 0.0
C192 C 0.11535 0.09968 0.25343 0.0
C193 C 0.13072 0.13467 0.24152 0.0
C194 C 0.13236 0.16533 0.26441 0.0
C195 C 0.11958 0.16123 0.29888 0.0
C196 C 0.10466 0.12638 0.30988 0.0
C197 C 0.10202 0.09619 0.28775 0.0
C198 C 0.08398 0.06198 0.30596 0.0
C199 C 0.0469 0.04697 0.2879 0.0
C200 C 0.11099 0.03252 0.30778 0.0
C201 C 0.07735 0.07753 0.34195 0.0
C202 C 0.08984 0.11469 0.34364 0.0
C203 C 0.08846 0.13487 0.37449 0.0
C204 C 0.07394 0.11668 0.40439 0.0
C205 C 0.0604 0.07876 0.40325 0.0
C206 C 0.0619 0.05904 0.37146 0.0
H207 H 0.44341 0.96711 0.77781 0.0
H208 H 0.42166 0.84893 0.79206 0.0
H209 H 0.44236 0.85686 0.8535 0.0
H210 H 0.52243 0.98572 0.83632 0.0
H211 H 0.50752 0.02783 0.85267 0.0
H212 H 0.49522 0.01241 0.8088 0.0
H213 H 0.42511 0.01483 0.82226 0.0
H214 H 0.43715 0.03014 0.86618 0.0
H215 H 0.40434 0.98961 0.85888 0.0
H216 H 0.46448 0.87809 0.91411 0.0
H217 H 0.48245 0.91114 0.96953 0.0
H218 H 0.48168 0.01533 0.91674 0.0
C219 C 0.44265 0.94272 0.79367 0.0
C220 C 0.43087 0.90732 0.77965 0.0
C221 C 0.43128 0.87632 0.80161 0.0
C222 C 0.44271 0.88055 0.83675 0.0
C223 C 0.45318 0.91595 0.84972 0.0
C224 C 0.45293 0.94649 0.82888 0.0
C225 C 0.46292 0.9817 0.84958 0.0
C226 C 0.49918 0.00317 0.83603 0.0
C227 C 0.43044 0.00546 0.8492 0.0
C228 C 0.46863 0.96624 0.88548 0.0
C229 C 0.46353 0.92824 0.88494 0.0
C230 C 0.46833 0.90782 0.91487 0.0
C231 C 0.47854 0.92678 0.94615 0.0
C232 C 0.48302 0.96569 0.94734 0.0
C233 C 0.47787 0.98556 0.91661 0.0
H234 H 0.54648 0.53742 0.84647 0.0
H235 H 0.56887 0.42388 0.84386 0.0
H236 H 0.56968 0.42513 0.77919 0.0
H237 H 0.48459 0.53192 0.77425 0.0
H238 H 0.50058 0.57676 0.75733 0.0
H239 H 0.50484 0.568 0.80333 0.0
H240 H 0.57605 0.58919 0.8009 0.0
H241 H 0.57199 0.59804 0.75483 0.0
H242 H 0.60446 0.56773 0.77011 0.0
H243 H 0.56224 0.43666 0.71585 0.0
H244 H 0.5488 0.45818 0.6567 0.0
H245 H 0.53336 0.56539 0.69926 0.0
C246 C 0.5521 0.51314 0.83208 0.0
C247 C 0.55778 0.48054 0.84961 0.0
C248 C 0.56464 0.44903 0.83047 0.0
C249 C 0.56521 0.44955 0.79388 0.0
C250 C 0.55913 0.48194 0.77708 0.0
C251 C 0.55297 0.51329 0.79544 0.0
C252 C 0.54562 0.54391 0.77079 0.0
C253 C 0.50659 0.55583 0.77679 0.0
C254 C 0.57637 0.57666 0.77438 0.0
C255 C 0.54765 0.52456 0.7358 0.0
C256 C 0.55562 0.48888 0.74014 0.0
C257 C 0.55654 0.46469 0.71203 0.0
C258 C 0.54873 0.47713 0.67857 0.0
C259 C 0.54036 0.51351 0.67341 0.0
C260 C 0.5404 0.53767 0.70239 0.0
H261 H 0.89906 0.54381 0.28987 0.0
H262 H 0.95512 0.65181 0.31621 0.0
H263 H 0.97855 0.65871 0.25545 0.0
H264 H 0.97008 0.51637 0.23284 0.0
H265 H 0.9369 0.49214 0.20274 0.0
H266 H 0.92511 0.49613 0.24813 0.0
H267 H 0.86551 0.52517 0.23043 0.0
H268 H 0.87725 0.52146 0.18499 0.0
H269 H 0.86979 0.56542 0.20331 0.0
H270 H 0.99549 0.6532 0.19162 0.0
H271 H 0.00584 0.63569 0.13031 0.0
H272 H 0.93777 0.53121 0.14633 0.0
C273 C 0.91645 0.56878 0.28273 0.0
C274 C 0.92568 0.59726 0.30726 0.0
C275 C 0.94814 0.62972 0.29745 0.0
C276 C 0.9614 0.63384 0.26311 0.0
C277 C 0.95171 0.60522 0.23923 0.0
C278 C 0.92979 0.57329 0.24866 0.0
C279 C 0.92333 0.54665 0.2182 0.0
C280 C 0.93985 0.5107 0.22595 0.0
C281 C 0.88148 0.53926 0.20868 0.0
C282 C 0.94507 0.56848 0.19011 0.0
C283 C 0.9612 0.60219 0.20267 0.0
C284 C 0.98295 0.62689 0.1815 0.0
C285 C 0.98862 0.61669 0.14669 0.0
C286 C 0.97259 0.58208 0.13338 0.0
C287 C 0.95032 0.55792 0.15551 0.0
H288 H 0.25291 0.11039 0.18961 0.0
H289 H 0.18458 0.08395 0.09683 0.0
H290 H 0.23669 0.05684 0.06927 0.0
H291 H 0.33583 0.13803 0.14693 0.0
H292 H 0.36645 0.11863 0.17732 0.0
H293 H 0.3225 0.13164 0.19199 0.0
H294 H 0.30334 0.0658 0.21478 0.0
H295 H 0.3475 0.05265 0.20054 0.0
H296 H 0.30433 0.02709 0.18558 0.0
H297 H 0.29802 0.04068 0.04863 0.0
H298 H 0.36376 0.03149 0.0379 0.0
H299 H 0.39281 0.06567 0.14452 0.0
C300 C 0.24861 0.09779 0.16397 0.0
C301 C 0.21469 0.09925 0.14534 0.0
C302 C 0.21038 0.08327 0.11148 0.0
C303 C 0.23978 0.06773 0.09565 0.0
C304 C 0.27332 0.06796 0.11411 0.0
C305 C 0.2778 0.08201 0.14773 0.0
C306 C 0.31758 0.08077 0.16083 0.0
C307 C 0.3367 0.11958 0.16978 0.0
C308 C 0.31822 0.05504 0.1923 0.0
C309 C 0.33494 0.06493 0.12893 0.0
C310 C 0.3088 0.05767 0.10235 0.0
C311 C 0.31859 0.04555 0.06946 0.0
C312 C 0.35606 0.04063 0.06354 0.0
C313 C 0.38335 0.04754 0.09043 0.0
C314 C 0.37244 0.05951 0.12366 0.0
H315 H 0.26527 0.92609 0.65607 0.0
H316 H 0.34624 0.99784 0.59792 0.0
H317 H 0.29516 0.0177 0.56149 0.0
H318 H 0.19927 0.90025 0.58109 0.0
H319 H 0.1589 0.90024 0.60862 0.0
H320 H 0.20223 0.88818 0.62654 0.0
H321 H 0.20079 0.9386 0.67419 0.0
H322 H 0.15788 0.95125 0.65611 0.0
H323 H 0.19796 0.98541 0.66127 0.0
H324 H 0.23496 0.0357 0.53721 0.0
H325 H 0.17018 0.04655 0.5228 0.0
H326 H 0.12824 0.96192 0.59605 0.0
C327 C 0.27215 0.94493 0.63478 0.0
C328 C 0.3094 0.96002 0.62903 0.0
C329 C 0.31772 0.98555 0.60196 0.0
C330 C 0.28893 0.99706 0.58135 0.0
C331 C 0.25215 0.98254 0.58823 0.0
C332 C 0.24371 0.95656 0.6139 0.0
C333 C 0.2018 0.94705 0.61748 0.0
C334 C 0.18985 0.90652 0.60785 0.0
C335 C 0.18887 0.95613 0.65445 0.0
C336 C 0.18799 0.97248 0.59056 0.0
C337 C 0.21745 0.99267 0.57393 0.0
C338 C 0.21165 0.01959 0.54961 0.0
C339 C 0.17476 0.02575 0.54178 0.0
C340 C 0.14411 0.00497 0.55813 0.0
C341 C 0.15102 0.97795 0.58277 0.0
H342 H 0.68842 0.42731 0.00447 0.0
H343 H 0.67909 0.45326 0.89455 0.0
H344 H 0.74745 0.47033 0.89215 0.0
H345 H 0.75744 0.50235 0.02553 0.0
H346 H 0.7827 0.47742 0.05638 0.0
H347 H 0.7334 0.46435 0.04914 0.0
H348 H 0.74607 0.398 0.03389 0.0
H349 H 0.79547 0.41087 0.0411 0.0
H350 H 0.77884 0.3906 0.99993 0.0
H351 H 0.81504 0.48627 0.90152 0.0
H352 H 0.87928 0.50349 0.92227 0.0
H353 H 0.84666 0.46949 0.02738 0.0
C354 C 0.70102 0.43618 0.97988 0.0
C355 C 0.67874 0.43897 0.94961 0.0
C356 C 0.69581 0.45116 0.91797 0.0
C357 C 0.73454 0.4607 0.91635 0.0
C358 C 0.75573 0.45804 0.94665 0.0
C359 C 0.73975 0.44628 0.9779 0.0
C360 C 0.76898 0.44809 0.00696 0.0
C361 C 0.76009 0.47464 0.03622 0.0
C362 C 0.77255 0.40959 0.02131 0.0
C363 C 0.80376 0.46312 0.98715 0.0
C364 C 0.79528 0.46818 0.95234 0.0
C365 C 0.82212 0.48238 0.92868 0.0
C366 C 0.85862 0.49216 0.94088 0.0
C367 C 0.86821 0.48802 0.9766 0.0
C368 C 0.84035 0.47287 0.99995 0.0
H369 H 0.77711 0.61353 0.41832 0.0
H370 H 0.8384 0.6645 0.50766 0.0
H371 H 0.77966 0.66037 0.54131 0.0
H372 H 0.69383 0.65693 0.42947 0.0
H373 H 0.66302 0.61676 0.41606 0.0
H374 H 0.7098 0.62442 0.39913 0.0
H375 H 0.72298 0.56044 0.42126 0.0
H376 H 0.67617 0.55248 0.43798 0.0
H377 H 0.71561 0.54912 0.46664 0.0
H378 H 0.71346 0.64929 0.56539 0.0
H379 H 0.64648 0.63063 0.57794 0.0
H380 H 0.63045 0.58729 0.47219 0.0
C381 C 0.7783 0.6235 0.44508 0.0
C382 C 0.81229 0.63925 0.46041 0.0
C383 C 0.81253 0.6526 0.49531 0.0
C384 C 0.77937 0.65031 0.51463 0.0
C385 C 0.74626 0.63472 0.4986 0.0
C386 C 0.7456 0.62151 0.46461 0.0
C387 C 0.70668 0.6056 0.45338 0.0
C388 C 0.69251 0.62723 0.4227 0.0
C389 C 0.7053 0.56448 0.4443 0.0
C390 C 0.68553 0.61157 0.48645 0.0
C391 C 0.70863 0.62853 0.51227 0.0
C392 C 0.69509 0.63609 0.5453 0.0
C393 C 0.65703 0.6255 0.55217 0.0
C394 C 0.63316 0.60747 0.52611 0.0
C395 C 0.64779 0.60099 0.49278 0.0
H396 H 0.13923 0.28458 0.0972 0.0
H397 H 0.04608 0.23624 0.15882 0.0
H398 H 0.0126 0.2906 0.14735 0.0
H399 H 0.13381 0.38133 0.12179 0.0
H400 H 0.14604 0.39743 0.07852 0.0
H401 H 0.16351 0.35671 0.0949 0.0
H402 H 0.13523 0.32006 0.04081 0.0
H403 H 0.11731 0.36049 0.02448 0.0
H404 H 0.086 0.31901 0.03112 0.0
H405 H 0.98801 0.34883 0.12508 0.0
H406 H 0.97476 0.40567 0.09546 0.0
H407 H 0.08431 0.41441 0.04755 0.0
C408 C 0.11217 0.28601 0.10898 0.0
C409 C 0.09528 0.2569 0.12936 0.0
C410 C 0.05953 0.25882 0.14365 0.0
C411 C 0.04038 0.28946 0.13713 0.0
C412 C 0.05753 0.31763 0.11626 0.0
C413 C 0.09278 0.31619 0.10261 0.0
C414 C 0.10434 0.34879 0.07942 0.0
C415 C 0.13897 0.37247 0.09457 0.0
C416 C 0.1111 0.33632 0.04173 0.0
C417 C 0.06989 0.36861 0.08156 0.0
C418 C 0.04326 0.35045 0.1031 0.0
C419 C 0.00881 0.36335 0.10838 0.0
C420 C 0.0015 0.39565 0.09134 0.0
C421 C 0.02843 0.41463 0.06906 0.0
C422 C 0.06304 0.40071 0.06432 0.0
H423 H 0.60437 0.33799 0.01012 0.0
H424 H 0.52425 0.3453 0.92559 0.0
H425 H 0.49957 0.28049 0.93423 0.0
H426 H 0.62637 0.24924 0.98693 0.0
H427 H 0.63154 0.23451 0.03136 0.0
H428 H 0.64068 0.28251 0.02085 0.0
H429 H 0.59251 0.2979 0.06703 0.0
H430 H 0.58333 0.24993 0.07779 0.0
H431 H 0.54536 0.27496 0.06483 0.0
H432 H 0.48532 0.21389 0.9502 0.0
H433 H 0.48299 0.15051 0.97235 0.0
H434 H 0.57455 0.18612 0.04416 0.0
C435 C 0.58155 0.32609 0.99346 0.0
C436 C 0.56606 0.3471 0.96743 0.0
C437 C 0.53606 0.33027 0.94635 0.0
C438 C 0.52201 0.29329 0.95082 0.0
C439 C 0.53831 0.27333 0.97634 0.0
C440 C 0.56742 0.28912 0.99731 0.0
C441 C 0.58114 0.2612 0.02173 0.0
C442 C 0.62237 0.2566 0.01478 0.0
C443 C 0.57521 0.27163 0.06012 0.0
C444 C 0.55546 0.22718 0.01094 0.0
C445 C 0.53075 0.23477 0.98492 0.0
C446 C 0.50447 0.2076 0.97065 0.0
C447 C 0.50338 0.17168 0.98338 0.0
C448 C 0.52864 0.16325 0.00991 0.0
C449 C 0.55495 0.19153 0.02375 0.0
H450 H 0.88902 0.74813 0.40401 0.0
H451 H 0.97526 0.68716 0.44528 0.0
H452 H 0.01342 0.74561 0.46193 0.0
H453 H 0.95451 0.82859 0.37111 0.0
H454 H 0.92211 0.86044 0.38282 0.0
H455 H 0.90486 0.81422 0.36937 0.0
H456 H 0.86768 0.80546 0.42699 0.0
H457 H 0.88519 0.8513 0.44088 0.0
H458 H 0.89217 0.81282 0.46823 0.0
H459 H 0.03561 0.80924 0.48394 0.0
H460 H 0.04427 0.87433 0.5033 0.0
H461 H 0.94562 0.89421 0.44395 0.0
C462 C 0.91657 0.74733 0.41541 0.0
C463 C 0.92963 0.71355 0.42318 0.0
C464 C 0.96531 0.71304 0.43873 0.0
C465 C 0.98699 0.74601 0.44834 0.0
C466 C 0.97274 0.77902 0.44147 0.0
C467 C 0.93874 0.77995 0.42457 0.0
C468 C 0.92853 0.81874 0.42235 0.0
C469 C 0.92746 0.83123 0.38414 0.0
C470 C 0.8912 0.82226 0.44072 0.0
C471 C 0.9612 0.83931 0.44209 0.0
C472 C 0.98645 0.81596 0.45287 0.0
C473 C 0.01666 0.82799 0.47479 0.0
C474 C 0.0212 0.86484 0.48586 0.0
C475 C 0.9959 0.88918 0.47464 0.0
C476 C 0.96588 0.87631 0.45213 0.0
H477 H 0.46645 0.82818 0.68529 0.0
H478 H 0.35332 0.82951 0.64511 0.0
H479 H 0.35851 0.77219 0.61246 0.0
H480 H 0.50544 0.79042 0.60792 0.0
H481 H 0.53401 0.76211 0.6322 0.0
H482 H 0.52244 0.8045 0.651 0.0
H483 H 0.49474 0.76921 0.70502 0.0
H484 H 0.50619 0.72672 0.6864 0.0
H485 H 0.45874 0.73102 0.69889 0.0
H486 H 0.37466 0.71414 0.58583 0.0
H487 H 0.40046 0.65839 0.56663 0.0
H488 H 0.50278 0.6925 0.62545 0.0
C489 C 0.44266 0.81643 0.66974 0.0
C490 C 0.40948 0.83368 0.66772 0.0
C491 C 0.37929 0.81741 0.64664 0.0
C492 C 0.38186 0.78465 0.62816 0.0
C493 C 0.41475 0.7683 0.63104 0.0
C494 C 0.44463 0.78354 0.65128 0.0
C495 C 0.47636 0.75969 0.6506 0.0
C496 C 0.51165 0.78042 0.63446 0.0
C497 C 0.48447 0.74584 0.68742 0.0
C498 C 0.45947 0.72851 0.62697 0.0
C499 C 0.42398 0.73426 0.61593 0.0
C500 C 0.40245 0.70936 0.59422 0.0
C501 C 0.41748 0.67767 0.58348 0.0
C502 C 0.45378 0.67084 0.59446 0.0
C503 C 0.47502 0.69681 0.61652 0.0
H504 H 0.96995 0.91214 0.8028 0.0
H505 H 0.86707 0.96084 0.81895 0.0
H506 H 0.87157 0.98588 0.75926 0.0
H507 H 0.01697 0.98401 0.75028 0.0
H508 H 0.03768 0.95292 0.72169 0.0
H509 H 0.02732 0.94015 0.76623 0.0
H510 H 0.98742 0.88066 0.74452 0.0
H511 H 0.9976 0.89327 0.6999 0.0
H512 H 0.94972 0.88385 0.71378 0.0
H513 H 0.88683 0.00519 0.69775 0.0
H514 H 0.91123 0.01717 0.63853 0.0
H515 H 0.00246 0.95297 0.6607 0.0
C516 C 0.94809 0.92778 0.79383 0.0
C517 C 0.91809 0.93443 0.8159 0.0
C518 C 0.89065 0.95576 0.80301 0.0
C519 C 0.8928 0.96988 0.76897 0.0
C520 C 0.92244 0.96235 0.74793 0.0
C521 C 0.94957 0.94174 0.75982 0.0
C522 C 0.97815 0.93706 0.73167 0.0
C523 C 0.01735 0.95459 0.74316 0.0
C524 C 0.97821 0.89628 0.72189 0.0
C525 C 0.96282 0.95824 0.702 0.0
C526 C 0.93079 0.97275 0.71209 0.0
C527 C 0.91183 0.9939 0.68956 0.0
C528 C 0.92602 0.00058 0.65592 0.0
C529 C 0.95878 0.98597 0.64479 0.0
C530 C 0.97723 0.96429 0.66824 0.0
H531 H 0.6025 0.08627 0.35143 0.0
H532 H 0.64811 0.19995 0.33721 0.0
H533 H 0.62952 0.19545 0.27456 0.0
H534 H 0.63043 0.05165 0.27128 0.0
H535 H 0.58853 0.02025 0.26413 0.0
H536 H 0.60357 0.03309 0.30797 0.0
H537 H 0.53921 0.05522 0.32051 0.0
H538 H 0.52381 0.04214 0.27676 0.0
H539 H 0.5218 0.08849 0.2921 0.0
H540 H 0.61182 0.17615 0.21257 0.0
H541 H 0.58988 0.14594 0.15687 0.0
H542 H 0.55186 0.04605 0.2127 0.0
C543 C 0.60806 0.11029 0.33512 0.0
C544 C 0.62669 0.14346 0.34879 0.0
C545 C 0.63361 0.17444 0.327 0.0
C546 C 0.6233 0.17205 0.2915 0.0
C547 C 0.60556 0.13866 0.27859 0.0
C548 C 0.59737 0.10855 0.29989 0.0
C549 C 0.57826 0.07583 0.27962 0.0
C550 C 0.6016 0.0433 0.28083 0.0
C551 C 0.5384 0.06478 0.29305 0.0
C552 C 0.5777 0.09193 0.24336 0.0
C553 C 0.59383 0.12812 0.24326 0.0
C554 C 0.5986 0.14804 0.21243 0.0
C555 C 0.58627 0.1306 0.18094 0.0
C556 C 0.56894 0.09381 0.18061 0.0
C557 C 0.56449 0.07438 0.21229 0.0
H558 H 0.46589 0.57267 0.2525 0.0
H559 H 0.36931 0.63256 0.25709 0.0
H560 H 0.37448 0.63522 0.32174 0.0
H561 H 0.44422 0.51742 0.32647 0.0
H562 H 0.49189 0.51838 0.34161 0.0
H563 H 0.48215 0.52343 0.29579 0.0
H564 H 0.52573 0.58504 0.29523 0.0
H565 H 0.53575 0.58009 0.34106 0.0
H566 H 0.51783 0.62102 0.32571 0.0
H567 H 0.38752 0.62739 0.38547 0.0
H568 H 0.4089 0.61182 0.4444 0.0
H569 H 0.49798 0.55795 0.39816 0.0
C570 C 0.4463 0.58676 0.26728 0.0
C571 C 0.41735 0.60263 0.25042 0.0
C572 C 0.39176 0.62051 0.27004 0.0
C573 C 0.39449 0.62212 0.30659 0.0
C574 C 0.42312 0.60582 0.32276 0.0
C575 C 0.44876 0.58872 0.30378 0.0
C576 C 0.47607 0.57234 0.32761 0.0
C577 C 0.4734 0.53041 0.32257 0.0
C578 C 0.51622 0.59073 0.32207 0.0
C579 C 0.4614 0.58238 0.36292 0.0
C580 C 0.4309 0.60171 0.35955 0.0
C581 C 0.41163 0.61261 0.38849 0.0
C582 C 0.4239 0.60351 0.42183 0.0
C583 C 0.45521 0.58382 0.4259 0.0
C584 C 0.47422 0.57337 0.39596 0.0
H585 H 0.01769 0.50657 0.71547 0.0
H586 H 0.1154 0.44833 0.71163 0.0
H587 H 0.11924 0.44937 0.77652 0.0
H588 H 0.04783 0.5655 0.78972 0.0
H589 H 0.00133 0.56349 0.80724 0.0
H590 H 0.0077 0.55907 0.76083 0.0
H591 H 0.96482 0.49695 0.76082 0.0
H592 H 0.9586 0.50105 0.80726 0.0
H593 H 0.97597 0.46079 0.78936 0.0
H594 H 0.11068 0.45569 0.84218 0.0
H595 H 0.09174 0.46834 0.90277 0.0
H596 H 0.99926 0.52182 0.86197 0.0
C597 C 0.04008 0.49448 0.72845 0.0
C598 C 0.06648 0.47767 0.70919 0.0
C599 C 0.09522 0.4616 0.72648 0.0
C600 C 0.0975 0.46199 0.76314 0.0
C601 C 0.07073 0.47853 0.78171 0.0
C602 C 0.04269 0.49464 0.76489 0.0
C603 C 0.01704 0.51011 0.79066 0.0
C604 C 0.01859 0.55203 0.78689 0.0
C605 C 0.97673 0.49107 0.78679 0.0
C606 C 0.03481 0.50003 0.82462 0.0
C607 C 0.06575 0.48188 0.81908 0.0
C608 C 0.08652 0.46995 0.84683 0.0
C609 C 0.0755 0.47715 0.88112 0.0
C610 C 0.04401 0.49603 0.88719 0.0
C611 C 0.02346 0.50729 0.85839 0.0
H612 H 0.78653 0.92691 0.95427 0.0
H613 H 0.85367 0.03307 0.95307 0.0
H614 H 0.79975 0.06247 0.97523 0.0
H615 H 0.69685 0.9595 0.92865 0.0
H616 H 0.67011 0.92748 0.95698 0.0
H617 H 0.7129 0.91585 0.93813 0.0
H618 H 0.73825 0.90406 1.00012 0.0
H619 H 0.6958 0.91613 0.01918 0.0
H620 H 0.74032 0.93997 0.0328 0.0
H621 H 0.7398 0.07915 0.00201 0.0
H622 H 0.67767 0.08263 0.02788 0.0
H623 H 0.64977 0.96516 0.01136 0.0
C624 C 0.78941 0.95647 0.95784 0.0
C625 C 0.82373 0.97804 0.95151 0.0
C626 C 0.82718 0.0164 0.95728 0.0
C627 C 0.79681 0.03321 0.96999 0.0
C628 C 0.76335 0.01112 0.97672 0.0
C629 C 0.75936 0.97362 0.97047 0.0
C630 C 0.72101 0.95586 0.98117 0.0
C631 C 0.69891 0.93867 0.94933 0.0
C632 C 0.72405 0.92733 0.01003 0.0
C633 C 0.70423 0.98906 0.99496 0.0
C634 C 0.72902 0.02069 0.99212 0.0
C635 C 0.72006 0.05458 0.00405 0.0
C636 C 0.68471 0.05625 0.01888 0.0
C637 C 0.65865 0.02422 0.0217 0.0
C638 C 0.66885 0.99024 0.00956 0.0
H639 H 0.74447 0.10914 0.39603 0.0
H640 H 0.67796 0.07552 0.48672 0.0
H641 H 0.72723 0.03903 0.50714 0.0
H642 H 0.78825 0.0217 0.38463 0.0
H643 H 0.83256 0.04632 0.37254 0.0
H644 H 0.78962 0.06478 0.36198 0.0
H645 H 0.814 0.12538 0.39438 0.0
H646 H 0.85687 0.10716 0.40502 0.0
H647 H 0.82908 0.12372 0.43935 0.0
H648 H 0.78607 0.014 0.52189 0.0
H649 H 0.85163 0.00275 0.5309 0.0
H650 H 0.88086 0.05123 0.43038 0.0
C651 C 0.73986 0.09313 0.4196 0.0
C652 C 0.70737 0.09483 0.43973 0.0
C653 C 0.7027 0.07452 0.471 0.0
C654 C 0.73038 0.05353 0.48262 0.0
C655 C 0.76248 0.05304 0.46259 0.0
C656 C 0.76737 0.07218 0.43167 0.0
C657 C 0.80618 0.07025 0.41714 0.0
C658 C 0.80401 0.04952 0.38198 0.0
C659 C 0.82779 0.10892 0.4138 0.0
C660 C 0.82287 0.04832 0.44547 0.0
C661 C 0.79687 0.0382 0.47112 0.0
C662 C 0.80643 0.021 0.50165 0.0
C663 C 0.84371 0.0148 0.50657 0.0
C664 C 0.87098 0.02564 0.48108 0.0
C665 C 0.86024 0.0417 0.44972 0.0
H666 H 0.28587 0.67487 0.11964 0.0
H667 H 0.34956 0.60612 0.05685 0.0
H668 H 0.29305 0.58563 0.02142 0.0
H669 H 0.20786 0.61205 0.12635 0.0
H670 H 0.17359 0.64406 0.12417 0.0
H671 H 0.22004 0.65914 0.14018 0.0
H672 H 0.22761 0.71041 0.09369 0.0
H673 H 0.1809 0.69573 0.07769 0.0
H674 H 0.21986 0.69859 0.04816 0.0
H675 H 0.22935 0.56577 0.99908 0.0
H676 H 0.16186 0.54813 0.98988 0.0
H677 H 0.13782 0.62915 0.06726 0.0
C678 C 0.288 0.65662 0.09753 0.0
C679 C 0.32191 0.64245 0.09033 0.0
C680 C 0.32376 0.61752 0.06222 0.0
C681 C 0.29189 0.60584 0.04202 0.0
C682 C 0.25847 0.61936 0.05039 0.0
C683 C 0.25625 0.6444 0.07729 0.0
C684 C 0.21606 0.65131 0.08329 0.0
C685 C 0.20368 0.64101 0.12071 0.0
C686 C 0.21081 0.6914 0.07521 0.0
C687 C 0.19596 0.62517 0.0565 0.0
C688 C 0.22111 0.60746 0.03753 0.0
C689 C 0.20939 0.57992 0.01326 0.0
C690 C 0.17096 0.56993 0.00842 0.0
C691 C 0.14458 0.58736 0.02777 0.0
C692 C 0.15733 0.6158 0.05169 0.0
H693 H 0.18282 0.48306 0.58044 0.0
H694 H 0.18688 0.37517 0.62523 0.0
H695 H 0.2558 0.38364 0.62163 0.0
H696 H 0.25639 0.47838 0.51963 0.0
H697 H 0.27505 0.52603 0.52452 0.0
H698 H 0.22609 0.51207 0.53175 0.0
H699 H 0.23193 0.54125 0.5938 0.0
H700 H 0.2809 0.55546 0.58669 0.0
H701 H 0.26643 0.52773 0.62398 0.0
H702 H 0.32395 0.40326 0.61214 0.0
H703 H 0.38702 0.43296 0.59754 0.0
H704 H 0.33821 0.52794 0.55883 0.0
C705 C 0.1983 0.46144 0.58983 0.0
C706 C 0.17965 0.42843 0.60296 0.0
C707 C 0.20072 0.40051 0.61466 0.0
C708 C 0.23981 0.40512 0.6129 0.0
C709 C 0.25735 0.43781 0.59941 0.0
C710 C 0.23734 0.46553 0.58814 0.0
C711 C 0.26299 0.49762 0.57404 0.0
C712 C 0.25463 0.50387 0.53518 0.0
C713 C 0.26041 0.53258 0.59594 0.0
C714 C 0.30048 0.4835 0.579 0.0
C715 C 0.29665 0.44902 0.59377 0.0
C716 C 0.32737 0.43031 0.60063 0.0
C717 C 0.36306 0.4474 0.59222 0.0
C718 C 0.36761 0.48276 0.57701 0.0
C719 C 0.33577 0.50088 0.57038 0.0
H720 H 0.9601 0.83995 0.94739 0.0
H721 H 0.9071 0.80787 0.84751 0.0
H722 H 0.92067 0.74443 0.85649 0.0
H723 H 0.03315 0.77954 0.94364 0.0
H724 H 0.03059 0.76862 0.98948 0.0
H725 H 0.01891 0.8124 0.97458 0.0
H726 H 0.95402 0.7999 0.00372 0.0
H727 H 0.96549 0.75611 0.01873 0.0
H728 H 0.92386 0.75848 0.9927 0.0
H729 H 0.93733 0.68465 0.87645 0.0
H730 H 0.95556 0.63069 0.90652 0.0
H731 H 0.99655 0.69943 0.99513 0.0
C732 C 0.95132 0.81961 0.92739 0.0
C733 C 0.93286 0.82919 0.89648 0.0
C734 C 0.92206 0.80162 0.87097 0.0
C735 C 0.9294 0.76537 0.87594 0.0
C736 C 0.94744 0.75692 0.90664 0.0
C737 C 0.95825 0.78309 0.93201 0.0
C738 C 0.97609 0.76612 0.96313 0.0
C739 C 0.01713 0.78266 0.96798 0.0
C740 C 0.95351 0.77041 0.99654 0.0
C741 C 0.97323 0.72623 0.95133 0.0
C742 C 0.95676 0.72181 0.91856 0.0
C743 C 0.95034 0.68772 0.90208 0.0
C744 C 0.9608 0.65716 0.91955 0.0
C745 C 0.97751 0.66061 0.95337 0.0
C746 C 0.984 0.69582 0.96932 0.0
H747 H 0.38005 0.75943 0.14665 0.0
H748 H 0.47948 0.70329 0.14269 0.0
H749 H 0.51891 0.763 0.14048 0.0
H750 H 0.40901 0.82722 0.08649 0.0
H751 H 0.38901 0.86382 0.10848 0.0
H752 H 0.36888 0.81697 0.11414 0.0
H753 H 0.37701 0.82439 0.18129 0.0
H754 H 0.39727 0.87137 0.17581 0.0
H755 H 0.42258 0.83977 0.19956 0.0
H756 H 0.54666 0.82738 0.12995 0.0
H757 H 0.56104 0.8929 0.11455 0.0
H758 H 0.44454 0.90831 0.12844 0.0
C759 C 0.41016 0.75981 0.14587 0.0
C760 C 0.42674 0.72675 0.14509 0.0
C761 C 0.46622 0.72828 0.14393 0.0
C762 C 0.48886 0.76206 0.14258 0.0
C763 C 0.47164 0.79412 0.14288 0.0
C764 C 0.43323 0.79337 0.14489 0.0
C765 C 0.42174 0.83174 0.14268 0.0
C766 C 0.39563 0.83512 0.11107 0.0
C767 C 0.40358 0.84244 0.17688 0.0
C768 C 0.45956 0.85398 0.13772 0.0
C769 C 0.48799 0.83173 0.13811 0.0
C770 C 0.52483 0.84528 0.13049 0.0
C771 C 0.53274 0.88242 0.12172 0.0
C772 C 0.50403 0.90561 0.12107 0.0
C773 C 0.46717 0.89136 0.12991 0.0
H774 H 0.10957 0.31563 0.60696 0.0
H775 H 0.00927 0.35962 0.57061 0.0
H776 H 0.97927 0.29641 0.5593 0.0
H777 H 0.1081 0.24787 0.53995 0.0
H778 H 0.12651 0.21474 0.56782 0.0
H779 H 0.13827 0.2631 0.57639 0.0
H780 H 0.11338 0.25417 0.63952 0.0
H781 H 0.10127 0.20577 0.63107 0.0
H782 H 0.06613 0.23316 0.64622 0.0
H783 H 0.96077 0.22801 0.55134 0.0
H784 H 0.95744 0.16085 0.54177 0.0
H785 H 0.07248 0.1637 0.57747 0.0
C786 C 0.08146 0.31235 0.59617 0.0
C787 C 0.06191 0.34288 0.58963 0.0
C788 C 0.02474 0.33678 0.57639 0.0
C789 C 0.00749 0.30097 0.56975 0.0
C790 C 0.02791 0.27167 0.57616 0.0
C791 C 0.06424 0.27709 0.58868 0.0
C792 C 0.08121 0.24141 0.59116 0.0
C793 C 0.11554 0.24182 0.56741 0.0
C794 C 0.09106 0.23315 0.62926 0.0
C795 C 0.04883 0.21493 0.5777 0.0
C796 C 0.01806 0.23275 0.56986 0.0
C797 C 0.98471 0.2138 0.55731 0.0
C798 C 0.98305 0.17573 0.5521 0.0
C799 C 0.01479 0.15734 0.55877 0.0
C800 C 0.04792 0.1772 0.57197 0.0
H801 H 0.5767 0.25528 0.51428 0.0
H802 H 0.61988 0.27251 0.40967 0.0
H803 H 0.59807 0.33431 0.40897 0.0
H804 H 0.49358 0.30436 0.50304 0.0
H805 H 0.49735 0.32303 0.54682 0.0
H806 H 0.51332 0.27924 0.53752 0.0
H807 H 0.57864 0.30326 0.56313 0.0
H808 H 0.56299 0.34714 0.57229 0.0
H809 H 0.60378 0.34458 0.54582 0.0
H810 H 0.57612 0.39583 0.42198 0.0
H811 H 0.55441 0.45191 0.4466 0.0
H812 H 0.52509 0.394 0.54294 0.0
C813 C 0.58076 0.2719 0.49101 0.0
C814 C 0.59941 0.25947 0.46183 0.0
C815 C 0.60516 0.28179 0.43202 0.0
C816 C 0.59293 0.31679 0.43147 0.0
C817 C 0.57501 0.32869 0.46095 0.0
C818 C 0.5687 0.30679 0.49008 0.0
C819 C 0.55052 0.32665 0.51898 0.0
C820 C 0.51136 0.30716 0.52705 0.0
C821 C 0.57548 0.33064 0.55199 0.0
C822 C 0.54825 0.36345 0.5019 0.0
C823 C 0.56234 0.36402 0.46839 0.0
C824 C 0.56466 0.39555 0.44804 0.0
C825 C 0.55234 0.42733 0.46234 0.0
C826 C 0.53788 0.42742 0.49671 0.0
C827 C 0.53563 0.39483 0.5165 0.0
loop_
_geom_bond_atom_site_label_1
_geom_bond_atom_site_label_2
_geom_bond_distance
_geom_bond_site_symmetry_2
_ccdc_geom_bond_type
H0 C3 0.929 . S
H1 C6 0.929 . S
H2 C8 0.930 . S
C3 H0 0.929 . S
C3 C4 1.398 . S
C3 C5 1.396 . S
C4 C3 1.398 . S
C4 C8 1.407 . S
C5 C3 1.396 . S
C5 C6 1.394 . S
C6 H1 0.929 . S
C6 C5 1.394 . S
C6 C7 1.382 . S
C7 C6 1.382 . S
C7 C8 1.392 . S
C7 N9 1.420 . S
C8 H2 0.930 . S
C8 C4 1.407 . S
C8 C7 1.392 . S
N9 C7 1.420 . S
N9 C10 1.244 . S
C10 N9 1.244 . S
H11 C14 0.929 . S
H12 C17 0.929 . S
H13 C19 0.930 . S
C14 H11 0.929 . S
C14 C15 1.398 . S
C14 C16 1.396 . S
C15 C14 1.398 . S
C15 C19 1.407 . S
C16 C14 1.396 . S
C16 C17 1.394 . S
C17 H12 0.929 . S
C17 C16 1.394 . S
C17 C18 1.382 . S
C18 C17 1.382 . S
C18 C19 1.392 . S
C18 N20 1.420 . S
C19 H13 0.930 . S
C19 C15 1.407 . S
C19 C18 1.392 . S
N20 C18 1.420 . S
N20 C21 1.244 . S
C21 N20 1.244 . S
H22 C25 0.929 . S
H23 C28 0.929 . S
H24 C30 0.930 . S
C25 H22 0.929 . S
C25 C26 1.398 . S
C25 C27 1.396 . S
C26 C25 1.398 . S
C26 C30 1.407 . S
C27 C25 1.396 . S
C27 C28 1.394 . S
C28 H23 0.929 . S
C28 C27 1.394 . S
C28 C29 1.382 . S
C29 C28 1.382 . S
C29 C30 1.392 . S
C29 N31 1.420 . S
C30 H24 0.930 . S
C30 C26 1.407 . S
C30 C29 1.392 . S
N31 C29 1.420 . S
N31 C32 1.244 . S
C32 N31 1.244 . S
H33 C36 0.929 . S
H34 C39 0.929 . S
H35 C41 0.930 . S
C36 H33 0.929 . S
C36 C37 1.398 . S
C36 C38 1.396 . S
C37 C36 1.398 . S
C37 C41 1.407 . S
C38 C36 1.396 . S
C38 C39 1.394 . S
C39 H34 0.929 . S
C39 C38 1.394 . S
C39 C40 1.382 . S
C40 C39 1.382 . S
C40 C41 1.392 . S
C40 N42 1.420 . S
C41 H35 0.930 . S
C41 C37 1.407 . S
C41 C40 1.392 . S
N42 C40 1.420 . S
N42 C43 1.244 . S
C43 N42 1.244 . S
H44 C47 0.929 . S
H45 C50 0.929 . S
H46 C52 0.930 1_545 S
C47 H44 0.929 . S
C47 C48 1.398 . S
C47 C49 1.396 . S
C48 C47 1.398 . S
C48 C52 1.407 . S
C49 C47 1.396 . S
C49 C50 1.394 . S
C50 H45 0.929 . S
C50 C49 1.394 . S
C50 C51 1.382 . S
C51 C50 1.382 . S
C51 C52 1.392 . S
C51 N53 1.420 1_565 S
C52 H46 0.930 1_565 S
C52 C48 1.407 . S
C52 C51 1.392 . S
N53 C51 1.420 1_545 S
N53 C54 1.244 1_545 S
C54 N53 1.244 1_565 S
H55 C58 0.929 . S
H56 C61 0.929 . S
H57 C63 0.930 . S
C58 H55 0.929 . S
C58 C59 1.398 . S
C58 C60 1.396 . S
C59 C58 1.398 . S
C59 C63 1.407 . S
C60 C58 1.396 . S
C60 C61 1.394 . S
C61 H56 0.929 . S
C61 C60 1.394 . S
C61 C62 1.382 . S
C62 C61 1.382 . S
C62 C63 1.392 . S
C62 N64 1.420 . S
C63 H57 0.930 . S
C63 C59 1.407 . S
C63 C62 1.392 . S
N64 C62 1.420 . S
N64 C65 1.244 . S
C65 N64 1.244 . S
H66 C69 0.929 . S
H67 C72 0.929 . S
H68 C74 0.930 . S
C69 H66 0.929 . S
C69 C70 1.398 . S
C69 C71 1.396 . S
C70 C69 1.398 . S
C70 C74 1.407 . S
C71 C69 1.396 . S
C71 C72 1.394 . S
C72 H67 0.929 . S
C72 C71 1.394 . S
C72 C73 1.382 . S
C73 C72 1.382 . S
C73 C74 1.392 . S
C73 N75 1.420 . S
C74 H68 0.930 . S
C74 C70 1.407 . S
C74 C73 1.392 . S
N75 C73 1.420 . S
N75 C76 1.244 . S
C76 N75 1.244 . S
H77 C80 0.929 . S
H78 C83 0.929 . S
H79 C85 0.930 . S
C80 H77 0.929 . S
C80 C81 1.398 . S
C80 C82 1.396 . S
C81 C80 1.398 . S
C81 C85 1.407 . S
C82 C80 1.396 . S
C82 C83 1.394 . S
C83 H78 0.929 . S
C83 C82 1.394 . S
C83 C84 1.382 . S
C84 C83 1.382 . S
C84 C85 1.392 . S
C84 N86 1.420 . S
C85 H79 0.930 . S
C85 C81 1.407 . S
C85 C84 1.392 . S
N86 C84 1.420 . S
N86 C87 1.244 . S
C87 N86 1.244 . S
O88 Zn89 1.953 . S
O88 C104 1.225 1_655 S
Zn89 O88 1.953 . S
Zn89 O90 1.949 1_655 S
Zn89 O96 1.919 . S
Zn89 O101 1.924 . S
O90 Zn89 1.949 1_455 S
O90 Zn91 1.923 1_455 S
O90 Zn92 1.950 . S
O90 Zn93 1.945 1_545 S
Zn91 O90 1.923 1_655 S
Zn91 O94 1.933 1_545 S
Zn91 O97 1.941 . S
Zn91 O98 1.965 1_655 S
Zn92 O90 1.950 . S
Zn92 O99 1.938 . S
Zn92 O100 1.906 . S
Zn92 O110 1.953 . S
Zn93 O90 1.945 1_565 S
Zn93 O95 1.932 1_455 S
Zn93 O102 1.977 . S
Zn93 O103 1.910 1_455 S
O94 Zn91 1.933 1_565 S
O94 C105 1.226 . S
O95 Zn93 1.932 1_655 S
O95 C105 1.307 . S
O96 Zn89 1.919 . S
O96 C107 1.253 . S
O97 Zn91 1.941 . S
O97 C107 1.283 . S
O98 Zn91 1.965 1_455 S
O98 C106 1.303 . S
O99 Zn92 1.938 . S
O99 C106 1.247 . S
O100 Zn92 1.906 . S
O100 C108 1.304 1_545 S
O101 Zn89 1.924 . S
O101 C109 1.311 . S
O102 Zn93 1.977 . S
O102 C108 1.272 . S
O103 Zn93 1.910 1_655 S
O103 C109 1.231 1_565 S
C104 O88 1.225 1_455 S
C104 O110 1.298 . S
C105 O94 1.226 . S
C105 O95 1.307 . S
C106 O98 1.303 . S
C106 O99 1.247 . S
C107 O96 1.253 . S
C107 O97 1.283 . S
C108 O100 1.304 1_565 S
C108 O102 1.272 . S
C109 O101 1.311 . S
C109 O103 1.231 1_545 S
O110 Zn92 1.953 . S
O110 C104 1.298 . S
O111 Zn112 1.953 . S
O111 C127 1.225 . S
Zn112 O111 1.953 . S
Zn112 O113 1.949 . S
Zn112 O119 1.919 1_554 S
Zn112 O124 1.924 . S
O113 Zn112 1.949 . S
O113 Zn114 1.923 1_545 S
O113 Zn115 1.950 . S
O113 Zn116 1.945 . S
Zn114 O113 1.923 1_565 S
Zn114 O117 1.933 . S
Zn114 O120 1.941 1_554 S
Zn114 O121 1.965 . S
Zn115 O113 1.950 . S
Zn115 O122 1.938 . S
Zn115 O123 1.906 . S
Zn115 O133 1.953 . S
Zn116 O113 1.945 . S
Zn116 O118 1.932 1_545 S
Zn116 O125 1.977 . S
Zn116 O126 1.910 . S
O117 Zn114 1.933 . S
O117 C128 1.226 . S
O118 Zn116 1.932 1_565 S
O118 C128 1.307 . S
O119 Zn112 1.919 1_556 S
O119 C130 1.253 1_545 S
O120 Zn114 1.941 1_556 S
O120 C130 1.283 . S
O121 Zn114 1.965 . S
O121 C129 1.303 1_565 S
O122 Zn115 1.938 . S
O122 C129 1.247 . S
O123 Zn115 1.906 . S
O123 C131 1.304 . S
O124 Zn112 1.924 . S
O124 C132 1.311 . S
O125 Zn116 1.977 . S
O125 C131 1.272 . S
O126 Zn116 1.910 . S
O126 C132 1.231 . S
C127 O111 1.225 . S
C127 O133 1.298 . S
C128 O117 1.226 . S
C128 O118 1.307 . S
C129 O121 1.303 1_545 S
C129 O122 1.247 . S
C130 O119 1.253 1_565 S
C130 O120 1.283 . S
C131 O123 1.304 . S
C131 O125 1.272 . S
C132 O124 1.311 . S
C132 O126 1.231 . S
O133 Zn115 1.953 . S
O133 C127 1.298 . S
O134 Zn135 1.953 . S
O134 C150 1.225 . S
Zn135 O134 1.953 . S
Zn135 O136 1.949 . S
Zn135 O142 1.919 . S
Zn135 O147 1.924 . S
O136 Zn135 1.949 . S
O136 Zn137 1.923 . S
O136 Zn138 1.950 . S
O136 Zn139 1.945 . S
Zn137 O136 1.923 . S
Zn137 O140 1.933 . S
Zn137 O143 1.941 . S
Zn137 O144 1.965 . S
Zn138 O136 1.950 . S
Zn138 O145 1.938 . S
Zn138 O146 1.906 . S
Zn138 O156 1.953 . S
Zn139 O136 1.945 . S
Zn139 O141 1.932 . S
Zn139 O148 1.977 . S
Zn139 O149 1.910 . S
O140 Zn137 1.933 . S
O140 C151 1.226 . S
O141 Zn139 1.932 . S
O141 C151 1.307 . S
O142 Zn135 1.919 . S
O142 C153 1.253 . S
O143 Zn137 1.941 . S
O143 C153 1.283 . S
O144 Zn137 1.965 . S
O144 C152 1.303 . S
O145 Zn138 1.938 . S
O145 C152 1.247 . S
O146 Zn138 1.906 . S
O146 C154 1.304 . S
O147 Zn135 1.924 . S
O147 C155 1.311 . S
O148 Zn139 1.977 . S
O148 C154 1.272 . S
O149 Zn139 1.910 . S
O149 C155 1.231 . S
C150 O134 1.225 . S
C150 O156 1.298 . S
C151 O140 1.226 . S
C151 O141 1.307 . S
C152 O144 1.303 . S
C152 O145 1.247 . S
C153 O142 1.253 . S
C153 O143 1.283 . S
C154 O146 1.304 . S
C154 O148 1.272 . S
C155 O147 1.311 . S
C155 O149 1.231 . S
O156 Zn138 1.953 . S
O156 C150 1.298 . S
O157 Zn158 1.953 . S
O157 C173 1.225 . S
Zn158 O157 1.953 . S
Zn158 O159 1.949 1_655 S
Zn158 O165 1.919 . S
Zn158 O170 1.924 . S
O159 Zn158 1.949 1_455 S
O159 Zn160 1.923 1_454 S
O159 Zn161 1.950 . S
O159 Zn162 1.945 1_554 S
Zn160 O159 1.923 1_656 S
Zn160 O163 1.933 1_655 S
Zn160 O166 1.941 . S
Zn160 O167 1.965 . S
Zn161 O159 1.950 . S
Zn161 O168 1.938 . S
Zn161 O169 1.906 . S
Zn161 O179 1.953 . S
Zn162 O159 1.945 1_556 S
Zn162 O164 1.932 . S
Zn162 O171 1.977 1_556 S
Zn162 O172 1.910 1_556 S
O163 Zn160 1.933 1_455 S
O163 C174 1.226 . S
O164 Zn162 1.932 . S
O164 C174 1.307 . S
O165 Zn158 1.919 . S
O165 C176 1.253 1_554 S
O166 Zn160 1.941 . S
O166 C176 1.283 . S
O167 Zn160 1.965 . S
O167 C175 1.303 . S
O168 Zn161 1.938 . S
O168 C175 1.232 1_454 S
O169 Zn161 1.906 . S
O169 C177 1.304 . S
O170 Zn158 1.924 . S
O170 C178 1.311 1_655 S
O171 Zn162 1.977 1_554 S
O171 C177 1.272 . S
O172 Zn162 1.910 1_554 S
O172 C178 1.231 . S
C173 O157 1.225 . S
C173 O179 1.298 1_655 S
C174 O163 1.226 . S
C174 O164 1.307 . S
C175 O167 1.303 . S
C175 O168 1.232 1_656 S
C176 O165 1.253 1_556 S
C176 O166 1.283 . S
C177 O169 1.304 . S
C177 O171 1.272 . S
C178 O170 1.311 1_455 S
C178 O172 1.231 . S
O179 Zn161 1.953 . S
O179 C173 1.298 1_455 S
H180 C192 0.930 . S
H181 C194 0.930 . S
H182 C195 0.930 . S
H183 C199 0.959 . S
H184 C199 0.959 . S
H185 C199 0.961 . S
H186 C200 0.960 . S
H187 C200 0.961 . S
H188 C200 0.959 . S
H189 C203 0.929 . S
H190 C204 0.931 . S
H191 C206 0.930 . S
C192 H180 0.930 . S
C192 C193 1.399 . S
C192 C197 1.399 . S
C193 C192 1.399 . S
C193 C194 1.376 . S
C194 H181 0.930 . S
C194 C193 1.376 . S
C194 C195 1.388 . S
C195 H182 0.930 . S
C195 C194 1.388 . S
C195 C196 1.390 . S
C196 C195 1.390 . S
C196 C197 1.394 . S
C196 C202 1.465 . S
C197 C192 1.399 . S
C197 C196 1.394 . S
C197 C198 1.516 . S
C198 C197 1.516 . S
C198 C199 1.502 . S
C198 C200 1.561 . S
C198 C201 1.526 . S
C199 H183 0.959 . S
C199 H184 0.959 . S
C199 H185 0.961 . S
C199 C198 1.502 . S
C200 H186 0.960 . S
C200 H187 0.961 . S
C200 H188 0.959 . S
C200 C198 1.561 . S
C201 C198 1.526 . S
C201 C202 1.396 . S
C201 C206 1.390 . S
C202 C196 1.465 . S
C202 C201 1.396 . S
C202 C203 1.399 . S
C203 H189 0.929 . S
C203 C202 1.399 . S
C203 C204 1.385 . S
C204 H190 0.931 . S
C204 C203 1.385 . S
C204 C205 1.389 . S
C205 C204 1.389 . S
C205 C206 1.387 . S
C206 H191 0.930 . S
C206 C201 1.390 . S
C206 C205 1.387 . S
H207 C219 0.930 . S
H208 C221 0.930 . S
H209 C222 0.930 . S
H210 C226 0.959 1_565 S
H211 C226 0.959 . S
H212 C226 0.961 . S
H213 C227 0.960 . S
H214 C227 0.961 . S
H215 C227 0.959 1_565 S
H216 C230 0.929 . S
H217 C231 0.931 . S
H218 C233 0.930 1_545 S
C219 H207 0.930 . S
C219 C220 1.399 . S
C219 C224 1.399 . S
C220 C219 1.399 . S
C220 C221 1.376 . S
C221 H208 0.930 . S
C221 C220 1.376 . S
C221 C222 1.388 . S
C222 H209 0.930 . S
C222 C221 1.388 . S
C222 C223 1.390 . S
C223 C222 1.390 . S
C223 C224 1.394 . S
C223 C229 1.465 . S
C224 C219 1.399 . S
C224 C223 1.394 . S
C224 C225 1.516 . S
C225 C224 1.516 . S
C225 C226 1.502 1_565 S
C225 C227 1.561 1_565 S
C225 C228 1.526 . S
C226 H210 0.959 1_545 S
C226 H211 0.959 . S
C226 H212 0.961 . S
C226 C225 1.502 1_545 S
C227 H213 0.960 . S
C227 H214 0.961 . S
C227 H215 0.959 1_545 S
C227 C225 1.561 1_545 S
C228 C225 1.526 . S
C228 C229 1.396 . S
C228 C233 1.390 . S
C229 C223 1.465 . S
C229 C228 1.396 . S
C229 C230 1.399 . S
C230 H216 0.929 . S
C230 C229 1.399 . S
C230 C231 1.385 . S
C231 H217 0.931 . S
C231 C230 1.385 . S
C231 C232 1.389 . S
C232 C231 1.389 . S
C232 C233 1.387 . S
C233 H218 0.930 1_565 S
C233 C228 1.390 . S
C233 C232 1.387 . S
H234 C246 0.930 . S
H235 C248 0.930 . S
H236 C249 0.930 . S
H237 C253 0.959 . S
H238 C253 0.959 . S
H239 C253 0.961 . S
H240 C254 0.960 . S
H241 C254 0.961 . S
H242 C254 0.959 . S
H243 C257 0.929 . S
H244 C258 0.931 . S
H245 C260 0.930 . S
C246 H234 0.930 . S
C246 C247 1.399 . S
C246 C251 1.399 . S
C247 C246 1.399 . S
C247 C248 1.376 . S
C248 H235 0.930 . S
C248 C247 1.376 . S
C248 C249 1.388 . S
C249 H236 0.930 . S
C249 C248 1.388 . S
C249 C250 1.390 . S
C250 C249 1.390 . S
C250 C251 1.394 . S
C250 C256 1.465 . S
C251 C246 1.399 . S
C251 C250 1.394 . S
C251 C252 1.516 . S
C252 C251 1.516 . S
C252 C253 1.502 . S
C252 C254 1.561 . S
C252 C255 1.526 . S
C253 H237 0.959 . S
C253 H238 0.959 . S
C253 H239 0.961 . S
C253 C252 1.502 . S
C254 H240 0.960 . S
C254 H241 0.961 . S
C254 H242 0.959 . S
C254 C252 1.561 . S
C255 C252 1.526 . S
C255 C256 1.396 . S
C255 C260 1.390 . S
C256 C250 1.465 . S
C256 C255 1.396 . S
C256 C257 1.399 . S
C257 H243 0.929 . S
C257 C256 1.399 . S
C257 C258 1.385 . S
C258 H244 0.931 . S
C258 C257 1.385 . S
C258 C259 1.389 . S
C259 C258 1.389 . S
C259 C260 1.387 . S
C260 H245 0.930 . S
C260 C255 1.390 . S
C260 C259 1.387 . S
H261 C273 0.930 . S
H262 C275 0.930 . S
H263 C276 0.930 . S
H264 C280 0.959 1_455 S
H265 C280 0.959 1_455 S
H266 C280 0.961 . S
H267 C281 0.960 . S
H268 C281 0.961 . S
H269 C281 0.959 . S
H270 C284 0.929 . S
H271 C285 0.931 . S
H272 C287 0.930 . S
C273 H261 0.930 . S
C273 C274 1.399 . S
C273 C278 1.399 . S
C274 C273 1.399 . S
C274 C275 1.376 . S
C275 H262 0.930 . S
C275 C274 1.376 . S
C275 C276 1.388 . S
C276 H263 0.930 . S
C276 C275 1.388 . S
C276 C277 1.390 . S
C277 C276 1.390 . S
C277 C278 1.394 . S
C277 C283 1.465 . S
C278 C273 1.399 . S
C278 C277 1.394 . S
C278 C279 1.516 . S
C279 C278 1.516 . S
C279 C280 1.502 . S
C279 C281 1.561 . S
C279 C282 1.526 . S
C280 H264 0.959 1_655 S
C280 H265 0.959 1_655 S
C280 H266 0.961 . S
C280 C279 1.502 . S
C281 H267 0.960 . S
C281 H268 0.961 . S
C281 H269 0.959 . S
C281 C279 1.561 . S
C282 C279 1.526 . S
C282 C283 1.396 . S
C282 C287 1.390 . S
C283 C277 1.465 . S
C283 C282 1.396 . S
C283 C284 1.399 . S
C284 H270 0.929 . S
C284 C283 1.399 . S
C284 C285 1.385 . S
C285 H271 0.931 . S
C285 C284 1.385 . S
C285 C286 1.389 . S
C286 C285 1.389 . S
C286 C287 1.387 . S
C287 H272 0.930 . S
C287 C282 1.390 . S
C287 C286 1.387 . S
H288 C300 0.930 . S
H289 C302 0.930 . S
H290 C303 0.930 . S
H291 C307 0.959 . S
H292 C307 0.959 . S
H293 C307 0.961 . S
H294 C308 0.960 . S
H295 C308 0.961 . S
H296 C308 0.959 . S
H297 C311 0.929 . S
H298 C312 0.931 . S
H299 C314 0.930 . S
C300 H288 0.930 . S
C300 C301 1.399 . S
C300 C305 1.399 . S
C301 C300 1.399 . S
C301 C302 1.376 . S
C302 H289 0.930 . S
C302 C301 1.376 . S
C302 C303 1.388 . S
C303 H290 0.930 . S
C303 C302 1.388 . S
C303 C304 1.390 . S
C304 C303 1.390 . S
C304 C305 1.394 . S
C304 C310 1.465 . S
C305 C300 1.399 . S
C305 C304 1.394 . S
C305 C306 1.516 . S
C306 C305 1.516 . S
C306 C307 1.502 . S
C306 C308 1.561 . S
C306 C309 1.526 . S
C307 H291 0.959 . S
C307 H292 0.959 . S
C307 H293 0.961 . S
C307 C306 1.502 . S
C308 H294 0.960 . S
C308 H295 0.961 . S
C308 H296 0.959 . S
C308 C306 1.561 . S
C309 C306 1.526 . S
C309 C310 1.396 . S
C309 C314 1.390 . S
C310 C304 1.465 . S
C310 C309 1.396 . S
C310 C311 1.399 . S
C311 H297 0.929 . S
C311 C310 1.399 . S
C311 C312 1.385 . S
C312 H298 0.931 . S
C312 C311 1.385 . S
C312 C313 1.389 . S
C313 C312 1.389 . S
C313 C314 1.387 . S
C314 H299 0.930 . S
C314 C309 1.390 . S
C314 C313 1.387 . S
H315 C327 0.930 . S
H316 C329 0.930 . S
H317 C330 0.930 . S
H318 C334 0.959 . S
H319 C334 0.959 . S
H320 C334 0.961 . S
H321 C335 0.960 . S
H322 C335 0.961 . S
H323 C335 0.959 . S
H324 C338 0.929 . S
H325 C339 0.931 . S
H326 C341 0.930 . S
C327 H315 0.930 . S
C327 C328 1.399 . S
C327 C332 1.399 . S
C328 C327 1.399 . S
C328 C329 1.376 . S
C329 H316 0.930 . S
C329 C328 1.376 . S
C329 C330 1.388 . S
C330 H317 0.930 . S
C330 C329 1.388 . S
C330 C331 1.390 . S
C331 C330 1.390 . S
C331 C332 1.394 . S
C331 C337 1.465 . S
C332 C327 1.399 . S
C332 C331 1.394 . S
C332 C333 1.516 . S
C333 C332 1.516 . S
C333 C334 1.502 . S
C333 C335 1.561 1_565 S
C333 C336 1.526 . S
C334 H318 0.959 . S
C334 H319 0.959 . S
C334 H320 0.961 . S
C334 C333 1.502 . S
C335 H321 0.960 . S
C335 H322 0.961 . S
C335 H323 0.959 . S
C335 C333 1.561 1_545 S
C336 C333 1.526 . S
C336 C337 1.396 . S
C336 C341 1.390 . S
C337 C331 1.465 . S
C337 C336 1.396 . S
C337 C338 1.399 . S
C338 H324 0.929 . S
C338 C337 1.399 . S
C338 C339 1.385 . S
C339 H325 0.931 . S
C339 C338 1.385 . S
C339 C340 1.389 . S
C340 C339 1.389 . S
C340 C341 1.387 . S
C341 H326 0.930 . S
C341 C336 1.390 . S
C341 C340 1.387 . S
H342 C354 0.930 . S
H343 C356 0.930 . S
H344 C357 0.930 . S
H345 C361 0.973 . S
H346 C361 0.948 1_554 S
H347 C361 0.955 1_554 S
H348 C362 0.960 . S
H349 C362 0.961 . S
H350 C362 0.959 . S
H351 C365 0.929 . S
H352 C366 0.931 . S
H353 C368 0.930 1_554 S
C354 H342 0.930 . S
C354 C355 1.399 . S
C354 C359 1.399 . S
C355 C354 1.399 . S
C355 C356 1.376 . S
C356 H343 0.930 . S
C356 C355 1.376 . S
C356 C357 1.388 . S
C357 H344 0.930 . S
C357 C356 1.388 . S
C357 C358 1.390 . S
C358 C357 1.390 . S
C358 C359 1.394 . S
C358 C364 1.465 . S
C359 C354 1.399 . S
C359 C358 1.394 . S
C359 C360 1.516 . S
C360 C359 1.516 . S
C360 C361 1.506 . S
C360 C362 1.561 1_556 S
C360 C363 1.526 . S
C361 H345 0.973 . S
C361 H346 0.948 1_556 S
C361 H347 0.955 1_556 S
C361 C360 1.506 . S
C362 H348 0.960 . S
C362 H349 0.961 . S
C362 H350 0.959 . S
C362 C360 1.561 1_554 S
C363 C360 1.526 . S
C363 C364 1.396 . S
C363 C368 1.390 . S
C364 C358 1.465 . S
C364 C363 1.396 . S
C364 C365 1.399 . S
C365 H351 0.929 . S
C365 C364 1.399 . S
C365 C366 1.385 . S
C366 H352 0.931 . S
C366 C365 1.385 . S
C366 C367 1.389 . S
C367 C366 1.389 . S
C367 C368 1.387 . S
C368 H353 0.930 1_556 S
C368 C363 1.390 . S
C368 C367 1.387 . S
H369 C381 0.930 . S
H370 C383 0.930 . S
H371 C384 0.930 . S
H372 C388 0.959 . S
H373 C388 0.959 . S
H374 C388 0.961 . S
H375 C389 0.960 . S
H376 C389 0.961 . S
H377 C389 0.959 . S
H378 C392 0.929 . S
H379 C393 0.931 . S
H380 C395 0.930 . S
C381 H369 0.930 . S
C381 C382 1.399 . S
C381 C386 1.399 . S
C382 C381 1.399 . S
C382 C383 1.376 . S
C383 H370 0.930 . S
C383 C382 1.376 . S
C383 C384 1.388 . S
C384 H371 0.930 . S
C384 C383 1.388 . S
C384 C385 1.390 . S
C385 C384 1.390 . S
C385 C386 1.394 . S
C385 C391 1.465 . S
C386 C381 1.399 . S
C386 C385 1.394 . S
C386 C387 1.516 . S
C387 C386 1.516 . S
C387 C388 1.502 . S
C387 C389 1.561 . S
C387 C390 1.526 . S
C388 H372 0.959 . S
C388 H373 0.959 . S
C388 H374 0.961 . S
C388 C387 1.502 . S
C389 H375 0.960 . S
C389 H376 0.961 . S
C389 H377 0.959 . S
C389 C387 1.561 . S
C390 C387 1.526 . S
C390 C391 1.396 . S
C390 C395 1.390 . S
C391 C385 1.465 . S
C391 C390 1.396 . S
C391 C392 1.399 . S
C392 H378 0.929 . S
C392 C391 1.399 . S
C392 C393 1.385 . S
C393 H379 0.931 . S
C393 C392 1.385 . S
C393 C394 1.389 . S
C394 C393 1.389 . S
C394 C395 1.387 . S
C395 H380 0.930 . S
C395 C390 1.390 . S
C395 C394 1.387 . S
H396 C408 0.930 . S
H397 C410 0.930 . S
H398 C411 0.930 . S
H399 C415 0.959 . S
H400 C415 0.959 . S
H401 C415 0.961 . S
H402 C416 0.960 . S
H403 C416 0.961 . S
H404 C416 0.959 . S
H405 C419 0.929 . S
H406 C420 0.931 1_655 S
H407 C422 0.930 . S
C408 H396 0.930 . S
C408 C409 1.399 . S
C408 C413 1.399 . S
C409 C408 1.399 . S
C409 C410 1.376 . S
C410 H397 0.930 . S
C410 C409 1.376 . S
C410 C411 1.388 . S
C411 H398 0.930 . S
C411 C410 1.388 . S
C411 C412 1.390 . S
C412 C411 1.390 . S
C412 C413 1.394 . S
C412 C418 1.465 . S
C413 C408 1.399 . S
C413 C412 1.394 . S
C413 C414 1.516 . S
C414 C413 1.516 . S
C414 C415 1.502 . S
C414 C416 1.561 . S
C414 C417 1.526 . S
C415 H399 0.959 . S
C415 H400 0.959 . S
C415 H401 0.961 . S
C415 C414 1.502 . S
C416 H402 0.960 . S
C416 H403 0.961 . S
C416 H404 0.959 . S
C416 C414 1.561 . S
C417 C414 1.526 . S
C417 C418 1.396 . S
C417 C422 1.390 . S
C418 C412 1.465 . S
C418 C417 1.396 . S
C418 C419 1.399 . S
C419 H405 0.929 . S
C419 C418 1.399 . S
C419 C420 1.385 . S
C420 H406 0.931 1_455 S
C420 C419 1.385 . S
C420 C421 1.389 . S
C421 C420 1.389 . S
C421 C422 1.387 . S
C422 H407 0.930 . S
C422 C417 1.390 . S
C422 C421 1.387 . S
H423 C435 0.930 1_554 S
H424 C437 0.930 . S
H425 C438 0.930 . S
H426 C442 0.959 . S
H427 C442 0.959 . S
H428 C442 0.961 . S
H429 C443 0.960 . S
H430 C443 0.961 . S
H431 C443 0.959 . S
H432 C446 0.929 . S
H433 C447 0.931 . S
H434 C449 0.930 . S
C435 H423 0.930 1_556 S
C435 C436 1.399 . S
C435 C440 1.399 . S
C436 C435 1.399 . S
C436 C437 1.376 . S
C437 H424 0.930 . S
C437 C436 1.376 . S
C437 C438 1.388 . S
C438 H425 0.930 . S
C438 C437 1.388 . S
C438 C439 1.390 . S
C439 C438 1.390 . S
C439 C440 1.394 . S
C439 C445 1.465 . S
C440 C435 1.399 . S
C440 C439 1.394 . S
C440 C441 1.516 1_556 S
C441 C440 1.516 1_554 S
C441 C442 1.502 . S
C441 C443 1.561 . S
C441 C444 1.526 . S
C442 H426 0.959 . S
C442 H427 0.959 . S
C442 H428 0.961 . S
C442 C441 1.502 . S
C443 H429 0.960 . S
C443 H430 0.961 . S
C443 H431 0.959 . S
C443 C441 1.561 . S
C444 C441 1.526 . S
C444 C445 1.396 1_554 S
C444 C449 1.390 . S
C445 C439 1.465 . S
C445 C444 1.396 1_556 S
C445 C446 1.399 . S
C446 H432 0.929 . S
C446 C445 1.399 . S
C446 C447 1.385 . S
C447 H433 0.931 . S
C447 C446 1.385 . S
C447 C448 1.389 1_556 S
C448 C447 1.389 1_554 S
C448 C449 1.387 . S
C449 H434 0.930 . S
C449 C444 1.390 . S
C449 C448 1.387 . S
H450 C462 0.930 . S
H451 C464 0.930 . S
H452 C465 0.930 . S
H453 C469 0.959 . S
H454 C469 0.959 . S
H455 C469 0.961 . S
H456 C470 0.960 . S
H457 C470 0.961 . S
H458 C470 0.959 . S
H459 C473 0.929 . S
H460 C474 0.931 . S
H461 C476 0.930 . S
C462 H450 0.930 . S
C462 C463 1.399 . S
C462 C467 1.399 . S
C463 C462 1.399 . S
C463 C464 1.376 . S
C464 H451 0.930 . S
C464 C463 1.376 . S
C464 C465 1.388 . S
C465 H452 0.930 . S
C465 C464 1.388 . S
C465 C466 1.390 . S
C466 C465 1.390 . S
C466 C467 1.394 . S
C466 C472 1.465 . S
C467 C462 1.399 . S
C467 C466 1.394 . S
C467 C468 1.516 . S
C468 C467 1.516 . S
C468 C469 1.502 . S
C468 C470 1.561 . S
C468 C471 1.526 . S
C469 H453 0.959 . S
C469 H454 0.959 . S
C469 H455 0.961 . S
C469 C468 1.502 . S
C470 H456 0.960 . S
C470 H457 0.961 . S
C470 H458 0.959 . S
C470 C468 1.561 . S
C471 C468 1.526 . S
C471 C472 1.396 . S
C471 C476 1.390 . S
C472 C466 1.465 . S
C472 C471 1.396 . S
C472 C473 1.399 . S
C473 H459 0.929 . S
C473 C472 1.399 . S
C473 C474 1.385 . S
C474 H460 0.931 . S
C474 C473 1.385 . S
C474 C475 1.389 . S
C475 C474 1.389 . S
C475 C476 1.387 . S
C476 H461 0.930 . S
C476 C471 1.390 . S
C476 C475 1.387 . S
H477 C489 0.930 . S
H478 C491 0.930 . S
H479 C492 0.930 . S
H480 C496 0.959 . S
H481 C496 0.959 . S
H482 C496 0.961 . S
H483 C497 0.960 . S
H484 C497 0.961 . S
H485 C497 0.959 . S
H486 C500 0.929 . S
H487 C501 0.931 . S
H488 C503 0.930 . S
C489 H477 0.930 . S
C489 C490 1.399 . S
C489 C494 1.399 . S
C490 C489 1.399 . S
C490 C491 1.376 . S
C491 H478 0.930 . S
C491 C490 1.376 . S
C491 C492 1.388 . S
C492 H479 0.930 . S
C492 C491 1.388 . S
C492 C493 1.390 . S
C493 C492 1.390 . S
C493 C494 1.394 . S
C493 C499 1.465 . S
C494 C489 1.399 . S
C494 C493 1.394 . S
C494 C495 1.516 . S
C495 C494 1.516 . S
C495 C496 1.502 . S
C495 C497 1.561 . S
C495 C498 1.526 . S
C496 H480 0.959 . S
C496 H481 0.959 . S
C496 H482 0.961 . S
C496 C495 1.502 . S
C497 H483 0.960 . S
C497 H484 0.961 . S
C497 H485 0.959 . S
C497 C495 1.561 . S
C498 C495 1.526 . S
C498 C499 1.396 . S
C498 C503 1.390 . S
C499 C493 1.465 . S
C499 C498 1.396 . S
C499 C500 1.399 . S
C500 H486 0.929 . S
C500 C499 1.399 . S
C500 C501 1.385 . S
C501 H487 0.931 . S
C501 C500 1.385 . S
C501 C502 1.389 . S
C502 C501 1.389 . S
C502 C503 1.387 . S
C503 H488 0.930 . S
C503 C498 1.390 . S
C503 C502 1.387 . S
H504 C516 0.930 . S
H505 C518 0.930 . S
H506 C519 0.930 . S
H507 C523 0.959 . S
H508 C523 0.959 . S
H509 C523 0.961 . S
H510 C524 0.960 . S
H511 C524 0.961 . S
H512 C524 0.959 . S
H513 C527 0.929 . S
H514 C528 0.931 . S
H515 C530 0.930 . S
C516 H504 0.930 . S
C516 C517 1.399 . S
C516 C521 1.399 . S
C517 C516 1.399 . S
C517 C518 1.376 1_565 S
C518 H505 0.930 . S
C518 C517 1.376 1_545 S
C518 C519 1.388 . S
C519 H506 0.930 . S
C519 C518 1.388 . S
C519 C520 1.390 . S
C520 C519 1.390 . S
C520 C521 1.394 1_545 S
C520 C526 1.465 . S
C521 C516 1.399 . S
C521 C520 1.394 1_565 S
C521 C522 1.516 . S
C522 C521 1.516 . S
C522 C523 1.502 1_655 S
C522 C524 1.561 . S
C522 C525 1.526 . S
C523 H507 0.959 . S
C523 H508 0.959 . S
C523 H509 0.961 . S
C523 C522 1.502 1_455 S
C524 H510 0.960 . S
C524 H511 0.961 . S
C524 H512 0.959 . S
C524 C522 1.561 . S
C525 C522 1.526 . S
C525 C526 1.396 1_565 S
C525 C530 1.390 . S
C526 C520 1.465 . S
C526 C525 1.396 1_545 S
C526 C527 1.399 . S
C527 H513 0.929 . S
C527 C526 1.399 . S
C527 C528 1.385 . S
C528 H514 0.931 . S
C528 C527 1.385 . S
C528 C529 1.389 . S
C529 C528 1.389 . S
C529 C530 1.387 1_545 S
C530 H515 0.930 . S
C530 C525 1.390 . S
C530 C529 1.387 1_565 S
H531 C543 0.930 . S
H532 C545 0.930 . S
H533 C546 0.930 . S
H534 C550 0.959 . S
H535 C550 0.959 . S
H536 C550 0.961 . S
H537 C551 0.960 . S
H538 C551 0.961 . S
H539 C551 0.959 . S
H540 C554 0.929 . S
H541 C555 0.931 . S
H542 C557 0.930 . S
C543 H531 0.930 . S
C543 C544 1.399 . S
C543 C548 1.399 . S
C544 C543 1.399 . S
C544 C545 1.376 . S
C545 H532 0.930 . S
C545 C544 1.376 . S
C545 C546 1.388 . S
C546 H533 0.930 . S
C546 C545 1.388 . S
C546 C547 1.390 . S
C547 C546 1.390 . S
C547 C548 1.394 . S
C547 C553 1.465 . S
C548 C543 1.399 . S
C548 C547 1.394 . S
C548 C549 1.516 . S
C549 C548 1.516 . S
C549 C550 1.502 . S
C549 C551 1.561 1_545 S
C549 C552 1.526 . S
C550 H534 0.959 . S
C550 H535 0.959 . S
C550 H536 0.961 . S
C550 C549 1.502 . S
C551 H537 0.960 . S
C551 H538 0.961 . S
C551 H539 0.959 . S
C551 C549 1.561 1_565 S
C552 C549 1.526 . S
C552 C553 1.396 . S
C552 C557 1.390 . S
C553 C547 1.465 . S
C553 C552 1.396 . S
C553 C554 1.399 . S
C554 H540 0.929 . S
C554 C553 1.399 . S
C554 C555 1.385 . S
C555 H541 0.931 . S
C555 C554 1.385 . S
C555 C556 1.389 . S
C556 C555 1.389 . S
C556 C557 1.387 . S
C557 H542 0.930 . S
C557 C552 1.390 . S
C557 C556 1.387 . S
H558 C570 0.930 . S
H559 C572 0.930 . S
H560 C573 0.930 . S
H561 C577 0.959 . S
H562 C577 0.959 . S
H563 C577 0.961 . S
H564 C578 0.960 . S
H565 C578 0.961 . S
H566 C578 0.959 . S
H567 C581 0.929 . S
H568 C582 0.931 . S
H569 C584 0.930 . S
C570 H558 0.930 . S
C570 C571 1.399 . S
C570 C575 1.399 . S
C571 C570 1.399 . S
C571 C572 1.376 . S
C572 H559 0.930 . S
C572 C571 1.376 . S
C572 C573 1.388 . S
C573 H560 0.930 . S
C573 C572 1.388 . S
C573 C574 1.390 . S
C574 C573 1.390 . S
C574 C575 1.394 . S
C574 C580 1.465 . S
C575 C570 1.399 . S
C575 C574 1.394 . S
C575 C576 1.516 . S
C576 C575 1.516 . S
C576 C577 1.502 . S
C576 C578 1.561 . S
C576 C579 1.526 . S
C577 H561 0.959 . S
C577 H562 0.959 . S
C577 H563 0.961 . S
C577 C576 1.502 . S
C578 H564 0.960 . S
C578 H565 0.961 . S
C578 H566 0.959 . S
C578 C576 1.561 . S
C579 C576 1.526 . S
C579 C580 1.396 . S
C579 C584 1.390 . S
C580 C574 1.465 . S
C580 C579 1.396 . S
C580 C581 1.399 . S
C581 H567 0.929 . S
C581 C580 1.399 . S
C581 C582 1.385 . S
C582 H568 0.931 . S
C582 C581 1.385 . S
C582 C583 1.389 . S
C583 C582 1.389 . S
C583 C584 1.387 . S
C584 H569 0.930 . S
C584 C579 1.390 . S
C584 C583 1.387 . S
H585 C597 0.930 . S
H586 C599 0.930 . S
H587 C600 0.930 . S
H588 C604 0.959 . S
H589 C604 0.959 . S
H590 C604 0.961 . S
H591 C605 0.960 . S
H592 C605 0.961 . S
H593 C605 0.959 . S
H594 C608 0.929 . S
H595 C609 0.931 . S
H596 C611 0.930 . S
C597 H585 0.930 . S
C597 C598 1.399 . S
C597 C602 1.399 . S
C598 C597 1.399 . S
C598 C599 1.376 . S
C599 H586 0.930 . S
C599 C598 1.376 . S
C599 C600 1.388 . S
C600 H587 0.930 . S
C600 C599 1.388 . S
C600 C601 1.390 . S
C601 C600 1.390 . S
C601 C602 1.394 . S
C601 C607 1.465 . S
C602 C597 1.399 . S
C602 C601 1.394 . S
C602 C603 1.516 . S
C603 C602 1.516 . S
C603 C604 1.502 . S
C603 C605 1.561 . S
C603 C606 1.526 . S
C604 H588 0.959 . S
C604 H589 0.959 . S
C604 H590 0.961 . S
C604 C603 1.502 . S
C605 H591 0.960 . S
C605 H592 0.961 . S
C605 H593 0.959 . S
C605 C603 1.561 . S
C606 C603 1.526 . S
C606 C607 1.396 . S
C606 C611 1.390 . S
C607 C601 1.465 . S
C607 C606 1.396 . S
C607 C608 1.399 . S
C608 H594 0.929 . S
C608 C607 1.399 . S
C608 C609 1.385 . S
C609 H595 0.931 . S
C609 C608 1.385 . S
C609 C610 1.389 . S
C610 C609 1.389 . S
C610 C611 1.387 . S
C611 H596 0.930 . S
C611 C606 1.390 . S
C611 C610 1.387 . S
H612 C624 0.930 . S
H613 C626 0.930 . S
H614 C627 0.930 . S
H615 C631 0.959 1_545 S
H616 C631 0.959 . S
H617 C631 0.961 . S
H618 C632 0.960 . S
H619 C632 0.961 . S
H620 C632 0.959 . S
H621 C635 0.929 . S
H622 C636 0.931 . S
H623 C638 0.930 . S
C624 H612 0.930 . S
C624 C625 1.399 . S
C624 C629 1.399 . S
C625 C624 1.399 . S
C625 C626 1.376 1_566 S
C626 H613 0.930 . S
C626 C625 1.376 1_544 S
C626 C627 1.388 . S
C627 H614 0.930 . S
C627 C626 1.388 . S
C627 C628 1.390 . S
C628 C627 1.390 . S
C628 C629 1.394 1_544 S
C628 C634 1.465 . S
C629 C624 1.399 . S
C629 C628 1.394 1_566 S
C629 C630 1.516 . S
C630 C629 1.516 . S
C630 C631 1.502 . S
C630 C632 1.561 . S
C630 C633 1.526 . S
C631 H615 0.959 1_565 S
C631 H616 0.959 . S
C631 H617 0.961 . S
C631 C630 1.502 . S
C632 H618 0.960 . S
C632 H619 0.961 . S
C632 H620 0.959 . S
C632 C630 1.561 . S
C633 C630 1.526 . S
C633 C634 1.396 1_566 S
C633 C638 1.390 . S
C634 C628 1.465 . S
C634 C633 1.396 1_544 S
C634 C635 1.399 . S
C635 H621 0.929 . S
C635 C634 1.399 . S
C635 C636 1.385 . S
C636 H622 0.931 . S
C636 C635 1.385 . S
C636 C637 1.389 . S
C637 C636 1.389 . S
C637 C638 1.387 1_544 S
C638 H623 0.930 . S
C638 C633 1.390 . S
C638 C637 1.387 1_566 S
H639 C651 0.930 . S
H640 C653 0.930 . S
H641 C654 0.930 . S
H642 C658 0.959 . S
H643 C658 0.959 . S
H644 C658 0.961 . S
H645 C659 0.960 . S
H646 C659 0.961 . S
H647 C659 0.959 . S
H648 C662 0.929 . S
H649 C663 0.931 . S
H650 C665 0.930 . S
C651 H639 0.930 . S
C651 C652 1.399 . S
C651 C656 1.399 . S
C652 C651 1.399 . S
C652 C653 1.376 . S
C653 H640 0.930 . S
C653 C652 1.376 . S
C653 C654 1.388 . S
C654 H641 0.930 . S
C654 C653 1.388 . S
C654 C655 1.390 . S
C655 C654 1.390 . S
C655 C656 1.394 . S
C655 C661 1.465 . S
C656 C651 1.399 . S
C656 C655 1.394 . S
C656 C657 1.516 . S
C657 C656 1.516 . S
C657 C658 1.502 1_545 S
C657 C659 1.561 . S
C657 C660 1.526 . S
C658 H642 0.959 . S
C658 H643 0.959 . S
C658 H644 0.961 . S
C658 C657 1.502 1_565 S
C659 H645 0.960 . S
C659 H646 0.961 . S
C659 H647 0.959 . S
C659 C657 1.561 . S
C660 C657 1.526 . S
C660 C661 1.396 . S
C660 C665 1.390 . S
C661 C655 1.465 . S
C661 C660 1.396 . S
C661 C662 1.399 . S
C662 H648 0.929 . S
C662 C661 1.399 . S
C662 C663 1.385 . S
C663 H649 0.931 . S
C663 C662 1.385 . S
C663 C664 1.389 . S
C664 C663 1.389 . S
C664 C665 1.387 . S
C665 H650 0.930 . S
C665 C660 1.390 . S
C665 C664 1.387 . S
H666 C678 0.930 . S
H667 C680 0.930 . S
H668 C681 0.930 . S
H669 C685 0.959 . S
H670 C685 0.959 . S
H671 C685 0.961 . S
H672 C686 0.960 . S
H673 C686 0.961 . S
H674 C686 0.959 . S
H675 C689 0.929 . S
H676 C690 0.931 1_556 S
H677 C692 0.930 . S
C678 H666 0.930 . S
C678 C679 1.399 . S
C678 C683 1.399 . S
C679 C678 1.399 . S
C679 C680 1.376 . S
C680 H667 0.930 . S
C680 C679 1.376 . S
C680 C681 1.388 . S
C681 H668 0.930 . S
C681 C680 1.388 . S
C681 C682 1.390 . S
C682 C681 1.390 . S
C682 C683 1.394 . S
C682 C688 1.465 . S
C683 C678 1.399 . S
C683 C682 1.394 . S
C683 C684 1.516 . S
C684 C683 1.516 . S
C684 C685 1.502 . S
C684 C686 1.561 . S
C684 C687 1.526 . S
C685 H669 0.959 . S
C685 H670 0.959 . S
C685 H671 0.961 . S
C685 C684 1.502 . S
C686 H672 0.960 . S
C686 H673 0.961 . S
C686 H674 0.959 . S
C686 C684 1.561 . S
C687 C684 1.526 . S
C687 C688 1.396 . S
C687 C692 1.390 . S
C688 C682 1.465 . S
C688 C687 1.396 . S
C688 C689 1.399 . S
C689 H675 0.929 . S
C689 C688 1.399 . S
C689 C690 1.385 . S
C690 H676 0.931 1_554 S
C690 C689 1.385 . S
C690 C691 1.389 . S
C691 C690 1.389 . S
C691 C692 1.387 . S
C692 H677 0.930 . S
C692 C687 1.390 . S
C692 C691 1.387 . S
H693 C705 0.930 . S
H694 C707 0.930 . S
H695 C708 0.930 . S
H696 C712 0.959 . S
H697 C712 0.959 . S
H698 C712 0.961 . S
H699 C713 0.960 . S
H700 C713 0.961 . S
H701 C713 0.959 . S
H702 C716 0.929 . S
H703 C717 0.931 . S
H704 C719 0.930 . S
C705 H693 0.930 . S
C705 C706 1.399 . S
C705 C710 1.399 . S
C706 C705 1.399 . S
C706 C707 1.376 . S
C707 H694 0.930 . S
C707 C706 1.376 . S
C707 C708 1.388 . S
C708 H695 0.930 . S
C708 C707 1.388 . S
C708 C709 1.390 . S
C709 C708 1.390 . S
C709 C710 1.394 . S
C709 C715 1.465 . S
C710 C705 1.399 . S
C710 C709 1.394 . S
C710 C711 1.516 . S
C711 C710 1.516 . S
C711 C712 1.502 . S
C711 C713 1.561 . S
C711 C714 1.526 . S
C712 H696 0.959 . S
C712 H697 0.959 . S
C712 H698 0.961 . S
C712 C711 1.502 . S
C713 H699 0.960 . S
C713 H700 0.961 . S
C713 H701 0.959 . S
C713 C711 1.561 . S
C714 C711 1.526 . S
C714 C715 1.396 . S
C714 C719 1.390 . S
C715 C709 1.465 . S
C715 C714 1.396 . S
C715 C716 1.399 . S
C716 H702 0.929 . S
C716 C715 1.399 . S
C716 C717 1.385 . S
C717 H703 0.931 . S
C717 C716 1.385 . S
C717 C718 1.389 . S
C718 C717 1.389 . S
C718 C719 1.387 . S
C719 H704 0.930 . S
C719 C714 1.390 . S
C719 C718 1.387 . S
H720 C732 0.930 . S
H721 C734 0.930 . S
H722 C735 0.930 . S
H723 C739 0.959 . S
H724 C739 0.959 . S
H725 C739 0.961 . S
H726 C740 0.960 . S
H727 C740 0.961 . S
H728 C740 0.959 . S
H729 C743 0.929 . S
H730 C744 0.931 . S
H731 C746 0.930 . S
C732 H720 0.930 . S
C732 C733 1.399 . S
C732 C737 1.399 . S
C733 C732 1.399 . S
C733 C734 1.376 . S
C734 H721 0.930 . S
C734 C733 1.376 . S
C734 C735 1.388 . S
C735 H722 0.930 . S
C735 C734 1.388 . S
C735 C736 1.390 . S
C736 C735 1.390 . S
C736 C737 1.394 . S
C736 C742 1.465 . S
C737 C732 1.399 . S
C737 C736 1.394 . S
C737 C738 1.516 1_556 S
C738 C737 1.516 1_554 S
C738 C739 1.502 1_655 S
C738 C740 1.561 . S
C738 C741 1.526 1_554 S
C739 H723 0.959 . S
C739 H724 0.959 . S
C739 H725 0.961 . S
C739 C738 1.502 1_455 S
C740 H726 0.960 . S
C740 H727 0.961 . S
C740 H728 0.959 . S
C740 C738 1.561 . S
C741 C738 1.526 1_556 S
C741 C742 1.396 . S
C741 C746 1.390 1_556 S
C742 C736 1.465 . S
C742 C741 1.396 . S
C742 C743 1.399 . S
C743 H729 0.929 . S
C743 C742 1.399 . S
C743 C744 1.385 . S
C744 H730 0.931 . S
C744 C743 1.385 . S
C744 C745 1.389 . S
C745 C744 1.389 . S
C745 C746 1.387 1_556 S
C746 H731 0.930 . S
C746 C741 1.390 1_554 S
C746 C745 1.387 1_554 S
H747 C759 0.930 . S
H748 C761 0.930 . S
H749 C762 0.930 . S
H750 C766 0.959 . S
H751 C766 0.959 . S
H752 C766 0.961 . S
H753 C767 0.960 . S
H754 C767 0.961 . S
H755 C767 0.959 . S
H756 C770 0.929 . S
H757 C771 0.931 . S
H758 C773 0.930 . S
C759 H747 0.930 . S
C759 C760 1.399 . S
C759 C764 1.399 . S
C760 C759 1.399 . S
C760 C761 1.376 . S
C761 H748 0.930 . S
C761 C760 1.376 . S
C761 C762 1.388 . S
C762 H749 0.930 . S
C762 C761 1.388 . S
C762 C763 1.390 . S
C763 C762 1.390 . S
C763 C764 1.394 . S
C763 C769 1.465 . S
C764 C759 1.399 . S
C764 C763 1.394 . S
C764 C765 1.516 . S
C765 C764 1.516 . S
C765 C766 1.502 . S
C765 C767 1.561 . S
C765 C768 1.526 . S
C766 H750 0.959 . S
C766 H751 0.959 . S
C766 H752 0.961 . S
C766 C765 1.502 . S
C767 H753 0.960 . S
C767 H754 0.961 . S
C767 H755 0.959 . S
C767 C765 1.561 . S
C768 C765 1.526 . S
C768 C769 1.396 . S
C768 C773 1.390 . S
C769 C763 1.465 . S
C769 C768 1.396 . S
C769 C770 1.399 . S
C770 H756 0.929 . S
C770 C769 1.399 . S
C770 C771 1.385 . S
C771 H757 0.931 . S
C771 C770 1.385 . S
C771 C772 1.389 . S
C772 C771 1.389 . S
C772 C773 1.387 . S
C773 H758 0.930 . S
C773 C768 1.390 . S
C773 C772 1.387 . S
H774 C786 0.930 . S
H775 C788 0.930 . S
H776 C789 0.930 . S
H777 C793 0.959 . S
H778 C793 0.959 . S
H779 C793 0.961 . S
H780 C794 0.960 . S
H781 C794 0.961 . S
H782 C794 0.959 . S
H783 C797 0.929 . S
H784 C798 0.931 . S
H785 C800 0.930 . S
C786 H774 0.930 . S
C786 C787 1.399 . S
C786 C791 1.399 . S
C787 C786 1.399 . S
C787 C788 1.376 . S
C788 H775 0.930 . S
C788 C787 1.376 . S
C788 C789 1.388 . S
C789 H776 0.930 . S
C789 C788 1.388 . S
C789 C790 1.390 . S
C790 C789 1.390 . S
C790 C791 1.394 . S
C790 C796 1.465 . S
C791 C786 1.399 . S
C791 C790 1.394 . S
C791 C792 1.516 . S
C792 C791 1.516 . S
C792 C793 1.502 . S
C792 C794 1.561 . S
C792 C795 1.526 . S
C793 H777 0.959 . S
C793 H778 0.959 . S
C793 H779 0.961 . S
C793 C792 1.502 . S
C794 H780 0.960 . S
C794 H781 0.961 . S
C794 H782 0.959 . S
C794 C792 1.561 . S
C795 C792 1.526 . S
C795 C796 1.396 . S
C795 C800 1.390 . S
C796 C790 1.465 . S
C796 C795 1.396 . S
C796 C797 1.399 . S
C797 H783 0.929 . S
C797 C796 1.399 . S
C797 C798 1.385 . S
C798 H784 0.931 . S
C798 C797 1.385 . S
C798 C799 1.389 . S
C799 C798 1.389 . S
C799 C800 1.387 . S
C800 H785 0.930 . S
C800 C795 1.390 . S
C800 C799 1.387 . S
H801 C813 0.930 . S
H802 C815 0.930 . S
H803 C816 0.930 . S
H804 C820 0.959 . S
H805 C820 0.959 . S
H806 C820 0.961 . S
H807 C821 0.960 . S
H808 C821 0.961 . S
H809 C821 0.959 . S
H810 C824 0.929 . S
H811 C825 0.931 . S
H812 C827 0.930 . S
C813 H801 0.930 . S
C813 C814 1.399 . S
C813 C818 1.399 . S
C814 C813 1.399 . S
C814 C815 1.376 . S
C815 H802 0.930 . S
C815 C814 1.376 . S
C815 C816 1.388 . S
C816 H803 0.930 . S
C816 C815 1.388 . S
C816 C817 1.390 . S
C817 C816 1.390 . S
C817 C818 1.394 . S
C817 C823 1.465 . S
C818 C813 1.399 . S
C818 C817 1.394 . S
C818 C819 1.516 . S
C819 C818 1.516 . S
C819 C820 1.502 . S
C819 C821 1.561 . S
C819 C822 1.526 . S
C820 H804 0.959 . S
C820 H805 0.959 . S
C820 H806 0.961 . S
C820 C819 1.502 . S
C821 H807 0.960 . S
C821 H808 0.961 . S
C821 H809 0.959 . S
C821 C819 1.561 . S
C822 C819 1.526 . S
C822 C823 1.396 . S
C822 C827 1.390 . S
C823 C817 1.465 . S
C823 C822 1.396 . S
C823 C824 1.399 . S
C824 H810 0.929 . S
C824 C823 1.399 . S
C824 C825 1.385 . S
C825 H811 0.931 . S
C825 C824 1.385 . S
C825 C826 1.389 . S
C826 C825 1.389 . S
C826 C827 1.387 . S
C827 H812 0.930 . S
C827 C822 1.390 . S
C827 C826 1.387 . S
C193 C4 1.748 . S
C205 C106 1.742 . S
C220 C16 1.898 . S
C232 C130 1.881 . S
C259 C150 1.042 . S
C247 C32 1.002 . S
C274 C43 1.267 . S
C286 C173 1.322 . S
C313 C132 2.061 . S
C301 C5 2.100 . S
C340 C108 1.461 . S
C328 C21 1.488 . S
C367 C176 1.483 . S
C355 C27 1.461 . S
C394 C153 1.391 . S
C382 C37 1.446 . S
C409 C10 1.482 . S
C421 C178 1.414 . S
C448 C127 1.687 . S
C436 C26 1.670 . S
C463 C38 1.350 . S
C475 C105 1.373 . S
C490 C15 1.580 . S
C502 C155 1.535 . S
C529 C109 1.908 . S
C517 C48 1.886 . S
C544 C59 1.665 . S
C556 C131 1.648 . S
C571 C76 1.563 . S
C583 C151 1.591 . S
C598 C87 1.395 . S
C610 C174 1.424 . S
C625 C54 1.401 . S
C637 C129 1.359 . S
C664 C107 1.862 . S
C652 C60 1.883 . S
C691 C177 1.361 . S
C679 C71 1.417 . S
C718 C154 1.307 . S
C706 C82 1.343 . S
C733 C49 2.013 . S
C745 C175 2.018 . S
C772 C128 1.231 . S
C760 C70 1.266 . S
C799 C104 1.573 . S
C787 C81 1.591 . S
C814 C65 1.707 . S
C826 C152 1.708 . S
