# Generated by pormake.
# Topology hwx, (6,3)-cn, num edge types: 1
# Building blocks:
#     Node 0, Type 0, BuildingBlock: IZENUY_clean_sbu_0, # of connection points: 6
#     Node 1, Type 0, BuildingBlock: IZENUY_clean_sbu_0, # of connection points: 6
#     Node 2, Type 0, BuildingBlock: IZENUY_clean_sbu_0, # of connection points: 6
#     Node 3, Type 0, BuildingBlock: IZENUY_clean_sbu_0, # of connection points: 6
#     Node 4, Type 1, BuildingBlock: BELTOD_clean_linker_0, # of connection points: 3
#     Node 5, Type 1, BuildingBlock: BELTOD_clean_linker_0, # of connection points: 3
#     Node 6, Type 1, BuildingBlock: BELTOD_clean_linker_0, # of connection points: 3
#     Node 7, Type 1, BuildingBlock: BELTOD_clean_linker_0, # of connection points: 3
#     Node 8, Type 1, BuildingBlock: BELTOD_clean_linker_0, # of connection points: 3
#     Node 9, Type 1, BuildingBlock: BELTOD_clean_linker_0, # of connection points: 3
#     Node 10, Type 1, BuildingBlock: BELTOD_clean_linker_0, # of connection points: 3
#     Node 11, Type 1, BuildingBlock: BELTOD_clean_linker_0, # of connection points: 3
#     Edge 12, Type (0, 1), BuildingBlock: MIFKUJ_clean_linker_0, # of connection points: 2
#     Edge 13, Type (0, 1), BuildingBlock: MIFKUJ_clean_linker_0, # of connection points: 2
#     Edge 14, Type (0, 1), BuildingBlock: MIFKUJ_clean_linker_0, # of connection points: 2
#     Edge 15, Type (0, 1), BuildingBlock: MIFKUJ_clean_linker_0, # of connection points: 2
#     Edge 16, Type (0, 1), BuildingBlock: MIFKUJ_clean_linker_0, # of connection points: 2
#     Edge 17, Type (0, 1), BuildingBlock: MIFKUJ_clean_linker_0, # of connection points: 2
#     Edge 18, Type (0, 1), BuildingBlock: MIFKUJ_clean_linker_0, # of connection points: 2
#     Edge 19, Type (0, 1), BuildingBlock: MIFKUJ_clean_linker_0, # of connection points: 2
#     Edge 20, Type (0, 1), BuildingBlock: MIFKUJ_clean_linker_0, # of connection points: 2
#     Edge 21, Type (0, 1), BuildingBlock: MIFKUJ_clean_linker_0, # of connection points: 2
#     Edge 22, Type (0, 1), BuildingBlock: MIFKUJ_clean_linker_0, # of connection points: 2
#     Edge 23, Type (0, 1), BuildingBlock: MIFKUJ_clean_linker_0, # of connection points: 2
#     Edge 24, Type (0, 1), BuildingBlock: MIFKUJ_clean_linker_0, # of connection points: 2
#     Edge 25, Type (0, 1), BuildingBlock: MIFKUJ_clean_linker_0, # of connection points: 2
#     Edge 26, Type (0, 1), BuildingBlock: MIFKUJ_clean_linker_0, # of connection points: 2
#     Edge 27, Type (0, 1), BuildingBlock: MIFKUJ_clean_linker_0, # of connection points: 2
#     Edge 28, Type (0, 1), BuildingBlock: MIFKUJ_clean_linker_0, # of connection points: 2
#     Edge 29, Type (0, 1), BuildingBlock: MIFKUJ_clean_linker_0, # of connection points: 2
#     Edge 30, Type (0, 1), BuildingBlock: MIFKUJ_clean_linker_0, # of connection points: 2
#     Edge 31, Type (0, 1), BuildingBlock: MIFKUJ_clean_linker_0, # of connection points: 2
#     Edge 32, Type (0, 1), BuildingBlock: MIFKUJ_clean_linker_0, # of connection points: 2
#     Edge 33, Type (0, 1), BuildingBlock: MIFKUJ_clean_linker_0, # of connection points: 2
#     Edge 34, Type (0, 1), BuildingBlock: MIFKUJ_clean_linker_0, # of connection points: 2
#     Edge 35, Type (0, 1), BuildingBlock: MIFKUJ_clean_linker_0, # of connection points: 2
# Relax obj value: 0.046
# Max RMSD: 0.072
# Mean RMSD: 0.061
data_MOF--net-hwx--node1-IZENUY_clean_sbu_0--node2-BELTOD_clean_linker_0--edge1-MIFKUJ_clean_linker_0
_symmetry_space_group_name_H-M    P1
_symmetry_Int_Tables_number       1
_symmetry_cell_setting            triclinic
loop_
_symmetry_equiv_pos_as_xyz
'x, y, z'
_cell_length_a     68.002267
_cell_length_b     68.115318
_cell_length_c     32.508299
_cell_angle_alpha  89.453383
_cell_angle_beta   90.577415
_cell_angle_gamma 90.003627
loop_
_atom_site_label
_atom_site_type_symbol
_atom_site_fract_x
_atom_site_fract_y
_atom_site_fract_z
_atom_type_partial_charge
Fe0 Fe 0.23617 0.19473 0.04644 0.0
Fe1 Fe 0.23645 0.19727 0.95254 0.0
O2 O 0.23053 0.18427 0.99808 0.0
Fe3 Fe 0.21897 0.16098 0.99531 0.0
O4 O 0.19806 0.1694 0.02453 0.0
O5 O 0.21536 0.18348 0.07335 0.0
O6 O 0.22046 0.21576 0.03583 0.0
C7 C 0.2224 0.22692 0.00495 0.0
C8 C 0.24687 0.15666 0.06075 0.0
O9 O 0.23261 0.22164 0.97462 0.0
C10 C 0.24505 0.1578 0.93226 0.0
O11 O 0.25818 0.20787 0.02868 0.0
O12 O 0.26242 0.19737 0.9658 0.0
O13 O 0.2315 0.15106 0.04165 0.0
O14 O 0.25212 0.17442 0.05994 0.0
C15 C 0.19998 0.18335 0.93221 0.0
O16 O 0.24115 0.17533 0.92188 0.0
O17 O 0.23899 0.15081 0.96585 0.0
C18 C 0.26925 0.20487 0.99825 0.0
O19 O 0.21099 0.19807 0.93662 0.0
O20 O 0.20446 0.16691 0.94849 0.0
C21 C 0.19926 0.17661 0.06 0.0
Fe22 Fe 0.25596 0.71248 0.55808 0.0
Fe23 Fe 0.27218 0.67562 0.51758 0.0
O24 O 0.26071 0.69886 0.51327 0.0
Fe25 Fe 0.25404 0.70843 0.46417 0.0
O26 O 0.26966 0.72976 0.47092 0.0
O27 O 0.25966 0.73649 0.53342 0.0
O28 O 0.28184 0.71316 0.57163 0.0
C29 C 0.2923 0.69812 0.5773 0.0
C30 C 0.22215 0.7194 0.51447 0.0
O31 O 0.28696 0.68165 0.56342 0.0
C32 C 0.24365 0.67012 0.45451 0.0
O33 O 0.2516 0.69085 0.59102 0.0
O34 O 0.25235 0.666 0.54852 0.0
O35 O 0.23234 0.7217 0.48238 0.0
O36 O 0.22978 0.71274 0.54724 0.0
C37 C 0.29098 0.69046 0.45064 0.0
O38 O 0.25951 0.66529 0.47272 0.0
O39 O 0.23795 0.68774 0.45402 0.0
C40 C 0.24722 0.67327 0.58227 0.0
O41 O 0.29273 0.68384 0.48684 0.0
O42 O 0.27461 0.69687 0.43722 0.0
C43 C 0.26887 0.74119 0.50115 0.0
Fe44 Fe 0.76514 0.78967 0.9583 0.0
Fe45 Fe 0.76382 0.78964 0.05262 0.0
O46 O 0.76979 0.80153 0.00563 0.0
Fe47 Fe 0.78038 0.82527 0.00567 0.0
O48 O 0.76007 0.83542 0.97571 0.0
O49 O 0.7603 0.81238 0.92908 0.0
O50 O 0.73909 0.78868 0.96854 0.0
C51 C 0.7316 0.78082 0.99997 0.0
C52 C 0.80084 0.80579 0.94216 0.0
O53 O 0.74198 0.77706 0.03171 0.0
C54 C 0.80039 0.80819 0.06995 0.0
O55 O 0.76898 0.76469 0.97852 0.0
O56 O 0.77976 0.76903 0.04157 0.0
O57 O 0.7951 0.82134 0.95947 0.0
O58 O 0.79103 0.79012 0.94513 0.0
C59 C 0.75244 0.82721 0.06979 0.0
O60 O 0.78454 0.80017 0.08162 0.0
O61 O 0.80139 0.81682 0.03554 0.0
C62 C 0.77821 0.7585 0.01006 0.0
O63 O 0.74749 0.8094 0.06741 0.0
O64 O 0.76765 0.83348 0.05182 0.0
C65 C 0.75525 0.82935 0.9405 0.0
Fe66 Fe 0.71461 0.33821 0.50747 0.0
Fe67 Fe 0.73175 0.30212 0.55251 0.0
O68 O 0.72503 0.31441 0.50625 0.0
Fe69 Fe 0.72882 0.30293 0.45842 0.0
O70 O 0.73328 0.32584 0.42987 0.0
O71 O 0.73472 0.34836 0.47762 0.0
O72 O 0.72808 0.34592 0.55384 0.0
C73 C 0.74359 0.33937 0.57097 0.0
C74 C 0.69288 0.31921 0.44425 0.0
O75 O 0.74849 0.32164 0.56711 0.0
C76 C 0.71623 0.27152 0.50938 0.0
O77 O 0.69399 0.32957 0.53757 0.0
O78 O 0.71163 0.31261 0.58258 0.0
O79 O 0.70276 0.30356 0.44644 0.0
O80 O 0.69908 0.33476 0.46125 0.0
C81 C 0.76303 0.29356 0.49861 0.0
O82 O 0.71544 0.28174 0.54142 0.0
O83 O 0.72513 0.27783 0.47791 0.0
C84 C 0.69556 0.32064 0.57166 0.0
O85 O 0.75309 0.2895 0.5304 0.0
O86 O 0.75509 0.30173 0.4677 0.0
C87 C 0.73926 0.34236 0.44239 0.0
P88 P 0.22555 0.49598 0.02654 0.0
H89 H 0.22453 0.48625 0.11376 0.0
H90 H 0.2167 0.50558 0.17438 0.0
H91 H 0.19906 0.55402 0.09532 0.0
H92 H 0.20589 0.53433 0.03529 0.0
H93 H 0.23421 0.46499 0.96964 0.0
H94 H 0.22252 0.43132 0.96328 0.0
H95 H 0.18002 0.44162 0.05869 0.0
H96 H 0.19196 0.47538 0.06506 0.0
H97 H 0.25071 0.52722 0.99685 0.0
H98 H 0.19701 0.49894 0.95796 0.0
O99 O 0.24927 0.49159 0.03659 0.0
H100 H 0.24839 0.54981 0.93831 0.0
H101 H 0.19453 0.52166 0.89902 0.0
C102 C 0.21598 0.50887 0.07006 0.0
C103 C 0.2185 0.50087 0.10959 0.0
C104 C 0.21418 0.51201 0.14419 0.0
C105 C 0.20755 0.53151 0.13982 0.0
C106 C 0.20397 0.53904 0.09999 0.0
C107 C 0.20808 0.52778 0.06543 0.0
C108 C 0.21413 0.47256 0.01809 0.0
C109 C 0.22214 0.4601 0.98869 0.0
C110 C 0.21534 0.44088 0.98492 0.0
C111 C 0.20036 0.43377 0.01059 0.0
C112 C 0.19173 0.44662 0.03883 0.0
C113 C 0.19854 0.46593 0.04245 0.0
C114 C 0.22426 0.5112 0.98116 0.0
C115 C 0.23853 0.52574 0.97536 0.0
C116 C 0.23708 0.53876 0.94215 0.0
C117 C 0.22124 0.53753 0.91419 0.0
C118 C 0.20699 0.52281 0.91989 0.0
C119 C 0.2084 0.50983 0.95345 0.0
P120 P 0.97853 0.85383 0.50908 0.0
H121 H 0.98703 0.84178 0.59445 0.0
H122 H 0.96574 0.83363 0.65252 0.0
H123 H 0.91466 0.84768 0.57804 0.0
H124 H 0.93589 0.85527 0.51974 0.0
H125 H 0.0185 0.86185 0.48191 0.0
H126 H 0.0485 0.84213 0.48195 0.0
H127 H 0.01693 0.79396 0.53844 0.0
H128 H 0.98689 0.81349 0.5365 0.0
H129 H 0.95973 0.8792 0.44689 0.0
H130 H 0.96764 0.81716 0.46896 0.0
O131 O 0.98451 0.87757 0.51062 0.0
H132 H 0.93983 0.8721 0.38581 0.0
H133 H 0.94832 0.80993 0.40735 0.0
C134 C 0.96301 0.8484 0.55229 0.0
C135 C 0.97125 0.84281 0.59037 0.0
C136 C 0.95911 0.83822 0.62355 0.0
C137 C 0.9386 0.83985 0.6195 0.0
C138 C 0.93044 0.84625 0.58185 0.0
C139 C 0.94256 0.85048 0.54849 0.0
C140 C 0.00064 0.83933 0.51029 0.0
C141 C 0.0181 0.84708 0.49448 0.0
C142 C 0.03526 0.83579 0.49468 0.0
C143 C 0.03522 0.8165 0.51063 0.0
C144 C 0.0175 0.80869 0.52566 0.0
C145 C 0.00034 0.81994 0.52507 0.0
C146 C 0.96541 0.84871 0.46208 0.0
C147 C 0.95749 0.86406 0.43817 0.0
C148 C 0.94618 0.85997 0.40315 0.0
C149 C 0.94252 0.84043 0.3916 0.0
C150 C 0.95068 0.82512 0.41556 0.0
C151 C 0.96192 0.82924 0.45061 0.0
P152 P 0.85116 0.48901 0.00957 0.0
H153 H 0.86642 0.48089 0.92779 0.0
H154 H 0.85353 0.46224 0.86956 0.0
H155 H 0.80006 0.45101 0.93659 0.0
H156 H 0.81318 0.46923 0.99475 0.0
H157 H 0.87205 0.52431 0.0347 0.0
H158 H 0.863 0.55894 0.03561 0.0
H159 H 0.80561 0.54439 0.98608 0.0
H160 H 0.81515 0.50984 0.98377 0.0
H161 H 0.87027 0.46178 0.06766 0.0
H162 H 0.81437 0.49137 0.05568 0.0
O163 O 0.87563 0.48749 0.00743 0.0
H164 H 0.85878 0.44506 0.13005 0.0
H165 H 0.80266 0.47415 0.1172 0.0
C166 C 0.84099 0.47611 0.96606 0.0
C167 C 0.85194 0.47437 0.92998 0.0
C168 C 0.84448 0.46382 0.89655 0.0
C169 C 0.82582 0.45495 0.89852 0.0
C170 C 0.81466 0.45727 0.93435 0.0
C171 C 0.82215 0.46779 0.96771 0.0
C172 C 0.84441 0.51456 0.00848 0.0
C173 C 0.8576 0.52861 0.02357 0.0
C174 C 0.8523 0.54841 0.02451 0.0
C175 C 0.83354 0.55453 0.01096 0.0
C176 C 0.8203 0.5403 0.9961 0.0
C177 C 0.8257 0.52049 0.99489 0.0
C178 C 0.8432 0.47788 0.05707 0.0
C179 C 0.85561 0.46482 0.07858 0.0
C180 C 0.84907 0.45529 0.1142 0.0
C181 C 0.82986 0.45835 0.12821 0.0
C182 C 0.81752 0.47154 0.10684 0.0
C183 C 0.82421 0.48138 0.07177 0.0
P184 P 0.03615 0.23816 0.48383 0.0
H185 H 0.03598 0.24858 0.39691 0.0
H186 H 0.04941 0.2324 0.33629 0.0
H187 H 0.06475 0.1819 0.41114 0.0
H188 H 0.05078 0.19782 0.47132 0.0
H189 H 0.01087 0.27229 0.4947 0.0
H190 H 0.97527 0.27647 0.49482 0.0
H191 H 0.96778 0.21414 0.47684 0.0
H192 H 0.00369 0.21003 0.47692 0.0
H193 H 0.07581 0.22661 0.50629 0.0
H194 H 0.01886 0.22621 0.56355 0.0
O195 O 0.04627 0.2604 0.47963 0.0
H196 H 0.09062 0.21311 0.56912 0.0
H197 H 0.03368 0.21273 0.62685 0.0
C198 C 0.04294 0.22466 0.43878 0.0
C199 C 0.04192 0.23388 0.40009 0.0
C200 C 0.0495 0.22461 0.36549 0.0
C201 C 0.05833 0.20603 0.36926 0.0
C202 C 0.05824 0.19634 0.40761 0.0
C203 C 0.05036 0.20549 0.44204 0.0
C204 C 0.00987 0.24088 0.48527 0.0
C205 C 0.00162 0.2595 0.49068 0.0
C206 C 0.98124 0.2619 0.49058 0.0
C207 C 0.96873 0.24567 0.48538 0.0
C208 C 0.97706 0.2269 0.48098 0.0
C209 C 0.99752 0.22454 0.48084 0.0
C210 C 0.04621 0.22707 0.52995 0.0
C211 C 0.06645 0.22334 0.53224 0.0
C212 C 0.07487 0.21555 0.56811 0.0
C213 C 0.06325 0.21163 0.60274 0.0
C214 C 0.04296 0.21554 0.60057 0.0
C215 C 0.03448 0.22318 0.56435 0.0
P216 P 0.73239 0.00458 0.49265 0.0
H217 H 0.75039 0.00209 0.41175 0.0
H218 H 0.74492 0.98013 0.35384 0.0
H219 H 0.69517 0.95451 0.41619 0.0
H220 H 0.70063 0.97678 0.47404 0.0
H221 H 0.72941 0.03257 0.55887 0.0
H222 H 0.71537 0.06543 0.56261 0.0
H223 H 0.69187 0.05933 0.43936 0.0
H224 H 0.70624 0.02645 0.43572 0.0
H225 H 0.75647 0.97254 0.52318 0.0
H226 H 0.70245 0.00086 0.55766 0.0
O227 O 0.75603 0.01099 0.48988 0.0
H228 H 0.75379 0.9502 0.58206 0.0
H229 H 0.69976 0.97858 0.61711 0.0
C230 C 0.72616 0.99075 0.44748 0.0
C231 C 0.73817 0.99191 0.41281 0.0
C232 C 0.73507 0.9793 0.37978 0.0
C233 C 0.71982 0.96536 0.38078 0.0
C234 C 0.70703 0.9651 0.41452 0.0
C235 C 0.71018 0.97774 0.44765 0.0
C236 C 0.7186 0.02696 0.49733 0.0
C237 C 0.72079 0.0381 0.53306 0.0
C238 C 0.7127 0.05689 0.53518 0.0
C239 C 0.70244 0.065 0.50131 0.0
C240 C 0.69978 0.05353 0.46589 0.0
C241 C 0.70787 0.03467 0.46387 0.0
C242 C 0.72995 0.98863 0.5367 0.0
C243 C 0.74409 0.97402 0.54363 0.0
C244 C 0.74246 0.96117 0.57708 0.0
C245 C 0.72659 0.9627 0.60422 0.0
C246 C 0.71227 0.97725 0.59695 0.0
C247 C 0.71382 0.99 0.56309 0.0
P248 P 0.51102 0.34335 0.00181 0.0
H249 H 0.53033 0.37133 0.94674 0.0
H250 H 0.5517 0.36722 0.88736 0.0
H251 H 0.54704 0.30423 0.90037 0.0
H252 H 0.52543 0.30844 0.9595 0.0
H253 H 0.49099 0.32122 0.06708 0.0
H254 H 0.46179 0.30036 0.06671 0.0
H255 H 0.45608 0.30875 0.93517 0.0
H256 H 0.48556 0.32927 0.93571 0.0
H257 H 0.51845 0.36839 0.0731 0.0
H258 H 0.53613 0.31119 0.03149 0.0
O259 O 0.50163 0.36599 0.00076 0.0
H260 H 0.53872 0.3642 0.13491 0.0
H261 H 0.557 0.30713 0.09254 0.0
C262 C 0.52616 0.34019 0.95725 0.0
C263 C 0.53373 0.35663 0.9366 0.0
C264 C 0.54591 0.35428 0.90262 0.0
C265 C 0.55097 0.3354 0.88918 0.0
C266 C 0.54347 0.31894 0.91021 0.0
C267 C 0.53111 0.32133 0.94391 0.0
C268 C 0.4907 0.32642 0.00126 0.0
C269 C 0.48368 0.31829 0.03805 0.0
C270 C 0.46685 0.30651 0.03786 0.0
C271 C 0.4566 0.30285 0.00089 0.0
C272 C 0.4638 0.31097 0.96405 0.0
C273 C 0.48063 0.32275 0.96432 0.0
C274 C 0.52598 0.3402 0.04742 0.0
C275 C 0.52681 0.35497 0.07709 0.0
C276 C 0.53851 0.35259 0.11238 0.0
C277 C 0.54961 0.33537 0.11866 0.0
C278 C 0.54851 0.32049 0.08897 0.0
C279 C 0.53673 0.32288 0.05377 0.0
P280 P 0.35286 0.00655 0.50209 0.0
H281 H 0.36142 0.00505 0.58993 0.0
H282 H 0.34809 0.02268 0.64875 0.0
H283 H 0.30716 0.05273 0.56742 0.0
H284 H 0.32073 0.03542 0.50901 0.0
H285 H 0.37467 0.97038 0.48689 0.0
H286 H 0.36492 0.93573 0.48631 0.0
H287 H 0.30564 0.95213 0.51735 0.0
H288 H 0.31558 0.98674 0.51942 0.0
H289 H 0.37119 0.03605 0.44902 0.0
H290 H 0.31741 0.00252 0.45034 0.0
O291 O 0.37729 0.00809 0.50647 0.0
H292 H 0.3603 0.05273 0.38596 0.0
H293 H 0.30615 0.0195 0.38833 0.0
C294 C 0.34231 0.01912 0.54504 0.0
C295 C 0.34959 0.01546 0.58486 0.0
C296 C 0.34187 0.02545 0.61845 0.0
C297 C 0.32667 0.03924 0.61272 0.0
C298 C 0.31912 0.0425 0.57279 0.0
C299 C 0.32683 0.0325 0.53928 0.0
C300 C 0.34586 0.98109 0.50343 0.0
C301 C 0.35963 0.96652 0.49406 0.0
C302 C 0.35408 0.94677 0.49368 0.0
C303 C 0.33455 0.94138 0.50169 0.0
C304 C 0.32075 0.95599 0.51086 0.0
C305 C 0.32643 0.9757 0.51212 0.0
C306 C 0.34531 0.01775 0.45401 0.0
C307 C 0.35712 0.03214 0.43557 0.0
C308 C 0.35077 0.04181 0.3997 0.0
C309 C 0.33234 0.03745 0.38193 0.0
C310 C 0.32058 0.02296 0.4006 0.0
C311 C 0.32701 0.01323 0.43628 0.0
P312 P 0.45657 0.75093 0.02971 0.0
H313 H 0.45437 0.76124 0.11623 0.0
H314 H 0.44066 0.74424 0.17604 0.0
H315 H 0.42929 0.69321 0.10157 0.0
H316 H 0.44327 0.71022 0.04194 0.0
H317 H 0.48526 0.7807 0.00691 0.0
H318 H 0.52082 0.77987 0.9986 0.0
H319 H 0.52113 0.71807 0.03016 0.0
H320 H 0.48538 0.71915 0.03922 0.0
H321 H 0.41568 0.7412 0.01336 0.0
H322 H 0.47007 0.74166 0.94611 0.0
O323 O 0.44963 0.77421 0.03579 0.0
H324 H 0.39813 0.72997 0.95198 0.0
H325 H 0.45256 0.73046 0.88458 0.0
C326 C 0.44921 0.73721 0.07449 0.0
C327 C 0.44916 0.7463 0.11293 0.0
C328 C 0.44146 0.73653 0.14712 0.0
C329 C 0.43371 0.7175 0.14327 0.0
C330 C 0.43491 0.70799 0.1052 0.0
C331 C 0.44283 0.71771 0.07113 0.0
C332 C 0.48281 0.75009 0.02447 0.0
C333 C 0.49298 0.767 0.01233 0.0
C334 C 0.5133 0.76644 0.00715 0.0
C335 C 0.5238 0.74888 0.01363 0.0
C336 C 0.51348 0.73186 0.02542 0.0
C337 C 0.49309 0.73245 0.03058 0.0
C338 C 0.44421 0.7419 0.98454 0.0
C339 C 0.42387 0.73866 0.98551 0.0
C340 C 0.41388 0.73219 0.95048 0.0
C341 C 0.42402 0.72919 0.91362 0.0
C342 C 0.44439 0.73267 0.91259 0.0
C343 C 0.45441 0.73898 0.94782 0.0
H344 H 0.16062 0.16921 0.04025 0.0
H345 H 0.13254 0.16843 0.08715 0.0
H346 H 0.17146 0.18054 0.18937 0.0
H347 H 0.19942 0.18141 0.14309 0.0
H348 H 0.1432 0.15057 0.20539 0.0
H349 H 0.14677 0.21709 0.1443 0.0
H350 H 0.1465 0.23881 0.08312 0.0
H351 H 0.08954 0.21694 0.04832 0.0
H352 H 0.08963 0.19486 0.10899 0.0
H353 H 0.09605 0.19338 0.37029 0.0
H354 H 0.11578 0.18308 0.3123 0.0
H355 H 0.06535 0.18951 0.23148 0.0
H356 H 0.04577 0.2009 0.28967 0.0
H357 H 0.09419 0.2044 0.19513 0.0
H358 H 0.08633 0.14275 0.25945 0.0
H359 H 0.08532 0.11799 0.31519 0.0
H360 H 0.14706 0.12609 0.33822 0.0
H361 H 0.14841 0.15112 0.28305 0.0
C362 C 0.16318 0.17158 0.07277 0.0
C363 C 0.18223 0.1755 0.08792 0.0
C364 C 0.14715 0.17112 0.09946 0.0
C365 C 0.14997 0.17446 0.14167 0.0
C366 C 0.169 0.17786 0.15692 0.0
C367 C 0.18495 0.1785 0.13033 0.0
C368 C 0.13316 0.17555 0.17014 0.0
C369 C 0.13245 0.16232 0.20337 0.0
C370 C 0.11864 0.19031 0.16621 0.0
C371 C 0.11828 0.20423 0.13091 0.0
C372 C 0.13422 0.21689 0.12353 0.0
C373 C 0.1341 0.22925 0.08894 0.0
C374 C 0.11803 0.22921 0.0618 0.0
C375 C 0.10198 0.21693 0.06935 0.0
C376 C 0.10206 0.2045 0.10382 0.0
C377 C 0.08909 0.19225 0.34028 0.0
C378 C 0.06937 0.19776 0.33445 0.0
C379 C 0.10035 0.18624 0.30708 0.0
C380 C 0.09201 0.18505 0.26743 0.0
C381 C 0.07214 0.19021 0.26171 0.0
C382 C 0.06095 0.19665 0.2949 0.0
C383 C 0.10458 0.17985 0.23187 0.0
C384 C 0.10455 0.19231 0.19712 0.0
C385 C 0.11811 0.164 0.23389 0.0
C386 C 0.11743 0.14891 0.26717 0.0
C387 C 0.09967 0.13936 0.27657 0.0
C388 C 0.09905 0.12525 0.30805 0.0
C389 C 0.11611 0.12049 0.33026 0.0
C390 C 0.13385 0.1298 0.32098 0.0
C391 C 0.13456 0.14392 0.28955 0.0
H392 H 0.11559 0.10957 0.35463 0.0
H393 H 0.11797 0.23871 0.03495 0.0
H394 H 0.242 0.68161 0.66352 0.0
H395 H 0.23364 0.65864 0.7187 0.0
H396 H 0.22656 0.61229 0.63031 0.0
H397 H 0.23491 0.63517 0.57469 0.0
H398 H 0.19838 0.61116 0.69293 0.0
H399 H 0.26805 0.61741 0.67705 0.0
H400 H 0.29995 0.63445 0.67337 0.0
H401 H 0.29383 0.6533 0.79818 0.0
H402 H 0.26139 0.63731 0.80197 0.0
H403 H 0.2128 0.53009 0.83327 0.0
H404 H 0.21318 0.55351 0.77556 0.0
H405 H 0.2265 0.60045 0.85961 0.0
H406 H 0.22627 0.57714 0.91713 0.0
H407 H 0.25116 0.60066 0.79728 0.0
H408 H 0.1811 0.59617 0.81264 0.0
H409 H 0.14912 0.57927 0.81723 0.0
H410 H 0.1566 0.55635 0.6958 0.0
H411 H 0.18877 0.5729 0.6907 0.0
C412 C 0.23836 0.66662 0.65562 0.0
C413 C 0.23939 0.66015 0.61473 0.0
C414 C 0.23362 0.65351 0.68724 0.0
C415 C 0.22979 0.63374 0.67856 0.0
C416 C 0.22956 0.6275 0.63758 0.0
C417 C 0.23441 0.64058 0.60589 0.0
C418 C 0.22758 0.61931 0.71247 0.0
C419 C 0.20996 0.6087 0.7156 0.0
C420 C 0.24267 0.61635 0.7422 0.0
C421 C 0.26206 0.62639 0.73957 0.0
C422 C 0.27328 0.62553 0.70346 0.0
C423 C 0.29147 0.63504 0.70133 0.0
C424 C 0.29882 0.64513 0.73539 0.0
C425 C 0.288 0.64573 0.77163 0.0
C426 C 0.26967 0.6365 0.77373 0.0
C427 C 0.2155 0.54546 0.83941 0.0
C428 C 0.21968 0.55178 0.87959 0.0
C429 C 0.21569 0.55882 0.80647 0.0
C430 C 0.21983 0.57874 0.81331 0.0
C431 C 0.22339 0.58514 0.8536 0.0
C432 C 0.22331 0.57181 0.8864 0.0
C433 C 0.22178 0.59278 0.77844 0.0
C434 C 0.23949 0.6032 0.77486 0.0
C435 C 0.20678 0.59558 0.74847 0.0
C436 C 0.18744 0.58561 0.75147 0.0
C437 C 0.17601 0.58738 0.78706 0.0
C438 C 0.15783 0.5779 0.78972 0.0
C439 C 0.15086 0.5667 0.75687 0.0
C440 C 0.16203 0.565 0.72124 0.0
C441 C 0.18023 0.57445 0.71844 0.0
H442 H 0.13678 0.55937 0.75899 0.0
H443 H 0.31297 0.65235 0.73386 0.0
H444 H 0.83253 0.83233 0.06533 0.0
H445 H 0.85838 0.83664 0.11716 0.0
H446 H 0.83213 0.79131 0.19227 0.0
H447 H 0.80593 0.78732 0.14116 0.0
H448 H 0.83976 0.82231 0.23666 0.0
H449 H 0.87605 0.7846 0.13829 0.0
H450 H 0.88916 0.7772 0.06968 0.0
H451 H 0.92075 0.83178 0.06905 0.0
H452 H 0.90762 0.83964 0.13741 0.0
H453 H 0.91451 0.81178 0.38566 0.0
H454 H 0.89241 0.80521 0.32786 0.0
H455 H 0.9184 0.85292 0.2592 0.0
H456 H 0.94116 0.85914 0.31647 0.0
H457 H 0.91151 0.82137 0.21059 0.0
H458 H 0.87525 0.85943 0.3071 0.0
H459 H 0.8619 0.8678 0.37496 0.0
H460 H 0.82994 0.81345 0.37803 0.0
H461 H 0.84333 0.80462 0.31042 0.0
C462 C 0.83238 0.82312 0.09267 0.0
C463 C 0.8171 0.80955 0.09925 0.0
C464 C 0.84723 0.82554 0.12221 0.0
C465 C 0.84729 0.8142 0.15851 0.0
C466 C 0.83236 0.80026 0.16456 0.0
C467 C 0.8174 0.79798 0.13528 0.0
C468 C 0.86217 0.81761 0.19138 0.0
C469 C 0.85546 0.82176 0.23105 0.0
C470 C 0.88264 0.8176 0.18377 0.0
C471 C 0.89071 0.81278 0.14284 0.0
C472 C 0.88569 0.79508 0.12341 0.0
C473 C 0.89314 0.7908 0.08457 0.0
C474 C 0.90575 0.80403 0.06499 0.0
C475 C 0.91097 0.82155 0.08424 0.0
C476 C 0.90355 0.82592 0.12305 0.0
C477 C 0.91578 0.82068 0.35804 0.0
C478 C 0.92958 0.83603 0.35575 0.0
C479 C 0.903 0.81702 0.32516 0.0
C480 C 0.90358 0.82875 0.28948 0.0
C481 C 0.91766 0.84375 0.28655 0.0
C482 C 0.93052 0.8474 0.31944 0.0
C483 C 0.88905 0.82571 0.25584 0.0
C484 C 0.89581 0.82178 0.2161 0.0
C485 C 0.86858 0.82598 0.26324 0.0
C486 C 0.86045 0.83128 0.30387 0.0
C487 C 0.8655 0.84919 0.32239 0.0
C488 C 0.8579 0.85403 0.36079 0.0
C489 C 0.84511 0.84114 0.38084 0.0
C490 C 0.83986 0.8234 0.36248 0.0
C491 C 0.84744 0.81848 0.32411 0.0
H492 H 0.83924 0.84491 0.41056 0.0
H493 H 0.91151 0.8007 0.03496 0.0
H494 H 0.77582 0.32969 0.61851 0.0
H495 H 0.79125 0.3494 0.67247 0.0
H496 H 0.7515 0.3971 0.64431 0.0
H497 H 0.73587 0.37753 0.59067 0.0
H498 H 0.8099 0.38495 0.6753 0.0
H499 H 0.73684 0.41703 0.73486 0.0
H500 H 0.70162 0.40835 0.73627 0.0
H501 H 0.71633 0.34713 0.73063 0.0
H502 H 0.75163 0.35544 0.72989 0.0
H503 H 0.82851 0.46268 0.81572 0.0
H504 H 0.81604 0.44278 0.75888 0.0
H505 H 0.79325 0.40046 0.84567 0.0
H506 H 0.8058 0.42014 0.90259 0.0
H507 H 0.7667 0.40829 0.78688 0.0
H508 H 0.83492 0.39103 0.79299 0.0
H509 H 0.87066 0.39718 0.79406 0.0
H510 H 0.86669 0.42404 0.67423 0.0
H511 H 0.83087 0.4183 0.67269 0.0
C512 C 0.77047 0.34444 0.6235 0.0
C513 C 0.75442 0.35192 0.60057 0.0
C514 C 0.77935 0.35571 0.65427 0.0
C515 C 0.77232 0.37459 0.66279 0.0
C516 C 0.75695 0.38244 0.63866 0.0
C517 C 0.74807 0.37122 0.60793 0.0
C518 C 0.78032 0.38571 0.69824 0.0
C519 C 0.80047 0.39012 0.69964 0.0
C520 C 0.76806 0.39208 0.73043 0.0
C521 C 0.74687 0.38689 0.73189 0.0
C522 C 0.73256 0.40172 0.73414 0.0
C523 C 0.71258 0.39686 0.7348 0.0
C524 C 0.70674 0.3772 0.7334 0.0
C525 C 0.72087 0.36236 0.73157 0.0
C526 C 0.74086 0.36713 0.73101 0.0
C527 C 0.821 0.44905 0.82271 0.0
C528 C 0.81815 0.44302 0.86375 0.0
C529 C 0.81385 0.43771 0.79018 0.0
C530 C 0.80384 0.42005 0.79801 0.0
C531 C 0.80087 0.41406 0.8389 0.0
C532 C 0.80799 0.42538 0.87141 0.0
C533 C 0.79626 0.40787 0.76366 0.0
C534 C 0.77615 0.40323 0.76247 0.0
C535 C 0.80864 0.40098 0.73212 0.0
C536 C 0.83018 0.40441 0.73291 0.0
C537 C 0.84165 0.39839 0.76701 0.0
C538 C 0.86192 0.40178 0.76768 0.0
C539 C 0.87093 0.41104 0.73428 0.0
C540 C 0.85969 0.41689 0.7001 0.0
C541 C 0.8394 0.41356 0.6993 0.0
H542 H 0.88663 0.41364 0.73486 0.0
H543 H 0.69127 0.37348 0.73382 0.0
H544 H 0.67602 0.35188 0.40971 0.0
H545 H 0.64945 0.3533 0.3589 0.0
H546 H 0.64373 0.29022 0.36503 0.0
H547 H 0.67095 0.28866 0.41477 0.0
H548 H 0.64327 0.30101 0.28923 0.0
H549 H 0.60877 0.32282 0.40722 0.0
H550 H 0.60273 0.34271 0.4688 0.0
H551 H 0.60115 0.39508 0.39428 0.0
H552 H 0.60746 0.37554 0.3323 0.0
H553 H 0.55585 0.30224 0.16578 0.0
H554 H 0.57802 0.29836 0.22503 0.0
H555 H 0.59445 0.35935 0.21509 0.0
H556 H 0.57266 0.3633 0.15539 0.0
H557 H 0.58738 0.34765 0.29559 0.0
H558 H 0.62421 0.32492 0.17856 0.0
H559 H 0.62969 0.3043 0.11779 0.0
H560 H 0.62563 0.25233 0.19305 0.0
H561 H 0.61985 0.27265 0.2542 0.0
C562 C 0.66897 0.33832 0.40063 0.0
C563 C 0.6756 0.32015 0.41626 0.0
C564 C 0.65367 0.33915 0.37167 0.0
C565 C 0.64433 0.32189 0.35846 0.0
C566 C 0.65068 0.30375 0.37469 0.0
C567 C 0.66621 0.30288 0.40319 0.0
C568 C 0.62875 0.32272 0.32603 0.0
C569 C 0.63084 0.31094 0.29111 0.0
C570 C 0.61267 0.33591 0.32795 0.0
C571 C 0.60873 0.34771 0.36514 0.0
C572 C 0.60726 0.33859 0.40399 0.0
C573 C 0.60377 0.34981 0.43897 0.0
C574 C 0.6016 0.37015 0.43546 0.0
C575 C 0.60285 0.37932 0.39695 0.0
C576 C 0.60636 0.36818 0.36187 0.0
C577 C 0.56428 0.31481 0.17598 0.0
C578 C 0.56252 0.33307 0.15565 0.0
C579 C 0.57687 0.31257 0.20998 0.0
C580 C 0.58796 0.32854 0.22427 0.0
C581 C 0.58595 0.34686 0.20465 0.0
C582 C 0.57343 0.3491 0.17059 0.0
C583 C 0.60209 0.32609 0.25899 0.0
C584 C 0.59971 0.33758 0.29418 0.0
C585 C 0.61779 0.3125 0.25756 0.0
C586 C 0.62139 0.30029 0.22085 0.0
C587 C 0.62433 0.30909 0.18208 0.0
C588 C 0.62752 0.29746 0.14758 0.0
C589 C 0.62795 0.27701 0.15153 0.0
C590 C 0.62526 0.26816 0.19002 0.0
C591 C 0.62204 0.27973 0.22461 0.0
H592 H 0.63043 0.26803 0.12479 0.0
H593 H 0.59891 0.37881 0.46258 0.0
H594 H 0.25494 0.11888 0.94165 0.0
H595 H 0.26955 0.09738 0.89029 0.0
H596 H 0.27207 0.1459 0.80429 0.0
H597 H 0.25743 0.1674 0.85503 0.0
H598 H 0.25605 0.11352 0.76977 0.0
H599 H 0.31324 0.12924 0.85186 0.0
H600 H 0.33263 0.13148 0.91614 0.0
H601 H 0.3286 0.06902 0.93311 0.0
H602 H 0.30893 0.06644 0.86917 0.0
H603 H 0.31757 0.07826 0.61489 0.0
H604 H 0.30409 0.0967 0.67208 0.0
H605 H 0.30497 0.04438 0.74786 0.0
H606 H 0.31843 0.02573 0.69051 0.0
H607 H 0.31813 0.07624 0.79008 0.0
H608 H 0.26225 0.0602 0.70675 0.0
H609 H 0.24271 0.05778 0.6427 0.0
H610 H 0.24377 0.12052 0.62872 0.0
H611 H 0.26358 0.12331 0.69239 0.0
C612 C 0.25871 0.125 0.91189 0.0
C613 C 0.25492 0.14486 0.90243 0.0
C614 C 0.26712 0.1127 0.88263 0.0
C615 C 0.27193 0.12006 0.84351 0.0
C616 C 0.26841 0.13991 0.83424 0.0
C617 C 0.26007 0.15219 0.8634 0.0
C618 C 0.28003 0.10705 0.81151 0.0
C619 C 0.26973 0.10554 0.77405 0.0
C620 C 0.29754 0.09615 0.81763 0.0
C621 C 0.30943 0.09767 0.85598 0.0
C622 C 0.31634 0.116 0.86948 0.0
C623 C 0.32741 0.11733 0.90581 0.0
C624 C 0.3318 0.10041 0.92876 0.0
C625 C 0.32516 0.08212 0.91534 0.0
C626 C 0.31407 0.08071 0.87904 0.0
C627 C 0.31475 0.07061 0.64359 0.0
C628 C 0.31889 0.05047 0.648 0.0
C629 C 0.30709 0.08119 0.6763 0.0
C630 C 0.30326 0.07185 0.71405 0.0
C631 C 0.30779 0.05186 0.71896 0.0
C632 C 0.31551 0.04124 0.6862 0.0
C633 C 0.29433 0.08303 0.74807 0.0
C634 C 0.30439 0.08414 0.78591 0.0
C635 C 0.27654 0.09355 0.74241 0.0
C636 C 0.26455 0.09195 0.70418 0.0
C637 C 0.25845 0.07348 0.68986 0.0
C638 C 0.2473 0.07204 0.65364 0.0
C639 C 0.24204 0.08898 0.63161 0.0
C640 C 0.24788 0.10741 0.6458 0.0
C641 C 0.25905 0.10892 0.68197 0.0
H642 H 0.2334 0.08784 0.60358 0.0
H643 H 0.34037 0.10147 0.95688 0.0
H644 H 0.33008 0.68819 0.47026 0.0
H645 H 0.35779 0.6874 0.42257 0.0
H646 H 0.31727 0.6883 0.31964 0.0
H647 H 0.28957 0.68933 0.36691 0.0
H648 H 0.34944 0.66127 0.31185 0.0
H649 H 0.33638 0.72937 0.3462 0.0
H650 H 0.33221 0.7566 0.39483 0.0
H651 H 0.39085 0.74737 0.4413 0.0
H652 H 0.39525 0.71987 0.39334 0.0
H653 H 0.39763 0.70046 0.13964 0.0
H654 H 0.37714 0.69019 0.19695 0.0
H655 H 0.4241 0.70414 0.28214 0.0
H656 H 0.44452 0.71504 0.22455 0.0
H657 H 0.39234 0.72014 0.30673 0.0
H658 H 0.40772 0.65549 0.26492 0.0
H659 H 0.41214 0.62779 0.21766 0.0
H660 H 0.35058 0.62908 0.18709 0.0
H661 H 0.34582 0.65699 0.23368 0.0
C662 C 0.32711 0.68807 0.43747 0.0
C663 C 0.3077 0.68904 0.42225 0.0
C664 C 0.34291 0.68761 0.41035 0.0
C665 C 0.33951 0.68787 0.3677 0.0
C666 C 0.32015 0.68808 0.35248 0.0
C667 C 0.30437 0.68883 0.37951 0.0
C668 C 0.35605 0.68926 0.33871 0.0
C669 C 0.35885 0.67412 0.31048 0.0
C670 C 0.36862 0.70577 0.33805 0.0
C671 C 0.36605 0.72242 0.36657 0.0
C672 C 0.34832 0.73304 0.36704 0.0
C673 C 0.34593 0.74854 0.39443 0.0
C674 C 0.36123 0.75367 0.42123 0.0
C675 C 0.37899 0.74335 0.42059 0.0
C676 C 0.38144 0.72781 0.39331 0.0
C677 C 0.40378 0.70087 0.1705 0.0
C678 C 0.42266 0.70853 0.17768 0.0
C679 C 0.39206 0.69492 0.20331 0.0
C680 C 0.39912 0.69615 0.24397 0.0
C681 C 0.41833 0.70305 0.25107 0.0
C682 C 0.42997 0.70926 0.21822 0.0
C683 C 0.3857 0.69224 0.27888 0.0
C684 C 0.38336 0.707 0.30834 0.0
C685 C 0.37368 0.67526 0.28079 0.0
C686 C 0.37645 0.65845 0.25265 0.0
C687 C 0.39515 0.64998 0.24789 0.0
C688 C 0.3977 0.63421 0.22125 0.0
C689 C 0.38165 0.6267 0.19933 0.0
C690 C 0.363 0.63491 0.20407 0.0
C691 C 0.36036 0.65069 0.23065 0.0
H692 H 0.38367 0.61449 0.17873 0.0
H693 H 0.35936 0.76568 0.44241 0.0
H694 H 0.74658 0.82203 0.86003 0.0
H695 H 0.73798 0.84577 0.80633 0.0
H696 H 0.73683 0.89197 0.896 0.0
H697 H 0.74558 0.86824 0.9504 0.0
H698 H 0.70609 0.89416 0.83291 0.0
H699 H 0.77609 0.88804 0.84709 0.0
H700 H 0.80763 0.87028 0.85231 0.0
H701 H 0.79816 0.84634 0.73204 0.0
H702 H 0.76634 0.86363 0.72644 0.0
H703 H 0.71882 0.97194 0.68416 0.0
H704 H 0.71992 0.94992 0.7442 0.0
H705 H 0.73249 0.90106 0.6651 0.0
H706 H 0.73168 0.92303 0.60526 0.0
H707 H 0.75756 0.90182 0.72681 0.0
H708 H 0.68728 0.907 0.71269 0.0
H709 H 0.65546 0.92424 0.70728 0.0
H710 H 0.66516 0.9497 0.82609 0.0
H711 H 0.69718 0.93282 0.83198 0.0
C712 C 0.74424 0.83716 0.86864 0.0
C713 C 0.74709 0.84328 0.90949 0.0
C714 C 0.73931 0.85071 0.83783 0.0
C715 C 0.73706 0.87062 0.84719 0.0
C716 C 0.73858 0.87664 0.88825 0.0
C717 C 0.74364 0.86307 0.91921 0.0
C718 C 0.73485 0.88519 0.81344 0.0
C719 C 0.7174 0.89609 0.80994 0.0
C720 C 0.74955 0.8874 0.78329 0.0
C721 C 0.76872 0.87699 0.78653 0.0
C722 C 0.78062 0.87883 0.82193 0.0
C723 C 0.79856 0.86887 0.82494 0.0
C724 C 0.80486 0.85718 0.79256 0.0
C725 C 0.79324 0.8554 0.75711 0.0
C726 C 0.77524 0.86527 0.75401 0.0
C727 C 0.72149 0.95644 0.67961 0.0
C728 C 0.72529 0.9492 0.64012 0.0
C729 C 0.7221 0.94387 0.7139 0.0
C730 C 0.72624 0.92381 0.70916 0.0
C731 C 0.72939 0.9165 0.66954 0.0
C732 C 0.72895 0.92905 0.63539 0.0
C733 C 0.72855 0.91059 0.74545 0.0
C734 C 0.74616 0.89998 0.74965 0.0
C735 C 0.71397 0.90865 0.77605 0.0
C736 C 0.69472 0.91881 0.77257 0.0
C737 C 0.68271 0.91641 0.73751 0.0
C738 C 0.66462 0.92609 0.73439 0.0
C739 C 0.65832 0.9381 0.76627 0.0
C740 C 0.67007 0.94042 0.80139 0.0
C741 C 0.68818 0.93079 0.80465 0.0
H742 H 0.64431 0.94558 0.7638 0.0
H743 H 0.81879 0.84959 0.79488 0.0
H744 H 0.82148 0.7757 0.90698 0.0
H745 H 0.84676 0.77856 0.85366 0.0
H746 H 0.84165 0.84161 0.85635 0.0
H747 H 0.81678 0.83903 0.90951 0.0
H748 H 0.83678 0.82032 0.77447 0.0
H749 H 0.8788 0.82693 0.89688 0.0
H750 H 0.89239 0.81472 0.96294 0.0
H751 H 0.91471 0.76353 0.90305 0.0
H752 H 0.90095 0.7753 0.83673 0.0
H753 H 0.90962 0.8623 0.65174 0.0
H754 H 0.88757 0.85379 0.70806 0.0
H755 H 0.91592 0.79732 0.72106 0.0
H756 H 0.93859 0.80623 0.66572 0.0
H757 H 0.90856 0.81025 0.7934 0.0
H758 H 0.86992 0.80347 0.67141 0.0
H759 H 0.85512 0.81285 0.6045 0.0
H760 H 0.825 0.86078 0.66118 0.0
H761 H 0.83993 0.85194 0.72824 0.0
C762 C 0.8259 0.79016 0.89644 0.0
C763 C 0.81711 0.80712 0.91242 0.0
C764 C 0.84032 0.79175 0.86613 0.0
C765 C 0.84591 0.81029 0.85117 0.0
C766 C 0.83743 0.82719 0.86753 0.0
C767 C 0.82328 0.82565 0.89807 0.0
C768 C 0.85988 0.81231 0.817 0.0
C769 C 0.85251 0.81838 0.77858 0.0
C770 C 0.88021 0.80879 0.82217 0.0
C771 C 0.88863 0.80187 0.86197 0.0
C772 C 0.88642 0.81297 0.89788 0.0
C773 C 0.8942 0.80616 0.93535 0.0
C774 C 0.90434 0.78833 0.93721 0.0
C775 C 0.90681 0.77732 0.90158 0.0
C776 C 0.89903 0.78406 0.86405 0.0
C777 C 0.91112 0.8481 0.6667 0.0
C778 C 0.92567 0.83486 0.65434 0.0
C779 C 0.89847 0.84318 0.69872 0.0
C780 C 0.89975 0.82471 0.71822 0.0
C781 C 0.91458 0.81162 0.70641 0.0
C782 C 0.9275 0.81669 0.67484 0.0
C783 C 0.88559 0.81917 0.75086 0.0
C784 C 0.89286 0.81224 0.78897 0.0
C785 C 0.86504 0.82163 0.74525 0.0
C786 C 0.85614 0.8271 0.70484 0.0
C787 C 0.86026 0.81611 0.66954 0.0
C788 C 0.85185 0.82133 0.63158 0.0
C789 C 0.83916 0.83742 0.62857 0.0
C790 C 0.83485 0.84833 0.66353 0.0
C791 C 0.84328 0.84321 0.70153 0.0
H792 H 0.83264 0.84142 0.59915 0.0
H793 H 0.91034 0.78305 0.96622 0.0
H794 H 0.73963 0.34044 0.35896 0.0
H795 H 0.75796 0.36093 0.31114 0.0
H796 H 0.78241 0.39356 0.41269 0.0
H797 H 0.76331 0.37344 0.46096 0.0
H798 H 0.77357 0.41784 0.35351 0.0
H799 H 0.80992 0.35865 0.35981 0.0
H800 H 0.81559 0.32288 0.35941 0.0
H801 H 0.79479 0.32025 0.23445 0.0
H802 H 0.78869 0.35594 0.23426 0.0
H803 H 0.84536 0.45636 0.20599 0.0
H804 H 0.83264 0.43741 0.2649 0.0
H805 H 0.78537 0.4156 0.18866 0.0
H806 H 0.79765 0.43491 0.13024 0.0
H807 H 0.81101 0.38649 0.24149 0.0
H808 H 0.77098 0.4465 0.24332 0.0
H809 H 0.76729 0.48247 0.24646 0.0
H810 H 0.79928 0.48322 0.361 0.0
H811 H 0.80342 0.44725 0.35817 0.0
C812 C 0.74891 0.35196 0.37121 0.0
C813 C 0.75013 0.35526 0.41376 0.0
C814 C 0.7595 0.36361 0.34381 0.0
C815 C 0.772 0.37848 0.35831 0.0
C816 C 0.77299 0.38208 0.40078 0.0
C817 C 0.76208 0.37059 0.42831 0.0
C818 C 0.78362 0.39038 0.32868 0.0
C819 C 0.78206 0.41094 0.32956 0.0
C820 C 0.79483 0.38147 0.29737 0.0
C821 C 0.79873 0.36 0.29712 0.0
C822 C 0.80645 0.35044 0.33231 0.0
C823 C 0.80975 0.33017 0.33219 0.0
C824 C 0.80552 0.31932 0.29695 0.0
C825 C 0.79805 0.3287 0.26172 0.0
C826 C 0.7947 0.34895 0.2617 0.0
C827 C 0.83224 0.44754 0.20202 0.0
C828 C 0.82238 0.4471 0.16384 0.0
C829 C 0.82502 0.43678 0.23552 0.0
C830 C 0.80812 0.42516 0.23091 0.0
C831 C 0.79844 0.4245 0.19266 0.0
C832 C 0.80538 0.43557 0.1595 0.0
C833 C 0.80033 0.41367 0.26588 0.0
C834 C 0.80273 0.39324 0.26596 0.0
C835 C 0.79031 0.42268 0.29851 0.0
C836 C 0.78774 0.44425 0.30024 0.0
C837 C 0.77742 0.45437 0.26893 0.0
C838 C 0.7752 0.47475 0.27071 0.0
C839 C 0.78311 0.48514 0.30383 0.0
C840 C 0.7932 0.47516 0.33531 0.0
C841 C 0.79548 0.45478 0.33364 0.0
H842 H 0.78137 0.50091 0.30517 0.0
H843 H 0.80802 0.30364 0.2969 0.0
H844 H 0.18756 0.21601 0.89032 0.0
H845 H 0.16101 0.21863 0.83982 0.0
H846 H 0.14684 0.15751 0.85872 0.0
H847 H 0.17357 0.15467 0.9097 0.0
H848 H 0.15871 0.19897 0.76813 0.0
H849 H 0.09574 0.15347 0.84027 0.0
H850 H 0.08338 0.14466 0.90913 0.0
H851 H 0.10835 0.19742 0.95859 0.0
H852 H 0.1206 0.20668 0.88995 0.0
H853 H 0.09029 0.18227 0.61176 0.0
H854 H 0.1099 0.17429 0.67314 0.0
H855 H 0.07755 0.21709 0.7422 0.0
H856 H 0.05777 0.22505 0.68086 0.0
H857 H 0.08802 0.1846 0.79033 0.0
H858 H 0.11861 0.23089 0.69798 0.0
H859 H 0.13061 0.2425 0.63067 0.0
H860 H 0.17031 0.19357 0.62572 0.0
H861 H 0.15829 0.1815 0.69274 0.0
C862 C 0.17878 0.20309 0.88407 0.0
C863 C 0.18286 0.18505 0.90382 0.0
C864 C 0.16359 0.20464 0.85512 0.0
C865 C 0.152 0.18827 0.84547 0.0
C866 C 0.15557 0.17036 0.86594 0.0
C867 C 0.17088 0.16875 0.89493 0.0
C868 C 0.13701 0.18988 0.81221 0.0
C869 C 0.14328 0.19573 0.77301 0.0
C870 C 0.11684 0.18591 0.81873 0.0
C871 C 0.10928 0.18063 0.86003 0.0
C872 C 0.09853 0.16322 0.86581 0.0
C873 C 0.09155 0.15815 0.90481 0.0
C874 C 0.09514 0.17044 0.93824 0.0
C875 C 0.10566 0.18787 0.93271 0.0
C876 C 0.11265 0.19302 0.89377 0.0
C877 C 0.08716 0.18975 0.64021 0.0
C878 C 0.07272 0.20449 0.6414 0.0
C879 C 0.0983 0.18513 0.67526 0.0
C880 C 0.09538 0.19533 0.71202 0.0
C881 C 0.08003 0.20904 0.71414 0.0
C882 C 0.06876 0.21359 0.67907 0.0
C883 C 0.10984 0.19346 0.74628 0.0
C884 C 0.1035 0.18762 0.78552 0.0
C885 C 0.12996 0.19782 0.74017 0.0
C886 C 0.13741 0.2052 0.70015 0.0
C887 C 0.1298 0.22254 0.6824 0.0
C888 C 0.13661 0.22921 0.64432 0.0
C889 C 0.15118 0.21875 0.62388 0.0
C890 C 0.15901 0.20164 0.64155 0.0
C891 C 0.1522 0.19488 0.67959 0.0
H892 H 0.15644 0.22393 0.5944 0.0
H893 H 0.08974 0.16647 0.9684 0.0
H894 H 0.25228 0.63127 0.44835 0.0
H895 H 0.24048 0.60851 0.3964 0.0
H896 H 0.20129 0.65284 0.34741 0.0
H897 H 0.21313 0.67601 0.39947 0.0
H898 H 0.18629 0.61083 0.35014 0.0
H899 H 0.23927 0.65107 0.30031 0.0
H900 H 0.27166 0.66714 0.30616 0.0
H901 H 0.29965 0.61084 0.31797 0.0
H902 H 0.26736 0.59444 0.31301 0.0
H903 H 0.18058 0.56067 0.15533 0.0
H904 H 0.18201 0.58491 0.21036 0.0
H905 H 0.2332 0.55598 0.26176 0.0
H906 H 0.23252 0.53246 0.20605 0.0
H907 H 0.23964 0.59384 0.25366 0.0
H908 H 0.18714 0.55355 0.30721 0.0
H909 H 0.15488 0.53703 0.3051 0.0
H910 H 0.12613 0.59266 0.28759 0.0
H911 H 0.15826 0.60949 0.28906 0.0
C912 C 0.24092 0.63618 0.42704 0.0
C913 C 0.23393 0.6556 0.42755 0.0
C914 C 0.23415 0.6231 0.39748 0.0
C915 C 0.22023 0.62913 0.36793 0.0
C916 C 0.21207 0.64799 0.37007 0.0
C917 C 0.21892 0.6612 0.39969 0.0
C918 C 0.21619 0.61638 0.33239 0.0
C919 C 0.19777 0.60732 0.32848 0.0
C920 C 0.23134 0.61173 0.30468 0.0
C921 C 0.25086 0.62153 0.30663 0.0
C922 C 0.25231 0.64212 0.30446 0.0
C923 C 0.27066 0.65129 0.3076 0.0
C924 C 0.2877 0.64002 0.31253 0.0
C925 C 0.28643 0.61955 0.31419 0.0
C926 C 0.26811 0.61031 0.31119 0.0
C927 C 0.1921 0.55943 0.17844 0.0
C928 C 0.20646 0.5446 0.17611 0.0
C929 C 0.19278 0.5732 0.2101 0.0
C930 C 0.2077 0.57224 0.24022 0.0
C931 C 0.22157 0.55703 0.2388 0.0
C932 C 0.221 0.54341 0.20711 0.0
C933 C 0.20983 0.58769 0.2718 0.0
C934 C 0.22799 0.59741 0.27487 0.0
C935 C 0.19442 0.59286 0.29864 0.0
C936 C 0.17512 0.58275 0.29776 0.0
C937 C 0.17395 0.56224 0.30255 0.0
C938 C 0.15569 0.55283 0.30154 0.0
C939 C 0.13847 0.56378 0.29608 0.0
C940 C 0.13948 0.58418 0.29174 0.0
C941 C 0.15771 0.59367 0.29268 0.0
H942 H 0.12434 0.55646 0.29533 0.0
H943 H 0.30189 0.64715 0.31499 0.0
H944 H 0.30602 0.66929 0.62863 0.0
H945 H 0.33142 0.6724 0.68219 0.0
H946 H 0.34199 0.73225 0.64431 0.0
H947 H 0.31618 0.72949 0.59134 0.0
H948 H 0.37766 0.70069 0.66668 0.0
H949 H 0.31918 0.73644 0.71158 0.0
H950 H 0.28347 0.73902 0.72265 0.0
H951 H 0.28544 0.68835 0.80204 0.0
H952 H 0.32113 0.68502 0.7902 0.0
H953 H 0.42702 0.74449 0.83603 0.0
H954 H 0.40722 0.73623 0.77547 0.0
H955 H 0.37672 0.69191 0.846 0.0
H956 H 0.39631 0.70037 0.90684 0.0
H957 H 0.35132 0.71342 0.80578 0.0
H958 H 0.41015 0.67996 0.76996 0.0
H959 H 0.44564 0.67571 0.75808 0.0
H960 H 0.44356 0.7198 0.66284 0.0
H961 H 0.40809 0.72452 0.67454 0.0
C962 C 0.31397 0.68301 0.63128 0.0
C963 C 0.30911 0.69921 0.60609 0.0
C964 C 0.32841 0.68474 0.66185 0.0
C965 C 0.33841 0.70254 0.66705 0.0
C966 C 0.33438 0.7184 0.64051 0.0
C967 C 0.31962 0.71684 0.61054 0.0
C968 C 0.3517 0.70513 0.70263 0.0
C969 C 0.37204 0.70368 0.6971 0.0
C970 C 0.34415 0.7084 0.74225 0.0
C971 C 0.32274 0.71029 0.74941 0.0
C972 C 0.31195 0.72563 0.7308 0.0
C973 C 0.29172 0.72723 0.73725 0.0
C974 C 0.28217 0.71373 0.76275 0.0
C975 C 0.29285 0.69865 0.78197 0.0
C976 C 0.31307 0.69688 0.77535 0.0
C977 C 0.41631 0.73277 0.8384 0.0
C978 C 0.41316 0.72309 0.87613 0.0
C979 C 0.40502 0.72803 0.80377 0.0
C980 C 0.39058 0.71332 0.80606 0.0
C981 C 0.38774 0.70334 0.84352 0.0
C982 C 0.3989 0.70819 0.87824 0.0
C983 C 0.37761 0.70925 0.77019 0.0
C984 C 0.35717 0.71035 0.77558 0.0
C985 C 0.38514 0.70549 0.73053 0.0
C986 C 0.40648 0.70272 0.7234 0.0
C987 C 0.41729 0.68887 0.74672 0.0
C988 C 0.43739 0.68635 0.73997 0.0
C989 C 0.44686 0.69751 0.70979 0.0
C990 C 0.43621 0.71118 0.68623 0.0
C991 C 0.4161 0.71377 0.69288 0.0
H992 H 0.46242 0.69554 0.7046 0.0
H993 H 0.26652 0.71502 0.76782 0.0
H994 H 0.72532 0.81757 0.12882 0.0
H995 H 0.7114 0.83935 0.18062 0.0
H996 H 0.7426 0.88835 0.12732 0.0
H997 H 0.75635 0.86688 0.07554 0.0
H998 H 0.73175 0.85884 0.23787 0.0
H999 H 0.71841 0.93044 0.1416 0.0
H1000 H 0.70648 0.93981 0.07228 0.0
H1001 H 0.67436 0.8857 0.06392 0.0
H1002 H 0.68585 0.87612 0.13343 0.0
H1003 H 0.74963 0.94433 0.34762 0.0
H1004 H 0.74756 0.91907 0.29513 0.0
H1005 H 0.68461 0.9264 0.2883 0.0
H1006 H 0.68661 0.95208 0.34085 0.0
H1007 H 0.70194 0.9243 0.21118 0.0
H1008 H 0.70134 0.88704 0.33528 0.0
H1009 H 0.71213 0.87711 0.40505 0.0
H1010 H 0.76871 0.86096 0.35869 0.0
H1011 H 0.75837 0.87107 0.28871 0.0
C1012 C 0.72892 0.83305 0.12771 0.0
C1013 C 0.74207 0.84046 0.09823 0.0
C1014 C 0.72099 0.84546 0.15738 0.0
C1015 C 0.72585 0.8655 0.1577 0.0
C1016 C 0.73837 0.87302 0.12734 0.0
C1017 C 0.74636 0.86066 0.0979 0.0
C1018 C 0.71951 0.87833 0.19176 0.0
C1019 C 0.725 0.87304 0.23208 0.0
C1020 C 0.71034 0.89672 0.18434 0.0
C1021 C 0.70309 0.90252 0.14272 0.0
C1022 C 0.7087 0.92059 0.12512 0.0
C1023 C 0.70204 0.92593 0.08574 0.0
C1024 C 0.6897 0.91334 0.06368 0.0
C1025 C 0.68396 0.89541 0.08099 0.0
C1026 C 0.69057 0.89001 0.12036 0.0
C1027 C 0.73535 0.94074 0.33471 0.0
C1028 C 0.71829 0.95027 0.34822 0.0
C1029 C 0.73417 0.92615 0.305 0.0
C1030 C 0.71591 0.92071 0.28817 0.0
C1031 C 0.69883 0.93034 0.30109 0.0
C1032 C 0.69998 0.94491 0.33117 0.0
C1033 C 0.71503 0.9051 0.25674 0.0
C1034 C 0.70826 0.9099 0.217 0.0
C1035 C 0.72281 0.88616 0.26473 0.0
C1036 C 0.72909 0.87991 0.30674 0.0
C1037 C 0.71613 0.88149 0.33999 0.0
C1038 C 0.72216 0.87581 0.37958 0.0
C1039 C 0.7411 0.86843 0.38631 0.0
C1040 C 0.75404 0.86667 0.35343 0.0
C1041 C 0.74809 0.87235 0.31378 0.0
H1042 H 0.74574 0.86404 0.41699 0.0
H1043 H 0.68458 0.91749 0.03319 0.0
H1044 H 0.69354 0.30249 0.64681 0.0
H1045 H 0.66711 0.30438 0.69679 0.0
H1046 H 0.63392 0.34187 0.61403 0.0
H1047 H 0.6604 0.34019 0.56371 0.0
H1048 H 0.63528 0.35596 0.69305 0.0
H1049 H 0.62032 0.29508 0.62687 0.0
H1050 H 0.62775 0.26208 0.60064 0.0
H1051 H 0.64234 0.24228 0.72296 0.0
H1052 H 0.63529 0.27525 0.74987 0.0
H1053 H 0.54931 0.35414 0.81456 0.0
H1054 H 0.57202 0.35085 0.75712 0.0
H1055 H 0.60574 0.30821 0.82704 0.0
H1056 H 0.58277 0.31113 0.88412 0.0
H1057 H 0.60263 0.29679 0.75065 0.0
H1058 H 0.62025 0.35732 0.81655 0.0
H1059 H 0.61446 0.39041 0.84411 0.0
H1060 H 0.59647 0.41087 0.72418 0.0
H1061 H 0.60191 0.37782 0.69602 0.0
C1062 C 0.6806 0.31108 0.63904 0.0
C1063 C 0.67911 0.3212 0.6012 0.0
C1064 C 0.66546 0.31208 0.66763 0.0
C1065 C 0.64849 0.32312 0.65896 0.0
C1066 C 0.6469 0.33323 0.62125 0.0
C1067 C 0.66202 0.3322 0.59251 0.0
C1068 C 0.63269 0.32452 0.68988 0.0
C1069 C 0.62787 0.34307 0.70515 0.0
C1070 C 0.62343 0.30763 0.70636 0.0
C1071 C 0.62742 0.28769 0.69034 0.0
C1072 C 0.62524 0.28373 0.64815 0.0
C1073 C 0.62937 0.26502 0.63316 0.0
C1074 C 0.63556 0.25011 0.6601 0.0
C1075 C 0.63756 0.25385 0.70212 0.0
C1076 C 0.63348 0.27254 0.71727 0.0
C1077 C 0.56158 0.34408 0.81761 0.0
C1078 C 0.56434 0.33296 0.85385 0.0
C1079 C 0.57457 0.34223 0.78483 0.0
C1080 C 0.5908 0.32952 0.78797 0.0
C1081 C 0.59334 0.31811 0.82386 0.0
C1082 C 0.58021 0.31978 0.85645 0.0
C1083 C 0.6053 0.32826 0.75418 0.0
C1084 C 0.6099 0.30972 0.73836 0.0
C1085 C 0.6145 0.34516 0.73743 0.0
C1086 C 0.61128 0.36505 0.75428 0.0
C1087 C 0.61492 0.36884 0.79613 0.0
C1088 C 0.61172 0.38759 0.81184 0.0
C1089 C 0.60505 0.40272 0.78594 0.0
C1090 C 0.60161 0.39914 0.74423 0.0
C1091 C 0.60475 0.3804 0.72837 0.0
H1092 H 0.60259 0.41723 0.79816 0.0
H1093 H 0.63876 0.23564 0.64843 0.0
H1094 H 0.24171 0.11686 0.06847 0.0
H1095 H 0.25774 0.09465 0.11797 0.0
H1096 H 0.29142 0.14305 0.16638 0.0
H1097 H 0.27595 0.16517 0.11643 0.0
H1098 H 0.31383 0.11192 0.16261 0.0
H1099 H 0.24934 0.12571 0.21389 0.0
H1100 H 0.21313 0.12754 0.21098 0.0
H1101 H 0.2099 0.0652 0.19359 0.0
H1102 H 0.24613 0.06305 0.1958 0.0
H1103 H 0.3366 0.07662 0.36402 0.0
H1104 H 0.32373 0.09471 0.3044 0.0
H1105 H 0.29817 0.04147 0.25706 0.0
H1106 H 0.31141 0.02309 0.31612 0.0
H1107 H 0.27205 0.07279 0.25704 0.0
H1108 H 0.33783 0.05976 0.2122 0.0
H1109 H 0.374 0.05937 0.21842 0.0
H1110 H 0.37464 0.1222 0.22788 0.0
H1111 H 0.33844 0.12295 0.22231 0.0
C1112 C 0.25263 0.12275 0.08947 0.0
C1113 C 0.2574 0.14284 0.08871 0.0
C1114 C 0.26173 0.11004 0.11785 0.0
C1115 C 0.27554 0.11724 0.14639 0.0
C1116 C 0.28079 0.13715 0.14475 0.0
C1117 C 0.27186 0.14981 0.11619 0.0
C1118 C 0.28414 0.10427 0.17886 0.0
C1119 C 0.30468 0.10348 0.18344 0.0
C1120 C 0.27223 0.09301 0.20568 0.0
C1121 C 0.25044 0.09425 0.20454 0.0
C1122 C 0.24091 0.11241 0.20913 0.0
C1123 C 0.22039 0.11351 0.20766 0.0
C1124 C 0.20922 0.09651 0.20199 0.0
C1125 C 0.21857 0.07837 0.1979 0.0
C1126 C 0.23909 0.0772 0.19928 0.0
C1127 C 0.32856 0.06864 0.3406 0.0
C1128 C 0.32509 0.04836 0.34489 0.0
C1129 C 0.32114 0.07904 0.30661 0.0
C1130 C 0.31011 0.0694 0.27621 0.0
C1131 C 0.30663 0.04918 0.28025 0.0
C1132 C 0.31414 0.03873 0.31412 0.0
C1133 C 0.30169 0.08059 0.2409 0.0
C1134 C 0.28118 0.08107 0.23589 0.0
C1135 C 0.31362 0.09179 0.2141 0.0
C1136 C 0.3354 0.09139 0.21716 0.0
C1137 C 0.34567 0.07348 0.21592 0.0
C1138 C 0.36618 0.0732 0.21927 0.0
C1139 C 0.37661 0.09075 0.22363 0.0
C1140 C 0.36654 0.10862 0.22454 0.0
C1141 C 0.34603 0.10898 0.22123 0.0
H1142 H 0.39249 0.0905 0.22623 0.0
H1143 H 0.19334 0.09738 0.20086 0.0
H1144 H 0.20867 0.24751 0.07111 0.0
H1145 H 0.19934 0.28224 0.07238 0.0
H1146 H 0.20922 0.28676 0.94171 0.0
H1147 H 0.21892 0.25236 0.94037 0.0
H1148 H 0.22808 0.31458 0.98003 0.0
H1149 H 0.16238 0.28897 0.98335 0.0
H1150 H 0.13466 0.26916 0.00879 0.0
H1151 H 0.1383 0.29795 0.12555 0.0
H1152 H 0.16619 0.31787 0.10087 0.0
H1153 H 0.19527 0.41016 0.94365 0.0
H1154 H 0.1934 0.37432 0.94355 0.0
H1155 H 0.19209 0.37354 0.07613 0.0
H1156 H 0.19426 0.40938 0.07659 0.0
H1157 H 0.16795 0.34407 0.03869 0.0
H1158 H 0.23428 0.36901 0.03461 0.0
H1159 H 0.26103 0.38965 0.00735 0.0
H1160 H 0.25566 0.36154 0.8901 0.0
H1161 H 0.22862 0.34096 0.91649 0.0
C1162 C 0.20863 0.25586 0.0426 0.0
C1163 C 0.2148 0.24726 0.00574 0.0
C1164 C 0.20318 0.27568 0.04332 0.0
C1165 C 0.20357 0.2871 0.00711 0.0
C1166 C 0.20893 0.27827 0.97007 0.0
C1167 C 0.2145 0.25859 0.96938 0.0
C1168 C 0.20007 0.3086 0.00805 0.0
C1169 C 0.21476 0.32095 0.99227 0.0
C1170 C 0.18299 0.317 0.02517 0.0
C1171 C 0.16649 0.30477 0.04038 0.0
C1172 C 0.15741 0.29094 0.01459 0.0
C1173 C 0.14162 0.27973 0.02884 0.0
C1174 C 0.13473 0.28227 0.0688 0.0
C1175 C 0.14365 0.296 0.09461 0.0
C1176 C 0.15943 0.30728 0.08048 0.0
C1177 C 0.1943 0.40238 0.97277 0.0
C1178 C 0.19523 0.41259 0.01014 0.0
C1179 C 0.19313 0.38193 0.97265 0.0
C1180 C 0.19291 0.37133 0.00986 0.0
C1181 C 0.19225 0.38149 0.04712 0.0
C1182 C 0.19345 0.40198 0.04728 0.0
C1183 C 0.19575 0.3498 0.00991 0.0
C1184 C 0.18114 0.33755 0.02624 0.0
C1185 C 0.21288 0.34139 0.99317 0.0
C1186 C 0.22929 0.3536 0.9774 0.0
C1187 C 0.2387 0.36734 0.00292 0.0
C1188 C 0.25392 0.37901 0.98764 0.0
C1189 C 0.26001 0.37694 0.94699 0.0
C1190 C 0.25091 0.36315 0.92156 0.0
C1191 C 0.23563 0.35148 0.93667 0.0
H1192 H 0.2718 0.38599 0.93521 0.0
H1193 H 0.12245 0.27364 0.07974 0.0
H1194 H 0.19428 0.71336 0.57352 0.0
H1195 H 0.1607 0.72623 0.5743 0.0
H1196 H 0.17044 0.75525 0.45769 0.0
H1197 H 0.20369 0.74202 0.45608 0.0
H1198 H 0.14759 0.76192 0.5775 0.0
H1199 H 0.12895 0.75887 0.40231 0.0
H1200 H 0.13617 0.73789 0.3429 0.0
H1201 H 0.14675 0.68884 0.42408 0.0
H1202 H 0.13931 0.70943 0.48392 0.0
H1203 H 0.07265 0.82903 0.528 0.0
H1204 H 0.10275 0.80962 0.52988 0.0
H1205 H 0.06952 0.75758 0.50029 0.0
H1206 H 0.03944 0.77712 0.49596 0.0
H1207 H 0.10169 0.75786 0.45826 0.0
H1208 H 0.08651 0.7663 0.59942 0.0
H1209 H 0.07787 0.78433 0.66211 0.0
H1210 H 0.13193 0.81671 0.65526 0.0
H1211 H 0.14078 0.79907 0.59217 0.0
C1212 C 0.18921 0.72236 0.5479 0.0
C1213 C 0.20165 0.72663 0.5147 0.0
C1214 C 0.17003 0.72973 0.54843 0.0
C1215 C 0.16296 0.74152 0.51584 0.0
C1216 C 0.17539 0.74583 0.48275 0.0
C1217 C 0.19446 0.73832 0.48198 0.0
C1218 C 0.14289 0.75001 0.51703 0.0
C1219 C 0.13751 0.76094 0.55152 0.0
C1220 C 0.12954 0.74836 0.48354 0.0
C1221 C 0.13372 0.73576 0.44763 0.0
C1222 C 0.13271 0.74358 0.40747 0.0
C1223 C 0.13686 0.73176 0.37372 0.0
C1224 C 0.14196 0.71206 0.37972 0.0
C1225 C 0.14285 0.70412 0.41949 0.0
C1226 C 0.13869 0.71587 0.45333 0.0
C1227 C 0.07173 0.81351 0.52134 0.0
C1228 C 0.05358 0.80465 0.51189 0.0
C1229 C 0.08895 0.80236 0.523 0.0
C1230 C 0.08836 0.78207 0.51596 0.0
C1231 C 0.07031 0.7732 0.50609 0.0
C1232 C 0.0531 0.78437 0.50403 0.0
C1233 C 0.10664 0.77021 0.51826 0.0
C1234 C 0.11169 0.75868 0.4844 0.0
C1235 C 0.11946 0.77085 0.55282 0.0
C1236 C 0.11424 0.78146 0.59088 0.0
C1237 C 0.0965 0.77736 0.61112 0.0
C1238 C 0.09157 0.7875 0.64675 0.0
C1239 C 0.10432 0.80169 0.66262 0.0
C1240 C 0.12206 0.80573 0.64292 0.0
C1241 C 0.12705 0.79565 0.60725 0.0
H1242 H 0.10048 0.80952 0.69021 0.0
H1243 H 0.1452 0.70294 0.35356 0.0
H1244 H 0.77062 0.72966 0.95436 0.0
H1245 H 0.78059 0.69529 0.958 0.0
H1246 H 0.81138 0.70598 0.07221 0.0
H1247 H 0.8014 0.74057 0.06896 0.0
H1248 H 0.83284 0.68291 0.01797 0.0
H1249 H 0.76945 0.68381 0.07769 0.0
H1250 H 0.73426 0.69192 0.08317 0.0
H1251 H 0.7218 0.65921 0.97371 0.0
H1252 H 0.75702 0.65114 0.9672 0.0
H1253 H 0.84257 0.5813 0.07085 0.0
H1254 H 0.83392 0.61609 0.07248 0.0
H1255 H 0.80247 0.61036 0.9574 0.0
H1256 H 0.8115 0.57565 0.95482 0.0
H1257 H 0.78155 0.63105 0.01648 0.0
H1258 H 0.8464 0.63102 0.95764 0.0
H1259 H 0.88171 0.62289 0.9556 0.0
H1260 H 0.89138 0.654 0.06828 0.0
H1261 H 0.85605 0.66207 0.0713 0.0
C1262 C 0.77959 0.72479 0.98023 0.0
C1263 C 0.78511 0.73787 0.01153 0.0
C1264 C 0.78521 0.7051 0.9823 0.0
C1265 C 0.79654 0.69807 0.01559 0.0
C1266 C 0.80258 0.71114 0.04633 0.0
C1267 C 0.79681 0.73086 0.04448 0.0
C1268 C 0.80175 0.67696 0.01827 0.0
C1269 C 0.82165 0.67156 0.01829 0.0
C1270 C 0.78711 0.66219 0.01818 0.0
C1271 C 0.76591 0.66702 0.02175 0.0
C1272 C 0.75924 0.6785 0.05455 0.0
C1273 C 0.73929 0.68306 0.05789 0.0
C1274 C 0.72582 0.67611 0.02878 0.0
C1275 C 0.73227 0.66459 0.99623 0.0
C1276 C 0.75223 0.66 0.99271 0.0
C1277 C 0.83401 0.58744 0.04558 0.0
C1278 C 0.82784 0.57563 0.01255 0.0
C1279 C 0.82901 0.60733 0.0467 0.0
C1280 C 0.81768 0.61582 0.01492 0.0
C1281 C 0.81119 0.60406 0.98229 0.0
C1282 C 0.8163 0.58419 0.98098 0.0
C1283 C 0.81264 0.63699 0.01561 0.0
C1284 C 0.79274 0.6424 0.01627 0.0
C1285 C 0.8273 0.65175 0.01678 0.0
C1286 C 0.84855 0.64697 0.01492 0.0
C1287 C 0.85602 0.63598 0.98217 0.0
C1288 C 0.87605 0.63141 0.9808 0.0
C1289 C 0.88877 0.63788 0.01185 0.0
C1290 C 0.8815 0.64897 0.04428 0.0
C1291 C 0.86149 0.65356 0.04582 0.0
H1292 H 0.90427 0.63433 0.01073 0.0
H1293 H 0.71038 0.67959 0.03161 0.0
H1294 H 0.79148 0.3083 0.44855 0.0
H1295 H 0.82594 0.29846 0.44554 0.0
H1296 H 0.81586 0.25448 0.53953 0.0
H1297 H 0.78156 0.26495 0.54401 0.0
H1298 H 0.84861 0.2715 0.55511 0.0
H1299 H 0.82103 0.24335 0.43277 0.0
H1300 H 0.80238 0.24337 0.3673 0.0
H1301 H 0.84258 0.28542 0.31615 0.0
H1302 H 0.86134 0.28582 0.38148 0.0
H1303 H 0.94056 0.22378 0.52437 0.0
H1304 H 0.905 0.22975 0.52502 0.0
H1305 H 0.91263 0.28006 0.44517 0.0
H1306 H 0.94805 0.274 0.44385 0.0
H1307 H 0.88088 0.25762 0.42232 0.0
H1308 H 0.90742 0.28634 0.54636 0.0
H1309 H 0.92592 0.28598 0.612 0.0
H1310 H 0.8872 0.2417 0.65984 0.0
H1311 H 0.86863 0.24161 0.59423 0.0
C1312 C 0.7966 0.29649 0.46847 0.0
C1313 C 0.7838 0.28733 0.49638 0.0
C1314 C 0.8163 0.29078 0.46656 0.0
C1315 C 0.82347 0.27542 0.4917 0.0
C1316 C 0.8107 0.26632 0.51973 0.0
C1317 C 0.79109 0.2723 0.52223 0.0
C1318 C 0.8444 0.26917 0.4895 0.0
C1319 C 0.85552 0.26812 0.5261 0.0
C1320 C 0.85363 0.2651 0.45162 0.0
C1321 C 0.84251 0.26471 0.41212 0.0
C1322 C 0.82584 0.25267 0.40762 0.0
C1323 C 0.81525 0.2526 0.37053 0.0
C1324 C 0.82128 0.2644 0.33761 0.0
C1325 C 0.83793 0.27627 0.34167 0.0
C1326 C 0.84856 0.27641 0.3787 0.0
C1327 C 0.9346 0.23596 0.50658 0.0
C1328 C 0.94709 0.24852 0.48432 0.0
C1329 C 0.91433 0.23943 0.50719 0.0
C1330 C 0.90622 0.25547 0.48548 0.0
C1331 C 0.91859 0.26764 0.46223 0.0
C1332 C 0.93883 0.26425 0.46178 0.0
C1333 C 0.88494 0.26002 0.48783 0.0
C1334 C 0.87382 0.2608 0.45128 0.0
C1335 C 0.87567 0.2637 0.52574 0.0
C1336 C 0.88677 0.26382 0.56525 0.0
C1337 C 0.90295 0.27642 0.57076 0.0
C1338 C 0.91343 0.27632 0.60798 0.0
C1339 C 0.90778 0.26379 0.64003 0.0
C1340 C 0.89159 0.25137 0.63496 0.0
C1341 C 0.88107 0.2514 0.59778 0.0
H1342 H 0.91591 0.26373 0.66882 0.0
H1343 H 0.81306 0.26434 0.30893 0.0
H1344 H 0.71637 0.24527 0.44648 0.0
H1345 H 0.70666 0.21087 0.44854 0.0
H1346 H 0.68948 0.21677 0.5752 0.0
H1347 H 0.69946 0.25131 0.57364 0.0
H1348 H 0.71245 0.18542 0.56532 0.0
H1349 H 0.65482 0.21032 0.49982 0.0
H1350 H 0.63547 0.22975 0.44948 0.0
H1351 H 0.65964 0.19634 0.35072 0.0
H1352 H 0.67939 0.17689 0.4004 0.0
H1353 H 0.6854 0.08522 0.56427 0.0
H1354 H 0.68033 0.12074 0.56838 0.0
H1355 H 0.70089 0.12766 0.44401 0.0
H1356 H 0.70605 0.09229 0.43971 0.0
H1357 H 0.67074 0.15292 0.45994 0.0
H1358 H 0.73218 0.13257 0.52453 0.0
H1359 H 0.75236 0.11352 0.57415 0.0
H1360 H 0.72102 0.13907 0.67441 0.0
H1361 H 0.70046 0.15806 0.62529 0.0
C1362 C 0.71036 0.23936 0.47473 0.0
C1363 C 0.70883 0.25105 0.50999 0.0
C1364 C 0.70467 0.21968 0.47575 0.0
C1365 C 0.69715 0.21127 0.51189 0.0
C1366 C 0.69519 0.22298 0.54695 0.0
C1367 C 0.7009 0.24272 0.54597 0.0
C1368 C 0.69282 0.18992 0.51364 0.0
C1369 C 0.70292 0.17838 0.54292 0.0
C1370 C 0.68068 0.18068 0.48393 0.0
C1371 C 0.66868 0.19221 0.45388 0.0
C1372 C 0.65611 0.20719 0.46735 0.0
C1373 C 0.64506 0.2182 0.43892 0.0
C1374 C 0.64635 0.2143 0.39692 0.0
C1375 C 0.65866 0.19934 0.38327 0.0
C1376 C 0.66977 0.1883 0.41156 0.0
C1377 C 0.68862 0.0943 0.53765 0.0
C1378 C 0.69632 0.08595 0.50181 0.0
C1379 C 0.68566 0.11457 0.54001 0.0
C1380 C 0.69052 0.12686 0.50671 0.0
C1381 C 0.69703 0.11844 0.47005 0.0
C1382 C 0.69993 0.09819 0.46762 0.0
C1383 C 0.69066 0.14852 0.51108 0.0
C1384 C 0.67987 0.16007 0.4829 0.0
C1385 C 0.70219 0.15783 0.54174 0.0
C1386 C 0.71464 0.14654 0.57126 0.0
C1387 C 0.7295 0.13401 0.55715 0.0
C1388 C 0.74102 0.12324 0.58518 0.0
C1389 C 0.73793 0.12503 0.62741 0.0
C1390 C 0.72336 0.13766 0.64169 0.0
C1391 C 0.71178 0.14843 0.61378 0.0
H1392 H 0.74686 0.11669 0.64906 0.0
H1393 H 0.63778 0.22285 0.37497 0.0
H1394 H 0.28654 0.22722 0.05778 0.0
H1395 H 0.31901 0.24241 0.05672 0.0
H1396 H 0.33048 0.21603 0.93931 0.0
H1397 H 0.29787 0.20069 0.94 0.0
H1398 H 0.36261 0.21398 0.99442 0.0
H1399 H 0.31767 0.26211 0.94013 0.0
H1400 H 0.28777 0.28258 0.93969 0.0
H1401 H 0.3068 0.31013 0.05147 0.0
H1402 H 0.33668 0.28958 0.05296 0.0
H1403 H 0.44439 0.27526 0.94526 0.0
H1404 H 0.41316 0.25743 0.94402 0.0
H1405 H 0.39581 0.28616 0.05563 0.0
H1406 H 0.42667 0.30452 0.05632 0.0
H1407 H 0.36657 0.28666 0.00038 0.0
H1408 H 0.41087 0.23826 0.05627 0.0
H1409 H 0.44056 0.21748 0.05826 0.0
H1410 H 0.42275 0.19036 0.94515 0.0
H1411 H 0.39307 0.21119 0.94218 0.0
C1412 C 0.29597 0.2245 0.03179 0.0
C1413 C 0.28951 0.21286 0.99877 0.0
C1414 C 0.31452 0.23326 0.03122 0.0
C1415 C 0.32702 0.23054 0.9977 0.0
C1416 C 0.32098 0.21836 0.96538 0.0
C1417 C 0.30234 0.20966 0.96579 0.0
C1418 C 0.34613 0.24094 0.99608 0.0
C1419 C 0.36352 0.22988 0.9951 0.0
C1420 C 0.34724 0.26166 0.99782 0.0
C1421 C 0.32934 0.27416 0.99686 0.0
C1422 C 0.31541 0.27241 0.96481 0.0
C1423 C 0.29847 0.28405 0.96434 0.0
C1424 C 0.29536 0.29761 0.99559 0.0
C1425 C 0.30921 0.2996 0.02732 0.0
C1426 C 0.32616 0.28797 0.02797 0.0
C1427 C 0.43389 0.27784 0.96946 0.0
C1428 C 0.43805 0.29129 0.00095 0.0
C1429 C 0.41612 0.2675 0.9689 0.0
C1430 C 0.40222 0.27032 0.99994 0.0
C1431 C 0.40635 0.28371 0.03143 0.0
C1432 C 0.42408 0.29405 0.03199 0.0
C1433 C 0.38315 0.25972 0.99917 0.0
C1434 C 0.36572 0.27076 0.9996 0.0
C1435 C 0.38203 0.23899 0.99706 0.0
C1436 C 0.39986 0.22644 0.99877 0.0
C1437 C 0.41337 0.22799 0.03163 0.0
C1438 C 0.43018 0.21617 0.03297 0.0
C1439 C 0.43357 0.20265 0.00179 0.0
C1440 C 0.42012 0.20087 0.96924 0.0
C1441 C 0.4033 0.21267 0.96773 0.0
H1442 H 0.44659 0.19351 0.00289 0.0
H1443 H 0.28224 0.30661 0.99516 0.0
H1444 H 0.2891 0.76027 0.56051 0.0
H1445 H 0.30198 0.79372 0.55807 0.0
H1446 H 0.27975 0.80053 0.43381 0.0
H1447 H 0.26811 0.76644 0.43535 0.0
H1448 H 0.31182 0.81895 0.43786 0.0
H1449 H 0.25525 0.81908 0.52332 0.0
H1450 H 0.23379 0.80839 0.58 0.0
H1451 H 0.27849 0.82392 0.66809 0.0
H1452 H 0.30032 0.83447 0.61189 0.0
H1453 H 0.30518 0.92533 0.45551 0.0
H1454 H 0.29536 0.89063 0.45282 0.0
H1455 H 0.34027 0.87607 0.54257 0.0
H1456 H 0.35051 0.91065 0.54447 0.0
H1457 H 0.29632 0.86254 0.55464 0.0
H1458 H 0.35241 0.86259 0.46214 0.0
H1459 H 0.37068 0.87498 0.40212 0.0
H1460 H 0.32172 0.86124 0.32305 0.0
H1461 H 0.30304 0.84905 0.38277 0.0
C1462 C 0.28712 0.76891 0.53261 0.0
C1463 C 0.27747 0.76096 0.49826 0.0
C1464 C 0.29434 0.78807 0.5313 0.0
C1465 C 0.29129 0.79996 0.49623 0.0
C1466 C 0.28218 0.79176 0.46135 0.0
C1467 C 0.2755 0.77232 0.46222 0.0
C1468 C 0.29727 0.82099 0.49638 0.0
C1469 C 0.30819 0.82847 0.46325 0.0
C1470 C 0.29263 0.83358 0.52945 0.0
C1471 C 0.27948 0.8274 0.56337 0.0
C1472 C 0.26054 0.82011 0.55477 0.0
C1473 C 0.24831 0.81408 0.58681 0.0
C1474 C 0.25479 0.81543 0.62761 0.0
C1475 C 0.2735 0.82286 0.63646 0.0
C1476 C 0.2858 0.82889 0.60454 0.0
C1477 C 0.31293 0.91468 0.47456 0.0
C1478 C 0.32857 0.92054 0.5002 0.0
C1479 C 0.30738 0.89494 0.4729 0.0
C1480 C 0.31716 0.8809 0.49741 0.0
C1481 C 0.33263 0.88676 0.52338 0.0
C1482 C 0.33847 0.90642 0.52438 0.0
C1483 C 0.31094 0.86015 0.49659 0.0
C1484 C 0.29989 0.85286 0.52946 0.0
C1485 C 0.31497 0.84793 0.46286 0.0
C1486 C 0.32625 0.85513 0.42698 0.0
C1487 C 0.34546 0.86241 0.43203 0.0
C1488 C 0.35591 0.86935 0.39804 0.0
C1489 C 0.34734 0.86896 0.35881 0.0
C1490 C 0.32833 0.86157 0.35346 0.0
C1491 C 0.31781 0.85463 0.38736 0.0
H1492 H 0.35546 0.87433 0.33254 0.0
H1493 H 0.2453 0.81075 0.65237 0.0
H1494 H 0.71222 0.75627 0.05308 0.0
H1495 H 0.67721 0.74788 0.0522 0.0
H1496 H 0.66861 0.78407 0.94392 0.0
H1497 H 0.70354 0.79247 0.94438 0.0
H1498 H 0.64213 0.7919 0.00539 0.0
H1499 H 0.66707 0.73652 0.93362 0.0
H1500 H 0.68797 0.70762 0.92157 0.0
H1501 H 0.66501 0.67952 0.02965 0.0
H1502 H 0.64414 0.7084 0.04273 0.0
H1503 H 0.54526 0.76639 0.95294 0.0
H1504 H 0.58101 0.76898 0.94881 0.0
H1505 H 0.58718 0.7332 0.05834 0.0
H1506 H 0.55132 0.73074 0.06307 0.0
H1507 H 0.61498 0.72438 0.99716 0.0
H1508 H 0.59012 0.78054 0.06849 0.0
H1509 H 0.56855 0.80922 0.07786 0.0
H1510 H 0.59157 0.83592 0.96827 0.0
H1511 H 0.61306 0.80725 0.95789 0.0
C1512 C 0.7029 0.76236 0.02895 0.0
C1513 C 0.71065 0.77506 0.99883 0.0
C1514 C 0.68294 0.75746 0.02838 0.0
C1515 C 0.67039 0.7653 0.99788 0.0
C1516 C 0.6781 0.77786 0.96766 0.0
C1517 C 0.69806 0.78259 0.96793 0.0
C1518 C 0.64903 0.76125 0.99866 0.0
C1519 C 0.63618 0.77716 0.00305 0.0
C1520 C 0.64138 0.74196 0.99662 0.0
C1521 C 0.65419 0.72472 0.98939 0.0
C1522 C 0.66664 0.72429 0.95511 0.0
C1523 C 0.67843 0.70788 0.94801 0.0
C1524 C 0.6778 0.69175 0.97481 0.0
C1525 C 0.66545 0.69202 0.0089 0.0
C1526 C 0.65364 0.70841 0.01616 0.0
C1527 C 0.55421 0.75904 0.97614 0.0
C1528 C 0.54547 0.7486 0.00869 0.0
C1529 C 0.57462 0.76046 0.97361 0.0
C1530 C 0.58668 0.75151 0.00359 0.0
C1531 C 0.57808 0.74022 0.03493 0.0
C1532 C 0.55762 0.73881 0.03754 0.0
C1533 C 0.60814 0.75506 0.00357 0.0
C1534 C 0.62098 0.73909 0.99954 0.0
C1535 C 0.61585 0.77432 0.00584 0.0
C1536 C 0.60306 0.79166 0.0122 0.0
C1537 C 0.59047 0.79246 0.04621 0.0
C1538 C 0.57828 0.80872 0.05173 0.0
C1539 C 0.57865 0.82436 0.02362 0.0
C1540 C 0.59127 0.82379 0.98999 0.0
C1541 C 0.60347 0.80754 0.98429 0.0
H1542 H 0.5692 0.83694 0.02794 0.0
H1543 H 0.68685 0.67901 0.96909 0.0
loop_
_geom_bond_atom_site_label_1
_geom_bond_atom_site_label_2
_geom_bond_distance
_geom_bond_site_symmetry_2
_ccdc_geom_bond_type
Fe0 O2 1.918 . S
Fe0 O5 1.997 . S
Fe0 O6 2.002 . S
Fe0 O11 1.976 . S
Fe0 O14 1.996 . S
Fe1 O2 1.918 1_556 S
Fe1 O9 1.997 . S
Fe1 O12 1.996 . S
Fe1 O16 1.976 . S
Fe1 O19 2.002 . S
O2 Fe0 1.918 . S
O2 Fe1 1.918 1_554 S
O2 Fe3 1.918 . S
Fe3 O2 1.918 . S
Fe3 O4 2.002 . S
Fe3 O13 1.976 . S
Fe3 O17 1.996 1_554 S
Fe3 O20 1.997 1_554 S
O4 Fe3 2.002 . S
O4 C21 1.295 . S
O5 Fe0 1.997 . S
O5 C21 1.235 . S
O6 Fe0 2.002 . S
O6 C7 1.295 . S
C7 O6 1.295 . S
C7 O9 1.235 1_554 S
C8 O13 1.287 . S
C8 O14 1.255 . S
O9 Fe1 1.997 . S
O9 C7 1.235 1_556 S
C10 O16 1.287 . S
C10 O17 1.255 . S
O11 Fe0 1.976 . S
O11 C18 1.287 . S
O12 Fe1 1.996 . S
O12 C18 1.255 1_556 S
O13 Fe3 1.976 . S
O13 C8 1.287 . S
O14 Fe0 1.996 . S
O14 C8 1.255 . S
C15 O19 1.295 . S
C15 O20 1.235 . S
O16 Fe1 1.976 . S
O16 C10 1.287 . S
O17 Fe3 1.996 1_556 S
O17 C10 1.255 . S
C18 O11 1.287 . S
C18 O12 1.255 1_554 S
O19 Fe1 2.002 . S
O19 C15 1.295 . S
O20 Fe3 1.997 1_556 S
O20 C15 1.235 . S
C21 O4 1.295 . S
C21 O5 1.235 . S
Fe22 O24 1.918 . S
Fe22 O27 1.997 . S
Fe22 O28 2.002 . S
Fe22 O33 1.976 . S
Fe22 O36 1.996 . S
Fe23 O24 1.918 . S
Fe23 O31 1.997 . S
Fe23 O34 1.996 . S
Fe23 O38 1.976 . S
Fe23 O41 2.002 . S
O24 Fe22 1.918 . S
O24 Fe23 1.918 . S
O24 Fe25 1.918 . S
Fe25 O24 1.918 . S
Fe25 O26 2.002 . S
Fe25 O35 1.976 . S
Fe25 O39 1.996 . S
Fe25 O42 1.997 . S
O26 Fe25 2.002 . S
O26 C43 1.295 . S
O27 Fe22 1.997 . S
O27 C43 1.235 . S
O28 Fe22 2.002 . S
O28 C29 1.295 . S
C29 O28 1.295 . S
C29 O31 1.235 . S
C30 O35 1.287 . S
C30 O36 1.255 . S
O31 Fe23 1.997 . S
O31 C29 1.235 . S
C32 O38 1.287 . S
C32 O39 1.255 . S
O33 Fe22 1.976 . S
O33 C40 1.287 . S
O34 Fe23 1.996 . S
O34 C40 1.255 . S
O35 Fe25 1.976 . S
O35 C30 1.287 . S
O36 Fe22 1.996 . S
O36 C30 1.255 . S
C37 O41 1.295 . S
C37 O42 1.235 . S
O38 Fe23 1.976 . S
O38 C32 1.287 . S
O39 Fe25 1.996 . S
O39 C32 1.255 . S
C40 O33 1.287 . S
C40 O34 1.255 . S
O41 Fe23 2.002 . S
O41 C37 1.295 . S
O42 Fe25 1.997 . S
O42 C37 1.235 . S
C43 O26 1.295 . S
C43 O27 1.235 . S
Fe44 O46 1.918 1_556 S
Fe44 O49 1.997 . S
Fe44 O50 2.002 . S
Fe44 O55 1.976 . S
Fe44 O58 1.996 . S
Fe45 O46 1.918 . S
Fe45 O53 1.997 . S
Fe45 O56 1.996 . S
Fe45 O60 1.976 . S
Fe45 O63 2.002 . S
O46 Fe44 1.918 1_554 S
O46 Fe45 1.918 . S
O46 Fe47 1.918 . S
Fe47 O46 1.918 . S
Fe47 O48 2.002 1_554 S
Fe47 O57 1.976 1_554 S
Fe47 O61 1.996 . S
Fe47 O64 1.997 . S
O48 Fe47 2.002 1_556 S
O48 C65 1.295 . S
O49 Fe44 1.997 . S
O49 C65 1.235 . S
O50 Fe44 2.002 . S
O50 C51 1.295 1_556 S
C51 O50 1.295 1_554 S
C51 O53 1.235 . S
C52 O57 1.287 . S
C52 O58 1.255 . S
O53 Fe45 1.997 . S
O53 C51 1.235 . S
C54 O60 1.287 . S
C54 O61 1.255 . S
O55 Fe44 1.976 . S
O55 C62 1.287 1_556 S
O56 Fe45 1.996 . S
O56 C62 1.255 . S
O57 Fe47 1.976 1_556 S
O57 C52 1.287 . S
O58 Fe44 1.996 . S
O58 C52 1.255 . S
C59 O63 1.295 . S
C59 O64 1.235 . S
O60 Fe45 1.976 . S
O60 C54 1.287 . S
O61 Fe47 1.996 . S
O61 C54 1.255 . S
C62 O55 1.287 1_554 S
C62 O56 1.255 . S
O63 Fe45 2.002 . S
O63 C59 1.295 . S
O64 Fe47 1.997 . S
O64 C59 1.235 . S
C65 O48 1.295 . S
C65 O49 1.235 . S
Fe66 O68 1.918 . S
Fe66 O71 1.997 . S
Fe66 O72 2.002 . S
Fe66 O77 1.976 . S
Fe66 O80 1.996 . S
Fe67 O68 1.918 . S
Fe67 O75 1.997 . S
Fe67 O78 1.996 . S
Fe67 O82 1.976 . S
Fe67 O85 2.002 . S
O68 Fe66 1.918 . S
O68 Fe67 1.918 . S
O68 Fe69 1.918 . S
Fe69 O68 1.918 . S
Fe69 O70 2.002 . S
Fe69 O79 1.976 . S
Fe69 O83 1.996 . S
Fe69 O86 1.997 . S
O70 Fe69 2.002 . S
O70 C87 1.295 . S
O71 Fe66 1.997 . S
O71 C87 1.235 . S
O72 Fe66 2.002 . S
O72 C73 1.295 . S
C73 O72 1.295 . S
C73 O75 1.235 . S
C74 O79 1.287 . S
C74 O80 1.255 . S
O75 Fe67 1.997 . S
O75 C73 1.235 . S
C76 O82 1.287 . S
C76 O83 1.255 . S
O77 Fe66 1.976 . S
O77 C84 1.287 . S
O78 Fe67 1.996 . S
O78 C84 1.255 . S
O79 Fe69 1.976 . S
O79 C74 1.287 . S
O80 Fe66 1.996 . S
O80 C74 1.255 . S
C81 O85 1.295 . S
C81 O86 1.235 . S
O82 Fe67 1.976 . S
O82 C76 1.287 . S
O83 Fe69 1.996 . S
O83 C76 1.255 . S
C84 O77 1.287 . S
C84 O78 1.255 . S
O85 Fe67 2.002 . S
O85 C81 1.295 . S
O86 Fe69 1.997 . S
O86 C81 1.235 . S
C87 O70 1.295 . S
C87 O71 1.235 . S
P88 O99 1.490 . S
P88 C102 1.812 . S
P88 C108 1.803 . S
P88 C114 1.819 1_554 S
H89 C103 0.941 . S
H90 C104 0.939 . S
H91 C106 0.940 . S
H92 C107 0.940 . S
H93 C109 0.939 . S
H94 C110 0.942 . S
H95 C112 0.940 . S
H96 C113 0.939 . S
H97 C115 0.941 . S
H98 C119 0.939 . S
O99 P88 1.490 . S
H100 C116 0.939 . S
H101 C118 0.940 . S
C102 P88 1.812 . S
C102 C103 1.389 . S
C102 C107 1.391 . S
C103 H89 0.941 . S
C103 C102 1.389 . S
C103 C104 1.397 . S
C104 H90 0.939 . S
C104 C103 1.397 . S
C104 C105 1.378 . S
C105 C104 1.378 . S
C105 C106 1.378 . S
C106 H91 0.940 . S
C106 C105 1.378 . S
C106 C107 1.396 . S
C107 H92 0.940 . S
C107 C102 1.391 . S
C107 C106 1.396 . S
C108 P88 1.803 . S
C108 C109 1.378 1_554 S
C108 C113 1.400 . S
C109 H93 0.939 . S
C109 C108 1.378 1_556 S
C109 C110 1.361 . S
C110 H94 0.942 . S
C110 C109 1.361 . S
C110 C111 1.369 1_556 S
C111 C110 1.369 1_554 S
C111 C112 1.404 . S
C112 H95 0.940 . S
C112 C111 1.404 . S
C112 C113 1.389 . S
C113 H96 0.939 . S
C113 C108 1.400 . S
C113 C112 1.389 . S
C114 P88 1.819 1_556 S
C114 C115 1.391 . S
C114 C119 1.391 . S
C115 H97 0.941 . S
C115 C114 1.391 . S
C115 C116 1.396 . S
C116 H100 0.939 . S
C116 C115 1.396 . S
C116 C117 1.397 . S
C117 C116 1.397 . S
C117 C118 1.385 . S
C118 H101 0.940 . S
C118 C117 1.385 . S
C118 C119 1.388 . S
C119 H98 0.939 . S
C119 C114 1.391 . S
C119 C118 1.388 . S
P120 O131 1.490 . S
P120 C134 1.812 . S
P120 C140 1.803 1_655 S
P120 C146 1.819 . S
H121 C135 0.941 . S
H122 C136 0.939 . S
H123 C138 0.940 . S
H124 C139 0.940 . S
H125 C141 0.939 . S
H126 C142 0.942 . S
H127 C144 0.940 . S
H128 C145 0.938 1_655 S
H129 C147 0.941 . S
H130 C151 0.939 . S
O131 P120 1.490 . S
H132 C148 0.939 . S
H133 C150 0.940 . S
C134 P120 1.812 . S
C134 C135 1.389 . S
C134 C139 1.391 . S
C135 H121 0.941 . S
C135 C134 1.389 . S
C135 C136 1.397 . S
C136 H122 0.939 . S
C136 C135 1.397 . S
C136 C137 1.378 . S
C137 C136 1.378 . S
C137 C138 1.378 . S
C138 H123 0.940 . S
C138 C137 1.378 . S
C138 C139 1.396 . S
C139 H124 0.940 . S
C139 C134 1.391 . S
C139 C138 1.396 . S
C140 P120 1.803 1_455 S
C140 C141 1.378 . S
C140 C145 1.400 . S
C141 H125 0.939 . S
C141 C140 1.378 . S
C141 C142 1.361 . S
C142 H126 0.942 . S
C142 C141 1.361 . S
C142 C143 1.369 . S
C143 C142 1.369 . S
C143 C144 1.404 . S
C144 H127 0.940 . S
C144 C143 1.404 . S
C144 C145 1.389 . S
C145 H128 0.938 1_455 S
C145 C140 1.400 . S
C145 C144 1.389 . S
C146 P120 1.819 . S
C146 C147 1.391 . S
C146 C151 1.391 . S
C147 H129 0.941 . S
C147 C146 1.391 . S
C147 C148 1.396 . S
C148 H132 0.939 . S
C148 C147 1.396 . S
C148 C149 1.397 . S
C149 C148 1.397 . S
C149 C150 1.385 . S
C150 H133 0.940 . S
C150 C149 1.385 . S
C150 C151 1.388 . S
C151 H130 0.939 . S
C151 C146 1.391 . S
C151 C150 1.388 . S
P152 O163 1.490 . S
P152 C166 1.812 1_554 S
P152 C172 1.803 . S
P152 C178 1.819 . S
H153 C167 0.941 . S
H154 C168 0.939 . S
H155 C170 0.940 . S
H156 C171 0.940 . S
H157 C173 0.939 . S
H158 C174 0.942 . S
H159 C176 0.940 . S
H160 C177 0.939 . S
H161 C179 0.941 . S
H162 C183 0.939 . S
O163 P152 1.490 . S
H164 C180 0.939 . S
H165 C182 0.940 . S
C166 P152 1.812 1_556 S
C166 C167 1.389 . S
C166 C171 1.391 . S
C167 H153 0.941 . S
C167 C166 1.389 . S
C167 C168 1.397 . S
C168 H154 0.939 . S
C168 C167 1.397 . S
C168 C169 1.378 . S
C169 C168 1.378 . S
C169 C170 1.378 . S
C170 H155 0.940 . S
C170 C169 1.378 . S
C170 C171 1.396 . S
C171 H156 0.940 . S
C171 C166 1.391 . S
C171 C170 1.396 . S
C172 P152 1.803 . S
C172 C173 1.378 . S
C172 C177 1.400 1_554 S
C173 H157 0.939 . S
C173 C172 1.378 . S
C173 C174 1.361 . S
C174 H158 0.942 . S
C174 C173 1.361 . S
C174 C175 1.369 . S
C175 C174 1.369 . S
C175 C176 1.404 1_554 S
C176 H159 0.940 . S
C176 C175 1.404 1_556 S
C176 C177 1.389 . S
C177 H160 0.939 . S
C177 C172 1.400 1_556 S
C177 C176 1.389 . S
C178 P152 1.819 . S
C178 C179 1.391 . S
C178 C183 1.391 . S
C179 H161 0.941 . S
C179 C178 1.391 . S
C179 C180 1.396 . S
C180 H164 0.939 . S
C180 C179 1.396 . S
C180 C181 1.397 . S
C181 C180 1.397 . S
C181 C182 1.385 . S
C182 H165 0.940 . S
C182 C181 1.385 . S
C182 C183 1.388 . S
C183 H162 0.939 . S
C183 C178 1.391 . S
C183 C182 1.388 . S
P184 O195 1.490 . S
P184 C198 1.812 . S
P184 C204 1.747 1_455 S
P184 C210 1.819 . S
H185 C199 0.941 . S
H186 C200 0.939 . S
H187 C202 0.940 . S
H188 C203 0.940 . S
H189 C205 0.939 . S
H190 C206 0.942 . S
H191 C208 0.940 . S
H192 C209 0.939 . S
H193 C211 0.941 . S
H194 C215 0.939 . S
O195 P184 1.490 . S
H196 C212 0.939 . S
H197 C214 0.940 . S
C198 P184 1.812 . S
C198 C199 1.389 . S
C198 C203 1.391 . S
C199 H185 0.941 . S
C199 C198 1.389 . S
C199 C200 1.397 . S
C200 H186 0.939 . S
C200 C199 1.397 . S
C200 C201 1.378 . S
C201 C200 1.378 . S
C201 C202 1.378 . S
C202 H187 0.940 . S
C202 C201 1.378 . S
C202 C203 1.396 . S
C203 H188 0.940 . S
C203 C198 1.391 . S
C203 C202 1.396 . S
C204 P184 1.747 1_655 S
C204 C205 1.414 . S
C204 C209 1.425 . S
C205 H189 0.939 . S
C205 C204 1.414 . S
C205 C206 1.361 . S
C206 H190 0.942 . S
C206 C205 1.361 . S
C206 C207 1.369 . S
C207 C206 1.369 . S
C207 C208 1.404 . S
C208 H191 0.940 . S
C208 C207 1.404 . S
C208 C209 1.389 . S
C209 H192 0.939 . S
C209 C204 1.425 . S
C209 C208 1.389 . S
C210 P184 1.819 . S
C210 C211 1.391 . S
C210 C215 1.391 . S
C211 H193 0.941 . S
C211 C210 1.391 . S
C211 C212 1.396 . S
C212 H196 0.939 . S
C212 C211 1.396 . S
C212 C213 1.397 . S
C213 C212 1.397 . S
C213 C214 1.385 . S
C214 H197 0.940 . S
C214 C213 1.385 . S
C214 C215 1.388 . S
C215 H194 0.939 . S
C215 C210 1.391 . S
C215 C214 1.388 . S
P216 O227 1.490 . S
P216 C230 1.812 . S
P216 C236 1.803 1_565 S
P216 C242 1.819 . S
H217 C231 0.941 . S
H218 C232 0.939 . S
H219 C234 0.940 . S
H220 C235 0.940 . S
H221 C237 0.939 . S
H222 C238 0.942 . S
H223 C240 0.940 . S
H224 C241 0.939 . S
H225 C243 0.941 . S
H226 C247 0.939 1_545 S
O227 P216 1.490 . S
H228 C244 0.939 . S
H229 C246 0.940 . S
C230 P216 1.812 . S
C230 C231 1.389 . S
C230 C235 1.391 . S
C231 H217 0.941 . S
C231 C230 1.389 . S
C231 C232 1.397 . S
C232 H218 0.939 . S
C232 C231 1.397 . S
C232 C233 1.378 . S
C233 C232 1.378 . S
C233 C234 1.378 . S
C234 H219 0.940 . S
C234 C233 1.378 . S
C234 C235 1.396 . S
C235 H220 0.940 . S
C235 C230 1.391 . S
C235 C234 1.396 . S
C236 P216 1.803 1_545 S
C236 C237 1.378 . S
C236 C241 1.400 . S
C237 H221 0.939 . S
C237 C236 1.378 . S
C237 C238 1.361 . S
C238 H222 0.942 . S
C238 C237 1.361 . S
C238 C239 1.369 . S
C239 C238 1.369 . S
C239 C240 1.404 . S
C240 H223 0.940 . S
C240 C239 1.404 . S
C240 C241 1.389 . S
C241 H224 0.939 . S
C241 C236 1.400 . S
C241 C240 1.389 . S
C242 P216 1.819 . S
C242 C243 1.391 . S
C242 C247 1.391 . S
C243 H225 0.941 . S
C243 C242 1.391 . S
C243 C244 1.396 . S
C244 H228 0.939 . S
C244 C243 1.396 . S
C244 C245 1.397 . S
C245 C244 1.397 . S
C245 C246 1.385 . S
C246 H229 0.940 . S
C246 C245 1.385 . S
C246 C247 1.388 . S
C247 H226 0.939 1_565 S
C247 C242 1.391 . S
C247 C246 1.388 . S
P248 O259 1.491 . S
P248 C262 1.832 . S
P248 C268 1.804 . S
P248 C274 1.797 1_556 S
H249 C263 0.941 . S
H250 C264 0.939 . S
H251 C266 0.940 . S
H252 C267 0.940 . S
H253 C269 0.939 . S
H254 C270 0.942 . S
H255 C272 0.940 . S
H256 C273 0.939 . S
H257 C275 0.941 . S
H258 C279 0.939 . S
O259 P248 1.491 . S
H260 C276 0.939 . S
H261 C278 0.940 . S
C262 P248 1.832 . S
C262 C263 1.389 . S
C262 C267 1.391 . S
C263 H249 0.941 . S
C263 C262 1.389 . S
C263 C264 1.397 . S
C264 H250 0.939 . S
C264 C263 1.397 . S
C264 C265 1.378 . S
C265 C264 1.378 . S
C265 C266 1.378 . S
C266 H251 0.940 . S
C266 C265 1.378 . S
C266 C267 1.396 . S
C267 H252 0.940 . S
C267 C262 1.391 . S
C267 C266 1.396 . S
C268 P248 1.804 . S
C268 C269 1.378 1_556 S
C268 C273 1.400 . S
C269 H253 0.939 . S
C269 C268 1.378 1_554 S
C269 C270 1.361 . S
C270 H254 0.942 . S
C270 C269 1.361 . S
C270 C271 1.369 . S
C271 C270 1.369 . S
C271 C272 1.404 1_554 S
C272 H255 0.940 . S
C272 C271 1.404 1_556 S
C272 C273 1.389 . S
C273 H256 0.939 . S
C273 C268 1.400 . S
C273 C272 1.389 . S
C274 P248 1.797 1_554 S
C274 C275 1.391 . S
C274 C279 1.391 . S
C275 H257 0.941 . S
C275 C274 1.391 . S
C275 C276 1.396 . S
C276 H260 0.939 . S
C276 C275 1.396 . S
C276 C277 1.397 . S
C277 C276 1.397 . S
C277 C278 1.385 . S
C278 H261 0.940 . S
C278 C277 1.385 . S
C278 C279 1.388 . S
C279 H258 0.939 . S
C279 C274 1.391 . S
C279 C278 1.388 . S
P280 O291 1.490 . S
P280 C294 1.812 . S
P280 C300 1.803 1_545 S
P280 C306 1.819 . S
H281 C295 0.941 . S
H282 C296 0.939 . S
H283 C298 0.940 . S
H284 C299 0.940 . S
H285 C301 0.939 . S
H286 C302 0.942 . S
H287 C304 0.940 . S
H288 C305 0.939 . S
H289 C307 0.941 . S
H290 C311 0.939 . S
O291 P280 1.490 . S
H292 C308 0.939 . S
H293 C310 0.940 . S
C294 P280 1.812 . S
C294 C295 1.389 . S
C294 C299 1.391 . S
C295 H281 0.941 . S
C295 C294 1.389 . S
C295 C296 1.397 . S
C296 H282 0.939 . S
C296 C295 1.397 . S
C296 C297 1.378 . S
C297 C296 1.378 . S
C297 C298 1.378 . S
C298 H283 0.940 . S
C298 C297 1.378 . S
C298 C299 1.396 . S
C299 H284 0.940 . S
C299 C294 1.391 . S
C299 C298 1.396 . S
C300 P280 1.803 1_565 S
C300 C301 1.378 . S
C300 C305 1.400 . S
C301 H285 0.939 . S
C301 C300 1.378 . S
C301 C302 1.361 . S
C302 H286 0.942 . S
C302 C301 1.361 . S
C302 C303 1.369 . S
C303 C302 1.369 . S
C303 C304 1.404 . S
C304 H287 0.940 . S
C304 C303 1.404 . S
C304 C305 1.389 . S
C305 H288 0.939 . S
C305 C300 1.400 . S
C305 C304 1.389 . S
C306 P280 1.819 . S
C306 C307 1.391 . S
C306 C311 1.391 . S
C307 H289 0.941 . S
C307 C306 1.391 . S
C307 C308 1.396 . S
C308 H292 0.939 . S
C308 C307 1.396 . S
C308 C309 1.397 . S
C309 C308 1.397 . S
C309 C310 1.385 . S
C310 H293 0.940 . S
C310 C309 1.385 . S
C310 C311 1.388 . S
C311 H290 0.939 . S
C311 C306 1.391 . S
C311 C310 1.388 . S
P312 O323 1.490 . S
P312 C326 1.812 . S
P312 C332 1.803 . S
P312 C338 1.819 1_554 S
H313 C327 0.941 . S
H314 C328 0.939 . S
H315 C330 0.940 . S
H316 C331 0.940 . S
H317 C333 0.939 . S
H318 C334 0.942 . S
H319 C336 0.940 . S
H320 C337 0.939 . S
H321 C339 0.941 . S
H322 C343 0.939 . S
O323 P312 1.490 . S
H324 C340 0.939 . S
H325 C342 0.940 . S
C326 P312 1.812 . S
C326 C327 1.389 . S
C326 C331 1.391 . S
C327 H313 0.941 . S
C327 C326 1.389 . S
C327 C328 1.397 . S
C328 H314 0.939 . S
C328 C327 1.397 . S
C328 C329 1.378 . S
C329 C328 1.378 . S
C329 C330 1.378 . S
C330 H315 0.940 . S
C330 C329 1.378 . S
C330 C331 1.396 . S
C331 H316 0.940 . S
C331 C326 1.391 . S
C331 C330 1.396 . S
C332 P312 1.803 . S
C332 C333 1.378 1_554 S
C332 C337 1.400 . S
C333 H317 0.939 . S
C333 C332 1.378 1_556 S
C333 C334 1.361 . S
C334 H318 0.942 . S
C334 C333 1.361 . S
C334 C335 1.369 1_556 S
C335 C334 1.369 1_554 S
C335 C336 1.404 . S
C336 H319 0.940 . S
C336 C335 1.404 . S
C336 C337 1.389 . S
C337 H320 0.939 . S
C337 C332 1.400 . S
C337 C336 1.389 . S
C338 P312 1.819 1_556 S
C338 C339 1.391 . S
C338 C343 1.391 . S
C339 H321 0.941 . S
C339 C338 1.391 . S
C339 C340 1.396 . S
C340 H324 0.939 . S
C340 C339 1.396 . S
C340 C341 1.397 . S
C341 C340 1.397 . S
C341 C342 1.385 . S
C342 H325 0.940 . S
C342 C341 1.385 . S
C342 C343 1.388 . S
C343 H322 0.939 . S
C343 C338 1.391 . S
C343 C342 1.388 . S
H344 C362 0.951 . S
H345 C364 0.951 . S
H346 C366 0.950 . S
H347 C367 0.950 . S
H348 C369 0.950 . S
H349 C372 0.950 . S
H350 C373 0.950 . S
H351 C375 0.950 . S
H352 C376 0.950 . S
H353 C377 0.951 . S
H354 C379 0.951 . S
H355 C381 0.950 . S
H356 C382 0.950 . S
H357 C384 0.950 . S
H358 C387 0.950 . S
H359 C388 0.950 . S
H360 C390 0.950 . S
H361 C391 0.950 . S
C362 H344 0.951 . S
C362 C363 1.366 . S
C362 C364 1.388 . S
C363 C362 1.366 . S
C363 C367 1.385 . S
C364 H345 0.951 . S
C364 C362 1.388 . S
C364 C365 1.366 . S
C365 C364 1.366 . S
C365 C366 1.414 . S
C365 C368 1.499 . S
C366 H346 0.950 . S
C366 C365 1.414 . S
C366 C367 1.374 . S
C367 H347 0.950 . S
C367 C363 1.385 . S
C367 C366 1.374 . S
C368 C365 1.499 . S
C368 C369 1.373 . S
C368 C370 1.389 . S
C369 H348 0.950 . S
C369 C368 1.373 . S
C369 C385 1.377 . S
C370 C368 1.389 . S
C370 C371 1.524 . S
C370 C384 1.377 . S
C371 C370 1.524 . S
C371 C372 1.397 . S
C371 C376 1.363 . S
C372 H349 0.950 . S
C372 C371 1.397 . S
C372 C373 1.334 . S
C373 H350 0.950 . S
C373 C372 1.334 . S
C373 C374 1.287 . S
C374 C373 1.287 . S
C374 C375 1.524 . S
C374 H393 0.913 . S
C375 H351 0.950 . S
C375 C374 1.524 . S
C375 C376 1.415 . S
C376 H352 0.950 . S
C376 C371 1.363 . S
C376 C375 1.415 . S
C377 H353 0.951 . S
C377 C378 1.366 . S
C377 C379 1.388 . S
C378 C377 1.366 . S
C378 C382 1.385 . S
C379 H354 0.951 . S
C379 C377 1.388 . S
C379 C380 1.366 . S
C380 C379 1.366 . S
C380 C381 1.414 . S
C380 C383 1.499 . S
C381 H355 0.950 . S
C381 C380 1.414 . S
C381 C382 1.374 . S
C382 H356 0.950 . S
C382 C378 1.385 . S
C382 C381 1.374 . S
C383 C380 1.499 . S
C383 C384 1.373 . S
C383 C385 1.389 . S
C384 H357 0.950 . S
C384 C370 1.377 . S
C384 C383 1.373 . S
C385 C369 1.377 . S
C385 C383 1.389 . S
C385 C386 1.524 . S
C386 C385 1.524 . S
C386 C387 1.397 . S
C386 C391 1.363 . S
C387 H358 0.950 . S
C387 C386 1.397 . S
C387 C388 1.334 . S
C388 H359 0.950 . S
C388 C387 1.334 . S
C388 C389 1.287 . S
C389 C388 1.287 . S
C389 C390 1.524 . S
C389 H392 0.999 . S
C390 H360 0.950 . S
C390 C389 1.524 . S
C390 C391 1.415 . S
C391 H361 0.950 . S
C391 C386 1.363 . S
C391 C390 1.415 . S
H392 C389 0.999 . S
H393 C374 0.913 . S
H394 C412 0.951 . S
H395 C414 0.951 . S
H396 C416 0.950 . S
H397 C417 0.950 . S
H398 C419 0.950 . S
H399 C422 0.950 . S
H400 C423 0.950 . S
H401 C425 0.950 . S
H402 C426 0.950 . S
H403 C427 0.951 . S
H404 C429 0.951 . S
H405 C431 0.950 . S
H406 C432 0.950 . S
H407 C434 0.950 . S
H408 C437 0.950 . S
H409 C438 0.950 . S
H410 C440 0.950 . S
H411 C441 0.950 . S
C412 H394 0.951 . S
C412 C413 1.366 . S
C412 C414 1.388 . S
C413 C412 1.366 . S
C413 C417 1.385 . S
C414 H395 0.951 . S
C414 C412 1.388 . S
C414 C415 1.366 . S
C415 C414 1.366 . S
C415 C416 1.414 . S
C415 C418 1.499 . S
C416 H396 0.950 . S
C416 C415 1.414 . S
C416 C417 1.374 . S
C417 H397 0.950 . S
C417 C413 1.385 . S
C417 C416 1.374 . S
C418 C415 1.499 . S
C418 C419 1.373 . S
C418 C420 1.389 . S
C419 H398 0.950 . S
C419 C418 1.373 . S
C419 C435 1.377 . S
C420 C418 1.389 . S
C420 C421 1.524 . S
C420 C434 1.377 . S
C421 C420 1.524 . S
C421 C422 1.397 . S
C421 C426 1.363 . S
C422 H399 0.950 . S
C422 C421 1.397 . S
C422 C423 1.334 . S
C423 H400 0.950 . S
C423 C422 1.334 . S
C423 C424 1.287 . S
C424 C423 1.287 . S
C424 C425 1.524 . S
C424 H443 0.913 . S
C425 H401 0.950 . S
C425 C424 1.524 . S
C425 C426 1.415 . S
C426 H402 0.950 . S
C426 C421 1.363 . S
C426 C425 1.415 . S
C427 H403 0.951 . S
C427 C428 1.366 . S
C427 C429 1.388 . S
C428 C427 1.366 . S
C428 C432 1.385 . S
C429 H404 0.951 . S
C429 C427 1.388 . S
C429 C430 1.366 . S
C430 C429 1.366 . S
C430 C431 1.414 . S
C430 C433 1.499 . S
C431 H405 0.950 . S
C431 C430 1.414 . S
C431 C432 1.374 . S
C432 H406 0.950 . S
C432 C428 1.385 . S
C432 C431 1.374 . S
C433 C430 1.499 . S
C433 C434 1.373 . S
C433 C435 1.389 . S
C434 H407 0.950 . S
C434 C420 1.377 . S
C434 C433 1.373 . S
C435 C419 1.377 . S
C435 C433 1.389 . S
C435 C436 1.524 . S
C436 C435 1.524 . S
C436 C437 1.397 . S
C436 C441 1.363 . S
C437 H408 0.950 . S
C437 C436 1.397 . S
C437 C438 1.334 . S
C438 H409 0.950 . S
C438 C437 1.334 . S
C438 C439 1.287 . S
C439 C438 1.287 . S
C439 C440 1.524 . S
C439 H442 0.999 . S
C440 H410 0.950 . S
C440 C439 1.524 . S
C440 C441 1.415 . S
C441 H411 0.950 . S
C441 C436 1.363 . S
C441 C440 1.415 . S
H442 C439 0.999 . S
H443 C424 0.913 . S
H444 C462 0.951 . S
H445 C464 0.951 . S
H446 C466 0.950 . S
H447 C467 0.950 . S
H448 C469 0.950 . S
H449 C472 0.950 . S
H450 C473 0.950 . S
H451 C475 0.950 . S
H452 C476 0.950 . S
H453 C477 0.951 . S
H454 C479 0.951 . S
H455 C481 0.950 . S
H456 C482 0.950 . S
H457 C484 0.950 . S
H458 C487 0.950 . S
H459 C488 0.950 . S
H460 C490 0.950 . S
H461 C491 0.950 . S
C462 H444 0.951 . S
C462 C463 1.366 . S
C462 C464 1.388 . S
C463 C462 1.366 . S
C463 C467 1.385 . S
C464 H445 0.951 . S
C464 C462 1.388 . S
C464 C465 1.366 . S
C465 C464 1.366 . S
C465 C466 1.414 . S
C465 C468 1.499 . S
C466 H446 0.950 . S
C466 C465 1.414 . S
C466 C467 1.374 . S
C467 H447 0.950 . S
C467 C463 1.385 . S
C467 C466 1.374 . S
C468 C465 1.499 . S
C468 C469 1.373 . S
C468 C470 1.389 . S
C469 H448 0.950 . S
C469 C468 1.373 . S
C469 C485 1.377 . S
C470 C468 1.389 . S
C470 C471 1.524 . S
C470 C484 1.377 . S
C471 C470 1.524 . S
C471 C472 1.397 . S
C471 C476 1.363 . S
C472 H449 0.950 . S
C472 C471 1.397 . S
C472 C473 1.334 . S
C473 H450 0.950 . S
C473 C472 1.334 . S
C473 C474 1.287 . S
C474 C473 1.287 . S
C474 C475 1.524 . S
C474 H493 0.913 . S
C475 H451 0.950 . S
C475 C474 1.524 . S
C475 C476 1.415 . S
C476 H452 0.950 . S
C476 C471 1.363 . S
C476 C475 1.415 . S
C477 H453 0.951 . S
C477 C478 1.366 . S
C477 C479 1.388 . S
C478 C477 1.366 . S
C478 C482 1.385 . S
C479 H454 0.951 . S
C479 C477 1.388 . S
C479 C480 1.366 . S
C480 C479 1.366 . S
C480 C481 1.414 . S
C480 C483 1.499 . S
C481 H455 0.950 . S
C481 C480 1.414 . S
C481 C482 1.374 . S
C482 H456 0.950 . S
C482 C478 1.385 . S
C482 C481 1.374 . S
C483 C480 1.499 . S
C483 C484 1.373 . S
C483 C485 1.389 . S
C484 H457 0.950 . S
C484 C470 1.377 . S
C484 C483 1.373 . S
C485 C469 1.377 . S
C485 C483 1.389 . S
C485 C486 1.524 . S
C486 C485 1.524 . S
C486 C487 1.397 . S
C486 C491 1.363 . S
C487 H458 0.950 . S
C487 C486 1.397 . S
C487 C488 1.334 . S
C488 H459 0.950 . S
C488 C487 1.334 . S
C488 C489 1.287 . S
C489 C488 1.287 . S
C489 C490 1.524 . S
C489 H492 0.999 . S
C490 H460 0.950 . S
C490 C489 1.524 . S
C490 C491 1.415 . S
C491 H461 0.950 . S
C491 C486 1.363 . S
C491 C490 1.415 . S
H492 C489 0.999 . S
H493 C474 0.913 . S
H494 C512 0.951 . S
H495 C514 0.951 . S
H496 C516 0.950 . S
H497 C517 0.950 . S
H498 C519 0.950 . S
H499 C522 0.950 . S
H500 C523 0.950 . S
H501 C525 0.950 . S
H502 C526 0.950 . S
H503 C527 0.951 . S
H504 C529 0.951 . S
H505 C531 0.950 . S
H506 C532 0.950 . S
H507 C534 0.950 . S
H508 C537 0.950 . S
H509 C538 0.950 . S
H510 C540 0.950 . S
H511 C541 0.950 . S
C512 H494 0.951 . S
C512 C513 1.366 . S
C512 C514 1.388 . S
C513 C512 1.366 . S
C513 C517 1.385 . S
C514 H495 0.951 . S
C514 C512 1.388 . S
C514 C515 1.366 . S
C515 C514 1.366 . S
C515 C516 1.414 . S
C515 C518 1.499 . S
C516 H496 0.950 . S
C516 C515 1.414 . S
C516 C517 1.374 . S
C517 H497 0.950 . S
C517 C513 1.385 . S
C517 C516 1.374 . S
C518 C515 1.499 . S
C518 C519 1.373 . S
C518 C520 1.389 . S
C519 H498 0.950 . S
C519 C518 1.373 . S
C519 C535 1.377 . S
C520 C518 1.389 . S
C520 C521 1.524 . S
C520 C534 1.377 . S
C521 C520 1.524 . S
C521 C522 1.397 . S
C521 C526 1.363 . S
C522 H499 0.950 . S
C522 C521 1.397 . S
C522 C523 1.334 . S
C523 H500 0.950 . S
C523 C522 1.334 . S
C523 C524 1.287 . S
C524 C523 1.287 . S
C524 C525 1.524 . S
C524 H543 0.913 . S
C525 H501 0.950 . S
C525 C524 1.524 . S
C525 C526 1.415 . S
C526 H502 0.950 . S
C526 C521 1.363 . S
C526 C525 1.415 . S
C527 H503 0.951 . S
C527 C528 1.366 . S
C527 C529 1.388 . S
C528 C527 1.366 . S
C528 C532 1.385 . S
C529 H504 0.951 . S
C529 C527 1.388 . S
C529 C530 1.366 . S
C530 C529 1.366 . S
C530 C531 1.414 . S
C530 C533 1.499 . S
C531 H505 0.950 . S
C531 C530 1.414 . S
C531 C532 1.374 . S
C532 H506 0.950 . S
C532 C528 1.385 . S
C532 C531 1.374 . S
C533 C530 1.499 . S
C533 C534 1.373 . S
C533 C535 1.389 . S
C534 H507 0.950 . S
C534 C520 1.377 . S
C534 C533 1.373 . S
C535 C519 1.377 . S
C535 C533 1.389 . S
C535 C536 1.524 . S
C536 C535 1.524 . S
C536 C537 1.397 . S
C536 C541 1.363 . S
C537 H508 0.950 . S
C537 C536 1.397 . S
C537 C538 1.334 . S
C538 H509 0.950 . S
C538 C537 1.334 . S
C538 C539 1.287 . S
C539 C538 1.287 . S
C539 C540 1.524 . S
C539 H542 0.999 . S
C540 H510 0.950 . S
C540 C539 1.524 . S
C540 C541 1.415 . S
C541 H511 0.950 . S
C541 C536 1.363 . S
C541 C540 1.415 . S
H542 C539 0.999 . S
H543 C524 0.913 . S
H544 C562 0.951 . S
H545 C564 0.951 . S
H546 C566 0.950 . S
H547 C567 0.950 . S
H548 C569 0.950 . S
H549 C572 0.950 . S
H550 C573 0.950 . S
H551 C575 0.950 . S
H552 C576 0.950 . S
H553 C577 0.951 . S
H554 C579 0.951 . S
H555 C581 0.950 . S
H556 C582 0.950 . S
H557 C584 0.950 . S
H558 C587 0.950 . S
H559 C588 0.950 . S
H560 C590 0.950 . S
H561 C591 0.950 . S
C562 H544 0.951 . S
C562 C563 1.366 . S
C562 C564 1.388 . S
C563 C562 1.366 . S
C563 C567 1.385 . S
C564 H545 0.951 . S
C564 C562 1.388 . S
C564 C565 1.366 . S
C565 C564 1.366 . S
C565 C566 1.414 . S
C565 C568 1.499 . S
C566 H546 0.950 . S
C566 C565 1.414 . S
C566 C567 1.374 . S
C567 H547 0.950 . S
C567 C563 1.385 . S
C567 C566 1.374 . S
C568 C565 1.499 . S
C568 C569 1.373 . S
C568 C570 1.389 . S
C569 H548 0.950 . S
C569 C568 1.373 . S
C569 C585 1.377 . S
C570 C568 1.389 . S
C570 C571 1.524 . S
C570 C584 1.377 . S
C571 C570 1.524 . S
C571 C572 1.397 . S
C571 C576 1.363 . S
C572 H549 0.950 . S
C572 C571 1.397 . S
C572 C573 1.334 . S
C573 H550 0.950 . S
C573 C572 1.334 . S
C573 C574 1.287 . S
C574 C573 1.287 . S
C574 C575 1.524 . S
C574 H593 0.913 . S
C575 H551 0.950 . S
C575 C574 1.524 . S
C575 C576 1.415 . S
C576 H552 0.950 . S
C576 C571 1.363 . S
C576 C575 1.415 . S
C577 H553 0.951 . S
C577 C578 1.366 . S
C577 C579 1.388 . S
C578 C577 1.366 . S
C578 C582 1.385 . S
C579 H554 0.951 . S
C579 C577 1.388 . S
C579 C580 1.366 . S
C580 C579 1.366 . S
C580 C581 1.414 . S
C580 C583 1.499 . S
C581 H555 0.950 . S
C581 C580 1.414 . S
C581 C582 1.374 . S
C582 H556 0.950 . S
C582 C578 1.385 . S
C582 C581 1.374 . S
C583 C580 1.499 . S
C583 C584 1.373 . S
C583 C585 1.389 . S
C584 H557 0.950 . S
C584 C570 1.377 . S
C584 C583 1.373 . S
C585 C569 1.377 . S
C585 C583 1.389 . S
C585 C586 1.524 . S
C586 C585 1.524 . S
C586 C587 1.397 . S
C586 C591 1.363 . S
C587 H558 0.950 . S
C587 C586 1.397 . S
C587 C588 1.334 . S
C588 H559 0.950 . S
C588 C587 1.334 . S
C588 C589 1.287 . S
C589 C588 1.287 . S
C589 C590 1.524 . S
C589 H592 0.999 . S
C590 H560 0.950 . S
C590 C589 1.524 . S
C590 C591 1.415 . S
C591 H561 0.950 . S
C591 C586 1.363 . S
C591 C590 1.415 . S
H592 C589 0.999 . S
H593 C574 0.913 . S
H594 C612 0.951 . S
H595 C614 0.951 . S
H596 C616 0.950 . S
H597 C617 0.950 . S
H598 C619 0.950 . S
H599 C622 0.950 . S
H600 C623 0.950 . S
H601 C625 0.950 . S
H602 C626 0.950 . S
H603 C627 0.951 . S
H604 C629 0.951 . S
H605 C631 0.950 . S
H606 C632 0.950 . S
H607 C634 0.950 . S
H608 C637 0.950 . S
H609 C638 0.950 . S
H610 C640 0.950 . S
H611 C641 0.950 . S
C612 H594 0.951 . S
C612 C613 1.366 . S
C612 C614 1.388 . S
C613 C612 1.366 . S
C613 C617 1.385 . S
C614 H595 0.951 . S
C614 C612 1.388 . S
C614 C615 1.366 . S
C615 C614 1.366 . S
C615 C616 1.414 . S
C615 C618 1.499 . S
C616 H596 0.950 . S
C616 C615 1.414 . S
C616 C617 1.374 . S
C617 H597 0.950 . S
C617 C613 1.385 . S
C617 C616 1.374 . S
C618 C615 1.499 . S
C618 C619 1.373 . S
C618 C620 1.389 . S
C619 H598 0.950 . S
C619 C618 1.373 . S
C619 C635 1.377 . S
C620 C618 1.389 . S
C620 C621 1.524 . S
C620 C634 1.377 . S
C621 C620 1.524 . S
C621 C622 1.397 . S
C621 C626 1.363 . S
C622 H599 0.950 . S
C622 C621 1.397 . S
C622 C623 1.334 . S
C623 H600 0.950 . S
C623 C622 1.334 . S
C623 C624 1.287 . S
C624 C623 1.287 . S
C624 C625 1.524 . S
C624 H643 0.913 . S
C625 H601 0.950 . S
C625 C624 1.524 . S
C625 C626 1.415 . S
C626 H602 0.950 . S
C626 C621 1.363 . S
C626 C625 1.415 . S
C627 H603 0.951 . S
C627 C628 1.366 . S
C627 C629 1.388 . S
C628 C627 1.366 . S
C628 C632 1.385 . S
C629 H604 0.951 . S
C629 C627 1.388 . S
C629 C630 1.366 . S
C630 C629 1.366 . S
C630 C631 1.414 . S
C630 C633 1.499 . S
C631 H605 0.950 . S
C631 C630 1.414 . S
C631 C632 1.374 . S
C632 H606 0.950 . S
C632 C628 1.385 . S
C632 C631 1.374 . S
C633 C630 1.499 . S
C633 C634 1.373 . S
C633 C635 1.389 . S
C634 H607 0.950 . S
C634 C620 1.377 . S
C634 C633 1.373 . S
C635 C619 1.377 . S
C635 C633 1.389 . S
C635 C636 1.524 . S
C636 C635 1.524 . S
C636 C637 1.397 . S
C636 C641 1.363 . S
C637 H608 0.950 . S
C637 C636 1.397 . S
C637 C638 1.334 . S
C638 H609 0.950 . S
C638 C637 1.334 . S
C638 C639 1.287 . S
C639 C638 1.287 . S
C639 C640 1.524 . S
C639 H642 0.999 . S
C640 H610 0.950 . S
C640 C639 1.524 . S
C640 C641 1.415 . S
C641 H611 0.950 . S
C641 C636 1.363 . S
C641 C640 1.415 . S
H642 C639 0.999 . S
H643 C624 0.913 . S
H644 C662 0.951 . S
H645 C664 0.951 . S
H646 C666 0.950 . S
H647 C667 0.950 . S
H648 C669 0.950 . S
H649 C672 0.950 . S
H650 C673 0.950 . S
H651 C675 0.950 . S
H652 C676 0.950 . S
H653 C677 0.951 . S
H654 C679 0.951 . S
H655 C681 0.950 . S
H656 C682 0.950 . S
H657 C684 0.950 . S
H658 C687 0.950 . S
H659 C688 0.950 . S
H660 C690 0.950 . S
H661 C691 0.950 . S
C662 H644 0.951 . S
C662 C663 1.366 . S
C662 C664 1.388 . S
C663 C662 1.366 . S
C663 C667 1.385 . S
C664 H645 0.951 . S
C664 C662 1.388 . S
C664 C665 1.366 . S
C665 C664 1.366 . S
C665 C666 1.414 . S
C665 C668 1.499 . S
C666 H646 0.950 . S
C666 C665 1.414 . S
C666 C667 1.374 . S
C667 H647 0.950 . S
C667 C663 1.385 . S
C667 C666 1.374 . S
C668 C665 1.499 . S
C668 C669 1.373 . S
C668 C670 1.389 . S
C669 H648 0.950 . S
C669 C668 1.373 . S
C669 C685 1.377 . S
C670 C668 1.389 . S
C670 C671 1.524 . S
C670 C684 1.377 . S
C671 C670 1.524 . S
C671 C672 1.397 . S
C671 C676 1.363 . S
C672 H649 0.950 . S
C672 C671 1.397 . S
C672 C673 1.334 . S
C673 H650 0.950 . S
C673 C672 1.334 . S
C673 C674 1.287 . S
C674 C673 1.287 . S
C674 C675 1.524 . S
C674 H693 0.913 . S
C675 H651 0.950 . S
C675 C674 1.524 . S
C675 C676 1.415 . S
C676 H652 0.950 . S
C676 C671 1.363 . S
C676 C675 1.415 . S
C677 H653 0.951 . S
C677 C678 1.366 . S
C677 C679 1.388 . S
C678 C677 1.366 . S
C678 C682 1.385 . S
C679 H654 0.951 . S
C679 C677 1.388 . S
C679 C680 1.366 . S
C680 C679 1.366 . S
C680 C681 1.414 . S
C680 C683 1.499 . S
C681 H655 0.950 . S
C681 C680 1.414 . S
C681 C682 1.374 . S
C682 H656 0.950 . S
C682 C678 1.385 . S
C682 C681 1.374 . S
C683 C680 1.499 . S
C683 C684 1.373 . S
C683 C685 1.389 . S
C684 H657 0.950 . S
C684 C670 1.377 . S
C684 C683 1.373 . S
C685 C669 1.377 . S
C685 C683 1.389 . S
C685 C686 1.524 . S
C686 C685 1.524 . S
C686 C687 1.397 . S
C686 C691 1.363 . S
C687 H658 0.950 . S
C687 C686 1.397 . S
C687 C688 1.334 . S
C688 H659 0.950 . S
C688 C687 1.334 . S
C688 C689 1.287 . S
C689 C688 1.287 . S
C689 C690 1.524 . S
C689 H692 0.999 . S
C690 H660 0.950 . S
C690 C689 1.524 . S
C690 C691 1.415 . S
C691 H661 0.950 . S
C691 C686 1.363 . S
C691 C690 1.415 . S
H692 C689 0.999 . S
H693 C674 0.913 . S
H694 C712 0.951 . S
H695 C714 0.951 . S
H696 C716 0.950 . S
H697 C717 0.950 . S
H698 C719 0.950 . S
H699 C722 0.950 . S
H700 C723 0.950 . S
H701 C725 0.950 . S
H702 C726 0.950 . S
H703 C727 0.951 . S
H704 C729 0.951 . S
H705 C731 0.950 . S
H706 C732 0.950 . S
H707 C734 0.950 . S
H708 C737 0.950 . S
H709 C738 0.950 . S
H710 C740 0.950 . S
H711 C741 0.950 . S
C712 H694 0.951 . S
C712 C713 1.366 . S
C712 C714 1.388 . S
C713 C712 1.366 . S
C713 C717 1.385 . S
C714 H695 0.951 . S
C714 C712 1.388 . S
C714 C715 1.366 . S
C715 C714 1.366 . S
C715 C716 1.414 . S
C715 C718 1.499 . S
C716 H696 0.950 . S
C716 C715 1.414 . S
C716 C717 1.374 . S
C717 H697 0.950 . S
C717 C713 1.385 . S
C717 C716 1.374 . S
C718 C715 1.499 . S
C718 C719 1.373 . S
C718 C720 1.389 . S
C719 H698 0.950 . S
C719 C718 1.373 . S
C719 C735 1.377 . S
C720 C718 1.389 . S
C720 C721 1.524 . S
C720 C734 1.377 . S
C721 C720 1.524 . S
C721 C722 1.397 . S
C721 C726 1.363 . S
C722 H699 0.950 . S
C722 C721 1.397 . S
C722 C723 1.334 . S
C723 H700 0.950 . S
C723 C722 1.334 . S
C723 C724 1.287 . S
C724 C723 1.287 . S
C724 C725 1.524 . S
C724 H743 0.913 . S
C725 H701 0.950 . S
C725 C724 1.524 . S
C725 C726 1.415 . S
C726 H702 0.950 . S
C726 C721 1.363 . S
C726 C725 1.415 . S
C727 H703 0.951 . S
C727 C728 1.366 . S
C727 C729 1.388 . S
C728 C727 1.366 . S
C728 C732 1.385 . S
C729 H704 0.951 . S
C729 C727 1.388 . S
C729 C730 1.366 . S
C730 C729 1.366 . S
C730 C731 1.414 . S
C730 C733 1.499 . S
C731 H705 0.950 . S
C731 C730 1.414 . S
C731 C732 1.374 . S
C732 H706 0.950 . S
C732 C728 1.385 . S
C732 C731 1.374 . S
C733 C730 1.499 . S
C733 C734 1.373 . S
C733 C735 1.389 . S
C734 H707 0.950 . S
C734 C720 1.377 . S
C734 C733 1.373 . S
C735 C719 1.377 . S
C735 C733 1.389 . S
C735 C736 1.524 . S
C736 C735 1.524 . S
C736 C737 1.397 . S
C736 C741 1.363 . S
C737 H708 0.950 . S
C737 C736 1.397 . S
C737 C738 1.334 . S
C738 H709 0.950 . S
C738 C737 1.334 . S
C738 C739 1.287 . S
C739 C738 1.287 . S
C739 C740 1.524 . S
C739 H742 0.999 . S
C740 H710 0.950 . S
C740 C739 1.524 . S
C740 C741 1.415 . S
C741 H711 0.950 . S
C741 C736 1.363 . S
C741 C740 1.415 . S
H742 C739 0.999 . S
H743 C724 0.913 . S
H744 C762 0.951 . S
H745 C764 0.951 . S
H746 C766 0.950 . S
H747 C767 0.950 . S
H748 C769 0.950 . S
H749 C772 0.950 . S
H750 C773 0.950 . S
H751 C775 0.950 . S
H752 C776 0.950 . S
H753 C777 0.951 . S
H754 C779 0.951 . S
H755 C781 0.950 . S
H756 C782 0.950 . S
H757 C784 0.950 . S
H758 C787 0.950 . S
H759 C788 0.950 . S
H760 C790 0.950 . S
H761 C791 0.950 . S
C762 H744 0.951 . S
C762 C763 1.366 . S
C762 C764 1.388 . S
C763 C762 1.366 . S
C763 C767 1.385 . S
C764 H745 0.951 . S
C764 C762 1.388 . S
C764 C765 1.366 . S
C765 C764 1.366 . S
C765 C766 1.414 . S
C765 C768 1.499 . S
C766 H746 0.950 . S
C766 C765 1.414 . S
C766 C767 1.374 . S
C767 H747 0.950 . S
C767 C763 1.385 . S
C767 C766 1.374 . S
C768 C765 1.499 . S
C768 C769 1.373 . S
C768 C770 1.389 . S
C769 H748 0.950 . S
C769 C768 1.373 . S
C769 C785 1.377 . S
C770 C768 1.389 . S
C770 C771 1.524 . S
C770 C784 1.377 . S
C771 C770 1.524 . S
C771 C772 1.397 . S
C771 C776 1.363 . S
C772 H749 0.950 . S
C772 C771 1.397 . S
C772 C773 1.334 . S
C773 H750 0.950 . S
C773 C772 1.334 . S
C773 C774 1.287 . S
C774 C773 1.287 . S
C774 C775 1.524 . S
C774 H793 0.913 . S
C775 H751 0.950 . S
C775 C774 1.524 . S
C775 C776 1.415 . S
C776 H752 0.950 . S
C776 C771 1.363 . S
C776 C775 1.415 . S
C777 H753 0.951 . S
C777 C778 1.366 . S
C777 C779 1.388 . S
C778 C777 1.366 . S
C778 C782 1.385 . S
C779 H754 0.951 . S
C779 C777 1.388 . S
C779 C780 1.366 . S
C780 C779 1.366 . S
C780 C781 1.414 . S
C780 C783 1.499 . S
C781 H755 0.950 . S
C781 C780 1.414 . S
C781 C782 1.374 . S
C782 H756 0.950 . S
C782 C778 1.385 . S
C782 C781 1.374 . S
C783 C780 1.499 . S
C783 C784 1.373 . S
C783 C785 1.389 . S
C784 H757 0.950 . S
C784 C770 1.377 . S
C784 C783 1.373 . S
C785 C769 1.377 . S
C785 C783 1.389 . S
C785 C786 1.524 . S
C786 C785 1.524 . S
C786 C787 1.397 . S
C786 C791 1.363 . S
C787 H758 0.950 . S
C787 C786 1.397 . S
C787 C788 1.334 . S
C788 H759 0.950 . S
C788 C787 1.334 . S
C788 C789 1.287 . S
C789 C788 1.287 . S
C789 C790 1.524 . S
C789 H792 0.999 . S
C790 H760 0.950 . S
C790 C789 1.524 . S
C790 C791 1.415 . S
C791 H761 0.950 . S
C791 C786 1.363 . S
C791 C790 1.415 . S
H792 C789 0.999 . S
H793 C774 0.913 . S
H794 C812 0.951 . S
H795 C814 0.951 . S
H796 C816 0.950 . S
H797 C817 0.950 . S
H798 C819 0.950 . S
H799 C822 0.950 . S
H800 C823 0.950 . S
H801 C825 0.950 . S
H802 C826 0.950 . S
H803 C827 0.951 . S
H804 C829 0.951 . S
H805 C831 0.950 . S
H806 C832 0.950 . S
H807 C834 0.950 . S
H808 C837 0.950 . S
H809 C838 0.950 . S
H810 C840 0.950 . S
H811 C841 0.950 . S
C812 H794 0.951 . S
C812 C813 1.366 . S
C812 C814 1.388 . S
C813 C812 1.366 . S
C813 C817 1.385 . S
C814 H795 0.951 . S
C814 C812 1.388 . S
C814 C815 1.366 . S
C815 C814 1.366 . S
C815 C816 1.414 . S
C815 C818 1.499 . S
C816 H796 0.950 . S
C816 C815 1.414 . S
C816 C817 1.374 . S
C817 H797 0.950 . S
C817 C813 1.385 . S
C817 C816 1.374 . S
C818 C815 1.499 . S
C818 C819 1.373 . S
C818 C820 1.389 . S
C819 H798 0.950 . S
C819 C818 1.373 . S
C819 C835 1.377 . S
C820 C818 1.389 . S
C820 C821 1.524 . S
C820 C834 1.377 . S
C821 C820 1.524 . S
C821 C822 1.397 . S
C821 C826 1.363 . S
C822 H799 0.950 . S
C822 C821 1.397 . S
C822 C823 1.334 . S
C823 H800 0.950 . S
C823 C822 1.334 . S
C823 C824 1.287 . S
C824 C823 1.287 . S
C824 C825 1.524 . S
C824 H843 0.913 . S
C825 H801 0.950 . S
C825 C824 1.524 . S
C825 C826 1.415 . S
C826 H802 0.950 . S
C826 C821 1.363 . S
C826 C825 1.415 . S
C827 H803 0.951 . S
C827 C828 1.366 . S
C827 C829 1.388 . S
C828 C827 1.366 . S
C828 C832 1.385 . S
C829 H804 0.951 . S
C829 C827 1.388 . S
C829 C830 1.366 . S
C830 C829 1.366 . S
C830 C831 1.414 . S
C830 C833 1.499 . S
C831 H805 0.950 . S
C831 C830 1.414 . S
C831 C832 1.374 . S
C832 H806 0.950 . S
C832 C828 1.385 . S
C832 C831 1.374 . S
C833 C830 1.499 . S
C833 C834 1.373 . S
C833 C835 1.389 . S
C834 H807 0.950 . S
C834 C820 1.377 . S
C834 C833 1.373 . S
C835 C819 1.377 . S
C835 C833 1.389 . S
C835 C836 1.524 . S
C836 C835 1.524 . S
C836 C837 1.397 . S
C836 C841 1.363 . S
C837 H808 0.950 . S
C837 C836 1.397 . S
C837 C838 1.334 . S
C838 H809 0.950 . S
C838 C837 1.334 . S
C838 C839 1.287 . S
C839 C838 1.287 . S
C839 C840 1.524 . S
C839 H842 0.999 . S
C840 H810 0.950 . S
C840 C839 1.524 . S
C840 C841 1.415 . S
C841 H811 0.950 . S
C841 C836 1.363 . S
C841 C840 1.415 . S
H842 C839 0.999 . S
H843 C824 0.913 . S
H844 C862 0.951 . S
H845 C864 0.951 . S
H846 C866 0.950 . S
H847 C867 0.950 . S
H848 C869 0.950 . S
H849 C872 0.950 . S
H850 C873 0.950 . S
H851 C875 0.950 . S
H852 C876 0.950 . S
H853 C877 0.951 . S
H854 C879 0.951 . S
H855 C881 0.950 . S
H856 C882 0.950 . S
H857 C884 0.950 . S
H858 C887 0.950 . S
H859 C888 0.950 . S
H860 C890 0.950 . S
H861 C891 0.950 . S
C862 H844 0.951 . S
C862 C863 1.366 . S
C862 C864 1.388 . S
C863 C862 1.366 . S
C863 C867 1.385 . S
C864 H845 0.951 . S
C864 C862 1.388 . S
C864 C865 1.366 . S
C865 C864 1.366 . S
C865 C866 1.414 . S
C865 C868 1.499 . S
C866 H846 0.950 . S
C866 C865 1.414 . S
C866 C867 1.374 . S
C867 H847 0.950 . S
C867 C863 1.385 . S
C867 C866 1.374 . S
C868 C865 1.499 . S
C868 C869 1.373 . S
C868 C870 1.389 . S
C869 H848 0.950 . S
C869 C868 1.373 . S
C869 C885 1.377 . S
C870 C868 1.389 . S
C870 C871 1.524 . S
C870 C884 1.377 . S
C871 C870 1.524 . S
C871 C872 1.397 . S
C871 C876 1.363 . S
C872 H849 0.950 . S
C872 C871 1.397 . S
C872 C873 1.334 . S
C873 H850 0.950 . S
C873 C872 1.334 . S
C873 C874 1.287 . S
C874 C873 1.287 . S
C874 C875 1.524 . S
C874 H893 0.913 . S
C875 H851 0.950 . S
C875 C874 1.524 . S
C875 C876 1.415 . S
C876 H852 0.950 . S
C876 C871 1.363 . S
C876 C875 1.415 . S
C877 H853 0.951 . S
C877 C878 1.366 . S
C877 C879 1.388 . S
C878 C877 1.366 . S
C878 C882 1.385 . S
C879 H854 0.951 . S
C879 C877 1.388 . S
C879 C880 1.366 . S
C880 C879 1.366 . S
C880 C881 1.414 . S
C880 C883 1.499 . S
C881 H855 0.950 . S
C881 C880 1.414 . S
C881 C882 1.374 . S
C882 H856 0.950 . S
C882 C878 1.385 . S
C882 C881 1.374 . S
C883 C880 1.499 . S
C883 C884 1.373 . S
C883 C885 1.389 . S
C884 H857 0.950 . S
C884 C870 1.377 . S
C884 C883 1.373 . S
C885 C869 1.377 . S
C885 C883 1.389 . S
C885 C886 1.524 . S
C886 C885 1.524 . S
C886 C887 1.397 . S
C886 C891 1.363 . S
C887 H858 0.950 . S
C887 C886 1.397 . S
C887 C888 1.334 . S
C888 H859 0.950 . S
C888 C887 1.334 . S
C888 C889 1.287 . S
C889 C888 1.287 . S
C889 C890 1.524 . S
C889 H892 0.999 . S
C890 H860 0.950 . S
C890 C889 1.524 . S
C890 C891 1.415 . S
C891 H861 0.950 . S
C891 C886 1.363 . S
C891 C890 1.415 . S
H892 C889 0.999 . S
H893 C874 0.913 . S
H894 C912 0.951 . S
H895 C914 0.951 . S
H896 C916 0.950 . S
H897 C917 0.950 . S
H898 C919 0.950 . S
H899 C922 0.950 . S
H900 C923 0.950 . S
H901 C925 0.950 . S
H902 C926 0.950 . S
H903 C927 0.951 . S
H904 C929 0.951 . S
H905 C931 0.950 . S
H906 C932 0.950 . S
H907 C934 0.950 . S
H908 C937 0.950 . S
H909 C938 0.950 . S
H910 C940 0.950 . S
H911 C941 0.950 . S
C912 H894 0.951 . S
C912 C913 1.366 . S
C912 C914 1.388 . S
C913 C912 1.366 . S
C913 C917 1.385 . S
C914 H895 0.951 . S
C914 C912 1.388 . S
C914 C915 1.366 . S
C915 C914 1.366 . S
C915 C916 1.414 . S
C915 C918 1.499 . S
C916 H896 0.950 . S
C916 C915 1.414 . S
C916 C917 1.374 . S
C917 H897 0.950 . S
C917 C913 1.385 . S
C917 C916 1.374 . S
C918 C915 1.499 . S
C918 C919 1.373 . S
C918 C920 1.389 . S
C919 H898 0.950 . S
C919 C918 1.373 . S
C919 C935 1.377 . S
C920 C918 1.389 . S
C920 C921 1.524 . S
C920 C934 1.377 . S
C921 C920 1.524 . S
C921 C922 1.397 . S
C921 C926 1.363 . S
C922 H899 0.950 . S
C922 C921 1.397 . S
C922 C923 1.334 . S
C923 H900 0.950 . S
C923 C922 1.334 . S
C923 C924 1.287 . S
C924 C923 1.287 . S
C924 C925 1.524 . S
C924 H943 0.913 . S
C925 H901 0.950 . S
C925 C924 1.524 . S
C925 C926 1.415 . S
C926 H902 0.950 . S
C926 C921 1.363 . S
C926 C925 1.415 . S
C927 H903 0.951 . S
C927 C928 1.366 . S
C927 C929 1.388 . S
C928 C927 1.366 . S
C928 C932 1.385 . S
C929 H904 0.951 . S
C929 C927 1.388 . S
C929 C930 1.366 . S
C930 C929 1.366 . S
C930 C931 1.414 . S
C930 C933 1.499 . S
C931 H905 0.950 . S
C931 C930 1.414 . S
C931 C932 1.374 . S
C932 H906 0.950 . S
C932 C928 1.385 . S
C932 C931 1.374 . S
C933 C930 1.499 . S
C933 C934 1.373 . S
C933 C935 1.389 . S
C934 H907 0.950 . S
C934 C920 1.377 . S
C934 C933 1.373 . S
C935 C919 1.377 . S
C935 C933 1.389 . S
C935 C936 1.524 . S
C936 C935 1.524 . S
C936 C937 1.397 . S
C936 C941 1.363 . S
C937 H908 0.950 . S
C937 C936 1.397 . S
C937 C938 1.334 . S
C938 H909 0.950 . S
C938 C937 1.334 . S
C938 C939 1.287 . S
C939 C938 1.287 . S
C939 C940 1.524 . S
C939 H942 0.999 . S
C940 H910 0.950 . S
C940 C939 1.524 . S
C940 C941 1.415 . S
C941 H911 0.950 . S
C941 C936 1.363 . S
C941 C940 1.415 . S
H942 C939 0.999 . S
H943 C924 0.913 . S
H944 C962 0.951 . S
H945 C964 0.951 . S
H946 C966 0.950 . S
H947 C967 0.950 . S
H948 C969 0.950 . S
H949 C972 0.950 . S
H950 C973 0.950 . S
H951 C975 0.950 . S
H952 C976 0.950 . S
H953 C977 0.951 . S
H954 C979 0.951 . S
H955 C981 0.950 . S
H956 C982 0.950 . S
H957 C984 0.950 . S
H958 C987 0.950 . S
H959 C988 0.950 . S
H960 C990 0.950 . S
H961 C991 0.950 . S
C962 H944 0.951 . S
C962 C963 1.366 . S
C962 C964 1.388 . S
C963 C962 1.366 . S
C963 C967 1.385 . S
C964 H945 0.951 . S
C964 C962 1.388 . S
C964 C965 1.366 . S
C965 C964 1.366 . S
C965 C966 1.414 . S
C965 C968 1.499 . S
C966 H946 0.950 . S
C966 C965 1.414 . S
C966 C967 1.374 . S
C967 H947 0.950 . S
C967 C963 1.385 . S
C967 C966 1.374 . S
C968 C965 1.499 . S
C968 C969 1.373 . S
C968 C970 1.389 . S
C969 H948 0.950 . S
C969 C968 1.373 . S
C969 C985 1.377 . S
C970 C968 1.389 . S
C970 C971 1.524 . S
C970 C984 1.377 . S
C971 C970 1.524 . S
C971 C972 1.397 . S
C971 C976 1.363 . S
C972 H949 0.950 . S
C972 C971 1.397 . S
C972 C973 1.334 . S
C973 H950 0.950 . S
C973 C972 1.334 . S
C973 C974 1.287 . S
C974 C973 1.287 . S
C974 C975 1.524 . S
C974 H993 0.913 . S
C975 H951 0.950 . S
C975 C974 1.524 . S
C975 C976 1.415 . S
C976 H952 0.950 . S
C976 C971 1.363 . S
C976 C975 1.415 . S
C977 H953 0.951 . S
C977 C978 1.366 . S
C977 C979 1.388 . S
C978 C977 1.366 . S
C978 C982 1.385 . S
C979 H954 0.951 . S
C979 C977 1.388 . S
C979 C980 1.366 . S
C980 C979 1.366 . S
C980 C981 1.414 . S
C980 C983 1.499 . S
C981 H955 0.950 . S
C981 C980 1.414 . S
C981 C982 1.374 . S
C982 H956 0.950 . S
C982 C978 1.385 . S
C982 C981 1.374 . S
C983 C980 1.499 . S
C983 C984 1.373 . S
C983 C985 1.389 . S
C984 H957 0.950 . S
C984 C970 1.377 . S
C984 C983 1.373 . S
C985 C969 1.377 . S
C985 C983 1.389 . S
C985 C986 1.524 . S
C986 C985 1.524 . S
C986 C987 1.397 . S
C986 C991 1.363 . S
C987 H958 0.950 . S
C987 C986 1.397 . S
C987 C988 1.334 . S
C988 H959 0.950 . S
C988 C987 1.334 . S
C988 C989 1.287 . S
C989 C988 1.287 . S
C989 C990 1.524 . S
C989 H992 0.999 . S
C990 H960 0.950 . S
C990 C989 1.524 . S
C990 C991 1.415 . S
C991 H961 0.950 . S
C991 C986 1.363 . S
C991 C990 1.415 . S
H992 C989 0.999 . S
H993 C974 0.913 . S
H994 C1012 0.951 . S
H995 C1014 0.951 . S
H996 C1016 0.950 . S
H997 C1017 0.950 . S
H998 C1019 0.950 . S
H999 C1022 0.950 . S
H1000 C1023 0.950 . S
H1001 C1025 0.950 . S
H1002 C1026 0.950 . S
H1003 C1027 0.951 . S
H1004 C1029 0.951 . S
H1005 C1031 0.950 . S
H1006 C1032 0.950 . S
H1007 C1034 0.950 . S
H1008 C1037 0.950 . S
H1009 C1038 0.950 . S
H1010 C1040 0.950 . S
H1011 C1041 0.950 . S
C1012 H994 0.951 . S
C1012 C1013 1.366 . S
C1012 C1014 1.388 . S
C1013 C1012 1.366 . S
C1013 C1017 1.385 . S
C1014 H995 0.951 . S
C1014 C1012 1.388 . S
C1014 C1015 1.366 . S
C1015 C1014 1.366 . S
C1015 C1016 1.414 . S
C1015 C1018 1.499 . S
C1016 H996 0.950 . S
C1016 C1015 1.414 . S
C1016 C1017 1.374 . S
C1017 H997 0.950 . S
C1017 C1013 1.385 . S
C1017 C1016 1.374 . S
C1018 C1015 1.499 . S
C1018 C1019 1.373 . S
C1018 C1020 1.389 . S
C1019 H998 0.950 . S
C1019 C1018 1.373 . S
C1019 C1035 1.377 . S
C1020 C1018 1.389 . S
C1020 C1021 1.524 . S
C1020 C1034 1.377 . S
C1021 C1020 1.524 . S
C1021 C1022 1.397 . S
C1021 C1026 1.363 . S
C1022 H999 0.950 . S
C1022 C1021 1.397 . S
C1022 C1023 1.334 . S
C1023 H1000 0.950 . S
C1023 C1022 1.334 . S
C1023 C1024 1.287 . S
C1024 C1023 1.287 . S
C1024 C1025 1.524 . S
C1024 H1043 0.913 . S
C1025 H1001 0.950 . S
C1025 C1024 1.524 . S
C1025 C1026 1.415 . S
C1026 H1002 0.950 . S
C1026 C1021 1.363 . S
C1026 C1025 1.415 . S
C1027 H1003 0.951 . S
C1027 C1028 1.366 . S
C1027 C1029 1.388 . S
C1028 C1027 1.366 . S
C1028 C1032 1.385 . S
C1029 H1004 0.951 . S
C1029 C1027 1.388 . S
C1029 C1030 1.366 . S
C1030 C1029 1.366 . S
C1030 C1031 1.414 . S
C1030 C1033 1.499 . S
C1031 H1005 0.950 . S
C1031 C1030 1.414 . S
C1031 C1032 1.374 . S
C1032 H1006 0.950 . S
C1032 C1028 1.385 . S
C1032 C1031 1.374 . S
C1033 C1030 1.499 . S
C1033 C1034 1.373 . S
C1033 C1035 1.389 . S
C1034 H1007 0.950 . S
C1034 C1020 1.377 . S
C1034 C1033 1.373 . S
C1035 C1019 1.377 . S
C1035 C1033 1.389 . S
C1035 C1036 1.524 . S
C1036 C1035 1.524 . S
C1036 C1037 1.397 . S
C1036 C1041 1.363 . S
C1037 H1008 0.950 . S
C1037 C1036 1.397 . S
C1037 C1038 1.334 . S
C1038 H1009 0.950 . S
C1038 C1037 1.334 . S
C1038 C1039 1.287 . S
C1039 C1038 1.287 . S
C1039 C1040 1.524 . S
C1039 H1042 0.999 . S
C1040 H1010 0.950 . S
C1040 C1039 1.524 . S
C1040 C1041 1.415 . S
C1041 H1011 0.950 . S
C1041 C1036 1.363 . S
C1041 C1040 1.415 . S
H1042 C1039 0.999 . S
H1043 C1024 0.913 . S
H1044 C1062 0.951 . S
H1045 C1064 0.951 . S
H1046 C1066 0.950 . S
H1047 C1067 0.950 . S
H1048 C1069 0.950 . S
H1049 C1072 0.950 . S
H1050 C1073 0.950 . S
H1051 C1075 0.950 . S
H1052 C1076 0.950 . S
H1053 C1077 0.951 . S
H1054 C1079 0.951 . S
H1055 C1081 0.950 . S
H1056 C1082 0.950 . S
H1057 C1084 0.950 . S
H1058 C1087 0.950 . S
H1059 C1088 0.950 . S
H1060 C1090 0.950 . S
H1061 C1091 0.950 . S
C1062 H1044 0.951 . S
C1062 C1063 1.366 . S
C1062 C1064 1.388 . S
C1063 C1062 1.366 . S
C1063 C1067 1.385 . S
C1064 H1045 0.951 . S
C1064 C1062 1.388 . S
C1064 C1065 1.366 . S
C1065 C1064 1.366 . S
C1065 C1066 1.414 . S
C1065 C1068 1.499 . S
C1066 H1046 0.950 . S
C1066 C1065 1.414 . S
C1066 C1067 1.374 . S
C1067 H1047 0.950 . S
C1067 C1063 1.385 . S
C1067 C1066 1.374 . S
C1068 C1065 1.499 . S
C1068 C1069 1.373 . S
C1068 C1070 1.389 . S
C1069 H1048 0.950 . S
C1069 C1068 1.373 . S
C1069 C1085 1.377 . S
C1070 C1068 1.389 . S
C1070 C1071 1.524 . S
C1070 C1084 1.377 . S
C1071 C1070 1.524 . S
C1071 C1072 1.397 . S
C1071 C1076 1.363 . S
C1072 H1049 0.950 . S
C1072 C1071 1.397 . S
C1072 C1073 1.334 . S
C1073 H1050 0.950 . S
C1073 C1072 1.334 . S
C1073 C1074 1.287 . S
C1074 C1073 1.287 . S
C1074 C1075 1.524 . S
C1074 H1093 0.913 . S
C1075 H1051 0.950 . S
C1075 C1074 1.524 . S
C1075 C1076 1.415 . S
C1076 H1052 0.950 . S
C1076 C1071 1.363 . S
C1076 C1075 1.415 . S
C1077 H1053 0.951 . S
C1077 C1078 1.366 . S
C1077 C1079 1.388 . S
C1078 C1077 1.366 . S
C1078 C1082 1.385 . S
C1079 H1054 0.951 . S
C1079 C1077 1.388 . S
C1079 C1080 1.366 . S
C1080 C1079 1.366 . S
C1080 C1081 1.414 . S
C1080 C1083 1.499 . S
C1081 H1055 0.950 . S
C1081 C1080 1.414 . S
C1081 C1082 1.374 . S
C1082 H1056 0.950 . S
C1082 C1078 1.385 . S
C1082 C1081 1.374 . S
C1083 C1080 1.499 . S
C1083 C1084 1.373 . S
C1083 C1085 1.389 . S
C1084 H1057 0.950 . S
C1084 C1070 1.377 . S
C1084 C1083 1.373 . S
C1085 C1069 1.377 . S
C1085 C1083 1.389 . S
C1085 C1086 1.524 . S
C1086 C1085 1.524 . S
C1086 C1087 1.397 . S
C1086 C1091 1.363 . S
C1087 H1058 0.950 . S
C1087 C1086 1.397 . S
C1087 C1088 1.334 . S
C1088 H1059 0.950 . S
C1088 C1087 1.334 . S
C1088 C1089 1.287 . S
C1089 C1088 1.287 . S
C1089 C1090 1.524 . S
C1089 H1092 0.999 . S
C1090 H1060 0.950 . S
C1090 C1089 1.524 . S
C1090 C1091 1.415 . S
C1091 H1061 0.950 . S
C1091 C1086 1.363 . S
C1091 C1090 1.415 . S
H1092 C1089 0.999 . S
H1093 C1074 0.913 . S
H1094 C1112 0.951 . S
H1095 C1114 0.951 . S
H1096 C1116 0.950 . S
H1097 C1117 0.950 . S
H1098 C1119 0.950 . S
H1099 C1122 0.950 . S
H1100 C1123 0.950 . S
H1101 C1125 0.950 . S
H1102 C1126 0.950 . S
H1103 C1127 0.951 . S
H1104 C1129 0.951 . S
H1105 C1131 0.950 . S
H1106 C1132 0.950 . S
H1107 C1134 0.950 . S
H1108 C1137 0.950 . S
H1109 C1138 0.950 . S
H1110 C1140 0.950 . S
H1111 C1141 0.950 . S
C1112 H1094 0.951 . S
C1112 C1113 1.366 . S
C1112 C1114 1.388 . S
C1113 C1112 1.366 . S
C1113 C1117 1.385 . S
C1114 H1095 0.951 . S
C1114 C1112 1.388 . S
C1114 C1115 1.366 . S
C1115 C1114 1.366 . S
C1115 C1116 1.414 . S
C1115 C1118 1.499 . S
C1116 H1096 0.950 . S
C1116 C1115 1.414 . S
C1116 C1117 1.374 . S
C1117 H1097 0.950 . S
C1117 C1113 1.385 . S
C1117 C1116 1.374 . S
C1118 C1115 1.499 . S
C1118 C1119 1.373 . S
C1118 C1120 1.389 . S
C1119 H1098 0.950 . S
C1119 C1118 1.373 . S
C1119 C1135 1.377 . S
C1120 C1118 1.389 . S
C1120 C1121 1.524 . S
C1120 C1134 1.377 . S
C1121 C1120 1.524 . S
C1121 C1122 1.397 . S
C1121 C1126 1.363 . S
C1122 H1099 0.950 . S
C1122 C1121 1.397 . S
C1122 C1123 1.334 . S
C1123 H1100 0.950 . S
C1123 C1122 1.334 . S
C1123 C1124 1.287 . S
C1124 C1123 1.287 . S
C1124 C1125 1.524 . S
C1124 H1143 0.913 . S
C1125 H1101 0.950 . S
C1125 C1124 1.524 . S
C1125 C1126 1.415 . S
C1126 H1102 0.950 . S
C1126 C1121 1.363 . S
C1126 C1125 1.415 . S
C1127 H1103 0.951 . S
C1127 C1128 1.366 . S
C1127 C1129 1.388 . S
C1128 C1127 1.366 . S
C1128 C1132 1.385 . S
C1129 H1104 0.951 . S
C1129 C1127 1.388 . S
C1129 C1130 1.366 . S
C1130 C1129 1.366 . S
C1130 C1131 1.414 . S
C1130 C1133 1.499 . S
C1131 H1105 0.950 . S
C1131 C1130 1.414 . S
C1131 C1132 1.374 . S
C1132 H1106 0.950 . S
C1132 C1128 1.385 . S
C1132 C1131 1.374 . S
C1133 C1130 1.499 . S
C1133 C1134 1.373 . S
C1133 C1135 1.389 . S
C1134 H1107 0.950 . S
C1134 C1120 1.377 . S
C1134 C1133 1.373 . S
C1135 C1119 1.377 . S
C1135 C1133 1.389 . S
C1135 C1136 1.524 . S
C1136 C1135 1.524 . S
C1136 C1137 1.397 . S
C1136 C1141 1.363 . S
C1137 H1108 0.950 . S
C1137 C1136 1.397 . S
C1137 C1138 1.334 . S
C1138 H1109 0.950 . S
C1138 C1137 1.334 . S
C1138 C1139 1.287 . S
C1139 C1138 1.287 . S
C1139 C1140 1.524 . S
C1139 H1142 0.999 . S
C1140 H1110 0.950 . S
C1140 C1139 1.524 . S
C1140 C1141 1.415 . S
C1141 H1111 0.950 . S
C1141 C1136 1.363 . S
C1141 C1140 1.415 . S
H1142 C1139 0.999 . S
H1143 C1124 0.913 . S
H1144 C1162 0.951 . S
H1145 C1164 0.951 . S
H1146 C1166 0.950 . S
H1147 C1167 0.950 . S
H1148 C1169 0.950 . S
H1149 C1172 0.942 1_556 S
H1150 C1173 0.950 . S
H1151 C1175 0.950 . S
H1152 C1176 0.950 . S
H1153 C1177 0.951 . S
H1154 C1179 0.951 . S
H1155 C1181 0.950 . S
H1156 C1182 0.950 . S
H1157 C1184 0.950 . S
H1158 C1187 0.950 1_554 S
H1159 C1188 0.950 . S
H1160 C1190 0.950 . S
H1161 C1191 0.950 . S
C1162 H1144 0.951 . S
C1162 C1163 1.366 . S
C1162 C1164 1.388 . S
C1163 C1162 1.366 . S
C1163 C1167 1.385 1_554 S
C1164 H1145 0.951 . S
C1164 C1162 1.388 . S
C1164 C1165 1.366 . S
C1165 C1164 1.366 . S
C1165 C1166 1.414 1_554 S
C1165 C1168 1.499 . S
C1166 H1146 0.950 . S
C1166 C1165 1.414 1_556 S
C1166 C1167 1.374 . S
C1167 H1147 0.950 . S
C1167 C1163 1.385 1_556 S
C1167 C1166 1.374 . S
C1168 C1165 1.499 . S
C1168 C1169 1.373 1_554 S
C1168 C1170 1.389 . S
C1169 H1148 0.950 . S
C1169 C1168 1.373 1_556 S
C1169 C1185 1.377 . S
C1170 C1168 1.389 . S
C1170 C1171 1.524 . S
C1170 C1184 1.377 . S
C1171 C1170 1.524 . S
C1171 C1172 1.397 . S
C1171 C1176 1.363 . S
C1172 H1149 0.942 1_554 S
C1172 C1171 1.397 . S
C1172 C1173 1.334 . S
C1173 H1150 0.950 . S
C1173 C1172 1.334 . S
C1173 C1174 1.287 . S
C1174 C1173 1.287 . S
C1174 C1175 1.524 . S
C1174 H1193 0.913 . S
C1175 H1151 0.950 . S
C1175 C1174 1.524 . S
C1175 C1176 1.415 . S
C1176 H1152 0.950 . S
C1176 C1171 1.363 . S
C1176 C1175 1.415 . S
C1177 H1153 0.951 . S
C1177 C1178 1.366 1_556 S
C1177 C1179 1.388 . S
C1178 C1177 1.366 1_554 S
C1178 C1182 1.385 . S
C1179 H1154 0.951 . S
C1179 C1177 1.388 . S
C1179 C1180 1.366 1_556 S
C1180 C1179 1.366 1_554 S
C1180 C1181 1.414 . S
C1180 C1183 1.499 . S
C1181 H1155 0.950 . S
C1181 C1180 1.414 . S
C1181 C1182 1.374 . S
C1182 H1156 0.950 . S
C1182 C1178 1.385 . S
C1182 C1181 1.374 . S
C1183 C1180 1.499 . S
C1183 C1184 1.373 . S
C1183 C1185 1.389 1_554 S
C1184 H1157 0.950 . S
C1184 C1170 1.377 . S
C1184 C1183 1.373 . S
C1185 C1169 1.377 . S
C1185 C1183 1.389 1_556 S
C1185 C1186 1.524 . S
C1186 C1185 1.524 . S
C1186 C1187 1.397 . S
C1186 C1191 1.363 . S
C1187 H1158 0.950 1_556 S
C1187 C1186 1.397 . S
C1187 C1188 1.334 . S
C1188 H1159 0.950 . S
C1188 C1187 1.334 . S
C1188 C1189 1.287 . S
C1189 C1188 1.287 . S
C1189 C1190 1.524 . S
C1189 H1192 0.999 . S
C1190 H1160 0.950 . S
C1190 C1189 1.524 . S
C1190 C1191 1.415 . S
C1191 H1161 0.950 . S
C1191 C1186 1.363 . S
C1191 C1190 1.415 . S
H1192 C1189 0.999 . S
H1193 C1174 0.913 . S
H1194 C1212 0.951 . S
H1195 C1214 0.951 . S
H1196 C1216 0.950 . S
H1197 C1217 0.950 . S
H1198 C1219 0.950 . S
H1199 C1222 0.950 . S
H1200 C1223 0.950 . S
H1201 C1225 0.950 . S
H1202 C1226 0.950 . S
H1203 C1227 0.951 . S
H1204 C1229 0.951 . S
H1205 C1231 0.950 . S
H1206 C1232 0.950 . S
H1207 C1234 0.950 . S
H1208 C1237 0.950 . S
H1209 C1238 0.950 . S
H1210 C1240 0.950 . S
H1211 C1241 0.950 . S
C1212 H1194 0.951 . S
C1212 C1213 1.366 . S
C1212 C1214 1.388 . S
C1213 C1212 1.366 . S
C1213 C1217 1.385 . S
C1214 H1195 0.951 . S
C1214 C1212 1.388 . S
C1214 C1215 1.366 . S
C1215 C1214 1.366 . S
C1215 C1216 1.414 . S
C1215 C1218 1.499 . S
C1216 H1196 0.950 . S
C1216 C1215 1.414 . S
C1216 C1217 1.374 . S
C1217 H1197 0.950 . S
C1217 C1213 1.385 . S
C1217 C1216 1.374 . S
C1218 C1215 1.499 . S
C1218 C1219 1.373 . S
C1218 C1220 1.389 . S
C1219 H1198 0.950 . S
C1219 C1218 1.373 . S
C1219 C1235 1.377 . S
C1220 C1218 1.389 . S
C1220 C1221 1.524 . S
C1220 C1234 1.377 . S
C1221 C1220 1.524 . S
C1221 C1222 1.397 . S
C1221 C1226 1.363 . S
C1222 H1199 0.950 . S
C1222 C1221 1.397 . S
C1222 C1223 1.334 . S
C1223 H1200 0.950 . S
C1223 C1222 1.334 . S
C1223 C1224 1.287 . S
C1224 C1223 1.287 . S
C1224 C1225 1.524 . S
C1224 H1243 0.913 . S
C1225 H1201 0.950 . S
C1225 C1224 1.524 . S
C1225 C1226 1.415 . S
C1226 H1202 0.950 . S
C1226 C1221 1.363 . S
C1226 C1225 1.415 . S
C1227 H1203 0.951 . S
C1227 C1228 1.366 . S
C1227 C1229 1.388 . S
C1228 C1227 1.366 . S
C1228 C1232 1.385 . S
C1229 H1204 0.951 . S
C1229 C1227 1.388 . S
C1229 C1230 1.366 . S
C1230 C1229 1.366 . S
C1230 C1231 1.414 . S
C1230 C1233 1.499 . S
C1231 H1205 0.950 . S
C1231 C1230 1.414 . S
C1231 C1232 1.374 . S
C1232 H1206 0.950 . S
C1232 C1228 1.385 . S
C1232 C1231 1.374 . S
C1233 C1230 1.499 . S
C1233 C1234 1.373 . S
C1233 C1235 1.389 . S
C1234 H1207 0.950 . S
C1234 C1220 1.377 . S
C1234 C1233 1.373 . S
C1235 C1219 1.377 . S
C1235 C1233 1.389 . S
C1235 C1236 1.524 . S
C1236 C1235 1.524 . S
C1236 C1237 1.397 . S
C1236 C1241 1.363 . S
C1237 H1208 0.950 . S
C1237 C1236 1.397 . S
C1237 C1238 1.334 . S
C1238 H1209 0.950 . S
C1238 C1237 1.334 . S
C1238 C1239 1.287 . S
C1239 C1238 1.287 . S
C1239 C1240 1.524 . S
C1239 H1242 0.999 . S
C1240 H1210 0.950 . S
C1240 C1239 1.524 . S
C1240 C1241 1.415 . S
C1241 H1211 0.950 . S
C1241 C1236 1.363 . S
C1241 C1240 1.415 . S
H1242 C1239 0.999 . S
H1243 C1224 0.913 . S
H1244 C1262 0.951 . S
H1245 C1264 0.951 . S
H1246 C1266 0.950 . S
H1247 C1267 0.950 . S
H1248 C1269 0.950 . S
H1249 C1272 0.950 . S
H1250 C1273 0.950 . S
H1251 C1275 0.950 . S
H1252 C1276 0.950 . S
H1253 C1277 0.951 . S
H1254 C1279 0.951 . S
H1255 C1281 0.950 . S
H1256 C1282 0.950 . S
H1257 C1284 0.950 . S
H1258 C1287 0.950 . S
H1259 C1288 0.950 . S
H1260 C1290 0.950 . S
H1261 C1291 0.950 . S
C1262 H1244 0.951 . S
C1262 C1263 1.366 1_556 S
C1262 C1264 1.388 . S
C1263 C1262 1.366 1_554 S
C1263 C1267 1.385 . S
C1264 H1245 0.951 . S
C1264 C1262 1.388 . S
C1264 C1265 1.366 1_556 S
C1265 C1264 1.366 1_554 S
C1265 C1266 1.414 . S
C1265 C1268 1.499 . S
C1266 H1246 0.950 . S
C1266 C1265 1.414 . S
C1266 C1267 1.374 . S
C1267 H1247 0.950 . S
C1267 C1263 1.385 . S
C1267 C1266 1.374 . S
C1268 C1265 1.499 . S
C1268 C1269 1.373 . S
C1268 C1270 1.389 1_554 S
C1269 H1248 0.950 . S
C1269 C1268 1.373 . S
C1269 C1285 1.377 . S
C1270 C1268 1.389 1_556 S
C1270 C1271 1.524 . S
C1270 C1284 1.377 . S
C1271 C1270 1.524 . S
C1271 C1272 1.397 1_556 S
C1271 C1276 1.363 . S
C1272 H1249 0.950 . S
C1272 C1271 1.397 1_554 S
C1272 C1273 1.334 . S
C1273 H1250 0.950 . S
C1273 C1272 1.334 . S
C1273 C1274 1.287 1_554 S
C1274 C1273 1.287 1_556 S
C1274 C1275 1.524 . S
C1274 H1293 0.913 . S
C1275 H1251 0.950 . S
C1275 C1274 1.524 . S
C1275 C1276 1.415 . S
C1276 H1252 0.950 . S
C1276 C1271 1.363 . S
C1276 C1275 1.415 . S
C1277 H1253 0.951 . S
C1277 C1278 1.366 . S
C1277 C1279 1.388 . S
C1278 C1277 1.366 . S
C1278 C1282 1.385 1_554 S
C1279 H1254 0.951 . S
C1279 C1277 1.388 . S
C1279 C1280 1.366 . S
C1280 C1279 1.366 . S
C1280 C1281 1.414 1_554 S
C1280 C1283 1.499 . S
C1281 H1255 0.950 . S
C1281 C1280 1.414 1_556 S
C1281 C1282 1.374 . S
C1282 H1256 0.950 . S
C1282 C1278 1.385 1_556 S
C1282 C1281 1.374 . S
C1283 C1280 1.499 . S
C1283 C1284 1.373 1_554 S
C1283 C1285 1.389 . S
C1284 H1257 0.950 . S
C1284 C1270 1.377 . S
C1284 C1283 1.373 1_556 S
C1285 C1269 1.377 . S
C1285 C1283 1.389 . S
C1285 C1286 1.524 . S
C1286 C1285 1.524 . S
C1286 C1287 1.397 1_554 S
C1286 C1291 1.363 . S
C1287 H1258 0.950 . S
C1287 C1286 1.397 1_556 S
C1287 C1288 1.334 . S
C1288 H1259 0.950 . S
C1288 C1287 1.334 . S
C1288 C1289 1.287 1_556 S
C1289 C1288 1.287 1_554 S
C1289 C1290 1.524 . S
C1289 H1292 0.999 . S
C1290 H1260 0.950 . S
C1290 C1289 1.524 . S
C1290 C1291 1.415 . S
C1291 H1261 0.950 . S
C1291 C1286 1.363 . S
C1291 C1290 1.415 . S
H1292 C1289 0.999 . S
H1293 C1274 0.913 . S
H1294 C1312 0.951 . S
H1295 C1314 0.951 . S
H1296 C1316 0.950 . S
H1297 C1317 0.950 . S
H1298 C1319 0.950 . S
H1299 C1322 0.950 . S
H1300 C1323 0.950 . S
H1301 C1325 0.950 . S
H1302 C1326 0.950 . S
H1303 C1327 0.951 . S
H1304 C1329 0.951 . S
H1305 C1331 0.950 . S
H1306 C1332 0.950 . S
H1307 C1334 0.950 . S
H1308 C1337 0.950 . S
H1309 C1338 0.950 . S
H1310 C1340 0.950 . S
H1311 C1341 0.950 . S
C1312 H1294 0.951 . S
C1312 C1313 1.366 . S
C1312 C1314 1.388 . S
C1313 C1312 1.366 . S
C1313 C1317 1.385 . S
C1314 H1295 0.951 . S
C1314 C1312 1.388 . S
C1314 C1315 1.366 . S
C1315 C1314 1.366 . S
C1315 C1316 1.414 . S
C1315 C1318 1.499 . S
C1316 H1296 0.950 . S
C1316 C1315 1.414 . S
C1316 C1317 1.374 . S
C1317 H1297 0.950 . S
C1317 C1313 1.385 . S
C1317 C1316 1.374 . S
C1318 C1315 1.499 . S
C1318 C1319 1.373 . S
C1318 C1320 1.389 . S
C1319 H1298 0.950 . S
C1319 C1318 1.373 . S
C1319 C1335 1.377 . S
C1320 C1318 1.389 . S
C1320 C1321 1.524 . S
C1320 C1334 1.377 . S
C1321 C1320 1.524 . S
C1321 C1322 1.397 . S
C1321 C1326 1.363 . S
C1322 H1299 0.950 . S
C1322 C1321 1.397 . S
C1322 C1323 1.334 . S
C1323 H1300 0.950 . S
C1323 C1322 1.334 . S
C1323 C1324 1.287 . S
C1324 C1323 1.287 . S
C1324 C1325 1.524 . S
C1324 H1343 0.913 . S
C1325 H1301 0.950 . S
C1325 C1324 1.524 . S
C1325 C1326 1.415 . S
C1326 H1302 0.950 . S
C1326 C1321 1.363 . S
C1326 C1325 1.415 . S
C1327 H1303 0.951 . S
C1327 C1328 1.366 . S
C1327 C1329 1.388 . S
C1328 C1327 1.366 . S
C1328 C1332 1.385 . S
C1329 H1304 0.951 . S
C1329 C1327 1.388 . S
C1329 C1330 1.366 . S
C1330 C1329 1.366 . S
C1330 C1331 1.414 . S
C1330 C1333 1.499 . S
C1331 H1305 0.950 . S
C1331 C1330 1.414 . S
C1331 C1332 1.374 . S
C1332 H1306 0.950 . S
C1332 C1328 1.385 . S
C1332 C1331 1.374 . S
C1333 C1330 1.499 . S
C1333 C1334 1.373 . S
C1333 C1335 1.389 . S
C1334 H1307 0.950 . S
C1334 C1320 1.377 . S
C1334 C1333 1.373 . S
C1335 C1319 1.377 . S
C1335 C1333 1.389 . S
C1335 C1336 1.524 . S
C1336 C1335 1.524 . S
C1336 C1337 1.397 . S
C1336 C1341 1.363 . S
C1337 H1308 0.950 . S
C1337 C1336 1.397 . S
C1337 C1338 1.334 . S
C1338 H1309 0.950 . S
C1338 C1337 1.334 . S
C1338 C1339 1.287 . S
C1339 C1338 1.287 . S
C1339 C1340 1.524 . S
C1339 H1342 0.999 . S
C1340 H1310 0.950 . S
C1340 C1339 1.524 . S
C1340 C1341 1.415 . S
C1341 H1311 0.950 . S
C1341 C1336 1.363 . S
C1341 C1340 1.415 . S
H1342 C1339 0.999 . S
H1343 C1324 0.913 . S
H1344 C1362 0.951 . S
H1345 C1364 0.951 . S
H1346 C1366 0.950 . S
H1347 C1367 0.950 . S
H1348 C1369 0.950 . S
H1349 C1372 0.950 . S
H1350 C1373 0.950 . S
H1351 C1375 0.950 . S
H1352 C1376 0.950 . S
H1353 C1377 0.951 . S
H1354 C1379 0.951 . S
H1355 C1381 0.950 . S
H1356 C1382 0.950 . S
H1357 C1384 0.950 . S
H1358 C1387 0.950 . S
H1359 C1388 0.950 . S
H1360 C1390 0.950 . S
H1361 C1391 0.950 . S
C1362 H1344 0.951 . S
C1362 C1363 1.366 . S
C1362 C1364 1.388 . S
C1363 C1362 1.366 . S
C1363 C1367 1.385 . S
C1364 H1345 0.951 . S
C1364 C1362 1.388 . S
C1364 C1365 1.366 . S
C1365 C1364 1.366 . S
C1365 C1366 1.414 . S
C1365 C1368 1.499 . S
C1366 H1346 0.950 . S
C1366 C1365 1.414 . S
C1366 C1367 1.374 . S
C1367 H1347 0.950 . S
C1367 C1363 1.385 . S
C1367 C1366 1.374 . S
C1368 C1365 1.499 . S
C1368 C1369 1.373 . S
C1368 C1370 1.389 . S
C1369 H1348 0.950 . S
C1369 C1368 1.373 . S
C1369 C1385 1.377 . S
C1370 C1368 1.389 . S
C1370 C1371 1.524 . S
C1370 C1384 1.377 . S
C1371 C1370 1.524 . S
C1371 C1372 1.397 . S
C1371 C1376 1.363 . S
C1372 H1349 0.950 . S
C1372 C1371 1.397 . S
C1372 C1373 1.334 . S
C1373 H1350 0.950 . S
C1373 C1372 1.334 . S
C1373 C1374 1.287 . S
C1374 C1373 1.287 . S
C1374 C1375 1.524 . S
C1374 H1393 0.913 . S
C1375 H1351 0.950 . S
C1375 C1374 1.524 . S
C1375 C1376 1.415 . S
C1376 H1352 0.950 . S
C1376 C1371 1.363 . S
C1376 C1375 1.415 . S
C1377 H1353 0.951 . S
C1377 C1378 1.366 . S
C1377 C1379 1.388 . S
C1378 C1377 1.366 . S
C1378 C1382 1.385 . S
C1379 H1354 0.951 . S
C1379 C1377 1.388 . S
C1379 C1380 1.366 . S
C1380 C1379 1.366 . S
C1380 C1381 1.414 . S
C1380 C1383 1.499 . S
C1381 H1355 0.950 . S
C1381 C1380 1.414 . S
C1381 C1382 1.374 . S
C1382 H1356 0.950 . S
C1382 C1378 1.385 . S
C1382 C1381 1.374 . S
C1383 C1380 1.499 . S
C1383 C1384 1.373 . S
C1383 C1385 1.389 . S
C1384 H1357 0.950 . S
C1384 C1370 1.377 . S
C1384 C1383 1.373 . S
C1385 C1369 1.377 . S
C1385 C1383 1.389 . S
C1385 C1386 1.524 . S
C1386 C1385 1.524 . S
C1386 C1387 1.397 . S
C1386 C1391 1.363 . S
C1387 H1358 0.950 . S
C1387 C1386 1.397 . S
C1387 C1388 1.334 . S
C1388 H1359 0.950 . S
C1388 C1387 1.334 . S
C1388 C1389 1.287 . S
C1389 C1388 1.287 . S
C1389 C1390 1.524 . S
C1389 H1392 0.999 . S
C1390 H1360 0.950 . S
C1390 C1389 1.524 . S
C1390 C1391 1.415 . S
C1391 H1361 0.950 . S
C1391 C1386 1.363 . S
C1391 C1390 1.415 . S
H1392 C1389 0.999 . S
H1393 C1374 0.913 . S
H1394 C1412 0.951 . S
H1395 C1414 0.951 . S
H1396 C1416 0.950 . S
H1397 C1417 0.950 . S
H1398 C1419 0.950 . S
H1399 C1422 0.950 . S
H1400 C1423 0.950 . S
H1401 C1425 0.950 . S
H1402 C1426 0.950 . S
H1403 C1427 0.951 . S
H1404 C1429 0.951 . S
H1405 C1431 0.950 . S
H1406 C1432 0.950 . S
H1407 C1434 0.950 . S
H1408 C1437 0.950 . S
H1409 C1438 0.950 . S
H1410 C1440 0.950 . S
H1411 C1441 0.950 . S
C1412 H1394 0.951 . S
C1412 C1413 1.366 . S
C1412 C1414 1.388 . S
C1413 C1412 1.366 . S
C1413 C1417 1.385 1_554 S
C1414 H1395 0.951 . S
C1414 C1412 1.388 . S
C1414 C1415 1.366 . S
C1415 C1414 1.366 . S
C1415 C1416 1.414 1_554 S
C1415 C1418 1.499 . S
C1416 H1396 0.950 . S
C1416 C1415 1.414 1_556 S
C1416 C1417 1.374 . S
C1417 H1397 0.950 . S
C1417 C1413 1.385 1_556 S
C1417 C1416 1.374 . S
C1418 C1415 1.499 . S
C1418 C1419 1.373 . S
C1418 C1420 1.389 1_554 S
C1419 H1398 0.950 . S
C1419 C1418 1.373 . S
C1419 C1435 1.377 . S
C1420 C1418 1.389 1_556 S
C1420 C1421 1.524 . S
C1420 C1434 1.377 . S
C1421 C1420 1.524 . S
C1421 C1422 1.397 . S
C1421 C1426 1.363 . S
C1422 H1399 0.950 . S
C1422 C1421 1.397 . S
C1422 C1423 1.334 . S
C1423 H1400 0.950 . S
C1423 C1422 1.334 . S
C1423 C1424 1.287 . S
C1424 C1423 1.287 . S
C1424 C1425 1.524 . S
C1424 H1443 0.913 . S
C1425 H1401 0.950 . S
C1425 C1424 1.524 . S
C1425 C1426 1.415 . S
C1426 H1402 0.950 . S
C1426 C1421 1.363 . S
C1426 C1425 1.415 . S
C1427 H1403 0.951 . S
C1427 C1428 1.366 1_556 S
C1427 C1429 1.388 . S
C1428 C1427 1.366 1_554 S
C1428 C1432 1.385 . S
C1429 H1404 0.951 . S
C1429 C1427 1.388 . S
C1429 C1430 1.366 1_556 S
C1430 C1429 1.366 1_554 S
C1430 C1431 1.414 . S
C1430 C1433 1.499 . S
C1431 H1405 0.950 . S
C1431 C1430 1.414 . S
C1431 C1432 1.374 . S
C1432 H1406 0.950 . S
C1432 C1428 1.385 . S
C1432 C1431 1.374 . S
C1433 C1430 1.499 . S
C1433 C1434 1.373 1_554 S
C1433 C1435 1.389 . S
C1434 H1407 0.950 . S
C1434 C1420 1.377 . S
C1434 C1433 1.373 1_556 S
C1435 C1419 1.377 . S
C1435 C1433 1.389 . S
C1435 C1436 1.524 . S
C1436 C1435 1.524 . S
C1436 C1437 1.397 . S
C1436 C1441 1.363 . S
C1437 H1408 0.950 . S
C1437 C1436 1.397 . S
C1437 C1438 1.334 . S
C1438 H1409 0.950 . S
C1438 C1437 1.334 . S
C1438 C1439 1.287 . S
C1439 C1438 1.287 . S
C1439 C1440 1.524 . S
C1439 H1442 0.999 . S
C1440 H1410 0.950 . S
C1440 C1439 1.524 . S
C1440 C1441 1.415 . S
C1441 H1411 0.950 . S
C1441 C1436 1.363 . S
C1441 C1440 1.415 . S
H1442 C1439 0.999 . S
H1443 C1424 0.913 . S
H1444 C1462 0.951 . S
H1445 C1464 0.951 . S
H1446 C1466 0.950 . S
H1447 C1467 0.950 . S
H1448 C1469 0.950 . S
H1449 C1472 0.950 . S
H1450 C1473 0.950 . S
H1451 C1475 0.950 . S
H1452 C1476 0.950 . S
H1453 C1477 0.951 . S
H1454 C1479 0.951 . S
H1455 C1481 0.950 . S
H1456 C1482 0.950 . S
H1457 C1484 0.950 . S
H1458 C1487 0.950 . S
H1459 C1488 0.950 . S
H1460 C1490 0.950 . S
H1461 C1491 0.950 . S
C1462 H1444 0.951 . S
C1462 C1463 1.366 . S
C1462 C1464 1.388 . S
C1463 C1462 1.366 . S
C1463 C1467 1.385 . S
C1464 H1445 0.951 . S
C1464 C1462 1.388 . S
C1464 C1465 1.366 . S
C1465 C1464 1.366 . S
C1465 C1466 1.414 . S
C1465 C1468 1.499 . S
C1466 H1446 0.950 . S
C1466 C1465 1.414 . S
C1466 C1467 1.374 . S
C1467 H1447 0.950 . S
C1467 C1463 1.385 . S
C1467 C1466 1.374 . S
C1468 C1465 1.499 . S
C1468 C1469 1.373 . S
C1468 C1470 1.389 . S
C1469 H1448 0.950 . S
C1469 C1468 1.373 . S
C1469 C1485 1.377 . S
C1470 C1468 1.389 . S
C1470 C1471 1.524 . S
C1470 C1484 1.377 . S
C1471 C1470 1.524 . S
C1471 C1472 1.397 . S
C1471 C1476 1.363 . S
C1472 H1449 0.950 . S
C1472 C1471 1.397 . S
C1472 C1473 1.334 . S
C1473 H1450 0.950 . S
C1473 C1472 1.334 . S
C1473 C1474 1.287 . S
C1474 C1473 1.287 . S
C1474 C1475 1.524 . S
C1474 H1493 0.913 . S
C1475 H1451 0.950 . S
C1475 C1474 1.524 . S
C1475 C1476 1.415 . S
C1476 H1452 0.950 . S
C1476 C1471 1.363 . S
C1476 C1475 1.415 . S
C1477 H1453 0.951 . S
C1477 C1478 1.366 . S
C1477 C1479 1.388 . S
C1478 C1477 1.366 . S
C1478 C1482 1.385 . S
C1479 H1454 0.951 . S
C1479 C1477 1.388 . S
C1479 C1480 1.366 . S
C1480 C1479 1.366 . S
C1480 C1481 1.414 . S
C1480 C1483 1.499 . S
C1481 H1455 0.950 . S
C1481 C1480 1.414 . S
C1481 C1482 1.374 . S
C1482 H1456 0.950 . S
C1482 C1478 1.385 . S
C1482 C1481 1.374 . S
C1483 C1480 1.499 . S
C1483 C1484 1.373 . S
C1483 C1485 1.389 . S
C1484 H1457 0.950 . S
C1484 C1470 1.377 . S
C1484 C1483 1.373 . S
C1485 C1469 1.377 . S
C1485 C1483 1.389 . S
C1485 C1486 1.524 . S
C1486 C1485 1.524 . S
C1486 C1487 1.397 . S
C1486 C1491 1.363 . S
C1487 H1458 0.950 . S
C1487 C1486 1.397 . S
C1487 C1488 1.334 . S
C1488 H1459 0.950 . S
C1488 C1487 1.334 . S
C1488 C1489 1.287 . S
C1489 C1488 1.287 . S
C1489 C1490 1.524 . S
C1489 H1492 0.999 . S
C1490 H1460 0.950 . S
C1490 C1489 1.524 . S
C1490 C1491 1.415 . S
C1491 H1461 0.950 . S
C1491 C1486 1.363 . S
C1491 C1490 1.415 . S
H1492 C1489 0.999 . S
H1493 C1474 0.913 . S
H1494 C1512 0.951 . S
H1495 C1514 0.951 . S
H1496 C1516 0.950 . S
H1497 C1517 0.950 . S
H1498 C1519 0.950 . S
H1499 C1522 0.950 . S
H1500 C1523 0.950 . S
H1501 C1525 0.950 . S
H1502 C1526 0.950 . S
H1503 C1527 0.951 . S
H1504 C1529 0.951 . S
H1505 C1531 0.950 . S
H1506 C1532 0.950 . S
H1507 C1534 0.950 . S
H1508 C1537 0.950 . S
H1509 C1538 0.950 . S
H1510 C1540 0.937 1_556 S
H1511 C1541 0.950 . S
C1512 H1494 0.951 . S
C1512 C1513 1.366 . S
C1512 C1514 1.388 . S
C1513 C1512 1.366 . S
C1513 C1517 1.385 1_554 S
C1514 H1495 0.951 . S
C1514 C1512 1.388 . S
C1514 C1515 1.366 . S
C1515 C1514 1.366 . S
C1515 C1516 1.414 1_554 S
C1515 C1518 1.499 . S
C1516 H1496 0.950 . S
C1516 C1515 1.414 1_556 S
C1516 C1517 1.374 . S
C1517 H1497 0.950 . S
C1517 C1513 1.385 1_556 S
C1517 C1516 1.374 . S
C1518 C1515 1.499 . S
C1518 C1519 1.373 . S
C1518 C1520 1.389 . S
C1519 H1498 0.950 . S
C1519 C1518 1.373 . S
C1519 C1535 1.377 . S
C1520 C1518 1.389 . S
C1520 C1521 1.524 1_554 S
C1520 C1534 1.377 . S
C1521 C1520 1.524 1_556 S
C1521 C1522 1.397 . S
C1521 C1526 1.363 1_556 S
C1522 H1499 0.950 . S
C1522 C1521 1.397 . S
C1522 C1523 1.334 . S
C1523 H1500 0.950 . S
C1523 C1522 1.334 . S
C1523 C1524 1.287 . S
C1524 C1523 1.287 . S
C1524 C1525 1.524 1_556 S
C1524 H1543 0.913 . S
C1525 H1501 0.950 . S
C1525 C1524 1.524 1_554 S
C1525 C1526 1.415 . S
C1526 H1502 0.950 . S
C1526 C1521 1.363 1_554 S
C1526 C1525 1.415 . S
C1527 H1503 0.951 . S
C1527 C1528 1.366 1_556 S
C1527 C1529 1.388 . S
C1528 C1527 1.366 1_554 S
C1528 C1532 1.385 . S
C1529 H1504 0.951 . S
C1529 C1527 1.388 . S
C1529 C1530 1.366 1_556 S
C1530 C1529 1.366 1_554 S
C1530 C1531 1.414 . S
C1530 C1533 1.499 . S
C1531 H1505 0.950 . S
C1531 C1530 1.414 . S
C1531 C1532 1.374 . S
C1532 H1506 0.950 . S
C1532 C1528 1.385 . S
C1532 C1531 1.374 . S
C1533 C1530 1.499 . S
C1533 C1534 1.373 . S
C1533 C1535 1.389 . S
C1534 H1507 0.950 . S
C1534 C1520 1.377 . S
C1534 C1533 1.373 . S
C1535 C1519 1.377 . S
C1535 C1533 1.389 . S
C1535 C1536 1.524 . S
C1536 C1535 1.524 . S
C1536 C1537 1.397 . S
C1536 C1541 1.363 1_554 S
C1537 H1508 0.950 . S
C1537 C1536 1.397 . S
C1537 C1538 1.334 . S
C1538 H1509 0.950 . S
C1538 C1537 1.334 . S
C1538 C1539 1.287 . S
C1539 C1538 1.287 . S
C1539 C1540 1.543 . S
C1539 H1542 0.999 . S
C1540 H1510 0.937 1_554 S
C1540 C1539 1.543 . S
C1540 C1541 1.411 1_554 S
C1541 H1511 0.950 . S
C1541 C1536 1.363 1_556 S
C1541 C1540 1.411 1_556 S
H1542 C1539 0.999 . S
H1543 C1524 0.913 . S
C363 C21 1.544 . S
C378 C201 1.486 . S
C413 C40 1.631 . S
C428 C117 1.502 . S
C478 C149 1.514 . S
C463 C54 1.510 . S
C513 C73 1.659 . S
C528 C169 1.669 . S
C578 C277 1.516 . S
C563 C74 1.513 . S
C628 C297 1.625 . S
C613 C10 1.624 . S
C678 C329 1.482 . S
C663 C37 1.540 . S
C728 C245 1.544 . S
C713 C65 1.666 . S
C763 C52 1.505 . S
C778 C137 1.510 . S
C813 C87 1.667 . S
C828 C181 1.679 . S
C863 C15 1.550 . S
C878 C213 1.476 . S
C928 C105 1.509 . S
C913 C32 1.616 . S
C963 C29 1.553 . S
C978 C341 1.478 . S
C1028 C233 1.559 . S
C1013 C59 1.661 . S
C1078 C265 1.508 . S
C1063 C84 1.502 . S
C1113 C8 1.622 . S
C1128 C309 1.625 . S
C1178 C111 1.642 . S
C1163 C7 1.763 . S
C1228 C143 1.637 . S
C1213 C30 1.631 . S
C1263 C62 1.783 . S
C1278 C175 1.782 . S
C1313 C81 1.623 . S
C1328 C207 1.554 . S
C1378 C239 1.655 . S
C1363 C76 1.783 . S
C1413 C18 1.630 . S
C1428 C271 1.635 . S
C1463 C43 1.763 . S
C1478 C303 1.766 . S
C1513 C51 1.623 . S
C1528 C335 1.554 . S
