# Generated by pormake.
# Topology anh, (6,3)-cn, num edge types: 1
# Building blocks:
#     Node 0, Type 0, BuildingBlock: BETFEN_clean_sbu_0, # of connection points: 6
#     Node 1, Type 0, BuildingBlock: BETFEN_clean_sbu_0, # of connection points: 6
#     Node 2, Type 0, BuildingBlock: BETFEN_clean_sbu_0, # of connection points: 6
#     Node 3, Type 1, BuildingBlock: CUQRIR_clean_linker_1, # of connection points: 3
#     Node 4, Type 1, BuildingBlock: CUQRIR_clean_linker_1, # of connection points: 3
#     Node 5, Type 1, BuildingBlock: CUQRIR_clean_linker_1, # of connection points: 3
#     Node 6, Type 1, BuildingBlock: CUQRIR_clean_linker_1, # of connection points: 3
#     Node 7, Type 1, BuildingBlock: CUQRIR_clean_linker_1, # of connection points: 3
#     Node 8, Type 1, BuildingBlock: CUQRIR_clean_linker_1, # of connection points: 3
#     Edge 9, Type (0, 1), BuildingBlock: AJUNOK_clean_linker_0, # of connection points: 2
#     Edge 10, Type (0, 1), BuildingBlock: AJUNOK_clean_linker_0, # of connection points: 2
#     Edge 11, Type (0, 1), BuildingBlock: AJUNOK_clean_linker_0, # of connection points: 2
#     Edge 12, Type (0, 1), BuildingBlock: AJUNOK_clean_linker_0, # of connection points: 2
#     Edge 13, Type (0, 1), BuildingBlock: AJUNOK_clean_linker_0, # of connection points: 2
#     Edge 14, Type (0, 1), BuildingBlock: AJUNOK_clean_linker_0, # of connection points: 2
#     Edge 15, Type (0, 1), BuildingBlock: AJUNOK_clean_linker_0, # of connection points: 2
#     Edge 16, Type (0, 1), BuildingBlock: AJUNOK_clean_linker_0, # of connection points: 2
#     Edge 17, Type (0, 1), BuildingBlock: AJUNOK_clean_linker_0, # of connection points: 2
#     Edge 18, Type (0, 1), BuildingBlock: AJUNOK_clean_linker_0, # of connection points: 2
#     Edge 19, Type (0, 1), BuildingBlock: AJUNOK_clean_linker_0, # of connection points: 2
#     Edge 20, Type (0, 1), BuildingBlock: AJUNOK_clean_linker_0, # of connection points: 2
#     Edge 21, Type (0, 1), BuildingBlock: AJUNOK_clean_linker_0, # of connection points: 2
#     Edge 22, Type (0, 1), BuildingBlock: AJUNOK_clean_linker_0, # of connection points: 2
#     Edge 23, Type (0, 1), BuildingBlock: AJUNOK_clean_linker_0, # of connection points: 2
#     Edge 24, Type (0, 1), BuildingBlock: AJUNOK_clean_linker_0, # of connection points: 2
#     Edge 25, Type (0, 1), BuildingBlock: AJUNOK_clean_linker_0, # of connection points: 2
#     Edge 26, Type (0, 1), BuildingBlock: AJUNOK_clean_linker_0, # of connection points: 2
# Relax obj value: 0.270
# Max RMSD: 0.227
# Mean RMSD: 0.172
data_MOF--net-anh--node1-BETFEN_clean_sbu_0--node2-CUQRIR_clean_linker_1--edge1-AJUNOK_clean_linker_0
_symmetry_space_group_name_H-M    P1
_symmetry_Int_Tables_number       1
_symmetry_cell_setting            triclinic
loop_
_symmetry_equiv_pos_as_xyz
'x, y, z'
_cell_length_a     20.025105
_cell_length_b     22.366976
_cell_length_c     33.857771
_cell_angle_alpha  86.062526
_cell_angle_beta   90.925062
_cell_angle_gamma 99.991712
loop_
_atom_site_label
_atom_site_type_symbol
_atom_site_fract_x
_atom_site_fract_y
_atom_site_fract_z
_atom_type_partial_charge
Pr0 Pr 0.05538 0.49502 0.13743 0.0
Pr1 Pr 0.07709 0.6303 0.13341 0.0
C2 C 1.02465 0.37866 0.16688 0.0
C3 C 0.9662 0.34001 0.18636 0.0
C4 C 0.95877 0.27681 0.18525 0.0
C5 C 0.90071 0.23939 0.20068 0.0
C6 C 0.84903 0.26465 0.21741 0.0
C7 C 0.85737 0.32813 0.21932 0.0
C8 C 0.91548 0.36562 0.20371 0.0
C9 C 0.08578 0.53058 0.0577 0.0
C10 C 0.91824 0.56552 0.12106 0.0
C11 C 0.12373 0.75074 0.12415 0.0
C12 C 0.18642 0.78878 0.13716 0.0
C13 C 0.21752 0.77327 0.17298 0.0
C14 C 0.27636 0.80983 0.18577 0.0
C15 C 0.30569 0.86222 0.1628 0.0
C16 C 0.27585 0.87637 0.1262 0.0
C17 C 0.21638 0.84002 0.11359 0.0
C18 C 0.04547 0.57523 0.20955 0.0
C19 C 0.21776 0.56247 0.14012 0.0
O20 O 0.05777 0.42226 0.18705 0.0
O21 O 1.01536 0.39566 0.12983 0.0
O22 O 0.08286 0.56668 0.08454 0.0
O23 O 0.07233 0.47454 0.07181 0.0
O24 O 0.96339 0.61426 0.11014 0.0
O25 O 0.94055 0.51636 0.13682 0.0
O26 O 0.13056 0.71347 0.09707 0.0
O27 O 0.08195 0.72586 0.15219 0.0
O28 O 0.08764 0.56144 0.18595 0.0
O29 O 1.01589 0.61784 0.19314 0.0
O30 O 0.17611 0.50935 0.1402 0.0
O31 O 0.19231 0.6137 0.13918 0.0
H32 H 0.99721 0.25645 0.17163 0.0
H33 H 0.89532 0.1907 0.19844 0.0
H34 H 0.8188 0.34875 0.23254 0.0
H35 H 0.92035 0.41453 0.20458 0.0
H36 H 0.19594 0.73317 0.19132 0.0
H37 H 0.29812 0.79775 0.21408 0.0
H38 H 0.29833 0.91559 0.10741 0.0
H39 H 0.1937 0.85197 0.08553 0.0
Pr40 Pr 0.6519 0.11107 0.53224 0.0
Pr41 Pr 0.51178 0.08968 0.51995 0.0
C42 C 0.78353 0.15772 0.51629 0.0
C43 C 0.82184 0.21807 0.50201 0.0
C44 C 0.89091 0.2344 0.51113 0.0
C45 C 0.92868 0.28915 0.4949 0.0
C46 C 0.89831 0.3286 0.46884 0.0
C47 C 0.8286 0.31276 0.46064 0.0
C48 C 0.79088 0.25819 0.47695 0.0
C49 C 0.58203 0.10253 0.60374 0.0
C50 C 0.57623 0.24885 0.52831 0.0
C51 C 0.37837 1.04176 0.51741 0.0
C52 C 0.33895 0.98442 0.50372 0.0
C53 C 0.34626 0.96643 0.46525 0.0
C54 C 0.3118 0.91018 0.45385 0.0
C55 C 0.26949 0.8705 0.48066 0.0
C56 C 0.26282 0.8884 0.51922 0.0
C57 C 0.2969 0.94479 0.53053 0.0
C58 C 0.58014 0.11018 0.44826 0.0
C59 C 0.58813 0.95076 0.53397 0.0
O60 O 0.74125 0.13049 0.4908 0.0
O61 O 0.75902 0.15152 0.5522 0.0
O62 O 0.56776 0.13108 0.57236 0.0
O63 O 0.63647 0.07858 0.59993 0.0
O64 O 0.51932 0.20486 0.52931 0.0
O65 O 0.63336 0.22361 0.52595 0.0
O66 O 0.41692 1.03529 0.5482 0.0
O67 O 0.4078 0.08245 0.49072 0.0
O68 O 0.59391 0.07507 0.477 0.0
O69 O 0.5309 0.13748 0.45697 0.0
O70 O 0.64511 0.99419 0.53489 0.0
O71 O 0.53127 0.97704 0.53045 0.0
H72 H 0.91593 0.20439 0.53041 0.0
H73 H 0.98171 0.30065 0.50289 0.0
H74 H 0.80345 0.34199 0.44085 0.0
H75 H 0.73769 0.24677 0.46926 0.0
H76 H 0.3791 0.99546 0.44403 0.0
H77 H 0.31796 0.89786 0.42391 0.0
H78 H 0.23207 0.8584 0.54092 0.0
H79 H 0.29132 0.95707 0.56056 0.0
Pr80 Pr 0.58676 0.57024 0.82067 0.0
Pr81 Pr 0.60618 0.68696 0.83256 0.0
C82 C 0.60609 0.46368 0.79691 0.0
C83 C 0.64579 0.42328 0.81865 0.0
C84 C 0.65815 0.4299 0.85931 0.0
C85 C 0.66398 0.37865 0.88426 0.0
C86 C 0.65374 0.32175 0.86798 0.0
C87 C 0.66732 0.32101 0.82716 0.0
C88 C 0.65833 0.37106 0.80205 0.0
C89 C 0.60186 0.58202 0.90237 0.0
C90 C 0.7501 0.64162 0.82608 0.0
C91 C 0.58539 0.7923 0.85603 0.0
C92 C 0.52614 0.8167 0.84165 0.0
C93 C 0.49796 0.79968 0.80489 0.0
C94 C 0.44651 0.82755 0.78817 0.0
C95 C 0.42406 0.873 0.80802 0.0
C96 C 0.44212 0.88028 0.848 0.0
C97 C 0.49469 0.85323 0.86455 0.0
C98 C 0.597 0.67259 0.75028 0.0
C99 C 0.44225 0.61505 0.83536 0.0
O100 O 0.64047 0.5149 0.78207 0.0
O101 O 0.55072 0.47007 0.81493 0.0
O102 O 0.63824 0.6146 0.87637 0.0
O103 O 0.55667 0.54175 0.88683 0.0
O104 O 0.72339 0.6848 0.84122 0.0
O105 O 0.70779 0.5958 0.812 0.0
O106 O 0.5702 0.74229 0.87855 0.0
O107 O 0.63067 0.78964 0.82898 0.0
O108 O 0.55671 0.64302 0.77595 0.0
O109 O 0.64453 0.70956 0.7669 0.0
O110 O 0.46693 0.57066 0.81998 0.0
O111 O 0.48644 0.66245 0.84553 0.0
H112 H 0.65259 0.4716 0.87238 0.0
H113 H 0.65931 0.3815 0.91589 0.0
H114 H 0.66716 0.27841 0.81373 0.0
H115 H 0.65292 0.36637 0.77047 0.0
H116 H 0.51917 0.76832 0.7878 0.0
H117 H 0.43264 0.82095 0.7575 0.0
H118 H 0.42445 0.91501 0.86384 0.0
H119 H 0.51358 0.86396 0.89385 0.0
C120 C 0.57602 1.0592 0.22235 0.0
N121 N 0.61057 0.08756 0.25247 0.0
N122 N 0.5281 1.01302 0.2366 0.0
C123 C 0.59062 0.0743 0.17902 0.0
C124 C 0.53484 1.01379 0.27637 0.0
N125 N 0.58577 1.05859 0.28608 0.0
C126 C 0.48797 0.97436 0.30566 0.0
H127 H 0.55888 0.10759 0.16736 0.0
H128 H 0.57759 1.03294 0.1622 0.0
H129 H 0.64473 0.09447 0.17414 0.0
H130 H 0.51384 0.93763 0.31878 0.0
H131 H 0.44015 0.9533 0.29145 0.0
H132 H 0.4758 1.00138 0.33004 0.0
C133 C 0.58636 0.60235 0.52548 0.0
N134 N 0.58249 0.65272 0.54971 0.0
N135 N 0.58037 0.5419 0.54542 0.0
C136 C 0.59515 0.61208 0.48171 0.0
C137 C 0.57402 0.56 0.5828 0.0
N138 N 0.5746 0.62193 0.5853 0.0
C139 C 0.57096 0.51584 0.61881 0.0
H140 H 0.56578 0.64709 0.46974 0.0
H141 H 0.57908 0.56879 0.46726 0.0
H142 H 0.64951 0.62911 0.47518 0.0
H143 H 0.59161 0.47451 0.61276 0.0
H144 H 0.51734 0.50175 0.62808 0.0
H145 H 0.60008 0.53723 0.64385 0.0
C146 C 0.0999 0.62822 0.83441 0.0
N147 N 0.14773 0.61543 0.86194 0.0
N148 N 1.03741 0.62617 0.85129 0.0
C149 C 0.11451 0.6431 0.79131 0.0
C150 C 0.04917 0.61191 0.88985 0.0
N151 N 0.11477 0.60576 0.89643 0.0
C152 C 0.99556 0.60226 0.92169 0.0
H153 H 0.15133 0.6863 0.7877 0.0
H154 H 0.0676 0.64779 0.77436 0.0
H155 H 0.1385 0.60691 0.77951 0.0
H156 H 0.99343 0.55671 0.93727 0.0
H157 H 0.94434 0.60569 0.9099 0.0
H158 H 1.00926 0.63665 0.94387 0.0
C159 C 0.08723 0.59596 0.43896 0.0
N160 N 0.05948 0.55763 0.41141 0.0
N161 N 0.12655 0.64609 0.42161 0.0
C162 C 0.07877 0.58269 0.4829 0.0
C163 C 0.12191 0.63666 0.3825 0.0
N164 N 0.08174 0.58279 0.37622 0.0
C165 C 0.15428 0.68152 0.3502 0.0
H166 H 1.02858 0.59194 0.49165 0.0
H167 H 0.11895 0.61129 0.49956 0.0
H168 H 0.07999 0.53393 0.49093 0.0
H169 H 0.20554 0.67186 0.34423 0.0
H170 H 0.15966 0.72884 0.35929 0.0
H171 H 0.1244 0.67763 0.32235 0.0
C172 C 0.41158 0.13824 0.80319 0.0
N173 N 0.41824 0.11641 0.76746 0.0
N174 N 0.44724 0.1949 0.80481 0.0
C175 C 0.38422 0.09941 0.83951 0.0
C176 C 0.47213 0.20843 0.76763 0.0
N177 N 0.45615 0.1603 0.74507 0.0
C178 C 0.51829 0.26688 0.75521 0.0
H179 H 0.33403 0.07222 0.83292 0.0
H180 H 0.37878 0.12787 0.86447 0.0
H181 H 0.41926 1.06749 0.84853 0.0
H182 H 0.57076 0.26362 0.76479 0.0
H183 H 0.50305 0.30526 0.76992 0.0
H184 H 0.51728 0.27612 0.72261 0.0
C185 C 0.57047 0.56314 0.13077 0.0
N186 N 0.62166 0.57043 0.10322 0.0
N187 N 0.50975 0.57241 0.11387 0.0
C188 C 0.58002 0.54817 0.17403 0.0
C189 C 0.52626 0.58561 0.07532 0.0
N190 N 0.59277 0.58465 0.06887 0.0
C191 C 0.4765 0.59732 0.04294 0.0
H192 H 0.58501 0.49955 0.17865 0.0
H193 H 0.53626 0.55629 0.19136 0.0
H194 H 0.62756 0.57581 0.18461 0.0
H195 H 0.49218 0.64402 0.02917 0.0
H196 H 0.42385 0.59256 0.05384 0.0
H197 H 0.47736 0.56523 0.01946 0.0
C198 C 0.32352 0.5117 0.13641 0.0
C199 C 0.29491 0.565 0.13934 0.0
C200 C 0.3945 0.51365 0.13161 0.0
C201 C 0.4413 0.56885 0.13006 0.0
H202 H 0.29051 0.46792 0.13624 0.0
H203 H 0.41259 0.47178 0.127 0.0
S204 S 0.3959 0.72162 0.13746 0.0
N205 N 0.32228 0.67514 0.14151 0.0
N206 N 0.45349 0.67802 0.13246 0.0
C207 C 0.41398 0.62208 0.13427 0.0
C208 C 0.34188 0.62036 0.13898 0.0
C209 C 0.91302 0.44142 0.45048 0.0
C210 C 0.93862 0.38646 0.45065 0.0
C211 C 0.95135 0.49688 0.43552 0.0
C212 C 1.01621 0.49953 0.41956 0.0
H213 H 0.86396 0.44198 0.46332 0.0
H214 H 0.9312 0.53846 0.43758 0.0
S215 S 0.10593 0.36971 0.41112 0.0
N216 N 1.03263 0.33872 0.43162 0.0
N217 N 0.10425 0.44327 0.40423 0.0
C218 C 0.04174 0.4452 0.41847 0.0
C219 C 1.00312 0.38867 0.43386 0.0
C220 C 0.35767 0.94967 0.77831 0.0
C221 C 0.41947 0.92917 0.78451 0.0
C222 C 0.35724 1.01117 0.76732 0.0
C223 C 0.41838 1.05299 0.76426 0.0
H224 H 0.31023 0.91932 0.7847 0.0
H225 H 0.3093 1.02735 0.76514 0.0
S226 S 0.59259 1.01955 0.77738 0.0
N227 N 0.54253 0.95285 0.78303 0.0
N228 N 0.54129 1.06905 0.76824 0.0
C229 C 0.48005 1.03171 0.76833 0.0
C230 C 0.48059 0.96934 0.77704 0.0
C231 C 0.7912 0.51508 0.12641 0.0
C232 C 0.84155 0.567 0.11679 0.0
C233 C 0.72007 0.51627 0.1227 0.0
C234 C 0.69493 0.56947 0.10917 0.0
H235 H 0.80679 0.4727 0.13678 0.0
H236 H 0.68445 0.47488 0.12998 0.0
S237 S 0.80219 0.7194 0.0834 0.0
N238 N 0.85785 0.67443 0.09483 0.0
N239 N 0.7268 0.67628 0.08901 0.0
C240 C 0.74423 0.62172 0.10046 0.0
C241 C 0.81631 0.62063 0.10398 0.0
C242 C 0.26663 0.77323 0.44684 0.0
C243 C 0.23262 0.81076 0.46818 0.0
C244 C 0.23219 0.71846 0.4329 0.0
C245 C 0.16247 0.69913 0.43966 0.0
H246 H 0.32027 0.78646 0.44066 0.0
H247 H 0.25992 0.69133 0.41614 0.0
S248 S 0.04942 0.7803 0.49315 0.0
N249 N 0.12467 0.82408 0.49519 0.0
N250 N 0.06047 0.7214 0.46869 0.0
C251 C 0.12806 0.73541 0.46141 0.0
C252 C 0.16299 0.7911 0.47574 0.0
C253 C 0.59474 0.21582 0.87294 0.0
C254 C 0.59439 0.27619 0.882 0.0
C255 C 0.542 0.18579 0.85019 0.0
C256 C 0.48629 0.2139 0.83892 0.0
H257 H 0.64146 0.19758 0.87544 0.0
H258 H 0.54846 0.14408 0.83743 0.0
S259 S 0.44436 0.35377 0.8761 0.0
N260 N 0.52077 0.34962 0.89403 0.0
N261 N 0.42229 0.293 0.8506 0.0
C262 C 0.4777 0.26612 0.85678 0.0
C263 C 0.53103 0.29635 0.88014 0.0
C264 C 0.53267 0.82539 0.55238 0.0
C265 C 0.58733 0.87296 0.53686 0.0
C266 C 0.5315 0.75769 0.55585 0.0
C267 C 0.5834 0.725 0.54259 0.0
H268 H 0.48857 0.84079 0.56337 0.0
H269 H 0.48708 0.73001 0.56949 0.0
S270 S 0.74203 0.82006 0.49887 0.0
N271 N 0.69831 0.87361 0.50849 0.0
N272 N 0.69484 0.75405 0.51289 0.0
C273 C 0.63846 0.77143 0.52665 0.0
C274 C 0.64049 0.84078 0.5243 0.0
C275 C 0.85313 0.58898 0.81899 0.0
C276 C 0.82656 0.6417 0.82696 0.0
C277 C 0.92331 0.58584 0.82333 0.0
C278 C 0.97125 0.63557 0.83509 0.0
H279 H 0.81897 0.54853 0.81099 0.0
H280 H 0.93971 0.54294 0.81958 0.0
S281 S 0.93099 0.7852 0.85791 0.0
N282 N 0.85666 0.74589 0.84589 0.0
N283 N 0.98675 0.73955 0.85375 0.0
C284 C 0.94596 0.68908 0.84164 0.0
C285 C 0.87458 0.69228 0.83762 0.0
C286 C 0.41985 0.87754 0.1957 0.0
C287 C 0.36579 0.90269 0.1781 0.0
C288 C 0.4739 0.91413 0.21393 0.0
C289 C 0.47585 0.97694 0.21483 0.0
H290 H 0.41978 0.82909 0.196 0.0
H291 H 0.51388 0.89332 0.22805 0.0
S292 S 0.34776 1.06541 0.17413 0.0
N293 N 0.31791 0.99475 0.16349 0.0
N294 N 0.42066 1.06318 0.19722 0.0
C295 C 0.42344 1.00299 0.19677 0.0
C296 C 0.36812 0.96593 0.17845 0.0
C297 C 0.63448 0.37558 0.52389 0.0
C298 C 0.57662 0.32586 0.5304 0.0
C299 C 0.63533 0.44287 0.52639 0.0
C300 C 0.57801 0.4721 0.53545 0.0
H301 H 0.68218 0.36239 0.51683 0.0
H302 H 0.6837 0.47254 0.52179 0.0
S303 S 0.41123 0.36966 0.5584 0.0
N304 N 0.45866 0.31917 0.54832 0.0
N305 N 0.46021 0.43721 0.55339 0.0
C306 C 0.52027 0.42304 0.54276 0.0
C307 C 0.51943 0.35473 0.53993 0.0
C308 C 0.34029 0.66713 0.84939 0.0
C309 C 0.36563 0.61345 0.84174 0.0
C310 C 0.27003 0.66751 0.85592 0.0
C311 C 0.22049 0.61416 0.85567 0.0
H312 H 0.37515 0.70986 0.85012 0.0
H313 H 0.25427 0.71016 0.86126 0.0
S314 S 0.25701 0.4609 0.83838 0.0
N315 N 0.33243 0.50481 0.83518 0.0
N316 N 0.20249 0.50593 0.84731 0.0
C317 C 0.24463 0.56028 0.84828 0.0
C318 C 0.31612 0.55982 0.8414 0.0
C319 C 0.78941 0.1704 0.2546 0.0
C320 C 0.78575 0.22423 0.23111 0.0
C321 C 0.73112 0.12728 0.26345 0.0
C322 C 0.66751 0.13646 0.24893 0.0
H323 H 0.83799 0.16072 0.26521 0.0
H324 H 0.73608 0.08515 0.28009 0.0
S325 S 0.62886 0.2715 0.18949 0.0
N326 N 0.712 0.28562 0.19559 0.0
N327 N 0.60249 0.20477 0.21323 0.0
C328 C 0.66235 0.19131 0.22741 0.0
C329 C 0.72152 0.23524 0.21828 0.0
C330 C 0.13188 0.61072 0.0043 0.0
C331 C 0.10954 0.54908 0.0164 0.0
C332 C 0.14647 0.62918 0.96427 0.0
C333 C 0.13868 0.58689 0.93485 0.0
H334 H 0.13439 0.64531 0.0254 0.0
H335 H 0.15608 0.67737 0.95554 0.0
S336 S 0.09065 0.41987 0.95151 0.0
N337 N 0.08873 0.44516 -0.00391 0.0
N338 N 0.11444 0.48066 0.92125 0.0
C339 C 0.12336 0.52498 0.94727 0.0
C340 C 0.10848 0.50594 0.98785 0.0
C341 C 0.61825 1.05066 0.39536 0.0
C342 C 0.59706 0.10389 0.4065 0.0
C343 C 0.61947 1.03799 0.35534 0.0
C344 C 0.60043 0.0784 0.32533 0.0
H345 H 0.62951 1.01673 0.41769 0.0
H346 H 0.63161 0.99484 0.34782 0.0
S347 S 0.55012 0.22727 0.3384 0.0
N348 N 0.56402 0.20024 0.38386 0.0
N349 N 0.56577 0.1756 0.3089 0.0
C350 C 0.58443 0.13366 0.33583 0.0
C351 C 0.5829 0.1466 0.37642 0.0
C352 C 0.52716 0.63909 0.69031 0.0
C353 C 0.58842 0.6688 0.70636 0.0
C354 C 0.52037 0.62985 0.64953 0.0
C355 C 0.57479 0.64902 0.6231 0.0
H356 H 0.48473 0.62104 0.70958 0.0
H357 H 0.47368 0.60376 0.63892 0.0
S358 S 0.74445 0.73201 0.64907 0.0
N359 N 0.70313 0.72114 0.69153 0.0
N360 N 0.69059 0.70148 0.61556 0.0
C361 C 0.63492 0.68144 0.6383 0.0
C362 C 0.64174 0.69167 0.6797 0.0
C363 C 0.59009 0.14536 0.67044 0.0
C364 C 0.55142 0.11246 0.64163 0.0
C365 C 0.55878 0.16395 0.70332 0.0
C366 C 0.48762 0.15042 0.70834 0.0
H367 H 0.64458 0.15767 0.66722 0.0
H368 H 0.5909 0.18644 0.72572 0.0
S369 S 0.36476 1.06381 0.64169 0.0
N370 N 0.43927 1.06561 0.62109 0.0
N371 N 0.38045 0.10216 0.6817 0.0
C372 C 0.44902 0.11791 0.67955 0.0
C373 C 0.48086 0.0985 0.64658 0.0
C374 C 0.60579 0.52842 0.96958 0.0
C375 C 0.61618 0.58291 0.9454 0.0
C376 C 0.60871 0.52911 0.01106 0.0
C377 C 0.61977 0.58424 0.02975 0.0
H378 H 0.59242 0.48512 0.95641 0.0
H379 H 0.59523 0.48659 0.02872 0.0
S380 S 0.65308 0.73893 0.97976 0.0
N381 N 0.64468 0.69307 0.94312 0.0
N382 N 0.64319 0.69425 0.0209 0.0
C383 C 0.63383 0.63867 0.00586 0.0
C384 C 0.63362 0.638 0.96369 0.0
C385 C 0.9979 0.58 0.27725 0.0
C386 C 0.04719 0.56236 0.25336 0.0
C387 C 1.00518 0.5795 0.3187 0.0
C388 C 0.0621 0.56164 0.33774 0.0
H389 H 0.95529 0.59761 0.26368 0.0
H390 H 0.96918 0.59806 0.33569 0.0
S391 S 0.20232 0.50611 0.28985 0.0
N392 N 0.1518 0.52095 0.25276 0.0
N393 N 0.166 0.52231 0.33031 0.0
C394 C 0.10916 0.54006 0.31464 0.0
C395 C 0.10155 0.53977 0.27254 0.0
loop_
_geom_bond_atom_site_label_1
_geom_bond_atom_site_label_2
_geom_bond_distance
_geom_bond_site_symmetry_2
_ccdc_geom_bond_type
Pr0 C2 2.880 . S
Pr0 O20 2.562 . S
Pr0 O21 2.490 . S
Pr0 O22 2.695 1_655 S
Pr0 O23 2.512 . S
Pr0 O25 2.437 . S
Pr0 O28 2.436 . S
Pr0 O30 2.438 1_655 S
Pr1 C11 2.880 . S
Pr1 O22 2.436 . S
Pr1 O24 2.438 1_455 S
Pr1 O26 2.562 . S
Pr1 O27 2.490 . S
Pr1 O28 2.695 1_455 S
Pr1 O29 2.512 . S
Pr1 O31 2.437 . S
C2 Pr0 2.880 . S
C2 C3 1.491 . S
C2 O20 1.254 . S
C2 O21 1.225 . S
C3 C2 1.491 . S
C3 C4 1.392 . S
C3 C8 1.356 . S
C4 C3 1.392 . S
C4 C5 1.368 . S
C4 H32 0.929 . S
C5 C4 1.368 . S
C5 C6 1.386 . S
C5 H33 0.929 . S
C6 C5 1.386 . S
C6 C7 1.373 . S
C7 C6 1.373 . S
C7 C8 1.409 . S
C7 H34 0.931 . S
C8 C3 1.356 . S
C8 C7 1.409 . S
C8 H35 0.930 . S
C9 O22 1.270 . S
C9 O23 1.248 1_455 S
C10 O24 1.267 . S
C10 O25 1.278 . S
C11 Pr1 2.880 . S
C11 C12 1.491 . S
C11 O26 1.254 . S
C11 O27 1.225 . S
C12 C11 1.491 . S
C12 C13 1.392 . S
C12 C17 1.356 . S
C13 C12 1.392 . S
C13 C14 1.368 . S
C13 H36 0.929 . S
C14 C13 1.368 . S
C14 C15 1.386 . S
C14 H37 0.929 . S
C15 C14 1.386 . S
C15 C16 1.373 . S
C16 C15 1.373 . S
C16 C17 1.409 . S
C16 H38 0.931 . S
C17 C12 1.356 . S
C17 C16 1.409 . S
C17 H39 0.930 . S
C18 O28 1.270 1_455 S
C18 O29 1.248 . S
C19 O30 1.267 . S
C19 O31 1.278 . S
O20 Pr0 2.562 . S
O20 C2 1.254 . S
O21 Pr0 2.490 . S
O21 C2 1.225 . S
O22 Pr0 2.695 1_455 S
O22 Pr1 2.436 . S
O22 C9 1.270 . S
O23 Pr0 2.512 . S
O23 C9 1.248 1_655 S
O24 Pr1 2.438 1_655 S
O24 C10 1.267 . S
O25 Pr0 2.437 . S
O25 C10 1.278 . S
O26 Pr1 2.562 . S
O26 C11 1.254 . S
O27 Pr1 2.490 . S
O27 C11 1.225 . S
O28 Pr0 2.436 . S
O28 Pr1 2.695 1_655 S
O28 C18 1.270 1_655 S
O29 Pr1 2.512 . S
O29 C18 1.248 . S
O30 Pr0 2.438 1_455 S
O30 C19 1.267 . S
O31 Pr1 2.437 . S
O31 C19 1.278 . S
H32 C4 0.929 . S
H33 C5 0.929 . S
H34 C7 0.931 . S
H35 C8 0.930 . S
H36 C13 0.929 . S
H37 C14 0.929 . S
H38 C16 0.931 . S
H39 C17 0.930 . S
Pr40 C42 2.880 . S
Pr40 O60 2.562 . S
Pr40 O61 2.490 . S
Pr40 O62 2.695 1_545 S
Pr40 O63 2.512 . S
Pr40 O65 2.437 . S
Pr40 O68 2.436 . S
Pr40 O70 2.438 1_545 S
Pr41 C51 2.880 . S
Pr41 O62 2.436 . S
Pr41 O64 2.438 1_565 S
Pr41 O66 2.562 . S
Pr41 O67 2.490 . S
Pr41 O68 2.695 1_565 S
Pr41 O69 2.512 . S
Pr41 O71 2.437 . S
C42 Pr40 2.880 . S
C42 C43 1.491 . S
C42 O60 1.254 . S
C42 O61 1.225 . S
C43 C42 1.491 . S
C43 C44 1.392 . S
C43 C48 1.356 . S
C44 C43 1.392 . S
C44 C45 1.368 . S
C44 H72 0.929 . S
C45 C44 1.368 . S
C45 C46 1.386 . S
C45 H73 0.929 . S
C46 C45 1.386 . S
C46 C47 1.373 . S
C47 C46 1.373 . S
C47 C48 1.409 . S
C47 H74 0.931 . S
C48 C43 1.356 . S
C48 C47 1.409 . S
C48 H75 0.930 . S
C49 O62 1.270 1_545 S
C49 O63 1.248 . S
C50 O64 1.267 . S
C50 O65 1.278 . S
C51 Pr41 2.880 . S
C51 C52 1.491 . S
C51 O66 1.254 . S
C51 O67 1.225 . S
C52 C51 1.491 . S
C52 C53 1.392 . S
C52 C57 1.356 . S
C53 C52 1.392 . S
C53 C54 1.368 . S
C53 H76 0.929 . S
C54 C53 1.368 . S
C54 C55 1.386 . S
C54 H77 0.929 . S
C55 C54 1.386 . S
C55 C56 1.373 . S
C56 C55 1.373 . S
C56 C57 1.409 . S
C56 H78 0.931 . S
C57 C52 1.356 . S
C57 C56 1.409 . S
C57 H79 0.930 . S
C58 O68 1.270 . S
C58 O69 1.248 1_545 S
C59 O70 1.267 . S
C59 O71 1.278 . S
O60 Pr40 2.562 . S
O60 C42 1.254 . S
O61 Pr40 2.490 . S
O61 C42 1.225 . S
O62 Pr40 2.695 1_565 S
O62 Pr41 2.436 . S
O62 C49 1.270 1_565 S
O63 Pr40 2.512 . S
O63 C49 1.248 . S
O64 Pr41 2.438 1_545 S
O64 C50 1.267 . S
O65 Pr40 2.437 . S
O65 C50 1.278 . S
O66 Pr41 2.562 . S
O66 C51 1.254 . S
O67 Pr41 2.490 . S
O67 C51 1.225 . S
O68 Pr40 2.436 . S
O68 Pr41 2.695 1_545 S
O68 C58 1.270 . S
O69 Pr41 2.512 . S
O69 C58 1.248 1_565 S
O70 Pr40 2.438 1_565 S
O70 C59 1.267 . S
O71 Pr41 2.437 . S
O71 C59 1.278 . S
H72 C44 0.929 . S
H73 C45 0.929 . S
H74 C47 0.931 . S
H75 C48 0.930 . S
H76 C53 0.929 . S
H77 C54 0.929 . S
H78 C56 0.931 . S
H79 C57 0.930 . S
Pr80 C82 2.880 . S
Pr80 O100 2.562 . S
Pr80 O101 2.490 . S
Pr80 O102 2.695 . S
Pr80 O103 2.512 . S
Pr80 O105 2.437 . S
Pr80 O108 2.436 . S
Pr80 O110 2.438 . S
Pr81 C91 2.880 . S
Pr81 O102 2.436 . S
Pr81 O104 2.438 . S
Pr81 O106 2.562 . S
Pr81 O107 2.490 . S
Pr81 O108 2.695 . S
Pr81 O109 2.512 . S
Pr81 O111 2.437 . S
C82 Pr80 2.880 . S
C82 C83 1.491 . S
C82 O100 1.254 . S
C82 O101 1.225 . S
C83 C82 1.491 . S
C83 C84 1.392 . S
C83 C88 1.356 . S
C84 C83 1.392 . S
C84 C85 1.368 . S
C84 H112 0.929 . S
C85 C84 1.368 . S
C85 C86 1.386 . S
C85 H113 0.929 . S
C86 C85 1.386 . S
C86 C87 1.373 . S
C87 C86 1.373 . S
C87 C88 1.409 . S
C87 H114 0.931 . S
C88 C83 1.356 . S
C88 C87 1.409 . S
C88 H115 0.930 . S
C89 O102 1.270 . S
C89 O103 1.248 . S
C90 O104 1.267 . S
C90 O105 1.278 . S
C91 Pr81 2.880 . S
C91 C92 1.491 . S
C91 O106 1.254 . S
C91 O107 1.225 . S
C92 C91 1.491 . S
C92 C93 1.392 . S
C92 C97 1.356 . S
C93 C92 1.392 . S
C93 C94 1.368 . S
C93 H116 0.929 . S
C94 C93 1.368 . S
C94 C95 1.386 . S
C94 H117 0.929 . S
C95 C94 1.386 . S
C95 C96 1.373 . S
C96 C95 1.373 . S
C96 C97 1.409 . S
C96 H118 0.931 . S
C97 C92 1.356 . S
C97 C96 1.409 . S
C97 H119 0.930 . S
C98 O108 1.270 . S
C98 O109 1.248 . S
C99 O110 1.267 . S
C99 O111 1.278 . S
O100 Pr80 2.562 . S
O100 C82 1.254 . S
O101 Pr80 2.490 . S
O101 C82 1.225 . S
O102 Pr80 2.695 . S
O102 Pr81 2.436 . S
O102 C89 1.270 . S
O103 Pr80 2.512 . S
O103 C89 1.248 . S
O104 Pr81 2.438 . S
O104 C90 1.267 . S
O105 Pr80 2.437 . S
O105 C90 1.278 . S
O106 Pr81 2.562 . S
O106 C91 1.254 . S
O107 Pr81 2.490 . S
O107 C91 1.225 . S
O108 Pr80 2.436 . S
O108 Pr81 2.695 . S
O108 C98 1.270 . S
O109 Pr81 2.512 . S
O109 C98 1.248 . S
O110 Pr80 2.438 . S
O110 C99 1.267 . S
O111 Pr81 2.437 . S
O111 C99 1.278 . S
H112 C84 0.929 . S
H113 C85 0.929 . S
H114 C87 0.931 . S
H115 C88 0.930 . S
H116 C93 0.929 . S
H117 C94 0.929 . S
H118 C96 0.931 . S
H119 C97 0.930 . S
C120 N121 1.317 . S
C120 N122 1.348 1_545 S
C120 C123 1.485 . S
N121 C120 1.317 . S
N121 N125 1.370 . S
N122 C120 1.348 1_565 S
N122 C124 1.346 . S
C123 C120 1.485 . S
C123 H127 0.960 . S
C123 H128 0.961 1_545 S
C123 H129 0.960 . S
C124 N122 1.346 . S
C124 N125 1.307 1_565 S
C124 C126 1.486 . S
N125 N121 1.370 . S
N125 C124 1.307 1_545 S
C126 C124 1.486 . S
C126 H130 0.960 . S
C126 H131 0.960 . S
C126 H132 0.959 . S
H127 C123 0.960 . S
H128 C123 0.961 1_565 S
H129 C123 0.960 . S
H130 C126 0.960 . S
H131 C126 0.960 . S
H132 C126 0.959 . S
C133 N134 1.317 . S
C133 N135 1.348 . S
C133 C136 1.485 . S
N134 C133 1.317 . S
N134 N138 1.370 . S
N135 C133 1.348 . S
N135 C137 1.346 . S
C136 C133 1.485 . S
C136 H140 0.960 . S
C136 H141 0.961 . S
C136 H142 0.960 . S
C137 N135 1.346 . S
C137 N138 1.307 . S
C137 C139 1.486 . S
N138 N134 1.370 . S
N138 C137 1.307 . S
C139 C137 1.486 . S
C139 H143 0.960 . S
C139 H144 0.960 . S
C139 H145 0.959 . S
H140 C136 0.960 . S
H141 C136 0.961 . S
H142 C136 0.960 . S
H143 C139 0.960 . S
H144 C139 0.960 . S
H145 C139 0.959 . S
C146 N147 1.317 . S
C146 N148 1.348 1_455 S
C146 C149 1.485 . S
N147 C146 1.317 . S
N147 N151 1.370 . S
N148 C146 1.348 1_655 S
N148 C150 1.346 . S
C149 C146 1.485 . S
C149 H153 0.960 . S
C149 H154 0.961 . S
C149 H155 0.960 . S
C150 N148 1.346 . S
C150 N151 1.307 1_655 S
C150 C152 1.486 . S
N151 N147 1.370 . S
N151 C150 1.307 1_455 S
C152 C150 1.486 . S
C152 H156 0.960 . S
C152 H157 0.960 . S
C152 H158 0.959 . S
H153 C149 0.960 . S
H154 C149 0.961 . S
H155 C149 0.960 . S
H156 C152 0.960 . S
H157 C152 0.960 . S
H158 C152 0.959 . S
C159 N160 1.317 . S
C159 N161 1.348 . S
C159 C162 1.485 . S
N160 C159 1.317 . S
N160 N164 1.370 . S
N161 C159 1.348 . S
N161 C163 1.346 . S
C162 C159 1.485 . S
C162 H166 0.960 . S
C162 H167 0.961 . S
C162 H168 0.960 . S
C163 N161 1.346 . S
C163 N164 1.307 . S
C163 C165 1.486 . S
N164 N160 1.370 . S
N164 C163 1.307 . S
C165 C163 1.486 . S
C165 H169 0.960 . S
C165 H170 0.960 . S
C165 H171 0.959 . S
H166 C162 0.960 . S
H167 C162 0.961 . S
H168 C162 0.960 . S
H169 C165 0.960 . S
H170 C165 0.960 . S
H171 C165 0.959 . S
C172 N173 1.317 . S
C172 N174 1.348 . S
C172 C175 1.485 . S
N173 C172 1.317 . S
N173 N177 1.370 . S
N174 C172 1.348 . S
N174 C176 1.346 . S
C175 C172 1.485 . S
C175 H179 0.960 . S
C175 H180 0.961 . S
C175 H181 0.960 1_545 S
C176 N174 1.346 . S
C176 N177 1.307 . S
C176 C178 1.486 . S
N177 N173 1.370 . S
N177 C176 1.307 . S
C178 C176 1.486 . S
C178 H182 0.960 . S
C178 H183 0.960 . S
C178 H184 0.959 . S
H179 C175 0.960 . S
H180 C175 0.961 . S
H181 C175 0.960 1_565 S
H182 C178 0.960 . S
H183 C178 0.960 . S
H184 C178 0.959 . S
C185 N186 1.317 . S
C185 N187 1.348 . S
C185 C188 1.485 . S
N186 C185 1.317 . S
N186 N190 1.370 . S
N187 C185 1.348 . S
N187 C189 1.346 . S
C188 C185 1.485 . S
C188 H192 0.960 . S
C188 H193 0.961 . S
C188 H194 0.960 . S
C189 N187 1.346 . S
C189 N190 1.307 . S
C189 C191 1.486 . S
N190 N186 1.370 . S
N190 C189 1.307 . S
C191 C189 1.486 . S
C191 H195 0.960 . S
C191 H196 0.960 . S
C191 H197 0.959 . S
H192 C188 0.960 . S
H193 C188 0.961 . S
H194 C188 0.960 . S
H195 C191 0.960 . S
H196 C191 0.960 . S
H197 C191 0.959 . S
C198 C199 1.369 . S
C198 C200 1.419 . S
C198 H202 0.930 . S
C199 C198 1.369 . S
C199 C208 1.429 . S
C200 C198 1.419 . S
C200 C201 1.363 . S
C200 H203 0.929 . S
C201 C200 1.363 . S
C201 C207 1.428 . S
H202 C198 0.930 . S
H203 C200 0.929 . S
S204 N205 1.613 . S
S204 N206 1.610 . S
N205 S204 1.613 . S
N205 C208 1.350 . S
N206 S204 1.610 . S
N206 C207 1.351 . S
C207 C201 1.428 . S
C207 N206 1.351 . S
C207 C208 1.434 . S
C208 C199 1.429 . S
C208 N205 1.350 . S
C208 C207 1.434 . S
C209 C210 1.369 . S
C209 C211 1.419 . S
C209 H213 0.930 . S
C210 C209 1.369 . S
C210 C219 1.429 1_655 S
C211 C209 1.419 . S
C211 C212 1.363 . S
C211 H214 0.929 . S
C212 C211 1.363 . S
C212 C218 1.428 1_655 S
H213 C209 0.930 . S
H214 C211 0.929 . S
S215 N216 1.613 . S
S215 N217 1.610 . S
N216 S215 1.613 . S
N216 C219 1.350 . S
N217 S215 1.610 . S
N217 C218 1.351 . S
C218 C212 1.428 1_455 S
C218 N217 1.351 . S
C218 C219 1.434 . S
C219 C210 1.429 1_455 S
C219 N216 1.350 . S
C219 C218 1.434 . S
C220 C221 1.369 . S
C220 C222 1.419 . S
C220 H224 0.930 . S
C221 C220 1.369 . S
C221 C230 1.429 . S
C222 C220 1.419 . S
C222 C223 1.363 . S
C222 H225 0.929 . S
C223 C222 1.363 . S
C223 C229 1.428 . S
H224 C220 0.930 . S
H225 C222 0.929 . S
S226 N227 1.613 1_545 S
S226 N228 1.610 . S
N227 S226 1.613 1_565 S
N227 C230 1.350 . S
N228 S226 1.610 . S
N228 C229 1.351 1_545 S
C229 C223 1.428 . S
C229 N228 1.351 1_565 S
C229 C230 1.434 . S
C230 C221 1.429 . S
C230 N227 1.350 . S
C230 C229 1.434 . S
C231 C232 1.369 . S
C231 C233 1.419 . S
C231 H235 0.930 . S
C232 C231 1.369 . S
C232 C241 1.429 . S
C233 C231 1.419 . S
C233 C234 1.363 . S
C233 H236 0.929 . S
C234 C233 1.363 . S
C234 C240 1.428 . S
H235 C231 0.930 . S
H236 C233 0.929 . S
S237 N238 1.613 . S
S237 N239 1.610 . S
N238 S237 1.613 . S
N238 C241 1.350 . S
N239 S237 1.610 . S
N239 C240 1.351 . S
C240 C234 1.428 . S
C240 N239 1.351 . S
C240 C241 1.434 . S
C241 C232 1.429 . S
C241 N238 1.350 . S
C241 C240 1.434 . S
C242 C243 1.369 . S
C242 C244 1.419 . S
C242 H246 0.930 . S
C243 C242 1.369 . S
C243 C252 1.429 . S
C244 C242 1.419 . S
C244 C245 1.363 . S
C244 H247 0.929 . S
C245 C244 1.363 . S
C245 C251 1.428 . S
H246 C242 0.930 . S
H247 C244 0.929 . S
S248 N249 1.613 . S
S248 N250 1.610 . S
N249 S248 1.613 . S
N249 C252 1.350 . S
N250 S248 1.610 . S
N250 C251 1.351 . S
C251 C245 1.428 . S
C251 N250 1.351 . S
C251 C252 1.434 . S
C252 C243 1.429 . S
C252 N249 1.350 . S
C252 C251 1.434 . S
C253 C254 1.369 . S
C253 C255 1.419 . S
C253 H257 0.930 . S
C254 C253 1.369 . S
C254 C263 1.429 . S
C255 C253 1.419 . S
C255 C256 1.363 . S
C255 H258 0.929 . S
C256 C255 1.363 . S
C256 C262 1.428 . S
H257 C253 0.930 . S
H258 C255 0.929 . S
S259 N260 1.613 . S
S259 N261 1.610 . S
N260 S259 1.613 . S
N260 C263 1.350 . S
N261 S259 1.610 . S
N261 C262 1.351 . S
C262 C256 1.428 . S
C262 N261 1.351 . S
C262 C263 1.434 . S
C263 C254 1.429 . S
C263 N260 1.350 . S
C263 C262 1.434 . S
C264 C265 1.369 . S
C264 C266 1.419 . S
C264 H268 0.930 . S
C265 C264 1.369 . S
C265 C274 1.429 . S
C266 C264 1.419 . S
C266 C267 1.363 . S
C266 H269 0.929 . S
C267 C266 1.363 . S
C267 C273 1.428 . S
H268 C264 0.930 . S
H269 C266 0.929 . S
S270 N271 1.613 . S
S270 N272 1.610 . S
N271 S270 1.613 . S
N271 C274 1.350 . S
N272 S270 1.610 . S
N272 C273 1.351 . S
C273 C267 1.428 . S
C273 N272 1.351 . S
C273 C274 1.434 . S
C274 C265 1.429 . S
C274 N271 1.350 . S
C274 C273 1.434 . S
C275 C276 1.369 . S
C275 C277 1.419 . S
C275 H279 0.930 . S
C276 C275 1.369 . S
C276 C285 1.429 . S
C277 C275 1.419 . S
C277 C278 1.363 . S
C277 H280 0.929 . S
C278 C277 1.363 . S
C278 C284 1.428 . S
H279 C275 0.930 . S
H280 C277 0.929 . S
S281 N282 1.613 . S
S281 N283 1.610 . S
N282 S281 1.613 . S
N282 C285 1.350 . S
N283 S281 1.610 . S
N283 C284 1.351 . S
C284 C278 1.428 . S
C284 N283 1.351 . S
C284 C285 1.434 . S
C285 C276 1.429 . S
C285 N282 1.350 . S
C285 C284 1.434 . S
C286 C287 1.369 . S
C286 C288 1.419 . S
C286 H290 0.930 . S
C287 C286 1.369 . S
C287 C296 1.429 . S
C288 C286 1.419 . S
C288 C289 1.363 . S
C288 H291 0.929 . S
C289 C288 1.363 . S
C289 C295 1.428 . S
H290 C286 0.930 . S
H291 C288 0.929 . S
S292 N293 1.613 . S
S292 N294 1.610 . S
N293 S292 1.613 . S
N293 C296 1.350 . S
N294 S292 1.610 . S
N294 C295 1.351 . S
C295 C289 1.428 . S
C295 N294 1.351 . S
C295 C296 1.434 . S
C296 C287 1.429 . S
C296 N293 1.350 . S
C296 C295 1.434 . S
C297 C298 1.369 . S
C297 C299 1.419 . S
C297 H301 0.930 . S
C298 C297 1.369 . S
C298 C307 1.429 . S
C299 C297 1.419 . S
C299 C300 1.363 . S
C299 H302 0.929 . S
C300 C299 1.363 . S
C300 C306 1.428 . S
H301 C297 0.930 . S
H302 C299 0.929 . S
S303 N304 1.613 . S
S303 N305 1.610 . S
N304 S303 1.613 . S
N304 C307 1.350 . S
N305 S303 1.610 . S
N305 C306 1.351 . S
C306 C300 1.428 . S
C306 N305 1.351 . S
C306 C307 1.434 . S
C307 C298 1.429 . S
C307 N304 1.350 . S
C307 C306 1.434 . S
C308 C309 1.369 . S
C308 C310 1.419 . S
C308 H312 0.930 . S
C309 C308 1.369 . S
C309 C318 1.429 . S
C310 C308 1.419 . S
C310 C311 1.363 . S
C310 H313 0.929 . S
C311 C310 1.363 . S
C311 C317 1.428 . S
H312 C308 0.930 . S
H313 C310 0.929 . S
S314 N315 1.613 . S
S314 N316 1.610 . S
N315 S314 1.613 . S
N315 C318 1.350 . S
N316 S314 1.610 . S
N316 C317 1.351 . S
C317 C311 1.428 . S
C317 N316 1.351 . S
C317 C318 1.434 . S
C318 C309 1.429 . S
C318 N315 1.350 . S
C318 C317 1.434 . S
C319 C320 1.369 . S
C319 C321 1.419 . S
C319 H323 0.930 . S
C320 C319 1.369 . S
C320 C329 1.429 . S
C321 C319 1.419 . S
C321 C322 1.363 . S
C321 H324 0.929 . S
C322 C321 1.363 . S
C322 C328 1.428 . S
H323 C319 0.930 . S
H324 C321 0.929 . S
S325 N326 1.613 . S
S325 N327 1.610 . S
N326 S325 1.613 . S
N326 C329 1.350 . S
N327 S325 1.610 . S
N327 C328 1.351 . S
C328 C322 1.428 . S
C328 N327 1.351 . S
C328 C329 1.434 . S
C329 C320 1.429 . S
C329 N326 1.350 . S
C329 C328 1.434 . S
C330 C331 1.369 . S
C330 C332 1.419 1_554 S
C330 H334 0.930 . S
C331 C330 1.369 . S
C331 C340 1.429 1_455 S
C332 C330 1.419 1_556 S
C332 C333 1.363 . S
C332 H335 0.929 . S
C333 C332 1.363 . S
C333 C339 1.428 1_455 S
H334 C330 0.930 . S
H335 C332 0.929 . S
S336 N337 1.613 1_556 S
S336 N338 1.610 . S
N337 S336 1.613 1_554 S
N337 C340 1.350 . S
N338 S336 1.610 . S
N338 C339 1.351 . S
C339 C333 1.428 1_655 S
C339 N338 1.351 . S
C339 C340 1.434 1_556 S
C340 C331 1.429 1_655 S
C340 N337 1.350 . S
C340 C339 1.434 1_554 S
C341 C342 1.369 1_565 S
C341 C343 1.419 . S
C341 H345 0.930 . S
C342 C341 1.369 1_545 S
C342 C351 1.429 . S
C343 C341 1.419 . S
C343 C344 1.363 1_565 S
C343 H346 0.929 . S
C344 C343 1.363 1_545 S
C344 C350 1.428 . S
H345 C341 0.930 . S
H346 C343 0.929 . S
S347 N348 1.613 . S
S347 N349 1.610 . S
N348 S347 1.613 . S
N348 C351 1.350 . S
N349 S347 1.610 . S
N349 C350 1.351 . S
C350 C344 1.428 . S
C350 N349 1.351 . S
C350 C351 1.434 . S
C351 C342 1.429 . S
C351 N348 1.350 . S
C351 C350 1.434 . S
C352 C353 1.369 . S
C352 C354 1.419 . S
C352 H356 0.930 . S
C353 C352 1.369 . S
C353 C362 1.429 . S
C354 C352 1.419 . S
C354 C355 1.363 . S
C354 H357 0.929 . S
C355 C354 1.363 . S
C355 C361 1.428 . S
H356 C352 0.930 . S
H357 C354 0.929 . S
S358 N359 1.613 . S
S358 N360 1.610 . S
N359 S358 1.613 . S
N359 C362 1.350 . S
N360 S358 1.610 . S
N360 C361 1.351 . S
C361 C355 1.428 . S
C361 N360 1.351 . S
C361 C362 1.434 . S
C362 C353 1.429 . S
C362 N359 1.350 . S
C362 C361 1.434 . S
C363 C364 1.369 . S
C363 C365 1.419 . S
C363 H367 0.930 . S
C364 C363 1.369 . S
C364 C373 1.429 1_545 S
C365 C363 1.419 . S
C365 C366 1.363 . S
C365 H368 0.929 . S
C366 C365 1.363 . S
C366 C372 1.428 1_545 S
H367 C363 0.930 . S
H368 C365 0.929 . S
S369 N370 1.613 . S
S369 N371 1.610 . S
N370 S369 1.613 . S
N370 C373 1.350 . S
N371 S369 1.610 . S
N371 C372 1.351 . S
C372 C366 1.428 1_565 S
C372 N371 1.351 . S
C372 C373 1.434 . S
C373 C364 1.429 1_565 S
C373 N370 1.350 . S
C373 C372 1.434 . S
C374 C375 1.369 . S
C374 C376 1.419 1_556 S
C374 H378 0.930 . S
C375 C374 1.369 . S
C375 C384 1.429 . S
C376 C374 1.419 1_554 S
C376 C377 1.363 . S
C376 H379 0.929 . S
C377 C376 1.363 . S
C377 C383 1.428 . S
H378 C374 0.930 . S
H379 C376 0.929 . S
S380 N381 1.613 1_554 S
S380 N382 1.610 . S
N381 S380 1.613 1_556 S
N381 C384 1.350 . S
N382 S380 1.610 . S
N382 C383 1.351 . S
C383 C377 1.428 . S
C383 N382 1.351 . S
C383 C384 1.434 1_554 S
C384 C375 1.429 . S
C384 N381 1.350 . S
C384 C383 1.434 1_556 S
C385 C386 1.369 1_655 S
C385 C387 1.419 . S
C385 H389 0.930 . S
C386 C385 1.369 1_455 S
C386 C395 1.429 . S
C387 C385 1.419 . S
C387 C388 1.363 1_655 S
C387 H390 0.929 . S
C388 C387 1.363 1_455 S
C388 C394 1.428 . S
H389 C385 0.930 . S
H390 C387 0.929 . S
S391 N392 1.613 . S
S391 N393 1.610 . S
N392 S391 1.613 . S
N392 C395 1.350 . S
N393 S391 1.610 . S
N393 C394 1.351 . S
C394 C388 1.428 . S
C394 N393 1.351 . S
C394 C395 1.434 . S
C395 C386 1.429 . S
C395 N392 1.350 . S
C395 C394 1.434 . S
C199 C19 1.760 . S
C201 N187 1.718 . S
C210 C46 1.455 . S
C212 N160 1.452 1_655 S
C221 C95 0.770 . S
C223 N173 0.748 1_565 S
C232 C10 2.098 . S
C234 N186 2.144 . S
C245 N161 1.489 . S
C243 C55 1.433 . S
C256 N174 1.292 . S
C254 C86 1.153 . S
C265 C59 3.055 . S
C267 N134 3.057 . S
C276 C90 1.825 . S
C278 N148 1.799 . S
C287 C15 1.443 . S
C289 N122 1.519 . S
C300 N135 3.097 . S
C298 C50 3.085 . S
C311 N147 2.151 . S
C309 C99 2.100 . S
C320 C6 1.183 . S
C322 N121 1.197 . S
C333 N151 1.421 . S
C331 C9 1.436 . S
C342 C58 1.472 . S
C344 N125 1.612 . S
C353 C98 1.734 . S
C355 N138 1.768 . S
C366 N177 1.295 . S
C364 C49 1.311 . S
C377 N190 1.392 . S
C375 C89 1.373 . S
C386 C18 1.432 . S
C388 N164 1.511 . S
