# Generated by pormake.
# Topology apo, (3,6)-cn, num edge types: 1
# Building blocks:
#     Node 0, Type 0, BuildingBlock: QEWDON_clean_linker_0, # of connection points: 3
#     Node 1, Type 0, BuildingBlock: QEWDON_clean_linker_0, # of connection points: 3
#     Node 2, Type 0, BuildingBlock: QEWDON_clean_linker_0, # of connection points: 3
#     Node 3, Type 0, BuildingBlock: QEWDON_clean_linker_0, # of connection points: 3
#     Node 4, Type 0, BuildingBlock: QEWDON_clean_linker_0, # of connection points: 3
#     Node 5, Type 0, BuildingBlock: QEWDON_clean_linker_0, # of connection points: 3
#     Node 6, Type 0, BuildingBlock: QEWDON_clean_linker_0, # of connection points: 3
#     Node 7, Type 0, BuildingBlock: QEWDON_clean_linker_0, # of connection points: 3
#     Node 8, Type 1, BuildingBlock: KUMBOL_clean_sbu_1, # of connection points: 6
#     Node 9, Type 1, BuildingBlock: KUMBOL_clean_sbu_1, # of connection points: 6
#     Node 10, Type 1, BuildingBlock: KUMBOL_clean_sbu_1, # of connection points: 6
#     Node 11, Type 1, BuildingBlock: KUMBOL_clean_sbu_1, # of connection points: 6
#     Edge 12, Type (0, 1), BuildingBlock: OJICUG_clean_linker_0, # of connection points: 2
#     Edge 13, Type (0, 1), BuildingBlock: OJICUG_clean_linker_0, # of connection points: 2
#     Edge 14, Type (0, 1), BuildingBlock: OJICUG_clean_linker_0, # of connection points: 2
#     Edge 15, Type (0, 1), BuildingBlock: OJICUG_clean_linker_0, # of connection points: 2
#     Edge 16, Type (0, 1), BuildingBlock: OJICUG_clean_linker_0, # of connection points: 2
#     Edge 17, Type (0, 1), BuildingBlock: OJICUG_clean_linker_0, # of connection points: 2
#     Edge 18, Type (0, 1), BuildingBlock: OJICUG_clean_linker_0, # of connection points: 2
#     Edge 19, Type (0, 1), BuildingBlock: OJICUG_clean_linker_0, # of connection points: 2
#     Edge 20, Type (0, 1), BuildingBlock: OJICUG_clean_linker_0, # of connection points: 2
#     Edge 21, Type (0, 1), BuildingBlock: OJICUG_clean_linker_0, # of connection points: 2
#     Edge 22, Type (0, 1), BuildingBlock: OJICUG_clean_linker_0, # of connection points: 2
#     Edge 23, Type (0, 1), BuildingBlock: OJICUG_clean_linker_0, # of connection points: 2
#     Edge 24, Type (0, 1), BuildingBlock: OJICUG_clean_linker_0, # of connection points: 2
#     Edge 25, Type (0, 1), BuildingBlock: OJICUG_clean_linker_0, # of connection points: 2
#     Edge 26, Type (0, 1), BuildingBlock: OJICUG_clean_linker_0, # of connection points: 2
#     Edge 27, Type (0, 1), BuildingBlock: OJICUG_clean_linker_0, # of connection points: 2
#     Edge 28, Type (0, 1), BuildingBlock: OJICUG_clean_linker_0, # of connection points: 2
#     Edge 29, Type (0, 1), BuildingBlock: OJICUG_clean_linker_0, # of connection points: 2
#     Edge 30, Type (0, 1), BuildingBlock: OJICUG_clean_linker_0, # of connection points: 2
#     Edge 31, Type (0, 1), BuildingBlock: OJICUG_clean_linker_0, # of connection points: 2
#     Edge 32, Type (0, 1), BuildingBlock: OJICUG_clean_linker_0, # of connection points: 2
#     Edge 33, Type (0, 1), BuildingBlock: OJICUG_clean_linker_0, # of connection points: 2
#     Edge 34, Type (0, 1), BuildingBlock: OJICUG_clean_linker_0, # of connection points: 2
#     Edge 35, Type (0, 1), BuildingBlock: OJICUG_clean_linker_0, # of connection points: 2
# Relax obj value: 0.076
# Max RMSD: 0.276
# Mean RMSD: 0.217
data_MOF--net-apo--node1-KUMBOL_clean_sbu_1--node2-QEWDON_clean_linker_0--edge1-OJICUG_clean_linker_0
_symmetry_space_group_name_H-M    P1
_symmetry_Int_Tables_number       1
_symmetry_cell_setting            triclinic
loop_
_symmetry_equiv_pos_as_xyz
'x, y, z'
_cell_length_a     22.701587
_cell_length_b     31.373155
_cell_length_c     39.639445
_cell_angle_alpha  89.661051
_cell_angle_beta   89.812652
_cell_angle_gamma 90.775366
loop_
_atom_site_label
_atom_site_type_symbol
_atom_site_fract_x
_atom_site_fract_y
_atom_site_fract_z
_atom_type_partial_charge
H0 H 0.29244 0.41984 0.36817 0.0
C1 C 0.31091 0.4197 0.39335 0.0
C2 C 0.3626 0.44356 0.40019 0.0
C3 C 0.28154 0.39734 0.41939 0.0
H4 H 0.4221 0.46518 0.43885 0.0
C5 C 0.38429 0.44494 0.43342 0.0
C6 C 0.35493 0.42323 0.45992 0.0
C7 C 0.30446 0.39868 0.45224 0.0
C8 C 0.22221 0.37795 0.41427 0.0
H9 H 0.28138 0.38136 0.47211 0.0
C10 C 0.21275 0.34178 0.3938 0.0
C11 C 0.1565 0.32189 0.39288 0.0
C12 C 0.17468 0.3947 0.43248 0.0
H13 H 0.1809 0.42246 0.44828 0.0
C14 C 0.11901 0.37563 0.43091 0.0
H15 H 0.24912 0.3283 0.37989 0.0
C16 C 0.11002 0.33927 0.41152 0.0
H17 H 0.06652 0.32463 0.41097 0.0
H18 H 0.08283 0.38877 0.44514 0.0
H19 H 0.21612 0.10128 0.86561 0.0
C20 C 0.19676 0.1008 0.89065 0.0
C21 C 0.14292 0.0792 0.89633 0.0
C22 C 0.22745 0.1193 0.91764 0.0
H23 H 0.07748 0.06047 0.93298 0.0
C24 C 0.11899 0.07724 0.92909 0.0
C25 C 0.14997 0.09435 0.95678 0.0
C26 C 0.20402 0.11562 0.95043 0.0
C27 C 0.28796 0.13707 0.91296 0.0
H28 H 0.23006 0.12773 0.97119 0.0
C29 C 0.30056 0.17105 0.89035 0.0
C30 C 0.35843 0.18826 0.8879 0.0
C31 C 0.33365 0.12008 0.93246 0.0
H32 H 0.32521 0.09376 0.94972 0.0
C33 C 0.39053 0.13681 0.93012 0.0
H34 H 0.26555 0.18416 0.87513 0.0
C35 C 0.40281 0.17073 0.90832 0.0
H36 H 0.44726 0.1837 0.90796 0.0
H37 H 0.42521 0.12371 0.94555 0.0
H38 H 0.72617 0.09347 0.68896 0.0
C39 C 0.74121 0.09776 0.66316 0.0
C40 C 0.79084 0.07579 0.65153 0.0
C41 C 0.70784 0.12244 0.64089 0.0
H42 H 0.84528 0.06301 0.60775 0.0
C43 C 0.80732 0.07983 0.61722 0.0
C44 C 0.77466 0.10514 0.59485 0.0
C45 C 0.7251 0.12646 0.607 0.0
C46 C 0.64994 0.13844 0.65144 0.0
H47 H 0.69803 0.1445 0.58968 0.0
C48 C 0.6449 0.17466 0.67195 0.0
C49 C 0.58885 0.19074 0.67955 0.0
C50 C 0.59894 0.11771 0.63961 0.0
H51 H 0.60221 0.08974 0.62383 0.0
C52 C 0.54342 0.13299 0.64789 0.0
H53 H 0.68419 0.19115 0.6807 0.0
C54 C 0.53831 0.16946 0.66752 0.0
H55 H 0.49478 0.18133 0.67317 0.0
H56 H 0.50426 0.11687 0.63866 0.0
H57 H 0.7723 0.42227 0.19016 0.0
C58 C 0.7563 0.41929 0.16454 0.0
C59 C 0.70781 0.44324 0.15387 0.0
C60 C 0.78769 0.39455 0.14142 0.0
H61 H 0.65219 0.45872 0.11141 0.0
C62 C 0.68972 0.44061 0.11991 0.0
C63 C 0.72056 0.41577 0.09651 0.0
C64 C 0.76943 0.39265 0.10762 0.0
C65 C 0.84487 0.37632 0.1511 0.0
H66 H 0.79532 0.37491 0.0896 0.0
C67 C 0.84841 0.34177 0.1738 0.0
C68 C 0.9036 0.32439 0.18154 0.0
C69 C 0.89668 0.39377 0.13696 0.0
H70 H 0.89471 0.42047 0.11955 0.0
C71 C 0.9514 0.37704 0.14522 0.0
H72 H 0.80857 0.3277 0.18444 0.0
C73 C 0.9549 0.34237 0.16724 0.0
H74 H 0.99765 0.3291 0.1728 0.0
H75 H 0.99113 0.39065 0.1342 0.0
H76 H 0.65512 0.6354 0.69438 0.0
C77 C 0.65612 0.62579 0.66815 0.0
C78 C 0.63733 0.58467 0.65916 0.0
C79 C 0.67351 0.65526 0.64329 0.0
H80 H 0.61631 0.54265 0.61882 0.0
C81 C 0.63506 0.57346 0.62489 0.0
C82 C 0.65288 0.60233 0.59913 0.0
C83 C 0.67322 0.6432 0.60918 0.0
C84 C 0.68066 0.70074 0.65223 0.0
H85 H 0.6876 0.66672 0.59082 0.0
C86 C 0.73338 0.71747 0.6659 0.0
C87 C 0.73796 0.76129 0.67382 0.0
C88 C 0.63261 0.72763 0.64716 0.0
H89 H 0.59174 0.71521 0.63684 0.0
C90 C 0.63649 0.77055 0.6557 0.0
H91 H 0.7707 0.69681 0.66957 0.0
C92 C 0.68857 0.78728 0.66895 0.0
H93 H 0.69006 0.82073 0.6756 0.0
H94 H 0.59896 0.79096 0.65201 0.0
H95 H 0.8653 0.8834 0.19595 0.0
C96 C 0.86566 0.89235 0.16948 0.0
C97 C 0.88453 0.93346 0.15986 0.0
C98 C 0.85022 0.86204 0.14506 0.0
H99 H 0.9021 0.97613 0.11827 0.0
C100 C 0.88728 0.94435 0.12542 0.0
C101 C 0.87357 0.91406 0.10032 0.0
C102 C 0.85467 0.87292 0.11061 0.0
C103 C 0.84068 0.817 0.15537 0.0
H104 H 0.84616 0.84855 0.09192 0.0
C105 C 0.78628 0.80175 0.16847 0.0
C106 C 0.77953 0.7584 0.17808 0.0
C107 C 0.88814 0.7891 0.1526 0.0
H108 H 0.93024 0.80033 0.14282 0.0
C109 C 0.88215 0.74675 0.16287 0.0
H110 H 0.74939 0.82316 0.17041 0.0
C111 C 0.82852 0.7315 0.17554 0.0
H112 H 0.82548 0.69847 0.18355 0.0
H113 H 0.91928 0.7256 0.16099 0.0
H114 H 0.18364 0.88197 0.35942 0.0
C115 C 0.19263 0.88701 0.38586 0.0
C116 C 0.18892 0.92801 0.40034 0.0
C117 C 0.20469 0.85112 0.40572 0.0
H118 H 0.19664 0.96223 0.4478 0.0
C119 C 0.19819 0.93157 0.43561 0.0
C120 C 0.20713 0.89527 0.45599 0.0
C121 C 0.21126 0.85532 0.44058 0.0
C122 C 0.20512 0.80819 0.39075 0.0
H123 H 0.21899 0.8271 0.45578 0.0
C124 C 0.25516 0.79335 0.37366 0.0
C125 C 0.25704 0.75083 0.36263 0.0
C126 C 0.15647 0.78081 0.39578 0.0
H127 H 0.11777 0.79177 0.40905 0.0
C128 C 0.15777 0.73896 0.38414 0.0
H129 H 0.29325 0.81417 0.37026 0.0
C130 C 0.20794 0.72386 0.36793 0.0
H131 H 0.20858 0.69104 0.35959 0.0
H132 H 0.12016 0.71795 0.38817 0.0
H133 H 0.31821 0.63947 0.85801 0.0
C134 C 0.31929 0.63563 0.88515 0.0
C135 C 0.33516 0.59637 0.89999 0.0
C136 C 0.30708 0.67111 0.90514 0.0
H137 H 0.34779 0.5638 0.94792 0.0
C138 C 0.33451 0.593 0.93561 0.0
C139 C 0.32007 0.62812 0.95583 0.0
C140 C 0.30717 0.66714 0.94028 0.0
C141 C 0.30146 0.71377 0.88972 0.0
H142 H 0.2974 0.69477 0.95553 0.0
C143 C 0.24981 0.7259 0.87289 0.0
C144 C 0.24475 0.76772 0.86032 0.0
C145 C 0.34807 0.74327 0.89322 0.0
H146 H 0.38807 0.73438 0.90618 0.0
C147 C 0.34335 0.78446 0.88019 0.0
H148 H 0.21334 0.70348 0.8705 0.0
C149 C 0.29183 0.79676 0.86398 0.0
H150 H 0.28843 0.8291 0.85447 0.0
H151 H 0.37944 0.80704 0.883 0.0
C152 C 0.85042 0.05338 0.30001 0.0
C153 C 0.86834 0.98145 0.3198 0.0
C154 C 0.88619 0.02454 0.31663 0.0
C155 C 0.81501 0.96772 0.30531 0.0
C156 C 0.79658 0.03989 0.28576 0.0
C157 C 0.77922 0.99686 0.28836 0.0
N158 N 0.86942 0.09454 0.29686 0.0
C159 C 0.83513 0.12437 0.28165 0.0
C160 C 0.76195 0.07006 0.26921 0.0
C161 C 0.78112 0.11253 0.26738 0.0
Gd162 Gd 0.08495 0.12019 0.24823 0.0
Gd163 Gd 0.96011 0.11166 0.32192 0.0
N164 N 0.93797 0.03872 0.33004 0.0
C165 C 0.90419 0.95358 0.3379 0.0
C166 C 0.97075 0.0123 0.34965 0.0
C167 C 0.95518 0.96925 0.35331 0.0
H168 H 0.00764 0.02455 0.36354 0.0
H169 H 0.98198 0.94836 0.36854 0.0
H170 H 0.06073 0.21547 0.21481 0.0
H171 H 0.84922 0.15734 0.28065 0.0
H172 H 0.11211 0.28531 0.20862 0.0
H173 H 0.89203 0.92026 0.34094 0.0
H174 H 0.80078 0.9347 0.30735 0.0
H175 H 0.19192 0.04955 0.26569 0.0
H176 H 0.72022 0.06097 0.25798 0.0
H177 H 0.75425 0.13617 0.25504 0.0
H178 H 0.30113 0.26253 0.25954 0.0
H179 H 0.7381 0.98583 0.27744 0.0
H180 H 0.34811 0.11946 0.29148 0.0
H181 H 0.29441 0.05072 0.28601 0.0
N182 N 0.18471 0.11699 0.26421 0.0
C183 C 0.2147 0.15478 0.26471 0.0
C184 C 0.21356 0.07978 0.27001 0.0
C185 C 0.3024 0.11917 0.28369 0.0
C186 C 0.27221 0.08032 0.28071 0.0
C187 C 0.27428 0.15695 0.27464 0.0
H188 H 0.35012 0.19869 0.28162 0.0
N189 N 0.1306 0.18715 0.24192 0.0
C190 C 0.18718 0.19083 0.25254 0.0
C191 C 0.19044 0.26442 0.23418 0.0
C192 C 0.21834 0.22985 0.2496 0.0
C193 C 0.10435 0.21982 0.22506 0.0
C194 C 0.1335 0.25915 0.22136 0.0
O195 O 0.94802 0.08312 0.26957 0.0
O196 O 0.03853 0.05733 0.25719 0.0
O197 O 0.04993 0.12049 0.19721 0.0
O198 O 0.14004 0.10242 0.20586 0.0
O199 O 0.05096 0.08798 0.33541 0.0
O200 O 0.09415 0.06502 0.28572 0.0
O201 O 0.07776 0.17591 0.28422 0.0
O202 O 0.0467 0.14513 0.33407 0.0
O203 O 0.94165 0.10148 0.37501 0.0
O204 O 0.90291 0.15499 0.34942 0.0
O205 O 0.99382 0.14731 0.24061 0.0
O206 O 0.95811 0.1727 0.29121 0.0
C207 C 0.98109 0.0542 0.25546 0.0
C208 C 0.08895 0.06429 0.31899 0.0
C209 C 0.09285 0.07384 0.15788 0.0
C210 C 0.09586 0.05441 0.098 0.0
C211 C 0.0855 0.99968 0.14193 0.0
C212 C 0.08721 0.0308 0.1669 0.0
C213 C 0.09064 0.01116 0.10788 0.0
C214 C 0.09563 0.08555 0.12365 0.0
C215 C 0.09848 0.10707 0.18369 0.0
C216 C 0.27667 0.23269 0.26114 0.0
C217 C 0.30452 0.19634 0.27376 0.0
H218 H 0.21295 0.29491 0.23132 0.0
C219 C 0.07461 0.17561 0.31731 0.0
C220 C 0.96585 0.17621 0.25828 0.0
C221 C 0.85056 0.12336 0.39589 0.0
C222 C 0.80066 0.10962 0.44973 0.0
C223 C 0.74984 0.09638 0.39686 0.0
C224 C 0.79965 0.10993 0.37878 0.0
C225 C 0.75043 0.09583 0.43211 0.0
C226 C 0.85059 0.12368 0.43146 0.0
C227 C 0.90571 0.13311 0.37745 0.0
H228 H 0.08161 0.96638 0.14901 0.0
H229 H 0.08511 0.02132 0.19319 0.0
H230 H 0.09206 0.98575 0.08961 0.0
H231 H 0.09813 0.11914 0.11736 0.0
H232 H 0.71085 0.08579 0.38349 0.0
H233 H 0.79857 0.10928 0.35154 0.0
H234 H 0.71153 0.08486 0.44568 0.0
H235 H 0.88996 0.13354 0.44489 0.0
C236 C 0.66022 0.46424 0.79267 0.0
C237 C 0.64242 0.53642 0.81128 0.0
C238 C 0.62491 0.4932 0.80943 0.0
C239 C 0.69381 0.55041 0.79448 0.0
C240 C 0.71247 0.47791 0.77642 0.0
C241 C 0.72868 0.52125 0.77705 0.0
N242 N 0.64272 0.42261 0.79188 0.0
C243 C 0.67641 0.3927 0.77648 0.0
C244 C 0.74674 0.44757 0.75994 0.0
C245 C 0.72881 0.40476 0.76017 0.0
Gd246 Gd 0.41671 0.40594 0.75259 0.0
Gd247 Gd 0.55294 0.40571 0.81842 0.0
N248 N 0.57482 0.47881 0.82501 0.0
C249 C 0.60877 0.56401 0.83086 0.0
C250 C 0.54598 0.50451 0.84703 0.0
C251 C 0.56117 0.54772 0.84949 0.0
H252 H 0.51237 0.49165 0.86356 0.0
H253 H 0.53692 0.56822 0.86627 0.0
H254 H 0.42594 0.30123 0.73922 0.0
H255 H 0.6625 0.35962 0.77658 0.0
H256 H 0.36213 0.23694 0.74394 0.0
H257 H 0.62076 0.59743 0.833 0.0
H258 H 0.70755 0.5836 0.79533 0.0
H259 H 0.3314 0.48959 0.76975 0.0
H260 H 0.78721 0.45681 0.74713 0.0
H261 H 0.75524 0.38107 0.74769 0.0
H262 H 0.17573 0.29098 0.78084 0.0
H263 H 0.76847 0.53245 0.76448 0.0
H264 H 0.15928 0.44204 0.79561 0.0
H265 H 0.22909 0.50264 0.78799 0.0
N266 N 0.32015 0.42222 0.76852 0.0
C267 C 0.28224 0.38855 0.77191 0.0
C268 C 0.30162 0.46286 0.77369 0.0
C269 C 0.20426 0.43608 0.78793 0.0
C270 C 0.24357 0.47038 0.78371 0.0
C271 C 0.22326 0.39455 0.7818 0.0
H272 H 0.13974 0.36303 0.79278 0.0
N273 N 0.35983 0.34321 0.75627 0.0
C274 C 0.30243 0.34789 0.76518 0.0
C275 C 0.28643 0.27185 0.76075 0.0
C276 C 0.26434 0.31222 0.76815 0.0
C277 C 0.38101 0.30429 0.74759 0.0
C278 C 0.34489 0.26793 0.75015 0.0
O279 O 0.56317 0.43039 0.76457 0.0
O280 O 0.47644 0.46379 0.75506 0.0
O281 O 0.43111 0.38884 0.70029 0.0
O282 O 0.3659 0.43579 0.71254 0.0
O283 O 0.4634 0.4311 0.83478 0.0
O284 O 0.42986 0.46247 0.78624 0.0
O285 O 0.40376 0.36574 0.80036 0.0
O286 O 0.49603 0.34644 0.82001 0.0
O287 O 0.55728 0.40756 0.87325 0.0
O288 O 0.62395 0.37446 0.84543 0.0
O289 O 0.49849 0.36901 0.73883 0.0
O290 O 0.55016 0.34638 0.78623 0.0
C291 C 0.53363 0.46182 0.75128 0.0
C292 C 0.43052 0.45935 0.81923 0.0
C293 C 0.41534 0.44261 0.65991 0.0
C294 C 0.42439 0.45454 0.59899 0.0
C295 C 0.47613 0.50094 0.63831 0.0
C296 C 0.4523 0.47797 0.66549 0.0
C297 C 0.46265 0.48922 0.60525 0.0
C298 C 0.40103 0.4312 0.62662 0.0
C299 C 0.39383 0.41632 0.68849 0.0
C300 C 0.20567 0.31801 0.7783 0.0
C301 C 0.18519 0.35906 0.78512 0.0
H302 H 0.25861 0.24361 0.76279 0.0
C303 C 0.43888 0.34002 0.81701 0.0
C304 C 0.53344 0.34208 0.75447 0.0
C305 C 0.65298 0.40925 0.89592 0.0
C306 C 0.69215 0.42716 0.95165 0.0
C307 C 0.73689 0.45763 0.90101 0.0
C308 C 0.69648 0.43551 0.88105 0.0
C309 C 0.7346 0.45375 0.93605 0.0
C310 C 0.6514 0.40472 0.93136 0.0
C311 C 0.60755 0.38832 0.87483 0.0
H312 H 0.50487 0.52809 0.64287 0.0
H313 H 0.46266 0.4877 0.69085 0.0
H314 H 0.48098 0.50793 0.58459 0.0
H315 H 0.37234 0.4039 0.62221 0.0
H316 H 0.77007 0.47794 0.88925 0.0
H317 H 0.69925 0.4391 0.85401 0.0
H318 H 0.76663 0.47113 0.95102 0.0
H319 H 0.61791 0.38459 0.94312 0.0
C320 C 0.79603 0.8703 0.78224 0.0
C321 C 0.78878 0.79436 0.79367 0.0
C322 C 0.82104 0.83307 0.7939 0.0
C323 C 0.73221 0.79319 0.77943 0.0
C324 C 0.73809 0.86969 0.76947 0.0
C325 C 0.70706 0.83075 0.76714 0.0
N326 N 0.82674 0.90749 0.78566 0.0
C327 C 0.79944 0.9455 0.78036 0.0
C328 C 0.71219 0.90843 0.76078 0.0
C329 C 0.74258 0.94656 0.76693 0.0
Gd330 Gd 0.04949 0.914 0.73052 0.0
Gd331 Gd 0.92442 0.90152 0.80524 0.0
N332 N 0.87639 0.835 0.8066 0.0
C333 C 0.81425 0.75814 0.80804 0.0
C334 C 0.9004 0.80045 0.82221 0.0
C335 C 0.87 0.76135 0.82279 0.0
H336 H 0.94354 0.8031 0.83356 0.0
H337 H 0.8896 0.73374 0.83451 0.0
H338 H 0.99205 0.99587 0.68591 0.0
H339 H 0.82112 0.97521 0.78668 0.0
H340 H 0.00779 0.07319 0.67962 0.0
H341 H 0.7909 0.72778 0.80836 0.0
H342 H 0.70715 0.76359 0.77836 0.0
H343 H 0.16883 0.87656 0.76815 0.0
H344 H 0.66784 0.90934 0.75081 0.0
H345 H 0.72191 0.9768 0.76185 0.0
H346 H 0.18705 0.10079 0.73988 0.0
H347 H 0.66285 0.82957 0.75694 0.0
H348 H 0.28698 0.98111 0.78769 0.0
H349 H 0.26312 0.90395 0.79122 0.0
N350 N 0.13947 0.93758 0.75293 0.0
C351 C 0.15271 0.97972 0.74943 0.0
C352 C 0.17876 0.91023 0.767 0.0
C353 C 0.24565 0.96921 0.77762 0.0
C354 C 0.23227 0.92564 0.77977 0.0
C355 C 0.2058 0.99683 0.76218 0.0
H356 H 0.25768 0.05462 0.76899 0.0
N357 N 0.06269 0.98768 0.72034 0.0
C358 C 0.11257 1.00566 0.73324 0.0
C359 C 0.0856 0.07431 0.71057 0.0
C360 C 0.12501 0.04956 0.72907 0.0
C361 C 0.02709 1.011 0.69982 0.0
C362 C 0.037 0.05476 0.69536 0.0
O363 O 0.93836 0.84778 0.76788 0.0
O364 O 0.96326 0.88069 0.71798 0.0
O365 O 0.07054 0.92319 0.67761 0.0
O366 O 0.1052 0.86876 0.70406 0.0
O367 O 0.01419 0.87224 0.81404 0.0
O368 O 0.05447 0.85384 0.76202 0.0
O369 O 0.06384 0.93832 0.78389 0.0
O370 O 0.97423 0.96385 0.79954 0.0
O371 O 0.95369 0.8967 0.85735 0.0
O372 O 0.8659 0.91771 0.84679 0.0
O373 O 0.95704 0.9352 0.71932 0.0
O374 O 0.91984 0.95945 0.76994 0.0
C375 C 0.93381 0.85121 0.73499 0.0
C376 C 0.05123 0.85032 0.79522 0.0
C377 C 0.16 0.89699 0.65714 0.0
C378 C 0.2106 0.90435 0.60264 0.0
C379 C 0.26414 0.91519 0.6551 0.0
C380 C 0.21289 0.90674 0.67371 0.0
C381 C 0.26314 0.91409 0.61985 0.0
C382 C 0.15912 0.89585 0.62167 0.0
C383 C 0.10431 0.89025 0.67581 0.0
C384 C 0.17704 0.06707 0.7426 0.0
C385 C 0.21738 0.04076 0.75908 0.0
H386 H 0.09354 0.10814 0.70678 0.0
C387 C 0.03193 0.96635 0.80001 0.0
C388 C 0.92113 0.9594 0.7366 0.0
C389 C 0.90978 0.94156 0.89758 0.0
C390 C 0.90862 0.95813 0.95805 0.0
C391 C 0.93104 0.01352 0.91633 0.0
C392 C 0.92387 0.9842 0.89028 0.0
C393 C 0.92364 1.00068 0.94991 0.0
C394 C 0.90174 0.92863 0.93148 0.0
C395 C 0.9046 0.9102 0.87012 0.0
H396 H 0.30486 0.92265 0.66806 0.0
H397 H 0.21464 0.90811 0.70089 0.0
H398 H 0.30369 0.92028 0.60609 0.0
H399 H 0.11789 0.88914 0.60891 0.0
H400 H 0.94221 0.04639 0.91047 0.0
H401 H 0.92917 0.99466 0.8644 0.0
H402 H 0.9288 0.02432 0.96952 0.0
H403 H 0.89112 0.89555 0.93713 0.0
C404 C 0.70772 0.66031 0.28487 0.0
C405 C 0.70881 0.73521 0.30023 0.0
C406 C 0.67964 0.69531 0.29854 0.0
C407 C 0.76569 0.73993 0.28656 0.0
C408 C 0.76562 0.66471 0.27213 0.0
C409 C 0.79382 0.70485 0.2723 0.0
N410 N 0.67973 0.62165 0.28568 0.0
C411 C 0.7098 0.58565 0.27757 0.0
C412 C 0.7943 0.62835 0.26067 0.0
C413 C 0.76668 0.58855 0.26403 0.0
Gd414 Gd 0.45963 0.61118 0.23205 0.0
Gd415 Gd 0.58236 0.62191 0.30676 0.0
N416 N 0.62384 0.69027 0.31052 0.0
C417 C 0.67979 0.76919 0.31554 0.0
C418 C 0.59627 0.7226 0.32686 0.0
C419 C 0.62352 0.76272 0.32922 0.0
H420 H 0.55294 0.71741 0.33764 0.0
H421 H 0.60118 0.78859 0.3416 0.0
H422 H 0.51654 0.53052 0.18655 0.0
H423 H 0.69083 0.55441 0.28199 0.0
H424 H 0.49814 0.45397 0.17797 0.0
H425 H 0.7007 0.80035 0.31727 0.0
H426 H 0.78845 0.7705 0.28711 0.0
H427 H 0.33955 0.64916 0.26862 0.0
H428 H 0.83867 0.63042 0.25057 0.0
H429 H 0.7896 0.55996 0.25681 0.0
H430 H 0.31368 0.42718 0.23405 0.0
H431 H 0.83801 0.70887 0.26224 0.0
H432 H 0.21579 0.54638 0.28325 0.0
H433 H 0.2428 0.62268 0.28938 0.0
N434 N 0.36754 0.58831 0.25255 0.0
C435 C 0.35276 0.54672 0.2477 0.0
C436 C 0.32848 0.61575 0.2666 0.0
C437 C 0.25833 0.55784 0.27433 0.0
C438 C 0.2735 0.6009 0.27797 0.0
C439 C 0.29801 0.53017 0.2589 0.0
H440 H 0.24307 0.47334 0.26302 0.0
N441 N 0.44425 0.53833 0.22004 0.0
C442 C 0.39283 0.52077 0.23158 0.0
C443 C 0.4183 0.45287 0.2075 0.0
C444 C 0.37875 0.47746 0.22594 0.0
C445 C 0.48016 0.51538 0.19953 0.0
C446 C 0.46873 0.47214 0.19371 0.0
O447 O 0.56843 0.67645 0.26961 0.0
O448 O 0.54703 0.64345 0.21995 0.0
O449 O 0.44251 0.60502 0.17867 0.0
O450 O 0.40536 0.65779 0.20581 0.0
O451 O 0.49178 0.64893 0.31671 0.0
O452 O 0.45397 0.66991 0.26477 0.0
O453 O 0.44215 0.58324 0.28445 0.0
O454 O 0.53258 0.55972 0.30078 0.0
O455 O 0.5545 0.61806 0.35957 0.0
O456 O 0.64565 0.60953 0.34619 0.0
O457 O 0.55209 0.58898 0.22155 0.0
O458 O 0.58925 0.56419 0.27213 0.0
C459 C 0.57531 0.67317 0.23687 0.0
C460 C 0.45465 0.67099 0.29807 0.0
C461 C 0.35412 0.63119 0.15744 0.0
C462 C 0.30875 0.62186 0.10202 0.0
C463 C 0.25051 0.61213 0.15322 0.0
C464 C 0.29989 0.62155 0.17291 0.0
C465 C 0.25482 0.61208 0.11802 0.0
C466 C 0.35818 0.63149 0.12206 0.0
C467 C 0.40834 0.63776 0.17713 0.0
C468 C 0.32501 0.46045 0.23793 0.0
C469 C 0.28469 0.48676 0.25433 0.0
H470 H 0.40915 0.41949 0.20261 0.0
C471 C 0.47488 0.55716 0.30223 0.0
C472 C 0.58661 0.56364 0.23885 0.0
C473 C 0.61295 0.57564 0.39607 0.0
C474 C 0.62892 0.55611 0.45558 0.0
C475 C 0.63703 0.50305 0.41076 0.0
C476 C 0.62362 0.53361 0.38645 0.0
C477 C 0.64083 0.51419 0.44478 0.0
C478 C 0.61392 0.58646 0.43048 0.0
C479 C 0.60706 0.60951 0.37044 0.0
H480 H 0.20877 0.60465 0.1653 0.0
H481 H 0.29572 0.62086 0.20004 0.0
H482 H 0.21583 0.60493 0.10332 0.0
H483 H 0.40041 0.63817 0.11014 0.0
H484 H 0.64631 0.47076 0.40311 0.0
H485 H 0.62331 0.52477 0.36007 0.0
H486 H 0.65463 0.48968 0.46216 0.0
H487 H 0.6038 0.61891 0.43714 0.0
C488 C 0.17535 0.9657 0.34366 0.0
C489 C 0.17061 0.96586 0.37926 0.0
H490 H 0.15098 0.9947 0.29682 0.0
C491 C 0.14434 1.00164 0.39424 0.0
H492 H 0.19713 0.94026 0.33052 0.0
C493 C 0.12214 0.03481 0.37459 0.0
C494 C 0.12232 0.03255 0.33918 0.0
H495 H 0.13808 1.00387 0.42118 0.0
H496 H 0.10153 0.06119 0.38735 0.0
C497 C 0.15024 0.99793 0.32396 0.0
C498 C 0.38425 0.56867 0.84722 0.0
C499 C 0.35633 0.56033 0.87848 0.0
H500 H 0.42781 0.54336 0.80393 0.0
C501 C 0.35128 0.51746 0.88932 0.0
H502 H 0.39135 0.60088 0.83809 0.0
C503 C 0.37509 0.48444 0.8701 0.0
C504 C 0.40256 0.49332 0.83907 0.0
H505 H 0.32913 0.50914 0.91269 0.0
H506 H 0.37172 0.45194 0.87937 0.0
C507 C 0.4059 0.53559 0.82755 0.0
C508 C 0.63559 0.51222 0.68633 0.0
C509 C 0.61501 0.55426 0.68518 0.0
H510 H 0.62658 0.45006 0.70882 0.0
C511 C 0.57019 0.5663 0.70756 0.0
H512 H 0.6703 0.50225 0.66942 0.0
C513 C 0.54465 0.53638 0.72963 0.0
C514 C 0.56411 0.49409 0.73008 0.0
H515 H 0.55331 0.59843 0.70704 0.0
H516 H 0.50898 0.5461 0.74597 0.0
C517 C 0.61078 0.48249 0.70887 0.0
C518 C 0.95798 0.95397 0.20395 0.0
C519 C 0.90706 0.96369 0.18557 0.0
H520 H 0.02159 0.97527 0.24029 0.0
C521 C 0.87941 1.00281 0.19107 0.0
H522 H 0.9802 0.92407 0.19997 0.0
C523 C 0.90245 0.03179 0.21455 0.0
C524 C 0.9544 0.02257 0.23227 0.0
H525 H 0.84009 1.01095 0.17716 0.0
H526 H 0.88053 0.06189 0.21814 0.0
C527 C 0.98171 0.98328 0.22686 0.0
C528 C 0.83996 1.00606 0.66229 0.0
C529 C 0.82228 0.04584 0.67439 0.0
H530 H 0.88413 0.94799 0.67241 0.0
C531 C 0.83395 0.05608 0.70835 0.0
H532 H 0.83047 0.99653 0.63664 0.0
C533 C 0.86423 0.02756 0.72931 0.0
C534 C 0.88325 0.98832 0.71668 0.0
H535 H 0.82096 0.08654 0.71847 0.0
H536 H 0.8744 0.03678 0.75495 0.0
C537 C 0.87005 0.97785 0.68307 0.0
C538 C 0.66544 0.51499 0.16484 0.0
C539 C 0.67977 0.47433 0.17701 0.0
H540 H 0.62552 0.5746 0.17477 0.0
C541 C 0.66766 0.46434 0.21108 0.0
H542 H 0.67562 0.52435 0.13911 0.0
C543 C 0.63956 0.4939 0.232 0.0
C544 C 0.62316 0.53383 0.21914 0.0
H545 H 0.67836 0.43331 0.22126 0.0
H546 H 0.62876 0.48495 0.25774 0.0
C547 C 0.63745 0.54417 0.18553 0.0
C548 C 0.35783 0.50055 0.35567 0.0
C549 C 0.39103 0.4706 0.3736 0.0
H550 H 0.3586 0.55261 0.32075 0.0
C551 C 0.45206 0.4689 0.36767 0.0
H552 H 0.31096 0.50325 0.36025 0.0
C553 C 0.4792 0.4964 0.3441 0.0
C554 C 0.44611 0.52685 0.32646 0.0
H555 H 0.47879 0.44628 0.38132 0.0
H556 H 0.52618 0.49398 0.33994 0.0
C557 C 0.38518 0.5287 0.3328 0.0
C558 C 0.14656 0.01841 0.85629 0.0
C559 C 0.11583 0.05319 0.8693 0.0
H560 H 0.14323 0.96274 0.82558 0.0
C561 C 0.05792 0.0603 0.85854 0.0
H562 H 0.19094 0.01188 0.86466 0.0
C563 C 0.0312 0.03292 0.83513 0.0
C564 C 0.06123 0.99717 0.82297 0.0
H565 H 0.03331 0.08684 0.86842 0.0
H566 H 0.98676 0.03942 0.82691 0.0
C567 C 0.11929 0.9904 0.83375 0.0
C568 C 0.09808 0.0492 1.00149 0.0
C569 C 0.12969 0.08655 0.99248 0.0
H570 H 0.06034 1.01086 0.04072 0.0
C571 C 0.1457 0.11481 1.01847 0.0
H572 H 0.08502 0.02611 0.98269 0.0
C573 C 0.13437 0.10472 0.05231 0.0
C574 C 0.1044 0.06671 0.06149 0.0
H575 H 0.16836 0.14461 1.01293 0.0
H576 H 0.15118 0.12647 0.07112 0.0
C577 C 0.08494 0.03982 0.0353 0.0
C578 C 0.33126 0.43065 0.52191 0.0
C579 C 0.37364 0.42898 0.49587 0.0
H580 H 0.31408 0.43956 0.57457 0.0
C581 C 0.43342 0.43445 0.50448 0.0
H582 H 0.28468 0.42784 0.51647 0.0
C583 C 0.45006 0.44214 0.53796 0.0
C584 C 0.40746 0.44393 0.56375 0.0
H585 H 0.46752 0.43283 0.48539 0.0
H586 H 0.49634 0.44662 0.5437 0.0
C587 C 0.34799 0.43762 0.55537 0.0
C588 C 0.70423 0.3807 0.04006 0.0
C589 C 0.70618 0.41779 0.05987 0.0
H590 H 0.6968 0.35453 0.99019 0.0
C591 C 0.69849 0.4575 0.04398 0.0
H592 H 0.70981 0.34966 0.05162 0.0
C593 C 0.69168 0.46026 1.00899 0.0
C594 C 0.69152 0.42335 0.98906 0.0
H595 H 0.70034 0.48668 0.05843 0.0
H596 H 0.68794 0.49143 0.99734 0.0
C597 C 0.69639 0.38344 1.005 0.0
C598 C 0.79007 0.06828 0.53962 0.0
C599 C 0.78832 0.10631 0.55813 0.0
H600 H 0.79459 0.03972 0.49056 0.0
C601 C 0.79454 0.14542 0.54086 0.0
H602 H 0.78472 0.03775 0.55226 0.0
C603 C 0.80132 0.14647 0.50568 0.0
C604 C 0.80058 0.10849 0.48713 0.0
H605 H 0.79315 0.17517 0.55455 0.0
H606 H 0.80486 0.17698 0.49284 0.0
C607 C 0.79546 0.06939 0.50441 0.0
C608 C 0.84444 0.90843 0.03869 0.0
C609 C 0.88272 0.92455 0.06364 0.0
H610 H 0.82233 0.90626 0.98604 0.0
C611 C 0.93062 0.95047 0.05316 0.0
H612 H 0.80683 0.88866 0.04565 0.0
C613 C 0.93921 0.96066 1.01904 0.0
C614 C 0.90054 0.94512 0.99419 0.0
H615 H 0.96216 0.96261 0.07128 0.0
H616 H 0.97659 0.98059 1.012 0.0
C617 C 0.85334 0.91848 1.00443 0.0
C618 C 0.6407 0.54771 0.55203 0.0
C619 C 0.64727 0.59056 0.56221 0.0
H620 H 0.62503 0.50364 0.5126 0.0
C621 C 0.64707 0.62193 0.5365 0.0
H622 H 0.64191 0.52167 0.56992 0.0
C623 C 0.64215 0.61092 0.5024 0.0
C624 C 0.63423 0.56816 0.49238 0.0
H625 H 0.65027 0.65549 0.54214 0.0
H626 H 0.64517 0.63656 0.48416 0.0
C627 C 0.63265 0.53692 0.51812 0.0
C628 C 0.29082 0.59099 1.00987 0.0
C629 C 0.32004 0.62491 0.99328 0.0
H630 H 0.26408 0.56349 0.05727 0.0
C631 C 0.34702 0.65699 1.01272 0.0
H632 H 0.26941 0.56595 0.99553 0.0
C633 C 0.34395 0.65564 0.04793 0.0
C634 C 0.31349 0.62232 0.06457 0.0
H635 H 0.37035 0.68332 1.00066 0.0
H636 H 0.36436 0.68125 0.06212 0.0
C637 C 0.28727 0.58984 0.04516 0.0
C638 C 0.23984 0.9309 0.50996 0.0
C639 C 0.20825 0.89826 0.49354 0.0
H640 H 0.26522 0.95859 0.55716 0.0
C641 C 0.17697 0.86814 0.51332 0.0
H642 H 0.26453 0.95452 0.49552 0.0
C643 C 0.17763 0.87027 0.54852 0.0
C644 C 0.20956 0.90263 0.56502 0.0
H645 H 0.1514 0.84294 0.50154 0.0
H646 H 0.15366 0.84614 0.56283 0.0
C647 C 0.24065 0.93297 0.5453 0.0
C648 C 0.14289 0.28402 0.33796 0.0
C649 C 0.1446 0.28262 0.37329 0.0
H650 H 0.11688 0.25222 0.29281 0.0
C651 C 0.12596 0.24519 0.39005 0.0
H652 H 0.15563 0.31289 0.32452 0.0
C653 C 0.10491 0.21005 0.37186 0.0
C654 C 0.10112 0.21178 0.33646 0.0
H655 H 0.12616 0.24362 0.41736 0.0
H656 H 0.09023 0.18194 0.38566 0.0
C657 C 0.1208 0.24913 0.31979 0.0
C658 C 0.4293 0.22668 0.84927 0.0
C659 C 0.3739 0.22514 0.86532 0.0
H660 H 0.49302 0.26404 0.82196 0.0
C661 C 0.33697 0.26069 0.86217 0.0
H662 H 0.45821 0.19952 0.85007 0.0
C663 C 0.3568 0.29779 0.84529 0.0
C664 C 0.41413 0.30009 0.83176 0.0
H665 H 0.29401 0.26066 0.87411 0.0
H666 H 0.32841 0.32523 0.84418 0.0
C667 C 0.44935 0.26373 0.8331 0.0
C668 C 0.60142 0.2358 0.73137 0.0
C669 C 0.58189 0.23117 0.698 0.0
H670 H 0.60104 0.27462 0.77583 0.0
C671 C 0.55109 0.26444 0.68268 0.0
H672 H 0.62518 0.21037 0.74365 0.0
C673 C 0.53789 0.30107 0.70069 0.0
C674 C 0.5544 0.30515 0.73473 0.0
H675 H 0.53605 0.26166 0.65686 0.0
H676 H 0.513 0.32558 0.68803 0.0
C677 C 0.58748 0.27248 0.74972 0.0
C678 C 0.91103 0.28707 0.2374 0.0
C679 C 0.90876 0.28529 0.20205 0.0
H680 H 0.93072 0.25345 0.2833 0.0
C681 C 0.91967 0.2467 0.18578 0.0
H682 H 0.90337 0.31683 0.2503 0.0
C683 C 0.93519 0.21075 0.20438 0.0
C684 C 0.94072 0.21275 0.23968 0.0
H685 H 0.91852 0.24487 0.1585 0.0
H686 H 0.94508 0.18178 0.19087 0.0
C687 C 0.92673 0.25092 0.25616 0.0
C688 C 0.81195 0.82121 0.67466 0.0
C689 C 0.79345 0.781 0.68684 0.0
H690 H 0.87068 0.87441 0.68014 0.0
C691 C 0.82585 0.76188 0.71292 0.0
H692 H 0.78893 0.83646 0.65406 0.0
C693 C 0.87332 0.78385 0.72783 0.0
C694 C 0.88897 0.82524 0.717 0.0
H695 H 0.81287 0.7309 0.72284 0.0
H696 H 0.8967 0.769 0.74844 0.0
C697 C 0.85913 0.84294 0.68947 0.0
C698 C 0.6877 0.76053 0.21471 0.0
C699 C 0.72226 0.73993 0.19035 0.0
H700 H 0.61346 0.7556 0.24857 0.0
C701 C 0.70411 0.69929 0.17932 0.0
H702 H 0.70034 0.79183 0.22375 0.0
C703 C 0.65512 0.67869 0.19362 0.0
C704 C 0.62285 0.69791 0.21949 0.0
H705 H 0.72876 0.68282 0.16005 0.0
H706 H 0.64396 0.64688 0.18524 0.0
C707 C 0.6384 0.73964 0.22916 0.0
C708 C 0.33916 0.69902 0.36273 0.0
C709 C 0.3109 0.7334 0.3472 0.0
H710 H 0.40743 0.65292 0.35961 0.0
C711 C 0.33231 0.74905 0.31619 0.0
H712 H 0.32327 0.68646 0.38666 0.0
C713 C 0.38004 0.72943 0.30034 0.0
C714 C 0.40774 0.69451 0.31567 0.0
H715 H 0.31086 0.77544 0.30374 0.0
H716 H 0.39473 0.74117 0.27593 0.0
C717 C 0.38746 0.68004 0.34731 0.0
C718 C 0.15227 0.80883 0.8633 0.0
C719 C 0.18981 0.78262 0.8448 0.0
H720 H 0.07844 0.85028 0.86229 0.0
C721 C 0.17861 0.77551 0.81052 0.0
H722 H 0.16068 0.81494 0.88974 0.0
C723 C 0.13175 0.79596 0.79457 0.0
C724 C 0.09552 0.82387 0.8127 0.0
H725 H 0.20764 0.75569 0.79581 0.0
H726 H 0.12532 0.79115 0.76779 0.0
C727 C 0.10529 0.82904 0.84749 0.0
loop_
_geom_bond_atom_site_label_1
_geom_bond_atom_site_label_2
_geom_bond_distance
_geom_bond_site_symmetry_2
_ccdc_geom_bond_type
H0 C1 0.949 . S
C1 H0 0.949 . S
C1 C2 1.395 . S
C1 C3 1.391 . S
C2 C1 1.395 . S
C2 C5 1.390 . S
C3 C1 1.391 . S
C3 C7 1.387 . S
C3 C8 1.491 . S
H4 C5 0.950 . S
C5 C2 1.390 . S
C5 H4 0.950 . S
C5 C6 1.378 . S
C6 C5 1.378 . S
C6 C7 1.409 . S
C7 C3 1.387 . S
C7 C6 1.409 . S
C7 H9 0.951 . S
C8 C3 1.491 . S
C8 C10 1.382 . S
C8 C12 1.404 . S
H9 C7 0.951 . S
C10 C8 1.382 . S
C10 C11 1.390 . S
C10 H15 0.949 . S
C11 C10 1.390 . S
C11 C16 1.399 . S
C12 C8 1.404 . S
C12 H13 0.950 . S
C12 C14 1.375 . S
H13 C12 0.950 . S
C14 C12 1.375 . S
C14 C16 1.382 . S
C14 H18 0.950 . S
H15 C10 0.949 . S
C16 C11 1.399 . S
C16 C14 1.382 . S
C16 H17 0.952 . S
H17 C16 0.952 . S
H18 C14 0.950 . S
H19 C20 0.949 . S
C20 H19 0.949 . S
C20 C21 1.395 . S
C20 C22 1.391 . S
C21 C20 1.395 . S
C21 C24 1.390 . S
C22 C20 1.391 . S
C22 C26 1.387 . S
C22 C27 1.491 . S
H23 C24 0.950 . S
C24 C21 1.390 . S
C24 H23 0.950 . S
C24 C25 1.378 . S
C25 C24 1.378 . S
C25 C26 1.409 . S
C26 C22 1.387 . S
C26 C25 1.409 . S
C26 H28 0.951 . S
C27 C22 1.491 . S
C27 C29 1.382 . S
C27 C31 1.404 . S
H28 C26 0.951 . S
C29 C27 1.382 . S
C29 C30 1.390 . S
C29 H34 0.949 . S
C30 C29 1.390 . S
C30 C35 1.399 . S
C31 C27 1.404 . S
C31 H32 0.950 . S
C31 C33 1.375 . S
H32 C31 0.950 . S
C33 C31 1.375 . S
C33 C35 1.382 . S
C33 H37 0.950 . S
H34 C29 0.949 . S
C35 C30 1.399 . S
C35 C33 1.382 . S
C35 H36 0.952 . S
H36 C35 0.952 . S
H37 C33 0.950 . S
H38 C39 0.949 . S
C39 H38 0.949 . S
C39 C40 1.395 . S
C39 C41 1.391 . S
C40 C39 1.395 . S
C40 C43 1.390 . S
C41 C39 1.391 . S
C41 C45 1.387 . S
C41 C46 1.491 . S
H42 C43 0.950 . S
C43 C40 1.390 . S
C43 H42 0.950 . S
C43 C44 1.378 . S
C44 C43 1.378 . S
C44 C45 1.409 . S
C45 C41 1.387 . S
C45 C44 1.409 . S
C45 H47 0.951 . S
C46 C41 1.491 . S
C46 C48 1.382 . S
C46 C50 1.404 . S
H47 C45 0.951 . S
C48 C46 1.382 . S
C48 C49 1.390 . S
C48 H53 0.949 . S
C49 C48 1.390 . S
C49 C54 1.399 . S
C50 C46 1.404 . S
C50 H51 0.950 . S
C50 C52 1.375 . S
H51 C50 0.950 . S
C52 C50 1.375 . S
C52 C54 1.382 . S
C52 H56 0.950 . S
H53 C48 0.949 . S
C54 C49 1.399 . S
C54 C52 1.382 . S
C54 H55 0.952 . S
H55 C54 0.952 . S
H56 C52 0.950 . S
H57 C58 0.949 . S
C58 H57 0.949 . S
C58 C59 1.395 . S
C58 C60 1.391 . S
C59 C58 1.395 . S
C59 C62 1.390 . S
C60 C58 1.391 . S
C60 C64 1.387 . S
C60 C65 1.491 . S
H61 C62 0.950 . S
C62 C59 1.390 . S
C62 H61 0.950 . S
C62 C63 1.378 . S
C63 C62 1.378 . S
C63 C64 1.409 . S
C64 C60 1.387 . S
C64 C63 1.409 . S
C64 H66 0.951 . S
C65 C60 1.491 . S
C65 C67 1.382 . S
C65 C69 1.404 . S
H66 C64 0.951 . S
C67 C65 1.382 . S
C67 C68 1.390 . S
C67 H72 0.949 . S
C68 C67 1.390 . S
C68 C73 1.399 . S
C69 C65 1.404 . S
C69 H70 0.950 . S
C69 C71 1.375 . S
H70 C69 0.950 . S
C71 C69 1.375 . S
C71 C73 1.382 . S
C71 H75 0.950 . S
H72 C67 0.949 . S
C73 C68 1.399 . S
C73 C71 1.382 . S
C73 H74 0.952 . S
H74 C73 0.952 . S
H75 C71 0.950 . S
H76 C77 0.949 . S
C77 H76 0.949 . S
C77 C78 1.395 . S
C77 C79 1.391 . S
C78 C77 1.395 . S
C78 C81 1.390 . S
C79 C77 1.391 . S
C79 C83 1.387 . S
C79 C84 1.491 . S
H80 C81 0.950 . S
C81 C78 1.390 . S
C81 H80 0.950 . S
C81 C82 1.378 . S
C82 C81 1.378 . S
C82 C83 1.409 . S
C83 C79 1.387 . S
C83 C82 1.409 . S
C83 H85 0.951 . S
C84 C79 1.491 . S
C84 C86 1.382 . S
C84 C88 1.404 . S
H85 C83 0.951 . S
C86 C84 1.382 . S
C86 C87 1.390 . S
C86 H91 0.949 . S
C87 C86 1.390 . S
C87 C92 1.399 . S
C88 C84 1.404 . S
C88 H89 0.950 . S
C88 C90 1.375 . S
H89 C88 0.950 . S
C90 C88 1.375 . S
C90 C92 1.382 . S
C90 H94 0.950 . S
H91 C86 0.949 . S
C92 C87 1.399 . S
C92 C90 1.382 . S
C92 H93 0.952 . S
H93 C92 0.952 . S
H94 C90 0.950 . S
H95 C96 0.949 . S
C96 H95 0.949 . S
C96 C97 1.395 . S
C96 C98 1.391 . S
C97 C96 1.395 . S
C97 C100 1.390 . S
C98 C96 1.391 . S
C98 C102 1.387 . S
C98 C103 1.491 . S
H99 C100 0.950 . S
C100 C97 1.390 . S
C100 H99 0.950 . S
C100 C101 1.378 . S
C101 C100 1.378 . S
C101 C102 1.409 . S
C102 C98 1.387 . S
C102 C101 1.409 . S
C102 H104 0.951 . S
C103 C98 1.491 . S
C103 C105 1.382 . S
C103 C107 1.404 . S
H104 C102 0.951 . S
C105 C103 1.382 . S
C105 C106 1.390 . S
C105 H110 0.949 . S
C106 C105 1.390 . S
C106 C111 1.399 . S
C107 C103 1.404 . S
C107 H108 0.950 . S
C107 C109 1.375 . S
H108 C107 0.950 . S
C109 C107 1.375 . S
C109 C111 1.382 . S
C109 H113 0.950 . S
H110 C105 0.949 . S
C111 C106 1.399 . S
C111 C109 1.382 . S
C111 H112 0.952 . S
H112 C111 0.952 . S
H113 C109 0.950 . S
H114 C115 0.949 . S
C115 H114 0.949 . S
C115 C116 1.395 . S
C115 C117 1.391 . S
C116 C115 1.395 . S
C116 C119 1.390 . S
C117 C115 1.391 . S
C117 C121 1.387 . S
C117 C122 1.491 . S
H118 C119 0.950 . S
C119 C116 1.390 . S
C119 H118 0.950 . S
C119 C120 1.378 . S
C120 C119 1.378 . S
C120 C121 1.409 . S
C121 C117 1.387 . S
C121 C120 1.409 . S
C121 H123 0.951 . S
C122 C117 1.491 . S
C122 C124 1.382 . S
C122 C126 1.404 . S
H123 C121 0.951 . S
C124 C122 1.382 . S
C124 C125 1.390 . S
C124 H129 0.949 . S
C125 C124 1.390 . S
C125 C130 1.399 . S
C126 C122 1.404 . S
C126 H127 0.950 . S
C126 C128 1.375 . S
H127 C126 0.950 . S
C128 C126 1.375 . S
C128 C130 1.382 . S
C128 H132 0.950 . S
H129 C124 0.949 . S
C130 C125 1.399 . S
C130 C128 1.382 . S
C130 H131 0.952 . S
H131 C130 0.952 . S
H132 C128 0.950 . S
H133 C134 0.949 . S
C134 H133 0.949 . S
C134 C135 1.395 . S
C134 C136 1.391 . S
C135 C134 1.395 . S
C135 C138 1.390 . S
C136 C134 1.391 . S
C136 C140 1.387 . S
C136 C141 1.491 . S
H137 C138 0.950 . S
C138 C135 1.390 . S
C138 H137 0.950 . S
C138 C139 1.378 . S
C139 C138 1.378 . S
C139 C140 1.409 . S
C140 C136 1.387 . S
C140 C139 1.409 . S
C140 H142 0.951 . S
C141 C136 1.491 . S
C141 C143 1.382 . S
C141 C145 1.404 . S
H142 C140 0.951 . S
C143 C141 1.382 . S
C143 C144 1.390 . S
C143 H148 0.949 . S
C144 C143 1.390 . S
C144 C149 1.399 . S
C145 C141 1.404 . S
C145 H146 0.950 . S
C145 C147 1.375 . S
H146 C145 0.950 . S
C147 C145 1.375 . S
C147 C149 1.382 . S
C147 H151 0.950 . S
H148 C143 0.949 . S
C149 C144 1.399 . S
C149 C147 1.382 . S
C149 H150 0.952 . S
H150 C149 0.952 . S
H151 C147 0.950 . S
C152 C154 1.422 . S
C152 C156 1.415 . S
C152 N158 1.369 . S
C153 C154 1.421 1_565 S
C153 C155 1.417 . S
C153 C165 1.422 . S
C154 C152 1.422 . S
C154 C153 1.421 1_545 S
C154 N164 1.359 . S
C155 C153 1.417 . S
C155 C157 1.329 1_565 S
C155 H174 0.930 . S
C156 C152 1.415 . S
C156 C157 1.437 . S
C156 C160 1.413 . S
C157 C155 1.329 1_545 S
C157 C156 1.437 . S
C157 H179 0.929 . S
N158 C152 1.369 . S
N158 C159 1.338 . S
N158 Gd163 2.622 . S
C159 N158 1.338 . S
C159 C161 1.378 . S
C159 H171 0.929 . S
C160 C156 1.413 . S
C160 C161 1.348 . S
C160 H176 0.931 . S
C161 C159 1.378 . S
C161 C160 1.348 . S
C161 H177 0.930 . S
Gd162 N182 2.622 . S
Gd162 N189 2.570 . S
Gd162 O196 2.353 1_455 S
Gd162 O197 2.468 . S
Gd162 O198 2.427 . S
Gd162 O200 2.388 . S
Gd162 O201 2.386 . S
Gd162 O205 2.307 1_455 S
Gd162 C215 2.805 . S
Gd163 N158 2.622 . S
Gd163 N164 2.570 . S
Gd163 O195 2.386 . S
Gd163 O199 2.307 1_655 S
Gd163 O202 2.353 1_655 S
Gd163 O203 2.468 . S
Gd163 O204 2.427 . S
Gd163 O206 2.388 . S
Gd163 C227 2.805 . S
N164 C154 1.359 . S
N164 Gd163 2.570 . S
N164 C166 1.343 1_545 S
C165 C153 1.422 . S
C165 C167 1.321 . S
C165 H173 0.931 . S
C166 N164 1.343 1_565 S
C166 C167 1.390 . S
C166 H168 0.931 . S
C167 C165 1.321 . S
C167 C166 1.390 . S
C167 H169 0.930 . S
H168 C166 0.931 . S
H169 C167 0.930 . S
H170 C193 0.931 . S
H171 C159 0.929 . S
H172 C194 0.930 . S
H173 C165 0.931 . S
H174 C155 0.930 . S
H175 C184 0.929 . S
H176 C160 0.931 . S
H177 C161 0.930 . S
H178 C216 0.930 . S
H179 C157 0.929 . S
H180 C185 0.931 . S
H181 C186 0.930 . S
N182 Gd162 2.622 . S
N182 C183 1.369 . S
N182 C184 1.338 . S
C183 N182 1.369 . S
C183 C187 1.415 . S
C183 C190 1.422 . S
C184 H175 0.929 . S
C184 N182 1.338 . S
C184 C186 1.378 . S
C185 H180 0.931 . S
C185 C186 1.348 . S
C185 C187 1.413 . S
C186 H181 0.930 . S
C186 C184 1.378 . S
C186 C185 1.348 . S
C187 C183 1.415 . S
C187 C185 1.413 . S
C187 C217 1.437 . S
H188 C217 0.929 . S
N189 Gd162 2.570 . S
N189 C190 1.359 . S
N189 C193 1.343 . S
C190 C183 1.422 . S
C190 N189 1.359 . S
C190 C192 1.421 . S
C191 C192 1.422 . S
C191 C194 1.321 . S
C191 H218 0.931 . S
C192 C190 1.421 . S
C192 C191 1.422 . S
C192 C216 1.417 . S
C193 H170 0.931 . S
C193 N189 1.343 . S
C193 C194 1.390 . S
C194 H172 0.930 . S
C194 C191 1.321 . S
C194 C193 1.390 . S
O195 Gd163 2.386 . S
O195 C207 1.265 . S
O196 Gd162 2.353 1_655 S
O196 C207 1.242 . S
O197 Gd162 2.468 . S
O197 C215 1.263 . S
O198 Gd162 2.427 . S
O198 C215 1.252 . S
O199 Gd163 2.307 1_455 S
O199 C208 1.261 . S
O200 Gd162 2.388 . S
O200 C208 1.252 . S
O201 Gd162 2.386 . S
O201 C219 1.265 . S
O202 Gd163 2.353 1_455 S
O202 C219 1.242 . S
O203 Gd163 2.468 . S
O203 C227 1.263 . S
O204 Gd163 2.427 . S
O204 C227 1.252 . S
O205 Gd162 2.307 1_655 S
O205 C220 1.261 . S
O206 Gd163 2.388 . S
O206 C220 1.252 . S
C207 O195 1.265 . S
C207 O196 1.242 . S
C208 O199 1.261 . S
C208 O200 1.252 . S
C209 C212 1.394 . S
C209 C214 1.370 . S
C209 C215 1.500 . S
C210 C213 1.383 . S
C210 C214 1.395 . S
C211 C212 1.396 . S
C211 C213 1.365 . S
C211 H228 0.929 1_545 S
C212 C209 1.394 . S
C212 C211 1.396 . S
C212 H229 0.930 . S
C213 C210 1.383 . S
C213 C211 1.365 . S
C213 H230 0.931 . S
C214 C209 1.370 . S
C214 C210 1.395 . S
C214 H231 0.930 . S
C215 Gd162 2.805 . S
C215 O197 1.263 . S
C215 O198 1.252 . S
C215 C209 1.500 . S
C216 H178 0.930 . S
C216 C192 1.417 . S
C216 C217 1.329 . S
C217 C187 1.437 . S
C217 H188 0.929 . S
C217 C216 1.329 . S
H218 C191 0.931 . S
C219 O201 1.265 . S
C219 O202 1.242 . S
C220 O205 1.261 . S
C220 O206 1.252 . S
C221 C224 1.394 . S
C221 C226 1.370 . S
C221 C227 1.500 . S
C222 C225 1.383 . S
C222 C226 1.395 . S
C223 C224 1.396 . S
C223 C225 1.365 . S
C223 H232 0.929 . S
C224 C221 1.394 . S
C224 C223 1.396 . S
C224 H233 0.930 . S
C225 C222 1.383 . S
C225 C223 1.365 . S
C225 H234 0.931 . S
C226 C221 1.370 . S
C226 C222 1.395 . S
C226 H235 0.930 . S
C227 Gd163 2.805 . S
C227 O203 1.263 . S
C227 O204 1.252 . S
C227 C221 1.500 . S
H228 C211 0.929 1_565 S
H229 C212 0.930 . S
H230 C213 0.931 . S
H231 C214 0.930 . S
H232 C223 0.929 . S
H233 C224 0.930 . S
H234 C225 0.931 . S
H235 C226 0.930 . S
C236 C238 1.422 . S
C236 C240 1.415 . S
C236 N242 1.369 . S
C237 C238 1.421 . S
C237 C239 1.417 . S
C237 C249 1.422 . S
C238 C236 1.422 . S
C238 C237 1.421 . S
C238 N248 1.359 . S
C239 C237 1.417 . S
C239 C241 1.329 . S
C239 H258 0.930 . S
C240 C236 1.415 . S
C240 C241 1.437 . S
C240 C244 1.413 . S
C241 C239 1.329 . S
C241 C240 1.437 . S
C241 H263 0.929 . S
N242 C236 1.369 . S
N242 C243 1.338 . S
N242 Gd247 2.622 . S
C243 N242 1.338 . S
C243 C245 1.378 . S
C243 H255 0.929 . S
C244 C240 1.413 . S
C244 C245 1.348 . S
C244 H260 0.931 . S
C245 C243 1.378 . S
C245 C244 1.348 . S
C245 H261 0.930 . S
Gd246 N266 2.622 . S
Gd246 N273 2.570 . S
Gd246 O280 2.353 . S
Gd246 O281 2.468 . S
Gd246 O282 2.427 . S
Gd246 O284 2.388 . S
Gd246 O285 2.386 . S
Gd246 O289 2.307 . S
Gd246 C299 2.805 . S
Gd247 N242 2.622 . S
Gd247 N248 2.570 . S
Gd247 O279 2.386 . S
Gd247 O283 2.307 . S
Gd247 O286 2.353 . S
Gd247 O287 2.468 . S
Gd247 O288 2.427 . S
Gd247 O290 2.388 . S
Gd247 C311 2.805 . S
N248 C238 1.359 . S
N248 Gd247 2.570 . S
N248 C250 1.343 . S
C249 C237 1.422 . S
C249 C251 1.321 . S
C249 H257 0.931 . S
C250 N248 1.343 . S
C250 C251 1.390 . S
C250 H252 0.931 . S
C251 C249 1.321 . S
C251 C250 1.390 . S
C251 H253 0.930 . S
H252 C250 0.931 . S
H253 C251 0.930 . S
H254 C277 0.931 . S
H255 C243 0.929 . S
H256 C278 0.930 . S
H257 C249 0.931 . S
H258 C239 0.930 . S
H259 C268 0.929 . S
H260 C244 0.931 . S
H261 C245 0.930 . S
H262 C300 0.930 . S
H263 C241 0.929 . S
H264 C269 0.931 . S
H265 C270 0.930 . S
N266 Gd246 2.622 . S
N266 C267 1.369 . S
N266 C268 1.338 . S
C267 N266 1.369 . S
C267 C271 1.415 . S
C267 C274 1.422 . S
C268 H259 0.929 . S
C268 N266 1.338 . S
C268 C270 1.378 . S
C269 H264 0.931 . S
C269 C270 1.348 . S
C269 C271 1.413 . S
C270 H265 0.930 . S
C270 C268 1.378 . S
C270 C269 1.348 . S
C271 C267 1.415 . S
C271 C269 1.413 . S
C271 C301 1.437 . S
H272 C301 0.929 . S
N273 Gd246 2.570 . S
N273 C274 1.359 . S
N273 C277 1.343 . S
C274 C267 1.422 . S
C274 N273 1.359 . S
C274 C276 1.421 . S
C275 C276 1.422 . S
C275 C278 1.321 . S
C275 H302 0.931 . S
C276 C274 1.421 . S
C276 C275 1.422 . S
C276 C300 1.417 . S
C277 H254 0.931 . S
C277 N273 1.343 . S
C277 C278 1.390 . S
C278 H256 0.930 . S
C278 C275 1.321 . S
C278 C277 1.390 . S
O279 Gd247 2.386 . S
O279 C291 1.265 . S
O280 Gd246 2.353 . S
O280 C291 1.242 . S
O281 Gd246 2.468 . S
O281 C299 1.263 . S
O282 Gd246 2.427 . S
O282 C299 1.252 . S
O283 Gd247 2.307 . S
O283 C292 1.261 . S
O284 Gd246 2.388 . S
O284 C292 1.252 . S
O285 Gd246 2.386 . S
O285 C303 1.265 . S
O286 Gd247 2.353 . S
O286 C303 1.242 . S
O287 Gd247 2.468 . S
O287 C311 1.263 . S
O288 Gd247 2.427 . S
O288 C311 1.252 . S
O289 Gd246 2.307 . S
O289 C304 1.261 . S
O290 Gd247 2.388 . S
O290 C304 1.252 . S
C291 O279 1.265 . S
C291 O280 1.242 . S
C292 O283 1.261 . S
C292 O284 1.252 . S
C293 C296 1.394 . S
C293 C298 1.370 . S
C293 C299 1.500 . S
C294 C297 1.383 . S
C294 C298 1.395 . S
C295 C296 1.396 . S
C295 C297 1.365 . S
C295 H312 0.929 . S
C296 C293 1.394 . S
C296 C295 1.396 . S
C296 H313 0.930 . S
C297 C294 1.383 . S
C297 C295 1.365 . S
C297 H314 0.931 . S
C298 C293 1.370 . S
C298 C294 1.395 . S
C298 H315 0.930 . S
C299 Gd246 2.805 . S
C299 O281 1.263 . S
C299 O282 1.252 . S
C299 C293 1.500 . S
C300 H262 0.930 . S
C300 C276 1.417 . S
C300 C301 1.329 . S
C301 C271 1.437 . S
C301 H272 0.929 . S
C301 C300 1.329 . S
H302 C275 0.931 . S
C303 O285 1.265 . S
C303 O286 1.242 . S
C304 O289 1.261 . S
C304 O290 1.252 . S
C305 C308 1.394 . S
C305 C310 1.370 . S
C305 C311 1.500 . S
C306 C309 1.383 . S
C306 C310 1.395 . S
C307 C308 1.396 . S
C307 C309 1.365 . S
C307 H316 0.929 . S
C308 C305 1.394 . S
C308 C307 1.396 . S
C308 H317 0.930 . S
C309 C306 1.383 . S
C309 C307 1.365 . S
C309 H318 0.931 . S
C310 C305 1.370 . S
C310 C306 1.395 . S
C310 H319 0.930 . S
C311 Gd247 2.805 . S
C311 O287 1.263 . S
C311 O288 1.252 . S
C311 C305 1.500 . S
H312 C295 0.929 . S
H313 C296 0.930 . S
H314 C297 0.931 . S
H315 C298 0.930 . S
H316 C307 0.929 . S
H317 C308 0.930 . S
H318 C309 0.931 . S
H319 C310 0.930 . S
C320 C322 1.422 . S
C320 C324 1.415 . S
C320 N326 1.369 . S
C321 C322 1.421 . S
C321 C323 1.417 . S
C321 C333 1.422 . S
C322 C320 1.422 . S
C322 C321 1.421 . S
C322 N332 1.359 . S
C323 C321 1.417 . S
C323 C325 1.329 . S
C323 H342 0.930 . S
C324 C320 1.415 . S
C324 C325 1.437 . S
C324 C328 1.413 . S
C325 C323 1.329 . S
C325 C324 1.437 . S
C325 H347 0.929 . S
N326 C320 1.369 . S
N326 C327 1.338 . S
N326 Gd331 2.622 . S
C327 N326 1.338 . S
C327 C329 1.378 . S
C327 H339 0.929 . S
C328 C324 1.413 . S
C328 C329 1.348 . S
C328 H344 0.931 . S
C329 C327 1.378 . S
C329 C328 1.348 . S
C329 H345 0.930 . S
Gd330 N350 2.622 . S
Gd330 N357 2.570 . S
Gd330 O364 2.351 1_455 S
Gd330 O365 2.468 . S
Gd330 O366 2.427 . S
Gd330 O368 2.388 . S
Gd330 O369 2.386 . S
Gd330 O373 2.297 1_455 S
Gd330 C383 2.805 . S
Gd331 N326 2.622 . S
Gd331 N332 2.570 . S
Gd331 O363 2.386 . S
Gd331 O367 2.307 1_655 S
Gd331 O370 2.353 1_655 S
Gd331 O371 2.468 . S
Gd331 O372 2.427 . S
Gd331 O374 2.388 . S
Gd331 C395 2.805 . S
N332 C322 1.359 . S
N332 Gd331 2.570 . S
N332 C334 1.343 . S
C333 C321 1.422 . S
C333 C335 1.321 . S
C333 H341 0.931 . S
C334 N332 1.343 . S
C334 C335 1.390 . S
C334 H336 0.931 . S
C335 C333 1.321 . S
C335 C334 1.390 . S
C335 H337 0.930 . S
H336 C334 0.931 . S
H337 C335 0.930 . S
H338 C361 0.931 . S
H339 C327 0.929 . S
H340 C362 0.930 . S
H341 C333 0.931 . S
H342 C323 0.930 . S
H343 C352 0.929 . S
H344 C328 0.931 . S
H345 C329 0.930 . S
H346 C384 0.930 . S
H347 C325 0.929 . S
H348 C353 0.931 . S
H349 C354 0.930 . S
N350 Gd330 2.622 . S
N350 C351 1.369 . S
N350 C352 1.338 . S
C351 N350 1.369 . S
C351 C355 1.415 . S
C351 C358 1.422 . S
C352 H343 0.929 . S
C352 N350 1.338 . S
C352 C354 1.378 . S
C353 H348 0.931 . S
C353 C354 1.348 . S
C353 C355 1.413 . S
C354 H349 0.930 . S
C354 C352 1.378 . S
C354 C353 1.348 . S
C355 C351 1.415 . S
C355 C353 1.413 . S
C355 C385 1.437 . S
H356 C385 0.929 . S
N357 Gd330 2.570 . S
N357 C358 1.359 . S
N357 C361 1.343 1_565 S
C358 C351 1.422 . S
C358 N357 1.359 . S
C358 C360 1.421 1_565 S
C359 C360 1.422 . S
C359 C362 1.321 . S
C359 H386 0.931 . S
C360 C358 1.421 1_545 S
C360 C359 1.422 . S
C360 C384 1.417 . S
C361 H338 0.931 . S
C361 N357 1.343 1_545 S
C361 C362 1.390 . S
C362 H340 0.930 . S
C362 C359 1.321 . S
C362 C361 1.390 . S
O363 Gd331 2.386 . S
O363 C375 1.265 . S
O364 Gd330 2.351 1_655 S
O364 C375 1.245 . S
O365 Gd330 2.468 . S
O365 C383 1.263 . S
O366 Gd330 2.427 . S
O366 C383 1.252 . S
O367 Gd331 2.307 1_455 S
O367 C376 1.261 . S
O368 Gd330 2.388 . S
O368 C376 1.252 . S
O369 Gd330 2.386 . S
O369 C387 1.265 . S
O370 Gd331 2.353 1_455 S
O370 C387 1.242 . S
O371 Gd331 2.468 . S
O371 C395 1.263 . S
O372 Gd331 2.427 . S
O372 C395 1.252 . S
O373 Gd330 2.297 1_655 S
O373 C388 1.273 . S
O374 Gd331 2.388 . S
O374 C388 1.252 . S
C375 O363 1.265 . S
C375 O364 1.245 . S
C376 O367 1.261 . S
C376 O368 1.252 . S
C377 C380 1.394 . S
C377 C382 1.370 . S
C377 C383 1.500 . S
C378 C381 1.383 . S
C378 C382 1.395 . S
C379 C380 1.396 . S
C379 C381 1.365 . S
C379 H396 0.929 . S
C380 C377 1.394 . S
C380 C379 1.396 . S
C380 H397 0.930 . S
C381 C378 1.383 . S
C381 C379 1.365 . S
C381 H398 0.931 . S
C382 C377 1.370 . S
C382 C378 1.395 . S
C382 H399 0.930 . S
C383 Gd330 2.805 . S
C383 O365 1.263 . S
C383 O366 1.252 . S
C383 C377 1.500 . S
C384 H346 0.930 . S
C384 C360 1.417 . S
C384 C385 1.329 1_545 S
C385 C355 1.437 . S
C385 H356 0.929 . S
C385 C384 1.329 1_565 S
H386 C359 0.931 . S
C387 O369 1.265 . S
C387 O370 1.242 . S
C388 O373 1.273 . S
C388 O374 1.252 . S
C389 C392 1.394 . S
C389 C394 1.370 . S
C389 C395 1.500 . S
C390 C393 1.383 . S
C390 C394 1.395 . S
C391 C392 1.396 . S
C391 C393 1.365 . S
C391 H400 0.929 1_565 S
C392 C389 1.394 . S
C392 C391 1.396 . S
C392 H401 0.930 . S
C393 C390 1.383 . S
C393 C391 1.365 . S
C393 H402 0.931 . S
C394 C389 1.370 . S
C394 C390 1.395 . S
C394 H403 0.930 . S
C395 Gd331 2.805 . S
C395 O371 1.263 . S
C395 O372 1.252 . S
C395 C389 1.500 . S
H396 C379 0.929 . S
H397 C380 0.930 . S
H398 C381 0.931 . S
H399 C382 0.930 . S
H400 C391 0.929 1_545 S
H401 C392 0.930 . S
H402 C393 0.931 . S
H403 C394 0.930 . S
C404 C406 1.422 . S
C404 C408 1.415 . S
C404 N410 1.369 . S
C405 C406 1.421 . S
C405 C407 1.417 . S
C405 C417 1.422 . S
C406 C404 1.422 . S
C406 C405 1.421 . S
C406 N416 1.359 . S
C407 C405 1.417 . S
C407 C409 1.329 . S
C407 H426 0.930 . S
C408 C404 1.415 . S
C408 C409 1.437 . S
C408 C412 1.413 . S
C409 C407 1.329 . S
C409 C408 1.437 . S
C409 H431 0.929 . S
N410 C404 1.369 . S
N410 C411 1.338 . S
N410 Gd415 2.622 . S
C411 N410 1.338 . S
C411 C413 1.378 . S
C411 H423 0.929 . S
C412 C408 1.413 . S
C412 C413 1.348 . S
C412 H428 0.931 . S
C413 C411 1.378 . S
C413 C412 1.348 . S
C413 H429 0.930 . S
Gd414 N434 2.622 . S
Gd414 N441 2.570 . S
Gd414 O448 2.353 . S
Gd414 O449 2.468 . S
Gd414 O450 2.427 . S
Gd414 O452 2.388 . S
Gd414 O453 2.386 . S
Gd414 O457 2.307 . S
Gd414 C467 2.805 . S
Gd415 N410 2.622 . S
Gd415 N416 2.570 . S
Gd415 O447 2.386 . S
Gd415 O451 2.307 . S
Gd415 O454 2.353 . S
Gd415 O455 2.468 . S
Gd415 O456 2.427 . S
Gd415 O458 2.388 . S
Gd415 C479 2.805 . S
N416 C406 1.359 . S
N416 Gd415 2.570 . S
N416 C418 1.343 . S
C417 C405 1.422 . S
C417 C419 1.321 . S
C417 H425 0.931 . S
C418 N416 1.343 . S
C418 C419 1.390 . S
C418 H420 0.931 . S
C419 C417 1.321 . S
C419 C418 1.390 . S
C419 H421 0.930 . S
H420 C418 0.931 . S
H421 C419 0.930 . S
H422 C445 0.931 . S
H423 C411 0.929 . S
H424 C446 0.930 . S
H425 C417 0.931 . S
H426 C407 0.930 . S
H427 C436 0.929 . S
H428 C412 0.931 . S
H429 C413 0.930 . S
H430 C468 0.930 . S
H431 C409 0.929 . S
H432 C437 0.931 . S
H433 C438 0.930 . S
N434 Gd414 2.622 . S
N434 C435 1.369 . S
N434 C436 1.338 . S
C435 N434 1.369 . S
C435 C439 1.415 . S
C435 C442 1.422 . S
C436 H427 0.929 . S
C436 N434 1.338 . S
C436 C438 1.378 . S
C437 H432 0.931 . S
C437 C438 1.348 . S
C437 C439 1.413 . S
C438 H433 0.930 . S
C438 C436 1.378 . S
C438 C437 1.348 . S
C439 C435 1.415 . S
C439 C437 1.413 . S
C439 C469 1.437 . S
H440 C469 0.929 . S
N441 Gd414 2.570 . S
N441 C442 1.359 . S
N441 C445 1.343 . S
C442 C435 1.422 . S
C442 N441 1.359 . S
C442 C444 1.421 . S
C443 C444 1.422 . S
C443 C446 1.321 . S
C443 H470 0.931 . S
C444 C442 1.421 . S
C444 C443 1.422 . S
C444 C468 1.417 . S
C445 H422 0.931 . S
C445 N441 1.343 . S
C445 C446 1.390 . S
C446 H424 0.930 . S
C446 C443 1.321 . S
C446 C445 1.390 . S
O447 Gd415 2.386 . S
O447 C459 1.265 . S
O448 Gd414 2.353 . S
O448 C459 1.242 . S
O449 Gd414 2.468 . S
O449 C467 1.263 . S
O450 Gd414 2.427 . S
O450 C467 1.252 . S
O451 Gd415 2.307 . S
O451 C460 1.261 . S
O452 Gd414 2.388 . S
O452 C460 1.252 . S
O453 Gd414 2.386 . S
O453 C471 1.265 . S
O454 Gd415 2.353 . S
O454 C471 1.242 . S
O455 Gd415 2.468 . S
O455 C479 1.263 . S
O456 Gd415 2.427 . S
O456 C479 1.252 . S
O457 Gd414 2.307 . S
O457 C472 1.261 . S
O458 Gd415 2.388 . S
O458 C472 1.252 . S
C459 O447 1.265 . S
C459 O448 1.242 . S
C460 O451 1.261 . S
C460 O452 1.252 . S
C461 C464 1.394 . S
C461 C466 1.370 . S
C461 C467 1.500 . S
C462 C465 1.383 . S
C462 C466 1.395 . S
C463 C464 1.396 . S
C463 C465 1.365 . S
C463 H480 0.929 . S
C464 C461 1.394 . S
C464 C463 1.396 . S
C464 H481 0.930 . S
C465 C462 1.383 . S
C465 C463 1.365 . S
C465 H482 0.931 . S
C466 C461 1.370 . S
C466 C462 1.395 . S
C466 H483 0.930 . S
C467 Gd414 2.805 . S
C467 O449 1.263 . S
C467 O450 1.252 . S
C467 C461 1.500 . S
C468 H430 0.930 . S
C468 C444 1.417 . S
C468 C469 1.329 . S
C469 C439 1.437 . S
C469 H440 0.929 . S
C469 C468 1.329 . S
H470 C443 0.931 . S
C471 O453 1.265 . S
C471 O454 1.242 . S
C472 O457 1.261 . S
C472 O458 1.252 . S
C473 C476 1.394 . S
C473 C478 1.370 . S
C473 C479 1.500 . S
C474 C477 1.383 . S
C474 C478 1.395 . S
C475 C476 1.396 . S
C475 C477 1.365 . S
C475 H484 0.929 . S
C476 C473 1.394 . S
C476 C475 1.396 . S
C476 H485 0.930 . S
C477 C474 1.383 . S
C477 C475 1.365 . S
C477 H486 0.931 . S
C478 C473 1.370 . S
C478 C474 1.395 . S
C478 H487 0.930 . S
C479 Gd415 2.805 . S
C479 O455 1.263 . S
C479 O456 1.252 . S
C479 C473 1.500 . S
H480 C463 0.929 . S
H481 C464 0.930 . S
H482 C465 0.931 . S
H483 C466 0.930 . S
H484 C475 0.929 . S
H485 C476 0.930 . S
H486 C477 0.931 . S
H487 C478 0.930 . S
C488 C489 1.387 . S
C488 H492 0.950 . S
C488 C497 1.390 . S
C489 C488 1.387 . S
C489 C491 1.387 . S
H490 C497 0.950 . S
C491 C489 1.387 . S
C491 C493 1.390 . S
C491 H495 0.950 . S
H492 C488 0.950 . S
C493 C491 1.390 . S
C493 C494 1.387 . S
C493 H496 0.950 . S
C494 C493 1.387 . S
C494 C497 1.387 . S
H495 C491 0.950 . S
H496 C493 0.950 . S
C497 C488 1.390 . S
C497 H490 0.950 . S
C497 C494 1.387 . S
C498 C499 1.387 . S
C498 H502 0.950 . S
C498 C507 1.390 . S
C499 C498 1.387 . S
C499 C501 1.387 . S
H500 C507 0.950 . S
C501 C499 1.387 . S
C501 C503 1.390 . S
C501 H505 0.950 . S
H502 C498 0.950 . S
C503 C501 1.390 . S
C503 C504 1.387 . S
C503 H506 0.950 . S
C504 C503 1.387 . S
C504 C507 1.387 . S
H505 C501 0.950 . S
H506 C503 0.950 . S
C507 C498 1.390 . S
C507 H500 0.950 . S
C507 C504 1.387 . S
C508 C509 1.387 . S
C508 H512 0.950 . S
C508 C517 1.390 . S
C509 C508 1.387 . S
C509 C511 1.387 . S
H510 C517 0.950 . S
C511 C509 1.387 . S
C511 C513 1.390 . S
C511 H515 0.950 . S
H512 C508 0.950 . S
C513 C511 1.390 . S
C513 C514 1.387 . S
C513 H516 0.950 . S
C514 C513 1.387 . S
C514 C517 1.387 . S
H515 C511 0.950 . S
H516 C513 0.950 . S
C517 C508 1.390 . S
C517 H510 0.950 . S
C517 C514 1.387 . S
C518 C519 1.387 . S
C518 H522 0.950 . S
C518 C527 1.390 . S
C519 C518 1.387 . S
C519 C521 1.387 . S
H520 C527 0.950 . S
C521 C519 1.387 . S
C521 C523 1.390 . S
C521 H525 0.950 . S
H522 C518 0.950 . S
C523 C521 1.390 . S
C523 C524 1.387 . S
C523 H526 0.950 . S
C524 C523 1.387 . S
C524 C527 1.387 . S
H525 C521 0.950 . S
H526 C523 0.950 . S
C527 C518 1.390 . S
C527 H520 0.950 . S
C527 C524 1.387 . S
C528 C529 1.387 . S
C528 H532 0.950 . S
C528 C537 1.390 . S
C529 C528 1.387 . S
C529 C531 1.387 . S
H530 C537 0.950 1_565 S
C531 C529 1.387 . S
C531 C533 1.390 . S
C531 H535 0.950 . S
H532 C528 0.950 . S
C533 C531 1.390 . S
C533 C534 1.387 . S
C533 H536 0.950 . S
C534 C533 1.387 . S
C534 C537 1.387 . S
H535 C531 0.950 . S
H536 C533 0.950 . S
C537 C528 1.390 . S
C537 H530 0.950 1_545 S
C537 C534 1.387 . S
C538 C539 1.387 . S
C538 H542 0.950 . S
C538 C547 1.390 . S
C539 C538 1.387 . S
C539 C541 1.387 . S
H540 C547 0.950 . S
C541 C539 1.387 . S
C541 C543 1.390 . S
C541 H545 0.950 . S
H542 C538 0.950 . S
C543 C541 1.390 . S
C543 C544 1.387 . S
C543 H546 0.950 . S
C544 C543 1.387 . S
C544 C547 1.387 . S
H545 C541 0.950 . S
H546 C543 0.950 . S
C547 C538 1.390 . S
C547 H540 0.950 . S
C547 C544 1.387 . S
C548 C549 1.387 . S
C548 H552 0.950 . S
C548 C557 1.390 . S
C549 C548 1.387 . S
C549 C551 1.387 . S
H550 C557 0.950 . S
C551 C549 1.387 . S
C551 C553 1.390 . S
C551 H555 0.950 . S
H552 C548 0.950 . S
C553 C551 1.390 . S
C553 C554 1.387 . S
C553 H556 0.950 . S
C554 C553 1.387 . S
C554 C557 1.387 . S
H555 C551 0.950 . S
H556 C553 0.950 . S
C557 C548 1.390 . S
C557 H550 0.950 . S
C557 C554 1.387 . S
C558 C559 1.387 . S
C558 H562 0.950 . S
C558 C567 1.376 1_545 S
C559 C558 1.387 . S
C559 C561 1.387 . S
H560 C567 0.975 . S
C561 C559 1.387 . S
C561 C563 1.390 . S
C561 H565 0.950 . S
H562 C558 0.950 . S
C563 C561 1.390 . S
C563 C564 1.387 . S
C563 H566 0.950 . S
C564 C563 1.387 . S
C564 C567 1.377 1_545 S
H565 C561 0.950 . S
H566 C563 0.950 . S
C567 C558 1.376 1_565 S
C567 H560 0.975 . S
C567 C564 1.377 1_565 S
C568 C569 1.387 . S
C568 H572 0.950 . S
C568 C577 1.390 1_556 S
C569 C568 1.387 . S
C569 C571 1.387 . S
H570 C577 0.950 . S
C571 C569 1.387 . S
C571 C573 1.390 1_556 S
C571 H575 0.950 . S
H572 C568 0.950 . S
C573 C571 1.390 1_554 S
C573 C574 1.387 . S
C573 H576 0.950 . S
C574 C573 1.387 . S
C574 C577 1.387 . S
H575 C571 0.950 . S
H576 C573 0.950 . S
C577 C568 1.390 1_554 S
C577 H570 0.950 . S
C577 C574 1.387 . S
C578 C579 1.387 . S
C578 H582 0.950 . S
C578 C587 1.390 . S
C579 C578 1.387 . S
C579 C581 1.387 . S
H580 C587 0.950 . S
C581 C579 1.387 . S
C581 C583 1.390 . S
C581 H585 0.950 . S
H582 C578 0.950 . S
C583 C581 1.390 . S
C583 C584 1.387 . S
C583 H586 0.950 . S
C584 C583 1.387 . S
C584 C587 1.387 . S
H585 C581 0.950 . S
H586 C583 0.950 . S
C587 C578 1.390 . S
C587 H580 0.950 . S
C587 C584 1.387 . S
C588 C589 1.387 . S
C588 H592 0.950 . S
C588 C597 1.390 1_554 S
C589 C588 1.387 . S
C589 C591 1.387 . S
H590 C597 0.950 . S
C591 C589 1.387 . S
C591 C593 1.390 1_554 S
C591 H595 0.950 . S
H592 C588 0.950 . S
C593 C591 1.390 1_556 S
C593 C594 1.387 . S
C593 H596 0.950 . S
C594 C593 1.387 . S
C594 C597 1.387 . S
H595 C591 0.950 . S
H596 C593 0.950 . S
C597 C588 1.390 1_556 S
C597 H590 0.950 . S
C597 C594 1.387 . S
C598 C599 1.387 . S
C598 H602 0.950 . S
C598 C607 1.390 . S
C599 C598 1.387 . S
C599 C601 1.387 . S
H600 C607 0.950 . S
C601 C599 1.387 . S
C601 C603 1.390 . S
C601 H605 0.950 . S
H602 C598 0.950 . S
C603 C601 1.390 . S
C603 C604 1.387 . S
C603 H606 0.950 . S
C604 C603 1.387 . S
C604 C607 1.387 . S
H605 C601 0.950 . S
H606 C603 0.950 . S
C607 C598 1.390 . S
C607 H600 0.950 . S
C607 C604 1.387 . S
C608 C609 1.384 1_556 S
C608 H612 0.949 1_556 S
C608 C617 1.394 . S
C609 C608 1.384 1_554 S
C609 C611 1.387 . S
H610 C617 0.950 . S
C611 C609 1.387 . S
C611 C613 1.390 1_554 S
C611 H615 0.950 . S
H612 C608 0.949 1_554 S
C613 C611 1.390 1_556 S
C613 C614 1.387 . S
C613 H616 0.950 . S
C614 C613 1.387 . S
C614 C617 1.387 . S
H615 C611 0.950 . S
H616 C613 0.950 . S
C617 C608 1.394 . S
C617 H610 0.950 . S
C617 C614 1.387 . S
C618 C619 1.387 . S
C618 H622 0.950 . S
C618 C627 1.390 . S
C619 C618 1.387 . S
C619 C621 1.387 . S
H620 C627 0.950 . S
C621 C619 1.387 . S
C621 C623 1.390 . S
C621 H625 0.950 . S
H622 C618 0.950 . S
C623 C621 1.390 . S
C623 C624 1.387 . S
C623 H626 0.950 . S
C624 C623 1.387 . S
C624 C627 1.387 . S
H625 C621 0.950 . S
H626 C623 0.950 . S
C627 C618 1.390 . S
C627 H620 0.950 . S
C627 C624 1.387 . S
C628 C629 1.387 . S
C628 H632 0.950 . S
C628 C637 1.390 1_556 S
C629 C628 1.387 . S
C629 C631 1.387 . S
H630 C637 0.950 . S
C631 C629 1.387 . S
C631 C633 1.390 1_556 S
C631 H635 0.950 . S
H632 C628 0.950 . S
C633 C631 1.390 1_554 S
C633 C634 1.387 . S
C633 H636 0.950 . S
C634 C633 1.387 . S
C634 C637 1.387 . S
H635 C631 0.950 . S
H636 C633 0.950 . S
C637 C628 1.390 1_554 S
C637 H630 0.950 . S
C637 C634 1.387 . S
C638 C639 1.387 . S
C638 H642 0.950 . S
C638 C647 1.390 . S
C639 C638 1.387 . S
C639 C641 1.387 . S
H640 C647 0.950 . S
C641 C639 1.387 . S
C641 C643 1.390 . S
C641 H645 0.950 . S
H642 C638 0.950 . S
C643 C641 1.390 . S
C643 C644 1.387 . S
C643 H646 0.950 . S
C644 C643 1.387 . S
C644 C647 1.387 . S
H645 C641 0.950 . S
H646 C643 0.950 . S
C647 C638 1.390 . S
C647 H640 0.950 . S
C647 C644 1.387 . S
C648 C649 1.387 . S
C648 H652 0.950 . S
C648 C657 1.390 . S
C649 C648 1.387 . S
C649 C651 1.387 . S
H650 C657 0.950 . S
C651 C649 1.387 . S
C651 C653 1.390 . S
C651 H655 0.950 . S
H652 C648 0.950 . S
C653 C651 1.390 . S
C653 C654 1.387 . S
C653 H656 0.950 . S
C654 C653 1.387 . S
C654 C657 1.387 . S
H655 C651 0.950 . S
H656 C653 0.950 . S
C657 C648 1.390 . S
C657 H650 0.950 . S
C657 C654 1.387 . S
C658 C659 1.387 . S
C658 H662 0.950 . S
C658 C667 1.390 . S
C659 C658 1.387 . S
C659 C661 1.387 . S
H660 C667 0.950 . S
C661 C659 1.387 . S
C661 C663 1.390 . S
C661 H665 0.950 . S
H662 C658 0.950 . S
C663 C661 1.390 . S
C663 C664 1.387 . S
C663 H666 0.950 . S
C664 C663 1.387 . S
C664 C667 1.387 . S
H665 C661 0.950 . S
H666 C663 0.950 . S
C667 C658 1.390 . S
C667 H660 0.950 . S
C667 C664 1.387 . S
C668 C669 1.387 . S
C668 H672 0.950 . S
C668 C677 1.390 . S
C669 C668 1.387 . S
C669 C671 1.387 . S
H670 C677 0.950 . S
C671 C669 1.387 . S
C671 C673 1.390 . S
C671 H675 0.950 . S
H672 C668 0.950 . S
C673 C671 1.390 . S
C673 C674 1.387 . S
C673 H676 0.950 . S
C674 C673 1.387 . S
C674 C677 1.387 . S
H675 C671 0.950 . S
H676 C673 0.950 . S
C677 C668 1.390 . S
C677 H670 0.950 . S
C677 C674 1.387 . S
C678 C679 1.387 . S
C678 H682 0.950 . S
C678 C687 1.390 . S
C679 C678 1.387 . S
C679 C681 1.387 . S
H680 C687 0.950 . S
C681 C679 1.387 . S
C681 C683 1.390 . S
C681 H685 0.950 . S
H682 C678 0.950 . S
C683 C681 1.390 . S
C683 C684 1.387 . S
C683 H686 0.950 . S
C684 C683 1.387 . S
C684 C687 1.387 . S
H685 C681 0.950 . S
H686 C683 0.950 . S
C687 C678 1.390 . S
C687 H680 0.950 . S
C687 C684 1.387 . S
C688 C689 1.387 . S
C688 H692 0.950 . S
C688 C697 1.390 . S
C689 C688 1.387 . S
C689 C691 1.387 . S
H690 C697 0.950 . S
C691 C689 1.387 . S
C691 C693 1.390 . S
C691 H695 0.950 . S
H692 C688 0.950 . S
C693 C691 1.390 . S
C693 C694 1.387 . S
C693 H696 0.950 . S
C694 C693 1.387 . S
C694 C697 1.387 . S
H695 C691 0.950 . S
H696 C693 0.950 . S
C697 C688 1.390 . S
C697 H690 0.950 . S
C697 C694 1.387 . S
C698 C699 1.387 . S
C698 H702 0.950 . S
C698 C707 1.390 . S
C699 C698 1.387 . S
C699 C701 1.387 . S
H700 C707 0.950 . S
C701 C699 1.387 . S
C701 C703 1.390 . S
C701 H705 0.950 . S
H702 C698 0.950 . S
C703 C701 1.390 . S
C703 C704 1.387 . S
C703 H706 0.950 . S
C704 C703 1.387 . S
C704 C707 1.387 . S
H705 C701 0.950 . S
H706 C703 0.950 . S
C707 C698 1.390 . S
C707 H700 0.950 . S
C707 C704 1.387 . S
C708 C709 1.387 . S
C708 H712 0.950 . S
C708 C717 1.390 . S
C709 C708 1.387 . S
C709 C711 1.387 . S
H710 C717 0.950 . S
C711 C709 1.387 . S
C711 C713 1.390 . S
C711 H715 0.950 . S
H712 C708 0.950 . S
C713 C711 1.390 . S
C713 C714 1.387 . S
C713 H716 0.950 . S
C714 C713 1.387 . S
C714 C717 1.387 . S
H715 C711 0.950 . S
H716 C713 0.950 . S
C717 C708 1.390 . S
C717 H710 0.950 . S
C717 C714 1.387 . S
C718 C719 1.387 . S
C718 H722 0.950 . S
C718 C727 1.390 . S
C719 C718 1.387 . S
C719 C721 1.387 . S
H720 C727 0.950 . S
C721 C719 1.387 . S
C721 C723 1.390 . S
C721 H725 0.950 . S
H722 C718 0.950 . S
C723 C721 1.390 . S
C723 C724 1.387 . S
C723 H726 0.950 . S
C724 C723 1.387 . S
C724 C727 1.387 . S
H725 C721 0.950 . S
H726 C723 0.950 . S
C727 C718 1.390 . S
C727 H720 0.950 . S
C727 C724 1.387 . S
C489 C116 1.808 . S
C494 C208 1.807 1_565 S
C504 C292 1.807 . S
C499 C135 1.808 . S
C514 C291 1.801 . S
C509 C78 1.808 . S
C519 C97 1.808 . S
C524 C207 1.800 1_565 S
C534 C388 1.808 1_545 S
C529 C40 1.810 . S
C544 C472 1.808 . S
C539 C59 1.809 . S
C549 C2 1.810 . S
C554 C471 1.800 . S
C559 C21 1.810 . S
C564 C387 1.800 1_545 S
C574 C210 1.551 . S
C569 C25 1.729 . S
C584 C294 1.552 . S
C579 C6 1.729 . S
C594 C306 1.425 . S
C589 C63 1.722 . S
C604 C222 1.420 . S
C599 C44 1.721 . S
C614 C390 1.550 . S
C609 C101 1.726 . S
C619 C82 1.727 . S
C624 C474 1.554 . S
C634 C462 1.425 . S
C629 C139 1.720 . S
C639 C120 1.720 . S
C644 C378 1.424 . S
C654 C219 1.510 . S
C649 C11 1.439 . S
C664 C303 1.510 . S
C659 C30 1.439 . S
C669 C49 1.426 . S
C674 C304 1.470 . S
C684 C220 1.471 . S
C679 C68 1.427 . S
C694 C375 1.510 . S
C689 C87 1.378 . S
C699 C106 1.375 . S
C704 C459 1.510 . S
C709 C125 1.376 . S
C714 C460 1.469 . S
C719 C144 1.377 . S
C724 C376 1.471 . S
