# Generated by pormake.
# Topology anh, (6,3)-cn, num edge types: 1
# Building blocks:
#     Node 0, Type 0, BuildingBlock: PAMTOO_clean_sbu_0, # of connection points: 6
#     Node 1, Type 0, BuildingBlock: PAMTOO_clean_sbu_0, # of connection points: 6
#     Node 2, Type 0, BuildingBlock: PAMTOO_clean_sbu_0, # of connection points: 6
#     Node 3, Type 1, BuildingBlock: ESEHIV_clean_linker_0, # of connection points: 3
#     Node 4, Type 1, BuildingBlock: ESEHIV_clean_linker_0, # of connection points: 3
#     Node 5, Type 1, BuildingBlock: ESEHIV_clean_linker_0, # of connection points: 3
#     Node 6, Type 1, BuildingBlock: ESEHIV_clean_linker_0, # of connection points: 3
#     Node 7, Type 1, BuildingBlock: ESEHIV_clean_linker_0, # of connection points: 3
#     Node 8, Type 1, BuildingBlock: ESEHIV_clean_linker_0, # of connection points: 3
#     Edge 9, Type (0, 1), BuildingBlock: MIFKUJ_clean_linker_0, # of connection points: 2
#     Edge 10, Type (0, 1), BuildingBlock: MIFKUJ_clean_linker_0, # of connection points: 2
#     Edge 11, Type (0, 1), BuildingBlock: MIFKUJ_clean_linker_0, # of connection points: 2
#     Edge 12, Type (0, 1), BuildingBlock: MIFKUJ_clean_linker_0, # of connection points: 2
#     Edge 13, Type (0, 1), BuildingBlock: MIFKUJ_clean_linker_0, # of connection points: 2
#     Edge 14, Type (0, 1), BuildingBlock: MIFKUJ_clean_linker_0, # of connection points: 2
#     Edge 15, Type (0, 1), BuildingBlock: MIFKUJ_clean_linker_0, # of connection points: 2
#     Edge 16, Type (0, 1), BuildingBlock: MIFKUJ_clean_linker_0, # of connection points: 2
#     Edge 17, Type (0, 1), BuildingBlock: MIFKUJ_clean_linker_0, # of connection points: 2
#     Edge 18, Type (0, 1), BuildingBlock: MIFKUJ_clean_linker_0, # of connection points: 2
#     Edge 19, Type (0, 1), BuildingBlock: MIFKUJ_clean_linker_0, # of connection points: 2
#     Edge 20, Type (0, 1), BuildingBlock: MIFKUJ_clean_linker_0, # of connection points: 2
#     Edge 21, Type (0, 1), BuildingBlock: MIFKUJ_clean_linker_0, # of connection points: 2
#     Edge 22, Type (0, 1), BuildingBlock: MIFKUJ_clean_linker_0, # of connection points: 2
#     Edge 23, Type (0, 1), BuildingBlock: MIFKUJ_clean_linker_0, # of connection points: 2
#     Edge 24, Type (0, 1), BuildingBlock: MIFKUJ_clean_linker_0, # of connection points: 2
#     Edge 25, Type (0, 1), BuildingBlock: MIFKUJ_clean_linker_0, # of connection points: 2
#     Edge 26, Type (0, 1), BuildingBlock: MIFKUJ_clean_linker_0, # of connection points: 2
# Relax obj value: 0.178
# Max RMSD: 0.194
# Mean RMSD: 0.155
data_MOF--net-anh--node1-PAMTOO_clean_sbu_0--node2-ESEHIV_clean_linker_0--edge1-MIFKUJ_clean_linker_0
_symmetry_space_group_name_H-M    P1
_symmetry_Int_Tables_number       1
_symmetry_cell_setting            triclinic
loop_
_symmetry_equiv_pos_as_xyz
'x, y, z'
_cell_length_a     37.281506
_cell_length_b     35.876163
_cell_length_c     67.582063
_cell_angle_alpha  90.177659
_cell_angle_beta   94.87158
_cell_angle_gamma 106.06688
loop_
_atom_site_label
_atom_site_type_symbol
_atom_site_fract_x
_atom_site_fract_y
_atom_site_fract_z
_atom_type_partial_charge
Dy0 Dy 0.06758 0.59274 0.14805 0.0
Dy1 Dy 1.04172 0.49719 0.14438 0.0
C2 C 1.05064 0.54949 0.10697 0.0
O3 O 1.00522 0.57896 0.15069 0.0
O4 O 0.98684 0.51331 0.14301 0.0
O5 O 0.09249 0.64633 0.13394 0.0
O6 O 0.07404 0.64753 0.16344 0.0
O7 O 1.03787 0.51085 0.17615 0.0
O8 O 0.07765 0.57267 0.17866 0.0
O9 O 0.10481 0.51121 0.1498 0.0
O10 O 0.12115 0.57653 0.14355 0.0
O11 O 1.0426 0.44017 0.15407 0.0
O12 O 1.00933 0.44651 0.127 0.0
C13 C 0.97872 0.546 0.14699 0.0
O14 O 1.04023 0.57429 0.11772 0.0
O15 O 0.06144 0.52125 0.11549 0.0
C16 C 0.12798 0.69612 0.15609 0.0
C17 C 0.19683 0.75151 0.16735 0.0
C18 C 0.19521 0.71215 0.1647 0.0
C19 C 0.16105 0.68466 0.15918 0.0
C20 C 0.12935 0.7352 0.15886 0.0
C21 C 0.16347 0.76269 0.16449 0.0
C22 C 0.09218 0.66769 0.14955 0.0
C23 C 0.05855 0.541 0.18677 0.0
C24 C 0.13043 0.54391 0.14674 0.0
C25 C 0.98391 0.39292 0.1467 0.0
C26 C 0.91982 0.33744 0.15834 0.0
C27 C 0.9466 0.36006 0.17268 0.0
C28 C 0.97824 0.38762 0.16694 0.0
C29 C 0.95732 0.37011 0.13239 0.0
C30 C 0.9255 0.34277 0.13813 0.0
C31 C 1.01667 0.42263 0.14027 0.0
H32 H 0.22032 0.70254 0.16704 0.0
H33 H 0.16047 0.65452 0.15721 0.0
H34 H 0.10408 0.74452 0.1565 0.0
H35 H 0.16385 0.79282 0.16624 0.0
H36 H 0.94278 0.3569 0.18836 0.0
H37 H 0.99804 0.40493 0.17836 0.0
H38 H 0.96106 0.37361 0.11671 0.0
H39 H 0.90552 0.32551 0.12676 0.0
Dy40 Dy 0.54702 0.01971 0.51821 0.0
Dy41 Dy 0.63806 0.05005 0.5274 0.0
C42 C 0.58411 0.02315 0.56178 0.0
O43 O 0.56127 0.08227 0.52834 0.0
O44 O 0.6195 0.10131 0.51712 0.0
O45 O 0.49113 0.01004 0.52753 0.0
O46 O 0.49912 0.99756 0.49705 0.0
O47 O 0.62733 0.03763 0.49463 0.0
O48 O 0.56925 0.04759 0.49072 0.0
O49 O 0.62317 0.98631 0.5328 0.0
O50 O 0.5686 0.9686 0.51224 0.0
O51 O 0.69443 0.0491 0.5227 0.0
O52 O 0.68509 0.08886 0.54458 0.0
C53 C 0.58985 0.10968 0.52286 0.0
O54 O 0.55938 1.00083 0.54877 0.0
O55 O 0.61234 0.05059 0.55612 0.0
C56 C 0.44468 0.95861 0.50977 0.0
C57 C 0.38512 0.88966 0.50743 0.0
C58 C 0.40689 0.90201 0.52554 0.0
C59 C 0.43646 0.93623 0.52671 0.0
C60 C 0.42313 0.94614 0.49173 0.0
C61 C 0.39388 0.91201 0.49053 0.0
C62 C 0.47514 0.9951 0.51027 0.0
C63 C 0.59953 0.0442 0.48324 0.0
C64 C 0.59667 0.95977 0.52244 0.0
C65 C 0.73629 0.11204 0.52597 0.0
C66 C 0.78455 0.17892 0.51103 0.0
C67 C 0.75243 0.15729 0.49935 0.0
C68 C 0.72842 0.12429 0.5068 0.0
C69 C 0.76832 0.13325 0.53764 0.0
C70 C 0.79226 0.16643 0.53025 0.0
C71 C 0.70958 0.0793 0.53447 0.0
H72 H 0.40074 0.88559 0.53885 0.0
H73 H 0.4527 0.94516 0.54084 0.0
H74 H 0.429 0.96285 0.47847 0.0
H75 H 0.37832 0.90297 0.47624 0.0
H76 H 0.74587 0.16574 0.48441 0.0
H77 H 0.70346 0.10859 0.49766 0.0
H78 H 0.77443 0.12457 0.55261 0.0
H79 H 0.81637 0.18274 0.53977 0.0
Dy80 Dy 0.57354 0.49887 0.84524 0.0
Dy81 Dy 0.48192 0.47028 0.83918 0.0
C82 C 0.53136 0.4869 0.80313 0.0
O83 O 0.55679 0.55351 0.83982 0.0
O84 O 0.49468 0.5337 0.84587 0.0
O85 O 0.62466 0.5354 0.83549 0.0
O86 O 0.62681 0.49625 0.85972 0.0
O87 O 0.49762 0.46276 0.8714 0.0
O88 O 0.55406 0.50958 0.87437 0.0
O89 O 0.49876 0.41564 0.83601 0.0
O90 O 0.55919 0.43537 0.8506 0.0
O91 O 0.4268 0.46448 0.84857 0.0
O92 O 0.43293 0.44282 0.81946 0.0
C93 C 0.52515 0.56112 0.84286 0.0
O94 O 0.55635 0.47548 0.81436 0.0
O95 O 0.50435 0.49644 0.8112 0.0
C96 C 0.67294 0.50414 0.83685 0.0
C97 C 0.72889 0.48081 0.81881 0.0
C98 C 0.70299 0.49539 0.80726 0.0
C99 C 0.67511 0.50677 0.81618 0.0
C100 C 0.69786 0.48807 0.84823 0.0
C101 C 0.72546 0.47633 0.83928 0.0
C102 C 0.64557 0.51879 0.84676 0.0
C103 C 0.5253 0.48686 0.88237 0.0
C104 C 0.52952 0.40798 0.84352 0.0
C105 C 0.38861 0.47729 0.82186 0.0
C106 C 0.34815 0.53019 0.80985 0.0
C107 C 0.38752 0.54128 0.81086 0.0
C108 C 0.40746 0.51493 0.81659 0.0
C109 C 0.34946 0.46513 0.81977 0.0
C110 C 0.32932 0.49126 0.81355 0.0
C111 C 0.41041 0.45255 0.83095 0.0
H112 H 0.70512 0.49919 0.79147 0.0
H113 H 0.65599 0.51859 0.80691 0.0
H114 H 0.69669 0.48565 0.86416 0.0
H115 H 0.74551 0.46586 0.84862 0.0
H116 H 0.40321 0.57087 0.80837 0.0
H117 H 0.43778 0.5245 0.8178 0.0
H118 H 0.33452 0.43595 0.82354 0.0
H119 H 0.29902 0.48129 0.81237 0.0
H120 H 0.52722 0.00854 0.26801 0.0
H121 H 0.63591 0.0898 0.26719 0.0
H122 H 0.56966 0.04749 0.21219 0.0
C123 C 0.54899 0.0265 0.25975 0.0
C124 C 0.54412 0.02575 0.2389 0.0
C125 C 0.58211 0.04924 0.27006 0.0
C126 C 0.61072 0.07136 0.25926 0.0
C127 C 0.6066 0.07095 0.23838 0.0
C128 C 0.57314 0.04801 0.22828 0.0
H129 H 0.57832 0.5894 0.59276 0.0
H130 H 0.58987 0.47396 0.59288 0.0
H131 H 0.59688 0.53673 0.53847 0.0
C132 C 0.58209 0.56478 0.58471 0.0
C133 C 0.58665 0.56718 0.56423 0.0
C134 C 0.58345 0.53144 0.59512 0.0
C135 C 0.58992 0.50021 0.58496 0.0
C136 C 0.59521 0.5018 0.5646 0.0
C137 C 0.59327 0.53539 0.55421 0.0
H138 H 1.04568 0.61983 0.89859 0.0
H139 H 0.15186 0.70653 0.90841 0.0
H140 H 0.1012 0.67347 0.84888 0.0
C141 C 0.06863 0.6415 0.89284 0.0
C142 C 0.07012 0.64483 0.8723 0.0
C143 C 0.09755 0.66434 0.90597 0.0
C144 C 0.12851 0.69036 0.89833 0.0
C145 C 0.12997 0.69426 0.87766 0.0
C146 C 0.09987 0.67221 0.86482 0.0
H147 H 1.02126 0.48459 0.4001 0.0
H148 H 0.11733 0.58448 0.40506 0.0
H149 H 0.07139 0.53157 0.45781 0.0
C150 C 1.04225 0.50625 0.40924 0.0
C151 C 1.04318 0.50461 0.43003 0.0
C152 C 0.0692 0.53468 0.40016 0.0
C153 C 0.09667 0.56226 0.41204 0.0
C154 C 0.09753 0.56149 0.43286 0.0
C155 C 0.07105 0.53219 0.44176 0.0
H156 H 0.54786 0.04959 0.77436 0.0
H157 H 0.5255 0.92514 0.77209 0.0
H158 H 0.52859 0.98494 0.82773 0.0
C159 C 0.54157 0.02191 0.78161 0.0
C160 C 0.53798 0.02113 0.80211 0.0
C161 C 0.537 0.98748 0.7705 0.0
C162 C 0.52935 0.9521 0.78037 0.0
C163 C 0.52688 0.95106 0.80098 0.0
C164 C 0.5309 0.98564 0.81185 0.0
H165 H 0.48517 0.53074 0.09761 0.0
H166 H 0.60072 0.53242 0.09723 0.0
H167 H 0.55587 0.54613 0.15274 0.0
C168 C 0.51215 0.5328 0.10564 0.0
C169 C 0.51618 0.53826 0.12637 0.0
C170 C 0.54238 0.5309 0.09504 0.0
C171 C 0.57746 0.53443 0.10539 0.0
C172 C 0.58318 0.53989 0.12612 0.0
C173 C 0.5521 0.54169 0.13676 0.0
H174 H 0.16169 0.48252 0.15187 0.0
H175 H 0.22715 0.4824 0.15098 0.0
H176 H 0.25802 0.60507 0.14034 0.0
H177 H 0.19243 0.60521 0.14086 0.0
H178 H 0.2953 0.57337 0.11769 0.0
H179 H 0.27772 0.56366 0.18704 0.0
H180 H 0.24738 0.53618 0.21681 0.0
H181 H 0.26953 0.42752 0.2046 0.0
H182 H 0.29957 0.45419 0.17459 0.0
H183 H 0.49217 0.60272 0.13214 0.0
H184 H 0.42871 0.60478 0.13816 0.0
H185 H 0.39618 0.48096 0.14525 0.0
H186 H 0.45988 0.47911 0.13938 0.0
H187 H 0.36028 0.51367 0.17038 0.0
H188 H 0.37718 0.52322 0.10096 0.0
H189 H 0.40816 0.55078 0.07138 0.0
H190 H 0.38718 0.65992 0.08386 0.0
H191 H 0.35664 0.63319 0.11373 0.0
C192 C 0.18229 0.50962 0.1494 0.0
C193 C 0.17113 0.54391 0.14652 0.0
C194 C 0.22013 0.50956 0.149 0.0
C195 C 0.24847 0.54385 0.14586 0.0
C196 C 0.23729 0.57805 0.14283 0.0
C197 C 0.19945 0.57813 0.1432 0.0
C198 C 0.28935 0.544 0.14546 0.0
C199 C 0.30947 0.5608 0.12944 0.0
C200 C 0.30848 0.5269 0.1604 0.0
C201 C 0.29056 0.51081 0.17846 0.0
C202 C 0.27588 0.53382 0.19062 0.0
C203 C 0.25877 0.5184 0.20755 0.0
C204 C 0.25644 0.4801 0.21256 0.0
C205 C 0.2713 0.45716 0.20068 0.0
C206 C 0.2884 0.47243 0.18372 0.0
C207 C 0.47193 0.57614 0.13577 0.0
C208 C 0.48175 0.54092 0.13588 0.0
C209 C 0.43522 0.57719 0.13888 0.0
C210 C 0.40676 0.54293 0.14189 0.0
C211 C 0.41711 0.50796 0.14302 0.0
C212 C 0.45385 0.50693 0.13986 0.0
C213 C 0.36614 0.54323 0.1427 0.0
C214 C 0.34608 0.52639 0.15871 0.0
C215 C 0.34702 0.56029 0.12777 0.0
C216 C 0.36496 0.57631 0.10969 0.0
C217 C 0.3794 0.55318 0.09747 0.0
C218 C 0.39686 0.56864 0.08065 0.0
C219 C 0.3997 0.60711 0.07577 0.0
C220 C 0.385 0.63015 0.08767 0.0
C221 C 0.36761 0.61486 0.10455 0.0
H222 H 0.41323 0.61903 0.06273 0.0
H223 H 0.24318 0.46821 0.22568 0.0
H224 H 0.86125 0.20335 0.51595 0.0
H225 H 0.90272 0.26154 0.50303 0.0
H226 H 0.80705 0.29236 0.47495 0.0
H227 H 0.76515 0.23485 0.48835 0.0
H228 H 0.86565 0.29618 0.44984 0.0
H229 H 0.84808 0.34095 0.5143 0.0
H230 H 0.847 0.33808 0.55069 0.0
H231 H 0.96442 0.34571 0.55699 0.0
H232 H 0.96608 0.34796 0.52059 0.0
H233 H 0.96733 0.48251 0.4215 0.0
H234 H 0.92136 0.42983 0.4361 0.0
H235 H 1.01019 0.40394 0.4739 0.0
H236 H 0.05608 0.45736 0.45971 0.0
H237 H 0.95222 0.39871 0.49415 0.0
H238 H 0.97025 0.35034 0.43044 0.0
H239 H 0.97267 0.35148 0.39409 0.0
H240 H 0.85633 0.34824 0.38626 0.0
H241 H 0.85336 0.34766 0.42261 0.0
C242 C 0.84892 0.22272 0.50727 0.0
C243 C 0.80983 0.21436 0.5032 0.0
C244 C 0.8727 0.25585 0.49981 0.0
C245 C 0.85789 0.2812 0.48809 0.0
C246 C 0.81897 0.27297 0.48389 0.0
C247 C 0.79512 0.24 0.49148 0.0
C248 C 0.88322 0.31614 0.48012 0.0
C249 C 0.8842 0.31896 0.45947 0.0
C250 C 0.90795 0.34522 0.49278 0.0
C251 C 0.90713 0.34429 0.51469 0.0
C252 C 0.87362 0.34171 0.52343 0.0
C253 C 0.87291 0.34024 0.54406 0.0
C254 C 0.90561 0.34164 0.55614 0.0
C255 C 0.93911 0.3446 0.54761 0.0
C256 C 0.93996 0.346 0.52698 0.0
C257 C 0.97695 0.46555 0.43295 0.0
C258 C 1.01522 0.47376 0.43941 0.0
C259 C 0.95073 0.43544 0.44125 0.0
C260 C 0.96238 0.41245 0.45585 0.0
C261 C 1.00053 0.42125 0.46264 0.0
C262 C 1.02671 0.45172 0.45454 0.0
C263 C 0.93498 0.37878 0.46379 0.0
C264 C 0.9336 0.37611 0.48445 0.0
C265 C 0.91012 0.34961 0.45113 0.0
C266 C 0.91169 0.34935 0.42926 0.0
C267 C 0.94524 0.35011 0.42097 0.0
C268 C 0.94671 0.35064 0.40037 0.0
C269 C 0.9147 0.35005 0.38787 0.0
C270 C 0.88111 0.34876 0.39596 0.0
C271 C 0.87952 0.34831 0.41656 0.0
H272 H 0.91591 0.35051 0.37193 0.0
H273 H 0.90501 0.3405 0.57212 0.0
H274 H 0.58326 0.62774 0.84638 0.0
H275 H 0.57971 0.69469 0.843 0.0
H276 H 0.45937 0.65329 0.83292 0.0
H277 H 0.46249 0.58661 0.83703 0.0
H278 H 0.49788 0.70691 0.80373 0.0
H279 H 0.48755 0.69376 0.87377 0.0
H280 H 0.50659 0.6782 0.90787 0.0
H281 H 0.61145 0.76599 0.90681 0.0
H282 H 0.59325 0.78168 0.87256 0.0
H283 H 0.46469 0.88953 0.79788 0.0
H284 H 0.45979 0.82364 0.80913 0.0
H285 H 0.57379 0.8616 0.83581 0.0
H286 H 0.57785 0.92795 0.82535 0.0
H287 H 0.53557 0.8081 0.85759 0.0
H288 H 0.54883 0.81946 0.78748 0.0
H289 H 0.53171 0.83505 0.75307 0.0
H290 H 0.42481 0.75027 0.75346 0.0
H291 H 0.44108 0.73461 0.788 0.0
C292 C 0.55602 0.63291 0.84362 0.0
C293 C 0.52317 0.60179 0.84187 0.0
C294 C 0.55405 0.67115 0.84173 0.0
C295 C 0.51929 0.67886 0.83773 0.0
C296 C 0.48646 0.64794 0.83605 0.0
C297 C 0.48833 0.60981 0.8384 0.0
C298 C 0.51731 0.71911 0.83457 0.0
C299 C 0.50567 0.72898 0.81554 0.0
C300 C 0.52821 0.74792 0.84992 0.0
C301 C 0.53922 0.73859 0.87051 0.0
C302 C 0.51483 0.70948 0.88072 0.0
C303 C 0.52543 0.7007 0.9001 0.0
C304 C 0.56026 0.72101 0.90948 0.0
C305 C 0.58451 0.75023 0.89952 0.0
C306 C 0.57405 0.7591 0.88012 0.0
C307 C 0.48822 0.88384 0.80664 0.0
C308 C 0.52158 0.91352 0.81084 0.0
C309 C 0.4856 0.84617 0.81292 0.0
C310 C 0.51676 0.83728 0.8229 0.0
C311 C 0.5494 0.86757 0.82808 0.0
C312 C 0.55174 0.90545 0.82214 0.0
C313 C 0.51642 0.79626 0.82661 0.0
C314 C 0.5277 0.78614 0.84574 0.0
C315 C 0.50564 0.76722 0.81125 0.0
C316 C 0.49601 0.77618 0.79039 0.0
C317 C 0.52159 0.80431 0.78026 0.0
C318 C 0.51205 0.81315 0.76073 0.0
C319 C 0.47716 0.79373 0.7511 0.0
C320 C 0.45179 0.76534 0.76096 0.0
C321 C 0.46116 0.75647 0.78051 0.0
H322 H 0.46982 0.80061 0.73598 0.0
H323 H 0.56841 0.71418 0.92449 0.0
H324 H 0.91774 0.48475 0.15374 0.0
H325 H 0.85197 0.48385 0.15391 0.0
H326 H 0.88036 0.60482 0.13922 0.0
H327 H 0.94661 0.60629 0.14045 0.0
H328 H 0.82998 0.59725 0.16165 0.0
H329 H 0.8325 0.5173 0.10454 0.0
H330 H 0.84603 0.46309 0.0869 0.0
H331 H 0.77629 0.38154 0.12371 0.0
H332 H 0.7626 0.43531 0.14168 0.0
H333 H 0.64499 0.60148 0.12417 0.0
H334 H 0.71094 0.60255 0.13036 0.0
H335 H 0.67762 0.48674 0.15265 0.0
H336 H 0.61132 0.48568 0.14615 0.0
H337 H 0.72936 0.49012 0.12789 0.0
H338 H 0.72382 0.57148 0.18328 0.0
H339 H 0.71031 0.62647 0.20017 0.0
H340 H 0.78575 0.70659 0.16525 0.0
H341 H 0.79936 0.65205 0.14797 0.0
C342 C 0.91006 0.51124 0.15054 0.0
C343 C 0.93796 0.54556 0.14699 0.0
C344 C 0.87198 0.51064 0.15042 0.0
C345 C 0.85992 0.54398 0.14599 0.0
C346 C 0.888 0.5784 0.14264 0.0
C347 C 0.92624 0.57925 0.14329 0.0
C348 C 0.81858 0.54328 0.14502 0.0
C349 C 0.80826 0.57395 0.15396 0.0
C350 C 0.78909 0.51267 0.13555 0.0
C351 C 0.79681 0.48033 0.12456 0.0
C352 C 0.82016 0.48781 0.10891 0.0
C353 C 0.82785 0.45716 0.09885 0.0
C354 C 0.8121 0.41891 0.10421 0.0
C355 C 0.78849 0.41119 0.11958 0.0
C356 C 0.78071 0.44173 0.12969 0.0
C357 C 0.6517 0.5768 0.13114 0.0
C358 C 0.62254 0.54404 0.1353 0.0
C359 C 0.6897 0.57728 0.13457 0.0
C360 C 0.70014 0.54487 0.14223 0.0
C361 C 0.67096 0.51236 0.14683 0.0
C362 C 0.63283 0.51195 0.14344 0.0
C363 C 0.74102 0.54424 0.14431 0.0
C364 C 0.75119 0.51335 0.13557 0.0
C365 C 0.77038 0.57481 0.15379 0.0
C366 C 0.76236 0.60765 0.16422 0.0
C367 C 0.73734 0.60081 0.17911 0.0
C368 C 0.72969 0.63191 0.18877 0.0
C369 C 0.7471 0.67 0.18375 0.0
C370 C 0.77226 0.67707 0.1691 0.0
C371 C 0.77999 0.64608 0.15939 0.0
H372 H 0.74113 0.69403 0.19124 0.0
H373 H 0.81814 0.39523 0.09644 0.0
H374 H 0.38103 0.81961 0.52497 0.0
H375 H 0.33017 0.75936 0.51988 0.0
H376 H 0.26757 0.81796 0.48055 0.0
H377 H 0.31695 0.87838 0.48647 0.0
H378 H 0.22174 0.77029 0.50195 0.0
H379 H 0.32666 0.76254 0.46483 0.0
H380 H 0.39173 0.76101 0.46176 0.0
H381 H 0.37534 0.66181 0.49887 0.0
H382 H 0.31056 0.6633 0.5025 0.0
H383 H 0.11527 0.63947 0.42796 0.0
H384 H 0.16211 0.69012 0.44773 0.0
H385 H 0.18969 0.60338 0.48543 0.0
H386 H 0.14268 0.55229 0.46555 0.0
H387 H 0.25241 0.65724 0.47254 0.0
H388 H 0.14398 0.65826 0.50433 0.0
H389 H 0.07844 0.65872 0.50653 0.0
H390 H 0.10049 0.76932 0.47879 0.0
H391 H 0.16604 0.76927 0.47613 0.0
C392 C 0.35608 0.81981 0.51557 0.0
C393 C 0.35334 0.8537 0.50586 0.0
C394 C 0.32718 0.78525 0.51252 0.0
C395 C 0.29534 0.7839 0.49951 0.0
C396 C 0.29191 0.81813 0.49057 0.0
C397 C 0.32045 0.85262 0.49377 0.0
C398 C 0.26619 0.74689 0.49417 0.0
C399 C 0.22847 0.74561 0.49549 0.0
C400 C 0.27493 0.71404 0.48638 0.0
C401 C 0.31397 0.71338 0.48418 0.0
C402 C 0.3371 0.74065 0.47249 0.0
C403 C 0.37394 0.73979 0.47065 0.0
C404 C 0.3878 0.71149 0.48022 0.0
C405 C 0.36477 0.6839 0.49158 0.0
C406 C 0.32799 0.68476 0.49355 0.0
C407 C 0.13134 0.63118 0.44045 0.0
C408 C 0.12548 0.59199 0.4452 0.0
C409 C 0.15784 0.66013 0.45183 0.0
C410 C 0.17906 0.65048 0.46815 0.0
C411 C 0.1734 0.61137 0.47295 0.0
C412 C 0.14653 0.58232 0.46166 0.0
C413 C 0.20814 0.68153 0.47953 0.0
C414 C 0.24574 0.68161 0.47939 0.0
C415 C 0.19932 0.71334 0.48831 0.0
C416 C 0.15992 0.71364 0.48994 0.0
C417 C 0.1348 0.68256 0.49856 0.0
C418 C 0.09765 0.68277 0.49991 0.0
C419 C 0.08529 0.71401 0.49278 0.0
C420 C 0.1101 0.74514 0.48431 0.0
C421 C 0.14728 0.74506 0.48291 0.0
H422 H 0.05652 0.71411 0.49384 0.0
H423 H 0.41631 0.71082 0.47877 0.0
H424 H 0.59203 0.38215 0.84915 0.0
H425 H 0.59569 0.31533 0.84661 0.0
H426 H 0.47554 0.27474 0.83501 0.0
H427 H 0.47152 0.3416 0.83736 0.0
H428 H 0.50883 0.22859 0.86259 0.0
H429 H 0.52285 0.28427 0.79728 0.0
H430 H 0.55234 0.33439 0.77422 0.0
H431 H 0.65901 0.31335 0.78972 0.0
H432 H 0.63021 0.26347 0.81309 0.0
H433 H 0.48138 0.04296 0.817 0.0
H434 H 0.48271 0.10808 0.82861 0.0
H435 H 0.60164 0.14707 0.82255 0.0
H436 H 0.59962 0.08232 0.80992 0.0
H437 H 0.5724 0.19564 0.80617 0.0
H438 H 0.56108 0.13786 0.86941 0.0
H439 H 0.53532 0.08987 0.89423 0.0
H440 H 0.42951 0.11594 0.88546 0.0
H441 H 0.45446 0.16373 0.86037 0.0
C442 C 0.56629 0.35903 0.84625 0.0
C443 C 0.53147 0.36726 0.84334 0.0
C444 C 0.56848 0.32087 0.8448 0.0
C445 C 0.5359 0.29018 0.84055 0.0
C446 C 0.50099 0.29807 0.83834 0.0
C447 C 0.49879 0.3363 0.83957 0.0
C448 C 0.53847 0.25019 0.83719 0.0
C449 C 0.52241 0.22112 0.85018 0.0
C450 C 0.5573 0.24095 0.82139 0.0
C451 C 0.57446 0.27042 0.80707 0.0
C452 C 0.55264 0.29052 0.79586 0.0
C453 C 0.56922 0.31885 0.78273 0.0
C454 C 0.60754 0.32712 0.78054 0.0
C455 C 0.62934 0.30695 0.79144 0.0
C456 C 0.6129 0.27863 0.80462 0.0
C457 C 0.50788 0.0653 0.81866 0.0
C458 C 0.54046 0.05781 0.81281 0.0
C459 C 0.50873 0.10252 0.82534 0.0
C460 C 0.54239 0.13267 0.82669 0.0
C461 C 0.5753 0.12448 0.82164 0.0
C462 C 0.57427 0.08748 0.81459 0.0
C463 C 0.54261 0.17331 0.83158 0.0
C464 C 0.55911 0.20275 0.81878 0.0
C465 C 0.52474 0.18291 0.84779 0.0
C466 C 0.50957 0.15416 0.86287 0.0
C467 C 0.53223 0.13315 0.87265 0.0
C468 C 0.51778 0.10602 0.8868 0.0
C469 C 0.48078 0.0998 0.89139 0.0
C470 C 0.45816 0.12076 0.88188 0.0
C471 C 0.47245 0.14791 0.86771 0.0
H472 H 0.46966 0.07878 0.90235 0.0
H473 H 0.62033 0.34909 0.77038 0.0
H474 H 0.63031 0.92481 0.55143 0.0
H475 H 0.62904 0.85654 0.55319 0.0
H476 H 0.56471 0.8336 0.49608 0.0
H477 H 0.56417 0.90162 0.49485 0.0
H478 H 0.53699 0.77843 0.51717 0.0
H479 H 0.66263 0.83636 0.50419 0.0
H480 H 0.72565 0.88264 0.50812 0.0
H481 H 0.74381 0.84261 0.56694 0.0
H482 H 0.68069 0.79643 0.56347 0.0
H483 H 0.63183 0.60654 0.53641 0.0
H484 H 0.63321 0.67023 0.52282 0.0
H485 H 0.54099 0.6747 0.55639 0.0
H486 H 0.53808 0.61065 0.56894 0.0
H487 H 0.64966 0.73697 0.53991 0.0
H488 H 0.49045 0.72992 0.53708 0.0
H489 H 0.4294 0.68214 0.52826 0.0
H490 H 0.4816 0.61815 0.49165 0.0
H491 H 0.54289 0.66579 0.50003 0.0
C492 C 0.61613 0.90527 0.53918 0.0
C493 C 0.59748 0.91866 0.52296 0.0
C494 C 0.61562 0.86616 0.54012 0.0
C495 C 0.59744 0.83968 0.52458 0.0
C496 C 0.57899 0.8532 0.50829 0.0
C497 C 0.57877 0.89217 0.50756 0.0
C498 C 0.59634 0.79773 0.52578 0.0
C499 C 0.56173 0.76946 0.52203 0.0
C500 C 0.62872 0.78547 0.53145 0.0
C501 C 0.6668 0.8131 0.53361 0.0
C502 C 0.67997 0.83758 0.51801 0.0
C503 C 0.71573 0.86378 0.52015 0.0
C504 C 0.7387 0.86561 0.53778 0.0
C505 C 0.72598 0.84117 0.55329 0.0
C506 C 0.69023 0.81493 0.55123 0.0
C507 C 0.6112 0.62067 0.54044 0.0
C508 C 0.58504 0.60352 0.5539 0.0
C509 C 0.61226 0.6573 0.53282 0.0
C510 C 0.58709 0.67746 0.53845 0.0
C511 C 0.56032 0.65975 0.55144 0.0
C512 C 0.55901 0.62316 0.55886 0.0
C513 C 0.5901 0.71795 0.53198 0.0
C514 C 0.62504 0.74594 0.53478 0.0
C515 C 0.55831 0.72979 0.52468 0.0
C516 C 0.52136 0.70131 0.51934 0.0
C517 C 0.48889 0.70579 0.52706 0.0
C518 C 0.45424 0.67868 0.52216 0.0
C519 C 0.45165 0.64706 0.50946 0.0
C520 C 0.48367 0.64257 0.50155 0.0
C521 C 0.51839 0.66959 0.5064 0.0
H522 H 0.42483 0.62602 0.50573 0.0
H523 H 0.76637 0.88592 0.53941 0.0
H524 H 0.77504 0.53246 0.79663 0.0
H525 H 0.84028 0.53707 0.79343 0.0
H526 H 0.82605 0.42448 0.81922 0.0
H527 H 0.76043 0.42047 0.82309 0.0
H528 H 0.8711 0.47493 0.84203 0.0
H529 H 0.86975 0.44907 0.77405 0.0
H530 H 0.85237 0.44942 0.73806 0.0
H531 H 0.90166 0.57267 0.73807 0.0
H532 H 0.91882 0.57327 0.7741 0.0
H533 H 0.05803 0.56692 0.87141 0.0
H534 H 1.00949 0.51887 0.85089 0.0
H535 H 0.97298 0.61121 0.82235 0.0
H536 H 1.02272 0.65932 0.84229 0.0
H537 H 0.96183 0.54847 0.79686 0.0
H538 H 0.93795 0.57285 0.86544 0.0
H539 H 0.95296 0.57449 0.90176 0.0
H540 H 0.94759 0.45339 0.89971 0.0
H541 H 0.9331 0.45125 0.8633 0.0
C542 C 0.78526 0.50781 0.80073 0.0
C543 C 0.76301 0.4765 0.81052 0.0
C544 C 0.82274 0.51032 0.79875 0.0
C545 C 0.83841 0.48127 0.80627 0.0
C546 C 0.81469 0.4474 0.81347 0.0
C547 C 0.77728 0.44518 0.81575 0.0
C548 C 0.87944 0.49141 0.81168 0.0
C549 C 0.89115 0.48957 0.83187 0.0
C550 C 0.90573 0.51117 0.79863 0.0
C551 C 0.89563 0.51116 0.77687 0.0
C552 C 0.87673 0.47631 0.76642 0.0
C553 C 0.86692 0.47634 0.74599 0.0
C554 C 0.87592 0.51104 0.73579 0.0
C555 C 0.89478 0.54579 0.74599 0.0
C556 C 0.90465 0.54594 0.76642 0.0
C557 C 1.03988 0.57678 0.86052 0.0
C558 C 1.04305 0.61649 0.85871 0.0
C559 C 1.0125 0.54945 0.84872 0.0
C560 C 0.98721 0.56148 0.83539 0.0
C561 C 0.99221 0.60132 0.83256 0.0
C562 C 1.02017 0.62872 0.84408 0.0
C563 C 0.95206 0.53338 0.8271 0.0
C564 C 0.94184 0.53209 0.80659 0.0
C565 C 0.92675 0.51081 0.8398 0.0
C566 C 0.93495 0.51201 0.86168 0.0
C567 C 0.94018 0.54665 0.87274 0.0
C568 C 0.94859 0.54767 0.89333 0.0
C569 C 0.95134 0.5141 0.90303 0.0
C570 C 0.94556 0.4794 0.89217 0.0
C571 C 0.93728 0.47826 0.87156 0.0
H572 H 0.95785 0.51494 0.91897 0.0
H573 H 0.86828 0.511 0.71997 0.0
H574 H 0.21153 0.81091 0.19497 0.0
H575 H 0.27124 0.85929 0.20411 0.0
H576 H 0.32402 0.80704 0.16157 0.0
H577 H 0.26435 0.75831 0.15249 0.0
H578 H 0.36715 0.8231 0.1953 0.0
H579 H 0.30238 0.89349 0.15245 0.0
H580 H 0.24978 0.91879 0.14009 0.0
H581 H 0.2584 0.98121 0.1954 0.0
H582 H 0.31074 0.95584 0.2082 0.0
H583 H 0.53568 0.97772 0.20613 0.0
H584 H 0.47746 0.93348 0.19076 0.0
H585 H 0.41479 0.97319 0.23305 0.0
H586 H 0.47258 0.01809 0.2481 0.0
H587 H 0.37831 0.96417 0.19636 0.0
H588 H 0.43981 0.88942 0.2398 0.0
H589 H 0.49231 0.86387 0.25211 0.0
H590 H 0.48971 0.80969 0.19505 0.0
H591 H 0.43749 0.83538 0.18233 0.0
C592 C 0.23578 0.80993 0.18744 0.0
C593 C 0.23318 0.78086 0.17296 0.0
C594 C 0.2699 0.83763 0.19266 0.0
C595 C 0.30205 0.83721 0.18331 0.0
C596 C 0.29961 0.80801 0.16897 0.0
C597 C 0.26552 0.78011 0.16383 0.0
C598 C 0.33835 0.8667 0.18886 0.0
C599 C 0.36972 0.85397 0.19518 0.0
C600 C 0.34165 0.90701 0.18903 0.0
C601 C 0.31031 0.92251 0.18134 0.0
C602 C 0.2929 0.9124 0.16203 0.0
C603 C 0.26315 0.92678 0.15494 0.0
C604 C 0.2507 0.95153 0.16697 0.0
C605 C 0.26805 0.96202 0.18611 0.0
C606 C 0.29779 0.94768 0.19328 0.0
C607 C 0.50941 0.97746 0.21193 0.0
C608 C 0.50875 1.00114 0.22844 0.0
C609 C 0.47622 0.95195 0.20324 0.0
C610 C 0.44184 0.94962 0.21095 0.0
C611 C 0.44099 0.97435 0.22691 0.0
C612 C 0.47408 0.99978 0.23559 0.0
C613 C 0.40685 0.92049 0.20299 0.0
C614 C 0.37575 0.9333 0.19625 0.0
C615 C 0.4038 0.88028 0.20239 0.0
C616 C 0.43505 0.86468 0.21005 0.0
C617 C 0.45063 0.87231 0.22984 0.0
C618 C 0.4803 0.85776 0.2369 0.0
C619 C 0.49441 0.83527 0.22435 0.0
C620 C 0.4788 0.82718 0.20474 0.0
C621 C 0.44916 0.84171 0.1976 0.0
H622 H 0.51737 0.82403 0.22985 0.0
H623 H 0.22766 0.96263 0.16145 0.0
H624 H 0.62623 0.16818 0.49998 0.0
H625 H 0.62792 0.2367 0.50191 0.0
H626 H 0.55606 0.213 0.54989 0.0
H627 H 0.55248 0.14403 0.5471 0.0
H628 H 0.53659 0.26287 0.52879 0.0
H629 H 0.65769 0.25326 0.55583 0.0
H630 H 0.71678 0.23517 0.555 0.0
H631 H 0.74571 0.3088 0.50548 0.0
H632 H 0.68652 0.32697 0.50586 0.0
H633 H 0.64266 0.45975 0.57786 0.0
H634 H 0.64376 0.39604 0.56581 0.0
H635 H 0.56411 0.40188 0.51654 0.0
H636 H 0.56175 0.46536 0.52913 0.0
H637 H 0.65981 0.36236 0.53516 0.0
H638 H 0.50305 0.3122 0.5075 0.0
H639 H 0.44415 0.32812 0.5127 0.0
H640 H 0.4882 0.37133 0.57171 0.0
H641 H 0.54711 0.3552 0.56693 0.0
C642 C 0.61058 0.1776 0.51084 0.0
C643 C 0.58937 0.1508 0.52347 0.0
C644 C 0.61176 0.21688 0.51203 0.0
C645 C 0.59287 0.2305 0.52638 0.0
C646 C 0.57097 0.20346 0.53869 0.0
C647 C 0.56897 0.16399 0.53714 0.0
C648 C 0.59633 0.2728 0.52889 0.0
C649 C 0.56359 0.28454 0.53007 0.0
C650 C 0.63152 0.30141 0.53073 0.0
C651 C 0.6675 0.29118 0.53076 0.0
C652 C 0.67658 0.26548 0.54472 0.0
C653 C 0.71009 0.25521 0.54432 0.0
C654 C 0.73493 0.27075 0.53016 0.0
C655 C 0.7264 0.29675 0.51642 0.0
C656 C 0.6929 0.30707 0.51673 0.0
C657 C 0.62563 0.44767 0.56432 0.0
C658 C 0.60155 0.4673 0.55466 0.0
C659 C 0.6265 0.41128 0.55735 0.0
C660 C 0.60345 0.3936 0.54047 0.0
C661 C 0.58162 0.41452 0.52983 0.0
C662 C 0.58056 0.451 0.53691 0.0
C663 C 0.6001 0.3522 0.5353 0.0
C664 C 0.63283 0.34066 0.53359 0.0
C665 C 0.56504 0.32355 0.53363 0.0
C666 C 0.5296 0.33295 0.53674 0.0
C667 C 0.50009 0.32502 0.52159 0.0
C668 C 0.46672 0.33407 0.52447 0.0
C669 C 0.46249 0.35086 0.5425 0.0
C670 C 0.49156 0.35846 0.55773 0.0
C671 C 0.52494 0.34939 0.55494 0.0
H672 H 0.43666 0.35789 0.54469 0.0
H673 H 0.76082 0.26273 0.52986 0.0
H674 H 0.36426 0.59653 0.78756 0.0
H675 H 0.33591 0.65045 0.7889 0.0
H676 H 0.25667 0.58532 0.82769 0.0
H677 H 0.28558 0.5328 0.82743 0.0
H678 H 0.22435 0.62329 0.79836 0.0
H679 H 0.33431 0.64582 0.8474 0.0
H680 H 0.40184 0.66041 0.85807 0.0
H681 H 0.4238 0.7625 0.82302 0.0
H682 H 0.35641 0.74821 0.8119 0.0
H683 H 0.19988 0.68975 0.88999 0.0
H684 H 0.24913 0.69401 0.86821 0.0
H685 H 0.18962 0.74455 0.82317 0.0
H686 H 0.13986 0.74057 0.84512 0.0
H687 H 0.29668 0.73619 0.84119 0.0
H688 H 0.17296 0.69316 0.78859 0.0
H689 H 0.10375 0.66951 0.78573 0.0
H690 H 0.10836 0.5971 0.83583 0.0
H691 H 0.17748 0.62085 0.83911 0.0
C692 C 0.3407 0.59361 0.79633 0.0
C693 C 0.32741 0.56014 0.80747 0.0
C694 C 0.32443 0.62437 0.79692 0.0
C695 C 0.29425 0.62175 0.80836 0.0
C696 C 0.27972 0.58769 0.81857 0.0
C697 C 0.29621 0.5574 0.81826 0.0
C698 C 0.27898 0.65494 0.81148 0.0
C699 C 0.24041 0.64897 0.80699 0.0
C700 C 0.29993 0.68824 0.82282 0.0
C701 C 0.34051 0.69564 0.82859 0.0
C702 C 0.35363 0.67104 0.84173 0.0
C703 C 0.39182 0.67933 0.84791 0.0
C704 C 0.41701 0.71236 0.84121 0.0
C705 C 0.4042 0.73693 0.82814 0.0
C706 C 0.36605 0.72872 0.82187 0.0
C707 C 0.19818 0.70398 0.87597 0.0
C708 C 0.1654 0.71362 0.86899 0.0
C709 C 0.2265 0.70638 0.86344 0.0
C710 C 0.22235 0.71839 0.84384 0.0
C711 C 0.19293 0.73448 0.83812 0.0
C712 C 0.16452 0.73215 0.85068 0.0
C713 C 0.24185 0.70346 0.82879 0.0
C714 C 0.2811 0.7126 0.83108 0.0
C715 C 0.22149 0.67232 0.81581 0.0
C716 C 0.1801 0.65882 0.81411 0.0
C717 C 0.15908 0.67229 0.79899 0.0
C718 C 0.11993 0.65893 0.79733 0.0
C719 C 0.10166 0.63181 0.81059 0.0
C720 C 0.12251 0.61807 0.82557 0.0
C721 C 0.16161 0.63159 0.82739 0.0
H722 H 0.07137 0.62146 0.80927 0.0
H723 H 0.44639 0.71909 0.8463 0.0
H724 H 0.91643 0.285 0.18783 0.0
H725 H 0.86083 0.23784 0.19835 0.0
H726 H 0.79142 0.27682 0.15332 0.0
H727 H 0.847 0.32451 0.14286 0.0
H728 H 0.7622 0.26935 0.18973 0.0
H729 H 0.80946 0.19242 0.14631 0.0
H730 H 0.85722 0.16572 0.1332 0.0
H731 H 0.87277 0.11313 0.18909 0.0
H732 H 0.82548 0.14 0.20263 0.0
H733 H 0.60053 0.11593 0.20617 0.0
H734 H 0.65144 0.15873 0.18946 0.0
H735 H 0.73257 0.12447 0.22932 0.0
H736 H 0.68192 0.08074 0.24562 0.0
H737 H 0.75304 0.12883 0.19234 0.0
H738 H 0.71045 0.20968 0.23665 0.0
H739 H 0.66392 0.23718 0.25054 0.0
H740 H 0.64077 0.28305 0.19376 0.0
H741 H 0.68683 0.25533 0.17946 0.0
C742 C 0.88931 0.28362 0.18021 0.0
C743 C 0.88608 0.30841 0.1645 0.0
C744 C 0.85761 0.25647 0.18613 0.0
C745 C 0.82204 0.25356 0.17648 0.0
C746 C 0.81864 0.27847 0.1609 0.0
C747 C 0.85041 0.3055 0.15487 0.0
C748 C 0.78843 0.22494 0.18298 0.0
C749 C 0.75983 0.23852 0.18996 0.0
C750 C 0.78576 0.18484 0.18365 0.0
C751 C 0.81413 0.16851 0.17554 0.0
C752 C 0.82328 0.17542 0.15586 0.0
C753 C 0.85023 0.16021 0.14834 0.0
C754 C 0.86808 0.13781 0.16032 0.0
C755 C 0.85894 0.13051 0.17983 0.0
C756 C 0.83203 0.14569 0.18743 0.0
C757 C 0.6292 0.11706 0.21116 0.0
C758 C 0.63718 0.09515 0.22733 0.0
C759 C 0.65827 0.1418 0.20172 0.0
C760 C 0.69584 0.14524 0.20833 0.0
C761 C 0.70382 0.12243 0.22402 0.0
C762 C 0.67483 0.09769 0.23343 0.0
C763 C 0.72701 0.17328 0.19934 0.0
C764 C 0.75518 0.15959 0.19191 0.0
C765 C 0.72939 0.21332 0.19835 0.0
C766 C 0.70175 0.23004 0.20693 0.0
C767 C 0.6952 0.22535 0.22709 0.0
C768 C 0.66896 0.24103 0.23504 0.0
C769 C 0.64932 0.26174 0.22302 0.0
C770 C 0.65595 0.26692 0.20304 0.0
C771 C 0.68213 0.25125 0.195 0.0
H772 H 0.62902 0.27387 0.22921 0.0
H773 H 0.88893 0.12606 0.15447 0.0
H774 H 1.01242 0.58842 0.08265 0.0
H775 H 1.02178 0.60477 0.04796 0.0
H776 H 0.10674 0.54398 0.04864 0.0
H777 H 0.09693 0.52667 0.08327 0.0
H778 H 0.12672 0.62532 0.03465 0.0
H779 H 1.03422 0.50218 0.02366 0.0
H780 H 0.97431 0.45357 0.02804 0.0
H781 H 0.91385 0.53187 0.00444 0.0
H782 H 0.97345 0.58122 0.00021 0.0
H783 H 0.14989 0.64411 0.93093 0.0
H784 H 0.14362 0.62294 0.9652 0.0
H785 H 1.0364 0.64759 0.9635 0.0
H786 H 1.04205 0.66712 0.92898 0.0
H787 H 1.02971 0.58069 0.97822 0.0
H788 H 0.11939 0.70508 0.99069 0.0
H789 H 0.17801 0.75638 0.98724 0.0
H790 H 0.24225 0.68009 0.00896 0.0
H791 H 0.18398 0.62814 0.01229 0.0
C792 C 1.03277 0.57814 0.07533 0.0
C793 C 0.05391 0.55624 0.08561 0.0
C794 C 1.03806 0.58747 0.05556 0.0
C795 C 0.06496 0.57559 0.04584 0.0
C796 C 0.08585 0.55336 0.05595 0.0
C797 C 0.08005 0.54332 0.07565 0.0
C798 C 0.07201 0.58776 0.02533 0.0
C799 C 0.10586 0.61517 0.02218 0.0
C800 C 1.04423 0.57521 0.00933 0.0
C801 C 1.00833 0.54555 0.01181 0.0
C802 C 1.00816 0.50919 0.01959 0.0
C803 C 0.97425 0.48147 0.022 0.0
C804 C 0.94029 0.48967 0.01657 0.0
C805 C 0.94018 0.52558 0.00866 0.0
C806 C 0.97402 0.55343 0.00624 0.0
C807 C 0.12541 0.64571 0.93808 0.0
C808 C 0.09656 0.65746 0.92748 0.0
C809 C 0.12179 0.63361 0.95764 0.0
C810 C 0.08963 0.63392 0.96704 0.0
C811 C 0.06139 0.64691 0.95658 0.0
C812 C 0.06471 0.65833 0.93694 0.0
C813 C 0.0844 0.61896 0.9874 0.0
C814 C 1.05081 0.59091 0.99057 0.0
C815 C 0.11225 0.63138 0.00348 0.0
C816 C 0.14732 0.6626 0.00154 0.0
C817 C 0.14602 0.69915 0.99458 0.0
C818 C 0.17918 0.72836 0.99268 0.0
C819 C 0.21384 0.72146 -0.00218 0.0
C820 C 0.21539 0.68537 0.00495 0.0
C821 C 0.18231 0.65604 0.00686 0.0
H822 H 0.23948 0.74412 0.99634 0.0
H823 H 0.91406 0.46816 0.01845 0.0
H824 H 0.54644 0.05603 0.45556 0.0
H825 H 0.54799 0.05748 0.41963 0.0
H826 H 0.65849 0.04061 0.42541 0.0
H827 H 0.65742 0.03944 0.46165 0.0
H828 H 0.65126 0.0957 0.39749 0.0
H829 H 0.58623 0.96532 0.41228 0.0
H830 H 0.539 0.91451 0.42785 0.0
H831 H 0.45077 0.95161 0.39611 0.0
H832 H 0.4975 0.00306 0.38057 0.0
H833 H 0.64377 0.04571 0.29428 0.0
H834 H 0.65055 0.04568 0.33063 0.0
H835 H 0.53757 0.05419 0.33196 0.0
H836 H 0.53061 0.05416 0.29568 0.0
H837 H 0.54985 1.00045 0.35658 0.0
H838 H 0.61419 0.13261 0.34311 0.0
H839 H 0.66092 0.18461 0.32795 0.0
H840 H 0.74988 0.14506 0.35724 0.0
H841 H 0.70362 0.09245 0.37236 0.0
C842 C 0.57124 0.05282 0.44929 0.0
C843 C 0.60171 0.04727 0.46151 0.0
C844 C 0.572 0.05355 0.4287 0.0
C845 C 0.6031 0.04856 0.41986 0.0
C846 C 0.63415 0.04434 0.43198 0.0
C847 C 0.63342 0.04355 0.45266 0.0
C848 C 0.60245 0.04677 0.39792 0.0
C849 C 0.62949 0.0745 0.38851 0.0
C850 C 0.57362 0.0195 0.38626 0.0
C851 C 0.5454 0.98825 0.39538 0.0
C852 C 0.55677 0.96281 0.40872 0.0
C853 C 0.53008 0.93388 0.41753 0.0
C854 C 0.49191 0.92989 0.413 0.0
C855 C 0.48035 0.95476 0.39961 0.0
C856 C 0.50692 0.98378 0.39078 0.0
C857 C 0.62052 0.04796 0.30234 0.0
C858 C 0.58664 0.04992 0.29212 0.0
C859 C 0.62442 0.04792 0.3231 0.0
C860 C 0.59466 0.05023 0.33402 0.0
C861 C 0.56086 0.05224 0.32384 0.0
C862 C 0.55689 0.05213 0.30311 0.0
C863 C 0.59829 0.04983 0.35606 0.0
C864 C 0.5718 0.02155 0.36551 0.0
C865 C 0.62758 0.07666 0.36771 0.0
C866 C 0.65543 0.10833 0.35869 0.0
C867 C 0.64371 0.1348 0.34618 0.0
C868 C 0.67011 0.16442 0.33763 0.0
C869 C 0.70834 0.16806 0.34159 0.0
C870 C 0.72025 0.14216 0.35416 0.0
C871 C 0.69396 0.11245 0.36274 0.0
H872 H 0.72874 0.19102 0.33495 0.0
H873 H 0.47129 0.90748 0.41984 0.0
H874 H 0.48755 0.51455 0.77565 0.0
H875 H 0.49544 0.52367 0.74027 0.0
H876 H 0.59121 0.47789 0.74649 0.0
H877 H 0.58399 0.46937 0.78189 0.0
H878 H 0.60574 0.54194 0.72527 0.0
H879 H 0.50578 0.42366 0.72502 0.0
H880 H 0.44441 0.38222 0.73312 0.0
H881 H 0.38929 0.45793 0.70191 0.0
H882 H 0.45043 0.50013 0.69385 0.0
H883 H 0.62351 0.50355 0.62435 0.0
H884 H 0.61332 0.49781 0.6596 0.0
H885 H 0.52126 0.54857 0.64992 0.0
H886 H 0.53075 0.55356 0.61448 0.0
H887 H 0.50367 0.48475 0.67277 0.0
H888 H 0.60386 0.60165 0.67193 0.0
H889 H 0.66537 0.64266 0.66379 0.0
H890 H 0.72023 0.56914 0.69705 0.0
H891 H 0.65898 0.52733 0.70516 0.0
C892 C 0.51019 0.50626 0.76947 0.0
C893 C 0.53508 0.49113 0.78158 0.0
C894 C 0.51459 0.51139 0.74923 0.0
C895 C 0.54372 0.50114 0.74069 0.0
C896 C 0.56855 0.48602 0.75276 0.0
C897 C 0.56427 0.48102 0.77299 0.0
C898 C 0.54876 0.50667 0.71925 0.0
C899 C 0.58356 0.52904 0.71378 0.0
C900 C 0.5195 0.49071 0.70428 0.0
C901 C 0.48271 0.46526 0.70901 0.0
C902 C 0.4806 0.43163 0.72002 0.0
C903 C 0.44585 0.40797 0.72458 0.0
C904 C 0.41298 0.41749 0.71808 0.0
C905 C 0.41478 0.45063 0.70696 0.0
C906 C 0.44947 0.4744 0.70237 0.0
C907 C 0.60098 0.51333 0.62971 0.0
C908 C 0.57794 0.52903 0.61664 0.0
C909 C 0.59539 0.51033 0.64988 0.0
C910 C 0.56676 0.52311 0.65741 0.0
C911 C 0.54359 0.53865 0.64441 0.0
C912 C 0.54923 0.54176 0.62422 0.0
C913 C 0.56076 0.51967 0.67882 0.0
C914 C 0.52579 0.49775 0.68427 0.0
C915 C 0.58988 0.53597 0.69378 0.0
C916 C 0.62679 0.56115 0.689 0.0
C917 C 0.62901 0.59404 0.67737 0.0
C918 C 0.66384 0.61747 0.67279 0.0
C919 C 0.69668 0.60846 0.67985 0.0
C920 C 0.69477 0.57605 0.69157 0.0
C921 C 0.66 0.5525 0.69618 0.0
H922 H 0.72362 0.62664 0.67629 0.0
H923 H 0.3861 0.39914 0.72163 0.0
H924 H 0.55801 0.95544 0.58066 0.0
H925 H 0.55067 0.94697 0.61613 0.0
H926 H 0.59032 0.07122 0.62603 0.0
H927 H 0.60026 0.07931 0.59082 0.0
H928 H 0.61785 0.042 0.65458 0.0
H929 H 0.49246 0.0141 0.62376 0.0
H930 H 0.43847 0.9816 0.60023 0.0
H931 H 0.43726 0.8715 0.62532 0.0
H932 H 0.49157 0.90328 0.64883 0.0
H933 H 0.51328 0.03438 0.74336 0.0
H934 H 0.52174 0.03812 0.70787 0.0
H935 H 0.57491 0.94571 0.71234 0.0
H936 H 0.56858 0.94302 0.74806 0.0
H937 H 0.50001 0.95805 0.67751 0.0
H938 H 0.63651 0.99404 0.705 0.0
H939 H 0.68624 0.03319 0.7291 0.0
H940 H 0.65836 0.13674 0.71025 0.0
H941 H 0.60814 0.098 0.68623 0.0
C942 C 0.56519 0.98084 0.59049 0.0
C943 C 0.57955 0.01801 0.5831 0.0
C944 C 0.56073 0.97606 0.61073 0.0
C945 C 0.56908 0.00851 0.62381 0.0
C946 C 0.58366 0.04567 0.61634 0.0
C947 C 0.58924 0.05033 0.59621 0.0
C948 C 0.56303 0.00387 0.64527 0.0
C949 C 0.59192 0.02367 0.65943 0.0
C950 C 0.52923 0.98015 0.65189 0.0
C951 C 0.4963 0.96103 0.63792 0.0
C952 C 0.4808 0.98293 0.62418 0.0
C953 C 0.45014 0.96464 0.61085 0.0
C954 C 0.43451 0.9245 0.61125 0.0
C955 C 0.44942 0.90258 0.62502 0.0
C956 C 0.48012 0.92072 0.63836 0.0
C957 C 0.52725 0.01515 0.73692 0.0
C958 C 0.54051 0.98859 0.7487 0.0
C959 C 0.53169 0.01712 0.7166 0.0
C960 C 0.54908 0.99233 0.70764 0.0
C961 C 0.56152 0.96514 0.7191 0.0
C962 C 0.55757 0.96348 0.73949 0.0
C963 C 0.55492 0.99556 0.68633 0.0
C964 C 0.52589 0.97587 0.67237 0.0
C965 C 0.58808 0.01999 0.67982 0.0
C966 C 0.61846 0.04316 0.69403 0.0
C967 C 0.64084 0.02511 0.70614 0.0
C968 C 0.66913 0.04722 0.71975 0.0
C969 C 0.67539 0.08742 0.72125 0.0
C970 C 0.65344 0.1056 0.7091 0.0
C971 C 0.62509 0.0836 0.69549 0.0
H972 H 0.6973 0.10449 0.73179 0.0
H973 H 0.41079 0.91039 0.60091 0.0
H974 H 0.47021 0.44674 0.90515 0.0
H975 H 0.46968 0.45116 0.94132 0.0
H976 H 0.57756 0.53639 0.9451 0.0
H977 H 0.57858 0.53191 0.90922 0.0
H978 H 0.57588 0.48315 0.9728 0.0
H979 H 0.49735 0.56277 0.94896 0.0
H980 H 0.44407 0.57685 0.92928 0.0
H981 H 0.36708 0.48791 0.95913 0.0
H982 H 0.41998 0.47294 0.97881 0.0
H983 H 0.58967 0.56817 0.06806 0.0
H984 H 0.58319 0.55737 0.03208 0.0
H985 H 0.47752 0.47115 0.03607 0.0
H986 H 0.48395 0.48159 0.07221 0.0
H987 H 0.47474 0.51919 0.00478 0.0
H988 H 0.55445 0.44278 0.03018 0.0
H989 H 0.60844 0.43067 0.0501 0.0
H990 H 0.68401 0.51519 0.01725 0.0
H991 H 0.63044 0.52823 0.99732 0.0
C992 C 0.49382 0.46639 0.91368 0.0
C993 C 0.52442 0.48897 0.90424 0.0
C994 C 0.49341 0.469 0.93435 0.0
C995 C 0.52349 0.49431 0.94591 0.0
C996 C 0.55408 0.51661 0.9365 0.0
C997 C 0.55453 0.51406 0.91593 0.0
C998 C 0.52356 0.49766 0.96783 0.0
C999 C 0.5539 0.49134 0.97977 0.0
C1000 C 0.49445 0.50743 0.97697 0.0
C1001 C 0.46263 0.51642 0.96518 0.0
C1002 C 0.46907 0.54598 0.9512 0.0
C1003 C 0.43894 0.55417 0.94007 0.0
C1004 C 0.40221 0.5332 0.94291 0.0
C1005 C 0.39555 0.50407 0.95692 0.0
C1006 C 0.42559 0.49574 0.96807 0.0
C1007 C 0.56516 0.5467 0.06132 0.0
C1008 C 0.53753 0.52544 0.07304 0.0
C1009 C 0.56144 0.54065 0.04074 0.0
C1010 C 0.53013 0.51304 0.03142 0.0
C1011 C 0.50194 0.49254 0.04297 0.0
C1012 C 0.50563 0.4986 0.0636 0.0
C1013 C 0.52736 0.50528 0.00967 0.0
C1014 C 0.49652 0.51067 -0.00221 0.0
C1015 C 0.5561 0.49479 0.00055 0.0
C1016 C 0.5884 0.48669 0.01236 0.0
C1017 C 0.58257 0.45897 0.02729 0.0
C1018 C 0.6131 0.45192 0.03857 0.0
C1019 C 0.64963 0.4722 0.03497 0.0
C1020 C 0.6557 0.49951 0.02003 0.0
C1021 C 0.62526 0.50672 0.00872 0.0
H1022 H 0.67323 0.46671 0.04373 0.0
H1023 H 0.37892 0.53959 0.93428 0.0
H1024 H 0.06823 0.60101 0.21325 0.0
H1025 H 0.07013 0.59835 0.24941 0.0
H1026 H 0.05662 0.47493 0.2458 0.0
H1027 H 0.05222 0.47723 0.20951 0.0
H1028 H 1.01812 0.48612 0.27251 0.0
H1029 H 0.14459 0.54636 0.25978 0.0
H1030 H 0.19646 0.59363 0.24534 0.0
H1031 H 0.17133 0.68686 0.2762 0.0
H1032 H 0.11899 0.64018 0.29063 0.0
H1033 H 0.1276 0.53727 0.37808 0.0
H1034 H 0.12692 0.536 0.34183 0.0
H1035 H 1.01006 0.53366 0.33676 0.0
H1036 H 1.01041 0.53332 0.37299 0.0
H1037 H 0.11716 0.58159 0.31458 0.0
H1038 H 0.96415 0.48527 0.2956 0.0
H1039 H 0.91819 0.43189 0.31038 0.0
H1040 H 1.00756 0.39871 0.34336 0.0
H1041 H 0.05405 0.45147 0.32855 0.0
C1042 C 0.06571 0.57335 0.22021 0.0
C1043 C 0.06031 0.53936 0.20863 0.0
C1044 C 0.06703 0.57185 0.2409 0.0
C1045 C 0.0644 0.53657 0.25047 0.0
C1046 C 0.05877 0.50254 0.23884 0.0
C1047 C 0.05639 0.50386 0.21811 0.0
C1048 C 0.06713 0.53513 0.27256 0.0
C1049 C 1.03987 0.50695 0.28167 0.0
C1050 C 0.096 0.56163 0.28466 0.0
C1051 C 0.12768 0.58979 0.27616 0.0
C1052 C 0.15 0.57696 0.2634 0.0
C1053 C 0.1795 0.60365 0.25523 0.0
C1054 C 0.18714 0.64323 0.25982 0.0
C1055 C 0.16536 0.6562 0.27265 0.0
C1056 C 0.13581 0.62963 0.28084 0.0
C1057 C 0.10182 0.5365 0.36917 0.0
C1058 C 0.069 0.53517 0.37825 0.0
C1059 C 0.10144 0.53581 0.34848 0.0
C1060 C 0.06831 0.53417 0.33649 0.0
C1061 C 1.03573 0.53391 0.34563 0.0
C1062 C 1.03595 0.53389 0.36631 0.0
C1063 C 0.06792 0.53292 0.31447 0.0
C1064 C 0.09555 0.56064 0.30539 0.0
C1065 C 1.04034 0.50497 0.30243 0.0
C1066 C 1.01256 0.4726 0.3111 0.0
C1067 C 0.974 0.46646 0.30592 0.0
C1068 C 0.94785 0.43632 0.31432 0.0
C1069 C 0.95994 0.41201 0.32785 0.0
C1070 C 0.99822 0.41764 0.33293 0.0
C1071 C 1.02448 0.44768 0.32454 0.0
H1072 H 0.93966 0.38876 0.33438 0.0
H1073 H 0.20997 0.66385 0.25347 0.0
loop_
_geom_bond_atom_site_label_1
_geom_bond_atom_site_label_2
_geom_bond_distance
_geom_bond_site_symmetry_2
_ccdc_geom_bond_type
Dy0 O3 2.307 1_455 S
Dy0 O5 2.395 . S
Dy0 O6 2.379 . S
Dy0 O8 2.339 . S
Dy0 O10 2.298 . S
Dy0 O14 2.275 . S
Dy0 C22 2.738 . S
Dy1 O4 2.298 . S
Dy1 O7 2.275 1_655 S
Dy1 O9 2.307 1_655 S
Dy1 O11 2.395 . S
Dy1 O12 2.379 . S
Dy1 O15 2.339 . S
Dy1 C31 2.738 . S
C2 O14 1.254 . S
C2 O15 1.257 1_455 S
O3 Dy0 2.307 1_655 S
O3 C13 1.266 . S
O4 Dy1 2.298 . S
O4 C13 1.236 . S
O5 Dy0 2.395 . S
O5 C22 1.255 . S
O6 Dy0 2.379 . S
O6 C22 1.249 . S
O7 Dy1 2.275 1_455 S
O7 C23 1.254 . S
O8 Dy0 2.339 . S
O8 C23 1.257 . S
O9 Dy1 2.307 1_455 S
O9 C24 1.266 . S
O10 Dy0 2.298 . S
O10 C24 1.236 . S
O11 Dy1 2.395 . S
O11 C31 1.255 . S
O12 Dy1 2.379 . S
O12 C31 1.249 . S
C13 O3 1.266 . S
C13 O4 1.236 . S
O14 Dy0 2.275 . S
O14 C2 1.254 . S
O15 Dy1 2.339 . S
O15 C2 1.257 1_655 S
C16 C19 1.344 . S
C16 C20 1.328 . S
C16 C22 1.516 . S
C17 C18 1.304 . S
C17 C21 1.323 . S
C18 C17 1.304 . S
C18 C19 1.371 . S
C18 H32 0.930 . S
C19 C16 1.344 . S
C19 C18 1.371 . S
C19 H33 0.931 . S
C20 C16 1.328 . S
C20 C21 1.433 . S
C20 H34 0.931 . S
C21 C17 1.323 . S
C21 C20 1.433 . S
C21 H35 0.933 . S
C22 Dy0 2.738 . S
C22 O5 1.255 . S
C22 O6 1.249 . S
C22 C16 1.516 . S
C23 O7 1.254 . S
C23 O8 1.257 . S
C24 O9 1.266 . S
C24 O10 1.236 . S
C25 C28 1.344 . S
C25 C29 1.328 . S
C25 C31 1.516 . S
C26 C27 1.304 . S
C26 C30 1.323 . S
C27 C26 1.304 . S
C27 C28 1.371 . S
C27 H36 0.930 . S
C28 C25 1.344 . S
C28 C27 1.371 . S
C28 H37 0.931 . S
C29 C25 1.328 . S
C29 C30 1.433 . S
C29 H38 0.931 . S
C30 C26 1.323 . S
C30 C29 1.433 . S
C30 H39 0.933 . S
C31 Dy1 2.738 . S
C31 O11 1.255 . S
C31 O12 1.249 . S
C31 C25 1.516 . S
H32 C18 0.930 . S
H33 C19 0.931 . S
H34 C20 0.931 . S
H35 C21 0.933 . S
H36 C27 0.930 . S
H37 C28 0.931 . S
H38 C29 0.931 . S
H39 C30 0.933 . S
Dy40 O43 2.307 . S
Dy40 O45 2.395 1_545 S
Dy40 O46 2.379 1_545 S
Dy40 O48 2.339 . S
Dy40 O50 2.298 1_545 S
Dy40 O54 2.275 . S
Dy40 C62 2.738 1_545 S
Dy41 O44 2.298 . S
Dy41 O47 2.275 . S
Dy41 O49 2.307 1_545 S
Dy41 O51 2.395 . S
Dy41 O52 2.379 . S
Dy41 O55 2.339 . S
Dy41 C71 2.738 . S
C42 O54 1.254 . S
C42 O55 1.257 . S
O43 Dy40 2.307 . S
O43 C53 1.266 . S
O44 Dy41 2.298 . S
O44 C53 1.236 . S
O45 Dy40 2.395 1_565 S
O45 C62 1.255 . S
O46 Dy40 2.379 1_565 S
O46 C62 1.249 . S
O47 Dy41 2.275 . S
O47 C63 1.254 . S
O48 Dy40 2.339 . S
O48 C63 1.257 . S
O49 Dy41 2.307 1_565 S
O49 C64 1.266 . S
O50 Dy40 2.298 1_565 S
O50 C64 1.236 . S
O51 Dy41 2.395 . S
O51 C71 1.255 . S
O52 Dy41 2.379 . S
O52 C71 1.249 . S
C53 O43 1.266 . S
C53 O44 1.236 . S
O54 Dy40 2.275 . S
O54 C42 1.254 . S
O55 Dy41 2.339 . S
O55 C42 1.257 . S
C56 C59 1.344 . S
C56 C60 1.328 . S
C56 C62 1.516 . S
C57 C58 1.304 . S
C57 C61 1.323 . S
C58 C57 1.304 . S
C58 C59 1.371 . S
C58 H72 0.930 . S
C59 C56 1.344 . S
C59 C58 1.371 . S
C59 H73 0.931 . S
C60 C56 1.328 . S
C60 C61 1.433 . S
C60 H74 0.931 . S
C61 C57 1.323 . S
C61 C60 1.433 . S
C61 H75 0.933 . S
C62 Dy40 2.738 1_565 S
C62 O45 1.255 . S
C62 O46 1.249 . S
C62 C56 1.516 . S
C63 O47 1.254 . S
C63 O48 1.257 . S
C64 O49 1.266 . S
C64 O50 1.236 . S
C65 C68 1.344 . S
C65 C69 1.328 . S
C65 C71 1.516 . S
C66 C67 1.304 . S
C66 C70 1.323 . S
C67 C66 1.304 . S
C67 C68 1.371 . S
C67 H76 0.930 . S
C68 C65 1.344 . S
C68 C67 1.371 . S
C68 H77 0.931 . S
C69 C65 1.328 . S
C69 C70 1.433 . S
C69 H78 0.931 . S
C70 C66 1.323 . S
C70 C69 1.433 . S
C70 H79 0.933 . S
C71 Dy41 2.738 . S
C71 O51 1.255 . S
C71 O52 1.249 . S
C71 C65 1.516 . S
H72 C58 0.930 . S
H73 C59 0.931 . S
H74 C60 0.931 . S
H75 C61 0.933 . S
H76 C67 0.930 . S
H77 C68 0.931 . S
H78 C69 0.931 . S
H79 C70 0.933 . S
Dy80 O83 2.307 . S
Dy80 O85 2.395 . S
Dy80 O86 2.379 . S
Dy80 O88 2.339 . S
Dy80 O90 2.298 . S
Dy80 O94 2.275 . S
Dy80 C102 2.738 . S
Dy81 O84 2.298 . S
Dy81 O87 2.275 . S
Dy81 O89 2.307 . S
Dy81 O91 2.395 . S
Dy81 O92 2.379 . S
Dy81 O95 2.339 . S
Dy81 C111 2.738 . S
C82 O94 1.254 . S
C82 O95 1.257 . S
O83 Dy80 2.307 . S
O83 C93 1.266 . S
O84 Dy81 2.298 . S
O84 C93 1.236 . S
O85 Dy80 2.395 . S
O85 C102 1.255 . S
O86 Dy80 2.379 . S
O86 C102 1.249 . S
O87 Dy81 2.275 . S
O87 C103 1.254 . S
O88 Dy80 2.339 . S
O88 C103 1.257 . S
O89 Dy81 2.307 . S
O89 C104 1.266 . S
O90 Dy80 2.298 . S
O90 C104 1.236 . S
O91 Dy81 2.395 . S
O91 C111 1.255 . S
O92 Dy81 2.379 . S
O92 C111 1.249 . S
C93 O83 1.266 . S
C93 O84 1.236 . S
O94 Dy80 2.275 . S
O94 C82 1.254 . S
O95 Dy81 2.339 . S
O95 C82 1.257 . S
C96 C99 1.344 . S
C96 C100 1.328 . S
C96 C102 1.516 . S
C97 C98 1.304 . S
C97 C101 1.323 . S
C98 C97 1.304 . S
C98 C99 1.371 . S
C98 H112 0.930 . S
C99 C96 1.344 . S
C99 C98 1.371 . S
C99 H113 0.931 . S
C100 C96 1.328 . S
C100 C101 1.433 . S
C100 H114 0.931 . S
C101 C97 1.323 . S
C101 C100 1.433 . S
C101 H115 0.933 . S
C102 Dy80 2.738 . S
C102 O85 1.255 . S
C102 O86 1.249 . S
C102 C96 1.516 . S
C103 O87 1.254 . S
C103 O88 1.257 . S
C104 O89 1.266 . S
C104 O90 1.236 . S
C105 C108 1.344 . S
C105 C109 1.328 . S
C105 C111 1.516 . S
C106 C107 1.304 . S
C106 C110 1.323 . S
C107 C106 1.304 . S
C107 C108 1.371 . S
C107 H116 0.930 . S
C108 C105 1.344 . S
C108 C107 1.371 . S
C108 H117 0.931 . S
C109 C105 1.328 . S
C109 C110 1.433 . S
C109 H118 0.931 . S
C110 C106 1.323 . S
C110 C109 1.433 . S
C110 H119 0.933 . S
C111 Dy81 2.738 . S
C111 O91 1.255 . S
C111 O92 1.249 . S
C111 C105 1.516 . S
H112 C98 0.930 . S
H113 C99 0.931 . S
H114 C100 0.931 . S
H115 C101 0.933 . S
H116 C107 0.930 . S
H117 C108 0.931 . S
H118 C109 0.931 . S
H119 C110 0.933 . S
H120 C123 0.931 . S
H121 C126 0.928 . S
H122 C128 0.930 . S
C123 H120 0.931 . S
C123 C124 1.413 . S
C123 C125 1.360 . S
C124 C123 1.413 . S
C124 C128 1.429 . S
C125 C123 1.360 . S
C125 C126 1.372 . S
C126 H121 0.928 . S
C126 C125 1.372 . S
C126 C127 1.404 . S
C127 C126 1.404 . S
C127 C128 1.391 . S
C128 H122 0.930 . S
C128 C124 1.429 . S
C128 C127 1.391 . S
H129 C132 0.931 . S
H130 C135 0.928 . S
H131 C137 0.930 . S
C132 H129 0.931 . S
C132 C133 1.413 . S
C132 C134 1.360 . S
C133 C132 1.413 . S
C133 C137 1.429 . S
C134 C132 1.360 . S
C134 C135 1.372 . S
C135 H130 0.928 . S
C135 C134 1.372 . S
C135 C136 1.404 . S
C136 C135 1.404 . S
C136 C137 1.391 . S
C137 H131 0.930 . S
C137 C133 1.429 . S
C137 C136 1.391 . S
H138 C141 0.931 . S
H139 C144 0.928 . S
H140 C146 0.930 . S
C141 H138 0.931 . S
C141 C142 1.413 . S
C141 C143 1.360 1_655 S
C142 C141 1.413 . S
C142 C146 1.429 1_655 S
C143 C141 1.360 1_455 S
C143 C144 1.372 . S
C144 H139 0.928 . S
C144 C143 1.372 . S
C144 C145 1.404 . S
C145 C144 1.404 . S
C145 C146 1.391 . S
C146 H140 0.930 . S
C146 C142 1.429 1_455 S
C146 C145 1.391 . S
H147 C150 0.931 . S
H148 C153 0.928 . S
H149 C155 0.930 . S
C150 H147 0.931 . S
C150 C151 1.413 . S
C150 C152 1.360 1_655 S
C151 C150 1.413 . S
C151 C155 1.429 1_655 S
C152 C150 1.360 1_455 S
C152 C153 1.372 . S
C153 H148 0.928 . S
C153 C152 1.372 . S
C153 C154 1.404 . S
C154 C153 1.404 . S
C154 C155 1.391 . S
C155 H149 0.930 . S
C155 C151 1.429 1_455 S
C155 C154 1.391 . S
H156 C159 0.931 . S
H157 C162 0.928 . S
H158 C164 0.930 . S
C159 H156 0.931 . S
C159 C160 1.413 . S
C159 C161 1.360 . S
C160 C159 1.413 . S
C160 C164 1.429 . S
C161 C159 1.360 . S
C161 C162 1.372 1_545 S
C162 H157 0.928 . S
C162 C161 1.372 1_565 S
C162 C163 1.404 . S
C163 C162 1.404 . S
C163 C164 1.391 1_565 S
C164 H158 0.930 . S
C164 C160 1.429 . S
C164 C163 1.391 1_545 S
H165 C168 0.931 . S
H166 C171 0.928 . S
H167 C173 0.930 . S
C168 H165 0.931 . S
C168 C169 1.413 . S
C168 C170 1.360 . S
C169 C168 1.413 . S
C169 C173 1.429 . S
C170 C168 1.360 . S
C170 C171 1.372 . S
C171 H166 0.928 . S
C171 C170 1.372 . S
C171 C172 1.404 . S
C172 C171 1.404 . S
C172 C173 1.391 . S
C173 H167 0.930 . S
C173 C169 1.429 . S
C173 C172 1.391 . S
H174 C192 0.951 . S
H175 C194 0.951 . S
H176 C196 0.950 . S
H177 C197 0.950 . S
H178 C199 0.950 . S
H179 C202 0.950 . S
H180 C203 0.950 . S
H181 C205 0.950 . S
H182 C206 0.950 . S
H183 C207 0.951 . S
H184 C209 0.951 . S
H185 C211 0.950 . S
H186 C212 0.950 . S
H187 C214 0.950 . S
H188 C217 0.950 . S
H189 C218 0.950 . S
H190 C220 0.950 . S
H191 C221 0.950 . S
C192 H174 0.951 . S
C192 C193 1.366 . S
C192 C194 1.388 . S
C193 C192 1.366 . S
C193 C197 1.385 . S
C194 H175 0.951 . S
C194 C192 1.388 . S
C194 C195 1.366 . S
C195 C194 1.366 . S
C195 C196 1.414 . S
C195 C198 1.499 . S
C196 H176 0.950 . S
C196 C195 1.414 . S
C196 C197 1.374 . S
C197 H177 0.950 . S
C197 C193 1.385 . S
C197 C196 1.374 . S
C198 C195 1.499 . S
C198 C199 1.373 . S
C198 C200 1.389 . S
C199 H178 0.950 . S
C199 C198 1.373 . S
C199 C215 1.377 . S
C200 C198 1.389 . S
C200 C201 1.524 . S
C200 C214 1.377 . S
C201 C200 1.524 . S
C201 C202 1.397 . S
C201 C206 1.363 . S
C202 H179 0.950 . S
C202 C201 1.397 . S
C202 C203 1.334 . S
C203 H180 0.950 . S
C203 C202 1.334 . S
C203 C204 1.287 . S
C204 C203 1.287 . S
C204 C205 1.524 . S
C204 H223 0.913 . S
C205 H181 0.950 . S
C205 C204 1.524 . S
C205 C206 1.415 . S
C206 H182 0.950 . S
C206 C201 1.363 . S
C206 C205 1.415 . S
C207 H183 0.951 . S
C207 C208 1.366 . S
C207 C209 1.388 . S
C208 C207 1.366 . S
C208 C212 1.385 . S
C209 H184 0.951 . S
C209 C207 1.388 . S
C209 C210 1.366 . S
C210 C209 1.366 . S
C210 C211 1.414 . S
C210 C213 1.499 . S
C211 H185 0.950 . S
C211 C210 1.414 . S
C211 C212 1.374 . S
C212 H186 0.950 . S
C212 C208 1.385 . S
C212 C211 1.374 . S
C213 C210 1.499 . S
C213 C214 1.373 . S
C213 C215 1.389 . S
C214 H187 0.950 . S
C214 C200 1.377 . S
C214 C213 1.373 . S
C215 C199 1.377 . S
C215 C213 1.389 . S
C215 C216 1.524 . S
C216 C215 1.524 . S
C216 C217 1.397 . S
C216 C221 1.363 . S
C217 H188 0.950 . S
C217 C216 1.397 . S
C217 C218 1.334 . S
C218 H189 0.950 . S
C218 C217 1.334 . S
C218 C219 1.287 . S
C219 C218 1.287 . S
C219 C220 1.524 . S
C219 H222 0.999 . S
C220 H190 0.950 . S
C220 C219 1.524 . S
C220 C221 1.415 . S
C221 H191 0.950 . S
C221 C216 1.363 . S
C221 C220 1.415 . S
H222 C219 0.999 . S
H223 C204 0.913 . S
H224 C242 0.951 . S
H225 C244 0.951 . S
H226 C246 0.950 . S
H227 C247 0.950 . S
H228 C249 0.950 . S
H229 C252 0.950 . S
H230 C253 0.950 . S
H231 C255 0.950 . S
H232 C256 0.950 . S
H233 C257 0.951 . S
H234 C259 0.951 . S
H235 C261 0.950 . S
H236 C262 0.950 . S
H237 C264 0.950 . S
H238 C267 0.950 . S
H239 C268 0.950 . S
H240 C270 0.950 . S
H241 C271 0.950 . S
C242 H224 0.951 . S
C242 C243 1.366 . S
C242 C244 1.388 . S
C243 C242 1.366 . S
C243 C247 1.385 . S
C244 H225 0.951 . S
C244 C242 1.388 . S
C244 C245 1.366 . S
C245 C244 1.366 . S
C245 C246 1.414 . S
C245 C248 1.499 . S
C246 H226 0.950 . S
C246 C245 1.414 . S
C246 C247 1.374 . S
C247 H227 0.950 . S
C247 C243 1.385 . S
C247 C246 1.374 . S
C248 C245 1.499 . S
C248 C249 1.373 . S
C248 C250 1.389 . S
C249 H228 0.950 . S
C249 C248 1.373 . S
C249 C265 1.377 . S
C250 C248 1.389 . S
C250 C251 1.524 . S
C250 C264 1.377 . S
C251 C250 1.524 . S
C251 C252 1.397 . S
C251 C256 1.363 . S
C252 H229 0.950 . S
C252 C251 1.397 . S
C252 C253 1.334 . S
C253 H230 0.950 . S
C253 C252 1.334 . S
C253 C254 1.287 . S
C254 C253 1.287 . S
C254 C255 1.524 . S
C254 H273 0.913 . S
C255 H231 0.950 . S
C255 C254 1.524 . S
C255 C256 1.415 . S
C256 H232 0.950 . S
C256 C251 1.363 . S
C256 C255 1.415 . S
C257 H233 0.951 . S
C257 C258 1.366 . S
C257 C259 1.388 . S
C258 C257 1.366 . S
C258 C262 1.385 . S
C259 H234 0.951 . S
C259 C257 1.388 . S
C259 C260 1.366 . S
C260 C259 1.366 . S
C260 C261 1.414 . S
C260 C263 1.499 . S
C261 H235 0.950 . S
C261 C260 1.414 . S
C261 C262 1.374 . S
C262 H236 0.950 . S
C262 C258 1.385 . S
C262 C261 1.374 . S
C263 C260 1.499 . S
C263 C264 1.373 . S
C263 C265 1.389 . S
C264 H237 0.950 . S
C264 C250 1.377 . S
C264 C263 1.373 . S
C265 C249 1.377 . S
C265 C263 1.389 . S
C265 C266 1.524 . S
C266 C265 1.524 . S
C266 C267 1.397 . S
C266 C271 1.363 . S
C267 H238 0.950 . S
C267 C266 1.397 . S
C267 C268 1.334 . S
C268 H239 0.950 . S
C268 C267 1.334 . S
C268 C269 1.287 . S
C269 C268 1.287 . S
C269 C270 1.524 . S
C269 H272 0.999 . S
C270 H240 0.950 . S
C270 C269 1.524 . S
C270 C271 1.415 . S
C271 H241 0.950 . S
C271 C266 1.363 . S
C271 C270 1.415 . S
H272 C269 0.999 . S
H273 C254 0.913 . S
H274 C292 0.951 . S
H275 C294 0.951 . S
H276 C296 0.950 . S
H277 C297 0.950 . S
H278 C299 0.950 . S
H279 C302 0.950 . S
H280 C303 0.950 . S
H281 C305 0.950 . S
H282 C306 0.950 . S
H283 C307 0.951 . S
H284 C309 0.951 . S
H285 C311 0.950 . S
H286 C312 0.950 . S
H287 C314 0.950 . S
H288 C317 0.950 . S
H289 C318 0.950 . S
H290 C320 0.950 . S
H291 C321 0.950 . S
C292 H274 0.951 . S
C292 C293 1.366 . S
C292 C294 1.388 . S
C293 C292 1.366 . S
C293 C297 1.385 . S
C294 H275 0.951 . S
C294 C292 1.388 . S
C294 C295 1.366 . S
C295 C294 1.366 . S
C295 C296 1.414 . S
C295 C298 1.499 . S
C296 H276 0.950 . S
C296 C295 1.414 . S
C296 C297 1.374 . S
C297 H277 0.950 . S
C297 C293 1.385 . S
C297 C296 1.374 . S
C298 C295 1.499 . S
C298 C299 1.373 . S
C298 C300 1.389 . S
C299 H278 0.950 . S
C299 C298 1.373 . S
C299 C315 1.377 . S
C300 C298 1.389 . S
C300 C301 1.524 . S
C300 C314 1.377 . S
C301 C300 1.524 . S
C301 C302 1.397 . S
C301 C306 1.363 . S
C302 H279 0.950 . S
C302 C301 1.397 . S
C302 C303 1.334 . S
C303 H280 0.950 . S
C303 C302 1.334 . S
C303 C304 1.287 . S
C304 C303 1.287 . S
C304 C305 1.524 . S
C304 H323 0.913 . S
C305 H281 0.950 . S
C305 C304 1.524 . S
C305 C306 1.415 . S
C306 H282 0.950 . S
C306 C301 1.363 . S
C306 C305 1.415 . S
C307 H283 0.951 . S
C307 C308 1.366 . S
C307 C309 1.388 . S
C308 C307 1.366 . S
C308 C312 1.385 . S
C309 H284 0.951 . S
C309 C307 1.388 . S
C309 C310 1.366 . S
C310 C309 1.366 . S
C310 C311 1.414 . S
C310 C313 1.499 . S
C311 H285 0.950 . S
C311 C310 1.414 . S
C311 C312 1.374 . S
C312 H286 0.950 . S
C312 C308 1.385 . S
C312 C311 1.374 . S
C313 C310 1.499 . S
C313 C314 1.373 . S
C313 C315 1.389 . S
C314 H287 0.950 . S
C314 C300 1.377 . S
C314 C313 1.373 . S
C315 C299 1.377 . S
C315 C313 1.389 . S
C315 C316 1.524 . S
C316 C315 1.524 . S
C316 C317 1.397 . S
C316 C321 1.363 . S
C317 H288 0.950 . S
C317 C316 1.397 . S
C317 C318 1.334 . S
C318 H289 0.950 . S
C318 C317 1.334 . S
C318 C319 1.287 . S
C319 C318 1.287 . S
C319 C320 1.524 . S
C319 H322 0.999 . S
C320 H290 0.950 . S
C320 C319 1.524 . S
C320 C321 1.415 . S
C321 H291 0.950 . S
C321 C316 1.363 . S
C321 C320 1.415 . S
H322 C319 0.999 . S
H323 C304 0.913 . S
H324 C342 0.951 . S
H325 C344 0.951 . S
H326 C346 0.950 . S
H327 C347 0.950 . S
H328 C349 0.950 . S
H329 C352 0.950 . S
H330 C353 0.950 . S
H331 C355 0.950 . S
H332 C356 0.950 . S
H333 C357 0.951 . S
H334 C359 0.951 . S
H335 C361 0.950 . S
H336 C362 0.950 . S
H337 C364 0.950 . S
H338 C367 0.950 . S
H339 C368 0.950 . S
H340 C370 0.950 . S
H341 C371 0.950 . S
C342 H324 0.951 . S
C342 C343 1.366 . S
C342 C344 1.388 . S
C343 C342 1.366 . S
C343 C347 1.385 . S
C344 H325 0.951 . S
C344 C342 1.388 . S
C344 C345 1.366 . S
C345 C344 1.366 . S
C345 C346 1.414 . S
C345 C348 1.499 . S
C346 H326 0.950 . S
C346 C345 1.414 . S
C346 C347 1.374 . S
C347 H327 0.950 . S
C347 C343 1.385 . S
C347 C346 1.374 . S
C348 C345 1.499 . S
C348 C349 1.373 . S
C348 C350 1.389 . S
C349 H328 0.950 . S
C349 C348 1.373 . S
C349 C365 1.377 . S
C350 C348 1.389 . S
C350 C351 1.524 . S
C350 C364 1.377 . S
C351 C350 1.524 . S
C351 C352 1.397 . S
C351 C356 1.363 . S
C352 H329 0.950 . S
C352 C351 1.397 . S
C352 C353 1.334 . S
C353 H330 0.950 . S
C353 C352 1.334 . S
C353 C354 1.287 . S
C354 C353 1.287 . S
C354 C355 1.524 . S
C354 H373 0.913 . S
C355 H331 0.950 . S
C355 C354 1.524 . S
C355 C356 1.415 . S
C356 H332 0.950 . S
C356 C351 1.363 . S
C356 C355 1.415 . S
C357 H333 0.951 . S
C357 C358 1.366 . S
C357 C359 1.388 . S
C358 C357 1.366 . S
C358 C362 1.385 . S
C359 H334 0.951 . S
C359 C357 1.388 . S
C359 C360 1.366 . S
C360 C359 1.366 . S
C360 C361 1.414 . S
C360 C363 1.499 . S
C361 H335 0.950 . S
C361 C360 1.414 . S
C361 C362 1.374 . S
C362 H336 0.950 . S
C362 C358 1.385 . S
C362 C361 1.374 . S
C363 C360 1.499 . S
C363 C364 1.373 . S
C363 C365 1.389 . S
C364 H337 0.950 . S
C364 C350 1.377 . S
C364 C363 1.373 . S
C365 C349 1.377 . S
C365 C363 1.389 . S
C365 C366 1.524 . S
C366 C365 1.524 . S
C366 C367 1.397 . S
C366 C371 1.363 . S
C367 H338 0.950 . S
C367 C366 1.397 . S
C367 C368 1.334 . S
C368 H339 0.950 . S
C368 C367 1.334 . S
C368 C369 1.287 . S
C369 C368 1.287 . S
C369 C370 1.524 . S
C369 H372 0.999 . S
C370 H340 0.950 . S
C370 C369 1.524 . S
C370 C371 1.415 . S
C371 H341 0.950 . S
C371 C366 1.363 . S
C371 C370 1.415 . S
H372 C369 0.999 . S
H373 C354 0.913 . S
H374 C392 0.951 . S
H375 C394 0.951 . S
H376 C396 0.950 . S
H377 C397 0.950 . S
H378 C399 0.950 . S
H379 C402 0.950 . S
H380 C403 0.950 . S
H381 C405 0.950 . S
H382 C406 0.950 . S
H383 C407 0.951 . S
H384 C409 0.951 . S
H385 C411 0.950 . S
H386 C412 0.950 . S
H387 C414 0.950 . S
H388 C417 0.950 . S
H389 C418 0.950 . S
H390 C420 0.950 . S
H391 C421 0.950 . S
C392 H374 0.951 . S
C392 C393 1.366 . S
C392 C394 1.388 . S
C393 C392 1.366 . S
C393 C397 1.385 . S
C394 H375 0.951 . S
C394 C392 1.388 . S
C394 C395 1.366 . S
C395 C394 1.366 . S
C395 C396 1.414 . S
C395 C398 1.499 . S
C396 H376 0.950 . S
C396 C395 1.414 . S
C396 C397 1.374 . S
C397 H377 0.950 . S
C397 C393 1.385 . S
C397 C396 1.374 . S
C398 C395 1.499 . S
C398 C399 1.373 . S
C398 C400 1.389 . S
C399 H378 0.950 . S
C399 C398 1.373 . S
C399 C415 1.377 . S
C400 C398 1.389 . S
C400 C401 1.524 . S
C400 C414 1.377 . S
C401 C400 1.524 . S
C401 C402 1.397 . S
C401 C406 1.363 . S
C402 H379 0.950 . S
C402 C401 1.397 . S
C402 C403 1.334 . S
C403 H380 0.950 . S
C403 C402 1.334 . S
C403 C404 1.287 . S
C404 C403 1.287 . S
C404 C405 1.524 . S
C404 H423 0.913 . S
C405 H381 0.950 . S
C405 C404 1.524 . S
C405 C406 1.415 . S
C406 H382 0.950 . S
C406 C401 1.363 . S
C406 C405 1.415 . S
C407 H383 0.951 . S
C407 C408 1.366 . S
C407 C409 1.388 . S
C408 C407 1.366 . S
C408 C412 1.385 . S
C409 H384 0.951 . S
C409 C407 1.388 . S
C409 C410 1.366 . S
C410 C409 1.366 . S
C410 C411 1.414 . S
C410 C413 1.499 . S
C411 H385 0.950 . S
C411 C410 1.414 . S
C411 C412 1.374 . S
C412 H386 0.950 . S
C412 C408 1.385 . S
C412 C411 1.374 . S
C413 C410 1.499 . S
C413 C414 1.373 . S
C413 C415 1.389 . S
C414 H387 0.950 . S
C414 C400 1.377 . S
C414 C413 1.373 . S
C415 C399 1.377 . S
C415 C413 1.389 . S
C415 C416 1.524 . S
C416 C415 1.524 . S
C416 C417 1.397 . S
C416 C421 1.363 . S
C417 H388 0.950 . S
C417 C416 1.397 . S
C417 C418 1.334 . S
C418 H389 0.950 . S
C418 C417 1.334 . S
C418 C419 1.287 . S
C419 C418 1.287 . S
C419 C420 1.524 . S
C419 H422 0.999 . S
C420 H390 0.950 . S
C420 C419 1.524 . S
C420 C421 1.415 . S
C421 H391 0.950 . S
C421 C416 1.363 . S
C421 C420 1.415 . S
H422 C419 0.999 . S
H423 C404 0.913 . S
H424 C442 0.951 . S
H425 C444 0.951 . S
H426 C446 0.950 . S
H427 C447 0.950 . S
H428 C449 0.950 . S
H429 C452 0.950 . S
H430 C453 0.950 . S
H431 C455 0.950 . S
H432 C456 0.950 . S
H433 C457 0.951 . S
H434 C459 0.951 . S
H435 C461 0.950 . S
H436 C462 0.950 . S
H437 C464 0.950 . S
H438 C467 0.950 . S
H439 C468 0.950 . S
H440 C470 0.950 . S
H441 C471 0.950 . S
C442 H424 0.951 . S
C442 C443 1.366 . S
C442 C444 1.388 . S
C443 C442 1.366 . S
C443 C447 1.385 . S
C444 H425 0.951 . S
C444 C442 1.388 . S
C444 C445 1.366 . S
C445 C444 1.366 . S
C445 C446 1.414 . S
C445 C448 1.499 . S
C446 H426 0.950 . S
C446 C445 1.414 . S
C446 C447 1.374 . S
C447 H427 0.950 . S
C447 C443 1.385 . S
C447 C446 1.374 . S
C448 C445 1.499 . S
C448 C449 1.373 . S
C448 C450 1.389 . S
C449 H428 0.950 . S
C449 C448 1.373 . S
C449 C465 1.377 . S
C450 C448 1.389 . S
C450 C451 1.524 . S
C450 C464 1.377 . S
C451 C450 1.524 . S
C451 C452 1.397 . S
C451 C456 1.363 . S
C452 H429 0.950 . S
C452 C451 1.397 . S
C452 C453 1.334 . S
C453 H430 0.950 . S
C453 C452 1.334 . S
C453 C454 1.287 . S
C454 C453 1.287 . S
C454 C455 1.524 . S
C454 H473 0.913 . S
C455 H431 0.950 . S
C455 C454 1.524 . S
C455 C456 1.415 . S
C456 H432 0.950 . S
C456 C451 1.363 . S
C456 C455 1.415 . S
C457 H433 0.951 . S
C457 C458 1.366 . S
C457 C459 1.388 . S
C458 C457 1.366 . S
C458 C462 1.385 . S
C459 H434 0.951 . S
C459 C457 1.388 . S
C459 C460 1.366 . S
C460 C459 1.366 . S
C460 C461 1.414 . S
C460 C463 1.499 . S
C461 H435 0.950 . S
C461 C460 1.414 . S
C461 C462 1.374 . S
C462 H436 0.950 . S
C462 C458 1.385 . S
C462 C461 1.374 . S
C463 C460 1.499 . S
C463 C464 1.373 . S
C463 C465 1.389 . S
C464 H437 0.950 . S
C464 C450 1.377 . S
C464 C463 1.373 . S
C465 C449 1.377 . S
C465 C463 1.389 . S
C465 C466 1.524 . S
C466 C465 1.524 . S
C466 C467 1.397 . S
C466 C471 1.363 . S
C467 H438 0.950 . S
C467 C466 1.397 . S
C467 C468 1.334 . S
C468 H439 0.950 . S
C468 C467 1.334 . S
C468 C469 1.287 . S
C469 C468 1.287 . S
C469 C470 1.524 . S
C469 H472 0.999 . S
C470 H440 0.950 . S
C470 C469 1.524 . S
C470 C471 1.415 . S
C471 H441 0.950 . S
C471 C466 1.363 . S
C471 C470 1.415 . S
H472 C469 0.999 . S
H473 C454 0.913 . S
H474 C492 0.951 . S
H475 C494 0.951 . S
H476 C496 0.950 . S
H477 C497 0.950 . S
H478 C499 0.950 . S
H479 C502 0.950 . S
H480 C503 0.950 . S
H481 C505 0.950 . S
H482 C506 0.950 . S
H483 C507 0.951 . S
H484 C509 0.951 . S
H485 C511 0.950 . S
H486 C512 0.950 . S
H487 C514 0.950 . S
H488 C517 0.950 . S
H489 C518 0.950 . S
H490 C520 0.950 . S
H491 C521 0.950 . S
C492 H474 0.951 . S
C492 C493 1.366 . S
C492 C494 1.388 . S
C493 C492 1.366 . S
C493 C497 1.385 . S
C494 H475 0.951 . S
C494 C492 1.388 . S
C494 C495 1.366 . S
C495 C494 1.366 . S
C495 C496 1.414 . S
C495 C498 1.499 . S
C496 H476 0.950 . S
C496 C495 1.414 . S
C496 C497 1.374 . S
C497 H477 0.950 . S
C497 C493 1.385 . S
C497 C496 1.374 . S
C498 C495 1.499 . S
C498 C499 1.373 . S
C498 C500 1.389 . S
C499 H478 0.950 . S
C499 C498 1.373 . S
C499 C515 1.377 . S
C500 C498 1.389 . S
C500 C501 1.524 . S
C500 C514 1.377 . S
C501 C500 1.524 . S
C501 C502 1.397 . S
C501 C506 1.363 . S
C502 H479 0.950 . S
C502 C501 1.397 . S
C502 C503 1.334 . S
C503 H480 0.950 . S
C503 C502 1.334 . S
C503 C504 1.287 . S
C504 C503 1.287 . S
C504 C505 1.524 . S
C504 H523 0.913 . S
C505 H481 0.950 . S
C505 C504 1.524 . S
C505 C506 1.415 . S
C506 H482 0.950 . S
C506 C501 1.363 . S
C506 C505 1.415 . S
C507 H483 0.951 . S
C507 C508 1.366 . S
C507 C509 1.388 . S
C508 C507 1.366 . S
C508 C512 1.385 . S
C509 H484 0.951 . S
C509 C507 1.388 . S
C509 C510 1.366 . S
C510 C509 1.366 . S
C510 C511 1.414 . S
C510 C513 1.499 . S
C511 H485 0.950 . S
C511 C510 1.414 . S
C511 C512 1.374 . S
C512 H486 0.950 . S
C512 C508 1.385 . S
C512 C511 1.374 . S
C513 C510 1.499 . S
C513 C514 1.373 . S
C513 C515 1.389 . S
C514 H487 0.950 . S
C514 C500 1.377 . S
C514 C513 1.373 . S
C515 C499 1.377 . S
C515 C513 1.389 . S
C515 C516 1.524 . S
C516 C515 1.524 . S
C516 C517 1.397 . S
C516 C521 1.363 . S
C517 H488 0.950 . S
C517 C516 1.397 . S
C517 C518 1.334 . S
C518 H489 0.950 . S
C518 C517 1.334 . S
C518 C519 1.287 . S
C519 C518 1.287 . S
C519 C520 1.524 . S
C519 H522 0.999 . S
C520 H490 0.950 . S
C520 C519 1.524 . S
C520 C521 1.415 . S
C521 H491 0.950 . S
C521 C516 1.363 . S
C521 C520 1.415 . S
H522 C519 0.999 . S
H523 C504 0.913 . S
H524 C542 0.951 . S
H525 C544 0.951 . S
H526 C546 0.950 . S
H527 C547 0.950 . S
H528 C549 0.950 . S
H529 C552 0.950 . S
H530 C553 0.950 . S
H531 C555 0.950 . S
H532 C556 0.950 . S
H533 C557 0.951 . S
H534 C559 0.951 . S
H535 C561 0.950 . S
H536 C562 0.950 . S
H537 C564 0.950 . S
H538 C567 0.950 . S
H539 C568 0.950 . S
H540 C570 0.950 . S
H541 C571 0.950 . S
C542 H524 0.951 . S
C542 C543 1.366 . S
C542 C544 1.388 . S
C543 C542 1.366 . S
C543 C547 1.385 . S
C544 H525 0.951 . S
C544 C542 1.388 . S
C544 C545 1.366 . S
C545 C544 1.366 . S
C545 C546 1.414 . S
C545 C548 1.499 . S
C546 H526 0.950 . S
C546 C545 1.414 . S
C546 C547 1.374 . S
C547 H527 0.950 . S
C547 C543 1.385 . S
C547 C546 1.374 . S
C548 C545 1.499 . S
C548 C549 1.373 . S
C548 C550 1.389 . S
C549 H528 0.950 . S
C549 C548 1.373 . S
C549 C565 1.377 . S
C550 C548 1.389 . S
C550 C551 1.524 . S
C550 C564 1.377 . S
C551 C550 1.524 . S
C551 C552 1.397 . S
C551 C556 1.363 . S
C552 H529 0.950 . S
C552 C551 1.397 . S
C552 C553 1.334 . S
C553 H530 0.950 . S
C553 C552 1.334 . S
C553 C554 1.287 . S
C554 C553 1.287 . S
C554 C555 1.524 . S
C554 H573 0.913 . S
C555 H531 0.950 . S
C555 C554 1.524 . S
C555 C556 1.415 . S
C556 H532 0.950 . S
C556 C551 1.363 . S
C556 C555 1.415 . S
C557 H533 0.951 . S
C557 C558 1.366 . S
C557 C559 1.388 . S
C558 C557 1.366 . S
C558 C562 1.385 . S
C559 H534 0.951 . S
C559 C557 1.388 . S
C559 C560 1.366 . S
C560 C559 1.366 . S
C560 C561 1.414 . S
C560 C563 1.499 . S
C561 H535 0.950 . S
C561 C560 1.414 . S
C561 C562 1.374 . S
C562 H536 0.950 . S
C562 C558 1.385 . S
C562 C561 1.374 . S
C563 C560 1.499 . S
C563 C564 1.373 . S
C563 C565 1.389 . S
C564 H537 0.950 . S
C564 C550 1.377 . S
C564 C563 1.373 . S
C565 C549 1.377 . S
C565 C563 1.389 . S
C565 C566 1.524 . S
C566 C565 1.524 . S
C566 C567 1.397 . S
C566 C571 1.363 . S
C567 H538 0.950 . S
C567 C566 1.397 . S
C567 C568 1.334 . S
C568 H539 0.950 . S
C568 C567 1.334 . S
C568 C569 1.287 . S
C569 C568 1.287 . S
C569 C570 1.524 . S
C569 H572 0.999 . S
C570 H540 0.950 . S
C570 C569 1.524 . S
C570 C571 1.415 . S
C571 H541 0.950 . S
C571 C566 1.363 . S
C571 C570 1.415 . S
H572 C569 0.999 . S
H573 C554 0.913 . S
H574 C592 0.951 . S
H575 C594 0.951 . S
H576 C596 0.950 . S
H577 C597 0.950 . S
H578 C599 0.950 . S
H579 C602 0.950 . S
H580 C603 0.950 . S
H581 C605 0.950 . S
H582 C606 0.950 . S
H583 C607 0.951 1_545 S
H584 C609 0.951 . S
H585 C611 0.950 . S
H586 C612 0.950 . S
H587 C614 0.950 . S
H588 C617 0.950 . S
H589 C618 0.950 . S
H590 C620 0.950 . S
H591 C621 0.950 . S
C592 H574 0.951 . S
C592 C593 1.366 . S
C592 C594 1.388 . S
C593 C592 1.366 . S
C593 C597 1.385 . S
C594 H575 0.951 . S
C594 C592 1.388 . S
C594 C595 1.366 . S
C595 C594 1.366 . S
C595 C596 1.414 . S
C595 C598 1.499 . S
C596 H576 0.950 . S
C596 C595 1.414 . S
C596 C597 1.374 . S
C597 H577 0.950 . S
C597 C593 1.385 . S
C597 C596 1.374 . S
C598 C595 1.499 . S
C598 C599 1.373 . S
C598 C600 1.389 . S
C599 H578 0.950 . S
C599 C598 1.373 . S
C599 C615 1.377 . S
C600 C598 1.389 . S
C600 C601 1.524 . S
C600 C614 1.377 . S
C601 C600 1.524 . S
C601 C602 1.397 . S
C601 C606 1.363 . S
C602 H579 0.950 . S
C602 C601 1.397 . S
C602 C603 1.334 . S
C603 H580 0.950 . S
C603 C602 1.334 . S
C603 C604 1.287 . S
C604 C603 1.287 . S
C604 C605 1.524 . S
C604 H623 0.913 . S
C605 H581 0.950 . S
C605 C604 1.524 . S
C605 C606 1.415 . S
C606 H582 0.950 . S
C606 C601 1.363 . S
C606 C605 1.415 . S
C607 H583 0.951 1_565 S
C607 C608 1.366 1_565 S
C607 C609 1.388 . S
C608 C607 1.366 1_545 S
C608 C612 1.385 1_545 S
C609 H584 0.951 . S
C609 C607 1.388 . S
C609 C610 1.366 . S
C610 C609 1.366 . S
C610 C611 1.414 . S
C610 C613 1.499 . S
C611 H585 0.950 . S
C611 C610 1.414 . S
C611 C612 1.374 . S
C612 H586 0.950 . S
C612 C608 1.385 1_565 S
C612 C611 1.374 . S
C613 C610 1.499 . S
C613 C614 1.373 . S
C613 C615 1.389 . S
C614 H587 0.950 . S
C614 C600 1.377 . S
C614 C613 1.373 . S
C615 C599 1.377 . S
C615 C613 1.389 . S
C615 C616 1.524 . S
C616 C615 1.524 . S
C616 C617 1.397 . S
C616 C621 1.363 . S
C617 H588 0.950 . S
C617 C616 1.397 . S
C617 C618 1.334 . S
C618 H589 0.950 . S
C618 C617 1.334 . S
C618 C619 1.287 . S
C619 C618 1.287 . S
C619 C620 1.524 . S
C619 H622 0.999 . S
C620 H590 0.950 . S
C620 C619 1.524 . S
C620 C621 1.415 . S
C621 H591 0.950 . S
C621 C616 1.363 . S
C621 C620 1.415 . S
H622 C619 0.999 . S
H623 C604 0.913 . S
H624 C642 0.951 . S
H625 C644 0.951 . S
H626 C646 0.950 . S
H627 C647 0.950 . S
H628 C649 0.950 . S
H629 C652 0.950 . S
H630 C653 0.950 . S
H631 C655 0.950 . S
H632 C656 0.950 . S
H633 C657 0.951 . S
H634 C659 0.951 . S
H635 C661 0.950 . S
H636 C662 0.950 . S
H637 C664 0.950 . S
H638 C667 0.950 . S
H639 C668 0.950 . S
H640 C670 0.950 . S
H641 C671 0.950 . S
C642 H624 0.951 . S
C642 C643 1.366 . S
C642 C644 1.388 . S
C643 C642 1.366 . S
C643 C647 1.385 . S
C644 H625 0.951 . S
C644 C642 1.388 . S
C644 C645 1.366 . S
C645 C644 1.366 . S
C645 C646 1.414 . S
C645 C648 1.499 . S
C646 H626 0.950 . S
C646 C645 1.414 . S
C646 C647 1.374 . S
C647 H627 0.950 . S
C647 C643 1.385 . S
C647 C646 1.374 . S
C648 C645 1.499 . S
C648 C649 1.373 . S
C648 C650 1.389 . S
C649 H628 0.950 . S
C649 C648 1.373 . S
C649 C665 1.377 . S
C650 C648 1.389 . S
C650 C651 1.524 . S
C650 C664 1.377 . S
C651 C650 1.524 . S
C651 C652 1.397 . S
C651 C656 1.363 . S
C652 H629 0.950 . S
C652 C651 1.397 . S
C652 C653 1.334 . S
C653 H630 0.950 . S
C653 C652 1.334 . S
C653 C654 1.287 . S
C654 C653 1.287 . S
C654 C655 1.524 . S
C654 H673 0.913 . S
C655 H631 0.950 . S
C655 C654 1.524 . S
C655 C656 1.415 . S
C656 H632 0.950 . S
C656 C651 1.363 . S
C656 C655 1.415 . S
C657 H633 0.951 . S
C657 C658 1.366 . S
C657 C659 1.388 . S
C658 C657 1.366 . S
C658 C662 1.385 . S
C659 H634 0.951 . S
C659 C657 1.388 . S
C659 C660 1.366 . S
C660 C659 1.366 . S
C660 C661 1.414 . S
C660 C663 1.499 . S
C661 H635 0.950 . S
C661 C660 1.414 . S
C661 C662 1.374 . S
C662 H636 0.950 . S
C662 C658 1.385 . S
C662 C661 1.374 . S
C663 C660 1.499 . S
C663 C664 1.373 . S
C663 C665 1.389 . S
C664 H637 0.950 . S
C664 C650 1.377 . S
C664 C663 1.373 . S
C665 C649 1.377 . S
C665 C663 1.389 . S
C665 C666 1.524 . S
C666 C665 1.524 . S
C666 C667 1.397 . S
C666 C671 1.363 . S
C667 H638 0.950 . S
C667 C666 1.397 . S
C667 C668 1.334 . S
C668 H639 0.950 . S
C668 C667 1.334 . S
C668 C669 1.287 . S
C669 C668 1.287 . S
C669 C670 1.524 . S
C669 H672 0.999 . S
C670 H640 0.950 . S
C670 C669 1.524 . S
C670 C671 1.415 . S
C671 H641 0.950 . S
C671 C666 1.363 . S
C671 C670 1.415 . S
H672 C669 0.999 . S
H673 C654 0.913 . S
H674 C692 0.951 . S
H675 C694 0.951 . S
H676 C696 0.950 . S
H677 C697 0.950 . S
H678 C699 0.950 . S
H679 C702 0.950 . S
H680 C703 0.950 . S
H681 C705 0.950 . S
H682 C706 0.950 . S
H683 C707 0.951 . S
H684 C709 0.951 . S
H685 C711 0.950 . S
H686 C712 0.950 . S
H687 C714 0.950 . S
H688 C717 0.950 . S
H689 C718 0.950 . S
H690 C720 0.950 . S
H691 C721 0.950 . S
C692 H674 0.951 . S
C692 C693 1.366 . S
C692 C694 1.388 . S
C693 C692 1.366 . S
C693 C697 1.385 . S
C694 H675 0.951 . S
C694 C692 1.388 . S
C694 C695 1.366 . S
C695 C694 1.366 . S
C695 C696 1.414 . S
C695 C698 1.499 . S
C696 H676 0.950 . S
C696 C695 1.414 . S
C696 C697 1.374 . S
C697 H677 0.950 . S
C697 C693 1.385 . S
C697 C696 1.374 . S
C698 C695 1.499 . S
C698 C699 1.373 . S
C698 C700 1.389 . S
C699 H678 0.950 . S
C699 C698 1.373 . S
C699 C715 1.377 . S
C700 C698 1.389 . S
C700 C701 1.524 . S
C700 C714 1.377 . S
C701 C700 1.524 . S
C701 C702 1.397 . S
C701 C706 1.363 . S
C702 H679 0.950 . S
C702 C701 1.397 . S
C702 C703 1.334 . S
C703 H680 0.950 . S
C703 C702 1.334 . S
C703 C704 1.287 . S
C704 C703 1.287 . S
C704 C705 1.524 . S
C704 H723 0.913 . S
C705 H681 0.950 . S
C705 C704 1.524 . S
C705 C706 1.415 . S
C706 H682 0.950 . S
C706 C701 1.363 . S
C706 C705 1.415 . S
C707 H683 0.951 . S
C707 C708 1.366 . S
C707 C709 1.388 . S
C708 C707 1.366 . S
C708 C712 1.385 . S
C709 H684 0.951 . S
C709 C707 1.388 . S
C709 C710 1.366 . S
C710 C709 1.366 . S
C710 C711 1.414 . S
C710 C713 1.499 . S
C711 H685 0.950 . S
C711 C710 1.414 . S
C711 C712 1.374 . S
C712 H686 0.950 . S
C712 C708 1.385 . S
C712 C711 1.374 . S
C713 C710 1.499 . S
C713 C714 1.373 . S
C713 C715 1.389 . S
C714 H687 0.950 . S
C714 C700 1.377 . S
C714 C713 1.373 . S
C715 C699 1.377 . S
C715 C713 1.389 . S
C715 C716 1.524 . S
C716 C715 1.524 . S
C716 C717 1.397 . S
C716 C721 1.363 . S
C717 H688 0.950 . S
C717 C716 1.397 . S
C717 C718 1.334 . S
C718 H689 0.950 . S
C718 C717 1.334 . S
C718 C719 1.287 . S
C719 C718 1.287 . S
C719 C720 1.524 . S
C719 H722 0.999 . S
C720 H690 0.950 . S
C720 C719 1.524 . S
C720 C721 1.415 . S
C721 H691 0.950 . S
C721 C716 1.363 . S
C721 C720 1.415 . S
H722 C719 0.999 . S
H723 C704 0.913 . S
H724 C742 0.951 . S
H725 C744 0.951 . S
H726 C746 0.950 . S
H727 C747 0.950 . S
H728 C749 0.950 . S
H729 C752 0.950 . S
H730 C753 0.950 . S
H731 C755 0.950 . S
H732 C756 0.950 . S
H733 C757 0.951 . S
H734 C759 0.951 . S
H735 C761 0.950 . S
H736 C762 0.950 . S
H737 C764 0.950 . S
H738 C767 0.950 . S
H739 C768 0.950 . S
H740 C770 0.950 . S
H741 C771 0.950 . S
C742 H724 0.951 . S
C742 C743 1.366 . S
C742 C744 1.388 . S
C743 C742 1.366 . S
C743 C747 1.385 . S
C744 H725 0.951 . S
C744 C742 1.388 . S
C744 C745 1.366 . S
C745 C744 1.366 . S
C745 C746 1.414 . S
C745 C748 1.499 . S
C746 H726 0.950 . S
C746 C745 1.414 . S
C746 C747 1.374 . S
C747 H727 0.950 . S
C747 C743 1.385 . S
C747 C746 1.374 . S
C748 C745 1.499 . S
C748 C749 1.373 . S
C748 C750 1.389 . S
C749 H728 0.950 . S
C749 C748 1.373 . S
C749 C765 1.377 . S
C750 C748 1.389 . S
C750 C751 1.524 . S
C750 C764 1.377 . S
C751 C750 1.524 . S
C751 C752 1.397 . S
C751 C756 1.363 . S
C752 H729 0.950 . S
C752 C751 1.397 . S
C752 C753 1.334 . S
C753 H730 0.950 . S
C753 C752 1.334 . S
C753 C754 1.287 . S
C754 C753 1.287 . S
C754 C755 1.524 . S
C754 H773 0.913 . S
C755 H731 0.950 . S
C755 C754 1.524 . S
C755 C756 1.415 . S
C756 H732 0.950 . S
C756 C751 1.363 . S
C756 C755 1.415 . S
C757 H733 0.951 . S
C757 C758 1.366 . S
C757 C759 1.388 . S
C758 C757 1.366 . S
C758 C762 1.385 . S
C759 H734 0.951 . S
C759 C757 1.388 . S
C759 C760 1.366 . S
C760 C759 1.366 . S
C760 C761 1.414 . S
C760 C763 1.499 . S
C761 H735 0.950 . S
C761 C760 1.414 . S
C761 C762 1.374 . S
C762 H736 0.950 . S
C762 C758 1.385 . S
C762 C761 1.374 . S
C763 C760 1.499 . S
C763 C764 1.373 . S
C763 C765 1.389 . S
C764 H737 0.950 . S
C764 C750 1.377 . S
C764 C763 1.373 . S
C765 C749 1.377 . S
C765 C763 1.389 . S
C765 C766 1.524 . S
C766 C765 1.524 . S
C766 C767 1.397 . S
C766 C771 1.363 . S
C767 H738 0.950 . S
C767 C766 1.397 . S
C767 C768 1.334 . S
C768 H739 0.950 . S
C768 C767 1.334 . S
C768 C769 1.287 . S
C769 C768 1.287 . S
C769 C770 1.524 . S
C769 H772 0.999 . S
C770 H740 0.950 . S
C770 C769 1.524 . S
C770 C771 1.415 . S
C771 H741 0.950 . S
C771 C766 1.363 . S
C771 C770 1.415 . S
H772 C769 0.999 . S
H773 C754 0.913 . S
H774 C792 0.951 . S
H775 C794 0.951 . S
H776 C796 0.950 . S
H777 C797 0.950 . S
H778 C799 0.950 . S
H779 C802 0.950 1_455 S
H780 C803 0.950 . S
H781 C805 0.950 . S
H782 C806 0.950 . S
H783 C807 0.951 . S
H784 C809 0.951 . S
H785 C811 0.950 . S
H786 C812 0.950 . S
H787 C814 0.950 . S
H788 C817 0.947 1_556 S
H789 C818 0.950 . S
H790 C820 0.950 . S
H791 C821 0.950 . S
C792 H774 0.951 . S
C792 C793 1.366 1_655 S
C792 C794 1.388 . S
C793 C792 1.366 1_455 S
C793 C797 1.385 . S
C794 H775 0.951 . S
C794 C792 1.388 . S
C794 C795 1.366 1_655 S
C795 C794 1.366 1_455 S
C795 C796 1.414 . S
C795 C798 1.499 . S
C796 H776 0.950 . S
C796 C795 1.414 . S
C796 C797 1.374 . S
C797 H777 0.950 . S
C797 C793 1.385 . S
C797 C796 1.374 . S
C798 C795 1.499 . S
C798 C799 1.373 . S
C798 C800 1.389 1_455 S
C799 H778 0.950 . S
C799 C798 1.373 . S
C799 C815 1.377 . S
C800 C798 1.389 1_655 S
C800 C801 1.524 . S
C800 C814 1.377 . S
C801 C800 1.524 . S
C801 C802 1.397 . S
C801 C806 1.363 . S
C802 H779 0.950 1_655 S
C802 C801 1.397 . S
C802 C803 1.334 . S
C803 H780 0.950 . S
C803 C802 1.334 . S
C803 C804 1.287 . S
C804 C803 1.287 . S
C804 C805 1.524 . S
C804 H823 0.913 . S
C805 H781 0.950 . S
C805 C804 1.524 . S
C805 C806 1.415 . S
C806 H782 0.950 . S
C806 C801 1.363 . S
C806 C805 1.415 . S
C807 H783 0.951 . S
C807 C808 1.366 . S
C807 C809 1.388 . S
C808 C807 1.366 . S
C808 C812 1.385 1_455 S
C809 H784 0.951 . S
C809 C807 1.388 . S
C809 C810 1.366 . S
C810 C809 1.366 . S
C810 C811 1.414 1_455 S
C810 C813 1.499 1_556 S
C811 H785 0.950 . S
C811 C810 1.414 1_655 S
C811 C812 1.374 . S
C812 H786 0.950 . S
C812 C808 1.385 1_655 S
C812 C811 1.374 . S
C813 C810 1.499 1_554 S
C813 C814 1.373 1_455 S
C813 C815 1.389 . S
C814 H787 0.950 . S
C814 C800 1.377 . S
C814 C813 1.373 1_655 S
C815 C799 1.377 . S
C815 C813 1.389 . S
C815 C816 1.524 . S
C816 C815 1.524 . S
C816 C817 1.404 . S
C816 C821 1.363 . S
C817 H788 0.947 1_554 S
C817 C816 1.404 . S
C817 C818 1.330 1_554 S
C818 H789 0.950 . S
C818 C817 1.330 1_556 S
C818 C819 1.287 1_556 S
C819 C818 1.287 1_554 S
C819 C820 1.524 . S
C819 H822 0.999 1_554 S
C820 H790 0.950 . S
C820 C819 1.524 . S
C820 C821 1.415 . S
C821 H791 0.950 . S
C821 C816 1.363 . S
C821 C820 1.415 . S
H822 C819 0.999 1_556 S
H823 C804 0.913 . S
H824 C842 0.951 . S
H825 C844 0.951 . S
H826 C846 0.950 . S
H827 C847 0.950 . S
H828 C849 0.950 . S
H829 C852 0.950 . S
H830 C853 0.950 . S
H831 C855 0.950 . S
H832 C856 0.950 . S
H833 C857 0.951 . S
H834 C859 0.951 . S
H835 C861 0.950 . S
H836 C862 0.950 . S
H837 C864 0.950 . S
H838 C867 0.950 . S
H839 C868 0.950 . S
H840 C870 0.950 . S
H841 C871 0.950 . S
C842 H824 0.951 . S
C842 C843 1.366 . S
C842 C844 1.388 . S
C843 C842 1.366 . S
C843 C847 1.385 . S
C844 H825 0.951 . S
C844 C842 1.388 . S
C844 C845 1.366 . S
C845 C844 1.366 . S
C845 C846 1.414 . S
C845 C848 1.499 . S
C846 H826 0.950 . S
C846 C845 1.414 . S
C846 C847 1.374 . S
C847 H827 0.950 . S
C847 C843 1.385 . S
C847 C846 1.374 . S
C848 C845 1.499 . S
C848 C849 1.373 . S
C848 C850 1.389 . S
C849 H828 0.950 . S
C849 C848 1.373 . S
C849 C865 1.377 . S
C850 C848 1.389 . S
C850 C851 1.524 . S
C850 C864 1.377 . S
C851 C850 1.524 . S
C851 C852 1.397 1_545 S
C851 C856 1.363 . S
C852 H829 0.950 . S
C852 C851 1.397 1_565 S
C852 C853 1.334 . S
C853 H830 0.950 . S
C853 C852 1.334 . S
C853 C854 1.287 . S
C854 C853 1.287 . S
C854 C855 1.524 1_565 S
C854 H873 0.913 . S
C855 H831 0.950 . S
C855 C854 1.524 1_545 S
C855 C856 1.415 . S
C856 H832 0.950 . S
C856 C851 1.363 . S
C856 C855 1.415 . S
C857 H833 0.951 . S
C857 C858 1.366 . S
C857 C859 1.388 . S
C858 C857 1.366 . S
C858 C862 1.385 . S
C859 H834 0.951 . S
C859 C857 1.388 . S
C859 C860 1.366 . S
C860 C859 1.366 . S
C860 C861 1.414 . S
C860 C863 1.499 . S
C861 H835 0.950 . S
C861 C860 1.414 . S
C861 C862 1.374 . S
C862 H836 0.950 . S
C862 C858 1.385 . S
C862 C861 1.374 . S
C863 C860 1.499 . S
C863 C864 1.373 . S
C863 C865 1.389 . S
C864 H837 0.950 . S
C864 C850 1.377 . S
C864 C863 1.373 . S
C865 C849 1.377 . S
C865 C863 1.389 . S
C865 C866 1.524 . S
C866 C865 1.524 . S
C866 C867 1.397 . S
C866 C871 1.363 . S
C867 H838 0.950 . S
C867 C866 1.397 . S
C867 C868 1.334 . S
C868 H839 0.950 . S
C868 C867 1.334 . S
C868 C869 1.287 . S
C869 C868 1.287 . S
C869 C870 1.524 . S
C869 H872 0.999 . S
C870 H840 0.950 . S
C870 C869 1.524 . S
C870 C871 1.415 . S
C871 H841 0.950 . S
C871 C866 1.363 . S
C871 C870 1.415 . S
H872 C869 0.999 . S
H873 C854 0.913 . S
H874 C892 0.951 . S
H875 C894 0.951 . S
H876 C896 0.950 . S
H877 C897 0.950 . S
H878 C899 0.950 . S
H879 C902 0.950 . S
H880 C903 0.950 . S
H881 C905 0.950 . S
H882 C906 0.950 . S
H883 C907 0.951 . S
H884 C909 0.951 . S
H885 C911 0.950 . S
H886 C912 0.950 . S
H887 C914 0.950 . S
H888 C917 0.950 . S
H889 C918 0.950 . S
H890 C920 0.950 . S
H891 C921 0.950 . S
C892 H874 0.951 . S
C892 C893 1.366 . S
C892 C894 1.388 . S
C893 C892 1.366 . S
C893 C897 1.385 . S
C894 H875 0.951 . S
C894 C892 1.388 . S
C894 C895 1.366 . S
C895 C894 1.366 . S
C895 C896 1.414 . S
C895 C898 1.499 . S
C896 H876 0.950 . S
C896 C895 1.414 . S
C896 C897 1.374 . S
C897 H877 0.950 . S
C897 C893 1.385 . S
C897 C896 1.374 . S
C898 C895 1.499 . S
C898 C899 1.373 . S
C898 C900 1.389 . S
C899 H878 0.950 . S
C899 C898 1.373 . S
C899 C915 1.377 . S
C900 C898 1.389 . S
C900 C901 1.524 . S
C900 C914 1.377 . S
C901 C900 1.524 . S
C901 C902 1.397 . S
C901 C906 1.363 . S
C902 H879 0.950 . S
C902 C901 1.397 . S
C902 C903 1.334 . S
C903 H880 0.950 . S
C903 C902 1.334 . S
C903 C904 1.287 . S
C904 C903 1.287 . S
C904 C905 1.524 . S
C904 H923 0.913 . S
C905 H881 0.950 . S
C905 C904 1.524 . S
C905 C906 1.415 . S
C906 H882 0.950 . S
C906 C901 1.363 . S
C906 C905 1.415 . S
C907 H883 0.951 . S
C907 C908 1.366 . S
C907 C909 1.388 . S
C908 C907 1.366 . S
C908 C912 1.385 . S
C909 H884 0.951 . S
C909 C907 1.388 . S
C909 C910 1.366 . S
C910 C909 1.366 . S
C910 C911 1.414 . S
C910 C913 1.499 . S
C911 H885 0.950 . S
C911 C910 1.414 . S
C911 C912 1.374 . S
C912 H886 0.950 . S
C912 C908 1.385 . S
C912 C911 1.374 . S
C913 C910 1.499 . S
C913 C914 1.373 . S
C913 C915 1.389 . S
C914 H887 0.950 . S
C914 C900 1.377 . S
C914 C913 1.373 . S
C915 C899 1.377 . S
C915 C913 1.389 . S
C915 C916 1.524 . S
C916 C915 1.524 . S
C916 C917 1.397 . S
C916 C921 1.363 . S
C917 H888 0.950 . S
C917 C916 1.397 . S
C917 C918 1.334 . S
C918 H889 0.950 . S
C918 C917 1.334 . S
C918 C919 1.287 . S
C919 C918 1.287 . S
C919 C920 1.524 . S
C919 H922 0.999 . S
C920 H890 0.950 . S
C920 C919 1.524 . S
C920 C921 1.415 . S
C921 H891 0.950 . S
C921 C916 1.363 . S
C921 C920 1.415 . S
H922 C919 0.999 . S
H923 C904 0.913 . S
H924 C942 0.951 . S
H925 C944 0.951 . S
H926 C946 0.950 . S
H927 C947 0.950 . S
H928 C949 0.950 . S
H929 C952 0.950 . S
H930 C953 0.950 . S
H931 C955 0.950 . S
H932 C956 0.950 . S
H933 C957 0.951 . S
H934 C959 0.951 . S
H935 C961 0.950 . S
H936 C962 0.950 . S
H937 C964 0.950 . S
H938 C967 0.950 . S
H939 C968 0.950 . S
H940 C970 0.950 . S
H941 C971 0.950 . S
C942 H924 0.951 . S
C942 C943 1.366 1_565 S
C942 C944 1.388 . S
C943 C942 1.366 1_545 S
C943 C947 1.385 . S
C944 H925 0.951 . S
C944 C942 1.388 . S
C944 C945 1.366 1_565 S
C945 C944 1.366 1_545 S
C945 C946 1.414 . S
C945 C948 1.499 . S
C946 H926 0.950 . S
C946 C945 1.414 . S
C946 C947 1.374 . S
C947 H927 0.950 . S
C947 C943 1.385 . S
C947 C946 1.374 . S
C948 C945 1.499 . S
C948 C949 1.373 . S
C948 C950 1.389 1_545 S
C949 H928 0.950 . S
C949 C948 1.373 . S
C949 C965 1.377 . S
C950 C948 1.389 1_565 S
C950 C951 1.524 . S
C950 C964 1.377 . S
C951 C950 1.524 . S
C951 C952 1.397 . S
C951 C956 1.363 . S
C952 H929 0.950 . S
C952 C951 1.397 . S
C952 C953 1.334 . S
C953 H930 0.950 . S
C953 C952 1.334 . S
C953 C954 1.287 . S
C954 C953 1.287 . S
C954 C955 1.524 . S
C954 H973 0.913 . S
C955 H931 0.950 . S
C955 C954 1.524 . S
C955 C956 1.415 . S
C956 H932 0.950 . S
C956 C951 1.363 . S
C956 C955 1.415 . S
C957 H933 0.951 . S
C957 C958 1.366 . S
C957 C959 1.388 . S
C958 C957 1.366 . S
C958 C962 1.385 1_545 S
C959 H934 0.951 . S
C959 C957 1.388 . S
C959 C960 1.366 . S
C960 C959 1.366 . S
C960 C961 1.414 1_545 S
C960 C963 1.499 . S
C961 H935 0.950 . S
C961 C960 1.414 1_565 S
C961 C962 1.374 . S
C962 H936 0.950 . S
C962 C958 1.385 1_565 S
C962 C961 1.374 . S
C963 C960 1.499 . S
C963 C964 1.373 1_545 S
C963 C965 1.389 . S
C964 H937 0.950 . S
C964 C950 1.377 . S
C964 C963 1.373 1_565 S
C965 C949 1.377 . S
C965 C963 1.389 . S
C965 C966 1.524 . S
C966 C965 1.524 . S
C966 C967 1.397 . S
C966 C971 1.363 . S
C967 H938 0.950 . S
C967 C966 1.397 . S
C967 C968 1.334 . S
C968 H939 0.950 . S
C968 C967 1.334 . S
C968 C969 1.287 . S
C969 C968 1.287 . S
C969 C970 1.524 . S
C969 H972 0.999 . S
C970 H940 0.950 . S
C970 C969 1.524 . S
C970 C971 1.415 . S
C971 H941 0.950 . S
C971 C966 1.363 . S
C971 C970 1.415 . S
H972 C969 0.999 . S
H973 C954 0.913 . S
H974 C992 0.951 . S
H975 C994 0.951 . S
H976 C996 0.950 . S
H977 C997 0.950 . S
H978 C999 0.950 . S
H979 C1002 0.950 . S
H980 C1003 0.950 . S
H981 C1005 0.950 . S
H982 C1006 0.950 . S
H983 C1007 0.951 . S
H984 C1009 0.951 . S
H985 C1011 0.950 . S
H986 C1012 0.950 . S
H987 C1014 0.950 . S
H988 C1017 0.950 . S
H989 C1018 0.950 . S
H990 C1020 0.950 . S
H991 C1021 0.950 . S
C992 H974 0.951 . S
C992 C993 1.366 . S
C992 C994 1.388 . S
C993 C992 1.366 . S
C993 C997 1.385 . S
C994 H975 0.951 . S
C994 C992 1.388 . S
C994 C995 1.366 . S
C995 C994 1.366 . S
C995 C996 1.414 . S
C995 C998 1.499 . S
C996 H976 0.950 . S
C996 C995 1.414 . S
C996 C997 1.374 . S
C997 H977 0.950 . S
C997 C993 1.385 . S
C997 C996 1.374 . S
C998 C995 1.499 . S
C998 C999 1.373 . S
C998 C1000 1.389 . S
C999 H978 0.950 . S
C999 C998 1.373 . S
C999 C1015 1.377 . S
C1000 C998 1.389 . S
C1000 C1001 1.524 . S
C1000 C1014 1.377 . S
C1001 C1000 1.524 . S
C1001 C1002 1.397 . S
C1001 C1006 1.363 . S
C1002 H979 0.950 . S
C1002 C1001 1.397 . S
C1002 C1003 1.334 . S
C1003 H980 0.950 . S
C1003 C1002 1.334 . S
C1003 C1004 1.287 . S
C1004 C1003 1.287 . S
C1004 C1005 1.524 . S
C1004 H1023 0.913 . S
C1005 H981 0.950 . S
C1005 C1004 1.524 . S
C1005 C1006 1.415 . S
C1006 H982 0.950 . S
C1006 C1001 1.363 . S
C1006 C1005 1.415 . S
C1007 H983 0.951 . S
C1007 C1008 1.366 . S
C1007 C1009 1.388 . S
C1008 C1007 1.366 . S
C1008 C1012 1.385 . S
C1009 H984 0.951 . S
C1009 C1007 1.388 . S
C1009 C1010 1.366 . S
C1010 C1009 1.366 . S
C1010 C1011 1.414 . S
C1010 C1013 1.499 1_554 S
C1011 H985 0.950 . S
C1011 C1010 1.414 . S
C1011 C1012 1.374 . S
C1012 H986 0.950 . S
C1012 C1008 1.385 . S
C1012 C1011 1.374 . S
C1013 C1010 1.499 1_556 S
C1013 C1014 1.373 . S
C1013 C1015 1.389 . S
C1014 H987 0.950 . S
C1014 C1000 1.377 . S
C1014 C1013 1.373 . S
C1015 C999 1.377 . S
C1015 C1013 1.389 . S
C1015 C1016 1.524 . S
C1016 C1015 1.524 . S
C1016 C1017 1.397 1_556 S
C1016 C1021 1.363 . S
C1017 H988 0.950 . S
C1017 C1016 1.397 1_554 S
C1017 C1018 1.334 . S
C1018 H989 0.950 . S
C1018 C1017 1.334 . S
C1018 C1019 1.287 . S
C1019 C1018 1.287 . S
C1019 C1020 1.524 . S
C1019 H1022 0.999 . S
C1020 H990 0.950 . S
C1020 C1019 1.524 . S
C1020 C1021 1.415 1_554 S
C1021 H991 0.950 . S
C1021 C1016 1.363 . S
C1021 C1020 1.415 1_556 S
H1022 C1019 0.999 . S
H1023 C1004 0.913 . S
H1024 C1042 0.951 . S
H1025 C1044 0.951 . S
H1026 C1046 0.950 . S
H1027 C1047 0.950 . S
H1028 C1049 0.950 . S
H1029 C1052 0.950 . S
H1030 C1053 0.950 . S
H1031 C1055 0.950 . S
H1032 C1056 0.950 1_655 S
H1033 C1057 0.951 . S
H1034 C1059 0.951 . S
H1035 C1061 0.950 . S
H1036 C1062 0.950 . S
H1037 C1064 0.950 . S
H1038 C1067 0.950 . S
H1039 C1068 0.950 . S
H1040 C1070 0.950 . S
H1041 C1071 0.950 1_455 S
C1042 H1024 0.951 . S
C1042 C1043 1.366 1_655 S
C1042 C1044 1.388 . S
C1043 C1042 1.366 1_455 S
C1043 C1047 1.385 . S
C1044 H1025 0.951 . S
C1044 C1042 1.388 . S
C1044 C1045 1.366 1_655 S
C1045 C1044 1.366 1_455 S
C1045 C1046 1.414 . S
C1045 C1048 1.499 . S
C1046 H1026 0.950 . S
C1046 C1045 1.414 . S
C1046 C1047 1.374 . S
C1047 H1027 0.950 . S
C1047 C1043 1.385 . S
C1047 C1046 1.374 . S
C1048 C1045 1.499 . S
C1048 C1049 1.373 1_455 S
C1048 C1050 1.389 . S
C1049 H1028 0.950 . S
C1049 C1048 1.373 1_655 S
C1049 C1065 1.377 . S
C1050 C1048 1.389 . S
C1050 C1051 1.524 . S
C1050 C1064 1.377 . S
C1051 C1050 1.524 . S
C1051 C1052 1.397 . S
C1051 C1056 1.363 . S
C1052 H1029 0.950 . S
C1052 C1051 1.397 . S
C1052 C1053 1.334 . S
C1053 H1030 0.950 . S
C1053 C1052 1.334 . S
C1053 C1054 1.287 . S
C1054 C1053 1.287 . S
C1054 C1055 1.524 . S
C1054 H1073 0.913 . S
C1055 H1031 0.950 . S
C1055 C1054 1.524 . S
C1055 C1056 1.415 . S
C1056 H1032 0.950 1_455 S
C1056 C1051 1.363 . S
C1056 C1055 1.415 . S
C1057 H1033 0.951 . S
C1057 C1058 1.366 . S
C1057 C1059 1.388 . S
C1058 C1057 1.366 . S
C1058 C1062 1.385 1_455 S
C1059 H1034 0.951 . S
C1059 C1057 1.388 . S
C1059 C1060 1.366 . S
C1060 C1059 1.366 . S
C1060 C1061 1.414 1_455 S
C1060 C1063 1.499 . S
C1061 H1035 0.950 . S
C1061 C1060 1.414 1_655 S
C1061 C1062 1.374 . S
C1062 H1036 0.950 . S
C1062 C1058 1.385 1_655 S
C1062 C1061 1.374 . S
C1063 C1060 1.499 . S
C1063 C1064 1.373 . S
C1063 C1065 1.389 1_455 S
C1064 H1037 0.950 . S
C1064 C1050 1.377 . S
C1064 C1063 1.373 . S
C1065 C1049 1.377 . S
C1065 C1063 1.389 1_655 S
C1065 C1066 1.524 . S
C1066 C1065 1.524 . S
C1066 C1067 1.397 . S
C1066 C1071 1.363 . S
C1067 H1038 0.950 . S
C1067 C1066 1.397 . S
C1067 C1068 1.334 . S
C1068 H1039 0.950 . S
C1068 C1067 1.334 . S
C1068 C1069 1.287 . S
C1069 C1068 1.287 . S
C1069 C1070 1.524 . S
C1069 H1072 0.999 . S
C1070 H1040 0.950 . S
C1070 C1069 1.524 . S
C1070 C1071 1.415 . S
C1071 H1041 0.950 1_655 S
C1071 C1066 1.363 . S
C1071 C1070 1.415 . S
H1072 C1069 0.999 . S
H1073 C1054 0.913 . S
C193 C24 2.807 . S
C208 C169 2.786 . S
C243 C66 1.102 . S
C258 C151 1.135 . S
C293 C93 1.629 . S
C308 C163 1.627 . S
C343 C13 2.863 . S
C358 C172 2.848 . S
C408 C154 1.227 . S
C393 C57 1.223 . S
C458 C160 1.756 . S
C443 C104 1.781 . S
C493 C64 1.766 . S
C508 C133 1.739 . S
C543 C97 0.439 . S
C558 C142 0.406 . S
C593 C17 1.250 . S
C608 C124 1.270 . S
C658 C136 1.633 . S
C643 C53 1.639 . S
C708 C145 0.143 . S
C693 C106 0.384 . S
C743 C26 1.094 . S
C758 C127 1.122 . S
C808 C143 1.060 . S
C793 C2 1.043 . S
C843 C63 1.452 . S
C858 C125 1.499 . S
C893 C82 1.364 . S
C908 C134 1.385 . S
C958 C161 1.403 . S
C943 C42 1.379 . S
C1008 C170 1.787 . S
C993 C103 1.733 . S
C1043 C23 1.462 . S
C1058 C152 1.497 . S
