# Generated by pormake.
# Topology eea, (3,6)-cn, num edge types: 1
# Building blocks:
#     Node 0, Type 0, BuildingBlock: PAMTOO_clean_linker_0, # of connection points: 3
#     Node 1, Type 0, BuildingBlock: PAMTOO_clean_linker_0, # of connection points: 3
#     Node 2, Type 0, BuildingBlock: PAMTOO_clean_linker_0, # of connection points: 3
#     Node 3, Type 0, BuildingBlock: PAMTOO_clean_linker_0, # of connection points: 3
#     Node 4, Type 0, BuildingBlock: PAMTOO_clean_linker_0, # of connection points: 3
#     Node 5, Type 0, BuildingBlock: PAMTOO_clean_linker_0, # of connection points: 3
#     Node 6, Type 0, BuildingBlock: PAMTOO_clean_linker_0, # of connection points: 3
#     Node 7, Type 0, BuildingBlock: PAMTOO_clean_linker_0, # of connection points: 3
#     Node 8, Type 0, BuildingBlock: PAMTOO_clean_linker_0, # of connection points: 3
#     Node 9, Type 0, BuildingBlock: PAMTOO_clean_linker_0, # of connection points: 3
#     Node 10, Type 0, BuildingBlock: PAMTOO_clean_linker_0, # of connection points: 3
#     Node 11, Type 0, BuildingBlock: PAMTOO_clean_linker_0, # of connection points: 3
#     Node 12, Type 0, BuildingBlock: PAMTOO_clean_linker_0, # of connection points: 3
#     Node 13, Type 0, BuildingBlock: PAMTOO_clean_linker_0, # of connection points: 3
#     Node 14, Type 0, BuildingBlock: PAMTOO_clean_linker_0, # of connection points: 3
#     Node 15, Type 0, BuildingBlock: PAMTOO_clean_linker_0, # of connection points: 3
#     Node 16, Type 0, BuildingBlock: PAMTOO_clean_linker_0, # of connection points: 3
#     Node 17, Type 0, BuildingBlock: PAMTOO_clean_linker_0, # of connection points: 3
#     Node 18, Type 1, BuildingBlock: KUMJIN_clean_sbu_0, # of connection points: 6
#     Node 19, Type 1, BuildingBlock: KUMJIN_clean_sbu_0, # of connection points: 6
#     Node 20, Type 1, BuildingBlock: KUMJIN_clean_sbu_0, # of connection points: 6
#     Node 21, Type 1, BuildingBlock: KUMJIN_clean_sbu_0, # of connection points: 6
#     Node 22, Type 1, BuildingBlock: KUMJIN_clean_sbu_0, # of connection points: 6
#     Node 23, Type 1, BuildingBlock: KUMJIN_clean_sbu_0, # of connection points: 6
#     Node 24, Type 1, BuildingBlock: KUMJIN_clean_sbu_0, # of connection points: 6
#     Node 25, Type 1, BuildingBlock: KUMJIN_clean_sbu_0, # of connection points: 6
#     Node 26, Type 1, BuildingBlock: KUMJIN_clean_sbu_0, # of connection points: 6
#     Edge 27, Type (0, 1), BuildingBlock: UVAHIK_clean_linker_0, # of connection points: 2
#     Edge 28, Type (0, 1), BuildingBlock: UVAHIK_clean_linker_0, # of connection points: 2
#     Edge 29, Type (0, 1), BuildingBlock: UVAHIK_clean_linker_0, # of connection points: 2
#     Edge 30, Type (0, 1), BuildingBlock: UVAHIK_clean_linker_0, # of connection points: 2
#     Edge 31, Type (0, 1), BuildingBlock: UVAHIK_clean_linker_0, # of connection points: 2
#     Edge 32, Type (0, 1), BuildingBlock: UVAHIK_clean_linker_0, # of connection points: 2
#     Edge 33, Type (0, 1), BuildingBlock: UVAHIK_clean_linker_0, # of connection points: 2
#     Edge 34, Type (0, 1), BuildingBlock: UVAHIK_clean_linker_0, # of connection points: 2
#     Edge 35, Type (0, 1), BuildingBlock: UVAHIK_clean_linker_0, # of connection points: 2
#     Edge 36, Type (0, 1), BuildingBlock: UVAHIK_clean_linker_0, # of connection points: 2
#     Edge 37, Type (0, 1), BuildingBlock: UVAHIK_clean_linker_0, # of connection points: 2
#     Edge 38, Type (0, 1), BuildingBlock: UVAHIK_clean_linker_0, # of connection points: 2
#     Edge 39, Type (0, 1), BuildingBlock: UVAHIK_clean_linker_0, # of connection points: 2
#     Edge 40, Type (0, 1), BuildingBlock: UVAHIK_clean_linker_0, # of connection points: 2
#     Edge 41, Type (0, 1), BuildingBlock: UVAHIK_clean_linker_0, # of connection points: 2
#     Edge 42, Type (0, 1), BuildingBlock: UVAHIK_clean_linker_0, # of connection points: 2
#     Edge 43, Type (0, 1), BuildingBlock: UVAHIK_clean_linker_0, # of connection points: 2
#     Edge 44, Type (0, 1), BuildingBlock: UVAHIK_clean_linker_0, # of connection points: 2
#     Edge 45, Type (0, 1), BuildingBlock: UVAHIK_clean_linker_0, # of connection points: 2
#     Edge 46, Type (0, 1), BuildingBlock: UVAHIK_clean_linker_0, # of connection points: 2
#     Edge 47, Type (0, 1), BuildingBlock: UVAHIK_clean_linker_0, # of connection points: 2
#     Edge 48, Type (0, 1), BuildingBlock: UVAHIK_clean_linker_0, # of connection points: 2
#     Edge 49, Type (0, 1), BuildingBlock: UVAHIK_clean_linker_0, # of connection points: 2
#     Edge 50, Type (0, 1), BuildingBlock: UVAHIK_clean_linker_0, # of connection points: 2
#     Edge 51, Type (0, 1), BuildingBlock: UVAHIK_clean_linker_0, # of connection points: 2
#     Edge 52, Type (0, 1), BuildingBlock: UVAHIK_clean_linker_0, # of connection points: 2
#     Edge 53, Type (0, 1), BuildingBlock: UVAHIK_clean_linker_0, # of connection points: 2
#     Edge 54, Type (0, 1), BuildingBlock: UVAHIK_clean_linker_0, # of connection points: 2
#     Edge 55, Type (0, 1), BuildingBlock: UVAHIK_clean_linker_0, # of connection points: 2
#     Edge 56, Type (0, 1), BuildingBlock: UVAHIK_clean_linker_0, # of connection points: 2
#     Edge 57, Type (0, 1), BuildingBlock: UVAHIK_clean_linker_0, # of connection points: 2
#     Edge 58, Type (0, 1), BuildingBlock: UVAHIK_clean_linker_0, # of connection points: 2
#     Edge 59, Type (0, 1), BuildingBlock: UVAHIK_clean_linker_0, # of connection points: 2
#     Edge 60, Type (0, 1), BuildingBlock: UVAHIK_clean_linker_0, # of connection points: 2
#     Edge 61, Type (0, 1), BuildingBlock: UVAHIK_clean_linker_0, # of connection points: 2
#     Edge 62, Type (0, 1), BuildingBlock: UVAHIK_clean_linker_0, # of connection points: 2
#     Edge 63, Type (0, 1), BuildingBlock: UVAHIK_clean_linker_0, # of connection points: 2
#     Edge 64, Type (0, 1), BuildingBlock: UVAHIK_clean_linker_0, # of connection points: 2
#     Edge 65, Type (0, 1), BuildingBlock: UVAHIK_clean_linker_0, # of connection points: 2
#     Edge 66, Type (0, 1), BuildingBlock: UVAHIK_clean_linker_0, # of connection points: 2
#     Edge 67, Type (0, 1), BuildingBlock: UVAHIK_clean_linker_0, # of connection points: 2
#     Edge 68, Type (0, 1), BuildingBlock: UVAHIK_clean_linker_0, # of connection points: 2
#     Edge 69, Type (0, 1), BuildingBlock: UVAHIK_clean_linker_0, # of connection points: 2
#     Edge 70, Type (0, 1), BuildingBlock: UVAHIK_clean_linker_0, # of connection points: 2
#     Edge 71, Type (0, 1), BuildingBlock: UVAHIK_clean_linker_0, # of connection points: 2
#     Edge 72, Type (0, 1), BuildingBlock: UVAHIK_clean_linker_0, # of connection points: 2
#     Edge 73, Type (0, 1), BuildingBlock: UVAHIK_clean_linker_0, # of connection points: 2
#     Edge 74, Type (0, 1), BuildingBlock: UVAHIK_clean_linker_0, # of connection points: 2
#     Edge 75, Type (0, 1), BuildingBlock: UVAHIK_clean_linker_0, # of connection points: 2
#     Edge 76, Type (0, 1), BuildingBlock: UVAHIK_clean_linker_0, # of connection points: 2
#     Edge 77, Type (0, 1), BuildingBlock: UVAHIK_clean_linker_0, # of connection points: 2
#     Edge 78, Type (0, 1), BuildingBlock: UVAHIK_clean_linker_0, # of connection points: 2
#     Edge 79, Type (0, 1), BuildingBlock: UVAHIK_clean_linker_0, # of connection points: 2
#     Edge 80, Type (0, 1), BuildingBlock: UVAHIK_clean_linker_0, # of connection points: 2
# Relax obj value: 0.023
# Max RMSD: 0.153
# Mean RMSD: 0.113
data_MOF--net-eea--node1-KUMJIN_clean_sbu_0--node2-PAMTOO_clean_linker_0--edge1-UVAHIK_clean_linker_0
_symmetry_space_group_name_H-M    P1
_symmetry_Int_Tables_number       1
_symmetry_cell_setting            triclinic
loop_
_symmetry_equiv_pos_as_xyz
'x, y, z'
_cell_length_a     70.79147
_cell_length_b     72.499646
_cell_length_c     82.05594
_cell_angle_alpha  89.996093
_cell_angle_beta   90.208501
_cell_angle_gamma 119.87595
loop_
_atom_site_label
_atom_site_type_symbol
_atom_site_fract_x
_atom_site_fract_y
_atom_site_fract_z
_atom_type_partial_charge
H0 H 0.25723 0.0888 0.42768 0.0
H1 H 0.2601 0.1496 0.42575 0.0
H2 H 0.23162 0.10545 0.38615 0.0
H3 H 0.25779 0.14925 0.37552 0.0
C4 C 0.2565 0.15769 0.38642 0.0
O5 O 0.24155 0.14311 0.39713 0.0
H6 H 0.27288 0.16637 0.39227 0.0
C7 C 0.25425 0.10023 0.42135 0.0
C8 C 0.24401 0.09486 0.40602 0.0
C9 C 0.26002 0.11985 0.42875 0.0
C10 C 0.25548 0.13421 0.42048 0.0
C11 C 0.24535 0.129 0.40515 0.0
C12 C 0.23938 0.10927 0.39804 0.0
H13 H 0.93152 0.16352 0.42915 0.0
H14 H 0.87725 0.09967 0.42638 0.0
H15 H 0.92458 0.12303 0.38829 0.0
H16 H 0.88093 0.09457 0.37477 0.0
C17 C 0.87264 0.08823 0.38661 0.0
O18 O 0.88797 0.091 0.39826 0.0
H19 H 0.86427 0.09727 0.38995 0.0
C20 C 0.92282 0.14844 0.4228 0.0
C21 C 0.9307 0.14563 0.40778 0.0
C22 C 0.90379 0.13189 0.42981 0.0
C23 C 0.89221 0.1125 0.42141 0.0
C24 C 0.89959 0.10958 0.40638 0.0
C25 C 0.9189 0.12591 0.39973 0.0
H26 H 0.85254 0.76875 0.43298 0.0
H27 H 0.91641 0.77529 0.43049 0.0
H28 H 0.89498 0.80169 0.39278 0.0
H29 H 0.92251 0.78488 0.3804 0.0
C30 C 0.93097 0.78505 0.3919 0.0
O31 O 0.92742 0.79694 0.4034 0.0
H32 H 0.92402 0.76833 0.39614 0.0
C33 C 0.86782 0.77413 0.42668 0.0
C34 C 0.87145 0.78525 0.4119 0.0
C35 C 0.88378 0.7703 0.43362 0.0
C36 C 0.9039 0.77821 0.4256 0.0
C37 C 0.90794 0.78954 0.41095 0.0
C38 C 0.89179 0.79314 0.40418 0.0
H39 H 0.08423 0.22977 0.59683 0.0
H40 H 0.14019 0.22125 0.59954 0.0
H41 H 0.09503 0.2012 0.63927 0.0
H42 H 0.14074 0.21778 0.65054 0.0
C43 C 0.1479 0.21691 0.63873 0.0
O44 O 0.13117 0.2037 0.6283 0.0
H45 H 0.15702 0.2333 0.63365 0.0
C46 C 0.0941 0.22469 0.60347 0.0
C47 C 0.08733 0.21553 0.619 0.0
C48 C 0.11307 0.22682 0.5962 0.0
C49 C 0.12535 0.21952 0.60473 0.0
C50 C 0.1189 0.21036 0.62022 0.0
C51 C 0.09982 0.20819 0.62726 0.0
H52 H 0.76908 0.84778 0.60113 0.0
H53 H 0.77481 0.90976 0.60453 0.0
H54 H 0.79888 0.88746 0.64321 0.0
H55 H 0.78124 0.913 0.65632 0.0
C56 C 0.77969 0.91987 0.64461 0.0
O57 O 0.79316 0.91847 0.63317 0.0
H58 H 0.76233 0.91058 0.64064 0.0
C59 C 0.77424 0.86254 0.60765 0.0
C60 C 0.78456 0.86569 0.62291 0.0
C61 C 0.77063 0.87832 0.60078 0.0
C62 C 0.77722 0.89725 0.60954 0.0
C63 C 0.78726 0.90038 0.62478 0.0
C64 C 0.79115 0.88479 0.63135 0.0
H65 H 0.16051 0.92549 0.59673 0.0
H66 H 0.09867 0.86731 0.59786 0.0
H67 H 0.11828 0.91088 0.63815 0.0
H68 H 0.094 0.86797 0.64974 0.0
C69 C 0.08672 0.85965 0.63805 0.0
O70 O 0.08778 0.87423 0.62672 0.0
H71 H 0.09626 0.85217 0.63375 0.0
C72 C 0.14536 0.91493 0.60287 0.0
C73 C 0.14136 0.92047 0.61834 0.0
C74 C 0.13002 0.89591 0.59524 0.0
C75 C 0.11067 0.88211 0.60348 0.0
C76 C 0.10648 0.88756 0.6189 0.0
C77 C 0.12164 0.90685 0.6262 0.0
H78 H 0.92612 0.42288 0.76074 0.0
H79 H 0.92943 0.48387 0.75851 0.0
H80 H 0.89934 0.43891 0.7196 0.0
H81 H 0.92287 0.48116 0.70751 0.0
C82 C 0.9237 0.49042 0.71856 0.0
O83 O 0.90979 0.47682 0.73028 0.0
H84 H 0.94075 0.49852 0.72327 0.0
C85 C 0.92307 0.43427 0.7544 0.0
C86 C 0.91237 0.42866 0.73926 0.0
C87 C 0.92917 0.45406 0.76165 0.0
C88 C 0.92458 0.46837 0.75336 0.0
C89 C 0.9139 0.46288 0.73823 0.0
C90 C 0.90753 0.44295 0.73133 0.0
H91 H 0.59911 0.49699 0.7629 0.0
H92 H 0.5449 0.43311 0.76008 0.0
H93 H 0.59224 0.45659 0.722 0.0
H94 H 0.54868 0.42751 0.70833 0.0
C95 C 0.54039 0.4217 0.72025 0.0
O96 O 0.55567 0.42449 0.73195 0.0
H97 H 0.53242 0.4312 0.72328 0.0
C98 C 0.59043 0.48192 0.75654 0.0
C99 C 0.59832 0.47914 0.74151 0.0
C100 C 0.57141 0.46534 0.76354 0.0
C101 C 0.55985 0.44595 0.75512 0.0
C102 C 0.56725 0.44307 0.74009 0.0
C103 C 0.58655 0.45943 0.73344 0.0
H104 H 0.52141 0.1045 0.76751 0.0
H105 H 0.58513 0.11118 0.76354 0.0
H106 H 0.56215 0.13679 0.72624 0.0
H107 H 0.59235 0.12406 0.71209 0.0
C108 C 0.59806 0.12088 0.72383 0.0
O109 O 0.59502 0.13223 0.73609 0.0
H110 H 0.58809 0.10346 0.72619 0.0
C111 C 0.53653 0.11016 0.7609 0.0
C112 C 0.53947 0.12085 0.74597 0.0
C113 C 0.55282 0.10654 0.76737 0.0
C114 C 0.57237 0.11377 0.75873 0.0
C115 C 0.5758 0.12483 0.74402 0.0
C116 C 0.55943 0.12847 0.73772 0.0
H117 H 0.75206 0.56433 0.93099 0.0
H118 H 0.80745 0.55492 0.93416 0.0
H119 H 0.76151 0.53464 0.97335 0.0
H120 H 0.80603 0.54716 0.9864 0.0
C121 C 0.8137 0.54986 0.97419 0.0
O122 O 0.79794 0.53733 0.96287 0.0
H123 H 0.82058 0.56704 0.97127 0.0
C124 C 0.76143 0.55862 0.93757 0.0
C125 C 0.7543 0.54926 0.95302 0.0
C126 C 0.78054 0.56077 0.93054 0.0
C127 C 0.79273 0.55356 0.93931 0.0
C128 C 0.7859 0.54418 0.95468 0.0
C129 C 0.76659 0.54182 0.96143 0.0
H130 H 0.43568 0.18299 0.93319 0.0
H131 H 0.44257 0.2452 0.93864 0.0
H132 H 0.46492 0.22012 0.97652 0.0
H133 H 0.44762 0.2461 0.9906 0.0
C134 C 0.44631 0.2532 0.97893 0.0
O135 O 0.45996 0.25196 0.96758 0.0
H136 H 0.42901 0.24405 0.9748 0.0
C137 C 0.44125 0.19753 0.94011 0.0
C138 C 0.45091 0.19952 0.95552 0.0
C139 C 0.43814 0.21387 0.93379 0.0
C140 C 0.44457 0.23226 0.94323 0.0
C141 C 0.45394 0.23427 0.95863 0.0
C142 C 0.45726 0.21807 0.96469 0.0
H143 H 0.83034 0.25666 0.93205 0.0
H144 H 0.76916 0.19784 0.93322 0.0
H145 H 0.78727 0.24192 0.97296 0.0
H146 H 0.76232 0.19921 0.98454 0.0
C147 C 0.7553 0.19086 0.97281 0.0
O148 O 0.75702 0.20547 0.96127 0.0
H149 H 0.76472 0.18308 0.96891 0.0
C150 C 0.8154 0.2458 0.93829 0.0
C151 C 0.811 0.25158 0.95356 0.0
C152 C 0.80056 0.22647 0.93076 0.0
C153 C 0.7808 0.21293 0.93865 0.0
C154 C 0.77605 0.21863 0.95378 0.0
C155 C 0.79105 0.23792 0.96115 0.0
H156 H 0.5846 0.7536 0.09604 0.0
H157 H 0.58782 0.81447 0.09329 0.0
H158 H 0.5635 0.77155 0.05261 0.0
H159 H 0.59062 0.8157 0.04271 0.0
C160 C 0.58865 0.82383 0.05354 0.0
O161 O 0.57264 0.80903 0.06351 0.0
H162 H 0.60454 0.83198 0.06014 0.0
C163 C 0.58194 0.76504 0.0894 0.0
C164 C 0.57343 0.7602 0.0735 0.0
C165 C 0.58705 0.78449 0.09676 0.0
C166 C 0.58393 0.79934 0.08788 0.0
C167 C 0.57549 0.79464 0.072 0.0
C168 C 0.56998 0.775 0.06492 0.0
H169 H 0.26627 0.83078 0.09589 0.0
H170 H 0.21183 0.76704 0.0929 0.0
H171 H 0.25938 0.7904 0.05496 0.0
H172 H 0.21594 0.76178 0.04116 0.0
C173 C 0.20751 0.75583 0.05302 0.0
O174 O 0.22264 0.75843 0.06478 0.0
H175 H 0.19954 0.76532 0.05608 0.0
C176 C 0.25756 0.81573 0.08951 0.0
C177 C 0.26548 0.81295 0.07449 0.0
C178 C 0.23845 0.79919 0.09645 0.0
C179 C 0.22685 0.77984 0.08799 0.0
C180 C 0.23429 0.77695 0.07297 0.0
C181 C 0.25366 0.79326 0.0664 0.0
H182 H 0.18644 0.43675 0.09977 0.0
H183 H 0.24982 0.44221 0.09693 0.0
H184 H 0.22898 0.4697 0.05964 0.0
H185 H 0.25838 0.45629 0.04594 0.0
C186 C 0.26404 0.45293 0.05764 0.0
O187 O 0.26108 0.46421 0.07 0.0
H188 H 0.25396 0.43551 0.05991 0.0
C189 C 0.20166 0.44195 0.09342 0.0
C190 C 0.20538 0.4532 0.0787 0.0
C191 C 0.21744 0.43778 0.10024 0.0
C192 C 0.23747 0.44542 0.09214 0.0
C193 C 0.24166 0.45699 0.0776 0.0
C194 C 0.2257 0.461 0.07098 0.0
H195 H 0.41791 0.89633 0.26292 0.0
H196 H 0.47307 0.88653 0.26594 0.0
H197 H 0.42778 0.86729 0.30552 0.0
H198 H 0.47341 0.88359 0.31715 0.0
C199 C 0.48063 0.88277 0.30534 0.0
O200 O 0.46395 0.86957 0.29488 0.0
H201 H 0.48975 0.89918 0.3003 0.0
C202 C 0.4273 0.89064 0.26951 0.0
C203 C 0.42033 0.88154 0.28506 0.0
C204 C 0.44629 0.89259 0.26241 0.0
C205 C 0.45845 0.88534 0.27115 0.0
C206 C 0.45184 0.8763 0.28664 0.0
C207 C 0.4327 0.87421 0.2935 0.0
H208 H 0.10259 0.51643 0.26576 0.0
H209 H 0.11006 0.57885 0.2714 0.0
H210 H 0.13231 0.55339 0.30906 0.0
H211 H 0.11578 0.5799 0.32345 0.0
C212 C 0.11411 0.58672 0.31176 0.0
O213 O 0.12759 0.58543 0.30029 0.0
H214 H 0.09672 0.57733 0.30787 0.0
C215 C 0.10831 0.53098 0.2727 0.0
C216 C 0.11802 0.53285 0.28807 0.0
C217 C 0.10533 0.54743 0.26645 0.0
C218 C 0.11196 0.56582 0.27593 0.0
C219 C 0.12141 0.56774 0.29128 0.0
C220 C 0.1246 0.55143 0.29727 0.0
H221 H 0.49613 0.58902 0.26604 0.0
H222 H 0.43414 0.53087 0.2666 0.0
H223 H 0.45114 0.57643 0.3052 0.0
H224 H 0.42599 0.5343 0.31774 0.0
C225 C 0.41946 0.52539 0.30614 0.0
O226 O 0.42128 0.53937 0.29399 0.0
H227 H 0.42927 0.51773 0.30302 0.0
C228 C 0.48071 0.57853 0.27185 0.0
C229 C 0.47564 0.58489 0.28658 0.0
C230 C 0.46586 0.55917 0.26435 0.0
C231 C 0.44572 0.54605 0.27193 0.0
C232 C 0.4405 0.55229 0.28663 0.0
C233 C 0.45529 0.57181 0.29379 0.0
Eu234 Eu 0.49471 0.99263 0.99063 0.0
C235 C 0.54226 0.06228 0.04211 0.0
C236 C 0.5799 0.07167 0.03843 0.0
C237 C 0.57119 0.09847 0.04749 0.0
C238 C 0.55746 0.05663 0.03766 0.0
C239 C 0.54895 0.08308 0.0476 0.0
C240 C 0.58665 0.09277 0.0429 0.0
C241 C 0.51161 0.07109 0.05504 0.0
N242 N 0.52101 0.04691 0.0424 0.0
C243 C 0.50588 0.05066 0.04964 0.0
C244 C 0.5332 0.08749 0.05374 0.0
Eu245 Eu 0.51214 0.01272 0.03261 0.0
N246 N 0.55034 0.0361 0.03349 0.0
C247 C 0.56487 0.02922 0.03092 0.0
C248 C 0.59486 0.0649 0.03513 0.0
C249 C 0.5873 0.04349 0.03163 0.0
H250 H 0.48919 0.03793 0.05072 0.0
H251 H 0.59873 0.03801 0.0293 0.0
H252 H 0.6038 0.10462 0.04332 0.0
H253 H 0.49942 0.07415 0.06025 0.0
H254 H 0.5593 0.0128 0.02802 0.0
H255 H 0.44535 0.01478 0.95294 0.0
H256 H 0.61224 0.07595 0.03556 0.0
H257 H 0.48184 0.94328 0.00315 0.0
H258 H 0.47916 0.01853 0.965 0.0
H259 H 0.44991 0.90758 0.00485 0.0
H260 H 0.57664 0.11461 0.05146 0.0
H261 H 0.41008 0.98218 0.95807 0.0
H262 H 0.39003 0.94522 0.96961 0.0
H263 H 0.53766 0.10327 0.05808 0.0
H264 H 0.39145 0.91571 0.98326 0.0
N265 N 0.46289 0.98954 0.97817 0.0
C266 C 0.46372 0.00462 0.96771 0.0
C267 C 0.42481 0.98401 0.96365 0.0
C268 C 0.42445 0.96762 0.97291 0.0
C269 C 0.44467 0.00242 0.96073 0.0
C270 C 0.44411 0.97081 0.97989 0.0
H271 H 0.41385 0.90129 0.99572 0.0
N272 N 0.46446 0.95761 0.9931 0.0
C273 C 0.44825 0.92058 0.99997 0.0
C274 C 0.44496 0.95422 0.9874 0.0
C275 C 0.46642 0.941 0.99899 0.0
C276 C 0.42792 0.91709 0.99484 0.0
C277 C 0.42609 0.93396 0.98835 0.0
O278 O 0.50012 0.97263 0.97348 0.0
O279 O 0.52298 0.01354 0.0069 0.0
O280 O 0.50337 0.03524 0.01962 0.0
O281 O 0.48289 0.01584 0.99679 0.0
O282 O 0.51972 0.02661 0.9851 0.0
O283 O 0.50816 0.00433 0.9664 0.0
O284 O 0.49501 0.00259 0.05597 0.0
O285 O 0.48656 0.98668 0.01708 0.0
O286 O 0.51375 0.97736 1.00027 0.0
O287 O 0.52036 0.98681 0.02776 0.0
O288 O 0.47612 0.00052 0.03455 0.0
O289 O 0.52476 0.00196 0.0526 0.0
C290 C 0.53137 0.03003 0.99803 0.0
C291 C 0.4952 0.97849 0.94554 0.0
C292 C 0.494 0.98431 0.91624 0.0
C293 C 0.50368 0.99153 0.93168 0.0
C294 C 0.47564 0.9639 0.91485 0.0
C295 C 0.47663 0.95826 0.94387 0.0
C296 C 0.46698 0.95106 0.92859 0.0
C297 C 0.4903 0.03219 0.00704 0.0
C298 C 0.50588 0.98627 0.96157 0.0
C299 C 0.40617 0.93106 0.98239 0.0
C300 C 0.40534 0.94788 0.97468 0.0
C301 C 0.46999 0.98623 0.02334 0.0
C302 C 0.51704 0.00847 0.07923 0.0
C303 C 0.50937 0.9954 0.09312 0.0
C304 C 0.51683 0.00398 0.10882 0.0
C305 C 0.53176 0.02589 0.11034 0.0
C306 C 0.53208 0.03019 0.0811 0.0
C307 C 0.53927 0.03884 0.09657 0.0
C308 C 0.52083 0.97604 0.01493 0.0
C309 C 0.50964 0.99931 0.06285 0.0
H310 H 0.51796 0.00718 0.93287 0.0
H311 H 0.46778 0.958 0.90314 0.0
H312 H 0.46954 0.948 0.95433 0.0
H313 H 0.4527 0.93545 0.9274 0.0
H314 H 0.49799 0.97854 0.09166 0.0
H315 H 0.53753 0.03309 0.12221 0.0
H316 H 0.53837 0.04044 0.07061 0.0
H317 H 0.5508 0.05565 0.0979 0.0
Eu318 Eu 0.02386 0.49907 0.9967 0.0
C319 C 0.94452 0.4755 0.04262 0.0
C320 C 0.93462 0.50266 0.03837 0.0
C321 C 0.90689 0.46689 0.04601 0.0
C322 C 0.95034 0.49611 0.0384 0.0
C323 C 0.92282 0.46076 0.0468 0.0
C324 C 0.91278 0.48781 0.0418 0.0
C325 C 0.93462 0.43563 0.05365 0.0
N326 N 0.96036 0.4702 0.04349 0.0
C327 C 0.95593 0.45087 0.0495 0.0
C328 C 0.91793 0.44051 0.05211 0.0
Eu329 Eu 0.99587 0.49645 0.0356 0.0
N330 N 0.9716 0.51007 0.03523 0.0
C331 C 0.97847 0.53116 0.03302 0.0
C332 C 0.94141 0.52405 0.03529 0.0
C333 C 0.96349 0.5384 0.03283 0.0
H334 H 0.96878 0.44701 0.05062 0.0
H335 H 0.96897 0.55505 0.03069 0.0
H336 H 0.90043 0.49249 0.04163 0.0
H337 H 0.93107 0.42015 0.05802 0.0
H338 H 0.99545 0.54243 0.03103 0.0
H339 H 0.05024 0.44015 1.00243 0.0
H340 H 0.92984 0.52971 0.03511 0.0
H341 H 0.05121 0.5481 0.98108 0.0
H342 H 0.02387 0.45291 1.00144 0.0
H343 H 0.08904 0.57472 0.97369 0.0
H344 H 0.89009 0.45574 0.04902 0.0
H345 H 0.08953 0.46542 0.99866 0.0
H346 H 0.11919 0.50257 0.99223 0.0
H347 H 0.90145 0.42871 0.0554 0.0
H348 H 0.12977 0.53923 0.98437 0.0
N349 N 0.04796 0.48526 0.99754 0.0
C350 C 0.04093 0.46414 0.99972 0.0
C351 C 0.07801 0.47113 0.99819 0.0
C352 C 0.08497 0.49253 0.99502 0.0
C353 C 0.05584 0.45681 1.00029 0.0
C354 C 0.06931 0.49916 0.99463 0.0
H355 H 0.11859 0.56616 0.97712 0.0
N356 N 0.05951 0.5251 0.98895 0.0
C357 C 0.08541 0.55935 0.97839 0.0
C358 C 0.07528 0.51974 0.99021 0.0
C359 C 0.06404 0.54426 0.98253 0.0
C360 C 0.10205 0.55448 0.98039 0.0
C361 C 0.09704 0.53435 0.9861 0.0
O362 O 0.01791 0.50543 0.97174 0.0
O363 O 0.99656 0.50063 0.00872 0.0
O364 O 0.97279 0.46858 0.01996 0.0
O365 O 0.99737 0.46507 0.00316 0.0
O366 O 0.01147 0.52174 0.98991 0.0
O367 O 0.01291 0.47431 0.97806 0.0
O368 O 1.00201 0.49027 0.06056 0.0
O369 O 0.02317 0.49489 0.02359 0.0
O370 O 0.04677 0.52728 0.01218 0.0
O371 O 0.02199 0.53045 0.02897 0.0
O372 O 0.00806 0.47362 0.04225 0.0
O373 O 0.00747 0.52151 0.05403 0.0
C374 C 0.99593 0.51492 1.00041 0.0
C375 C 0.02485 0.4868 0.95135 0.0
C376 C 0.02532 0.4846 0.92164 0.0
C377 C 0.01452 0.4841 0.93618 0.0
C378 C 0.04668 0.48798 0.92259 0.0
C379 C 0.04604 0.48993 0.95198 0.0
C380 C 0.05689 0.49056 0.93767 0.0
C381 C 0.97776 0.45753 0.00974 0.0
C382 C 0.01355 0.4868 0.96635 0.0
C383 C 0.11291 0.52817 0.9873 0.0
C384 C 0.10689 0.50729 0.99177 0.0
C385 C 0.02367 0.48047 0.03182 0.0
C386 C 0.99646 0.50982 0.081 0.0
C387 C 0.00811 0.5145 0.09573 0.0
C388 C 0.99823 0.51481 0.11053 0.0
C389 C 0.97646 0.51034 0.11028 0.0
C390 C 0.97484 0.50552 0.08104 0.0
C391 C 0.96491 0.50578 0.09562 0.0
C392 C 0.04163 0.53819 0.02242 0.0
C393 C 0.00696 0.50914 0.06579 0.0
H394 H 0.99802 0.48139 0.93577 0.0
H395 H 0.05563 0.48887 0.91167 0.0
H396 H 0.05422 0.49192 0.96348 0.0
H397 H 0.07331 0.49314 0.93826 0.0
H398 H 0.02491 0.51808 0.09559 0.0
H399 H 0.96821 0.51005 0.12145 0.0
H400 H 0.96563 0.50192 0.06985 0.0
H401 H 0.94817 0.50233 0.09556 0.0
Eu402 Eu 0.52716 0.51081 0.0333 0.0
C403 C 0.47359 0.53344 0.98401 0.0
C404 C 0.43616 0.506 0.9882 0.0
C405 C 0.44428 0.54112 0.9792 0.0
C406 C 0.45867 0.513 0.98867 0.0
C407 C 0.46656 0.54755 0.97873 0.0
C408 C 0.4291 0.52036 0.98394 0.0
C409 C 0.50365 0.5722 0.97092 0.0
N410 N 0.49487 0.53893 0.98335 0.0
C411 C 0.50974 0.55754 0.97616 0.0
C412 C 0.48201 0.56734 0.97246 0.0
Eu413 Eu 0.50448 0.51393 0.99305 0.0
N414 N 0.46608 0.4995 0.99247 0.0
C415 C 0.45171 0.47832 0.9946 0.0
C416 C 0.42142 0.48459 0.99143 0.0
C417 C 0.42924 0.47062 0.99436 0.0
H418 H 0.5265 0.56133 0.97497 0.0
H419 H 0.41797 0.45393 0.99652 0.0
H420 H 0.4119 0.51535 0.98373 0.0
H421 H 0.51563 0.58721 0.96567 0.0
H422 H 0.45741 0.46729 0.99695 0.0
H423 H 0.61336 0.57139 0.03004 0.0
H424 H 0.40401 0.47859 0.99126 0.0
H425 H 0.50482 0.46167 0.04868 0.0
H426 H 0.57379 0.55775 0.02975 0.0
H427 H 0.51607 0.43565 0.05681 0.0
H428 H 0.43858 0.55182 0.97538 0.0
H429 H 0.62757 0.54681 0.0347 0.0
H430 H 0.61999 0.50991 0.04133 0.0
H431 H 0.47728 0.57864 0.96828 0.0
H432 H 0.59351 0.47294 0.04862 0.0
N433 N 0.56549 0.52559 0.03386 0.0
C434 C 0.57969 0.54682 0.03188 0.0
C435 C 0.61015 0.54071 0.03462 0.0
C436 C 0.59554 0.51918 0.03756 0.0
C437 C 0.60219 0.55464 0.03203 0.0
C438 C 0.573 0.51204 0.03722 0.0
H439 H 0.55477 0.44521 0.05473 0.0
N440 N 0.53671 0.48531 0.04171 0.0
C441 C 0.52805 0.45119 0.05238 0.0
C442 C 0.55814 0.49123 0.04124 0.0
C443 C 0.52174 0.46593 0.04782 0.0
C444 C 0.54991 0.45663 0.05113 0.0
C445 C 0.56533 0.47698 0.04578 0.0
O446 O 0.51262 0.50317 0.05756 0.0
O447 O 0.4991 0.50986 0.01997 0.0
O448 O 0.51142 0.54365 0.00689 0.0
O449 O 0.53486 0.54472 0.02768 0.0
O450 O 0.49146 0.48754 0.0382 0.0
O451 O 0.53997 0.53453 0.05278 0.0
O452 O 0.51875 0.52007 0.96869 0.0
O453 O 0.53252 0.51546 0.00658 0.0
O454 O 0.52262 0.483 0.01806 0.0
O455 O 0.49574 0.47999 0.99999 0.0
O456 O 0.54033 0.53689 0.98785 0.0
O457 O 0.4921 0.48886 0.9746 0.0
C458 C 0.4835 0.49498 0.02762 0.0
C459 C 0.53652 0.52079 0.07942 0.0
C460 C 0.53706 0.52284 0.10918 0.0
C461 C 0.52823 0.52397 0.09402 0.0
C462 C 0.55422 0.51829 0.10939 0.0
C463 C 0.55378 0.51655 0.07996 0.0
C464 C 0.56252 0.51525 0.09487 0.0
C465 C 0.52549 0.55338 0.01892 0.0
C466 C 0.52674 0.52152 0.06376 0.0
C467 C 0.58768 0.48372 0.04536 0.0
C468 C 0.60275 0.50478 0.04123 0.0
C469 C 0.54827 0.53 0.99888 0.0
C470 C 0.49463 0.50052 0.94742 0.0
C471 C 0.5029 0.49672 0.93306 0.0
C472 C 0.49338 0.49622 0.91782 0.0
C473 C 0.47554 0.49974 0.91725 0.0
C474 C 0.47678 0.50386 0.94655 0.0
C475 C 0.46733 0.5035 0.93153 0.0
C476 C 0.50702 0.47219 0.00727 0.0
C477 C 0.50492 0.50122 0.96318 0.0
H478 H 0.51511 0.52758 0.09352 0.0
H479 H 0.56113 0.51687 0.1208 0.0
H480 H 0.56048 0.51421 0.06889 0.0
H481 H 0.57574 0.5118 0.09519 0.0
H482 H 0.51654 0.49389 0.93381 0.0
H483 H 0.46808 0.49985 0.90573 0.0
H484 H 0.47015 0.50674 0.95745 0.0
H485 H 0.45362 0.5062 0.93095 0.0
Eu486 Eu 0.15989 0.32461 0.32382 0.0
C487 C 0.20761 0.39465 0.37518 0.0
C488 C 0.24525 0.40405 0.37147 0.0
C489 C 0.23655 0.43084 0.38055 0.0
C490 C 0.22281 0.389 0.37072 0.0
C491 C 0.21431 0.41545 0.38066 0.0
C492 C 0.25201 0.42514 0.37595 0.0
C493 C 0.17695 0.4035 0.38803 0.0
N494 N 0.18637 0.37929 0.37545 0.0
C495 C 0.17121 0.38306 0.38264 0.0
C496 C 0.19855 0.41988 0.38677 0.0
Eu497 Eu 0.17749 0.34509 0.36569 0.0
N498 N 0.21569 0.36848 0.36652 0.0
C499 C 0.23022 0.36161 0.3639 0.0
C500 C 0.26021 0.39729 0.36813 0.0
C501 C 0.25265 0.37589 0.3646 0.0
H502 H 0.15452 0.37034 0.38369 0.0
H503 H 0.26408 0.37042 0.36222 0.0
H504 H 0.26916 0.437 0.37636 0.0
H505 H 0.16475 0.40657 0.39321 0.0
H506 H 0.22465 0.3452 0.36097 0.0
H507 H 0.11026 0.34629 0.28602 0.0
H508 H 0.27759 0.40834 0.36854 0.0
H509 H 0.14714 0.27543 0.33674 0.0
H510 H 0.14414 0.35023 0.29809 0.0
H511 H 0.11527 0.23972 0.3386 0.0
H512 H 0.242 0.44699 0.38451 0.0
H513 H 0.07505 0.31368 0.29128 0.0
H514 H 0.05512 0.27681 0.30299 0.0
H515 H 0.20301 0.43567 0.39109 0.0
H516 H 0.05667 0.24746 0.31681 0.0
N517 N 0.12798 0.32135 0.3114 0.0
C518 C 0.12873 0.33632 0.30087 0.0
C519 C 0.08982 0.31559 0.29687 0.0
C520 C 0.08953 0.2993 0.30621 0.0
C521 C 0.10963 0.33401 0.29387 0.0
C522 C 0.10923 0.3026 0.31319 0.0
H523 H 0.07917 0.23324 0.32941 0.0
N524 N 0.12968 0.2896 0.32653 0.0
C525 C 0.11356 0.25264 0.33363 0.0
C526 C 0.11015 0.28611 0.32081 0.0
C527 C 0.13169 0.27308 0.33255 0.0
C528 C 0.09321 0.24905 0.32846 0.0
C529 C 0.09132 0.26583 0.32185 0.0
O530 O 0.16522 0.30441 0.30682 0.0
O531 O 0.18821 0.34569 0.33999 0.0
O532 O 0.16876 0.36756 0.35258 0.0
O533 O 0.14824 0.34802 0.32982 0.0
O534 O 0.1849 0.35849 0.31805 0.0
O535 O 0.17314 0.33599 0.29951 0.0
O536 O 0.16038 0.33501 0.38906 0.0
O537 O 0.15182 0.31895 0.35029 0.0
O538 O 0.17902 0.30947 0.33355 0.0
O539 O 0.18573 0.31916 0.36098 0.0
O540 O 0.14149 0.333 0.36767 0.0
O541 O 0.19016 0.33443 0.38571 0.0
C542 C 0.19655 0.36207 0.331 0.0
C543 C 0.15973 0.30981 0.2789 0.0
C544 C 0.15675 0.31588 0.2498 0.0
C545 C 0.1672 0.32303 0.26505 0.0
C546 C 0.13882 0.2951 0.24866 0.0
C547 C 0.14159 0.28929 0.27742 0.0
C548 C 0.13131 0.28201 0.26237 0.0
C549 C 0.1557 0.36445 0.33998 0.0
C550 C 0.17076 0.31785 0.2948 0.0
C551 C 0.07136 0.26282 0.31588 0.0
C552 C 0.07046 0.27954 0.30807 0.0
C553 C 0.1353 0.31861 0.35653 0.0
C554 C 0.18235 0.34078 0.41235 0.0
C555 C 0.17462 0.32757 0.42615 0.0
C556 C 0.18198 0.33598 0.44191 0.0
C557 C 0.19691 0.35788 0.44356 0.0
C558 C 0.19736 0.36249 0.41434 0.0
C559 C 0.20449 0.37097 0.42987 0.0
C560 C 0.18616 0.30828 0.34821 0.0
C561 C 0.17501 0.33173 0.39594 0.0
H562 H 0.18089 0.33903 0.26628 0.0
H563 H 0.13064 0.2888 0.23713 0.0
H564 H 0.13529 0.27885 0.28787 0.0
H565 H 0.11744 0.26612 0.26131 0.0
H566 H 0.16326 0.31073 0.42459 0.0
H567 H 0.20261 0.36494 0.45548 0.0
H568 H 0.20367 0.37285 0.40391 0.0
H569 H 0.216 0.38777 0.4313 0.0
Eu570 Eu 0.68959 0.8315 0.32989 0.0
C571 C 0.61109 0.80906 0.37662 0.0
C572 C 0.60196 0.83654 0.37136 0.0
C573 C 0.57379 0.80148 0.38003 0.0
C574 C 0.61729 0.82948 0.37171 0.0
C575 C 0.58942 0.79502 0.38136 0.0
C576 C 0.58005 0.82223 0.37503 0.0
C577 C 0.60095 0.77043 0.39039 0.0
N578 N 0.6267 0.80354 0.37811 0.0
C579 C 0.62223 0.78501 0.38564 0.0
C580 C 0.58437 0.77529 0.38796 0.0
Eu581 Eu 0.66225 0.82843 0.36926 0.0
N582 N 0.63865 0.84294 0.36849 0.0
C583 C 0.64604 0.86411 0.36615 0.0
C584 C 0.60927 0.85794 0.36793 0.0
C585 C 0.63147 0.87186 0.3656 0.0
H586 H 0.63503 0.7812 0.38747 0.0
H587 H 0.63738 0.88854 0.36329 0.0
H588 H 0.56799 0.82727 0.37459 0.0
H589 H 0.59735 0.75547 0.39591 0.0
H590 H 0.6631 0.87509 0.36424 0.0
H591 H 0.7138 0.77086 0.33441 0.0
H592 H 0.59802 0.86397 0.36748 0.0
H593 H 0.71793 0.88082 0.31494 0.0
H594 H 0.68819 0.78455 0.33393 0.0
H595 H 0.756 0.9069 0.30763 0.0
H596 H 0.55699 0.79083 0.38341 0.0
H597 H 0.75324 0.79546 0.33057 0.0
H598 H 0.78352 0.8324 0.32443 0.0
H599 H 0.56792 0.76404 0.39176 0.0
H600 H 0.79503 0.86945 0.31713 0.0
N601 N 0.71285 0.81673 0.33022 0.0
C602 C 0.70531 0.79548 0.33216 0.0
C603 C 0.74205 0.80157 0.33031 0.0
C604 C 0.74952 0.82313 0.3274 0.0
C605 C 0.7198 0.78764 0.33244 0.0
C606 C 0.73429 0.8303 0.32729 0.0
H607 H 0.78483 0.89727 0.31054 0.0
N608 N 0.72544 0.85709 0.32229 0.0
C609 C 0.75197 0.89131 0.31207 0.0
C610 C 0.74079 0.85114 0.32323 0.0
C611 C 0.73047 0.87654 0.31617 0.0
C612 C 0.7682 0.88583 0.31378 0.0
C613 C 0.76266 0.86541 0.31915 0.0
O614 O 0.68414 0.83926 0.30523 0.0
O615 O 0.66209 0.83239 0.3423 0.0
O616 O 0.63938 0.79863 0.35518 0.0
O617 O 0.66241 0.79754 0.33511 0.0
O618 O 0.67747 0.85455 0.32411 0.0
O619 O 0.67872 0.8077 0.31053 0.0
O620 O 0.66915 0.82236 0.39406 0.0
O621 O 0.68916 0.82678 0.35669 0.0
O622 O 0.713 0.85915 0.34556 0.0
O623 O 0.68865 0.86239 0.36273 0.0
O624 O 0.67441 0.80545 0.37539 0.0
O625 O 0.67456 0.85354 0.38767 0.0
C626 C 0.66161 0.84704 0.33435 0.0
C627 C 0.69049 0.8212 0.28402 0.0
C628 C 0.68994 0.81902 0.2543 0.0
C629 C 0.67962 0.81841 0.2691 0.0
C630 C 0.7114 0.82261 0.25471 0.0
C631 C 0.71179 0.82458 0.28415 0.0
C632 C 0.72218 0.82533 0.26956 0.0
C633 C 0.64387 0.7889 0.3434 0.0
C634 C 0.6795 0.82079 0.29928 0.0
C635 C 0.7781 0.85865 0.32004 0.0
C636 C 0.77154 0.83755 0.32418 0.0
C637 C 0.68971 0.81221 0.36469 0.0
C638 C 0.66362 0.84177 0.4146 0.0
C639 C 0.67489 0.84555 0.42944 0.0
C640 C 0.66489 0.84576 0.44421 0.0
C641 C 0.64337 0.84202 0.44383 0.0
C642 C 0.64228 0.83828 0.4145 0.0
C643 C 0.63222 0.83837 0.42905 0.0
C644 C 0.70818 0.87004 0.35603 0.0
C645 C 0.67416 0.84118 0.39937 0.0
H646 H 0.66303 0.81547 0.26909 0.0
H647 H 0.71995 0.82353 0.24356 0.0
H648 H 0.72037 0.82662 0.29548 0.0
H649 H 0.73867 0.82806 0.26975 0.0
H650 H 0.6915 0.84855 0.42941 0.0
H651 H 0.63503 0.84165 0.45496 0.0
H652 H 0.6334 0.83548 0.40322 0.0
H653 H 0.61569 0.83551 0.42889 0.0
Eu654 Eu 0.19385 0.84411 0.36608 0.0
C655 C 0.14033 0.86691 0.31706 0.0
C656 C 0.10294 0.83964 0.32163 0.0
C657 C 0.11108 0.87476 0.31263 0.0
C658 C 0.12542 0.84653 0.32184 0.0
C659 C 0.13331 0.88107 0.31188 0.0
C660 C 0.0959 0.85407 0.31752 0.0
C661 C 0.17028 0.90548 0.30363 0.0
N662 N 0.16157 0.87229 0.31618 0.0
C663 C 0.17637 0.89079 0.30882 0.0
C664 C 0.14871 0.90076 0.30544 0.0
Eu665 Eu 0.17119 0.84729 0.32586 0.0
N666 N 0.1328 0.83297 0.3255 0.0
C667 C 0.11839 0.81181 0.32768 0.0
C668 C 0.08817 0.81827 0.32495 0.0
C669 C 0.09594 0.80421 0.32768 0.0
H670 H 0.19307 0.89448 0.30746 0.0
H671 H 0.08465 0.78754 0.32989 0.0
H672 H 0.07873 0.84915 0.31753 0.0
H673 H 0.18221 0.9204 0.29825 0.0
H674 H 0.12406 0.80073 0.3299 0.0
H675 H 0.28011 0.90456 0.36273 0.0
H676 H 0.07078 0.81235 0.32497 0.0
H677 H 0.17141 0.79504 0.38158 0.0
H678 H 0.24056 0.89098 0.36238 0.0
H679 H 0.18259 0.76905 0.38994 0.0
H680 H 0.10538 0.88551 0.30891 0.0
H681 H 0.29426 0.87998 0.36765 0.0
H682 H 0.2866 0.84313 0.37455 0.0
H683 H 0.14399 0.91209 0.30131 0.0
H684 H 0.26006 0.80622 0.38197 0.0
N685 N 0.23218 0.85884 0.3667 0.0
C686 C 0.24642 0.88004 0.36463 0.0
C687 C 0.27683 0.87391 0.36755 0.0
C688 C 0.26219 0.85242 0.37059 0.0
C689 C 0.26891 0.88784 0.36481 0.0
C690 C 0.23966 0.8453 0.37021 0.0
H691 H 0.22129 0.77857 0.38804 0.0
N692 N 0.20335 0.81864 0.37467 0.0
C693 C 0.1946 0.78456 0.38549 0.0
C694 C 0.22477 0.82454 0.3743 0.0
C695 C 0.18833 0.79929 0.38079 0.0
C696 C 0.21646 0.78997 0.38435 0.0
C697 C 0.23192 0.8103 0.37896 0.0
O698 O 0.17921 0.83657 0.3903 0.0
O699 O 0.16584 0.84325 0.35277 0.0
O700 O 0.17839 0.87716 0.33961 0.0
O701 O 0.20172 0.87806 0.36042 0.0
O702 O 0.15815 0.82082 0.37092 0.0
O703 O 0.2066 0.8679 0.3855 0.0
O704 O 0.1854 0.85333 0.30147 0.0
O705 O 0.19919 0.84869 0.33936 0.0
O706 O 0.18919 0.81618 0.35091 0.0
O707 O 0.16244 0.81334 0.33275 0.0
O708 O 0.20705 0.87015 0.32063 0.0
O709 O 0.15856 0.82223 0.30739 0.0
C710 C 0.15022 0.82835 0.36038 0.0
C711 C 0.20287 0.85439 0.41224 0.0
C712 C 0.20302 0.8568 0.44196 0.0
C713 C 0.19433 0.85765 0.42668 0.0
C714 C 0.22034 0.8525 0.44249 0.0
C715 C 0.22024 0.85032 0.41307 0.0
C716 C 0.22887 0.84933 0.42813 0.0
C717 C 0.19246 0.88682 0.35165 0.0
C718 C 0.19327 0.85496 0.39647 0.0
C719 C 0.25426 0.817 0.37861 0.0
C720 C 0.26937 0.83802 0.3744 0.0
C721 C 0.21496 0.8632 0.33165 0.0
C722 C 0.16115 0.83396 0.28023 0.0
C723 C 0.16941 0.83021 0.26584 0.0
C724 C 0.15994 0.82985 0.25061 0.0
C725 C 0.14213 0.83342 0.25008 0.0
C726 C 0.14334 0.83736 0.2794 0.0
C727 C 0.13392 0.83711 0.26439 0.0
C728 C 0.17361 0.80544 0.34008 0.0
C729 C 0.17141 0.83453 0.29597 0.0
H730 H 0.18111 0.86111 0.42595 0.0
H731 H 0.22718 0.85136 0.45402 0.0
H732 H 0.2271 0.84789 0.40211 0.0
H733 H 0.2422 0.84605 0.42868 0.0
H734 H 0.18302 0.82734 0.26656 0.0
H735 H 0.1347 0.83363 0.23857 0.0
H736 H 0.13671 0.84019 0.29033 0.0
H737 H 0.12024 0.83986 0.26384 0.0
Eu738 Eu 0.82795 0.65884 0.65795 0.0
C739 C 0.87735 0.72776 0.70898 0.0
C740 C 0.91432 0.73493 0.70535 0.0
C741 C 0.90778 0.76331 0.714 0.0
C742 C 0.89163 0.72085 0.7047 0.0
C743 C 0.88527 0.74889 0.71423 0.0
C744 C 0.92229 0.75633 0.70956 0.0
C745 C 0.84848 0.73911 0.72172 0.0
N746 N 0.8558 0.7133 0.70939 0.0
C747 C 0.84151 0.71829 0.71659 0.0
C748 C 0.87041 0.7546 0.72025 0.0
Eu749 Eu 0.84491 0.67843 0.70001 0.0
N750 N 0.88336 0.70007 0.70071 0.0
C751 C 0.89691 0.69201 0.69822 0.0
C752 C 0.92829 0.72693 0.70216 0.0
C753 C 0.91953 0.70529 0.69884 0.0
H754 H 0.82456 0.70626 0.71783 0.0
H755 H 0.93019 0.69886 0.6966 0.0
H756 H 0.93966 0.76746 0.70989 0.0
H757 H 0.83696 0.74316 0.72688 0.0
H758 H 0.89041 0.67539 0.69553 0.0
H759 H 0.77758 0.68052 0.62094 0.0
H760 H 0.94582 0.73721 0.70252 0.0
H761 H 0.81573 0.60948 0.66994 0.0
H762 H 0.81167 0.68466 0.63271 0.0
H763 H 0.78401 0.57369 0.67185 0.0
H764 H 0.91417 0.77969 0.71777 0.0
H765 H 0.74258 0.64768 0.62615 0.0
H766 H 0.72299 0.61068 0.63762 0.0
H767 H 0.87583 0.77067 0.72439 0.0
H768 H 0.7249 0.58129 0.65102 0.0
N769 N 0.79585 0.65551 0.64576 0.0
C770 C 0.79636 0.67057 0.63543 0.0
C771 C 0.75744 0.64963 0.63159 0.0
C772 C 0.75738 0.6333 0.64072 0.0
C773 C 0.77714 0.66818 0.62862 0.0
C774 C 0.7772 0.63666 0.64752 0.0
H775 H 0.7477 0.56713 0.66313 0.0
N776 N 0.79794 0.62368 0.66044 0.0
C777 C 0.78213 0.58664 0.66715 0.0
C778 C 0.77832 0.62014 0.6549 0.0
C779 C 0.80017 0.60713 0.66611 0.0
C780 C 0.76167 0.58299 0.66223 0.0
C781 C 0.75958 0.59979 0.65588 0.0
O782 O 0.83371 0.63906 0.64081 0.0
O783 O 0.85616 0.67953 0.67437 0.0
O784 O 0.83647 0.7012 0.68713 0.0
O785 O 0.81662 0.68248 0.66392 0.0
O786 O 0.8531 0.69278 0.65257 0.0
O787 O 0.84062 0.67035 0.63353 0.0
O788 O 0.82813 0.67002 0.72355 0.0
O789 O 0.81925 0.65274 0.68431 0.0
O790 O 0.84764 0.64419 0.6676 0.0
O791 O 0.85067 0.65086 0.69555 0.0
O792 O 0.80898 0.6669 0.70163 0.0
O793 O 0.85641 0.66678 0.72015 0.0
C794 C 0.86463 0.69608 0.66555 0.0
C795 C 0.82743 0.64409 0.61299 0.0
C796 C 0.82415 0.64951 0.5838 0.0
C797 C 0.83482 0.65697 0.59896 0.0
C798 C 0.80609 0.62877 0.58298 0.0
C799 C 0.80913 0.62363 0.61182 0.0
C800 C 0.79864 0.61605 0.59688 0.0
C801 C 0.82384 0.69858 0.67437 0.0
C802 C 0.83869 0.65241 0.62877 0.0
C803 C 0.73951 0.59671 0.65012 0.0
C804 C 0.73841 0.61346 0.64254 0.0
C805 C 0.80275 0.65257 0.69043 0.0
C806 C 0.85003 0.6748 0.74671 0.0
C807 C 0.84242 0.66195 0.76071 0.0
C808 C 0.85053 0.67061 0.77629 0.0
C809 C 0.86605 0.69239 0.77757 0.0
C810 C 0.86569 0.69637 0.74834 0.0
C811 C 0.87354 0.70512 0.76369 0.0
C812 C 0.85272 0.64128 0.68255 0.0
C813 C 0.84191 0.66554 0.73045 0.0
H814 H 0.84862 0.67294 0.59997 0.0
H815 H 0.79775 0.6222 0.57154 0.0
H816 H 0.80289 0.61346 0.62242 0.0
H817 H 0.78465 0.60019 0.59605 0.0
H818 H 0.83057 0.64519 0.75942 0.0
H819 H 0.87232 0.69967 0.78935 0.0
H820 H 0.87196 0.70644 0.73776 0.0
H821 H 0.88553 0.72182 0.76484 0.0
Eu822 Eu 0.35703 0.16581 0.66349 0.0
C823 C 0.27757 0.14196 0.70963 0.0
C824 C 0.26818 0.16931 0.70462 0.0
C825 C 0.2401 0.13397 0.71281 0.0
C826 C 0.28365 0.16245 0.70496 0.0
C827 C 0.25586 0.12767 0.71411 0.0
C828 C 0.24625 0.15477 0.70806 0.0
C829 C 0.26755 0.1031 0.72287 0.0
N830 N 0.29329 0.13661 0.71111 0.0
C831 C 0.28887 0.11794 0.71839 0.0
C832 C 0.25088 0.10783 0.72046 0.0
Eu833 Eu 0.32891 0.16192 0.70265 0.0
N834 N 0.30502 0.17611 0.70193 0.0
C835 C 0.31226 0.19729 0.6998 0.0
C836 C 0.27534 0.19073 0.70141 0.0
C837 C 0.29753 0.20485 0.69928 0.0
H838 H 0.30174 0.11424 0.72024 0.0
H839 H 0.30332 0.22155 0.69714 0.0
H840 H 0.23408 0.15967 0.70762 0.0
H841 H 0.264 0.08805 0.72819 0.0
H842 H 0.32931 0.20842 0.69804 0.0
H843 H 0.38158 0.10542 0.66801 0.0
H844 H 0.26397 0.19663 0.70098 0.0
H845 H 0.38546 0.21534 0.64896 0.0
H846 H 0.35581 0.11892 0.66731 0.0
H847 H 0.42364 0.24167 0.64213 0.0
H848 H 0.22328 0.12313 0.716 0.0
H849 H 0.42106 0.13023 0.66471 0.0
H850 H 0.45135 0.16734 0.65905 0.0
H851 H 0.23441 0.09639 0.72405 0.0
H852 H 0.46283 0.20446 0.65202 0.0
N853 N 0.38043 0.15122 0.664 0.0
C854 C 0.37296 0.12995 0.66577 0.0
C855 C 0.40981 0.13627 0.66435 0.0
C856 C 0.41723 0.15786 0.66162 0.0
C857 C 0.38753 0.12221 0.66619 0.0
C858 C 0.40192 0.16492 0.66138 0.0
H859 H 0.45256 0.23222 0.64538 0.0
N860 N 0.393 0.19165 0.65637 0.0
C861 C 0.4196 0.22605 0.64651 0.0
C862 C 0.40841 0.1858 0.65747 0.0
C863 C 0.39804 0.21114 0.65033 0.0
C864 C 0.43589 0.22067 0.64841 0.0
C865 C 0.43035 0.20022 0.65367 0.0
O866 O 0.35206 0.17394 0.63882 0.0
O867 O 0.32921 0.16631 0.67572 0.0
O868 O 0.30642 0.13235 0.68821 0.0
O869 O 0.32984 0.13171 0.66828 0.0
O870 O 0.34474 0.18874 0.65772 0.0
O871 O 0.34668 0.14235 0.6439 0.0
O872 O 0.33546 0.1556 0.72748 0.0
O873 O 0.35615 0.16067 0.69026 0.0
O874 O 0.37998 0.19335 0.67947 0.0
O875 O 0.35513 0.19605 0.69643 0.0
O876 O 0.34119 0.13904 0.70874 0.0
O877 O 0.34094 0.18685 0.72121 0.0
C878 C 0.32873 0.181 0.66784 0.0
C879 C 0.35909 0.15635 0.6176 0.0
C880 C 0.35927 0.15427 0.58789 0.0
C881 C 0.34847 0.15329 0.60254 0.0
C882 C 0.38096 0.15854 0.58863 0.0
C883 C 0.3806 0.16035 0.61804 0.0
C884 C 0.39148 0.1615 0.60362 0.0
C885 C 0.31118 0.12285 0.67642 0.0
C886 C 0.34765 0.1556 0.63272 0.0
C887 C 0.44585 0.19355 0.65472 0.0
C888 C 0.43931 0.17241 0.6587 0.0
C889 C 0.35668 0.14604 0.6982 0.0
C890 C 0.32986 0.17492 0.74807 0.0
C891 C 0.34143 0.17957 0.76283 0.0
C892 C 0.33146 0.17982 0.7776 0.0
C893 C 0.30966 0.17527 0.77729 0.0
C894 C 0.30824 0.1706 0.74804 0.0
C895 C 0.2982 0.17075 0.76259 0.0
C896 C 0.37482 0.20396 0.68996 0.0
C897 C 0.34045 0.17439 0.73286 0.0
H898 H 0.33171 0.14986 0.60228 0.0
H899 H 0.3899 0.1598 0.57761 0.0
H900 H 0.38899 0.16259 0.62948 0.0
H901 H 0.40815 0.16474 0.60406 0.0
H902 H 0.35825 0.1832 0.76274 0.0
H903 H 0.30134 0.17493 0.78843 0.0
H904 H 0.29912 0.16711 0.73681 0.0
H905 H 0.28145 0.16727 0.76248 0.0
Eu906 Eu 0.8606 0.17732 0.69944 0.0
C907 C 0.80678 0.20012 0.65054 0.0
C908 C 0.76939 0.17288 0.65519 0.0
C909 C 0.77752 0.20795 0.64604 0.0
C910 C 0.79187 0.17976 0.65538 0.0
C911 C 0.79974 0.21425 0.6453 0.0
C912 C 0.76235 0.18728 0.651 0.0
C913 C 0.83671 0.23864 0.63704 0.0
N914 N 0.82801 0.2055 0.64966 0.0
C915 C 0.84281 0.22398 0.64228 0.0
C916 C 0.81514 0.23392 0.63882 0.0
Eu917 Eu 0.83764 0.18051 0.65934 0.0
N918 N 0.79925 0.16622 0.65912 0.0
C919 C 0.78484 0.1451 0.66144 0.0
C920 C 0.75463 0.15154 0.65863 0.0
C921 C 0.76239 0.13752 0.66149 0.0
H922 H 0.85951 0.22767 0.64092 0.0
H923 H 0.7511 0.12088 0.66381 0.0
H924 H 0.74517 0.18237 0.65102 0.0
H925 H 0.84864 0.25355 0.63163 0.0
H926 H 0.7905 0.13403 0.66376 0.0
H927 H 0.94687 0.23769 0.69597 0.0
H928 H 0.73724 0.14564 0.65867 0.0
H929 H 0.83818 0.12819 0.71484 0.0
H930 H 0.90733 0.22417 0.69574 0.0
H931 H 0.84934 0.10212 0.72298 0.0
H932 H 0.77182 0.21867 0.64228 0.0
H933 H 0.96099 0.21304 0.70065 0.0
H934 H 0.9533 0.17613 0.70735 0.0
H935 H 0.81041 0.24523 0.63466 0.0
H936 H 0.92676 0.13919 0.7147 0.0
N937 N 0.89893 0.19198 0.69991 0.0
C938 C 0.91318 0.2132 0.69788 0.0
C939 C 0.94357 0.20699 0.70061 0.0
C940 C 0.92891 0.18548 0.70359 0.0
C941 C 0.93566 0.22096 0.69799 0.0
C942 C 0.90639 0.1784 0.70328 0.0
H943 H 0.88801 0.11156 0.72086 0.0
N944 N 0.87009 0.15176 0.70782 0.0
C945 C 0.86135 0.11763 0.71852 0.0
C946 C 0.8915 0.15762 0.70733 0.0
C947 C 0.85509 0.13241 0.71395 0.0
C948 C 0.88318 0.123 0.71726 0.0
C949 C 0.89864 0.14333 0.71188 0.0
O950 O 0.84612 0.16977 0.7237 0.0
O951 O 0.83251 0.17654 0.68629 0.0
O952 O 0.84503 0.21042 0.6731 0.0
O953 O 0.86847 0.21128 0.69381 0.0
O954 O 0.82494 0.15412 0.70442 0.0
O955 O 0.87358 0.20105 0.7189 0.0
O956 O 0.85167 0.18643 0.6349 0.0
O957 O 0.86572 0.1819 0.67271 0.0
O958 O 0.8558 0.1494 0.68418 0.0
O959 O 0.82885 0.14656 0.66625 0.0
O960 O 0.87348 0.20329 0.65394 0.0
O961 O 0.82486 0.15537 0.64094 0.0
C962 C 0.81694 0.16169 0.69397 0.0
C963 C 0.87001 0.18736 0.74557 0.0
C964 C 0.87051 0.18955 0.77531 0.0
C965 C 0.86173 0.19065 0.76012 0.0
C966 C 0.88761 0.18493 0.77561 0.0
C967 C 0.8872 0.18301 0.74617 0.0
C968 C 0.8959 0.18175 0.76113 0.0
C969 C 0.85919 0.22007 0.68509 0.0
C970 C 0.8603 0.1881 0.72989 0.0
C971 C 0.92097 0.15 0.71143 0.0
C972 C 0.93608 0.17104 0.70726 0.0
C973 C 0.88145 0.19636 0.66493 0.0
C974 C 0.82727 0.16698 0.61375 0.0
C975 C 0.83547 0.16324 0.59934 0.0
C976 C 0.8259 0.16282 0.58414 0.0
C977 C 0.80805 0.16633 0.58367 0.0
C978 C 0.8094 0.17031 0.613 0.0
C979 C 0.79989 0.17001 0.59802 0.0
C980 C 0.8401 0.13867 0.67344 0.0
C981 C 0.83764 0.16761 0.62946 0.0
H982 H 0.84866 0.19433 0.75957 0.0
H983 H 0.89448 0.18355 0.78704 0.0
H984 H 0.89388 0.18057 0.73513 0.0
H985 H 0.90907 0.17824 0.7615 0.0
H986 H 0.84912 0.16042 0.60001 0.0
H987 H 0.80053 0.16649 0.5722 0.0
H988 H 0.80282 0.17313 0.62395 0.0
H989 H 0.78617 0.17271 0.59752 0.0
C990 C 0.28836 0.83351 0.05032 0.0
C991 C 0.28595 0.83054 0.06733 0.0
C992 C 0.30749 0.85009 0.04368 0.0
C993 C 0.35218 0.90306 0.05247 0.0
H994 H 0.3861 0.89169 0.02117 0.0
C995 C 0.44542 0.94831 0.03031 0.0
C996 C 0.4481 0.96751 0.02415 0.0
C997 C 0.42459 0.93124 0.03331 0.0
C998 C 0.37665 0.89506 0.02979 0.0
H999 H 0.30238 0.84271 0.09057 0.0
H1000 H 0.33517 0.87211 0.07894 0.0
H1001 H 0.35132 0.86236 0.03102 0.0
H1002 H 0.43155 0.9846 0.01721 0.0
H1003 H 0.39485 0.95467 0.02268 0.0
H1004 H 0.37746 0.93571 0.05128 0.0
C1005 C 0.32216 0.86149 0.07083 0.0
C1006 C 0.3568 0.87835 0.03538 0.0
C1007 C 0.30326 0.84469 0.07747 0.0
C1008 C 0.42971 0.96965 0.02148 0.0
C1009 C 0.40884 0.95264 0.02466 0.0
C1010 C 0.37177 0.9198 0.04663 0.0
C1011 C 0.32446 0.86434 0.05389 0.0
C1012 C 0.34461 0.88217 0.04699 0.0
C1013 C 0.40613 0.93332 0.03068 0.0
C1014 C 0.38435 0.9159 0.03546 0.0
H1015 H 0.27533 0.82327 0.04209 0.0
H1016 H 0.30886 0.85206 0.03058 0.0
H1017 H 0.343 0.90639 0.06137 0.0
H1018 H 0.45948 0.9467 0.03318 0.0
H1019 H 0.42294 0.91666 0.03826 0.0
C1020 C 0.19205 0.47608 0.0652 0.0
C1021 C 0.18772 0.45633 0.07156 0.0
C1022 C 0.17495 0.47915 0.05975 0.0
C1023 C 0.11537 0.45654 0.06513 0.0
H1024 H 0.11939 0.49016 0.02719 0.0
C1025 C 0.04024 0.45855 0.04007 0.0
C1026 C 0.04303 0.47812 0.03469 0.0
C1027 C 0.05828 0.45627 0.04378 0.0
C1028 C 0.11809 0.4809 0.03791 0.0
H1029 H 0.1621 0.42398 0.07618 0.0
H1030 H 0.13256 0.42923 0.06667 0.0
H1031 H 0.15029 0.48557 0.03477 0.0
H1032 H 0.06688 0.51102 0.02987 0.0
H1033 H 0.0985 0.50711 0.03631 0.0
H1034 H 0.08332 0.45189 0.06838 0.0
C1035 C 0.14902 0.44258 0.06629 0.0
C1036 C 0.13582 0.47827 0.04226 0.0
C1037 C 0.16601 0.43955 0.07173 0.0
C1038 C 0.06426 0.49557 0.0335 0.0
C1039 C 0.08237 0.49332 0.03722 0.0
C1040 C 0.09773 0.45916 0.0608 0.0
C1041 C 0.15315 0.46252 0.06052 0.0
C1042 C 0.13462 0.46589 0.05587 0.0
C1043 C 0.07961 0.47364 0.04249 0.0
C1044 C 0.09874 0.47125 0.04708 0.0
H1045 H 0.20855 0.48937 0.06495 0.0
H1046 H 0.17877 0.49475 0.05546 0.0
H1047 H 0.11397 0.44733 0.07591 0.0
H1048 H 0.02403 0.44493 0.0413 0.0
H1049 H 0.05549 0.44083 0.04763 0.0
C1050 C 0.54776 0.72621 0.05919 0.0
C1051 C 0.56842 0.73972 0.06594 0.0
C1052 C 0.54272 0.70631 0.05295 0.0
C1053 C 0.56676 0.67594 0.03625 0.0
H1054 H 0.51524 0.62621 0.05268 0.0
C1055 C 0.53482 0.59043 0.01151 0.0
C1056 C 0.53047 0.57499 0.02346 0.0
C1057 C 0.53924 0.61081 0.01596 0.0
C1058 C 0.52965 0.63998 0.04799 0.0
H1059 H 0.60022 0.7435 0.07099 0.0
H1060 H 0.59154 0.70887 0.05978 0.0
H1061 H 0.52331 0.66175 0.0613 0.0
H1062 H 0.52741 0.56859 0.04939 0.0
H1063 H 0.53478 0.60419 0.05719 0.0
H1064 H 0.57308 0.65415 0.02294 0.0
C1065 C 0.57922 0.71358 0.05944 0.0
C1066 C 0.53417 0.66027 0.05281 0.0
C1067 C 0.58413 0.73328 0.06593 0.0
C1068 C 0.53072 0.58026 0.03995 0.0
C1069 C 0.53478 0.60052 0.04439 0.0
C1070 C 0.56204 0.65566 0.03122 0.0
C1071 C 0.55839 0.6998 0.05308 0.0
C1072 C 0.5529 0.67841 0.04713 0.0
C1073 C 0.53908 0.61598 0.03244 0.0
C1074 C 0.54358 0.63749 0.03719 0.0
H1075 H 0.53537 0.73081 0.05914 0.0
H1076 H 0.52657 0.69598 0.04804 0.0
H1077 H 0.58126 0.68971 0.03167 0.0
H1078 H 0.53528 0.58692 0.99878 0.0
H1079 H 0.54257 0.62248 0.00652 0.0
C1080 C 0.84976 0.27828 0.96055 0.0
C1081 C 0.82746 0.27178 0.96146 0.0
C1082 C 0.86544 0.29773 0.96714 0.0
C1083 C 0.87363 0.3503 0.97937 0.0
H1084 H 0.92628 0.35657 0.99932 0.0
C1085 C 0.93851 0.42898 0.00907 0.0
C1086 C 0.9604 0.43575 0.00538 0.0
C1087 C 0.92199 0.40862 0.00472 0.0
C1088 C 0.91174 0.35509 0.99367 0.0
H1089 H 0.8042 0.28052 0.97039 0.0
H1090 H 0.83158 0.31429 0.9823 0.0
H1091 H 0.8977 0.32149 0.99049 0.0
H1092 H 0.98205 0.42633 0.99424 0.0
H1093 H 0.95315 0.39077 0.98659 0.0
H1094 H 0.88771 0.38393 0.98259 0.0
C1095 C 0.83694 0.30447 0.97619 0.0
C1096 C 0.89535 0.33499 0.98859 0.0
C1097 C 0.82121 0.28499 0.96954 0.0
C1098 C 0.96538 0.42163 0.99729 0.0
C1099 C 0.94884 0.4012 0.993 0.0
C1100 C 0.88997 0.37038 0.98453 0.0
C1101 C 0.85927 0.31118 0.97493 0.0
C1102 C 0.87617 0.33236 0.98122 0.0
C1103 C 0.92694 0.39451 0.99659 0.0
C1104 C 0.90929 0.37303 0.99161 0.0
H1105 H 0.85515 0.26836 0.95466 0.0
H1106 H 0.88246 0.30242 0.96577 0.0
H1107 H 0.85927 0.34896 0.97351 0.0
H1108 H 0.93402 0.43949 0.01516 0.0
H1109 H 0.90531 0.40389 0.00779 0.0
C1110 C 0.71821 0.52864 0.96756 0.0
C1111 C 0.7341 0.54755 0.96019 0.0
C1112 C 0.69855 0.52672 0.9731 0.0
C1113 C 0.66331 0.55077 0.9668 0.0
H1114 H 0.63369 0.51935 0.00565 0.0
C1115 C 0.5875 0.55145 0.99146 0.0
C1116 C 0.57003 0.53206 0.99678 0.0
C1117 C 0.60776 0.55334 0.9881 0.0
C1118 C 0.64168 0.52803 0.99469 0.0
H1119 H 0.74225 0.57967 0.95376 0.0
H1120 H 0.70835 0.57648 0.96354 0.0
H1121 H 0.66867 0.52268 0.99801 0.0
H1122 H 0.55977 0.49911 1.00199 0.0
H1123 H 0.59521 0.50239 0.99628 0.0
H1124 H 0.63645 0.55613 0.96343 0.0
C1125 C 0.71066 0.56285 0.96463 0.0
C1126 C 0.66174 0.52993 0.99029 0.0
C1127 C 0.73019 0.56472 0.95905 0.0
C1128 C 0.57312 0.51444 0.99841 0.0
C1129 C 0.59344 0.51632 0.9951 0.0
C1130 C 0.64337 0.54893 0.97121 0.0
C1131 C 0.69435 0.5437 0.97146 0.0
C1132 C 0.67289 0.54142 0.9763 0.0
C1133 C 0.61098 0.53577 0.98974 0.0
C1134 C 0.63229 0.53761 0.98523 0.0
H1135 H 0.72065 0.51507 0.96855 0.0
H1136 H 0.68636 0.51168 0.97818 0.0
H1137 H 0.67105 0.5593 0.95574 0.0
H1138 H 0.58547 0.5652 0.98988 0.0
H1139 H 0.62093 0.56861 0.98416 0.0
C1140 C 0.45025 0.17609 0.97839 0.0
C1141 C 0.45432 0.18223 0.96193 0.0
C1142 C 0.45313 0.15954 0.98427 0.0
C1143 C 0.45576 0.11255 0.97028 0.0
H1144 H 0.48513 0.11769 0.01145 0.0
C1145 C 0.48806 0.05673 0.98713 0.0
C1146 C 0.48522 0.04904 0.00312 0.0
C1147 C 0.4832 0.07256 0.98303 0.0
C1148 C 0.47662 0.1159 1.00005 0.0
H1149 H 0.46524 0.17622 0.9389 0.0
H1150 H 0.47016 0.14737 0.94913 0.0
H1151 H 0.47871 0.1463 1.00251 0.0
H1152 H 0.4755 0.05202 0.0275 0.0
H1153 H 0.46706 0.08001 0.02038 0.0
H1154 H 0.4538 0.08231 0.9677 0.0
C1155 C 0.46437 0.15508 0.95742 0.0
C1156 C 0.47297 0.13228 0.99492 0.0
C1157 C 0.46154 0.17161 0.95156 0.0
C1158 C 0.47792 0.0578 0.0151 0.0
C1159 C 0.47307 0.07376 0.01101 0.0
C1160 C 0.45938 0.09622 0.9754 0.0
C1161 C 0.46008 0.14876 0.97382 0.0
C1162 C 0.46282 0.13092 0.97985 0.0
C1163 C 0.47548 0.08115 0.99486 0.0
C1164 C 0.47018 0.09785 0.9902 0.0
H1165 H 0.44443 0.18378 0.98665 0.0
H1166 H 0.44951 0.15491 0.99693 0.0
H1167 H 0.44747 0.11081 0.95879 0.0
H1168 H 0.49455 0.05087 0.97785 0.0
H1169 H 0.48584 0.07831 0.97059 0.0
C1170 C 0.72431 0.15281 0.97267 0.0
C1171 C 0.73171 0.17447 0.97539 0.0
C1172 C 0.70258 0.13756 0.97555 0.0
C1173 C 0.65313 0.12892 0.99765 0.0
H1174 H 0.62417 0.0808 0.96824 0.0
C1175 C 0.5602 0.06813 0.99927 0.0
C1176 C 0.55436 0.04665 0.99797 0.0
C1177 C 0.58191 0.08409 0.9972 0.0
C1178 C 0.63209 0.09404 0.97666 0.0
H1179 H 0.72233 0.19724 0.98327 0.0
H1180 H 0.68411 0.17065 0.98801 0.0
H1181 H 0.66169 0.10808 0.96304 0.0
H1182 H 0.56587 0.02479 0.9924 0.0
H1183 H 0.60386 0.0526 0.98873 0.0
H1184 H 0.62324 0.1148 0.01114 0.0
C1185 C 0.69515 0.16537 0.98387 0.0
C1186 C 0.65363 0.10968 0.9737 0.0
C1187 C 0.71695 0.18062 0.98104 0.0
C1188 C 0.57026 0.04129 0.99398 0.0
C1189 C 0.59188 0.0572 0.9917 0.0
C1190 C 0.63148 0.11328 1.00056 0.0
C1191 C 0.68768 0.14362 0.98118 0.0
C1192 C 0.66451 0.12727 0.9842 0.0
C1193 C 0.59794 0.07878 0.99324 0.0
C1194 C 0.62079 0.09561 0.99014 0.0
H1195 H 0.7354 0.14763 0.96844 0.0
H1196 H 0.69754 0.12097 0.97361 0.0
H1197 H 0.66106 0.14208 0.00612 0.0
H1198 H 0.54794 0.07252 1.00183 0.0
H1199 H 0.58604 0.10057 0.99824 0.0
C1200 C 0.85324 0.5597 0.97096 0.0
C1201 C 0.83174 0.54438 0.97488 0.0
C1202 C 0.87028 0.55534 0.97298 0.0
C1203 C 0.88489 0.51937 0.99525 0.0
H1204 H 0.93397 0.54324 0.96567 0.0
C1205 C 0.95538 0.50014 0.99947 0.0
C1206 C 0.97662 0.51744 0.99783 0.0
C1207 C 0.93725 0.50257 0.99633 0.0
C1208 C 0.92048 0.5366 0.97414 0.0
H1209 H 0.81113 0.51233 0.98364 0.0
H1210 H 0.84079 0.5044 0.98683 0.0
H1211 H 0.90311 0.54852 0.9604 0.0
H1212 H 0.99558 0.55047 0.99074 0.0
H1213 H 0.96402 0.55483 0.98532 0.0
H1214 H 0.90233 0.50733 0.00891 0.0
C1215 C 0.84462 0.51998 0.98248 0.0
C1216 C 0.90274 0.53965 0.97113 0.0
C1217 C 0.82756 0.5244 0.9805 0.0
C1218 C 0.97938 0.53698 0.99237 0.0
C1219 C 0.96129 0.53941 0.98917 0.0
C1220 C 0.90261 0.51621 0.9982 0.0
C1221 C 0.86629 0.53548 0.97891 0.0
C1222 C 0.88475 0.53127 0.98172 0.0
C1223 C 0.93997 0.52226 0.99116 0.0
C1224 C 0.92073 0.52496 0.98777 0.0
H1225 H 0.85699 0.5753 0.9667 0.0
H1226 H 0.88671 0.56782 0.97032 0.0
H1227 H 0.87155 0.51292 0.00384 0.0
H1228 H 0.95274 0.48469 0.0031 0.0
H1229 H 0.9211 0.48894 0.99774 0.0
C1230 C 0.47146 0.28931 0.9909 0.0
C1231 C 0.45288 0.27613 0.9816 0.0
C1232 C 0.47786 0.31073 0.99323 0.0
C1233 C 0.47081 0.35438 0.97634 0.0
H1234 H 0.49162 0.37965 0.01897 0.0
C1235 C 0.48261 0.43653 0.99459 0.0
C1236 C 0.50149 0.45008 0.00355 0.0
C1237 C 0.47717 0.4155 0.99146 0.0
C1238 C 0.48605 0.37287 0.00695 0.0
H1239 H 0.42677 0.27492 0.96698 0.0
H1240 H 0.43756 0.31224 0.97134 0.0
H1241 H 0.48112 0.34254 0.01441 0.0
H1242 H 0.52996 0.4524 0.01558 0.0
H1243 H 0.52025 0.41567 0.01034 0.0
H1244 H 0.47549 0.38472 0.96898 0.0
C1245 C 0.44734 0.30616 0.97676 0.0
C1246 C 0.48007 0.35161 0.00432 0.0
C1247 C 0.44102 0.28476 0.97438 0.0
C1248 C 0.51501 0.44226 0.00901 0.0
C1249 C 0.50949 0.42121 0.00597 0.0
C1250 C 0.47669 0.37562 0.979 0.0
C1251 C 0.4658 0.3194 0.98626 0.0
C1252 C 0.47236 0.34209 0.98898 0.0
C1253 C 0.49046 0.40757 0.99724 0.0
C1254 C 0.48437 0.38508 0.99433 0.0
H1255 H 0.48104 0.28301 0.99634 0.0
H1256 H 0.49239 0.32055 1.00036 0.0
H1257 H 0.46528 0.34766 0.9643 0.0
H1258 H 0.47186 0.44204 0.99015 0.0
H1259 H 0.46231 0.40531 0.98479 0.0
C1260 C 0.19531 0.71869 0.04291 0.0
C1261 C 0.1906 0.73267 0.05145 0.0
C1262 C 0.17936 0.69733 0.04089 0.0
C1263 C 0.11983 0.66229 0.04034 0.0
H1264 H 0.13364 0.61696 0.04371 0.0
C1265 C 0.05341 0.5737 0.0354 0.0
C1266 C 0.05864 0.56021 0.0266 0.0
C1267 C 0.06951 0.5945 0.03923 0.0
C1268 C 0.12955 0.62944 0.04254 0.0
H1269 H 0.16602 0.73523 0.06529 0.0
H1270 H 0.13806 0.69788 0.06176 0.0
H1271 H 0.16187 0.6536 0.04909 0.0
H1272 H 0.08513 0.55792 0.01539 0.0
H1273 H 0.11293 0.59427 0.02157 0.0
H1274 H 0.08763 0.63826 0.03354 0.0
C1275 C 0.15392 0.70347 0.05635 0.0
C1276 C 0.14574 0.65044 0.04566 0.0
C1277 C 0.16991 0.7248 0.05843 0.0
C1278 C 0.0804 0.56794 0.02193 0.0
C1279 C 0.09646 0.58875 0.02568 0.0
C1280 C 0.10367 0.64131 0.03715 0.0
C1281 C 0.15839 0.68954 0.04741 0.0
C1282 C 0.14108 0.66712 0.04454 0.0
C1283 C 0.09123 0.60233 0.03436 0.0
C1284 C 0.10833 0.62461 0.03815 0.0
H1285 H 0.21124 0.72441 0.03756 0.0
H1286 H 0.18329 0.68704 0.03387 0.0
H1287 H 0.11579 0.6748 0.03913 0.0
H1288 H 0.03687 0.56825 0.03931 0.0
H1289 H 0.06495 0.60439 0.04615 0.0
C1290 C 0.29452 0.44419 0.05875 0.0
C1291 C 0.28782 0.45921 0.05602 0.0
C1292 C 0.31601 0.44924 0.05565 0.0
C1293 C 0.37232 0.4939 0.04968 0.0
H1294 H 0.38009 0.45089 0.02757 0.0
C1295 C 0.45728 0.509 0.02783 0.0
C1296 C 0.46139 0.49203 0.02966 0.0
C1297 C 0.43636 0.50597 0.03063 0.0
C1298 C 0.37829 0.46302 0.03392 0.0
H1299 H 0.29851 0.49147 0.04839 0.0
H1300 H 0.33625 0.50046 0.04306 0.0
H1301 H 0.34352 0.4439 0.03381 0.0
H1302 H 0.44728 0.45904 0.0367 0.0
H1303 H 0.41098 0.45372 0.04168 0.0
H1304 H 0.40719 0.51292 0.04994 0.0
C1305 C 0.32488 0.48476 0.04762 0.0
C1306 C 0.35726 0.459 0.0375 0.0
C1307 C 0.30329 0.47964 0.05065 0.0
C1308 C 0.44443 0.47225 0.03485 0.0
C1309 C 0.42358 0.4692 0.03761 0.0
C1310 C 0.39344 0.4979 0.04617 0.0
C1311 C 0.33142 0.46948 0.0498 0.0
C1312 C 0.35396 0.47426 0.04559 0.0
C1313 C 0.41916 0.48596 0.03546 0.0
C1314 C 0.39672 0.48239 0.03841 0.0
H1315 H 0.283 0.42833 0.06293 0.0
H1316 H 0.32054 0.4372 0.05776 0.0
H1317 H 0.37041 0.50598 0.05599 0.0
H1318 H 0.47024 0.52458 0.02426 0.0
H1319 H 0.43361 0.51924 0.02878 0.0
C1320 C 0.57309 0.83874 0.03303 0.0
C1321 C 0.58255 0.84008 0.04836 0.0
C1322 C 0.56726 0.85379 0.02837 0.0
C1323 C 0.57785 0.90798 0.03826 0.0
H1324 H 0.52333 0.89001 0.01543 0.0
C1325 C 0.53958 0.96148 0.0322 0.0
C1326 C 0.52964 0.96148 0.01732 0.0
C1327 C 0.54706 0.9472 0.03488 0.0
C1328 C 0.53876 0.89533 0.0216 0.0
H1329 H 0.59257 0.85747 0.07111 0.0
H1330 H 0.58219 0.88373 0.06311 0.0
H1331 H 0.53409 0.86381 0.02242 0.0
H1332 H 0.5201 0.94657 0.99349 0.0
H1333 H 0.53324 0.92159 0.99822 0.0
H1334 H 0.58236 0.93943 0.03766 0.0
C1335 C 0.5798 0.87143 0.05448 0.0
C1336 C 0.54492 0.88031 0.02561 0.0
C1337 C 0.58564 0.8564 0.05911 0.0
C1338 C 0.52766 0.94702 0.0051 0.0
C1339 C 0.53506 0.93261 0.00783 0.0
C1340 C 0.57167 0.92296 0.03429 0.0
C1341 C 0.57062 0.87037 0.03902 0.0
C1342 C 0.56444 0.88643 0.03414 0.0
C1343 C 0.54475 0.93249 0.02279 0.0
C1344 C 0.55195 0.91678 0.02606 0.0
H1345 H 0.57033 0.82611 0.02462 0.0
H1346 H 0.56036 0.85258 0.01635 0.0
H1347 H 0.5932 0.9133 0.04455 0.0
H1348 H 0.54144 0.97239 0.04191 0.0
H1349 H 0.5542 0.94735 0.04661 0.0
C1350 C 0.96845 0.17742 0.41068 0.0
C1351 C 0.95113 0.16323 0.40058 0.0
C1352 C 0.98733 0.19422 0.40401 0.0
C1353 C 0.02194 0.21095 0.36858 0.0
H1354 H 0.04259 0.26837 0.38434 0.0
C1355 C 0.11061 0.28078 0.36366 0.0
C1356 C 0.11337 0.29995 0.35739 0.0
C1357 C 0.08975 0.26376 0.36666 0.0
C1358 C 0.0369 0.25245 0.37973 0.0
H1359 H 0.94046 0.15586 0.37535 0.0
H1360 H 0.97396 0.18464 0.36378 0.0
H1361 H 0.00808 0.23909 0.39442 0.0
H1362 H 0.09692 0.31708 0.35025 0.0
H1363 H 0.06016 0.28723 0.3557 0.0
H1364 H 0.05129 0.22423 0.35444 0.0
C1365 C 0.97261 0.18272 0.37689 0.0
C1366 C 0.01728 0.23573 0.38556 0.0
C1367 C 0.9535 0.16614 0.38356 0.0
C1368 C 0.09503 0.30214 0.35461 0.0
C1369 C 0.07412 0.28518 0.35778 0.0
C1370 C 0.04181 0.22763 0.363 0.0
C1371 C 0.98959 0.19701 0.38707 0.0
C1372 C 0.00972 0.21482 0.38014 0.0
C1373 C 0.07134 0.26587 0.3639 0.0
C1374 C 0.04951 0.24849 0.36863 0.0
H1375 H 0.96761 0.17548 0.42378 0.0
H1376 H 1.00036 0.20487 0.4121 0.0
H1377 H 0.01647 0.19494 0.36427 0.0
H1378 H 0.12464 0.27915 0.36661 0.0
H1379 H 0.08804 0.24919 0.37168 0.0
C1380 C 0.83204 0.77136 0.40486 0.0
C1381 C 0.85371 0.7882 0.40468 0.0
C1382 C 0.81501 0.77426 0.39929 0.0
C1383 C 0.80179 0.80971 0.3749 0.0
H1384 H 0.74908 0.78326 0.40077 0.0
C1385 C 0.73031 0.82716 0.36606 0.0
C1386 C 0.70905 0.80974 0.36724 0.0
C1387 C 0.74838 0.82481 0.36968 0.0
C1388 C 0.76354 0.79055 0.39326 0.0
H1389 H 0.87445 0.82121 0.39792 0.0
H1390 H 0.84462 0.82635 0.38822 0.0
H1391 H 0.77971 0.77878 0.40852 0.0
H1392 H 0.68999 0.77649 0.37369 0.0
H1393 H 0.7214 0.77225 0.37985 0.0
H1394 H 0.78544 0.82159 0.3597 0.0
C1395 C 0.84085 0.8108 0.39261 0.0
C1396 C 0.78117 0.78797 0.39771 0.0
C1397 C 0.85797 0.80787 0.39818 0.0
C1398 C 0.70622 0.79009 0.37246 0.0
C1399 C 0.72423 0.78773 0.37608 0.0
C1400 C 0.78407 0.81232 0.37044 0.0
C1401 C 0.81907 0.79411 0.39336 0.0
C1402 C 0.80051 0.79737 0.38856 0.0
C1403 C 0.74557 0.80508 0.37486 0.0
C1404 C 0.76466 0.80265 0.37952 0.0
H1405 H 0.82819 0.75585 0.40942 0.0
H1406 H 0.79857 0.76086 0.39968 0.0
H1407 H 0.81632 0.81705 0.36747 0.0
H1408 H 0.73297 0.84267 0.36258 0.0
H1409 H 0.76453 0.83859 0.36882 0.0
C1410 C 0.21719 0.06048 0.39267 0.0
C1411 C 0.23838 0.07421 0.39844 0.0
C1412 C 0.21167 0.04044 0.38644 0.0
C1413 C 0.23452 0.00973 0.36821 0.0
H1414 H 0.1842 0.96039 0.38639 0.0
C1415 C 0.20147 0.92378 0.34418 0.0
C1416 C 0.19763 0.90851 0.35617 0.0
C1417 C 0.20609 0.94423 0.3486 0.0
C1418 C 0.19828 0.97404 0.38121 0.0
H1419 H 0.27059 0.0782 0.40173 0.0
H1420 H 0.26105 0.04333 0.39058 0.0
H1421 H 0.19287 0.99612 0.39496 0.0
H1422 H 0.19568 0.90253 0.38214 0.0
H1423 H 0.20346 0.93826 0.3899 0.0
H1424 H 0.23996 0.98765 0.35449 0.0
C1425 C 0.24869 0.04798 0.39098 0.0
C1426 C 0.20312 0.99444 0.386 0.0
C1427 C 0.2541 0.06783 0.39744 0.0
C1428 C 0.19859 0.91405 0.37266 0.0
C1429 C 0.20287 0.93439 0.37709 0.0
C1430 C 0.22948 0.98934 0.36322 0.0
C1431 C 0.22736 0.03399 0.3856 0.0
C1432 C 0.22143 0.01246 0.37969 0.0
C1433 C 0.20667 0.94968 0.36509 0.0
C1434 C 0.21146 0.9713 0.36982 0.0
H1435 H 0.20478 0.06503 0.39338 0.0
H1436 H 0.19514 0.02997 0.38229 0.0
H1437 H 0.24868 0.02338 0.36312 0.0
H1438 H 0.20139 0.92009 0.33143 0.0
H1439 H 0.209 0.95574 0.33912 0.0
C1440 C 0.51349 0.60968 0.29645 0.0
C1441 C 0.49188 0.60514 0.29436 0.0
C1442 C 0.52921 0.62915 0.303 0.0
C1443 C 0.54291 0.68444 0.30661 0.0
H1444 H 0.58354 0.68796 0.34 0.0
C1445 C 0.62275 0.76207 0.3219 0.0
C1446 C 0.62672 0.7674 0.33849 0.0
C1447 C 0.60578 0.74213 0.31709 0.0
C1448 C 0.57225 0.6872 0.33073 0.0
H1449 H 0.46967 0.61722 0.29761 0.0
H1450 H 0.49734 0.65158 0.30888 0.0
H1451 H 0.55424 0.6531 0.33105 0.0
H1452 H 0.61688 0.75574 0.36302 0.0
H1453 H 0.58726 0.72084 0.35468 0.0
H1454 H 0.56115 0.71852 0.30607 0.0
C1455 C 0.50203 0.63998 0.30549 0.0
C1456 C 0.55558 0.66729 0.32555 0.0
C1457 C 0.4862 0.62033 0.29917 0.0
C1458 C 0.61382 0.75225 0.35019 0.0
C1459 C 0.59705 0.73219 0.3454 0.0
C1460 C 0.55978 0.70433 0.31161 0.0
C1461 C 0.52371 0.6446 0.3074 0.0
C1462 C 0.54078 0.66571 0.31342 0.0
C1463 C 0.59272 0.72701 0.32879 0.0
C1464 C 0.57465 0.70591 0.32368 0.0
H1465 H 0.51826 0.59818 0.29292 0.0
H1466 H 0.54581 0.63235 0.30423 0.0
H1467 H 0.53183 0.68367 0.29715 0.0
H1468 H 0.63245 0.77349 0.31262 0.0
H1469 H 0.60294 0.73847 0.3042 0.0
C1470 C 0.39634 0.89715 0.29104 0.0
C1471 C 0.40025 0.87999 0.2923 0.0
C1472 C 0.37691 0.89541 0.29672 0.0
C1473 C 0.32833 0.86294 0.32283 0.0
H1474 H 0.30274 0.88881 0.29592 0.0
C1475 C 0.2398 0.84762 0.33131 0.0
C1476 C 0.2367 0.86522 0.32955 0.0
C1477 C 0.26009 0.84945 0.32796 0.0
C1478 C 0.30975 0.88171 0.30371 0.0
H1479 H 0.38687 0.84766 0.30098 0.0
H1480 H 0.35275 0.84447 0.31077 0.0
H1481 H 0.33721 0.89182 0.28806 0.0
H1482 H 0.25212 0.8983 0.32246 0.0
H1483 H 0.28753 0.90161 0.31668 0.0
H1484 H 0.30048 0.8526 0.33837 0.0
C1485 C 0.36487 0.85942 0.30552 0.0
C1486 C 0.32961 0.88346 0.29921 0.0
C1487 C 0.38444 0.86122 0.29989 0.0
C1488 C 0.25416 0.88456 0.32412 0.0
C1489 C 0.27439 0.8864 0.32073 0.0
C1490 C 0.30834 0.86112 0.32733 0.0
C1491 C 0.36068 0.87639 0.30377 0.0
C1492 C 0.3393 0.87422 0.30872 0.0
C1493 C 0.2776 0.86883 0.32246 0.0
C1494 C 0.29884 0.87058 0.31785 0.0
H1495 H 0.40834 0.91201 0.28558 0.0
H1496 H 0.3746 0.90903 0.29552 0.0
H1497 H 0.33534 0.85579 0.33057 0.0
H1498 H 0.22647 0.83233 0.33499 0.0
H1499 H 0.26187 0.83553 0.32923 0.0
C1500 C 0.11724 0.50931 0.3109 0.0
C1501 C 0.12124 0.51541 0.29444 0.0
C1502 C 0.11998 0.49267 0.31677 0.0
C1503 C 0.12211 0.4454 0.30278 0.0
H1504 H 0.15147 0.45043 0.34393 0.0
C1505 C 0.15347 0.38884 0.31989 0.0
C1506 C 0.15071 0.38134 0.33594 0.0
C1507 C 0.14881 0.40477 0.31569 0.0
C1508 C 0.14296 0.44867 0.33253 0.0
H1509 H 0.13185 0.50919 0.27135 0.0
H1510 H 0.13652 0.48016 0.28154 0.0
H1511 H 0.14538 0.47921 0.33493 0.0
H1512 H 0.14129 0.38476 0.36031 0.0
H1513 H 0.13317 0.41291 0.35302 0.0
H1514 H 0.11981 0.415 0.30027 0.0
C1515 C 0.1309 0.48799 0.28986 0.0
C1516 C 0.1395 0.46515 0.32737 0.0
C1517 C 0.12822 0.50462 0.28402 0.0
C1518 C 0.14365 0.39039 0.34786 0.0
C1519 C 0.13898 0.40644 0.34367 0.0
C1520 C 0.12554 0.42896 0.30794 0.0
C1521 C 0.12671 0.48174 0.30628 0.0
C1522 C 0.12933 0.46382 0.31231 0.0
C1523 C 0.14136 0.41367 0.32748 0.0
C1524 C 0.13632 0.43053 0.32274 0.0
H1525 H 0.11159 0.51713 0.31921 0.0
H1526 H 0.11642 0.48809 0.32944 0.0
H1527 H 0.1138 0.44368 0.29129 0.0
H1528 H 0.15979 0.38276 0.31064 0.0
H1529 H 0.15141 0.41038 0.30322 0.0
C1530 C 0.38879 0.48721 0.30568 0.0
C1531 C 0.3959 0.50879 0.30852 0.0
C1532 C 0.36711 0.47175 0.30848 0.0
C1533 C 0.31745 0.46233 0.33061 0.0
H1534 H 0.28906 0.41416 0.3012 0.0
C1535 C 0.22487 0.40032 0.33238 0.0
C1536 C 0.21942 0.37896 0.33103 0.0
C1537 C 0.24646 0.41655 0.33031 0.0
C1538 C 0.29683 0.42742 0.30962 0.0
H1539 H 0.38606 0.53123 0.31634 0.0
H1540 H 0.34793 0.50425 0.32093 0.0
H1541 H 0.32637 0.4419 0.29593 0.0
H1542 H 0.23149 0.35756 0.32539 0.0
H1543 H 0.26927 0.38585 0.32173 0.0
H1544 H 0.28763 0.44777 0.34418 0.0
C1545 C 0.35915 0.49919 0.31682 0.0
C1546 C 0.31824 0.44332 0.30661 0.0
C1547 C 0.3809 0.51466 0.31407 0.0
C1548 C 0.23558 0.37398 0.32701 0.0
C1549 C 0.25708 0.39015 0.32474 0.0
C1550 C 0.29593 0.44644 0.33357 0.0
C1551 C 0.35199 0.47752 0.3141 0.0
C1552 C 0.32892 0.46092 0.31712 0.0
C1553 C 0.26275 0.41162 0.3263 0.0
C1554 C 0.28546 0.42874 0.32315 0.0
H1555 H 0.40006 0.48225 0.30148 0.0
H1556 H 0.3623 0.45521 0.30649 0.0
H1557 H 0.32524 0.47551 0.33909 0.0
H1558 H 0.2124 0.40442 0.33494 0.0
H1559 H 0.25028 0.43295 0.33136 0.0
C1560 C 0.50707 0.87177 0.29447 0.0
C1561 C 0.49665 0.87491 0.30784 0.0
C1562 C 0.52361 0.86672 0.29686 0.0
C1563 C 0.54889 0.84815 0.32827 0.0
H1564 H 0.59917 0.8755 0.29997 0.0
C1565 C 0.64439 0.86837 0.32593 0.0
C1566 C 0.64202 0.84898 0.3314 0.0
C1567 C 0.62608 0.87039 0.32266 0.0
C1568 C 0.58533 0.86782 0.30807 0.0
H1569 H 0.49546 0.87532 0.3342 0.0
H1570 H 0.52434 0.86673 0.33842 0.0
H1571 H 0.56827 0.88083 0.29527 0.0
H1572 H 0.61865 0.81606 0.33661 0.0
H1573 H 0.58658 0.81947 0.33086 0.0
H1574 H 0.56633 0.83571 0.34139 0.0
C1575 C 0.5195 0.86766 0.32605 0.0
C1576 C 0.56741 0.87064 0.30522 0.0
C1577 C 0.50296 0.87266 0.32365 0.0
C1578 C 0.62095 0.83137 0.33289 0.0
C1579 C 0.60258 0.83335 0.32957 0.0
C1580 C 0.56684 0.84534 0.33113 0.0
C1581 C 0.53027 0.86486 0.3127 0.0
C1582 C 0.54896 0.86097 0.31533 0.0
C1583 C 0.6049 0.85293 0.32448 0.0
C1584 C 0.5854 0.85527 0.32114 0.0
H1585 H 0.5027 0.87365 0.28217 0.0
H1586 H 0.53129 0.86443 0.28626 0.0
H1587 H 0.53492 0.84024 0.33623 0.0
H1588 H 0.66047 0.8821 0.32446 0.0
H1589 H 0.62857 0.88576 0.31894 0.0
C1590 C 0.10849 0.618 0.30671 0.0
C1591 C 0.12043 0.60962 0.31421 0.0
C1592 C 0.1145 0.63934 0.30896 0.0
C1593 C 0.16083 0.69151 0.32041 0.0
H1594 H 0.11601 0.70566 0.33031 0.0
C1595 C 0.18124 0.77526 0.34192 0.0
C1596 C 0.16798 0.78331 0.33631 0.0
C1597 C 0.17566 0.75422 0.33874 0.0
C1598 C 0.12871 0.70204 0.32733 0.0
H1599 H 0.1484 0.61692 0.32933 0.0
H1600 H 0.15898 0.65433 0.33335 0.0
H1601 H 0.10592 0.66869 0.32552 0.0
H1602 H 0.13879 0.77568 0.32247 0.0
H1603 H 0.12933 0.73916 0.31662 0.0
H1604 H 0.18362 0.72485 0.32212 0.0
C1605 C 0.14493 0.64442 0.3258 0.0
C1606 C 0.12291 0.68084 0.32461 0.0
C1607 C 0.13883 0.62304 0.32361 0.0
C1608 C 0.14928 0.76997 0.32711 0.0
C1609 C 0.14376 0.74896 0.32385 0.0
C1610 C 0.16662 0.71274 0.32304 0.0
C1611 C 0.13274 0.65276 0.31857 0.0
C1612 C 0.13891 0.67534 0.32118 0.0
C1613 C 0.1568 0.74077 0.32972 0.0
C1614 C 0.15064 0.71825 0.3266 0.0
H1615 H 0.09447 0.60801 0.29916 0.0
H1616 H 0.10501 0.6454 0.30302 0.0
H1617 H 0.17349 0.68779 0.31756 0.0
H1618 H 0.19599 0.78519 0.34877 0.0
H1619 H 0.18599 0.74842 0.34357 0.0
C1620 C 0.83527 0.05651 0.39145 0.0
C1621 C 0.85621 0.06495 0.38481 0.0
C1622 C 0.81977 0.03507 0.38917 0.0
C1623 C 0.80686 0.9895 0.36199 0.0
H1624 H 0.76545 0.95676 0.39577 0.0
C1625 C 0.74709 0.89942 0.35548 0.0
C1626 C 0.7254 0.89198 0.36018 0.0
C1627 C 0.76331 0.92023 0.35902 0.0
C1628 C 0.77679 0.96576 0.38617 0.0
H1629 H 0.87782 0.05757 0.37135 0.0
H1630 H 0.85088 0.01993 0.36753 0.0
H1631 H 0.7936 0.99344 0.40125 0.0
H1632 H 0.7039 0.90053 0.37273 0.0
H1633 H 0.73226 0.93687 0.37893 0.0
H1634 H 0.79007 0.9618 0.34693 0.0
C1635 C 0.84618 0.02995 0.37412 0.0
C1636 C 0.79292 0.98679 0.3893 0.0
C1637 C 0.86165 0.05143 0.37637 0.0
C1638 C 0.72041 0.90573 0.36887 0.0
C1639 C 0.73669 0.92654 0.37249 0.0
C1640 C 0.79079 0.96846 0.35889 0.0
C1641 C 0.82495 0.02155 0.38032 0.0
C1642 C 0.80812 0.99896 0.37722 0.0
C1643 C 0.7583 0.93408 0.36749 0.0
C1644 C 0.77552 0.95637 0.37092 0.0
H1645 H 0.83077 0.06661 0.39815 0.0
H1646 H 0.80356 0.02922 0.394 0.0
H1647 H 0.81801 0.99848 0.35229 0.0
H1648 H 0.75166 0.88915 0.34913 0.0
H1649 H 0.77986 0.92542 0.35525 0.0
C1650 C 0.96947 0.79769 0.40198 0.0
C1651 C 0.95509 0.79393 0.38892 0.0
C1652 C 0.9913 0.80365 0.3991 0.0
C1653 C 0.03424 0.82334 0.36677 0.0
H1654 H 0.05934 0.79772 0.39443 0.0
C1655 C 0.11118 0.80603 0.36791 0.0
C1656 C 0.12826 0.82571 0.36266 0.0
C1657 C 0.09058 0.80337 0.3711 0.0
C1658 C 0.05258 0.80493 0.3865 0.0
H1659 H 0.95228 0.79323 0.36262 0.0
H1660 H 0.99017 0.80337 0.35755 0.0
H1661 H 0.0228 0.7912 0.39992 0.0
H1662 H 0.13755 0.85841 0.35742 0.0
H1663 H 0.10146 0.85385 0.363 0.0
H1664 H 0.06388 0.83648 0.35303 0.0
C1665 C 0.98486 0.80229 0.37005 0.0
C1666 C 0.03166 0.80143 0.3898 0.0
C1667 C 0.96307 0.7964 0.37294 0.0
C1668 C 0.12449 0.8429 0.36103 0.0
C1669 C 0.10382 0.84027 0.36425 0.0
C1670 C 0.05521 0.82683 0.36344 0.0
C1671 C 0.99925 0.80575 0.38308 0.0
C1672 C 0.02208 0.81045 0.37994 0.0
C1673 C 0.08659 0.82046 0.3694 0.0
C1674 C 0.06459 0.81751 0.37319 0.0
H1675 H 0.96368 0.79561 0.41441 0.0
H1676 H 1.00189 0.80641 0.40947 0.0
H1677 H 0.02756 0.83077 0.35898 0.0
H1678 H 0.11374 0.79259 0.36944 0.0
H1679 H 0.07771 0.78782 0.37481 0.0
C1680 C 0.25252 0.18963 0.39237 0.0
C1681 C 0.24955 0.17342 0.38155 0.0
C1682 C 0.2462 0.20439 0.38793 0.0
C1683 C 0.21062 0.21279 0.35938 0.0
H1684 H 0.24785 0.27203 0.37121 0.0
C1685 C 0.19294 0.27914 0.33858 0.0
C1686 C 0.19498 0.29374 0.35072 0.0
C1687 C 0.20036 0.26477 0.34142 0.0
C1688 C 0.23721 0.25552 0.36791 0.0
H1689 H 0.23707 0.15937 0.35786 0.0
H1690 H 0.22628 0.18534 0.34993 0.0
H1691 H 0.25897 0.24611 0.37809 0.0
H1692 H 0.20687 0.3049 0.37524 0.0
H1693 H 0.21967 0.27992 0.38012 0.0
H1694 H 0.18882 0.22226 0.34925 0.0
C1695 C 0.23341 0.18667 0.36187 0.0
C1696 C 0.24355 0.24065 0.37189 0.0
C1697 C 0.23971 0.17189 0.36634 0.0
C1698 C 0.20497 0.29389 0.3656 0.0
C1699 C 0.21247 0.27964 0.36838 0.0
C1700 C 0.20429 0.22769 0.35537 0.0
C1701 C 0.23669 0.20317 0.37258 0.0
C1702 C 0.23023 0.21907 0.36782 0.0
C1703 C 0.21012 0.26481 0.35639 0.0
C1704 C 0.21742 0.24919 0.35974 0.0
H1705 H 0.25978 0.19088 0.40425 0.0
H1706 H 0.24856 0.21663 0.3966 0.0
H1707 H 0.19985 0.19626 0.35623 0.0
H1708 H 0.18533 0.27858 0.32698 0.0
H1709 H 0.19851 0.25366 0.33188 0.0
C1710 C 0.62106 0.49976 0.7173 0.0
C1711 C 0.61873 0.49678 0.73431 0.0
C1712 C 0.64015 0.51639 0.71063 0.0
C1713 C 0.68485 0.56941 0.71949 0.0
H1714 H 0.71859 0.55825 0.68788 0.0
C1715 C 0.77802 0.6146 0.69715 0.0
C1716 C 0.7808 0.63394 0.69125 0.0
C1717 C 0.75716 0.59755 0.70011 0.0
C1718 C 0.70919 0.56156 0.69659 0.0
H1719 H 0.63523 0.50898 0.75751 0.0
H1720 H 0.66793 0.53845 0.74585 0.0
H1721 H 0.68384 0.52886 0.69772 0.0
H1722 H 0.76437 0.65128 0.68466 0.0
H1723 H 0.72762 0.62138 0.69004 0.0
H1724 H 0.71017 0.60205 0.71842 0.0
C1725 C 0.6549 0.52781 0.73775 0.0
C1726 C 0.68935 0.54482 0.70216 0.0
C1727 C 0.63605 0.51096 0.74442 0.0
C1728 C 0.76247 0.63624 0.68875 0.0
C1729 C 0.74157 0.61924 0.69188 0.0
C1730 C 0.70443 0.58619 0.71367 0.0
C1731 C 0.65713 0.53067 0.72082 0.0
C1732 C 0.67723 0.54855 0.7139 0.0
C1733 C 0.73876 0.59978 0.69766 0.0
C1734 C 0.71695 0.58235 0.70239 0.0
H1735 H 0.60803 0.48948 0.70909 0.0
H1736 H 0.64146 0.51836 0.69752 0.0
H1737 H 0.67572 0.57268 0.72847 0.0
H1738 H 0.79204 0.61286 0.69988 0.0
H1739 H 0.75545 0.58286 0.70487 0.0
C1740 C 0.4998 0.10681 0.73974 0.0
C1741 C 0.52146 0.12363 0.73909 0.0
C1742 C 0.48262 0.10951 0.73422 0.0
C1743 C 0.46904 0.14434 0.70923 0.0
H1744 H 0.41627 0.11791 0.73502 0.0
C1745 C 0.3973 0.16131 0.69999 0.0
C1746 C 0.37611 0.14376 0.70095 0.0
C1747 C 0.41543 0.15912 0.70378 0.0
C1748 C 0.43076 0.1252 0.72755 0.0
H1749 H 0.54197 0.15643 0.73171 0.0
H1750 H 0.5119 0.16124 0.72218 0.0
H1751 H 0.44703 0.11376 0.74302 0.0
H1752 H 0.35719 0.11043 0.70721 0.0
H1753 H 0.38871 0.10648 0.71371 0.0
H1754 H 0.45261 0.15594 0.69384 0.0
C1755 C 0.50824 0.14584 0.72683 0.0
C1756 C 0.44847 0.1228 0.73213 0.0
C1757 C 0.52551 0.1431 0.73232 0.0
C1758 C 0.37337 0.12413 0.70613 0.0
C1759 C 0.39144 0.12193 0.70995 0.0
C1760 C 0.45127 0.1468 0.70465 0.0
C1761 C 0.4865 0.12915 0.72793 0.0
C1762 C 0.46783 0.13219 0.723 0.0
C1763 C 0.41272 0.13941 0.70891 0.0
C1764 C 0.43185 0.13714 0.71371 0.0
H1765 H 0.49609 0.09145 0.74453 0.0
H1766 H 0.46621 0.0961 0.73489 0.0
H1767 H 0.48356 0.15164 0.70179 0.0
H1768 H 0.39988 0.1768 0.69655 0.0
H1769 H 0.43154 0.17299 0.70306 0.0
C1770 C 0.88514 0.39411 0.72634 0.0
C1771 C 0.90648 0.40788 0.7318 0.0
C1772 C 0.87943 0.37399 0.72017 0.0
C1773 C 0.90176 0.34309 0.70152 0.0
H1774 H 0.85184 0.29391 0.72026 0.0
C1775 C 0.86806 0.25699 0.67765 0.0
C1776 C 0.86447 0.24179 0.68962 0.0
C1777 C 0.8728 0.27748 0.68208 0.0
C1778 C 0.8658 0.30752 0.71493 0.0
H1779 H 0.93874 0.41184 0.73463 0.0
H1780 H 0.92885 0.37682 0.72359 0.0
H1781 H 0.86076 0.32972 0.72884 0.0
H1782 H 0.86309 0.23596 0.7156 0.0
H1783 H 0.87109 0.27174 0.72339 0.0
H1784 H 0.90683 0.32088 0.68764 0.0
C1785 C 0.91653 0.3815 0.72418 0.0
C1786 C 0.87079 0.32796 0.71972 0.0
C1787 C 0.92214 0.40144 0.73058 0.0
C1788 C 0.8658 0.24742 0.70613 0.0
C1789 C 0.8702 0.2678 0.71058 0.0
C1790 C 0.89657 0.32265 0.69653 0.0
C1791 C 0.89507 0.3675 0.71909 0.0
C1792 C 0.88896 0.34592 0.7132 0.0
C1793 C 0.87376 0.28302 0.69859 0.0
C1794 C 0.87869 0.30468 0.70334 0.0
H1795 H 0.87277 0.3987 0.72723 0.0
H1796 H 0.86279 0.3635 0.71625 0.0
H1797 H 0.91581 0.35669 0.69626 0.0
H1798 H 0.86769 0.25324 0.66489 0.0
H1799 H 0.87551 0.28894 0.6726 0.0
C1800 C 0.17975 0.94502 0.62723 0.0
C1801 C 0.15802 0.94043 0.62621 0.0
C1802 C 0.1958 0.96427 0.63387 0.0
C1803 C 0.20959 0.01929 0.63947 0.0
H1804 H 0.25174 0.02184 0.67107 0.0
C1805 C 0.28983 0.0966 0.65466 0.0
C1806 C 0.29416 0.10142 0.6713 0.0
C1807 C 0.27286 0.07674 0.64969 0.0
C1808 C 0.24003 0.02134 0.66229 0.0
H1809 H 0.13592 0.95217 0.63144 0.0
H1810 H 0.16417 0.98617 0.64284 0.0
H1811 H 0.22216 0.98723 0.66189 0.0
H1812 H 0.28504 0.08898 0.69572 0.0
H1813 H 0.25544 0.05418 0.68709 0.0
H1814 H 0.2277 0.05339 0.63962 0.0
C1815 C 0.1687 0.97477 0.63856 0.0
C1816 C 0.2232 0.00158 0.65699 0.0
C1817 C 0.15255 0.95533 0.63216 0.0
C1818 C 0.28168 0.08586 0.68286 0.0
C1819 C 0.26493 0.06587 0.67791 0.0
C1820 C 0.22662 0.03904 0.64456 0.0
C1821 C 0.19049 0.97946 0.63941 0.0
C1822 C 0.20783 0.00037 0.64552 0.0
C1823 C 0.26019 0.06122 0.66127 0.0
C1824 C 0.24203 0.04025 0.656 0.0
H1825 H 0.18435 0.93373 0.6228 0.0
H1826 H 0.21248 0.96753 0.63428 0.0
H1827 H 0.19806 0.0188 0.63051 0.0
H1828 H 0.29924 0.10837 0.6455 0.0
H1829 H 0.26969 0.07348 0.63678 0.0
C1830 C 0.05144 0.19499 0.63382 0.0
C1831 C 0.06726 0.21386 0.62636 0.0
C1832 C 0.03179 0.19306 0.6394 0.0
C1833 C 0.99646 0.21697 0.63294 0.0
H1834 H 0.96683 0.18571 0.67184 0.0
C1835 C 0.92066 0.21776 0.65745 0.0
C1836 C 0.90318 0.19839 0.6628 0.0
C1837 C 0.94092 0.21962 0.65412 0.0
C1838 C 0.97483 0.19435 0.66087 0.0
H1839 H 0.07532 0.24593 0.61984 0.0
H1840 H 0.04147 0.24275 0.62972 0.0
H1841 H 1.00184 0.18906 0.66428 0.0
H1842 H 0.89289 0.16544 0.66807 0.0
H1843 H 0.92833 0.16868 0.6624 0.0
H1844 H 0.96958 0.22227 0.62947 0.0
C1845 C 0.04382 0.22914 0.63084 0.0
C1846 C 0.99491 0.19626 0.65652 0.0
C1847 C 0.06332 0.23101 0.62521 0.0
C1848 C 0.90625 0.18076 0.66448 0.0
C1849 C 0.92656 0.18262 0.66118 0.0
C1850 C 0.97651 0.21512 0.6373 0.0
C1851 C 0.02755 0.21001 0.63772 0.0
C1852 C 0.00606 0.20769 0.64251 0.0
C1853 C 0.94412 0.20204 0.65581 0.0
C1854 C 0.96543 0.20386 0.65134 0.0
H1855 H 0.05391 0.18144 0.63482 0.0
H1856 H 0.01965 0.17804 0.64453 0.0
H1857 H 1.0042 0.22544 0.62186 0.0
H1858 H 0.91864 0.23151 0.65584 0.0
H1859 H 0.95409 0.23487 0.65016 0.0
C1860 C 0.80877 0.85454 0.63696 0.0
C1861 C 0.78847 0.84905 0.63 0.0
C1862 C 0.81266 0.83883 0.64326 0.0
C1863 C 0.78541 0.78363 0.65836 0.0
H1864 H 0.83898 0.78534 0.64564 0.0
C1865 C 0.81205 0.72455 0.68256 0.0
C1866 C 0.81924 0.71576 0.67052 0.0
C1867 C 0.80831 0.74128 0.67872 0.0
C1868 C 0.82395 0.78466 0.6493 0.0
H1869 H 0.75614 0.82291 0.62458 0.0
H1870 H 0.76299 0.79542 0.6355 0.0
H1871 H 0.8322 0.81373 0.63701 0.0
H1872 H 0.82898 0.7179 0.64531 0.0
H1873 H 0.82221 0.74684 0.63851 0.0
H1874 H 0.77706 0.75431 0.67042 0.0
C1875 C 0.77586 0.81188 0.63613 0.0
C1876 C 0.82016 0.801 0.64448 0.0
C1877 C 0.77202 0.82757 0.62972 0.0
C1878 C 0.82285 0.72403 0.65468 0.0
C1879 C 0.81933 0.74082 0.65087 0.0
C1880 C 0.78931 0.76735 0.66331 0.0
C1881 C 0.79628 0.81732 0.64284 0.0
C1882 C 0.80074 0.80054 0.64879 0.0
C1883 C 0.81205 0.74965 0.66284 0.0
C1884 C 0.80848 0.76757 0.65862 0.0
H1885 H 0.82179 0.87095 0.63726 0.0
H1886 H 0.82851 0.84351 0.64846 0.0
H1887 H 0.77039 0.78297 0.66198 0.0
H1888 H 0.80909 0.71834 0.69485 0.0
H1889 H 0.80281 0.74788 0.6882 0.0
C1890 C 0.05646 0.82129 0.63869 0.0
C1891 C 0.06333 0.84292 0.64098 0.0
C1892 C 0.03497 0.80573 0.64197 0.0
C1893 C 0.98555 0.79646 0.66444 0.0
H1894 H 0.95702 0.74738 0.63589 0.0
C1895 C 0.89303 0.7343 0.6669 0.0
C1896 C 0.88754 0.7129 0.66571 0.0
C1897 C 0.91464 0.75048 0.66481 0.0
C1898 C 0.96483 0.76088 0.64408 0.0
H1899 H 0.05329 0.8653 0.64857 0.0
H1900 H 0.01547 0.83814 0.65398 0.0
H1901 H 0.99415 0.77513 0.63013 0.0
H1902 H 0.89956 0.6914 0.66036 0.0
H1903 H 0.93738 0.71959 0.65669 0.0
H1904 H 0.95592 0.78214 0.67825 0.0
C1905 C 0.02674 0.83314 0.64986 0.0
C1906 C 0.98615 0.7768 0.6408 0.0
C1907 C 0.0483 0.84871 0.64663 0.0
C1908 C 0.90369 0.70784 0.66187 0.0
C1909 C 0.92521 0.72396 0.65959 0.0
C1910 C 0.96412 0.78054 0.66768 0.0
C1911 C 0.01979 0.81143 0.64758 0.0
C1912 C 0.99686 0.79475 0.65097 0.0
C1913 C 0.93092 0.74547 0.66093 0.0
C1914 C 0.95359 0.76252 0.65757 0.0
H1915 H 0.06779 0.81638 0.63451 0.0
H1916 H 0.03035 0.78919 0.64034 0.0
H1917 H 0.99337 0.8099 0.67267 0.0
H1918 H 0.88057 0.73846 0.66932 0.0
H1919 H 0.91848 0.76689 0.66569 0.0
C1920 C 0.17445 0.20606 0.62784 0.0
C1921 C 0.16389 0.20901 0.64121 0.0
C1922 C 0.19096 0.20098 0.63022 0.0
C1923 C 0.21594 0.18195 0.66151 0.0
H1924 H 0.26656 0.20987 0.63359 0.0
C1925 C 0.31154 0.20242 0.6596 0.0
C1926 C 0.30915 0.18296 0.66487 0.0
C1927 C 0.29324 0.20444 0.6563 0.0
C1928 C 0.25262 0.20202 0.64158 0.0
H1929 H 0.16241 0.209 0.66756 0.0
H1930 H 0.19125 0.20034 0.67177 0.0
H1931 H 0.23566 0.2152 0.62885 0.0
H1932 H 0.28578 0.14992 0.66971 0.0
H1933 H 0.25373 0.15334 0.66391 0.0
H1934 H 0.23328 0.16933 0.67456 0.0
C1935 C 0.18654 0.20147 0.6594 0.0
C1936 C 0.23471 0.20485 0.63871 0.0
C1937 C 0.17002 0.20651 0.657 0.0
C1938 C 0.28808 0.16528 0.66614 0.0
C1939 C 0.26973 0.16727 0.6628 0.0
C1940 C 0.23389 0.17913 0.66439 0.0
C1941 C 0.19746 0.19889 0.64605 0.0
C1942 C 0.21614 0.19498 0.64869 0.0
C1943 C 0.27205 0.18692 0.6579 0.0
C1944 C 0.25256 0.18926 0.65453 0.0
H1945 H 0.1702 0.20812 0.61554 0.0
H1946 H 0.19876 0.19885 0.61962 0.0
H1947 H 0.20189 0.17389 0.66937 0.0
H1948 H 0.32762 0.2162 0.6583 0.0
H1949 H 0.29573 0.21987 0.65273 0.0
C1950 C 0.80473 0.95617 0.65633 0.0
C1951 C 0.78617 0.9428 0.64706 0.0
C1952 C 0.81094 0.97757 0.65856 0.0
C1953 C 0.78906 0.01409 0.65785 0.0
H1954 H 0.84975 0.05802 0.65492 0.0
C1955 C 0.81559 0.10322 0.66052 0.0
C1956 C 0.83441 0.11654 0.66962 0.0
C1957 C 0.81001 0.0822 0.65721 0.0
C1958 C 0.83276 0.04593 0.65597 0.0
H1959 H 0.76003 0.94128 0.63228 0.0
H1960 H 0.77078 0.97871 0.63622 0.0
H1961 H 0.83948 0.02094 0.65025 0.0
H1962 H 0.86258 0.11839 0.6818 0.0
H1963 H 0.85247 0.08161 0.67651 0.0
H1964 H 0.78231 0.03895 0.66379 0.0
C1965 C 0.78031 0.9726 0.64202 0.0
C1966 C 0.82689 0.0247 0.65326 0.0
C1967 C 0.77419 0.95124 0.63973 0.0
C1968 C 0.84773 0.10847 0.67505 0.0
C1969 C 0.84209 0.08743 0.67181 0.0
C1970 C 0.79493 0.0353 0.66063 0.0
C1971 C 0.79871 0.98597 0.65151 0.0
C1972 C 0.80497 0.00856 0.65419 0.0
C1973 C 0.8231 0.074 0.66291 0.0
C1974 C 0.81686 0.05148 0.65974 0.0
H1975 H 0.81432 0.94999 0.66192 0.0
H1976 H 0.82511 0.98745 0.66601 0.0
H1977 H 0.77207 0.00197 0.65888 0.0
H1978 H 0.80505 0.10894 0.65602 0.0
H1979 H 0.79548 0.07242 0.65007 0.0
C1980 C 0.52821 0.38443 0.71046 0.0
C1981 C 0.52351 0.3985 0.71888 0.0
C1982 C 0.51229 0.36303 0.70861 0.0
C1983 C 0.45277 0.32792 0.70824 0.0
H1984 H 0.46671 0.2827 0.71187 0.0
C1985 C 0.38649 0.23928 0.70323 0.0
C1986 C 0.39181 0.22589 0.69441 0.0
C1987 C 0.40255 0.26006 0.70718 0.0
C1988 C 0.46258 0.29515 0.71064 0.0
H1989 H 0.49897 0.40119 0.73266 0.0
H1990 H 0.47104 0.36378 0.72943 0.0
H1991 H 0.49489 0.31941 0.71711 0.0
H1992 H 0.41843 0.22367 0.68336 0.0
H1993 H 0.44616 0.25997 0.68973 0.0
H1994 H 0.42059 0.3038 0.7015 0.0
C1995 C 0.48689 0.36932 0.72399 0.0
C1996 C 0.47874 0.31619 0.71368 0.0
C1997 C 0.50285 0.39069 0.7259 0.0
C1998 C 0.41363 0.23364 0.68989 0.0
C1999 C 0.42964 0.25442 0.69376 0.0
C2000 C 0.43664 0.30691 0.70513 0.0
C2001 C 0.49134 0.35529 0.71517 0.0
C2002 C 0.47404 0.33283 0.71245 0.0
C2003 C 0.42431 0.26795 0.70241 0.0
C2004 C 0.44135 0.29025 0.70621 0.0
H2005 H 0.54411 0.39011 0.70508 0.0
H2006 H 0.5162 0.35268 0.70167 0.0
H2007 H 0.44869 0.3404 0.70696 0.0
H2008 H 0.3699 0.2338 0.70704 0.0
H2009 H 0.39791 0.2699 0.71409 0.0
C2010 C 0.637 0.14724 0.71591 0.0
C2011 C 0.62188 0.12732 0.72235 0.0
C2012 C 0.65875 0.15259 0.71342 0.0
C2013 C 0.69961 0.13637 0.72484 0.0
H2014 H 0.72908 0.16678 0.6856 0.0
C2015 C 0.77813 0.13959 0.70212 0.0
C2016 C 0.79502 0.15909 0.69639 0.0
C2017 C 0.75759 0.137 0.70548 0.0
C2018 C 0.72116 0.15848 0.6967 0.0
H2019 H 0.61779 0.0976 0.7316 0.0
H2020 H 0.65545 0.10664 0.72708 0.0
H2021 H 0.69231 0.16003 0.69138 0.0
H2022 H 0.80404 0.19155 0.69047 0.0
H2023 H 0.76789 0.18695 0.69608 0.0
H2024 H 0.72825 0.13443 0.72997 0.0
C2025 C 0.65075 0.11836 0.7241 0.0
C2026 C 0.70006 0.15464 0.70006 0.0
C2027 C 0.62908 0.11308 0.72663 0.0
C2028 C 0.79111 0.17616 0.69442 0.0
C2029 C 0.77045 0.17354 0.69769 0.0
C2030 C 0.72057 0.14008 0.72143 0.0
C2031 C 0.66591 0.13813 0.71733 0.0
C2032 C 0.68888 0.14332 0.71411 0.0
C2033 C 0.75346 0.15392 0.70335 0.0
C2034 C 0.73155 0.15099 0.70725 0.0
H2035 H 0.63186 0.15853 0.71256 0.0
H2036 H 0.66995 0.16808 0.70843 0.0
H2037 H 0.69182 0.12805 0.73596 0.0
H2038 H 0.7808 0.12626 0.70395 0.0
H2039 H 0.74486 0.12163 0.70967 0.0
C2040 C 0.89549 0.49985 0.7094 0.0
C2041 C 0.91709 0.50651 0.71396 0.0
C2042 C 0.88934 0.51475 0.70497 0.0
C2043 C 0.90683 0.57187 0.70921 0.0
H2044 H 0.86373 0.55936 0.67533 0.0
C2045 C 0.8654 0.6221 0.70097 0.0
C2046 C 0.86105 0.62635 0.6851 0.0
C2047 C 0.87295 0.60788 0.70362 0.0
C2048 C 0.87597 0.56321 0.68469 0.0
H2049 H 0.94942 0.53379 0.71676 0.0
H2050 H 0.93885 0.55983 0.70878 0.0
H2051 H 0.87587 0.53391 0.68117 0.0
H2052 H 0.86135 0.61892 0.65952 0.0
H2053 H 0.87492 0.59427 0.66415 0.0
H2054 H 0.90728 0.60132 0.71254 0.0
C2055 C 0.92647 0.54317 0.70906 0.0
C2056 C 0.88272 0.54849 0.68819 0.0
C2057 C 0.93257 0.52828 0.71357 0.0
C2058 C 0.86451 0.61602 0.6719 0.0
C2059 C 0.87217 0.60179 0.67456 0.0
C2060 C 0.90015 0.5866 0.70567 0.0
C2061 C 0.90474 0.53662 0.70481 0.0
C2062 C 0.8981 0.55256 0.7006 0.0
C2063 C 0.87649 0.59757 0.69047 0.0
C2064 C 0.88446 0.58236 0.6935 0.0
H2065 H 0.88334 0.4831 0.7094 0.0
H2066 H 0.87243 0.50912 0.70194 0.0
H2067 H 0.91852 0.57548 0.71895 0.0
H2068 H 0.86282 0.62961 0.71147 0.0
H2069 H 0.87569 0.60472 0.71605 0.0
C2070 C 0.43831 0.89812 0.2334 0.0
C2071 C 0.45352 0.90252 0.24601 0.0
C2072 C 0.44501 0.90801 0.21819 0.0
C2073 C 0.49009 0.95543 0.19859 0.0
H2074 H 0.46467 0.92477 0.15838 0.0
C2075 C 0.52432 0.99334 0.13617 0.0
C2076 C 0.50939 0.99036 0.12368 0.0
C2077 C 0.51735 0.98169 0.15062 0.0
C2078 C 0.47177 0.93363 0.1695 0.0
H2079 H 0.48779 0.92074 0.25237 0.0
H2080 H 0.49951 0.93766 0.2258 0.0
H2081 H 0.45293 0.90625 0.18445 0.0
H2082 H 0.47542 0.97236 0.11652 0.0
H2083 H 0.46318 0.952 0.14184 0.0
H2084 H 0.50883 0.98281 0.18374 0.0
C2085 C 0.48233 0.92674 0.22773 0.0
C2086 C 0.46505 0.923 0.18446 0.0
C2087 C 0.47564 0.91684 0.24292 0.0
C2088 C 0.48736 0.97494 0.12584 0.0
C2089 C 0.48036 0.96327 0.14037 0.0
C2090 C 0.49679 0.96603 0.18367 0.0
C2091 C 0.46709 0.92258 0.21519 0.0
C2092 C 0.47418 0.93376 0.1992 0.0
C2093 C 0.49524 0.96673 0.15305 0.0
C2094 C 0.48781 0.95528 0.16891 0.0
H2095 H 0.42117 0.88699 0.23527 0.0
H2096 H 0.43279 0.90453 0.20889 0.0
H2097 H 0.49716 0.96436 0.20969 0.0
H2098 H 0.54148 0.00475 0.13478 0.0
H2099 H 0.52937 0.98443 0.15993 0.0
C2100 C 0.08042 0.55263 0.24742 0.0
C2101 C 0.0952 0.54531 0.25012 0.0
C2102 C 0.07068 0.55033 0.23214 0.0
C2103 C 0.07609 0.54003 0.18853 0.0
H2104 H 0.01513 0.52429 0.18656 0.0
C2105 C 0.02456 0.51153 0.12935 0.0
C2106 C 0.01044 0.51954 0.1262 0.0
C2107 C 0.03557 0.51555 0.14425 0.0
C2108 C 0.03223 0.5289 0.18691 0.0
H2109 H 0.11163 0.5302 0.2387 0.0
H2110 H 0.09412 0.52555 0.21226 0.0
H2111 H 0.033 0.52957 0.21296 0.0
H2112 H 0.99738 0.53861 0.13616 0.0
H2113 H 0.01635 0.54531 0.16222 0.0
H2114 H 0.07511 0.53896 0.16242 0.0
C2115 C 0.09027 0.53336 0.22188 0.0
C2116 C 0.0425 0.53198 0.20204 0.0
C2117 C 0.1001 0.53576 0.23713 0.0
C2118 C 0.00779 0.53184 0.13828 0.0
C2119 C 0.01869 0.53574 0.1532 0.0
C2120 C 0.06576 0.53681 0.17339 0.0
C2121 C 0.07538 0.54055 0.2192 0.0
C2122 C 0.06456 0.53758 0.20305 0.0
C2123 C 0.03262 0.52755 0.15638 0.0
C2124 C 0.04372 0.53121 0.17242 0.0
H2125 H 0.07609 0.55987 0.25718 0.0
H2126 H 0.05951 0.55631 0.23047 0.0
H2127 H 0.09318 0.54467 0.18883 0.0
H2128 H 0.02674 0.50174 0.12044 0.0
H2129 H 0.04601 0.50882 0.14643 0.0
C2130 C 0.45595 0.54373 0.236 0.0
C2131 C 0.47152 0.55304 0.24855 0.0
C2132 C 0.46188 0.53959 0.22075 0.0
C2133 C 0.50962 0.55807 0.19437 0.0
H2134 H 0.47544 0.50497 0.17103 0.0
C2135 C 0.54296 0.53764 0.1376 0.0
C2136 C 0.52859 0.52647 0.12473 0.0
C2137 C 0.53513 0.5407 0.15235 0.0
C2138 C 0.48501 0.52002 0.17726 0.0
H2139 H 0.50523 0.56412 0.25513 0.0
H2140 H 0.51555 0.55723 0.22852 0.0
H2141 H 0.46307 0.51009 0.19755 0.0
H2142 H 0.49459 0.50977 0.11738 0.0
H2143 H 0.48099 0.51572 0.14298 0.0
H2144 H 0.53142 0.56823 0.17415 0.0
C2145 C 0.49887 0.55346 0.2304 0.0
C2146 C 0.47794 0.5229 0.19248 0.0
C2147 C 0.49294 0.55743 0.24564 0.0
C2148 C 0.50616 0.51864 0.12696 0.0
C2149 C 0.49833 0.5218 0.14173 0.0
C2150 C 0.51659 0.55528 0.17914 0.0
C2151 C 0.4835 0.5448 0.21771 0.0
C2152 C 0.49034 0.54186 0.20128 0.0
C2153 C 0.51272 0.53285 0.15463 0.0
C2154 C 0.50455 0.53612 0.17047 0.0
H2155 H 0.43936 0.54031 0.23778 0.0
H2156 H 0.44971 0.53298 0.21117 0.0
H2157 H 0.5193 0.57302 0.20072 0.0
H2158 H 0.56035 0.54417 0.13627 0.0
H2159 H 0.5467 0.54901 0.16206 0.0
C2160 C 0.95543 0.45332 0.78193 0.0
C2161 C 0.93997 0.4594 0.77792 0.0
C2162 C 0.96433 0.45673 0.79758 0.0
C2163 C 0.97445 0.48815 0.83499 0.0
H2164 H 0.97634 0.44075 0.85523 0.0
C2165 C 1.00131 0.49063 0.90217 0.0
C2166 C 0.01443 0.48155 0.90552 0.0
C2167 C 0.99147 0.48801 0.88687 0.0
C2168 C 0.9762 0.45425 0.84971 0.0
H2169 H 0.92224 0.47441 0.78719 0.0
H2170 H 0.93814 0.4807 0.81453 0.0
H2171 H 0.9614 0.4368 0.82786 0.0
H2172 H 0.0271 0.46223 0.89543 0.0
H2173 H 0.01064 0.45829 0.86871 0.0
H2174 H 0.98963 0.50574 0.85673 0.0
C2175 C 0.9433 0.47326 0.80548 0.0
C2176 C 0.96759 0.45195 0.83403 0.0
C2177 C 0.93424 0.46971 0.78981 0.0
C2178 C 0.01735 0.46969 0.89323 0.0
C2179 C 0.00763 0.46718 0.87795 0.0
C2180 C 0.98325 0.49051 0.85067 0.0
C2181 C 0.95814 0.46646 0.80959 0.0
C2182 C 0.96678 0.46892 0.82644 0.0
C2183 C 0.99456 0.47629 0.87455 0.0
C2184 C 0.98439 0.47363 0.85817 0.0
H2185 H 0.9606 0.44579 0.77297 0.0
H2186 H 0.97607 0.4517 0.8003 0.0
H2187 H 0.97416 0.50154 0.8294 0.0
H2188 H 0.99888 0.50003 0.91129 0.0
H2189 H 0.98133 0.49507 0.88475 0.0
C2190 C 0.56371 0.48713 0.78343 0.0
C2191 C 0.56371 0.46822 0.77967 0.0
C2192 C 0.55661 0.48985 0.79866 0.0
C2193 C 0.52357 0.4596 0.83421 0.0
H2194 H 0.55323 0.51473 0.85545 0.0
C2195 C 0.52454 0.50131 0.90002 0.0
C2196 C 0.50198 0.49214 0.90253 0.0
C2197 C 0.53253 0.49796 0.88541 0.0
C2198 C 0.54489 0.49916 0.84978 0.0
H2199 H 0.55657 0.43747 0.78905 0.0
H2200 H 0.54433 0.44224 0.81565 0.0
H2201 H 0.56657 0.50976 0.82942 0.0
H2202 H 0.47017 0.47177 0.89175 0.0
H2203 H 0.48408 0.46638 0.86619 0.0
H2204 H 0.50215 0.44889 0.8547 0.0
C2205 C 0.54944 0.45484 0.80674 0.0
C2206 C 0.55237 0.49639 0.83473 0.0
C2207 C 0.55647 0.4521 0.79149 0.0
C2208 C 0.48764 0.47932 0.89015 0.0
C2209 C 0.49563 0.476 0.87556 0.0
C2210 C 0.51612 0.46236 0.84926 0.0
C2211 C 0.5494 0.47375 0.81052 0.0
C2212 C 0.54173 0.4766 0.82671 0.0
C2213 C 0.51817 0.48535 0.87296 0.0
C2214 C 0.5266 0.48221 0.8572 0.0
H2215 H 0.5689 0.49973 0.77451 0.0
H2216 H 0.55645 0.50447 0.80104 0.0
H2217 H 0.51484 0.4442 0.82832 0.0
H2218 H 0.53606 0.51142 0.90922 0.0
H2219 H 0.54999 0.5052 0.8839 0.0
C2220 C 0.55286 0.0778 0.7845 0.0
C2221 C 0.54923 0.0951 0.78311 0.0
C2222 C 0.54838 0.06637 0.7991 0.0
C2223 C 0.54221 0.06987 0.84325 0.0
H2224 H 0.50576 0.00856 0.8412 0.0
C2225 C 0.50646 0.01886 0.90148 0.0
C2226 C 0.50279 0.99795 0.90154 0.0
C2227 C 0.51331 0.03114 0.88725 0.0
C2228 C 0.51632 0.02561 0.84207 0.0
H2229 H 0.5387 0.11443 0.79607 0.0
H2230 H 0.53126 0.09471 0.82169 0.0
H2231 H 0.51615 0.0292 0.81614 0.0
H2232 H 0.50427 0.97381 0.88699 0.0
H2233 H 0.51709 0.99538 0.86242 0.0
H2234 H 0.5429 0.0664 0.8691 0.0
C2235 C 0.53741 0.08989 0.81144 0.0
C2236 C 0.52217 0.03745 0.82764 0.0
C2237 C 0.54153 0.10107 0.79676 0.0
C2238 C 0.50672 0.9898 0.88723 0.0
C2239 C 0.51392 0.00217 0.8731 0.0
C2240 C 0.53667 0.05801 0.85769 0.0
C2241 C 0.54054 0.07226 0.81272 0.0
C2242 C 0.53505 0.05971 0.82807 0.0
C2243 C 0.517 0.02293 0.87277 0.0
C2244 C 0.5235 0.03568 0.85735 0.0
H2245 H 0.55869 0.07278 0.77416 0.0
H2246 H 0.55106 0.05293 0.79977 0.0
H2247 H 0.55233 0.08701 0.84394 0.0
H2248 H 0.50336 0.02547 0.91231 0.0
H2249 H 0.51511 0.04686 0.88753 0.0
C2250 C 0.12835 0.22853 0.56814 0.0
C2251 C 0.11999 0.23679 0.57978 0.0
C2252 C 0.13446 0.23773 0.55265 0.0
C2253 C 0.12624 0.27254 0.52373 0.0
H2254 H 0.17936 0.28024 0.50399 0.0
C2255 C 0.1891 0.32489 0.46922 0.0
C2256 C 0.17435 0.32218 0.45665 0.0
C2257 C 0.18193 0.31285 0.48349 0.0
C2258 C 0.1645 0.27826 0.50934 0.0
H2259 H 0.11207 0.26165 0.5843 0.0
H2260 H 0.12264 0.27761 0.55738 0.0
H2261 H 0.16811 0.26292 0.53048 0.0
H2262 H 0.14048 0.30431 0.44919 0.0
H2263 H 0.12796 0.28307 0.47409 0.0
H2264 H 0.12294 0.28838 0.5028 0.0
C2265 C 0.1241 0.26375 0.56009 0.0
C2266 C 0.15793 0.26813 0.52447 0.0
C2267 C 0.11804 0.25459 0.57556 0.0
C2268 C 0.15229 0.30674 0.45859 0.0
C2269 C 0.14508 0.29472 0.47293 0.0
C2270 C 0.13278 0.28261 0.50858 0.0
C2271 C 0.13233 0.25542 0.54841 0.0
C2272 C 0.13883 0.26534 0.53195 0.0
C2273 C 0.1598 0.29776 0.48563 0.0
C2274 C 0.15212 0.28582 0.50126 0.0
H2275 H 0.12982 0.21468 0.57088 0.0
H2276 H 0.14051 0.23076 0.5439 0.0
H2277 H 0.11129 0.27041 0.52902 0.0
H2278 H 0.20626 0.33644 0.46805 0.0
H2279 H 0.19371 0.31578 0.49304 0.0
C2280 C 0.74497 0.88193 0.5815 0.0
C2281 C 0.76004 0.87505 0.58451 0.0
C2282 C 0.7351 0.87896 0.56621 0.0
C2283 C 0.74093 0.86791 0.5229 0.0
H2284 H 0.68013 0.85265 0.52041 0.0
C2285 C 0.69031 0.84112 0.46312 0.0
C2286 C 0.67673 0.84975 0.46 0.0
C2287 C 0.70097 0.84448 0.47814 0.0
C2288 C 0.69718 0.85709 0.52091 0.0
H2289 H 0.77672 0.85984 0.57364 0.0
H2290 H 0.75895 0.85398 0.54718 0.0
H2291 H 0.69757 0.85765 0.54695 0.0
H2292 H 0.6643 0.86927 0.47012 0.0
H2293 H 0.68259 0.8748 0.49636 0.0
H2294 H 0.74033 0.867 0.49679 0.0
C2295 C 0.755 0.862 0.55657 0.0
C2296 C 0.7072 0.86002 0.53612 0.0
C2297 C 0.76497 0.86509 0.57184 0.0
C2298 C 0.67427 0.86201 0.47221 0.0
C2299 C 0.68478 0.86523 0.48724 0.0
C2300 C 0.73084 0.86482 0.50768 0.0
C2301 C 0.73994 0.8689 0.55356 0.0
C2302 C 0.72924 0.86556 0.53733 0.0
C2303 C 0.69816 0.85642 0.4904 0.0
C2304 C 0.70888 0.85948 0.50653 0.0
H2305 H 0.7406 0.88945 0.59101 0.0
H2306 H 0.7238 0.88473 0.56429 0.0
H2307 H 0.758 0.87249 0.52335 0.0
H2308 H 0.69235 0.83135 0.4541 0.0
H2309 H 0.71101 0.83731 0.48029 0.0
C2310 C 0.1426 0.90645 0.56652 0.0
C2311 C 0.13446 0.89075 0.57868 0.0
C2312 C 0.14826 0.90225 0.55125 0.0
C2313 C 0.14222 0.85876 0.52385 0.0
H2314 H 0.19535 0.90388 0.50496 0.0
C2315 C 0.17171 0.85232 0.45933 0.0
C2316 C 0.19423 0.86051 0.45731 0.0
C2317 C 0.16355 0.85576 0.47383 0.0
C2318 C 0.18057 0.89103 0.5101 0.0
H2319 H 0.12536 0.85817 0.58425 0.0
H2320 H 0.13559 0.85086 0.55761 0.0
H2321 H 0.1825 0.90983 0.53075 0.0
H2322 H 0.2258 0.879 0.46896 0.0
H2323 H 0.2116 0.88446 0.49431 0.0
H2324 H 0.14077 0.83973 0.50339 0.0
C2325 C 0.1373 0.86635 0.55979 0.0
C2326 C 0.17301 0.89455 0.52481 0.0
C2327 C 0.13148 0.87052 0.57507 0.0
C2328 C 0.20836 0.87223 0.47014 0.0
C2329 C 0.20021 0.87561 0.48463 0.0
C2330 C 0.14985 0.85521 0.50913 0.0
C2331 C 0.14609 0.88228 0.54777 0.0
C2332 C 0.15376 0.87847 0.53191 0.0
C2333 C 0.17772 0.86746 0.48666 0.0
C2334 C 0.16919 0.87128 0.50211 0.0
H2335 H 0.14469 0.92207 0.56885 0.0
H2336 H 0.15446 0.91474 0.54218 0.0
H2337 H 0.12723 0.84608 0.52888 0.0
H2338 H 0.16033 0.84303 0.44977 0.0
H2339 H 0.14616 0.84943 0.47491 0.0
C2340 C 0.61401 0.80883 0.11763 0.0
C2341 C 0.59575 0.78914 0.11365 0.0
C2342 C 0.62305 0.81253 0.1333 0.0
C2343 C 0.62568 0.7833 0.16935 0.0
H2344 H 0.65074 0.83844 0.19042 0.0
C2345 C 0.68061 0.80365 0.22605 0.0
C2346 C 0.67837 0.81578 0.23847 0.0
C2347 C 0.6699 0.80065 0.21114 0.0
C2348 C 0.64363 0.82289 0.18478 0.0
H2349 H 0.57196 0.75833 0.12316 0.0
H2350 H 0.58747 0.76486 0.15052 0.0
H2351 H 0.63241 0.83289 0.16414 0.0
H2352 H 0.66316 0.83439 0.24484 0.0
H2353 H 0.64399 0.82869 0.21892 0.0
H2354 H 0.63646 0.77314 0.19007 0.0
C2355 C 0.59521 0.77725 0.14146 0.0
C2356 C 0.63335 0.81978 0.16962 0.0
C2357 C 0.58628 0.77351 0.1258 0.0
C2358 C 0.66507 0.82478 0.2356 0.0
C2359 C 0.65429 0.82173 0.22067 0.0
C2360 C 0.63588 0.78639 0.1845 0.0
C2361 C 0.61393 0.79666 0.14535 0.0
C2362 C 0.62433 0.79996 0.16169 0.0
C2363 C 0.65657 0.80961 0.20826 0.0
C2364 C 0.64512 0.80625 0.19236 0.0
H2365 H 0.62175 0.8211 0.10848 0.0
H2366 H 0.6376 0.82758 0.13581 0.0
H2367 H 0.61918 0.76791 0.16353 0.0
H2368 H 0.69052 0.79628 0.2279 0.0
H2369 H 0.67226 0.79146 0.20179 0.0
C2370 C 0.2233 0.78591 0.12435 0.0
C2371 C 0.2307 0.80208 0.11256 0.0
C2372 C 0.21621 0.78865 0.13957 0.0
C2373 C 0.21918 0.83019 0.16759 0.0
H2374 H 0.1687 0.78274 0.18737 0.0
C2375 C 0.19111 0.83496 0.23282 0.0
C2376 C 0.16856 0.82584 0.23529 0.0
C2377 C 0.19913 0.83164 0.21821 0.0
C2378 C 0.18274 0.79621 0.18198 0.0
H2379 H 0.23611 0.83367 0.10743 0.0
H2380 H 0.22354 0.8384 0.13391 0.0
H2381 H 0.18149 0.77808 0.16102 0.0
H2382 H 0.13677 0.80564 0.22443 0.0
H2383 H 0.15072 0.80032 0.19886 0.0
H2384 H 0.22001 0.84849 0.18832 0.0
C2385 C 0.22363 0.82375 0.13153 0.0
C2386 C 0.19025 0.79346 0.16694 0.0
C2387 C 0.2308 0.82103 0.11633 0.0
C2388 C 0.15424 0.81313 0.22287 0.0
C2389 C 0.16225 0.80985 0.20827 0.0
C2390 C 0.21164 0.83295 0.18261 0.0
C2391 C 0.21626 0.80759 0.14335 0.0
C2392 C 0.20851 0.81044 0.15951 0.0
C2393 C 0.1848 0.81913 0.20571 0.0
C2394 C 0.19326 0.81602 0.18997 0.0
H2395 H 0.22333 0.77124 0.12191 0.0
H2396 H 0.21098 0.776 0.14846 0.0
H2397 H 0.23345 0.84354 0.16233 0.0
H2398 H 0.20262 0.84498 0.24207 0.0
H2399 H 0.21659 0.83883 0.21674 0.0
C2400 C 0.22908 0.43068 0.12767 0.0
C2401 C 0.21277 0.42545 0.11577 0.0
C2402 C 0.22424 0.41963 0.14249 0.0
C2403 C 0.17849 0.38834 0.17012 0.0
H2404 H 0.2145 0.36676 0.18791 0.0
C2405 C 0.14905 0.32921 0.22365 0.0
C2406 C 0.16425 0.32996 0.23512 0.0
C2407 C 0.15589 0.34178 0.20962 0.0
C2408 C 0.20443 0.37297 0.18329 0.0
H2409 H 0.17875 0.40366 0.11004 0.0
H2410 H 0.17031 0.38494 0.13594 0.0
H2411 H 0.22501 0.38694 0.16248 0.0
H2412 H 0.19876 0.34493 0.2407 0.0
H2413 H 0.21065 0.36747 0.21656 0.0
H2414 H 0.15808 0.37483 0.19091 0.0
C2415 C 0.18677 0.39776 0.13386 0.0
C2416 C 0.21045 0.38447 0.16867 0.0
C2417 C 0.19164 0.40859 0.11901 0.0
C2418 C 0.18653 0.34401 0.23226 0.0
C2419 C 0.19338 0.35675 0.21825 0.0
C2420 C 0.17261 0.37709 0.1848 0.0
C2421 C 0.20295 0.40325 0.14584 0.0
C2422 C 0.19736 0.39201 0.1618 0.0
C2423 C 0.17815 0.35575 0.20668 0.0
C2424 C 0.18528 0.36892 0.1915 0.0
H2425 H 0.24547 0.44367 0.12573 0.0
H2426 H 0.23703 0.42428 0.15152 0.0
H2427 H 0.16827 0.39428 0.1653 0.0
H2428 H 0.13173 0.31891 0.22549 0.0
H2429 H 0.14362 0.34024 0.20095 0.0
C2430 C 0.77253 0.56626 0.90154 0.0
C2431 C 0.78776 0.5707 0.91414 0.0
C2432 C 0.7792 0.57604 0.8863 0.0
C2433 C 0.82444 0.62314 0.86641 0.0
H2434 H 0.79827 0.59221 0.82643 0.0
C2435 C 0.85818 0.65997 0.80359 0.0
C2436 C 0.84312 0.6572 0.79127 0.0
C2437 C 0.85128 0.64853 0.81815 0.0
C2438 C 0.80559 0.60113 0.83749 0.0
H2439 H 0.82206 0.58891 0.92044 0.0
H2440 H 0.83374 0.60561 0.89381 0.0
H2441 H 0.7867 0.57397 0.85261 0.0
H2442 H 0.80897 0.63975 0.7845 0.0
H2443 H 0.79687 0.61971 0.80997 0.0
H2444 H 0.84327 0.65029 0.85135 0.0
C2445 C 0.81655 0.59476 0.89577 0.0
C2446 C 0.79896 0.59067 0.85251 0.0
C2447 C 0.80989 0.58497 0.91101 0.0
C2448 C 0.82102 0.64217 0.79368 0.0
C2449 C 0.81409 0.63068 0.80829 0.0
C2450 C 0.83107 0.63356 0.85142 0.0
C2451 C 0.80128 0.59054 0.88324 0.0
C2452 C 0.80834 0.60154 0.86718 0.0
C2453 C 0.82912 0.63396 0.82081 0.0
C2454 C 0.8218 0.6227 0.83674 0.0
H2455 H 0.75539 0.55514 0.90343 0.0
H2456 H 0.76695 0.57253 0.87702 0.0
H2457 H 0.83171 0.63216 0.87744 0.0
H2458 H 0.87539 0.67106 0.80201 0.0
H2459 H 0.86338 0.65111 0.82734 0.0
C2460 C 0.43318 0.20214 0.90449 0.0
C2461 C 0.42808 0.21163 0.91742 0.0
C2462 C 0.4234 0.19958 0.88921 0.0
C2463 C 0.37545 0.19759 0.86918 0.0
H2464 H 0.40827 0.20467 0.82966 0.0
C2465 C 0.34084 0.19695 0.8053 0.0
C2466 C 0.34361 0.18465 0.7933 0.0
C2467 C 0.35171 0.20096 0.82025 0.0
C2468 C 0.39886 0.20249 0.8406 0.0
H2469 H 0.4087 0.22596 0.9243 0.0
H2470 H 0.3922 0.22214 0.89754 0.0
H2471 H 0.4263 0.21068 0.85611 0.0
H2472 H 0.36009 0.16697 0.78768 0.0
H2473 H 0.3793 0.17426 0.81371 0.0
H2474 H 0.34807 0.18958 0.85363 0.0
C2475 C 0.40348 0.21631 0.89929 0.0
C2476 C 0.40917 0.20588 0.85576 0.0
C2477 C 0.41317 0.21876 0.9146 0.0
C2478 C 0.35781 0.17675 0.79653 0.0
C2479 C 0.36879 0.18089 0.81146 0.0
C2480 C 0.3652 0.19434 0.85403 0.0
C2481 C 0.40836 0.20657 0.88643 0.0
C2482 C 0.39756 0.2034 0.87025 0.0
C2483 C 0.36572 0.19289 0.82352 0.0
C2484 C 0.37677 0.19669 0.83958 0.0
H2485 H 0.44482 0.19672 0.90615 0.0
H2486 H 0.42738 0.1918 0.87966 0.0
H2487 H 0.36589 0.19515 0.88007 0.0
H2488 H 0.33038 0.20363 0.80311 0.0
H2489 H 0.34928 0.21054 0.82922 0.0
C2490 C 0.79015 0.21123 0.90236 0.0
C2491 C 0.80598 0.22068 0.91473 0.0
C2492 C 0.79583 0.20718 0.88697 0.0
C2493 C 0.84313 0.22583 0.86001 0.0
H2494 H 0.80905 0.17232 0.83717 0.0
C2495 C 0.8764 0.20465 0.80362 0.0
C2496 C 0.86203 0.19332 0.7908 0.0
C2497 C 0.86858 0.2079 0.81831 0.0
C2498 C 0.81858 0.18748 0.84326 0.0
H2499 H 0.83991 0.23216 0.92082 0.0
H2500 H 0.84979 0.22543 0.894 0.0
H2501 H 0.79686 0.1777 0.86369 0.0
H2502 H 0.82804 0.17651 0.78346 0.0
H2503 H 0.81443 0.18275 0.80895 0.0
H2504 H 0.86474 0.2358 0.83968 0.0
C2505 C 0.83309 0.22149 0.89611 0.0
C2506 C 0.81161 0.19052 0.85847 0.0
C2507 C 0.82741 0.22537 0.91148 0.0
C2508 C 0.8396 0.18549 0.79301 0.0
C2509 C 0.83177 0.18884 0.80771 0.0
C2510 C 0.85 0.22287 0.8448 0.0
C2511 C 0.81746 0.21263 0.88362 0.0
C2512 C 0.82401 0.20962 0.86711 0.0
C2513 C 0.84617 0.20007 0.82056 0.0
C2514 C 0.83801 0.20355 0.83632 0.0
H2515 H 0.77353 0.20756 0.90441 0.0
H2516 H 0.78345 0.2004 0.87755 0.0
H2517 H 0.8528 0.24089 0.86623 0.0
H2518 H 0.8938 0.21116 0.80231 0.0
H2519 H 0.88015 0.21636 0.82799 0.0
C2520 C 0.28633 0.11927 0.44905 0.0
C2521 C 0.27067 0.1251 0.44507 0.0
C2522 C 0.29537 0.1229 0.46467 0.0
C2523 C 0.30548 0.1548 0.50184 0.0
H2524 H 0.30953 0.1086 0.5222 0.0
C2525 C 0.33418 0.15906 0.5687 0.0
C2526 C 0.34803 0.15075 0.57188 0.0
C2527 C 0.32392 0.15594 0.55353 0.0
C2528 C 0.30876 0.12176 0.51664 0.0
H2529 H 0.25262 0.13977 0.45437 0.0
H2530 H 0.26873 0.1464 0.48165 0.0
H2531 H 0.29377 0.10377 0.49504 0.0
H2532 H 0.36159 0.13228 0.56162 0.0
H2533 H 0.34432 0.12742 0.53511 0.0
H2534 H 0.32083 0.17293 0.52334 0.0
C2535 C 0.27396 0.13902 0.47261 0.0
C2536 C 0.29969 0.11897 0.50108 0.0
C2537 C 0.26478 0.13526 0.45698 0.0
C2538 C 0.35127 0.13916 0.55955 0.0
C2539 C 0.3411 0.13611 0.54439 0.0
C2540 C 0.31471 0.15766 0.5174 0.0
C2541 C 0.28911 0.13258 0.47668 0.0
C2542 C 0.29813 0.1355 0.49344 0.0
C2543 C 0.32729 0.14445 0.54117 0.0
C2544 C 0.31664 0.14122 0.52493 0.0
H2545 H 0.29162 0.11186 0.44008 0.0
H2546 H 0.30734 0.11815 0.46734 0.0
H2547 H 0.30462 0.16787 0.4962 0.0
H2548 H 0.33149 0.16825 0.57786 0.0
H2549 H 0.31323 0.16241 0.55153 0.0
C2550 C 0.89611 0.15374 0.44967 0.0
C2551 C 0.8961 0.13481 0.44593 0.0
C2552 C 0.889 0.15649 0.46488 0.0
C2553 C 0.8559 0.1263 0.50042 0.0
H2554 H 0.88562 0.18144 0.52164 0.0
C2555 C 0.857 0.16799 0.56625 0.0
C2556 C 0.83445 0.15882 0.56879 0.0
C2557 C 0.86496 0.16466 0.55161 0.0
C2558 C 0.87726 0.16587 0.51598 0.0
H2559 H 0.88892 0.10407 0.45535 0.0
H2560 H 0.87667 0.10889 0.48192 0.0
H2561 H 0.89895 0.17644 0.49562 0.0
H2562 H 0.80262 0.13851 0.55804 0.0
H2563 H 0.81646 0.13316 0.53243 0.0
H2564 H 0.83447 0.11562 0.52091 0.0
C2565 C 0.88179 0.12148 0.473 0.0
C2566 C 0.88473 0.16308 0.50093 0.0
C2567 C 0.88883 0.11871 0.45777 0.0
C2568 C 0.82008 0.14605 0.55642 0.0
C2569 C 0.82803 0.14275 0.5418 0.0
C2570 C 0.84845 0.12909 0.51547 0.0
C2571 C 0.88177 0.1404 0.47675 0.0
C2572 C 0.87408 0.14329 0.49292 0.0
C2573 C 0.85057 0.15208 0.53917 0.0
C2574 C 0.85895 0.14894 0.5234 0.0
H2575 H 0.90132 0.16633 0.44073 0.0
H2576 H 0.88885 0.17111 0.46723 0.0
H2577 H 0.84715 0.1109 0.49454 0.0
H2578 H 0.86854 0.17806 0.57545 0.0
H2579 H 0.88241 0.17189 0.55008 0.0
C2580 C 0.8954 0.76314 0.46102 0.0
C2581 C 0.87915 0.75785 0.44908 0.0
C2582 C 0.89074 0.75163 0.47562 0.0
C2583 C 0.84929 0.70042 0.49463 0.0
H2584 H 0.87532 0.72965 0.5352 0.0
C2585 C 0.81639 0.66197 0.55722 0.0
C2586 C 0.83162 0.66315 0.56887 0.0
C2587 C 0.82322 0.67382 0.54284 0.0
C2588 C 0.86807 0.72125 0.52394 0.0
H2589 H 0.84529 0.73576 0.44317 0.0
H2590 H 0.83698 0.71651 0.46868 0.0
H2591 H 0.88528 0.74953 0.50964 0.0
H2592 H 0.86618 0.67833 0.57444 0.0
H2593 H 0.87801 0.69949 0.54948 0.0
H2594 H 0.83163 0.67229 0.50903 0.0
C2595 C 0.85348 0.72928 0.46673 0.0
C2596 C 0.87383 0.73261 0.50925 0.0
C2597 C 0.85818 0.74062 0.45212 0.0
C2598 C 0.85392 0.67711 0.5659 0.0
C2599 C 0.86074 0.6892 0.55155 0.0
C2600 C 0.84336 0.68916 0.50931 0.0
C2601 C 0.86966 0.73457 0.47872 0.0
C2602 C 0.86437 0.72239 0.49437 0.0
C2603 C 0.84547 0.68745 0.53976 0.0
C2604 C 0.85253 0.69945 0.52415 0.0
H2605 H 0.91169 0.77639 0.45922 0.0
H2606 H 0.90373 0.75607 0.48443 0.0
H2607 H 0.84204 0.6918 0.48346 0.0
H2608 H 0.79907 0.6519 0.5592 0.0
H2609 H 0.81102 0.67242 0.53414 0.0
loop_
_geom_bond_atom_site_label_1
_geom_bond_atom_site_label_2
_geom_bond_distance
_geom_bond_site_symmetry_2
_ccdc_geom_bond_type
H0 C7 0.929 . S
H1 C10 0.930 . S
H2 C12 0.929 . S
H3 C4 0.969 . S
C4 H3 0.969 . S
C4 O5 1.550 . S
C4 H6 0.973 . S
O5 C4 1.550 . S
O5 C11 1.412 . S
H6 C4 0.973 . S
C7 H0 0.929 . S
C7 C8 1.400 . S
C7 C9 1.364 . S
C8 C7 1.400 . S
C8 C12 1.377 . S
C9 C7 1.364 . S
C9 C10 1.374 . S
C10 H1 0.930 . S
C10 C9 1.374 . S
C10 C11 1.383 . S
C11 O5 1.412 . S
C11 C10 1.383 . S
C11 C12 1.394 . S
C12 H2 0.929 . S
C12 C8 1.377 . S
C12 C11 1.394 . S
H13 C20 0.929 . S
H14 C23 0.930 . S
H15 C25 0.929 . S
H16 C17 0.969 . S
C17 H16 0.969 . S
C17 O18 1.550 . S
C17 H19 0.973 . S
O18 C17 1.550 . S
O18 C24 1.412 . S
H19 C17 0.973 . S
C20 H13 0.929 . S
C20 C21 1.400 . S
C20 C22 1.364 . S
C21 C20 1.400 . S
C21 C25 1.377 . S
C22 C20 1.364 . S
C22 C23 1.374 . S
C23 H14 0.930 . S
C23 C22 1.374 . S
C23 C24 1.383 . S
C24 O18 1.412 . S
C24 C23 1.383 . S
C24 C25 1.394 . S
C25 H15 0.929 . S
C25 C21 1.377 . S
C25 C24 1.394 . S
H26 C33 0.929 . S
H27 C36 0.930 . S
H28 C38 0.929 . S
H29 C30 0.969 . S
C30 H29 0.969 . S
C30 O31 1.550 . S
C30 H32 0.973 . S
O31 C30 1.550 . S
O31 C37 1.412 . S
H32 C30 0.973 . S
C33 H26 0.929 . S
C33 C34 1.400 . S
C33 C35 1.364 . S
C34 C33 1.400 . S
C34 C38 1.377 . S
C35 C33 1.364 . S
C35 C36 1.374 . S
C36 H27 0.930 . S
C36 C35 1.374 . S
C36 C37 1.383 . S
C37 O31 1.412 . S
C37 C36 1.383 . S
C37 C38 1.394 . S
C38 H28 0.929 . S
C38 C34 1.377 . S
C38 C37 1.394 . S
H39 C46 0.929 . S
H40 C49 0.930 . S
H41 C51 0.929 . S
H42 C43 0.969 . S
C43 H42 0.969 . S
C43 O44 1.550 . S
C43 H45 0.973 . S
O44 C43 1.550 . S
O44 C50 1.412 . S
H45 C43 0.973 . S
C46 H39 0.929 . S
C46 C47 1.400 . S
C46 C48 1.364 . S
C47 C46 1.400 . S
C47 C51 1.377 . S
C48 C46 1.364 . S
C48 C49 1.374 . S
C49 H40 0.930 . S
C49 C48 1.374 . S
C49 C50 1.383 . S
C50 O44 1.412 . S
C50 C49 1.383 . S
C50 C51 1.394 . S
C51 H41 0.929 . S
C51 C47 1.377 . S
C51 C50 1.394 . S
H52 C59 0.929 . S
H53 C62 0.930 . S
H54 C64 0.929 . S
H55 C56 0.969 . S
C56 H55 0.969 . S
C56 O57 1.550 . S
C56 H58 0.973 . S
O57 C56 1.550 . S
O57 C63 1.412 . S
H58 C56 0.973 . S
C59 H52 0.929 . S
C59 C60 1.400 . S
C59 C61 1.364 . S
C60 C59 1.400 . S
C60 C64 1.377 . S
C61 C59 1.364 . S
C61 C62 1.374 . S
C62 H53 0.930 . S
C62 C61 1.374 . S
C62 C63 1.383 . S
C63 O57 1.412 . S
C63 C62 1.383 . S
C63 C64 1.394 . S
C64 H54 0.929 . S
C64 C60 1.377 . S
C64 C63 1.394 . S
H65 C72 0.929 . S
H66 C75 0.930 . S
H67 C77 0.929 . S
H68 C69 0.969 . S
C69 H68 0.969 . S
C69 O70 1.550 . S
C69 H71 0.973 . S
O70 C69 1.550 . S
O70 C76 1.412 . S
H71 C69 0.973 . S
C72 H65 0.929 . S
C72 C73 1.400 . S
C72 C74 1.364 . S
C73 C72 1.400 . S
C73 C77 1.377 . S
C74 C72 1.364 . S
C74 C75 1.374 . S
C75 H66 0.930 . S
C75 C74 1.374 . S
C75 C76 1.383 . S
C76 O70 1.412 . S
C76 C75 1.383 . S
C76 C77 1.394 . S
C77 H67 0.929 . S
C77 C73 1.377 . S
C77 C76 1.394 . S
H78 C85 0.929 . S
H79 C88 0.930 . S
H80 C90 0.929 . S
H81 C82 0.969 . S
C82 H81 0.969 . S
C82 O83 1.550 . S
C82 H84 0.973 . S
O83 C82 1.550 . S
O83 C89 1.412 . S
H84 C82 0.973 . S
C85 H78 0.929 . S
C85 C86 1.400 . S
C85 C87 1.364 . S
C86 C85 1.400 . S
C86 C90 1.377 . S
C87 C85 1.364 . S
C87 C88 1.374 . S
C88 H79 0.930 . S
C88 C87 1.374 . S
C88 C89 1.383 . S
C89 O83 1.412 . S
C89 C88 1.383 . S
C89 C90 1.394 . S
C90 H80 0.929 . S
C90 C86 1.377 . S
C90 C89 1.394 . S
H91 C98 0.929 . S
H92 C101 0.930 . S
H93 C103 0.929 . S
H94 C95 0.969 . S
C95 H94 0.969 . S
C95 O96 1.550 . S
C95 H97 0.973 . S
O96 C95 1.550 . S
O96 C102 1.412 . S
H97 C95 0.973 . S
C98 H91 0.929 . S
C98 C99 1.400 . S
C98 C100 1.364 . S
C99 C98 1.400 . S
C99 C103 1.377 . S
C100 C98 1.364 . S
C100 C101 1.374 . S
C101 H92 0.930 . S
C101 C100 1.374 . S
C101 C102 1.383 . S
C102 O96 1.412 . S
C102 C101 1.383 . S
C102 C103 1.394 . S
C103 H93 0.929 . S
C103 C99 1.377 . S
C103 C102 1.394 . S
H104 C111 0.929 . S
H105 C114 0.930 . S
H106 C116 0.929 . S
H107 C108 0.969 . S
C108 H107 0.969 . S
C108 O109 1.550 . S
C108 H110 0.973 . S
O109 C108 1.550 . S
O109 C115 1.412 . S
H110 C108 0.973 . S
C111 H104 0.929 . S
C111 C112 1.400 . S
C111 C113 1.364 . S
C112 C111 1.400 . S
C112 C116 1.377 . S
C113 C111 1.364 . S
C113 C114 1.374 . S
C114 H105 0.930 . S
C114 C113 1.374 . S
C114 C115 1.383 . S
C115 O109 1.412 . S
C115 C114 1.383 . S
C115 C116 1.394 . S
C116 H106 0.929 . S
C116 C112 1.377 . S
C116 C115 1.394 . S
H117 C124 0.929 . S
H118 C127 0.930 . S
H119 C129 0.929 . S
H120 C121 0.969 . S
C121 H120 0.969 . S
C121 O122 1.550 . S
C121 H123 0.973 . S
O122 C121 1.550 . S
O122 C128 1.412 . S
H123 C121 0.973 . S
C124 H117 0.929 . S
C124 C125 1.400 . S
C124 C126 1.364 . S
C125 C124 1.400 . S
C125 C129 1.377 . S
C126 C124 1.364 . S
C126 C127 1.374 . S
C127 H118 0.930 . S
C127 C126 1.374 . S
C127 C128 1.383 . S
C128 O122 1.412 . S
C128 C127 1.383 . S
C128 C129 1.394 . S
C129 H119 0.929 . S
C129 C125 1.377 . S
C129 C128 1.394 . S
H130 C137 0.929 . S
H131 C140 0.930 . S
H132 C142 0.929 . S
H133 C134 0.969 . S
C134 H133 0.969 . S
C134 O135 1.550 . S
C134 H136 0.973 . S
O135 C134 1.550 . S
O135 C141 1.412 . S
H136 C134 0.973 . S
C137 H130 0.929 . S
C137 C138 1.400 . S
C137 C139 1.364 . S
C138 C137 1.400 . S
C138 C142 1.377 . S
C139 C137 1.364 . S
C139 C140 1.374 . S
C140 H131 0.930 . S
C140 C139 1.374 . S
C140 C141 1.383 . S
C141 O135 1.412 . S
C141 C140 1.383 . S
C141 C142 1.394 . S
C142 H132 0.929 . S
C142 C138 1.377 . S
C142 C141 1.394 . S
H143 C150 0.929 . S
H144 C153 0.930 . S
H145 C155 0.929 . S
H146 C147 0.969 . S
C147 H146 0.969 . S
C147 O148 1.550 . S
C147 H149 0.973 . S
O148 C147 1.550 . S
O148 C154 1.412 . S
H149 C147 0.973 . S
C150 H143 0.929 . S
C150 C151 1.400 . S
C150 C152 1.364 . S
C151 C150 1.400 . S
C151 C155 1.377 . S
C152 C150 1.364 . S
C152 C153 1.374 . S
C153 H144 0.930 . S
C153 C152 1.374 . S
C153 C154 1.383 . S
C154 O148 1.412 . S
C154 C153 1.383 . S
C154 C155 1.394 . S
C155 H145 0.929 . S
C155 C151 1.377 . S
C155 C154 1.394 . S
H156 C163 0.929 . S
H157 C166 0.930 . S
H158 C168 0.929 . S
H159 C160 0.969 . S
C160 H159 0.969 . S
C160 O161 1.550 . S
C160 H162 0.973 . S
O161 C160 1.550 . S
O161 C167 1.412 . S
H162 C160 0.973 . S
C163 H156 0.929 . S
C163 C164 1.400 . S
C163 C165 1.364 . S
C164 C163 1.400 . S
C164 C168 1.377 . S
C165 C163 1.364 . S
C165 C166 1.374 . S
C166 H157 0.930 . S
C166 C165 1.374 . S
C166 C167 1.383 . S
C167 O161 1.412 . S
C167 C166 1.383 . S
C167 C168 1.394 . S
C168 H158 0.929 . S
C168 C164 1.377 . S
C168 C167 1.394 . S
H169 C176 0.929 . S
H170 C179 0.930 . S
H171 C181 0.929 . S
H172 C173 0.969 . S
C173 H172 0.969 . S
C173 O174 1.550 . S
C173 H175 0.973 . S
O174 C173 1.550 . S
O174 C180 1.412 . S
H175 C173 0.973 . S
C176 H169 0.929 . S
C176 C177 1.400 . S
C176 C178 1.364 . S
C177 C176 1.400 . S
C177 C181 1.377 . S
C178 C176 1.364 . S
C178 C179 1.374 . S
C179 H170 0.930 . S
C179 C178 1.374 . S
C179 C180 1.383 . S
C180 O174 1.412 . S
C180 C179 1.383 . S
C180 C181 1.394 . S
C181 H171 0.929 . S
C181 C177 1.377 . S
C181 C180 1.394 . S
H182 C189 0.929 . S
H183 C192 0.930 . S
H184 C194 0.929 . S
H185 C186 0.969 . S
C186 H185 0.969 . S
C186 O187 1.550 . S
C186 H188 0.973 . S
O187 C186 1.550 . S
O187 C193 1.412 . S
H188 C186 0.973 . S
C189 H182 0.929 . S
C189 C190 1.400 . S
C189 C191 1.364 . S
C190 C189 1.400 . S
C190 C194 1.377 . S
C191 C189 1.364 . S
C191 C192 1.374 . S
C192 H183 0.930 . S
C192 C191 1.374 . S
C192 C193 1.383 . S
C193 O187 1.412 . S
C193 C192 1.383 . S
C193 C194 1.394 . S
C194 H184 0.929 . S
C194 C190 1.377 . S
C194 C193 1.394 . S
H195 C202 0.929 . S
H196 C205 0.930 . S
H197 C207 0.929 . S
H198 C199 0.969 . S
C199 H198 0.969 . S
C199 O200 1.550 . S
C199 H201 0.973 . S
O200 C199 1.550 . S
O200 C206 1.412 . S
H201 C199 0.973 . S
C202 H195 0.929 . S
C202 C203 1.400 . S
C202 C204 1.364 . S
C203 C202 1.400 . S
C203 C207 1.377 . S
C204 C202 1.364 . S
C204 C205 1.374 . S
C205 H196 0.930 . S
C205 C204 1.374 . S
C205 C206 1.383 . S
C206 O200 1.412 . S
C206 C205 1.383 . S
C206 C207 1.394 . S
C207 H197 0.929 . S
C207 C203 1.377 . S
C207 C206 1.394 . S
H208 C215 0.929 . S
H209 C218 0.930 . S
H210 C220 0.929 . S
H211 C212 0.969 . S
C212 H211 0.969 . S
C212 O213 1.550 . S
C212 H214 0.973 . S
O213 C212 1.550 . S
O213 C219 1.412 . S
H214 C212 0.973 . S
C215 H208 0.929 . S
C215 C216 1.400 . S
C215 C217 1.364 . S
C216 C215 1.400 . S
C216 C220 1.377 . S
C217 C215 1.364 . S
C217 C218 1.374 . S
C218 H209 0.930 . S
C218 C217 1.374 . S
C218 C219 1.383 . S
C219 O213 1.412 . S
C219 C218 1.383 . S
C219 C220 1.394 . S
C220 H210 0.929 . S
C220 C216 1.377 . S
C220 C219 1.394 . S
H221 C228 0.929 . S
H222 C231 0.930 . S
H223 C233 0.929 . S
H224 C225 0.969 . S
C225 H224 0.969 . S
C225 O226 1.550 . S
C225 H227 0.973 . S
O226 C225 1.550 . S
O226 C232 1.412 . S
H227 C225 0.973 . S
C228 H221 0.929 . S
C228 C229 1.400 . S
C228 C230 1.364 . S
C229 C228 1.400 . S
C229 C233 1.377 . S
C230 C228 1.364 . S
C230 C231 1.374 . S
C231 H222 0.930 . S
C231 C230 1.374 . S
C231 C232 1.383 . S
C232 O226 1.412 . S
C232 C231 1.383 . S
C232 C233 1.394 . S
C233 H223 0.929 . S
C233 C229 1.377 . S
C233 C232 1.394 . S
Eu234 N265 2.657 . S
Eu234 N272 2.609 . S
Eu234 O278 2.558 . S
Eu234 O279 2.612 1_566 S
Eu234 O281 2.339 1_565 S
Eu234 O282 2.563 1_565 S
Eu234 O283 2.419 1_565 S
Eu234 O285 2.380 1_556 S
Eu234 O286 2.432 1_556 S
Eu234 C298 2.848 1_565 S
C235 C238 1.429 . S
C235 C239 1.411 . S
C235 N242 1.377 . S
C236 C238 1.420 . S
C236 C240 1.423 . S
C236 C248 1.392 . S
C237 C239 1.420 . S
C237 C240 1.351 . S
C237 H260 0.931 . S
C238 C235 1.429 . S
C238 C236 1.420 . S
C238 N246 1.362 . S
C239 C235 1.411 . S
C239 C237 1.420 . S
C239 C244 1.395 . S
C240 C236 1.423 . S
C240 C237 1.351 . S
C240 H252 0.930 . S
C241 C243 1.400 . S
C241 C244 1.386 . S
C241 H253 0.930 . S
N242 C235 1.377 . S
N242 C243 1.321 . S
N242 Eu245 2.609 . S
C243 C241 1.400 . S
C243 N242 1.321 . S
C243 H250 0.930 . S
C244 C239 1.395 . S
C244 C241 1.386 . S
C244 H263 0.930 . S
Eu245 N242 2.609 . S
Eu245 N246 2.657 . S
Eu245 O279 2.380 . S
Eu245 O280 2.432 . S
Eu245 O284 2.558 . S
Eu245 O285 2.612 1_545 S
Eu245 O287 2.339 1_545 S
Eu245 O288 2.563 1_545 S
Eu245 O289 2.419 1_545 S
Eu245 C309 2.848 . S
N246 C238 1.362 . S
N246 Eu245 2.657 . S
N246 C247 1.334 . S
C247 N246 1.334 . S
C247 C249 1.413 . S
C247 H254 0.929 . S
C248 C236 1.392 . S
C248 C249 1.367 . S
C248 H256 0.930 . S
C249 C247 1.413 . S
C249 C248 1.367 . S
C249 H251 0.930 . S
H250 C243 0.930 . S
H251 C249 0.930 . S
H252 C240 0.930 . S
H253 C241 0.930 . S
H254 C247 0.929 . S
H255 C269 0.930 . S
H256 C248 0.930 . S
H257 C275 0.930 . S
H258 C266 0.917 1_545 S
H259 C273 0.930 . S
H260 C237 0.931 . S
H261 C267 0.930 . S
H262 C300 0.930 . S
H263 C244 0.930 . S
H264 C299 0.931 . S
N265 Eu234 2.657 . S
N265 C266 1.334 . S
N265 C270 1.362 . S
C266 H258 0.917 1_565 S
C266 N265 1.334 . S
C266 C269 1.413 . S
C267 H261 0.930 . S
C267 C268 1.392 . S
C267 C269 1.367 . S
C268 C267 1.392 . S
C268 C270 1.420 . S
C268 C300 1.423 . S
C269 H255 0.930 . S
C269 C266 1.413 . S
C269 C267 1.367 . S
C270 N265 1.362 . S
C270 C268 1.420 . S
C270 C274 1.429 . S
H271 C276 0.930 . S
N272 Eu234 2.609 . S
N272 C274 1.377 . S
N272 C275 1.321 . S
C273 H259 0.930 . S
C273 C275 1.400 . S
C273 C276 1.386 . S
C274 C270 1.429 . S
C274 N272 1.377 . S
C274 C277 1.411 . S
C275 H257 0.930 . S
C275 N272 1.321 . S
C275 C273 1.400 . S
C276 H271 0.930 . S
C276 C273 1.386 . S
C276 C277 1.395 . S
C277 C274 1.411 . S
C277 C276 1.395 . S
C277 C299 1.420 . S
O278 Eu234 2.558 . S
O278 C298 1.257 1_565 S
O279 Eu234 2.612 1_544 S
O279 Eu245 2.380 . S
O279 C290 1.276 1_554 S
O280 Eu245 2.432 . S
O280 C297 1.264 . S
O281 Eu234 2.339 1_545 S
O281 C297 1.254 1_556 S
O282 Eu234 2.563 1_545 S
O282 C290 1.235 . S
O283 Eu234 2.419 1_545 S
O283 C298 1.249 . S
O284 Eu245 2.558 . S
O284 C309 1.257 . S
O285 Eu234 2.380 1_554 S
O285 Eu245 2.612 1_565 S
O285 C301 1.276 . S
O286 Eu234 2.432 1_554 S
O286 C308 1.264 . S
O287 Eu245 2.339 1_565 S
O287 C308 1.254 . S
O288 Eu245 2.563 1_565 S
O288 C301 1.235 . S
O289 Eu245 2.419 1_565 S
O289 C309 1.249 1_565 S
C290 O279 1.276 1_556 S
C290 O282 1.235 . S
C291 C293 1.393 . S
C291 C295 1.395 1_545 S
C291 C298 1.492 . S
C292 C293 1.392 . S
C292 C294 1.386 . S
C293 C291 1.393 . S
C293 C292 1.392 . S
C293 H310 0.930 . S
C294 C292 1.386 . S
C294 C296 1.371 1_545 S
C294 H311 0.930 . S
C295 C291 1.395 1_565 S
C295 C296 1.383 . S
C295 H312 0.930 . S
C296 C294 1.371 1_565 S
C296 C295 1.383 . S
C296 H313 0.949 . S
C297 O280 1.264 . S
C297 O281 1.254 1_554 S
C298 Eu234 2.848 1_545 S
C298 O278 1.257 1_545 S
C298 O283 1.249 . S
C298 C291 1.492 . S
C299 H264 0.931 . S
C299 C277 1.420 . S
C299 C300 1.351 . S
C300 H262 0.930 . S
C300 C268 1.423 . S
C300 C299 1.351 . S
C301 O285 1.276 . S
C301 O288 1.235 . S
C302 C303 1.370 1_545 S
C302 C306 1.414 . S
C302 C309 1.495 . S
C303 C302 1.370 1_565 S
C303 C304 1.392 . S
C303 H314 0.930 . S
C304 C303 1.392 . S
C304 C305 1.386 . S
C305 C304 1.386 . S
C305 C307 1.395 1_565 S
C305 H315 0.930 . S
C306 C302 1.414 . S
C306 C307 1.379 . S
C306 H316 0.930 . S
C307 C305 1.395 1_545 S
C307 C306 1.379 . S
C307 H317 0.930 . S
C308 O286 1.264 . S
C308 O287 1.254 . S
C309 Eu245 2.848 . S
C309 O284 1.257 . S
C309 O289 1.249 1_545 S
C309 C302 1.495 . S
H310 C293 0.930 . S
H311 C294 0.930 . S
H312 C295 0.930 . S
H313 C296 0.949 . S
H314 C303 0.930 . S
H315 C305 0.930 . S
H316 C306 0.930 . S
H317 C307 0.930 . S
Eu318 N349 2.657 . S
Eu318 N356 2.609 . S
Eu318 O362 2.558 . S
Eu318 O363 2.612 1_456 S
Eu318 O365 2.339 1_455 S
Eu318 O366 2.563 1_455 S
Eu318 O367 2.423 . S
Eu318 O369 2.380 1_556 S
Eu318 O370 2.432 1_556 S
Eu318 C382 2.848 . S
C319 C322 1.429 . S
C319 C323 1.411 . S
C319 N326 1.377 . S
C320 C322 1.420 . S
C320 C324 1.423 . S
C320 C332 1.392 . S
C321 C323 1.420 . S
C321 C324 1.351 . S
C321 H344 0.931 . S
C322 C319 1.429 . S
C322 C320 1.420 . S
C322 N330 1.362 . S
C323 C319 1.411 . S
C323 C321 1.420 . S
C323 C328 1.395 . S
C324 C320 1.423 . S
C324 C321 1.351 . S
C324 H336 0.930 . S
C325 C327 1.400 . S
C325 C328 1.386 . S
C325 H337 0.930 . S
N326 C319 1.377 . S
N326 C327 1.321 . S
N326 Eu329 2.609 . S
C327 C325 1.400 . S
C327 N326 1.321 . S
C327 H334 0.930 . S
C328 C323 1.395 . S
C328 C325 1.386 . S
C328 H347 0.930 . S
Eu329 N326 2.609 . S
Eu329 N330 2.657 . S
Eu329 O363 2.380 . S
Eu329 O364 2.432 . S
Eu329 O368 2.558 . S
Eu329 O369 2.612 1_655 S
Eu329 O371 2.339 1_655 S
Eu329 O372 2.563 1_655 S
Eu329 O373 2.419 1_655 S
Eu329 C393 2.848 1_655 S
N330 C322 1.362 . S
N330 Eu329 2.657 . S
N330 C331 1.334 . S
C331 N330 1.334 . S
C331 C333 1.413 . S
C331 H338 0.911 1_655 S
C332 C320 1.392 . S
C332 C333 1.367 . S
C332 H340 0.930 . S
C333 C331 1.413 . S
C333 C332 1.367 . S
C333 H335 0.930 . S
H334 C327 0.930 . S
H335 C333 0.930 . S
H336 C324 0.930 . S
H337 C325 0.930 . S
H338 C331 0.911 1_455 S
H339 C353 0.930 . S
H340 C332 0.930 . S
H341 C359 0.930 . S
H342 C350 0.929 . S
H343 C357 0.930 . S
H344 C321 0.931 . S
H345 C351 0.930 . S
H346 C384 0.930 . S
H347 C328 0.930 . S
H348 C383 0.931 . S
N349 Eu318 2.657 . S
N349 C350 1.334 . S
N349 C354 1.362 . S
C350 H342 0.929 . S
C350 N349 1.334 . S
C350 C353 1.413 . S
C351 H345 0.930 . S
C351 C352 1.392 . S
C351 C353 1.367 . S
C352 C351 1.392 . S
C352 C354 1.420 . S
C352 C384 1.423 . S
C353 H339 0.930 . S
C353 C350 1.413 . S
C353 C351 1.367 . S
C354 N349 1.362 . S
C354 C352 1.420 . S
C354 C358 1.429 . S
H355 C360 0.930 . S
N356 Eu318 2.609 . S
N356 C358 1.377 . S
N356 C359 1.321 . S
C357 H343 0.930 . S
C357 C359 1.400 . S
C357 C360 1.386 . S
C358 C354 1.429 . S
C358 N356 1.377 . S
C358 C361 1.411 . S
C359 H341 0.930 . S
C359 N356 1.321 . S
C359 C357 1.400 . S
C360 H355 0.930 . S
C360 C357 1.386 . S
C360 C361 1.395 . S
C361 C358 1.411 . S
C361 C360 1.395 . S
C361 C383 1.420 . S
O362 Eu318 2.558 . S
O362 C382 1.257 . S
O363 Eu318 2.612 1_654 S
O363 Eu329 2.380 . S
O363 C374 1.276 1_554 S
O364 Eu329 2.432 . S
O364 C381 1.264 . S
O365 Eu318 2.339 1_655 S
O365 C381 1.254 1_556 S
O366 Eu318 2.563 1_655 S
O366 C374 1.235 . S
O367 Eu318 2.423 . S
O367 C382 1.248 . S
O368 Eu329 2.558 . S
O368 C393 1.257 1_655 S
O369 Eu318 2.380 1_554 S
O369 Eu329 2.612 1_455 S
O369 C385 1.276 . S
O370 Eu318 2.432 1_554 S
O370 C392 1.264 . S
O371 Eu329 2.339 1_455 S
O371 C392 1.254 . S
O372 Eu329 2.563 1_455 S
O372 C385 1.235 . S
O373 Eu329 2.419 1_455 S
O373 C393 1.249 . S
C374 O363 1.276 1_556 S
C374 O366 1.235 . S
C375 C377 1.393 1_455 S
C375 C379 1.395 . S
C375 C382 1.492 . S
C376 C377 1.392 . S
C376 C378 1.386 . S
C377 C375 1.393 1_655 S
C377 C376 1.392 . S
C377 H394 0.930 . S
C378 C376 1.386 . S
C378 C380 1.395 1_655 S
C378 H395 0.930 . S
C379 C375 1.395 . S
C379 C380 1.379 . S
C379 H396 0.930 . S
C380 C378 1.395 1_455 S
C380 C379 1.379 . S
C380 H397 0.930 . S
C381 O364 1.264 . S
C381 O365 1.254 1_554 S
C382 Eu318 2.848 . S
C382 O362 1.257 . S
C382 O367 1.248 . S
C382 C375 1.492 . S
C383 H348 0.931 . S
C383 C361 1.420 . S
C383 C384 1.351 . S
C384 H346 0.930 . S
C384 C352 1.423 . S
C384 C383 1.351 . S
C385 O369 1.276 . S
C385 O372 1.235 . S
C386 C387 1.393 . S
C386 C390 1.395 1_455 S
C386 C393 1.492 . S
C387 C386 1.393 . S
C387 C388 1.392 . S
C387 H398 0.930 . S
C388 C387 1.392 . S
C388 C389 1.386 . S
C389 C388 1.386 . S
C389 C391 1.395 1_455 S
C389 H399 0.930 . S
C390 C386 1.395 1_655 S
C390 C391 1.379 . S
C390 H400 0.930 . S
C391 C389 1.395 1_655 S
C391 C390 1.379 . S
C391 H401 0.930 . S
C392 O370 1.264 . S
C392 O371 1.254 . S
C393 Eu329 2.848 1_455 S
C393 O368 1.257 1_455 S
C393 O373 1.249 . S
C393 C386 1.492 . S
H394 C377 0.930 . S
H395 C378 0.930 . S
H396 C379 0.930 . S
H397 C380 0.930 . S
H398 C387 0.930 . S
H399 C389 0.930 . S
H400 C390 0.930 . S
H401 C391 0.930 . S
Eu402 N433 2.657 . S
Eu402 N440 2.609 . S
Eu402 O446 2.558 . S
Eu402 O447 2.612 . S
Eu402 O449 2.339 . S
Eu402 O450 2.563 . S
Eu402 O451 2.419 . S
Eu402 O453 2.380 . S
Eu402 O454 2.432 . S
Eu402 C466 2.848 . S
C403 C406 1.429 . S
C403 C407 1.411 . S
C403 N410 1.377 . S
C404 C406 1.420 . S
C404 C408 1.423 . S
C404 C416 1.392 . S
C405 C407 1.420 . S
C405 C408 1.351 . S
C405 H428 0.931 . S
C406 C403 1.429 . S
C406 C404 1.420 . S
C406 N414 1.362 . S
C407 C403 1.411 . S
C407 C405 1.420 . S
C407 C412 1.395 . S
C408 C404 1.423 . S
C408 C405 1.351 . S
C408 H420 0.930 . S
C409 C411 1.400 . S
C409 C412 1.386 . S
C409 H421 0.930 . S
N410 C403 1.377 . S
N410 C411 1.321 . S
N410 Eu413 2.609 . S
C411 C409 1.400 . S
C411 N410 1.321 . S
C411 H418 0.930 . S
C412 C407 1.395 . S
C412 C409 1.386 . S
C412 H431 0.930 . S
Eu413 N410 2.609 . S
Eu413 N414 2.657 . S
Eu413 O447 2.380 1_556 S
Eu413 O448 2.432 1_556 S
Eu413 O452 2.558 . S
Eu413 O453 2.612 1_556 S
Eu413 O455 2.339 . S
Eu413 O456 2.563 . S
Eu413 O457 2.419 . S
Eu413 C477 2.848 . S
N414 C406 1.362 . S
N414 Eu413 2.657 . S
N414 C415 1.334 . S
C415 N414 1.334 . S
C415 C417 1.413 . S
C415 H422 0.929 . S
C416 C404 1.392 . S
C416 C417 1.367 . S
C416 H424 0.930 . S
C417 C415 1.413 . S
C417 C416 1.367 . S
C417 H419 0.930 . S
H418 C411 0.930 . S
H419 C417 0.930 . S
H420 C408 0.930 . S
H421 C409 0.930 . S
H422 C415 0.929 . S
H423 C437 0.930 . S
H424 C416 0.930 . S
H425 C443 0.930 . S
H426 C434 0.929 . S
H427 C441 0.930 . S
H428 C405 0.931 . S
H429 C435 0.930 . S
H430 C468 0.930 . S
H431 C412 0.930 . S
H432 C467 0.931 . S
N433 Eu402 2.657 . S
N433 C434 1.334 . S
N433 C438 1.362 . S
C434 H426 0.929 . S
C434 N433 1.334 . S
C434 C437 1.413 . S
C435 H429 0.930 . S
C435 C436 1.392 . S
C435 C437 1.367 . S
C436 C435 1.392 . S
C436 C438 1.420 . S
C436 C468 1.423 . S
C437 H423 0.930 . S
C437 C434 1.413 . S
C437 C435 1.367 . S
C438 N433 1.362 . S
C438 C436 1.420 . S
C438 C442 1.429 . S
H439 C444 0.930 . S
N440 Eu402 2.609 . S
N440 C442 1.377 . S
N440 C443 1.321 . S
C441 H427 0.930 . S
C441 C443 1.400 . S
C441 C444 1.386 . S
C442 C438 1.429 . S
C442 N440 1.377 . S
C442 C445 1.411 . S
C443 H425 0.930 . S
C443 N440 1.321 . S
C443 C441 1.400 . S
C444 H439 0.930 . S
C444 C441 1.386 . S
C444 C445 1.395 . S
C445 C442 1.411 . S
C445 C444 1.395 . S
C445 C467 1.420 . S
O446 Eu402 2.558 . S
O446 C466 1.257 . S
O447 Eu402 2.612 . S
O447 Eu413 2.380 1_554 S
O447 C458 1.276 . S
O448 Eu413 2.432 1_554 S
O448 C465 1.264 . S
O449 Eu402 2.339 . S
O449 C465 1.254 . S
O450 Eu402 2.563 . S
O450 C458 1.235 . S
O451 Eu402 2.419 . S
O451 C466 1.249 . S
O452 Eu413 2.558 . S
O452 C477 1.257 . S
O453 Eu402 2.380 . S
O453 Eu413 2.612 1_554 S
O453 C469 1.276 1_554 S
O454 Eu402 2.432 . S
O454 C476 1.264 . S
O455 Eu413 2.339 . S
O455 C476 1.254 1_556 S
O456 Eu413 2.563 . S
O456 C469 1.235 . S
O457 Eu413 2.419 . S
O457 C477 1.249 . S
C458 O447 1.276 . S
C458 O450 1.235 . S
C459 C461 1.393 . S
C459 C463 1.395 . S
C459 C466 1.492 . S
C460 C461 1.392 . S
C460 C462 1.386 . S
C461 C459 1.393 . S
C461 C460 1.392 . S
C461 H478 0.930 . S
C462 C460 1.386 . S
C462 C464 1.395 . S
C462 H479 0.930 . S
C463 C459 1.395 . S
C463 C464 1.379 . S
C463 H480 0.930 . S
C464 C462 1.395 . S
C464 C463 1.379 . S
C464 H481 0.930 . S
C465 O448 1.264 . S
C465 O449 1.254 . S
C466 Eu402 2.848 . S
C466 O446 1.257 . S
C466 O451 1.249 . S
C466 C459 1.492 . S
C467 H432 0.931 . S
C467 C445 1.420 . S
C467 C468 1.351 . S
C468 H430 0.930 . S
C468 C436 1.423 . S
C468 C467 1.351 . S
C469 O453 1.276 1_556 S
C469 O456 1.235 . S
C470 C471 1.393 . S
C470 C474 1.395 . S
C470 C477 1.492 . S
C471 C470 1.393 . S
C471 C472 1.392 . S
C471 H482 0.930 . S
C472 C471 1.392 . S
C472 C473 1.386 . S
C473 C472 1.386 . S
C473 C475 1.395 . S
C473 H483 0.930 . S
C474 C470 1.395 . S
C474 C475 1.379 . S
C474 H484 0.930 . S
C475 C473 1.395 . S
C475 C474 1.379 . S
C475 H485 0.930 . S
C476 O454 1.264 . S
C476 O455 1.254 1_554 S
C477 Eu413 2.848 . S
C477 O452 1.257 . S
C477 O457 1.249 . S
C477 C470 1.492 . S
H478 C461 0.930 . S
H479 C462 0.930 . S
H480 C463 0.930 . S
H481 C464 0.930 . S
H482 C471 0.930 . S
H483 C473 0.930 . S
H484 C474 0.930 . S
H485 C475 0.930 . S
Eu486 N517 2.657 . S
Eu486 N524 2.609 . S
Eu486 O530 2.558 . S
Eu486 O531 2.612 . S
Eu486 O533 2.339 . S
Eu486 O534 2.563 . S
Eu486 O535 2.419 . S
Eu486 O537 2.380 . S
Eu486 O538 2.432 . S
Eu486 C550 2.848 . S
C487 C490 1.429 . S
C487 C491 1.411 . S
C487 N494 1.377 . S
C488 C490 1.420 . S
C488 C492 1.423 . S
C488 C500 1.392 . S
C489 C491 1.420 . S
C489 C492 1.351 . S
C489 H512 0.931 . S
C490 C487 1.429 . S
C490 C488 1.420 . S
C490 N498 1.362 . S
C491 C487 1.411 . S
C491 C489 1.420 . S
C491 C496 1.395 . S
C492 C488 1.423 . S
C492 C489 1.351 . S
C492 H504 0.930 . S
C493 C495 1.400 . S
C493 C496 1.386 . S
C493 H505 0.930 . S
N494 C487 1.377 . S
N494 C495 1.321 . S
N494 Eu497 2.609 . S
C495 C493 1.400 . S
C495 N494 1.321 . S
C495 H502 0.930 . S
C496 C491 1.395 . S
C496 C493 1.386 . S
C496 H515 0.930 . S
Eu497 N494 2.609 . S
Eu497 N498 2.657 . S
Eu497 O531 2.380 . S
Eu497 O532 2.432 . S
Eu497 O536 2.558 . S
Eu497 O537 2.612 . S
Eu497 O539 2.339 . S
Eu497 O540 2.563 . S
Eu497 O541 2.419 . S
Eu497 C561 2.848 . S
N498 C490 1.362 . S
N498 Eu497 2.657 . S
N498 C499 1.334 . S
C499 N498 1.334 . S
C499 C501 1.413 . S
C499 H506 0.929 . S
C500 C488 1.392 . S
C500 C501 1.367 . S
C500 H508 0.930 . S
C501 C499 1.413 . S
C501 C500 1.367 . S
C501 H503 0.930 . S
H502 C495 0.930 . S
H503 C501 0.930 . S
H504 C492 0.930 . S
H505 C493 0.930 . S
H506 C499 0.929 . S
H507 C521 0.930 . S
H508 C500 0.930 . S
H509 C527 0.930 . S
H510 C518 0.929 . S
H511 C525 0.930 . S
H512 C489 0.931 . S
H513 C519 0.930 . S
H514 C552 0.930 . S
H515 C496 0.930 . S
H516 C551 0.931 . S
N517 Eu486 2.657 . S
N517 C518 1.334 . S
N517 C522 1.362 . S
C518 H510 0.929 . S
C518 N517 1.334 . S
C518 C521 1.413 . S
C519 H513 0.930 . S
C519 C520 1.392 . S
C519 C521 1.367 . S
C520 C519 1.392 . S
C520 C522 1.420 . S
C520 C552 1.423 . S
C521 H507 0.930 . S
C521 C518 1.413 . S
C521 C519 1.367 . S
C522 N517 1.362 . S
C522 C520 1.420 . S
C522 C526 1.429 . S
H523 C528 0.930 . S
N524 Eu486 2.609 . S
N524 C526 1.377 . S
N524 C527 1.321 . S
C525 H511 0.930 . S
C525 C527 1.400 . S
C525 C528 1.386 . S
C526 C522 1.429 . S
C526 N524 1.377 . S
C526 C529 1.411 . S
C527 H509 0.930 . S
C527 N524 1.321 . S
C527 C525 1.400 . S
C528 H523 0.930 . S
C528 C525 1.386 . S
C528 C529 1.395 . S
C529 C526 1.411 . S
C529 C528 1.395 . S
C529 C551 1.420 . S
O530 Eu486 2.558 . S
O530 C550 1.257 . S
O531 Eu486 2.612 . S
O531 Eu497 2.380 . S
O531 C542 1.276 . S
O532 Eu497 2.432 . S
O532 C549 1.264 . S
O533 Eu486 2.339 . S
O533 C549 1.254 . S
O534 Eu486 2.563 . S
O534 C542 1.235 . S
O535 Eu486 2.419 . S
O535 C550 1.249 . S
O536 Eu497 2.558 . S
O536 C561 1.257 . S
O537 Eu486 2.380 . S
O537 Eu497 2.612 . S
O537 C553 1.276 . S
O538 Eu486 2.432 . S
O538 C560 1.264 . S
O539 Eu497 2.339 . S
O539 C560 1.254 . S
O540 Eu497 2.563 . S
O540 C553 1.235 . S
O541 Eu497 2.419 . S
O541 C561 1.249 . S
C542 O531 1.276 . S
C542 O534 1.235 . S
C543 C545 1.393 . S
C543 C547 1.395 . S
C543 C550 1.492 . S
C544 C545 1.392 . S
C544 C546 1.386 . S
C545 C543 1.393 . S
C545 C544 1.392 . S
C545 H562 0.930 . S
C546 C544 1.386 . S
C546 C548 1.395 . S
C546 H563 0.930 . S
C547 C543 1.395 . S
C547 C548 1.379 . S
C547 H564 0.930 . S
C548 C546 1.395 . S
C548 C547 1.379 . S
C548 H565 0.930 . S
C549 O532 1.264 . S
C549 O533 1.254 . S
C550 Eu486 2.848 . S
C550 O530 1.257 . S
C550 O535 1.249 . S
C550 C543 1.492 . S
C551 H516 0.931 . S
C551 C529 1.420 . S
C551 C552 1.351 . S
C552 H514 0.930 . S
C552 C520 1.423 . S
C552 C551 1.351 . S
C553 O537 1.276 . S
C553 O540 1.235 . S
C554 C555 1.393 . S
C554 C558 1.395 . S
C554 C561 1.492 . S
C555 C554 1.393 . S
C555 C556 1.392 . S
C555 H566 0.930 . S
C556 C555 1.392 . S
C556 C557 1.386 . S
C557 C556 1.386 . S
C557 C559 1.395 . S
C557 H567 0.930 . S
C558 C554 1.395 . S
C558 C559 1.379 . S
C558 H568 0.930 . S
C559 C557 1.395 . S
C559 C558 1.379 . S
C559 H569 0.930 . S
C560 O538 1.264 . S
C560 O539 1.254 . S
C561 Eu497 2.848 . S
C561 O536 1.257 . S
C561 O541 1.249 . S
C561 C554 1.492 . S
H562 C545 0.930 . S
H563 C546 0.930 . S
H564 C547 0.930 . S
H565 C548 0.930 . S
H566 C555 0.930 . S
H567 C557 0.930 . S
H568 C558 0.930 . S
H569 C559 0.930 . S
Eu570 N601 2.657 . S
Eu570 N608 2.609 . S
Eu570 O614 2.558 . S
Eu570 O615 2.612 . S
Eu570 O617 2.339 . S
Eu570 O618 2.563 . S
Eu570 O619 2.419 . S
Eu570 O621 2.380 . S
Eu570 O622 2.432 . S
Eu570 C634 2.848 . S
C571 C574 1.429 . S
C571 C575 1.411 . S
C571 N578 1.377 . S
C572 C574 1.420 . S
C572 C576 1.423 . S
C572 C584 1.392 . S
C573 C575 1.420 . S
C573 C576 1.351 . S
C573 H596 0.931 . S
C574 C571 1.429 . S
C574 C572 1.420 . S
C574 N582 1.362 . S
C575 C571 1.411 . S
C575 C573 1.420 . S
C575 C580 1.395 . S
C576 C572 1.423 . S
C576 C573 1.351 . S
C576 H588 0.930 . S
C577 C579 1.400 . S
C577 C580 1.386 . S
C577 H589 0.930 . S
N578 C571 1.377 . S
N578 C579 1.321 . S
N578 Eu581 2.609 . S
C579 C577 1.400 . S
C579 N578 1.321 . S
C579 H586 0.930 . S
C580 C575 1.395 . S
C580 C577 1.386 . S
C580 H599 0.930 . S
Eu581 N578 2.609 . S
Eu581 N582 2.657 . S
Eu581 O615 2.380 . S
Eu581 O616 2.432 . S
Eu581 O620 2.558 . S
Eu581 O621 2.612 . S
Eu581 O623 2.339 . S
Eu581 O624 2.563 . S
Eu581 O625 2.419 . S
Eu581 C645 2.848 . S
N582 C574 1.362 . S
N582 Eu581 2.657 . S
N582 C583 1.334 . S
C583 N582 1.334 . S
C583 C585 1.413 . S
C583 H590 0.929 . S
C584 C572 1.392 . S
C584 C585 1.367 . S
C584 H592 0.930 . S
C585 C583 1.413 . S
C585 C584 1.367 . S
C585 H587 0.930 . S
H586 C579 0.930 . S
H587 C585 0.930 . S
H588 C576 0.930 . S
H589 C577 0.930 . S
H590 C583 0.929 . S
H591 C605 0.930 . S
H592 C584 0.930 . S
H593 C611 0.930 . S
H594 C602 0.929 . S
H595 C609 0.930 . S
H596 C573 0.931 . S
H597 C603 0.930 . S
H598 C636 0.930 . S
H599 C580 0.930 . S
H600 C635 0.931 . S
N601 Eu570 2.657 . S
N601 C602 1.334 . S
N601 C606 1.362 . S
C602 H594 0.929 . S
C602 N601 1.334 . S
C602 C605 1.413 . S
C603 H597 0.930 . S
C603 C604 1.392 . S
C603 C605 1.367 . S
C604 C603 1.392 . S
C604 C606 1.420 . S
C604 C636 1.423 . S
C605 H591 0.930 . S
C605 C602 1.413 . S
C605 C603 1.367 . S
C606 N601 1.362 . S
C606 C604 1.420 . S
C606 C610 1.429 . S
H607 C612 0.930 . S
N608 Eu570 2.609 . S
N608 C610 1.377 . S
N608 C611 1.321 . S
C609 H595 0.930 . S
C609 C611 1.400 . S
C609 C612 1.386 . S
C610 C606 1.429 . S
C610 N608 1.377 . S
C610 C613 1.411 . S
C611 H593 0.930 . S
C611 N608 1.321 . S
C611 C609 1.400 . S
C612 H607 0.930 . S
C612 C609 1.386 . S
C612 C613 1.395 . S
C613 C610 1.411 . S
C613 C612 1.395 . S
C613 C635 1.420 . S
O614 Eu570 2.558 . S
O614 C634 1.257 . S
O615 Eu570 2.612 . S
O615 Eu581 2.380 . S
O615 C626 1.276 . S
O616 Eu581 2.432 . S
O616 C633 1.264 . S
O617 Eu570 2.339 . S
O617 C633 1.254 . S
O618 Eu570 2.563 . S
O618 C626 1.235 . S
O619 Eu570 2.419 . S
O619 C634 1.249 . S
O620 Eu581 2.558 . S
O620 C645 1.257 . S
O621 Eu570 2.380 . S
O621 Eu581 2.612 . S
O621 C637 1.276 . S
O622 Eu570 2.432 . S
O622 C644 1.264 . S
O623 Eu581 2.339 . S
O623 C644 1.254 . S
O624 Eu581 2.563 . S
O624 C637 1.235 . S
O625 Eu581 2.419 . S
O625 C645 1.249 . S
C626 O615 1.276 . S
C626 O618 1.235 . S
C627 C629 1.393 . S
C627 C631 1.395 . S
C627 C634 1.492 . S
C628 C629 1.392 . S
C628 C630 1.386 . S
C629 C627 1.393 . S
C629 C628 1.392 . S
C629 H646 0.930 . S
C630 C628 1.386 . S
C630 C632 1.395 . S
C630 H647 0.930 . S
C631 C627 1.395 . S
C631 C632 1.379 . S
C631 H648 0.930 . S
C632 C630 1.395 . S
C632 C631 1.379 . S
C632 H649 0.930 . S
C633 O616 1.264 . S
C633 O617 1.254 . S
C634 Eu570 2.848 . S
C634 O614 1.257 . S
C634 O619 1.249 . S
C634 C627 1.492 . S
C635 H600 0.931 . S
C635 C613 1.420 . S
C635 C636 1.351 . S
C636 H598 0.930 . S
C636 C604 1.423 . S
C636 C635 1.351 . S
C637 O621 1.276 . S
C637 O624 1.235 . S
C638 C639 1.393 . S
C638 C642 1.395 . S
C638 C645 1.492 . S
C639 C638 1.393 . S
C639 C640 1.392 . S
C639 H650 0.930 . S
C640 C639 1.392 . S
C640 C641 1.386 . S
C641 C640 1.386 . S
C641 C643 1.395 . S
C641 H651 0.930 . S
C642 C638 1.395 . S
C642 C643 1.379 . S
C642 H652 0.930 . S
C643 C641 1.395 . S
C643 C642 1.379 . S
C643 H653 0.930 . S
C644 O622 1.264 . S
C644 O623 1.254 . S
C645 Eu581 2.848 . S
C645 O620 1.257 . S
C645 O625 1.249 . S
C645 C638 1.492 . S
H646 C629 0.930 . S
H647 C630 0.930 . S
H648 C631 0.930 . S
H649 C632 0.930 . S
H650 C639 0.930 . S
H651 C641 0.930 . S
H652 C642 0.930 . S
H653 C643 0.930 . S
Eu654 N685 2.657 . S
Eu654 N692 2.609 . S
Eu654 O698 2.558 . S
Eu654 O699 2.612 . S
Eu654 O701 2.339 . S
Eu654 O702 2.563 . S
Eu654 O703 2.419 . S
Eu654 O705 2.380 . S
Eu654 O706 2.432 . S
Eu654 C718 2.848 . S
C655 C658 1.429 . S
C655 C659 1.411 . S
C655 N662 1.377 . S
C656 C658 1.420 . S
C656 C660 1.423 . S
C656 C668 1.392 . S
C657 C659 1.420 . S
C657 C660 1.351 . S
C657 H680 0.931 . S
C658 C655 1.429 . S
C658 C656 1.420 . S
C658 N666 1.362 . S
C659 C655 1.411 . S
C659 C657 1.420 . S
C659 C664 1.395 . S
C660 C656 1.423 . S
C660 C657 1.351 . S
C660 H672 0.930 . S
C661 C663 1.400 . S
C661 C664 1.386 . S
C661 H673 0.930 . S
N662 C655 1.377 . S
N662 C663 1.321 . S
N662 Eu665 2.609 . S
C663 C661 1.400 . S
C663 N662 1.321 . S
C663 H670 0.930 . S
C664 C659 1.395 . S
C664 C661 1.386 . S
C664 H683 0.930 . S
Eu665 N662 2.609 . S
Eu665 N666 2.657 . S
Eu665 O699 2.380 . S
Eu665 O700 2.432 . S
Eu665 O704 2.558 . S
Eu665 O705 2.612 . S
Eu665 O707 2.339 . S
Eu665 O708 2.563 . S
Eu665 O709 2.419 . S
Eu665 C729 2.848 . S
N666 C658 1.362 . S
N666 Eu665 2.657 . S
N666 C667 1.334 . S
C667 N666 1.334 . S
C667 C669 1.413 . S
C667 H674 0.929 . S
C668 C656 1.392 . S
C668 C669 1.367 . S
C668 H676 0.930 . S
C669 C667 1.413 . S
C669 C668 1.367 . S
C669 H671 0.930 . S
H670 C663 0.930 . S
H671 C669 0.930 . S
H672 C660 0.930 . S
H673 C661 0.930 . S
H674 C667 0.929 . S
H675 C689 0.930 . S
H676 C668 0.930 . S
H677 C695 0.930 . S
H678 C686 0.929 . S
H679 C693 0.930 . S
H680 C657 0.931 . S
H681 C687 0.930 . S
H682 C720 0.930 . S
H683 C664 0.930 . S
H684 C719 0.931 . S
N685 Eu654 2.657 . S
N685 C686 1.334 . S
N685 C690 1.362 . S
C686 H678 0.929 . S
C686 N685 1.334 . S
C686 C689 1.413 . S
C687 H681 0.930 . S
C687 C688 1.392 . S
C687 C689 1.367 . S
C688 C687 1.392 . S
C688 C690 1.420 . S
C688 C720 1.423 . S
C689 H675 0.930 . S
C689 C686 1.413 . S
C689 C687 1.367 . S
C690 N685 1.362 . S
C690 C688 1.420 . S
C690 C694 1.429 . S
H691 C696 0.930 . S
N692 Eu654 2.609 . S
N692 C694 1.377 . S
N692 C695 1.321 . S
C693 H679 0.930 . S
C693 C695 1.400 . S
C693 C696 1.386 . S
C694 C690 1.429 . S
C694 N692 1.377 . S
C694 C697 1.411 . S
C695 H677 0.930 . S
C695 N692 1.321 . S
C695 C693 1.400 . S
C696 H691 0.930 . S
C696 C693 1.386 . S
C696 C697 1.395 . S
C697 C694 1.411 . S
C697 C696 1.395 . S
C697 C719 1.420 . S
O698 Eu654 2.558 . S
O698 C718 1.257 . S
O699 Eu654 2.612 . S
O699 Eu665 2.380 . S
O699 C710 1.276 . S
O700 Eu665 2.432 . S
O700 C717 1.264 . S
O701 Eu654 2.339 . S
O701 C717 1.254 . S
O702 Eu654 2.563 . S
O702 C710 1.235 . S
O703 Eu654 2.419 . S
O703 C718 1.249 . S
O704 Eu665 2.558 . S
O704 C729 1.257 . S
O705 Eu654 2.380 . S
O705 Eu665 2.612 . S
O705 C721 1.276 . S
O706 Eu654 2.432 . S
O706 C728 1.264 . S
O707 Eu665 2.339 . S
O707 C728 1.254 . S
O708 Eu665 2.563 . S
O708 C721 1.235 . S
O709 Eu665 2.419 . S
O709 C729 1.249 . S
C710 O699 1.276 . S
C710 O702 1.235 . S
C711 C713 1.393 . S
C711 C715 1.395 . S
C711 C718 1.492 . S
C712 C713 1.392 . S
C712 C714 1.386 . S
C713 C711 1.393 . S
C713 C712 1.392 . S
C713 H730 0.930 . S
C714 C712 1.386 . S
C714 C716 1.395 . S
C714 H731 0.930 . S
C715 C711 1.395 . S
C715 C716 1.379 . S
C715 H732 0.930 . S
C716 C714 1.395 . S
C716 C715 1.379 . S
C716 H733 0.930 . S
C717 O700 1.264 . S
C717 O701 1.254 . S
C718 Eu654 2.848 . S
C718 O698 1.257 . S
C718 O703 1.249 . S
C718 C711 1.492 . S
C719 H684 0.931 . S
C719 C697 1.420 . S
C719 C720 1.351 . S
C720 H682 0.930 . S
C720 C688 1.423 . S
C720 C719 1.351 . S
C721 O705 1.276 . S
C721 O708 1.235 . S
C722 C723 1.393 . S
C722 C726 1.395 . S
C722 C729 1.492 . S
C723 C722 1.393 . S
C723 C724 1.392 . S
C723 H734 0.930 . S
C724 C723 1.392 . S
C724 C725 1.386 . S
C725 C724 1.386 . S
C725 C727 1.395 . S
C725 H735 0.930 . S
C726 C722 1.395 . S
C726 C727 1.379 . S
C726 H736 0.930 . S
C727 C725 1.395 . S
C727 C726 1.379 . S
C727 H737 0.930 . S
C728 O706 1.264 . S
C728 O707 1.254 . S
C729 Eu665 2.848 . S
C729 O704 1.257 . S
C729 O709 1.249 . S
C729 C722 1.492 . S
H730 C713 0.930 . S
H731 C714 0.930 . S
H732 C715 0.930 . S
H733 C716 0.930 . S
H734 C723 0.930 . S
H735 C725 0.930 . S
H736 C726 0.930 . S
H737 C727 0.930 . S
Eu738 N769 2.657 . S
Eu738 N776 2.609 . S
Eu738 O782 2.558 . S
Eu738 O783 2.612 . S
Eu738 O785 2.339 . S
Eu738 O786 2.563 . S
Eu738 O787 2.419 . S
Eu738 O789 2.380 . S
Eu738 O790 2.432 . S
Eu738 C802 2.848 . S
C739 C742 1.429 . S
C739 C743 1.411 . S
C739 N746 1.377 . S
C740 C742 1.420 . S
C740 C744 1.423 . S
C740 C752 1.392 . S
C741 C743 1.420 . S
C741 C744 1.351 . S
C741 H764 0.931 . S
C742 C739 1.429 . S
C742 C740 1.420 . S
C742 N750 1.362 . S
C743 C739 1.411 . S
C743 C741 1.420 . S
C743 C748 1.395 . S
C744 C740 1.423 . S
C744 C741 1.351 . S
C744 H756 0.930 . S
C745 C747 1.400 . S
C745 C748 1.386 . S
C745 H757 0.930 . S
N746 C739 1.377 . S
N746 C747 1.321 . S
N746 Eu749 2.609 . S
C747 C745 1.400 . S
C747 N746 1.321 . S
C747 H754 0.930 . S
C748 C743 1.395 . S
C748 C745 1.386 . S
C748 H767 0.930 . S
Eu749 N746 2.609 . S
Eu749 N750 2.657 . S
Eu749 O783 2.380 . S
Eu749 O784 2.432 . S
Eu749 O788 2.558 . S
Eu749 O789 2.612 . S
Eu749 O791 2.339 . S
Eu749 O792 2.563 . S
Eu749 O793 2.419 . S
Eu749 C813 2.848 . S
N750 C742 1.362 . S
N750 Eu749 2.657 . S
N750 C751 1.334 . S
C751 N750 1.334 . S
C751 C753 1.413 . S
C751 H758 0.929 . S
C752 C740 1.392 . S
C752 C753 1.367 . S
C752 H760 0.930 . S
C753 C751 1.413 . S
C753 C752 1.367 . S
C753 H755 0.930 . S
H754 C747 0.930 . S
H755 C753 0.930 . S
H756 C744 0.930 . S
H757 C745 0.930 . S
H758 C751 0.929 . S
H759 C773 0.930 . S
H760 C752 0.930 . S
H761 C779 0.930 . S
H762 C770 0.929 . S
H763 C777 0.930 . S
H764 C741 0.931 . S
H765 C771 0.930 . S
H766 C804 0.930 . S
H767 C748 0.930 . S
H768 C803 0.931 . S
N769 Eu738 2.657 . S
N769 C770 1.334 . S
N769 C774 1.362 . S
C770 H762 0.929 . S
C770 N769 1.334 . S
C770 C773 1.413 . S
C771 H765 0.930 . S
C771 C772 1.392 . S
C771 C773 1.367 . S
C772 C771 1.392 . S
C772 C774 1.420 . S
C772 C804 1.423 . S
C773 H759 0.930 . S
C773 C770 1.413 . S
C773 C771 1.367 . S
C774 N769 1.362 . S
C774 C772 1.420 . S
C774 C778 1.429 . S
H775 C780 0.930 . S
N776 Eu738 2.609 . S
N776 C778 1.377 . S
N776 C779 1.321 . S
C777 H763 0.930 . S
C777 C779 1.400 . S
C777 C780 1.386 . S
C778 C774 1.429 . S
C778 N776 1.377 . S
C778 C781 1.411 . S
C779 H761 0.930 . S
C779 N776 1.321 . S
C779 C777 1.400 . S
C780 H775 0.930 . S
C780 C777 1.386 . S
C780 C781 1.395 . S
C781 C778 1.411 . S
C781 C780 1.395 . S
C781 C803 1.420 . S
O782 Eu738 2.558 . S
O782 C802 1.257 . S
O783 Eu738 2.612 . S
O783 Eu749 2.380 . S
O783 C794 1.276 . S
O784 Eu749 2.432 . S
O784 C801 1.264 . S
O785 Eu738 2.339 . S
O785 C801 1.254 . S
O786 Eu738 2.563 . S
O786 C794 1.235 . S
O787 Eu738 2.419 . S
O787 C802 1.249 . S
O788 Eu749 2.558 . S
O788 C813 1.257 . S
O789 Eu738 2.380 . S
O789 Eu749 2.612 . S
O789 C805 1.276 . S
O790 Eu738 2.432 . S
O790 C812 1.264 . S
O791 Eu749 2.339 . S
O791 C812 1.254 . S
O792 Eu749 2.563 . S
O792 C805 1.235 . S
O793 Eu749 2.419 . S
O793 C813 1.249 . S
C794 O783 1.276 . S
C794 O786 1.235 . S
C795 C797 1.393 . S
C795 C799 1.395 . S
C795 C802 1.492 . S
C796 C797 1.392 . S
C796 C798 1.386 . S
C797 C795 1.393 . S
C797 C796 1.392 . S
C797 H814 0.930 . S
C798 C796 1.386 . S
C798 C800 1.395 . S
C798 H815 0.930 . S
C799 C795 1.395 . S
C799 C800 1.379 . S
C799 H816 0.930 . S
C800 C798 1.395 . S
C800 C799 1.379 . S
C800 H817 0.930 . S
C801 O784 1.264 . S
C801 O785 1.254 . S
C802 Eu738 2.848 . S
C802 O782 1.257 . S
C802 O787 1.249 . S
C802 C795 1.492 . S
C803 H768 0.931 . S
C803 C781 1.420 . S
C803 C804 1.351 . S
C804 H766 0.930 . S
C804 C772 1.423 . S
C804 C803 1.351 . S
C805 O789 1.276 . S
C805 O792 1.235 . S
C806 C807 1.393 . S
C806 C810 1.395 . S
C806 C813 1.492 . S
C807 C806 1.393 . S
C807 C808 1.392 . S
C807 H818 0.930 . S
C808 C807 1.392 . S
C808 C809 1.386 . S
C809 C808 1.386 . S
C809 C811 1.395 . S
C809 H819 0.930 . S
C810 C806 1.395 . S
C810 C811 1.379 . S
C810 H820 0.930 . S
C811 C809 1.395 . S
C811 C810 1.379 . S
C811 H821 0.930 . S
C812 O790 1.264 . S
C812 O791 1.254 . S
C813 Eu749 2.848 . S
C813 O788 1.257 . S
C813 O793 1.249 . S
C813 C806 1.492 . S
H814 C797 0.930 . S
H815 C798 0.930 . S
H816 C799 0.930 . S
H817 C800 0.930 . S
H818 C807 0.930 . S
H819 C809 0.930 . S
H820 C810 0.930 . S
H821 C811 0.930 . S
Eu822 N853 2.657 . S
Eu822 N860 2.609 . S
Eu822 O866 2.558 . S
Eu822 O867 2.612 . S
Eu822 O869 2.339 . S
Eu822 O870 2.563 . S
Eu822 O871 2.419 . S
Eu822 O873 2.380 . S
Eu822 O874 2.432 . S
Eu822 C886 2.848 . S
C823 C826 1.429 . S
C823 C827 1.411 . S
C823 N830 1.377 . S
C824 C826 1.420 . S
C824 C828 1.423 . S
C824 C836 1.392 . S
C825 C827 1.420 . S
C825 C828 1.351 . S
C825 H848 0.931 . S
C826 C823 1.429 . S
C826 C824 1.420 . S
C826 N834 1.362 . S
C827 C823 1.411 . S
C827 C825 1.420 . S
C827 C832 1.395 . S
C828 C824 1.423 . S
C828 C825 1.351 . S
C828 H840 0.930 . S
C829 C831 1.400 . S
C829 C832 1.386 . S
C829 H841 0.930 . S
N830 C823 1.377 . S
N830 C831 1.321 . S
N830 Eu833 2.609 . S
C831 C829 1.400 . S
C831 N830 1.321 . S
C831 H838 0.930 . S
C832 C827 1.395 . S
C832 C829 1.386 . S
C832 H851 0.930 . S
Eu833 N830 2.609 . S
Eu833 N834 2.657 . S
Eu833 O867 2.380 . S
Eu833 O868 2.432 . S
Eu833 O872 2.558 . S
Eu833 O873 2.612 . S
Eu833 O875 2.339 . S
Eu833 O876 2.563 . S
Eu833 O877 2.419 . S
Eu833 C897 2.848 . S
N834 C826 1.362 . S
N834 Eu833 2.657 . S
N834 C835 1.334 . S
C835 N834 1.334 . S
C835 C837 1.413 . S
C835 H842 0.929 . S
C836 C824 1.392 . S
C836 C837 1.367 . S
C836 H844 0.930 . S
C837 C835 1.413 . S
C837 C836 1.367 . S
C837 H839 0.930 . S
H838 C831 0.930 . S
H839 C837 0.930 . S
H840 C828 0.930 . S
H841 C829 0.930 . S
H842 C835 0.929 . S
H843 C857 0.930 . S
H844 C836 0.930 . S
H845 C863 0.930 . S
H846 C854 0.929 . S
H847 C861 0.930 . S
H848 C825 0.931 . S
H849 C855 0.930 . S
H850 C888 0.930 . S
H851 C832 0.930 . S
H852 C887 0.931 . S
N853 Eu822 2.657 . S
N853 C854 1.334 . S
N853 C858 1.362 . S
C854 H846 0.929 . S
C854 N853 1.334 . S
C854 C857 1.413 . S
C855 H849 0.930 . S
C855 C856 1.392 . S
C855 C857 1.367 . S
C856 C855 1.392 . S
C856 C858 1.420 . S
C856 C888 1.423 . S
C857 H843 0.930 . S
C857 C854 1.413 . S
C857 C855 1.367 . S
C858 N853 1.362 . S
C858 C856 1.420 . S
C858 C862 1.429 . S
H859 C864 0.930 . S
N860 Eu822 2.609 . S
N860 C862 1.377 . S
N860 C863 1.321 . S
C861 H847 0.930 . S
C861 C863 1.400 . S
C861 C864 1.386 . S
C862 C858 1.429 . S
C862 N860 1.377 . S
C862 C865 1.411 . S
C863 H845 0.930 . S
C863 N860 1.321 . S
C863 C861 1.400 . S
C864 H859 0.930 . S
C864 C861 1.386 . S
C864 C865 1.395 . S
C865 C862 1.411 . S
C865 C864 1.395 . S
C865 C887 1.420 . S
O866 Eu822 2.558 . S
O866 C886 1.257 . S
O867 Eu822 2.612 . S
O867 Eu833 2.380 . S
O867 C878 1.276 . S
O868 Eu833 2.432 . S
O868 C885 1.264 . S
O869 Eu822 2.339 . S
O869 C885 1.254 . S
O870 Eu822 2.563 . S
O870 C878 1.235 . S
O871 Eu822 2.419 . S
O871 C886 1.249 . S
O872 Eu833 2.558 . S
O872 C897 1.257 . S
O873 Eu822 2.380 . S
O873 Eu833 2.612 . S
O873 C889 1.276 . S
O874 Eu822 2.432 . S
O874 C896 1.264 . S
O875 Eu833 2.339 . S
O875 C896 1.254 . S
O876 Eu833 2.563 . S
O876 C889 1.235 . S
O877 Eu833 2.419 . S
O877 C897 1.249 . S
C878 O867 1.276 . S
C878 O870 1.235 . S
C879 C881 1.393 . S
C879 C883 1.395 . S
C879 C886 1.492 . S
C880 C881 1.392 . S
C880 C882 1.386 . S
C881 C879 1.393 . S
C881 C880 1.392 . S
C881 H898 0.930 . S
C882 C880 1.386 . S
C882 C884 1.395 . S
C882 H899 0.930 . S
C883 C879 1.395 . S
C883 C884 1.379 . S
C883 H900 0.930 . S
C884 C882 1.395 . S
C884 C883 1.379 . S
C884 H901 0.930 . S
C885 O868 1.264 . S
C885 O869 1.254 . S
C886 Eu822 2.848 . S
C886 O866 1.257 . S
C886 O871 1.249 . S
C886 C879 1.492 . S
C887 H852 0.931 . S
C887 C865 1.420 . S
C887 C888 1.351 . S
C888 H850 0.930 . S
C888 C856 1.423 . S
C888 C887 1.351 . S
C889 O873 1.276 . S
C889 O876 1.235 . S
C890 C891 1.393 . S
C890 C894 1.395 . S
C890 C897 1.492 . S
C891 C890 1.393 . S
C891 C892 1.392 . S
C891 H902 0.930 . S
C892 C891 1.392 . S
C892 C893 1.386 . S
C893 C892 1.386 . S
C893 C895 1.395 . S
C893 H903 0.930 . S
C894 C890 1.395 . S
C894 C895 1.379 . S
C894 H904 0.930 . S
C895 C893 1.395 . S
C895 C894 1.379 . S
C895 H905 0.930 . S
C896 O874 1.264 . S
C896 O875 1.254 . S
C897 Eu833 2.848 . S
C897 O872 1.257 . S
C897 O877 1.249 . S
C897 C890 1.492 . S
H898 C881 0.930 . S
H899 C882 0.930 . S
H900 C883 0.930 . S
H901 C884 0.930 . S
H902 C891 0.930 . S
H903 C893 0.930 . S
H904 C894 0.930 . S
H905 C895 0.930 . S
Eu906 N937 2.657 . S
Eu906 N944 2.609 . S
Eu906 O950 2.558 . S
Eu906 O951 2.612 . S
Eu906 O953 2.339 . S
Eu906 O954 2.563 . S
Eu906 O955 2.419 . S
Eu906 O957 2.380 . S
Eu906 O958 2.432 . S
Eu906 C970 2.848 . S
C907 C910 1.429 . S
C907 C911 1.411 . S
C907 N914 1.377 . S
C908 C910 1.420 . S
C908 C912 1.423 . S
C908 C920 1.392 . S
C909 C911 1.420 . S
C909 C912 1.351 . S
C909 H932 0.931 . S
C910 C907 1.429 . S
C910 C908 1.420 . S
C910 N918 1.362 . S
C911 C907 1.411 . S
C911 C909 1.420 . S
C911 C916 1.395 . S
C912 C908 1.423 . S
C912 C909 1.351 . S
C912 H924 0.930 . S
C913 C915 1.400 . S
C913 C916 1.386 . S
C913 H925 0.930 . S
N914 C907 1.377 . S
N914 C915 1.321 . S
N914 Eu917 2.609 . S
C915 C913 1.400 . S
C915 N914 1.321 . S
C915 H922 0.930 . S
C916 C911 1.395 . S
C916 C913 1.386 . S
C916 H935 0.930 . S
Eu917 N914 2.609 . S
Eu917 N918 2.657 . S
Eu917 O951 2.380 . S
Eu917 O952 2.432 . S
Eu917 O956 2.558 . S
Eu917 O957 2.612 . S
Eu917 O959 2.339 . S
Eu917 O960 2.563 . S
Eu917 O961 2.419 . S
Eu917 C981 2.848 . S
N918 C910 1.362 . S
N918 Eu917 2.657 . S
N918 C919 1.334 . S
C919 N918 1.334 . S
C919 C921 1.413 . S
C919 H926 0.929 . S
C920 C908 1.392 . S
C920 C921 1.367 . S
C920 H928 0.930 . S
C921 C919 1.413 . S
C921 C920 1.367 . S
C921 H923 0.930 . S
H922 C915 0.930 . S
H923 C921 0.930 . S
H924 C912 0.930 . S
H925 C913 0.930 . S
H926 C919 0.929 . S
H927 C941 0.930 . S
H928 C920 0.930 . S
H929 C947 0.930 . S
H930 C938 0.929 . S
H931 C945 0.930 . S
H932 C909 0.931 . S
H933 C939 0.930 . S
H934 C972 0.930 . S
H935 C916 0.930 . S
H936 C971 0.931 . S
N937 Eu906 2.657 . S
N937 C938 1.334 . S
N937 C942 1.362 . S
C938 H930 0.929 . S
C938 N937 1.334 . S
C938 C941 1.413 . S
C939 H933 0.930 . S
C939 C940 1.392 . S
C939 C941 1.367 . S
C940 C939 1.392 . S
C940 C942 1.420 . S
C940 C972 1.423 . S
C941 H927 0.930 . S
C941 C938 1.413 . S
C941 C939 1.367 . S
C942 N937 1.362 . S
C942 C940 1.420 . S
C942 C946 1.429 . S
H943 C948 0.930 . S
N944 Eu906 2.609 . S
N944 C946 1.377 . S
N944 C947 1.321 . S
C945 H931 0.930 . S
C945 C947 1.400 . S
C945 C948 1.386 . S
C946 C942 1.429 . S
C946 N944 1.377 . S
C946 C949 1.411 . S
C947 H929 0.930 . S
C947 N944 1.321 . S
C947 C945 1.400 . S
C948 H943 0.930 . S
C948 C945 1.386 . S
C948 C949 1.395 . S
C949 C946 1.411 . S
C949 C948 1.395 . S
C949 C971 1.420 . S
O950 Eu906 2.558 . S
O950 C970 1.257 . S
O951 Eu906 2.612 . S
O951 Eu917 2.380 . S
O951 C962 1.276 . S
O952 Eu917 2.432 . S
O952 C969 1.264 . S
O953 Eu906 2.339 . S
O953 C969 1.254 . S
O954 Eu906 2.563 . S
O954 C962 1.235 . S
O955 Eu906 2.419 . S
O955 C970 1.249 . S
O956 Eu917 2.558 . S
O956 C981 1.257 . S
O957 Eu906 2.380 . S
O957 Eu917 2.612 . S
O957 C973 1.276 . S
O958 Eu906 2.432 . S
O958 C980 1.264 . S
O959 Eu917 2.339 . S
O959 C980 1.254 . S
O960 Eu917 2.563 . S
O960 C973 1.235 . S
O961 Eu917 2.419 . S
O961 C981 1.249 . S
C962 O951 1.276 . S
C962 O954 1.235 . S
C963 C965 1.393 . S
C963 C967 1.395 . S
C963 C970 1.492 . S
C964 C965 1.392 . S
C964 C966 1.386 . S
C965 C963 1.393 . S
C965 C964 1.392 . S
C965 H982 0.930 . S
C966 C964 1.386 . S
C966 C968 1.395 . S
C966 H983 0.930 . S
C967 C963 1.395 . S
C967 C968 1.379 . S
C967 H984 0.930 . S
C968 C966 1.395 . S
C968 C967 1.379 . S
C968 H985 0.930 . S
C969 O952 1.264 . S
C969 O953 1.254 . S
C970 Eu906 2.848 . S
C970 O950 1.257 . S
C970 O955 1.249 . S
C970 C963 1.492 . S
C971 H936 0.931 . S
C971 C949 1.420 . S
C971 C972 1.351 . S
C972 H934 0.930 . S
C972 C940 1.423 . S
C972 C971 1.351 . S
C973 O957 1.276 . S
C973 O960 1.235 . S
C974 C975 1.393 . S
C974 C978 1.395 . S
C974 C981 1.492 . S
C975 C974 1.393 . S
C975 C976 1.392 . S
C975 H986 0.930 . S
C976 C975 1.392 . S
C976 C977 1.386 . S
C977 C976 1.386 . S
C977 C979 1.395 . S
C977 H987 0.930 . S
C978 C974 1.395 . S
C978 C979 1.379 . S
C978 H988 0.930 . S
C979 C977 1.395 . S
C979 C978 1.379 . S
C979 H989 0.930 . S
C980 O958 1.264 . S
C980 O959 1.254 . S
C981 Eu917 2.848 . S
C981 O956 1.257 . S
C981 O961 1.249 . S
C981 C974 1.492 . S
H982 C965 0.930 . S
H983 C966 0.930 . S
H984 C967 0.930 . S
H985 C968 0.930 . S
H986 C975 0.930 . S
H987 C977 0.930 . S
H988 C978 0.930 . S
H989 C979 0.930 . S
C990 C991 1.349 . S
C990 C992 1.327 . S
C990 H1015 0.950 . S
C991 C990 1.349 . S
C991 C1007 1.349 . S
C992 C990 1.327 . S
C992 C1011 1.429 . S
C992 H1016 0.950 . S
C993 C1010 1.574 . S
C993 C1012 1.368 . S
C993 H1017 0.949 . S
H994 C998 0.949 . S
C995 C996 1.349 . S
C995 C997 1.327 . S
C995 H1018 0.950 . S
C996 C995 1.349 . S
C996 C1008 1.349 . S
C997 C995 1.327 . S
C997 C1013 1.429 . S
C997 H1019 0.950 . S
C998 H994 0.949 . S
C998 C1006 1.574 . S
C998 C1014 1.368 . S
H999 C1007 0.950 . S
H1000 C1005 0.950 . S
H1001 C1006 0.949 . S
H1002 C1008 0.950 . S
H1003 C1009 0.950 . S
H1004 C1010 0.949 . S
C1005 H1000 0.950 . S
C1005 C1007 1.327 . S
C1005 C1011 1.429 . S
C1006 C998 1.574 . S
C1006 H1001 0.949 . S
C1006 C1012 1.368 . S
C1007 C991 1.349 . S
C1007 H999 0.950 . S
C1007 C1005 1.327 . S
C1008 C996 1.349 . S
C1008 H1002 0.950 . S
C1008 C1009 1.327 . S
C1009 H1003 0.950 . S
C1009 C1008 1.327 . S
C1009 C1013 1.429 . S
C1010 C993 1.574 . S
C1010 H1004 0.949 . S
C1010 C1014 1.368 . S
C1011 C992 1.429 . S
C1011 C1005 1.429 . S
C1011 C1012 1.523 . S
C1012 C993 1.368 . S
C1012 C1006 1.368 . S
C1012 C1011 1.523 . S
C1013 C997 1.429 . S
C1013 C1009 1.429 . S
C1013 C1014 1.523 . S
C1014 C998 1.368 . S
C1014 C1010 1.368 . S
C1014 C1013 1.523 . S
H1015 C990 0.950 . S
H1016 C992 0.950 . S
H1017 C993 0.949 . S
H1018 C995 0.950 . S
H1019 C997 0.950 . S
C1020 C1021 1.349 . S
C1020 C1022 1.327 . S
C1020 H1045 0.950 . S
C1021 C1020 1.349 . S
C1021 C1037 1.349 . S
C1022 C1020 1.327 . S
C1022 C1041 1.429 . S
C1022 H1046 0.950 . S
C1023 C1040 1.574 . S
C1023 C1042 1.368 . S
C1023 H1047 0.949 . S
H1024 C1028 0.949 . S
C1025 C1026 1.349 . S
C1025 C1027 1.327 . S
C1025 H1048 0.950 . S
C1026 C1025 1.349 . S
C1026 C1038 1.349 . S
C1027 C1025 1.327 . S
C1027 C1043 1.429 . S
C1027 H1049 0.950 . S
C1028 H1024 0.949 . S
C1028 C1036 1.574 . S
C1028 C1044 1.368 . S
H1029 C1037 0.950 . S
H1030 C1035 0.950 . S
H1031 C1036 0.949 . S
H1032 C1038 0.950 . S
H1033 C1039 0.950 . S
H1034 C1040 0.949 . S
C1035 H1030 0.950 . S
C1035 C1037 1.327 . S
C1035 C1041 1.429 . S
C1036 C1028 1.574 . S
C1036 H1031 0.949 . S
C1036 C1042 1.368 . S
C1037 C1021 1.349 . S
C1037 H1029 0.950 . S
C1037 C1035 1.327 . S
C1038 C1026 1.349 . S
C1038 H1032 0.950 . S
C1038 C1039 1.327 . S
C1039 H1033 0.950 . S
C1039 C1038 1.327 . S
C1039 C1043 1.429 . S
C1040 C1023 1.574 . S
C1040 H1034 0.949 . S
C1040 C1044 1.368 . S
C1041 C1022 1.429 . S
C1041 C1035 1.429 . S
C1041 C1042 1.523 . S
C1042 C1023 1.368 . S
C1042 C1036 1.368 . S
C1042 C1041 1.523 . S
C1043 C1027 1.429 . S
C1043 C1039 1.429 . S
C1043 C1044 1.523 . S
C1044 C1028 1.368 . S
C1044 C1040 1.368 . S
C1044 C1043 1.523 . S
H1045 C1020 0.950 . S
H1046 C1022 0.950 . S
H1047 C1023 0.949 . S
H1048 C1025 0.950 . S
H1049 C1027 0.950 . S
C1050 C1051 1.349 . S
C1050 C1052 1.327 . S
C1050 H1075 0.950 . S
C1051 C1050 1.349 . S
C1051 C1067 1.349 . S
C1052 C1050 1.327 . S
C1052 C1071 1.429 . S
C1052 H1076 0.950 . S
C1053 C1070 1.574 . S
C1053 C1072 1.368 . S
C1053 H1077 0.949 . S
H1054 C1058 0.949 . S
C1055 C1056 1.349 . S
C1055 C1057 1.327 . S
C1055 H1078 0.950 . S
C1056 C1055 1.349 . S
C1056 C1068 1.349 . S
C1057 C1055 1.327 . S
C1057 C1073 1.429 . S
C1057 H1079 0.950 . S
C1058 H1054 0.949 . S
C1058 C1066 1.574 . S
C1058 C1074 1.368 . S
H1059 C1067 0.950 . S
H1060 C1065 0.950 . S
H1061 C1066 0.949 . S
H1062 C1068 0.950 . S
H1063 C1069 0.950 . S
H1064 C1070 0.949 . S
C1065 H1060 0.950 . S
C1065 C1067 1.327 . S
C1065 C1071 1.429 . S
C1066 C1058 1.574 . S
C1066 H1061 0.949 . S
C1066 C1072 1.368 . S
C1067 C1051 1.349 . S
C1067 H1059 0.950 . S
C1067 C1065 1.327 . S
C1068 C1056 1.349 . S
C1068 H1062 0.950 . S
C1068 C1069 1.327 . S
C1069 H1063 0.950 . S
C1069 C1068 1.327 . S
C1069 C1073 1.429 . S
C1070 C1053 1.574 . S
C1070 H1064 0.949 . S
C1070 C1074 1.368 . S
C1071 C1052 1.429 . S
C1071 C1065 1.429 . S
C1071 C1072 1.523 . S
C1072 C1053 1.368 . S
C1072 C1066 1.368 . S
C1072 C1071 1.523 . S
C1073 C1057 1.429 . S
C1073 C1069 1.429 . S
C1073 C1074 1.523 . S
C1074 C1058 1.368 . S
C1074 C1070 1.368 . S
C1074 C1073 1.523 . S
H1075 C1050 0.950 . S
H1076 C1052 0.950 . S
H1077 C1053 0.949 . S
H1078 C1055 0.950 . S
H1079 C1057 0.950 . S
C1080 C1081 1.349 . S
C1080 C1082 1.327 . S
C1080 H1105 0.950 . S
C1081 C1080 1.349 . S
C1081 C1097 1.349 . S
C1082 C1080 1.327 . S
C1082 C1101 1.429 . S
C1082 H1106 0.950 . S
C1083 C1100 1.574 . S
C1083 C1102 1.368 . S
C1083 H1107 0.949 . S
H1084 C1088 0.949 . S
C1085 C1086 1.349 . S
C1085 C1087 1.327 . S
C1085 H1108 0.950 . S
C1086 C1085 1.349 . S
C1086 C1098 1.349 . S
C1087 C1085 1.327 . S
C1087 C1103 1.429 . S
C1087 H1109 0.950 . S
C1088 H1084 0.949 . S
C1088 C1096 1.574 . S
C1088 C1104 1.368 . S
H1089 C1097 0.950 . S
H1090 C1095 0.950 . S
H1091 C1096 0.949 . S
H1092 C1098 0.950 1_554 S
H1093 C1099 0.950 . S
H1094 C1100 0.949 . S
C1095 H1090 0.950 . S
C1095 C1097 1.327 . S
C1095 C1101 1.429 . S
C1096 C1088 1.574 . S
C1096 H1091 0.949 . S
C1096 C1102 1.368 . S
C1097 C1081 1.349 . S
C1097 H1089 0.950 . S
C1097 C1095 1.327 . S
C1098 C1086 1.349 . S
C1098 H1092 0.950 1_556 S
C1098 C1099 1.327 . S
C1099 H1093 0.950 . S
C1099 C1098 1.327 . S
C1099 C1103 1.429 . S
C1100 C1083 1.574 . S
C1100 H1094 0.949 . S
C1100 C1104 1.368 . S
C1101 C1082 1.429 . S
C1101 C1095 1.429 . S
C1101 C1102 1.523 . S
C1102 C1083 1.368 . S
C1102 C1096 1.368 . S
C1102 C1101 1.523 . S
C1103 C1087 1.429 . S
C1103 C1099 1.429 . S
C1103 C1104 1.523 . S
C1104 C1088 1.368 . S
C1104 C1100 1.368 . S
C1104 C1103 1.523 . S
H1105 C1080 0.950 . S
H1106 C1082 0.950 . S
H1107 C1083 0.949 . S
H1108 C1085 0.950 . S
H1109 C1087 0.950 . S
C1110 C1111 1.349 . S
C1110 C1112 1.327 . S
C1110 H1135 0.950 . S
C1111 C1110 1.349 . S
C1111 C1127 1.349 . S
C1112 C1110 1.327 . S
C1112 C1131 1.429 . S
C1112 H1136 0.950 . S
C1113 C1130 1.574 . S
C1113 C1132 1.368 . S
C1113 H1137 0.949 . S
H1114 C1118 0.952 1_554 S
C1115 C1116 1.349 . S
C1115 C1117 1.327 . S
C1115 H1138 0.950 . S
C1116 C1115 1.349 . S
C1116 C1128 1.349 1_556 S
C1117 C1115 1.327 . S
C1117 C1133 1.429 . S
C1117 H1139 0.950 . S
C1118 H1114 0.952 1_556 S
C1118 C1126 1.574 . S
C1118 C1134 1.368 . S
H1119 C1127 0.950 . S
H1120 C1125 0.950 . S
H1121 C1126 0.949 . S
H1122 C1128 0.950 . S
H1123 C1129 0.950 . S
H1124 C1130 0.949 . S
C1125 H1120 0.950 . S
C1125 C1127 1.327 . S
C1125 C1131 1.429 . S
C1126 C1118 1.574 . S
C1126 H1121 0.949 . S
C1126 C1132 1.368 . S
C1127 C1111 1.349 . S
C1127 H1119 0.950 . S
C1127 C1125 1.327 . S
C1128 C1116 1.349 1_554 S
C1128 H1122 0.950 . S
C1128 C1129 1.327 . S
C1129 H1123 0.950 . S
C1129 C1128 1.327 . S
C1129 C1133 1.429 1_554 S
C1130 C1113 1.574 . S
C1130 H1124 0.949 . S
C1130 C1134 1.368 . S
C1131 C1112 1.429 . S
C1131 C1125 1.429 . S
C1131 C1132 1.523 . S
C1132 C1113 1.368 . S
C1132 C1126 1.368 . S
C1132 C1131 1.523 . S
C1133 C1117 1.429 . S
C1133 C1129 1.429 1_556 S
C1133 C1134 1.523 . S
C1134 C1118 1.368 . S
C1134 C1130 1.368 . S
C1134 C1133 1.523 . S
H1135 C1110 0.950 . S
H1136 C1112 0.950 . S
H1137 C1113 0.949 . S
H1138 C1115 0.950 . S
H1139 C1117 0.950 . S
C1140 C1141 1.349 . S
C1140 C1142 1.327 . S
C1140 H1165 0.950 . S
C1141 C1140 1.349 . S
C1141 C1157 1.349 . S
C1142 C1140 1.327 . S
C1142 C1161 1.429 . S
C1142 H1166 0.950 . S
C1143 C1160 1.574 . S
C1143 C1162 1.368 . S
C1143 H1167 0.949 . S
H1144 C1148 0.949 1_554 S
C1145 C1146 1.398 . S
C1145 C1147 1.327 . S
C1145 H1168 0.950 . S
C1146 C1145 1.398 . S
C1146 C1158 1.316 1_556 S
C1147 C1145 1.327 . S
C1147 C1163 1.429 . S
C1147 H1169 0.950 . S
C1148 H1144 0.949 1_556 S
C1148 C1156 1.574 . S
C1148 C1164 1.368 . S
H1149 C1157 0.950 . S
H1150 C1155 0.950 . S
H1151 C1156 0.949 . S
H1152 C1158 0.950 . S
H1153 C1159 0.950 . S
H1154 C1160 0.949 . S
C1155 H1150 0.950 . S
C1155 C1157 1.327 . S
C1155 C1161 1.429 . S
C1156 C1148 1.574 . S
C1156 H1151 0.949 . S
C1156 C1162 1.368 . S
C1157 C1141 1.349 . S
C1157 H1149 0.950 . S
C1157 C1155 1.327 . S
C1158 C1146 1.316 1_554 S
C1158 H1152 0.950 . S
C1158 C1159 1.327 . S
C1159 H1153 0.950 . S
C1159 C1158 1.327 . S
C1159 C1163 1.429 1_554 S
C1160 C1143 1.574 . S
C1160 H1154 0.949 . S
C1160 C1164 1.368 . S
C1161 C1142 1.429 . S
C1161 C1155 1.429 . S
C1161 C1162 1.523 . S
C1162 C1143 1.368 . S
C1162 C1156 1.368 . S
C1162 C1161 1.523 . S
C1163 C1147 1.429 . S
C1163 C1159 1.429 1_556 S
C1163 C1164 1.523 . S
C1164 C1148 1.368 . S
C1164 C1160 1.368 . S
C1164 C1163 1.523 . S
H1165 C1140 0.950 . S
H1166 C1142 0.950 . S
H1167 C1143 0.949 . S
H1168 C1145 0.950 . S
H1169 C1147 0.950 . S
C1170 C1171 1.349 . S
C1170 C1172 1.327 . S
C1170 H1195 0.950 . S
C1171 C1170 1.349 . S
C1171 C1187 1.349 . S
C1172 C1170 1.327 . S
C1172 C1191 1.429 . S
C1172 H1196 0.950 . S
C1173 C1190 1.574 . S
C1173 C1192 1.368 . S
C1173 H1197 0.949 . S
H1174 C1178 0.949 . S
C1175 C1176 1.349 1_554 S
C1175 C1177 1.327 . S
C1175 H1198 0.950 . S
C1176 C1175 1.349 1_556 S
C1176 C1188 1.349 . S
C1177 C1175 1.327 . S
C1177 C1193 1.429 1_554 S
C1177 H1199 0.950 . S
C1178 H1174 0.949 . S
C1178 C1186 1.574 . S
C1178 C1194 1.368 . S
H1179 C1187 0.950 . S
H1180 C1185 0.950 . S
H1181 C1186 0.949 . S
H1182 C1188 0.950 . S
H1183 C1189 0.950 . S
H1184 C1190 0.949 1_554 S
C1185 H1180 0.950 . S
C1185 C1187 1.327 . S
C1185 C1191 1.429 . S
C1186 C1178 1.574 . S
C1186 H1181 0.949 . S
C1186 C1192 1.368 . S
C1187 C1171 1.349 . S
C1187 H1179 0.950 . S
C1187 C1185 1.327 . S
C1188 C1176 1.349 . S
C1188 H1182 0.950 . S
C1188 C1189 1.327 . S
C1189 H1183 0.950 . S
C1189 C1188 1.327 . S
C1189 C1193 1.429 . S
C1190 C1173 1.574 . S
C1190 H1184 0.949 1_556 S
C1190 C1194 1.368 . S
C1191 C1172 1.429 . S
C1191 C1185 1.429 . S
C1191 C1192 1.523 . S
C1192 C1173 1.368 . S
C1192 C1186 1.368 . S
C1192 C1191 1.523 . S
C1193 C1177 1.429 1_556 S
C1193 C1189 1.429 . S
C1193 C1194 1.523 . S
C1194 C1178 1.368 . S
C1194 C1190 1.368 . S
C1194 C1193 1.523 . S
H1195 C1170 0.950 . S
H1196 C1172 0.950 . S
H1197 C1173 0.949 . S
H1198 C1175 0.950 . S
H1199 C1177 0.950 . S
C1200 C1201 1.349 . S
C1200 C1202 1.327 . S
C1200 H1225 0.950 . S
C1201 C1200 1.349 . S
C1201 C1217 1.349 . S
C1202 C1200 1.327 . S
C1202 C1221 1.429 . S
C1202 H1226 0.950 . S
C1203 C1220 1.574 . S
C1203 C1222 1.368 . S
C1203 H1227 0.949 . S
H1204 C1208 0.949 . S
C1205 C1206 1.349 1_554 S
C1205 C1207 1.336 . S
C1205 H1228 0.950 . S
C1206 C1205 1.349 1_556 S
C1206 C1218 1.349 . S
C1207 C1205 1.336 . S
C1207 C1223 1.402 1_554 S
C1207 H1229 0.968 . S
C1208 H1204 0.949 . S
C1208 C1216 1.574 . S
C1208 C1224 1.368 . S
H1209 C1217 0.950 . S
H1210 C1215 0.950 . S
H1211 C1216 0.949 . S
H1212 C1218 0.950 . S
H1213 C1219 0.950 . S
H1214 C1220 0.928 1_554 S
C1215 H1210 0.950 . S
C1215 C1217 1.327 . S
C1215 C1221 1.429 . S
C1216 C1208 1.574 . S
C1216 H1211 0.949 . S
C1216 C1222 1.368 . S
C1217 C1201 1.349 . S
C1217 H1209 0.950 . S
C1217 C1215 1.327 . S
C1218 C1206 1.349 . S
C1218 H1212 0.950 . S
C1218 C1219 1.327 . S
C1219 H1213 0.950 . S
C1219 C1218 1.327 . S
C1219 C1223 1.429 . S
C1220 C1203 1.574 . S
C1220 H1214 0.928 1_556 S
C1220 C1224 1.368 . S
C1221 C1202 1.429 . S
C1221 C1215 1.429 . S
C1221 C1222 1.523 . S
C1222 C1203 1.368 . S
C1222 C1216 1.368 . S
C1222 C1221 1.523 . S
C1223 C1207 1.402 1_556 S
C1223 C1219 1.429 . S
C1223 C1224 1.523 . S
C1224 C1208 1.368 . S
C1224 C1220 1.368 . S
C1224 C1223 1.523 . S
H1225 C1200 0.950 . S
H1226 C1202 0.950 . S
H1227 C1203 0.949 . S
H1228 C1205 0.950 . S
H1229 C1207 0.968 . S
C1230 C1231 1.349 . S
C1230 C1232 1.327 . S
C1230 H1255 0.950 . S
C1231 C1230 1.349 . S
C1231 C1247 1.349 . S
C1232 C1230 1.327 . S
C1232 C1251 1.429 . S
C1232 H1256 0.950 . S
C1233 C1250 1.574 . S
C1233 C1252 1.368 . S
C1233 H1257 0.949 . S
H1234 C1238 0.949 . S
C1235 C1236 1.359 . S
C1235 C1237 1.327 . S
C1235 H1258 0.950 . S
C1236 C1235 1.359 . S
C1236 C1248 1.344 1_556 S
C1237 C1235 1.327 . S
C1237 C1253 1.429 . S
C1237 H1259 0.950 . S
C1238 H1234 0.949 . S
C1238 C1246 1.574 . S
C1238 C1254 1.368 . S
H1239 C1247 0.950 . S
H1240 C1245 0.950 . S
H1241 C1246 0.949 . S
H1242 C1248 0.950 . S
H1243 C1249 0.941 1_554 S
H1244 C1250 0.949 . S
C1245 H1240 0.950 . S
C1245 C1247 1.327 . S
C1245 C1251 1.429 . S
C1246 C1238 1.574 . S
C1246 H1241 0.949 . S
C1246 C1252 1.368 . S
C1247 C1231 1.349 . S
C1247 H1239 0.950 . S
C1247 C1245 1.327 . S
C1248 C1236 1.344 1_554 S
C1248 H1242 0.950 . S
C1248 C1249 1.319 1_554 S
C1249 H1243 0.941 1_556 S
C1249 C1248 1.319 1_556 S
C1249 C1253 1.447 . S
C1250 C1233 1.574 . S
C1250 H1244 0.949 . S
C1250 C1254 1.368 . S
C1251 C1232 1.429 . S
C1251 C1245 1.429 . S
C1251 C1252 1.523 . S
C1252 C1233 1.368 . S
C1252 C1246 1.368 . S
C1252 C1251 1.523 . S
C1253 C1237 1.429 . S
C1253 C1249 1.447 . S
C1253 C1254 1.523 . S
C1254 C1238 1.368 . S
C1254 C1250 1.368 . S
C1254 C1253 1.523 . S
H1255 C1230 0.950 . S
H1256 C1232 0.950 . S
H1257 C1233 0.949 . S
H1258 C1235 0.950 . S
H1259 C1237 0.950 . S
C1260 C1261 1.349 . S
C1260 C1262 1.327 . S
C1260 H1285 0.950 . S
C1261 C1260 1.349 . S
C1261 C1277 1.349 . S
C1262 C1260 1.327 . S
C1262 C1281 1.429 . S
C1262 H1286 0.950 . S
C1263 C1280 1.574 . S
C1263 C1282 1.368 . S
C1263 H1287 0.949 . S
H1264 C1268 0.949 . S
C1265 C1266 1.349 . S
C1265 C1267 1.327 . S
C1265 H1288 0.950 . S
C1266 C1265 1.349 . S
C1266 C1278 1.349 . S
C1267 C1265 1.327 . S
C1267 C1283 1.429 . S
C1267 H1289 0.950 . S
C1268 H1264 0.949 . S
C1268 C1276 1.574 . S
C1268 C1284 1.368 . S
H1269 C1277 0.950 . S
H1270 C1275 0.950 . S
H1271 C1276 0.949 . S
H1272 C1278 0.950 . S
H1273 C1279 0.950 . S
H1274 C1280 0.949 . S
C1275 H1270 0.950 . S
C1275 C1277 1.327 . S
C1275 C1281 1.429 . S
C1276 C1268 1.574 . S
C1276 H1271 0.949 . S
C1276 C1282 1.368 . S
C1277 C1261 1.349 . S
C1277 H1269 0.950 . S
C1277 C1275 1.327 . S
C1278 C1266 1.349 . S
C1278 H1272 0.950 . S
C1278 C1279 1.327 . S
C1279 H1273 0.950 . S
C1279 C1278 1.327 . S
C1279 C1283 1.429 . S
C1280 C1263 1.574 . S
C1280 H1274 0.949 . S
C1280 C1284 1.368 . S
C1281 C1262 1.429 . S
C1281 C1275 1.429 . S
C1281 C1282 1.523 . S
C1282 C1263 1.368 . S
C1282 C1276 1.368 . S
C1282 C1281 1.523 . S
C1283 C1267 1.429 . S
C1283 C1279 1.429 . S
C1283 C1284 1.523 . S
C1284 C1268 1.368 . S
C1284 C1280 1.368 . S
C1284 C1283 1.523 . S
H1285 C1260 0.950 . S
H1286 C1262 0.950 . S
H1287 C1263 0.949 . S
H1288 C1265 0.950 . S
H1289 C1267 0.950 . S
C1290 C1291 1.349 . S
C1290 C1292 1.327 . S
C1290 H1315 0.950 . S
C1291 C1290 1.349 . S
C1291 C1307 1.349 . S
C1292 C1290 1.327 . S
C1292 C1311 1.429 . S
C1292 H1316 0.950 . S
C1293 C1310 1.574 . S
C1293 C1312 1.368 . S
C1293 H1317 0.949 . S
H1294 C1298 0.949 . S
C1295 C1296 1.349 . S
C1295 C1297 1.327 . S
C1295 H1318 0.950 . S
C1296 C1295 1.349 . S
C1296 C1308 1.349 . S
C1297 C1295 1.327 . S
C1297 C1313 1.429 . S
C1297 H1319 0.950 . S
C1298 H1294 0.949 . S
C1298 C1306 1.574 . S
C1298 C1314 1.368 . S
H1299 C1307 0.950 . S
H1300 C1305 0.950 . S
H1301 C1306 0.949 . S
H1302 C1308 0.950 . S
H1303 C1309 0.950 . S
H1304 C1310 0.949 . S
C1305 H1300 0.950 . S
C1305 C1307 1.327 . S
C1305 C1311 1.429 . S
C1306 C1298 1.574 . S
C1306 H1301 0.949 . S
C1306 C1312 1.368 . S
C1307 C1291 1.349 . S
C1307 H1299 0.950 . S
C1307 C1305 1.327 . S
C1308 C1296 1.349 . S
C1308 H1302 0.950 . S
C1308 C1309 1.327 . S
C1309 H1303 0.950 . S
C1309 C1308 1.327 . S
C1309 C1313 1.429 . S
C1310 C1293 1.574 . S
C1310 H1304 0.949 . S
C1310 C1314 1.368 . S
C1311 C1292 1.429 . S
C1311 C1305 1.429 . S
C1311 C1312 1.523 . S
C1312 C1293 1.368 . S
C1312 C1306 1.368 . S
C1312 C1311 1.523 . S
C1313 C1297 1.429 . S
C1313 C1309 1.429 . S
C1313 C1314 1.523 . S
C1314 C1298 1.368 . S
C1314 C1310 1.368 . S
C1314 C1313 1.523 . S
H1315 C1290 0.950 . S
H1316 C1292 0.950 . S
H1317 C1293 0.949 . S
H1318 C1295 0.950 . S
H1319 C1297 0.950 . S
C1320 C1321 1.349 . S
C1320 C1322 1.327 . S
C1320 H1345 0.950 . S
C1321 C1320 1.349 . S
C1321 C1337 1.349 . S
C1322 C1320 1.327 . S
C1322 C1341 1.429 . S
C1322 H1346 0.950 . S
C1323 C1340 1.574 . S
C1323 C1342 1.368 . S
C1323 H1347 0.949 . S
H1324 C1328 0.949 . S
C1325 C1326 1.349 . S
C1325 C1327 1.327 . S
C1325 H1348 0.950 . S
C1326 C1325 1.349 . S
C1326 C1338 1.349 . S
C1327 C1325 1.327 . S
C1327 C1343 1.429 . S
C1327 H1349 0.950 . S
C1328 H1324 0.949 . S
C1328 C1336 1.574 . S
C1328 C1344 1.368 . S
H1329 C1337 0.950 . S
H1330 C1335 0.950 . S
H1331 C1336 0.949 . S
H1332 C1338 0.950 . S
H1333 C1339 0.950 . S
H1334 C1340 0.949 . S
C1335 H1330 0.950 . S
C1335 C1337 1.327 . S
C1335 C1341 1.429 . S
C1336 C1328 1.574 . S
C1336 H1331 0.949 . S
C1336 C1342 1.368 . S
C1337 C1321 1.349 . S
C1337 H1329 0.950 . S
C1337 C1335 1.327 . S
C1338 C1326 1.349 . S
C1338 H1332 0.950 . S
C1338 C1339 1.327 . S
C1339 H1333 0.950 . S
C1339 C1338 1.327 . S
C1339 C1343 1.429 . S
C1340 C1323 1.574 . S
C1340 H1334 0.949 . S
C1340 C1344 1.368 . S
C1341 C1322 1.429 . S
C1341 C1335 1.429 . S
C1341 C1342 1.523 . S
C1342 C1323 1.368 . S
C1342 C1336 1.368 . S
C1342 C1341 1.523 . S
C1343 C1327 1.429 . S
C1343 C1339 1.429 . S
C1343 C1344 1.523 . S
C1344 C1328 1.368 . S
C1344 C1340 1.368 . S
C1344 C1343 1.523 . S
H1345 C1320 0.950 . S
H1346 C1322 0.950 . S
H1347 C1323 0.949 . S
H1348 C1325 0.950 . S
H1349 C1327 0.950 . S
C1350 C1351 1.349 . S
C1350 C1352 1.327 . S
C1350 H1375 0.950 . S
C1351 C1350 1.349 . S
C1351 C1367 1.349 . S
C1352 C1350 1.327 . S
C1352 C1371 1.429 . S
C1352 H1376 0.950 . S
C1353 C1370 1.574 1_655 S
C1353 C1372 1.368 . S
C1353 H1377 0.949 . S
H1354 C1358 0.949 . S
C1355 C1356 1.349 . S
C1355 C1357 1.327 . S
C1355 H1378 0.950 . S
C1356 C1355 1.349 . S
C1356 C1368 1.349 . S
C1357 C1355 1.327 . S
C1357 C1373 1.429 . S
C1357 H1379 0.950 . S
C1358 H1354 0.949 . S
C1358 C1366 1.574 . S
C1358 C1374 1.368 . S
H1359 C1367 0.950 . S
H1360 C1365 0.950 . S
H1361 C1366 0.949 1_655 S
H1362 C1368 0.950 . S
H1363 C1369 0.950 . S
H1364 C1370 0.949 . S
C1365 H1360 0.950 . S
C1365 C1367 1.327 . S
C1365 C1371 1.429 . S
C1366 C1358 1.574 . S
C1366 H1361 0.949 1_455 S
C1366 C1372 1.368 1_455 S
C1367 C1351 1.349 . S
C1367 H1359 0.950 . S
C1367 C1365 1.327 . S
C1368 C1356 1.349 . S
C1368 H1362 0.950 . S
C1368 C1369 1.327 . S
C1369 H1363 0.950 . S
C1369 C1368 1.327 . S
C1369 C1373 1.429 . S
C1370 C1353 1.574 1_455 S
C1370 H1364 0.949 . S
C1370 C1374 1.368 . S
C1371 C1352 1.429 . S
C1371 C1365 1.429 . S
C1371 C1372 1.523 . S
C1372 C1353 1.368 . S
C1372 C1366 1.368 1_655 S
C1372 C1371 1.523 . S
C1373 C1357 1.429 . S
C1373 C1369 1.429 . S
C1373 C1374 1.523 . S
C1374 C1358 1.368 . S
C1374 C1370 1.368 . S
C1374 C1373 1.523 . S
H1375 C1350 0.950 . S
H1376 C1352 0.950 . S
H1377 C1353 0.949 . S
H1378 C1355 0.950 . S
H1379 C1357 0.950 . S
C1380 C1381 1.349 . S
C1380 C1382 1.327 . S
C1380 H1405 0.950 . S
C1381 C1380 1.349 . S
C1381 C1397 1.349 . S
C1382 C1380 1.327 . S
C1382 C1401 1.429 . S
C1382 H1406 0.950 . S
C1383 C1400 1.574 . S
C1383 C1402 1.368 . S
C1383 H1407 0.949 . S
H1384 C1388 0.949 . S
C1385 C1386 1.349 . S
C1385 C1387 1.327 . S
C1385 H1408 0.950 . S
C1386 C1385 1.349 . S
C1386 C1398 1.349 . S
C1387 C1385 1.327 . S
C1387 C1403 1.429 . S
C1387 H1409 0.950 . S
C1388 H1384 0.949 . S
C1388 C1396 1.574 . S
C1388 C1404 1.368 . S
H1389 C1397 0.950 . S
H1390 C1395 0.950 . S
H1391 C1396 0.949 . S
H1392 C1398 0.950 . S
H1393 C1399 0.950 . S
H1394 C1400 0.949 . S
C1395 H1390 0.950 . S
C1395 C1397 1.327 . S
C1395 C1401 1.429 . S
C1396 C1388 1.574 . S
C1396 H1391 0.949 . S
C1396 C1402 1.368 . S
C1397 C1381 1.349 . S
C1397 H1389 0.950 . S
C1397 C1395 1.327 . S
C1398 C1386 1.349 . S
C1398 H1392 0.950 . S
C1398 C1399 1.327 . S
C1399 H1393 0.950 . S
C1399 C1398 1.327 . S
C1399 C1403 1.429 . S
C1400 C1383 1.574 . S
C1400 H1394 0.949 . S
C1400 C1404 1.368 . S
C1401 C1382 1.429 . S
C1401 C1395 1.429 . S
C1401 C1402 1.523 . S
C1402 C1383 1.368 . S
C1402 C1396 1.368 . S
C1402 C1401 1.523 . S
C1403 C1387 1.429 . S
C1403 C1399 1.429 . S
C1403 C1404 1.523 . S
C1404 C1388 1.368 . S
C1404 C1400 1.368 . S
C1404 C1403 1.523 . S
H1405 C1380 0.950 . S
H1406 C1382 0.950 . S
H1407 C1383 0.949 . S
H1408 C1385 0.950 . S
H1409 C1387 0.950 . S
C1410 C1411 1.349 . S
C1410 C1412 1.327 . S
C1410 H1435 0.950 . S
C1411 C1410 1.349 . S
C1411 C1427 1.349 . S
C1412 C1410 1.327 . S
C1412 C1431 1.429 . S
C1412 H1436 0.950 . S
C1413 C1430 1.574 . S
C1413 C1432 1.368 . S
C1413 H1437 0.949 . S
H1414 C1418 0.949 . S
C1415 C1416 1.349 . S
C1415 C1417 1.327 . S
C1415 H1438 0.950 . S
C1416 C1415 1.349 . S
C1416 C1428 1.349 . S
C1417 C1415 1.327 . S
C1417 C1433 1.429 . S
C1417 H1439 0.950 . S
C1418 H1414 0.949 . S
C1418 C1426 1.574 1_565 S
C1418 C1434 1.368 . S
H1419 C1427 0.950 . S
H1420 C1425 0.950 . S
H1421 C1426 0.949 . S
H1422 C1428 0.950 . S
H1423 C1429 0.950 . S
H1424 C1430 0.949 . S
C1425 H1420 0.950 . S
C1425 C1427 1.327 . S
C1425 C1431 1.429 . S
C1426 C1418 1.574 1_545 S
C1426 H1421 0.949 . S
C1426 C1432 1.368 . S
C1427 C1411 1.349 . S
C1427 H1419 0.950 . S
C1427 C1425 1.327 . S
C1428 C1416 1.349 . S
C1428 H1422 0.950 . S
C1428 C1429 1.327 . S
C1429 H1423 0.950 . S
C1429 C1428 1.327 . S
C1429 C1433 1.429 . S
C1430 C1413 1.574 . S
C1430 H1424 0.949 . S
C1430 C1434 1.368 1_545 S
C1431 C1412 1.429 . S
C1431 C1425 1.429 . S
C1431 C1432 1.523 . S
C1432 C1413 1.368 . S
C1432 C1426 1.368 . S
C1432 C1431 1.523 . S
C1433 C1417 1.429 . S
C1433 C1429 1.429 . S
C1433 C1434 1.523 . S
C1434 C1418 1.368 . S
C1434 C1430 1.368 1_565 S
C1434 C1433 1.523 . S
H1435 C1410 0.950 . S
H1436 C1412 0.950 . S
H1437 C1413 0.949 . S
H1438 C1415 0.950 . S
H1439 C1417 0.950 . S
C1440 C1441 1.349 . S
C1440 C1442 1.327 . S
C1440 H1465 0.950 . S
C1441 C1440 1.349 . S
C1441 C1457 1.349 . S
C1442 C1440 1.327 . S
C1442 C1461 1.429 . S
C1442 H1466 0.950 . S
C1443 C1460 1.574 . S
C1443 C1462 1.368 . S
C1443 H1467 0.949 . S
H1444 C1448 0.949 . S
C1445 C1446 1.349 . S
C1445 C1447 1.327 . S
C1445 H1468 0.950 . S
C1446 C1445 1.349 . S
C1446 C1458 1.349 . S
C1447 C1445 1.327 . S
C1447 C1463 1.429 . S
C1447 H1469 0.950 . S
C1448 H1444 0.949 . S
C1448 C1456 1.574 . S
C1448 C1464 1.368 . S
H1449 C1457 0.950 . S
H1450 C1455 0.950 . S
H1451 C1456 0.949 . S
H1452 C1458 0.950 . S
H1453 C1459 0.950 . S
H1454 C1460 0.949 . S
C1455 H1450 0.950 . S
C1455 C1457 1.327 . S
C1455 C1461 1.429 . S
C1456 C1448 1.574 . S
C1456 H1451 0.949 . S
C1456 C1462 1.368 . S
C1457 C1441 1.349 . S
C1457 H1449 0.950 . S
C1457 C1455 1.327 . S
C1458 C1446 1.349 . S
C1458 H1452 0.950 . S
C1458 C1459 1.327 . S
C1459 H1453 0.950 . S
C1459 C1458 1.327 . S
C1459 C1463 1.429 . S
C1460 C1443 1.574 . S
C1460 H1454 0.949 . S
C1460 C1464 1.368 . S
C1461 C1442 1.429 . S
C1461 C1455 1.429 . S
C1461 C1462 1.523 . S
C1462 C1443 1.368 . S
C1462 C1456 1.368 . S
C1462 C1461 1.523 . S
C1463 C1447 1.429 . S
C1463 C1459 1.429 . S
C1463 C1464 1.523 . S
C1464 C1448 1.368 . S
C1464 C1460 1.368 . S
C1464 C1463 1.523 . S
H1465 C1440 0.950 . S
H1466 C1442 0.950 . S
H1467 C1443 0.949 . S
H1468 C1445 0.950 . S
H1469 C1447 0.950 . S
C1470 C1471 1.349 . S
C1470 C1472 1.327 . S
C1470 H1495 0.950 . S
C1471 C1470 1.349 . S
C1471 C1487 1.349 . S
C1472 C1470 1.327 . S
C1472 C1491 1.429 . S
C1472 H1496 0.950 . S
C1473 C1490 1.574 . S
C1473 C1492 1.368 . S
C1473 H1497 0.949 . S
H1474 C1478 0.949 . S
C1475 C1476 1.349 . S
C1475 C1477 1.327 . S
C1475 H1498 0.950 . S
C1476 C1475 1.349 . S
C1476 C1488 1.349 . S
C1477 C1475 1.327 . S
C1477 C1493 1.429 . S
C1477 H1499 0.950 . S
C1478 H1474 0.949 . S
C1478 C1486 1.574 . S
C1478 C1494 1.368 . S
H1479 C1487 0.950 . S
H1480 C1485 0.950 . S
H1481 C1486 0.949 . S
H1482 C1488 0.950 . S
H1483 C1489 0.950 . S
H1484 C1490 0.949 . S
C1485 H1480 0.950 . S
C1485 C1487 1.327 . S
C1485 C1491 1.429 . S
C1486 C1478 1.574 . S
C1486 H1481 0.949 . S
C1486 C1492 1.368 . S
C1487 C1471 1.349 . S
C1487 H1479 0.950 . S
C1487 C1485 1.327 . S
C1488 C1476 1.349 . S
C1488 H1482 0.950 . S
C1488 C1489 1.327 . S
C1489 H1483 0.950 . S
C1489 C1488 1.327 . S
C1489 C1493 1.429 . S
C1490 C1473 1.574 . S
C1490 H1484 0.949 . S
C1490 C1494 1.368 . S
C1491 C1472 1.429 . S
C1491 C1485 1.429 . S
C1491 C1492 1.523 . S
C1492 C1473 1.368 . S
C1492 C1486 1.368 . S
C1492 C1491 1.523 . S
C1493 C1477 1.429 . S
C1493 C1489 1.429 . S
C1493 C1494 1.523 . S
C1494 C1478 1.368 . S
C1494 C1490 1.368 . S
C1494 C1493 1.523 . S
H1495 C1470 0.950 . S
H1496 C1472 0.950 . S
H1497 C1473 0.949 . S
H1498 C1475 0.950 . S
H1499 C1477 0.950 . S
C1500 C1501 1.349 . S
C1500 C1502 1.327 . S
C1500 H1525 0.950 . S
C1501 C1500 1.349 . S
C1501 C1517 1.349 . S
C1502 C1500 1.327 . S
C1502 C1521 1.429 . S
C1502 H1526 0.950 . S
C1503 C1520 1.574 . S
C1503 C1522 1.368 . S
C1503 H1527 0.949 . S
H1504 C1508 0.949 . S
C1505 C1506 1.349 . S
C1505 C1507 1.327 . S
C1505 H1528 0.950 . S
C1506 C1505 1.349 . S
C1506 C1518 1.349 . S
C1507 C1505 1.327 . S
C1507 C1523 1.429 . S
C1507 H1529 0.950 . S
C1508 H1504 0.949 . S
C1508 C1516 1.574 . S
C1508 C1524 1.368 . S
H1509 C1517 0.950 . S
H1510 C1515 0.950 . S
H1511 C1516 0.949 . S
H1512 C1518 0.950 . S
H1513 C1519 0.950 . S
H1514 C1520 0.949 . S
C1515 H1510 0.950 . S
C1515 C1517 1.327 . S
C1515 C1521 1.429 . S
C1516 C1508 1.574 . S
C1516 H1511 0.949 . S
C1516 C1522 1.368 . S
C1517 C1501 1.349 . S
C1517 H1509 0.950 . S
C1517 C1515 1.327 . S
C1518 C1506 1.349 . S
C1518 H1512 0.950 . S
C1518 C1519 1.327 . S
C1519 H1513 0.950 . S
C1519 C1518 1.327 . S
C1519 C1523 1.429 . S
C1520 C1503 1.574 . S
C1520 H1514 0.949 . S
C1520 C1524 1.368 . S
C1521 C1502 1.429 . S
C1521 C1515 1.429 . S
C1521 C1522 1.523 . S
C1522 C1503 1.368 . S
C1522 C1516 1.368 . S
C1522 C1521 1.523 . S
C1523 C1507 1.429 . S
C1523 C1519 1.429 . S
C1523 C1524 1.523 . S
C1524 C1508 1.368 . S
C1524 C1520 1.368 . S
C1524 C1523 1.523 . S
H1525 C1500 0.950 . S
H1526 C1502 0.950 . S
H1527 C1503 0.949 . S
H1528 C1505 0.950 . S
H1529 C1507 0.950 . S
C1530 C1531 1.349 . S
C1530 C1532 1.327 . S
C1530 H1555 0.950 . S
C1531 C1530 1.349 . S
C1531 C1547 1.349 . S
C1532 C1530 1.327 . S
C1532 C1551 1.429 . S
C1532 H1556 0.950 . S
C1533 C1550 1.574 . S
C1533 C1552 1.368 . S
C1533 H1557 0.949 . S
H1534 C1538 0.949 . S
C1535 C1536 1.349 . S
C1535 C1537 1.327 . S
C1535 H1558 0.950 . S
C1536 C1535 1.349 . S
C1536 C1548 1.349 . S
C1537 C1535 1.327 . S
C1537 C1553 1.429 . S
C1537 H1559 0.950 . S
C1538 H1534 0.949 . S
C1538 C1546 1.574 . S
C1538 C1554 1.368 . S
H1539 C1547 0.950 . S
H1540 C1545 0.950 . S
H1541 C1546 0.949 . S
H1542 C1548 0.950 . S
H1543 C1549 0.950 . S
H1544 C1550 0.949 . S
C1545 H1540 0.950 . S
C1545 C1547 1.327 . S
C1545 C1551 1.429 . S
C1546 C1538 1.574 . S
C1546 H1541 0.949 . S
C1546 C1552 1.368 . S
C1547 C1531 1.349 . S
C1547 H1539 0.950 . S
C1547 C1545 1.327 . S
C1548 C1536 1.349 . S
C1548 H1542 0.950 . S
C1548 C1549 1.327 . S
C1549 H1543 0.950 . S
C1549 C1548 1.327 . S
C1549 C1553 1.429 . S
C1550 C1533 1.574 . S
C1550 H1544 0.949 . S
C1550 C1554 1.368 . S
C1551 C1532 1.429 . S
C1551 C1545 1.429 . S
C1551 C1552 1.523 . S
C1552 C1533 1.368 . S
C1552 C1546 1.368 . S
C1552 C1551 1.523 . S
C1553 C1537 1.429 . S
C1553 C1549 1.429 . S
C1553 C1554 1.523 . S
C1554 C1538 1.368 . S
C1554 C1550 1.368 . S
C1554 C1553 1.523 . S
H1555 C1530 0.950 . S
H1556 C1532 0.950 . S
H1557 C1533 0.949 . S
H1558 C1535 0.950 . S
H1559 C1537 0.950 . S
C1560 C1561 1.349 . S
C1560 C1562 1.327 . S
C1560 H1585 0.950 . S
C1561 C1560 1.349 . S
C1561 C1577 1.349 . S
C1562 C1560 1.327 . S
C1562 C1581 1.429 . S
C1562 H1586 0.950 . S
C1563 C1580 1.574 . S
C1563 C1582 1.368 . S
C1563 H1587 0.949 . S
H1564 C1568 0.949 . S
C1565 C1566 1.349 . S
C1565 C1567 1.327 . S
C1565 H1588 0.950 . S
C1566 C1565 1.349 . S
C1566 C1578 1.349 . S
C1567 C1565 1.327 . S
C1567 C1583 1.429 . S
C1567 H1589 0.950 . S
C1568 H1564 0.949 . S
C1568 C1576 1.574 . S
C1568 C1584 1.368 . S
H1569 C1577 0.950 . S
H1570 C1575 0.950 . S
H1571 C1576 0.949 . S
H1572 C1578 0.950 . S
H1573 C1579 0.950 . S
H1574 C1580 0.949 . S
C1575 H1570 0.950 . S
C1575 C1577 1.327 . S
C1575 C1581 1.429 . S
C1576 C1568 1.574 . S
C1576 H1571 0.949 . S
C1576 C1582 1.368 . S
C1577 C1561 1.349 . S
C1577 H1569 0.950 . S
C1577 C1575 1.327 . S
C1578 C1566 1.349 . S
C1578 H1572 0.950 . S
C1578 C1579 1.327 . S
C1579 H1573 0.950 . S
C1579 C1578 1.327 . S
C1579 C1583 1.429 . S
C1580 C1563 1.574 . S
C1580 H1574 0.949 . S
C1580 C1584 1.368 . S
C1581 C1562 1.429 . S
C1581 C1575 1.429 . S
C1581 C1582 1.523 . S
C1582 C1563 1.368 . S
C1582 C1576 1.368 . S
C1582 C1581 1.523 . S
C1583 C1567 1.429 . S
C1583 C1579 1.429 . S
C1583 C1584 1.523 . S
C1584 C1568 1.368 . S
C1584 C1580 1.368 . S
C1584 C1583 1.523 . S
H1585 C1560 0.950 . S
H1586 C1562 0.950 . S
H1587 C1563 0.949 . S
H1588 C1565 0.950 . S
H1589 C1567 0.950 . S
C1590 C1591 1.349 . S
C1590 C1592 1.327 . S
C1590 H1615 0.950 . S
C1591 C1590 1.349 . S
C1591 C1607 1.349 . S
C1592 C1590 1.327 . S
C1592 C1611 1.429 . S
C1592 H1616 0.950 . S
C1593 C1610 1.574 . S
C1593 C1612 1.368 . S
C1593 H1617 0.949 . S
H1594 C1598 0.949 . S
C1595 C1596 1.349 . S
C1595 C1597 1.327 . S
C1595 H1618 0.950 . S
C1596 C1595 1.349 . S
C1596 C1608 1.349 . S
C1597 C1595 1.327 . S
C1597 C1613 1.429 . S
C1597 H1619 0.950 . S
C1598 H1594 0.949 . S
C1598 C1606 1.574 . S
C1598 C1614 1.368 . S
H1599 C1607 0.950 . S
H1600 C1605 0.950 . S
H1601 C1606 0.949 . S
H1602 C1608 0.950 . S
H1603 C1609 0.950 . S
H1604 C1610 0.949 . S
C1605 H1600 0.950 . S
C1605 C1607 1.327 . S
C1605 C1611 1.429 . S
C1606 C1598 1.574 . S
C1606 H1601 0.949 . S
C1606 C1612 1.368 . S
C1607 C1591 1.349 . S
C1607 H1599 0.950 . S
C1607 C1605 1.327 . S
C1608 C1596 1.349 . S
C1608 H1602 0.950 . S
C1608 C1609 1.327 . S
C1609 H1603 0.950 . S
C1609 C1608 1.327 . S
C1609 C1613 1.429 . S
C1610 C1593 1.574 . S
C1610 H1604 0.949 . S
C1610 C1614 1.368 . S
C1611 C1592 1.429 . S
C1611 C1605 1.429 . S
C1611 C1612 1.523 . S
C1612 C1593 1.368 . S
C1612 C1606 1.368 . S
C1612 C1611 1.523 . S
C1613 C1597 1.429 . S
C1613 C1609 1.429 . S
C1613 C1614 1.523 . S
C1614 C1598 1.368 . S
C1614 C1610 1.368 . S
C1614 C1613 1.523 . S
H1615 C1590 0.950 . S
H1616 C1592 0.950 . S
H1617 C1593 0.949 . S
H1618 C1595 0.950 . S
H1619 C1597 0.950 . S
C1620 C1621 1.349 . S
C1620 C1622 1.327 . S
C1620 H1645 0.950 . S
C1621 C1620 1.349 . S
C1621 C1637 1.349 . S
C1622 C1620 1.327 . S
C1622 C1641 1.429 1_545 S
C1622 H1646 0.950 1_545 S
C1623 C1640 1.574 . S
C1623 C1642 1.368 . S
C1623 H1647 0.949 . S
H1624 C1628 0.949 . S
C1625 C1626 1.349 . S
C1625 C1627 1.327 . S
C1625 H1648 0.950 . S
C1626 C1625 1.349 . S
C1626 C1638 1.349 . S
C1627 C1625 1.327 . S
C1627 C1643 1.429 . S
C1627 H1649 0.950 . S
C1628 H1624 0.949 . S
C1628 C1636 1.574 . S
C1628 C1644 1.368 . S
H1629 C1637 0.950 . S
H1630 C1635 0.950 . S
H1631 C1636 0.949 . S
H1632 C1638 0.950 . S
H1633 C1639 0.950 . S
H1634 C1640 0.949 . S
C1635 H1630 0.950 . S
C1635 C1637 1.327 . S
C1635 C1641 1.429 1_545 S
C1636 C1628 1.574 . S
C1636 H1631 0.949 . S
C1636 C1642 1.368 . S
C1637 C1621 1.349 . S
C1637 H1629 0.950 . S
C1637 C1635 1.327 . S
C1638 C1626 1.349 . S
C1638 H1632 0.950 . S
C1638 C1639 1.327 . S
C1639 H1633 0.950 . S
C1639 C1638 1.327 . S
C1639 C1643 1.429 . S
C1640 C1623 1.574 . S
C1640 H1634 0.949 . S
C1640 C1644 1.368 . S
C1641 C1622 1.429 1_565 S
C1641 C1635 1.429 1_565 S
C1641 C1642 1.523 . S
C1642 C1623 1.368 . S
C1642 C1636 1.368 . S
C1642 C1641 1.523 . S
C1643 C1627 1.429 . S
C1643 C1639 1.429 . S
C1643 C1644 1.523 . S
C1644 C1628 1.368 . S
C1644 C1640 1.368 . S
C1644 C1643 1.523 . S
H1645 C1620 0.950 . S
H1646 C1622 0.950 1_565 S
H1647 C1623 0.949 . S
H1648 C1625 0.950 . S
H1649 C1627 0.950 . S
C1650 C1651 1.349 . S
C1650 C1652 1.327 1_655 S
C1650 H1675 0.950 . S
C1651 C1650 1.349 . S
C1651 C1667 1.349 . S
C1652 C1650 1.327 1_455 S
C1652 C1671 1.429 . S
C1652 H1676 0.950 . S
C1653 C1670 1.574 . S
C1653 C1672 1.368 . S
C1653 H1677 0.949 . S
H1654 C1658 0.949 . S
C1655 C1656 1.349 . S
C1655 C1657 1.327 . S
C1655 H1678 0.950 . S
C1656 C1655 1.349 . S
C1656 C1668 1.349 . S
C1657 C1655 1.327 . S
C1657 C1673 1.429 . S
C1657 H1679 0.950 . S
C1658 H1654 0.949 . S
C1658 C1666 1.574 . S
C1658 C1674 1.368 . S
H1659 C1667 0.950 . S
H1660 C1665 0.951 1_455 S
H1661 C1666 0.949 . S
H1662 C1668 0.950 . S
H1663 C1669 0.950 . S
H1664 C1670 0.949 . S
C1665 H1660 0.951 1_655 S
C1665 C1667 1.323 . S
C1665 C1671 1.431 1_655 S
C1666 C1658 1.574 . S
C1666 H1661 0.949 . S
C1666 C1672 1.368 . S
C1667 C1651 1.349 . S
C1667 H1659 0.950 . S
C1667 C1665 1.323 . S
C1668 C1656 1.349 . S
C1668 H1662 0.950 . S
C1668 C1669 1.327 . S
C1669 H1663 0.950 . S
C1669 C1668 1.327 . S
C1669 C1673 1.429 . S
C1670 C1653 1.574 . S
C1670 H1664 0.949 . S
C1670 C1674 1.368 . S
C1671 C1652 1.429 . S
C1671 C1665 1.431 1_455 S
C1671 C1672 1.523 . S
C1672 C1653 1.368 . S
C1672 C1666 1.368 . S
C1672 C1671 1.523 . S
C1673 C1657 1.429 . S
C1673 C1669 1.429 . S
C1673 C1674 1.523 . S
C1674 C1658 1.368 . S
C1674 C1670 1.368 . S
C1674 C1673 1.523 . S
H1675 C1650 0.950 . S
H1676 C1652 0.950 . S
H1677 C1653 0.949 . S
H1678 C1655 0.950 . S
H1679 C1657 0.950 . S
C1680 C1681 1.349 . S
C1680 C1682 1.327 . S
C1680 H1705 0.950 . S
C1681 C1680 1.349 . S
C1681 C1697 1.349 . S
C1682 C1680 1.327 . S
C1682 C1701 1.429 . S
C1682 H1706 0.950 . S
C1683 C1700 1.574 . S
C1683 C1702 1.368 . S
C1683 H1707 0.949 . S
H1684 C1688 0.949 . S
C1685 C1686 1.349 . S
C1685 C1687 1.327 . S
C1685 H1708 0.950 . S
C1686 C1685 1.349 . S
C1686 C1698 1.349 . S
C1687 C1685 1.327 . S
C1687 C1703 1.429 . S
C1687 H1709 0.950 . S
C1688 H1684 0.949 . S
C1688 C1696 1.574 . S
C1688 C1704 1.368 . S
H1689 C1697 0.950 . S
H1690 C1695 0.950 . S
H1691 C1696 0.949 . S
H1692 C1698 0.950 . S
H1693 C1699 0.950 . S
H1694 C1700 0.949 . S
C1695 H1690 0.950 . S
C1695 C1697 1.327 . S
C1695 C1701 1.429 . S
C1696 C1688 1.574 . S
C1696 H1691 0.949 . S
C1696 C1702 1.368 . S
C1697 C1681 1.349 . S
C1697 H1689 0.950 . S
C1697 C1695 1.327 . S
C1698 C1686 1.349 . S
C1698 H1692 0.950 . S
C1698 C1699 1.327 . S
C1699 H1693 0.950 . S
C1699 C1698 1.327 . S
C1699 C1703 1.429 . S
C1700 C1683 1.574 . S
C1700 H1694 0.949 . S
C1700 C1704 1.368 . S
C1701 C1682 1.429 . S
C1701 C1695 1.429 . S
C1701 C1702 1.523 . S
C1702 C1683 1.368 . S
C1702 C1696 1.368 . S
C1702 C1701 1.523 . S
C1703 C1687 1.429 . S
C1703 C1699 1.429 . S
C1703 C1704 1.523 . S
C1704 C1688 1.368 . S
C1704 C1700 1.368 . S
C1704 C1703 1.523 . S
H1705 C1680 0.950 . S
H1706 C1682 0.950 . S
H1707 C1683 0.949 . S
H1708 C1685 0.950 . S
H1709 C1687 0.950 . S
C1710 C1711 1.349 . S
C1710 C1712 1.327 . S
C1710 H1735 0.950 . S
C1711 C1710 1.349 . S
C1711 C1727 1.349 . S
C1712 C1710 1.327 . S
C1712 C1731 1.429 . S
C1712 H1736 0.950 . S
C1713 C1730 1.574 . S
C1713 C1732 1.368 . S
C1713 H1737 0.949 . S
H1714 C1718 0.949 . S
C1715 C1716 1.349 . S
C1715 C1717 1.327 . S
C1715 H1738 0.950 . S
C1716 C1715 1.349 . S
C1716 C1728 1.349 . S
C1717 C1715 1.327 . S
C1717 C1733 1.429 . S
C1717 H1739 0.950 . S
C1718 H1714 0.949 . S
C1718 C1726 1.574 . S
C1718 C1734 1.368 . S
H1719 C1727 0.950 . S
H1720 C1725 0.950 . S
H1721 C1726 0.949 . S
H1722 C1728 0.950 . S
H1723 C1729 0.950 . S
H1724 C1730 0.949 . S
C1725 H1720 0.950 . S
C1725 C1727 1.327 . S
C1725 C1731 1.429 . S
C1726 C1718 1.574 . S
C1726 H1721 0.949 . S
C1726 C1732 1.368 . S
C1727 C1711 1.349 . S
C1727 H1719 0.950 . S
C1727 C1725 1.327 . S
C1728 C1716 1.349 . S
C1728 H1722 0.950 . S
C1728 C1729 1.327 . S
C1729 H1723 0.950 . S
C1729 C1728 1.327 . S
C1729 C1733 1.429 . S
C1730 C1713 1.574 . S
C1730 H1724 0.949 . S
C1730 C1734 1.368 . S
C1731 C1712 1.429 . S
C1731 C1725 1.429 . S
C1731 C1732 1.523 . S
C1732 C1713 1.368 . S
C1732 C1726 1.368 . S
C1732 C1731 1.523 . S
C1733 C1717 1.429 . S
C1733 C1729 1.429 . S
C1733 C1734 1.523 . S
C1734 C1718 1.368 . S
C1734 C1730 1.368 . S
C1734 C1733 1.523 . S
H1735 C1710 0.950 . S
H1736 C1712 0.950 . S
H1737 C1713 0.949 . S
H1738 C1715 0.950 . S
H1739 C1717 0.950 . S
C1740 C1741 1.349 . S
C1740 C1742 1.327 . S
C1740 H1765 0.950 . S
C1741 C1740 1.349 . S
C1741 C1757 1.349 . S
C1742 C1740 1.327 . S
C1742 C1761 1.429 . S
C1742 H1766 0.950 . S
C1743 C1760 1.574 . S
C1743 C1762 1.368 . S
C1743 H1767 0.949 . S
H1744 C1748 0.949 . S
C1745 C1746 1.349 . S
C1745 C1747 1.327 . S
C1745 H1768 0.950 . S
C1746 C1745 1.349 . S
C1746 C1758 1.349 . S
C1747 C1745 1.327 . S
C1747 C1763 1.429 . S
C1747 H1769 0.950 . S
C1748 H1744 0.949 . S
C1748 C1756 1.574 . S
C1748 C1764 1.368 . S
H1749 C1757 0.950 . S
H1750 C1755 0.950 . S
H1751 C1756 0.949 . S
H1752 C1758 0.950 . S
H1753 C1759 0.950 . S
H1754 C1760 0.949 . S
C1755 H1750 0.950 . S
C1755 C1757 1.327 . S
C1755 C1761 1.429 . S
C1756 C1748 1.574 . S
C1756 H1751 0.949 . S
C1756 C1762 1.368 . S
C1757 C1741 1.349 . S
C1757 H1749 0.950 . S
C1757 C1755 1.327 . S
C1758 C1746 1.349 . S
C1758 H1752 0.950 . S
C1758 C1759 1.327 . S
C1759 H1753 0.950 . S
C1759 C1758 1.327 . S
C1759 C1763 1.429 . S
C1760 C1743 1.574 . S
C1760 H1754 0.949 . S
C1760 C1764 1.368 . S
C1761 C1742 1.429 . S
C1761 C1755 1.429 . S
C1761 C1762 1.523 . S
C1762 C1743 1.368 . S
C1762 C1756 1.368 . S
C1762 C1761 1.523 . S
C1763 C1747 1.429 . S
C1763 C1759 1.429 . S
C1763 C1764 1.523 . S
C1764 C1748 1.368 . S
C1764 C1760 1.368 . S
C1764 C1763 1.523 . S
H1765 C1740 0.950 . S
H1766 C1742 0.950 . S
H1767 C1743 0.949 . S
H1768 C1745 0.950 . S
H1769 C1747 0.950 . S
C1770 C1771 1.349 . S
C1770 C1772 1.327 . S
C1770 H1795 0.950 . S
C1771 C1770 1.349 . S
C1771 C1787 1.349 . S
C1772 C1770 1.327 . S
C1772 C1791 1.429 . S
C1772 H1796 0.950 . S
C1773 C1790 1.574 . S
C1773 C1792 1.368 . S
C1773 H1797 0.949 . S
H1774 C1778 0.949 . S
C1775 C1776 1.349 . S
C1775 C1777 1.327 . S
C1775 H1798 0.950 . S
C1776 C1775 1.349 . S
C1776 C1788 1.349 . S
C1777 C1775 1.327 . S
C1777 C1793 1.429 . S
C1777 H1799 0.950 . S
C1778 H1774 0.949 . S
C1778 C1786 1.574 . S
C1778 C1794 1.368 . S
H1779 C1787 0.950 . S
H1780 C1785 0.950 . S
H1781 C1786 0.949 . S
H1782 C1788 0.950 . S
H1783 C1789 0.950 . S
H1784 C1790 0.949 . S
C1785 H1780 0.950 . S
C1785 C1787 1.327 . S
C1785 C1791 1.429 . S
C1786 C1778 1.574 . S
C1786 H1781 0.949 . S
C1786 C1792 1.368 . S
C1787 C1771 1.349 . S
C1787 H1779 0.950 . S
C1787 C1785 1.327 . S
C1788 C1776 1.349 . S
C1788 H1782 0.950 . S
C1788 C1789 1.327 . S
C1789 H1783 0.950 . S
C1789 C1788 1.327 . S
C1789 C1793 1.429 . S
C1790 C1773 1.574 . S
C1790 H1784 0.949 . S
C1790 C1794 1.368 . S
C1791 C1772 1.429 . S
C1791 C1785 1.429 . S
C1791 C1792 1.523 . S
C1792 C1773 1.368 . S
C1792 C1786 1.368 . S
C1792 C1791 1.523 . S
C1793 C1777 1.429 . S
C1793 C1789 1.429 . S
C1793 C1794 1.523 . S
C1794 C1778 1.368 . S
C1794 C1790 1.368 . S
C1794 C1793 1.523 . S
H1795 C1770 0.950 . S
H1796 C1772 0.950 . S
H1797 C1773 0.949 . S
H1798 C1775 0.950 . S
H1799 C1777 0.950 . S
C1800 C1801 1.349 . S
C1800 C1802 1.327 . S
C1800 H1825 0.950 . S
C1801 C1800 1.349 . S
C1801 C1817 1.349 . S
C1802 C1800 1.327 . S
C1802 C1821 1.429 . S
C1802 H1826 0.950 . S
C1803 C1820 1.574 . S
C1803 C1822 1.368 1_545 S
C1803 H1827 0.949 . S
H1804 C1808 0.949 . S
C1805 C1806 1.349 . S
C1805 C1807 1.327 . S
C1805 H1828 0.950 . S
C1806 C1805 1.349 . S
C1806 C1818 1.349 . S
C1807 C1805 1.327 . S
C1807 C1823 1.429 . S
C1807 H1829 0.950 . S
C1808 H1804 0.949 . S
C1808 C1816 1.574 1_545 S
C1808 C1824 1.368 . S
H1809 C1817 0.950 . S
H1810 C1815 0.950 . S
H1811 C1816 0.949 . S
H1812 C1818 0.950 . S
H1813 C1819 0.950 . S
H1814 C1820 0.949 . S
C1815 H1810 0.950 . S
C1815 C1817 1.327 . S
C1815 C1821 1.429 . S
C1816 C1808 1.574 1_565 S
C1816 H1811 0.949 . S
C1816 C1822 1.368 . S
C1817 C1801 1.349 . S
C1817 H1809 0.950 . S
C1817 C1815 1.327 . S
C1818 C1806 1.349 . S
C1818 H1812 0.950 . S
C1818 C1819 1.327 . S
C1819 H1813 0.950 . S
C1819 C1818 1.327 . S
C1819 C1823 1.429 . S
C1820 C1803 1.574 . S
C1820 H1814 0.949 . S
C1820 C1824 1.368 . S
C1821 C1802 1.429 . S
C1821 C1815 1.429 . S
C1821 C1822 1.523 . S
C1822 C1803 1.368 1_565 S
C1822 C1816 1.368 . S
C1822 C1821 1.523 . S
C1823 C1807 1.429 . S
C1823 C1819 1.429 . S
C1823 C1824 1.523 . S
C1824 C1808 1.368 . S
C1824 C1820 1.368 . S
C1824 C1823 1.523 . S
H1825 C1800 0.950 . S
H1826 C1802 0.950 . S
H1827 C1803 0.949 . S
H1828 C1805 0.950 . S
H1829 C1807 0.950 . S
C1830 C1831 1.349 . S
C1830 C1832 1.327 . S
C1830 H1855 0.950 . S
C1831 C1830 1.349 . S
C1831 C1847 1.349 . S
C1832 C1830 1.327 . S
C1832 C1851 1.429 . S
C1832 H1856 0.950 . S
C1833 C1850 1.574 1_455 S
C1833 C1852 1.368 . S
C1833 H1857 0.949 . S
H1834 C1838 0.949 . S
C1835 C1836 1.349 . S
C1835 C1837 1.327 . S
C1835 H1858 0.950 . S
C1836 C1835 1.349 . S
C1836 C1848 1.349 . S
C1837 C1835 1.327 . S
C1837 C1853 1.429 . S
C1837 H1859 0.950 . S
C1838 H1834 0.949 . S
C1838 C1846 1.574 1_655 S
C1838 C1854 1.368 . S
H1839 C1847 0.950 . S
H1840 C1845 0.950 . S
H1841 C1846 0.949 . S
H1842 C1848 0.950 . S
H1843 C1849 0.950 . S
H1844 C1850 0.949 . S
C1845 H1840 0.950 . S
C1845 C1847 1.327 . S
C1845 C1851 1.429 . S
C1846 C1838 1.574 1_455 S
C1846 H1841 0.949 . S
C1846 C1852 1.368 . S
C1847 C1831 1.349 . S
C1847 H1839 0.950 . S
C1847 C1845 1.327 . S
C1848 C1836 1.349 . S
C1848 H1842 0.950 . S
C1848 C1849 1.327 . S
C1849 H1843 0.950 . S
C1849 C1848 1.327 . S
C1849 C1853 1.429 . S
C1850 C1833 1.574 1_655 S
C1850 H1844 0.949 . S
C1850 C1854 1.368 . S
C1851 C1832 1.429 . S
C1851 C1845 1.429 . S
C1851 C1852 1.523 . S
C1852 C1833 1.368 . S
C1852 C1846 1.368 . S
C1852 C1851 1.523 . S
C1853 C1837 1.429 . S
C1853 C1849 1.429 . S
C1853 C1854 1.523 . S
C1854 C1838 1.368 . S
C1854 C1850 1.368 . S
C1854 C1853 1.523 . S
H1855 C1830 0.950 . S
H1856 C1832 0.950 . S
H1857 C1833 0.949 . S
H1858 C1835 0.950 . S
H1859 C1837 0.950 . S
C1860 C1861 1.349 . S
C1860 C1862 1.327 . S
C1860 H1885 0.950 . S
C1861 C1860 1.349 . S
C1861 C1877 1.349 . S
C1862 C1860 1.327 . S
C1862 C1881 1.429 . S
C1862 H1886 0.950 . S
C1863 C1880 1.574 . S
C1863 C1882 1.368 . S
C1863 H1887 0.949 . S
H1864 C1868 0.949 . S
C1865 C1866 1.349 . S
C1865 C1867 1.327 . S
C1865 H1888 0.950 . S
C1866 C1865 1.349 . S
C1866 C1878 1.349 . S
C1867 C1865 1.327 . S
C1867 C1883 1.429 . S
C1867 H1889 0.950 . S
C1868 H1864 0.949 . S
C1868 C1876 1.574 . S
C1868 C1884 1.368 . S
H1869 C1877 0.950 . S
H1870 C1875 0.950 . S
H1871 C1876 0.949 . S
H1872 C1878 0.950 . S
H1873 C1879 0.950 . S
H1874 C1880 0.949 . S
C1875 H1870 0.950 . S
C1875 C1877 1.327 . S
C1875 C1881 1.429 . S
C1876 C1868 1.574 . S
C1876 H1871 0.949 . S
C1876 C1882 1.368 . S
C1877 C1861 1.349 . S
C1877 H1869 0.950 . S
C1877 C1875 1.327 . S
C1878 C1866 1.349 . S
C1878 H1872 0.950 . S
C1878 C1879 1.327 . S
C1879 H1873 0.950 . S
C1879 C1878 1.327 . S
C1879 C1883 1.429 . S
C1880 C1863 1.574 . S
C1880 H1874 0.949 . S
C1880 C1884 1.368 . S
C1881 C1862 1.429 . S
C1881 C1875 1.429 . S
C1881 C1882 1.523 . S
C1882 C1863 1.368 . S
C1882 C1876 1.368 . S
C1882 C1881 1.523 . S
C1883 C1867 1.429 . S
C1883 C1879 1.429 . S
C1883 C1884 1.523 . S
C1884 C1868 1.368 . S
C1884 C1880 1.368 . S
C1884 C1883 1.523 . S
H1885 C1860 0.950 . S
H1886 C1862 0.950 . S
H1887 C1863 0.949 . S
H1888 C1865 0.950 . S
H1889 C1867 0.950 . S
C1890 C1891 1.349 . S
C1890 C1892 1.327 . S
C1890 H1915 0.950 . S
C1891 C1890 1.349 . S
C1891 C1907 1.349 . S
C1892 C1890 1.327 . S
C1892 C1911 1.429 1_455 S
C1892 H1916 0.950 1_455 S
C1893 C1910 1.574 . S
C1893 C1912 1.368 . S
C1893 H1917 0.949 . S
H1894 C1898 0.949 . S
C1895 C1896 1.349 . S
C1895 C1897 1.327 . S
C1895 H1918 0.950 . S
C1896 C1895 1.349 . S
C1896 C1908 1.349 . S
C1897 C1895 1.327 . S
C1897 C1913 1.429 . S
C1897 H1919 0.950 . S
C1898 H1894 0.949 . S
C1898 C1906 1.574 . S
C1898 C1914 1.368 . S
H1899 C1907 0.950 . S
H1900 C1905 0.950 1_655 S
H1901 C1906 0.949 . S
H1902 C1908 0.950 . S
H1903 C1909 0.950 . S
H1904 C1910 0.949 . S
C1905 H1900 0.950 1_455 S
C1905 C1907 1.327 . S
C1905 C1911 1.429 1_455 S
C1906 C1898 1.574 . S
C1906 H1901 0.949 . S
C1906 C1912 1.368 . S
C1907 C1891 1.349 . S
C1907 H1899 0.950 . S
C1907 C1905 1.327 . S
C1908 C1896 1.349 . S
C1908 H1902 0.950 . S
C1908 C1909 1.327 . S
C1909 H1903 0.950 . S
C1909 C1908 1.327 . S
C1909 C1913 1.429 . S
C1910 C1893 1.574 . S
C1910 H1904 0.949 . S
C1910 C1914 1.368 . S
C1911 C1892 1.429 1_655 S
C1911 C1905 1.429 1_655 S
C1911 C1912 1.523 . S
C1912 C1893 1.368 . S
C1912 C1906 1.368 . S
C1912 C1911 1.523 . S
C1913 C1897 1.429 . S
C1913 C1909 1.429 . S
C1913 C1914 1.523 . S
C1914 C1898 1.368 . S
C1914 C1910 1.368 . S
C1914 C1913 1.523 . S
H1915 C1890 0.950 . S
H1916 C1892 0.950 1_655 S
H1917 C1893 0.949 . S
H1918 C1895 0.950 . S
H1919 C1897 0.950 . S
C1920 C1921 1.349 . S
C1920 C1922 1.327 . S
C1920 H1945 0.950 . S
C1921 C1920 1.349 . S
C1921 C1937 1.349 . S
C1922 C1920 1.327 . S
C1922 C1941 1.429 . S
C1922 H1946 0.950 . S
C1923 C1940 1.574 . S
C1923 C1942 1.368 . S
C1923 H1947 0.949 . S
H1924 C1928 0.949 . S
C1925 C1926 1.349 . S
C1925 C1927 1.327 . S
C1925 H1948 0.950 . S
C1926 C1925 1.349 . S
C1926 C1938 1.349 . S
C1927 C1925 1.327 . S
C1927 C1943 1.429 . S
C1927 H1949 0.950 . S
C1928 H1924 0.949 . S
C1928 C1936 1.574 . S
C1928 C1944 1.368 . S
H1929 C1937 0.950 . S
H1930 C1935 0.950 . S
H1931 C1936 0.949 . S
H1932 C1938 0.950 . S
H1933 C1939 0.950 . S
H1934 C1940 0.949 . S
C1935 H1930 0.950 . S
C1935 C1937 1.327 . S
C1935 C1941 1.429 . S
C1936 C1928 1.574 . S
C1936 H1931 0.949 . S
C1936 C1942 1.368 . S
C1937 C1921 1.349 . S
C1937 H1929 0.950 . S
C1937 C1935 1.327 . S
C1938 C1926 1.349 . S
C1938 H1932 0.950 . S
C1938 C1939 1.327 . S
C1939 H1933 0.950 . S
C1939 C1938 1.327 . S
C1939 C1943 1.429 . S
C1940 C1923 1.574 . S
C1940 H1934 0.949 . S
C1940 C1944 1.368 . S
C1941 C1922 1.429 . S
C1941 C1935 1.429 . S
C1941 C1942 1.523 . S
C1942 C1923 1.368 . S
C1942 C1936 1.368 . S
C1942 C1941 1.523 . S
C1943 C1927 1.429 . S
C1943 C1939 1.429 . S
C1943 C1944 1.523 . S
C1944 C1928 1.368 . S
C1944 C1940 1.368 . S
C1944 C1943 1.523 . S
H1945 C1920 0.950 . S
H1946 C1922 0.950 . S
H1947 C1923 0.949 . S
H1948 C1925 0.950 . S
H1949 C1927 0.950 . S
C1950 C1951 1.349 . S
C1950 C1952 1.327 . S
C1950 H1975 0.950 . S
C1951 C1950 1.349 . S
C1951 C1967 1.349 . S
C1952 C1950 1.327 . S
C1952 C1971 1.429 1_565 S
C1952 H1976 0.950 1_565 S
C1953 C1970 1.574 . S
C1953 C1972 1.368 . S
C1953 H1977 0.949 . S
H1954 C1958 0.949 . S
C1955 C1956 1.349 . S
C1955 C1957 1.327 . S
C1955 H1978 0.950 . S
C1956 C1955 1.349 . S
C1956 C1968 1.349 . S
C1957 C1955 1.327 . S
C1957 C1973 1.429 . S
C1957 H1979 0.950 . S
C1958 H1954 0.949 . S
C1958 C1966 1.574 . S
C1958 C1974 1.368 . S
H1959 C1967 0.950 . S
H1960 C1965 0.950 . S
H1961 C1966 0.949 . S
H1962 C1968 0.950 . S
H1963 C1969 0.950 . S
H1964 C1970 0.949 . S
C1965 H1960 0.950 . S
C1965 C1967 1.327 1_545 S
C1965 C1971 1.429 . S
C1966 C1958 1.574 . S
C1966 H1961 0.949 . S
C1966 C1972 1.368 . S
C1967 C1951 1.349 . S
C1967 H1959 0.950 . S
C1967 C1965 1.327 1_565 S
C1968 C1956 1.349 . S
C1968 H1962 0.950 . S
C1968 C1969 1.327 . S
C1969 H1963 0.950 . S
C1969 C1968 1.327 . S
C1969 C1973 1.429 . S
C1970 C1953 1.574 . S
C1970 H1964 0.949 . S
C1970 C1974 1.368 . S
C1971 C1952 1.429 1_545 S
C1971 C1965 1.429 . S
C1971 C1972 1.523 . S
C1972 C1953 1.368 . S
C1972 C1966 1.368 . S
C1972 C1971 1.523 . S
C1973 C1957 1.429 . S
C1973 C1969 1.429 . S
C1973 C1974 1.523 . S
C1974 C1958 1.368 . S
C1974 C1970 1.368 . S
C1974 C1973 1.523 . S
H1975 C1950 0.950 . S
H1976 C1952 0.950 1_545 S
H1977 C1953 0.949 . S
H1978 C1955 0.950 . S
H1979 C1957 0.950 . S
C1980 C1981 1.349 . S
C1980 C1982 1.327 . S
C1980 H2005 0.950 . S
C1981 C1980 1.349 . S
C1981 C1997 1.349 . S
C1982 C1980 1.327 . S
C1982 C2001 1.429 . S
C1982 H2006 0.950 . S
C1983 C2000 1.574 . S
C1983 C2002 1.368 . S
C1983 H2007 0.949 . S
H1984 C1988 0.949 . S
C1985 C1986 1.349 . S
C1985 C1987 1.327 . S
C1985 H2008 0.950 . S
C1986 C1985 1.349 . S
C1986 C1998 1.349 . S
C1987 C1985 1.327 . S
C1987 C2003 1.429 . S
C1987 H2009 0.950 . S
C1988 H1984 0.949 . S
C1988 C1996 1.574 . S
C1988 C2004 1.368 . S
H1989 C1997 0.950 . S
H1990 C1995 0.950 . S
H1991 C1996 0.949 . S
H1992 C1998 0.950 . S
H1993 C1999 0.950 . S
H1994 C2000 0.949 . S
C1995 H1990 0.950 . S
C1995 C1997 1.327 . S
C1995 C2001 1.429 . S
C1996 C1988 1.574 . S
C1996 H1991 0.949 . S
C1996 C2002 1.368 . S
C1997 C1981 1.349 . S
C1997 H1989 0.950 . S
C1997 C1995 1.327 . S
C1998 C1986 1.349 . S
C1998 H1992 0.950 . S
C1998 C1999 1.327 . S
C1999 H1993 0.950 . S
C1999 C1998 1.327 . S
C1999 C2003 1.429 . S
C2000 C1983 1.574 . S
C2000 H1994 0.949 . S
C2000 C2004 1.368 . S
C2001 C1982 1.429 . S
C2001 C1995 1.429 . S
C2001 C2002 1.523 . S
C2002 C1983 1.368 . S
C2002 C1996 1.368 . S
C2002 C2001 1.523 . S
C2003 C1987 1.429 . S
C2003 C1999 1.429 . S
C2003 C2004 1.523 . S
C2004 C1988 1.368 . S
C2004 C2000 1.368 . S
C2004 C2003 1.523 . S
H2005 C1980 0.950 . S
H2006 C1982 0.950 . S
H2007 C1983 0.949 . S
H2008 C1985 0.950 . S
H2009 C1987 0.950 . S
C2010 C2011 1.349 . S
C2010 C2012 1.327 . S
C2010 H2035 0.950 . S
C2011 C2010 1.349 . S
C2011 C2027 1.349 . S
C2012 C2010 1.327 . S
C2012 C2031 1.429 . S
C2012 H2036 0.950 . S
C2013 C2030 1.574 . S
C2013 C2032 1.368 . S
C2013 H2037 0.949 . S
H2014 C2018 0.949 . S
C2015 C2016 1.349 . S
C2015 C2017 1.327 . S
C2015 H2038 0.950 . S
C2016 C2015 1.349 . S
C2016 C2028 1.349 . S
C2017 C2015 1.327 . S
C2017 C2033 1.429 . S
C2017 H2039 0.950 . S
C2018 H2014 0.949 . S
C2018 C2026 1.574 . S
C2018 C2034 1.368 . S
H2019 C2027 0.950 . S
H2020 C2025 0.950 . S
H2021 C2026 0.949 . S
H2022 C2028 0.950 . S
H2023 C2029 0.950 . S
H2024 C2030 0.949 . S
C2025 H2020 0.950 . S
C2025 C2027 1.327 . S
C2025 C2031 1.429 . S
C2026 C2018 1.574 . S
C2026 H2021 0.949 . S
C2026 C2032 1.368 . S
C2027 C2011 1.349 . S
C2027 H2019 0.950 . S
C2027 C2025 1.327 . S
C2028 C2016 1.349 . S
C2028 H2022 0.950 . S
C2028 C2029 1.327 . S
C2029 H2023 0.950 . S
C2029 C2028 1.327 . S
C2029 C2033 1.429 . S
C2030 C2013 1.574 . S
C2030 H2024 0.949 . S
C2030 C2034 1.368 . S
C2031 C2012 1.429 . S
C2031 C2025 1.429 . S
C2031 C2032 1.523 . S
C2032 C2013 1.368 . S
C2032 C2026 1.368 . S
C2032 C2031 1.523 . S
C2033 C2017 1.429 . S
C2033 C2029 1.429 . S
C2033 C2034 1.523 . S
C2034 C2018 1.368 . S
C2034 C2030 1.368 . S
C2034 C2033 1.523 . S
H2035 C2010 0.950 . S
H2036 C2012 0.950 . S
H2037 C2013 0.949 . S
H2038 C2015 0.950 . S
H2039 C2017 0.950 . S
C2040 C2041 1.349 . S
C2040 C2042 1.327 . S
C2040 H2065 0.950 . S
C2041 C2040 1.349 . S
C2041 C2057 1.349 . S
C2042 C2040 1.327 . S
C2042 C2061 1.429 . S
C2042 H2066 0.950 . S
C2043 C2060 1.574 . S
C2043 C2062 1.368 . S
C2043 H2067 0.949 . S
H2044 C2048 0.949 . S
C2045 C2046 1.349 . S
C2045 C2047 1.327 . S
C2045 H2068 0.950 . S
C2046 C2045 1.349 . S
C2046 C2058 1.349 . S
C2047 C2045 1.327 . S
C2047 C2063 1.429 . S
C2047 H2069 0.950 . S
C2048 H2044 0.949 . S
C2048 C2056 1.574 . S
C2048 C2064 1.368 . S
H2049 C2057 0.950 . S
H2050 C2055 0.950 . S
H2051 C2056 0.949 . S
H2052 C2058 0.950 . S
H2053 C2059 0.950 . S
H2054 C2060 0.949 . S
C2055 H2050 0.950 . S
C2055 C2057 1.327 . S
C2055 C2061 1.429 . S
C2056 C2048 1.574 . S
C2056 H2051 0.949 . S
C2056 C2062 1.368 . S
C2057 C2041 1.349 . S
C2057 H2049 0.950 . S
C2057 C2055 1.327 . S
C2058 C2046 1.349 . S
C2058 H2052 0.950 . S
C2058 C2059 1.327 . S
C2059 H2053 0.950 . S
C2059 C2058 1.327 . S
C2059 C2063 1.429 . S
C2060 C2043 1.574 . S
C2060 H2054 0.949 . S
C2060 C2064 1.368 . S
C2061 C2042 1.429 . S
C2061 C2055 1.429 . S
C2061 C2062 1.523 . S
C2062 C2043 1.368 . S
C2062 C2056 1.368 . S
C2062 C2061 1.523 . S
C2063 C2047 1.429 . S
C2063 C2059 1.429 . S
C2063 C2064 1.523 . S
C2064 C2048 1.368 . S
C2064 C2060 1.368 . S
C2064 C2063 1.523 . S
H2065 C2040 0.950 . S
H2066 C2042 0.950 . S
H2067 C2043 0.949 . S
H2068 C2045 0.950 . S
H2069 C2047 0.950 . S
C2070 C2071 1.349 . S
C2070 C2072 1.327 . S
C2070 H2095 0.950 . S
C2071 C2070 1.349 . S
C2071 C2087 1.349 . S
C2072 C2070 1.327 . S
C2072 C2091 1.429 . S
C2072 H2096 0.950 . S
C2073 C2090 1.574 . S
C2073 C2092 1.368 . S
C2073 H2097 0.949 . S
H2074 C2078 0.949 . S
C2075 C2076 1.349 . S
C2075 C2077 1.327 . S
C2075 H2098 0.950 . S
C2076 C2075 1.349 . S
C2076 C2088 1.349 . S
C2077 C2075 1.327 . S
C2077 C2093 1.429 . S
C2077 H2099 0.950 . S
C2078 H2074 0.949 . S
C2078 C2086 1.574 . S
C2078 C2094 1.368 . S
H2079 C2087 0.950 . S
H2080 C2085 0.950 . S
H2081 C2086 0.949 . S
H2082 C2088 0.950 . S
H2083 C2089 0.950 . S
H2084 C2090 0.949 . S
C2085 H2080 0.950 . S
C2085 C2087 1.327 . S
C2085 C2091 1.429 . S
C2086 C2078 1.574 . S
C2086 H2081 0.949 . S
C2086 C2092 1.368 . S
C2087 C2071 1.349 . S
C2087 H2079 0.950 . S
C2087 C2085 1.327 . S
C2088 C2076 1.349 . S
C2088 H2082 0.950 . S
C2088 C2089 1.327 . S
C2089 H2083 0.950 . S
C2089 C2088 1.327 . S
C2089 C2093 1.429 . S
C2090 C2073 1.574 . S
C2090 H2084 0.949 . S
C2090 C2094 1.368 . S
C2091 C2072 1.429 . S
C2091 C2085 1.429 . S
C2091 C2092 1.523 . S
C2092 C2073 1.368 . S
C2092 C2086 1.368 . S
C2092 C2091 1.523 . S
C2093 C2077 1.429 . S
C2093 C2089 1.429 . S
C2093 C2094 1.523 . S
C2094 C2078 1.368 . S
C2094 C2090 1.368 . S
C2094 C2093 1.523 . S
H2095 C2070 0.950 . S
H2096 C2072 0.950 . S
H2097 C2073 0.949 . S
H2098 C2075 0.950 . S
H2099 C2077 0.950 . S
C2100 C2101 1.349 . S
C2100 C2102 1.327 . S
C2100 H2125 0.950 . S
C2101 C2100 1.349 . S
C2101 C2117 1.349 . S
C2102 C2100 1.327 . S
C2102 C2121 1.429 . S
C2102 H2126 0.950 . S
C2103 C2120 1.574 . S
C2103 C2122 1.368 . S
C2103 H2127 0.949 . S
H2104 C2108 0.949 . S
C2105 C2106 1.349 . S
C2105 C2107 1.327 . S
C2105 H2128 0.950 . S
C2106 C2105 1.349 . S
C2106 C2118 1.349 . S
C2107 C2105 1.327 . S
C2107 C2123 1.429 . S
C2107 H2129 0.950 . S
C2108 H2104 0.949 . S
C2108 C2116 1.574 . S
C2108 C2124 1.368 . S
H2109 C2117 0.950 . S
H2110 C2115 0.950 . S
H2111 C2116 0.949 . S
H2112 C2118 0.950 . S
H2113 C2119 0.950 . S
H2114 C2120 0.949 . S
C2115 H2110 0.950 . S
C2115 C2117 1.327 . S
C2115 C2121 1.429 . S
C2116 C2108 1.574 . S
C2116 H2111 0.949 . S
C2116 C2122 1.368 . S
C2117 C2101 1.349 . S
C2117 H2109 0.950 . S
C2117 C2115 1.327 . S
C2118 C2106 1.349 . S
C2118 H2112 0.950 . S
C2118 C2119 1.327 . S
C2119 H2113 0.950 . S
C2119 C2118 1.327 . S
C2119 C2123 1.429 . S
C2120 C2103 1.574 . S
C2120 H2114 0.949 . S
C2120 C2124 1.368 . S
C2121 C2102 1.429 . S
C2121 C2115 1.429 . S
C2121 C2122 1.523 . S
C2122 C2103 1.368 . S
C2122 C2116 1.368 . S
C2122 C2121 1.523 . S
C2123 C2107 1.429 . S
C2123 C2119 1.429 . S
C2123 C2124 1.523 . S
C2124 C2108 1.368 . S
C2124 C2120 1.368 . S
C2124 C2123 1.523 . S
H2125 C2100 0.950 . S
H2126 C2102 0.950 . S
H2127 C2103 0.949 . S
H2128 C2105 0.950 . S
H2129 C2107 0.950 . S
C2130 C2131 1.349 . S
C2130 C2132 1.327 . S
C2130 H2155 0.950 . S
C2131 C2130 1.349 . S
C2131 C2147 1.349 . S
C2132 C2130 1.327 . S
C2132 C2151 1.429 . S
C2132 H2156 0.950 . S
C2133 C2150 1.574 . S
C2133 C2152 1.368 . S
C2133 H2157 0.949 . S
H2134 C2138 0.949 . S
C2135 C2136 1.349 . S
C2135 C2137 1.327 . S
C2135 H2158 0.950 . S
C2136 C2135 1.349 . S
C2136 C2148 1.349 . S
C2137 C2135 1.327 . S
C2137 C2153 1.429 . S
C2137 H2159 0.950 . S
C2138 H2134 0.949 . S
C2138 C2146 1.574 . S
C2138 C2154 1.368 . S
H2139 C2147 0.950 . S
H2140 C2145 0.950 . S
H2141 C2146 0.949 . S
H2142 C2148 0.950 . S
H2143 C2149 0.950 . S
H2144 C2150 0.949 . S
C2145 H2140 0.950 . S
C2145 C2147 1.327 . S
C2145 C2151 1.429 . S
C2146 C2138 1.574 . S
C2146 H2141 0.949 . S
C2146 C2152 1.368 . S
C2147 C2131 1.349 . S
C2147 H2139 0.950 . S
C2147 C2145 1.327 . S
C2148 C2136 1.349 . S
C2148 H2142 0.950 . S
C2148 C2149 1.327 . S
C2149 H2143 0.950 . S
C2149 C2148 1.327 . S
C2149 C2153 1.429 . S
C2150 C2133 1.574 . S
C2150 H2144 0.949 . S
C2150 C2154 1.368 . S
C2151 C2132 1.429 . S
C2151 C2145 1.429 . S
C2151 C2152 1.523 . S
C2152 C2133 1.368 . S
C2152 C2146 1.368 . S
C2152 C2151 1.523 . S
C2153 C2137 1.429 . S
C2153 C2149 1.429 . S
C2153 C2154 1.523 . S
C2154 C2138 1.368 . S
C2154 C2150 1.368 . S
C2154 C2153 1.523 . S
H2155 C2130 0.950 . S
H2156 C2132 0.950 . S
H2157 C2133 0.949 . S
H2158 C2135 0.950 . S
H2159 C2137 0.950 . S
C2160 C2161 1.349 . S
C2160 C2162 1.327 . S
C2160 H2185 0.950 . S
C2161 C2160 1.349 . S
C2161 C2177 1.349 . S
C2162 C2160 1.327 . S
C2162 C2181 1.429 . S
C2162 H2186 0.950 . S
C2163 C2180 1.574 . S
C2163 C2182 1.368 . S
C2163 H2187 0.949 . S
H2164 C2168 0.949 . S
C2165 C2166 1.349 . S
C2165 C2167 1.327 . S
C2165 H2188 0.950 . S
C2166 C2165 1.349 . S
C2166 C2178 1.349 . S
C2167 C2165 1.327 . S
C2167 C2183 1.429 . S
C2167 H2189 0.950 . S
C2168 H2164 0.949 . S
C2168 C2176 1.574 . S
C2168 C2184 1.368 . S
H2169 C2177 0.950 . S
H2170 C2175 0.950 . S
H2171 C2176 0.949 . S
H2172 C2178 0.950 . S
H2173 C2179 0.950 . S
H2174 C2180 0.949 . S
C2175 H2170 0.950 . S
C2175 C2177 1.327 . S
C2175 C2181 1.429 . S
C2176 C2168 1.574 . S
C2176 H2171 0.949 . S
C2176 C2182 1.368 . S
C2177 C2161 1.349 . S
C2177 H2169 0.950 . S
C2177 C2175 1.327 . S
C2178 C2166 1.349 . S
C2178 H2172 0.950 . S
C2178 C2179 1.327 . S
C2179 H2173 0.950 . S
C2179 C2178 1.327 . S
C2179 C2183 1.429 . S
C2180 C2163 1.574 . S
C2180 H2174 0.949 . S
C2180 C2184 1.368 . S
C2181 C2162 1.429 . S
C2181 C2175 1.429 . S
C2181 C2182 1.523 . S
C2182 C2163 1.368 . S
C2182 C2176 1.368 . S
C2182 C2181 1.523 . S
C2183 C2167 1.429 . S
C2183 C2179 1.429 . S
C2183 C2184 1.523 . S
C2184 C2168 1.368 . S
C2184 C2180 1.368 . S
C2184 C2183 1.523 . S
H2185 C2160 0.950 . S
H2186 C2162 0.950 . S
H2187 C2163 0.949 . S
H2188 C2165 0.950 . S
H2189 C2167 0.950 . S
C2190 C2191 1.349 . S
C2190 C2192 1.327 . S
C2190 H2215 0.950 . S
C2191 C2190 1.349 . S
C2191 C2207 1.349 . S
C2192 C2190 1.327 . S
C2192 C2211 1.429 . S
C2192 H2216 0.950 . S
C2193 C2210 1.574 . S
C2193 C2212 1.368 . S
C2193 H2217 0.949 . S
H2194 C2198 0.949 . S
C2195 C2196 1.349 . S
C2195 C2197 1.327 . S
C2195 H2218 0.950 . S
C2196 C2195 1.349 . S
C2196 C2208 1.349 . S
C2197 C2195 1.327 . S
C2197 C2213 1.429 . S
C2197 H2219 0.950 . S
C2198 H2194 0.949 . S
C2198 C2206 1.574 . S
C2198 C2214 1.368 . S
H2199 C2207 0.950 . S
H2200 C2205 0.950 . S
H2201 C2206 0.949 . S
H2202 C2208 0.950 . S
H2203 C2209 0.950 . S
H2204 C2210 0.949 . S
C2205 H2200 0.950 . S
C2205 C2207 1.327 . S
C2205 C2211 1.429 . S
C2206 C2198 1.574 . S
C2206 H2201 0.949 . S
C2206 C2212 1.368 . S
C2207 C2191 1.349 . S
C2207 H2199 0.950 . S
C2207 C2205 1.327 . S
C2208 C2196 1.349 . S
C2208 H2202 0.950 . S
C2208 C2209 1.327 . S
C2209 H2203 0.950 . S
C2209 C2208 1.327 . S
C2209 C2213 1.429 . S
C2210 C2193 1.574 . S
C2210 H2204 0.949 . S
C2210 C2214 1.368 . S
C2211 C2192 1.429 . S
C2211 C2205 1.429 . S
C2211 C2212 1.523 . S
C2212 C2193 1.368 . S
C2212 C2206 1.368 . S
C2212 C2211 1.523 . S
C2213 C2197 1.429 . S
C2213 C2209 1.429 . S
C2213 C2214 1.523 . S
C2214 C2198 1.368 . S
C2214 C2210 1.368 . S
C2214 C2213 1.523 . S
H2215 C2190 0.950 . S
H2216 C2192 0.950 . S
H2217 C2193 0.949 . S
H2218 C2195 0.950 . S
H2219 C2197 0.950 . S
C2220 C2221 1.349 . S
C2220 C2222 1.327 . S
C2220 H2245 0.950 . S
C2221 C2220 1.349 . S
C2221 C2237 1.349 . S
C2222 C2220 1.327 . S
C2222 C2241 1.429 . S
C2222 H2246 0.950 . S
C2223 C2240 1.574 . S
C2223 C2242 1.368 . S
C2223 H2247 0.949 . S
H2224 C2228 0.949 . S
C2225 C2226 1.349 . S
C2225 C2227 1.327 . S
C2225 H2248 0.950 . S
C2226 C2225 1.349 . S
C2226 C2238 1.349 . S
C2227 C2225 1.327 . S
C2227 C2243 1.429 . S
C2227 H2249 0.950 . S
C2228 H2224 0.949 . S
C2228 C2236 1.574 . S
C2228 C2244 1.368 . S
H2229 C2237 0.950 . S
H2230 C2235 0.950 . S
H2231 C2236 0.949 . S
H2232 C2238 0.950 . S
H2233 C2239 0.950 . S
H2234 C2240 0.949 . S
C2235 H2230 0.950 . S
C2235 C2237 1.327 . S
C2235 C2241 1.429 . S
C2236 C2228 1.574 . S
C2236 H2231 0.949 . S
C2236 C2242 1.368 . S
C2237 C2221 1.349 . S
C2237 H2229 0.950 . S
C2237 C2235 1.327 . S
C2238 C2226 1.349 . S
C2238 H2232 0.950 . S
C2238 C2239 1.327 . S
C2239 H2233 0.950 . S
C2239 C2238 1.327 . S
C2239 C2243 1.429 . S
C2240 C2223 1.574 . S
C2240 H2234 0.949 . S
C2240 C2244 1.368 . S
C2241 C2222 1.429 . S
C2241 C2235 1.429 . S
C2241 C2242 1.523 . S
C2242 C2223 1.368 . S
C2242 C2236 1.368 . S
C2242 C2241 1.523 . S
C2243 C2227 1.429 . S
C2243 C2239 1.429 . S
C2243 C2244 1.523 . S
C2244 C2228 1.368 . S
C2244 C2240 1.368 . S
C2244 C2243 1.523 . S
H2245 C2220 0.950 . S
H2246 C2222 0.950 . S
H2247 C2223 0.949 . S
H2248 C2225 0.950 . S
H2249 C2227 0.950 . S
C2250 C2251 1.349 . S
C2250 C2252 1.327 . S
C2250 H2275 0.950 . S
C2251 C2250 1.349 . S
C2251 C2267 1.349 . S
C2252 C2250 1.327 . S
C2252 C2271 1.429 . S
C2252 H2276 0.950 . S
C2253 C2270 1.574 . S
C2253 C2272 1.368 . S
C2253 H2277 0.949 . S
H2254 C2258 0.949 . S
C2255 C2256 1.349 . S
C2255 C2257 1.327 . S
C2255 H2278 0.950 . S
C2256 C2255 1.349 . S
C2256 C2268 1.349 . S
C2257 C2255 1.327 . S
C2257 C2273 1.429 . S
C2257 H2279 0.950 . S
C2258 H2254 0.949 . S
C2258 C2266 1.574 . S
C2258 C2274 1.368 . S
H2259 C2267 0.950 . S
H2260 C2265 0.950 . S
H2261 C2266 0.949 . S
H2262 C2268 0.950 . S
H2263 C2269 0.950 . S
H2264 C2270 0.949 . S
C2265 H2260 0.950 . S
C2265 C2267 1.327 . S
C2265 C2271 1.429 . S
C2266 C2258 1.574 . S
C2266 H2261 0.949 . S
C2266 C2272 1.368 . S
C2267 C2251 1.349 . S
C2267 H2259 0.950 . S
C2267 C2265 1.327 . S
C2268 C2256 1.349 . S
C2268 H2262 0.950 . S
C2268 C2269 1.327 . S
C2269 H2263 0.950 . S
C2269 C2268 1.327 . S
C2269 C2273 1.429 . S
C2270 C2253 1.574 . S
C2270 H2264 0.949 . S
C2270 C2274 1.368 . S
C2271 C2252 1.429 . S
C2271 C2265 1.429 . S
C2271 C2272 1.523 . S
C2272 C2253 1.368 . S
C2272 C2266 1.368 . S
C2272 C2271 1.523 . S
C2273 C2257 1.429 . S
C2273 C2269 1.429 . S
C2273 C2274 1.523 . S
C2274 C2258 1.368 . S
C2274 C2270 1.368 . S
C2274 C2273 1.523 . S
H2275 C2250 0.950 . S
H2276 C2252 0.950 . S
H2277 C2253 0.949 . S
H2278 C2255 0.950 . S
H2279 C2257 0.950 . S
C2280 C2281 1.349 . S
C2280 C2282 1.327 . S
C2280 H2305 0.950 . S
C2281 C2280 1.349 . S
C2281 C2297 1.349 . S
C2282 C2280 1.327 . S
C2282 C2301 1.429 . S
C2282 H2306 0.950 . S
C2283 C2300 1.574 . S
C2283 C2302 1.368 . S
C2283 H2307 0.949 . S
H2284 C2288 0.949 . S
C2285 C2286 1.349 . S
C2285 C2287 1.327 . S
C2285 H2308 0.950 . S
C2286 C2285 1.349 . S
C2286 C2298 1.349 . S
C2287 C2285 1.327 . S
C2287 C2303 1.429 . S
C2287 H2309 0.950 . S
C2288 H2284 0.949 . S
C2288 C2296 1.574 . S
C2288 C2304 1.368 . S
H2289 C2297 0.950 . S
H2290 C2295 0.950 . S
H2291 C2296 0.949 . S
H2292 C2298 0.950 . S
H2293 C2299 0.950 . S
H2294 C2300 0.949 . S
C2295 H2290 0.950 . S
C2295 C2297 1.327 . S
C2295 C2301 1.429 . S
C2296 C2288 1.574 . S
C2296 H2291 0.949 . S
C2296 C2302 1.368 . S
C2297 C2281 1.349 . S
C2297 H2289 0.950 . S
C2297 C2295 1.327 . S
C2298 C2286 1.349 . S
C2298 H2292 0.950 . S
C2298 C2299 1.327 . S
C2299 H2293 0.950 . S
C2299 C2298 1.327 . S
C2299 C2303 1.429 . S
C2300 C2283 1.574 . S
C2300 H2294 0.949 . S
C2300 C2304 1.368 . S
C2301 C2282 1.429 . S
C2301 C2295 1.429 . S
C2301 C2302 1.523 . S
C2302 C2283 1.368 . S
C2302 C2296 1.368 . S
C2302 C2301 1.523 . S
C2303 C2287 1.429 . S
C2303 C2299 1.429 . S
C2303 C2304 1.523 . S
C2304 C2288 1.368 . S
C2304 C2300 1.368 . S
C2304 C2303 1.523 . S
H2305 C2280 0.950 . S
H2306 C2282 0.950 . S
H2307 C2283 0.949 . S
H2308 C2285 0.950 . S
H2309 C2287 0.950 . S
C2310 C2311 1.349 . S
C2310 C2312 1.327 . S
C2310 H2335 0.950 . S
C2311 C2310 1.349 . S
C2311 C2327 1.349 . S
C2312 C2310 1.327 . S
C2312 C2331 1.429 . S
C2312 H2336 0.950 . S
C2313 C2330 1.574 . S
C2313 C2332 1.368 . S
C2313 H2337 0.949 . S
H2314 C2318 0.949 . S
C2315 C2316 1.349 . S
C2315 C2317 1.327 . S
C2315 H2338 0.950 . S
C2316 C2315 1.349 . S
C2316 C2328 1.349 . S
C2317 C2315 1.327 . S
C2317 C2333 1.429 . S
C2317 H2339 0.950 . S
C2318 H2314 0.949 . S
C2318 C2326 1.574 . S
C2318 C2334 1.368 . S
H2319 C2327 0.950 . S
H2320 C2325 0.950 . S
H2321 C2326 0.949 . S
H2322 C2328 0.950 . S
H2323 C2329 0.950 . S
H2324 C2330 0.949 . S
C2325 H2320 0.950 . S
C2325 C2327 1.327 . S
C2325 C2331 1.429 . S
C2326 C2318 1.574 . S
C2326 H2321 0.949 . S
C2326 C2332 1.368 . S
C2327 C2311 1.349 . S
C2327 H2319 0.950 . S
C2327 C2325 1.327 . S
C2328 C2316 1.349 . S
C2328 H2322 0.950 . S
C2328 C2329 1.327 . S
C2329 H2323 0.950 . S
C2329 C2328 1.327 . S
C2329 C2333 1.429 . S
C2330 C2313 1.574 . S
C2330 H2324 0.949 . S
C2330 C2334 1.368 . S
C2331 C2312 1.429 . S
C2331 C2325 1.429 . S
C2331 C2332 1.523 . S
C2332 C2313 1.368 . S
C2332 C2326 1.368 . S
C2332 C2331 1.523 . S
C2333 C2317 1.429 . S
C2333 C2329 1.429 . S
C2333 C2334 1.523 . S
C2334 C2318 1.368 . S
C2334 C2330 1.368 . S
C2334 C2333 1.523 . S
H2335 C2310 0.950 . S
H2336 C2312 0.950 . S
H2337 C2313 0.949 . S
H2338 C2315 0.950 . S
H2339 C2317 0.950 . S
C2340 C2341 1.349 . S
C2340 C2342 1.327 . S
C2340 H2365 0.950 . S
C2341 C2340 1.349 . S
C2341 C2357 1.349 . S
C2342 C2340 1.327 . S
C2342 C2361 1.429 . S
C2342 H2366 0.950 . S
C2343 C2360 1.574 . S
C2343 C2362 1.368 . S
C2343 H2367 0.949 . S
H2344 C2348 0.949 . S
C2345 C2346 1.349 . S
C2345 C2347 1.327 . S
C2345 H2368 0.950 . S
C2346 C2345 1.349 . S
C2346 C2358 1.349 . S
C2347 C2345 1.327 . S
C2347 C2363 1.429 . S
C2347 H2369 0.950 . S
C2348 H2344 0.949 . S
C2348 C2356 1.574 . S
C2348 C2364 1.368 . S
H2349 C2357 0.950 . S
H2350 C2355 0.950 . S
H2351 C2356 0.949 . S
H2352 C2358 0.950 . S
H2353 C2359 0.950 . S
H2354 C2360 0.949 . S
C2355 H2350 0.950 . S
C2355 C2357 1.327 . S
C2355 C2361 1.429 . S
C2356 C2348 1.574 . S
C2356 H2351 0.949 . S
C2356 C2362 1.368 . S
C2357 C2341 1.349 . S
C2357 H2349 0.950 . S
C2357 C2355 1.327 . S
C2358 C2346 1.349 . S
C2358 H2352 0.950 . S
C2358 C2359 1.327 . S
C2359 H2353 0.950 . S
C2359 C2358 1.327 . S
C2359 C2363 1.429 . S
C2360 C2343 1.574 . S
C2360 H2354 0.949 . S
C2360 C2364 1.368 . S
C2361 C2342 1.429 . S
C2361 C2355 1.429 . S
C2361 C2362 1.523 . S
C2362 C2343 1.368 . S
C2362 C2356 1.368 . S
C2362 C2361 1.523 . S
C2363 C2347 1.429 . S
C2363 C2359 1.429 . S
C2363 C2364 1.523 . S
C2364 C2348 1.368 . S
C2364 C2360 1.368 . S
C2364 C2363 1.523 . S
H2365 C2340 0.950 . S
H2366 C2342 0.950 . S
H2367 C2343 0.949 . S
H2368 C2345 0.950 . S
H2369 C2347 0.950 . S
C2370 C2371 1.349 . S
C2370 C2372 1.327 . S
C2370 H2395 0.950 . S
C2371 C2370 1.349 . S
C2371 C2387 1.349 . S
C2372 C2370 1.327 . S
C2372 C2391 1.429 . S
C2372 H2396 0.950 . S
C2373 C2390 1.574 . S
C2373 C2392 1.368 . S
C2373 H2397 0.949 . S
H2374 C2378 0.949 . S
C2375 C2376 1.349 . S
C2375 C2377 1.327 . S
C2375 H2398 0.950 . S
C2376 C2375 1.349 . S
C2376 C2388 1.349 . S
C2377 C2375 1.327 . S
C2377 C2393 1.429 . S
C2377 H2399 0.950 . S
C2378 H2374 0.949 . S
C2378 C2386 1.574 . S
C2378 C2394 1.368 . S
H2379 C2387 0.950 . S
H2380 C2385 0.950 . S
H2381 C2386 0.949 . S
H2382 C2388 0.950 . S
H2383 C2389 0.950 . S
H2384 C2390 0.949 . S
C2385 H2380 0.950 . S
C2385 C2387 1.327 . S
C2385 C2391 1.429 . S
C2386 C2378 1.574 . S
C2386 H2381 0.949 . S
C2386 C2392 1.368 . S
C2387 C2371 1.349 . S
C2387 H2379 0.950 . S
C2387 C2385 1.327 . S
C2388 C2376 1.349 . S
C2388 H2382 0.950 . S
C2388 C2389 1.327 . S
C2389 H2383 0.950 . S
C2389 C2388 1.327 . S
C2389 C2393 1.429 . S
C2390 C2373 1.574 . S
C2390 H2384 0.949 . S
C2390 C2394 1.368 . S
C2391 C2372 1.429 . S
C2391 C2385 1.429 . S
C2391 C2392 1.523 . S
C2392 C2373 1.368 . S
C2392 C2386 1.368 . S
C2392 C2391 1.523 . S
C2393 C2377 1.429 . S
C2393 C2389 1.429 . S
C2393 C2394 1.523 . S
C2394 C2378 1.368 . S
C2394 C2390 1.368 . S
C2394 C2393 1.523 . S
H2395 C2370 0.950 . S
H2396 C2372 0.950 . S
H2397 C2373 0.949 . S
H2398 C2375 0.950 . S
H2399 C2377 0.950 . S
C2400 C2401 1.349 . S
C2400 C2402 1.327 . S
C2400 H2425 0.950 . S
C2401 C2400 1.349 . S
C2401 C2417 1.349 . S
C2402 C2400 1.327 . S
C2402 C2421 1.429 . S
C2402 H2426 0.950 . S
C2403 C2420 1.574 . S
C2403 C2422 1.368 . S
C2403 H2427 0.949 . S
H2404 C2408 0.949 . S
C2405 C2406 1.349 . S
C2405 C2407 1.327 . S
C2405 H2428 0.950 . S
C2406 C2405 1.349 . S
C2406 C2418 1.349 . S
C2407 C2405 1.327 . S
C2407 C2423 1.429 . S
C2407 H2429 0.950 . S
C2408 H2404 0.949 . S
C2408 C2416 1.574 . S
C2408 C2424 1.368 . S
H2409 C2417 0.950 . S
H2410 C2415 0.950 . S
H2411 C2416 0.949 . S
H2412 C2418 0.950 . S
H2413 C2419 0.950 . S
H2414 C2420 0.949 . S
C2415 H2410 0.950 . S
C2415 C2417 1.327 . S
C2415 C2421 1.429 . S
C2416 C2408 1.574 . S
C2416 H2411 0.949 . S
C2416 C2422 1.368 . S
C2417 C2401 1.349 . S
C2417 H2409 0.950 . S
C2417 C2415 1.327 . S
C2418 C2406 1.349 . S
C2418 H2412 0.950 . S
C2418 C2419 1.327 . S
C2419 H2413 0.950 . S
C2419 C2418 1.327 . S
C2419 C2423 1.429 . S
C2420 C2403 1.574 . S
C2420 H2414 0.949 . S
C2420 C2424 1.368 . S
C2421 C2402 1.429 . S
C2421 C2415 1.429 . S
C2421 C2422 1.523 . S
C2422 C2403 1.368 . S
C2422 C2416 1.368 . S
C2422 C2421 1.523 . S
C2423 C2407 1.429 . S
C2423 C2419 1.429 . S
C2423 C2424 1.523 . S
C2424 C2408 1.368 . S
C2424 C2420 1.368 . S
C2424 C2423 1.523 . S
H2425 C2400 0.950 . S
H2426 C2402 0.950 . S
H2427 C2403 0.949 . S
H2428 C2405 0.950 . S
H2429 C2407 0.950 . S
C2430 C2431 1.349 . S
C2430 C2432 1.327 . S
C2430 H2455 0.950 . S
C2431 C2430 1.349 . S
C2431 C2447 1.349 . S
C2432 C2430 1.327 . S
C2432 C2451 1.429 . S
C2432 H2456 0.950 . S
C2433 C2450 1.574 . S
C2433 C2452 1.368 . S
C2433 H2457 0.949 . S
H2434 C2438 0.949 . S
C2435 C2436 1.349 . S
C2435 C2437 1.327 . S
C2435 H2458 0.950 . S
C2436 C2435 1.349 . S
C2436 C2448 1.349 . S
C2437 C2435 1.327 . S
C2437 C2453 1.429 . S
C2437 H2459 0.950 . S
C2438 H2434 0.949 . S
C2438 C2446 1.574 . S
C2438 C2454 1.368 . S
H2439 C2447 0.950 . S
H2440 C2445 0.950 . S
H2441 C2446 0.949 . S
H2442 C2448 0.950 . S
H2443 C2449 0.950 . S
H2444 C2450 0.949 . S
C2445 H2440 0.950 . S
C2445 C2447 1.327 . S
C2445 C2451 1.429 . S
C2446 C2438 1.574 . S
C2446 H2441 0.949 . S
C2446 C2452 1.368 . S
C2447 C2431 1.349 . S
C2447 H2439 0.950 . S
C2447 C2445 1.327 . S
C2448 C2436 1.349 . S
C2448 H2442 0.950 . S
C2448 C2449 1.327 . S
C2449 H2443 0.950 . S
C2449 C2448 1.327 . S
C2449 C2453 1.429 . S
C2450 C2433 1.574 . S
C2450 H2444 0.949 . S
C2450 C2454 1.368 . S
C2451 C2432 1.429 . S
C2451 C2445 1.429 . S
C2451 C2452 1.523 . S
C2452 C2433 1.368 . S
C2452 C2446 1.368 . S
C2452 C2451 1.523 . S
C2453 C2437 1.429 . S
C2453 C2449 1.429 . S
C2453 C2454 1.523 . S
C2454 C2438 1.368 . S
C2454 C2450 1.368 . S
C2454 C2453 1.523 . S
H2455 C2430 0.950 . S
H2456 C2432 0.950 . S
H2457 C2433 0.949 . S
H2458 C2435 0.950 . S
H2459 C2437 0.950 . S
C2460 C2461 1.349 . S
C2460 C2462 1.327 . S
C2460 H2485 0.950 . S
C2461 C2460 1.349 . S
C2461 C2477 1.349 . S
C2462 C2460 1.327 . S
C2462 C2481 1.429 . S
C2462 H2486 0.950 . S
C2463 C2480 1.574 . S
C2463 C2482 1.368 . S
C2463 H2487 0.949 . S
H2464 C2468 0.949 . S
C2465 C2466 1.349 . S
C2465 C2467 1.327 . S
C2465 H2488 0.950 . S
C2466 C2465 1.349 . S
C2466 C2478 1.349 . S
C2467 C2465 1.327 . S
C2467 C2483 1.429 . S
C2467 H2489 0.950 . S
C2468 H2464 0.949 . S
C2468 C2476 1.574 . S
C2468 C2484 1.368 . S
H2469 C2477 0.950 . S
H2470 C2475 0.950 . S
H2471 C2476 0.949 . S
H2472 C2478 0.950 . S
H2473 C2479 0.950 . S
H2474 C2480 0.949 . S
C2475 H2470 0.950 . S
C2475 C2477 1.327 . S
C2475 C2481 1.429 . S
C2476 C2468 1.574 . S
C2476 H2471 0.949 . S
C2476 C2482 1.368 . S
C2477 C2461 1.349 . S
C2477 H2469 0.950 . S
C2477 C2475 1.327 . S
C2478 C2466 1.349 . S
C2478 H2472 0.950 . S
C2478 C2479 1.327 . S
C2479 H2473 0.950 . S
C2479 C2478 1.327 . S
C2479 C2483 1.429 . S
C2480 C2463 1.574 . S
C2480 H2474 0.949 . S
C2480 C2484 1.368 . S
C2481 C2462 1.429 . S
C2481 C2475 1.429 . S
C2481 C2482 1.523 . S
C2482 C2463 1.368 . S
C2482 C2476 1.368 . S
C2482 C2481 1.523 . S
C2483 C2467 1.429 . S
C2483 C2479 1.429 . S
C2483 C2484 1.523 . S
C2484 C2468 1.368 . S
C2484 C2480 1.368 . S
C2484 C2483 1.523 . S
H2485 C2460 0.950 . S
H2486 C2462 0.950 . S
H2487 C2463 0.949 . S
H2488 C2465 0.950 . S
H2489 C2467 0.950 . S
C2490 C2491 1.349 . S
C2490 C2492 1.327 . S
C2490 H2515 0.950 . S
C2491 C2490 1.349 . S
C2491 C2507 1.349 . S
C2492 C2490 1.327 . S
C2492 C2511 1.429 . S
C2492 H2516 0.950 . S
C2493 C2510 1.574 . S
C2493 C2512 1.368 . S
C2493 H2517 0.949 . S
H2494 C2498 0.949 . S
C2495 C2496 1.349 . S
C2495 C2497 1.327 . S
C2495 H2518 0.950 . S
C2496 C2495 1.349 . S
C2496 C2508 1.349 . S
C2497 C2495 1.327 . S
C2497 C2513 1.429 . S
C2497 H2519 0.950 . S
C2498 H2494 0.949 . S
C2498 C2506 1.574 . S
C2498 C2514 1.368 . S
H2499 C2507 0.950 . S
H2500 C2505 0.950 . S
H2501 C2506 0.949 . S
H2502 C2508 0.950 . S
H2503 C2509 0.950 . S
H2504 C2510 0.949 . S
C2505 H2500 0.950 . S
C2505 C2507 1.327 . S
C2505 C2511 1.429 . S
C2506 C2498 1.574 . S
C2506 H2501 0.949 . S
C2506 C2512 1.368 . S
C2507 C2491 1.349 . S
C2507 H2499 0.950 . S
C2507 C2505 1.327 . S
C2508 C2496 1.349 . S
C2508 H2502 0.950 . S
C2508 C2509 1.327 . S
C2509 H2503 0.950 . S
C2509 C2508 1.327 . S
C2509 C2513 1.429 . S
C2510 C2493 1.574 . S
C2510 H2504 0.949 . S
C2510 C2514 1.368 . S
C2511 C2492 1.429 . S
C2511 C2505 1.429 . S
C2511 C2512 1.523 . S
C2512 C2493 1.368 . S
C2512 C2506 1.368 . S
C2512 C2511 1.523 . S
C2513 C2497 1.429 . S
C2513 C2509 1.429 . S
C2513 C2514 1.523 . S
C2514 C2498 1.368 . S
C2514 C2510 1.368 . S
C2514 C2513 1.523 . S
H2515 C2490 0.950 . S
H2516 C2492 0.950 . S
H2517 C2493 0.949 . S
H2518 C2495 0.950 . S
H2519 C2497 0.950 . S
C2520 C2521 1.349 . S
C2520 C2522 1.327 . S
C2520 H2545 0.950 . S
C2521 C2520 1.349 . S
C2521 C2537 1.349 . S
C2522 C2520 1.327 . S
C2522 C2541 1.429 . S
C2522 H2546 0.950 . S
C2523 C2540 1.574 . S
C2523 C2542 1.368 . S
C2523 H2547 0.949 . S
H2524 C2528 0.949 . S
C2525 C2526 1.349 . S
C2525 C2527 1.327 . S
C2525 H2548 0.950 . S
C2526 C2525 1.349 . S
C2526 C2538 1.349 . S
C2527 C2525 1.327 . S
C2527 C2543 1.429 . S
C2527 H2549 0.950 . S
C2528 H2524 0.949 . S
C2528 C2536 1.574 . S
C2528 C2544 1.368 . S
H2529 C2537 0.950 . S
H2530 C2535 0.950 . S
H2531 C2536 0.949 . S
H2532 C2538 0.950 . S
H2533 C2539 0.950 . S
H2534 C2540 0.949 . S
C2535 H2530 0.950 . S
C2535 C2537 1.327 . S
C2535 C2541 1.429 . S
C2536 C2528 1.574 . S
C2536 H2531 0.949 . S
C2536 C2542 1.368 . S
C2537 C2521 1.349 . S
C2537 H2529 0.950 . S
C2537 C2535 1.327 . S
C2538 C2526 1.349 . S
C2538 H2532 0.950 . S
C2538 C2539 1.327 . S
C2539 H2533 0.950 . S
C2539 C2538 1.327 . S
C2539 C2543 1.429 . S
C2540 C2523 1.574 . S
C2540 H2534 0.949 . S
C2540 C2544 1.368 . S
C2541 C2522 1.429 . S
C2541 C2535 1.429 . S
C2541 C2542 1.523 . S
C2542 C2523 1.368 . S
C2542 C2536 1.368 . S
C2542 C2541 1.523 . S
C2543 C2527 1.429 . S
C2543 C2539 1.429 . S
C2543 C2544 1.523 . S
C2544 C2528 1.368 . S
C2544 C2540 1.368 . S
C2544 C2543 1.523 . S
H2545 C2520 0.950 . S
H2546 C2522 0.950 . S
H2547 C2523 0.949 . S
H2548 C2525 0.950 . S
H2549 C2527 0.950 . S
C2550 C2551 1.349 . S
C2550 C2552 1.327 . S
C2550 H2575 0.950 . S
C2551 C2550 1.349 . S
C2551 C2567 1.349 . S
C2552 C2550 1.327 . S
C2552 C2571 1.429 . S
C2552 H2576 0.950 . S
C2553 C2570 1.574 . S
C2553 C2572 1.368 . S
C2553 H2577 0.949 . S
H2554 C2558 0.949 . S
C2555 C2556 1.349 . S
C2555 C2557 1.327 . S
C2555 H2578 0.950 . S
C2556 C2555 1.349 . S
C2556 C2568 1.349 . S
C2557 C2555 1.327 . S
C2557 C2573 1.429 . S
C2557 H2579 0.950 . S
C2558 H2554 0.949 . S
C2558 C2566 1.574 . S
C2558 C2574 1.368 . S
H2559 C2567 0.950 . S
H2560 C2565 0.950 . S
H2561 C2566 0.949 . S
H2562 C2568 0.950 . S
H2563 C2569 0.950 . S
H2564 C2570 0.949 . S
C2565 H2560 0.950 . S
C2565 C2567 1.327 . S
C2565 C2571 1.429 . S
C2566 C2558 1.574 . S
C2566 H2561 0.949 . S
C2566 C2572 1.368 . S
C2567 C2551 1.349 . S
C2567 H2559 0.950 . S
C2567 C2565 1.327 . S
C2568 C2556 1.349 . S
C2568 H2562 0.950 . S
C2568 C2569 1.327 . S
C2569 H2563 0.950 . S
C2569 C2568 1.327 . S
C2569 C2573 1.429 . S
C2570 C2553 1.574 . S
C2570 H2564 0.949 . S
C2570 C2574 1.368 . S
C2571 C2552 1.429 . S
C2571 C2565 1.429 . S
C2571 C2572 1.523 . S
C2572 C2553 1.368 . S
C2572 C2566 1.368 . S
C2572 C2571 1.523 . S
C2573 C2557 1.429 . S
C2573 C2569 1.429 . S
C2573 C2574 1.523 . S
C2574 C2558 1.368 . S
C2574 C2570 1.368 . S
C2574 C2573 1.523 . S
H2575 C2550 0.950 . S
H2576 C2552 0.950 . S
H2577 C2553 0.949 . S
H2578 C2555 0.950 . S
H2579 C2557 0.950 . S
C2580 C2581 1.349 . S
C2580 C2582 1.327 . S
C2580 H2605 0.950 . S
C2581 C2580 1.349 . S
C2581 C2597 1.349 . S
C2582 C2580 1.327 . S
C2582 C2601 1.429 . S
C2582 H2606 0.950 . S
C2583 C2600 1.574 . S
C2583 C2602 1.368 . S
C2583 H2607 0.949 . S
H2584 C2588 0.949 . S
C2585 C2586 1.349 . S
C2585 C2587 1.327 . S
C2585 H2608 0.950 . S
C2586 C2585 1.349 . S
C2586 C2598 1.349 . S
C2587 C2585 1.327 . S
C2587 C2603 1.429 . S
C2587 H2609 0.950 . S
C2588 H2584 0.949 . S
C2588 C2596 1.574 . S
C2588 C2604 1.368 . S
H2589 C2597 0.950 . S
H2590 C2595 0.950 . S
H2591 C2596 0.949 . S
H2592 C2598 0.950 . S
H2593 C2599 0.950 . S
H2594 C2600 0.949 . S
C2595 H2590 0.950 . S
C2595 C2597 1.327 . S
C2595 C2601 1.429 . S
C2596 C2588 1.574 . S
C2596 H2591 0.949 . S
C2596 C2602 1.368 . S
C2597 C2581 1.349 . S
C2597 H2589 0.950 . S
C2597 C2595 1.327 . S
C2598 C2586 1.349 . S
C2598 H2592 0.950 . S
C2598 C2599 1.327 . S
C2599 H2593 0.950 . S
C2599 C2598 1.327 . S
C2599 C2603 1.429 . S
C2600 C2583 1.574 . S
C2600 H2594 0.949 . S
C2600 C2604 1.368 . S
C2601 C2582 1.429 . S
C2601 C2595 1.429 . S
C2601 C2602 1.523 . S
C2602 C2583 1.368 . S
C2602 C2596 1.368 . S
C2602 C2601 1.523 . S
C2603 C2587 1.429 . S
C2603 C2599 1.429 . S
C2603 C2604 1.523 . S
C2604 C2588 1.368 . S
C2604 C2600 1.368 . S
C2604 C2603 1.523 . S
H2605 C2580 0.950 . S
H2606 C2582 0.950 . S
H2607 C2583 0.949 . S
H2608 C2585 0.950 . S
H2609 C2587 0.950 . S
C991 C177 1.436 . S
C996 C301 1.381 . S
C1021 C190 1.463 . S
C1026 C385 1.410 . S
C1051 C164 1.429 . S
C1056 C465 1.421 . S
C1081 C151 1.404 . S
C1086 C381 1.397 1_556 S
C1116 C469 1.357 . S
C1111 C125 1.412 . S
C1141 C138 1.380 . S
C1146 C297 1.354 1_556 S
C1176 C290 1.435 . S
C1171 C147 1.440 . S
C1206 C374 1.461 . S
C1201 C121 1.459 . S
C1231 C134 1.459 . S
C1236 C476 1.473 1_556 S
C1261 C173 1.423 . S
C1266 C392 1.445 . S
C1291 C186 1.407 . S
C1296 C458 1.403 . S
C1326 C308 1.423 . S
C1321 C160 1.405 . S
C1356 C553 1.381 . S
C1351 C21 1.436 . S
C1381 C34 1.462 . S
C1386 C637 1.410 . S
C1411 C8 1.430 . S
C1416 C717 1.421 . S
C1441 C229 1.404 . S
C1446 C633 1.397 . S
C1471 C203 1.412 . S
C1476 C721 1.357 . S
C1501 C216 1.380 . S
C1506 C549 1.372 . S
C1531 C225 1.440 . S
C1536 C542 1.435 . S
C1561 C199 1.459 . S
C1566 C626 1.461 . S
C1596 C728 1.479 . S
C1591 C212 1.459 . S
C1621 C17 1.423 . S
C1626 C644 1.445 . S
C1656 C710 1.402 . S
C1651 C30 1.406 . S
C1681 C4 1.405 . S
C1686 C560 1.422 . S
C1716 C805 1.380 . S
C1711 C99 1.436 . S
C1741 C112 1.463 . S
C1746 C889 1.410 . S
C1776 C969 1.421 . S
C1771 C86 1.430 . S
C1806 C885 1.397 . S
C1801 C73 1.404 . S
C1836 C973 1.357 . S
C1831 C47 1.412 . S
C1861 C60 1.380 . S
C1866 C801 1.371 . S
C1891 C69 1.440 . S
C1896 C794 1.435 . S
C1921 C43 1.459 . S
C1926 C878 1.461 . S
C1956 C980 1.479 . S
C1951 C56 1.459 . S
C1981 C95 1.423 . S
C1986 C896 1.445 . S
C2011 C108 1.406 . S
C2016 C962 1.402 . S
C2041 C82 1.405 . S
C2046 C812 1.422 . S
C2071 C204 1.548 . S
C2076 C304 1.424 . S
C2106 C388 1.481 . S
C2101 C217 1.628 . S
C2131 C230 1.565 . S
C2136 C460 1.387 . S
C2161 C87 1.598 . S
C2166 C376 1.409 . S
C2191 C100 1.581 . S
C2196 C472 1.442 . S
C2226 C292 1.356 . S
C2221 C113 1.519 . S
C2251 C48 1.548 . S
C2256 C556 1.424 . S
C2281 C61 1.627 . S
C2286 C640 1.481 . S
C2311 C74 1.565 . S
C2316 C712 1.387 . S
C2341 C165 1.598 . S
C2346 C628 1.410 . S
C2376 C724 1.442 . S
C2371 C178 1.581 . S
C2401 C191 1.519 . S
C2406 C544 1.356 . S
C2431 C126 1.548 . S
C2436 C808 1.424 . S
C2461 C139 1.627 . S
C2466 C892 1.481 . S
C2496 C964 1.387 . S
C2491 C152 1.565 . S
C2521 C9 1.598 . S
C2526 C880 1.409 . S
C2551 C22 1.581 . S
C2556 C976 1.442 . S
C2581 C35 1.519 . S
C2586 C796 1.356 . S
