# Generated by pormake.
# Topology zzz, (3,6)-cn, num edge types: 1
# Building blocks:
#     Node 0, Type 0, BuildingBlock: BETDAH_clean_linker_0, # of connection points: 3
#     Node 1, Type 0, BuildingBlock: BETDAH_clean_linker_0, # of connection points: 3
#     Node 2, Type 0, BuildingBlock: BETDAH_clean_linker_0, # of connection points: 3
#     Node 3, Type 0, BuildingBlock: BETDAH_clean_linker_0, # of connection points: 3
#     Node 4, Type 0, BuildingBlock: BETDAH_clean_linker_0, # of connection points: 3
#     Node 5, Type 0, BuildingBlock: BETDAH_clean_linker_0, # of connection points: 3
#     Node 6, Type 0, BuildingBlock: BETDAH_clean_linker_0, # of connection points: 3
#     Node 7, Type 0, BuildingBlock: BETDAH_clean_linker_0, # of connection points: 3
#     Node 8, Type 1, BuildingBlock: BETFEN_clean_sbu_0, # of connection points: 6
#     Node 9, Type 1, BuildingBlock: BETFEN_clean_sbu_0, # of connection points: 6
#     Node 10, Type 1, BuildingBlock: BETFEN_clean_sbu_0, # of connection points: 6
#     Node 11, Type 1, BuildingBlock: BETFEN_clean_sbu_0, # of connection points: 6
#     Edge 12, Type (0, 1), BuildingBlock: ZUJKAS_clean_linker_0, # of connection points: 2
#     Edge 13, Type (0, 1), BuildingBlock: ZUJKAS_clean_linker_0, # of connection points: 2
#     Edge 14, Type (0, 1), BuildingBlock: ZUJKAS_clean_linker_0, # of connection points: 2
#     Edge 15, Type (0, 1), BuildingBlock: ZUJKAS_clean_linker_0, # of connection points: 2
#     Edge 16, Type (0, 1), BuildingBlock: ZUJKAS_clean_linker_0, # of connection points: 2
#     Edge 17, Type (0, 1), BuildingBlock: ZUJKAS_clean_linker_0, # of connection points: 2
#     Edge 18, Type (0, 1), BuildingBlock: ZUJKAS_clean_linker_0, # of connection points: 2
#     Edge 19, Type (0, 1), BuildingBlock: ZUJKAS_clean_linker_0, # of connection points: 2
#     Edge 20, Type (0, 1), BuildingBlock: ZUJKAS_clean_linker_0, # of connection points: 2
#     Edge 21, Type (0, 1), BuildingBlock: ZUJKAS_clean_linker_0, # of connection points: 2
#     Edge 22, Type (0, 1), BuildingBlock: ZUJKAS_clean_linker_0, # of connection points: 2
#     Edge 23, Type (0, 1), BuildingBlock: ZUJKAS_clean_linker_0, # of connection points: 2
#     Edge 24, Type (0, 1), BuildingBlock: ZUJKAS_clean_linker_0, # of connection points: 2
#     Edge 25, Type (0, 1), BuildingBlock: ZUJKAS_clean_linker_0, # of connection points: 2
#     Edge 26, Type (0, 1), BuildingBlock: ZUJKAS_clean_linker_0, # of connection points: 2
#     Edge 27, Type (0, 1), BuildingBlock: ZUJKAS_clean_linker_0, # of connection points: 2
#     Edge 28, Type (0, 1), BuildingBlock: ZUJKAS_clean_linker_0, # of connection points: 2
#     Edge 29, Type (0, 1), BuildingBlock: ZUJKAS_clean_linker_0, # of connection points: 2
#     Edge 30, Type (0, 1), BuildingBlock: ZUJKAS_clean_linker_0, # of connection points: 2
#     Edge 31, Type (0, 1), BuildingBlock: ZUJKAS_clean_linker_0, # of connection points: 2
#     Edge 32, Type (0, 1), BuildingBlock: ZUJKAS_clean_linker_0, # of connection points: 2
#     Edge 33, Type (0, 1), BuildingBlock: ZUJKAS_clean_linker_0, # of connection points: 2
#     Edge 34, Type (0, 1), BuildingBlock: ZUJKAS_clean_linker_0, # of connection points: 2
#     Edge 35, Type (0, 1), BuildingBlock: ZUJKAS_clean_linker_0, # of connection points: 2
# Relax obj value: 0.232
# Max RMSD: 0.176
# Mean RMSD: 0.160
data_MOF--net-zzz--node1-BETFEN_clean_sbu_0--node2-BETDAH_clean_linker_0--edge1-ZUJKAS_clean_linker_0
_symmetry_space_group_name_H-M    P1
_symmetry_Int_Tables_number       1
_symmetry_cell_setting            triclinic
loop_
_symmetry_equiv_pos_as_xyz
'x, y, z'
_cell_length_a     68.627231
_cell_length_b     68.521388
_cell_length_c     17.3305
_cell_angle_alpha  89.97497
_cell_angle_beta   90.06133
_cell_angle_gamma 89.936868
loop_
_atom_site_label
_atom_site_type_symbol
_atom_site_fract_x
_atom_site_fract_y
_atom_site_fract_z
_atom_type_partial_charge
H0 H 0.79853 0.49982 0.24749 0.0
H1 H 0.73738 0.50354 0.20078 0.0
H2 H 0.76119 0.53065 0.40544 0.0
C3 C 0.78418 0.50498 0.26422 0.0
C4 C 0.78197 0.51585 0.33209 0.0
C5 C 0.76816 0.50049 0.21756 0.0
C6 C 0.74958 0.50698 0.23807 0.0
C7 C 0.74692 0.51803 0.30586 0.0
C8 C 0.76316 0.52213 0.35339 0.0
N9 N 0.72826 0.52547 0.32653 0.0
C10 C 0.71202 0.52449 0.27815 0.0
H11 H 0.99664 0.79205 0.25805 0.0
H12 H 1.00332 0.73133 0.20421 0.0
H13 H 1.0044 0.75059 0.44144 0.0
C14 C 0.99812 0.77704 0.27706 0.0
C15 C 0.9998 0.77318 0.35613 0.0
C16 C 0.9995 0.76207 0.22208 0.0
C17 C 1.00232 0.74282 0.24687 0.0
C18 C 1.00396 0.73848 0.32613 0.0
C19 C 1.00293 0.7538 0.38049 0.0
N20 N 1.00683 0.71897 0.35244 0.0
C21 C 1.00784 0.70281 0.30353 0.0
H22 H 0.72707 1.00922 0.22848 0.0
H23 H 0.78764 1.00488 0.17048 0.0
H24 H 0.76939 1.00097 0.4086 0.0
C25 C 0.74209 1.00726 0.24656 0.0
C26 C 0.74632 1.00532 0.32524 0.0
C27 C 0.75685 1.00696 0.19072 0.0
C28 C 0.7763 1.00487 0.2139 0.0
C29 C 0.78095 1.00252 0.29266 0.0
C30 C 0.76585 1.00259 0.34799 0.0
N31 N 0.8006 1.00021 0.31779 0.0
C32 C 0.81665 1.00047 0.26837 0.0
H33 H 0.48452 0.72854 0.29665 0.0
H34 H 0.49596 0.78659 0.21529 0.0
H35 H 0.52349 0.76549 0.42337 0.0
C36 C 0.49121 0.74273 0.3048 0.0
C37 C 0.50374 0.74541 0.36766 0.0
C38 C 0.48839 0.75741 0.24933 0.0
C39 C 0.49806 0.7753 0.25819 0.0
C40 C 0.51065 0.7784 0.32141 0.0
C41 C 0.51357 0.76329 0.37548 0.0
N42 N 0.52085 0.79631 0.33121 0.0
C43 C 0.51956 0.81203 0.28032 0.0
H44 H 0.23543 0.53922 0.12072 0.0
H45 H 0.29074 0.52385 0.21807 0.0
H46 H 0.26714 0.49037 0.02869 0.0
C47 C 0.24853 0.53035 0.11869 0.0
C48 C 0.24955 0.51471 0.06685 0.0
C49 C 0.26322 0.53359 0.17327 0.0
C50 C 0.27967 0.52148 0.1745 0.0
C51 C 0.28142 0.50608 0.12092 0.0
C52 C 0.26613 0.50258 0.06818 0.0
N53 N 0.29802 0.49358 0.12023 0.0
C54 C 0.31402 0.49573 0.16919 0.0
H55 H 1.00194 0.22454 0.15193 0.0
H56 H 1.00845 0.28463 0.21568 0.0
H57 H 0.01748 0.26674 0.97913 0.0
C58 C 1.00517 0.23949 0.13574 0.0
C59 C 0.00951 0.24383 0.0588 0.0
C60 C 1.00498 0.25409 0.19226 0.0
C61 C 1.00881 0.27346 0.17155 0.0
C62 C 0.01347 0.27817 0.0945 0.0
C63 C 0.01394 0.26322 0.03844 0.0
N64 N 0.01775 0.2977 0.07198 0.0
C65 C 0.01783 0.31353 0.12268 0.0
H66 H 0.30014 1.007 0.15396 0.0
H67 H 0.23987 0.01246 0.21534 0.0
H68 H 0.25721 0.01517 0.976 0.0
C69 C 0.28507 1.00902 0.13669 0.0
C70 C 0.28054 0.01078 0.05816 0.0
C71 C 0.27053 1.00981 0.1934 0.0
C72 C 0.25102 0.01204 0.17124 0.0
C73 C 0.24608 0.01411 0.09267 0.0
C74 C 0.26096 0.01366 0.03646 0.0
N75 N 0.22637 0.01662 0.06863 0.0
C76 C 0.21051 0.01684 0.11897 0.0
H77 H 0.4813 0.2909 0.12308 0.0
H78 H 0.48978 0.23108 0.18806 0.0
H79 H 0.50797 0.25125 0.96352 0.0
C80 C 0.48563 0.27614 0.10838 0.0
C81 C 0.49399 0.27278 0.03596 0.0
C82 C 0.48417 0.26127 0.16387 0.0
C83 C 0.49097 0.24254 0.14551 0.0
C84 C 0.4996 0.23877 0.07323 0.0
C85 C 0.50116 0.25402 0.01883 0.0
N86 N 0.5072 0.22001 0.05448 0.0
C87 C 0.50745 0.20421 0.10535 0.0
Pr88 Pr 0.0247 1.0036 0.76828 0.0
Pr89 Pr 1.0037 0.01556 0.61344 0.0
C90 C 0.03568 0.98356 0.89338 0.0
C91 C 0.03231 0.96269 0.90892 0.0
C92 C 0.04827 0.95022 0.92026 0.0
C93 C 0.0459 0.93 0.91567 0.0
C94 C 0.0275 0.9219 0.89964 0.0
C95 C 0.01133 0.9344 0.89348 0.0
C96 C 0.01371 0.95458 0.89766 0.0
C97 C 0.04934 0.01496 0.64873 0.0
C98 C 0.0099 0.96886 0.64085 0.0
C99 C 0.9975 0.03444 0.48135 0.0
C100 C 0.98885 0.05399 0.4745 0.0
C101 C 0.97518 0.06022 0.5297 0.0
C102 C 0.97097 0.08002 0.53857 0.0
C103 C 0.98053 0.09396 0.49301 0.0
C104 C 0.99321 0.08758 0.43431 0.0
C105 C 0.99737 0.06775 0.42528 0.0
C106 C 0.97517 0.01144 0.72848 0.0
C107 C 0.01456 0.04976 0.74841 0.0
O108 O 0.02029 0.99491 0.89311 0.0
O109 O 0.04751 0.987 0.83585 0.0
O110 O 0.03446 1.00423 0.64138 0.0
O111 O 0.05204 0.02001 0.72035 0.0
O112 O 1.00633 0.98223 0.58763 0.0
O113 O 0.01495 0.97364 0.71226 0.0
O114 O 0.0145 0.03443 0.5159 0.0
O115 O 0.98591 0.02042 0.50496 0.0
O116 O 0.99326 1.00903 0.7362 0.0
O117 O 0.97114 0.01564 0.65723 0.0
O118 O 0.01884 0.03615 0.79972 0.0
O119 O 0.0105 0.04547 0.67568 0.0
H120 H 0.06276 0.95615 0.9285 0.0
H121 H 0.05857 0.92074 0.92285 0.0
H122 H 0.99697 0.92871 0.88059 0.0
H123 H 1.00113 0.96379 0.88739 0.0
H124 H 0.96872 0.04994 0.56966 0.0
H125 H 0.96123 0.08448 0.58446 0.0
H126 H 1.0005 0.098 0.39724 0.0
H127 H 1.00817 0.06329 0.38324 0.0
Pr128 Pr 0.51889 0.01905 0.76514 0.0
Pr129 Pr 0.50808 0.99826 0.62723 0.0
C130 C 0.53838 0.03223 0.88854 0.0
C131 C 0.55848 0.03954 0.89162 0.0
C132 C 0.56646 0.04918 0.82741 0.0
C133 C 0.5864 0.05303 0.82388 0.0
C134 C 0.59881 0.0471 0.88405 0.0
C135 C 0.59062 0.03799 0.94937 0.0
C136 C 0.57063 0.03427 0.95307 0.0
C137 C 0.51042 0.0445 0.64354 0.0
C138 C 0.55401 1.0053 0.64119 0.0
C139 C 0.48754 0.98461 0.50779 0.0
C140 C 0.4667 0.97962 0.51015 0.0
C141 C 0.45869 0.97158 0.5778 0.0
C142 C 0.43854 0.97113 0.5886 0.0
C143 C 0.42605 0.97895 0.53241 0.0
C144 C 0.43404 0.986 0.46296 0.0
C145 C 0.45421 0.98636 0.45201 0.0
C146 C 0.51661 0.97317 0.74981 0.0
C147 C 0.47299 0.01244 0.74898 0.0
O148 O 0.53692 0.01366 0.87237 0.0
O149 O 0.52585 0.043 0.85076 0.0
O150 O 0.52059 0.02919 0.63734 0.0
O151 O 0.5043 0.047 0.71366 0.0
O152 O 0.5403 1.00268 0.58901 0.0
O153 O 0.54928 1.00912 0.71345 0.0
O154 O 0.49116 1.00319 0.51674 0.0
O155 O 0.49919 0.97347 0.54822 0.0
O156 O 0.50612 0.98828 0.75482 0.0
O157 O 0.52338 0.97085 0.68052 0.0
O158 O 0.4866 0.01411 0.80211 0.0
O159 O 0.47793 1.0094 0.6765 0.0
H160 H 0.55741 0.05305 0.77846 0.0
H161 H 0.59215 0.06025 0.77319 0.0
H162 H 0.59976 0.03287 0.99618 0.0
H163 H 0.56481 0.02644 0.00226 0.0
H164 H 0.46801 0.96669 0.6245 0.0
H165 H 0.43283 0.96576 0.64284 0.0
H166 H 0.42471 0.9918 0.418 0.0
H167 H 0.46008 0.99287 0.4 0.0
Pr168 Pr 0.50691 0.51655 0.79859 0.0
Pr169 Pr 0.52402 0.50344 0.6338 0.0
C170 C 0.50431 0.53523 0.93311 0.0
C171 C 0.4978 0.5556 0.94566 0.0
C172 C 0.47895 0.55957 0.97335 0.0
C173 C 0.4715 0.5786 0.97135 0.0
C174 C 0.48274 0.59394 0.94117 0.0
C175 C 0.5019 0.59012 0.91723 0.0
C176 C 0.50937 0.57123 0.91966 0.0
C177 C 0.47634 0.51319 0.69097 0.0
C178 C 0.51703 0.55013 0.65998 0.0
C179 C 0.52885 0.48361 0.50266 0.0
C180 C 0.52021 0.4646 0.48412 0.0
C181 C 0.53073 0.45083 0.44152 0.0
C182 C 0.52407 0.43159 0.4365 0.0
C183 C 0.5069 0.42588 0.47475 0.0
C184 C 0.49604 0.43992 0.51496 0.0
C185 C 0.50262 0.45911 0.51951 0.0
C186 C 0.55153 0.5136 0.7451 0.0
C187 C 0.51029 0.46958 0.76678 0.0
O188 O 0.52087 0.53314 0.89625 0.0
O189 O 0.49087 0.52289 0.91015 0.0
O190 O 0.49422 0.5104 0.68005 0.0
O191 O 0.47351 0.51776 0.76282 0.0
O192 O 0.5194 0.53641 0.6072 0.0
O193 O 0.51422 0.54601 0.73387 0.0
O194 O 0.51657 0.49819 0.50845 0.0
O195 O 0.5417 0.48312 0.55856 0.0
O196 O 0.53613 0.50394 0.75709 0.0
O197 O 0.55368 0.51749 0.67195 0.0
O198 O 0.5085 0.48296 0.82148 0.0
O199 O 0.51391 0.47421 0.69392 0.0
H200 H 0.4697 0.54784 0.99363 0.0
H201 H 0.45673 0.5812 0.9908 0.0
H202 H 0.51109 0.60175 0.89562 0.0
H203 H 0.52399 0.56884 0.89813 0.0
H204 H 0.54448 0.45472 0.41503 0.0
H205 H 0.53282 0.421 0.40566 0.0
H206 H 0.48268 0.43596 0.54429 0.0
H207 H 0.49436 0.46947 0.55359 0.0
Pr208 Pr 1.00747 0.49681 0.78594 0.0
Pr209 Pr 0.02204 0.51817 0.63558 0.0
C210 C 0.98764 0.48401 0.90954 0.0
C211 C 0.96679 0.47995 0.92096 0.0
C212 C 0.96091 0.46229 0.95456 0.0
C213 C 0.94117 0.45724 0.95667 0.0
C214 C 0.927 0.46974 0.92473 0.0
C215 C 0.93301 0.48755 0.89222 0.0
C216 C 0.95266 0.49263 0.89068 0.0
C217 C 0.01825 0.47249 0.66421 0.0
C218 C 0.97455 0.51344 0.65507 0.0
C219 C 0.04032 0.52448 0.50147 0.0
C220 C 0.0601 0.53187 0.48594 0.0
C221 C 0.06314 0.54703 0.43292 0.0
C222 C 0.08182 0.55488 0.42276 0.0
C223 C 0.09771 0.54774 0.46591 0.0
C224 C 0.0945 0.53259 0.51905 0.0
C225 C 0.07599 0.52468 0.52847 0.0
C226 C 0.01955 0.54599 0.75444 0.0
C227 C 0.05406 0.50499 0.77384 0.0
O228 O 0.99256 0.50233 0.90025 0.0
O229 O 0.99651 0.47227 0.86166 0.0
O230 O 1.00842 0.48803 0.65765 0.0
O231 O 0.02289 0.46913 0.73574 0.0
O232 O 0.98873 0.51839 0.60733 0.0
O233 O 0.9781 0.5061 0.72449 0.0
O234 O 0.03937 0.50722 0.53407 0.0
O235 O 0.02802 0.5371 0.53082 0.0
O236 O 0.01561 0.52809 0.75952 0.0
O237 O 0.02472 0.55019 0.6844 0.0
O238 O 0.03961 0.50259 0.82322 0.0
O239 O 0.05082 0.50819 0.69951 0.0
H240 H 0.97162 0.45224 0.97773 0.0
H241 H 0.93701 0.44357 0.98333 0.0
H242 H 0.92256 0.49742 0.86617 0.0
H243 H 0.95682 0.50627 0.86382 0.0
H244 H 0.05107 0.55287 0.39983 0.0
H245 H 0.08384 0.56637 0.38061 0.0
H246 H 0.10627 0.52693 0.55425 0.0
H247 H 0.07408 0.51302 0.56984 0.0
H248 H 0.2083 0.03294 0.26105 0.0
H249 H 0.17987 0.03319 0.34741 0.0
H250 H 0.14661 1.00173 0.17669 0.0
H251 H 0.17511 1.00129 0.09095 0.0
H252 H 0.14263 0.04879 0.32311 0.0
H253 H 0.13862 0.96877 0.37056 0.0
H254 H 0.15974 0.98044 0.32916 0.0
H255 H 0.13852 0.97596 0.27091 0.0
C256 C 0.19491 0.02602 0.24242 0.0
C257 C 0.19379 0.017 0.16995 0.0
C258 C 0.17869 0.0262 0.29155 0.0
C259 C 0.16115 0.01723 0.26911 0.0
C260 C 0.16006 1.00839 0.19603 0.0
H261 H 0.04904 1.00079 0.50087 0.0
H262 H 0.07539 1.00244 0.40541 0.0
C263 C 0.17628 1.00822 0.14695 0.0
C264 C 0.14396 0.01741 0.32163 0.0
H265 H 0.11267 0.98772 0.42043 0.0
C266 C 0.1361 0.03544 0.34454 0.0
C267 C 0.13536 0.99999 0.34939 0.0
C268 C 0.14356 0.98018 0.32942 0.0
C269 C 0.11982 0.03652 0.39369 0.0
C270 C 0.11134 0.0191 0.42201 0.0
C271 C 0.1191 1.00107 0.39858 0.0
C272 C 0.09484 0.01921 0.47798 0.0
C273 C 0.11165 0.05633 0.41373 0.0
C274 C 0.09694 0.0281 0.55054 0.0
C275 C 0.0819 0.02721 0.60498 0.0
C276 C 0.06449 0.01726 0.58836 0.0
C277 C 0.06226 1.0086 0.51533 0.0
C278 C 0.07733 1.00949 0.46082 0.0
H279 H 0.11588 0.06752 0.37047 0.0
H280 H 0.09551 0.05592 0.41768 0.0
H281 H 0.11751 0.06097 0.47053 0.0
H282 H 0.11042 0.03532 0.56593 0.0
H283 H 0.08411 0.03394 0.66084 0.0
H284 H 0.50133 0.20419 0.25977 0.0
H285 H 0.50168 0.17582 0.34626 0.0
H286 H 0.51517 0.13835 0.15367 0.0
H287 H 0.51466 0.16676 0.0668 0.0
H288 H 0.47779 0.14023 0.32994 0.0
H289 H 0.55757 0.12579 0.32155 0.0
H290 H 0.54723 0.14911 0.29512 0.0
H291 H 0.54545 0.12881 0.23019 0.0
C292 C 0.50431 0.1899 0.23594 0.0
C293 C 0.5079 0.18755 0.15681 0.0
C294 C 0.50454 0.17372 0.28536 0.0
C295 C 0.5086 0.155 0.25652 0.0
C296 C 0.51224 0.15269 0.17728 0.0
H297 H 0.5223 0.0426 0.49277 0.0
H298 H 0.52093 0.06865 0.39551 0.0
C299 C 0.51188 0.16886 0.12777 0.0
C300 C 0.5086 0.13788 0.30924 0.0
H301 H 0.53825 0.1037 0.3923 0.0
C302 C 0.491 0.13221 0.34362 0.0
C303 C 0.52581 0.12735 0.32636 0.0
C304 C 0.54516 0.13306 0.29196 0.0
C305 C 0.4901 0.11625 0.3945 0.0
C306 C 0.50741 0.106 0.41343 0.0
C307 C 0.52498 0.11153 0.37804 0.0
C308 C 0.50773 0.08994 0.47159 0.0
C309 C 0.4705 0.11035 0.42624 0.0
C310 C 0.50094 0.09322 0.54693 0.0
C311 C 0.50151 0.07833 0.60209 0.0
C312 C 0.50924 0.05991 0.58367 0.0
C313 C 0.51623 0.05663 0.50856 0.0
C314 C 0.51548 0.07152 0.45304 0.0
H315 H 0.45845 0.11509 0.38762 0.0
H316 H 0.46952 0.0943 0.43422 0.0
H317 H 0.46827 0.11748 0.48302 0.0
H318 H 0.49543 0.10742 0.56357 0.0
H319 H 0.49619 0.08137 0.65966 0.0
H320 H 0.32331 0.47276 0.29025 0.0
H321 H 0.35188 0.47582 0.37516 0.0
H322 H 0.37126 0.52568 0.24396 0.0
H323 H 0.34253 0.52275 0.15988 0.0
H324 H 0.39137 0.47431 0.34122 0.0
H325 H 0.37164 0.5464 0.46445 0.0
H326 H 0.35459 0.53177 0.41029 0.0
H327 H 0.37272 0.54599 0.36096 0.0
C328 C 0.33368 0.4844 0.28003 0.0
C329 C 0.3308 0.49761 0.21928 0.0
C330 C 0.34999 0.48611 0.32825 0.0
C331 C 0.36362 0.50113 0.31665 0.0
C332 C 0.36079 0.5142 0.25505 0.0
H333 H 0.47949 0.50566 0.53566 0.0
H334 H 0.45288 0.50251 0.44162 0.0
C335 C 0.34445 0.51249 0.20689 0.0
C336 C 0.38077 0.50304 0.36892 0.0
H337 H 0.40275 0.53393 0.49694 0.0
C338 C 0.39388 0.48735 0.37526 0.0
C339 C 0.38395 0.51997 0.41398 0.0
C340 C 0.36991 0.53694 0.41285 0.0
C341 C 0.41007 0.48814 0.42518 0.0
C342 C 0.41344 0.50522 0.46916 0.0
C343 C 0.4003 0.52089 0.46278 0.0
C344 C 0.42985 0.50685 0.52527 0.0
C345 C 0.42308 0.47045 0.43199 0.0
C346 C 0.42587 0.51074 0.60321 0.0
C347 C 0.44104 0.5127 0.65657 0.0
C348 C 0.46056 0.51083 0.63331 0.0
C349 C 0.4646 0.50698 0.55532 0.0
C350 C 0.44938 0.50508 0.50166 0.0
H351 H 0.41585 0.45708 0.4098 0.0
H352 H 0.43649 0.47286 0.39759 0.0
H353 H 0.42744 0.4679 0.4929 0.0
H354 H 0.41097 0.51221 0.62294 0.0
H355 H 0.43743 0.5157 0.71624 0.0
H356 H 0.03063 0.31422 0.2701 0.0
H357 H 0.03111 0.34246 0.35769 0.0
H358 H 1.00632 0.37844 0.17828 0.0
H359 H 1.00565 0.35014 0.09117 0.0
H360 H 0.05018 0.37842 0.33935 0.0
H361 H 0.97013 0.38898 0.3612 0.0
H362 H 0.98086 0.36692 0.32325 0.0
H363 H 0.97943 0.38848 0.26439 0.0
C364 C 0.02521 0.32817 0.2498 0.0
C365 C 0.01801 0.33012 0.17445 0.0
C366 C 0.02552 0.34428 0.29965 0.0
C367 C 0.0185 0.36254 0.27502 0.0
C368 C 0.01144 0.36445 0.19919 0.0
H369 H 1.00588 0.47473 0.51383 0.0
H370 H 1.00707 0.4489 0.41566 0.0
C371 C 0.01115 0.34834 0.14937 0.0
C372 C 0.01897 0.37963 0.32818 0.0
H373 H 0.98999 0.41294 0.41995 0.0
C374 C 0.03702 0.38596 0.35706 0.0
C375 C 1.00181 0.38957 0.35094 0.0
C376 C 0.98192 0.38309 0.32398 0.0
C377 C 0.0384 0.40197 0.40757 0.0
C378 C 0.02121 0.41172 0.43136 0.0
C379 C 1.00317 0.40554 0.4017 0.0
C380 C 0.02149 0.42782 0.48928 0.0
C381 C 0.05832 0.40847 0.43393 0.0
C382 C 0.02918 0.42463 0.56338 0.0
C383 C 0.02862 0.43937 0.61921 0.0
C384 C 0.02013 0.45758 0.60259 0.0
C385 C 0.01257 0.46087 0.52827 0.0
C386 C 0.0132 0.44611 0.47223 0.0
H387 H 0.06984 0.40383 0.39281 0.0
H388 H 0.059 0.42457 0.44052 0.0
H389 H 0.06162 0.4017 0.49064 0.0
H390 H 0.03522 0.41055 0.57878 0.0
H391 H 0.03444 0.43632 0.67606 0.0
H392 H 0.82854 0.03043 0.17899 0.0
H393 H 0.85697 0.03104 0.09268 0.0
H394 H 0.87103 0.97197 0.15882 0.0
H395 H 0.8425 0.97135 0.24456 0.0
H396 H 0.89689 0.02532 0.12622 0.0
H397 H 0.86924 0.9693 0.92212 0.0
H398 H 0.85374 0.98118 0.99185 0.0
H399 H 0.86982 0.96188 0.02155 0.0
C400 C 0.83773 0.01761 0.17477 0.0
C401 C 0.83342 1.00082 0.21771 0.0
C402 C 0.85396 0.01797 0.12575 0.0
C403 C 0.86604 1.00148 0.11854 0.0
C404 C 0.86177 0.98475 0.16238 0.0
H405 H 0.98024 1.00214 0.88201 0.0
H406 H 0.95475 0.999 0.98109 0.0
C407 C 0.84555 0.98442 0.21148 0.0
C408 C 0.88301 1.00182 0.06494 0.0
H409 H 0.9012 0.98085 0.90115 0.0
C410 C 0.89789 0.01555 0.07716 0.0
C411 C 0.88424 0.98917 0.00058 0.0
C412 C 0.86836 0.97464 0.98254 0.0
C413 C 0.91389 0.01702 0.02667 0.0
C414 C 0.91517 1.00428 0.96257 0.0
C415 C 0.90033 0.99049 0.95067 0.0
C416 C 0.93092 1.00597 0.90379 0.0
C417 C 0.92898 0.03261 0.04087 0.0
C418 C 0.92602 0.01055 0.82727 0.0
C419 C 0.94048 0.01226 0.77096 0.0
C420 C 0.96021 1.00933 0.7896 0.0
C421 C 0.96518 1.00456 0.86606 0.0
C422 C 0.95063 1.00287 0.92272 0.0
H423 H 0.92387 0.04367 0.08315 0.0
H424 H 0.94241 0.02575 0.06414 0.0
H425 H 0.93282 0.04014 0.98622 0.0
H426 H 0.91096 0.01299 0.81115 0.0
H427 H 0.93616 0.01594 0.71261 0.0
H428 H 0.52232 0.84999 0.31926 0.0
H429 H 0.52118 0.87823 0.2318 0.0
H430 H 0.51394 0.83946 0.0378 0.0
H431 H 0.51492 0.81125 0.12548 0.0
H432 H 0.54594 0.8868 0.10763 0.0
H433 H 0.46932 0.87886 0.00937 0.0
H434 H 0.47872 0.86638 0.09337 0.0
H435 H 0.48396 0.85729 0.99837 0.0
C436 C 0.52038 0.84759 0.25794 0.0
C437 C 0.51859 0.8286 0.22871 0.0
C438 C 0.51976 0.86367 0.20809 0.0
C439 C 0.51722 0.861 0.12832 0.0
C440 C 0.51553 0.84192 0.09921 0.0
H441 H 0.53915 0.94043 0.74921 0.0
H442 H 0.53953 0.91392 0.84413 0.0
C443 C 0.51618 0.82583 0.14912 0.0
C444 C 0.51689 0.87814 0.07554 0.0
H445 H 0.48871 0.90222 0.94328 0.0
C446 C 0.5334 0.89021 0.07191 0.0
C447 C 0.50045 0.8827 0.02946 0.0
C448 C 0.48202 0.87075 0.03309 0.0
C449 C 0.53406 0.90643 0.02227 0.0
C450 C 0.51783 0.91067 0.97481 0.0
C451 C 0.50117 0.89887 0.9795 0.0
C452 C 0.51802 0.92711 0.9189 0.0
C453 C 0.55207 0.91903 0.02111 0.0
C454 C 0.50576 0.94332 0.92937 0.0
C455 C 0.50561 0.95857 0.87544 0.0
C456 C 0.51752 0.95772 0.80954 0.0
C457 C 0.52983 0.94151 0.79944 0.0
C458 C 0.5301 0.92637 0.85368 0.0
H459 H 0.56168 0.91615 0.07149 0.0
H460 H 0.56046 0.91599 0.96775 0.0
H461 H 0.54804 0.93474 0.02074 0.0
H462 H 0.49629 0.94413 0.97922 0.0
H463 H 0.49592 0.97085 0.88461 0.0
H464 H 0.67547 0.51232 0.31072 0.0
H465 H 0.64768 0.51069 0.22112 0.0
H466 H 0.68387 0.5336 0.03896 0.0
H467 H 0.71166 0.53489 0.12825 0.0
H468 H 0.62934 0.53985 0.13846 0.0
H469 H 0.66102 0.48526 0.93848 0.0
H470 H 0.67132 0.49018 0.03231 0.0
H471 H 0.67624 0.50624 0.95253 0.0
C472 C 0.67742 0.51691 0.25139 0.0
C473 C 0.69558 0.52364 0.22582 0.0
C474 C 0.66158 0.51602 0.20034 0.0
C475 C 0.66372 0.52173 0.12286 0.0
C476 C 0.68192 0.5287 0.09786 0.0
H477 H 0.58735 0.52996 0.72388 0.0
H478 H 0.61397 0.53257 0.81759 0.0
C479 C 0.69775 0.52956 0.14888 0.0
C480 C 0.64688 0.52071 0.0686 0.0
H481 H 0.63197 0.50107 0.89707 0.0
C482 C 0.62987 0.53127 0.08592 0.0
C483 C 0.64754 0.5095 0.99999 0.0
C484 C 0.66493 0.497 0.97992 0.0
C485 C 0.61372 0.53128 0.03576 0.0
C486 C 0.61448 0.52024 0.96686 0.0
C487 C 0.63143 0.5096 0.94972 0.0
C488 C 0.59788 0.51949 0.91156 0.0
C489 C 0.59614 0.54347 0.05598 0.0
C490 C 0.57994 0.51127 0.93315 0.0
C491 C 0.56471 0.50971 0.87957 0.0
C492 C 0.56714 0.51632 0.80334 0.0
C493 C 0.58501 0.52477 0.78218 0.0
C494 C 0.60025 0.52624 0.83564 0.0
H495 H 0.59954 0.55454 0.10083 0.0
H496 H 0.59035 0.55105 0.00413 0.0
H497 H 0.5845 0.53382 0.0787 0.0
H498 H 0.57787 0.50567 0.99099 0.0
H499 H 0.55115 0.50301 0.89746 0.0
H500 H 0.02196 0.70184 0.1581 0.0
H501 H 0.02347 0.67347 0.0717 0.0
H502 H 0.99811 0.63749 0.24951 0.0
H503 H 0.99625 0.666 0.33528 0.0
H504 H 0.04292 0.63865 0.08985 0.0
H505 H 0.9634 0.62503 0.06608 0.0
H506 H 0.97316 0.64733 0.10564 0.0
H507 H 0.97251 0.6255 0.1632 0.0
C508 C 0.0166 0.68788 0.17832 0.0
C509 C 1.00886 0.68602 0.25279 0.0
C510 C 0.0175 0.67167 0.12911 0.0
C511 C 0.01062 0.65335 0.15348 0.0
C512 C 1.00309 0.65151 0.2286 0.0
H513 H 1.00743 0.54086 0.90477 0.0
H514 H 1.00562 0.56586 0.00671 0.0
C515 C 1.00215 0.66775 0.27773 0.0
C516 C 0.01178 0.63618 0.10073 0.0
H517 H 0.98425 0.60198 0.00674 0.0
C518 C 0.03008 0.63064 0.0718 0.0
C519 C 0.99505 0.62559 0.07739 0.0
C520 C 0.97489 0.63122 0.10404 0.0
C521 C 0.03211 0.61496 0.02011 0.0
C522 C 0.01535 0.60463 0.99555 0.0
C523 C 0.99709 0.60985 0.02574 0.0
C524 C 0.01639 0.5893 0.93473 0.0
C525 C 0.05223 0.60952 0.99237 0.0
C526 C 0.02274 0.5942 0.86029 0.0
C527 C 0.02371 0.58005 0.80238 0.0
C528 C 0.01828 0.56063 0.81731 0.0
C529 C 0.01175 0.55569 0.89165 0.0
C530 C 0.0107 0.56995 0.94981 0.0
H531 H 0.0637 0.61483 0.03244 0.0
H532 H 0.05373 0.59346 0.98603 0.0
H533 H 0.0548 0.61631 0.93516 0.0
H534 H 0.02683 0.60908 0.84673 0.0
H535 H 0.02872 0.58437 0.74565 0.0
H536 H 0.02562 0.22912 0.28052 0.0
H537 H 0.01394 0.21213 0.39491 0.0
H538 H 0.96286 0.2489 0.39915 0.0
H539 H 0.97454 0.26586 0.2828 0.0
H540 H 0.99881 0.21851 0.54721 0.0
H541 H 0.94175 0.19537 0.33594 0.0
H542 H 0.96249 0.2093 0.30415 0.0
H543 H 0.9439 0.22069 0.36158 0.0
C544 C 0.01225 0.23403 0.30756 0.0
C545 C 1.00077 0.24848 0.27264 0.0
C546 C 1.00562 0.22441 0.37317 0.0
C547 C 0.98734 0.22899 0.40459 0.0
C548 C 0.97688 0.24499 0.37507 0.0
H549 H 0.94705 0.1143 0.52599 0.0
H550 H 0.94364 0.14968 0.54242 0.0
C551 C 0.98357 0.2547 0.30901 0.0
C552 C 0.97812 0.21426 0.45515 0.0
H553 H 0.95066 0.17336 0.43094 0.0
C554 C 0.98772 0.20895 0.52364 0.0
C555 C 0.96333 0.20196 0.42539 0.0
C556 C 0.95221 0.20698 0.35276 0.0
C557 C 0.98475 0.19053 0.55715 0.0
C558 C 0.97225 0.17709 0.51996 0.0
C559 C 0.96053 0.18354 0.45865 0.0
C560 C 0.97445 0.1557 0.53001 0.0
C561 C 0.99608 0.18518 0.62871 0.0
C562 C 0.99289 0.14727 0.51883 0.0
C563 C 0.99485 0.12719 0.50938 0.0
C564 C 0.97837 0.11506 0.50974 0.0
C565 C 0.96 0.12331 0.52507 0.0
C566 C 0.95805 0.14349 0.53484 0.0
H567 H 0.9971 0.1979 0.66821 0.0
H568 H 0.98929 0.1728 0.66013 0.0
H569 H 0.01117 0.18108 0.61236 0.0
H570 H 1.00573 0.15631 0.51262 0.0
H571 H 0.00925 0.12121 0.49962 0.0
H572 H 0.29815 0.03061 0.26849 0.0
H573 H 0.31365 0.02223 0.39041 0.0
H574 H 0.2713 0.97664 0.42689 0.0
H575 H 0.25601 0.9847 0.30242 0.0
H576 H 0.3053 0.01649 0.54712 0.0
H577 H 0.32144 0.9461 0.39728 0.0
H578 H 0.31027 0.966 0.34564 0.0
H579 H 0.29656 0.95265 0.41641 0.0
C580 C 0.29187 0.01909 0.30334 0.0
C581 C 0.27625 1.00795 0.2754 0.0
C582 C 0.30062 0.01441 0.37339 0.0
C583 C 0.29391 0.99851 0.41695 0.0
C584 C 0.27693 0.98872 0.39339 0.0
H585 H 0.40139 0.95192 0.59676 0.0
H586 H 0.36587 0.95436 0.60964 0.0
C587 C 0.26815 0.99339 0.32265 0.0
C588 C 0.30705 0.99055 0.47714 0.0
H589 H 0.34376 0.95715 0.48728 0.0
C590 C 0.31332 1.00313 0.53614 0.0
C591 C 0.3173 0.9729 0.46414 0.0
C592 C 0.31117 0.95857 0.40251 0.0
C593 C 0.33103 0.99989 0.57465 0.0
C594 C 0.3427 0.98379 0.5529 0.0
C595 C 0.33494 0.96968 0.50297 0.0
C596 C 0.36412 0.98374 0.56417 0.0
C597 C 0.33774 0.01463 0.63348 0.0
C598 C 0.37497 0.99953 0.5356 0.0
C599 C 0.39511 0.99811 0.52767 0.0
C600 C 0.40488 0.98082 0.54764 0.0
C601 C 0.39422 0.9654 0.58053 0.0
C602 C 0.37396 0.96681 0.58828 0.0
H603 H 0.3255 0.01858 0.6724 0.0
H604 H 0.35007 1.00916 0.66881 0.0
H605 H 0.34235 0.02817 0.60339 0.0
H606 H 0.36775 0.01258 0.51481 0.0
H607 H 0.40299 0.01042 0.50397 0.0
H608 H 0.45445 0.28551 0.20707 0.0
H609 H 0.4547 0.30509 0.32343 0.0
H610 H 0.49837 0.26727 0.42258 0.0
H611 H 0.49981 0.24889 0.30203 0.0
H612 H 0.45389 0.30914 0.47224 0.0
H613 H 0.53199 0.31258 0.38133 0.0
H614 H 0.51465 0.29856 0.32721 0.0
H615 H 0.52333 0.28991 0.41938 0.0
C616 C 0.46388 0.2811 0.25415 0.0
C617 C 0.47801 0.26651 0.24343 0.0
C618 C 0.46384 0.29219 0.32143 0.0
C619 C 0.47752 0.28842 0.37991 0.0
C620 C 0.48852 0.27114 0.37622 0.0
H621 H 0.49461 0.40431 0.59836 0.0
H622 H 0.48769 0.36923 0.60155 0.0
C623 C 0.48911 0.26043 0.30745 0.0
C624 C 0.4832 0.30488 0.4311 0.0
H625 H 0.51926 0.33899 0.4449 0.0
C626 C 0.46834 0.31547 0.46826 0.0
C627 C 0.50217 0.31311 0.42657 0.0
C628 C 0.51895 0.30307 0.38634 0.0
C629 C 0.47122 0.33491 0.49148 0.0
C630 C 0.48961 0.34361 0.47933 0.0
C631 C 0.5051 0.33222 0.45248 0.0
C632 C 0.49239 0.36501 0.47932 0.0
C633 C 0.45421 0.34653 0.52184 0.0
C634 C 0.49733 0.37422 0.40962 0.0
C635 C 0.50163 0.39406 0.40786 0.0
C636 C 0.5009 0.40515 0.47575 0.0
C637 C 0.49527 0.39608 0.54517 0.0
C638 C 0.49121 0.37608 0.5471 0.0
H639 H 0.44046 0.33798 0.52172 0.0
H640 H 0.45728 0.3512 0.58191 0.0
H641 H 0.45205 0.35988 0.4865 0.0
H642 H 0.49819 0.36592 0.3565 0.0
H643 H 0.50565 0.40072 0.35346 0.0
H644 H 0.25873 0.57301 0.16318 0.0
H645 H 0.23742 0.59196 0.24784 0.0
H646 H 0.23422 0.5429 0.40379 0.0
H647 H 0.25629 0.52465 0.32185 0.0
H648 H 0.20328 0.57913 0.24656 0.0
H649 H 0.22135 0.58375 0.55326 0.0
H650 H 0.23999 0.5795 0.48165 0.0
H651 H 0.22684 0.55933 0.5242 0.0
C652 C 0.25453 0.56689 0.21837 0.0
C653 C 0.25898 0.5474 0.23618 0.0
C654 C 0.24224 0.57766 0.26656 0.0
C655 C 0.23391 0.56886 0.33201 0.0
C656 C 0.2406 0.55031 0.35481 0.0
H657 H 0.1318 0.52722 0.46354 0.0
H658 H 0.16462 0.53956 0.44318 0.0
C659 C 0.25323 0.53974 0.30757 0.0
C660 C 0.21485 0.5759 0.36186 0.0
H661 H 0.18674 0.5734 0.52386 0.0
C662 C 0.19984 0.57879 0.3076 0.0
C663 C 0.21013 0.57559 0.44133 0.0
C664 C 0.22557 0.57458 0.50312 0.0
C665 C 0.18023 0.57884 0.32978 0.0
C666 C 0.17552 0.57599 0.40818 0.0
C667 C 0.19045 0.57531 0.46349 0.0
C668 C 0.15576 0.56967 0.43042 0.0
C669 C 0.16463 0.57986 0.2684 0.0
C670 C 0.13991 0.58262 0.43032 0.0
C671 C 0.121 0.5756 0.4425 0.0
C672 C 0.11771 0.55555 0.45467 0.0
C673 C 0.13377 0.54278 0.45579 0.0
C674 C 0.15257 0.54979 0.44417 0.0
H675 H 0.17078 0.58193 0.2097 0.0
H676 H 0.15591 0.56621 0.26879 0.0
H677 H 0.15459 0.59216 0.28083 0.0
H678 H 0.14215 0.59802 0.41944 0.0
H679 H 0.10898 0.58586 0.44233 0.0
H680 H 0.02466 0.74928 0.10998 0.0
H681 H 0.03112 0.76574 0.98712 0.0
H682 H 0.98221 0.80403 0.02743 0.0
H683 H 0.97502 0.78692 0.14685 0.0
H684 H 0.98946 0.80053 0.87403 0.0
H685 H 0.0587 0.81589 0.0332 0.0
H686 H 0.05382 0.79123 0.00447 0.0
H687 H 0.03926 0.80252 0.07835 0.0
C688 C 0.01478 0.76062 0.09076 0.0
C689 C 0.99975 0.76733 0.13911 0.0
C690 C 0.01861 0.77014 0.02089 0.0
C691 C 1.00769 0.78666 0.99986 0.0
C692 C 0.99106 0.79151 0.04291 0.0
H693 H 0.99746 0.89856 0.94659 0.0
H694 H 0.9946 0.86336 0.93312 0.0
C695 C 0.98705 0.78184 0.11171 0.0
C696 C 0.01527 0.80141 0.94498 0.0
H697 H 0.04802 0.83882 0.94537 0.0
C698 C 1.00264 0.80856 0.88766 0.0
C699 C 0.03264 0.81181 0.96184 0.0
C700 C 0.04691 0.8051 0.02285 0.0
C701 C 1.00563 0.82697 0.85422 0.0
C702 C 0.02159 0.83835 0.87887 0.0
C703 C 0.03565 0.83007 0.92749 0.0
C704 C 0.0217 0.85982 0.87074 0.0
C705 C 0.99095 0.83472 0.79724 0.0
C706 C 0.03793 0.86954 0.84033 0.0
C707 C 0.0396 0.88978 0.84793 0.0
C708 C 0.02523 0.90057 0.88726 0.0
C709 C 1.0087 0.89079 0.91528 0.0
C710 C 1.00696 0.87064 0.90703 0.0
H711 H 0.98418 0.82264 0.76397 0.0
H712 H 0.97916 0.8424 0.82888 0.0
H713 H 0.99777 0.8452 0.75647 0.0
H714 H 0.04957 0.8614 0.81303 0.0
H715 H 0.0523 0.89693 0.82402 0.0
H716 H 0.72965 0.98678 0.11095 0.0
H717 H 0.71321 0.99746 0.99486 0.0
H718 H 0.75511 0.04397 0.96766 0.0
H719 H 0.77111 0.03368 0.08768 0.0
H720 H 0.72236 0.05938 0.97162 0.0
H721 H 0.71167 0.99967 0.7704 0.0
H722 H 0.70638 0.98903 0.86212 0.0
H723 H 0.73057 0.9984 0.84294 0.0
C724 C 0.73576 0.99887 0.07872 0.0
C725 C 0.75137 1.00964 0.10883 0.0
C726 C 0.72652 1.00484 0.01126 0.0
C727 C 0.73289 0.02154 0.97146 0.0
C728 C 0.74988 0.03105 0.99708 0.0
H729 H 0.62142 0.04214 0.75477 0.0
H730 H 0.65693 0.0419 0.74728 0.0
C731 C 0.75908 0.02513 0.06546 0.0
C732 C 0.71917 0.0312 0.91698 0.0
H733 H 0.68032 0.01801 0.80653 0.0
C734 C 0.71363 0.05054 0.93297 0.0
C735 C 0.70809 0.02035 0.86307 0.0
C736 C 0.71475 1.0008 0.83319 0.0
C737 C 0.6957 0.05792 0.9074 0.0
C738 C 0.68276 0.04538 0.86774 0.0
C739 C 0.68976 0.02739 0.84035 0.0
C740 C 0.66138 0.04886 0.86774 0.0
C741 C 0.69035 0.07864 0.92768 0.0
C742 C 0.65194 0.05298 0.93783 0.0
C743 C 0.63167 0.05338 0.94217 0.0
C744 C 0.62029 0.0492 0.87691 0.0
C745 C 0.62971 0.04564 0.80609 0.0
C746 C 0.65006 0.04543 0.80165 0.0
H747 H 0.70324 0.0883 0.92168 0.0
H748 H 0.67844 0.08433 0.89048 0.0
H749 H 0.68569 0.07931 0.98893 0.0
H750 H 0.6602 0.05497 0.99049 0.0
H751 H 0.62494 0.05641 0.99737 0.0
H752 H 0.49828 0.76548 0.09948 0.0
H753 H 0.48721 0.74716 0.98705 0.0
H754 H 0.44402 0.71845 0.12808 0.0
H755 H 0.4539 0.73784 0.2379 0.0
H756 H 0.49588 0.71218 0.99343 0.0
H757 H 0.41798 0.7107 0.9312 0.0
H758 H 0.42865 0.7306 0.98491 0.0
H759 H 0.41987 0.70899 0.0338 0.0
C760 C 0.48563 0.75616 0.10527 0.0
C761 C 0.47737 0.75256 0.17809 0.0
C762 C 0.47935 0.74558 0.04086 0.0
C763 C 0.465 0.73105 0.0488 0.0
C764 C 0.45494 0.72961 0.11917 0.0
H765 H 0.46243 0.6144 0.04992 0.0
H766 H 0.45462 0.64926 0.04761 0.0
C767 C 0.46087 0.74051 0.18283 0.0
C768 C 0.46448 0.71419 0.99471 0.0
H769 H 0.43417 0.67738 0.93801 0.0
C770 C 0.48234 0.70501 0.97829 0.0
C771 C 0.44693 0.70468 0.97398 0.0
C772 C 0.42735 0.71447 0.98134 0.0
C773 C 0.48308 0.68579 0.95127 0.0
C774 C 0.46549 0.67548 0.93997 0.0
C775 C 0.44763 0.68524 0.94827 0.0
C776 C 0.46569 0.65402 0.93225 0.0
C777 C 0.50271 0.67604 0.94217 0.0
C778 C 0.47378 0.64509 0.86697 0.0
C779 C 0.47837 0.62524 0.86843 0.0
C780 C 0.47488 0.61403 0.93506 0.0
C781 C 0.4653 0.62268 0.99789 0.0
C782 C 0.46077 0.64256 0.99649 0.0
H783 H 0.51494 0.68566 0.95991 0.0
H784 H 0.50335 0.66247 0.97716 0.0
H785 H 0.50492 0.67195 0.88084 0.0
H786 H 0.47756 0.6537 0.81672 0.0
H787 H 0.48535 0.61879 0.81856 0.0
H788 H 0.7832 0.5145 0.08576 0.0
H789 H 0.80022 0.4954 0.98907 0.0
H790 H 0.77921 0.44226 0.09411 0.0
H791 H 0.76251 0.46171 0.19296 0.0
H792 H 0.81618 0.44297 0.10097 0.0
H793 H 0.79997 0.46255 0.80268 0.0
H794 H 0.80086 0.48509 0.85443 0.0
H795 H 0.78261 0.4671 0.87903 0.0
C796 C 0.78139 0.49878 0.08557 0.0
C797 C 0.77165 0.48948 0.14616 0.0
C798 C 0.79099 0.48778 0.02976 0.0
C799 C 0.79096 0.46728 0.03357 0.0
C800 C 0.77935 0.45803 0.08955 0.0
H801 H 0.91026 0.43371 0.90103 0.0
H802 H 0.87549 0.42537 0.90852 0.0
C803 C 0.76979 0.46911 0.14584 0.0
C804 C 0.80695 0.45653 0.99454 0.0
H805 H 0.83618 0.46272 0.83765 0.0
C806 C 0.82016 0.44639 0.04197 0.0
C807 C 0.81218 0.46053 0.91722 0.0
C808 C 0.79795 0.46923 0.86052 0.0
C809 C 0.83943 0.4432 0.01843 0.0
C810 C 0.84546 0.45029 0.94585 0.0
C811 C 0.83156 0.45767 0.89409 0.0
C812 C 0.86616 0.4549 0.93229 0.0
C813 C 0.8538 0.43457 0.07491 0.0
C814 C 0.87226 0.47421 0.94314 0.0
C815 C 0.89195 0.47896 0.94038 0.0
C816 C 0.90601 0.46449 0.926 0.0
C817 C 0.89981 0.44515 0.91337 0.0
C818 C 0.87999 0.44037 0.9167 0.0
H819 H 0.84657 0.4289 0.12768 0.0
H820 H 0.86193 0.42245 0.04721 0.0
H821 H 0.86455 0.44586 0.09221 0.0
H822 H 0.86176 0.48555 0.95645 0.0
H823 H 0.89616 0.49391 0.9517 0.0
H824 H 0.9785 0.22194 0.01528 0.0
H825 H 0.97913 0.19062 0.94721 0.0
H826 H 0.04105 0.19662 0.9126 0.0
H827 H 0.0403 0.22835 0.97915 0.0
H828 H 0.02224 0.17862 0.78692 0.0
H829 H 1.0011 0.1439 0.06347 0.0
H830 H 0.984 0.16189 0.03044 0.0
H831 H 1.00827 0.16916 0.05716 0.0
C832 C 0.99213 0.21682 0.99105 0.0
C833 C 0.00935 0.22756 0.00216 0.0
C834 C 0.99252 0.19884 0.95289 0.0
C835 C 0.01021 0.19098 0.92646 0.0
C836 C 0.02723 0.20231 0.93283 0.0
H837 H 0.03052 0.06624 0.87822 0.0
H838 H 0.03031 0.10063 0.91598 0.0
C839 C 0.0268 0.22047 0.97044 0.0
C840 C 0.01114 0.17041 0.89833 0.0
H841 H 1.00209 0.12341 0.95386 0.0
C842 C 0.01789 0.16652 0.82338 0.0
C843 C 1.00577 0.15455 0.94629 0.0
C844 C 0.99956 0.1575 0.02905 0.0
C845 C 0.01919 0.14728 0.79488 0.0
C846 C 0.01321 0.13144 0.84214 0.0
C847 C 1.0066 0.13542 0.91723 0.0
C848 C 0.01401 0.1106 0.81631 0.0
C849 C 0.02747 0.14415 0.71521 0.0
C850 C 1.00484 0.10451 0.74784 0.0
C851 C 1.00523 0.08485 0.72554 0.0
C852 C 0.01438 0.07067 0.77207 0.0
C853 C 0.02329 0.07671 0.84108 0.0
C854 C 0.02319 0.09643 0.8627 0.0
H855 H 0.03664 0.15666 0.69676 0.0
H856 H 0.03639 0.13064 0.71263 0.0
H857 H 0.01534 0.14279 0.67324 0.0
H858 H 0.99707 0.11489 0.71204 0.0
H859 H 0.99805 0.08072 0.67237 0.0
H860 H 0.28994 0.03693 0.94377 0.0
H861 H 0.32021 0.03776 0.86771 0.0
H862 H 0.33834 0.9835 0.97159 0.0
H863 H 0.30823 0.98253 0.04637 0.0
H864 H 0.35668 0.03995 0.93306 0.0
H865 H 0.35302 0.97451 0.74718 0.0
H866 H 0.33173 0.98503 0.79209 0.0
H867 H 0.3475 0.96902 0.84601 0.0
C868 C 0.30013 0.0249 0.94838 0.0
C869 C 0.29672 1.00967 0.001 0.0
C870 C 0.31748 0.02544 0.90534 0.0
C871 C 0.33155 0.0106 0.91329 0.0
C872 C 0.32763 0.99492 0.96305 0.0
H873 H 0.4567 0.01491 0.89336 0.0
H874 H 0.42206 0.01547 0.92676 0.0
C875 C 0.31044 0.99445 0.00623 0.0
C876 C 0.3512 0.01243 0.87718 0.0
H877 H 0.38504 0.98745 0.77113 0.0
C878 C 0.36277 0.02858 0.8968 0.0
C879 C 0.35917 0.99776 0.82908 0.0
C880 C 0.34714 0.9807 0.80166 0.0
C881 C 0.3823 0.02999 0.87289 0.0
C882 C 0.39068 0.01467 0.82923 0.0
C883 C 0.37881 0.99902 0.80605 0.0
C884 C 0.4118 0.01443 0.80865 0.0
C885 C 0.39378 0.04792 0.89489 0.0
C886 C 0.41767 0.01318 0.73124 0.0
C887 C 0.4375 0.01279 0.71199 0.0
C888 C 0.45195 0.01345 0.7698 0.0
C889 C 0.44603 0.01457 0.84732 0.0
C890 C 0.42618 0.01497 0.86649 0.0
H891 H 0.38405 0.06055 0.9065 0.0
H892 H 0.40216 0.04488 0.94838 0.0
H893 H 0.40422 0.05205 0.84877 0.0
H894 H 0.4069 0.01266 0.68558 0.0
H895 H 0.44148 0.01195 0.65163 0.0
H896 H 0.46565 0.29799 0.98996 0.0
H897 H 0.46991 0.32971 0.92804 0.0
H898 H 0.53135 0.31819 0.90205 0.0
H899 H 0.52713 0.28636 0.96564 0.0
H900 H 0.52418 0.35321 0.97295 0.0
H901 H 0.47896 0.34812 0.70934 0.0
H902 H 0.46596 0.34086 0.79421 0.0
H903 H 0.48671 0.32688 0.76277 0.0
C904 C 0.47998 0.30199 0.96911 0.0
C905 C 0.49605 0.28965 0.98239 0.0
C906 C 0.4824 0.32012 0.9334 0.0
C907 C 0.50092 0.32635 0.9096 0.0
C908 C 0.51688 0.31367 0.91951 0.0
H909 H 0.51835 0.43813 0.67449 0.0
H910 H 0.51731 0.40356 0.70814 0.0
C911 C 0.51445 0.29542 0.95515 0.0
C912 C 0.50375 0.34679 0.88208 0.0
H913 H 0.48678 0.38052 0.75283 0.0
C914 C 0.51617 0.35911 0.92425 0.0
C915 C 0.49344 0.35453 0.81818 0.0
C916 C 0.48068 0.34186 0.76803 0.0
C917 C 0.51803 0.37904 0.90604 0.0
C918 C 0.50691 0.38701 0.84477 0.0
C919 C 0.49506 0.37453 0.80068 0.0
C920 C 0.5075 0.40822 0.82514 0.0
C921 C 0.53202 0.39132 0.95243 0.0
C922 C 0.50226 0.42248 0.87967 0.0
C923 C 0.50306 0.4424 0.86099 0.0
C924 C 0.50886 0.44848 0.78693 0.0
C925 C 0.51374 0.4341 0.73206 0.0
C926 C 0.51312 0.41424 0.75107 0.0
H927 H 0.54325 0.38221 0.98145 0.0
H928 H 0.53947 0.40223 0.91539 0.0
H929 H 0.52382 0.39926 0.9978 0.0
H930 H 0.49749 0.41822 0.93677 0.0
H931 H 0.49908 0.453 0.90455 0.0
H932 H 0.22945 0.54025 0.976 0.0
H933 H 0.19689 0.53578 0.92121 0.0
H934 H 0.19715 0.4757 0.99503 0.0
H935 H 0.22988 0.48012 0.05026 0.0
H936 H 0.17955 0.48272 0.84416 0.0
H937 H 0.1501 0.53126 0.07235 0.0
H938 H 0.16965 0.54172 0.01735 0.0
H939 H 0.17422 0.52079 0.07723 0.0
C940 C 0.22274 0.52596 0.97913 0.0
C941 C 0.23218 0.51056 0.01791 0.0
C942 C 0.20409 0.52346 0.94824 0.0
C943 C 0.1944 0.50554 0.95564 0.0
C944 C 0.20431 0.4897 0.98918 0.0
H945 H 0.06739 0.49475 0.91816 0.0
H946 H 0.10125 0.4932 0.96292 0.0
C947 C 0.22307 0.49219 0.02016 0.0
C948 C 0.17355 0.50386 0.93276 0.0
H949 H 0.12836 0.5225 0.97143 0.0
C950 C 0.16833 0.49132 0.87217 0.0
C951 C 0.15884 0.51484 0.97028 0.0
C952 C 0.16338 0.52778 0.03841 0.0
C953 C 0.14889 0.48998 0.84642 0.0
C954 C 0.13434 0.50165 0.88164 0.0
C955 C 0.1395 0.51368 0.94391 0.0
C956 C 0.11377 0.50198 0.85376 0.0
C957 C 0.14412 0.47596 0.78206 0.0
C958 C 0.10945 0.50772 0.77789 0.0
C959 C 0.09013 0.50864 0.75221 0.0
C960 C 0.07459 0.50394 0.8018 0.0
C961 C 0.07894 0.4984 0.87816 0.0
C962 C 0.09831 0.49749 0.90386 0.0
H963 H 0.15526 0.46425 0.77714 0.0
H964 H 0.12964 0.4691 0.79098 0.0
H965 H 0.14377 0.48403 0.72654 0.0
H966 H 0.12103 0.51181 0.73868 0.0
H967 H 0.08743 0.51329 0.69362 0.0
H968 H 0.02695 0.78413 0.4642 0.0
H969 H 0.02867 0.81565 0.53205 0.0
H970 H 0.97336 0.83223 0.43356 0.0
H971 H 0.97155 0.80089 0.36668 0.0
H972 H 0.02944 0.85156 0.4543 0.0
H973 H 0.96707 0.84979 0.65708 0.0
H974 H 0.97731 0.82793 0.61502 0.0
H975 H 0.96077 0.84291 0.56036 0.0
C976 C 0.01488 0.79426 0.45931 0.0
C977 C 0.99907 0.79001 0.41053 0.0
C978 C 0.01594 0.81232 0.49751 0.0
C979 C 1.00107 0.82631 0.48851 0.0
C980 C 0.98484 0.82162 0.44279 0.0
H981 H 1.00148 0.95232 0.49984 0.0
H982 H 1.00013 0.91752 0.46733 0.0
C983 C 0.98385 0.8037 0.40435 0.0
C984 C 1.00328 0.84648 0.51977 0.0
H985 H 0.98054 0.88125 0.62934 0.0
C986 C 0.01887 0.85796 0.49329 0.0
C987 C 0.98951 0.85491 0.57074 0.0
C988 C 0.97281 0.84321 0.6031 0.0
C989 C 0.02063 0.87774 0.51403 0.0
C990 C 1.00644 0.88634 0.56239 0.0
C991 C 0.99129 0.87471 0.59145 0.0
C992 C 1.00702 0.90747 0.58251 0.0
C993 C 0.03761 0.88938 0.48367 0.0
C994 C 0.01114 0.9134 0.65822 0.0
C995 C 0.01208 0.93328 0.67681 0.0
C996 C 1.0086 0.94772 0.62051 0.0
C997 C 1.00422 0.94169 0.54482 0.0
C998 C 1.00349 0.92178 0.52604 0.0
H999 H 0.04925 0.87984 0.45989 0.0
H1000 H 0.03246 0.89919 0.43691 0.0
H1001 H 0.04394 0.89862 0.52998 0.0
H1002 H 0.01392 0.90264 0.70274 0.0
H1003 H 0.01569 0.93731 0.73531 0.0
H1004 H 0.71814 0.03314 0.33305 0.0
H1005 H 0.68787 0.0322 0.40635 0.0
H1006 H 0.70651 0.97897 0.51706 0.0
H1007 H 0.73689 0.97962 0.44156 0.0
H1008 H 0.66993 0.97581 0.45661 0.0
H1009 H 0.67373 0.04399 0.62642 0.0
H1010 H 0.67867 0.04804 0.52629 0.0
H1011 H 0.69492 0.03304 0.5825 0.0
C1012 C 0.71598 0.02141 0.37411 0.0
C1013 C 0.72991 1.00643 0.3814 0.0
C1014 C 0.69869 0.02097 0.41655 0.0
C1015 C 0.69491 1.00566 0.46817 0.0
C1016 C 0.70913 0.99102 0.47797 0.0
H1017 H 0.58594 1.00878 0.73566 0.0
H1018 H 0.62037 1.00731 0.69986 0.0
C1019 C 0.72655 0.99147 0.43533 0.0
C1020 C 0.67538 1.00416 0.50559 0.0
H1021 H 0.64167 0.0305 0.60707 0.0
C1022 C 0.66387 0.98765 0.49047 0.0
C1023 C 0.66744 0.01947 0.55068 0.0
C1024 C 0.67941 0.03703 0.57316 0.0
C1025 C 0.64443 0.98645 0.51588 0.0
C1026 C 0.63606 1.00236 0.55627 0.0
C1027 C 0.64789 0.01843 0.57489 0.0
C1028 C 0.61501 1.00279 0.57817 0.0
C1029 C 0.63307 0.9681 0.49905 0.0
C1030 C 0.60039 1.00089 0.52174 0.0
C1031 C 0.58062 1.00152 0.54209 0.0
C1032 C 0.57499 1.00431 0.61932 0.0
C1033 C 0.58967 1.00648 0.67563 0.0
C1034 C 0.60942 1.00572 0.65525 0.0
H1035 H 0.64291 0.95537 0.49082 0.0
H1036 H 0.6227 0.9647 0.54631 0.0
H1037 H 0.62466 0.97011 0.44491 0.0
H1038 H 0.60424 0.99913 0.46157 0.0
H1039 H 0.56977 1.0 0.49708 0.0
H1040 H 0.53846 0.72815 0.40636 0.0
H1041 H 0.54281 0.69591 0.46664 0.0
H1042 H 0.48087 0.69223 0.50509 0.0
H1043 H 0.47647 0.72418 0.44434 0.0
H1044 H 0.53218 0.67789 0.61079 0.0
H1045 H 0.49282 0.64573 0.3618 0.0
H1046 H 0.50158 0.67055 0.36187 0.0
H1047 H 0.47937 0.66442 0.41123 0.0
C1048 C 0.52588 0.72069 0.42982 0.0
C1049 C 0.50712 0.7286 0.42036 0.0
C1050 C 0.52835 0.70223 0.46377 0.0
C1051 C 0.5121 0.69147 0.48871 0.0
C1052 C 0.49356 0.70008 0.4848 0.0
H1053 H 0.50671 0.58225 0.745 0.0
H1054 H 0.50681 0.61641 0.70485 0.0
C1055 C 0.49109 0.71839 0.45062 0.0
C1056 C 0.51418 0.67073 0.51317 0.0
H1057 H 0.49967 0.62453 0.46645 0.0
C1058 C 0.52516 0.66619 0.57917 0.0
C1059 C 0.5053 0.65542 0.47106 0.0
C1060 C 0.49426 0.65919 0.39713 0.0
C1061 C 0.52709 0.6468 0.60526 0.0
C1062 C 0.51751 0.63156 0.56486 0.0
C1063 C 0.50691 0.63614 0.49788 0.0
C1064 C 0.51817 0.61077 0.59062 0.0
C1065 C 0.53962 0.64284 0.67512 0.0
C1066 C 0.52401 0.59601 0.53924 0.0
C1067 C 0.52371 0.57637 0.56165 0.0
C1068 C 0.51757 0.571 0.63612 0.0
C1069 C 0.51175 0.58581 0.68752 0.0
C1070 C 0.51192 0.60543 0.66483 0.0
H1071 H 0.55053 0.65459 0.68405 0.0
H1072 H 0.53023 0.64228 0.72719 0.0
H1073 H 0.54741 0.6287 0.66985 0.0
H1074 H 0.52879 0.5997 0.48148 0.0
H1075 H 0.52832 0.5654 0.52053 0.0
H1076 H 0.78844 0.50979 0.48696 0.0
H1077 H 0.81974 0.51242 0.55587 0.0
H1078 H 0.84694 0.53388 0.34836 0.0
H1079 H 0.81588 0.53155 0.28028 0.0
H1080 H 0.85338 0.49208 0.51638 0.0
H1081 H 0.86816 0.5714 0.5087 0.0
H1082 H 0.84424 0.5614 0.49082 0.0
H1083 H 0.86225 0.56174 0.41539 0.0
C1084 C 0.801 0.51558 0.45692 0.0
C1085 C 0.79971 0.52048 0.37829 0.0
C1086 C 0.8189 0.51695 0.49607 0.0
C1087 C 0.83571 0.52354 0.45759 0.0
C1088 C 0.83418 0.52913 0.37992 0.0
H1089 H 0.9607 0.52731 0.51634 0.0
H1090 H 0.92675 0.52979 0.47388 0.0
C1091 C 0.81641 0.52768 0.34087 0.0
C1092 C 0.85523 0.52299 0.49563 0.0
H1093 H 0.89567 0.5506 0.53255 0.0
C1094 C 0.86252 0.50493 0.52106 0.0
C1095 C 0.86725 0.53972 0.50124 0.0
C1096 C 0.86002 0.55969 0.47828 0.0
C1097 C 0.88171 0.50299 0.54888 0.0
C1098 C 0.89389 0.51966 0.55289 0.0
C1099 C 0.88643 0.5378 0.52915 0.0
C1100 C 0.91453 0.51849 0.57992 0.0
C1101 C 0.889 0.48294 0.57067 0.0
C1102 C 0.91905 0.51161 0.65414 0.0
C1103 C 0.93847 0.51007 0.6784 0.0
C1104 C 0.95388 0.51559 0.62949 0.0
C1105 C 0.94929 0.52287 0.55569 0.0
C1106 C 0.92984 0.52434 0.5313 0.0
H1107 H 0.87983 0.47123 0.54528 0.0
H1108 H 0.90427 0.48075 0.55147 0.0
H1109 H 0.88854 0.48133 0.63436 0.0
H1110 H 0.90755 0.50741 0.69351 0.0
H1111 H 0.94135 0.50443 0.73548 0.0
loop_
_geom_bond_atom_site_label_1
_geom_bond_atom_site_label_2
_geom_bond_distance
_geom_bond_site_symmetry_2
_ccdc_geom_bond_type
H0 C3 0.929 . S
H1 C6 0.929 . S
H2 C8 0.930 . S
C3 H0 0.929 . S
C3 C4 1.398 . S
C3 C5 1.396 . S
C4 C3 1.398 . S
C4 C8 1.407 . S
C5 C3 1.396 . S
C5 C6 1.394 . S
C6 H1 0.929 . S
C6 C5 1.394 . S
C6 C7 1.382 . S
C7 C6 1.382 . S
C7 C8 1.392 . S
C7 N9 1.420 . S
C8 H2 0.930 . S
C8 C4 1.407 . S
C8 C7 1.392 . S
N9 C7 1.420 . S
N9 C10 1.244 . S
C10 N9 1.244 . S
H11 C14 0.929 . S
H12 C17 0.929 . S
H13 C19 0.930 . S
C14 H11 0.929 . S
C14 C15 1.398 1_655 S
C14 C16 1.396 . S
C15 C14 1.398 1_455 S
C15 C19 1.408 . S
C16 C14 1.396 . S
C16 C17 1.395 1_655 S
C17 H12 0.929 . S
C17 C16 1.395 1_455 S
C17 C18 1.382 . S
C18 C17 1.382 . S
C18 C19 1.392 . S
C18 N20 1.420 . S
C19 H13 0.930 . S
C19 C15 1.408 . S
C19 C18 1.392 . S
N20 C18 1.420 . S
N20 C21 1.222 1_455 S
C21 N20 1.222 1_655 S
H22 C25 0.929 . S
H23 C28 0.929 . S
H24 C30 0.930 . S
C25 H22 0.929 . S
C25 C26 1.397 1_565 S
C25 C27 1.395 . S
C26 C25 1.397 1_545 S
C26 C30 1.409 . S
C27 C25 1.395 . S
C27 C28 1.395 1_565 S
C28 H23 0.929 . S
C28 C27 1.395 1_545 S
C28 C29 1.382 . S
C29 C28 1.382 . S
C29 C30 1.392 . S
C29 N31 1.420 . S
C30 H24 0.930 . S
C30 C26 1.409 . S
C30 C29 1.392 . S
N31 C29 1.420 . S
N31 C32 1.224 1_545 S
C32 N31 1.224 1_565 S
H33 C36 0.929 . S
H34 C39 0.929 . S
H35 C41 0.930 . S
C36 H33 0.929 . S
C36 C37 1.398 . S
C36 C38 1.396 . S
C37 C36 1.398 . S
C37 C41 1.407 . S
C38 C36 1.396 . S
C38 C39 1.394 . S
C39 H34 0.929 . S
C39 C38 1.394 . S
C39 C40 1.382 . S
C40 C39 1.382 . S
C40 C41 1.392 . S
C40 N42 1.420 . S
C41 H35 0.930 . S
C41 C37 1.407 . S
C41 C40 1.392 . S
N42 C40 1.420 . S
N42 C43 1.244 . S
C43 N42 1.244 . S
H44 C47 0.929 . S
H45 C50 0.929 . S
H46 C52 0.930 . S
C47 H44 0.929 . S
C47 C48 1.398 1_554 S
C47 C49 1.396 . S
C48 C47 1.398 1_556 S
C48 C52 1.407 . S
C49 C47 1.396 . S
C49 C50 1.394 . S
C50 H45 0.929 . S
C50 C49 1.394 . S
C50 C51 1.382 . S
C51 C50 1.382 . S
C51 C52 1.392 1_554 S
C51 N53 1.420 . S
C52 H46 0.930 . S
C52 C48 1.407 . S
C52 C51 1.392 1_556 S
N53 C51 1.420 . S
N53 C54 1.244 . S
C54 N53 1.244 . S
H55 C58 0.940 . S
H56 C61 0.929 . S
H57 C63 0.930 . S
C58 H55 0.940 . S
C58 C59 1.394 1_654 S
C58 C60 1.390 1_655 S
C59 C58 1.394 1_456 S
C59 C63 1.407 . S
C60 C58 1.390 1_455 S
C60 C61 1.405 . S
C61 H56 0.929 . S
C61 C60 1.405 . S
C61 C62 1.382 . S
C62 C61 1.382 . S
C62 C63 1.392 1_554 S
C62 N64 1.420 . S
C63 H57 0.930 . S
C63 C59 1.407 . S
C63 C62 1.392 1_556 S
N64 C62 1.420 . S
N64 C65 1.248 . S
C65 N64 1.248 . S
H66 C69 0.939 . S
H67 C72 0.929 . S
H68 C74 0.930 . S
C69 H66 0.939 . S
C69 C70 1.394 1_564 S
C69 C71 1.392 1_565 S
C70 C69 1.394 1_546 S
C70 C74 1.407 . S
C71 C69 1.392 1_545 S
C71 C72 1.394 . S
C72 H67 0.929 . S
C72 C71 1.394 . S
C72 C73 1.382 . S
C73 C72 1.382 . S
C73 C74 1.392 1_554 S
C73 N75 1.420 . S
C74 H68 0.930 . S
C74 C70 1.407 . S
C74 C73 1.392 1_556 S
N75 C73 1.420 . S
N75 C76 1.249 . S
C76 N75 1.249 . S
H77 C80 0.929 . S
H78 C83 0.929 . S
H79 C85 0.930 . S
C80 H77 0.929 . S
C80 C81 1.398 1_554 S
C80 C82 1.396 . S
C81 C80 1.398 1_556 S
C81 C85 1.407 . S
C82 C80 1.396 . S
C82 C83 1.394 . S
C83 H78 0.929 . S
C83 C82 1.394 . S
C83 C84 1.382 . S
C84 C83 1.382 . S
C84 C85 1.392 1_554 S
C84 N86 1.420 . S
C85 H79 0.930 . S
C85 C81 1.407 . S
C85 C84 1.392 1_556 S
N86 C84 1.420 . S
N86 C87 1.244 . S
C87 N86 1.244 . S
Pr88 C90 2.880 . S
Pr88 O108 2.567 . S
Pr88 O109 2.490 . S
Pr88 O110 2.695 1_565 S
Pr88 O111 2.512 . S
Pr88 O113 2.437 . S
Pr88 O116 2.436 1_455 S
Pr88 O118 2.438 1_565 S
Pr89 C99 2.880 . S
Pr89 O110 2.436 1_655 S
Pr89 O112 2.438 1_545 S
Pr89 O114 2.561 . S
Pr89 O115 2.490 . S
Pr89 O116 2.695 1_545 S
Pr89 O117 2.512 . S
Pr89 O119 2.437 . S
C90 Pr88 2.880 . S
C90 C91 1.491 . S
C90 O108 1.264 . S
C90 O109 1.225 . S
C91 C90 1.491 . S
C91 C92 1.392 . S
C91 C96 1.356 . S
C92 C91 1.392 . S
C92 C93 1.368 . S
C92 H120 0.929 . S
C93 C92 1.368 . S
C93 C94 1.386 . S
C93 H121 0.929 . S
C94 C93 1.386 . S
C94 C95 1.373 . S
C95 C94 1.373 . S
C95 C96 1.409 . S
C95 H122 0.931 1_455 S
C96 C91 1.356 . S
C96 C95 1.409 . S
C96 H123 0.930 1_455 S
C97 O110 1.255 1_565 S
C97 O111 1.275 . S
C98 O112 1.267 . S
C98 O113 1.278 1_655 S
C99 Pr89 2.880 . S
C99 C100 1.491 . S
C99 O114 1.252 . S
C99 O115 1.225 . S
C100 C99 1.491 . S
C100 C101 1.392 . S
C100 C105 1.356 . S
C101 C100 1.392 . S
C101 C102 1.368 . S
C101 H124 0.929 . S
C102 C101 1.368 . S
C102 C103 1.386 . S
C102 H125 0.929 . S
C103 C102 1.386 . S
C103 C104 1.373 . S
C104 C103 1.373 . S
C104 C105 1.409 . S
C104 H126 0.931 1_655 S
C105 C100 1.356 . S
C105 C104 1.409 . S
C105 H127 0.930 1_655 S
C106 O116 1.270 1_545 S
C106 O117 1.248 . S
C107 O118 1.267 . S
C107 O119 1.278 1_455 S
O108 Pr88 2.567 . S
O108 C90 1.264 . S
O109 Pr88 2.490 . S
O109 C90 1.225 . S
O110 Pr88 2.695 1_545 S
O110 Pr89 2.436 1_455 S
O110 C97 1.255 1_545 S
O111 Pr88 2.512 . S
O111 C97 1.275 . S
O112 Pr89 2.438 1_565 S
O112 C98 1.267 . S
O113 Pr88 2.437 . S
O113 C98 1.278 1_455 S
O114 Pr89 2.561 . S
O114 C99 1.252 . S
O115 Pr89 2.490 . S
O115 C99 1.225 . S
O116 Pr88 2.436 1_655 S
O116 Pr89 2.695 1_565 S
O116 C106 1.270 1_565 S
O117 Pr89 2.512 . S
O117 C106 1.248 . S
O118 Pr88 2.438 1_545 S
O118 C107 1.267 . S
O119 Pr89 2.437 . S
O119 C107 1.278 1_655 S
H120 C92 0.929 . S
H121 C93 0.929 . S
H122 C95 0.931 1_655 S
H123 C96 0.930 1_655 S
H124 C101 0.929 . S
H125 C102 0.929 . S
H126 C104 0.931 1_455 S
H127 C105 0.930 1_455 S
Pr128 C130 2.880 . S
Pr128 O148 2.568 . S
Pr128 O149 2.490 . S
Pr128 O150 2.695 . S
Pr128 O151 2.512 . S
Pr128 O153 2.437 . S
Pr128 O156 2.436 1_545 S
Pr128 O158 2.438 . S
Pr129 C139 2.880 . S
Pr129 O150 2.436 1_565 S
Pr129 O152 2.438 . S
Pr129 O154 2.560 . S
Pr129 O155 2.490 . S
Pr129 O156 2.695 . S
Pr129 O157 2.512 . S
Pr129 O159 2.437 . S
C130 Pr128 2.880 . S
C130 C131 1.491 . S
C130 O148 1.268 . S
C130 O149 1.225 . S
C131 C130 1.491 . S
C131 C132 1.392 . S
C131 C136 1.356 . S
C132 C131 1.392 . S
C132 C133 1.368 . S
C132 H160 0.929 . S
C133 C132 1.368 . S
C133 C134 1.386 . S
C133 H161 0.929 . S
C134 C133 1.386 . S
C134 C135 1.373 . S
C135 C134 1.373 . S
C135 C136 1.409 . S
C135 H162 0.931 1_545 S
C136 C131 1.356 . S
C136 C135 1.409 . S
C136 H163 0.930 1_545 S
C137 O150 1.270 . S
C137 O151 1.248 . S
C138 O152 1.267 . S
C138 O153 1.278 1_565 S
C139 Pr129 2.880 . S
C139 C140 1.491 . S
C139 O154 1.249 . S
C139 O155 1.225 . S
C140 C139 1.491 . S
C140 C141 1.392 . S
C140 C145 1.356 . S
C141 C140 1.392 . S
C141 C142 1.368 . S
C141 H164 0.929 . S
C142 C141 1.368 . S
C142 C143 1.386 . S
C142 H165 0.929 . S
C143 C142 1.386 . S
C143 C144 1.373 . S
C144 C143 1.373 . S
C144 C145 1.409 . S
C144 H166 0.931 1_565 S
C145 C140 1.356 . S
C145 C144 1.409 . S
C145 H167 0.930 1_565 S
C146 O156 1.270 . S
C146 O157 1.248 . S
C147 O158 1.267 . S
C147 O159 1.278 1_545 S
O148 Pr128 2.568 . S
O148 C130 1.268 . S
O149 Pr128 2.490 . S
O149 C130 1.225 . S
O150 Pr128 2.695 . S
O150 Pr129 2.436 1_545 S
O150 C137 1.270 . S
O151 Pr128 2.512 . S
O151 C137 1.248 . S
O152 Pr129 2.438 . S
O152 C138 1.267 . S
O153 Pr128 2.437 . S
O153 C138 1.278 1_545 S
O154 Pr129 2.560 . S
O154 C139 1.249 . S
O155 Pr129 2.490 . S
O155 C139 1.225 . S
O156 Pr128 2.436 1_565 S
O156 Pr129 2.695 . S
O156 C146 1.270 . S
O157 Pr129 2.512 . S
O157 C146 1.248 . S
O158 Pr128 2.438 . S
O158 C147 1.267 . S
O159 Pr129 2.437 . S
O159 C147 1.278 1_565 S
H160 C132 0.929 . S
H161 C133 0.929 . S
H162 C135 0.931 1_565 S
H163 C136 0.930 1_565 S
H164 C141 0.929 . S
H165 C142 0.929 . S
H166 C144 0.931 1_545 S
H167 C145 0.930 1_545 S
Pr168 C170 2.880 . S
Pr168 O188 2.562 . S
Pr168 O189 2.490 . S
Pr168 O190 2.695 . S
Pr168 O191 2.512 . S
Pr168 O193 2.437 . S
Pr168 O196 2.436 . S
Pr168 O198 2.438 . S
Pr169 C179 2.880 . S
Pr169 O190 2.436 . S
Pr169 O192 2.438 . S
Pr169 O194 2.562 . S
Pr169 O195 2.490 . S
Pr169 O196 2.695 . S
Pr169 O197 2.512 . S
Pr169 O199 2.437 . S
C170 Pr168 2.880 . S
C170 C171 1.491 . S
C170 O188 1.254 . S
C170 O189 1.225 . S
C171 C170 1.491 . S
C171 C172 1.392 . S
C171 C176 1.356 . S
C172 C171 1.392 . S
C172 C173 1.368 . S
C172 H200 0.929 . S
C173 C172 1.368 . S
C173 C174 1.386 . S
C173 H201 0.929 . S
C174 C173 1.386 . S
C174 C175 1.373 . S
C175 C174 1.373 . S
C175 C176 1.409 . S
C175 H202 0.931 . S
C176 C171 1.356 . S
C176 C175 1.409 . S
C176 H203 0.930 . S
C177 O190 1.270 . S
C177 O191 1.248 . S
C178 O192 1.267 . S
C178 O193 1.278 . S
C179 Pr169 2.880 . S
C179 C180 1.491 . S
C179 O194 1.254 . S
C179 O195 1.225 . S
C180 C179 1.491 . S
C180 C181 1.392 . S
C180 C185 1.356 . S
C181 C180 1.392 . S
C181 C182 1.368 . S
C181 H204 0.929 . S
C182 C181 1.368 . S
C182 C183 1.386 . S
C182 H205 0.929 . S
C183 C182 1.386 . S
C183 C184 1.373 . S
C184 C183 1.373 . S
C184 C185 1.409 . S
C184 H206 0.931 . S
C185 C180 1.356 . S
C185 C184 1.409 . S
C185 H207 0.930 . S
C186 O196 1.270 . S
C186 O197 1.248 . S
C187 O198 1.267 . S
C187 O199 1.278 . S
O188 Pr168 2.562 . S
O188 C170 1.254 . S
O189 Pr168 2.490 . S
O189 C170 1.225 . S
O190 Pr168 2.695 . S
O190 Pr169 2.436 . S
O190 C177 1.270 . S
O191 Pr168 2.512 . S
O191 C177 1.248 . S
O192 Pr169 2.438 . S
O192 C178 1.267 . S
O193 Pr168 2.437 . S
O193 C178 1.278 . S
O194 Pr169 2.562 . S
O194 C179 1.254 . S
O195 Pr169 2.490 . S
O195 C179 1.225 . S
O196 Pr168 2.436 . S
O196 Pr169 2.695 . S
O196 C186 1.270 . S
O197 Pr169 2.512 . S
O197 C186 1.248 . S
O198 Pr168 2.438 . S
O198 C187 1.267 . S
O199 Pr169 2.437 . S
O199 C187 1.278 . S
H200 C172 0.929 . S
H201 C173 0.929 . S
H202 C175 0.931 . S
H203 C176 0.930 . S
H204 C181 0.929 . S
H205 C182 0.929 . S
H206 C184 0.931 . S
H207 C185 0.930 . S
Pr208 C210 2.880 . S
Pr208 O228 2.562 . S
Pr208 O229 2.490 . S
Pr208 O230 2.695 1_655 S
Pr208 O231 2.512 . S
Pr208 O233 2.437 . S
Pr208 O236 2.436 . S
Pr208 O238 2.438 1_655 S
Pr209 C219 2.880 . S
Pr209 O230 2.436 . S
Pr209 O232 2.438 1_455 S
Pr209 O234 2.562 . S
Pr209 O235 2.490 . S
Pr209 O236 2.695 1_455 S
Pr209 O237 2.512 . S
Pr209 O239 2.437 . S
C210 Pr208 2.880 . S
C210 C211 1.491 . S
C210 O228 1.254 . S
C210 O229 1.225 . S
C211 C210 1.491 . S
C211 C212 1.392 . S
C211 C216 1.356 . S
C212 C211 1.392 . S
C212 C213 1.368 . S
C212 H240 0.929 . S
C213 C212 1.368 . S
C213 C214 1.386 . S
C213 H241 0.929 . S
C214 C213 1.386 . S
C214 C215 1.373 . S
C215 C214 1.373 . S
C215 C216 1.409 . S
C215 H242 0.931 . S
C216 C211 1.356 . S
C216 C215 1.409 . S
C216 H243 0.930 . S
C217 O230 1.255 1_655 S
C217 O231 1.276 . S
C218 O232 1.267 . S
C218 O233 1.278 . S
C219 Pr209 2.880 . S
C219 C220 1.491 . S
C219 O234 1.254 . S
C219 O235 1.225 . S
C220 C219 1.491 . S
C220 C221 1.392 . S
C220 C225 1.356 . S
C221 C220 1.392 . S
C221 C222 1.368 . S
C221 H244 0.929 . S
C222 C221 1.368 . S
C222 C223 1.386 . S
C222 H245 0.929 . S
C223 C222 1.386 . S
C223 C224 1.373 . S
C224 C223 1.373 . S
C224 C225 1.409 . S
C224 H246 0.931 . S
C225 C220 1.356 . S
C225 C224 1.409 . S
C225 H247 0.930 . S
C226 O236 1.270 1_455 S
C226 O237 1.248 . S
C227 O238 1.267 . S
C227 O239 1.278 . S
O228 Pr208 2.562 . S
O228 C210 1.254 . S
O229 Pr208 2.490 . S
O229 C210 1.225 . S
O230 Pr208 2.695 1_455 S
O230 Pr209 2.436 . S
O230 C217 1.255 1_455 S
O231 Pr208 2.512 . S
O231 C217 1.276 . S
O232 Pr209 2.438 1_655 S
O232 C218 1.267 . S
O233 Pr208 2.437 . S
O233 C218 1.278 . S
O234 Pr209 2.562 . S
O234 C219 1.254 . S
O235 Pr209 2.490 . S
O235 C219 1.225 . S
O236 Pr208 2.436 . S
O236 Pr209 2.695 1_655 S
O236 C226 1.270 1_655 S
O237 Pr209 2.512 . S
O237 C226 1.248 . S
O238 Pr208 2.438 1_455 S
O238 C227 1.267 . S
O239 Pr209 2.437 . S
O239 C227 1.278 . S
H240 C212 0.929 . S
H241 C213 0.929 . S
H242 C215 0.931 . S
H243 C216 0.930 . S
H244 C221 0.929 . S
H245 C222 0.929 . S
H246 C224 0.931 . S
H247 C225 0.930 . S
H248 C256 0.929 . S
H249 C258 0.930 . S
H250 C260 0.930 . S
H251 C263 0.929 . S
H252 C266 0.930 . S
H253 C268 0.966 . S
H254 C268 0.910 1_565 S
H255 C268 1.008 . S
C256 H248 0.929 . S
C256 C257 1.359 1_565 S
C256 C258 1.384 . S
C257 C256 1.359 1_545 S
C257 C263 1.408 . S
C258 H249 0.930 . S
C258 C256 1.384 . S
C258 C259 1.377 . S
C259 C258 1.377 . S
C259 C260 1.395 1_565 S
C259 C264 1.490 . S
C260 H250 0.930 . S
C260 C259 1.395 1_545 S
C260 C263 1.386 . S
H261 C277 0.930 . S
H262 C278 0.931 . S
C263 H251 0.929 . S
C263 C257 1.408 . S
C263 C260 1.386 . S
C264 C259 1.490 . S
C264 C266 1.395 . S
C264 C267 1.401 1_565 S
H265 C271 0.930 . S
C266 H252 0.930 . S
C266 C264 1.395 . S
C266 C269 1.403 . S
C267 C264 1.401 1_545 S
C267 C268 1.524 . S
C267 C271 1.402 . S
C268 H253 0.966 . S
C268 H254 0.910 1_545 S
C268 H255 1.008 . S
C268 C267 1.524 . S
C269 C266 1.403 . S
C269 C270 1.392 1_565 S
C269 C273 1.495 . S
C270 C269 1.392 1_545 S
C270 C271 1.386 . S
C270 C272 1.477 . S
C271 H265 0.930 . S
C271 C267 1.402 . S
C271 C270 1.386 . S
C272 C270 1.477 . S
C272 C274 1.340 1_545 S
C272 C278 1.425 . S
C273 C269 1.495 . S
C273 H279 0.959 . S
C273 H280 0.961 1_565 S
C273 H281 0.960 . S
C274 C272 1.340 1_565 S
C274 C275 1.394 . S
C274 H282 0.930 . S
C275 C274 1.394 . S
C275 C276 1.383 1_565 S
C275 H283 0.929 . S
C276 C275 1.383 1_545 S
C276 C277 1.377 . S
C277 H261 0.930 . S
C277 C276 1.377 . S
C277 C278 1.379 . S
C278 H262 0.931 . S
C278 C272 1.425 . S
C278 C277 1.379 . S
H279 C273 0.959 . S
H280 C273 0.961 1_545 S
H281 C273 0.960 . S
H282 C274 0.930 . S
H283 C275 0.929 . S
H284 C292 0.929 . S
H285 C294 0.930 . S
H286 C296 0.930 . S
H287 C299 0.929 . S
H288 C302 0.930 . S
H289 C304 0.960 . S
H290 C304 0.960 . S
H291 C304 0.960 . S
C292 H284 0.929 . S
C292 C293 1.377 . S
C292 C294 1.384 . S
C293 C292 1.377 . S
C293 C299 1.390 . S
C294 H285 0.930 . S
C294 C292 1.384 . S
C294 C295 1.372 . S
C295 C294 1.372 . S
C295 C296 1.400 . S
C295 C300 1.490 . S
C296 H286 0.930 . S
C296 C295 1.400 . S
C296 C299 1.386 . S
H297 C313 0.930 . S
H298 C314 0.931 . S
C299 H287 0.929 . S
C299 C293 1.390 . S
C299 C296 1.386 . S
C300 C295 1.490 . S
C300 C302 1.395 . S
C300 C303 1.403 . S
H301 C307 0.930 . S
C302 H288 0.930 . S
C302 C300 1.395 . S
C302 C305 1.403 . S
C303 C300 1.403 . S
C303 C304 1.524 . S
C303 C307 1.400 . S
C304 H289 0.960 . S
C304 H290 0.960 . S
C304 H291 0.960 . S
C304 C303 1.524 . S
C305 C302 1.403 . S
C305 C306 1.392 . S
C305 C309 1.495 . S
C306 C305 1.392 . S
C306 C307 1.385 . S
C306 C308 1.478 . S
C307 H301 0.930 . S
C307 C303 1.400 . S
C307 C306 1.385 . S
C308 C306 1.478 . S
C308 C310 1.381 . S
C308 C314 1.383 . S
C309 C305 1.495 . S
C309 H315 0.959 . S
C309 H316 0.961 . S
C309 H317 0.960 . S
C310 C308 1.381 . S
C310 C311 1.394 . S
C310 H318 0.930 . S
C311 C310 1.394 . S
C311 C312 1.383 . S
C311 H319 0.929 . S
C312 C311 1.383 . S
C312 C313 1.377 . S
C313 H297 0.930 . S
C313 C312 1.377 . S
C313 C314 1.379 . S
C314 H298 0.931 . S
C314 C308 1.383 . S
C314 C313 1.379 . S
H315 C309 0.959 . S
H316 C309 0.961 . S
H317 C309 0.960 . S
H318 C310 0.930 . S
H319 C311 0.929 . S
H320 C328 0.929 . S
H321 C330 0.930 . S
H322 C332 0.930 . S
H323 C335 0.929 . S
H324 C338 0.930 . S
H325 C340 0.960 . S
H326 C340 0.960 . S
H327 C340 0.960 . S
C328 H320 0.929 . S
C328 C329 1.377 . S
C328 C330 1.384 . S
C329 C328 1.377 . S
C329 C335 1.390 . S
C330 H321 0.930 . S
C330 C328 1.384 . S
C330 C331 1.372 . S
C331 C330 1.372 . S
C331 C332 1.400 . S
C331 C336 1.490 . S
C332 H322 0.930 . S
C332 C331 1.400 . S
C332 C335 1.386 . S
H333 C349 0.930 . S
H334 C350 0.931 . S
C335 H323 0.929 . S
C335 C329 1.390 . S
C335 C332 1.386 . S
C336 C331 1.490 . S
C336 C338 1.395 . S
C336 C339 1.403 . S
H337 C343 0.930 . S
C338 H324 0.930 . S
C338 C336 1.395 . S
C338 C341 1.403 . S
C339 C336 1.403 . S
C339 C340 1.524 . S
C339 C343 1.400 . S
C340 H325 0.960 . S
C340 H326 0.960 . S
C340 H327 0.960 . S
C340 C339 1.524 . S
C341 C338 1.403 . S
C341 C342 1.392 . S
C341 C345 1.495 . S
C342 C341 1.392 . S
C342 C343 1.385 . S
C342 C344 1.478 . S
C343 H337 0.930 . S
C343 C339 1.400 . S
C343 C342 1.385 . S
C344 C342 1.478 . S
C344 C346 1.381 . S
C344 C350 1.383 . S
C345 C341 1.495 . S
C345 H351 0.959 . S
C345 H352 0.961 . S
C345 H353 0.960 . S
C346 C344 1.381 . S
C346 C347 1.394 . S
C346 H354 0.930 . S
C347 C346 1.394 . S
C347 C348 1.383 . S
C347 H355 0.929 . S
C348 C347 1.383 . S
C348 C349 1.377 . S
C349 H333 0.930 . S
C349 C348 1.377 . S
C349 C350 1.379 . S
C350 H334 0.931 . S
C350 C344 1.383 . S
C350 C349 1.379 . S
H351 C345 0.959 . S
H352 C345 0.961 . S
H353 C345 0.960 . S
H354 C346 0.930 . S
H355 C347 0.929 . S
H356 C364 0.929 . S
H357 C366 0.930 . S
H358 C368 0.930 . S
H359 C371 0.929 . S
H360 C374 0.930 . S
H361 C376 0.960 . S
H362 C376 0.960 . S
H363 C376 0.960 . S
C364 H356 0.929 . S
C364 C365 1.353 1_655 S
C364 C366 1.384 . S
C365 C364 1.353 1_455 S
C365 C371 1.414 . S
C366 H357 0.930 . S
C366 C364 1.384 . S
C366 C367 1.380 . S
C367 C366 1.380 . S
C367 C368 1.392 1_655 S
C367 C372 1.490 . S
C368 H358 0.930 . S
C368 C367 1.392 1_455 S
C368 C371 1.386 . S
H369 C385 0.930 . S
H370 C386 0.931 . S
C371 H359 0.929 . S
C371 C365 1.414 . S
C371 C368 1.386 . S
C372 C367 1.490 . S
C372 C374 1.410 . S
C372 C375 1.389 1_655 S
H373 C379 0.930 . S
C374 H360 0.930 . S
C374 C372 1.410 . S
C374 C377 1.403 . S
C375 C372 1.389 1_455 S
C375 C376 1.524 . S
C375 C379 1.400 . S
C376 H361 0.960 . S
C376 H362 0.960 . S
C376 H363 0.960 . S
C376 C375 1.524 . S
C377 C374 1.403 . S
C377 C378 1.392 . S
C377 C381 1.495 . S
C378 C377 1.392 . S
C378 C379 1.385 1_655 S
C378 C380 1.478 . S
C379 H373 0.930 . S
C379 C375 1.400 . S
C379 C378 1.385 1_455 S
C380 C378 1.478 . S
C380 C382 1.381 . S
C380 C386 1.383 1_655 S
C381 C377 1.495 . S
C381 H387 0.959 . S
C381 H388 0.961 . S
C381 H389 0.960 . S
C382 C380 1.381 . S
C382 C383 1.394 . S
C382 H390 0.930 . S
C383 C382 1.394 . S
C383 C384 1.356 1_655 S
C383 H391 0.929 . S
C384 C383 1.356 1_455 S
C384 C385 1.403 . S
C385 H369 0.930 . S
C385 C384 1.403 . S
C385 C386 1.379 . S
C386 H370 0.931 . S
C386 C380 1.383 1_455 S
C386 C385 1.379 . S
H387 C381 0.959 . S
H388 C381 0.961 . S
H389 C381 0.960 . S
H390 C382 0.930 . S
H391 C383 0.929 . S
H392 C400 0.929 . S
H393 C402 0.930 . S
H394 C404 0.930 . S
H395 C407 0.929 . S
H396 C410 0.930 . S
H397 C412 0.960 1_556 S
H398 C412 0.960 . S
H399 C412 0.960 . S
C400 H392 0.929 . S
C400 C401 1.368 1_545 S
C400 C402 1.384 . S
C401 C400 1.368 1_565 S
C401 C407 1.399 . S
C402 H393 0.930 . S
C402 C400 1.384 . S
C402 C403 1.395 . S
C403 C402 1.395 . S
C403 C404 1.377 1_545 S
C403 C408 1.490 . S
C404 H394 0.930 . S
C404 C403 1.377 1_565 S
C404 C407 1.386 . S
H405 C421 0.930 . S
H406 C422 0.931 . S
C407 H395 0.929 . S
C407 C401 1.399 . S
C407 C404 1.386 . S
C408 C403 1.490 . S
C408 C410 1.416 . S
C408 C411 1.383 1_545 S
H409 C415 0.930 . S
C410 H396 0.930 . S
C410 C408 1.416 . S
C410 C413 1.403 . S
C411 C408 1.383 1_565 S
C411 C412 1.524 . S
C411 C415 1.400 1_554 S
C412 H397 0.960 1_554 S
C412 H398 0.960 . S
C412 H399 0.960 . S
C412 C411 1.524 . S
C413 C410 1.403 . S
C413 C414 1.392 . S
C413 C417 1.495 . S
C414 C413 1.392 . S
C414 C415 1.385 1_544 S
C414 C416 1.478 1_554 S
C415 H409 0.930 . S
C415 C411 1.400 1_556 S
C415 C414 1.385 1_566 S
C416 C414 1.478 1_556 S
C416 C418 1.381 . S
C416 C422 1.383 1_545 S
C417 C413 1.495 . S
C417 H423 0.959 . S
C417 H424 0.961 . S
C417 H425 0.960 . S
C418 C416 1.381 . S
C418 C419 1.394 . S
C418 H426 0.930 . S
C419 C418 1.394 . S
C419 C420 1.366 1_545 S
C419 H427 0.929 . S
C420 C419 1.366 1_565 S
C420 C421 1.393 . S
C421 H405 0.930 . S
C421 C420 1.393 . S
C421 C422 1.379 . S
C422 H406 0.931 . S
C422 C416 1.383 1_565 S
C422 C421 1.379 . S
H423 C417 0.959 . S
H424 C417 0.961 . S
H425 C417 0.960 . S
H426 C418 0.930 . S
H427 C419 0.929 . S
H428 C436 0.929 . S
H429 C438 0.930 . S
H430 C440 0.930 . S
H431 C443 0.929 . S
H432 C446 0.930 . S
H433 C448 0.960 1_556 S
H434 C448 0.960 . S
H435 C448 0.960 . S
C436 H428 0.929 . S
C436 C437 1.377 . S
C436 C438 1.384 . S
C437 C436 1.377 . S
C437 C443 1.390 . S
C438 H429 0.930 . S
C438 C436 1.384 . S
C438 C439 1.372 . S
C439 C438 1.372 . S
C439 C440 1.400 . S
C439 C444 1.490 . S
C440 H430 0.930 . S
C440 C439 1.400 . S
C440 C443 1.386 . S
H441 C457 0.930 . S
H442 C458 0.931 . S
C443 H431 0.929 . S
C443 C437 1.390 . S
C443 C440 1.386 . S
C444 C439 1.490 . S
C444 C446 1.395 . S
C444 C447 1.403 . S
H445 C451 0.930 . S
C446 H432 0.930 . S
C446 C444 1.395 . S
C446 C449 1.403 . S
C447 C444 1.403 . S
C447 C448 1.524 . S
C447 C451 1.400 1_554 S
C448 H433 0.960 1_554 S
C448 H434 0.960 . S
C448 H435 0.960 . S
C448 C447 1.524 . S
C449 C446 1.403 . S
C449 C450 1.392 . S
C449 C453 1.495 . S
C450 C449 1.392 . S
C450 C451 1.385 1_554 S
C450 C452 1.478 1_554 S
C451 H445 0.930 . S
C451 C447 1.400 1_556 S
C451 C450 1.385 1_556 S
C452 C450 1.478 1_556 S
C452 C454 1.381 . S
C452 C458 1.383 . S
C453 C449 1.495 . S
C453 H459 0.959 . S
C453 H460 0.961 . S
C453 H461 0.960 . S
C454 C452 1.381 . S
C454 C455 1.394 . S
C454 H462 0.930 1_556 S
C455 C454 1.394 . S
C455 C456 1.383 . S
C455 H463 0.929 . S
C456 C455 1.383 . S
C456 C457 1.377 . S
C457 H441 0.930 . S
C457 C456 1.377 . S
C457 C458 1.379 . S
C458 H442 0.931 . S
C458 C452 1.383 . S
C458 C457 1.379 . S
H459 C453 0.959 . S
H460 C453 0.961 . S
H461 C453 0.960 . S
H462 C454 0.930 1_554 S
H463 C455 0.929 . S
H464 C472 0.929 . S
H465 C474 0.930 . S
H466 C476 0.930 . S
H467 C479 0.929 . S
H468 C482 0.930 . S
H469 C484 0.960 . S
H470 C484 0.960 1_554 S
H471 C484 0.960 1_554 S
C472 H464 0.929 . S
C472 C473 1.377 . S
C472 C474 1.384 . S
C473 C472 1.377 . S
C473 C479 1.390 . S
C474 H465 0.930 . S
C474 C472 1.384 . S
C474 C475 1.372 . S
C475 C474 1.372 . S
C475 C476 1.400 . S
C475 C480 1.490 . S
C476 H466 0.930 . S
C476 C475 1.400 . S
C476 C479 1.386 . S
H477 C493 0.930 . S
H478 C494 0.931 . S
C479 H467 0.929 . S
C479 C473 1.390 . S
C479 C476 1.386 . S
C480 C475 1.490 . S
C480 C482 1.395 . S
C480 C483 1.403 . S
H481 C487 0.930 . S
C482 H468 0.930 . S
C482 C480 1.395 . S
C482 C485 1.403 . S
C483 C480 1.403 . S
C483 C484 1.524 1_554 S
C483 C487 1.400 1_554 S
C484 H469 0.960 . S
C484 H470 0.960 1_556 S
C484 H471 0.960 1_556 S
C484 C483 1.524 1_556 S
C485 C482 1.403 . S
C485 C486 1.392 . S
C485 C489 1.495 . S
C486 C485 1.392 . S
C486 C487 1.385 1_554 S
C486 C488 1.478 1_554 S
C487 H481 0.930 . S
C487 C483 1.400 1_556 S
C487 C486 1.385 1_556 S
C488 C486 1.478 1_556 S
C488 C490 1.381 . S
C488 C494 1.383 . S
C489 C485 1.495 . S
C489 H495 0.959 . S
C489 H496 0.961 . S
C489 H497 0.960 . S
C490 C488 1.381 . S
C490 C491 1.394 . S
C490 H498 0.930 . S
C491 C490 1.394 . S
C491 C492 1.383 . S
C491 H499 0.929 . S
C492 C491 1.383 . S
C492 C493 1.377 . S
C493 H477 0.930 . S
C493 C492 1.377 . S
C493 C494 1.379 . S
C494 H478 0.931 . S
C494 C488 1.383 . S
C494 C493 1.379 . S
H495 C489 0.959 . S
H496 C489 0.961 . S
H497 C489 0.960 . S
H498 C490 0.930 . S
H499 C491 0.929 . S
H500 C508 0.929 . S
H501 C510 0.930 . S
H502 C512 0.930 . S
H503 C515 0.929 . S
H504 C518 0.930 . S
H505 C520 0.960 . S
H506 C520 0.957 1_655 S
H507 C520 0.960 . S
C508 H500 0.929 . S
C508 C509 1.413 . S
C508 C510 1.384 . S
C509 C508 1.413 . S
C509 C515 1.355 1_655 S
C510 H501 0.930 . S
C510 C508 1.384 . S
C510 C511 1.372 . S
C511 C510 1.372 . S
C511 C512 1.400 1_655 S
C511 C516 1.490 . S
C512 H502 0.930 . S
C512 C511 1.400 1_455 S
C512 C515 1.386 . S
H513 C529 0.930 . S
H514 C530 0.931 . S
C515 H503 0.929 . S
C515 C509 1.355 1_455 S
C515 C512 1.386 . S
C516 C511 1.490 . S
C516 C518 1.395 . S
C516 C519 1.403 1_655 S
H517 C523 0.930 . S
C518 H504 0.930 . S
C518 C516 1.395 . S
C518 C521 1.403 1_554 S
C519 C516 1.403 1_455 S
C519 C520 1.524 . S
C519 C523 1.400 . S
C520 H505 0.960 . S
C520 H506 0.957 1_455 S
C520 H507 0.960 . S
C520 C519 1.524 . S
C521 C518 1.403 1_556 S
C521 C522 1.392 . S
C521 C525 1.495 . S
C522 C521 1.392 . S
C522 C523 1.385 1_656 S
C522 C524 1.478 . S
C523 H517 0.930 . S
C523 C519 1.400 . S
C523 C522 1.385 1_454 S
C524 C522 1.478 . S
C524 C526 1.381 . S
C524 C530 1.383 1_655 S
C525 C521 1.495 . S
C525 H531 0.959 . S
C525 H532 0.961 . S
C525 H533 0.960 . S
C526 C524 1.381 . S
C526 C527 1.394 . S
C526 H534 0.930 . S
C527 C526 1.394 . S
C527 C528 1.383 . S
C527 H535 0.929 . S
C528 C527 1.383 . S
C528 C529 1.377 1_655 S
C529 H513 0.930 . S
C529 C528 1.377 1_455 S
C529 C530 1.379 . S
C530 H514 0.931 . S
C530 C524 1.383 1_455 S
C530 C529 1.379 . S
H531 C525 0.959 . S
H532 C525 0.961 . S
H533 C525 0.960 . S
H534 C526 0.930 . S
H535 C527 0.929 . S
H536 C544 0.929 . S
H537 C546 0.930 . S
H538 C548 0.930 . S
H539 C551 0.929 . S
H540 C554 0.930 1_455 S
H541 C556 0.960 . S
H542 C556 0.960 . S
H543 C556 0.960 . S
C544 H536 0.929 . S
C544 C545 1.377 . S
C544 C546 1.384 . S
C545 C544 1.377 . S
C545 C551 1.390 1_455 S
C546 H537 0.930 . S
C546 C544 1.384 . S
C546 C547 1.372 1_455 S
C547 C546 1.372 1_655 S
C547 C548 1.400 . S
C547 C552 1.490 . S
C548 H538 0.930 . S
C548 C547 1.400 . S
C548 C551 1.386 . S
H549 C565 0.930 . S
H550 C566 0.931 . S
C551 H539 0.929 . S
C551 C545 1.390 1_655 S
C551 C548 1.386 . S
C552 C547 1.490 . S
C552 C554 1.395 . S
C552 C555 1.403 . S
H553 C559 0.930 . S
C554 H540 0.930 1_655 S
C554 C552 1.395 . S
C554 C557 1.403 . S
C555 C552 1.403 . S
C555 C556 1.524 . S
C555 C559 1.400 . S
C556 H541 0.960 . S
C556 H542 0.960 . S
C556 H543 0.960 . S
C556 C555 1.524 . S
C557 C554 1.403 . S
C557 C558 1.392 . S
C557 C561 1.482 1_655 S
C558 C557 1.392 . S
C558 C559 1.385 . S
C558 C560 1.478 . S
C559 H553 0.930 . S
C559 C555 1.400 . S
C559 C558 1.385 . S
C560 C558 1.478 . S
C560 C562 1.381 . S
C560 C566 1.383 . S
C561 C557 1.482 1_455 S
C561 H567 0.982 . S
C561 H568 0.919 1_455 S
C561 H569 0.996 . S
C562 C560 1.381 . S
C562 C563 1.394 . S
C562 H570 0.930 1_655 S
C563 C562 1.394 . S
C563 C564 1.383 . S
C563 H571 0.929 1_655 S
C564 C563 1.383 . S
C564 C565 1.377 . S
C565 H549 0.930 . S
C565 C564 1.377 . S
C565 C566 1.379 . S
C566 H550 0.931 . S
C566 C560 1.383 . S
C566 C565 1.379 . S
H567 C561 0.982 . S
H568 C561 0.919 1_655 S
H569 C561 0.996 . S
H570 C562 0.930 1_455 S
H571 C563 0.929 1_455 S
H572 C580 0.929 . S
H573 C582 0.930 . S
H574 C584 0.930 . S
H575 C587 0.929 . S
H576 C590 0.930 . S
H577 C592 0.960 . S
H578 C592 0.960 . S
H579 C592 0.960 1_565 S
C580 H572 0.929 . S
C580 C581 1.377 . S
C580 C582 1.384 . S
C581 C580 1.377 . S
C581 C587 1.390 1_545 S
C582 H573 0.930 . S
C582 C580 1.384 . S
C582 C583 1.372 1_545 S
C583 C582 1.372 1_565 S
C583 C584 1.400 . S
C583 C588 1.490 . S
C584 H574 0.930 . S
C584 C583 1.400 . S
C584 C587 1.386 . S
H585 C601 0.930 . S
H586 C602 0.931 . S
C587 H575 0.929 . S
C587 C581 1.390 1_565 S
C587 C584 1.386 . S
C588 C583 1.490 . S
C588 C590 1.395 . S
C588 C591 1.403 . S
H589 C595 0.930 . S
C590 H576 0.930 . S
C590 C588 1.395 . S
C590 C593 1.403 . S
C591 C588 1.403 . S
C591 C592 1.524 1_565 S
C591 C595 1.400 . S
C592 H577 0.960 . S
C592 H578 0.960 . S
C592 H579 0.960 1_545 S
C592 C591 1.524 1_545 S
C593 C590 1.403 . S
C593 C594 1.392 . S
C593 C597 1.495 . S
C594 C593 1.392 . S
C594 C595 1.385 . S
C594 C596 1.478 . S
C595 H589 0.930 . S
C595 C591 1.400 . S
C595 C594 1.385 . S
C596 C594 1.478 . S
C596 C598 1.381 . S
C596 C602 1.383 . S
C597 C593 1.495 . S
C597 H603 0.959 . S
C597 H604 0.961 . S
C597 H605 0.960 . S
C598 C596 1.381 . S
C598 C599 1.394 . S
C598 H606 0.930 1_565 S
C599 C598 1.394 . S
C599 C600 1.383 . S
C599 H607 0.929 . S
C600 C599 1.383 . S
C600 C601 1.377 . S
C601 H585 0.930 . S
C601 C600 1.377 . S
C601 C602 1.379 . S
C602 H586 0.931 . S
C602 C596 1.383 . S
C602 C601 1.379 . S
H603 C597 0.959 . S
H604 C597 0.961 . S
H605 C597 0.960 . S
H606 C598 0.930 1_545 S
H607 C599 0.929 . S
H608 C616 0.929 . S
H609 C618 0.930 . S
H610 C620 0.930 . S
H611 C623 0.929 . S
H612 C626 0.930 . S
H613 C628 0.960 . S
H614 C628 0.960 . S
H615 C628 0.960 . S
C616 H608 0.929 . S
C616 C617 1.377 . S
C616 C618 1.384 . S
C617 C616 1.377 . S
C617 C623 1.390 . S
C618 H609 0.930 . S
C618 C616 1.384 . S
C618 C619 1.372 . S
C619 C618 1.372 . S
C619 C620 1.400 . S
C619 C624 1.490 . S
C620 H610 0.930 . S
C620 C619 1.400 . S
C620 C623 1.386 . S
H621 C637 0.930 . S
H622 C638 0.931 . S
C623 H611 0.929 . S
C623 C617 1.390 . S
C623 C620 1.386 . S
C624 C619 1.490 . S
C624 C626 1.395 . S
C624 C627 1.403 . S
H625 C631 0.930 . S
C626 H612 0.930 . S
C626 C624 1.395 . S
C626 C629 1.403 . S
C627 C624 1.403 . S
C627 C628 1.524 . S
C627 C631 1.400 . S
C628 H613 0.960 . S
C628 H614 0.960 . S
C628 H615 0.960 . S
C628 C627 1.524 . S
C629 C626 1.403 . S
C629 C630 1.392 . S
C629 C633 1.495 . S
C630 C629 1.392 . S
C630 C631 1.385 . S
C630 C632 1.478 . S
C631 H625 0.930 . S
C631 C627 1.400 . S
C631 C630 1.385 . S
C632 C630 1.478 . S
C632 C634 1.381 . S
C632 C638 1.383 . S
C633 C629 1.495 . S
C633 H639 0.959 . S
C633 H640 0.961 . S
C633 H641 0.960 . S
C634 C632 1.381 . S
C634 C635 1.394 . S
C634 H642 0.930 . S
C635 C634 1.394 . S
C635 C636 1.383 . S
C635 H643 0.929 . S
C636 C635 1.383 . S
C636 C637 1.377 . S
C637 H621 0.930 . S
C637 C636 1.377 . S
C637 C638 1.379 . S
C638 H622 0.931 . S
C638 C632 1.383 . S
C638 C637 1.379 . S
H639 C633 0.959 . S
H640 C633 0.961 . S
H641 C633 0.960 . S
H642 C634 0.930 . S
H643 C635 0.929 . S
H644 C652 0.929 . S
H645 C654 0.930 . S
H646 C656 0.930 . S
H647 C659 0.929 . S
H648 C662 0.930 . S
H649 C664 0.960 . S
H650 C664 0.960 . S
H651 C664 0.960 . S
C652 H644 0.929 . S
C652 C653 1.377 . S
C652 C654 1.384 . S
C653 C652 1.377 . S
C653 C659 1.390 . S
C654 H645 0.930 . S
C654 C652 1.384 . S
C654 C655 1.372 . S
C655 C654 1.372 . S
C655 C656 1.400 . S
C655 C660 1.490 . S
C656 H646 0.930 . S
C656 C655 1.400 . S
C656 C659 1.386 . S
H657 C673 0.930 . S
H658 C674 0.931 . S
C659 H647 0.929 . S
C659 C653 1.390 . S
C659 C656 1.386 . S
C660 C655 1.490 . S
C660 C662 1.395 . S
C660 C663 1.403 . S
H661 C667 0.930 . S
C662 H648 0.930 . S
C662 C660 1.395 . S
C662 C665 1.403 . S
C663 C660 1.403 . S
C663 C664 1.524 . S
C663 C667 1.400 . S
C664 H649 0.960 . S
C664 H650 0.960 . S
C664 H651 0.960 . S
C664 C663 1.524 . S
C665 C662 1.403 . S
C665 C666 1.392 . S
C665 C669 1.495 . S
C666 C665 1.392 . S
C666 C667 1.385 . S
C666 C668 1.478 . S
C667 H661 0.930 . S
C667 C663 1.400 . S
C667 C666 1.385 . S
C668 C666 1.478 . S
C668 C670 1.381 . S
C668 C674 1.383 . S
C669 C665 1.495 . S
C669 H675 0.959 . S
C669 H676 0.961 . S
C669 H677 0.960 . S
C670 C668 1.381 . S
C670 C671 1.394 . S
C670 H678 0.930 . S
C671 C670 1.394 . S
C671 C672 1.383 . S
C671 H679 0.929 . S
C672 C671 1.383 . S
C672 C673 1.377 . S
C673 H657 0.930 . S
C673 C672 1.377 . S
C673 C674 1.379 . S
C674 H658 0.931 . S
C674 C668 1.383 . S
C674 C673 1.379 . S
H675 C669 0.959 . S
H676 C669 0.961 . S
H677 C669 0.960 . S
H678 C670 0.930 . S
H679 C671 0.929 . S
H680 C688 0.929 . S
H681 C690 0.930 . S
H682 C692 0.930 . S
H683 C695 0.929 . S
H684 C698 0.930 . S
H685 C700 0.960 . S
H686 C700 0.960 . S
H687 C700 0.960 . S
C688 H680 0.929 . S
C688 C689 1.377 1_455 S
C688 C690 1.384 . S
C689 C688 1.377 1_655 S
C689 C695 1.390 . S
C690 H681 0.930 . S
C690 C688 1.384 . S
C690 C691 1.372 . S
C691 C690 1.372 . S
C691 C692 1.400 1_455 S
C691 C696 1.490 . S
C692 H682 0.930 . S
C692 C691 1.400 1_655 S
C692 C695 1.386 . S
H693 C709 0.930 . S
H694 C710 0.931 1_655 S
C695 H683 0.929 . S
C695 C689 1.390 . S
C695 C692 1.386 . S
C696 C691 1.490 . S
C696 C698 1.395 . S
C696 C699 1.403 . S
H697 C703 0.930 . S
C698 H684 0.930 . S
C698 C696 1.395 . S
C698 C701 1.403 . S
C699 C696 1.403 . S
C699 C700 1.524 . S
C699 C703 1.400 . S
C700 H685 0.960 . S
C700 H686 0.960 . S
C700 H687 0.960 . S
C700 C699 1.524 . S
C701 C698 1.403 . S
C701 C702 1.392 . S
C701 C705 1.495 1_554 S
C702 C701 1.392 . S
C702 C703 1.385 . S
C702 C704 1.478 . S
C703 H697 0.930 . S
C703 C699 1.400 . S
C703 C702 1.385 . S
C704 C702 1.478 . S
C704 C706 1.381 1_554 S
C704 C710 1.383 . S
C705 C701 1.495 1_556 S
C705 H711 0.959 . S
C705 H712 0.943 1_455 S
C705 H713 0.960 . S
C706 C704 1.381 1_556 S
C706 C707 1.394 . S
C706 H714 0.930 . S
C707 C706 1.394 . S
C707 C708 1.383 . S
C707 H715 0.929 . S
C708 C707 1.383 . S
C708 C709 1.377 1_556 S
C709 H693 0.930 . S
C709 C708 1.377 1_554 S
C709 C710 1.379 . S
C710 H694 0.931 1_455 S
C710 C704 1.383 . S
C710 C709 1.379 . S
H711 C705 0.959 . S
H712 C705 0.943 1_655 S
H713 C705 0.960 . S
H714 C706 0.930 . S
H715 C707 0.929 . S
H716 C724 0.929 . S
H717 C726 0.930 . S
H718 C728 0.930 . S
H719 C731 0.929 . S
H720 C734 0.930 . S
H721 C736 0.960 1_556 S
H722 C736 0.960 1_565 S
H723 C736 0.960 . S
C724 H716 0.929 . S
C724 C725 1.377 . S
C724 C726 1.384 . S
C725 C724 1.377 . S
C725 C731 1.390 1_565 S
C726 H717 0.930 . S
C726 C724 1.384 . S
C726 C727 1.372 1_565 S
C727 C726 1.372 1_545 S
C727 C728 1.400 . S
C727 C732 1.490 . S
C728 H718 0.930 . S
C728 C727 1.400 . S
C728 C731 1.386 . S
H729 C745 0.930 . S
H730 C746 0.931 . S
C731 H719 0.929 . S
C731 C725 1.390 1_545 S
C731 C728 1.386 . S
C732 C727 1.490 . S
C732 C734 1.395 . S
C732 C735 1.403 . S
H733 C739 0.930 . S
C734 H720 0.930 . S
C734 C732 1.395 . S
C734 C737 1.403 . S
C735 C732 1.403 . S
C735 C736 1.524 . S
C735 C739 1.400 . S
C736 H721 0.960 1_554 S
C736 H722 0.960 1_545 S
C736 H723 0.960 . S
C736 C735 1.524 . S
C737 C734 1.403 . S
C737 C738 1.392 . S
C737 C741 1.495 . S
C738 C737 1.392 . S
C738 C739 1.385 . S
C738 C740 1.478 . S
C739 H733 0.930 . S
C739 C735 1.400 . S
C739 C738 1.385 . S
C740 C738 1.478 . S
C740 C742 1.381 . S
C740 C746 1.383 . S
C741 C737 1.495 . S
C741 H747 0.959 . S
C741 H748 0.961 . S
C741 H749 0.960 . S
C742 C740 1.381 . S
C742 C743 1.394 . S
C742 H750 0.930 1_545 S
C743 C742 1.394 . S
C743 C744 1.383 1_554 S
C743 H751 0.929 . S
C744 C743 1.383 1_556 S
C744 C745 1.377 . S
C745 H729 0.930 . S
C745 C744 1.377 . S
C745 C746 1.379 1_556 S
C746 H730 0.931 . S
C746 C740 1.383 . S
C746 C745 1.379 1_554 S
H747 C741 0.959 . S
H748 C741 0.961 . S
H749 C741 0.960 . S
H750 C742 0.930 1_565 S
H751 C743 0.929 . S
H752 C760 0.929 . S
H753 C762 0.930 . S
H754 C764 0.930 . S
H755 C767 0.929 . S
H756 C770 0.930 . S
H757 C772 0.960 . S
H758 C772 0.960 . S
H759 C772 0.960 . S
C760 H752 0.929 . S
C760 C761 1.377 . S
C760 C762 1.384 . S
C761 C760 1.377 . S
C761 C767 1.390 . S
C762 H753 0.930 . S
C762 C760 1.384 . S
C762 C763 1.372 . S
C763 C762 1.372 . S
C763 C764 1.400 . S
C763 C768 1.490 . S
C764 H754 0.930 . S
C764 C763 1.400 . S
C764 C767 1.386 . S
H765 C781 0.930 . S
H766 C782 0.931 . S
C767 H755 0.929 . S
C767 C761 1.390 . S
C767 C764 1.386 . S
C768 C763 1.490 . S
C768 C770 1.395 . S
C768 C771 1.403 . S
H769 C775 0.930 . S
C770 H756 0.930 . S
C770 C768 1.395 . S
C770 C773 1.403 . S
C771 C768 1.403 . S
C771 C772 1.524 . S
C771 C775 1.400 . S
C772 H757 0.960 . S
C772 H758 0.960 . S
C772 H759 0.960 . S
C772 C771 1.524 . S
C773 C770 1.403 . S
C773 C774 1.392 . S
C773 C777 1.495 . S
C774 C773 1.392 . S
C774 C775 1.385 . S
C774 C776 1.478 . S
C775 H769 0.930 . S
C775 C771 1.400 . S
C775 C774 1.385 . S
C776 C774 1.478 . S
C776 C778 1.381 1_554 S
C776 C782 1.383 . S
C777 C773 1.495 . S
C777 H783 0.959 . S
C777 H784 0.961 . S
C777 H785 0.960 1_554 S
C778 C776 1.381 1_556 S
C778 C779 1.394 . S
C778 H786 0.930 . S
C779 C778 1.394 . S
C779 C780 1.383 . S
C779 H787 0.929 . S
C780 C779 1.383 . S
C780 C781 1.377 1_556 S
C781 H765 0.930 . S
C781 C780 1.377 1_554 S
C781 C782 1.379 . S
C782 H766 0.931 . S
C782 C776 1.383 . S
C782 C781 1.379 . S
H783 C777 0.959 . S
H784 C777 0.961 . S
H785 C777 0.960 1_556 S
H786 C778 0.930 . S
H787 C779 0.929 . S
H788 C796 0.929 . S
H789 C798 0.930 . S
H790 C800 0.930 . S
H791 C803 0.929 . S
H792 C806 0.930 . S
H793 C808 0.960 1_556 S
H794 C808 0.960 . S
H795 C808 0.960 . S
C796 H788 0.929 . S
C796 C797 1.377 . S
C796 C798 1.384 . S
C797 C796 1.377 . S
C797 C803 1.390 . S
C798 H789 0.930 . S
C798 C796 1.384 . S
C798 C799 1.372 . S
C799 C798 1.372 . S
C799 C800 1.400 . S
C799 C804 1.490 . S
C800 H790 0.930 . S
C800 C799 1.400 . S
C800 C803 1.386 . S
H801 C817 0.930 . S
H802 C818 0.931 . S
C803 H791 0.929 . S
C803 C797 1.390 . S
C803 C800 1.386 . S
C804 C799 1.490 . S
C804 C806 1.395 . S
C804 C807 1.403 . S
H805 C811 0.930 . S
C806 H792 0.930 . S
C806 C804 1.395 . S
C806 C809 1.403 . S
C807 C804 1.403 . S
C807 C808 1.524 . S
C807 C811 1.400 . S
C808 H793 0.960 1_554 S
C808 H794 0.960 . S
C808 H795 0.960 . S
C808 C807 1.524 . S
C809 C806 1.403 . S
C809 C810 1.392 . S
C809 C813 1.495 . S
C810 C809 1.392 . S
C810 C811 1.385 . S
C810 C812 1.478 . S
C811 H805 0.930 . S
C811 C807 1.400 . S
C811 C810 1.385 . S
C812 C810 1.478 . S
C812 C814 1.381 . S
C812 C818 1.383 . S
C813 C809 1.495 . S
C813 H819 0.959 . S
C813 H820 0.961 . S
C813 H821 0.960 . S
C814 C812 1.381 . S
C814 C815 1.394 . S
C814 H822 0.930 . S
C815 C814 1.394 . S
C815 C816 1.383 1_554 S
C815 H823 0.929 . S
C816 C815 1.383 1_556 S
C816 C817 1.377 . S
C817 H801 0.930 . S
C817 C816 1.377 . S
C817 C818 1.379 1_556 S
C818 H802 0.931 . S
C818 C812 1.383 . S
C818 C817 1.379 1_554 S
H819 C813 0.959 . S
H820 C813 0.961 . S
H821 C813 0.960 . S
H822 C814 0.930 . S
H823 C815 0.929 . S
H824 C832 0.927 1_655 S
H825 C834 0.930 . S
H826 C836 0.930 . S
H827 C839 0.929 1_554 S
H828 C842 0.930 . S
H829 C844 0.960 . S
H830 C844 0.960 . S
H831 C844 0.960 . S
C832 H824 0.927 1_455 S
C832 C833 1.379 . S
C832 C834 1.387 . S
C833 C832 1.379 . S
C833 C839 1.390 . S
C834 H825 0.930 . S
C834 C832 1.387 . S
C834 C835 1.372 . S
C835 C834 1.372 . S
C835 C836 1.400 . S
C835 C840 1.490 . S
C836 H826 0.930 . S
C836 C835 1.400 . S
C836 C839 1.386 . S
H837 C853 0.930 . S
H838 C854 0.931 . S
C839 H827 0.929 1_556 S
C839 C833 1.390 . S
C839 C836 1.386 . S
C840 C835 1.490 . S
C840 C842 1.395 . S
C840 C843 1.403 1_455 S
H841 C847 0.930 . S
C842 H828 0.930 . S
C842 C840 1.395 . S
C842 C845 1.403 . S
C843 C840 1.403 1_655 S
C843 C844 1.524 . S
C843 C847 1.400 . S
C844 H829 0.960 . S
C844 H830 0.960 . S
C844 H831 0.960 . S
C844 C843 1.524 . S
C845 C842 1.403 . S
C845 C846 1.392 . S
C845 C849 1.495 . S
C846 C845 1.392 . S
C846 C847 1.385 1_455 S
C846 C848 1.478 . S
C847 H841 0.930 . S
C847 C843 1.400 . S
C847 C846 1.385 1_655 S
C848 C846 1.478 . S
C848 C850 1.381 . S
C848 C854 1.383 . S
C849 C845 1.495 . S
C849 H855 0.959 . S
C849 H856 0.961 . S
C849 H857 0.960 . S
C850 C848 1.381 . S
C850 C851 1.394 . S
C850 H858 0.930 . S
C851 C850 1.394 . S
C851 C852 1.383 . S
C851 H859 0.929 . S
C852 C851 1.383 . S
C852 C853 1.377 . S
C853 H837 0.930 . S
C853 C852 1.377 . S
C853 C854 1.379 . S
C854 H838 0.931 . S
C854 C848 1.383 . S
C854 C853 1.379 . S
H855 C849 0.959 . S
H856 C849 0.961 . S
H857 C849 0.960 . S
H858 C850 0.930 . S
H859 C851 0.929 . S
H860 C868 0.929 . S
H861 C870 0.930 . S
H862 C872 0.930 . S
H863 C875 0.929 . S
H864 C878 0.930 . S
H865 C880 0.960 . S
H866 C880 0.960 . S
H867 C880 0.960 . S
C868 H860 0.929 . S
C868 C869 1.377 . S
C868 C870 1.384 . S
C869 C868 1.377 . S
C869 C875 1.390 1_545 S
C870 H861 0.930 . S
C870 C868 1.384 . S
C870 C871 1.372 . S
C871 C870 1.372 . S
C871 C872 1.400 1_545 S
C871 C876 1.490 . S
C872 H862 0.930 . S
C872 C871 1.400 1_565 S
C872 C875 1.386 . S
H873 C889 0.930 1_565 S
H874 C890 0.931 1_565 S
C875 H863 0.929 . S
C875 C869 1.390 1_565 S
C875 C872 1.386 . S
C876 C871 1.490 . S
C876 C878 1.395 . S
C876 C879 1.403 1_545 S
H877 C883 0.930 . S
C878 H864 0.930 . S
C878 C876 1.395 . S
C878 C881 1.403 . S
C879 C876 1.403 1_565 S
C879 C880 1.524 . S
C879 C883 1.400 . S
C880 H865 0.960 . S
C880 H866 0.960 . S
C880 H867 0.960 . S
C880 C879 1.524 . S
C881 C878 1.403 . S
C881 C882 1.392 . S
C881 C885 1.495 . S
C882 C881 1.392 . S
C882 C883 1.385 1_545 S
C882 C884 1.478 . S
C883 H877 0.930 . S
C883 C879 1.400 . S
C883 C882 1.385 1_565 S
C884 C882 1.478 . S
C884 C886 1.381 . S
C884 C890 1.383 . S
C885 C881 1.495 . S
C885 H891 0.959 . S
C885 H892 0.961 . S
C885 H893 0.960 . S
C886 C884 1.381 . S
C886 C887 1.394 . S
C886 H894 0.930 . S
C887 C886 1.394 . S
C887 C888 1.383 . S
C887 H895 0.929 . S
C888 C887 1.383 . S
C888 C889 1.377 . S
C889 H873 0.930 1_545 S
C889 C888 1.377 . S
C889 C890 1.379 . S
C890 H874 0.931 1_545 S
C890 C884 1.383 . S
C890 C889 1.379 . S
H891 C885 0.959 . S
H892 C885 0.961 . S
H893 C885 0.960 . S
H894 C886 0.930 . S
H895 C887 0.929 . S
H896 C904 0.929 . S
H897 C906 0.930 . S
H898 C908 0.930 . S
H899 C911 0.929 . S
H900 C914 0.930 . S
H901 C916 0.960 . S
H902 C916 0.960 . S
H903 C916 0.960 . S
C904 H896 0.929 . S
C904 C905 1.377 . S
C904 C906 1.384 . S
C905 C904 1.377 . S
C905 C911 1.390 . S
C906 H897 0.930 . S
C906 C904 1.384 . S
C906 C907 1.372 . S
C907 C906 1.372 . S
C907 C908 1.400 . S
C907 C912 1.490 . S
C908 H898 0.930 . S
C908 C907 1.400 . S
C908 C911 1.386 . S
H909 C925 0.930 . S
H910 C926 0.931 . S
C911 H899 0.929 . S
C911 C905 1.390 . S
C911 C908 1.386 . S
C912 C907 1.490 . S
C912 C914 1.395 . S
C912 C915 1.403 . S
H913 C919 0.930 . S
C914 H900 0.930 . S
C914 C912 1.395 . S
C914 C917 1.403 . S
C915 C912 1.403 . S
C915 C916 1.524 . S
C915 C919 1.400 . S
C916 H901 0.960 . S
C916 H902 0.960 . S
C916 H903 0.960 . S
C916 C915 1.524 . S
C917 C914 1.403 . S
C917 C918 1.392 . S
C917 C921 1.495 . S
C918 C917 1.392 . S
C918 C919 1.385 . S
C918 C920 1.478 . S
C919 H913 0.930 . S
C919 C915 1.400 . S
C919 C918 1.385 . S
C920 C918 1.478 . S
C920 C922 1.381 . S
C920 C926 1.383 . S
C921 C917 1.495 . S
C921 H927 0.959 1_556 S
C921 H928 0.961 . S
C921 H929 0.960 . S
C922 C920 1.381 . S
C922 C923 1.394 . S
C922 H930 0.930 . S
C923 C922 1.394 . S
C923 C924 1.383 . S
C923 H931 0.929 . S
C924 C923 1.383 . S
C924 C925 1.377 . S
C925 H909 0.930 . S
C925 C924 1.377 . S
C925 C926 1.379 . S
C926 H910 0.931 . S
C926 C920 1.383 . S
C926 C925 1.379 . S
H927 C921 0.959 1_554 S
H928 C921 0.961 . S
H929 C921 0.960 . S
H930 C922 0.930 . S
H931 C923 0.929 . S
H932 C940 0.929 . S
H933 C942 0.930 . S
H934 C944 0.930 . S
H935 C947 0.929 1_554 S
H936 C950 0.930 . S
H937 C952 0.960 . S
H938 C952 0.960 . S
H939 C952 0.960 . S
C940 H932 0.929 . S
C940 C941 1.377 . S
C940 C942 1.384 . S
C941 C940 1.377 . S
C941 C947 1.390 . S
C942 H933 0.930 . S
C942 C940 1.384 . S
C942 C943 1.372 . S
C943 C942 1.372 . S
C943 C944 1.400 . S
C943 C948 1.490 . S
C944 H934 0.930 . S
C944 C943 1.400 . S
C944 C947 1.386 . S
H945 C961 0.930 . S
H946 C962 0.931 . S
C947 H935 0.929 1_556 S
C947 C941 1.390 . S
C947 C944 1.386 . S
C948 C943 1.490 . S
C948 C950 1.395 . S
C948 C951 1.403 . S
H949 C955 0.930 . S
C950 H936 0.930 . S
C950 C948 1.395 . S
C950 C953 1.403 . S
C951 C948 1.403 . S
C951 C952 1.524 . S
C951 C955 1.400 . S
C952 H937 0.960 . S
C952 H938 0.960 . S
C952 H939 0.960 . S
C952 C951 1.524 . S
C953 C950 1.403 . S
C953 C954 1.392 . S
C953 C957 1.495 . S
C954 C953 1.392 . S
C954 C955 1.385 . S
C954 C956 1.478 . S
C955 H949 0.930 . S
C955 C951 1.400 . S
C955 C954 1.385 . S
C956 C954 1.478 . S
C956 C958 1.381 . S
C956 C962 1.383 . S
C957 C953 1.495 . S
C957 H963 0.959 . S
C957 H964 0.961 . S
C957 H965 0.960 . S
C958 C956 1.381 . S
C958 C959 1.394 . S
C958 H966 0.930 . S
C959 C958 1.394 . S
C959 C960 1.383 . S
C959 H967 0.929 . S
C960 C959 1.383 . S
C960 C961 1.377 . S
C961 H945 0.930 . S
C961 C960 1.377 . S
C961 C962 1.379 . S
C962 H946 0.931 . S
C962 C956 1.383 . S
C962 C961 1.379 . S
H963 C957 0.959 . S
H964 C957 0.961 . S
H965 C957 0.960 . S
H966 C958 0.930 . S
H967 C959 0.929 . S
H968 C976 0.929 . S
H969 C978 0.930 . S
H970 C980 0.930 . S
H971 C983 0.929 . S
H972 C986 0.932 . S
H973 C988 0.960 . S
H974 C988 0.960 1_455 S
H975 C988 0.960 . S
C976 H968 0.929 . S
C976 C977 1.377 1_455 S
C976 C978 1.384 . S
C977 C976 1.377 1_655 S
C977 C983 1.390 . S
C978 H969 0.930 . S
C978 C976 1.384 . S
C978 C979 1.372 1_455 S
C979 C978 1.372 1_655 S
C979 C980 1.400 . S
C979 C984 1.490 . S
C980 H970 0.930 . S
C980 C979 1.400 . S
C980 C983 1.386 . S
H981 C997 0.930 . S
H982 C998 0.931 . S
C983 H971 0.929 . S
C983 C977 1.390 . S
C983 C980 1.386 . S
C984 C979 1.490 . S
C984 C986 1.395 . S
C984 C987 1.403 . S
H985 C991 0.930 . S
C986 H972 0.932 . S
C986 C984 1.395 . S
C986 C989 1.403 . S
C987 C984 1.403 . S
C987 C988 1.524 . S
C987 C991 1.400 . S
C988 H973 0.960 . S
C988 H974 0.960 1_655 S
C988 H975 0.960 . S
C988 C987 1.524 . S
C989 C986 1.403 . S
C989 C990 1.392 . S
C989 C993 1.495 . S
C990 C989 1.392 . S
C990 C991 1.385 . S
C990 C992 1.478 . S
C991 H985 0.930 . S
C991 C987 1.400 . S
C991 C990 1.385 . S
C992 C990 1.478 . S
C992 C994 1.381 1_655 S
C992 C998 1.383 . S
C993 C989 1.495 . S
C993 H999 0.962 . S
C993 H1000 0.961 . S
C993 H1001 0.960 1_655 S
C994 C992 1.381 1_455 S
C994 C995 1.394 . S
C994 H1002 0.930 . S
C995 C994 1.394 . S
C995 C996 1.383 1_455 S
C995 H1003 0.929 . S
C996 C995 1.383 1_655 S
C996 C997 1.377 . S
C997 H981 0.930 . S
C997 C996 1.377 . S
C997 C998 1.379 . S
C998 H982 0.931 . S
C998 C992 1.383 . S
C998 C997 1.379 . S
H999 C993 0.962 . S
H1000 C993 0.961 . S
H1001 C993 0.960 1_455 S
H1002 C994 0.930 . S
H1003 C995 0.929 . S
H1004 C1012 0.929 . S
H1005 C1014 0.930 . S
H1006 C1016 0.930 . S
H1007 C1019 0.929 . S
H1008 C1022 0.930 . S
H1009 C1024 0.960 . S
H1010 C1024 0.960 . S
H1011 C1024 0.960 . S
C1012 H1004 0.929 . S
C1012 C1013 1.362 1_545 S
C1012 C1014 1.384 . S
C1013 C1012 1.362 1_565 S
C1013 C1019 1.409 . S
C1014 H1005 0.930 . S
C1014 C1012 1.384 . S
C1014 C1015 1.372 1_545 S
C1015 C1014 1.372 1_565 S
C1015 C1016 1.400 . S
C1015 C1020 1.490 . S
C1016 H1006 0.930 . S
C1016 C1015 1.400 . S
C1016 C1019 1.386 . S
H1017 C1033 0.930 . S
H1018 C1034 0.931 . S
C1019 H1007 0.929 . S
C1019 C1013 1.409 . S
C1019 C1016 1.386 . S
C1020 C1015 1.490 . S
C1020 C1022 1.395 . S
C1020 C1023 1.403 1_565 S
H1021 C1027 0.930 . S
C1022 H1008 0.930 . S
C1022 C1020 1.395 . S
C1022 C1025 1.403 . S
C1023 C1020 1.403 1_545 S
C1023 C1024 1.524 . S
C1023 C1027 1.400 . S
C1024 H1009 0.960 . S
C1024 H1010 0.960 . S
C1024 H1011 0.960 . S
C1024 C1023 1.524 . S
C1025 C1022 1.403 . S
C1025 C1026 1.392 . S
C1025 C1029 1.495 . S
C1026 C1025 1.392 . S
C1026 C1027 1.385 1_565 S
C1026 C1028 1.478 . S
C1027 H1021 0.930 . S
C1027 C1023 1.400 . S
C1027 C1026 1.385 1_545 S
C1028 C1026 1.478 . S
C1028 C1030 1.381 . S
C1028 C1034 1.383 . S
C1029 C1025 1.495 . S
C1029 H1035 0.959 . S
C1029 H1036 0.961 . S
C1029 H1037 0.960 . S
C1030 C1028 1.381 . S
C1030 C1031 1.394 . S
C1030 H1038 0.930 1_565 S
C1031 C1030 1.394 . S
C1031 C1032 1.383 . S
C1031 H1039 0.929 1_565 S
C1032 C1031 1.383 . S
C1032 C1033 1.377 . S
C1033 H1017 0.930 . S
C1033 C1032 1.377 . S
C1033 C1034 1.379 . S
C1034 H1018 0.931 . S
C1034 C1028 1.383 . S
C1034 C1033 1.379 . S
H1035 C1029 0.959 . S
H1036 C1029 0.961 . S
H1037 C1029 0.960 . S
H1038 C1030 0.930 1_545 S
H1039 C1031 0.929 1_545 S
H1040 C1048 0.929 . S
H1041 C1050 0.930 . S
H1042 C1052 0.930 . S
H1043 C1055 0.929 . S
H1044 C1058 0.930 . S
H1045 C1060 0.960 . S
H1046 C1060 0.960 . S
H1047 C1060 0.960 . S
C1048 H1040 0.929 . S
C1048 C1049 1.377 . S
C1048 C1050 1.384 . S
C1049 C1048 1.377 . S
C1049 C1055 1.390 . S
C1050 H1041 0.930 . S
C1050 C1048 1.384 . S
C1050 C1051 1.372 . S
C1051 C1050 1.372 . S
C1051 C1052 1.400 . S
C1051 C1056 1.490 . S
C1052 H1042 0.930 . S
C1052 C1051 1.400 . S
C1052 C1055 1.386 . S
H1053 C1069 0.930 . S
H1054 C1070 0.931 . S
C1055 H1043 0.929 . S
C1055 C1049 1.390 . S
C1055 C1052 1.386 . S
C1056 C1051 1.490 . S
C1056 C1058 1.395 . S
C1056 C1059 1.403 . S
H1057 C1063 0.930 . S
C1058 H1044 0.930 . S
C1058 C1056 1.395 . S
C1058 C1061 1.403 . S
C1059 C1056 1.403 . S
C1059 C1060 1.524 . S
C1059 C1063 1.400 . S
C1060 H1045 0.960 . S
C1060 H1046 0.960 . S
C1060 H1047 0.960 . S
C1060 C1059 1.524 . S
C1061 C1058 1.403 . S
C1061 C1062 1.392 . S
C1061 C1065 1.495 . S
C1062 C1061 1.392 . S
C1062 C1063 1.385 . S
C1062 C1064 1.478 . S
C1063 H1057 0.930 . S
C1063 C1059 1.400 . S
C1063 C1062 1.385 . S
C1064 C1062 1.478 . S
C1064 C1066 1.381 . S
C1064 C1070 1.383 . S
C1065 C1061 1.495 . S
C1065 H1071 0.959 . S
C1065 H1072 0.961 . S
C1065 H1073 0.960 . S
C1066 C1064 1.381 . S
C1066 C1067 1.394 . S
C1066 H1074 0.930 . S
C1067 C1066 1.394 . S
C1067 C1068 1.383 . S
C1067 H1075 0.929 . S
C1068 C1067 1.383 . S
C1068 C1069 1.377 . S
C1069 H1053 0.930 . S
C1069 C1068 1.377 . S
C1069 C1070 1.379 . S
C1070 H1054 0.931 . S
C1070 C1064 1.383 . S
C1070 C1069 1.379 . S
H1071 C1065 0.959 . S
H1072 C1065 0.961 . S
H1073 C1065 0.960 . S
H1074 C1066 0.930 . S
H1075 C1067 0.929 . S
H1076 C1084 0.929 . S
H1077 C1086 0.930 . S
H1078 C1088 0.930 . S
H1079 C1091 0.929 . S
H1080 C1094 0.930 . S
H1081 C1096 0.960 . S
H1082 C1096 0.960 . S
H1083 C1096 0.960 . S
C1084 H1076 0.929 . S
C1084 C1085 1.377 . S
C1084 C1086 1.384 . S
C1085 C1084 1.377 . S
C1085 C1091 1.390 . S
C1086 H1077 0.930 . S
C1086 C1084 1.384 . S
C1086 C1087 1.372 . S
C1087 C1086 1.372 . S
C1087 C1088 1.400 . S
C1087 C1092 1.490 . S
C1088 H1078 0.930 . S
C1088 C1087 1.400 . S
C1088 C1091 1.386 . S
H1089 C1105 0.930 . S
H1090 C1106 0.931 . S
C1091 H1079 0.929 . S
C1091 C1085 1.390 . S
C1091 C1088 1.386 . S
C1092 C1087 1.490 . S
C1092 C1094 1.395 . S
C1092 C1095 1.403 . S
H1093 C1099 0.930 . S
C1094 H1080 0.930 . S
C1094 C1092 1.395 . S
C1094 C1097 1.403 . S
C1095 C1092 1.403 . S
C1095 C1096 1.524 . S
C1095 C1099 1.400 . S
C1096 H1081 0.960 . S
C1096 H1082 0.960 . S
C1096 H1083 0.960 . S
C1096 C1095 1.524 . S
C1097 C1094 1.403 . S
C1097 C1098 1.392 . S
C1097 C1101 1.495 . S
C1098 C1097 1.392 . S
C1098 C1099 1.385 . S
C1098 C1100 1.478 . S
C1099 H1093 0.930 . S
C1099 C1095 1.400 . S
C1099 C1098 1.385 . S
C1100 C1098 1.478 . S
C1100 C1102 1.381 . S
C1100 C1106 1.383 . S
C1101 C1097 1.495 . S
C1101 H1107 0.959 . S
C1101 H1108 0.961 . S
C1101 H1109 0.960 . S
C1102 C1100 1.381 . S
C1102 C1103 1.394 . S
C1102 H1110 0.930 . S
C1103 C1102 1.394 . S
C1103 C1104 1.383 . S
C1103 H1111 0.929 . S
C1104 C1103 1.383 . S
C1104 C1105 1.377 . S
C1105 H1089 0.930 . S
C1105 C1104 1.377 . S
C1105 C1106 1.379 . S
C1106 H1090 0.931 . S
C1106 C1100 1.383 . S
C1106 C1105 1.379 . S
H1107 C1101 0.959 . S
H1108 C1101 0.961 . S
H1109 C1101 0.960 . S
H1110 C1102 0.930 . S
H1111 C1103 0.929 . S
C257 C76 1.734 . S
C276 C97 1.796 1_545 S
C312 C137 1.807 . S
C293 C87 1.733 . S
C348 C177 1.820 . S
C329 C54 1.727 . S
C384 C217 1.793 1_455 S
C365 C65 1.735 . S
C420 C106 1.811 1_565 S
C401 C32 1.728 . S
C437 C43 1.733 . S
C456 C146 1.819 . S
C473 C10 1.730 . S
C492 C186 1.817 . S
C509 C21 1.736 . S
C528 C226 1.803 1_655 S
C564 C103 0.309 . S
C545 C60 0.392 . S
C600 C143 0.354 . S
C581 C71 0.387 . S
C636 C183 0.254 . S
C617 C82 0.366 . S
C653 C49 0.398 . S
C672 C223 0.371 . S
C689 C16 0.383 . S
C708 C94 0.312 . S
C744 C134 0.350 . S
C725 C27 0.405 . S
C780 C174 0.263 . S
C761 C38 0.400 . S
C797 C5 0.404 . S
C816 C214 0.363 . S
C833 C59 1.865 . S
C852 C107 2.060 . S
C869 C70 1.868 . S
C888 C147 2.061 . S
C924 C187 2.050 . S
C905 C81 1.866 . S
C960 C227 2.059 . S
C941 C48 1.864 . S
C977 C15 1.867 1_655 S
C996 C98 2.046 . S
C1032 C138 2.056 . S
C1013 C26 1.859 1_565 S
C1068 C178 2.054 . S
C1049 C37 1.858 . S
C1085 C4 1.870 . S
C1104 C218 2.035 . S
