# Generated by pormake.
# Topology zzz, (3,6)-cn, num edge types: 1
# Building blocks:
#     Node 0, Type 0, BuildingBlock: MIDCAF_clean_linker_0, # of connection points: 3
#     Node 1, Type 0, BuildingBlock: MIDCAF_clean_linker_0, # of connection points: 3
#     Node 2, Type 0, BuildingBlock: MIDCAF_clean_linker_0, # of connection points: 3
#     Node 3, Type 0, BuildingBlock: MIDCAF_clean_linker_0, # of connection points: 3
#     Node 4, Type 0, BuildingBlock: MIDCAF_clean_linker_0, # of connection points: 3
#     Node 5, Type 0, BuildingBlock: MIDCAF_clean_linker_0, # of connection points: 3
#     Node 6, Type 0, BuildingBlock: MIDCAF_clean_linker_0, # of connection points: 3
#     Node 7, Type 0, BuildingBlock: MIDCAF_clean_linker_0, # of connection points: 3
#     Node 8, Type 1, BuildingBlock: KUMBUR_clean_sbu_0, # of connection points: 6
#     Node 9, Type 1, BuildingBlock: KUMBUR_clean_sbu_0, # of connection points: 6
#     Node 10, Type 1, BuildingBlock: KUMBUR_clean_sbu_0, # of connection points: 6
#     Node 11, Type 1, BuildingBlock: KUMBUR_clean_sbu_0, # of connection points: 6
#     Edge 12, Type (0, 1), BuildingBlock: TEMPAE_clean_linker_10, # of connection points: 2
#     Edge 13, Type (0, 1), BuildingBlock: TEMPAE_clean_linker_10, # of connection points: 2
#     Edge 14, Type (0, 1), BuildingBlock: TEMPAE_clean_linker_10, # of connection points: 2
#     Edge 15, Type (0, 1), BuildingBlock: TEMPAE_clean_linker_10, # of connection points: 2
#     Edge 16, Type (0, 1), BuildingBlock: TEMPAE_clean_linker_10, # of connection points: 2
#     Edge 17, Type (0, 1), BuildingBlock: TEMPAE_clean_linker_10, # of connection points: 2
#     Edge 18, Type (0, 1), BuildingBlock: TEMPAE_clean_linker_10, # of connection points: 2
#     Edge 19, Type (0, 1), BuildingBlock: TEMPAE_clean_linker_10, # of connection points: 2
#     Edge 20, Type (0, 1), BuildingBlock: TEMPAE_clean_linker_10, # of connection points: 2
#     Edge 21, Type (0, 1), BuildingBlock: TEMPAE_clean_linker_10, # of connection points: 2
#     Edge 22, Type (0, 1), BuildingBlock: TEMPAE_clean_linker_10, # of connection points: 2
#     Edge 23, Type (0, 1), BuildingBlock: TEMPAE_clean_linker_10, # of connection points: 2
#     Edge 24, Type (0, 1), BuildingBlock: TEMPAE_clean_linker_10, # of connection points: 2
#     Edge 25, Type (0, 1), BuildingBlock: TEMPAE_clean_linker_10, # of connection points: 2
#     Edge 26, Type (0, 1), BuildingBlock: TEMPAE_clean_linker_10, # of connection points: 2
#     Edge 27, Type (0, 1), BuildingBlock: TEMPAE_clean_linker_10, # of connection points: 2
#     Edge 28, Type (0, 1), BuildingBlock: TEMPAE_clean_linker_10, # of connection points: 2
#     Edge 29, Type (0, 1), BuildingBlock: TEMPAE_clean_linker_10, # of connection points: 2
#     Edge 30, Type (0, 1), BuildingBlock: TEMPAE_clean_linker_10, # of connection points: 2
#     Edge 31, Type (0, 1), BuildingBlock: TEMPAE_clean_linker_10, # of connection points: 2
#     Edge 32, Type (0, 1), BuildingBlock: TEMPAE_clean_linker_10, # of connection points: 2
#     Edge 33, Type (0, 1), BuildingBlock: TEMPAE_clean_linker_10, # of connection points: 2
#     Edge 34, Type (0, 1), BuildingBlock: TEMPAE_clean_linker_10, # of connection points: 2
#     Edge 35, Type (0, 1), BuildingBlock: TEMPAE_clean_linker_10, # of connection points: 2
# Relax obj value: 0.299
# Max RMSD: 0.227
# Mean RMSD: 0.213
data_MOF--net-zzz--node1-KUMBUR_clean_sbu_0--node2-MIDCAF_clean_linker_0--edge1-TEMPAE_clean_linker_10
_symmetry_space_group_name_H-M    P1
_symmetry_Int_Tables_number       1
_symmetry_cell_setting            triclinic
loop_
_symmetry_equiv_pos_as_xyz
'x, y, z'
_cell_length_a     57.444873
_cell_length_b     57.405943
_cell_length_c     20.124319
_cell_angle_alpha  90.373223
_cell_angle_beta   90.093656
_cell_angle_gamma 89.948762
loop_
_atom_site_label
_atom_site_type_symbol
_atom_site_fract_x
_atom_site_fract_y
_atom_site_fract_z
_atom_type_partial_charge
C0 C 0.79694 0.55458 0.34424 0.0
C1 C 0.8143 0.53858 0.3246 0.0
C2 C 0.81165 0.52727 0.26266 0.0
C3 C 0.79316 0.53294 0.21991 0.0
H4 H 0.69878 0.59605 0.05917 0.0
H5 H 0.66307 0.58616 1.00015 0.0
H6 H 0.67269 0.51385 0.05088 0.0
H7 H 0.70875 0.52387 0.11049 0.0
H8 H 0.75572 0.60231 0.96929 0.0
H9 H 0.78485 0.61476 0.88907 0.0
H10 H 0.83538 0.62123 0.04742 0.0
H11 H 0.80635 0.60944 0.12718 0.0
H12 H 0.76661 0.57414 0.31543 0.0
H13 H 0.79843 0.56383 0.39111 0.0
H14 H 0.82443 0.51466 0.24597 0.0
H15 H 0.79267 0.52517 0.17071 0.0
N16 N 0.74114 0.55557 0.16624 0.0
N17 N 0.74255 0.58338 0.08055 0.0
N18 N 0.77469 0.57837 0.15009 0.0
C19 C 0.73053 0.56685 0.11431 0.0
C20 C 0.76457 0.58924 0.09799 0.0
C21 C 0.76329 0.56178 0.18475 0.0
C22 C 0.70674 0.56074 0.08962 0.0
C23 C 0.69311 0.57806 0.05892 0.0
C24 C 0.6725 0.57241 0.02514 0.0
C25 C 0.66497 0.54919 0.02013 0.0
C26 C 0.67808 0.53192 0.05314 0.0
C27 C 0.69862 0.53765 0.08796 0.0
C28 C 0.779 0.60401 0.05426 0.0
C29 C 0.77277 0.60732 0.98735 0.0
C30 C 0.78949 0.61445 0.94126 0.0
C31 C 0.81263 0.61832 0.96141 0.0
C32 C 0.81779 0.61834 0.02977 0.0
C33 C 0.80114 0.61124 0.0757 0.0
C34 C 0.77668 0.54994 0.23792 0.0
C35 C 0.77851 0.56034 0.30116 0.0
C36 C 0.98212 0.80893 0.34056 0.0
C37 C 0.99388 0.82843 0.31479 0.0
C38 C 1.00167 0.82724 0.2485 0.0
C39 C 0.99639 0.80796 0.20791 0.0
H40 H 0.00825 0.7206 0.10294 0.0
H41 H 0.01782 0.68444 0.04244 0.0
H42 H 0.94469 0.67285 1.00503 0.0
H43 H 0.93531 0.70826 0.06554 0.0
H44 H 0.91713 0.75999 0.99137 0.0
H45 H 0.9 0.7862 0.9101 0.0
H46 H 0.90555 0.84313 0.05064 0.0
H47 H 0.92192 0.81703 0.13212 0.0
H48 H 0.96579 0.77594 0.31918 0.0
H49 H 0.9757 0.80921 0.39112 0.0
H50 H 0.01103 0.84171 0.227 0.0
H51 H 1.00109 0.80851 0.15581 0.0
N52 N 0.97715 0.75268 0.16383 0.0
N53 N 0.94588 0.75179 0.08774 0.0
N54 N 0.95159 0.78462 0.15453 0.0
C55 C 0.96453 0.74104 0.11588 0.0
C56 C 0.93929 0.77351 0.10656 0.0
C57 C 0.97024 0.77453 0.18389 0.0
C58 C 0.97101 0.71746 0.08933 0.0
C59 C 0.99425 0.71002 0.08306 0.0
C60 C 0.99972 0.68941 0.04756 0.0
C61 C 0.98205 0.67559 0.01822 0.0
C62 C 0.95883 0.68268 0.02717 0.0
C63 C 0.95344 0.7032 0.06186 0.0
C64 C 0.9219 0.78666 0.06721 0.0
C65 C 0.91385 0.77789 1.00592 0.0
C66 C 0.90397 0.79291 0.95925 0.0
C67 C 0.90217 0.8169 0.97302 0.0
C68 C 0.90681 0.8248 0.03796 0.0
C69 C 0.91655 0.80981 0.08466 0.0
C70 C 0.98328 0.78921 0.23229 0.0
C71 C 0.97668 0.78967 0.29957 0.0
C72 C 0.70317 0.95043 0.32726 0.0
C73 C 0.69777 0.97406 0.33631 0.0
C74 C 0.71184 0.99081 0.30486 0.0
C75 C 0.72978 0.98386 0.261 0.0
H76 H 0.79979 0.99381 0.11128 0.0
H77 H 0.8362 1.00397 0.05378 0.0
H78 H 0.84763 0.93125 1.00818 0.0
H79 H 0.81184 0.92132 0.0653 0.0
H80 H 0.7593 0.90718 0.97498 0.0
H81 H 0.73374 0.89365 0.88616 0.0
H82 H 0.67436 0.904 0.01531 0.0
H83 H 0.69975 0.91587 0.10376 0.0
H84 H 0.72361 0.92509 0.27538 0.0
H85 H 0.69268 0.93715 0.3508 0.0
H86 H 0.70792 0.00917 0.31056 0.0
H87 H 0.7391 0.99699 0.23328 0.0
N88 N 0.7686 0.95937 0.17095 0.0
N89 N 0.76733 0.93456 0.07692 0.0
N90 N 0.73568 0.93613 0.14894 0.0
C91 C 0.77909 0.95022 0.11523 0.0
C92 C 0.7456 0.92754 0.09305 0.0
C93 C 0.7468 0.9518 0.18841 0.0
C94 C 0.80296 0.95676 0.09316 0.0
C95 C 0.81047 0.98003 0.09049 0.0
C96 C 0.83117 0.98584 0.05675 0.0
C97 C 0.84491 0.96845 0.0259 0.0
C98 C 0.83779 0.94513 0.0317 0.0
C99 C 0.81715 0.93942 0.06446 0.0
C100 C 0.7315 0.91352 0.04572 0.0
C101 C 0.74083 0.90582 0.98483 0.0
C102 C 0.7261 0.89815 0.93368 0.0
C103 C 0.70174 0.89852 0.94197 0.0
C104 C 0.69288 0.90339 1.00586 0.0
C105 C 0.70757 0.91062 0.05707 0.0
C106 C 0.7339 0.96007 0.2483 0.0
C107 C 0.72098 0.94355 0.28416 0.0
C108 C 0.61824 0.69097 0.0208 0.0
C109 C 0.6205 0.69828 0.95453 0.0
C110 C 0.61956 0.72228 0.94107 0.0
C111 C 0.61309 0.73813 0.99077 0.0
H112 H 0.55308 0.78421 0.99755 0.0
H113 H 0.54488 0.82036 0.93999 0.0
H114 H 0.56121 0.85925 0.11855 0.0
H115 H 0.5687 0.82247 0.17714 0.0
H116 H 0.52984 0.7506 0.26338 0.0
H117 H 0.51594 0.72445 0.35103 0.0
H118 H 0.5845 0.69372 0.36343 0.0
H119 H 0.59823 0.71996 0.27864 0.0
H120 H 0.60848 0.70018 0.1198 0.0
H121 H 0.61879 0.67266 0.03327 0.0
H122 H 0.62172 0.72854 0.89079 0.0
H123 H 0.6106 0.75621 0.97737 0.0
N124 N 0.58578 0.766 0.08142 0.0
N125 N 0.56419 0.76994 0.18042 0.0
N126 N 0.58791 0.73705 0.1618 0.0
C127 C 0.57095 0.77856 0.12008 0.0
C128 C 0.57293 0.74901 0.20156 0.0
C129 C 0.59448 0.74534 0.10188 0.0
C130 C 0.56151 0.80049 0.09188 0.0
C131 C 0.55445 0.80046 0.02501 0.0
C132 C 0.55006 0.82127 0.99171 0.0
C133 C 0.55298 0.84291 0.02381 0.0
C134 C 0.5588 0.84296 0.09206 0.0
C135 C 0.56298 0.82191 0.12585 0.0
C136 C 0.56514 0.73737 0.26376 0.0
C137 C 0.54204 0.73874 0.28652 0.0
C138 C 0.53402 0.7235 0.33618 0.0
C139 C 0.54899 0.70669 0.36447 0.0
C140 C 0.5724 0.70647 0.34408 0.0
C141 C 0.5803 0.72153 0.29476 0.0
C142 C 0.60771 0.73029 0.05504 0.0
C143 C 0.61198 0.70682 0.07057 0.0
C144 C 0.21986 0.49612 0.94116 0.0
C145 C 0.20089 0.48198 0.92183 0.0
C146 C 0.19952 0.45939 0.9474 0.0
C147 C 0.21581 0.45144 0.99348 0.0
H148 H 0.30277 0.50009 0.13917 0.0
H149 H 0.34014 0.51115 0.19078 0.0
H150 H 0.35046 0.43993 0.2521 0.0
H151 H 0.31381 0.42908 0.20064 0.0
H152 H 0.26021 0.42173 0.29876 0.0
H153 H 0.23354 0.40909 0.38544 0.0
H154 H 0.17861 0.40268 0.23952 0.0
H155 H 0.20522 0.41443 0.15327 0.0
H156 H 0.24993 0.49979 1.0052 0.0
H157 H 0.22137 0.51364 0.92204 0.0
H158 H 0.18538 0.44795 0.93281 0.0
H159 H 0.21356 0.43401 0.01278 0.0
N160 N 0.26989 0.46555 0.09077 0.0
N161 N 0.26989 0.44146 0.18559 0.0
N162 N 0.2374 0.44238 0.11645 0.0
C163 C 0.28112 0.45689 0.14583 0.0
C164 C 0.24804 0.43417 0.17143 0.0
C165 C 0.24787 0.45784 0.07548 0.0
C166 C 0.30527 0.4637 0.1656 0.0
C167 C 0.31336 0.48678 0.16229 0.0
C168 C 0.33463 0.49313 0.19265 0.0
C169 C 0.34841 0.47647 0.22606 0.0
C170 C 0.34064 0.45326 0.22645 0.0
C171 C 0.31945 0.44704 0.19701 0.0
C172 C 0.23459 0.42005 0.2195 0.0
C173 C 0.24268 0.41679 0.28478 0.0
C174 C 0.22738 0.40949 0.33456 0.0
C175 C 0.20372 0.40554 0.31996 0.0
C176 C 0.19664 0.4056 0.25303 0.0
C177 C 0.2119 0.41275 0.20337 0.0
C178 C 0.234 0.46587 0.0167 0.0
C179 C 0.23626 0.48816 0.98848 0.0
C180 C 0.04571 0.21788 0.90944 0.0
C181 C 0.03336 0.1988 0.93557 0.0
C182 C 0.02542 0.20049 1.00164 0.0
C183 C 0.03108 0.21979 0.0417 0.0
H184 H 0.02156 0.30816 0.14019 0.0
H185 H 0.01239 0.34466 0.19926 0.0
H186 H 0.08513 0.35345 0.24738 0.0
H187 H 0.09419 0.31761 0.18826 0.0
H188 H 0.11017 0.26528 0.26092 0.0
H189 H 0.12601 0.23832 0.34233 0.0
H190 H 0.12052 0.18219 0.19921 0.0
H191 H 0.10547 0.20902 0.11761 0.0
H192 H 0.06286 0.2505 0.93012 0.0
H193 H 0.05226 0.21721 0.85904 0.0
H194 H 0.01562 0.18635 0.0234 0.0
H195 H 0.02622 0.21958 0.09371 0.0
N196 N 0.0518 0.27463 0.08494 0.0
N197 N 0.08277 0.2747 0.16206 0.0
N198 N 0.07634 0.24196 0.09541 0.0
C199 C 0.06457 0.28597 0.13315 0.0
C200 C 0.08878 0.25276 0.14365 0.0
C201 C 0.05812 0.25254 0.06535 0.0
C202 C 0.05861 0.30978 0.15933 0.0
C203 C 0.03561 0.31816 0.16218 0.0
C204 C 0.03035 0.33899 0.19684 0.0
C205 C 0.04799 0.35211 0.22883 0.0
C206 C 0.07104 0.34413 0.22322 0.0
C207 C 0.07623 0.32336 0.18935 0.0
C208 C 0.10555 0.23908 0.1837 0.0
C209 C 0.11321 0.24738 0.24589 0.0
C210 C 0.12233 0.23193 0.29266 0.0
C211 C 0.12376 0.20796 0.27807 0.0
C212 C 0.11953 0.20047 0.21252 0.0
C213 C 0.11055 0.2159 0.16574 0.0
C214 C 0.04476 0.23809 0.01704 0.0
C215 C 0.05155 0.23716 0.94992 0.0
C216 C 0.33011 0.0299 1.0036 0.0
C217 C 0.33052 0.03546 0.9356 0.0
C218 C 0.31065 0.04609 0.90784 0.0
C219 C 0.29173 0.0527 0.94831 0.0
H220 H 0.22319 0.02615 0.14175 0.0
H221 H 0.18722 0.0173 0.20275 0.0
H222 H 0.17606 0.09086 0.23616 0.0
H223 H 0.21126 0.09953 0.17493 0.0
H224 H 0.26278 0.11692 0.25253 0.0
H225 H 0.2887 0.13179 0.33868 0.0
H226 H 0.34725 0.12313 0.20643 0.0
H227 H 0.3215 0.10892 0.12013 0.0
H228 H 0.31232 0.03339 0.09673 0.0
H229 H 0.34492 0.02145 0.02657 0.0
H230 H 0.31039 0.05074 0.85578 0.0
H231 H 0.27763 0.06268 0.92679 0.0
N232 N 0.25539 0.05633 0.08121 0.0
N233 N 0.25483 0.088 0.15636 0.0
N234 N 0.28799 0.08091 0.09281 0.0
C235 C 0.24381 0.06954 0.12772 0.0
C236 C 0.27685 0.09382 0.13941 0.0
C237 C 0.27754 0.06246 0.06292 0.0
C238 C 0.22017 0.06354 0.1533 0.0
C239 C 0.21269 0.04038 0.1607 0.0
C240 C 0.19222 0.03533 0.19648 0.0
C241 C 0.17867 0.05335 0.22497 0.0
C242 C 0.18573 0.07648 0.21462 0.0
C243 C 0.2061 0.08146 0.17955 0.0
C244 C 0.29025 0.11063 0.18054 0.0
C245 C 0.28104 0.11909 0.24078 0.0
C246 C 0.29589 0.12769 0.29026 0.0
C247 C 0.32011 0.1278 0.28027 0.0
C248 C 0.32871 0.12308 0.21622 0.0
C249 C 0.3139 0.1146 0.16672 0.0
C250 C 0.29214 0.04843 0.01702 0.0
C251 C 0.31123 0.03636 0.04368 0.0
C252 C 0.38881 0.31996 0.22646 0.0
C253 C 0.39042 0.31418 0.29419 0.0
C254 C 0.39418 0.29069 0.31099 0.0
C255 C 0.40023 0.2744 0.26193 0.0
H256 H 0.41343 0.20072 0.17244 0.0
H257 H 0.42529 0.16542 0.22915 0.0
H258 H 0.49732 0.18123 0.18821 0.0
H259 H 0.48519 0.21705 0.13088 0.0
H260 H 0.41446 0.2939 0.97233 0.0
H261 H 0.42728 0.32434 0.89749 0.0
H262 H 0.4987 0.30374 0.9278 0.0
H263 H 0.48574 0.27297 1.00456 0.0
H264 H 0.39528 0.30944 0.12644 0.0
H265 H 0.38581 0.33773 0.21092 0.0
H266 H 0.39477 0.28543 0.36255 0.0
H267 H 0.40543 0.25711 0.27721 0.0
N268 N 0.42444 0.24614 0.16365 0.0
N269 N 0.44936 0.2461 0.07041 0.0
N270 N 0.42458 0.27788 0.09225 0.0
C271 C 0.4406 0.23513 0.12539 0.0
C272 C 0.44083 0.26753 0.05314 0.0
C273 C 0.41641 0.26754 0.14764 0.0
C274 C 0.44837 0.21166 0.14697 0.0
C275 C 0.4318 0.19645 0.17418 0.0
C276 C 0.43861 0.17612 0.20667 0.0
C277 C 0.46228 0.17045 0.21369 0.0
C278 C 0.47893 0.18519 0.18417 0.0
C279 C 0.47202 0.20553 0.15061 0.0
C280 C 0.44908 0.28106 0.99485 0.0
C281 C 0.43291 0.29542 0.96207 0.0
C282 C 0.44024 0.313 0.91941 0.0
C283 C 0.464 0.31675 0.90773 0.0
C284 C 0.48025 0.30126 0.93605 0.0
C285 C 0.47284 0.28355 0.97955 0.0
C286 C 0.4023 0.28134 0.1953 0.0
C287 C 0.39461 0.30368 0.17757 0.0
Tb288 Tb 0.03535 1.00535 0.68366 0.0
C289 C 0.94156 0.99581 0.53733 0.0
C290 C 0.94772 0.97368 0.43651 0.0
C291 C 0.90996 0.97275 0.49062 0.0
C292 C 0.95619 0.98828 0.48769 0.0
C293 C 0.91817 0.98838 0.53924 0.0
C294 C 0.92468 0.96556 0.43896 0.0
C295 C 0.91223 0.0141 0.633 0.0
N296 N 0.95005 0.01131 0.58214 0.0
C297 C 0.93544 0.02123 0.62821 0.0
C298 C 0.90361 0.99739 0.58877 0.0
Tb299 Tb 0.9888 0.02094 0.57306 0.0
N300 N 0.97837 0.99637 0.48751 0.0
C301 C 0.99264 0.99139 0.43494 0.0
C302 C 0.96237 0.9684 0.38323 0.0
C303 C 0.98492 0.97734 0.38237 0.0
H304 H 0.94184 0.03402 0.66322 0.0
H305 H 0.99633 0.97364 0.34089 0.0
H306 H 0.91796 0.95408 0.40051 0.0
H307 H 0.90104 0.02148 0.67089 0.0
H308 H 0.01003 0.99815 0.4326 0.0
H309 H 0.02675 0.05261 0.91568 0.0
H310 H 0.9562 0.95805 0.3417 0.0
H311 H 0.08261 0.99261 0.5946 0.0
H312 H 0.01344 0.02823 0.82333 0.0
H313 H 0.12342 1.00525 0.58826 0.0
H314 H 0.8921 0.9667 0.4914 0.0
H315 H 0.06695 0.06799 0.91675 0.0
H316 H 0.10543 0.07205 0.85927 0.0
H317 H 0.88559 0.992 0.59227 0.0
H318 H 0.13164 0.05964 0.76898 0.0
N319 N 0.04538 0.0299 0.7697 0.0
C320 C 0.03087 0.0349 0.82172 0.0
C321 C 0.06095 0.05773 0.87484 0.0
C322 C 0.07582 0.05251 0.82203 0.0
C323 C 0.03836 0.04887 0.87468 0.0
C324 C 0.06756 0.03799 0.77037 0.0
H325 H 0.13855 0.03459 0.66784 0.0
N326 N 0.07408 0.01517 0.67575 0.0
C327 C 0.11207 0.01254 0.62594 0.0
C328 C 0.08237 0.03059 0.72105 0.0
C329 C 0.08886 1.00535 0.62996 0.0
C330 C 0.12052 0.02917 0.6707 0.0
C331 C 0.10576 0.03805 0.71996 0.0
O332 O 0.05467 0.97509 0.70275 0.0
O333 O 0.0106 0.99335 0.60935 0.0
O334 O 0.97517 0.9969 0.64766 0.0
O335 O 1.00086 1.00525 0.73366 0.0
O336 O 0.04284 0.97908 0.6063 0.0
O337 O 0.02716 0.98588 0.76885 0.0
O338 O 0.96965 0.05131 0.55406 0.0
O339 O 0.01365 0.03292 0.64705 0.0
O340 O 0.04904 0.02914 0.60838 0.0
O341 O 0.02318 0.02089 0.52266 0.0
O342 O 0.98153 0.04734 0.65038 0.0
O343 O 0.99673 0.04009 0.48712 0.0
C344 C 0.02271 0.97829 0.57896 0.0
C345 C 0.02838 0.9461 0.73664 0.0
C346 C 0.99328 0.92225 0.74061 0.0
C347 C 1.00586 0.94194 0.76153 0.0
C348 C 1.00342 0.90648 0.69567 0.0
C349 C 0.03847 0.92966 0.69322 0.0
C350 C 0.02602 0.91006 0.67286 0.0
C351 C 0.98026 0.99791 0.71179 0.0
C352 C 0.04023 0.9686 0.74893 0.0
C353 C 0.11378 0.05357 0.76911 0.0
C354 C 0.09887 0.06064 0.82045 0.0
C355 C 1.0017 0.04808 0.67752 0.0
C356 C 0.99601 0.07996 0.51836 0.0
C357 C 0.01848 0.0838 0.49266 0.0
C358 C 0.03132 0.10343 0.5126 0.0
C359 C 0.0215 0.11948 0.55733 0.0
C360 C 0.98624 0.09666 0.5616 0.0
C361 C 0.99896 0.11621 0.58096 0.0
C362 C 0.04387 0.02805 0.54429 0.0
C363 C 0.98391 0.05753 0.50713 0.0
H364 H 0.99791 0.95409 0.79617 0.0
H365 H 0.99415 0.89093 0.68027 0.0
H366 H 0.05581 0.93224 0.67347 0.0
H367 H 0.034 0.89761 0.63945 0.0
H368 H 0.02619 0.07144 0.45819 0.0
H369 H 0.03098 0.135 0.57195 0.0
H370 H 0.96896 0.09432 0.58196 0.0
H371 H 0.99123 0.12886 0.61424 0.0
Tb372 Tb 0.52081 0.03312 0.67106 0.0
C373 C 0.52881 0.93778 0.53002 0.0
C374 C 0.55089 0.9446 0.43051 0.0
C375 C 0.55252 0.90668 0.48304 0.0
C376 C 0.53633 0.95275 0.48204 0.0
C377 C 0.53627 0.91435 0.53045 0.0
C378 C 0.55964 0.92175 0.43256 0.0
C379 C 0.50792 0.90695 0.61591 0.0
N380 N 0.51223 0.94563 0.5721 0.0
C381 C 0.50066 0.93016 0.61173 0.0
C382 C 0.52617 0.89909 0.57594 0.0
Tb383 Tb 0.50287 0.98465 0.56875 0.0
N384 N 0.52734 0.97459 0.482 0.0
C385 C 0.53128 0.9887 0.42854 0.0
C386 C 0.55505 0.95914 0.37658 0.0
C387 C 0.54527 0.98132 0.37569 0.0
H388 H 0.48603 0.93582 0.64121 0.0
H389 H 0.54819 0.99266 0.33375 0.0
H390 H 0.57122 0.91534 0.39409 0.0
H391 H 0.49923 0.89509 0.64927 0.0
H392 H 0.5237 1.00569 0.42516 0.0
H393 H 0.47984 0.02422 0.91199 0.0
H394 H 0.56498 0.95308 0.33421 0.0
H395 H 0.5283 0.07985 0.57676 0.0
H396 H 0.50222 0.01091 0.81633 0.0
H397 H 0.51297 0.11995 0.57026 0.0
H398 H 0.55869 0.88884 0.48289 0.0
H399 H 0.46285 0.06372 0.91383 0.0
H400 H 0.45462 0.10103 0.85417 0.0
H401 H 0.5315 0.881 0.57819 0.0
H402 H 0.46275 0.12677 0.75969 0.0
N403 N 0.49765 0.04227 0.76064 0.0
C404 C 0.49477 0.02808 0.81452 0.0
C405 C 0.47209 0.05771 0.87013 0.0
C406 C 0.47484 0.07214 0.81514 0.0
C407 C 0.48193 0.03554 0.8696 0.0
C408 C 0.48829 0.06401 0.76115 0.0
H409 H 0.48458 0.13403 0.65369 0.0
N410 N 0.50781 0.07081 0.66101 0.0
C411 C 0.5072 0.10851 0.60946 0.0
C412 C 0.49326 0.07866 0.70905 0.0
C413 C 0.51586 0.0858 0.6134 0.0
C414 C 0.49112 0.11635 0.65646 0.0
C415 C 0.48441 0.10159 0.70806 0.0
O416 O 0.54956 0.05557 0.6745 0.0
O417 O 0.53182 1.00569 0.60263 0.0
O418 O 0.52283 0.96946 0.65077 0.0
O419 O 0.52521 1.00032 0.72749 0.0
O420 O 0.54516 0.03816 0.58841 0.0
O421 O 0.54248 0.03195 0.75526 0.0
O422 O 0.47166 0.9663 0.55394 0.0
O423 O 0.49276 0.01073 0.6414 0.0
O424 O 0.49484 0.04498 0.59914 0.0
O425 O 0.50269 0.01838 0.51558 0.0
O426 O 0.4781 0.97877 0.65019 0.0
O427 O 0.48201 0.99283 0.48574 0.0
C428 C 0.54611 0.01702 0.56775 0.0
C429 C 0.58196 0.04015 0.72893 0.0
C430 C 0.61277 0.0113 0.73887 0.0
C431 C 0.58906 0.01682 0.734 0.0
C432 C 0.62942 0.02909 0.73317 0.0
C433 C 0.59878 0.05774 0.7234 0.0
C434 C 0.62241 0.05215 0.72452 0.0
C435 C 0.52684 0.97788 0.7113 0.0
C436 C 0.55723 0.04668 0.72955 0.0
C437 C 0.46987 0.10929 0.75975 0.0
C438 C 0.46526 0.09464 0.81353 0.0
C439 C 0.47838 0.9993 0.67569 0.0
C440 C 0.44249 0.99237 0.5198 0.0
C441 C 0.43847 0.01508 0.49608 0.0
C442 C 0.41853 0.02746 0.51576 0.0
C443 C 0.4023 0.01688 0.55789 0.0
C444 C 0.42572 0.98193 0.56083 0.0
C445 C 0.40579 0.99413 0.57957 0.0
C446 C 0.49539 0.03918 0.53559 0.0
C447 C 0.46482 0.98025 0.50731 0.0
H448 H 0.57623 1.00315 0.73657 0.0
H449 H 0.64783 0.02516 0.7366 0.0
H450 H 0.5936 0.0758 0.71849 0.0
H451 H 0.63532 0.06578 0.72037 0.0
H452 H 0.45086 0.02328 0.46311 0.0
H453 H 0.38652 0.02597 0.572 0.0
H454 H 0.42819 0.96443 0.57942 0.0
H455 H 0.39296 0.98583 0.6107 0.0
Tb456 Tb 0.53221 0.49987 0.57542 0.0
C457 C 0.43538 0.49128 0.69559 0.0
C458 C 0.40724 0.50585 0.61662 0.0
C459 C 0.39585 0.4762 0.69582 0.0
C460 C 0.4301 0.50529 0.64215 0.0
C461 C 0.41831 0.47667 0.72345 0.0
C462 C 0.39027 0.49091 0.64282 0.0
C463 C 0.44624 0.46579 0.80755 0.0
N464 N 0.45715 0.49254 0.72163 0.0
C465 C 0.46245 0.48081 0.77885 0.0
C466 C 0.42414 0.46349 0.77931 0.0
Tb467 Tb 0.48232 0.51775 0.67038 0.0
N468 N 0.44704 0.51925 0.61745 0.0
C469 C 0.44177 0.53531 0.56973 0.0
C470 C 0.40192 0.52197 0.56712 0.0
C471 C 0.41921 0.53694 0.54412 0.0
H472 H 0.47946 0.48235 0.80125 0.0
H473 H 0.41516 0.54993 0.50722 0.0
H474 H 0.37269 0.49089 0.62323 0.0
H475 H 0.45076 0.45611 0.85168 0.0
H476 H 0.45492 0.5471 0.55162 0.0
H477 H 0.59003 0.44945 0.73444 0.0
H478 H 0.38439 0.52335 0.54774 0.0
H479 H 0.54851 0.53187 0.44773 0.0
H480 H 0.55429 0.45742 0.67594 0.0
H481 H 0.58172 0.55689 0.41661 0.0
H482 H 0.38251 0.46501 0.71626 0.0
H483 H 0.62417 0.47467 0.71933 0.0
H484 H 0.64193 0.50984 0.66683 0.0
H485 H 0.41156 0.45197 0.80198 0.0
H486 H 0.63932 0.54026 0.58181 0.0
N487 N 0.56536 0.49015 0.63532 0.0
C488 C 0.5677 0.47032 0.67265 0.0
C489 C 0.60774 0.47951 0.69691 0.0
C490 C 0.60598 0.49894 0.65598 0.0
C491 C 0.58855 0.46512 0.70508 0.0
C492 C 0.58449 0.50354 0.62439 0.0
H493 H 0.61696 0.55784 0.48736 0.0
N494 N 0.56344 0.52144 0.53965 0.0
C495 C 0.5823 0.54697 0.46214 0.0
C496 C 0.58328 0.52016 0.57561 0.0
C497 C 0.56341 0.53309 0.48038 0.0
C498 C 0.60211 0.5475 0.50226 0.0
C499 C 0.60318 0.53319 0.55816 0.0
O500 O 0.54867 0.48674 0.48967 0.0
O501 O 0.49464 0.50351 0.57683 0.0
O502 O 0.48065 0.48009 0.6549 0.0
O503 O 0.52031 0.47378 0.64896 0.0
O504 O 0.51105 0.51126 0.49026 0.0
O505 O 0.52592 0.46517 0.54615 0.0
O506 O 0.47819 0.53192 0.76624 0.0
O507 O 0.52021 0.5169 0.66447 0.0
O508 O 0.53085 0.53831 0.57223 0.0
O509 O 0.49325 0.54744 0.60867 0.0
O510 O 0.50577 0.51111 0.75494 0.0
O511 O 0.46581 0.55015 0.67939 0.0
C512 C 0.49087 0.50947 0.51727 0.0
C513 C 0.52335 0.46207 0.42949 0.0
C514 C 0.49072 0.44205 0.37667 0.0
C515 C 0.50482 0.4462 0.43245 0.0
C516 C 0.49557 0.45378 0.3171 0.0
C517 C 0.52802 0.47349 0.36934 0.0
C518 C 0.51413 0.46936 0.31361 0.0
C519 C 0.49894 0.46645 0.66242 0.0
C520 C 0.53677 0.46758 0.49015 0.0
C521 C 0.62395 0.53023 0.59389 0.0
C522 C 0.62542 0.51291 0.64229 0.0
C523 C 0.52525 0.51294 0.72441 0.0
C524 C 0.47725 0.57304 0.76971 0.0
C525 C 0.50119 0.57748 0.77706 0.0
C526 C 0.50861 0.59909 0.80215 0.0
C527 C 0.492 0.6163 0.81796 0.0
C528 C 0.46095 0.59033 0.78583 0.0
C529 C 0.46833 0.61192 0.80965 0.0
C530 C 0.51335 0.55318 0.58091 0.0
C531 C 0.46865 0.5509 0.74345 0.0
H532 H 0.5014 0.43699 0.47828 0.0
H533 H 0.48494 0.45104 0.27326 0.0
H534 H 0.54217 0.48586 0.36552 0.0
H535 H 0.51768 0.47836 0.26765 0.0
H536 H 0.51386 0.56419 0.76424 0.0
H537 H 0.4974 0.6332 0.83666 0.0
H538 H 0.44247 0.58714 0.77967 0.0
H539 H 0.45569 0.62526 0.82185 0.0
Tb540 Tb 0.01851 0.54107 0.56225 0.0
C541 C 0.02953 0.44318 0.68105 0.0
C542 C 0.01025 0.41548 0.60867 0.0
C543 C 0.04198 0.40264 0.67935 0.0
C544 C 0.01305 0.43848 0.63269 0.0
C545 C 0.04399 0.42525 0.70555 0.0
C546 C 0.025 0.39771 0.63143 0.0
C547 C 0.05941 0.45255 0.78582 0.0
N548 N 0.0305 0.46502 0.70685 0.0
C549 C 0.04447 0.46961 0.76086 0.0
C550 C 0.05942 0.43035 0.75743 0.0
Tb551 Tb 1.00508 0.49171 0.66243 0.0
N552 N 0.99917 0.45616 0.61114 0.0
C553 C 0.98163 0.45144 0.56683 0.0
C554 C 0.99234 0.41082 0.56367 0.0
C555 C 0.97803 0.42888 0.54256 0.0
H556 H 0.04466 0.48667 0.78366 0.0
H557 H 0.96406 0.42544 0.5077 0.0
H558 H 0.02322 0.38004 0.61284 0.0
H559 H 0.07082 0.45652 0.82717 0.0
H560 H 0.97024 0.46467 0.54868 0.0
H561 H 0.048 0.61238 0.71649 0.0
H562 H 0.98918 0.39328 0.54592 0.0
H563 H 0.9825 0.54038 0.43165 0.0
H564 H 0.04736 0.57203 0.67544 0.0
H565 H 0.9549 0.56707 0.37799 0.0
H566 H 0.05301 0.38869 0.69724 0.0
H567 H 0.01917 0.64096 0.67491 0.0
H568 H 0.98563 0.6498 0.59944 0.0
H569 H 0.07087 0.41709 0.77731 0.0
H570 H 0.96013 0.63738 0.5074 0.0
N571 N 0.01833 0.57725 0.61105 0.0
C572 C 0.03458 0.58416 0.6569 0.0
C573 C 0.01872 0.62313 0.65714 0.0
C574 C 1.00257 0.61621 0.60895 0.0
C575 C 0.03498 0.60709 0.68062 0.0
C576 C 1.00317 0.59301 0.58562 0.0
H577 H 0.9488 0.60667 0.42381 0.0
N578 N 0.99173 0.56425 0.50914 0.0
C579 C 0.96443 0.57269 0.42167 0.0
C580 C 0.98928 0.58625 0.53308 0.0
C581 C 0.98021 0.5576 0.45234 0.0
C582 C 0.96097 0.59499 0.4478 0.0
C583 C 0.97376 0.60218 0.50348 0.0
O584 O 0.03154 0.546 0.46602 0.0
O585 O 0.01914 0.50331 0.56985 0.0
O586 O 0.04299 0.49308 0.6472 0.0
O587 O 0.04851 0.53244 0.62742 0.0
O588 O 0.01268 0.51652 0.47895 0.0
O589 O 0.05108 0.55717 0.55225 0.0
O590 O 0.99494 0.47495 0.75018 0.0
O591 O 1.00594 0.52952 0.65799 0.0
O592 O 0.98075 0.54023 0.5778 0.0
O593 O 0.97597 0.50045 0.59355 0.0
O594 O 0.01637 0.51473 0.74421 0.0
O595 O 0.9704 0.49525 0.69511 0.0
C596 C 0.015 0.49738 0.51053 0.0
C597 C 0.07232 0.54609 0.45832 0.0
C598 C 0.09787 0.51413 0.42685 0.0
C599 C 0.07726 0.52211 0.45671 0.0
C600 C 0.11363 0.53044 0.40052 0.0
C601 C 0.08809 0.56203 0.43152 0.0
C602 C 0.10873 0.55421 0.4029 0.0
C603 C 0.05639 0.51185 0.64708 0.0
C604 C 0.05091 0.55502 0.4879 0.0
C605 C 0.97206 0.62493 0.5291 0.0
C606 C 0.98655 0.63198 0.58154 0.0
C607 C 0.01261 0.5344 0.71645 0.0
C608 C 0.96989 0.49912 0.81233 0.0
C609 C 0.95319 0.51699 0.81097 0.0
C610 C 0.94953 0.53123 0.86697 0.0
C611 C 0.96282 0.52744 0.92466 0.0
C612 C 0.98278 0.49545 0.87088 0.0
C613 C 0.97931 0.50963 0.92646 0.0
C614 C 0.96769 0.52121 0.57568 0.0
C615 C 0.97493 0.48539 0.75167 0.0
H616 H 0.06503 0.5098 0.47758 0.0
H617 H 0.12992 0.52482 0.37855 0.0
H618 H 0.08445 0.58056 0.43289 0.0
H619 H 0.12097 0.56658 0.38254 0.0
H620 H 0.94288 0.5197 0.76651 0.0
H621 H 0.96046 0.53824 0.96847 0.0
H622 H 0.99583 0.48184 0.87352 0.0
H623 H 0.98946 0.50684 0.97107 0.0
C624 C 0.13804 0.06273 0.26538 0.0
C625 C 0.15791 0.04841 0.26802 0.0
C626 C 0.11921 0.05959 0.30916 0.0
C627 C 0.12004 0.0417 0.35723 0.0
C628 C 0.13975 0.02682 0.35928 0.0
C629 C 0.15839 0.03033 0.31483 0.0
C630 C 0.0985 0.07569 0.30472 0.0
C631 C 0.14129 0.00735 0.40915 0.0
C632 C 0.0816 0.047 0.51191 0.0
C633 C 0.06268 0.03267 0.49523 0.0
C634 C 0.10033 0.05011 0.46769 0.0
C635 C 0.10025 0.03858 0.40508 0.0
C636 C 0.08106 0.02425 0.38788 0.0
C637 C 0.06253 0.02158 0.43289 0.0
C638 C 0.12027 0.06564 0.48825 0.0
C639 C 0.08028 0.01133 0.32233 0.0
H640 H 0.13721 0.07654 0.22901 0.0
H641 H 0.17366 0.01931 0.31811 0.0
H642 H 0.08233 0.06551 0.2967 0.0
H643 H 0.0965 0.08521 0.35244 0.0
H644 H 0.1002 0.08849 0.2639 0.0
H645 H 0.15734 0.99676 0.40295 0.0
H646 H 0.14104 0.01466 0.46032 0.0
H647 H 0.12596 0.99572 0.40421 0.0
H648 H 0.08185 0.05571 0.55988 0.0
H649 H 0.04823 0.01018 0.41984 0.0
H650 H 0.12188 0.08019 0.45266 0.0
H651 H 0.13685 0.05576 0.48686 0.0
H652 H 0.11793 0.073 0.53899 0.0
H653 H 0.08142 0.02381 0.28062 0.0
H654 H 0.06413 1.00088 0.31634 0.0
H655 H 0.09549 0.99947 0.31832 0.0
C656 C 0.48714 0.15202 0.30253 0.0
C657 C 0.4692 0.15004 0.25534 0.0
C658 C 0.49211 0.13377 0.34691 0.0
C659 C 0.47885 0.11297 0.34424 0.0
C660 C 0.46125 0.11058 0.2953 0.0
C661 C 0.45664 0.12907 0.25164 0.0
C662 C 0.51116 0.137 0.39791 0.0
C663 C 0.4471 0.08852 0.28947 0.0
C664 C 0.50202 0.0575 0.42447 0.0
C665 C 0.49025 0.05736 0.48547 0.0
C666 C 0.49864 0.0755 0.37836 0.0
C667 C 0.483 0.09387 0.39335 0.0
C668 C 0.47104 0.09378 0.45498 0.0
C669 C 0.47472 0.07551 0.50007 0.0
C670 C 0.51223 0.07512 0.3142 0.0
C671 C 0.4541 0.11282 0.47308 0.0
H672 H 0.49679 0.16819 0.30641 0.0
H673 H 0.44297 0.12719 0.21481 0.0
H674 H 0.50347 0.13736 0.44845 0.0
H675 H 0.52348 0.12212 0.39598 0.0
H676 H 0.52104 0.15339 0.3904 0.0
H677 H 0.43261 0.09018 0.25318 0.0
H678 H 0.45847 0.07392 0.27339 0.0
H679 H 0.43982 0.08383 0.33856 0.0
H680 H 0.51451 0.04392 0.41345 0.0
H681 H 0.46552 0.07549 0.54711 0.0
H682 H 0.52309 0.09104 0.31071 0.0
H683 H 0.50014 0.07518 0.27118 0.0
H684 H 0.52374 0.05962 0.31003 0.0
H685 H 0.46197 0.13022 0.46534 0.0
H686 H 0.44816 0.11162 0.52545 0.0
H687 H 0.43877 0.11144 0.43996 0.0
C688 C 0.38972 0.46825 0.26282 0.0
C689 C 0.37021 0.48302 0.26331 0.0
C690 C 0.40953 0.47299 0.30201 0.0
C691 C 0.41001 0.49284 0.3445 0.0
C692 C 0.39068 0.50835 0.34301 0.0
C693 C 0.37112 0.5032 0.30293 0.0
C694 C 0.42954 0.4561 0.29823 0.0
C695 C 0.3898 0.53006 0.38533 0.0
C696 C 0.45232 0.4892 0.49288 0.0
C697 C 0.46958 0.50538 0.47562 0.0
C698 C 0.43254 0.48555 0.45199 0.0
C699 C 0.43056 0.49721 0.39013 0.0
C700 C 0.44875 0.51238 0.37075 0.0
C701 C 0.46771 0.51652 0.41391 0.0
C702 C 0.41361 0.46941 0.47528 0.0
C703 C 0.44841 0.52396 0.30367 0.0
H704 H 0.38954 0.45276 0.23173 0.0
H705 H 0.35615 0.5147 0.30453 0.0
H706 H 0.4462 0.46403 0.31415 0.0
H707 H 0.42561 0.44112 0.33075 0.0
H708 H 0.43162 0.44916 0.24691 0.0
H709 H 0.37967 0.544 0.36033 0.0
H710 H 0.38072 0.52593 0.43227 0.0
H711 H 0.40731 0.53694 0.39721 0.0
H712 H 0.45413 0.47956 0.5387 0.0
H713 H 0.48135 0.52841 0.39887 0.0
H714 H 0.41191 0.45451 0.4403 0.0
H715 H 0.39667 0.47873 0.47558 0.0
H716 H 0.41706 0.46259 0.52587 0.0
H717 H 0.44664 0.51055 0.26397 0.0
H718 H 0.46443 0.53425 0.29434 0.0
H719 H 0.43314 0.53573 0.29998 0.0
C720 C 0.05722 0.39296 0.27082 0.0
C721 C 0.04251 0.37335 0.27052 0.0
C722 C 0.05274 0.41253 0.31189 0.0
C723 C 0.03316 0.41265 0.35492 0.0
C724 C 0.01814 0.39297 0.35417 0.0
C725 C 0.02303 0.37372 0.31252 0.0
C726 C 0.06868 0.43337 0.30789 0.0
C727 C 0.99705 0.39141 0.39824 0.0
C728 C 0.03479 0.45789 0.49741 0.0
C729 C 0.01872 0.47461 0.4755 0.0
C730 C 0.03892 0.43722 0.46037 0.0
C731 C 0.02792 0.43379 0.39769 0.0
C732 C 0.01216 0.45099 0.37487 0.0
C733 C 0.00761 0.4709 0.41413 0.0
C734 C 0.05495 0.41898 0.48852 0.0
C735 C 1.00016 0.44848 0.30844 0.0
H736 H 0.07218 0.39317 0.23812 0.0
H737 H 0.01172 0.35863 0.31412 0.0
H738 H 0.05852 0.449 0.29344 0.0
H739 H 0.07647 0.43707 0.35723 0.0
H740 H 0.08297 0.43076 0.27149 0.0
H741 H 0.98245 0.38277 0.37153 0.0
H742 H 1.00151 0.38036 0.44141 0.0
H743 H 0.99096 0.40859 0.41639 0.0
H744 H 0.04421 0.46099 0.54327 0.0
H745 H 0.99551 0.48392 0.39606 0.0
H746 H 0.07115 0.41816 0.45884 0.0
H747 H 0.0466 0.40157 0.48566 0.0
H748 H 0.05965 0.42272 0.54105 0.0
H749 H 0.01326 0.44569 0.26867 0.0
H750 H 0.9895 0.46399 0.29585 0.0
H751 H 0.98864 0.43298 0.30894 0.0
C752 C 0.8859 0.96017 0.98689 0.0
C753 C 0.86588 0.97427 0.9847 0.0
C754 C 0.9049 0.96403 0.9442 0.0
C755 C 0.90403 0.98237 0.89752 0.0
C756 C 0.88417 0.99706 0.89613 0.0
C757 C 0.8654 0.99287 0.93964 0.0
C758 C 0.92579 0.94816 0.94805 0.0
C759 C 0.88257 0.01698 0.84774 0.0
C760 C 0.96151 1.00344 0.82357 0.0
C761 C 0.96147 0.99282 0.76056 0.0
C762 C 0.94294 1.00033 0.86826 0.0
C763 C 0.92385 0.98601 0.85005 0.0
C764 C 0.9239 0.97495 0.78677 0.0
C765 C 0.94265 0.97848 0.74294 0.0
C766 C 0.94358 0.01275 0.93459 0.0
C767 C 0.90407 0.95946 0.76508 0.0
H768 H 0.88668 0.94594 0.02194 0.0
H769 H 0.85 1.00373 0.9368 0.0
H770 H 0.92793 0.93895 0.8999 0.0
H771 H 0.94185 0.95846 0.95667 0.0
H772 H 0.92421 0.9351 0.98825 0.0
H773 H 0.86649 0.02747 0.85477 0.0
H774 H 0.89788 0.0286 0.85347 0.0
H775 H 0.88281 0.01013 0.79607 0.0
H776 H 0.97574 0.0148 0.83743 0.0
H777 H 0.9425 0.97011 0.69448 0.0
H778 H 0.94242 0.99996 0.97551 0.0
H779 H 0.92832 0.02452 0.93913 0.0
H780 H 0.95969 0.0232 0.94141 0.0
H781 H 0.9025 0.94464 0.79976 0.0
H782 H 0.90651 0.95249 0.71394 0.0
H783 H 0.88743 0.96924 0.76691 0.0
C784 C 0.55921 0.86589 0.91904 0.0
C785 C 0.55085 0.865 0.98467 0.0
C786 C 0.55613 0.88572 0.87937 0.0
C787 C 0.54448 0.90548 0.90566 0.0
C788 C 0.53682 0.90515 0.97262 0.0
C789 C 0.54008 0.88496 0.0113 0.0
C790 C 0.56445 0.8849 0.80819 0.0
C791 C 0.52464 0.92595 1.00275 0.0
C792 C 0.54995 0.96239 0.80843 0.0
C793 C 0.5309 0.96073 0.76513 0.0
C794 C 0.55433 0.94505 0.8562 0.0
C795 C 0.53904 0.9257 0.86143 0.0
C796 C 0.51892 0.92491 0.82069 0.0
C797 C 0.51509 0.94247 0.77366 0.0
C798 C 0.57554 0.94789 0.89976 0.0
C799 C 0.5015 0.90534 0.82611 0.0
H800 H 0.56809 0.8509 0.89809 0.0
H801 H 0.53354 0.88459 0.06175 0.0
H802 H 0.54987 0.87923 0.7757 0.0
H803 H 0.57032 0.90222 0.79076 0.0
H804 H 0.57894 0.87225 0.8017 0.0
H805 H 0.52 0.92318 0.05568 0.0
H806 H 0.53602 0.94152 0.99936 0.0
H807 H 0.50851 0.92976 0.97438 0.0
H808 H 0.56177 0.97691 0.80452 0.0
H809 H 0.49939 0.9421 0.74419 0.0
H810 H 0.57852 0.93308 0.93376 0.0
H811 H 0.57365 0.96401 0.93006 0.0
H812 H 0.59118 0.95026 0.8682 0.0
H813 H 0.50967 0.88874 0.80989 0.0
H814 H 0.48577 0.90835 0.7951 0.0
H815 H 0.49602 0.9032 0.87858 0.0
C816 C 0.64594 0.52409 0.93253 0.0
C817 C 0.64455 0.543 0.97678 0.0
C818 C 0.62759 0.51869 0.88854 0.0
C819 C 0.60704 0.53244 0.8882 0.0
C820 C 0.60541 0.55147 0.93336 0.0
C821 C 0.62416 0.5566 0.97658 0.0
C822 C 0.6308 0.49878 0.84057 0.0
C823 C 0.58369 0.56624 0.93666 0.0
C824 C 0.56424 0.53277 0.74082 0.0
C825 C 0.54768 0.51628 0.76058 0.0
C826 C 0.58413 0.53747 0.78025 0.0
C827 C 0.58694 0.52642 0.84277 0.0
C828 C 0.57005 0.50995 0.86296 0.0
C829 C 0.55086 0.50499 0.82158 0.0
C830 C 0.60199 0.55449 0.75537 0.0
C831 C 0.57191 0.49794 0.92925 0.0
H832 H 0.66176 0.51379 0.93092 0.0
H833 H 0.62278 0.5712 0.01077 0.0
H834 H 0.61476 0.48815 0.83652 0.0
H835 H 0.63472 0.50614 0.79109 0.0
H836 H 0.64545 0.48721 0.85502 0.0
H837 H 0.58505 0.5804 0.97434 0.0
H838 H 0.5802 0.57414 0.88753 0.0
H839 H 0.56849 0.55516 0.94893 0.0
H840 H 0.56148 0.54222 0.69502 0.0
H841 H 0.53787 0.49258 0.83786 0.0
H842 H 0.6197 0.54688 0.75918 0.0
H843 H 0.60169 0.57037 0.78682 0.0
H844 H 0.59874 0.55954 0.70299 0.0
H845 H 0.58838 0.48788 0.93184 0.0
H846 H 0.55715 0.48588 0.93828 0.0
H847 H 0.57237 0.51112 0.96983 0.0
C848 C 0.97331 0.63452 0.97825 0.0
C849 C 0.9875 0.65445 0.9761 0.0
C850 C 0.97725 0.61515 0.93621 0.0
C851 C 0.99569 0.61553 0.88925 0.0
C852 C 0.01038 0.63545 0.88792 0.0
C853 C 1.00609 0.65454 0.9309 0.0
C854 C 0.96113 0.59458 0.94213 0.0
C855 C 0.03021 0.6373 0.83938 0.0
C856 C 0.02057 0.55864 0.81747 0.0
C857 C 0.00834 0.55589 0.75744 0.0
C858 C 0.01639 0.5776 0.86073 0.0
C859 C 0.99997 0.59497 0.84324 0.0
C860 C 0.98726 0.59215 0.783 0.0
C861 C 0.99109 0.57236 0.74188 0.0
C862 C 0.02925 0.57877 0.92612 0.0
C863 C 0.96975 0.61019 0.76175 0.0
H864 H 0.959 0.63395 0.01325 0.0
H865 H 0.01698 0.66989 0.92759 0.0
H866 H 0.94555 0.59776 0.91091 0.0
H867 H 0.96945 0.57812 0.92569 0.0
H868 H 0.95504 0.59245 0.99411 0.0
H869 H 0.04325 0.65044 0.85561 0.0
H870 H 0.03918 0.62039 0.83222 0.0
H871 H 0.02308 0.64288 0.79091 0.0
H872 H 0.03338 0.54563 0.83121 0.0
H873 H 0.98075 0.56989 0.69734 0.0
H874 H 0.01657 0.57978 0.96762 0.0
H875 H 0.04008 0.59474 0.92837 0.0
H876 H 0.0407 0.56342 0.93388 0.0
H877 H 0.9557 0.61157 0.79927 0.0
H878 H 0.96186 0.60601 0.71266 0.0
H879 H 0.97828 0.6275 0.75895 0.0
C880 C 0.13319 0.16846 0.32449 0.0
C881 C 0.12297 0.19053 0.3323 0.0
C882 C 0.12552 0.14945 0.36227 0.0
C883 C 0.10694 0.15266 0.40764 0.0
C884 C 0.09892 0.1755 0.42194 0.0
C885 C 0.1072 0.19416 0.38448 0.0
C886 C 0.13582 0.12579 0.34812 0.0
C887 C 0.07926 0.17997 0.4703 0.0
C888 C 0.05421 0.11441 0.41393 0.0
C889 C 0.05383 0.10898 0.48146 0.0
C890 C 0.07302 0.12655 0.38681 0.0
C891 C 0.09206 0.1328 0.42816 0.0
C892 C 0.09315 0.12427 0.4939 0.0
C893 C 0.07369 0.11286 0.5205 0.0
C894 C 0.07125 0.13485 0.31592 0.0
C895 C 0.11398 0.12894 0.53762 0.0
H896 H 0.14586 0.16563 0.28537 0.0
H897 H 0.09919 0.21111 0.39121 0.0
H898 H 0.13189 0.11308 0.38771 0.0
H899 H 0.12888 0.11912 0.30021 0.0
H900 H 0.15501 0.12715 0.34265 0.0
H901 H 0.07647 0.19886 0.47976 0.0
H902 H 0.06287 0.17253 0.45002 0.0
H903 H 0.08278 0.17141 0.51846 0.0
H904 H 0.03885 0.11118 0.38387 0.0
H905 H 0.07346 0.10815 0.57261 0.0
H906 H 0.08769 0.13133 0.28888 0.0
H907 H 0.06832 0.15397 0.31563 0.0
H908 H 0.05673 0.12633 0.28854 0.0
H909 H 0.13034 0.12679 0.50889 0.0
H910 H 0.11439 0.11711 0.58108 0.0
H911 H 0.11339 0.14714 0.55631 0.0
C912 C 0.35892 0.13471 0.33467 0.0
C913 C 0.33624 0.12573 0.33767 0.0
C914 C 0.37672 0.12545 0.37459 0.0
C915 C 0.37164 0.10655 0.41709 0.0
C916 C 0.34818 0.09987 0.42702 0.0
C917 C 0.33075 0.10971 0.38757 0.0
C918 C 0.40121 0.13436 0.36673 0.0
C919 C 0.34177 0.08002 0.47246 0.0
C920 C 0.40758 0.05184 0.41986 0.0
C921 C 0.41298 0.05041 0.48737 0.0
C922 C 0.39596 0.07135 0.39469 0.0
C923 C 0.39023 0.0901 0.43802 0.0
C924 C 0.39827 0.08984 0.50455 0.0
C925 C 0.4092 0.06972 0.52888 0.0
C926 C 0.38754 0.07059 0.32352 0.0
C927 C 0.39379 0.1099 0.55153 0.0
H928 H 0.36311 0.14759 0.2974 0.0
H929 H 0.31329 0.10268 0.39065 0.0
H930 H 0.40851 0.13895 0.41616 0.0
H931 H 0.41234 0.12057 0.34477 0.0
H932 H 0.40204 0.14995 0.33442 0.0
H933 H 0.32264 0.07847 0.47923 0.0
H934 H 0.34833 0.06337 0.45123 0.0
H935 H 0.34991 0.08238 0.52198 0.0
H936 H 0.41055 0.03682 0.38801 0.0
H937 H 0.41376 0.06864 0.58102 0.0
H938 H 0.39099 0.08734 0.29834 0.0
H939 H 0.36843 0.0677 0.32279 0.0
H940 H 0.39597 0.05639 0.29449 0.0
H941 H 0.39327 0.12675 0.52486 0.0
H942 H 0.40739 0.11079 0.59079 0.0
H943 H 0.37678 0.10739 0.57642 0.0
C944 C 0.41368 0.33093 0.38742 0.0
C945 C 0.39476 0.33317 0.34353 0.0
C946 C 0.42534 0.35063 0.41166 0.0
C947 C 0.41786 0.37296 0.39138 0.0
C948 C 0.39633 0.37538 0.35786 0.0
C949 C 0.38485 0.35532 0.33465 0.0
C950 C 0.44788 0.34724 0.44912 0.0
C951 C 0.38727 0.39898 0.33759 0.0
C952 C 0.45686 0.42416 0.43649 0.0
C953 C 0.47137 0.42506 0.3804 0.0
C954 C 0.43886 0.40769 0.44066 0.0
C955 C 0.43536 0.39187 0.38743 0.0
C956 C 0.44978 0.39297 0.33038 0.0
C957 C 0.46763 0.40947 0.32778 0.0
C958 C 0.42365 0.40724 0.50171 0.0
C959 C 0.44676 0.37636 0.27237 0.0
H960 H 0.42142 0.314 0.39601 0.0
H961 H 0.36963 0.35719 0.30323 0.0
H962 H 0.46262 0.34804 0.41361 0.0
H963 H 0.4505 0.36112 0.48694 0.0
H964 H 0.44843 0.33005 0.4741 0.0
H965 H 0.36823 0.39851 0.32788 0.0
H966 H 0.39095 0.41233 0.37628 0.0
H967 H 0.3961 0.40446 0.29123 0.0
H968 H 0.45948 0.43643 0.47695 0.0
H969 H 0.47898 0.40986 0.28483 0.0
H970 H 0.42366 0.38961 0.52394 0.0
H971 H 0.40541 0.41127 0.48773 0.0
H972 H 0.42941 0.42002 0.53998 0.0
H973 H 0.44942 0.35816 0.28907 0.0
H974 H 0.45917 0.37991 0.23138 0.0
H975 H 0.42881 0.37765 0.25231 0.0
C976 C 0.16402 0.39686 0.36651 0.0
C977 C 0.18565 0.40812 0.37249 0.0
C978 C 0.14392 0.40675 0.3948 0.0
C979 C 0.14564 0.42854 0.42768 0.0
C980 C 0.16794 0.43729 0.44485 0.0
C981 C 0.18774 0.42678 0.41746 0.0
C982 C 0.12064 0.39554 0.38143 0.0
C983 C 0.17088 0.46011 0.48182 0.0
C984 C 0.11296 0.48009 0.36405 0.0
C985 C 0.10359 0.489 0.42301 0.0
C986 C 0.12457 0.45873 0.36305 0.0
C987 C 0.12629 0.44564 0.42248 0.0
C988 C 0.1136 0.45285 0.47932 0.0
C989 C 0.10255 0.47474 0.47931 0.0
C990 C 0.13712 0.4516 0.30007 0.0
C991 C 0.11315 0.43843 0.54164 0.0
H992 H 0.16238 0.38177 0.33419 0.0
H993 H 0.20438 0.43538 0.4239 0.0
H994 H 0.10753 0.40086 0.41899 0.0
H995 H 0.11422 0.40075 0.33169 0.0
H996 H 0.12226 0.37625 0.38133 0.0
H997 H 0.18926 0.46329 0.49649 0.0
H998 H 0.16512 0.4747 0.44974 0.0
H999 H 0.16007 0.46043 0.52727 0.0
H1000 H 0.11275 0.49072 0.3197 0.0
H1001 H 0.09465 0.4813 0.5246 0.0
H1002 H 0.1318 0.43384 0.2846 0.0
H1003 H 0.15621 0.45138 0.30882 0.0
H1004 H 0.13349 0.4636 0.25819 0.0
H1005 H 0.11439 0.41955 0.52995 0.0
H1006 H 0.097 0.44176 0.57046 0.0
H1007 H 0.12807 0.44321 0.57386 0.0
C1008 C 0.89173 0.85602 0.92587 0.0
C1009 C 0.90222 0.83408 0.91808 0.0
C1010 C 0.89908 0.87507 0.88778 0.0
C1011 C 0.91759 0.87203 0.84211 0.0
C1012 C 0.92569 0.84925 0.82743 0.0
C1013 C 0.91773 0.83054 0.86524 0.0
C1014 C 0.88861 0.89863 0.90218 0.0
C1015 C 0.94524 0.84494 0.77859 0.0
C1016 C 0.95099 0.91257 0.7315 0.0
C1017 C 0.97076 0.91632 0.77104 0.0
C1018 C 0.93153 0.90089 0.75721 0.0
C1019 C 0.93254 0.89196 0.82253 0.0
C1020 C 0.95152 0.898 0.86442 0.0
C1021 C 0.9703 0.91042 0.83822 0.0
C1022 C 0.91079 0.89644 0.713 0.0
C1023 C 0.9532 0.88926 0.93491 0.0
H1024 H 0.8792 0.85877 0.96541 0.0
H1025 H 0.9259 0.81367 0.85838 0.0
H1026 H 0.89261 0.91148 0.86304 0.0
H1027 H 0.86941 0.89714 0.90705 0.0
H1028 H 0.89532 0.90518 0.9505 0.0
H1029 H 0.9479 0.82608 0.76832 0.0
H1030 H 0.9417 0.85377 0.73085 0.0
H1031 H 0.9617 0.85217 0.79898 0.0
H1032 H 0.95128 0.91762 0.67966 0.0
H1033 H 0.9856 0.91353 0.86866 0.0
H1034 H 0.89438 0.89832 0.74164 0.0
H1035 H 0.91149 0.87838 0.69324 0.0
H1036 H 0.91039 0.90858 0.67023 0.0
H1037 H 0.93675 0.89265 0.96199 0.0
H1038 H 0.9677 0.8976 0.96283 0.0
H1039 H 0.95611 0.87014 0.93429 0.0
C1040 C 0.69269 0.91163 0.82624 0.0
C1041 C 0.68569 0.89961 0.88349 0.0
C1042 C 0.67624 0.92279 0.78595 0.0
C1043 C 0.65257 0.92255 0.80499 0.0
C1044 C 0.64514 0.90641 0.85328 0.0
C1045 C 0.66189 0.89461 0.89114 0.0
C1046 C 0.68467 0.93819 0.73052 0.0
C1047 C 0.61998 0.90424 0.87288 0.0
C1048 C 0.63327 0.98512 0.81624 0.0
C1049 C 0.62023 0.98768 0.75812 0.0
C1050 C 0.64226 0.96347 0.83437 0.0
C1051 C 0.63857 0.94388 0.79234 0.0
C1052 C 0.624 0.94602 0.7358 0.0
C1053 C 0.61482 0.96802 0.71948 0.0
C1054 C 0.65662 0.96192 0.89726 0.0
C1055 C 0.61886 0.92558 0.69074 0.0
H1056 H 0.71094 0.91504 0.81718 0.0
H1057 H 0.65618 0.88388 0.93211 0.0
H1058 H 0.67202 0.93829 0.68877 0.0
H1059 H 0.68646 0.95633 0.74939 0.0
H1060 H 0.7019 0.9324 0.71162 0.0
H1061 H 0.61557 0.88574 0.88265 0.0
H1062 H 0.6171 0.91413 0.91972 0.0
H1063 H 0.60814 0.91109 0.8342 0.0
H1064 H 0.63675 1.00028 0.84714 0.0
H1065 H 0.60419 0.97 0.67535 0.0
H1066 H 0.67513 0.95869 0.88445 0.0
H1067 H 0.65055 0.94724 0.92829 0.0
H1068 H 0.65571 0.97816 0.92752 0.0
H1069 H 0.63122 0.92577 0.64842 0.0
H1070 H 0.60096 0.92687 0.67016 0.0
H1071 H 0.62067 0.90867 0.71661 0.0
C1072 C 0.60012 0.68511 0.8522 0.0
C1073 C 0.61732 0.68086 0.90018 0.0
C1074 C 0.58896 0.66666 0.81945 0.0
C1075 C 0.59553 0.64347 0.83439 0.0
C1076 C 0.61594 0.63946 0.87217 0.0
C1077 C 0.6265 0.65827 0.90557 0.0
C1078 C 0.56749 0.67204 0.77874 0.0
C1079 C 0.62478 0.61518 0.88512 0.0
C1080 C 0.54011 0.61272 0.8762 0.0
C1081 C 0.53345 0.60415 0.81392 0.0
C1082 C 0.5617 0.62341 0.88535 0.0
C1083 C 0.57713 0.62532 0.83065 0.0
C1084 C 0.57169 0.61392 0.7699 0.0
C1085 C 0.54967 0.60351 0.76196 0.0
C1086 C 0.56683 0.63468 0.95192 0.0
C1087 C 0.58838 0.61411 0.71213 0.0
H1088 H 0.59305 0.7025 0.84671 0.0
H1089 H 0.64041 0.65492 0.9407 0.0
H1090 H 0.567 0.66139 0.73272 0.0
H1091 H 0.55171 0.66783 0.80809 0.0
H1092 H 0.5666 0.69071 0.7647 0.0
H1093 H 0.64411 0.61503 0.88685 0.0
H1094 H 0.61848 0.60927 0.93426 0.0
H1095 H 0.6188 0.60263 0.84665 0.0
H1096 H 0.52769 0.6125 0.91672 0.0
H1097 H 0.5446 0.59639 0.71405 0.0
H1098 H 0.56803 0.65387 0.94631 0.0
H1099 H 0.58373 0.62842 0.97146 0.0
H1100 H 0.55321 0.63089 0.98946 0.0
H1101 H 0.58757 0.63114 0.68667 0.0
H1102 H 0.58407 0.60033 0.6751 0.0
H1103 H 0.60654 0.61161 0.72966 0.0
C1104 C 0.8532 0.62778 0.92396 0.0
C1105 C 0.83212 0.61595 0.91329 0.0
C1106 C 0.87418 0.61877 0.89887 0.0
C1107 C 0.87384 0.59747 0.8631 0.0
C1108 C 0.85231 0.58785 0.84264 0.0
C1109 C 0.83164 0.5973 0.86783 0.0
C1110 C 0.89682 0.63019 0.9186 0.0
C1111 C 0.85111 0.56537 0.80339 0.0
C1112 C 0.92802 0.56387 0.81117 0.0
C1113 C 0.9311 0.54927 0.86624 0.0
C1114 C 0.90992 0.58035 0.80974 0.0
C1115 C 0.8946 0.58207 0.86455 0.0
C1116 C 0.89795 0.5676 0.92062 0.0
C1117 C 0.91615 0.55144 0.92069 0.0
C1118 C 0.90728 0.59589 0.74997 0.0
C1119 C 0.88187 0.5686 0.98003 0.0
H1120 H 0.85361 0.64267 0.95735 0.0
H1121 H 0.81549 0.58809 0.8585 0.0
H1122 H 0.90413 0.62122 0.96267 0.0
H1123 H 0.9098 0.6288 0.87797 0.0
H1124 H 0.89428 0.64885 0.93166 0.0
H1125 H 0.83373 0.56289 0.78006 0.0
H1126 H 0.86456 0.56482 0.76399 0.0
H1127 H 0.85436 0.55053 0.83729 0.0
H1128 H 0.93981 0.56246 0.76937 0.0
H1129 H 0.91828 0.53999 0.96289 0.0
H1130 H 0.912 0.61399 0.76407 0.0
H1131 H 0.88897 0.59622 0.73248 0.0
H1132 H 0.91861 0.59026 0.70813 0.0
H1133 H 0.88188 0.58639 1.0019 0.0
H1134 H 0.88698 0.55612 0.01942 0.0
H1135 H 0.86378 0.56459 0.96435 0.0
C1136 C 0.02376 0.17654 0.82931 0.0
C1137 C 0.03035 0.17651 0.89654 0.0
C1138 C 0.02073 0.15551 0.7932 0.0
C1139 C 0.02468 0.13368 0.8243 0.0
C1140 C 0.03171 0.1337 0.89197 0.0
C1141 C 0.03448 0.15492 0.92684 0.0
C1142 C 0.01248 0.15669 0.72226 0.0
C1143 C 0.03709 0.11142 0.92789 0.0
C1144 C 0.99256 0.07959 0.75916 0.0
C1145 C 0.00923 0.06848 0.71902 0.0
C1146 C 0.99741 0.10056 0.7932 0.0
C1147 C 0.01969 0.111 0.78791 0.0
C1148 C 0.03682 0.09966 0.74813 0.0
C1149 C 0.03127 0.07883 0.7132 0.0
C1150 C 0.97852 0.11167 0.83474 0.0
C1151 C 0.061 0.10957 0.74218 0.0
H1152 H 0.02041 0.19304 0.80524 0.0
H1153 H 0.04022 0.15457 0.97817 0.0
H1154 H 0.02389 0.14597 0.68989 0.0
H1155 H 0.99462 0.14943 0.71897 0.0
H1156 H 0.01219 0.17479 0.70312 0.0
H1157 H 0.03586 0.11363 0.98266 0.0
H1158 H 0.02533 0.09708 0.91247 0.0
H1159 H 0.05522 0.10638 0.91579 0.0
H1160 H 0.97536 0.07196 0.76314 0.0
H1161 H 0.04403 0.07089 0.68058 0.0
H1162 H 0.9753 0.12975 0.81781 0.0
H1163 H 0.9842 0.11265 0.88742 0.0
H1164 H 0.96189 0.10183 0.83222 0.0
H1165 H 0.06021 0.12688 0.71807 0.0
H1166 H 0.07271 0.09808 0.71271 0.0
H1167 H 0.06863 0.11212 0.79241 0.0
C1168 C 0.35187 0.02247 0.83147 0.0
C1169 C 0.35236 0.03195 0.89592 0.0
C1170 C 0.37259 0.01881 0.79508 0.0
C1171 C 0.39447 0.02508 0.82297 0.0
C1172 C 0.39487 0.03513 0.88751 0.0
C1173 C 0.37398 0.03842 0.9229 0.0
C1174 C 0.37112 0.00777 0.72718 0.0
C1175 C 0.4173 0.04302 0.91903 0.0
C1176 C 0.44872 0.99238 0.76319 0.0
C1177 C 0.45861 0.00779 0.7174 0.0
C1178 C 0.42816 0.99792 0.79787 0.0
C1179 C 0.4169 0.01955 0.78696 0.0
C1180 C 0.42708 0.03547 0.7416 0.0
C1181 C 0.44753 0.02923 0.70644 0.0
C1182 C 0.41831 0.98039 0.84581 0.0
C1183 C 0.41618 0.05893 0.72918 0.0
H1184 H 0.33529 0.01742 0.81004 0.0
H1185 H 0.37457 0.04637 0.97188 0.0
H1186 H 0.3792 0.01946 0.69027 0.0
H1187 H 0.38101 0.99116 0.7268 0.0
H1188 H 0.35289 1.00417 0.71172 0.0
H1189 H 0.41533 0.04675 0.97297 0.0
H1190 H 0.43117 0.02976 0.91243 0.0
H1191 H 0.42289 0.05926 0.89424 0.0
H1192 H 0.45697 0.97562 0.77111 0.0
H1193 H 0.45453 0.04093 0.66949 0.0
H1194 H 0.40036 0.97556 0.8306 0.0
H1195 H 0.41724 0.98821 0.8963 0.0
H1196 H 0.429 0.96429 0.84846 0.0
H1197 H 0.39983 0.0566 0.70051 0.0
H1198 H 0.42795 0.07058 0.70088 0.0
H1199 H 0.41165 0.06759 0.77688 0.0
C1200 C 0.46255 0.35987 0.89036 0.0
C1201 C 0.47133 0.33804 0.87091 0.0
C1202 C 0.46802 0.38023 0.85524 0.0
C1203 C 0.48238 0.37884 0.79818 0.0
C1204 C 0.49151 0.35686 0.77851 0.0
C1205 C 0.48608 0.33675 0.81554 0.0
C1206 C 0.45822 0.40323 0.879 0.0
C1207 C 0.50659 0.35452 0.71753 0.0
C1208 C 0.47599 0.42975 0.67788 0.0
C1209 C 0.49559 0.44328 0.69335 0.0
C1210 C 0.47197 0.40832 0.70966 0.0
C1211 C 0.48762 0.40047 0.7594 0.0
C1212 C 0.50744 0.41416 0.77506 0.0
C1213 C 0.51127 0.43526 0.74153 0.0
C1214 C 0.45081 0.39421 0.69059 0.0
C1215 C 0.52416 0.40698 0.82914 0.0
H1216 H 0.45132 0.36102 0.93352 0.0
H1217 H 0.49282 0.31992 0.80009 0.0
H1218 H 0.47244 0.4161 0.88587 0.0
H1219 H 0.44615 0.41031 0.84105 0.0
H1220 H 0.4486 0.4016 0.92659 0.0
H1221 H 0.51243 0.3363 0.70891 0.0
H1222 H 0.49679 0.36047 0.67319 0.0
H1223 H 0.52215 0.36584 0.72242 0.0
H1224 H 0.46377 0.43596 0.64084 0.0
H1225 H 0.52604 0.446 0.75519 0.0
H1226 H 0.45621 0.3765 0.67441 0.0
H1227 H 0.44068 0.4024 0.64995 0.0
H1228 H 0.43924 0.39215 0.73422 0.0
H1229 H 0.51496 0.40674 0.87758 0.0
H1230 H 0.53929 0.41896 0.83331 0.0
H1231 H 0.5307 0.38909 0.8196 0.0
C1232 C 0.18524 0.49729 0.81272 0.0
C1233 C 0.18148 0.49056 0.87875 0.0
C1234 C 0.16634 0.5023 0.76991 0.0
C1235 C 0.14314 0.50091 0.79393 0.0
C1236 C 0.13944 0.49505 0.86143 0.0
C1237 C 0.15854 0.48978 0.90256 0.0
C1238 C 0.17114 0.50824 0.69833 0.0
C1239 C 0.11517 0.49351 0.8898 0.0
C1240 C 0.09123 0.52918 0.70558 0.0
C1241 C 0.08024 0.50984 0.67625 0.0
C1242 C 0.11218 0.52674 0.74169 0.0
C1243 C 0.12257 0.50444 0.74852 0.0
C1244 C 0.11207 0.48506 0.71628 0.0
C1245 C 0.0912 0.48802 0.68041 0.0
C1246 C 0.12255 0.54787 0.77544 0.0
C1247 C 0.12241 0.46096 0.72167 0.0
H1248 H 0.2029 0.49769 0.79384 0.0
H1249 H 0.15552 0.48459 0.95354 0.0
H1250 H 0.16414 0.49429 0.66551 0.0
H1251 H 0.16215 0.52465 0.6848 0.0
H1252 H 0.19005 0.51019 0.68831 0.0
H1253 H 0.11528 0.49065 0.94434 0.0
H1254 H 0.10528 0.50968 0.87924 0.0
H1255 H 0.10572 0.47887 0.86576 0.0
H1256 H 0.08293 0.54611 0.70294 0.0
H1257 H 0.08305 0.47302 0.65714 0.0
H1258 H 0.14134 0.54931 0.76359 0.0
H1259 H 0.12106 0.54602 0.83012 0.0
H1260 H 0.11369 0.56425 0.76057 0.0
H1261 H 0.11177 0.4476 0.69548 0.0
H1262 H 0.12392 0.45592 0.77462 0.0
H1263 H 0.14021 0.46086 0.7004 0.0
C1264 C 1.00308 0.85044 0.42174 0.0
C1265 C 0.99644 0.85062 0.35455 0.0
C1266 C 1.00567 0.87137 0.45856 0.0
C1267 C 1.00122 0.89323 0.42824 0.0
C1268 C 0.99416 0.89336 0.36061 0.0
C1269 C 0.99182 0.87224 0.32502 0.0
C1270 C 0.01397 0.87007 0.52944 0.0
C1271 C 0.98835 0.9157 0.32547 0.0
C1272 C 0.99363 0.94737 0.54156 0.0
C1273 C 0.01547 0.95814 0.53618 0.0
C1274 C 0.98844 0.92664 0.50569 0.0
C1275 C 1.00577 0.91585 0.46538 0.0
C1276 C 0.02784 0.92673 0.46043 0.0
C1277 C 0.03232 0.94759 0.49544 0.0
C1278 C 0.96447 0.91623 0.51131 0.0
C1279 C 0.04692 0.91621 0.41836 0.0
H1280 H 0.00681 0.83391 0.44521 0.0
H1281 H 0.98603 0.87269 0.27374 0.0
H1282 H 0.03158 0.87789 0.53308 0.0
H1283 H 1.00222 0.88023 0.56224 0.0
H1284 H 0.01485 0.85188 0.54777 0.0
H1285 H 0.98937 0.91369 0.2706 0.0
H1286 H 0.97023 0.92048 0.33836 0.0
H1287 H 1.00002 0.93011 0.34091 0.0
H1288 H 0.98074 0.95489 0.57461 0.0
H1289 H 0.04938 0.95556 0.4918 0.0
H1290 H 0.9656 0.89887 0.535 0.0
H1291 H 0.95689 0.91368 0.46102 0.0
H1292 H 0.95253 0.92739 0.54105 0.0
H1293 H 0.05055 0.89814 0.43469 0.0
H1294 H 0.06334 0.9264 0.42107 0.0
H1295 H 0.04121 0.91531 0.3657 0.0
C1296 C 0.67504 0.99316 0.43006 0.0
C1297 C 0.67553 0.98048 0.37023 0.0
C1298 C 0.65374 0.99775 0.46303 0.0
C1299 C 0.63239 0.98998 0.43476 0.0
C1300 C 0.63303 0.9775 0.37376 0.0
C1301 C 0.65447 0.97268 0.34299 0.0
C1302 C 0.65405 0.01081 0.52833 0.0
C1303 C 0.61112 0.96881 0.34113 0.0
C1304 C 0.5775 0.98701 0.54414 0.0
C1305 C 0.5666 0.00826 0.52962 0.0
C1306 C 0.59863 0.98056 0.51286 0.0
C1307 C 0.60939 0.99589 0.46694 0.0
C1308 C 0.59805 0.0171 0.45138 0.0
C1309 C 0.57701 0.02303 0.48306 0.0
C1310 C 0.60973 0.95761 0.53041 0.0
C1311 C 0.60825 0.03372 0.40144 0.0
H1312 H 0.69132 0.99904 0.45167 0.0
H1313 H 0.65478 0.96279 0.29688 0.0
H1314 H 0.64408 0.02729 0.52365 0.0
H1315 H 0.6454 1.00029 0.56724 0.0
H1316 H 0.67201 0.01502 0.54501 0.0
H1317 H 0.61415 0.96254 0.28951 0.0
H1318 H 0.60426 0.95409 0.37057 0.0
H1319 H 0.59776 0.98276 0.33994 0.0
H1320 H 0.56984 0.97572 0.5811 0.0
H1321 H 0.56873 0.03954 0.47189 0.0
H1322 H 0.62553 0.96087 0.56086 0.0
H1323 H 0.61529 0.94811 0.48498 0.0
H1324 H 0.5977 0.94629 0.5588 0.0
H1325 H 0.62561 0.03973 0.41861 0.0
H1326 H 0.59701 0.04921 0.39341 0.0
H1327 H 0.61076 0.02466 0.35308 0.0
C1328 C 0.5186 0.6773 0.39921 0.0
C1329 C 0.54025 0.68806 0.41035 0.0
C1330 C 0.51194 0.65724 0.43452 0.0
C1331 C 0.52737 0.64737 0.48171 0.0
C1332 C 0.54852 0.659 0.49642 0.0
C1333 C 0.55458 0.67921 0.4611 0.0
C1334 C 0.489 0.64576 0.41814 0.0
C1335 C 0.56554 0.64921 0.54626 0.0
C1336 C 0.50805 0.59667 0.59232 0.0
C1337 C 0.51618 0.57738 0.55594 0.0
C1338 C 0.51138 0.61962 0.56912 0.0
C1339 C 0.52308 0.62333 0.50796 0.0
C1340 C 0.53089 0.6038 0.47081 0.0
C1341 C 0.52703 0.58124 0.4948 0.0
C1342 C 0.50255 0.63982 0.61022 0.0
C1343 C 0.54347 0.60667 0.40549 0.0
H1344 H 0.50731 0.68374 0.36023 0.0
H1345 H 0.57107 0.68762 0.4717 0.0
H1346 H 0.49219 0.62961 0.38895 0.0
H1347 H 0.47979 0.64071 0.46428 0.0
H1348 H 0.47747 0.65731 0.38865 0.0
H1349 H 0.57987 0.66158 0.55782 0.0
H1350 H 0.55654 0.64471 0.59315 0.0
H1351 H 0.57326 0.63291 0.5261 0.0
H1352 H 0.49936 0.59385 0.63931 0.0
H1353 H 0.53201 0.56657 0.4645 0.0
H1354 H 0.49123 0.65116 0.57952 0.0
H1355 H 0.51741 0.65059 0.62754 0.0
H1356 H 0.49258 0.63398 0.65436 0.0
H1357 H 0.53207 0.61573 0.36939 0.0
H1358 H 0.5489 0.58973 0.38348 0.0
H1359 H 0.5592 0.61761 0.4128 0.0
C1360 C 0.83495 0.53354 0.43535 0.0
C1361 C 0.83595 0.53513 0.3657 0.0
C1362 C 0.85535 0.531 0.47405 0.0
C1363 C 0.87748 0.53028 0.44277 0.0
C1364 C 0.87859 0.53196 0.37258 0.0
C1365 C 0.85794 0.53426 0.33514 0.0
C1366 C 0.85324 0.5291 0.54855 0.0
C1367 C 0.90169 0.53162 0.3369 0.0
C1368 C 0.9331 0.54522 0.53951 0.0
C1369 C 0.94342 0.52323 0.54845 0.0
C1370 C 0.91154 0.54776 0.50663 0.0
C1371 C 0.89951 0.5278 0.48297 0.0
C1372 C 0.90918 0.50548 0.4951 0.0
C1373 C 0.93089 0.50349 0.52757 0.0
C1374 C 0.90214 0.57195 0.49495 0.0
C1375 C 0.89693 0.48364 0.47188 0.0
H1376 H 0.81814 0.53407 0.45968 0.0
H1377 H 0.8591 0.53593 0.28163 0.0
H1378 H 0.86123 0.51257 0.56557 0.0
H1379 H 0.86289 0.54355 0.57298 0.0
H1380 H 0.83484 0.52966 0.56541 0.0
H1381 H 0.89968 0.53311 0.28218 0.0
H1382 H 0.91271 0.54623 0.35491 0.0
H1383 H 0.91113 0.51522 0.34795 0.0
H1384 H 0.94216 0.56065 0.55687 0.0
H1385 H 0.93822 0.48638 0.53494 0.0
H1386 H 0.88372 0.57314 0.51098 0.0
H1387 H 0.90265 0.57581 0.44101 0.0
H1388 H 0.91236 0.58551 0.52174 0.0
H1389 H 0.87872 0.4835 0.49019 0.0
H1390 H 0.90582 0.46757 0.48906 0.0
H1391 H 0.8962 0.48329 0.41679 0.0
loop_
_geom_bond_atom_site_label_1
_geom_bond_atom_site_label_2
_geom_bond_distance
_geom_bond_site_symmetry_2
_ccdc_geom_bond_type
C0 C1 1.384 . S
C0 H13 0.947 . S
C0 C35 1.382 . S
C1 C0 1.384 . S
C1 C2 1.378 . S
C2 C1 1.378 . S
C2 C3 1.378 . S
C2 H14 0.952 . S
C3 C2 1.378 . S
C3 H15 0.950 . S
C3 C34 1.383 . S
H4 C23 0.947 . S
H5 C24 0.946 . S
H6 C26 0.953 . S
H7 C27 0.945 . S
H8 C29 0.952 . S
H9 C30 0.949 . S
H10 C32 0.950 . S
H11 C33 0.948 . S
H12 C35 0.951 . S
H13 C0 0.947 . S
H14 C2 0.952 . S
H15 C3 0.950 . S
N16 C19 1.382 . S
N16 C21 1.363 . S
N17 C19 1.371 . S
N17 C20 1.372 . S
N18 C20 1.361 . S
N18 C21 1.377 . S
C19 N16 1.382 . S
C19 N17 1.371 . S
C19 C22 1.480 . S
C20 N17 1.372 . S
C20 N18 1.361 . S
C20 C28 1.457 . S
C21 N16 1.363 . S
C21 N18 1.377 . S
C21 C34 1.479 . S
C22 C19 1.480 . S
C22 C23 1.383 . S
C22 C27 1.385 . S
C23 H4 0.947 . S
C23 C22 1.383 . S
C23 C24 1.388 . S
C24 H5 0.946 . S
C24 C23 1.388 . S
C24 C25 1.384 . S
C25 C24 1.384 . S
C25 C26 1.377 . S
C26 H6 0.953 . S
C26 C25 1.377 . S
C26 C27 1.369 . S
C27 H7 0.945 . S
C27 C22 1.385 . S
C27 C26 1.369 . S
C28 C20 1.457 . S
C28 C29 1.372 . S
C28 C33 1.364 . S
C29 H8 0.952 . S
C29 C28 1.372 . S
C29 C30 1.389 1_554 S
C30 H9 0.949 . S
C30 C29 1.389 1_556 S
C30 C31 1.387 1_556 S
C31 C30 1.387 1_554 S
C31 C32 1.372 . S
C32 H10 0.950 . S
C32 C31 1.372 . S
C32 C33 1.379 . S
C33 H11 0.948 . S
C33 C28 1.364 . S
C33 C32 1.379 . S
C34 C3 1.383 . S
C34 C21 1.479 . S
C34 C35 1.398 . S
C35 C0 1.382 . S
C35 H12 0.951 . S
C35 C34 1.398 . S
C36 C37 1.384 . S
C36 H49 0.947 . S
C36 C71 1.382 . S
C37 C36 1.384 . S
C37 C38 1.378 . S
C38 C37 1.378 . S
C38 C39 1.378 . S
C38 H50 0.952 . S
C39 C38 1.378 . S
C39 H51 0.950 . S
C39 C70 1.383 . S
H40 C59 0.947 . S
H41 C60 0.946 . S
H42 C62 0.953 . S
H43 C63 0.945 . S
H44 C65 0.952 . S
H45 C66 0.931 1_556 S
H46 C68 0.950 . S
H47 C69 0.948 . S
H48 C71 0.951 . S
H49 C36 0.947 . S
H50 C38 0.952 . S
H51 C39 0.950 . S
N52 C55 1.382 . S
N52 C57 1.363 . S
N53 C55 1.371 . S
N53 C56 1.372 . S
N54 C56 1.361 . S
N54 C57 1.377 . S
C55 N52 1.382 . S
C55 N53 1.371 . S
C55 C58 1.480 . S
C56 N53 1.372 . S
C56 N54 1.361 . S
C56 C64 1.457 . S
C57 N52 1.363 . S
C57 N54 1.377 . S
C57 C70 1.479 . S
C58 C55 1.480 . S
C58 C59 1.383 . S
C58 C63 1.385 . S
C59 H40 0.947 . S
C59 C58 1.383 . S
C59 C60 1.388 . S
C60 H41 0.946 . S
C60 C59 1.388 . S
C60 C61 1.384 . S
C61 C60 1.384 . S
C61 C62 1.377 . S
C62 H42 0.953 . S
C62 C61 1.377 . S
C62 C63 1.369 . S
C63 H43 0.945 . S
C63 C58 1.385 . S
C63 C62 1.369 . S
C64 C56 1.457 . S
C64 C65 1.372 . S
C64 C69 1.364 . S
C65 H44 0.952 . S
C65 C64 1.372 . S
C65 C66 1.402 . S
C66 H45 0.931 1_554 S
C66 C65 1.402 . S
C66 C67 1.391 . S
C67 C66 1.391 . S
C67 C68 1.372 . S
C68 H46 0.950 . S
C68 C67 1.372 . S
C68 C69 1.379 . S
C69 H47 0.948 . S
C69 C64 1.364 . S
C69 C68 1.379 . S
C70 C39 1.383 . S
C70 C57 1.479 . S
C70 C71 1.398 . S
C71 C36 1.382 . S
C71 H48 0.951 . S
C71 C70 1.398 . S
C72 C73 1.384 . S
C72 H85 0.947 . S
C72 C107 1.382 . S
C73 C72 1.384 . S
C73 C74 1.378 . S
C74 C73 1.378 . S
C74 C75 1.378 . S
C74 H86 0.952 . S
C75 C74 1.378 . S
C75 H87 0.950 . S
C75 C106 1.383 . S
H76 C95 0.947 . S
H77 C96 0.946 . S
H78 C98 0.953 . S
H79 C99 0.945 . S
H80 C101 0.952 . S
H81 C102 0.949 1_556 S
H82 C104 0.950 . S
H83 C105 0.948 . S
H84 C107 0.951 . S
H85 C72 0.947 . S
H86 C74 0.952 . S
H87 C75 0.950 . S
N88 C91 1.382 . S
N88 C93 1.363 . S
N89 C91 1.371 . S
N89 C92 1.372 . S
N90 C92 1.361 . S
N90 C93 1.377 . S
C91 N88 1.382 . S
C91 N89 1.371 . S
C91 C94 1.480 . S
C92 N89 1.372 . S
C92 N90 1.361 . S
C92 C100 1.457 . S
C93 N88 1.363 . S
C93 N90 1.377 . S
C93 C106 1.479 . S
C94 C91 1.480 . S
C94 C95 1.383 . S
C94 C99 1.385 . S
C95 H76 0.947 . S
C95 C94 1.383 . S
C95 C96 1.388 . S
C96 H77 0.946 . S
C96 C95 1.388 . S
C96 C97 1.384 . S
C97 C96 1.384 . S
C97 C98 1.377 . S
C98 H78 0.953 . S
C98 C97 1.377 . S
C98 C99 1.369 . S
C99 H79 0.945 . S
C99 C94 1.385 . S
C99 C98 1.369 . S
C100 C92 1.457 . S
C100 C101 1.372 . S
C100 C105 1.364 . S
C101 H80 0.952 . S
C101 C100 1.372 . S
C101 C102 1.389 . S
C102 H81 0.949 1_554 S
C102 C101 1.389 . S
C102 C103 1.387 . S
C103 C102 1.387 . S
C103 C104 1.372 . S
C104 H82 0.950 . S
C104 C103 1.372 . S
C104 C105 1.379 . S
C105 H83 0.948 . S
C105 C100 1.364 . S
C105 C104 1.379 . S
C106 C75 1.383 . S
C106 C93 1.479 . S
C106 C107 1.398 . S
C107 C72 1.382 . S
C107 H84 0.951 . S
C107 C106 1.398 . S
C108 C109 1.384 . S
C108 H121 0.947 . S
C108 C143 1.382 . S
C109 C108 1.384 . S
C109 C110 1.378 1_554 S
C110 C109 1.378 1_556 S
C110 C111 1.378 1_556 S
C110 H122 0.952 . S
C111 C110 1.378 1_554 S
C111 H123 0.950 . S
C111 C142 1.383 . S
H112 C131 0.947 . S
H113 C132 0.946 . S
H114 C134 0.953 . S
H115 C135 0.945 . S
H116 C137 0.952 . S
H117 C138 0.949 . S
H118 C140 0.950 . S
H119 C141 0.948 . S
H120 C143 0.951 . S
H121 C108 0.947 . S
H122 C110 0.952 . S
H123 C111 0.950 . S
N124 C127 1.382 . S
N124 C129 1.363 . S
N125 C127 1.371 . S
N125 C128 1.372 . S
N126 C128 1.361 . S
N126 C129 1.377 . S
C127 N124 1.382 . S
C127 N125 1.371 . S
C127 C130 1.480 . S
C128 N125 1.372 . S
C128 N126 1.361 . S
C128 C136 1.457 . S
C129 N124 1.363 . S
C129 N126 1.377 . S
C129 C142 1.479 . S
C130 C127 1.480 . S
C130 C131 1.383 . S
C130 C135 1.385 . S
C131 H112 0.947 . S
C131 C130 1.383 . S
C131 C132 1.388 . S
C132 H113 0.946 . S
C132 C131 1.388 . S
C132 C133 1.384 . S
C133 C132 1.384 . S
C133 C134 1.377 . S
C134 H114 0.953 . S
C134 C133 1.377 . S
C134 C135 1.369 . S
C135 H115 0.945 . S
C135 C130 1.385 . S
C135 C134 1.369 . S
C136 C128 1.457 . S
C136 C137 1.372 . S
C136 C141 1.364 . S
C137 H116 0.952 . S
C137 C136 1.372 . S
C137 C138 1.389 . S
C138 H117 0.949 . S
C138 C137 1.389 . S
C138 C139 1.387 . S
C139 C138 1.387 . S
C139 C140 1.372 . S
C140 H118 0.950 . S
C140 C139 1.372 . S
C140 C141 1.379 . S
C141 H119 0.948 . S
C141 C136 1.364 . S
C141 C140 1.379 . S
C142 C111 1.383 . S
C142 C129 1.479 . S
C142 C143 1.398 . S
C143 C108 1.382 . S
C143 H120 0.951 . S
C143 C142 1.398 . S
C144 C145 1.384 . S
C144 H157 0.947 . S
C144 C179 1.382 . S
C145 C144 1.384 . S
C145 C146 1.378 . S
C146 C145 1.378 . S
C146 C147 1.378 . S
C146 H158 0.952 . S
C147 C146 1.378 . S
C147 H159 0.950 . S
C147 C178 1.383 . S
H148 C167 0.947 1_556 S
H149 C168 0.946 1_556 S
H150 C170 0.953 . S
H151 C171 0.945 . S
H152 C173 0.952 . S
H153 C174 0.949 . S
H154 C176 0.950 . S
H155 C177 0.948 . S
H156 C179 0.951 . S
H157 C144 0.947 . S
H158 C146 0.952 . S
H159 C147 0.950 . S
N160 C163 1.382 1_556 S
N160 C165 1.363 . S
N161 C163 1.371 . S
N161 C164 1.372 . S
N162 C164 1.361 . S
N162 C165 1.377 1_554 S
C163 N160 1.382 1_554 S
C163 N161 1.371 . S
C163 C166 1.480 . S
C164 N161 1.372 . S
C164 N162 1.361 . S
C164 C172 1.457 . S
C165 N160 1.363 . S
C165 N162 1.377 1_556 S
C165 C178 1.479 . S
C166 C163 1.480 . S
C166 C167 1.383 . S
C166 C171 1.385 . S
C167 H148 0.947 1_554 S
C167 C166 1.383 . S
C167 C168 1.388 . S
C168 H149 0.946 1_554 S
C168 C167 1.388 . S
C168 C169 1.384 . S
C169 C168 1.384 . S
C169 C170 1.377 . S
C170 H150 0.953 . S
C170 C169 1.377 . S
C170 C171 1.369 . S
C171 H151 0.945 . S
C171 C166 1.385 . S
C171 C170 1.369 . S
C172 C164 1.457 . S
C172 C173 1.372 . S
C172 C177 1.364 . S
C173 H152 0.952 . S
C173 C172 1.372 . S
C173 C174 1.389 . S
C174 H153 0.949 . S
C174 C173 1.389 . S
C174 C175 1.387 . S
C175 C174 1.387 . S
C175 C176 1.372 . S
C176 H154 0.950 . S
C176 C175 1.372 . S
C176 C177 1.379 . S
C177 H155 0.948 . S
C177 C172 1.364 . S
C177 C176 1.379 . S
C178 C147 1.383 . S
C178 C165 1.479 . S
C178 C179 1.398 . S
C179 C144 1.382 . S
C179 H156 0.951 . S
C179 C178 1.398 . S
C180 C181 1.384 . S
C180 H193 0.947 . S
C180 C215 1.382 . S
C181 C180 1.384 . S
C181 C182 1.378 . S
C182 C181 1.378 . S
C182 C183 1.378 . S
C182 H194 0.952 . S
C183 C182 1.378 . S
C183 H195 0.950 . S
C183 C214 1.383 . S
H184 C203 0.947 1_556 S
H185 C204 0.946 1_556 S
H186 C206 0.953 . S
H187 C207 0.945 . S
H188 C209 0.952 . S
H189 C210 0.949 . S
H190 C212 0.950 . S
H191 C213 0.948 . S
H192 C215 0.951 . S
H193 C180 0.947 . S
H194 C182 0.952 . S
H195 C183 0.950 . S
N196 C199 1.382 1_556 S
N196 C201 1.363 . S
N197 C199 1.371 . S
N197 C200 1.372 . S
N198 C200 1.361 . S
N198 C201 1.377 1_554 S
C199 N196 1.382 1_554 S
C199 N197 1.371 . S
C199 C202 1.480 . S
C200 N197 1.372 . S
C200 N198 1.361 . S
C200 C208 1.457 . S
C201 N196 1.363 . S
C201 N198 1.377 1_556 S
C201 C214 1.479 . S
C202 C199 1.480 . S
C202 C203 1.383 . S
C202 C207 1.385 . S
C203 H184 0.947 1_554 S
C203 C202 1.383 . S
C203 C204 1.388 . S
C204 H185 0.946 1_554 S
C204 C203 1.388 . S
C204 C205 1.384 . S
C205 C204 1.384 . S
C205 C206 1.377 . S
C206 H186 0.953 . S
C206 C205 1.377 . S
C206 C207 1.369 . S
C207 H187 0.945 . S
C207 C202 1.385 . S
C207 C206 1.369 . S
C208 C200 1.457 . S
C208 C209 1.372 . S
C208 C213 1.364 . S
C209 H188 0.952 . S
C209 C208 1.372 . S
C209 C210 1.389 . S
C210 H189 0.949 . S
C210 C209 1.389 . S
C210 C211 1.387 . S
C211 C210 1.387 . S
C211 C212 1.372 . S
C212 H190 0.950 . S
C212 C211 1.372 . S
C212 C213 1.379 . S
C213 H191 0.948 . S
C213 C208 1.364 . S
C213 C212 1.379 . S
C214 C183 1.383 . S
C214 C201 1.479 . S
C214 C215 1.398 . S
C215 C180 1.382 . S
C215 H192 0.951 . S
C215 C214 1.398 . S
C216 C217 1.384 . S
C216 H229 0.947 . S
C216 C251 1.382 . S
C217 C216 1.384 . S
C217 C218 1.378 . S
C218 C217 1.378 . S
C218 C219 1.378 . S
C218 H230 0.952 . S
C219 C218 1.378 . S
C219 H231 0.950 . S
C219 C250 1.383 . S
H220 C239 0.934 1_556 S
H221 C240 0.946 1_556 S
H222 C242 0.953 . S
H223 C243 0.945 . S
H224 C245 0.952 . S
H225 C246 0.949 . S
H226 C248 0.950 . S
H227 C249 0.948 . S
H228 C251 0.951 . S
H229 C216 0.947 . S
H230 C218 0.952 . S
H231 C219 0.950 . S
N232 C235 1.382 1_556 S
N232 C237 1.363 . S
N233 C235 1.371 . S
N233 C236 1.372 . S
N234 C236 1.361 . S
N234 C237 1.377 1_554 S
C235 N232 1.382 1_554 S
C235 N233 1.371 . S
C235 C238 1.480 . S
C236 N233 1.372 . S
C236 N234 1.361 . S
C236 C244 1.457 . S
C237 N232 1.363 . S
C237 N234 1.377 1_556 S
C237 C250 1.479 . S
C238 C235 1.480 . S
C238 C239 1.393 . S
C238 C243 1.385 . S
C239 H220 0.934 1_554 S
C239 C238 1.393 . S
C239 C240 1.392 . S
C240 H221 0.946 1_554 S
C240 C239 1.392 . S
C240 C241 1.384 . S
C241 C240 1.384 . S
C241 C242 1.377 . S
C242 H222 0.953 . S
C242 C241 1.377 . S
C242 C243 1.369 . S
C243 H223 0.945 . S
C243 C238 1.385 . S
C243 C242 1.369 . S
C244 C236 1.457 . S
C244 C245 1.372 . S
C244 C249 1.364 . S
C245 H224 0.952 . S
C245 C244 1.372 . S
C245 C246 1.389 . S
C246 H225 0.949 . S
C246 C245 1.389 . S
C246 C247 1.387 . S
C247 C246 1.387 . S
C247 C248 1.372 . S
C248 H226 0.950 . S
C248 C247 1.372 . S
C248 C249 1.379 . S
C249 H227 0.948 . S
C249 C244 1.364 . S
C249 C248 1.379 . S
C250 C219 1.383 . S
C250 C237 1.479 . S
C250 C251 1.398 . S
C251 C216 1.382 . S
C251 H228 0.951 . S
C251 C250 1.398 . S
C252 C253 1.384 . S
C252 H265 0.947 . S
C252 C287 1.382 . S
C253 C252 1.384 . S
C253 C254 1.378 . S
C254 C253 1.378 . S
C254 C255 1.378 . S
C254 H266 0.952 . S
C255 C254 1.378 . S
C255 H267 0.950 . S
C255 C286 1.383 . S
H256 C275 0.947 . S
H257 C276 0.946 . S
H258 C278 0.953 1_556 S
H259 C279 0.945 1_556 S
H260 C281 0.952 . S
H261 C282 0.949 . S
H262 C284 0.950 . S
H263 C285 0.948 . S
H264 C287 0.951 . S
H265 C252 0.947 . S
H266 C254 0.952 . S
H267 C255 0.950 . S
N268 C271 1.382 . S
N268 C273 1.363 . S
N269 C271 1.371 1_556 S
N269 C272 1.372 . S
N270 C272 1.361 1_554 S
N270 C273 1.377 . S
C271 N268 1.382 . S
C271 N269 1.371 1_554 S
C271 C274 1.480 . S
C272 N269 1.372 . S
C272 N270 1.361 1_556 S
C272 C280 1.457 . S
C273 N268 1.363 . S
C273 N270 1.377 . S
C273 C286 1.479 . S
C274 C271 1.480 . S
C274 C275 1.383 . S
C274 C279 1.385 . S
C275 H256 0.947 . S
C275 C274 1.383 . S
C275 C276 1.388 . S
C276 H257 0.946 . S
C276 C275 1.388 . S
C276 C277 1.384 . S
C277 C276 1.384 . S
C277 C278 1.377 . S
C278 H258 0.953 1_554 S
C278 C277 1.377 . S
C278 C279 1.369 . S
C279 H259 0.945 1_554 S
C279 C274 1.385 . S
C279 C278 1.369 . S
C280 C272 1.457 . S
C280 C281 1.372 . S
C280 C285 1.364 . S
C281 H260 0.952 . S
C281 C280 1.372 . S
C281 C282 1.389 . S
C282 H261 0.949 . S
C282 C281 1.389 . S
C282 C283 1.387 . S
C283 C282 1.387 . S
C283 C284 1.372 . S
C284 H262 0.950 . S
C284 C283 1.372 . S
C284 C285 1.379 . S
C285 H263 0.948 . S
C285 C280 1.364 . S
C285 C284 1.379 . S
C286 C255 1.383 . S
C286 C273 1.479 . S
C286 C287 1.398 . S
C287 C252 1.382 . S
C287 H264 0.951 . S
C287 C286 1.398 . S
Tb288 N319 2.660 1_565 S
Tb288 N326 2.600 . S
Tb288 O332 2.546 . S
Tb288 O333 2.610 1_455 S
Tb288 O335 2.320 1_455 S
Tb288 O336 2.552 . S
Tb288 O337 2.413 . S
Tb288 O339 2.362 1_565 S
Tb288 O340 2.421 . S
Tb288 C352 2.833 . S
C289 C292 1.432 1_545 S
C289 C293 1.414 . S
C289 N296 1.359 . S
C290 C292 1.417 . S
C290 C294 1.432 . S
C290 C302 1.410 . S
C291 C293 1.444 1_565 S
C291 C294 1.317 . S
C291 H314 0.929 . S
C292 C289 1.432 1_565 S
C292 C290 1.417 . S
C292 N300 1.360 . S
C293 C289 1.414 . S
C293 C291 1.444 1_545 S
C293 C298 1.385 . S
C294 C290 1.432 . S
C294 C291 1.317 . S
C294 H306 0.930 . S
C295 C297 1.392 . S
C295 C298 1.370 . S
C295 H307 0.931 . S
N296 C289 1.359 . S
N296 C297 1.327 . S
N296 Tb299 2.600 . S
C297 C295 1.392 . S
C297 N296 1.327 . S
C297 H304 0.930 . S
C298 C293 1.385 . S
C298 C295 1.370 . S
C298 H317 0.930 . S
Tb299 N296 2.600 . S
Tb299 N300 2.661 1_545 S
Tb299 O333 2.362 1_545 S
Tb299 O334 2.421 . S
Tb299 O338 2.546 . S
Tb299 O339 2.610 1_655 S
Tb299 O341 2.320 1_655 S
Tb299 O342 2.552 1_655 S
Tb299 O343 2.413 . S
Tb299 C363 2.833 . S
N300 C292 1.360 . S
N300 Tb299 2.661 1_565 S
N300 C301 1.304 1_655 S
C301 N300 1.304 1_455 S
C301 C303 1.408 1_455 S
C301 H308 0.930 . S
C302 C290 1.410 . S
C302 C303 1.342 . S
C302 H310 0.930 . S
C303 C301 1.408 1_655 S
C303 C302 1.342 . S
C303 H305 0.933 1_655 S
H304 C297 0.930 . S
H305 C303 0.933 1_455 S
H306 C294 0.930 . S
H307 C295 0.931 . S
H308 C301 0.930 . S
H309 C323 0.930 1_655 S
H310 C302 0.930 . S
H311 C329 0.930 . S
H312 C320 0.930 1_655 S
H313 C327 0.931 . S
H314 C291 0.929 . S
H315 C321 0.930 . S
H316 C354 0.930 . S
H317 C298 0.930 . S
H318 C353 0.929 . S
N319 Tb288 2.660 1_545 S
N319 C320 1.305 . S
N319 C324 1.360 . S
C320 H312 0.930 1_455 S
C320 N319 1.305 . S
C320 C323 1.407 . S
C321 H315 0.930 . S
C321 C322 1.410 . S
C321 C323 1.345 . S
C322 C321 1.410 . S
C322 C324 1.417 . S
C322 C354 1.432 . S
C323 H309 0.930 1_455 S
C323 C320 1.407 . S
C323 C321 1.345 . S
C324 N319 1.360 . S
C324 C322 1.417 . S
C324 C328 1.432 . S
H325 C330 0.927 1_545 S
N326 Tb288 2.600 . S
N326 C328 1.359 1_565 S
N326 C329 1.327 . S
C327 H313 0.931 . S
C327 C329 1.392 . S
C327 C330 1.387 . S
C328 C324 1.432 . S
C328 N326 1.359 1_545 S
C328 C331 1.414 . S
C329 H311 0.930 . S
C329 N326 1.327 . S
C329 C327 1.392 . S
C330 H325 0.927 1_565 S
C330 C327 1.387 . S
C330 C331 1.371 1_565 S
C331 C328 1.414 . S
C331 C330 1.371 1_545 S
C331 C353 1.444 . S
O332 Tb288 2.546 . S
O332 C352 1.251 . S
O333 Tb288 2.610 1_655 S
O333 Tb299 2.362 1_565 S
O333 C344 1.283 . S
O334 Tb299 2.421 . S
O334 C351 1.262 . S
O335 Tb288 2.320 1_655 S
O335 C351 1.260 1_565 S
O336 Tb288 2.552 . S
O336 C344 1.243 1_455 S
O337 Tb288 2.413 . S
O337 C352 1.256 . S
O338 Tb299 2.546 . S
O338 C363 1.251 . S
O339 Tb288 2.362 1_545 S
O339 Tb299 2.610 1_455 S
O339 C355 1.283 . S
O340 Tb288 2.421 . S
O340 C362 1.262 1_565 S
O341 Tb299 2.320 1_455 S
O341 C362 1.260 . S
O342 Tb299 2.552 1_455 S
O342 C355 1.243 . S
O343 Tb299 2.413 . S
O343 C363 1.256 . S
C344 O333 1.283 . S
C344 O336 1.243 1_655 S
C345 C347 1.382 . S
C345 C349 1.393 . S
C345 C352 1.500 . S
C346 C347 1.400 . S
C346 C348 1.384 . S
C347 C345 1.382 . S
C347 C346 1.400 . S
C347 H364 0.920 1_455 S
C348 C346 1.384 . S
C348 C350 1.392 . S
C348 H365 0.931 . S
C349 C345 1.393 . S
C349 C350 1.401 . S
C349 H366 0.930 . S
C350 C348 1.392 . S
C350 C349 1.401 . S
C350 H367 0.930 . S
C351 O334 1.262 . S
C351 O335 1.260 1_545 S
C352 Tb288 2.833 . S
C352 O332 1.251 . S
C352 O337 1.256 . S
C352 C345 1.500 . S
C353 H318 0.929 . S
C353 C331 1.444 . S
C353 C354 1.317 . S
C354 H316 0.930 . S
C354 C322 1.432 . S
C354 C353 1.317 . S
C355 O339 1.283 . S
C355 O342 1.243 . S
C356 C357 1.382 . S
C356 C360 1.393 . S
C356 C363 1.500 . S
C357 C356 1.382 . S
C357 C358 1.400 . S
C357 H368 0.930 1_655 S
C358 C357 1.400 . S
C358 C359 1.384 . S
C359 C358 1.384 . S
C359 C361 1.392 . S
C359 H369 0.931 . S
C360 C356 1.393 . S
C360 C361 1.401 . S
C360 H370 0.930 . S
C361 C359 1.392 . S
C361 C360 1.401 . S
C361 H371 0.930 . S
C362 O340 1.262 1_545 S
C362 O341 1.260 . S
C363 Tb299 2.833 . S
C363 O338 1.251 . S
C363 O343 1.256 . S
C363 C356 1.500 . S
H364 C347 0.920 1_655 S
H365 C348 0.931 . S
H366 C349 0.930 . S
H367 C350 0.930 . S
H368 C357 0.930 1_455 S
H369 C359 0.931 . S
H370 C360 0.930 . S
H371 C361 0.930 . S
Tb372 N403 2.660 . S
Tb372 N410 2.600 . S
Tb372 O416 2.546 . S
Tb372 O417 2.610 1_545 S
Tb372 O419 2.320 1_545 S
Tb372 O420 2.552 . S
Tb372 O421 2.413 . S
Tb372 O423 2.362 . S
Tb372 O424 2.421 . S
Tb372 C436 2.833 . S
C373 C376 1.432 . S
C373 C377 1.414 . S
C373 N380 1.359 . S
C374 C376 1.417 . S
C374 C378 1.432 . S
C374 C386 1.410 . S
C375 C377 1.444 . S
C375 C378 1.317 . S
C375 H398 0.929 . S
C376 C373 1.432 . S
C376 C374 1.417 . S
C376 N384 1.360 . S
C377 C373 1.414 . S
C377 C375 1.444 . S
C377 C382 1.385 . S
C378 C374 1.432 . S
C378 C375 1.317 . S
C378 H390 0.930 . S
C379 C381 1.392 . S
C379 C382 1.370 . S
C379 H391 0.931 . S
N380 C373 1.359 . S
N380 C381 1.327 . S
N380 Tb383 2.600 . S
C381 C379 1.392 . S
C381 N380 1.327 . S
C381 H388 0.930 . S
C382 C377 1.385 . S
C382 C379 1.370 . S
C382 H401 0.930 . S
Tb383 N380 2.600 . S
Tb383 N384 2.660 . S
Tb383 O417 2.362 . S
Tb383 O418 2.421 . S
Tb383 O422 2.546 . S
Tb383 O423 2.610 1_565 S
Tb383 O425 2.320 1_565 S
Tb383 O426 2.552 1_565 S
Tb383 O427 2.413 . S
Tb383 C447 2.833 . S
N384 C376 1.360 . S
N384 Tb383 2.660 . S
N384 C385 1.305 1_565 S
C385 N384 1.305 1_545 S
C385 C387 1.407 . S
C385 H392 0.930 . S
C386 C374 1.410 . S
C386 C387 1.345 1_565 S
C386 H394 0.930 . S
C387 C385 1.407 . S
C387 C386 1.345 1_545 S
C387 H389 0.930 . S
H388 C381 0.930 . S
H389 C387 0.930 . S
H390 C378 0.930 . S
H391 C379 0.931 . S
H392 C385 0.930 . S
H393 C407 0.930 1_565 S
H394 C386 0.930 . S
H395 C413 0.930 . S
H396 C404 0.930 1_565 S
H397 C411 0.931 . S
H398 C375 0.929 . S
H399 C405 0.930 . S
H400 C438 0.930 . S
H401 C382 0.930 . S
H402 C437 0.929 . S
N403 Tb372 2.660 . S
N403 C404 1.305 . S
N403 C408 1.360 . S
C404 H396 0.930 1_545 S
C404 N403 1.305 . S
C404 C407 1.407 . S
C405 H399 0.930 . S
C405 C406 1.410 . S
C405 C407 1.345 . S
C406 C405 1.410 . S
C406 C408 1.417 . S
C406 C438 1.432 . S
C407 H393 0.930 1_545 S
C407 C404 1.407 . S
C407 C405 1.345 . S
C408 N403 1.360 . S
C408 C406 1.417 . S
C408 C412 1.432 . S
H409 C414 0.930 . S
N410 Tb372 2.600 . S
N410 C412 1.359 . S
N410 C413 1.327 . S
C411 H397 0.931 . S
C411 C413 1.392 . S
C411 C414 1.370 . S
C412 C408 1.432 . S
C412 N410 1.359 . S
C412 C415 1.414 . S
C413 H395 0.930 . S
C413 N410 1.327 . S
C413 C411 1.392 . S
C414 H409 0.930 . S
C414 C411 1.370 . S
C414 C415 1.385 . S
C415 C412 1.414 . S
C415 C414 1.385 . S
C415 C437 1.444 . S
O416 Tb372 2.546 . S
O416 C436 1.251 . S
O417 Tb372 2.610 1_565 S
O417 Tb383 2.362 . S
O417 C428 1.283 . S
O418 Tb383 2.421 . S
O418 C435 1.262 . S
O419 Tb372 2.320 1_565 S
O419 C435 1.260 . S
O420 Tb372 2.552 . S
O420 C428 1.243 1_545 S
O421 Tb372 2.413 . S
O421 C436 1.256 . S
O422 Tb383 2.546 . S
O422 C447 1.251 . S
O423 Tb372 2.362 . S
O423 Tb383 2.610 1_545 S
O423 C439 1.283 . S
O424 Tb372 2.421 . S
O424 C446 1.262 . S
O425 Tb383 2.320 1_545 S
O425 C446 1.260 . S
O426 Tb383 2.552 1_545 S
O426 C439 1.243 . S
O427 Tb383 2.413 . S
O427 C447 1.256 . S
C428 O417 1.283 . S
C428 O420 1.243 1_565 S
C429 C431 1.382 . S
C429 C433 1.393 . S
C429 C436 1.500 . S
C430 C431 1.400 . S
C430 C432 1.384 . S
C431 C429 1.382 . S
C431 C430 1.400 . S
C431 H448 0.930 . S
C432 C430 1.384 . S
C432 C434 1.392 . S
C432 H449 0.931 . S
C433 C429 1.393 . S
C433 C434 1.401 . S
C433 H450 0.930 . S
C434 C432 1.392 . S
C434 C433 1.401 . S
C434 H451 0.930 . S
C435 O418 1.262 . S
C435 O419 1.260 . S
C436 Tb372 2.833 . S
C436 O416 1.251 . S
C436 O421 1.256 . S
C436 C429 1.500 . S
C437 H402 0.929 . S
C437 C415 1.444 . S
C437 C438 1.317 . S
C438 H400 0.930 . S
C438 C406 1.432 . S
C438 C437 1.317 . S
C439 O423 1.283 . S
C439 O426 1.243 . S
C440 C441 1.382 . S
C440 C444 1.393 . S
C440 C447 1.500 . S
C441 C440 1.382 . S
C441 C442 1.400 . S
C441 H452 0.930 1_565 S
C442 C441 1.400 . S
C442 C443 1.384 . S
C443 C442 1.384 . S
C443 C445 1.392 . S
C443 H453 0.931 . S
C444 C440 1.393 . S
C444 C445 1.401 . S
C444 H454 0.930 . S
C445 C443 1.392 . S
C445 C444 1.401 . S
C445 H455 0.930 . S
C446 O424 1.262 . S
C446 O425 1.260 . S
C447 Tb383 2.833 . S
C447 O422 1.251 . S
C447 O427 1.256 . S
C447 C440 1.500 . S
H448 C431 0.930 . S
H449 C432 0.931 . S
H450 C433 0.930 . S
H451 C434 0.930 . S
H452 C441 0.930 1_545 S
H453 C443 0.931 . S
H454 C444 0.930 . S
H455 C445 0.930 . S
Tb456 N487 2.660 . S
Tb456 N494 2.600 . S
Tb456 O500 2.546 . S
Tb456 O501 2.610 . S
Tb456 O503 2.320 . S
Tb456 O504 2.552 . S
Tb456 O505 2.413 . S
Tb456 O507 2.362 . S
Tb456 O508 2.421 . S
Tb456 C520 2.833 . S
C457 C460 1.432 . S
C457 C461 1.414 . S
C457 N464 1.359 . S
C458 C460 1.417 . S
C458 C462 1.432 . S
C458 C470 1.410 . S
C459 C461 1.444 . S
C459 C462 1.317 . S
C459 H482 0.929 . S
C460 C457 1.432 . S
C460 C458 1.417 . S
C460 N468 1.360 . S
C461 C457 1.414 . S
C461 C459 1.444 . S
C461 C466 1.385 . S
C462 C458 1.432 . S
C462 C459 1.317 . S
C462 H474 0.930 . S
C463 C465 1.392 . S
C463 C466 1.370 . S
C463 H475 0.931 . S
N464 C457 1.359 . S
N464 C465 1.327 . S
N464 Tb467 2.600 . S
C465 C463 1.392 . S
C465 N464 1.327 . S
C465 H472 0.930 . S
C466 C461 1.385 . S
C466 C463 1.370 . S
C466 H485 0.930 . S
Tb467 N464 2.600 . S
Tb467 N468 2.660 . S
Tb467 O501 2.362 . S
Tb467 O502 2.421 . S
Tb467 O506 2.546 . S
Tb467 O507 2.610 . S
Tb467 O509 2.320 . S
Tb467 O510 2.552 . S
Tb467 O511 2.413 . S
Tb467 C531 2.833 . S
N468 C460 1.360 . S
N468 Tb467 2.660 . S
N468 C469 1.305 . S
C469 N468 1.305 . S
C469 C471 1.407 . S
C469 H476 0.930 . S
C470 C458 1.410 . S
C470 C471 1.345 . S
C470 H478 0.930 . S
C471 C469 1.407 . S
C471 C470 1.345 . S
C471 H473 0.930 . S
H472 C465 0.930 . S
H473 C471 0.930 . S
H474 C462 0.930 . S
H475 C463 0.931 . S
H476 C469 0.930 . S
H477 C491 0.930 . S
H478 C470 0.930 . S
H479 C497 0.930 . S
H480 C488 0.930 . S
H481 C495 0.931 . S
H482 C459 0.929 . S
H483 C489 0.930 . S
H484 C522 0.930 . S
H485 C466 0.930 . S
H486 C521 0.929 . S
N487 Tb456 2.660 . S
N487 C488 1.305 . S
N487 C492 1.360 . S
C488 H480 0.930 . S
C488 N487 1.305 . S
C488 C491 1.407 . S
C489 H483 0.930 . S
C489 C490 1.410 . S
C489 C491 1.345 . S
C490 C489 1.410 . S
C490 C492 1.417 . S
C490 C522 1.432 . S
C491 H477 0.930 . S
C491 C488 1.407 . S
C491 C489 1.345 . S
C492 N487 1.360 . S
C492 C490 1.417 . S
C492 C496 1.432 . S
H493 C498 0.930 . S
N494 Tb456 2.600 . S
N494 C496 1.359 . S
N494 C497 1.327 . S
C495 H481 0.931 . S
C495 C497 1.392 . S
C495 C498 1.370 . S
C496 C492 1.432 . S
C496 N494 1.359 . S
C496 C499 1.414 . S
C497 H479 0.930 . S
C497 N494 1.327 . S
C497 C495 1.392 . S
C498 H493 0.930 . S
C498 C495 1.370 . S
C498 C499 1.385 . S
C499 C496 1.414 . S
C499 C498 1.385 . S
C499 C521 1.444 . S
O500 Tb456 2.546 . S
O500 C520 1.251 . S
O501 Tb456 2.610 . S
O501 Tb467 2.362 . S
O501 C512 1.283 . S
O502 Tb467 2.421 . S
O502 C519 1.262 . S
O503 Tb456 2.320 . S
O503 C519 1.260 . S
O504 Tb456 2.552 . S
O504 C512 1.243 . S
O505 Tb456 2.413 . S
O505 C520 1.256 . S
O506 Tb467 2.546 . S
O506 C531 1.251 . S
O507 Tb456 2.362 . S
O507 Tb467 2.610 . S
O507 C523 1.283 . S
O508 Tb456 2.421 . S
O508 C530 1.262 . S
O509 Tb467 2.320 . S
O509 C530 1.260 . S
O510 Tb467 2.552 . S
O510 C523 1.243 . S
O511 Tb467 2.413 . S
O511 C531 1.256 . S
C512 O501 1.283 . S
C512 O504 1.243 . S
C513 C515 1.382 . S
C513 C517 1.393 . S
C513 C520 1.500 . S
C514 C515 1.400 . S
C514 C516 1.384 . S
C515 C513 1.382 . S
C515 C514 1.400 . S
C515 H532 0.930 . S
C516 C514 1.384 . S
C516 C518 1.392 . S
C516 H533 0.931 . S
C517 C513 1.393 . S
C517 C518 1.401 . S
C517 H534 0.930 . S
C518 C516 1.392 . S
C518 C517 1.401 . S
C518 H535 0.930 . S
C519 O502 1.262 . S
C519 O503 1.260 . S
C520 Tb456 2.833 . S
C520 O500 1.251 . S
C520 O505 1.256 . S
C520 C513 1.500 . S
C521 H486 0.929 . S
C521 C499 1.444 . S
C521 C522 1.317 . S
C522 H484 0.930 . S
C522 C490 1.432 . S
C522 C521 1.317 . S
C523 O507 1.283 . S
C523 O510 1.243 . S
C524 C525 1.382 . S
C524 C528 1.393 . S
C524 C531 1.500 . S
C525 C524 1.382 . S
C525 C526 1.400 . S
C525 H536 0.930 . S
C526 C525 1.400 . S
C526 C527 1.384 . S
C527 C526 1.384 . S
C527 C529 1.392 . S
C527 H537 0.931 . S
C528 C524 1.393 . S
C528 C529 1.401 . S
C528 H538 0.930 . S
C529 C527 1.392 . S
C529 C528 1.401 . S
C529 H539 0.930 . S
C530 O508 1.262 . S
C530 O509 1.260 . S
C531 Tb467 2.833 . S
C531 O506 1.251 . S
C531 O511 1.256 . S
C531 C524 1.500 . S
H532 C515 0.930 . S
H533 C516 0.931 . S
H534 C517 0.930 . S
H535 C518 0.930 . S
H536 C525 0.930 . S
H537 C527 0.931 . S
H538 C528 0.930 . S
H539 C529 0.930 . S
Tb540 N571 2.660 . S
Tb540 N578 2.600 . S
Tb540 O584 2.546 . S
Tb540 O585 2.610 . S
Tb540 O587 2.320 . S
Tb540 O588 2.552 . S
Tb540 O589 2.413 . S
Tb540 O591 2.373 . S
Tb540 O592 2.421 1_455 S
Tb540 C604 2.833 . S
C541 C544 1.432 . S
C541 C545 1.414 . S
C541 N548 1.359 . S
C542 C544 1.417 . S
C542 C546 1.432 . S
C542 C554 1.410 . S
C543 C545 1.444 . S
C543 C546 1.317 . S
C543 H566 0.929 . S
C544 C541 1.432 . S
C544 C542 1.417 . S
C544 N552 1.360 . S
C545 C541 1.414 . S
C545 C543 1.444 . S
C545 C550 1.385 . S
C546 C542 1.432 . S
C546 C543 1.317 . S
C546 H558 0.930 . S
C547 C549 1.392 . S
C547 C550 1.370 1_455 S
C547 H559 0.931 . S
N548 C541 1.359 . S
N548 C549 1.327 1_655 S
N548 Tb551 2.600 . S
C549 C547 1.392 . S
C549 N548 1.327 1_455 S
C549 H556 0.930 . S
C550 C545 1.385 . S
C550 C547 1.370 1_655 S
C550 H569 0.930 . S
Tb551 N548 2.600 . S
Tb551 N552 2.660 . S
Tb551 O585 2.362 1_655 S
Tb551 O586 2.421 1_655 S
Tb551 O590 2.546 . S
Tb551 O591 2.603 1_655 S
Tb551 O593 2.320 . S
Tb551 O594 2.552 . S
Tb551 O595 2.413 . S
Tb551 C615 2.833 . S
N552 C544 1.360 . S
N552 Tb551 2.660 . S
N552 C553 1.305 . S
C553 N552 1.305 . S
C553 C555 1.407 . S
C553 H560 0.930 . S
C554 C542 1.410 . S
C554 C555 1.345 . S
C554 H562 0.930 . S
C555 C553 1.407 . S
C555 C554 1.345 . S
C555 H557 0.930 . S
H556 C549 0.930 . S
H557 C555 0.930 . S
H558 C546 0.930 . S
H559 C547 0.931 . S
H560 C553 0.930 . S
H561 C575 0.930 . S
H562 C554 0.930 . S
H563 C581 0.930 1_655 S
H564 C572 0.930 . S
H565 C579 0.921 1_655 S
H566 C543 0.929 . S
H567 C573 0.930 . S
H568 C606 0.930 . S
H569 C550 0.930 . S
H570 C605 0.929 . S
N571 Tb540 2.660 . S
N571 C572 1.305 . S
N571 C576 1.360 . S
C572 H564 0.930 . S
C572 N571 1.305 . S
C572 C575 1.407 . S
C573 H567 0.930 . S
C573 C574 1.410 . S
C573 C575 1.345 . S
C574 C573 1.410 . S
C574 C576 1.417 . S
C574 C606 1.432 . S
C575 H561 0.930 . S
C575 C572 1.407 . S
C575 C573 1.345 . S
C576 N571 1.360 . S
C576 C574 1.417 . S
C576 C580 1.432 . S
H577 C582 0.930 . S
N578 Tb540 2.600 . S
N578 C580 1.359 . S
N578 C581 1.327 . S
C579 H565 0.921 1_455 S
C579 C581 1.394 . S
C579 C582 1.378 . S
C580 C576 1.432 . S
C580 N578 1.359 . S
C580 C583 1.414 . S
C581 H563 0.930 1_455 S
C581 N578 1.327 . S
C581 C579 1.394 . S
C582 H577 0.930 . S
C582 C579 1.378 . S
C582 C583 1.385 . S
C583 C580 1.414 . S
C583 C582 1.385 . S
C583 C605 1.444 . S
O584 Tb540 2.546 . S
O584 C604 1.251 . S
O585 Tb540 2.610 . S
O585 Tb551 2.362 1_455 S
O585 C596 1.283 . S
O586 Tb551 2.421 1_455 S
O586 C603 1.262 . S
O587 Tb540 2.320 . S
O587 C603 1.260 . S
O588 Tb540 2.552 . S
O588 C596 1.243 . S
O589 Tb540 2.413 . S
O589 C604 1.256 . S
O590 Tb551 2.546 . S
O590 C615 1.251 . S
O591 Tb540 2.373 . S
O591 Tb551 2.603 1_455 S
O591 C607 1.275 1_455 S
O592 Tb540 2.421 1_655 S
O592 C614 1.262 . S
O593 Tb551 2.320 . S
O593 C614 1.260 . S
O594 Tb551 2.552 . S
O594 C607 1.243 . S
O595 Tb551 2.413 . S
O595 C615 1.256 . S
C596 O585 1.283 . S
C596 O588 1.243 . S
C597 C599 1.382 . S
C597 C601 1.393 . S
C597 C604 1.500 . S
C598 C599 1.400 . S
C598 C600 1.384 . S
C599 C597 1.382 . S
C599 C598 1.400 . S
C599 H616 0.930 . S
C600 C598 1.384 . S
C600 C602 1.392 . S
C600 H617 0.931 . S
C601 C597 1.393 . S
C601 C602 1.401 . S
C601 H618 0.930 . S
C602 C600 1.392 . S
C602 C601 1.401 . S
C602 H619 0.930 . S
C603 O586 1.262 . S
C603 O587 1.260 . S
C604 Tb540 2.833 . S
C604 O584 1.251 . S
C604 O589 1.256 . S
C604 C597 1.500 . S
C605 H570 0.929 . S
C605 C583 1.444 . S
C605 C606 1.317 . S
C606 H568 0.930 . S
C606 C574 1.432 . S
C606 C605 1.317 . S
C607 O591 1.275 1_655 S
C607 O594 1.243 . S
C608 C609 1.382 . S
C608 C612 1.393 . S
C608 C615 1.500 . S
C609 C608 1.382 . S
C609 C610 1.400 . S
C609 H620 0.930 . S
C610 C609 1.400 . S
C610 C611 1.384 . S
C611 C610 1.384 . S
C611 C613 1.392 . S
C611 H621 0.931 . S
C612 C608 1.393 . S
C612 C613 1.401 . S
C612 H622 0.930 . S
C613 C611 1.392 . S
C613 C612 1.401 . S
C613 H623 0.930 . S
C614 O592 1.262 . S
C614 O593 1.260 . S
C615 Tb551 2.833 . S
C615 O590 1.251 . S
C615 O595 1.256 . S
C615 C608 1.500 . S
H616 C599 0.930 . S
H617 C600 0.931 . S
H618 C601 0.930 . S
H619 C602 0.930 . S
H620 C609 0.930 . S
H621 C611 0.931 . S
H622 C612 0.930 . S
H623 C613 0.930 . S
C624 C625 1.391 . S
C624 C626 1.394 . S
C624 H640 0.931 . S
C625 C624 1.391 . S
C625 C629 1.376 . S
C626 C624 1.394 . S
C626 C627 1.369 . S
C626 C630 1.531 . S
C627 C626 1.369 . S
C627 C628 1.410 . S
C627 C635 1.503 . S
C628 C627 1.410 . S
C628 C629 1.392 . S
C628 C631 1.511 . S
C629 C625 1.376 . S
C629 C628 1.392 . S
C629 H641 0.929 . S
C630 C626 1.531 . S
C630 H642 0.960 . S
C630 H643 0.962 . S
C630 H644 0.960 . S
C631 C628 1.511 . S
C631 H645 0.982 . S
C631 H646 0.961 . S
C631 H647 0.961 . S
C632 C633 1.370 . S
C632 C634 1.363 . S
C632 H648 0.931 . S
C633 C632 1.370 . S
C633 C637 1.408 . S
C634 C632 1.363 . S
C634 C635 1.370 . S
C634 C638 1.524 . S
C635 C627 1.503 . S
C635 C634 1.370 . S
C635 C636 1.403 . S
C636 C635 1.403 . S
C636 C637 1.404 . S
C636 C639 1.539 . S
C637 C633 1.408 . S
C637 C636 1.404 . S
C637 H649 0.930 . S
C638 C634 1.524 . S
C638 H650 0.956 . S
C638 H651 0.961 . S
C638 H652 0.961 . S
C639 C636 1.539 . S
C639 H653 0.958 . S
C639 H654 0.961 . S
C639 H655 0.960 . S
H640 C624 0.931 . S
H641 C629 0.929 . S
H642 C630 0.960 . S
H643 C630 0.962 . S
H644 C630 0.960 . S
H645 C631 0.982 . S
H646 C631 0.961 . S
H647 C631 0.961 . S
H648 C632 0.931 . S
H649 C637 0.930 . S
H650 C638 0.956 . S
H651 C638 0.961 . S
H652 C638 0.961 . S
H653 C639 0.958 . S
H654 C639 0.961 . S
H655 C639 0.960 . S
C656 C657 1.391 . S
C656 C658 1.394 . S
C656 H672 0.931 . S
C657 C656 1.391 . S
C657 C661 1.376 . S
C658 C656 1.394 . S
C658 C659 1.369 . S
C658 C662 1.531 . S
C659 C658 1.369 . S
C659 C660 1.410 . S
C659 C667 1.503 . S
C660 C659 1.410 . S
C660 C661 1.392 . S
C660 C663 1.511 . S
C661 C657 1.376 . S
C661 C660 1.392 . S
C661 H673 0.929 . S
C662 C658 1.531 . S
C662 H674 0.960 . S
C662 H675 0.962 . S
C662 H676 0.960 . S
C663 C660 1.511 . S
C663 H677 0.961 . S
C663 H678 0.961 . S
C663 H679 0.961 . S
C664 C665 1.370 . S
C664 C666 1.363 . S
C664 H680 0.931 . S
C665 C664 1.370 . S
C665 C669 1.408 . S
C666 C664 1.363 . S
C666 C667 1.370 . S
C666 C670 1.524 . S
C667 C659 1.503 . S
C667 C666 1.370 . S
C667 C668 1.403 . S
C668 C667 1.403 . S
C668 C669 1.404 . S
C668 C671 1.539 . S
C669 C665 1.408 . S
C669 C668 1.404 . S
C669 H681 0.930 . S
C670 C666 1.524 . S
C670 H682 0.956 . S
C670 H683 0.961 . S
C670 H684 0.961 . S
C671 C668 1.539 . S
C671 H685 0.958 . S
C671 H686 0.961 . S
C671 H687 0.960 . S
H672 C656 0.931 . S
H673 C661 0.929 . S
H674 C662 0.960 . S
H675 C662 0.962 . S
H676 C662 0.960 . S
H677 C663 0.961 . S
H678 C663 0.961 . S
H679 C663 0.961 . S
H680 C664 0.931 . S
H681 C669 0.930 . S
H682 C670 0.956 . S
H683 C670 0.961 . S
H684 C670 0.961 . S
H685 C671 0.958 . S
H686 C671 0.961 . S
H687 C671 0.960 . S
C688 C689 1.391 . S
C688 C690 1.394 . S
C688 H704 0.931 . S
C689 C688 1.391 . S
C689 C693 1.376 . S
C690 C688 1.394 . S
C690 C691 1.369 . S
C690 C694 1.531 . S
C691 C690 1.369 . S
C691 C692 1.410 . S
C691 C699 1.503 . S
C692 C691 1.410 . S
C692 C693 1.392 . S
C692 C695 1.511 . S
C693 C689 1.376 . S
C693 C692 1.392 . S
C693 H705 0.929 . S
C694 C690 1.531 . S
C694 H706 0.960 . S
C694 H707 0.962 . S
C694 H708 0.960 . S
C695 C692 1.511 . S
C695 H709 0.961 . S
C695 H710 0.961 . S
C695 H711 0.961 . S
C696 C697 1.370 . S
C696 C698 1.363 . S
C696 H712 0.931 . S
C697 C696 1.370 . S
C697 C701 1.408 . S
C698 C696 1.363 . S
C698 C699 1.370 . S
C698 C702 1.524 . S
C699 C691 1.503 . S
C699 C698 1.370 . S
C699 C700 1.403 . S
C700 C699 1.403 . S
C700 C701 1.404 . S
C700 C703 1.539 . S
C701 C697 1.408 . S
C701 C700 1.404 . S
C701 H713 0.930 . S
C702 C698 1.524 . S
C702 H714 0.956 . S
C702 H715 0.961 . S
C702 H716 0.961 . S
C703 C700 1.539 . S
C703 H717 0.958 . S
C703 H718 0.961 . S
C703 H719 0.960 . S
H704 C688 0.931 . S
H705 C693 0.929 . S
H706 C694 0.960 . S
H707 C694 0.962 . S
H708 C694 0.960 . S
H709 C695 0.961 . S
H710 C695 0.961 . S
H711 C695 0.961 . S
H712 C696 0.931 . S
H713 C701 0.930 . S
H714 C702 0.956 . S
H715 C702 0.961 . S
H716 C702 0.961 . S
H717 C703 0.958 . S
H718 C703 0.961 . S
H719 C703 0.960 . S
C720 C721 1.391 . S
C720 C722 1.394 . S
C720 H736 0.931 . S
C721 C720 1.391 . S
C721 C725 1.376 . S
C722 C720 1.394 . S
C722 C723 1.369 . S
C722 C726 1.531 . S
C723 C722 1.369 . S
C723 C724 1.410 . S
C723 C731 1.503 . S
C724 C723 1.410 . S
C724 C725 1.392 . S
C724 C727 1.511 . S
C725 C721 1.376 . S
C725 C724 1.392 . S
C725 H737 0.929 . S
C726 C722 1.531 . S
C726 H738 0.960 . S
C726 H739 0.962 . S
C726 H740 0.960 . S
C727 C724 1.511 . S
C727 H741 0.961 . S
C727 H742 0.961 . S
C727 H743 0.961 . S
C728 C729 1.370 . S
C728 C730 1.363 . S
C728 H744 0.931 . S
C729 C728 1.370 . S
C729 C733 1.408 . S
C730 C728 1.363 . S
C730 C731 1.370 . S
C730 C734 1.524 . S
C731 C723 1.503 . S
C731 C730 1.370 . S
C731 C732 1.403 . S
C732 C731 1.403 . S
C732 C733 1.404 . S
C732 C735 1.539 1_455 S
C733 C729 1.408 . S
C733 C732 1.404 . S
C733 H745 0.930 1_455 S
C734 C730 1.524 . S
C734 H746 0.956 . S
C734 H747 0.961 . S
C734 H748 0.961 . S
C735 C732 1.539 1_655 S
C735 H749 0.958 . S
C735 H750 0.961 . S
C735 H751 0.960 1_655 S
H736 C720 0.931 . S
H737 C725 0.929 . S
H738 C726 0.960 . S
H739 C726 0.962 . S
H740 C726 0.960 . S
H741 C727 0.961 . S
H742 C727 0.961 . S
H743 C727 0.961 . S
H744 C728 0.931 . S
H745 C733 0.930 1_655 S
H746 C734 0.956 . S
H747 C734 0.961 . S
H748 C734 0.961 . S
H749 C735 0.958 . S
H750 C735 0.961 . S
H751 C735 0.960 1_455 S
C752 C753 1.391 . S
C752 C754 1.394 1_554 S
C752 H768 0.931 . S
C753 C752 1.391 . S
C753 C757 1.376 . S
C754 C752 1.394 1_556 S
C754 C755 1.369 . S
C754 C758 1.531 . S
C755 C754 1.369 . S
C755 C756 1.410 . S
C755 C763 1.503 . S
C756 C755 1.410 . S
C756 C757 1.392 1_556 S
C756 C759 1.511 . S
C757 C753 1.376 . S
C757 C756 1.392 1_554 S
C757 H769 0.929 . S
C758 C754 1.531 . S
C758 H770 0.960 . S
C758 H771 0.962 . S
C758 H772 0.960 . S
C759 C756 1.511 . S
C759 H773 0.961 1_565 S
C759 H774 0.986 . S
C759 H775 0.961 . S
C760 C761 1.370 . S
C760 C762 1.363 . S
C760 H776 0.931 1_565 S
C761 C760 1.370 . S
C761 C765 1.408 . S
C762 C760 1.363 . S
C762 C763 1.370 . S
C762 C766 1.524 . S
C763 C755 1.503 . S
C763 C762 1.370 . S
C763 C764 1.403 . S
C764 C763 1.403 . S
C764 C765 1.404 . S
C764 C767 1.539 . S
C765 C761 1.408 . S
C765 C764 1.404 . S
C765 H777 0.930 . S
C766 C762 1.524 . S
C766 H778 0.956 . S
C766 H779 0.961 1_565 S
C766 H780 0.961 1_565 S
C767 C764 1.539 . S
C767 H781 0.958 . S
C767 H782 0.961 . S
C767 H783 0.960 . S
H768 C752 0.931 . S
H769 C757 0.929 . S
H770 C758 0.960 . S
H771 C758 0.962 . S
H772 C758 0.960 . S
H773 C759 0.961 1_545 S
H774 C759 0.986 . S
H775 C759 0.961 . S
H776 C760 0.931 1_545 S
H777 C765 0.930 . S
H778 C766 0.956 . S
H779 C766 0.961 1_545 S
H780 C766 0.961 1_545 S
H781 C767 0.958 . S
H782 C767 0.961 . S
H783 C767 0.960 . S
C784 C785 1.391 . S
C784 C786 1.394 1_554 S
C784 H800 0.931 . S
C785 C784 1.391 . S
C785 C789 1.376 . S
C786 C784 1.394 1_556 S
C786 C787 1.369 . S
C786 C790 1.531 . S
C787 C786 1.369 . S
C787 C788 1.410 1_556 S
C787 C795 1.503 . S
C788 C787 1.410 1_554 S
C788 C789 1.392 . S
C788 C791 1.511 . S
C789 C785 1.376 . S
C789 C788 1.392 . S
C789 H801 0.929 . S
C790 C786 1.531 . S
C790 H802 0.960 . S
C790 H803 0.962 . S
C790 H804 0.960 . S
C791 C788 1.511 . S
C791 H805 0.961 . S
C791 H806 0.961 1_554 S
C791 H807 0.961 . S
C792 C793 1.370 . S
C792 C794 1.363 . S
C792 H808 0.931 . S
C793 C792 1.370 . S
C793 C797 1.408 . S
C794 C792 1.363 . S
C794 C795 1.370 . S
C794 C798 1.524 . S
C795 C787 1.503 . S
C795 C794 1.370 . S
C795 C796 1.403 . S
C796 C795 1.403 . S
C796 C797 1.404 . S
C796 C799 1.539 . S
C797 C793 1.408 . S
C797 C796 1.404 . S
C797 H809 0.930 . S
C798 C794 1.524 . S
C798 H810 0.956 . S
C798 H811 0.961 . S
C798 H812 0.961 . S
C799 C796 1.539 . S
C799 H813 0.958 . S
C799 H814 0.961 . S
C799 H815 0.960 . S
H800 C784 0.931 . S
H801 C789 0.929 . S
H802 C790 0.960 . S
H803 C790 0.962 . S
H804 C790 0.960 . S
H805 C791 0.961 . S
H806 C791 0.961 1_556 S
H807 C791 0.961 . S
H808 C792 0.931 . S
H809 C797 0.930 . S
H810 C798 0.956 . S
H811 C798 0.961 . S
H812 C798 0.961 . S
H813 C799 0.958 . S
H814 C799 0.961 . S
H815 C799 0.960 . S
C816 C817 1.391 . S
C816 C818 1.394 1_554 S
C816 H832 0.931 . S
C817 C816 1.391 . S
C817 C821 1.376 . S
C818 C816 1.394 1_556 S
C818 C819 1.369 . S
C818 C822 1.531 . S
C819 C818 1.369 . S
C819 C820 1.410 1_556 S
C819 C827 1.503 . S
C820 C819 1.410 1_554 S
C820 C821 1.392 . S
C820 C823 1.511 . S
C821 C817 1.376 . S
C821 C820 1.392 . S
C821 H833 0.929 . S
C822 C818 1.531 . S
C822 H834 0.960 . S
C822 H835 0.962 . S
C822 H836 0.960 . S
C823 C820 1.511 . S
C823 H837 0.961 . S
C823 H838 0.961 1_554 S
C823 H839 0.961 . S
C824 C825 1.370 . S
C824 C826 1.363 . S
C824 H840 0.931 . S
C825 C824 1.370 . S
C825 C829 1.408 . S
C826 C824 1.363 . S
C826 C827 1.370 . S
C826 C830 1.524 . S
C827 C819 1.503 . S
C827 C826 1.370 . S
C827 C828 1.403 . S
C828 C827 1.403 . S
C828 C829 1.404 . S
C828 C831 1.539 . S
C829 C825 1.408 . S
C829 C828 1.404 . S
C829 H841 0.930 . S
C830 C826 1.524 . S
C830 H842 0.956 . S
C830 H843 0.961 . S
C830 H844 0.961 . S
C831 C828 1.539 . S
C831 H845 0.958 . S
C831 H846 0.961 . S
C831 H847 0.960 . S
H832 C816 0.931 . S
H833 C821 0.929 . S
H834 C822 0.960 . S
H835 C822 0.962 . S
H836 C822 0.960 . S
H837 C823 0.961 . S
H838 C823 0.961 1_556 S
H839 C823 0.961 . S
H840 C824 0.931 . S
H841 C829 0.930 . S
H842 C830 0.956 . S
H843 C830 0.961 . S
H844 C830 0.961 . S
H845 C831 0.958 . S
H846 C831 0.961 . S
H847 C831 0.960 . S
C848 C849 1.391 . S
C848 C850 1.394 1_554 S
C848 H864 0.931 . S
C849 C848 1.391 . S
C849 C853 1.376 . S
C850 C848 1.394 1_556 S
C850 C851 1.369 . S
C850 C854 1.531 . S
C851 C850 1.369 . S
C851 C852 1.410 1_556 S
C851 C859 1.503 . S
C852 C851 1.410 1_554 S
C852 C853 1.392 . S
C852 C855 1.511 . S
C853 C849 1.376 . S
C853 C852 1.392 . S
C853 H865 0.929 . S
C854 C850 1.531 . S
C854 H866 0.960 . S
C854 H867 0.962 . S
C854 H868 0.960 . S
C855 C852 1.511 . S
C855 H869 0.961 1_655 S
C855 H870 0.961 1_554 S
C855 H871 0.961 1_654 S
C856 C857 1.370 . S
C856 C858 1.363 . S
C856 H872 0.931 . S
C857 C856 1.370 . S
C857 C861 1.408 . S
C858 C856 1.363 . S
C858 C859 1.370 . S
C858 C862 1.524 . S
C859 C851 1.503 . S
C859 C858 1.370 . S
C859 C860 1.403 . S
C860 C859 1.403 . S
C860 C861 1.404 . S
C860 C863 1.539 . S
C861 C857 1.408 . S
C861 C860 1.404 . S
C861 H873 0.930 . S
C862 C858 1.524 . S
C862 H874 0.956 . S
C862 H875 0.961 . S
C862 H876 0.961 . S
C863 C860 1.539 . S
C863 H877 0.958 . S
C863 H878 0.961 1_655 S
C863 H879 0.960 . S
H864 C848 0.931 . S
H865 C853 0.929 . S
H866 C854 0.960 . S
H867 C854 0.962 . S
H868 C854 0.960 . S
H869 C855 0.961 1_455 S
H870 C855 0.961 1_556 S
H871 C855 0.961 1_456 S
H872 C856 0.931 . S
H873 C861 0.930 . S
H874 C862 0.956 . S
H875 C862 0.961 . S
H876 C862 0.961 . S
H877 C863 0.958 . S
H878 C863 0.961 1_455 S
H879 C863 0.960 . S
C880 C881 1.391 . S
C880 C882 1.394 . S
C880 H896 0.931 . S
C881 C880 1.391 . S
C881 C885 1.376 . S
C882 C880 1.394 . S
C882 C883 1.369 . S
C882 C886 1.531 . S
C883 C882 1.369 . S
C883 C884 1.410 . S
C883 C891 1.503 . S
C884 C883 1.410 . S
C884 C885 1.392 . S
C884 C887 1.511 . S
C885 C881 1.376 . S
C885 C884 1.392 . S
C885 H897 0.929 . S
C886 C882 1.531 . S
C886 H898 0.960 . S
C886 H899 0.962 . S
C886 H900 0.960 . S
C887 C884 1.511 . S
C887 H901 0.961 . S
C887 H902 0.961 . S
C887 H903 0.961 . S
C888 C889 1.370 . S
C888 C890 1.363 . S
C888 H904 0.931 . S
C889 C888 1.370 . S
C889 C893 1.408 1_455 S
C890 C888 1.363 . S
C890 C891 1.370 . S
C890 C894 1.524 . S
C891 C883 1.503 . S
C891 C890 1.370 . S
C891 C892 1.403 . S
C892 C891 1.403 . S
C892 C893 1.404 1_455 S
C892 C895 1.539 . S
C893 C889 1.408 1_655 S
C893 C892 1.404 1_655 S
C893 H905 0.930 . S
C894 C890 1.524 . S
C894 H906 0.956 . S
C894 H907 0.961 . S
C894 H908 0.961 . S
C895 C892 1.539 . S
C895 H909 0.958 . S
C895 H910 0.961 1_455 S
C895 H911 0.960 . S
H896 C880 0.931 . S
H897 C885 0.929 . S
H898 C886 0.960 . S
H899 C886 0.962 . S
H900 C886 0.960 . S
H901 C887 0.961 . S
H902 C887 0.961 . S
H903 C887 0.961 . S
H904 C888 0.931 . S
H905 C893 0.930 . S
H906 C894 0.956 . S
H907 C894 0.961 . S
H908 C894 0.961 . S
H909 C895 0.958 . S
H910 C895 0.961 1_655 S
H911 C895 0.960 . S
C912 C913 1.391 . S
C912 C914 1.394 . S
C912 H928 0.931 . S
C913 C912 1.391 . S
C913 C917 1.376 . S
C914 C912 1.394 . S
C914 C915 1.369 . S
C914 C918 1.531 . S
C915 C914 1.369 . S
C915 C916 1.410 . S
C915 C923 1.503 . S
C916 C915 1.410 . S
C916 C917 1.392 . S
C916 C919 1.511 . S
C917 C913 1.376 . S
C917 C916 1.392 . S
C917 H929 0.929 . S
C918 C914 1.531 . S
C918 H930 0.960 . S
C918 H931 0.962 . S
C918 H932 0.960 . S
C919 C916 1.511 . S
C919 H933 0.961 . S
C919 H934 0.961 . S
C919 H935 0.961 1_545 S
C920 C921 1.386 . S
C920 C922 1.363 . S
C920 H936 0.931 . S
C921 C920 1.386 . S
C921 C925 1.408 . S
C922 C920 1.363 . S
C922 C923 1.370 . S
C922 C926 1.524 . S
C923 C915 1.503 . S
C923 C922 1.370 . S
C923 C924 1.403 . S
C924 C923 1.403 . S
C924 C925 1.420 . S
C924 C927 1.539 . S
C925 C921 1.408 . S
C925 C924 1.420 . S
C925 H937 0.915 1_545 S
C926 C922 1.524 . S
C926 H938 0.956 . S
C926 H939 0.961 . S
C926 H940 0.961 . S
C927 C924 1.539 . S
C927 H941 0.958 . S
C927 H942 0.961 1_545 S
C927 H943 0.960 . S
H928 C912 0.931 . S
H929 C917 0.929 . S
H930 C918 0.960 . S
H931 C918 0.962 . S
H932 C918 0.960 . S
H933 C919 0.961 . S
H934 C919 0.961 . S
H935 C919 0.961 1_565 S
H936 C920 0.931 . S
H937 C925 0.915 1_565 S
H938 C926 0.956 . S
H939 C926 0.961 . S
H940 C926 0.961 . S
H941 C927 0.958 . S
H942 C927 0.961 1_565 S
H943 C927 0.960 . S
C944 C945 1.391 . S
C944 C946 1.394 . S
C944 H960 0.931 . S
C945 C944 1.391 . S
C945 C949 1.376 . S
C946 C944 1.394 . S
C946 C947 1.369 . S
C946 C950 1.531 . S
C947 C946 1.369 . S
C947 C948 1.410 . S
C947 C955 1.503 . S
C948 C947 1.410 . S
C948 C949 1.392 . S
C948 C951 1.511 . S
C949 C945 1.376 . S
C949 C948 1.392 . S
C949 H961 0.929 . S
C950 C946 1.531 . S
C950 H962 0.960 . S
C950 H963 0.962 . S
C950 H964 0.960 . S
C951 C948 1.511 . S
C951 H965 0.961 . S
C951 H966 0.961 . S
C951 H967 0.961 . S
C952 C953 1.370 . S
C952 C954 1.363 . S
C952 H968 0.931 . S
C953 C952 1.370 . S
C953 C957 1.408 . S
C954 C952 1.363 . S
C954 C955 1.370 . S
C954 C958 1.524 . S
C955 C947 1.503 . S
C955 C954 1.370 . S
C955 C956 1.403 . S
C956 C955 1.403 . S
C956 C957 1.404 . S
C956 C959 1.539 . S
C957 C953 1.408 . S
C957 C956 1.404 . S
C957 H969 0.930 . S
C958 C954 1.524 . S
C958 H970 0.956 . S
C958 H971 0.961 . S
C958 H972 0.961 . S
C959 C956 1.539 . S
C959 H973 0.958 . S
C959 H974 0.961 . S
C959 H975 0.960 . S
H960 C944 0.931 . S
H961 C949 0.929 . S
H962 C950 0.960 . S
H963 C950 0.962 . S
H964 C950 0.960 . S
H965 C951 0.961 . S
H966 C951 0.961 . S
H967 C951 0.961 . S
H968 C952 0.931 . S
H969 C957 0.930 . S
H970 C958 0.956 . S
H971 C958 0.961 . S
H972 C958 0.961 . S
H973 C959 0.958 . S
H974 C959 0.961 . S
H975 C959 0.960 . S
C976 C977 1.391 . S
C976 C978 1.394 . S
C976 H992 0.931 . S
C977 C976 1.391 . S
C977 C981 1.376 . S
C978 C976 1.394 . S
C978 C979 1.369 . S
C978 C982 1.531 . S
C979 C978 1.369 . S
C979 C980 1.410 . S
C979 C987 1.503 . S
C980 C979 1.410 . S
C980 C981 1.392 . S
C980 C983 1.511 . S
C981 C977 1.376 . S
C981 C980 1.392 . S
C981 H993 0.929 . S
C982 C978 1.531 . S
C982 H994 0.960 . S
C982 H995 0.962 . S
C982 H996 0.960 . S
C983 C980 1.511 . S
C983 H997 0.961 . S
C983 H998 0.961 . S
C983 H999 0.961 . S
C984 C985 1.370 . S
C984 C986 1.363 . S
C984 H1000 0.931 . S
C985 C984 1.370 . S
C985 C989 1.408 . S
C986 C984 1.363 . S
C986 C987 1.370 . S
C986 C990 1.524 . S
C987 C979 1.503 . S
C987 C986 1.370 . S
C987 C988 1.403 . S
C988 C987 1.403 . S
C988 C989 1.404 . S
C988 C991 1.539 . S
C989 C985 1.408 . S
C989 C988 1.404 . S
C989 H1001 0.930 . S
C990 C986 1.524 . S
C990 H1002 0.956 . S
C990 H1003 0.961 . S
C990 H1004 0.961 . S
C991 C988 1.539 . S
C991 H1005 0.958 . S
C991 H1006 0.961 . S
C991 H1007 0.960 . S
H992 C976 0.931 . S
H993 C981 0.929 . S
H994 C982 0.960 . S
H995 C982 0.962 . S
H996 C982 0.960 . S
H997 C983 0.961 . S
H998 C983 0.961 . S
H999 C983 0.961 . S
H1000 C984 0.931 . S
H1001 C989 0.930 . S
H1002 C990 0.956 . S
H1003 C990 0.961 . S
H1004 C990 0.961 . S
H1005 C991 0.958 . S
H1006 C991 0.961 . S
H1007 C991 0.960 . S
C1008 C1009 1.391 1_554 S
C1008 C1010 1.394 . S
C1008 H1024 0.931 . S
C1009 C1008 1.391 1_556 S
C1009 C1013 1.376 . S
C1010 C1008 1.394 . S
C1010 C1011 1.369 1_554 S
C1010 C1014 1.531 . S
C1011 C1010 1.369 1_556 S
C1011 C1012 1.410 . S
C1011 C1019 1.503 . S
C1012 C1011 1.410 . S
C1012 C1013 1.392 . S
C1012 C1015 1.511 . S
C1013 C1009 1.376 . S
C1013 C1012 1.392 . S
C1013 H1025 0.929 . S
C1014 C1010 1.531 . S
C1014 H1026 0.960 . S
C1014 H1027 0.962 . S
C1014 H1028 0.960 . S
C1015 C1012 1.511 . S
C1015 H1029 0.961 . S
C1015 H1030 0.961 . S
C1015 H1031 0.961 . S
C1016 C1017 1.370 1_655 S
C1016 C1018 1.363 . S
C1016 H1032 0.931 . S
C1017 C1016 1.370 1_455 S
C1017 C1021 1.408 . S
C1018 C1016 1.363 . S
C1018 C1019 1.370 . S
C1018 C1022 1.524 . S
C1019 C1011 1.503 . S
C1019 C1018 1.370 . S
C1019 C1020 1.403 1_655 S
C1020 C1019 1.403 1_455 S
C1020 C1021 1.404 . S
C1020 C1023 1.539 . S
C1021 C1017 1.408 . S
C1021 C1020 1.404 . S
C1021 H1033 0.930 . S
C1022 C1018 1.524 . S
C1022 H1034 0.956 . S
C1022 H1035 0.961 . S
C1022 H1036 0.961 . S
C1023 C1020 1.539 . S
C1023 H1037 0.958 . S
C1023 H1038 0.961 . S
C1023 H1039 0.960 . S
H1024 C1008 0.931 . S
H1025 C1013 0.929 . S
H1026 C1014 0.960 . S
H1027 C1014 0.962 . S
H1028 C1014 0.960 . S
H1029 C1015 0.961 . S
H1030 C1015 0.961 . S
H1031 C1015 0.961 . S
H1032 C1016 0.931 . S
H1033 C1021 0.930 . S
H1034 C1022 0.956 . S
H1035 C1022 0.961 . S
H1036 C1022 0.961 . S
H1037 C1023 0.958 . S
H1038 C1023 0.961 . S
H1039 C1023 0.960 . S
C1040 C1041 1.391 . S
C1040 C1042 1.394 . S
C1040 H1056 0.931 . S
C1041 C1040 1.391 . S
C1041 C1045 1.376 1_556 S
C1042 C1040 1.394 . S
C1042 C1043 1.369 . S
C1042 C1046 1.531 . S
C1043 C1042 1.369 . S
C1043 C1044 1.400 1_556 S
C1043 C1051 1.503 . S
C1044 C1043 1.400 1_554 S
C1044 C1045 1.397 . S
C1044 C1047 1.517 . S
C1045 C1041 1.376 1_554 S
C1045 C1044 1.397 . S
C1045 H1057 0.929 . S
C1046 C1042 1.531 . S
C1046 H1058 0.960 . S
C1046 H1059 0.962 . S
C1046 H1060 0.960 . S
C1047 C1044 1.517 . S
C1047 H1061 0.961 . S
C1047 H1062 0.961 . S
C1047 H1063 0.961 . S
C1048 C1049 1.370 . S
C1048 C1050 1.363 . S
C1048 H1064 0.931 . S
C1049 C1048 1.370 . S
C1049 C1053 1.408 1_545 S
C1050 C1048 1.363 . S
C1050 C1051 1.370 1_545 S
C1050 C1054 1.524 . S
C1051 C1043 1.503 . S
C1051 C1050 1.370 1_565 S
C1051 C1052 1.403 . S
C1052 C1051 1.403 . S
C1052 C1053 1.404 . S
C1052 C1055 1.539 . S
C1053 C1049 1.408 1_565 S
C1053 C1052 1.404 . S
C1053 H1065 0.930 . S
C1054 C1050 1.524 . S
C1054 H1066 0.956 . S
C1054 H1067 0.961 . S
C1054 H1068 0.961 . S
C1055 C1052 1.539 . S
C1055 H1069 0.958 . S
C1055 H1070 0.961 . S
C1055 H1071 0.960 . S
H1056 C1040 0.931 . S
H1057 C1045 0.929 . S
H1058 C1046 0.960 . S
H1059 C1046 0.962 . S
H1060 C1046 0.960 . S
H1061 C1047 0.961 . S
H1062 C1047 0.961 . S
H1063 C1047 0.961 . S
H1064 C1048 0.931 . S
H1065 C1053 0.930 . S
H1066 C1054 0.956 . S
H1067 C1054 0.961 . S
H1068 C1054 0.961 . S
H1069 C1055 0.958 . S
H1070 C1055 0.961 . S
H1071 C1055 0.960 . S
C1072 C1073 1.391 . S
C1072 C1074 1.394 . S
C1072 H1088 0.931 . S
C1073 C1072 1.391 . S
C1073 C1077 1.376 . S
C1074 C1072 1.394 . S
C1074 C1075 1.369 . S
C1074 C1078 1.531 . S
C1075 C1074 1.369 . S
C1075 C1076 1.410 . S
C1075 C1083 1.503 . S
C1076 C1075 1.410 . S
C1076 C1077 1.392 . S
C1076 C1079 1.511 . S
C1077 C1073 1.376 . S
C1077 C1076 1.392 . S
C1077 H1089 0.929 . S
C1078 C1074 1.531 . S
C1078 H1090 0.960 . S
C1078 H1091 0.962 . S
C1078 H1092 0.960 . S
C1079 C1076 1.511 . S
C1079 H1093 0.961 . S
C1079 H1094 0.961 . S
C1079 H1095 0.961 . S
C1080 C1081 1.370 . S
C1080 C1082 1.363 . S
C1080 H1096 0.931 . S
C1081 C1080 1.370 . S
C1081 C1085 1.408 . S
C1082 C1080 1.363 . S
C1082 C1083 1.370 . S
C1082 C1086 1.524 1_556 S
C1083 C1075 1.503 . S
C1083 C1082 1.370 . S
C1083 C1084 1.403 . S
C1084 C1083 1.403 . S
C1084 C1085 1.404 . S
C1084 C1087 1.539 . S
C1085 C1081 1.408 . S
C1085 C1084 1.404 . S
C1085 H1097 0.930 . S
C1086 C1082 1.524 1_554 S
C1086 H1098 0.956 . S
C1086 H1099 0.961 . S
C1086 H1100 0.961 . S
C1087 C1084 1.539 . S
C1087 H1101 0.958 . S
C1087 H1102 0.961 . S
C1087 H1103 0.960 . S
H1088 C1072 0.931 . S
H1089 C1077 0.929 . S
H1090 C1078 0.960 . S
H1091 C1078 0.962 . S
H1092 C1078 0.960 . S
H1093 C1079 0.961 . S
H1094 C1079 0.961 . S
H1095 C1079 0.961 . S
H1096 C1080 0.931 . S
H1097 C1085 0.930 . S
H1098 C1086 0.956 . S
H1099 C1086 0.961 . S
H1100 C1086 0.961 . S
H1101 C1087 0.958 . S
H1102 C1087 0.961 . S
H1103 C1087 0.960 . S
C1104 C1105 1.391 1_554 S
C1104 C1106 1.394 1_554 S
C1104 H1120 0.931 . S
C1105 C1104 1.391 1_556 S
C1105 C1109 1.376 . S
C1106 C1104 1.394 1_556 S
C1106 C1107 1.369 . S
C1106 C1110 1.531 1_556 S
C1107 C1106 1.369 . S
C1107 C1108 1.410 . S
C1107 C1115 1.503 . S
C1108 C1107 1.410 . S
C1108 C1109 1.392 . S
C1108 C1111 1.511 . S
C1109 C1105 1.376 . S
C1109 C1108 1.392 . S
C1109 H1121 0.929 . S
C1110 C1106 1.531 1_554 S
C1110 H1122 0.960 . S
C1110 H1123 0.962 1_554 S
C1110 H1124 0.960 . S
C1111 C1108 1.511 . S
C1111 H1125 0.961 . S
C1111 H1126 0.961 . S
C1111 H1127 0.961 . S
C1112 C1113 1.370 . S
C1112 C1114 1.363 . S
C1112 H1128 0.931 . S
C1113 C1112 1.370 . S
C1113 C1117 1.408 . S
C1114 C1112 1.363 . S
C1114 C1115 1.370 . S
C1114 C1118 1.524 . S
C1115 C1107 1.503 . S
C1115 C1114 1.370 . S
C1115 C1116 1.403 . S
C1116 C1115 1.403 . S
C1116 C1117 1.404 . S
C1116 C1119 1.539 1_556 S
C1117 C1113 1.408 . S
C1117 C1116 1.404 . S
C1117 H1129 0.930 . S
C1118 C1114 1.524 . S
C1118 H1130 0.956 . S
C1118 H1131 0.961 . S
C1118 H1132 0.961 . S
C1119 C1116 1.539 1_554 S
C1119 H1133 0.958 . S
C1119 H1134 0.961 . S
C1119 H1135 0.960 . S
H1120 C1104 0.931 . S
H1121 C1109 0.929 . S
H1122 C1110 0.960 . S
H1123 C1110 0.962 1_556 S
H1124 C1110 0.960 . S
H1125 C1111 0.961 . S
H1126 C1111 0.961 . S
H1127 C1111 0.961 . S
H1128 C1112 0.931 . S
H1129 C1117 0.930 . S
H1130 C1118 0.956 . S
H1131 C1118 0.961 . S
H1132 C1118 0.961 . S
H1133 C1119 0.958 . S
H1134 C1119 0.961 . S
H1135 C1119 0.960 . S
C1136 C1137 1.391 . S
C1136 C1138 1.394 . S
C1136 H1152 0.931 . S
C1137 C1136 1.391 . S
C1137 C1141 1.376 . S
C1138 C1136 1.394 . S
C1138 C1139 1.369 . S
C1138 C1142 1.531 . S
C1139 C1138 1.369 . S
C1139 C1140 1.410 . S
C1139 C1147 1.503 . S
C1140 C1139 1.410 . S
C1140 C1141 1.392 . S
C1140 C1143 1.511 . S
C1141 C1137 1.376 . S
C1141 C1140 1.392 . S
C1141 H1153 0.929 . S
C1142 C1138 1.531 . S
C1142 H1154 0.960 . S
C1142 H1155 0.962 . S
C1142 H1156 0.960 . S
C1143 C1140 1.511 . S
C1143 H1157 0.961 . S
C1143 H1158 0.961 . S
C1143 H1159 0.961 . S
C1144 C1145 1.370 . S
C1144 C1146 1.363 . S
C1144 H1160 0.931 . S
C1145 C1144 1.370 . S
C1145 C1149 1.408 . S
C1146 C1144 1.363 . S
C1146 C1147 1.370 . S
C1146 C1150 1.524 . S
C1147 C1139 1.503 . S
C1147 C1146 1.370 . S
C1147 C1148 1.403 . S
C1148 C1147 1.403 . S
C1148 C1149 1.404 . S
C1148 C1151 1.539 . S
C1149 C1145 1.408 . S
C1149 C1148 1.404 . S
C1149 H1161 0.930 . S
C1150 C1146 1.524 . S
C1150 H1162 0.956 . S
C1150 H1163 0.961 . S
C1150 H1164 0.961 . S
C1151 C1148 1.539 . S
C1151 H1165 0.958 . S
C1151 H1166 0.961 . S
C1151 H1167 0.960 . S
H1152 C1136 0.931 . S
H1153 C1141 0.929 . S
H1154 C1142 0.960 . S
H1155 C1142 0.962 . S
H1156 C1142 0.960 . S
H1157 C1143 0.961 . S
H1158 C1143 0.961 . S
H1159 C1143 0.961 . S
H1160 C1144 0.931 . S
H1161 C1149 0.930 . S
H1162 C1150 0.956 . S
H1163 C1150 0.961 . S
H1164 C1150 0.961 . S
H1165 C1151 0.958 . S
H1166 C1151 0.961 . S
H1167 C1151 0.960 . S
C1168 C1169 1.391 . S
C1168 C1170 1.394 . S
C1168 H1184 0.931 . S
C1169 C1168 1.391 . S
C1169 C1173 1.376 . S
C1170 C1168 1.394 . S
C1170 C1171 1.369 . S
C1170 C1174 1.531 . S
C1171 C1170 1.369 . S
C1171 C1172 1.410 . S
C1171 C1179 1.503 . S
C1172 C1171 1.410 . S
C1172 C1173 1.392 . S
C1172 C1175 1.511 . S
C1173 C1169 1.376 . S
C1173 C1172 1.392 . S
C1173 H1185 0.929 . S
C1174 C1170 1.531 . S
C1174 H1186 0.960 . S
C1174 H1187 0.962 . S
C1174 H1188 0.960 . S
C1175 C1172 1.511 . S
C1175 H1189 0.961 . S
C1175 H1190 0.961 . S
C1175 H1191 0.961 . S
C1176 C1177 1.370 . S
C1176 C1178 1.363 . S
C1176 H1192 0.931 . S
C1177 C1176 1.370 . S
C1177 C1181 1.408 . S
C1178 C1176 1.363 . S
C1178 C1179 1.370 . S
C1178 C1182 1.524 . S
C1179 C1171 1.503 . S
C1179 C1178 1.370 . S
C1179 C1180 1.403 . S
C1180 C1179 1.403 . S
C1180 C1181 1.404 . S
C1180 C1183 1.539 . S
C1181 C1177 1.408 . S
C1181 C1180 1.404 . S
C1181 H1193 0.930 . S
C1182 C1178 1.524 . S
C1182 H1194 0.956 . S
C1182 H1195 0.961 . S
C1182 H1196 0.961 1_545 S
C1183 C1180 1.539 . S
C1183 H1197 0.958 . S
C1183 H1198 0.961 . S
C1183 H1199 0.960 . S
H1184 C1168 0.931 . S
H1185 C1173 0.929 . S
H1186 C1174 0.960 . S
H1187 C1174 0.962 . S
H1188 C1174 0.960 . S
H1189 C1175 0.961 . S
H1190 C1175 0.961 . S
H1191 C1175 0.961 . S
H1192 C1176 0.931 . S
H1193 C1181 0.930 . S
H1194 C1182 0.956 . S
H1195 C1182 0.961 . S
H1196 C1182 0.961 1_565 S
H1197 C1183 0.958 . S
H1198 C1183 0.961 . S
H1199 C1183 0.960 . S
C1200 C1201 1.391 . S
C1200 C1202 1.394 . S
C1200 H1216 0.931 . S
C1201 C1200 1.391 . S
C1201 C1205 1.376 . S
C1202 C1200 1.394 . S
C1202 C1203 1.369 . S
C1202 C1206 1.531 . S
C1203 C1202 1.369 . S
C1203 C1204 1.410 . S
C1203 C1211 1.503 . S
C1204 C1203 1.410 . S
C1204 C1205 1.392 . S
C1204 C1207 1.511 . S
C1205 C1201 1.376 . S
C1205 C1204 1.392 . S
C1205 H1217 0.929 . S
C1206 C1202 1.531 . S
C1206 H1218 0.960 . S
C1206 H1219 0.962 . S
C1206 H1220 0.960 . S
C1207 C1204 1.511 . S
C1207 H1221 0.961 . S
C1207 H1222 0.961 . S
C1207 H1223 0.961 . S
C1208 C1209 1.370 . S
C1208 C1210 1.363 . S
C1208 H1224 0.931 . S
C1209 C1208 1.370 . S
C1209 C1213 1.408 . S
C1210 C1208 1.363 . S
C1210 C1211 1.370 . S
C1210 C1214 1.524 . S
C1211 C1203 1.503 . S
C1211 C1210 1.370 . S
C1211 C1212 1.403 . S
C1212 C1211 1.403 . S
C1212 C1213 1.404 . S
C1212 C1215 1.539 . S
C1213 C1209 1.408 . S
C1213 C1212 1.404 . S
C1213 H1225 0.930 . S
C1214 C1210 1.524 . S
C1214 H1226 0.956 . S
C1214 H1227 0.961 . S
C1214 H1228 0.961 . S
C1215 C1212 1.539 . S
C1215 H1229 0.958 . S
C1215 H1230 0.961 . S
C1215 H1231 0.960 . S
H1216 C1200 0.931 . S
H1217 C1205 0.929 . S
H1218 C1206 0.960 . S
H1219 C1206 0.962 . S
H1220 C1206 0.960 . S
H1221 C1207 0.961 . S
H1222 C1207 0.961 . S
H1223 C1207 0.961 . S
H1224 C1208 0.931 . S
H1225 C1213 0.930 . S
H1226 C1214 0.956 . S
H1227 C1214 0.961 . S
H1228 C1214 0.961 . S
H1229 C1215 0.958 . S
H1230 C1215 0.961 . S
H1231 C1215 0.960 . S
C1232 C1233 1.391 . S
C1232 C1234 1.394 . S
C1232 H1248 0.931 . S
C1233 C1232 1.391 . S
C1233 C1237 1.376 . S
C1234 C1232 1.394 . S
C1234 C1235 1.369 . S
C1234 C1238 1.531 . S
C1235 C1234 1.369 . S
C1235 C1236 1.410 . S
C1235 C1243 1.503 . S
C1236 C1235 1.410 . S
C1236 C1237 1.392 . S
C1236 C1239 1.511 . S
C1237 C1233 1.376 . S
C1237 C1236 1.392 . S
C1237 H1249 0.929 . S
C1238 C1234 1.531 . S
C1238 H1250 0.960 . S
C1238 H1251 0.962 . S
C1238 H1252 0.960 . S
C1239 C1236 1.511 . S
C1239 H1253 0.961 . S
C1239 H1254 0.961 . S
C1239 H1255 0.961 . S
C1240 C1241 1.370 . S
C1240 C1242 1.363 . S
C1240 H1256 0.931 . S
C1241 C1240 1.370 . S
C1241 C1245 1.408 . S
C1242 C1240 1.363 . S
C1242 C1243 1.370 . S
C1242 C1246 1.524 . S
C1243 C1235 1.503 . S
C1243 C1242 1.370 . S
C1243 C1244 1.403 . S
C1244 C1243 1.403 . S
C1244 C1245 1.404 . S
C1244 C1247 1.539 . S
C1245 C1241 1.408 . S
C1245 C1244 1.404 . S
C1245 H1257 0.930 . S
C1246 C1242 1.524 . S
C1246 H1258 0.956 . S
C1246 H1259 0.961 . S
C1246 H1260 0.961 . S
C1247 C1244 1.539 . S
C1247 H1261 0.958 . S
C1247 H1262 0.961 . S
C1247 H1263 0.960 . S
H1248 C1232 0.931 . S
H1249 C1237 0.929 . S
H1250 C1238 0.960 . S
H1251 C1238 0.962 . S
H1252 C1238 0.960 . S
H1253 C1239 0.961 . S
H1254 C1239 0.961 . S
H1255 C1239 0.961 . S
H1256 C1240 0.931 . S
H1257 C1245 0.930 . S
H1258 C1246 0.956 . S
H1259 C1246 0.961 . S
H1260 C1246 0.961 . S
H1261 C1247 0.958 . S
H1262 C1247 0.961 . S
H1263 C1247 0.960 . S
C1264 C1265 1.391 . S
C1264 C1266 1.394 . S
C1264 H1280 0.931 . S
C1265 C1264 1.391 . S
C1265 C1269 1.376 . S
C1266 C1264 1.394 . S
C1266 C1267 1.369 . S
C1266 C1270 1.531 . S
C1267 C1266 1.369 . S
C1267 C1268 1.410 . S
C1267 C1275 1.503 . S
C1268 C1267 1.410 . S
C1268 C1269 1.392 . S
C1268 C1271 1.511 . S
C1269 C1265 1.376 . S
C1269 C1268 1.392 . S
C1269 H1281 0.929 . S
C1270 C1266 1.531 . S
C1270 H1282 0.960 1_655 S
C1270 H1283 0.962 . S
C1270 H1284 0.960 1_655 S
C1271 C1268 1.511 . S
C1271 H1285 0.961 . S
C1271 H1286 0.961 . S
C1271 H1287 0.961 . S
C1272 C1273 1.370 . S
C1272 C1274 1.363 . S
C1272 H1288 0.931 . S
C1273 C1272 1.370 . S
C1273 C1277 1.408 . S
C1274 C1272 1.363 . S
C1274 C1275 1.370 . S
C1274 C1278 1.524 . S
C1275 C1267 1.503 . S
C1275 C1274 1.370 . S
C1275 C1276 1.403 . S
C1276 C1275 1.403 . S
C1276 C1277 1.404 . S
C1276 C1279 1.539 . S
C1277 C1273 1.408 . S
C1277 C1276 1.404 . S
C1277 H1289 0.930 . S
C1278 C1274 1.524 . S
C1278 H1290 0.956 . S
C1278 H1291 0.961 . S
C1278 H1292 0.961 . S
C1279 C1276 1.539 . S
C1279 H1293 0.958 1_655 S
C1279 H1294 0.961 . S
C1279 H1295 0.960 . S
H1280 C1264 0.931 . S
H1281 C1269 0.929 . S
H1282 C1270 0.960 1_455 S
H1283 C1270 0.962 . S
H1284 C1270 0.960 1_455 S
H1285 C1271 0.961 . S
H1286 C1271 0.961 . S
H1287 C1271 0.961 . S
H1288 C1272 0.931 . S
H1289 C1277 0.930 . S
H1290 C1278 0.956 . S
H1291 C1278 0.961 . S
H1292 C1278 0.961 . S
H1293 C1279 0.958 1_455 S
H1294 C1279 0.961 . S
H1295 C1279 0.960 . S
C1296 C1297 1.391 . S
C1296 C1298 1.394 . S
C1296 H1312 0.931 . S
C1297 C1296 1.391 . S
C1297 C1301 1.376 . S
C1298 C1296 1.394 . S
C1298 C1299 1.369 . S
C1298 C1302 1.531 . S
C1299 C1298 1.369 . S
C1299 C1300 1.410 . S
C1299 C1307 1.503 . S
C1300 C1299 1.410 . S
C1300 C1301 1.392 . S
C1300 C1303 1.511 . S
C1301 C1297 1.376 . S
C1301 C1300 1.392 . S
C1301 H1313 0.929 . S
C1302 C1298 1.531 . S
C1302 H1314 0.960 . S
C1302 H1315 0.962 . S
C1302 H1316 0.984 . S
C1303 C1300 1.511 . S
C1303 H1317 0.961 . S
C1303 H1318 0.961 . S
C1303 H1319 0.961 . S
C1304 C1305 1.370 . S
C1304 C1306 1.363 . S
C1304 H1320 0.931 . S
C1305 C1304 1.370 . S
C1305 C1309 1.408 . S
C1306 C1304 1.363 . S
C1306 C1307 1.370 . S
C1306 C1310 1.524 . S
C1307 C1299 1.503 . S
C1307 C1306 1.370 . S
C1307 C1308 1.403 . S
C1308 C1307 1.403 . S
C1308 C1309 1.404 . S
C1308 C1311 1.539 1_565 S
C1309 C1305 1.408 . S
C1309 C1308 1.404 . S
C1309 H1321 0.930 1_565 S
C1310 C1306 1.524 . S
C1310 H1322 0.956 . S
C1310 H1323 0.961 . S
C1310 H1324 0.961 . S
C1311 C1308 1.539 1_545 S
C1311 H1325 0.958 . S
C1311 H1326 0.961 . S
C1311 H1327 0.960 1_545 S
H1312 C1296 0.931 . S
H1313 C1301 0.929 . S
H1314 C1302 0.960 . S
H1315 C1302 0.962 . S
H1316 C1302 0.984 . S
H1317 C1303 0.961 . S
H1318 C1303 0.961 . S
H1319 C1303 0.961 . S
H1320 C1304 0.931 . S
H1321 C1309 0.930 1_545 S
H1322 C1310 0.956 . S
H1323 C1310 0.961 . S
H1324 C1310 0.961 . S
H1325 C1311 0.958 . S
H1326 C1311 0.961 . S
H1327 C1311 0.960 1_565 S
C1328 C1329 1.391 . S
C1328 C1330 1.394 . S
C1328 H1344 0.931 . S
C1329 C1328 1.391 . S
C1329 C1333 1.376 . S
C1330 C1328 1.394 . S
C1330 C1331 1.369 . S
C1330 C1334 1.531 . S
C1331 C1330 1.369 . S
C1331 C1332 1.410 . S
C1331 C1339 1.503 . S
C1332 C1331 1.410 . S
C1332 C1333 1.392 . S
C1332 C1335 1.511 . S
C1333 C1329 1.376 . S
C1333 C1332 1.392 . S
C1333 H1345 0.929 . S
C1334 C1330 1.531 . S
C1334 H1346 0.960 . S
C1334 H1347 0.962 . S
C1334 H1348 0.960 . S
C1335 C1332 1.511 . S
C1335 H1349 0.961 . S
C1335 H1350 0.961 . S
C1335 H1351 0.961 . S
C1336 C1337 1.370 . S
C1336 C1338 1.363 . S
C1336 H1352 0.931 . S
C1337 C1336 1.370 . S
C1337 C1341 1.408 . S
C1338 C1336 1.363 . S
C1338 C1339 1.370 . S
C1338 C1342 1.524 . S
C1339 C1331 1.503 . S
C1339 C1338 1.370 . S
C1339 C1340 1.403 . S
C1340 C1339 1.403 . S
C1340 C1341 1.404 . S
C1340 C1343 1.539 . S
C1341 C1337 1.408 . S
C1341 C1340 1.404 . S
C1341 H1353 0.930 . S
C1342 C1338 1.524 . S
C1342 H1354 0.956 . S
C1342 H1355 0.961 . S
C1342 H1356 0.961 . S
C1343 C1340 1.539 . S
C1343 H1357 0.958 . S
C1343 H1358 0.961 . S
C1343 H1359 0.960 . S
H1344 C1328 0.931 . S
H1345 C1333 0.929 . S
H1346 C1334 0.960 . S
H1347 C1334 0.962 . S
H1348 C1334 0.960 . S
H1349 C1335 0.961 . S
H1350 C1335 0.961 . S
H1351 C1335 0.961 . S
H1352 C1336 0.931 . S
H1353 C1341 0.930 . S
H1354 C1342 0.956 . S
H1355 C1342 0.961 . S
H1356 C1342 0.961 . S
H1357 C1343 0.958 . S
H1358 C1343 0.961 . S
H1359 C1343 0.960 . S
C1360 C1361 1.391 . S
C1360 C1362 1.394 . S
C1360 H1376 0.931 . S
C1361 C1360 1.391 . S
C1361 C1365 1.376 . S
C1362 C1360 1.394 . S
C1362 C1363 1.369 . S
C1362 C1366 1.531 . S
C1363 C1362 1.369 . S
C1363 C1364 1.410 . S
C1363 C1371 1.503 . S
C1364 C1363 1.410 . S
C1364 C1365 1.392 . S
C1364 C1367 1.511 . S
C1365 C1361 1.376 . S
C1365 C1364 1.392 . S
C1365 H1377 0.929 . S
C1366 C1362 1.531 . S
C1366 H1378 0.960 . S
C1366 H1379 0.962 . S
C1366 H1380 0.960 . S
C1367 C1364 1.511 . S
C1367 H1381 0.961 . S
C1367 H1382 0.961 . S
C1367 H1383 0.961 . S
C1368 C1369 1.370 . S
C1368 C1370 1.363 . S
C1368 H1384 0.931 . S
C1369 C1368 1.370 . S
C1369 C1373 1.408 . S
C1370 C1368 1.363 . S
C1370 C1371 1.370 . S
C1370 C1374 1.524 . S
C1371 C1363 1.503 . S
C1371 C1370 1.370 . S
C1371 C1372 1.403 . S
C1372 C1371 1.403 . S
C1372 C1373 1.404 . S
C1372 C1375 1.539 . S
C1373 C1369 1.408 . S
C1373 C1372 1.404 . S
C1373 H1385 0.930 . S
C1374 C1370 1.524 . S
C1374 H1386 0.956 . S
C1374 H1387 0.961 . S
C1374 H1388 0.961 . S
C1375 C1372 1.539 . S
C1375 H1389 0.958 . S
C1375 H1390 0.961 . S
C1375 H1391 0.960 . S
H1376 C1360 0.931 . S
H1377 C1365 0.929 . S
H1378 C1366 0.960 . S
H1379 C1366 0.962 . S
H1380 C1366 0.960 . S
H1381 C1367 0.961 . S
H1382 C1367 0.961 . S
H1383 C1367 0.961 . S
H1384 C1368 0.931 . S
H1385 C1373 0.930 . S
H1386 C1374 0.956 . S
H1387 C1374 0.961 . S
H1388 C1374 0.961 . S
H1389 C1375 0.958 . S
H1390 C1375 0.961 . S
H1391 C1375 0.960 . S
C625 C241 2.255 . S
C633 C362 2.321 . S
C665 C446 2.368 . S
C657 C277 2.261 . S
C697 C512 2.263 . S
C689 C169 2.354 . S
C729 C596 2.260 . S
C721 C205 2.341 . S
C761 C351 2.339 1_565 S
C753 C97 2.161 . S
C785 C133 2.294 . S
C793 C435 2.361 . S
C817 C25 2.276 . S
C825 C523 2.264 . S
C849 C61 2.265 . S
C857 C607 2.266 . S
C889 C358 0.630 1_455 S
C881 C211 0.662 . S
C921 C442 0.556 1_545 S
C913 C247 0.633 . S
C953 C514 0.540 . S
C945 C253 0.506 . S
C977 C175 0.714 . S
C985 C598 0.644 . S
C1009 C67 0.590 1_556 S
C1017 C346 0.623 . S
C1049 C430 0.607 . S
C1041 C103 0.728 1_556 S
C1081 C526 0.591 . S
C1073 C109 0.637 1_556 S
C1105 C31 0.558 1_556 S
C1113 C610 0.599 . S
C1137 C181 2.768 . S
C1145 C355 2.910 . S
C1169 C217 2.751 . S
C1177 C439 2.858 . S
C1209 C519 2.925 . S
C1201 C283 2.495 . S
C1241 C603 2.955 . S
C1233 C145 2.685 . S
C1265 C37 2.728 . S
C1273 C344 2.905 . S
C1305 C428 2.853 . S
C1297 C73 2.689 . S
C1337 C530 2.930 . S
C1329 C139 2.547 . S
C1361 C1 2.642 . S
C1369 C614 2.948 . S
