# Generated by pormake.
# Topology pyr, (3,6)-cn, num edge types: 1
# Building blocks:
#     Node 0, Type 0, BuildingBlock: KAKCAD_clean_linker_0, # of connection points: 3
#     Node 1, Type 0, BuildingBlock: KAKCAD_clean_linker_0, # of connection points: 3
#     Node 2, Type 0, BuildingBlock: KAKCAD_clean_linker_0, # of connection points: 3
#     Node 3, Type 0, BuildingBlock: KAKCAD_clean_linker_0, # of connection points: 3
#     Node 4, Type 0, BuildingBlock: KAKCAD_clean_linker_0, # of connection points: 3
#     Node 5, Type 0, BuildingBlock: KAKCAD_clean_linker_0, # of connection points: 3
#     Node 6, Type 0, BuildingBlock: KAKCAD_clean_linker_0, # of connection points: 3
#     Node 7, Type 0, BuildingBlock: KAKCAD_clean_linker_0, # of connection points: 3
#     Node 8, Type 1, BuildingBlock: JUFBIX_clean_sbu_0, # of connection points: 6
#     Node 9, Type 1, BuildingBlock: JUFBIX_clean_sbu_0, # of connection points: 6
#     Node 10, Type 1, BuildingBlock: JUFBIX_clean_sbu_0, # of connection points: 6
#     Node 11, Type 1, BuildingBlock: JUFBIX_clean_sbu_0, # of connection points: 6
#     Edge 12, Type (0, 1), BuildingBlock: AJUNOK_clean_linker_0, # of connection points: 2
#     Edge 13, Type (0, 1), BuildingBlock: AJUNOK_clean_linker_0, # of connection points: 2
#     Edge 14, Type (0, 1), BuildingBlock: AJUNOK_clean_linker_0, # of connection points: 2
#     Edge 15, Type (0, 1), BuildingBlock: AJUNOK_clean_linker_0, # of connection points: 2
#     Edge 16, Type (0, 1), BuildingBlock: AJUNOK_clean_linker_0, # of connection points: 2
#     Edge 17, Type (0, 1), BuildingBlock: AJUNOK_clean_linker_0, # of connection points: 2
#     Edge 18, Type (0, 1), BuildingBlock: AJUNOK_clean_linker_0, # of connection points: 2
#     Edge 19, Type (0, 1), BuildingBlock: AJUNOK_clean_linker_0, # of connection points: 2
#     Edge 20, Type (0, 1), BuildingBlock: AJUNOK_clean_linker_0, # of connection points: 2
#     Edge 21, Type (0, 1), BuildingBlock: AJUNOK_clean_linker_0, # of connection points: 2
#     Edge 22, Type (0, 1), BuildingBlock: AJUNOK_clean_linker_0, # of connection points: 2
#     Edge 23, Type (0, 1), BuildingBlock: AJUNOK_clean_linker_0, # of connection points: 2
#     Edge 24, Type (0, 1), BuildingBlock: AJUNOK_clean_linker_0, # of connection points: 2
#     Edge 25, Type (0, 1), BuildingBlock: AJUNOK_clean_linker_0, # of connection points: 2
#     Edge 26, Type (0, 1), BuildingBlock: AJUNOK_clean_linker_0, # of connection points: 2
#     Edge 27, Type (0, 1), BuildingBlock: AJUNOK_clean_linker_0, # of connection points: 2
#     Edge 28, Type (0, 1), BuildingBlock: AJUNOK_clean_linker_0, # of connection points: 2
#     Edge 29, Type (0, 1), BuildingBlock: AJUNOK_clean_linker_0, # of connection points: 2
#     Edge 30, Type (0, 1), BuildingBlock: AJUNOK_clean_linker_0, # of connection points: 2
#     Edge 31, Type (0, 1), BuildingBlock: AJUNOK_clean_linker_0, # of connection points: 2
#     Edge 32, Type (0, 1), BuildingBlock: AJUNOK_clean_linker_0, # of connection points: 2
#     Edge 33, Type (0, 1), BuildingBlock: AJUNOK_clean_linker_0, # of connection points: 2
#     Edge 34, Type (0, 1), BuildingBlock: AJUNOK_clean_linker_0, # of connection points: 2
#     Edge 35, Type (0, 1), BuildingBlock: AJUNOK_clean_linker_0, # of connection points: 2
# Relax obj value: 0.066
# Max RMSD: 0.100
# Mean RMSD: 0.036
data_MOF--net-pry--node1-JUFBIX_clean_sbu_0--node2-KAKCAD_clean_linker_0--edge1-AJUNOK_clean_linker_0
_symmetry_space_group_name_H-M    P1
_symmetry_Int_Tables_number       1
_symmetry_cell_setting            triclinic
loop_
_symmetry_equiv_pos_as_xyz
'x, y, z'
_cell_length_a     35.874915
_cell_length_b     34.270373
_cell_length_c     35.95635
_cell_angle_alpha  82.693997
_cell_angle_beta   89.28589
_cell_angle_gamma 91.651907
loop_
_atom_site_label
_atom_site_type_symbol
_atom_site_fract_x
_atom_site_fract_y
_atom_site_fract_z
_atom_type_partial_charge
C0 C 0.11283 0.09922 0.28247 0.0
C1 C 0.13077 0.09589 0.3173 0.0
C2 C 0.132 0.11448 0.24937 0.0
C3 C 0.16992 0.1259 0.24991 0.0
C4 C 0.1885 0.12085 0.28428 0.0
C5 C 0.16911 0.10624 0.31761 0.0
C6 C 0.18879 0.14612 0.21521 0.0
C7 C 0.17265 0.17955 0.19605 0.0
C8 C 0.18916 0.1998 0.16324 0.0
C9 C 0.22262 0.18586 0.14955 0.0
C10 C 0.23934 0.15181 0.16775 0.0
C11 C 0.22219 0.13248 0.20107 0.0
C12 C 0.27396 0.13615 0.15131 0.0
C13 C 0.27999 0.14007 0.11214 0.0
C14 C 0.30132 0.11712 0.17428 0.0
C15 C 0.33327 0.10228 0.1586 0.0
C16 C 0.33903 0.10607 0.11945 0.0
C17 C 0.17112 0.23543 0.14354 0.0
C18 C 0.13199 0.23672 0.14091 0.0
C19 C 0.19254 0.26879 0.12811 0.0
C20 C 0.1753 0.30257 0.11101 0.0
C21 C 0.1362 0.30387 0.10883 0.0
C22 C 0.11481 0.2705 0.12397 0.0
C23 C 0.31209 0.12573 0.09657 0.0
H24 H 0.08383 0.09014 0.28068 0.0
H25 H 0.11705 0.11767 0.22321 0.0
H26 H 0.21764 0.12967 0.28559 0.0
H27 H 0.18397 0.1041 0.34378 0.0
H28 H 0.14741 0.1904 0.20745 0.0
H29 H 0.23394 0.10606 0.21543 0.0
H30 H 0.23549 0.20156 0.12441 0.0
H31 H 0.25968 0.15386 0.09315 0.0
H32 H 0.29833 0.11392 0.20451 0.0
H33 H 0.35333 0.0874 0.17724 0.0
H34 H 0.11451 0.21147 0.15182 0.0
H35 H 0.22264 0.26923 0.13007 0.0
H36 H 0.31583 0.13037 0.06639 0.0
H37 H 0.08466 0.27043 0.12249 0.0
H38 H 0.19257 0.32805 0.10024 0.0
C39 C 0.45057 0.92114 0.75854 0.0
C40 C 0.48436 0.94267 0.75834 0.0
C41 C 0.44108 0.90191 0.72821 0.0
C42 C 0.46508 0.90398 0.69689 0.0
C43 C 0.49989 0.92375 0.69727 0.0
C44 C 0.50956 0.94311 0.72806 0.0
C45 C 0.45143 0.88779 0.66342 0.0
C46 C 0.41649 0.89925 0.64986 0.0
C47 C 0.39798 0.87853 0.62427 0.0
C48 C 0.41569 0.84778 0.60996 0.0
C49 C 0.45072 0.83562 0.62343 0.0
C50 C 0.46891 0.85632 0.64973 0.0
C51 C 0.46486 0.79761 0.61487 0.0
C52 C 0.43996 0.76511 0.61564 0.0
C53 C 0.50288 0.79288 0.60732 0.0
C54 C 0.51559 0.75623 0.60033 0.0
C55 C 0.49047 0.7239 0.60123 0.0
C56 C 0.35807 0.88492 0.6178 0.0
C57 C 0.33371 0.88383 0.64881 0.0
C58 C 0.34417 0.89293 0.58146 0.0
C59 C 0.30675 0.90223 0.57634 0.0
C60 C 0.28287 0.90307 0.60754 0.0
C61 C 0.29644 0.89279 0.64373 0.0
C62 C 0.45255 0.72882 0.60857 0.0
H63 H 0.43112 0.91982 0.78202 0.0
H64 H 0.41436 0.88622 0.72874 0.0
H65 H 0.51876 0.92549 0.67332 0.0
H66 H 0.53592 0.95939 0.72773 0.0
H67 H 0.40243 0.92278 0.66136 0.0
H68 H 0.49482 0.84589 0.66198 0.0
H69 H 0.40091 0.83141 0.59053 0.0
H70 H 0.41062 0.76751 0.62219 0.0
H71 H 0.52263 0.81748 0.60659 0.0
H72 H 0.54496 0.75306 0.59447 0.0
H73 H 0.34376 0.87681 0.67711 0.0
H74 H 0.36256 0.89367 0.55723 0.0
H75 H 0.43247 0.7046 0.60855 0.0
H76 H 0.27846 0.893 0.66814 0.0
H77 H 0.297 0.9107 0.54816 0.0
C78 C 0.82186 0.4454 0.90484 0.0
C79 C 0.84581 0.41905 0.92503 0.0
C80 C 0.78924 0.43165 0.8891 0.0
C81 C 0.77994 0.3911 0.89283 0.0
C82 C 0.80441 0.3648 0.91271 0.0
C83 C 0.8367 0.37865 0.9289 0.0
C84 C 0.74442 0.37631 0.8772 0.0
C85 C 0.72981 0.39479 0.8433 0.0
C86 C 0.6957 0.3815 0.82971 0.0
C87 C 0.67679 0.34875 0.84957 0.0
C88 C 0.69096 0.32947 0.88295 0.0
C89 C 0.7245 0.34377 0.89675 0.0
C90 C 0.6709 0.29402 0.90292 0.0
C91 C 0.63168 0.29212 0.90536 0.0
C92 C 0.69073 0.26122 0.91856 0.0
C93 C 0.67179 0.22714 0.93546 0.0
C94 C 0.63262 0.22498 0.93689 0.0
C95 C 0.679 0.4013 0.79488 0.0
C96 C 0.69916 0.40711 0.76075 0.0
C97 C 0.64144 0.4118 0.79519 0.0
C98 C 0.62396 0.42634 0.762 0.0
C99 C 0.64335 0.43008 0.72744 0.0
C100 C 0.68146 0.42127 0.7273 0.0
C101 C 0.61278 0.25799 0.92212 0.0
H102 H 0.82808 0.47678 0.90177 0.0
H103 H 0.77097 0.45297 0.87469 0.0
H104 H 0.79882 0.33334 0.91563 0.0
H105 H 0.85489 0.3577 0.94404 0.0
H106 H 0.74466 0.41963 0.82756 0.0
H107 H 0.73457 0.32997 0.92335 0.0
H108 H 0.65125 0.33768 0.83832 0.0
H109 H 0.61552 0.31708 0.89433 0.0
H110 H 0.7209 0.26145 0.91684 0.0
H111 H 0.68776 0.20205 0.94657 0.0
H112 H 0.72812 0.39915 0.75971 0.0
H113 H 0.62539 0.4082 0.82119 0.0
H114 H 0.58259 0.25743 0.92358 0.0
H115 H 0.69725 0.42401 0.70118 0.0
H116 H 0.59499 0.43419 0.76336 0.0
C117 C 1.00556 0.54295 0.33181 0.0
C118 C 1.00753 0.56926 0.29854 0.0
C119 C 1.00119 0.55695 0.36639 0.0
C120 C 0.99809 0.59749 0.36829 0.0
C121 C 1.00291 0.62392 0.3352 0.0
C122 C 1.00758 0.60991 0.30065 0.0
C123 C 0.98292 0.6115 0.40273 0.0
C124 C 0.95135 0.59185 0.42037 0.0
C125 C 0.93064 0.60846 0.44739 0.0
C126 C 0.9439 0.64385 0.45909 0.0
C127 C 0.97614 0.6637 0.44258 0.0
C128 C 0.99545 0.64726 0.41428 0.0
C129 C 0.98713 0.70348 0.45214 0.0
C130 C 0.95958 0.73065 0.45759 0.0
C131 C 0.02487 0.71513 0.45488 0.0
C132 C 0.0347 0.75311 0.46276 0.0
C133 C 1.00696 0.78013 0.4681 0.0
C134 C 0.89281 0.59178 0.45923 0.0
C135 C 0.86977 0.57601 0.43302 0.0
C136 C 0.87814 0.59426 0.49535 0.0
C137 C 0.84098 0.58285 0.50435 0.0
C138 C 0.81812 0.56796 0.47769 0.0
C139 C 0.83305 0.56394 0.44227 0.0
C140 C 0.96936 0.76829 0.46564 0.0
H141 H 1.00575 0.51148 0.33088 0.0
H142 H 0.99801 0.53589 0.39146 0.0
H143 H 1.00013 0.65526 0.33556 0.0
H144 H 1.00857 0.63081 0.27535 0.0
H145 H 0.9413 0.56466 0.41107 0.0
H146 H 1.01915 0.66313 0.39999 0.0
H147 H 0.92811 0.65706 0.47983 0.0
H148 H 0.93028 0.72322 0.45488 0.0
H149 H 0.04679 0.69491 0.45094 0.0
H150 H 0.06394 0.76156 0.46393 0.0
H151 H 0.87932 0.57468 0.40455 0.0
H152 H 0.89506 0.60579 0.51641 0.0
H153 H 0.94731 0.78834 0.46978 0.0
H154 H 0.81566 0.55346 0.42096 0.0
H155 H 0.82982 0.58642 0.53181 0.0
C156 C 0.89746 0.88265 0.73018 0.0
C157 C 0.91031 0.9221 0.72464 0.0
C158 C 0.88049 0.86659 0.76425 0.0
C159 C 0.8753 0.88974 0.79345 0.0
C160 C 0.8869 0.92963 0.78744 0.0
C161 C 0.90451 0.94556 0.75351 0.0
C162 C 0.86028 0.87131 0.83074 0.0
C163 C 0.87609 0.83671 0.84804 0.0
C164 C 0.86293 0.81809 0.88304 0.0
C165 C 0.83271 0.83431 0.90059 0.0
C166 C 0.81603 0.86892 0.88375 0.0
C167 C 0.83057 0.8876 0.84904 0.0
C168 C 0.783 0.88498 0.90212 0.0
C169 C 0.75291 0.85993 0.91635 0.0
C170 C 0.78113 0.92537 0.90553 0.0
C171 C 0.75028 0.94016 0.9231 0.0
C172 C 0.7202 0.91509 0.9372 0.0
C173 C 0.8815 0.78203 0.90098 0.0
C174 C 0.89176 0.75244 0.87938 0.0
C175 C 0.89101 0.7778 0.93911 0.0
C176 C 0.91142 0.74554 0.95482 0.0
C177 C 0.92277 0.71669 0.93281 0.0
C178 C 0.9119 0.72018 0.8951 0.0
C179 C 0.72179 0.87485 0.9333 0.0
H180 H 0.9015 0.86388 0.70848 0.0
H181 H 0.87172 0.83581 0.76794 0.0
H182 H 0.88347 0.94815 0.80944 0.0
H183 H 0.91378 0.97618 0.74987 0.0
H184 H 0.89962 0.8248 0.83452 0.0
H185 H 0.81796 0.914 0.83563 0.0
H186 H 0.8221 0.81995 0.92737 0.0
H187 H 0.75319 0.82877 0.9139 0.0
H188 H 0.8038 0.94548 0.89501 0.0
H189 H 0.74974 0.97137 0.9253 0.0
H190 H 0.88427 0.75429 0.85013 0.0
H191 H 0.88376 0.80011 0.95652 0.0
H192 H 0.69906 0.85479 0.94379 0.0
H193 H 0.91897 0.69789 0.87761 0.0
H194 H 0.91918 0.74373 0.98399 0.0
C195 C 0.55331 0.03885 0.3434 0.0
C196 C 0.54768 0.06222 0.30908 0.0
C197 C 0.55873 0.05645 0.37591 0.0
C198 C 0.55837 0.09761 0.37451 0.0
C199 C 0.54821 0.12041 0.34116 0.0
C200 C 0.54294 0.10282 0.30863 0.0
C201 C 0.57657 0.11707 0.40418 0.0
C202 C 0.61262 0.10601 0.41475 0.0
C203 C 0.63415 0.12827 0.43707 0.0
C204 C 0.61886 0.16129 0.44989 0.0
C205 C 0.58258 0.17265 0.44 0.0
C206 C 0.56151 0.15031 0.41707 0.0
C207 C 0.56873 0.21003 0.45069 0.0
C208 C 0.57681 0.22104 0.48615 0.0
C209 C 0.55062 0.23664 0.42436 0.0
C210 C 0.54227 0.2741 0.4328 0.0
C211 C 0.55224 0.28552 0.46748 0.0
C212 C 0.67381 0.11907 0.44326 0.0
C213 C 0.68422 0.07976 0.45118 0.0
C214 C 0.70173 0.14907 0.43786 0.0
C215 C 0.73939 0.13966 0.43876 0.0
C216 C 0.74947 0.1002 0.44465 0.0
C217 C 0.72171 0.07042 0.45179 0.0
C218 C 0.56894 0.25861 0.49433 0.0
H219 H 0.55615 0.00733 0.34455 0.0
H220 H 0.56611 0.03824 0.40148 0.0
H221 H 0.54796 0.15221 0.33926 0.0
H222 H 0.53848 0.12147 0.2825 0.0
H223 H 0.62512 0.08177 0.403 0.0
H224 H 0.53388 0.15926 0.40842 0.0
H225 H 0.6359 0.17908 0.46634 0.0
H226 H 0.59017 0.20096 0.50724 0.0
H227 H 0.5445 0.22928 0.39663 0.0
H228 H 0.52949 0.2947 0.41173 0.0
H229 H 0.66332 0.05614 0.45604 0.0
H230 H 0.69452 0.17962 0.4313 0.0
H231 H 0.57646 0.26694 0.5214 0.0
H232 H 0.72908 0.0398 0.45725 0.0
H233 H 0.76054 0.16299 0.43344 0.0
C234 C 0.21804 0.61767 0.15905 0.0
C235 C 0.2217 0.60305 0.12429 0.0
C236 C 0.24959 0.62934 0.17804 0.0
C237 C 0.2854 0.62698 0.16253 0.0
C238 C 0.28927 0.61189 0.12824 0.0
C239 C 0.25786 0.59956 0.10959 0.0
C240 C 0.31856 0.64301 0.18036 0.0
C241 C 0.33338 0.6232 0.21336 0.0
C242 C 0.36587 0.63805 0.22911 0.0
C243 C 0.38271 0.67337 0.21137 0.0
C244 C 0.36812 0.69384 0.17858 0.0
C245 C 0.33586 0.67818 0.16338 0.0
C246 C 0.38703 0.73112 0.16019 0.0
C247 C 0.40676 0.75631 0.1816 0.0
C248 C 0.38626 0.74161 0.12102 0.0
C249 C 0.40474 0.77593 0.10394 0.0
C250 C 0.42574 0.80009 0.12528 0.0
C251 C 0.38275 0.61741 0.26396 0.0
C252 C 0.36045 0.59788 0.29352 0.0
C253 C 0.42168 0.61877 0.26866 0.0
C254 C 0.4376 0.6034 0.30244 0.0
C255 C 0.41535 0.585 0.33248 0.0
C256 C 0.37657 0.58152 0.32715 0.0
C257 C 0.42626 0.78981 0.16439 0.0
H258 H 0.19072 0.62084 0.17125 0.0
H259 H 0.24596 0.64125 0.20431 0.0
H260 H 0.31669 0.60975 0.11582 0.0
H261 H 0.26201 0.58715 0.08369 0.0
H262 H 0.32015 0.5958 0.22598 0.0
H263 H 0.32354 0.69351 0.13854 0.0
H264 H 0.40756 0.68497 0.22323 0.0
H265 H 0.40726 0.75042 0.21187 0.0
H266 H 0.3718 0.72317 0.10323 0.0
H267 H 0.40228 0.7835 0.07394 0.0
H268 H 0.33042 0.59601 0.29113 0.0
H269 H 0.44017 0.63216 0.24632 0.0
H270 H 0.44202 0.80753 0.18193 0.0
H271 H 0.35852 0.56627 0.34895 0.0
H272 H 0.46751 0.60674 0.30516 0.0
C273 C 0.02643 0.24501 0.61639 0.0
C274 C 1.02435 0.23728 0.579 0.0
C275 C 0.03989 0.28153 0.62477 0.0
C276 C 0.05183 0.31094 0.59589 0.0
C277 C 0.0477 0.30395 0.55842 0.0
C278 C 0.03407 0.26749 0.55006 0.0
C279 C 0.07239 0.34675 0.60485 0.0
C280 C 0.10647 0.35817 0.58624 0.0
C281 C 0.12845 0.38937 0.59668 0.0
C282 C 0.11555 0.41 0.6253 0.0
C283 C 0.08183 0.39896 0.6445 0.0
C284 C 0.06034 0.3672 0.63418 0.0
C285 C 0.07209 0.41808 0.67798 0.0
C286 C 0.07635 0.45912 0.67698 0.0
C287 C 0.06348 0.39511 0.71238 0.0
C288 C 0.06179 0.41254 0.74547 0.0
C289 C 0.06867 0.45323 0.74475 0.0
C290 C 0.167 0.3974 0.58162 0.0
C291 C 0.19146 0.36625 0.58036 0.0
C292 C 0.18096 0.43629 0.57309 0.0
C293 C 0.21899 0.44394 0.56581 0.0
C294 C 0.24376 0.41282 0.56691 0.0
C295 C 0.22951 0.37391 0.57321 0.0
C296 C 0.07452 0.47654 0.71001 0.0
H297 H 1.01915 0.22217 0.63921 0.0
H298 H 0.04301 0.28586 0.6539 0.0
H299 H 0.05642 0.32619 0.53559 0.0
H300 H 0.03326 0.26219 0.52101 0.0
H301 H 0.11678 0.3416 0.56471 0.0
H302 H 0.03454 0.35813 0.64925 0.0
H303 H 0.13323 0.43293 0.63463 0.0
H304 H 0.08255 0.47759 0.65075 0.0
H305 H 0.06038 0.36339 0.71409 0.0
H306 H 0.05719 0.39387 0.77188 0.0
H307 H 0.18163 0.33597 0.58723 0.0
H308 H 0.16271 0.46085 0.57369 0.0
H309 H 0.07893 0.50811 0.70853 0.0
H310 H 0.24808 0.34943 0.57422 0.0
H311 H 0.22929 0.47422 0.56159 0.0
Co312 Co 0.99219 0.0133 0.50706 0.0
C313 C 0.02599 0.94045 0.50279 0.0
Co314 Co 0.04648 1.00589 0.53416 0.0
C315 C 0.92534 0.04477 0.47134 0.0
C316 C 0.92401 0.98183 0.48195 0.0
N317 N 0.94584 0.01396 0.48515 0.0
N318 N 0.89192 0.0329 0.45937 0.0
C319 C 0.891 0.99338 0.46606 0.0
H320 H 0.93415 0.07527 0.47108 0.0
H321 H 0.93079 0.95185 0.49205 0.0
C322 C 1.01263 0.07864 0.53847 0.0
N323 N 0.0929 1.00504 0.55553 0.0
C324 C 0.11265 0.97375 0.56941 0.0
C325 C 0.11617 0.03652 0.55672 0.0
N326 N 0.14733 0.98457 0.57876 0.0
C327 C 0.14954 0.02402 0.57121 0.0
C328 C 0.05062 0.03801 0.458 0.0
O329 O 0.98603 0.06473 0.52074 0.0
O330 O 0.04079 0.05776 0.54622 0.0
O331 O 0.06939 0.02617 0.48683 0.0
O332 O 1.01516 0.03577 0.46045 0.0
O333 O 0.05165 0.95352 0.52221 0.0
H334 H 0.11003 0.06655 0.54608 0.0
H335 H 0.10224 0.94359 0.57167 0.0
O336 O 0.99887 0.96224 0.49334 0.0
O337 O 0.96935 0.99078 0.55408 0.0
O338 O 1.02362 0.98572 0.58126 0.0
C339 C 0.98826 0.98146 0.58347 0.0
H340 H 0.86716 0.97434 0.46204 0.0
H341 H 0.17428 0.04223 0.57393 0.0
Co342 Co 0.51676 0.00802 1.00385 0.0
C343 C 0.50348 0.94403 0.05758 0.0
Co344 Co 0.54539 0.01375 0.05641 0.0
C345 C 0.50856 1.00584 0.9251 0.0
C346 C 0.45639 0.99592 0.95494 0.0
N347 N 0.49292 1.00395 0.95959 0.0
N348 N 0.48328 0.99891 0.89921 0.0
C349 C 0.45036 0.99296 0.91775 0.0
H350 H 0.53805 0.01121 0.91922 0.0
H351 H 0.43578 0.99089 0.97735 0.0
C352 C 0.55854 0.07793 1.00246 0.0
N353 N 0.56902 0.01794 0.1008 0.0
C354 C 0.55279 0.01438 0.13508 0.0
C355 C 0.60495 0.02811 0.10612 0.0
N356 N 0.57698 0.02222 0.16166 0.0
C357 C 0.60991 0.0309 0.1436 0.0
C358 C 0.58869 0.97826 1.00526 0.0
O359 O 0.53667 0.05848 0.98366 0.0
O360 O 0.56629 0.06356 0.0357 0.0
O361 O 0.58831 0.98848 0.0381 0.0
O362 O 0.55978 0.98384 0.98545 0.0
O363 O 0.52411 0.9639 0.07718 0.0
H364 H 0.62572 0.03476 0.08399 0.0
H365 H 0.52342 0.00737 0.14032 0.0
O366 O 0.497 0.95759 0.02386 0.0
O367 O 0.47361 0.03199 0.02263 0.0
O368 O 0.50258 0.03917 0.07441 0.0
C369 C 0.47328 0.04332 0.05496 0.0
H370 H 0.42424 0.98482 0.90561 0.0
H371 H 0.63516 0.04086 0.15612 0.0
Co372 Co 0.55454 0.51818 0.51669 0.0
C373 C 0.49172 0.53206 0.47205 0.0
Co374 Co 0.50165 0.49706 0.54487 0.0
C375 C 0.63376 0.52756 0.49931 0.0
C376 C 0.60125 0.57223 0.4692 0.0
N377 N 0.59825 0.53835 0.49284 0.0
N378 N 0.65858 0.55374 0.48103 0.0
C379 C 0.63828 0.58182 0.46203 0.0
H380 H 0.64134 0.50249 0.51889 0.0
H381 H 0.57807 0.59009 0.45952 0.0
C382 C 0.56423 0.48248 0.58947 0.0
N383 N 0.45772 0.47833 0.56895 0.0
C384 C 0.42661 0.4647 0.55356 0.0
C385 C 0.44931 0.47711 0.60575 0.0
N386 N 0.39903 0.45536 0.57926 0.0
C387 C 0.41329 0.46282 0.61219 0.0
C388 C 0.53531 0.44243 0.50631 0.0
O389 O 0.58134 0.50173 0.5615 0.0
O390 O 0.52925 0.47634 0.58754 0.0
O391 O 0.50636 0.44944 0.52472 0.0
O392 O 0.56142 0.46849 0.50029 0.0
O393 O 0.47435 0.51793 0.50195 0.0
H394 H 0.4679 0.48678 0.62644 0.0
H395 H 0.42423 0.46178 0.52406 0.0
O396 O 0.52716 0.53409 0.47203 0.0
O397 O 0.54738 0.56774 0.53339 0.0
O398 O 0.49719 0.54467 0.56498 0.0
C399 C 0.52075 0.57259 0.55569 0.0
H400 H 0.64953 0.60811 0.44527 0.0
H401 H 0.39831 0.45935 0.63879 0.0
Co402 Co 0.05097 0.51481 0.99394 0.0
C403 C 0.97913 0.47915 0.99335 0.0
Co404 Co 1.01897 0.51262 0.04692 0.0
C405 C 0.06308 0.51395 0.91456 0.0
C406 C 0.11353 0.50635 0.94534 0.0
N407 N 0.07705 0.51364 0.94927 0.0
N408 N 0.08913 0.50643 0.88927 0.0
C409 C 0.12101 0.50177 0.90854 0.0
H410 H 0.03402 0.51799 0.90819 0.0
H411 H 0.13293 0.50213 0.96819 0.0
C412 C 0.09067 0.5485 0.0475 0.0
N413 N 0.99371 0.51373 0.09199 0.0
C414 C 1.00945 0.51417 0.12583 0.0
C415 C 0.95733 0.52033 0.09772 0.0
N416 N 0.98473 0.52201 0.15217 0.0
C417 C 0.95171 0.52531 0.13482 0.0
C418 C 0.06285 0.4476 0.04552 0.0
O419 O 0.0926 0.54124 1.01377 0.0
O420 O 0.06081 0.53916 0.06621 0.0
O421 O 0.03951 0.46318 0.06567 0.0
O422 O 0.07111 0.46514 1.013 0.0
O423 O 0.97744 0.48597 0.02728 0.0
H424 H 0.93672 0.52362 0.07594 0.0
H425 H 0.03888 0.51036 0.13079 0.0
O426 O 1.00896 0.48855 0.97443 0.0
O427 O 0.03062 0.56422 0.97529 0.0
O428 O 0.99839 0.56226 0.02768 0.0
C429 C 1.00691 0.57971 0.99512 0.0
H430 H 0.14719 0.49282 0.89753 0.0
H431 H 0.92593 0.5333 0.14745 0.0
C432 C 0.12589 0.05542 0.38118 0.0
C433 C 0.10965 0.08179 0.35311 0.0
C434 C 0.10672 0.04172 0.41491 0.0
C435 C 0.07022 0.05336 0.42201 0.0
H436 H 0.15357 0.0448 0.37693 0.0
H437 H 0.1205 0.02132 0.4354 0.0
S438 S 1.01593 0.12439 0.35949 0.0
N439 N 0.0555 0.12115 0.33629 0.0
N440 N 1.0192 0.09426 0.39889 0.0
C441 C 0.05368 0.07991 0.39446 0.0
C442 C 0.07339 0.09435 0.3603 0.0
C443 C 0.46539 0.99233 0.79847 0.0
C444 C 0.49161 0.96494 0.79 0.0
C445 C 0.46457 1.00566 0.83357 0.0
C446 C 0.49006 0.99221 0.86121 0.0
H447 H 0.44374 1.00136 0.77871 0.0
H448 H 0.44258 0.02487 0.83997 0.0
S449 S 0.56655 0.92349 0.85142 0.0
N450 N 0.54553 0.92729 0.81055 0.0
N451 N 0.5442 0.95255 0.87684 0.0
C452 C 0.51836 0.96731 0.85203 0.0
C453 C 0.51909 0.95361 0.81622 0.0
C454 C 0.63919 0.47103 0.66419 0.0
C455 C 0.62345 0.44214 0.69173 0.0
C456 C 0.62016 0.48355 0.63101 0.0
C457 C 0.58455 0.4678 0.6241 0.0
H458 H 0.66613 0.48463 0.66861 0.0
H459 H 0.63322 0.50627 0.61095 0.0
S460 S 0.53287 0.38829 0.68538 0.0
N461 N 0.5715 0.39576 0.70825 0.0
N462 N 0.53551 0.41977 0.64663 0.0
C463 C 0.56896 0.43818 0.651 0.0
C464 C 0.58842 0.42526 0.68457 0.0
C465 C 0.97461 0.5291 0.25507 0.0
C466 C 1.00473 0.55444 0.26169 0.0
C467 C 0.96861 0.51808 0.21934 0.0
C468 C 0.9928 0.53151 0.18914 0.0
H469 H 0.95475 0.51885 0.27738 0.0
H470 H 0.94467 0.49926 0.21513 0.0
S471 S 0.07631 0.59756 0.19202 0.0
N472 N 0.05949 0.59186 0.23541 0.0
N473 N 0.0482 0.5713 0.16818 0.0
C474 C 1.02354 0.55611 0.19558 0.0
C475 C 0.02946 0.56759 0.23187 0.0
C476 C 0.40851 0.09422 0.11812 0.0
C477 C 0.37296 0.08973 0.10256 0.0
C478 C 0.44064 0.07943 0.10253 0.0
C479 C 0.43885 0.05969 0.07045 0.0
H480 H 0.41168 0.10969 0.1424 0.0
H481 H 0.46718 0.08373 0.11572 0.0
S482 S 0.3523 0.03723 1.0205 0.0
N483 N 0.33786 0.06157 0.05446 0.0
N484 N 0.39796 0.03504 0.02472 0.0
C485 C 0.40345 0.05471 0.0548 0.0
C486 C 0.3707 0.06938 0.07089 0.0
C487 C 0.23623 0.9509 0.62278 0.0
C488 C 0.2455 0.91969 0.60286 0.0
C489 C 0.20309 0.97071 0.61598 0.0
C490 C 0.17795 0.95984 0.58928 0.0
H491 H 0.25549 0.96127 0.64259 0.0
H492 H 0.19752 0.99554 0.63085 0.0
S493 S 0.18789 0.8782 0.5317 0.0
N494 N 0.22599 0.8771 0.55711 0.0
N495 N 0.16349 0.91479 0.544 0.0
C496 C 0.18599 0.92754 0.57036 0.0
C497 C 0.21993 0.90743 0.57715 0.0
C498 C 0.88646 0.42522 0.98063 0.0
C499 C 0.88037 0.43366 0.94187 0.0
C500 C 0.91848 0.43986 0.99711 0.0
C501 C 0.94602 0.46275 0.97531 0.0
H502 H 0.86596 0.40777 0.99844 0.0
H503 H 0.92172 0.4331 0.02713 0.0
S504 S 0.94338 0.49232 0.87228 0.0
N505 N 0.90451 0.46586 0.88209 0.0
N506 N 0.96465 0.49298 0.91265 0.0
C507 C 0.94034 0.47082 0.93638 0.0
C508 C 0.90755 0.45642 0.91979 0.0
C509 C 0.75583 0.59316 0.49143 0.0
C510 C 0.7776 0.56134 0.48453 0.0
C511 C 0.71685 0.59007 0.49122 0.0
C512 C 0.69837 0.5549 0.48473 0.0
H513 H 0.76902 0.62122 0.49512 0.0
H514 H 0.70096 0.61559 0.49542 0.0
S515 S 0.74257 0.46228 0.46807 0.0
N516 N 0.77801 0.49303 0.4729 0.0
N517 N 0.70444 0.48709 0.47333 0.0
C518 C 0.71972 0.5223 0.4797 0.0
C519 C 0.75946 0.52558 0.47932 0.0
C520 C 0.08828 0.35582 0.11096 0.0
C521 C 0.11756 0.34012 0.09165 0.0
C522 C 0.07065 0.39023 0.09575 0.0
C523 C 0.08125 0.41031 0.06035 0.0
H524 H 0.0793 0.34172 0.13842 0.0
H525 H 0.04861 0.40123 0.11207 0.0
S526 S 0.15524 0.38009 0.99749 0.0
N527 N 0.15549 0.34646 0.03468 0.0
N528 N 0.12258 0.41091 1.00599 0.0
C529 C 0.11017 0.3945 0.04048 0.0
C530 C 0.12826 0.35958 0.05614 0.0
C531 C 0.6219 0.16983 0.98915 0.0
C532 C 0.6126 0.18811 0.95337 0.0
C533 C 0.60383 0.13466 1.00499 0.0
C534 C 0.57595 0.11611 0.98552 0.0
H535 H 0.64324 0.18293 1.00511 0.0
H536 H 0.61217 0.12172 0.03258 0.0
S537 S 0.54215 0.15178 0.89029 0.0
N538 N 0.57424 0.18495 0.89858 0.0
N539 N 0.54019 0.11896 0.92813 0.0
C540 C 0.56641 0.13421 0.94963 0.0
C541 C 0.58471 0.17016 0.93364 0.0
C542 C 0.9977 0.8524 0.45479 0.0
C543 C 1.01638 0.82116 0.47495 0.0
C544 C 1.00227 0.89094 0.46319 0.0
C545 C 0.02595 0.90009 0.49199 0.0
H546 H 0.97867 0.84691 0.43274 0.0
H547 H 0.98638 0.91364 0.44739 0.0
S548 S 0.08326 0.82947 0.55169 0.0
N549 N 0.06085 0.80213 0.52399 0.0
N550 N 0.07002 0.875 0.53939 0.0
C551 C 0.04632 0.86953 0.51121 0.0
C552 C 0.04143 0.82999 0.50277 0.0
C553 C 0.5233 0.68226 0.55992 0.0
C554 C 0.50288 0.68517 0.593 0.0
C555 C 0.5302 0.64549 0.54863 0.0
C556 C 0.51659 0.61061 0.56993 0.0
H557 H 0.53247 0.70856 0.54178 0.0
H558 H 0.54488 0.64448 0.52226 0.0
S559 S 0.46696 0.60239 0.66182 0.0
N560 N 0.47331 0.65019 0.64928 0.0
N561 N 0.48556 0.58104 0.62767 0.0
C562 C 0.49801 0.6131 0.60412 0.0
C563 C 0.49136 0.65043 0.61577 0.0
C564 C 0.91386 0.93564 0.65411 0.0
C565 C 0.93041 0.9382 0.68906 0.0
C566 C 0.93262 0.94989 0.62025 0.0
C567 C 0.96907 0.9665 0.61985 0.0
H568 H 0.88603 0.92276 0.65295 0.0
H569 H 0.91854 0.94741 0.59413 0.0
S570 S 0.02504 0.97932 0.70393 0.0
N571 N 0.98539 0.95847 0.72123 0.0
N572 N 1.0209 0.98454 0.65789 0.0
C573 C 0.98601 0.96892 0.65469 0.0
C574 C 0.96663 0.95502 0.68915 0.0
C575 C 0.52704 0.05449 0.2442 0.0
C576 C 0.55261 0.04602 0.27318 0.0
C577 C 0.53444 0.04504 0.20814 0.0
C578 C 0.56787 0.02723 0.19975 0.0
H579 H 0.50173 0.06967 0.24917 0.0
H580 H 0.51469 0.05347 0.18626 0.0
S581 S 0.64279 0.99672 0.26622 0.0
N582 N 0.61196 0.01724 0.29149 0.0
N583 N 0.6254 0.99897 0.22373 0.0
C584 C 0.59289 0.01712 0.2288 0.0
C585 C 0.58534 0.02657 0.26554 0.0
C586 C 0.46819 0.55235 0.36878 0.0
C587 C 0.4331 0.56995 0.3689 0.0
C588 C 0.48693 0.54052 0.40216 0.0
C589 C 0.47109 0.54485 0.43729 0.0
H590 H 0.48148 0.54763 0.34259 0.0
H591 H 0.51393 0.52742 0.40043 0.0
S592 S 0.38051 0.5896 0.45401 0.0
N593 N 0.384 0.59217 0.40792 0.0
N594 N 0.41842 0.56784 0.47056 0.0
C595 C 0.43581 0.56155 0.43815 0.0
C596 C 0.417 0.57451 0.40407 0.0
C597 C 0.04565 0.46183 0.80929 0.0
C598 C 0.07255 0.47053 0.78041 0.0
C599 C 0.05055 0.47498 0.84434 0.0
C600 C 0.08269 0.49699 0.85191 0.0
H601 H 1.02093 0.44417 0.80496 0.0
H602 H 0.02974 0.46648 0.86614 0.0
S603 S 0.16074 0.5289 0.7855 0.0
N604 N 0.13212 0.50334 0.76152 0.0
N605 N 0.14086 0.52849 0.82722 0.0
C606 C 0.10927 0.50679 0.823 0.0
C607 C 0.10428 0.49353 0.78729 0.0
C608 C 0.65086 0.92445 0.94234 0.0
C609 C 0.68705 0.93082 0.95555 0.0
C610 C 0.61938 0.93968 0.95864 0.0
C611 C 0.62256 0.96126 0.98943 0.0
H612 H 0.64689 0.90811 0.91872 0.0
H613 H 0.59226 0.93437 0.94701 0.0
S614 S 0.71107 0.98506 0.03539 0.0
N615 N 0.72417 0.95974 1.0016 0.0
N616 N 0.66526 0.98764 0.03266 0.0
C617 C 0.6586 0.96723 1.0033 0.0
C618 C 0.6907 0.95228 0.98625 0.0
C619 C 0.81458 0.10184 0.46821 0.0
C620 C 0.78878 0.08931 0.44279 0.0
C621 C 0.84998 0.08556 0.47151 0.0
C622 C 0.86031 0.05641 0.44948 0.0
H623 H 0.80651 0.12235 0.48722 0.0
H624 H 0.86825 0.09365 0.49321 0.0
S625 S 0.80542 0.01979 0.37386 0.0
N626 N 0.77777 0.05068 0.39161 0.0
N627 N 0.84436 0.02015 0.39788 0.0
C628 C 0.83595 0.04641 0.42178 0.0
C629 C 0.80009 0.06285 0.41843 0.0
C630 C 0.15828 0.56955 0.12379 0.0
C631 C 0.18796 0.59089 0.10388 0.0
C632 C 0.12676 0.55683 0.10536 0.0
C633 C 0.12355 0.56456 0.06612 0.0
H634 H 0.15968 0.56179 0.15389 0.0
H635 H 0.10517 0.53983 0.12203 0.0
S636 S 0.19159 0.62227 1.001 0.0
N637 N 0.21052 0.62179 0.04268 0.0
N638 N 0.15189 0.59664 1.00809 0.0
C639 C 0.15261 0.58639 0.04584 0.0
C640 C 0.18459 0.59983 0.06466 0.0
C641 C 0.30594 0.40328 0.59628 0.0
C642 C 0.28458 0.42097 0.56655 0.0
C643 C 0.34358 0.41394 0.59961 0.0
C644 C 0.36139 0.44234 0.57317 0.0
H645 H 0.29309 0.38218 0.618 0.0
H646 H 0.3588 0.40035 0.62342 0.0
S647 S 0.31842 0.4958 0.48899 0.0
N648 N 0.28433 0.46692 0.50921 0.0
N649 N 0.35523 0.48713 0.51558 0.0
C650 C 0.34076 0.45926 0.54255 0.0
C651 C 0.30229 0.4486 0.53928 0.0
C652 C 0.93621 0.66162 0.98405 0.0
C653 C 0.94581 0.68305 0.94901 0.0
C654 C 0.95657 0.62894 0.99904 0.0
C655 C 0.98751 0.61621 0.97971 0.0
H656 H 0.91219 0.66958 0.99967 0.0
H657 H 0.94741 0.61308 0.02572 0.0
S658 S 0.02639 0.66445 0.88849 0.0
N659 N 0.99011 0.69084 0.89668 0.0
N660 N 0.0279 0.62938 0.92439 0.0
C661 C 0.998 0.63806 0.94508 0.0
C662 C 0.97731 0.67138 0.92988 0.0
C663 C 0.44746 0.87064 0.12527 0.0
C664 C 0.44644 0.83632 0.1073 0.0
C665 C 0.46684 0.90499 0.10943 0.0
C666 C 0.48517 0.90681 0.07452 0.0
H667 H 0.4327 0.87129 0.15163 0.0
H668 H 0.46661 0.93069 0.12415 0.0
S669 S 0.49366 0.82543 1.01667 0.0
N670 N 0.46837 0.80613 0.0535 0.0
N671 N 0.50251 0.87171 0.02281 0.0
C672 C 0.48458 0.87311 0.0561 0.0
C673 C 0.46575 0.83768 0.07267 0.0
C674 C 0.03903 0.1662 0.58814 0.0
C675 C 1.01737 0.19647 0.57048 0.0
C676 C 0.03649 0.12815 0.57807 0.0
C677 C 1.01193 0.11859 0.55012 0.0
H678 H 0.05918 0.17229 0.60901 0.0
H679 H 0.05446 0.10618 0.59202 0.0
S680 S 0.94709 0.18669 0.4972 0.0
N681 N 0.96918 0.21415 0.52502 0.0
N682 N 0.96409 0.14225 0.50618 0.0
C683 C 0.98903 0.14822 0.53315 0.0
C684 C 0.99192 0.18726 0.54322 0.0
C685 C 0.57853 0.34959 0.48197 0.0
C686 C 0.54719 0.32616 0.47516 0.0
C687 C 0.57454 0.38788 0.49071 0.0
C688 C 0.53901 0.40356 0.49363 0.0
H689 H 0.60628 0.3381 0.4807 0.0
H690 H 0.59934 0.40481 0.49638 0.0
S691 S 0.44839 0.35426 0.47688 0.0
N692 N 0.47984 0.3214 0.47038 0.0
N693 N 0.47202 0.39329 0.48756 0.0
C694 C 0.50749 0.38057 0.48621 0.0
C695 C 0.51167 0.34183 0.47673 0.0
loop_
_geom_bond_atom_site_label_1
_geom_bond_atom_site_label_2
_geom_bond_distance
_geom_bond_site_symmetry_2
_ccdc_geom_bond_type
C0 C1 1.386 . S
C0 C2 1.397 . S
C0 H24 0.931 . S
C1 C0 1.386 . S
C1 C5 1.397 . S
C2 C0 1.397 . S
C2 C3 1.384 . S
C2 H25 0.930 . S
C3 C2 1.384 . S
C3 C4 1.377 . S
C3 C6 1.481 . S
C4 C3 1.377 . S
C4 C5 1.389 . S
C4 H26 0.929 . S
C5 C1 1.397 . S
C5 C4 1.389 . S
C5 H27 0.931 . S
C6 C3 1.481 . S
C6 C7 1.387 . S
C6 C11 1.390 . S
C7 C6 1.387 . S
C7 C8 1.401 . S
C7 H28 0.930 . S
C8 C7 1.401 . S
C8 C9 1.376 . S
C8 C17 1.511 . S
C9 C8 1.376 . S
C9 C10 1.392 . S
C9 H30 0.931 . S
C10 C9 1.392 . S
C10 C11 1.361 . S
C10 C12 1.500 . S
C11 C6 1.390 . S
C11 C10 1.361 . S
C11 H29 0.931 . S
C12 C10 1.500 . S
C12 C13 1.371 . S
C12 C14 1.365 . S
C13 C12 1.371 . S
C13 C23 1.386 . S
C13 H31 0.931 . S
C14 C12 1.365 . S
C14 C15 1.409 . S
C14 H32 0.929 . S
C15 C14 1.409 . S
C15 C16 1.380 . S
C15 H33 0.930 . S
C16 C15 1.380 . S
C16 C23 1.357 . S
C17 C8 1.511 . S
C17 C18 1.341 . S
C17 C19 1.371 . S
C18 C17 1.341 . S
C18 C22 1.394 . S
C18 H34 0.930 . S
C19 C17 1.371 . S
C19 C20 1.392 . S
C19 H35 0.931 . S
C20 C19 1.392 . S
C20 C21 1.331 . S
C20 H38 0.932 . S
C21 C20 1.331 . S
C21 C22 1.336 . S
C22 C18 1.394 . S
C22 C21 1.336 . S
C22 H37 0.929 . S
C23 C13 1.386 . S
C23 C16 1.357 . S
C23 H36 0.928 . S
H24 C0 0.931 . S
H25 C2 0.930 . S
H26 C4 0.929 . S
H27 C5 0.931 . S
H28 C7 0.930 . S
H29 C11 0.931 . S
H30 C9 0.931 . S
H31 C13 0.931 . S
H32 C14 0.929 . S
H33 C15 0.930 . S
H34 C18 0.930 . S
H35 C19 0.931 . S
H36 C23 0.928 . S
H37 C22 0.929 . S
H38 C20 0.932 . S
C39 C40 1.386 . S
C39 C41 1.397 . S
C39 H63 0.931 . S
C40 C39 1.386 . S
C40 C44 1.397 . S
C41 C39 1.397 . S
C41 C42 1.384 . S
C41 H64 0.930 . S
C42 C41 1.384 . S
C42 C43 1.377 . S
C42 C45 1.481 . S
C43 C42 1.377 . S
C43 C44 1.389 . S
C43 H65 0.929 . S
C44 C40 1.397 . S
C44 C43 1.389 . S
C44 H66 0.931 . S
C45 C42 1.481 . S
C45 C46 1.387 . S
C45 C50 1.390 . S
C46 C45 1.387 . S
C46 C47 1.401 . S
C46 H67 0.930 . S
C47 C46 1.401 . S
C47 C48 1.376 . S
C47 C56 1.511 . S
C48 C47 1.376 . S
C48 C49 1.392 . S
C48 H69 0.931 . S
C49 C48 1.392 . S
C49 C50 1.361 . S
C49 C51 1.500 . S
C50 C45 1.390 . S
C50 C49 1.361 . S
C50 H68 0.931 . S
C51 C49 1.500 . S
C51 C52 1.371 . S
C51 C53 1.365 . S
C52 C51 1.371 . S
C52 C62 1.386 . S
C52 H70 0.931 . S
C53 C51 1.365 . S
C53 C54 1.409 . S
C53 H71 0.929 . S
C54 C53 1.409 . S
C54 C55 1.380 . S
C54 H72 0.930 . S
C55 C54 1.380 . S
C55 C62 1.357 . S
C56 C47 1.511 . S
C56 C57 1.341 . S
C56 C58 1.371 . S
C57 C56 1.341 . S
C57 C61 1.394 . S
C57 H73 0.930 . S
C58 C56 1.371 . S
C58 C59 1.392 . S
C58 H74 0.931 . S
C59 C58 1.392 . S
C59 C60 1.331 . S
C59 H77 0.932 . S
C60 C59 1.331 . S
C60 C61 1.336 . S
C61 C57 1.394 . S
C61 C60 1.336 . S
C61 H76 0.929 . S
C62 C52 1.386 . S
C62 C55 1.357 . S
C62 H75 0.928 . S
H63 C39 0.931 . S
H64 C41 0.930 . S
H65 C43 0.929 . S
H66 C44 0.931 . S
H67 C46 0.930 . S
H68 C50 0.931 . S
H69 C48 0.931 . S
H70 C52 0.931 . S
H71 C53 0.929 . S
H72 C54 0.930 . S
H73 C57 0.930 . S
H74 C58 0.931 . S
H75 C62 0.928 . S
H76 C61 0.929 . S
H77 C59 0.932 . S
C78 C79 1.386 . S
C78 C80 1.397 . S
C78 H102 0.931 . S
C79 C78 1.386 . S
C79 C83 1.397 . S
C80 C78 1.397 . S
C80 C81 1.384 . S
C80 H103 0.930 . S
C81 C80 1.384 . S
C81 C82 1.377 . S
C81 C84 1.481 . S
C82 C81 1.377 . S
C82 C83 1.389 . S
C82 H104 0.929 . S
C83 C79 1.397 . S
C83 C82 1.389 . S
C83 H105 0.931 . S
C84 C81 1.481 . S
C84 C85 1.387 . S
C84 C89 1.390 . S
C85 C84 1.387 . S
C85 C86 1.401 . S
C85 H106 0.930 . S
C86 C85 1.401 . S
C86 C87 1.376 . S
C86 C95 1.511 . S
C87 C86 1.376 . S
C87 C88 1.392 . S
C87 H108 0.931 . S
C88 C87 1.392 . S
C88 C89 1.361 . S
C88 C90 1.500 . S
C89 C84 1.390 . S
C89 C88 1.361 . S
C89 H107 0.931 . S
C90 C88 1.500 . S
C90 C91 1.371 . S
C90 C92 1.365 . S
C91 C90 1.371 . S
C91 C101 1.386 . S
C91 H109 0.931 . S
C92 C90 1.365 . S
C92 C93 1.409 . S
C92 H110 0.929 . S
C93 C92 1.409 . S
C93 C94 1.380 . S
C93 H111 0.930 . S
C94 C93 1.380 . S
C94 C101 1.357 . S
C95 C86 1.511 . S
C95 C96 1.341 . S
C95 C97 1.371 . S
C96 C95 1.341 . S
C96 C100 1.394 . S
C96 H112 0.930 . S
C97 C95 1.371 . S
C97 C98 1.392 . S
C97 H113 0.931 . S
C98 C97 1.392 . S
C98 C99 1.331 . S
C98 H116 0.932 . S
C99 C98 1.331 . S
C99 C100 1.336 . S
C100 C96 1.394 . S
C100 C99 1.336 . S
C100 H115 0.929 . S
C101 C91 1.386 . S
C101 C94 1.357 . S
C101 H114 0.928 . S
H102 C78 0.931 . S
H103 C80 0.930 . S
H104 C82 0.929 . S
H105 C83 0.931 . S
H106 C85 0.930 . S
H107 C89 0.931 . S
H108 C87 0.931 . S
H109 C91 0.931 . S
H110 C92 0.929 . S
H111 C93 0.930 . S
H112 C96 0.930 . S
H113 C97 0.931 . S
H114 C101 0.928 . S
H115 C100 0.929 . S
H116 C98 0.932 . S
C117 C118 1.386 . S
C117 C119 1.397 . S
C117 H141 0.931 . S
C118 C117 1.386 . S
C118 C122 1.397 . S
C119 C117 1.397 . S
C119 C120 1.384 . S
C119 H142 0.930 . S
C120 C119 1.384 . S
C120 C121 1.377 . S
C120 C123 1.481 . S
C121 C120 1.377 . S
C121 C122 1.389 . S
C121 H143 0.929 . S
C122 C118 1.397 . S
C122 C121 1.389 . S
C122 H144 0.931 1_655 S
C123 C120 1.481 . S
C123 C124 1.387 . S
C123 C128 1.390 . S
C124 C123 1.387 . S
C124 C125 1.401 . S
C124 H145 0.930 . S
C125 C124 1.401 . S
C125 C126 1.376 . S
C125 C134 1.511 . S
C126 C125 1.376 . S
C126 C127 1.392 . S
C126 H147 0.931 . S
C127 C126 1.392 . S
C127 C128 1.361 . S
C127 C129 1.500 . S
C128 C123 1.390 . S
C128 C127 1.361 . S
C128 H146 0.931 . S
C129 C127 1.500 . S
C129 C130 1.371 . S
C129 C131 1.365 . S
C130 C129 1.371 . S
C130 C140 1.386 . S
C130 H148 0.931 . S
C131 C129 1.365 . S
C131 C132 1.409 . S
C131 H149 0.929 . S
C132 C131 1.409 . S
C132 C133 1.380 . S
C132 H150 0.930 1_655 S
C133 C132 1.380 . S
C133 C140 1.357 . S
C134 C125 1.511 . S
C134 C135 1.341 . S
C134 C136 1.371 . S
C135 C134 1.341 . S
C135 C139 1.394 . S
C135 H151 0.930 . S
C136 C134 1.371 . S
C136 C137 1.392 . S
C136 H152 0.931 . S
C137 C136 1.392 . S
C137 C138 1.331 . S
C137 H155 0.932 . S
C138 C137 1.331 . S
C138 C139 1.336 . S
C139 C135 1.394 . S
C139 C138 1.336 . S
C139 H154 0.929 . S
C140 C130 1.386 . S
C140 C133 1.357 . S
C140 H153 0.928 . S
H141 C117 0.931 . S
H142 C119 0.930 . S
H143 C121 0.929 . S
H144 C122 0.931 1_455 S
H145 C124 0.930 . S
H146 C128 0.931 . S
H147 C126 0.931 . S
H148 C130 0.931 . S
H149 C131 0.929 . S
H150 C132 0.930 1_455 S
H151 C135 0.930 . S
H152 C136 0.931 . S
H153 C140 0.928 . S
H154 C139 0.929 . S
H155 C137 0.932 . S
C156 C157 1.386 . S
C156 C158 1.397 . S
C156 H180 0.931 . S
C157 C156 1.386 . S
C157 C161 1.397 . S
C158 C156 1.397 . S
C158 C159 1.384 . S
C158 H181 0.930 . S
C159 C158 1.384 . S
C159 C160 1.377 . S
C159 C162 1.481 . S
C160 C159 1.377 . S
C160 C161 1.389 . S
C160 H182 0.929 . S
C161 C157 1.397 . S
C161 C160 1.389 . S
C161 H183 0.931 . S
C162 C159 1.481 . S
C162 C163 1.387 . S
C162 C167 1.390 . S
C163 C162 1.387 . S
C163 C164 1.401 . S
C163 H184 0.930 . S
C164 C163 1.401 . S
C164 C165 1.376 . S
C164 C173 1.511 . S
C165 C164 1.376 . S
C165 C166 1.392 . S
C165 H186 0.931 . S
C166 C165 1.392 . S
C166 C167 1.361 . S
C166 C168 1.500 . S
C167 C162 1.390 . S
C167 C166 1.361 . S
C167 H185 0.931 . S
C168 C166 1.500 . S
C168 C169 1.371 . S
C168 C170 1.365 . S
C169 C168 1.371 . S
C169 C179 1.386 . S
C169 H187 0.931 . S
C170 C168 1.365 . S
C170 C171 1.409 . S
C170 H188 0.929 . S
C171 C170 1.409 . S
C171 C172 1.380 . S
C171 H189 0.930 . S
C172 C171 1.380 . S
C172 C179 1.357 . S
C173 C164 1.511 . S
C173 C174 1.341 . S
C173 C175 1.371 . S
C174 C173 1.341 . S
C174 C178 1.394 . S
C174 H190 0.930 . S
C175 C173 1.371 . S
C175 C176 1.392 . S
C175 H191 0.931 . S
C176 C175 1.392 . S
C176 C177 1.331 . S
C176 H194 0.932 . S
C177 C176 1.331 . S
C177 C178 1.336 . S
C178 C174 1.394 . S
C178 C177 1.336 . S
C178 H193 0.929 . S
C179 C169 1.386 . S
C179 C172 1.357 . S
C179 H192 0.928 . S
H180 C156 0.931 . S
H181 C158 0.930 . S
H182 C160 0.929 . S
H183 C161 0.931 . S
H184 C163 0.930 . S
H185 C167 0.931 . S
H186 C165 0.931 . S
H187 C169 0.931 . S
H188 C170 0.929 . S
H189 C171 0.930 . S
H190 C174 0.930 . S
H191 C175 0.931 . S
H192 C179 0.928 . S
H193 C178 0.929 . S
H194 C176 0.932 . S
C195 C196 1.386 . S
C195 C197 1.397 . S
C195 H219 0.931 . S
C196 C195 1.386 . S
C196 C200 1.397 . S
C197 C195 1.397 . S
C197 C198 1.384 . S
C197 H220 0.930 . S
C198 C197 1.384 . S
C198 C199 1.377 . S
C198 C201 1.481 . S
C199 C198 1.377 . S
C199 C200 1.389 . S
C199 H221 0.929 . S
C200 C196 1.397 . S
C200 C199 1.389 . S
C200 H222 0.931 . S
C201 C198 1.481 . S
C201 C202 1.387 . S
C201 C206 1.390 . S
C202 C201 1.387 . S
C202 C203 1.401 . S
C202 H223 0.930 . S
C203 C202 1.401 . S
C203 C204 1.376 . S
C203 C212 1.511 . S
C204 C203 1.376 . S
C204 C205 1.392 . S
C204 H225 0.931 . S
C205 C204 1.392 . S
C205 C206 1.361 . S
C205 C207 1.500 . S
C206 C201 1.390 . S
C206 C205 1.361 . S
C206 H224 0.931 . S
C207 C205 1.500 . S
C207 C208 1.371 . S
C207 C209 1.365 . S
C208 C207 1.371 . S
C208 C218 1.386 . S
C208 H226 0.931 . S
C209 C207 1.365 . S
C209 C210 1.409 . S
C209 H227 0.929 . S
C210 C209 1.409 . S
C210 C211 1.380 . S
C210 H228 0.930 . S
C211 C210 1.380 . S
C211 C218 1.357 . S
C212 C203 1.511 . S
C212 C213 1.341 . S
C212 C214 1.371 . S
C213 C212 1.341 . S
C213 C217 1.394 . S
C213 H229 0.930 . S
C214 C212 1.371 . S
C214 C215 1.392 . S
C214 H230 0.931 . S
C215 C214 1.392 . S
C215 C216 1.331 . S
C215 H233 0.932 . S
C216 C215 1.331 . S
C216 C217 1.336 . S
C217 C213 1.394 . S
C217 C216 1.336 . S
C217 H232 0.929 . S
C218 C208 1.386 . S
C218 C211 1.357 . S
C218 H231 0.928 . S
H219 C195 0.931 . S
H220 C197 0.930 . S
H221 C199 0.929 . S
H222 C200 0.931 . S
H223 C202 0.930 . S
H224 C206 0.931 . S
H225 C204 0.931 . S
H226 C208 0.931 . S
H227 C209 0.929 . S
H228 C210 0.930 . S
H229 C213 0.930 . S
H230 C214 0.931 . S
H231 C218 0.928 . S
H232 C217 0.929 . S
H233 C215 0.932 . S
C234 C235 1.386 . S
C234 C236 1.397 . S
C234 H258 0.931 . S
C235 C234 1.386 . S
C235 C239 1.397 . S
C236 C234 1.397 . S
C236 C237 1.384 . S
C236 H259 0.930 . S
C237 C236 1.384 . S
C237 C238 1.377 . S
C237 C240 1.481 . S
C238 C237 1.377 . S
C238 C239 1.389 . S
C238 H260 0.929 . S
C239 C235 1.397 . S
C239 C238 1.389 . S
C239 H261 0.931 . S
C240 C237 1.481 . S
C240 C241 1.387 . S
C240 C245 1.390 . S
C241 C240 1.387 . S
C241 C242 1.401 . S
C241 H262 0.930 . S
C242 C241 1.401 . S
C242 C243 1.376 . S
C242 C251 1.511 . S
C243 C242 1.376 . S
C243 C244 1.392 . S
C243 H264 0.931 . S
C244 C243 1.392 . S
C244 C245 1.361 . S
C244 C246 1.500 . S
C245 C240 1.390 . S
C245 C244 1.361 . S
C245 H263 0.931 . S
C246 C244 1.500 . S
C246 C247 1.371 . S
C246 C248 1.365 . S
C247 C246 1.371 . S
C247 C257 1.386 . S
C247 H265 0.931 . S
C248 C246 1.365 . S
C248 C249 1.409 . S
C248 H266 0.929 . S
C249 C248 1.409 . S
C249 C250 1.380 . S
C249 H267 0.930 . S
C250 C249 1.380 . S
C250 C257 1.357 . S
C251 C242 1.511 . S
C251 C252 1.341 . S
C251 C253 1.371 . S
C252 C251 1.341 . S
C252 C256 1.394 . S
C252 H268 0.930 . S
C253 C251 1.371 . S
C253 C254 1.392 . S
C253 H269 0.931 . S
C254 C253 1.392 . S
C254 C255 1.331 . S
C254 H272 0.932 . S
C255 C254 1.331 . S
C255 C256 1.336 . S
C256 C252 1.394 . S
C256 C255 1.336 . S
C256 H271 0.929 . S
C257 C247 1.386 . S
C257 C250 1.357 . S
C257 H270 0.928 . S
H258 C234 0.931 . S
H259 C236 0.930 . S
H260 C238 0.929 . S
H261 C239 0.931 . S
H262 C241 0.930 . S
H263 C245 0.931 . S
H264 C243 0.931 . S
H265 C247 0.931 . S
H266 C248 0.929 . S
H267 C249 0.930 . S
H268 C252 0.930 . S
H269 C253 0.931 . S
H270 C257 0.928 . S
H271 C256 0.929 . S
H272 C254 0.932 . S
C273 C274 1.386 . S
C273 C275 1.397 . S
C273 H297 0.931 . S
C274 C273 1.386 . S
C274 C278 1.397 . S
C275 C273 1.397 . S
C275 C276 1.384 . S
C275 H298 0.930 . S
C276 C275 1.384 . S
C276 C277 1.377 . S
C276 C279 1.481 . S
C277 C276 1.377 . S
C277 C278 1.389 . S
C277 H299 0.929 . S
C278 C274 1.397 . S
C278 C277 1.389 . S
C278 H300 0.931 1_455 S
C279 C276 1.481 . S
C279 C280 1.387 . S
C279 C284 1.390 . S
C280 C279 1.387 . S
C280 C281 1.401 . S
C280 H301 0.930 . S
C281 C280 1.401 . S
C281 C282 1.376 . S
C281 C290 1.511 . S
C282 C281 1.376 . S
C282 C283 1.392 . S
C282 H303 0.931 . S
C283 C282 1.392 . S
C283 C284 1.361 . S
C283 C285 1.500 . S
C284 C279 1.390 . S
C284 C283 1.361 . S
C284 H302 0.931 . S
C285 C283 1.500 . S
C285 C286 1.371 . S
C285 C287 1.365 . S
C286 C285 1.371 . S
C286 C296 1.386 . S
C286 H304 0.931 . S
C287 C285 1.365 . S
C287 C288 1.409 . S
C287 H305 0.929 . S
C288 C287 1.409 . S
C288 C289 1.380 . S
C288 H306 0.930 1_455 S
C289 C288 1.380 . S
C289 C296 1.357 . S
C290 C281 1.511 . S
C290 C291 1.341 . S
C290 C292 1.371 . S
C291 C290 1.341 . S
C291 C295 1.394 . S
C291 H307 0.930 . S
C292 C290 1.371 . S
C292 C293 1.392 . S
C292 H308 0.931 . S
C293 C292 1.392 . S
C293 C294 1.331 . S
C293 H311 0.932 . S
C294 C293 1.331 . S
C294 C295 1.336 . S
C295 C291 1.394 . S
C295 C294 1.336 . S
C295 H310 0.929 . S
C296 C286 1.386 . S
C296 C289 1.357 . S
C296 H309 0.928 . S
H297 C273 0.931 . S
H298 C275 0.930 . S
H299 C277 0.929 . S
H300 C278 0.931 1_655 S
H301 C280 0.930 . S
H302 C284 0.931 . S
H303 C282 0.931 . S
H304 C286 0.931 . S
H305 C287 0.929 . S
H306 C288 0.930 1_655 S
H307 C291 0.930 . S
H308 C292 0.931 . S
H309 C296 0.928 . S
H310 C295 0.929 . S
H311 C293 0.932 . S
Co312 N317 2.057 . S
Co312 O329 2.021 . S
Co312 O332 2.062 . S
Co312 O336 2.117 1_545 S
Co312 O337 2.020 1_545 S
C313 O333 1.259 1_655 S
C313 O336 1.258 . S
Co314 N323 2.057 . S
Co314 O330 2.117 1_565 S
Co314 O331 2.020 1_565 S
Co314 O333 2.021 . S
Co314 O338 2.062 . S
C315 N317 1.316 . S
C315 N318 1.347 . S
C315 H320 0.931 . S
C316 N317 1.375 1_565 S
C316 C319 1.350 1_565 S
C316 H321 0.930 . S
N317 Co312 2.057 . S
N317 C315 1.316 . S
N317 C316 1.375 1_545 S
N318 C315 1.347 . S
N318 C319 1.373 . S
C319 C316 1.350 1_545 S
C319 N318 1.373 . S
C319 H340 0.931 1_545 S
H320 C315 0.931 . S
H321 C316 0.930 . S
C322 O329 1.259 1_455 S
C322 O330 1.258 . S
N323 Co314 2.057 . S
N323 C324 1.316 . S
N323 C325 1.375 1_565 S
C324 N323 1.316 . S
C324 N326 1.347 . S
C324 H335 0.931 . S
C325 N323 1.375 1_545 S
C325 C327 1.350 1_545 S
C325 H334 0.930 . S
N326 C324 1.347 . S
N326 C327 1.373 . S
C327 C325 1.350 1_565 S
C327 N326 1.373 . S
C327 H341 0.931 1_565 S
C328 O331 1.256 . S
C328 O332 1.255 1_455 S
O329 Co312 2.021 . S
O329 C322 1.259 1_655 S
O330 Co314 2.117 1_545 S
O330 C322 1.258 . S
O331 Co314 2.020 1_545 S
O331 C328 1.256 . S
O332 Co312 2.062 . S
O332 C328 1.255 1_655 S
O333 C313 1.259 1_455 S
O333 Co314 2.021 . S
H334 C325 0.930 . S
H335 C324 0.931 . S
O336 Co312 2.117 1_565 S
O336 C313 1.258 . S
O337 Co312 2.020 1_565 S
O337 C339 1.256 . S
O338 Co314 2.062 . S
O338 C339 1.255 1_455 S
C339 O337 1.256 . S
C339 O338 1.255 1_655 S
H340 C319 0.931 1_565 S
H341 C327 0.931 1_545 S
Co342 N347 2.057 . S
Co342 O359 2.021 1_565 S
Co342 O362 2.062 . S
Co342 O366 2.104 1_556 S
Co342 O367 2.020 1_565 S
C343 O363 1.259 . S
C343 O366 1.281 . S
Co344 N353 2.057 . S
Co344 O360 2.117 . S
Co344 O361 2.020 1_545 S
Co344 O363 2.021 1_545 S
Co344 O368 2.062 . S
C345 N347 1.316 . S
C345 N348 1.347 . S
C345 H350 0.931 1_565 S
C346 N347 1.375 . S
C346 C349 1.350 . S
C346 H351 0.930 . S
N347 Co342 2.057 . S
N347 C345 1.316 . S
N347 C346 1.375 . S
N348 C345 1.347 . S
N348 C349 1.373 . S
C349 C346 1.350 . S
C349 N348 1.373 . S
C349 H370 0.931 . S
H350 C345 0.931 1_545 S
H351 C346 0.930 . S
C352 O359 1.259 . S
C352 O360 1.258 1_556 S
N353 Co344 2.057 . S
N353 C354 1.316 . S
N353 C355 1.375 . S
C354 N353 1.316 . S
C354 N356 1.347 . S
C354 H365 0.931 1_545 S
C355 N353 1.375 . S
C355 C357 1.350 . S
C355 H364 0.930 . S
N356 C354 1.347 . S
N356 C357 1.373 . S
C357 C355 1.350 . S
C357 N356 1.373 . S
C357 H371 0.931 . S
C358 O361 1.256 1_556 S
C358 O362 1.255 . S
O359 Co342 2.021 1_545 S
O359 C352 1.259 . S
O360 Co344 2.117 . S
O360 C352 1.258 1_554 S
O361 Co344 2.020 1_565 S
O361 C358 1.256 1_554 S
O362 Co342 2.062 . S
O362 C358 1.255 . S
O363 C343 1.259 . S
O363 Co344 2.021 1_565 S
H364 C355 0.930 . S
H365 C354 0.931 1_565 S
O366 Co342 2.104 1_554 S
O366 C343 1.281 . S
O367 Co342 2.020 1_545 S
O367 C369 1.256 1_556 S
O368 Co344 2.062 . S
O368 C369 1.255 . S
C369 O367 1.256 1_554 S
C369 O368 1.255 . S
H370 C349 0.931 . S
H371 C357 0.931 . S
Co372 N377 2.057 . S
Co372 O389 2.021 . S
Co372 O392 2.062 . S
Co372 O396 2.117 . S
Co372 O397 2.020 . S
C373 O393 1.259 . S
C373 O396 1.258 . S
Co374 N383 2.057 . S
Co374 O390 2.117 . S
Co374 O391 2.020 . S
Co374 O393 2.021 . S
Co374 O398 2.062 . S
C375 N377 1.316 . S
C375 N378 1.347 . S
C375 H380 0.931 . S
C376 N377 1.375 . S
C376 C379 1.350 . S
C376 H381 0.930 . S
N377 Co372 2.057 . S
N377 C375 1.316 . S
N377 C376 1.375 . S
N378 C375 1.347 . S
N378 C379 1.373 . S
C379 C376 1.350 . S
C379 N378 1.373 . S
C379 H400 0.931 . S
H380 C375 0.931 . S
H381 C376 0.930 . S
C382 O389 1.259 . S
C382 O390 1.258 . S
N383 Co374 2.057 . S
N383 C384 1.316 . S
N383 C385 1.375 . S
C384 N383 1.316 . S
C384 N386 1.347 . S
C384 H395 0.931 . S
C385 N383 1.375 . S
C385 C387 1.350 . S
C385 H394 0.930 . S
N386 C384 1.347 . S
N386 C387 1.373 . S
C387 C385 1.350 . S
C387 N386 1.373 . S
C387 H401 0.931 . S
C388 O391 1.256 . S
C388 O392 1.255 . S
O389 Co372 2.021 . S
O389 C382 1.259 . S
O390 Co374 2.117 . S
O390 C382 1.258 . S
O391 Co374 2.020 . S
O391 C388 1.256 . S
O392 Co372 2.062 . S
O392 C388 1.255 . S
O393 C373 1.259 . S
O393 Co374 2.021 . S
H394 C385 0.930 . S
H395 C384 0.931 . S
O396 Co372 2.117 . S
O396 C373 1.258 . S
O397 Co372 2.020 . S
O397 C399 1.256 . S
O398 Co374 2.062 . S
O398 C399 1.255 . S
C399 O397 1.256 . S
C399 O398 1.255 . S
H400 C379 0.931 . S
H401 C387 0.931 . S
Co402 N407 2.057 . S
Co402 O419 2.021 . S
Co402 O422 2.062 . S
Co402 O426 2.117 1_455 S
Co402 O427 2.020 1_455 S
C403 O423 1.259 1_556 S
C403 O426 1.258 . S
Co404 N413 2.057 . S
Co404 O420 2.117 1_655 S
Co404 O421 2.020 1_655 S
Co404 O423 2.021 . S
Co404 O428 2.062 . S
C405 N407 1.316 . S
C405 N408 1.347 . S
C405 H410 0.931 . S
C406 N407 1.375 1_655 S
C406 C409 1.350 1_655 S
C406 H411 0.930 . S
N407 Co402 2.057 . S
N407 C405 1.316 . S
N407 C406 1.375 1_455 S
N408 C405 1.347 . S
N408 C409 1.373 . S
C409 C406 1.350 1_455 S
C409 N408 1.373 . S
C409 H430 0.931 1_455 S
H410 C405 0.931 . S
H411 C406 0.930 . S
C412 O419 1.259 1_554 S
C412 O420 1.258 . S
N413 Co404 2.057 . S
N413 C414 1.316 . S
N413 C415 1.375 1_655 S
C414 N413 1.316 . S
C414 N416 1.347 . S
C414 H425 0.931 . S
C415 N413 1.375 1_455 S
C415 C417 1.350 1_455 S
C415 H424 0.930 . S
N416 C414 1.347 . S
N416 C417 1.373 . S
C417 C415 1.350 1_655 S
C417 N416 1.373 . S
C417 H431 0.931 1_655 S
C418 O421 1.256 . S
C418 O422 1.255 1_554 S
O419 Co402 2.021 . S
O419 C412 1.259 1_556 S
O420 Co404 2.117 1_455 S
O420 C412 1.258 . S
O421 Co404 2.020 1_455 S
O421 C418 1.256 . S
O422 Co402 2.062 . S
O422 C418 1.255 1_556 S
O423 C403 1.259 1_554 S
O423 Co404 2.021 . S
H424 C415 0.930 . S
H425 C414 0.931 . S
O426 Co402 2.117 1_655 S
O426 C403 1.258 . S
O427 Co402 2.020 1_655 S
O427 C429 1.256 . S
O428 Co404 2.062 . S
O428 C429 1.255 1_554 S
C429 O427 1.256 . S
C429 O428 1.255 1_556 S
H430 C409 0.931 1_655 S
H431 C417 0.931 1_455 S
C432 C433 1.369 . S
C432 C434 1.419 . S
C432 H436 0.930 . S
C433 C432 1.369 . S
C433 C442 1.429 . S
C434 C432 1.419 . S
C434 C435 1.363 . S
C434 H437 0.929 1_545 S
C435 C434 1.363 . S
C435 C441 1.428 . S
H436 C432 0.930 . S
H437 C434 0.929 1_565 S
S438 N439 1.613 1_655 S
S438 N440 1.610 . S
N439 S438 1.613 1_455 S
N439 C442 1.350 . S
N440 S438 1.610 . S
N440 C441 1.351 1_655 S
C441 C435 1.428 . S
C441 N440 1.351 1_455 S
C441 C442 1.434 . S
C442 C433 1.429 . S
C442 N439 1.350 . S
C442 C441 1.434 . S
C443 C444 1.369 . S
C443 C445 1.419 . S
C443 H447 0.930 . S
C444 C443 1.369 . S
C444 C453 1.429 . S
C445 C443 1.419 . S
C445 C446 1.363 . S
C445 H448 0.929 . S
C446 C445 1.363 . S
C446 C452 1.428 . S
H447 C443 0.930 . S
H448 C445 0.929 . S
S449 N450 1.613 . S
S449 N451 1.610 . S
N450 S449 1.613 . S
N450 C453 1.350 . S
N451 S449 1.610 . S
N451 C452 1.351 . S
C452 C446 1.428 . S
C452 N451 1.351 . S
C452 C453 1.434 . S
C453 C444 1.429 . S
C453 N450 1.350 . S
C453 C452 1.434 . S
C454 C455 1.369 . S
C454 C456 1.419 . S
C454 H458 0.930 . S
C455 C454 1.369 . S
C455 C464 1.429 . S
C456 C454 1.419 . S
C456 C457 1.363 . S
C456 H459 0.929 . S
C457 C456 1.363 . S
C457 C463 1.428 . S
H458 C454 0.930 . S
H459 C456 0.929 . S
S460 N461 1.613 . S
S460 N462 1.610 . S
N461 S460 1.613 . S
N461 C464 1.350 . S
N462 S460 1.610 . S
N462 C463 1.351 . S
C463 C457 1.428 . S
C463 N462 1.351 . S
C463 C464 1.434 . S
C464 C455 1.429 . S
C464 N461 1.350 . S
C464 C463 1.434 . S
C465 C466 1.369 . S
C465 C467 1.419 . S
C465 H469 0.930 . S
C466 C465 1.369 . S
C466 C475 1.429 . S
C467 C465 1.419 . S
C467 C468 1.363 . S
C467 H470 0.929 . S
C468 C467 1.363 . S
C468 C474 1.428 . S
H469 C465 0.930 . S
H470 C467 0.929 . S
S471 N472 1.613 . S
S471 N473 1.610 . S
N472 S471 1.613 . S
N472 C475 1.350 1_455 S
N473 S471 1.610 . S
N473 C474 1.351 1_455 S
C474 C468 1.428 . S
C474 N473 1.351 1_655 S
C474 C475 1.434 . S
C475 C466 1.429 . S
C475 N472 1.350 1_655 S
C475 C474 1.434 . S
C476 C477 1.369 . S
C476 C478 1.419 . S
C476 H480 0.930 . S
C477 C476 1.369 . S
C477 C486 1.429 . S
C478 C476 1.419 . S
C478 C479 1.363 . S
C478 H481 0.929 . S
C479 C478 1.363 . S
C479 C485 1.428 . S
H480 C476 0.930 . S
H481 C478 0.929 . S
S482 N483 1.613 . S
S482 N484 1.610 . S
N483 S482 1.613 . S
N483 C486 1.350 1_556 S
N484 S482 1.610 . S
N484 C485 1.351 1_556 S
C485 C479 1.428 . S
C485 N484 1.351 1_554 S
C485 C486 1.434 . S
C486 C477 1.429 . S
C486 N483 1.350 1_554 S
C486 C485 1.434 . S
C487 C488 1.369 . S
C487 C489 1.419 . S
C487 H491 0.930 . S
C488 C487 1.369 . S
C488 C497 1.429 . S
C489 C487 1.419 . S
C489 C490 1.363 . S
C489 H492 0.929 . S
C490 C489 1.363 . S
C490 C496 1.428 . S
H491 C487 0.930 . S
H492 C489 0.929 . S
S493 N494 1.613 . S
S493 N495 1.610 . S
N494 S493 1.613 . S
N494 C497 1.350 . S
N495 S493 1.610 . S
N495 C496 1.351 . S
C496 C490 1.428 . S
C496 N495 1.351 . S
C496 C497 1.434 . S
C497 C488 1.429 . S
C497 N494 1.350 . S
C497 C496 1.434 . S
C498 C499 1.369 . S
C498 C500 1.419 . S
C498 H502 0.930 . S
C499 C498 1.369 . S
C499 C508 1.429 . S
C500 C498 1.419 . S
C500 C501 1.363 . S
C500 H503 0.930 . S
C501 C500 1.363 . S
C501 C507 1.428 . S
H502 C498 0.930 . S
H503 C500 0.930 . S
S504 N505 1.613 . S
S504 N506 1.610 . S
N505 S504 1.613 . S
N505 C508 1.350 . S
N506 S504 1.610 . S
N506 C507 1.351 . S
C507 C501 1.428 . S
C507 N506 1.351 . S
C507 C508 1.434 . S
C508 C499 1.429 . S
C508 N505 1.350 . S
C508 C507 1.434 . S
C509 C510 1.369 . S
C509 C511 1.419 . S
C509 H513 0.930 . S
C510 C509 1.369 . S
C510 C519 1.429 . S
C511 C509 1.419 . S
C511 C512 1.363 . S
C511 H514 0.929 . S
C512 C511 1.363 . S
C512 C518 1.428 . S
H513 C509 0.930 . S
H514 C511 0.929 . S
S515 N516 1.613 . S
S515 N517 1.610 . S
N516 S515 1.613 . S
N516 C519 1.350 . S
N517 S515 1.610 . S
N517 C518 1.351 . S
C518 C512 1.428 . S
C518 N517 1.351 . S
C518 C519 1.434 . S
C519 C510 1.429 . S
C519 N516 1.350 . S
C519 C518 1.434 . S
C520 C521 1.369 . S
C520 C522 1.419 . S
C520 H524 0.930 . S
C521 C520 1.369 . S
C521 C530 1.429 . S
C522 C520 1.419 . S
C522 C523 1.363 . S
C522 H525 0.929 1_455 S
C523 C522 1.363 . S
C523 C529 1.428 . S
H524 C520 0.930 . S
H525 C522 0.929 1_655 S
S526 N527 1.623 . S
S526 N528 1.616 . S
N527 S526 1.623 . S
N527 C530 1.350 . S
N528 S526 1.616 . S
N528 C529 1.351 . S
C529 C523 1.428 . S
C529 N528 1.351 . S
C529 C530 1.434 . S
C530 C521 1.429 . S
C530 N527 1.350 . S
C530 C529 1.434 . S
C531 C532 1.369 . S
C531 C533 1.419 . S
C531 H535 0.930 . S
C532 C531 1.369 . S
C532 C541 1.429 . S
C533 C531 1.419 . S
C533 C534 1.363 . S
C533 H536 0.929 . S
C534 C533 1.363 . S
C534 C540 1.428 . S
H535 C531 0.930 . S
H536 C533 0.929 . S
S537 N538 1.613 . S
S537 N539 1.610 . S
N538 S537 1.613 . S
N538 C541 1.350 . S
N539 S537 1.610 . S
N539 C540 1.351 . S
C540 C534 1.428 . S
C540 N539 1.351 . S
C540 C541 1.434 . S
C541 C532 1.429 . S
C541 N538 1.350 . S
C541 C540 1.434 . S
C542 C543 1.369 . S
C542 C544 1.419 . S
C542 H546 0.930 . S
C543 C542 1.369 . S
C543 C552 1.429 . S
C544 C542 1.419 . S
C544 C545 1.363 . S
C544 H547 0.929 . S
C545 C544 1.363 . S
C545 C551 1.428 . S
H546 C542 0.930 . S
H547 C544 0.929 . S
S548 N549 1.616 . S
S548 N550 1.611 1_455 S
N549 S548 1.616 . S
N549 C552 1.345 1_455 S
N550 S548 1.611 1_655 S
N550 C551 1.350 . S
C551 C545 1.428 . S
C551 N550 1.350 . S
C551 C552 1.434 . S
C552 C543 1.429 . S
C552 N549 1.345 1_655 S
C552 C551 1.434 . S
C553 C554 1.369 . S
C553 C555 1.419 . S
C553 H557 0.930 . S
C554 C553 1.369 . S
C554 C563 1.429 . S
C555 C553 1.419 . S
C555 C556 1.363 . S
C555 H558 0.929 . S
C556 C555 1.363 . S
C556 C562 1.428 . S
H557 C553 0.930 . S
H558 C555 0.929 . S
S559 N560 1.613 . S
S559 N561 1.610 . S
N560 S559 1.613 . S
N560 C563 1.350 . S
N561 S559 1.610 . S
N561 C562 1.351 . S
C562 C556 1.428 . S
C562 N561 1.351 . S
C562 C563 1.434 . S
C563 C554 1.429 . S
C563 N560 1.350 . S
C563 C562 1.434 . S
C564 C565 1.369 . S
C564 C566 1.419 . S
C564 H568 0.930 . S
C565 C564 1.369 . S
C565 C574 1.429 . S
C566 C564 1.419 . S
C566 C567 1.363 . S
C566 H569 0.929 . S
C567 C566 1.363 . S
C567 C573 1.428 . S
H568 C564 0.930 . S
H569 C566 0.929 . S
S570 N571 1.613 1_455 S
S570 N572 1.610 . S
N571 S570 1.613 1_655 S
N571 C574 1.350 1_545 S
N572 S570 1.610 . S
N572 C573 1.351 1_445 S
C573 C567 1.428 . S
C573 N572 1.351 1_665 S
C573 C574 1.434 . S
C574 C565 1.429 . S
C574 N571 1.350 1_565 S
C574 C573 1.434 . S
C575 C576 1.369 . S
C575 C577 1.419 . S
C575 H579 0.930 . S
C576 C575 1.369 . S
C576 C585 1.429 . S
C577 C575 1.419 . S
C577 C578 1.363 . S
C577 H580 0.929 . S
C578 C577 1.363 . S
C578 C584 1.428 . S
H579 C575 0.930 . S
H580 C577 0.929 . S
S581 N582 1.613 . S
S581 N583 1.610 . S
N582 S581 1.613 . S
N582 C585 1.350 . S
N583 S581 1.610 . S
N583 C584 1.351 . S
C584 C578 1.428 . S
C584 N583 1.351 . S
C584 C585 1.434 . S
C585 C576 1.429 . S
C585 N582 1.350 . S
C585 C584 1.434 . S
C586 C587 1.369 . S
C586 C588 1.419 . S
C586 H590 0.930 . S
C587 C586 1.369 . S
C587 C596 1.429 . S
C588 C586 1.419 . S
C588 C589 1.363 . S
C588 H591 0.929 . S
C589 C588 1.363 . S
C589 C595 1.428 . S
H590 C586 0.930 . S
H591 C588 0.929 . S
S592 N593 1.613 . S
S592 N594 1.610 . S
N593 S592 1.613 . S
N593 C596 1.350 . S
N594 S592 1.610 . S
N594 C595 1.351 . S
C595 C589 1.428 . S
C595 N594 1.351 . S
C595 C596 1.434 . S
C596 C587 1.429 . S
C596 N593 1.350 . S
C596 C595 1.434 . S
C597 C598 1.369 . S
C597 C599 1.419 . S
C597 H601 0.930 . S
C598 C597 1.369 . S
C598 C607 1.429 . S
C599 C597 1.419 . S
C599 C600 1.363 . S
C599 H602 0.929 . S
C600 C599 1.363 . S
C600 C606 1.428 . S
H601 C597 0.930 . S
H602 C599 0.929 . S
S603 N604 1.613 . S
S603 N605 1.610 . S
N604 S603 1.613 . S
N604 C607 1.350 . S
N605 S603 1.610 . S
N605 C606 1.351 . S
C606 C600 1.428 . S
C606 N605 1.351 . S
C606 C607 1.434 . S
C607 C598 1.429 . S
C607 N604 1.350 . S
C607 C606 1.434 . S
C608 C609 1.369 . S
C608 C610 1.419 . S
C608 H612 0.930 . S
C609 C608 1.369 . S
C609 C618 1.429 . S
C610 C608 1.419 . S
C610 C611 1.363 . S
C610 H613 0.929 . S
C611 C610 1.363 . S
C611 C617 1.428 . S
H612 C608 0.930 . S
H613 C610 0.929 . S
S614 N615 1.613 . S
S614 N616 1.610 . S
N615 S614 1.613 . S
N615 C618 1.350 1_545 S
N616 S614 1.610 . S
N616 C617 1.351 1_545 S
C617 C611 1.428 . S
C617 N616 1.351 1_565 S
C617 C618 1.434 . S
C618 C609 1.429 . S
C618 N615 1.350 1_565 S
C618 C617 1.434 . S
C619 C620 1.369 . S
C619 C621 1.419 . S
C619 H623 0.930 . S
C620 C619 1.369 . S
C620 C629 1.429 . S
C621 C619 1.419 . S
C621 C622 1.363 . S
C621 H624 0.929 . S
C622 C621 1.363 . S
C622 C628 1.428 . S
H623 C619 0.930 . S
H624 C621 0.929 . S
S625 N626 1.613 1_565 S
S625 N627 1.610 1_565 S
N626 S625 1.613 1_545 S
N626 C629 1.350 . S
N627 S625 1.610 1_545 S
N627 C628 1.351 . S
C628 C622 1.428 . S
C628 N627 1.351 . S
C628 C629 1.434 . S
C629 C620 1.429 . S
C629 N626 1.350 . S
C629 C628 1.434 . S
C630 C631 1.369 . S
C630 C632 1.419 . S
C630 H634 0.930 . S
C631 C630 1.369 . S
C631 C640 1.429 . S
C632 C630 1.419 . S
C632 C633 1.363 . S
C632 H635 0.929 . S
C633 C632 1.363 . S
C633 C639 1.428 . S
H634 C630 0.930 . S
H635 C632 0.929 . S
S636 N637 1.613 . S
S636 N638 1.610 . S
N637 S636 1.613 . S
N637 C640 1.350 1_556 S
N638 S636 1.610 . S
N638 C639 1.351 1_556 S
C639 C633 1.428 . S
C639 N638 1.351 1_554 S
C639 C640 1.434 . S
C640 C631 1.429 . S
C640 N637 1.350 1_554 S
C640 C639 1.434 . S
C641 C642 1.369 . S
C641 C643 1.419 . S
C641 H645 0.930 . S
C642 C641 1.369 . S
C642 C651 1.429 . S
C643 C641 1.419 . S
C643 C644 1.363 . S
C643 H646 0.929 . S
C644 C643 1.363 . S
C644 C650 1.428 . S
H645 C641 0.930 . S
H646 C643 0.929 . S
S647 N648 1.613 . S
S647 N649 1.610 . S
N648 S647 1.613 . S
N648 C651 1.350 . S
N649 S647 1.610 . S
N649 C650 1.351 . S
C650 C644 1.428 . S
C650 N649 1.351 . S
C650 C651 1.434 . S
C651 C642 1.429 . S
C651 N648 1.350 . S
C651 C650 1.434 . S
C652 C653 1.369 . S
C652 C654 1.419 . S
C652 H656 0.930 . S
C653 C652 1.369 . S
C653 C662 1.429 . S
C654 C652 1.419 . S
C654 C655 1.363 . S
C654 H657 0.929 . S
C655 C654 1.363 . S
C655 C661 1.428 . S
H656 C652 0.930 . S
H657 C654 0.929 . S
S658 N659 1.613 . S
S658 N660 1.610 . S
N659 S658 1.613 . S
N659 C662 1.350 1_455 S
N660 S658 1.610 . S
N660 C661 1.351 1_455 S
C661 C655 1.428 . S
C661 N660 1.351 1_655 S
C661 C662 1.434 . S
C662 C653 1.429 . S
C662 N659 1.350 1_655 S
C662 C661 1.434 . S
C663 C664 1.369 . S
C663 C665 1.419 . S
C663 H667 0.930 . S
C664 C663 1.369 . S
C664 C673 1.429 . S
C665 C663 1.419 . S
C665 C666 1.363 . S
C665 H668 0.929 . S
C666 C665 1.363 . S
C666 C672 1.428 . S
H667 C663 0.930 . S
H668 C665 0.929 . S
S669 N670 1.613 . S
S669 N671 1.610 . S
N670 S669 1.613 . S
N670 C673 1.350 1_556 S
N671 S669 1.610 . S
N671 C672 1.351 1_556 S
C672 C666 1.428 . S
C672 N671 1.351 1_554 S
C672 C673 1.434 . S
C673 C664 1.429 . S
C673 N670 1.350 1_554 S
C673 C672 1.434 . S
C674 C675 1.369 . S
C674 C676 1.419 . S
C674 H678 0.930 . S
C675 C674 1.369 . S
C675 C684 1.429 1_455 S
C676 C674 1.419 . S
C676 C677 1.363 . S
C676 H679 0.929 . S
C677 C676 1.363 . S
C677 C683 1.428 1_455 S
H678 C674 0.930 . S
H679 C676 0.929 . S
S680 N681 1.613 . S
S680 N682 1.610 . S
N681 S680 1.613 . S
N681 C684 1.350 . S
N682 S680 1.610 . S
N682 C683 1.351 . S
C683 C677 1.428 1_655 S
C683 N682 1.351 . S
C683 C684 1.434 . S
C684 C675 1.429 1_655 S
C684 N681 1.350 . S
C684 C683 1.434 . S
C685 C686 1.369 . S
C685 C687 1.419 . S
C685 H689 0.930 . S
C686 C685 1.369 . S
C686 C695 1.429 . S
C687 C685 1.419 . S
C687 C688 1.363 . S
C687 H690 0.929 . S
C688 C687 1.363 . S
C688 C694 1.428 . S
H689 C685 0.930 . S
H690 C687 0.929 . S
S691 N692 1.613 . S
S691 N693 1.610 . S
N692 S691 1.613 . S
N692 C695 1.350 . S
N693 S691 1.610 . S
N693 C694 1.351 . S
C694 C688 1.428 . S
C694 N693 1.351 . S
C694 C695 1.434 . S
C695 C686 1.429 . S
C695 N692 1.350 . S
C695 C694 1.434 . S
C433 C1 2.167 . S
C435 C328 2.195 . S
C444 C40 1.179 . S
C446 N348 1.192 . S
C457 C382 2.036 . S
C455 C99 2.021 . S
C466 C118 1.418 . S
C468 N416 1.316 . S
C479 C369 2.340 . S
C477 C16 2.319 . S
C490 N326 1.219 . S
C488 C60 1.272 . S
C501 C403 2.066 . S
C499 C79 2.051 . S
C512 N378 1.147 . S
C510 C138 1.101 . S
C521 C21 1.836 . S
C523 C418 1.861 . S
C534 C352 1.781 . S
C532 C94 1.746 . S
C543 C133 1.508 . S
C545 C313 1.535 . S
C554 C55 1.476 . S
C556 C399 1.508 . S
C567 C339 2.196 . S
C565 C157 2.167 . S
C576 C196 1.175 . S
C578 N356 1.191 . S
C587 C255 2.004 . S
C589 C373 2.033 . S
C598 C289 1.416 . S
C600 N408 1.323 . S
C609 C172 2.324 . S
C611 C358 2.339 . S
C622 N318 1.217 . S
C620 C216 1.285 . S
C633 C412 2.067 . S
C631 C235 2.045 . S
C644 N386 1.146 . S
C642 C294 1.103 . S
C653 C177 1.823 . S
C655 C429 1.861 . S
C666 C343 1.779 . S
C664 C250 1.757 . S
C677 C322 1.536 . S
C675 C274 1.501 . S
C686 C211 1.472 . S
C688 C388 1.500 . S
