# Generated by pormake.
# Topology anh, (6,3)-cn, num edge types: 1
# Building blocks:
#     Node 0, Type 0, BuildingBlock: PAMTUU_clean_sbu_0, # of connection points: 6
#     Node 1, Type 0, BuildingBlock: PAMTUU_clean_sbu_0, # of connection points: 6
#     Node 2, Type 0, BuildingBlock: PAMTUU_clean_sbu_0, # of connection points: 6
#     Node 3, Type 1, BuildingBlock: VETTIZ_charged_linker_0, # of connection points: 3
#     Node 4, Type 1, BuildingBlock: VETTIZ_charged_linker_0, # of connection points: 3
#     Node 5, Type 1, BuildingBlock: VETTIZ_charged_linker_0, # of connection points: 3
#     Node 6, Type 1, BuildingBlock: VETTIZ_charged_linker_0, # of connection points: 3
#     Node 7, Type 1, BuildingBlock: VETTIZ_charged_linker_0, # of connection points: 3
#     Node 8, Type 1, BuildingBlock: VETTIZ_charged_linker_0, # of connection points: 3
#     Edge 9, Type (0, 1), BuildingBlock: CIFDUS_clean_linker_0, # of connection points: 2
#     Edge 10, Type (0, 1), BuildingBlock: CIFDUS_clean_linker_0, # of connection points: 2
#     Edge 11, Type (0, 1), BuildingBlock: CIFDUS_clean_linker_0, # of connection points: 2
#     Edge 12, Type (0, 1), BuildingBlock: CIFDUS_clean_linker_0, # of connection points: 2
#     Edge 13, Type (0, 1), BuildingBlock: CIFDUS_clean_linker_0, # of connection points: 2
#     Edge 14, Type (0, 1), BuildingBlock: CIFDUS_clean_linker_0, # of connection points: 2
#     Edge 15, Type (0, 1), BuildingBlock: CIFDUS_clean_linker_0, # of connection points: 2
#     Edge 16, Type (0, 1), BuildingBlock: CIFDUS_clean_linker_0, # of connection points: 2
#     Edge 17, Type (0, 1), BuildingBlock: CIFDUS_clean_linker_0, # of connection points: 2
#     Edge 18, Type (0, 1), BuildingBlock: CIFDUS_clean_linker_0, # of connection points: 2
#     Edge 19, Type (0, 1), BuildingBlock: CIFDUS_clean_linker_0, # of connection points: 2
#     Edge 20, Type (0, 1), BuildingBlock: CIFDUS_clean_linker_0, # of connection points: 2
#     Edge 21, Type (0, 1), BuildingBlock: CIFDUS_clean_linker_0, # of connection points: 2
#     Edge 22, Type (0, 1), BuildingBlock: CIFDUS_clean_linker_0, # of connection points: 2
#     Edge 23, Type (0, 1), BuildingBlock: CIFDUS_clean_linker_0, # of connection points: 2
#     Edge 24, Type (0, 1), BuildingBlock: CIFDUS_clean_linker_0, # of connection points: 2
#     Edge 25, Type (0, 1), BuildingBlock: CIFDUS_clean_linker_0, # of connection points: 2
#     Edge 26, Type (0, 1), BuildingBlock: CIFDUS_clean_linker_0, # of connection points: 2
# Relax obj value: 0.267
# Max RMSD: 0.194
# Mean RMSD: 0.162
data_MOF--net-anh--node1-PAMTUU_clean_sbu_0--node2-VETTIZ_charged_linker_0--edge1-CIFDUS_clean_linker_0
_symmetry_space_group_name_H-M    P1
_symmetry_Int_Tables_number       1
_symmetry_cell_setting            triclinic
loop_
_symmetry_equiv_pos_as_xyz
'x, y, z'
_cell_length_a     32.47474
_cell_length_b     32.439
_cell_length_c     60.241725
_cell_angle_alpha  93.424738
_cell_angle_beta   90.38598
_cell_angle_gamma 119.89475
loop_
_atom_site_label
_atom_site_type_symbol
_atom_site_fract_x
_atom_site_fract_y
_atom_site_fract_z
_atom_type_partial_charge
Tb0 Tb 0.11974 0.6772 0.15741 0.0
Tb1 Tb 0.16873 0.61388 0.16362 0.0
C2 C 0.15073 0.63959 0.11687 0.0
C3 C 1.0177 0.68807 0.15448 0.0
C4 C 0.93238 0.6008 0.15196 0.0
C5 C 0.94664 0.62861 0.13356 0.0
C6 C 0.98857 0.67258 0.13495 0.0
C7 C 0.99925 0.66379 0.17386 0.0
C8 C 0.95643 0.6204 0.1726 0.0
C9 C 1.06966 0.71453 0.15203 0.0
O10 O 1.05855 0.60172 0.15423 0.0
O11 O 1.09274 0.56074 0.16774 0.0
O12 O 0.17129 0.64689 0.19671 0.0
O13 O 0.10506 0.65174 0.19006 0.0
O14 O 0.21241 0.58961 0.14991 0.0
O15 O 0.17796 0.56436 0.18091 0.0
O16 O 0.23067 0.68813 0.16406 0.0
O17 O 0.19459 0.73407 0.16635 0.0
O18 O 0.15505 0.67809 0.12714 0.0
O19 O 0.14467 0.60424 0.1285 0.0
C20 C 1.05427 0.56179 0.16144 0.0
O21 O 1.0965 0.72386 0.17005 0.0
O22 O 1.08323 0.69672 0.13553 0.0
C23 C 0.13579 0.65158 0.20399 0.0
C24 C 0.24742 0.55894 0.17409 0.0
C25 C 0.31499 0.52957 0.17861 0.0
C26 C 0.27273 0.50789 0.19017 0.0
C27 C 0.23913 0.52236 0.18784 0.0
C28 C 0.29184 0.58414 0.16454 0.0
C29 C 0.3254 0.56957 0.16681 0.0
C30 C 0.20651 0.56271 0.16624 0.0
C31 C 0.23378 0.73074 0.16645 0.0
H32 H 0.92764 0.61443 0.11759 0.0
H33 H 1.00159 0.69077 0.11985 0.0
H34 H 1.02038 0.67504 0.18933 0.0
H35 H 0.9449 0.60002 0.18715 0.0
H36 H 0.26413 0.47751 0.19969 0.0
H37 H 0.20509 0.50238 0.19536 0.0
H38 H 0.29928 0.61257 0.15387 0.0
H39 H 0.35754 0.58696 0.15761 0.0
Tb40 Tb 0.65117 0.09724 0.49917 0.0
Tb41 Tb 0.76322 0.15577 0.49202 0.0
C42 C 0.68843 0.11603 0.45092 0.0
C43 C 0.52129 1.00859 0.50908 0.0
C44 C 0.42797 0.93115 0.5072 0.0
C45 C 0.45569 0.94143 0.48827 0.0
C46 C 0.50209 0.98 0.48918 0.0
C47 C 0.49501 0.99618 0.52835 0.0
C48 C 0.4487 0.95772 0.52745 0.0
C49 C 0.56565 1.05448 0.50984 0.0
O50 O 0.67141 1.04086 0.50157 0.0
O51 O 0.74974 0.08145 0.49202 0.0
O52 O 0.75342 0.13454 0.52591 0.0
O53 O 0.68869 0.14245 0.52876 0.0
O54 O 0.82192 0.17025 0.47263 0.0
O55 O 0.83073 0.20813 0.50469 0.0
O56 O 0.74531 0.21383 0.49859 0.0
O57 O 0.66396 0.17008 0.49465 0.0
O58 O 0.65553 0.08573 0.46344 0.0
O59 O 0.72946 0.15003 0.45963 0.0
C60 C 0.71192 1.04159 0.49757 0.0
O61 O 0.60064 1.05892 0.52241 0.0
O62 O 0.57993 0.07539 0.49131 0.0
C63 C 0.72413 0.14118 0.53819 0.0
C64 C 0.87103 0.2542 0.47564 0.0
C65 C 0.88719 0.34367 0.4641 0.0
C66 C 0.91048 0.34004 0.48303 0.0
C67 C 0.90263 0.29566 0.48868 0.0
C68 C 0.85122 0.25833 0.45563 0.0
C69 C 0.85939 0.30271 0.44989 0.0
C70 C 0.84975 0.20808 0.48568 0.0
C71 C 0.7036 0.21202 0.4972 0.0
H72 H 0.44048 0.92179 0.47238 0.0
H73 H 0.52188 0.98889 0.47412 0.0
H74 H 0.50942 1.01784 0.54387 0.0
H75 H 0.42829 0.95022 0.54232 0.0
H76 H 0.93205 0.37089 0.49438 0.0
H77 H 0.9179 0.29329 0.50427 0.0
H78 H 0.82657 0.22704 0.4452 0.0
H79 H 0.84202 0.30458 0.43488 0.0
Tb80 Tb 0.63026 0.52882 0.82553 0.0
Tb81 Tb 0.67472 0.64037 0.8324 0.0
C82 C 0.65297 0.58946 0.78449 0.0
C83 C 0.61119 0.41022 0.83331 0.0
C84 C 0.6429 0.35308 0.85188 0.0
C85 C 0.59798 0.33227 0.84074 0.0
C86 C 0.58227 0.36069 0.83153 0.0
C87 C 0.65539 0.43138 0.84497 0.0
C88 C 0.67123 0.40297 0.85415 0.0
C89 C 0.59495 0.43988 0.82337 0.0
O90 O 0.70774 0.55411 0.82302 0.0
O91 O 0.73741 0.63076 0.83813 0.0
O92 O 0.64046 0.60718 0.86258 0.0
O93 O 0.66135 0.55097 0.85894 0.0
O94 O 0.69374 0.70676 0.82052 0.0
O95 O 0.70591 0.70087 0.85516 0.0
O96 O 0.59826 0.61666 0.82559 0.0
O97 O 0.56846 0.53906 0.83333 0.0
O98 O 0.62132 0.55083 0.79339 0.0
O99 O 0.68429 0.62641 0.79727 0.0
C100 C 0.74424 0.59486 0.83142 0.0
O101 O 0.58266 0.46313 0.83766 0.0
O102 O 0.62173 0.46682 0.80819 0.0
C103 C 0.6496 0.5769 0.87165 0.0
C104 C 0.66836 0.74431 0.84623 0.0
C105 C 0.58973 0.75695 0.8409 0.0
C106 C 0.63436 0.7907 0.83361 0.0
C107 C 0.67353 0.78438 0.83624 0.0
C108 C 0.62498 0.71365 0.85579 0.0
C109 C 0.5857 0.71981 0.85303 0.0
C110 C 0.70107 0.7267 0.84069 0.0
C111 C 0.56158 0.57543 0.83021 0.0
H112 H 0.57572 0.2939 0.83829 0.0
H113 H 0.54795 0.34398 0.82271 0.0
H114 H 0.67785 0.46981 0.8467 0.0
H115 H 0.70589 0.41993 0.86266 0.0
H116 H 0.63782 0.81951 0.8241 0.0
H117 H 0.70631 0.80796 0.82848 0.0
H118 H 0.61993 0.6821 0.86339 0.0
H119 H 0.55144 0.69333 0.85858 0.0
C120 C 0.76727 0.27278 0.17691 0.0
C121 C 0.80761 0.31401 0.18827 0.0
C122 C 0.80966 0.31441 0.21166 0.0
C123 C 0.73685 0.23651 0.2122 0.0
C124 C 0.73169 0.23471 0.18932 0.0
C125 C 0.68435 0.18892 0.18141 0.0
H126 H 0.49247 0.97157 0.21472 0.0
C127 C 0.69709 0.19201 0.22086 0.0
C128 C 0.66487 0.16273 0.20302 0.0
H129 H 0.49979 1.02181 0.14952 0.0
H130 H 0.57698 0.09384 0.16056 0.0
H131 H 0.60168 1.00268 0.22159 0.0
H132 H 0.51651 1.06565 0.23899 0.0
H133 H 0.55616 0.08119 0.26185 0.0
H134 H 0.51564 1.01908 0.25394 0.0
H135 H 0.56173 0.98387 0.24403 0.0
H136 H 0.62301 1.03068 0.24827 0.0
C137 C 0.69411 0.15814 0.1643 0.0
C138 C 0.65027 0.2038 0.17163 0.0
C139 C 0.70273 0.17015 0.30439 0.0
C140 C 0.67523 0.13195 0.31777 0.0
C141 C 0.63778 0.08966 0.3071 0.0
C142 C 0.62719 0.08581 0.28419 0.0
C143 C 0.65435 0.1244 0.27119 0.0
C144 C 0.69192 0.16534 0.28128 0.0
C145 C 0.71849 0.20159 0.26459 0.0
C146 C 0.68992 0.17614 0.24289 0.0
C147 C 0.65202 0.13118 0.24698 0.0
C148 C 0.7698 0.20966 0.26421 0.0
C149 C 0.71534 0.24684 0.27129 0.0
C150 C 0.51032 0.99715 0.20243 0.0
C151 C 0.48877 0.98911 0.18105 0.0
C152 C 0.5144 1.02577 0.16622 0.0
C153 C 0.55933 1.0679 0.17261 0.0
C154 C 0.57952 0.07531 0.19442 0.0
C155 C 0.55383 1.03958 0.20868 0.0
C156 C 0.57601 1.0525 0.23165 0.0
C157 C 0.6189 0.10157 0.22947 0.0
C158 C 0.62336 0.11633 0.20744 0.0
C159 C 0.59119 1.01553 0.23689 0.0
C160 C 0.53942 1.05448 0.24759 0.0
H161 H 0.78117 0.28084 0.24107 0.0
H162 H 0.76326 0.27059 0.15896 0.0
H163 H 0.64492 0.22739 0.18399 0.0
H164 H 0.61505 0.1725 0.167 0.0
H165 H 0.66493 0.22354 0.15653 0.0
H166 H 0.71967 0.14871 0.17151 0.0
H167 H 0.70947 0.17765 0.14921 0.0
H168 H 0.66085 0.1246 0.15917 0.0
H169 H 0.73189 0.20339 0.31164 0.0
H170 H 0.6167 1.0588 0.31636 0.0
H171 H 0.59795 1.05256 0.27754 0.0
H172 H 0.77063 0.17708 0.26833 0.0
H173 H 0.79395 0.23901 0.2765 0.0
H174 H 0.78499 0.2171 0.24759 0.0
H175 H 0.68064 0.23723 0.27868 0.0
H176 H 0.71682 0.26711 0.25691 0.0
H177 H 0.74384 0.27078 0.28381 0.0
H178 H 0.83907 0.34385 0.22122 0.0
C179 C 0.77556 0.27685 0.22337 0.0
C180 C 0.70636 0.75046 0.5116 0.0
C181 C 0.7086 0.79193 0.52323 0.0
C182 C 0.71261 0.79461 0.5466 0.0
C183 C 0.7095 0.71751 0.54683 0.0
C184 C 0.70791 0.71397 0.52383 0.0
C185 C 0.70961 0.66854 0.51554 0.0
H186 H 0.69589 0.45519 0.54782 0.0
C187 C 0.70794 0.6742 0.55534 0.0
C188 C 0.70829 0.64424 0.53721 0.0
H189 H 0.72776 0.50327 0.48181 0.0
H190 H 0.72221 0.57489 0.49359 0.0
H191 H 0.76956 0.55045 0.56975 0.0
H192 H 0.61893 0.48672 0.55888 0.0
H193 H 0.63141 0.51497 0.58578 0.0
H194 H 0.6455 0.46839 0.57944 0.0
H195 H 0.72817 0.50599 0.58686 0.0
H196 H 0.7509 0.5688 0.59359 0.0
C197 C 0.75654 0.68397 0.50387 0.0
C198 C 0.66639 0.63597 0.49992 0.0
C199 C 0.69524 0.65683 0.63952 0.0
C200 C 0.68889 0.61999 0.65294 0.0
C201 C 0.68555 0.57834 0.64241 0.0
C202 C 0.68836 0.5733 0.61928 0.0
C203 C 0.69486 0.61031 0.60607 0.0
C204 C 0.6978 0.65101 0.61623 0.0
C205 C 0.70318 0.68588 0.59943 0.0
C206 C 0.70385 0.65977 0.57755 0.0
C207 C 0.69931 0.61568 0.58161 0.0
C208 C 0.75136 0.73238 0.60481 0.0
C209 C 0.65878 0.69203 0.6005 0.0
C210 C 0.70105 0.48034 0.53559 0.0
C211 C 0.71127 0.47188 0.51371 0.0
C212 C 0.71934 0.50771 0.49883 0.0
C213 C 0.71642 0.54955 0.50567 0.0
C214 C 0.707 0.55753 0.52797 0.0
C215 C 0.70029 0.52269 0.54229 0.0
C216 C 0.69571 0.53685 0.56577 0.0
C217 C 0.70021 0.58537 0.56376 0.0
C218 C 0.70572 0.59875 0.54147 0.0
C219 C 0.73784 0.54047 0.57989 0.0
C220 C 0.64554 0.49984 0.57307 0.0
H221 H 0.71513 0.76381 0.57595 0.0
H222 H 0.7041 0.7469 0.4936 0.0
H223 H 0.63287 0.62619 0.5085 0.0
H224 H 0.66638 0.60266 0.49456 0.0
H225 H 0.66673 0.65422 0.48482 0.0
H226 H 0.78732 0.70902 0.51515 0.0
H227 H 0.75773 0.70227 0.48866 0.0
H228 H 0.76105 0.65314 0.49897 0.0
H229 H 0.69747 0.68918 0.6469 0.0
H230 H 0.68141 0.54959 0.65215 0.0
H231 H 0.68553 0.54054 0.61267 0.0
H232 H 0.77782 0.72484 0.61264 0.0
H233 H 0.74713 0.75767 0.61651 0.0
H234 H 0.76847 0.75048 0.58973 0.0
H235 H 0.62658 0.65809 0.60416 0.0
H236 H 0.64943 0.70109 0.58457 0.0
H237 H 0.66359 0.7195 0.61379 0.0
H238 H 0.71442 0.82486 0.5562 0.0
C239 C 0.71277 0.7584 0.5582 0.0
C240 C 0.27672 0.58625 0.84203 0.0
C241 C 0.31414 0.58297 0.85363 0.0
C242 C 0.31054 0.5799 0.8768 0.0
C243 C 0.23711 0.58375 0.87692 0.0
C244 C 0.23788 0.58582 0.85408 0.0
C245 C 0.1926 0.58623 0.84575 0.0
H246 H 0.98931 0.59826 0.87963 0.0
C247 C 0.19465 0.58538 0.88546 0.0
C248 C 0.167 0.58672 0.86743 0.0
H249 H 1.01769 0.57942 0.81119 0.0
H250 H 1.09175 0.58112 0.82315 0.0
H251 H 1.00797 0.52173 0.89504 0.0
H252 H 1.09467 0.67365 0.89639 0.0
H253 H 0.10768 0.65834 0.92186 0.0
H254 H 1.04759 0.64427 0.9151 0.0
H255 H 1.00146 0.56074 0.91524 0.0
H256 H 1.04092 0.53784 0.92028 0.0
C257 C 0.16167 0.54061 0.83075 0.0
C258 C 0.20677 0.63113 0.83334 0.0
C259 C 0.17839 0.59005 0.96997 0.0
C260 C 0.14625 0.59534 0.98382 0.0
C261 C 0.10902 0.59904 0.97376 0.0
C262 C 1.10396 0.59788 0.95058 0.0
C263 C 0.13643 0.59292 0.93688 0.0
C264 C 0.17294 0.5893 0.94667 0.0
C265 C 0.20483 0.58576 0.92956 0.0
C266 C 0.18113 0.58721 0.90783 0.0
C267 C 0.14094 0.59109 0.91226 0.0
C268 C 0.20244 0.53704 0.93127 0.0
C269 C 0.2551 0.6302 0.93391 0.0
C270 C 1.01121 0.59522 0.86689 0.0
C271 C 0.99654 0.58947 0.84435 0.0
C272 C 1.02701 0.58405 0.8288 0.0
C273 C 1.07012 0.5849 0.83569 0.0
C274 C 1.08341 0.59002 0.85857 0.0
C275 C 1.05298 0.59459 0.87343 0.0
C276 C 1.06811 0.59623 0.89703 0.0
C277 C 0.11245 0.59217 0.89453 0.0
C278 C 0.12369 0.58929 0.87194 0.0
C279 C 1.02768 0.55225 0.90765 0.0
C280 C 1.07986 0.64537 0.90838 0.0
H281 H 0.27465 0.57825 0.90582 0.0
H282 H 0.27732 0.58832 0.82417 0.0
H283 H 0.23002 0.66369 0.84429 0.0
H284 H 0.17492 0.63286 0.82807 0.0
H285 H 0.22643 0.63134 0.81829 0.0
H286 H 0.15313 0.50854 0.83977 0.0
H287 H 0.18061 0.53989 0.81556 0.0
H288 H 0.12771 0.53805 0.82552 0.0
H289 H 0.20777 0.58763 0.97709 0.0
H290 H 1.08335 0.60256 0.9839 0.0
H291 H 1.07474 0.60096 0.94431 0.0
H292 H 0.16704 0.5096 0.93666 0.0
H293 H 0.22959 0.53992 0.94354 0.0
H294 H 0.20653 0.52176 0.91508 0.0
H295 H 0.25298 0.66139 0.94122 0.0
H296 H 0.27453 0.64278 0.91851 0.0
H297 H 0.277 0.62324 0.94569 0.0
H298 H 0.3377 0.57808 0.88654 0.0
C299 C 0.27332 0.58037 0.88821 0.0
C300 C 0.88664 0.60659 0.45059 0.0
C301 C 0.85804 0.56458 0.43714 0.0
C302 C 0.85228 0.56774 0.41426 0.0
C303 C 0.91859 0.64841 0.41746 0.0
C304 C 0.91842 0.64781 0.44039 0.0
C305 C 0.96238 0.68956 0.45149 0.0
H306 H 0.19469 0.8381 0.44415 0.0
C307 C 0.9648 0.68812 0.41149 0.0
C308 C 0.99041 0.71299 0.43136 0.0
H309 H 0.11254 0.81036 0.50303 0.0
H310 H 1.03934 0.77008 0.47999 0.0
H311 H 0.13677 0.7369 0.42047 0.0
H312 H 0.12913 0.86419 0.41456 0.0
H313 H 0.11234 0.83389 0.38802 0.0
H314 H 0.17135 0.85414 0.39971 0.0
H315 H 0.18209 0.78942 0.40875 0.0
H316 H 0.13285 0.74372 0.39199 0.0
C317 C 0.98768 0.66983 0.46589 0.0
C318 C 0.94758 0.72207 0.46479 0.0
C319 C 1.01911 0.68237 0.33304 0.0
C320 C 1.06347 0.70751 0.32332 0.0
C321 C 1.10152 0.74582 0.33583 0.0
C322 C 1.09589 0.75787 0.35785 0.0
C323 C 1.05203 0.73083 0.36767 0.0
C324 C 1.01422 0.69462 0.35513 0.0
C325 C 0.97015 0.66995 0.36827 0.0
C326 C 0.9882 0.69694 0.39099 0.0
C327 C 1.03628 0.73204 0.39049 0.0
C328 C 0.95513 0.61623 0.36848 0.0
C329 C 0.93186 0.67894 0.35791 0.0
C330 C 0.16081 0.8234 0.45204 0.0
C331 C 0.15883 0.82559 0.47528 0.0
C332 C 0.11454 0.80805 0.4851 0.0
C333 C 1.07237 0.78459 0.47175 0.0
C334 C 1.07501 0.77789 0.44859 0.0
C335 C 0.1187 0.79947 0.43906 0.0
C336 C 0.11511 0.78992 0.41427 0.0
C337 C 1.06193 0.75746 0.41048 0.0
C338 C 1.03873 0.74937 0.43069 0.0
C339 C 0.14324 0.76388 0.40834 0.0
C340 C 0.13314 0.83787 0.40344 0.0
H341 H 0.87908 0.60966 0.38663 0.0
H342 H 0.89047 0.60478 0.46832 0.0
H343 H 0.91518 0.71974 0.45708 0.0
H344 H 0.97498 0.76022 0.46496 0.0
H345 H 0.93966 0.71182 0.48218 0.0
H346 H 0.98866 0.63974 0.45653 0.0
H347 H 0.96885 0.65665 0.48147 0.0
H348 H 1.02489 0.6957 0.47064 0.0
H349 H 0.98912 0.65265 0.32392 0.0
H350 H 0.13569 0.76653 0.32855 0.0
H351 H 0.12634 0.78698 0.36658 0.0
H352 H 0.98133 0.60795 0.36064 0.0
H353 H 0.92059 0.59296 0.35927 0.0
H354 H 0.95264 0.60471 0.38561 0.0
H355 H 0.94773 0.71667 0.35368 0.0
H356 H 0.90344 0.6731 0.36946 0.0
H357 H 0.91561 0.65581 0.34235 0.0
H358 H 0.8295 0.53604 0.40359 0.0
C359 C 0.88222 0.61005 0.40435 0.0
C360 C 0.52533 0.89967 0.78166 0.0
C361 C 0.49862 0.85987 0.76651 0.0
C362 C 0.50131 0.86712 0.74353 0.0
C363 C 0.56394 0.94927 0.75142 0.0
C364 C 0.55793 0.94327 0.77387 0.0
C365 C 0.59357 0.98599 0.7882 0.0
H366 H 0.75719 0.21717 0.79591 0.0
C367 C 0.60545 0.99714 0.74914 0.0
C368 C 0.62269 1.01872 0.77065 0.0
H369 H 0.69323 0.1245 0.84939 0.0
H370 H 0.65771 1.05635 0.82285 0.0
H371 H 0.78751 0.14298 0.77007 0.0
H372 H 0.67503 0.17487 0.76213 0.0
H373 H 0.69508 0.17016 0.73549 0.0
H374 H 0.7358 0.21487 0.75602 0.0
H375 H 0.79528 0.19244 0.7552 0.0
H376 H 0.77264 0.13368 0.74146 0.0
C377 C 0.62346 0.9713 0.80256 0.0
C378 C 0.56589 1.00556 0.80178 0.0
C379 C 0.66871 1.0507 0.67295 0.0
C380 C 0.70579 0.0937 0.666 0.0
C381 C 0.73233 0.13208 0.68183 0.0
C382 C 0.72265 0.12748 0.70443 0.0
C383 C 0.68567 0.08421 0.71121 0.0
C384 C 0.65901 1.04687 0.69557 0.0
C385 C 0.62005 1.00424 0.70586 0.0
C386 C 0.62919 1.0215 0.73033 0.0
C387 C 0.66775 1.06828 0.73329 0.0
C388 C 0.62805 0.96146 0.70088 0.0
C389 C 0.57155 0.99605 0.69684 0.0
C390 C 0.73701 0.18221 0.80216 0.0
C391 C 0.72629 0.17669 0.82482 0.0
C392 C 0.70041 0.13012 0.83197 0.0
C393 C 0.67949 0.09054 0.8165 0.0
C394 C 0.68529 0.09751 0.7937 0.0
C395 C 0.71633 0.1422 0.78696 0.0
C396 C 0.72036 0.14213 0.76207 0.0
C397 C 0.68365 0.09081 0.755 0.0
C398 C 0.6625 1.06534 0.77357 0.0
C399 C 0.77155 0.15367 0.75676 0.0
C400 C 0.70617 0.1775 0.75332 0.0
H401 H 0.53606 0.91432 0.71824 0.0
H402 H 0.52542 0.89637 0.79943 0.0
H403 H 0.53887 1.00702 0.79091 0.0
H404 H 0.58854 1.04217 0.80919 0.0
H405 H 0.54694 0.98219 0.81532 0.0
H406 H 0.62386 0.93957 0.79471 0.0
H407 H 0.60902 0.96236 0.81935 0.0
H408 H 0.66143 0.99924 0.80433 0.0
H409 H 0.64721 1.02106 0.66097 0.0
H410 H 0.76081 0.16556 0.67668 0.0
H411 H 0.74408 0.15791 0.71572 0.0
H412 H 0.66628 0.97269 0.70344 0.0
H413 H 0.61719 0.94668 0.68336 0.0
H414 H 0.60884 0.93244 0.71194 0.0
H415 H 0.57376 1.03035 0.69328 0.0
H416 H 0.54338 0.98063 0.70902 0.0
H417 H 0.55976 0.97273 0.68115 0.0
H418 H 0.48061 0.83761 0.73138 0.0
C419 C 0.53389 0.91163 0.73591 0.0
C420 C 0.65519 0.34892 0.11972 0.0
C421 C 0.70264 0.37027 0.11332 0.0
C422 C 0.71132 0.37525 0.09038 0.0
C423 C 0.63053 0.3567 0.08287 0.0
C424 C 0.62014 0.34484 0.10459 0.0
C425 C 0.57287 0.33934 0.11069 0.0
H426 H 0.42049 0.41733 0.09717 0.0
C427 C 0.59267 0.36376 0.07336 0.0
C428 C 0.55873 0.35366 0.08962 0.0
H429 H 0.4245 0.33273 0.14889 0.0
H430 H 0.47911 0.31648 0.12787 0.0
H431 H 0.52463 0.47386 0.08937 0.0
H432 H 0.41936 0.34172 0.05542 0.0
H433 H 0.45753 0.37648 0.03518 0.0
H434 H 0.42362 0.39779 0.05072 0.0
H435 H 0.48206 0.47089 0.06924 0.0
H436 H 0.53825 0.47745 0.06119 0.0
C437 C 0.58143 0.37472 0.13111 0.0
C438 C 0.53851 0.28637 0.11474 0.0
C439 C 0.6177 0.44273 0.00015 0.0
C440 C 0.59669 0.46654 0.99016 0.0
C441 C 0.55832 0.46723 0.00082 0.0
C442 C 0.54103 0.44445 0.02046 0.0
C443 C 0.56315 0.42194 0.03029 0.0
C444 C 0.60121 0.42187 0.02032 0.0
C445 C 0.62382 0.40117 0.03452 0.0
C446 C 0.59074 0.38577 0.05392 0.0
C447 C 0.55538 0.39812 0.05126 0.0
C448 C 0.67519 0.44143 0.04168 0.0
C449 C 0.62167 0.35775 0.02133 0.0
C450 C 0.43277 0.39476 0.10373 0.0
C451 C 0.41952 0.37699 0.12474 0.0
C452 C 0.43499 0.34702 0.13278 0.0
C453 C 0.46675 0.33801 0.12068 0.0
C454 C 0.48372 0.36024 0.10077 0.0
C455 C 0.4645 0.38552 0.09192 0.0
C456 C 0.48487 0.40426 0.07 0.0
C457 C 0.52131 0.38814 0.06775 0.0
C458 C 0.5215 0.36379 0.08621 0.0
C459 C 0.50849 0.45943 0.07232 0.0
C460 C 0.44444 0.37923 0.05177 0.0
H461 H 0.68423 0.37434 0.0581 0.0
H462 H 0.64677 0.34213 0.13695 0.0
H463 H 0.54877 0.26233 0.1055 0.0
H464 H 0.50172 0.27413 0.10857 0.0
H465 H 0.5383 0.28005 0.13267 0.0
H466 H 0.61298 0.41018 0.12881 0.0
H467 H 0.58794 0.36157 0.14662 0.0
H468 H 0.55206 0.38168 0.13404 0.0
H469 H 0.6469 0.44063 0.99277 0.0
H470 H 0.54194 0.48631 0.99443 0.0
H471 H 0.51192 0.44657 0.02759 0.0
H472 H 0.68248 0.47716 0.03717 0.0
H473 H 0.70236 0.43503 0.03362 0.0
H474 H 0.68172 0.4455 0.05997 0.0
H475 H 0.58552 0.33407 0.01357 0.0
H476 H 0.62913 0.33557 0.03208 0.0
H477 H 0.64744 0.36937 0.00784 0.0
H478 H 0.74694 0.39017 0.0844 0.0
C479 C 0.67512 0.36758 0.07507 0.0
H480 H 0.28167 0.43512 0.17001 0.0
H481 H 0.41197 0.57051 0.17867 0.0
H482 H 0.45677 0.53306 0.16448 0.0
H483 H 0.45694 0.46427 0.14506 0.0
H484 H 0.32681 0.32952 0.13585 0.0
H485 H 0.28349 0.36407 0.15523 0.0
C486 C 0.32006 0.45621 0.16953 0.0
C487 C 0.34346 0.50565 0.17523 0.0
C488 C 0.34532 0.43464 0.16099 0.0
C489 C 0.39314 0.53253 0.17413 0.0
C490 C 0.41871 0.51117 0.16597 0.0
C491 C 0.41923 0.44248 0.14773 0.0
C492 C 0.39462 0.39483 0.13907 0.0
C493 C 0.39488 0.46271 0.1586 0.0
C494 C 0.34603 0.36637 0.14248 0.0
C495 C 0.32144 0.38616 0.15344 0.0
H496 H 0.81388 0.35564 0.45042 0.0
H497 H 0.96348 0.43374 0.46972 0.0
H498 H 0.9649 0.50875 0.46583 0.0
H499 H 0.92527 0.55159 0.45548 0.0
H500 H 0.77738 0.47561 0.43367 0.0
H501 H 0.77353 0.39957 0.44005 0.0
C502 C 0.84702 0.38904 0.4534 0.0
C503 C 0.88863 0.38906 0.4603 0.0
C504 C 0.84771 0.4321 0.4509 0.0
C505 C 0.93091 0.4327 0.46464 0.0
C506 C 0.93176 0.47558 0.46239 0.0
C507 C 0.89171 0.51853 0.45271 0.0
C508 C 0.8513 0.51912 0.44461 0.0
C509 C 0.89043 0.47558 0.45558 0.0
C510 C 0.80865 0.47589 0.44024 0.0
C511 C 0.80669 0.43261 0.44365 0.0
H512 H 0.55391 0.72649 0.79958 0.0
H513 H 0.53205 0.78546 0.86128 0.0
H514 H 0.47829 0.80551 0.84188 0.0
H515 H 0.45867 0.82669 0.80647 0.0
H516 H 0.49717 0.78172 0.74503 0.0
H517 H 0.51765 0.73124 0.76477 0.0
C518 C 0.53591 0.74225 0.80879 0.0
C519 C 0.54718 0.75558 0.83155 0.0
C520 C 0.50744 0.75577 0.79738 0.0
C521 C 0.52384 0.77546 0.84365 0.0
C522 C 0.49333 0.78696 0.83253 0.0
C523 C 0.47042 0.80485 0.79733 0.0
C524 C 0.48035 0.8114 0.77463 0.0
C525 C 0.48788 0.78046 0.80919 0.0
C526 C 0.4913 0.77966 0.76269 0.0
C527 C 0.50413 0.7513 0.77408 0.0
H528 H 0.84636 0.55143 0.17027 0.0
H529 H 0.94224 0.53564 0.12623 0.0
H530 H 0.88112 0.45362 0.11504 0.0
H531 H 0.79654 0.3936 0.11217 0.0
H532 H 0.6988 0.41535 0.15284 0.0
H533 H 0.76427 0.48505 0.17186 0.0
C534 C 0.85383 0.52952 0.15855 0.0
C535 C 0.89774 0.54949 0.14849 0.0
C536 C 0.818 0.48303 0.15159 0.0
C537 C 0.90783 0.52098 0.1336 0.0
C538 C 0.87305 0.47414 0.12729 0.0
C539 C 0.78946 0.41313 0.12537 0.0
C540 C 0.74223 0.39971 0.13017 0.0
C541 C 0.82719 0.45576 0.13525 0.0
C542 C 0.73432 0.42429 0.1483 0.0
C543 C 0.77195 0.46512 0.15909 0.0
H544 H 0.35869 0.94629 0.52326 0.0
H545 H 0.38122 0.84254 0.48538 0.0
H546 H 0.29644 0.79624 0.47488 0.0
H547 H 0.21931 0.79227 0.47198 0.0
H548 H 0.19729 0.89782 0.50819 0.0
H549 H 0.27855 0.93602 0.52453 0.0
C550 C 0.34482 0.91277 0.51329 0.0
C551 C 0.37611 0.89799 0.50489 0.0
C552 C 0.2964 0.8871 0.50691 0.0
C553 C 0.35779 0.85483 0.49176 0.0
C554 C 0.30944 0.82846 0.48576 0.0
C555 C 0.23223 0.82319 0.48377 0.0
C556 C 0.2032 0.84298 0.48868 0.0
C557 C 0.27895 0.84536 0.4925 0.0
C558 C 0.21944 0.88238 0.50419 0.0
C559 C 0.26584 0.90426 0.51336 0.0
H560 H 0.73109 0.36609 0.84532 0.0
H561 H 0.59684 0.2705 0.87292 0.0
H562 H 0.61822 0.20828 0.87246 0.0
H563 H 0.6647 0.17652 0.85512 0.0
H564 H 0.79836 0.27077 0.82651 0.0
H565 H 0.78807 0.33876 0.83719 0.0
C566 C 0.70732 0.33232 0.85208 0.0
C567 C 0.66179 0.32223 0.85844 0.0
C568 C 0.71933 0.29633 0.85122 0.0
C569 C 0.6315 0.27846 0.8673 0.0
C570 C 0.64371 0.24292 0.86704 0.0
C571 C 0.69292 0.21198 0.85205 0.0
C572 C 0.73129 0.21811 0.83911 0.0
C573 C 0.6861 0.25056 0.85764 0.0
C574 C 0.76746 0.26473 0.83565 0.0
C575 C 0.76155 0.30366 0.8417 0.0
H576 H 0.64794 0.94133 0.48943 0.0
H577 H 0.78967 1.04202 0.51528 0.0
H578 H 0.80221 0.97654 0.52414 0.0
H579 H 0.77287 0.88973 0.5264 0.0
H580 H 0.63438 0.78756 0.49797 0.0
H581 H 0.62145 0.85297 0.48822 0.0
C582 C 0.68174 0.94915 0.49689 0.0
C583 C 0.7177 0.99801 0.50167 0.0
C584 C 0.68967 0.91029 0.50145 0.0
C585 C 0.76112 1.00588 0.51119 0.0
C586 C 0.76842 0.96797 0.51637 0.0
C587 C 0.74018 0.88147 0.51755 0.0
C588 C 0.70509 0.83252 0.5127 0.0
C589 C 0.73308 0.91989 0.51172 0.0
C590 C 0.6628 0.82394 0.50158 0.0
C591 C 0.65513 0.86183 0.49621 0.0
H592 H 0.78504 0.54252 0.81143 0.0
H593 H 0.81762 0.65892 0.86001 0.0
H594 H 0.8955 0.66773 0.868 0.0
H595 H 0.9559 0.64247 0.86215 0.0
H596 H 0.92699 0.52984 0.81206 0.0
H597 H 0.8485 0.52044 0.80384 0.0
C598 C 0.80909 0.57003 0.82373 0.0
C599 C 0.79386 0.5999 0.83505 0.0
C600 C 0.85559 0.57589 0.82808 0.0
C601 C 0.82696 0.63526 0.85079 0.0
C602 C 0.8721 0.64036 0.85548 0.0
C603 C 0.93275 0.61579 0.84933 0.0
C604 C 0.94886 0.58687 0.83789 0.0
C605 C 0.88707 0.6109 0.84436 0.0
C606 C 0.91715 0.55319 0.82119 0.0
C607 C 0.87154 0.54752 0.81654 0.0
H608 H 0.26914 0.82621 0.15475 0.0
H609 H 0.31344 0.73859 0.18684 0.0
H610 H 0.39299 0.80748 0.19407 0.0
H611 H 0.45207 0.894 0.1919 0.0
H612 H 0.41102 0.98118 0.15726 0.0
H613 H 0.3306 0.91261 0.15044 0.0
C614 C 0.29602 0.82195 0.16337 0.0
C615 C 0.28361 0.77582 0.17033 0.0
C616 C 0.34349 0.86246 0.16702 0.0
C617 C 0.32047 0.77248 0.18117 0.0
C618 C 0.3666 0.8124 0.18538 0.0
C619 C 0.42581 0.89839 0.18277 0.0
C620 C 0.43922 0.9443 0.17526 0.0
C621 C 0.3789 0.85781 0.17846 0.0
C622 C 0.40339 0.94736 0.16324 0.0
C623 C 0.35667 0.90769 0.15942 0.0
H624 H 0.77088 0.31008 0.49187 0.0
H625 H 0.6261 0.21853 0.50975 0.0
H626 H 0.61541 0.28741 0.51599 0.0
H627 H 0.64637 0.37516 0.51743 0.0
H628 H 0.78855 0.46746 0.49711 0.0
H629 H 0.80078 0.3987 0.49172 0.0
C630 C 0.73686 0.30493 0.4971 0.0
C631 C 0.69942 0.25756 0.50028 0.0
C632 C 0.73017 0.34573 0.50033 0.0
C633 C 0.65585 0.25329 0.50694 0.0
C634 C 0.64955 0.29322 0.51061 0.0
C635 C 0.67987 0.38038 0.51138 0.0
C636 C 0.71625 0.4276 0.50758 0.0
C637 C 0.68628 0.3398 0.50742 0.0
C638 C 0.75933 0.43237 0.49991 0.0
C639 C 0.7664 0.39257 0.49675 0.0
H640 H 0.52014 0.63054 0.8168 0.0
H641 H 0.48924 0.50821 0.85308 0.0
H642 H 0.41191 0.49829 0.86192 0.0
H643 H 0.35231 0.52466 0.86102 0.0
H644 H 0.37869 0.64428 0.82391 0.0
H645 H 0.45565 0.65318 0.81334 0.0
C646 C 0.4965 0.60142 0.82652 0.0
C647 C 0.51213 0.57018 0.83415 0.0
C648 C 0.45016 0.595 0.83141 0.0
C649 C 0.47961 0.53291 0.84669 0.0
C650 C 0.43477 0.52715 0.85188 0.0
C651 C 0.37446 0.55264 0.8504 0.0
C652 C 0.35817 0.58361 0.84339 0.0
C653 C 0.41949 0.55795 0.84451 0.0
C654 C 0.38863 0.61921 0.82953 0.0
C655 C 0.43355 0.62482 0.82371 0.0
H656 H 1.00351 0.46483 0.14341 0.0
H657 H 0.99222 0.56215 0.19136 0.0
H658 H 0.91545 0.49788 0.20221 0.0
H659 H 0.85243 0.41218 0.20023 0.0
H660 H 0.86072 0.3135 0.15194 0.0
H661 H 0.93547 0.37876 0.13921 0.0
C662 C 0.98416 0.47224 0.15611 0.0
C663 C 1.00463 0.51985 0.16624 0.0
C664 C 0.93867 0.43406 0.1624 0.0
C665 C 0.97793 0.52721 0.18274 0.0
C666 C 0.93375 0.48988 0.18917 0.0
C667 C 0.87 0.40456 0.1867 0.0
C668 C 0.84944 0.3564 0.17731 0.0
C669 C 0.91372 0.44289 0.17937 0.0
C670 C 0.87402 0.34913 0.15962 0.0
C671 C 0.91761 0.3869 0.15242 0.0
H672 H 0.16149 0.5763 0.08786 0.0
H673 H 0.13795 0.69631 0.0898 0.0
H674 H 0.13578 0.69376 0.04949 0.0
H675 H 0.13969 0.6579 0.01343 0.0
H676 H 0.16446 0.53901 0.01004 0.0
H677 H 0.16783 0.54124 0.05085 0.0
C678 C 0.15585 0.60179 0.07943 0.0
C679 C 0.14984 0.63639 0.09205 0.0
C680 C 0.1551 0.60059 0.05587 0.0
C681 C 0.14292 0.66936 0.08073 0.0
C682 C 0.14158 0.66798 0.05756 0.0
C683 C 0.14562 0.63228 0.02159 0.0
C684 C 0.15135 0.59807 0.00863 0.0
C685 C 0.14751 0.6338 0.04496 0.0
C686 C 0.1601 0.56587 0.01957 0.0
C687 C 0.16173 0.56696 0.04293 0.0
H688 H 0.75142 0.16232 0.41873 0.0
H689 H 0.60284 1.06428 0.4277 0.0
H690 H 0.5857 1.06211 0.38797 0.0
H691 H 0.61226 0.08875 0.35077 0.0
H692 H 0.76174 0.18245 0.34119 0.0
H693 H 0.77852 0.18659 0.38101 0.0
C694 C 0.71524 0.14035 0.41203 0.0
C695 C 0.67851 0.11348 0.4264 0.0
C696 C 0.70558 0.13887 0.38899 0.0
C697 C 0.63195 0.08518 0.41721 0.0
C698 C 0.62205 0.08404 0.39442 0.0
C699 C 0.64876 0.10957 0.35715 0.0
C700 C 0.68553 0.13521 0.34251 0.0
C701 C 0.65854 0.11075 0.38013 0.0
C702 C 0.73227 0.1629 0.35171 0.0
C703 C 0.74209 0.16494 0.3746 0.0
H704 H 0.70965 0.6631 0.75836 0.0
H705 H 0.59621 0.51633 0.75433 0.0
H706 H 0.59613 0.51376 0.71397 0.0
H707 H 0.62881 0.55162 0.67953 0.0
H708 H 0.74236 0.69785 0.68242 0.0
H709 H 0.74108 0.7023 0.72316 0.0
C710 C 0.68484 0.63061 0.74865 0.0
C711 C 0.65314 0.58992 0.75964 0.0
C712 C 0.68479 0.6292 0.72509 0.0
C713 C 0.62116 0.54828 0.7466 0.0
C714 C 0.62101 0.54666 0.72338 0.0
C715 C 0.65351 0.5845 0.68902 0.0
C716 C 0.68594 0.62419 0.67776 0.0
C717 C 0.65283 0.58668 0.71243 0.0
C718 C 0.71679 0.66675 0.6905 0.0
C719 C 0.7163 0.66922 0.71387 0.0
H720 H 0.74022 0.08425 0.56341 0.0
H721 H 0.71399 0.20222 0.567 0.0
H722 H 0.70984 0.20036 0.6075 0.0
H723 H 0.70754 0.16115 0.64142 0.0
H724 H 0.72527 1.03788 0.63753 0.0
H725 H 0.73866 1.04534 0.5976 0.0
C726 C 0.73456 0.11003 0.57322 0.0
C727 C 0.72798 0.14368 0.56253 0.0
C728 C 0.73003 0.10726 0.59631 0.0
C729 C 0.71941 0.17625 0.5751 0.0
C730 C 0.71685 0.17505 0.59816 0.0
C731 C 0.71488 0.13634 0.6318 0.0
C732 C 0.71566 0.09919 0.64219 0.0
C733 C 0.72114 0.14011 0.60888 0.0
C734 C 0.72441 1.06665 0.62968 0.0
C735 C 0.73215 0.07099 0.60694 0.0
H736 H 0.70052 0.56382 0.9032 0.0
H737 H 0.56662 0.55716 0.89024 0.0
H738 H 0.53767 0.52108 0.92553 0.0
H739 H 0.54864 0.48616 0.95826 0.0
H740 H 0.68731 0.50436 0.97408 0.0
H741 H 0.71542 0.53959 0.93905 0.0
C742 C 0.66535 0.55519 0.90839 0.0
C743 C 0.63565 0.56301 0.89435 0.0
C744 C 0.6494 0.5355 0.92888 0.0
C745 C 0.59017 0.55186 0.90104 0.0
C746 C 0.57352 0.53087 0.92107 0.0
C747 C 0.58546 0.49882 0.95464 0.0
C748 C 0.61506 0.49115 0.9691 0.0
C749 C 0.60262 0.52185 0.93496 0.0
C750 C 0.66247 0.50745 0.96324 0.0
C751 C 0.67911 0.5285 0.94323 0.0
H752 H 1.0586 0.64765 0.22195 0.0
H753 H 0.19767 0.67013 0.23981 0.0
H754 H 0.18701 0.68846 0.27881 0.0
H755 H 0.13899 0.70151 0.30725 0.0
H756 H 1.00209 0.68259 0.28757 0.0
H757 H 1.01134 0.65945 0.24959 0.0
C758 C 1.08683 0.65651 0.23428 0.0
C759 C 0.12915 0.658 0.22794 0.0
C760 C 1.08087 0.66787 0.25627 0.0
C761 C 0.16479 0.66878 0.24428 0.0
C762 C 0.15878 0.6795 0.26651 0.0
C763 C 0.1114 0.69267 0.29458 0.0
C764 C 1.06987 0.69379 0.30024 0.0
C765 C 0.11721 0.67991 0.2726 0.0
C766 C 1.03407 0.68146 0.28375 0.0
C767 C 1.03942 0.66843 0.262 0.0
loop_
_geom_bond_atom_site_label_1
_geom_bond_atom_site_label_2
_geom_bond_distance
_geom_bond_site_symmetry_2
_ccdc_geom_bond_type
Tb0 C9 2.764 1_455 S
Tb0 O10 2.325 1_455 S
Tb0 O13 2.303 . S
Tb0 O17 2.322 . S
Tb0 O18 2.349 . S
Tb0 O21 2.415 1_455 S
Tb0 O22 2.399 1_455 S
Tb1 O11 2.335 . S
Tb1 O12 2.349 . S
Tb1 O14 2.415 . S
Tb1 O15 2.399 . S
Tb1 O16 2.325 . S
Tb1 O19 2.303 . S
Tb1 C30 2.764 . S
C2 O18 1.261 . S
C2 O19 1.257 . S
C3 C6 1.358 . S
C3 C7 1.332 . S
C3 C9 1.504 . S
C4 C5 1.373 . S
C4 C8 1.308 . S
C5 C4 1.373 . S
C5 C6 1.429 . S
C5 H32 0.932 . S
C6 C3 1.358 . S
C6 C5 1.429 . S
C6 H33 0.930 . S
C7 C3 1.332 . S
C7 C8 1.394 . S
C7 H34 0.932 . S
C8 C4 1.308 . S
C8 C7 1.394 . S
C8 H35 0.929 . S
C9 Tb0 2.764 1_655 S
C9 C3 1.504 . S
C9 O21 1.239 . S
C9 O22 1.263 . S
O10 Tb0 2.325 1_655 S
O10 C20 1.236 . S
O11 Tb1 2.335 . S
O11 C20 1.242 1_455 S
O12 Tb1 2.349 . S
O12 C23 1.261 . S
O13 Tb0 2.303 . S
O13 C23 1.257 . S
O14 Tb1 2.415 . S
O14 C30 1.239 . S
O15 Tb1 2.399 . S
O15 C30 1.263 . S
O16 Tb1 2.325 . S
O16 C31 1.236 . S
O17 Tb0 2.322 . S
O17 C31 1.257 . S
O18 Tb0 2.349 . S
O18 C2 1.261 . S
O19 Tb1 2.303 . S
O19 C2 1.257 . S
C20 O10 1.236 . S
C20 O11 1.242 1_655 S
O21 Tb0 2.415 1_655 S
O21 C9 1.239 . S
O22 Tb0 2.399 1_655 S
O22 C9 1.263 . S
C23 O12 1.261 . S
C23 O13 1.257 . S
C24 C27 1.358 . S
C24 C28 1.332 . S
C24 C30 1.504 . S
C25 C26 1.373 . S
C25 C29 1.308 . S
C26 C25 1.373 . S
C26 C27 1.429 . S
C26 H36 0.932 . S
C27 C24 1.358 . S
C27 C26 1.429 . S
C27 H37 0.930 . S
C28 C24 1.332 . S
C28 C29 1.394 . S
C28 H38 0.932 . S
C29 C25 1.308 . S
C29 C28 1.394 . S
C29 H39 0.929 . S
C30 Tb1 2.764 . S
C30 O14 1.239 . S
C30 O15 1.263 . S
C30 C24 1.504 . S
C31 O16 1.236 . S
C31 O17 1.257 . S
H32 C5 0.932 . S
H33 C6 0.930 . S
H34 C7 0.932 . S
H35 C8 0.929 . S
H36 C26 0.932 . S
H37 C27 0.930 . S
H38 C28 0.932 . S
H39 C29 0.929 . S
Tb40 C49 2.764 . S
Tb40 O50 2.325 . S
Tb40 O53 2.303 1_565 S
Tb40 O57 2.322 1_565 S
Tb40 O58 2.349 1_565 S
Tb40 O61 2.415 . S
Tb40 O62 2.399 . S
Tb41 O51 2.322 1_545 S
Tb41 O52 2.349 . S
Tb41 O54 2.415 . S
Tb41 O55 2.399 . S
Tb41 O56 2.325 . S
Tb41 O59 2.303 . S
Tb41 C70 2.764 . S
C42 O58 1.261 . S
C42 O59 1.257 . S
C43 C46 1.358 . S
C43 C47 1.332 . S
C43 C49 1.504 . S
C44 C45 1.373 . S
C44 C48 1.308 . S
C45 C44 1.373 . S
C45 C46 1.429 . S
C45 H72 0.932 . S
C46 C43 1.358 . S
C46 C45 1.429 . S
C46 H73 0.930 . S
C47 C43 1.332 . S
C47 C48 1.394 . S
C47 H74 0.932 . S
C48 C44 1.308 . S
C48 C47 1.394 . S
C48 H75 0.929 . S
C49 Tb40 2.764 . S
C49 C43 1.504 . S
C49 O61 1.239 . S
C49 O62 1.263 . S
O50 Tb40 2.325 . S
O50 C60 1.236 . S
O51 Tb41 2.322 1_565 S
O51 C60 1.257 . S
O52 Tb41 2.349 . S
O52 C63 1.261 . S
O53 Tb40 2.303 1_545 S
O53 C63 1.257 . S
O54 Tb41 2.415 . S
O54 C70 1.239 . S
O55 Tb41 2.399 . S
O55 C70 1.263 . S
O56 Tb41 2.325 . S
O56 C71 1.236 . S
O57 Tb40 2.322 1_545 S
O57 C71 1.257 . S
O58 Tb40 2.349 1_545 S
O58 C42 1.261 . S
O59 Tb41 2.303 . S
O59 C42 1.257 . S
C60 O50 1.236 . S
C60 O51 1.257 . S
O61 Tb40 2.415 . S
O61 C49 1.239 . S
O62 Tb40 2.399 . S
O62 C49 1.263 . S
C63 O52 1.261 . S
C63 O53 1.257 . S
C64 C67 1.358 . S
C64 C68 1.332 . S
C64 C70 1.504 . S
C65 C66 1.373 . S
C65 C69 1.308 . S
C66 C65 1.373 . S
C66 C67 1.429 . S
C66 H76 0.932 . S
C67 C64 1.358 . S
C67 C66 1.429 . S
C67 H77 0.930 . S
C68 C64 1.332 . S
C68 C69 1.394 . S
C68 H78 0.932 . S
C69 C65 1.308 . S
C69 C68 1.394 . S
C69 H79 0.929 . S
C70 Tb41 2.764 . S
C70 O54 1.239 . S
C70 O55 1.263 . S
C70 C64 1.504 . S
C71 O56 1.236 . S
C71 O57 1.257 . S
H72 C45 0.932 . S
H73 C46 0.930 . S
H74 C47 0.932 . S
H75 C48 0.929 . S
H76 C66 0.932 . S
H77 C67 0.930 . S
H78 C68 0.932 . S
H79 C69 0.929 . S
Tb80 C89 2.764 . S
Tb80 O90 2.325 . S
Tb80 O93 2.303 . S
Tb80 O97 2.322 . S
Tb80 O98 2.349 . S
Tb80 O101 2.415 . S
Tb80 O102 2.399 . S
Tb81 O91 2.322 . S
Tb81 O92 2.349 . S
Tb81 O94 2.415 . S
Tb81 O95 2.399 . S
Tb81 O96 2.325 . S
Tb81 O99 2.303 . S
Tb81 C110 2.764 . S
C82 O98 1.261 . S
C82 O99 1.257 . S
C83 C86 1.358 . S
C83 C87 1.332 . S
C83 C89 1.504 . S
C84 C85 1.373 . S
C84 C88 1.308 . S
C85 C84 1.373 . S
C85 C86 1.429 . S
C85 H112 0.932 . S
C86 C83 1.358 . S
C86 C85 1.429 . S
C86 H113 0.930 . S
C87 C83 1.332 . S
C87 C88 1.394 . S
C87 H114 0.932 . S
C88 C84 1.308 . S
C88 C87 1.394 . S
C88 H115 0.929 . S
C89 Tb80 2.764 . S
C89 C83 1.504 . S
C89 O101 1.239 . S
C89 O102 1.263 . S
O90 Tb80 2.325 . S
O90 C100 1.236 . S
O91 Tb81 2.322 . S
O91 C100 1.257 . S
O92 Tb81 2.349 . S
O92 C103 1.261 . S
O93 Tb80 2.303 . S
O93 C103 1.257 . S
O94 Tb81 2.415 . S
O94 C110 1.239 . S
O95 Tb81 2.399 . S
O95 C110 1.263 . S
O96 Tb81 2.325 . S
O96 C111 1.236 . S
O97 Tb80 2.322 . S
O97 C111 1.257 . S
O98 Tb80 2.349 . S
O98 C82 1.261 . S
O99 Tb81 2.303 . S
O99 C82 1.257 . S
C100 O90 1.236 . S
C100 O91 1.257 . S
O101 Tb80 2.415 . S
O101 C89 1.239 . S
O102 Tb80 2.399 . S
O102 C89 1.263 . S
C103 O92 1.261 . S
C103 O93 1.257 . S
C104 C107 1.358 . S
C104 C108 1.332 . S
C104 C110 1.504 . S
C105 C106 1.373 . S
C105 C109 1.308 . S
C106 C105 1.373 . S
C106 C107 1.429 . S
C106 H116 0.932 . S
C107 C104 1.358 . S
C107 C106 1.429 . S
C107 H117 0.930 . S
C108 C104 1.332 . S
C108 C109 1.394 . S
C108 H118 0.932 . S
C109 C105 1.308 . S
C109 C108 1.394 . S
C109 H119 0.929 . S
C110 Tb81 2.764 . S
C110 O94 1.239 . S
C110 O95 1.263 . S
C110 C104 1.504 . S
C111 O96 1.236 . S
C111 O97 1.257 . S
H112 C85 0.932 . S
H113 C86 0.930 . S
H114 C87 0.932 . S
H115 C88 0.929 . S
H116 C106 0.932 . S
H117 C107 0.930 . S
H118 C108 0.932 . S
H119 C109 0.929 . S
C120 C121 1.391 . S
C120 C124 1.391 . S
C120 H162 0.948 . S
C121 C120 1.391 . S
C121 C122 1.391 . S
C122 C121 1.391 . S
C122 H178 0.947 . S
C122 C179 1.392 . S
C123 C124 1.391 . S
C123 C127 1.397 . S
C123 C179 1.419 . S
C124 C120 1.391 . S
C124 C123 1.391 . S
C124 C125 1.399 . S
C125 C124 1.399 . S
C125 C128 1.396 . S
C125 C137 1.453 . S
C125 C138 1.684 . S
H126 C150 0.948 . S
C127 C123 1.397 . S
C127 C128 1.394 . S
C127 C146 1.723 . S
C128 C125 1.396 . S
C128 C127 1.394 . S
C128 C158 1.723 1_545 S
H129 C152 0.947 . S
H130 C153 0.948 . S
H131 C159 0.982 . S
H132 C160 0.979 . S
H133 C160 0.980 . S
H134 C160 0.983 . S
H135 C159 0.979 . S
H136 C159 0.977 . S
C137 C125 1.453 . S
C137 H166 0.982 . S
C137 H167 0.979 . S
C137 H168 0.977 . S
C138 C125 1.684 . S
C138 H163 0.979 . S
C138 H164 0.980 . S
C138 H165 0.983 . S
C139 C140 1.391 . S
C139 C144 1.391 . S
C139 H169 0.948 . S
C140 C139 1.391 . S
C140 C141 1.391 . S
C141 C140 1.391 . S
C141 C142 1.392 1_545 S
C141 H170 0.947 1_545 S
C142 C141 1.392 1_565 S
C142 C143 1.419 1_565 S
C142 H171 0.948 . S
C143 C142 1.419 1_545 S
C143 C144 1.391 . S
C143 C147 1.397 . S
C144 C139 1.391 . S
C144 C143 1.391 . S
C144 C145 1.399 . S
C145 C144 1.399 . S
C145 C146 1.396 . S
C145 C148 1.453 . S
C145 C149 1.684 . S
C146 C127 1.723 . S
C146 C145 1.396 . S
C146 C147 1.394 . S
C147 C143 1.397 . S
C147 C146 1.394 . S
C147 C157 1.723 1_545 S
C148 C145 1.453 . S
C148 H172 0.982 . S
C148 H173 0.979 . S
C148 H174 0.977 . S
C149 C145 1.684 . S
C149 H175 0.979 . S
C149 H176 0.980 . S
C149 H177 0.983 . S
C150 H126 0.948 . S
C150 C151 1.391 . S
C150 C155 1.391 . S
C151 C150 1.391 . S
C151 C152 1.391 . S
C152 H129 0.947 . S
C152 C151 1.391 . S
C152 C153 1.392 . S
C153 H130 0.948 . S
C153 C152 1.392 . S
C153 C154 1.419 . S
C154 C153 1.419 . S
C154 C155 1.391 . S
C154 C158 1.397 . S
C155 C150 1.391 . S
C155 C154 1.391 . S
C155 C156 1.399 . S
C156 C155 1.399 . S
C156 C157 1.396 . S
C156 C159 1.453 . S
C156 C160 1.684 . S
C157 C147 1.723 1_565 S
C157 C156 1.396 . S
C157 C158 1.394 . S
C158 C128 1.723 1_565 S
C158 C154 1.397 . S
C158 C157 1.394 . S
C159 H131 0.982 . S
C159 H135 0.979 . S
C159 H136 0.977 . S
C159 C156 1.453 . S
C160 H132 0.979 . S
C160 H133 0.980 . S
C160 H134 0.983 . S
C160 C156 1.684 . S
H161 C179 0.948 . S
H162 C120 0.948 . S
H163 C138 0.979 . S
H164 C138 0.980 . S
H165 C138 0.983 . S
H166 C137 0.982 . S
H167 C137 0.979 . S
H168 C137 0.977 . S
H169 C139 0.948 . S
H170 C141 0.947 1_565 S
H171 C142 0.948 . S
H172 C148 0.982 . S
H173 C148 0.979 . S
H174 C148 0.977 . S
H175 C149 0.979 . S
H176 C149 0.980 . S
H177 C149 0.983 . S
H178 C122 0.947 . S
C179 C122 1.392 . S
C179 C123 1.419 . S
C179 H161 0.948 . S
C180 C181 1.391 . S
C180 C184 1.391 . S
C180 H222 0.948 . S
C181 C180 1.391 . S
C181 C182 1.391 . S
C182 C181 1.391 . S
C182 H238 0.947 . S
C182 C239 1.392 . S
C183 C184 1.391 . S
C183 C187 1.397 . S
C183 C239 1.419 . S
C184 C180 1.391 . S
C184 C183 1.391 . S
C184 C185 1.399 . S
C185 C184 1.399 . S
C185 C188 1.396 . S
C185 C197 1.453 . S
C185 C198 1.684 . S
H186 C210 0.948 . S
C187 C183 1.397 . S
C187 C188 1.394 . S
C187 C206 1.723 . S
C188 C185 1.396 . S
C188 C187 1.394 . S
C188 C218 1.723 . S
H189 C212 0.947 . S
H190 C213 0.948 . S
H191 C219 0.982 . S
H192 C220 0.979 . S
H193 C220 0.980 . S
H194 C220 0.983 . S
H195 C219 0.979 . S
H196 C219 0.977 . S
C197 C185 1.453 . S
C197 H226 0.982 . S
C197 H227 0.979 . S
C197 H228 0.977 . S
C198 C185 1.684 . S
C198 H223 0.979 . S
C198 H224 0.980 . S
C198 H225 0.983 . S
C199 C200 1.391 . S
C199 C204 1.391 . S
C199 H229 0.948 . S
C200 C199 1.391 . S
C200 C201 1.391 . S
C201 C200 1.391 . S
C201 C202 1.392 . S
C201 H230 0.947 . S
C202 C201 1.392 . S
C202 C203 1.419 . S
C202 H231 0.948 . S
C203 C202 1.419 . S
C203 C204 1.391 . S
C203 C207 1.397 . S
C204 C199 1.391 . S
C204 C203 1.391 . S
C204 C205 1.399 . S
C205 C204 1.399 . S
C205 C206 1.396 . S
C205 C208 1.453 . S
C205 C209 1.684 . S
C206 C187 1.723 . S
C206 C205 1.396 . S
C206 C207 1.394 . S
C207 C203 1.397 . S
C207 C206 1.394 . S
C207 C217 1.723 . S
C208 C205 1.453 . S
C208 H232 0.982 . S
C208 H233 0.979 . S
C208 H234 0.977 . S
C209 C205 1.684 . S
C209 H235 0.979 . S
C209 H236 0.980 . S
C209 H237 0.983 . S
C210 H186 0.948 . S
C210 C211 1.391 . S
C210 C215 1.391 . S
C211 C210 1.391 . S
C211 C212 1.391 . S
C212 H189 0.947 . S
C212 C211 1.391 . S
C212 C213 1.392 . S
C213 H190 0.948 . S
C213 C212 1.392 . S
C213 C214 1.419 . S
C214 C213 1.419 . S
C214 C215 1.391 . S
C214 C218 1.397 . S
C215 C210 1.391 . S
C215 C214 1.391 . S
C215 C216 1.399 . S
C216 C215 1.399 . S
C216 C217 1.396 . S
C216 C219 1.453 . S
C216 C220 1.684 . S
C217 C207 1.723 . S
C217 C216 1.396 . S
C217 C218 1.394 . S
C218 C188 1.723 . S
C218 C214 1.397 . S
C218 C217 1.394 . S
C219 H191 0.982 . S
C219 H195 0.979 . S
C219 H196 0.977 . S
C219 C216 1.453 . S
C220 H192 0.979 . S
C220 H193 0.980 . S
C220 H194 0.983 . S
C220 C216 1.684 . S
H221 C239 0.948 . S
H222 C180 0.948 . S
H223 C198 0.979 . S
H224 C198 0.980 . S
H225 C198 0.983 . S
H226 C197 0.982 . S
H227 C197 0.979 . S
H228 C197 0.977 . S
H229 C199 0.948 . S
H230 C201 0.947 . S
H231 C202 0.948 . S
H232 C208 0.982 . S
H233 C208 0.979 . S
H234 C208 0.977 . S
H235 C209 0.979 . S
H236 C209 0.980 . S
H237 C209 0.983 . S
H238 C182 0.947 . S
C239 C182 1.392 . S
C239 C183 1.419 . S
C239 H221 0.948 . S
C240 C241 1.391 . S
C240 C244 1.391 . S
C240 H282 0.948 . S
C241 C240 1.391 . S
C241 C242 1.391 . S
C242 C241 1.391 . S
C242 H298 0.947 . S
C242 C299 1.392 . S
C243 C244 1.391 . S
C243 C247 1.397 . S
C243 C299 1.419 . S
C244 C240 1.391 . S
C244 C243 1.391 . S
C244 C245 1.399 . S
C245 C244 1.399 . S
C245 C248 1.396 . S
C245 C257 1.453 . S
C245 C258 1.684 . S
H246 C270 0.948 . S
C247 C243 1.397 . S
C247 C248 1.394 . S
C247 C266 1.723 . S
C248 C245 1.396 . S
C248 C247 1.394 . S
C248 C278 1.723 . S
H249 C272 0.947 . S
H250 C273 0.948 . S
H251 C279 0.982 . S
H252 C280 0.979 . S
H253 C280 0.980 . S
H254 C280 0.983 . S
H255 C279 0.979 . S
H256 C279 0.977 . S
C257 C245 1.453 . S
C257 H286 0.982 . S
C257 H287 0.979 . S
C257 H288 0.977 . S
C258 C245 1.684 . S
C258 H283 0.979 . S
C258 H284 0.980 . S
C258 H285 0.983 . S
C259 C260 1.391 . S
C259 C264 1.391 . S
C259 H289 0.948 . S
C260 C259 1.391 . S
C260 C261 1.391 . S
C261 C260 1.391 . S
C261 C262 1.392 . S
C261 H290 0.964 . S
C262 C261 1.392 . S
C262 C263 1.419 . S
C262 H291 0.934 1_455 S
C263 C262 1.419 . S
C263 C264 1.391 . S
C263 C267 1.397 . S
C264 C259 1.391 . S
C264 C263 1.391 . S
C264 C265 1.399 . S
C265 C264 1.399 . S
C265 C266 1.396 . S
C265 C268 1.453 . S
C265 C269 1.684 . S
C266 C247 1.723 . S
C266 C265 1.396 . S
C266 C267 1.394 . S
C267 C263 1.397 . S
C267 C266 1.394 . S
C267 C277 1.723 . S
C268 C265 1.453 . S
C268 H292 0.982 . S
C268 H293 0.979 . S
C268 H294 0.977 . S
C269 C265 1.684 . S
C269 H295 0.979 . S
C269 H296 0.980 . S
C269 H297 0.983 . S
C270 H246 0.948 . S
C270 C271 1.391 . S
C270 C275 1.391 . S
C271 C270 1.391 . S
C271 C272 1.391 . S
C272 H249 0.947 . S
C272 C271 1.391 . S
C272 C273 1.392 1_655 S
C273 H250 0.948 . S
C273 C272 1.392 1_455 S
C273 C274 1.419 . S
C274 C273 1.419 . S
C274 C275 1.391 1_455 S
C274 C278 1.397 . S
C275 C270 1.391 . S
C275 C274 1.391 1_655 S
C275 C276 1.399 . S
C276 C275 1.399 . S
C276 C277 1.396 1_655 S
C276 C279 1.453 . S
C276 C280 1.684 . S
C277 C267 1.723 . S
C277 C276 1.396 1_455 S
C277 C278 1.394 . S
C278 C248 1.723 . S
C278 C274 1.397 . S
C278 C277 1.394 . S
C279 H251 0.982 . S
C279 H255 0.979 . S
C279 H256 0.977 . S
C279 C276 1.453 . S
C280 H252 0.979 . S
C280 H253 0.980 . S
C280 H254 0.983 . S
C280 C276 1.684 . S
H281 C299 0.948 . S
H282 C240 0.948 . S
H283 C258 0.979 . S
H284 C258 0.980 . S
H285 C258 0.983 . S
H286 C257 0.982 . S
H287 C257 0.979 . S
H288 C257 0.977 . S
H289 C259 0.948 . S
H290 C261 0.964 . S
H291 C262 0.934 1_655 S
H292 C268 0.982 . S
H293 C268 0.979 . S
H294 C268 0.977 . S
H295 C269 0.979 . S
H296 C269 0.980 . S
H297 C269 0.983 . S
H298 C242 0.947 . S
C299 C242 1.392 . S
C299 C243 1.419 . S
C299 H281 0.948 . S
C300 C301 1.391 . S
C300 C304 1.391 . S
C300 H342 0.948 . S
C301 C300 1.391 . S
C301 C302 1.391 . S
C302 C301 1.391 . S
C302 H358 0.947 . S
C302 C359 1.392 . S
C303 C304 1.391 . S
C303 C307 1.397 . S
C303 C359 1.419 . S
C304 C300 1.391 . S
C304 C303 1.391 . S
C304 C305 1.399 . S
C305 C304 1.399 . S
C305 C308 1.396 . S
C305 C317 1.453 . S
C305 C318 1.684 . S
H306 C330 0.948 . S
C307 C303 1.397 . S
C307 C308 1.394 . S
C307 C326 1.723 . S
C308 C305 1.396 . S
C308 C307 1.394 . S
C308 C338 1.723 1_655 S
H309 C332 0.947 . S
H310 C333 0.948 . S
H311 C339 0.982 . S
H312 C340 0.979 . S
H313 C340 0.980 . S
H314 C340 0.983 . S
H315 C339 0.979 . S
H316 C339 0.977 . S
C317 C305 1.453 . S
C317 H346 0.982 1_655 S
C317 H347 0.979 . S
C317 H348 0.977 1_655 S
C318 C305 1.684 . S
C318 H343 0.979 . S
C318 H344 0.980 . S
C318 H345 0.983 . S
C319 C320 1.391 1_655 S
C319 C324 1.391 . S
C319 H349 0.948 . S
C320 C319 1.391 1_455 S
C320 C321 1.391 . S
C321 C320 1.391 . S
C321 C322 1.392 . S
C321 H350 0.947 . S
C322 C321 1.392 . S
C322 C323 1.419 . S
C322 H351 0.948 . S
C323 C322 1.419 . S
C323 C324 1.391 1_455 S
C323 C327 1.397 . S
C324 C319 1.391 . S
C324 C323 1.391 1_655 S
C324 C325 1.399 . S
C325 C324 1.399 . S
C325 C326 1.396 . S
C325 C328 1.453 . S
C325 C329 1.684 . S
C326 C307 1.723 . S
C326 C325 1.396 . S
C326 C327 1.394 1_655 S
C327 C323 1.397 . S
C327 C326 1.394 1_455 S
C327 C337 1.723 . S
C328 C325 1.453 . S
C328 H352 0.982 . S
C328 H353 0.979 . S
C328 H354 0.977 . S
C329 C325 1.684 . S
C329 H355 0.979 . S
C329 H356 0.980 . S
C329 H357 0.983 . S
C330 H306 0.948 . S
C330 C331 1.391 . S
C330 C335 1.391 . S
C331 C330 1.391 . S
C331 C332 1.391 . S
C332 H309 0.947 . S
C332 C331 1.391 . S
C332 C333 1.392 . S
C333 H310 0.948 . S
C333 C332 1.392 . S
C333 C334 1.419 . S
C334 C333 1.419 . S
C334 C335 1.391 . S
C334 C338 1.397 . S
C335 C330 1.391 . S
C335 C334 1.391 . S
C335 C336 1.399 . S
C336 C335 1.399 . S
C336 C337 1.396 . S
C336 C339 1.453 . S
C336 C340 1.684 . S
C337 C327 1.723 . S
C337 C336 1.396 . S
C337 C338 1.394 . S
C338 C308 1.723 1_455 S
C338 C334 1.397 . S
C338 C337 1.394 . S
C339 H311 0.982 . S
C339 H315 0.979 . S
C339 H316 0.977 . S
C339 C336 1.453 . S
C340 H312 0.979 . S
C340 H313 0.980 . S
C340 H314 0.983 . S
C340 C336 1.684 . S
H341 C359 0.948 . S
H342 C300 0.948 . S
H343 C318 0.979 . S
H344 C318 0.980 . S
H345 C318 0.983 . S
H346 C317 0.982 1_455 S
H347 C317 0.979 . S
H348 C317 0.977 1_455 S
H349 C319 0.948 . S
H350 C321 0.947 . S
H351 C322 0.948 . S
H352 C328 0.982 . S
H353 C328 0.979 . S
H354 C328 0.977 . S
H355 C329 0.979 . S
H356 C329 0.980 . S
H357 C329 0.983 . S
H358 C302 0.947 . S
C359 C302 1.392 . S
C359 C303 1.419 . S
C359 H341 0.948 . S
C360 C361 1.391 . S
C360 C364 1.391 . S
C360 H402 0.948 . S
C361 C360 1.391 . S
C361 C362 1.391 . S
C362 C361 1.391 . S
C362 H418 0.947 . S
C362 C419 1.392 . S
C363 C364 1.391 . S
C363 C367 1.397 . S
C363 C419 1.419 . S
C364 C360 1.391 . S
C364 C363 1.391 . S
C364 C365 1.399 . S
C365 C364 1.399 . S
C365 C368 1.396 . S
C365 C377 1.453 1_565 S
C365 C378 1.684 . S
H366 C390 0.948 . S
C367 C363 1.397 . S
C367 C368 1.394 . S
C367 C386 1.723 . S
C368 C365 1.396 . S
C368 C367 1.394 . S
C368 C398 1.723 1_565 S
H369 C392 0.947 . S
H370 C393 0.948 . S
H371 C399 0.982 . S
H372 C400 0.979 . S
H373 C400 0.980 . S
H374 C400 0.983 . S
H375 C399 0.979 . S
H376 C399 0.977 . S
C377 C365 1.453 1_545 S
C377 H406 0.982 . S
C377 H407 0.979 1_545 S
C377 H408 0.977 . S
C378 C365 1.684 . S
C378 H403 0.979 . S
C378 H404 1.011 . S
C378 H405 0.983 . S
C379 C380 1.391 . S
C379 C384 1.391 . S
C379 H409 0.948 . S
C380 C379 1.391 . S
C380 C381 1.391 1_565 S
C381 C380 1.391 1_545 S
C381 C382 1.392 . S
C381 H410 0.947 . S
C382 C381 1.392 . S
C382 C383 1.419 . S
C382 H411 0.948 . S
C383 C382 1.419 . S
C383 C384 1.391 1_545 S
C383 C387 1.397 . S
C384 C379 1.391 . S
C384 C383 1.391 1_565 S
C384 C385 1.399 . S
C385 C384 1.399 . S
C385 C386 1.396 . S
C385 C388 1.453 . S
C385 C389 1.684 . S
C386 C367 1.723 . S
C386 C385 1.396 . S
C386 C387 1.394 1_565 S
C387 C383 1.397 . S
C387 C386 1.394 1_545 S
C387 C397 1.723 . S
C388 C385 1.453 . S
C388 H412 0.982 . S
C388 H413 0.979 . S
C388 H414 0.977 . S
C389 C385 1.684 . S
C389 H415 0.979 . S
C389 H416 0.980 . S
C389 H417 0.983 . S
C390 H366 0.948 . S
C390 C391 1.391 . S
C390 C395 1.391 . S
C391 C390 1.391 . S
C391 C392 1.391 . S
C392 H369 0.947 . S
C392 C391 1.391 . S
C392 C393 1.392 . S
C393 H370 0.948 . S
C393 C392 1.392 . S
C393 C394 1.419 . S
C394 C393 1.419 . S
C394 C395 1.391 . S
C394 C398 1.397 . S
C395 C390 1.391 . S
C395 C394 1.391 . S
C395 C396 1.399 . S
C396 C395 1.399 . S
C396 C397 1.396 . S
C396 C399 1.453 . S
C396 C400 1.684 . S
C397 C387 1.723 . S
C397 C396 1.396 . S
C397 C398 1.394 . S
C398 C368 1.723 1_545 S
C398 C394 1.397 . S
C398 C397 1.394 . S
C399 H371 0.982 . S
C399 H375 0.979 . S
C399 H376 0.977 . S
C399 C396 1.453 . S
C400 H372 0.979 . S
C400 H373 0.980 . S
C400 H374 0.983 . S
C400 C396 1.684 . S
H401 C419 0.948 . S
H402 C360 0.948 . S
H403 C378 0.979 . S
H404 C378 1.011 . S
H405 C378 0.983 . S
H406 C377 0.982 . S
H407 C377 0.979 1_565 S
H408 C377 0.977 . S
H409 C379 0.948 . S
H410 C381 0.947 . S
H411 C382 0.948 . S
H412 C388 0.982 . S
H413 C388 0.979 . S
H414 C388 0.977 . S
H415 C389 0.979 . S
H416 C389 0.980 . S
H417 C389 0.983 . S
H418 C362 0.947 . S
C419 C362 1.392 . S
C419 C363 1.419 . S
C419 H401 0.948 . S
C420 C421 1.391 . S
C420 C424 1.391 . S
C420 H462 0.948 . S
C421 C420 1.391 . S
C421 C422 1.391 . S
C422 C421 1.391 . S
C422 H478 0.947 . S
C422 C479 1.392 . S
C423 C424 1.391 . S
C423 C427 1.397 . S
C423 C479 1.419 . S
C424 C420 1.391 . S
C424 C423 1.391 . S
C424 C425 1.399 . S
C425 C424 1.399 . S
C425 C428 1.396 . S
C425 C437 1.453 . S
C425 C438 1.684 . S
H426 C450 0.948 . S
C427 C423 1.397 . S
C427 C428 1.394 . S
C427 C446 1.723 . S
C428 C425 1.396 . S
C428 C427 1.394 . S
C428 C458 1.723 . S
H429 C452 0.947 . S
H430 C453 0.948 . S
H431 C459 0.982 . S
H432 C460 0.979 . S
H433 C460 0.980 . S
H434 C460 0.983 . S
H435 C459 0.979 . S
H436 C459 0.977 . S
C437 C425 1.453 . S
C437 H466 0.982 . S
C437 H467 0.979 . S
C437 H468 0.977 . S
C438 C425 1.684 . S
C438 H463 0.979 . S
C438 H464 0.980 . S
C438 H465 0.983 . S
C439 C440 1.391 1_554 S
C439 C444 1.391 . S
C439 H469 0.948 1_554 S
C440 C439 1.391 1_556 S
C440 C441 1.391 . S
C441 C440 1.391 . S
C441 C442 1.392 1_556 S
C441 H470 0.947 . S
C442 C441 1.392 1_554 S
C442 C443 1.419 . S
C442 H471 0.948 . S
C443 C442 1.419 . S
C443 C444 1.391 . S
C443 C447 1.397 . S
C444 C439 1.391 . S
C444 C443 1.391 . S
C444 C445 1.399 . S
C445 C444 1.399 . S
C445 C446 1.396 . S
C445 C448 1.453 . S
C445 C449 1.684 . S
C446 C427 1.723 . S
C446 C445 1.396 . S
C446 C447 1.394 . S
C447 C443 1.397 . S
C447 C446 1.394 . S
C447 C457 1.723 . S
C448 C445 1.453 . S
C448 H472 0.982 . S
C448 H473 0.979 . S
C448 H474 0.977 . S
C449 C445 1.684 . S
C449 H475 0.979 . S
C449 H476 0.980 . S
C449 H477 0.983 . S
C450 H426 0.948 . S
C450 C451 1.391 . S
C450 C455 1.391 . S
C451 C450 1.391 . S
C451 C452 1.391 . S
C452 H429 0.947 . S
C452 C451 1.391 . S
C452 C453 1.392 . S
C453 H430 0.948 . S
C453 C452 1.392 . S
C453 C454 1.419 . S
C454 C453 1.419 . S
C454 C455 1.391 . S
C454 C458 1.397 . S
C455 C450 1.391 . S
C455 C454 1.391 . S
C455 C456 1.399 . S
C456 C455 1.399 . S
C456 C457 1.396 . S
C456 C459 1.453 . S
C456 C460 1.684 . S
C457 C447 1.723 . S
C457 C456 1.396 . S
C457 C458 1.394 . S
C458 C428 1.723 . S
C458 C454 1.397 . S
C458 C457 1.394 . S
C459 H431 0.982 . S
C459 H435 0.979 . S
C459 H436 0.977 . S
C459 C456 1.453 . S
C460 H432 0.979 . S
C460 H433 0.980 . S
C460 H434 0.983 . S
C460 C456 1.684 . S
H461 C479 0.948 . S
H462 C420 0.948 . S
H463 C438 0.979 . S
H464 C438 0.980 . S
H465 C438 0.983 . S
H466 C437 0.982 . S
H467 C437 0.979 . S
H468 C437 0.977 . S
H469 C439 0.948 1_556 S
H470 C441 0.947 . S
H471 C442 0.948 . S
H472 C448 0.982 . S
H473 C448 0.979 . S
H474 C448 0.977 . S
H475 C449 0.979 . S
H476 C449 0.980 . S
H477 C449 0.983 . S
H478 C422 0.947 . S
C479 C422 1.392 . S
C479 C423 1.419 . S
C479 H461 0.948 . S
H480 C486 0.930 . S
H481 C489 0.930 . S
H482 C490 0.930 . S
H483 C491 0.930 . S
H484 C494 0.930 . S
H485 C495 0.930 . S
C486 H480 0.930 . S
C486 C487 1.355 . S
C486 C488 1.415 . S
C487 C486 1.355 . S
C487 C489 1.419 . S
C488 C486 1.415 . S
C488 C493 1.425 . S
C488 C495 1.409 . S
C489 H481 0.930 . S
C489 C487 1.419 . S
C489 C490 1.362 . S
C490 H482 0.930 . S
C490 C489 1.362 . S
C490 C493 1.409 . S
C491 H483 0.930 . S
C491 C492 1.355 . S
C491 C493 1.415 . S
C492 C491 1.355 . S
C492 C494 1.419 . S
C493 C488 1.425 . S
C493 C490 1.409 . S
C493 C491 1.415 . S
C494 H484 0.930 . S
C494 C492 1.419 . S
C494 C495 1.362 . S
C495 H485 0.930 . S
C495 C488 1.409 . S
C495 C494 1.362 . S
H496 C502 0.930 . S
H497 C505 0.930 . S
H498 C506 0.930 . S
H499 C507 0.930 . S
H500 C510 0.930 . S
H501 C511 0.930 . S
C502 H496 0.930 . S
C502 C503 1.355 . S
C502 C504 1.415 . S
C503 C502 1.355 . S
C503 C505 1.419 . S
C504 C502 1.415 . S
C504 C509 1.425 . S
C504 C511 1.409 . S
C505 H497 0.930 . S
C505 C503 1.419 . S
C505 C506 1.362 . S
C506 H498 0.930 . S
C506 C505 1.362 . S
C506 C509 1.409 . S
C507 H499 0.930 . S
C507 C508 1.355 . S
C507 C509 1.415 . S
C508 C507 1.355 . S
C508 C510 1.419 . S
C509 C504 1.425 . S
C509 C506 1.409 . S
C509 C507 1.415 . S
C510 H500 0.930 . S
C510 C508 1.419 . S
C510 C511 1.362 . S
C511 H501 0.930 . S
C511 C504 1.409 . S
C511 C510 1.362 . S
H512 C518 0.930 . S
H513 C521 0.930 . S
H514 C522 0.930 . S
H515 C523 0.930 . S
H516 C526 0.930 . S
H517 C527 0.930 . S
C518 H512 0.930 . S
C518 C519 1.355 . S
C518 C520 1.415 . S
C519 C518 1.355 . S
C519 C521 1.419 . S
C520 C518 1.415 . S
C520 C525 1.425 . S
C520 C527 1.409 . S
C521 H513 0.930 . S
C521 C519 1.419 . S
C521 C522 1.362 . S
C522 H514 0.930 . S
C522 C521 1.362 . S
C522 C525 1.409 . S
C523 H515 0.930 . S
C523 C524 1.355 . S
C523 C525 1.415 . S
C524 C523 1.355 . S
C524 C526 1.419 . S
C525 C520 1.425 . S
C525 C522 1.409 . S
C525 C523 1.415 . S
C526 H516 0.930 . S
C526 C524 1.419 . S
C526 C527 1.362 . S
C527 H517 0.930 . S
C527 C520 1.409 . S
C527 C526 1.362 . S
H528 C534 0.930 . S
H529 C537 0.930 . S
H530 C538 0.930 . S
H531 C539 0.930 . S
H532 C542 0.930 . S
H533 C543 0.930 . S
C534 H528 0.930 . S
C534 C535 1.355 . S
C534 C536 1.415 . S
C535 C534 1.355 . S
C535 C537 1.419 . S
C536 C534 1.415 . S
C536 C541 1.425 . S
C536 C543 1.409 . S
C537 H529 0.930 . S
C537 C535 1.419 . S
C537 C538 1.362 . S
C538 H530 0.930 . S
C538 C537 1.362 . S
C538 C541 1.409 . S
C539 H531 0.930 . S
C539 C540 1.355 . S
C539 C541 1.415 . S
C540 C539 1.355 . S
C540 C542 1.419 . S
C541 C536 1.425 . S
C541 C538 1.409 . S
C541 C539 1.415 . S
C542 H532 0.930 . S
C542 C540 1.419 . S
C542 C543 1.362 . S
C543 H533 0.930 . S
C543 C536 1.409 . S
C543 C542 1.362 . S
H544 C550 0.930 . S
H545 C553 0.930 . S
H546 C554 0.930 . S
H547 C555 0.930 . S
H548 C558 0.930 . S
H549 C559 0.930 . S
C550 H544 0.930 . S
C550 C551 1.355 . S
C550 C552 1.415 . S
C551 C550 1.355 . S
C551 C553 1.419 . S
C552 C550 1.415 . S
C552 C557 1.425 . S
C552 C559 1.409 . S
C553 H545 0.930 . S
C553 C551 1.419 . S
C553 C554 1.362 . S
C554 H546 0.930 . S
C554 C553 1.362 . S
C554 C557 1.409 . S
C555 H547 0.930 . S
C555 C556 1.355 . S
C555 C557 1.415 . S
C556 C555 1.355 . S
C556 C558 1.419 . S
C557 C552 1.425 . S
C557 C554 1.409 . S
C557 C555 1.415 . S
C558 H548 0.930 . S
C558 C556 1.419 . S
C558 C559 1.362 . S
C559 H549 0.930 . S
C559 C552 1.409 . S
C559 C558 1.362 . S
H560 C566 0.930 . S
H561 C569 0.930 . S
H562 C570 0.930 . S
H563 C571 0.930 . S
H564 C574 0.930 . S
H565 C575 0.930 . S
C566 H560 0.930 . S
C566 C567 1.355 . S
C566 C568 1.415 . S
C567 C566 1.355 . S
C567 C569 1.419 . S
C568 C566 1.415 . S
C568 C573 1.425 . S
C568 C575 1.409 . S
C569 H561 0.930 . S
C569 C567 1.419 . S
C569 C570 1.362 . S
C570 H562 0.930 . S
C570 C569 1.362 . S
C570 C573 1.409 . S
C571 H563 0.930 . S
C571 C572 1.355 . S
C571 C573 1.415 . S
C572 C571 1.355 . S
C572 C574 1.419 . S
C573 C568 1.425 . S
C573 C570 1.409 . S
C573 C571 1.415 . S
C574 H564 0.930 . S
C574 C572 1.419 . S
C574 C575 1.362 . S
C575 H565 0.930 . S
C575 C568 1.409 . S
C575 C574 1.362 . S
H576 C582 0.930 . S
H577 C585 0.930 . S
H578 C586 0.930 . S
H579 C587 0.930 . S
H580 C590 0.930 . S
H581 C591 0.930 . S
C582 H576 0.930 . S
C582 C583 1.355 . S
C582 C584 1.415 . S
C583 C582 1.355 . S
C583 C585 1.419 . S
C584 C582 1.415 . S
C584 C589 1.425 . S
C584 C591 1.409 . S
C585 H577 0.930 . S
C585 C583 1.419 . S
C585 C586 1.362 . S
C586 H578 0.930 . S
C586 C585 1.362 . S
C586 C589 1.409 . S
C587 H579 0.930 . S
C587 C588 1.355 . S
C587 C589 1.415 . S
C588 C587 1.355 . S
C588 C590 1.419 . S
C589 C584 1.425 . S
C589 C586 1.409 . S
C589 C587 1.415 . S
C590 H580 0.930 . S
C590 C588 1.419 . S
C590 C591 1.362 . S
C591 H581 0.930 . S
C591 C584 1.409 . S
C591 C590 1.362 . S
H592 C598 0.930 . S
H593 C601 0.930 . S
H594 C602 0.930 . S
H595 C603 0.930 . S
H596 C606 0.930 . S
H597 C607 0.930 . S
C598 H592 0.930 . S
C598 C599 1.355 . S
C598 C600 1.415 . S
C599 C598 1.355 . S
C599 C601 1.419 . S
C600 C598 1.415 . S
C600 C605 1.425 . S
C600 C607 1.409 . S
C601 H593 0.930 . S
C601 C599 1.419 . S
C601 C602 1.362 . S
C602 H594 0.930 . S
C602 C601 1.362 . S
C602 C605 1.409 . S
C603 H595 0.930 . S
C603 C604 1.355 . S
C603 C605 1.415 . S
C604 C603 1.355 . S
C604 C606 1.419 . S
C605 C600 1.425 . S
C605 C602 1.409 . S
C605 C603 1.415 . S
C606 H596 0.930 . S
C606 C604 1.419 . S
C606 C607 1.362 . S
C607 H597 0.930 . S
C607 C600 1.409 . S
C607 C606 1.362 . S
H608 C614 0.930 . S
H609 C617 0.930 . S
H610 C618 0.930 . S
H611 C619 0.930 . S
H612 C622 0.930 . S
H613 C623 0.930 . S
C614 H608 0.930 . S
C614 C615 1.355 . S
C614 C616 1.415 . S
C615 C614 1.355 . S
C615 C617 1.419 . S
C616 C614 1.415 . S
C616 C621 1.425 . S
C616 C623 1.409 . S
C617 H609 0.930 . S
C617 C615 1.419 . S
C617 C618 1.362 . S
C618 H610 0.930 . S
C618 C617 1.362 . S
C618 C621 1.409 . S
C619 H611 0.930 . S
C619 C620 1.355 . S
C619 C621 1.415 . S
C620 C619 1.355 . S
C620 C622 1.419 . S
C621 C616 1.425 . S
C621 C618 1.409 . S
C621 C619 1.415 . S
C622 H612 0.930 . S
C622 C620 1.419 . S
C622 C623 1.362 . S
C623 H613 0.930 . S
C623 C616 1.409 . S
C623 C622 1.362 . S
H624 C630 0.930 . S
H625 C633 0.930 . S
H626 C634 0.930 . S
H627 C635 0.930 . S
H628 C638 0.930 . S
H629 C639 0.930 . S
C630 H624 0.930 . S
C630 C631 1.355 . S
C630 C632 1.415 . S
C631 C630 1.355 . S
C631 C633 1.419 . S
C632 C630 1.415 . S
C632 C637 1.425 . S
C632 C639 1.409 . S
C633 H625 0.930 . S
C633 C631 1.419 . S
C633 C634 1.362 . S
C634 H626 0.930 . S
C634 C633 1.362 . S
C634 C637 1.409 . S
C635 H627 0.930 . S
C635 C636 1.355 . S
C635 C637 1.415 . S
C636 C635 1.355 . S
C636 C638 1.419 . S
C637 C632 1.425 . S
C637 C634 1.409 . S
C637 C635 1.415 . S
C638 H628 0.930 . S
C638 C636 1.419 . S
C638 C639 1.362 . S
C639 H629 0.930 . S
C639 C632 1.409 . S
C639 C638 1.362 . S
H640 C646 0.930 . S
H641 C649 0.930 . S
H642 C650 0.930 . S
H643 C651 0.930 . S
H644 C654 0.930 . S
H645 C655 0.930 . S
C646 H640 0.930 . S
C646 C647 1.355 . S
C646 C648 1.415 . S
C647 C646 1.355 . S
C647 C649 1.419 . S
C648 C646 1.415 . S
C648 C653 1.425 . S
C648 C655 1.409 . S
C649 H641 0.930 . S
C649 C647 1.419 . S
C649 C650 1.362 . S
C650 H642 0.930 . S
C650 C649 1.362 . S
C650 C653 1.409 . S
C651 H643 0.930 . S
C651 C652 1.355 . S
C651 C653 1.415 . S
C652 C651 1.355 . S
C652 C654 1.419 . S
C653 C648 1.425 . S
C653 C650 1.409 . S
C653 C651 1.415 . S
C654 H644 0.930 . S
C654 C652 1.419 . S
C654 C655 1.362 . S
C655 H645 0.930 . S
C655 C648 1.409 . S
C655 C654 1.362 . S
H656 C662 0.930 . S
H657 C665 0.930 . S
H658 C666 0.930 . S
H659 C667 0.930 . S
H660 C670 0.930 . S
H661 C671 0.930 . S
C662 H656 0.930 . S
C662 C663 1.355 . S
C662 C664 1.415 . S
C663 C662 1.355 . S
C663 C665 1.419 . S
C664 C662 1.415 . S
C664 C669 1.425 . S
C664 C671 1.409 . S
C665 H657 0.930 . S
C665 C663 1.419 . S
C665 C666 1.362 . S
C666 H658 0.930 . S
C666 C665 1.362 . S
C666 C669 1.409 . S
C667 H659 0.930 . S
C667 C668 1.355 . S
C667 C669 1.415 . S
C668 C667 1.355 . S
C668 C670 1.419 . S
C669 C664 1.425 . S
C669 C666 1.409 . S
C669 C667 1.415 . S
C670 H660 0.930 . S
C670 C668 1.419 . S
C670 C671 1.362 . S
C671 H661 0.930 . S
C671 C664 1.409 . S
C671 C670 1.362 . S
H672 C678 0.930 . S
H673 C681 0.930 . S
H674 C682 0.930 . S
H675 C683 0.930 . S
H676 C686 0.930 . S
H677 C687 0.930 . S
C678 H672 0.930 . S
C678 C679 1.355 . S
C678 C680 1.415 . S
C679 C678 1.355 . S
C679 C681 1.419 . S
C680 C678 1.415 . S
C680 C685 1.425 . S
C680 C687 1.409 . S
C681 H673 0.930 . S
C681 C679 1.419 . S
C681 C682 1.362 . S
C682 H674 0.930 . S
C682 C681 1.362 . S
C682 C685 1.409 . S
C683 H675 0.930 . S
C683 C684 1.355 . S
C683 C685 1.415 . S
C684 C683 1.355 . S
C684 C686 1.419 . S
C685 C680 1.425 . S
C685 C682 1.409 . S
C685 C683 1.415 . S
C686 H676 0.930 . S
C686 C684 1.419 . S
C686 C687 1.362 . S
C687 H677 0.930 . S
C687 C680 1.409 . S
C687 C686 1.362 . S
H688 C694 0.930 . S
H689 C697 0.930 . S
H690 C698 0.930 . S
H691 C699 0.930 . S
H692 C702 0.930 . S
H693 C703 0.930 . S
C694 H688 0.930 . S
C694 C695 1.355 . S
C694 C696 1.415 . S
C695 C694 1.355 . S
C695 C697 1.419 . S
C696 C694 1.415 . S
C696 C701 1.425 . S
C696 C703 1.409 . S
C697 H689 0.930 . S
C697 C695 1.419 . S
C697 C698 1.362 . S
C698 H690 0.930 . S
C698 C697 1.362 . S
C698 C701 1.409 . S
C699 H691 0.930 . S
C699 C700 1.355 . S
C699 C701 1.415 . S
C700 C699 1.355 . S
C700 C702 1.419 . S
C701 C696 1.425 . S
C701 C698 1.409 . S
C701 C699 1.415 . S
C702 H692 0.930 . S
C702 C700 1.419 . S
C702 C703 1.362 . S
C703 H693 0.930 . S
C703 C696 1.409 . S
C703 C702 1.362 . S
H704 C710 0.930 . S
H705 C713 0.930 . S
H706 C714 0.930 . S
H707 C715 0.930 . S
H708 C718 0.930 . S
H709 C719 0.930 . S
C710 H704 0.930 . S
C710 C711 1.355 . S
C710 C712 1.415 . S
C711 C710 1.355 . S
C711 C713 1.419 . S
C712 C710 1.415 . S
C712 C717 1.425 . S
C712 C719 1.409 . S
C713 H705 0.930 . S
C713 C711 1.419 . S
C713 C714 1.362 . S
C714 H706 0.930 . S
C714 C713 1.362 . S
C714 C717 1.409 . S
C715 H707 0.930 . S
C715 C716 1.355 . S
C715 C717 1.415 . S
C716 C715 1.355 . S
C716 C718 1.419 . S
C717 C712 1.425 . S
C717 C714 1.409 . S
C717 C715 1.415 . S
C718 H708 0.930 . S
C718 C716 1.419 . S
C718 C719 1.362 . S
C719 H709 0.930 . S
C719 C712 1.409 . S
C719 C718 1.362 . S
H720 C726 0.930 . S
H721 C729 0.930 . S
H722 C730 0.930 . S
H723 C731 0.930 . S
H724 C734 0.930 . S
H725 C735 0.930 . S
C726 H720 0.930 . S
C726 C727 1.355 . S
C726 C728 1.415 . S
C727 C726 1.355 . S
C727 C729 1.419 . S
C728 C726 1.415 . S
C728 C733 1.425 . S
C728 C735 1.409 1_545 S
C729 H721 0.930 . S
C729 C727 1.419 . S
C729 C730 1.362 . S
C730 H722 0.930 . S
C730 C729 1.362 . S
C730 C733 1.409 . S
C731 H723 0.930 . S
C731 C732 1.355 1_545 S
C731 C733 1.415 . S
C732 C731 1.355 1_565 S
C732 C734 1.419 . S
C733 C728 1.425 . S
C733 C730 1.409 . S
C733 C731 1.415 . S
C734 H724 0.930 . S
C734 C732 1.419 . S
C734 C735 1.362 . S
C735 H725 0.930 . S
C735 C728 1.409 1_565 S
C735 C734 1.362 . S
H736 C742 0.930 . S
H737 C745 0.930 . S
H738 C746 0.930 . S
H739 C747 0.930 . S
H740 C750 0.930 . S
H741 C751 0.930 . S
C742 H736 0.930 . S
C742 C743 1.355 . S
C742 C744 1.415 . S
C743 C742 1.355 . S
C743 C745 1.419 . S
C744 C742 1.415 . S
C744 C749 1.425 . S
C744 C751 1.409 . S
C745 H737 0.930 . S
C745 C743 1.419 . S
C745 C746 1.362 . S
C746 H738 0.930 . S
C746 C745 1.362 . S
C746 C749 1.409 . S
C747 H739 0.930 . S
C747 C748 1.355 . S
C747 C749 1.415 . S
C748 C747 1.355 . S
C748 C750 1.419 . S
C749 C744 1.425 . S
C749 C746 1.409 . S
C749 C747 1.415 . S
C750 H740 0.930 . S
C750 C748 1.419 . S
C750 C751 1.362 . S
C751 H741 0.930 . S
C751 C744 1.409 . S
C751 C750 1.362 . S
H752 C758 0.935 . S
H753 C761 0.930 . S
H754 C762 0.930 . S
H755 C763 0.930 . S
H756 C766 0.930 . S
H757 C767 0.930 . S
C758 H752 0.935 . S
C758 C759 1.349 1_655 S
C758 C760 1.415 . S
C759 C758 1.349 1_455 S
C759 C761 1.419 . S
C760 C758 1.415 . S
C760 C765 1.425 1_655 S
C760 C767 1.409 . S
C761 H753 0.930 . S
C761 C759 1.419 . S
C761 C762 1.362 . S
C762 H754 0.930 . S
C762 C761 1.362 . S
C762 C765 1.409 . S
C763 H755 0.930 . S
C763 C764 1.355 1_455 S
C763 C765 1.415 . S
C764 C763 1.355 1_655 S
C764 C766 1.419 . S
C765 C760 1.425 1_455 S
C765 C762 1.409 . S
C765 C763 1.415 . S
C766 H756 0.930 . S
C766 C764 1.419 . S
C766 C767 1.362 . S
C767 H757 0.930 . S
C767 C760 1.409 . S
C767 C766 1.362 . S
C487 C25 0.551 . S
C492 C451 0.497 . S
C503 C65 0.496 . S
C508 C301 0.385 . S
C519 C105 0.600 . S
C524 C361 0.380 . S
C535 C4 0.421 . S
C540 C421 0.476 . S
C556 C331 0.393 . S
C551 C44 0.403 . S
C572 C391 0.507 . S
C567 C84 0.548 . S
C583 C60 2.957 . S
C588 C181 2.806 . S
C599 C100 3.125 . S
C604 C271 3.119 . S
C615 C31 3.146 . S
C620 C151 3.123 . S
C636 C211 3.135 . S
C631 C71 3.136 . S
C652 C241 2.836 . S
C647 C111 2.964 . S
C663 C20 2.956 . S
C668 C121 2.787 . S
C684 C260 1.793 1_554 S
C679 C2 1.728 . S
C695 C42 1.759 . S
C700 C140 1.767 . S
C711 C82 1.757 . S
C716 C200 1.770 . S
C732 C380 1.055 . S
C727 C63 1.079 . S
C748 C440 1.103 . S
C743 C103 1.099 . S
C759 C23 1.013 . S
C764 C320 1.056 1_655 S
