# Generated by pormake.
# Topology pyr, (3,6)-cn, num edge types: 1
# Building blocks:
#     Node 0, Type 0, BuildingBlock: KAKCAD_clean_linker_0, # of connection points: 3
#     Node 1, Type 0, BuildingBlock: KAKCAD_clean_linker_0, # of connection points: 3
#     Node 2, Type 0, BuildingBlock: KAKCAD_clean_linker_0, # of connection points: 3
#     Node 3, Type 0, BuildingBlock: KAKCAD_clean_linker_0, # of connection points: 3
#     Node 4, Type 0, BuildingBlock: KAKCAD_clean_linker_0, # of connection points: 3
#     Node 5, Type 0, BuildingBlock: KAKCAD_clean_linker_0, # of connection points: 3
#     Node 6, Type 0, BuildingBlock: KAKCAD_clean_linker_0, # of connection points: 3
#     Node 7, Type 0, BuildingBlock: KAKCAD_clean_linker_0, # of connection points: 3
#     Node 8, Type 1, BuildingBlock: MIFKUJ_clean_sbu_0, # of connection points: 6
#     Node 9, Type 1, BuildingBlock: MIFKUJ_clean_sbu_0, # of connection points: 6
#     Node 10, Type 1, BuildingBlock: MIFKUJ_clean_sbu_0, # of connection points: 6
#     Node 11, Type 1, BuildingBlock: MIFKUJ_clean_sbu_0, # of connection points: 6
#     Edge 12, Type (0, 1), BuildingBlock: CIFDUS_clean_linker_0, # of connection points: 2
#     Edge 13, Type (0, 1), BuildingBlock: CIFDUS_clean_linker_0, # of connection points: 2
#     Edge 14, Type (0, 1), BuildingBlock: CIFDUS_clean_linker_0, # of connection points: 2
#     Edge 15, Type (0, 1), BuildingBlock: CIFDUS_clean_linker_0, # of connection points: 2
#     Edge 16, Type (0, 1), BuildingBlock: CIFDUS_clean_linker_0, # of connection points: 2
#     Edge 17, Type (0, 1), BuildingBlock: CIFDUS_clean_linker_0, # of connection points: 2
#     Edge 18, Type (0, 1), BuildingBlock: CIFDUS_clean_linker_0, # of connection points: 2
#     Edge 19, Type (0, 1), BuildingBlock: CIFDUS_clean_linker_0, # of connection points: 2
#     Edge 20, Type (0, 1), BuildingBlock: CIFDUS_clean_linker_0, # of connection points: 2
#     Edge 21, Type (0, 1), BuildingBlock: CIFDUS_clean_linker_0, # of connection points: 2
#     Edge 22, Type (0, 1), BuildingBlock: CIFDUS_clean_linker_0, # of connection points: 2
#     Edge 23, Type (0, 1), BuildingBlock: CIFDUS_clean_linker_0, # of connection points: 2
#     Edge 24, Type (0, 1), BuildingBlock: CIFDUS_clean_linker_0, # of connection points: 2
#     Edge 25, Type (0, 1), BuildingBlock: CIFDUS_clean_linker_0, # of connection points: 2
#     Edge 26, Type (0, 1), BuildingBlock: CIFDUS_clean_linker_0, # of connection points: 2
#     Edge 27, Type (0, 1), BuildingBlock: CIFDUS_clean_linker_0, # of connection points: 2
#     Edge 28, Type (0, 1), BuildingBlock: CIFDUS_clean_linker_0, # of connection points: 2
#     Edge 29, Type (0, 1), BuildingBlock: CIFDUS_clean_linker_0, # of connection points: 2
#     Edge 30, Type (0, 1), BuildingBlock: CIFDUS_clean_linker_0, # of connection points: 2
#     Edge 31, Type (0, 1), BuildingBlock: CIFDUS_clean_linker_0, # of connection points: 2
#     Edge 32, Type (0, 1), BuildingBlock: CIFDUS_clean_linker_0, # of connection points: 2
#     Edge 33, Type (0, 1), BuildingBlock: CIFDUS_clean_linker_0, # of connection points: 2
#     Edge 34, Type (0, 1), BuildingBlock: CIFDUS_clean_linker_0, # of connection points: 2
#     Edge 35, Type (0, 1), BuildingBlock: CIFDUS_clean_linker_0, # of connection points: 2
# Relax obj value: 0.028
# Max RMSD: 0.080
# Mean RMSD: 0.047
data_MOF--net-pyr--node1-MIFKUJ_clean_sbu_0--node2-KAKCAD_clean_linker_0--edge1-CIFDUS_clean_linker_0
_symmetry_space_group_name_H-M    P1
_symmetry_Int_Tables_number       1
_symmetry_cell_setting            triclinic
loop_
_symmetry_equiv_pos_as_xyz
'x, y, z'
_cell_length_a     43.780088
_cell_length_b     39.216199
_cell_length_c     41.934045
_cell_angle_alpha  86.562849
_cell_angle_beta   88.060504
_cell_angle_gamma 96.01934
loop_
_atom_site_label
_atom_site_type_symbol
_atom_site_fract_x
_atom_site_fract_y
_atom_site_fract_z
_atom_type_partial_charge
C0 C 0.11338 0.12354 0.27765 0.0
C1 C 0.12725 0.11722 0.30688 0.0
C2 C 0.13071 0.13935 0.2513 0.0
C3 C 0.16235 0.14876 0.25345 0.0
C4 C 0.1765 0.14169 0.28227 0.0
C5 C 0.15908 0.12626 0.30882 0.0
C6 C 0.18023 0.16683 0.22583 0.0
C7 C 0.16934 0.19545 0.21009 0.0
C8 C 0.18558 0.21252 0.18341 0.0
C9 C 0.21281 0.20052 0.17232 0.0
C10 C 0.22378 0.17157 0.18748 0.0
C11 C 0.20761 0.15514 0.21462 0.0
C12 C 0.25124 0.15773 0.17384 0.0
C13 C 0.25468 0.15535 0.14064 0.0
C14 C 0.27408 0.14682 0.19362 0.0
C15 C 0.30005 0.1342 0.18035 0.0
C16 C 0.30359 0.13223 0.14707 0.0
C17 C 0.1737 0.24226 0.16647 0.0
C18 C 0.14252 0.24097 0.15922 0.0
C19 C 0.19359 0.27176 0.15673 0.0
C20 C 0.18259 0.2993 0.13973 0.0
C21 C 0.1515 0.29783 0.132 0.0
C22 C 0.13154 0.26846 0.14211 0.0
C23 C 0.28054 0.14278 0.12742 0.0
H24 H 0.0891 0.11621 0.27504 0.0
H25 H 0.11939 0.14413 0.22914 0.0
H26 H 0.20087 0.14897 0.2845 0.0
H27 H 0.17045 0.12218 0.33105 0.0
H28 H 0.14838 0.20474 0.21895 0.0
H29 H 0.21556 0.13244 0.22622 0.0
H30 H 0.22521 0.21341 0.15142 0.0
H31 H 0.23714 0.16284 0.12484 0.0
H32 H 0.27212 0.14858 0.21927 0.0
H33 H 0.31758 0.12648 0.19606 0.0
H34 H 0.12678 0.21834 0.16609 0.0
H35 H 0.21764 0.2736 0.16239 0.0
H36 H 0.28228 0.14088 0.10177 0.0
H37 H 0.10757 0.26635 0.13614 0.0
H38 H 0.19842 0.32183 0.13276 0.0
C39 C 0.36548 0.88084 0.80403 0.0
C40 C 0.39717 0.88018 0.80772 0.0
C41 C 0.35236 0.87246 0.77511 0.0
C42 C 0.37081 0.86371 0.7493 0.0
C43 C 0.40276 0.8649 0.75273 0.0
C44 C 0.41571 0.87272 0.78167 0.0
C45 C 0.35694 0.85157 0.71948 0.0
C46 C 0.33184 0.8663 0.70633 0.0
C47 C 0.31884 0.85439 0.67824 0.0
C48 C 0.33132 0.82745 0.66336 0.0
C49 C 0.3565 0.81268 0.676 0.0
C50 C 0.36889 0.82464 0.70414 0.0
C51 C 0.37 0.7847 0.65993 0.0
C52 C 0.35104 0.75718 0.64875 0.0
C53 C 0.40207 0.78519 0.65599 0.0
C54 C 0.41491 0.75868 0.64131 0.0
C55 C 0.39598 0.73098 0.63031 0.0
C56 C 0.29232 0.86998 0.66423 0.0
C57 C 0.26807 0.87874 0.68391 0.0
C58 C 0.29074 0.87549 0.6309 0.0
C59 C 0.26535 0.88881 0.61756 0.0
C60 C 0.24092 0.89724 0.63718 0.0
C61 C 0.24269 0.89224 0.67055 0.0
C62 C 0.36388 0.73057 0.6342 0.0
H63 H 0.35076 0.88652 0.82388 0.0
H64 H 0.32767 0.87161 0.7734 0.0
H65 H 0.41782 0.85933 0.73314 0.0
H66 H 0.4403 0.87264 0.78381 0.0
H67 H 0.32291 0.88761 0.71751 0.0
H68 H 0.38754 0.81226 0.71453 0.0
H69 H 0.32148 0.81794 0.64182 0.0
H70 H 0.32627 0.75587 0.65184 0.0
H71 H 0.41725 0.80632 0.66398 0.0
H72 H 0.43968 0.76009 0.63825 0.0
H73 H 0.2684 0.87459 0.70966 0.0
H74 H 0.30919 0.86953 0.61502 0.0
H75 H 0.34863 0.70935 0.62651 0.0
H76 H 0.2245 0.89887 0.68641 0.0
H77 H 0.26467 0.89195 0.59177 0.0
C78 C 0.73187 0.42223 0.86693 0.0
C79 C 0.75598 0.40208 0.87334 0.0
C80 C 0.70622 0.40887 0.85083 0.0
C81 C 0.70409 0.37501 0.84127 0.0
C82 C 0.72833 0.35505 0.84746 0.0
C83 C 0.75399 0.36844 0.86324 0.0
C84 C 0.67636 0.35971 0.82586 0.0
C85 C 0.66374 0.37706 0.80002 0.0
C86 C 0.63868 0.36113 0.78438 0.0
C87 C 0.62589 0.32787 0.79525 0.0
C88 C 0.63784 0.31056 0.82155 0.0
C89 C 0.66298 0.32682 0.83667 0.0
C90 C 0.62426 0.27565 0.83367 0.0
C91 C 0.59223 0.2672 0.83633 0.0
C92 C 0.6434 0.25104 0.84433 0.0
C93 C 0.63089 0.2194 0.85861 0.0
C94 C 0.59886 0.21128 0.86228 0.0
C95 C 0.62635 0.3787 0.75609 0.0
C96 C 0.61848 0.41242 0.75715 0.0
C97 C 0.6222 0.36163 0.72784 0.0
C98 C 0.61027 0.37785 0.70118 0.0
C99 C 0.60167 0.4114 0.70228 0.0
C100 C 0.60605 0.42851 0.73063 0.0
C101 C 0.57966 0.23533 0.85043 0.0
H102 H 0.73295 0.44835 0.87419 0.0
H103 H 0.68778 0.42473 0.84646 0.0
H104 H 0.72742 0.32896 0.84011 0.0
H105 H 0.7721 0.35223 0.86802 0.0
H106 H 0.67415 0.40235 0.7913 0.0
H107 H 0.67203 0.31405 0.85739 0.0
H108 H 0.60669 0.31547 0.78312 0.0
H109 H 0.57683 0.2856 0.82847 0.0
H110 H 0.66818 0.25644 0.84212 0.0
H111 H 0.64645 0.20178 0.86771 0.0
H112 H 0.6213 0.42605 0.77876 0.0
H113 H 0.62854 0.33579 0.72624 0.0
H114 H 0.5549 0.22973 0.85238 0.0
H115 H 0.59936 0.45412 0.73262 0.0
H116 H 0.60805 0.3641 0.67961 0.0
C117 C 0.85621 0.6034 0.20655 0.0
C118 C 0.88671 0.59526 0.20311 0.0
C119 C 0.84572 0.61689 0.23455 0.0
C120 C 0.86554 0.62326 0.25965 0.0
C121 C 0.89618 0.61611 0.25609 0.0
C122 C 0.90657 0.60199 0.22832 0.0
C123 C 0.85388 0.63606 0.28992 0.0
C124 C 0.82713 0.61917 0.30567 0.0
C125 C 0.81592 0.63045 0.33455 0.0
C126 C 0.83155 0.65926 0.34734 0.0
C127 C 0.85774 0.67741 0.33152 0.0
C128 C 0.86913 0.66513 0.30301 0.0
C129 C 0.87211 0.70968 0.34458 0.0
C130 C 0.85348 0.73188 0.35924 0.0
C131 C 0.90417 0.71837 0.3433 0.0
C132 C 0.91717 0.74812 0.35689 0.0
C133 C 0.89845 0.76979 0.37229 0.0
C134 C 0.78729 0.61312 0.35104 0.0
C135 C 0.76114 0.60395 0.33364 0.0
C136 C 0.78541 0.60726 0.38452 0.0
C137 C 0.75784 0.59332 0.40028 0.0
C138 C 0.73145 0.58498 0.38295 0.0
C139 C 0.73353 0.5901 0.34941 0.0
C140 C 0.86641 0.76109 0.37322 0.0
H141 H 0.84033 0.59951 0.18755 0.0
H142 H 0.82205 0.62252 0.23653 0.0
H143 H 0.91186 0.62047 0.27523 0.0
H144 H 0.93002 0.59561 0.22704 0.0
H145 H 0.81541 0.59671 0.29576 0.0
H146 H 0.88913 0.6788 0.29031 0.0
H147 H 0.82284 0.66797 0.36958 0.0
H148 H 0.82867 0.72671 0.3601 0.0
H149 H 0.9193 0.7019 0.33233 0.0
H150 H 0.9419 0.75409 0.35525 0.0
H151 H 0.76174 0.60835 0.30786 0.0
H152 H 0.80524 0.6137 0.39861 0.0
H153 H 0.85106 0.7765 0.38528 0.0
H154 H 0.71377 0.58346 0.33529 0.0
H155 H 0.75702 0.58986 0.42612 0.0
C156 C 0.86151 0.85385 0.69718 0.0
C157 C 0.86653 0.88978 0.69213 0.0
C158 C 0.84603 0.8388 0.72502 0.0
C159 C 0.83534 0.85939 0.7484 0.0
C160 C 0.84031 0.89533 0.74327 0.0
C161 C 0.85568 0.91035 0.71541 0.0
C162 C 0.81917 0.84352 0.77815 0.0
C163 C 0.82987 0.81498 0.79446 0.0
C164 C 0.81507 0.80043 0.82309 0.0
C165 C 0.78894 0.81422 0.83491 0.0
C166 C 0.77843 0.84298 0.81923 0.0
C167 C 0.79351 0.85752 0.79091 0.0
C168 C 0.75286 0.85902 0.83375 0.0
C169 C 0.72437 0.83975 0.84102 0.0
C170 C 0.75754 0.8932 0.84223 0.0
C171 C 0.7343 0.90763 0.85859 0.0
C172 C 0.70589 0.88829 0.86607 0.0
C173 C 0.82758 0.77197 0.84161 0.0
C174 C 0.83878 0.74466 0.8262 0.0
C175 C 0.82825 0.77199 0.8751 0.0
C176 C 0.83912 0.74495 0.89286 0.0
C177 C 0.8498 0.71739 0.87754 0.0
C178 C 0.84987 0.71763 0.84402 0.0
C179 C 0.70088 0.85445 0.85676 0.0
H180 H 0.86934 0.83738 0.67946 0.0
H181 H 0.84217 0.81104 0.7281 0.0
H182 H 0.83284 0.91191 0.76107 0.0
H183 H 0.85967 0.93811 0.71241 0.0
H184 H 0.85046 0.805 0.78555 0.0
H185 H 0.78501 0.87959 0.77874 0.0
H186 H 0.77714 0.80316 0.85687 0.0
H187 H 0.72041 0.81331 0.83469 0.0
H188 H 0.77949 0.90834 0.83705 0.0
H189 H 0.73849 0.93385 0.86549 0.0
H190 H 0.83837 0.74381 0.80045 0.0
H191 H 0.82054 0.79306 0.88767 0.0
H192 H 0.67909 0.83914 0.86244 0.0
H193 H 0.8578 0.69653 0.83166 0.0
H194 H 0.83932 0.74568 0.91864 0.0
C195 C 0.66503 0.10786 0.21334 0.0
C196 C 0.653 0.13143 0.19178 0.0
C197 C 0.67768 0.11863 0.24179 0.0
C198 C 0.67857 0.15319 0.24924 0.0
C199 C 0.66759 0.17688 0.22711 0.0
C200 C 0.65483 0.16614 0.19891 0.0
C201 C 0.68963 0.16467 0.28042 0.0
C202 C 0.71585 0.15277 0.29386 0.0
C203 C 0.72677 0.1652 0.3226 0.0
C204 C 0.71107 0.18937 0.33813 0.0
C205 C 0.6845 0.20098 0.32533 0.0
C206 C 0.67393 0.1883 0.29667 0.0
C207 C 0.66761 0.22644 0.34154 0.0
C208 C 0.66156 0.22324 0.37477 0.0
C209 C 0.65652 0.2536 0.32354 0.0
C210 C 0.6393 0.27666 0.3383 0.0
C211 C 0.63274 0.27317 0.37144 0.0
C212 C 0.75501 0.15351 0.33607 0.0
C213 C 0.75759 0.11831 0.34191 0.0
C214 C 0.77956 0.17753 0.34315 0.0
C215 C 0.80641 0.16653 0.35548 0.0
C216 C 0.80889 0.13135 0.3616 0.0
C217 C 0.78418 0.10734 0.3549 0.0
C218 C 0.64427 0.24635 0.38957 0.0
H219 H 0.66437 0.081 0.20843 0.0
H220 H 0.68589 0.09971 0.25834 0.0
H221 H 0.66845 0.20383 0.23178 0.0
H222 H 0.64548 0.18503 0.18322 0.0
H223 H 0.72839 0.13478 0.28149 0.0
H224 H 0.65298 0.19653 0.28717 0.0
H225 H 0.71964 0.19919 0.36013 0.0
H226 H 0.66952 0.20237 0.38922 0.0
H227 H 0.66127 0.25712 0.29797 0.0
H228 H 0.63135 0.29745 0.32374 0.0
H229 H 0.7389 0.09934 0.33675 0.0
H230 H 0.77812 0.20481 0.3387 0.0
H231 H 0.63938 0.24277 0.41511 0.0
H232 H 0.78567 0.08006 0.35925 0.0
H233 H 0.82513 0.18551 0.36054 0.0
C234 C 0.24709 0.59194 0.15702 0.0
C235 C 0.24477 0.59528 0.12359 0.0
C236 C 0.2745 0.6032 0.17126 0.0
C237 C 0.30014 0.61804 0.15236 0.0
C238 C 0.29801 0.62052 0.11892 0.0
C239 C 0.27067 0.60943 0.10474 0.0
C240 C 0.32872 0.63227 0.16716 0.0
C241 C 0.34099 0.61475 0.19312 0.0
C242 C 0.3686 0.62814 0.20618 0.0
C243 C 0.38399 0.65935 0.1928 0.0
C244 C 0.37186 0.6773 0.16699 0.0
C245 C 0.344 0.66374 0.15481 0.0
C246 C 0.38771 0.71032 0.15247 0.0
C247 C 0.40179 0.73535 0.17152 0.0
C248 C 0.3873 0.71776 0.11923 0.0
C249 C 0.39897 0.74998 0.10564 0.0
C250 C 0.41195 0.77529 0.12481 0.0
C251 C 0.38146 0.60941 0.23363 0.0
C252 C 0.36226 0.5953 0.25971 0.0
C253 C 0.41303 0.60567 0.23405 0.0
C254 C 0.42515 0.58833 0.26001 0.0
C255 C 0.406 0.5745 0.28623 0.0
C256 C 0.37441 0.57814 0.28577 0.0
C257 C 0.41401 0.76754 0.15774 0.0
H258 H 0.22771 0.58067 0.17222 0.0
H259 H 0.27536 0.60105 0.19707 0.0
H260 H 0.31749 0.63134 0.10362 0.0
H261 H 0.26968 0.61268 0.07898 0.0
H262 H 0.32952 0.59023 0.2026 0.0
H263 H 0.33377 0.67808 0.13582 0.0
H264 H 0.40539 0.66965 0.20254 0.0
H265 H 0.40236 0.7306 0.19719 0.0
H266 H 0.37747 0.69882 0.10367 0.0
H267 H 0.39758 0.75529 0.0801 0.0
H268 H 0.33787 0.59798 0.2602 0.0
H269 H 0.42837 0.61596 0.21418 0.0
H270 H 0.42394 0.78681 0.17292 0.0
H271 H 0.35902 0.56753 0.3055 0.0
H272 H 0.44963 0.58624 0.25977 0.0
C273 C 0.14955 0.21416 0.67314 0.0
C274 C 0.12089 0.21099 0.65884 0.0
C275 C 0.1588 0.24285 0.68993 0.0
C276 C 0.1396 0.26908 0.69303 0.0
C277 C 0.11 0.26487 0.68086 0.0
C278 C 0.1007 0.23601 0.66384 0.0
C279 C 0.15224 0.30209 0.70554 0.0
C280 C 0.18059 0.31805 0.6927 0.0
C281 C 0.19391 0.34889 0.70393 0.0
C282 C 0.17879 0.36362 0.72884 0.0
C283 C 0.15046 0.348 0.74224 0.0
C284 C 0.13691 0.31752 0.73001 0.0
C285 C 0.13599 0.36324 0.76978 0.0
C286 C 0.15299 0.37002 0.79688 0.0
C287 C 0.1059 0.3725 0.76873 0.0
C288 C 0.09347 0.38937 0.79392 0.0
C289 C 0.1107 0.39682 0.82095 0.0
C290 C 0.22335 0.36575 0.68903 0.0
C291 C 0.24815 0.34652 0.68348 0.0
C292 C 0.22629 0.40073 0.67872 0.0
C293 C 0.25312 0.4159 0.66228 0.0
C294 C 0.27771 0.39651 0.65623 0.0
C295 C 0.27513 0.3618 0.66744 0.0
C296 C 0.14044 0.38625 0.82225 0.0
H297 H 0.16535 0.19495 0.67037 0.0
H298 H 0.18155 0.24517 0.69951 0.0
H299 H 0.09479 0.28478 0.68287 0.0
H300 H 0.07848 0.23425 0.65312 0.0
H301 H 0.19206 0.30675 0.67324 0.0
H302 H 0.11519 0.3052 0.74032 0.0
H303 H 0.18917 0.38722 0.73797 0.0
H304 H 0.17612 0.36274 0.79844 0.0
H305 H 0.0924 0.36771 0.74797 0.0
H306 H 0.07067 0.39736 0.79171 0.0
H307 H 0.24656 0.31955 0.69134 0.0
H308 H 0.20747 0.4161 0.68251 0.0
H309 H 0.1542 0.39047 0.84289 0.0
H310 H 0.29365 0.34621 0.66299 0.0
H311 H 0.2546 0.44279 0.65416 0.0
Zn312 Zn 0.04587 0.98804 0.53273 0.0
Zn313 Zn 0.97745 0.99771 0.48575 0.0
C314 C 0.06682 0.05101 0.55659 0.0
O315 O 0.09015 0.0441 0.53841 0.0
C316 C 0.93719 0.94391 0.4607 0.0
O317 O 0.9167 0.9634 0.47077 0.0
O318 O 0.08174 0.96645 0.55131 0.0
O319 O 0.00883 0.95321 0.54036 0.0
O320 O 0.97412 0.98952 0.53378 0.0
C321 C 0.07928 0.95055 0.57875 0.0
O322 O 0.05263 0.9472 0.59462 0.0
O323 O 0.04237 0.03024 0.55797 0.0
C324 C 0.94438 0.044 0.44619 0.0
O325 O 0.96752 0.0427 0.42568 0.0
O326 O 0.94456 0.02825 0.47358 0.0
O327 O 0.01721 0.01857 0.46374 0.0
O328 O 0.05882 0.0035 0.48754 0.0
O329 O 0.96545 0.95232 0.46559 0.0
C330 C 0.9828 0.96271 0.54764 0.0
C331 C 0.04615 0.01775 0.46422 0.0
Zn332 Zn 0.52634 0.9861 0.99336 0.0
Zn333 Zn 0.48467 0.02393 0.03392 0.0
C334 C 0.48136 0.94463 0.96155 0.0
O335 O 0.49705 0.9209 0.97441 0.0
C336 C 0.53594 0.0607 0.06386 0.0
O337 O 0.52862 0.0868 0.04565 0.0
O338 O 0.55971 0.96416 0.971 0.0
O339 O 0.54015 0.03642 0.98753 0.0
O340 O 0.4932 0.05108 0.99157 0.0
C341 C 0.5607 0.96567 0.9406 0.0
O342 O 0.54024 0.98154 0.925 0.0
O343 O 0.48852 0.97576 0.96764 0.0
C344 C 0.4411 0.03273 0.08382 0.0
O345 O 0.45346 0.00661 0.09725 0.0
O346 O 0.45076 0.04472 0.05607 0.0
O347 O 0.47115 0.97317 0.03521 0.0
O348 O 0.51911 0.96228 0.03738 0.0
O349 O 0.52094 0.03135 0.06221 0.0
C350 C 0.5206 0.05695 0.98016 0.0
C351 C 0.49088 0.95378 0.04488 0.0
Zn352 Zn 0.5188 0.46571 0.4756 0.0
Zn353 Zn 0.47469 0.51559 0.5262 0.0
C354 C 0.5591 0.52035 0.44323 0.0
O355 O 0.53641 0.51913 0.42351 0.0
C356 C 0.44134 0.47319 0.57774 0.0
O357 O 0.46584 0.48267 0.59359 0.0
O358 O 0.53387 0.42425 0.45664 0.0
O359 O 0.5092 0.45106 0.52209 0.0
O360 O 0.51564 0.50206 0.54141 0.0
C361 C 0.55685 0.41315 0.47005 0.0
O362 O 0.56768 0.42832 0.49505 0.0
O363 O 0.5562 0.50127 0.46905 0.0
C364 C 0.44147 0.57132 0.53599 0.0
O365 O 0.42307 0.55216 0.51856 0.0
O366 O 0.46731 0.56134 0.54289 0.0
O367 O 0.46563 0.51926 0.47911 0.0
O368 O 0.48464 0.48102 0.44928 0.0
O369 O 0.44049 0.48293 0.54832 0.0
C370 C 0.51896 0.47022 0.5437 0.0
C371 C 0.46789 0.50524 0.45267 0.0
Zn372 Zn 0.95537 0.50539 0.98209 0.0
Zn373 Zn 0.03641 0.50323 0.02884 0.0
C374 C 0.9183 0.4677 0.94097 0.0
O375 O 0.94227 0.47924 0.92225 0.0
C376 C 0.07477 0.54333 0.06758 0.0
O377 O 0.05179 0.53238 0.08782 0.0
O378 O 0.95045 0.54938 0.95695 0.0
O379 O 0.95151 0.5171 0.0285 0.0
O380 O 0.99811 0.51956 0.04794 0.0
C381 C 0.92534 0.56162 0.96317 0.0
O382 O 0.9064 0.54577 0.9856 0.0
O383 O 0.91829 0.47442 0.97027 0.0
C384 C 0.06927 0.44945 0.04784 0.0
O385 O 0.08724 0.46587 0.0249 0.0
O386 O 0.04369 0.46042 0.05457 0.0
O387 O 0.0393 0.48966 0.98327 0.0
O388 O 0.99301 0.48695 0.96305 0.0
O389 O 0.07303 0.53589 0.03855 0.0
C390 C 0.96996 0.52462 0.0504 0.0
C391 C 0.02113 0.48157 0.96132 0.0
H392 H 0.14282 0.07015 0.35244 0.0
H393 H 0.06921 0.12982 0.32535 0.0
H394 H 0.03757 0.10368 0.37105 0.0
H395 H 0.03083 0.06437 0.41882 0.0
H396 H 0.10517 0.00685 0.44782 0.0
H397 H 0.13677 0.03238 0.4016 0.0
C398 C 0.12002 0.07779 0.35672 0.0
C399 C 0.1084 0.10174 0.33526 0.0
C400 C 0.1021 0.06317 0.38344 0.0
C401 C 0.07857 0.11092 0.34102 0.0
C402 C 0.06051 0.0962 0.36732 0.0
C403 C 0.05389 0.05727 0.41498 0.0
C404 C 0.06552 0.03355 0.43659 0.0
C405 C 0.072 0.07224 0.3886 0.0
C406 C 0.09565 0.02507 0.43154 0.0
C407 C 0.11372 0.03959 0.40509 0.0
H408 H 0.39474 0.93516 0.84416 0.0
H409 H 0.43098 0.83734 0.8407 0.0
H410 H 0.45775 0.84726 0.89001 0.0
H411 H 0.47381 0.88526 0.93169 0.0
H412 H 0.44077 0.98499 0.9339 0.0
H413 H 0.4095 0.97274 0.88779 0.0
C414 C 0.40822 0.91596 0.85454 0.0
C415 C 0.41108 0.88566 0.83891 0.0
C416 C 0.42417 0.92222 0.88255 0.0
C417 C 0.42874 0.86097 0.85229 0.0
C418 C 0.44399 0.8666 0.88045 0.0
C419 C 0.45946 0.90418 0.92242 0.0
C420 C 0.45966 0.936 0.9362 0.0
C421 C 0.4423 0.89737 0.89546 0.0
C422 C 0.44107 0.9603 0.92368 0.0
C423 C 0.42326 0.95335 0.89726 0.0
H424 H 0.56258 0.38128 0.66033 0.0
H425 H 0.60971 0.4795 0.68051 0.0
H426 H 0.58716 0.50664 0.63437 0.0
H427 H 0.55506 0.50226 0.58719 0.0
H428 H 0.51135 0.40301 0.56537 0.0
H429 H 0.53214 0.37652 0.6128 0.0
C430 C 0.56839 0.40854 0.65449 0.0
C431 C 0.58795 0.42815 0.67406 0.0
C432 C 0.55601 0.42387 0.62744 0.0
C433 C 0.59441 0.46369 0.66631 0.0
C434 C 0.5817 0.47926 0.63972 0.0
C435 C 0.55004 0.47486 0.59291 0.0
C436 C 0.53166 0.45468 0.57276 0.0
C437 C 0.56254 0.45958 0.62003 0.0
C438 C 0.52555 0.41915 0.58035 0.0
C439 C 0.53738 0.40395 0.60753 0.0
H440 H 0.94409 0.6043 0.17335 0.0
H441 H 0.85378 0.54985 0.16622 0.0
H442 H 0.87093 0.52457 0.11802 0.0
H443 H 0.91192 0.51684 0.07799 0.0
H444 H 0.0029 0.56813 0.08766 0.0
H445 H 0.98533 0.59476 0.13505 0.0
C446 C 0.92815 0.58653 0.16167 0.0
C447 C 0.89751 0.5794 0.17367 0.0
C448 C 0.93838 0.57117 0.13435 0.0
C449 C 0.87729 0.55668 0.15744 0.0
C450 C 0.88715 0.54184 0.1299 0.0
C451 C 0.92786 0.53384 0.09051 0.0
C452 C 0.95876 0.54022 0.0794 0.0
C453 C 0.91766 0.54886 0.11811 0.0
C454 C 0.97915 0.56225 0.09598 0.0
C455 C 0.96906 0.57771 0.123 0.0
H456 H 0.3313 0.07653 0.16795 0.0
H457 H 0.33738 0.15836 0.09371 0.0
H458 H 0.38057 0.13489 0.0678 0.0
H459 H 0.41567 0.09051 0.06546 0.0
H460 H 0.4104 0.00893 0.13993 0.0
H461 H 0.36804 0.03322 0.16676 0.0
C462 C 0.34236 0.08946 0.14635 0.0
C463 C 0.33102 0.11899 0.13266 0.0
C464 C 0.36723 0.07585 0.13158 0.0
C465 C 0.34536 0.13527 0.10444 0.0
C466 C 0.37013 0.12196 0.08968 0.0
C467 C 0.4053 0.07802 0.08758 0.0
C468 C 0.41605 0.04785 0.10057 0.0
C469 C 0.38104 0.09209 0.10286 0.0
C470 C 0.40251 0.03216 0.12938 0.0
C471 C 0.37827 0.04601 0.14474 0.0
H472 H 0.18054 0.88192 0.65629 0.0
H473 H 0.23985 0.94313 0.58546 0.0
H474 H 0.19518 0.96392 0.56058 0.0
H475 H 0.13932 0.96515 0.55904 0.0
H476 H 0.08009 0.90596 0.63119 0.0
H477 H 0.12473 0.88437 0.65564 0.0
C478 C 0.18377 0.90015 0.63566 0.0
C479 C 0.21361 0.91078 0.62276 0.0
C480 C 0.15798 0.91238 0.62166 0.0
C481 C 0.21719 0.93401 0.59565 0.0
C482 C 0.19165 0.9461 0.58148 0.0
C483 C 0.13615 0.94741 0.58004 0.0
C484 C 0.10638 0.93708 0.59317 0.0
C485 C 0.16194 0.93539 0.59421 0.0
C486 C 0.10273 0.91435 0.62058 0.0
C487 C 0.12826 0.90197 0.63459 0.0
H488 H 0.81585 0.39745 0.85756 0.0
H489 H 0.75711 0.43754 0.92756 0.0
H490 H 0.80215 0.45932 0.95624 0.0
H491 H 0.85848 0.46794 0.96067 0.0
H492 H 0.91684 0.42977 0.88905 0.0
H493 H 0.87172 0.40557 0.86213 0.0
C494 C 0.81292 0.41072 0.87924 0.0
C495 C 0.78324 0.41585 0.89046 0.0
C496 C 0.83885 0.42326 0.89543 0.0
C497 C 0.77977 0.43358 0.91829 0.0
C498 C 0.80549 0.44582 0.93479 0.0
C499 C 0.86123 0.45387 0.93944 0.0
C500 C 0.89086 0.45039 0.92694 0.0
C501 C 0.83516 0.44086 0.92355 0.0
C502 C 0.8942 0.43271 0.8991 0.0
C503 C 0.86845 0.41896 0.88365 0.0
H504 H 0.67444 0.60274 0.37046 0.0
H505 H 0.72176 0.53698 0.43354 0.0
H506 H 0.67283 0.51377 0.46023 0.0
H507 H 0.61615 0.50945 0.46333 0.0
H508 H 0.56913 0.57367 0.39847 0.0
H509 H 0.6183 0.60019 0.37495 0.0
C510 C 0.67406 0.58318 0.38993 0.0
C511 C 0.70175 0.57145 0.39977 0.0
C512 C 0.64584 0.56971 0.40495 0.0
C513 C 0.70084 0.54664 0.42555 0.0
C514 C 0.67283 0.53324 0.44077 0.0
C515 C 0.61671 0.52968 0.44445 0.0
C516 C 0.58901 0.53956 0.43267 0.0
C517 C 0.64513 0.54432 0.43046 0.0
C518 C 0.59012 0.56553 0.40792 0.0
C519 C 0.61823 0.58064 0.39436 0.0
H520 H 0.09761 0.32547 0.14109 0.0
H521 H 0.1798 0.3346 0.07996 0.0
H522 H 0.16141 0.38212 0.04858 0.0
H523 H 0.12221 0.4209 0.03847 0.0
H524 H 0.03946 0.41156 0.09877 0.0
H525 H 0.05766 0.36374 0.13018 0.0
C526 C 0.11135 0.33764 0.12071 0.0
C527 C 0.14008 0.32659 0.11297 0.0
C528 C 0.10052 0.36475 0.10256 0.0
C529 C 0.15782 0.34296 0.08676 0.0
C530 C 0.14724 0.36997 0.06865 0.0
C531 C 0.10807 0.40839 0.05842 0.0
C532 C 0.07954 0.41978 0.06627 0.0
C533 C 0.11867 0.38108 0.07638 0.0
C534 C 0.06151 0.40324 0.0922 0.0
C535 C 0.07192 0.37595 0.11021 0.0
H536 H 0.54904 0.20094 0.90403 0.0
H537 H 0.61947 0.14779 0.86017 0.0
H538 H 0.60161 0.09566 0.893 0.0
H539 H 0.56718 0.06566 0.93543 0.0
H540 H 0.49488 0.11746 0.97712 0.0
H541 H 0.51196 0.1695 0.94338 0.0
C542 C 0.56015 0.17782 0.90112 0.0
C543 C 0.58584 0.17856 0.87984 0.0
C544 C 0.54951 0.14771 0.91978 0.0
C545 C 0.6001 0.14831 0.87682 0.0
C546 C 0.58981 0.11838 0.89548 0.0
C547 C 0.55518 0.08837 0.9371 0.0
C548 C 0.53004 0.08791 0.95892 0.0
C549 C 0.56484 0.11794 0.91736 0.0
C550 C 0.51433 0.11725 0.9605 0.0
C551 C 0.52412 0.147 0.94126 0.0
H552 H 0.87456 0.83109 0.37619 0.0
H553 H 0.95277 0.77919 0.40379 0.0
H554 H 0.97274 0.82906 0.43189 0.0
H555 H 0.96652 0.8866 0.45129 0.0
H556 H 0.88538 0.9349 0.42742 0.0
H557 H 0.86772 0.88687 0.39615 0.0
C558 C 0.89577 0.83025 0.38869 0.0
C559 C 0.91185 0.80099 0.38792 0.0
C560 C 0.90653 0.85841 0.40586 0.0
C561 C 0.9399 0.80131 0.40349 0.0
C562 C 0.95125 0.82977 0.41991 0.0
C563 C 0.94503 0.88656 0.43916 0.0
C564 C 0.92726 0.91427 0.4418 0.0
C565 C 0.93456 0.85833 0.42161 0.0
C566 C 0.89939 0.9138 0.42607 0.0
C567 C 0.88929 0.88638 0.40803 0.0
H568 H 0.37597 0.69778 0.57854 0.0
H569 H 0.44678 0.70012 0.64777 0.0
H570 H 0.46842 0.65247 0.62345 0.0
H571 H 0.46586 0.60833 0.5839 0.0
H572 H 0.39345 0.60479 0.51643 0.0
H573 H 0.37372 0.65442 0.53889 0.0
C574 C 0.396 0.68772 0.58851 0.0
C575 C 0.40961 0.70249 0.61503 0.0
C576 C 0.40804 0.65999 0.57475 0.0
C577 C 0.43597 0.68953 0.62716 0.0
C578 C 0.44828 0.66212 0.61339 0.0
C579 C 0.44593 0.61862 0.57396 0.0
C580 C 0.43113 0.60281 0.54858 0.0
C581 C 0.43437 0.64696 0.58731 0.0
C582 C 0.40521 0.61633 0.53608 0.0
C583 C 0.39388 0.64474 0.5489 0.0
H584 H 0.91925 0.87157 0.66542 0.0
H585 H 0.8524 0.94432 0.654 0.0
H586 H 0.88215 0.97283 0.60775 0.0
H587 H 0.92775 0.97795 0.57159 0.0
H588 H 0.99475 0.90522 0.58318 0.0
H589 H 0.96407 0.87558 0.62814 0.0
C590 C 0.911 0.89339 0.65253 0.0
C591 C 0.88374 0.90588 0.66312 0.0
C592 C 0.92826 0.9097 0.62609 0.0
C593 C 0.87354 0.93449 0.6465 0.0
C594 C 0.89046 0.9507 0.62001 0.0
C595 C 0.93564 0.95556 0.58387 0.0
C596 C 0.96363 0.94401 0.57413 0.0
C597 C 0.91799 0.93871 0.6098 0.0
C598 C 0.97339 0.91483 0.59026 0.0
C599 C 0.95586 0.89782 0.61598 0.0
H600 H 0.61514 0.07234 0.18596 0.0
H601 H 0.65461 0.16485 0.13231 0.0
H602 H 0.6227 0.15042 0.08751 0.0
H603 H 0.58089 0.11374 0.06507 0.0
H604 H 0.54311 0.01997 0.1176 0.0
H605 H 0.57765 0.03232 0.16097 0.0
C606 C 0.61737 0.089 0.16424 0.0
C607 C 0.63694 0.11998 0.16287 0.0
C608 C 0.59913 0.0804 0.13836 0.0
C609 C 0.63919 0.14129 0.13446 0.0
C610 C 0.62105 0.13299 0.10871 0.0
C611 C 0.58041 0.09587 0.0859 0.0
C612 C 0.55922 0.06623 0.08829 0.0
C613 C 0.60042 0.10304 0.11069 0.0
C614 C 0.55916 0.04304 0.11519 0.0
C615 C 0.57883 0.05013 0.14008 0.0
H616 H 0.39348 0.58187 0.34926 0.0
H617 H 0.4481 0.52768 0.2859 0.0
H618 H 0.47105 0.50025 0.33177 0.0
H619 H 0.47669 0.49296 0.38984 0.0
H620 H 0.42264 0.54822 0.45298 0.0
H621 H 0.39809 0.57343 0.40729 0.0
C622 C 0.41012 0.56373 0.3455 0.0
C623 C 0.41908 0.55688 0.3142 0.0
C624 C 0.42333 0.54819 0.37197 0.0
C625 C 0.44106 0.53371 0.30974 0.0
C626 C 0.45408 0.51789 0.33596 0.0
C627 C 0.45933 0.51025 0.39366 0.0
C628 C 0.45157 0.51861 0.4249 0.0
C629 C 0.44556 0.52513 0.36719 0.0
C630 C 0.42918 0.54133 0.42928 0.0
C631 C 0.4151 0.55583 0.40313 0.0
H632 H 0.05095 0.39426 0.84432 0.0
H633 H 0.14225 0.44361 0.85732 0.0
H634 H 0.12291 0.47331 0.90178 0.0
H635 H 0.08019 0.48539 0.93749 0.0
H636 H 0.98845 0.43908 0.92249 0.0
H637 H 0.00774 0.40904 0.87791 0.0
C638 C 0.06664 0.41185 0.85647 0.0
C639 C 0.09822 0.41606 0.84744 0.0
C640 C 0.05524 0.42972 0.88169 0.0
C641 C 0.11802 0.43885 0.86404 0.0
C642 C 0.10693 0.45623 0.8894 0.0
C643 C 0.0644 0.46882 0.92439 0.0
C644 C 0.03288 0.46467 0.93329 0.0
C645 C 0.07563 0.45174 0.89857 0.0
C646 C 0.01274 0.44319 0.91592 0.0
C647 C 0.0238 0.42577 0.89052 0.0
H648 H 0.64841 0.89635 0.84781 0.0
H649 H 0.70987 0.91356 0.92472 0.0
H650 H 0.66977 0.93795 0.95542 0.0
H651 H 0.61739 0.95477 0.95998 0.0
H652 H 0.55709 0.94126 0.88142 0.0
H653 H 0.59648 0.91496 0.85165 0.0
C654 C 0.65283 0.90541 0.87134 0.0
C655 C 0.68174 0.90319 0.88422 0.0
C656 C 0.62995 0.92001 0.88843 0.0
C657 C 0.68764 0.91524 0.91448 0.0
C658 C 0.66477 0.92906 0.93199 0.0
C659 C 0.6129 0.94591 0.9364 0.0
C660 C 0.58446 0.94973 0.9229 0.0
C661 C 0.63586 0.93161 0.91917 0.0
C662 C 0.57894 0.93864 0.89219 0.0
C663 C 0.60139 0.92357 0.87521 0.0
H664 H 0.81397 0.0894 0.41451 0.0
H665 H 0.86745 0.14743 0.33754 0.0
H666 H 0.91446 0.12641 0.35741 0.0
H667 H 0.93999 0.08985 0.39567 0.0
H668 H 0.88664 0.03374 0.47403 0.0
H669 H 0.84005 0.05586 0.45484 0.0
C670 C 0.83598 0.09739 0.40219 0.0
C671 C 0.83735 0.11965 0.37452 0.0
C672 C 0.86289 0.08562 0.41403 0.0
C673 C 0.86595 0.13032 0.35893 0.0
C674 C 0.89277 0.11826 0.37024 0.0
C675 C 0.9182 0.08265 0.40866 0.0
C676 C 0.9168 0.06004 0.43613 0.0
C677 C 0.89148 0.09568 0.39763 0.0
C678 C 0.88842 0.05119 0.45286 0.0
C679 C 0.8617 0.06369 0.44182 0.0
H680 H 0.18668 0.60423 0.14443 0.0
H681 H 0.23684 0.56247 0.06817 0.0
H682 H 0.18887 0.54602 0.0424 0.0
H683 H 0.13247 0.54117 0.04264 0.0
H684 H 0.08211 0.57932 0.1207 0.0
H685 H 0.13033 0.59948 0.14465 0.0
C686 C 0.18713 0.59122 0.12235 0.0
C687 C 0.2154 0.58462 0.10833 0.0
C688 C 0.1594 0.58133 0.10787 0.0
C689 C 0.2155 0.56828 0.07935 0.0
C690 C 0.18805 0.55872 0.06462 0.0
C691 C 0.1321 0.55441 0.06461 0.0
C692 C 0.10384 0.559 0.07979 0.0
C693 C 0.15986 0.565 0.07872 0.0
C694 C 0.10364 0.57559 0.10856 0.0
C695 C 0.13117 0.58699 0.12231 0.0
H696 H 0.33762 0.3929 0.67027 0.0
H697 H 0.28011 0.43512 0.59983 0.0
H698 H 0.32565 0.46082 0.56832 0.0
H699 H 0.38181 0.47231 0.5613 0.0
H700 H 0.43943 0.43266 0.63303 0.0
H701 H 0.39397 0.40458 0.6633 0.0
C702 C 0.33513 0.40758 0.64792 0.0
C703 C 0.30557 0.41216 0.63741 0.0
C704 C 0.36143 0.42262 0.63011 0.0
C705 C 0.30263 0.43155 0.60859 0.0
C706 C 0.32864 0.44609 0.59049 0.0
C707 C 0.38441 0.45721 0.58338 0.0
C708 C 0.41393 0.45438 0.59482 0.0
C709 C 0.35816 0.4419 0.60106 0.0
C710 C 0.41693 0.43521 0.62374 0.0
C711 C 0.39096 0.41919 0.64106 0.0
H712 H 0.90172 0.68623 0.86794 0.0
H713 H 0.82087 0.68324 0.93023 0.0
H714 H 0.83764 0.63543 0.96265 0.0
H715 H 0.87475 0.59425 0.97294 0.0
H716 H 0.9559 0.59667 0.91108 0.0
H717 H 0.93954 0.64502 0.87881 0.0
C718 C 0.88776 0.67491 0.88851 0.0
C719 C 0.86015 0.68818 0.89674 0.0
C720 C 0.8976 0.64748 0.90712 0.0
C721 C 0.84238 0.67364 0.92365 0.0
C722 C 0.85188 0.64626 0.94211 0.0
C723 C 0.88895 0.60536 0.95246 0.0
C724 C 0.91646 0.59184 0.9444 0.0
C725 C 0.87942 0.633 0.93406 0.0
C726 C 0.93462 0.60665 0.91783 0.0
C727 C 0.92525 0.63422 0.89932 0.0
H728 H 0.46873 0.81072 0.12472 0.0
H729 H 0.37706 0.81724 0.09224 0.0
H730 H 0.39307 0.87386 0.06577 0.0
H731 H 0.43341 0.92044 0.05036 0.0
H732 H 0.52606 0.913 0.07992 0.0
H733 H 0.50951 0.85784 0.10901 0.0
C734 C 0.45235 0.8248 0.11203 0.0
C735 C 0.42183 0.81011 0.11036 0.0
C736 C 0.46192 0.85699 0.09625 0.0
C737 C 0.40071 0.8282 0.09364 0.0
C738 C 0.40984 0.86048 0.07855 0.0
C739 C 0.44997 0.90686 0.06332 0.0
C740 C 0.48089 0.92079 0.06303 0.0
C741 C 0.44043 0.87497 0.07945 0.0
C742 C 0.50212 0.90273 0.07969 0.0
C743 C 0.49267 0.87123 0.09636 0.0
H744 H 0.06728 0.1682 0.65484 0.0
H745 H 0.1587 0.19215 0.61215 0.0
H746 H 0.14948 0.14594 0.57636 0.0
H747 H 0.11657 0.0978 0.55812 0.0
H748 H 0.02514 0.07193 0.60012 0.0
H749 H 0.03309 0.11995 0.63488 0.0
C750 C 0.08503 0.16336 0.63754 0.0
C751 C 0.11381 0.18333 0.63654 0.0
C752 C 0.07961 0.13642 0.61688 0.0
C753 C 0.1366 0.17675 0.61395 0.0
C754 C 0.1313 0.15043 0.5933 0.0
C755 C 0.09823 0.10264 0.57474 0.0
C756 C 0.07033 0.08115 0.57652 0.0
C757 C 0.10307 0.12991 0.59477 0.0
C758 C 0.04687 0.08803 0.59822 0.0
C759 C 0.05144 0.11546 0.61816 0.0
H760 H 0.64246 0.30277 0.42782 0.0
H761 H 0.58085 0.29843 0.34964 0.0
H762 H 0.55136 0.34053 0.37359 0.0
H763 H 0.54389 0.37984 0.41603 0.0
H764 H 0.60552 0.38376 0.49429 0.0
H765 H 0.63375 0.34019 0.47128 0.0
C766 C 0.62234 0.31068 0.41623 0.0
C767 C 0.61402 0.29758 0.38689 0.0
C768 C 0.60544 0.33486 0.43015 0.0
C769 C 0.58809 0.3085 0.37199 0.0
C770 C 0.57109 0.33245 0.38575 0.0
C771 C 0.56337 0.371 0.42816 0.0
C772 C 0.57259 0.38518 0.45679 0.0
C773 C 0.57971 0.34604 0.4147 0.0
C774 C 0.59792 0.37341 0.47217 0.0
C775 C 0.61415 0.34848 0.45903 0.0
loop_
_geom_bond_atom_site_label_1
_geom_bond_atom_site_label_2
_geom_bond_distance
_geom_bond_site_symmetry_2
_ccdc_geom_bond_type
C0 C1 1.386 . S
C0 C2 1.397 . S
C0 H24 0.931 . S
C1 C0 1.386 . S
C1 C5 1.397 . S
C2 C0 1.397 . S
C2 C3 1.384 . S
C2 H25 0.930 . S
C3 C2 1.384 . S
C3 C4 1.377 . S
C3 C6 1.481 . S
C4 C3 1.377 . S
C4 C5 1.389 . S
C4 H26 0.929 . S
C5 C1 1.397 . S
C5 C4 1.389 . S
C5 H27 0.931 . S
C6 C3 1.481 . S
C6 C7 1.387 . S
C6 C11 1.390 . S
C7 C6 1.387 . S
C7 C8 1.401 . S
C7 H28 0.930 . S
C8 C7 1.401 . S
C8 C9 1.376 . S
C8 C17 1.511 . S
C9 C8 1.376 . S
C9 C10 1.392 . S
C9 H30 0.931 . S
C10 C9 1.392 . S
C10 C11 1.361 . S
C10 C12 1.500 . S
C11 C6 1.390 . S
C11 C10 1.361 . S
C11 H29 0.931 . S
C12 C10 1.500 . S
C12 C13 1.371 . S
C12 C14 1.365 . S
C13 C12 1.371 . S
C13 C23 1.386 . S
C13 H31 0.931 . S
C14 C12 1.365 . S
C14 C15 1.409 . S
C14 H32 0.929 . S
C15 C14 1.409 . S
C15 C16 1.380 . S
C15 H33 0.930 . S
C16 C15 1.380 . S
C16 C23 1.357 . S
C17 C8 1.511 . S
C17 C18 1.341 . S
C17 C19 1.371 . S
C18 C17 1.341 . S
C18 C22 1.394 . S
C18 H34 0.930 . S
C19 C17 1.371 . S
C19 C20 1.392 . S
C19 H35 0.931 . S
C20 C19 1.392 . S
C20 C21 1.331 . S
C20 H38 0.932 . S
C21 C20 1.331 . S
C21 C22 1.336 . S
C22 C18 1.394 . S
C22 C21 1.336 . S
C22 H37 0.929 . S
C23 C13 1.386 . S
C23 C16 1.357 . S
C23 H36 0.928 . S
H24 C0 0.931 . S
H25 C2 0.930 . S
H26 C4 0.929 . S
H27 C5 0.931 . S
H28 C7 0.930 . S
H29 C11 0.931 . S
H30 C9 0.931 . S
H31 C13 0.931 . S
H32 C14 0.929 . S
H33 C15 0.930 . S
H34 C18 0.930 . S
H35 C19 0.931 . S
H36 C23 0.928 . S
H37 C22 0.929 . S
H38 C20 0.932 . S
C39 C40 1.386 . S
C39 C41 1.397 . S
C39 H63 0.931 . S
C40 C39 1.386 . S
C40 C44 1.397 . S
C41 C39 1.397 . S
C41 C42 1.384 . S
C41 H64 0.930 . S
C42 C41 1.384 . S
C42 C43 1.377 . S
C42 C45 1.481 . S
C43 C42 1.377 . S
C43 C44 1.389 . S
C43 H65 0.929 . S
C44 C40 1.397 . S
C44 C43 1.389 . S
C44 H66 0.931 . S
C45 C42 1.481 . S
C45 C46 1.387 . S
C45 C50 1.390 . S
C46 C45 1.387 . S
C46 C47 1.401 . S
C46 H67 0.930 . S
C47 C46 1.401 . S
C47 C48 1.376 . S
C47 C56 1.511 . S
C48 C47 1.376 . S
C48 C49 1.392 . S
C48 H69 0.931 . S
C49 C48 1.392 . S
C49 C50 1.361 . S
C49 C51 1.500 . S
C50 C45 1.390 . S
C50 C49 1.361 . S
C50 H68 0.931 . S
C51 C49 1.500 . S
C51 C52 1.371 . S
C51 C53 1.365 . S
C52 C51 1.371 . S
C52 C62 1.386 . S
C52 H70 0.931 . S
C53 C51 1.365 . S
C53 C54 1.409 . S
C53 H71 0.929 . S
C54 C53 1.409 . S
C54 C55 1.380 . S
C54 H72 0.930 . S
C55 C54 1.380 . S
C55 C62 1.357 . S
C56 C47 1.511 . S
C56 C57 1.341 . S
C56 C58 1.371 . S
C57 C56 1.341 . S
C57 C61 1.394 . S
C57 H73 0.930 . S
C58 C56 1.371 . S
C58 C59 1.392 . S
C58 H74 0.931 . S
C59 C58 1.392 . S
C59 C60 1.331 . S
C59 H77 0.932 . S
C60 C59 1.331 . S
C60 C61 1.336 . S
C61 C57 1.394 . S
C61 C60 1.336 . S
C61 H76 0.929 . S
C62 C52 1.386 . S
C62 C55 1.357 . S
C62 H75 0.928 . S
H63 C39 0.931 . S
H64 C41 0.930 . S
H65 C43 0.929 . S
H66 C44 0.931 . S
H67 C46 0.930 . S
H68 C50 0.931 . S
H69 C48 0.931 . S
H70 C52 0.931 . S
H71 C53 0.929 . S
H72 C54 0.930 . S
H73 C57 0.930 . S
H74 C58 0.931 . S
H75 C62 0.928 . S
H76 C61 0.929 . S
H77 C59 0.932 . S
C78 C79 1.386 . S
C78 C80 1.397 . S
C78 H102 0.931 . S
C79 C78 1.386 . S
C79 C83 1.397 . S
C80 C78 1.397 . S
C80 C81 1.384 . S
C80 H103 0.930 . S
C81 C80 1.384 . S
C81 C82 1.377 . S
C81 C84 1.481 . S
C82 C81 1.377 . S
C82 C83 1.389 . S
C82 H104 0.929 . S
C83 C79 1.397 . S
C83 C82 1.389 . S
C83 H105 0.931 . S
C84 C81 1.481 . S
C84 C85 1.387 . S
C84 C89 1.390 . S
C85 C84 1.387 . S
C85 C86 1.401 . S
C85 H106 0.930 . S
C86 C85 1.401 . S
C86 C87 1.376 . S
C86 C95 1.511 . S
C87 C86 1.376 . S
C87 C88 1.392 . S
C87 H108 0.931 . S
C88 C87 1.392 . S
C88 C89 1.361 . S
C88 C90 1.500 . S
C89 C84 1.390 . S
C89 C88 1.361 . S
C89 H107 0.931 . S
C90 C88 1.500 . S
C90 C91 1.371 . S
C90 C92 1.365 . S
C91 C90 1.371 . S
C91 C101 1.386 . S
C91 H109 0.931 . S
C92 C90 1.365 . S
C92 C93 1.409 . S
C92 H110 0.929 . S
C93 C92 1.409 . S
C93 C94 1.380 . S
C93 H111 0.930 . S
C94 C93 1.380 . S
C94 C101 1.357 . S
C95 C86 1.511 . S
C95 C96 1.341 . S
C95 C97 1.371 . S
C96 C95 1.341 . S
C96 C100 1.394 . S
C96 H112 0.930 . S
C97 C95 1.371 . S
C97 C98 1.392 . S
C97 H113 0.931 . S
C98 C97 1.392 . S
C98 C99 1.331 . S
C98 H116 0.932 . S
C99 C98 1.331 . S
C99 C100 1.336 . S
C100 C96 1.394 . S
C100 C99 1.336 . S
C100 H115 0.929 . S
C101 C91 1.386 . S
C101 C94 1.357 . S
C101 H114 0.928 . S
H102 C78 0.931 . S
H103 C80 0.930 . S
H104 C82 0.929 . S
H105 C83 0.931 . S
H106 C85 0.930 . S
H107 C89 0.931 . S
H108 C87 0.931 . S
H109 C91 0.931 . S
H110 C92 0.929 . S
H111 C93 0.930 . S
H112 C96 0.930 . S
H113 C97 0.931 . S
H114 C101 0.928 . S
H115 C100 0.929 . S
H116 C98 0.932 . S
C117 C118 1.386 . S
C117 C119 1.397 . S
C117 H141 0.931 . S
C118 C117 1.386 . S
C118 C122 1.397 . S
C119 C117 1.397 . S
C119 C120 1.384 . S
C119 H142 0.930 . S
C120 C119 1.384 . S
C120 C121 1.377 . S
C120 C123 1.481 . S
C121 C120 1.377 . S
C121 C122 1.389 . S
C121 H143 0.929 . S
C122 C118 1.397 . S
C122 C121 1.389 . S
C122 H144 0.931 . S
C123 C120 1.481 . S
C123 C124 1.387 . S
C123 C128 1.390 . S
C124 C123 1.387 . S
C124 C125 1.401 . S
C124 H145 0.930 . S
C125 C124 1.401 . S
C125 C126 1.376 . S
C125 C134 1.511 . S
C126 C125 1.376 . S
C126 C127 1.392 . S
C126 H147 0.931 . S
C127 C126 1.392 . S
C127 C128 1.361 . S
C127 C129 1.500 . S
C128 C123 1.390 . S
C128 C127 1.361 . S
C128 H146 0.931 . S
C129 C127 1.500 . S
C129 C130 1.371 . S
C129 C131 1.365 . S
C130 C129 1.371 . S
C130 C140 1.386 . S
C130 H148 0.931 . S
C131 C129 1.365 . S
C131 C132 1.409 . S
C131 H149 0.929 . S
C132 C131 1.409 . S
C132 C133 1.380 . S
C132 H150 0.930 . S
C133 C132 1.380 . S
C133 C140 1.357 . S
C134 C125 1.511 . S
C134 C135 1.341 . S
C134 C136 1.371 . S
C135 C134 1.341 . S
C135 C139 1.394 . S
C135 H151 0.930 . S
C136 C134 1.371 . S
C136 C137 1.392 . S
C136 H152 0.931 . S
C137 C136 1.392 . S
C137 C138 1.331 . S
C137 H155 0.932 . S
C138 C137 1.331 . S
C138 C139 1.336 . S
C139 C135 1.394 . S
C139 C138 1.336 . S
C139 H154 0.929 . S
C140 C130 1.386 . S
C140 C133 1.357 . S
C140 H153 0.928 . S
H141 C117 0.931 . S
H142 C119 0.930 . S
H143 C121 0.929 . S
H144 C122 0.931 . S
H145 C124 0.930 . S
H146 C128 0.931 . S
H147 C126 0.931 . S
H148 C130 0.931 . S
H149 C131 0.929 . S
H150 C132 0.930 . S
H151 C135 0.930 . S
H152 C136 0.931 . S
H153 C140 0.928 . S
H154 C139 0.929 . S
H155 C137 0.932 . S
C156 C157 1.386 . S
C156 C158 1.397 . S
C156 H180 0.931 . S
C157 C156 1.386 . S
C157 C161 1.397 . S
C158 C156 1.397 . S
C158 C159 1.384 . S
C158 H181 0.930 . S
C159 C158 1.384 . S
C159 C160 1.377 . S
C159 C162 1.481 . S
C160 C159 1.377 . S
C160 C161 1.389 . S
C160 H182 0.929 . S
C161 C157 1.397 . S
C161 C160 1.389 . S
C161 H183 0.931 . S
C162 C159 1.481 . S
C162 C163 1.387 . S
C162 C167 1.390 . S
C163 C162 1.387 . S
C163 C164 1.401 . S
C163 H184 0.930 . S
C164 C163 1.401 . S
C164 C165 1.376 . S
C164 C173 1.511 . S
C165 C164 1.376 . S
C165 C166 1.392 . S
C165 H186 0.931 . S
C166 C165 1.392 . S
C166 C167 1.361 . S
C166 C168 1.500 . S
C167 C162 1.390 . S
C167 C166 1.361 . S
C167 H185 0.931 . S
C168 C166 1.500 . S
C168 C169 1.371 . S
C168 C170 1.365 . S
C169 C168 1.371 . S
C169 C179 1.386 . S
C169 H187 0.931 . S
C170 C168 1.365 . S
C170 C171 1.409 . S
C170 H188 0.929 . S
C171 C170 1.409 . S
C171 C172 1.380 . S
C171 H189 0.930 . S
C172 C171 1.380 . S
C172 C179 1.357 . S
C173 C164 1.511 . S
C173 C174 1.341 . S
C173 C175 1.371 . S
C174 C173 1.341 . S
C174 C178 1.394 . S
C174 H190 0.930 . S
C175 C173 1.371 . S
C175 C176 1.392 . S
C175 H191 0.931 . S
C176 C175 1.392 . S
C176 C177 1.331 . S
C176 H194 0.932 . S
C177 C176 1.331 . S
C177 C178 1.336 . S
C178 C174 1.394 . S
C178 C177 1.336 . S
C178 H193 0.929 . S
C179 C169 1.386 . S
C179 C172 1.357 . S
C179 H192 0.928 . S
H180 C156 0.931 . S
H181 C158 0.930 . S
H182 C160 0.929 . S
H183 C161 0.931 . S
H184 C163 0.930 . S
H185 C167 0.931 . S
H186 C165 0.931 . S
H187 C169 0.931 . S
H188 C170 0.929 . S
H189 C171 0.930 . S
H190 C174 0.930 . S
H191 C175 0.931 . S
H192 C179 0.928 . S
H193 C178 0.929 . S
H194 C176 0.932 . S
C195 C196 1.386 . S
C195 C197 1.397 . S
C195 H219 0.931 . S
C196 C195 1.386 . S
C196 C200 1.397 . S
C197 C195 1.397 . S
C197 C198 1.384 . S
C197 H220 0.930 . S
C198 C197 1.384 . S
C198 C199 1.377 . S
C198 C201 1.481 . S
C199 C198 1.377 . S
C199 C200 1.389 . S
C199 H221 0.929 . S
C200 C196 1.397 . S
C200 C199 1.389 . S
C200 H222 0.931 . S
C201 C198 1.481 . S
C201 C202 1.387 . S
C201 C206 1.390 . S
C202 C201 1.387 . S
C202 C203 1.401 . S
C202 H223 0.930 . S
C203 C202 1.401 . S
C203 C204 1.376 . S
C203 C212 1.511 . S
C204 C203 1.376 . S
C204 C205 1.392 . S
C204 H225 0.931 . S
C205 C204 1.392 . S
C205 C206 1.361 . S
C205 C207 1.500 . S
C206 C201 1.390 . S
C206 C205 1.361 . S
C206 H224 0.931 . S
C207 C205 1.500 . S
C207 C208 1.371 . S
C207 C209 1.365 . S
C208 C207 1.371 . S
C208 C218 1.386 . S
C208 H226 0.931 . S
C209 C207 1.365 . S
C209 C210 1.409 . S
C209 H227 0.929 . S
C210 C209 1.409 . S
C210 C211 1.380 . S
C210 H228 0.930 . S
C211 C210 1.380 . S
C211 C218 1.357 . S
C212 C203 1.511 . S
C212 C213 1.341 . S
C212 C214 1.371 . S
C213 C212 1.341 . S
C213 C217 1.394 . S
C213 H229 0.930 . S
C214 C212 1.371 . S
C214 C215 1.392 . S
C214 H230 0.931 . S
C215 C214 1.392 . S
C215 C216 1.331 . S
C215 H233 0.932 . S
C216 C215 1.331 . S
C216 C217 1.336 . S
C217 C213 1.394 . S
C217 C216 1.336 . S
C217 H232 0.929 . S
C218 C208 1.386 . S
C218 C211 1.357 . S
C218 H231 0.928 . S
H219 C195 0.931 . S
H220 C197 0.930 . S
H221 C199 0.929 . S
H222 C200 0.931 . S
H223 C202 0.930 . S
H224 C206 0.931 . S
H225 C204 0.931 . S
H226 C208 0.931 . S
H227 C209 0.929 . S
H228 C210 0.930 . S
H229 C213 0.930 . S
H230 C214 0.931 . S
H231 C218 0.928 . S
H232 C217 0.929 . S
H233 C215 0.932 . S
C234 C235 1.386 . S
C234 C236 1.397 . S
C234 H258 0.931 . S
C235 C234 1.386 . S
C235 C239 1.397 . S
C236 C234 1.397 . S
C236 C237 1.384 . S
C236 H259 0.930 . S
C237 C236 1.384 . S
C237 C238 1.377 . S
C237 C240 1.481 . S
C238 C237 1.377 . S
C238 C239 1.389 . S
C238 H260 0.929 . S
C239 C235 1.397 . S
C239 C238 1.389 . S
C239 H261 0.931 . S
C240 C237 1.481 . S
C240 C241 1.387 . S
C240 C245 1.390 . S
C241 C240 1.387 . S
C241 C242 1.401 . S
C241 H262 0.930 . S
C242 C241 1.401 . S
C242 C243 1.376 . S
C242 C251 1.511 . S
C243 C242 1.376 . S
C243 C244 1.392 . S
C243 H264 0.931 . S
C244 C243 1.392 . S
C244 C245 1.361 . S
C244 C246 1.500 . S
C245 C240 1.390 . S
C245 C244 1.361 . S
C245 H263 0.931 . S
C246 C244 1.500 . S
C246 C247 1.371 . S
C246 C248 1.365 . S
C247 C246 1.371 . S
C247 C257 1.386 . S
C247 H265 0.931 . S
C248 C246 1.365 . S
C248 C249 1.409 . S
C248 H266 0.929 . S
C249 C248 1.409 . S
C249 C250 1.380 . S
C249 H267 0.930 . S
C250 C249 1.380 . S
C250 C257 1.357 . S
C251 C242 1.511 . S
C251 C252 1.341 . S
C251 C253 1.371 . S
C252 C251 1.341 . S
C252 C256 1.394 . S
C252 H268 0.930 . S
C253 C251 1.371 . S
C253 C254 1.392 . S
C253 H269 0.931 . S
C254 C253 1.392 . S
C254 C255 1.331 . S
C254 H272 0.932 . S
C255 C254 1.331 . S
C255 C256 1.336 . S
C256 C252 1.394 . S
C256 C255 1.336 . S
C256 H271 0.929 . S
C257 C247 1.386 . S
C257 C250 1.357 . S
C257 H270 0.928 . S
H258 C234 0.931 . S
H259 C236 0.930 . S
H260 C238 0.929 . S
H261 C239 0.931 . S
H262 C241 0.930 . S
H263 C245 0.931 . S
H264 C243 0.931 . S
H265 C247 0.931 . S
H266 C248 0.929 . S
H267 C249 0.930 . S
H268 C252 0.930 . S
H269 C253 0.931 . S
H270 C257 0.928 . S
H271 C256 0.929 . S
H272 C254 0.932 . S
C273 C274 1.386 . S
C273 C275 1.397 . S
C273 H297 0.931 . S
C274 C273 1.386 . S
C274 C278 1.397 . S
C275 C273 1.397 . S
C275 C276 1.384 . S
C275 H298 0.930 . S
C276 C275 1.384 . S
C276 C277 1.377 . S
C276 C279 1.481 . S
C277 C276 1.377 . S
C277 C278 1.389 . S
C277 H299 0.929 . S
C278 C274 1.397 . S
C278 C277 1.389 . S
C278 H300 0.931 . S
C279 C276 1.481 . S
C279 C280 1.387 . S
C279 C284 1.390 . S
C280 C279 1.387 . S
C280 C281 1.401 . S
C280 H301 0.930 . S
C281 C280 1.401 . S
C281 C282 1.376 . S
C281 C290 1.511 . S
C282 C281 1.376 . S
C282 C283 1.392 . S
C282 H303 0.931 . S
C283 C282 1.392 . S
C283 C284 1.361 . S
C283 C285 1.500 . S
C284 C279 1.390 . S
C284 C283 1.361 . S
C284 H302 0.931 . S
C285 C283 1.500 . S
C285 C286 1.371 . S
C285 C287 1.365 . S
C286 C285 1.371 . S
C286 C296 1.386 . S
C286 H304 0.931 . S
C287 C285 1.365 . S
C287 C288 1.409 . S
C287 H305 0.929 . S
C288 C287 1.409 . S
C288 C289 1.380 . S
C288 H306 0.930 . S
C289 C288 1.380 . S
C289 C296 1.357 . S
C290 C281 1.511 . S
C290 C291 1.341 . S
C290 C292 1.371 . S
C291 C290 1.341 . S
C291 C295 1.394 . S
C291 H307 0.930 . S
C292 C290 1.371 . S
C292 C293 1.392 . S
C292 H308 0.931 . S
C293 C292 1.392 . S
C293 C294 1.331 . S
C293 H311 0.932 . S
C294 C293 1.331 . S
C294 C295 1.336 . S
C295 C291 1.394 . S
C295 C294 1.336 . S
C295 H310 0.929 . S
C296 C286 1.386 . S
C296 C289 1.357 . S
C296 H309 0.928 . S
H297 C273 0.931 . S
H298 C275 0.930 . S
H299 C277 0.929 . S
H300 C278 0.931 . S
H301 C280 0.930 . S
H302 C284 0.931 . S
H303 C282 0.931 . S
H304 C286 0.931 . S
H305 C287 0.929 . S
H306 C288 0.930 . S
H307 C291 0.930 . S
H308 C292 0.931 . S
H309 C296 0.928 . S
H310 C295 0.929 . S
H311 C293 0.932 . S
Zn312 O318 1.969 1_545 S
Zn312 O319 1.965 1_545 S
Zn312 O323 2.024 . S
Zn312 O328 1.969 . S
Zn313 O320 1.969 . S
Zn313 O326 1.969 1_565 S
Zn313 O327 1.965 1_665 S
Zn313 O329 2.024 . S
C314 O315 1.229 . S
C314 O323 1.058 . S
O315 C314 1.229 . S
C316 O317 1.229 . S
C316 O329 1.058 . S
O317 C316 1.229 . S
O318 Zn312 1.969 1_565 S
O318 C321 1.267 . S
O319 Zn312 1.965 1_565 S
O319 C330 1.260 1_455 S
O320 Zn313 1.969 . S
O320 C330 1.258 . S
C321 O318 1.267 . S
C321 O322 1.228 . S
O322 C321 1.228 . S
O323 Zn312 2.024 . S
O323 C314 1.058 . S
C324 O325 1.228 . S
C324 O326 1.267 . S
O325 C324 1.228 . S
O326 Zn313 1.969 1_545 S
O326 C324 1.267 . S
O327 Zn313 1.965 1_445 S
O327 C331 1.260 . S
O328 Zn312 1.969 . S
O328 C331 1.258 . S
O329 Zn313 2.024 . S
O329 C316 1.058 . S
C330 O319 1.260 1_655 S
C330 O320 1.258 . S
C331 O327 1.260 . S
C331 O328 1.258 . S
Zn332 O338 1.969 . S
Zn332 O339 1.965 1_565 S
Zn332 O343 2.024 . S
Zn332 O348 1.970 1_556 S
Zn333 O340 1.969 . S
Zn333 O346 1.969 . S
Zn333 O347 1.965 1_545 S
Zn333 O349 2.024 . S
C334 O335 1.229 . S
C334 O343 1.058 . S
O335 C334 1.229 . S
C336 O337 1.229 . S
C336 O349 1.058 . S
O337 C336 1.229 . S
O338 Zn332 1.969 . S
O338 C341 1.267 . S
O339 Zn332 1.965 1_545 S
O339 C350 1.260 . S
O340 Zn333 1.969 . S
O340 C350 1.258 1_554 S
C341 O338 1.267 . S
C341 O342 1.228 . S
O342 C341 1.228 . S
O343 Zn332 2.024 . S
O343 C334 1.058 . S
C344 O345 1.228 . S
C344 O346 1.267 . S
O345 C344 1.228 . S
O346 Zn333 1.969 . S
O346 C344 1.267 . S
O347 Zn333 1.965 1_565 S
O347 C351 1.260 . S
O348 Zn332 1.970 1_554 S
O348 C351 1.257 . S
O349 Zn333 2.024 . S
O349 C336 1.058 . S
C350 O339 1.260 . S
C350 O340 1.258 1_556 S
C351 O347 1.260 . S
C351 O348 1.257 . S
Zn352 O358 1.969 . S
Zn352 O359 1.965 . S
Zn352 O363 2.024 . S
Zn352 O368 1.969 . S
Zn353 O360 1.969 . S
Zn353 O366 1.969 . S
Zn353 O367 1.965 . S
Zn353 O369 2.024 . S
C354 O355 1.229 . S
C354 O363 1.058 . S
O355 C354 1.229 . S
C356 O357 1.229 . S
C356 O369 1.058 . S
O357 C356 1.229 . S
O358 Zn352 1.969 . S
O358 C361 1.267 . S
O359 Zn352 1.965 . S
O359 C370 1.260 . S
O360 Zn353 1.969 . S
O360 C370 1.258 . S
C361 O358 1.267 . S
C361 O362 1.228 . S
O362 C361 1.228 . S
O363 Zn352 2.024 . S
O363 C354 1.058 . S
C364 O365 1.228 . S
C364 O366 1.267 . S
O365 C364 1.228 . S
O366 Zn353 1.969 . S
O366 C364 1.267 . S
O367 Zn353 1.965 . S
O367 C371 1.260 . S
O368 Zn352 1.969 . S
O368 C371 1.258 . S
O369 Zn353 2.024 . S
O369 C356 1.058 . S
C370 O359 1.260 . S
C370 O360 1.258 . S
C371 O367 1.260 . S
C371 O368 1.258 . S
Zn372 O378 1.969 . S
Zn372 O379 1.965 1_556 S
Zn372 O383 2.024 . S
Zn372 O388 1.969 1_655 S
Zn373 O380 1.969 . S
Zn373 O386 1.969 . S
Zn373 O387 1.965 1_554 S
Zn373 O389 2.024 . S
C374 O375 1.229 . S
C374 O383 1.058 . S
O375 C374 1.229 . S
C376 O377 1.229 . S
C376 O389 1.058 . S
O377 C376 1.229 . S
O378 Zn372 1.969 . S
O378 C381 1.267 . S
O379 Zn372 1.965 1_554 S
O379 C390 1.260 . S
O380 Zn373 1.969 . S
O380 C390 1.258 1_455 S
C381 O378 1.267 . S
C381 O382 1.228 . S
O382 C381 1.228 . S
O383 Zn372 2.024 . S
O383 C374 1.058 . S
C384 O385 1.228 . S
C384 O386 1.267 . S
O385 C384 1.228 . S
O386 Zn373 1.969 . S
O386 C384 1.267 . S
O387 Zn373 1.965 1_556 S
O387 C391 1.260 . S
O388 Zn372 1.969 1_455 S
O388 C391 1.258 . S
O389 Zn373 2.024 . S
O389 C376 1.058 . S
C390 O379 1.260 . S
C390 O380 1.258 1_655 S
C391 O387 1.260 . S
C391 O388 1.258 . S
H392 C398 0.930 . S
H393 C401 0.930 . S
H394 C402 0.930 . S
H395 C403 0.930 . S
H396 C406 0.930 . S
H397 C407 0.930 . S
C398 H392 0.930 . S
C398 C399 1.355 . S
C398 C400 1.415 . S
C399 C398 1.355 . S
C399 C401 1.419 . S
C400 C398 1.415 . S
C400 C405 1.425 . S
C400 C407 1.409 . S
C401 H393 0.930 . S
C401 C399 1.419 . S
C401 C402 1.362 . S
C402 H394 0.930 . S
C402 C401 1.362 . S
C402 C405 1.409 . S
C403 H395 0.930 . S
C403 C404 1.355 . S
C403 C405 1.415 . S
C404 C403 1.355 . S
C404 C406 1.419 . S
C405 C400 1.425 . S
C405 C402 1.409 . S
C405 C403 1.415 . S
C406 H396 0.930 . S
C406 C404 1.419 . S
C406 C407 1.362 . S
C407 H397 0.930 . S
C407 C400 1.409 . S
C407 C406 1.362 . S
H408 C414 0.930 . S
H409 C417 0.930 . S
H410 C418 0.930 . S
H411 C419 0.930 . S
H412 C422 0.930 . S
H413 C423 0.930 . S
C414 H408 0.930 . S
C414 C415 1.355 . S
C414 C416 1.415 . S
C415 C414 1.355 . S
C415 C417 1.419 . S
C416 C414 1.415 . S
C416 C421 1.425 . S
C416 C423 1.409 . S
C417 H409 0.930 . S
C417 C415 1.419 . S
C417 C418 1.362 . S
C418 H410 0.930 . S
C418 C417 1.362 . S
C418 C421 1.409 . S
C419 H411 0.930 . S
C419 C420 1.355 . S
C419 C421 1.415 . S
C420 C419 1.355 . S
C420 C422 1.419 . S
C421 C416 1.425 . S
C421 C418 1.409 . S
C421 C419 1.415 . S
C422 H412 0.930 . S
C422 C420 1.419 . S
C422 C423 1.362 . S
C423 H413 0.930 . S
C423 C416 1.409 . S
C423 C422 1.362 . S
H424 C430 0.930 . S
H425 C433 0.930 . S
H426 C434 0.930 . S
H427 C435 0.930 . S
H428 C438 0.930 . S
H429 C439 0.930 . S
C430 H424 0.930 . S
C430 C431 1.355 . S
C430 C432 1.415 . S
C431 C430 1.355 . S
C431 C433 1.419 . S
C432 C430 1.415 . S
C432 C437 1.425 . S
C432 C439 1.409 . S
C433 H425 0.930 . S
C433 C431 1.419 . S
C433 C434 1.362 . S
C434 H426 0.930 . S
C434 C433 1.362 . S
C434 C437 1.409 . S
C435 H427 0.930 . S
C435 C436 1.355 . S
C435 C437 1.415 . S
C436 C435 1.355 . S
C436 C438 1.419 . S
C437 C432 1.425 . S
C437 C434 1.409 . S
C437 C435 1.415 . S
C438 H428 0.930 . S
C438 C436 1.419 . S
C438 C439 1.362 . S
C439 H429 0.930 . S
C439 C432 1.409 . S
C439 C438 1.362 . S
H440 C446 0.930 . S
H441 C449 0.930 . S
H442 C450 0.930 . S
H443 C451 0.930 . S
H444 C454 0.930 . S
H445 C455 0.930 . S
C446 H440 0.930 . S
C446 C447 1.355 . S
C446 C448 1.415 . S
C447 C446 1.355 . S
C447 C449 1.419 . S
C448 C446 1.415 . S
C448 C453 1.425 . S
C448 C455 1.409 . S
C449 H441 0.930 . S
C449 C447 1.419 . S
C449 C450 1.362 . S
C450 H442 0.930 . S
C450 C449 1.362 . S
C450 C453 1.409 . S
C451 H443 0.930 . S
C451 C452 1.355 . S
C451 C453 1.415 . S
C452 C451 1.355 . S
C452 C454 1.419 . S
C453 C448 1.425 . S
C453 C450 1.409 . S
C453 C451 1.415 . S
C454 H444 0.930 . S
C454 C452 1.419 . S
C454 C455 1.362 . S
C455 H445 0.930 . S
C455 C448 1.409 . S
C455 C454 1.362 . S
H456 C462 0.930 . S
H457 C465 0.930 . S
H458 C466 0.930 . S
H459 C467 0.930 . S
H460 C470 0.930 . S
H461 C471 0.930 . S
C462 H456 0.930 . S
C462 C463 1.355 . S
C462 C464 1.415 . S
C463 C462 1.355 . S
C463 C465 1.419 . S
C464 C462 1.415 . S
C464 C469 1.425 . S
C464 C471 1.409 . S
C465 H457 0.930 . S
C465 C463 1.419 . S
C465 C466 1.362 . S
C466 H458 0.930 . S
C466 C465 1.362 . S
C466 C469 1.409 . S
C467 H459 0.930 . S
C467 C468 1.355 . S
C467 C469 1.415 . S
C468 C467 1.355 . S
C468 C470 1.419 . S
C469 C464 1.425 . S
C469 C466 1.409 . S
C469 C467 1.415 . S
C470 H460 0.930 . S
C470 C468 1.419 . S
C470 C471 1.362 . S
C471 H461 0.930 . S
C471 C464 1.409 . S
C471 C470 1.362 . S
H472 C478 0.930 . S
H473 C481 0.930 . S
H474 C482 0.930 . S
H475 C483 0.930 . S
H476 C486 0.930 . S
H477 C487 0.930 . S
C478 H472 0.930 . S
C478 C479 1.355 . S
C478 C480 1.415 . S
C479 C478 1.355 . S
C479 C481 1.419 . S
C480 C478 1.415 . S
C480 C485 1.425 . S
C480 C487 1.409 . S
C481 H473 0.930 . S
C481 C479 1.419 . S
C481 C482 1.362 . S
C482 H474 0.930 . S
C482 C481 1.362 . S
C482 C485 1.409 . S
C483 H475 0.930 . S
C483 C484 1.355 . S
C483 C485 1.415 . S
C484 C483 1.355 . S
C484 C486 1.419 . S
C485 C480 1.425 . S
C485 C482 1.409 . S
C485 C483 1.415 . S
C486 H476 0.930 . S
C486 C484 1.419 . S
C486 C487 1.362 . S
C487 H477 0.930 . S
C487 C480 1.409 . S
C487 C486 1.362 . S
H488 C494 0.930 . S
H489 C497 0.930 . S
H490 C498 0.930 . S
H491 C499 0.930 . S
H492 C502 0.930 . S
H493 C503 0.930 . S
C494 H488 0.930 . S
C494 C495 1.355 . S
C494 C496 1.415 . S
C495 C494 1.355 . S
C495 C497 1.419 . S
C496 C494 1.415 . S
C496 C501 1.425 . S
C496 C503 1.409 . S
C497 H489 0.930 . S
C497 C495 1.419 . S
C497 C498 1.362 . S
C498 H490 0.930 . S
C498 C497 1.362 . S
C498 C501 1.409 . S
C499 H491 0.930 . S
C499 C500 1.355 . S
C499 C501 1.415 . S
C500 C499 1.355 . S
C500 C502 1.419 . S
C501 C496 1.425 . S
C501 C498 1.409 . S
C501 C499 1.415 . S
C502 H492 0.930 . S
C502 C500 1.419 . S
C502 C503 1.362 . S
C503 H493 0.930 . S
C503 C496 1.409 . S
C503 C502 1.362 . S
H504 C510 0.930 . S
H505 C513 0.930 . S
H506 C514 0.930 . S
H507 C515 0.930 . S
H508 C518 0.930 . S
H509 C519 0.930 . S
C510 H504 0.930 . S
C510 C511 1.355 . S
C510 C512 1.415 . S
C511 C510 1.355 . S
C511 C513 1.419 . S
C512 C510 1.415 . S
C512 C517 1.425 . S
C512 C519 1.409 . S
C513 H505 0.930 . S
C513 C511 1.419 . S
C513 C514 1.362 . S
C514 H506 0.930 . S
C514 C513 1.362 . S
C514 C517 1.409 . S
C515 H507 0.930 . S
C515 C516 1.355 . S
C515 C517 1.415 . S
C516 C515 1.355 . S
C516 C518 1.419 . S
C517 C512 1.425 . S
C517 C514 1.409 . S
C517 C515 1.415 . S
C518 H508 0.930 . S
C518 C516 1.419 . S
C518 C519 1.362 . S
C519 H509 0.930 . S
C519 C512 1.409 . S
C519 C518 1.362 . S
H520 C526 0.930 . S
H521 C529 0.930 . S
H522 C530 0.930 . S
H523 C531 0.930 . S
H524 C534 0.930 . S
H525 C535 0.930 . S
C526 H520 0.930 . S
C526 C527 1.355 . S
C526 C528 1.415 . S
C527 C526 1.355 . S
C527 C529 1.419 . S
C528 C526 1.415 . S
C528 C533 1.425 . S
C528 C535 1.409 . S
C529 H521 0.930 . S
C529 C527 1.419 . S
C529 C530 1.362 . S
C530 H522 0.930 . S
C530 C529 1.362 . S
C530 C533 1.409 . S
C531 H523 0.930 . S
C531 C532 1.355 . S
C531 C533 1.415 . S
C532 C531 1.355 . S
C532 C534 1.419 . S
C533 C528 1.425 . S
C533 C530 1.409 . S
C533 C531 1.415 . S
C534 H524 0.930 . S
C534 C532 1.419 . S
C534 C535 1.362 . S
C535 H525 0.930 . S
C535 C528 1.409 . S
C535 C534 1.362 . S
H536 C542 0.930 . S
H537 C545 0.930 . S
H538 C546 0.930 . S
H539 C547 0.930 . S
H540 C550 0.930 . S
H541 C551 0.930 . S
C542 H536 0.930 . S
C542 C543 1.355 . S
C542 C544 1.415 . S
C543 C542 1.355 . S
C543 C545 1.419 . S
C544 C542 1.415 . S
C544 C549 1.425 . S
C544 C551 1.409 . S
C545 H537 0.930 . S
C545 C543 1.419 . S
C545 C546 1.362 . S
C546 H538 0.930 . S
C546 C545 1.362 . S
C546 C549 1.409 . S
C547 H539 0.930 . S
C547 C548 1.355 . S
C547 C549 1.415 . S
C548 C547 1.355 . S
C548 C550 1.419 . S
C549 C544 1.425 . S
C549 C546 1.409 . S
C549 C547 1.415 . S
C550 H540 0.930 . S
C550 C548 1.419 . S
C550 C551 1.362 . S
C551 H541 0.930 . S
C551 C544 1.409 . S
C551 C550 1.362 . S
H552 C558 0.930 . S
H553 C561 0.930 . S
H554 C562 0.930 . S
H555 C563 0.930 . S
H556 C566 0.930 . S
H557 C567 0.930 . S
C558 H552 0.930 . S
C558 C559 1.355 . S
C558 C560 1.415 . S
C559 C558 1.355 . S
C559 C561 1.419 . S
C560 C558 1.415 . S
C560 C565 1.425 . S
C560 C567 1.409 . S
C561 H553 0.930 . S
C561 C559 1.419 . S
C561 C562 1.362 . S
C562 H554 0.930 . S
C562 C561 1.362 . S
C562 C565 1.409 . S
C563 H555 0.930 . S
C563 C564 1.355 . S
C563 C565 1.415 . S
C564 C563 1.355 . S
C564 C566 1.419 . S
C565 C560 1.425 . S
C565 C562 1.409 . S
C565 C563 1.415 . S
C566 H556 0.930 . S
C566 C564 1.419 . S
C566 C567 1.362 . S
C567 H557 0.930 . S
C567 C560 1.409 . S
C567 C566 1.362 . S
H568 C574 0.930 . S
H569 C577 0.930 . S
H570 C578 0.930 . S
H571 C579 0.930 . S
H572 C582 0.930 . S
H573 C583 0.930 . S
C574 H568 0.930 . S
C574 C575 1.355 . S
C574 C576 1.415 . S
C575 C574 1.355 . S
C575 C577 1.419 . S
C576 C574 1.415 . S
C576 C581 1.425 . S
C576 C583 1.409 . S
C577 H569 0.930 . S
C577 C575 1.419 . S
C577 C578 1.362 . S
C578 H570 0.930 . S
C578 C577 1.362 . S
C578 C581 1.409 . S
C579 H571 0.930 . S
C579 C580 1.355 . S
C579 C581 1.415 . S
C580 C579 1.355 . S
C580 C582 1.419 . S
C581 C576 1.425 . S
C581 C578 1.409 . S
C581 C579 1.415 . S
C582 H572 0.930 . S
C582 C580 1.419 . S
C582 C583 1.362 . S
C583 H573 0.930 . S
C583 C576 1.409 . S
C583 C582 1.362 . S
H584 C590 0.930 . S
H585 C593 0.930 . S
H586 C594 0.930 . S
H587 C595 0.930 . S
H588 C598 0.930 . S
H589 C599 0.930 . S
C590 H584 0.930 . S
C590 C591 1.355 . S
C590 C592 1.415 . S
C591 C590 1.355 . S
C591 C593 1.419 . S
C592 C590 1.415 . S
C592 C597 1.425 . S
C592 C599 1.409 . S
C593 H585 0.930 . S
C593 C591 1.419 . S
C593 C594 1.362 . S
C594 H586 0.930 . S
C594 C593 1.362 . S
C594 C597 1.409 . S
C595 H587 0.930 . S
C595 C596 1.355 . S
C595 C597 1.415 . S
C596 C595 1.355 . S
C596 C598 1.419 . S
C597 C592 1.425 . S
C597 C594 1.409 . S
C597 C595 1.415 . S
C598 H588 0.930 . S
C598 C596 1.419 . S
C598 C599 1.362 . S
C599 H589 0.930 . S
C599 C592 1.409 . S
C599 C598 1.362 . S
H600 C606 0.930 . S
H601 C609 0.930 . S
H602 C610 0.930 . S
H603 C611 0.930 . S
H604 C614 0.930 . S
H605 C615 0.930 . S
C606 H600 0.930 . S
C606 C607 1.355 . S
C606 C608 1.415 . S
C607 C606 1.355 . S
C607 C609 1.419 . S
C608 C606 1.415 . S
C608 C613 1.425 . S
C608 C615 1.409 . S
C609 H601 0.930 . S
C609 C607 1.419 . S
C609 C610 1.362 . S
C610 H602 0.930 . S
C610 C609 1.362 . S
C610 C613 1.409 . S
C611 H603 0.930 . S
C611 C612 1.355 . S
C611 C613 1.415 . S
C612 C611 1.355 . S
C612 C614 1.419 . S
C613 C608 1.425 . S
C613 C610 1.409 . S
C613 C611 1.415 . S
C614 H604 0.930 . S
C614 C612 1.419 . S
C614 C615 1.362 . S
C615 H605 0.930 . S
C615 C608 1.409 . S
C615 C614 1.362 . S
H616 C622 0.930 . S
H617 C625 0.930 . S
H618 C626 0.930 . S
H619 C627 0.930 . S
H620 C630 0.930 . S
H621 C631 0.930 . S
C622 H616 0.930 . S
C622 C623 1.355 . S
C622 C624 1.415 . S
C623 C622 1.355 . S
C623 C625 1.419 . S
C624 C622 1.415 . S
C624 C629 1.425 . S
C624 C631 1.409 . S
C625 H617 0.930 . S
C625 C623 1.419 . S
C625 C626 1.362 . S
C626 H618 0.930 . S
C626 C625 1.362 . S
C626 C629 1.409 . S
C627 H619 0.930 . S
C627 C628 1.355 . S
C627 C629 1.415 . S
C628 C627 1.355 . S
C628 C630 1.419 . S
C629 C624 1.425 . S
C629 C626 1.409 . S
C629 C627 1.415 . S
C630 H620 0.930 . S
C630 C628 1.419 . S
C630 C631 1.362 . S
C631 H621 0.930 . S
C631 C624 1.409 . S
C631 C630 1.362 . S
H632 C638 0.930 . S
H633 C641 0.930 . S
H634 C642 0.930 . S
H635 C643 0.930 . S
H636 C646 0.930 . S
H637 C647 0.930 . S
C638 H632 0.930 . S
C638 C639 1.355 . S
C638 C640 1.415 . S
C639 C638 1.355 . S
C639 C641 1.419 . S
C640 C638 1.415 . S
C640 C645 1.425 . S
C640 C647 1.409 . S
C641 H633 0.930 . S
C641 C639 1.419 . S
C641 C642 1.362 . S
C642 H634 0.930 . S
C642 C641 1.362 . S
C642 C645 1.409 . S
C643 H635 0.930 . S
C643 C644 1.355 . S
C643 C645 1.415 . S
C644 C643 1.355 . S
C644 C646 1.419 . S
C645 C640 1.425 . S
C645 C642 1.409 . S
C645 C643 1.415 . S
C646 H636 0.930 . S
C646 C644 1.419 . S
C646 C647 1.362 . S
C647 H637 0.930 . S
C647 C640 1.409 . S
C647 C646 1.362 . S
H648 C654 0.930 . S
H649 C657 0.930 . S
H650 C658 0.930 . S
H651 C659 0.930 . S
H652 C662 0.930 . S
H653 C663 0.930 . S
C654 H648 0.930 . S
C654 C655 1.355 . S
C654 C656 1.415 . S
C655 C654 1.355 . S
C655 C657 1.419 . S
C656 C654 1.415 . S
C656 C661 1.425 . S
C656 C663 1.409 . S
C657 H649 0.930 . S
C657 C655 1.419 . S
C657 C658 1.362 . S
C658 H650 0.930 . S
C658 C657 1.362 . S
C658 C661 1.409 . S
C659 H651 0.930 . S
C659 C660 1.355 . S
C659 C661 1.415 . S
C660 C659 1.355 . S
C660 C662 1.419 . S
C661 C656 1.425 . S
C661 C658 1.409 . S
C661 C659 1.415 . S
C662 H652 0.930 . S
C662 C660 1.419 . S
C662 C663 1.362 . S
C663 H653 0.930 . S
C663 C656 1.409 . S
C663 C662 1.362 . S
H664 C670 0.930 . S
H665 C673 0.930 . S
H666 C674 0.930 . S
H667 C675 0.930 . S
H668 C678 0.930 . S
H669 C679 0.930 . S
C670 H664 0.930 . S
C670 C671 1.355 . S
C670 C672 1.415 . S
C671 C670 1.355 . S
C671 C673 1.419 . S
C672 C670 1.415 . S
C672 C677 1.425 . S
C672 C679 1.409 . S
C673 H665 0.930 . S
C673 C671 1.419 . S
C673 C674 1.362 . S
C674 H666 0.930 . S
C674 C673 1.362 . S
C674 C677 1.409 . S
C675 H667 0.930 . S
C675 C676 1.355 . S
C675 C677 1.415 . S
C676 C675 1.355 . S
C676 C678 1.419 . S
C677 C672 1.425 . S
C677 C674 1.409 . S
C677 C675 1.415 . S
C678 H668 0.930 . S
C678 C676 1.419 . S
C678 C679 1.362 . S
C679 H669 0.930 . S
C679 C672 1.409 . S
C679 C678 1.362 . S
H680 C686 0.930 . S
H681 C689 0.930 . S
H682 C690 0.930 . S
H683 C691 0.930 . S
H684 C694 0.930 . S
H685 C695 0.930 . S
C686 H680 0.930 . S
C686 C687 1.355 . S
C686 C688 1.415 . S
C687 C686 1.355 . S
C687 C689 1.419 . S
C688 C686 1.415 . S
C688 C693 1.425 . S
C688 C695 1.409 . S
C689 H681 0.930 . S
C689 C687 1.419 . S
C689 C690 1.362 . S
C690 H682 0.930 . S
C690 C689 1.362 . S
C690 C693 1.409 . S
C691 H683 0.930 . S
C691 C692 1.355 . S
C691 C693 1.415 . S
C692 C691 1.355 . S
C692 C694 1.419 . S
C693 C688 1.425 . S
C693 C690 1.409 . S
C693 C691 1.415 . S
C694 H684 0.930 . S
C694 C692 1.419 . S
C694 C695 1.362 . S
C695 H685 0.930 . S
C695 C688 1.409 . S
C695 C694 1.362 . S
H696 C702 0.930 . S
H697 C705 0.930 . S
H698 C706 0.930 . S
H699 C707 0.930 . S
H700 C710 0.930 . S
H701 C711 0.930 . S
C702 H696 0.930 . S
C702 C703 1.355 . S
C702 C704 1.415 . S
C703 C702 1.355 . S
C703 C705 1.419 . S
C704 C702 1.415 . S
C704 C709 1.425 . S
C704 C711 1.409 . S
C705 H697 0.930 . S
C705 C703 1.419 . S
C705 C706 1.362 . S
C706 H698 0.930 . S
C706 C705 1.362 . S
C706 C709 1.409 . S
C707 H699 0.930 . S
C707 C708 1.355 . S
C707 C709 1.415 . S
C708 C707 1.355 . S
C708 C710 1.419 . S
C709 C704 1.425 . S
C709 C706 1.409 . S
C709 C707 1.415 . S
C710 H700 0.930 . S
C710 C708 1.419 . S
C710 C711 1.362 . S
C711 H701 0.930 . S
C711 C704 1.409 . S
C711 C710 1.362 . S
H712 C718 0.930 . S
H713 C721 0.930 . S
H714 C722 0.930 . S
H715 C723 0.930 . S
H716 C726 0.930 . S
H717 C727 0.930 . S
C718 H712 0.930 . S
C718 C719 1.355 . S
C718 C720 1.415 . S
C719 C718 1.355 . S
C719 C721 1.419 . S
C720 C718 1.415 . S
C720 C725 1.425 . S
C720 C727 1.409 . S
C721 H713 0.930 . S
C721 C719 1.419 . S
C721 C722 1.362 . S
C722 H714 0.930 . S
C722 C721 1.362 . S
C722 C725 1.409 . S
C723 H715 0.930 . S
C723 C724 1.355 . S
C723 C725 1.415 . S
C724 C723 1.355 . S
C724 C726 1.419 . S
C725 C720 1.425 . S
C725 C722 1.409 . S
C725 C723 1.415 . S
C726 H716 0.930 . S
C726 C724 1.419 . S
C726 C727 1.362 . S
C727 H717 0.930 . S
C727 C720 1.409 . S
C727 C726 1.362 . S
H728 C734 0.930 . S
H729 C737 0.930 . S
H730 C738 0.930 . S
H731 C739 0.930 . S
H732 C742 0.930 . S
H733 C743 0.930 . S
C734 H728 0.930 . S
C734 C735 1.355 . S
C734 C736 1.415 . S
C735 C734 1.355 . S
C735 C737 1.419 . S
C736 C734 1.415 . S
C736 C741 1.425 . S
C736 C743 1.409 . S
C737 H729 0.930 . S
C737 C735 1.419 . S
C737 C738 1.362 . S
C738 H730 0.930 . S
C738 C737 1.362 . S
C738 C741 1.409 . S
C739 H731 0.930 . S
C739 C740 1.355 . S
C739 C741 1.415 . S
C740 C739 1.355 . S
C740 C742 1.419 . S
C741 C736 1.425 . S
C741 C738 1.409 . S
C741 C739 1.415 . S
C742 H732 0.930 . S
C742 C740 1.419 . S
C742 C743 1.362 . S
C743 H733 0.930 . S
C743 C736 1.409 . S
C743 C742 1.362 . S
H744 C750 0.930 . S
H745 C753 0.930 . S
H746 C754 0.930 . S
H747 C755 0.930 . S
H748 C758 0.930 . S
H749 C759 0.930 . S
C750 H744 0.930 . S
C750 C751 1.355 . S
C750 C752 1.415 . S
C751 C750 1.355 . S
C751 C753 1.419 . S
C752 C750 1.415 . S
C752 C757 1.425 . S
C752 C759 1.409 . S
C753 H745 0.930 . S
C753 C751 1.419 . S
C753 C754 1.362 . S
C754 H746 0.930 . S
C754 C753 1.362 . S
C754 C757 1.409 . S
C755 H747 0.930 . S
C755 C756 1.355 . S
C755 C757 1.415 . S
C756 C755 1.355 . S
C756 C758 1.419 . S
C757 C752 1.425 . S
C757 C754 1.409 . S
C757 C755 1.415 . S
C758 H748 0.930 . S
C758 C756 1.419 . S
C758 C759 1.362 . S
C759 H749 0.930 . S
C759 C752 1.409 . S
C759 C758 1.362 . S
H760 C766 0.930 . S
H761 C769 0.930 . S
H762 C770 0.930 . S
H763 C771 0.930 . S
H764 C774 0.930 . S
H765 C775 0.930 . S
C766 H760 0.930 . S
C766 C767 1.355 . S
C766 C768 1.415 . S
C767 C766 1.355 . S
C767 C769 1.419 . S
C768 C766 1.415 . S
C768 C773 1.425 . S
C768 C775 1.409 . S
C769 H761 0.930 . S
C769 C767 1.419 . S
C769 C770 1.362 . S
C770 H762 0.930 . S
C770 C769 1.362 . S
C770 C773 1.409 . S
C771 H763 0.930 . S
C771 C772 1.355 . S
C771 C773 1.415 . S
C772 C771 1.355 . S
C772 C774 1.419 . S
C773 C768 1.425 . S
C773 C770 1.409 . S
C773 C771 1.415 . S
C774 H764 0.930 . S
C774 C772 1.419 . S
C774 C775 1.362 . S
C775 H765 0.930 . S
C775 C768 1.409 . S
C775 C774 1.362 . S
C399 C1 1.502 . S
C404 C331 1.470 . S
C415 C40 1.283 . S
C420 C334 1.273 . S
C436 C370 1.746 . S
C431 C99 1.793 . S
C447 C118 1.670 . S
C452 C390 1.629 . S
C468 C344 1.676 . S
C463 C16 1.716 . S
C484 C321 1.493 . S
C479 C60 1.511 . S
C500 C374 1.531 . S
C495 C79 1.679 . S
C516 C354 1.362 . S
C511 C138 1.451 . S
C527 C21 1.375 . S
C532 C384 1.346 . S
C548 C350 1.641 . S
C543 C94 1.655 . S
C559 C133 1.640 . S
C564 C316 1.553 . S
C575 C55 1.335 . S
C580 C364 1.307 . S
C596 C330 1.480 . S
C591 C157 1.531 . S
C607 C196 1.302 . S
C612 C336 1.254 . S
C623 C255 1.777 . S
C628 C371 1.781 . S
C639 C289 1.661 . S
C644 C391 1.627 . S
C655 C172 1.692 . S
C660 C341 1.652 . S
C676 C324 1.470 . S
C671 C216 1.512 . S
C692 C376 1.561 . S
C687 C235 1.689 . S
C708 C356 1.372 . S
C703 C294 1.458 . S
C719 C177 1.384 . S
C724 C381 1.349 . S
C740 C351 1.645 . S
C735 C250 1.655 . S
C756 C314 1.613 . S
C751 C274 1.630 . S
C767 C211 1.328 . S
C772 C361 1.263 . S
