# Generated by pormake.
# Topology ctn, (3,4)-cn, num edge types: 1
# Building blocks:
#     Node 0, Type 0, BuildingBlock: PAMTOO_clean_linker_0, # of connection points: 3
#     Node 1, Type 0, BuildingBlock: PAMTOO_clean_linker_0, # of connection points: 3
#     Node 2, Type 0, BuildingBlock: PAMTOO_clean_linker_0, # of connection points: 3
#     Node 3, Type 0, BuildingBlock: PAMTOO_clean_linker_0, # of connection points: 3
#     Node 4, Type 0, BuildingBlock: PAMTOO_clean_linker_0, # of connection points: 3
#     Node 5, Type 0, BuildingBlock: PAMTOO_clean_linker_0, # of connection points: 3
#     Node 6, Type 0, BuildingBlock: PAMTOO_clean_linker_0, # of connection points: 3
#     Node 7, Type 0, BuildingBlock: PAMTOO_clean_linker_0, # of connection points: 3
#     Node 8, Type 0, BuildingBlock: PAMTOO_clean_linker_0, # of connection points: 3
#     Node 9, Type 0, BuildingBlock: PAMTOO_clean_linker_0, # of connection points: 3
#     Node 10, Type 0, BuildingBlock: PAMTOO_clean_linker_0, # of connection points: 3
#     Node 11, Type 0, BuildingBlock: PAMTOO_clean_linker_0, # of connection points: 3
#     Node 12, Type 0, BuildingBlock: PAMTOO_clean_linker_0, # of connection points: 3
#     Node 13, Type 0, BuildingBlock: PAMTOO_clean_linker_0, # of connection points: 3
#     Node 14, Type 0, BuildingBlock: PAMTOO_clean_linker_0, # of connection points: 3
#     Node 15, Type 0, BuildingBlock: PAMTOO_clean_linker_0, # of connection points: 3
#     Node 16, Type 1, BuildingBlock: NAHDIM_clean_sbu_0, # of connection points: 4
#     Node 17, Type 1, BuildingBlock: NAHDIM_clean_sbu_0, # of connection points: 4
#     Node 18, Type 1, BuildingBlock: NAHDIM_clean_sbu_0, # of connection points: 4
#     Node 19, Type 1, BuildingBlock: NAHDIM_clean_sbu_0, # of connection points: 4
#     Node 20, Type 1, BuildingBlock: NAHDIM_clean_sbu_0, # of connection points: 4
#     Node 21, Type 1, BuildingBlock: NAHDIM_clean_sbu_0, # of connection points: 4
#     Node 22, Type 1, BuildingBlock: NAHDIM_clean_sbu_0, # of connection points: 4
#     Node 23, Type 1, BuildingBlock: NAHDIM_clean_sbu_0, # of connection points: 4
#     Node 24, Type 1, BuildingBlock: NAHDIM_clean_sbu_0, # of connection points: 4
#     Node 25, Type 1, BuildingBlock: NAHDIM_clean_sbu_0, # of connection points: 4
#     Node 26, Type 1, BuildingBlock: NAHDIM_clean_sbu_0, # of connection points: 4
#     Node 27, Type 1, BuildingBlock: NAHDIM_clean_sbu_0, # of connection points: 4
#     Edge 28, Type (0, 1), BuildingBlock: AJUNOK_clean_linker_0, # of connection points: 2
#     Edge 29, Type (0, 1), BuildingBlock: AJUNOK_clean_linker_0, # of connection points: 2
#     Edge 30, Type (0, 1), BuildingBlock: AJUNOK_clean_linker_0, # of connection points: 2
#     Edge 31, Type (0, 1), BuildingBlock: AJUNOK_clean_linker_0, # of connection points: 2
#     Edge 32, Type (0, 1), BuildingBlock: AJUNOK_clean_linker_0, # of connection points: 2
#     Edge 33, Type (0, 1), BuildingBlock: AJUNOK_clean_linker_0, # of connection points: 2
#     Edge 34, Type (0, 1), BuildingBlock: AJUNOK_clean_linker_0, # of connection points: 2
#     Edge 35, Type (0, 1), BuildingBlock: AJUNOK_clean_linker_0, # of connection points: 2
#     Edge 36, Type (0, 1), BuildingBlock: AJUNOK_clean_linker_0, # of connection points: 2
#     Edge 37, Type (0, 1), BuildingBlock: AJUNOK_clean_linker_0, # of connection points: 2
#     Edge 38, Type (0, 1), BuildingBlock: AJUNOK_clean_linker_0, # of connection points: 2
#     Edge 39, Type (0, 1), BuildingBlock: AJUNOK_clean_linker_0, # of connection points: 2
#     Edge 40, Type (0, 1), BuildingBlock: AJUNOK_clean_linker_0, # of connection points: 2
#     Edge 41, Type (0, 1), BuildingBlock: AJUNOK_clean_linker_0, # of connection points: 2
#     Edge 42, Type (0, 1), BuildingBlock: AJUNOK_clean_linker_0, # of connection points: 2
#     Edge 43, Type (0, 1), BuildingBlock: AJUNOK_clean_linker_0, # of connection points: 2
#     Edge 44, Type (0, 1), BuildingBlock: AJUNOK_clean_linker_0, # of connection points: 2
#     Edge 45, Type (0, 1), BuildingBlock: AJUNOK_clean_linker_0, # of connection points: 2
#     Edge 46, Type (0, 1), BuildingBlock: AJUNOK_clean_linker_0, # of connection points: 2
#     Edge 47, Type (0, 1), BuildingBlock: AJUNOK_clean_linker_0, # of connection points: 2
#     Edge 48, Type (0, 1), BuildingBlock: AJUNOK_clean_linker_0, # of connection points: 2
#     Edge 49, Type (0, 1), BuildingBlock: AJUNOK_clean_linker_0, # of connection points: 2
#     Edge 50, Type (0, 1), BuildingBlock: AJUNOK_clean_linker_0, # of connection points: 2
#     Edge 51, Type (0, 1), BuildingBlock: AJUNOK_clean_linker_0, # of connection points: 2
#     Edge 52, Type (0, 1), BuildingBlock: AJUNOK_clean_linker_0, # of connection points: 2
#     Edge 53, Type (0, 1), BuildingBlock: AJUNOK_clean_linker_0, # of connection points: 2
#     Edge 54, Type (0, 1), BuildingBlock: AJUNOK_clean_linker_0, # of connection points: 2
#     Edge 55, Type (0, 1), BuildingBlock: AJUNOK_clean_linker_0, # of connection points: 2
#     Edge 56, Type (0, 1), BuildingBlock: AJUNOK_clean_linker_0, # of connection points: 2
#     Edge 57, Type (0, 1), BuildingBlock: AJUNOK_clean_linker_0, # of connection points: 2
#     Edge 58, Type (0, 1), BuildingBlock: AJUNOK_clean_linker_0, # of connection points: 2
#     Edge 59, Type (0, 1), BuildingBlock: AJUNOK_clean_linker_0, # of connection points: 2
#     Edge 60, Type (0, 1), BuildingBlock: AJUNOK_clean_linker_0, # of connection points: 2
#     Edge 61, Type (0, 1), BuildingBlock: AJUNOK_clean_linker_0, # of connection points: 2
#     Edge 62, Type (0, 1), BuildingBlock: AJUNOK_clean_linker_0, # of connection points: 2
#     Edge 63, Type (0, 1), BuildingBlock: AJUNOK_clean_linker_0, # of connection points: 2
#     Edge 64, Type (0, 1), BuildingBlock: AJUNOK_clean_linker_0, # of connection points: 2
#     Edge 65, Type (0, 1), BuildingBlock: AJUNOK_clean_linker_0, # of connection points: 2
#     Edge 66, Type (0, 1), BuildingBlock: AJUNOK_clean_linker_0, # of connection points: 2
#     Edge 67, Type (0, 1), BuildingBlock: AJUNOK_clean_linker_0, # of connection points: 2
#     Edge 68, Type (0, 1), BuildingBlock: AJUNOK_clean_linker_0, # of connection points: 2
#     Edge 69, Type (0, 1), BuildingBlock: AJUNOK_clean_linker_0, # of connection points: 2
#     Edge 70, Type (0, 1), BuildingBlock: AJUNOK_clean_linker_0, # of connection points: 2
#     Edge 71, Type (0, 1), BuildingBlock: AJUNOK_clean_linker_0, # of connection points: 2
#     Edge 72, Type (0, 1), BuildingBlock: AJUNOK_clean_linker_0, # of connection points: 2
#     Edge 73, Type (0, 1), BuildingBlock: AJUNOK_clean_linker_0, # of connection points: 2
#     Edge 74, Type (0, 1), BuildingBlock: AJUNOK_clean_linker_0, # of connection points: 2
#     Edge 75, Type (0, 1), BuildingBlock: AJUNOK_clean_linker_0, # of connection points: 2
# Relax obj value: 0.066
# Max RMSD: 0.180
# Mean RMSD: 0.111
data_MOF--net-ctn--node1-NAHDIM_clean_sbu_0--node2-PAMTOO_clean_linker_0--edge1-AJUNOK_clean_linker_0
_symmetry_space_group_name_H-M    P1
_symmetry_Int_Tables_number       1
_symmetry_cell_setting            triclinic
loop_
_symmetry_equiv_pos_as_xyz
'x, y, z'
_cell_length_a     38.781399
_cell_length_b     39.343551
_cell_length_c     39.569479
_cell_angle_alpha  85.936829
_cell_angle_beta   92.46086
_cell_angle_gamma 100.50572
loop_
_atom_site_label
_atom_site_type_symbol
_atom_site_fract_x
_atom_site_fract_y
_atom_site_fract_z
_atom_type_partial_charge
H0 H 0.98907 0.10043 0.06439 0.0
H1 H 0.04851 0.02004 0.09468 0.0
H2 H 0.06567 0.07636 0.99867 0.0
H3 H 0.05496 0.99883 1.00063 0.0
C4 C 0.07242 0.9952 0.02316 0.0
O5 O 0.08244 0.02596 0.03859 0.0
H6 H 0.05721 0.97563 0.04111 0.0
C7 C 0.00871 0.08519 0.05942 0.0
C8 C 0.0273 0.09244 0.02926 0.0
C9 C 0.0156 0.05876 0.08328 0.0
C10 C 0.04155 0.03964 0.07638 0.0
C11 C 0.0589 0.04563 0.04568 0.0
C12 C 0.05192 0.07199 0.02229 0.0
H13 H 0.31608 0.67203 0.29183 0.0
H14 H 0.26478 0.70224 0.19871 0.0
H15 H 0.35661 0.76819 0.23593 0.0
H16 H 0.30121 0.80501 0.20767 0.0
C17 C 0.28832 0.78623 0.18929 0.0
O18 O 0.30804 0.76053 0.18794 0.0
H19 H 0.26159 0.77495 0.19828 0.0
C20 C 0.31453 0.69043 0.27035 0.0
C21 C 0.33993 0.72092 0.26702 0.0
C22 C 0.28688 0.68373 0.24617 0.0
C23 C 0.2855 0.70721 0.21796 0.0
C24 C 0.31053 0.73753 0.21449 0.0
C25 C 0.33766 0.74433 0.23883 0.0
H26 H 0.97186 0.52282 0.12038 0.0
H27 H 0.94642 0.47769 0.02446 0.0
H28 H 0.02973 0.44776 0.08757 0.0
H29 H 0.04603 0.4561 0.01574 0.0
C30 C 0.01904 0.45047 1.00437 0.0
O31 O 0.99529 0.4397 0.02966 0.0
H32 H 0.013 0.47466 0.99105 0.0
C33 C 0.97674 0.50542 0.10182 0.0
C34 C 1.00338 0.48548 0.10807 0.0
C35 C 0.95572 0.50236 0.07196 0.0
C36 C 0.96231 0.48021 0.04767 0.0
C37 C 0.98933 0.46111 0.05314 0.0
C38 C 0.00956 0.4635 0.08332 0.0
H39 H 0.71907 0.85252 0.27138 0.0
H40 H 0.68802 0.75355 0.22804 0.0
H41 H 0.78582 0.81771 0.20192 0.0
H42 H 0.73919 0.78814 0.14688 0.0
C43 C 0.73353 0.76094 0.15797 0.0
O44 O 0.74378 0.75953 0.19176 0.0
H45 H 0.7047 0.75192 0.15542 0.0
C46 C 0.7242 0.83311 0.25507 0.0
C47 C 0.75582 0.83862 0.2377 0.0
C48 C 0.69926 0.80264 0.25159 0.0
C49 C 0.70642 0.77757 0.23057 0.0
C50 C 0.73751 0.78322 0.2127 0.0
C51 C 0.76207 0.81357 0.21628 0.0
H52 H 0.11644 0.96335 0.52792 0.0
H53 H 0.02089 0.93627 0.46824 0.0
H54 H 0.08756 0.03454 0.44857 0.0
H55 H 0.01418 0.03879 0.44369 0.0
C56 C 1.00269 0.01181 0.43758 0.0
O57 O 0.02922 0.99442 0.43091 0.0
H58 H 0.98797 0.99905 0.45999 0.0
C59 C 0.09856 0.96952 0.50753 0.0
C60 C 0.10563 1.00185 0.4893 0.0
C61 C 0.06816 0.94544 0.5 0.0
C62 C 0.04493 0.95404 0.47389 0.0
C63 C 0.05202 0.98609 0.45549 0.0
C64 C 0.08239 0.00978 0.46299 0.0
H65 H 0.18225 0.79403 0.82008 0.0
H66 H 0.2053 0.70583 0.77268 0.0
H67 H 0.27233 0.74918 0.85359 0.0
H68 H 0.31039 0.72636 0.79693 0.0
C69 C 0.28865 0.70671 0.7871 0.0
O70 O 0.26176 0.70136 0.80972 0.0
H71 H 0.27946 0.71663 0.7619 0.0
C72 C 0.19859 0.77468 0.81821 0.0
C73 C 0.22805 0.77447 0.84022 0.0
C74 C 0.19018 0.75003 0.7937 0.0
C75 C 0.21135 0.72497 0.79148 0.0
C76 C 0.24113 0.72509 0.81271 0.0
C77 C 0.24943 0.7497 0.837 0.0
H78 H 0.94977 0.58161 0.54405 0.0
H79 H 0.97543 0.51848 0.46757 0.0
H80 H 0.04973 0.60726 0.49623 0.0
H81 H 0.04681 0.59808 0.42385 0.0
C82 C 0.03802 0.56952 0.42391 0.0
O83 O 0.03761 0.55536 0.45681 0.0
H84 H 0.01109 0.56481 0.4122 0.0
C85 C 0.96799 0.57625 0.52598 0.0
C86 C 1.00074 0.59819 0.52251 0.0
C87 C 0.95857 0.54735 0.5064 0.0
C88 C 0.98221 0.54064 0.48291 0.0
C89 C 0.01499 0.56218 0.47938 0.0
C90 C 0.02434 0.59069 0.49932 0.0
H91 H 0.75805 0.80755 0.87177 0.0
H92 H 0.84318 0.76561 0.83381 0.0
H93 H 0.80312 0.84661 0.77594 0.0
H94 H 0.81702 0.79147 0.73524 0.0
C95 C 0.83896 0.78306 0.75074 0.0
O96 O 0.84763 0.80418 0.77735 0.0
H97 H 0.82988 0.75581 0.76056 0.0
C98 C 0.77697 0.80708 0.8525 0.0
C99 C 0.77762 0.83001 0.82345 0.0
C100 C 0.80012 0.78316 0.85647 0.0
C101 C 0.82432 0.78289 0.83105 0.0
C102 C 0.82477 0.80523 0.80189 0.0
C103 C 0.80175 0.82886 0.79826 0.0
H104 H 0.26002 0.31419 0.37644 0.0
H105 H 0.33668 0.26363 0.33455 0.0
H106 H 0.30353 0.35016 0.2792 0.0
H107 H 0.32014 0.29805 0.23325 0.0
C108 C 0.33483 0.28388 0.25255 0.0
O109 O 0.34471 0.30429 0.27951 0.0
H110 H 0.317 0.25946 0.26085 0.0
C111 C 0.27761 0.31219 0.35641 0.0
C112 C 0.27916 0.33544 0.32754 0.0
C113 C 0.29855 0.28633 0.35952 0.0
C114 C 0.3209 0.28377 0.33314 0.0
C115 C 0.32255 0.30668 0.30433 0.0
C116 C 0.30175 0.33238 0.30152 0.0
H117 H 0.47311 0.02694 0.62074 0.0
H118 H 0.44416 0.98028 0.52597 0.0
H119 H 0.52737 0.94901 0.58818 0.0
H120 H 0.54115 0.95661 0.51482 0.0
C121 C 0.51368 0.94998 0.50472 0.0
O122 O 0.4913 0.94041 0.53127 0.0
H123 H 0.5072 0.97341 0.49022 0.0
C124 C 0.47697 0.009 0.6023 0.0
C125 C 0.50293 0.98824 0.60843 0.0
C126 C 0.45541 0.00616 0.57272 0.0
C127 C 0.46051 0.98286 0.54889 0.0
C128 C 0.4868 0.96286 0.5543 0.0
C129 C 0.50776 0.9654 0.58399 0.0
H130 H 0.20502 0.35192 0.77341 0.0
H131 H 0.17314 0.25201 0.73227 0.0
H132 H 0.27015 0.31585 0.70316 0.0
H133 H 0.21375 0.28284 0.6508 0.0
C134 C 0.21513 0.25629 0.66195 0.0
O135 O 0.22803 0.25721 0.69497 0.0
H136 H 0.1879 0.24127 0.66162 0.0
C137 C 0.20972 0.33235 0.75709 0.0
C138 C 0.2407 0.33773 0.73867 0.0
C139 C 0.18479 0.30172 0.75459 0.0
C140 C 0.19157 0.27614 0.73401 0.0
C141 C 0.22218 0.28146 0.71546 0.0
C142 C 0.24664 0.31206 0.71784 0.0
H143 H 0.81294 0.1804 0.79245 0.0
H144 H 0.75644 0.2036 0.69996 0.0
H145 H 0.84522 0.27629 0.73294 0.0
H146 H 0.78528 0.30791 0.708 0.0
C147 C 0.77305 0.2883 0.69009 0.0
O148 O 0.79459 0.26442 0.68732 0.0
H149 H 0.74741 0.27524 0.7005 0.0
C150 C 0.80981 0.19737 0.77016 0.0
C151 C 0.83263 0.22946 0.76562 0.0
C152 C 0.78185 0.18802 0.74681 0.0
C153 C 0.77769 0.21044 0.71832 0.0
C154 C 0.80027 0.24222 0.71367 0.0
C155 C 0.82783 0.25157 0.737 0.0
H156 H 0.5043 0.62144 0.56807 0.0
H157 H 0.55262 0.53311 0.59706 0.0
H158 H 0.58398 0.59594 0.50664 0.0
H159 H 0.56944 0.51964 0.50183 0.0
C160 C 0.58323 0.51241 0.5258 0.0
O161 O 0.59312 0.54105 0.54455 0.0
H162 H 0.56465 0.49236 0.54037 0.0
C163 C 0.52279 0.60488 0.56319 0.0
C164 C 0.5436 0.61222 0.53448 0.0
C165 C 0.52591 0.57645 0.58585 0.0
C166 C 0.54999 0.55514 0.57971 0.0
C167 C 0.57037 0.5619 0.5508 0.0
C168 C 0.56739 0.5905 0.52843 0.0
H169 H 0.61176 0.46297 0.03563 0.0
H170 H 0.52148 0.42614 0.97191 0.0
H171 H 0.59321 0.51781 0.94037 0.0
H172 H 0.52343 0.52493 0.93008 0.0
C173 C 0.51032 0.49823 0.92455 0.0
O174 O 0.53476 0.47669 0.92537 0.0
H175 H 0.4907 0.48854 0.94432 0.0
C176 C 0.59638 0.46508 0.0123 0.0
C177 C 0.60623 0.49334 0.98876 0.0
C178 C 0.5658 0.44051 0.00645 0.0
C179 C 0.54525 0.44458 0.97682 0.0
C180 C 0.55518 0.47242 0.95325 0.0
C181 C 0.58582 0.49638 0.95893 0.0
H182 H 0.67689 0.29867 0.32419 0.0
H183 H 0.69083 0.20884 0.27365 0.0
H184 H 0.76202 0.24544 0.35436 0.0
H185 H 0.79669 0.22754 0.29664 0.0
C186 C 0.77603 0.2069 0.28669 0.0
O187 O 0.74798 0.20042 0.308 0.0
H188 H 0.76695 0.21617 0.26121 0.0
C189 C 0.69062 0.27735 0.32183 0.0
C190 C 0.72004 0.2744 0.34312 0.0
C191 C 0.67929 0.25349 0.29704 0.0
C192 C 0.69883 0.2274 0.29271 0.0
C193 C 0.72885 0.22499 0.313 0.0
C194 C 0.73913 0.24809 0.3384 0.0
H195 H 0.44683 0.0691 0.03931 0.0
H196 H 0.48134 0.01434 0.96028 0.0
H197 H 0.54967 0.10233 0.99828 0.0
H198 H 0.55678 0.09804 0.926 0.0
C199 C 0.54578 0.07008 0.92384 0.0
O200 O 0.54306 0.05357 0.95577 0.0
H201 H 0.51942 0.06841 0.91108 0.0
C202 C 0.46654 0.06635 0.02158 0.0
C203 C 0.49911 0.08904 0.02182 0.0
C204 C 0.45986 0.03925 0.99948 0.0
C205 C 0.48599 0.0351 0.97745 0.0
C206 C 0.51818 0.05783 0.97713 0.0
C207 C 0.5247 0.08471 0.99915 0.0
C208 C 0.19769 0.94329 0.98881 0.0
O209 O 0.20689 0.94201 0.95743 0.0
O210 O 0.24553 0.87627 0.96769 0.0
Zn211 Zn 0.25713 0.90886 0.00566 0.0
O212 O 0.29995 0.9457 0.9969 0.0
C213 C 0.26604 0.85057 0.05421 0.0
O214 O 0.25911 0.83114 0.02823 0.0
O215 O 0.21559 0.93113 0.01282 0.0
C216 C 0.32997 0.93809 1.00431 0.0
O217 O 0.33191 0.90616 0.01528 0.0
C218 C 0.26595 0.87415 0.94394 0.0
O219 O 0.29701 0.89415 0.94337 0.0
O220 O 0.26621 0.88288 0.04978 0.0
C221 C 0.196 0.44561 0.31109 0.0
O222 O 0.20172 0.47166 0.33082 0.0
O223 O 0.12204 0.49596 0.31647 0.0
Zn224 Zn 0.15074 0.48838 0.27682 0.0
O225 O 0.18832 0.5306 0.269 0.0
C226 C 0.08769 0.48902 0.2342 0.0
O227 O 0.07541 0.49715 0.26237 0.0
O228 O 0.17429 0.44645 0.28613 0.0
C229 C 0.17918 0.55976 0.26189 0.0
O230 O 0.14556 0.56107 0.25928 0.0
C231 C 0.13366 0.51724 0.33881 0.0
O232 O 0.16655 0.53302 0.33796 0.0
O233 O 0.1191 0.48361 0.23427 0.0
C234 C 0.8386 0.57601 0.04793 0.0
O235 O 0.80649 0.56085 0.05517 0.0
O236 O 0.80777 0.66316 0.98157 0.0
Zn237 Zn 0.8008 0.62922 0.02317 0.0
O238 O 0.75922 0.59203 0.01292 0.0
C239 C 0.80509 0.68001 0.07517 0.0
O240 O 0.83543 0.69394 0.06215 0.0
O241 O 0.84358 0.60678 0.03441 0.0
C242 C 0.72875 0.59966 0.0127 0.0
O243 O 0.72576 0.63145 0.01846 0.0
C244 C 0.79483 0.69081 0.97911 0.0
O245 O 0.77771 0.69848 1.00461 0.0
O246 O 0.78767 0.65276 0.06316 0.0
C247 C 0.8434 0.08563 0.2822 0.0
O248 O 0.84556 0.06555 0.3099 0.0
O249 O 0.91472 0.03612 0.29526 0.0
Zn250 Zn 0.88337 0.03933 0.25336 0.0
O251 O 0.84829 0.99469 0.24873 0.0
C252 C 0.93949 0.03406 0.20881 0.0
O253 O 0.94826 0.01262 0.23322 0.0
O254 O 0.85747 0.07912 0.25554 0.0
C255 C 0.85846 0.96564 0.25 0.0
O256 O 0.89206 0.96505 0.25447 0.0
C257 C 0.90645 0.0144 0.32023 0.0
O258 O 0.87578 0.99374 0.31973 0.0
O259 O 0.91338 0.04882 0.21205 0.0
C260 C 0.33894 0.08084 0.54775 0.0
O261 O 0.30689 0.06285 0.54845 0.0
O262 O 0.31019 0.1719 0.48871 0.0
Zn263 Zn 0.30087 0.13641 0.52868 0.0
O264 O 0.25833 0.10044 0.51641 0.0
C265 C 0.29717 0.19223 0.5728 0.0
O266 O 0.31843 0.21138 0.55113 0.0
O267 O 0.3432 0.11326 0.54002 0.0
C268 C 0.22801 0.10317 0.52578 0.0
O269 O 0.2248 0.12909 0.54385 0.0
C270 C 0.28499 0.18601 0.47635 0.0
O271 O 0.25408 0.1771 0.48993 0.0
O272 O 0.28832 0.15997 0.56897 0.0
C273 C 0.33524 0.57656 0.76601 0.0
O274 O 0.31507 0.54711 0.77542 0.0
O275 O 0.41098 0.5228 0.79119 0.0
Zn276 Zn 0.38256 0.5317 0.74865 0.0
O277 O 0.34237 0.49163 0.74437 0.0
C278 C 0.44171 0.55689 0.70583 0.0
O279 O 0.45411 0.57373 0.73253 0.0
O280 O 0.36465 0.576 0.75331 0.0
C281 C 0.34896 0.46107 0.74703 0.0
O282 O 0.38171 0.45693 0.7518 0.0
C283 C 0.43945 0.511 0.7924 0.0
O284 O 0.45211 0.50306 0.76433 0.0
O285 O 0.41187 0.53717 0.70703 0.0
C286 C 0.70502 0.45341 0.49361 0.0
O287 O 0.7145 0.45521 0.46195 0.0
O288 O 0.74441 0.38199 0.46599 0.0
Zn289 Zn 0.75998 0.41232 0.5047 0.0
O290 O 0.80458 0.4463 0.49498 0.0
C291 C 0.74747 0.35825 0.55871 0.0
O292 O 0.71626 0.35118 0.54387 0.0
O293 O 0.72117 0.43695 0.51595 0.0
C294 C 0.82115 0.45931 0.52081 0.0
O295 O 0.80707 0.45161 0.55062 0.0
C296 C 0.76603 0.37049 0.4486 0.0
O297 O 0.7998 0.37965 0.45531 0.0
O298 O 0.77012 0.38254 0.54581 0.0
C299 C 0.69385 0.93961 0.80859 0.0
O300 O 0.69609 0.96111 0.83285 0.0
O301 O 0.62533 0.99446 0.81475 0.0
Zn302 Zn 0.65339 0.98805 0.77435 0.0
O303 O 0.69069 0.03081 0.76741 0.0
C304 C 0.58992 0.99087 0.73287 0.0
O305 O 0.57852 0.99912 0.76141 0.0
O306 O 0.67642 0.94559 0.78153 0.0
C307 C 0.68024 0.05965 0.76306 0.0
O308 O 0.64634 0.05962 0.76247 0.0
C309 C 0.63795 0.01422 0.83803 0.0
O310 O 0.67136 0.02837 0.83775 0.0
O311 O 0.621 0.98466 0.73225 0.0
C312 C 1.00087 0.20778 0.93714 0.0
O313 O 0.96833 0.2117 0.93025 0.0
O314 O 0.97269 0.25613 0.86494 0.0
Zn315 Zn 0.01706 0.27034 0.89338 0.0
O316 O 0.01327 0.30956 0.92265 0.0
C317 C 0.05769 0.27478 0.83302 0.0
O318 O 0.02863 0.25618 0.82129 0.0
O319 O 0.0257 0.22965 0.92404 0.0
C320 C 0.0209 0.3411 0.91166 0.0
O321 O 0.03084 0.34822 0.88024 0.0
C322 C 0.94924 0.27476 0.85946 0.0
O323 O 0.95339 0.30471 0.87319 0.0
O324 O 0.05879 0.28418 0.86321 0.0
C325 C 0.53576 0.73663 0.44756 0.0
O326 O 0.54026 0.7665 0.46153 0.0
O327 O 0.48495 0.77009 0.35473 0.0
Zn328 Zn 0.52796 0.77919 0.38564 0.0
O329 O 0.52719 0.8198 0.41427 0.0
C330 C 0.57088 0.77768 0.32815 0.0
O331 O 0.54191 0.75871 0.31665 0.0
O332 O 0.53016 0.73596 0.41572 0.0
C333 C 0.50184 0.8362 0.41475 0.0
O334 O 0.47398 0.82707 0.39515 0.0
C335 C 0.45582 0.75316 0.36515 0.0
O336 O 0.45329 0.74227 0.39726 0.0
O337 O 0.57123 0.78939 0.35733 0.0
C338 C 0.03398 0.81576 0.58253 0.0
O339 O 0.02499 0.78578 0.56901 0.0
O340 O 0.98559 0.77358 0.67533 0.0
Zn341 Zn 0.02657 0.77293 0.6458 0.0
O342 O 0.0157 0.73077 0.61814 0.0
C343 C 0.07018 0.74827 0.69976 0.0
O344 O 0.04314 0.72285 0.70301 0.0
O345 O 0.03579 0.8165 0.61466 0.0
C346 C 0.0386 0.71423 0.60896 0.0
O347 O 0.07149 0.72371 0.61896 0.0
C348 C 0.95955 0.78755 0.66543 0.0
O349 O 0.95913 0.80238 0.63463 0.0
O350 O 0.06924 0.77196 0.67637 0.0
C351 C 0.5154 0.32335 0.10112 0.0
O352 O 0.48192 0.31684 0.10808 0.0
O353 O 0.47328 0.27018 0.16824 0.0
Zn354 Zn 0.51644 0.26175 0.14542 0.0
O355 O 0.5043 0.21967 0.11766 0.0
C356 C 0.55804 0.26809 0.20862 0.0
O357 O 0.53535 0.28699 0.21667 0.0
O358 O 0.53516 0.30322 0.11425 0.0
C359 C 0.52852 0.20362 0.11081 0.0
O360 O 0.56062 0.21496 0.12206 0.0
C361 C 0.45943 0.25087 0.19301 0.0
O362 O 0.47338 0.22403 0.20418 0.0
O363 O 0.55484 0.25486 0.18002 0.0
C364 C 0.27087 0.81947 0.86935 0.0
C365 C 0.23673 0.80014 0.86647 0.0
C366 C 0.2799 0.84349 0.89423 0.0
C367 C 0.25522 0.84895 0.91746 0.0
H368 H 0.29075 0.81614 0.85208 0.0
H369 H 0.30659 0.85767 0.89535 0.0
S370 S 0.16225 0.80414 0.92089 0.0
N371 N 0.1782 0.78755 0.88907 0.0
N372 N 0.19493 0.83269 0.9358 0.0
C373 C 0.22089 0.8297 0.9148 0.0
C374 C 0.21171 0.80536 0.88931 0.0
C375 C 0.09818 0.56931 0.40224 0.0
C376 C 0.06256 0.554 0.40357 0.0
C377 C 0.12118 0.55647 0.38213 0.0
C378 C 0.10947 0.52769 0.36267 0.0
H379 H 0.10816 0.59189 0.41627 0.0
H380 H 0.14816 0.56988 0.38122 0.0
S381 S 0.01919 0.47592 0.36081 0.0
N382 N 0.01714 0.50686 0.38637 0.0
N383 N 0.06012 0.48262 0.34837 0.0
C384 C 0.07413 0.51115 0.36512 0.0
C385 C 0.05078 0.52426 0.3857 0.0
C386 C 0.79645 0.77113 0.91956 0.0
C387 C 0.79936 0.75898 0.88737 0.0
C388 C 0.7954 0.74895 0.94901 0.0
C389 C 0.79767 0.71379 0.94758 0.0
H390 H 0.79518 0.7981 0.92211 0.0
H391 H 0.79297 0.75957 0.97314 0.0
S392 S 0.80364 0.66839 0.86958 0.0
N393 N 0.80272 0.70883 0.85581 0.0
N394 N 0.80199 0.66754 0.91126 0.0
C395 C 0.80074 0.70124 0.91565 0.0
C396 C 0.80129 0.72372 0.88556 0.0
C397 C 0.97991 0.04138 0.38473 0.0
C398 C 0.97793 0.01185 0.40724 0.0
C399 C 0.95688 0.04186 0.35648 0.0
C400 C 0.93102 0.01284 0.34976 0.0
H401 H 0.99925 0.06435 0.38914 0.0
H402 H 0.95905 0.06535 0.34007 0.0
S403 S 0.91771 0.92795 0.39926 0.0
N404 N 0.95011 0.95213 0.41976 0.0
N405 N 0.90655 0.95291 0.36681 0.0
C406 C 0.92948 0.98282 0.37164 0.0
C407 C 0.95309 0.98232 0.40026 0.0
C408 C 0.22988 0.20434 0.63575 0.0
C409 C 0.23829 0.23987 0.64092 0.0
C410 C 0.24995 0.18893 0.61474 0.0
C411 C 0.27927 0.20847 0.59815 0.0
H412 H 0.20712 0.1885 0.6474 0.0
H413 H 0.24166 0.16166 0.61074 0.0
S414 S 0.31468 0.30177 0.6073 0.0
N415 N 0.27957 0.29355 0.63077 0.0
N416 N 0.31738 0.26484 0.59105 0.0
C417 C 0.28895 0.24374 0.60462 0.0
C418 C 0.2685 0.25935 0.62614 0.0
C419 C 0.51992 0.57343 0.64859 0.0
C420 C 0.50415 0.56951 0.61615 0.0
C421 C 0.49947 0.56931 0.6775 0.0
C422 C 0.46264 0.56047 0.67494 0.0
H423 H 0.54818 0.58048 0.65153 0.0
H424 H 0.51265 0.57295 0.70202 0.0
S425 S 0.40908 0.54648 0.59544 0.0
N426 N 0.44997 0.5561 0.58287 0.0
N427 N 0.41141 0.54747 0.63716 0.0
C428 C 0.4467 0.55579 0.64257 0.0
C429 C 0.4675 0.56059 0.61316 0.0
C430 C 0.73612 0.29597 0.63697 0.0
C431 C 0.76744 0.30588 0.65582 0.0
C432 C 0.73015 0.31268 0.60536 0.0
C433 C 0.75543 0.3397 0.59129 0.0
H434 H 0.71589 0.27544 0.64694 0.0
H435 H 0.70534 0.30451 0.59207 0.0
S436 S 0.84303 0.37332 0.62996 0.0
N437 N 0.82475 0.34279 0.65779 0.0
N438 N 0.81393 0.37433 0.59837 0.0
C439 C 0.78741 0.34903 0.60958 0.0
C440 C 0.79335 0.33203 0.64179 0.0
C441 C 0.5611 0.99098 0.63964 0.0
C442 C 0.5246 0.98958 0.64051 0.0
C443 C 0.58195 0.99112 0.66955 0.0
C444 C 0.56718 0.99002 0.70158 0.0
H445 H 0.57375 0.99219 0.6156 0.0
H446 H 0.60993 0.99245 0.66746 0.0
S447 S 0.47253 0.98393 0.7179 0.0
N448 N 0.47433 0.9853 0.67622 0.0
N449 N 0.51342 0.98628 0.73231 0.0
C450 C 0.53065 0.98843 0.70282 0.0
C451 C 0.50942 0.98807 0.67236 0.0
C452 C 0.88549 0.21929 0.80087 0.0
C453 C 0.86093 0.24058 0.79106 0.0
C454 C 0.91371 0.23041 0.82325 0.0
C455 C 0.91828 0.26316 0.8369 0.0
H456 H 0.88337 0.19419 0.79052 0.0
H457 H 0.93227 0.21326 0.82958 0.0
S458 S 0.85914 0.32744 0.82102 0.0
N459 N 0.84156 0.29492 0.79801 0.0
N460 N 0.89443 0.316 0.83994 0.0
C461 C 0.89317 0.28426 0.82793 0.0
C462 C 0.86458 0.27294 0.80505 0.0
C463 C 0.53628 0.90039 0.48121 0.0
C464 C 0.51008 0.92076 0.48142 0.0
C465 C 0.53334 0.87321 0.45957 0.0
C466 C 0.50392 0.86513 0.43747 0.0
H467 H 0.55933 0.9056 0.49779 0.0
H468 H 0.55437 0.85842 0.46029 0.0
S469 S 0.42734 0.91018 0.42975 0.0
N470 N 0.45343 0.93071 0.45874 0.0
N471 N 0.44755 0.87963 0.41803 0.0
C472 C 0.47724 0.88511 0.43792 0.0
C473 C 0.48037 0.91284 0.45994 0.0
C474 C 0.15304 0.30183 0.80849 0.0
C475 C 0.15186 0.29622 0.77372 0.0
C476 C 0.12242 0.29542 0.82731 0.0
C477 C 0.08941 0.28308 0.8121 0.0
H478 H 0.17793 0.31053 0.82144 0.0
H479 H 0.12482 0.29955 0.85415 0.0
S480 S 0.07187 0.26752 0.72092 0.0
N481 N 0.11479 0.28014 0.72422 0.0
N482 N 0.05731 0.26763 0.75951 0.0
C483 C 0.08781 0.27826 0.77709 0.0
C484 C 0.11899 0.28491 0.75795 0.0
C485 C 0.54372 0.6757 0.52522 0.0
C486 C 0.54122 0.64328 0.5116 0.0
C487 C 0.54194 0.7056 0.50429 0.0
C488 C 0.53737 0.70427 0.46887 0.0
H489 H 0.54753 0.67807 0.55229 0.0
H490 H 0.5442 0.72995 0.51611 0.0
S491 S 0.52791 0.62505 0.42086 0.0
N492 N 0.53293 0.61116 0.46081 0.0
N493 N 0.52964 0.66727 0.42123 0.0
C494 C 0.5345 0.67181 0.45495 0.0
C495 C 0.53646 0.64137 0.47635 0.0
C496 C 0.87225 0.80167 0.697 0.0
C497 C 0.87058 0.78459 0.72946 0.0
C498 C 0.90118 0.80262 0.67665 0.0
C499 C 0.92968 0.78671 0.68804 0.0
H500 H 0.8509 0.81416 0.68714 0.0
H501 H 0.90102 0.81586 0.6517 0.0
S502 S 0.93835 0.73999 0.77214 0.0
N503 N 0.89996 0.75243 0.7727 0.0
N504 N 0.95453 0.75415 0.73476 0.0
C505 C 0.92851 0.77008 0.72087 0.0
C506 C 0.89896 0.7691 0.74149 0.0
C507 C 0.06078 0.91146 0.55594 0.0
C508 C 0.05991 0.91198 0.52035 0.0
C509 C 0.05223 0.8803 0.57574 0.0
C510 C 0.04259 0.84836 0.56075 0.0
H511 H 0.06765 0.9354 0.56859 0.0
H512 H 0.05316 0.88138 0.60305 0.0
S513 S 0.03788 0.83578 0.46831 0.0
N514 N 0.04985 0.87801 0.47081 0.0
N515 N 0.03355 0.81938 0.5078 0.0
C516 C 0.04193 0.84857 0.52507 0.0
C517 C 0.05061 0.88036 0.50496 0.0
C518 C 0.13414 0.72035 0.76696 0.0
C519 C 0.15956 0.75048 0.77005 0.0
C520 C 0.1053 0.71995 0.74429 0.0
C521 C 0.10104 0.74954 0.72347 0.0
H522 H 0.13647 0.69695 0.78238 0.0
H523 H 0.08637 0.69612 0.74292 0.0
S524 S 0.16106 0.83483 0.72155 0.0
N525 N 0.17911 0.81047 0.75031 0.0
N526 N 0.1251 0.8099 0.70752 0.0
C527 C 0.1265 0.77984 0.72625 0.0
C528 C 0.15566 0.78027 0.74961 0.0
C529 C 0.04271 0.63433 0.56147 0.0
C530 C 0.01029 0.62861 0.5435 0.0
C531 C 0.05165 0.66209 0.58248 0.0
C532 C 0.02849 0.68515 0.58643 0.0
H533 H 0.06106 0.61686 0.55976 0.0
H534 H 0.07678 0.66519 0.59605 0.0
S535 S 0.94162 0.68318 0.54244 0.0
N536 N 0.95597 0.64958 0.52918 0.0
N537 N 0.97239 0.70135 0.56896 0.0
C538 C 0.99622 0.68005 0.56806 0.0
C539 C 0.98724 0.6519 0.54655 0.0
C540 C 0.77217 0.90327 0.23792 0.0
C541 C 0.78225 0.87061 0.24166 0.0
C542 C 0.79693 0.93382 0.24067 0.0
C543 C 0.83274 0.93289 0.24736 0.0
H544 H 0.74499 0.90525 0.2323 0.0
H545 H 0.78788 0.95835 0.23731 0.0
S546 S 0.8721 0.85346 0.26137 0.0
N547 N 0.82998 0.83891 0.25398 0.0
N548 N 0.87665 0.89609 0.25882 0.0
C549 C 0.84302 0.90024 0.25161 0.0
C550 C 0.81777 0.8692 0.24883 0.0
C551 C 0.79728 0.1541 0.3141 0.0
C552 C 0.79171 0.17469 0.28454 0.0
C553 C 0.81351 0.12514 0.31297 0.0
C554 C 0.82543 0.11595 0.28234 0.0
H555 H 0.78921 0.16056 0.33835 0.0
H556 H 0.81715 0.11017 0.33648 0.0
S557 S 0.81844 0.16255 0.19795 0.0
N558 N 0.80021 0.18462 0.22394 0.0
N559 N 0.83084 0.13042 0.22166 0.0
C560 C 0.82031 0.13663 0.2526 0.0
C561 C 0.80359 0.16599 0.25379 0.0
C562 C 0.42659 0.97856 1.00386 0.0
C563 C 0.42623 0.01428 1.00017 0.0
C564 C 0.39534 0.95427 1.00485 0.0
C565 C 0.36242 0.96469 1.00185 0.0
H566 H 0.45128 0.9693 0.00648 0.0
H567 H 0.39712 0.92706 0.00805 0.0
S568 S 0.34738 0.05546 0.99042 0.0
N569 N 0.3905 0.05908 0.99264 0.0
N570 N 0.33155 0.0135 0.99437 0.0
C571 C 0.36171 1.00044 0.99766 0.0
C572 C 0.39366 0.02519 0.99694 0.0
C573 C 0.23646 0.36717 0.29501 0.0
C574 C 0.2573 0.36297 0.32447 0.0
C575 C 0.21617 0.3934 0.29123 0.0
C576 C 0.21619 0.41679 0.31661 0.0
H577 H 0.23578 0.34994 0.27471 0.0
H578 H 0.2008 0.39566 0.26794 0.0
S579 S 0.26654 0.41678 0.3987 0.0
N580 N 0.27683 0.38429 0.37945 0.0
N581 N 0.2388 0.43351 0.37258 0.0
C582 C 0.23679 0.41265 0.34635 0.0
C583 C 0.25726 0.38578 0.35023 0.0
C584 C 0.17047 0.01993 0.49892 0.0
C585 C 0.13656 0.0279 0.49856 0.0
C586 C 0.20002 0.04455 0.50734 0.0
C587 C 0.19658 0.07776 0.51628 0.0
H588 H 0.17417 0.99461 0.49231 0.0
H589 H 0.22568 0.03735 0.50724 0.0
S590 S 0.1131 0.11093 0.5197 0.0
N591 N 0.10102 0.07092 0.50807 0.0
N592 N 0.15627 0.11714 0.52416 0.0
C593 C 0.16266 0.08586 0.5162 0.0
C594 C 0.13273 0.06095 0.50725 0.0
C595 C 0.76674 0.12349 0.7575 0.0
C596 C 0.75585 0.15569 0.75259 0.0
C597 C 0.74214 0.09257 0.76089 0.0
C598 C 0.70577 0.09275 0.75973 0.0
H599 H 0.79441 0.12216 0.75798 0.0
H600 H 0.75179 0.06835 0.76422 0.0
S601 S 0.6642 0.17104 0.75011 0.0
N602 N 0.7067 0.18632 0.74873 0.0
N603 N 0.66045 0.12853 0.75495 0.0
C604 C 0.69472 0.12504 0.75567 0.0
C605 C 0.71975 0.15639 0.75215 0.0
C606 C 0.39216 0.00858 0.56034 0.0
C607 C 0.42641 0.02613 0.56716 0.0
C608 C 0.36421 0.02654 0.55447 0.0
C609 C 0.36936 0.0629 0.55473 0.0
H610 H 0.38687 0.98062 0.55973 0.0
H611 H 0.33837 0.01167 0.5493 0.0
S612 S 0.45435 0.12107 0.57115 0.0
N613 N 0.46417 0.08183 0.57389 0.0
N614 N 0.41171 0.11583 0.56257 0.0
C615 C 0.40359 0.08083 0.56153 0.0
C616 C 0.43205 0.06239 0.56788 0.0
C617 C 0.62803 0.50142 0.48523 0.0
C618 C 0.61517 0.4978 0.5182 0.0
C619 C 0.65727 0.4873 0.47765 0.0
C620 C 0.67494 0.46921 0.50281 0.0
H621 H 0.61519 0.51499 0.46504 0.0
H622 H 0.66587 0.49044 0.45175 0.0
S623 S 0.65233 0.45443 0.5937 0.0
N624 N 0.6227 0.47618 0.57646 0.0
N625 N 0.67775 0.44967 0.56259 0.0
C626 C 0.66267 0.46615 0.53615 0.0
C627 C 0.63282 0.48048 0.54374 0.0
C628 C 0.76641 0.31478 0.37396 0.0
C629 C 0.73102 0.29899 0.37006 0.0
C630 C 0.77739 0.33797 0.39925 0.0
C631 C 0.75341 0.34635 0.42165 0.0
H632 H 0.78577 0.30943 0.35711 0.0
H633 H 0.80494 0.34948 0.40112 0.0
S634 S 0.65789 0.31053 0.4231 0.0
N635 N 0.6722 0.29219 0.39152 0.0
N636 N 0.69256 0.33612 0.43868 0.0
C637 C 0.71787 0.3306 0.41807 0.0
C638 C 0.70677 0.30687 0.39239 0.0
C639 C 0.60546 0.06681 0.90281 0.0
C640 C 0.56926 0.05376 0.90308 0.0
C641 C 0.62762 0.05297 0.88264 0.0
C642 C 0.61446 0.02539 0.86208 0.0
H643 H 0.61659 0.08838 0.91778 0.0
H644 H 0.65516 0.06468 0.88256 0.0
S645 S 0.52192 0.97942 0.85718 0.0
N646 N 0.52155 0.00991 0.8837 0.0
N647 N 0.56298 0.98377 0.84558 0.0
C648 C 0.57844 0.01104 0.86346 0.0
C649 C 0.55593 0.02518 0.88409 0.0
C650 C 0.26308 0.24514 0.40149 0.0
C651 C 0.29616 0.26132 0.38976 0.0
C652 C 0.25992 0.22098 0.42945 0.0
C653 C 0.28969 0.21182 0.44685 0.0
H654 H 0.23936 0.2508 0.38863 0.0
H655 H 0.23377 0.20914 0.43722 0.0
S656 S 0.38245 0.24836 0.42758 0.0
N657 N 0.35939 0.26779 0.39872 0.0
N658 N 0.35348 0.22189 0.45093 0.0
C659 C 0.32299 0.22802 0.43559 0.0
C660 C 0.3262 0.25284 0.40716 0.0
C661 C 0.45609 0.49823 0.88712 0.0
C662 C 0.49259 0.49975 0.88998 0.0
C663 C 0.43915 0.50165 0.85542 0.0
C664 C 0.45805 0.50657 0.82536 0.0
H665 H 0.44053 0.49471 0.90961 0.0
H666 H 0.41098 0.50037 0.85449 0.0
S667 S 0.55444 0.51465 0.81927 0.0
N668 N 0.54739 0.50838 0.86029 0.0
N669 N 0.51546 0.51395 0.80053 0.0
C670 C 0.4946 0.50828 0.82785 0.0
C671 C 0.51191 0.50525 0.8602 0.0
C672 C 0.78503 0.7533 0.12426 0.0
C673 C 0.75284 0.7388 0.13891 0.0
C674 C 0.80253 0.73369 0.1048 0.0
C675 C 0.78853 0.69879 0.09944 0.0
H676 H 0.79631 0.78025 0.12717 0.0
H677 H 0.82662 0.74638 0.09304 0.0
S678 S 0.70715 0.64765 0.13645 0.0
N679 N 0.70936 0.68685 0.14978 0.0
N680 N 0.74197 0.64979 0.11326 0.0
C681 C 0.75723 0.68354 0.11559 0.0
C682 C 0.73952 0.70356 0.13541 0.0
C683 C 0.98869 0.07942 0.13297 0.0
C684 C 0.99609 0.05169 0.11545 0.0
C685 C 0.97002 0.07354 0.16302 0.0
C686 C 0.95891 0.03979 0.17716 0.0
H687 H 0.99765 0.10597 0.1236 0.0
H688 H 0.96481 0.09556 0.17561 0.0
S689 S 0.96893 0.95812 0.14075 0.0
N690 N 0.98811 0.98893 0.11367 0.0
N691 N 0.95507 0.97827 0.1713 0.0
C692 C 0.96601 0.01185 0.1602 0.0
C693 C 0.98413 0.01769 0.1291 0.0
C694 C 0.2732 0.78332 0.12681 0.0
C695 C 0.28447 0.80357 0.15446 0.0
C696 C 0.26782 0.79872 0.09443 0.0
C697 C 0.27298 0.83498 0.08855 0.0
H698 H 0.26829 0.75532 0.13034 0.0
H699 H 0.25905 0.78197 0.074 0.0
S700 S 0.30187 0.89952 0.15294 0.0
N701 N 0.30026 0.86162 0.17414 0.0
N702 N 0.2901 0.89074 0.11348 0.0
C703 C 0.28418 0.85553 0.11614 0.0
C704 C 0.28981 0.83978 0.14904 0.0
C705 C 0.06102 0.48928 0.14045 0.0
C706 C 0.02433 0.48676 0.14059 0.0
C707 C 0.08124 0.48963 0.17076 0.0
C708 C 0.06561 0.48764 0.20248 0.0
H709 H 0.07431 0.49129 0.11667 0.0
H710 H 0.1094 0.49192 0.16925 0.0
S711 S 0.9702 0.47819 0.21688 0.0
N712 N 0.973 0.48026 0.17526 0.0
N713 N 0.0109 0.48165 0.23212 0.0
C714 C 0.02889 0.48481 0.20299 0.0
C715 C 0.0083 0.48423 0.17212 0.0
C716 C 0.40353 0.73991 0.28228 0.0
C717 C 0.36889 0.7286 0.29276 0.0
C718 C 0.43131 0.74797 0.30585 0.0
C719 C 0.42564 0.7449 0.34093 0.0
H720 H 0.40931 0.74229 0.25558 0.0
H721 H 0.45752 0.75632 0.29642 0.0
S722 S 0.33945 0.71837 0.38149 0.0
N723 N 0.33014 0.71634 0.3405 0.0
N724 N 0.38241 0.7308 0.38492 0.0
C725 C 0.39107 0.73379 0.35179 0.0
C726 C 0.36271 0.72578 0.32771 0.0
C727 C 0.01472 0.3876 0.9917 0.0
C728 C 0.01765 0.42252 0.97974 0.0
C729 C 0.01518 0.36149 0.96944 0.0
C730 C 0.01934 0.36929 0.93438 0.0
H731 H 0.01227 0.38041 0.01854 0.0
H732 H 0.01285 0.33503 0.97999 0.0
S733 S 0.02945 0.45704 0.89048 0.0
N734 N 0.02569 0.4637 0.93077 0.0
N735 N 0.0268 0.41482 0.8889 0.0
C736 C 0.02266 0.40421 0.92215 0.0
C737 C 0.02193 0.43075 0.94484 0.0
C738 C 0.66675 0.80268 0.30503 0.0
C739 C 0.66603 0.79683 0.27031 0.0
C740 C 0.63587 0.79675 0.3234 0.0
C741 C 0.60302 0.78459 0.30783 0.0
H742 H 0.69147 0.81138 0.31827 0.0
H743 H 0.63789 0.80127 0.35016 0.0
S744 S 0.58662 0.76792 0.21678 0.0
N745 N 0.62955 0.78033 0.22055 0.0
N746 N 0.57158 0.76856 0.25509 0.0
C747 C 0.60188 0.77916 0.27296 0.0
C748 C 0.63334 0.78541 0.25423 0.0
C749 C 0.98692 0.12535 0.99495 0.0
C750 C 0.02125 0.12167 0.0053 0.0
C751 C 0.98065 0.15313 0.9728 0.0
C752 C 0.00846 0.17838 0.96019 0.0
H753 H 0.96472 0.10647 1.0039 0.0
H754 H 0.95372 0.15474 0.96556 0.0
S755 S 0.1033 0.18111 0.98088 0.0
N756 N 0.08337 0.146 1.00228 0.0
N757 N 0.07183 0.198 0.96039 0.0
C758 C 0.04299 0.17497 0.97047 0.0
C759 C 0.04931 0.14668 0.99304 0.0
C760 C 0.38056 0.2925 0.20758 0.0
C761 C 0.367 0.27504 0.23769 0.0
C762 C 0.41044 0.28454 0.19344 0.0
C763 C 0.42804 0.25888 0.20894 0.0
H764 H 0.36786 0.31236 0.19476 0.0
H765 H 0.41965 0.29854 0.17002 0.0
S766 S 0.40407 0.20751 0.28969 0.0
N767 N 0.37404 0.23233 0.28353 0.0
N768 N 0.43022 0.21717 0.2572 0.0
C769 C 0.41502 0.24173 0.23953 0.0
C770 C 0.38459 0.24993 0.25387 0.0
C771 C 0.5193 0.40418 0.04188 0.0
C772 C 0.55429 0.41123 0.03161 0.0
C773 C 0.50721 0.37598 0.06455 0.0
C774 C 0.52957 0.35356 0.07787 0.0
H775 H 0.50106 0.42066 0.03234 0.0
H776 H 0.47996 0.37172 0.07148 0.0
S777 S 0.6237 0.36067 0.05863 0.0
N778 N 0.61121 0.39353 0.03615 0.0
N779 N 0.58874 0.34061 0.07903 0.0
C780 C 0.56482 0.36053 0.06803 0.0
C781 C 0.57711 0.38935 0.04489 0.0
C782 C 0.64828 0.25318 0.24004 0.0
C783 C 0.64757 0.25631 0.27521 0.0
C784 C 0.61904 0.2565 0.21883 0.0
C785 C 0.58804 0.26348 0.23187 0.0
H786 H 0.67185 0.24872 0.22868 0.0
H787 H 0.62104 0.2543 0.19187 0.0
S788 S 0.57143 0.2709 0.32247 0.0
N789 N 0.61221 0.26415 0.32242 0.0
N790 N 0.55767 0.2715 0.28239 0.0
C791 C 0.58672 0.26613 0.26702 0.0
C792 C 0.61635 0.2623 0.2887 0.0
C793 C 0.48213 0.1392 0.04889 0.0
C794 C 0.50649 0.11721 0.04572 0.0
C795 C 0.48922 0.16674 0.07034 0.0
C796 C 0.52097 0.1734 0.08941 0.0
H797 H 0.4577 0.13553 0.03415 0.0
H798 H 0.46988 0.18329 0.07146 0.0
S799 S 0.59188 0.12111 0.09267 0.0
N800 N 0.56238 0.10225 0.06537 0.0
N801 N 0.576 0.15415 0.10524 0.0
C802 C 0.54514 0.151 0.08709 0.0
C803 C 0.53784 0.12291 0.06537 0.0
C804 C 0.30283 0.36727 0.74737 0.0
C805 C 0.26737 0.36976 0.74139 0.0
C806 C 0.32881 0.39691 0.74924 0.0
C807 C 0.32046 0.43035 0.74512 0.0
H808 H 0.31058 0.34212 0.75082 0.0
H809 H 0.35572 0.39343 0.75393 0.0
S810 S 0.23129 0.45091 0.72811 0.0
N811 N 0.2251 0.40817 0.73069 0.0
N812 N 0.27384 0.46409 0.73453 0.0
C813 C 0.28497 0.43323 0.73919 0.0
C814 C 0.25847 0.40291 0.7373 0.0
C815 C 0.27783 0.64138 0.78414 0.0
C816 C 0.3013 0.67326 0.78248 0.0
C817 C 0.28911 0.61033 0.7789 0.0
C818 C 0.32407 0.60997 0.77094 0.0
H819 H 0.25052 0.64035 0.78958 0.0
H820 H 0.27009 0.58646 0.78082 0.0
S821 S 0.39515 0.68697 0.76098 0.0
N822 N 0.36053 0.70288 0.77065 0.0
N823 N 0.3818 0.64469 0.76042 0.0
C824 C 0.34756 0.64184 0.76824 0.0
C825 C 0.3361 0.6734 0.77392 0.0
C826 C 0.90199 0.5156 0.48206 0.0
C827 C 0.92396 0.52431 0.51054 0.0
C828 C 0.86878 0.49464 0.48557 0.0
C829 C 0.85629 0.48162 0.5177 0.0
H830 H 0.91033 0.52548 0.4569 0.0
H831 H 0.85271 0.48885 0.46291 0.0
S832 S 0.90516 0.49468 0.60002 0.0
N833 N 0.93192 0.5167 0.57165 0.0
N834 N 0.86956 0.4777 0.57846 0.0
C835 C 0.87835 0.48974 0.54634 0.0
C836 C 0.91214 0.51098 0.54271 0.0
C837 C 0.75248 0.87782 0.84618 0.0
C838 C 0.75403 0.85602 0.81984 0.0
C839 C 0.7325 0.90428 0.84245 0.0
C840 C 0.71307 0.90996 0.81229 0.0
H841 H 0.76763 0.87504 0.86953 0.0
H842 H 0.7328 0.92075 0.86331 0.0
S843 S 0.70603 0.85774 0.73679 0.0
N844 N 0.73276 0.84023 0.76344 0.0
N845 N 0.69528 0.88992 0.75623 0.0
C846 C 0.71355 0.88753 0.78612 0.0
C847 C 0.73402 0.86064 0.78994 0.0
C848 C 0.67025 0.5119 1.00264 0.0
C849 C 0.63699 0.52058 0.99572 0.0
C850 C 0.69983 0.53765 0.00787 0.0
C851 C 0.6971 0.57296 0.00681 0.0
H852 H 0.67352 0.48508 1.00345 0.0
H853 H 0.72499 0.52974 0.01292 0.0
S854 S 0.61512 0.60872 0.99114 0.0
N855 N 0.60256 0.56649 0.98914 0.0
N856 N 0.65788 0.61491 0.99901 0.0
C857 C 0.66372 0.5818 1.00043 0.0
C858 C 0.63375 0.55561 0.99487 0.0
C859 C 0.26802 0.61961 0.257 0.0
C860 C 0.25907 0.65255 0.25055 0.0
C861 C 0.24204 0.5898 0.26048 0.0
C862 C 0.20608 0.5918 0.25781 0.0
H863 H 0.29532 0.6168 0.25891 0.0
H864 H 0.25031 0.565 0.26525 0.0
S865 S 0.1691 0.67255 0.2431 0.0
N866 N 0.212 0.68581 0.24313 0.0
N867 N 0.16312 0.62998 0.24936 0.0
C868 C 0.19686 0.62477 0.25177 0.0
C869 C 0.22335 0.65507 0.24822 0.0
C870 C 0.93115 0.55734 0.06453 0.0
C871 C 0.92573 0.52094 0.06666 0.0
C872 C 0.90291 0.57507 0.05822 0.0
C873 C 0.86822 0.55697 0.05454 0.0
H874 H 0.95745 0.57215 0.0672 0.0
H875 H 0.90827 0.60313 0.05648 0.0
S876 S 0.84045 0.46128 0.05886 0.0
N877 N 0.88345 0.46738 0.06503 0.0
N878 N 0.83035 0.50035 0.05377 0.0
C879 C 0.86259 0.52048 0.05713 0.0
C880 C 0.89135 0.50257 0.06302 0.0
C881 C 0.1245 0.96679 0.03831 0.0
C882 C 0.10459 0.9823 0.01329 0.0
C883 C 0.15463 0.95457 0.03012 0.0
C884 C 0.16612 0.95745 0.99654 0.0
H885 H 0.11657 0.96395 0.06443 0.0
H886 H 0.16883 0.94251 0.05037 0.0
S887 S 0.12394 0.99809 0.92198 0.0
N888 N 0.09901 1.00149 0.95393 0.0
N889 N 0.1555 0.97831 0.93825 0.0
C890 C 0.14667 0.97356 0.97133 0.0
C891 C 0.11601 0.98613 0.97979 0.0
loop_
_geom_bond_atom_site_label_1
_geom_bond_atom_site_label_2
_geom_bond_distance
_geom_bond_site_symmetry_2
_ccdc_geom_bond_type
H0 C7 0.929 . S
H1 C10 0.930 . S
H2 C12 0.929 1_556 S
H3 C4 0.969 . S
C4 H3 0.969 . S
C4 O5 1.550 1_565 S
C4 H6 0.973 . S
O5 C4 1.550 1_545 S
O5 C11 1.412 . S
H6 C4 0.973 . S
C7 H0 0.929 . S
C7 C8 1.400 1_655 S
C7 C9 1.364 1_655 S
C8 C7 1.400 1_455 S
C8 C12 1.377 . S
C9 C7 1.364 1_455 S
C9 C10 1.374 . S
C10 H1 0.930 . S
C10 C9 1.374 . S
C10 C11 1.383 . S
C11 O5 1.412 . S
C11 C10 1.383 . S
C11 C12 1.394 . S
C12 H2 0.929 1_554 S
C12 C8 1.377 . S
C12 C11 1.394 . S
H13 C20 0.929 . S
H14 C23 0.930 . S
H15 C25 0.929 . S
H16 C17 0.969 . S
C17 H16 0.969 . S
C17 O18 1.550 . S
C17 H19 0.973 . S
O18 C17 1.550 . S
O18 C24 1.412 . S
H19 C17 0.973 . S
C20 H13 0.929 . S
C20 C21 1.400 . S
C20 C22 1.364 . S
C21 C20 1.400 . S
C21 C25 1.377 . S
C22 C20 1.364 . S
C22 C23 1.374 . S
C23 H14 0.930 . S
C23 C22 1.374 . S
C23 C24 1.383 . S
C24 O18 1.412 . S
C24 C23 1.383 . S
C24 C25 1.394 . S
C25 H15 0.929 . S
C25 C21 1.377 . S
C25 C24 1.394 . S
H26 C33 0.929 . S
H27 C36 0.930 . S
H28 C38 0.929 . S
H29 C30 0.969 1_556 S
C30 H29 0.969 1_554 S
C30 O31 1.550 . S
C30 H32 0.973 1_554 S
O31 C30 1.550 . S
O31 C37 1.412 . S
H32 C30 0.973 1_556 S
C33 H26 0.929 . S
C33 C34 1.400 . S
C33 C35 1.364 . S
C34 C33 1.400 . S
C34 C38 1.377 1_655 S
C35 C33 1.364 . S
C35 C36 1.374 . S
C36 H27 0.930 . S
C36 C35 1.374 . S
C36 C37 1.383 . S
C37 O31 1.412 . S
C37 C36 1.383 . S
C37 C38 1.394 1_655 S
C38 H28 0.929 . S
C38 C34 1.377 1_455 S
C38 C37 1.394 1_455 S
H39 C46 0.929 . S
H40 C49 0.930 . S
H41 C51 0.929 . S
H42 C43 0.969 . S
C43 H42 0.969 . S
C43 O44 1.550 . S
C43 H45 0.973 . S
O44 C43 1.550 . S
O44 C50 1.412 . S
H45 C43 0.973 . S
C46 H39 0.929 . S
C46 C47 1.400 . S
C46 C48 1.364 . S
C47 C46 1.400 . S
C47 C51 1.377 . S
C48 C46 1.364 . S
C48 C49 1.374 . S
C49 H40 0.930 . S
C49 C48 1.374 . S
C49 C50 1.383 . S
C50 O44 1.412 . S
C50 C49 1.383 . S
C50 C51 1.394 . S
C51 H41 0.929 . S
C51 C47 1.377 . S
C51 C50 1.394 . S
H52 C59 0.929 . S
H53 C62 0.930 . S
H54 C64 0.929 . S
H55 C56 0.969 . S
C56 H55 0.969 . S
C56 O57 1.550 1_655 S
C56 H58 0.973 . S
O57 C56 1.550 1_455 S
O57 C63 1.412 . S
H58 C56 0.973 . S
C59 H52 0.929 . S
C59 C60 1.400 1_565 S
C59 C61 1.364 . S
C60 C59 1.400 1_545 S
C60 C64 1.377 . S
C61 C59 1.364 . S
C61 C62 1.374 . S
C62 H53 0.930 . S
C62 C61 1.374 . S
C62 C63 1.383 . S
C63 O57 1.412 . S
C63 C62 1.383 . S
C63 C64 1.394 1_565 S
C64 H54 0.929 . S
C64 C60 1.377 . S
C64 C63 1.394 1_545 S
H65 C72 0.929 . S
H66 C75 0.930 . S
H67 C77 0.929 . S
H68 C69 0.969 . S
C69 H68 0.969 . S
C69 O70 1.550 . S
C69 H71 0.973 . S
O70 C69 1.550 . S
O70 C76 1.412 . S
H71 C69 0.973 . S
C72 H65 0.929 . S
C72 C73 1.400 . S
C72 C74 1.364 . S
C73 C72 1.400 . S
C73 C77 1.377 . S
C74 C72 1.364 . S
C74 C75 1.374 . S
C75 H66 0.930 . S
C75 C74 1.374 . S
C75 C76 1.383 . S
C76 O70 1.412 . S
C76 C75 1.383 . S
C76 C77 1.394 . S
C77 H67 0.929 . S
C77 C73 1.377 . S
C77 C76 1.394 . S
H78 C85 0.929 . S
H79 C88 0.930 . S
H80 C90 0.929 . S
H81 C82 0.969 . S
C82 H81 0.969 . S
C82 O83 1.550 . S
C82 H84 0.973 . S
O83 C82 1.550 . S
O83 C89 1.412 1_455 S
H84 C82 0.973 . S
C85 H78 0.929 . S
C85 C86 1.400 . S
C85 C87 1.364 . S
C86 C85 1.400 . S
C86 C90 1.377 1_655 S
C87 C85 1.364 . S
C87 C88 1.374 . S
C88 H79 0.930 . S
C88 C87 1.374 . S
C88 C89 1.383 . S
C89 O83 1.412 1_655 S
C89 C88 1.383 . S
C89 C90 1.394 1_655 S
C90 H80 0.929 . S
C90 C86 1.377 1_455 S
C90 C89 1.394 1_455 S
H91 C98 0.929 . S
H92 C101 0.930 . S
H93 C103 0.929 . S
H94 C95 0.969 . S
C95 H94 0.969 . S
C95 O96 1.550 . S
C95 H97 0.973 . S
O96 C95 1.550 . S
O96 C102 1.412 . S
H97 C95 0.973 . S
C98 H91 0.929 . S
C98 C99 1.400 . S
C98 C100 1.364 . S
C99 C98 1.400 . S
C99 C103 1.377 . S
C100 C98 1.364 . S
C100 C101 1.374 . S
C101 H92 0.930 . S
C101 C100 1.374 . S
C101 C102 1.383 . S
C102 O96 1.412 . S
C102 C101 1.383 . S
C102 C103 1.394 . S
C103 H93 0.929 . S
C103 C99 1.377 . S
C103 C102 1.394 . S
H104 C111 0.929 . S
H105 C114 0.930 . S
H106 C116 0.929 . S
H107 C108 0.969 . S
C108 H107 0.969 . S
C108 O109 1.550 . S
C108 H110 0.973 . S
O109 C108 1.550 . S
O109 C115 1.412 . S
H110 C108 0.973 . S
C111 H104 0.929 . S
C111 C112 1.400 . S
C111 C113 1.364 . S
C112 C111 1.400 . S
C112 C116 1.377 . S
C113 C111 1.364 . S
C113 C114 1.374 . S
C114 H105 0.930 . S
C114 C113 1.374 . S
C114 C115 1.383 . S
C115 O109 1.412 . S
C115 C114 1.383 . S
C115 C116 1.394 . S
C116 H106 0.929 . S
C116 C112 1.377 . S
C116 C115 1.394 . S
H117 C124 0.929 1_545 S
H118 C127 0.930 . S
H119 C129 0.929 . S
H120 C121 0.969 . S
C121 H120 0.969 . S
C121 O122 1.550 . S
C121 H123 0.973 . S
O122 C121 1.550 . S
O122 C128 1.412 . S
H123 C121 0.973 . S
C124 H117 0.929 1_565 S
C124 C125 1.400 . S
C124 C126 1.364 . S
C125 C124 1.400 . S
C125 C129 1.377 . S
C126 C124 1.364 . S
C126 C127 1.374 . S
C127 H118 0.930 . S
C127 C126 1.374 . S
C127 C128 1.383 . S
C128 O122 1.412 . S
C128 C127 1.383 . S
C128 C129 1.394 . S
C129 H119 0.929 . S
C129 C125 1.377 . S
C129 C128 1.394 . S
H130 C137 0.929 . S
H131 C140 0.930 . S
H132 C142 0.929 . S
H133 C134 0.969 . S
C134 H133 0.969 . S
C134 O135 1.550 . S
C134 H136 0.973 . S
O135 C134 1.550 . S
O135 C141 1.412 . S
H136 C134 0.973 . S
C137 H130 0.929 . S
C137 C138 1.400 . S
C137 C139 1.364 . S
C138 C137 1.400 . S
C138 C142 1.377 . S
C139 C137 1.364 . S
C139 C140 1.374 . S
C140 H131 0.930 . S
C140 C139 1.374 . S
C140 C141 1.383 . S
C141 O135 1.412 . S
C141 C140 1.383 . S
C141 C142 1.394 . S
C142 H132 0.929 . S
C142 C138 1.377 . S
C142 C141 1.394 . S
H143 C150 0.929 . S
H144 C153 0.930 . S
H145 C155 0.929 . S
H146 C147 0.969 . S
C147 H146 0.969 . S
C147 O148 1.550 . S
C147 H149 0.973 . S
O148 C147 1.550 . S
O148 C154 1.412 . S
H149 C147 0.973 . S
C150 H143 0.929 . S
C150 C151 1.400 . S
C150 C152 1.364 . S
C151 C150 1.400 . S
C151 C155 1.377 . S
C152 C150 1.364 . S
C152 C153 1.374 . S
C153 H144 0.930 . S
C153 C152 1.374 . S
C153 C154 1.383 . S
C154 O148 1.412 . S
C154 C153 1.383 . S
C154 C155 1.394 . S
C155 H145 0.929 . S
C155 C151 1.377 . S
C155 C154 1.394 . S
H156 C163 0.929 . S
H157 C166 0.930 . S
H158 C168 0.929 . S
H159 C160 0.969 . S
C160 H159 0.969 . S
C160 O161 1.550 . S
C160 H162 0.973 . S
O161 C160 1.550 . S
O161 C167 1.412 . S
H162 C160 0.973 . S
C163 H156 0.929 . S
C163 C164 1.400 . S
C163 C165 1.364 . S
C164 C163 1.400 . S
C164 C168 1.377 . S
C165 C163 1.364 . S
C165 C166 1.374 . S
C166 H157 0.930 . S
C166 C165 1.374 . S
C166 C167 1.383 . S
C167 O161 1.412 . S
C167 C166 1.383 . S
C167 C168 1.394 . S
C168 H158 0.929 . S
C168 C164 1.377 . S
C168 C167 1.394 . S
H169 C176 0.929 1_554 S
H170 C179 0.930 . S
H171 C181 0.929 . S
H172 C173 0.969 . S
C173 H172 0.969 . S
C173 O174 1.550 . S
C173 H175 0.973 . S
O174 C173 1.550 . S
O174 C180 1.412 . S
H175 C173 0.973 . S
C176 H169 0.929 1_556 S
C176 C177 1.400 . S
C176 C178 1.364 . S
C177 C176 1.400 . S
C177 C181 1.377 . S
C178 C176 1.364 . S
C178 C179 1.374 . S
C179 H170 0.930 . S
C179 C178 1.374 . S
C179 C180 1.383 . S
C180 O174 1.412 . S
C180 C179 1.383 . S
C180 C181 1.394 . S
C181 H171 0.929 . S
C181 C177 1.377 . S
C181 C180 1.394 . S
H182 C189 0.929 . S
H183 C192 0.930 . S
H184 C194 0.929 . S
H185 C186 0.969 . S
C186 H185 0.969 . S
C186 O187 1.550 . S
C186 H188 0.973 . S
O187 C186 1.550 . S
O187 C193 1.412 . S
H188 C186 0.973 . S
C189 H182 0.929 . S
C189 C190 1.400 . S
C189 C191 1.364 . S
C190 C189 1.400 . S
C190 C194 1.377 . S
C191 C189 1.364 . S
C191 C192 1.374 . S
C192 H183 0.930 . S
C192 C191 1.374 . S
C192 C193 1.383 . S
C193 O187 1.412 . S
C193 C192 1.383 . S
C193 C194 1.394 . S
C194 H184 0.929 . S
C194 C190 1.377 . S
C194 C193 1.394 . S
H195 C202 0.929 . S
H196 C205 0.930 . S
H197 C207 0.929 . S
H198 C199 0.969 . S
C199 H198 0.969 . S
C199 O200 1.550 . S
C199 H201 0.973 . S
O200 C199 1.550 . S
O200 C206 1.412 . S
H201 C199 0.973 . S
C202 H195 0.929 . S
C202 C203 1.400 . S
C202 C204 1.364 1_554 S
C203 C202 1.400 . S
C203 C207 1.377 1_554 S
C204 C202 1.364 1_556 S
C204 C205 1.374 . S
C205 H196 0.930 . S
C205 C204 1.374 . S
C205 C206 1.383 . S
C206 O200 1.412 . S
C206 C205 1.383 . S
C206 C207 1.394 . S
C207 H197 0.929 . S
C207 C203 1.377 1_556 S
C207 C206 1.394 . S
C208 O209 1.188 . S
C208 O215 1.166 1_556 S
O209 C208 1.188 . S
O210 Zn211 1.899 1_556 S
O210 C218 1.284 . S
Zn211 O210 1.899 1_554 S
Zn211 O212 2.032 1_554 S
Zn211 O215 2.086 . S
Zn211 O220 1.977 . S
O212 Zn211 2.032 1_556 S
O212 C216 1.281 . S
C213 O214 1.203 . S
C213 O220 1.267 . S
O214 C213 1.203 . S
O215 C208 1.166 1_554 S
O215 Zn211 2.086 . S
C216 O212 1.281 . S
C216 O217 1.203 1_556 S
O217 C216 1.203 1_554 S
C218 O210 1.284 . S
C218 O219 1.273 . S
O219 C218 1.273 . S
O220 Zn211 1.977 . S
O220 C213 1.267 . S
C221 O222 1.160 . S
C221 O228 1.185 . S
O222 C221 1.160 . S
O223 Zn224 1.899 . S
O223 C231 1.284 . S
Zn224 O223 1.899 . S
Zn224 O225 2.032 . S
Zn224 O228 2.086 . S
Zn224 O233 1.977 . S
O225 Zn224 2.032 . S
O225 C229 1.278 . S
C226 O227 1.203 . S
C226 O233 1.267 . S
O227 C226 1.203 . S
O228 C221 1.185 . S
O228 Zn224 2.086 . S
C229 O225 1.278 . S
C229 O230 1.211 . S
O230 C229 1.211 . S
C231 O223 1.284 . S
C231 O232 1.273 . S
O232 C231 1.273 . S
O233 Zn224 1.977 . S
O233 C226 1.267 . S
C234 O235 1.160 . S
C234 O241 1.185 . S
O235 C234 1.160 . S
O236 Zn237 1.899 . S
O236 C244 1.284 1_554 S
Zn237 O236 1.899 . S
Zn237 O238 2.032 . S
Zn237 O241 2.086 . S
Zn237 O246 1.977 . S
O238 Zn237 2.032 . S
O238 C242 1.278 . S
C239 O240 1.203 . S
C239 O246 1.267 . S
O240 C239 1.203 . S
O241 C234 1.185 . S
O241 Zn237 2.086 . S
C242 O238 1.278 . S
C242 O243 1.211 . S
O243 C242 1.211 . S
C244 O236 1.284 1_556 S
C244 O245 1.273 . S
O245 C244 1.273 . S
O246 Zn237 1.977 . S
O246 C239 1.267 . S
C247 O248 1.160 . S
C247 O254 1.185 . S
O248 C247 1.160 . S
O249 Zn250 1.899 . S
O249 C257 1.284 . S
Zn250 O249 1.899 . S
Zn250 O251 2.032 . S
Zn250 O254 2.086 . S
Zn250 O259 1.977 . S
O251 Zn250 2.032 . S
O251 C255 1.278 1_545 S
C252 O253 1.203 . S
C252 O259 1.267 . S
O253 C252 1.203 . S
O254 C247 1.185 . S
O254 Zn250 2.086 . S
C255 O251 1.278 1_565 S
C255 O256 1.211 . S
O256 C255 1.211 . S
C257 O249 1.284 . S
C257 O258 1.273 1_545 S
O258 C257 1.273 1_565 S
O259 Zn250 1.977 . S
O259 C252 1.267 . S
C260 O261 1.160 . S
C260 O267 1.185 . S
O261 C260 1.160 . S
O262 Zn263 1.899 . S
O262 C270 1.284 . S
Zn263 O262 1.899 . S
Zn263 O264 2.032 . S
Zn263 O267 2.086 . S
Zn263 O272 1.977 . S
O264 Zn263 2.032 . S
O264 C268 1.278 . S
C265 O266 1.203 . S
C265 O272 1.267 . S
O266 C265 1.203 . S
O267 C260 1.185 . S
O267 Zn263 2.086 . S
C268 O264 1.278 . S
C268 O269 1.211 . S
O269 C268 1.211 . S
C270 O262 1.284 . S
C270 O271 1.273 . S
O271 C270 1.273 . S
O272 Zn263 1.977 . S
O272 C265 1.267 . S
C273 O274 1.160 . S
C273 O280 1.185 . S
O274 C273 1.160 . S
O275 Zn276 1.899 . S
O275 C283 1.284 . S
Zn276 O275 1.899 . S
Zn276 O277 2.032 . S
Zn276 O280 2.086 . S
Zn276 O285 1.977 . S
O277 Zn276 2.032 . S
O277 C281 1.278 . S
C278 O279 1.203 . S
C278 O285 1.267 . S
O279 C278 1.203 . S
O280 C273 1.185 . S
O280 Zn276 2.086 . S
C281 O277 1.278 . S
C281 O282 1.211 . S
O282 C281 1.211 . S
C283 O275 1.284 . S
C283 O284 1.273 . S
O284 C283 1.273 . S
O285 Zn276 1.977 . S
O285 C278 1.267 . S
C286 O287 1.160 . S
C286 O293 1.185 . S
O287 C286 1.160 . S
O288 Zn289 1.899 . S
O288 C296 1.284 . S
Zn289 O288 1.899 . S
Zn289 O290 2.032 . S
Zn289 O293 2.086 . S
Zn289 O298 1.977 . S
O290 Zn289 2.032 . S
O290 C294 1.278 . S
C291 O292 1.203 . S
C291 O298 1.267 . S
O292 C291 1.203 . S
O293 C286 1.185 . S
O293 Zn289 2.086 . S
C294 O290 1.278 . S
C294 O295 1.211 . S
O295 C294 1.211 . S
C296 O288 1.284 . S
C296 O297 1.273 . S
O297 C296 1.273 . S
O298 Zn289 1.977 . S
O298 C291 1.267 . S
C299 O300 1.160 . S
C299 O306 1.185 . S
O300 C299 1.160 . S
O301 Zn302 1.899 . S
O301 C309 1.284 1_565 S
Zn302 O301 1.899 . S
Zn302 O303 2.032 1_565 S
Zn302 O306 2.086 . S
Zn302 O311 1.977 . S
O303 Zn302 2.032 1_545 S
O303 C307 1.278 . S
C304 O305 1.203 1_565 S
C304 O311 1.267 . S
O305 C304 1.203 1_545 S
O306 C299 1.185 . S
O306 Zn302 2.086 . S
C307 O303 1.278 . S
C307 O308 1.211 . S
O308 C307 1.211 . S
C309 O301 1.284 1_545 S
C309 O310 1.273 . S
O310 C309 1.273 . S
O311 Zn302 1.977 . S
O311 C304 1.267 . S
C312 O313 1.160 . S
C312 O319 1.185 1_655 S
O313 C312 1.160 . S
O314 Zn315 1.899 1_655 S
O314 C322 1.284 . S
Zn315 O314 1.899 1_455 S
Zn315 O316 2.032 1_455 S
Zn315 O319 2.086 . S
Zn315 O324 1.977 . S
O316 Zn315 2.032 1_655 S
O316 C320 1.278 1_655 S
C317 O318 1.203 . S
C317 O324 1.267 . S
O318 C317 1.203 . S
O319 C312 1.185 1_455 S
O319 Zn315 2.086 . S
C320 O316 1.278 1_455 S
C320 O321 1.211 . S
O321 C320 1.211 . S
C322 O314 1.284 . S
C322 O323 1.273 . S
O323 C322 1.273 . S
O324 Zn315 1.977 . S
O324 C317 1.267 . S
C325 O326 1.160 . S
C325 O332 1.185 . S
O326 C325 1.160 . S
O327 Zn328 1.899 . S
O327 C335 1.284 . S
Zn328 O327 1.899 . S
Zn328 O329 2.032 . S
Zn328 O332 2.086 . S
Zn328 O337 1.977 . S
O329 Zn328 2.032 . S
O329 C333 1.278 . S
C330 O331 1.203 . S
C330 O337 1.267 . S
O331 C330 1.203 . S
O332 C325 1.185 . S
O332 Zn328 2.086 . S
C333 O329 1.278 . S
C333 O334 1.211 . S
O334 C333 1.211 . S
C335 O327 1.284 . S
C335 O336 1.273 . S
O336 C335 1.273 . S
O337 Zn328 1.977 . S
O337 C330 1.267 . S
C338 O339 1.160 1_455 S
C338 O345 1.185 . S
O339 C338 1.160 1_655 S
O340 Zn341 1.899 1_655 S
O340 C348 1.284 . S
Zn341 O340 1.899 1_455 S
Zn341 O342 2.032 . S
Zn341 O345 2.086 . S
Zn341 O350 1.977 . S
O342 Zn341 2.032 . S
O342 C346 1.278 . S
C343 O344 1.203 . S
C343 O350 1.267 . S
O344 C343 1.203 . S
O345 C338 1.185 . S
O345 Zn341 2.086 . S
C346 O342 1.278 . S
C346 O347 1.211 . S
O347 C346 1.211 . S
C348 O340 1.284 . S
C348 O349 1.273 . S
O349 C348 1.273 . S
O350 Zn341 1.977 . S
O350 C343 1.267 . S
C351 O352 1.160 . S
C351 O358 1.185 . S
O352 C351 1.160 . S
O353 Zn354 1.899 . S
O353 C361 1.284 . S
Zn354 O353 1.899 . S
Zn354 O355 2.032 . S
Zn354 O358 2.086 . S
Zn354 O363 1.977 . S
O355 Zn354 2.032 . S
O355 C359 1.278 . S
C356 O357 1.203 . S
C356 O363 1.267 . S
O357 C356 1.203 . S
O358 C351 1.185 . S
O358 Zn354 2.086 . S
C359 O355 1.278 . S
C359 O360 1.211 . S
O360 C359 1.211 . S
C361 O353 1.284 . S
C361 O362 1.273 . S
O362 C361 1.273 . S
O363 Zn354 1.977 . S
O363 C356 1.267 . S
C364 C365 1.369 . S
C364 C366 1.419 . S
C364 H368 0.930 . S
C365 C364 1.369 . S
C365 C374 1.429 . S
C366 C364 1.419 . S
C366 C367 1.363 . S
C366 H369 0.929 . S
C367 C366 1.363 . S
C367 C373 1.428 . S
H368 C364 0.930 . S
H369 C366 0.929 . S
S370 N371 1.613 . S
S370 N372 1.610 . S
N371 S370 1.613 . S
N371 C374 1.350 . S
N372 S370 1.610 . S
N372 C373 1.351 . S
C373 C367 1.428 . S
C373 N372 1.351 . S
C373 C374 1.434 . S
C374 C365 1.429 . S
C374 N371 1.350 . S
C374 C373 1.434 . S
C375 C376 1.369 . S
C375 C377 1.419 . S
C375 H379 0.930 . S
C376 C375 1.369 . S
C376 C385 1.429 . S
C377 C375 1.419 . S
C377 C378 1.363 . S
C377 H380 0.929 . S
C378 C377 1.363 . S
C378 C384 1.428 . S
H379 C375 0.930 . S
H380 C377 0.929 . S
S381 N382 1.613 . S
S381 N383 1.610 . S
N382 S381 1.613 . S
N382 C385 1.350 . S
N383 S381 1.610 . S
N383 C384 1.351 . S
C384 C378 1.428 . S
C384 N383 1.351 . S
C384 C385 1.434 . S
C385 C376 1.429 . S
C385 N382 1.350 . S
C385 C384 1.434 . S
C386 C387 1.369 . S
C386 C388 1.419 . S
C386 H390 0.930 . S
C387 C386 1.369 . S
C387 C396 1.429 . S
C388 C386 1.419 . S
C388 C389 1.363 . S
C388 H391 0.929 . S
C389 C388 1.363 . S
C389 C395 1.428 . S
H390 C386 0.930 . S
H391 C388 0.929 . S
S392 N393 1.613 . S
S392 N394 1.610 . S
N393 S392 1.613 . S
N393 C396 1.350 . S
N394 S392 1.610 . S
N394 C395 1.351 . S
C395 C389 1.428 . S
C395 N394 1.351 . S
C395 C396 1.434 . S
C396 C387 1.429 . S
C396 N393 1.350 . S
C396 C395 1.434 . S
C397 C398 1.369 1_545 S
C397 C399 1.419 . S
C397 H401 0.930 . S
C398 C397 1.369 1_565 S
C398 C407 1.429 . S
C399 C397 1.419 . S
C399 C400 1.363 . S
C399 H402 0.929 . S
C400 C399 1.363 . S
C400 C406 1.428 1_545 S
H401 C397 0.930 . S
H402 C399 0.929 . S
S403 N404 1.613 . S
S403 N405 1.610 . S
N404 S403 1.613 . S
N404 C407 1.350 . S
N405 S403 1.610 . S
N405 C406 1.351 . S
C406 C400 1.428 1_565 S
C406 N405 1.351 . S
C406 C407 1.434 . S
C407 C398 1.429 . S
C407 N404 1.350 . S
C407 C406 1.434 . S
C408 C409 1.369 . S
C408 C410 1.419 . S
C408 H412 0.930 . S
C409 C408 1.369 . S
C409 C418 1.429 . S
C410 C408 1.419 . S
C410 C411 1.363 . S
C410 H413 0.929 . S
C411 C410 1.363 . S
C411 C417 1.428 . S
H412 C408 0.930 . S
H413 C410 0.929 . S
S414 N415 1.613 . S
S414 N416 1.610 . S
N415 S414 1.613 . S
N415 C418 1.350 . S
N416 S414 1.610 . S
N416 C417 1.351 . S
C417 C411 1.428 . S
C417 N416 1.351 . S
C417 C418 1.434 . S
C418 C409 1.429 . S
C418 N415 1.350 . S
C418 C417 1.434 . S
C419 C420 1.369 . S
C419 C421 1.419 . S
C419 H423 0.930 . S
C420 C419 1.369 . S
C420 C429 1.429 . S
C421 C419 1.419 . S
C421 C422 1.363 . S
C421 H424 0.929 . S
C422 C421 1.363 . S
C422 C428 1.428 . S
H423 C419 0.930 . S
H424 C421 0.929 . S
S425 N426 1.613 . S
S425 N427 1.610 . S
N426 S425 1.613 . S
N426 C429 1.350 . S
N427 S425 1.610 . S
N427 C428 1.351 . S
C428 C422 1.428 . S
C428 N427 1.351 . S
C428 C429 1.434 . S
C429 C420 1.429 . S
C429 N426 1.350 . S
C429 C428 1.434 . S
C430 C431 1.369 . S
C430 C432 1.419 . S
C430 H434 0.930 . S
C431 C430 1.369 . S
C431 C440 1.429 . S
C432 C430 1.419 . S
C432 C433 1.363 . S
C432 H435 0.929 . S
C433 C432 1.363 . S
C433 C439 1.428 . S
H434 C430 0.930 . S
H435 C432 0.929 . S
S436 N437 1.613 . S
S436 N438 1.610 . S
N437 S436 1.613 . S
N437 C440 1.350 . S
N438 S436 1.610 . S
N438 C439 1.351 . S
C439 C433 1.428 . S
C439 N438 1.351 . S
C439 C440 1.434 . S
C440 C431 1.429 . S
C440 N437 1.350 . S
C440 C439 1.434 . S
C441 C442 1.369 . S
C441 C443 1.419 . S
C441 H445 0.930 1_565 S
C442 C441 1.369 . S
C442 C451 1.429 . S
C443 C441 1.419 . S
C443 C444 1.363 . S
C443 H446 0.929 1_565 S
C444 C443 1.363 . S
C444 C450 1.428 . S
H445 C441 0.930 1_545 S
H446 C443 0.929 1_545 S
S447 N448 1.613 . S
S447 N449 1.610 . S
N448 S447 1.613 . S
N448 C451 1.350 . S
N449 S447 1.610 . S
N449 C450 1.351 . S
C450 C444 1.428 . S
C450 N449 1.351 . S
C450 C451 1.434 . S
C451 C442 1.429 . S
C451 N448 1.350 . S
C451 C450 1.434 . S
C452 C453 1.369 . S
C452 C454 1.419 . S
C452 H456 0.930 . S
C453 C452 1.369 . S
C453 C462 1.429 . S
C454 C452 1.419 . S
C454 C455 1.363 . S
C454 H457 0.929 . S
C455 C454 1.363 . S
C455 C461 1.428 . S
H456 C452 0.930 . S
H457 C454 0.929 . S
S458 N459 1.613 . S
S458 N460 1.610 . S
N459 S458 1.613 . S
N459 C462 1.350 . S
N460 S458 1.610 . S
N460 C461 1.351 . S
C461 C455 1.428 . S
C461 N460 1.351 . S
C461 C462 1.434 . S
C462 C453 1.429 . S
C462 N459 1.350 . S
C462 C461 1.434 . S
C463 C464 1.369 . S
C463 C465 1.419 . S
C463 H467 0.930 . S
C464 C463 1.369 . S
C464 C473 1.429 . S
C465 C463 1.419 . S
C465 C466 1.363 . S
C465 H468 0.929 . S
C466 C465 1.363 . S
C466 C472 1.428 . S
H467 C463 0.930 . S
H468 C465 0.929 . S
S469 N470 1.613 . S
S469 N471 1.610 . S
N470 S469 1.613 . S
N470 C473 1.350 . S
N471 S469 1.610 . S
N471 C472 1.351 . S
C472 C466 1.428 . S
C472 N471 1.351 . S
C472 C473 1.434 . S
C473 C464 1.429 . S
C473 N470 1.350 . S
C473 C472 1.434 . S
C474 C475 1.369 . S
C474 C476 1.419 . S
C474 H478 0.930 . S
C475 C474 1.369 . S
C475 C484 1.429 . S
C476 C474 1.419 . S
C476 C477 1.363 . S
C476 H479 0.929 . S
C477 C476 1.363 . S
C477 C483 1.428 . S
H478 C474 0.930 . S
H479 C476 0.929 . S
S480 N481 1.613 . S
S480 N482 1.610 . S
N481 S480 1.613 . S
N481 C484 1.350 . S
N482 S480 1.610 . S
N482 C483 1.351 . S
C483 C477 1.428 . S
C483 N482 1.351 . S
C483 C484 1.434 . S
C484 C475 1.429 . S
C484 N481 1.350 . S
C484 C483 1.434 . S
C485 C486 1.369 . S
C485 C487 1.419 . S
C485 H489 0.930 . S
C486 C485 1.369 . S
C486 C495 1.429 . S
C487 C485 1.419 . S
C487 C488 1.363 . S
C487 H490 0.929 . S
C488 C487 1.363 . S
C488 C494 1.428 . S
H489 C485 0.930 . S
H490 C487 0.929 . S
S491 N492 1.613 . S
S491 N493 1.610 . S
N492 S491 1.613 . S
N492 C495 1.350 . S
N493 S491 1.610 . S
N493 C494 1.351 . S
C494 C488 1.428 . S
C494 N493 1.351 . S
C494 C495 1.434 . S
C495 C486 1.429 . S
C495 N492 1.350 . S
C495 C494 1.434 . S
C496 C497 1.369 . S
C496 C498 1.419 . S
C496 H500 0.930 . S
C497 C496 1.369 . S
C497 C506 1.429 . S
C498 C496 1.419 . S
C498 C499 1.363 . S
C498 H501 0.929 . S
C499 C498 1.363 . S
C499 C505 1.428 . S
H500 C496 0.930 . S
H501 C498 0.929 . S
S502 N503 1.613 . S
S502 N504 1.610 . S
N503 S502 1.613 . S
N503 C506 1.350 . S
N504 S502 1.610 . S
N504 C505 1.351 . S
C505 C499 1.428 . S
C505 N504 1.351 . S
C505 C506 1.434 . S
C506 C497 1.429 . S
C506 N503 1.350 . S
C506 C505 1.434 . S
C507 C508 1.369 . S
C507 C509 1.419 . S
C507 H511 0.930 . S
C508 C507 1.369 . S
C508 C517 1.429 . S
C509 C507 1.419 . S
C509 C510 1.363 . S
C509 H512 0.929 . S
C510 C509 1.363 . S
C510 C516 1.428 . S
H511 C507 0.930 . S
H512 C509 0.929 . S
S513 N514 1.613 . S
S513 N515 1.610 . S
N514 S513 1.613 . S
N514 C517 1.350 . S
N515 S513 1.610 . S
N515 C516 1.351 . S
C516 C510 1.428 . S
C516 N515 1.351 . S
C516 C517 1.434 . S
C517 C508 1.429 . S
C517 N514 1.350 . S
C517 C516 1.434 . S
C518 C519 1.369 . S
C518 C520 1.419 . S
C518 H522 0.930 . S
C519 C518 1.369 . S
C519 C528 1.429 . S
C520 C518 1.419 . S
C520 C521 1.363 . S
C520 H523 0.929 . S
C521 C520 1.363 . S
C521 C527 1.428 . S
H522 C518 0.930 . S
H523 C520 0.929 . S
S524 N525 1.613 . S
S524 N526 1.610 . S
N525 S524 1.613 . S
N525 C528 1.350 . S
N526 S524 1.610 . S
N526 C527 1.351 . S
C527 C521 1.428 . S
C527 N526 1.351 . S
C527 C528 1.434 . S
C528 C519 1.429 . S
C528 N525 1.350 . S
C528 C527 1.434 . S
C529 C530 1.369 1_455 S
C529 C531 1.419 . S
C529 H533 0.930 . S
C530 C529 1.369 1_655 S
C530 C539 1.429 . S
C531 C529 1.419 . S
C531 C532 1.363 1_455 S
C531 H534 0.929 . S
C532 C531 1.363 1_655 S
C532 C538 1.428 . S
H533 C529 0.930 . S
H534 C531 0.929 . S
S535 N536 1.613 . S
S535 N537 1.610 . S
N536 S535 1.613 . S
N536 C539 1.350 . S
N537 S535 1.610 . S
N537 C538 1.351 . S
C538 C532 1.428 . S
C538 N537 1.351 . S
C538 C539 1.434 . S
C539 C530 1.429 . S
C539 N536 1.350 . S
C539 C538 1.434 . S
C540 C541 1.369 . S
C540 C542 1.419 . S
C540 H544 0.930 . S
C541 C540 1.369 . S
C541 C550 1.429 . S
C542 C540 1.419 . S
C542 C543 1.363 . S
C542 H545 0.929 . S
C543 C542 1.363 . S
C543 C549 1.428 . S
H544 C540 0.930 . S
H545 C542 0.929 . S
S546 N547 1.613 . S
S546 N548 1.610 . S
N547 S546 1.613 . S
N547 C550 1.350 . S
N548 S546 1.610 . S
N548 C549 1.351 . S
C549 C543 1.428 . S
C549 N548 1.351 . S
C549 C550 1.434 . S
C550 C541 1.429 . S
C550 N547 1.350 . S
C550 C549 1.434 . S
C551 C552 1.369 . S
C551 C553 1.419 . S
C551 H555 0.930 . S
C552 C551 1.369 . S
C552 C561 1.429 . S
C553 C551 1.419 . S
C553 C554 1.363 . S
C553 H556 0.929 . S
C554 C553 1.363 . S
C554 C560 1.428 . S
H555 C551 0.930 . S
H556 C553 0.929 . S
S557 N558 1.613 . S
S557 N559 1.610 . S
N558 S557 1.613 . S
N558 C561 1.350 . S
N559 S557 1.610 . S
N559 C560 1.351 . S
C560 C554 1.428 . S
C560 N559 1.351 . S
C560 C561 1.434 . S
C561 C552 1.429 . S
C561 N558 1.350 . S
C561 C560 1.434 . S
C562 C563 1.369 1_564 S
C562 C564 1.419 1_554 S
C562 H566 0.930 . S
C563 C562 1.369 1_546 S
C563 C572 1.429 . S
C564 C562 1.419 1_556 S
C564 C565 1.363 . S
C564 H567 0.929 1_556 S
C565 C564 1.363 . S
C565 C571 1.428 1_565 S
H566 C562 0.930 . S
H567 C564 0.929 1_554 S
S568 N569 1.613 . S
S568 N570 1.610 . S
N569 S568 1.613 . S
N569 C572 1.350 . S
N570 S568 1.610 . S
N570 C571 1.351 . S
C571 C565 1.428 1_545 S
C571 N570 1.351 . S
C571 C572 1.434 . S
C572 C563 1.429 . S
C572 N569 1.350 . S
C572 C571 1.434 . S
C573 C574 1.369 . S
C573 C575 1.419 . S
C573 H577 0.930 . S
C574 C573 1.369 . S
C574 C583 1.429 . S
C575 C573 1.419 . S
C575 C576 1.363 . S
C575 H578 0.929 . S
C576 C575 1.363 . S
C576 C582 1.428 . S
H577 C573 0.930 . S
H578 C575 0.929 . S
S579 N580 1.613 . S
S579 N581 1.610 . S
N580 S579 1.613 . S
N580 C583 1.350 . S
N581 S579 1.610 . S
N581 C582 1.351 . S
C582 C576 1.428 . S
C582 N581 1.351 . S
C582 C583 1.434 . S
C583 C574 1.429 . S
C583 N580 1.350 . S
C583 C582 1.434 . S
C584 C585 1.369 . S
C584 C586 1.419 . S
C584 H588 0.930 . S
C585 C584 1.369 . S
C585 C594 1.429 . S
C586 C584 1.419 . S
C586 C587 1.363 . S
C586 H589 0.929 . S
C587 C586 1.363 . S
C587 C593 1.428 . S
H588 C584 0.930 . S
H589 C586 0.929 . S
S590 N591 1.613 . S
S590 N592 1.610 . S
N591 S590 1.613 . S
N591 C594 1.350 . S
N592 S590 1.610 . S
N592 C593 1.351 . S
C593 C587 1.428 . S
C593 N592 1.351 . S
C593 C594 1.434 . S
C594 C585 1.429 . S
C594 N591 1.350 . S
C594 C593 1.434 . S
C595 C596 1.369 . S
C595 C597 1.419 . S
C595 H599 0.930 . S
C596 C595 1.369 . S
C596 C605 1.429 . S
C597 C595 1.419 . S
C597 C598 1.363 . S
C597 H600 0.929 . S
C598 C597 1.363 . S
C598 C604 1.428 . S
H599 C595 0.930 . S
H600 C597 0.929 . S
S601 N602 1.613 . S
S601 N603 1.610 . S
N602 S601 1.613 . S
N602 C605 1.350 . S
N603 S601 1.610 . S
N603 C604 1.351 . S
C604 C598 1.428 . S
C604 N603 1.351 . S
C604 C605 1.434 . S
C605 C596 1.429 . S
C605 N602 1.350 . S
C605 C604 1.434 . S
C606 C607 1.369 . S
C606 C608 1.419 . S
C606 H610 0.930 1_545 S
C607 C606 1.369 . S
C607 C616 1.429 . S
C608 C606 1.419 . S
C608 C609 1.363 . S
C608 H611 0.929 . S
C609 C608 1.363 . S
C609 C615 1.428 . S
H610 C606 0.930 1_565 S
H611 C608 0.929 . S
S612 N613 1.613 . S
S612 N614 1.610 . S
N613 S612 1.613 . S
N613 C616 1.350 . S
N614 S612 1.610 . S
N614 C615 1.351 . S
C615 C609 1.428 . S
C615 N614 1.351 . S
C615 C616 1.434 . S
C616 C607 1.429 . S
C616 N613 1.350 . S
C616 C615 1.434 . S
C617 C618 1.369 . S
C617 C619 1.419 . S
C617 H621 0.930 . S
C618 C617 1.369 . S
C618 C627 1.429 . S
C619 C617 1.419 . S
C619 C620 1.363 . S
C619 H622 0.929 . S
C620 C619 1.363 . S
C620 C626 1.428 . S
H621 C617 0.930 . S
H622 C619 0.929 . S
S623 N624 1.613 . S
S623 N625 1.610 . S
N624 S623 1.613 . S
N624 C627 1.350 . S
N625 S623 1.610 . S
N625 C626 1.351 . S
C626 C620 1.428 . S
C626 N625 1.351 . S
C626 C627 1.434 . S
C627 C618 1.429 . S
C627 N624 1.350 . S
C627 C626 1.434 . S
C628 C629 1.369 . S
C628 C630 1.419 . S
C628 H632 0.930 . S
C629 C628 1.369 . S
C629 C638 1.429 . S
C630 C628 1.419 . S
C630 C631 1.363 . S
C630 H633 0.929 . S
C631 C630 1.363 . S
C631 C637 1.428 . S
H632 C628 0.930 . S
H633 C630 0.929 . S
S634 N635 1.613 . S
S634 N636 1.610 . S
N635 S634 1.613 . S
N635 C638 1.350 . S
N636 S634 1.610 . S
N636 C637 1.351 . S
C637 C631 1.428 . S
C637 N636 1.351 . S
C637 C638 1.434 . S
C638 C629 1.429 . S
C638 N635 1.350 . S
C638 C637 1.434 . S
C639 C640 1.369 . S
C639 C641 1.419 . S
C639 H643 0.930 . S
C640 C639 1.369 . S
C640 C649 1.429 . S
C641 C639 1.419 . S
C641 C642 1.363 . S
C641 H644 0.929 . S
C642 C641 1.363 . S
C642 C648 1.428 . S
H643 C639 0.930 . S
H644 C641 0.929 . S
S645 N646 1.613 . S
S645 N647 1.610 . S
N646 S645 1.613 . S
N646 C649 1.350 1_565 S
N647 S645 1.610 . S
N647 C648 1.351 1_565 S
C648 C642 1.428 . S
C648 N647 1.351 1_545 S
C648 C649 1.434 . S
C649 C640 1.429 . S
C649 N646 1.350 1_545 S
C649 C648 1.434 . S
C650 C651 1.369 . S
C650 C652 1.419 . S
C650 H654 0.930 . S
C651 C650 1.369 . S
C651 C660 1.429 . S
C652 C650 1.419 . S
C652 C653 1.363 . S
C652 H655 0.929 . S
C653 C652 1.363 . S
C653 C659 1.428 . S
H654 C650 0.930 . S
H655 C652 0.929 . S
S656 N657 1.613 . S
S656 N658 1.610 . S
N657 S656 1.613 . S
N657 C660 1.350 . S
N658 S656 1.610 . S
N658 C659 1.351 . S
C659 C653 1.428 . S
C659 N658 1.351 . S
C659 C660 1.434 . S
C660 C651 1.429 . S
C660 N657 1.350 . S
C660 C659 1.434 . S
C661 C662 1.369 . S
C661 C663 1.419 . S
C661 H665 0.930 . S
C662 C661 1.369 . S
C662 C671 1.429 . S
C663 C661 1.419 . S
C663 C664 1.363 . S
C663 H666 0.929 . S
C664 C663 1.363 . S
C664 C670 1.428 . S
H665 C661 0.930 . S
H666 C663 0.929 . S
S667 N668 1.613 . S
S667 N669 1.610 . S
N668 S667 1.613 . S
N668 C671 1.350 . S
N669 S667 1.610 . S
N669 C670 1.351 . S
C670 C664 1.428 . S
C670 N669 1.351 . S
C670 C671 1.434 . S
C671 C662 1.429 . S
C671 N668 1.350 . S
C671 C670 1.434 . S
C672 C673 1.369 . S
C672 C674 1.419 . S
C672 H676 0.930 . S
C673 C672 1.369 . S
C673 C682 1.429 . S
C674 C672 1.419 . S
C674 C675 1.363 . S
C674 H677 0.929 . S
C675 C674 1.363 . S
C675 C681 1.428 . S
H676 C672 0.930 . S
H677 C674 0.929 . S
S678 N679 1.613 . S
S678 N680 1.610 . S
N679 S678 1.613 . S
N679 C682 1.350 . S
N680 S678 1.610 . S
N680 C681 1.351 . S
C681 C675 1.428 . S
C681 N680 1.351 . S
C681 C682 1.434 . S
C682 C673 1.429 . S
C682 N679 1.350 . S
C682 C681 1.434 . S
C683 C684 1.369 . S
C683 C685 1.419 . S
C683 H687 0.930 . S
C684 C683 1.369 . S
C684 C693 1.429 . S
C685 C683 1.419 . S
C685 C686 1.363 . S
C685 H688 0.929 . S
C686 C685 1.363 . S
C686 C692 1.428 . S
H687 C683 0.930 . S
H688 C685 0.929 . S
S689 N690 1.618 . S
S689 N691 1.610 . S
N690 S689 1.618 . S
N690 C693 1.371 1_565 S
N691 S689 1.610 . S
N691 C692 1.351 1_565 S
C692 C686 1.428 . S
C692 N691 1.351 1_545 S
C692 C693 1.434 . S
C693 C684 1.429 . S
C693 N690 1.371 1_545 S
C693 C692 1.434 . S
C694 C695 1.369 . S
C694 C696 1.419 . S
C694 H698 0.930 . S
C695 C694 1.369 . S
C695 C704 1.429 . S
C696 C694 1.419 . S
C696 C697 1.363 . S
C696 H699 0.929 . S
C697 C696 1.363 . S
C697 C703 1.428 . S
H698 C694 0.930 . S
H699 C696 0.929 . S
S700 N701 1.613 . S
S700 N702 1.610 . S
N701 S700 1.613 . S
N701 C704 1.350 . S
N702 S700 1.610 . S
N702 C703 1.351 . S
C703 C697 1.428 . S
C703 N702 1.351 . S
C703 C704 1.434 . S
C704 C695 1.429 . S
C704 N701 1.350 . S
C704 C703 1.434 . S
C705 C706 1.369 . S
C705 C707 1.419 . S
C705 H709 0.930 . S
C706 C705 1.369 . S
C706 C715 1.429 . S
C707 C705 1.419 . S
C707 C708 1.363 . S
C707 H710 0.929 . S
C708 C707 1.363 . S
C708 C714 1.428 . S
H709 C705 0.930 . S
H710 C707 0.929 . S
S711 N712 1.613 . S
S711 N713 1.610 1_655 S
N712 S711 1.613 . S
N712 C715 1.350 1_655 S
N713 S711 1.610 1_455 S
N713 C714 1.351 . S
C714 C708 1.428 . S
C714 N713 1.351 . S
C714 C715 1.434 . S
C715 C706 1.429 . S
C715 N712 1.350 1_455 S
C715 C714 1.434 . S
C716 C717 1.369 . S
C716 C718 1.419 . S
C716 H720 0.930 . S
C717 C716 1.369 . S
C717 C726 1.429 . S
C718 C716 1.419 . S
C718 C719 1.363 . S
C718 H721 0.929 . S
C719 C718 1.363 . S
C719 C725 1.428 . S
H720 C716 0.930 . S
H721 C718 0.929 . S
S722 N723 1.613 . S
S722 N724 1.610 . S
N723 S722 1.613 . S
N723 C726 1.350 . S
N724 S722 1.610 . S
N724 C725 1.351 . S
C725 C719 1.428 . S
C725 N724 1.351 . S
C725 C726 1.434 . S
C726 C717 1.429 . S
C726 N723 1.350 . S
C726 C725 1.434 . S
C727 C728 1.369 . S
C727 C729 1.419 . S
C727 H731 0.930 1_556 S
C728 C727 1.369 . S
C728 C737 1.429 . S
C729 C727 1.419 . S
C729 C730 1.363 . S
C729 H732 0.929 . S
C730 C729 1.363 . S
C730 C736 1.428 . S
H731 C727 0.930 1_554 S
H732 C729 0.929 . S
S733 N734 1.613 1_455 S
S733 N735 1.610 . S
N734 S733 1.613 1_655 S
N734 C737 1.350 . S
N735 S733 1.610 . S
N735 C736 1.351 1_455 S
C736 C730 1.428 . S
C736 N735 1.351 1_655 S
C736 C737 1.434 . S
C737 C728 1.429 . S
C737 N734 1.350 . S
C737 C736 1.434 . S
C738 C739 1.369 . S
C738 C740 1.419 . S
C738 H742 0.930 . S
C739 C738 1.369 . S
C739 C748 1.429 . S
C740 C738 1.419 . S
C740 C741 1.363 . S
C740 H743 0.929 . S
C741 C740 1.363 . S
C741 C747 1.428 . S
H742 C738 0.930 . S
H743 C740 0.929 . S
S744 N745 1.613 . S
S744 N746 1.610 . S
N745 S744 1.613 . S
N745 C748 1.350 . S
N746 S744 1.610 . S
N746 C747 1.351 . S
C747 C741 1.428 . S
C747 N746 1.351 . S
C747 C748 1.434 . S
C748 C739 1.429 . S
C748 N745 1.350 . S
C748 C747 1.434 . S
C749 C750 1.369 1_655 S
C749 C751 1.419 . S
C749 H753 0.930 . S
C750 C749 1.369 1_455 S
C750 C759 1.429 1_556 S
C751 C749 1.419 . S
C751 C752 1.363 1_655 S
C751 H754 0.929 . S
C752 C751 1.363 1_455 S
C752 C758 1.428 . S
H753 C749 0.930 . S
H754 C751 0.929 . S
S755 N756 1.613 . S
S755 N757 1.610 1_554 S
N756 S755 1.613 . S
N756 C759 1.349 . S
N757 S755 1.610 1_556 S
N757 C758 1.351 . S
C758 C752 1.428 . S
C758 N757 1.351 . S
C758 C759 1.435 1_556 S
C759 C750 1.429 1_554 S
C759 N756 1.349 . S
C759 C758 1.435 1_554 S
C760 C761 1.369 . S
C760 C762 1.419 . S
C760 H764 0.930 . S
C761 C760 1.369 . S
C761 C770 1.429 . S
C762 C760 1.419 . S
C762 C763 1.363 . S
C762 H765 0.929 . S
C763 C762 1.363 . S
C763 C769 1.428 . S
H764 C760 0.930 . S
H765 C762 0.929 . S
S766 N767 1.613 . S
S766 N768 1.610 . S
N767 S766 1.613 . S
N767 C770 1.350 . S
N768 S766 1.610 . S
N768 C769 1.351 . S
C769 C763 1.428 . S
C769 N768 1.351 . S
C769 C770 1.434 . S
C770 C761 1.429 . S
C770 N767 1.350 . S
C770 C769 1.434 . S
C771 C772 1.369 . S
C771 C773 1.419 . S
C771 H775 0.930 . S
C772 C771 1.369 . S
C772 C781 1.429 . S
C773 C771 1.419 . S
C773 C774 1.363 . S
C773 H776 0.929 . S
C774 C773 1.363 . S
C774 C780 1.428 . S
H775 C771 0.930 . S
H776 C773 0.929 . S
S777 N778 1.613 . S
S777 N779 1.610 . S
N778 S777 1.613 . S
N778 C781 1.350 . S
N779 S777 1.610 . S
N779 C780 1.351 . S
C780 C774 1.428 . S
C780 N779 1.351 . S
C780 C781 1.434 . S
C781 C772 1.429 . S
C781 N778 1.350 . S
C781 C780 1.434 . S
C782 C783 1.369 . S
C782 C784 1.419 . S
C782 H786 0.930 . S
C783 C782 1.369 . S
C783 C792 1.429 . S
C784 C782 1.419 . S
C784 C785 1.363 . S
C784 H787 0.929 . S
C785 C784 1.363 . S
C785 C791 1.428 . S
H786 C782 0.930 . S
H787 C784 0.929 . S
S788 N789 1.613 . S
S788 N790 1.610 . S
N789 S788 1.613 . S
N789 C792 1.350 . S
N790 S788 1.610 . S
N790 C791 1.351 . S
C791 C785 1.428 . S
C791 N790 1.351 . S
C791 C792 1.434 . S
C792 C783 1.429 . S
C792 N789 1.350 . S
C792 C791 1.434 . S
C793 C794 1.369 . S
C793 C795 1.419 . S
C793 H797 0.930 . S
C794 C793 1.369 . S
C794 C803 1.429 . S
C795 C793 1.419 . S
C795 C796 1.363 . S
C795 H798 0.929 . S
C796 C795 1.363 . S
C796 C802 1.428 . S
H797 C793 0.930 . S
H798 C795 0.929 . S
S799 N800 1.613 . S
S799 N801 1.610 . S
N800 S799 1.613 . S
N800 C803 1.350 . S
N801 S799 1.610 . S
N801 C802 1.351 . S
C802 C796 1.428 . S
C802 N801 1.351 . S
C802 C803 1.434 . S
C803 C794 1.429 . S
C803 N800 1.350 . S
C803 C802 1.434 . S
C804 C805 1.369 . S
C804 C806 1.419 . S
C804 H808 0.930 . S
C805 C804 1.369 . S
C805 C814 1.429 . S
C806 C804 1.419 . S
C806 C807 1.363 . S
C806 H809 0.929 . S
C807 C806 1.363 . S
C807 C813 1.428 . S
H808 C804 0.930 . S
H809 C806 0.929 . S
S810 N811 1.613 . S
S810 N812 1.610 . S
N811 S810 1.613 . S
N811 C814 1.350 . S
N812 S810 1.610 . S
N812 C813 1.351 . S
C813 C807 1.428 . S
C813 N812 1.351 . S
C813 C814 1.434 . S
C814 C805 1.429 . S
C814 N811 1.350 . S
C814 C813 1.434 . S
C815 C816 1.369 . S
C815 C817 1.419 . S
C815 H819 0.930 . S
C816 C815 1.369 . S
C816 C825 1.429 . S
C817 C815 1.419 . S
C817 C818 1.363 . S
C817 H820 0.929 . S
C818 C817 1.363 . S
C818 C824 1.428 . S
H819 C815 0.930 . S
H820 C817 0.929 . S
S821 N822 1.613 . S
S821 N823 1.610 . S
N822 S821 1.613 . S
N822 C825 1.350 . S
N823 S821 1.610 . S
N823 C824 1.351 . S
C824 C818 1.428 . S
C824 N823 1.351 . S
C824 C825 1.434 . S
C825 C816 1.429 . S
C825 N822 1.350 . S
C825 C824 1.434 . S
C826 C827 1.369 . S
C826 C828 1.419 . S
C826 H830 0.930 . S
C827 C826 1.369 . S
C827 C836 1.429 . S
C828 C826 1.419 . S
C828 C829 1.363 . S
C828 H831 0.929 . S
C829 C828 1.363 . S
C829 C835 1.428 . S
H830 C826 0.930 . S
H831 C828 0.929 . S
S832 N833 1.613 . S
S832 N834 1.610 . S
N833 S832 1.613 . S
N833 C836 1.350 . S
N834 S832 1.610 . S
N834 C835 1.351 . S
C835 C829 1.428 . S
C835 N834 1.351 . S
C835 C836 1.434 . S
C836 C827 1.429 . S
C836 N833 1.350 . S
C836 C835 1.434 . S
C837 C838 1.369 . S
C837 C839 1.419 . S
C837 H841 0.930 . S
C838 C837 1.369 . S
C838 C847 1.429 . S
C839 C837 1.419 . S
C839 C840 1.363 . S
C839 H842 0.929 . S
C840 C839 1.363 . S
C840 C846 1.428 . S
H841 C837 0.930 . S
H842 C839 0.929 . S
S843 N844 1.613 . S
S843 N845 1.610 . S
N844 S843 1.613 . S
N844 C847 1.350 . S
N845 S843 1.610 . S
N845 C846 1.351 . S
C846 C840 1.428 . S
C846 N845 1.351 . S
C846 C847 1.434 . S
C847 C838 1.429 . S
C847 N844 1.350 . S
C847 C846 1.434 . S
C848 C849 1.369 . S
C848 C850 1.419 1_556 S
C848 H852 0.930 . S
C849 C848 1.369 . S
C849 C858 1.429 . S
C850 C848 1.419 1_554 S
C850 C851 1.363 . S
C850 H853 0.929 . S
C851 C850 1.363 . S
C851 C857 1.428 . S
H852 C848 0.930 . S
H853 C850 0.929 . S
S854 N855 1.613 . S
S854 N856 1.610 1_556 S
N855 S854 1.613 . S
N855 C858 1.350 . S
N856 S854 1.610 1_554 S
N856 C857 1.351 . S
C857 C851 1.428 . S
C857 N856 1.351 . S
C857 C858 1.434 1_554 S
C858 C849 1.429 . S
C858 N855 1.350 . S
C858 C857 1.434 1_556 S
C859 C860 1.369 . S
C859 C861 1.419 . S
C859 H863 0.930 . S
C860 C859 1.369 . S
C860 C869 1.429 . S
C861 C859 1.419 . S
C861 C862 1.363 . S
C861 H864 0.929 . S
C862 C861 1.363 . S
C862 C868 1.428 . S
H863 C859 0.930 . S
H864 C861 0.929 . S
S865 N866 1.613 . S
S865 N867 1.610 . S
N866 S865 1.613 . S
N866 C869 1.350 . S
N867 S865 1.610 . S
N867 C868 1.351 . S
C868 C862 1.428 . S
C868 N867 1.351 . S
C868 C869 1.434 . S
C869 C860 1.429 . S
C869 N866 1.350 . S
C869 C868 1.434 . S
C870 C871 1.369 . S
C870 C872 1.419 . S
C870 H874 0.930 . S
C871 C870 1.369 . S
C871 C880 1.429 . S
C872 C870 1.419 . S
C872 C873 1.363 . S
C872 H875 0.929 . S
C873 C872 1.363 . S
C873 C879 1.428 . S
H874 C870 0.930 . S
H875 C872 0.929 . S
S876 N877 1.613 . S
S876 N878 1.610 . S
N877 S876 1.613 . S
N877 C880 1.350 . S
N878 S876 1.610 . S
N878 C879 1.351 . S
C879 C873 1.428 . S
C879 N878 1.351 . S
C879 C880 1.434 . S
C880 C871 1.429 . S
C880 N877 1.350 . S
C880 C879 1.434 . S
C881 C882 1.369 . S
C881 C883 1.419 . S
C881 H885 0.930 1_565 S
C882 C881 1.369 . S
C882 C891 1.429 . S
C883 C881 1.419 . S
C883 C884 1.363 . S
C883 H886 0.929 . S
C884 C883 1.363 . S
C884 C890 1.428 1_554 S
H885 C881 0.930 1_545 S
H886 C883 0.929 . S
S887 N888 1.613 . S
S887 N889 1.610 . S
N888 S887 1.613 . S
N888 C891 1.350 1_556 S
N889 S887 1.610 . S
N889 C890 1.351 . S
C890 C884 1.428 1_556 S
C890 N889 1.351 . S
C890 C891 1.434 1_556 S
C891 C882 1.429 . S
C891 N888 1.350 1_554 S
C891 C890 1.434 1_554 S
C367 C218 1.624 . S
C365 C73 1.643 . S
C378 C231 1.392 . S
C376 C82 1.358 . S
C387 C100 1.771 . S
C389 C244 1.734 . S
C400 C257 1.377 . S
C398 C56 1.365 . S
C411 C265 1.380 . S
C409 C134 1.432 . S
C422 C278 1.573 . S
C420 C165 1.591 . S
C431 C147 1.259 . S
C433 C291 1.276 . S
C444 C304 1.735 . S
C442 C125 1.772 . S
C453 C151 1.373 . S
C455 C322 1.379 . S
C466 C333 1.489 . S
C464 C121 1.462 . S
C475 C139 1.683 . S
C477 C317 1.663 . S
C488 C325 1.330 . S
C486 C164 1.353 . S
C497 C95 1.366 . S
C499 C348 1.430 . S
C508 C61 1.493 . S
C510 C338 1.479 . S
C519 C74 1.480 . S
C521 C343 1.454 . S
C530 C86 1.747 . S
C532 C346 1.713 1_655 S
C541 C47 1.397 . S
C543 C255 1.381 . S
C552 C186 1.272 . S
C554 C247 1.301 . S
C565 C216 1.528 . S
C563 C204 1.582 . S
C576 C221 1.796 . S
C574 C112 1.814 . S
C585 C60 1.435 . S
C587 C268 1.409 . S
C598 C307 1.430 . S
C596 C152 1.459 . S
C609 C260 1.761 . S
C607 C126 1.802 1_545 S
C620 C286 1.322 . S
C618 C160 1.334 . S
C631 C296 1.624 . S
C629 C190 1.643 . S
C640 C199 1.348 . S
C642 C309 1.394 . S
C651 C113 1.772 . S
C653 C270 1.736 . S
C664 C283 1.380 . S
C662 C173 1.366 . S
C673 C43 1.434 . S
C675 C239 1.388 . S
C686 C252 1.568 . S
C684 C9 1.595 1_655 S
C697 C213 1.277 . S
C695 C17 1.253 . S
C708 C226 1.735 . S
C706 C34 1.773 1_455 S
C717 C21 1.373 . S
C719 C335 1.376 . S
C728 C30 1.461 1_556 S
C730 C320 1.490 1_655 S
C739 C48 1.684 . S
C741 C330 1.667 . S
C750 C8 1.353 1_556 S
C752 C312 1.332 1_455 S
C763 C361 1.429 . S
C761 C108 1.360 . S
C774 C351 1.481 . S
C772 C178 1.490 1_554 S
C785 C356 1.451 . S
C783 C191 1.480 . S
C794 C203 1.748 . S
C796 C359 1.709 . S
C805 C138 1.397 . S
C807 C281 1.383 . S
C818 C273 1.297 . S
C816 C69 1.277 . S
C829 C294 1.519 . S
C827 C87 1.583 . S
C840 C299 1.799 . S
C838 C99 1.815 . S
C849 C177 1.436 . S
C851 C242 1.410 . S
C862 C229 1.429 . S
C860 C22 1.461 . S
C871 C35 1.804 . S
C873 C234 1.760 . S
C884 C208 1.305 1_554 S
C882 C4 1.330 . S
