# Generated by pormake.
# Topology pth, (4,4)-cn, num edge types: 1
# Building blocks:
#     Node 0, Type 0, BuildingBlock: QUQFOY_clean_sbu_1, # of connection points: 4
#     Node 1, Type 0, BuildingBlock: QUQFOY_clean_sbu_1, # of connection points: 4
#     Node 2, Type 0, BuildingBlock: QUQFOY_clean_sbu_1, # of connection points: 4
#     Node 3, Type 1, BuildingBlock: MIFKUJ_clean_linker_1, # of connection points: 4
#     Node 4, Type 1, BuildingBlock: MIFKUJ_clean_linker_1, # of connection points: 4
#     Node 5, Type 1, BuildingBlock: MIFKUJ_clean_linker_1, # of connection points: 4
#     Edge 6, Type (0, 1), BuildingBlock: XIVTED_clean_linker_0, # of connection points: 2
#     Edge 7, Type (0, 1), BuildingBlock: XIVTED_clean_linker_0, # of connection points: 2
#     Edge 8, Type (0, 1), BuildingBlock: XIVTED_clean_linker_0, # of connection points: 2
#     Edge 9, Type (0, 1), BuildingBlock: XIVTED_clean_linker_0, # of connection points: 2
#     Edge 10, Type (0, 1), BuildingBlock: XIVTED_clean_linker_0, # of connection points: 2
#     Edge 11, Type (0, 1), BuildingBlock: XIVTED_clean_linker_0, # of connection points: 2
#     Edge 12, Type (0, 1), BuildingBlock: XIVTED_clean_linker_0, # of connection points: 2
#     Edge 13, Type (0, 1), BuildingBlock: XIVTED_clean_linker_0, # of connection points: 2
#     Edge 14, Type (0, 1), BuildingBlock: XIVTED_clean_linker_0, # of connection points: 2
#     Edge 15, Type (0, 1), BuildingBlock: XIVTED_clean_linker_0, # of connection points: 2
#     Edge 16, Type (0, 1), BuildingBlock: XIVTED_clean_linker_0, # of connection points: 2
#     Edge 17, Type (0, 1), BuildingBlock: XIVTED_clean_linker_0, # of connection points: 2
# Relax obj value: 0.028
# Max RMSD: 0.131
# Mean RMSD: 0.087
data_MOF--net-pth--node1-QUQFOY_clean_sbu_1--node2-MIFKUJ_clean_linker_1--edge1-XIVTED_clean_linker_0
_symmetry_space_group_name_H-M    P1
_symmetry_Int_Tables_number       1
_symmetry_cell_setting            triclinic
loop_
_symmetry_equiv_pos_as_xyz
'x, y, z'
_cell_length_a     28.811379
_cell_length_b     31.030066
_cell_length_c     66.125877
_cell_angle_alpha  90.052574
_cell_angle_beta   89.932799
_cell_angle_gamma 120.05898
loop_
_atom_site_label
_atom_site_type_symbol
_atom_site_fract_x
_atom_site_fract_y
_atom_site_fract_z
_atom_type_partial_charge
O0 O 0.02887 0.06644 0.04648 0.0
Cd1 Cd 0.96834 0.02517 0.06666 0.0
Cd2 Cd 0.02378 0.9775 0.06984 0.0
O3 O 0.08441 0.04128 0.05641 0.0
O4 O 0.93846 0.06894 0.07335 0.0
O5 O 0.97841 0.04584 0.09593 0.0
C6 C 0.95605 0.07182 0.09152 0.0
C7 C 0.04202 0.93692 0.09572 0.0
C8 C 0.07473 0.07008 0.04585 0.0
C9 C 0.91568 0.92533 0.049 0.0
O10 O 0.96093 0.92842 0.05172 0.0
O11 O 0.90699 0.95888 0.05588 0.0
O12 O 0.0578 0.9377 0.07742 0.0
O13 O 0.01818 0.96184 0.09969 0.0
O14 O 0.95531 0.03737 0.40896 0.0
Cd15 Cd 0.02137 0.05099 0.39208 0.0
Cd16 Cd 0.97232 0.95079 0.39276 0.0
O17 O 0.91032 0.95547 0.40625 0.0
O18 O 0.05343 0.12184 0.38362 0.0
O19 O 0.01689 0.05891 0.36203 0.0
C20 C 0.03915 0.1062 0.36537 0.0
C21 C 0.95984 0.89923 0.36524 0.0
C22 C 0.91362 0.99568 0.41248 0.0
C23 C 0.07761 0.00639 0.41429 0.0
O24 O 0.03583 0.96457 0.41107 0.0
O25 O 0.08183 0.04601 0.40687 0.0
O26 O 0.94219 0.88111 0.38298 0.0
O27 O 0.98257 0.94689 0.36287 0.0
O28 O 0.91668 0.95698 0.71738 0.0
Cd29 Cd 0.96836 0.94863 0.73626 0.0
Cd30 Cd 0.02145 0.04775 0.73532 0.0
O31 O 0.95369 0.03836 0.72065 0.0
O32 O 0.92754 0.88005 0.74751 0.0
O33 O 0.95574 0.94798 0.76619 0.0
C34 C 0.92977 0.89997 0.76487 0.0
C35 C 0.06159 0.10546 0.76142 0.0
C36 C 0.91686 0.99721 0.71358 0.0
C37 C 0.07401 0.99551 0.71566 0.0
O38 O 0.07415 0.03612 0.71831 0.0
O39 O 0.03645 0.95518 0.72299 0.0
O40 O 0.06423 0.11929 0.74288 0.0
O41 O 0.03371 0.05841 0.76536 0.0
H42 H 0.06508 0.46741 0.18817 0.0
H43 H 0.0566 0.39808 0.16765 0.0
H44 H 0.92313 0.29474 0.20445 0.0
H45 H 0.93016 0.36406 0.22441 0.0
H46 H 0.00496 0.50438 0.19323 0.0
H47 H 0.08438 0.44484 0.23998 0.0
H48 H 0.09377 0.38145 0.25863 0.0
H49 H 0.94102 0.33307 0.28755 0.0
H50 H 0.93201 0.39695 0.26896 0.0
H51 H 0.92466 0.52718 0.26986 0.0
H52 H 0.91621 0.58984 0.28901 0.0
H53 H 0.05515 0.70576 0.25799 0.0
H54 H 0.06626 0.64258 0.24046 0.0
H55 H -0.00227 0.50061 0.2682 0.0
H56 H 0.93036 0.57504 0.21726 0.0
H57 H 0.93963 0.64621 0.19784 0.0
H58 H 0.09574 0.67691 0.17717 0.0
H59 H 0.08548 0.60532 0.19613 0.0
C60 C -0.00125 0.42112 0.20805 0.0
C61 C 0.03392 0.42988 0.19183 0.0
C62 C 0.02911 0.39027 0.18013 0.0
C63 C 0.98938 0.34107 0.18455 0.0
C64 C 0.95463 0.33222 0.20091 0.0
C65 C 0.95884 0.37187 0.21238 0.0
C66 C 0.00221 0.46342 0.21996 0.0
C67 C 0.00399 0.50374 0.20963 0.0
C68 C 0.00159 0.46321 0.24135 0.0
C69 C 0.00742 0.42544 0.25305 0.0
C70 C 0.05296 0.42061 0.25036 0.0
C71 C 0.05835 0.38454 0.26104 0.0
C72 C 0.01802 0.35228 0.27446 0.0
C73 C 0.97244 0.35716 0.27715 0.0
C74 C 0.96744 0.39381 0.26668 0.0
C75 C 0.99543 0.57996 0.25336 0.0
C76 C 0.9537 0.56611 0.26737 0.0
C77 C 0.94844 0.60224 0.27811 0.0
C78 C 0.98438 0.65334 0.27491 0.0
C79 C 0.02679 0.66702 0.26109 0.0
C80 C 0.03274 0.63077 0.25073 0.0
C81 C -0.00093 0.54099 0.24145 0.0
C82 C -0.00138 0.50119 0.2518 0.0
C83 C 0.00304 0.54273 0.22006 0.0
C84 C 0.00725 0.58496 0.20811 0.0
C85 C 0.96645 0.59715 0.20848 0.0
C86 C 0.97202 0.63805 0.19749 0.0
C87 C 0.01844 0.66736 0.18589 0.0
C88 C 0.05906 0.65477 0.18561 0.0
C89 C 0.05335 0.61389 0.19649 0.0
H90 H 0.6233 0.08716 0.53149 0.0
H91 H 0.68725 0.08339 0.50835 0.0
H92 H 0.61953 0.92681 0.52208 0.0
H93 H 0.55807 0.93205 0.54604 0.0
H94 H 0.50843 0.02406 0.52695 0.0
H95 H 0.64773 0.06842 0.5751 0.0
H96 H 0.71465 0.06637 0.59712 0.0
H97 H 0.59236 0.9263 0.62209 0.0
H98 H 0.52619 0.9277 0.59951 0.0
H99 H 0.3914 0.93001 0.60015 0.0
H100 H 0.32516 0.92815 0.6236 0.0
H101 H 0.35506 0.07025 0.60062 0.0
H102 H 0.42329 0.0729 0.5778 0.0
H103 H 0.49383 0.9928 0.60078 0.0
H104 H 0.35405 0.94774 0.55201 0.0
H105 H 0.28764 0.95034 0.52991 0.0
H106 H 0.41039 0.09109 0.50559 0.0
H107 H 0.47596 0.08928 0.52836 0.0
C108 C 0.58633 0.00998 0.54049 0.0
C109 C 0.623 0.0523 0.52969 0.0
C110 C 0.65909 0.04983 0.51629 0.0
C111 C 0.65832 0.00458 0.51305 0.0
C112 C 0.62203 0.96247 0.5243 0.0
C113 C 0.58664 0.96528 0.53798 0.0
C114 C 0.54446 0.0112 0.55298 0.0
C115 C 0.50555 0.01808 0.54318 0.0
C116 C 0.54025 1.00195 0.57397 0.0
C117 C 0.582 0.99802 0.58554 0.0
C118 C 0.63564 0.03664 0.58494 0.0
C119 C 0.6737 0.03576 0.59774 0.0
C120 C 0.65877 0.99636 0.61148 0.0
C121 C 0.60537 0.95695 0.61156 0.0
C122 C 0.56739 0.95784 0.59875 0.0
C123 C 0.41227 1.00152 0.58718 0.0
C124 C 0.38346 0.96065 0.60007 0.0
C125 C 0.34522 0.95945 0.61337 0.0
C126 C 0.3348 0.99912 0.61405 0.0
C127 C 0.36261 0.0394 0.60069 0.0
C128 C 0.40115 0.04068 0.58743 0.0
C129 C 0.45675 0.00463 0.57475 0.0
C130 C 0.49643 0.99876 0.58456 0.0
C131 C 0.46151 0.01467 0.55374 0.0
C132 C 0.41993 0.0185 0.54196 0.0
C133 C 0.36636 0.97976 0.54229 0.0
C134 C 0.32858 0.98098 0.52943 0.0
C135 C 0.34376 0.02073 0.51584 0.0
C136 C 0.39713 0.06018 0.51599 0.0
C137 C 0.43479 0.05903 0.52891 0.0
H138 H 0.46238 0.4116 0.86469 0.0
H139 H 0.39131 0.35054 0.84293 0.0
H140 H 0.27253 0.35895 0.8799 0.0
H141 H 0.34388 0.42141 0.90135 0.0
H142 H 0.49465 0.50272 0.87065 0.0
H143 H 0.42088 0.3606 0.91306 0.0
H144 H 0.35823 0.28987 0.93394 0.0
H145 H 0.33571 0.38963 0.97281 0.0
H146 H 0.39567 0.45995 0.95136 0.0
H147 H 0.51569 0.59487 0.9468 0.0
H148 H 0.58024 0.66072 0.96878 0.0
H149 H 0.70852 0.64694 0.94135 0.0
H150 H 0.64309 0.57945 0.91989 0.0
H151 H 0.49346 0.49906 0.94553 0.0
H152 H 0.57431 0.64255 0.90042 0.0
H153 H 0.6496 0.70896 0.88205 0.0
H154 H 0.66808 0.59858 0.84857 0.0
H155 H 0.59603 0.53298 0.86817 0.0
C156 C 0.40867 0.42111 0.88476 0.0
C157 C 0.42109 0.40045 0.86815 0.0
C158 C 0.38048 0.36551 0.85573 0.0
C159 C 0.32649 0.35014 0.85974 0.0
C160 C 0.31381 0.36984 0.87661 0.0
C161 C 0.35458 0.40542 0.88888 0.0
C162 C 0.4525 0.46064 0.89711 0.0
C163 C 0.49458 0.50152 0.88704 0.0
C164 C 0.45252 0.45933 0.91853 0.0
C165 C 0.41263 0.41574 0.93043 0.0
C166 C 0.40152 0.36724 0.92576 0.0
C167 C 0.36619 0.32692 0.93777 0.0
C168 C 0.34276 0.3347 0.95497 0.0
C169 C 0.35384 0.38299 0.95969 0.0
C170 C 0.38804 0.42306 0.94744 0.0
C171 C 0.57464 0.58254 0.93162 0.0
C172 C 0.55775 0.60607 0.94552 0.0
C173 C 0.59479 0.64403 0.95796 0.0
C174 C 0.64962 0.6593 0.95677 0.0
C175 C 0.66652 0.63574 0.94277 0.0
C176 C 0.62929 0.59752 0.93036 0.0
C177 C 0.53422 0.54116 0.91909 0.0
C178 C 0.49302 0.49998 0.92913 0.0
C179 C 0.53583 0.54162 0.8977 0.0
C180 C 0.58002 0.58264 0.88601 0.0
C181 C 0.59529 0.63274 0.8894 0.0
C182 C 0.63802 0.67076 0.87862 0.0
C183 C 0.66561 0.65949 0.86384 0.0
C184 C 0.6491 0.60912 0.86016 0.0
C185 C 0.60716 0.5713 0.87119 0.0
H186 H 0.9269 0.1415 0.08429 0.0
H187 H 0.97836 0.25168 0.19637 0.0
H188 H 0.98222 0.08335 0.13197 0.0
H189 H 0.98469 0.33537 0.14338 0.0
H190 H 0.9662 0.18277 0.17443 0.0
H191 H 0.93272 0.20525 0.10742 0.0
C192 C 0.93974 0.14175 0.09971 0.0
C193 C 0.95433 0.1071 0.10618 0.0
C194 C 0.97034 0.21629 0.16765 0.0
C195 C 0.96119 0.18031 0.13275 0.0
C196 C 0.97708 0.25544 0.18013 0.0
C197 C 0.98279 0.29929 0.17163 0.0
C198 C 0.96829 0.22077 0.14659 0.0
C199 C 0.98105 0.30243 0.15052 0.0
C200 C 0.94337 0.17841 0.11286 0.0
C201 C 0.97076 0.10944 0.12634 0.0
N202 N 0.97368 0.26362 0.13873 0.0
N203 N 0.97379 0.14551 0.13894 0.0
H204 H 0.88908 0.06921 0.41778 0.0
H205 H 0.70646 0.94689 0.5138 0.0
H206 H 0.84159 0.91945 0.43642 0.0
H207 H 0.69126 0.05371 0.47663 0.0
H208 H 0.76344 0.9411 0.48781 0.0
H209 H 0.82384 0.06939 0.44147 0.0
C210 C 0.86459 0.03623 0.42675 0.0
C211 C 0.87067 0.99424 0.42516 0.0
C212 C 0.74735 0.96563 0.4854 0.0
C213 C 0.79697 0.99463 0.45251 0.0
C214 C 0.71465 0.96891 0.50019 0.0
C215 C 0.69388 1.00101 0.49756 0.0
C216 C 0.76024 0.99525 0.46799 0.0
C217 C 0.70713 0.02931 0.47968 0.0
C218 C 0.82739 0.03634 0.44022 0.0
C219 C 0.83791 0.95247 0.43711 0.0
N220 N 0.73976 0.02605 0.46568 0.0
N221 N 0.80289 0.95394 0.45051 0.0
H222 H 0.90352 0.80383 0.77174 0.0
H223 H 0.67816 0.74954 0.85115 0.0
H224 H 0.887 0.92358 0.79709 0.0
H225 H 0.75643 0.66169 0.84927 0.0
H226 H 0.74957 0.812 0.8299 0.0
H227 H 0.84478 0.74845 0.79832 0.0
C228 C 0.88796 0.81856 0.78305 0.0
C229 C 0.90003 0.86827 0.78225 0.0
C230 C 0.75117 0.77917 0.83434 0.0
C231 C 0.83196 0.80496 0.81235 0.0
C232 C 0.7105 0.74346 0.84656 0.0
C233 C 0.71057 0.69964 0.85195 0.0
C234 C 0.79172 0.77071 0.82712 0.0
C235 C 0.75347 0.69393 0.84511 0.0
C236 C 0.85458 0.78702 0.79822 0.0
C237 C 0.87884 0.88552 0.79727 0.0
N238 N 0.79182 0.72865 0.83285 0.0
N239 N 0.84502 0.85365 0.81154 0.0
H240 H 0.09543 0.8856 0.09187 0.0
H241 H 0.98807 0.73604 0.19598 0.0
H242 H -0.00122 0.91326 0.13403 0.0
H243 H 0.06242 0.69693 0.14815 0.0
H244 H -0.00138 0.80624 0.17551 0.0
H245 H 0.09315 0.82331 0.11481 0.0
C246 C 0.07416 0.87898 0.10608 0.0
C247 C 0.04691 0.90449 0.11095 0.0
C248 C 0.01277 0.78233 0.16958 0.0
C249 C 0.04358 0.83243 0.1373 0.0
C250 C 0.00643 0.74202 0.18118 0.0
C251 C 0.02444 0.71039 0.17383 0.0
C252 C 0.03742 0.79117 0.15051 0.0
C253 C 0.04871 0.7206 0.15466 0.0
C254 C 0.07267 0.84315 0.11916 0.0
C255 C 0.02027 0.8944 0.12965 0.0
N256 N 0.05442 0.75996 0.14372 0.0
N257 N 0.0189 0.85882 0.1421 0.0
H258 H 0.08698 0.9289 0.4291 0.0
H259 H 0.33166 0.09864 0.50265 0.0
H260 H 0.16399 0.08933 0.4305 0.0
H261 H 0.26787 0.94079 0.49443 0.0
H262 H 0.26968 0.09624 0.47684 0.0
H263 H 0.15244 0.93281 0.45342 0.0
C264 C 0.11786 0.96503 0.43443 0.0
C265 C 0.11985 0.00886 0.42777 0.0
C266 C 0.26929 0.06215 0.4807 0.0
C267 C 0.19485 0.01356 0.45584 0.0
C268 C 0.30474 0.0635 0.49541 0.0
C269 C 0.30495 0.01981 0.5008 0.0
C270 C 0.23363 0.01678 0.47134 0.0
C271 C 0.2686 0.97524 0.49107 0.0
C272 C 0.15526 0.96722 0.44835 0.0
C273 C 0.16095 0.05459 0.43519 0.0
N274 N 0.23447 0.9749 0.47685 0.0
N275 N 0.19664 0.05573 0.44893 0.0
H276 H 0.06503 0.09046 0.80232 0.0
H277 H 0.32508 0.35576 0.81871 0.0
H278 H 0.13162 0.20459 0.75641 0.0
H279 H 0.2314 0.26569 0.869 0.0
H280 H 0.25624 0.29756 0.79553 0.0
H281 H 0.12621 0.15132 0.82714 0.0
C282 C 0.09202 0.12836 0.79751 0.0
C283 C 0.09338 0.14237 0.77723 0.0
C284 C 0.25048 0.29054 0.81164 0.0
C285 C 0.16374 0.21169 0.80539 0.0
C286 C 0.28996 0.32357 0.82485 0.0
C287 C 0.28399 0.31531 0.84576 0.0
C288 C 0.20487 0.24843 0.81933 0.0
C289 C 0.23735 0.27338 0.85295 0.0
C290 C 0.12689 0.16301 0.81167 0.0
C291 C 0.12919 0.19198 0.77184 0.0
N292 N 0.19969 0.24115 0.83973 0.0
N293 N 0.16324 0.22461 0.78576 0.0
H294 H 0.83457 0.91641 0.69483 0.0
H295 H 0.7346 0.07633 0.63295 0.0
H296 H 0.90628 0.07588 0.70057 0.0
H297 H 0.67162 0.91876 0.62422 0.0
H298 H 0.79621 0.07675 0.65837 0.0
H299 H 0.77171 0.91618 0.67013 0.0
C300 C 0.83693 0.95139 0.69101 0.0
C301 C 0.87596 0.99628 0.69978 0.0
C302 C 0.76899 0.0421 0.65087 0.0
C303 C 0.80411 0.99625 0.67133 0.0
C304 C 0.73407 0.04189 0.63622 0.0
C305 C 0.69791 0.99744 0.62637 0.0
C306 C 0.76775 0.99753 0.65578 0.0
C307 C 0.69834 0.95378 0.63157 0.0
C308 C 0.80107 0.95122 0.67683 0.0
C309 C 0.87695 0.04039 0.6942 0.0
N310 N 0.73267 0.95493 0.64591 0.0
N311 N 0.84167 0.03928 0.68028 0.0
H312 H 0.91711 0.84284 0.03531 0.0
H313 H 0.65221 0.74537 0.96848 0.0
H314 H 0.82064 0.91354 0.03462 0.0
H315 H 0.73577 0.66354 0.97634 0.0
H316 H 0.71475 0.80851 0.99195 0.0
H317 H 0.85203 0.7777 0.01319 0.0
C318 C 0.88209 0.84456 0.0306 0.0
C319 C 0.87443 0.88385 0.0368 0.0
C320 C 0.71936 0.77671 0.98856 0.0
C321 C 0.79986 0.80943 0.0113 0.0
C322 C 0.68356 0.74053 0.9752 0.0
C323 C 0.68861 0.69894 0.97043 0.0
C324 C 0.76076 0.77149 0.99719 0.0
C325 C 0.7307 0.69523 0.97933 0.0
C326 C 0.84492 0.80731 0.01795 0.0
C327 C 0.82817 0.88397 0.03024 0.0
N328 N 0.76511 0.73101 0.99227 0.0
N329 N 0.79278 0.84747 0.01775 0.0
H330 H 0.02825 0.92318 0.33312 0.0
H331 H 0.8907 0.64886 0.28762 0.0
H332 H 0.88849 0.8002 0.3603 0.0
H333 H 0.0627 0.74674 0.28767 0.0
H334 H 0.88138 0.71035 0.30755 0.0
H335 H 0.0324 0.86499 0.30894 0.0
C336 C -0.00217 0.88414 0.33372 0.0
C337 C 0.95808 0.86633 0.34875 0.0
C338 C 0.92103 0.71825 0.30303 0.0
C339 C 0.96246 0.80008 0.32121 0.0
C340 C 0.92662 0.68299 0.2918 0.0
C341 C 0.97775 0.6919 0.28606 0.0
C342 C 0.96668 0.76336 0.30822 0.0
C343 C 0.02238 0.73801 0.29144 0.0
C344 C 0.0005 0.85103 0.32007 0.0
C345 C 0.91994 0.81534 0.34901 0.0
N346 N 0.01578 0.77196 0.30219 0.0
N347 N 0.92302 0.78395 0.33543 0.0
H348 H 0.07699 0.91452 0.70056 0.0
H349 H 0.34438 0.07811 0.63613 0.0
H350 H 0.1651 0.07531 0.70072 0.0
H351 H 0.23902 0.92036 0.627 0.0
H352 H 0.28313 0.07707 0.66189 0.0
H353 H 0.14137 0.91509 0.67626 0.0
C354 C 0.11015 0.94993 0.69566 0.0
C355 C 0.11548 0.99494 0.70262 0.0
C356 C 0.27339 0.04269 0.65423 0.0
C357 C 0.18904 0.99582 0.67473 0.0
C358 C 0.30814 0.04331 0.63937 0.0
C359 C 0.29685 0.99928 0.62928 0.0
C360 C 0.22705 0.99768 0.65915 0.0
C361 C 0.24978 0.95512 0.63453 0.0
C362 C 0.1467 0.95022 0.6817 0.0
C363 C 0.1592 0.03969 0.69569 0.0
N364 N 0.21668 0.95544 0.64911 0.0
N365 N 0.19418 0.03898 0.6821 0.0
H366 H 0.05798 0.10582 0.01081 0.0
H367 H 0.35429 0.32325 0.99515 0.0
H368 H 0.18439 0.11744 0.04944 0.0
H369 H 0.24939 0.25163 0.94449 0.0
H370 H 0.29075 0.25542 0.0172 0.0
H371 H 0.12552 0.16725 0.98802 0.0
C372 C 0.10001 0.12143 0.01451 0.0
C373 C 0.11574 0.10673 0.03205 0.0
C374 C 0.28201 0.25441 1.00123 0.0
C375 C 0.19293 0.17724 0.00617 0.0
C376 C 0.31795 0.29301 0.98872 0.0
C377 C 0.3067 0.29269 0.96808 0.0
C378 C 0.23405 0.21616 0.99306 0.0
C379 C 0.25934 0.25288 0.96035 0.0
C380 C 0.13842 0.15615 1.00143 0.0
C381 C 0.17072 0.12778 0.03603 0.0
N382 N 0.22425 0.21644 0.97292 0.0
N383 N 0.20751 0.16259 0.02329 0.0
H384 H 0.10652 0.20673 0.3644 0.0
H385 H 0.94446 0.25326 0.27893 0.0
H386 H 0.98132 0.08587 0.33031 0.0
H387 H 0.10498 0.36482 0.2959 0.0
H388 H 0.95429 0.19163 0.29885 0.0
H389 H 0.105 0.26586 0.34037 0.0
C390 C 0.07919 0.19262 0.35169 0.0
C391 C 0.04393 0.14135 0.34934 0.0
C392 C 0.98749 0.2295 0.29806 0.0
C393 C 0.04115 0.20884 0.32206 0.0
C394 C 0.98176 0.26469 0.28685 0.0
C395 C 0.02391 0.31417 0.28586 0.0
C396 C 0.03535 0.24415 0.30866 0.0
C397 C 0.07161 0.32699 0.29621 0.0
C398 C 0.07835 0.22638 0.33798 0.0
C399 C 0.00933 0.12509 0.33261 0.0
N400 N 0.07584 0.29234 0.30736 0.0
N401 N 0.00822 0.1588 0.31976 0.0
loop_
_geom_bond_atom_site_label_1
_geom_bond_atom_site_label_2
_geom_bond_distance
_geom_bond_site_symmetry_2
_ccdc_geom_bond_type
O0 Cd1 2.223 1_455 S
O0 C8 1.315 . S
Cd1 O0 2.223 1_655 S
Cd1 O4 2.297 . S
Cd1 O5 2.439 . S
Cd1 O11 2.240 1_545 S
Cd2 O3 2.240 1_565 S
Cd2 O10 2.223 1_455 S
Cd2 O12 2.297 . S
Cd2 O13 2.439 . S
O3 Cd2 2.240 1_545 S
O3 C8 1.279 . S
O4 Cd1 2.297 . S
O4 C6 1.247 . S
O5 Cd1 2.439 . S
O5 C6 1.208 . S
C6 O4 1.247 . S
C6 O5 1.208 . S
C7 O12 1.247 . S
C7 O13 1.208 . S
C8 O0 1.315 . S
C8 O3 1.279 . S
C9 O10 1.315 . S
C9 O11 1.279 . S
O10 Cd2 2.223 1_655 S
O10 C9 1.315 . S
O11 Cd1 2.240 1_565 S
O11 C9 1.279 . S
O12 Cd2 2.297 . S
O12 C7 1.247 . S
O13 Cd2 2.439 . S
O13 C7 1.208 . S
O14 Cd15 2.223 1_655 S
O14 C22 1.315 . S
Cd15 O14 2.223 1_455 S
Cd15 O18 2.297 . S
Cd15 O19 2.439 . S
Cd15 O25 2.240 . S
Cd16 O17 2.240 . S
Cd16 O24 2.223 1_655 S
Cd16 O26 2.297 . S
Cd16 O27 2.442 . S
O17 Cd16 2.240 . S
O17 C22 1.279 1_565 S
O18 Cd15 2.297 . S
O18 C20 1.247 . S
O19 Cd15 2.439 . S
O19 C20 1.208 . S
C20 O18 1.247 . S
C20 O19 1.208 . S
C21 O26 1.247 . S
C21 O27 1.204 . S
C22 O14 1.315 . S
C22 O17 1.279 1_545 S
C23 O24 1.315 . S
C23 O25 1.279 1_565 S
O24 Cd16 2.223 1_455 S
O24 C23 1.315 . S
O25 Cd15 2.240 . S
O25 C23 1.279 1_545 S
O26 Cd16 2.297 . S
O26 C21 1.247 . S
O27 Cd16 2.442 . S
O27 C21 1.204 . S
O28 Cd29 2.223 . S
O28 C36 1.315 . S
Cd29 O28 2.223 . S
Cd29 O32 2.297 . S
Cd29 O33 2.439 . S
Cd29 O39 2.240 1_655 S
Cd30 O31 2.240 1_455 S
Cd30 O38 2.223 . S
Cd30 O40 2.297 . S
Cd30 O41 2.439 . S
O31 Cd30 2.240 1_655 S
O31 C36 1.279 1_545 S
O32 Cd29 2.297 . S
O32 C34 1.247 . S
O33 Cd29 2.439 . S
O33 C34 1.208 . S
C34 O32 1.247 . S
C34 O33 1.208 . S
C35 O40 1.247 . S
C35 O41 1.208 . S
C36 O28 1.315 . S
C36 O31 1.279 1_565 S
C37 O38 1.315 . S
C37 O39 1.279 1_545 S
O38 Cd30 2.223 . S
O38 C37 1.315 . S
O39 Cd29 2.240 1_455 S
O39 C37 1.279 1_565 S
O40 Cd30 2.297 . S
O40 C35 1.247 . S
O41 Cd30 2.439 . S
O41 C35 1.208 . S
H42 C61 0.949 . S
H43 C62 0.950 . S
H44 C64 0.950 . S
H45 C65 0.950 . S
H46 C67 0.950 . S
H47 C70 0.950 . S
H48 C71 0.950 . S
H49 C73 0.951 . S
H50 C74 0.949 . S
H51 C76 0.949 . S
H52 C77 0.950 . S
H53 C79 0.950 . S
H54 C80 0.950 . S
H55 C82 0.950 . S
H56 C85 0.950 . S
H57 C86 0.950 . S
H58 C88 0.951 . S
H59 C89 0.949 . S
C60 C61 1.376 . S
C60 C65 1.386 1_455 S
C60 C66 1.483 . S
C61 H42 0.949 . S
C61 C60 1.376 . S
C61 C62 1.397 . S
C62 H43 0.950 . S
C62 C61 1.397 . S
C62 C63 1.391 . S
C63 C62 1.391 . S
C63 C64 1.405 1_455 S
C64 H44 0.950 . S
C64 C63 1.405 1_655 S
C64 C65 1.367 . S
C65 H45 0.950 . S
C65 C60 1.386 1_655 S
C65 C64 1.367 . S
C66 C60 1.483 . S
C66 C67 1.382 . S
C66 C68 1.403 1_455 S
C67 H46 0.950 . S
C67 C66 1.382 . S
C67 C83 1.411 . S
C68 C66 1.403 1_655 S
C68 C69 1.489 . S
C68 C82 1.411 . S
C69 C68 1.489 . S
C69 C70 1.383 1_655 S
C69 C74 1.382 . S
C70 H47 0.950 . S
C70 C69 1.383 1_455 S
C70 C71 1.395 . S
C71 H48 0.950 . S
C71 C70 1.395 . S
C71 C72 1.288 1_455 S
C72 C71 1.288 1_655 S
C72 C73 1.392 . S
C73 H49 0.951 . S
C73 C72 1.392 . S
C73 C74 1.392 . S
C74 H50 0.949 . S
C74 C69 1.382 . S
C74 C73 1.392 . S
C75 C76 1.376 . S
C75 C80 1.386 1_655 S
C75 C81 1.483 . S
C76 H51 0.949 . S
C76 C75 1.376 . S
C76 C77 1.397 . S
C77 H52 0.950 . S
C77 C76 1.397 . S
C77 C78 1.399 . S
C78 C77 1.399 . S
C78 C79 1.391 1_655 S
C79 H53 0.950 . S
C79 C78 1.391 1_455 S
C79 C80 1.367 . S
C80 H54 0.950 . S
C80 C75 1.386 1_455 S
C80 C79 1.367 . S
C81 C75 1.483 . S
C81 C82 1.382 . S
C81 C83 1.403 1_655 S
C82 H55 0.950 . S
C82 C68 1.411 . S
C82 C81 1.382 . S
C83 C67 1.411 . S
C83 C81 1.403 1_455 S
C83 C84 1.489 . S
C84 C83 1.489 . S
C84 C85 1.383 1_455 S
C84 C89 1.382 . S
C85 H56 0.950 . S
C85 C84 1.383 1_655 S
C85 C86 1.395 . S
C86 H57 0.950 . S
C86 C85 1.395 . S
C86 C87 1.288 1_655 S
C87 C86 1.288 1_455 S
C87 C88 1.392 . S
C88 H58 0.951 . S
C88 C87 1.392 . S
C88 C89 1.392 . S
C89 H59 0.949 . S
C89 C84 1.382 . S
C89 C88 1.392 . S
H90 C109 0.949 . S
H91 C110 0.950 . S
H92 C112 0.950 . S
H93 C113 0.950 . S
H94 C115 0.950 . S
H95 C118 0.950 . S
H96 C119 0.950 . S
H97 C121 0.951 . S
H98 C122 0.949 . S
H99 C124 0.949 . S
H100 C125 0.950 . S
H101 C127 0.950 . S
H102 C128 0.950 . S
H103 C130 0.950 . S
H104 C133 0.950 . S
H105 C134 0.950 . S
H106 C136 0.951 . S
H107 C137 0.949 . S
C108 C109 1.376 . S
C108 C113 1.386 1_545 S
C108 C114 1.483 . S
C109 H90 0.949 . S
C109 C108 1.376 . S
C109 C110 1.397 . S
C110 H91 0.950 . S
C110 C109 1.397 . S
C110 C111 1.391 . S
C111 C110 1.391 . S
C111 C112 1.405 1_545 S
C112 H92 0.950 . S
C112 C111 1.405 1_565 S
C112 C113 1.367 . S
C113 H93 0.950 . S
C113 C108 1.386 1_565 S
C113 C112 1.367 . S
C114 C108 1.483 . S
C114 C115 1.382 . S
C114 C116 1.403 1_545 S
C115 H94 0.950 . S
C115 C114 1.382 . S
C115 C131 1.411 . S
C116 C114 1.403 1_565 S
C116 C117 1.489 . S
C116 C130 1.411 . S
C117 C116 1.489 . S
C117 C118 1.383 1_565 S
C117 C122 1.382 . S
C118 H95 0.950 . S
C118 C117 1.383 1_545 S
C118 C119 1.395 . S
C119 H96 0.950 . S
C119 C118 1.395 . S
C119 C120 1.288 1_545 S
C120 C119 1.288 1_565 S
C120 C121 1.392 . S
C121 H97 0.951 . S
C121 C120 1.392 . S
C121 C122 1.392 . S
C122 H98 0.949 . S
C122 C117 1.382 . S
C122 C121 1.392 . S
C123 C124 1.376 . S
C123 C128 1.386 1_565 S
C123 C129 1.483 . S
C124 H99 0.949 . S
C124 C123 1.376 . S
C124 C125 1.397 . S
C125 H100 0.950 . S
C125 C124 1.397 . S
C125 C126 1.415 . S
C126 C125 1.415 . S
C126 C127 1.392 1_565 S
C127 H101 0.950 . S
C127 C126 1.392 1_545 S
C127 C128 1.367 . S
C128 H102 0.950 . S
C128 C123 1.386 1_545 S
C128 C127 1.367 . S
C129 C123 1.483 . S
C129 C130 1.382 . S
C129 C131 1.403 1_565 S
C130 H103 0.950 . S
C130 C116 1.411 . S
C130 C129 1.382 . S
C131 C115 1.411 . S
C131 C129 1.403 1_545 S
C131 C132 1.489 . S
C132 C131 1.489 . S
C132 C133 1.383 1_545 S
C132 C137 1.382 . S
C133 H104 0.950 . S
C133 C132 1.383 1_565 S
C133 C134 1.395 . S
C134 H105 0.950 . S
C134 C133 1.395 . S
C134 C135 1.288 1_565 S
C135 C134 1.288 1_545 S
C135 C136 1.392 . S
C136 H106 0.951 . S
C136 C135 1.392 . S
C136 C137 1.392 . S
C137 H107 0.949 . S
C137 C132 1.382 . S
C137 C136 1.392 . S
H138 C157 0.949 . S
H139 C158 0.950 . S
H140 C160 0.950 . S
H141 C161 0.950 . S
H142 C163 0.950 . S
H143 C166 0.950 . S
H144 C167 0.950 . S
H145 C169 0.951 . S
H146 C170 0.949 . S
H147 C172 0.949 . S
H148 C173 0.950 . S
H149 C175 0.950 . S
H150 C176 0.950 . S
H151 C178 0.950 . S
H152 C181 0.950 . S
H153 C182 0.950 . S
H154 C184 0.951 . S
H155 C185 0.949 . S
C156 C157 1.376 . S
C156 C161 1.386 . S
C156 C162 1.483 . S
C157 H138 0.949 . S
C157 C156 1.376 . S
C157 C158 1.397 . S
C158 H139 0.950 . S
C158 C157 1.397 . S
C158 C159 1.391 . S
C159 C158 1.391 . S
C159 C160 1.405 . S
C160 H140 0.950 . S
C160 C159 1.405 . S
C160 C161 1.367 . S
C161 H141 0.950 . S
C161 C156 1.386 . S
C161 C160 1.367 . S
C162 C156 1.483 . S
C162 C163 1.382 . S
C162 C164 1.403 . S
C163 H142 0.950 . S
C163 C162 1.382 . S
C163 C179 1.411 . S
C164 C162 1.403 . S
C164 C165 1.489 . S
C164 C178 1.411 . S
C165 C164 1.489 . S
C165 C166 1.383 . S
C165 C170 1.382 . S
C166 H143 0.950 . S
C166 C165 1.383 . S
C166 C167 1.395 . S
C167 H144 0.950 . S
C167 C166 1.395 . S
C167 C168 1.288 . S
C168 C167 1.288 . S
C168 C169 1.392 . S
C169 H145 0.951 . S
C169 C168 1.392 . S
C169 C170 1.392 . S
C170 H146 0.949 . S
C170 C165 1.382 . S
C170 C169 1.392 . S
C171 C172 1.376 . S
C171 C176 1.386 . S
C171 C177 1.483 . S
C172 H147 0.949 . S
C172 C171 1.376 . S
C172 C173 1.397 . S
C173 H148 0.950 . S
C173 C172 1.397 . S
C173 C174 1.391 . S
C174 C173 1.391 . S
C174 C175 1.405 . S
C175 H149 0.950 . S
C175 C174 1.405 . S
C175 C176 1.367 . S
C176 H150 0.950 . S
C176 C171 1.386 . S
C176 C175 1.367 . S
C177 C171 1.483 . S
C177 C178 1.382 . S
C177 C179 1.403 . S
C178 H151 0.950 . S
C178 C164 1.411 . S
C178 C177 1.382 . S
C179 C163 1.411 . S
C179 C177 1.403 . S
C179 C180 1.489 . S
C180 C179 1.489 . S
C180 C181 1.383 . S
C180 C185 1.382 . S
C181 H152 0.950 . S
C181 C180 1.383 . S
C181 C182 1.395 . S
C182 H153 0.950 . S
C182 C181 1.395 . S
C182 C183 1.288 . S
C183 C182 1.288 . S
C183 C184 1.392 . S
C184 H154 0.951 . S
C184 C183 1.392 . S
C184 C185 1.392 . S
C185 H155 0.949 . S
C185 C180 1.382 . S
C185 C184 1.392 . S
H186 C192 0.930 . S
H187 C196 0.930 . S
H188 C201 0.929 . S
H189 C199 0.929 . S
H190 C194 0.929 . S
H191 C200 0.929 . S
C192 H186 0.930 . S
C192 C193 1.367 1_655 S
C192 C200 1.378 . S
C193 C192 1.367 1_455 S
C193 C201 1.433 . S
C194 H190 0.929 . S
C194 C196 1.378 . S
C194 C198 1.350 . S
C195 C198 1.463 . S
C195 C200 1.350 1_455 S
C195 N203 1.427 . S
C196 H187 0.930 . S
C196 C194 1.378 . S
C196 C197 1.367 . S
C197 C196 1.367 . S
C197 C199 1.433 1_455 S
C198 C194 1.350 . S
C198 C195 1.463 . S
C198 N202 1.427 1_455 S
C199 H189 0.929 . S
C199 C197 1.433 1_655 S
C199 N202 1.384 . S
C200 H191 0.929 . S
C200 C192 1.378 . S
C200 C195 1.350 1_655 S
C201 H188 0.929 . S
C201 C193 1.433 . S
C201 N203 1.384 . S
N202 C198 1.427 1_655 S
N202 C199 1.384 . S
N203 C195 1.427 . S
N203 C201 1.384 . S
H204 C210 0.930 . S
H205 C214 0.930 . S
H206 C219 0.929 . S
H207 C217 0.929 . S
H208 C212 0.929 . S
H209 C218 0.929 . S
C210 H204 0.930 . S
C210 C211 1.367 . S
C210 C218 1.378 . S
C211 C210 1.367 . S
C211 C219 1.433 1_545 S
C212 H208 0.929 . S
C212 C214 1.378 . S
C212 C216 1.336 1_565 S
C213 C216 1.455 . S
C213 C218 1.350 . S
C213 N221 1.427 1_545 S
C214 H205 0.930 . S
C214 C212 1.378 . S
C214 C215 1.365 1_565 S
C215 C214 1.365 1_545 S
C215 C217 1.434 . S
C216 C212 1.336 1_545 S
C216 C213 1.455 . S
C216 N220 1.451 . S
C217 H207 0.929 . S
C217 C215 1.434 . S
C217 N220 1.384 . S
C218 H209 0.929 . S
C218 C210 1.378 . S
C218 C213 1.350 . S
C219 H206 0.929 . S
C219 C211 1.433 1_565 S
C219 N221 1.384 . S
N220 C216 1.451 . S
N220 C217 1.384 . S
N221 C213 1.427 1_565 S
N221 C219 1.384 . S
H222 C228 0.930 . S
H223 C232 0.930 . S
H224 C237 0.929 . S
H225 C235 0.929 . S
H226 C230 0.929 . S
H227 C236 0.929 . S
C228 H222 0.930 . S
C228 C229 1.367 . S
C228 C236 1.378 . S
C229 C228 1.367 . S
C229 C237 1.433 . S
C230 H226 0.929 . S
C230 C232 1.378 . S
C230 C234 1.350 . S
C231 C234 1.463 . S
C231 C236 1.350 . S
C231 N239 1.427 . S
C232 H223 0.930 . S
C232 C230 1.378 . S
C232 C233 1.367 . S
C233 C232 1.367 . S
C233 C235 1.433 . S
C234 C230 1.350 . S
C234 C231 1.463 . S
C234 N238 1.427 . S
C235 H225 0.929 . S
C235 C233 1.433 . S
C235 N238 1.384 . S
C236 H227 0.929 . S
C236 C228 1.378 . S
C236 C231 1.350 . S
C237 H224 0.929 . S
C237 C229 1.433 . S
C237 N239 1.384 . S
N238 C234 1.427 . S
N238 C235 1.384 . S
N239 C231 1.427 . S
N239 C237 1.384 . S
H240 C246 0.930 . S
H241 C250 0.930 . S
H242 C255 0.929 . S
H243 C253 0.929 . S
H244 C248 0.929 . S
H245 C254 0.929 . S
C246 H240 0.930 . S
C246 C247 1.373 . S
C246 C254 1.378 . S
C247 C246 1.373 . S
C247 C255 1.431 1_455 S
C248 H244 0.929 . S
C248 C250 1.378 . S
C248 C252 1.348 1_655 S
C249 C252 1.466 . S
C249 C254 1.353 . S
C249 N257 1.416 1_455 S
C250 H241 0.930 . S
C250 C248 1.378 . S
C250 C251 1.356 1_655 S
C251 C250 1.356 1_455 S
C251 C253 1.437 . S
C252 C248 1.348 1_455 S
C252 C249 1.466 . S
C252 N256 1.433 . S
C253 H243 0.929 . S
C253 C251 1.437 . S
C253 N256 1.384 . S
C254 H245 0.929 . S
C254 C246 1.378 . S
C254 C249 1.353 . S
C255 H242 0.929 . S
C255 C247 1.431 1_655 S
C255 N257 1.384 . S
N256 C252 1.433 . S
N256 C253 1.384 . S
N257 C249 1.416 1_655 S
N257 C255 1.384 . S
H258 C264 0.930 . S
H259 C268 0.930 . S
H260 C273 0.929 . S
H261 C271 0.929 . S
H262 C266 0.929 . S
H263 C272 0.929 . S
C264 H258 0.930 . S
C264 C265 1.367 . S
C264 C272 1.378 . S
C265 C264 1.367 . S
C265 C273 1.433 1_565 S
C266 H262 0.929 . S
C266 C268 1.378 . S
C266 C270 1.358 . S
C267 C270 1.467 1_565 S
C267 C272 1.350 . S
C267 N275 1.427 1_565 S
C268 H259 0.930 . S
C268 C266 1.378 . S
C268 C269 1.367 . S
C269 C268 1.367 . S
C269 C271 1.433 1_545 S
C270 C266 1.358 . S
C270 C267 1.467 1_545 S
C270 N274 1.414 1_545 S
C271 H261 0.929 . S
C271 C269 1.433 1_565 S
C271 N274 1.384 . S
C272 H263 0.929 . S
C272 C264 1.378 . S
C272 C267 1.350 . S
C273 H260 0.929 . S
C273 C265 1.433 1_545 S
C273 N275 1.384 . S
N274 C270 1.414 1_565 S
N274 C271 1.384 . S
N275 C267 1.427 1_545 S
N275 C273 1.384 . S
H276 C282 0.930 . S
H277 C286 0.930 . S
H278 C291 0.929 . S
H279 C289 0.929 . S
H280 C284 0.929 . S
H281 C290 0.929 . S
C282 H276 0.930 . S
C282 C283 1.367 . S
C282 C290 1.378 . S
C283 C282 1.367 . S
C283 C291 1.433 . S
C284 H280 0.929 . S
C284 C286 1.378 . S
C284 C288 1.350 . S
C285 C288 1.463 . S
C285 C290 1.350 . S
C285 N293 1.427 . S
C286 H277 0.930 . S
C286 C284 1.378 . S
C286 C287 1.367 . S
C287 C286 1.367 . S
C287 C289 1.433 . S
C288 C284 1.350 . S
C288 C285 1.463 . S
C288 N292 1.427 . S
C289 H279 0.929 . S
C289 C287 1.433 . S
C289 N292 1.384 . S
C290 H281 0.929 . S
C290 C282 1.378 . S
C290 C285 1.350 . S
C291 H278 0.929 . S
C291 C283 1.433 . S
C291 N293 1.384 . S
N292 C288 1.427 . S
N292 C289 1.384 . S
N293 C285 1.427 . S
N293 C291 1.384 . S
H294 C300 0.931 . S
H295 C304 0.930 . S
H296 C309 0.929 . S
H297 C307 0.929 . S
H298 C302 0.929 . S
H299 C308 0.929 . S
C300 H294 0.931 . S
C300 C301 1.367 1_545 S
C300 C308 1.377 . S
C301 C300 1.367 1_565 S
C301 C309 1.433 . S
C302 H298 0.929 . S
C302 C304 1.378 . S
C302 C306 1.350 . S
C303 C306 1.463 . S
C303 C308 1.350 1_565 S
C303 N311 1.427 . S
C304 H295 0.930 . S
C304 C302 1.378 . S
C304 C305 1.367 . S
C305 C304 1.367 . S
C305 C307 1.434 1_565 S
C306 C302 1.350 . S
C306 C303 1.463 . S
C306 N310 1.427 1_565 S
C307 H297 0.929 . S
C307 C305 1.434 1_545 S
C307 N310 1.384 . S
C308 H299 0.929 . S
C308 C300 1.377 . S
C308 C303 1.350 1_545 S
C309 H296 0.929 . S
C309 C301 1.433 . S
C309 N311 1.384 . S
N310 C306 1.427 1_545 S
N310 C307 1.384 . S
N311 C303 1.427 . S
N311 C309 1.384 . S
H312 C318 0.930 . S
H313 C322 0.930 . S
H314 C327 0.929 . S
H315 C325 0.929 . S
H316 C320 0.929 . S
H317 C326 0.929 . S
C318 H312 0.930 . S
C318 C319 1.367 . S
C318 C326 1.378 . S
C319 C318 1.367 . S
C319 C327 1.433 . S
C320 H316 0.929 . S
C320 C322 1.378 . S
C320 C324 1.350 . S
C321 C324 1.475 . S
C321 C326 1.338 1_556 S
C321 N329 1.427 . S
C322 H313 0.930 . S
C322 C320 1.378 . S
C322 C323 1.367 . S
C323 C322 1.367 . S
C323 C325 1.433 . S
C324 C320 1.350 . S
C324 C321 1.475 . S
C324 N328 1.427 . S
C325 H315 0.929 . S
C325 C323 1.433 . S
C325 N328 1.384 . S
C326 H317 0.929 . S
C326 C318 1.378 . S
C326 C321 1.338 1_554 S
C327 H314 0.929 . S
C327 C319 1.433 . S
C327 N329 1.373 1_554 S
N328 C324 1.427 . S
N328 C325 1.384 . S
N329 C321 1.427 . S
N329 C327 1.373 1_556 S
H330 C336 0.930 . S
H331 C340 0.930 . S
H332 C345 0.929 . S
H333 C343 0.929 . S
H334 C338 0.929 . S
H335 C344 0.929 . S
C336 H330 0.930 . S
C336 C337 1.367 . S
C336 C344 1.378 . S
C337 C336 1.367 . S
C337 C345 1.433 1_455 S
C338 H334 0.929 . S
C338 C340 1.378 . S
C338 C342 1.350 1_655 S
C339 C342 1.463 . S
C339 C344 1.350 . S
C339 N347 1.427 1_455 S
C340 H331 0.930 . S
C340 C338 1.378 . S
C340 C341 1.359 1_655 S
C341 C340 1.359 1_455 S
C341 C343 1.437 . S
C342 C338 1.350 1_455 S
C342 C339 1.463 . S
C342 N346 1.427 . S
C343 H333 0.929 . S
C343 C341 1.437 . S
C343 N346 1.384 . S
C344 H335 0.929 . S
C344 C336 1.378 . S
C344 C339 1.350 . S
C345 H332 0.929 . S
C345 C337 1.433 1_655 S
C345 N347 1.384 . S
N346 C342 1.427 . S
N346 C343 1.384 . S
N347 C339 1.427 1_655 S
N347 C345 1.384 . S
H348 C354 0.930 . S
H349 C358 0.930 . S
H350 C363 0.929 . S
H351 C361 0.929 . S
H352 C356 0.929 . S
H353 C362 0.929 . S
C354 H348 0.930 . S
C354 C355 1.367 1_565 S
C354 C362 1.378 . S
C355 C354 1.367 1_545 S
C355 C363 1.433 . S
C356 H352 0.929 . S
C356 C358 1.378 . S
C356 C360 1.350 . S
C357 C360 1.463 . S
C357 C362 1.350 1_545 S
C357 N365 1.427 . S
C358 H349 0.930 . S
C358 C356 1.378 . S
C358 C359 1.367 . S
C359 C358 1.367 . S
C359 C361 1.433 1_545 S
C360 C356 1.350 . S
C360 C357 1.463 . S
C360 N364 1.427 1_545 S
C361 H351 0.929 . S
C361 C359 1.433 1_565 S
C361 N364 1.384 . S
C362 H353 0.929 . S
C362 C354 1.378 . S
C362 C357 1.350 1_565 S
C363 H350 0.929 . S
C363 C355 1.433 . S
C363 N365 1.384 . S
N364 C360 1.427 1_565 S
N364 C361 1.384 . S
N365 C357 1.427 . S
N365 C363 1.384 . S
H366 C372 0.930 1_556 S
H367 C376 0.930 . S
H368 C381 0.929 . S
H369 C379 0.929 . S
H370 C374 0.929 1_554 S
H371 C380 0.929 . S
C372 H366 0.930 1_554 S
C372 C373 1.367 . S
C372 C380 1.378 1_554 S
C373 C372 1.367 . S
C373 C381 1.433 . S
C374 H370 0.929 1_556 S
C374 C376 1.378 . S
C374 C378 1.350 . S
C375 C378 1.463 . S
C375 C380 1.350 . S
C375 N383 1.427 1_556 S
C376 H367 0.930 . S
C376 C374 1.378 . S
C376 C377 1.367 . S
C377 C376 1.367 . S
C377 C379 1.433 . S
C378 C374 1.350 . S
C378 C375 1.463 . S
C378 N382 1.427 . S
C379 H369 0.929 . S
C379 C377 1.433 . S
C379 N382 1.384 . S
C380 H371 0.929 . S
C380 C372 1.378 1_556 S
C380 C375 1.350 . S
C381 H368 0.929 . S
C381 C373 1.433 . S
C381 N383 1.384 . S
N382 C378 1.427 . S
N382 C379 1.384 . S
N383 C375 1.427 1_554 S
N383 C381 1.384 . S
H384 C390 0.930 . S
H385 C394 0.930 . S
H386 C399 0.929 . S
H387 C397 0.929 . S
H388 C392 0.929 . S
H389 C398 0.929 . S
C390 H384 0.930 . S
C390 C391 1.367 1_455 S
C390 C398 1.378 . S
C391 C390 1.367 1_655 S
C391 C399 1.433 . S
C392 H388 0.929 . S
C392 C394 1.378 . S
C392 C396 1.350 . S
C393 C396 1.466 . S
C393 C398 1.343 1_655 S
C393 N401 1.432 . S
C394 H385 0.930 . S
C394 C392 1.378 . S
C394 C395 1.375 . S
C395 C394 1.375 . S
C395 C397 1.420 1_655 S
C396 C392 1.350 . S
C396 C393 1.466 . S
C396 N400 1.427 1_655 S
C397 H387 0.929 . S
C397 C395 1.420 1_455 S
C397 N400 1.384 . S
C398 H389 0.929 . S
C398 C390 1.378 . S
C398 C393 1.343 1_455 S
C399 H386 0.929 . S
C399 C391 1.433 . S
C399 N401 1.384 . S
N400 C396 1.427 1_455 S
N400 C397 1.384 . S
N401 C393 1.432 . S
N401 C399 1.384 . S
C197 C63 1.497 . S
C193 C6 1.470 1_455 S
C211 C22 1.595 . S
C215 C111 1.625 . S
C229 C34 1.255 . S
C233 C183 1.280 . S
C247 C7 1.467 . S
C251 C87 1.503 . S
C269 C135 1.617 . S
C265 C23 1.597 . S
C283 C35 1.265 . S
C287 C159 1.281 . S
C305 C120 1.614 . S
C301 C36 1.607 . S
C319 C9 1.812 . S
C323 C174 1.853 . S
C341 C78 1.506 1_455 S
C337 C21 1.473 1_455 S
C359 C126 1.614 1_545 S
C355 C37 1.609 . S
C377 C168 1.848 . S
C373 C8 1.817 . S
C391 C20 1.465 1_655 S
C395 C72 1.493 . S
