# Generated by pormake.
# Topology zzz, (3,6)-cn, num edge types: 1
# Building blocks:
#     Node 0, Type 0, BuildingBlock: VETTIZ_charged_linker_0, # of connection points: 3
#     Node 1, Type 0, BuildingBlock: VETTIZ_charged_linker_0, # of connection points: 3
#     Node 2, Type 0, BuildingBlock: VETTIZ_charged_linker_0, # of connection points: 3
#     Node 3, Type 0, BuildingBlock: VETTIZ_charged_linker_0, # of connection points: 3
#     Node 4, Type 0, BuildingBlock: VETTIZ_charged_linker_0, # of connection points: 3
#     Node 5, Type 0, BuildingBlock: VETTIZ_charged_linker_0, # of connection points: 3
#     Node 6, Type 0, BuildingBlock: VETTIZ_charged_linker_0, # of connection points: 3
#     Node 7, Type 0, BuildingBlock: VETTIZ_charged_linker_0, # of connection points: 3
#     Node 8, Type 1, BuildingBlock: BETFAJ_clean_sbu_0, # of connection points: 6
#     Node 9, Type 1, BuildingBlock: BETFAJ_clean_sbu_0, # of connection points: 6
#     Node 10, Type 1, BuildingBlock: BETFAJ_clean_sbu_0, # of connection points: 6
#     Node 11, Type 1, BuildingBlock: BETFAJ_clean_sbu_0, # of connection points: 6
#     Edge 12, Type (0, 1), BuildingBlock: OJICUG_clean_linker_0, # of connection points: 2
#     Edge 13, Type (0, 1), BuildingBlock: OJICUG_clean_linker_0, # of connection points: 2
#     Edge 14, Type (0, 1), BuildingBlock: OJICUG_clean_linker_0, # of connection points: 2
#     Edge 15, Type (0, 1), BuildingBlock: OJICUG_clean_linker_0, # of connection points: 2
#     Edge 16, Type (0, 1), BuildingBlock: OJICUG_clean_linker_0, # of connection points: 2
#     Edge 17, Type (0, 1), BuildingBlock: OJICUG_clean_linker_0, # of connection points: 2
#     Edge 18, Type (0, 1), BuildingBlock: OJICUG_clean_linker_0, # of connection points: 2
#     Edge 19, Type (0, 1), BuildingBlock: OJICUG_clean_linker_0, # of connection points: 2
#     Edge 20, Type (0, 1), BuildingBlock: OJICUG_clean_linker_0, # of connection points: 2
#     Edge 21, Type (0, 1), BuildingBlock: OJICUG_clean_linker_0, # of connection points: 2
#     Edge 22, Type (0, 1), BuildingBlock: OJICUG_clean_linker_0, # of connection points: 2
#     Edge 23, Type (0, 1), BuildingBlock: OJICUG_clean_linker_0, # of connection points: 2
#     Edge 24, Type (0, 1), BuildingBlock: OJICUG_clean_linker_0, # of connection points: 2
#     Edge 25, Type (0, 1), BuildingBlock: OJICUG_clean_linker_0, # of connection points: 2
#     Edge 26, Type (0, 1), BuildingBlock: OJICUG_clean_linker_0, # of connection points: 2
#     Edge 27, Type (0, 1), BuildingBlock: OJICUG_clean_linker_0, # of connection points: 2
#     Edge 28, Type (0, 1), BuildingBlock: OJICUG_clean_linker_0, # of connection points: 2
#     Edge 29, Type (0, 1), BuildingBlock: OJICUG_clean_linker_0, # of connection points: 2
#     Edge 30, Type (0, 1), BuildingBlock: OJICUG_clean_linker_0, # of connection points: 2
#     Edge 31, Type (0, 1), BuildingBlock: OJICUG_clean_linker_0, # of connection points: 2
#     Edge 32, Type (0, 1), BuildingBlock: OJICUG_clean_linker_0, # of connection points: 2
#     Edge 33, Type (0, 1), BuildingBlock: OJICUG_clean_linker_0, # of connection points: 2
#     Edge 34, Type (0, 1), BuildingBlock: OJICUG_clean_linker_0, # of connection points: 2
#     Edge 35, Type (0, 1), BuildingBlock: OJICUG_clean_linker_0, # of connection points: 2
# Relax obj value: 0.515
# Max RMSD: 0.268
# Mean RMSD: 0.258
data_MOF--net-zzz--node1-BETFAJ_clean_sbu_0--node2-VETTIZ_charged_linker_0--edge1-OJICUG_clean_linker_0
_symmetry_space_group_name_H-M    P1
_symmetry_Int_Tables_number       1
_symmetry_cell_setting            triclinic
loop_
_symmetry_equiv_pos_as_xyz
'x, y, z'
_cell_length_a     45.987852
_cell_length_b     46.012354
_cell_length_c     14.471964
_cell_angle_alpha  89.856546
_cell_angle_beta   89.909243
_cell_angle_gamma 89.917208
loop_
_atom_site_label
_atom_site_type_symbol
_atom_site_fract_x
_atom_site_fract_y
_atom_site_fract_z
_atom_type_partial_charge
C0 C 0.81677 0.5067 0.46301 0.0
C1 C 0.8366 0.49029 0.51905 0.0
C2 C 0.83216 0.46005 0.52642 0.0
C3 C 0.79521 0.46187 0.40873 0.0
C4 C 0.79515 0.4917 0.4106 0.0
C5 C 0.76895 0.50297 0.35489 0.0
H6 H 0.65972 0.46203 0.04596 0.0
C7 C 0.77475 0.45157 0.33896 0.0
C8 C 0.75723 0.47491 0.30957 0.0
H9 H 0.66756 0.54693 0.16818 0.0
H10 H 0.71155 0.53097 0.25131 0.0
H11 H 0.72028 0.4617 0.98921 0.0
H12 H 0.67823 0.41916 0.21451 0.0
H13 H 0.7013 0.39396 0.15776 0.0
H14 H 0.67319 0.41212 0.09339 0.0
H15 H 0.70976 0.42458 0.97972 0.0
H16 H 0.74562 0.43483 0.01908 0.0
C17 C 0.77906 0.52519 0.28224 0.0
C18 C 0.74682 0.51598 0.42319 0.0
C19 C 0.81091 0.36792 0.14917 0.0
C20 C 0.80339 0.35971 0.05891 0.0
C21 C 0.77493 0.36534 0.02774 0.0
C22 C 0.75589 0.38238 0.08089 0.0
C23 C 0.76604 0.39513 0.16306 0.0
C24 C 0.79256 0.38657 0.19844 0.0
C25 C 0.80092 0.40333 0.28339 0.0
C26 C 0.77601 0.4254 0.28777 0.0
C27 C 0.75602 0.42067 0.21659 0.0
C28 C 0.83074 0.41816 0.26631 0.0
C29 C 0.8015 0.38199 0.36656 0.0
C30 C 0.6701 0.47705 0.09303 0.0
C31 C 0.65927 0.50536 0.10275 0.0
C32 C 0.67493 0.5247 0.1606 0.0
C33 C 0.7002 0.5154 0.20959 0.0
C34 C 0.71028 0.48659 0.19981 0.0
C35 C 0.69534 0.46839 0.14013 0.0
C36 C 0.71074 0.44018 0.12482 0.0
C37 C 0.73506 0.44232 0.1949 0.0
C38 C 0.73551 0.46971 0.23932 0.0
C39 C 0.72213 0.44007 0.0233 0.0
C40 C 0.6898 0.41488 0.14833 0.0
H41 H 0.80767 0.42328 0.48397 0.0
H42 H 0.81803 0.53017 0.46078 0.0
H43 H 0.74158 0.50005 0.47866 0.0
H44 H 0.72617 0.52182 0.38931 0.0
H45 H 0.75581 0.53581 0.45618 0.0
H46 H 0.79607 0.51551 0.23707 0.0
H47 H 0.78832 0.54474 0.31608 0.0
H48 H 0.76081 0.53223 0.23769 0.0
H49 H 0.83246 0.36346 0.17557 0.0
H50 H 0.76835 0.35869 0.95914 0.0
H51 H 0.73472 0.38656 0.0531 0.0
H52 H 0.82997 0.43195 0.20312 0.0
H53 H 0.84832 0.40184 0.25776 0.0
H54 H 0.8376 0.43204 0.32422 0.0
H55 H 0.80143 0.35884 0.34462 0.0
H56 H 0.78224 0.38502 0.41204 0.0
H57 H 0.82161 0.38452 0.40809 0.0
H58 H 0.84565 0.44691 0.57148 0.0
C59 C 0.81114 0.44604 0.47349 0.0
C60 C 0.0533 0.80345 0.84017 0.0
C61 C 0.05887 0.8328 0.82164 0.0
C62 C 0.04406 0.85441 0.87254 0.0
C63 C 0.02328 0.81754 0.97073 0.0
C64 C 0.03455 0.79637 0.91337 0.0
C65 C 0.02446 0.76662 0.94101 0.0
H66 H 1.00222 0.66688 0.23713 0.0
C67 C 1.0094 0.8033 0.05044 0.0
C68 C 1.00743 0.77388 0.0295 0.0
H69 H 0.97182 0.66865 0.9533 0.0
H70 H 0.97158 0.72144 0.95854 0.0
H71 H 0.04898 0.72907 0.24897 0.0
H72 H 0.9547 0.7325 0.27551 0.0
H73 H 0.97571 0.74793 0.36694 0.0
H74 H 0.9755 0.70925 0.35092 0.0
H75 H 0.03102 0.70706 0.33495 0.0
H76 H 0.03416 0.74569 0.35079 0.0
C77 C 0.05095 0.74699 0.96145 0.0
C78 C 1.00589 0.75429 0.86128 0.0
C79 C 1.01018 0.86088 0.34756 0.0
C80 C 0.01142 0.85453 0.44259 0.0
C81 C 1.00945 0.82468 0.46823 0.0
C82 C 1.00699 0.80222 0.40034 0.0
C83 C 1.00647 0.80945 0.3054 0.0
C84 C 1.00854 0.83861 0.28164 0.0
C85 C 1.00991 0.84348 0.17939 0.0
C86 C 1.0074 0.8126 0.144 0.0
C87 C 1.00473 0.79207 0.21705 0.0
C88 C 0.03955 0.85806 0.15488 0.0
C89 C 0.98316 0.86176 0.15022 0.0
C90 C 0.99727 0.67855 0.17408 0.0
C91 C 0.98931 0.66316 0.09166 0.0
C92 C 0.97999 0.67939 0.01457 0.0
C93 C 0.98133 0.70952 0.01451 0.0
C94 C 0.99385 0.72365 0.08915 0.0
C95 C 0.99823 0.70966 0.17164 0.0
C96 C 1.00156 0.73275 0.24844 0.0
C97 C 1.00114 0.76168 0.19311 0.0
C98 C 0.99898 0.7544 0.09934 0.0
C99 C 0.0306 0.72841 0.29892 0.0
C100 C 0.97543 0.73054 0.3145 0.0
H101 H 0.0155 0.86394 0.98417 0.0
H102 H 0.06388 0.78659 0.80023 0.0
H103 H 0.01464 0.76071 0.79257 0.0
H104 H 0.98313 0.76235 0.86532 0.0
H105 H 1.00631 0.73021 0.86041 0.0
H106 H 0.06473 0.75662 0.01649 0.0
H107 H 0.0645 0.74401 0.89857 0.0
H108 H 0.04392 0.7251 0.98471 0.0
H109 H 1.01085 0.88315 0.32341 0.0
H110 H 1.01045 0.81863 0.54049 0.0
H111 H 1.00623 0.77996 0.42309 0.0
H112 H 0.05229 0.86427 0.21697 0.0
H113 H 0.03656 0.8785 0.11517 0.0
H114 H 0.05398 0.84328 0.1152 0.0
H115 H 0.96316 0.85389 0.18564 0.0
H116 H 0.97869 0.86018 0.07535 0.0
H117 H 0.98619 0.88501 0.16835 0.0
H118 H 0.04782 0.87725 0.85847 0.0
C119 C 0.02613 0.84686 0.94687 0.0
C120 C 0.85856 1.00927 0.17778 0.0
C121 C 0.87893 0.02691 0.12828 0.0
C122 C 0.87193 0.05648 0.11408 0.0
C123 C 0.82359 0.0486 0.17336 0.0
C124 C 0.83117 0.02132 0.20386 0.0
C125 C 0.80558 1.00795 0.25697 0.0
H126 H 0.65666 0.01691 0.32369 0.0
C127 C 0.79217 0.05255 0.18318 0.0
C128 C 0.78158 0.03113 0.24471 0.0
H129 H 0.71436 0.01098 0.55767 0.0
H130 H 0.75675 0.01704 0.4525 0.0
H131 H 0.65923 0.05241 0.21077 0.0
H132 H 0.68582 0.9838 0.17603 0.0
H133 H 0.70505 0.99813 0.07993 0.0
H134 H 0.66828 1.00973 0.10312 0.0
H135 H 0.68094 0.06647 0.12051 0.0
H136 H 0.69062 0.07418 0.2373 0.0
C137 C 0.8137 1.00376 0.359 0.0
C138 C 0.79671 0.97885 0.21297 0.0
C139 C 0.74172 0.10305 0.91179 0.0
C140 C 0.71509 0.09685 0.86842 0.0
C141 C 0.69925 0.07198 0.89601 0.0
C142 C 0.70807 0.0555 0.97179 0.0
C143 C 0.73258 0.06419 0.02103 0.0
C144 C 0.75061 0.08549 0.98623 0.0
C145 C 0.77912 0.08644 0.03758 0.0
C146 C 0.77347 0.06376 0.11352 0.0
C147 C 0.74542 0.05243 0.1052 0.0
C148 C 0.78327 0.11703 0.07869 0.0
C149 C 0.80373 0.07787 0.96931 0.0
C150 C 0.67827 0.01572 0.35307 0.0
C151 C 0.68179 0.01249 0.44911 0.0
C152 C 0.7107 0.01272 0.48398 0.0
C153 C 0.73517 0.01552 0.42368 0.0
C154 C 0.73077 0.0181 0.32769 0.0
C155 C 0.70248 0.01947 0.29495 0.0
C156 C 0.70112 0.02933 0.19583 0.0
C157 C 0.73309 0.03573 0.17729 0.0
C158 C 0.75074 0.02668 0.25067 0.0
C159 C 0.68203 0.0571 0.19046 0.0
C160 C 0.68944 1.00406 0.13549 0.0
H161 H 0.83988 0.08997 0.12519 0.0
H162 H 0.86363 0.98683 0.19366 0.0
H163 H 0.79131 0.98191 0.13871 0.0
H164 H 0.77732 0.96972 0.24851 0.0
H165 H 0.81465 0.96274 0.21831 0.0
H166 H 0.81763 0.02506 0.3928 0.0
H167 H 0.83377 0.99041 0.36522 0.0
H168 H 0.79611 0.99225 0.39663 0.0
H169 H 0.75468 0.12149 0.89016 0.0
H170 H 0.67876 0.06653 0.8635 0.0
H171 H 0.69505 0.03727 0.99201 0.0
H172 H 0.76328 0.12416 0.11569 0.0
H173 H 0.78807 0.13312 0.02334 0.0
H174 H 0.80122 0.11752 0.12939 0.0
H175 H 0.79806 0.08317 0.89656 0.0
H176 H 0.8083 0.05416 0.97219 0.0
H177 H 0.82404 0.09006 0.98204 0.0
H178 H 0.88711 0.07091 0.0798 0.0
C179 C 0.8445 0.06738 0.13727 0.0
C180 C 0.50993 0.71156 0.44536 0.0
C181 C 0.49389 0.69145 0.50164 0.0
C182 C 0.46374 0.69614 0.51209 0.0
C183 C 0.46473 0.73343 0.39518 0.0
C184 C 0.49454 0.73355 0.39514 0.0
C185 C 0.50521 0.76014 0.33985 0.0
H186 H 0.4607 0.86891 0.03137 0.0
C187 C 0.45388 0.75369 0.32551 0.0
C188 C 0.47679 0.77161 0.29547 0.0
H189 H 0.54538 0.86434 0.15748 0.0
H190 H 0.53117 0.81931 0.23852 0.0
H191 H 0.46348 0.80795 0.97425 0.0
H192 H 0.41788 0.84821 0.1964 0.0
H193 H 0.39407 0.82419 0.13794 0.0
H194 H 0.41142 0.85304 0.07477 0.0
H195 H 0.42596 0.8169 0.96256 0.0
H196 H 0.43757 0.78154 1.00329 0.0
C197 C 0.52749 0.75082 0.26643 0.0
C198 C 0.51796 0.78215 0.40865 0.0
C199 C 0.37248 0.71385 0.13427 0.0
C200 C 0.36449 0.7206 0.0431 0.0
C201 C 0.3692 0.74907 0.01038 0.0
C202 C 0.38524 0.76896 0.06321 0.0
C203 C 0.3979 0.75969 0.14676 0.0
C204 C 0.39018 0.73305 0.1833 0.0
C205 C 0.40709 0.72551 0.26892 0.0
C206 C 0.42798 0.75135 0.27336 0.0
C207 C 0.42279 0.77087 0.20093 0.0
C208 C 0.42334 0.69636 0.25284 0.0
C209 C 0.38562 0.72397 0.35152 0.0
C210 C 0.476 0.85899 0.07884 0.0
C211 C 0.50372 0.87107 0.09037 0.0
C212 C 0.52355 0.85603 0.14863 0.0
C213 C 0.51525 0.83018 0.19651 0.0
C214 C 0.48697 0.81891 0.18527 0.0
C215 C 0.46833 0.83322 0.12496 0.0
C216 C 0.44088 0.81667 0.10845 0.0
C217 C 0.44373 0.7925 0.17916 0.0
C218 C 0.47101 0.79304 0.2244 0.0
C219 C 0.44177 0.80522 1.00722 0.0
C220 C 0.41453 0.83653 0.13002 0.0
H221 H 0.42667 0.72118 0.47331 0.0
H222 H 0.53338 0.71017 0.44105 0.0
H223 H 0.50195 0.78709 0.46415 0.0
H224 H 0.52362 0.80292 0.37522 0.0
H225 H 0.53789 0.77321 0.44158 0.0
H226 H 0.518 0.73401 0.22042 0.0
H227 H 0.54725 0.7416 0.29954 0.0
H228 H 0.53416 0.76951 0.22297 0.0
H229 H 0.3687 0.69231 0.16186 0.0
H230 H 0.36266 0.75507 0.94103 0.0
H231 H 0.38878 0.79011 0.03429 0.0
H232 H 0.43741 0.69775 0.19041 0.0
H233 H 0.40787 0.67812 0.24356 0.0
H234 H 0.43719 0.69003 0.3116 0.0
H235 H 0.36261 0.7219 0.32884 0.0
H236 H 0.38689 0.74382 0.39494 0.0
H237 H 0.38967 0.70454 0.39524 0.0
H238 H 0.45091 0.68251 0.55766 0.0
C239 C 0.44934 0.71747 0.46097 0.0
C240 C 0.35381 0.51531 0.33222 0.0
C241 C 0.37382 0.53314 0.38207 0.0
C242 C 0.36645 0.56264 0.39561 0.0
C243 C 0.31836 0.55421 0.33564 0.0
C244 C 0.32636 0.52706 0.30542 0.0
C245 C 0.30111 0.51344 0.25179 0.0
H246 H 0.15226 0.51906 0.18452 0.0
C247 C 0.28689 0.55774 0.32537 0.0
C248 C 0.27675 0.53625 0.26374 0.0
H249 H 0.21028 0.51448 0.95061 0.0
H250 H 0.25243 0.52171 0.05555 0.0
H251 H 0.18252 0.48685 0.33297 0.0
H252 H 0.18452 0.57726 0.26839 0.0
H253 H 0.17527 0.56977 0.38579 0.0
H254 H 0.15376 0.55477 0.29691 0.0
H255 H 0.16367 0.51231 0.40402 0.0
H256 H 0.20072 0.50206 0.42916 0.0
C257 C 0.29254 0.48412 0.29543 0.0
C258 C 0.30959 0.5096 0.14988 0.0
C259 C 0.23542 0.60653 0.59791 0.0
C260 C 0.20888 0.5997 0.64132 0.0
C261 C 0.19318 0.57503 0.61198 0.0
C262 C 0.20216 0.5592 0.53521 0.0
C263 C 0.22671 0.56833 0.48658 0.0
C264 C 0.24449 0.5896 0.52236 0.0
C265 C 0.27308 0.59108 0.47123 0.0
C266 C 0.26784 0.56865 0.39463 0.0
C267 C 0.23989 0.557 0.40232 0.0
C268 C 0.29768 0.58252 0.53943 0.0
C269 C 0.27695 0.62189 0.43097 0.0
C270 C 0.17392 0.51843 0.15517 0.0
C271 C 0.17761 0.51521 0.05925 0.0
C272 C 0.20653 0.51617 0.02427 0.0
C273 C 0.23088 0.51965 0.08446 0.0
C274 C 0.22633 0.52219 0.18041 0.0
C275 C 0.19798 0.52291 0.21309 0.0
C276 C 0.19626 0.53285 0.31188 0.0
C277 C 0.22802 0.54011 0.33027 0.0
C278 C 0.24599 0.5314 0.25721 0.0
C279 C 0.18519 0.50732 0.37279 0.0
C280 C 0.17646 0.56014 0.31637 0.0
H281 H 0.33401 0.59575 0.38361 0.0
H282 H 0.35918 0.49294 0.31669 0.0
H283 H 0.3133 0.53104 0.1163 0.0
H284 H 0.29229 0.49791 0.11183 0.0
H285 H 0.32987 0.49657 0.14397 0.0
H286 H 0.28689 0.48694 0.36961 0.0
H287 H 0.31072 0.46827 0.2903 0.0
H288 H 0.27337 0.47479 0.25948 0.0
H289 H 0.24825 0.62486 0.62079 0.0
H290 H 0.17275 0.56915 0.64438 0.0
H291 H 0.18923 0.54107 0.51411 0.0
H292 H 0.29189 0.58756 0.61224 0.0
H293 H 0.3179 0.59492 0.52688 0.0
H294 H 0.30245 0.55885 0.53624 0.0
H295 H 0.25696 0.62892 0.39385 0.0
H296 H 0.29502 0.62281 0.38057 0.0
H297 H 0.2814 0.6378 0.48681 0.0
H298 H 0.38135 0.57724 0.43003 0.0
C299 C 0.33895 0.57322 0.37179 0.0
C300 C 0.92032 0.24059 0.60298 0.0
C301 C 0.92579 0.21373 0.64602 0.0
C302 C 0.94942 0.19659 0.61553 0.0
C303 C 0.95844 0.23028 0.49179 0.0
C304 C 0.93785 0.24895 0.52773 0.0
C305 C 0.93773 0.2777 0.47748 0.0
H306 H 0.0396 0.36171 0.34308 0.0
C307 C 0.97116 0.24351 0.40932 0.0
C308 C 0.96064 0.27196 0.40235 0.0
H309 H 0.95366 0.38533 0.44207 0.0
H310 H 0.9351 0.3388 0.3898 0.0
H311 H 0.04316 0.2892 0.39223 0.0
H312 H 1.00421 0.3177 0.13304 0.0
H313 H 0.03726 0.29638 0.13352 0.0
H314 H 0.03823 0.33373 0.16773 0.0
H315 H 0.06373 0.31291 0.31731 0.0
H316 H 0.05697 0.27591 0.28364 0.0
C317 C 0.94642 0.30181 0.54702 0.0
C318 C 0.90736 0.28265 0.43512 0.0
C319 C 0.0134 0.17849 0.16481 0.0
C320 C 0.01865 0.18288 0.07 0.0
C321 C 0.01905 0.21207 0.03735 0.0
C322 C 0.01483 0.23598 0.09866 0.0
C323 C 1.01025 0.23074 0.19349 0.0
C324 C 1.00829 0.20219 0.22372 0.0
C325 C 0.99633 0.20001 0.32031 0.0
C326 C 0.98914 0.23173 0.33942 0.0
C327 C 0.99978 0.25 0.26968 0.0
C328 C 0.02053 0.18819 0.38509 0.0
C329 C 0.96874 0.18067 0.31837 0.0
C330 C 0.01683 0.35684 0.35407 0.0
C331 C 0.99848 0.37695 0.40188 0.0
C332 C 0.9686 0.3703 0.40934 0.0
C333 C 0.95791 0.34325 0.38202 0.0
C334 C 0.97719 0.3224 0.34851 0.0
C335 C 1.00502 0.32989 0.32347 0.0
C336 C 0.0191 0.30463 0.27086 0.0
C337 C 0.9956 0.2808 0.27779 0.0
C338 C 0.97327 0.29111 0.3363 0.0
C339 C 0.04742 0.29513 0.31891 0.0
C340 C 0.02495 0.31357 0.17025 0.0
H341 H 0.98316 0.19085 0.51758 0.0
H342 H 0.90269 0.25438 0.62635 0.0
H343 H 0.89999 0.26294 0.39752 0.0
H344 H 0.90739 0.3007 0.38457 0.0
H345 H 0.89115 0.28764 0.48987 0.0
H346 H 0.94056 0.29602 0.61927 0.0
H347 H 0.93473 0.32245 0.53403 0.0
H348 H 0.97025 0.30579 0.54582 0.0
H349 H 0.01162 0.15665 0.19217 0.0
H350 H 0.0223 0.21638 0.9645 0.0
H351 H 0.01372 0.25777 0.0711 0.0
H352 H 0.01526 0.16606 0.41096 0.0
H353 H 0.02408 0.20269 0.44526 0.0
H354 H 0.04201 0.18665 0.3499 0.0
H355 H 0.95302 0.18895 0.26619 0.0
H356 H 0.95724 0.17981 0.38504 0.0
H357 H 0.9743 0.15788 0.30051 0.0
H358 H 0.9541 0.17575 0.64734 0.0
C359 C 0.96586 0.20488 0.53912 0.0
C360 C 0.3203 0.01217 0.04344 0.0
C361 C 0.34023 0.99572 0.98811 0.0
C362 C 0.33594 0.96546 0.9818 0.0
C363 C 0.29883 0.96738 0.09941 0.0
C364 C 0.29869 0.99721 0.09636 0.0
C365 C 0.2724 1.00857 0.1514 0.0
H366 H 0.16308 0.9687 0.46276 0.0
C367 C 0.27834 0.95722 0.16979 0.0
C368 C 0.26082 0.98065 0.1983 0.0
H369 H 0.17026 0.05267 0.33257 0.0
H370 H 0.21478 0.0367 0.25224 0.0
H371 H 0.1818 0.92522 0.29954 0.0
H372 H 0.22497 0.96925 0.5189 0.0
H373 H 0.24952 0.94139 0.49149 0.0
H374 H 0.21349 0.93249 0.53289 0.0
H375 H 0.17731 0.91866 0.42128 0.0
H376 H 0.20519 0.90034 0.35643 0.0
C377 C 0.2503 0.02116 0.08219 0.0
C378 C 0.28232 0.03116 0.22273 0.0
C379 C 0.31361 0.8726 0.35848 0.0
C380 C 0.30647 0.86451 0.44938 0.0
C381 C 0.27836 0.87088 0.48254 0.0
C382 C 0.25951 0.88861 0.43092 0.0
C383 C 0.26944 0.90107 0.34771 0.0
C384 C 0.29551 0.89184 0.31056 0.0
C385 C 0.3039 0.90854 0.22517 0.0
C386 C 0.27947 0.93114 0.22192 0.0
C387 C 0.25967 0.92677 0.29415 0.0
C388 C 0.30369 0.88732 0.14197 0.0
C389 C 0.3341 0.92269 0.24103 0.0
C390 C 0.17356 0.98348 0.4148 0.0
C391 C 0.16237 0.01151 0.40164 0.0
C392 C 0.17796 0.03064 0.34255 0.0
C393 C 0.20352 0.02131 0.29518 0.0
C394 C 0.21391 0.99271 0.30786 0.0
C395 C 0.19907 0.9748 0.36913 0.0
C396 C 0.2146 0.94674 0.38621 0.0
C397 C 0.23882 0.94855 0.31539 0.0
C398 C 0.23918 0.97572 0.26928 0.0
C399 C 0.19367 0.92125 0.36531 0.0
C400 C 0.22618 0.94724 0.48732 0.0
H401 H 0.3118 0.92863 0.02608 0.0
H402 H 0.32149 0.03565 0.04484 0.0
H403 H 0.29934 0.02178 0.26843 0.0
H404 H 0.26398 0.03828 0.26689 0.0
H405 H 0.29148 0.05063 0.18774 0.0
H406 H 0.24538 1.00502 0.0273 0.0
H407 H 0.25915 0.041 0.04847 0.0
H408 H 0.22949 0.02683 0.11536 0.0
H409 H 0.33484 0.8676 0.33034 0.0
H410 H 0.27201 0.86433 0.55164 0.0
H411 H 0.23874 0.89351 0.46067 0.0
H412 H 0.28491 0.89155 0.09557 0.0
H413 H 0.30206 0.86417 0.16371 0.0
H414 H 0.32414 0.88874 0.10132 0.0
H415 H 0.33386 0.93626 0.30454 0.0
H416 H 0.34104 0.93665 0.18319 0.0
H417 H 0.35136 0.90597 0.24843 0.0
H418 H 0.34958 0.95231 0.93727 0.0
C419 C 0.31495 0.95146 0.03533 0.0
C420 C 0.52031 0.32304 0.02643 0.0
C421 C 0.53707 0.34293 0.97151 0.0
C422 C 0.56724 0.33791 0.9639 0.0
C423 C 0.56479 0.30073 0.08102 0.0
C424 C 0.53499 0.30094 0.07827 0.0
C425 C 0.52351 0.27445 0.13238 0.0
H426 H 0.5637 0.16557 0.4465 0.0
C427 C 0.57475 0.2804 0.15192 0.0
C428 C 0.55133 0.26278 0.17991 0.0
H429 H 0.48111 0.16982 0.30695 0.0
H430 H 0.49621 0.21518 0.22962 0.0
H431 H 0.60839 0.18577 0.28828 0.0
H432 H 0.56028 0.22793 0.50191 0.0
H433 H 0.58778 0.25312 0.47678 0.0
H434 H 0.59719 0.21744 0.52014 0.0
H435 H 0.61345 0.18144 0.41075 0.0
H436 H 0.63171 0.20986 0.34825 0.0
C437 C 0.51139 0.25256 0.06205 0.0
C438 C 0.50049 0.28391 0.20324 0.0
C439 C 0.65679 0.31851 0.34493 0.0
C440 C 0.66439 0.31211 0.43668 0.0
C441 C 0.65803 0.28422 0.47179 0.0
C442 C 0.64099 0.26477 0.42049 0.0
C443 C 0.62919 0.27384 0.33543 0.0
C444 C 0.63824 0.29981 0.29715 0.0
C445 C 0.62204 0.30745 0.21032 0.0
C446 C 0.60023 0.28238 0.20628 0.0
C447 C 0.60431 0.26314 0.28018 0.0
C448 C 0.64396 0.30772 0.1287 0.0
C449 C 0.60681 0.33726 0.22421 0.0
C450 C 0.54907 0.17555 0.39709 0.0
C451 C 0.52169 0.16322 0.38055 0.0
C452 C 0.50268 0.1783 0.31968 0.0
C453 C 0.51152 0.20434 0.27385 0.0
C454 C 0.53955 0.21572 0.28955 0.0
C455 C 0.5573 0.20144 0.35258 0.0
C456 C 0.58465 0.21786 0.37208 0.0
C457 C 0.58285 0.24187 0.30047 0.0
C458 C 0.55611 0.24146 0.25208 0.0
C459 C 0.61108 0.19772 0.35444 0.0
C460 C 0.58262 0.22964 0.47269 0.0
H461 H 0.60368 0.31265 1.00641 0.0
H462 H 0.49684 0.32468 0.02852 0.0
H463 H 0.50957 0.30061 0.25046 0.0
H464 H 0.49318 0.26523 0.24571 0.0
H465 H 0.48119 0.29331 0.16794 0.0
H466 H 0.52796 0.24755 1.00833 0.0
H467 H 0.4919 0.26165 0.02696 0.0
H468 H 0.50523 0.2318 0.09461 0.0
H469 H 0.66168 0.33958 0.31545 0.0
H470 H 0.66418 0.27846 0.54171 0.0
H471 H 0.63615 0.24417 0.45152 0.0
H472 H 0.66697 0.30799 0.15229 0.0
H473 H 0.64149 0.32754 0.0855 0.0
H474 H 0.64146 0.28817 0.08448 0.0
H475 H 0.59248 0.33672 0.28617 0.0
H476 H 0.59339 0.3438 0.1647 0.0
H477 H 0.62291 0.35497 0.2332 0.0
H478 H 0.58063 0.35138 0.91953 0.0
C479 C 0.58093 0.31648 0.01652 0.0
Sm480 Sm 0.04217 1.00863 0.81855 0.0
Sm481 Sm 0.9983 0.0238 0.71681 0.0
C482 C 0.08488 0.98428 0.9132 0.0
C483 C 0.10735 0.96448 0.87804 0.0
C484 C 0.1156 0.94055 0.93141 0.0
C485 C 0.12698 0.91592 0.88848 0.0
C486 C 0.12949 0.91479 0.79117 0.0
C487 C 0.12655 0.94083 0.741 0.0
C488 C 0.11504 0.96543 0.78395 0.0
C489 C 0.06461 0.03033 0.65242 0.0
C490 C 0.01768 0.95929 0.67568 0.0
C491 C 0.9557 0.04748 0.61979 0.0
C492 C 0.93194 0.06655 0.64968 0.0
C493 C 0.91829 0.08466 0.58556 0.0
C494 C 0.90072 0.10746 0.61595 0.0
C495 C 0.89677 0.11268 0.71136 0.0
C496 C 0.90785 0.09228 0.77478 0.0
C497 C 0.92555 0.06952 0.74418 0.0
C498 C 0.97626 1.00253 0.88422 0.0
C499 C 0.02275 0.07359 0.85837 0.0
O500 O 0.05852 0.97371 0.91155 0.0
O501 O 0.08604 1.01085 0.88223 0.0
O502 O 0.04353 0.01276 0.65968 0.0
O503 O 0.07135 0.0397 0.73353 0.0
O504 O 0.02781 0.96267 0.76039 0.0
O505 O 1.00905 0.98277 0.63199 0.0
O506 O 0.98167 0.05886 0.62502 0.0
O507 O 0.95477 0.02098 0.65157 0.0
O508 O 0.99726 0.02009 0.8757 0.0
O509 O 0.96927 0.99292 0.8035 0.0
O510 O 0.01126 0.06982 0.77563 0.0
O511 O 0.033 0.05048 0.90078 0.0
H512 H 0.11009 0.93955 1.00419 0.0
H513 H 0.12942 0.89657 0.93048 0.0
H514 H 0.12905 0.94096 0.66653 0.0
H515 H 0.10913 0.98391 0.74135 0.0
H516 H 0.92296 0.08258 0.51245 0.0
H517 H 0.89293 0.12269 0.56448 0.0
H518 H 0.905 0.09539 0.84841 0.0
H519 H 0.93587 0.05552 0.7948 0.0
Sm520 Sm 0.51798 0.03681 0.78582 0.0
Sm521 Sm 0.50364 0.99495 0.67247 0.0
C522 C 0.54183 0.07638 0.8937 0.0
C523 C 0.56278 0.09909 0.86898 0.0
C524 C 0.58174 0.10992 0.93574 0.0
C525 C 0.60613 0.12585 0.9088 0.0
C526 C 0.61208 0.13092 0.81432 0.0
C527 C 0.59113 0.1228 0.74867 0.0
C528 C 0.56677 0.10678 0.77575 0.0
C529 C 0.50026 0.06247 0.61971 0.0
C530 C 0.56974 0.01278 0.64765 0.0
C531 C 0.47989 0.9572 0.55674 0.0
C532 C 0.45871 0.93356 0.56507 0.0
C533 C 0.45097 0.9177 0.48665 0.0
C534 C 0.42903 0.89684 0.49187 0.0
C535 C 0.4144 0.89146 0.57586 0.0
C536 C 0.42347 0.90635 0.65563 0.0
C537 C 0.44545 0.92729 0.65022 0.0
C538 C 0.52178 0.96928 0.8384 0.0
C539 C 0.45212 0.01819 0.81122 0.0
O540 O 0.55175 0.04982 0.88737 0.0
O541 O 0.51603 0.07931 0.85781 0.0
O542 O 0.51717 0.04081 0.62712 0.0
O543 O 0.48945 0.06834 0.69992 0.0
O544 O 0.56472 0.02371 0.73064 0.0
O545 O 0.54729 1.00354 0.60033 0.0
O546 O 0.46982 0.98345 0.56934 0.0
O547 O 0.5047 0.95288 0.59787 0.0
O548 O 0.50483 0.99091 0.83136 0.0
O549 O 0.5318 0.96285 0.75756 0.0
O550 O 0.45739 1.00822 0.72735 0.0
O551 O 0.47439 0.02736 0.85973 0.0
H552 H 0.57896 0.10416 1.00787 0.0
H553 H 0.6218 0.13137 0.96167 0.0
H554 H 0.59486 0.12655 0.67569 0.0
H555 H 0.55223 0.09858 0.72305 0.0
H556 H 0.46114 0.92222 0.42055 0.0
H557 H 0.42234 0.88631 0.42854 0.0
H558 H 0.41281 0.90265 0.72139 0.0
H559 H 0.45147 0.93923 0.71174 0.0
Sm560 Sm 0.49596 0.52356 0.79643 0.0
Sm561 Sm 0.53845 0.51128 0.67617 0.0
C562 C 0.45878 0.54564 0.91776 0.0
C563 C 0.43567 0.56758 0.91339 0.0
C564 C 0.4201 0.57461 0.99331 0.0
C565 C 0.39974 0.59714 0.99178 0.0
C566 C 0.39458 0.61307 0.91006 0.0
C567 C 0.40928 0.60486 0.82877 0.0
C568 C 0.42969 0.5823 0.83048 0.0
C569 C 0.47056 0.50779 0.62829 0.0
C570 C 0.51839 0.57739 0.66326 0.0
C571 C 0.57593 0.48943 0.55527 0.0
C572 C 0.59911 0.46755 0.55999 0.0
C573 C 0.61405 0.45969 0.47964 0.0
C574 C 0.63412 0.43689 0.4816 0.0
C575 C 0.63956 0.42151 0.5642 0.0
C576 C 0.62566 0.43069 0.64585 0.0
C577 C 0.60554 0.4535 0.64369 0.0
C578 C 0.56363 0.5269 0.8448 0.0
C579 C 0.51548 0.45739 0.80885 0.0
O580 O 0.48529 0.55528 0.90696 0.0
O581 O 0.45395 0.52179 0.87193 0.0
O582 O 0.49209 0.52468 0.6376 0.0
O583 O 0.46382 0.49688 0.70787 0.0
O584 O 0.5082 0.57068 0.7461 0.0
O585 O 0.52836 0.55616 0.61154 0.0
O586 O 0.54946 0.47967 0.56562 0.0
O587 O 0.58058 0.51327 0.60133 0.0
O588 O 0.54225 0.50988 0.83469 0.0
O589 O 0.57033 0.53812 0.76562 0.0
O590 O 0.52596 0.46412 0.72632 0.0
O591 O 0.5056 0.47863 0.86067 0.0
H592 H 0.42442 0.56337 0.05774 0.0
H593 H 0.38935 0.60314 0.05619 0.0
H594 H 0.40574 0.61654 0.76469 0.0
H595 H 0.44144 0.5769 0.76784 0.0
H596 H 0.60937 0.47042 0.41458 0.0
H597 H 0.64391 0.43018 0.41697 0.0
H598 H 0.62947 0.41948 0.71063 0.0
H599 H 0.59427 0.45953 0.70664 0.0
Sm600 Sm 1.00037 0.49101 0.8342 0.0
Sm601 Sm 0.01262 0.53604 0.72827 0.0
C602 C 0.97791 0.45068 0.94452 0.0
C603 C 0.95655 0.42725 0.93552 0.0
C604 C 0.94935 0.41057 0.01303 0.0
C605 C 0.92692 0.39026 1.00832 0.0
C606 C 0.91122 0.38624 0.92572 0.0
C607 C 0.91978 0.40189 0.84647 0.0
C608 C 0.94225 0.42231 0.85143 0.0
C609 C 0.02001 0.46972 0.66422 0.0
C610 C 0.94806 0.51414 0.69702 0.0
C611 C 0.03445 0.57918 0.62918 0.0
C612 C 0.05562 0.60141 0.65585 0.0
C613 C 0.0737 0.61375 0.58888 0.0
C614 C 0.09843 0.6291 0.61553 0.0
C615 C 0.10562 0.63212 0.7099 0.0
C616 C 0.08552 0.62252 0.77661 0.0
C617 C 0.06083 0.60704 0.74979 0.0
C618 C 0.99169 0.55597 0.89803 0.0
C619 C 0.06554 0.51197 0.86225 0.0
O620 O 0.96769 0.47712 0.93842 0.0
O621 O 1.00214 0.44725 0.89906 0.0
O622 O 1.00221 0.4905 0.67478 0.0
O623 O 0.02989 0.46182 0.744 0.0
O624 O 0.9537 0.50259 0.77879 0.0
O625 O 0.96986 0.52573 0.65115 0.0
O626 O 0.04471 0.5527 0.62613 0.0
O627 O 1.00928 0.58065 0.67041 0.0
O628 O 1.01101 0.53665 0.88706 0.0
O629 O 0.98071 0.5625 0.81859 0.0
O630 O 0.05988 0.52463 0.7821 0.0
O631 O 0.04374 0.50007 0.90703 0.0
H632 H 0.96028 0.4141 0.07835 0.0
H633 H 0.92069 0.37914 0.07134 0.0
H634 H 0.90834 0.39922 0.7817 0.0
H635 H 0.94779 0.43494 0.79061 0.0
H636 H 0.06998 0.60959 0.51619 0.0
H637 H 0.11337 0.63581 0.56168 0.0
H638 H 0.09015 0.62472 0.84962 0.0
H639 H 0.047 0.59765 0.80268 0.0
C640 C 0.11017 1.00247 0.44952 0.0
C641 C 0.13524 0.02006 0.45368 0.0
H642 H 0.06799 0.99259 0.50556 0.0
C643 C 0.13531 0.04313 0.51735 0.0
H644 H 0.10933 0.98443 0.40167 0.0
C645 C 0.11175 0.04736 0.57863 0.0
C646 C 0.08719 0.02896 0.57702 0.0
H647 H 0.15431 0.05688 0.52347 0.0
H648 H 0.11326 0.06442 0.62981 0.0
C649 C 0.08641 1.00708 0.50937 0.0
C650 C 0.48816 0.13337 0.48436 0.0
C651 C 0.5136 0.13544 0.43048 0.0
H652 H 0.46411 0.109 0.58622 0.0
C653 C 0.53318 0.11175 0.43315 0.0
H654 H 0.47274 0.15118 0.4852 0.0
C655 C 0.52803 0.08732 0.4899 0.0
C656 C 0.50335 0.08593 0.54745 0.0
H657 H 0.55304 0.11248 0.39286 0.0
H658 H 0.54415 0.07014 0.49199 0.0
C659 C 0.48328 0.10915 0.54262 0.0
C660 C 0.42718 0.53807 0.42388 0.0
C661 C 0.40108 0.52195 0.4282 0.0
H662 H 0.46948 0.54617 0.48168 0.0
C663 C 0.39979 0.49872 0.49156 0.0
H664 H 0.42905 0.55619 0.37631 0.0
C665 C 0.42298 0.49317 0.55298 0.0
C666 C 0.44831 0.51049 0.55244 0.0
H667 H 0.38003 0.4861 0.49819 0.0
H668 H 0.42049 0.47608 0.60399 0.0
C669 C 0.45045 0.53236 0.48462 0.0
C670 C 0.99374 0.42987 0.44832 0.0
C671 C 1.00935 0.40343 0.45251 0.0
H672 H 0.98496 0.47145 0.51008 0.0
C673 C 0.03131 0.40091 0.51973 0.0
H674 H 0.97663 0.43269 0.39772 0.0
C675 C 0.03593 0.42318 0.585 0.0
C676 C 0.01888 0.44873 0.58466 0.0
H677 H 0.04349 0.38085 0.52625 0.0
H678 H 0.05191 0.4197 0.6388 0.0
C679 C 0.99848 0.45218 0.51307 0.0
C680 C 0.93255 0.03129 0.08971 0.0
C681 C 0.9063 0.01552 0.08336 0.0
H682 H 0.97515 0.03941 0.03385 0.0
C683 C 0.90506 0.99273 0.01879 0.0
H684 H 0.93435 0.04909 0.13819 0.0
C685 C 0.92849 0.98735 0.95795 0.0
C686 C 0.95397 1.00442 0.96036 0.0
H687 H 0.88517 0.98043 0.01061 0.0
H688 H 0.92602 0.97073 0.90571 0.0
C689 C 0.95603 0.02575 0.02957 0.0
C690 C 0.53566 0.89956 0.97814 0.0
C691 C 0.51131 0.89838 0.03715 0.0
H692 H 0.55793 0.92258 0.8693 0.0
C693 C 0.49203 0.92232 0.03614 0.0
H694 H 0.55079 0.88151 0.97592 0.0
C695 C 0.49633 0.9461 0.97595 0.0
C696 C 0.51978 0.94653 0.91332 0.0
H697 H 0.473 0.92225 0.08034 0.0
H698 H 0.48043 0.96349 0.97544 0.0
C699 C 0.53966 0.92313 0.91659 0.0
C700 C 0.60806 0.49567 0.04561 0.0
C701 C 0.63266 0.514 0.0479 0.0
H702 H 0.56701 0.48553 0.98233 0.0
C703 C 0.6328 0.5383 0.98853 0.0
H704 H 0.60709 0.47673 0.09014 0.0
C705 C 0.60987 0.54312 0.92542 0.0
C706 C 0.58584 0.52409 0.92076 0.0
H707 H 0.65139 0.55272 0.98731 0.0
H708 H 0.6114 0.56131 0.87804 0.0
C709 C 0.58496 0.50074 0.98372 0.0
C710 C 0.01633 0.61635 0.06054 0.0
C711 C 0.98982 0.63075 0.07852 0.0
H712 H 0.03785 0.58091 0.99076 0.0
C713 C 0.96396 0.61679 0.0511 0.0
H714 H 0.03669 0.6268 0.07775 0.0
C715 C 0.96465 0.59107 0.99889 0.0
C716 C 0.99116 0.57796 0.97433 0.0
H717 H 0.94321 0.62748 0.06161 0.0
H718 H 0.9444 0.5825 0.97224 0.0
C719 C 0.01698 0.59012 0.00969 0.0
C720 C 0.8794 0.18899 0.66848 0.0
C721 C 0.90474 0.19997 0.7094 0.0
H722 H 0.85529 0.1503 0.64077 0.0
C723 C 0.91594 0.1856 0.78727 0.0
H724 H 0.86953 0.20022 0.61055 0.0
C725 C 0.90837 0.15664 0.80305 0.0
C726 C 0.88919 0.14264 0.7418 0.0
H727 H 0.93486 0.1942 0.82235 0.0
H728 H 0.92168 0.14431 0.85081 0.0
C729 C 0.87147 0.16012 0.6851 0.0
C730 C 0.35538 0.84332 0.48423 0.0
C731 C 0.33096 0.85921 0.51404 0.0
H732 H 0.40187 0.84092 0.48212 0.0
C733 C 0.33427 0.87852 0.58844 0.0
H734 H 0.35339 0.82775 0.42856 0.0
C735 C 0.362 0.88636 0.61825 0.0
C736 C 0.38677 0.87469 0.5749 0.0
H737 H 0.31594 0.89096 0.61399 0.0
H738 H 0.36382 0.90428 0.66625 0.0
C739 C 0.38318 0.85113 0.51418 0.0
C740 C 0.68566 0.36117 0.46801 0.0
C741 C 0.66959 0.33707 0.49938 0.0
H742 H 0.68892 0.40758 0.46532 0.0
C743 C 0.65044 0.34088 0.57421 0.0
H744 H 0.70108 0.3588 0.41183 0.0
C745 C 0.64323 0.36878 0.60413 0.0
C746 C 0.65532 0.39327 0.56036 0.0
H747 H 0.63779 0.32283 0.60068 0.0
H748 H 0.62556 0.37101 0.65316 0.0
C749 C 0.67844 0.38914 0.49796 0.0
C750 C 0.17893 0.60917 0.7794 0.0
C751 C 0.19368 0.62042 0.70229 0.0
H752 H 0.1376 0.60435 0.84341 0.0
C753 C 0.18294 0.6458 0.66048 0.0
H754 H 0.18728 0.5901 0.81465 0.0
C755 C 0.15424 0.65435 0.67727 0.0
C756 C 0.13653 0.63732 0.73534 0.0
H757 H 0.19435 0.65554 0.60264 0.0
H758 H 0.14471 0.67092 0.6334 0.0
C759 C 0.15014 0.61738 0.79542 0.0
C760 C 0.11154 0.83829 0.79981 0.0
C761 C 0.0835 0.84178 0.76318 0.0
H762 H 0.15134 0.86001 0.83135 0.0
C763 C 0.07882 0.86335 0.69649 0.0
H764 H 0.11594 0.82124 0.84968 0.0
C765 C 0.09907 0.88563 0.68611 0.0
C766 C 0.12346 0.88655 0.74502 0.0
H767 H 0.05763 0.8658 0.66515 0.0
H768 H 0.09237 0.90453 0.64676 0.0
C769 C 0.13187 0.86063 0.78935 0.0
C770 C 0.68428 0.10852 0.73401 0.0
C771 C 0.6998 0.11854 0.81099 0.0
H772 H 0.64235 0.10507 0.67355 0.0
C773 C 0.68977 0.14352 0.85664 0.0
H774 H 0.69206 0.08982 0.69581 0.0
C775 C 0.66103 0.15256 0.84388 0.0
C776 C 0.64264 0.13649 0.78567 0.0
H777 H 0.70178 0.15236 0.91445 0.0
H778 H 0.65204 0.16853 0.89088 0.0
C779 C 0.65549 0.1173 0.72175 0.0
C780 C 0.38088 0.69339 0.90523 0.0
C781 C 0.36086 0.69592 0.97831 0.0
H782 H 0.40765 0.66477 0.82663 0.0
C783 C 0.34554 0.67101 1.00665 0.0
H784 H 0.39303 0.71212 0.88135 0.0
C785 C 0.35408 0.64357 0.97531 0.0
C786 C 0.37789 0.64076 0.91482 0.0
H787 H 0.32959 0.67238 0.06167 0.0
H788 H 0.34401 0.6245 1.00553 0.0
C789 C 0.38946 0.666 0.87407 0.0
C790 C 0.85195 0.33855 0.01991 0.0
C791 C 0.82758 0.35491 0.99272 0.0
H792 H 0.89838 0.33528 0.01757 0.0
C793 C 0.83068 0.37487 0.91967 0.0
H794 H 0.8501 0.32261 0.07485 0.0
C795 C 0.85832 0.38255 0.88815 0.0
C796 C 0.88321 0.37007 0.9284 0.0
H797 H 0.81233 0.38776 0.89653 0.0
H798 H 0.86008 0.40085 0.84129 0.0
C799 C 0.87964 0.3461 0.98794 0.0
C800 C 0.03792 0.13212 0.03967 0.0
C801 C 0.02211 0.15648 1.00807 0.0
H802 H 0.05049 0.08778 0.01881 0.0
C803 C 1.00769 0.15385 0.92232 0.0
H804 H 0.04968 0.13312 0.10437 0.0
C805 C 1.00823 0.12738 0.87219 0.0
C806 C 0.02324 0.10277 0.90625 0.0
H807 H 0.99502 0.17186 0.89566 0.0
H808 H 0.99623 0.12599 0.80802 0.0
C809 C 0.0384 0.10589 0.99013 0.0
C810 C 0.37135 1.00043 0.84466 0.0
C811 C 0.36618 1.0081 0.93766 0.0
H812 H 0.40186 0.99745 0.73252 0.0
C813 C 0.38892 0.02174 0.98598 0.0
H814 H 0.35454 0.98961 0.8053 0.0
C815 C 0.41643 0.026 0.94419 0.0
C816 C 0.422 0.01681 0.85271 0.0
H817 H 0.38607 0.02739 0.05803 0.0
H818 H 0.43368 0.03547 0.98502 0.0
C819 C 0.3987 1.00473 0.80294 0.0
C820 C 0.51087 0.39165 0.97389 0.0
C821 C 0.52515 0.36967 0.92367 0.0
H822 H 0.49678 0.43627 0.97813 0.0
C823 C 0.53367 0.37624 0.83209 0.0
H824 H 0.50449 0.38775 0.04492 0.0
C825 C 0.5296 0.40416 0.79393 0.0
C826 C 0.51685 0.42667 0.84588 0.0
H827 H 0.54489 0.36005 0.79112 0.0
H828 H 0.53751 0.40837 0.72466 0.0
C829 C 0.50682 0.4197 0.93568 0.0
C830 C 0.12755 0.49443 0.02967 0.0
C831 C 0.1507 0.51212 0.99933 0.0
H832 H 0.08356 0.48052 0.01165 0.0
C833 C 0.1462 0.52867 0.91814 0.0
H834 H 0.13001 0.48105 0.09087 0.0
C835 C 0.11901 0.52836 0.87164 0.0
C836 C 0.09557 0.51144 0.90497 0.0
H837 H 0.16325 0.5428 0.89269 0.0
H838 H 0.11611 0.54201 0.81127 0.0
C839 C 0.10066 0.49415 0.98383 0.0
C840 C 1.00211 0.88039 0.5988 0.0
C841 C 0.01551 0.8795 0.5107 0.0
H842 H 0.99269 0.90576 0.72127 0.0
C843 C 0.03184 0.9042 0.48424 0.0
H844 H 0.98943 0.86205 0.62277 0.0
C845 C 0.03291 0.9293 0.53914 0.0
C846 C 0.01876 0.93069 0.62499 0.0
H847 H 0.04358 0.90453 0.41936 0.0
H848 H 0.04473 0.94793 0.51346 0.0
C849 C 1.00395 0.90554 0.65551 0.0
C850 C 0.63087 0.9937 0.4786 0.0
C851 C 0.65477 1.01021 0.50932 0.0
H852 H 0.58632 0.9816 0.49669 0.0
C853 C 0.65103 0.02636 0.59155 0.0
H854 H 0.63271 0.98057 0.41684 0.0
C855 C 0.6239 0.02684 0.63865 0.0
C856 C 0.59973 0.01121 0.60475 0.0
H857 H 0.66868 0.03958 0.61744 0.0
H858 H 0.62161 0.04017 0.69982 0.0
C859 C 0.60401 0.99429 0.52487 0.0
C860 C 0.49899 0.65826 0.64079 0.0
C861 C 0.50657 0.66486 0.54841 0.0
H862 H 0.49657 0.62622 0.7488 0.0
C863 C 0.52068 0.64301 0.49708 0.0
H864 H 0.48794 0.67435 0.68266 0.0
C865 C 0.52548 0.61505 0.53517 0.0
C866 C 0.51638 0.60805 0.62592 0.0
H867 H 0.52635 0.64693 0.42546 0.0
H868 H 0.53533 0.59856 0.49198 0.0
C869 C 0.5038 0.63045 0.67878 0.0
C870 C 0.88492 0.51724 0.52211 0.0
C871 C 0.86247 0.50272 0.56971 0.0
H872 H 0.92934 0.5321 0.52385 0.0
C873 C 0.86781 0.49452 0.66227 0.0
H874 H 0.88195 0.52339 0.45045 0.0
C875 C 0.89504 0.49911 0.70405 0.0
C876 C 0.91807 0.51216 0.65503 0.0
H877 H 0.85122 0.48314 0.70129 0.0
H878 H 0.89831 0.49144 0.77409 0.0
C879 C 0.9123 0.52189 0.56411 0.0
loop_
_geom_bond_atom_site_label_1
_geom_bond_atom_site_label_2
_geom_bond_distance
_geom_bond_site_symmetry_2
_ccdc_geom_bond_type
C0 C1 1.391 . S
C0 C4 1.391 . S
C0 H42 0.948 . S
C1 C0 1.391 . S
C1 C2 1.391 . S
C2 C1 1.391 . S
C2 H58 0.947 . S
C2 C59 1.392 . S
C3 C4 1.391 . S
C3 C7 1.397 . S
C3 C59 1.419 . S
C4 C0 1.391 . S
C4 C3 1.391 . S
C4 C5 1.399 . S
C5 C4 1.399 . S
C5 C8 1.396 . S
C5 C17 1.453 . S
C5 C18 1.684 . S
H6 C30 0.948 . S
C7 C3 1.397 . S
C7 C8 1.394 . S
C7 C26 1.723 . S
C8 C5 1.396 . S
C8 C7 1.394 . S
C8 C38 1.723 . S
H9 C32 0.947 . S
H10 C33 0.948 . S
H11 C39 0.982 . S
H12 C40 0.979 . S
H13 C40 0.980 . S
H14 C40 0.983 . S
H15 C39 0.979 . S
H16 C39 0.977 . S
C17 C5 1.453 . S
C17 H46 0.982 . S
C17 H47 0.979 . S
C17 H48 0.977 . S
C18 C5 1.684 . S
C18 H43 0.979 . S
C18 H44 0.980 . S
C18 H45 0.983 . S
C19 C20 1.391 . S
C19 C24 1.391 . S
C19 H49 0.948 . S
C20 C19 1.391 . S
C20 C21 1.391 . S
C21 C20 1.391 . S
C21 C22 1.392 . S
C21 H50 0.947 . S
C22 C21 1.392 . S
C22 C23 1.419 . S
C22 H51 0.948 . S
C23 C22 1.419 . S
C23 C24 1.391 . S
C23 C27 1.397 . S
C24 C19 1.391 . S
C24 C23 1.391 . S
C24 C25 1.399 . S
C25 C24 1.399 . S
C25 C26 1.396 . S
C25 C28 1.453 . S
C25 C29 1.684 . S
C26 C7 1.723 . S
C26 C25 1.396 . S
C26 C27 1.394 . S
C27 C23 1.397 . S
C27 C26 1.394 . S
C27 C37 1.723 . S
C28 C25 1.453 . S
C28 H52 0.982 . S
C28 H53 0.979 . S
C28 H54 0.977 . S
C29 C25 1.684 . S
C29 H55 0.979 . S
C29 H56 0.980 . S
C29 H57 0.983 . S
C30 H6 0.948 . S
C30 C31 1.391 . S
C30 C35 1.391 . S
C31 C30 1.391 . S
C31 C32 1.391 . S
C32 H9 0.947 . S
C32 C31 1.391 . S
C32 C33 1.392 . S
C33 H10 0.948 . S
C33 C32 1.392 . S
C33 C34 1.419 . S
C34 C33 1.419 . S
C34 C35 1.391 . S
C34 C38 1.397 . S
C35 C30 1.391 . S
C35 C34 1.391 . S
C35 C36 1.399 . S
C36 C35 1.399 . S
C36 C37 1.396 . S
C36 C39 1.453 . S
C36 C40 1.684 . S
C37 C27 1.723 . S
C37 C36 1.396 . S
C37 C38 1.394 . S
C38 C8 1.723 . S
C38 C34 1.397 . S
C38 C37 1.394 . S
C39 H11 0.982 . S
C39 H15 0.979 . S
C39 H16 0.977 . S
C39 C36 1.453 . S
C40 H12 0.979 . S
C40 H13 0.980 . S
C40 H14 0.983 . S
C40 C36 1.684 . S
H41 C59 0.948 . S
H42 C0 0.948 . S
H43 C18 0.979 . S
H44 C18 0.980 . S
H45 C18 0.983 . S
H46 C17 0.982 . S
H47 C17 0.979 . S
H48 C17 0.977 . S
H49 C19 0.948 . S
H50 C21 0.947 . S
H51 C22 0.948 . S
H52 C28 0.982 . S
H53 C28 0.979 . S
H54 C28 0.977 . S
H55 C29 0.979 . S
H56 C29 0.980 . S
H57 C29 0.983 . S
H58 C2 0.947 . S
C59 C2 1.392 . S
C59 C3 1.419 . S
C59 H41 0.948 . S
C60 C61 1.391 . S
C60 C64 1.391 . S
C60 H102 0.948 . S
C61 C60 1.391 . S
C61 C62 1.391 . S
C62 C61 1.391 . S
C62 H118 0.947 . S
C62 C119 1.392 . S
C63 C64 1.391 . S
C63 C67 1.397 1_655 S
C63 C119 1.419 . S
C64 C60 1.391 . S
C64 C63 1.391 . S
C64 C65 1.399 . S
C65 C64 1.399 . S
C65 C68 1.396 1_655 S
C65 C77 1.453 1_655 S
C65 C78 1.684 . S
H66 C90 0.948 . S
C67 C63 1.397 1_455 S
C67 C68 1.394 . S
C67 C86 1.723 . S
C68 C65 1.396 1_455 S
C68 C67 1.394 . S
C68 C98 1.723 . S
H69 C92 0.947 . S
H70 C93 0.948 . S
H71 C99 0.982 . S
H72 C100 0.979 . S
H73 C100 0.980 . S
H74 C100 0.983 . S
H75 C99 0.979 . S
H76 C99 0.977 . S
C77 C65 1.453 1_455 S
C77 H106 0.982 . S
C77 H107 0.979 . S
C77 H108 0.977 . S
C78 C65 1.684 . S
C78 H103 0.979 . S
C78 H104 0.980 . S
C78 H105 0.983 . S
C79 C80 1.391 . S
C79 C84 1.391 . S
C79 H109 0.948 . S
C80 C79 1.391 . S
C80 C81 1.391 . S
C81 C80 1.391 . S
C81 C82 1.392 . S
C81 H110 0.947 . S
C82 C81 1.392 . S
C82 C83 1.419 . S
C82 H111 0.948 . S
C83 C82 1.419 . S
C83 C84 1.391 . S
C83 C87 1.397 1_655 S
C84 C79 1.391 . S
C84 C83 1.391 . S
C84 C85 1.399 . S
C85 C84 1.399 . S
C85 C86 1.396 1_655 S
C85 C88 1.453 1_655 S
C85 C89 1.684 . S
C86 C67 1.723 . S
C86 C85 1.396 1_455 S
C86 C87 1.394 . S
C87 C83 1.397 1_455 S
C87 C86 1.394 . S
C87 C97 1.723 . S
C88 C85 1.453 1_455 S
C88 H112 0.982 . S
C88 H113 0.979 . S
C88 H114 0.977 . S
C89 C85 1.684 . S
C89 H115 0.979 . S
C89 H116 0.980 . S
C89 H117 0.983 . S
C90 H66 0.948 . S
C90 C91 1.391 . S
C90 C95 1.391 . S
C91 C90 1.391 . S
C91 C92 1.391 . S
C92 H69 0.947 . S
C92 C91 1.391 . S
C92 C93 1.392 . S
C93 H70 0.948 . S
C93 C92 1.392 . S
C93 C94 1.419 . S
C94 C93 1.419 . S
C94 C95 1.391 . S
C94 C98 1.397 1_655 S
C95 C90 1.391 . S
C95 C94 1.391 . S
C95 C96 1.399 . S
C96 C95 1.399 . S
C96 C97 1.396 1_655 S
C96 C99 1.453 1_655 S
C96 C100 1.684 . S
C97 C87 1.723 . S
C97 C96 1.396 1_455 S
C97 C98 1.394 . S
C98 C68 1.723 . S
C98 C94 1.397 1_455 S
C98 C97 1.394 . S
C99 H71 0.982 . S
C99 H75 0.979 . S
C99 H76 0.977 . S
C99 C96 1.453 1_455 S
C100 H72 0.979 . S
C100 H73 0.980 . S
C100 H74 0.983 . S
C100 C96 1.684 . S
H101 C119 0.948 . S
H102 C60 0.948 . S
H103 C78 0.979 . S
H104 C78 0.980 . S
H105 C78 0.983 . S
H106 C77 0.982 . S
H107 C77 0.979 . S
H108 C77 0.977 . S
H109 C79 0.948 . S
H110 C81 0.947 . S
H111 C82 0.948 . S
H112 C88 0.982 . S
H113 C88 0.979 . S
H114 C88 0.977 . S
H115 C89 0.979 . S
H116 C89 0.980 . S
H117 C89 0.983 . S
H118 C62 0.947 . S
C119 C62 1.392 . S
C119 C63 1.419 . S
C119 H101 0.948 . S
C120 C121 1.391 . S
C120 C124 1.391 . S
C120 H162 0.948 . S
C121 C120 1.391 . S
C121 C122 1.391 . S
C122 C121 1.391 . S
C122 H178 0.947 . S
C122 C179 1.392 . S
C123 C124 1.391 . S
C123 C127 1.397 1_565 S
C123 C179 1.419 . S
C124 C120 1.391 . S
C124 C123 1.391 . S
C124 C125 1.399 . S
C125 C124 1.399 . S
C125 C128 1.396 1_565 S
C125 C137 1.453 1_565 S
C125 C138 1.684 . S
H126 C150 0.948 . S
C127 C123 1.397 1_545 S
C127 C128 1.394 . S
C127 C146 1.723 . S
C128 C125 1.396 1_545 S
C128 C127 1.394 . S
C128 C158 1.723 . S
H129 C152 0.947 . S
H130 C153 0.948 . S
H131 C159 0.982 . S
H132 C160 0.979 . S
H133 C160 0.980 . S
H134 C160 0.983 . S
H135 C159 0.979 . S
H136 C159 0.977 . S
C137 C125 1.453 1_545 S
C137 H166 0.982 . S
C137 H167 0.979 . S
C137 H168 0.977 . S
C138 C125 1.684 . S
C138 H163 0.979 . S
C138 H164 0.980 . S
C138 H165 0.983 . S
C139 C140 1.391 . S
C139 C144 1.391 . S
C139 H169 0.948 . S
C140 C139 1.391 . S
C140 C141 1.391 . S
C141 C140 1.391 . S
C141 C142 1.392 . S
C141 H170 0.947 . S
C142 C141 1.392 . S
C142 C143 1.419 . S
C142 H171 0.948 . S
C143 C142 1.419 . S
C143 C144 1.391 . S
C143 C147 1.397 1_565 S
C144 C139 1.391 . S
C144 C143 1.391 . S
C144 C145 1.399 . S
C145 C144 1.399 . S
C145 C146 1.396 1_565 S
C145 C148 1.453 1_565 S
C145 C149 1.684 . S
C146 C127 1.723 . S
C146 C145 1.396 1_545 S
C146 C147 1.394 . S
C147 C143 1.397 1_545 S
C147 C146 1.394 . S
C147 C157 1.723 . S
C148 C145 1.453 1_545 S
C148 H172 0.982 . S
C148 H173 0.979 . S
C148 H174 0.977 . S
C149 C145 1.684 . S
C149 H175 0.979 . S
C149 H176 0.980 . S
C149 H177 0.983 . S
C150 H126 0.948 . S
C150 C151 1.391 . S
C150 C155 1.391 . S
C151 C150 1.391 . S
C151 C152 1.391 . S
C152 H129 0.947 . S
C152 C151 1.391 . S
C152 C153 1.392 . S
C153 H130 0.948 . S
C153 C152 1.392 . S
C153 C154 1.419 . S
C154 C153 1.419 . S
C154 C155 1.391 . S
C154 C158 1.397 1_565 S
C155 C150 1.391 . S
C155 C154 1.391 . S
C155 C156 1.399 . S
C156 C155 1.399 . S
C156 C157 1.396 1_565 S
C156 C159 1.453 1_565 S
C156 C160 1.684 . S
C157 C147 1.723 . S
C157 C156 1.396 1_545 S
C157 C158 1.394 . S
C158 C128 1.723 . S
C158 C154 1.397 1_545 S
C158 C157 1.394 . S
C159 H131 0.982 . S
C159 H135 0.979 . S
C159 H136 0.977 . S
C159 C156 1.453 1_545 S
C160 H132 0.979 . S
C160 H133 0.980 . S
C160 H134 0.983 . S
C160 C156 1.684 . S
H161 C179 0.948 . S
H162 C120 0.948 . S
H163 C138 0.979 . S
H164 C138 0.980 . S
H165 C138 0.983 . S
H166 C137 0.982 . S
H167 C137 0.979 . S
H168 C137 0.977 . S
H169 C139 0.948 . S
H170 C141 0.947 . S
H171 C142 0.948 . S
H172 C148 0.982 . S
H173 C148 0.979 . S
H174 C148 0.977 . S
H175 C149 0.979 . S
H176 C149 0.980 . S
H177 C149 0.983 . S
H178 C122 0.947 . S
C179 C122 1.392 . S
C179 C123 1.419 . S
C179 H161 0.948 . S
C180 C181 1.391 . S
C180 C184 1.391 . S
C180 H222 0.948 . S
C181 C180 1.391 . S
C181 C182 1.391 . S
C182 C181 1.391 . S
C182 H238 0.947 . S
C182 C239 1.392 . S
C183 C184 1.391 . S
C183 C187 1.397 . S
C183 C239 1.419 . S
C184 C180 1.391 . S
C184 C183 1.391 . S
C184 C185 1.399 . S
C185 C184 1.399 . S
C185 C188 1.396 . S
C185 C197 1.453 . S
C185 C198 1.684 . S
H186 C210 0.948 . S
C187 C183 1.397 . S
C187 C188 1.394 . S
C187 C206 1.723 . S
C188 C185 1.396 . S
C188 C187 1.394 . S
C188 C218 1.723 . S
H189 C212 0.947 . S
H190 C213 0.948 . S
H191 C219 0.982 . S
H192 C220 0.979 . S
H193 C220 0.980 . S
H194 C220 0.983 . S
H195 C219 0.979 . S
H196 C219 0.977 . S
C197 C185 1.453 . S
C197 H226 0.982 . S
C197 H227 0.979 . S
C197 H228 0.977 . S
C198 C185 1.684 . S
C198 H223 0.979 . S
C198 H224 0.980 . S
C198 H225 0.983 . S
C199 C200 1.391 . S
C199 C204 1.391 . S
C199 H229 0.948 . S
C200 C199 1.391 . S
C200 C201 1.391 . S
C201 C200 1.391 . S
C201 C202 1.392 . S
C201 H230 0.947 . S
C202 C201 1.392 . S
C202 C203 1.419 . S
C202 H231 0.948 . S
C203 C202 1.419 . S
C203 C204 1.391 . S
C203 C207 1.397 . S
C204 C199 1.391 . S
C204 C203 1.391 . S
C204 C205 1.399 . S
C205 C204 1.399 . S
C205 C206 1.396 . S
C205 C208 1.453 . S
C205 C209 1.684 . S
C206 C187 1.723 . S
C206 C205 1.396 . S
C206 C207 1.394 . S
C207 C203 1.397 . S
C207 C206 1.394 . S
C207 C217 1.723 . S
C208 C205 1.453 . S
C208 H232 0.982 . S
C208 H233 0.979 . S
C208 H234 0.977 . S
C209 C205 1.684 . S
C209 H235 0.979 . S
C209 H236 0.980 . S
C209 H237 0.983 . S
C210 H186 0.948 . S
C210 C211 1.391 . S
C210 C215 1.391 . S
C211 C210 1.391 . S
C211 C212 1.391 . S
C212 H189 0.947 . S
C212 C211 1.391 . S
C212 C213 1.392 . S
C213 H190 0.948 . S
C213 C212 1.392 . S
C213 C214 1.419 . S
C214 C213 1.419 . S
C214 C215 1.391 . S
C214 C218 1.397 . S
C215 C210 1.391 . S
C215 C214 1.391 . S
C215 C216 1.399 . S
C216 C215 1.399 . S
C216 C217 1.396 . S
C216 C219 1.453 . S
C216 C220 1.684 . S
C217 C207 1.723 . S
C217 C216 1.396 . S
C217 C218 1.394 . S
C218 C188 1.723 . S
C218 C214 1.397 . S
C218 C217 1.394 . S
C219 H191 0.982 . S
C219 H195 0.979 . S
C219 H196 0.977 . S
C219 C216 1.453 . S
C220 H192 0.979 . S
C220 H193 0.980 . S
C220 H194 0.983 . S
C220 C216 1.684 . S
H221 C239 0.948 . S
H222 C180 0.948 . S
H223 C198 0.979 . S
H224 C198 0.980 . S
H225 C198 0.983 . S
H226 C197 0.982 . S
H227 C197 0.979 . S
H228 C197 0.977 . S
H229 C199 0.948 . S
H230 C201 0.947 . S
H231 C202 0.948 . S
H232 C208 0.982 . S
H233 C208 0.979 . S
H234 C208 0.977 . S
H235 C209 0.979 . S
H236 C209 0.980 . S
H237 C209 0.983 . S
H238 C182 0.947 . S
C239 C182 1.392 . S
C239 C183 1.419 . S
C239 H221 0.948 . S
C240 C241 1.391 . S
C240 C244 1.391 . S
C240 H282 0.948 . S
C241 C240 1.391 . S
C241 C242 1.391 . S
C242 C241 1.391 . S
C242 H298 0.947 . S
C242 C299 1.392 . S
C243 C244 1.391 . S
C243 C247 1.397 . S
C243 C299 1.419 . S
C244 C240 1.391 . S
C244 C243 1.391 . S
C244 C245 1.399 1_554 S
C245 C244 1.399 1_556 S
C245 C248 1.396 . S
C245 C257 1.453 . S
C245 C258 1.684 . S
H246 C270 0.948 . S
C247 C243 1.397 . S
C247 C248 1.394 1_554 S
C247 C266 1.723 . S
C248 C245 1.396 . S
C248 C247 1.394 1_556 S
C248 C278 1.723 . S
H249 C272 0.947 . S
H250 C273 0.948 . S
H251 C279 0.982 . S
H252 C280 0.979 . S
H253 C280 0.980 1_554 S
H254 C280 0.983 . S
H255 C279 0.979 . S
H256 C279 0.977 1_554 S
C257 C245 1.453 . S
C257 H286 0.982 . S
C257 H287 0.979 . S
C257 H288 0.977 . S
C258 C245 1.684 . S
C258 H283 0.979 . S
C258 H284 0.980 . S
C258 H285 0.983 . S
C259 C260 1.391 . S
C259 C264 1.391 . S
C259 H289 0.948 . S
C260 C259 1.391 . S
C260 C261 1.391 . S
C261 C260 1.391 . S
C261 C262 1.392 . S
C261 H290 0.947 . S
C262 C261 1.392 . S
C262 C263 1.419 . S
C262 H291 0.948 . S
C263 C262 1.419 . S
C263 C264 1.391 . S
C263 C267 1.397 . S
C264 C259 1.391 . S
C264 C263 1.391 . S
C264 C265 1.399 . S
C265 C264 1.399 . S
C265 C266 1.396 . S
C265 C268 1.453 . S
C265 C269 1.684 . S
C266 C247 1.723 . S
C266 C265 1.396 . S
C266 C267 1.394 . S
C267 C263 1.397 . S
C267 C266 1.394 . S
C267 C277 1.723 1_554 S
C268 C265 1.453 . S
C268 H292 0.982 . S
C268 H293 0.979 . S
C268 H294 0.977 . S
C269 C265 1.684 . S
C269 H295 0.979 . S
C269 H296 0.980 . S
C269 H297 0.983 . S
C270 H246 0.948 . S
C270 C271 1.391 . S
C270 C275 1.391 . S
C271 C270 1.391 . S
C271 C272 1.391 . S
C272 H249 0.947 . S
C272 C271 1.391 . S
C272 C273 1.392 . S
C273 H250 0.948 . S
C273 C272 1.392 . S
C273 C274 1.419 . S
C274 C273 1.419 . S
C274 C275 1.391 . S
C274 C278 1.397 . S
C275 C270 1.391 . S
C275 C274 1.391 . S
C275 C276 1.399 . S
C276 C275 1.399 . S
C276 C277 1.396 . S
C276 C279 1.453 . S
C276 C280 1.684 . S
C277 C267 1.723 1_556 S
C277 C276 1.396 . S
C277 C278 1.394 . S
C278 C248 1.723 . S
C278 C274 1.397 . S
C278 C277 1.394 . S
C279 H251 0.982 . S
C279 H255 0.979 . S
C279 H256 0.977 1_556 S
C279 C276 1.453 . S
C280 H252 0.979 . S
C280 H253 0.980 1_556 S
C280 H254 0.983 . S
C280 C276 1.684 . S
H281 C299 0.948 . S
H282 C240 0.948 . S
H283 C258 0.979 . S
H284 C258 0.980 . S
H285 C258 0.983 . S
H286 C257 0.982 . S
H287 C257 0.979 . S
H288 C257 0.977 . S
H289 C259 0.948 . S
H290 C261 0.947 . S
H291 C262 0.948 . S
H292 C268 0.982 . S
H293 C268 0.979 . S
H294 C268 0.977 . S
H295 C269 0.979 . S
H296 C269 0.980 . S
H297 C269 0.983 . S
H298 C242 0.947 . S
C299 C242 1.392 . S
C299 C243 1.419 . S
C299 H281 0.948 . S
C300 C301 1.391 . S
C300 C304 1.391 . S
C300 H342 0.948 . S
C301 C300 1.391 . S
C301 C302 1.391 . S
C302 C301 1.391 . S
C302 H358 0.947 . S
C302 C359 1.392 . S
C303 C304 1.391 . S
C303 C307 1.396 1_655 S
C303 C359 1.419 . S
C304 C300 1.391 . S
C304 C303 1.391 . S
C304 C305 1.399 . S
C305 C304 1.399 . S
C305 C308 1.396 1_655 S
C305 C317 1.453 1_655 S
C305 C318 1.684 . S
H306 C330 0.948 . S
C307 C303 1.396 1_455 S
C307 C308 1.395 . S
C307 C326 1.723 1_554 S
C308 C305 1.396 1_455 S
C308 C307 1.395 . S
C308 C338 1.723 . S
H309 C332 0.947 . S
H310 C333 0.948 . S
H311 C339 0.982 . S
H312 C340 0.979 . S
H313 C340 0.980 . S
H314 C340 0.983 . S
H315 C339 0.979 . S
H316 C339 0.977 . S
C317 C305 1.453 1_455 S
C317 H346 0.982 . S
C317 H347 0.979 . S
C317 H348 0.977 . S
C318 C305 1.684 . S
C318 H343 0.979 . S
C318 H344 0.980 . S
C318 H345 0.983 . S
C319 C320 1.391 . S
C319 C324 1.391 . S
C319 H349 0.948 . S
C320 C319 1.391 . S
C320 C321 1.391 . S
C321 C320 1.391 . S
C321 C322 1.392 . S
C321 H350 0.947 . S
C322 C321 1.392 . S
C322 C323 1.419 . S
C322 H351 0.948 . S
C323 C322 1.419 . S
C323 C324 1.391 . S
C323 C327 1.396 1_655 S
C324 C319 1.391 . S
C324 C323 1.391 . S
C324 C325 1.399 . S
C325 C324 1.399 . S
C325 C326 1.396 1_655 S
C325 C328 1.453 1_655 S
C325 C329 1.684 . S
C326 C307 1.723 1_556 S
C326 C325 1.396 1_455 S
C326 C327 1.395 . S
C327 C323 1.396 1_455 S
C327 C326 1.395 . S
C327 C337 1.723 . S
C328 C325 1.453 1_455 S
C328 H352 0.982 . S
C328 H353 0.979 . S
C328 H354 0.977 1_556 S
C329 C325 1.684 . S
C329 H355 0.979 . S
C329 H356 0.980 1_556 S
C329 H357 0.983 . S
C330 H306 0.948 . S
C330 C331 1.391 . S
C330 C335 1.391 . S
C331 C330 1.391 . S
C331 C332 1.391 . S
C332 H309 0.947 . S
C332 C331 1.391 . S
C332 C333 1.392 . S
C333 H310 0.948 . S
C333 C332 1.392 . S
C333 C334 1.419 . S
C334 C333 1.419 . S
C334 C335 1.391 . S
C334 C338 1.396 1_655 S
C335 C330 1.391 . S
C335 C334 1.391 . S
C335 C336 1.399 1_554 S
C336 C335 1.399 1_556 S
C336 C337 1.396 1_655 S
C336 C339 1.453 1_655 S
C336 C340 1.684 . S
C337 C327 1.723 . S
C337 C336 1.396 1_455 S
C337 C338 1.395 1_556 S
C338 C308 1.723 . S
C338 C334 1.396 1_455 S
C338 C337 1.395 1_554 S
C339 H311 0.982 . S
C339 H315 0.979 . S
C339 H316 0.977 . S
C339 C336 1.453 1_455 S
C340 H312 0.979 . S
C340 H313 0.980 . S
C340 H314 0.983 . S
C340 C336 1.684 . S
H341 C359 0.948 . S
H342 C300 0.948 . S
H343 C318 0.979 . S
H344 C318 0.980 . S
H345 C318 0.983 . S
H346 C317 0.982 . S
H347 C317 0.979 . S
H348 C317 0.977 . S
H349 C319 0.948 . S
H350 C321 0.947 . S
H351 C322 0.948 . S
H352 C328 0.982 . S
H353 C328 0.979 . S
H354 C328 0.977 1_554 S
H355 C329 0.979 . S
H356 C329 0.980 1_554 S
H357 C329 0.983 . S
H358 C302 0.947 . S
C359 C302 1.392 . S
C359 C303 1.419 . S
C359 H341 0.948 . S
C360 C361 1.391 . S
C360 C364 1.391 . S
C360 H402 0.948 . S
C361 C360 1.391 . S
C361 C362 1.391 . S
C362 C361 1.391 . S
C362 H418 0.947 . S
C362 C419 1.392 . S
C363 C364 1.391 . S
C363 C367 1.397 1_545 S
C363 C419 1.419 . S
C364 C360 1.391 . S
C364 C363 1.391 . S
C364 C365 1.399 . S
C365 C364 1.399 . S
C365 C368 1.396 1_545 S
C365 C377 1.453 1_545 S
C365 C378 1.684 . S
H366 C390 0.948 . S
C367 C363 1.397 1_565 S
C367 C368 1.394 . S
C367 C386 1.723 1_556 S
C368 C365 1.396 1_565 S
C368 C367 1.394 . S
C368 C398 1.723 1_556 S
H369 C392 0.947 1_556 S
H370 C393 0.948 . S
H371 C399 0.982 . S
H372 C400 0.979 . S
H373 C400 0.980 . S
H374 C400 0.983 . S
H375 C399 0.979 . S
H376 C399 0.977 . S
C377 C365 1.453 1_565 S
C377 H406 0.982 . S
C377 H407 0.979 . S
C377 H408 0.977 . S
C378 C365 1.684 . S
C378 H403 0.979 . S
C378 H404 0.980 . S
C378 H405 0.983 . S
C379 C380 1.391 . S
C379 C384 1.391 . S
C379 H409 0.948 . S
C380 C379 1.391 . S
C380 C381 1.391 . S
C381 C380 1.391 . S
C381 C382 1.392 . S
C381 H410 0.947 . S
C382 C381 1.392 . S
C382 C383 1.419 . S
C382 H411 0.948 . S
C383 C382 1.419 . S
C383 C384 1.391 . S
C383 C387 1.397 1_545 S
C384 C379 1.391 . S
C384 C383 1.391 . S
C384 C385 1.399 . S
C385 C384 1.399 . S
C385 C386 1.396 1_545 S
C385 C388 1.453 1_545 S
C385 C389 1.684 . S
C386 C367 1.723 1_554 S
C386 C385 1.396 1_565 S
C386 C387 1.394 . S
C387 C383 1.397 1_565 S
C387 C386 1.394 . S
C387 C397 1.723 . S
C388 C385 1.453 1_565 S
C388 H412 0.982 . S
C388 H413 0.979 . S
C388 H414 0.977 1_554 S
C389 C385 1.684 . S
C389 H415 0.979 . S
C389 H416 0.980 1_554 S
C389 H417 0.983 . S
C390 H366 0.948 . S
C390 C391 1.391 . S
C390 C395 1.391 . S
C391 C390 1.391 . S
C391 C392 1.391 . S
C392 H369 0.947 1_554 S
C392 C391 1.391 . S
C392 C393 1.392 1_554 S
C393 H370 0.948 . S
C393 C392 1.392 1_556 S
C393 C394 1.419 1_556 S
C394 C393 1.419 1_554 S
C394 C395 1.391 . S
C394 C398 1.397 1_545 S
C395 C390 1.391 . S
C395 C394 1.391 . S
C395 C396 1.399 . S
C396 C395 1.399 . S
C396 C397 1.396 1_545 S
C396 C399 1.453 1_545 S
C396 C400 1.684 . S
C397 C387 1.723 . S
C397 C396 1.396 1_565 S
C397 C398 1.394 . S
C398 C368 1.723 1_554 S
C398 C394 1.397 1_565 S
C398 C397 1.394 . S
C399 H371 0.982 . S
C399 H375 0.979 . S
C399 H376 0.977 . S
C399 C396 1.453 1_565 S
C400 H372 0.979 . S
C400 H373 0.980 . S
C400 H374 0.983 . S
C400 C396 1.684 . S
H401 C419 0.948 . S
H402 C360 0.948 . S
H403 C378 0.979 . S
H404 C378 0.980 . S
H405 C378 0.983 . S
H406 C377 0.982 . S
H407 C377 0.979 . S
H408 C377 0.977 . S
H409 C379 0.948 . S
H410 C381 0.947 . S
H411 C382 0.948 . S
H412 C388 0.982 . S
H413 C388 0.979 . S
H414 C388 0.977 1_556 S
H415 C389 0.979 . S
H416 C389 0.980 1_556 S
H417 C389 0.983 . S
H418 C362 0.947 . S
C419 C362 1.392 . S
C419 C363 1.419 . S
C419 H401 0.948 . S
C420 C421 1.391 . S
C420 C424 1.391 . S
C420 H462 0.948 . S
C421 C420 1.391 . S
C421 C422 1.391 . S
C422 C421 1.391 . S
C422 H478 0.947 . S
C422 C479 1.392 . S
C423 C424 1.391 . S
C423 C427 1.397 . S
C423 C479 1.419 . S
C424 C420 1.391 . S
C424 C423 1.391 . S
C424 C425 1.399 . S
C425 C424 1.399 . S
C425 C428 1.396 . S
C425 C437 1.453 . S
C425 C438 1.684 . S
H426 C450 0.948 . S
C427 C423 1.397 . S
C427 C428 1.394 . S
C427 C446 1.723 1_556 S
C428 C425 1.396 . S
C428 C427 1.394 . S
C428 C458 1.723 1_556 S
H429 C452 0.947 1_556 S
H430 C453 0.948 . S
H431 C459 0.982 . S
H432 C460 0.979 . S
H433 C460 0.980 . S
H434 C460 0.983 . S
H435 C459 0.979 . S
H436 C459 0.977 . S
C437 C425 1.453 . S
C437 H466 0.982 . S
C437 H467 0.979 . S
C437 H468 0.977 . S
C438 C425 1.684 . S
C438 H463 0.979 . S
C438 H464 0.980 . S
C438 H465 0.983 . S
C439 C440 1.391 . S
C439 C444 1.391 . S
C439 H469 0.948 . S
C440 C439 1.391 . S
C440 C441 1.391 . S
C441 C440 1.391 . S
C441 C442 1.392 . S
C441 H470 0.947 . S
C442 C441 1.392 . S
C442 C443 1.419 . S
C442 H471 0.948 . S
C443 C442 1.419 . S
C443 C444 1.391 . S
C443 C447 1.397 . S
C444 C439 1.391 . S
C444 C443 1.391 . S
C444 C445 1.399 . S
C445 C444 1.399 . S
C445 C446 1.396 . S
C445 C448 1.453 . S
C445 C449 1.684 . S
C446 C427 1.723 1_554 S
C446 C445 1.396 . S
C446 C447 1.394 . S
C447 C443 1.397 . S
C447 C446 1.394 . S
C447 C457 1.723 . S
C448 C445 1.453 . S
C448 H472 0.982 . S
C448 H473 0.979 . S
C448 H474 0.977 1_554 S
C449 C445 1.684 . S
C449 H475 0.979 . S
C449 H476 0.980 1_554 S
C449 H477 0.983 . S
C450 H426 0.948 . S
C450 C451 1.391 . S
C450 C455 1.391 . S
C451 C450 1.391 . S
C451 C452 1.391 . S
C452 H429 0.947 1_554 S
C452 C451 1.391 . S
C452 C453 1.392 1_554 S
C453 H430 0.948 . S
C453 C452 1.392 1_556 S
C453 C454 1.419 1_556 S
C454 C453 1.419 1_554 S
C454 C455 1.391 . S
C454 C458 1.397 . S
C455 C450 1.391 . S
C455 C454 1.391 . S
C455 C456 1.399 . S
C456 C455 1.399 . S
C456 C457 1.396 . S
C456 C459 1.453 . S
C456 C460 1.684 . S
C457 C447 1.723 . S
C457 C456 1.396 . S
C457 C458 1.394 . S
C458 C428 1.723 1_554 S
C458 C454 1.397 . S
C458 C457 1.394 . S
C459 H431 0.982 . S
C459 H435 0.979 . S
C459 H436 0.977 . S
C459 C456 1.453 . S
C460 H432 0.979 . S
C460 H433 0.980 . S
C460 H434 0.983 . S
C460 C456 1.684 . S
H461 C479 0.948 . S
H462 C420 0.948 . S
H463 C438 0.979 . S
H464 C438 0.980 . S
H465 C438 0.983 . S
H466 C437 0.982 . S
H467 C437 0.979 . S
H468 C437 0.977 . S
H469 C439 0.948 . S
H470 C441 0.947 . S
H471 C442 0.948 . S
H472 C448 0.982 . S
H473 C448 0.979 . S
H474 C448 0.977 1_556 S
H475 C449 0.979 . S
H476 C449 0.980 1_556 S
H477 C449 0.983 . S
H478 C422 0.947 . S
C479 C422 1.392 . S
C479 C423 1.419 . S
C479 H461 0.948 . S
Sm480 C482 2.846 . S
Sm480 O500 2.543 . S
Sm480 O501 2.450 . S
Sm480 O502 2.681 1_565 S
Sm480 O503 2.464 . S
Sm480 O504 2.396 . S
Sm480 O508 2.386 1_455 S
Sm480 O511 2.408 1_565 S
Sm481 C491 2.846 . S
Sm481 O502 2.386 1_655 S
Sm481 O505 2.408 1_545 S
Sm481 O506 2.543 . S
Sm481 O507 2.450 . S
Sm481 O508 2.681 1_545 S
Sm481 O509 2.464 . S
Sm481 O510 2.396 . S
C482 Sm480 2.846 . S
C482 C483 1.506 . S
C482 O500 1.261 . S
C482 O501 1.242 . S
C483 C482 1.506 . S
C483 C484 1.358 1_556 S
C483 C488 1.382 . S
C484 C483 1.358 1_554 S
C484 C485 1.385 . S
C484 H512 0.930 1_455 S
C485 C484 1.385 . S
C485 C486 1.395 . S
C485 H513 0.929 . S
C486 C485 1.395 . S
C486 C487 1.335 . S
C487 C486 1.335 . S
C487 C488 1.398 1_554 S
C487 H514 0.930 . S
C488 C483 1.382 . S
C488 C487 1.398 1_556 S
C488 H515 0.929 . S
C489 O502 1.271 1_565 S
C489 O503 1.251 . S
C490 O504 1.252 1_655 S
C490 O505 1.272 . S
C491 Sm481 2.846 . S
C491 C492 1.506 . S
C491 O506 1.261 . S
C491 O507 1.242 . S
C492 C491 1.506 . S
C492 C493 1.358 . S
C492 C497 1.382 . S
C493 C492 1.358 . S
C493 C494 1.385 . S
C493 H516 0.930 1_655 S
C494 C493 1.385 . S
C494 C495 1.395 . S
C494 H517 0.929 . S
C495 C494 1.395 . S
C495 C496 1.335 . S
C496 C495 1.335 . S
C496 C497 1.398 . S
C496 H518 0.930 . S
C497 C492 1.382 . S
C497 C496 1.398 . S
C497 H519 0.929 . S
C498 O508 1.271 1_545 S
C498 O509 1.251 . S
C499 O510 1.252 1_455 S
C499 O511 1.272 . S
O500 Sm480 2.543 . S
O500 C482 1.261 . S
O501 Sm480 2.450 . S
O501 C482 1.242 . S
O502 Sm480 2.681 1_545 S
O502 Sm481 2.386 1_455 S
O502 C489 1.271 1_545 S
O503 Sm480 2.464 . S
O503 C489 1.251 . S
O504 Sm480 2.396 . S
O504 C490 1.252 1_455 S
O505 Sm481 2.408 1_565 S
O505 C490 1.272 . S
O506 Sm481 2.543 . S
O506 C491 1.261 . S
O507 Sm481 2.450 . S
O507 C491 1.242 . S
O508 Sm480 2.386 1_655 S
O508 Sm481 2.681 1_565 S
O508 C498 1.271 1_565 S
O509 Sm481 2.464 . S
O509 C498 1.251 . S
O510 Sm481 2.396 . S
O510 C499 1.252 1_655 S
O511 Sm480 2.408 1_545 S
O511 C499 1.272 . S
H512 C484 0.930 1_655 S
H513 C485 0.929 . S
H514 C487 0.930 . S
H515 C488 0.929 . S
H516 C493 0.930 1_455 S
H517 C494 0.929 . S
H518 C496 0.930 . S
H519 C497 0.929 . S
Sm520 C522 2.846 . S
Sm520 O540 2.543 . S
Sm520 O541 2.450 . S
Sm520 O542 2.681 . S
Sm520 O543 2.464 . S
Sm520 O544 2.396 . S
Sm520 O548 2.386 1_545 S
Sm520 O551 2.408 . S
Sm521 C531 2.846 . S
Sm521 O542 2.386 1_565 S
Sm521 O545 2.408 . S
Sm521 O546 2.543 . S
Sm521 O547 2.450 . S
Sm521 O548 2.681 . S
Sm521 O549 2.464 . S
Sm521 O550 2.396 . S
C522 Sm520 2.846 . S
C522 C523 1.506 . S
C522 O540 1.261 . S
C522 O541 1.242 . S
C523 C522 1.506 . S
C523 C524 1.358 1_556 S
C523 C528 1.382 . S
C524 C523 1.358 1_554 S
C524 C525 1.385 . S
C524 H552 0.930 1_545 S
C525 C524 1.385 . S
C525 C526 1.395 . S
C525 H553 0.929 . S
C526 C525 1.395 . S
C526 C527 1.335 . S
C527 C526 1.335 . S
C527 C528 1.398 1_554 S
C527 H554 0.930 . S
C528 C523 1.382 . S
C528 C527 1.398 1_556 S
C528 H555 0.929 . S
C529 O542 1.271 . S
C529 O543 1.251 . S
C530 O544 1.252 1_565 S
C530 O545 1.272 . S
C531 Sm521 2.846 . S
C531 C532 1.506 . S
C531 O546 1.261 . S
C531 O547 1.242 . S
C532 C531 1.506 . S
C532 C533 1.358 . S
C532 C537 1.382 . S
C533 C532 1.358 . S
C533 C534 1.385 . S
C533 H556 0.930 1_565 S
C534 C533 1.385 . S
C534 C535 1.395 . S
C534 H557 0.929 . S
C535 C534 1.395 . S
C535 C536 1.335 . S
C536 C535 1.335 . S
C536 C537 1.398 . S
C536 H558 0.930 . S
C537 C532 1.382 . S
C537 C536 1.398 . S
C537 H559 0.929 . S
C538 O548 1.271 . S
C538 O549 1.251 . S
C539 O550 1.252 1_545 S
C539 O551 1.272 . S
O540 Sm520 2.543 . S
O540 C522 1.261 . S
O541 Sm520 2.450 . S
O541 C522 1.242 . S
O542 Sm520 2.681 . S
O542 Sm521 2.386 1_545 S
O542 C529 1.271 . S
O543 Sm520 2.464 . S
O543 C529 1.251 . S
O544 Sm520 2.396 . S
O544 C530 1.252 1_545 S
O545 Sm521 2.408 . S
O545 C530 1.272 . S
O546 Sm521 2.543 . S
O546 C531 1.261 . S
O547 Sm521 2.450 . S
O547 C531 1.242 . S
O548 Sm520 2.386 1_565 S
O548 Sm521 2.681 . S
O548 C538 1.271 . S
O549 Sm521 2.464 . S
O549 C538 1.251 . S
O550 Sm521 2.396 . S
O550 C539 1.252 1_565 S
O551 Sm520 2.408 . S
O551 C539 1.272 . S
H552 C524 0.930 1_565 S
H553 C525 0.929 . S
H554 C527 0.930 . S
H555 C528 0.929 . S
H556 C533 0.930 1_545 S
H557 C534 0.929 . S
H558 C536 0.930 . S
H559 C537 0.929 . S
Sm560 C562 2.846 . S
Sm560 O580 2.543 . S
Sm560 O581 2.450 . S
Sm560 O582 2.681 . S
Sm560 O583 2.464 . S
Sm560 O584 2.396 . S
Sm560 O588 2.386 . S
Sm560 O591 2.408 . S
Sm561 C571 2.846 . S
Sm561 O582 2.386 . S
Sm561 O585 2.408 . S
Sm561 O586 2.543 . S
Sm561 O587 2.450 . S
Sm561 O588 2.681 . S
Sm561 O589 2.464 . S
Sm561 O590 2.396 . S
C562 Sm560 2.846 . S
C562 C563 1.506 . S
C562 O580 1.261 . S
C562 O581 1.242 . S
C563 C562 1.506 . S
C563 C564 1.358 1_556 S
C563 C568 1.382 . S
C564 C563 1.358 1_554 S
C564 C565 1.385 . S
C564 H592 0.930 . S
C565 C564 1.385 . S
C565 C566 1.395 . S
C565 H593 0.929 . S
C566 C565 1.395 . S
C566 C567 1.335 . S
C567 C566 1.335 . S
C567 C568 1.398 1_554 S
C567 H594 0.930 . S
C568 C563 1.382 . S
C568 C567 1.398 1_556 S
C568 H595 0.929 . S
C569 O582 1.271 . S
C569 O583 1.251 . S
C570 O584 1.252 . S
C570 O585 1.272 . S
C571 Sm561 2.846 . S
C571 C572 1.506 . S
C571 O586 1.261 . S
C571 O587 1.242 . S
C572 C571 1.506 . S
C572 C573 1.358 . S
C572 C577 1.382 . S
C573 C572 1.358 . S
C573 C574 1.385 . S
C573 H596 0.930 . S
C574 C573 1.385 . S
C574 C575 1.395 . S
C574 H597 0.929 . S
C575 C574 1.395 . S
C575 C576 1.335 . S
C576 C575 1.335 . S
C576 C577 1.398 . S
C576 H598 0.930 . S
C577 C572 1.382 . S
C577 C576 1.398 . S
C577 H599 0.929 . S
C578 O588 1.271 . S
C578 O589 1.251 . S
C579 O590 1.252 . S
C579 O591 1.272 . S
O580 Sm560 2.543 . S
O580 C562 1.261 . S
O581 Sm560 2.450 . S
O581 C562 1.242 . S
O582 Sm560 2.681 . S
O582 Sm561 2.386 . S
O582 C569 1.271 . S
O583 Sm560 2.464 . S
O583 C569 1.251 . S
O584 Sm560 2.396 . S
O584 C570 1.252 . S
O585 Sm561 2.408 . S
O585 C570 1.272 . S
O586 Sm561 2.543 . S
O586 C571 1.261 . S
O587 Sm561 2.450 . S
O587 C571 1.242 . S
O588 Sm560 2.386 . S
O588 Sm561 2.681 . S
O588 C578 1.271 . S
O589 Sm561 2.464 . S
O589 C578 1.251 . S
O590 Sm561 2.396 . S
O590 C579 1.252 . S
O591 Sm560 2.408 . S
O591 C579 1.272 . S
H592 C564 0.930 . S
H593 C565 0.929 . S
H594 C567 0.930 . S
H595 C568 0.929 . S
H596 C573 0.930 . S
H597 C574 0.929 . S
H598 C576 0.930 . S
H599 C577 0.929 . S
Sm600 C602 2.846 . S
Sm600 O620 2.543 . S
Sm600 O621 2.450 . S
Sm600 O622 2.681 1_655 S
Sm600 O623 2.464 . S
Sm600 O624 2.396 . S
Sm600 O628 2.386 . S
Sm600 O631 2.408 1_655 S
Sm601 C611 2.846 . S
Sm601 O622 2.386 . S
Sm601 O625 2.408 1_455 S
Sm601 O626 2.543 . S
Sm601 O627 2.450 . S
Sm601 O628 2.681 1_455 S
Sm601 O629 2.464 . S
Sm601 O630 2.396 . S
C602 Sm600 2.846 . S
C602 C603 1.506 . S
C602 O620 1.261 . S
C602 O621 1.242 . S
C603 C602 1.506 . S
C603 C604 1.358 1_556 S
C603 C608 1.382 . S
C604 C603 1.358 1_554 S
C604 C605 1.385 . S
C604 H632 0.930 . S
C605 C604 1.385 . S
C605 C606 1.395 . S
C605 H633 0.929 . S
C606 C605 1.395 . S
C606 C607 1.335 . S
C607 C606 1.335 . S
C607 C608 1.398 1_554 S
C607 H634 0.930 . S
C608 C603 1.382 . S
C608 C607 1.398 1_556 S
C608 H635 0.929 . S
C609 O622 1.267 1_655 S
C609 O623 1.259 . S
C610 O624 1.252 . S
C610 O625 1.272 . S
C611 Sm601 2.846 . S
C611 C612 1.506 . S
C611 O626 1.261 . S
C611 O627 1.242 . S
C612 C611 1.506 . S
C612 C613 1.358 . S
C612 C617 1.382 . S
C613 C612 1.358 . S
C613 C614 1.385 . S
C613 H636 0.930 . S
C614 C613 1.385 . S
C614 C615 1.395 . S
C614 H637 0.929 . S
C615 C614 1.395 . S
C615 C616 1.335 . S
C616 C615 1.335 . S
C616 C617 1.398 . S
C616 H638 0.930 . S
C617 C612 1.382 . S
C617 C616 1.398 . S
C617 H639 0.929 . S
C618 O628 1.264 1_455 S
C618 O629 1.263 . S
C619 O630 1.252 . S
C619 O631 1.272 . S
O620 Sm600 2.543 . S
O620 C602 1.261 . S
O621 Sm600 2.450 . S
O621 C602 1.242 . S
O622 Sm600 2.681 1_455 S
O622 Sm601 2.386 . S
O622 C609 1.267 1_455 S
O623 Sm600 2.464 . S
O623 C609 1.259 . S
O624 Sm600 2.396 . S
O624 C610 1.252 . S
O625 Sm601 2.408 1_655 S
O625 C610 1.272 . S
O626 Sm601 2.543 . S
O626 C611 1.261 . S
O627 Sm601 2.450 . S
O627 C611 1.242 . S
O628 Sm600 2.386 . S
O628 Sm601 2.681 1_655 S
O628 C618 1.264 1_655 S
O629 Sm601 2.464 . S
O629 C618 1.263 . S
O630 Sm601 2.396 . S
O630 C619 1.252 . S
O631 Sm600 2.408 1_455 S
O631 C619 1.272 . S
H632 C604 0.930 . S
H633 C605 0.929 . S
H634 C607 0.930 . S
H635 C608 0.929 . S
H636 C613 0.930 . S
H637 C614 0.929 . S
H638 C616 0.930 . S
H639 C617 0.929 . S
C640 C641 1.375 1_565 S
C640 H644 0.950 . S
C640 C649 1.390 . S
C641 C640 1.375 1_545 S
C641 C643 1.400 . S
H642 C649 0.950 . S
C643 C641 1.400 . S
C643 C645 1.390 . S
C643 H647 0.950 . S
H644 C640 0.950 . S
C645 C643 1.390 . S
C645 C646 1.415 . S
C645 H648 0.950 . S
C646 C645 1.415 . S
C646 C649 1.359 1_545 S
H647 C643 0.950 . S
H648 C645 0.950 . S
C649 C640 1.390 . S
C649 H642 0.950 . S
C649 C646 1.359 1_565 S
C650 C651 1.387 . S
C650 H654 0.950 . S
C650 C659 1.390 . S
C651 C650 1.387 . S
C651 C653 1.387 . S
H652 C659 0.950 . S
C653 C651 1.387 . S
C653 C655 1.390 . S
C653 H657 0.950 . S
H654 C650 0.950 . S
C655 C653 1.390 . S
C655 C656 1.387 . S
C655 H658 0.950 . S
C656 C655 1.387 . S
C656 C659 1.387 . S
H657 C653 0.950 . S
H658 C655 0.950 . S
C659 C650 1.390 . S
C659 H652 0.950 . S
C659 C656 1.387 . S
C660 C661 1.387 . S
C660 H664 0.950 . S
C660 C669 1.390 . S
C661 C660 1.387 . S
C661 C663 1.387 . S
H662 C669 0.950 . S
C663 C661 1.387 . S
C663 C665 1.390 . S
C663 H667 0.950 . S
H664 C660 0.950 . S
C665 C663 1.390 . S
C665 C666 1.387 . S
C665 H668 0.950 . S
C666 C665 1.387 . S
C666 C669 1.387 . S
H667 C663 0.950 . S
H668 C665 0.950 . S
C669 C660 1.390 . S
C669 H662 0.950 . S
C669 C666 1.387 . S
C670 C671 1.358 1_655 S
C670 H674 0.950 . S
C670 C679 1.390 . S
C671 C670 1.358 1_455 S
C671 C673 1.418 . S
H672 C679 0.950 . S
C673 C671 1.418 . S
C673 C675 1.390 . S
C673 H677 0.950 . S
H674 C670 0.950 . S
C675 C673 1.390 . S
C675 C676 1.387 . S
C675 H678 0.950 . S
C676 C675 1.387 . S
C676 C679 1.387 1_455 S
H677 C673 0.950 . S
H678 C675 0.950 . S
C679 C670 1.390 . S
C679 H672 0.950 . S
C679 C676 1.387 1_655 S
C680 C681 1.384 1_545 S
C680 H684 0.950 . S
C680 C689 1.390 . S
C681 C680 1.384 1_565 S
C681 C683 1.391 . S
H682 C689 0.950 . S
C683 C681 1.391 . S
C683 C685 1.390 . S
C683 H687 0.950 . S
H684 C680 0.950 . S
C685 C683 1.390 . S
C685 C686 1.407 . S
C685 H688 0.950 . S
C686 C685 1.407 . S
C686 C689 1.367 1_565 S
H687 C683 0.950 . S
H688 C685 0.950 . S
C689 C680 1.390 . S
C689 H682 0.950 . S
C689 C686 1.367 1_545 S
C690 C691 1.387 . S
C690 H694 0.950 . S
C690 C699 1.390 . S
C691 C690 1.387 . S
C691 C693 1.387 . S
H692 C699 0.950 . S
C693 C691 1.387 . S
C693 C695 1.390 . S
C693 H697 0.950 . S
H694 C690 0.950 . S
C695 C693 1.390 . S
C695 C696 1.387 . S
C695 H698 0.950 . S
C696 C695 1.387 . S
C696 C699 1.387 . S
H697 C693 0.950 . S
H698 C695 0.950 . S
C699 C690 1.390 . S
C699 H692 0.950 . S
C699 C696 1.387 . S
C700 C701 1.387 . S
C700 H704 0.950 . S
C700 C709 1.390 . S
C701 C700 1.387 . S
C701 C703 1.387 . S
H702 C709 0.950 . S
C703 C701 1.387 . S
C703 C705 1.390 . S
C703 H707 0.950 . S
H704 C700 0.950 . S
C705 C703 1.390 . S
C705 C706 1.387 . S
C705 H708 0.950 . S
C706 C705 1.387 . S
C706 C709 1.387 . S
H707 C703 0.950 . S
H708 C705 0.950 . S
C709 C700 1.390 . S
C709 H702 0.950 . S
C709 C706 1.387 . S
C710 C711 1.378 1_455 S
C710 H714 0.950 . S
C710 C719 1.390 . S
C711 C710 1.378 1_655 S
C711 C713 1.399 . S
H712 C719 0.950 . S
C713 C711 1.399 . S
C713 C715 1.390 . S
C713 H717 0.950 . S
H714 C710 0.950 . S
C715 C713 1.390 . S
C715 C716 1.387 . S
C715 H718 0.950 . S
C716 C715 1.387 . S
C716 C719 1.387 1_655 S
H717 C713 0.950 . S
H718 C715 0.950 . S
C719 C710 1.390 . S
C719 H712 0.950 . S
C719 C716 1.387 1_455 S
C720 C721 1.387 . S
C720 H724 0.950 . S
C720 C729 1.390 . S
C721 C720 1.387 . S
C721 C723 1.387 . S
H722 C729 0.950 . S
C723 C721 1.387 . S
C723 C725 1.390 . S
C723 H727 0.950 1_655 S
H724 C720 0.950 . S
C725 C723 1.390 . S
C725 C726 1.387 . S
C725 H728 0.950 . S
C726 C725 1.387 . S
C726 C729 1.387 . S
H727 C723 0.950 1_455 S
H728 C725 0.950 . S
C729 C720 1.390 . S
C729 H722 0.950 . S
C729 C726 1.387 . S
C730 C731 1.387 . S
C730 H734 0.950 . S
C730 C739 1.390 . S
C731 C730 1.387 . S
C731 C733 1.387 . S
H732 C739 0.950 . S
C733 C731 1.387 . S
C733 C735 1.390 . S
C733 H737 0.950 1_565 S
H734 C730 0.950 . S
C735 C733 1.390 . S
C735 C736 1.387 . S
C735 H738 0.950 . S
C736 C735 1.387 . S
C736 C739 1.387 . S
H737 C733 0.950 1_545 S
H738 C735 0.950 . S
C739 C730 1.390 . S
C739 H732 0.950 . S
C739 C736 1.387 . S
C740 C741 1.387 . S
C740 H744 0.950 . S
C740 C749 1.390 . S
C741 C740 1.387 . S
C741 C743 1.387 . S
H742 C749 0.950 . S
C743 C741 1.387 . S
C743 C745 1.390 . S
C743 H747 0.950 . S
H744 C740 0.950 . S
C745 C743 1.390 . S
C745 C746 1.387 . S
C745 H748 0.950 . S
C746 C745 1.387 . S
C746 C749 1.387 . S
H747 C743 0.950 . S
H748 C745 0.950 . S
C749 C740 1.390 . S
C749 H742 0.950 . S
C749 C746 1.387 . S
C750 C751 1.387 . S
C750 H754 0.950 . S
C750 C759 1.390 . S
C751 C750 1.387 . S
C751 C753 1.387 . S
H752 C759 0.950 . S
C753 C751 1.387 . S
C753 C755 1.390 . S
C753 H757 0.950 . S
H754 C750 0.950 . S
C755 C753 1.390 . S
C755 C756 1.387 . S
C755 H758 0.950 . S
C756 C755 1.387 . S
C756 C759 1.387 . S
H757 C753 0.950 . S
H758 C755 0.950 . S
C759 C750 1.390 . S
C759 H752 0.950 . S
C759 C756 1.387 . S
C760 C761 1.387 . S
C760 H764 0.950 . S
C760 C769 1.390 . S
C761 C760 1.387 . S
C761 C763 1.387 . S
H762 C769 0.950 . S
C763 C761 1.387 . S
C763 C765 1.390 . S
C763 H767 0.950 1_554 S
H764 C760 0.950 . S
C765 C763 1.390 . S
C765 C766 1.387 . S
C765 H768 0.950 1_554 S
C766 C765 1.387 . S
C766 C769 1.387 . S
H767 C763 0.950 1_556 S
H768 C765 0.950 1_556 S
C769 C760 1.390 . S
C769 H762 0.950 . S
C769 C766 1.387 . S
C770 C771 1.387 . S
C770 H774 0.950 1_544 S
C770 C779 1.390 . S
C771 C770 1.387 . S
C771 C773 1.387 . S
H772 C779 0.950 1_556 S
C773 C771 1.387 . S
C773 C775 1.390 . S
C773 H777 0.950 . S
H774 C770 0.950 1_566 S
C775 C773 1.390 . S
C775 C776 1.387 . S
C775 H778 0.950 . S
C776 C775 1.387 . S
C776 C779 1.387 . S
H777 C773 0.950 . S
H778 C775 0.950 . S
C779 C770 1.390 . S
C779 H772 0.950 1_554 S
C779 C776 1.387 . S
C780 C781 1.387 . S
C780 H784 0.950 1_554 S
C780 C789 1.390 . S
C781 C780 1.387 . S
C781 C783 1.387 . S
H782 C789 0.950 1_556 S
C783 C781 1.387 . S
C783 C785 1.390 . S
C783 H787 0.950 . S
H784 C780 0.950 1_556 S
C785 C783 1.390 . S
C785 C786 1.387 . S
C785 H788 0.950 . S
C786 C785 1.387 . S
C786 C789 1.387 . S
H787 C783 0.950 . S
H788 C785 0.950 . S
C789 C780 1.390 . S
C789 H782 0.950 1_554 S
C789 C786 1.387 . S
C790 C791 1.387 . S
C790 H794 0.950 . S
C790 C799 1.390 . S
C791 C790 1.387 . S
C791 C793 1.387 . S
H792 C799 0.950 . S
C793 C791 1.387 . S
C793 C795 1.390 . S
C793 H797 0.950 1_554 S
H794 C790 0.950 . S
C795 C793 1.390 . S
C795 C796 1.387 . S
C795 H798 0.950 1_554 S
C796 C795 1.387 . S
C796 C799 1.387 . S
H797 C793 0.950 1_556 S
H798 C795 0.950 1_556 S
C799 C790 1.390 . S
C799 H792 0.950 . S
C799 C796 1.387 . S
C800 C801 1.387 . S
C800 H804 0.950 . S
C800 C809 1.390 . S
C801 C800 1.387 . S
C801 C803 1.387 1_455 S
H802 C809 0.950 . S
C803 C801 1.387 1_655 S
C803 C805 1.390 . S
C803 H807 0.950 . S
H804 C800 0.950 . S
C805 C803 1.390 . S
C805 C806 1.387 1_655 S
C805 H808 0.950 . S
C806 C805 1.387 1_455 S
C806 C809 1.387 . S
H807 C803 0.950 . S
H808 C805 0.950 . S
C809 C800 1.390 . S
C809 H802 0.950 . S
C809 C806 1.387 . S
C810 C811 1.387 1_565 S
C810 H814 0.950 . S
C810 C819 1.390 . S
C811 C810 1.387 1_545 S
C811 C813 1.387 . S
H812 C819 0.950 . S
C813 C811 1.387 . S
C813 C815 1.390 . S
C813 H817 0.950 . S
H814 C810 0.950 . S
C815 C813 1.390 . S
C815 C816 1.387 . S
C815 H818 0.950 . S
C816 C815 1.387 . S
C816 C819 1.387 1_545 S
H817 C813 0.950 . S
H818 C815 0.950 . S
C819 C810 1.390 . S
C819 H812 0.950 . S
C819 C816 1.387 1_565 S
C820 C821 1.387 . S
C820 H824 0.950 . S
C820 C829 1.390 . S
C821 C820 1.387 . S
C821 C823 1.387 . S
H822 C829 0.950 . S
C823 C821 1.387 . S
C823 C825 1.390 . S
C823 H827 0.950 . S
H824 C820 0.950 . S
C825 C823 1.390 . S
C825 C826 1.387 . S
C825 H828 0.950 . S
C826 C825 1.387 . S
C826 C829 1.387 . S
H827 C823 0.950 . S
H828 C825 0.950 . S
C829 C820 1.390 . S
C829 H822 0.950 . S
C829 C826 1.387 . S
C830 C831 1.387 . S
C830 H834 0.950 . S
C830 C839 1.390 . S
C831 C830 1.387 . S
C831 C833 1.387 . S
H832 C839 0.950 . S
C833 C831 1.387 . S
C833 C835 1.390 . S
C833 H837 0.950 . S
H834 C830 0.950 . S
C835 C833 1.390 . S
C835 C836 1.387 . S
C835 H838 0.950 . S
C836 C835 1.387 . S
C836 C839 1.387 . S
H837 C833 0.950 . S
H838 C835 0.950 . S
C839 C830 1.390 . S
C839 H832 0.950 . S
C839 C836 1.387 . S
C840 C841 1.387 . S
C840 H844 0.950 . S
C840 C849 1.390 . S
C841 C840 1.387 . S
C841 C843 1.387 1_655 S
H842 C849 0.950 . S
C843 C841 1.387 1_455 S
C843 C845 1.393 . S
C843 H847 0.950 . S
H844 C840 0.950 . S
C845 C843 1.393 . S
C845 C846 1.374 1_455 S
C845 H848 0.961 . S
C846 C845 1.374 1_655 S
C846 C849 1.387 . S
H847 C843 0.950 . S
H848 C845 0.961 . S
C849 C840 1.390 . S
C849 H842 0.950 . S
C849 C846 1.387 . S
C850 C851 1.387 . S
C850 H854 0.950 . S
C850 C859 1.390 . S
C851 C850 1.387 . S
C851 C853 1.387 1_565 S
H852 C859 0.950 . S
C853 C851 1.387 1_545 S
C853 C855 1.390 . S
C853 H857 0.950 . S
H854 C850 0.950 . S
C855 C853 1.390 . S
C855 C856 1.387 1_545 S
C855 H858 0.950 . S
C856 C855 1.387 1_565 S
C856 C859 1.387 . S
H857 C853 0.950 . S
H858 C855 0.950 . S
C859 C850 1.390 . S
C859 H852 0.950 . S
C859 C856 1.387 . S
C860 C861 1.387 . S
C860 H864 0.950 . S
C860 C869 1.390 . S
C861 C860 1.387 . S
C861 C863 1.387 . S
H862 C869 0.950 . S
C863 C861 1.387 . S
C863 C865 1.390 . S
C863 H867 0.950 . S
H864 C860 0.950 . S
C865 C863 1.390 . S
C865 C866 1.387 . S
C865 H868 0.950 . S
C866 C865 1.387 . S
C866 C869 1.387 . S
H867 C863 0.950 . S
H868 C865 0.950 . S
C869 C860 1.390 . S
C869 H862 0.950 . S
C869 C866 1.387 . S
C870 C871 1.387 . S
C870 H874 0.950 . S
C870 C879 1.390 . S
C871 C870 1.387 . S
C871 C873 1.387 . S
H872 C879 0.950 . S
C873 C871 1.387 . S
C873 C875 1.390 . S
C873 H877 0.950 . S
H874 C870 0.950 . S
C875 C873 1.390 . S
C875 C876 1.387 . S
C875 H878 0.950 . S
C876 C875 1.387 . S
C876 C879 1.387 . S
H877 C873 0.950 . S
H878 C875 0.950 . S
C879 C870 1.390 . S
C879 H872 0.950 . S
C879 C876 1.387 . S
C641 C391 2.666 . S
C646 C489 2.850 1_545 S
C656 C529 2.869 . S
C651 C451 2.676 . S
C666 C569 2.875 . S
C661 C241 2.339 . S
C676 C609 2.855 1_455 S
C671 C331 2.305 1_455 S
C686 C498 2.850 1_564 S
C681 C121 2.296 . S
C691 C211 2.695 . S
C696 C538 2.870 1_554 S
C701 C31 2.702 . S
C706 C578 2.874 1_554 S
C711 C91 2.302 . S
C716 C618 2.854 1_654 S
C726 C495 0.819 . S
C721 C301 0.794 . S
C736 C535 0.806 . S
C731 C380 0.835 1_565 S
C746 C575 0.774 . S
C741 C440 0.788 . S
C751 C260 0.769 . S
C756 C615 0.779 . S
C761 C61 0.827 1_455 S
C766 C486 0.823 . S
C776 C526 0.806 . S
C771 C140 0.819 1_545 S
C786 C566 0.773 . S
C781 C200 0.775 . S
C791 C20 0.786 . S
C796 C606 0.788 . S
C801 C320 3.438 1_455 S
C806 C499 3.753 . S
C811 C361 2.948 . S
C816 C539 3.724 . S
C826 C579 3.717 . S
C821 C421 2.936 . S
C836 C619 3.750 . S
C831 C271 3.431 . S
C841 C80 3.416 . S
C846 C490 3.761 . S
C856 C530 3.724 . S
C851 C151 3.381 . S
C866 C570 3.717 . S
C861 C181 2.976 . S
C871 C1 3.008 . S
C876 C610 3.753 . S
