# Generated by pormake.
# Topology the, (3,8)-cn, num edge types: 1
# Building blocks:
#     Node 0, Type 0, BuildingBlock: VETTIZ_charged_linker_0, # of connection points: 3
#     Node 1, Type 0, BuildingBlock: VETTIZ_charged_linker_0, # of connection points: 3
#     Node 2, Type 0, BuildingBlock: VETTIZ_charged_linker_0, # of connection points: 3
#     Node 3, Type 0, BuildingBlock: VETTIZ_charged_linker_0, # of connection points: 3
#     Node 4, Type 0, BuildingBlock: VETTIZ_charged_linker_0, # of connection points: 3
#     Node 5, Type 0, BuildingBlock: VETTIZ_charged_linker_0, # of connection points: 3
#     Node 6, Type 0, BuildingBlock: VETTIZ_charged_linker_0, # of connection points: 3
#     Node 7, Type 0, BuildingBlock: VETTIZ_charged_linker_0, # of connection points: 3
#     Node 8, Type 1, BuildingBlock: GIZVER_clean_sbu_0, # of connection points: 8
#     Node 9, Type 1, BuildingBlock: GIZVER_clean_sbu_0, # of connection points: 8
#     Node 10, Type 1, BuildingBlock: GIZVER_clean_sbu_0, # of connection points: 8
#     Edge 11, Type (0, 1), BuildingBlock: XIVTED_clean_linker_0, # of connection points: 2
#     Edge 12, Type (0, 1), BuildingBlock: XIVTED_clean_linker_0, # of connection points: 2
#     Edge 13, Type (0, 1), BuildingBlock: XIVTED_clean_linker_0, # of connection points: 2
#     Edge 14, Type (0, 1), BuildingBlock: XIVTED_clean_linker_0, # of connection points: 2
#     Edge 15, Type (0, 1), BuildingBlock: XIVTED_clean_linker_0, # of connection points: 2
#     Edge 16, Type (0, 1), BuildingBlock: XIVTED_clean_linker_0, # of connection points: 2
#     Edge 17, Type (0, 1), BuildingBlock: XIVTED_clean_linker_0, # of connection points: 2
#     Edge 18, Type (0, 1), BuildingBlock: XIVTED_clean_linker_0, # of connection points: 2
#     Edge 19, Type (0, 1), BuildingBlock: XIVTED_clean_linker_0, # of connection points: 2
#     Edge 20, Type (0, 1), BuildingBlock: XIVTED_clean_linker_0, # of connection points: 2
#     Edge 21, Type (0, 1), BuildingBlock: XIVTED_clean_linker_0, # of connection points: 2
#     Edge 22, Type (0, 1), BuildingBlock: XIVTED_clean_linker_0, # of connection points: 2
#     Edge 23, Type (0, 1), BuildingBlock: XIVTED_clean_linker_0, # of connection points: 2
#     Edge 24, Type (0, 1), BuildingBlock: XIVTED_clean_linker_0, # of connection points: 2
#     Edge 25, Type (0, 1), BuildingBlock: XIVTED_clean_linker_0, # of connection points: 2
#     Edge 26, Type (0, 1), BuildingBlock: XIVTED_clean_linker_0, # of connection points: 2
#     Edge 27, Type (0, 1), BuildingBlock: XIVTED_clean_linker_0, # of connection points: 2
#     Edge 28, Type (0, 1), BuildingBlock: XIVTED_clean_linker_0, # of connection points: 2
#     Edge 29, Type (0, 1), BuildingBlock: XIVTED_clean_linker_0, # of connection points: 2
#     Edge 30, Type (0, 1), BuildingBlock: XIVTED_clean_linker_0, # of connection points: 2
#     Edge 31, Type (0, 1), BuildingBlock: XIVTED_clean_linker_0, # of connection points: 2
#     Edge 32, Type (0, 1), BuildingBlock: XIVTED_clean_linker_0, # of connection points: 2
#     Edge 33, Type (0, 1), BuildingBlock: XIVTED_clean_linker_0, # of connection points: 2
#     Edge 34, Type (0, 1), BuildingBlock: XIVTED_clean_linker_0, # of connection points: 2
# Relax obj value: 0.046
# Max RMSD: 0.138
# Mean RMSD: 0.068
data_MOF--net-the--node1-GIZVER_clean_sbu_0--node2-VETTIZ_charged_linker_0--edge1-XIVTED_clean_linker_0
_symmetry_space_group_name_H-M    P1
_symmetry_Int_Tables_number       1
_symmetry_cell_setting            triclinic
loop_
_symmetry_equiv_pos_as_xyz
'x, y, z'
_cell_length_a     50.143628
_cell_length_b     47.362065
_cell_length_c     43.896516
_cell_angle_alpha  86.723693
_cell_angle_beta   94.079066
_cell_angle_gamma 101.57138
loop_
_atom_site_label
_atom_site_type_symbol
_atom_site_fract_x
_atom_site_fract_y
_atom_site_fract_z
_atom_type_partial_charge
C0 C 0.33425 0.24425 0.42188 0.0
C1 C 0.35183 0.23236 0.40522 0.0
C2 C 0.35996 0.24532 0.37683 0.0
C3 C 0.33363 0.2821 0.38235 0.0
C4 C 0.32522 0.26891 0.40991 0.0
C5 C 0.30548 0.28362 0.42393 0.0
H6 H 0.23592 0.3922 0.41747 0.0
C7 C 0.32104 0.30764 0.37675 0.0
C8 C 0.3045 0.30863 0.40096 0.0
H9 H 0.22862 0.3187 0.48145 0.0
H10 H 0.26406 0.30172 0.4573 0.0
H11 H 0.2373 0.35573 0.35888 0.0
H12 H 0.30143 0.40571 0.41529 0.0
H13 H 0.31141 0.41096 0.37751 0.0
H14 H 0.28098 0.42243 0.38735 0.0
H15 H 0.24281 0.39433 0.35991 0.0
H16 H 0.26072 0.37703 0.3348 0.0
C17 C 0.2776 0.26232 0.42499 0.0
C18 C 0.31802 0.2941 0.45554 0.0
C19 C 0.34224 0.37259 0.28221 0.0
C20 C 0.33531 0.39892 0.27188 0.0
C21 C 0.3195 0.4121 0.28977 0.0
C22 C 0.31 0.39868 0.31735 0.0
C23 C 0.31668 0.37199 0.32715 0.0
C24 C 0.33299 0.35972 0.30992 0.0
C25 C 0.33945 0.33227 0.32462 0.0
C26 C 0.32366 0.32957 0.35316 0.0
C27 C 0.31014 0.35268 0.35437 0.0
C28 C 0.32806 0.30745 0.30285 0.0
C29 C 0.37068 0.33709 0.33222 0.0
C30 C 0.24239 0.37272 0.42656 0.0
C31 C 0.22993 0.35685 0.45152 0.0
C32 C 0.23816 0.33121 0.46229 0.0
C33 C 0.25859 0.3214 0.44816 0.0
C34 C 0.27042 0.33715 0.42269 0.0
C35 C 0.26224 0.36235 0.41229 0.0
C36 C 0.27567 0.37527 0.3838 0.0
C37 C 0.2931 0.35351 0.37861 0.0
C38 C 0.29014 0.33145 0.40161 0.0
C39 C 0.25311 0.37589 0.35787 0.0
C40 C 0.29319 0.40526 0.39106 0.0
H41 H 0.35808 0.27925 0.34371 0.0
H42 H 0.32737 0.23429 0.44352 0.0
H43 H 0.33992 0.30435 0.4541 0.0
H44 H 0.30824 0.31063 0.46432 0.0
H45 H 0.31672 0.27577 0.47269 0.0
H46 H 0.27546 0.24549 0.40781 0.0
H47 H 0.27509 0.25103 0.4478 0.0
H48 H 0.26013 0.27308 0.41913 0.0
H49 H 0.35492 0.36239 0.26913 0.0
H50 H 0.31417 0.43253 0.28214 0.0
H51 H 0.29774 0.40951 0.3299 0.0
H52 H 0.30851 0.3106 0.2908 0.0
H53 H 0.34259 0.30644 0.28517 0.0
H54 H 0.32305 0.28615 0.31496 0.0
H55 H 0.37902 0.35974 0.33848 0.0
H56 H 0.37631 0.32384 0.35224 0.0
H57 H 0.38152 0.33278 0.31231 0.0
H58 H 0.37357 0.23637 0.36375 0.0
C59 C 0.35105 0.27023 0.36536 0.0
C60 C 0.65679 0.22644 0.35337 0.0
C61 C 0.63073 0.21192 0.34256 0.0
C62 C 0.61694 0.22514 0.31835 0.0
C63 C 0.65476 0.26593 0.31594 0.0
C64 C 0.66827 0.25336 0.33988 0.0
C65 C 0.69524 0.27222 0.34923 0.0
H66 H 0.78713 0.39759 0.33112 0.0
C67 C 0.67212 0.2939 0.30706 0.0
C68 C 0.69585 0.29785 0.32651 0.0
H69 H 0.78928 0.32815 0.39908 0.0
H70 H 0.74744 0.3012 0.37658 0.0
H71 H 0.7219 0.39674 0.33224 0.0
H72 H 0.76568 0.3548 0.27291 0.0
H73 H 0.74066 0.36953 0.25089 0.0
H74 H 0.76813 0.39321 0.27098 0.0
H75 H 0.74534 0.41665 0.30591 0.0
H76 H 0.71049 0.40217 0.29381 0.0
C77 C 0.69402 0.2808 0.38261 0.0
C78 C 0.71811 0.25557 0.34442 0.0
C79 C 0.63913 0.35343 0.21806 0.0
C80 C 0.65038 0.37946 0.20259 0.0
C81 C 0.67636 0.39448 0.21321 0.0
C82 C 0.69077 0.3836 0.2385 0.0
C83 C 0.67917 0.35737 0.25343 0.0
C84 C 0.65379 0.34279 0.2429 0.0
C85 C 0.64457 0.31496 0.26066 0.0
C86 C 0.66854 0.315 0.28368 0.0
C87 C 0.68879 0.33997 0.27972 0.0
C88 C 0.61825 0.31703 0.27627 0.0
C89 C 0.64119 0.28999 0.23841 0.0
C90 C 0.77867 0.37645 0.34089 0.0
C91 C 0.7915 0.36514 0.36715 0.0
C92 C 0.77967 0.3376 0.37923 0.0
C93 C 0.75533 0.32191 0.36607 0.0
C94 C 0.74232 0.33377 0.34051 0.0
C95 C 0.75405 0.3605 0.32809 0.0
C96 C 0.73691 0.3696 0.301 0.0
C97 C 0.7128 0.34426 0.29975 0.0
C98 C 0.71624 0.32329 0.32296 0.0
C99 C 0.72822 0.39788 0.30834 0.0
C100 C 0.75362 0.37217 0.27233 0.0
H101 H 0.61706 0.26056 0.28677 0.0
H102 H 0.66814 0.21711 0.37185 0.0
H103 H 0.71367 0.24362 0.32296 0.0
H104 H 0.73818 0.26986 0.34178 0.0
H105 H 0.71996 0.2396 0.3636 0.0
H106 H 0.67287 0.28205 0.38769 0.0
H107 H 0.70092 0.2648 0.39925 0.0
H108 H 0.70611 0.3025 0.38719 0.0
H109 H 0.61905 0.34147 0.21125 0.0
H110 H 0.68577 0.41446 0.20174 0.0
H111 H 0.71042 0.39597 0.2454 0.0
H112 H 0.61859 0.33954 0.28257 0.0
H113 H 0.5998 0.31026 0.26086 0.0
H114 H 0.61593 0.30419 0.29809 0.0
H115 H 0.65658 0.29497 0.22081 0.0
H116 H 0.64465 0.26953 0.24981 0.0
H117 H 0.62069 0.28627 0.22623 0.0
H118 H 0.5966 0.21516 0.30998 0.0
C119 C 0.62879 0.25184 0.305 0.0
C120 C 0.78503 0.69363 0.37367 0.0
C121 C 0.79828 0.67327 0.36234 0.0
C122 C 0.78898 0.66147 0.33386 0.0
C123 C 0.75276 0.68887 0.32933 0.0
C124 C 0.7626 0.70135 0.35666 0.0
C125 C 0.74654 0.72316 0.36495 0.0
H126 H 0.63899 0.78916 0.33484 0.0
C127 C 0.72852 0.70068 0.31799 0.0
C128 C 0.72505 0.72116 0.33851 0.0
H129 H 0.7006 0.80312 0.40951 0.0
H130 H 0.72354 0.76866 0.3896 0.0
H131 H 0.63246 0.71952 0.33701 0.0
H132 H 0.67989 0.78712 0.28218 0.0
H133 H 0.66627 0.75853 0.2583 0.0
H134 H 0.64353 0.77675 0.27614 0.0
H135 H 0.61721 0.74046 0.30789 0.0
H136 H 0.62927 0.70869 0.29908 0.0
C137 C 0.73379 0.71292 0.39578 0.0
C138 C 0.76581 0.75318 0.36532 0.0
C139 C 0.6704 0.65792 0.22565 0.0
C140 C 0.64614 0.66338 0.21046 0.0
C141 C 0.63481 0.68608 0.22014 0.0
C142 C 0.64693 0.70244 0.24499 0.0
C143 C 0.67072 0.69615 0.26048 0.0
C144 C 0.68231 0.67451 0.25038 0.0
C145 C 0.70792 0.67122 0.26914 0.0
C146 C 0.70941 0.69391 0.29266 0.0
C147 C 0.68747 0.70835 0.28762 0.0
C148 C 0.70337 0.64031 0.28399 0.0
C149 C 0.73219 0.67846 0.24814 0.0
C150 C 0.65736 0.78472 0.347 0.0
C151 C 0.6679 0.79898 0.37389 0.0
C152 C 0.69215 0.79281 0.3886 0.0
C153 C 0.70537 0.77259 0.3771 0.0
C154 C 0.69432 0.75822 0.35053 0.0
C155 C 0.67082 0.76455 0.3358 0.0
C156 C 0.66205 0.74719 0.30783 0.0
C157 C 0.68424 0.7295 0.30811 0.0
C158 C 0.70298 0.73592 0.33333 0.0
C159 C 0.63369 0.72801 0.31288 0.0
C160 C 0.66271 0.76832 0.27951 0.0
H161 H 0.75991 0.65895 0.2961 0.0
H162 H 0.79199 0.70335 0.3953 0.0
H163 H 0.78195 0.75482 0.3488 0.0
H164 H 0.75516 0.77096 0.35804 0.0
H165 H 0.77615 0.75735 0.38832 0.0
H166 H 0.72591 0.6892 0.39645 0.0
H167 H 0.74914 0.71774 0.41526 0.0
H168 H 0.71609 0.72252 0.39966 0.0
H169 H 0.67992 0.64098 0.2185 0.0
H170 H 0.61607 0.69068 0.20903 0.0
H171 H 0.63708 0.71912 0.25145 0.0
H172 H 0.6828 0.63441 0.29326 0.0
H173 H 0.70472 0.62425 0.26698 0.0
H174 H 0.7179 0.63786 0.30354 0.0
H175 H 0.72831 0.6938 0.22895 0.0
H176 H 0.75121 0.68951 0.26022 0.0
H177 H 0.73594 0.65876 0.238 0.0
H178 H 0.79881 0.64565 0.32477 0.0
C179 C 0.76628 0.66908 0.31736 0.0
C180 C 0.36275 0.77753 0.34912 0.0
C181 C 0.35313 0.79385 0.37023 0.0
C182 C 0.32582 0.78555 0.37823 0.0
C183 C 0.31884 0.74449 0.34573 0.0
C184 C 0.34532 0.75321 0.3371 0.0
C185 C 0.35244 0.73365 0.3144 0.0
H186 H 0.31451 0.61675 0.2275 0.0
C187 C 0.30648 0.71771 0.32983 0.0
C188 C 0.32605 0.71146 0.31119 0.0
H189 H 0.39269 0.67557 0.23399 0.0
H190 H 0.37611 0.70254 0.27063 0.0
H191 H 0.30925 0.60974 0.29808 0.0
H192 H 0.27604 0.66426 0.23019 0.0
H193 H 0.24999 0.64863 0.2544 0.0
H194 H 0.26551 0.6257 0.23281 0.0
H195 H 0.27904 0.5964 0.27473 0.0
H196 H 0.27757 0.61281 0.31057 0.0
C197 C 0.37632 0.72008 0.32883 0.0
C198 C 0.35872 0.75158 0.28421 0.0
C199 C 0.21125 0.66282 0.35346 0.0
C200 C 0.19534 0.63646 0.34364 0.0
C201 C 0.20562 0.62162 0.32154 0.0
C202 C 0.23106 0.6325 0.30972 0.0
C203 C 0.24684 0.65846 0.32017 0.0
C204 C 0.23687 0.67326 0.3416 0.0
C205 C 0.25687 0.70023 0.35045 0.0
C206 C 0.28059 0.69882 0.33119 0.0
C207 C 0.27448 0.67433 0.3134 0.0
C208 C 0.26465 0.69739 0.3851 0.0
C209 C 0.24376 0.72659 0.34086 0.0
C210 C 0.32821 0.63532 0.23684 0.0
C211 C 0.35493 0.64408 0.22709 0.0
C212 C 0.37178 0.66858 0.24012 0.0
C213 C 0.36219 0.68419 0.26174 0.0
C214 C 0.33545 0.67526 0.27096 0.0
C215 C 0.31905 0.65102 0.25878 0.0
C216 C 0.29162 0.64396 0.27233 0.0
C217 C 0.29402 0.66843 0.29397 0.0
C218 C 0.31971 0.68678 0.29301 0.0
C219 C 0.28895 0.61414 0.2897 0.0
C220 C 0.26945 0.64547 0.2462 0.0
H221 H 0.28826 0.75559 0.37354 0.0
H222 H 0.38349 0.78353 0.34212 0.0
H223 H 0.34499 0.76733 0.27986 0.0
H224 H 0.35521 0.73832 0.26389 0.0
H225 H 0.38005 0.76395 0.28513 0.0
H226 H 0.37449 0.71584 0.35387 0.0
H227 H 0.39628 0.73468 0.32546 0.0
H228 H 0.37661 0.69885 0.31984 0.0
H229 H 0.20405 0.67508 0.37011 0.0
H230 H 0.19434 0.60105 0.31387 0.0
H231 H 0.23762 0.61998 0.29316 0.0
H232 H 0.26764 0.67514 0.39165 0.0
H233 H 0.24833 0.70192 0.39884 0.0
H234 H 0.28405 0.71166 0.39211 0.0
H235 H 0.23048 0.72268 0.31949 0.0
H236 H 0.259 0.74622 0.33545 0.0
H237 H 0.23095 0.73121 0.35887 0.0
H238 H 0.31793 0.79761 0.39455 0.0
C239 C 0.30868 0.76099 0.36617 0.0
C240 C 0.37539 0.65692 0.79603 0.0
C241 C 0.36399 0.63099 0.81156 0.0
C242 C 0.33807 0.61595 0.80074 0.0
C243 C 0.33564 0.65286 0.76021 0.0
C244 C 0.36095 0.66745 0.77093 0.0
C245 C 0.37037 0.69516 0.75304 0.0
H246 H 0.34781 0.79252 0.64087 0.0
C247 C 0.32624 0.67014 0.73367 0.0
C248 C 0.34657 0.69505 0.72975 0.0
H249 H 0.41899 0.79453 0.70332 0.0
H250 H 0.39825 0.74932 0.72671 0.0
H251 H 0.30196 0.76652 0.68941 0.0
H252 H 0.34306 0.72749 0.62551 0.0
H253 H 0.30979 0.7071 0.62584 0.0
H254 H 0.3151 0.74475 0.61354 0.0
H255 H 0.29585 0.7702 0.64872 0.0
H256 H 0.27749 0.74016 0.67073 0.0
C257 C 0.3736 0.72028 0.77507 0.0
C258 C 0.39681 0.69292 0.73779 0.0
C259 C 0.23677 0.63358 0.67166 0.0
C260 C 0.22422 0.64485 0.64517 0.0
C261 C 0.23617 0.67237 0.63315 0.0
C262 C 0.2604 0.68805 0.64653 0.0
C263 C 0.27318 0.67622 0.67229 0.0
C264 C 0.2613 0.64954 0.68469 0.0
C265 C 0.27821 0.6405 0.71204 0.0
C266 C 0.30236 0.66581 0.71342 0.0
C267 C 0.29914 0.68671 0.69005 0.0
C268 C 0.26125 0.63809 0.74049 0.0
C269 C 0.28692 0.61215 0.70501 0.0
C270 C 0.35903 0.78325 0.65952 0.0
C271 C 0.38507 0.79774 0.67042 0.0
C272 C 0.39867 0.78458 0.69485 0.0
C273 C 0.38666 0.75799 0.70831 0.0
C274 C 0.36071 0.74392 0.69725 0.0
C275 C 0.3474 0.75642 0.6731 0.0
C276 C 0.32044 0.73759 0.66363 0.0
C277 C 0.31961 0.71208 0.68653 0.0
C278 C 0.34321 0.71605 0.70618 0.0
C279 C 0.29759 0.75438 0.66807 0.0
C280 C 0.32187 0.72882 0.63036 0.0
H281 H 0.30428 0.61434 0.76816 0.0
H282 H 0.39543 0.66889 0.803 0.0
H283 H 0.39654 0.67034 0.7318 0.0
H284 H 0.39927 0.70553 0.71584 0.0
H285 H 0.41516 0.69985 0.7533 0.0
H286 H 0.35797 0.71551 0.79241 0.0
H287 H 0.39397 0.72393 0.78756 0.0
H288 H 0.37041 0.74073 0.76343 0.0
H289 H 0.22818 0.61246 0.68139 0.0
H290 H 0.22677 0.68177 0.61313 0.0
H291 H 0.26841 0.70873 0.63604 0.0
H292 H 0.24926 0.65554 0.73967 0.0
H293 H 0.24665 0.6171 0.74175 0.0
H294 H 0.27403 0.64072 0.76205 0.0
H295 H 0.29353 0.61321 0.68124 0.0
H296 H 0.30447 0.60784 0.71985 0.0
H297 H 0.26973 0.59344 0.70727 0.0
H298 H 0.32853 0.59605 0.81224 0.0
C299 C 0.32389 0.62672 0.7752 0.0
C300 C 0.22892 0.31376 0.64305 0.0
C301 C 0.21809 0.33637 0.65362 0.0
C302 C 0.22799 0.34772 0.68216 0.0
C303 C 0.26095 0.31653 0.68762 0.0
C304 C 0.2504 0.30425 0.66039 0.0
C305 C 0.26559 0.28163 0.65201 0.0
H306 H 0.37335 0.21517 0.67994 0.0
C307 C 0.28453 0.30368 0.69888 0.0
C308 C 0.28727 0.28295 0.67832 0.0
H309 H 0.31086 0.20105 0.60623 0.0
H310 H 0.28763 0.23481 0.62726 0.0
H311 H 0.37948 0.2843 0.6789 0.0
H312 H 0.3326 0.21605 0.73351 0.0
H313 H 0.34628 0.24447 0.75759 0.0
H314 H 0.36897 0.22649 0.73932 0.0
H315 H 0.39499 0.26285 0.70729 0.0
H316 H 0.38322 0.29447 0.71709 0.0
C317 C 0.27825 0.29125 0.62101 0.0
C318 C 0.24551 0.25216 0.65188 0.0
C319 C 0.34343 0.34537 0.79093 0.0
C320 C 0.36778 0.33985 0.80575 0.0
C321 C 0.37873 0.31686 0.7961 0.0
C322 C 0.36619 0.30042 0.77143 0.0
C323 C 0.3424 0.30697 0.75613 0.0
C324 C 0.33118 0.32879 0.76638 0.0
C325 C 0.30586 0.33282 0.74759 0.0
C326 C 0.30385 0.31008 0.72406 0.0
C327 C 0.32539 0.29511 0.72897 0.0
C328 C 0.3113 0.36384 0.73285 0.0
C329 C 0.28155 0.32613 0.76857 0.0
C330 C 0.35472 0.21941 0.66823 0.0
C331 C 0.34409 0.20549 0.64119 0.0
C332 C 0.31944 0.21125 0.62715 0.0
C333 C 0.30607 0.23106 0.63929 0.0
C334 C 0.31742 0.2454 0.66578 0.0
C335 C 0.34114 0.23913 0.68004 0.0
C336 C 0.3502 0.25622 0.70811 0.0
C337 C 0.3281 0.27391 0.70832 0.0
C338 C 0.30904 0.26768 0.68329 0.0
C339 C 0.37853 0.27542 0.70291 0.0
C340 C 0.34975 0.23487 0.73622 0.0
H341 H 0.25604 0.34785 0.72043 0.0
H342 H 0.22171 0.30461 0.62121 0.0
H343 H 0.23039 0.25078 0.66954 0.0
H344 H 0.25576 0.2338 0.65773 0.0
H345 H 0.234 0.24883 0.62937 0.0
H346 H 0.28683 0.31483 0.62018 0.0
H347 H 0.26267 0.2868 0.60169 0.0
H348 H 0.29546 0.28093 0.61698 0.0
H349 H 0.33418 0.36252 0.79805 0.0
H350 H 0.39753 0.31219 0.80697 0.0
H351 H 0.37581 0.28359 0.76485 0.0
H352 H 0.33262 0.37003 0.72569 0.0
H353 H 0.30837 0.37982 0.74923 0.0
H354 H 0.29847 0.36625 0.71178 0.0
H355 H 0.28474 0.30991 0.78713 0.0
H356 H 0.26217 0.31633 0.75628 0.0
H357 H 0.27883 0.34583 0.77956 0.0
H358 H 0.21964 0.36478 0.69102 0.0
C359 C 0.24918 0.33787 0.69921 0.0
C360 C 0.6492 0.23525 0.66259 0.0
C361 C 0.65872 0.21895 0.64138 0.0
C362 C 0.68602 0.22722 0.63333 0.0
C363 C 0.69311 0.26832 0.66583 0.0
C364 C 0.66665 0.2596 0.67455 0.0
C365 C 0.65954 0.27928 0.69712 0.0
H366 H 0.69472 0.40065 0.77772 0.0
C367 C 0.70542 0.29527 0.68148 0.0
C368 C 0.68585 0.30161 0.70007 0.0
H369 H 0.61883 0.33827 0.77648 0.0
H370 H 0.63624 0.30979 0.74172 0.0
H371 H 0.70112 0.40263 0.7074 0.0
H372 H 0.73483 0.35326 0.78019 0.0
H373 H 0.76084 0.36681 0.7553 0.0
H374 H 0.74555 0.3916 0.7746 0.0
H375 H 0.72965 0.41842 0.73203 0.0
H376 H 0.73409 0.40106 0.6977 0.0
C377 C 0.63554 0.2926 0.68262 0.0
C378 C 0.65343 0.26161 0.72752 0.0
C379 C 0.80058 0.35006 0.65736 0.0
C380 C 0.81648 0.37656 0.6668 0.0
C381 C 0.80601 0.3919 0.68829 0.0
C382 C 0.78043 0.38133 0.69994 0.0
C383 C 0.76472 0.35514 0.68995 0.0
C384 C 0.77485 0.3399 0.66906 0.0
C385 C 0.75494 0.31275 0.66063 0.0
C386 C 0.73118 0.31436 0.67975 0.0
C387 C 0.7371 0.33927 0.69692 0.0
C388 C 0.74718 0.31507 0.62593 0.0
C389 C 0.76814 0.28656 0.67074 0.0
C390 C 0.68201 0.38065 0.77028 0.0
C391 C 0.6553 0.3718 0.77987 0.0
C392 C 0.63933 0.34582 0.7692 0.0
C393 C 0.64953 0.32921 0.74905 0.0
C394 C 0.67603 0.33862 0.73916 0.0
C395 C 0.69185 0.36387 0.74991 0.0
C396 C 0.7193 0.3708 0.73639 0.0
C397 C 0.71745 0.34541 0.7161 0.0
C398 C 0.69202 0.32665 0.71774 0.0
C399 C 0.72145 0.3998 0.71753 0.0
C400 C 0.74147 0.37087 0.76284 0.0
H401 H 0.72362 0.25716 0.63797 0.0
H402 H 0.62849 0.22926 0.66967 0.0
H403 H 0.66636 0.24503 0.73136 0.0
H404 H 0.65824 0.27494 0.74778 0.0
H405 H 0.63178 0.25022 0.72737 0.0
H406 H 0.6379 0.29767 0.65777 0.0
H407 H 0.61574 0.27743 0.68509 0.0
H408 H 0.63444 0.31331 0.69227 0.0
H409 H 0.80791 0.33744 0.64116 0.0
H410 H 0.81729 0.41259 0.69564 0.0
H411 H 0.77373 0.39424 0.71602 0.0
H412 H 0.74448 0.33732 0.6189 0.0
H413 H 0.76337 0.31002 0.61237 0.0
H414 H 0.72762 0.30097 0.61914 0.0
H415 H 0.78104 0.29068 0.69233 0.0
H416 H 0.75294 0.26685 0.67593 0.0
H417 H 0.78134 0.28201 0.65309 0.0
H418 H 0.69388 0.21518 0.61697 0.0
C419 C 0.70321 0.25177 0.64538 0.0
C420 C 0.67007 0.6331 0.7211 0.0
C421 C 0.646 0.63883 0.73157 0.0
C422 C 0.63303 0.65946 0.71562 0.0
C423 C 0.66831 0.66869 0.67935 0.0
C424 C 0.68101 0.6485 0.69524 0.0
C425 C 0.70755 0.64664 0.68236 0.0
H426 H 0.79702 0.687 0.57246 0.0
C427 C 0.68536 0.68141 0.65408 0.0
C428 C 0.70848 0.66879 0.65588 0.0
H429 H 0.80282 0.62833 0.65057 0.0
H430 H 0.76089 0.63744 0.66812 0.0
H431 H 0.78157 0.73501 0.60952 0.0
H432 H 0.7314 0.66831 0.55683 0.0
H433 H 0.72039 0.70097 0.5473 0.0
H434 H 0.75477 0.69827 0.54065 0.0
H435 H 0.77629 0.73931 0.56884 0.0
H436 H 0.75354 0.74941 0.59452 0.0
C437 C 0.73092 0.65562 0.70716 0.0
C438 C 0.70507 0.61571 0.67129 0.0
C439 C 0.65547 0.7578 0.58144 0.0
C440 C 0.66803 0.77502 0.55734 0.0
C441 C 0.69303 0.77042 0.54803 0.0
C442 C 0.70551 0.749 0.56282 0.0
C443 C 0.69302 0.7324 0.58744 0.0
C444 C 0.66838 0.73691 0.59631 0.0
C445 C 0.65893 0.71865 0.62411 0.0
C446 C 0.68196 0.70234 0.63046 0.0
C447 C 0.70171 0.71034 0.60881 0.0
C448 C 0.65725 0.7389 0.65019 0.0
C449 C 0.63164 0.69834 0.61497 0.0
C450 C 0.78913 0.67622 0.59334 0.0
C451 C 0.80286 0.65686 0.61017 0.0
C452 C 0.79245 0.64345 0.63745 0.0
C453 C 0.76807 0.64863 0.64745 0.0
C454 C 0.75418 0.66761 0.63007 0.0
C455 C 0.76502 0.6815 0.60386 0.0
C456 C 0.74821 0.7021 0.58927 0.0
C457 C 0.72504 0.69758 0.61054 0.0
C458 C 0.72852 0.67716 0.63416 0.0
C459 C 0.76568 0.73309 0.5903 0.0
C460 C 0.73819 0.69217 0.55669 0.0
H461 H 0.63319 0.68977 0.67821 0.0
H462 H 0.68065 0.61773 0.73344 0.0
H463 H 0.68487 0.60837 0.65903 0.0
H464 H 0.72028 0.61408 0.65486 0.0
H465 H 0.70699 0.60021 0.69091 0.0
H466 H 0.7254 0.67032 0.72349 0.0
H467 H 0.73576 0.63652 0.72065 0.0
H468 H 0.74973 0.66804 0.69743 0.0
H469 H 0.63659 0.76145 0.58957 0.0
H470 H 0.70301 0.78363 0.52956 0.0
H471 H 0.72461 0.74654 0.55486 0.0
H472 H 0.67215 0.75964 0.64779 0.0
H473 H 0.63662 0.74412 0.65014 0.0
H474 H 0.66265 0.72985 0.67304 0.0
H475 H 0.63243 0.68965 0.5921 0.0
H476 H 0.62687 0.67921 0.63065 0.0
H477 H 0.61445 0.71002 0.61376 0.0
H478 H 0.61448 0.66414 0.72356 0.0
C479 C 0.64395 0.67428 0.68939 0.0
Co480 Co 0.06176 0.4725 0.52245 0.0
Co481 Co 0.03281 0.46122 0.46964 0.0
Co482 Co 0.00768 0.50445 0.50649 0.0
O483 O 0.02381 0.46903 0.50889 0.0
H484 H 0.01216 0.45248 0.5181 0.0
O485 O 0.99212 0.54003 0.50417 0.0
Co486 Co 0.95452 0.53886 0.49194 0.0
Co487 Co 0.98451 0.547 0.54377 0.0
H488 H 1.00417 0.55656 0.4954 0.0
O489 O 0.0423 0.42574 0.46121 0.0
O490 O 0.06952 0.46445 0.48113 0.0
O491 O 0.03224 0.49147 0.43813 0.0
O492 O 0.03083 0.52404 0.47224 0.0
O493 O 0.97818 0.48547 0.47635 0.0
O494 O 0.92051 0.54092 0.47975 0.0
O495 O 0.95763 0.57675 0.47991 0.0
O496 O 0.94626 0.49879 0.50107 0.0
O497 O 0.9843 0.48462 0.54041 0.0
O498 O 0.98475 0.51675 0.57528 0.0
O499 O 0.948 0.54715 0.5342 0.0
O500 O 0.97985 0.5829 0.55428 0.0
C501 C 0.08608 0.44553 0.5423 0.0
C502 C 0.06176 0.52761 0.53133 0.0
C503 C 0.03672 0.51747 0.44598 0.0
C504 C 0.06634 0.43875 0.47113 0.0
C505 C 0.93152 0.56773 0.47365 0.0
C506 C 0.95306 0.48279 0.48188 0.0
C507 C 0.97902 0.49093 0.56696 0.0
C508 C 0.95456 0.57226 0.54628 0.0
O509 O 0.09569 0.47259 0.53574 0.0
O510 O 0.06031 0.43489 0.53552 0.0
O511 O 0.03669 0.52379 0.53704 0.0
O512 O 0.06877 0.5121 0.51196 0.0
Co513 Co 0.53768 0.95014 0.48896 0.0
Co514 Co 0.55215 0.97355 0.54267 0.0
Co515 Co 0.50781 1.00472 0.50616 0.0
O516 O 0.54129 0.98815 0.50406 0.0
H517 H 0.55622 1.00181 0.49559 0.0
O518 O 0.4742 0.02097 0.50808 0.0
Co519 Co 0.4762 0.05883 0.52222 0.0
Co520 Co 0.46429 0.03502 0.46935 0.0
H521 H 0.45923 0.00705 0.51604 0.0
O522 O 0.58722 0.96489 0.55078 0.0
O523 O 0.55014 0.9367 0.52951 0.0
O524 O 0.52597 0.96869 0.57377 0.0
O525 O 0.49243 0.97735 0.54069 0.0
O526 O 0.5289 0.0333 0.53584 0.0
O527 O 0.47551 0.09272 0.53659 0.0
O528 O 0.44157 0.05362 0.53481 0.0
O529 O 0.5128 0.06918 0.51225 0.0
O530 O 0.52349 0.03216 0.47192 0.0
O531 O 0.49028 0.03965 0.43811 0.0
O532 O 0.46381 0.07192 0.48089 0.0
O533 O 0.42916 0.04004 0.45915 0.0
C534 C 0.56174 0.92798 0.46736 0.0
C535 C 0.48438 0.94932 0.48165 0.0
C536 C 0.50076 0.96689 0.56632 0.0
C537 C 0.57547 0.94046 0.5395 0.0
C538 C 0.45081 0.08022 0.54261 0.0
C539 C 0.53025 0.06042 0.53091 0.0
C540 C 0.51542 0.0421 0.44598 0.0
C541 C 0.43906 0.06577 0.46854 0.0
O542 O 0.53704 0.91616 0.47402 0.0
O543 O 0.57184 0.95444 0.47513 0.0
O544 O 0.48644 0.97643 0.47628 0.0
O545 O 0.50166 0.94051 0.50034 0.0
Co546 Co 0.47361 0.51713 0.06855 0.0
Co547 Co 0.46586 0.46417 0.05397 0.0
Co548 Co 0.50538 0.50391 0.00728 0.0
O549 O 0.47207 0.49821 0.031 0.0
H550 H 0.45596 0.49989 0.01811 0.0
O551 O 0.53848 0.50972 0.98306 0.0
Co552 Co 0.53578 0.49503 0.94283 0.0
Co553 Co 0.5446 0.54626 0.96427 0.0
H554 H 0.55452 0.50643 0.99516 0.0
O555 O 0.43096 0.44762 0.0634 0.0
O556 O 0.46156 0.47957 0.09077 0.0
O557 O 0.49523 0.44356 0.05962 0.0
O558 O 0.52468 0.47705 0.03469 0.0
O559 O 0.48645 0.47136 0.9812 0.0
O560 O 0.53585 0.4808 0.90658 0.0
O561 O 0.57099 0.49026 0.94174 0.0
O562 O 0.49842 0.49638 0.9388 0.0
O563 O 0.48603 0.53064 0.98004 0.0
O564 O 0.5161 0.5684 0.96338 0.0
O565 O 0.54546 0.53488 0.92467 0.0
O566 O 0.57864 0.5636 0.95251 0.0
C567 C 0.44814 0.53669 0.09083 0.0
C568 C 0.52757 0.53271 0.06229 0.0
C569 C 0.51929 0.45432 0.05224 0.0
C570 C 0.43771 0.46253 0.0877 0.0
C571 C 0.56105 0.48015 0.91526 0.0
C572 C 0.48287 0.47569 0.95234 0.0
C573 C 0.49166 0.55558 0.96657 0.0
C574 C 0.56909 0.55243 0.92664 0.0
O575 O 0.47267 0.53588 0.10204 0.0
O576 O 0.43885 0.52355 0.06571 0.0
O577 O 0.52456 0.53654 0.0333 0.0
O578 O 0.51035 0.51399 0.07621 0.0
H579 H 0.2292 0.40943 0.4727 0.0
H580 H 0.0667 0.38125 0.46586 0.0
H581 H 0.17852 0.32579 0.45812 0.0
H582 H 0.11974 0.46385 0.48017 0.0
H583 H 0.10689 0.35875 0.46918 0.0
H584 H 0.18893 0.42774 0.4837 0.0
C585 C 0.20955 0.39485 0.47238 0.0
C586 C 0.20696 0.36624 0.46428 0.0
C587 C 0.10964 0.38176 0.47179 0.0
C588 C 0.16074 0.38704 0.4759 0.0
C589 C 0.08676 0.39462 0.46963 0.0
C590 C 0.08995 0.42446 0.47246 0.0
C591 C 0.13574 0.39899 0.47666 0.0
C592 C 0.11632 0.44077 0.47773 0.0
C593 C 0.18655 0.40526 0.47852 0.0
C594 C 0.1812 0.34803 0.46431 0.0
N595 N 0.13816 0.42784 0.47954 0.0
N596 N 0.1589 0.35888 0.46949 0.0
H597 H 0.63399 0.19279 0.40305 0.0
H598 H 0.50918 0.0618 0.38624 0.0
H599 H 0.59674 0.16619 0.31479 0.0
H600 H 0.56736 0.06837 0.46415 0.0
H601 H 0.54011 0.10049 0.35963 0.0
H602 H 0.60919 0.14798 0.42621 0.0
C603 C 0.62094 0.17748 0.38839 0.0
C604 C 0.61737 0.18366 0.35683 0.0
C605 C 0.54626 0.09313 0.38238 0.0
C606 C 0.58831 0.13243 0.38353 0.0
C607 C 0.52862 0.07102 0.39757 0.0
C608 C 0.5356 0.06181 0.42752 0.0
C609 C 0.5708 0.10654 0.39745 0.0
C610 C 0.5611 0.07465 0.44106 0.0
C611 C 0.60665 0.15189 0.40172 0.0
C612 C 0.59969 0.16292 0.3393 0.0
N613 N 0.57755 0.09663 0.42613 0.0
N614 N 0.58561 0.13846 0.3529 0.0
H615 H 0.84873 0.66927 0.34456 0.0
H616 H 0.87727 0.56276 0.48003 0.0
H617 H 0.79847 0.65333 0.42184 0.0
H618 H 0.94506 0.61699 0.4368 0.0
H619 H 0.84697 0.59282 0.45575 0.0
H620 H 0.88359 0.64767 0.3744 0.0
C621 C 0.84519 0.66146 0.36789 0.0
C622 C 0.82071 0.66299 0.38079 0.0
C623 C 0.86852 0.59836 0.45181 0.0
C624 C 0.86009 0.63798 0.41466 0.0
C625 C 0.88586 0.58119 0.46562 0.0
C626 C 0.9138 0.58746 0.46055 0.0
C627 C 0.8789 0.62149 0.43187 0.0
C628 C 0.92368 0.61153 0.44144 0.0
C629 C 0.86509 0.64932 0.3849 0.0
C630 C 0.81711 0.65267 0.41112 0.0
N631 N 0.90614 0.62745 0.42731 0.0
N632 N 0.83638 0.64018 0.42685 0.0
H633 H 0.3438 0.84791 0.38065 0.0
H634 H 0.48227 0.89147 0.4825 0.0
H635 H 0.40525 0.79563 0.39389 0.0
H636 H 0.44004 0.95684 0.44238 0.0
H637 H 0.45047 0.85521 0.45454 0.0
H638 H 0.37518 0.88715 0.40689 0.0
C639 C 0.36386 0.84469 0.38903 0.0
C640 C 0.37192 0.81843 0.38501 0.0
C641 C 0.4481 0.87746 0.45169 0.0
C642 C 0.40768 0.86302 0.41516 0.0
C643 C 0.46628 0.89833 0.46778 0.0
C644 C 0.46406 0.92749 0.46472 0.0
C645 C 0.42703 0.8854 0.4325 0.0
C646 C 0.44264 0.93469 0.44533 0.0
C647 C 0.38176 0.86713 0.40382 0.0
C648 C 0.39822 0.81554 0.39614 0.0
N649 N 0.42483 0.91374 0.43001 0.0
N650 N 0.41499 0.8374 0.41085 0.0
H651 H 0.2154 0.63716 0.58396 0.0
H652 H 0.06172 0.54806 0.58919 0.0
H653 H 0.17692 0.61389 0.66907 0.0
H654 H 0.11175 0.55236 0.51244 0.0
H655 H 0.10077 0.57714 0.61797 0.0
H656 H 0.17482 0.61089 0.55665 0.0
C657 C 0.19832 0.6266 0.59693 0.0
C658 C 0.19958 0.62787 0.62888 0.0
C659 C 0.10305 0.57177 0.59477 0.0
C660 C 0.15272 0.59748 0.59756 0.0
C661 C 0.08074 0.55542 0.57828 0.0
C662 C 0.0835 0.54771 0.5484 0.0
C663 C 0.12807 0.58077 0.58105 0.0
C664 C 0.10869 0.55761 0.53546 0.0
C665 C 0.17514 0.61146 0.58131 0.0
C666 C 0.17688 0.61333 0.64445 0.0
N667 N 0.12986 0.57356 0.55179 0.0
N668 N 0.1543 0.59884 0.62864 0.0
H669 H 0.39907 0.21346 0.63568 0.0
H670 H 0.39553 0.06631 0.55192 0.0
H671 H 0.32399 0.15364 0.61405 0.0
H672 H 0.46715 0.13294 0.5667 0.0
H673 H 0.36862 0.09612 0.57602 0.0
H674 H 0.42411 0.18225 0.6123 0.0
C675 C 0.38783 0.1936 0.62624 0.0
C676 C 0.35935 0.18615 0.62705 0.0
C677 C 0.39024 0.1041 0.57395 0.0
C678 C 0.38805 0.1502 0.59965 0.0
C679 C 0.4056 0.08707 0.5603 0.0
C680 C 0.43367 0.09705 0.55734 0.0
C681 C 0.40313 0.13116 0.58482 0.0
C682 C 0.44561 0.12424 0.56841 0.0
C683 C 0.40216 0.17582 0.61263 0.0
C684 C 0.34592 0.16036 0.61377 0.0
N685 N 0.43034 0.1402 0.58163 0.0
N686 N 0.36038 0.14326 0.60068 0.0
H687 H 0.8316 0.37334 0.60808 0.0
H688 H 0.96659 0.49321 0.62666 0.0
H689 H 0.86284 0.40825 0.69524 0.0
H690 H 0.94764 0.43977 0.54852 0.0
H691 H 0.9294 0.46184 0.65271 0.0
H692 H 0.87427 0.39682 0.58616 0.0
C693 C 0.84749 0.38556 0.6228 0.0
C694 C 0.84329 0.3889 0.65362 0.0
C695 C 0.93366 0.45673 0.63005 0.0
C696 C 0.89224 0.41649 0.62828 0.0
C697 C 0.95496 0.4746 0.61518 0.0
C698 C 0.96029 0.46925 0.58528 0.0
C699 C 0.91721 0.43357 0.61477 0.0
C700 C 0.94442 0.44478 0.57157 0.0
C701 C 0.87187 0.39912 0.61016 0.0
C702 C 0.8647 0.40553 0.67123 0.0
N703 N 0.92339 0.42815 0.58622 0.0
N704 N 0.88805 0.4189 0.65826 0.0
H705 H 0.61567 0.77371 0.53536 0.0
H706 H 0.63085 0.94359 0.54527 0.0
H707 H 0.69307 0.83149 0.55077 0.0
H708 H 0.55453 0.88442 0.52733 0.0
H709 H 0.65503 0.90403 0.54091 0.0
H710 H 0.594 0.81523 0.52417 0.0
C711 C 0.62813 0.79522 0.53583 0.0
C712 C 0.65604 0.79934 0.54429 0.0
C713 C 0.633 0.89981 0.5377 0.0
C714 C 0.63146 0.84689 0.53233 0.0
C715 C 0.61921 0.9223 0.54046 0.0
C716 C 0.59066 0.91717 0.53702 0.0
C717 C 0.61806 0.87205 0.5317 0.0
C718 C 0.57657 0.88931 0.53034 0.0
C719 C 0.6158 0.81892 0.52954 0.0
C720 C 0.67144 0.82753 0.54433 0.0
N721 N 0.5904 0.8678 0.52808 0.0
N722 N 0.65884 0.85034 0.539 0.0
H723 H 0.37762 0.22462 0.46088 0.0
H724 H 0.391 0.06324 0.43429 0.0
H725 H 0.34877 0.18194 0.37719 0.0
H726 H 0.45093 0.1207 0.48912 0.0
H727 H 0.36692 0.10279 0.42139 0.0
H728 H 0.39644 0.18235 0.47968 0.0
C729 C 0.37506 0.20619 0.44667 0.0
C730 C 0.36189 0.20661 0.41745 0.0
C731 C 0.38521 0.10654 0.43648 0.0
C732 C 0.38286 0.15854 0.43874 0.0
C733 C 0.39893 0.08402 0.44394 0.0
C734 C 0.42309 0.0887 0.46274 0.0
C735 C 0.39551 0.13372 0.44828 0.0
C736 C 0.43239 0.11609 0.47458 0.0
C737 C 0.38583 0.18226 0.4573 0.0
C738 C 0.35908 0.18239 0.39974 0.0
N739 N 0.41855 0.13763 0.46715 0.0
N740 N 0.36946 0.15922 0.4107 0.0
H741 H 0.83806 0.39655 0.34226 0.0
H742 H 0.90375 0.45762 0.50239 0.0
H743 H 0.80158 0.37244 0.42841 0.0
H744 H 0.95191 0.46212 0.42403 0.0
H745 H 0.86538 0.42847 0.4742 0.0
H746 H 0.87893 0.42334 0.36998 0.0
C747 C 0.8386 0.39696 0.36694 0.0
C748 C 0.81638 0.3821 0.38303 0.0
C749 C 0.88435 0.43558 0.46312 0.0
C750 C 0.86296 0.41264 0.41481 0.0
C751 C 0.90631 0.45227 0.47924 0.0
C752 C 0.9311 0.46234 0.46555 0.0
C753 C 0.88683 0.42916 0.43274 0.0
C754 C 0.93321 0.45462 0.4355 0.0
C755 C 0.86199 0.41204 0.38274 0.0
C756 C 0.8183 0.38322 0.41504 0.0
N757 N 0.91124 0.43873 0.41994 0.0
N758 N 0.84102 0.39827 0.42976 0.0
H759 H 0.68939 0.85065 0.4007 0.0
H760 H 0.54328 0.87623 0.44186 0.0
H761 H 0.61282 0.79376 0.3777 0.0
H762 H 0.61731 0.93888 0.45967 0.0
H763 H 0.56938 0.84576 0.41933 0.0
H764 H 0.66442 0.88293 0.42342 0.0
C765 C 0.66736 0.84489 0.40045 0.0
C766 C 0.65322 0.8194 0.38713 0.0
C767 C 0.58004 0.86619 0.428 0.0
C768 C 0.62454 0.85639 0.41297 0.0
C769 C 0.5651 0.8837 0.44094 0.0
C770 C 0.57806 0.91033 0.45255 0.0
C771 C 0.60837 0.8751 0.42662 0.0
C772 C 0.60644 0.91867 0.45071 0.0
C773 C 0.65313 0.86343 0.41329 0.0
C774 C 0.62465 0.81331 0.38721 0.0
N775 N 0.62069 0.90106 0.43803 0.0
N776 N 0.61134 0.83158 0.39994 0.0
H777 H 0.18099 0.63861 0.40285 0.0
H778 H 0.04897 0.51531 0.38618 0.0
H779 H 0.14885 0.60468 0.31553 0.0
H780 H 0.06639 0.56967 0.46368 0.0
H781 H 0.08493 0.54795 0.35947 0.0
H782 H 0.13898 0.61398 0.42537 0.0
C783 C 0.16503 0.62639 0.38822 0.0
C784 C 0.16881 0.62363 0.35717 0.0
C785 C 0.08058 0.55297 0.38213 0.0
C786 C 0.12067 0.59467 0.3832 0.0
C787 C 0.05999 0.53436 0.39739 0.0
C788 C 0.05463 0.53963 0.42729 0.0
C789 C 0.09629 0.57677 0.39706 0.0
C790 C 0.06967 0.5647 0.44063 0.0
C791 C 0.14103 0.61216 0.4012 0.0
C792 C 0.14733 0.60694 0.33969 0.0
N793 N 0.09006 0.58205 0.42564 0.0
N794 N 0.12439 0.59288 0.35299 0.0
H795 H 0.38203 0.81661 0.60982 0.0
H796 H 0.50727 0.94707 0.62597 0.0
H797 H 0.41921 0.84348 0.69804 0.0
H798 H 0.44859 0.94103 0.54855 0.0
H799 H 0.4763 0.90853 0.65276 0.0
H800 H 0.40697 0.86127 0.58653 0.0
C801 C 0.3951 0.83195 0.62445 0.0
C802 C 0.39859 0.82588 0.65605 0.0
C803 C 0.47007 0.91598 0.63008 0.0
C804 C 0.42781 0.87694 0.62918 0.0
C805 C 0.48772 0.938 0.6148 0.0
C806 C 0.4806 0.94732 0.58493 0.0
C807 C 0.44537 0.90275 0.61518 0.0
C808 C 0.45496 0.93467 0.57158 0.0
C809 C 0.40946 0.85745 0.61104 0.0
C810 C 0.41631 0.84665 0.67352 0.0
N811 N 0.43849 0.91276 0.58658 0.0
N812 N 0.43046 0.87102 0.65983 0.0
H813 H 0.17008 0.31069 0.62273 0.0
H814 H 0.14003 0.46311 0.5573 0.0
H815 H 0.22129 0.39347 0.64044 0.0
H816 H 0.07623 0.38684 0.55816 0.0
H817 H 0.17181 0.4351 0.58105 0.0
H818 H 0.13719 0.33555 0.59301 0.0
C819 C 0.17444 0.33401 0.62021 0.0
C820 C 0.19826 0.35011 0.63433 0.0
C821 C 0.15088 0.42434 0.57619 0.0
C822 C 0.16114 0.37844 0.60044 0.0
C823 C 0.13258 0.44039 0.56254 0.0
C824 C 0.10518 0.42747 0.55611 0.0
C825 C 0.14198 0.39494 0.58369 0.0
C826 C 0.09708 0.39776 0.56311 0.0
C827 C 0.15567 0.34814 0.60344 0.0
C828 C 0.20299 0.38024 0.6304 0.0
N829 N 0.11541 0.38245 0.5767 0.0
N830 N 0.18467 0.39333 0.61389 0.0
H831 H 0.60639 0.21718 0.6184 0.0
H832 H 0.57543 0.05315 0.56875 0.0
H833 H 0.66799 0.16499 0.63019 0.0
H834 H 0.53117 0.11802 0.53187 0.0
H835 H 0.60738 0.0909 0.59674 0.0
H836 H 0.57581 0.17779 0.59273 0.0
C837 C 0.61342 0.19731 0.61584 0.0
C838 C 0.63983 0.19444 0.62653 0.0
C839 C 0.59063 0.0967 0.58244 0.0
C840 C 0.60479 0.14904 0.59682 0.0
C841 C 0.57239 0.07519 0.56652 0.0
C842 C 0.55048 0.0823 0.54791 0.0
C843 C 0.58661 0.12533 0.58006 0.0
C844 C 0.54763 0.11131 0.54587 0.0
C845 C 0.596 0.17486 0.60095 0.0
C846 C 0.64788 0.16822 0.62209 0.0
N847 N 0.56529 0.13156 0.56181 0.0
N848 N 0.6304 0.14647 0.60767 0.0
H849 H 0.85324 0.66026 0.63916 0.0
H850 H 0.90003 0.55703 0.53125 0.0
H851 H 0.80691 0.63571 0.55496 0.0
H852 H 0.95988 0.6222 0.57672 0.0
H853 H 0.86433 0.58204 0.54327 0.0
H854 H 0.89203 0.6431 0.62061 0.0
C855 C 0.85144 0.65149 0.61668 0.0
C856 C 0.82709 0.64924 0.59847 0.0
C857 C 0.88534 0.59101 0.55027 0.0
C858 C 0.87066 0.62934 0.57757 0.0
C859 C 0.90573 0.57681 0.54337 0.0
C860 C 0.93301 0.58777 0.5526 0.0
C861 C 0.89218 0.61574 0.56745 0.0
C862 C 0.93911 0.61309 0.56901 0.0
C863 C 0.87347 0.64189 0.6061 0.0
C864 C 0.82551 0.63783 0.56951 0.0
N865 N 0.91875 0.62607 0.57631 0.0
N866 N 0.84693 0.62783 0.56008 0.0
H867 H 0.32728 0.37497 0.21653 0.0
H868 H 0.44425 0.48967 0.1422 0.0
H869 H 0.36572 0.45284 0.26105 0.0
H870 H 0.38874 0.4252 0.09075 0.0
H871 H 0.41495 0.47841 0.18528 0.0
H872 H 0.34849 0.39447 0.16941 0.0
C873 C 0.33997 0.39638 0.21613 0.0
C874 C 0.34499 0.41233 0.24253 0.0
C875 C 0.40906 0.467 0.16441 0.0
C876 C 0.36968 0.43463 0.18905 0.0
C877 C 0.42582 0.47334 0.13984 0.0
C878 C 0.41916 0.45805 0.11297 0.0
C879 C 0.38575 0.44495 0.16219 0.0
C880 C 0.39489 0.4373 0.11113 0.0
C881 C 0.35203 0.40755 0.18929 0.0
C882 C 0.36142 0.43999 0.24102 0.0
N883 N 0.37927 0.43111 0.13554 0.0
N884 N 0.3736 0.45015 0.21477 0.0
H885 H 0.39707 0.66218 0.85576 0.0
H886 H 0.44116 0.52617 0.94696 0.0
H887 H 0.36627 0.57452 0.8296 0.0
H888 H 0.49172 0.61145 0.94586 0.0
H889 H 0.40745 0.54433 0.91214 0.0
H890 H 0.42583 0.64435 0.89655 0.0
C891 C 0.39631 0.63917 0.85844 0.0
C892 C 0.37945 0.61993 0.83858 0.0
C893 C 0.42578 0.55911 0.91982 0.0
C894 C 0.41202 0.59934 0.88616 0.0
C895 C 0.44495 0.54886 0.93994 0.0
C896 C 0.46938 0.56734 0.9494 0.0
C897 C 0.43082 0.58815 0.90942 0.0
C898 C 0.47325 0.59642 0.93913 0.0
C899 C 0.41268 0.62903 0.88195 0.0
C900 C 0.37878 0.59026 0.84422 0.0
N901 N 0.45421 0.60591 0.91971 0.0
N902 N 0.39491 0.5809 0.86737 0.0
H903 H 0.39329 0.32503 0.86043 0.0
H904 H 0.45885 0.48821 0.89722 0.0
H905 H 0.37598 0.39866 0.80585 0.0
H906 H 0.46044 0.41834 0.96438 0.0
H907 H 0.42889 0.45503 0.8634 0.0
H908 H 0.41876 0.35789 0.89848 0.0
C909 C 0.39479 0.34806 0.85647 0.0
C910 C 0.38243 0.35907 0.82988 0.0
C911 C 0.43554 0.44689 0.8856 0.0
C912 C 0.41151 0.39672 0.87327 0.0
C913 C 0.4527 0.46585 0.90494 0.0
C914 C 0.46225 0.45599 0.93362 0.0
C915 C 0.42808 0.4176 0.89467 0.0
C916 C 0.45346 0.42683 0.94249 0.0
C917 C 0.40917 0.36677 0.87828 0.0
C918 C 0.38484 0.38911 0.82611 0.0
N919 N 0.43711 0.40853 0.92291 0.0
N920 N 0.39921 0.4068 0.84739 0.0
H921 H 0.67907 0.39988 0.83141 0.0
H922 H 0.54703 0.46494 0.85665 0.0
H923 H 0.60471 0.38534 0.77379 0.0
H924 H 0.61249 0.46695 0.9264 0.0
H925 H 0.57133 0.44085 0.82372 0.0
H926 H 0.65823 0.42884 0.86421 0.0
C927 C 0.65844 0.40288 0.82557 0.0
C928 C 0.64353 0.38994 0.79991 0.0
C929 C 0.58052 0.44653 0.84617 0.0
C930 C 0.61969 0.42308 0.8372 0.0
C931 C 0.56663 0.46041 0.86511 0.0
C932 C 0.57754 0.46777 0.89461 0.0
C933 C 0.6057 0.43977 0.85656 0.0
C934 C 0.60324 0.46156 0.9039 0.0
C935 C 0.64655 0.41929 0.84437 0.0
C936 C 0.61684 0.39445 0.79355 0.0
N937 N 0.61642 0.44775 0.88499 0.0
N938 N 0.60587 0.41059 0.81198 0.0
H939 H 0.63057 0.58106 0.74469 0.0
H940 H 0.60955 0.59982 0.91939 0.0
H941 H 0.6378 0.66428 0.78295 0.0
H942 H 0.56064 0.52927 0.87001 0.0
H943 H 0.62958 0.61978 0.87178 0.0
H944 H 0.61339 0.55791 0.79307 0.0
C945 C 0.62852 0.59434 0.76335 0.0
C946 C 0.6353 0.62449 0.76005 0.0
C947 C 0.61461 0.59981 0.87151 0.0
C948 C 0.61653 0.59846 0.81502 0.0
C949 C 0.60328 0.58829 0.89865 0.0
C950 C 0.58328 0.56289 0.89864 0.0
C951 C 0.60625 0.58558 0.8443 0.0
C952 C 0.57592 0.54893 0.87103 0.0
C953 C 0.61875 0.58122 0.79074 0.0
C954 C 0.63247 0.64095 0.78468 0.0
N955 N 0.58746 0.56047 0.84487 0.0
N956 N 0.62346 0.6277 0.81129 0.0
H957 H 0.62185 0.67937 0.15562 0.0
H958 H 0.5514 0.51833 0.11686 0.0
H959 H 0.63784 0.60454 0.20897 0.0
H960 H 0.55297 0.58912 0.05028 0.0
H961 H 0.58304 0.55001 0.15077 0.0
H962 H 0.59622 0.64749 0.11689 0.0
C963 C 0.62006 0.65626 0.15915 0.0
C964 C 0.63198 0.64463 0.18567 0.0
C965 C 0.57674 0.55865 0.12865 0.0
C966 C 0.60265 0.60805 0.14146 0.0
C967 C 0.55863 0.54056 0.10927 0.0
C968 C 0.54944 0.55116 0.08077 0.0
C969 C 0.58547 0.58782 0.11981 0.0
C970 C 0.55963 0.58008 0.07204 0.0
C971 C 0.60558 0.6381 0.13694 0.0
C972 C 0.62924 0.61453 0.18882 0.0
N973 N 0.57682 0.59756 0.09168 0.0
N974 N 0.61469 0.59734 0.16719 0.0
H975 H 0.34278 0.58541 0.21735 0.0
H976 H 0.46547 0.58903 0.11416 0.0
H977 H 0.39119 0.6654 0.18314 0.0
H978 H 0.39415 0.52135 0.1048 0.0
H979 H 0.44041 0.61538 0.14448 0.0
H980 H 0.36243 0.55951 0.18068 0.0
C981 C 0.35725 0.59767 0.20204 0.0
C982 C 0.36548 0.62781 0.20384 0.0
C983 C 0.4301 0.59491 0.13559 0.0
C984 C 0.38848 0.59795 0.16231 0.0
C985 C 0.44439 0.57985 0.11836 0.0
C986 C 0.43175 0.55314 0.10685 0.0
C987 C 0.40312 0.58286 0.14219 0.0
C988 C 0.40444 0.54209 0.11302 0.0
C989 C 0.3685 0.58276 0.18116 0.0
C990 C 0.38469 0.64219 0.18348 0.0
N991 N 0.39107 0.55684 0.13072 0.0
N992 N 0.39572 0.62713 0.16394 0.0
H993 H 0.61701 0.34839 0.15857 0.0
H994 H 0.57077 0.48359 0.06821 0.0
H995 H 0.64784 0.43598 0.18494 0.0
H996 H 0.51927 0.399 0.0741 0.0
H997 H 0.60565 0.46569 0.10175 0.0
H998 H 0.58753 0.36621 0.11858 0.0
C999 C 0.61764 0.37138 0.15609 0.0
C1000 C 0.63467 0.39059 0.17584 0.0
C1001 C 0.58685 0.45101 0.09533 0.0
C1002 C 0.6013 0.41118 0.12913 0.0
C1003 C 0.56705 0.46109 0.07597 0.0
C1004 C 0.54208 0.44271 0.0683 0.0
C1005 C 0.58185 0.42221 0.10662 0.0
C1006 C 0.5382 0.4139 0.07946 0.0
C1007 C 0.60087 0.38152 0.13304 0.0
C1008 C 0.63518 0.42027 0.17042 0.0
N1009 N 0.55785 0.40455 0.09802 0.0
N1010 N 0.61864 0.42964 0.14769 0.0
loop_
_geom_bond_atom_site_label_1
_geom_bond_atom_site_label_2
_geom_bond_distance
_geom_bond_site_symmetry_2
_ccdc_geom_bond_type
C0 C1 1.391 . S
C0 C4 1.391 . S
C0 H42 0.948 . S
C1 C0 1.391 . S
C1 C2 1.391 . S
C2 C1 1.391 . S
C2 H58 0.947 . S
C2 C59 1.392 . S
C3 C4 1.391 . S
C3 C7 1.397 . S
C3 C59 1.419 . S
C4 C0 1.391 . S
C4 C3 1.391 . S
C4 C5 1.399 . S
C5 C4 1.399 . S
C5 C8 1.396 . S
C5 C17 1.453 . S
C5 C18 1.684 . S
H6 C30 0.948 . S
C7 C3 1.397 . S
C7 C8 1.394 . S
C7 C26 1.723 . S
C8 C5 1.396 . S
C8 C7 1.394 . S
C8 C38 1.723 . S
H9 C32 0.947 . S
H10 C33 0.948 . S
H11 C39 0.982 . S
H12 C40 0.979 . S
H13 C40 0.980 . S
H14 C40 0.983 . S
H15 C39 0.979 . S
H16 C39 0.977 . S
C17 C5 1.453 . S
C17 H46 0.982 . S
C17 H47 0.979 . S
C17 H48 0.977 . S
C18 C5 1.684 . S
C18 H43 0.979 . S
C18 H44 0.980 . S
C18 H45 0.983 . S
C19 C20 1.391 . S
C19 C24 1.391 . S
C19 H49 0.948 . S
C20 C19 1.391 . S
C20 C21 1.391 . S
C21 C20 1.391 . S
C21 C22 1.392 . S
C21 H50 0.947 . S
C22 C21 1.392 . S
C22 C23 1.419 . S
C22 H51 0.948 . S
C23 C22 1.419 . S
C23 C24 1.391 . S
C23 C27 1.397 . S
C24 C19 1.391 . S
C24 C23 1.391 . S
C24 C25 1.399 . S
C25 C24 1.399 . S
C25 C26 1.396 . S
C25 C28 1.453 . S
C25 C29 1.684 . S
C26 C7 1.723 . S
C26 C25 1.396 . S
C26 C27 1.394 . S
C27 C23 1.397 . S
C27 C26 1.394 . S
C27 C37 1.723 . S
C28 C25 1.453 . S
C28 H52 0.982 . S
C28 H53 0.979 . S
C28 H54 0.977 . S
C29 C25 1.684 . S
C29 H55 0.979 . S
C29 H56 0.980 . S
C29 H57 0.983 . S
C30 H6 0.948 . S
C30 C31 1.391 . S
C30 C35 1.391 . S
C31 C30 1.391 . S
C31 C32 1.391 . S
C32 H9 0.947 . S
C32 C31 1.391 . S
C32 C33 1.392 . S
C33 H10 0.948 . S
C33 C32 1.392 . S
C33 C34 1.419 . S
C34 C33 1.419 . S
C34 C35 1.391 . S
C34 C38 1.397 . S
C35 C30 1.391 . S
C35 C34 1.391 . S
C35 C36 1.399 . S
C36 C35 1.399 . S
C36 C37 1.396 . S
C36 C39 1.453 . S
C36 C40 1.684 . S
C37 C27 1.723 . S
C37 C36 1.396 . S
C37 C38 1.394 . S
C38 C8 1.723 . S
C38 C34 1.397 . S
C38 C37 1.394 . S
C39 H11 0.982 . S
C39 H15 0.979 . S
C39 H16 0.977 . S
C39 C36 1.453 . S
C40 H12 0.979 . S
C40 H13 0.980 . S
C40 H14 0.983 . S
C40 C36 1.684 . S
H41 C59 0.948 . S
H42 C0 0.948 . S
H43 C18 0.979 . S
H44 C18 0.980 . S
H45 C18 0.983 . S
H46 C17 0.982 . S
H47 C17 0.979 . S
H48 C17 0.977 . S
H49 C19 0.948 . S
H50 C21 0.947 . S
H51 C22 0.948 . S
H52 C28 0.982 . S
H53 C28 0.979 . S
H54 C28 0.977 . S
H55 C29 0.979 . S
H56 C29 0.980 . S
H57 C29 0.983 . S
H58 C2 0.947 . S
C59 C2 1.392 . S
C59 C3 1.419 . S
C59 H41 0.948 . S
C60 C61 1.391 . S
C60 C64 1.391 . S
C60 H102 0.948 . S
C61 C60 1.391 . S
C61 C62 1.391 . S
C62 C61 1.391 . S
C62 H118 0.947 . S
C62 C119 1.392 . S
C63 C64 1.391 . S
C63 C67 1.397 . S
C63 C119 1.419 . S
C64 C60 1.391 . S
C64 C63 1.391 . S
C64 C65 1.399 . S
C65 C64 1.399 . S
C65 C68 1.396 . S
C65 C77 1.453 . S
C65 C78 1.684 . S
H66 C90 0.948 . S
C67 C63 1.397 . S
C67 C68 1.394 . S
C67 C86 1.723 . S
C68 C65 1.396 . S
C68 C67 1.394 . S
C68 C98 1.723 . S
H69 C92 0.947 . S
H70 C93 0.948 . S
H71 C99 0.982 . S
H72 C100 0.979 . S
H73 C100 0.980 . S
H74 C100 0.983 . S
H75 C99 0.979 . S
H76 C99 0.977 . S
C77 C65 1.453 . S
C77 H106 0.982 . S
C77 H107 0.979 . S
C77 H108 0.977 . S
C78 C65 1.684 . S
C78 H103 0.979 . S
C78 H104 0.980 . S
C78 H105 0.983 . S
C79 C80 1.391 . S
C79 C84 1.391 . S
C79 H109 0.948 . S
C80 C79 1.391 . S
C80 C81 1.391 . S
C81 C80 1.391 . S
C81 C82 1.392 . S
C81 H110 0.947 . S
C82 C81 1.392 . S
C82 C83 1.419 . S
C82 H111 0.948 . S
C83 C82 1.419 . S
C83 C84 1.391 . S
C83 C87 1.397 . S
C84 C79 1.391 . S
C84 C83 1.391 . S
C84 C85 1.399 . S
C85 C84 1.399 . S
C85 C86 1.396 . S
C85 C88 1.453 . S
C85 C89 1.684 . S
C86 C67 1.723 . S
C86 C85 1.396 . S
C86 C87 1.394 . S
C87 C83 1.397 . S
C87 C86 1.394 . S
C87 C97 1.723 . S
C88 C85 1.453 . S
C88 H112 0.982 . S
C88 H113 0.979 . S
C88 H114 0.977 . S
C89 C85 1.684 . S
C89 H115 0.979 . S
C89 H116 0.980 . S
C89 H117 0.983 . S
C90 H66 0.948 . S
C90 C91 1.391 . S
C90 C95 1.391 . S
C91 C90 1.391 . S
C91 C92 1.391 . S
C92 H69 0.947 . S
C92 C91 1.391 . S
C92 C93 1.392 . S
C93 H70 0.948 . S
C93 C92 1.392 . S
C93 C94 1.419 . S
C94 C93 1.419 . S
C94 C95 1.391 . S
C94 C98 1.397 . S
C95 C90 1.391 . S
C95 C94 1.391 . S
C95 C96 1.399 . S
C96 C95 1.399 . S
C96 C97 1.396 . S
C96 C99 1.453 . S
C96 C100 1.684 . S
C97 C87 1.723 . S
C97 C96 1.396 . S
C97 C98 1.394 . S
C98 C68 1.723 . S
C98 C94 1.397 . S
C98 C97 1.394 . S
C99 H71 0.982 . S
C99 H75 0.979 . S
C99 H76 0.977 . S
C99 C96 1.453 . S
C100 H72 0.979 . S
C100 H73 0.980 . S
C100 H74 0.983 . S
C100 C96 1.684 . S
H101 C119 0.948 . S
H102 C60 0.948 . S
H103 C78 0.979 . S
H104 C78 0.980 . S
H105 C78 0.983 . S
H106 C77 0.982 . S
H107 C77 0.979 . S
H108 C77 0.977 . S
H109 C79 0.948 . S
H110 C81 0.947 . S
H111 C82 0.948 . S
H112 C88 0.982 . S
H113 C88 0.979 . S
H114 C88 0.977 . S
H115 C89 0.979 . S
H116 C89 0.980 . S
H117 C89 0.983 . S
H118 C62 0.947 . S
C119 C62 1.392 . S
C119 C63 1.419 . S
C119 H101 0.948 . S
C120 C121 1.391 . S
C120 C124 1.391 . S
C120 H162 0.948 . S
C121 C120 1.391 . S
C121 C122 1.391 . S
C122 C121 1.391 . S
C122 H178 0.947 . S
C122 C179 1.392 . S
C123 C124 1.391 . S
C123 C127 1.397 . S
C123 C179 1.419 . S
C124 C120 1.391 . S
C124 C123 1.391 . S
C124 C125 1.399 . S
C125 C124 1.399 . S
C125 C128 1.396 . S
C125 C137 1.453 . S
C125 C138 1.684 . S
H126 C150 0.948 . S
C127 C123 1.397 . S
C127 C128 1.394 . S
C127 C146 1.723 . S
C128 C125 1.396 . S
C128 C127 1.394 . S
C128 C158 1.723 . S
H129 C152 0.947 . S
H130 C153 0.948 . S
H131 C159 0.982 . S
H132 C160 0.979 . S
H133 C160 0.980 . S
H134 C160 0.983 . S
H135 C159 0.979 . S
H136 C159 0.977 . S
C137 C125 1.453 . S
C137 H166 0.982 . S
C137 H167 0.979 . S
C137 H168 0.977 . S
C138 C125 1.684 . S
C138 H163 0.979 . S
C138 H164 0.980 . S
C138 H165 0.983 . S
C139 C140 1.391 . S
C139 C144 1.391 . S
C139 H169 0.948 . S
C140 C139 1.391 . S
C140 C141 1.391 . S
C141 C140 1.391 . S
C141 C142 1.392 . S
C141 H170 0.947 . S
C142 C141 1.392 . S
C142 C143 1.419 . S
C142 H171 0.948 . S
C143 C142 1.419 . S
C143 C144 1.391 . S
C143 C147 1.397 . S
C144 C139 1.391 . S
C144 C143 1.391 . S
C144 C145 1.399 . S
C145 C144 1.399 . S
C145 C146 1.396 . S
C145 C148 1.453 . S
C145 C149 1.684 . S
C146 C127 1.723 . S
C146 C145 1.396 . S
C146 C147 1.394 . S
C147 C143 1.397 . S
C147 C146 1.394 . S
C147 C157 1.723 . S
C148 C145 1.453 . S
C148 H172 0.982 . S
C148 H173 0.979 . S
C148 H174 0.977 . S
C149 C145 1.684 . S
C149 H175 0.979 . S
C149 H176 0.980 . S
C149 H177 0.983 . S
C150 H126 0.948 . S
C150 C151 1.391 . S
C150 C155 1.391 . S
C151 C150 1.391 . S
C151 C152 1.391 . S
C152 H129 0.947 . S
C152 C151 1.391 . S
C152 C153 1.392 . S
C153 H130 0.948 . S
C153 C152 1.392 . S
C153 C154 1.419 . S
C154 C153 1.419 . S
C154 C155 1.391 . S
C154 C158 1.397 . S
C155 C150 1.391 . S
C155 C154 1.391 . S
C155 C156 1.399 . S
C156 C155 1.399 . S
C156 C157 1.396 . S
C156 C159 1.453 . S
C156 C160 1.684 . S
C157 C147 1.723 . S
C157 C156 1.396 . S
C157 C158 1.394 . S
C158 C128 1.723 . S
C158 C154 1.397 . S
C158 C157 1.394 . S
C159 H131 0.982 . S
C159 H135 0.979 . S
C159 H136 0.977 . S
C159 C156 1.453 . S
C160 H132 0.979 . S
C160 H133 0.980 . S
C160 H134 0.983 . S
C160 C156 1.684 . S
H161 C179 0.948 . S
H162 C120 0.948 . S
H163 C138 0.979 . S
H164 C138 0.980 . S
H165 C138 0.983 . S
H166 C137 0.982 . S
H167 C137 0.979 . S
H168 C137 0.977 . S
H169 C139 0.948 . S
H170 C141 0.947 . S
H171 C142 0.948 . S
H172 C148 0.982 . S
H173 C148 0.979 . S
H174 C148 0.977 . S
H175 C149 0.979 . S
H176 C149 0.980 . S
H177 C149 0.983 . S
H178 C122 0.947 . S
C179 C122 1.392 . S
C179 C123 1.419 . S
C179 H161 0.948 . S
C180 C181 1.391 . S
C180 C184 1.391 . S
C180 H222 0.948 . S
C181 C180 1.391 . S
C181 C182 1.391 . S
C182 C181 1.391 . S
C182 H238 0.947 . S
C182 C239 1.392 . S
C183 C184 1.391 . S
C183 C187 1.397 . S
C183 C239 1.419 . S
C184 C180 1.391 . S
C184 C183 1.391 . S
C184 C185 1.399 . S
C185 C184 1.399 . S
C185 C188 1.396 . S
C185 C197 1.453 . S
C185 C198 1.684 . S
H186 C210 0.948 . S
C187 C183 1.397 . S
C187 C188 1.394 . S
C187 C206 1.723 . S
C188 C185 1.396 . S
C188 C187 1.394 . S
C188 C218 1.723 . S
H189 C212 0.947 . S
H190 C213 0.948 . S
H191 C219 0.982 . S
H192 C220 0.979 . S
H193 C220 0.980 . S
H194 C220 0.983 . S
H195 C219 0.979 . S
H196 C219 0.977 . S
C197 C185 1.453 . S
C197 H226 0.982 . S
C197 H227 0.979 . S
C197 H228 0.977 . S
C198 C185 1.684 . S
C198 H223 0.979 . S
C198 H224 0.980 . S
C198 H225 0.983 . S
C199 C200 1.391 . S
C199 C204 1.391 . S
C199 H229 0.948 . S
C200 C199 1.391 . S
C200 C201 1.391 . S
C201 C200 1.391 . S
C201 C202 1.392 . S
C201 H230 0.947 . S
C202 C201 1.392 . S
C202 C203 1.419 . S
C202 H231 0.948 . S
C203 C202 1.419 . S
C203 C204 1.391 . S
C203 C207 1.397 . S
C204 C199 1.391 . S
C204 C203 1.391 . S
C204 C205 1.399 . S
C205 C204 1.399 . S
C205 C206 1.396 . S
C205 C208 1.453 . S
C205 C209 1.684 . S
C206 C187 1.723 . S
C206 C205 1.396 . S
C206 C207 1.394 . S
C207 C203 1.397 . S
C207 C206 1.394 . S
C207 C217 1.723 . S
C208 C205 1.453 . S
C208 H232 0.982 . S
C208 H233 0.979 . S
C208 H234 0.977 . S
C209 C205 1.684 . S
C209 H235 0.979 . S
C209 H236 0.980 . S
C209 H237 0.983 . S
C210 H186 0.948 . S
C210 C211 1.391 . S
C210 C215 1.391 . S
C211 C210 1.391 . S
C211 C212 1.391 . S
C212 H189 0.947 . S
C212 C211 1.391 . S
C212 C213 1.392 . S
C213 H190 0.948 . S
C213 C212 1.392 . S
C213 C214 1.419 . S
C214 C213 1.419 . S
C214 C215 1.391 . S
C214 C218 1.397 . S
C215 C210 1.391 . S
C215 C214 1.391 . S
C215 C216 1.399 . S
C216 C215 1.399 . S
C216 C217 1.396 . S
C216 C219 1.453 . S
C216 C220 1.684 . S
C217 C207 1.723 . S
C217 C216 1.396 . S
C217 C218 1.394 . S
C218 C188 1.723 . S
C218 C214 1.397 . S
C218 C217 1.394 . S
C219 H191 0.982 . S
C219 H195 0.979 . S
C219 H196 0.977 . S
C219 C216 1.453 . S
C220 H192 0.979 . S
C220 H193 0.980 . S
C220 H194 0.983 . S
C220 C216 1.684 . S
H221 C239 0.948 . S
H222 C180 0.948 . S
H223 C198 0.979 . S
H224 C198 0.980 . S
H225 C198 0.983 . S
H226 C197 0.982 . S
H227 C197 0.979 . S
H228 C197 0.977 . S
H229 C199 0.948 . S
H230 C201 0.947 . S
H231 C202 0.948 . S
H232 C208 0.982 . S
H233 C208 0.979 . S
H234 C208 0.977 . S
H235 C209 0.979 . S
H236 C209 0.980 . S
H237 C209 0.983 . S
H238 C182 0.947 . S
C239 C182 1.392 . S
C239 C183 1.419 . S
C239 H221 0.948 . S
C240 C241 1.391 . S
C240 C244 1.391 . S
C240 H282 0.948 . S
C241 C240 1.391 . S
C241 C242 1.391 . S
C242 C241 1.391 . S
C242 H298 0.947 . S
C242 C299 1.392 . S
C243 C244 1.391 . S
C243 C247 1.397 . S
C243 C299 1.419 . S
C244 C240 1.391 . S
C244 C243 1.391 . S
C244 C245 1.399 . S
C245 C244 1.399 . S
C245 C248 1.396 . S
C245 C257 1.453 . S
C245 C258 1.684 . S
H246 C270 0.948 . S
C247 C243 1.397 . S
C247 C248 1.394 . S
C247 C266 1.723 . S
C248 C245 1.396 . S
C248 C247 1.394 . S
C248 C278 1.723 . S
H249 C272 0.947 . S
H250 C273 0.948 . S
H251 C279 0.982 . S
H252 C280 0.979 . S
H253 C280 0.980 . S
H254 C280 0.983 . S
H255 C279 0.979 . S
H256 C279 0.977 . S
C257 C245 1.453 . S
C257 H286 0.982 . S
C257 H287 0.979 . S
C257 H288 0.977 . S
C258 C245 1.684 . S
C258 H283 0.979 . S
C258 H284 0.980 . S
C258 H285 0.983 . S
C259 C260 1.391 . S
C259 C264 1.391 . S
C259 H289 0.948 . S
C260 C259 1.391 . S
C260 C261 1.391 . S
C261 C260 1.391 . S
C261 C262 1.392 . S
C261 H290 0.947 . S
C262 C261 1.392 . S
C262 C263 1.419 . S
C262 H291 0.948 . S
C263 C262 1.419 . S
C263 C264 1.391 . S
C263 C267 1.397 . S
C264 C259 1.391 . S
C264 C263 1.391 . S
C264 C265 1.399 . S
C265 C264 1.399 . S
C265 C266 1.396 . S
C265 C268 1.453 . S
C265 C269 1.684 . S
C266 C247 1.723 . S
C266 C265 1.396 . S
C266 C267 1.394 . S
C267 C263 1.397 . S
C267 C266 1.394 . S
C267 C277 1.723 . S
C268 C265 1.453 . S
C268 H292 0.982 . S
C268 H293 0.979 . S
C268 H294 0.977 . S
C269 C265 1.684 . S
C269 H295 0.979 . S
C269 H296 0.980 . S
C269 H297 0.983 . S
C270 H246 0.948 . S
C270 C271 1.391 . S
C270 C275 1.391 . S
C271 C270 1.391 . S
C271 C272 1.391 . S
C272 H249 0.947 . S
C272 C271 1.391 . S
C272 C273 1.392 . S
C273 H250 0.948 . S
C273 C272 1.392 . S
C273 C274 1.419 . S
C274 C273 1.419 . S
C274 C275 1.391 . S
C274 C278 1.397 . S
C275 C270 1.391 . S
C275 C274 1.391 . S
C275 C276 1.399 . S
C276 C275 1.399 . S
C276 C277 1.396 . S
C276 C279 1.453 . S
C276 C280 1.684 . S
C277 C267 1.723 . S
C277 C276 1.396 . S
C277 C278 1.394 . S
C278 C248 1.723 . S
C278 C274 1.397 . S
C278 C277 1.394 . S
C279 H251 0.982 . S
C279 H255 0.979 . S
C279 H256 0.977 . S
C279 C276 1.453 . S
C280 H252 0.979 . S
C280 H253 0.980 . S
C280 H254 0.983 . S
C280 C276 1.684 . S
H281 C299 0.948 . S
H282 C240 0.948 . S
H283 C258 0.979 . S
H284 C258 0.980 . S
H285 C258 0.983 . S
H286 C257 0.982 . S
H287 C257 0.979 . S
H288 C257 0.977 . S
H289 C259 0.948 . S
H290 C261 0.947 . S
H291 C262 0.948 . S
H292 C268 0.982 . S
H293 C268 0.979 . S
H294 C268 0.977 . S
H295 C269 0.979 . S
H296 C269 0.980 . S
H297 C269 0.983 . S
H298 C242 0.947 . S
C299 C242 1.392 . S
C299 C243 1.419 . S
C299 H281 0.948 . S
C300 C301 1.391 . S
C300 C304 1.391 . S
C300 H342 0.948 . S
C301 C300 1.391 . S
C301 C302 1.391 . S
C302 C301 1.391 . S
C302 H358 0.947 . S
C302 C359 1.392 . S
C303 C304 1.391 . S
C303 C307 1.397 . S
C303 C359 1.419 . S
C304 C300 1.391 . S
C304 C303 1.391 . S
C304 C305 1.399 . S
C305 C304 1.399 . S
C305 C308 1.396 . S
C305 C317 1.453 . S
C305 C318 1.684 . S
H306 C330 0.948 . S
C307 C303 1.397 . S
C307 C308 1.394 . S
C307 C326 1.723 . S
C308 C305 1.396 . S
C308 C307 1.394 . S
C308 C338 1.723 . S
H309 C332 0.947 . S
H310 C333 0.948 . S
H311 C339 0.982 . S
H312 C340 0.979 . S
H313 C340 0.980 . S
H314 C340 0.983 . S
H315 C339 0.979 . S
H316 C339 0.977 . S
C317 C305 1.453 . S
C317 H346 0.982 . S
C317 H347 0.979 . S
C317 H348 0.977 . S
C318 C305 1.684 . S
C318 H343 0.979 . S
C318 H344 0.980 . S
C318 H345 0.983 . S
C319 C320 1.391 . S
C319 C324 1.391 . S
C319 H349 0.948 . S
C320 C319 1.391 . S
C320 C321 1.391 . S
C321 C320 1.391 . S
C321 C322 1.392 . S
C321 H350 0.947 . S
C322 C321 1.392 . S
C322 C323 1.419 . S
C322 H351 0.948 . S
C323 C322 1.419 . S
C323 C324 1.391 . S
C323 C327 1.397 . S
C324 C319 1.391 . S
C324 C323 1.391 . S
C324 C325 1.399 . S
C325 C324 1.399 . S
C325 C326 1.396 . S
C325 C328 1.453 . S
C325 C329 1.684 . S
C326 C307 1.723 . S
C326 C325 1.396 . S
C326 C327 1.394 . S
C327 C323 1.397 . S
C327 C326 1.394 . S
C327 C337 1.723 . S
C328 C325 1.453 . S
C328 H352 0.982 . S
C328 H353 0.979 . S
C328 H354 0.977 . S
C329 C325 1.684 . S
C329 H355 0.979 . S
C329 H356 0.980 . S
C329 H357 0.983 . S
C330 H306 0.948 . S
C330 C331 1.391 . S
C330 C335 1.391 . S
C331 C330 1.391 . S
C331 C332 1.391 . S
C332 H309 0.947 . S
C332 C331 1.391 . S
C332 C333 1.392 . S
C333 H310 0.948 . S
C333 C332 1.392 . S
C333 C334 1.419 . S
C334 C333 1.419 . S
C334 C335 1.391 . S
C334 C338 1.397 . S
C335 C330 1.391 . S
C335 C334 1.391 . S
C335 C336 1.399 . S
C336 C335 1.399 . S
C336 C337 1.396 . S
C336 C339 1.453 . S
C336 C340 1.684 . S
C337 C327 1.723 . S
C337 C336 1.396 . S
C337 C338 1.394 . S
C338 C308 1.723 . S
C338 C334 1.397 . S
C338 C337 1.394 . S
C339 H311 0.982 . S
C339 H315 0.979 . S
C339 H316 0.977 . S
C339 C336 1.453 . S
C340 H312 0.979 . S
C340 H313 0.980 . S
C340 H314 0.983 . S
C340 C336 1.684 . S
H341 C359 0.948 . S
H342 C300 0.948 . S
H343 C318 0.979 . S
H344 C318 0.980 . S
H345 C318 0.983 . S
H346 C317 0.982 . S
H347 C317 0.979 . S
H348 C317 0.977 . S
H349 C319 0.948 . S
H350 C321 0.947 . S
H351 C322 0.948 . S
H352 C328 0.982 . S
H353 C328 0.979 . S
H354 C328 0.977 . S
H355 C329 0.979 . S
H356 C329 0.980 . S
H357 C329 0.983 . S
H358 C302 0.947 . S
C359 C302 1.392 . S
C359 C303 1.419 . S
C359 H341 0.948 . S
C360 C361 1.391 . S
C360 C364 1.391 . S
C360 H402 0.948 . S
C361 C360 1.391 . S
C361 C362 1.391 . S
C362 C361 1.391 . S
C362 H418 0.947 . S
C362 C419 1.392 . S
C363 C364 1.391 . S
C363 C367 1.397 . S
C363 C419 1.419 . S
C364 C360 1.391 . S
C364 C363 1.391 . S
C364 C365 1.399 . S
C365 C364 1.399 . S
C365 C368 1.396 . S
C365 C377 1.453 . S
C365 C378 1.684 . S
H366 C390 0.948 . S
C367 C363 1.397 . S
C367 C368 1.394 . S
C367 C386 1.723 . S
C368 C365 1.396 . S
C368 C367 1.394 . S
C368 C398 1.723 . S
H369 C392 0.947 . S
H370 C393 0.948 . S
H371 C399 0.982 . S
H372 C400 0.979 . S
H373 C400 0.980 . S
H374 C400 0.983 . S
H375 C399 0.979 . S
H376 C399 0.977 . S
C377 C365 1.453 . S
C377 H406 0.982 . S
C377 H407 0.979 . S
C377 H408 0.977 . S
C378 C365 1.684 . S
C378 H403 0.979 . S
C378 H404 0.980 . S
C378 H405 0.983 . S
C379 C380 1.391 . S
C379 C384 1.391 . S
C379 H409 0.948 . S
C380 C379 1.391 . S
C380 C381 1.391 . S
C381 C380 1.391 . S
C381 C382 1.392 . S
C381 H410 0.947 . S
C382 C381 1.392 . S
C382 C383 1.419 . S
C382 H411 0.948 . S
C383 C382 1.419 . S
C383 C384 1.391 . S
C383 C387 1.397 . S
C384 C379 1.391 . S
C384 C383 1.391 . S
C384 C385 1.399 . S
C385 C384 1.399 . S
C385 C386 1.396 . S
C385 C388 1.453 . S
C385 C389 1.684 . S
C386 C367 1.723 . S
C386 C385 1.396 . S
C386 C387 1.394 . S
C387 C383 1.397 . S
C387 C386 1.394 . S
C387 C397 1.723 . S
C388 C385 1.453 . S
C388 H412 0.982 . S
C388 H413 0.979 . S
C388 H414 0.977 . S
C389 C385 1.684 . S
C389 H415 0.979 . S
C389 H416 0.980 . S
C389 H417 0.983 . S
C390 H366 0.948 . S
C390 C391 1.391 . S
C390 C395 1.391 . S
C391 C390 1.391 . S
C391 C392 1.391 . S
C392 H369 0.947 . S
C392 C391 1.391 . S
C392 C393 1.392 . S
C393 H370 0.948 . S
C393 C392 1.392 . S
C393 C394 1.419 . S
C394 C393 1.419 . S
C394 C395 1.391 . S
C394 C398 1.397 . S
C395 C390 1.391 . S
C395 C394 1.391 . S
C395 C396 1.399 . S
C396 C395 1.399 . S
C396 C397 1.396 . S
C396 C399 1.453 . S
C396 C400 1.684 . S
C397 C387 1.723 . S
C397 C396 1.396 . S
C397 C398 1.394 . S
C398 C368 1.723 . S
C398 C394 1.397 . S
C398 C397 1.394 . S
C399 H371 0.982 . S
C399 H375 0.979 . S
C399 H376 0.977 . S
C399 C396 1.453 . S
C400 H372 0.979 . S
C400 H373 0.980 . S
C400 H374 0.983 . S
C400 C396 1.684 . S
H401 C419 0.948 . S
H402 C360 0.948 . S
H403 C378 0.979 . S
H404 C378 0.980 . S
H405 C378 0.983 . S
H406 C377 0.982 . S
H407 C377 0.979 . S
H408 C377 0.977 . S
H409 C379 0.948 . S
H410 C381 0.947 . S
H411 C382 0.948 . S
H412 C388 0.982 . S
H413 C388 0.979 . S
H414 C388 0.977 . S
H415 C389 0.979 . S
H416 C389 0.980 . S
H417 C389 0.983 . S
H418 C362 0.947 . S
C419 C362 1.392 . S
C419 C363 1.419 . S
C419 H401 0.948 . S
C420 C421 1.391 . S
C420 C424 1.391 . S
C420 H462 0.948 . S
C421 C420 1.391 . S
C421 C422 1.391 . S
C422 C421 1.391 . S
C422 H478 0.947 . S
C422 C479 1.392 . S
C423 C424 1.391 . S
C423 C427 1.397 . S
C423 C479 1.419 . S
C424 C420 1.391 . S
C424 C423 1.391 . S
C424 C425 1.399 . S
C425 C424 1.399 . S
C425 C428 1.396 . S
C425 C437 1.453 . S
C425 C438 1.684 . S
H426 C450 0.948 . S
C427 C423 1.397 . S
C427 C428 1.394 . S
C427 C446 1.723 . S
C428 C425 1.396 . S
C428 C427 1.394 . S
C428 C458 1.723 . S
H429 C452 0.947 . S
H430 C453 0.948 . S
H431 C459 0.982 . S
H432 C460 0.979 . S
H433 C460 0.980 . S
H434 C460 0.983 . S
H435 C459 0.979 . S
H436 C459 0.977 . S
C437 C425 1.453 . S
C437 H466 0.982 . S
C437 H467 0.979 . S
C437 H468 0.977 . S
C438 C425 1.684 . S
C438 H463 0.979 . S
C438 H464 0.980 . S
C438 H465 0.983 . S
C439 C440 1.391 . S
C439 C444 1.391 . S
C439 H469 0.948 . S
C440 C439 1.391 . S
C440 C441 1.391 . S
C441 C440 1.391 . S
C441 C442 1.392 . S
C441 H470 0.947 . S
C442 C441 1.392 . S
C442 C443 1.419 . S
C442 H471 0.948 . S
C443 C442 1.419 . S
C443 C444 1.391 . S
C443 C447 1.397 . S
C444 C439 1.391 . S
C444 C443 1.391 . S
C444 C445 1.399 . S
C445 C444 1.399 . S
C445 C446 1.396 . S
C445 C448 1.453 . S
C445 C449 1.684 . S
C446 C427 1.723 . S
C446 C445 1.396 . S
C446 C447 1.394 . S
C447 C443 1.397 . S
C447 C446 1.394 . S
C447 C457 1.723 . S
C448 C445 1.453 . S
C448 H472 0.982 . S
C448 H473 0.979 . S
C448 H474 0.977 . S
C449 C445 1.684 . S
C449 H475 0.979 . S
C449 H476 0.980 . S
C449 H477 0.983 . S
C450 H426 0.948 . S
C450 C451 1.391 . S
C450 C455 1.391 . S
C451 C450 1.391 . S
C451 C452 1.391 . S
C452 H429 0.947 . S
C452 C451 1.391 . S
C452 C453 1.392 . S
C453 H430 0.948 . S
C453 C452 1.392 . S
C453 C454 1.419 . S
C454 C453 1.419 . S
C454 C455 1.391 . S
C454 C458 1.397 . S
C455 C450 1.391 . S
C455 C454 1.391 . S
C455 C456 1.399 . S
C456 C455 1.399 . S
C456 C457 1.396 . S
C456 C459 1.453 . S
C456 C460 1.684 . S
C457 C447 1.723 . S
C457 C456 1.396 . S
C457 C458 1.394 . S
C458 C428 1.723 . S
C458 C454 1.397 . S
C458 C457 1.394 . S
C459 H431 0.982 . S
C459 H435 0.979 . S
C459 H436 0.977 . S
C459 C456 1.453 . S
C460 H432 0.979 . S
C460 H433 0.980 . S
C460 H434 0.983 . S
C460 C456 1.684 . S
H461 C479 0.948 . S
H462 C420 0.948 . S
H463 C438 0.979 . S
H464 C438 0.980 . S
H465 C438 0.983 . S
H466 C437 0.982 . S
H467 C437 0.979 . S
H468 C437 0.977 . S
H469 C439 0.948 . S
H470 C441 0.947 . S
H471 C442 0.948 . S
H472 C448 0.982 . S
H473 C448 0.979 . S
H474 C448 0.977 . S
H475 C449 0.979 . S
H476 C449 0.980 . S
H477 C449 0.983 . S
H478 C422 0.947 . S
C479 C422 1.392 . S
C479 C423 1.419 . S
C479 H461 0.948 . S
Co480 O483 2.042 . S
Co480 O490 2.264 . S
Co480 O509 2.286 . S
Co480 O510 2.069 . S
Co480 O512 2.015 . S
Co481 O483 2.122 . S
Co481 O489 2.073 . S
Co481 O490 2.327 . S
Co481 O491 1.976 . S
Co482 O483 2.108 . S
Co482 O485 2.066 1_455 S
Co482 O492 2.122 . S
Co482 O493 2.129 1_455 S
Co482 O497 2.101 1_455 S
Co482 O511 2.158 . S
O483 Co480 2.042 . S
O483 Co481 2.122 . S
O483 Co482 2.108 . S
O483 H484 0.980 . S
H484 O483 0.980 . S
O485 Co482 2.066 1_655 S
O485 Co486 2.042 . S
O485 Co487 2.122 . S
O485 H488 0.980 . S
Co486 O485 2.042 . S
Co486 O494 2.286 . S
Co486 O495 2.069 . S
Co486 O496 2.015 . S
Co486 O499 2.264 . S
Co487 O485 2.122 . S
Co487 O498 1.976 . S
Co487 O499 2.327 . S
Co487 O500 2.073 . S
H488 O485 0.980 . S
O489 Co481 2.073 . S
O489 C504 1.245 . S
O490 Co480 2.264 . S
O490 Co481 2.327 . S
O490 C504 1.257 . S
O491 Co481 1.976 . S
O491 C503 1.251 . S
O492 Co482 2.122 . S
O492 C503 1.274 . S
O493 Co482 2.129 1_655 S
O493 C506 1.246 . S
O494 Co486 2.286 . S
O494 C505 1.259 . S
O495 Co486 2.069 . S
O495 C505 1.289 . S
O496 Co486 2.015 . S
O496 C506 1.257 . S
O497 Co482 2.101 1_655 S
O497 C507 1.274 . S
O498 Co487 1.976 . S
O498 C507 1.251 . S
O499 Co486 2.264 . S
O499 Co487 2.327 . S
O499 C508 1.257 . S
O500 Co487 2.073 . S
O500 C508 1.245 . S
C501 O509 1.259 . S
C501 O510 1.289 . S
C502 O511 1.246 . S
C502 O512 1.257 . S
C503 O491 1.251 . S
C503 O492 1.274 . S
C504 O489 1.245 . S
C504 O490 1.257 . S
C505 O494 1.259 . S
C505 O495 1.289 . S
C506 O493 1.246 . S
C506 O496 1.257 . S
C507 O497 1.274 . S
C507 O498 1.251 . S
C508 O499 1.257 . S
C508 O500 1.245 . S
O509 Co480 2.286 . S
O509 C501 1.259 . S
O510 Co480 2.069 . S
O510 C501 1.289 . S
O511 Co482 2.158 . S
O511 C502 1.246 . S
O512 Co480 2.015 . S
O512 C502 1.257 . S
Co513 O516 2.042 . S
Co513 O523 2.264 . S
Co513 O542 2.286 . S
Co513 O543 2.069 . S
Co513 O545 2.015 . S
Co514 O516 2.122 . S
Co514 O522 2.073 . S
Co514 O523 2.327 . S
Co514 O524 1.976 . S
Co515 O516 2.064 1_545 S
Co515 O518 2.110 . S
Co515 O525 2.101 1_545 S
Co515 O526 2.161 . S
Co515 O530 2.122 . S
Co515 O544 2.126 1_545 S
O516 Co513 2.042 . S
O516 Co514 2.122 . S
O516 Co515 2.064 1_565 S
O516 H517 0.980 . S
H517 O516 0.980 . S
O518 Co515 2.110 . S
O518 Co519 2.042 . S
O518 Co520 2.122 . S
O518 H521 0.980 . S
Co519 O518 2.042 . S
Co519 O527 2.286 . S
Co519 O528 2.069 . S
Co519 O529 2.015 . S
Co519 O532 2.264 . S
Co520 O518 2.122 . S
Co520 O531 1.976 . S
Co520 O532 2.327 . S
Co520 O533 2.073 . S
H521 O518 0.980 . S
O522 Co514 2.073 . S
O522 C537 1.245 . S
O523 Co513 2.264 . S
O523 Co514 2.327 . S
O523 C537 1.257 . S
O524 Co514 1.976 . S
O524 C536 1.251 . S
O525 Co515 2.101 1_565 S
O525 C536 1.274 . S
O526 Co515 2.161 . S
O526 C539 1.246 . S
O527 Co519 2.286 . S
O527 C538 1.259 . S
O528 Co519 2.069 . S
O528 C538 1.289 . S
O529 Co519 2.015 . S
O529 C539 1.257 . S
O530 Co515 2.122 . S
O530 C540 1.274 . S
O531 Co520 1.976 . S
O531 C540 1.251 . S
O532 Co519 2.264 . S
O532 Co520 2.327 . S
O532 C541 1.257 . S
O533 Co520 2.073 . S
O533 C541 1.245 . S
C534 O542 1.259 . S
C534 O543 1.289 . S
C535 O544 1.246 . S
C535 O545 1.257 . S
C536 O524 1.251 . S
C536 O525 1.274 . S
C537 O522 1.245 . S
C537 O523 1.257 . S
C538 O527 1.259 . S
C538 O528 1.289 . S
C539 O526 1.246 . S
C539 O529 1.257 . S
C540 O530 1.274 . S
C540 O531 1.251 . S
C541 O532 1.257 . S
C541 O533 1.245 . S
O542 Co513 2.286 . S
O542 C534 1.259 . S
O543 Co513 2.069 . S
O543 C534 1.289 . S
O544 Co515 2.126 1_565 S
O544 C535 1.246 . S
O545 Co513 2.015 . S
O545 C535 1.257 . S
Co546 O549 2.042 . S
Co546 O556 2.264 . S
Co546 O575 2.286 . S
Co546 O576 2.069 . S
Co546 O578 2.015 . S
Co547 O549 2.122 . S
Co547 O555 2.073 . S
Co547 O556 2.327 . S
Co547 O557 1.976 . S
Co548 O549 2.095 . S
Co548 O551 2.079 1_554 S
Co548 O558 2.115 . S
Co548 O559 2.137 1_554 S
Co548 O563 2.108 1_554 S
Co548 O577 2.150 . S
O549 Co546 2.042 . S
O549 Co547 2.122 . S
O549 Co548 2.095 . S
O549 H550 0.980 . S
H550 O549 0.980 . S
O551 Co548 2.079 1_556 S
O551 Co552 2.042 . S
O551 Co553 2.122 . S
O551 H554 0.980 . S
Co552 O551 2.042 . S
Co552 O560 2.286 . S
Co552 O561 2.069 . S
Co552 O562 2.015 . S
Co552 O565 2.264 . S
Co553 O551 2.122 . S
Co553 O564 1.976 . S
Co553 O565 2.327 . S
Co553 O566 2.073 . S
H554 O551 0.980 . S
O555 Co547 2.073 . S
O555 C570 1.245 . S
O556 Co546 2.264 . S
O556 Co547 2.327 . S
O556 C570 1.257 . S
O557 Co547 1.976 . S
O557 C569 1.251 . S
O558 Co548 2.115 . S
O558 C569 1.274 . S
O559 Co548 2.137 1_556 S
O559 C572 1.246 . S
O560 Co552 2.286 . S
O560 C571 1.259 . S
O561 Co552 2.069 . S
O561 C571 1.289 . S
O562 Co552 2.015 . S
O562 C572 1.257 . S
O563 Co548 2.108 1_556 S
O563 C573 1.274 . S
O564 Co553 1.976 . S
O564 C573 1.251 . S
O565 Co552 2.264 . S
O565 Co553 2.327 . S
O565 C574 1.257 . S
O566 Co553 2.073 . S
O566 C574 1.245 . S
C567 O575 1.259 . S
C567 O576 1.289 . S
C568 O577 1.246 . S
C568 O578 1.257 . S
C569 O557 1.251 . S
C569 O558 1.274 . S
C570 O555 1.245 . S
C570 O556 1.257 . S
C571 O560 1.259 . S
C571 O561 1.289 . S
C572 O559 1.246 . S
C572 O562 1.257 . S
C573 O563 1.274 . S
C573 O564 1.251 . S
C574 O565 1.257 . S
C574 O566 1.245 . S
O575 Co546 2.286 . S
O575 C567 1.259 . S
O576 Co546 2.069 . S
O576 C567 1.289 . S
O577 Co548 2.150 . S
O577 C568 1.246 . S
O578 Co546 2.015 . S
O578 C568 1.257 . S
H579 C585 0.930 . S
H580 C589 0.930 . S
H581 C594 0.929 . S
H582 C592 0.929 . S
H583 C587 0.929 . S
H584 C593 0.929 . S
C585 H579 0.930 . S
C585 C586 1.367 . S
C585 C593 1.378 . S
C586 C585 1.367 . S
C586 C594 1.433 . S
C587 H583 0.929 . S
C587 C589 1.378 . S
C587 C591 1.350 . S
C588 C591 1.463 . S
C588 C593 1.350 . S
C588 N596 1.427 . S
C589 H580 0.930 . S
C589 C587 1.378 . S
C589 C590 1.367 . S
C590 C589 1.367 . S
C590 C592 1.433 . S
C591 C587 1.350 . S
C591 C588 1.463 . S
C591 N595 1.427 . S
C592 H582 0.929 . S
C592 C590 1.433 . S
C592 N595 1.384 . S
C593 H584 0.929 . S
C593 C585 1.378 . S
C593 C588 1.350 . S
C594 H581 0.929 . S
C594 C586 1.433 . S
C594 N596 1.384 . S
N595 C591 1.427 . S
N595 C592 1.384 . S
N596 C588 1.427 . S
N596 C594 1.384 . S
H597 C603 0.930 . S
H598 C607 0.930 . S
H599 C612 0.929 . S
H600 C610 0.929 . S
H601 C605 0.929 . S
H602 C611 0.929 . S
C603 H597 0.930 . S
C603 C604 1.367 . S
C603 C611 1.378 . S
C604 C603 1.367 . S
C604 C612 1.433 . S
C605 H601 0.929 . S
C605 C607 1.378 . S
C605 C609 1.350 . S
C606 C609 1.463 . S
C606 C611 1.350 . S
C606 N614 1.427 . S
C607 H598 0.930 . S
C607 C605 1.378 . S
C607 C608 1.367 . S
C608 C607 1.367 . S
C608 C610 1.433 . S
C609 C605 1.350 . S
C609 C606 1.463 . S
C609 N613 1.427 . S
C610 H600 0.929 . S
C610 C608 1.433 . S
C610 N613 1.384 . S
C611 H602 0.929 . S
C611 C603 1.378 . S
C611 C606 1.350 . S
C612 H599 0.929 . S
C612 C604 1.433 . S
C612 N614 1.384 . S
N613 C609 1.427 . S
N613 C610 1.384 . S
N614 C606 1.427 . S
N614 C612 1.384 . S
H615 C621 0.930 . S
H616 C625 0.930 . S
H617 C630 0.929 . S
H618 C628 0.929 . S
H619 C623 0.929 . S
H620 C629 0.929 . S
C621 H615 0.930 . S
C621 C622 1.367 . S
C621 C629 1.378 . S
C622 C621 1.367 . S
C622 C630 1.433 . S
C623 H619 0.929 . S
C623 C625 1.378 . S
C623 C627 1.350 . S
C624 C627 1.463 . S
C624 C629 1.350 . S
C624 N632 1.427 . S
C625 H616 0.930 . S
C625 C623 1.378 . S
C625 C626 1.367 . S
C626 C625 1.367 . S
C626 C628 1.433 . S
C627 C623 1.350 . S
C627 C624 1.463 . S
C627 N631 1.427 . S
C628 H618 0.929 . S
C628 C626 1.433 . S
C628 N631 1.384 . S
C629 H620 0.929 . S
C629 C621 1.378 . S
C629 C624 1.350 . S
C630 H617 0.929 . S
C630 C622 1.433 . S
C630 N632 1.384 . S
N631 C627 1.427 . S
N631 C628 1.384 . S
N632 C624 1.427 . S
N632 C630 1.384 . S
H633 C639 0.930 . S
H634 C643 0.930 . S
H635 C648 0.929 . S
H636 C646 0.929 . S
H637 C641 0.929 . S
H638 C647 0.929 . S
C639 H633 0.930 . S
C639 C640 1.367 . S
C639 C647 1.378 . S
C640 C639 1.367 . S
C640 C648 1.433 . S
C641 H637 0.929 . S
C641 C643 1.378 . S
C641 C645 1.350 . S
C642 C645 1.463 . S
C642 C647 1.350 . S
C642 N650 1.427 . S
C643 H634 0.930 . S
C643 C641 1.378 . S
C643 C644 1.367 . S
C644 C643 1.367 . S
C644 C646 1.433 . S
C645 C641 1.350 . S
C645 C642 1.463 . S
C645 N649 1.427 . S
C646 H636 0.929 . S
C646 C644 1.433 . S
C646 N649 1.384 . S
C647 H638 0.929 . S
C647 C639 1.378 . S
C647 C642 1.350 . S
C648 H635 0.929 . S
C648 C640 1.433 . S
C648 N650 1.384 . S
N649 C645 1.427 . S
N649 C646 1.384 . S
N650 C642 1.427 . S
N650 C648 1.384 . S
H651 C657 0.930 . S
H652 C661 0.930 . S
H653 C666 0.929 . S
H654 C664 0.929 . S
H655 C659 0.929 . S
H656 C665 0.929 . S
C657 H651 0.930 . S
C657 C658 1.367 . S
C657 C665 1.378 . S
C658 C657 1.367 . S
C658 C666 1.433 . S
C659 H655 0.929 . S
C659 C661 1.378 . S
C659 C663 1.350 . S
C660 C663 1.463 . S
C660 C665 1.350 . S
C660 N668 1.427 . S
C661 H652 0.930 . S
C661 C659 1.378 . S
C661 C662 1.367 . S
C662 C661 1.367 . S
C662 C664 1.433 . S
C663 C659 1.350 . S
C663 C660 1.463 . S
C663 N667 1.427 . S
C664 H654 0.929 . S
C664 C662 1.433 . S
C664 N667 1.384 . S
C665 H656 0.929 . S
C665 C657 1.378 . S
C665 C660 1.350 . S
C666 H653 0.929 . S
C666 C658 1.433 . S
C666 N668 1.384 . S
N667 C663 1.427 . S
N667 C664 1.384 . S
N668 C660 1.427 . S
N668 C666 1.384 . S
H669 C675 0.930 . S
H670 C679 0.930 . S
H671 C684 0.929 . S
H672 C682 0.929 . S
H673 C677 0.929 . S
H674 C683 0.929 . S
C675 H669 0.930 . S
C675 C676 1.367 . S
C675 C683 1.378 . S
C676 C675 1.367 . S
C676 C684 1.433 . S
C677 H673 0.929 . S
C677 C679 1.378 . S
C677 C681 1.350 . S
C678 C681 1.463 . S
C678 C683 1.350 . S
C678 N686 1.427 . S
C679 H670 0.930 . S
C679 C677 1.378 . S
C679 C680 1.367 . S
C680 C679 1.367 . S
C680 C682 1.433 . S
C681 C677 1.350 . S
C681 C678 1.463 . S
C681 N685 1.427 . S
C682 H672 0.929 . S
C682 C680 1.433 . S
C682 N685 1.384 . S
C683 H674 0.929 . S
C683 C675 1.378 . S
C683 C678 1.350 . S
C684 H671 0.929 . S
C684 C676 1.433 . S
C684 N686 1.384 . S
N685 C681 1.427 . S
N685 C682 1.384 . S
N686 C678 1.427 . S
N686 C684 1.384 . S
H687 C693 0.930 . S
H688 C697 0.930 . S
H689 C702 0.929 . S
H690 C700 0.929 . S
H691 C695 0.929 . S
H692 C701 0.929 . S
C693 H687 0.930 . S
C693 C694 1.367 . S
C693 C701 1.378 . S
C694 C693 1.367 . S
C694 C702 1.433 . S
C695 H691 0.929 . S
C695 C697 1.378 . S
C695 C699 1.350 . S
C696 C699 1.463 . S
C696 C701 1.350 . S
C696 N704 1.427 . S
C697 H688 0.930 . S
C697 C695 1.378 . S
C697 C698 1.367 . S
C698 C697 1.367 . S
C698 C700 1.433 . S
C699 C695 1.350 . S
C699 C696 1.463 . S
C699 N703 1.427 . S
C700 H690 0.929 . S
C700 C698 1.433 . S
C700 N703 1.384 . S
C701 H692 0.929 . S
C701 C693 1.378 . S
C701 C696 1.350 . S
C702 H689 0.929 . S
C702 C694 1.433 . S
C702 N704 1.384 . S
N703 C699 1.427 . S
N703 C700 1.384 . S
N704 C696 1.427 . S
N704 C702 1.384 . S
H705 C711 0.930 . S
H706 C715 0.930 . S
H707 C720 0.929 . S
H708 C718 0.929 . S
H709 C713 0.929 . S
H710 C719 0.929 . S
C711 H705 0.930 . S
C711 C712 1.367 . S
C711 C719 1.378 . S
C712 C711 1.367 . S
C712 C720 1.433 . S
C713 H709 0.929 . S
C713 C715 1.378 . S
C713 C717 1.350 . S
C714 C717 1.463 . S
C714 C719 1.350 . S
C714 N722 1.427 . S
C715 H706 0.930 . S
C715 C713 1.378 . S
C715 C716 1.367 . S
C716 C715 1.367 . S
C716 C718 1.433 . S
C717 C713 1.350 . S
C717 C714 1.463 . S
C717 N721 1.427 . S
C718 H708 0.929 . S
C718 C716 1.433 . S
C718 N721 1.384 . S
C719 H710 0.929 . S
C719 C711 1.378 . S
C719 C714 1.350 . S
C720 H707 0.929 . S
C720 C712 1.433 . S
C720 N722 1.384 . S
N721 C717 1.427 . S
N721 C718 1.384 . S
N722 C714 1.427 . S
N722 C720 1.384 . S
H723 C729 0.930 . S
H724 C733 0.930 . S
H725 C738 0.929 . S
H726 C736 0.929 . S
H727 C731 0.929 . S
H728 C737 0.929 . S
C729 H723 0.930 . S
C729 C730 1.367 . S
C729 C737 1.378 . S
C730 C729 1.367 . S
C730 C738 1.433 . S
C731 H727 0.929 . S
C731 C733 1.378 . S
C731 C735 1.350 . S
C732 C735 1.463 . S
C732 C737 1.350 . S
C732 N740 1.427 . S
C733 H724 0.930 . S
C733 C731 1.378 . S
C733 C734 1.367 . S
C734 C733 1.367 . S
C734 C736 1.433 . S
C735 C731 1.350 . S
C735 C732 1.463 . S
C735 N739 1.427 . S
C736 H726 0.929 . S
C736 C734 1.433 . S
C736 N739 1.384 . S
C737 H728 0.929 . S
C737 C729 1.378 . S
C737 C732 1.350 . S
C738 H725 0.929 . S
C738 C730 1.433 . S
C738 N740 1.384 . S
N739 C735 1.427 . S
N739 C736 1.384 . S
N740 C732 1.427 . S
N740 C738 1.384 . S
H741 C747 0.930 . S
H742 C751 0.930 . S
H743 C756 0.929 . S
H744 C754 0.929 . S
H745 C749 0.929 . S
H746 C755 0.929 . S
C747 H741 0.930 . S
C747 C748 1.367 . S
C747 C755 1.378 . S
C748 C747 1.367 . S
C748 C756 1.433 . S
C749 H745 0.929 . S
C749 C751 1.378 . S
C749 C753 1.350 . S
C750 C753 1.463 . S
C750 C755 1.350 . S
C750 N758 1.427 . S
C751 H742 0.930 . S
C751 C749 1.378 . S
C751 C752 1.367 . S
C752 C751 1.367 . S
C752 C754 1.433 . S
C753 C749 1.350 . S
C753 C750 1.463 . S
C753 N757 1.427 . S
C754 H744 0.929 . S
C754 C752 1.433 . S
C754 N757 1.384 . S
C755 H746 0.929 . S
C755 C747 1.378 . S
C755 C750 1.350 . S
C756 H743 0.929 . S
C756 C748 1.433 . S
C756 N758 1.384 . S
N757 C753 1.427 . S
N757 C754 1.384 . S
N758 C750 1.427 . S
N758 C756 1.384 . S
H759 C765 0.930 . S
H760 C769 0.930 . S
H761 C774 0.929 . S
H762 C772 0.929 . S
H763 C767 0.929 . S
H764 C773 0.929 . S
C765 H759 0.930 . S
C765 C766 1.367 . S
C765 C773 1.378 . S
C766 C765 1.367 . S
C766 C774 1.433 . S
C767 H763 0.929 . S
C767 C769 1.378 . S
C767 C771 1.350 . S
C768 C771 1.463 . S
C768 C773 1.350 . S
C768 N776 1.427 . S
C769 H760 0.930 . S
C769 C767 1.378 . S
C769 C770 1.367 . S
C770 C769 1.367 . S
C770 C772 1.433 . S
C771 C767 1.350 . S
C771 C768 1.463 . S
C771 N775 1.427 . S
C772 H762 0.929 . S
C772 C770 1.433 . S
C772 N775 1.384 . S
C773 H764 0.929 . S
C773 C765 1.378 . S
C773 C768 1.350 . S
C774 H761 0.929 . S
C774 C766 1.433 . S
C774 N776 1.384 . S
N775 C771 1.427 . S
N775 C772 1.384 . S
N776 C768 1.427 . S
N776 C774 1.384 . S
H777 C783 0.930 . S
H778 C787 0.930 . S
H779 C792 0.929 . S
H780 C790 0.929 . S
H781 C785 0.929 . S
H782 C791 0.929 . S
C783 H777 0.930 . S
C783 C784 1.367 . S
C783 C791 1.378 . S
C784 C783 1.367 . S
C784 C792 1.433 . S
C785 H781 0.929 . S
C785 C787 1.378 . S
C785 C789 1.350 . S
C786 C789 1.463 . S
C786 C791 1.350 . S
C786 N794 1.427 . S
C787 H778 0.930 . S
C787 C785 1.378 . S
C787 C788 1.367 . S
C788 C787 1.367 . S
C788 C790 1.433 . S
C789 C785 1.350 . S
C789 C786 1.463 . S
C789 N793 1.427 . S
C790 H780 0.929 . S
C790 C788 1.433 . S
C790 N793 1.384 . S
C791 H782 0.929 . S
C791 C783 1.378 . S
C791 C786 1.350 . S
C792 H779 0.929 . S
C792 C784 1.433 . S
C792 N794 1.384 . S
N793 C789 1.427 . S
N793 C790 1.384 . S
N794 C786 1.427 . S
N794 C792 1.384 . S
H795 C801 0.930 . S
H796 C805 0.930 . S
H797 C810 0.929 . S
H798 C808 0.929 . S
H799 C803 0.929 . S
H800 C809 0.929 . S
C801 H795 0.930 . S
C801 C802 1.367 . S
C801 C809 1.378 . S
C802 C801 1.367 . S
C802 C810 1.433 . S
C803 H799 0.929 . S
C803 C805 1.378 . S
C803 C807 1.350 . S
C804 C807 1.463 . S
C804 C809 1.350 . S
C804 N812 1.427 . S
C805 H796 0.930 . S
C805 C803 1.378 . S
C805 C806 1.367 . S
C806 C805 1.367 . S
C806 C808 1.433 . S
C807 C803 1.350 . S
C807 C804 1.463 . S
C807 N811 1.427 . S
C808 H798 0.929 . S
C808 C806 1.433 . S
C808 N811 1.384 . S
C809 H800 0.929 . S
C809 C801 1.378 . S
C809 C804 1.350 . S
C810 H797 0.929 . S
C810 C802 1.433 . S
C810 N812 1.384 . S
N811 C807 1.427 . S
N811 C808 1.384 . S
N812 C804 1.427 . S
N812 C810 1.384 . S
H813 C819 0.930 . S
H814 C823 0.930 . S
H815 C828 0.929 . S
H816 C826 0.929 . S
H817 C821 0.929 . S
H818 C827 0.929 . S
C819 H813 0.930 . S
C819 C820 1.367 . S
C819 C827 1.378 . S
C820 C819 1.367 . S
C820 C828 1.433 . S
C821 H817 0.929 . S
C821 C823 1.378 . S
C821 C825 1.350 . S
C822 C825 1.463 . S
C822 C827 1.350 . S
C822 N830 1.427 . S
C823 H814 0.930 . S
C823 C821 1.378 . S
C823 C824 1.367 . S
C824 C823 1.367 . S
C824 C826 1.433 . S
C825 C821 1.350 . S
C825 C822 1.463 . S
C825 N829 1.427 . S
C826 H816 0.929 . S
C826 C824 1.433 . S
C826 N829 1.384 . S
C827 H818 0.929 . S
C827 C819 1.378 . S
C827 C822 1.350 . S
C828 H815 0.929 . S
C828 C820 1.433 . S
C828 N830 1.384 . S
N829 C825 1.427 . S
N829 C826 1.384 . S
N830 C822 1.427 . S
N830 C828 1.384 . S
H831 C837 0.930 . S
H832 C841 0.930 . S
H833 C846 0.929 . S
H834 C844 0.929 . S
H835 C839 0.929 . S
H836 C845 0.929 . S
C837 H831 0.930 . S
C837 C838 1.367 . S
C837 C845 1.378 . S
C838 C837 1.367 . S
C838 C846 1.433 . S
C839 H835 0.929 . S
C839 C841 1.378 . S
C839 C843 1.350 . S
C840 C843 1.463 . S
C840 C845 1.350 . S
C840 N848 1.427 . S
C841 H832 0.930 . S
C841 C839 1.378 . S
C841 C842 1.367 . S
C842 C841 1.367 . S
C842 C844 1.433 . S
C843 C839 1.350 . S
C843 C840 1.463 . S
C843 N847 1.427 . S
C844 H834 0.929 . S
C844 C842 1.433 . S
C844 N847 1.384 . S
C845 H836 0.929 . S
C845 C837 1.378 . S
C845 C840 1.350 . S
C846 H833 0.929 . S
C846 C838 1.433 . S
C846 N848 1.384 . S
N847 C843 1.427 . S
N847 C844 1.384 . S
N848 C840 1.427 . S
N848 C846 1.384 . S
H849 C855 0.930 . S
H850 C859 0.930 . S
H851 C864 0.929 . S
H852 C862 0.929 . S
H853 C857 0.929 . S
H854 C863 0.929 . S
C855 H849 0.930 . S
C855 C856 1.367 . S
C855 C863 1.378 . S
C856 C855 1.367 . S
C856 C864 1.433 . S
C857 H853 0.929 . S
C857 C859 1.378 . S
C857 C861 1.350 . S
C858 C861 1.463 . S
C858 C863 1.350 . S
C858 N866 1.427 . S
C859 H850 0.930 . S
C859 C857 1.378 . S
C859 C860 1.367 . S
C860 C859 1.367 . S
C860 C862 1.433 . S
C861 C857 1.350 . S
C861 C858 1.463 . S
C861 N865 1.427 . S
C862 H852 0.929 . S
C862 C860 1.433 . S
C862 N865 1.384 . S
C863 H854 0.929 . S
C863 C855 1.378 . S
C863 C858 1.350 . S
C864 H851 0.929 . S
C864 C856 1.433 . S
C864 N866 1.384 . S
N865 C861 1.427 . S
N865 C862 1.384 . S
N866 C858 1.427 . S
N866 C864 1.384 . S
H867 C873 0.930 . S
H868 C877 0.930 . S
H869 C882 0.929 . S
H870 C880 0.929 . S
H871 C875 0.929 . S
H872 C881 0.929 . S
C873 H867 0.930 . S
C873 C874 1.367 . S
C873 C881 1.378 . S
C874 C873 1.367 . S
C874 C882 1.433 . S
C875 H871 0.929 . S
C875 C877 1.378 . S
C875 C879 1.350 . S
C876 C879 1.463 . S
C876 C881 1.350 . S
C876 N884 1.427 . S
C877 H868 0.930 . S
C877 C875 1.378 . S
C877 C878 1.367 . S
C878 C877 1.367 . S
C878 C880 1.433 . S
C879 C875 1.350 . S
C879 C876 1.463 . S
C879 N883 1.427 . S
C880 H870 0.929 . S
C880 C878 1.433 . S
C880 N883 1.384 . S
C881 H872 0.929 . S
C881 C873 1.378 . S
C881 C876 1.350 . S
C882 H869 0.929 . S
C882 C874 1.433 . S
C882 N884 1.384 . S
N883 C879 1.427 . S
N883 C880 1.384 . S
N884 C876 1.427 . S
N884 C882 1.384 . S
H885 C891 0.930 . S
H886 C895 0.930 . S
H887 C900 0.929 . S
H888 C898 0.929 . S
H889 C893 0.929 . S
H890 C899 0.929 . S
C891 H885 0.930 . S
C891 C892 1.367 . S
C891 C899 1.378 . S
C892 C891 1.367 . S
C892 C900 1.433 . S
C893 H889 0.929 . S
C893 C895 1.378 . S
C893 C897 1.350 . S
C894 C897 1.463 . S
C894 C899 1.350 . S
C894 N902 1.427 . S
C895 H886 0.930 . S
C895 C893 1.378 . S
C895 C896 1.367 . S
C896 C895 1.367 . S
C896 C898 1.433 . S
C897 C893 1.350 . S
C897 C894 1.463 . S
C897 N901 1.427 . S
C898 H888 0.929 . S
C898 C896 1.433 . S
C898 N901 1.384 . S
C899 H890 0.929 . S
C899 C891 1.378 . S
C899 C894 1.350 . S
C900 H887 0.929 . S
C900 C892 1.433 . S
C900 N902 1.384 . S
N901 C897 1.427 . S
N901 C898 1.384 . S
N902 C894 1.427 . S
N902 C900 1.384 . S
H903 C909 0.930 . S
H904 C913 0.930 . S
H905 C918 0.929 . S
H906 C916 0.929 . S
H907 C911 0.929 . S
H908 C917 0.929 . S
C909 H903 0.930 . S
C909 C910 1.367 . S
C909 C917 1.378 . S
C910 C909 1.367 . S
C910 C918 1.433 . S
C911 H907 0.929 . S
C911 C913 1.378 . S
C911 C915 1.350 . S
C912 C915 1.463 . S
C912 C917 1.350 . S
C912 N920 1.427 . S
C913 H904 0.930 . S
C913 C911 1.378 . S
C913 C914 1.367 . S
C914 C913 1.367 . S
C914 C916 1.433 . S
C915 C911 1.350 . S
C915 C912 1.463 . S
C915 N919 1.427 . S
C916 H906 0.929 . S
C916 C914 1.433 . S
C916 N919 1.384 . S
C917 H908 0.929 . S
C917 C909 1.378 . S
C917 C912 1.350 . S
C918 H905 0.929 . S
C918 C910 1.433 . S
C918 N920 1.384 . S
N919 C915 1.427 . S
N919 C916 1.384 . S
N920 C912 1.427 . S
N920 C918 1.384 . S
H921 C927 0.930 . S
H922 C931 0.930 . S
H923 C936 0.929 . S
H924 C934 0.929 . S
H925 C929 0.929 . S
H926 C935 0.929 . S
C927 H921 0.930 . S
C927 C928 1.367 . S
C927 C935 1.378 . S
C928 C927 1.367 . S
C928 C936 1.433 . S
C929 H925 0.929 . S
C929 C931 1.378 . S
C929 C933 1.350 . S
C930 C933 1.463 . S
C930 C935 1.350 . S
C930 N938 1.427 . S
C931 H922 0.930 . S
C931 C929 1.378 . S
C931 C932 1.367 . S
C932 C931 1.367 . S
C932 C934 1.433 . S
C933 C929 1.350 . S
C933 C930 1.463 . S
C933 N937 1.427 . S
C934 H924 0.929 . S
C934 C932 1.433 . S
C934 N937 1.384 . S
C935 H926 0.929 . S
C935 C927 1.378 . S
C935 C930 1.350 . S
C936 H923 0.929 . S
C936 C928 1.433 . S
C936 N938 1.384 . S
N937 C933 1.427 . S
N937 C934 1.384 . S
N938 C930 1.427 . S
N938 C936 1.384 . S
H939 C945 0.930 . S
H940 C949 0.930 . S
H941 C954 0.929 . S
H942 C952 0.929 . S
H943 C947 0.929 . S
H944 C953 0.929 . S
C945 H939 0.930 . S
C945 C946 1.367 . S
C945 C953 1.378 . S
C946 C945 1.367 . S
C946 C954 1.433 . S
C947 H943 0.929 . S
C947 C949 1.378 . S
C947 C951 1.350 . S
C948 C951 1.463 . S
C948 C953 1.350 . S
C948 N956 1.427 . S
C949 H940 0.930 . S
C949 C947 1.378 . S
C949 C950 1.367 . S
C950 C949 1.367 . S
C950 C952 1.433 . S
C951 C947 1.350 . S
C951 C948 1.463 . S
C951 N955 1.427 . S
C952 H942 0.929 . S
C952 C950 1.433 . S
C952 N955 1.384 . S
C953 H944 0.929 . S
C953 C945 1.378 . S
C953 C948 1.350 . S
C954 H941 0.929 . S
C954 C946 1.433 . S
C954 N956 1.384 . S
N955 C951 1.427 . S
N955 C952 1.384 . S
N956 C948 1.427 . S
N956 C954 1.384 . S
H957 C963 0.930 . S
H958 C967 0.930 . S
H959 C972 0.929 . S
H960 C970 0.929 . S
H961 C965 0.929 . S
H962 C971 0.929 . S
C963 H957 0.930 . S
C963 C964 1.367 . S
C963 C971 1.378 . S
C964 C963 1.367 . S
C964 C972 1.433 . S
C965 H961 0.929 . S
C965 C967 1.378 . S
C965 C969 1.350 . S
C966 C969 1.463 . S
C966 C971 1.350 . S
C966 N974 1.427 . S
C967 H958 0.930 . S
C967 C965 1.378 . S
C967 C968 1.367 . S
C968 C967 1.367 . S
C968 C970 1.433 . S
C969 C965 1.350 . S
C969 C966 1.463 . S
C969 N973 1.427 . S
C970 H960 0.929 . S
C970 C968 1.433 . S
C970 N973 1.384 . S
C971 H962 0.929 . S
C971 C963 1.378 . S
C971 C966 1.350 . S
C972 H959 0.929 . S
C972 C964 1.433 . S
C972 N974 1.384 . S
N973 C969 1.427 . S
N973 C970 1.384 . S
N974 C966 1.427 . S
N974 C972 1.384 . S
H975 C981 0.930 . S
H976 C985 0.930 . S
H977 C990 0.929 . S
H978 C988 0.929 . S
H979 C983 0.929 . S
H980 C989 0.929 . S
C981 H975 0.930 . S
C981 C982 1.367 . S
C981 C989 1.378 . S
C982 C981 1.367 . S
C982 C990 1.433 . S
C983 H979 0.929 . S
C983 C985 1.378 . S
C983 C987 1.350 . S
C984 C987 1.463 . S
C984 C989 1.350 . S
C984 N992 1.427 . S
C985 H976 0.930 . S
C985 C983 1.378 . S
C985 C986 1.367 . S
C986 C985 1.367 . S
C986 C988 1.433 . S
C987 C983 1.350 . S
C987 C984 1.463 . S
C987 N991 1.427 . S
C988 H978 0.929 . S
C988 C986 1.433 . S
C988 N991 1.384 . S
C989 H980 0.929 . S
C989 C981 1.378 . S
C989 C984 1.350 . S
C990 H977 0.929 . S
C990 C982 1.433 . S
C990 N992 1.384 . S
N991 C987 1.427 . S
N991 C988 1.384 . S
N992 C984 1.427 . S
N992 C990 1.384 . S
H993 C999 0.930 . S
H994 C1003 0.930 . S
H995 C1008 0.929 . S
H996 C1006 0.929 . S
H997 C1001 0.929 . S
H998 C1007 0.929 . S
C999 H993 0.930 . S
C999 C1000 1.367 . S
C999 C1007 1.378 . S
C1000 C999 1.367 . S
C1000 C1008 1.433 . S
C1001 H997 0.929 . S
C1001 C1003 1.378 . S
C1001 C1005 1.350 . S
C1002 C1005 1.463 . S
C1002 C1007 1.350 . S
C1002 N1010 1.427 . S
C1003 H994 0.930 . S
C1003 C1001 1.378 . S
C1003 C1004 1.367 . S
C1004 C1003 1.367 . S
C1004 C1006 1.433 . S
C1005 C1001 1.350 . S
C1005 C1002 1.463 . S
C1005 N1009 1.427 . S
C1006 H996 0.929 . S
C1006 C1004 1.433 . S
C1006 N1009 1.384 . S
C1007 H998 0.929 . S
C1007 C999 1.378 . S
C1007 C1002 1.350 . S
C1008 H995 0.929 . S
C1008 C1000 1.433 . S
C1008 N1010 1.384 . S
N1009 C1005 1.427 . S
N1009 C1006 1.384 . S
N1010 C1002 1.427 . S
N1010 C1008 1.384 . S
C590 C504 1.060 . S
C586 C31 1.099 . S
C608 C540 1.664 . S
C604 C61 1.757 . S
C626 C505 1.406 . S
C622 C121 1.397 . S
C644 C535 1.536 . S
C640 C181 1.585 . S
C662 C502 1.489 . S
C658 C260 1.478 . S
C676 C331 1.702 . S
C680 C538 1.707 . S
C694 C380 1.215 . S
C698 C507 1.115 . S
C716 C537 1.446 . S
C712 C440 1.466 . S
C734 C541 1.440 . S
C730 C1 1.391 . S
C752 C506 1.498 . S
C748 C91 1.540 . S
C770 C534 1.705 . S
C766 C151 1.702 . S
C788 C503 1.105 . S
C784 C200 1.218 . S
C806 C536 1.657 . S
C802 C271 1.713 . S
C820 C301 1.401 . S
C824 C501 1.403 . S
C838 C361 1.589 . S
C842 C539 1.549 . S
C860 C508 1.081 . S
C856 C451 1.077 . S
C878 C570 1.659 . S
C874 C20 1.731 . S
C892 C241 1.977 . S
C896 C573 1.910 . S
C914 C572 1.690 . S
C910 C320 1.741 . S
C928 C391 2.076 . S
C932 C571 2.069 . S
C950 C574 1.647 . S
C946 C421 1.718 . S
C964 C140 1.744 . S
C968 C568 1.684 . S
C986 C567 2.068 . S
C982 C211 2.075 . S
C1000 C80 2.029 . S
C1004 C569 1.909 . S
