# Generated by pormake.
# Topology dag, (6,3)-cn, num edge types: 1
# Building blocks:
#     Node 0, Type 0, BuildingBlock: IZENUY_clean_sbu_0, # of connection points: 6
#     Node 1, Type 0, BuildingBlock: IZENUY_clean_sbu_0, # of connection points: 6
#     Node 2, Type 0, BuildingBlock: IZENUY_clean_sbu_0, # of connection points: 6
#     Node 3, Type 0, BuildingBlock: IZENUY_clean_sbu_0, # of connection points: 6
#     Node 4, Type 1, BuildingBlock: VETTIZ_charged_linker_0, # of connection points: 3
#     Node 5, Type 1, BuildingBlock: VETTIZ_charged_linker_0, # of connection points: 3
#     Node 6, Type 1, BuildingBlock: VETTIZ_charged_linker_0, # of connection points: 3
#     Node 7, Type 1, BuildingBlock: VETTIZ_charged_linker_0, # of connection points: 3
#     Node 8, Type 1, BuildingBlock: VETTIZ_charged_linker_0, # of connection points: 3
#     Node 9, Type 1, BuildingBlock: VETTIZ_charged_linker_0, # of connection points: 3
#     Node 10, Type 1, BuildingBlock: VETTIZ_charged_linker_0, # of connection points: 3
#     Node 11, Type 1, BuildingBlock: VETTIZ_charged_linker_0, # of connection points: 3
#     Edge 12, Type (0, 1), BuildingBlock: XUDNAN_clean_linker_2, # of connection points: 2
#     Edge 13, Type (0, 1), BuildingBlock: XUDNAN_clean_linker_2, # of connection points: 2
#     Edge 14, Type (0, 1), BuildingBlock: XUDNAN_clean_linker_2, # of connection points: 2
#     Edge 15, Type (0, 1), BuildingBlock: XUDNAN_clean_linker_2, # of connection points: 2
#     Edge 16, Type (0, 1), BuildingBlock: XUDNAN_clean_linker_2, # of connection points: 2
#     Edge 17, Type (0, 1), BuildingBlock: XUDNAN_clean_linker_2, # of connection points: 2
#     Edge 18, Type (0, 1), BuildingBlock: XUDNAN_clean_linker_2, # of connection points: 2
#     Edge 19, Type (0, 1), BuildingBlock: XUDNAN_clean_linker_2, # of connection points: 2
#     Edge 20, Type (0, 1), BuildingBlock: XUDNAN_clean_linker_2, # of connection points: 2
#     Edge 21, Type (0, 1), BuildingBlock: XUDNAN_clean_linker_2, # of connection points: 2
#     Edge 22, Type (0, 1), BuildingBlock: XUDNAN_clean_linker_2, # of connection points: 2
#     Edge 23, Type (0, 1), BuildingBlock: XUDNAN_clean_linker_2, # of connection points: 2
#     Edge 24, Type (0, 1), BuildingBlock: XUDNAN_clean_linker_2, # of connection points: 2
#     Edge 25, Type (0, 1), BuildingBlock: XUDNAN_clean_linker_2, # of connection points: 2
#     Edge 26, Type (0, 1), BuildingBlock: XUDNAN_clean_linker_2, # of connection points: 2
#     Edge 27, Type (0, 1), BuildingBlock: XUDNAN_clean_linker_2, # of connection points: 2
#     Edge 28, Type (0, 1), BuildingBlock: XUDNAN_clean_linker_2, # of connection points: 2
#     Edge 29, Type (0, 1), BuildingBlock: XUDNAN_clean_linker_2, # of connection points: 2
#     Edge 30, Type (0, 1), BuildingBlock: XUDNAN_clean_linker_2, # of connection points: 2
#     Edge 31, Type (0, 1), BuildingBlock: XUDNAN_clean_linker_2, # of connection points: 2
#     Edge 32, Type (0, 1), BuildingBlock: XUDNAN_clean_linker_2, # of connection points: 2
#     Edge 33, Type (0, 1), BuildingBlock: XUDNAN_clean_linker_2, # of connection points: 2
#     Edge 34, Type (0, 1), BuildingBlock: XUDNAN_clean_linker_2, # of connection points: 2
#     Edge 35, Type (0, 1), BuildingBlock: XUDNAN_clean_linker_2, # of connection points: 2
# Relax obj value: 0.264
# Max RMSD: 0.202
# Mean RMSD: 0.161
data_MOF--net-dag--node1-IZENUY_clean_sbu_0--node2-VETTIZ_charged_linker_0--edge1-XUDNAN_clean_linker_2
_symmetry_space_group_name_H-M    P1
_symmetry_Int_Tables_number       1
_symmetry_cell_setting            triclinic
loop_
_symmetry_equiv_pos_as_xyz
'x, y, z'
_cell_length_a     47.59223
_cell_length_b     47.637733
_cell_length_c     41.263506
_cell_angle_alpha  93.326547
_cell_angle_beta   86.654051
_cell_angle_gamma 87.666198
loop_
_atom_site_label
_atom_site_type_symbol
_atom_site_fract_x
_atom_site_fract_y
_atom_site_fract_z
_atom_type_partial_charge
Fe0 Fe 0.21858 0.82397 0.08593 0.0
Fe1 Fe 0.15877 0.847 0.0779 0.0
O2 O 0.18249 0.81813 0.08111 0.0
Fe3 Fe 0.16989 0.78365 0.07924 0.0
O4 O 0.1951 0.76991 0.10718 0.0
O5 O 0.21739 0.80708 0.12409 0.0
O6 O 0.21165 0.85781 0.11009 0.0
C7 C 0.18955 0.86727 0.12659 0.0
C8 C 0.21941 0.77611 0.04188 0.0
O9 O 0.16549 0.86072 0.1183 0.0
C10 C 0.14177 0.81056 0.03047 0.0
O11 O 0.22213 0.84148 0.04785 0.0
O12 O 0.18466 0.86937 0.05923 0.0
O13 O 0.19311 0.77384 0.044 0.0
O14 O 0.23157 0.79125 0.06267 0.0
C15 C 0.12711 0.81135 0.11622 0.0
O16 O 0.15114 0.83445 0.03725 0.0
O17 O 0.14267 0.79142 0.05058 0.0
C18 C 0.20745 0.8632 0.04266 0.0
O19 O 0.12831 0.83038 0.09617 0.0
O20 O 0.14547 0.7914 0.11452 0.0
C21 C 0.20923 0.78262 0.12814 0.0
Fe22 Fe 0.70694 0.66128 0.5214 0.0
Fe23 Fe 0.66486 0.7001 0.56456 0.0
O24 O 0.67369 0.66745 0.54279 0.0
Fe25 Fe 0.64915 0.64076 0.54245 0.0
O26 O 0.67557 0.61172 0.53904 0.0
O27 O 0.71584 0.63148 0.54531 0.0
O28 O 0.72602 0.68325 0.55005 0.0
C29 C 0.7197 0.69117 0.5795 0.0
C30 C 0.66899 0.63644 0.47909 0.0
O31 O 0.69435 0.69567 0.58977 0.0
C32 C 0.6148 0.68993 0.53811 0.0
O33 O 0.70004 0.69033 0.4962 0.0
O34 O 0.68514 0.72105 0.53612 0.0
O35 O 0.64767 0.64101 0.49865 0.0
O36 O 0.69364 0.63834 0.4889 0.0
C37 C 0.64401 0.65977 0.60619 0.0
O38 O 0.63454 0.70665 0.54065 0.0
O39 O 0.61803 0.66478 0.54593 0.0
C40 C 0.69323 0.71518 0.50665 0.0
O41 O 0.64318 0.68473 0.59701 0.0
O42 O 0.64968 0.63909 0.58609 0.0
C43 C 0.70056 0.61059 0.54784 0.0
Fe44 Fe 0.82452 0.21562 0.99724 0.0
Fe45 Fe 0.83801 0.15644 0.01933 0.0
O46 O 0.8133 0.18204 0.0078 0.0
Fe47 Fe 0.77755 0.17356 0.00651 0.0
O48 O 0.7703 0.19544 0.97277 0.0
O49 O 0.81137 0.21101 0.95679 0.0
O50 O 0.85923 0.20219 0.9789 0.0
C51 C 0.86694 0.17749 0.96775 0.0
C52 C 0.77143 0.22745 0.03237 0.0
O53 O 0.85685 0.15616 0.98002 0.0
C54 C 0.7949 0.14873 0.06333 0.0
O55 O 0.83862 0.22277 0.0369 0.0
O56 O 0.86125 0.18174 0.03729 0.0
O57 O 0.76675 0.20193 0.03603 0.0
O58 O 0.79156 0.23454 0.01342 0.0
C59 C 0.80236 0.12411 0.98138 0.0
O60 O 0.82018 0.15534 0.05926 0.0
O61 O 0.7784 0.15004 0.04038 0.0
C62 C 0.85643 0.20669 0.04893 0.0
O63 O 0.81954 0.12605 0.00353 0.0
O64 O 0.78601 0.14464 0.97636 0.0
C65 C 0.78638 0.20529 0.95115 0.0
Fe66 Fe 0.35603 0.35015 0.53687 0.0
Fe67 Fe 0.29789 0.33354 0.56394 0.0
O68 O 0.33 0.32487 0.54077 0.0
Fe69 Fe 0.33627 0.29087 0.52124 0.0
O70 O 0.36714 0.28414 0.54401 0.0
O71 O 0.38591 0.32441 0.53437 0.0
O72 O 0.35945 0.35296 0.58027 0.0
C73 C 0.3395 0.35858 0.60142 0.0
C74 C 0.35882 0.32672 0.47489 0.0
O75 O 0.31403 0.35643 0.59449 0.0
C76 C 0.28126 0.30214 0.5083 0.0
O77 O 0.33117 0.3806 0.53905 0.0
O78 O 0.2894 0.36277 0.53942 0.0
O79 O 0.3577 0.30283 0.48672 0.0
O80 O 0.35424 0.34891 0.49297 0.0
C81 C 0.30835 0.27969 0.58122 0.0
O82 O 0.2763 0.31204 0.53737 0.0
O83 O 0.30608 0.29556 0.49727 0.0
C84 C 0.30515 0.38291 0.53456 0.0
O85 O 0.30376 0.30519 0.59041 0.0
O86 O 0.31593 0.27251 0.55193 0.0
C87 C 0.38796 0.29971 0.54406 0.0
C88 C 0.14872 0.07427 0.2373 0.0
C89 C 0.14038 0.05632 0.21182 0.0
C90 C 0.12031 0.06629 0.19097 0.0
C91 C 0.11625 0.11123 0.22203 0.0
C92 C 0.13669 0.10164 0.24168 0.0
C93 C 0.14415 0.1238 0.2667 0.0
H94 H 0.12413 0.25533 0.33702 0.0
C95 C 0.10758 0.14043 0.23374 0.0
C96 C 0.12411 0.14799 0.2596 0.0
H97 H 0.18614 0.1904 0.35606 0.0
H98 H 0.16774 0.15903 0.31581 0.0
H99 H 0.1295 0.24518 0.25842 0.0
H100 H 0.07173 0.21268 0.33007 0.0
H101 H 0.05269 0.22174 0.2967 0.0
H102 H 0.06966 0.24878 0.31982 0.0
H103 H 0.10289 0.26709 0.28134 0.0
H104 H 0.09526 0.24746 0.2445 0.0
C105 C 0.17549 0.13065 0.25973 0.0
C106 C 0.13731 0.11285 0.30079 0.0
C107 C 0.02531 0.19025 0.18512 0.0
C108 C 0.01071 0.21633 0.19239 0.0
C109 C 0.02066 0.23504 0.21644 0.0
C110 C 0.04423 0.22748 0.23357 0.0
C111 C 0.05804 0.20093 0.22659 0.0
C112 C 0.04857 0.18294 0.20252 0.0
C113 C 0.06537 0.15543 0.19848 0.0
C114 C 0.08629 0.15959 0.22445 0.0
C115 C 0.08203 0.18631 0.24083 0.0
C116 C 0.08004 0.1528 0.16382 0.0
C117 C 0.04521 0.13157 0.20591 0.0
C118 C 0.13352 0.23428 0.33248 0.0
C119 C 0.1568 0.22537 0.34941 0.0
C120 C 0.16854 0.19787 0.34289 0.0
C121 C 0.15777 0.17963 0.31952 0.0
C122 C 0.13498 0.18887 0.30224 0.0
C123 C 0.12311 0.21572 0.30878 0.0
C124 C 0.0992 0.22167 0.28738 0.0
C125 C 0.09927 0.19421 0.26658 0.0
C126 C 0.12017 0.1751 0.27572 0.0
C127 C 0.10683 0.24677 0.26686 0.0
C128 C 0.0718 0.22671 0.30943 0.0
H129 H 0.09268 0.09989 0.17959 0.0
H130 H 0.16451 0.06724 0.25327 0.0
H131 H 0.11716 0.10179 0.3013 0.0
H132 H 0.13425 0.12984 0.32019 0.0
H133 H 0.15412 0.09772 0.30737 0.0
H134 H 0.18261 0.1255 0.23382 0.0
H135 H 0.18959 0.11851 0.27485 0.0
H136 H 0.17916 0.15336 0.26365 0.0
H137 H 0.01868 0.1756 0.1663 0.0
H138 H 0.00979 0.25524 0.22256 0.0
H139 H 0.05061 0.24245 0.25184 0.0
H140 H 0.08503 0.17383 0.15518 0.0
H141 H 0.06639 0.14263 0.14606 0.0
H142 H 0.10061 0.14103 0.16283 0.0
H143 H 0.03047 0.13797 0.22723 0.0
H144 H 0.0562 0.11208 0.21245 0.0
H145 H 0.03236 0.12652 0.18489 0.0
H146 H 0.11366 0.05268 0.17115 0.0
C147 C 0.10811 0.09361 0.19601 0.0
C148 C 0.38882 0.4912 0.8029 0.0
C149 C 0.4065 0.47107 0.78439 0.0
C150 C 0.43587 0.47444 0.78315 0.0
C151 C 0.42888 0.51957 0.81325 0.0
C152 C 0.40047 0.51505 0.81731 0.0
C153 C 0.38463 0.53896 0.83678 0.0
H154 H 0.38113 0.67276 0.90154 0.0
C155 C 0.43369 0.54807 0.82729 0.0
C156 C 0.408 0.55931 0.84181 0.0
H157 H 0.31494 0.61326 0.90357 0.0
H158 H 0.34667 0.57724 0.87718 0.0
H159 H 0.43349 0.62725 0.9191 0.0
H160 H 0.4029 0.6568 0.83037 0.0
H161 H 0.43954 0.65192 0.82407 0.0
H162 H 0.42497 0.67759 0.85508 0.0
H163 H 0.43592 0.66293 0.90767 0.0
H164 H 0.46238 0.63621 0.89353 0.0
C165 C 0.373 0.52783 0.86931 0.0
C166 C 0.36172 0.55109 0.81563 0.0
C167 C 0.52553 0.59278 0.79732 0.0
C168 C 0.53431 0.62055 0.8003 0.0
C169 C 0.51727 0.64092 0.81929 0.0
C170 C 0.49142 0.63384 0.83419 0.0
C171 C 0.48227 0.60625 0.82946 0.0
C172 C 0.4995 0.5862 0.81165 0.0
C173 C 0.4858 0.55852 0.80703 0.0
C174 C 0.45733 0.56523 0.8248 0.0
C175 C 0.45533 0.59319 0.83796 0.0
C176 C 0.5032 0.53589 0.82375 0.0
C177 C 0.48342 0.55229 0.76998 0.0
C178 C 0.37372 0.65181 0.89666 0.0
C179 C 0.34552 0.64579 0.90437 0.0
C180 C 0.33649 0.61842 0.89742 0.0
C181 C 0.35496 0.59751 0.8822 0.0
C182 C 0.38275 0.60403 0.87342 0.0
C183 C 0.39194 0.63063 0.88108 0.0
C184 C 0.42212 0.63364 0.86907 0.0
C185 C 0.4296 0.60424 0.85385 0.0
C186 C 0.40626 0.5872 0.8561 0.0
C187 C 0.43956 0.64055 0.89875 0.0
C188 C 0.42268 0.65624 0.84347 0.0
H189 H 0.46951 0.50029 0.79473 0.0
H190 H 0.3662 0.48935 0.80478 0.0
H191 H 0.37043 0.55301 0.79028 0.0
H192 H 0.35369 0.57243 0.82419 0.0
H193 H 0.34359 0.53717 0.81464 0.0
H194 H 0.38523 0.50874 0.87575 0.0
H195 H 0.35068 0.5221 0.86802 0.0
H196 H 0.37474 0.5432 0.89021 0.0
H197 H 0.53782 0.57679 0.7823 0.0
H198 H 0.52367 0.66245 0.82198 0.0
H199 H 0.47915 0.6503 0.84797 0.0
H200 H 0.51426 0.54537 0.84446 0.0
H201 H 0.51944 0.52507 0.80645 0.0
H202 H 0.48982 0.52003 0.83466 0.0
H203 H 0.47672 0.57171 0.75823 0.0
H204 H 0.4676 0.53692 0.76402 0.0
H205 H 0.50401 0.54451 0.75802 0.0
H206 H 0.4502 0.45882 0.77023 0.0
C207 C 0.44712 0.49852 0.79748 0.0
C208 C 0.76438 0.86852 0.34175 0.0
C209 C 0.77297 0.84533 0.35891 0.0
C210 C 0.80078 0.83404 0.35363 0.0
C211 C 0.8105 0.86765 0.31313 0.0
C212 C 0.78356 0.87951 0.31923 0.0
C213 C 0.77836 0.90448 0.29924 0.0
H214 H 0.82521 0.98629 0.18009 0.0
C215 C 0.82468 0.8828 0.28713 0.0
C216 C 0.80607 0.90457 0.27897 0.0
H217 H 0.74842 0.99873 0.24126 0.0
H218 H 0.76027 0.95669 0.26907 0.0
H219 H 0.8635 0.97368 0.23658 0.0
H220 H 0.82372 0.91861 0.16875 0.0
H221 H 0.85727 0.90327 0.17353 0.0
H222 H 0.85418 0.9376 0.15735 0.0
H223 H 0.87599 0.96816 0.19473 0.0
H224 H 0.88792 0.94575 0.22536 0.0
C225 C 0.77363 0.93114 0.32264 0.0
C226 C 0.75336 0.89843 0.27793 0.0
C227 C 0.9228 0.8493 0.24156 0.0
C228 C 0.94066 0.85839 0.21626 0.0
C229 C 0.93102 0.88053 0.19787 0.0
C230 C 0.90449 0.89386 0.20502 0.0
C231 C 0.88716 0.885 0.23081 0.0
C232 C 0.89622 0.86286 0.24833 0.0
C233 C 0.87453 0.85594 0.27432 0.0
C234 C 0.85126 0.87795 0.26981 0.0
C235 C 0.85887 0.89491 0.24437 0.0
C236 C 0.88739 0.86027 0.30782 0.0
C237 C 0.86526 0.82565 0.26617 0.0
C238 C 0.81073 0.97969 0.19913 0.0
C239 C 0.78572 0.99551 0.20831 0.0
C240 C 0.76779 0.98675 0.23382 0.0
C241 C 0.77474 0.96243 0.24991 0.0
C242 C 0.80009 0.94703 0.24068 0.0
C243 C 0.81761 0.95588 0.21576 0.0
C244 C 0.84446 0.93813 0.21041 0.0
C245 C 0.84035 0.91721 0.23639 0.0
C246 C 0.81419 0.92222 0.25378 0.0
C247 C 0.86943 0.95724 0.21681 0.0
C248 C 0.84527 0.9237 0.17568 0.0
H249 H 0.84027 0.83521 0.3276 0.0
H250 H 0.74322 0.87782 0.34575 0.0
H251 H 0.75579 0.87677 0.2662 0.0
H252 H 0.75183 0.91269 0.25793 0.0
H253 H 0.73309 0.90008 0.29284 0.0
H254 H 0.78443 0.9287 0.34559 0.0
H255 H 0.75087 0.93559 0.32933 0.0
H256 H 0.78268 0.94996 0.31236 0.0
H257 H 0.92951 0.83237 0.25616 0.0
H258 H 0.94399 0.88751 0.1777 0.0
H259 H 0.89858 0.91063 0.1902 0.0
H260 H 0.90234 0.87763 0.30775 0.0
H261 H 0.89916 0.84094 0.31419 0.0
H262 H 0.87144 0.86672 0.32767 0.0
H263 H 0.86419 0.82157 0.23945 0.0
H264 H 0.84394 0.82176 0.2764 0.0
H265 H 0.88043 0.80976 0.2747 0.0
H266 H 0.80776 0.81606 0.36646 0.0
C267 C 0.81954 0.84502 0.33083 0.0
C268 C 0.71475 0.25358 0.7168 0.0
C269 C 0.73536 0.26433 0.7366 0.0
C270 C 0.75059 0.28734 0.72628 0.0
C271 C 0.72196 0.29065 0.67971 0.0
C272 C 0.70808 0.26724 0.68902 0.0
C273 C 0.68382 0.26083 0.66849 0.0
H274 H 0.5946 0.3036 0.55866 0.0
C275 C 0.70789 0.30154 0.65164 0.0
C276 C 0.68554 0.28408 0.645 0.0
H277 H 0.58723 0.23374 0.62058 0.0
H278 H 0.63387 0.24103 0.63841 0.0
H279 H 0.61884 0.34515 0.61219 0.0
H280 H 0.65883 0.2916 0.53407 0.0
H281 H 0.68063 0.32028 0.5387 0.0
H282 H 0.64484 0.32613 0.52728 0.0
H283 H 0.61506 0.35015 0.56982 0.0
H284 H 0.64353 0.36471 0.59077 0.0
C285 C 0.65624 0.26338 0.69082 0.0
C286 C 0.68988 0.2315 0.65075 0.0
C287 C 0.73433 0.39537 0.60791 0.0
C288 C 0.72264 0.41141 0.5841 0.0
C289 C 0.70315 0.39926 0.56369 0.0
C290 C 0.69371 0.37234 0.56848 0.0
C291 C 0.70346 0.35758 0.59433 0.0
C292 C 0.72442 0.36842 0.61258 0.0
C293 C 0.73246 0.34914 0.63855 0.0
C294 C 0.71218 0.32561 0.63345 0.0
C295 C 0.69485 0.33109 0.60795 0.0
C296 C 0.72669 0.36539 0.67208 0.0
C297 C 0.7635 0.33868 0.63103 0.0
C298 C 0.60301 0.28985 0.57608 0.0
C299 C 0.58689 0.26839 0.58863 0.0
C300 C 0.59908 0.25044 0.61046 0.0
C301 C 0.62609 0.25491 0.6211 0.0
C302 C 0.64098 0.27783 0.61022 0.0
C303 C 0.62973 0.29436 0.58738 0.0
C304 C 0.64808 0.31827 0.57926 0.0
C305 C 0.67181 0.31387 0.60182 0.0
C306 C 0.66741 0.29029 0.62 0.0
C307 C 0.63065 0.34614 0.58823 0.0
C308 C 0.65858 0.31413 0.54294 0.0
H309 H 0.75588 0.31832 0.69173 0.0
H310 H 0.70294 0.23565 0.72359 0.0
H311 H 0.71237 0.22889 0.64165 0.0
H312 H 0.67759 0.22828 0.62905 0.0
H313 H 0.68557 0.21446 0.6674 0.0
H314 H 0.65852 0.27736 0.71299 0.0
H315 H 0.65021 0.24253 0.69902 0.0
H316 H 0.63834 0.27321 0.6791 0.0
H317 H 0.74941 0.40426 0.62383 0.0
H318 H 0.69426 0.41118 0.54487 0.0
H319 H 0.6782 0.36462 0.55282 0.0
H320 H 0.7071 0.379 0.67239 0.0
H321 H 0.74428 0.37915 0.67772 0.0
H322 H 0.7231 0.3515 0.69223 0.0
H323 H 0.76831 0.33524 0.60435 0.0
H324 H 0.76832 0.31811 0.64097 0.0
H325 H 0.7782 0.35429 0.64044 0.0
H326 H 0.76653 0.29616 0.74102 0.0
C327 C 0.74414 0.3004 0.6978 0.0
C328 C 0.6136 0.50966 0.27049 0.0
C329 C 0.60233 0.52372 0.29969 0.0
C330 C 0.57658 0.51496 0.31367 0.0
C331 C 0.57512 0.47778 0.27142 0.0
C332 C 0.5999 0.48661 0.25711 0.0
C333 C 0.61069 0.4673 0.22848 0.0
H334 H 0.60142 0.34348 0.14199 0.0
C335 C 0.56735 0.45202 0.25315 0.0
C336 C 0.58803 0.44571 0.22787 0.0
H337 H 0.66621 0.40409 0.13247 0.0
H338 H 0.64023 0.43583 0.17225 0.0
H339 H 0.59107 0.35027 0.22031 0.0
H340 H 0.54974 0.38825 0.14253 0.0
H341 H 0.52381 0.38524 0.17406 0.0
H342 H 0.54145 0.35383 0.15459 0.0
H343 H 0.57229 0.33101 0.19038 0.0
H344 H 0.55426 0.34758 0.2262 0.0
C345 C 0.63972 0.45424 0.23637 0.0
C346 C 0.61137 0.48436 0.19768 0.0
C347 C 0.48347 0.39946 0.29477 0.0
C348 C 0.47078 0.37478 0.28368 0.0
C349 C 0.48097 0.36139 0.25356 0.0
C350 C 0.5042 0.37146 0.23595 0.0
C351 C 0.51738 0.3953 0.24835 0.0
C352 C 0.50626 0.40944 0.27663 0.0
C353 C 0.52196 0.43523 0.28541 0.0
C354 C 0.54479 0.4339 0.25808 0.0
C355 C 0.54245 0.41013 0.23688 0.0
C356 C 0.53427 0.43148 0.31899 0.0
C357 C 0.50151 0.4613 0.28416 0.0
C358 C 0.60989 0.36374 0.14804 0.0
C359 C 0.63612 0.37108 0.13422 0.0
C360 C 0.64636 0.39763 0.14317 0.0
C361 C 0.63121 0.41606 0.16622 0.0
C362 C 0.60563 0.40783 0.18077 0.0
C363 C 0.59507 0.38232 0.17105 0.0
C364 C 0.56742 0.37713 0.1888 0.0
C365 C 0.56365 0.4033 0.21168 0.0
C366 C 0.58619 0.42112 0.20701 0.0
C367 C 0.57121 0.35003 0.20738 0.0
C368 C 0.54431 0.37582 0.16386 0.0
H369 H 0.54371 0.48656 0.31189 0.0
H370 H 0.63315 0.51578 0.25873 0.0
H371 H 0.59269 0.49923 0.19819 0.0
H372 H 0.61041 0.47096 0.17505 0.0
H373 H 0.63051 0.49691 0.19594 0.0
H374 H 0.64041 0.45096 0.2628 0.0
H375 H 0.65701 0.46819 0.22971 0.0
H376 H 0.64442 0.43315 0.22436 0.0
H377 H 0.47671 0.41039 0.31779 0.0
H378 H 0.47126 0.34286 0.24371 0.0
H379 H 0.51135 0.36 0.21364 0.0
H380 H 0.54078 0.40908 0.32173 0.0
H381 H 0.51847 0.438 0.33918 0.0
H382 H 0.55358 0.4431 0.3224 0.0
H383 H 0.48582 0.45773 0.26555 0.0
H384 H 0.51233 0.48024 0.2768 0.0
H385 H 0.48964 0.46614 0.30794 0.0
H386 H 0.56748 0.5246 0.33648 0.0
C387 C 0.56285 0.4924 0.29954 0.0
C388 C 0.21099 0.168 0.76083 0.0
C389 C 0.23914 0.1598 0.75126 0.0
C390 C 0.25232 0.13749 0.76646 0.0
C391 C 0.20914 0.13079 0.79854 0.0
C392 C 0.19641 0.15319 0.78435 0.0
C393 C 0.16599 0.15822 0.7962 0.0
H394 H 0.0522 0.11245 0.8809 0.0
C395 C 0.18784 0.11875 0.82046 0.0
C396 C 0.16244 0.13472 0.81923 0.0
H397 H 0.05604 0.18679 0.82611 0.0
H398 H 0.10634 0.17749 0.81407 0.0
H399 H 0.09241 0.07168 0.83259 0.0
H400 H 0.10613 0.12402 0.91787 0.0
H401 H 0.12985 0.09501 0.91896 0.0
H402 H 0.09244 0.08967 0.92054 0.0
H403 H 0.08002 0.06399 0.8729 0.0
H404 H 0.11462 0.05214 0.85631 0.0
C405 C 0.1476 0.15458 0.76665 0.0
C406 C 0.16259 0.18764 0.81437 0.0
C407 C 0.21373 0.03251 0.88185 0.0
C408 C 0.19803 0.01697 0.90386 0.0
C409 C 0.16913 0.02398 0.91048 0.0
C410 C 0.15612 0.04649 0.89612 0.0
C411 C 0.17209 0.06231 0.8748 0.0
C412 C 0.20035 0.05523 0.86781 0.0
C413 C 0.2138 0.07479 0.84471 0.0
C414 C 0.18903 0.09495 0.8396 0.0
C415 C 0.16472 0.08736 0.85715 0.0
C416 C 0.22388 0.05724 0.81305 0.0
C417 C 0.23749 0.08982 0.86213 0.0
C418 C 0.06393 0.12663 0.8662 0.0
C419 C 0.05038 0.15006 0.85394 0.0
C420 C 0.06625 0.16851 0.83558 0.0
C421 C 0.09531 0.163 0.8286 0.0
C422 C 0.10851 0.13895 0.84041 0.0
C423 C 0.09284 0.12164 0.85945 0.0
C424 C 0.11029 0.0979 0.87144 0.0
C425 C 0.13901 0.10326 0.85581 0.0
C426 C 0.13789 0.12708 0.83733 0.0
C427 C 0.0988 0.06984 0.85792 0.0
C428 C 0.10963 0.10153 0.90913 0.0
H429 H 0.24867 0.10605 0.80046 0.0
H430 H 0.20021 0.18492 0.74942 0.0
H431 H 0.18183 0.19268 0.82724 0.0
H432 H 0.14537 0.18898 0.83363 0.0
H433 H 0.15892 0.20435 0.79722 0.0
H434 H 0.15539 0.13599 0.75058 0.0
H435 H 0.14819 0.17337 0.75193 0.0
H436 H 0.12544 0.1507 0.77354 0.0
H437 H 0.23598 0.02758 0.87638 0.0
H438 H 0.15651 0.01197 0.92694 0.0
H439 H 0.13412 0.05071 0.90235 0.0
H440 H 0.20942 0.03998 0.80784 0.0
H441 H 0.24525 0.04746 0.815 0.0
H442 H 0.2239 0.06962 0.79124 0.0
H443 H 0.23128 0.09456 0.88835 0.0
H444 H 0.24197 0.11044 0.85255 0.0
H445 H 0.25726 0.07645 0.86054 0.0
H446 H 0.27411 0.13108 0.75989 0.0
C447 C 0.23752 0.123 0.79006 0.0
C448 C 0.26289 0.70076 0.35536 0.0
C449 C 0.27471 0.7205 0.33514 0.0
C450 C 0.29814 0.73511 0.34544 0.0
C451 C 0.29888 0.70853 0.3938 0.0
C452 C 0.27535 0.69498 0.38422 0.0
C453 C 0.2668 0.67265 0.40661 0.0
H454 H 0.30067 0.59031 0.52666 0.0
C455 C 0.30769 0.69625 0.42392 0.0
C456 C 0.28883 0.67531 0.43158 0.0
H457 H 0.23466 0.58028 0.45987 0.0
H458 H 0.2435 0.62589 0.43979 0.0
H459 H 0.3454 0.61064 0.47479 0.0
H460 H 0.28892 0.65591 0.54629 0.0
H461 H 0.3179 0.67731 0.54124 0.0
H462 H 0.3229 0.64272 0.55644 0.0
H463 H 0.34735 0.60905 0.51801 0.0
H464 H 0.3644 0.6357 0.49644 0.0
C465 C 0.26928 0.64373 0.38689 0.0
C466 C 0.23691 0.68081 0.42192 0.0
C467 C 0.40066 0.72137 0.47105 0.0
C468 C 0.41453 0.71139 0.4976 0.0
C469 C 0.3998 0.69498 0.51969 0.0
C470 C 0.37267 0.68655 0.514 0.0
C471 C 0.36021 0.69422 0.48566 0.0
C472 C 0.3734 0.71257 0.46563 0.0
C473 C 0.35592 0.71944 0.43758 0.0
C474 C 0.3309 0.70104 0.44339 0.0
C475 C 0.33401 0.68582 0.47118 0.0
C476 C 0.37329 0.71026 0.40553 0.0
C477 C 0.34714 0.75117 0.44122 0.0
C478 C 0.28798 0.59807 0.50787 0.0
C479 C 0.26738 0.58142 0.49436 0.0
C480 C 0.25073 0.5926 0.47064 0.0
C481 C 0.25616 0.61895 0.45869 0.0
C482 C 0.27871 0.63405 0.47023 0.0
C483 C 0.29357 0.62401 0.49521 0.0
C484 C 0.31759 0.64214 0.50351 0.0
C485 C 0.3154 0.66416 0.47843 0.0
C486 C 0.29271 0.65919 0.45895 0.0
C487 C 0.34524 0.62361 0.49813 0.0
C488 C 0.31178 0.65513 0.53872 0.0
H489 H 0.32831 0.74071 0.38089 0.0
H490 H 0.24465 0.68944 0.34855 0.0
H491 H 0.23488 0.70373 0.42899 0.0
H492 H 0.23198 0.67015 0.4445 0.0
H493 H 0.22062 0.67604 0.40443 0.0
H494 H 0.28389 0.64414 0.36487 0.0
H495 H 0.24852 0.63749 0.37858 0.0
H496 H 0.27833 0.62672 0.40072 0.0
H497 H 0.41134 0.73432 0.45391 0.0
H498 H 0.40977 0.68774 0.54082 0.0
H499 H 0.36293 0.67333 0.53112 0.0
H500 H 0.3845 0.68954 0.40762 0.0
H501 H 0.38936 0.72578 0.39973 0.0
H502 H 0.36025 0.70727 0.38451 0.0
H503 H 0.34411 0.75864 0.4673 0.0
H504 H 0.32667 0.75594 0.43095 0.0
H505 H 0.36348 0.76402 0.42971 0.0
H506 H 0.30782 0.75032 0.33031 0.0
C507 C 0.31017 0.72934 0.37472 0.0
C508 C 0.83533 0.9149 0.86811 0.0
C509 C 0.84643 0.93472 0.88991 0.0
C510 C 0.87271 0.92854 0.90259 0.0
C511 C 0.87652 0.88366 0.87172 0.0
C512 C 0.85068 0.88957 0.85946 0.0
C513 C 0.84218 0.86628 0.83638 0.0
H514 H 0.87381 0.74164 0.75269 0.0
C515 C 0.88727 0.8559 0.85741 0.0
C516 C 0.86724 0.8455 0.83683 0.0
H517 H 0.79898 0.79616 0.75107 0.0
H518 H 0.81641 0.82763 0.79189 0.0
H519 H 0.91843 0.792 0.75589 0.0
H520 H 0.87724 0.74667 0.83146 0.0
H521 H 0.91224 0.7513 0.84133 0.0
H522 H 0.90532 0.73069 0.8048 0.0
H523 H 0.92574 0.7552 0.76049 0.0
H524 H 0.94342 0.78177 0.78328 0.0
C525 C 0.83969 0.87838 0.80252 0.0
C526 C 0.8147 0.85425 0.85089 0.0
C527 C 0.98362 0.81882 0.88454 0.0
C528 C 0.9997 0.79413 0.87525 0.0
C529 C 0.98871 0.77342 0.85448 0.0
C530 C 0.96185 0.77768 0.84256 0.0
C531 C 0.94604 0.80284 0.85174 0.0
C532 C 0.95697 0.82269 0.87272 0.0
C533 C 0.93734 0.84788 0.8806 0.0
C534 C 0.91276 0.84016 0.86071 0.0
C535 C 0.91793 0.81388 0.84363 0.0
C536 C 0.95202 0.87409 0.86829 0.0
C537 C 0.92923 0.84944 0.91765 0.0
C538 C 0.86129 0.76041 0.76117 0.0
C539 C 0.83492 0.76633 0.74871 0.0
C540 C 0.81911 0.79082 0.76061 0.0
C541 C 0.8294 0.80928 0.78415 0.0
C542 C 0.85592 0.80342 0.79595 0.0
C543 C 0.87131 0.77918 0.78483 0.0
C544 C 0.89894 0.77646 0.80071 0.0
C545 C 0.89768 0.80332 0.82262 0.0
C546 C 0.87245 0.81901 0.81949 0.0
C547 C 0.92306 0.77615 0.77385 0.0
C548 C 0.89872 0.74982 0.8205 0.0
H549 H 0.90766 0.8999 0.90407 0.0
H550 H 0.81511 0.91892 0.85812 0.0
H551 H 0.8139 0.85576 0.87794 0.0
H552 H 0.81304 0.83158 0.84433 0.0
H553 H 0.79578 0.86597 0.84328 0.0
H554 H 0.85614 0.89386 0.79795 0.0
H555 H 0.81884 0.88938 0.80079 0.0
H556 H 0.84313 0.86228 0.7822 0.0
H557 H 0.9917 0.83488 0.90075 0.0
H558 H 0.00099 0.75419 0.84727 0.0
H559 H 0.95451 0.76136 0.82656 0.0
H560 H 0.96501 0.86863 0.84531 0.0
H561 H 0.96619 0.88277 0.88645 0.0
H562 H 0.93703 0.89097 0.86212 0.0
H563 H 0.92873 0.82804 0.9271 0.0
H564 H 0.90781 0.8588 0.92382 0.0
H565 H 0.94462 0.86145 0.93147 0.0
H566 H 0.88201 0.94362 0.91897 0.0
C567 C 0.88774 0.90317 0.8937 0.0
H568 H 0.20098 0.91916 0.10897 0.0
H569 H 0.17687 0.87211 0.19193 0.0
H570 H 0.16779 0.91675 0.22563 0.0
H571 H 0.23037 0.98204 0.15357 0.0
H572 H 0.21502 0.00528 0.12582 0.0
H573 H 0.22647 0.96982 0.11202 0.0
H574 H 0.17585 0.9616 0.0927 0.0
H575 H 0.16515 0.99701 0.10694 0.0
H576 H 0.14606 0.96785 0.12151 0.0
H577 H 0.15597 0.96639 0.24801 0.0
H578 H 0.13968 0.01647 0.25653 0.0
H579 H 0.16698 0.03046 0.15697 0.0
C580 C 0.1951 0.91839 0.13464 0.0
C581 C 0.19059 0.89249 0.14842 0.0
C582 C 0.18128 0.89193 0.18149 0.0
C583 C 0.17603 0.91713 0.20066 0.0
C584 C 0.17975 0.94255 0.18607 0.0
C585 C 0.18902 0.94333 0.15373 0.0
C586 C 0.18706 0.97296 0.14239 0.0
C587 C 0.21648 0.98314 0.13289 0.0
C588 C 0.16735 0.97497 0.11423 0.0
C589 C 0.17444 0.98867 0.17304 0.0
C590 C 0.17106 0.97092 0.19822 0.0
C591 C 0.15881 0.98051 0.22857 0.0
C592 C 0.1496 0.00889 0.2332 0.0
C593 C 0.15211 0.02708 0.20737 0.0
C594 C 0.16488 0.01687 0.17705 0.0
H595 H 0.60304 0.68788 0.64628 0.0
H596 H 0.66524 0.61849 0.6416 0.0
H597 H 0.64894 0.60654 0.69685 0.0
H598 H 0.60233 0.70623 0.73603 0.0
H599 H 0.56466 0.71269 0.73908 0.0
H600 H 0.58472 0.71939 0.70211 0.0
H601 H 0.5533 0.68656 0.66907 0.0
H602 H 0.53312 0.67997 0.70579 0.0
H603 H 0.54938 0.65092 0.68056 0.0
H604 H 0.62283 0.59873 0.74914 0.0
H605 H 0.58571 0.59238 0.79205 0.0
H606 H 0.5386 0.66517 0.7618 0.0
C607 C 0.61372 0.67073 0.6574 0.0
C608 C 0.63561 0.65431 0.64007 0.0
C609 C 0.64852 0.63138 0.65471 0.0
C610 C 0.63957 0.6246 0.68614 0.0
C611 C 0.61755 0.64086 0.70246 0.0
C612 C 0.60462 0.66333 0.68852 0.0
C613 C 0.57886 0.67477 0.70918 0.0
C614 C 0.58289 0.70507 0.72239 0.0
C615 C 0.5521 0.67292 0.69001 0.0
C616 C 0.57872 0.65457 0.73623 0.0
C617 C 0.60166 0.63567 0.73233 0.0
C618 C 0.60498 0.61363 0.75273 0.0
C619 C 0.58378 0.61014 0.77696 0.0
C620 C 0.55937 0.62835 0.78031 0.0
C621 C 0.55735 0.65139 0.76036 0.0
H622 H 0.79124 0.09256 0.05858 0.0
H623 H 0.7842 0.16471 0.12777 0.0
H624 H 0.77517 0.13305 0.17275 0.0
H625 H 0.73962 0.04856 0.09835 0.0
H626 H 0.7611 0.01682 0.08856 0.0
H627 H 0.76294 0.04563 0.06218 0.0
H628 H 0.81724 0.04668 0.06779 0.0
H629 H 0.815 0.01753 0.09352 0.0
H630 H 0.83044 0.04953 0.10782 0.0
H631 H 0.76946 0.09286 0.21004 0.0
H632 H 0.77253 0.04787 0.23717 0.0
H633 H 0.78629 0.00241 0.14313 0.0
C634 C 0.78715 0.10162 0.08318 0.0
C635 C 0.78773 0.13087 0.09002 0.0
C636 C 0.78333 0.14225 0.12236 0.0
C637 C 0.77814 0.12447 0.14787 0.0
C638 C 0.77785 0.0955 0.1404 0.0
C639 C 0.78256 0.08418 0.10882 0.0
C640 C 0.7843 0.05237 0.1074 0.0
C641 C 0.76057 0.04013 0.08798 0.0
C642 C 0.81347 0.04086 0.09331 0.0
C643 C 0.78005 0.04742 0.14318 0.0
C644 C 0.77587 0.07249 0.16182 0.0
C645 C 0.7725 0.07312 0.19567 0.0
C646 C 0.77412 0.04752 0.21085 0.0
C647 C 0.77953 0.0218 0.19217 0.0
C648 C 0.78201 0.02182 0.15793 0.0
H649 H 0.43342 0.32993 0.55827 0.0
H650 H 0.40589 0.2443 0.54812 0.0
H651 H 0.45395 0.2264 0.5586 0.0
H652 H 0.50118 0.31767 0.5191 0.0
H653 H 0.51808 0.34172 0.5463 0.0
H654 H 0.48142 0.34753 0.53906 0.0
H655 H 0.46831 0.34791 0.60098 0.0
H656 H 0.50497 0.34239 0.60846 0.0
H657 H 0.47951 0.31853 0.62343 0.0
H658 H 0.50624 0.21824 0.56788 0.0
H659 H 0.55692 0.22062 0.57782 0.0
H660 H 0.54842 0.31188 0.58343 0.0
C661 C 0.4374 0.30738 0.5583 0.0
C662 C 0.41597 0.28849 0.55214 0.0
C663 C 0.42201 0.25916 0.55279 0.0
C664 C 0.44924 0.24882 0.55863 0.0
C665 C 0.47001 0.26811 0.56409 0.0
C666 C 0.46423 0.29679 0.5643 0.0
C667 C 0.48999 0.31326 0.57085 0.0
C668 C 0.49814 0.33108 0.54211 0.0
C669 C 0.48542 0.33159 0.60283 0.0
C670 C 0.5114 0.28939 0.57378 0.0
C671 C 0.4996 0.26348 0.56985 0.0
C672 C 0.51562 0.23844 0.57121 0.0
C673 C 0.54437 0.24 0.57694 0.0
C674 C 0.55678 0.26642 0.58122 0.0
C675 C 0.53985 0.29132 0.57962 0.0
H676 H 0.61992 0.63276 0.44758 0.0
H677 H 0.70982 0.61227 0.43571 0.0
H678 H 0.70319 0.58709 0.3831 0.0
H679 H 0.59776 0.56934 0.41945 0.0
H680 H 0.56851 0.58256 0.39808 0.0
H681 H 0.58066 0.60302 0.43202 0.0
H682 H 0.58783 0.64518 0.39597 0.0
H683 H 0.57551 0.62489 0.3618 0.0
H684 H 0.60942 0.64035 0.35853 0.0
H685 H 0.68604 0.5572 0.33774 0.0
H686 H 0.65992 0.52632 0.30186 0.0
H687 H 0.58141 0.56946 0.3394 0.0
C688 C 0.63829 0.62355 0.43355 0.0
C689 C 0.66536 0.62441 0.44583 0.0
C690 C 0.68887 0.61196 0.42681 0.0
C691 C 0.68534 0.59767 0.3968 0.0
C692 C 0.65828 0.5965 0.38583 0.0
C693 C 0.6352 0.60948 0.40334 0.0
C694 C 0.60813 0.60313 0.38738 0.0
C695 C 0.58758 0.58865 0.41061 0.0
C696 C 0.59442 0.62999 0.37519 0.0
C697 C 0.61948 0.58321 0.35928 0.0
C698 C 0.64848 0.57997 0.35858 0.0
C699 C 0.66341 0.5602 0.33731 0.0
C700 C 0.64827 0.5428 0.31676 0.0
C701 C 0.61842 0.54534 0.31743 0.0
C702 C 0.60413 0.56663 0.33826 0.0
H703 H 0.91283 0.20975 0.95706 0.0
H704 H 0.87334 0.13435 0.9218 0.0
H705 H 0.9138 0.12337 0.88239 0.0
H706 H 0.94922 0.22646 0.87766 0.0
H707 H 0.98029 0.23736 0.89708 0.0
H708 H 0.94619 0.24217 0.9186 0.0
H709 H 0.96449 0.21412 0.96564 0.0
H710 H 0.99853 0.20924 0.94431 0.0
H711 H 0.9799 0.17911 0.95683 0.0
H712 H 0.96014 0.11699 0.85238 0.0
H713 H 0.01069 0.1148 0.83465 0.0
H714 H 0.02147 0.19377 0.88904 0.0
C715 C 0.91242 0.19143 0.94033 0.0
C716 C 0.88992 0.17301 0.94217 0.0
C717 C 0.89039 0.14873 0.92065 0.0
C718 C 0.91317 0.14242 0.89807 0.0
C719 C 0.93538 0.16057 0.89733 0.0
C720 C 0.93528 0.18459 0.91785 0.0
C721 C 0.96327 0.19866 0.91462 0.0
C722 C 0.95951 0.2279 0.90118 0.0
C723 C 0.97737 0.20036 0.94728 0.0
C724 C 0.97939 0.17823 0.88999 0.0
C725 C 0.96265 0.15671 0.87995 0.0
C726 C 0.97331 0.134 0.85948 0.0
C727 C 0.00197 0.1329 0.84957 0.0
C728 C 0.01962 0.15433 0.86012 0.0
C729 C 0.0081 0.17759 0.87998 0.0
H730 H 0.33365 0.42972 0.52113 0.0
H731 H 0.24906 0.39922 0.5316 0.0
H732 H 0.22945 0.44692 0.52257 0.0
H733 H 0.3191 0.49607 0.56287 0.0
H734 H 0.34247 0.51444 0.53635 0.0
H735 H 0.34957 0.47776 0.54231 0.0
H736 H 0.35024 0.46615 0.48006 0.0
H737 H 0.34347 0.50285 0.47387 0.0
H738 H 0.32044 0.47697 0.45802 0.0
H739 H 0.21947 0.49915 0.51366 0.0
H740 H 0.22032 0.55011 0.50432 0.0
H741 H 0.3117 0.54449 0.49986 0.0
C742 C 0.31097 0.4329 0.52139 0.0
C743 C 0.2929 0.41072 0.52717 0.0
C744 C 0.26335 0.41589 0.52718 0.0
C745 C 0.25202 0.44292 0.52215 0.0
C746 C 0.27054 0.46441 0.51706 0.0
C747 C 0.2994 0.45954 0.51646 0.0
C748 C 0.31497 0.48598 0.51083 0.0
C749 C 0.33256 0.49402 0.53982 0.0
C750 C 0.33335 0.48279 0.47879 0.0
C751 C 0.29039 0.50667 0.50863 0.0
C752 C 0.26489 0.494 0.51218 0.0
C753 C 0.23935 0.50925 0.51082 0.0
C754 C 0.24002 0.53813 0.50549 0.0
C755 C 0.26605 0.55137 0.50179 0.0
C756 C 0.29142 0.53524 0.50339 0.0
H757 H 0.09822 0.77605 0.01962 0.0
H758 H 0.15187 0.83554 0.97355 0.0
H759 H 0.1256 0.8305 0.92382 0.0
H760 H 0.08567 0.73103 0.94494 0.0
H761 H 0.04932 0.72692 0.95793 0.0
H762 H 0.07535 0.73115 0.98769 0.0
H763 H 0.04606 0.77385 0.01566 0.0
H764 H 0.01995 0.76959 0.98622 0.0
H765 H 0.03625 0.80288 0.99189 0.0
H766 H 0.0905 0.82384 0.88227 0.0
H767 H 0.04661 0.81898 0.85355 0.0
H768 H 0.01478 0.76471 0.92649 0.0
C769 C 0.10486 0.78741 0.99871 0.0
C770 C 0.12718 0.80599 0.00019 0.0
C771 C 0.13481 0.82117 0.97279 0.0
C772 C 0.12019 0.81825 0.94438 0.0
C773 C 0.09795 0.80012 0.94382 0.0
C774 C 0.09018 0.78506 0.97032 0.0
C775 C 0.06329 0.76991 0.965 0.0
C776 C 0.06875 0.73784 0.96382 0.0
C777 C 0.04002 0.77966 0.99124 0.0
C778 C 0.05657 0.77967 0.93191 0.0
C779 C 0.07723 0.79653 0.9198 0.0
C780 C 0.07452 0.81016 0.89107 0.0
C781 C 0.04966 0.80722 0.87487 0.0
C782 C 0.02795 0.79089 0.8875 0.0
C783 C 0.03168 0.77642 0.91587 0.0
H784 H 0.81548 0.07282 0.00299 0.0
H785 H 0.78488 0.11354 0.91976 0.0
H786 H 0.7871 0.06738 0.8884 0.0
H787 H 0.86489 0.02849 0.96245 0.0
H788 H 0.85949 0.99884 0.98696 0.0
H789 H 0.85119 0.03391 0.00413 0.0
H790 H 0.80001 0.02064 0.01946 0.0
H791 H 0.80834 0.98528 0.00283 0.0
H792 H 0.77906 0.00534 0.98863 0.0
H793 H 0.79931 0.01788 0.86431 0.0
H794 H 0.81938 0.96974 0.84999 0.0
H795 H 0.84013 0.96193 0.95014 0.0
C796 C 0.80869 0.07197 0.97837 0.0
C797 C 0.80008 0.09663 0.96366 0.0
C798 C 0.79135 0.09475 0.93145 0.0
C799 C 0.79254 0.06867 0.91353 0.0
C800 C 0.8019 0.04478 0.92855 0.0
C801 C 0.80938 0.04622 0.96045 0.0
C802 C 0.8206 0.0181 0.97047 0.0
C803 C 0.85083 0.01997 0.98163 0.0
C804 C 0.80082 0.00666 0.99691 0.0
C805 C 0.81983 0.00088 0.93867 0.0
C806 C 0.80853 0.01639 0.91488 0.0
C807 C 0.80764 0.00538 0.88292 0.0
C808 C 0.81902 0.978 0.87503 0.0
C809 C 0.83131 0.96213 0.89897 0.0
C810 C 0.83101 0.9736 0.93128 0.0
H811 H 0.36769 0.37424 0.44136 0.0
H812 H 0.3758 0.28294 0.4315 0.0
H813 H 0.3997 0.2854 0.37733 0.0
H814 H 0.35763 0.38453 0.35303 0.0
H815 H 0.37779 0.41576 0.35386 0.0
H816 H 0.35756 0.40686 0.38984 0.0
H817 H 0.40247 0.40849 0.42234 0.0
H818 H 0.42285 0.41719 0.38655 0.0
H819 H 0.43319 0.38689 0.408 0.0
H820 H 0.42946 0.29757 0.32914 0.0
H821 H 0.46129 0.31858 0.28931 0.0
H822 H 0.43071 0.40206 0.32715 0.0
C823 C 0.37388 0.35475 0.4275 0.0
C824 C 0.36994 0.32841 0.44082 0.0
C825 C 0.37858 0.3034 0.42193 0.0
C826 C 0.3921 0.30454 0.39101 0.0
C827 C 0.39642 0.33083 0.37901 0.0
C828 C 0.38722 0.35549 0.39641 0.0
C829 C 0.39642 0.381 0.37898 0.0
C830 C 0.37082 0.39804 0.36829 0.0
C831 C 0.41483 0.39946 0.40024 0.0
C832 C 0.41343 0.36678 0.34996 0.0
C833 C 0.4129 0.33785 0.35027 0.0
C834 C 0.4294 0.32021 0.32801 0.0
C835 C 0.44736 0.33244 0.30523 0.0
C836 C 0.44864 0.36212 0.30467 0.0
C837 C 0.43063 0.37934 0.32684 0.0
H838 H 0.19784 0.91939 0.04915 0.0
H839 H 0.23911 0.8533 0.98466 0.0
H840 H 0.24863 0.88822 0.94332 0.0
H841 H 0.16181 0.95165 0.99248 0.0
H842 H 0.16476 0.98689 0.00997 0.0
H843 H 0.16623 0.95761 0.03533 0.0
H844 H 0.215 0.97336 0.05419 0.0
H845 H 0.21308 0.0026 0.02851 0.0
H846 H 0.24313 0.97809 0.02416 0.0
H847 H 0.24572 0.92936 0.90601 0.0
H848 H 0.23132 0.97172 0.87762 0.0
H849 H 0.19329 0.00984 0.96838 0.0
C850 C 0.20962 0.91236 0.0267 0.0
C851 C 0.2178 0.88376 0.01997 0.0
C852 C 0.23296 0.87526 0.99029 0.0
C853 C 0.23842 0.89494 0.96676 0.0
C854 C 0.22907 0.92297 0.97379 0.0
C855 C 0.21537 0.93161 0.00338 0.0
C856 C 0.20476 0.96194 0.00427 0.0
C857 C 0.17251 0.96466 0.01089 0.0
C858 C 0.2199 0.98007 0.02926 0.0
C859 C 0.21335 0.96883 0.97002 0.0
C860 C 0.22773 0.94638 0.95276 0.0
C861 C 0.23508 0.94724 0.91956 0.0
C862 C 0.22688 0.97133 0.90363 0.0
C863 C 0.21122 0.99388 0.92093 0.0
C864 C 0.20532 0.99287 0.95465 0.0
H865 H 0.56913 0.65829 0.53078 0.0
H866 H 0.59639 0.74381 0.52499 0.0
H867 H 0.54815 0.75923 0.51176 0.0
H868 H 0.52226 0.65931 0.46525 0.0
H869 H 0.49722 0.63793 0.48567 0.0
H870 H 0.53407 0.63407 0.49297 0.0
H871 H 0.52217 0.64346 0.55492 0.0
H872 H 0.48533 0.64746 0.54784 0.0
H873 H 0.50242 0.67524 0.56952 0.0
H874 H 0.49532 0.76482 0.50047 0.0
H875 H 0.44412 0.75998 0.49363 0.0
H876 H 0.45383 0.67074 0.50784 0.0
C877 C 0.56518 0.68031 0.52664 0.0
C878 C 0.58657 0.69986 0.52907 0.0
C879 C 0.58032 0.72843 0.52331 0.0
C880 C 0.553 0.73736 0.51575 0.0
C881 C 0.53234 0.71742 0.51394 0.0
C882 C 0.53831 0.68947 0.51919 0.0
C883 C 0.51265 0.67206 0.51682 0.0
C884 C 0.51681 0.64952 0.48849 0.0
C885 C 0.50521 0.65879 0.5492 0.0
C886 C 0.49101 0.69457 0.50993 0.0
C887 C 0.50258 0.72062 0.508 0.0
C888 C 0.48613 0.7445 0.50193 0.0
C889 C 0.45715 0.74159 0.49804 0.0
C890 C 0.44505 0.71508 0.50068 0.0
C891 C 0.46239 0.69139 0.50632 0.0
H892 H 0.3873 0.38446 0.61759 0.0
H893 H 0.30618 0.36047 0.65809 0.0
H894 H 0.3167 0.38242 0.71164 0.0
H895 H 0.42725 0.37592 0.6899 0.0
H896 H 0.44733 0.40651 0.6829 0.0
H897 H 0.43469 0.38614 0.649 0.0
H898 H 0.40953 0.43095 0.62966 0.0
H899 H 0.4222 0.45142 0.66332 0.0
H900 H 0.38497 0.4514 0.65744 0.0
H901 H 0.33543 0.40918 0.76009 0.0
H902 H 0.35883 0.44141 0.7979 0.0
H903 H 0.42589 0.45006 0.72355 0.0
C904 C 0.37192 0.38336 0.63784 0.0
C905 C 0.34601 0.37059 0.6338 0.0
C906 C 0.32619 0.37015 0.66072 0.0
C907 C 0.33205 0.3824 0.69123 0.0
C908 C 0.35774 0.39508 0.69429 0.0
C909 C 0.37725 0.39578 0.66821 0.0
C910 C 0.40214 0.41281 0.67693 0.0
C911 C 0.42947 0.39423 0.67454 0.0
C912 C 0.40485 0.43814 0.65558 0.0
C913 C 0.3934 0.42205 0.71186 0.0
C914 C 0.36801 0.41124 0.72167 0.0
C915 C 0.35536 0.41773 0.75266 0.0
C916 C 0.36873 0.43624 0.7739 0.0
C917 C 0.39427 0.44844 0.76386 0.0
C918 C 0.40681 0.44073 0.73251 0.0
H919 H 0.09721 0.85734 0.14198 0.0
H920 H 0.10033 0.76625 0.14109 0.0
H921 H 0.05419 0.76819 0.17274 0.0
H922 H 0.06126 0.87067 0.22436 0.0
H923 H 0.04135 0.90059 0.21144 0.0
H924 H 0.07613 0.89162 0.1932 0.0
H925 H 0.05592 0.88948 0.13615 0.0
H926 H 0.02112 0.89807 0.15413 0.0
H927 H 0.02763 0.8665 0.12808 0.0
H928 H 0.00439 0.78065 0.19746 0.0
H929 H 0.95723 0.80215 0.21466 0.0
H930 H 0.98884 0.88499 0.20056 0.0
C931 C 0.08847 0.83779 0.14905 0.0
C932 C 0.10213 0.81165 0.1391 0.0
C933 C 0.09018 0.7865 0.14875 0.0
C934 C 0.06402 0.78744 0.16664 0.0
C935 C 0.05058 0.8137 0.1751 0.0
C936 C 0.06275 0.83841 0.16702 0.0
C937 C 0.04354 0.86388 0.17676 0.0
C938 C 0.05634 0.8828 0.20301 0.0
C939 C 0.03665 0.88043 0.14701 0.0
C940 C 0.01806 0.84969 0.19038 0.0
C941 C 0.02247 0.82078 0.18962 0.0
C942 C 0.00095 0.80329 0.19877 0.0
C943 C 0.97425 0.81569 0.20856 0.0
C944 C 0.96932 0.84526 0.20887 0.0
C945 C 0.99181 0.86232 0.20032 0.0
H946 H 0.66998 0.56866 0.57034 0.0
H947 H 0.7562 0.59074 0.54818 0.0
H948 H 0.77275 0.54242 0.56007 0.0
H949 H 0.68419 0.5217 0.63552 0.0
H950 H 0.65746 0.4983 0.62308 0.0
H951 H 0.6536 0.53535 0.61682 0.0
H952 H 0.64803 0.52371 0.55539 0.0
H953 H 0.65209 0.48674 0.56136 0.0
H954 H 0.67511 0.50248 0.53199 0.0
H955 H 0.7786 0.4892 0.56981 0.0
H956 H 0.77289 0.43796 0.57579 0.0
H957 H 0.68257 0.45315 0.59002 0.0
C958 C 0.69244 0.56357 0.56835 0.0
C959 C 0.71182 0.58335 0.55814 0.0
C960 C 0.741 0.57587 0.55608 0.0
C961 C 0.75054 0.5485 0.56277 0.0
C962 C 0.73059 0.5292 0.57185 0.0
C963 C 0.70215 0.53668 0.57488 0.0
C964 C 0.6845 0.51213 0.58282 0.0
C965 C 0.66904 0.51718 0.61657 0.0
C966 C 0.66373 0.50591 0.55631 0.0
C967 C 0.70726 0.48922 0.58277 0.0
C968 C 0.73383 0.49928 0.57693 0.0
C969 C 0.75789 0.48125 0.57467 0.0
C970 C 0.75452 0.45228 0.57807 0.0
C971 C 0.7273 0.44183 0.58305 0.0
C972 C 0.7036 0.46066 0.58596 0.0
H973 H 0.87925 0.1758 0.09422 0.0
H974 H 0.87489 0.26039 0.06089 0.0
H975 H 0.91124 0.27426 0.0989 0.0
H976 H 0.89222 0.19562 0.18033 0.0
H977 H 0.91551 0.16511 0.18275 0.0
H978 H 0.8866 0.16366 0.15646 0.0
H979 H 0.92156 0.14783 0.10766 0.0
H980 H 0.95056 0.14955 0.13359 0.0
H981 H 0.95074 0.16938 0.09769 0.0
H982 H 0.95311 0.27629 0.13559 0.0
H983 H 0.99426 0.26689 0.16816 0.0
H984 H 0.96886 0.1812 0.17765 0.0
C985 C 0.88548 0.19745 0.09541 0.0
C986 C 0.87438 0.21705 0.07468 0.0
C987 C 0.88302 0.24514 0.07685 0.0
C988 C 0.90368 0.25313 0.09828 0.0
C989 C 0.91494 0.23287 0.11765 0.0
C990 C 0.90571 0.2057 0.11668 0.0
C991 C 0.92213 0.18718 0.13804 0.0
C992 C 0.90297 0.17732 0.16606 0.0
C993 C 0.93713 0.16203 0.11804 0.0
C994 C 0.94291 0.20777 0.15033 0.0
C995 C 0.93841 0.23411 0.13869 0.0
C996 C 0.95644 0.25586 0.14526 0.0
C997 C 0.97973 0.25036 0.16384 0.0
C998 C 0.98486 0.22327 0.17534 0.0
C999 C 0.96574 0.20205 0.16896 0.0
H1000 H 0.23125 0.80573 0.18303 0.0
H1001 H 0.20606 0.72652 0.13851 0.0
H1002 H 0.22005 0.7022 0.18666 0.0
H1003 H 0.2918 0.77823 0.22065 0.0
H1004 H 0.28605 0.8011 0.25699 0.0
H1005 H 0.27423 0.81231 0.21893 0.0
H1006 H 0.22354 0.82099 0.24505 0.0
H1007 H 0.2352 0.80984 0.28321 0.0
H1008 H 0.20647 0.79286 0.26468 0.0
H1009 H 0.23762 0.68639 0.23884 0.0
H1010 H 0.25637 0.68009 0.29241 0.0
H1011 H 0.26824 0.76998 0.30417 0.0
C1012 C 0.22879 0.78324 0.18331 0.0
C1013 C 0.21771 0.76798 0.1569 0.0
C1014 C 0.21452 0.73864 0.15842 0.0
C1015 C 0.22243 0.72464 0.18564 0.0
C1016 C 0.23329 0.74031 0.2112 0.0
C1017 C 0.23636 0.76897 0.21037 0.0
C1018 C 0.24818 0.78093 0.2413 0.0
C1019 C 0.27676 0.7939 0.23402 0.0
C1020 C 0.22708 0.80242 0.25964 0.0
C1021 C 0.25149 0.75444 0.25955 0.0
C1022 C 0.24282 0.73127 0.24171 0.0
C1023 C 0.24422 0.7044 0.2532 0.0
C1024 C 0.25472 0.70111 0.28381 0.0
C1025 C 0.26351 0.72458 0.30278 0.0
C1026 C 0.26186 0.75158 0.29029 0.0
H1027 H 0.71359 0.70817 0.64409 0.0
H1028 H 0.77689 0.6881 0.56513 0.0
H1029 H 0.81425 0.70011 0.60203 0.0
H1030 H 0.74469 0.76741 0.6768 0.0
H1031 H 0.73517 0.76109 0.71859 0.0
H1032 H 0.71389 0.74809 0.68688 0.0
H1033 H 0.72007 0.69755 0.70634 0.0
H1034 H 0.74147 0.71041 0.73815 0.0
H1035 H 0.75502 0.68233 0.70961 0.0
H1036 H 0.84429 0.71829 0.64644 0.0
H1037 H 0.86411 0.74273 0.69388 0.0
H1038 H 0.78101 0.74963 0.74358 0.0
C1039 C 0.73531 0.70597 0.63455 0.0
C1040 C 0.74229 0.69725 0.60168 0.0
C1041 C 0.77101 0.69476 0.59023 0.0
C1042 C 0.79239 0.7014 0.61104 0.0
C1043 C 0.78471 0.71023 0.64324 0.0
C1044 C 0.75684 0.71244 0.65493 0.0
C1045 C 0.75392 0.72411 0.68986 0.0
C1046 C 0.73586 0.75182 0.6932 0.0
C1047 C 0.74191 0.70229 0.71231 0.0
C1048 C 0.78443 0.72904 0.69573 0.0
C1049 C 0.80196 0.72054 0.66876 0.0
C1050 C 0.83083 0.72464 0.66787 0.0
C1051 C 0.84193 0.73839 0.69497 0.0
C1052 C 0.82409 0.74806 0.72237 0.0
C1053 C 0.79514 0.74257 0.72292 0.0
H1054 H 0.77353 0.27627 0.0712 0.0
H1055 H 0.71773 0.22489 0.01613 0.0
H1056 H 0.67799 0.25874 0.03209 0.0
H1057 H 0.7238 0.29284 0.13818 0.0
H1058 H 0.73481 0.32823 0.14604 0.0
H1059 H 0.75956 0.30157 0.12763 0.0
H1060 H 0.76965 0.33282 0.07928 0.0
H1061 H 0.74474 0.35951 0.09749 0.0
H1062 H 0.74085 0.34526 0.05665 0.0
H1063 H 0.6443 0.29693 0.05461 0.0
H1064 H 0.61717 0.33502 0.08689 0.0
H1065 H 0.69358 0.36019 0.13117 0.0
C1066 C 0.75295 0.27248 0.06236 0.0
C1067 C 0.74847 0.2482 0.04245 0.0
C1068 C 0.72134 0.24343 0.03156 0.0
C1069 C 0.69876 0.26259 0.04027 0.0
C1070 C 0.70364 0.28627 0.06016 0.0
C1071 C 0.72992 0.29118 0.07144 0.0
C1072 C 0.7287 0.31708 0.09474 0.0
C1073 C 0.73721 0.30946 0.12866 0.0
C1074 C 0.74708 0.34003 0.08122 0.0
C1075 C 0.69762 0.32563 0.09502 0.0
C1076 C 0.68373 0.30782 0.07443 0.0
C1077 C 0.65488 0.311 0.07092 0.0
C1078 C 0.63962 0.3326 0.08954 0.0
C1079 C 0.65312 0.35051 0.11183 0.0
C1080 C 0.68264 0.34717 0.11407 0.0
H1081 H 0.28025 0.28607 0.64141 0.0
H1082 H 0.32319 0.22356 0.573 0.0
H1083 H 0.31233 0.18651 0.6106 0.0
H1084 H 0.30141 0.25503 0.7155 0.0
H1085 H 0.26789 0.26364 0.73715 0.0
H1086 H 0.28062 0.28556 0.7058 0.0
H1087 H 0.23465 0.27894 0.67606 0.0
H1088 H 0.22181 0.25698 0.70723 0.0
H1089 H 0.22409 0.24387 0.66526 0.0
H1090 H 0.29533 0.15609 0.65439 0.0
H1091 H 0.27204 0.13401 0.70082 0.0
H1092 H 0.23981 0.2162 0.74057 0.0
C1093 C 0.28763 0.26464 0.63446 0.0
C1094 C 0.3026 0.25771 0.60427 0.0
C1095 C 0.31162 0.22935 0.59596 0.0
C1096 C 0.30566 0.20818 0.6172 0.0
C1097 C 0.29063 0.2157 0.6466 0.0
C1098 C 0.28169 0.24321 0.65524 0.0
C1099 C 0.26476 0.24546 0.6876 0.0
C1100 C 0.27956 0.26349 0.71301 0.0
C1101 C 0.23454 0.25699 0.68379 0.0
C1102 C 0.26524 0.21483 0.69555 0.0
C1103 C 0.28053 0.19807 0.67174 0.0
C1104 C 0.2835 0.169 0.67334 0.0
C1105 C 0.27032 0.15668 0.69988 0.0
C1106 C 0.25424 0.1734 0.72437 0.0
C1107 C 0.25187 0.20288 0.72215 0.0
H1108 H 0.73315 0.7543 0.50835 0.0
H1109 H 0.6631 0.72567 0.45478 0.0
H1110 H 0.67192 0.76159 0.41468 0.0
H1111 H 0.72667 0.83022 0.49126 0.0
H1112 H 0.76433 0.83298 0.48645 0.0
H1113 H 0.74952 0.80854 0.51378 0.0
H1114 H 0.77998 0.76773 0.48349 0.0
H1115 H 0.79486 0.79199 0.45618 0.0
H1116 H 0.77785 0.76148 0.4402 0.0
H1117 H 0.69075 0.79769 0.37835 0.0
H1118 H 0.72092 0.82772 0.3454 0.0
H1119 H 0.78043 0.83078 0.42102 0.0
C1120 C 0.7193 0.75626 0.48861 0.0
C1121 C 0.69717 0.73789 0.48466 0.0
C1122 C 0.67993 0.74003 0.45812 0.0
C1123 C 0.6847 0.76039 0.43545 0.0
C1124 C 0.70698 0.77811 0.43965 0.0
C1125 C 0.72416 0.77609 0.46543 0.0
C1126 C 0.74873 0.79513 0.46219 0.0
C1127 C 0.74721 0.81808 0.49008 0.0
C1128 C 0.77701 0.77806 0.46039 0.0
C1129 C 0.7432 0.80751 0.43009 0.0
C1130 C 0.71863 0.798 0.41789 0.0
C1131 C 0.70985 0.80554 0.38781 0.0
C1132 C 0.72702 0.82266 0.36934 0.0
C1133 C 0.75285 0.83154 0.38082 0.0
C1134 C 0.76068 0.82433 0.41184 0.0
H1135 H 0.81401 0.22316 0.89554 0.0
H1136 H 0.73142 0.20352 0.93665 0.0
H1137 H 0.7104 0.21555 0.88612 0.0
H1138 H 0.79079 0.28233 0.85233 0.0
H1139 H 0.81477 0.27438 0.81726 0.0
H1140 H 0.82403 0.26377 0.85659 0.0
H1141 H 0.83156 0.21212 0.83346 0.0
H1142 H 0.82235 0.22257 0.79403 0.0
H1143 H 0.8035 0.19536 0.81331 0.0
H1144 H 0.69756 0.23106 0.83311 0.0
H1145 H 0.69349 0.24845 0.77876 0.0
H1146 H 0.78421 0.25663 0.7693 0.0
C1147 C 0.79153 0.22138 0.89386 0.0
C1148 C 0.77441 0.21241 0.92019 0.0
C1149 C 0.74506 0.21027 0.91693 0.0
C1150 C 0.73284 0.21707 0.88829 0.0
C1151 C 0.75019 0.22587 0.86294 0.0
C1152 C 0.77888 0.22797 0.86521 0.0
C1153 C 0.79246 0.2381 0.83402 0.0
C1154 C 0.80633 0.26632 0.84045 0.0
C1155 C 0.81373 0.2157 0.81774 0.0
C1156 C 0.76679 0.2416 0.81418 0.0
C1157 C 0.74273 0.23436 0.83149 0.0
C1158 C 0.71627 0.23642 0.81904 0.0
C1159 C 0.71426 0.2461 0.78793 0.0
C1160 C 0.73858 0.25341 0.76929 0.0
C1161 C 0.76522 0.25116 0.78279 0.0
H1162 H 0.28467 0.27823 0.44633 0.0
H1163 H 0.22443 0.31259 0.52296 0.0
H1164 H 0.18539 0.30119 0.48806 0.0
H1165 H 0.24625 0.30124 0.37764 0.0
H1166 H 0.25633 0.26951 0.35308 0.0
H1167 H 0.27933 0.28279 0.38302 0.0
H1168 H 0.27946 0.23481 0.40968 0.0
H1169 H 0.25661 0.22138 0.37982 0.0
H1170 H 0.24642 0.22048 0.4225 0.0
H1171 H 0.15278 0.28285 0.44551 0.0
H1172 H 0.13008 0.25709 0.40075 0.0
H1173 H 0.21231 0.23535 0.35314 0.0
C1174 C 0.26331 0.28368 0.45579 0.0
C1175 C 0.25764 0.29629 0.48743 0.0
C1176 C 0.22932 0.30289 0.49879 0.0
C1177 C 0.20701 0.29663 0.47909 0.0
C1178 C 0.21341 0.28394 0.44808 0.0
C1179 C 0.24093 0.27758 0.43657 0.0
C1180 C 0.24238 0.26239 0.40331 0.0
C1181 C 0.25693 0.28005 0.37776 0.0
C1182 C 0.25707 0.23303 0.40389 0.0
C1183 C 0.21134 0.26045 0.39818 0.0
C1184 C 0.19486 0.27334 0.42395 0.0
C1185 C 0.1655 0.27296 0.42507 0.0
C1186 C 0.15278 0.25843 0.39955 0.0
C1187 C 0.16951 0.24427 0.37367 0.0
C1188 C 0.19905 0.24596 0.37273 0.0
H1189 H 0.27567 0.75875 0.03922 0.0
H1190 H 0.20017 0.75542 0.98509 0.0
H1191 H 0.22589 0.72519 0.94195 0.0
H1192 H 0.32671 0.75786 0.96777 0.0
H1193 H 0.35211 0.73548 0.98589 0.0
H1194 H 0.32876 0.75934 0.01133 0.0
H1195 H 0.31158 0.71769 0.04379 0.0
H1196 H 0.33481 0.69375 0.01848 0.0
H1197 H 0.29765 0.68776 0.0224 0.0
H1198 H 0.25771 0.69271 0.90703 0.0
H1199 H 0.29439 0.65881 0.88212 0.0
H1200 H 0.34992 0.6822 0.95796 0.0
C1201 C 0.26476 0.75204 0.01799 0.0
C1202 C 0.23592 0.75943 0.01551 0.0
C1203 C 0.22221 0.74989 0.98762 0.0
C1204 C 0.23667 0.73285 0.96286 0.0
C1205 C 0.26487 0.72551 0.96626 0.0
C1206 C 0.27888 0.73475 0.99302 0.0
C1207 C 0.30874 0.72206 0.99145 0.0
C1208 C 0.33036 0.74506 0.98896 0.0
C1209 C 0.31346 0.70426 0.02077 0.0
C1210 C 0.30899 0.70379 0.96006 0.0
C1211 C 0.2835 0.7064 0.94585 0.0
C1212 C 0.27788 0.69065 0.91769 0.0
C1213 C 0.29874 0.67138 0.90383 0.0
C1214 C 0.32487 0.66798 0.91816 0.0
C1215 C 0.33024 0.68473 0.94633 0.0
loop_
_geom_bond_atom_site_label_1
_geom_bond_atom_site_label_2
_geom_bond_distance
_geom_bond_site_symmetry_2
_ccdc_geom_bond_type
Fe0 O2 1.918 . S
Fe0 O5 1.997 . S
Fe0 O6 2.002 . S
Fe0 O11 1.976 . S
Fe0 O14 1.996 . S
Fe1 O2 1.918 . S
Fe1 O9 1.997 . S
Fe1 O12 1.996 . S
Fe1 O16 1.976 . S
Fe1 O19 2.002 . S
O2 Fe0 1.918 . S
O2 Fe1 1.918 . S
O2 Fe3 1.918 . S
Fe3 O2 1.918 . S
Fe3 O4 2.002 . S
Fe3 O13 1.976 . S
Fe3 O17 1.996 . S
Fe3 O20 1.997 . S
O4 Fe3 2.002 . S
O4 C21 1.295 . S
O5 Fe0 1.997 . S
O5 C21 1.235 . S
O6 Fe0 2.002 . S
O6 C7 1.295 . S
C7 O6 1.295 . S
C7 O9 1.235 . S
C8 O13 1.287 . S
C8 O14 1.255 . S
O9 Fe1 1.997 . S
O9 C7 1.235 . S
C10 O16 1.287 . S
C10 O17 1.255 . S
O11 Fe0 1.976 . S
O11 C18 1.287 . S
O12 Fe1 1.996 . S
O12 C18 1.255 . S
O13 Fe3 1.976 . S
O13 C8 1.287 . S
O14 Fe0 1.996 . S
O14 C8 1.255 . S
C15 O19 1.295 . S
C15 O20 1.235 . S
O16 Fe1 1.976 . S
O16 C10 1.287 . S
O17 Fe3 1.996 . S
O17 C10 1.255 . S
C18 O11 1.287 . S
C18 O12 1.255 . S
O19 Fe1 2.002 . S
O19 C15 1.295 . S
O20 Fe3 1.997 . S
O20 C15 1.235 . S
C21 O4 1.295 . S
C21 O5 1.235 . S
Fe22 O24 1.918 . S
Fe22 O27 1.997 . S
Fe22 O28 2.002 . S
Fe22 O33 1.976 . S
Fe22 O36 1.996 . S
Fe23 O24 1.918 . S
Fe23 O31 1.997 . S
Fe23 O34 1.996 . S
Fe23 O38 1.976 . S
Fe23 O41 2.002 . S
O24 Fe22 1.918 . S
O24 Fe23 1.918 . S
O24 Fe25 1.918 . S
Fe25 O24 1.918 . S
Fe25 O26 2.002 . S
Fe25 O35 1.976 . S
Fe25 O39 1.996 . S
Fe25 O42 1.997 . S
O26 Fe25 2.002 . S
O26 C43 1.295 . S
O27 Fe22 1.997 . S
O27 C43 1.235 . S
O28 Fe22 2.002 . S
O28 C29 1.295 . S
C29 O28 1.295 . S
C29 O31 1.235 . S
C30 O35 1.287 . S
C30 O36 1.255 . S
O31 Fe23 1.997 . S
O31 C29 1.235 . S
C32 O38 1.287 . S
C32 O39 1.255 . S
O33 Fe22 1.976 . S
O33 C40 1.287 . S
O34 Fe23 1.996 . S
O34 C40 1.255 . S
O35 Fe25 1.976 . S
O35 C30 1.287 . S
O36 Fe22 1.996 . S
O36 C30 1.255 . S
C37 O41 1.295 . S
C37 O42 1.235 . S
O38 Fe23 1.976 . S
O38 C32 1.287 . S
O39 Fe25 1.996 . S
O39 C32 1.255 . S
C40 O33 1.287 . S
C40 O34 1.255 . S
O41 Fe23 2.002 . S
O41 C37 1.295 . S
O42 Fe25 1.997 . S
O42 C37 1.235 . S
C43 O26 1.295 . S
C43 O27 1.235 . S
Fe44 O46 1.919 1_556 S
Fe44 O49 1.993 . S
Fe44 O50 2.000 . S
Fe44 O55 1.979 1_556 S
Fe44 O58 1.997 1_556 S
Fe45 O46 1.918 . S
Fe45 O53 1.997 1_554 S
Fe45 O56 1.996 . S
Fe45 O60 1.976 . S
Fe45 O63 2.002 1_554 S
O46 Fe44 1.919 1_554 S
O46 Fe45 1.918 . S
O46 Fe47 1.918 . S
Fe47 O46 1.918 . S
Fe47 O48 2.002 1_554 S
Fe47 O57 1.976 . S
Fe47 O61 1.996 . S
Fe47 O64 1.996 1_554 S
O48 Fe47 2.002 1_556 S
O48 C65 1.295 . S
O49 Fe44 1.993 . S
O49 C65 1.235 . S
O50 Fe44 2.000 . S
O50 C51 1.295 . S
C51 O50 1.295 . S
C51 O53 1.235 . S
C52 O57 1.287 . S
C52 O58 1.255 . S
O53 Fe45 1.997 1_556 S
O53 C51 1.235 . S
C54 O60 1.287 . S
C54 O61 1.255 . S
O55 Fe44 1.979 1_554 S
O55 C62 1.287 . S
O56 Fe45 1.996 . S
O56 C62 1.255 . S
O57 Fe47 1.976 . S
O57 C52 1.287 . S
O58 Fe44 1.997 1_554 S
O58 C52 1.255 . S
C59 O63 1.295 . S
C59 O64 1.235 . S
O60 Fe45 1.976 . S
O60 C54 1.287 . S
O61 Fe47 1.996 . S
O61 C54 1.255 . S
C62 O55 1.287 . S
C62 O56 1.255 . S
O63 Fe45 2.002 1_556 S
O63 C59 1.295 . S
O64 Fe47 1.996 1_556 S
O64 C59 1.235 . S
C65 O48 1.295 . S
C65 O49 1.235 . S
Fe66 O68 1.918 . S
Fe66 O71 1.997 . S
Fe66 O72 2.002 . S
Fe66 O77 1.976 . S
Fe66 O80 1.996 . S
Fe67 O68 1.918 . S
Fe67 O75 1.997 . S
Fe67 O78 1.996 . S
Fe67 O82 1.976 . S
Fe67 O85 2.002 . S
O68 Fe66 1.918 . S
O68 Fe67 1.918 . S
O68 Fe69 1.918 . S
Fe69 O68 1.918 . S
Fe69 O70 2.002 . S
Fe69 O79 1.976 . S
Fe69 O83 1.996 . S
Fe69 O86 1.997 . S
O70 Fe69 2.002 . S
O70 C87 1.295 . S
O71 Fe66 1.997 . S
O71 C87 1.235 . S
O72 Fe66 2.002 . S
O72 C73 1.295 . S
C73 O72 1.295 . S
C73 O75 1.235 . S
C74 O79 1.287 . S
C74 O80 1.255 . S
O75 Fe67 1.997 . S
O75 C73 1.235 . S
C76 O82 1.287 . S
C76 O83 1.255 . S
O77 Fe66 1.976 . S
O77 C84 1.287 . S
O78 Fe67 1.996 . S
O78 C84 1.255 . S
O79 Fe69 1.976 . S
O79 C74 1.287 . S
O80 Fe66 1.996 . S
O80 C74 1.255 . S
C81 O85 1.295 . S
C81 O86 1.235 . S
O82 Fe67 1.976 . S
O82 C76 1.287 . S
O83 Fe69 1.996 . S
O83 C76 1.255 . S
C84 O77 1.287 . S
C84 O78 1.255 . S
O85 Fe67 2.002 . S
O85 C81 1.295 . S
O86 Fe69 1.997 . S
O86 C81 1.235 . S
C87 O70 1.295 . S
C87 O71 1.235 . S
C88 C89 1.391 . S
C88 C92 1.391 . S
C88 H130 0.948 . S
C89 C88 1.391 . S
C89 C90 1.391 . S
C90 C89 1.391 . S
C90 H146 0.947 . S
C90 C147 1.392 . S
C91 C92 1.391 . S
C91 C95 1.397 . S
C91 C147 1.419 . S
C92 C88 1.391 . S
C92 C91 1.391 . S
C92 C93 1.399 . S
C93 C92 1.399 . S
C93 C96 1.396 . S
C93 C105 1.453 . S
C93 C106 1.684 . S
H94 C118 0.948 . S
C95 C91 1.397 . S
C95 C96 1.394 . S
C95 C114 1.723 . S
C96 C93 1.396 . S
C96 C95 1.394 . S
C96 C126 1.723 . S
H97 C120 0.947 . S
H98 C121 0.948 . S
H99 C127 0.982 . S
H100 C128 0.979 . S
H101 C128 0.980 . S
H102 C128 0.983 . S
H103 C127 0.979 . S
H104 C127 0.977 . S
C105 C93 1.453 . S
C105 H134 0.982 . S
C105 H135 0.979 . S
C105 H136 0.977 . S
C106 C93 1.684 . S
C106 H131 0.979 . S
C106 H132 0.980 . S
C106 H133 0.983 . S
C107 C108 1.391 . S
C107 C112 1.391 . S
C107 H137 0.948 . S
C108 C107 1.391 . S
C108 C109 1.391 . S
C109 C108 1.391 . S
C109 C110 1.392 . S
C109 H138 0.947 . S
C110 C109 1.392 . S
C110 C111 1.419 . S
C110 H139 0.948 . S
C111 C110 1.419 . S
C111 C112 1.391 . S
C111 C115 1.397 . S
C112 C107 1.391 . S
C112 C111 1.391 . S
C112 C113 1.399 . S
C113 C112 1.399 . S
C113 C114 1.396 . S
C113 C116 1.453 . S
C113 C117 1.684 . S
C114 C95 1.723 . S
C114 C113 1.396 . S
C114 C115 1.394 . S
C115 C111 1.397 . S
C115 C114 1.394 . S
C115 C125 1.723 . S
C116 C113 1.453 . S
C116 H140 0.982 . S
C116 H141 0.979 . S
C116 H142 0.977 . S
C117 C113 1.684 . S
C117 H143 0.979 . S
C117 H144 0.980 . S
C117 H145 0.983 . S
C118 H94 0.948 . S
C118 C119 1.391 . S
C118 C123 1.391 . S
C119 C118 1.391 . S
C119 C120 1.391 . S
C120 H97 0.947 . S
C120 C119 1.391 . S
C120 C121 1.392 . S
C121 H98 0.948 . S
C121 C120 1.392 . S
C121 C122 1.419 . S
C122 C121 1.419 . S
C122 C123 1.391 . S
C122 C126 1.397 . S
C123 C118 1.391 . S
C123 C122 1.391 . S
C123 C124 1.399 . S
C124 C123 1.399 . S
C124 C125 1.396 . S
C124 C127 1.453 . S
C124 C128 1.684 . S
C125 C115 1.723 . S
C125 C124 1.396 . S
C125 C126 1.394 . S
C126 C96 1.723 . S
C126 C122 1.397 . S
C126 C125 1.394 . S
C127 H99 0.982 . S
C127 H103 0.979 . S
C127 H104 0.977 . S
C127 C124 1.453 . S
C128 H100 0.979 . S
C128 H101 0.980 . S
C128 H102 0.983 . S
C128 C124 1.684 . S
H129 C147 0.948 . S
H130 C88 0.948 . S
H131 C106 0.979 . S
H132 C106 0.980 . S
H133 C106 0.983 . S
H134 C105 0.982 . S
H135 C105 0.979 . S
H136 C105 0.977 . S
H137 C107 0.948 . S
H138 C109 0.947 . S
H139 C110 0.948 . S
H140 C116 0.982 . S
H141 C116 0.979 . S
H142 C116 0.977 . S
H143 C117 0.979 . S
H144 C117 0.980 . S
H145 C117 0.983 . S
H146 C90 0.947 . S
C147 C90 1.392 . S
C147 C91 1.419 . S
C147 H129 0.948 . S
C148 C149 1.391 . S
C148 C152 1.391 . S
C148 H190 0.948 . S
C149 C148 1.391 . S
C149 C150 1.391 . S
C150 C149 1.391 . S
C150 H206 0.947 . S
C150 C207 1.392 . S
C151 C152 1.391 . S
C151 C155 1.397 . S
C151 C207 1.419 . S
C152 C148 1.391 . S
C152 C151 1.391 . S
C152 C153 1.399 . S
C153 C152 1.399 . S
C153 C156 1.396 . S
C153 C165 1.453 . S
C153 C166 1.684 . S
H154 C178 0.948 . S
C155 C151 1.397 . S
C155 C156 1.394 . S
C155 C174 1.723 . S
C156 C153 1.396 . S
C156 C155 1.394 . S
C156 C186 1.723 . S
H157 C180 0.947 . S
H158 C181 0.948 . S
H159 C187 0.982 . S
H160 C188 0.979 . S
H161 C188 0.980 . S
H162 C188 0.983 . S
H163 C187 0.979 . S
H164 C187 0.977 . S
C165 C153 1.453 . S
C165 H194 0.982 . S
C165 H195 0.979 . S
C165 H196 0.977 . S
C166 C153 1.684 . S
C166 H191 0.979 . S
C166 H192 0.980 . S
C166 H193 0.983 . S
C167 C168 1.391 . S
C167 C172 1.391 . S
C167 H197 0.948 . S
C168 C167 1.391 . S
C168 C169 1.391 . S
C169 C168 1.391 . S
C169 C170 1.392 . S
C169 H198 0.947 . S
C170 C169 1.392 . S
C170 C171 1.419 . S
C170 H199 0.948 . S
C171 C170 1.419 . S
C171 C172 1.391 . S
C171 C175 1.397 . S
C172 C167 1.391 . S
C172 C171 1.391 . S
C172 C173 1.399 . S
C173 C172 1.399 . S
C173 C174 1.396 . S
C173 C176 1.453 . S
C173 C177 1.684 . S
C174 C155 1.723 . S
C174 C173 1.396 . S
C174 C175 1.394 . S
C175 C171 1.397 . S
C175 C174 1.394 . S
C175 C185 1.723 . S
C176 C173 1.453 . S
C176 H200 0.982 . S
C176 H201 0.979 . S
C176 H202 0.977 . S
C177 C173 1.684 . S
C177 H203 0.979 . S
C177 H204 0.980 . S
C177 H205 0.983 . S
C178 H154 0.948 . S
C178 C179 1.391 . S
C178 C183 1.391 . S
C179 C178 1.391 . S
C179 C180 1.391 . S
C180 H157 0.947 . S
C180 C179 1.391 . S
C180 C181 1.392 . S
C181 H158 0.948 . S
C181 C180 1.392 . S
C181 C182 1.419 . S
C182 C181 1.419 . S
C182 C183 1.391 . S
C182 C186 1.397 . S
C183 C178 1.391 . S
C183 C182 1.391 . S
C183 C184 1.399 . S
C184 C183 1.399 . S
C184 C185 1.396 . S
C184 C187 1.453 . S
C184 C188 1.684 . S
C185 C175 1.723 . S
C185 C184 1.396 . S
C185 C186 1.394 . S
C186 C156 1.723 . S
C186 C182 1.397 . S
C186 C185 1.394 . S
C187 H159 0.982 . S
C187 H163 0.979 . S
C187 H164 0.977 . S
C187 C184 1.453 . S
C188 H160 0.979 . S
C188 H161 0.980 . S
C188 H162 0.983 . S
C188 C184 1.684 . S
H189 C207 0.948 . S
H190 C148 0.948 . S
H191 C166 0.979 . S
H192 C166 0.980 . S
H193 C166 0.983 . S
H194 C165 0.982 . S
H195 C165 0.979 . S
H196 C165 0.977 . S
H197 C167 0.948 . S
H198 C169 0.947 . S
H199 C170 0.948 . S
H200 C176 0.982 . S
H201 C176 0.979 . S
H202 C176 0.977 . S
H203 C177 0.979 . S
H204 C177 0.980 . S
H205 C177 0.983 . S
H206 C150 0.947 . S
C207 C150 1.392 . S
C207 C151 1.419 . S
C207 H189 0.948 . S
C208 C209 1.391 . S
C208 C212 1.391 . S
C208 H250 0.948 . S
C209 C208 1.391 . S
C209 C210 1.391 . S
C210 C209 1.391 . S
C210 H266 0.947 . S
C210 C267 1.392 . S
C211 C212 1.391 . S
C211 C215 1.397 . S
C211 C267 1.419 . S
C212 C208 1.391 . S
C212 C211 1.391 . S
C212 C213 1.399 . S
C213 C212 1.399 . S
C213 C216 1.396 . S
C213 C225 1.453 . S
C213 C226 1.684 . S
H214 C238 0.948 . S
C215 C211 1.397 . S
C215 C216 1.394 . S
C215 C234 1.723 . S
C216 C213 1.396 . S
C216 C215 1.394 . S
C216 C246 1.723 . S
H217 C240 0.947 . S
H218 C241 0.948 . S
H219 C247 0.982 . S
H220 C248 0.979 . S
H221 C248 0.980 . S
H222 C248 0.983 . S
H223 C247 0.979 . S
H224 C247 0.977 . S
C225 C213 1.453 . S
C225 H254 0.982 . S
C225 H255 0.979 . S
C225 H256 0.977 . S
C226 C213 1.684 . S
C226 H251 0.979 . S
C226 H252 0.980 . S
C226 H253 0.983 . S
C227 C228 1.391 . S
C227 C232 1.391 . S
C227 H257 0.948 . S
C228 C227 1.391 . S
C228 C229 1.391 . S
C229 C228 1.391 . S
C229 C230 1.392 . S
C229 H258 0.947 . S
C230 C229 1.392 . S
C230 C231 1.419 . S
C230 H259 0.948 . S
C231 C230 1.419 . S
C231 C232 1.391 . S
C231 C235 1.397 . S
C232 C227 1.391 . S
C232 C231 1.391 . S
C232 C233 1.399 . S
C233 C232 1.399 . S
C233 C234 1.396 . S
C233 C236 1.453 . S
C233 C237 1.684 . S
C234 C215 1.723 . S
C234 C233 1.396 . S
C234 C235 1.394 . S
C235 C231 1.397 . S
C235 C234 1.394 . S
C235 C245 1.723 . S
C236 C233 1.453 . S
C236 H260 0.982 . S
C236 H261 0.979 . S
C236 H262 0.977 . S
C237 C233 1.684 . S
C237 H263 0.979 . S
C237 H264 0.980 . S
C237 H265 0.983 . S
C238 H214 0.948 . S
C238 C239 1.391 . S
C238 C243 1.391 . S
C239 C238 1.391 . S
C239 C240 1.391 . S
C240 H217 0.947 . S
C240 C239 1.391 . S
C240 C241 1.392 . S
C241 H218 0.948 . S
C241 C240 1.392 . S
C241 C242 1.419 . S
C242 C241 1.419 . S
C242 C243 1.391 . S
C242 C246 1.397 . S
C243 C238 1.391 . S
C243 C242 1.391 . S
C243 C244 1.399 . S
C244 C243 1.399 . S
C244 C245 1.396 . S
C244 C247 1.453 . S
C244 C248 1.684 . S
C245 C235 1.723 . S
C245 C244 1.396 . S
C245 C246 1.394 . S
C246 C216 1.723 . S
C246 C242 1.397 . S
C246 C245 1.394 . S
C247 H219 0.982 . S
C247 H223 0.979 . S
C247 H224 0.977 . S
C247 C244 1.453 . S
C248 H220 0.979 . S
C248 H221 0.980 . S
C248 H222 0.983 . S
C248 C244 1.684 . S
H249 C267 0.948 . S
H250 C208 0.948 . S
H251 C226 0.979 . S
H252 C226 0.980 . S
H253 C226 0.983 . S
H254 C225 0.982 . S
H255 C225 0.979 . S
H256 C225 0.977 . S
H257 C227 0.948 . S
H258 C229 0.947 . S
H259 C230 0.948 . S
H260 C236 0.982 . S
H261 C236 0.979 . S
H262 C236 0.977 . S
H263 C237 0.979 . S
H264 C237 0.980 . S
H265 C237 0.983 . S
H266 C210 0.947 . S
C267 C210 1.392 . S
C267 C211 1.419 . S
C267 H249 0.948 . S
C268 C269 1.391 . S
C268 C272 1.391 . S
C268 H310 0.948 . S
C269 C268 1.391 . S
C269 C270 1.391 . S
C270 C269 1.391 . S
C270 H326 0.947 . S
C270 C327 1.392 . S
C271 C272 1.391 . S
C271 C275 1.397 . S
C271 C327 1.419 . S
C272 C268 1.391 . S
C272 C271 1.391 . S
C272 C273 1.399 . S
C273 C272 1.399 . S
C273 C276 1.396 . S
C273 C285 1.453 . S
C273 C286 1.684 . S
H274 C298 0.948 . S
C275 C271 1.397 . S
C275 C276 1.394 . S
C275 C294 1.723 . S
C276 C273 1.396 . S
C276 C275 1.394 . S
C276 C306 1.723 . S
H277 C300 0.947 . S
H278 C301 0.948 . S
H279 C307 0.982 . S
H280 C308 0.979 . S
H281 C308 0.980 . S
H282 C308 0.983 . S
H283 C307 0.979 . S
H284 C307 0.977 . S
C285 C273 1.453 . S
C285 H314 0.982 . S
C285 H315 0.979 . S
C285 H316 0.977 . S
C286 C273 1.684 . S
C286 H311 0.979 . S
C286 H312 0.980 . S
C286 H313 0.983 . S
C287 C288 1.391 . S
C287 C292 1.391 . S
C287 H317 0.948 . S
C288 C287 1.391 . S
C288 C289 1.391 . S
C289 C288 1.391 . S
C289 C290 1.392 . S
C289 H318 0.947 . S
C290 C289 1.392 . S
C290 C291 1.419 . S
C290 H319 0.948 . S
C291 C290 1.419 . S
C291 C292 1.391 . S
C291 C295 1.397 . S
C292 C287 1.391 . S
C292 C291 1.391 . S
C292 C293 1.399 . S
C293 C292 1.399 . S
C293 C294 1.396 . S
C293 C296 1.453 . S
C293 C297 1.684 . S
C294 C275 1.723 . S
C294 C293 1.396 . S
C294 C295 1.394 . S
C295 C291 1.397 . S
C295 C294 1.394 . S
C295 C305 1.723 . S
C296 C293 1.453 . S
C296 H320 0.982 . S
C296 H321 0.979 . S
C296 H322 0.977 . S
C297 C293 1.684 . S
C297 H323 0.979 . S
C297 H324 0.980 . S
C297 H325 0.983 . S
C298 H274 0.948 . S
C298 C299 1.391 . S
C298 C303 1.391 . S
C299 C298 1.391 . S
C299 C300 1.391 . S
C300 H277 0.947 . S
C300 C299 1.391 . S
C300 C301 1.392 . S
C301 H278 0.948 . S
C301 C300 1.392 . S
C301 C302 1.419 . S
C302 C301 1.419 . S
C302 C303 1.391 . S
C302 C306 1.397 . S
C303 C298 1.391 . S
C303 C302 1.391 . S
C303 C304 1.399 . S
C304 C303 1.399 . S
C304 C305 1.396 . S
C304 C307 1.453 . S
C304 C308 1.684 . S
C305 C295 1.723 . S
C305 C304 1.396 . S
C305 C306 1.394 . S
C306 C276 1.723 . S
C306 C302 1.397 . S
C306 C305 1.394 . S
C307 H279 0.982 . S
C307 H283 0.979 . S
C307 H284 0.977 . S
C307 C304 1.453 . S
C308 H280 0.979 . S
C308 H281 0.980 . S
C308 H282 0.983 . S
C308 C304 1.684 . S
H309 C327 0.948 . S
H310 C268 0.948 . S
H311 C286 0.979 . S
H312 C286 0.980 . S
H313 C286 0.983 . S
H314 C285 0.982 . S
H315 C285 0.979 . S
H316 C285 0.977 . S
H317 C287 0.948 . S
H318 C289 0.947 . S
H319 C290 0.948 . S
H320 C296 0.982 . S
H321 C296 0.979 . S
H322 C296 0.977 . S
H323 C297 0.979 . S
H324 C297 0.980 . S
H325 C297 0.983 . S
H326 C270 0.947 . S
C327 C270 1.392 . S
C327 C271 1.419 . S
C327 H309 0.948 . S
C328 C329 1.391 . S
C328 C332 1.391 . S
C328 H370 0.948 . S
C329 C328 1.391 . S
C329 C330 1.391 . S
C330 C329 1.391 . S
C330 H386 0.947 . S
C330 C387 1.392 . S
C331 C332 1.391 . S
C331 C335 1.397 . S
C331 C387 1.419 . S
C332 C328 1.391 . S
C332 C331 1.391 . S
C332 C333 1.399 . S
C333 C332 1.399 . S
C333 C336 1.396 . S
C333 C345 1.453 . S
C333 C346 1.684 . S
H334 C358 0.948 . S
C335 C331 1.397 . S
C335 C336 1.394 . S
C335 C354 1.723 . S
C336 C333 1.396 . S
C336 C335 1.394 . S
C336 C366 1.723 . S
H337 C360 0.947 . S
H338 C361 0.948 . S
H339 C367 0.982 . S
H340 C368 0.979 . S
H341 C368 0.980 . S
H342 C368 0.983 . S
H343 C367 0.979 . S
H344 C367 0.977 . S
C345 C333 1.453 . S
C345 H374 0.982 . S
C345 H375 0.979 . S
C345 H376 0.977 . S
C346 C333 1.684 . S
C346 H371 0.979 . S
C346 H372 0.980 . S
C346 H373 0.983 . S
C347 C348 1.391 . S
C347 C352 1.391 . S
C347 H377 0.948 . S
C348 C347 1.391 . S
C348 C349 1.391 . S
C349 C348 1.391 . S
C349 C350 1.392 . S
C349 H378 0.947 . S
C350 C349 1.392 . S
C350 C351 1.419 . S
C350 H379 0.948 . S
C351 C350 1.419 . S
C351 C352 1.391 . S
C351 C355 1.397 . S
C352 C347 1.391 . S
C352 C351 1.391 . S
C352 C353 1.399 . S
C353 C352 1.399 . S
C353 C354 1.396 . S
C353 C356 1.453 . S
C353 C357 1.684 . S
C354 C335 1.723 . S
C354 C353 1.396 . S
C354 C355 1.394 . S
C355 C351 1.397 . S
C355 C354 1.394 . S
C355 C365 1.723 . S
C356 C353 1.453 . S
C356 H380 0.982 . S
C356 H381 0.979 . S
C356 H382 0.977 . S
C357 C353 1.684 . S
C357 H383 0.979 . S
C357 H384 0.980 . S
C357 H385 0.983 . S
C358 H334 0.948 . S
C358 C359 1.391 . S
C358 C363 1.391 . S
C359 C358 1.391 . S
C359 C360 1.391 . S
C360 H337 0.947 . S
C360 C359 1.391 . S
C360 C361 1.392 . S
C361 H338 0.948 . S
C361 C360 1.392 . S
C361 C362 1.419 . S
C362 C361 1.419 . S
C362 C363 1.391 . S
C362 C366 1.397 . S
C363 C358 1.391 . S
C363 C362 1.391 . S
C363 C364 1.399 . S
C364 C363 1.399 . S
C364 C365 1.396 . S
C364 C367 1.453 . S
C364 C368 1.684 . S
C365 C355 1.723 . S
C365 C364 1.396 . S
C365 C366 1.394 . S
C366 C336 1.723 . S
C366 C362 1.397 . S
C366 C365 1.394 . S
C367 H339 0.982 . S
C367 H343 0.979 . S
C367 H344 0.977 . S
C367 C364 1.453 . S
C368 H340 0.979 . S
C368 H341 0.980 . S
C368 H342 0.983 . S
C368 C364 1.684 . S
H369 C387 0.948 . S
H370 C328 0.948 . S
H371 C346 0.979 . S
H372 C346 0.980 . S
H373 C346 0.983 . S
H374 C345 0.982 . S
H375 C345 0.979 . S
H376 C345 0.977 . S
H377 C347 0.948 . S
H378 C349 0.947 . S
H379 C350 0.948 . S
H380 C356 0.982 . S
H381 C356 0.979 . S
H382 C356 0.977 . S
H383 C357 0.979 . S
H384 C357 0.980 . S
H385 C357 0.983 . S
H386 C330 0.947 . S
C387 C330 1.392 . S
C387 C331 1.419 . S
C387 H369 0.948 . S
C388 C389 1.391 . S
C388 C392 1.391 . S
C388 H430 0.948 . S
C389 C388 1.391 . S
C389 C390 1.391 . S
C390 C389 1.391 . S
C390 H446 0.947 . S
C390 C447 1.392 . S
C391 C392 1.391 . S
C391 C395 1.397 . S
C391 C447 1.419 . S
C392 C388 1.391 . S
C392 C391 1.391 . S
C392 C393 1.399 . S
C393 C392 1.399 . S
C393 C396 1.396 . S
C393 C405 1.453 . S
C393 C406 1.684 . S
H394 C418 0.948 . S
C395 C391 1.397 . S
C395 C396 1.394 . S
C395 C414 1.723 . S
C396 C393 1.396 . S
C396 C395 1.394 . S
C396 C426 1.723 . S
H397 C420 0.947 . S
H398 C421 0.948 . S
H399 C427 0.982 . S
H400 C428 0.979 . S
H401 C428 0.980 . S
H402 C428 0.983 . S
H403 C427 0.979 . S
H404 C427 0.977 . S
C405 C393 1.453 . S
C405 H434 0.982 . S
C405 H435 0.979 . S
C405 H436 0.977 . S
C406 C393 1.684 . S
C406 H431 0.979 . S
C406 H432 0.980 . S
C406 H433 0.983 . S
C407 C408 1.391 . S
C407 C412 1.391 . S
C407 H437 0.948 . S
C408 C407 1.391 . S
C408 C409 1.391 . S
C409 C408 1.391 . S
C409 C410 1.392 . S
C409 H438 0.947 . S
C410 C409 1.392 . S
C410 C411 1.419 . S
C410 H439 0.948 . S
C411 C410 1.419 . S
C411 C412 1.391 . S
C411 C415 1.397 . S
C412 C407 1.391 . S
C412 C411 1.391 . S
C412 C413 1.399 . S
C413 C412 1.399 . S
C413 C414 1.396 . S
C413 C416 1.453 . S
C413 C417 1.684 . S
C414 C395 1.723 . S
C414 C413 1.396 . S
C414 C415 1.394 . S
C415 C411 1.397 . S
C415 C414 1.394 . S
C415 C425 1.723 . S
C416 C413 1.453 . S
C416 H440 0.982 . S
C416 H441 0.979 . S
C416 H442 0.977 . S
C417 C413 1.684 . S
C417 H443 0.979 . S
C417 H444 0.980 . S
C417 H445 0.983 . S
C418 H394 0.948 . S
C418 C419 1.391 . S
C418 C423 1.391 . S
C419 C418 1.391 . S
C419 C420 1.391 . S
C420 H397 0.947 . S
C420 C419 1.391 . S
C420 C421 1.392 . S
C421 H398 0.948 . S
C421 C420 1.392 . S
C421 C422 1.419 . S
C422 C421 1.419 . S
C422 C423 1.391 . S
C422 C426 1.397 . S
C423 C418 1.391 . S
C423 C422 1.391 . S
C423 C424 1.399 . S
C424 C423 1.399 . S
C424 C425 1.396 . S
C424 C427 1.453 . S
C424 C428 1.684 . S
C425 C415 1.723 . S
C425 C424 1.396 . S
C425 C426 1.394 . S
C426 C396 1.723 . S
C426 C422 1.397 . S
C426 C425 1.394 . S
C427 H399 0.982 . S
C427 H403 0.979 . S
C427 H404 0.977 . S
C427 C424 1.453 . S
C428 H400 0.979 . S
C428 H401 0.980 . S
C428 H402 0.983 . S
C428 C424 1.684 . S
H429 C447 0.948 . S
H430 C388 0.948 . S
H431 C406 0.979 . S
H432 C406 0.980 . S
H433 C406 0.983 . S
H434 C405 0.982 . S
H435 C405 0.979 . S
H436 C405 0.977 . S
H437 C407 0.948 . S
H438 C409 0.947 . S
H439 C410 0.948 . S
H440 C416 0.982 . S
H441 C416 0.979 . S
H442 C416 0.977 . S
H443 C417 0.979 . S
H444 C417 0.980 . S
H445 C417 0.983 . S
H446 C390 0.947 . S
C447 C390 1.392 . S
C447 C391 1.419 . S
C447 H429 0.948 . S
C448 C449 1.391 . S
C448 C452 1.391 . S
C448 H490 0.948 . S
C449 C448 1.391 . S
C449 C450 1.391 . S
C450 C449 1.391 . S
C450 H506 0.947 . S
C450 C507 1.392 . S
C451 C452 1.391 . S
C451 C455 1.397 . S
C451 C507 1.419 . S
C452 C448 1.391 . S
C452 C451 1.391 . S
C452 C453 1.399 . S
C453 C452 1.399 . S
C453 C456 1.396 . S
C453 C465 1.453 . S
C453 C466 1.684 . S
H454 C478 0.948 . S
C455 C451 1.397 . S
C455 C456 1.394 . S
C455 C474 1.723 . S
C456 C453 1.396 . S
C456 C455 1.394 . S
C456 C486 1.723 . S
H457 C480 0.947 . S
H458 C481 0.948 . S
H459 C487 0.982 . S
H460 C488 0.979 . S
H461 C488 0.980 . S
H462 C488 0.983 . S
H463 C487 0.979 . S
H464 C487 0.977 . S
C465 C453 1.453 . S
C465 H494 0.982 . S
C465 H495 0.979 . S
C465 H496 0.977 . S
C466 C453 1.684 . S
C466 H491 0.979 . S
C466 H492 0.980 . S
C466 H493 0.983 . S
C467 C468 1.391 . S
C467 C472 1.391 . S
C467 H497 0.948 . S
C468 C467 1.391 . S
C468 C469 1.391 . S
C469 C468 1.391 . S
C469 C470 1.392 . S
C469 H498 0.947 . S
C470 C469 1.392 . S
C470 C471 1.419 . S
C470 H499 0.948 . S
C471 C470 1.419 . S
C471 C472 1.391 . S
C471 C475 1.397 . S
C472 C467 1.391 . S
C472 C471 1.391 . S
C472 C473 1.399 . S
C473 C472 1.399 . S
C473 C474 1.396 . S
C473 C476 1.453 . S
C473 C477 1.684 . S
C474 C455 1.723 . S
C474 C473 1.396 . S
C474 C475 1.394 . S
C475 C471 1.397 . S
C475 C474 1.394 . S
C475 C485 1.723 . S
C476 C473 1.453 . S
C476 H500 0.982 . S
C476 H501 0.979 . S
C476 H502 0.977 . S
C477 C473 1.684 . S
C477 H503 0.979 . S
C477 H504 0.980 . S
C477 H505 0.983 . S
C478 H454 0.948 . S
C478 C479 1.391 . S
C478 C483 1.391 . S
C479 C478 1.391 . S
C479 C480 1.391 . S
C480 H457 0.947 . S
C480 C479 1.391 . S
C480 C481 1.392 . S
C481 H458 0.948 . S
C481 C480 1.392 . S
C481 C482 1.419 . S
C482 C481 1.419 . S
C482 C483 1.391 . S
C482 C486 1.397 . S
C483 C478 1.391 . S
C483 C482 1.391 . S
C483 C484 1.399 . S
C484 C483 1.399 . S
C484 C485 1.396 . S
C484 C487 1.453 . S
C484 C488 1.684 . S
C485 C475 1.723 . S
C485 C484 1.396 . S
C485 C486 1.394 . S
C486 C456 1.723 . S
C486 C482 1.397 . S
C486 C485 1.394 . S
C487 H459 0.982 . S
C487 H463 0.979 . S
C487 H464 0.977 . S
C487 C484 1.453 . S
C488 H460 0.979 . S
C488 H461 0.980 . S
C488 H462 0.983 . S
C488 C484 1.684 . S
H489 C507 0.948 . S
H490 C448 0.948 . S
H491 C466 0.979 . S
H492 C466 0.980 . S
H493 C466 0.983 . S
H494 C465 0.982 . S
H495 C465 0.979 . S
H496 C465 0.977 . S
H497 C467 0.948 . S
H498 C469 0.947 . S
H499 C470 0.948 . S
H500 C476 0.982 . S
H501 C476 0.979 . S
H502 C476 0.977 . S
H503 C477 0.979 . S
H504 C477 0.980 . S
H505 C477 0.983 . S
H506 C450 0.947 . S
C507 C450 1.392 . S
C507 C451 1.419 . S
C507 H489 0.948 . S
C508 C509 1.391 . S
C508 C512 1.391 . S
C508 H550 0.948 . S
C509 C508 1.391 . S
C509 C510 1.391 . S
C510 C509 1.391 . S
C510 H566 0.947 . S
C510 C567 1.392 . S
C511 C512 1.391 . S
C511 C515 1.397 . S
C511 C567 1.419 . S
C512 C508 1.391 . S
C512 C511 1.391 . S
C512 C513 1.399 . S
C513 C512 1.399 . S
C513 C516 1.396 . S
C513 C525 1.453 . S
C513 C526 1.684 . S
H514 C538 0.948 . S
C515 C511 1.397 . S
C515 C516 1.394 . S
C515 C534 1.723 . S
C516 C513 1.396 . S
C516 C515 1.394 . S
C516 C546 1.723 . S
H517 C540 0.947 . S
H518 C541 0.948 . S
H519 C547 0.982 . S
H520 C548 0.979 . S
H521 C548 0.980 . S
H522 C548 0.983 . S
H523 C547 0.979 . S
H524 C547 0.977 . S
C525 C513 1.453 . S
C525 H554 0.982 . S
C525 H555 0.979 . S
C525 H556 0.977 . S
C526 C513 1.684 . S
C526 H551 0.979 . S
C526 H552 0.980 . S
C526 H553 0.983 . S
C527 C528 1.391 . S
C527 C532 1.391 . S
C527 H557 0.948 . S
C528 C527 1.391 . S
C528 C529 1.391 . S
C529 C528 1.391 . S
C529 C530 1.392 . S
C529 H558 0.947 . S
C530 C529 1.392 . S
C530 C531 1.419 . S
C530 H559 0.948 . S
C531 C530 1.419 . S
C531 C532 1.391 . S
C531 C535 1.397 . S
C532 C527 1.391 . S
C532 C531 1.391 . S
C532 C533 1.399 . S
C533 C532 1.399 . S
C533 C534 1.396 . S
C533 C536 1.453 . S
C533 C537 1.684 . S
C534 C515 1.723 . S
C534 C533 1.396 . S
C534 C535 1.394 . S
C535 C531 1.397 . S
C535 C534 1.394 . S
C535 C545 1.723 . S
C536 C533 1.453 . S
C536 H560 0.982 . S
C536 H561 0.979 . S
C536 H562 0.977 . S
C537 C533 1.684 . S
C537 H563 0.979 . S
C537 H564 0.980 . S
C537 H565 0.983 . S
C538 H514 0.948 . S
C538 C539 1.391 . S
C538 C543 1.391 . S
C539 C538 1.391 . S
C539 C540 1.391 . S
C540 H517 0.947 . S
C540 C539 1.391 . S
C540 C541 1.392 . S
C541 H518 0.948 . S
C541 C540 1.392 . S
C541 C542 1.419 . S
C542 C541 1.419 . S
C542 C543 1.391 . S
C542 C546 1.397 . S
C543 C538 1.391 . S
C543 C542 1.391 . S
C543 C544 1.399 . S
C544 C543 1.399 . S
C544 C545 1.396 . S
C544 C547 1.453 . S
C544 C548 1.684 . S
C545 C535 1.723 . S
C545 C544 1.396 . S
C545 C546 1.394 . S
C546 C516 1.723 . S
C546 C542 1.397 . S
C546 C545 1.394 . S
C547 H519 0.982 . S
C547 H523 0.979 . S
C547 H524 0.977 . S
C547 C544 1.453 . S
C548 H520 0.979 . S
C548 H521 0.980 . S
C548 H522 0.983 . S
C548 C544 1.684 . S
H549 C567 0.948 . S
H550 C508 0.948 . S
H551 C526 0.979 . S
H552 C526 0.980 . S
H553 C526 0.983 . S
H554 C525 0.982 . S
H555 C525 0.979 . S
H556 C525 0.977 . S
H557 C527 0.948 . S
H558 C529 0.947 . S
H559 C530 0.948 . S
H560 C536 0.982 . S
H561 C536 0.979 . S
H562 C536 0.977 . S
H563 C537 0.979 . S
H564 C537 0.980 . S
H565 C537 0.983 . S
H566 C510 0.947 . S
C567 C510 1.392 . S
C567 C511 1.419 . S
C567 H549 0.948 . S
H568 C580 0.930 . S
H569 C582 0.930 . S
H570 C583 0.930 . S
H571 C587 0.972 . S
H572 C587 0.959 . S
H573 C587 0.961 1_565 S
H574 C588 0.960 . S
H575 C588 0.961 . S
H576 C588 0.959 . S
H577 C591 0.929 1_565 S
H578 C592 0.931 . S
H579 C594 0.930 . S
C580 H568 0.930 . S
C580 C581 1.399 . S
C580 C585 1.399 . S
C581 C580 1.399 . S
C581 C582 1.376 . S
C582 H569 0.930 . S
C582 C581 1.376 . S
C582 C583 1.388 . S
C583 H570 0.930 . S
C583 C582 1.388 . S
C583 C584 1.390 . S
C584 C583 1.390 . S
C584 C585 1.394 . S
C584 C590 1.465 . S
C585 C580 1.399 . S
C585 C584 1.394 . S
C585 C586 1.516 1_565 S
C586 C585 1.516 1_545 S
C586 C587 1.502 . S
C586 C588 1.561 . S
C586 C589 1.526 . S
C587 H571 0.972 . S
C587 H572 0.959 . S
C587 H573 0.961 1_545 S
C587 C586 1.502 . S
C588 H574 0.960 . S
C588 H575 0.961 . S
C588 H576 0.959 . S
C588 C586 1.561 . S
C589 C586 1.526 . S
C589 C590 1.396 1_545 S
C589 C594 1.390 . S
C590 C584 1.465 . S
C590 C589 1.396 1_565 S
C590 C591 1.399 1_565 S
C591 H577 0.929 1_545 S
C591 C590 1.399 1_545 S
C591 C592 1.385 . S
C592 H578 0.931 . S
C592 C591 1.385 . S
C592 C593 1.389 . S
C593 C592 1.389 . S
C593 C594 1.387 . S
C594 H579 0.930 . S
C594 C589 1.390 . S
C594 C593 1.387 . S
H595 C607 0.930 . S
H596 C609 0.930 . S
H597 C610 0.930 . S
H598 C614 0.959 . S
H599 C614 0.959 . S
H600 C614 0.961 . S
H601 C615 0.960 . S
H602 C615 0.961 . S
H603 C615 0.959 . S
H604 C618 0.929 . S
H605 C619 0.931 . S
H606 C621 0.930 . S
C607 H595 0.930 . S
C607 C608 1.399 . S
C607 C612 1.399 . S
C608 C607 1.399 . S
C608 C609 1.376 . S
C609 H596 0.930 . S
C609 C608 1.376 . S
C609 C610 1.388 . S
C610 H597 0.930 . S
C610 C609 1.388 . S
C610 C611 1.390 . S
C611 C610 1.390 . S
C611 C612 1.394 . S
C611 C617 1.465 . S
C612 C607 1.399 . S
C612 C611 1.394 . S
C612 C613 1.516 . S
C613 C612 1.516 . S
C613 C614 1.502 . S
C613 C615 1.561 . S
C613 C616 1.526 . S
C614 H598 0.959 . S
C614 H599 0.959 . S
C614 H600 0.961 . S
C614 C613 1.502 . S
C615 H601 0.960 . S
C615 H602 0.961 . S
C615 H603 0.959 . S
C615 C613 1.561 . S
C616 C613 1.526 . S
C616 C617 1.396 . S
C616 C621 1.390 . S
C617 C611 1.465 . S
C617 C616 1.396 . S
C617 C618 1.399 . S
C618 H604 0.929 . S
C618 C617 1.399 . S
C618 C619 1.385 . S
C619 H605 0.931 . S
C619 C618 1.385 . S
C619 C620 1.389 . S
C620 C619 1.389 . S
C620 C621 1.387 . S
C621 H606 0.930 . S
C621 C616 1.390 . S
C621 C620 1.387 . S
H622 C634 0.930 . S
H623 C636 0.930 . S
H624 C637 0.930 . S
H625 C641 0.959 . S
H626 C641 0.959 . S
H627 C641 0.961 . S
H628 C642 0.960 . S
H629 C642 0.961 1_565 S
H630 C642 0.959 . S
H631 C645 0.929 . S
H632 C646 0.931 . S
H633 C648 0.930 1_565 S
C634 H622 0.930 . S
C634 C635 1.399 . S
C634 C639 1.399 . S
C635 C634 1.399 . S
C635 C636 1.376 . S
C636 H623 0.930 . S
C636 C635 1.376 . S
C636 C637 1.388 . S
C637 H624 0.930 . S
C637 C636 1.388 . S
C637 C638 1.390 . S
C638 C637 1.390 . S
C638 C639 1.394 . S
C638 C644 1.465 . S
C639 C634 1.399 . S
C639 C638 1.394 . S
C639 C640 1.516 . S
C640 C639 1.516 . S
C640 C641 1.502 . S
C640 C642 1.561 . S
C640 C643 1.526 . S
C641 H625 0.959 . S
C641 H626 0.959 . S
C641 H627 0.961 . S
C641 C640 1.502 . S
C642 H628 0.960 . S
C642 H629 0.961 1_545 S
C642 H630 0.959 . S
C642 C640 1.561 . S
C643 C640 1.526 . S
C643 C644 1.396 . S
C643 C648 1.390 . S
C644 C638 1.465 . S
C644 C643 1.396 . S
C644 C645 1.399 . S
C645 H631 0.929 . S
C645 C644 1.399 . S
C645 C646 1.385 . S
C646 H632 0.931 . S
C646 C645 1.385 . S
C646 C647 1.389 . S
C647 C646 1.389 . S
C647 C648 1.387 . S
C648 H633 0.930 1_545 S
C648 C643 1.390 . S
C648 C647 1.387 . S
H649 C661 0.930 . S
H650 C663 0.930 . S
H651 C664 0.930 . S
H652 C668 0.959 . S
H653 C668 0.959 . S
H654 C668 0.961 . S
H655 C669 0.960 . S
H656 C669 0.961 . S
H657 C669 0.959 . S
H658 C672 0.929 . S
H659 C673 0.931 . S
H660 C675 0.930 . S
C661 H649 0.930 . S
C661 C662 1.399 . S
C661 C666 1.399 . S
C662 C661 1.399 . S
C662 C663 1.376 . S
C663 H650 0.930 . S
C663 C662 1.376 . S
C663 C664 1.388 . S
C664 H651 0.930 . S
C664 C663 1.388 . S
C664 C665 1.390 . S
C665 C664 1.390 . S
C665 C666 1.394 . S
C665 C671 1.465 . S
C666 C661 1.399 . S
C666 C665 1.394 . S
C666 C667 1.516 . S
C667 C666 1.516 . S
C667 C668 1.502 . S
C667 C669 1.561 . S
C667 C670 1.526 . S
C668 H652 0.959 . S
C668 H653 0.959 . S
C668 H654 0.961 . S
C668 C667 1.502 . S
C669 H655 0.960 . S
C669 H656 0.961 . S
C669 H657 0.959 . S
C669 C667 1.561 . S
C670 C667 1.526 . S
C670 C671 1.396 . S
C670 C675 1.390 . S
C671 C665 1.465 . S
C671 C670 1.396 . S
C671 C672 1.399 . S
C672 H658 0.929 . S
C672 C671 1.399 . S
C672 C673 1.385 . S
C673 H659 0.931 . S
C673 C672 1.385 . S
C673 C674 1.389 . S
C674 C673 1.389 . S
C674 C675 1.387 . S
C675 H660 0.930 . S
C675 C670 1.390 . S
C675 C674 1.387 . S
H676 C688 0.930 . S
H677 C690 0.930 . S
H678 C691 0.930 . S
H679 C695 0.959 . S
H680 C695 0.959 . S
H681 C695 0.961 . S
H682 C696 0.960 . S
H683 C696 0.961 . S
H684 C696 0.959 . S
H685 C699 0.929 . S
H686 C700 0.931 . S
H687 C702 0.930 . S
C688 H676 0.930 . S
C688 C689 1.399 . S
C688 C693 1.399 . S
C689 C688 1.399 . S
C689 C690 1.376 . S
C690 H677 0.930 . S
C690 C689 1.376 . S
C690 C691 1.388 . S
C691 H678 0.930 . S
C691 C690 1.388 . S
C691 C692 1.390 . S
C692 C691 1.390 . S
C692 C693 1.394 . S
C692 C698 1.465 . S
C693 C688 1.399 . S
C693 C692 1.394 . S
C693 C694 1.516 . S
C694 C693 1.516 . S
C694 C695 1.502 . S
C694 C696 1.561 . S
C694 C697 1.526 . S
C695 H679 0.959 . S
C695 H680 0.959 . S
C695 H681 0.961 . S
C695 C694 1.502 . S
C696 H682 0.960 . S
C696 H683 0.961 . S
C696 H684 0.959 . S
C696 C694 1.561 . S
C697 C694 1.526 . S
C697 C698 1.396 . S
C697 C702 1.390 . S
C698 C692 1.465 . S
C698 C697 1.396 . S
C698 C699 1.399 . S
C699 H685 0.929 . S
C699 C698 1.399 . S
C699 C700 1.385 . S
C700 H686 0.931 . S
C700 C699 1.385 . S
C700 C701 1.389 . S
C701 C700 1.389 . S
C701 C702 1.387 . S
C702 H687 0.930 . S
C702 C697 1.390 . S
C702 C701 1.387 . S
H703 C715 0.930 . S
H704 C717 0.930 . S
H705 C718 0.930 . S
H706 C722 0.959 . S
H707 C722 0.959 . S
H708 C722 0.961 . S
H709 C723 0.960 . S
H710 C723 0.961 1_455 S
H711 C723 0.959 1_455 S
H712 C726 0.929 . S
H713 C727 0.931 . S
H714 C729 0.930 . S
C715 H703 0.930 . S
C715 C716 1.399 . S
C715 C720 1.399 . S
C716 C715 1.399 . S
C716 C717 1.376 . S
C717 H704 0.930 . S
C717 C716 1.376 . S
C717 C718 1.388 . S
C718 H705 0.930 . S
C718 C717 1.388 . S
C718 C719 1.390 . S
C719 C718 1.390 . S
C719 C720 1.394 . S
C719 C725 1.465 1_655 S
C720 C715 1.399 . S
C720 C719 1.394 . S
C720 C721 1.516 . S
C721 C720 1.516 . S
C721 C722 1.502 . S
C721 C723 1.561 . S
C721 C724 1.526 1_655 S
C722 H706 0.959 . S
C722 H707 0.959 . S
C722 H708 0.961 . S
C722 C721 1.502 . S
C723 H709 0.960 . S
C723 H710 0.961 1_655 S
C723 H711 0.959 1_655 S
C723 C721 1.561 . S
C724 C721 1.526 1_455 S
C724 C725 1.396 . S
C724 C729 1.390 . S
C725 C719 1.465 1_455 S
C725 C724 1.396 . S
C725 C726 1.399 . S
C726 H712 0.929 . S
C726 C725 1.399 . S
C726 C727 1.385 . S
C727 H713 0.931 . S
C727 C726 1.385 . S
C727 C728 1.389 . S
C728 C727 1.389 . S
C728 C729 1.387 . S
C729 H714 0.930 . S
C729 C724 1.390 . S
C729 C728 1.387 . S
H730 C742 0.930 . S
H731 C744 0.930 . S
H732 C745 0.930 . S
H733 C749 0.959 . S
H734 C749 0.959 . S
H735 C749 0.961 . S
H736 C750 0.960 . S
H737 C750 0.961 . S
H738 C750 0.959 . S
H739 C753 0.929 . S
H740 C754 0.931 . S
H741 C756 0.930 . S
C742 H730 0.930 . S
C742 C743 1.399 . S
C742 C747 1.399 . S
C743 C742 1.399 . S
C743 C744 1.376 . S
C744 H731 0.930 . S
C744 C743 1.376 . S
C744 C745 1.388 . S
C745 H732 0.930 . S
C745 C744 1.388 . S
C745 C746 1.390 . S
C746 C745 1.390 . S
C746 C747 1.394 . S
C746 C752 1.465 . S
C747 C742 1.399 . S
C747 C746 1.394 . S
C747 C748 1.516 . S
C748 C747 1.516 . S
C748 C749 1.502 . S
C748 C750 1.561 . S
C748 C751 1.526 . S
C749 H733 0.959 . S
C749 H734 0.959 . S
C749 H735 0.961 . S
C749 C748 1.502 . S
C750 H736 0.960 . S
C750 H737 0.961 . S
C750 H738 0.959 . S
C750 C748 1.561 . S
C751 C748 1.526 . S
C751 C752 1.396 . S
C751 C756 1.390 . S
C752 C746 1.465 . S
C752 C751 1.396 . S
C752 C753 1.399 . S
C753 H739 0.929 . S
C753 C752 1.399 . S
C753 C754 1.385 . S
C754 H740 0.931 . S
C754 C753 1.385 . S
C754 C755 1.389 . S
C755 C754 1.389 . S
C755 C756 1.387 . S
C756 H741 0.930 . S
C756 C751 1.390 . S
C756 C755 1.387 . S
H757 C769 0.930 . S
H758 C771 0.930 . S
H759 C772 0.930 . S
H760 C776 0.959 . S
H761 C776 0.959 . S
H762 C776 0.961 . S
H763 C777 0.960 1_554 S
H764 C777 0.961 . S
H765 C777 0.959 . S
H766 C780 0.929 . S
H767 C781 0.931 . S
H768 C783 0.930 . S
C769 H757 0.930 . S
C769 C770 1.399 . S
C769 C774 1.399 1_554 S
C770 C769 1.399 . S
C770 C771 1.376 1_554 S
C771 H758 0.930 . S
C771 C770 1.376 1_556 S
C771 C772 1.388 . S
C772 H759 0.930 . S
C772 C771 1.388 . S
C772 C773 1.390 . S
C773 C772 1.390 . S
C773 C774 1.394 . S
C773 C779 1.465 . S
C774 C769 1.399 1_556 S
C774 C773 1.394 . S
C774 C775 1.516 . S
C775 C774 1.516 . S
C775 C776 1.502 . S
C775 C777 1.561 . S
C775 C778 1.526 . S
C776 H760 0.959 . S
C776 H761 0.959 . S
C776 H762 0.961 . S
C776 C775 1.502 . S
C777 H763 0.960 1_556 S
C777 H764 0.961 . S
C777 H765 0.959 . S
C777 C775 1.561 . S
C778 C775 1.526 . S
C778 C779 1.396 . S
C778 C783 1.390 . S
C779 C773 1.465 . S
C779 C778 1.396 . S
C779 C780 1.399 . S
C780 H766 0.929 . S
C780 C779 1.399 . S
C780 C781 1.385 . S
C781 H767 0.931 . S
C781 C780 1.385 . S
C781 C782 1.389 . S
C782 C781 1.389 . S
C782 C783 1.387 . S
C783 H768 0.930 . S
C783 C778 1.390 . S
C783 C782 1.387 . S
H784 C796 0.930 . S
H785 C798 0.930 . S
H786 C799 0.930 . S
H787 C803 0.959 . S
H788 C803 0.959 . S
H789 C803 0.961 . S
H790 C804 0.971 . S
H791 C804 0.942 1_565 S
H792 C804 0.966 . S
H793 C807 0.929 1_545 S
H794 C808 0.931 . S
H795 C810 0.930 . S
C796 H784 0.930 . S
C796 C797 1.399 . S
C796 C801 1.399 . S
C797 C796 1.399 . S
C797 C798 1.376 . S
C798 H785 0.930 . S
C798 C797 1.376 . S
C798 C799 1.388 . S
C799 H786 0.930 . S
C799 C798 1.388 . S
C799 C800 1.390 . S
C800 C799 1.390 . S
C800 C801 1.394 . S
C800 C806 1.465 . S
C801 C796 1.399 . S
C801 C800 1.394 . S
C801 C802 1.479 1_545 S
C802 C801 1.479 1_565 S
C802 C803 1.521 . S
C802 C804 1.562 1_565 S
C802 C805 1.543 . S
C803 H787 0.959 . S
C803 H788 0.959 . S
C803 H789 0.961 . S
C803 C802 1.521 . S
C804 H790 0.971 . S
C804 H791 0.942 1_545 S
C804 H792 0.966 . S
C804 C802 1.562 1_545 S
C805 C802 1.543 . S
C805 C806 1.396 1_565 S
C805 C810 1.390 . S
C806 C800 1.465 . S
C806 C805 1.396 1_545 S
C806 C807 1.399 1_545 S
C807 H793 0.929 1_565 S
C807 C806 1.399 1_565 S
C807 C808 1.385 . S
C808 H794 0.931 . S
C808 C807 1.385 . S
C808 C809 1.389 . S
C809 C808 1.389 . S
C809 C810 1.387 . S
C810 H795 0.930 . S
C810 C805 1.390 . S
C810 C809 1.387 . S
H811 C823 0.930 . S
H812 C825 0.930 . S
H813 C826 0.930 . S
H814 C830 0.959 . S
H815 C830 0.959 . S
H816 C830 0.961 . S
H817 C831 0.960 . S
H818 C831 0.961 . S
H819 C831 0.959 . S
H820 C834 0.929 . S
H821 C835 0.931 . S
H822 C837 0.930 . S
C823 H811 0.930 . S
C823 C824 1.399 . S
C823 C828 1.399 . S
C824 C823 1.399 . S
C824 C825 1.376 . S
C825 H812 0.930 . S
C825 C824 1.376 . S
C825 C826 1.388 . S
C826 H813 0.930 . S
C826 C825 1.388 . S
C826 C827 1.390 . S
C827 C826 1.390 . S
C827 C828 1.394 . S
C827 C833 1.465 . S
C828 C823 1.399 . S
C828 C827 1.394 . S
C828 C829 1.516 . S
C829 C828 1.516 . S
C829 C830 1.502 . S
C829 C831 1.561 . S
C829 C832 1.526 . S
C830 H814 0.959 . S
C830 H815 0.959 . S
C830 H816 0.961 . S
C830 C829 1.502 . S
C831 H817 0.960 . S
C831 H818 0.961 . S
C831 H819 0.959 . S
C831 C829 1.561 . S
C832 C829 1.526 . S
C832 C833 1.396 . S
C832 C837 1.390 . S
C833 C827 1.465 . S
C833 C832 1.396 . S
C833 C834 1.399 . S
C834 H820 0.929 . S
C834 C833 1.399 . S
C834 C835 1.385 . S
C835 H821 0.931 . S
C835 C834 1.385 . S
C835 C836 1.389 . S
C836 C835 1.389 . S
C836 C837 1.387 . S
C837 H822 0.930 . S
C837 C832 1.390 . S
C837 C836 1.387 . S
H838 C850 0.930 . S
H839 C852 0.930 . S
H840 C853 0.930 . S
H841 C857 0.959 . S
H842 C857 0.959 1_545 S
H843 C857 0.961 1_554 S
H844 C858 0.941 1_554 S
H845 C858 0.964 1_545 S
H846 C858 0.962 . S
H847 C861 0.929 . S
H848 C862 0.931 . S
H849 C864 0.930 1_545 S
C850 H838 0.930 . S
C850 C851 1.399 . S
C850 C855 1.399 1_554 S
C851 C850 1.399 . S
C851 C852 1.376 1_554 S
C852 H839 0.930 . S
C852 C851 1.376 1_556 S
C852 C853 1.388 . S
C853 H840 0.930 . S
C853 C852 1.388 . S
C853 C854 1.390 . S
C854 C853 1.390 . S
C854 C855 1.394 . S
C854 C860 1.465 . S
C855 C850 1.399 1_556 S
C855 C854 1.394 . S
C855 C856 1.516 . S
C856 C855 1.516 . S
C856 C857 1.502 . S
C856 C858 1.575 . S
C856 C859 1.526 . S
C857 H841 0.959 . S
C857 H842 0.959 1_565 S
C857 H843 0.961 1_556 S
C857 C856 1.502 . S
C858 H844 0.941 1_556 S
C858 H845 0.964 1_565 S
C858 H846 0.962 . S
C858 C856 1.575 . S
C859 C856 1.526 . S
C859 C860 1.396 . S
C859 C864 1.390 . S
C860 C854 1.465 . S
C860 C859 1.396 . S
C860 C861 1.399 . S
C861 H847 0.929 . S
C861 C860 1.399 . S
C861 C862 1.385 . S
C862 H848 0.931 . S
C862 C861 1.385 . S
C862 C863 1.389 . S
C863 C862 1.389 . S
C863 C864 1.387 . S
C864 H849 0.930 1_565 S
C864 C859 1.390 . S
C864 C863 1.387 . S
H865 C877 0.930 . S
H866 C879 0.930 . S
H867 C880 0.930 . S
H868 C884 0.959 . S
H869 C884 0.959 . S
H870 C884 0.961 . S
H871 C885 0.960 . S
H872 C885 0.961 . S
H873 C885 0.959 . S
H874 C888 0.929 . S
H875 C889 0.931 . S
H876 C891 0.930 . S
C877 H865 0.930 . S
C877 C878 1.399 . S
C877 C882 1.399 . S
C878 C877 1.399 . S
C878 C879 1.376 . S
C879 H866 0.930 . S
C879 C878 1.376 . S
C879 C880 1.388 . S
C880 H867 0.930 . S
C880 C879 1.388 . S
C880 C881 1.390 . S
C881 C880 1.390 . S
C881 C882 1.394 . S
C881 C887 1.465 . S
C882 C877 1.399 . S
C882 C881 1.394 . S
C882 C883 1.516 . S
C883 C882 1.516 . S
C883 C884 1.502 . S
C883 C885 1.561 . S
C883 C886 1.526 . S
C884 H868 0.959 . S
C884 H869 0.959 . S
C884 H870 0.961 . S
C884 C883 1.502 . S
C885 H871 0.960 . S
C885 H872 0.961 . S
C885 H873 0.959 . S
C885 C883 1.561 . S
C886 C883 1.526 . S
C886 C887 1.396 . S
C886 C891 1.390 . S
C887 C881 1.465 . S
C887 C886 1.396 . S
C887 C888 1.399 . S
C888 H874 0.929 . S
C888 C887 1.399 . S
C888 C889 1.385 . S
C889 H875 0.931 . S
C889 C888 1.385 . S
C889 C890 1.389 . S
C890 C889 1.389 . S
C890 C891 1.387 . S
C891 H876 0.930 . S
C891 C886 1.390 . S
C891 C890 1.387 . S
H892 C904 0.930 . S
H893 C906 0.930 . S
H894 C907 0.930 . S
H895 C911 0.959 . S
H896 C911 0.959 . S
H897 C911 0.961 . S
H898 C912 0.960 . S
H899 C912 0.961 . S
H900 C912 0.959 . S
H901 C915 0.929 . S
H902 C916 0.931 . S
H903 C918 0.930 . S
C904 H892 0.930 . S
C904 C905 1.399 . S
C904 C909 1.399 . S
C905 C904 1.399 . S
C905 C906 1.376 . S
C906 H893 0.930 . S
C906 C905 1.376 . S
C906 C907 1.388 . S
C907 H894 0.930 . S
C907 C906 1.388 . S
C907 C908 1.390 . S
C908 C907 1.390 . S
C908 C909 1.394 . S
C908 C914 1.465 . S
C909 C904 1.399 . S
C909 C908 1.394 . S
C909 C910 1.516 . S
C910 C909 1.516 . S
C910 C911 1.502 . S
C910 C912 1.561 . S
C910 C913 1.526 . S
C911 H895 0.959 . S
C911 H896 0.959 . S
C911 H897 0.961 . S
C911 C910 1.502 . S
C912 H898 0.960 . S
C912 H899 0.961 . S
C912 H900 0.959 . S
C912 C910 1.561 . S
C913 C910 1.526 . S
C913 C914 1.396 . S
C913 C918 1.390 . S
C914 C908 1.465 . S
C914 C913 1.396 . S
C914 C915 1.399 . S
C915 H901 0.929 . S
C915 C914 1.399 . S
C915 C916 1.385 . S
C916 H902 0.931 . S
C916 C915 1.385 . S
C916 C917 1.389 . S
C917 C916 1.389 . S
C917 C918 1.387 . S
C918 H903 0.930 . S
C918 C913 1.390 . S
C918 C917 1.387 . S
H919 C931 0.930 . S
H920 C933 0.930 . S
H921 C934 0.930 . S
H922 C938 0.959 . S
H923 C938 0.959 . S
H924 C938 0.961 . S
H925 C939 0.960 . S
H926 C939 0.961 1_655 S
H927 C939 0.959 1_655 S
H928 C942 0.929 . S
H929 C943 0.931 . S
H930 C945 0.930 . S
C931 H919 0.930 . S
C931 C932 1.399 . S
C931 C936 1.399 . S
C932 C931 1.399 . S
C932 C933 1.376 . S
C933 H920 0.930 . S
C933 C932 1.376 . S
C933 C934 1.388 . S
C934 H921 0.930 . S
C934 C933 1.388 . S
C934 C935 1.390 . S
C935 C934 1.390 . S
C935 C936 1.394 . S
C935 C941 1.465 1_455 S
C936 C931 1.399 . S
C936 C935 1.394 . S
C936 C937 1.516 . S
C937 C936 1.516 . S
C937 C938 1.502 . S
C937 C939 1.561 . S
C937 C940 1.526 1_455 S
C938 H922 0.959 . S
C938 H923 0.959 . S
C938 H924 0.961 . S
C938 C937 1.502 . S
C939 H925 0.960 . S
C939 H926 0.961 1_455 S
C939 H927 0.959 1_455 S
C939 C937 1.561 . S
C940 C937 1.526 1_655 S
C940 C941 1.396 . S
C940 C945 1.390 . S
C941 C935 1.465 1_655 S
C941 C940 1.396 . S
C941 C942 1.399 . S
C942 H928 0.929 . S
C942 C941 1.399 . S
C942 C943 1.385 . S
C943 H929 0.931 . S
C943 C942 1.385 . S
C943 C944 1.389 . S
C944 C943 1.389 . S
C944 C945 1.387 . S
C945 H930 0.930 . S
C945 C940 1.390 . S
C945 C944 1.387 . S
H946 C958 0.930 . S
H947 C960 0.930 . S
H948 C961 0.930 . S
H949 C965 0.959 . S
H950 C965 0.959 . S
H951 C965 0.961 . S
H952 C966 0.960 . S
H953 C966 0.961 . S
H954 C966 0.959 . S
H955 C969 0.929 . S
H956 C970 0.931 . S
H957 C972 0.930 . S
C958 H946 0.930 . S
C958 C959 1.399 . S
C958 C963 1.399 . S
C959 C958 1.399 . S
C959 C960 1.376 . S
C960 H947 0.930 . S
C960 C959 1.376 . S
C960 C961 1.388 . S
C961 H948 0.930 . S
C961 C960 1.388 . S
C961 C962 1.390 . S
C962 C961 1.390 . S
C962 C963 1.394 . S
C962 C968 1.465 . S
C963 C958 1.399 . S
C963 C962 1.394 . S
C963 C964 1.516 . S
C964 C963 1.516 . S
C964 C965 1.502 . S
C964 C966 1.561 . S
C964 C967 1.526 . S
C965 H949 0.959 . S
C965 H950 0.959 . S
C965 H951 0.961 . S
C965 C964 1.502 . S
C966 H952 0.960 . S
C966 H953 0.961 . S
C966 H954 0.959 . S
C966 C964 1.561 . S
C967 C964 1.526 . S
C967 C968 1.396 . S
C967 C972 1.390 . S
C968 C962 1.465 . S
C968 C967 1.396 . S
C968 C969 1.399 . S
C969 H955 0.929 . S
C969 C968 1.399 . S
C969 C970 1.385 . S
C970 H956 0.931 . S
C970 C969 1.385 . S
C970 C971 1.389 . S
C971 C970 1.389 . S
C971 C972 1.387 . S
C972 H957 0.930 . S
C972 C967 1.390 . S
C972 C971 1.387 . S
H973 C985 0.930 . S
H974 C987 0.930 . S
H975 C988 0.930 . S
H976 C992 0.959 . S
H977 C992 0.959 . S
H978 C992 0.961 . S
H979 C993 0.960 . S
H980 C993 0.961 1_455 S
H981 C993 0.959 . S
H982 C996 0.929 . S
H983 C997 0.931 . S
H984 C999 0.930 1_455 S
C985 H973 0.930 . S
C985 C986 1.399 . S
C985 C990 1.399 . S
C986 C985 1.399 . S
C986 C987 1.376 . S
C987 H974 0.930 . S
C987 C986 1.376 . S
C987 C988 1.388 . S
C988 H975 0.930 . S
C988 C987 1.388 . S
C988 C989 1.390 . S
C989 C988 1.390 . S
C989 C990 1.394 . S
C989 C995 1.465 . S
C990 C985 1.399 . S
C990 C989 1.394 . S
C990 C991 1.516 . S
C991 C990 1.516 . S
C991 C992 1.502 . S
C991 C993 1.561 . S
C991 C994 1.526 . S
C992 H976 0.959 . S
C992 H977 0.959 . S
C992 H978 0.961 . S
C992 C991 1.502 . S
C993 H979 0.960 . S
C993 H980 0.961 1_655 S
C993 H981 0.959 . S
C993 C991 1.561 . S
C994 C991 1.526 . S
C994 C995 1.396 . S
C994 C999 1.390 . S
C995 C989 1.465 . S
C995 C994 1.396 . S
C995 C996 1.399 . S
C996 H982 0.929 . S
C996 C995 1.399 . S
C996 C997 1.385 . S
C997 H983 0.931 . S
C997 C996 1.385 . S
C997 C998 1.389 . S
C998 C997 1.389 . S
C998 C999 1.387 . S
C999 H984 0.930 1_655 S
C999 C994 1.390 . S
C999 C998 1.387 . S
H1000 C1012 0.930 . S
H1001 C1014 0.930 . S
H1002 C1015 0.930 . S
H1003 C1019 0.959 . S
H1004 C1019 0.959 . S
H1005 C1019 0.961 . S
H1006 C1020 0.960 . S
H1007 C1020 0.961 . S
H1008 C1020 0.959 . S
H1009 C1023 0.929 . S
H1010 C1024 0.931 . S
H1011 C1026 0.930 . S
C1012 H1000 0.930 . S
C1012 C1013 1.399 . S
C1012 C1017 1.399 . S
C1013 C1012 1.399 . S
C1013 C1014 1.376 . S
C1014 H1001 0.930 . S
C1014 C1013 1.376 . S
C1014 C1015 1.388 . S
C1015 H1002 0.930 . S
C1015 C1014 1.388 . S
C1015 C1016 1.390 . S
C1016 C1015 1.390 . S
C1016 C1017 1.394 . S
C1016 C1022 1.465 . S
C1017 C1012 1.399 . S
C1017 C1016 1.394 . S
C1017 C1018 1.516 . S
C1018 C1017 1.516 . S
C1018 C1019 1.502 . S
C1018 C1020 1.561 . S
C1018 C1021 1.526 . S
C1019 H1003 0.959 . S
C1019 H1004 0.959 . S
C1019 H1005 0.961 . S
C1019 C1018 1.502 . S
C1020 H1006 0.960 . S
C1020 H1007 0.961 . S
C1020 H1008 0.959 . S
C1020 C1018 1.561 . S
C1021 C1018 1.526 . S
C1021 C1022 1.396 . S
C1021 C1026 1.390 . S
C1022 C1016 1.465 . S
C1022 C1021 1.396 . S
C1022 C1023 1.399 . S
C1023 H1009 0.929 . S
C1023 C1022 1.399 . S
C1023 C1024 1.385 . S
C1024 H1010 0.931 . S
C1024 C1023 1.385 . S
C1024 C1025 1.389 . S
C1025 C1024 1.389 . S
C1025 C1026 1.387 . S
C1026 H1011 0.930 . S
C1026 C1021 1.390 . S
C1026 C1025 1.387 . S
H1027 C1039 0.930 . S
H1028 C1041 0.930 . S
H1029 C1042 0.930 . S
H1030 C1046 0.959 . S
H1031 C1046 0.959 . S
H1032 C1046 0.961 . S
H1033 C1047 0.960 . S
H1034 C1047 0.961 . S
H1035 C1047 0.959 . S
H1036 C1050 0.929 . S
H1037 C1051 0.931 . S
H1038 C1053 0.930 . S
C1039 H1027 0.930 . S
C1039 C1040 1.399 . S
C1039 C1044 1.399 . S
C1040 C1039 1.399 . S
C1040 C1041 1.376 . S
C1041 H1028 0.930 . S
C1041 C1040 1.376 . S
C1041 C1042 1.388 . S
C1042 H1029 0.930 . S
C1042 C1041 1.388 . S
C1042 C1043 1.390 . S
C1043 C1042 1.390 . S
C1043 C1044 1.394 . S
C1043 C1049 1.465 . S
C1044 C1039 1.399 . S
C1044 C1043 1.394 . S
C1044 C1045 1.516 . S
C1045 C1044 1.516 . S
C1045 C1046 1.502 . S
C1045 C1047 1.561 . S
C1045 C1048 1.526 . S
C1046 H1030 0.959 . S
C1046 H1031 0.959 . S
C1046 H1032 0.961 . S
C1046 C1045 1.502 . S
C1047 H1033 0.960 . S
C1047 H1034 0.961 . S
C1047 H1035 0.959 . S
C1047 C1045 1.561 . S
C1048 C1045 1.526 . S
C1048 C1049 1.396 . S
C1048 C1053 1.390 . S
C1049 C1043 1.465 . S
C1049 C1048 1.396 . S
C1049 C1050 1.399 . S
C1050 H1036 0.929 . S
C1050 C1049 1.399 . S
C1050 C1051 1.385 . S
C1051 H1037 0.931 . S
C1051 C1050 1.385 . S
C1051 C1052 1.389 . S
C1052 C1051 1.389 . S
C1052 C1053 1.387 . S
C1053 H1038 0.930 . S
C1053 C1048 1.390 . S
C1053 C1052 1.387 . S
H1054 C1066 0.930 . S
H1055 C1068 0.930 . S
H1056 C1069 0.930 . S
H1057 C1073 0.959 . S
H1058 C1073 0.959 . S
H1059 C1073 0.961 . S
H1060 C1074 0.960 . S
H1061 C1074 0.961 . S
H1062 C1074 0.959 . S
H1063 C1077 0.929 . S
H1064 C1078 0.931 . S
H1065 C1080 0.930 . S
C1066 H1054 0.930 . S
C1066 C1067 1.399 . S
C1066 C1071 1.399 . S
C1067 C1066 1.399 . S
C1067 C1068 1.376 . S
C1068 H1055 0.930 . S
C1068 C1067 1.376 . S
C1068 C1069 1.388 . S
C1069 H1056 0.930 . S
C1069 C1068 1.388 . S
C1069 C1070 1.390 . S
C1070 C1069 1.390 . S
C1070 C1071 1.394 . S
C1070 C1076 1.465 . S
C1071 C1066 1.399 . S
C1071 C1070 1.394 . S
C1071 C1072 1.516 . S
C1072 C1071 1.516 . S
C1072 C1073 1.502 . S
C1072 C1074 1.561 . S
C1072 C1075 1.526 . S
C1073 H1057 0.959 . S
C1073 H1058 0.959 . S
C1073 H1059 0.961 . S
C1073 C1072 1.502 . S
C1074 H1060 0.960 . S
C1074 H1061 0.961 . S
C1074 H1062 0.959 . S
C1074 C1072 1.561 . S
C1075 C1072 1.526 . S
C1075 C1076 1.396 . S
C1075 C1080 1.390 . S
C1076 C1070 1.465 . S
C1076 C1075 1.396 . S
C1076 C1077 1.399 . S
C1077 H1063 0.929 . S
C1077 C1076 1.399 . S
C1077 C1078 1.385 . S
C1078 H1064 0.931 . S
C1078 C1077 1.385 . S
C1078 C1079 1.389 . S
C1079 C1078 1.389 . S
C1079 C1080 1.387 . S
C1080 H1065 0.930 . S
C1080 C1075 1.390 . S
C1080 C1079 1.387 . S
H1081 C1093 0.930 . S
H1082 C1095 0.930 . S
H1083 C1096 0.930 . S
H1084 C1100 0.959 . S
H1085 C1100 0.959 . S
H1086 C1100 0.961 . S
H1087 C1101 0.960 . S
H1088 C1101 0.961 . S
H1089 C1101 0.959 . S
H1090 C1104 0.929 . S
H1091 C1105 0.931 . S
H1092 C1107 0.930 . S
C1093 H1081 0.930 . S
C1093 C1094 1.399 . S
C1093 C1098 1.399 . S
C1094 C1093 1.399 . S
C1094 C1095 1.376 . S
C1095 H1082 0.930 . S
C1095 C1094 1.376 . S
C1095 C1096 1.388 . S
C1096 H1083 0.930 . S
C1096 C1095 1.388 . S
C1096 C1097 1.390 . S
C1097 C1096 1.390 . S
C1097 C1098 1.394 . S
C1097 C1103 1.465 . S
C1098 C1093 1.399 . S
C1098 C1097 1.394 . S
C1098 C1099 1.516 . S
C1099 C1098 1.516 . S
C1099 C1100 1.502 . S
C1099 C1101 1.561 . S
C1099 C1102 1.526 . S
C1100 H1084 0.959 . S
C1100 H1085 0.959 . S
C1100 H1086 0.961 . S
C1100 C1099 1.502 . S
C1101 H1087 0.960 . S
C1101 H1088 0.961 . S
C1101 H1089 0.959 . S
C1101 C1099 1.561 . S
C1102 C1099 1.526 . S
C1102 C1103 1.396 . S
C1102 C1107 1.390 . S
C1103 C1097 1.465 . S
C1103 C1102 1.396 . S
C1103 C1104 1.399 . S
C1104 H1090 0.929 . S
C1104 C1103 1.399 . S
C1104 C1105 1.385 . S
C1105 H1091 0.931 . S
C1105 C1104 1.385 . S
C1105 C1106 1.389 . S
C1106 C1105 1.389 . S
C1106 C1107 1.387 . S
C1107 H1092 0.930 . S
C1107 C1102 1.390 . S
C1107 C1106 1.387 . S
H1108 C1120 0.930 . S
H1109 C1122 0.930 . S
H1110 C1123 0.930 . S
H1111 C1127 0.959 . S
H1112 C1127 0.959 . S
H1113 C1127 0.961 . S
H1114 C1128 0.960 . S
H1115 C1128 0.961 . S
H1116 C1128 0.959 . S
H1117 C1131 0.929 . S
H1118 C1132 0.931 . S
H1119 C1134 0.930 . S
C1120 H1108 0.930 . S
C1120 C1121 1.399 . S
C1120 C1125 1.399 . S
C1121 C1120 1.399 . S
C1121 C1122 1.376 . S
C1122 H1109 0.930 . S
C1122 C1121 1.376 . S
C1122 C1123 1.388 . S
C1123 H1110 0.930 . S
C1123 C1122 1.388 . S
C1123 C1124 1.390 . S
C1124 C1123 1.390 . S
C1124 C1125 1.394 . S
C1124 C1130 1.465 . S
C1125 C1120 1.399 . S
C1125 C1124 1.394 . S
C1125 C1126 1.516 . S
C1126 C1125 1.516 . S
C1126 C1127 1.502 . S
C1126 C1128 1.561 . S
C1126 C1129 1.526 . S
C1127 H1111 0.959 . S
C1127 H1112 0.959 . S
C1127 H1113 0.961 . S
C1127 C1126 1.502 . S
C1128 H1114 0.960 . S
C1128 H1115 0.961 . S
C1128 H1116 0.959 . S
C1128 C1126 1.561 . S
C1129 C1126 1.526 . S
C1129 C1130 1.396 . S
C1129 C1134 1.390 . S
C1130 C1124 1.465 . S
C1130 C1129 1.396 . S
C1130 C1131 1.399 . S
C1131 H1117 0.929 . S
C1131 C1130 1.399 . S
C1131 C1132 1.385 . S
C1132 H1118 0.931 . S
C1132 C1131 1.385 . S
C1132 C1133 1.389 . S
C1133 C1132 1.389 . S
C1133 C1134 1.387 . S
C1134 H1119 0.930 . S
C1134 C1129 1.390 . S
C1134 C1133 1.387 . S
H1135 C1147 0.930 . S
H1136 C1149 0.930 . S
H1137 C1150 0.930 . S
H1138 C1154 0.959 . S
H1139 C1154 0.959 . S
H1140 C1154 0.961 . S
H1141 C1155 0.960 . S
H1142 C1155 0.961 . S
H1143 C1155 0.959 . S
H1144 C1158 0.929 . S
H1145 C1159 0.931 . S
H1146 C1161 0.930 . S
C1147 H1135 0.930 . S
C1147 C1148 1.399 . S
C1147 C1152 1.399 . S
C1148 C1147 1.399 . S
C1148 C1149 1.376 . S
C1149 H1136 0.930 . S
C1149 C1148 1.376 . S
C1149 C1150 1.388 . S
C1150 H1137 0.930 . S
C1150 C1149 1.388 . S
C1150 C1151 1.390 . S
C1151 C1150 1.390 . S
C1151 C1152 1.394 . S
C1151 C1157 1.465 . S
C1152 C1147 1.399 . S
C1152 C1151 1.394 . S
C1152 C1153 1.516 . S
C1153 C1152 1.516 . S
C1153 C1154 1.502 . S
C1153 C1155 1.561 . S
C1153 C1156 1.526 . S
C1154 H1138 0.959 . S
C1154 H1139 0.959 . S
C1154 H1140 0.961 . S
C1154 C1153 1.502 . S
C1155 H1141 0.960 . S
C1155 H1142 0.961 . S
C1155 H1143 0.959 . S
C1155 C1153 1.561 . S
C1156 C1153 1.526 . S
C1156 C1157 1.396 . S
C1156 C1161 1.390 . S
C1157 C1151 1.465 . S
C1157 C1156 1.396 . S
C1157 C1158 1.399 . S
C1158 H1144 0.929 . S
C1158 C1157 1.399 . S
C1158 C1159 1.385 . S
C1159 H1145 0.931 . S
C1159 C1158 1.385 . S
C1159 C1160 1.389 . S
C1160 C1159 1.389 . S
C1160 C1161 1.387 . S
C1161 H1146 0.930 . S
C1161 C1156 1.390 . S
C1161 C1160 1.387 . S
H1162 C1174 0.930 . S
H1163 C1176 0.930 . S
H1164 C1177 0.930 . S
H1165 C1181 0.959 . S
H1166 C1181 0.959 . S
H1167 C1181 0.961 . S
H1168 C1182 0.960 . S
H1169 C1182 0.961 . S
H1170 C1182 0.959 . S
H1171 C1185 0.929 . S
H1172 C1186 0.931 . S
H1173 C1188 0.930 . S
C1174 H1162 0.930 . S
C1174 C1175 1.399 . S
C1174 C1179 1.399 . S
C1175 C1174 1.399 . S
C1175 C1176 1.376 . S
C1176 H1163 0.930 . S
C1176 C1175 1.376 . S
C1176 C1177 1.388 . S
C1177 H1164 0.930 . S
C1177 C1176 1.388 . S
C1177 C1178 1.390 . S
C1178 C1177 1.390 . S
C1178 C1179 1.394 . S
C1178 C1184 1.465 . S
C1179 C1174 1.399 . S
C1179 C1178 1.394 . S
C1179 C1180 1.516 . S
C1180 C1179 1.516 . S
C1180 C1181 1.502 . S
C1180 C1182 1.561 . S
C1180 C1183 1.526 . S
C1181 H1165 0.959 . S
C1181 H1166 0.959 . S
C1181 H1167 0.961 . S
C1181 C1180 1.502 . S
C1182 H1168 0.960 . S
C1182 H1169 0.961 . S
C1182 H1170 0.959 . S
C1182 C1180 1.561 . S
C1183 C1180 1.526 . S
C1183 C1184 1.396 . S
C1183 C1188 1.390 . S
C1184 C1178 1.465 . S
C1184 C1183 1.396 . S
C1184 C1185 1.399 . S
C1185 H1171 0.929 . S
C1185 C1184 1.399 . S
C1185 C1186 1.385 . S
C1186 H1172 0.931 . S
C1186 C1185 1.385 . S
C1186 C1187 1.389 . S
C1187 C1186 1.389 . S
C1187 C1188 1.387 . S
C1188 H1173 0.930 . S
C1188 C1183 1.390 . S
C1188 C1187 1.387 . S
H1189 C1201 0.930 . S
H1190 C1203 0.930 . S
H1191 C1204 0.930 . S
H1192 C1208 0.959 . S
H1193 C1208 0.959 . S
H1194 C1208 0.961 . S
H1195 C1209 0.960 . S
H1196 C1209 0.961 . S
H1197 C1209 0.959 . S
H1198 C1212 0.929 . S
H1199 C1213 0.931 . S
H1200 C1215 0.930 . S
C1201 H1189 0.930 . S
C1201 C1202 1.399 . S
C1201 C1206 1.399 . S
C1202 C1201 1.399 . S
C1202 C1203 1.376 1_554 S
C1203 H1190 0.930 . S
C1203 C1202 1.376 1_556 S
C1203 C1204 1.388 . S
C1204 H1191 0.930 . S
C1204 C1203 1.388 . S
C1204 C1205 1.390 . S
C1205 C1204 1.390 . S
C1205 C1206 1.394 1_556 S
C1205 C1211 1.465 . S
C1206 C1201 1.399 . S
C1206 C1205 1.394 1_554 S
C1206 C1207 1.516 . S
C1207 C1206 1.516 . S
C1207 C1208 1.502 . S
C1207 C1209 1.561 . S
C1207 C1210 1.526 . S
C1208 H1192 0.959 . S
C1208 H1193 0.959 . S
C1208 H1194 0.961 . S
C1208 C1207 1.502 . S
C1209 H1195 0.960 . S
C1209 H1196 0.961 . S
C1209 H1197 0.959 . S
C1209 C1207 1.561 . S
C1210 C1207 1.526 . S
C1210 C1211 1.396 1_554 S
C1210 C1215 1.390 . S
C1211 C1205 1.465 . S
C1211 C1210 1.396 1_556 S
C1211 C1212 1.399 . S
C1212 H1198 0.929 . S
C1212 C1211 1.399 . S
C1212 C1213 1.385 . S
C1213 H1199 0.931 . S
C1213 C1212 1.385 . S
C1213 C1214 1.389 . S
C1214 C1213 1.389 . S
C1214 C1215 1.387 1_556 S
C1215 H1200 0.930 . S
C1215 C1210 1.390 . S
C1215 C1214 1.387 1_554 S
C581 C7 1.339 . S
C593 C89 1.252 . S
C608 C37 1.587 . S
C620 C168 1.488 . S
C635 C54 1.420 . S
C647 C239 1.389 1_545 S
C674 C299 1.733 . S
C662 C87 1.685 . S
C701 C329 1.434 . S
C689 C30 1.558 . S
C716 C51 1.334 . S
C728 C419 1.357 . S
C743 C84 1.703 . S
C755 C479 1.712 . S
C770 C10 1.446 . S
C782 C528 1.389 1_455 S
C797 C59 1.388 . S
C809 C509 1.324 . S
C836 C348 1.533 . S
C824 C74 1.568 . S
C863 C408 1.309 1_565 S
C851 C18 1.458 . S
C878 C32 1.713 . S
C890 C468 1.634 . S
C917 C149 1.466 . S
C905 C73 1.617 . S
C932 C15 1.329 . S
C944 C228 1.285 . S
C971 C288 1.574 . S
C959 C43 1.697 . S
C998 C108 1.418 1_655 S
C986 C62 1.421 . S
C1025 C449 1.662 . S
C1013 C21 1.696 . S
C1052 C539 1.141 . S
C1040 C29 1.137 . S
C1067 C52 1.335 . S
C1079 C359 1.358 . S
C1106 C389 1.147 . S
C1094 C81 1.129 . S
C1133 C209 1.026 . S
C1121 C40 1.105 . S
C1148 C65 1.676 . S
C1160 C269 1.599 . S
C1187 C119 1.099 . S
C1175 C76 1.103 . S
C1214 C179 1.252 . S
C1202 C8 1.408 . S
