# Generated by pormake.
# Topology ptr, (4,4)-cn, num edge types: 1
# Building blocks:
#     Node 0, Type 0, BuildingBlock: GALJAG_clean_sbu_0, # of connection points: 4
#     Node 1, Type 0, BuildingBlock: GALJAG_clean_sbu_0, # of connection points: 4
#     Node 2, Type 0, BuildingBlock: GALJAG_clean_sbu_0, # of connection points: 4
#     Node 3, Type 0, BuildingBlock: GALJAG_clean_sbu_0, # of connection points: 4
#     Node 4, Type 0, BuildingBlock: GALJAG_clean_sbu_0, # of connection points: 4
#     Node 5, Type 0, BuildingBlock: GALJAG_clean_sbu_0, # of connection points: 4
#     Node 6, Type 0, BuildingBlock: GALJAG_clean_sbu_0, # of connection points: 4
#     Node 7, Type 0, BuildingBlock: GALJAG_clean_sbu_0, # of connection points: 4
#     Node 8, Type 0, BuildingBlock: GALJAG_clean_sbu_0, # of connection points: 4
#     Node 9, Type 0, BuildingBlock: GALJAG_clean_sbu_0, # of connection points: 4
#     Node 10, Type 0, BuildingBlock: GALJAG_clean_sbu_0, # of connection points: 4
#     Node 11, Type 0, BuildingBlock: GALJAG_clean_sbu_0, # of connection points: 4
#     Node 12, Type 0, BuildingBlock: GALJAG_clean_sbu_0, # of connection points: 4
#     Node 13, Type 0, BuildingBlock: GALJAG_clean_sbu_0, # of connection points: 4
#     Node 14, Type 0, BuildingBlock: GALJAG_clean_sbu_0, # of connection points: 4
#     Node 15, Type 0, BuildingBlock: GALJAG_clean_sbu_0, # of connection points: 4
#     Node 16, Type 0, BuildingBlock: GALJAG_clean_sbu_0, # of connection points: 4
#     Node 17, Type 0, BuildingBlock: GALJAG_clean_sbu_0, # of connection points: 4
#     Node 18, Type 1, BuildingBlock: GIZVER_clean_linker_0, # of connection points: 4
#     Node 19, Type 1, BuildingBlock: GIZVER_clean_linker_0, # of connection points: 4
#     Node 20, Type 1, BuildingBlock: GIZVER_clean_linker_0, # of connection points: 4
#     Node 21, Type 1, BuildingBlock: GIZVER_clean_linker_0, # of connection points: 4
#     Node 22, Type 1, BuildingBlock: GIZVER_clean_linker_0, # of connection points: 4
#     Node 23, Type 1, BuildingBlock: GIZVER_clean_linker_0, # of connection points: 4
#     Node 24, Type 1, BuildingBlock: GIZVER_clean_linker_0, # of connection points: 4
#     Node 25, Type 1, BuildingBlock: GIZVER_clean_linker_0, # of connection points: 4
#     Node 26, Type 1, BuildingBlock: GIZVER_clean_linker_0, # of connection points: 4
#     Node 27, Type 1, BuildingBlock: GIZVER_clean_linker_0, # of connection points: 4
#     Node 28, Type 1, BuildingBlock: GIZVER_clean_linker_0, # of connection points: 4
#     Node 29, Type 1, BuildingBlock: GIZVER_clean_linker_0, # of connection points: 4
#     Node 30, Type 1, BuildingBlock: GIZVER_clean_linker_0, # of connection points: 4
#     Node 31, Type 1, BuildingBlock: GIZVER_clean_linker_0, # of connection points: 4
#     Node 32, Type 1, BuildingBlock: GIZVER_clean_linker_0, # of connection points: 4
#     Node 33, Type 1, BuildingBlock: GIZVER_clean_linker_0, # of connection points: 4
#     Node 34, Type 1, BuildingBlock: GIZVER_clean_linker_0, # of connection points: 4
#     Node 35, Type 1, BuildingBlock: GIZVER_clean_linker_0, # of connection points: 4
#     Edge 36, Type (0, 1), BuildingBlock: TEMPAE_clean_linker_10, # of connection points: 2
#     Edge 37, Type (0, 1), BuildingBlock: TEMPAE_clean_linker_10, # of connection points: 2
#     Edge 38, Type (0, 1), BuildingBlock: TEMPAE_clean_linker_10, # of connection points: 2
#     Edge 39, Type (0, 1), BuildingBlock: TEMPAE_clean_linker_10, # of connection points: 2
#     Edge 40, Type (0, 1), BuildingBlock: TEMPAE_clean_linker_10, # of connection points: 2
#     Edge 41, Type (0, 1), BuildingBlock: TEMPAE_clean_linker_10, # of connection points: 2
#     Edge 42, Type (0, 1), BuildingBlock: TEMPAE_clean_linker_10, # of connection points: 2
#     Edge 43, Type (0, 1), BuildingBlock: TEMPAE_clean_linker_10, # of connection points: 2
#     Edge 44, Type (0, 1), BuildingBlock: TEMPAE_clean_linker_10, # of connection points: 2
#     Edge 45, Type (0, 1), BuildingBlock: TEMPAE_clean_linker_10, # of connection points: 2
#     Edge 46, Type (0, 1), BuildingBlock: TEMPAE_clean_linker_10, # of connection points: 2
#     Edge 47, Type (0, 1), BuildingBlock: TEMPAE_clean_linker_10, # of connection points: 2
#     Edge 48, Type (0, 1), BuildingBlock: TEMPAE_clean_linker_10, # of connection points: 2
#     Edge 49, Type (0, 1), BuildingBlock: TEMPAE_clean_linker_10, # of connection points: 2
#     Edge 50, Type (0, 1), BuildingBlock: TEMPAE_clean_linker_10, # of connection points: 2
#     Edge 51, Type (0, 1), BuildingBlock: TEMPAE_clean_linker_10, # of connection points: 2
#     Edge 52, Type (0, 1), BuildingBlock: TEMPAE_clean_linker_10, # of connection points: 2
#     Edge 53, Type (0, 1), BuildingBlock: TEMPAE_clean_linker_10, # of connection points: 2
#     Edge 54, Type (0, 1), BuildingBlock: TEMPAE_clean_linker_10, # of connection points: 2
#     Edge 55, Type (0, 1), BuildingBlock: TEMPAE_clean_linker_10, # of connection points: 2
#     Edge 56, Type (0, 1), BuildingBlock: TEMPAE_clean_linker_10, # of connection points: 2
#     Edge 57, Type (0, 1), BuildingBlock: TEMPAE_clean_linker_10, # of connection points: 2
#     Edge 58, Type (0, 1), BuildingBlock: TEMPAE_clean_linker_10, # of connection points: 2
#     Edge 59, Type (0, 1), BuildingBlock: TEMPAE_clean_linker_10, # of connection points: 2
#     Edge 60, Type (0, 1), BuildingBlock: TEMPAE_clean_linker_10, # of connection points: 2
#     Edge 61, Type (0, 1), BuildingBlock: TEMPAE_clean_linker_10, # of connection points: 2
#     Edge 62, Type (0, 1), BuildingBlock: TEMPAE_clean_linker_10, # of connection points: 2
#     Edge 63, Type (0, 1), BuildingBlock: TEMPAE_clean_linker_10, # of connection points: 2
#     Edge 64, Type (0, 1), BuildingBlock: TEMPAE_clean_linker_10, # of connection points: 2
#     Edge 65, Type (0, 1), BuildingBlock: TEMPAE_clean_linker_10, # of connection points: 2
#     Edge 66, Type (0, 1), BuildingBlock: TEMPAE_clean_linker_10, # of connection points: 2
#     Edge 67, Type (0, 1), BuildingBlock: TEMPAE_clean_linker_10, # of connection points: 2
#     Edge 68, Type (0, 1), BuildingBlock: TEMPAE_clean_linker_10, # of connection points: 2
#     Edge 69, Type (0, 1), BuildingBlock: TEMPAE_clean_linker_10, # of connection points: 2
#     Edge 70, Type (0, 1), BuildingBlock: TEMPAE_clean_linker_10, # of connection points: 2
#     Edge 71, Type (0, 1), BuildingBlock: TEMPAE_clean_linker_10, # of connection points: 2
#     Edge 72, Type (0, 1), BuildingBlock: TEMPAE_clean_linker_10, # of connection points: 2
#     Edge 73, Type (0, 1), BuildingBlock: TEMPAE_clean_linker_10, # of connection points: 2
#     Edge 74, Type (0, 1), BuildingBlock: TEMPAE_clean_linker_10, # of connection points: 2
#     Edge 75, Type (0, 1), BuildingBlock: TEMPAE_clean_linker_10, # of connection points: 2
#     Edge 76, Type (0, 1), BuildingBlock: TEMPAE_clean_linker_10, # of connection points: 2
#     Edge 77, Type (0, 1), BuildingBlock: TEMPAE_clean_linker_10, # of connection points: 2
#     Edge 78, Type (0, 1), BuildingBlock: TEMPAE_clean_linker_10, # of connection points: 2
#     Edge 79, Type (0, 1), BuildingBlock: TEMPAE_clean_linker_10, # of connection points: 2
#     Edge 80, Type (0, 1), BuildingBlock: TEMPAE_clean_linker_10, # of connection points: 2
#     Edge 81, Type (0, 1), BuildingBlock: TEMPAE_clean_linker_10, # of connection points: 2
#     Edge 82, Type (0, 1), BuildingBlock: TEMPAE_clean_linker_10, # of connection points: 2
#     Edge 83, Type (0, 1), BuildingBlock: TEMPAE_clean_linker_10, # of connection points: 2
#     Edge 84, Type (0, 1), BuildingBlock: TEMPAE_clean_linker_10, # of connection points: 2
#     Edge 85, Type (0, 1), BuildingBlock: TEMPAE_clean_linker_10, # of connection points: 2
#     Edge 86, Type (0, 1), BuildingBlock: TEMPAE_clean_linker_10, # of connection points: 2
#     Edge 87, Type (0, 1), BuildingBlock: TEMPAE_clean_linker_10, # of connection points: 2
#     Edge 88, Type (0, 1), BuildingBlock: TEMPAE_clean_linker_10, # of connection points: 2
#     Edge 89, Type (0, 1), BuildingBlock: TEMPAE_clean_linker_10, # of connection points: 2
#     Edge 90, Type (0, 1), BuildingBlock: TEMPAE_clean_linker_10, # of connection points: 2
#     Edge 91, Type (0, 1), BuildingBlock: TEMPAE_clean_linker_10, # of connection points: 2
#     Edge 92, Type (0, 1), BuildingBlock: TEMPAE_clean_linker_10, # of connection points: 2
#     Edge 93, Type (0, 1), BuildingBlock: TEMPAE_clean_linker_10, # of connection points: 2
#     Edge 94, Type (0, 1), BuildingBlock: TEMPAE_clean_linker_10, # of connection points: 2
#     Edge 95, Type (0, 1), BuildingBlock: TEMPAE_clean_linker_10, # of connection points: 2
#     Edge 96, Type (0, 1), BuildingBlock: TEMPAE_clean_linker_10, # of connection points: 2
#     Edge 97, Type (0, 1), BuildingBlock: TEMPAE_clean_linker_10, # of connection points: 2
#     Edge 98, Type (0, 1), BuildingBlock: TEMPAE_clean_linker_10, # of connection points: 2
#     Edge 99, Type (0, 1), BuildingBlock: TEMPAE_clean_linker_10, # of connection points: 2
#     Edge 100, Type (0, 1), BuildingBlock: TEMPAE_clean_linker_10, # of connection points: 2
#     Edge 101, Type (0, 1), BuildingBlock: TEMPAE_clean_linker_10, # of connection points: 2
#     Edge 102, Type (0, 1), BuildingBlock: TEMPAE_clean_linker_10, # of connection points: 2
#     Edge 103, Type (0, 1), BuildingBlock: TEMPAE_clean_linker_10, # of connection points: 2
#     Edge 104, Type (0, 1), BuildingBlock: TEMPAE_clean_linker_10, # of connection points: 2
#     Edge 105, Type (0, 1), BuildingBlock: TEMPAE_clean_linker_10, # of connection points: 2
#     Edge 106, Type (0, 1), BuildingBlock: TEMPAE_clean_linker_10, # of connection points: 2
#     Edge 107, Type (0, 1), BuildingBlock: TEMPAE_clean_linker_10, # of connection points: 2
# Relax obj value: 0.069
# Max RMSD: 0.094
# Mean RMSD: 0.093
data_MOF--net-ptr--node1-GALJAG_clean_sbu_0--node2-GIZVER_clean_linker_0--edge1-TEMPAE_clean_linker_10
_symmetry_space_group_name_H-M    P1
_symmetry_Int_Tables_number       1
_symmetry_cell_setting            triclinic
loop_
_symmetry_equiv_pos_as_xyz
'x, y, z'
_cell_length_a     79.898689
_cell_length_b     79.929927
_cell_length_c     51.70185
_cell_angle_alpha  90.255232
_cell_angle_beta   90.309737
_cell_angle_gamma 120.13476
loop_
_atom_site_label
_atom_site_type_symbol
_atom_site_fract_x
_atom_site_fract_y
_atom_site_fract_z
_atom_type_partial_charge
In0 In 0.014 0.38807 0.01309 0.0
O1 O 1.0029 0.39473 0.05015 0.0
O2 O 0.02982 0.41658 0.03536 0.0
C3 C 0.98297 0.35259 0.00317 0.0
C4 C 0.04358 0.3819 0.02502 0.0
C5 C 0.01233 0.40768 0.97164 0.0
O6 O 0.98373 0.36268 0.02247 0.0
O7 O 0.99778 0.36036 0.98915 0.0
O8 O 0.02254 0.39972 0.97208 0.0
O9 O 1.00293 0.40569 0.99201 0.0
C10 C 0.01717 0.41167 0.05268 0.0
O11 O 0.04469 0.39315 0.00724 0.0
O12 O 0.02759 0.37375 0.0366 0.0
In13 In 0.63163 0.63442 0.01288 0.0
O14 O 0.62811 0.62171 0.05333 0.0
O15 O 0.60293 0.61827 0.03417 0.0
C16 C 0.66589 0.63631 0.0028 0.0
C17 C 0.63685 0.67034 0.02164 0.0
C18 C 0.6112 0.61206 0.97221 0.0
O19 O 0.65656 0.62891 0.02321 0.0
O20 O 0.65808 0.64283 0.98783 0.0
O21 O 0.62139 0.63025 0.97081 0.0
O22 O 0.61133 0.60515 0.99404 0.0
C23 C 0.61005 0.61506 0.05409 0.0
O24 O 0.62442 0.65855 0.00584 0.0
O25 O 0.64668 0.6641 0.03272 0.0
In26 In 0.38153 0.00857 0.01099 0.0
O27 O 0.38229 0.03651 0.02385 0.0
O28 O 0.37161 0.02552 0.98623 0.0
C29 C 0.40385 0.01111 0.05216 0.0
C30 C 0.40175 0.00459 0.97192 0.0
C31 C 0.34496 0.97898 0.01765 0.0
O32 O 0.38664 0.99769 0.04911 0.0
O33 O 0.41003 0.02351 0.03442 0.0
O34 O 0.35379 0.9925 0.03387 0.0
O35 O 0.3544 0.9805 0.9974 0.0
C36 C 0.37553 0.03862 0.0028 0.0
O37 O 0.39094 0.99068 0.98643 0.0
O38 O 0.40215 0.02022 0.97706 0.0
In39 In 0.00408 0.62913 0.01534 0.0
O40 O 0.01481 0.62527 0.97632 0.0
O41 O 0.99295 0.60005 0.99481 0.0
C42 C 0.03344 0.66578 0.02425 0.0
C43 C 0.9724 0.63257 0.00612 0.0
C44 C 0.00797 0.60872 0.05403 0.0
O45 O 0.03145 0.65699 0.00316 0.0
O46 O 0.02054 0.65623 0.04064 0.0
O47 O 0.99253 0.60913 0.05025 0.0
O48 O 0.02136 0.61862 0.03835 0.0
C49 C 0.00382 0.60714 0.97548 0.0
O50 O 0.97678 0.62973 0.02849 0.0
O51 O 0.98396 0.63378 0.98883 0.0
In52 In 0.38349 0.38604 0.01501 0.0
O53 O 0.38834 0.40375 0.97816 0.0
O54 O 0.41154 0.40051 0.99235 0.0
C55 C 0.34729 0.37893 0.02541 0.0
C56 C 0.37701 0.34997 0.0046 0.0
C57 C 0.40543 0.40875 0.05471 0.0
O58 O 0.35662 0.38853 0.00596 0.0
O59 O 0.35616 0.37289 0.03929 0.0
O60 O 0.40655 0.39445 0.04655 0.0
O61 O 0.39315 0.41151 0.043 0.0
C62 C 0.40558 0.4075 0.97524 0.0
O63 O 0.38167 0.35751 0.02686 0.0
O64 O 0.37541 0.36048 0.98781 0.0
In65 In 0.63642 0.01358 0.01328 0.0
O66 O 0.62898 0.00686 0.05603 0.0
O67 O 0.62042 0.02503 0.03743 0.0
C68 C 0.67078 0.04621 0.00391 0.0
C69 C 0.64019 0.98192 0.0188 0.0
C70 C 0.61138 0.0078 0.97396 0.0
O71 O 0.6636 0.04199 0.02621 0.0
O72 O 0.66065 0.03416 0.98663 0.0
O73 O 0.62302 1.0015 0.97328 0.0
O74 O 0.61224 0.01676 0.99445 0.0
C75 C 0.62036 0.0164 0.05783 0.0
O76 O 0.62402 0.98114 0.01961 0.0
O77 O 0.65442 0.99861 0.01503 0.0
In78 In 0.68254 0.72151 0.34604 0.0
O79 O 0.66942 0.72805 0.3811 0.0
O80 O 0.69835 0.74868 0.37113 0.0
C81 C 0.65169 0.68586 0.33593 0.0
C82 C 0.71252 0.71576 0.35715 0.0
C83 C 0.68174 0.74222 0.3053 0.0
O84 O 0.66545 0.69476 0.32042 0.0
O85 O 0.65342 0.69489 0.35675 0.0
O86 O 0.69107 0.73334 0.30511 0.0
O87 O 0.67271 0.74055 0.32592 0.0
C88 C 0.68434 0.74412 0.38619 0.0
O89 O 0.71329 0.72698 0.33955 0.0
O90 O 0.69666 0.70741 0.369 0.0
In91 In 0.29691 0.96329 0.34375 0.0
O92 O 0.28946 0.94032 0.37485 0.0
O93 O 0.27279 0.95422 0.37339 0.0
C94 C 0.3328 0.96994 0.33166 0.0
C95 C 0.30364 0.99953 0.35346 0.0
C96 C 0.27411 0.94099 0.30437 0.0
O97 O 0.32625 0.96609 0.35433 0.0
O98 O 0.32139 0.97064 0.31534 0.0
O99 O 0.27816 0.95829 0.30769 0.0
O100 O 0.28149 0.935 0.32093 0.0
C101 C 0.27571 0.9418 0.38422 0.0
O102 O 0.29312 0.9893 0.33487 0.0
O103 O 0.31083 0.99153 0.36696 0.0
In104 In 0.04816 0.34195 0.35149 0.0
O105 O 0.0545 0.37281 0.36069 0.0
O106 O 0.03333 0.35682 0.33207 0.0
C107 C 0.07158 0.34559 0.39182 0.0
C108 C 0.06769 0.3392 0.31068 0.0
C109 C 0.01339 0.30952 0.35977 0.0
O110 O 0.07619 0.34532 0.36862 0.0
O111 O 0.05536 0.34444 0.39469 0.0
O112 O 0.01963 0.31538 0.33732 0.0
O113 O 0.02459 0.31993 0.37763 0.0
C114 C 0.04263 0.37256 0.34434 0.0
O115 O 0.05709 0.32486 0.32473 0.0
O116 O 0.06824 0.35472 0.31715 0.0
In117 In 0.67105 0.96198 0.34927 0.0
O118 O 0.68143 0.95642 0.31095 0.0
O119 O 0.65751 0.9326 0.32897 0.0
C120 C 0.70134 0.99796 0.35898 0.0
C121 C 0.64108 0.96792 0.33901 0.0
C122 C 0.67368 0.94102 0.38816 0.0
O123 O 0.69933 0.98924 0.3378 0.0
O124 O 0.68806 0.98866 0.375 0.0
O125 O 0.65885 0.94257 0.3846 0.0
O126 O 0.68712 0.9501 0.37219 0.0
C127 C 0.66892 0.93863 0.31006 0.0
O128 O 0.64409 0.96356 0.36129 0.0
O129 O 0.65313 0.96935 0.32233 0.0
In130 In 0.05438 0.72195 0.34548 0.0
O131 O 0.05761 0.7378 0.30717 0.0
O132 O 0.08297 0.74108 0.3251 0.0
C133 C 0.01821 0.7165 0.351 0.0
C134 C 0.04945 0.68639 0.33617 0.0
C135 C 0.07405 0.73919 0.38972 0.0
O136 O 0.03321 0.73303 0.35117 0.0
O137 O 0.02137 0.7027 0.34762 0.0
O138 O 0.0778 0.72835 0.37617 0.0
O139 O 0.06015 0.74087 0.38136 0.0
C140 C 0.07574 0.74525 0.30628 0.0
O141 O 0.04982 0.69258 0.35884 0.0
O142 O 0.05134 0.69804 0.31847 0.0
In143 In 0.30515 0.34266 0.34751 0.0
O144 O 0.30059 0.3126 0.33763 0.0
O145 O 0.31867 0.3276 0.36969 0.0
C146 C 0.28428 0.34527 0.30797 0.0
C147 C 0.28197 0.33835 0.38778 0.0
C148 C 0.34052 0.37408 0.33888 0.0
O149 O 0.2923 0.33515 0.30661 0.0
O150 O 0.28694 0.35421 0.3291 0.0
O151 O 0.33075 0.3726 0.3587 0.0
O152 O 0.33255 0.35973 0.32372 0.0
C153 C 0.31107 0.31247 0.35588 0.0
O154 O 0.2988 0.35281 0.3857 0.0
O155 O 0.27701 0.32602 0.36975 0.0
In156 In 0.34544 0.05374 0.67993 0.0
O157 O 0.37307 0.05305 0.66982 0.0
O158 O 0.36034 0.04219 0.70628 0.0
C159 C 0.34531 0.07512 0.63951 0.0
C160 C 0.34636 0.07653 0.71949 0.0
C161 C 0.31535 0.01787 0.66954 0.0
O162 O 0.3606 0.0762 0.64823 0.0
O163 O 0.3301 0.06314 0.65096 0.0
O164 O 0.31571 0.02769 0.68895 0.0
O165 O 0.33018 0.02611 0.65549 0.0
C166 C 0.37387 0.0456 0.69091 0.0
O167 O 0.33217 0.0598 0.71543 0.0
O168 O 0.36003 0.08166 0.70375 0.0
In169 In 0.96774 0.30076 0.67942 0.0
O170 O 0.96389 0.32657 0.66876 0.0
O171 O 0.97988 0.32887 0.70267 0.0
C172 C 0.94644 0.2765 0.64078 0.0
C173 C 0.94575 0.28067 0.72009 0.0
C174 C 0.00313 0.30613 0.66736 0.0
O175 O 0.94903 0.2934 0.64306 0.0
O176 O 0.9547 0.27192 0.65793 0.0
O177 O 0.99493 0.29886 0.68848 0.0
O178 O 0.99362 0.31084 0.65256 0.0
C179 C 0.97324 0.33676 0.68804 0.0
O180 O 0.96381 0.28743 0.71961 0.0
O181 O 0.93884 0.28415 0.70022 0.0
In182 In 0.71398 0.67335 0.68059 0.0
O183 O 0.71339 0.7007 0.69366 0.0
O184 O 0.70892 0.69311 0.65397 0.0
C185 C 0.7355 0.6708 0.71907 0.0
C186 C 0.73573 0.6728 0.64118 0.0
C187 C 0.67775 0.64409 0.69132 0.0
O188 O 0.73469 0.68598 0.71512 0.0
O189 O 0.72543 0.65698 0.70365 0.0
O190 O 0.68547 0.64572 0.66957 0.0
O191 O 0.68812 0.65727 0.70728 0.0
C192 C 0.71025 0.70482 0.67132 0.0
O193 O 0.71753 0.66215 0.64142 0.0
O194 O 0.74289 0.68374 0.66067 0.0
In195 In 0.34041 0.29394 0.67839 0.0
O196 O 0.35635 0.28661 0.64785 0.0
O197 O 0.32582 0.26857 0.65005 0.0
C198 C 0.36969 0.33046 0.68828 0.0
C199 C 0.31049 0.29999 0.66886 0.0
C200 C 0.33988 0.27118 0.71724 0.0
O201 O 0.3658 0.32334 0.66575 0.0
O202 O 0.35873 0.3193 0.70551 0.0
O203 O 0.32554 0.27321 0.71206 0.0
O204 O 0.3543 0.28057 0.70287 0.0
C205 C 0.3413 0.272 0.63913 0.0
O206 O 0.31374 0.2956 0.69101 0.0
O207 O 0.32237 0.30146 0.6518 0.0
In208 In 0.71652 0.05212 0.6815 0.0
O209 O 0.7218 0.06993 0.64461 0.0
O210 O 0.74503 0.0672 0.65985 0.0
C211 C 0.67978 0.04391 0.69079 0.0
C212 C 0.7112 0.01643 0.67123 0.0
C213 C 0.73733 0.075 0.72179 0.0
O214 O 0.68873 0.03807 0.70487 0.0
O215 O 0.68931 0.05388 0.67169 0.0
O216 O 0.73878 0.06076 0.71423 0.0
O217 O 0.72527 0.07761 0.7092 0.0
C218 C 0.73922 0.07409 0.64242 0.0
O219 O 0.71548 0.02398 0.69352 0.0
O220 O 0.70941 0.02676 0.65432 0.0
In221 In 0.97128 0.68113 0.68652 0.0
O222 O 0.96721 0.65139 0.67615 0.0
O223 O 0.98353 0.66547 0.70993 0.0
C224 C 0.95156 0.68489 0.64651 0.0
C225 C 0.94708 0.67624 0.72578 0.0
C226 C 0.00735 0.71126 0.67751 0.0
O227 O 0.95753 0.67296 0.64626 0.0
O228 O 0.95562 0.695 0.66684 0.0
O229 O 0.99756 0.711 0.69675 0.0
O230 O 0.99902 0.69642 0.66327 0.0
C231 C 0.97672 0.65077 0.69533 0.0
O232 O 0.96411 0.69054 0.72486 0.0
O233 O 0.94246 0.66447 0.70711 0.0
H234 H 0.153 0.32748 0.15587 0.0
H235 H 0.15842 0.35053 0.07908 0.0
H236 H 0.12323 0.35774 0.13551 0.0
H237 H 0.164 0.31549 0.11856 0.0
H238 H 0.1682 0.32686 0.08781 0.0
H239 H 0.18612 0.33818 0.15738 0.0
H240 H 0.24564 0.36645 0.13464 0.0
H241 H 0.20103 0.34665 0.07659 0.0
C242 C 0.15016 0.33592 0.14206 0.0
C243 C 0.13751 0.34261 0.14875 0.0
C244 C 0.15812 0.33904 0.11706 0.0
C245 C 0.15307 0.34879 0.09868 0.0
C246 C 0.14053 0.35565 0.10534 0.0
C247 C 0.13319 0.35278 0.13047 0.0
C248 C 0.16984 0.32978 0.10901 0.0
C249 C 0.19108 0.34188 0.11622 0.0
C250 C 0.19691 0.34415 0.14238 0.0
C251 C 0.21662 0.35332 0.14924 0.0
C252 C 0.23048 0.36039 0.1296 0.0
C253 C 0.22508 0.35813 0.10343 0.0
C254 C 0.20531 0.34891 0.09681 0.0
H255 H 0.68397 0.83286 0.14946 0.0
H256 H 0.66284 0.81553 0.07141 0.0
H257 H 0.65344 0.77284 0.12844 0.0
H258 H 0.69726 0.85585 0.11154 0.0
H259 H 0.68496 0.84897 0.08107 0.0
H260 H 0.67058 0.85096 0.15111 0.0
H261 H 0.65097 0.89038 0.1329 0.0
H262 H 0.6726 0.8696 0.07243 0.0
C263 C 0.67563 0.82163 0.13536 0.0
C264 C 0.66768 0.80218 0.14247 0.0
C265 C 0.67319 0.82664 0.11006 0.0
C266 C 0.6639 0.81186 0.09127 0.0
C267 C 0.65674 0.79239 0.09786 0.0
C268 C 0.65837 0.78777 0.12353 0.0
C269 C 0.68268 0.84776 0.10234 0.0
C270 C 0.67155 0.85775 0.11043 0.0
C271 C 0.66736 0.85864 0.13671 0.0
C272 C 0.65984 0.87028 0.14495 0.0
C273 C 0.65635 0.881 0.12659 0.0
C274 C 0.66115 0.88114 0.10053 0.0
C275 C 0.66837 0.86915 0.09241 0.0
H276 H 0.17503 0.8122 0.15384 0.0
H277 H 0.16942 0.79812 0.07251 0.0
H278 H 0.11884 0.77734 0.11963 0.0
H279 H 0.202 0.81223 0.12698 0.0
H280 H 0.20054 0.81226 0.09262 0.0
H281 H 0.2038 0.84051 0.15279 0.0
H282 H 0.23834 0.89515 0.11562 0.0
H283 H 0.21507 0.8426 0.07113 0.0
C284 C 0.16611 0.80617 0.1367 0.0
C285 C 0.14594 0.79519 0.13934 0.0
C286 C 0.17478 0.80781 0.11246 0.0
C287 C 0.16293 0.79804 0.09089 0.0
C288 C 0.14272 0.78715 0.0934 0.0
C289 C 0.13439 0.78631 0.11746 0.0
C290 C 0.19656 0.81716 0.11054 0.0
C291 C 0.20681 0.83904 0.11146 0.0
C292 C 0.20945 0.84875 0.13526 0.0
C293 C 0.22088 0.86898 0.13695 0.0
C294 C 0.22916 0.87954 0.11441 0.0
C295 C 0.22728 0.87015 0.09075 0.0
C296 C 0.21598 0.8499 0.08924 0.0
H297 H 0.37253 0.20581 0.87079 0.0
H298 H 0.38147 0.21949 0.95214 0.0
H299 H 0.34952 0.23861 0.90599 0.0
H300 H 0.40026 0.20671 0.89758 0.0
H301 H 0.39845 0.20566 0.9319 0.0
H302 H 0.37577 0.17875 0.87005 0.0
H303 H 0.35358 0.12329 0.90572 0.0
H304 H 0.38105 0.17483 0.9525 0.0
C305 C 0.36951 0.21155 0.888 0.0
C306 C 0.35969 0.22192 0.88563 0.0
C307 C 0.37695 0.21006 0.91211 0.0
C308 C 0.37475 0.21945 0.93386 0.0
C309 C 0.36483 0.22976 0.9317 0.0
C310 C 0.35678 0.23028 0.90779 0.0
C311 C 0.38972 0.20112 0.91371 0.0
C312 C 0.37832 0.17927 0.91174 0.0
C313 C 0.37237 0.17011 0.88736 0.0
C314 C 0.36354 0.14992 0.88502 0.0
C315 C 0.36008 0.13887 0.90741 0.0
C316 C 0.36656 0.14772 0.93167 0.0
C317 C 0.37551 0.16793 0.93385 0.0
H318 H 0.85701 0.18992 0.87573 0.0
H319 H 0.86333 0.20699 0.95602 0.0
H320 H 0.89063 0.24985 0.89721 0.0
H321 H 0.85423 0.16747 0.91386 0.0
H322 H 0.84998 0.17356 0.94536 0.0
H323 H 0.82991 0.15989 0.87791 0.0
H324 H 0.77108 0.13462 0.90312 0.0
H325 H 0.81756 0.16419 0.9579 0.0
C326 C 0.86219 0.20112 0.89043 0.0
C327 C 0.8736 0.22057 0.88315 0.0
C328 C 0.85809 0.19604 0.91665 0.0
C329 C 0.86578 0.21074 0.93573 0.0
C330 C 0.87725 0.23024 0.9287 0.0
C331 C 0.88088 0.23493 0.90246 0.0
C332 C 0.84772 0.17495 0.9244 0.0
C333 C 0.82626 0.16463 0.91817 0.0
C334 C 0.81962 0.15772 0.89288 0.0
C335 C 0.79971 0.14675 0.88729 0.0
C336 C 0.78648 0.14319 0.90716 0.0
C337 C 0.79275 0.14907 0.93265 0.0
C338 C 0.81267 0.15999 0.93809 0.0
H339 H 0.8357 0.6351 0.86651 0.0
H340 H 0.837 0.62674 0.94866 0.0
H341 H 0.89002 0.65645 0.90632 0.0
H342 H 0.8072 0.60879 0.89065 0.0
H343 H 0.80714 0.60889 0.92508 0.0
H344 H 0.80582 0.63546 0.86616 0.0
H345 H 0.77166 0.65601 0.90379 0.0
H346 H 0.79334 0.6253 0.94742 0.0
C347 C 0.84378 0.63787 0.88443 0.0
C348 C 0.86407 0.64696 0.88373 0.0
C349 C 0.83384 0.63087 0.90793 0.0
C350 C 0.8445 0.63304 0.93077 0.0
C351 C 0.86479 0.64239 0.93027 0.0
C352 C 0.87438 0.64975 0.90687 0.0
C353 C 0.812 0.6185 0.90792 0.0
C354 C 0.80206 0.63038 0.90728 0.0
C355 C 0.79991 0.63786 0.88365 0.0
C356 C 0.78869 0.64686 0.88214 0.0
C357 C 0.78049 0.64923 0.90478 0.0
C358 C 0.78188 0.64131 0.92822 0.0
C359 C 0.79278 0.63199 0.9295 0.0
H360 H 0.82687 0.66944 0.4897 0.0
H361 H 0.82989 0.68798 0.41083 0.0
H362 H 0.79692 0.69894 0.46667 0.0
H363 H 0.83586 0.65471 0.45267 0.0
H364 H 0.84063 0.66563 0.42155 0.0
H365 H 0.85841 0.68077 0.4911 0.0
H366 H 0.91755 0.70269 0.47064 0.0
H367 H 0.87362 0.67987 0.41142 0.0
C368 C 0.82374 0.67721 0.47518 0.0
C369 C 0.81212 0.68517 0.48169 0.0
C370 C 0.83088 0.67877 0.44987 0.0
C371 C 0.82532 0.68752 0.43064 0.0
C372 C 0.81314 0.69493 0.43674 0.0
C373 C 0.80696 0.69394 0.46227 0.0
C374 C 0.84221 0.66887 0.44267 0.0
C375 C 0.86353 0.68035 0.45009 0.0
C376 C 0.86915 0.68453 0.47631 0.0
C377 C 0.88862 0.69271 0.48385 0.0
C378 C 0.90255 0.69678 0.46487 0.0
C379 C 0.89734 0.69188 0.43882 0.0
C380 C 0.87783 0.68409 0.43141 0.0
H381 H 0.35615 0.16516 0.47829 0.0
H382 H 0.33645 0.14763 0.39976 0.0
H383 H 0.32306 0.10491 0.45831 0.0
H384 H 0.37154 0.18727 0.43954 0.0
H385 H 0.35927 0.18091 0.40909 0.0
H386 H 0.35511 0.19325 0.47846 0.0
H387 H 0.32419 0.22224 0.45757 0.0
H388 H 0.33831 0.19321 0.39903 0.0
C389 C 0.34769 0.15391 0.46425 0.0
C390 C 0.33945 0.13445 0.47149 0.0
C391 C 0.3462 0.15888 0.43853 0.0
C392 C 0.33676 0.14402 0.41987 0.0
C393 C 0.32842 0.1245 0.42697 0.0
C394 C 0.32934 0.11996 0.45287 0.0
C395 C 0.35692 0.17988 0.43036 0.0
C396 C 0.34665 0.19071 0.43817 0.0
C397 C 0.34741 0.19665 0.46409 0.0
C398 C 0.33948 0.20818 0.47117 0.0
C399 C 0.33027 0.21327 0.45222 0.0
C400 C 0.33003 0.20826 0.42618 0.0
C401 C 0.33812 0.19681 0.41922 0.0
H402 H 0.84212 0.14239 0.49262 0.0
H403 H 0.8373 0.12931 0.41103 0.0
H404 H 0.78621 0.10814 0.4571 0.0
H405 H 0.86919 0.14225 0.46579 0.0
H406 H 0.86815 0.14312 0.43149 0.0
H407 H 0.87252 0.17017 0.49299 0.0
H408 H 0.90681 0.22546 0.45742 0.0
H409 H 0.88157 0.17388 0.4106 0.0
C410 C 0.83333 0.13653 0.47533 0.0
C411 C 0.8131 0.12548 0.4776 0.0
C412 C 0.84225 0.13849 0.45119 0.0
C413 C 0.83061 0.12902 0.42933 0.0
C414 C 0.81038 0.11815 0.43142 0.0
C415 C 0.8018 0.11703 0.45536 0.0
C416 C 0.86404 0.14769 0.4496 0.0
C417 C 0.87454 0.16956 0.45135 0.0
C418 C 0.87791 0.17877 0.47568 0.0
C419 C 0.88969 0.19892 0.47799 0.0
C420 C 0.89744 0.20992 0.45563 0.0
C421 C 0.8948 0.20107 0.43134 0.0
C422 C 0.88318 0.18085 0.42921 0.0
H423 H 0.04763 0.54383 0.2041 0.0
H424 H 0.0539 0.55536 0.28611 0.0
H425 H 0.02362 0.57582 0.23891 0.0
H426 H 0.0747 0.54445 0.23205 0.0
H427 H 0.07206 0.54279 0.26621 0.0
H428 H 0.05011 0.51656 0.20337 0.0
H429 H 0.03262 0.46114 0.23666 0.0
H430 H 0.05646 0.51156 0.28544 0.0
C431 C 0.04404 0.54909 0.22131 0.0
C432 C 0.03435 0.55958 0.21872 0.0
C433 C 0.05067 0.54693 0.24571 0.0
C434 C 0.04776 0.55579 0.26755 0.0
C435 C 0.03801 0.56625 0.26517 0.0
C436 C 0.03078 0.5674 0.2409 0.0
C437 C 0.06375 0.53833 0.24767 0.0
C438 C 0.05307 0.51648 0.24501 0.0
C439 C 0.04749 0.50772 0.22031 0.0
C440 C 0.04019 0.48776 0.21713 0.0
C441 C 0.03797 0.47652 0.23894 0.0
C442 C 0.04393 0.48499 0.26344 0.0
C443 C 0.0512 0.50492 0.2666 0.0
H444 H 0.52392 0.52296 0.21029 0.0
H445 H 0.53246 0.53914 0.29102 0.0
H446 H 0.55749 0.5827 0.23272 0.0
H447 H 0.52332 0.50053 0.24829 0.0
H448 H 0.51837 0.50588 0.27979 0.0
H449 H 0.49911 0.49202 0.21206 0.0
H450 H 0.43992 0.46433 0.23614 0.0
H451 H 0.48547 0.49526 0.29181 0.0
C452 C 0.52934 0.53397 0.22525 0.0
C453 C 0.5404 0.55353 0.21822 0.0
C454 C 0.526 0.52856 0.25147 0.0
C455 C 0.53417 0.54308 0.27078 0.0
C456 C 0.54524 0.56267 0.26398 0.0
C457 C 0.54804 0.56767 0.2378 0.0
C458 C 0.51619 0.50739 0.25884 0.0
C459 C 0.49477 0.49629 0.25226 0.0
C460 C 0.48855 0.48935 0.22686 0.0
C461 C 0.46878 0.47774 0.22091 0.0
C462 C 0.45521 0.47341 0.24054 0.0
C463 C 0.46103 0.47929 0.26617 0.0
C464 C 0.48086 0.49096 0.27194 0.0
H465 H 0.5115 0.98481 0.19854 0.0
H466 H 0.51193 0.97286 0.2796 0.0
H467 H 0.56524 0.00253 0.23789 0.0
H468 H 0.48249 0.95717 0.222 0.0
H469 H 0.48204 0.95741 0.25639 0.0
H470 H 0.48474 0.98668 0.19776 0.0
H471 H 0.44584 0.00312 0.2304 0.0
H472 H 0.46583 0.97202 0.27646 0.0
C473 C 0.51936 0.98656 0.21637 0.0
C474 C 0.53964 0.99556 0.21573 0.0
C475 C 0.50918 0.97886 0.23951 0.0
C476 C 0.51961 0.97975 0.26205 0.0
C477 C 0.53987 0.98843 0.26155 0.0
C478 C 0.54972 0.99671 0.23856 0.0
C479 C 0.48726 0.96696 0.23919 0.0
C480 C 0.47752 0.97906 0.23778 0.0
C481 C 0.47715 0.98776 0.21432 0.0
C482 C 0.466 0.99675 0.21153 0.0
C483 C 0.4554 0.99727 0.23276 0.0
C484 C 0.45522 0.9884 0.25617 0.0
C485 C 0.46643 0.97943 0.25868 0.0
H486 H 0.48311 0.98777 0.81591 0.0
H487 H 0.48701 0.00931 0.73845 0.0
H488 H 0.45349 0.01821 0.79573 0.0
H489 H 0.49292 0.97476 0.77765 0.0
H490 H 0.49808 0.98686 0.74737 0.0
H491 H 0.51457 0.99514 0.81759 0.0
H492 H 0.57456 0.02486 0.79725 0.0
H493 H 0.53124 0.00745 0.73764 0.0
C494 C 0.48016 0.99607 0.80202 0.0
C495 C 0.4678 0.00306 0.80893 0.0
C496 C 0.48766 0.99869 0.77676 0.0
C497 C 0.48218 0.00804 0.75827 0.0
C498 C 0.46988 0.01514 0.76515 0.0
C499 C 0.46318 0.01294 0.79054 0.0
C500 C 0.49926 0.98929 0.76867 0.0
C501 C 0.52038 1.00084 0.7768 0.0
C502 C 0.52564 1.00186 0.80307 0.0
C503 C 0.54519 0.01086 0.81065 0.0
C504 C 0.5595 0.01885 0.79166 0.0
C505 C 0.55469 0.01772 0.76536 0.0
C506 C 0.53507 0.00877 0.75799 0.0
H507 H 0.01541 0.498 0.81577 0.0
H508 H 0.9995 0.4825 0.73577 0.0
H509 H 0.9863 0.43849 0.79229 0.0
H510 H 0.03193 0.52157 0.77836 0.0
H511 H 0.0207 0.51576 0.7472 0.0
H512 H 0.01061 0.52248 0.81709 0.0
H513 H 0.98433 0.55576 0.79597 0.0
H514 H 1.00201 0.53032 0.73665 0.0
C515 C 0.00805 0.48714 0.80092 0.0
C516 C 0.99984 0.46754 0.80742 0.0
C517 C 0.00739 0.49275 0.77529 0.0
C518 C 0.99922 0.47839 0.75578 0.0
C519 C 0.99146 0.45876 0.76194 0.0
C520 C 0.99154 0.45355 0.78776 0.0
C521 C 0.01764 0.51403 0.76829 0.0
C522 C 0.00657 0.52411 0.77599 0.0
C523 C 0.00481 0.52764 0.80229 0.0
C524 C 0.99636 0.53863 0.80972 0.0
C525 C 0.98977 0.54627 0.79047 0.0
C526 C 0.99172 0.54338 0.76416 0.0
C527 C 1.00004 0.53218 0.75696 0.0
H528 H 0.50673 0.47485 0.82455 0.0
H529 H 0.50281 0.46368 0.74248 0.0
H530 H 0.45128 0.44051 0.78812 0.0
H531 H 0.53457 0.47644 0.79741 0.0
H532 H 0.5337 0.47823 0.76318 0.0
H533 H 0.53532 0.50303 0.82614 0.0
H534 H 0.56843 0.55964 0.79414 0.0
H535 H 0.54763 0.50965 0.74457 0.0
C536 C 0.49813 0.46925 0.80707 0.0
C537 C 0.47792 0.45793 0.80903 0.0
C538 C 0.5073 0.47194 0.78298 0.0
C539 C 0.49591 0.46274 0.76083 0.0
C540 C 0.47567 0.45142 0.76262 0.0
C541 C 0.46685 0.44963 0.78659 0.0
C542 C 0.52917 0.48196 0.78162 0.0
C543 C 0.53885 0.50373 0.7846 0.0
C544 C 0.54087 0.5121 0.80926 0.0
C545 C 0.55111 0.53223 0.81256 0.0
C546 C 0.55955 0.54413 0.79118 0.0
C547 C 0.55869 0.53612 0.76669 0.0
C548 C 0.548 0.5159 0.76336 0.0
H549 H 0.70976 0.87355 0.53843 0.0
H550 H 0.71709 0.88596 0.62023 0.0
H551 H 0.68707 0.90678 0.57323 0.0
H552 H 0.73666 0.87353 0.56614 0.0
H553 H 0.73418 0.8721 0.60036 0.0
H554 H 0.71263 0.84601 0.53771 0.0
H555 H 0.68959 0.7901 0.57238 0.0
H556 H 0.71605 0.84108 0.62029 0.0
C557 C 0.70657 0.8792 0.5556 0.0
C558 C 0.69724 0.89004 0.55302 0.0
C559 C 0.71331 0.87711 0.57995 0.0
C560 C 0.71086 0.88635 0.60173 0.0
C561 C 0.70133 0.89701 0.59934 0.0
C562 C 0.69401 0.89815 0.57517 0.0
C563 C 0.72579 0.86785 0.58189 0.0
C564 C 0.71425 0.84601 0.57946 0.0
C565 C 0.70884 0.83714 0.55484 0.0
C566 C 0.7001 0.81697 0.55211 0.0
C567 C 0.69609 0.80566 0.57435 0.0
C568 C 0.70204 0.8142 0.59889 0.0
C569 C 0.71094 0.83439 0.60143 0.0
H570 H 0.19777 0.85179 0.54624 0.0
H571 H 0.19816 0.87004 0.62497 0.0
H572 H 0.22611 0.91224 0.56552 0.0
H573 H 0.19274 0.83029 0.58551 0.0
H574 H 0.18733 0.83677 0.61602 0.0
H575 H 0.16924 0.8218 0.5478 0.0
H576 H 0.1097 0.79324 0.57055 0.0
H577 H 0.1543 0.82639 0.62656 0.0
C578 C 0.20112 0.86319 0.56023 0.0
C579 C 0.21236 0.88259 0.55269 0.0
C580 C 0.19544 0.85846 0.58621 0.0
C581 C 0.20149 0.87348 0.60471 0.0
C582 C 0.21257 0.89293 0.59728 0.0
C583 C 0.21734 0.89724 0.5712 0.0
C584 C 0.18553 0.83757 0.59479 0.0
C585 C 0.16423 0.82639 0.58762 0.0
C586 C 0.15843 0.81902 0.56229 0.0
C587 C 0.13878 0.8069 0.55611 0.0
C588 C 0.12489 0.80274 0.57522 0.0
C589 C 0.13028 0.80955 0.60064 0.0
C590 C 0.15001 0.82147 0.60678 0.0
H591 H 0.17438 0.30524 0.53192 0.0
H592 H 0.17701 0.30026 0.61465 0.0
H593 H 0.22907 0.32522 0.57002 0.0
H594 H 0.14547 0.28189 0.55809 0.0
H595 H 0.14636 0.28342 0.5925 0.0
H596 H 0.14956 0.31201 0.53262 0.0
H597 H 0.11524 0.33379 0.56612 0.0
H598 H 0.13141 0.29939 0.61195 0.0
C599 C 0.18276 0.30841 0.54963 0.0
C600 C 0.20289 0.31632 0.54819 0.0
C601 C 0.17327 0.30311 0.57366 0.0
C602 C 0.18422 0.30543 0.59628 0.0
C603 C 0.20438 0.31348 0.59498 0.0
C604 C 0.21356 0.31942 0.57106 0.0
C605 C 0.15137 0.29226 0.57464 0.0
C606 C 0.14288 0.30546 0.5731 0.0
C607 C 0.14289 0.31417 0.54948 0.0
C608 C 0.13321 0.32468 0.54701 0.0
C609 C 0.12365 0.32663 0.56843 0.0
C610 C 0.12271 0.31737 0.59176 0.0
C611 C 0.13256 0.307 0.59415 0.0
C612 C 0.03504 0.4435 0.0758 0.0
C613 C 0.01921 0.42459 0.07455 0.0
C614 C 0.03795 0.45549 0.09729 0.0
C615 C 0.02477 0.44834 0.11808 0.0
C616 C 0.00832 0.42955 0.11641 0.0
C617 C 0.00572 0.4179 0.09463 0.0
C618 C 0.05561 0.47547 0.09827 0.0
C619 C 0.99397 0.42137 0.13821 0.0
C620 C 0.0442 0.46635 0.18562 0.0
C621 C 0.03697 0.47875 0.19103 0.0
C622 C 0.0405 0.45663 0.16187 0.0
C623 C 0.02942 0.45947 0.1428 0.0
C624 C 0.0226 0.47248 0.14772 0.0
C625 C 0.02648 0.48202 0.17185 0.0
C626 C 0.0482 0.44302 0.15739 0.0
C627 C 0.01088 0.47598 0.12775 0.0
H628 H 0.04544 0.44882 0.06022 0.0
H629 H 0.9934 0.40334 0.09369 0.0
H630 H 0.05156 0.48635 0.104 0.0
H631 H 0.06592 0.4759 0.11309 0.0
H632 H 0.06315 0.4797 0.07939 0.0
H633 H 0.98102 0.40732 0.1329 0.0
H634 H 1.001 0.41914 0.15537 0.0
H635 H 0.98919 0.4317 0.14394 0.0
H636 H 0.05275 0.46417 0.20014 0.0
H637 H 0.02092 0.49163 0.17595 0.0
H638 H 0.05743 0.44741 0.13996 0.0
H639 H 0.036 0.42814 0.15384 0.0
H640 H 0.05683 0.44269 0.17409 0.0
H641 H 0.01863 0.48009 0.10905 0.0
H642 H 0.00783 0.48753 0.13384 0.0
H643 H 0.99691 0.46244 0.12433 0.0
C644 C 0.60691 0.60571 0.10057 0.0
C645 C 0.59815 0.60433 0.07651 0.0
C646 C 0.59576 0.59607 0.12222 0.0
C647 C 0.57539 0.58441 0.1196 0.0
C648 C 0.56651 0.58258 0.09517 0.0
C649 C 0.57799 0.59275 0.07396 0.0
C650 C 0.60575 0.59867 0.14804 0.0
C651 C 0.54491 0.56996 0.09148 0.0
C652 C 0.55188 0.54918 0.17483 0.0
C653 C 0.54598 0.55946 0.19088 0.0
C654 C 0.56042 0.55657 0.15075 0.0
C655 C 0.56346 0.57481 0.14276 0.0
C656 C 0.55653 0.58469 0.15816 0.0
C657 C 0.54765 0.57677 0.18182 0.0
C658 C 0.56717 0.54536 0.13455 0.0
C659 C 0.55957 0.60423 0.15046 0.0
H660 H 0.62248 0.61468 0.10261 0.0
H661 H 0.57119 0.59152 0.0553 0.0
H662 H 0.6001 0.60501 0.16227 0.0
H663 H 0.60263 0.58443 0.15559 0.0
H664 H 0.62169 0.60823 0.14681 0.0
H665 H 0.54039 0.56923 0.07095 0.0
H666 H 0.54011 0.55508 0.09822 0.0
H667 H 0.53729 0.57563 0.10333 0.0
H668 H 0.55079 0.53587 0.18163 0.0
H669 H 0.54275 0.5846 0.19382 0.0
H670 H 0.5832 0.55274 0.1352 0.0
H671 H 0.56277 0.54482 0.11404 0.0
H672 H 0.5613 0.53033 0.14155 0.0
H673 H 0.57528 0.615 0.15076 0.0
H674 H 0.55213 0.60937 0.16364 0.0
H675 H 0.55423 0.60367 0.13046 0.0
C676 C 0.4066 1.00071 0.09644 0.0
C677 C 0.41569 0.0119 0.07466 0.0
C678 C 0.4174 1.00057 0.11777 0.0
C679 C 0.43787 0.01165 0.11713 0.0
C680 C 0.44717 0.02313 0.09527 0.0
C681 C 0.43593 0.02326 0.07432 0.0
C682 C 0.40688 0.98837 0.14088 0.0
C683 C 0.46895 0.03487 0.09377 0.0
C684 C 0.46066 0.01936 0.18371 0.0
C685 C 0.46297 0.00312 0.18575 0.0
C686 C 0.45369 0.02314 0.1608 0.0
C687 C 0.44926 0.01057 0.13926 0.0
C688 C 0.45324 0.99522 0.14043 0.0
C689 C 0.45989 0.99157 0.16371 0.0
C690 C 0.4496 0.03964 0.16039 0.0
C691 C 0.44904 0.98169 0.11773 0.0
H692 H 0.39094 0.99201 0.09684 0.0
H693 H 0.44299 0.03186 0.05742 0.0
H694 H 0.41073 0.97694 0.14359 0.0
H695 H 0.41138 0.99744 0.1587 0.0
H696 H 0.39091 0.98132 0.13877 0.0
H697 H 0.47393 0.0437 0.07593 0.0
H698 H 0.47496 0.04463 0.11082 0.0
H699 H 0.47502 0.02506 0.09413 0.0
H700 H 0.46339 0.0286 0.20048 0.0
H701 H 0.46144 0.97889 0.16502 0.0
H702 H 0.43373 0.03374 0.161 0.0
H703 H 0.45495 0.04802 0.14229 0.0
H704 H 0.45634 0.04963 0.17714 0.0
H705 H 0.43317 0.97203 0.11562 0.0
H706 H 0.45578 0.97255 0.12022 0.0
H707 H 0.45437 0.98993 0.09951 0.0
C708 C 0.41283 0.98556 0.94555 0.0
C709 C 0.41285 0.00286 0.95027 0.0
C710 C 0.42277 0.98374 0.92431 0.0
C711 C 0.43277 0.99954 0.90735 0.0
C712 C 0.43323 0.01719 0.91248 0.0
C713 C 0.42333 0.01864 0.93389 0.0
C714 C 0.42209 0.96476 0.91959 0.0
C715 C 0.4436 0.03436 0.89481 0.0
C716 C 0.46958 0.00384 0.85752 0.0
C717 C 0.45854 0.99926 0.83471 0.0
C718 C 0.46115 0.00293 0.8817 0.0
C719 C 0.44128 0.99731 0.88292 0.0
C720 C 0.42988 0.99148 0.86006 0.0
C721 C 0.43863 0.99247 0.83629 0.0
C722 C 0.47373 0.00904 0.90569 0.0
C723 C 0.40864 0.98533 0.86043 0.0
H724 H 0.40487 0.97336 0.95826 0.0
H725 H 0.42348 0.03208 0.93748 0.0
H726 H 0.41356 0.95781 0.90177 0.0
H727 H 0.43689 0.96724 0.9165 0.0
H728 H 0.41542 0.95459 0.93593 0.0
H729 H 0.44349 0.04735 0.90229 0.0
H730 H 0.45885 0.03803 0.89226 0.0
H731 H 0.43659 0.03069 0.87541 0.0
H732 H 0.48497 0.00904 0.85635 0.0
H733 H 0.42998 0.98852 0.8187 0.0
H734 H 0.46644 0.99858 0.92152 0.0
H735 H 0.47622 0.02331 0.91247 0.0
H736 H 0.48801 0.01028 0.9021 0.0
H737 H 0.40098 0.97401 0.87518 0.0
H738 H 0.40148 0.97965 0.84136 0.0
H739 H 0.407 0.99788 0.86578 0.0
C740 C 0.01744 0.41573 0.92472 0.0
C741 C 0.01122 0.41826 0.94895 0.0
C742 C 0.01572 0.42504 0.90278 0.0
C743 C 0.00795 0.43748 0.90526 0.0
C744 C 1.00215 0.4405 0.92983 0.0
C745 C 0.00366 0.43067 0.95137 0.0
C746 C 0.02176 0.4212 0.87682 0.0
C747 C 0.99417 0.45394 0.93332 0.0
C748 C 0.01828 0.47147 0.84878 0.0
C749 C 1.00114 0.4614 0.83416 0.0
C750 C 0.02039 0.46434 0.87263 0.0
C751 C 0.00513 0.44656 0.88184 0.0
C752 C 0.98753 0.43676 0.86773 0.0
C753 C 0.98568 0.44441 0.84425 0.0
C754 C 0.03923 0.47541 0.88742 0.0
C755 C 0.97095 0.41769 0.87678 0.0
H756 H 0.02323 0.4061 0.92279 0.0
H757 H 0.99898 0.43277 0.97014 0.0
H758 H 0.00914 0.41463 0.86341 0.0
H759 H 0.03286 0.43498 0.86813 0.0
H760 H 0.02774 0.41133 0.87825 0.0
H761 H 0.99148 0.45565 0.95395 0.0
H762 H 0.0044 0.4684 0.9254 0.0
H763 H 0.98037 0.44829 0.92239 0.0
H764 H 0.03038 0.48451 0.84111 0.0
H765 H 0.97224 0.43675 0.83337 0.0
H766 H 0.04709 0.46727 0.88687 0.0
H767 H 0.03646 0.47703 0.90803 0.0
H768 H 0.04873 0.49001 0.87926 0.0
H769 H 0.97548 0.40664 0.87699 0.0
H770 H 0.95793 0.41235 0.86417 0.0
H771 H 0.96694 0.41912 0.89684 0.0
C772 C 0.60641 0.60616 0.92468 0.0
C773 C 0.60031 0.59977 0.94988 0.0
C774 C 0.59685 0.59423 0.90327 0.0
C775 C 0.58045 0.5757 0.90718 0.0
C776 C 0.57385 0.56945 0.93261 0.0
C777 C 0.58407 0.58146 0.95371 0.0
C778 C 0.60465 0.60124 0.8765 0.0
C779 C 0.5561 0.55005 0.9375 0.0
C780 C 0.54957 0.55345 0.8469 0.0
C781 C 0.55605 0.541 0.83864 0.0
C782 C 0.55657 0.56406 0.87006 0.0
C783 C 0.57085 0.56261 0.88466 0.0
C784 C 0.57701 0.54961 0.87663 0.0
C785 C 0.56935 0.53879 0.85382 0.0
C786 C 0.54925 0.57736 0.87836 0.0
C787 C 0.59252 0.54796 0.89129 0.0
H788 H 0.61904 0.62029 0.92173 0.0
H789 H 0.57925 0.57658 0.97323 0.0
H790 H 0.60866 0.59118 0.86733 0.0
H791 H 0.59334 0.60138 0.86413 0.0
H792 H 0.61756 0.616 0.8768 0.0
H793 H 0.55205 0.54795 0.95824 0.0
H794 H 0.54368 0.54858 0.92596 0.0
H795 H 0.55873 0.53828 0.93122 0.0
H796 H 0.53936 0.55518 0.83493 0.0
H797 H 0.57453 0.52934 0.84706 0.0
H798 H 0.56089 0.59263 0.87619 0.0
H799 H 0.5452 0.57515 0.89908 0.0
H800 H 0.53652 0.57503 0.86672 0.0
H801 H 0.6063 0.56199 0.89067 0.0
H802 H 0.59504 0.53654 0.88313 0.0
H803 H 0.58852 0.54469 0.91191 0.0
C804 C 0.01069 0.60407 0.92934 0.0
C805 C 0.0032 0.59528 0.95315 0.0
C806 C 0.0093 0.59297 0.9075 0.0
C807 C 1.0006 0.57263 0.90969 0.0
C808 C 0.99358 0.56373 0.93391 0.0
C809 C 0.99475 0.57516 0.95533 0.0
C810 C 0.01668 0.60298 0.88191 0.0
C811 C 0.98465 0.54216 0.93711 0.0
C812 C 0.98038 0.54546 0.84659 0.0
C813 C 0.99609 0.54405 0.83725 0.0
C814 C 0.9813 0.55396 0.87071 0.0
C815 C 0.99817 0.56077 0.88622 0.0
C816 C 0.01343 0.55796 0.87788 0.0
C817 C 0.01231 0.54981 0.85337 0.0
C818 C 0.96476 0.55681 0.87879 0.0
C819 C 0.03145 0.56461 0.89417 0.0
H820 H 0.01717 0.61961 0.92759 0.0
H821 H 0.98908 0.56836 0.97381 0.0
H822 H 0.02776 0.59987 0.87419 0.0
H823 H 0.00462 0.59737 0.86759 0.0
H824 H 0.02314 0.61892 0.88353 0.0
H825 H 0.98117 0.53768 0.9576 0.0
H826 H 0.97114 0.53449 0.92544 0.0
H827 H 0.99465 0.53739 0.92985 0.0
H828 H 0.96761 0.54064 0.83451 0.0
H829 H 0.02459 0.54892 0.84634 0.0
H830 H 0.96965 0.57249 0.87903 0.0
H831 H 0.96006 0.55136 0.89865 0.0
H832 H 0.95209 0.54937 0.86551 0.0
H833 H 0.04021 0.58063 0.89395 0.0
H834 H 0.04053 0.55871 0.88691 0.0
H835 H 0.02762 0.56017 0.91458 0.0
C836 C 0.41019 0.4251 0.93354 0.0
C837 C 0.41758 0.41829 0.95288 0.0
C838 C 0.42089 0.4338 0.91115 0.0
C839 C 0.43936 0.43564 0.90805 0.0
C840 C 0.44722 0.42959 0.92807 0.0
C841 C 0.43625 0.42101 0.95025 0.0
C842 C 0.41205 0.44015 0.89029 0.0
C843 C 0.46682 0.43125 0.9255 0.0
C844 C 0.45495 0.43317 0.83975 0.0
C845 C 0.46837 0.45261 0.83464 0.0
C846 C 0.44542 0.42757 0.86349 0.0
C847 C 0.44941 0.44174 0.88276 0.0
C848 C 0.46309 0.46141 0.8779 0.0
C849 C 0.4725 0.46662 0.85387 0.0
C850 C 0.43113 0.40641 0.86794 0.0
C851 C 0.46767 0.4769 0.898 0.0
H852 H 0.39582 0.42314 0.93555 0.0
H853 H 0.4421 0.41589 0.96521 0.0
H854 H 0.42251 0.45507 0.88403 0.0
H855 H 0.4085 0.43053 0.87313 0.0
H856 H 0.3986 0.43971 0.89681 0.0
H857 H 0.47169 0.42772 0.94379 0.0
H858 H 0.46616 0.42119 0.91014 0.0
H859 H 0.47781 0.44609 0.91965 0.0
H860 H 0.45202 0.42222 0.82516 0.0
H861 H 0.48287 0.48165 0.84997 0.0
H862 H 0.4167 0.40444 0.8725 0.0
H863 H 0.43581 0.40117 0.88479 0.0
H864 H 0.4296 0.39724 0.85087 0.0
H865 H 0.45431 0.47711 0.90309 0.0
H866 H 0.47866 0.49151 0.89123 0.0
H867 H 0.47313 0.47365 0.91596 0.0
C868 C 0.58441 0.0112 0.955 0.0
C869 C 0.59863 0.00598 0.95199 0.0
C870 C 0.57324 0.01105 0.93384 0.0
C871 C 0.57661 0.00583 0.90903 0.0
C872 C 0.59056 0.99999 0.90605 0.0
C873 C 0.60131 1.0 0.92762 0.0
C874 C 0.55828 0.01705 0.93787 0.0
C875 C 0.59469 0.99447 0.87987 0.0
C876 C 0.54189 0.99324 0.85212 0.0
C877 C 0.55105 0.01043 0.83788 0.0
C878 C 0.54946 0.9918 0.87607 0.0
C879 C 0.56668 0.00784 0.88581 0.0
C880 C 0.57533 0.02553 0.87222 0.0
C881 C 0.56733 0.02664 0.84855 0.0
C882 C 0.53963 0.9728 0.89023 0.0
C883 C 0.59369 0.04299 0.88192 0.0
H884 H 0.58219 0.01571 0.97387 0.0
H885 H 0.61229 0.99596 0.9252 0.0
H886 H 0.56292 0.031 0.92806 0.0
H887 H 0.54423 0.0062 0.92911 0.0
H888 H 0.55606 0.01878 0.95868 0.0
H889 H 0.60533 0.98941 0.88103 0.0
H890 H 0.58114 0.98284 0.87093 0.0
H891 H 0.60048 0.00712 0.86683 0.0
H892 H 0.52939 0.98061 0.84395 0.0
H893 H 0.57427 0.04005 0.83783 0.0
H894 H 0.53805 0.97518 0.91102 0.0
H895 H 0.54865 0.96588 0.88905 0.0
H896 H 0.5251 0.96264 0.88197 0.0
H897 H 0.59193 0.04641 0.90219 0.0
H898 H 0.5979 0.05599 0.86991 0.0
H899 H 0.6057 0.03981 0.88176 0.0
C900 C 0.60988 0.00614 0.10328 0.0
C901 C 0.60968 0.01619 0.08125 0.0
C902 C 0.59852 0.00438 0.12483 0.0
C903 C 0.5866 0.01283 0.1243 0.0
C904 C 0.58672 0.02343 0.10237 0.0
C905 C 0.5983 0.02501 0.08111 0.0
C906 C 0.59889 0.99307 0.14793 0.0
C907 C 0.57421 0.03261 0.10108 0.0
C908 C 0.54347 0.98927 0.16918 0.0
C909 C 0.55036 1.00155 0.19089 0.0
C910 C 0.55479 0.99325 0.14691 0.0
C911 C 0.5735 0.00985 0.14637 0.0
C912 C 0.58016 0.0228 0.16771 0.0
C913 C 0.56849 0.01852 0.18968 0.0
C914 C 0.54711 0.97913 0.12447 0.0
C915 C 0.59998 0.0407 0.16785 0.0
H916 H 0.61866 0.99931 0.10352 0.0
H917 H 0.59805 0.03277 0.06411 0.0
H918 H 0.60252 0.00206 0.16574 0.0
H919 H 0.58435 0.98021 0.15068 0.0
H920 H 0.60955 0.98811 0.14574 0.0
H921 H 0.57678 0.04129 0.08328 0.0
H922 H 0.55872 0.0212 0.10152 0.0
H923 H 0.57699 0.04212 0.11817 0.0
H924 H 0.52961 0.976 0.17003 0.0
H925 H 0.5738 0.02819 0.20629 0.0
H926 H 0.55575 0.97183 0.12256 0.0
H927 H 0.54855 0.98687 0.10613 0.0
H928 H 0.53168 0.9679 0.12695 0.0
H929 H 0.61122 0.03643 0.16811 0.0
H930 H 0.6023 0.05016 0.1849 0.0
H931 H 0.60209 0.04918 0.15001 0.0
C932 C 0.99609 0.58919 0.09442 0.0
C933 C 0.01049 0.59813 0.07569 0.0
C934 C 0.99908 0.58061 0.11627 0.0
C935 C 0.01686 0.58093 0.11939 0.0
C936 C 0.03104 0.58904 0.09986 0.0
C937 C 0.02771 0.59761 0.07828 0.0
C938 C 0.98363 0.57216 0.13671 0.0
C939 C 0.05014 0.58959 0.10237 0.0
C940 C 0.03479 0.58383 0.1881 0.0
C941 C 0.03014 0.56471 0.19283 0.0
C942 C 0.03054 0.58919 0.16432 0.0
C943 C 0.02162 0.57514 0.14447 0.0
C944 C 0.0173 0.55588 0.14877 0.0
C945 C 0.02163 0.55087 0.17297 0.0
C946 C 0.03552 0.60993 0.16054 0.0
C947 C 0.00793 0.54056 0.12796 0.0
H948 H 0.98271 0.58945 0.09244 0.0
H949 H 0.03883 0.60434 0.06374 0.0
H950 H 0.98065 0.55751 0.14215 0.0
H951 H 0.98879 0.58136 0.15438 0.0
H952 H 0.96989 0.57116 0.13016 0.0
H953 H 0.05857 0.5942 0.08419 0.0
H954 H 0.05893 0.59987 0.11802 0.0
H955 H 0.04779 0.57515 0.10777 0.0
H956 H 0.04188 0.59475 0.20309 0.0
H957 H 0.01807 0.53609 0.1765 0.0
H958 H 0.02224 0.61046 0.15575 0.0
H959 H 0.04558 0.61634 0.14408 0.0
H960 H 0.04237 0.61905 0.17801 0.0
H961 H 0.99341 0.53835 0.12311 0.0
H962 H 0.00631 0.52649 0.13395 0.0
H963 H 0.01665 0.54535 0.11005 0.0
C964 C 0.41214 0.43341 0.08909 0.0
C965 C 0.41719 0.42097 0.07668 0.0
C966 C 0.42228 0.44404 0.11115 0.0
C967 C 0.43805 0.44243 0.12074 0.0
C968 C 0.44379 0.4306 0.1075 0.0
C969 C 0.43316 0.41985 0.08576 0.0
C970 C 0.41551 0.45625 0.12493 0.0
C971 C 0.46072 0.42876 0.11685 0.0
C972 C 0.47001 0.47908 0.17218 0.0
C973 C 0.46203 0.46862 0.19491 0.0
C974 C 0.46274 0.47062 0.14774 0.0
C975 C 0.44705 0.45136 0.14611 0.0
C976 C 0.43933 0.44061 0.16897 0.0
C977 C 0.44707 0.44927 0.19298 0.0
C978 C 0.47157 0.48238 0.12373 0.0
C979 C 0.42256 0.42006 0.16815 0.0
H980 H 0.39981 0.43433 0.08211 0.0
H981 H 0.43724 0.4104 0.07603 0.0
H982 H 0.40983 0.45003 0.14424 0.0
H983 H 0.42778 0.47114 0.12811 0.0
H984 H 0.40393 0.45706 0.114 0.0
H985 H 0.46476 0.4209 0.10273 0.0
H986 H 0.4735 0.44327 0.12055 0.0
H987 H 0.45702 0.42082 0.13541 0.0
H988 H 0.48159 0.49401 0.17351 0.0
H989 H 0.44123 0.44085 0.21039 0.0
H990 H 0.46083 0.4851 0.1138 0.0
H991 H 0.47551 0.47424 0.10999 0.0
H992 H 0.48468 0.49653 0.12817 0.0
H993 H 0.40985 0.41965 0.15872 0.0
H994 H 0.41828 0.4137 0.18773 0.0
H995 H 0.42638 0.41081 0.15644 0.0
C996 C 0.70223 0.77447 0.41254 0.0
C997 C 0.6855 0.75647 0.40834 0.0
C998 C 0.70405 0.7858 0.43436 0.0
C999 C 0.68883 0.77891 0.45247 0.0
C1000 C 0.67159 0.76111 0.44778 0.0
C1001 C 0.67013 0.7501 0.42573 0.0
C1002 C 0.72263 0.80474 0.4386 0.0
C1003 C 0.65506 0.75323 0.46668 0.0
C1004 C 0.70281 0.79371 0.52248 0.0
C1005 C 0.69732 0.80769 0.52622 0.0
C1006 C 0.70006 0.78429 0.49864 0.0
C1007 C 0.69184 0.78912 0.47772 0.0
C1008 C 0.6866 0.80351 0.48109 0.0
C1009 C 0.68941 0.81266 0.50536 0.0
C1010 C 0.70593 0.76911 0.4959 0.0
C1011 C 0.67791 0.80911 0.45915 0.0
H1012 H 0.7141 0.77954 0.39904 0.0
H1013 H 0.65711 0.73626 0.42251 0.0
H1014 H 0.71948 0.81644 0.44326 0.0
H1015 H 0.73064 0.80344 0.45534 0.0
H1016 H 0.73216 0.80905 0.42142 0.0
H1017 H 0.64199 0.74018 0.45902 0.0
H1018 H 0.65958 0.74933 0.48495 0.0
H1019 H 0.65119 0.76439 0.47148 0.0
H1020 H 0.70944 0.79017 0.53828 0.0
H1021 H 0.68518 0.82347 0.50813 0.0
H1022 H 0.71696 0.77333 0.48055 0.0
H1023 H 0.69325 0.75508 0.48997 0.0
H1024 H 0.71198 0.76695 0.51415 0.0
H1025 H 0.68772 0.8138 0.44227 0.0
H1026 H 0.67517 0.82096 0.46468 0.0
H1027 H 0.66404 0.79638 0.45284 0.0
C1028 C 0.25223 0.93546 0.41972 0.0
C1029 C 0.26422 0.93026 0.40648 0.0
C1030 C 0.24229 0.92553 0.44198 0.0
C1031 C 0.24414 0.90982 0.45097 0.0
C1032 C 0.25547 0.90389 0.43691 0.0
C1033 C 0.26553 0.91431 0.41496 0.0
C1034 C 0.23061 0.9325 0.45661 0.0
C1035 C 0.25755 0.88702 0.44562 0.0
C1036 C 0.24001 0.90256 0.52344 0.0
C1037 C 0.22063 0.88796 0.52628 0.0
C1038 C 0.24786 0.90946 0.49903 0.0
C1039 C 0.23621 0.90126 0.47668 0.0
C1040 C 0.21694 0.88576 0.47923 0.0
C1041 C 0.20932 0.87932 0.50407 0.0
C1042 C 0.26847 0.92602 0.49729 0.0
C1043 C 0.20422 0.87639 0.45579 0.0
H1044 H 0.25113 0.94775 0.4132 0.0
H1045 H 0.27462 0.91009 0.4046 0.0
H1046 H 0.21582 0.9203 0.46024 0.0
H1047 H 0.23752 0.9384 0.47572 0.0
H1048 H 0.22944 0.94396 0.44606 0.0
H1049 H 0.26472 0.88268 0.43084 0.0
H1050 H 0.26629 0.89096 0.4637 0.0
H1051 H 0.24316 0.87438 0.44995 0.0
H1052 H 0.24905 0.9089 0.54048 0.0
H1053 H 0.19438 0.86796 0.50613 0.0
H1054 H 0.26865 0.93868 0.48827 0.0
H1055 H 0.27708 0.92188 0.48481 0.0
H1056 H 0.27569 0.93051 0.51653 0.0
H1057 H 0.2008 0.8868 0.44645 0.0
H1058 H 0.19041 0.8632 0.46084 0.0
H1059 H 0.21191 0.87246 0.44135 0.0
C1060 C 0.07536 0.34023 0.43843 0.0
C1061 C 0.08352 0.34574 0.41384 0.0
C1062 C 0.08584 0.33847 0.45904 0.0
C1063 C 0.10511 0.3427 0.45508 0.0
C1064 C 0.11372 0.34905 0.43055 0.0
C1065 C 0.10273 0.3503 0.41011 0.0
C1066 C 0.07604 0.33139 0.48482 0.0
C1067 C 0.13435 0.35412 0.42576 0.0
C1068 C 0.13256 0.34928 0.51791 0.0
C1069 C 0.12993 0.33073 0.52133 0.0
C1070 C 0.12575 0.35387 0.49547 0.0
C1071 C 0.11572 0.3394 0.47637 0.0
C1072 C 0.11403 0.32099 0.47911 0.0
C1073 C 0.1213 0.31693 0.50149 0.0
C1074 C 0.12827 0.37381 0.49298 0.0
C1075 C 0.10324 0.30508 0.45936 0.0
H1076 H 0.06049 0.33662 0.44137 0.0
H1077 H 0.10913 0.35467 0.39113 0.0
H1078 H 0.07535 0.31756 0.48975 0.0
H1079 H 0.08454 0.34199 0.5003 0.0
H1080 H 0.0611 0.32904 0.48483 0.0
H1081 H 0.13944 0.36048 0.40633 0.0
H1082 H 0.14412 0.36456 0.44064 0.0
H1083 H 0.13558 0.34094 0.42733 0.0
H1084 H 0.13926 0.35996 0.53326 0.0
H1085 H 0.11902 0.30249 0.50427 0.0
H1086 H 0.11416 0.37303 0.49605 0.0
H1087 H 0.13319 0.37954 0.47326 0.0
H1088 H 0.13885 0.38415 0.50733 0.0
H1089 H 0.08764 0.30055 0.45969 0.0
H1090 H 0.10471 0.29221 0.46316 0.0
H1091 H 0.10855 0.31035 0.43961 0.0
C1092 C 0.08925 0.35434 0.27286 0.0
C1093 C 0.07888 0.33816 0.28862 0.0
C1094 C 0.0996 0.35363 0.25147 0.0
C1095 C 0.0997 0.33633 0.24576 0.0
C1096 C 0.08967 0.32008 0.262 0.0
C1097 C 0.0793 0.32116 0.28321 0.0
C1098 C 0.10997 0.37124 0.23455 0.0
C1099 C 0.08955 0.30145 0.25661 0.0
C1100 C 0.1076 0.33102 0.17482 0.0
C1101 C 0.1276 0.33816 0.1741 0.0
C1102 C 0.09818 0.32942 0.19822 0.0
C1103 C 0.109 0.33497 0.22157 0.0
C1104 C 0.12899 0.34099 0.22118 0.0
C1105 C 0.13809 0.34251 0.19736 0.0
C1106 C 0.07684 0.32285 0.1977 0.0
C1107 C 0.14097 0.34683 0.24572 0.0
H1108 H 0.08904 0.36754 0.27698 0.0
H1109 H 0.07142 0.30865 0.29546 0.0
H1110 H 0.1254 0.37541 0.23257 0.0
H1111 H 0.10343 0.36785 0.21486 0.0
H1112 H 0.10925 0.38384 0.24234 0.0
H1113 H 0.08246 0.29071 0.27225 0.0
H1114 H 0.08175 0.29499 0.23817 0.0
H1115 H 0.10457 0.30432 0.25434 0.0
H1116 H 0.09938 0.32727 0.15686 0.0
H1117 H 0.15355 0.34799 0.19684 0.0
H1118 H 0.07476 0.3351 0.20328 0.0
H1119 H 0.06898 0.31116 0.21192 0.0
H1120 H 0.07022 0.31752 0.17828 0.0
H1121 H 0.1428 0.36075 0.25297 0.0
H1122 H 0.15554 0.34865 0.24264 0.0
H1123 H 0.13351 0.33591 0.261 0.0
C1124 C 0.68664 0.75049 0.25845 0.0
C1125 C 0.6811 0.75336 0.28297 0.0
C1126 C 0.68512 0.76016 0.23677 0.0
C1127 C 0.67826 0.7733 0.23982 0.0
C1128 C 0.67331 0.77679 0.26472 0.0
C1129 C 0.67459 0.76659 0.28598 0.0
C1130 C 0.69023 0.7558 0.21047 0.0
C1131 C 0.66633 0.79099 0.26881 0.0
C1132 C 0.68753 0.80649 0.18259 0.0
C1133 C 0.66985 0.79651 0.16913 0.0
C1134 C 0.69023 0.79964 0.20636 0.0
C1135 C 0.67499 0.78227 0.21662 0.0
C1136 C 0.65688 0.77265 0.20368 0.0
C1137 C 0.65447 0.78001 0.1803 0.0
C1138 C 0.70962 0.81052 0.2199 0.0
C1139 C 0.64028 0.75403 0.21387 0.0
H1140 H 0.69166 0.74024 0.25606 0.0
H1141 H 0.67046 0.76897 0.30499 0.0
H1142 H 0.67721 0.74931 0.19775 0.0
H1143 H 0.70126 0.76936 0.20122 0.0
H1144 H 0.69591 0.74566 0.21152 0.0
H1145 H 0.66475 0.79334 0.28964 0.0
H1146 H 0.67655 0.80511 0.26001 0.0
H1147 H 0.65211 0.78557 0.25908 0.0
H1148 H 0.69953 0.81918 0.17409 0.0
H1149 H 0.64063 0.77247 0.17031 0.0
H1150 H 0.7171 0.80202 0.21874 0.0
H1151 H 0.7077 0.81255 0.2407 0.0
H1152 H 0.71908 0.82493 0.21118 0.0
H1153 H 0.64435 0.74265 0.21393 0.0
H1154 H 0.62688 0.74879 0.20207 0.0
H1155 H 0.63709 0.75604 0.23412 0.0
C1156 C 0.25549 0.93653 0.26335 0.0
C1157 C 0.26268 0.92902 0.282 0.0
C1158 C 0.2463 0.92597 0.24078 0.0
C1159 C 0.24434 0.90753 0.23677 0.0
C1160 C 0.25072 0.8995 0.25614 0.0
C1161 C 0.2598 0.91034 0.27854 0.0
C1162 C 0.2396 0.93499 0.22063 0.0
C1163 C 0.24895 0.87991 0.2526 0.0
C1164 C 0.21266 0.87477 0.18183 0.0
C1165 C 0.22643 0.87895 0.16251 0.0
C1166 C 0.21816 0.88408 0.20612 0.0
C1167 C 0.23789 0.89773 0.21113 0.0
C1168 C 0.25182 0.90189 0.19169 0.0
C1169 C 0.24592 0.89245 0.1677 0.0
C1170 C 0.20292 0.87933 0.22638 0.0
C1171 C 0.27304 0.91617 0.19631 0.0
H1172 H 0.25757 0.95091 0.26601 0.0
H1173 H 0.26522 0.9044 0.29297 0.0
H1174 H 0.24901 0.93877 0.20339 0.0
H1175 H 0.22461 0.92456 0.21421 0.0
H1176 H 0.24008 0.94832 0.22791 0.0
H1177 H 0.25268 0.87485 0.27055 0.0
H1178 H 0.23402 0.869 0.24656 0.0
H1179 H 0.25881 0.88067 0.23703 0.0
H1180 H 0.19758 0.86433 0.17788 0.0
H1181 H 0.25671 0.8954 0.15307 0.0
H1182 H 0.2028 0.89265 0.23219 0.0
H1183 H 0.20638 0.87369 0.24395 0.0
H1184 H 0.18821 0.86843 0.21942 0.0
H1185 H 0.27505 0.93052 0.20169 0.0
H1186 H 0.28197 0.91793 0.17903 0.0
H1187 H 0.27854 0.9113 0.21267 0.0
C1188 C 0.65694 0.9058 0.29062 0.0
C1189 C 0.66733 0.92599 0.28816 0.0
C1190 C 0.65487 0.89369 0.2696 0.0
C1191 C 0.66299 0.90201 0.24546 0.0
C1192 C 0.67362 0.92241 0.24299 0.0
C1193 C 0.67584 0.93414 0.26446 0.0
C1194 C 0.64388 0.87203 0.27312 0.0
C1195 C 0.68226 0.93187 0.21747 0.0
C1196 C 0.67328 0.87737 0.19018 0.0
C1197 C 0.65819 0.87374 0.1729 0.0
C1198 C 0.67418 0.88509 0.21493 0.0
C1199 C 0.65987 0.88963 0.22232 0.0
C1200 C 0.6438 0.88452 0.20581 0.0
C1201 C 0.64303 0.8764 0.18144 0.0
C1202 C 0.69125 0.88981 0.23231 0.0
C1203 C 0.62825 0.88917 0.21287 0.0
H1204 H 0.65047 0.89947 0.30902 0.0
H1205 H 0.68383 0.94975 0.26249 0.0
H1206 H 0.63059 0.86544 0.26093 0.0
H1207 H 0.65281 0.86576 0.26669 0.0
H1208 H 0.63966 0.86791 0.29355 0.0
H1209 H 0.69005 0.94791 0.2188 0.0
H1210 H 0.69253 0.92732 0.2107 0.0
H1211 H 0.67066 0.92714 0.20259 0.0
H1212 H 0.68512 0.87546 0.18381 0.0
H1213 H 0.6311 0.8732 0.16841 0.0
H1214 H 0.68656 0.88579 0.2526 0.0
H1215 H 0.70157 0.90562 0.232 0.0
H1216 H 0.69902 0.88224 0.22597 0.0
H1217 H 0.62303 0.88431 0.23277 0.0
H1218 H 0.6157 0.88235 0.19931 0.0
H1219 H 0.63439 0.90508 0.21245 0.0
C1220 C 0.07912 0.76187 0.26408 0.0
C1221 C 0.08747 0.75669 0.28412 0.0
C1222 C 0.08964 0.77091 0.24172 0.0
C1223 C 0.10885 0.77458 0.23925 0.0
C1224 C 0.11765 0.77026 0.26001 0.0
C1225 C 0.10688 0.76146 0.28225 0.0
C1226 C 0.07985 0.77554 0.22015 0.0
C1227 C 0.13801 0.77374 0.25807 0.0
C1228 C 0.12465 0.77095 0.17158 0.0
C1229 C 0.13693 0.7904 0.16524 0.0
C1230 C 0.11556 0.76572 0.19562 0.0
C1231 C 0.1187 0.78031 0.21381 0.0
C1232 C 0.13123 0.80003 0.20766 0.0
C1233 C 0.14036 0.80486 0.18342 0.0
C1234 C 0.1026 0.7445 0.20152 0.0
C1235 C 0.13479 0.81597 0.22652 0.0
H1236 H 0.06418 0.75837 0.26555 0.0
H1237 H 0.11345 0.75757 0.29774 0.0
H1238 H 0.08947 0.79041 0.21298 0.0
H1239 H 0.07682 0.76543 0.2037 0.0
H1240 H 0.06597 0.77427 0.22639 0.0
H1241 H 0.1435 0.7717 0.27688 0.0
H1242 H 0.1383 0.76351 0.24374 0.0
H1243 H 0.14801 0.78859 0.25116 0.0
H1244 H 0.12228 0.75974 0.1577 0.0
H1245 H 0.14988 0.8199 0.17849 0.0
H1246 H 0.0877 0.74146 0.20546 0.0
H1247 H 0.10789 0.74066 0.21914 0.0
H1248 H 0.10194 0.73498 0.18536 0.0
H1249 H 0.12094 0.81549 0.23065 0.0
H1250 H 0.14528 0.83053 0.21904 0.0
H1251 H 0.14038 0.81381 0.24514 0.0
C1252 C 0.26031 0.35398 0.29096 0.0
C1253 C 0.27266 0.34656 0.28655 0.0
C1254 C 0.24922 0.35531 0.27074 0.0
C1255 C 0.25086 0.34943 0.24547 0.0
C1256 C 0.26332 0.34191 0.24096 0.0
C1257 C 0.27393 0.34039 0.26162 0.0
C1258 C 0.23582 0.36304 0.27638 0.0
C1259 C 0.26569 0.33575 0.21421 0.0
C1260 C 0.21384 0.33705 0.19172 0.0
C1261 C 0.22309 0.35367 0.17639 0.0
C1262 C 0.22208 0.33592 0.21525 0.0
C1263 C 0.24012 0.35166 0.2234 0.0
C1264 C 0.24884 0.36893 0.2089 0.0
C1265 C 0.24011 0.36979 0.18574 0.0
C1266 C 0.2121 0.31742 0.23051 0.0
C1267 C 0.2681 0.38604 0.21684 0.0
H1268 H 0.25918 0.35862 0.31029 0.0
H1269 H 0.2835 0.33469 0.25814 0.0
H1270 H 0.24044 0.37656 0.26545 0.0
H1271 H 0.2209 0.35246 0.26986 0.0
H1272 H 0.23553 0.36613 0.29729 0.0
H1273 H 0.27598 0.33023 0.21397 0.0
H1274 H 0.2515 0.32425 0.20661 0.0
H1275 H 0.27103 0.34818 0.20082 0.0
H1276 H 0.20075 0.32447 0.18465 0.0
H1277 H 0.24713 0.38283 0.17425 0.0
H1278 H 0.21196 0.32059 0.25139 0.0
H1279 H 0.22017 0.30954 0.22843 0.0
H1280 H 0.19697 0.30776 0.22377 0.0
H1281 H 0.26786 0.38992 0.2374 0.0
H1282 H 0.27208 0.39895 0.20477 0.0
H1283 H 0.27958 0.38216 0.21496 0.0
C1284 C 0.27541 0.3497 0.42967 0.0
C1285 C 0.26907 0.33595 0.40962 0.0
C1286 C 0.26357 0.34714 0.45101 0.0
C1287 C 0.24497 0.33043 0.4523 0.0
C1288 C 0.23826 0.31682 0.43169 0.0
C1289 C 0.2504 0.31973 0.41061 0.0
C1290 C 0.27127 0.36196 0.47263 0.0
C1291 C 0.21852 0.29883 0.43233 0.0
C1292 C 0.2257 0.31249 0.51938 0.0
C1293 C 0.21276 0.31933 0.52295 0.0
C1294 C 0.23607 0.31588 0.49642 0.0
C1295 C 0.23337 0.32626 0.4763 0.0
C1296 C 0.21994 0.33277 0.47943 0.0
C1297 C 0.20972 0.32918 0.50276 0.0
C1298 C 0.25012 0.30854 0.49385 0.0
C1299 C 0.21665 0.34382 0.45833 0.0
H1300 H 0.28978 0.36232 0.42893 0.0
H1301 H 0.24537 0.30911 0.39508 0.0
H1302 H 0.26074 0.36672 0.47718 0.0
H1303 H 0.27324 0.35537 0.49039 0.0
H1304 H 0.28535 0.37487 0.46776 0.0
H1305 H 0.21479 0.29058 0.41381 0.0
H1306 H 0.21811 0.28926 0.44809 0.0
H1307 H 0.20725 0.30267 0.43653 0.0
H1308 H 0.22775 0.30446 0.5347 0.0
H1309 H 0.19971 0.33445 0.50545 0.0
H1310 H 0.26495 0.32086 0.49081 0.0
H1311 H 0.24626 0.29884 0.47673 0.0
H1312 H 0.25032 0.30049 0.51121 0.0
H1313 H 0.23026 0.35759 0.45474 0.0
H1314 H 0.20514 0.34717 0.46333 0.0
H1315 H 0.21257 0.33537 0.44 0.0
C1316 C 0.69225 0.9286 0.41249 0.0
C1317 C 0.67554 0.93004 0.40985 0.0
C1318 C 0.69503 0.91969 0.4341 0.0
C1319 C 0.68078 0.9121 0.45359 0.0
C1320 C 0.66345 0.91266 0.45039 0.0
C1321 C 0.66102 0.92161 0.42852 0.0
C1322 C 0.71368 0.91934 0.43673 0.0
C1323 C 0.64793 0.90476 0.47076 0.0
C1324 C 0.68423 0.88143 0.50739 0.0
C1325 C 0.69317 0.89528 0.52714 0.0
C1326 C 0.68012 0.88662 0.48317 0.0
C1327 C 0.68514 0.90608 0.47875 0.0
C1328 C 0.69446 0.92012 0.49851 0.0
C1329 C 0.69844 0.91457 0.52232 0.0
C1330 C 0.67027 0.8713 0.46247 0.0
C1331 C 0.70021 0.94105 0.49458 0.0
H1332 H 0.70346 0.93493 0.39798 0.0
H1333 H 0.64801 0.92256 0.42649 0.0
H1334 H 0.72272 0.92949 0.45235 0.0
H1335 H 0.7107 0.9047 0.44223 0.0
H1336 H 0.72215 0.9236 0.41857 0.0
H1337 H 0.63446 0.90431 0.46408 0.0
H1338 H 0.64438 0.88996 0.47634 0.0
H1339 H 0.65332 0.914 0.48838 0.0
H1340 H 0.68019 0.86653 0.51102 0.0
H1341 H 0.70585 0.92546 0.53725 0.0
H1342 H 0.67899 0.87572 0.44455 0.0
H1343 H 0.656 0.86968 0.45758 0.0
H1344 H 0.66806 0.85702 0.46858 0.0
H1345 H 0.71032 0.94711 0.47811 0.0
H1346 H 0.70729 0.95013 0.512 0.0
H1347 H 0.68724 0.94214 0.48973 0.0
C1348 C 0.10215 0.74928 0.42006 0.0
C1349 C 0.08534 0.74962 0.41307 0.0
C1350 C 0.113 0.75933 0.44209 0.0
C1351 C 0.10677 0.76981 0.45756 0.0
C1352 C 0.08993 0.77038 0.45038 0.0
C1353 C 0.07947 0.76033 0.42819 0.0
C1354 C 0.13092 0.75848 0.44906 0.0
C1355 C 0.0827 0.78123 0.46648 0.0
C1356 C 0.11863 0.77742 0.52914 0.0
C1357 C 0.13244 0.79721 0.53044 0.0
C1358 C 0.11071 0.76821 0.50544 0.0
C1359 C 0.11688 0.77898 0.48234 0.0
C1360 C 0.13159 0.79873 0.48333 0.0
C1361 C 0.13922 0.80764 0.50745 0.0
C1362 C 0.09511 0.74713 0.50529 0.0
C1363 C 0.13868 0.81063 0.45907 0.0
H1364 H 0.10683 0.74114 0.40831 0.0
H1365 H 0.06653 0.76071 0.42283 0.0
H1366 H 0.14344 0.77331 0.45169 0.0
H1367 H 0.12875 0.75087 0.46772 0.0
H1368 H 0.13457 0.75083 0.43409 0.0
H1369 H 0.06984 0.78093 0.45764 0.0
H1370 H 0.07875 0.77477 0.48602 0.0
H1371 H 0.09429 0.79653 0.46902 0.0
H1372 H 0.11369 0.76918 0.54684 0.0
H1373 H 0.14993 0.82292 0.50838 0.0
H1374 H 0.09891 0.73877 0.49176 0.0
H1375 H 0.08127 0.74568 0.49838 0.0
H1376 H 0.09278 0.74055 0.52477 0.0
H1377 H 0.14235 0.80294 0.44423 0.0
H1378 H 0.1516 0.82507 0.4628 0.0
H1379 H 0.12701 0.81272 0.45086 0.0
C1380 C 0.33223 0.08214 0.75942 0.0
C1381 C 0.34729 0.0889 0.74145 0.0
C1382 C 0.3337 0.09315 0.78146 0.0
C1383 C 0.35062 0.11133 0.78559 0.0
C1384 C 0.36546 0.11861 0.76687 0.0
C1385 C 0.36361 0.10729 0.74504 0.0
C1386 C 0.31757 0.0849 0.80096 0.0
C1387 C 0.38372 0.13792 0.77054 0.0
C1388 C 0.35149 0.1449 0.8389 0.0
C1389 C 0.36018 0.14038 0.85926 0.0
C1390 C 0.34823 0.13559 0.81469 0.0
C1391 C 0.35388 0.12154 0.81085 0.0
C1392 C 0.36287 0.11716 0.83128 0.0
C1393 C 0.36596 0.12667 0.85511 0.0
C1394 C 0.33866 0.14065 0.79331 0.0
C1395 C 0.36927 0.10241 0.82799 0.0
H1396 H 0.31952 0.06799 0.75665 0.0
H1397 H 0.37524 0.11267 0.73111 0.0
H1398 H 0.32265 0.08122 0.81891 0.0
H1399 H 0.31338 0.09576 0.80622 0.0
H1400 H 0.30455 0.07164 0.79361 0.0
H1401 H 0.39285 0.14246 0.75296 0.0
H1402 H 0.38016 0.14927 0.77561 0.0
H1403 H 0.39233 0.13702 0.78683 0.0
H1404 H 0.34703 0.15551 0.84202 0.0
H1405 H 0.37315 0.12348 0.87054 0.0
H1406 H 0.32487 0.12762 0.78747 0.0
H1407 H 0.34806 0.14555 0.77602 0.0
H1408 H 0.33556 0.1522 0.79919 0.0
H1409 H 0.37595 0.10061 0.84588 0.0
H1410 H 0.37994 0.10683 0.81214 0.0
H1411 H 0.35671 0.08817 0.82251 0.0
C1412 C 0.91354 0.25808 0.73925 0.0
C1413 C 0.93364 0.26977 0.74225 0.0
C1414 C 0.90181 0.24798 0.76029 0.0
C1415 C 0.91037 0.25003 0.785 0.0
C1416 C 0.9307 0.26172 0.78805 0.0
C1417 C 0.94212 0.27127 0.76656 0.0
C1418 C 0.88026 0.23529 0.75616 0.0
C1419 C 0.94036 0.26456 0.81418 0.0
C1420 C 0.88174 0.2434 0.84606 0.0
C1421 C 0.8798 0.22617 0.8559 0.0
C1422 C 0.89103 0.25097 0.82252 0.0
C1423 C 0.89812 0.24081 0.80804 0.0
C1424 C 0.89485 0.22265 0.81679 0.0
C1425 C 0.88588 0.21562 0.84075 0.0
C1426 C 0.89431 0.27043 0.81397 0.0
C1427 C 0.90176 0.21115 0.80156 0.0
H1428 H 0.90697 0.25676 0.72039 0.0
H1429 H 0.95765 0.28034 0.76893 0.0
H1430 H 0.87532 0.22055 0.76364 0.0
H1431 H 0.87249 0.24123 0.76711 0.0
H1432 H 0.87606 0.23412 0.73543 0.0
H1433 H 0.95634 0.27397 0.81322 0.0
H1434 H 0.93465 0.27119 0.82786 0.0
H1435 H 0.93701 0.25038 0.82225 0.0
H1436 H 0.87667 0.25142 0.85736 0.0
H1437 H 0.88458 0.20236 0.84818 0.0
H1438 H 0.88915 0.26958 0.7938 0.0
H1439 H 0.91004 0.28112 0.81436 0.0
H1440 H 0.88684 0.27589 0.82658 0.0
H1441 H 0.89768 0.21035 0.78085 0.0
H1442 H 0.8957 0.19621 0.80901 0.0
H1443 H 0.91777 0.21847 0.80267 0.0
C1444 C 0.75555 0.68366 0.75938 0.0
C1445 C 0.74679 0.66903 0.74056 0.0
C1446 C 0.76478 0.68132 0.78112 0.0
C1447 C 0.76533 0.66398 0.78398 0.0
C1448 C 0.75742 0.64963 0.76431 0.0
C1449 C 0.74817 0.65229 0.74289 0.0
C1450 C 0.77296 0.69692 0.80172 0.0
C1451 C 0.75781 0.631 0.76654 0.0
C1452 C 0.79677 0.66054 0.83708 0.0
C1453 C 0.78317 0.65144 0.85674 0.0
C1454 C 0.79127 0.66477 0.81317 0.0
C1455 C 0.77174 0.65975 0.80894 0.0
C1456 C 0.75797 0.6504 0.82866 0.0
C1457 C 0.76382 0.64626 0.85214 0.0
C1458 C 0.80629 0.67463 0.79249 0.0
C1459 C 0.73698 0.64469 0.82495 0.0
H1460 H 0.75462 0.69668 0.75761 0.0
H1461 H 0.7416 0.64101 0.72826 0.0
H1462 H 0.76393 0.69162 0.81932 0.0
H1463 H 0.78783 0.70048 0.80722 0.0
H1464 H 0.77334 0.71036 0.79531 0.0
H1465 H 0.75326 0.62244 0.74826 0.0
H1466 H 0.77254 0.63401 0.77188 0.0
H1467 H 0.74789 0.62204 0.78212 0.0
H1468 H 0.81173 0.66453 0.84051 0.0
H1469 H 0.75309 0.6387 0.86692 0.0
H1470 H 0.80753 0.6887 0.78758 0.0
H1471 H 0.8018 0.66567 0.77459 0.0
H1472 H 0.82077 0.67723 0.79862 0.0
H1473 H 0.73586 0.65763 0.82025 0.0
H1474 H 0.72819 0.63781 0.84242 0.0
H1475 H 0.73062 0.63442 0.80846 0.0
C1476 C 0.73951 0.6663 0.59494 0.0
C1477 C 0.74775 0.67292 0.6195 0.0
C1478 C 0.75104 0.66765 0.57376 0.0
C1479 C 0.77119 0.67534 0.57742 0.0
C1480 C 0.77943 0.68125 0.60245 0.0
C1481 C 0.76764 0.68022 0.62314 0.0
C1482 C 0.74176 0.66154 0.54729 0.0
C1483 C 0.80075 0.68906 0.60725 0.0
C1484 C 0.79658 0.666 0.52189 0.0
C1485 C 0.80403 0.68336 0.50811 0.0
C1486 C 0.78664 0.66347 0.54523 0.0
C1487 C 0.78377 0.6785 0.55468 0.0
C1488 C 0.79197 0.69631 0.54145 0.0
C1489 C 0.80222 0.69861 0.51859 0.0
C1490 C 0.77854 0.64446 0.55919 0.0
C1491 C 0.78913 0.71267 0.55073 0.0
H1492 H 0.72415 0.6607 0.59209 0.0
H1493 H 0.77401 0.68516 0.6422 0.0
H1494 H 0.748 0.67422 0.53426 0.0
H1495 H 0.74486 0.65066 0.53871 0.0
H1496 H 0.72582 0.65532 0.54785 0.0
H1497 H 0.80451 0.69117 0.62819 0.0
H1498 H 0.80521 0.67906 0.59901 0.0
H1499 H 0.80929 0.70315 0.59742 0.0
H1500 H 0.79777 0.65408 0.51395 0.0
H1501 H 0.80834 0.71223 0.50842 0.0
H1502 H 0.76253 0.63641 0.55745 0.0
H1503 H 0.78222 0.64696 0.5801 0.0
H1504 H 0.78408 0.63525 0.55121 0.0
H1505 H 0.77349 0.70796 0.55032 0.0
H1506 H 0.79695 0.7258 0.53864 0.0
H1507 H 0.79422 0.71657 0.57102 0.0
C1508 C 0.32773 0.08161 0.6045 0.0
C1509 C 0.34516 0.08661 0.61727 0.0
C1510 C 0.32748 0.09148 0.58225 0.0
C1511 C 0.34505 0.10693 0.57281 0.0
C1512 C 0.36257 0.11266 0.5864 0.0
C1513 C 0.36244 0.10229 0.60834 0.0
C1514 C 0.30853 0.08471 0.56812 0.0
C1515 C 0.38154 0.12927 0.57721 0.0
C1516 C 0.34692 0.11401 0.50033 0.0
C1517 C 0.34255 0.12888 0.49776 0.0
C1518 C 0.34811 0.10704 0.52464 0.0
C1519 C 0.34532 0.11544 0.54715 0.0
C1520 C 0.34194 0.13117 0.54486 0.0
C1521 C 0.3405 0.13767 0.52012 0.0
C1522 C 0.35171 0.09022 0.52615 0.0
C1523 C 0.33929 0.14075 0.56846 0.0
H1524 H 0.31432 0.06952 0.61138 0.0
H1525 H 0.37593 0.10635 0.61835 0.0
H1526 H 0.30618 0.09706 0.56462 0.0
H1527 H 0.30899 0.07865 0.54895 0.0
H1528 H 0.29599 0.07344 0.57896 0.0
H1529 H 0.39337 0.13348 0.59165 0.0
H1530 H 0.38579 0.12512 0.55895 0.0
H1531 H 0.38003 0.14206 0.57304 0.0
H1532 H 0.34915 0.10754 0.48317 0.0
H1533 H 0.3372 0.14922 0.51827 0.0
H1534 H 0.33924 0.07774 0.53547 0.0
H1535 H 0.36469 0.09418 0.53824 0.0
H1536 H 0.35385 0.08554 0.50679 0.0
H1537 H 0.32557 0.13052 0.57814 0.0
H1538 H 0.33884 0.15404 0.56354 0.0
H1539 H 0.35121 0.14459 0.58258 0.0
C1540 C 0.93279 0.24476 0.61754 0.0
C1541 C 0.93508 0.26331 0.6193 0.0
C1542 C 0.92327 0.23263 0.59626 0.0
C1543 C 0.91594 0.23925 0.57624 0.0
C1544 C 0.91746 0.25763 0.57849 0.0
C1545 C 0.92701 0.26944 0.60001 0.0
C1546 C 0.9219 0.21311 0.59461 0.0
C1547 C 0.90985 0.26523 0.55754 0.0
C1548 C 0.91575 0.22178 0.50805 0.0
C1549 C 0.89608 0.20848 0.50371 0.0
C1550 C 0.92232 0.23168 0.53163 0.0
C1551 C 0.90893 0.22811 0.5516 0.0
C1552 C 0.88908 0.21432 0.54768 0.0
C1553 C 0.88287 0.2046 0.52371 0.0
C1554 C 0.94363 0.24615 0.53503 0.0
C1555 C 0.87441 0.2101 0.5686 0.0
H1556 H 0.93886 0.23988 0.63251 0.0
H1557 H 0.92862 0.28372 0.60135 0.0
H1558 H 0.90692 0.2017 0.58957 0.0
H1559 H 0.93148 0.21328 0.57903 0.0
H1560 H 0.92625 0.20918 0.61302 0.0
H1561 H 0.9104 0.27889 0.56339 0.0
H1562 H 0.91862 0.268 0.53983 0.0
H1563 H 0.89469 0.25433 0.55245 0.0
H1564 H 0.92611 0.22445 0.49288 0.0
H1565 H 0.86766 0.19429 0.52043 0.0
H1566 H 0.94956 0.24217 0.55184 0.0
H1567 H 0.94571 0.26073 0.53905 0.0
H1568 H 0.95216 0.24705 0.51766 0.0
H1569 H 0.87893 0.20602 0.58671 0.0
H1570 H 0.85973 0.19826 0.563 0.0
H1571 H 0.87364 0.2233 0.57289 0.0
C1572 C 0.32457 0.24787 0.60369 0.0
C1573 C 0.34165 0.2602 0.61729 0.0
C1574 C 0.32487 0.23781 0.58155 0.0
C1575 C 0.34265 0.23987 0.57314 0.0
C1576 C 0.35977 0.25145 0.58769 0.0
C1577 C 0.35911 0.26168 0.60945 0.0
C1578 C 0.30635 0.22588 0.56634 0.0
C1579 C 0.37892 0.25367 0.57967 0.0
C1580 C 0.33908 0.20516 0.51975 0.0
C1581 C 0.34201 0.21645 0.49771 0.0
C1582 C 0.33998 0.21277 0.54467 0.0
C1583 C 0.34365 0.23198 0.54744 0.0
C1584 C 0.34735 0.24361 0.52529 0.0
C1585 C 0.34675 0.2358 0.50082 0.0
C1586 C 0.33644 0.2001 0.56791 0.0
C1587 C 0.35126 0.26415 0.5273 0.0
H1588 H 0.31103 0.24667 0.60973 0.0
H1589 H 0.37231 0.27102 0.62014 0.0
H1590 H 0.30749 0.23271 0.5473 0.0
H1591 H 0.30397 0.21117 0.56258 0.0
H1592 H 0.29353 0.22455 0.57652 0.0
H1593 H 0.3902 0.26084 0.59494 0.0
H1594 H 0.37729 0.23935 0.57509 0.0
H1595 H 0.38401 0.26251 0.56189 0.0
H1596 H 0.33552 0.19023 0.5175 0.0
H1597 H 0.3497 0.24484 0.48395 0.0
H1598 H 0.32245 0.19656 0.57684 0.0
H1599 H 0.34792 0.20788 0.58273 0.0
H1600 H 0.33597 0.18637 0.56275 0.0
H1601 H 0.33865 0.26422 0.53607 0.0
H1602 H 0.35409 0.27132 0.50818 0.0
H1603 H 0.36394 0.27287 0.5401 0.0
C1604 C 0.7445 0.09215 0.60095 0.0
C1605 C 0.75162 0.08525 0.62051 0.0
C1606 C 0.75561 0.10118 0.57896 0.0
C1607 C 0.77421 0.10326 0.57646 0.0
C1608 C 0.78181 0.09715 0.59676 0.0
C1609 C 0.77044 0.08825 0.61854 0.0
C1610 C 0.74703 0.10759 0.55781 0.0
C1611 C 0.80154 0.09902 0.59484 0.0
C1612 C 0.7904 0.10079 0.50853 0.0
C1613 C 0.8037 0.12025 0.50333 0.0
C1614 C 0.7808 0.09519 0.5322 0.0
C1615 C 0.78458 0.10938 0.55136 0.0
C1616 C 0.79823 0.12906 0.54647 0.0
C1617 C 0.80773 0.13427 0.52248 0.0
C1618 C 0.76657 0.07401 0.53667 0.0
C1619 C 0.80261 0.14458 0.56645 0.0
H1620 H 0.73003 0.09 0.60245 0.0
H1621 H 0.7761 0.08306 0.63368 0.0
H1622 H 0.75755 0.12253 0.55172 0.0
H1623 H 0.74371 0.09802 0.54063 0.0
H1624 H 0.73348 0.10709 0.56396 0.0
H1625 H 0.80623 0.09563 0.61339 0.0
H1626 H 0.80118 0.08895 0.57972 0.0
H1627 H 0.81251 0.11388 0.58901 0.0
H1628 H 0.78758 0.08982 0.49401 0.0
H1629 H 0.81803 0.14932 0.51852 0.0
H1630 H 0.75204 0.07194 0.54078 0.0
H1631 H 0.7711 0.06888 0.55379 0.0
H1632 H 0.76532 0.06481 0.51977 0.0
H1633 H 0.78926 0.14505 0.57076 0.0
H1634 H 0.81394 0.15912 0.55993 0.0
H1635 H 0.8075 0.14118 0.58479 0.0
C1636 C 0.94086 0.67916 0.60035 0.0
C1637 C 0.94073 0.68689 0.62465 0.0
C1638 C 0.931 0.68125 0.57923 0.0
C1639 C 0.92042 0.69097 0.58263 0.0
C1640 C 0.91994 0.6985 0.60726 0.0
C1641 C 0.93029 0.69655 0.62796 0.0
C1642 C 0.93211 0.67325 0.55317 0.0
C1643 C 0.9085 0.70859 0.61173 0.0
C1644 C 0.91218 0.71016 0.51998 0.0
C1645 C 0.89446 0.69448 0.51157 0.0
C1646 C 0.92032 0.70976 0.5439 0.0
C1647 C 0.91029 0.69349 0.56006 0.0
C1648 C 0.89155 0.67852 0.55284 0.0
C1649 C 0.88391 0.67911 0.52856 0.0
C1650 C 0.94036 0.72601 0.55082 0.0
C1651 C 0.88018 0.66114 0.56982 0.0
H1652 H 0.94897 0.67175 0.59772 0.0
H1653 H 0.93005 0.70242 0.64681 0.0
H1654 H 0.91738 0.6624 0.54633 0.0
H1655 H 0.93828 0.68504 0.53874 0.0
H1656 H 0.94115 0.66629 0.55373 0.0
H1657 H 0.90906 0.71302 0.63225 0.0
H1658 H 0.91419 0.72164 0.59946 0.0
H1659 H 0.89315 0.6989 0.60601 0.0
H1660 H 0.92023 0.72227 0.50716 0.0
H1661 H 0.87026 0.66687 0.52225 0.0
H1662 H 0.95078 0.7207 0.54942 0.0
H1663 H 0.94088 0.73095 0.57103 0.0
H1664 H 0.94523 0.73859 0.53776 0.0
H1665 H 0.88659 0.65165 0.56885 0.0
H1666 H 0.86476 0.65256 0.56368 0.0
H1667 H 0.88085 0.66565 0.59031 0.0
C1668 C 0.91501 0.6568 0.74713 0.0
C1669 C 0.93358 0.67321 0.74714 0.0
C1670 C 0.90237 0.65307 0.76786 0.0
C1671 C 0.90843 0.66608 0.78913 0.0
C1672 C 0.92689 0.68306 0.7888 0.0
C1673 C 0.93926 0.68641 0.7678 0.0
C1674 C 0.88284 0.63478 0.76748 0.0
C1675 C 0.93387 0.69729 0.8111 0.0
C1676 C 0.87153 0.66166 0.83926 0.0
C1677 C 0.87461 0.6514 0.85883 0.0
C1678 C 0.88236 0.66653 0.8163 0.0
C1679 C 0.89641 0.66085 0.81289 0.0
C1680 C 0.89918 0.65008 0.83238 0.0
C1681 C 0.88824 0.64546 0.85499 0.0
C1682 C 0.87899 0.67799 0.7959 0.0
C1683 C 0.91383 0.64353 0.82947 0.0
H1684 H 0.91047 0.64658 0.73114 0.0
H1685 H 0.95354 0.69919 0.76784 0.0
H1686 H 0.88247 0.62483 0.78265 0.0
H1687 H 0.87124 0.6381 0.77193 0.0
H1688 H 0.87956 0.62715 0.74851 0.0
H1689 H 0.94778 0.71062 0.80683 0.0
H1690 H 0.92289 0.7014 0.81591 0.0
H1691 H 0.93595 0.69044 0.8285 0.0
H1692 H 0.86099 0.66624 0.84216 0.0
H1693 H 0.89035 0.63713 0.86981 0.0
H1694 H 0.87547 0.6702 0.77706 0.0
H1695 H 0.8924 0.69211 0.7932 0.0
H1696 H 0.86705 0.68068 0.80105 0.0
H1697 H 0.91055 0.63441 0.81183 0.0
H1698 H 0.91407 0.63511 0.84637 0.0
H1699 H 0.92852 0.65626 0.82714 0.0
C1700 C 0.35687 0.2582 0.74386 0.0
C1701 C 0.34038 0.25975 0.73933 0.0
C1702 C 0.35861 0.24933 0.76624 0.0
C1703 C 0.34351 0.24186 0.78456 0.0
C1704 C 0.32635 0.24236 0.77935 0.0
C1705 C 0.32498 0.25132 0.75676 0.0
C1706 C 0.37715 0.24907 0.77102 0.0
C1707 C 0.30991 0.2345 0.79838 0.0
C1708 C 0.34628 0.21227 0.84032 0.0
C1709 C 0.35485 0.22646 0.85976 0.0
C1710 C 0.34219 0.21691 0.81573 0.0
C1711 C 0.34688 0.23617 0.81057 0.0
C1712 C 0.35552 0.2505 0.83016 0.0
C1713 C 0.35947 0.24549 0.85438 0.0
C1714 C 0.333 0.20128 0.79527 0.0
C1715 C 0.36093 0.27126 0.82543 0.0
H1716 H 0.36875 0.26452 0.73032 0.0
H1717 H 0.31215 0.25236 0.75326 0.0
H1718 H 0.38547 0.25937 0.78689 0.0
H1719 H 0.37397 0.2345 0.7772 0.0
H1720 H 0.38641 0.25322 0.75357 0.0
H1721 H 0.29666 0.23364 0.79002 0.0
H1722 H 0.30638 0.21989 0.80491 0.0
H1723 H 0.31434 0.24405 0.81573 0.0
H1724 H 0.3427 0.19755 0.84439 0.0
H1725 H 0.36658 0.25666 0.86905 0.0
H1726 H 0.34261 0.2052 0.77825 0.0
H1727 H 0.31918 0.19998 0.78852 0.0
H1728 H 0.33006 0.18698 0.80245 0.0
H1729 H 0.37176 0.27741 0.80975 0.0
H1730 H 0.36708 0.28051 0.84297 0.0
H1731 H 0.34802 0.27195 0.81901 0.0
C1732 C 0.76413 0.08616 0.75437 0.0
C1733 C 0.74857 0.08741 0.74394 0.0
C1734 C 0.77435 0.09722 0.77615 0.0
C1735 C 0.76864 0.10955 0.788 0.0
C1736 C 0.75326 0.11125 0.7771 0.0
C1737 C 0.7435 0.10026 0.75507 0.0
C1738 C 0.79084 0.09522 0.78697 0.0
C1739 C 0.74654 0.12402 0.78938 0.0
C1740 C 0.77698 0.11815 0.86021 0.0
C1741 C 0.79247 0.13728 0.86156 0.0
C1742 C 0.76919 0.10904 0.83642 0.0
C1743 C 0.77734 0.1191 0.81323 0.0
C1744 C 0.7934 0.13818 0.81431 0.0
C1745 C 0.80074 0.1471 0.83851 0.0
C1746 C 0.75203 0.0887 0.83617 0.0
C1747 C 0.80264 0.14923 0.78995 0.0
H1748 H 0.76822 0.07639 0.74566 0.0
H1749 H 0.73149 0.10129 0.74704 0.0
H1750 H 0.80378 0.10969 0.79023 0.0
H1751 H 0.7867 0.08791 0.80598 0.0
H1752 H 0.79482 0.08669 0.77396 0.0
H1753 H 0.7353 0.12478 0.77753 0.0
H1754 H 0.74045 0.11833 0.80873 0.0
H1755 H 0.75893 0.13888 0.79227 0.0
H1756 H 0.77087 0.11019 0.87787 0.0
H1757 H 0.81271 0.16186 0.83939 0.0
H1758 H 0.75569 0.07886 0.82562 0.0
H1759 H 0.73967 0.08838 0.82582 0.0
H1760 H 0.7473 0.08297 0.85597 0.0
H1761 H 0.80684 0.14069 0.77734 0.0
H1762 H 0.81567 0.1635 0.79408 0.0
H1763 H 0.79207 0.15159 0.77891 0.0
C1764 C 0.07744 0.38821 0.01909 0.0
C1765 C 0.0598 0.37885 0.03233 0.0
C1766 C 0.09311 0.38592 0.0267 0.0
C1767 C 0.09108 0.37407 0.0481 0.0
C1768 C 0.07317 0.36432 0.06119 0.0
C1769 C 0.05777 0.3668 0.05312 0.0
C1770 C 0.11192 0.39645 0.0122 0.0
C1771 C 0.07036 0.35155 0.08415 0.0
C1772 C 0.12254 0.35242 0.06426 0.0
C1773 C 0.13272 0.3636 0.08591 0.0
C1774 C 0.11004 0.35666 0.05014 0.0
C1775 C 0.10775 0.37241 0.05794 0.0
C1776 C 0.11952 0.38484 0.07815 0.0
C1777 C 0.13187 0.38028 0.09188 0.0
C1778 C 0.09797 0.34318 0.0285 0.0
C1779 C 0.11771 0.40189 0.08699 0.0
H1780 H 0.07908 0.39751 0.00295 0.0
H1781 H 0.04418 0.35949 0.0634 0.0
H1782 H 0.12339 0.40734 0.02511 0.0
H1783 H 0.11666 0.38618 0.00604 0.0
H1784 H 0.11072 0.40395 0.99485 0.0
H1785 H 0.05538 0.34457 0.09172 0.0
H1786 H 0.07366 0.34008 0.0787 0.0
H1787 H 0.08053 0.36025 0.09995 0.0
H1788 H 0.12306 0.33944 0.0597 0.0
H1789 H 0.13983 0.38899 0.10855 0.0
H1790 H 0.09708 0.35143 0.01186 0.0
H1791 H 0.08301 0.33358 0.03544 0.0
H1792 H 0.10388 0.33398 0.02173 0.0
H1793 H 0.1174 0.41032 0.0702 0.0
H1794 H 0.12977 0.41168 0.10013 0.0
H1795 H 0.10388 0.39657 0.09748 0.0
C1796 C 0.62923 0.69676 0.01341 0.0
C1797 C 0.63919 0.68954 0.02767 0.0
C1798 C 0.63075 0.71459 0.01997 0.0
C1799 C 0.64226 0.72524 0.04151 0.0
C1800 C 0.65262 0.71814 0.05562 0.0
C1801 C 0.65105 0.70047 0.04843 0.0
C1802 C 0.61974 0.72183 0.00422 0.0
C1803 C 0.66496 0.72893 0.07887 0.0
C1804 C 0.66148 0.77818 0.05729 0.0
C1805 C 0.64968 0.77667 0.07815 0.0
C1806 C 0.65816 0.76162 0.04333 0.0
C1807 C 0.64278 0.74322 0.0506 0.0
C1808 C 0.62967 0.74198 0.06985 0.0
C1809 C 0.63323 0.75874 0.08328 0.0
C1810 C 0.67221 0.76364 0.02254 0.0
C1811 C 0.61304 0.72272 0.07821 0.0
H1812 H 0.62011 0.68841 0.99724 0.0
H1813 H 0.65879 0.69498 0.05953 0.0
H1814 H 0.60813 0.72161 0.01614 0.0
H1815 H 0.6295 0.73703 0.99838 0.0
H1816 H 0.61304 0.71288 0.98659 0.0
H1817 H 0.6724 0.72165 0.0874 0.0
H1818 H 0.67605 0.74383 0.07336 0.0
H1819 H 0.65581 0.73018 0.09396 0.0
H1820 H 0.67425 0.79198 0.05329 0.0
H1821 H 0.62397 0.7576 0.09924 0.0
H1822 H 0.6645 0.75407 0.00578 0.0
H1823 H 0.68237 0.75923 0.03035 0.0
H1824 H 0.68081 0.77879 0.0157 0.0
H1825 H 0.60511 0.71365 0.06118 0.0
H1826 H 0.60268 0.72443 0.09061 0.0
H1827 H 0.61878 0.71482 0.08934 0.0
C1828 C 0.3148 0.94846 0.00381 0.0
C1829 C 0.32567 0.96211 0.02311 0.0
C1830 C 0.29689 0.932 0.00956 0.0
C1831 C 0.28999 0.92897 0.03528 0.0
C1832 C 0.30088 0.94284 0.05471 0.0
C1833 C 0.31845 0.95928 0.04832 0.0
C1834 C 0.28546 0.91778 0.98824 0.0
C1835 C 0.29424 0.9401 0.08249 0.0
C1836 C 0.2389 0.89694 0.05887 0.0
C1837 C 0.24032 0.88165 0.06962 0.0
C1838 C 0.25434 0.91154 0.04494 0.0
C1839 C 0.27179 0.91111 0.04259 0.0
C1840 C 0.27263 0.89484 0.05167 0.0
C1841 C 0.25677 0.88019 0.06489 0.0
C1842 C 0.25261 0.9283 0.03489 0.0
C1843 C 0.291 0.89389 0.05003 0.0
H1844 H 0.3203 0.95063 0.98426 0.0
H1845 H 0.32681 0.96972 0.06335 0.0
H1846 H 0.28466 0.90374 0.99199 0.0
H1847 H 0.2704 0.91503 0.98782 0.0
H1848 H 0.29202 0.92299 0.96894 0.0
H1849 H 0.30453 0.95214 0.09529 0.0
H1850 H 0.2799 0.93907 0.08366 0.0
H1851 H 0.29258 0.92637 0.09 0.0
H1852 H 0.2262 0.89811 0.06276 0.0
H1853 H 0.25795 0.86851 0.07362 0.0
H1854 H 0.25939 0.93281 0.0156 0.0
H1855 H 0.2603 0.94084 0.04825 0.0
H1856 H 0.23726 0.92464 0.0334 0.0
H1857 H 0.29744 0.89807 0.03054 0.0
H1858 H 0.28847 0.87921 0.05445 0.0
H1859 H 0.30175 0.90428 0.06415 0.0
C1860 C 0.37346 0.06754 0.01732 0.0
C1861 C 0.37323 0.05551 0.99731 0.0
C1862 C 0.37167 0.08382 0.01192 0.0
C1863 C 0.37009 0.08836 0.9859 0.0
C1864 C 0.36987 0.07622 0.96568 0.0
C1865 C 0.37122 0.05985 0.97167 0.0
C1866 C 0.37149 0.09616 0.03397 0.0
C1867 C 0.36852 0.08066 0.93761 0.0
C1868 C 0.35011 0.11912 0.96053 0.0
C1869 C 0.36713 0.13573 0.95296 0.0
C1870 C 0.35085 0.10428 0.97397 0.0
C1871 C 0.36904 0.10593 0.97926 0.0
C1872 C 0.38624 0.12346 0.97373 0.0
C1873 C 0.38506 0.13825 0.96081 0.0
C1874 C 0.33216 0.08609 0.98018 0.0
C1875 C 0.40594 0.12579 0.97871 0.0
H1876 H 0.37491 0.06416 0.03719 0.0
H1877 H 0.37114 0.05065 0.95613 0.0
H1878 H 0.38407 0.11103 0.03252 0.0
H1879 H 0.35825 0.09735 0.03281 0.0
H1880 H 0.372 0.09021 0.05314 0.0
H1881 H 0.36896 0.06998 0.92422 0.0
H1882 H 0.35486 0.08074 0.93406 0.0
H1883 H 0.38064 0.09526 0.93286 0.0
H1884 H 0.33625 0.11717 0.95431 0.0
H1885 H 0.39822 0.15098 0.9546 0.0
H1886 H 0.33301 0.08055 -0.00051 0.0
H1887 H 0.32947 0.07471 0.96568 0.0
H1888 H 0.31964 0.08853 0.97979 0.0
H1889 H 0.41767 0.14112 0.97725 0.0
H1890 H 0.40864 0.11714 0.96423 0.0
H1891 H 0.40667 0.12035 0.99812 0.0
C1892 C 0.94984 0.32488 0.0132 0.0
C1893 C 0.96598 0.33342 0.99693 0.0
C1894 C 0.93346 0.30697 0.00672 0.0
C1895 C 0.93322 0.29753 0.98336 0.0
C1896 C 0.94963 0.30598 0.96713 0.0
C1897 C 0.96579 0.32376 0.97415 0.0
C1898 C 0.91631 0.29835 0.02459 0.0
C1899 C 0.94999 0.29646 0.94198 0.0
C1900 C 0.89995 0.24459 0.96643 0.0
C1901 C 0.88767 0.24592 0.94813 0.0
C1902 C 0.91393 0.26111 0.9799 0.0
C1903 C 0.91561 0.27931 0.97484 0.0
C1904 C 0.902 0.28032 0.95824 0.0
C1905 C 0.88818 0.2636 0.94513 0.0
C1906 C 0.92798 0.25935 0.99771 0.0
C1907 C 0.90314 0.29935 0.95239 0.0
H1908 H 0.94993 0.33225 0.03089 0.0
H1909 H 0.97822 0.33025 0.9615 0.0
H1910 H 0.90371 0.2979 0.01481 0.0
H1911 H 0.91214 0.28322 0.0293 0.0
H1912 H 0.91931 0.30675 0.04289 0.0
H1913 H 0.96406 0.30467 0.93191 0.0
H1914 H 0.94716 0.28159 0.94563 0.0
H1915 H 0.93837 0.29521 0.92887 0.0
H1916 H 0.89968 0.23098 0.96871 0.0
H1917 H 0.87857 0.26461 0.93113 0.0
H1918 H 0.9306 0.26814 0.01553 0.0
H1919 H 0.94206 0.26493 0.98782 0.0
H1920 H 0.92269 0.24409 0.00323 0.0
H1921 H 0.90516 0.30774 0.97042 0.0
H1922 H 0.88997 0.29731 0.94216 0.0
H1923 H 0.91584 0.30812 0.93994 0.0
C1924 C 0.69083 0.64028 0.97084 0.0
C1925 C 0.68422 0.63688 0.99638 0.0
C1926 C 0.70792 0.64054 0.96398 0.0
C1927 C 0.71896 0.63775 0.98323 0.0
C1928 C 0.7125 0.63457 0.00916 0.0
C1929 C 0.69507 0.63396 0.0154 0.0
C1930 C 0.71406 0.64365 0.93599 0.0
C1931 C 0.72408 0.63195 0.03029 0.0
C1932 C 0.75228 0.62198 0.95405 0.0
C1933 C 0.76876 0.63991 0.94925 0.0
C1934 C 0.73634 0.62086 0.96702 0.0
C1935 C 0.73712 0.63808 0.97572 0.0
C1936 C 0.75455 0.656 0.97324 0.0
C1937 C 0.77009 0.65674 0.95967 0.0
C1938 C 0.71802 0.60148 0.96889 0.0
C1939 C 0.7562 0.67464 0.98282 0.0
H1940 H 0.68245 0.64243 0.95604 0.0
H1941 H 0.69004 0.63142 0.0352 0.0
H1942 H 0.72838 0.65697 0.93418 0.0
H1943 H 0.7156 0.63139 0.92884 0.0
H1944 H 0.70355 0.64502 0.92329 0.0
H1945 H 0.71728 0.62997 0.04956 0.0
H1946 H 0.7256 0.61918 0.02594 0.0
H1947 H 0.73888 0.64474 0.03118 0.0
H1948 H 0.75114 0.60901 0.94557 0.0
H1949 H 0.78279 0.67061 0.95571 0.0
H1950 H 0.70729 0.60079 0.95455 0.0
H1951 H 0.71151 0.59952 0.98831 0.0
H1952 H 0.72061 0.5893 0.96491 0.0
H1953 H 0.7482 0.67902 0.96945 0.0
H1954 H 0.7715 0.68654 0.98386 0.0
H1955 H 0.74965 0.6727 0.00224 0.0
C1956 C 0.94992 0.63448 0.97434 0.0
C1957 C 0.95506 0.63411 0.0002 0.0
C1958 C 0.9336 0.63586 0.96791 0.0
C1959 C 0.92216 0.63711 0.98784 0.0
C1960 C 0.92727 0.63679 0.01404 0.0
C1961 C 0.94364 0.63518 0.01993 0.0
C1962 C 0.92864 0.636 0.93968 0.0
C1963 C 0.91554 0.6383 0.03576 0.0
C1964 C 0.89325 0.65844 0.96017 0.0
C1965 C 0.87627 0.64165 0.95238 0.0
C1966 C 0.90764 0.65729 0.97442 0.0
C1967 C 0.90504 0.6389 0.98067 0.0
C1968 C 0.88704 0.62205 0.97524 0.0
C1969 C 0.8728 0.62365 0.96121 0.0
C1970 C 0.92643 0.67565 0.98026 0.0
C1971 C 0.88361 0.60216 0.98154 0.0
H1972 H 0.95863 0.63357 0.95899 0.0
H1973 H 0.94759 0.63494 0.03996 0.0
H1974 H 0.91375 0.62399 0.93552 0.0
H1975 H 0.92899 0.64972 0.9351 0.0
H1976 H 0.93879 0.63449 0.92658 0.0
H1977 H 0.92126 0.63757 0.0551 0.0
H1978 H 0.91555 0.65215 0.03436 0.0
H1979 H 0.90027 0.62647 0.0341 0.0
H1980 H 0.89592 0.67237 0.95336 0.0
H1981 H 0.85975 0.61063 0.95502 0.0
H1982 H 0.93751 0.67718 0.96613 0.0
H1983 H 0.93188 0.6752 -0.00014 0.0
H1984 H 0.92481 0.68864 0.9789 0.0
H1985 H 0.89139 0.59812 0.96738 0.0
H1986 H 0.86799 0.59105 0.98061 0.0
H1987 H 0.88931 0.60195 0.00107 0.0
C1988 C 0.37291 0.32483 0.97242 0.0
C1989 C 0.3743 0.33066 0.99832 0.0
C1990 C 0.37104 0.30693 0.96584 0.0
C1991 C 0.37025 0.29436 0.98565 0.0
C1992 C 0.37131 0.30001 0.01189 0.0
C1993 C 0.37348 0.31819 0.01792 0.0
C1994 C 0.37015 0.30158 0.93758 0.0
C1995 C 0.3702 0.28688 0.03351 0.0
C1996 C 0.34898 0.24336 0.95951 0.0
C1997 C 0.36576 0.24312 0.95235 0.0
C1998 C 0.35016 0.25931 0.97271 0.0
C1999 C 0.36857 0.2755 0.97845 0.0
C2000 C 0.38548 0.27454 0.97333 0.0
C2001 C 0.38385 0.25828 0.96046 0.0
C2002 C 0.33176 0.25954 0.97833 0.0
C2003 C 0.40539 0.29148 0.97899 0.0
H2004 H 0.37361 0.33443 0.95719 0.0
H2005 H 0.37448 0.32261 0.03798 0.0
H2006 H 0.38214 0.29886 0.93304 0.0
H2007 H 0.35638 0.28804 0.93331 0.0
H2008 H 0.37118 0.31308 0.92456 0.0
H2009 H 0.37061 0.29313 0.0529 0.0
H2010 H 0.35667 0.27269 0.03168 0.0
H2011 H 0.38244 0.28409 0.03218 0.0
H2012 H 0.33499 0.23163 0.95322 0.0
H2013 H 0.39685 0.25823 0.95467 0.0
H2014 H 0.32994 0.26883 0.96403 0.0
H2015 H 0.33242 0.2657 0.99783 0.0
H2016 H 0.31883 0.24481 0.97715 0.0
H2017 H 0.40869 0.30312 0.96484 0.0
H2018 H 0.41677 0.28742 0.97761 0.0
H2019 H 0.40604 0.29752 0.99856 0.0
C2020 C 0.69934 0.07833 0.01676 0.0
C2021 C 0.68965 0.06359 0.99824 0.0
C2022 C 0.71721 0.09488 0.01112 0.0
C2023 C 0.72563 0.09653 0.98654 0.0
C2024 C 0.71593 0.08157 0.96792 0.0
C2025 C 0.69805 0.0654 0.97394 0.0
C2026 C 0.72699 0.11063 0.0313 0.0
C2027 C 0.72445 0.08262 0.94152 0.0
C2028 C 0.76147 0.14209 0.95226 0.0
C2029 C 0.77815 0.14049 0.95335 0.0
C2030 C 0.74466 0.12901 0.96547 0.0
C2031 C 0.74448 0.11381 0.97969 0.0
C2032 C 0.7619 0.11342 0.983 0.0
C2033 C 0.7786 0.12688 0.96986 0.0
C2034 C 0.72656 0.13024 0.96187 0.0
C2035 C 0.7624 0.09748 0.99791 0.0
H2036 H 0.69287 0.07702 0.03556 0.0
H2037 H 0.69069 0.05403 0.95959 0.0
H2038 H 0.74169 0.11314 0.03566 0.0
H2039 H 0.72875 0.1244 0.02377 0.0
H2040 H 0.71867 0.10706 0.04957 0.0
H2041 H 0.7153 0.06953 0.92953 0.0
H2042 H 0.72616 0.09545 0.93103 0.0
H2043 H 0.73904 0.08429 0.94358 0.0
H2044 H 0.76113 0.15261 0.93942 0.0
H2045 H 0.79142 0.1255 0.97048 0.0
H2046 H 0.71846 0.12721 0.98025 0.0
H2047 H 0.71694 0.11921 0.94745 0.0
H2048 H 0.72989 0.1447 0.95483 0.0
H2049 H 0.75409 0.09441 0.01609 0.0
H2050 H 0.77744 0.10115 0.00268 0.0
H2051 H 0.75556 0.08403 0.98604 0.0
C2052 C 0.62822 0.94918 0.03765 0.0
C2053 C 0.64252 0.96502 0.0241 0.0
C2054 C 0.63136 0.93429 0.0461 0.0
C2055 C 0.64905 0.93505 0.04031 0.0
C2056 C 0.6629 0.95027 0.02492 0.0
C2057 C 0.6596 0.96525 0.01732 0.0
C2058 C 0.61633 0.91854 0.06285 0.0
C2059 C 0.68169 0.95133 0.01768 0.0
C2060 C 0.66689 0.9143 0.09208 0.0
C2061 C 0.6602 0.89538 0.08301 0.0
C2062 C 0.66374 0.9274 0.07803 0.0
C2063 C 0.65418 0.92174 0.05376 0.0
C2064 C 0.64862 0.90315 0.04352 0.0
C2065 C 0.65158 0.89009 0.05839 0.0
C2066 C 0.66988 0.94701 0.08983 0.0
C2067 C 0.63893 0.89682 0.01736 0.0
H2068 H 0.61499 0.94895 0.04293 0.0
H2069 H 0.67061 0.97737 0.00656 0.0
H2070 H 0.613 0.9041 0.05561 0.0
H2071 H 0.62211 0.92018 0.08284 0.0
H2072 H 0.60267 0.919 0.06358 0.0
H2073 H 0.68921 0.9619 0.002 0.0
H2074 H 0.69144 0.95583 0.03482 0.0
H2075 H 0.67909 0.93693 0.01135 0.0
H2076 H 0.67412 0.91871 0.11075 0.0
H2077 H 0.64651 0.87555 0.05119 0.0
H2078 H 0.65699 0.9486 0.09274 0.0
H2079 H 0.67971 0.95865 0.07659 0.0
H2080 H 0.67738 0.94922 0.10877 0.0
H2081 H 0.62399 0.89433 0.01845 0.0
H2082 H 0.63816 0.88325 0.01053 0.0
H2083 H 0.64679 0.9083 0.00285 0.0
C2084 C 0.0543 0.692 0.05547 0.0
C2085 C 0.05001 0.6853 0.02986 0.0
C2086 C 0.07051 0.71001 0.06149 0.0
C2087 C 0.08255 0.72182 0.04135 0.0
C2088 C 0.07803 0.71535 0.01536 0.0
C2089 C 0.0619 0.69704 0.00993 0.0
C2090 C 0.07494 0.71622 0.08953 0.0
C2091 C 0.09025 0.72772 0.99336 0.0
C2092 C 0.11331 0.77341 0.06514 0.0
C2093 C 0.13016 0.7735 0.073 0.0
C2094 C 0.09828 0.75726 0.05236 0.0
C2095 C 0.10004 0.7407 0.04798 0.0
C2096 C 0.11773 0.74142 0.05391 0.0
C2097 C 0.13267 0.75792 0.0662 0.0
C2098 C 0.07989 0.7573 0.04573 0.0
C2099 C 0.12017 0.72406 0.04983 0.0
H2100 H 0.04521 0.68294 0.07094 0.0
H2101 H 0.05857 0.69193 0.99008 0.0
H2102 H 0.08957 0.71889 0.09476 0.0
H2103 H 0.07497 0.72998 0.0926 0.0
H2104 H 0.06428 0.70522 0.10287 0.0
H2105 H 0.08424 0.72102 0.97417 0.0
H2106 H 0.09139 0.74213 0.99422 0.0
H2107 H 0.10515 0.73013 0.99517 0.0
H2108 H 0.11137 0.78545 0.07054 0.0
H2109 H 0.14559 0.75789 0.07262 0.0
H2110 H 0.06866 0.74869 0.06022 0.0
H2111 H 0.07425 0.75055 0.02649 0.0
H2112 H 0.08212 0.77219 0.04573 0.0
H2113 H 0.11152 0.7129 0.06438 0.0
H2114 H 0.13553 0.72783 0.05185 0.0
H2115 H 0.11477 0.71754 0.03043 0.0
C2116 C 0.31918 0.36625 0.05528 0.0
C2117 C 0.32785 0.37561 0.03217 0.0
C2118 C 0.30128 0.36382 0.06292 0.0
C2119 C 0.29167 0.3708 0.04698 0.0
C2120 C 0.30008 0.3798 0.02324 0.0
C2121 C 0.31813 0.38218 0.01615 0.0
C2122 C 0.29289 0.3542 0.08845 0.0
C2123 C 0.2902 0.38727 0.00563 0.0
C2124 C 0.23903 0.34955 0.0658 0.0
C2125 C 0.24039 0.36339 0.08374 0.0
C2126 C 0.25535 0.35243 0.05192 0.0
C2127 C 0.2734 0.36951 0.0562 0.0
C2128 C 0.27436 0.38425 0.07252 0.0
C2129 C 0.25783 0.38103 0.08602 0.0
C2130 C 0.25363 0.33647 0.03441 0.0
C2131 C 0.29324 0.40273 0.07758 0.0
H2132 H 0.32657 0.36111 0.06774 0.0
H2133 H 0.32473 0.38937 0.99821 0.0
H2134 H 0.29163 0.36454 0.10157 0.0
H2135 H 0.27812 0.34167 0.08545 0.0
H2136 H 0.3019 0.34908 0.09821 0.0
H2137 H 0.29781 0.39246 0.98693 0.0
H2138 H 0.27505 0.37575 0.0017 0.0
H2139 H 0.28963 0.3994 0.01526 0.0
H2140 H 0.22561 0.33585 0.06406 0.0
H2141 H 0.25887 0.39184 0.0997 0.0
H2142 H 0.26007 0.32869 0.04421 0.0
H2143 H 0.26168 0.34249 0.01621 0.0
H2144 H 0.2383 0.32586 0.02956 0.0
H2145 H 0.30282 0.39952 0.08961 0.0
H2146 H 0.29107 0.41371 0.0879 0.0
H2147 H 0.30085 0.40901 0.0592 0.0
C2148 C 0.74611 0.72183 0.34951 0.0
C2149 C 0.72904 0.71308 0.36402 0.0
C2150 C 0.76213 0.71998 0.35666 0.0
C2151 C 0.76107 0.70931 0.37899 0.0
C2152 C 0.74372 0.70016 0.39339 0.0
C2153 C 0.72792 0.70209 0.38566 0.0
C2154 C 0.78028 0.72976 0.34069 0.0
C2155 C 0.74198 0.68871 0.41741 0.0
C2156 C 0.79361 0.68913 0.39635 0.0
C2157 C 0.80455 0.70161 0.41663 0.0
C2158 C 0.78047 0.69239 0.38212 0.0
C2159 C 0.77826 0.70844 0.38848 0.0
C2160 C 0.79074 0.7221 0.40714 0.0
C2161 C 0.80377 0.71854 0.42093 0.0
C2162 C 0.7677 0.67766 0.36204 0.0
C2163 C 0.78901 0.73948 0.41446 0.0
H2164 H 0.74703 0.73028 0.33267 0.0
H2165 H 0.71477 0.69527 0.39694 0.0
H2166 H 0.79215 0.74151 0.35219 0.0
H2167 H 0.78501 0.7193 0.33545 0.0
H2168 H 0.77821 0.73606 0.32267 0.0
H2169 H 0.72733 0.68208 0.42603 0.0
H2170 H 0.74518 0.67704 0.41279 0.0
H2171 H 0.75274 0.69829 0.43214 0.0
H2172 H 0.79409 0.67597 0.39305 0.0
H2173 H 0.81234 0.72827 0.43652 0.0
H2174 H 0.76598 0.68486 0.34476 0.0
H2175 H 0.7531 0.66831 0.37022 0.0
H2176 H 0.77357 0.66829 0.3559 0.0
H2177 H 0.78795 0.74687 0.39696 0.0
H2178 H 0.80149 0.75007 0.42642 0.0
H2179 H 0.77558 0.73465 0.42571 0.0
C2180 C 0.31763 0.02907 0.38156 0.0
C2181 C 0.30681 0.01906 0.3596 0.0
C2182 C 0.32009 0.04717 0.38849 0.0
C2183 C 0.3116 0.05558 0.37301 0.0
C2184 C 0.30102 0.04576 0.35046 0.0
C2185 C 0.29869 0.02757 0.34405 0.0
C2186 C 0.33147 0.05711 0.41274 0.0
C2187 C 0.29187 0.0543 0.3334 0.0
C2188 C 0.30391 0.09125 0.41206 0.0
C2189 C 0.32122 0.10856 0.40757 0.0
C2190 C 0.29977 0.07406 0.39924 0.0
C2191 C 0.31324 0.07423 0.38141 0.0
C2192 C 0.32975 0.09207 0.37483 0.0
C2193 C 0.33356 0.10907 0.38803 0.0
C2194 C 0.28191 0.05544 0.40671 0.0
C2195 C 0.34435 0.09295 0.35568 0.0
H2196 H 0.32397 0.02261 0.39365 0.0
H2197 H 0.29035 0.01992 0.327 0.0
H2198 H 0.34356 0.07175 0.40808 0.0
H2199 H 0.32201 0.05895 0.42671 0.0
H2200 H 0.33754 0.04886 0.42229 0.0
H2201 H 0.28526 0.04551 0.31562 0.0
H2202 H 0.28047 0.05531 0.34425 0.0
H2203 H 0.30283 0.0692 0.32771 0.0
H2204 H 0.2943 0.09086 0.42708 0.0
H2205 H 0.34703 0.12238 0.38461 0.0
H2206 H 0.28619 0.04681 0.41893 0.0
H2207 H 0.27441 0.04662 0.38931 0.0
H2208 H 0.27156 0.0581 0.41776 0.0
H2209 H 0.35312 0.08733 0.36485 0.0
H2210 H 0.3543 0.10798 0.34922 0.0
H2211 H 0.33702 0.08375 0.33848 0.0
C2212 C 0.98955 0.28579 0.39066 0.0
C2213 C 0.99451 0.292 0.36509 0.0
C2214 C 0.97171 0.2695 0.39654 0.0
C2215 C 0.95833 0.25911 0.37637 0.0
C2216 C 0.96328 0.26518 0.35044 0.0
C2217 C 0.98136 0.28156 0.34508 0.0
C2218 C 0.96712 0.26352 0.42448 0.0
C2219 C 0.94938 0.25455 0.32847 0.0
C2220 C 0.92108 0.20931 0.39953 0.0
C2221 C 0.90715 0.21313 0.40986 0.0
C2222 C 0.93711 0.22369 0.38617 0.0
C2223 C 0.93912 0.24222 0.38303 0.0
C2224 C 0.92393 0.24533 0.39086 0.0
C2225 C 0.90816 0.23076 0.40429 0.0
C2226 C 0.95287 0.21967 0.37802 0.0
C2227 C 0.92528 0.26472 0.38757 0.0
H2228 H 0.99965 0.29373 0.40622 0.0
H2229 H 0.98512 0.28631 0.32528 0.0
H2230 H 0.95414 0.26419 0.43045 0.0
H2231 H 0.96373 0.24834 0.4268 0.0
H2232 H 0.97927 0.27288 0.43778 0.0
H2233 H 0.95568 0.26061 0.30931 0.0
H2234 H 0.94507 0.23902 0.3287 0.0
H2235 H 0.936 0.25534 0.33089 0.0
H2236 H 0.92044 0.19576 0.40399 0.0
H2237 H 0.89736 0.23371 0.41225 0.0
H2238 H 0.96503 0.2265 0.39215 0.0
H2239 H 0.95863 0.22599 0.3588 0.0
H2240 H 0.94765 0.20391 0.37724 0.0
H2241 H 0.93555 0.27505 0.40217 0.0
H2242 H 0.91104 0.26376 0.3902 0.0
H2243 H 0.93088 0.27072 0.36817 0.0
C2244 C 0.05034 0.40655 0.35371 0.0
C2245 C 0.041 0.38979 0.33827 0.0
C2246 C 0.05047 0.42358 0.34649 0.0
C2247 C 0.04141 0.42392 0.32305 0.0
C2248 C 0.03132 0.40679 0.30796 0.0
C2249 C 0.03111 0.38992 0.31588 0.0
C2250 C 0.06098 0.44139 0.3634 0.0
C2251 C 0.02164 0.40653 0.28266 0.0
C2252 C 0.03058 0.46296 0.3014 0.0
C2253 C 0.04563 0.47313 0.28395 0.0
C2254 C 0.02979 0.44777 0.31607 0.0
C2255 C 0.04413 0.44248 0.31259 0.0
C2256 C 0.06 0.45364 0.29618 0.0
C2257 C 0.06057 0.46887 0.28216 0.0
C2258 C 0.01289 0.43654 0.33383 0.0
C2259 C 0.07551 0.44845 0.2916 0.0
H2260 H 0.05789 0.4065 0.37116 0.0
H2261 H 0.02385 0.37701 0.30387 0.0
H2262 H 0.07452 0.45215 0.35381 0.0
H2263 H 0.05199 0.44824 0.3662 0.0
H2264 H 0.06479 0.43806 0.38264 0.0
H2265 H 0.01355 0.39182 0.27392 0.0
H2266 H 0.01145 0.41196 0.28558 0.0
H2267 H 0.03272 0.4163 0.2687 0.0
H2268 H 0.0189 0.46612 0.30245 0.0
H2269 H 0.07204 0.47663 0.26831 0.0
H2270 H 0.01778 0.4333 0.35229 0.0
H2271 H 1.00249 0.42254 0.32455 0.0
H2272 H 0.00516 0.44453 0.33813 0.0
H2273 H 0.08128 0.44659 0.31025 0.0
H2274 H 0.08774 0.45961 0.28017 0.0
H2275 H 0.06918 0.43447 0.28094 0.0
C2276 C 0.63364 0.65783 0.30579 0.0
C2277 C 0.63483 0.66656 0.32982 0.0
C2278 C 0.61759 0.63987 0.29913 0.0
C2279 C 0.6023 0.63029 0.31695 0.0
C2280 C 0.60354 0.63885 0.34146 0.0
C2281 C 0.61979 0.65693 0.3476 0.0
C2282 C 0.61687 0.63129 0.27275 0.0
C2283 C 0.58757 0.62906 0.36098 0.0
C2284 C 0.55569 0.5954 0.28233 0.0
C2285 C 0.55622 0.57816 0.28343 0.0
C2286 C 0.56975 0.6122 0.29506 0.0
C2287 C 0.58478 0.61175 0.30912 0.0
C2288 C 0.58435 0.59393 0.31221 0.0
C2289 C 0.57002 0.57729 0.29932 0.0
C2290 C 0.56948 0.6308 0.29145 0.0
C2291 C 0.60001 0.59277 0.32715 0.0
H2292 H 0.64521 0.66517 0.29197 0.0
H2293 H 0.62065 0.66358 0.36624 0.0
H2294 H 0.61497 0.61663 0.27477 0.0
H2295 H 0.60426 0.62975 0.2616 0.0
H2296 H 0.63018 0.64032 0.26143 0.0
H2297 H 0.59121 0.63706 0.37969 0.0
H2298 H 0.57404 0.62788 0.35322 0.0
H2299 H 0.58458 0.61414 0.36458 0.0
H2300 H 0.54497 0.59605 0.27006 0.0
H2301 H 0.57058 0.56402 0.30001 0.0
H2302 H 0.58114 0.64027 0.27795 0.0
H2303 H 0.57229 0.63873 0.31009 0.0
H2304 H 0.55545 0.6282 0.28338 0.0
H2305 H 0.61347 0.59935 0.31561 0.0
H2306 H 0.5959 0.57759 0.33147 0.0
H2307 H 0.60331 0.60102 0.3456 0.0
C2308 C 0.3571 0.97427 0.29832 0.0
C2309 C 0.35205 0.97294 0.32446 0.0
C2310 C 0.37506 0.97676 0.29088 0.0
C2311 C 0.38847 0.97818 0.31004 0.0
C2312 C 0.38354 0.97699 0.33651 0.0
C2313 C 0.36531 0.97427 0.34341 0.0
C2314 C 0.37966 0.97781 0.26241 0.0
C2315 C 0.39752 0.97867 0.35748 0.0
C2316 C 0.42634 0.96762 0.28312 0.0
C2317 C 0.44084 0.98617 0.27592 0.0
C2318 C 0.40969 0.96485 0.29599 0.0
C2319 C 0.40764 0.98105 0.30198 0.0
C2320 C 0.42306 0.99992 0.2968 0.0
C2321 C 0.43942 0.00224 0.28367 0.0
C2322 C 0.3936 0.94449 0.30107 0.0
C2323 C 0.42165 0.01761 0.30323 0.0
H2324 H 0.34689 0.97318 0.28357 0.0
H2325 H 0.3615 0.97329 0.36366 0.0
H2326 H 0.39265 0.99193 0.25806 0.0
H2327 H 0.38302 0.96634 0.2572 0.0
H2328 H 0.36751 0.97608 0.24995 0.0
H2329 H 0.39153 0.97751 0.37715 0.0
H2330 H 0.40129 0.96717 0.35498 0.0
H2331 H 0.41116 0.99276 0.35598 0.0
H2332 H 0.42729 0.95515 0.27689 0.0
H2333 H 0.45066 0.0166 0.27813 0.0
H2334 H 0.38152 0.9407 0.28723 0.0
H2335 H 0.38782 0.9433 0.32085 0.0
H2336 H 0.39846 0.93376 0.29879 0.0
H2337 H 0.41138 0.01854 0.2896 0.0
H2338 H 0.43587 0.03114 0.30176 0.0
H2339 H 0.416 0.01663 0.32305 0.0
C2340 C 0.62065 0.97247 0.30651 0.0
C2341 C 0.62471 0.97092 0.3325 0.0
C2342 C 0.60529 0.9753 0.29954 0.0
C2343 C 0.59377 0.97688 0.31906 0.0
C2344 C 0.5978 0.97539 0.3454 0.0
C2345 C 0.61318 0.9723 0.35183 0.0
C2346 C 0.60143 0.97663 0.27118 0.0
C2347 C 0.58598 0.97724 0.36671 0.0
C2348 C 0.5683 0.00194 0.29168 0.0
C2349 C 0.55084 0.98608 0.28307 0.0
C2350 C 0.58174 0.99926 0.30596 0.0
C2351 C 0.5777 0.98023 0.31137 0.0
C2352 C 0.55929 0.9643 0.3049 0.0
C2353 C 0.54601 0.96743 0.2909 0.0
C2354 C 0.60102 0.01668 0.31292 0.0
C2355 C 0.55438 0.94378 0.31022 0.0
H2356 H 0.62944 0.97133 0.29148 0.0
H2357 H 0.61631 0.97116 0.37196 0.0
H2358 H 0.58636 0.96546 0.26608 0.0
H2359 H 0.60298 0.99095 0.2671 0.0
H2360 H 0.61145 0.97463 0.25842 0.0
H2361 H 0.5908 0.9755 0.3862 0.0
H2362 H 0.58708 0.99162 0.36579 0.0
H2363 H 0.57048 0.9662 0.36409 0.0
H2364 H 0.572 0.01638 0.28568 0.0
H2365 H 0.53259 0.95513 0.28406 0.0
H2366 H 0.61215 0.01773 0.29923 0.0
H2367 H 0.60566 0.0153 0.33267 0.0
H2368 H 0.60054 0.03032 0.31189 0.0
H2369 H 0.56205 0.9395 0.29621 0.0
H2370 H 0.53859 0.93344 0.30829 0.0
H2371 H 0.5592 0.94254 0.32991 0.0
C2372 C 0.04794 0.66183 0.30488 0.0
C2373 C 0.04714 0.66714 0.33051 0.0
C2374 C 0.04601 0.64381 0.29886 0.0
C2375 C 0.0431 0.63065 0.31896 0.0
C2376 C 0.0422 0.63586 0.34492 0.0
C2377 C 0.04427 0.65409 0.35041 0.0
C2378 C 0.0471 0.63889 0.27088 0.0
C2379 C 0.03902 0.62218 0.36682 0.0
C2380 C 0.02154 0.58001 0.29148 0.0
C2381 C 0.03829 0.57916 0.28613 0.0
C2382 C 0.02265 0.59598 0.30454 0.0
C2383 C 0.04096 0.61149 0.31229 0.0
C2384 C 0.05763 0.60972 0.30934 0.0
C2385 C 0.05609 0.59353 0.29632 0.0
C2386 C 0.00445 0.59708 0.30764 0.0
C2387 C 0.07742 0.62584 0.31742 0.0
H2388 H 0.05018 0.67183 0.2894 0.0
H2389 H 0.04362 0.65811 0.37027 0.0
H2390 H 0.05901 0.63571 0.26842 0.0
H2391 H 0.03345 0.62572 0.26503 0.0
H2392 H 0.04959 0.6508 0.2576 0.0
H2393 H 0.03867 0.62839 0.38594 0.0
H2394 H 0.02516 0.60845 0.36383 0.0
H2395 H 0.0507 0.61853 0.36714 0.0
H2396 H 0.00775 0.56886 0.28371 0.0
H2397 H 0.0691 0.59302 0.29206 0.0
H2398 H 0.00418 0.607 0.2929 0.0
H2399 H 0.00408 0.60297 0.32695 0.0
H2400 H 0.99121 0.5827 0.30508 0.0
H2401 H 0.08245 0.63782 0.30333 0.0
H2402 H 0.0882 0.62094 0.3181 0.0
H2403 H 0.07693 0.63173 0.33668 0.0
C2404 C 0.36789 0.40732 0.35026 0.0
C2405 C 0.35951 0.39138 0.33327 0.0
C2406 C 0.38556 0.42402 0.34438 0.0
C2407 C 0.39499 0.42479 0.32092 0.0
C2408 C 0.3867 0.40859 0.30394 0.0
C2409 C 0.36912 0.39212 0.31034 0.0
C2410 C 0.39397 0.44095 0.363 0.0
C2411 C 0.39623 0.40875 0.27869 0.0
C2412 C 0.42853 0.46992 0.28388 0.0
C2413 C 0.44617 0.47027 0.28658 0.0
C2414 C 0.41197 0.45626 0.29701 0.0
C2415 C 0.41312 0.44262 0.31321 0.0
C2416 C 0.43138 0.44435 0.31822 0.0
C2417 C 0.44774 0.4582 0.30481 0.0
C2418 C 0.39288 0.45513 0.2913 0.0
C2419 C 0.43333 0.43029 0.33559 0.0
H2420 H 0.36054 0.40683 0.36805 0.0
H2421 H 0.36277 0.37986 0.29712 0.0
H2422 H 0.40917 0.44532 0.36788 0.0
H2423 H 0.39417 0.45355 0.35378 0.0
H2424 H 0.38557 0.4376 0.38118 0.0
H2425 H 0.38814 0.39482 0.26794 0.0
H2426 H 0.39728 0.42048 0.26619 0.0
H2427 H 0.41117 0.41172 0.28236 0.0
H2428 H 0.42732 0.47931 0.26984 0.0
H2429 H 0.46132 0.45832 0.30681 0.0
H2430 H 0.38445 0.45265 0.30925 0.0
H2431 H 0.38418 0.44274 0.27804 0.0
H2432 H 0.39488 0.46851 0.28198 0.0
H2433 H 0.4245 0.42742 0.35326 0.0
H2434 H 0.44862 0.43571 0.3414 0.0
H2435 H 0.42793 0.41632 0.32518 0.0
C2436 C 0.30554 0.27941 0.34491 0.0
C2437 C 0.31363 0.29569 0.36133 0.0
C2438 C 0.3072 0.2631 0.35068 0.0
C2439 C 0.31702 0.26303 0.37351 0.0
C2440 C 0.32551 0.27958 0.38988 0.0
C2441 C 0.32377 0.2957 0.38354 0.0
C2442 C 0.29813 0.24584 0.33263 0.0
C2443 C 0.33605 0.28012 0.4145 0.0
C2444 C 0.3067 0.21817 0.41054 0.0
C2445 C 0.32385 0.21774 0.40673 0.0
C2446 C 0.30351 0.23191 0.3981 0.0
C2447 C 0.31778 0.24547 0.38132 0.0
C2448 C 0.33413 0.24373 0.37529 0.0
C2449 C 0.337 0.22987 0.38813 0.0
C2450 C 0.28579 0.23309 0.40498 0.0
C2451 C 0.34953 0.25767 0.35719 0.0
H2452 H 0.29773 0.27933 0.32765 0.0
H2453 H 0.33007 0.30822 0.39632 0.0
H2454 H 0.30891 0.24158 0.32725 0.0
H2455 H 0.28613 0.23332 0.34256 0.0
H2456 H 0.29233 0.24873 0.31469 0.0
H2457 H 0.34222 0.29425 0.42479 0.0
H2458 H 0.32599 0.26857 0.42772 0.0
H2459 H 0.34798 0.27728 0.41011 0.0
H2460 H 0.29646 0.20872 0.42482 0.0
H2461 H 0.35033 0.22969 0.38524 0.0
H2462 H 0.27899 0.23507 0.3874 0.0
H2463 H 0.2901 0.24582 0.41778 0.0
H2464 H 0.27485 0.21995 0.41521 0.0
H2465 H 0.34292 0.26024 0.33985 0.0
H2466 H 0.35928 0.25231 0.35086 0.0
H2467 H 0.3584 0.27178 0.3672 0.0
C2468 C 0.73039 0.02909 0.34547 0.0
C2469 C 0.7182 0.0172 0.36507 0.0
C2470 C 0.74658 0.04726 0.35136 0.0
C2471 C 0.75086 0.05343 0.3775 0.0
C2472 C 0.73857 0.04142 0.39732 0.0
C2473 C 0.72231 0.02357 0.39083 0.0
C2474 C 0.75908 0.05985 0.32971 0.0
C2475 C 0.74274 0.04728 0.42549 0.0
C2476 C 0.80066 0.08926 0.40361 0.0
C2477 C 0.79805 0.10474 0.41066 0.0
C2478 C 0.7859 0.07292 0.39083 0.0
C2479 C 0.76827 0.07225 0.38463 0.0
C2480 C 0.76643 0.08873 0.38928 0.0
C2481 C 0.78128 0.10472 0.40256 0.0
C2482 C 0.78842 0.05563 0.3865 0.0
C2483 C 0.74811 0.08884 0.38239 0.0
H2484 H 0.72719 0.02424 0.3255 0.0
H2485 H 0.71299 0.0144 0.40606 0.0
H2486 H 0.76002 0.07417 0.33057 0.0
H2487 H 0.77402 0.06244 0.33194 0.0
H2488 H 0.75342 0.05326 0.31036 0.0
H2489 H 0.73198 0.0361 0.43855 0.0
H2490 H 0.75734 0.04994 0.43089 0.0
H2491 H 0.74269 0.06098 0.42882 0.0
H2492 H 0.81352 0.08916 0.41022 0.0
H2493 H 0.77925 0.11667 0.40813 0.0
H2494 H 0.7832 0.0493 0.36697 0.0
H2495 H 0.77967 0.04432 0.40082 0.0
H2496 H 0.80377 0.05941 0.3887 0.0
H2497 H 0.74273 0.08234 0.36295 0.0
H2498 H 0.75032 0.10372 0.38267 0.0
H2499 H 0.7367 0.08001 0.39655 0.0
C2500 C 0.98209 0.69581 0.35089 0.0
C2501 C 0.99877 0.71344 0.35691 0.0
C2502 C 0.96378 0.69191 0.35932 0.0
C2503 C 0.96225 0.70572 0.37484 0.0
C2504 C 0.97895 0.72393 0.37982 0.0
C2505 C 0.99697 0.72766 0.37051 0.0
C2506 C 0.94626 0.67257 0.35285 0.0
C2507 C 0.97809 0.73894 0.39671 0.0
C2508 C 0.91447 0.70139 0.39579 0.0
C2509 C 0.91235 0.69337 0.42047 0.0
C2510 C 0.93016 0.70468 0.37998 0.0
C2511 C 0.94411 0.70012 0.38931 0.0
C2512 C 0.94145 0.69117 0.41367 0.0
C2513 C 0.92549 0.68762 0.42865 0.0
C2514 C 0.93216 0.71365 0.35375 0.0
C2515 C 0.95595 0.68613 0.42456 0.0
H2516 H 0.9834 0.68487 0.3401 0.0
H2517 H 0.00984 0.74131 0.37522 0.0
H2518 H 0.94199 0.66316 0.37011 0.0
H2519 H 0.93381 0.67435 0.34731 0.0
H2520 H 0.94917 0.66509 0.33683 0.0
H2521 H 0.99192 0.75296 0.39676 0.0
H2522 H 0.9663 0.74144 0.39013 0.0
H2523 H 0.97484 0.73361 0.41688 0.0
H2524 H 0.9043 0.70571 0.38924 0.0
H2525 H 0.92358 0.68078 0.44731 0.0
H2526 H 0.93574 0.70586 0.33895 0.0
H2527 H 0.9442 0.72887 0.35427 0.0
H2528 H 0.91874 0.71352 0.34768 0.0
H2529 H 0.95766 0.67623 0.41115 0.0
H2530 H 0.95164 0.6791 0.44376 0.0
H2531 H 0.97031 0.69944 0.42661 0.0
C2532 C 0.38852 0.03156 0.72017 0.0
C2533 C 0.38956 0.04152 0.69746 0.0
C2534 C 0.40346 0.02806 0.72727 0.0
C2535 C 0.41998 0.03482 0.71138 0.0
C2536 C 0.42102 0.04468 0.68822 0.0
C2537 C 0.40575 0.04786 0.68148 0.0
C2538 C 0.40166 0.01734 0.75205 0.0
C2539 C 0.43843 0.05221 0.67088 0.0
C2540 C 0.46283 0.04057 0.75028 0.0
C2541 C 0.46163 0.02269 0.74584 0.0
C2542 C 0.45042 0.04549 0.73736 0.0
C2543 C 0.43631 0.03207 0.71986 0.0
C2544 C 0.43621 0.01472 0.71365 0.0
C2545 C 0.44896 0.01026 0.72669 0.0
C2546 C 0.45127 0.06427 0.74427 0.0
C2547 C 0.42144 1.00002 0.69513 0.0
H2548 H 0.37602 0.02654 0.73256 0.0
H2549 H 0.40665 0.0556 0.6639 0.0
H2550 H 0.40323 0.00455 0.74803 0.0
H2551 H 0.41344 0.02687 0.76569 0.0
H2552 H 0.38756 0.01239 0.7617 0.0
H2553 H 0.4366 0.05871 0.6529 0.0
H2554 H 0.45146 0.06335 0.6814 0.0
H2555 H 0.44118 0.04035 0.66554 0.0
H2556 H 0.47258 0.05012 0.7652 0.0
H2557 H 0.44785 0.99632 0.72351 0.0
H2558 H 0.43881 0.06123 0.75675 0.0
H2559 H 0.45021 0.07155 0.72665 0.0
H2560 H 0.46482 0.07434 0.75487 0.0
H2561 H 0.40712 0.99249 0.70465 0.0
H2562 H 0.42527 0.989 0.68911 0.0
H2563 H 0.41996 0.00715 0.67762 0.0
C2564 C 0.98541 0.36597 0.71636 0.0
C2565 C 0.9757 0.35606 0.69373 0.0
C2566 C 0.98709 0.38378 0.72299 0.0
C2567 C 0.97893 0.39199 0.70654 0.0
C2568 C 0.96953 0.38231 0.6833 0.0
C2569 C 0.96797 0.3644 0.67719 0.0
C2570 C 0.99722 0.39358 0.74801 0.0
C2571 C 0.96077 0.39067 0.66521 0.0
C2572 C 0.96823 0.42585 0.74479 0.0
C2573 C 0.98549 0.44348 0.74181 0.0
C2574 C 0.96506 0.40917 0.73147 0.0
C2575 C 0.97952 0.41019 0.71476 0.0
C2576 C 0.99603 0.4284 0.70959 0.0
C2577 C 0.99884 0.44489 0.72323 0.0
C2578 C 0.94716 0.39013 0.73741 0.0
C2579 C 0.01167 0.43018 0.69165 0.0
H2580 H 0.99146 0.35964 0.7292 0.0
H2581 H 0.96048 0.35681 0.65963 0.0
H2582 H 0.00919 0.40846 0.74415 0.0
H2583 H 0.98691 0.39482 0.76107 0.0
H2584 H 0.00327 0.38557 0.75824 0.0
H2585 H 0.95544 0.38223 0.6469 0.0
H2586 H 0.94847 0.39084 0.6748 0.0
H2587 H 0.97157 0.40586 0.66053 0.0
H2588 H 0.95786 0.42479 0.75908 0.0
H2589 H 0.01226 0.45847 0.721 0.0
H2590 H 0.95116 0.38149 0.75009 0.0
H2591 H 0.94069 0.38161 0.71944 0.0
H2592 H 0.93605 0.39219 0.74744 0.0
H2593 H 0.02043 0.42486 0.70159 0.0
H2594 H 0.02148 0.44542 0.68587 0.0
H2595 H 0.0053 0.4212 0.67399 0.0
C2596 C 0.64551 0.61553 0.67908 0.0
C2597 C 0.65855 0.62765 0.6982 0.0
C2598 C 0.62743 0.59969 0.68579 0.0
C2599 C 0.62254 0.59566 0.71222 0.0
C2600 C 0.63572 0.60789 0.73154 0.0
C2601 C 0.65343 0.62382 0.72428 0.0
C2602 C 0.61359 0.58726 0.66466 0.0
C2603 C 0.63125 0.60398 0.75997 0.0
C2604 C 0.57224 0.56602 0.7399 0.0
C2605 C 0.57202 0.54893 0.74653 0.0
C2606 C 0.58789 0.58077 0.72644 0.0
C2607 C 0.6039 0.57853 0.72013 0.0
C2608 C 0.60305 0.5607 0.7251 0.0
C2609 C 0.58701 0.54604 0.73807 0.0
C2610 C 0.58796 0.59933 0.72091 0.0
C2611 C 0.61986 0.55776 0.71905 0.0
H2612 H 0.64939 0.61851 0.65888 0.0
H2613 H 0.6635 0.63307 0.73914 0.0
H2614 H 0.61082 0.57224 0.66614 0.0
H2615 H 0.59948 0.58661 0.66698 0.0
H2616 H 0.61922 0.59278 0.64506 0.0
H2617 H 0.64321 0.61467 0.77255 0.0
H2618 H 0.61792 0.60437 0.76466 0.0
H2619 H 0.62854 0.5893 0.76473 0.0
H2620 H 0.56065 0.56827 0.74651 0.0
H2621 H 0.587 0.53294 0.74352 0.0
H2622 H 0.59349 0.60455 0.7012 0.0
H2623 H 0.59774 0.61067 0.73487 0.0
H2624 H 0.57329 0.59752 0.72264 0.0
H2625 H 0.62523 0.56271 0.69923 0.0
H2626 H 0.61594 0.54237 0.72083 0.0
H2627 H 0.63196 0.56654 0.73271 0.0
C2628 C 0.70874 0.72753 0.63983 0.0
C2629 C 0.70859 0.72207 0.66558 0.0
C2630 C 0.70737 0.74386 0.63367 0.0
C2631 C 0.70553 0.75494 0.65375 0.0
C2632 C 0.70521 0.74945 0.67983 0.0
C2633 C 0.7069 0.73313 0.68546 0.0
C2634 C 0.70798 0.74929 0.60558 0.0
C2635 C 0.70297 0.76072 0.7017 0.0
C2636 C 0.71974 0.80505 0.63015 0.0
C2637 C 0.70202 0.80189 0.62024 0.0
C2638 C 0.72093 0.79034 0.64334 0.0
C2639 C 0.70394 0.7722 0.64692 0.0
C2640 C 0.68575 0.76979 0.63951 0.0
C2641 C 0.68503 0.78462 0.62601 0.0
C2642 C 0.74062 0.79355 0.65081 0.0
C2643 C 0.66723 0.75086 0.64344 0.0
H2644 H 0.71012 0.7191 0.62437 0.0
H2645 H 0.7067 0.72891 0.70541 0.0
H2646 H 0.69434 0.74892 0.60015 0.0
H2647 H 0.72002 0.76427 0.6025 0.0
H2648 H 0.70993 0.73942 0.59236 0.0
H2649 H 0.70298 0.75457 0.72092 0.0
H2650 H 0.71488 0.77599 0.70131 0.0
H2651 H 0.68922 0.76082 0.69927 0.0
H2652 H 0.73292 0.81831 0.62543 0.0
H2653 H 0.67133 0.78218 0.61829 0.0
H2654 H 0.74497 0.78597 0.63668 0.0
H2655 H 0.7403 0.78749 0.67017 0.0
H2656 H 0.7518 0.80915 0.65093 0.0
H2657 H 0.6662 0.74016 0.62884 0.0
H2658 H 0.65428 0.7525 0.64132 0.0
H2659 H 0.66706 0.74491 0.66285 0.0
C2660 C 0.28239 0.98986 0.6793 0.0
C2661 C 0.29869 0.99848 0.66329 0.0
C2662 C 0.26627 0.97175 0.67296 0.0
C2663 C 0.26646 0.96208 0.65005 0.0
C2664 C 0.28302 0.97061 0.63406 0.0
C2665 C 0.29891 0.98866 0.64089 0.0
C2666 C 0.24894 0.9631 0.69053 0.0
C2667 C 0.28384 0.96081 0.60942 0.0
C2668 C 0.2344 0.90856 0.63535 0.0
C2669 C 0.222 0.90899 0.61642 0.0
C2670 C 0.24804 0.9256 0.6482 0.0
C2671 C 0.24923 0.94341 0.64192 0.0
C2672 C 0.23543 0.94351 0.62472 0.0
C2673 C 0.22198 0.92629 0.61219 0.0
C2674 C 0.26232 0.92479 0.66664 0.0
C2675 C 0.23601 0.9621 0.61763 0.0
H2676 H 0.28214 0.99736 0.69668 0.0
H2677 H 0.31145 0.9952 0.62845 0.0
H2678 H 0.23622 0.96193 0.6801 0.0
H2679 H 0.24521 0.94825 0.69614 0.0
H2680 H 0.25149 0.9719 0.70835 0.0
H2681 H 0.29795 0.96914 0.59946 0.0
H2682 H 0.28138 0.94617 0.61372 0.0
H2683 H 0.27218 0.959 0.59594 0.0
H2684 H 0.23458 0.89525 0.63854 0.0
H2685 H 0.21233 0.92662 0.59762 0.0
H2686 H 0.26459 0.93391 0.68401 0.0
H2687 H 0.2765 0.93055 0.65694 0.0
H2688 H 0.25746 0.90977 0.6729 0.0
H2689 H 0.2378 0.97091 0.63516 0.0
H2690 H 0.22269 0.95939 0.60714 0.0
H2691 H 0.24862 0.97076 0.60502 0.0
C2692 C 0.02772 0.31127 0.63407 0.0
C2693 C 0.02203 0.30834 0.66001 0.0
C2694 C 0.04522 0.31273 0.62642 0.0
C2695 C 0.05759 0.31164 0.64526 0.0
C2696 C 0.0521 0.30905 0.67159 0.0
C2697 C 0.03426 0.30721 0.67863 0.0
C2698 C 0.05034 0.31517 0.59807 0.0
C2699 C 0.06508 0.30825 0.69227 0.0
C2700 C 0.09262 0.29767 0.61688 0.0
C2701 C 0.1085 0.31586 0.61128 0.0
C2702 C 0.07631 0.29601 0.62946 0.0
C2703 C 0.07607 0.31296 0.63698 0.0
C2704 C 0.0928 0.3313 0.63338 0.0
C2705 C 0.10873 0.33255 0.62027 0.0
C2706 C 0.05874 0.27619 0.63258 0.0
C2707 C 0.09334 0.3497 0.64165 0.0
H2708 H 0.01827 0.31205 0.61959 0.0
H2709 H 0.02995 0.30504 0.69874 0.0
H2710 H 0.06415 0.32887 0.59511 0.0
H2711 H 0.0525 0.30319 0.59132 0.0
H2712 H 0.03897 0.31537 0.58583 0.0
H2713 H 0.05901 0.30681 0.71195 0.0
H2714 H 0.06729 0.29581 0.68859 0.0
H2715 H 0.07952 0.32154 0.69172 0.0
H2716 H 0.0923 0.28477 0.60958 0.0
H2717 H 0.12101 0.34662 0.61585 0.0
H2718 H 0.04724 0.2745 0.61887 0.0
H2719 H 0.05284 0.27442 0.65238 0.0
H2720 H 0.06202 0.26445 0.62872 0.0
H2721 H 0.0842 0.35263 0.62832 0.0
H2722 H 0.10827 0.36235 0.6414 0.0
H2723 H 0.0874 0.34823 0.66139 0.0
C2724 C 0.28264 0.30405 0.68281 0.0
C2725 C 0.29382 0.30266 0.66297 0.0
C2726 C 0.26671 0.30643 0.67709 0.0
C2727 C 0.26172 0.30711 0.65095 0.0
C2728 C 0.27295 0.30564 0.63091 0.0
C2729 C 0.28892 0.30358 0.63717 0.0
C2730 C 0.25528 0.30827 0.69895 0.0
C2731 C 0.26805 0.3061 0.60273 0.0
C2732 C 0.21224 0.29452 0.62555 0.0
C2733 C 0.21591 0.31263 0.61691 0.0
C2734 C 0.22654 0.29262 0.63896 0.0
C2735 C 0.24477 0.30928 0.64403 0.0
C2736 C 0.24763 0.3278 0.63796 0.0
C2737 C 0.23321 0.32924 0.62422 0.0
C2738 C 0.22285 0.2726 0.64497 0.0
C2739 C 0.26665 0.34597 0.64352 0.0
H2740 H 0.28643 0.30341 0.7028 0.0
H2741 H 0.29744 0.30243 0.62176 0.0
H2742 H 0.25531 0.32213 0.69734 0.0
H2743 H 0.23998 0.29646 0.69767 0.0
H2744 H 0.2612 0.30774 0.71822 0.0
H2745 H 0.27801 0.30438 0.58952 0.0
H2746 H 0.25304 0.29436 0.59854 0.0
H2747 H 0.26876 0.32002 0.59837 0.0
H2748 H 0.19897 0.28165 0.61961 0.0
H2749 H 0.23605 0.34324 0.61742 0.0
H2750 H 0.22855 0.2722 0.66442 0.0
H2751 H 0.2305 0.2685 0.63065 0.0
H2752 H 0.20719 0.26163 0.64406 0.0
H2753 H 0.27227 0.34539 0.66297 0.0
H2754 H 0.26529 0.35911 0.64241 0.0
H2755 H 0.27749 0.34731 0.62911 0.0
C2756 C 0.7082 0.98493 0.68486 0.0
C2757 C 0.709 0.9973 0.66512 0.0
C2758 C 0.70641 0.96687 0.67902 0.0
C2759 C 0.70571 0.96125 0.65285 0.0
C2760 C 0.70653 0.97373 0.63289 0.0
C2761 C 0.70802 0.99151 0.63927 0.0
C2762 C 0.70526 0.95383 0.70079 0.0
C2763 C 0.70601 0.9684 0.60469 0.0
C2764 C 0.71992 0.92539 0.62846 0.0
C2765 C 0.70195 0.91014 0.62013 0.0
C2766 C 0.72129 0.94161 0.64117 0.0
C2767 C 0.70426 0.94244 0.64587 0.0
C2768 C 0.68597 0.92615 0.63993 0.0
C2769 C 0.68504 0.91025 0.6269 0.0
C2770 C 0.74109 0.95865 0.64705 0.0
C2771 C 0.66743 0.92622 0.64509 0.0
H2772 H 0.70889 0.98932 0.70489 0.0
H2773 H 0.70871 1.00103 0.62393 0.0
H2774 H 0.69175 0.93962 0.69894 0.0
H2775 H 0.71753 0.95108 0.69967 0.0
H2776 H 0.70556 0.96013 0.72011 0.0
H2777 H 0.7071 0.97986 0.59155 0.0
H2778 H 0.71813 0.9658 0.60052 0.0
H2779 H 0.69235 0.9548 0.60023 0.0
H2780 H 0.73302 0.92545 0.62294 0.0
H2781 H 0.67115 0.89846 0.62039 0.0
H2782 H 0.7415 0.96473 0.66652 0.0
H2783 H 0.74447 0.97023 0.63276 0.0
H2784 H 0.75255 0.95468 0.64607 0.0
H2785 H 0.66785 0.93238 0.66452 0.0
H2786 H 0.65458 0.91144 0.6438 0.0
H2787 H 0.66566 0.93544 0.63062 0.0
C2788 C 0.0355 0.7446 0.68664 0.0
C2789 C 0.02678 0.72773 0.67136 0.0
C2790 C 0.05357 0.7605 0.67995 0.0
C2791 C 0.06305 0.75947 0.65743 0.0
C2792 C 0.05444 0.74229 0.64228 0.0
C2793 C 0.03648 0.72668 0.64944 0.0
C2794 C 0.06232 0.77851 0.69662 0.0
C2795 C 0.064 0.7405 0.6181 0.0
C2796 C 0.09766 0.80159 0.61638 0.0
C2797 C 0.11503 0.80166 0.62069 0.0
C2798 C 0.08088 0.78915 0.63011 0.0
C2799 C 0.08151 0.77643 0.64858 0.0
C2800 C 0.0995 0.77794 0.65493 0.0
C2801 C 0.1161 0.79058 0.64087 0.0
C2802 C 0.0621 0.78821 0.62286 0.0
C2803 C 0.10088 0.76484 0.67468 0.0
H2804 H 0.02809 0.74549 0.70364 0.0
H2805 H 0.02989 0.71369 0.63756 0.0
H2806 H 0.07744 0.78287 0.70199 0.0
H2807 H 0.06282 0.79062 0.68557 0.0
H2808 H 0.05394 0.77648 0.71457 0.0
H2809 H 0.05567 0.72597 0.6089 0.0
H2810 H 0.0655 0.75149 0.60383 0.0
H2811 H 0.07877 0.74331 0.62274 0.0
H2812 H 0.09685 0.81024 0.60084 0.0
H2813 H 0.12948 0.79049 0.64415 0.0
H2814 H 0.05371 0.78723 0.64037 0.0
H2815 H 0.05315 0.77503 0.61098 0.0
H2816 H 0.06454 0.801 0.61152 0.0
H2817 H 0.09205 0.76338 0.6919 0.0
H2818 H 0.11608 0.77024 0.68097 0.0
H2819 H 0.09515 0.75019 0.66609 0.0
C2820 C 0.98804 0.63324 0.72388 0.0
C2821 C 0.97917 0.63393 0.70077 0.0
C2822 C 0.98965 0.61703 0.73008 0.0
C2823 C 0.98235 0.60112 0.71265 0.0
C2824 C 0.97384 0.60193 0.68894 0.0
C2825 C 0.97227 0.6183 0.68333 0.0
C2826 C 0.99874 0.61675 0.75566 0.0
C2827 C 0.96607 0.58536 0.66977 0.0
C2828 C 1.00149 0.5674 0.72837 0.0
C2829 C 0.98714 0.55438 0.74509 0.0
C2830 C 0.99947 0.58188 0.71583 0.0
C2831 C 0.98276 0.58335 0.72025 0.0
C2832 C 0.96748 0.56909 0.73517 0.0
C2833 C 0.96984 0.55475 0.74734 0.0
C2834 C 0.01595 0.59659 0.69972 0.0
C2835 C 0.94936 0.56999 0.74032 0.0
H2836 H 0.99342 0.64526 0.73744 0.0
H2837 H 0.96546 0.61877 0.66537 0.0
H2838 H 0.98796 0.60471 0.76767 0.0
H2839 H 0.01097 0.61415 0.75244 0.0
H2840 H 0.00419 0.63049 0.76671 0.0
H2841 H 0.96132 0.58886 0.65136 0.0
H2842 H 0.97727 0.58144 0.66545 0.0
H2843 H 0.95357 0.57242 0.67823 0.0
H2844 H 0.01493 0.56724 0.7267 0.0
H2845 H 0.95868 0.54461 0.76013 0.0
H2846 H 0.02405 0.6103 0.71087 0.0
H2847 H 0.01044 0.5998 0.68179 0.0
H2848 H 0.02618 0.59158 0.69439 0.0
H2849 H 0.95289 0.58231 0.75357 0.0
H2850 H 0.93789 0.55653 0.74934 0.0
H2851 H 0.94355 0.5725 0.72213 0.0
C2852 C 0.3912 0.35562 0.72028 0.0
C2853 C 0.38609 0.35 0.6944 0.0
C2854 C 0.40699 0.37379 0.72677 0.0
C2855 C 0.41787 0.38683 0.7069 0.0
C2856 C 0.41267 0.38137 0.68069 0.0
C2857 C 0.39688 0.36293 0.67473 0.0
C2858 C 0.4121 0.37894 0.755 0.0
C2859 C 0.42376 0.39498 0.65903 0.0
C2860 C 0.4461 0.43748 0.73457 0.0
C2861 C 0.46361 0.43847 0.74126 0.0
C2862 C 0.43164 0.42149 0.72086 0.0
C2863 C 0.4347 0.40606 0.71407 0.0
C2864 C 0.45309 0.40794 0.71853 0.0
C2865 C 0.46739 0.42421 0.732 0.0
C2866 C 0.41242 0.42029 0.71603 0.0
C2867 C 0.457 0.39185 0.71165 0.0
H2868 H 0.38298 0.34568 0.73558 0.0
H2869 H 0.39295 0.35866 0.65469 0.0
H2870 H 0.42718 0.38237 0.75878 0.0
H2871 H 0.41129 0.39203 0.75999 0.0
H2872 H 0.40232 0.36706 0.76806 0.0
H2873 H 0.41764 0.38871 0.63969 0.0
H2874 H 0.42366 0.40873 0.6614 0.0
H2875 H 0.4391 0.39861 0.65975 0.0
H2876 H 0.4432 0.44854 0.74172 0.0
H2877 H 0.48084 0.42485 0.73737 0.0
H2878 H 0.40178 0.41048 0.73039 0.0
H2879 H 0.4067 0.41424 0.69651 0.0
H2880 H 0.41354 0.43468 0.71782 0.0
H2881 H 0.44955 0.37989 0.72566 0.0
H2882 H 0.47271 0.39679 0.71224 0.0
H2883 H 0.45123 0.3859 0.69211 0.0
C2884 C 0.65038 0.04668 0.6811 0.0
C2885 C 0.66001 0.03993 0.69698 0.0
C2886 C 0.63199 0.04367 0.68772 0.0
C2887 C 0.62312 0.0338 0.71082 0.0
C2888 C 0.63265 0.02662 0.72658 0.0
C2889 C 0.6509 0.02973 0.71944 0.0
C2890 C 0.62225 0.05141 0.67033 0.0
C2891 C 0.62378 0.01606 0.75143 0.0
C2892 C 0.58768 0.04172 0.74975 0.0
C2893 C 0.57049 0.024 0.74619 0.0
C2894 C 0.60465 0.04577 0.73672 0.0
C2895 C 0.60443 0.03177 0.71962 0.0
C2896 C 0.58668 0.01463 0.71411 0.0
C2897 C 0.56988 0.01093 0.72751 0.0
C2898 C 0.62317 0.06428 0.74309 0.0
C2899 C 0.58575 0.99944 0.69578 0.0
H2900 H 0.65731 0.05453 0.66366 0.0
H2901 H 0.65821 0.02443 0.73179 0.0
H2902 H 0.60729 0.03981 0.66553 0.0
H2903 H 0.62115 0.06304 0.68055 0.0
H2904 H 0.63028 0.05734 0.65205 0.0
H2905 H 0.63276 0.01086 0.76106 0.0
H2906 H 0.62195 0.02579 0.76504 0.0
H2907 H 0.6092 0.00345 0.74751 0.0
H2908 H 0.58814 0.05192 0.76404 0.0
H2909 H 0.55668 0.99716 0.72479 0.0
H2910 H 0.63118 0.07129 0.7252 0.0
H2911 H 0.63264 0.06093 0.75514 0.0
H2912 H 0.62045 0.07472 0.75389 0.0
H2913 H 0.59419 0.0062 0.67806 0.0
H2914 H 0.57061 0.98876 0.69011 0.0
H2915 H 0.59223 0.99158 0.70528 0.0
loop_
_geom_bond_atom_site_label_1
_geom_bond_atom_site_label_2
_geom_bond_distance
_geom_bond_site_symmetry_2
_ccdc_geom_bond_type
In0 O1 2.294 1_455 S
In0 O2 2.326 . S
In0 O6 2.266 1_455 S
In0 O7 2.326 1_454 S
In0 O8 2.266 1_554 S
In0 O9 2.326 1_454 S
In0 O11 2.294 . S
In0 O12 2.326 . S
O1 In0 2.294 1_655 S
O1 C10 1.240 1_655 S
O2 In0 2.326 . S
O2 C10 1.252 . S
C3 O6 1.252 1_556 S
C3 O7 1.260 . S
C4 O11 1.240 . S
C4 O12 1.252 . S
C5 O8 1.252 . S
C5 O9 1.260 1_455 S
O6 In0 2.266 1_655 S
O6 C3 1.252 1_554 S
O7 In0 2.326 1_656 S
O7 C3 1.260 . S
O8 In0 2.266 1_556 S
O8 C5 1.252 . S
O9 In0 2.326 1_656 S
O9 C5 1.260 1_655 S
C10 O1 1.240 1_455 S
C10 O2 1.252 . S
O11 In0 2.294 . S
O11 C4 1.240 . S
O12 In0 2.326 . S
O12 C4 1.252 . S
In13 O14 2.294 . S
In13 O15 2.326 . S
In13 O19 2.266 . S
In13 O20 2.326 1_554 S
In13 O21 2.266 1_554 S
In13 O22 2.326 1_554 S
In13 O24 2.294 . S
In13 O25 2.326 . S
O14 In13 2.294 . S
O14 C23 1.240 . S
O15 In13 2.326 . S
O15 C23 1.252 . S
C16 O19 1.252 1_556 S
C16 O20 1.260 . S
C17 O24 1.240 . S
C17 O25 1.252 . S
C18 O21 1.252 . S
C18 O22 1.260 . S
O19 In13 2.266 . S
O19 C16 1.252 1_554 S
O20 In13 2.326 1_556 S
O20 C16 1.260 . S
O21 In13 2.266 1_556 S
O21 C18 1.252 . S
O22 In13 2.326 1_556 S
O22 C18 1.260 . S
C23 O14 1.240 . S
C23 O15 1.252 . S
O24 In13 2.294 . S
O24 C17 1.240 . S
O25 In13 2.326 . S
O25 C17 1.252 . S
In26 O27 2.294 . S
In26 O28 2.326 1_554 S
In26 O32 2.266 . S
In26 O33 2.326 1_545 S
In26 O34 2.266 1_545 S
In26 O35 2.326 1_545 S
In26 O37 2.294 1_544 S
In26 O38 2.326 1_554 S
O27 In26 2.294 . S
O27 C36 1.240 1_554 S
O28 In26 2.326 1_556 S
O28 C36 1.252 . S
C29 O32 1.252 . S
C29 O33 1.260 1_545 S
C30 O37 1.240 1_545 S
C30 O38 1.252 . S
C31 O34 1.252 . S
C31 O35 1.260 . S
O32 In26 2.266 . S
O32 C29 1.252 . S
O33 In26 2.326 1_565 S
O33 C29 1.260 1_565 S
O34 In26 2.266 1_565 S
O34 C31 1.252 . S
O35 In26 2.326 1_565 S
O35 C31 1.260 . S
C36 O27 1.240 1_556 S
C36 O28 1.252 . S
O37 In26 2.294 1_566 S
O37 C30 1.240 1_565 S
O38 In26 2.326 1_556 S
O38 C30 1.252 . S
In39 O40 2.294 1_554 S
In39 O41 2.326 1_454 S
In39 O45 2.266 . S
In39 O46 2.326 . S
In39 O47 2.266 1_455 S
In39 O48 2.326 . S
In39 O50 2.294 1_455 S
In39 O51 2.326 1_454 S
O40 In39 2.294 1_556 S
O40 C49 1.240 . S
O41 In39 2.326 1_656 S
O41 C49 1.252 1_655 S
C42 O45 1.252 . S
C42 O46 1.260 . S
C43 O50 1.240 1_556 S
C43 O51 1.252 . S
C44 O47 1.252 1_455 S
C44 O48 1.260 . S
O45 In39 2.266 . S
O45 C42 1.252 . S
O46 In39 2.326 . S
O46 C42 1.260 . S
O47 In39 2.266 1_655 S
O47 C44 1.252 1_655 S
O48 In39 2.326 . S
O48 C44 1.260 . S
C49 O40 1.240 . S
C49 O41 1.252 1_455 S
O50 In39 2.294 1_655 S
O50 C43 1.240 1_554 S
O51 In39 2.326 1_656 S
O51 C43 1.252 . S
In52 O53 2.294 1_554 S
In52 O54 2.326 1_554 S
In52 O58 2.266 . S
In52 O59 2.326 . S
In52 O60 2.266 . S
In52 O61 2.326 . S
In52 O63 2.294 . S
In52 O64 2.326 1_554 S
O53 In52 2.294 1_556 S
O53 C62 1.240 . S
O54 In52 2.326 1_556 S
O54 C62 1.252 . S
C55 O58 1.252 . S
C55 O59 1.260 . S
C56 O63 1.240 1_556 S
C56 O64 1.252 . S
C57 O60 1.252 . S
C57 O61 1.260 . S
O58 In52 2.266 . S
O58 C55 1.252 . S
O59 In52 2.326 . S
O59 C55 1.260 . S
O60 In52 2.266 . S
O60 C57 1.252 . S
O61 In52 2.326 . S
O61 C57 1.260 . S
C62 O53 1.240 . S
C62 O54 1.252 . S
O63 In52 2.294 . S
O63 C56 1.240 1_554 S
O64 In52 2.326 1_556 S
O64 C56 1.252 . S
In65 O66 2.294 . S
In65 O67 2.326 1_545 S
In65 O71 2.266 . S
In65 O72 2.326 1_554 S
In65 O73 2.266 1_544 S
In65 O74 2.326 1_554 S
In65 O76 2.294 1_545 S
In65 O77 2.326 1_545 S
O66 In65 2.294 . S
O66 C75 1.240 . S
O67 In65 2.326 1_565 S
O67 C75 1.252 1_565 S
C68 O71 1.252 1_556 S
C68 O72 1.260 . S
C69 O76 1.240 . S
C69 O77 1.252 . S
C70 O73 1.252 1_545 S
C70 O74 1.260 . S
O71 In65 2.266 . S
O71 C68 1.252 1_554 S
O72 In65 2.326 1_556 S
O72 C68 1.260 . S
O73 In65 2.266 1_566 S
O73 C70 1.252 1_565 S
O74 In65 2.326 1_556 S
O74 C70 1.260 . S
C75 O66 1.240 . S
C75 O67 1.252 1_545 S
O76 In65 2.294 1_565 S
O76 C69 1.240 . S
O77 In65 2.326 1_565 S
O77 C69 1.252 . S
In78 O79 2.294 . S
In78 O80 2.326 . S
In78 O84 2.266 . S
In78 O85 2.326 . S
In78 O86 2.266 . S
In78 O87 2.326 . S
In78 O89 2.294 . S
In78 O90 2.326 . S
O79 In78 2.294 . S
O79 C88 1.240 . S
O80 In78 2.326 . S
O80 C88 1.252 . S
C81 O84 1.252 . S
C81 O85 1.260 . S
C82 O89 1.240 . S
C82 O90 1.252 . S
C83 O86 1.252 . S
C83 O87 1.260 . S
O84 In78 2.266 . S
O84 C81 1.252 . S
O85 In78 2.326 . S
O85 C81 1.260 . S
O86 In78 2.266 . S
O86 C83 1.252 . S
O87 In78 2.326 . S
O87 C83 1.260 . S
C88 O79 1.240 . S
C88 O80 1.252 . S
O89 In78 2.294 . S
O89 C82 1.240 . S
O90 In78 2.326 . S
O90 C82 1.252 . S
In91 O92 2.294 . S
In91 O93 2.326 . S
In91 O97 2.266 . S
In91 O98 2.321 1_565 S
In91 O99 2.266 . S
In91 O100 2.326 . S
In91 O102 2.294 1_565 S
In91 O103 2.326 1_565 S
O92 In91 2.294 . S
O92 C101 1.240 . S
O93 In91 2.326 . S
O93 C101 1.252 . S
C94 O97 1.252 . S
C94 O98 1.212 1_565 S
C95 O102 1.240 . S
C95 O103 1.252 . S
C96 O99 1.252 . S
C96 O100 1.260 . S
O97 In91 2.266 . S
O97 C94 1.252 . S
O98 In91 2.321 1_545 S
O98 C94 1.212 1_545 S
O99 In91 2.266 . S
O99 C96 1.252 . S
O100 In91 2.326 . S
O100 C96 1.260 . S
C101 O92 1.240 . S
C101 O93 1.252 . S
O102 In91 2.294 1_545 S
O102 C95 1.240 . S
O103 In91 2.326 1_545 S
O103 C95 1.252 . S
In104 O105 2.294 . S
In104 O106 2.326 . S
In104 O110 2.266 . S
In104 O111 2.326 . S
In104 O112 2.293 . S
In104 O113 2.326 . S
In104 O115 2.294 . S
In104 O116 2.326 . S
O105 In104 2.294 . S
O105 C114 1.240 . S
O106 In104 2.326 . S
O106 C114 1.252 . S
C107 O110 1.252 . S
C107 O111 1.260 . S
C108 O115 1.240 . S
C108 O116 1.252 . S
C109 O112 1.212 1_655 S
C109 O113 1.260 1_655 S
O110 In104 2.266 . S
O110 C107 1.252 . S
O111 In104 2.326 . S
O111 C107 1.260 . S
O112 In104 2.293 . S
O112 C109 1.212 1_455 S
O113 In104 2.326 . S
O113 C109 1.260 1_455 S
C114 O105 1.240 . S
C114 O106 1.252 . S
O115 In104 2.294 . S
O115 C108 1.240 . S
O116 In104 2.326 . S
O116 C108 1.252 . S
In117 O118 2.294 . S
In117 O119 2.326 . S
In117 O123 2.266 1_565 S
In117 O124 2.326 1_565 S
In117 O125 2.266 . S
In117 O126 2.326 . S
In117 O128 2.294 . S
In117 O129 2.339 . S
O118 In117 2.294 . S
O118 C127 1.240 . S
O119 In117 2.326 . S
O119 C127 1.252 . S
C120 O123 1.252 . S
C120 O124 1.260 . S
C121 O128 1.240 . S
C121 O129 1.252 . S
C122 O125 1.252 . S
C122 O126 1.260 . S
O123 In117 2.266 1_545 S
O123 C120 1.252 . S
O124 In117 2.326 1_545 S
O124 C120 1.260 . S
O125 In117 2.266 . S
O125 C122 1.252 . S
O126 In117 2.326 . S
O126 C122 1.260 . S
C127 O118 1.240 . S
C127 O119 1.252 . S
O128 In117 2.294 . S
O128 C121 1.240 . S
O129 In117 2.339 . S
O129 C121 1.252 . S
In130 O131 2.294 . S
In130 O132 2.326 . S
In130 O136 2.312 . S
In130 O137 2.326 . S
In130 O138 2.266 . S
In130 O139 2.326 . S
In130 O141 2.294 . S
In130 O142 2.326 . S
O131 In130 2.294 . S
O131 C140 1.240 . S
O132 In130 2.326 . S
O132 C140 1.252 . S
C133 O136 1.248 1_655 S
C133 O137 1.260 1_655 S
C134 O141 1.240 . S
C134 O142 1.252 . S
C135 O138 1.252 . S
C135 O139 1.260 . S
O136 In130 2.312 . S
O136 C133 1.248 1_455 S
O137 In130 2.326 . S
O137 C133 1.260 1_455 S
O138 In130 2.266 . S
O138 C135 1.252 . S
O139 In130 2.326 . S
O139 C135 1.260 . S
C140 O131 1.240 . S
C140 O132 1.252 . S
O141 In130 2.294 . S
O141 C134 1.240 . S
O142 In130 2.326 . S
O142 C134 1.252 . S
In143 O144 2.294 . S
In143 O145 2.326 . S
In143 O149 2.266 . S
In143 O150 2.326 . S
In143 O151 2.266 . S
In143 O152 2.326 . S
In143 O154 2.294 . S
In143 O155 2.326 . S
O144 In143 2.294 . S
O144 C153 1.240 . S
O145 In143 2.326 . S
O145 C153 1.252 . S
C146 O149 1.252 . S
C146 O150 1.260 . S
C147 O154 1.240 . S
C147 O155 1.252 . S
C148 O151 1.252 . S
C148 O152 1.260 . S
O149 In143 2.266 . S
O149 C146 1.252 . S
O150 In143 2.326 . S
O150 C146 1.260 . S
O151 In143 2.266 . S
O151 C148 1.252 . S
O152 In143 2.326 . S
O152 C148 1.260 . S
C153 O144 1.240 . S
C153 O145 1.252 . S
O154 In143 2.294 . S
O154 C147 1.240 . S
O155 In143 2.326 . S
O155 C147 1.252 . S
In156 O157 2.294 . S
In156 O158 2.326 . S
In156 O162 2.266 . S
In156 O163 2.326 . S
In156 O164 2.289 . S
In156 O165 2.326 . S
In156 O167 2.294 . S
In156 O168 2.326 . S
O157 In156 2.294 . S
O157 C166 1.240 . S
O158 In156 2.326 . S
O158 C166 1.252 . S
C159 O162 1.252 . S
C159 O163 1.260 . S
C160 O167 1.240 . S
C160 O168 1.252 . S
C161 O164 1.218 1_565 S
C161 O165 1.260 1_565 S
O162 In156 2.266 . S
O162 C159 1.252 . S
O163 In156 2.326 . S
O163 C159 1.260 . S
O164 In156 2.289 . S
O164 C161 1.218 1_545 S
O165 In156 2.326 . S
O165 C161 1.260 1_545 S
C166 O157 1.240 . S
C166 O158 1.252 . S
O167 In156 2.294 . S
O167 C160 1.240 . S
O168 In156 2.326 . S
O168 C160 1.252 . S
In169 O170 2.294 . S
In169 O171 2.327 . S
In169 O175 2.266 . S
In169 O176 2.326 . S
In169 O177 2.266 1_655 S
In169 O178 2.326 1_655 S
In169 O180 2.294 . S
In169 O181 2.326 . S
O170 In169 2.294 . S
O170 C179 1.240 . S
O171 In169 2.327 . S
O171 C179 1.263 . S
C172 O175 1.252 . S
C172 O176 1.260 . S
C173 O180 1.240 . S
C173 O181 1.252 . S
C174 O177 1.252 . S
C174 O178 1.260 . S
O175 In169 2.266 . S
O175 C172 1.252 . S
O176 In169 2.326 . S
O176 C172 1.260 . S
O177 In169 2.266 1_455 S
O177 C174 1.252 . S
O178 In169 2.326 1_455 S
O178 C174 1.260 . S
C179 O170 1.240 . S
C179 O171 1.263 . S
O180 In169 2.294 . S
O180 C173 1.240 . S
O181 In169 2.326 . S
O181 C173 1.252 . S
In182 O183 2.294 . S
In182 O184 2.326 . S
In182 O188 2.266 . S
In182 O189 2.326 . S
In182 O190 2.266 . S
In182 O191 2.326 . S
In182 O193 2.294 . S
In182 O194 2.326 . S
O183 In182 2.294 . S
O183 C192 1.240 . S
O184 In182 2.326 . S
O184 C192 1.252 . S
C185 O188 1.252 . S
C185 O189 1.260 . S
C186 O193 1.240 . S
C186 O194 1.252 . S
C187 O190 1.252 . S
C187 O191 1.260 . S
O188 In182 2.266 . S
O188 C185 1.252 . S
O189 In182 2.326 . S
O189 C185 1.260 . S
O190 In182 2.266 . S
O190 C187 1.252 . S
O191 In182 2.326 . S
O191 C187 1.260 . S
C192 O183 1.240 . S
C192 O184 1.252 . S
O193 In182 2.294 . S
O193 C186 1.240 . S
O194 In182 2.326 . S
O194 C186 1.252 . S
In195 O196 2.294 . S
In195 O197 2.326 . S
In195 O201 2.266 . S
In195 O202 2.326 . S
In195 O203 2.266 . S
In195 O204 2.326 . S
In195 O206 2.294 . S
In195 O207 2.326 . S
O196 In195 2.294 . S
O196 C205 1.240 . S
O197 In195 2.326 . S
O197 C205 1.252 . S
C198 O201 1.252 . S
C198 O202 1.260 . S
C199 O206 1.240 . S
C199 O207 1.252 . S
C200 O203 1.252 . S
C200 O204 1.260 . S
O201 In195 2.266 . S
O201 C198 1.252 . S
O202 In195 2.326 . S
O202 C198 1.260 . S
O203 In195 2.266 . S
O203 C200 1.252 . S
O204 In195 2.326 . S
O204 C200 1.260 . S
C205 O196 1.240 . S
C205 O197 1.252 . S
O206 In195 2.294 . S
O206 C199 1.240 . S
O207 In195 2.326 . S
O207 C199 1.252 . S
In208 O209 2.294 . S
In208 O210 2.326 . S
In208 O214 2.266 . S
In208 O215 2.326 . S
In208 O216 2.266 . S
In208 O217 2.326 . S
In208 O219 2.294 . S
In208 O220 2.326 . S
O209 In208 2.294 . S
O209 C218 1.240 . S
O210 In208 2.326 . S
O210 C218 1.252 . S
C211 O214 1.252 . S
C211 O215 1.260 . S
C212 O219 1.240 1_565 S
C212 O220 1.252 1_565 S
C213 O216 1.252 . S
C213 O217 1.260 . S
O214 In208 2.266 . S
O214 C211 1.252 . S
O215 In208 2.326 . S
O215 C211 1.260 . S
O216 In208 2.266 . S
O216 C213 1.252 . S
O217 In208 2.326 . S
O217 C213 1.260 . S
C218 O209 1.240 . S
C218 O210 1.252 . S
O219 In208 2.294 . S
O219 C212 1.240 1_545 S
O220 In208 2.326 . S
O220 C212 1.252 1_545 S
In221 O222 2.294 . S
In221 O223 2.353 . S
In221 O227 2.266 . S
In221 O228 2.326 . S
In221 O229 2.266 1_655 S
In221 O230 2.326 1_655 S
In221 O232 2.294 . S
In221 O233 2.326 . S
O222 In221 2.294 . S
O222 C231 1.240 . S
O223 In221 2.353 . S
O223 C231 1.251 . S
C224 O227 1.252 . S
C224 O228 1.260 . S
C225 O232 1.240 . S
C225 O233 1.252 . S
C226 O229 1.252 . S
C226 O230 1.260 . S
O227 In221 2.266 . S
O227 C224 1.252 . S
O228 In221 2.326 . S
O228 C224 1.260 . S
O229 In221 2.266 1_455 S
O229 C226 1.252 . S
O230 In221 2.326 1_455 S
O230 C226 1.260 . S
C231 O222 1.240 . S
C231 O223 1.251 . S
O232 In221 2.294 . S
O232 C225 1.240 . S
O233 In221 2.326 . S
O233 C225 1.252 . S
H234 C242 0.930 . S
H235 C245 0.930 . S
H236 C247 0.930 . S
H237 C248 0.970 . S
H238 C248 0.970 . S
H239 C250 0.930 . S
H240 C252 0.930 . S
H241 C254 0.930 . S
C242 H234 0.930 . S
C242 C243 1.382 . S
C242 C244 1.426 . S
C243 C242 1.382 . S
C243 C247 1.389 . S
C244 C242 1.426 . S
C244 C245 1.375 . S
C244 C248 1.532 . S
C245 H235 0.930 . S
C245 C244 1.375 . S
C245 C246 1.416 . S
C246 C245 1.416 . S
C246 C247 1.371 . S
C247 H236 0.930 . S
C247 C243 1.389 . S
C247 C246 1.371 . S
C248 H237 0.970 . S
C248 H238 0.970 . S
C248 C244 1.532 . S
C248 C249 1.499 . S
C249 C248 1.499 . S
C249 C250 1.370 . S
C249 C254 1.415 . S
C250 H239 0.930 . S
C250 C249 1.370 . S
C250 C251 1.407 . S
C251 C250 1.407 . S
C251 C252 1.365 . S
C252 H240 0.930 . S
C252 C251 1.365 . S
C252 C253 1.393 . S
C253 C252 1.393 . S
C253 C254 1.387 . S
C254 H241 0.930 . S
C254 C249 1.415 . S
C254 C253 1.387 . S
H255 C263 0.930 . S
H256 C266 0.930 . S
H257 C268 0.930 . S
H258 C269 0.970 . S
H259 C269 0.970 . S
H260 C271 0.930 . S
H261 C273 0.930 . S
H262 C275 0.930 . S
C263 H255 0.930 . S
C263 C264 1.382 . S
C263 C265 1.426 . S
C264 C263 1.382 . S
C264 C268 1.389 . S
C265 C263 1.426 . S
C265 C266 1.375 . S
C265 C269 1.532 . S
C266 H256 0.930 . S
C266 C265 1.375 . S
C266 C267 1.416 . S
C267 C266 1.416 . S
C267 C268 1.371 . S
C268 H257 0.930 . S
C268 C264 1.389 . S
C268 C267 1.371 . S
C269 H258 0.970 . S
C269 H259 0.970 . S
C269 C265 1.532 . S
C269 C270 1.499 . S
C270 C269 1.499 . S
C270 C271 1.370 . S
C270 C275 1.415 . S
C271 H260 0.930 . S
C271 C270 1.370 . S
C271 C272 1.407 . S
C272 C271 1.407 . S
C272 C273 1.365 . S
C273 H261 0.930 . S
C273 C272 1.365 . S
C273 C274 1.393 . S
C274 C273 1.393 . S
C274 C275 1.387 . S
C275 H262 0.930 . S
C275 C270 1.415 . S
C275 C274 1.387 . S
H276 C284 0.930 . S
H277 C287 0.930 . S
H278 C289 0.930 . S
H279 C290 0.970 . S
H280 C290 0.970 . S
H281 C292 0.930 . S
H282 C294 0.930 . S
H283 C296 0.930 . S
C284 H276 0.930 . S
C284 C285 1.382 . S
C284 C286 1.426 . S
C285 C284 1.382 . S
C285 C289 1.389 . S
C286 C284 1.426 . S
C286 C287 1.375 . S
C286 C290 1.532 . S
C287 H277 0.930 . S
C287 C286 1.375 . S
C287 C288 1.416 . S
C288 C287 1.416 . S
C288 C289 1.371 . S
C289 H278 0.930 . S
C289 C285 1.389 . S
C289 C288 1.371 . S
C290 H279 0.970 . S
C290 H280 0.970 . S
C290 C286 1.532 . S
C290 C291 1.499 . S
C291 C290 1.499 . S
C291 C292 1.370 . S
C291 C296 1.415 . S
C292 H281 0.930 . S
C292 C291 1.370 . S
C292 C293 1.407 . S
C293 C292 1.407 . S
C293 C294 1.365 . S
C294 H282 0.930 . S
C294 C293 1.365 . S
C294 C295 1.393 . S
C295 C294 1.393 . S
C295 C296 1.387 . S
C296 H283 0.930 . S
C296 C291 1.415 . S
C296 C295 1.387 . S
H297 C305 0.930 . S
H298 C308 0.930 . S
H299 C310 0.930 . S
H300 C311 0.970 . S
H301 C311 0.970 . S
H302 C313 0.930 . S
H303 C315 0.930 . S
H304 C317 0.930 . S
C305 H297 0.930 . S
C305 C306 1.382 . S
C305 C307 1.426 . S
C306 C305 1.382 . S
C306 C310 1.389 . S
C307 C305 1.426 . S
C307 C308 1.375 . S
C307 C311 1.532 . S
C308 H298 0.930 . S
C308 C307 1.375 . S
C308 C309 1.416 . S
C309 C308 1.416 . S
C309 C310 1.371 . S
C310 H299 0.930 . S
C310 C306 1.389 . S
C310 C309 1.371 . S
C311 H300 0.970 . S
C311 H301 0.970 . S
C311 C307 1.532 . S
C311 C312 1.499 . S
C312 C311 1.499 . S
C312 C313 1.370 . S
C312 C317 1.415 . S
C313 H302 0.930 . S
C313 C312 1.370 . S
C313 C314 1.407 . S
C314 C313 1.407 . S
C314 C315 1.365 . S
C315 H303 0.930 . S
C315 C314 1.365 . S
C315 C316 1.393 . S
C316 C315 1.393 . S
C316 C317 1.387 . S
C317 H304 0.930 . S
C317 C312 1.415 . S
C317 C316 1.387 . S
H318 C326 0.930 . S
H319 C329 0.930 . S
H320 C331 0.930 . S
H321 C332 0.970 . S
H322 C332 0.970 . S
H323 C334 0.930 . S
H324 C336 0.930 . S
H325 C338 0.930 . S
C326 H318 0.930 . S
C326 C327 1.382 . S
C326 C328 1.426 . S
C327 C326 1.382 . S
C327 C331 1.389 . S
C328 C326 1.426 . S
C328 C329 1.375 . S
C328 C332 1.532 . S
C329 H319 0.930 . S
C329 C328 1.375 . S
C329 C330 1.416 . S
C330 C329 1.416 . S
C330 C331 1.371 . S
C331 H320 0.930 . S
C331 C327 1.389 . S
C331 C330 1.371 . S
C332 H321 0.970 . S
C332 H322 0.970 . S
C332 C328 1.532 . S
C332 C333 1.499 . S
C333 C332 1.499 . S
C333 C334 1.370 . S
C333 C338 1.415 . S
C334 H323 0.930 . S
C334 C333 1.370 . S
C334 C335 1.407 . S
C335 C334 1.407 . S
C335 C336 1.365 . S
C336 H324 0.930 . S
C336 C335 1.365 . S
C336 C337 1.393 . S
C337 C336 1.393 . S
C337 C338 1.387 . S
C338 H325 0.930 . S
C338 C333 1.415 . S
C338 C337 1.387 . S
H339 C347 0.930 . S
H340 C350 0.930 . S
H341 C352 0.930 . S
H342 C353 0.970 . S
H343 C353 0.970 . S
H344 C355 0.930 . S
H345 C357 0.930 . S
H346 C359 0.930 . S
C347 H339 0.930 . S
C347 C348 1.382 . S
C347 C349 1.426 . S
C348 C347 1.382 . S
C348 C352 1.389 . S
C349 C347 1.426 . S
C349 C350 1.375 . S
C349 C353 1.532 . S
C350 H340 0.930 . S
C350 C349 1.375 . S
C350 C351 1.416 . S
C351 C350 1.416 . S
C351 C352 1.371 . S
C352 H341 0.930 . S
C352 C348 1.389 . S
C352 C351 1.371 . S
C353 H342 0.970 . S
C353 H343 0.970 . S
C353 C349 1.532 . S
C353 C354 1.499 . S
C354 C353 1.499 . S
C354 C355 1.370 . S
C354 C359 1.415 . S
C355 H344 0.930 . S
C355 C354 1.370 . S
C355 C356 1.407 . S
C356 C355 1.407 . S
C356 C357 1.365 . S
C357 H345 0.930 . S
C357 C356 1.365 . S
C357 C358 1.393 . S
C358 C357 1.393 . S
C358 C359 1.387 . S
C359 H346 0.930 . S
C359 C354 1.415 . S
C359 C358 1.387 . S
H360 C368 0.930 . S
H361 C371 0.930 . S
H362 C373 0.930 . S
H363 C374 0.970 . S
H364 C374 0.970 . S
H365 C376 0.930 . S
H366 C378 0.930 . S
H367 C380 0.930 . S
C368 H360 0.930 . S
C368 C369 1.382 . S
C368 C370 1.426 . S
C369 C368 1.382 . S
C369 C373 1.389 . S
C370 C368 1.426 . S
C370 C371 1.375 . S
C370 C374 1.532 . S
C371 H361 0.930 . S
C371 C370 1.375 . S
C371 C372 1.416 . S
C372 C371 1.416 . S
C372 C373 1.371 . S
C373 H362 0.930 . S
C373 C369 1.389 . S
C373 C372 1.371 . S
C374 H363 0.970 . S
C374 H364 0.970 . S
C374 C370 1.532 . S
C374 C375 1.499 . S
C375 C374 1.499 . S
C375 C376 1.370 . S
C375 C380 1.415 . S
C376 H365 0.930 . S
C376 C375 1.370 . S
C376 C377 1.407 . S
C377 C376 1.407 . S
C377 C378 1.365 . S
C378 H366 0.930 . S
C378 C377 1.365 . S
C378 C379 1.393 . S
C379 C378 1.393 . S
C379 C380 1.387 . S
C380 H367 0.930 . S
C380 C375 1.415 . S
C380 C379 1.387 . S
H381 C389 0.930 . S
H382 C392 0.930 . S
H383 C394 0.930 . S
H384 C395 0.970 . S
H385 C395 0.970 . S
H386 C397 0.930 . S
H387 C399 0.930 . S
H388 C401 0.930 . S
C389 H381 0.930 . S
C389 C390 1.382 . S
C389 C391 1.426 . S
C390 C389 1.382 . S
C390 C394 1.389 . S
C391 C389 1.426 . S
C391 C392 1.375 . S
C391 C395 1.532 . S
C392 H382 0.930 . S
C392 C391 1.375 . S
C392 C393 1.416 . S
C393 C392 1.416 . S
C393 C394 1.371 . S
C394 H383 0.930 . S
C394 C390 1.389 . S
C394 C393 1.371 . S
C395 H384 0.970 . S
C395 H385 0.970 . S
C395 C391 1.532 . S
C395 C396 1.499 . S
C396 C395 1.499 . S
C396 C397 1.370 . S
C396 C401 1.415 . S
C397 H386 0.930 . S
C397 C396 1.370 . S
C397 C398 1.407 . S
C398 C397 1.407 . S
C398 C399 1.365 . S
C399 H387 0.930 . S
C399 C398 1.365 . S
C399 C400 1.393 . S
C400 C399 1.393 . S
C400 C401 1.387 . S
C401 H388 0.930 . S
C401 C396 1.415 . S
C401 C400 1.387 . S
H402 C410 0.930 . S
H403 C413 0.930 . S
H404 C415 0.930 . S
H405 C416 0.970 . S
H406 C416 0.970 . S
H407 C418 0.930 . S
H408 C420 0.930 . S
H409 C422 0.930 . S
C410 H402 0.930 . S
C410 C411 1.382 . S
C410 C412 1.426 . S
C411 C410 1.382 . S
C411 C415 1.389 . S
C412 C410 1.426 . S
C412 C413 1.375 . S
C412 C416 1.532 . S
C413 H403 0.930 . S
C413 C412 1.375 . S
C413 C414 1.416 . S
C414 C413 1.416 . S
C414 C415 1.371 . S
C415 H404 0.930 . S
C415 C411 1.389 . S
C415 C414 1.371 . S
C416 H405 0.970 . S
C416 H406 0.970 . S
C416 C412 1.532 . S
C416 C417 1.499 . S
C417 C416 1.499 . S
C417 C418 1.370 . S
C417 C422 1.415 . S
C418 H407 0.930 . S
C418 C417 1.370 . S
C418 C419 1.407 . S
C419 C418 1.407 . S
C419 C420 1.365 . S
C420 H408 0.930 . S
C420 C419 1.365 . S
C420 C421 1.393 . S
C421 C420 1.393 . S
C421 C422 1.387 . S
C422 H409 0.930 . S
C422 C417 1.415 . S
C422 C421 1.387 . S
H423 C431 0.930 . S
H424 C434 0.930 . S
H425 C436 0.930 . S
H426 C437 0.970 . S
H427 C437 0.970 . S
H428 C439 0.930 . S
H429 C441 0.930 . S
H430 C443 0.930 . S
C431 H423 0.930 . S
C431 C432 1.382 . S
C431 C433 1.426 . S
C432 C431 1.382 . S
C432 C436 1.389 . S
C433 C431 1.426 . S
C433 C434 1.375 . S
C433 C437 1.532 . S
C434 H424 0.930 . S
C434 C433 1.375 . S
C434 C435 1.416 . S
C435 C434 1.416 . S
C435 C436 1.371 . S
C436 H425 0.930 . S
C436 C432 1.389 . S
C436 C435 1.371 . S
C437 H426 0.970 . S
C437 H427 0.970 . S
C437 C433 1.532 . S
C437 C438 1.499 . S
C438 C437 1.499 . S
C438 C439 1.370 . S
C438 C443 1.415 . S
C439 H428 0.930 . S
C439 C438 1.370 . S
C439 C440 1.407 . S
C440 C439 1.407 . S
C440 C441 1.365 . S
C441 H429 0.930 . S
C441 C440 1.365 . S
C441 C442 1.393 . S
C442 C441 1.393 . S
C442 C443 1.387 . S
C443 H430 0.930 . S
C443 C438 1.415 . S
C443 C442 1.387 . S
H444 C452 0.930 . S
H445 C455 0.930 . S
H446 C457 0.930 . S
H447 C458 0.970 . S
H448 C458 0.970 . S
H449 C460 0.930 . S
H450 C462 0.930 . S
H451 C464 0.930 . S
C452 H444 0.930 . S
C452 C453 1.382 . S
C452 C454 1.426 . S
C453 C452 1.382 . S
C453 C457 1.389 . S
C454 C452 1.426 . S
C454 C455 1.375 . S
C454 C458 1.532 . S
C455 H445 0.930 . S
C455 C454 1.375 . S
C455 C456 1.416 . S
C456 C455 1.416 . S
C456 C457 1.371 . S
C457 H446 0.930 . S
C457 C453 1.389 . S
C457 C456 1.371 . S
C458 H447 0.970 . S
C458 H448 0.970 . S
C458 C454 1.532 . S
C458 C459 1.499 . S
C459 C458 1.499 . S
C459 C460 1.370 . S
C459 C464 1.415 . S
C460 H449 0.930 . S
C460 C459 1.370 . S
C460 C461 1.407 . S
C461 C460 1.407 . S
C461 C462 1.365 . S
C462 H450 0.930 . S
C462 C461 1.365 . S
C462 C463 1.393 . S
C463 C462 1.393 . S
C463 C464 1.387 . S
C464 H451 0.930 . S
C464 C459 1.415 . S
C464 C463 1.387 . S
H465 C473 0.930 . S
H466 C476 0.930 . S
H467 C478 0.930 . S
H468 C479 0.970 . S
H469 C479 0.970 . S
H470 C481 0.930 . S
H471 C483 0.930 . S
H472 C485 0.930 . S
C473 H465 0.930 . S
C473 C474 1.382 . S
C473 C475 1.426 . S
C474 C473 1.382 . S
C474 C478 1.389 1_565 S
C475 C473 1.426 . S
C475 C476 1.375 . S
C475 C479 1.532 . S
C476 H466 0.930 . S
C476 C475 1.375 . S
C476 C477 1.416 . S
C477 C476 1.416 . S
C477 C478 1.371 1_565 S
C478 H467 0.930 . S
C478 C474 1.389 1_545 S
C478 C477 1.371 1_545 S
C479 H468 0.970 . S
C479 H469 0.970 . S
C479 C475 1.532 . S
C479 C480 1.499 . S
C480 C479 1.499 . S
C480 C481 1.370 . S
C480 C485 1.415 . S
C481 H470 0.930 . S
C481 C480 1.370 . S
C481 C482 1.443 . S
C482 C481 1.443 . S
C482 C483 1.350 1_565 S
C483 H471 0.930 . S
C483 C482 1.350 1_545 S
C483 C484 1.393 1_545 S
C484 C483 1.393 1_565 S
C484 C485 1.387 . S
C485 H472 0.930 . S
C485 C480 1.415 . S
C485 C484 1.387 . S
H486 C494 0.930 . S
H487 C497 0.920 1_565 S
H488 C499 0.930 . S
H489 C500 0.970 . S
H490 C500 0.970 . S
H491 C502 0.930 . S
H492 C504 0.930 . S
H493 C506 0.930 . S
C494 H486 0.930 . S
C494 C495 1.382 1_565 S
C494 C496 1.426 . S
C495 C494 1.382 1_545 S
C495 C499 1.389 . S
C496 C494 1.426 . S
C496 C497 1.358 1_565 S
C496 C500 1.532 . S
C497 H487 0.920 1_545 S
C497 C496 1.358 1_545 S
C497 C498 1.444 . S
C498 C497 1.444 . S
C498 C499 1.371 . S
C499 H488 0.930 . S
C499 C495 1.389 . S
C499 C498 1.371 . S
C500 H489 0.970 . S
C500 H490 0.970 . S
C500 C496 1.532 . S
C500 C501 1.499 . S
C501 C500 1.499 . S
C501 C502 1.370 . S
C501 C506 1.415 . S
C502 H491 0.930 . S
C502 C501 1.370 . S
C502 C503 1.407 1_565 S
C503 C502 1.407 1_545 S
C503 C504 1.365 . S
C504 H492 0.930 . S
C504 C503 1.365 . S
C504 C505 1.393 . S
C505 C504 1.393 . S
C505 C506 1.387 1_545 S
C506 H493 0.930 . S
C506 C501 1.415 . S
C506 C505 1.387 1_565 S
H507 C515 0.930 . S
H508 C518 0.930 . S
H509 C520 0.930 . S
H510 C521 0.970 . S
H511 C521 0.970 . S
H512 C523 0.930 . S
H513 C525 0.930 . S
H514 C527 0.930 . S
C515 H507 0.930 . S
C515 C516 1.382 . S
C515 C517 1.426 . S
C516 C515 1.382 . S
C516 C520 1.389 1_455 S
C517 C515 1.426 . S
C517 C518 1.375 . S
C517 C521 1.532 . S
C518 H508 0.930 . S
C518 C517 1.375 . S
C518 C519 1.416 . S
C519 C518 1.416 . S
C519 C520 1.371 1_455 S
C520 H509 0.930 . S
C520 C516 1.389 1_655 S
C520 C519 1.371 1_655 S
C521 H510 0.970 . S
C521 H511 0.970 . S
C521 C517 1.532 . S
C521 C522 1.499 . S
C522 C521 1.499 . S
C522 C523 1.370 . S
C522 C527 1.415 . S
C523 H512 0.930 . S
C523 C522 1.370 . S
C523 C524 1.407 . S
C524 C523 1.407 . S
C524 C525 1.365 1_455 S
C525 H513 0.930 . S
C525 C524 1.365 1_655 S
C525 C526 1.393 1_655 S
C526 C525 1.393 1_455 S
C526 C527 1.387 . S
C527 H514 0.930 . S
C527 C522 1.415 . S
C527 C526 1.387 . S
H528 C536 0.930 . S
H529 C539 0.930 . S
H530 C541 0.930 . S
H531 C542 0.970 . S
H532 C542 0.970 . S
H533 C544 0.930 . S
H534 C546 0.930 . S
H535 C548 0.930 . S
C536 H528 0.930 . S
C536 C537 1.382 . S
C536 C538 1.426 . S
C537 C536 1.382 . S
C537 C541 1.389 . S
C538 C536 1.426 . S
C538 C539 1.375 . S
C538 C542 1.532 . S
C539 H529 0.930 . S
C539 C538 1.375 . S
C539 C540 1.416 . S
C540 C539 1.416 . S
C540 C541 1.371 . S
C541 H530 0.930 . S
C541 C537 1.389 . S
C541 C540 1.371 . S
C542 H531 0.970 . S
C542 H532 0.970 . S
C542 C538 1.532 . S
C542 C543 1.499 . S
C543 C542 1.499 . S
C543 C544 1.370 . S
C543 C548 1.415 . S
C544 H533 0.930 . S
C544 C543 1.370 . S
C544 C545 1.407 . S
C545 C544 1.407 . S
C545 C546 1.365 . S
C546 H534 0.930 . S
C546 C545 1.365 . S
C546 C547 1.393 . S
C547 C546 1.393 . S
C547 C548 1.387 . S
C548 H535 0.930 . S
C548 C543 1.415 . S
C548 C547 1.387 . S
H549 C557 0.930 . S
H550 C560 0.930 . S
H551 C562 0.930 . S
H552 C563 0.970 . S
H553 C563 0.970 . S
H554 C565 0.930 . S
H555 C567 0.930 . S
H556 C569 0.930 . S
C557 H549 0.930 . S
C557 C558 1.382 . S
C557 C559 1.426 . S
C558 C557 1.382 . S
C558 C562 1.389 . S
C559 C557 1.426 . S
C559 C560 1.375 . S
C559 C563 1.532 . S
C560 H550 0.930 . S
C560 C559 1.375 . S
C560 C561 1.416 . S
C561 C560 1.416 . S
C561 C562 1.371 . S
C562 H551 0.930 . S
C562 C558 1.389 . S
C562 C561 1.371 . S
C563 H552 0.970 . S
C563 H553 0.970 . S
C563 C559 1.532 . S
C563 C564 1.499 . S
C564 C563 1.499 . S
C564 C565 1.370 . S
C564 C569 1.415 . S
C565 H554 0.930 . S
C565 C564 1.370 . S
C565 C566 1.407 . S
C566 C565 1.407 . S
C566 C567 1.365 . S
C567 H555 0.930 . S
C567 C566 1.365 . S
C567 C568 1.393 . S
C568 C567 1.393 . S
C568 C569 1.387 . S
C569 H556 0.930 . S
C569 C564 1.415 . S
C569 C568 1.387 . S
H570 C578 0.930 . S
H571 C581 0.930 . S
H572 C583 0.930 . S
H573 C584 0.970 . S
H574 C584 0.970 . S
H575 C586 0.930 . S
H576 C588 0.930 . S
H577 C590 0.930 . S
C578 H570 0.930 . S
C578 C579 1.382 . S
C578 C580 1.426 . S
C579 C578 1.382 . S
C579 C583 1.389 . S
C580 C578 1.426 . S
C580 C581 1.375 . S
C580 C584 1.532 . S
C581 H571 0.930 . S
C581 C580 1.375 . S
C581 C582 1.416 . S
C582 C581 1.416 . S
C582 C583 1.371 . S
C583 H572 0.930 . S
C583 C579 1.389 . S
C583 C582 1.371 . S
C584 H573 0.970 . S
C584 H574 0.970 . S
C584 C580 1.532 . S
C584 C585 1.499 . S
C585 C584 1.499 . S
C585 C586 1.370 . S
C585 C590 1.415 . S
C586 H575 0.930 . S
C586 C585 1.370 . S
C586 C587 1.407 . S
C587 C586 1.407 . S
C587 C588 1.365 . S
C588 H576 0.930 . S
C588 C587 1.365 . S
C588 C589 1.393 . S
C589 C588 1.393 . S
C589 C590 1.387 . S
C590 H577 0.930 . S
C590 C585 1.415 . S
C590 C589 1.387 . S
H591 C599 0.930 . S
H592 C602 0.930 . S
H593 C604 0.930 . S
H594 C605 0.970 . S
H595 C605 0.970 . S
H596 C607 0.930 . S
H597 C609 0.930 . S
H598 C611 0.930 . S
C599 H591 0.930 . S
C599 C600 1.382 . S
C599 C601 1.426 . S
C600 C599 1.382 . S
C600 C604 1.389 . S
C601 C599 1.426 . S
C601 C602 1.375 . S
C601 C605 1.532 . S
C602 H592 0.930 . S
C602 C601 1.375 . S
C602 C603 1.416 . S
C603 C602 1.416 . S
C603 C604 1.371 . S
C604 H593 0.930 . S
C604 C600 1.389 . S
C604 C603 1.371 . S
C605 H594 0.970 . S
C605 H595 0.970 . S
C605 C601 1.532 . S
C605 C606 1.499 . S
C606 C605 1.499 . S
C606 C607 1.370 . S
C606 C611 1.415 . S
C607 H596 0.930 . S
C607 C606 1.370 . S
C607 C608 1.407 . S
C608 C607 1.407 . S
C608 C609 1.365 . S
C609 H597 0.930 . S
C609 C608 1.365 . S
C609 C610 1.393 . S
C610 C609 1.393 . S
C610 C611 1.387 . S
C611 H598 0.930 . S
C611 C606 1.415 . S
C611 C610 1.387 . S
C612 C613 1.391 . S
C612 C614 1.394 . S
C612 H628 0.931 . S
C613 C612 1.391 . S
C613 C617 1.376 . S
C614 C612 1.394 . S
C614 C615 1.369 . S
C614 C618 1.531 . S
C615 C614 1.369 . S
C615 C616 1.410 . S
C615 C623 1.503 . S
C616 C615 1.410 . S
C616 C617 1.392 . S
C616 C619 1.510 1_455 S
C617 C613 1.376 . S
C617 C616 1.392 . S
C617 H629 0.929 . S
C618 C614 1.531 . S
C618 H630 0.960 . S
C618 H631 0.962 . S
C618 H632 0.960 . S
C619 C616 1.510 1_655 S
C619 H633 0.912 1_655 S
C619 H634 0.960 1_655 S
C619 H635 1.015 . S
C620 C621 1.370 . S
C620 C622 1.363 . S
C620 H636 0.931 . S
C621 C620 1.370 . S
C621 C625 1.408 1_455 S
C622 C620 1.363 . S
C622 C623 1.370 . S
C622 C626 1.524 . S
C623 C615 1.503 . S
C623 C622 1.370 . S
C623 C624 1.403 1_455 S
C624 C623 1.403 1_655 S
C624 C625 1.404 . S
C624 C627 1.539 . S
C625 C621 1.408 1_655 S
C625 C624 1.404 . S
C625 H637 0.930 . S
C626 C622 1.524 . S
C626 H638 0.956 . S
C626 H639 0.961 . S
C626 H640 0.961 . S
C627 C624 1.539 . S
C627 H641 0.958 . S
C627 H642 0.961 . S
C627 H643 0.960 . S
H628 C612 0.931 . S
H629 C617 0.929 . S
H630 C618 0.960 . S
H631 C618 0.962 . S
H632 C618 0.960 . S
H633 C619 0.912 1_455 S
H634 C619 0.960 1_455 S
H635 C619 1.015 . S
H636 C620 0.931 . S
H637 C625 0.930 . S
H638 C626 0.956 . S
H639 C626 0.961 . S
H640 C626 0.961 . S
H641 C627 0.958 . S
H642 C627 0.961 . S
H643 C627 0.960 . S
C644 C645 1.391 . S
C644 C646 1.394 . S
C644 H660 0.931 . S
C645 C644 1.391 . S
C645 C649 1.376 . S
C646 C644 1.394 . S
C646 C647 1.369 . S
C646 C650 1.531 . S
C647 C646 1.369 . S
C647 C648 1.410 . S
C647 C655 1.503 . S
C648 C647 1.410 . S
C648 C649 1.392 . S
C648 C651 1.511 . S
C649 C645 1.376 . S
C649 C648 1.392 . S
C649 H661 0.929 . S
C650 C646 1.531 . S
C650 H662 0.960 . S
C650 H663 0.962 . S
C650 H664 0.960 . S
C651 C648 1.511 . S
C651 H665 0.961 . S
C651 H666 0.961 . S
C651 H667 0.961 . S
C652 C653 1.370 . S
C652 C654 1.363 . S
C652 H668 0.931 . S
C653 C652 1.370 . S
C653 C657 1.408 . S
C654 C652 1.363 . S
C654 C655 1.370 . S
C654 C658 1.524 . S
C655 C647 1.503 . S
C655 C654 1.370 . S
C655 C656 1.403 . S
C656 C655 1.403 . S
C656 C657 1.404 . S
C656 C659 1.539 . S
C657 C653 1.408 . S
C657 C656 1.404 . S
C657 H669 0.930 . S
C658 C654 1.524 . S
C658 H670 0.956 . S
C658 H671 0.961 . S
C658 H672 0.961 . S
C659 C656 1.539 . S
C659 H673 0.958 . S
C659 H674 0.961 . S
C659 H675 0.960 . S
H660 C644 0.931 . S
H661 C649 0.929 . S
H662 C650 0.960 . S
H663 C650 0.962 . S
H664 C650 0.960 . S
H665 C651 0.961 . S
H666 C651 0.961 . S
H667 C651 0.961 . S
H668 C652 0.931 . S
H669 C657 0.930 . S
H670 C658 0.956 . S
H671 C658 0.961 . S
H672 C658 0.961 . S
H673 C659 0.958 . S
H674 C659 0.961 . S
H675 C659 0.960 . S
C676 C677 1.391 1_565 S
C676 C678 1.394 . S
C676 H692 0.951 . S
C677 C676 1.391 1_545 S
C677 C681 1.376 . S
C678 C676 1.394 . S
C678 C679 1.340 . S
C678 C682 1.531 . S
C679 C678 1.340 . S
C679 C680 1.417 1_565 S
C679 C687 1.533 1_565 S
C680 C679 1.417 1_545 S
C680 C681 1.403 . S
C680 C683 1.511 . S
C681 C677 1.376 . S
C681 C680 1.403 . S
C681 H693 0.929 . S
C682 C678 1.531 . S
C682 H694 0.960 . S
C682 H695 0.962 1_565 S
C682 H696 0.960 . S
C683 C680 1.511 . S
C683 H697 0.971 . S
C683 H698 0.963 . S
C683 H699 0.938 1_545 S
C684 C685 1.370 . S
C684 C686 1.363 . S
C684 H700 0.931 . S
C685 C684 1.370 . S
C685 C689 1.408 1_545 S
C686 C684 1.363 . S
C686 C687 1.383 . S
C686 C690 1.524 . S
C687 C679 1.533 1_545 S
C687 C686 1.383 . S
C687 C688 1.384 1_545 S
C688 C687 1.384 1_565 S
C688 C689 1.404 . S
C688 C691 1.539 . S
C689 C685 1.408 1_565 S
C689 C688 1.404 . S
C689 H701 0.930 . S
C690 C686 1.524 . S
C690 H702 0.956 . S
C690 H703 0.961 . S
C690 H704 0.961 . S
C691 C688 1.539 . S
C691 H705 0.958 . S
C691 H706 0.961 . S
C691 H707 0.960 . S
H692 C676 0.951 . S
H693 C681 0.929 . S
H694 C682 0.960 . S
H695 C682 0.962 1_545 S
H696 C682 0.960 . S
H697 C683 0.971 . S
H698 C683 0.963 . S
H699 C683 0.938 1_565 S
H700 C684 0.931 . S
H701 C689 0.930 . S
H702 C690 0.956 . S
H703 C690 0.961 . S
H704 C690 0.961 . S
H705 C691 0.958 . S
H706 C691 0.961 . S
H707 C691 0.960 . S
C708 C709 1.391 1_565 S
C708 C710 1.394 . S
C708 H724 0.931 . S
C709 C708 1.391 1_545 S
C709 C713 1.376 . S
C710 C708 1.394 . S
C710 C711 1.369 1_565 S
C710 C714 1.531 . S
C711 C710 1.369 1_545 S
C711 C712 1.410 . S
C711 C719 1.503 . S
C712 C711 1.410 . S
C712 C713 1.392 . S
C712 C715 1.511 . S
C713 C709 1.376 . S
C713 C712 1.392 . S
C713 H725 0.929 . S
C714 C710 1.531 . S
C714 H726 0.960 . S
C714 H727 0.962 . S
C714 H728 0.960 . S
C715 C712 1.511 . S
C715 H729 0.961 . S
C715 H730 0.961 . S
C715 H731 0.961 . S
C716 C717 1.370 . S
C716 C718 1.363 . S
C716 H732 0.931 . S
C717 C716 1.370 . S
C717 C721 1.408 1_545 S
C718 C716 1.363 . S
C718 C719 1.370 . S
C718 C722 1.524 . S
C719 C711 1.503 . S
C719 C718 1.370 . S
C719 C720 1.403 1_545 S
C720 C719 1.403 1_565 S
C720 C721 1.404 . S
C720 C723 1.539 . S
C721 C717 1.408 1_565 S
C721 C720 1.404 . S
C721 H733 0.930 . S
C722 C718 1.524 . S
C722 H734 0.956 . S
C722 H735 0.961 . S
C722 H736 0.961 . S
C723 C720 1.539 . S
C723 H737 0.958 . S
C723 H738 0.961 . S
C723 H739 0.960 . S
H724 C708 0.931 . S
H725 C713 0.929 . S
H726 C714 0.960 . S
H727 C714 0.962 . S
H728 C714 0.960 . S
H729 C715 0.961 . S
H730 C715 0.961 . S
H731 C715 0.961 . S
H732 C716 0.931 . S
H733 C721 0.930 . S
H734 C722 0.956 . S
H735 C722 0.961 . S
H736 C722 0.961 . S
H737 C723 0.958 . S
H738 C723 0.961 . S
H739 C723 0.960 . S
C740 C741 1.391 1_655 S
C740 C742 1.394 . S
C740 H756 0.931 . S
C741 C740 1.391 1_455 S
C741 C745 1.376 . S
C742 C740 1.394 . S
C742 C743 1.362 . S
C742 C746 1.531 . S
C743 C742 1.362 . S
C743 C744 1.398 1_655 S
C743 C751 1.532 1_655 S
C744 C743 1.398 1_455 S
C744 C745 1.392 . S
C744 C747 1.511 . S
C745 C741 1.376 . S
C745 C744 1.392 . S
C745 H757 0.929 . S
C746 C742 1.531 . S
C746 H758 0.960 . S
C746 H759 0.962 . S
C746 H760 0.960 . S
C747 C744 1.511 . S
C747 H761 0.961 . S
C747 H762 0.961 . S
C747 H763 0.961 . S
C748 C749 1.370 . S
C748 C750 1.363 . S
C748 H764 0.931 . S
C749 C748 1.370 . S
C749 C753 1.408 1_455 S
C750 C748 1.363 . S
C750 C751 1.395 . S
C750 C754 1.524 . S
C751 C743 1.532 1_455 S
C751 C750 1.395 . S
C751 C752 1.368 1_455 S
C752 C751 1.368 1_655 S
C752 C753 1.404 . S
C752 C755 1.539 . S
C753 C749 1.408 1_655 S
C753 C752 1.404 . S
C753 H765 0.930 . S
C754 C750 1.524 . S
C754 H766 0.956 . S
C754 H767 0.961 . S
C754 H768 0.961 . S
C755 C752 1.539 . S
C755 H769 0.958 . S
C755 H770 0.961 . S
C755 H771 0.960 . S
H756 C740 0.931 . S
H757 C745 0.929 . S
H758 C746 0.960 . S
H759 C746 0.962 . S
H760 C746 0.960 . S
H761 C747 0.961 . S
H762 C747 0.961 . S
H763 C747 0.961 . S
H764 C748 0.931 . S
H765 C753 0.930 . S
H766 C754 0.956 . S
H767 C754 0.961 . S
H768 C754 0.961 . S
H769 C755 0.958 . S
H770 C755 0.961 . S
H771 C755 0.960 . S
C772 C773 1.391 . S
C772 C774 1.394 . S
C772 H788 0.931 . S
C773 C772 1.391 . S
C773 C777 1.376 . S
C774 C772 1.394 . S
C774 C775 1.369 . S
C774 C778 1.531 . S
C775 C774 1.369 . S
C775 C776 1.410 . S
C775 C783 1.503 . S
C776 C775 1.410 . S
C776 C777 1.392 . S
C776 C779 1.511 . S
C777 C773 1.376 . S
C777 C776 1.392 . S
C777 H789 0.929 . S
C778 C774 1.531 . S
C778 H790 0.960 . S
C778 H791 0.962 . S
C778 H792 0.960 . S
C779 C776 1.511 . S
C779 H793 0.961 . S
C779 H794 0.961 . S
C779 H795 0.961 . S
C780 C781 1.370 . S
C780 C782 1.363 . S
C780 H796 0.931 . S
C781 C780 1.370 . S
C781 C785 1.408 . S
C782 C780 1.363 . S
C782 C783 1.370 . S
C782 C786 1.524 . S
C783 C775 1.503 . S
C783 C782 1.370 . S
C783 C784 1.403 . S
C784 C783 1.403 . S
C784 C785 1.404 . S
C784 C787 1.539 . S
C785 C781 1.408 . S
C785 C784 1.404 . S
C785 H797 0.930 . S
C786 C782 1.524 . S
C786 H798 0.956 . S
C786 H799 0.961 . S
C786 H800 0.961 . S
C787 C784 1.539 . S
C787 H801 0.958 . S
C787 H802 0.961 . S
C787 H803 0.960 . S
H788 C772 0.931 . S
H789 C777 0.929 . S
H790 C778 0.960 . S
H791 C778 0.962 . S
H792 C778 0.960 . S
H793 C779 0.961 . S
H794 C779 0.961 . S
H795 C779 0.961 . S
H796 C780 0.931 . S
H797 C785 0.930 . S
H798 C786 0.956 . S
H799 C786 0.961 . S
H800 C786 0.961 . S
H801 C787 0.958 . S
H802 C787 0.961 . S
H803 C787 0.960 . S
C804 C805 1.391 . S
C804 C806 1.394 . S
C804 H820 0.931 . S
C805 C804 1.391 . S
C805 C809 1.376 1_455 S
C806 C804 1.394 . S
C806 C807 1.369 . S
C806 C810 1.531 . S
C807 C806 1.369 . S
C807 C808 1.410 1_455 S
C807 C815 1.503 . S
C808 C807 1.410 1_655 S
C808 C809 1.392 . S
C808 C811 1.511 . S
C809 C805 1.376 1_655 S
C809 C808 1.392 . S
C809 H821 0.929 . S
C810 C806 1.531 . S
C810 H822 0.960 . S
C810 H823 0.962 . S
C810 H824 0.960 . S
C811 C808 1.511 . S
C811 H825 0.961 . S
C811 H826 0.961 . S
C811 H827 0.961 . S
C812 C813 1.370 1_655 S
C812 C814 1.363 . S
C812 H828 0.931 . S
C813 C812 1.370 1_455 S
C813 C817 1.408 . S
C814 C812 1.363 . S
C814 C815 1.370 1_655 S
C814 C818 1.524 . S
C815 C807 1.503 . S
C815 C814 1.370 1_455 S
C815 C816 1.403 . S
C816 C815 1.403 . S
C816 C817 1.404 . S
C816 C819 1.539 . S
C817 C813 1.408 . S
C817 C816 1.404 . S
C817 H829 0.930 . S
C818 C814 1.524 . S
C818 H830 0.956 . S
C818 H831 0.961 . S
C818 H832 0.961 . S
C819 C816 1.539 . S
C819 H833 0.958 . S
C819 H834 0.961 . S
C819 H835 0.960 . S
H820 C804 0.931 . S
H821 C809 0.929 . S
H822 C810 0.960 . S
H823 C810 0.962 . S
H824 C810 0.960 . S
H825 C811 0.961 . S
H826 C811 0.961 . S
H827 C811 0.961 . S
H828 C812 0.931 . S
H829 C817 0.930 . S
H830 C818 0.956 . S
H831 C818 0.961 . S
H832 C818 0.961 . S
H833 C819 0.958 . S
H834 C819 0.961 . S
H835 C819 0.960 . S
C836 C837 1.391 . S
C836 C838 1.394 . S
C836 H852 0.931 . S
C837 C836 1.391 . S
C837 C841 1.376 . S
C838 C836 1.394 . S
C838 C839 1.369 . S
C838 C842 1.531 . S
C839 C838 1.369 . S
C839 C840 1.410 . S
C839 C847 1.503 . S
C840 C839 1.410 . S
C840 C841 1.392 . S
C840 C843 1.511 . S
C841 C837 1.376 . S
C841 C840 1.392 . S
C841 H853 0.929 . S
C842 C838 1.531 . S
C842 H854 0.960 . S
C842 H855 0.962 . S
C842 H856 0.960 . S
C843 C840 1.511 . S
C843 H857 0.961 . S
C843 H858 0.961 . S
C843 H859 0.961 . S
C844 C845 1.370 . S
C844 C846 1.363 . S
C844 H860 0.931 . S
C845 C844 1.370 . S
C845 C849 1.408 . S
C846 C844 1.363 . S
C846 C847 1.370 . S
C846 C850 1.524 . S
C847 C839 1.503 . S
C847 C846 1.370 . S
C847 C848 1.403 . S
C848 C847 1.403 . S
C848 C849 1.404 . S
C848 C851 1.539 . S
C849 C845 1.408 . S
C849 C848 1.404 . S
C849 H861 0.930 . S
C850 C846 1.524 . S
C850 H862 0.956 . S
C850 H863 0.961 . S
C850 H864 0.961 . S
C851 C848 1.539 . S
C851 H865 0.958 . S
C851 H866 0.961 . S
C851 H867 0.960 . S
H852 C836 0.931 . S
H853 C841 0.929 . S
H854 C842 0.960 . S
H855 C842 0.962 . S
H856 C842 0.960 . S
H857 C843 0.961 . S
H858 C843 0.961 . S
H859 C843 0.961 . S
H860 C844 0.931 . S
H861 C849 0.930 . S
H862 C850 0.956 . S
H863 C850 0.961 . S
H864 C850 0.961 . S
H865 C851 0.958 . S
H866 C851 0.961 . S
H867 C851 0.960 . S
C868 C869 1.391 . S
C868 C870 1.394 . S
C868 H884 0.931 . S
C869 C868 1.391 . S
C869 C873 1.386 . S
C870 C868 1.394 . S
C870 C871 1.369 . S
C870 C874 1.531 . S
C871 C870 1.369 . S
C871 C872 1.410 . S
C871 C879 1.503 . S
C872 C871 1.410 . S
C872 C873 1.401 . S
C872 C875 1.511 1_545 S
C873 C869 1.386 . S
C873 C872 1.401 . S
C873 H885 0.911 1_545 S
C874 C870 1.531 . S
C874 H886 0.960 . S
C874 H887 0.962 . S
C874 H888 0.960 . S
C875 C872 1.511 1_565 S
C875 H889 0.961 . S
C875 H890 0.961 . S
C875 H891 0.961 . S
C876 C877 1.373 1_565 S
C876 C878 1.363 1_565 S
C876 H892 0.930 . S
C877 C876 1.373 1_545 S
C877 C881 1.408 . S
C878 C876 1.363 1_545 S
C878 C879 1.372 . S
C878 C882 1.521 1_545 S
C879 C871 1.503 . S
C879 C878 1.372 . S
C879 C880 1.403 . S
C880 C879 1.403 . S
C880 C881 1.404 . S
C880 C883 1.539 . S
C881 C877 1.408 . S
C881 C880 1.404 . S
C881 H893 0.930 . S
C882 C878 1.521 1_565 S
C882 H894 0.956 . S
C882 H895 0.961 . S
C882 H896 0.961 . S
C883 C880 1.539 . S
C883 H897 0.958 . S
C883 H898 0.961 . S
C883 H899 0.960 . S
H884 C868 0.931 . S
H885 C873 0.911 1_565 S
H886 C874 0.960 . S
H887 C874 0.962 . S
H888 C874 0.960 . S
H889 C875 0.961 . S
H890 C875 0.961 . S
H891 C875 0.961 . S
H892 C876 0.930 . S
H893 C881 0.930 . S
H894 C882 0.956 . S
H895 C882 0.961 . S
H896 C882 0.961 . S
H897 C883 0.958 . S
H898 C883 0.961 . S
H899 C883 0.960 . S
C900 C901 1.403 . S
C900 C902 1.409 . S
C900 H916 0.905 1_545 S
C901 C900 1.403 . S
C901 C905 1.376 . S
C902 C900 1.409 . S
C902 C903 1.369 . S
C902 C906 1.531 1_545 S
C903 C902 1.369 . S
C903 C904 1.410 . S
C903 C911 1.503 . S
C904 C903 1.410 . S
C904 C905 1.392 . S
C904 C907 1.511 . S
C905 C901 1.376 . S
C905 C904 1.392 . S
C905 H917 0.929 . S
C906 C902 1.531 1_565 S
C906 H918 0.960 1_565 S
C906 H919 0.962 . S
C906 H920 0.958 . S
C907 C904 1.511 . S
C907 H921 0.961 . S
C907 H922 0.961 . S
C907 H923 0.961 . S
C908 C909 1.370 1_565 S
C908 C910 1.363 . S
C908 H924 0.931 . S
C909 C908 1.370 1_545 S
C909 C913 1.408 . S
C910 C908 1.363 . S
C910 C911 1.370 1_565 S
C910 C914 1.524 . S
C911 C903 1.503 . S
C911 C910 1.370 1_545 S
C911 C912 1.403 . S
C912 C911 1.403 . S
C912 C913 1.404 . S
C912 C915 1.539 . S
C913 C909 1.408 . S
C913 C912 1.404 . S
C913 H925 0.930 . S
C914 C910 1.524 . S
C914 H926 0.956 . S
C914 H927 0.961 . S
C914 H928 0.961 . S
C915 C912 1.539 . S
C915 H929 0.958 . S
C915 H930 0.961 . S
C915 H931 0.960 . S
H916 C900 0.905 1_565 S
H917 C905 0.929 . S
H918 C906 0.960 1_545 S
H919 C906 0.962 . S
H920 C906 0.958 . S
H921 C907 0.961 . S
H922 C907 0.961 . S
H923 C907 0.961 . S
H924 C908 0.931 . S
H925 C913 0.930 . S
H926 C914 0.956 . S
H927 C914 0.961 . S
H928 C914 0.961 . S
H929 C915 0.958 . S
H930 C915 0.961 . S
H931 C915 0.960 . S
C932 C933 1.391 1_655 S
C932 C934 1.394 . S
C932 H948 0.931 . S
C933 C932 1.391 1_455 S
C933 C937 1.376 . S
C934 C932 1.394 . S
C934 C935 1.369 1_655 S
C934 C938 1.531 . S
C935 C934 1.369 1_455 S
C935 C936 1.410 . S
C935 C943 1.503 . S
C936 C935 1.410 . S
C936 C937 1.392 . S
C936 C939 1.511 . S
C937 C933 1.376 . S
C937 C936 1.392 . S
C937 H949 0.929 . S
C938 C934 1.531 . S
C938 H950 0.960 . S
C938 H951 0.962 . S
C938 H952 0.960 . S
C939 C936 1.511 . S
C939 H953 0.961 . S
C939 H954 0.961 . S
C939 H955 0.961 . S
C940 C941 1.370 . S
C940 C942 1.363 . S
C940 H956 0.931 . S
C941 C940 1.370 . S
C941 C945 1.408 1_455 S
C942 C940 1.363 . S
C942 C943 1.370 . S
C942 C946 1.524 . S
C943 C935 1.503 . S
C943 C942 1.370 . S
C943 C944 1.403 1_455 S
C944 C943 1.403 1_655 S
C944 C945 1.404 . S
C944 C947 1.539 . S
C945 C941 1.408 1_655 S
C945 C944 1.404 . S
C945 H957 0.930 . S
C946 C942 1.524 . S
C946 H958 0.956 . S
C946 H959 0.961 . S
C946 H960 0.961 . S
C947 C944 1.539 . S
C947 H961 0.958 . S
C947 H962 0.961 . S
C947 H963 0.960 . S
H948 C932 0.931 . S
H949 C937 0.929 . S
H950 C938 0.960 . S
H951 C938 0.962 . S
H952 C938 0.960 . S
H953 C939 0.961 . S
H954 C939 0.961 . S
H955 C939 0.961 . S
H956 C940 0.931 . S
H957 C945 0.930 . S
H958 C946 0.956 . S
H959 C946 0.961 . S
H960 C946 0.961 . S
H961 C947 0.958 . S
H962 C947 0.961 . S
H963 C947 0.960 . S
C964 C965 1.391 . S
C964 C966 1.394 . S
C964 H980 0.931 . S
C965 C964 1.391 . S
C965 C969 1.376 . S
C966 C964 1.394 . S
C966 C967 1.369 . S
C966 C970 1.531 . S
C967 C966 1.369 . S
C967 C968 1.410 . S
C967 C975 1.503 . S
C968 C967 1.410 . S
C968 C969 1.392 . S
C968 C971 1.511 . S
C969 C965 1.376 . S
C969 C968 1.392 . S
C969 H981 0.929 . S
C970 C966 1.531 . S
C970 H982 0.960 . S
C970 H983 0.962 . S
C970 H984 0.960 . S
C971 C968 1.511 . S
C971 H985 0.961 . S
C971 H986 0.961 . S
C971 H987 0.961 . S
C972 C973 1.370 . S
C972 C974 1.363 . S
C972 H988 0.931 . S
C973 C972 1.370 . S
C973 C977 1.408 . S
C974 C972 1.363 . S
C974 C975 1.370 . S
C974 C978 1.524 . S
C975 C967 1.503 . S
C975 C974 1.370 . S
C975 C976 1.403 . S
C976 C975 1.403 . S
C976 C977 1.404 . S
C976 C979 1.539 . S
C977 C973 1.408 . S
C977 C976 1.404 . S
C977 H989 0.930 . S
C978 C974 1.524 . S
C978 H990 0.956 . S
C978 H991 0.961 . S
C978 H992 0.961 . S
C979 C976 1.539 . S
C979 H993 0.958 . S
C979 H994 0.961 . S
C979 H995 0.960 . S
H980 C964 0.931 . S
H981 C969 0.929 . S
H982 C970 0.960 . S
H983 C970 0.962 . S
H984 C970 0.960 . S
H985 C971 0.961 . S
H986 C971 0.961 . S
H987 C971 0.961 . S
H988 C972 0.931 . S
H989 C977 0.930 . S
H990 C978 0.956 . S
H991 C978 0.961 . S
H992 C978 0.961 . S
H993 C979 0.958 . S
H994 C979 0.961 . S
H995 C979 0.960 . S
C996 C997 1.391 . S
C996 C998 1.394 . S
C996 H1012 0.931 . S
C997 C996 1.391 . S
C997 C1001 1.376 . S
C998 C996 1.394 . S
C998 C999 1.369 . S
C998 C1002 1.531 . S
C999 C998 1.369 . S
C999 C1000 1.410 . S
C999 C1007 1.503 . S
C1000 C999 1.410 . S
C1000 C1001 1.392 . S
C1000 C1003 1.511 . S
C1001 C997 1.376 . S
C1001 C1000 1.392 . S
C1001 H1013 0.929 . S
C1002 C998 1.531 . S
C1002 H1014 0.960 . S
C1002 H1015 0.962 . S
C1002 H1016 0.960 . S
C1003 C1000 1.511 . S
C1003 H1017 0.961 . S
C1003 H1018 0.961 . S
C1003 H1019 0.961 . S
C1004 C1005 1.370 . S
C1004 C1006 1.363 . S
C1004 H1020 0.931 . S
C1005 C1004 1.370 . S
C1005 C1009 1.408 . S
C1006 C1004 1.363 . S
C1006 C1007 1.370 . S
C1006 C1010 1.524 . S
C1007 C999 1.503 . S
C1007 C1006 1.370 . S
C1007 C1008 1.403 . S
C1008 C1007 1.403 . S
C1008 C1009 1.404 . S
C1008 C1011 1.539 . S
C1009 C1005 1.408 . S
C1009 C1008 1.404 . S
C1009 H1021 0.930 . S
C1010 C1006 1.524 . S
C1010 H1022 0.956 . S
C1010 H1023 0.961 . S
C1010 H1024 0.961 . S
C1011 C1008 1.539 . S
C1011 H1025 0.958 . S
C1011 H1026 0.961 . S
C1011 H1027 0.960 . S
H1012 C996 0.931 . S
H1013 C1001 0.929 . S
H1014 C1002 0.960 . S
H1015 C1002 0.962 . S
H1016 C1002 0.960 . S
H1017 C1003 0.961 . S
H1018 C1003 0.961 . S
H1019 C1003 0.961 . S
H1020 C1004 0.931 . S
H1021 C1009 0.930 . S
H1022 C1010 0.956 . S
H1023 C1010 0.961 . S
H1024 C1010 0.961 . S
H1025 C1011 0.958 . S
H1026 C1011 0.961 . S
H1027 C1011 0.960 . S
C1028 C1029 1.391 . S
C1028 C1030 1.394 . S
C1028 H1044 0.931 . S
C1029 C1028 1.391 . S
C1029 C1033 1.376 . S
C1030 C1028 1.394 . S
C1030 C1031 1.369 . S
C1030 C1034 1.531 . S
C1031 C1030 1.369 . S
C1031 C1032 1.410 . S
C1031 C1039 1.503 . S
C1032 C1031 1.410 . S
C1032 C1033 1.392 . S
C1032 C1035 1.511 . S
C1033 C1029 1.376 . S
C1033 C1032 1.392 . S
C1033 H1045 0.929 . S
C1034 C1030 1.531 . S
C1034 H1046 0.960 . S
C1034 H1047 0.962 . S
C1034 H1048 0.960 . S
C1035 C1032 1.511 . S
C1035 H1049 0.961 . S
C1035 H1050 0.961 . S
C1035 H1051 0.961 . S
C1036 C1037 1.370 . S
C1036 C1038 1.363 . S
C1036 H1052 0.931 . S
C1037 C1036 1.370 . S
C1037 C1041 1.408 . S
C1038 C1036 1.363 . S
C1038 C1039 1.370 . S
C1038 C1042 1.524 . S
C1039 C1031 1.503 . S
C1039 C1038 1.370 . S
C1039 C1040 1.403 . S
C1040 C1039 1.403 . S
C1040 C1041 1.404 . S
C1040 C1043 1.539 . S
C1041 C1037 1.408 . S
C1041 C1040 1.404 . S
C1041 H1053 0.930 . S
C1042 C1038 1.524 . S
C1042 H1054 0.956 . S
C1042 H1055 0.961 . S
C1042 H1056 0.961 . S
C1043 C1040 1.539 . S
C1043 H1057 0.958 . S
C1043 H1058 0.961 . S
C1043 H1059 0.960 . S
H1044 C1028 0.931 . S
H1045 C1033 0.929 . S
H1046 C1034 0.960 . S
H1047 C1034 0.962 . S
H1048 C1034 0.960 . S
H1049 C1035 0.961 . S
H1050 C1035 0.961 . S
H1051 C1035 0.961 . S
H1052 C1036 0.931 . S
H1053 C1041 0.930 . S
H1054 C1042 0.956 . S
H1055 C1042 0.961 . S
H1056 C1042 0.961 . S
H1057 C1043 0.958 . S
H1058 C1043 0.961 . S
H1059 C1043 0.960 . S
C1060 C1061 1.391 . S
C1060 C1062 1.394 . S
C1060 H1076 0.931 . S
C1061 C1060 1.391 . S
C1061 C1065 1.376 . S
C1062 C1060 1.394 . S
C1062 C1063 1.369 . S
C1062 C1066 1.531 . S
C1063 C1062 1.369 . S
C1063 C1064 1.410 . S
C1063 C1071 1.503 . S
C1064 C1063 1.410 . S
C1064 C1065 1.392 . S
C1064 C1067 1.511 . S
C1065 C1061 1.376 . S
C1065 C1064 1.392 . S
C1065 H1077 0.929 . S
C1066 C1062 1.531 . S
C1066 H1078 0.960 . S
C1066 H1079 0.962 . S
C1066 H1080 0.960 . S
C1067 C1064 1.511 . S
C1067 H1081 0.961 . S
C1067 H1082 0.961 . S
C1067 H1083 0.961 . S
C1068 C1069 1.370 . S
C1068 C1070 1.363 . S
C1068 H1084 0.931 . S
C1069 C1068 1.370 . S
C1069 C1073 1.408 . S
C1070 C1068 1.363 . S
C1070 C1071 1.370 . S
C1070 C1074 1.524 . S
C1071 C1063 1.503 . S
C1071 C1070 1.370 . S
C1071 C1072 1.403 . S
C1072 C1071 1.403 . S
C1072 C1073 1.404 . S
C1072 C1075 1.539 . S
C1073 C1069 1.408 . S
C1073 C1072 1.404 . S
C1073 H1085 0.930 . S
C1074 C1070 1.524 . S
C1074 H1086 0.956 . S
C1074 H1087 0.961 . S
C1074 H1088 0.961 . S
C1075 C1072 1.539 . S
C1075 H1089 0.958 . S
C1075 H1090 0.961 . S
C1075 H1091 0.960 . S
H1076 C1060 0.931 . S
H1077 C1065 0.929 . S
H1078 C1066 0.960 . S
H1079 C1066 0.962 . S
H1080 C1066 0.960 . S
H1081 C1067 0.961 . S
H1082 C1067 0.961 . S
H1083 C1067 0.961 . S
H1084 C1068 0.931 . S
H1085 C1073 0.930 . S
H1086 C1074 0.956 . S
H1087 C1074 0.961 . S
H1088 C1074 0.961 . S
H1089 C1075 0.958 . S
H1090 C1075 0.961 . S
H1091 C1075 0.960 . S
C1092 C1093 1.391 . S
C1092 C1094 1.394 . S
C1092 H1108 0.931 . S
C1093 C1092 1.391 . S
C1093 C1097 1.376 . S
C1094 C1092 1.394 . S
C1094 C1095 1.369 . S
C1094 C1098 1.531 . S
C1095 C1094 1.369 . S
C1095 C1096 1.410 . S
C1095 C1103 1.503 . S
C1096 C1095 1.410 . S
C1096 C1097 1.392 . S
C1096 C1099 1.511 . S
C1097 C1093 1.376 . S
C1097 C1096 1.392 . S
C1097 H1109 0.929 . S
C1098 C1094 1.531 . S
C1098 H1110 0.960 . S
C1098 H1111 0.962 . S
C1098 H1112 0.960 . S
C1099 C1096 1.511 . S
C1099 H1113 0.961 . S
C1099 H1114 0.961 . S
C1099 H1115 0.961 . S
C1100 C1101 1.370 . S
C1100 C1102 1.363 . S
C1100 H1116 0.931 . S
C1101 C1100 1.370 . S
C1101 C1105 1.408 . S
C1102 C1100 1.363 . S
C1102 C1103 1.370 . S
C1102 C1106 1.524 . S
C1103 C1095 1.503 . S
C1103 C1102 1.370 . S
C1103 C1104 1.403 . S
C1104 C1103 1.403 . S
C1104 C1105 1.404 . S
C1104 C1107 1.539 . S
C1105 C1101 1.408 . S
C1105 C1104 1.404 . S
C1105 H1117 0.930 . S
C1106 C1102 1.524 . S
C1106 H1118 0.956 . S
C1106 H1119 0.961 . S
C1106 H1120 0.961 . S
C1107 C1104 1.539 . S
C1107 H1121 0.958 . S
C1107 H1122 0.961 . S
C1107 H1123 0.960 . S
H1108 C1092 0.931 . S
H1109 C1097 0.929 . S
H1110 C1098 0.960 . S
H1111 C1098 0.962 . S
H1112 C1098 0.960 . S
H1113 C1099 0.961 . S
H1114 C1099 0.961 . S
H1115 C1099 0.961 . S
H1116 C1100 0.931 . S
H1117 C1105 0.930 . S
H1118 C1106 0.956 . S
H1119 C1106 0.961 . S
H1120 C1106 0.961 . S
H1121 C1107 0.958 . S
H1122 C1107 0.961 . S
H1123 C1107 0.960 . S
C1124 C1125 1.391 . S
C1124 C1126 1.394 . S
C1124 H1140 0.931 . S
C1125 C1124 1.391 . S
C1125 C1129 1.376 . S
C1126 C1124 1.394 . S
C1126 C1127 1.369 . S
C1126 C1130 1.531 . S
C1127 C1126 1.369 . S
C1127 C1128 1.410 . S
C1127 C1135 1.503 . S
C1128 C1127 1.410 . S
C1128 C1129 1.392 . S
C1128 C1131 1.511 . S
C1129 C1125 1.376 . S
C1129 C1128 1.392 . S
C1129 H1141 0.929 . S
C1130 C1126 1.531 . S
C1130 H1142 0.960 . S
C1130 H1143 0.962 . S
C1130 H1144 0.960 . S
C1131 C1128 1.511 . S
C1131 H1145 0.961 . S
C1131 H1146 0.961 . S
C1131 H1147 0.961 . S
C1132 C1133 1.370 . S
C1132 C1134 1.363 . S
C1132 H1148 0.931 . S
C1133 C1132 1.370 . S
C1133 C1137 1.408 . S
C1134 C1132 1.363 . S
C1134 C1135 1.370 . S
C1134 C1138 1.524 . S
C1135 C1127 1.503 . S
C1135 C1134 1.370 . S
C1135 C1136 1.403 . S
C1136 C1135 1.403 . S
C1136 C1137 1.404 . S
C1136 C1139 1.539 . S
C1137 C1133 1.408 . S
C1137 C1136 1.404 . S
C1137 H1149 0.930 . S
C1138 C1134 1.524 . S
C1138 H1150 0.956 . S
C1138 H1151 0.961 . S
C1138 H1152 0.961 . S
C1139 C1136 1.539 . S
C1139 H1153 0.958 . S
C1139 H1154 0.961 . S
C1139 H1155 0.960 . S
H1140 C1124 0.931 . S
H1141 C1129 0.929 . S
H1142 C1130 0.960 . S
H1143 C1130 0.962 . S
H1144 C1130 0.960 . S
H1145 C1131 0.961 . S
H1146 C1131 0.961 . S
H1147 C1131 0.961 . S
H1148 C1132 0.931 . S
H1149 C1137 0.930 . S
H1150 C1138 0.956 . S
H1151 C1138 0.961 . S
H1152 C1138 0.961 . S
H1153 C1139 0.958 . S
H1154 C1139 0.961 . S
H1155 C1139 0.960 . S
C1156 C1157 1.391 . S
C1156 C1158 1.394 . S
C1156 H1172 0.931 . S
C1157 C1156 1.391 . S
C1157 C1161 1.376 . S
C1158 C1156 1.394 . S
C1158 C1159 1.369 . S
C1158 C1162 1.531 . S
C1159 C1158 1.369 . S
C1159 C1160 1.410 . S
C1159 C1167 1.503 . S
C1160 C1159 1.410 . S
C1160 C1161 1.392 . S
C1160 C1163 1.511 . S
C1161 C1157 1.376 . S
C1161 C1160 1.392 . S
C1161 H1173 0.929 . S
C1162 C1158 1.531 . S
C1162 H1174 0.960 . S
C1162 H1175 0.962 . S
C1162 H1176 0.960 . S
C1163 C1160 1.511 . S
C1163 H1177 0.961 . S
C1163 H1178 0.961 . S
C1163 H1179 0.961 . S
C1164 C1165 1.370 . S
C1164 C1166 1.363 . S
C1164 H1180 0.931 . S
C1165 C1164 1.370 . S
C1165 C1169 1.408 . S
C1166 C1164 1.363 . S
C1166 C1167 1.370 . S
C1166 C1170 1.524 . S
C1167 C1159 1.503 . S
C1167 C1166 1.370 . S
C1167 C1168 1.403 . S
C1168 C1167 1.403 . S
C1168 C1169 1.404 . S
C1168 C1171 1.539 . S
C1169 C1165 1.408 . S
C1169 C1168 1.404 . S
C1169 H1181 0.930 . S
C1170 C1166 1.524 . S
C1170 H1182 0.956 . S
C1170 H1183 0.961 . S
C1170 H1184 0.961 . S
C1171 C1168 1.539 . S
C1171 H1185 0.958 . S
C1171 H1186 0.961 . S
C1171 H1187 0.960 . S
H1172 C1156 0.931 . S
H1173 C1161 0.929 . S
H1174 C1162 0.960 . S
H1175 C1162 0.962 . S
H1176 C1162 0.960 . S
H1177 C1163 0.961 . S
H1178 C1163 0.961 . S
H1179 C1163 0.961 . S
H1180 C1164 0.931 . S
H1181 C1169 0.930 . S
H1182 C1170 0.956 . S
H1183 C1170 0.961 . S
H1184 C1170 0.961 . S
H1185 C1171 0.958 . S
H1186 C1171 0.961 . S
H1187 C1171 0.960 . S
C1188 C1189 1.391 . S
C1188 C1190 1.394 . S
C1188 H1204 0.931 . S
C1189 C1188 1.391 . S
C1189 C1193 1.376 . S
C1190 C1188 1.394 . S
C1190 C1191 1.369 . S
C1190 C1194 1.531 . S
C1191 C1190 1.369 . S
C1191 C1192 1.410 . S
C1191 C1199 1.503 . S
C1192 C1191 1.410 . S
C1192 C1193 1.392 . S
C1192 C1195 1.511 . S
C1193 C1189 1.376 . S
C1193 C1192 1.392 . S
C1193 H1205 0.929 . S
C1194 C1190 1.531 . S
C1194 H1206 0.960 . S
C1194 H1207 0.962 . S
C1194 H1208 0.960 . S
C1195 C1192 1.511 . S
C1195 H1209 0.961 . S
C1195 H1210 0.961 . S
C1195 H1211 0.961 . S
C1196 C1197 1.370 . S
C1196 C1198 1.363 . S
C1196 H1212 0.931 . S
C1197 C1196 1.370 . S
C1197 C1201 1.408 . S
C1198 C1196 1.363 . S
C1198 C1199 1.370 . S
C1198 C1202 1.524 . S
C1199 C1191 1.503 . S
C1199 C1198 1.370 . S
C1199 C1200 1.403 . S
C1200 C1199 1.403 . S
C1200 C1201 1.404 . S
C1200 C1203 1.539 . S
C1201 C1197 1.408 . S
C1201 C1200 1.404 . S
C1201 H1213 0.930 . S
C1202 C1198 1.524 . S
C1202 H1214 0.956 . S
C1202 H1215 0.961 . S
C1202 H1216 0.961 . S
C1203 C1200 1.539 . S
C1203 H1217 0.958 . S
C1203 H1218 0.961 . S
C1203 H1219 0.960 . S
H1204 C1188 0.931 . S
H1205 C1193 0.929 . S
H1206 C1194 0.960 . S
H1207 C1194 0.962 . S
H1208 C1194 0.960 . S
H1209 C1195 0.961 . S
H1210 C1195 0.961 . S
H1211 C1195 0.961 . S
H1212 C1196 0.931 . S
H1213 C1201 0.930 . S
H1214 C1202 0.956 . S
H1215 C1202 0.961 . S
H1216 C1202 0.961 . S
H1217 C1203 0.958 . S
H1218 C1203 0.961 . S
H1219 C1203 0.960 . S
C1220 C1221 1.391 . S
C1220 C1222 1.394 . S
C1220 H1236 0.931 . S
C1221 C1220 1.391 . S
C1221 C1225 1.376 . S
C1222 C1220 1.394 . S
C1222 C1223 1.369 . S
C1222 C1226 1.531 . S
C1223 C1222 1.369 . S
C1223 C1224 1.410 . S
C1223 C1231 1.503 . S
C1224 C1223 1.410 . S
C1224 C1225 1.392 . S
C1224 C1227 1.511 . S
C1225 C1221 1.376 . S
C1225 C1224 1.392 . S
C1225 H1237 0.929 . S
C1226 C1222 1.531 . S
C1226 H1238 0.960 . S
C1226 H1239 0.962 . S
C1226 H1240 0.960 . S
C1227 C1224 1.511 . S
C1227 H1241 0.961 . S
C1227 H1242 0.961 . S
C1227 H1243 0.961 . S
C1228 C1229 1.370 . S
C1228 C1230 1.363 . S
C1228 H1244 0.931 . S
C1229 C1228 1.370 . S
C1229 C1233 1.408 . S
C1230 C1228 1.363 . S
C1230 C1231 1.370 . S
C1230 C1234 1.524 . S
C1231 C1223 1.503 . S
C1231 C1230 1.370 . S
C1231 C1232 1.403 . S
C1232 C1231 1.403 . S
C1232 C1233 1.404 . S
C1232 C1235 1.539 . S
C1233 C1229 1.408 . S
C1233 C1232 1.404 . S
C1233 H1245 0.930 . S
C1234 C1230 1.524 . S
C1234 H1246 0.956 . S
C1234 H1247 0.961 . S
C1234 H1248 0.961 . S
C1235 C1232 1.539 . S
C1235 H1249 0.958 . S
C1235 H1250 0.961 . S
C1235 H1251 0.960 . S
H1236 C1220 0.931 . S
H1237 C1225 0.929 . S
H1238 C1226 0.960 . S
H1239 C1226 0.962 . S
H1240 C1226 0.960 . S
H1241 C1227 0.961 . S
H1242 C1227 0.961 . S
H1243 C1227 0.961 . S
H1244 C1228 0.931 . S
H1245 C1233 0.930 . S
H1246 C1234 0.956 . S
H1247 C1234 0.961 . S
H1248 C1234 0.961 . S
H1249 C1235 0.958 . S
H1250 C1235 0.961 . S
H1251 C1235 0.960 . S
C1252 C1253 1.391 . S
C1252 C1254 1.394 . S
C1252 H1268 0.931 . S
C1253 C1252 1.391 . S
C1253 C1257 1.376 . S
C1254 C1252 1.394 . S
C1254 C1255 1.369 . S
C1254 C1258 1.531 . S
C1255 C1254 1.369 . S
C1255 C1256 1.410 . S
C1255 C1263 1.503 . S
C1256 C1255 1.410 . S
C1256 C1257 1.392 . S
C1256 C1259 1.511 . S
C1257 C1253 1.376 . S
C1257 C1256 1.392 . S
C1257 H1269 0.929 . S
C1258 C1254 1.531 . S
C1258 H1270 0.960 . S
C1258 H1271 0.962 . S
C1258 H1272 0.960 . S
C1259 C1256 1.511 . S
C1259 H1273 0.961 . S
C1259 H1274 0.961 . S
C1259 H1275 0.961 . S
C1260 C1261 1.370 . S
C1260 C1262 1.363 . S
C1260 H1276 0.931 . S
C1261 C1260 1.370 . S
C1261 C1265 1.408 . S
C1262 C1260 1.363 . S
C1262 C1263 1.370 . S
C1262 C1266 1.524 . S
C1263 C1255 1.503 . S
C1263 C1262 1.370 . S
C1263 C1264 1.403 . S
C1264 C1263 1.403 . S
C1264 C1265 1.404 . S
C1264 C1267 1.539 . S
C1265 C1261 1.408 . S
C1265 C1264 1.404 . S
C1265 H1277 0.930 . S
C1266 C1262 1.524 . S
C1266 H1278 0.956 . S
C1266 H1279 0.961 . S
C1266 H1280 0.961 . S
C1267 C1264 1.539 . S
C1267 H1281 0.958 . S
C1267 H1282 0.961 . S
C1267 H1283 0.960 . S
H1268 C1252 0.931 . S
H1269 C1257 0.929 . S
H1270 C1258 0.960 . S
H1271 C1258 0.962 . S
H1272 C1258 0.960 . S
H1273 C1259 0.961 . S
H1274 C1259 0.961 . S
H1275 C1259 0.961 . S
H1276 C1260 0.931 . S
H1277 C1265 0.930 . S
H1278 C1266 0.956 . S
H1279 C1266 0.961 . S
H1280 C1266 0.961 . S
H1281 C1267 0.958 . S
H1282 C1267 0.961 . S
H1283 C1267 0.960 . S
C1284 C1285 1.391 . S
C1284 C1286 1.394 . S
C1284 H1300 0.931 . S
C1285 C1284 1.391 . S
C1285 C1289 1.376 . S
C1286 C1284 1.394 . S
C1286 C1287 1.369 . S
C1286 C1290 1.531 . S
C1287 C1286 1.369 . S
C1287 C1288 1.410 . S
C1287 C1295 1.503 . S
C1288 C1287 1.410 . S
C1288 C1289 1.392 . S
C1288 C1291 1.511 . S
C1289 C1285 1.376 . S
C1289 C1288 1.392 . S
C1289 H1301 0.929 . S
C1290 C1286 1.531 . S
C1290 H1302 0.960 . S
C1290 H1303 0.962 . S
C1290 H1304 0.960 . S
C1291 C1288 1.511 . S
C1291 H1305 0.961 . S
C1291 H1306 0.961 . S
C1291 H1307 0.961 . S
C1292 C1293 1.370 . S
C1292 C1294 1.363 . S
C1292 H1308 0.931 . S
C1293 C1292 1.370 . S
C1293 C1297 1.408 . S
C1294 C1292 1.363 . S
C1294 C1295 1.370 . S
C1294 C1298 1.524 . S
C1295 C1287 1.503 . S
C1295 C1294 1.370 . S
C1295 C1296 1.403 . S
C1296 C1295 1.403 . S
C1296 C1297 1.404 . S
C1296 C1299 1.539 . S
C1297 C1293 1.408 . S
C1297 C1296 1.404 . S
C1297 H1309 0.930 . S
C1298 C1294 1.524 . S
C1298 H1310 0.956 . S
C1298 H1311 0.961 . S
C1298 H1312 0.961 . S
C1299 C1296 1.539 . S
C1299 H1313 0.958 . S
C1299 H1314 0.961 . S
C1299 H1315 0.960 . S
H1300 C1284 0.931 . S
H1301 C1289 0.929 . S
H1302 C1290 0.960 . S
H1303 C1290 0.962 . S
H1304 C1290 0.960 . S
H1305 C1291 0.961 . S
H1306 C1291 0.961 . S
H1307 C1291 0.961 . S
H1308 C1292 0.931 . S
H1309 C1297 0.930 . S
H1310 C1298 0.956 . S
H1311 C1298 0.961 . S
H1312 C1298 0.961 . S
H1313 C1299 0.958 . S
H1314 C1299 0.961 . S
H1315 C1299 0.960 . S
C1316 C1317 1.391 . S
C1316 C1318 1.394 . S
C1316 H1332 0.931 . S
C1317 C1316 1.391 . S
C1317 C1321 1.376 . S
C1318 C1316 1.394 . S
C1318 C1319 1.369 . S
C1318 C1322 1.531 . S
C1319 C1318 1.369 . S
C1319 C1320 1.410 . S
C1319 C1327 1.503 . S
C1320 C1319 1.410 . S
C1320 C1321 1.392 . S
C1320 C1323 1.511 . S
C1321 C1317 1.376 . S
C1321 C1320 1.392 . S
C1321 H1333 0.929 . S
C1322 C1318 1.531 . S
C1322 H1334 0.960 . S
C1322 H1335 0.962 . S
C1322 H1336 0.960 . S
C1323 C1320 1.511 . S
C1323 H1337 0.961 . S
C1323 H1338 0.961 . S
C1323 H1339 0.961 . S
C1324 C1325 1.370 . S
C1324 C1326 1.363 . S
C1324 H1340 0.931 . S
C1325 C1324 1.370 . S
C1325 C1329 1.408 . S
C1326 C1324 1.363 . S
C1326 C1327 1.370 . S
C1326 C1330 1.524 . S
C1327 C1319 1.503 . S
C1327 C1326 1.370 . S
C1327 C1328 1.403 . S
C1328 C1327 1.403 . S
C1328 C1329 1.404 . S
C1328 C1331 1.539 . S
C1329 C1325 1.408 . S
C1329 C1328 1.404 . S
C1329 H1341 0.930 . S
C1330 C1326 1.524 . S
C1330 H1342 0.956 . S
C1330 H1343 0.961 . S
C1330 H1344 0.961 . S
C1331 C1328 1.539 . S
C1331 H1345 0.958 . S
C1331 H1346 0.961 . S
C1331 H1347 0.960 . S
H1332 C1316 0.931 . S
H1333 C1321 0.929 . S
H1334 C1322 0.960 . S
H1335 C1322 0.962 . S
H1336 C1322 0.960 . S
H1337 C1323 0.961 . S
H1338 C1323 0.961 . S
H1339 C1323 0.961 . S
H1340 C1324 0.931 . S
H1341 C1329 0.930 . S
H1342 C1330 0.956 . S
H1343 C1330 0.961 . S
H1344 C1330 0.961 . S
H1345 C1331 0.958 . S
H1346 C1331 0.961 . S
H1347 C1331 0.960 . S
C1348 C1349 1.391 . S
C1348 C1350 1.394 . S
C1348 H1364 0.931 . S
C1349 C1348 1.391 . S
C1349 C1353 1.376 . S
C1350 C1348 1.394 . S
C1350 C1351 1.369 . S
C1350 C1354 1.531 . S
C1351 C1350 1.369 . S
C1351 C1352 1.410 . S
C1351 C1359 1.503 . S
C1352 C1351 1.410 . S
C1352 C1353 1.392 . S
C1352 C1355 1.511 . S
C1353 C1349 1.376 . S
C1353 C1352 1.392 . S
C1353 H1365 0.929 . S
C1354 C1350 1.531 . S
C1354 H1366 0.960 . S
C1354 H1367 0.962 . S
C1354 H1368 0.960 . S
C1355 C1352 1.511 . S
C1355 H1369 0.961 . S
C1355 H1370 0.961 . S
C1355 H1371 0.961 . S
C1356 C1357 1.370 . S
C1356 C1358 1.363 . S
C1356 H1372 0.931 . S
C1357 C1356 1.370 . S
C1357 C1361 1.408 . S
C1358 C1356 1.363 . S
C1358 C1359 1.370 . S
C1358 C1362 1.524 . S
C1359 C1351 1.503 . S
C1359 C1358 1.370 . S
C1359 C1360 1.403 . S
C1360 C1359 1.403 . S
C1360 C1361 1.404 . S
C1360 C1363 1.539 . S
C1361 C1357 1.408 . S
C1361 C1360 1.404 . S
C1361 H1373 0.930 . S
C1362 C1358 1.524 . S
C1362 H1374 0.956 . S
C1362 H1375 0.961 . S
C1362 H1376 0.961 . S
C1363 C1360 1.539 . S
C1363 H1377 0.958 . S
C1363 H1378 0.961 . S
C1363 H1379 0.960 . S
H1364 C1348 0.931 . S
H1365 C1353 0.929 . S
H1366 C1354 0.960 . S
H1367 C1354 0.962 . S
H1368 C1354 0.960 . S
H1369 C1355 0.961 . S
H1370 C1355 0.961 . S
H1371 C1355 0.961 . S
H1372 C1356 0.931 . S
H1373 C1361 0.930 . S
H1374 C1362 0.956 . S
H1375 C1362 0.961 . S
H1376 C1362 0.961 . S
H1377 C1363 0.958 . S
H1378 C1363 0.961 . S
H1379 C1363 0.960 . S
C1380 C1381 1.391 . S
C1380 C1382 1.394 . S
C1380 H1396 0.931 . S
C1381 C1380 1.391 . S
C1381 C1385 1.376 . S
C1382 C1380 1.394 . S
C1382 C1383 1.369 . S
C1382 C1386 1.531 . S
C1383 C1382 1.369 . S
C1383 C1384 1.410 . S
C1383 C1391 1.503 . S
C1384 C1383 1.410 . S
C1384 C1385 1.392 . S
C1384 C1387 1.511 . S
C1385 C1381 1.376 . S
C1385 C1384 1.392 . S
C1385 H1397 0.929 . S
C1386 C1382 1.531 . S
C1386 H1398 0.960 . S
C1386 H1399 0.962 . S
C1386 H1400 0.960 . S
C1387 C1384 1.511 . S
C1387 H1401 0.961 . S
C1387 H1402 0.961 . S
C1387 H1403 0.961 . S
C1388 C1389 1.370 . S
C1388 C1390 1.363 . S
C1388 H1404 0.931 . S
C1389 C1388 1.370 . S
C1389 C1393 1.408 . S
C1390 C1388 1.363 . S
C1390 C1391 1.370 . S
C1390 C1394 1.524 . S
C1391 C1383 1.503 . S
C1391 C1390 1.370 . S
C1391 C1392 1.403 . S
C1392 C1391 1.403 . S
C1392 C1393 1.404 . S
C1392 C1395 1.539 . S
C1393 C1389 1.408 . S
C1393 C1392 1.404 . S
C1393 H1405 0.930 . S
C1394 C1390 1.524 . S
C1394 H1406 0.956 . S
C1394 H1407 0.961 . S
C1394 H1408 0.961 . S
C1395 C1392 1.539 . S
C1395 H1409 0.958 . S
C1395 H1410 0.961 . S
C1395 H1411 0.960 . S
H1396 C1380 0.931 . S
H1397 C1385 0.929 . S
H1398 C1386 0.960 . S
H1399 C1386 0.962 . S
H1400 C1386 0.960 . S
H1401 C1387 0.961 . S
H1402 C1387 0.961 . S
H1403 C1387 0.961 . S
H1404 C1388 0.931 . S
H1405 C1393 0.930 . S
H1406 C1394 0.956 . S
H1407 C1394 0.961 . S
H1408 C1394 0.961 . S
H1409 C1395 0.958 . S
H1410 C1395 0.961 . S
H1411 C1395 0.960 . S
C1412 C1413 1.391 . S
C1412 C1414 1.394 . S
C1412 H1428 0.931 . S
C1413 C1412 1.391 . S
C1413 C1417 1.376 . S
C1414 C1412 1.394 . S
C1414 C1415 1.369 . S
C1414 C1418 1.531 . S
C1415 C1414 1.369 . S
C1415 C1416 1.410 . S
C1415 C1423 1.503 . S
C1416 C1415 1.410 . S
C1416 C1417 1.392 . S
C1416 C1419 1.511 . S
C1417 C1413 1.376 . S
C1417 C1416 1.392 . S
C1417 H1429 0.929 . S
C1418 C1414 1.531 . S
C1418 H1430 0.960 . S
C1418 H1431 0.962 . S
C1418 H1432 0.960 . S
C1419 C1416 1.511 . S
C1419 H1433 0.961 . S
C1419 H1434 0.961 . S
C1419 H1435 0.961 . S
C1420 C1421 1.370 . S
C1420 C1422 1.363 . S
C1420 H1436 0.931 . S
C1421 C1420 1.370 . S
C1421 C1425 1.408 . S
C1422 C1420 1.363 . S
C1422 C1423 1.370 . S
C1422 C1426 1.524 . S
C1423 C1415 1.503 . S
C1423 C1422 1.370 . S
C1423 C1424 1.403 . S
C1424 C1423 1.403 . S
C1424 C1425 1.404 . S
C1424 C1427 1.539 . S
C1425 C1421 1.408 . S
C1425 C1424 1.404 . S
C1425 H1437 0.930 . S
C1426 C1422 1.524 . S
C1426 H1438 0.956 . S
C1426 H1439 0.961 . S
C1426 H1440 0.961 . S
C1427 C1424 1.539 . S
C1427 H1441 0.958 . S
C1427 H1442 0.961 . S
C1427 H1443 0.960 . S
H1428 C1412 0.931 . S
H1429 C1417 0.929 . S
H1430 C1418 0.960 . S
H1431 C1418 0.962 . S
H1432 C1418 0.960 . S
H1433 C1419 0.961 . S
H1434 C1419 0.961 . S
H1435 C1419 0.961 . S
H1436 C1420 0.931 . S
H1437 C1425 0.930 . S
H1438 C1426 0.956 . S
H1439 C1426 0.961 . S
H1440 C1426 0.961 . S
H1441 C1427 0.958 . S
H1442 C1427 0.961 . S
H1443 C1427 0.960 . S
C1444 C1445 1.391 . S
C1444 C1446 1.394 . S
C1444 H1460 0.931 . S
C1445 C1444 1.391 . S
C1445 C1449 1.376 . S
C1446 C1444 1.394 . S
C1446 C1447 1.369 . S
C1446 C1450 1.531 . S
C1447 C1446 1.369 . S
C1447 C1448 1.410 . S
C1447 C1455 1.503 . S
C1448 C1447 1.410 . S
C1448 C1449 1.392 . S
C1448 C1451 1.511 . S
C1449 C1445 1.376 . S
C1449 C1448 1.392 . S
C1449 H1461 0.929 . S
C1450 C1446 1.531 . S
C1450 H1462 0.960 . S
C1450 H1463 0.962 . S
C1450 H1464 0.960 . S
C1451 C1448 1.511 . S
C1451 H1465 0.961 . S
C1451 H1466 0.961 . S
C1451 H1467 0.961 . S
C1452 C1453 1.370 . S
C1452 C1454 1.363 . S
C1452 H1468 0.931 . S
C1453 C1452 1.370 . S
C1453 C1457 1.408 . S
C1454 C1452 1.363 . S
C1454 C1455 1.370 . S
C1454 C1458 1.524 . S
C1455 C1447 1.503 . S
C1455 C1454 1.370 . S
C1455 C1456 1.403 . S
C1456 C1455 1.403 . S
C1456 C1457 1.404 . S
C1456 C1459 1.539 . S
C1457 C1453 1.408 . S
C1457 C1456 1.404 . S
C1457 H1469 0.930 . S
C1458 C1454 1.524 . S
C1458 H1470 0.956 . S
C1458 H1471 0.961 . S
C1458 H1472 0.961 . S
C1459 C1456 1.539 . S
C1459 H1473 0.958 . S
C1459 H1474 0.961 . S
C1459 H1475 0.960 . S
H1460 C1444 0.931 . S
H1461 C1449 0.929 . S
H1462 C1450 0.960 . S
H1463 C1450 0.962 . S
H1464 C1450 0.960 . S
H1465 C1451 0.961 . S
H1466 C1451 0.961 . S
H1467 C1451 0.961 . S
H1468 C1452 0.931 . S
H1469 C1457 0.930 . S
H1470 C1458 0.956 . S
H1471 C1458 0.961 . S
H1472 C1458 0.961 . S
H1473 C1459 0.958 . S
H1474 C1459 0.961 . S
H1475 C1459 0.960 . S
C1476 C1477 1.391 . S
C1476 C1478 1.394 . S
C1476 H1492 0.931 . S
C1477 C1476 1.391 . S
C1477 C1481 1.376 . S
C1478 C1476 1.394 . S
C1478 C1479 1.369 . S
C1478 C1482 1.531 . S
C1479 C1478 1.369 . S
C1479 C1480 1.410 . S
C1479 C1487 1.503 . S
C1480 C1479 1.410 . S
C1480 C1481 1.392 . S
C1480 C1483 1.511 . S
C1481 C1477 1.376 . S
C1481 C1480 1.392 . S
C1481 H1493 0.929 . S
C1482 C1478 1.531 . S
C1482 H1494 0.960 . S
C1482 H1495 0.962 . S
C1482 H1496 0.960 . S
C1483 C1480 1.511 . S
C1483 H1497 0.961 . S
C1483 H1498 0.961 . S
C1483 H1499 0.961 . S
C1484 C1485 1.370 . S
C1484 C1486 1.363 . S
C1484 H1500 0.931 . S
C1485 C1484 1.370 . S
C1485 C1489 1.408 . S
C1486 C1484 1.363 . S
C1486 C1487 1.370 . S
C1486 C1490 1.524 . S
C1487 C1479 1.503 . S
C1487 C1486 1.370 . S
C1487 C1488 1.403 . S
C1488 C1487 1.403 . S
C1488 C1489 1.404 . S
C1488 C1491 1.539 . S
C1489 C1485 1.408 . S
C1489 C1488 1.404 . S
C1489 H1501 0.930 . S
C1490 C1486 1.524 . S
C1490 H1502 0.956 . S
C1490 H1503 0.961 . S
C1490 H1504 0.961 . S
C1491 C1488 1.539 . S
C1491 H1505 0.958 . S
C1491 H1506 0.961 . S
C1491 H1507 0.960 . S
H1492 C1476 0.931 . S
H1493 C1481 0.929 . S
H1494 C1482 0.960 . S
H1495 C1482 0.962 . S
H1496 C1482 0.960 . S
H1497 C1483 0.961 . S
H1498 C1483 0.961 . S
H1499 C1483 0.961 . S
H1500 C1484 0.931 . S
H1501 C1489 0.930 . S
H1502 C1490 0.956 . S
H1503 C1490 0.961 . S
H1504 C1490 0.961 . S
H1505 C1491 0.958 . S
H1506 C1491 0.961 . S
H1507 C1491 0.960 . S
C1508 C1509 1.391 . S
C1508 C1510 1.394 . S
C1508 H1524 0.931 . S
C1509 C1508 1.391 . S
C1509 C1513 1.376 . S
C1510 C1508 1.394 . S
C1510 C1511 1.369 . S
C1510 C1514 1.531 . S
C1511 C1510 1.369 . S
C1511 C1512 1.410 . S
C1511 C1519 1.503 . S
C1512 C1511 1.410 . S
C1512 C1513 1.392 . S
C1512 C1515 1.511 . S
C1513 C1509 1.376 . S
C1513 C1512 1.392 . S
C1513 H1525 0.929 . S
C1514 C1510 1.531 . S
C1514 H1526 0.960 . S
C1514 H1527 0.962 . S
C1514 H1528 0.960 . S
C1515 C1512 1.511 . S
C1515 H1529 0.961 . S
C1515 H1530 0.961 . S
C1515 H1531 0.961 . S
C1516 C1517 1.370 . S
C1516 C1518 1.363 . S
C1516 H1532 0.931 . S
C1517 C1516 1.370 . S
C1517 C1521 1.408 . S
C1518 C1516 1.363 . S
C1518 C1519 1.370 . S
C1518 C1522 1.524 . S
C1519 C1511 1.503 . S
C1519 C1518 1.370 . S
C1519 C1520 1.403 . S
C1520 C1519 1.403 . S
C1520 C1521 1.404 . S
C1520 C1523 1.539 . S
C1521 C1517 1.408 . S
C1521 C1520 1.404 . S
C1521 H1533 0.930 . S
C1522 C1518 1.524 . S
C1522 H1534 0.956 . S
C1522 H1535 0.961 . S
C1522 H1536 0.961 . S
C1523 C1520 1.539 . S
C1523 H1537 0.958 . S
C1523 H1538 0.961 . S
C1523 H1539 0.960 . S
H1524 C1508 0.931 . S
H1525 C1513 0.929 . S
H1526 C1514 0.960 . S
H1527 C1514 0.962 . S
H1528 C1514 0.960 . S
H1529 C1515 0.961 . S
H1530 C1515 0.961 . S
H1531 C1515 0.961 . S
H1532 C1516 0.931 . S
H1533 C1521 0.930 . S
H1534 C1522 0.956 . S
H1535 C1522 0.961 . S
H1536 C1522 0.961 . S
H1537 C1523 0.958 . S
H1538 C1523 0.961 . S
H1539 C1523 0.960 . S
C1540 C1541 1.391 . S
C1540 C1542 1.394 . S
C1540 H1556 0.931 . S
C1541 C1540 1.391 . S
C1541 C1545 1.376 . S
C1542 C1540 1.394 . S
C1542 C1543 1.369 . S
C1542 C1546 1.531 . S
C1543 C1542 1.369 . S
C1543 C1544 1.410 . S
C1543 C1551 1.503 . S
C1544 C1543 1.410 . S
C1544 C1545 1.392 . S
C1544 C1547 1.511 . S
C1545 C1541 1.376 . S
C1545 C1544 1.392 . S
C1545 H1557 0.929 . S
C1546 C1542 1.531 . S
C1546 H1558 0.960 . S
C1546 H1559 0.962 . S
C1546 H1560 0.960 . S
C1547 C1544 1.511 . S
C1547 H1561 0.961 . S
C1547 H1562 0.961 . S
C1547 H1563 0.961 . S
C1548 C1549 1.370 . S
C1548 C1550 1.363 . S
C1548 H1564 0.931 . S
C1549 C1548 1.370 . S
C1549 C1553 1.408 . S
C1550 C1548 1.363 . S
C1550 C1551 1.370 . S
C1550 C1554 1.524 . S
C1551 C1543 1.503 . S
C1551 C1550 1.370 . S
C1551 C1552 1.403 . S
C1552 C1551 1.403 . S
C1552 C1553 1.404 . S
C1552 C1555 1.539 . S
C1553 C1549 1.408 . S
C1553 C1552 1.404 . S
C1553 H1565 0.930 . S
C1554 C1550 1.524 . S
C1554 H1566 0.956 . S
C1554 H1567 0.961 . S
C1554 H1568 0.961 . S
C1555 C1552 1.539 . S
C1555 H1569 0.958 . S
C1555 H1570 0.961 . S
C1555 H1571 0.960 . S
H1556 C1540 0.931 . S
H1557 C1545 0.929 . S
H1558 C1546 0.960 . S
H1559 C1546 0.962 . S
H1560 C1546 0.960 . S
H1561 C1547 0.961 . S
H1562 C1547 0.961 . S
H1563 C1547 0.961 . S
H1564 C1548 0.931 . S
H1565 C1553 0.930 . S
H1566 C1554 0.956 . S
H1567 C1554 0.961 . S
H1568 C1554 0.961 . S
H1569 C1555 0.958 . S
H1570 C1555 0.961 . S
H1571 C1555 0.960 . S
C1572 C1573 1.391 . S
C1572 C1574 1.394 . S
C1572 H1588 0.931 . S
C1573 C1572 1.391 . S
C1573 C1577 1.376 . S
C1574 C1572 1.394 . S
C1574 C1575 1.369 . S
C1574 C1578 1.531 . S
C1575 C1574 1.369 . S
C1575 C1576 1.410 . S
C1575 C1583 1.503 . S
C1576 C1575 1.410 . S
C1576 C1577 1.392 . S
C1576 C1579 1.511 . S
C1577 C1573 1.376 . S
C1577 C1576 1.392 . S
C1577 H1589 0.929 . S
C1578 C1574 1.531 . S
C1578 H1590 0.960 . S
C1578 H1591 0.962 . S
C1578 H1592 0.960 . S
C1579 C1576 1.511 . S
C1579 H1593 0.961 . S
C1579 H1594 0.961 . S
C1579 H1595 0.961 . S
C1580 C1581 1.370 . S
C1580 C1582 1.363 . S
C1580 H1596 0.931 . S
C1581 C1580 1.370 . S
C1581 C1585 1.408 . S
C1582 C1580 1.363 . S
C1582 C1583 1.370 . S
C1582 C1586 1.524 . S
C1583 C1575 1.503 . S
C1583 C1582 1.370 . S
C1583 C1584 1.403 . S
C1584 C1583 1.403 . S
C1584 C1585 1.404 . S
C1584 C1587 1.539 . S
C1585 C1581 1.408 . S
C1585 C1584 1.404 . S
C1585 H1597 0.930 . S
C1586 C1582 1.524 . S
C1586 H1598 0.956 . S
C1586 H1599 0.961 . S
C1586 H1600 0.961 . S
C1587 C1584 1.539 . S
C1587 H1601 0.958 . S
C1587 H1602 0.961 . S
C1587 H1603 0.960 . S
H1588 C1572 0.931 . S
H1589 C1577 0.929 . S
H1590 C1578 0.960 . S
H1591 C1578 0.962 . S
H1592 C1578 0.960 . S
H1593 C1579 0.961 . S
H1594 C1579 0.961 . S
H1595 C1579 0.961 . S
H1596 C1580 0.931 . S
H1597 C1585 0.930 . S
H1598 C1586 0.956 . S
H1599 C1586 0.961 . S
H1600 C1586 0.961 . S
H1601 C1587 0.958 . S
H1602 C1587 0.961 . S
H1603 C1587 0.960 . S
C1604 C1605 1.391 . S
C1604 C1606 1.394 . S
C1604 H1620 0.931 . S
C1605 C1604 1.391 . S
C1605 C1609 1.376 . S
C1606 C1604 1.394 . S
C1606 C1607 1.369 . S
C1606 C1610 1.531 . S
C1607 C1606 1.369 . S
C1607 C1608 1.410 . S
C1607 C1615 1.503 . S
C1608 C1607 1.410 . S
C1608 C1609 1.392 . S
C1608 C1611 1.511 . S
C1609 C1605 1.376 . S
C1609 C1608 1.392 . S
C1609 H1621 0.929 . S
C1610 C1606 1.531 . S
C1610 H1622 0.960 . S
C1610 H1623 0.962 . S
C1610 H1624 0.960 . S
C1611 C1608 1.511 . S
C1611 H1625 0.961 . S
C1611 H1626 0.961 . S
C1611 H1627 0.961 . S
C1612 C1613 1.370 . S
C1612 C1614 1.363 . S
C1612 H1628 0.931 . S
C1613 C1612 1.370 . S
C1613 C1617 1.408 . S
C1614 C1612 1.363 . S
C1614 C1615 1.370 . S
C1614 C1618 1.524 . S
C1615 C1607 1.503 . S
C1615 C1614 1.370 . S
C1615 C1616 1.403 . S
C1616 C1615 1.403 . S
C1616 C1617 1.404 . S
C1616 C1619 1.539 . S
C1617 C1613 1.408 . S
C1617 C1616 1.404 . S
C1617 H1629 0.930 . S
C1618 C1614 1.524 . S
C1618 H1630 0.956 . S
C1618 H1631 0.961 . S
C1618 H1632 0.961 . S
C1619 C1616 1.539 . S
C1619 H1633 0.958 . S
C1619 H1634 0.961 . S
C1619 H1635 0.960 . S
H1620 C1604 0.931 . S
H1621 C1609 0.929 . S
H1622 C1610 0.960 . S
H1623 C1610 0.962 . S
H1624 C1610 0.960 . S
H1625 C1611 0.961 . S
H1626 C1611 0.961 . S
H1627 C1611 0.961 . S
H1628 C1612 0.931 . S
H1629 C1617 0.930 . S
H1630 C1618 0.956 . S
H1631 C1618 0.961 . S
H1632 C1618 0.961 . S
H1633 C1619 0.958 . S
H1634 C1619 0.961 . S
H1635 C1619 0.960 . S
C1636 C1637 1.391 . S
C1636 C1638 1.394 . S
C1636 H1652 0.931 . S
C1637 C1636 1.391 . S
C1637 C1641 1.376 . S
C1638 C1636 1.394 . S
C1638 C1639 1.369 . S
C1638 C1642 1.531 . S
C1639 C1638 1.369 . S
C1639 C1640 1.410 . S
C1639 C1647 1.503 . S
C1640 C1639 1.410 . S
C1640 C1641 1.392 . S
C1640 C1643 1.511 . S
C1641 C1637 1.376 . S
C1641 C1640 1.392 . S
C1641 H1653 0.929 . S
C1642 C1638 1.531 . S
C1642 H1654 0.960 . S
C1642 H1655 0.962 . S
C1642 H1656 0.960 . S
C1643 C1640 1.511 . S
C1643 H1657 0.961 . S
C1643 H1658 0.961 . S
C1643 H1659 0.961 . S
C1644 C1645 1.370 . S
C1644 C1646 1.363 . S
C1644 H1660 0.931 . S
C1645 C1644 1.370 . S
C1645 C1649 1.408 . S
C1646 C1644 1.363 . S
C1646 C1647 1.370 . S
C1646 C1650 1.524 . S
C1647 C1639 1.503 . S
C1647 C1646 1.370 . S
C1647 C1648 1.403 . S
C1648 C1647 1.403 . S
C1648 C1649 1.404 . S
C1648 C1651 1.539 . S
C1649 C1645 1.408 . S
C1649 C1648 1.404 . S
C1649 H1661 0.930 . S
C1650 C1646 1.524 . S
C1650 H1662 0.956 . S
C1650 H1663 0.961 . S
C1650 H1664 0.961 . S
C1651 C1648 1.539 . S
C1651 H1665 0.958 . S
C1651 H1666 0.961 . S
C1651 H1667 0.960 . S
H1652 C1636 0.931 . S
H1653 C1641 0.929 . S
H1654 C1642 0.960 . S
H1655 C1642 0.962 . S
H1656 C1642 0.960 . S
H1657 C1643 0.961 . S
H1658 C1643 0.961 . S
H1659 C1643 0.961 . S
H1660 C1644 0.931 . S
H1661 C1649 0.930 . S
H1662 C1650 0.956 . S
H1663 C1650 0.961 . S
H1664 C1650 0.961 . S
H1665 C1651 0.958 . S
H1666 C1651 0.961 . S
H1667 C1651 0.960 . S
C1668 C1669 1.391 . S
C1668 C1670 1.394 . S
C1668 H1684 0.931 . S
C1669 C1668 1.391 . S
C1669 C1673 1.376 . S
C1670 C1668 1.394 . S
C1670 C1671 1.369 . S
C1670 C1674 1.531 . S
C1671 C1670 1.369 . S
C1671 C1672 1.410 . S
C1671 C1679 1.503 . S
C1672 C1671 1.410 . S
C1672 C1673 1.392 . S
C1672 C1675 1.511 . S
C1673 C1669 1.376 . S
C1673 C1672 1.392 . S
C1673 H1685 0.929 . S
C1674 C1670 1.531 . S
C1674 H1686 0.960 . S
C1674 H1687 0.962 . S
C1674 H1688 0.960 . S
C1675 C1672 1.511 . S
C1675 H1689 0.961 . S
C1675 H1690 0.961 . S
C1675 H1691 0.961 . S
C1676 C1677 1.370 . S
C1676 C1678 1.363 . S
C1676 H1692 0.931 . S
C1677 C1676 1.370 . S
C1677 C1681 1.408 . S
C1678 C1676 1.363 . S
C1678 C1679 1.370 . S
C1678 C1682 1.524 . S
C1679 C1671 1.503 . S
C1679 C1678 1.370 . S
C1679 C1680 1.403 . S
C1680 C1679 1.403 . S
C1680 C1681 1.404 . S
C1680 C1683 1.539 . S
C1681 C1677 1.408 . S
C1681 C1680 1.404 . S
C1681 H1693 0.930 . S
C1682 C1678 1.524 . S
C1682 H1694 0.956 . S
C1682 H1695 0.961 . S
C1682 H1696 0.961 . S
C1683 C1680 1.539 . S
C1683 H1697 0.958 . S
C1683 H1698 0.961 . S
C1683 H1699 0.960 . S
H1684 C1668 0.931 . S
H1685 C1673 0.929 . S
H1686 C1674 0.960 . S
H1687 C1674 0.962 . S
H1688 C1674 0.960 . S
H1689 C1675 0.961 . S
H1690 C1675 0.961 . S
H1691 C1675 0.961 . S
H1692 C1676 0.931 . S
H1693 C1681 0.930 . S
H1694 C1682 0.956 . S
H1695 C1682 0.961 . S
H1696 C1682 0.961 . S
H1697 C1683 0.958 . S
H1698 C1683 0.961 . S
H1699 C1683 0.960 . S
C1700 C1701 1.391 . S
C1700 C1702 1.394 . S
C1700 H1716 0.931 . S
C1701 C1700 1.391 . S
C1701 C1705 1.376 . S
C1702 C1700 1.394 . S
C1702 C1703 1.369 . S
C1702 C1706 1.531 . S
C1703 C1702 1.369 . S
C1703 C1704 1.410 . S
C1703 C1711 1.503 . S
C1704 C1703 1.410 . S
C1704 C1705 1.392 . S
C1704 C1707 1.511 . S
C1705 C1701 1.376 . S
C1705 C1704 1.392 . S
C1705 H1717 0.929 . S
C1706 C1702 1.531 . S
C1706 H1718 0.960 . S
C1706 H1719 0.962 . S
C1706 H1720 0.960 . S
C1707 C1704 1.511 . S
C1707 H1721 0.961 . S
C1707 H1722 0.961 . S
C1707 H1723 0.961 . S
C1708 C1709 1.370 . S
C1708 C1710 1.363 . S
C1708 H1724 0.931 . S
C1709 C1708 1.370 . S
C1709 C1713 1.408 . S
C1710 C1708 1.363 . S
C1710 C1711 1.370 . S
C1710 C1714 1.524 . S
C1711 C1703 1.503 . S
C1711 C1710 1.370 . S
C1711 C1712 1.403 . S
C1712 C1711 1.403 . S
C1712 C1713 1.404 . S
C1712 C1715 1.539 . S
C1713 C1709 1.408 . S
C1713 C1712 1.404 . S
C1713 H1725 0.930 . S
C1714 C1710 1.524 . S
C1714 H1726 0.956 . S
C1714 H1727 0.961 . S
C1714 H1728 0.961 . S
C1715 C1712 1.539 . S
C1715 H1729 0.958 . S
C1715 H1730 0.961 . S
C1715 H1731 0.960 . S
H1716 C1700 0.931 . S
H1717 C1705 0.929 . S
H1718 C1706 0.960 . S
H1719 C1706 0.962 . S
H1720 C1706 0.960 . S
H1721 C1707 0.961 . S
H1722 C1707 0.961 . S
H1723 C1707 0.961 . S
H1724 C1708 0.931 . S
H1725 C1713 0.930 . S
H1726 C1714 0.956 . S
H1727 C1714 0.961 . S
H1728 C1714 0.961 . S
H1729 C1715 0.958 . S
H1730 C1715 0.961 . S
H1731 C1715 0.960 . S
C1732 C1733 1.391 . S
C1732 C1734 1.394 . S
C1732 H1748 0.931 . S
C1733 C1732 1.391 . S
C1733 C1737 1.376 . S
C1734 C1732 1.394 . S
C1734 C1735 1.369 . S
C1734 C1738 1.531 . S
C1735 C1734 1.369 . S
C1735 C1736 1.410 . S
C1735 C1743 1.503 . S
C1736 C1735 1.410 . S
C1736 C1737 1.392 . S
C1736 C1739 1.511 . S
C1737 C1733 1.376 . S
C1737 C1736 1.392 . S
C1737 H1749 0.929 . S
C1738 C1734 1.531 . S
C1738 H1750 0.960 . S
C1738 H1751 0.962 . S
C1738 H1752 0.960 . S
C1739 C1736 1.511 . S
C1739 H1753 0.961 . S
C1739 H1754 0.961 . S
C1739 H1755 0.961 . S
C1740 C1741 1.370 . S
C1740 C1742 1.363 . S
C1740 H1756 0.931 . S
C1741 C1740 1.370 . S
C1741 C1745 1.408 . S
C1742 C1740 1.363 . S
C1742 C1743 1.370 . S
C1742 C1746 1.524 . S
C1743 C1735 1.503 . S
C1743 C1742 1.370 . S
C1743 C1744 1.403 . S
C1744 C1743 1.403 . S
C1744 C1745 1.404 . S
C1744 C1747 1.539 . S
C1745 C1741 1.408 . S
C1745 C1744 1.404 . S
C1745 H1757 0.930 . S
C1746 C1742 1.524 . S
C1746 H1758 0.956 . S
C1746 H1759 0.961 . S
C1746 H1760 0.961 . S
C1747 C1744 1.539 . S
C1747 H1761 0.958 . S
C1747 H1762 0.961 . S
C1747 H1763 0.960 . S
H1748 C1732 0.931 . S
H1749 C1737 0.929 . S
H1750 C1738 0.960 . S
H1751 C1738 0.962 . S
H1752 C1738 0.960 . S
H1753 C1739 0.961 . S
H1754 C1739 0.961 . S
H1755 C1739 0.961 . S
H1756 C1740 0.931 . S
H1757 C1745 0.930 . S
H1758 C1746 0.956 . S
H1759 C1746 0.961 . S
H1760 C1746 0.961 . S
H1761 C1747 0.958 . S
H1762 C1747 0.961 . S
H1763 C1747 0.960 . S
C1764 C1765 1.391 . S
C1764 C1766 1.394 . S
C1764 H1780 0.931 . S
C1765 C1764 1.391 . S
C1765 C1769 1.376 . S
C1766 C1764 1.394 . S
C1766 C1767 1.369 . S
C1766 C1770 1.531 . S
C1767 C1766 1.369 . S
C1767 C1768 1.410 . S
C1767 C1775 1.503 . S
C1768 C1767 1.410 . S
C1768 C1769 1.392 . S
C1768 C1771 1.511 . S
C1769 C1765 1.376 . S
C1769 C1768 1.392 . S
C1769 H1781 0.929 . S
C1770 C1766 1.531 . S
C1770 H1782 0.960 . S
C1770 H1783 0.962 . S
C1770 H1784 0.960 . S
C1771 C1768 1.511 . S
C1771 H1785 0.961 . S
C1771 H1786 0.961 . S
C1771 H1787 0.961 . S
C1772 C1773 1.370 . S
C1772 C1774 1.363 . S
C1772 H1788 0.931 . S
C1773 C1772 1.370 . S
C1773 C1777 1.408 . S
C1774 C1772 1.363 . S
C1774 C1775 1.370 . S
C1774 C1778 1.524 . S
C1775 C1767 1.503 . S
C1775 C1774 1.370 . S
C1775 C1776 1.403 . S
C1776 C1775 1.403 . S
C1776 C1777 1.404 . S
C1776 C1779 1.539 . S
C1777 C1773 1.408 . S
C1777 C1776 1.404 . S
C1777 H1789 0.930 . S
C1778 C1774 1.524 . S
C1778 H1790 0.956 . S
C1778 H1791 0.961 . S
C1778 H1792 0.961 . S
C1779 C1776 1.539 . S
C1779 H1793 0.958 . S
C1779 H1794 0.961 . S
C1779 H1795 0.960 . S
H1780 C1764 0.931 . S
H1781 C1769 0.929 . S
H1782 C1770 0.960 . S
H1783 C1770 0.962 . S
H1784 C1770 0.960 . S
H1785 C1771 0.961 . S
H1786 C1771 0.961 . S
H1787 C1771 0.961 . S
H1788 C1772 0.931 . S
H1789 C1777 0.930 . S
H1790 C1778 0.956 . S
H1791 C1778 0.961 . S
H1792 C1778 0.961 . S
H1793 C1779 0.958 . S
H1794 C1779 0.961 . S
H1795 C1779 0.960 . S
C1796 C1797 1.391 . S
C1796 C1798 1.394 . S
C1796 H1812 0.931 . S
C1797 C1796 1.391 . S
C1797 C1801 1.376 . S
C1798 C1796 1.394 . S
C1798 C1799 1.369 . S
C1798 C1802 1.531 . S
C1799 C1798 1.369 . S
C1799 C1800 1.410 . S
C1799 C1807 1.503 . S
C1800 C1799 1.410 . S
C1800 C1801 1.392 . S
C1800 C1803 1.511 . S
C1801 C1797 1.376 . S
C1801 C1800 1.392 . S
C1801 H1813 0.929 . S
C1802 C1798 1.531 . S
C1802 H1814 0.960 . S
C1802 H1815 0.962 . S
C1802 H1816 0.960 . S
C1803 C1800 1.511 . S
C1803 H1817 0.961 . S
C1803 H1818 0.961 . S
C1803 H1819 0.961 . S
C1804 C1805 1.370 . S
C1804 C1806 1.363 . S
C1804 H1820 0.931 . S
C1805 C1804 1.370 . S
C1805 C1809 1.408 . S
C1806 C1804 1.363 . S
C1806 C1807 1.370 . S
C1806 C1810 1.524 . S
C1807 C1799 1.503 . S
C1807 C1806 1.370 . S
C1807 C1808 1.403 . S
C1808 C1807 1.403 . S
C1808 C1809 1.404 . S
C1808 C1811 1.539 . S
C1809 C1805 1.408 . S
C1809 C1808 1.404 . S
C1809 H1821 0.930 . S
C1810 C1806 1.524 . S
C1810 H1822 0.956 . S
C1810 H1823 0.961 . S
C1810 H1824 0.961 . S
C1811 C1808 1.539 . S
C1811 H1825 0.958 . S
C1811 H1826 0.961 . S
C1811 H1827 0.960 . S
H1812 C1796 0.931 . S
H1813 C1801 0.929 . S
H1814 C1802 0.960 . S
H1815 C1802 0.962 . S
H1816 C1802 0.960 . S
H1817 C1803 0.961 . S
H1818 C1803 0.961 . S
H1819 C1803 0.961 . S
H1820 C1804 0.931 . S
H1821 C1809 0.930 . S
H1822 C1810 0.956 . S
H1823 C1810 0.961 . S
H1824 C1810 0.961 . S
H1825 C1811 0.958 . S
H1826 C1811 0.961 . S
H1827 C1811 0.960 . S
C1828 C1829 1.391 . S
C1828 C1830 1.394 . S
C1828 H1844 0.931 . S
C1829 C1828 1.391 . S
C1829 C1833 1.376 . S
C1830 C1828 1.394 . S
C1830 C1831 1.369 . S
C1830 C1834 1.531 . S
C1831 C1830 1.369 . S
C1831 C1832 1.410 . S
C1831 C1839 1.503 . S
C1832 C1831 1.410 . S
C1832 C1833 1.392 . S
C1832 C1835 1.511 . S
C1833 C1829 1.376 . S
C1833 C1832 1.392 . S
C1833 H1845 0.929 . S
C1834 C1830 1.531 . S
C1834 H1846 0.960 . S
C1834 H1847 0.962 . S
C1834 H1848 0.960 . S
C1835 C1832 1.511 . S
C1835 H1849 0.961 . S
C1835 H1850 0.961 . S
C1835 H1851 0.961 . S
C1836 C1837 1.370 . S
C1836 C1838 1.363 . S
C1836 H1852 0.931 . S
C1837 C1836 1.370 . S
C1837 C1841 1.408 . S
C1838 C1836 1.363 . S
C1838 C1839 1.370 . S
C1838 C1842 1.524 . S
C1839 C1831 1.503 . S
C1839 C1838 1.370 . S
C1839 C1840 1.403 . S
C1840 C1839 1.403 . S
C1840 C1841 1.404 . S
C1840 C1843 1.539 . S
C1841 C1837 1.408 . S
C1841 C1840 1.404 . S
C1841 H1853 0.930 . S
C1842 C1838 1.524 . S
C1842 H1854 0.956 . S
C1842 H1855 0.961 . S
C1842 H1856 0.961 . S
C1843 C1840 1.539 . S
C1843 H1857 0.958 . S
C1843 H1858 0.961 . S
C1843 H1859 0.960 . S
H1844 C1828 0.931 . S
H1845 C1833 0.929 . S
H1846 C1834 0.960 . S
H1847 C1834 0.962 . S
H1848 C1834 0.960 . S
H1849 C1835 0.961 . S
H1850 C1835 0.961 . S
H1851 C1835 0.961 . S
H1852 C1836 0.931 . S
H1853 C1841 0.930 . S
H1854 C1842 0.956 . S
H1855 C1842 0.961 . S
H1856 C1842 0.961 . S
H1857 C1843 0.958 . S
H1858 C1843 0.961 . S
H1859 C1843 0.960 . S
C1860 C1861 1.391 . S
C1860 C1862 1.394 . S
C1860 H1876 0.931 . S
C1861 C1860 1.391 . S
C1861 C1865 1.376 . S
C1862 C1860 1.394 . S
C1862 C1863 1.369 . S
C1862 C1866 1.531 . S
C1863 C1862 1.369 . S
C1863 C1864 1.410 . S
C1863 C1871 1.503 . S
C1864 C1863 1.410 . S
C1864 C1865 1.392 . S
C1864 C1867 1.511 . S
C1865 C1861 1.376 . S
C1865 C1864 1.392 . S
C1865 H1877 0.929 . S
C1866 C1862 1.531 . S
C1866 H1878 0.960 . S
C1866 H1879 0.962 . S
C1866 H1880 0.960 . S
C1867 C1864 1.511 . S
C1867 H1881 0.961 . S
C1867 H1882 0.961 . S
C1867 H1883 0.961 . S
C1868 C1869 1.370 . S
C1868 C1870 1.363 . S
C1868 H1884 0.931 . S
C1869 C1868 1.370 . S
C1869 C1873 1.408 . S
C1870 C1868 1.363 . S
C1870 C1871 1.370 . S
C1870 C1874 1.524 . S
C1871 C1863 1.503 . S
C1871 C1870 1.370 . S
C1871 C1872 1.403 . S
C1872 C1871 1.403 . S
C1872 C1873 1.404 . S
C1872 C1875 1.539 . S
C1873 C1869 1.408 . S
C1873 C1872 1.404 . S
C1873 H1885 0.930 . S
C1874 C1870 1.524 . S
C1874 H1886 0.956 . S
C1874 H1887 0.961 . S
C1874 H1888 0.960 1_556 S
C1875 C1872 1.539 . S
C1875 H1889 0.958 . S
C1875 H1890 0.961 . S
C1875 H1891 0.960 . S
H1876 C1860 0.931 . S
H1877 C1865 0.929 . S
H1878 C1866 0.960 . S
H1879 C1866 0.962 . S
H1880 C1866 0.960 . S
H1881 C1867 0.961 . S
H1882 C1867 0.961 . S
H1883 C1867 0.961 . S
H1884 C1868 0.931 . S
H1885 C1873 0.930 . S
H1886 C1874 0.956 . S
H1887 C1874 0.961 . S
H1888 C1874 0.960 1_554 S
H1889 C1875 0.958 . S
H1890 C1875 0.961 . S
H1891 C1875 0.960 . S
C1892 C1893 1.391 . S
C1892 C1894 1.394 . S
C1892 H1908 0.931 1_556 S
C1893 C1892 1.391 . S
C1893 C1897 1.376 . S
C1894 C1892 1.394 . S
C1894 C1895 1.369 . S
C1894 C1898 1.531 1_556 S
C1895 C1894 1.369 . S
C1895 C1896 1.410 . S
C1895 C1903 1.503 . S
C1896 C1895 1.410 . S
C1896 C1897 1.392 . S
C1896 C1899 1.511 . S
C1897 C1893 1.376 . S
C1897 C1896 1.392 . S
C1897 H1909 0.929 . S
C1898 C1894 1.531 1_554 S
C1898 H1910 0.960 1_554 S
C1898 H1911 0.962 . S
C1898 H1912 0.960 . S
C1899 C1896 1.511 . S
C1899 H1913 0.961 . S
C1899 H1914 0.961 . S
C1899 H1915 0.961 . S
C1900 C1901 1.370 . S
C1900 C1902 1.363 . S
C1900 H1916 0.931 . S
C1901 C1900 1.370 . S
C1901 C1905 1.408 . S
C1902 C1900 1.363 . S
C1902 C1903 1.370 . S
C1902 C1906 1.524 . S
C1903 C1895 1.503 . S
C1903 C1902 1.370 . S
C1903 C1904 1.403 . S
C1904 C1903 1.403 . S
C1904 C1905 1.404 . S
C1904 C1907 1.539 . S
C1905 C1901 1.408 . S
C1905 C1904 1.404 . S
C1905 H1917 0.930 . S
C1906 C1902 1.524 . S
C1906 H1918 0.956 . S
C1906 H1919 0.961 . S
C1906 H1920 0.961 . S
C1907 C1904 1.539 . S
C1907 H1921 0.958 . S
C1907 H1922 0.961 . S
C1907 H1923 0.960 . S
H1908 C1892 0.931 1_554 S
H1909 C1897 0.929 . S
H1910 C1898 0.960 1_556 S
H1911 C1898 0.962 . S
H1912 C1898 0.960 . S
H1913 C1899 0.961 . S
H1914 C1899 0.961 . S
H1915 C1899 0.961 . S
H1916 C1900 0.931 . S
H1917 C1905 0.930 . S
H1918 C1906 0.956 . S
H1919 C1906 0.961 . S
H1920 C1906 0.961 . S
H1921 C1907 0.958 . S
H1922 C1907 0.961 . S
H1923 C1907 0.960 . S
C1924 C1925 1.391 . S
C1924 C1926 1.394 . S
C1924 H1940 0.931 . S
C1925 C1924 1.391 . S
C1925 C1929 1.376 . S
C1926 C1924 1.394 . S
C1926 C1927 1.369 . S
C1926 C1930 1.531 . S
C1927 C1926 1.369 . S
C1927 C1928 1.410 . S
C1927 C1935 1.503 . S
C1928 C1927 1.410 . S
C1928 C1929 1.392 . S
C1928 C1931 1.511 . S
C1929 C1925 1.376 . S
C1929 C1928 1.392 . S
C1929 H1941 0.929 . S
C1930 C1926 1.531 . S
C1930 H1942 0.960 . S
C1930 H1943 0.962 . S
C1930 H1944 0.960 . S
C1931 C1928 1.511 . S
C1931 H1945 0.961 . S
C1931 H1946 0.961 . S
C1931 H1947 0.961 . S
C1932 C1933 1.370 . S
C1932 C1934 1.363 . S
C1932 H1948 0.931 . S
C1933 C1932 1.370 . S
C1933 C1937 1.408 . S
C1934 C1932 1.363 . S
C1934 C1935 1.370 . S
C1934 C1938 1.524 . S
C1935 C1927 1.503 . S
C1935 C1934 1.370 . S
C1935 C1936 1.403 . S
C1936 C1935 1.403 . S
C1936 C1937 1.404 . S
C1936 C1939 1.539 . S
C1937 C1933 1.408 . S
C1937 C1936 1.404 . S
C1937 H1949 0.930 . S
C1938 C1934 1.524 . S
C1938 H1950 0.956 . S
C1938 H1951 0.961 . S
C1938 H1952 0.961 . S
C1939 C1936 1.539 . S
C1939 H1953 0.958 1_556 S
C1939 H1954 0.961 1_556 S
C1939 H1955 0.960 1_556 S
H1940 C1924 0.931 . S
H1941 C1929 0.929 . S
H1942 C1930 0.960 . S
H1943 C1930 0.962 . S
H1944 C1930 0.960 . S
H1945 C1931 0.961 . S
H1946 C1931 0.961 . S
H1947 C1931 0.961 . S
H1948 C1932 0.931 . S
H1949 C1937 0.930 . S
H1950 C1938 0.956 . S
H1951 C1938 0.961 . S
H1952 C1938 0.961 . S
H1953 C1939 0.958 1_554 S
H1954 C1939 0.961 1_554 S
H1955 C1939 0.960 1_554 S
C1956 C1957 1.391 . S
C1956 C1958 1.394 . S
C1956 H1972 0.931 . S
C1957 C1956 1.391 . S
C1957 C1961 1.376 . S
C1958 C1956 1.394 . S
C1958 C1959 1.369 . S
C1958 C1962 1.531 . S
C1959 C1958 1.369 . S
C1959 C1960 1.410 . S
C1959 C1967 1.503 . S
C1960 C1959 1.410 . S
C1960 C1961 1.392 . S
C1960 C1963 1.511 . S
C1961 C1957 1.376 . S
C1961 C1960 1.392 . S
C1961 H1973 0.929 . S
C1962 C1958 1.531 . S
C1962 H1974 0.960 . S
C1962 H1975 0.962 . S
C1962 H1976 0.960 . S
C1963 C1960 1.511 . S
C1963 H1977 0.961 . S
C1963 H1978 0.961 . S
C1963 H1979 0.961 . S
C1964 C1965 1.370 . S
C1964 C1966 1.363 . S
C1964 H1980 0.931 . S
C1965 C1964 1.370 . S
C1965 C1969 1.408 . S
C1966 C1964 1.363 . S
C1966 C1967 1.370 . S
C1966 C1970 1.524 . S
C1967 C1959 1.503 . S
C1967 C1966 1.370 . S
C1967 C1968 1.403 . S
C1968 C1967 1.403 . S
C1968 C1969 1.404 . S
C1968 C1971 1.539 . S
C1969 C1965 1.408 . S
C1969 C1968 1.404 . S
C1969 H1981 0.930 . S
C1970 C1966 1.524 . S
C1970 H1982 0.956 . S
C1970 H1983 0.961 . S
C1970 H1984 0.961 . S
C1971 C1968 1.539 . S
C1971 H1985 0.958 . S
C1971 H1986 0.961 . S
C1971 H1987 0.960 . S
H1972 C1956 0.931 . S
H1973 C1961 0.929 . S
H1974 C1962 0.960 . S
H1975 C1962 0.962 . S
H1976 C1962 0.960 . S
H1977 C1963 0.961 . S
H1978 C1963 0.961 . S
H1979 C1963 0.961 . S
H1980 C1964 0.931 . S
H1981 C1969 0.930 . S
H1982 C1970 0.956 . S
H1983 C1970 0.961 . S
H1984 C1970 0.961 . S
H1985 C1971 0.958 . S
H1986 C1971 0.961 . S
H1987 C1971 0.960 . S
C1988 C1989 1.391 . S
C1988 C1990 1.394 . S
C1988 H2004 0.931 . S
C1989 C1988 1.391 . S
C1989 C1993 1.376 . S
C1990 C1988 1.394 . S
C1990 C1991 1.369 . S
C1990 C1994 1.531 . S
C1991 C1990 1.369 . S
C1991 C1992 1.410 . S
C1991 C1999 1.503 . S
C1992 C1991 1.410 . S
C1992 C1993 1.392 . S
C1992 C1995 1.511 . S
C1993 C1989 1.376 . S
C1993 C1992 1.392 . S
C1993 H2005 0.929 1_556 S
C1994 C1990 1.531 . S
C1994 H2006 0.960 . S
C1994 H2007 0.962 . S
C1994 H2008 0.960 . S
C1995 C1992 1.511 . S
C1995 H2009 0.961 1_556 S
C1995 H2010 0.961 . S
C1995 H2011 0.961 . S
C1996 C1997 1.370 . S
C1996 C1998 1.363 . S
C1996 H2012 0.931 . S
C1997 C1996 1.370 . S
C1997 C2001 1.408 . S
C1998 C1996 1.363 . S
C1998 C1999 1.370 . S
C1998 C2002 1.524 . S
C1999 C1991 1.503 . S
C1999 C1998 1.370 . S
C1999 C2000 1.403 . S
C2000 C1999 1.403 . S
C2000 C2001 1.404 . S
C2000 C2003 1.539 . S
C2001 C1997 1.408 . S
C2001 C2000 1.404 . S
C2001 H2013 0.930 . S
C2002 C1998 1.524 . S
C2002 H2014 0.956 . S
C2002 H2015 0.961 . S
C2002 H2016 0.961 . S
C2003 C2000 1.539 . S
C2003 H2017 0.958 . S
C2003 H2018 0.961 . S
C2003 H2019 0.960 . S
H2004 C1988 0.931 . S
H2005 C1993 0.929 1_554 S
H2006 C1994 0.960 . S
H2007 C1994 0.962 . S
H2008 C1994 0.960 . S
H2009 C1995 0.961 1_554 S
H2010 C1995 0.961 . S
H2011 C1995 0.961 . S
H2012 C1996 0.931 . S
H2013 C2001 0.930 . S
H2014 C2002 0.956 . S
H2015 C2002 0.961 . S
H2016 C2002 0.961 . S
H2017 C2003 0.958 . S
H2018 C2003 0.961 . S
H2019 C2003 0.960 . S
C2020 C2021 1.391 . S
C2020 C2022 1.394 . S
C2020 H2036 0.931 1_556 S
C2021 C2020 1.391 . S
C2021 C2025 1.376 . S
C2022 C2020 1.394 . S
C2022 C2023 1.369 . S
C2022 C2026 1.531 1_556 S
C2023 C2022 1.369 . S
C2023 C2024 1.410 . S
C2023 C2031 1.503 . S
C2024 C2023 1.410 . S
C2024 C2025 1.392 . S
C2024 C2027 1.511 . S
C2025 C2021 1.376 . S
C2025 C2024 1.392 . S
C2025 H2037 0.929 . S
C2026 C2022 1.531 1_554 S
C2026 H2038 0.960 1_554 S
C2026 H2039 0.962 . S
C2026 H2040 0.960 . S
C2027 C2024 1.511 . S
C2027 H2041 0.961 . S
C2027 H2042 0.961 . S
C2027 H2043 0.961 . S
C2028 C2029 1.370 . S
C2028 C2030 1.363 . S
C2028 H2044 0.931 . S
C2029 C2028 1.370 . S
C2029 C2033 1.408 . S
C2030 C2028 1.363 . S
C2030 C2031 1.370 . S
C2030 C2034 1.524 . S
C2031 C2023 1.503 . S
C2031 C2030 1.370 . S
C2031 C2032 1.403 . S
C2032 C2031 1.403 . S
C2032 C2033 1.404 . S
C2032 C2035 1.539 . S
C2033 C2029 1.408 . S
C2033 C2032 1.404 . S
C2033 H2045 0.930 . S
C2034 C2030 1.524 . S
C2034 H2046 0.956 . S
C2034 H2047 0.961 . S
C2034 H2048 0.961 . S
C2035 C2032 1.539 . S
C2035 H2049 0.958 . S
C2035 H2050 0.961 . S
C2035 H2051 0.960 . S
H2036 C2020 0.931 1_554 S
H2037 C2025 0.929 . S
H2038 C2026 0.960 1_556 S
H2039 C2026 0.962 . S
H2040 C2026 0.960 . S
H2041 C2027 0.961 . S
H2042 C2027 0.961 . S
H2043 C2027 0.961 . S
H2044 C2028 0.931 . S
H2045 C2033 0.930 . S
H2046 C2034 0.956 . S
H2047 C2034 0.961 . S
H2048 C2034 0.961 . S
H2049 C2035 0.958 . S
H2050 C2035 0.961 . S
H2051 C2035 0.960 . S
C2052 C2053 1.391 . S
C2052 C2054 1.394 . S
C2052 H2068 0.931 . S
C2053 C2052 1.391 . S
C2053 C2057 1.376 . S
C2054 C2052 1.394 . S
C2054 C2055 1.369 . S
C2054 C2058 1.531 . S
C2055 C2054 1.369 . S
C2055 C2056 1.410 . S
C2055 C2063 1.503 . S
C2056 C2055 1.410 . S
C2056 C2057 1.392 . S
C2056 C2059 1.511 . S
C2057 C2053 1.376 . S
C2057 C2056 1.392 . S
C2057 H2069 0.929 . S
C2058 C2054 1.531 . S
C2058 H2070 0.960 . S
C2058 H2071 0.962 . S
C2058 H2072 0.960 . S
C2059 C2056 1.511 . S
C2059 H2073 0.961 . S
C2059 H2074 0.961 . S
C2059 H2075 0.961 . S
C2060 C2061 1.370 . S
C2060 C2062 1.363 . S
C2060 H2076 0.931 . S
C2061 C2060 1.370 . S
C2061 C2065 1.408 . S
C2062 C2060 1.363 . S
C2062 C2063 1.370 . S
C2062 C2066 1.524 . S
C2063 C2055 1.503 . S
C2063 C2062 1.370 . S
C2063 C2064 1.403 . S
C2064 C2063 1.403 . S
C2064 C2065 1.404 . S
C2064 C2067 1.539 . S
C2065 C2061 1.408 . S
C2065 C2064 1.404 . S
C2065 H2077 0.930 . S
C2066 C2062 1.524 . S
C2066 H2078 0.956 . S
C2066 H2079 0.961 . S
C2066 H2080 0.961 . S
C2067 C2064 1.539 . S
C2067 H2081 0.958 . S
C2067 H2082 0.961 . S
C2067 H2083 0.960 . S
H2068 C2052 0.931 . S
H2069 C2057 0.929 . S
H2070 C2058 0.960 . S
H2071 C2058 0.962 . S
H2072 C2058 0.960 . S
H2073 C2059 0.961 . S
H2074 C2059 0.961 . S
H2075 C2059 0.961 . S
H2076 C2060 0.931 . S
H2077 C2065 0.930 . S
H2078 C2066 0.956 . S
H2079 C2066 0.961 . S
H2080 C2066 0.961 . S
H2081 C2067 0.958 . S
H2082 C2067 0.961 . S
H2083 C2067 0.960 . S
C2084 C2085 1.391 . S
C2084 C2086 1.394 . S
C2084 H2100 0.931 . S
C2085 C2084 1.391 . S
C2085 C2089 1.376 . S
C2086 C2084 1.394 . S
C2086 C2087 1.369 . S
C2086 C2090 1.531 . S
C2087 C2086 1.369 . S
C2087 C2088 1.410 . S
C2087 C2095 1.503 . S
C2088 C2087 1.410 . S
C2088 C2089 1.392 . S
C2088 C2091 1.511 . S
C2089 C2085 1.376 . S
C2089 C2088 1.392 . S
C2089 H2101 0.929 . S
C2090 C2086 1.531 . S
C2090 H2102 0.960 . S
C2090 H2103 0.962 . S
C2090 H2104 0.960 . S
C2091 C2088 1.511 . S
C2091 H2105 0.961 . S
C2091 H2106 0.961 . S
C2091 H2107 0.961 . S
C2092 C2093 1.370 . S
C2092 C2094 1.363 . S
C2092 H2108 0.931 . S
C2093 C2092 1.370 . S
C2093 C2097 1.408 . S
C2094 C2092 1.363 . S
C2094 C2095 1.370 . S
C2094 C2098 1.524 . S
C2095 C2087 1.503 . S
C2095 C2094 1.370 . S
C2095 C2096 1.403 . S
C2096 C2095 1.403 . S
C2096 C2097 1.404 . S
C2096 C2099 1.539 . S
C2097 C2093 1.408 . S
C2097 C2096 1.404 . S
C2097 H2109 0.930 . S
C2098 C2094 1.524 . S
C2098 H2110 0.956 . S
C2098 H2111 0.961 . S
C2098 H2112 0.961 . S
C2099 C2096 1.539 . S
C2099 H2113 0.958 . S
C2099 H2114 0.961 . S
C2099 H2115 0.960 . S
H2100 C2084 0.931 . S
H2101 C2089 0.929 . S
H2102 C2090 0.960 . S
H2103 C2090 0.962 . S
H2104 C2090 0.960 . S
H2105 C2091 0.961 . S
H2106 C2091 0.961 . S
H2107 C2091 0.961 . S
H2108 C2092 0.931 . S
H2109 C2097 0.930 . S
H2110 C2098 0.956 . S
H2111 C2098 0.961 . S
H2112 C2098 0.961 . S
H2113 C2099 0.958 . S
H2114 C2099 0.961 . S
H2115 C2099 0.960 . S
C2116 C2117 1.391 . S
C2116 C2118 1.394 . S
C2116 H2132 0.931 . S
C2117 C2116 1.391 . S
C2117 C2121 1.376 . S
C2118 C2116 1.394 . S
C2118 C2119 1.369 . S
C2118 C2122 1.531 . S
C2119 C2118 1.369 . S
C2119 C2120 1.410 . S
C2119 C2127 1.503 . S
C2120 C2119 1.410 . S
C2120 C2121 1.392 . S
C2120 C2123 1.511 . S
C2121 C2117 1.376 . S
C2121 C2120 1.392 . S
C2121 H2133 0.929 . S
C2122 C2118 1.531 . S
C2122 H2134 0.960 . S
C2122 H2135 0.962 . S
C2122 H2136 0.960 . S
C2123 C2120 1.511 . S
C2123 H2137 0.961 . S
C2123 H2138 0.961 . S
C2123 H2139 0.961 . S
C2124 C2125 1.370 . S
C2124 C2126 1.363 . S
C2124 H2140 0.931 . S
C2125 C2124 1.370 . S
C2125 C2129 1.408 . S
C2126 C2124 1.363 . S
C2126 C2127 1.370 . S
C2126 C2130 1.524 . S
C2127 C2119 1.503 . S
C2127 C2126 1.370 . S
C2127 C2128 1.403 . S
C2128 C2127 1.403 . S
C2128 C2129 1.404 . S
C2128 C2131 1.539 . S
C2129 C2125 1.408 . S
C2129 C2128 1.404 . S
C2129 H2141 0.930 . S
C2130 C2126 1.524 . S
C2130 H2142 0.956 . S
C2130 H2143 0.961 . S
C2130 H2144 0.961 . S
C2131 C2128 1.539 . S
C2131 H2145 0.958 . S
C2131 H2146 0.961 . S
C2131 H2147 0.960 . S
H2132 C2116 0.931 . S
H2133 C2121 0.929 . S
H2134 C2122 0.960 . S
H2135 C2122 0.962 . S
H2136 C2122 0.960 . S
H2137 C2123 0.961 . S
H2138 C2123 0.961 . S
H2139 C2123 0.961 . S
H2140 C2124 0.931 . S
H2141 C2129 0.930 . S
H2142 C2130 0.956 . S
H2143 C2130 0.961 . S
H2144 C2130 0.961 . S
H2145 C2131 0.958 . S
H2146 C2131 0.961 . S
H2147 C2131 0.960 . S
C2148 C2149 1.391 . S
C2148 C2150 1.394 . S
C2148 H2164 0.931 . S
C2149 C2148 1.391 . S
C2149 C2153 1.376 . S
C2150 C2148 1.394 . S
C2150 C2151 1.369 . S
C2150 C2154 1.531 . S
C2151 C2150 1.369 . S
C2151 C2152 1.410 . S
C2151 C2159 1.503 . S
C2152 C2151 1.410 . S
C2152 C2153 1.392 . S
C2152 C2155 1.511 . S
C2153 C2149 1.376 . S
C2153 C2152 1.392 . S
C2153 H2165 0.929 . S
C2154 C2150 1.531 . S
C2154 H2166 0.960 . S
C2154 H2167 0.962 . S
C2154 H2168 0.960 . S
C2155 C2152 1.511 . S
C2155 H2169 0.961 . S
C2155 H2170 0.961 . S
C2155 H2171 0.961 . S
C2156 C2157 1.370 . S
C2156 C2158 1.363 . S
C2156 H2172 0.931 . S
C2157 C2156 1.370 . S
C2157 C2161 1.408 . S
C2158 C2156 1.363 . S
C2158 C2159 1.370 . S
C2158 C2162 1.524 . S
C2159 C2151 1.503 . S
C2159 C2158 1.370 . S
C2159 C2160 1.403 . S
C2160 C2159 1.403 . S
C2160 C2161 1.404 . S
C2160 C2163 1.539 . S
C2161 C2157 1.408 . S
C2161 C2160 1.404 . S
C2161 H2173 0.930 . S
C2162 C2158 1.524 . S
C2162 H2174 0.956 . S
C2162 H2175 0.961 . S
C2162 H2176 0.961 . S
C2163 C2160 1.539 . S
C2163 H2177 0.958 . S
C2163 H2178 0.961 . S
C2163 H2179 0.960 . S
H2164 C2148 0.931 . S
H2165 C2153 0.929 . S
H2166 C2154 0.960 . S
H2167 C2154 0.962 . S
H2168 C2154 0.960 . S
H2169 C2155 0.961 . S
H2170 C2155 0.961 . S
H2171 C2155 0.961 . S
H2172 C2156 0.931 . S
H2173 C2161 0.930 . S
H2174 C2162 0.956 . S
H2175 C2162 0.961 . S
H2176 C2162 0.961 . S
H2177 C2163 0.958 . S
H2178 C2163 0.961 . S
H2179 C2163 0.960 . S
C2180 C2181 1.391 . S
C2180 C2182 1.394 . S
C2180 H2196 0.931 . S
C2181 C2180 1.391 . S
C2181 C2185 1.376 . S
C2182 C2180 1.394 . S
C2182 C2183 1.369 . S
C2182 C2186 1.531 . S
C2183 C2182 1.369 . S
C2183 C2184 1.410 . S
C2183 C2191 1.503 . S
C2184 C2183 1.410 . S
C2184 C2185 1.392 . S
C2184 C2187 1.511 . S
C2185 C2181 1.376 . S
C2185 C2184 1.392 . S
C2185 H2197 0.929 . S
C2186 C2182 1.531 . S
C2186 H2198 0.960 . S
C2186 H2199 0.962 . S
C2186 H2200 0.960 . S
C2187 C2184 1.511 . S
C2187 H2201 0.961 . S
C2187 H2202 0.961 . S
C2187 H2203 0.961 . S
C2188 C2189 1.370 . S
C2188 C2190 1.363 . S
C2188 H2204 0.931 . S
C2189 C2188 1.370 . S
C2189 C2193 1.408 . S
C2190 C2188 1.363 . S
C2190 C2191 1.370 . S
C2190 C2194 1.524 . S
C2191 C2183 1.503 . S
C2191 C2190 1.370 . S
C2191 C2192 1.403 . S
C2192 C2191 1.403 . S
C2192 C2193 1.404 . S
C2192 C2195 1.539 . S
C2193 C2189 1.408 . S
C2193 C2192 1.404 . S
C2193 H2205 0.930 . S
C2194 C2190 1.524 . S
C2194 H2206 0.956 . S
C2194 H2207 0.961 . S
C2194 H2208 0.961 . S
C2195 C2192 1.539 . S
C2195 H2209 0.958 . S
C2195 H2210 0.961 . S
C2195 H2211 0.960 . S
H2196 C2180 0.931 . S
H2197 C2185 0.929 . S
H2198 C2186 0.960 . S
H2199 C2186 0.962 . S
H2200 C2186 0.960 . S
H2201 C2187 0.961 . S
H2202 C2187 0.961 . S
H2203 C2187 0.961 . S
H2204 C2188 0.931 . S
H2205 C2193 0.930 . S
H2206 C2194 0.956 . S
H2207 C2194 0.961 . S
H2208 C2194 0.961 . S
H2209 C2195 0.958 . S
H2210 C2195 0.961 . S
H2211 C2195 0.960 . S
C2212 C2213 1.391 . S
C2212 C2214 1.394 . S
C2212 H2228 0.931 . S
C2213 C2212 1.391 . S
C2213 C2217 1.376 . S
C2214 C2212 1.394 . S
C2214 C2215 1.369 . S
C2214 C2218 1.531 . S
C2215 C2214 1.369 . S
C2215 C2216 1.410 . S
C2215 C2223 1.503 . S
C2216 C2215 1.410 . S
C2216 C2217 1.392 . S
C2216 C2219 1.511 . S
C2217 C2213 1.376 . S
C2217 C2216 1.392 . S
C2217 H2229 0.929 . S
C2218 C2214 1.531 . S
C2218 H2230 0.960 . S
C2218 H2231 0.962 . S
C2218 H2232 0.960 . S
C2219 C2216 1.511 . S
C2219 H2233 0.961 . S
C2219 H2234 0.961 . S
C2219 H2235 0.961 . S
C2220 C2221 1.370 . S
C2220 C2222 1.363 . S
C2220 H2236 0.931 . S
C2221 C2220 1.370 . S
C2221 C2225 1.408 . S
C2222 C2220 1.363 . S
C2222 C2223 1.370 . S
C2222 C2226 1.524 . S
C2223 C2215 1.503 . S
C2223 C2222 1.370 . S
C2223 C2224 1.403 . S
C2224 C2223 1.403 . S
C2224 C2225 1.404 . S
C2224 C2227 1.539 . S
C2225 C2221 1.408 . S
C2225 C2224 1.404 . S
C2225 H2237 0.930 . S
C2226 C2222 1.524 . S
C2226 H2238 0.956 . S
C2226 H2239 0.961 . S
C2226 H2240 0.961 . S
C2227 C2224 1.539 . S
C2227 H2241 0.958 . S
C2227 H2242 0.961 . S
C2227 H2243 0.960 . S
H2228 C2212 0.931 . S
H2229 C2217 0.929 . S
H2230 C2218 0.960 . S
H2231 C2218 0.962 . S
H2232 C2218 0.960 . S
H2233 C2219 0.961 . S
H2234 C2219 0.961 . S
H2235 C2219 0.961 . S
H2236 C2220 0.931 . S
H2237 C2225 0.930 . S
H2238 C2226 0.956 . S
H2239 C2226 0.961 . S
H2240 C2226 0.961 . S
H2241 C2227 0.958 . S
H2242 C2227 0.961 . S
H2243 C2227 0.960 . S
C2244 C2245 1.391 . S
C2244 C2246 1.394 . S
C2244 H2260 0.931 . S
C2245 C2244 1.391 . S
C2245 C2249 1.376 . S
C2246 C2244 1.394 . S
C2246 C2247 1.369 . S
C2246 C2250 1.531 . S
C2247 C2246 1.369 . S
C2247 C2248 1.410 1_455 S
C2247 C2255 1.503 . S
C2248 C2247 1.410 1_655 S
C2248 C2249 1.392 1_655 S
C2248 C2251 1.511 . S
C2249 C2245 1.376 . S
C2249 C2248 1.392 1_455 S
C2249 H2261 0.929 1_455 S
C2250 C2246 1.531 . S
C2250 H2262 0.960 . S
C2250 H2263 0.962 . S
C2250 H2264 0.960 . S
C2251 C2248 1.511 . S
C2251 H2265 0.961 . S
C2251 H2266 0.961 . S
C2251 H2267 0.961 . S
C2252 C2253 1.370 . S
C2252 C2254 1.363 . S
C2252 H2268 0.931 . S
C2253 C2252 1.370 . S
C2253 C2257 1.408 . S
C2254 C2252 1.363 . S
C2254 C2255 1.370 . S
C2254 C2258 1.524 . S
C2255 C2247 1.503 . S
C2255 C2254 1.370 . S
C2255 C2256 1.403 . S
C2256 C2255 1.403 . S
C2256 C2257 1.404 . S
C2256 C2259 1.539 . S
C2257 C2253 1.408 . S
C2257 C2256 1.404 . S
C2257 H2269 0.930 . S
C2258 C2254 1.524 . S
C2258 H2270 0.956 . S
C2258 H2271 0.961 . S
C2258 H2272 0.961 . S
C2259 C2256 1.539 . S
C2259 H2273 0.968 . S
C2259 H2274 0.951 1_455 S
C2259 H2275 0.960 1_455 S
H2260 C2244 0.931 . S
H2261 C2249 0.929 1_655 S
H2262 C2250 0.960 . S
H2263 C2250 0.962 . S
H2264 C2250 0.960 . S
H2265 C2251 0.961 . S
H2266 C2251 0.961 . S
H2267 C2251 0.961 . S
H2268 C2252 0.931 . S
H2269 C2257 0.930 . S
H2270 C2258 0.956 . S
H2271 C2258 0.961 . S
H2272 C2258 0.961 . S
H2273 C2259 0.968 . S
H2274 C2259 0.951 1_655 S
H2275 C2259 0.960 1_655 S
C2276 C2277 1.391 . S
C2276 C2278 1.394 . S
C2276 H2292 0.931 . S
C2277 C2276 1.391 . S
C2277 C2281 1.376 . S
C2278 C2276 1.394 . S
C2278 C2279 1.369 . S
C2278 C2282 1.531 . S
C2279 C2278 1.369 . S
C2279 C2280 1.410 . S
C2279 C2287 1.503 . S
C2280 C2279 1.410 . S
C2280 C2281 1.392 . S
C2280 C2283 1.511 . S
C2281 C2277 1.376 . S
C2281 C2280 1.392 . S
C2281 H2293 0.929 . S
C2282 C2278 1.531 . S
C2282 H2294 0.960 . S
C2282 H2295 0.962 . S
C2282 H2296 0.960 . S
C2283 C2280 1.511 . S
C2283 H2297 0.961 . S
C2283 H2298 0.961 . S
C2283 H2299 0.961 . S
C2284 C2285 1.370 . S
C2284 C2286 1.363 . S
C2284 H2300 0.931 . S
C2285 C2284 1.370 . S
C2285 C2289 1.408 . S
C2286 C2284 1.363 . S
C2286 C2287 1.370 . S
C2286 C2290 1.524 . S
C2287 C2279 1.503 . S
C2287 C2286 1.370 . S
C2287 C2288 1.403 . S
C2288 C2287 1.403 . S
C2288 C2289 1.404 . S
C2288 C2291 1.539 . S
C2289 C2285 1.408 . S
C2289 C2288 1.404 . S
C2289 H2301 0.930 . S
C2290 C2286 1.524 . S
C2290 H2302 0.956 . S
C2290 H2303 0.961 . S
C2290 H2304 0.961 . S
C2291 C2288 1.539 . S
C2291 H2305 0.958 . S
C2291 H2306 0.961 . S
C2291 H2307 0.960 . S
H2292 C2276 0.931 . S
H2293 C2281 0.929 . S
H2294 C2282 0.960 . S
H2295 C2282 0.962 . S
H2296 C2282 0.960 . S
H2297 C2283 0.961 . S
H2298 C2283 0.961 . S
H2299 C2283 0.961 . S
H2300 C2284 0.931 . S
H2301 C2289 0.930 . S
H2302 C2290 0.956 . S
H2303 C2290 0.961 . S
H2304 C2290 0.961 . S
H2305 C2291 0.958 . S
H2306 C2291 0.961 . S
H2307 C2291 0.960 . S
C2308 C2309 1.391 1_545 S
C2308 C2310 1.394 . S
C2308 H2324 0.931 . S
C2309 C2308 1.391 1_565 S
C2309 C2313 1.376 . S
C2310 C2308 1.394 . S
C2310 C2311 1.369 1_545 S
C2310 C2314 1.531 . S
C2311 C2310 1.369 1_565 S
C2311 C2312 1.410 . S
C2311 C2319 1.503 . S
C2312 C2311 1.410 . S
C2312 C2313 1.392 . S
C2312 C2315 1.511 . S
C2313 C2309 1.376 . S
C2313 C2312 1.392 . S
C2313 H2325 0.929 . S
C2314 C2310 1.531 . S
C2314 H2326 0.960 . S
C2314 H2327 0.962 . S
C2314 H2328 0.960 . S
C2315 C2312 1.511 . S
C2315 H2329 0.961 . S
C2315 H2330 0.961 . S
C2315 H2331 0.961 . S
C2316 C2317 1.370 . S
C2316 C2318 1.363 . S
C2316 H2332 0.931 . S
C2317 C2316 1.370 . S
C2317 C2321 1.408 1_565 S
C2318 C2316 1.363 . S
C2318 C2319 1.370 . S
C2318 C2322 1.524 . S
C2319 C2311 1.503 . S
C2319 C2318 1.370 . S
C2319 C2320 1.403 1_565 S
C2320 C2319 1.403 1_545 S
C2320 C2321 1.404 . S
C2320 C2323 1.539 . S
C2321 C2317 1.408 1_545 S
C2321 C2320 1.404 . S
C2321 H2333 0.930 . S
C2322 C2318 1.524 . S
C2322 H2334 0.956 . S
C2322 H2335 0.961 . S
C2322 H2336 0.961 . S
C2323 C2320 1.539 . S
C2323 H2337 0.958 . S
C2323 H2338 0.961 . S
C2323 H2339 0.960 . S
H2324 C2308 0.931 . S
H2325 C2313 0.929 . S
H2326 C2314 0.960 . S
H2327 C2314 0.962 . S
H2328 C2314 0.960 . S
H2329 C2315 0.961 . S
H2330 C2315 0.961 . S
H2331 C2315 0.961 . S
H2332 C2316 0.931 . S
H2333 C2321 0.930 . S
H2334 C2322 0.956 . S
H2335 C2322 0.961 . S
H2336 C2322 0.961 . S
H2337 C2323 0.958 . S
H2338 C2323 0.961 . S
H2339 C2323 0.960 . S
C2340 C2341 1.391 . S
C2340 C2342 1.394 . S
C2340 H2356 0.931 . S
C2341 C2340 1.391 . S
C2341 C2345 1.376 1_565 S
C2342 C2340 1.394 . S
C2342 C2343 1.369 . S
C2342 C2346 1.531 . S
C2343 C2342 1.369 . S
C2343 C2344 1.410 1_565 S
C2343 C2351 1.503 . S
C2344 C2343 1.410 1_545 S
C2344 C2345 1.392 . S
C2344 C2347 1.511 . S
C2345 C2341 1.376 1_545 S
C2345 C2344 1.392 . S
C2345 H2357 0.929 . S
C2346 C2342 1.531 . S
C2346 H2358 0.960 . S
C2346 H2359 0.962 . S
C2346 H2360 0.960 . S
C2347 C2344 1.511 . S
C2347 H2361 0.961 . S
C2347 H2362 0.961 . S
C2347 H2363 0.961 . S
C2348 C2349 1.370 1_545 S
C2348 C2350 1.363 . S
C2348 H2364 0.931 . S
C2349 C2348 1.370 1_565 S
C2349 C2353 1.408 . S
C2350 C2348 1.363 . S
C2350 C2351 1.370 1_545 S
C2350 C2354 1.524 . S
C2351 C2343 1.503 . S
C2351 C2350 1.370 1_565 S
C2351 C2352 1.403 . S
C2352 C2351 1.403 . S
C2352 C2353 1.404 . S
C2352 C2355 1.539 . S
C2353 C2349 1.408 . S
C2353 C2352 1.404 . S
C2353 H2365 0.930 . S
C2354 C2350 1.524 . S
C2354 H2366 0.956 . S
C2354 H2367 0.961 . S
C2354 H2368 0.961 . S
C2355 C2352 1.539 . S
C2355 H2369 0.958 . S
C2355 H2370 0.961 . S
C2355 H2371 0.960 . S
H2356 C2340 0.931 . S
H2357 C2345 0.929 . S
H2358 C2346 0.960 . S
H2359 C2346 0.962 . S
H2360 C2346 0.960 . S
H2361 C2347 0.961 . S
H2362 C2347 0.961 . S
H2363 C2347 0.961 . S
H2364 C2348 0.931 . S
H2365 C2353 0.930 . S
H2366 C2354 0.956 . S
H2367 C2354 0.961 . S
H2368 C2354 0.961 . S
H2369 C2355 0.958 . S
H2370 C2355 0.961 . S
H2371 C2355 0.960 . S
C2372 C2373 1.391 . S
C2372 C2374 1.394 . S
C2372 H2388 0.931 . S
C2373 C2372 1.391 . S
C2373 C2377 1.376 . S
C2374 C2372 1.394 . S
C2374 C2375 1.369 . S
C2374 C2378 1.531 . S
C2375 C2374 1.369 . S
C2375 C2376 1.410 . S
C2375 C2383 1.503 . S
C2376 C2375 1.410 . S
C2376 C2377 1.392 . S
C2376 C2379 1.511 . S
C2377 C2373 1.376 . S
C2377 C2376 1.392 . S
C2377 H2389 0.929 . S
C2378 C2374 1.531 . S
C2378 H2390 0.960 . S
C2378 H2391 0.962 . S
C2378 H2392 0.960 . S
C2379 C2376 1.511 . S
C2379 H2393 0.961 . S
C2379 H2394 0.961 . S
C2379 H2395 0.961 . S
C2380 C2381 1.370 1_655 S
C2380 C2382 1.369 1_655 S
C2380 H2396 0.931 . S
C2381 C2380 1.370 1_455 S
C2381 C2385 1.408 . S
C2382 C2380 1.369 1_455 S
C2382 C2383 1.380 . S
C2382 C2386 1.508 1_455 S
C2383 C2375 1.503 . S
C2383 C2382 1.380 . S
C2383 C2384 1.403 . S
C2384 C2383 1.403 . S
C2384 C2385 1.404 . S
C2384 C2387 1.539 . S
C2385 C2381 1.408 . S
C2385 C2384 1.404 . S
C2385 H2397 0.930 . S
C2386 C2382 1.508 1_655 S
C2386 H2398 0.956 . S
C2386 H2399 0.961 . S
C2386 H2400 0.961 . S
C2387 C2384 1.539 . S
C2387 H2401 0.958 . S
C2387 H2402 0.961 . S
C2387 H2403 0.960 . S
H2388 C2372 0.931 . S
H2389 C2377 0.929 . S
H2390 C2378 0.960 . S
H2391 C2378 0.962 . S
H2392 C2378 0.960 . S
H2393 C2379 0.961 . S
H2394 C2379 0.961 . S
H2395 C2379 0.961 . S
H2396 C2380 0.931 . S
H2397 C2385 0.930 . S
H2398 C2386 0.956 . S
H2399 C2386 0.961 . S
H2400 C2386 0.961 . S
H2401 C2387 0.958 . S
H2402 C2387 0.961 . S
H2403 C2387 0.960 . S
C2404 C2405 1.391 . S
C2404 C2406 1.394 . S
C2404 H2420 0.931 . S
C2405 C2404 1.391 . S
C2405 C2409 1.376 . S
C2406 C2404 1.394 . S
C2406 C2407 1.369 . S
C2406 C2410 1.531 . S
C2407 C2406 1.369 . S
C2407 C2408 1.410 . S
C2407 C2415 1.503 . S
C2408 C2407 1.410 . S
C2408 C2409 1.392 . S
C2408 C2411 1.511 . S
C2409 C2405 1.376 . S
C2409 C2408 1.392 . S
C2409 H2421 0.929 . S
C2410 C2406 1.531 . S
C2410 H2422 0.960 . S
C2410 H2423 0.962 . S
C2410 H2424 0.960 . S
C2411 C2408 1.511 . S
C2411 H2425 0.961 . S
C2411 H2426 0.961 . S
C2411 H2427 0.961 . S
C2412 C2413 1.370 . S
C2412 C2414 1.363 . S
C2412 H2428 0.931 . S
C2413 C2412 1.370 . S
C2413 C2417 1.408 . S
C2414 C2412 1.363 . S
C2414 C2415 1.370 . S
C2414 C2418 1.524 . S
C2415 C2407 1.503 . S
C2415 C2414 1.370 . S
C2415 C2416 1.403 . S
C2416 C2415 1.403 . S
C2416 C2417 1.404 . S
C2416 C2419 1.539 . S
C2417 C2413 1.408 . S
C2417 C2416 1.404 . S
C2417 H2429 0.930 . S
C2418 C2414 1.524 . S
C2418 H2430 0.956 . S
C2418 H2431 0.961 . S
C2418 H2432 0.961 . S
C2419 C2416 1.539 . S
C2419 H2433 0.958 . S
C2419 H2434 0.961 . S
C2419 H2435 0.960 . S
H2420 C2404 0.931 . S
H2421 C2409 0.929 . S
H2422 C2410 0.960 . S
H2423 C2410 0.962 . S
H2424 C2410 0.960 . S
H2425 C2411 0.961 . S
H2426 C2411 0.961 . S
H2427 C2411 0.961 . S
H2428 C2412 0.931 . S
H2429 C2417 0.930 . S
H2430 C2418 0.956 . S
H2431 C2418 0.961 . S
H2432 C2418 0.961 . S
H2433 C2419 0.958 . S
H2434 C2419 0.961 . S
H2435 C2419 0.960 . S
C2436 C2437 1.391 . S
C2436 C2438 1.394 . S
C2436 H2452 0.931 . S
C2437 C2436 1.391 . S
C2437 C2441 1.376 . S
C2438 C2436 1.394 . S
C2438 C2439 1.369 . S
C2438 C2442 1.531 . S
C2439 C2438 1.369 . S
C2439 C2440 1.410 . S
C2439 C2447 1.503 . S
C2440 C2439 1.410 . S
C2440 C2441 1.392 . S
C2440 C2443 1.511 . S
C2441 C2437 1.376 . S
C2441 C2440 1.392 . S
C2441 H2453 0.929 . S
C2442 C2438 1.531 . S
C2442 H2454 0.960 . S
C2442 H2455 0.962 . S
C2442 H2456 0.960 . S
C2443 C2440 1.511 . S
C2443 H2457 0.961 . S
C2443 H2458 0.961 . S
C2443 H2459 0.961 . S
C2444 C2445 1.370 . S
C2444 C2446 1.363 . S
C2444 H2460 0.931 . S
C2445 C2444 1.370 . S
C2445 C2449 1.408 . S
C2446 C2444 1.363 . S
C2446 C2447 1.370 . S
C2446 C2450 1.524 . S
C2447 C2439 1.503 . S
C2447 C2446 1.370 . S
C2447 C2448 1.403 . S
C2448 C2447 1.403 . S
C2448 C2449 1.404 . S
C2448 C2451 1.539 . S
C2449 C2445 1.408 . S
C2449 C2448 1.404 . S
C2449 H2461 0.930 . S
C2450 C2446 1.524 . S
C2450 H2462 0.956 . S
C2450 H2463 0.961 . S
C2450 H2464 0.961 . S
C2451 C2448 1.539 . S
C2451 H2465 0.958 . S
C2451 H2466 0.961 . S
C2451 H2467 0.960 . S
H2452 C2436 0.931 . S
H2453 C2441 0.929 . S
H2454 C2442 0.960 . S
H2455 C2442 0.962 . S
H2456 C2442 0.960 . S
H2457 C2443 0.961 . S
H2458 C2443 0.961 . S
H2459 C2443 0.961 . S
H2460 C2444 0.931 . S
H2461 C2449 0.930 . S
H2462 C2450 0.956 . S
H2463 C2450 0.961 . S
H2464 C2450 0.961 . S
H2465 C2451 0.958 . S
H2466 C2451 0.961 . S
H2467 C2451 0.960 . S
C2468 C2469 1.391 . S
C2468 C2470 1.394 . S
C2468 H2484 0.931 . S
C2469 C2468 1.391 . S
C2469 C2473 1.376 . S
C2470 C2468 1.394 . S
C2470 C2471 1.369 . S
C2470 C2474 1.531 . S
C2471 C2470 1.369 . S
C2471 C2472 1.410 . S
C2471 C2479 1.503 . S
C2472 C2471 1.410 . S
C2472 C2473 1.392 . S
C2472 C2475 1.511 . S
C2473 C2469 1.376 . S
C2473 C2472 1.392 . S
C2473 H2485 0.929 . S
C2474 C2470 1.531 . S
C2474 H2486 0.960 . S
C2474 H2487 0.962 . S
C2474 H2488 0.960 . S
C2475 C2472 1.511 . S
C2475 H2489 0.961 . S
C2475 H2490 0.961 . S
C2475 H2491 0.961 . S
C2476 C2477 1.370 . S
C2476 C2478 1.363 . S
C2476 H2492 0.931 . S
C2477 C2476 1.370 . S
C2477 C2481 1.408 . S
C2478 C2476 1.363 . S
C2478 C2479 1.370 . S
C2478 C2482 1.524 . S
C2479 C2471 1.503 . S
C2479 C2478 1.370 . S
C2479 C2480 1.403 . S
C2480 C2479 1.403 . S
C2480 C2481 1.404 . S
C2480 C2483 1.539 . S
C2481 C2477 1.408 . S
C2481 C2480 1.404 . S
C2481 H2493 0.930 . S
C2482 C2478 1.524 . S
C2482 H2494 0.956 . S
C2482 H2495 0.961 . S
C2482 H2496 0.961 . S
C2483 C2480 1.539 . S
C2483 H2497 0.958 . S
C2483 H2498 0.961 . S
C2483 H2499 0.960 . S
H2484 C2468 0.931 . S
H2485 C2473 0.929 . S
H2486 C2474 0.960 . S
H2487 C2474 0.962 . S
H2488 C2474 0.960 . S
H2489 C2475 0.961 . S
H2490 C2475 0.961 . S
H2491 C2475 0.961 . S
H2492 C2476 0.931 . S
H2493 C2481 0.930 . S
H2494 C2482 0.956 . S
H2495 C2482 0.961 . S
H2496 C2482 0.961 . S
H2497 C2483 0.958 . S
H2498 C2483 0.961 . S
H2499 C2483 0.960 . S
C2500 C2501 1.391 . S
C2500 C2502 1.394 . S
C2500 H2516 0.931 . S
C2501 C2500 1.391 . S
C2501 C2505 1.376 . S
C2502 C2500 1.394 . S
C2502 C2503 1.369 . S
C2502 C2506 1.531 . S
C2503 C2502 1.369 . S
C2503 C2504 1.410 . S
C2503 C2511 1.503 . S
C2504 C2503 1.410 . S
C2504 C2505 1.392 . S
C2504 C2507 1.511 . S
C2505 C2501 1.376 . S
C2505 C2504 1.392 . S
C2505 H2517 0.929 . S
C2506 C2502 1.531 . S
C2506 H2518 0.960 . S
C2506 H2519 0.962 . S
C2506 H2520 0.960 . S
C2507 C2504 1.511 . S
C2507 H2521 0.961 . S
C2507 H2522 0.961 . S
C2507 H2523 0.961 . S
C2508 C2509 1.370 . S
C2508 C2510 1.363 . S
C2508 H2524 0.931 . S
C2509 C2508 1.370 . S
C2509 C2513 1.408 . S
C2510 C2508 1.363 . S
C2510 C2511 1.370 . S
C2510 C2514 1.524 . S
C2511 C2503 1.503 . S
C2511 C2510 1.370 . S
C2511 C2512 1.403 . S
C2512 C2511 1.403 . S
C2512 C2513 1.404 . S
C2512 C2515 1.539 . S
C2513 C2509 1.408 . S
C2513 C2512 1.404 . S
C2513 H2525 0.930 . S
C2514 C2510 1.524 . S
C2514 H2526 0.956 . S
C2514 H2527 0.961 . S
C2514 H2528 0.961 . S
C2515 C2512 1.539 . S
C2515 H2529 0.958 . S
C2515 H2530 0.961 . S
C2515 H2531 0.960 . S
H2516 C2500 0.931 . S
H2517 C2505 0.929 . S
H2518 C2506 0.960 . S
H2519 C2506 0.962 . S
H2520 C2506 0.960 . S
H2521 C2507 0.961 . S
H2522 C2507 0.961 . S
H2523 C2507 0.961 . S
H2524 C2508 0.931 . S
H2525 C2513 0.930 . S
H2526 C2514 0.956 . S
H2527 C2514 0.961 . S
H2528 C2514 0.961 . S
H2529 C2515 0.958 . S
H2530 C2515 0.961 . S
H2531 C2515 0.960 . S
C2532 C2533 1.391 . S
C2532 C2534 1.394 . S
C2532 H2548 0.931 1_545 S
C2533 C2532 1.391 . S
C2533 C2537 1.376 . S
C2534 C2532 1.394 . S
C2534 C2535 1.369 . S
C2534 C2538 1.531 1_545 S
C2535 C2534 1.369 . S
C2535 C2536 1.410 . S
C2535 C2543 1.503 . S
C2536 C2535 1.410 . S
C2536 C2537 1.392 . S
C2536 C2539 1.511 . S
C2537 C2533 1.376 . S
C2537 C2536 1.392 . S
C2537 H2549 0.929 . S
C2538 C2534 1.531 1_565 S
C2538 H2550 0.960 . S
C2538 H2551 0.962 . S
C2538 H2552 0.960 . S
C2539 C2536 1.511 . S
C2539 H2553 0.961 . S
C2539 H2554 0.961 . S
C2539 H2555 0.961 . S
C2540 C2541 1.370 . S
C2540 C2542 1.363 . S
C2540 H2556 0.931 . S
C2541 C2540 1.370 . S
C2541 C2545 1.408 . S
C2542 C2540 1.363 . S
C2542 C2543 1.370 . S
C2542 C2546 1.524 . S
C2543 C2535 1.503 . S
C2543 C2542 1.370 . S
C2543 C2544 1.403 . S
C2544 C2543 1.403 . S
C2544 C2545 1.404 . S
C2544 C2547 1.539 1_545 S
C2545 C2541 1.408 . S
C2545 C2544 1.404 . S
C2545 H2557 0.930 1_545 S
C2546 C2542 1.524 . S
C2546 H2558 0.956 . S
C2546 H2559 0.961 . S
C2546 H2560 0.961 . S
C2547 C2544 1.539 1_565 S
C2547 H2561 0.958 . S
C2547 H2562 0.961 . S
C2547 H2563 0.960 1_565 S
H2548 C2532 0.931 1_565 S
H2549 C2537 0.929 . S
H2550 C2538 0.960 . S
H2551 C2538 0.962 . S
H2552 C2538 0.960 . S
H2553 C2539 0.961 . S
H2554 C2539 0.961 . S
H2555 C2539 0.961 . S
H2556 C2540 0.931 . S
H2557 C2545 0.930 1_565 S
H2558 C2546 0.956 . S
H2559 C2546 0.961 . S
H2560 C2546 0.961 . S
H2561 C2547 0.958 . S
H2562 C2547 0.961 . S
H2563 C2547 0.960 1_545 S
C2564 C2565 1.391 . S
C2564 C2566 1.394 . S
C2564 H2580 0.931 . S
C2565 C2564 1.391 . S
C2565 C2569 1.376 1_655 S
C2566 C2564 1.394 . S
C2566 C2567 1.369 . S
C2566 C2570 1.531 . S
C2567 C2566 1.369 . S
C2567 C2568 1.410 1_655 S
C2567 C2575 1.503 . S
C2568 C2567 1.410 1_455 S
C2568 C2569 1.392 . S
C2568 C2571 1.511 . S
C2569 C2565 1.376 1_455 S
C2569 C2568 1.392 . S
C2569 H2581 0.929 . S
C2570 C2566 1.531 . S
C2570 H2582 0.960 . S
C2570 H2583 0.962 . S
C2570 H2584 0.960 . S
C2571 C2568 1.511 . S
C2571 H2585 0.961 . S
C2571 H2586 0.961 . S
C2571 H2587 0.961 . S
C2572 C2573 1.370 . S
C2572 C2574 1.363 . S
C2572 H2588 0.931 . S
C2573 C2572 1.370 . S
C2573 C2577 1.408 1_655 S
C2574 C2572 1.363 . S
C2574 C2575 1.370 . S
C2574 C2578 1.524 . S
C2575 C2567 1.503 . S
C2575 C2574 1.370 . S
C2575 C2576 1.403 1_655 S
C2576 C2575 1.403 1_455 S
C2576 C2577 1.404 . S
C2576 C2579 1.539 . S
C2577 C2573 1.408 1_455 S
C2577 C2576 1.404 . S
C2577 H2589 0.930 . S
C2578 C2574 1.524 . S
C2578 H2590 0.956 . S
C2578 H2591 0.961 . S
C2578 H2592 0.961 . S
C2579 C2576 1.539 . S
C2579 H2593 0.958 . S
C2579 H2594 0.961 . S
C2579 H2595 0.960 . S
H2580 C2564 0.931 . S
H2581 C2569 0.929 . S
H2582 C2570 0.960 . S
H2583 C2570 0.962 . S
H2584 C2570 0.960 . S
H2585 C2571 0.961 . S
H2586 C2571 0.961 . S
H2587 C2571 0.961 . S
H2588 C2572 0.931 . S
H2589 C2577 0.930 . S
H2590 C2578 0.956 . S
H2591 C2578 0.961 . S
H2592 C2578 0.961 . S
H2593 C2579 0.958 . S
H2594 C2579 0.961 . S
H2595 C2579 0.960 . S
C2596 C2597 1.391 . S
C2596 C2598 1.394 . S
C2596 H2612 0.931 . S
C2597 C2596 1.391 . S
C2597 C2601 1.376 . S
C2598 C2596 1.394 . S
C2598 C2599 1.369 . S
C2598 C2602 1.531 . S
C2599 C2598 1.369 . S
C2599 C2600 1.410 . S
C2599 C2607 1.503 . S
C2600 C2599 1.410 . S
C2600 C2601 1.392 . S
C2600 C2603 1.511 . S
C2601 C2597 1.376 . S
C2601 C2600 1.392 . S
C2601 H2613 0.929 . S
C2602 C2598 1.531 . S
C2602 H2614 0.960 . S
C2602 H2615 0.962 . S
C2602 H2616 0.960 . S
C2603 C2600 1.511 . S
C2603 H2617 0.961 . S
C2603 H2618 0.961 . S
C2603 H2619 0.961 . S
C2604 C2605 1.370 . S
C2604 C2606 1.363 . S
C2604 H2620 0.931 . S
C2605 C2604 1.370 . S
C2605 C2609 1.408 . S
C2606 C2604 1.363 . S
C2606 C2607 1.370 . S
C2606 C2610 1.524 . S
C2607 C2599 1.503 . S
C2607 C2606 1.370 . S
C2607 C2608 1.403 . S
C2608 C2607 1.403 . S
C2608 C2609 1.404 . S
C2608 C2611 1.539 . S
C2609 C2605 1.408 . S
C2609 C2608 1.404 . S
C2609 H2621 0.930 . S
C2610 C2606 1.524 . S
C2610 H2622 0.956 . S
C2610 H2623 0.961 . S
C2610 H2624 0.961 . S
C2611 C2608 1.539 . S
C2611 H2625 0.958 . S
C2611 H2626 0.961 . S
C2611 H2627 0.960 . S
H2612 C2596 0.931 . S
H2613 C2601 0.929 . S
H2614 C2602 0.960 . S
H2615 C2602 0.962 . S
H2616 C2602 0.960 . S
H2617 C2603 0.961 . S
H2618 C2603 0.961 . S
H2619 C2603 0.961 . S
H2620 C2604 0.931 . S
H2621 C2609 0.930 . S
H2622 C2610 0.956 . S
H2623 C2610 0.961 . S
H2624 C2610 0.961 . S
H2625 C2611 0.958 . S
H2626 C2611 0.961 . S
H2627 C2611 0.960 . S
C2628 C2629 1.391 . S
C2628 C2630 1.394 . S
C2628 H2644 0.931 . S
C2629 C2628 1.391 . S
C2629 C2633 1.376 . S
C2630 C2628 1.394 . S
C2630 C2631 1.369 . S
C2630 C2634 1.531 . S
C2631 C2630 1.369 . S
C2631 C2632 1.410 . S
C2631 C2639 1.503 . S
C2632 C2631 1.410 . S
C2632 C2633 1.392 . S
C2632 C2635 1.511 . S
C2633 C2629 1.376 . S
C2633 C2632 1.392 . S
C2633 H2645 0.929 . S
C2634 C2630 1.531 . S
C2634 H2646 0.960 . S
C2634 H2647 0.962 . S
C2634 H2648 0.960 . S
C2635 C2632 1.511 . S
C2635 H2649 0.961 . S
C2635 H2650 0.961 . S
C2635 H2651 0.961 . S
C2636 C2637 1.370 . S
C2636 C2638 1.363 . S
C2636 H2652 0.931 . S
C2637 C2636 1.370 . S
C2637 C2641 1.408 . S
C2638 C2636 1.363 . S
C2638 C2639 1.370 . S
C2638 C2642 1.524 . S
C2639 C2631 1.503 . S
C2639 C2638 1.370 . S
C2639 C2640 1.403 . S
C2640 C2639 1.403 . S
C2640 C2641 1.404 . S
C2640 C2643 1.539 . S
C2641 C2637 1.408 . S
C2641 C2640 1.404 . S
C2641 H2653 0.930 . S
C2642 C2638 1.524 . S
C2642 H2654 0.956 . S
C2642 H2655 0.961 . S
C2642 H2656 0.961 . S
C2643 C2640 1.539 . S
C2643 H2657 0.958 . S
C2643 H2658 0.961 . S
C2643 H2659 0.960 . S
H2644 C2628 0.931 . S
H2645 C2633 0.929 . S
H2646 C2634 0.960 . S
H2647 C2634 0.962 . S
H2648 C2634 0.960 . S
H2649 C2635 0.961 . S
H2650 C2635 0.961 . S
H2651 C2635 0.961 . S
H2652 C2636 0.931 . S
H2653 C2641 0.930 . S
H2654 C2642 0.956 . S
H2655 C2642 0.961 . S
H2656 C2642 0.961 . S
H2657 C2643 0.958 . S
H2658 C2643 0.961 . S
H2659 C2643 0.960 . S
C2660 C2661 1.391 . S
C2660 C2662 1.394 . S
C2660 H2676 0.931 . S
C2661 C2660 1.391 . S
C2661 C2665 1.376 . S
C2662 C2660 1.394 . S
C2662 C2663 1.369 . S
C2662 C2666 1.531 . S
C2663 C2662 1.369 . S
C2663 C2664 1.410 . S
C2663 C2671 1.503 . S
C2664 C2663 1.410 . S
C2664 C2665 1.392 . S
C2664 C2667 1.511 . S
C2665 C2661 1.376 . S
C2665 C2664 1.392 . S
C2665 H2677 0.929 . S
C2666 C2662 1.531 . S
C2666 H2678 0.960 . S
C2666 H2679 0.962 . S
C2666 H2680 0.960 . S
C2667 C2664 1.511 . S
C2667 H2681 0.961 . S
C2667 H2682 0.961 . S
C2667 H2683 0.961 . S
C2668 C2669 1.370 . S
C2668 C2670 1.363 . S
C2668 H2684 0.931 . S
C2669 C2668 1.370 . S
C2669 C2673 1.408 . S
C2670 C2668 1.363 . S
C2670 C2671 1.370 . S
C2670 C2674 1.524 . S
C2671 C2663 1.503 . S
C2671 C2670 1.370 . S
C2671 C2672 1.403 . S
C2672 C2671 1.403 . S
C2672 C2673 1.404 . S
C2672 C2675 1.539 . S
C2673 C2669 1.408 . S
C2673 C2672 1.404 . S
C2673 H2685 0.930 . S
C2674 C2670 1.524 . S
C2674 H2686 0.956 . S
C2674 H2687 0.961 . S
C2674 H2688 0.961 . S
C2675 C2672 1.539 . S
C2675 H2689 0.958 . S
C2675 H2690 0.961 . S
C2675 H2691 0.960 . S
H2676 C2660 0.931 . S
H2677 C2665 0.929 . S
H2678 C2666 0.960 . S
H2679 C2666 0.962 . S
H2680 C2666 0.960 . S
H2681 C2667 0.961 . S
H2682 C2667 0.961 . S
H2683 C2667 0.961 . S
H2684 C2668 0.931 . S
H2685 C2673 0.930 . S
H2686 C2674 0.956 . S
H2687 C2674 0.961 . S
H2688 C2674 0.961 . S
H2689 C2675 0.958 . S
H2690 C2675 0.961 . S
H2691 C2675 0.960 . S
C2692 C2693 1.391 . S
C2692 C2694 1.394 . S
C2692 H2708 0.931 . S
C2693 C2692 1.391 . S
C2693 C2697 1.376 . S
C2694 C2692 1.394 . S
C2694 C2695 1.369 . S
C2694 C2698 1.531 . S
C2695 C2694 1.369 . S
C2695 C2696 1.410 . S
C2695 C2703 1.503 . S
C2696 C2695 1.410 . S
C2696 C2697 1.392 . S
C2696 C2699 1.511 . S
C2697 C2693 1.376 . S
C2697 C2696 1.392 . S
C2697 H2709 0.929 . S
C2698 C2694 1.531 . S
C2698 H2710 0.960 . S
C2698 H2711 0.962 . S
C2698 H2712 0.960 . S
C2699 C2696 1.511 . S
C2699 H2713 0.961 . S
C2699 H2714 0.961 . S
C2699 H2715 0.961 . S
C2700 C2701 1.370 . S
C2700 C2702 1.363 . S
C2700 H2716 0.931 . S
C2701 C2700 1.370 . S
C2701 C2705 1.408 . S
C2702 C2700 1.363 . S
C2702 C2703 1.370 . S
C2702 C2706 1.524 . S
C2703 C2695 1.503 . S
C2703 C2702 1.370 . S
C2703 C2704 1.403 . S
C2704 C2703 1.403 . S
C2704 C2705 1.404 . S
C2704 C2707 1.539 . S
C2705 C2701 1.408 . S
C2705 C2704 1.404 . S
C2705 H2717 0.930 . S
C2706 C2702 1.524 . S
C2706 H2718 0.956 . S
C2706 H2719 0.961 . S
C2706 H2720 0.961 . S
C2707 C2704 1.539 . S
C2707 H2721 0.958 . S
C2707 H2722 0.961 . S
C2707 H2723 0.960 . S
H2708 C2692 0.931 . S
H2709 C2697 0.929 . S
H2710 C2698 0.960 . S
H2711 C2698 0.962 . S
H2712 C2698 0.960 . S
H2713 C2699 0.961 . S
H2714 C2699 0.961 . S
H2715 C2699 0.961 . S
H2716 C2700 0.931 . S
H2717 C2705 0.930 . S
H2718 C2706 0.956 . S
H2719 C2706 0.961 . S
H2720 C2706 0.961 . S
H2721 C2707 0.958 . S
H2722 C2707 0.961 . S
H2723 C2707 0.960 . S
C2724 C2725 1.391 . S
C2724 C2726 1.394 . S
C2724 H2740 0.931 . S
C2725 C2724 1.391 . S
C2725 C2729 1.376 . S
C2726 C2724 1.394 . S
C2726 C2727 1.369 . S
C2726 C2730 1.531 . S
C2727 C2726 1.369 . S
C2727 C2728 1.410 . S
C2727 C2735 1.503 . S
C2728 C2727 1.410 . S
C2728 C2729 1.392 . S
C2728 C2731 1.511 . S
C2729 C2725 1.376 . S
C2729 C2728 1.392 . S
C2729 H2741 0.929 . S
C2730 C2726 1.531 . S
C2730 H2742 0.960 . S
C2730 H2743 0.962 . S
C2730 H2744 0.960 . S
C2731 C2728 1.511 . S
C2731 H2745 0.961 . S
C2731 H2746 0.961 . S
C2731 H2747 0.961 . S
C2732 C2733 1.370 . S
C2732 C2734 1.363 . S
C2732 H2748 0.931 . S
C2733 C2732 1.370 . S
C2733 C2737 1.408 . S
C2734 C2732 1.363 . S
C2734 C2735 1.370 . S
C2734 C2738 1.524 . S
C2735 C2727 1.503 . S
C2735 C2734 1.370 . S
C2735 C2736 1.403 . S
C2736 C2735 1.403 . S
C2736 C2737 1.404 . S
C2736 C2739 1.539 . S
C2737 C2733 1.408 . S
C2737 C2736 1.404 . S
C2737 H2749 0.930 . S
C2738 C2734 1.524 . S
C2738 H2750 0.956 . S
C2738 H2751 0.961 . S
C2738 H2752 0.961 . S
C2739 C2736 1.539 . S
C2739 H2753 0.958 . S
C2739 H2754 0.961 . S
C2739 H2755 0.960 . S
H2740 C2724 0.931 . S
H2741 C2729 0.929 . S
H2742 C2730 0.960 . S
H2743 C2730 0.962 . S
H2744 C2730 0.960 . S
H2745 C2731 0.961 . S
H2746 C2731 0.961 . S
H2747 C2731 0.961 . S
H2748 C2732 0.931 . S
H2749 C2737 0.930 . S
H2750 C2738 0.956 . S
H2751 C2738 0.961 . S
H2752 C2738 0.961 . S
H2753 C2739 0.958 . S
H2754 C2739 0.961 . S
H2755 C2739 0.960 . S
C2756 C2757 1.391 . S
C2756 C2758 1.394 . S
C2756 H2772 0.931 . S
C2757 C2756 1.391 . S
C2757 C2761 1.376 . S
C2758 C2756 1.394 . S
C2758 C2759 1.369 . S
C2758 C2762 1.531 . S
C2759 C2758 1.369 . S
C2759 C2760 1.410 . S
C2759 C2767 1.503 . S
C2760 C2759 1.410 . S
C2760 C2761 1.392 . S
C2760 C2763 1.511 . S
C2761 C2757 1.376 . S
C2761 C2760 1.392 . S
C2761 H2773 0.929 . S
C2762 C2758 1.531 . S
C2762 H2774 0.960 . S
C2762 H2775 0.962 . S
C2762 H2776 0.960 . S
C2763 C2760 1.511 . S
C2763 H2777 0.961 . S
C2763 H2778 0.961 . S
C2763 H2779 0.961 . S
C2764 C2765 1.370 . S
C2764 C2766 1.363 . S
C2764 H2780 0.931 . S
C2765 C2764 1.370 . S
C2765 C2769 1.408 . S
C2766 C2764 1.363 . S
C2766 C2767 1.370 . S
C2766 C2770 1.524 . S
C2767 C2759 1.503 . S
C2767 C2766 1.370 . S
C2767 C2768 1.403 . S
C2768 C2767 1.403 . S
C2768 C2769 1.404 . S
C2768 C2771 1.539 . S
C2769 C2765 1.408 . S
C2769 C2768 1.404 . S
C2769 H2781 0.930 . S
C2770 C2766 1.524 . S
C2770 H2782 0.956 . S
C2770 H2783 0.961 . S
C2770 H2784 0.961 . S
C2771 C2768 1.539 . S
C2771 H2785 0.958 . S
C2771 H2786 0.961 . S
C2771 H2787 0.960 . S
H2772 C2756 0.931 . S
H2773 C2761 0.929 . S
H2774 C2762 0.960 . S
H2775 C2762 0.962 . S
H2776 C2762 0.960 . S
H2777 C2763 0.961 . S
H2778 C2763 0.961 . S
H2779 C2763 0.961 . S
H2780 C2764 0.931 . S
H2781 C2769 0.930 . S
H2782 C2770 0.956 . S
H2783 C2770 0.961 . S
H2784 C2770 0.961 . S
H2785 C2771 0.958 . S
H2786 C2771 0.961 . S
H2787 C2771 0.960 . S
C2788 C2789 1.391 . S
C2788 C2790 1.394 . S
C2788 H2804 0.931 . S
C2789 C2788 1.391 . S
C2789 C2793 1.376 . S
C2790 C2788 1.394 . S
C2790 C2791 1.369 . S
C2790 C2794 1.531 . S
C2791 C2790 1.369 . S
C2791 C2792 1.410 . S
C2791 C2799 1.503 . S
C2792 C2791 1.410 . S
C2792 C2793 1.392 . S
C2792 C2795 1.511 . S
C2793 C2789 1.376 . S
C2793 C2792 1.392 . S
C2793 H2805 0.929 . S
C2794 C2790 1.531 . S
C2794 H2806 0.960 . S
C2794 H2807 0.962 . S
C2794 H2808 0.960 . S
C2795 C2792 1.511 . S
C2795 H2809 0.961 . S
C2795 H2810 0.961 . S
C2795 H2811 0.961 . S
C2796 C2797 1.370 . S
C2796 C2798 1.363 . S
C2796 H2812 0.931 . S
C2797 C2796 1.370 . S
C2797 C2801 1.408 . S
C2798 C2796 1.363 . S
C2798 C2799 1.370 . S
C2798 C2802 1.524 . S
C2799 C2791 1.503 . S
C2799 C2798 1.370 . S
C2799 C2800 1.403 . S
C2800 C2799 1.403 . S
C2800 C2801 1.404 . S
C2800 C2803 1.539 . S
C2801 C2797 1.408 . S
C2801 C2800 1.404 . S
C2801 H2813 0.930 . S
C2802 C2798 1.524 . S
C2802 H2814 0.956 . S
C2802 H2815 0.961 . S
C2802 H2816 0.961 . S
C2803 C2800 1.539 . S
C2803 H2817 0.958 . S
C2803 H2818 0.961 . S
C2803 H2819 0.960 . S
H2804 C2788 0.931 . S
H2805 C2793 0.929 . S
H2806 C2794 0.960 . S
H2807 C2794 0.962 . S
H2808 C2794 0.960 . S
H2809 C2795 0.961 . S
H2810 C2795 0.961 . S
H2811 C2795 0.961 . S
H2812 C2796 0.931 . S
H2813 C2801 0.930 . S
H2814 C2802 0.956 . S
H2815 C2802 0.961 . S
H2816 C2802 0.961 . S
H2817 C2803 0.958 . S
H2818 C2803 0.961 . S
H2819 C2803 0.960 . S
C2820 C2821 1.391 . S
C2820 C2822 1.394 . S
C2820 H2836 0.931 . S
C2821 C2820 1.391 . S
C2821 C2825 1.376 1_655 S
C2822 C2820 1.394 . S
C2822 C2823 1.369 . S
C2822 C2826 1.531 . S
C2823 C2822 1.369 . S
C2823 C2824 1.410 1_655 S
C2823 C2831 1.503 . S
C2824 C2823 1.410 1_455 S
C2824 C2825 1.392 . S
C2824 C2827 1.511 . S
C2825 C2821 1.376 1_455 S
C2825 C2824 1.392 . S
C2825 H2837 0.929 . S
C2826 C2822 1.531 . S
C2826 H2838 0.960 . S
C2826 H2839 0.962 . S
C2826 H2840 0.960 . S
C2827 C2824 1.511 . S
C2827 H2841 0.961 . S
C2827 H2842 0.961 . S
C2827 H2843 0.961 . S
C2828 C2829 1.370 1_455 S
C2828 C2830 1.363 . S
C2828 H2844 0.931 . S
C2829 C2828 1.370 1_655 S
C2829 C2833 1.408 . S
C2830 C2828 1.363 . S
C2830 C2831 1.370 1_455 S
C2830 C2834 1.524 . S
C2831 C2823 1.503 . S
C2831 C2830 1.370 1_655 S
C2831 C2832 1.403 . S
C2832 C2831 1.403 . S
C2832 C2833 1.404 . S
C2832 C2835 1.539 . S
C2833 C2829 1.408 . S
C2833 C2832 1.404 . S
C2833 H2845 0.930 . S
C2834 C2830 1.524 . S
C2834 H2846 0.956 . S
C2834 H2847 0.961 . S
C2834 H2848 0.961 . S
C2835 C2832 1.539 . S
C2835 H2849 0.958 . S
C2835 H2850 0.961 . S
C2835 H2851 0.960 . S
H2836 C2820 0.931 . S
H2837 C2825 0.929 . S
H2838 C2826 0.960 . S
H2839 C2826 0.962 . S
H2840 C2826 0.960 . S
H2841 C2827 0.961 . S
H2842 C2827 0.961 . S
H2843 C2827 0.961 . S
H2844 C2828 0.931 . S
H2845 C2833 0.930 . S
H2846 C2834 0.956 . S
H2847 C2834 0.961 . S
H2848 C2834 0.961 . S
H2849 C2835 0.958 . S
H2850 C2835 0.961 . S
H2851 C2835 0.960 . S
C2852 C2853 1.391 . S
C2852 C2854 1.394 . S
C2852 H2868 0.931 . S
C2853 C2852 1.391 . S
C2853 C2857 1.376 . S
C2854 C2852 1.394 . S
C2854 C2855 1.369 . S
C2854 C2858 1.531 . S
C2855 C2854 1.369 . S
C2855 C2856 1.410 . S
C2855 C2863 1.503 . S
C2856 C2855 1.410 . S
C2856 C2857 1.392 . S
C2856 C2859 1.511 . S
C2857 C2853 1.376 . S
C2857 C2856 1.392 . S
C2857 H2869 0.929 . S
C2858 C2854 1.531 . S
C2858 H2870 0.960 . S
C2858 H2871 0.962 . S
C2858 H2872 0.960 . S
C2859 C2856 1.511 . S
C2859 H2873 0.961 . S
C2859 H2874 0.961 . S
C2859 H2875 0.961 . S
C2860 C2861 1.370 . S
C2860 C2862 1.363 . S
C2860 H2876 0.931 . S
C2861 C2860 1.370 . S
C2861 C2865 1.408 . S
C2862 C2860 1.363 . S
C2862 C2863 1.370 . S
C2862 C2866 1.524 . S
C2863 C2855 1.503 . S
C2863 C2862 1.370 . S
C2863 C2864 1.403 . S
C2864 C2863 1.403 . S
C2864 C2865 1.404 . S
C2864 C2867 1.539 . S
C2865 C2861 1.408 . S
C2865 C2864 1.404 . S
C2865 H2877 0.930 . S
C2866 C2862 1.524 . S
C2866 H2878 0.956 . S
C2866 H2879 0.961 . S
C2866 H2880 0.961 . S
C2867 C2864 1.539 . S
C2867 H2881 0.958 . S
C2867 H2882 0.961 . S
C2867 H2883 0.960 . S
H2868 C2852 0.931 . S
H2869 C2857 0.929 . S
H2870 C2858 0.960 . S
H2871 C2858 0.962 . S
H2872 C2858 0.960 . S
H2873 C2859 0.961 . S
H2874 C2859 0.961 . S
H2875 C2859 0.961 . S
H2876 C2860 0.931 . S
H2877 C2865 0.930 . S
H2878 C2866 0.956 . S
H2879 C2866 0.961 . S
H2880 C2866 0.961 . S
H2881 C2867 0.958 . S
H2882 C2867 0.961 . S
H2883 C2867 0.960 . S
C2884 C2885 1.386 1_565 S
C2884 C2886 1.420 . S
C2884 H2900 0.939 . S
C2885 C2884 1.386 1_545 S
C2885 C2889 1.376 . S
C2886 C2884 1.420 . S
C2886 C2887 1.303 1_565 S
C2886 C2890 1.570 . S
C2887 C2886 1.303 1_545 S
C2887 C2888 1.410 . S
C2887 C2895 1.503 . S
C2888 C2887 1.410 . S
C2888 C2889 1.392 . S
C2888 C2891 1.511 . S
C2889 C2885 1.376 . S
C2889 C2888 1.392 . S
C2889 H2901 0.929 . S
C2890 C2886 1.570 . S
C2890 H2902 0.960 . S
C2890 H2903 0.962 . S
C2890 H2904 0.960 . S
C2891 C2888 1.511 . S
C2891 H2905 0.961 . S
C2891 H2906 0.961 . S
C2891 H2907 0.961 . S
C2892 C2893 1.370 . S
C2892 C2894 1.363 . S
C2892 H2908 0.931 . S
C2893 C2892 1.370 . S
C2893 C2897 1.408 . S
C2894 C2892 1.363 . S
C2894 C2895 1.370 . S
C2894 C2898 1.524 . S
C2895 C2887 1.503 . S
C2895 C2894 1.370 . S
C2895 C2896 1.403 . S
C2896 C2895 1.403 . S
C2896 C2897 1.404 . S
C2896 C2899 1.539 . S
C2897 C2893 1.408 . S
C2897 C2896 1.404 . S
C2897 H2909 0.930 . S
C2898 C2894 1.524 . S
C2898 H2910 0.956 . S
C2898 H2911 0.961 . S
C2898 H2912 0.961 . S
C2899 C2896 1.539 . S
C2899 H2913 0.958 1_545 S
C2899 H2914 0.961 . S
C2899 H2915 0.960 . S
H2900 C2884 0.939 . S
H2901 C2889 0.929 . S
H2902 C2890 0.960 . S
H2903 C2890 0.962 . S
H2904 C2890 0.960 . S
H2905 C2891 0.961 . S
H2906 C2891 0.961 . S
H2907 C2891 0.961 . S
H2908 C2892 0.931 . S
H2909 C2897 0.930 . S
H2910 C2898 0.956 . S
H2911 C2898 0.961 . S
H2912 C2898 0.961 . S
H2913 C2899 0.958 1_565 S
H2914 C2899 0.961 . S
H2915 C2899 0.960 . S
C613 C10 1.634 . S
C621 C440 1.587 . S
C645 C23 1.627 . S
C653 C453 1.590 . S
C685 C482 1.545 1_545 S
C677 C29 1.625 . S
C709 C30 1.629 . S
C717 C495 1.580 . S
C741 C5 1.632 . S
C749 C516 1.617 . S
C773 C18 1.624 . S
C781 C545 1.566 . S
C805 C49 1.627 . S
C813 C524 1.586 . S
C845 C537 1.576 . S
C837 C62 1.610 . S
C877 C503 1.572 . S
C869 C70 1.625 . S
C901 C75 1.622 . S
C909 C474 1.582 1_545 S
C941 C432 1.602 . S
C933 C44 1.626 . S
C965 C57 1.630 . S
C973 C461 1.567 . S
C997 C88 1.627 . S
C1005 C566 1.589 . S
C1029 C101 1.618 . S
C1037 C579 1.599 . S
C1069 C608 1.572 . S
C1061 C107 1.614 . S
C1093 C108 1.617 . S
C1101 C243 1.600 . S
C1125 C83 1.633 . S
C1133 C264 1.616 . S
C1157 C96 1.635 . S
C1165 C293 1.558 . S
C1189 C127 1.628 . S
C1197 C272 1.594 . S
C1221 C140 1.609 . S
C1229 C285 1.584 . S
C1261 C251 1.575 . S
C1253 C146 1.623 . S
C1293 C600 1.585 . S
C1285 C147 1.619 . S
C1325 C558 1.587 . S
C1317 C122 1.642 . S
C1357 C587 1.589 . S
C1349 C135 1.609 . S
C1381 C160 1.645 . S
C1389 C314 1.567 . S
C1413 C173 1.615 . S
C1421 C327 1.590 . S
C1445 C185 1.624 . S
C1453 C356 1.561 . S
C1477 C186 1.628 . S
C1485 C369 1.591 . S
C1517 C390 1.611 . S
C1509 C159 1.626 . S
C1549 C419 1.583 . S
C1541 C172 1.614 . S
C1581 C398 1.575 . S
C1573 C205 1.637 . S
C1613 C411 1.583 . S
C1605 C218 1.609 . S
C1637 C224 1.613 . S
C1645 C377 1.578 . S
C1677 C348 1.565 . S
C1669 C225 1.625 . S
C1701 C200 1.639 . S
C1709 C306 1.580 . S
C1741 C335 1.589 . S
C1733 C213 1.612 . S
C1773 C246 1.383 . S
C1765 C4 1.502 . S
C1797 C17 1.485 . S
C1805 C267 1.383 . S
C1837 C295 1.406 . S
C1829 C31 1.507 . S
C1869 C316 1.391 . S
C1861 C36 1.491 . S
C1901 C330 1.398 . S
C1893 C3 1.507 . S
C1933 C358 1.434 . S
C1925 C16 1.509 . S
C1957 C43 1.507 . S
C1965 C351 1.368 . S
C1989 C56 1.489 . S
C1997 C309 1.360 . S
C2021 C68 1.511 . S
C2029 C337 1.402 . S
C2053 C69 1.489 . S
C2061 C274 1.423 . S
C2093 C288 1.384 . S
C2085 C42 1.508 . S
C2117 C55 1.502 . S
C2125 C253 1.433 . S
C2157 C372 1.380 . S
C2149 C82 1.503 . S
C2181 C95 1.507 . S
C2189 C393 1.370 . S
C2213 C109 1.508 . S
C2221 C421 1.410 . S
C2253 C442 1.395 . S
C2245 C114 1.494 . S
C2277 C81 1.512 . S
C2285 C456 1.370 . S
C2309 C94 1.510 . S
C2317 C484 1.437 . S
C2341 C121 1.508 . S
C2349 C477 1.398 . S
C2373 C134 1.488 . S
C2381 C435 1.368 . S
C2413 C463 1.418 . S
C2405 C148 1.510 . S
C2437 C153 1.502 . S
C2445 C400 1.401 . S
C2469 C120 1.521 . S
C2477 C414 1.391 . S
C2509 C379 1.402 . S
C2501 C133 1.506 . S
C2541 C498 1.397 . S
C2533 C166 1.518 . S
C2565 C179 1.501 . S
C2573 C519 1.355 1_655 S
C2597 C187 1.496 . S
C2605 C547 1.408 . S
C2637 C568 1.418 . S
C2629 C192 1.503 . S
C2669 C582 1.396 . S
C2661 C161 1.506 . S
C2693 C174 1.514 . S
C2701 C610 1.428 . S
C2725 C199 1.517 . S
C2733 C603 1.376 . S
C2757 C212 1.506 . S
C2765 C561 1.376 . S
C2797 C589 1.422 . S
C2789 C226 1.509 . S
C2829 C526 1.423 1_655 S
C2821 C231 1.484 . S
C2861 C540 1.369 . S
C2853 C198 1.511 . S
C2885 C211 1.506 . S
C2893 C505 1.402 . S
