# Generated by pormake.
# Topology cml, (3,6)-cn, num edge types: 1
# Building blocks:
#     Node 0, Type 0, BuildingBlock: BETDIP_clean_linker_0, # of connection points: 3
#     Node 1, Type 0, BuildingBlock: BETDIP_clean_linker_0, # of connection points: 3
#     Node 2, Type 0, BuildingBlock: BETDIP_clean_linker_0, # of connection points: 3
#     Node 3, Type 0, BuildingBlock: BETDIP_clean_linker_0, # of connection points: 3
#     Node 4, Type 0, BuildingBlock: BETDIP_clean_linker_0, # of connection points: 3
#     Node 5, Type 0, BuildingBlock: BETDIP_clean_linker_0, # of connection points: 3
#     Node 6, Type 0, BuildingBlock: BETDIP_clean_linker_0, # of connection points: 3
#     Node 7, Type 0, BuildingBlock: BETDIP_clean_linker_0, # of connection points: 3
#     Node 8, Type 1, BuildingBlock: OJICUG_clean_sbu_0, # of connection points: 6
#     Node 9, Type 1, BuildingBlock: OJICUG_clean_sbu_0, # of connection points: 6
#     Node 10, Type 1, BuildingBlock: OJICUG_clean_sbu_0, # of connection points: 6
#     Node 11, Type 1, BuildingBlock: OJICUG_clean_sbu_0, # of connection points: 6
#     Edge 12, Type (0, 1), BuildingBlock: AJUNOK_clean_linker_0, # of connection points: 2
#     Edge 13, Type (0, 1), BuildingBlock: AJUNOK_clean_linker_0, # of connection points: 2
#     Edge 14, Type (0, 1), BuildingBlock: AJUNOK_clean_linker_0, # of connection points: 2
#     Edge 15, Type (0, 1), BuildingBlock: AJUNOK_clean_linker_0, # of connection points: 2
#     Edge 16, Type (0, 1), BuildingBlock: AJUNOK_clean_linker_0, # of connection points: 2
#     Edge 17, Type (0, 1), BuildingBlock: AJUNOK_clean_linker_0, # of connection points: 2
#     Edge 18, Type (0, 1), BuildingBlock: AJUNOK_clean_linker_0, # of connection points: 2
#     Edge 19, Type (0, 1), BuildingBlock: AJUNOK_clean_linker_0, # of connection points: 2
#     Edge 20, Type (0, 1), BuildingBlock: AJUNOK_clean_linker_0, # of connection points: 2
#     Edge 21, Type (0, 1), BuildingBlock: AJUNOK_clean_linker_0, # of connection points: 2
#     Edge 22, Type (0, 1), BuildingBlock: AJUNOK_clean_linker_0, # of connection points: 2
#     Edge 23, Type (0, 1), BuildingBlock: AJUNOK_clean_linker_0, # of connection points: 2
#     Edge 24, Type (0, 1), BuildingBlock: AJUNOK_clean_linker_0, # of connection points: 2
#     Edge 25, Type (0, 1), BuildingBlock: AJUNOK_clean_linker_0, # of connection points: 2
#     Edge 26, Type (0, 1), BuildingBlock: AJUNOK_clean_linker_0, # of connection points: 2
#     Edge 27, Type (0, 1), BuildingBlock: AJUNOK_clean_linker_0, # of connection points: 2
#     Edge 28, Type (0, 1), BuildingBlock: AJUNOK_clean_linker_0, # of connection points: 2
#     Edge 29, Type (0, 1), BuildingBlock: AJUNOK_clean_linker_0, # of connection points: 2
#     Edge 30, Type (0, 1), BuildingBlock: AJUNOK_clean_linker_0, # of connection points: 2
#     Edge 31, Type (0, 1), BuildingBlock: AJUNOK_clean_linker_0, # of connection points: 2
#     Edge 32, Type (0, 1), BuildingBlock: AJUNOK_clean_linker_0, # of connection points: 2
#     Edge 33, Type (0, 1), BuildingBlock: AJUNOK_clean_linker_0, # of connection points: 2
#     Edge 34, Type (0, 1), BuildingBlock: AJUNOK_clean_linker_0, # of connection points: 2
#     Edge 35, Type (0, 1), BuildingBlock: AJUNOK_clean_linker_0, # of connection points: 2
# Relax obj value: 0.006
# Max RMSD: 0.047
# Mean RMSD: 0.042
data_MOF--net-cml--node1-OJICUG_clean_sbu_0--node2-BETDIP_clean_linker_0--edge1-AJUNOK_clean_linker_0
_symmetry_space_group_name_H-M    P1
_symmetry_Int_Tables_number       1
_symmetry_cell_setting            triclinic
loop_
_symmetry_equiv_pos_as_xyz
'x, y, z'
_cell_length_a     30.373447
_cell_length_b     29.157843
_cell_length_c     26.557899
_cell_angle_alpha  90.026566
_cell_angle_beta   89.996363
_cell_angle_gamma 89.967128
loop_
_atom_site_label
_atom_site_type_symbol
_atom_site_fract_x
_atom_site_fract_y
_atom_site_fract_z
_atom_type_partial_charge
H0 H 0.26945 0.34508 0.05874 0.0
H1 H 0.26789 0.4374 0.93189 0.0
H2 H 0.35879 0.45872 0.05342 0.0
H3 H 0.20989 0.39806 0.90627 0.0
C4 C 0.20566 0.36704 0.92823 0.0
C5 C 0.28154 0.37559 0.03995 0.0
C6 C 0.31519 0.40134 0.062 0.0
C7 C 0.26353 0.38852 -0.00646 0.0
C8 C 0.28022 0.42752 0.96847 0.0
C9 C 0.31419 0.45358 0.99048 0.0
C10 C 0.33118 0.44025 0.0373 0.0
N11 N 0.22995 0.36011 0.97326 0.0
H12 H 0.73171 0.65003 0.56509 0.0
H13 H 0.73528 0.55835 0.43771 0.0
H14 H 0.63452 0.54425 0.54977 0.0
H15 H 0.78897 0.6009 0.40963 0.0
C16 C 0.79592 0.62949 0.43449 0.0
C17 C 0.71848 0.62092 0.54468 0.0
C18 C 0.68146 0.59794 0.56322 0.0
C19 C 0.73817 0.60729 0.49938 0.0
C20 C 0.72064 0.56969 0.47259 0.0
C21 C 0.68322 0.54664 0.49081 0.0
C22 C 0.66427 0.56079 0.53633 0.0
N23 N 0.77415 0.6338 0.48158 0.0
H24 H 0.73107 0.35236 0.06429 0.0
H25 H 0.73577 0.44657 0.93941 0.0
H26 H 0.63193 0.45621 0.04876 0.0
H27 H 0.77636 0.39123 0.90324 0.0
C28 C 0.79283 0.37224 0.93289 0.0
C29 C 0.71744 0.38133 0.04398 0.0
C30 C 0.6797 0.40331 0.06211 0.0
C31 C 0.73752 0.39606 -0.00065 0.0
C32 C 0.71994 0.43393 0.9731 0.0
C33 C 0.68171 0.45593 0.99087 0.0
C34 C 0.66214 0.44043 0.0355 0.0
N35 N 0.77511 0.37161 0.98238 0.0
H36 H 0.26583 0.65313 0.56063 0.0
H37 H 0.26462 0.56095 0.43358 0.0
H38 H 0.35892 0.54271 0.55211 0.0
H39 H 0.20732 0.60087 0.40722 0.0
C40 C 0.2023 0.63127 0.43005 0.0
C41 C 0.27864 0.62315 0.54139 0.0
C42 C 0.31401 0.59893 0.5621 0.0
C43 C 0.26012 0.60972 0.4954 0.0
C44 C 0.27743 0.57129 0.46978 0.0
C45 C 0.31255 0.54632 0.49086 0.0
C46 C 0.33037 0.56035 0.537 0.0
N47 N 0.22558 0.63734 0.47592 0.0
H48 H 0.76637 0.84519 0.06093 0.0
H49 H 0.76469 0.93941 0.93563 0.0
H50 H 0.8593 0.95575 0.05422 0.0
H51 H 0.72743 0.88402 0.89728 0.0
C52 C 0.71011 0.8641 0.92547 0.0
C53 C 0.77925 0.87523 0.04195 0.0
C54 C 0.81413 0.89975 0.0634 0.0
C55 C 0.76115 0.88893 -0.00423 0.0
C56 C 0.77832 0.92788 0.97103 0.0
C57 C 0.81341 0.95257 0.99242 0.0
C58 C 0.83098 0.93817 0.03852 0.0
N59 N 0.72575 0.86268 0.97589 0.0
H60 H 0.22275 0.15928 0.5599 0.0
H61 H 0.22638 0.0676 0.43235 0.0
H62 H 0.13393 0.04518 0.5518 0.0
H63 H 0.28587 0.1047 0.40992 0.0
C64 C 0.2899 0.13602 0.43143 0.0
C65 C 0.21098 0.12891 0.54057 0.0
C66 C 0.17699 0.1029 0.56171 0.0
C67 C 0.2299 0.11612 0.49452 0.0
C68 C 0.21359 0.07732 0.46878 0.0
C69 C 0.17939 0.05113 0.48984 0.0
C70 C 0.16159 0.06405 0.53637 0.0
N71 N 0.26417 0.14422 0.47519 0.0
H72 H 0.2261 0.84331 0.05904 0.0
H73 H 0.22727 0.93634 0.93261 0.0
H74 H 0.13325 0.95408 0.05151 0.0
H75 H 0.26543 0.88141 0.8952 0.0
C76 C 0.28272 0.86173 0.92364 0.0
C77 C 0.21314 0.87317 0.03975 0.0
C78 C 0.1783 0.8979 0.06102 0.0
C79 C 0.23115 0.88648 -0.0066 0.0
C80 C 0.21382 0.92511 0.96821 0.0
C81 C 0.1788 0.94998 0.98946 0.0
C82 C 0.16142 0.93616 0.03583 0.0
N83 N 0.2667 0.86023 0.97388 0.0
H84 H 0.76712 0.15787 0.55993 0.0
H85 H 0.7674 0.06509 0.43327 0.0
H86 H 0.86023 0.04728 0.55343 0.0
H87 H 0.72969 0.12037 0.39528 0.0
C88 C 0.7121 0.13991 0.42362 0.0
C89 C 0.78033 0.12805 0.54077 0.0
C90 C 0.81495 0.10333 0.56252 0.0
C91 C 0.76287 0.11482 0.49411 0.0
C92 C 0.78048 0.07622 0.4691 0.0
C93 C 0.8153 0.05131 0.49077 0.0
C94 C 0.83217 0.06513 0.53745 0.0
N95 N 0.72754 0.14112 0.47412 0.0
Sc96 Sc 0.9969 0.78932 0.28288 0.0
Sc97 Sc 0.99729 0.90932 0.30063 0.0
Sc98 Sc 0.99803 0.83691 0.40561 0.0
O99 O 0.99738 0.84504 0.32968 0.0
C100 C 0.93173 0.75791 0.37075 0.0
C101 C 0.93004 0.8575 0.22798 0.0
C102 C 0.93158 0.92126 0.39331 0.0
C103 C 0.06318 0.85711 0.2267 0.0
C104 C 0.06383 0.75795 0.36909 0.0
C105 C 0.06435 0.92102 0.39193 0.0
O106 O 0.94628 0.75509 0.32592 0.0
O107 O 0.9461 0.89307 0.24845 0.0
O108 O 0.94684 0.88729 0.41779 0.0
O109 O 0.04788 0.81714 0.23468 0.0
O110 O 0.04889 0.7858 0.40173 0.0
O111 O 0.04862 0.93297 0.34964 0.0
O112 O 0.04817 0.75485 0.32477 0.0
O113 O 0.04759 0.89279 0.24744 0.0
O114 O 0.0492 0.88728 0.41676 0.0
O115 O 0.94525 0.81742 0.23571 0.0
O116 O 0.94741 0.78562 0.40303 0.0
O117 O 0.94687 0.9332 0.3508 0.0
Sc118 Sc 0.99603 0.21273 0.784 0.0
Sc119 Sc 0.9954 0.0928 0.80213 0.0
Sc120 Sc 0.99744 0.16562 0.90687 0.0
O121 O 0.99622 0.1572 0.83097 0.0
C122 C 0.06435 0.243 0.86943 0.0
C123 C 0.06126 0.14389 0.72742 0.0
C124 C 0.0625 0.08023 0.89313 0.0
C125 C 0.92836 0.1451 0.72958 0.0
C126 C 0.93278 0.24657 0.87269 0.0
C127 C 0.92973 0.08239 0.89517 0.0
O128 O 0.04799 0.24658 0.82547 0.0
O129 O 0.04549 0.10847 0.74841 0.0
O130 O 0.04749 0.114 0.91808 0.0
O131 O 0.94389 0.18506 0.7372 0.0
O132 O 0.94828 0.21856 0.90476 0.0
O133 O 0.94512 0.06984 0.85289 0.0
O134 O 0.94611 0.24801 0.82728 0.0
O135 O 0.94411 0.10945 0.7502 0.0
O136 O 0.94512 0.11652 0.91932 0.0
O137 O 0.04643 0.18406 0.7355 0.0
O138 O 0.04954 0.21528 0.90226 0.0
O139 O 0.04687 0.06865 0.85069 0.0
Sc140 Sc 0.49654 0.28943 0.28154 0.0
Sc141 Sc 0.49697 0.40907 0.30033 0.0
Sc142 Sc 0.49943 0.33587 0.40478 0.0
O143 O 0.49765 0.34464 0.32887 0.0
C144 C 0.43193 0.25798 0.37 0.0
C145 C 0.42952 0.35785 0.22762 0.0
C146 C 0.43206 0.41983 0.39356 0.0
C147 C 0.56219 0.35777 0.22502 0.0
C148 C 0.5645 0.25687 0.36631 0.0
C149 C 0.56523 0.42025 0.39067 0.0
O150 O 0.44627 0.25509 0.32507 0.0
O151 O 0.4459 0.39323 0.24803 0.0
O152 O 0.4485 0.38649 0.41812 0.0
O153 O 0.54691 0.31776 0.23287 0.0
O154 O 0.54997 0.28414 0.39985 0.0
O155 O 0.54812 0.43267 0.34933 0.0
O156 O 0.54838 0.25497 0.32217 0.0
O157 O 0.54718 0.39321 0.24684 0.0
O158 O 0.55124 0.38583 0.41536 0.0
O159 O 0.44443 0.31766 0.23527 0.0
O160 O 0.44816 0.28522 0.40241 0.0
O161 O 0.44642 0.43181 0.35068 0.0
Sc162 Sc 0.49747 0.71272 0.78059 0.0
Sc163 Sc 0.49661 0.59348 0.80038 0.0
Sc164 Sc 0.49762 0.66773 0.90441 0.0
O165 O 0.49722 0.65809 0.82849 0.0
C166 C 0.56366 0.74614 0.86671 0.0
C167 C 0.56312 0.64366 0.72554 0.0
C168 C 0.56401 0.58329 0.89163 0.0
C169 C 0.43071 0.64445 0.72579 0.0
C170 C 0.43112 0.74574 0.86678 0.0
C171 C 0.43102 0.58312 0.89327 0.0
O172 O 0.54851 0.74741 0.82212 0.0
O173 O 0.54713 0.60845 0.74681 0.0
O174 O 0.54936 0.61757 0.91624 0.0
O175 O 0.44628 0.68436 0.73329 0.0
O176 O 0.44631 0.71887 0.90035 0.0
O177 O 0.44601 0.57092 0.85072 0.0
O178 O 0.44657 0.74734 0.82233 0.0
O179 O 0.44574 0.60904 0.74756 0.0
O180 O 0.4466 0.61712 0.9175 0.0
O181 O 0.54859 0.68392 0.73357 0.0
O182 O 0.54835 0.71937 0.90023 0.0
O183 O 0.54753 0.57071 0.85001 0.0
C184 C 0.14279 0.34464 0.87298 0.0
C185 C 0.17132 0.33358 0.91285 0.0
C186 C 0.10878 0.31486 0.8585 0.0
C187 C 0.1019 0.27291 0.88355 0.0
H188 H 0.14636 0.37693 0.85323 0.0
H189 H 0.08716 0.3253 0.82816 0.0
S190 S 0.17021 0.22555 0.98725 0.0
N191 N 0.19229 0.27601 0.97494 0.0
N192 N 0.12849 0.22037 0.94791 0.0
C193 C 0.13102 0.26083 0.92258 0.0
C194 C 0.16572 0.29103 0.9372 0.0
C195 C 0.85472 0.65522 0.37552 0.0
C196 C 0.82935 0.6637 0.41879 0.0
C197 C 0.88724 0.68616 0.35972 0.0
C198 C 0.89566 0.72681 0.38669 0.0
H199 H 0.84975 0.6241 0.35394 0.0
H200 H 0.90642 0.67765 0.32662 0.0
S201 S 0.83551 0.76728 0.5002 0.0
N202 N 0.81299 0.71727 0.48675 0.0
N203 N 0.87386 0.77527 0.45711 0.0
C204 C 0.86968 0.73628 0.42939 0.0
C205 C 0.83658 0.7048 0.44545 0.0
C206 C 0.8402 0.33468 0.86817 0.0
C207 C 0.82978 0.34131 0.91921 0.0
C208 C 0.87359 0.30423 0.85343 0.0
C209 C 0.89792 0.27915 0.88925 0.0
H210 H 0.82197 0.35274 0.83925 0.0
H211 H 0.87993 0.29999 0.81358 0.0
S212 S 0.88565 0.28682 0.02836 0.0
N213 N 0.84803 0.32216 0.00597 0.0
N214 N 0.91048 0.26503 0.97857 0.0
C215 C 0.88836 0.28628 0.94064 0.0
C216 C 0.85442 0.31734 0.95558 0.0
C217 C 0.14081 0.65505 0.37349 0.0
C218 C 0.16854 0.66523 0.41436 0.0
C219 C 0.10752 0.6855 0.35845 0.0
C220 C 0.10063 0.72728 0.38388 0.0
H221 H 0.14446 0.62295 0.35334 0.0
H222 H 0.08649 0.67573 0.32731 0.0
S223 S 0.16713 0.77243 0.49031 0.0
N224 N 0.18881 0.72177 0.47792 0.0
N225 N 0.1264 0.77868 0.4498 0.0
C226 C 0.12898 0.73847 0.42398 0.0
C227 C 0.16291 0.70757 0.43919 0.0
C228 C 0.64915 0.80896 0.94558 0.0
C229 C 0.67254 0.83489 0.90985 0.0
C230 C 0.61409 0.78063 0.93121 0.0
C231 C 0.60081 0.77705 0.8805 0.0
H232 H 0.65788 0.81034 0.98508 0.0
H233 H 0.59727 0.76145 0.96035 0.0
S234 S 0.6519 0.83806 0.77231 0.0
N235 N 0.68031 0.85543 0.82175 0.0
N236 N 0.61454 0.8022 0.79435 0.0
C237 C 0.62397 0.80307 0.84438 0.0
C238 C 0.65973 0.83195 0.85916 0.0
C239 C 0.35217 0.15763 0.37513 0.0
C240 C 0.3249 0.16871 0.41615 0.0
C241 C 0.38634 0.18687 0.35998 0.0
C242 C 0.39472 0.22825 0.38555 0.0
H243 H 0.3473 0.12583 0.35475 0.0
H244 H 0.40678 0.17654 0.32853 0.0
S245 S 0.33074 0.27504 0.4932 0.0
N246 N 0.30719 0.22537 0.48057 0.0
N247 N 0.3713 0.28007 0.45227 0.0
C248 C 0.36711 0.24021 0.42609 0.0
C249 C 0.33221 0.21055 0.44136 0.0
C250 C 0.34406 0.8073 0.94459 0.0
C251 C 0.32081 0.83304 0.90856 0.0
C252 C 0.37965 0.77946 0.93069 0.0
C253 C 0.39357 0.77624 0.88019 0.0
H254 H 0.33482 0.80843 0.98394 0.0
H255 H 0.39632 0.76036 0.96 0.0
S256 S 0.34307 0.837 0.7714 0.0
N257 N 0.31385 0.85384 0.82045 0.0
N258 N 0.3806 0.80153 0.7939 0.0
C259 C 0.37055 0.8021 0.84378 0.0
C260 C 0.33426 0.83047 0.85808 0.0
C261 C 0.65042 0.19397 0.44434 0.0
C262 C 0.67422 0.16882 0.40826 0.0
C263 C 0.61506 0.22204 0.43033 0.0
C264 C 0.60189 0.22613 0.37964 0.0
H265 H 0.65902 0.19217 0.48385 0.0
H266 H 0.59792 0.24061 0.45972 0.0
S267 S 0.65405 0.16733 0.27059 0.0
N268 N 0.68252 0.14959 0.31984 0.0
N269 N 0.61616 0.2024 0.29311 0.0
C270 C 0.62543 0.20089 0.34316 0.0
C271 C 0.66153 0.17226 0.35756 0.0
C272 C 0.35304 0.48301 0.91434 0.0
C273 C 0.33634 0.49127 0.96276 0.0
C274 C 0.38206 0.51394 0.89147 0.0
C275 C 0.39571 0.55443 0.91614 0.0
H276 H 0.34572 0.45113 0.89511 0.0
H277 H 0.39525 0.50485 0.85492 0.0
S278 S 0.35529 0.59517 0.04042 0.0
N279 N 0.33087 0.54513 0.0323 0.0
N280 N 0.38568 0.60337 0.98966 0.0
C281 C 0.3767 0.56455 0.96325 0.0
C282 C 0.347 0.53297 0.98646 0.0
C283 C 0.6455 0.47056 0.4854 0.0
C284 C 0.66062 0.51047 0.46115 0.0
C285 C 0.61636 0.44038 0.46149 0.0
C286 C 0.60109 0.44892 0.41232 0.0
H287 H 0.65484 0.46362 0.52403 0.0
H288 H 0.60435 0.41121 0.48266 0.0
S289 S 0.63526 0.54602 0.33027 0.0
N290 N 0.66111 0.55514 0.38398 0.0
N291 N 0.60741 0.498 0.33825 0.0
C292 C 0.61852 0.48711 0.38638 0.0
C293 C 0.64805 0.51792 0.41094 0.0
C294 C 0.64248 0.53141 0.98734 0.0
C295 C 0.65932 0.49279 0.96193 0.0
C296 C 0.61339 0.56183 0.96364 0.0
C297 C 0.59997 0.55487 0.9135 0.0
H298 H 0.65038 0.53708 0.02663 0.0
H299 H 0.59991 0.5898 0.98563 0.0
S300 S 0.63955 0.46224 0.82827 0.0
N301 N 0.66365 0.45145 0.88266 0.0
N302 N 0.61023 0.50918 0.83736 0.0
C303 C 0.61929 0.51824 0.88651 0.0
C304 C 0.64871 0.48714 0.91085 0.0
C305 C 0.35193 0.51815 0.41457 0.0
C306 C 0.33508 0.50918 0.46275 0.0
C307 C 0.38179 0.48802 0.39175 0.0
C308 C 0.39611 0.44773 0.41629 0.0
H309 H 0.34408 0.55002 0.39561 0.0
H310 H 0.39509 0.49761 0.35542 0.0
S311 S 0.35538 0.40516 0.53962 0.0
N312 N 0.33011 0.45479 0.53174 0.0
N313 N 0.38633 0.39794 0.48912 0.0
C314 C 0.37686 0.43679 0.46303 0.0
C315 C 0.34636 0.46756 0.48618 0.0
C316 C 0.85092 0.98296 0.91585 0.0
C317 C 0.83544 0.99046 0.96495 0.0
C318 C 0.87972 0.01403 0.89283 0.0
C319 C 0.89432 0.05387 0.91805 0.0
H320 H 0.84281 0.95155 0.89612 0.0
H321 H 0.89202 0.00554 0.8557 0.0
S322 S 0.85689 0.09273 0.04431 0.0
N323 N 0.83188 0.04307 0.03577 0.0
N324 N 0.88624 0.10158 -0.00711 0.0
C325 C 0.87636 0.06335 0.96588 0.0
C326 C 0.84693 0.03162 0.98923 0.0
C327 C 0.14078 0.02219 0.41342 0.0
C328 C 0.15807 0.01346 0.46146 0.0
C329 C 0.11222 0.99098 0.39023 0.0
C330 C 0.09974 0.94983 0.41428 0.0
H331 H 0.14721 0.05459 0.39487 0.0
H332 H 0.09832 0.00038 0.35413 0.0
S333 S 0.14275 0.90769 0.53685 0.0
N334 N 0.16571 0.95858 0.52964 0.0
N335 N 0.11203 0.89962 0.48634 0.0
C336 C 0.11966 0.93921 0.46078 0.0
C337 C 0.14877 0.9711 0.48432 0.0
C338 C 0.13957 0.97923 0.91355 0.0
C339 C 0.15676 0.98761 0.96172 0.0
C340 C 0.1107 0.01041 0.89078 0.0
C341 C 0.09783 0.05121 0.91536 0.0
H342 H 0.14644 0.94713 0.89453 0.0
H343 H 0.09697 0.00132 0.85449 0.0
S344 S 0.1402 0.0923 0.03869 0.0
N345 N 0.16367 0.04173 0.03077 0.0
N346 N 0.10948 0.10066 0.98823 0.0
C347 C 0.11753 0.06145 0.9621 0.0
C348 C 0.14692 0.02956 0.98522 0.0
C349 C 0.85438 0.02203 0.41468 0.0
C350 C 0.83769 0.01377 0.4631 0.0
C351 C 0.88313 0.99089 0.39162 0.0
C352 C 0.89643 0.95021 0.41611 0.0
H353 H 0.84716 0.05399 0.39559 0.0
H354 H 0.89639 0.99992 0.35509 0.0
S355 S 0.85556 0.90937 0.54015 0.0
N356 N 0.83175 0.9598 0.53239 0.0
N357 N 0.88583 0.90101 0.48932 0.0
C358 C 0.87732 0.9401 0.46319 0.0
C359 C 0.84801 0.97193 0.48662 0.0
C360 C 0.35955 0.34441 0.1104 0.0
C361 C 0.33666 0.38629 0.10897 0.0
C362 C 0.38765 0.33385 0.15069 0.0
C363 C 0.39369 0.36497 0.19065 0.0
H364 H 0.35778 0.32098 0.07878 0.0
H365 H 0.40665 0.30244 0.14896 0.0
S366 S 0.33457 0.47547 0.2082 0.0
N367 N 0.31723 0.45621 0.15321 0.0
N368 N 0.36937 0.43647 0.2294 0.0
C369 C 0.36805 0.40529 0.19133 0.0
C370 C 0.33973 0.41597 0.15031 0.0
C371 C 0.64853 0.58194 0.64697 0.0
C372 C 0.65821 0.6137 0.60891 0.0
C373 C 0.61955 0.593 0.68595 0.0
C374 C 0.59876 0.6362 0.6882 0.0
H375 H 0.66217 0.54761 0.64548 0.0
H376 H 0.61223 0.56669 0.71351 0.0
S377 S 0.61644 0.73282 0.59939 0.0
N378 N 0.64759 0.69102 0.57719 0.0
N379 N 0.59291 0.71222 0.65068 0.0
C380 C 0.61034 0.6693 0.65191 0.0
C381 C 0.6401 0.65793 0.61216 0.0
C382 C 0.64791 0.4187 0.14643 0.0
C383 C 0.65671 0.38726 0.10777 0.0
C384 C 0.61916 0.40767 0.18559 0.0
C385 C 0.59766 0.36484 0.18739 0.0
H386 H 0.66205 0.45281 0.14528 0.0
H387 H 0.61257 0.43378 0.21364 0.0
S388 S 0.61313 0.26903 0.09691 0.0
N389 N 0.64475 0.31055 0.07499 0.0
N390 N 0.59031 0.2894 0.14877 0.0
C391 C 0.6084 0.33199 0.15046 0.0
C392 C 0.638 0.34332 0.11053 0.0
C393 C 0.34461 0.58394 0.64727 0.0
C394 C 0.3367 0.61502 0.60802 0.0
C395 C 0.37314 0.59499 0.68668 0.0
C396 C 0.39522 0.63749 0.68818 0.0
H397 H 0.32998 0.55005 0.64641 0.0
H398 H 0.37917 0.56913 0.71514 0.0
S399 S 0.38233 0.7324 0.59615 0.0
N400 N 0.35034 0.69114 0.57435 0.0
N401 N 0.40415 0.7123 0.64865 0.0
C402 C 0.38534 0.67006 0.65069 0.0
C403 C 0.35606 0.65871 0.6105 0.0
C404 C 0.85905 0.843 0.11148 0.0
C405 C 0.83557 0.88452 0.11035 0.0
C406 C 0.88777 0.83291 0.15141 0.0
C407 C 0.8939 0.8642 0.19123 0.0
H408 H 0.8573 0.81956 0.07987 0.0
H409 H 0.90715 0.80176 0.14948 0.0
S410 S 0.83366 0.97397 0.20929 0.0
N411 N 0.81588 0.9543 0.15466 0.0
N412 N 0.86914 0.93547 0.2301 0.0
C413 C 0.86773 0.90414 0.19218 0.0
C414 C 0.83876 0.9143 0.15159 0.0
C415 C 0.13141 0.15878 0.6103 0.0
C416 C 0.15484 0.11724 0.6086 0.0
C417 C 0.10283 0.16857 0.65043 0.0
C418 C 0.0968 0.137 0.68995 0.0
H419 H 0.13323 0.18259 0.57905 0.0
H420 H 0.08362 0.19985 0.64901 0.0
S421 S 0.15688 0.02693 0.70651 0.0
N422 N 0.17452 0.04703 0.65203 0.0
N423 N 0.12148 0.06528 0.72785 0.0
C424 C 0.12278 0.09691 0.69025 0.0
C425 C 0.15162 0.08703 0.64943 0.0
C426 C 0.13314 0.8418 0.10952 0.0
C427 C 0.15696 0.88307 0.10813 0.0
C428 C 0.10459 0.83209 0.14969 0.0
C429 C 0.09898 0.86351 0.18949 0.0
H430 H 0.13452 0.81828 0.07796 0.0
H431 H 0.08496 0.80112 0.14802 0.0
S432 S 0.16024 0.9727 0.2068 0.0
N433 N 0.1775 0.95274 0.15206 0.0
N434 N 0.12457 0.9346 0.22799 0.0
C435 C 0.12547 0.9032 0.19013 0.0
C436 C 0.15426 0.91299 0.14928 0.0
C437 C 0.85884 0.15996 0.612 0.0
C438 C 0.83576 0.11825 0.60999 0.0
C439 C 0.88682 0.17001 0.65261 0.0
C440 C 0.89257 0.13853 0.69231 0.0
H441 H 0.85739 0.1836 0.58058 0.0
H442 H 0.90599 0.2013 0.65132 0.0
S443 S 0.8329 0.02821 0.70815 0.0
N444 N 0.81589 0.04807 0.65329 0.0
N445 N 0.86771 0.06685 0.73005 0.0
C446 C 0.86669 0.0984 0.69237 0.0
C447 C 0.8385 0.08824 0.65104 0.0
loop_
_geom_bond_atom_site_label_1
_geom_bond_atom_site_label_2
_geom_bond_distance
_geom_bond_site_symmetry_2
_ccdc_geom_bond_type
H0 C5 0.930 . S
H1 C8 0.930 . S
H2 C10 0.930 . S
H3 C4 1.016 . S
C4 H3 1.016 . S
C4 N11 1.286 . S
C5 H0 0.930 . S
C5 C6 1.397 . S
C5 C7 1.361 . S
C6 C5 1.397 . S
C6 C10 1.390 . S
C7 C5 1.361 . S
C7 C8 1.393 1_554 S
C7 N11 1.413 1_554 S
C8 H1 0.930 . S
C8 C7 1.393 1_556 S
C8 C9 1.399 . S
C9 C8 1.399 . S
C9 C10 1.381 1_556 S
C10 H2 0.930 . S
C10 C6 1.390 . S
C10 C9 1.381 1_554 S
N11 C4 1.286 . S
N11 C7 1.413 1_556 S
H12 C17 0.930 . S
H13 C20 0.930 . S
H14 C22 0.930 . S
H15 C16 1.016 . S
C16 H15 1.016 . S
C16 N23 1.286 . S
C17 H12 0.930 . S
C17 C18 1.397 . S
C17 C19 1.361 . S
C18 C17 1.397 . S
C18 C22 1.390 . S
C19 C17 1.361 . S
C19 C20 1.393 . S
C19 N23 1.413 . S
C20 H13 0.930 . S
C20 C19 1.393 . S
C20 C21 1.399 . S
C21 C20 1.399 . S
C21 C22 1.381 . S
C22 H14 0.930 . S
C22 C18 1.390 . S
C22 C21 1.381 . S
N23 C16 1.286 . S
N23 C19 1.413 . S
H24 C29 0.930 . S
H25 C32 0.930 . S
H26 C34 0.930 . S
H27 C28 1.016 . S
C28 H27 1.016 . S
C28 N35 1.286 1_556 S
C29 H24 0.930 . S
C29 C30 1.397 . S
C29 C31 1.361 . S
C30 C29 1.397 . S
C30 C34 1.390 . S
C31 C29 1.361 . S
C31 C32 1.393 1_554 S
C31 N35 1.413 . S
C32 H25 0.930 . S
C32 C31 1.393 1_556 S
C32 C33 1.399 . S
C33 C32 1.399 . S
C33 C34 1.381 1_556 S
C34 H26 0.930 . S
C34 C30 1.390 . S
C34 C33 1.381 1_554 S
N35 C28 1.286 1_554 S
N35 C31 1.413 . S
H36 C41 0.930 . S
H37 C44 0.930 . S
H38 C46 0.930 . S
H39 C40 1.016 . S
C40 H39 1.016 . S
C40 N47 1.286 . S
C41 H36 0.930 . S
C41 C42 1.397 . S
C41 C43 1.361 . S
C42 C41 1.397 . S
C42 C46 1.390 . S
C43 C41 1.361 . S
C43 C44 1.393 . S
C43 N47 1.413 . S
C44 H37 0.930 . S
C44 C43 1.393 . S
C44 C45 1.399 . S
C45 C44 1.399 . S
C45 C46 1.381 . S
C46 H38 0.930 . S
C46 C42 1.390 . S
C46 C45 1.381 . S
N47 C40 1.286 . S
N47 C43 1.413 . S
H48 C53 0.930 . S
H49 C56 0.930 . S
H50 C58 0.930 . S
H51 C52 1.016 . S
C52 H51 1.016 . S
C52 N59 1.286 . S
C53 H48 0.930 . S
C53 C54 1.397 . S
C53 C55 1.361 . S
C54 C53 1.397 . S
C54 C58 1.390 . S
C55 C53 1.361 . S
C55 C56 1.393 1_554 S
C55 N59 1.413 1_554 S
C56 H49 0.930 . S
C56 C55 1.393 1_556 S
C56 C57 1.399 . S
C57 C56 1.399 . S
C57 C58 1.381 1_556 S
C58 H50 0.930 . S
C58 C54 1.390 . S
C58 C57 1.381 1_554 S
N59 C52 1.286 . S
N59 C55 1.413 1_556 S
H60 C65 0.930 . S
H61 C68 0.930 . S
H62 C70 0.930 . S
H63 C64 1.016 . S
C64 H63 1.016 . S
C64 N71 1.286 . S
C65 H60 0.930 . S
C65 C66 1.397 . S
C65 C67 1.361 . S
C66 C65 1.397 . S
C66 C70 1.390 . S
C67 C65 1.361 . S
C67 C68 1.393 . S
C67 N71 1.413 . S
C68 H61 0.930 . S
C68 C67 1.393 . S
C68 C69 1.399 . S
C69 C68 1.399 . S
C69 C70 1.381 . S
C70 H62 0.930 . S
C70 C66 1.390 . S
C70 C69 1.381 . S
N71 C64 1.286 . S
N71 C67 1.413 . S
H72 C77 0.930 . S
H73 C80 0.930 . S
H74 C82 0.930 . S
H75 C76 1.016 . S
C76 H75 1.016 . S
C76 N83 1.286 1_556 S
C77 H72 0.930 . S
C77 C78 1.397 . S
C77 C79 1.361 . S
C78 C77 1.397 . S
C78 C82 1.390 . S
C79 C77 1.361 . S
C79 C80 1.393 1_554 S
C79 N83 1.413 . S
C80 H73 0.930 . S
C80 C79 1.393 1_556 S
C80 C81 1.399 . S
C81 C80 1.399 . S
C81 C82 1.381 1_556 S
C82 H74 0.930 . S
C82 C78 1.390 . S
C82 C81 1.381 1_554 S
N83 C76 1.286 1_554 S
N83 C79 1.413 . S
H84 C89 0.930 . S
H85 C92 0.930 . S
H86 C94 0.930 . S
H87 C88 1.016 . S
C88 H87 1.016 . S
C88 N95 1.286 . S
C89 H84 0.930 . S
C89 C90 1.397 . S
C89 C91 1.361 . S
C90 C89 1.397 . S
C90 C94 1.390 . S
C91 C89 1.361 . S
C91 C92 1.393 . S
C91 N95 1.413 . S
C92 H85 0.930 . S
C92 C91 1.393 . S
C92 C93 1.399 . S
C93 C92 1.399 . S
C93 C94 1.381 . S
C94 H86 0.930 . S
C94 C90 1.390 . S
C94 C93 1.381 . S
N95 C88 1.286 . S
N95 C91 1.413 . S
Sc96 O99 2.025 . S
Sc96 O106 2.105 1_455 S
Sc96 O109 2.105 . S
Sc96 O112 2.105 . S
Sc96 O115 2.105 1_455 S
Sc97 O99 2.025 . S
Sc97 O107 2.105 1_455 S
Sc97 O111 2.105 . S
Sc97 O113 2.105 . S
Sc97 O117 2.105 1_455 S
Sc98 O99 2.025 . S
Sc98 O108 2.105 1_455 S
Sc98 O110 2.105 . S
Sc98 O114 2.105 . S
Sc98 O116 2.105 1_455 S
O99 Sc96 2.025 . S
O99 Sc97 2.025 . S
O99 Sc98 2.025 . S
C100 O106 1.268 . S
C100 O116 1.268 . S
C101 O107 1.268 . S
C101 O115 1.268 . S
C102 O108 1.268 . S
C102 O117 1.268 . S
C103 O109 1.268 . S
C103 O113 1.268 . S
C104 O110 1.268 . S
C104 O112 1.268 . S
C105 O111 1.268 . S
C105 O114 1.268 . S
O106 Sc96 2.105 1_655 S
O106 C100 1.268 . S
O107 Sc97 2.105 1_655 S
O107 C101 1.268 . S
O108 Sc98 2.105 1_655 S
O108 C102 1.268 . S
O109 Sc96 2.105 . S
O109 C103 1.268 . S
O110 Sc98 2.105 . S
O110 C104 1.268 . S
O111 Sc97 2.105 . S
O111 C105 1.268 . S
O112 Sc96 2.105 . S
O112 C104 1.268 . S
O113 Sc97 2.105 . S
O113 C103 1.268 . S
O114 Sc98 2.105 . S
O114 C105 1.268 . S
O115 Sc96 2.105 1_655 S
O115 C101 1.268 . S
O116 Sc98 2.105 1_655 S
O116 C100 1.268 . S
O117 Sc97 2.105 1_655 S
O117 C102 1.268 . S
Sc118 O121 2.025 . S
Sc118 O128 2.105 . S
Sc118 O131 2.105 1_455 S
Sc118 O134 2.105 1_455 S
Sc118 O137 2.105 . S
Sc119 O121 2.025 . S
Sc119 O129 2.105 . S
Sc119 O133 2.105 1_455 S
Sc119 O135 2.105 1_455 S
Sc119 O139 2.105 . S
Sc120 O121 2.025 . S
Sc120 O130 2.105 . S
Sc120 O132 2.105 1_455 S
Sc120 O136 2.105 1_455 S
Sc120 O138 2.105 . S
O121 Sc118 2.025 . S
O121 Sc119 2.025 . S
O121 Sc120 2.025 . S
C122 O128 1.268 . S
C122 O138 1.268 . S
C123 O129 1.268 . S
C123 O137 1.268 . S
C124 O130 1.268 . S
C124 O139 1.268 . S
C125 O131 1.268 . S
C125 O135 1.268 . S
C126 O132 1.268 . S
C126 O134 1.268 . S
C127 O133 1.268 . S
C127 O136 1.268 . S
O128 Sc118 2.105 . S
O128 C122 1.268 . S
O129 Sc119 2.105 . S
O129 C123 1.268 . S
O130 Sc120 2.105 . S
O130 C124 1.268 . S
O131 Sc118 2.105 1_655 S
O131 C125 1.268 . S
O132 Sc120 2.105 1_655 S
O132 C126 1.268 . S
O133 Sc119 2.105 1_655 S
O133 C127 1.268 . S
O134 Sc118 2.105 1_655 S
O134 C126 1.268 . S
O135 Sc119 2.105 1_655 S
O135 C125 1.268 . S
O136 Sc120 2.105 1_655 S
O136 C127 1.268 . S
O137 Sc118 2.105 . S
O137 C123 1.268 . S
O138 Sc120 2.105 . S
O138 C122 1.268 . S
O139 Sc119 2.105 . S
O139 C124 1.268 . S
Sc140 O143 2.025 . S
Sc140 O150 2.105 . S
Sc140 O153 2.105 . S
Sc140 O156 2.105 . S
Sc140 O159 2.105 . S
Sc141 O143 2.025 . S
Sc141 O151 2.105 . S
Sc141 O155 2.105 . S
Sc141 O157 2.105 . S
Sc141 O161 2.105 . S
Sc142 O143 2.025 . S
Sc142 O152 2.105 . S
Sc142 O154 2.105 . S
Sc142 O158 2.105 . S
Sc142 O160 2.105 . S
O143 Sc140 2.025 . S
O143 Sc141 2.025 . S
O143 Sc142 2.025 . S
C144 O150 1.268 . S
C144 O160 1.268 . S
C145 O151 1.268 . S
C145 O159 1.268 . S
C146 O152 1.268 . S
C146 O161 1.268 . S
C147 O153 1.268 . S
C147 O157 1.268 . S
C148 O154 1.268 . S
C148 O156 1.268 . S
C149 O155 1.268 . S
C149 O158 1.268 . S
O150 Sc140 2.105 . S
O150 C144 1.268 . S
O151 Sc141 2.105 . S
O151 C145 1.268 . S
O152 Sc142 2.105 . S
O152 C146 1.268 . S
O153 Sc140 2.105 . S
O153 C147 1.268 . S
O154 Sc142 2.105 . S
O154 C148 1.268 . S
O155 Sc141 2.105 . S
O155 C149 1.268 . S
O156 Sc140 2.105 . S
O156 C148 1.268 . S
O157 Sc141 2.105 . S
O157 C147 1.268 . S
O158 Sc142 2.105 . S
O158 C149 1.268 . S
O159 Sc140 2.105 . S
O159 C145 1.268 . S
O160 Sc142 2.105 . S
O160 C144 1.268 . S
O161 Sc141 2.105 . S
O161 C146 1.268 . S
Sc162 O165 2.025 . S
Sc162 O172 2.105 . S
Sc162 O175 2.105 . S
Sc162 O178 2.105 . S
Sc162 O181 2.105 . S
Sc163 O165 2.025 . S
Sc163 O173 2.105 . S
Sc163 O177 2.105 . S
Sc163 O179 2.105 . S
Sc163 O183 2.105 . S
Sc164 O165 2.025 . S
Sc164 O174 2.105 . S
Sc164 O176 2.105 . S
Sc164 O180 2.105 . S
Sc164 O182 2.105 . S
O165 Sc162 2.025 . S
O165 Sc163 2.025 . S
O165 Sc164 2.025 . S
C166 O172 1.268 . S
C166 O182 1.268 . S
C167 O173 1.268 . S
C167 O181 1.268 . S
C168 O174 1.268 . S
C168 O183 1.268 . S
C169 O175 1.268 . S
C169 O179 1.268 . S
C170 O176 1.268 . S
C170 O178 1.268 . S
C171 O177 1.268 . S
C171 O180 1.268 . S
O172 Sc162 2.105 . S
O172 C166 1.268 . S
O173 Sc163 2.105 . S
O173 C167 1.268 . S
O174 Sc164 2.105 . S
O174 C168 1.268 . S
O175 Sc162 2.105 . S
O175 C169 1.268 . S
O176 Sc164 2.105 . S
O176 C170 1.268 . S
O177 Sc163 2.105 . S
O177 C171 1.268 . S
O178 Sc162 2.105 . S
O178 C170 1.268 . S
O179 Sc163 2.105 . S
O179 C169 1.268 . S
O180 Sc164 2.105 . S
O180 C171 1.268 . S
O181 Sc162 2.105 . S
O181 C167 1.268 . S
O182 Sc164 2.105 . S
O182 C166 1.268 . S
O183 Sc163 2.105 . S
O183 C168 1.268 . S
C184 C185 1.369 . S
C184 C186 1.419 . S
C184 H188 0.930 . S
C185 C184 1.369 . S
C185 C194 1.429 . S
C186 C184 1.419 . S
C186 C187 1.363 . S
C186 H189 0.929 . S
C187 C186 1.363 . S
C187 C193 1.428 . S
H188 C184 0.930 . S
H189 C186 0.929 . S
S190 N191 1.613 . S
S190 N192 1.610 . S
N191 S190 1.613 . S
N191 C194 1.350 . S
N192 S190 1.610 . S
N192 C193 1.351 . S
C193 C187 1.428 . S
C193 N192 1.351 . S
C193 C194 1.434 . S
C194 C185 1.429 . S
C194 N191 1.350 . S
C194 C193 1.434 . S
C195 C196 1.369 . S
C195 C197 1.419 . S
C195 H199 0.930 . S
C196 C195 1.369 . S
C196 C205 1.429 . S
C197 C195 1.419 . S
C197 C198 1.363 . S
C197 H200 0.929 . S
C198 C197 1.363 . S
C198 C204 1.428 . S
H199 C195 0.930 . S
H200 C197 0.929 . S
S201 N202 1.613 . S
S201 N203 1.610 . S
N202 S201 1.613 . S
N202 C205 1.350 . S
N203 S201 1.610 . S
N203 C204 1.351 . S
C204 C198 1.428 . S
C204 N203 1.351 . S
C204 C205 1.434 . S
C205 C196 1.429 . S
C205 N202 1.350 . S
C205 C204 1.434 . S
C206 C207 1.369 . S
C206 C208 1.419 . S
C206 H210 0.930 . S
C207 C206 1.369 . S
C207 C216 1.429 . S
C208 C206 1.419 . S
C208 C209 1.363 . S
C208 H211 0.929 . S
C209 C208 1.363 . S
C209 C215 1.428 . S
H210 C206 0.930 . S
H211 C208 0.929 . S
S212 N213 1.613 . S
S212 N214 1.610 1_554 S
N213 S212 1.613 . S
N213 C216 1.350 1_554 S
N214 S212 1.610 1_556 S
N214 C215 1.351 . S
C215 C209 1.428 . S
C215 N214 1.351 . S
C215 C216 1.434 . S
C216 C207 1.429 . S
C216 N213 1.350 1_556 S
C216 C215 1.434 . S
C217 C218 1.369 . S
C217 C219 1.419 . S
C217 H221 0.930 . S
C218 C217 1.369 . S
C218 C227 1.429 . S
C219 C217 1.419 . S
C219 C220 1.363 . S
C219 H222 0.929 . S
C220 C219 1.363 . S
C220 C226 1.428 . S
H221 C217 0.930 . S
H222 C219 0.929 . S
S223 N224 1.613 . S
S223 N225 1.610 . S
N224 S223 1.613 . S
N224 C227 1.350 . S
N225 S223 1.610 . S
N225 C226 1.351 . S
C226 C220 1.428 . S
C226 N225 1.351 . S
C226 C227 1.434 . S
C227 C218 1.429 . S
C227 N224 1.350 . S
C227 C226 1.434 . S
C228 C229 1.369 . S
C228 C230 1.419 . S
C228 H232 0.930 1_556 S
C229 C228 1.369 . S
C229 C238 1.429 . S
C230 C228 1.419 . S
C230 C231 1.363 . S
C230 H233 0.929 . S
C231 C230 1.363 . S
C231 C237 1.428 . S
H232 C228 0.930 1_554 S
H233 C230 0.929 . S
S234 N235 1.613 . S
S234 N236 1.610 . S
N235 S234 1.613 . S
N235 C238 1.350 . S
N236 S234 1.610 . S
N236 C237 1.351 . S
C237 C231 1.428 . S
C237 N236 1.351 . S
C237 C238 1.434 . S
C238 C229 1.429 . S
C238 N235 1.350 . S
C238 C237 1.434 . S
C239 C240 1.369 . S
C239 C241 1.419 . S
C239 H243 0.930 . S
C240 C239 1.369 . S
C240 C249 1.429 . S
C241 C239 1.419 . S
C241 C242 1.363 . S
C241 H244 0.929 . S
C242 C241 1.363 . S
C242 C248 1.428 . S
H243 C239 0.930 . S
H244 C241 0.929 . S
S245 N246 1.613 . S
S245 N247 1.610 . S
N246 S245 1.613 . S
N246 C249 1.350 . S
N247 S245 1.610 . S
N247 C248 1.351 . S
C248 C242 1.428 . S
C248 N247 1.351 . S
C248 C249 1.434 . S
C249 C240 1.429 . S
C249 N246 1.350 . S
C249 C248 1.434 . S
C250 C251 1.369 . S
C250 C252 1.419 . S
C250 H254 0.930 1_556 S
C251 C250 1.369 . S
C251 C260 1.429 . S
C252 C250 1.419 . S
C252 C253 1.363 . S
C252 H255 0.929 . S
C253 C252 1.363 . S
C253 C259 1.428 . S
H254 C250 0.930 1_554 S
H255 C252 0.929 . S
S256 N257 1.613 . S
S256 N258 1.610 . S
N257 S256 1.613 . S
N257 C260 1.350 . S
N258 S256 1.610 . S
N258 C259 1.351 . S
C259 C253 1.428 . S
C259 N258 1.351 . S
C259 C260 1.434 . S
C260 C251 1.429 . S
C260 N257 1.350 . S
C260 C259 1.434 . S
C261 C262 1.369 . S
C261 C263 1.419 . S
C261 H265 0.930 . S
C262 C261 1.369 . S
C262 C271 1.429 . S
C263 C261 1.419 . S
C263 C264 1.363 . S
C263 H266 0.929 . S
C264 C263 1.363 . S
C264 C270 1.428 . S
H265 C261 0.930 . S
H266 C263 0.929 . S
S267 N268 1.613 . S
S267 N269 1.610 . S
N268 S267 1.613 . S
N268 C271 1.350 . S
N269 S267 1.610 . S
N269 C270 1.351 . S
C270 C264 1.428 . S
C270 N269 1.351 . S
C270 C271 1.434 . S
C271 C262 1.429 . S
C271 N268 1.350 . S
C271 C270 1.434 . S
C272 C273 1.369 . S
C272 C274 1.419 . S
C272 H276 0.930 . S
C273 C272 1.369 . S
C273 C282 1.429 . S
C274 C272 1.419 . S
C274 C275 1.363 . S
C274 H277 0.929 . S
C275 C274 1.363 . S
C275 C281 1.428 . S
H276 C272 0.930 . S
H277 C274 0.929 . S
S278 N279 1.613 . S
S278 N280 1.610 . S
N279 S278 1.613 . S
N279 C282 1.350 . S
N280 S278 1.610 . S
N280 C281 1.351 . S
C281 C275 1.428 . S
C281 N280 1.351 . S
C281 C282 1.434 . S
C282 C273 1.429 . S
C282 N279 1.350 . S
C282 C281 1.434 . S
C283 C284 1.369 . S
C283 C285 1.419 . S
C283 H287 0.930 . S
C284 C283 1.369 . S
C284 C293 1.429 . S
C285 C283 1.419 . S
C285 C286 1.363 . S
C285 H288 0.929 . S
C286 C285 1.363 . S
C286 C292 1.428 . S
H287 C283 0.930 . S
H288 C285 0.929 . S
S289 N290 1.613 . S
S289 N291 1.610 . S
N290 S289 1.613 . S
N290 C293 1.350 . S
N291 S289 1.610 . S
N291 C292 1.351 . S
C292 C286 1.428 . S
C292 N291 1.351 . S
C292 C293 1.434 . S
C293 C284 1.429 . S
C293 N290 1.350 . S
C293 C292 1.434 . S
C294 C295 1.369 . S
C294 C296 1.419 . S
C294 H298 0.930 . S
C295 C294 1.369 . S
C295 C304 1.429 . S
C296 C294 1.419 . S
C296 C297 1.363 . S
C296 H299 0.929 . S
C297 C296 1.363 . S
C297 C303 1.428 . S
H298 C294 0.930 . S
H299 C296 0.929 . S
S300 N301 1.613 . S
S300 N302 1.610 . S
N301 S300 1.613 . S
N301 C304 1.350 . S
N302 S300 1.610 . S
N302 C303 1.351 . S
C303 C297 1.428 . S
C303 N302 1.351 . S
C303 C304 1.434 . S
C304 C295 1.429 . S
C304 N301 1.350 . S
C304 C303 1.434 . S
C305 C306 1.369 . S
C305 C307 1.419 . S
C305 H309 0.930 . S
C306 C305 1.369 . S
C306 C315 1.429 . S
C307 C305 1.419 . S
C307 C308 1.363 . S
C307 H310 0.929 . S
C308 C307 1.363 . S
C308 C314 1.428 . S
H309 C305 0.930 . S
H310 C307 0.929 . S
S311 N312 1.613 . S
S311 N313 1.610 . S
N312 S311 1.613 . S
N312 C315 1.350 . S
N313 S311 1.610 . S
N313 C314 1.351 . S
C314 C308 1.428 . S
C314 N313 1.351 . S
C314 C315 1.434 . S
C315 C306 1.429 . S
C315 N312 1.350 . S
C315 C314 1.434 . S
C316 C317 1.369 . S
C316 C318 1.419 . S
C316 H320 0.930 . S
C317 C316 1.369 . S
C317 C326 1.429 1_565 S
C318 C316 1.419 . S
C318 C319 1.363 1_565 S
C318 H321 0.929 . S
C319 C318 1.363 1_545 S
C319 C325 1.428 . S
H320 C316 0.930 . S
H321 C318 0.929 . S
S322 N323 1.613 . S
S322 N324 1.610 1_554 S
N323 S322 1.613 . S
N323 C326 1.350 1_554 S
N324 S322 1.610 1_556 S
N324 C325 1.351 . S
C325 C319 1.428 . S
C325 N324 1.351 . S
C325 C326 1.434 . S
C326 C317 1.429 1_545 S
C326 N323 1.350 1_556 S
C326 C325 1.434 . S
C327 C328 1.369 . S
C327 C329 1.419 . S
C327 H331 0.930 . S
C328 C327 1.369 . S
C328 C337 1.429 . S
C329 C327 1.419 . S
C329 C330 1.363 1_545 S
C329 H332 0.929 . S
C330 C329 1.363 1_565 S
C330 C336 1.428 . S
H331 C327 0.930 . S
H332 C329 0.929 . S
S333 N334 1.613 1_565 S
S333 N335 1.610 . S
N334 S333 1.613 1_545 S
N334 C337 1.350 . S
N335 S333 1.610 . S
N335 C336 1.351 . S
C336 C330 1.428 . S
C336 N335 1.351 . S
C336 C337 1.434 1_565 S
C337 C328 1.429 . S
C337 N334 1.350 . S
C337 C336 1.434 1_545 S
C338 C339 1.369 . S
C338 C340 1.419 . S
C338 H342 0.930 . S
C339 C338 1.369 . S
C339 C348 1.429 1_565 S
C340 C338 1.419 . S
C340 C341 1.363 1_565 S
C340 H343 0.929 . S
C341 C340 1.363 1_545 S
C341 C347 1.428 . S
H342 C338 0.930 . S
H343 C340 0.929 . S
S344 N345 1.613 . S
S344 N346 1.610 . S
N345 S344 1.613 . S
N345 C348 1.350 . S
N346 S344 1.610 . S
N346 C347 1.351 . S
C347 C341 1.428 . S
C347 N346 1.351 . S
C347 C348 1.434 . S
C348 C339 1.429 1_545 S
C348 N345 1.350 . S
C348 C347 1.434 . S
C349 C350 1.369 . S
C349 C351 1.409 1_545 S
C349 H353 0.930 . S
C350 C349 1.369 . S
C350 C359 1.429 . S
C351 C349 1.409 1_565 S
C351 C352 1.371 . S
C351 H354 0.932 . S
C352 C351 1.371 . S
C352 C358 1.428 . S
H353 C349 0.930 . S
H354 C351 0.932 . S
S355 N356 1.613 1_565 S
S355 N357 1.610 . S
N356 S355 1.613 1_545 S
N356 C359 1.350 . S
N357 S355 1.610 . S
N357 C358 1.351 . S
C358 C352 1.428 . S
C358 N357 1.351 . S
C358 C359 1.434 1_565 S
C359 C350 1.429 . S
C359 N356 1.350 . S
C359 C358 1.434 1_545 S
C360 C361 1.369 . S
C360 C362 1.419 . S
C360 H364 0.930 . S
C361 C360 1.369 . S
C361 C370 1.429 . S
C362 C360 1.419 . S
C362 C363 1.363 . S
C362 H365 0.929 . S
C363 C362 1.363 . S
C363 C369 1.428 . S
H364 C360 0.930 . S
H365 C362 0.929 . S
S366 N367 1.613 . S
S366 N368 1.610 . S
N367 S366 1.613 . S
N367 C370 1.350 . S
N368 S366 1.610 . S
N368 C369 1.351 . S
C369 C363 1.428 . S
C369 N368 1.351 . S
C369 C370 1.434 . S
C370 C361 1.429 . S
C370 N367 1.350 . S
C370 C369 1.434 . S
C371 C372 1.369 . S
C371 C373 1.419 . S
C371 H375 0.930 . S
C372 C371 1.369 . S
C372 C381 1.429 . S
C373 C371 1.419 . S
C373 C374 1.363 . S
C373 H376 0.929 . S
C374 C373 1.363 . S
C374 C380 1.428 . S
H375 C371 0.930 . S
H376 C373 0.929 . S
S377 N378 1.613 . S
S377 N379 1.610 . S
N378 S377 1.613 . S
N378 C381 1.350 . S
N379 S377 1.610 . S
N379 C380 1.351 . S
C380 C374 1.428 . S
C380 N379 1.351 . S
C380 C381 1.434 . S
C381 C372 1.429 . S
C381 N378 1.350 . S
C381 C380 1.434 . S
C382 C383 1.369 . S
C382 C384 1.419 . S
C382 H386 0.930 . S
C383 C382 1.369 . S
C383 C392 1.429 . S
C384 C382 1.419 . S
C384 C385 1.363 . S
C384 H387 0.929 . S
C385 C384 1.363 . S
C385 C391 1.428 . S
H386 C382 0.930 . S
H387 C384 0.929 . S
S388 N389 1.613 . S
S388 N390 1.610 . S
N389 S388 1.613 . S
N389 C392 1.350 . S
N390 S388 1.610 . S
N390 C391 1.351 . S
C391 C385 1.428 . S
C391 N390 1.351 . S
C391 C392 1.434 . S
C392 C383 1.429 . S
C392 N389 1.350 . S
C392 C391 1.434 . S
C393 C394 1.369 . S
C393 C395 1.419 . S
C393 H397 0.930 . S
C394 C393 1.369 . S
C394 C403 1.429 . S
C395 C393 1.419 . S
C395 C396 1.363 . S
C395 H398 0.929 . S
C396 C395 1.363 . S
C396 C402 1.428 . S
H397 C393 0.930 . S
H398 C395 0.929 . S
S399 N400 1.613 . S
S399 N401 1.610 . S
N400 S399 1.613 . S
N400 C403 1.350 . S
N401 S399 1.610 . S
N401 C402 1.351 . S
C402 C396 1.428 . S
C402 N401 1.351 . S
C402 C403 1.434 . S
C403 C394 1.429 . S
C403 N400 1.350 . S
C403 C402 1.434 . S
C404 C405 1.369 . S
C404 C406 1.419 . S
C404 H408 0.930 . S
C405 C404 1.369 . S
C405 C414 1.429 . S
C406 C404 1.419 . S
C406 C407 1.363 . S
C406 H409 0.929 . S
C407 C406 1.363 . S
C407 C413 1.428 . S
H408 C404 0.930 . S
H409 C406 0.929 . S
S410 N411 1.613 . S
S410 N412 1.610 . S
N411 S410 1.613 . S
N411 C414 1.350 . S
N412 S410 1.610 . S
N412 C413 1.351 . S
C413 C407 1.428 . S
C413 N412 1.351 . S
C413 C414 1.434 . S
C414 C405 1.429 . S
C414 N411 1.350 . S
C414 C413 1.434 . S
C415 C416 1.369 . S
C415 C417 1.419 . S
C415 H419 0.930 . S
C416 C415 1.369 . S
C416 C425 1.429 . S
C417 C415 1.419 . S
C417 C418 1.363 . S
C417 H420 0.929 . S
C418 C417 1.363 . S
C418 C424 1.428 . S
H419 C415 0.930 . S
H420 C417 0.929 . S
S421 N422 1.613 . S
S421 N423 1.610 . S
N422 S421 1.613 . S
N422 C425 1.350 . S
N423 S421 1.610 . S
N423 C424 1.351 . S
C424 C418 1.428 . S
C424 N423 1.351 . S
C424 C425 1.434 . S
C425 C416 1.429 . S
C425 N422 1.350 . S
C425 C424 1.434 . S
C426 C427 1.369 . S
C426 C428 1.419 . S
C426 H430 0.930 . S
C427 C426 1.369 . S
C427 C436 1.429 . S
C428 C426 1.419 . S
C428 C429 1.363 . S
C428 H431 0.929 . S
C429 C428 1.363 . S
C429 C435 1.428 . S
H430 C426 0.930 . S
H431 C428 0.929 . S
S432 N433 1.613 . S
S432 N434 1.610 . S
N433 S432 1.613 . S
N433 C436 1.350 . S
N434 S432 1.610 . S
N434 C435 1.351 . S
C435 C429 1.428 . S
C435 N434 1.351 . S
C435 C436 1.434 . S
C436 C427 1.429 . S
C436 N433 1.350 . S
C436 C435 1.434 . S
C437 C438 1.369 . S
C437 C439 1.419 . S
C437 H441 0.930 . S
C438 C437 1.369 . S
C438 C447 1.429 . S
C439 C437 1.419 . S
C439 C440 1.363 . S
C439 H442 0.929 . S
C440 C439 1.363 . S
C440 C446 1.428 . S
H441 C437 0.930 . S
H442 C439 0.929 . S
S443 N444 1.613 . S
S443 N445 1.610 . S
N444 S443 1.613 . S
N444 C447 1.350 . S
N445 S443 1.610 . S
N445 C446 1.351 . S
C446 C440 1.428 . S
C446 N445 1.351 . S
C446 C447 1.434 . S
C447 C438 1.429 . S
C447 N444 1.350 . S
C447 C446 1.434 . S
C185 C4 1.535 . S
C187 C122 1.516 . S
C198 C100 1.517 . S
C196 C16 1.536 . S
C209 C126 1.512 . S
C207 C28 1.531 . S
C220 C104 1.516 . S
C218 C40 1.526 . S
C231 C166 1.514 . S
C229 C52 1.536 . S
C242 C144 1.517 . S
C240 C64 1.536 . S
C251 C76 1.525 . S
C253 C170 1.515 . S
C264 C148 1.517 . S
C262 C88 1.524 . S
C273 C9 1.501 . S
C275 C171 1.529 . S
C286 C149 1.526 . S
C284 C21 1.493 . S
C295 C33 1.505 . S
C297 C168 1.527 . S
C306 C45 1.502 . S
C308 C146 1.526 . S
C319 C127 1.528 . S
C317 C57 1.500 . S
C328 C69 1.496 . S
C330 C105 1.526 . S
C341 C124 1.529 . S
C339 C81 1.507 . S
C352 C102 1.529 . S
C350 C93 1.510 . S
C363 C145 1.488 . S
C361 C6 1.483 . S
C374 C167 1.485 . S
C372 C18 1.477 . S
C383 C30 1.493 . S
C385 C147 1.484 . S
C396 C169 1.488 . S
C394 C42 1.496 . S
C407 C101 1.487 . S
C405 C54 1.483 . S
C416 C66 1.483 . S
C418 C123 1.488 . S
C427 C78 1.496 . S
C429 C103 1.487 . S
C438 C90 1.496 . S
C440 C125 1.488 . S
