# Generated by pormake.
# Topology zzz, (3,6)-cn, num edge types: 1
# Building blocks:
#     Node 0, Type 0, BuildingBlock: PAMTOO_clean_linker_0, # of connection points: 3
#     Node 1, Type 0, BuildingBlock: PAMTOO_clean_linker_0, # of connection points: 3
#     Node 2, Type 0, BuildingBlock: PAMTOO_clean_linker_0, # of connection points: 3
#     Node 3, Type 0, BuildingBlock: PAMTOO_clean_linker_0, # of connection points: 3
#     Node 4, Type 0, BuildingBlock: PAMTOO_clean_linker_0, # of connection points: 3
#     Node 5, Type 0, BuildingBlock: PAMTOO_clean_linker_0, # of connection points: 3
#     Node 6, Type 0, BuildingBlock: PAMTOO_clean_linker_0, # of connection points: 3
#     Node 7, Type 0, BuildingBlock: PAMTOO_clean_linker_0, # of connection points: 3
#     Node 8, Type 1, BuildingBlock: BETFEN_clean_sbu_0, # of connection points: 6
#     Node 9, Type 1, BuildingBlock: BETFEN_clean_sbu_0, # of connection points: 6
#     Node 10, Type 1, BuildingBlock: BETFEN_clean_sbu_0, # of connection points: 6
#     Node 11, Type 1, BuildingBlock: BETFEN_clean_sbu_0, # of connection points: 6
#     Edge 12, Type (0, 1), None
#     Edge 13, Type (0, 1), None
#     Edge 14, Type (0, 1), None
#     Edge 15, Type (0, 1), None
#     Edge 16, Type (0, 1), None
#     Edge 17, Type (0, 1), None
#     Edge 18, Type (0, 1), None
#     Edge 19, Type (0, 1), None
#     Edge 20, Type (0, 1), None
#     Edge 21, Type (0, 1), None
#     Edge 22, Type (0, 1), None
#     Edge 23, Type (0, 1), None
#     Edge 24, Type (0, 1), None
#     Edge 25, Type (0, 1), None
#     Edge 26, Type (0, 1), None
#     Edge 27, Type (0, 1), None
#     Edge 28, Type (0, 1), None
#     Edge 29, Type (0, 1), None
#     Edge 30, Type (0, 1), None
#     Edge 31, Type (0, 1), None
#     Edge 32, Type (0, 1), None
#     Edge 33, Type (0, 1), None
#     Edge 34, Type (0, 1), None
#     Edge 35, Type (0, 1), None
# Relax obj value: 0.661
# Max RMSD: 0.258
# Mean RMSD: 0.148
data_MOF--net-zzz--node1-BETFEN_clean_sbu_0--node2-PAMTOO_clean_linker_0--edge1-none
_symmetry_space_group_name_H-M    P1
_symmetry_Int_Tables_number       1
_symmetry_cell_setting            triclinic
loop_
_symmetry_equiv_pos_as_xyz
'x, y, z'
_cell_length_a     22.380053
_cell_length_b     22.525352
_cell_length_c     7.007979
_cell_angle_alpha  88.362351
_cell_angle_beta   90.733237
_cell_angle_gamma 89.906127
loop_
_atom_site_label
_atom_site_type_symbol
_atom_site_fract_x
_atom_site_fract_y
_atom_site_fract_z
_atom_type_partial_charge
H0 H 0.93072 0.49068 0.46076 0.0
H1 H 0.76638 0.53086 0.16535 0.0
H2 H 0.83879 0.65516 0.56487 0.0
H3 H 0.66988 0.66652 0.37343 0.0
C4 C 0.68759 0.62402 0.32203 0.0
O5 O 0.74919 0.63324 0.29165 0.0
H6 H 0.68146 0.58975 0.43579 0.0
C7 C 0.89283 0.52034 0.43903 0.0
C8 C 0.89153 0.57345 0.53787 0.0
C9 C 0.84803 0.50531 0.30699 0.0
C10 C 0.80012 0.54302 0.26914 0.0
C11 C 0.79508 0.59679 0.35843 0.0
C12 C 0.84137 0.61293 0.49569 0.0
H13 H 0.09272 0.8907 0.4561 0.0
H14 H 0.10993 0.74847 0.18778 0.0
H15 H 0.99571 0.81705 0.62493 0.0
H16 H 0.98428 0.71946 0.14666 0.0
C17 C 0.996 0.68828 0.26736 0.0
O18 O 1.02614 0.71934 0.41198 0.0
H19 H 0.95266 0.67201 0.3227 0.0
C20 C 0.11894 0.88632 0.37235 0.0
C21 C 0.06688 0.8828 0.51859 0.0
C22 C 0.13019 0.83686 0.26198 0.0
C23 C 0.0966 0.7849 0.27474 0.0
C24 C 1.04847 0.77653 0.39845 0.0
C25 C 1.03146 0.82374 0.52422 0.0
H26 H 0.73091 0.09373 0.45873 0.0
H27 H 0.86195 0.09993 0.12159 0.0
H28 H 0.7895 0.97738 0.54482 0.0
H29 H 0.95274 0.95863 0.36922 0.0
C30 C 0.93858 1.00202 0.30536 0.0
O31 O 0.87658 0.99787 0.26941 0.0
H32 H 0.94713 1.03676 0.41006 0.0
C33 C 0.73698 0.123 0.38401 0.0
C34 C 0.73604 0.06401 0.50644 0.0
C35 C 0.78352 0.13209 0.25457 0.0
C36 C 0.82887 0.09044 0.22963 0.0
C37 C 0.83293 1.03613 0.33077 0.0
C38 C 0.78794 1.02018 0.47087 0.0
H39 H 0.47754 0.69579 0.45653 0.0
H40 H 0.5199 0.85642 0.14414 0.0
H41 H 0.64512 0.78361 0.56242 0.0
H42 H 0.66239 0.94702 0.37386 0.0
C43 C 0.61882 0.93281 0.31409 0.0
O44 O 0.62406 0.87154 0.28334 0.0
H45 H 0.58399 0.94088 0.42064 0.0
C46 C 0.50752 0.73293 0.4335 0.0
C47 C 0.56148 0.73374 0.5365 0.0
C48 C 0.49252 0.77699 0.29398 0.0
C49 C 0.53127 0.82377 0.25531 0.0
C50 C 0.58586 0.82794 0.35044 0.0
C51 C 0.60177 0.78228 0.49251 0.0
H52 H 0.19421 0.63612 0.33536 0.0
H53 H 0.35832 0.59573 0.6336 0.0
H54 H 0.28713 0.47284 0.22759 0.0
H55 H 0.45407 0.45854 0.40589 0.0
C56 C 0.43774 0.50124 0.46013 0.0
O57 O 0.37637 0.49386 0.49648 0.0
H58 H 0.44392 0.53595 0.34787 0.0
C59 C 0.23176 0.60642 0.35923 0.0
C60 C 0.23333 0.55327 0.2602 0.0
C61 C 0.27649 0.62151 0.49266 0.0
C62 C 0.32492 0.58402 0.52813 0.0
C63 C 0.33059 0.53092 0.43391 0.0
C64 C 0.28426 0.51485 0.29806 0.0
H65 H 1.03382 0.22239 0.25651 0.0
H66 H 1.01994 0.34239 0.59998 0.0
H67 H 0.13763 0.29532 0.1335 0.0
H68 H 0.09608 0.39249 0.67482 0.0
C69 C 0.09135 0.4219 0.54551 0.0
O70 O 0.11211 0.3848 0.39825 0.0
H71 H 1.0434 0.43143 0.51313 0.0
C72 C 1.00553 0.22342 0.33301 0.0
C73 C 1.06092 0.22982 0.20137 0.0
C74 C 0.9966 0.26626 0.4678 0.0
C75 C 1.03408 0.31448 0.48722 0.0
C76 C 0.08323 0.32975 0.36811 0.0
C77 C 0.09942 0.28731 0.22353 0.0
H78 H 0.39244 1.01958 0.26637 0.0
H79 H 0.26104 1.01492 0.60215 0.0
H80 H 0.33615 0.13742 0.18468 0.0
H81 H 0.17821 0.07798 0.31383 0.0
C82 C 0.18664 0.11233 0.42032 0.0
O83 O 0.2484 0.11725 0.45606 0.0
H84 H 0.17212 0.156 0.35961 0.0
C85 C 0.38557 0.99021 0.34007 0.0
C86 C 0.38774 1.04982 0.22041 0.0
C87 C 0.33897 0.98179 0.46968 0.0
C88 C 0.29437 1.02407 0.49463 0.0
C89 C 0.29158 0.07865 0.39539 0.0
C90 C 0.33683 0.09432 0.25684 0.0
H91 H 0.64347 0.42287 0.31983 0.0
H92 H 0.60079 0.25732 0.60231 0.0
H93 H 0.47809 0.33488 0.1847 0.0
H94 H 0.46054 0.16727 0.35961 0.0
C95 C 0.50365 0.18238 0.42051 0.0
O96 O 0.49757 0.24352 0.45326 0.0
H97 H 0.53875 0.17542 0.31416 0.0
C98 C 0.61384 0.38501 0.33381 0.0
C99 C 0.56078 0.38523 0.22659 0.0
C100 C 0.6283 0.339 0.46666 0.0
C101 C 0.58988 0.29133 0.49514 0.0
C102 C 0.53612 0.28797 0.39469 0.0
C103 C 0.52084 0.33555 0.25848 0.0
Pr104 Pr 0.10898 1.0419 0.93344 0.0
Pr105 Pr 1.01704 0.07045 0.79053 0.0
C106 C 0.21209 0.99018 0.04833 0.0
C107 C 0.23814 0.93587 0.97307 0.0
C108 C 0.1993 0.90471 0.85402 0.0
C109 C 0.16621 0.85879 0.94003 0.0
C110 C 0.18006 0.84161 0.12922 0.0
C111 C 0.23663 0.85673 0.2024 0.0
C112 C 0.2683 0.90207 0.11159 0.0
C113 C 0.14731 0.09916 0.59672 0.0
C114 C 1.04948 0.93909 0.66081 0.0
C115 C 0.91245 0.11907 0.67726 0.0
C116 C 0.883 0.17154 0.75456 0.0
C117 C 0.92006 0.20447 0.87491 0.0
C118 C 0.95356 0.24999 0.78789 0.0
C119 C 0.94424 0.26118 0.59121 0.0
C120 C 0.88889 0.24553 0.51089 0.0
C121 C 0.85415 0.20465 0.61143 0.0
C122 C 0.97846 1.01457 0.12878 0.0
C123 C 0.079 0.1753 0.05371 0.0
O124 O 0.16184 0.98273 0.13881 0.0
O125 O 0.21039 1.0357 0.93188 0.0
O126 O 0.10387 0.06198 0.60357 0.0
O127 O 0.1613 0.11675 0.76527 0.0
O128 O 1.03114 0.9897 0.58482 0.0
O129 O 0.07561 0.94514 0.82852 0.0
O130 O 0.96282 0.1295 0.59005 0.0
O131 O 0.91533 0.07245 0.78895 0.0
O132 O 1.02206 1.05164 0.12066 0.0
O133 O 0.96577 0.99515 0.96132 0.0
O134 O 0.0995 0.12537 0.12848 0.0
O135 O 1.04874 0.16796 0.89348 0.0
H136 H 0.183 0.92544 0.72223 0.0
H137 H 0.12503 0.84436 0.87361 0.0
H138 H 0.25103 0.84313 0.34361 0.0
H139 H 0.30669 0.92031 0.18014 0.0
H140 H 0.9349 0.18562 1.01114 0.0
H141 H 0.9926 0.26696 0.86069 0.0
H142 H 0.87754 0.25615 0.36369 0.0
H143 H 0.81445 0.1876 0.5491 0.0
Pr144 Pr 0.57565 0.10379 0.93676 0.0
Pr145 Pr 0.54815 1.0108 0.79556 0.0
C146 C 0.62435 0.20575 0.0531 0.0
C147 C 0.67729 0.23591 0.97711 0.0
C148 C 0.71068 0.20149 0.85398 0.0
C149 C 0.75947 0.17077 0.9348 0.0
C150 C 0.77736 0.18346 0.12219 0.0
C151 C 0.75906 0.23792 0.19616 0.0
C152 C 0.7093 0.26603 0.11453 0.0
C153 C 0.5176 0.14262 0.59976 0.0
C154 C 0.68018 1.04637 0.65618 0.0
C155 C 0.49725 0.90903 0.68691 0.0
C156 C 0.44395 0.88018 0.76695 0.0
C157 C 0.41022 0.91661 0.88269 0.0
C158 C 0.36212 0.94677 0.79501 0.0
C159 C 0.34549 0.93203 0.6079 0.0
C160 C 0.36402 0.87673 0.54177 0.0
C161 C 0.41196 0.84844 0.63393 0.0
C162 C 0.60613 0.97271 0.13419 0.0
C163 C 0.44398 0.0681 0.07404 0.0
O164 O 0.63489 0.1542 0.13765 0.0
O165 O 0.5782 0.20462 0.94013 0.0
O166 O 0.55564 0.09983 0.6083 0.0
O167 O 0.49916 0.15514 0.7679 0.0
O168 O 0.63091 1.02307 0.58958 0.0
O169 O 0.67288 0.07576 0.81478 0.0
O170 O 0.48759 0.96016 0.59851 0.0
O171 O 0.54386 0.90997 0.79795 0.0
O172 O 0.56762 1.015 0.1236 0.0
O173 O 0.62445 0.95958 0.96636 0.0
O174 O 0.49342 0.09015 0.14369 0.0
O175 O 0.45108 1.04033 0.91261 0.0
H176 H 0.69002 0.18502 0.72549 0.0
H177 H 0.77429 0.13057 0.86861 0.0
H178 H 0.77323 0.25166 0.33545 0.0
H179 H 0.68775 0.30059 0.1891 0.0
H180 H 0.43014 0.93389 1.01093 0.0
H181 H 0.34645 0.98742 0.85658 0.0
H182 H 0.35099 0.86171 0.40297 0.0
H183 H 0.43277 0.8114 0.57136 0.0
Pr184 Pr 0.51615 0.57396 0.9623 0.0
Pr185 Pr 0.60956 0.54775 0.82034 0.0
C186 C 0.41327 0.6222 0.07751 0.0
C187 C 0.38288 0.67643 1.0071 0.0
C188 C 0.41795 0.71253 0.88833 0.0
C189 C 0.45118 0.7568 0.97636 0.0
C190 C 0.44023 0.76818 0.16911 0.0
C191 C 0.38611 0.74799 0.24779 0.0
C192 C 0.35415 0.70479 0.15222 0.0
C193 C 0.47724 0.51622 0.6354 0.0
C194 C 0.57313 0.67971 0.67137 0.0
C195 C 0.71123 0.49649 0.70598 0.0
C196 C 0.73668 0.43855 0.76116 0.0
C197 C 0.7001 0.40296 0.87641 0.0
C198 C 0.66694 0.3592 0.78627 0.0
C199 C 0.67954 0.34675 0.59569 0.0
C200 C 0.73399 0.36651 0.51949 0.0
C201 C 0.76435 0.41147 0.61138 0.0
C202 C 0.64857 0.60781 0.14525 0.0
C203 C 0.54986 0.44109 0.09978 0.0
O204 O 0.46472 0.63047 0.16338 0.0
O205 O 0.41477 0.57881 0.96091 0.0
O206 O 0.51991 0.55434 0.6363 0.0
O207 O 0.46489 0.49786 0.80664 0.0
O208 O 0.59927 0.63196 0.61059 0.0
O209 O 0.54181 0.67114 0.82803 0.0
O210 O 0.66094 0.49438 0.60942 0.0
O211 O 0.71005 0.53523 0.83834 0.0
O212 O 0.60619 0.56918 0.14549 0.0
O213 O 0.6615 0.62453 0.97263 0.0
O214 O 0.52741 0.48938 0.16987 0.0
O215 O 0.5794 0.45009 0.93995 0.0
H216 H 0.43236 0.69616 0.75318 0.0
H217 H 0.49099 0.77346 0.90706 0.0
H218 H 0.37409 0.75644 0.39294 0.0
H219 H 0.31856 0.68198 0.22151 0.0
H220 H 0.68524 0.41922 1.0112 0.0
H221 H 0.6263 0.34324 0.85242 0.0
H222 H 0.74639 0.35726 0.37494 0.0
H223 H 0.79713 0.4362 0.53599 0.0
Pr224 Pr 1.0494 0.51203 0.94896 0.0
Pr225 Pr 0.0814 0.60763 0.83072 0.0
C226 C 0.99698 0.40529 0.02242 0.0
C227 C 0.93472 0.38541 1.00812 0.0
C228 C 0.89638 0.4222 0.89809 0.0
C229 C 0.85768 0.45877 0.99537 0.0
C230 C 0.85476 0.45191 0.19482 0.0
C231 C 0.8766 0.39909 0.28227 0.0
C232 C 0.91278 0.36268 0.17782 0.0
C233 C 0.11576 0.482 0.62083 0.0
C234 C 0.94419 0.58088 0.67958 0.0
C235 C 0.12458 0.71238 0.71148 0.0
C236 C 0.18153 0.73815 0.77364 0.0
C237 C 0.21571 0.70003 0.89285 0.0
C238 C 0.25825 0.66462 0.80556 0.0
C239 C 0.26851 0.674 0.60966 0.0
C240 C 0.25059 0.72855 0.52405 0.0
C241 C 0.21149 0.76448 0.62218 0.0
C242 C 1.03072 0.63517 0.18414 0.0
C243 C 0.18035 0.54272 0.1228 0.0
O244 O 1.01033 0.44267 0.15644 0.0
O245 O 1.01874 0.42218 0.86187 0.0
O246 O 0.07715 0.52395 0.63065 0.0
O247 O 0.13695 0.47738 0.79404 0.0
O248 O 0.99008 0.61588 0.64372 0.0
O249 O 0.95433 0.53811 0.80806 0.0
O250 O 0.12981 0.66409 0.61373 0.0
O251 O 0.08276 0.70854 0.83747 0.0
O252 O 1.00714 0.6017 0.05948 0.0
O253 O 0.08685 0.64039 0.14784 0.0
O254 O 0.12933 0.51952 0.18099 0.0
O255 O 0.17635 0.57323 0.95957 0.0
H256 H 0.90711 0.43381 0.75189 0.0
H257 H 0.83927 0.49761 0.92116 0.0
H258 H 0.87523 0.39077 0.43469 0.0
H259 H 0.93747 0.3288 0.24995 0.0
H260 H 0.19912 0.68645 0.03137 0.0
H261 H 0.27468 0.62502 0.88024 0.0
H262 H 0.25833 0.7391 0.37564 0.0
H263 H 0.19171 0.80267 0.5531 0.0
loop_
_geom_bond_atom_site_label_1
_geom_bond_atom_site_label_2
_geom_bond_distance
_geom_bond_site_symmetry_2
_ccdc_geom_bond_type
H0 C7 0.929 . S
H1 C10 0.930 . S
H2 C12 0.929 . S
H3 C4 0.969 . S
C4 H3 0.969 . S
C4 O5 1.550 . S
C4 H6 0.973 . S
O5 C4 1.550 . S
O5 C11 1.412 . S
H6 C4 0.973 . S
C7 H0 0.929 . S
C7 C8 1.400 . S
C7 C9 1.364 . S
C8 C7 1.400 . S
C8 C12 1.377 . S
C9 C7 1.364 . S
C9 C10 1.374 . S
C10 H1 0.930 . S
C10 C9 1.374 . S
C10 C11 1.383 . S
C11 O5 1.412 . S
C11 C10 1.383 . S
C11 C12 1.394 . S
C12 H2 0.929 . S
C12 C8 1.377 . S
C12 C11 1.394 . S
H13 C20 0.928 1_655 S
H14 C23 0.931 . S
H15 C25 0.929 1_655 S
H16 C17 0.969 . S
C17 H16 0.969 . S
C17 O18 1.550 1_455 S
C17 H19 0.973 1_455 S
O18 C17 1.550 1_655 S
O18 C24 1.412 1_655 S
H19 C17 0.973 1_655 S
C20 H13 0.928 1_455 S
C20 C21 1.399 . S
C20 C22 1.364 . S
C21 C20 1.399 . S
C21 C25 1.377 . S
C22 C20 1.364 . S
C22 C23 1.374 1_455 S
C23 H14 0.931 . S
C23 C22 1.374 1_655 S
C23 C24 1.383 1_655 S
C24 O18 1.412 1_455 S
C24 C23 1.383 1_455 S
C24 C25 1.394 . S
C25 H15 0.929 1_455 S
C25 C21 1.377 . S
C25 C24 1.394 . S
H26 C33 0.928 1_565 S
H27 C36 0.931 . S
H28 C38 0.929 1_565 S
H29 C30 0.969 . S
C30 H29 0.969 . S
C30 O31 1.550 1_545 S
C30 H32 0.973 1_545 S
O31 C30 1.550 1_565 S
O31 C37 1.412 1_565 S
H32 C30 0.973 1_565 S
C33 H26 0.928 1_545 S
C33 C34 1.399 . S
C33 C35 1.364 . S
C34 C33 1.399 . S
C34 C38 1.377 . S
C35 C33 1.364 . S
C35 C36 1.374 1_545 S
C36 H27 0.931 . S
C36 C35 1.374 1_565 S
C36 C37 1.383 1_565 S
C37 O31 1.412 1_545 S
C37 C36 1.383 1_545 S
C37 C38 1.394 . S
C38 H28 0.929 1_545 S
C38 C34 1.377 . S
C38 C37 1.394 . S
H39 C46 0.929 . S
H40 C49 0.930 . S
H41 C51 0.929 . S
H42 C43 0.969 . S
C43 H42 0.969 . S
C43 O44 1.550 . S
C43 H45 0.973 . S
O44 C43 1.550 . S
O44 C50 1.412 . S
H45 C43 0.973 . S
C46 H39 0.929 . S
C46 C47 1.400 . S
C46 C48 1.364 . S
C47 C46 1.400 . S
C47 C51 1.377 . S
C48 C46 1.364 . S
C48 C49 1.374 . S
C49 H40 0.930 . S
C49 C48 1.374 . S
C49 C50 1.383 . S
C50 O44 1.412 . S
C50 C49 1.383 . S
C50 C51 1.394 . S
C51 H41 0.929 . S
C51 C47 1.377 . S
C51 C50 1.394 . S
H52 C59 0.929 . S
H53 C62 0.930 . S
H54 C64 0.929 . S
H55 C56 0.969 . S
C56 H55 0.969 . S
C56 O57 1.550 . S
C56 H58 0.973 . S
O57 C56 1.550 . S
O57 C63 1.412 . S
H58 C56 0.973 . S
C59 H52 0.929 . S
C59 C60 1.400 . S
C59 C61 1.364 1_556 S
C60 C59 1.400 . S
C60 C64 1.377 . S
C61 C59 1.364 1_554 S
C61 C62 1.374 . S
C62 H53 0.930 . S
C62 C61 1.374 . S
C62 C63 1.383 . S
C63 O57 1.412 . S
C63 C62 1.383 . S
C63 C64 1.394 1_554 S
C64 H54 0.929 . S
C64 C60 1.377 . S
C64 C63 1.394 1_556 S
H65 C72 0.928 1_656 S
H66 C75 0.931 . S
H67 C77 0.928 1_655 S
H68 C69 0.969 . S
C69 H68 0.969 . S
C69 O70 1.550 1_455 S
C69 H71 0.973 1_455 S
O70 C69 1.550 1_655 S
O70 C76 1.412 1_655 S
H71 C69 0.973 1_655 S
C72 H65 0.928 1_454 S
C72 C73 1.400 1_554 S
C72 C74 1.364 . S
C73 C72 1.400 1_556 S
C73 C77 1.377 . S
C74 C72 1.364 . S
C74 C75 1.374 1_455 S
C75 H66 0.931 . S
C75 C74 1.374 1_655 S
C75 C76 1.383 1_655 S
C76 O70 1.412 1_455 S
C76 C75 1.383 1_455 S
C76 C77 1.395 1_554 S
C77 H67 0.928 1_455 S
C77 C73 1.377 . S
C77 C76 1.395 1_556 S
H78 C85 0.928 1_565 S
H79 C88 0.931 . S
H80 C90 0.928 1_565 S
H81 C82 0.969 . S
C82 H81 0.969 . S
C82 O83 1.550 1_545 S
C82 H84 0.973 1_545 S
O83 C82 1.550 1_565 S
O83 C89 1.412 1_565 S
H84 C82 0.973 1_565 S
C85 H78 0.928 1_545 S
C85 C86 1.400 . S
C85 C87 1.364 1_556 S
C86 C85 1.400 . S
C86 C90 1.377 . S
C87 C85 1.364 1_554 S
C87 C88 1.374 1_545 S
C88 H79 0.931 . S
C88 C87 1.374 1_565 S
C88 C89 1.383 1_565 S
C89 O83 1.412 1_545 S
C89 C88 1.383 1_545 S
C89 C90 1.395 1_554 S
C90 H80 0.928 1_545 S
C90 C86 1.377 . S
C90 C89 1.395 1_556 S
H91 C98 0.929 . S
H92 C101 0.930 . S
H93 C103 0.929 . S
H94 C95 0.969 . S
C95 H94 0.969 . S
C95 O96 1.550 . S
C95 H97 0.973 . S
O96 C95 1.550 . S
O96 C102 1.412 . S
H97 C95 0.973 . S
C98 H91 0.929 . S
C98 C99 1.400 . S
C98 C100 1.364 1_556 S
C99 C98 1.400 . S
C99 C103 1.377 . S
C100 C98 1.364 1_554 S
C100 C101 1.374 . S
C101 H92 0.930 . S
C101 C100 1.374 . S
C101 C102 1.383 . S
C102 O96 1.412 . S
C102 C101 1.383 . S
C102 C103 1.394 1_554 S
C103 H93 0.929 . S
C103 C99 1.377 . S
C103 C102 1.394 1_556 S
Pr104 C106 2.880 . S
Pr104 O124 2.562 . S
Pr104 O125 2.490 . S
Pr104 O126 2.695 1_564 S
Pr104 O127 2.512 1_554 S
Pr104 O129 2.437 1_554 S
Pr104 O132 2.436 1_455 S
Pr104 O134 2.438 1_565 S
Pr105 C115 2.880 . S
Pr105 O126 2.436 1_655 S
Pr105 O128 2.438 1_545 S
Pr105 O130 2.562 . S
Pr105 O131 2.490 . S
Pr105 O132 2.695 1_546 S
Pr105 O133 2.512 . S
Pr105 O135 2.437 . S
C106 Pr104 2.880 . S
C106 C107 1.491 . S
C106 O124 1.254 . S
C106 O125 1.225 . S
C107 C106 1.491 . S
C107 C108 1.392 . S
C107 C112 1.356 . S
C108 C107 1.392 . S
C108 C109 1.368 . S
C108 H136 0.929 . S
C109 C108 1.368 . S
C109 C110 1.386 . S
C109 H137 0.929 . S
C110 C109 1.386 . S
C110 C111 1.373 . S
C111 C110 1.373 . S
C111 C112 1.409 . S
C111 H138 0.931 . S
C112 C107 1.356 . S
C112 C111 1.409 . S
C112 H139 0.930 . S
C113 O126 1.270 1_565 S
C113 O127 1.248 . S
C114 O128 1.267 . S
C114 O129 1.278 1_655 S
C115 Pr105 2.880 . S
C115 C116 1.491 . S
C115 O130 1.254 . S
C115 O131 1.225 . S
C116 C115 1.491 . S
C116 C117 1.392 . S
C116 C121 1.356 . S
C117 C116 1.392 . S
C117 C118 1.368 . S
C117 H140 0.929 . S
C118 C117 1.368 . S
C118 C119 1.386 . S
C118 H141 0.929 . S
C119 C118 1.386 . S
C119 C120 1.373 . S
C120 C119 1.373 . S
C120 C121 1.409 . S
C120 H142 0.931 . S
C121 C116 1.356 . S
C121 C120 1.409 . S
C121 H143 0.930 . S
C122 O132 1.270 1_545 S
C122 O133 1.248 1_554 S
C123 O134 1.267 1_556 S
C123 O135 1.278 1_455 S
O124 Pr104 2.562 . S
O124 C106 1.254 . S
O125 Pr104 2.490 . S
O125 C106 1.225 . S
O126 Pr104 2.695 1_546 S
O126 Pr105 2.436 1_455 S
O126 C113 1.270 1_545 S
O127 Pr104 2.512 1_556 S
O127 C113 1.248 . S
O128 Pr105 2.438 1_565 S
O128 C114 1.267 . S
O129 Pr104 2.437 1_556 S
O129 C114 1.278 1_455 S
O130 Pr105 2.562 . S
O130 C115 1.254 . S
O131 Pr105 2.490 . S
O131 C115 1.225 . S
O132 Pr104 2.436 1_655 S
O132 Pr105 2.695 1_564 S
O132 C122 1.270 1_565 S
O133 Pr105 2.512 . S
O133 C122 1.248 1_556 S
O134 Pr104 2.438 1_545 S
O134 C123 1.267 1_554 S
O135 Pr105 2.437 . S
O135 C123 1.278 1_655 S
H136 C108 0.929 . S
H137 C109 0.929 . S
H138 C111 0.931 . S
H139 C112 0.930 . S
H140 C117 0.929 . S
H141 C118 0.929 . S
H142 C120 0.931 . S
H143 C121 0.930 . S
Pr144 C146 2.880 . S
Pr144 O164 2.562 . S
Pr144 O165 2.490 . S
Pr144 O166 2.695 1_554 S
Pr144 O167 2.512 1_554 S
Pr144 O169 2.437 1_554 S
Pr144 O172 2.436 1_545 S
Pr144 O174 2.438 . S
Pr145 C155 2.880 . S
Pr145 O166 2.436 1_565 S
Pr145 O168 2.438 . S
Pr145 O170 2.562 . S
Pr145 O171 2.490 . S
Pr145 O172 2.695 1_556 S
Pr145 O173 2.512 . S
Pr145 O175 2.437 . S
C146 Pr144 2.880 . S
C146 C147 1.491 . S
C146 O164 1.254 . S
C146 O165 1.225 . S
C147 C146 1.491 . S
C147 C148 1.392 . S
C147 C152 1.356 . S
C148 C147 1.392 . S
C148 C149 1.368 . S
C148 H176 0.929 . S
C149 C148 1.368 . S
C149 C150 1.386 . S
C149 H177 0.929 . S
C150 C149 1.386 . S
C150 C151 1.373 . S
C151 C150 1.373 . S
C151 C152 1.409 . S
C151 H178 0.931 . S
C152 C147 1.356 . S
C152 C151 1.409 . S
C152 H179 0.942 . S
C153 O166 1.270 . S
C153 O167 1.248 . S
C154 O168 1.267 . S
C154 O169 1.278 1_565 S
C155 Pr145 2.880 . S
C155 C156 1.491 . S
C155 O170 1.254 . S
C155 O171 1.225 . S
C156 C155 1.491 . S
C156 C157 1.392 . S
C156 C161 1.356 . S
C157 C156 1.392 . S
C157 C158 1.368 . S
C157 H180 0.929 . S
C158 C157 1.368 . S
C158 C159 1.386 . S
C158 H181 0.929 . S
C159 C158 1.386 . S
C159 C160 1.373 . S
C160 C159 1.373 . S
C160 C161 1.409 . S
C160 H182 0.931 . S
C161 C156 1.356 . S
C161 C160 1.409 . S
C161 H183 0.938 . S
C162 O172 1.270 . S
C162 O173 1.248 1_554 S
C163 O174 1.267 1_556 S
C163 O175 1.278 1_545 S
O164 Pr144 2.562 . S
O164 C146 1.254 . S
O165 Pr144 2.490 . S
O165 C146 1.225 . S
O166 Pr144 2.695 1_556 S
O166 Pr145 2.436 1_545 S
O166 C153 1.270 . S
O167 Pr144 2.512 1_556 S
O167 C153 1.248 . S
O168 Pr145 2.438 . S
O168 C154 1.267 . S
O169 Pr144 2.437 1_556 S
O169 C154 1.278 1_545 S
O170 Pr145 2.562 . S
O170 C155 1.254 . S
O171 Pr145 2.490 . S
O171 C155 1.225 . S
O172 Pr144 2.436 1_565 S
O172 Pr145 2.695 1_554 S
O172 C162 1.270 . S
O173 Pr145 2.512 . S
O173 C162 1.248 1_556 S
O174 Pr144 2.438 . S
O174 C163 1.267 1_554 S
O175 Pr145 2.437 . S
O175 C163 1.278 1_565 S
H176 C148 0.929 . S
H177 C149 0.929 . S
H178 C151 0.931 . S
H179 C152 0.942 . S
H180 C157 0.929 . S
H181 C158 0.929 . S
H182 C160 0.931 . S
H183 C161 0.938 . S
Pr184 C186 2.880 . S
Pr184 O204 2.562 . S
Pr184 O205 2.490 . S
Pr184 O206 2.695 1_554 S
Pr184 O207 2.512 1_554 S
Pr184 O209 2.437 1_554 S
Pr184 O212 2.436 . S
Pr184 O214 2.438 . S
Pr185 C195 2.880 . S
Pr185 O206 2.436 . S
Pr185 O208 2.438 . S
Pr185 O210 2.562 . S
Pr185 O211 2.490 . S
Pr185 O212 2.695 1_556 S
Pr185 O213 2.512 . S
Pr185 O215 2.437 . S
C186 Pr184 2.880 . S
C186 C187 1.491 . S
C186 O204 1.254 . S
C186 O205 1.225 . S
C187 C186 1.491 . S
C187 C188 1.392 . S
C187 C192 1.356 . S
C188 C187 1.392 . S
C188 C189 1.368 . S
C188 H216 0.929 . S
C189 C188 1.368 . S
C189 C190 1.386 . S
C189 H217 0.929 . S
C190 C189 1.386 . S
C190 C191 1.373 . S
C191 C190 1.373 . S
C191 C192 1.409 . S
C191 H218 0.931 . S
C192 C187 1.356 . S
C192 C191 1.409 . S
C192 H219 0.930 . S
C193 O206 1.270 . S
C193 O207 1.248 . S
C194 O208 1.267 . S
C194 O209 1.278 . S
C195 Pr185 2.880 . S
C195 C196 1.491 . S
C195 O210 1.254 . S
C195 O211 1.225 . S
C196 C195 1.491 . S
C196 C197 1.392 . S
C196 C201 1.356 . S
C197 C196 1.392 . S
C197 C198 1.368 . S
C197 H220 0.929 . S
C198 C197 1.368 . S
C198 C199 1.386 . S
C198 H221 0.929 . S
C199 C198 1.386 . S
C199 C200 1.373 . S
C200 C199 1.373 . S
C200 C201 1.409 . S
C200 H222 0.931 . S
C201 C196 1.356 . S
C201 C200 1.409 . S
C201 H223 0.930 . S
C202 O212 1.270 . S
C202 O213 1.248 1_554 S
C203 O214 1.267 1_556 S
C203 O215 1.278 . S
O204 Pr184 2.562 . S
O204 C186 1.254 . S
O205 Pr184 2.490 . S
O205 C186 1.225 . S
O206 Pr184 2.695 1_556 S
O206 Pr185 2.436 . S
O206 C193 1.270 . S
O207 Pr184 2.512 1_556 S
O207 C193 1.248 . S
O208 Pr185 2.438 . S
O208 C194 1.267 . S
O209 Pr184 2.437 1_556 S
O209 C194 1.278 . S
O210 Pr185 2.562 . S
O210 C195 1.254 . S
O211 Pr185 2.490 . S
O211 C195 1.225 . S
O212 Pr184 2.436 . S
O212 Pr185 2.695 1_554 S
O212 C202 1.270 . S
O213 Pr185 2.512 . S
O213 C202 1.248 1_556 S
O214 Pr184 2.438 . S
O214 C203 1.267 1_554 S
O215 Pr185 2.437 . S
O215 C203 1.278 . S
H216 C188 0.929 . S
H217 C189 0.929 . S
H218 C191 0.931 . S
H219 C192 0.930 . S
H220 C197 0.929 . S
H221 C198 0.929 . S
H222 C200 0.931 . S
H223 C201 0.930 . S
Pr224 C226 2.880 . S
Pr224 O244 2.562 . S
Pr224 O245 2.490 . S
Pr224 O246 2.695 1_654 S
Pr224 O247 2.512 1_554 S
Pr224 O249 2.437 1_554 S
Pr224 O252 2.436 . S
Pr224 O254 2.438 1_655 S
Pr225 C235 2.880 . S
Pr225 O246 2.436 . S
Pr225 O248 2.438 1_455 S
Pr225 O250 2.562 . S
Pr225 O251 2.490 . S
Pr225 O252 2.695 1_456 S
Pr225 O253 2.512 . S
Pr225 O255 2.437 . S
C226 Pr224 2.880 . S
C226 C227 1.491 . S
C226 O244 1.254 . S
C226 O245 1.225 . S
C227 C226 1.491 . S
C227 C228 1.392 . S
C227 C232 1.356 . S
C228 C227 1.392 . S
C228 C229 1.368 . S
C228 H256 0.929 . S
C229 C228 1.368 . S
C229 C230 1.386 . S
C229 H257 0.929 . S
C230 C229 1.386 . S
C230 C231 1.373 . S
C231 C230 1.373 . S
C231 C232 1.409 . S
C231 H258 0.931 . S
C232 C227 1.356 . S
C232 C231 1.409 . S
C232 H259 0.930 . S
C233 O246 1.268 1_655 S
C233 O247 1.252 . S
C234 O248 1.267 . S
C234 O249 1.278 . S
C235 Pr225 2.880 . S
C235 C236 1.491 . S
C235 O250 1.254 . S
C235 O251 1.225 . S
C236 C235 1.491 . S
C236 C237 1.392 . S
C236 C241 1.356 . S
C237 C236 1.392 . S
C237 C238 1.368 . S
C237 H260 0.929 . S
C238 C237 1.368 . S
C238 C239 1.386 . S
C238 H261 0.929 . S
C239 C238 1.386 . S
C239 C240 1.373 . S
C240 C239 1.373 . S
C240 C241 1.409 . S
C240 H262 0.931 . S
C241 C236 1.356 . S
C241 C240 1.409 . S
C241 H263 0.930 . S
C242 O252 1.267 1_455 S
C242 O253 1.254 1_554 S
C243 O254 1.267 1_556 S
C243 O255 1.278 . S
O244 Pr224 2.562 . S
O244 C226 1.254 . S
O245 Pr224 2.490 . S
O245 C226 1.225 . S
O246 Pr224 2.695 1_456 S
O246 Pr225 2.436 . S
O246 C233 1.268 1_455 S
O247 Pr224 2.512 1_556 S
O247 C233 1.252 . S
O248 Pr225 2.438 1_655 S
O248 C234 1.267 . S
O249 Pr224 2.437 1_556 S
O249 C234 1.278 . S
O250 Pr225 2.562 . S
O250 C235 1.254 . S
O251 Pr225 2.490 . S
O251 C235 1.225 . S
O252 Pr224 2.436 . S
O252 Pr225 2.695 1_654 S
O252 C242 1.267 1_655 S
O253 Pr225 2.512 . S
O253 C242 1.254 1_556 S
O254 Pr224 2.438 1_455 S
O254 C243 1.267 1_554 S
O255 Pr225 2.437 . S
O255 C243 1.278 . S
H256 C228 0.929 . S
H257 C229 0.929 . S
H258 C231 0.931 . S
H259 C232 0.930 . S
H260 C237 0.929 . S
H261 C238 0.929 . S
H262 C240 0.931 . S
H263 C241 0.930 . S
C82 C113 3.410 1_545 S
C153 C95 3.408 . S
C193 C56 3.429 . S
C233 C69 3.417 1_655 S
C122 C30 3.391 . S
C43 C162 3.457 . S
C4 C202 3.495 . S
C17 C242 3.417 . S
C119 C74 2.605 1_655 S
C159 C87 2.434 1_565 S
C199 C100 2.302 . S
C61 C239 2.445 . S
C22 C110 2.604 . S
C150 C35 2.434 . S
C190 C48 2.280 . S
C9 C230 2.424 . S
C73 C123 4.003 . S
C86 C163 3.925 . S
C203 C99 3.928 . S
C243 C60 4.003 . S
C21 C114 4.008 1_455 S
C154 C34 3.925 1_565 S
C194 C47 3.941 . S
C8 C234 4.020 . S
