# Generated by pormake.
# Topology apo, (3,6)-cn, num edge types: 1
# Building blocks:
#     Node 0, Type 0, BuildingBlock: QEWDON_clean_linker_0, # of connection points: 3
#     Node 1, Type 0, BuildingBlock: QEWDON_clean_linker_0, # of connection points: 3
#     Node 2, Type 0, BuildingBlock: QEWDON_clean_linker_0, # of connection points: 3
#     Node 3, Type 0, BuildingBlock: QEWDON_clean_linker_0, # of connection points: 3
#     Node 4, Type 0, BuildingBlock: QEWDON_clean_linker_0, # of connection points: 3
#     Node 5, Type 0, BuildingBlock: QEWDON_clean_linker_0, # of connection points: 3
#     Node 6, Type 0, BuildingBlock: QEWDON_clean_linker_0, # of connection points: 3
#     Node 7, Type 0, BuildingBlock: QEWDON_clean_linker_0, # of connection points: 3
#     Node 8, Type 1, BuildingBlock: MIDCAF_clean_sbu_0, # of connection points: 6
#     Node 9, Type 1, BuildingBlock: MIDCAF_clean_sbu_0, # of connection points: 6
#     Node 10, Type 1, BuildingBlock: MIDCAF_clean_sbu_0, # of connection points: 6
#     Node 11, Type 1, BuildingBlock: MIDCAF_clean_sbu_0, # of connection points: 6
#     Edge 12, Type (0, 1), BuildingBlock: CIFDUS_clean_linker_0, # of connection points: 2
#     Edge 13, Type (0, 1), BuildingBlock: CIFDUS_clean_linker_0, # of connection points: 2
#     Edge 14, Type (0, 1), BuildingBlock: CIFDUS_clean_linker_0, # of connection points: 2
#     Edge 15, Type (0, 1), BuildingBlock: CIFDUS_clean_linker_0, # of connection points: 2
#     Edge 16, Type (0, 1), BuildingBlock: CIFDUS_clean_linker_0, # of connection points: 2
#     Edge 17, Type (0, 1), BuildingBlock: CIFDUS_clean_linker_0, # of connection points: 2
#     Edge 18, Type (0, 1), BuildingBlock: CIFDUS_clean_linker_0, # of connection points: 2
#     Edge 19, Type (0, 1), BuildingBlock: CIFDUS_clean_linker_0, # of connection points: 2
#     Edge 20, Type (0, 1), BuildingBlock: CIFDUS_clean_linker_0, # of connection points: 2
#     Edge 21, Type (0, 1), BuildingBlock: CIFDUS_clean_linker_0, # of connection points: 2
#     Edge 22, Type (0, 1), BuildingBlock: CIFDUS_clean_linker_0, # of connection points: 2
#     Edge 23, Type (0, 1), BuildingBlock: CIFDUS_clean_linker_0, # of connection points: 2
#     Edge 24, Type (0, 1), BuildingBlock: CIFDUS_clean_linker_0, # of connection points: 2
#     Edge 25, Type (0, 1), BuildingBlock: CIFDUS_clean_linker_0, # of connection points: 2
#     Edge 26, Type (0, 1), BuildingBlock: CIFDUS_clean_linker_0, # of connection points: 2
#     Edge 27, Type (0, 1), BuildingBlock: CIFDUS_clean_linker_0, # of connection points: 2
#     Edge 28, Type (0, 1), BuildingBlock: CIFDUS_clean_linker_0, # of connection points: 2
#     Edge 29, Type (0, 1), BuildingBlock: CIFDUS_clean_linker_0, # of connection points: 2
#     Edge 30, Type (0, 1), BuildingBlock: CIFDUS_clean_linker_0, # of connection points: 2
#     Edge 31, Type (0, 1), BuildingBlock: CIFDUS_clean_linker_0, # of connection points: 2
#     Edge 32, Type (0, 1), BuildingBlock: CIFDUS_clean_linker_0, # of connection points: 2
#     Edge 33, Type (0, 1), BuildingBlock: CIFDUS_clean_linker_0, # of connection points: 2
#     Edge 34, Type (0, 1), BuildingBlock: CIFDUS_clean_linker_0, # of connection points: 2
#     Edge 35, Type (0, 1), BuildingBlock: CIFDUS_clean_linker_0, # of connection points: 2
# Relax obj value: 0.009
# Max RMSD: 0.107
# Mean RMSD: 0.090
data_MOF--net-apo--node1-MIDCAF_clean_sbu_0--node2-QEWDON_clean_linker_0--edge1-CIFDUS_clean_linker_0
_symmetry_space_group_name_H-M    P1
_symmetry_Int_Tables_number       1
_symmetry_cell_setting            triclinic
loop_
_symmetry_equiv_pos_as_xyz
'x, y, z'
_cell_length_a     34.366949
_cell_length_b     37.443184
_cell_length_c     30.389344
_cell_angle_alpha  90.144496
_cell_angle_beta   90.343751
_cell_angle_gamma 90.106967
loop_
_atom_site_label
_atom_site_type_symbol
_atom_site_fract_x
_atom_site_fract_y
_atom_site_fract_z
_atom_type_partial_charge
H0 H 0.32555 0.38408 0.353 0.0
C1 C 0.34043 0.36977 0.37906 0.0
C2 C 0.3798 0.3773 0.3886 0.0
C3 C 0.31891 0.3466 0.40607 0.0
H4 H 0.4282 0.36425 0.43124 0.0
C5 C 0.3978 0.35921 0.42378 0.0
C6 C 0.37637 0.33721 0.4521 0.0
C7 C 0.33681 0.33114 0.4432 0.0
C8 C 0.27615 0.34429 0.40079 0.0
H9 H 0.31971 0.3152 0.46573 0.0
C10 C 0.25845 0.32464 0.36632 0.0
C11 C 0.21741 0.32332 0.36247 0.0
C12 C 0.25284 0.36257 0.43108 0.0
H13 H 0.26597 0.37781 0.45767 0.0
C14 C 0.21249 0.36155 0.42729 0.0
H15 H 0.27643 0.31041 0.34297 0.0
C16 C 0.19489 0.34209 0.39346 0.0
H17 H 0.1634 0.34105 0.39231 0.0
H18 H 0.19473 0.37565 0.45092 0.0
H19 H 0.16628 0.14198 0.82183 0.0
C20 C 0.16454 0.1457 0.85711 0.0
C21 C 0.13146 0.13418 0.88026 0.0
C22 C 0.197 0.15987 0.87942 0.0
H23 H 0.10666 0.12961 0.94542 0.0
C24 C 0.13066 0.13969 0.92612 0.0
C25 C 0.16241 0.15479 0.9487 0.0
C26 C 0.1958 0.16463 0.92531 0.0
C27 C 0.23423 0.16301 0.8557 0.0
H28 H 0.2214 0.17395 0.94293 0.0
C29 C 0.25097 0.19641 0.84642 0.0
C30 C 0.28694 0.19864 0.82412 0.0
C31 C 0.25306 0.13172 0.84211 0.0
H32 H 0.24047 0.10577 0.8489 0.0
C33 C 0.28851 0.13359 0.82032 0.0
H34 H 0.23563 0.22036 0.85616 0.0
C35 C 0.30552 0.16664 0.81167 0.0
H36 H 0.33374 0.16687 0.79609 0.0
H37 H 0.30314 0.10927 0.81055 0.0
H38 H 0.79506 0.12127 0.66832 0.0
C39 C 0.80836 0.12476 0.63634 0.0
C40 C 0.84328 0.10693 0.62667 0.0
C41 C 0.78866 0.14434 0.60373 0.0
H42 H 0.88507 0.09523 0.57593 0.0
C43 C 0.85906 0.11005 0.58432 0.0
C44 C 0.83993 0.12977 0.55149 0.0
C45 C 0.80503 0.14724 0.56148 0.0
C46 C 0.74807 0.15606 0.61147 0.0
H47 H 0.78945 0.16131 0.53569 0.0
C48 C 0.7379 0.17675 0.64855 0.0
C49 C 0.6986 0.18542 0.65643 0.0
C50 C 0.71869 0.14431 0.5825 0.0
H51 H 0.72568 0.12794 0.55418 0.0
C52 C 0.67988 0.15265 0.59034 0.0
H53 H 0.76037 0.18605 0.67101 0.0
C54 C 0.66984 0.17297 0.62697 0.0
H55 H 0.63951 0.17974 0.63164 0.0
H56 H 0.65748 0.14337 0.56786 0.0
H57 H 0.66505 0.37325 0.20301 0.0
C58 C 0.66018 0.36484 0.16934 0.0
C59 C 0.6255 0.37431 0.14735 0.0
C60 C 0.68958 0.34508 0.14815 0.0
H61 H 0.59455 0.36921 0.08524 0.0
C62 C 0.6201 0.36169 0.10401 0.0
C63 C 0.64807 0.34036 0.0831 0.0
C64 C 0.68306 0.33237 0.10504 0.0
C65 C 0.72822 0.34127 0.1701 0.0
H66 H 0.70534 0.31714 0.08832 0.0
C67 C 0.74766 0.30814 0.17297 0.0
C68 C 0.78408 0.30554 0.19485 0.0
C69 C 0.74581 0.37174 0.18868 0.0
H70 H 0.73187 0.39761 0.18647 0.0
C71 C 0.78179 0.36944 0.20972 0.0
H72 H 0.73406 0.28449 0.15914 0.0
C73 C 0.80083 0.33675 0.21275 0.0
H74 H 0.82919 0.33618 0.22843 0.0
H75 H 0.79514 0.39321 0.22348 0.0
H76 H 0.6214 0.67123 0.6883 0.0
C77 C 0.62666 0.67478 0.65348 0.0
C78 C 0.61239 0.64978 0.62268 0.0
C79 C 0.64766 0.70488 0.63974 0.0
H80 H 0.60872 0.6372 0.55317 0.0
C81 C 0.61924 0.656 0.57761 0.0
C82 C 0.63813 0.68713 0.5632 0.0
C83 C 0.65289 0.71125 0.5946 0.0
C84 C 0.6633 0.73022 0.67275 0.0
H85 H 0.66754 0.73537 0.58394 0.0
C86 C 0.70365 0.73429 0.67812 0.0
C87 C 0.71919 0.75918 0.70859 0.0
C88 C 0.63799 0.75018 0.69904 0.0
H89 H 0.60676 0.74713 0.69557 0.0
C90 C 0.65286 0.7747 0.72944 0.0
H91 H 0.72265 0.71753 0.65872 0.0
C92 C 0.69303 0.77949 0.73396 0.0
H93 H 0.70332 0.7997 0.75673 0.0
H94 H 0.63316 0.79047 0.74919 0.0
H95 H 0.86727 0.83258 0.21745 0.0
C96 C 0.87056 0.83002 0.18212 0.0
C97 C 0.88972 0.857 0.15853 0.0
C98 C 0.85779 0.79874 0.1608 0.0
H99 H 0.90986 0.87354 0.09461 0.0
C100 C 0.89484 0.85292 0.11293 0.0
C101 C 0.88202 0.82189 0.09105 0.0
C102 C 0.86384 0.79467 0.11531 0.0
C103 C 0.84429 0.76817 0.1874 0.0
H104 H 0.85548 0.76996 0.09912 0.0
C105 C 0.80448 0.76203 0.19568 0.0
C106 C 0.79279 0.73306 0.22241 0.0
C107 C 0.87224 0.74528 0.20565 0.0
H108 H 0.90294 0.74969 0.19967 0.0
C109 C 0.86093 0.71659 0.23172 0.0
H110 H 0.78294 0.77995 0.18187 0.0
C111 C 0.82163 0.71045 0.24005 0.0
H112 H 0.81381 0.6875 0.25974 0.0
H113 H 0.88272 0.69893 0.24545 0.0
H114 H 0.13895 0.82601 0.31826 0.0
C115 C 0.13651 0.82401 0.35372 0.0
C116 C 0.12386 0.8536 0.37834 0.0
C117 C 0.14511 0.79155 0.37476 0.0
H118 H 0.10986 0.87305 0.44321 0.0
C119 C 0.12061 0.85056 0.42432 0.0
C120 C 0.12843 0.81817 0.44581 0.0
C121 C 0.1405 0.78868 0.42065 0.0
C122 C 0.15574 0.75955 0.34873 0.0
H123 H 0.14607 0.76335 0.43671 0.0
C124 C 0.19173 0.75719 0.32682 0.0
C125 C 0.20287 0.72516 0.30534 0.0
C126 C 0.13016 0.73039 0.34765 0.0
H127 H 0.10238 0.73172 0.36427 0.0
C128 C 0.14023 0.6992 0.32546 0.0
H129 H 0.21118 0.77996 0.32766 0.0
C130 C 0.1763 0.69638 0.30493 0.0
H131 H 0.1837 0.67098 0.29017 0.0
H132 H 0.12038 0.67673 0.3251 0.0
H133 H 0.40147 0.6671 0.82958 0.0
C134 C 0.3928 0.6679 0.86376 0.0
C135 C 0.40788 0.64248 0.89319 0.0
C136 C 0.36665 0.69447 0.87818 0.0
H137 H 0.40611 0.62358 0.9602 0.0
C138 C 0.39567 0.64351 0.93719 0.0
C139 C 0.37039 0.67004 0.95251 0.0
C140 C 0.35603 0.69567 0.92301 0.0
C141 C 0.35102 0.72105 0.84626 0.0
H142 H 0.33688 0.71647 0.93495 0.0
C143 C 0.31145 0.73088 0.84664 0.0
C144 C 0.29658 0.75585 0.81612 0.0
C145 C 0.37563 0.7364 0.81468 0.0
H146 H 0.4063 0.72983 0.81383 0.0
C147 C 0.36111 0.76086 0.78422 0.0
H148 H 0.29213 0.7186 0.87026 0.0
C149 C 0.32196 0.7706 0.78488 0.0
H150 H 0.31186 0.79041 0.76159 0.0
H151 H 0.38042 0.77266 0.76027 0.0
Zn152 Zn 0.04812 0.12627 0.33411 0.0
Zn153 Zn 0.99082 0.10463 0.18752 0.0
Zn154 Zn 0.02097 0.11328 0.2612 0.0
C155 C 0.06257 0.13363 0.17058 0.0
C156 C 0.99148 0.03759 0.2229 0.0
O157 O 0.97368 0.13591 0.3043 0.0
O158 O 1.00236 0.13639 0.36963 0.0
C159 C 0.09232 0.16825 0.28317 0.0
O160 O 0.06033 0.13911 0.2124 0.0
O161 O 0.03698 0.11517 0.15112 0.0
O162 O 0.97402 0.05484 0.19329 0.0
O163 O 0.01447 0.05391 0.25017 0.0
O164 O 0.08351 0.16594 0.32319 0.0
O165 O 0.07402 0.14913 0.25419 0.0
O166 O 0.03994 0.05946 0.28628 0.0
O167 O 0.07323 0.07982 0.3432 0.0
C168 C 0.06351 0.05395 0.31883 0.0
O169 O 0.96346 0.14209 0.26024 0.0
O170 O 0.94943 0.14091 0.18931 0.0
C171 C 0.97233 0.14077 0.3464 0.0
C172 C 0.94181 0.152 0.22751 0.0
Zn173 Zn 0.55788 0.3908 0.68866 0.0
Zn174 Zn 0.49068 0.3916 0.83793 0.0
Zn175 Zn 0.52319 0.38813 0.76267 0.0
C176 C 0.49829 0.46125 0.81526 0.0
C177 C 0.43994 0.35259 0.78457 0.0
O178 O 0.57888 0.35773 0.76903 0.0
O179 O 0.60795 0.36941 0.70601 0.0
C180 C 0.54596 0.46042 0.70748 0.0
O181 O 0.51155 0.44508 0.78094 0.0
O182 O 0.48805 0.44351 0.84843 0.0
O183 O 0.44228 0.36662 0.82228 0.0
O184 O 0.46755 0.35751 0.75661 0.0
O185 O 0.55736 0.44214 0.67521 0.0
O186 O 0.53337 0.44483 0.74247 0.0
O187 O 0.48376 0.3613 0.7136 0.0
O188 O 0.52117 0.36074 0.65475 0.0
C189 C 0.48931 0.353 0.67283 0.0
O190 O 0.56351 0.36248 0.81215 0.0
O191 O 0.52847 0.36438 0.87283 0.0
C192 C 0.60829 0.35439 0.74311 0.0
C193 C 0.55938 0.35562 0.8535 0.0
Zn194 Zn 0.03636 0.89124 0.84183 0.0
Zn195 Zn 0.97517 0.87598 0.69998 0.0
Zn196 Zn 0.00595 0.88148 0.76708 0.0
C197 C 0.95928 0.94349 0.72029 0.0
C198 C 0.93508 0.82943 0.74567 0.0
O199 O 0.06274 0.8524 0.76352 0.0
O200 O 0.08159 0.86016 0.83243 0.0
C201 C 0.03346 0.95835 0.80716 0.0
O202 O 0.98967 0.93584 0.74341 0.0
O203 O 0.94128 0.91881 0.70057 0.0
O204 O 0.94863 0.83017 0.70727 0.0
O205 O 0.95052 0.84993 0.77527 0.0
O206 O 0.04496 0.94341 0.842 0.0
O207 O 0.01744 0.93977 0.77617 0.0
O208 O 0.96553 0.85809 0.81819 0.0
O209 O 0.99613 0.87222 0.88014 0.0
C210 C 0.96744 0.85822 0.86071 0.0
O211 O 0.04766 0.85539 0.71968 0.0
O212 O 0.01911 0.87538 0.65936 0.0
C213 C 0.0873 0.84655 0.795 0.0
C214 C 0.04763 0.86024 0.67756 0.0
Zn215 Zn 0.51606 0.61484 0.184 0.0
Zn216 Zn 0.4778 0.63835 0.34078 0.0
Zn217 Zn 0.49947 0.62788 0.26317 0.0
C218 C 0.55222 0.66452 0.34005 0.0
C219 C 0.4741 0.56496 0.32999 0.0
O220 O 0.45434 0.6532 0.21864 0.0
O221 O 0.46774 0.62829 0.15445 0.0
C222 C 0.57398 0.66172 0.21674 0.0
O223 O 0.5491 0.65482 0.29934 0.0
O224 O 0.52409 0.66028 0.36585 0.0
O225 O 0.46679 0.58861 0.35839 0.0
O226 O 0.48754 0.57409 0.29209 0.0
O227 O 0.56025 0.64932 0.18117 0.0
O228 O 0.55674 0.65482 0.25338 0.0
O229 O 0.50888 0.56879 0.25376 0.0
O230 O 0.52868 0.56374 0.18497 0.0
C231 C 0.5218 0.54958 0.22165 0.0
O232 O 0.44338 0.66016 0.26233 0.0
O233 O 0.43399 0.67047 0.33305 0.0
C234 C 0.44626 0.64796 0.17753 0.0
C235 C 0.42377 0.67502 0.29362 0.0
H236 H 0.1486 0.91984 0.39891 0.0
H237 H 0.07245 0.86324 0.30984 0.0
H238 H 0.04733 0.92018 0.2814 0.0
H239 H 0.04399 0.98671 0.28651 0.0
H240 H 0.12232 0.04111 0.37598 0.0
H241 H 0.1491 0.98474 0.39965 0.0
C242 C 0.12674 0.92001 0.37298 0.0
C243 C 0.11224 0.88753 0.3567 0.0
C244 C 0.11243 0.95259 0.35714 0.0
C245 C 0.08422 0.88802 0.32275 0.0
C246 C 0.06966 0.92056 0.30674 0.0
C247 C 0.06719 0.98618 0.31061 0.0
C248 C 0.08054 0.0184 0.32948 0.0
C249 C 0.08306 0.95315 0.3243 0.0
C250 C 0.11077 0.017 0.36105 0.0
C251 C 0.1264 0.98464 0.37471 0.0
H252 H 0.41017 0.60597 0.81433 0.0
H253 H 0.47003 0.61597 0.93925 0.0
H254 H 0.50757 0.56263 0.92332 0.0
H255 H 0.51628 0.50839 0.8791 0.0
H256 H 0.46087 0.49975 0.75208 0.0
H257 H 0.42998 0.55813 0.76277 0.0
C258 C 0.43212 0.59716 0.83762 0.0
C259 C 0.43588 0.6143 0.87884 0.0
C260 C 0.45451 0.56668 0.82785 0.0
C261 C 0.46499 0.60246 0.90818 0.0
C262 C 0.48687 0.57208 0.89896 0.0
C263 C 0.49841 0.51991 0.85323 0.0
C264 C 0.49037 0.49988 0.81518 0.0
C265 C 0.48073 0.55321 0.85974 0.0
C266 C 0.46746 0.5149 0.78163 0.0
C267 C 0.44946 0.54805 0.78799 0.0
H268 H 0.61975 0.61179 0.70001 0.0
H269 H 0.55305 0.61486 0.57883 0.0
H270 H 0.52364 0.55783 0.59662 0.0
H271 H 0.52219 0.50392 0.64251 0.0
H272 H 0.58258 0.50325 0.76704 0.0
H273 H 0.60745 0.5636 0.75306 0.0
C274 C 0.59805 0.60075 0.67783 0.0
C275 C 0.59017 0.6174 0.63707 0.0
C276 C 0.57973 0.56843 0.68907 0.0
C277 C 0.56164 0.6021 0.60927 0.0
C278 C 0.54417 0.56959 0.61969 0.0
C279 C 0.53988 0.51752 0.66708 0.0
C280 C 0.55097 0.49936 0.70545 0.0
C281 C 0.5539 0.55203 0.65881 0.0
C282 C 0.57365 0.51699 0.73733 0.0
C283 C 0.5882 0.55126 0.72907 0.0
H284 H 0.96415 0.88197 0.15784 0.0
H285 H 0.85064 0.90337 0.21123 0.0
H286 H 0.8747 0.95919 0.24367 0.0
H287 H 0.92582 0.00529 0.24853 0.0
H288 H 0.03913 0.98452 0.1948 0.0
H289 H 0.01801 0.92462 0.17195 0.0
C290 C 0.94488 0.89878 0.17696 0.0
C291 C 0.90552 0.88899 0.18158 0.0
C292 C 0.95907 0.9307 0.19578 0.0
C293 C 0.88095 0.91054 0.20705 0.0
C294 C 0.89471 0.94242 0.22556 0.0
C295 C 0.94627 0.98699 0.23343 0.0
C296 C 0.98416 0.99884 0.22408 0.0
C297 C 0.93344 0.95316 0.21924 0.0
C298 C 0.01015 0.97551 0.20328 0.0
C299 C 0.99784 0.94154 0.1896 0.0
H300 H 0.91945 0.09632 0.6504 0.0
H301 H 0.80327 0.0557 0.67031 0.0
H302 H 0.82948 0.00338 0.70733 0.0
H303 H 0.88515 0.96493 0.72331 0.0
H304 H 1.00176 0.00407 0.70449 0.0
H305 H 0.97586 0.06141 0.67828 0.0
C306 C 0.89995 0.07632 0.66371 0.0
C307 C 0.85946 0.07979 0.65728 0.0
C308 C 0.91532 0.04589 0.68464 0.0
C309 C 0.83446 0.05389 0.67506 0.0
C310 C 0.84945 0.02374 0.69588 0.0
C311 C 0.90485 0.98638 0.71439 0.0
C312 C 0.94514 0.98036 0.71506 0.0
C313 C 0.88976 0.01886 0.69929 0.0
C314 C 0.97058 0.00827 0.7041 0.0
C315 C 0.95574 0.04086 0.68881 0.0
H316 H 0.63759 0.42564 0.21197 0.0
H317 H 0.54625 0.38 0.13065 0.0
H318 H 0.50324 0.42845 0.15121 0.0
H319 H 0.49505 0.48875 0.18348 0.0
H320 H 0.58295 0.52988 0.27156 0.0
H321 H 0.6229 0.47685 0.25909 0.0
C322 C 0.60801 0.42507 0.19961 0.0
C323 C 0.59646 0.39948 0.16775 0.0
C324 C 0.58242 0.45222 0.21319 0.0
C325 C 0.55742 0.40015 0.15296 0.0
C326 C 0.53228 0.42769 0.16528 0.0
C327 C 0.52214 0.48521 0.20144 0.0
C328 C 0.53613 0.51299 0.22841 0.0
C329 C 0.54499 0.45465 0.194 0.0
C330 C 0.57142 0.50851 0.25117 0.0
C331 C 0.59454 0.47845 0.24344 0.0
H332 H 0.42858 0.4251 0.42735 0.0
H333 H 0.37642 0.39945 0.30163 0.0
H334 H 0.40519 0.45356 0.26998 0.0
H335 H 0.44082 0.51129 0.28045 0.0
H336 H 0.49096 0.53487 0.40774 0.0
H337 H 0.46888 0.47752 0.43567 0.0
C338 C 0.42434 0.4304 0.39261 0.0
C339 C 0.4004 0.40782 0.36701 0.0
C340 C 0.44084 0.46134 0.37479 0.0
C341 C 0.39438 0.41638 0.32238 0.0
C342 C 0.41099 0.44729 0.30418 0.0
C343 C 0.44762 0.50332 0.31391 0.0
C344 C 0.4673 0.52729 0.34214 0.0
C345 C 0.43369 0.47043 0.33035 0.0
C346 C 0.47566 0.51693 0.38555 0.0
C347 C 0.46289 0.48422 0.40161 0.0
H348 H 0.13952 0.08918 0.80901 0.0
H349 H 0.05371 0.12674 0.90179 0.0
H350 H 0.01149 0.07687 0.88225 0.0
H351 H 1.00543 0.01644 0.84948 0.0
H352 H 0.08816 0.98273 0.75208 0.0
H353 H 0.12432 0.03859 0.76129 0.0
C354 C 0.11106 0.0878 0.82397 0.0
C355 C 0.10106 0.11112 0.85869 0.0
C356 C 0.08625 0.05961 0.8117 0.0
C357 C 0.0635 0.10822 0.87681 0.0
C358 C 0.03899 0.07982 0.86536 0.0
C359 C 0.03039 0.02218 0.82895 0.0
C360 C 0.04447 0.99575 0.8004 0.0
C361 C 0.05105 0.0543 0.83457 0.0
C362 C 0.07683 0.00302 0.77401 0.0
C363 C 0.09773 0.03473 0.77971 0.0
H364 H 0.12949 0.20277 1.00424 0.0
H365 H 0.19141 0.10298 1.00074 0.0
H366 H 0.17203 0.09033 0.07646 0.0
H367 H 0.12584 0.10194 0.13652 0.0
H368 H 0.06321 0.20128 0.14004 0.0
H369 H 0.09519 0.22056 0.07229 0.0
C370 C 0.14005 0.17907 0.02091 0.0
C371 C 0.16187 0.15384 0.99732 0.0
C372 C 0.12826 0.17179 0.06428 0.0
C373 C 0.17495 0.12287 0.01866 0.0
C374 C 0.16354 0.1155 0.06176 0.0
C375 C 0.12079 0.12851 0.12352 0.0
C376 C 0.09257 0.15034 0.14313 0.0
C377 C 0.13861 0.13894 0.08404 0.0
C378 C 0.08537 0.18438 0.12572 0.0
C379 C 0.10323 0.19514 0.08664 0.0
H380 H 0.35351 0.35078 0.53618 0.0
H381 H 0.44222 0.29788 0.46061 0.0
H382 H 0.48231 0.29119 0.52672 0.0
H383 H 0.4971 0.31043 0.60189 0.0
H384 H 0.41109 0.36726 0.67707 0.0
H385 H 0.36447 0.36137 0.61606 0.0
C386 C 0.38102 0.33671 0.53465 0.0
C387 C 0.39507 0.32496 0.4936 0.0
C388 C 0.40455 0.33404 0.57271 0.0
C389 C 0.43096 0.30719 0.49182 0.0
C390 C 0.45394 0.30354 0.52957 0.0
C391 C 0.46773 0.32059 0.60542 0.0
C392 C 0.45768 0.33957 0.64374 0.0
C393 C 0.44181 0.31834 0.56965 0.0
C394 C 0.4195 0.35241 0.64802 0.0
C395 C 0.39302 0.34944 0.61285 0.0
H396 H 0.67817 0.36403 1.0054 0.0
H397 H 0.59633 0.28943 0.06035 0.0
H398 H 0.56666 0.28031 0.98796 0.0
H399 H 0.55505 0.30374 0.91399 0.0
H400 H 0.63397 0.38061 0.8587 0.0
H401 H 0.67461 0.37787 0.92526 0.0
C402 C 0.65488 0.34474 1.00094 0.0
C403 C 0.63934 0.32736 0.03798 0.0
C404 C 0.6372 0.34041 0.95918 0.0
C405 C 0.60877 0.30288 0.03219 0.0
C406 C 0.59165 0.29788 0.99087 0.0
C407 C 0.58215 0.31862 0.91577 0.0
C408 C 0.59144 0.34248 0.88174 0.0
C409 C 0.60433 0.31787 0.95471 0.0
C410 C 0.62643 0.36182 0.88433 0.0
C411 C 0.64928 0.36069 0.92278 0.0
H412 H 0.86509 0.18471 0.50019 0.0
H413 H 0.84737 0.07078 0.5009 0.0
H414 H 0.87925 0.06549 0.4295 0.0
H415 H 0.92131 0.09187 0.37336 0.0
H416 H 0.94613 0.20446 0.37693 0.0
H417 H 0.90148 0.2122 0.43876 0.0
C418 C 0.8676 0.15894 0.48409 0.0
C419 C 0.85438 0.12812 0.50571 0.0
C420 C 0.8871 0.15599 0.44357 0.0
C421 C 0.85781 0.09476 0.48488 0.0
C422 C 0.87594 0.09174 0.44409 0.0
C423 C 0.91541 0.11829 0.38649 0.0
C424 C 0.93591 0.14773 0.36997 0.0
C425 C 0.89187 0.12198 0.42386 0.0
C426 C 0.92958 0.18166 0.38831 0.0
C427 C 0.90463 0.18593 0.42418 0.0
H428 H 0.85904 0.86217 0.02103 0.0
H429 H 0.92809 0.77056 0.05615 0.0
H430 H 0.95542 0.76866 0.98198 0.0
H431 H 0.96801 0.79981 0.91207 0.0
H432 H 0.89896 0.89113 0.87648 0.0
H433 H 0.86223 0.88584 0.945 0.0
C434 C 0.87932 0.8413 1.01192 0.0
C435 C 0.89191 0.81673 0.04396 0.0
C436 C 0.89478 0.84032 0.96907 0.0
C437 C 0.91803 0.78968 0.03195 0.0
C438 C 0.93375 0.7887 0.98961 0.0
C439 C 0.94357 0.81736 0.91841 0.0
C440 C 0.93577 0.84551 0.88913 0.0
C441 C 0.92341 0.81468 0.95844 0.0
C442 C 0.90483 0.86878 0.89811 0.0
C443 C 0.88434 0.86614 0.93769 0.0
H444 H 0.66071 0.64616 0.49325 0.0
H445 H 0.61086 0.7482 0.52655 0.0
H446 H 0.58874 0.75587 0.45071 0.0
H447 H 0.56878 0.72605 0.38202 0.0
H448 H 0.61613 0.62317 0.34931 0.0
H449 H 0.65539 0.62387 0.41666 0.0
C450 C 0.6462 0.6706 0.48341 0.0
C451 C 0.63673 0.69626 0.5156 0.0
C452 C 0.63292 0.67454 0.43977 0.0
C453 C 0.61837 0.72802 0.50245 0.0
C454 C 0.60543 0.73229 0.4591 0.0
C455 C 0.58954 0.70485 0.3884 0.0
C456 C 0.58938 0.67449 0.36107 0.0
C457 C 0.61049 0.70476 0.42826 0.0
C458 C 0.616 0.64695 0.36971 0.0
C459 C 0.6378 0.64701 0.4088 0.0
H460 H 0.39143 0.72051 1.01258 0.0
H461 H 0.33227 0.61955 0.99915 0.0
H462 H 0.34084 0.60809 0.07765 0.0
H463 H 0.38146 0.6191 0.14293 0.0
H464 H 0.44443 0.71796 0.15556 0.0
H465 H 0.41704 0.73877 0.08571 0.0
C466 C 0.37877 0.6969 0.02741 0.0
C467 C 0.36165 0.67068 1.00024 0.0
C468 C 0.38513 0.68992 0.07246 0.0
C469 C 0.34565 0.63998 0.01956 0.0
C470 C 0.35088 0.6333 0.06437 0.0
C471 C 0.38724 0.64605 0.13158 0.0
C472 C 0.41502 0.66691 0.154 0.0
C473 C 0.37288 0.65693 0.09036 0.0
C474 C 0.42281 0.70159 0.13897 0.0
C475 C 0.40774 0.71316 0.0985 0.0
H476 H 0.15131 0.86234 0.51289 0.0
H477 H 0.0857 0.76641 0.48594 0.0
H478 H 0.06113 0.76643 0.56123 0.0
H479 H 0.0492 0.7998 0.62987 0.0
H480 H 0.113 0.89653 0.6563 0.0
H481 H 0.14821 0.88977 0.58692 0.0
C482 C 0.13224 0.84108 0.52386 0.0
C483 C 0.11995 0.81467 0.49367 0.0
C484 C 0.11796 0.84142 0.56724 0.0
C485 C 0.09564 0.78702 0.50846 0.0
C486 C 0.0814 0.78713 0.5515 0.0
C487 C 0.07223 0.81835 0.62134 0.0
C488 C 0.07906 0.84828 0.64835 0.0
C489 C 0.09122 0.81491 0.58063 0.0
C490 C 0.108 0.87285 0.63647 0.0
C491 C 0.1276 0.8693 0.5964 0.0
H492 H 0.23483 0.25524 0.33561 0.0
H493 H 0.15356 0.34105 0.31325 0.0
H494 H 0.10961 0.30027 0.2748 0.0
H495 H 0.08828 0.23813 0.26287 0.0
H496 H 0.16867 0.15224 0.28605 0.0
H497 H 0.21943 0.195 0.30693 0.0
C498 C 0.20819 0.26531 0.32096 0.0
C499 C 0.197 0.30095 0.32865 0.0
C500 C 0.18271 0.24152 0.29901 0.0
C501 C 0.16237 0.31349 0.30911 0.0
C502 C 0.13719 0.29018 0.28695 0.0
C503 C 0.1176 0.22902 0.27005 0.0
C504 C 0.12492 0.1922 0.27255 0.0
C505 C 0.14611 0.25377 0.2838 0.0
C506 C 0.16265 0.18054 0.28309 0.0
C507 C 0.19146 0.205 0.29589 0.0
H508 H 0.33428 0.2176 0.75517 0.0
H509 H 0.28386 0.25951 0.87473 0.0
H510 H 0.32113 0.3141 0.86644 0.0
H511 H 0.37435 0.34624 0.83217 0.0
H512 H 0.43338 0.30053 0.72054 0.0
H513 H 0.38634 0.25143 0.71864 0.0
C514 C 0.33151 0.23846 0.77972 0.0
C515 C 0.30637 0.23377 0.81594 0.0
C516 C 0.35476 0.26925 0.7762 0.0
C517 C 0.30238 0.26202 0.84624 0.0
C518 C 0.3241 0.2933 0.84181 0.0
C519 C 0.37673 0.32585 0.8069 0.0
C520 C 0.40747 0.32719 0.77647 0.0
C521 C 0.35124 0.29665 0.80784 0.0
C522 C 0.40975 0.30063 0.74387 0.0
C523 C 0.38314 0.27221 0.74325 0.0
H524 H 0.73022 0.24963 0.67863 0.0
H525 H 0.63969 0.1758 0.71508 0.0
H526 H 0.60804 0.22216 0.75867 0.0
H527 H 0.59797 0.2865 0.77026 0.0
H528 H 0.68565 0.36097 0.728 0.0
H529 H 0.72738 0.31174 0.70496 0.0
C530 C 0.70441 0.24336 0.69751 0.0
C531 C 0.68682 0.20963 0.69284 0.0
C532 C 0.68566 0.27054 0.72137 0.0
C533 C 0.65332 0.20185 0.71746 0.0
C534 C 0.63517 0.22838 0.74236 0.0
C535 C 0.62706 0.29179 0.75816 0.0
C536 C 0.63863 0.3272 0.75036 0.0
C537 C 0.64982 0.26335 0.74236 0.0
C538 C 0.67618 0.33383 0.73419 0.0
C539 C 0.69978 0.30567 0.72035 0.0
H540 H 0.82798 0.28073 0.26383 0.0
H541 H 0.78967 0.25259 0.1326 0.0
H542 H 0.83172 0.20019 0.13388 0.0
H543 H 0.88418 0.16606 0.16874 0.0
H544 H 0.9274 0.19743 0.2966 0.0
H545 H 0.87862 0.24479 0.30024 0.0
C546 C 0.82881 0.26323 0.23538 0.0
C547 C 0.80587 0.27109 0.19789 0.0
C548 C 0.8541 0.23373 0.23573 0.0
C549 C 0.80663 0.24732 0.162 0.0
C550 C 0.83101 0.21745 0.16254 0.0
C551 C 0.88276 0.18299 0.1977 0.0
C552 C 0.90938 0.1779 0.23266 0.0
C553 C 0.85558 0.21095 0.19873 0.0
C554 C 0.90686 0.20011 0.26981 0.0
C555 C 0.87922 0.22753 0.27157 0.0
H556 H 0.76233 0.78129 0.78102 0.0
H557 H 0.77416 0.75123 0.64401 0.0
H558 H 0.84316 0.76283 0.64798 0.0
H559 H 0.8986 0.78754 0.68631 0.0
H560 H 0.88652 0.82878 0.81815 0.0
H561 H 0.81938 0.8066 0.82024 0.0
C562 C 0.7797 0.77756 0.75176 0.0
C563 C 0.76224 0.76508 0.71228 0.0
C564 C 0.81957 0.78635 0.75331 0.0
C565 C 0.78612 0.75974 0.67532 0.0
C566 C 0.82586 0.76681 0.6773 0.0
C567 C 0.88165 0.79146 0.71593 0.0
C568 C 0.89776 0.81006 0.75206 0.0
C569 C 0.84264 0.78082 0.71571 0.0
C570 C 0.87514 0.81442 0.79003 0.0
C571 C 0.83653 0.80208 0.79095 0.0
H572 H 0.73158 0.73626 0.16477 0.0
H573 H 0.75966 0.71142 0.29981 0.0
H574 H 0.69351 0.68966 0.31149 0.0
H575 H 0.62941 0.67212 0.28106 0.0
H576 H 0.60171 0.69778 0.14628 0.0
H577 H 0.66549 0.72501 0.13708 0.0
C578 C 0.72306 0.72685 0.19704 0.0
C579 C 0.75091 0.72503 0.23107 0.0
C580 C 0.68493 0.71418 0.20357 0.0
C581 C 0.73917 0.71244 0.27262 0.0
C582 C 0.70124 0.70006 0.27944 0.0
C583 C 0.63693 0.68449 0.25015 0.0
C584 C 0.6107 0.6827 0.21453 0.0
C585 C 0.67409 0.69994 0.24483 0.0
C586 C 0.62138 0.69839 0.17427 0.0
C587 C 0.65794 0.71403 0.16888 0.0
H588 H 0.27131 0.75515 0.33423 0.0
H589 H 0.22598 0.68341 0.23481 0.0
H590 H 0.29188 0.66466 0.21683 0.0
H591 H 0.36195 0.66184 0.23788 0.0
H592 H 0.40578 0.73614 0.33488 0.0
H593 H 0.34128 0.76176 0.34342 0.0
C594 C 0.27547 0.73632 0.30756 0.0
C595 C 0.24308 0.71995 0.28724 0.0
C596 C 0.31356 0.72598 0.29675 0.0
C597 C 0.24996 0.69549 0.2527 0.0
C598 C 0.28783 0.68488 0.24197 0.0
C599 C 0.35756 0.68454 0.25951 0.0
C600 C 0.38847 0.69678 0.28611 0.0
C601 C 0.31986 0.69886 0.26506 0.0
C602 C 0.38232 0.72606 0.31432 0.0
C603 C 0.34534 0.74057 0.31953 0.0
H604 H 0.2467 0.77151 0.74769 0.0
H605 H 0.25354 0.76829 0.8897 0.0
H606 H 0.18815 0.79246 0.89458 0.0
H607 H 0.13146 0.81861 0.85961 0.0
H608 H 0.12416 0.82579 0.71821 0.0
H609 H 0.18737 0.79596 0.712 0.0
C610 C 0.23394 0.77616 0.77972 0.0
C611 C 0.25533 0.76806 0.8183 0.0
C612 C 0.19636 0.79095 0.78242 0.0
C613 C 0.23784 0.77367 0.85944 0.0
C614 C 0.20047 0.78783 0.86232 0.0
C615 C 0.14346 0.81363 0.82724 0.0
C616 C 0.12316 0.82494 0.78934 0.0
C617 C 0.17984 0.79713 0.82413 0.0
C618 C 0.13904 0.81754 0.74785 0.0
C619 C 0.17533 0.80061 0.74438 0.0
loop_
_geom_bond_atom_site_label_1
_geom_bond_atom_site_label_2
_geom_bond_distance
_geom_bond_site_symmetry_2
_ccdc_geom_bond_type
H0 C1 0.949 . S
C1 H0 0.949 . S
C1 C2 1.395 . S
C1 C3 1.391 . S
C2 C1 1.395 . S
C2 C5 1.390 . S
C3 C1 1.391 . S
C3 C7 1.387 . S
C3 C8 1.491 . S
H4 C5 0.950 . S
C5 C2 1.390 . S
C5 H4 0.950 . S
C5 C6 1.378 . S
C6 C5 1.378 . S
C6 C7 1.409 . S
C7 C3 1.387 . S
C7 C6 1.409 . S
C7 H9 0.951 . S
C8 C3 1.491 . S
C8 C10 1.382 . S
C8 C12 1.404 . S
H9 C7 0.951 . S
C10 C8 1.382 . S
C10 C11 1.390 . S
C10 H15 0.949 . S
C11 C10 1.390 . S
C11 C16 1.399 . S
C12 C8 1.404 . S
C12 H13 0.950 . S
C12 C14 1.375 . S
H13 C12 0.950 . S
C14 C12 1.375 . S
C14 C16 1.382 . S
C14 H18 0.950 . S
H15 C10 0.949 . S
C16 C11 1.399 . S
C16 C14 1.382 . S
C16 H17 0.952 . S
H17 C16 0.952 . S
H18 C14 0.950 . S
H19 C20 0.949 . S
C20 H19 0.949 . S
C20 C21 1.395 . S
C20 C22 1.391 . S
C21 C20 1.395 . S
C21 C24 1.390 . S
C22 C20 1.391 . S
C22 C26 1.387 . S
C22 C27 1.491 . S
H23 C24 0.950 . S
C24 C21 1.390 . S
C24 H23 0.950 . S
C24 C25 1.378 . S
C25 C24 1.378 . S
C25 C26 1.409 . S
C26 C22 1.387 . S
C26 C25 1.409 . S
C26 H28 0.951 . S
C27 C22 1.491 . S
C27 C29 1.382 . S
C27 C31 1.404 . S
H28 C26 0.951 . S
C29 C27 1.382 . S
C29 C30 1.390 . S
C29 H34 0.949 . S
C30 C29 1.390 . S
C30 C35 1.399 . S
C31 C27 1.404 . S
C31 H32 0.950 . S
C31 C33 1.375 . S
H32 C31 0.950 . S
C33 C31 1.375 . S
C33 C35 1.382 . S
C33 H37 0.950 . S
H34 C29 0.949 . S
C35 C30 1.399 . S
C35 C33 1.382 . S
C35 H36 0.952 . S
H36 C35 0.952 . S
H37 C33 0.950 . S
H38 C39 0.949 . S
C39 H38 0.949 . S
C39 C40 1.395 . S
C39 C41 1.391 . S
C40 C39 1.395 . S
C40 C43 1.390 . S
C41 C39 1.391 . S
C41 C45 1.387 . S
C41 C46 1.491 . S
H42 C43 0.950 . S
C43 C40 1.390 . S
C43 H42 0.950 . S
C43 C44 1.378 . S
C44 C43 1.378 . S
C44 C45 1.409 . S
C45 C41 1.387 . S
C45 C44 1.409 . S
C45 H47 0.951 . S
C46 C41 1.491 . S
C46 C48 1.382 . S
C46 C50 1.404 . S
H47 C45 0.951 . S
C48 C46 1.382 . S
C48 C49 1.390 . S
C48 H53 0.949 . S
C49 C48 1.390 . S
C49 C54 1.399 . S
C50 C46 1.404 . S
C50 H51 0.950 . S
C50 C52 1.375 . S
H51 C50 0.950 . S
C52 C50 1.375 . S
C52 C54 1.382 . S
C52 H56 0.950 . S
H53 C48 0.949 . S
C54 C49 1.399 . S
C54 C52 1.382 . S
C54 H55 0.952 . S
H55 C54 0.952 . S
H56 C52 0.950 . S
H57 C58 0.949 . S
C58 H57 0.949 . S
C58 C59 1.395 . S
C58 C60 1.391 . S
C59 C58 1.395 . S
C59 C62 1.390 . S
C60 C58 1.391 . S
C60 C64 1.387 . S
C60 C65 1.491 . S
H61 C62 0.950 . S
C62 C59 1.390 . S
C62 H61 0.950 . S
C62 C63 1.378 . S
C63 C62 1.378 . S
C63 C64 1.409 . S
C64 C60 1.387 . S
C64 C63 1.409 . S
C64 H66 0.951 . S
C65 C60 1.491 . S
C65 C67 1.382 . S
C65 C69 1.404 . S
H66 C64 0.951 . S
C67 C65 1.382 . S
C67 C68 1.390 . S
C67 H72 0.949 . S
C68 C67 1.390 . S
C68 C73 1.399 . S
C69 C65 1.404 . S
C69 H70 0.950 . S
C69 C71 1.375 . S
H70 C69 0.950 . S
C71 C69 1.375 . S
C71 C73 1.382 . S
C71 H75 0.950 . S
H72 C67 0.949 . S
C73 C68 1.399 . S
C73 C71 1.382 . S
C73 H74 0.952 . S
H74 C73 0.952 . S
H75 C71 0.950 . S
H76 C77 0.949 . S
C77 H76 0.949 . S
C77 C78 1.395 . S
C77 C79 1.391 . S
C78 C77 1.395 . S
C78 C81 1.390 . S
C79 C77 1.391 . S
C79 C83 1.387 . S
C79 C84 1.491 . S
H80 C81 0.950 . S
C81 C78 1.390 . S
C81 H80 0.950 . S
C81 C82 1.378 . S
C82 C81 1.378 . S
C82 C83 1.409 . S
C83 C79 1.387 . S
C83 C82 1.409 . S
C83 H85 0.951 . S
C84 C79 1.491 . S
C84 C86 1.382 . S
C84 C88 1.404 . S
H85 C83 0.951 . S
C86 C84 1.382 . S
C86 C87 1.390 . S
C86 H91 0.949 . S
C87 C86 1.390 . S
C87 C92 1.399 . S
C88 C84 1.404 . S
C88 H89 0.950 . S
C88 C90 1.375 . S
H89 C88 0.950 . S
C90 C88 1.375 . S
C90 C92 1.382 . S
C90 H94 0.950 . S
H91 C86 0.949 . S
C92 C87 1.399 . S
C92 C90 1.382 . S
C92 H93 0.952 . S
H93 C92 0.952 . S
H94 C90 0.950 . S
H95 C96 0.949 . S
C96 H95 0.949 . S
C96 C97 1.395 . S
C96 C98 1.391 . S
C97 C96 1.395 . S
C97 C100 1.390 . S
C98 C96 1.391 . S
C98 C102 1.387 . S
C98 C103 1.491 . S
H99 C100 0.950 . S
C100 C97 1.390 . S
C100 H99 0.950 . S
C100 C101 1.378 . S
C101 C100 1.378 . S
C101 C102 1.409 . S
C102 C98 1.387 . S
C102 C101 1.409 . S
C102 H104 0.951 . S
C103 C98 1.491 . S
C103 C105 1.382 . S
C103 C107 1.404 . S
H104 C102 0.951 . S
C105 C103 1.382 . S
C105 C106 1.390 . S
C105 H110 0.949 . S
C106 C105 1.390 . S
C106 C111 1.399 . S
C107 C103 1.404 . S
C107 H108 0.950 . S
C107 C109 1.375 . S
H108 C107 0.950 . S
C109 C107 1.375 . S
C109 C111 1.382 . S
C109 H113 0.950 . S
H110 C105 0.949 . S
C111 C106 1.399 . S
C111 C109 1.382 . S
C111 H112 0.952 . S
H112 C111 0.952 . S
H113 C109 0.950 . S
H114 C115 0.949 . S
C115 H114 0.949 . S
C115 C116 1.395 . S
C115 C117 1.391 . S
C116 C115 1.395 . S
C116 C119 1.390 . S
C117 C115 1.391 . S
C117 C121 1.387 . S
C117 C122 1.491 . S
H118 C119 0.950 . S
C119 C116 1.390 . S
C119 H118 0.950 . S
C119 C120 1.378 . S
C120 C119 1.378 . S
C120 C121 1.409 . S
C121 C117 1.387 . S
C121 C120 1.409 . S
C121 H123 0.951 . S
C122 C117 1.491 . S
C122 C124 1.382 . S
C122 C126 1.404 . S
H123 C121 0.951 . S
C124 C122 1.382 . S
C124 C125 1.390 . S
C124 H129 0.949 . S
C125 C124 1.390 . S
C125 C130 1.399 . S
C126 C122 1.404 . S
C126 H127 0.950 . S
C126 C128 1.375 . S
H127 C126 0.950 . S
C128 C126 1.375 . S
C128 C130 1.382 . S
C128 H132 0.950 . S
H129 C124 0.949 . S
C130 C125 1.399 . S
C130 C128 1.382 . S
C130 H131 0.952 . S
H131 C130 0.952 . S
H132 C128 0.950 . S
H133 C134 0.949 . S
C134 H133 0.949 . S
C134 C135 1.395 . S
C134 C136 1.391 . S
C135 C134 1.395 . S
C135 C138 1.390 . S
C136 C134 1.391 . S
C136 C140 1.387 . S
C136 C141 1.491 . S
H137 C138 0.950 . S
C138 C135 1.390 . S
C138 H137 0.950 . S
C138 C139 1.378 . S
C139 C138 1.378 . S
C139 C140 1.409 . S
C140 C136 1.387 . S
C140 C139 1.409 . S
C140 H142 0.951 . S
C141 C136 1.491 . S
C141 C143 1.382 . S
C141 C145 1.404 . S
H142 C140 0.951 . S
C143 C141 1.382 . S
C143 C144 1.390 . S
C143 H148 0.949 . S
C144 C143 1.390 . S
C144 C149 1.399 . S
C145 C141 1.404 . S
C145 H146 0.950 . S
C145 C147 1.375 . S
H146 C145 0.950 . S
C147 C145 1.375 . S
C147 C149 1.382 . S
C147 H151 0.950 . S
H148 C143 0.949 . S
C149 C144 1.399 . S
C149 C147 1.382 . S
C149 H150 0.952 . S
H150 C149 0.952 . S
H151 C147 0.950 . S
Zn152 O158 1.920 1_455 S
Zn152 O164 1.898 . S
Zn152 O167 1.905 . S
Zn153 O161 1.905 1_655 S
Zn153 O162 1.898 . S
Zn153 O170 1.920 . S
Zn154 O157 2.080 1_455 S
Zn154 O160 2.114 . S
Zn154 O163 2.120 1_455 S
Zn154 O165 2.120 . S
Zn154 O166 2.114 . S
Zn154 O169 2.080 1_455 S
C155 O160 1.166 . S
C155 O161 1.182 . S
C156 O162 1.167 . S
C156 O163 1.299 . S
O157 Zn154 2.080 1_655 S
O157 C171 1.305 . S
O158 Zn152 1.920 1_655 S
O158 C171 1.234 . S
C159 O164 1.167 . S
C159 O165 1.299 . S
O160 Zn154 2.114 . S
O160 C155 1.166 . S
O161 Zn153 1.905 1_455 S
O161 C155 1.182 . S
O162 Zn153 1.898 . S
O162 C156 1.167 . S
O163 Zn154 2.120 1_655 S
O163 C156 1.299 . S
O164 Zn152 1.898 . S
O164 C159 1.167 . S
O165 Zn154 2.120 . S
O165 C159 1.299 . S
O166 Zn154 2.114 . S
O166 C168 1.166 . S
O167 Zn152 1.905 . S
O167 C168 1.182 . S
C168 O166 1.166 . S
C168 O167 1.182 . S
O169 Zn154 2.080 1_655 S
O169 C172 1.305 . S
O170 Zn153 1.920 . S
O170 C172 1.234 . S
C171 O157 1.305 . S
C171 O158 1.234 . S
C172 O169 1.305 . S
C172 O170 1.234 . S
Zn173 O179 1.920 . S
Zn173 O185 1.898 . S
Zn173 O188 1.905 . S
Zn174 O182 1.905 . S
Zn174 O183 1.898 . S
Zn174 O191 1.920 . S
Zn175 O178 2.080 . S
Zn175 O181 2.114 . S
Zn175 O184 2.120 . S
Zn175 O186 2.120 . S
Zn175 O187 2.114 . S
Zn175 O190 2.080 . S
C176 O181 1.166 . S
C176 O182 1.182 . S
C177 O183 1.167 . S
C177 O184 1.299 . S
O178 Zn175 2.080 . S
O178 C192 1.305 . S
O179 Zn173 1.920 . S
O179 C192 1.234 . S
C180 O185 1.167 . S
C180 O186 1.299 . S
O181 Zn175 2.114 . S
O181 C176 1.166 . S
O182 Zn174 1.905 . S
O182 C176 1.182 . S
O183 Zn174 1.898 . S
O183 C177 1.167 . S
O184 Zn175 2.120 . S
O184 C177 1.299 . S
O185 Zn173 1.898 . S
O185 C180 1.167 . S
O186 Zn175 2.120 . S
O186 C180 1.299 . S
O187 Zn175 2.114 . S
O187 C189 1.166 . S
O188 Zn173 1.905 . S
O188 C189 1.182 . S
C189 O187 1.166 . S
C189 O188 1.182 . S
O190 Zn175 2.080 . S
O190 C193 1.305 . S
O191 Zn174 1.920 . S
O191 C193 1.234 . S
C192 O178 1.305 . S
C192 O179 1.234 . S
C193 O190 1.305 . S
C193 O191 1.234 . S
Zn194 O200 1.920 . S
Zn194 O206 1.898 . S
Zn194 O209 1.905 1_455 S
Zn195 O203 1.905 . S
Zn195 O204 1.898 . S
Zn195 O212 1.920 1_655 S
Zn196 O199 2.090 . S
Zn196 O202 2.103 1_455 S
Zn196 O205 2.110 1_455 S
Zn196 O207 2.131 . S
Zn196 O208 2.106 1_455 S
Zn196 O211 2.089 . S
C197 O202 1.166 . S
C197 O203 1.182 . S
C198 O204 1.167 . S
C198 O205 1.299 . S
O199 Zn196 2.090 . S
O199 C213 1.305 . S
O200 Zn194 1.920 . S
O200 C213 1.234 . S
C201 O206 1.167 . S
C201 O207 1.299 . S
O202 Zn196 2.103 1_655 S
O202 C197 1.166 . S
O203 Zn195 1.905 . S
O203 C197 1.182 . S
O204 Zn195 1.898 . S
O204 C198 1.167 . S
O205 Zn196 2.110 1_655 S
O205 C198 1.299 . S
O206 Zn194 1.898 . S
O206 C201 1.167 . S
O207 Zn196 2.131 . S
O207 C201 1.299 . S
O208 Zn196 2.106 1_655 S
O208 C210 1.166 . S
O209 Zn194 1.905 1_655 S
O209 C210 1.182 . S
C210 O208 1.166 . S
C210 O209 1.182 . S
O211 Zn196 2.089 . S
O211 C214 1.305 . S
O212 Zn195 1.920 1_455 S
O212 C214 1.234 . S
C213 O199 1.305 . S
C213 O200 1.234 . S
C214 O211 1.305 . S
C214 O212 1.234 . S
Zn215 O221 1.920 . S
Zn215 O227 1.898 . S
Zn215 O230 1.905 . S
Zn216 O224 1.905 . S
Zn216 O225 1.898 . S
Zn216 O233 1.920 . S
Zn217 O220 2.080 . S
Zn217 O223 2.114 . S
Zn217 O226 2.120 . S
Zn217 O228 2.120 . S
Zn217 O229 2.114 . S
Zn217 O232 2.080 . S
C218 O223 1.166 . S
C218 O224 1.182 . S
C219 O225 1.167 . S
C219 O226 1.299 . S
O220 Zn217 2.080 . S
O220 C234 1.305 . S
O221 Zn215 1.920 . S
O221 C234 1.234 . S
C222 O227 1.167 . S
C222 O228 1.299 . S
O223 Zn217 2.114 . S
O223 C218 1.166 . S
O224 Zn216 1.905 . S
O224 C218 1.182 . S
O225 Zn216 1.898 . S
O225 C219 1.167 . S
O226 Zn217 2.120 . S
O226 C219 1.299 . S
O227 Zn215 1.898 . S
O227 C222 1.167 . S
O228 Zn217 2.120 . S
O228 C222 1.299 . S
O229 Zn217 2.114 . S
O229 C231 1.166 . S
O230 Zn215 1.905 . S
O230 C231 1.182 . S
C231 O229 1.166 . S
C231 O230 1.182 . S
O232 Zn217 2.080 . S
O232 C235 1.305 . S
O233 Zn216 1.920 . S
O233 C235 1.234 . S
C234 O220 1.305 . S
C234 O221 1.234 . S
C235 O232 1.305 . S
C235 O233 1.234 . S
H236 C242 0.930 . S
H237 C245 0.930 . S
H238 C246 0.930 . S
H239 C247 0.930 . S
H240 C250 0.930 . S
H241 C251 0.930 . S
C242 H236 0.930 . S
C242 C243 1.355 . S
C242 C244 1.415 . S
C243 C242 1.355 . S
C243 C245 1.419 . S
C244 C242 1.415 . S
C244 C249 1.425 . S
C244 C251 1.409 . S
C245 H237 0.930 . S
C245 C243 1.419 . S
C245 C246 1.362 . S
C246 H238 0.930 . S
C246 C245 1.362 . S
C246 C249 1.409 . S
C247 H239 0.930 . S
C247 C248 1.355 1_565 S
C247 C249 1.415 . S
C248 C247 1.355 1_545 S
C248 C250 1.419 . S
C249 C244 1.425 . S
C249 C246 1.409 . S
C249 C247 1.415 . S
C250 H240 0.930 . S
C250 C248 1.419 . S
C250 C251 1.362 1_545 S
C251 H241 0.930 . S
C251 C244 1.409 . S
C251 C250 1.362 1_565 S
H252 C258 0.930 . S
H253 C261 0.930 . S
H254 C262 0.930 . S
H255 C263 0.930 . S
H256 C266 0.930 . S
H257 C267 0.930 . S
C258 H252 0.930 . S
C258 C259 1.355 . S
C258 C260 1.415 . S
C259 C258 1.355 . S
C259 C261 1.419 . S
C260 C258 1.415 . S
C260 C265 1.425 . S
C260 C267 1.409 . S
C261 H253 0.930 . S
C261 C259 1.419 . S
C261 C262 1.362 . S
C262 H254 0.930 . S
C262 C261 1.362 . S
C262 C265 1.409 . S
C263 H255 0.930 . S
C263 C264 1.355 . S
C263 C265 1.415 . S
C264 C263 1.355 . S
C264 C266 1.419 . S
C265 C260 1.425 . S
C265 C262 1.409 . S
C265 C263 1.415 . S
C266 H256 0.930 . S
C266 C264 1.419 . S
C266 C267 1.362 . S
C267 H257 0.930 . S
C267 C260 1.409 . S
C267 C266 1.362 . S
H268 C274 0.930 . S
H269 C277 0.930 . S
H270 C278 0.930 . S
H271 C279 0.930 . S
H272 C282 0.930 . S
H273 C283 0.930 . S
C274 H268 0.930 . S
C274 C275 1.355 . S
C274 C276 1.415 . S
C275 C274 1.355 . S
C275 C277 1.419 . S
C276 C274 1.415 . S
C276 C281 1.425 . S
C276 C283 1.409 . S
C277 H269 0.930 . S
C277 C275 1.419 . S
C277 C278 1.362 . S
C278 H270 0.930 . S
C278 C277 1.362 . S
C278 C281 1.409 . S
C279 H271 0.930 . S
C279 C280 1.355 . S
C279 C281 1.415 . S
C280 C279 1.355 . S
C280 C282 1.419 . S
C281 C276 1.425 . S
C281 C278 1.409 . S
C281 C279 1.415 . S
C282 H272 0.930 . S
C282 C280 1.419 . S
C282 C283 1.362 . S
C283 H273 0.930 . S
C283 C276 1.409 . S
C283 C282 1.362 . S
H284 C290 0.930 . S
H285 C293 0.930 . S
H286 C294 0.930 . S
H287 C295 0.930 1_545 S
H288 C298 0.930 . S
H289 C299 0.930 . S
C290 H284 0.930 . S
C290 C291 1.355 . S
C290 C292 1.415 . S
C291 C290 1.355 . S
C291 C293 1.419 . S
C292 C290 1.415 . S
C292 C297 1.425 . S
C292 C299 1.409 . S
C293 H285 0.930 . S
C293 C291 1.419 . S
C293 C294 1.362 . S
C294 H286 0.930 . S
C294 C293 1.362 . S
C294 C297 1.409 . S
C295 H287 0.930 1_565 S
C295 C296 1.355 . S
C295 C297 1.415 . S
C296 C295 1.355 . S
C296 C298 1.419 . S
C297 C292 1.425 . S
C297 C294 1.409 . S
C297 C295 1.415 . S
C298 H288 0.930 . S
C298 C296 1.419 . S
C298 C299 1.362 . S
C299 H289 0.930 . S
C299 C292 1.409 . S
C299 C298 1.362 . S
H300 C306 0.930 . S
H301 C309 0.930 . S
H302 C310 0.930 . S
H303 C311 0.930 . S
H304 C314 0.930 . S
H305 C315 0.930 . S
C306 H300 0.930 . S
C306 C307 1.355 . S
C306 C308 1.415 . S
C307 C306 1.355 . S
C307 C309 1.419 . S
C308 C306 1.415 . S
C308 C313 1.425 . S
C308 C315 1.409 . S
C309 H301 0.930 . S
C309 C307 1.419 . S
C309 C310 1.362 . S
C310 H302 0.930 . S
C310 C309 1.362 . S
C310 C313 1.409 . S
C311 H303 0.930 . S
C311 C312 1.354 . S
C311 C313 1.415 . S
C312 C311 1.354 . S
C312 C314 1.419 . S
C313 C308 1.425 . S
C313 C310 1.409 . S
C313 C311 1.415 . S
C314 H304 0.930 . S
C314 C312 1.419 . S
C314 C315 1.362 . S
C315 H305 0.930 . S
C315 C308 1.409 . S
C315 C314 1.362 . S
H316 C322 0.930 . S
H317 C325 0.930 . S
H318 C326 0.930 . S
H319 C327 0.930 . S
H320 C330 0.930 . S
H321 C331 0.930 . S
C322 H316 0.930 . S
C322 C323 1.355 . S
C322 C324 1.415 . S
C323 C322 1.355 . S
C323 C325 1.419 . S
C324 C322 1.415 . S
C324 C329 1.425 . S
C324 C331 1.409 . S
C325 H317 0.930 . S
C325 C323 1.419 . S
C325 C326 1.362 . S
C326 H318 0.930 . S
C326 C325 1.362 . S
C326 C329 1.409 . S
C327 H319 0.930 . S
C327 C328 1.355 . S
C327 C329 1.415 . S
C328 C327 1.355 . S
C328 C330 1.419 . S
C329 C324 1.425 . S
C329 C326 1.409 . S
C329 C327 1.415 . S
C330 H320 0.930 . S
C330 C328 1.419 . S
C330 C331 1.362 . S
C331 H321 0.930 . S
C331 C324 1.409 . S
C331 C330 1.362 . S
H332 C338 0.930 . S
H333 C341 0.930 . S
H334 C342 0.930 . S
H335 C343 0.930 . S
H336 C346 0.930 . S
H337 C347 0.930 . S
C338 H332 0.930 . S
C338 C339 1.355 . S
C338 C340 1.415 . S
C339 C338 1.355 . S
C339 C341 1.419 . S
C340 C338 1.415 . S
C340 C345 1.425 . S
C340 C347 1.409 . S
C341 H333 0.930 . S
C341 C339 1.419 . S
C341 C342 1.362 . S
C342 H334 0.930 . S
C342 C341 1.362 . S
C342 C345 1.409 . S
C343 H335 0.930 . S
C343 C344 1.355 . S
C343 C345 1.415 . S
C344 C343 1.355 . S
C344 C346 1.419 . S
C345 C340 1.425 . S
C345 C342 1.409 . S
C345 C343 1.415 . S
C346 H336 0.930 . S
C346 C344 1.419 . S
C346 C347 1.362 . S
C347 H337 0.930 . S
C347 C340 1.409 . S
C347 C346 1.362 . S
H348 C354 0.930 . S
H349 C357 0.930 . S
H350 C358 0.930 . S
H351 C359 0.930 . S
H352 C362 0.930 1_565 S
H353 C363 0.930 . S
C354 H348 0.930 . S
C354 C355 1.355 . S
C354 C356 1.415 . S
C355 C354 1.355 . S
C355 C357 1.419 . S
C356 C354 1.415 . S
C356 C361 1.425 . S
C356 C363 1.409 . S
C357 H349 0.930 . S
C357 C355 1.419 . S
C357 C358 1.362 . S
C358 H350 0.930 . S
C358 C357 1.362 . S
C358 C361 1.409 . S
C359 H351 0.930 . S
C359 C360 1.353 . S
C359 C361 1.415 . S
C360 C359 1.353 . S
C360 C362 1.419 . S
C361 C356 1.425 . S
C361 C358 1.409 . S
C361 C359 1.415 . S
C362 H352 0.930 1_545 S
C362 C360 1.419 . S
C362 C363 1.362 . S
C363 H353 0.930 . S
C363 C356 1.409 . S
C363 C362 1.362 . S
H364 C370 0.930 . S
H365 C373 0.930 1_556 S
H366 C374 0.930 . S
H367 C375 0.930 . S
H368 C378 0.930 . S
H369 C379 0.930 . S
C370 H364 0.930 . S
C370 C371 1.355 1_554 S
C370 C372 1.415 . S
C371 C370 1.355 1_556 S
C371 C373 1.419 1_556 S
C372 C370 1.415 . S
C372 C377 1.425 . S
C372 C379 1.409 . S
C373 H365 0.930 1_554 S
C373 C371 1.419 1_554 S
C373 C374 1.362 . S
C374 H366 0.930 . S
C374 C373 1.362 . S
C374 C377 1.409 . S
C375 H367 0.930 . S
C375 C376 1.355 . S
C375 C377 1.415 . S
C376 C375 1.355 . S
C376 C378 1.419 . S
C377 C372 1.425 . S
C377 C374 1.409 . S
C377 C375 1.415 . S
C378 H368 0.930 . S
C378 C376 1.419 . S
C378 C379 1.362 . S
C379 H369 0.930 . S
C379 C372 1.409 . S
C379 C378 1.362 . S
H380 C386 0.930 . S
H381 C389 0.930 . S
H382 C390 0.930 . S
H383 C391 0.930 . S
H384 C394 0.930 . S
H385 C395 0.930 . S
C386 H380 0.930 . S
C386 C387 1.355 . S
C386 C388 1.415 . S
C387 C386 1.355 . S
C387 C389 1.419 . S
C388 C386 1.415 . S
C388 C393 1.425 . S
C388 C395 1.409 . S
C389 H381 0.930 . S
C389 C387 1.419 . S
C389 C390 1.362 . S
C390 H382 0.930 . S
C390 C389 1.362 . S
C390 C393 1.409 . S
C391 H383 0.930 . S
C391 C392 1.355 . S
C391 C393 1.415 . S
C392 C391 1.355 . S
C392 C394 1.419 . S
C393 C388 1.425 . S
C393 C390 1.409 . S
C393 C391 1.415 . S
C394 H384 0.930 . S
C394 C392 1.419 . S
C394 C395 1.362 . S
C395 H385 0.930 . S
C395 C388 1.409 . S
C395 C394 1.362 . S
H396 C402 0.930 . S
H397 C405 0.930 . S
H398 C406 0.930 . S
H399 C407 0.930 . S
H400 C410 0.930 . S
H401 C411 0.930 . S
C402 H396 0.930 . S
C402 C403 1.355 1_556 S
C402 C404 1.415 . S
C403 C402 1.355 1_554 S
C403 C405 1.419 . S
C404 C402 1.415 . S
C404 C409 1.425 . S
C404 C411 1.409 . S
C405 H397 0.930 . S
C405 C403 1.419 . S
C405 C406 1.362 1_554 S
C406 H398 0.930 . S
C406 C405 1.362 1_556 S
C406 C409 1.409 . S
C407 H399 0.930 . S
C407 C408 1.355 . S
C407 C409 1.415 . S
C408 C407 1.355 . S
C408 C410 1.419 . S
C409 C404 1.425 . S
C409 C406 1.409 . S
C409 C407 1.415 . S
C410 H400 0.930 . S
C410 C408 1.419 . S
C410 C411 1.362 . S
C411 H401 0.930 . S
C411 C404 1.409 . S
C411 C410 1.362 . S
H412 C418 0.930 . S
H413 C421 0.930 . S
H414 C422 0.930 . S
H415 C423 0.930 . S
H416 C426 0.930 . S
H417 C427 0.930 . S
C418 H412 0.930 . S
C418 C419 1.355 . S
C418 C420 1.415 . S
C419 C418 1.355 . S
C419 C421 1.419 . S
C420 C418 1.415 . S
C420 C425 1.425 . S
C420 C427 1.409 . S
C421 H413 0.930 . S
C421 C419 1.419 . S
C421 C422 1.362 . S
C422 H414 0.930 . S
C422 C421 1.362 . S
C422 C425 1.409 . S
C423 H415 0.930 . S
C423 C424 1.355 . S
C423 C425 1.415 . S
C424 C423 1.355 . S
C424 C426 1.419 . S
C425 C420 1.425 . S
C425 C422 1.409 . S
C425 C423 1.415 . S
C426 H416 0.930 . S
C426 C424 1.419 . S
C426 C427 1.362 . S
C427 H417 0.930 . S
C427 C420 1.409 . S
C427 C426 1.362 . S
H428 C434 0.930 1_554 S
H429 C437 0.930 . S
H430 C438 0.930 . S
H431 C439 0.930 . S
H432 C442 0.930 . S
H433 C443 0.930 . S
C434 H428 0.930 1_556 S
C434 C435 1.355 1_556 S
C434 C436 1.415 . S
C435 C434 1.355 1_554 S
C435 C437 1.419 1_554 S
C436 C434 1.415 . S
C436 C441 1.425 . S
C436 C443 1.409 . S
C437 H429 0.930 . S
C437 C435 1.419 1_556 S
C437 C438 1.362 . S
C438 H430 0.930 . S
C438 C437 1.362 . S
C438 C441 1.409 . S
C439 H431 0.930 . S
C439 C440 1.355 . S
C439 C441 1.415 . S
C440 C439 1.355 . S
C440 C442 1.419 . S
C441 C436 1.425 . S
C441 C438 1.409 . S
C441 C439 1.415 . S
C442 H432 0.930 . S
C442 C440 1.419 . S
C442 C443 1.362 . S
C443 H433 0.930 . S
C443 C436 1.409 . S
C443 C442 1.362 . S
H444 C450 0.930 . S
H445 C453 0.930 . S
H446 C454 0.930 . S
H447 C455 0.930 . S
H448 C458 0.930 . S
H449 C459 0.930 . S
C450 H444 0.930 . S
C450 C451 1.355 . S
C450 C452 1.415 . S
C451 C450 1.355 . S
C451 C453 1.419 . S
C452 C450 1.415 . S
C452 C457 1.425 . S
C452 C459 1.409 . S
C453 H445 0.930 . S
C453 C451 1.419 . S
C453 C454 1.362 . S
C454 H446 0.930 . S
C454 C453 1.362 . S
C454 C457 1.409 . S
C455 H447 0.930 . S
C455 C456 1.355 . S
C455 C457 1.415 . S
C456 C455 1.355 . S
C456 C458 1.419 . S
C457 C452 1.425 . S
C457 C454 1.409 . S
C457 C455 1.415 . S
C458 H448 0.930 . S
C458 C456 1.419 . S
C458 C459 1.362 . S
C459 H449 0.930 . S
C459 C452 1.409 . S
C459 C458 1.362 . S
H460 C466 0.930 . S
H461 C469 0.930 . S
H462 C470 0.930 . S
H463 C471 0.930 . S
H464 C474 0.930 . S
H465 C475 0.930 . S
C466 H460 0.930 . S
C466 C467 1.355 1_554 S
C466 C468 1.415 . S
C467 C466 1.355 1_556 S
C467 C469 1.419 . S
C468 C466 1.415 . S
C468 C473 1.425 . S
C468 C475 1.409 . S
C469 H461 0.930 . S
C469 C467 1.419 . S
C469 C470 1.362 1_556 S
C470 H462 0.930 . S
C470 C469 1.362 1_554 S
C470 C473 1.409 . S
C471 H463 0.930 . S
C471 C472 1.355 . S
C471 C473 1.415 . S
C472 C471 1.355 . S
C472 C474 1.419 . S
C473 C468 1.425 . S
C473 C470 1.409 . S
C473 C471 1.415 . S
C474 H464 0.930 . S
C474 C472 1.419 . S
C474 C475 1.362 . S
C475 H465 0.930 . S
C475 C468 1.409 . S
C475 C474 1.362 . S
H476 C482 0.930 . S
H477 C485 0.930 . S
H478 C486 0.930 . S
H479 C487 0.930 . S
H480 C490 0.930 . S
H481 C491 0.930 . S
C482 H476 0.930 . S
C482 C483 1.355 . S
C482 C484 1.415 . S
C483 C482 1.355 . S
C483 C485 1.419 . S
C484 C482 1.415 . S
C484 C489 1.425 . S
C484 C491 1.409 . S
C485 H477 0.930 . S
C485 C483 1.419 . S
C485 C486 1.362 . S
C486 H478 0.930 . S
C486 C485 1.362 . S
C486 C489 1.409 . S
C487 H479 0.930 . S
C487 C488 1.355 . S
C487 C489 1.415 . S
C488 C487 1.355 . S
C488 C490 1.419 . S
C489 C484 1.425 . S
C489 C486 1.409 . S
C489 C487 1.415 . S
C490 H480 0.930 . S
C490 C488 1.419 . S
C490 C491 1.362 . S
C491 H481 0.930 . S
C491 C484 1.409 . S
C491 C490 1.362 . S
H492 C498 0.930 . S
H493 C501 0.930 . S
H494 C502 0.930 . S
H495 C503 0.930 . S
H496 C506 0.930 . S
H497 C507 0.930 . S
C498 H492 0.930 . S
C498 C499 1.355 . S
C498 C500 1.415 . S
C499 C498 1.355 . S
C499 C501 1.419 . S
C500 C498 1.415 . S
C500 C505 1.425 . S
C500 C507 1.409 . S
C501 H493 0.930 . S
C501 C499 1.419 . S
C501 C502 1.362 . S
C502 H494 0.930 . S
C502 C501 1.362 . S
C502 C505 1.409 . S
C503 H495 0.930 . S
C503 C504 1.355 . S
C503 C505 1.415 . S
C504 C503 1.355 . S
C504 C506 1.419 . S
C505 C500 1.425 . S
C505 C502 1.409 . S
C505 C503 1.415 . S
C506 H496 0.930 . S
C506 C504 1.419 . S
C506 C507 1.362 . S
C507 H497 0.930 . S
C507 C500 1.409 . S
C507 C506 1.362 . S
H508 C514 0.930 . S
H509 C517 0.930 . S
H510 C518 0.930 . S
H511 C519 0.930 . S
H512 C522 0.930 . S
H513 C523 0.930 . S
C514 H508 0.930 . S
C514 C515 1.355 . S
C514 C516 1.415 . S
C515 C514 1.355 . S
C515 C517 1.419 . S
C516 C514 1.415 . S
C516 C521 1.425 . S
C516 C523 1.409 . S
C517 H509 0.930 . S
C517 C515 1.419 . S
C517 C518 1.362 . S
C518 H510 0.930 . S
C518 C517 1.362 . S
C518 C521 1.409 . S
C519 H511 0.930 . S
C519 C520 1.355 . S
C519 C521 1.415 . S
C520 C519 1.355 . S
C520 C522 1.419 . S
C521 C516 1.425 . S
C521 C518 1.409 . S
C521 C519 1.415 . S
C522 H512 0.930 . S
C522 C520 1.419 . S
C522 C523 1.362 . S
C523 H513 0.930 . S
C523 C516 1.409 . S
C523 C522 1.362 . S
H524 C530 0.930 . S
H525 C533 0.930 . S
H526 C534 0.930 . S
H527 C535 0.930 . S
H528 C538 0.930 . S
H529 C539 0.930 . S
C530 H524 0.930 . S
C530 C531 1.355 . S
C530 C532 1.415 . S
C531 C530 1.355 . S
C531 C533 1.419 . S
C532 C530 1.415 . S
C532 C537 1.425 . S
C532 C539 1.409 . S
C533 H525 0.930 . S
C533 C531 1.419 . S
C533 C534 1.362 . S
C534 H526 0.930 . S
C534 C533 1.362 . S
C534 C537 1.409 . S
C535 H527 0.930 . S
C535 C536 1.355 . S
C535 C537 1.415 . S
C536 C535 1.355 . S
C536 C538 1.419 . S
C537 C532 1.425 . S
C537 C534 1.409 . S
C537 C535 1.415 . S
C538 H528 0.930 . S
C538 C536 1.419 . S
C538 C539 1.362 . S
C539 H529 0.930 . S
C539 C532 1.409 . S
C539 C538 1.362 . S
H540 C546 0.930 . S
H541 C549 0.930 . S
H542 C550 0.930 . S
H543 C551 0.930 . S
H544 C554 0.930 . S
H545 C555 0.930 . S
C546 H540 0.930 . S
C546 C547 1.355 . S
C546 C548 1.415 . S
C547 C546 1.355 . S
C547 C549 1.419 . S
C548 C546 1.415 . S
C548 C553 1.425 . S
C548 C555 1.409 . S
C549 H541 0.930 . S
C549 C547 1.419 . S
C549 C550 1.362 . S
C550 H542 0.930 . S
C550 C549 1.362 . S
C550 C553 1.409 . S
C551 H543 0.930 . S
C551 C552 1.355 . S
C551 C553 1.415 . S
C552 C551 1.355 . S
C552 C554 1.419 . S
C553 C548 1.425 . S
C553 C550 1.409 . S
C553 C551 1.415 . S
C554 H544 0.930 . S
C554 C552 1.419 . S
C554 C555 1.362 . S
C555 H545 0.930 . S
C555 C548 1.409 . S
C555 C554 1.362 . S
H556 C562 0.930 . S
H557 C565 0.930 . S
H558 C566 0.930 . S
H559 C567 0.930 . S
H560 C570 0.930 . S
H561 C571 0.930 . S
C562 H556 0.930 . S
C562 C563 1.355 . S
C562 C564 1.415 . S
C563 C562 1.355 . S
C563 C565 1.419 . S
C564 C562 1.415 . S
C564 C569 1.425 . S
C564 C571 1.409 . S
C565 H557 0.930 . S
C565 C563 1.419 . S
C565 C566 1.362 . S
C566 H558 0.930 . S
C566 C565 1.362 . S
C566 C569 1.409 . S
C567 H559 0.930 . S
C567 C568 1.355 . S
C567 C569 1.415 . S
C568 C567 1.355 . S
C568 C570 1.419 . S
C569 C564 1.425 . S
C569 C566 1.409 . S
C569 C567 1.415 . S
C570 H560 0.930 . S
C570 C568 1.419 . S
C570 C571 1.362 . S
C571 H561 0.930 . S
C571 C564 1.409 . S
C571 C570 1.362 . S
H572 C578 0.930 . S
H573 C581 0.930 . S
H574 C582 0.930 . S
H575 C583 0.930 . S
H576 C586 0.930 . S
H577 C587 0.930 . S
C578 H572 0.930 . S
C578 C579 1.355 . S
C578 C580 1.415 . S
C579 C578 1.355 . S
C579 C581 1.419 . S
C580 C578 1.415 . S
C580 C585 1.425 . S
C580 C587 1.409 . S
C581 H573 0.930 . S
C581 C579 1.419 . S
C581 C582 1.362 . S
C582 H574 0.930 . S
C582 C581 1.362 . S
C582 C585 1.409 . S
C583 H575 0.930 . S
C583 C584 1.355 . S
C583 C585 1.415 . S
C584 C583 1.355 . S
C584 C586 1.419 . S
C585 C580 1.425 . S
C585 C582 1.409 . S
C585 C583 1.415 . S
C586 H576 0.930 . S
C586 C584 1.419 . S
C586 C587 1.362 . S
C587 H577 0.930 . S
C587 C580 1.409 . S
C587 C586 1.362 . S
H588 C594 0.930 . S
H589 C597 0.930 . S
H590 C598 0.930 . S
H591 C599 0.930 . S
H592 C602 0.930 . S
H593 C603 0.930 . S
C594 H588 0.930 . S
C594 C595 1.355 . S
C594 C596 1.415 . S
C595 C594 1.355 . S
C595 C597 1.419 . S
C596 C594 1.415 . S
C596 C601 1.425 . S
C596 C603 1.409 . S
C597 H589 0.930 . S
C597 C595 1.419 . S
C597 C598 1.362 . S
C598 H590 0.930 . S
C598 C597 1.362 . S
C598 C601 1.409 . S
C599 H591 0.930 . S
C599 C600 1.355 . S
C599 C601 1.415 . S
C600 C599 1.355 . S
C600 C602 1.419 . S
C601 C596 1.425 . S
C601 C598 1.409 . S
C601 C599 1.415 . S
C602 H592 0.930 . S
C602 C600 1.419 . S
C602 C603 1.362 . S
C603 H593 0.930 . S
C603 C596 1.409 . S
C603 C602 1.362 . S
H604 C610 0.930 . S
H605 C613 0.930 . S
H606 C614 0.930 . S
H607 C615 0.930 . S
H608 C618 0.930 . S
H609 C619 0.930 . S
C610 H604 0.930 . S
C610 C611 1.355 . S
C610 C612 1.415 . S
C611 C610 1.355 . S
C611 C613 1.419 . S
C612 C610 1.415 . S
C612 C617 1.425 . S
C612 C619 1.409 . S
C613 H605 0.930 . S
C613 C611 1.419 . S
C613 C614 1.362 . S
C614 H606 0.930 . S
C614 C613 1.362 . S
C614 C617 1.409 . S
C615 H607 0.930 . S
C615 C616 1.355 . S
C615 C617 1.415 . S
C616 C615 1.355 . S
C616 C618 1.419 . S
C617 C612 1.425 . S
C617 C614 1.409 . S
C617 C615 1.415 . S
C618 H608 0.930 . S
C618 C616 1.419 . S
C618 C619 1.362 . S
C619 H609 0.930 . S
C619 C612 1.409 . S
C619 C618 1.362 . S
C243 C116 1.449 . S
C248 C168 1.342 . S
C264 C176 1.420 . S
C259 C135 1.401 . S
C280 C180 1.370 . S
C275 C78 1.418 . S
C291 C97 1.419 . S
C296 C156 1.431 1_565 S
C312 C197 1.400 1_545 S
C307 C40 1.460 . S
C328 C231 1.339 . S
C323 C59 1.457 . S
C339 C2 1.475 . S
C344 C219 1.351 . S
C355 C21 1.414 . S
C360 C201 1.380 1_545 S
C376 C155 1.360 . S
C371 C25 1.528 . S
C392 C189 1.378 . S
C387 C6 1.549 . S
C408 C193 1.451 . S
C403 C63 1.534 . S
C424 C171 1.341 . S
C419 C44 1.533 . S
C440 C210 1.351 . S
C435 C101 1.546 . S
C451 C82 1.549 . S
C456 C218 1.363 . S
C472 C234 1.411 . S
C467 C139 1.524 . S
C483 C120 1.546 . S
C488 C214 1.376 . S
C504 C159 1.364 . S
C499 C11 1.355 . S
C520 C177 1.364 . S
C515 C30 1.427 . S
C531 C49 1.342 . S
C536 C192 1.380 . S
C552 C172 1.427 . S
C547 C68 1.363 . S
C568 C198 1.414 . S
C563 C87 1.418 . S
C579 C106 1.468 . S
C584 C222 1.323 . S
C595 C125 1.423 . S
C600 C235 1.337 . S
C611 C144 1.361 . S
C616 C213 1.422 . S
