# Generated by pormake.
# Topology zzz, (3,6)-cn, num edge types: 1
# Building blocks:
#     Node 0, Type 0, BuildingBlock: BETDIP_clean_linker_0, # of connection points: 3
#     Node 1, Type 0, BuildingBlock: BETDIP_clean_linker_0, # of connection points: 3
#     Node 2, Type 0, BuildingBlock: BETDIP_clean_linker_0, # of connection points: 3
#     Node 3, Type 0, BuildingBlock: BETDIP_clean_linker_0, # of connection points: 3
#     Node 4, Type 0, BuildingBlock: BETDIP_clean_linker_0, # of connection points: 3
#     Node 5, Type 0, BuildingBlock: BETDIP_clean_linker_0, # of connection points: 3
#     Node 6, Type 0, BuildingBlock: BETDIP_clean_linker_0, # of connection points: 3
#     Node 7, Type 0, BuildingBlock: BETDIP_clean_linker_0, # of connection points: 3
#     Node 8, Type 1, BuildingBlock: KUMBOL_clean_sbu_0, # of connection points: 6
#     Node 9, Type 1, BuildingBlock: KUMBOL_clean_sbu_0, # of connection points: 6
#     Node 10, Type 1, BuildingBlock: KUMBOL_clean_sbu_0, # of connection points: 6
#     Node 11, Type 1, BuildingBlock: KUMBOL_clean_sbu_0, # of connection points: 6
#     Edge 12, Type (0, 1), BuildingBlock: TEMPAE_clean_linker_10, # of connection points: 2
#     Edge 13, Type (0, 1), BuildingBlock: TEMPAE_clean_linker_10, # of connection points: 2
#     Edge 14, Type (0, 1), BuildingBlock: TEMPAE_clean_linker_10, # of connection points: 2
#     Edge 15, Type (0, 1), BuildingBlock: TEMPAE_clean_linker_10, # of connection points: 2
#     Edge 16, Type (0, 1), BuildingBlock: TEMPAE_clean_linker_10, # of connection points: 2
#     Edge 17, Type (0, 1), BuildingBlock: TEMPAE_clean_linker_10, # of connection points: 2
#     Edge 18, Type (0, 1), BuildingBlock: TEMPAE_clean_linker_10, # of connection points: 2
#     Edge 19, Type (0, 1), BuildingBlock: TEMPAE_clean_linker_10, # of connection points: 2
#     Edge 20, Type (0, 1), BuildingBlock: TEMPAE_clean_linker_10, # of connection points: 2
#     Edge 21, Type (0, 1), BuildingBlock: TEMPAE_clean_linker_10, # of connection points: 2
#     Edge 22, Type (0, 1), BuildingBlock: TEMPAE_clean_linker_10, # of connection points: 2
#     Edge 23, Type (0, 1), BuildingBlock: TEMPAE_clean_linker_10, # of connection points: 2
#     Edge 24, Type (0, 1), BuildingBlock: TEMPAE_clean_linker_10, # of connection points: 2
#     Edge 25, Type (0, 1), BuildingBlock: TEMPAE_clean_linker_10, # of connection points: 2
#     Edge 26, Type (0, 1), BuildingBlock: TEMPAE_clean_linker_10, # of connection points: 2
#     Edge 27, Type (0, 1), BuildingBlock: TEMPAE_clean_linker_10, # of connection points: 2
#     Edge 28, Type (0, 1), BuildingBlock: TEMPAE_clean_linker_10, # of connection points: 2
#     Edge 29, Type (0, 1), BuildingBlock: TEMPAE_clean_linker_10, # of connection points: 2
#     Edge 30, Type (0, 1), BuildingBlock: TEMPAE_clean_linker_10, # of connection points: 2
#     Edge 31, Type (0, 1), BuildingBlock: TEMPAE_clean_linker_10, # of connection points: 2
#     Edge 32, Type (0, 1), BuildingBlock: TEMPAE_clean_linker_10, # of connection points: 2
#     Edge 33, Type (0, 1), BuildingBlock: TEMPAE_clean_linker_10, # of connection points: 2
#     Edge 34, Type (0, 1), BuildingBlock: TEMPAE_clean_linker_10, # of connection points: 2
#     Edge 35, Type (0, 1), BuildingBlock: TEMPAE_clean_linker_10, # of connection points: 2
# Relax obj value: 0.175
# Max RMSD: 0.162
# Mean RMSD: 0.115
data_MOF--net-zzz--node1-KUMBOL_clean_sbu_0--node2-BETDIP_clean_linker_0--edge1-TEMPAE_clean_linker_10
_symmetry_space_group_name_H-M    P1
_symmetry_Int_Tables_number       1
_symmetry_cell_setting            triclinic
loop_
_symmetry_equiv_pos_as_xyz
'x, y, z'
_cell_length_a     50.851523
_cell_length_b     50.782569
_cell_length_c     14.793015
_cell_angle_alpha  91.039191
_cell_angle_beta   90.143162
_cell_angle_gamma 89.834262
loop_
_atom_site_label
_atom_site_type_symbol
_atom_site_fract_x
_atom_site_fract_y
_atom_site_fract_z
_atom_type_partial_charge
H0 H 0.75755 0.55662 0.41536 0.0
H1 H 0.74064 0.59184 0.15949 0.0
H2 H 0.81306 0.60849 0.28871 0.0
H3 H 0.69444 0.59652 0.26853 0.0
C4 C 0.6969 0.57611 0.24662 0.0
C5 C 0.76265 0.57054 0.36379 0.0
C6 C 0.78774 0.58363 0.36693 0.0
C7 C 0.74428 0.57569 0.2919 0.0
C8 C 0.75242 0.59142 0.22066 0.0
C9 C 0.77834 0.5997 0.21609 0.0
C10 C 0.79336 0.60066 0.29529 0.0
N11 N 0.71952 0.56235 0.28104 0.0
H12 H 1.00131 0.76794 0.42302 0.0
H13 H 0.96751 0.74993 0.15968 0.0
H14 H 0.96666 0.82844 0.26082 0.0
H15 H 0.95651 0.71047 0.2516 0.0
C16 C 0.97766 0.7073 0.25016 0.0
C17 C 0.99064 0.77406 0.36357 0.0
C18 C 0.98219 0.80109 0.35609 0.0
C19 C 0.98463 0.75495 0.29262 0.0
C20 C 0.97094 0.76342 0.21604 0.0
C21 C 0.96417 0.78967 0.20583 0.0
C22 C 0.96996 0.80786 0.27471 0.0
N23 N 0.99343 0.72782 0.29221 0.0
H24 H 0.77997 1.01142 0.40491 0.0
H25 H 0.79593 0.9565 0.18704 0.0
H26 H 0.72163 0.95519 0.31913 0.0
H27 H 0.84213 0.96127 0.27637 0.0
C28 C 0.83937 0.98068 0.24801 0.0
C29 C 0.77456 0.9941 0.36548 0.0
C30 C 0.74922 0.9825 0.37699 0.0
C31 C 0.79256 0.98322 0.30045 0.0
C32 C 0.78399 0.96229 0.24472 0.0
C33 C 0.75738 0.95557 0.24299 0.0
C34 C 0.74195 0.96176 0.31857 0.0
N35 N 0.81698 0.99575 0.27824 0.0
H36 H 0.54767 0.79575 0.43448 0.0
H37 H 0.59002 0.80303 0.18401 0.0
H38 H 0.58979 0.72969 0.32247 0.0
H39 H 0.59818 0.84685 0.26632 0.0
C40 C 0.57708 0.84906 0.25689 0.0
C41 C 0.56104 0.78765 0.38432 0.0
C42 C 0.56971 0.76104 0.39027 0.0
C43 C 0.56975 0.80355 0.31172 0.0
C44 C 0.58527 0.79189 0.24355 0.0
C45 C 0.59063 0.76491 0.24293 0.0
C46 C 0.58537 0.75058 0.32099 0.0
N47 N 0.5606 0.83003 0.29937 0.0
H48 H 0.29112 0.50113 0.91369 0.0
H49 H 0.3075 0.45667 0.15328 0.0
H50 H 0.23121 0.45341 0.03237 0.0
H51 H 0.31771 0.50826 0.17738 0.0
C52 C 0.33435 0.50189 0.1365 0.0
C53 C 0.28531 0.48657 0.96222 0.0
C54 C 0.25928 0.47585 0.95908 0.0
C55 C 0.30327 0.47895 0.03202 0.0
C56 C 0.29473 0.46111 0.0967 0.0
C57 C 0.26824 0.45441 0.10251 0.0
C58 C 0.25174 0.45905 0.02841 0.0
N59 N 0.32828 0.49151 0.04762 0.0
H60 H 0.0521 0.28914 0.89968 0.0
H61 H 0.08432 0.30439 0.16618 0.0
H62 H 0.09157 0.2281 0.04774 0.0
H63 H 0.03424 0.31753 0.16083 0.0
C64 C 0.04306 0.33377 0.12483 0.0
C65 C 0.06377 0.28289 0.95671 0.0
C66 C 0.07387 0.25631 0.9589 0.0
C67 C 0.06826 0.30088 0.03194 0.0
C68 C 0.0824 0.29184 0.10642 0.0
C69 C 0.08858 0.26537 0.11387 0.0
C70 C 0.08693 0.24874 0.03816 0.0
N71 N 0.05626 0.32663 0.04138 0.0
H72 H 0.26365 0.04568 0.89412 0.0
H73 H 0.24899 0.0969 0.12379 0.0
H74 H 0.32428 0.09689 0.99803 0.0
H75 H 0.23638 0.04532 0.15522 0.0
C76 C 0.2203 0.0519 0.11256 0.0
C77 C 0.26967 0.06189 0.93786 0.0
C78 C 0.29591 0.07193 0.93239 0.0
C79 C 0.25198 0.072 1.00551 0.0
C80 C 0.2612 0.09124 0.0666 0.0
C81 C 0.28792 0.09722 0.07024 0.0
C82 C 0.30365 0.09136 0.99523 0.0
N83 N 0.22668 0.06057 0.02311 0.0
H84 H 0.48104 0.26138 0.8799 0.0
H85 H 0.46455 0.24433 0.15841 0.0
H86 H 0.45674 0.32292 0.06661 0.0
H87 H 0.51776 0.22585 0.07709 0.0
C88 C 0.50085 0.21306 0.06707 0.0
C89 C 0.47371 0.26774 0.94539 0.0
C90 C 0.46721 0.29488 0.96154 0.0
C91 C 0.47173 0.24914 0.01675 0.0
C92 C 0.46387 0.25783 0.10242 0.0
C93 C 0.45942 0.28432 0.12017 0.0
C94 C 0.45918 0.30221 0.04932 0.0
N95 N 0.48046 0.22241 1.00849 0.0
Gd96 Gd 0.99913 0.03732 0.57905 0.0
Gd97 Gd 0.04827 0.01988 0.74551 0.0
C98 C 0.07063 0.07695 0.97337 0.0
C99 C 0.11791 0.07985 0.95589 0.0
C100 C 0.09159 0.05596 0.84348 0.0
C101 C 0.069 0.06194 0.89202 0.0
C102 C 0.11636 0.06457 0.87601 0.0
C103 C 0.09509 0.08609 1.00423 0.0
C104 C 0.04778 0.08142 0.0237 0.0
C105 C 0.02409 0.07089 0.99324 0.0
N106 N 0.04571 0.05174 0.8632 0.0
C107 C 0.02351 0.05597 0.91308 0.0
H108 H 1.00516 0.04828 0.89167 0.0
C109 C 0.11212 0.03057 0.72817 0.0
N110 N 0.08969 0.03994 0.7691 0.0
C111 C 0.13691 0.03923 0.75617 0.0
C112 C 0.13905 0.05642 0.83019 0.0
H113 H 0.11095 1.01579 0.6747 0.0
H114 H 0.09663 0.09744 0.06671 0.0
H115 H 0.04511 1.00529 0.43983 0.0
H116 H 0.04827 0.09272 0.08655 0.0
H117 H 1.00622 0.07418 0.03147 0.0
H118 H 0.13676 0.08635 0.9822 0.0
H119 H 0.93577 0.03739 0.65622 0.0
H120 H 1.00337 0.952 0.27028 0.0
H121 H 0.04441 0.97474 0.31305 0.0
H122 H 0.91599 0.95427 0.38368 0.0
H123 H 0.15441 0.03193 0.72242 0.0
H124 H 0.15837 0.06246 0.85354 0.0
H125 H 0.95618 0.94412 0.29879 0.0
H126 H 0.89471 1.01503 0.62161 0.0
N127 N 1.00384 1.00324 0.46784 0.0
C128 C 1.00328 0.96625 0.32572 0.0
C129 C 0.02638 0.97919 0.34902 0.0
C130 C 0.98043 0.97145 0.37509 0.0
C131 C 0.98122 0.99007 0.44744 0.0
C132 C 0.0264 0.99744 0.42062 0.0
N133 N 0.95939 1.01331 0.56704 0.0
C134 C 0.95859 0.99517 0.49808 0.0
C135 C 0.91259 1.00876 0.58788 0.0
C136 C 0.91176 0.98931 0.52075 0.0
C137 C 0.93641 0.02093 0.60899 0.0
C138 C 0.93472 0.98252 0.47415 0.0
H139 H 0.8931 0.98029 0.50324 0.0
O140 O 0.9669 0.06456 0.55964 0.0
O141 O 0.02523 0.0526 0.69 0.0
O142 O 1.00727 1.00866 0.80062 0.0
O143 O 0.97804 0.03282 0.71312 0.0
O144 O 1.00809 0.08052 0.6135 0.0
O145 O 0.99083 0.0514 0.44503 0.0
O146 O 0.07708 0.98965 0.77222 0.0
O147 O 1.01741 1.00285 0.65153 0.0
O148 O 0.03853 0.0449 0.51261 0.0
O149 O 0.07014 0.03685 0.6238 0.0
O150 O 0.05438 0.98571 0.64736 0.0
O151 O 0.04901 1.00133 0.87654 0.0
C152 C 0.02385 0.07747 0.68034 0.0
C153 C 0.9341 0.96418 0.40231 0.0
C154 C 0.95689 0.95861 0.35332 0.0
C155 C 0.97137 0.06633 0.47309 0.0
C156 C 0.97001 0.09276 0.43654 0.0
C157 C 0.94546 0.10277 0.41051 0.0
C158 C 0.99265 0.10814 0.4278 0.0
C159 C 0.99054 0.13355 0.39404 0.0
C160 C 0.94349 0.1281 0.37615 0.0
C161 C 0.96596 0.14352 0.36805 0.0
C162 C 0.98316 1.01772 0.78289 0.0
C163 C 0.03058 0.98366 0.61796 0.0
C164 C 0.06934 0.98673 0.85512 0.0
C165 C 0.0712 0.96026 0.89084 0.0
C166 C 0.09634 0.94997 0.90774 0.0
C167 C 0.04883 0.94559 0.91117 0.0
C168 C 0.05169 0.9209 0.9506 0.0
C169 C 0.09917 0.92526 0.94599 0.0
C170 C 0.07694 0.91079 0.96796 0.0
C171 C 0.06332 0.04379 0.54061 0.0
H172 H 0.92786 0.09097 0.4168 0.0
H173 H 1.01176 0.10046 0.44697 0.0
H174 H 0.92454 0.13576 0.35575 0.0
H175 H 0.96427 0.16313 0.34084 0.0
H176 H 0.11379 0.96119 0.892 0.0
H177 H 0.02937 0.95348 0.89813 0.0
H178 H 0.11859 0.91739 0.95903 0.0
H179 H 0.07943 0.89159 0.99766 0.0
Gd180 Gd 0.51552 1.00137 0.57083 0.0
Gd181 Gd 0.52916 0.05066 0.73624 0.0
C182 C 0.47347 0.07078 0.96847 0.0
C183 C 0.47311 0.11855 0.96532 0.0
C184 C 0.49585 0.09329 0.84764 0.0
C185 C 0.48925 0.07002 0.88996 0.0
C186 C 0.48788 0.11779 0.88535 0.0
C187 C 0.46574 0.09512 1.0063 0.0
C188 C 0.46549 0.04708 1.00602 0.0
C189 C 0.47277 0.02336 0.96453 0.0
N190 N 0.49711 0.0467 0.85193 0.0
C191 C 0.48861 0.02348 0.88756 0.0
H192 H 0.4933 1.00475 0.85661 0.0
C193 C 0.51794 0.11474 0.7295 0.0
N194 N 0.50995 0.092 0.76975 0.0
C195 C 0.5103 0.13935 0.7639 0.0
C196 C 0.49518 0.14091 0.84217 0.0
H197 H 0.53129 0.11405 0.67267 0.0
H198 H 0.45382 0.096 0.06686 0.0
H199 H 0.55168 0.04778 0.45463 0.0
H200 H 0.45331 0.04688 0.066 0.0
H201 H 0.46623 1.00488 0.99194 0.0
H202 H 0.46697 0.13717 0.99535 0.0
H203 H 0.51279 0.93758 0.62888 0.0
H204 H 0.59481 1.00677 0.25027 0.0
H205 H 0.58039 0.0484 0.32349 0.0
H206 H 0.58149 0.9161 0.31611 0.0
H207 H 0.51671 0.15713 0.73133 0.0
H208 H 0.48959 0.16006 0.8695 0.0
H209 H 0.59584 0.95763 0.25037 0.0
H210 H 0.52847 0.89483 0.5711 0.0
N211 N 0.54805 1.00579 0.45673 0.0
C212 C 0.58172 1.00625 0.30789 0.0
C213 C 0.57361 0.02976 0.34893 0.0
C214 C 0.57343 0.98234 0.3431 0.0
C215 C 0.55644 0.98268 0.41853 0.0
C216 C 0.5568 0.02921 0.42336 0.0
N217 N 0.5349 0.96016 0.53546 0.0
C218 C 0.54968 0.95923 0.45916 0.0
C219 C 0.53503 0.91276 0.53986 0.0
C220 C 0.55101 0.91159 0.46364 0.0
C221 C 0.5268 0.9372 0.57402 0.0
C222 C 0.55848 0.93491 0.42214 0.0
H223 H 0.5572 0.89258 0.43671 0.0
O224 O 0.48629 0.97152 0.54628 0.0
O225 O 0.49591 0.03291 0.65743 0.0
O226 O 0.53647 1.01109 0.80385 0.0
O227 O 0.53055 0.97866 0.69255 0.0
O228 O 0.48056 0.99554 0.66158 0.0
O229 O 0.49539 0.99933 0.44107 0.0
O230 O 0.55916 0.08004 0.75998 0.0
O231 O 0.54883 0.01894 0.65097 0.0
O232 O 0.50815 0.04071 0.50236 0.0
O233 O 0.51296 0.07301 0.61467 0.0
O234 O 0.56448 0.0562 0.64705 0.0
O235 O 0.54791 0.05371 0.86776 0.0
C236 C 0.4768 0.01957 0.68732 0.0
C237 C 0.5745 0.93456 0.34516 0.0
C238 C 0.58234 0.95821 0.30683 0.0
C239 C 0.48136 0.97903 0.4646 0.0
C240 C 0.4537 0.97819 0.43929 0.0
C241 C 0.44149 0.9535 0.43092 0.0
C242 C 0.43925 1.00119 0.42528 0.0
C243 C 0.41265 0.99938 0.40267 0.0
C244 C 0.41489 0.9518 0.40879 0.0
C245 C 0.40043 0.9747 0.39465 0.0
C246 C 0.5358 0.98594 0.77728 0.0
C247 C 0.56825 0.03209 0.62211 0.0
C248 C 0.56252 0.07354 0.84384 0.0
C249 C 0.58936 0.07493 0.87783 0.0
C250 C 0.60039 0.09987 0.89414 0.0
C251 C 0.6038 0.0522 0.89647 0.0
C252 C 0.62901 0.05459 0.93312 0.0
C253 C 0.6257 0.10213 0.92985 0.0
C254 C 0.63999 0.07952 0.94982 0.0
C255 C 0.50804 0.06578 0.52951 0.0
H256 H 0.45256 0.93556 0.44174 0.0
H257 H 0.44856 0.02035 0.43129 0.0
H258 H 0.40555 0.93274 0.4019 0.0
H259 H 0.37989 0.97321 0.37553 0.0
H260 H 0.58931 0.11759 0.87991 0.0
H261 H 0.5954 0.03285 0.88405 0.0
H262 H 0.63411 0.12139 0.94283 0.0
H263 H 0.65951 0.08141 0.97872 0.0
Gd264 Gd 0.49972 0.53576 0.74304 0.0
Gd265 Gd 0.54861 0.5167 0.58446 0.0
C266 C 0.62971 0.49838 0.70035 0.0
C267 C 0.65778 0.5262 0.61052 0.0
C268 C 0.61018 0.52825 0.59269 0.0
C269 C 0.60729 0.50883 0.657 0.0
C270 C 0.63559 0.53647 0.56698 0.0
C271 C 0.65484 0.50741 0.67759 0.0
C272 C 0.62638 0.47854 0.76354 0.0
C273 C 0.6013 0.46895 0.78039 0.0
N274 N 0.58286 0.49929 0.67427 0.0
C275 C 0.57977 0.47923 0.73397 0.0
H276 H 0.56076 0.47156 0.74962 0.0
C277 C 0.59112 0.55309 0.47578 0.0
N278 N 0.58847 0.5376 0.55018 0.0
C279 C 0.61576 0.56188 0.44851 0.0
C280 C 0.63811 0.55379 0.495 0.0
H281 H 0.57407 0.55841 0.43617 0.0
H282 H 0.67221 0.49941 0.70974 0.0
H283 H 0.4902 0.58476 0.58669 0.0
H284 H 0.64309 0.47023 0.79867 0.0
H285 H 0.5985 0.45353 0.82897 0.0
H286 H 0.67738 0.53225 0.5914 0.0
H287 H 0.47115 0.48853 0.86762 0.0
H288 H 0.40814 0.5962 0.55772 0.0
H289 H 0.45373 0.6099 0.52808 0.0
H290 H 0.3701 0.52822 0.7318 0.0
H291 H 0.61752 0.57438 0.39031 0.0
H292 H 0.65728 0.56021 0.4726 0.0
H293 H 0.37734 0.56549 0.6319 0.0
H294 H 0.42694 0.47363 0.90457 0.0
N295 N 0.46664 0.55687 0.65669 0.0
C296 C 0.42432 0.58498 0.58543 0.0
C297 C 0.44997 0.59291 0.56925 0.0
C298 C 0.41982 0.5628 0.63751 0.0
C299 C 0.4416 0.54885 0.67267 0.0
C300 C 0.4709 0.57854 0.60477 0.0
N301 N 0.45859 0.51518 0.76524 0.0
C302 C 0.43748 0.52745 0.72808 0.0
C303 C 0.42958 0.48833 0.8533 0.0
C304 C 0.40785 0.49998 0.813 0.0
C305 C 0.45478 0.49651 0.83007 0.0
C306 C 0.41155 0.52001 0.75078 0.0
H307 H 0.38827 0.49405 0.83293 0.0
O308 O 0.49169 0.53473 0.88616 0.0
O309 O 0.54352 0.53545 0.72201 0.0
O310 O 0.52969 0.47806 0.63111 0.0
O311 O 0.50033 0.49108 0.74384 0.0
O312 O 0.52952 0.52082 0.84231 0.0
O313 O 0.48565 0.57088 0.81304 0.0
O314 O 0.55243 0.51453 0.43892 0.0
O315 O 0.50481 0.51686 0.60614 0.0
O316 O 0.52018 0.57386 0.698 0.0
O317 O 0.55068 0.56142 0.58807 0.0
O318 O 0.51819 0.53211 0.48665 0.0
O319 O 0.56714 0.48267 0.52151 0.0
C320 C 0.55047 0.52674 0.79866 0.0
C321 C 0.39005 0.5336 0.71456 0.0
C322 C 0.39417 0.55487 0.6579 0.0
C323 C 0.48502 0.55942 0.89136 0.0
C324 C 0.49467 0.5741 0.97076 0.0
C325 C 0.49456 0.56218 0.05577 0.0
C326 C 0.50254 0.60034 0.96372 0.0
C327 C 0.51059 0.61459 0.04061 0.0
C328 C 0.50255 0.5763 0.13262 0.0
C329 C 0.5106 0.60239 0.1253 0.0
C330 C 0.51254 0.47262 0.6959 0.0
C331 C 0.49736 0.52621 0.53109 0.0
C332 C 0.56519 0.49234 0.44054 0.0
C333 C 0.56026 0.47407 0.36627 0.0
C334 C 0.57505 0.47629 0.28693 0.0
C335 C 0.54191 0.45397 0.37465 0.0
C336 C 0.53861 0.43575 0.3039 0.0
C337 C 0.57168 0.45809 0.21623 0.0
C338 C 0.55344 0.43791 0.22431 0.0
C339 C 0.53795 0.57978 0.6354 0.0
H340 H 0.48811 0.542 0.06282 0.0
H341 H 0.50212 0.60986 0.89871 0.0
H342 H 0.50252 0.56702 0.19792 0.0
H343 H 0.51719 0.61287 0.18558 0.0
H344 H 0.58948 0.49181 0.28048 0.0
H345 H 0.53058 0.45227 0.43634 0.0
H346 H 0.58357 0.45916 0.15596 0.0
H347 H 0.55146 0.42356 0.16964 0.0
Gd348 Gd 1.01155 0.50377 0.74817 0.0
Gd349 Gd 0.03349 0.54782 0.58573 0.0
C350 C 0.06567 0.62922 0.65496 0.0
C351 C 0.04092 0.65692 0.55318 0.0
C352 C 0.0309 0.61017 0.56252 0.0
C353 C 0.05065 0.60721 0.62621 0.0
C354 C 0.026 0.63508 0.52479 0.0
C355 C 0.0607 0.654 0.61807 0.0
C356 C 0.08502 0.62582 0.72107 0.0
C357 C 0.08866 0.60112 0.75853 0.0
N358 N 0.05472 0.58307 0.66217 0.0
C359 C 0.07333 0.57993 0.72837 0.0
H360 H 0.07611 0.56148 0.7612 0.0
C361 C 0.99901 0.59057 0.46652 0.0
N362 N 1.01707 0.58862 0.53525 0.0
C363 C 0.9933 0.61485 0.42806 0.0
C364 C 1.00675 0.63725 0.45766 0.0
H365 H 0.98972 0.57318 0.4379 0.0
H366 H 0.07203 0.67105 0.63946 0.0
H367 H 0.9622 0.49356 0.59053 0.0
H368 H 0.09686 0.64223 0.74501 0.0
H369 H 0.10316 0.59838 0.81126 0.0
H370 H 0.03745 0.67615 0.5248 0.0
H371 H 0.0535 0.47462 0.89254 0.0
H372 H 0.95563 0.41154 0.54006 0.0
H373 H 0.94019 0.45696 0.51653 0.0
H374 H 0.02112 0.37375 0.7284 0.0
H375 H 0.97906 0.61611 0.37378 0.0
H376 H 1.0026 0.65599 0.42662 0.0
H377 H 0.98592 0.38092 0.61804 0.0
H378 H 0.06877 0.43046 0.92952 0.0
N379 N 0.99082 0.4703 0.65913 0.0
C380 C 0.96568 0.4278 0.5735 0.0
C381 C 0.95679 0.45334 0.56062 0.0
C382 C 0.98707 0.42345 0.6307 0.0
C383 C 0.99961 0.44532 0.6728 0.0
C384 C 0.96951 0.47435 0.60408 0.0
N385 N 0.03106 0.46234 0.77692 0.0
C386 C 0.02014 0.44125 0.73332 0.0
C387 C 0.05566 0.43316 0.87262 0.0
C388 C 0.04605 0.4115 0.82446 0.0
C389 C 0.04742 0.45835 0.84954 0.0
C390 C 0.02767 0.41527 0.75539 0.0
H391 H 0.05196 0.39188 0.84402 0.0
O392 O 1.01109 0.49841 0.89256 0.0
O393 O 1.0136 0.54764 0.72268 0.0
O394 O 0.07043 0.52886 0.6461 0.0
O395 O 0.056 0.50186 0.75967 0.0
O396 O 0.02668 0.53502 0.84537 0.0
O397 O 0.9767 0.48823 0.81213 0.0
O398 O 0.03774 0.55193 0.44048 0.0
O399 O 0.03116 0.50448 0.61194 0.0
O400 O 0.97434 0.52572 0.69942 0.0
O401 O 0.98873 0.55045 0.57829 0.0
O402 O 1.01516 0.51775 0.49185 0.0
O403 O 0.07262 0.55156 0.52919 0.0
C404 C 0.02199 0.55592 0.79987 0.0
C405 C 1.01558 0.39372 0.71199 0.0
C406 C 0.99546 0.39781 0.64946 0.0
C407 C 0.98786 0.48793 0.89172 0.0
C408 C 0.97177 0.49311 0.97076 0.0
C409 C 0.97759 0.47996 0.051 0.0
C410 C 0.95066 0.51053 0.96712 0.0
C411 C 0.93507 0.51466 0.04348 0.0
C412 C 0.96218 0.48428 0.12768 0.0
C413 C 0.94089 0.5016 0.12413 0.0
C414 C 0.07516 0.51279 0.71393 0.0
C415 C 0.02127 0.49705 0.53624 0.0
C416 C 0.06311 0.55423 0.44796 0.0
C417 C 0.0799 0.55789 0.36975 0.0
C418 C 0.0734 0.5764 0.30432 0.0
C419 C 0.10351 0.54396 0.36387 0.0
C420 C 0.12136 0.54884 0.2941 0.0
C421 C 0.09094 0.58139 0.23435 0.0
C422 C 0.11492 0.5679 0.22949 0.0
C423 C 0.96961 0.54118 0.62921 0.0
H424 H 0.99399 0.46631 0.05409 0.0
H425 H 0.94633 0.52081 0.9051 0.0
H426 H 0.96659 0.47407 0.1895 0.0
H427 H 0.92872 0.50445 0.18355 0.0
H428 H 0.05515 0.58743 0.30875 0.0
H429 H 0.10769 0.52908 0.41356 0.0
H430 H 0.08612 0.59597 0.18444 0.0
H431 H 0.1284 0.57257 0.17565 0.0
C432 C 0.17705 0.07334 0.16145 0.0
C433 C 0.19332 0.05097 0.15393 0.0
C434 C 0.15481 0.07375 0.21969 0.0
C435 C 0.14838 0.05122 0.27105 0.0
C436 C 0.16391 0.02818 0.25873 0.0
C437 C 0.18633 0.02858 0.2026 0.0
C438 C 0.13879 0.09867 0.22935 0.0
C439 C 0.15708 1.00305 0.30608 0.0
C440 C 0.11073 0.05406 0.49732 0.0
C441 C 0.08472 0.0483 0.47148 0.0
C442 C 0.13118 0.05614 0.43283 0.0
C443 C 0.12601 0.05165 0.3392 0.0
C444 C 0.09963 0.04642 0.3125 0.0
C445 C 0.07948 0.0454 0.37818 0.0
C446 C 0.15847 0.06319 0.46525 0.0
C447 C 0.09205 0.04111 0.2151 0.0
H448 H 0.18254 0.091 0.1261 0.0
H449 H 0.19889 1.01132 0.19813 0.0
H450 H 0.11756 0.0943 0.2206 0.0
H451 H 0.14142 0.10707 0.29858 0.0
H452 H 0.14457 0.11369 0.17953 0.0
H453 H 0.16952 0.98621 0.28312 0.0
H454 H 0.15966 1.00575 0.38012 0.0
H455 H 0.13613 0.99803 0.29355 0.0
H456 H 0.11515 0.05722 0.5682 0.0
H457 H 0.05958 0.04142 0.35565 0.0
H458 H 0.16565 0.08064 0.42864 0.0
H459 H 0.17225 0.04674 0.45025 0.0
H460 H 0.1591 0.06758 0.53908 0.0
H461 H 0.0765 0.05524 0.19487 0.0
H462 H 0.08344 0.02108 0.20874 0.0
H463 H 0.10863 0.04251 0.16697 0.0
C464 C 0.47535 0.17646 0.14621 0.0
C465 C 0.49896 0.18971 0.12808 0.0
C466 C 0.4745 0.15586 0.21004 0.0
C467 C 0.4977 0.14826 0.25705 0.0
C468 C 0.52154 0.16126 0.23695 0.0
C469 C 0.52178 0.18179 0.17405 0.0
C470 C 0.44877 0.14222 0.22767 0.0
C471 C 0.54702 0.15333 0.28156 0.0
C472 C 0.49761 0.11289 0.48515 0.0
C473 C 0.50293 0.08658 0.46 0.0
C474 C 0.4948 0.1328 0.41995 0.0
C475 C 0.49752 0.12658 0.32631 0.0
C476 C 0.50221 0.09988 0.30049 0.0
C477 C 0.50463 0.0804 0.36707 0.0
C478 C 0.4894 0.16069 0.45167 0.0
C479 C 0.50548 0.09125 0.203 0.0
H480 H 0.45752 0.18246 0.11193 0.0
H481 H 0.54012 0.19185 0.16081 0.0
H482 H 0.45105 0.12068 0.21606 0.0
H483 H 0.44311 0.1453 0.29952 0.0
H484 H 0.43265 0.14953 0.18387 0.0
H485 H 0.564 0.16502 0.25775 0.0
H486 H 0.54543 0.15591 0.35598 0.0
H487 H 0.55101 0.13216 0.26721 0.0
H488 H 0.49569 0.11806 0.55607 0.0
H489 H 0.50867 0.06026 0.34564 0.0
H490 H 0.47154 0.16834 0.4176 0.0
H491 H 0.50604 0.17357 0.43299 0.0
H492 H 0.48654 0.16221 0.52604 0.0
H493 H 0.49031 0.07629 0.18574 0.0
H494 H 0.52492 0.08152 0.1942 0.0
H495 H 0.50397 0.10751 0.15436 0.0
C496 C 0.38481 0.50053 0.14812 0.0
C497 C 0.35983 0.49859 0.18769 0.0
C498 C 0.40797 0.50168 0.20242 0.0
C499 C 0.40626 0.50064 0.29863 0.0
C500 C 0.38112 0.49702 0.33762 0.0
C501 C 0.35849 0.49621 0.28219 0.0
C502 C 0.43426 0.50481 0.15692 0.0
C503 C 0.3777 0.49591 0.4389 0.0
C504 C 0.46547 0.49288 0.46207 0.0
C505 C 0.4726 0.51923 0.47989 0.0
C506 C 0.44498 0.48634 0.39994 0.0
C507 C 0.42982 0.5066 0.35921 0.0
C508 C 0.43666 0.53313 0.37936 0.0
C509 C 0.45887 0.53887 0.43357 0.0
C510 C 0.44027 0.45779 0.37514 0.0
C511 C 0.42048 0.55568 0.34379 0.0
H512 H 0.38619 0.50239 0.07542 0.0
H513 H 0.33934 0.49451 0.31368 0.0
H514 H 0.44319 0.52393 0.17721 0.0
H515 H 0.44791 0.48908 0.17905 0.0
H516 H 0.43263 0.50399 0.082 0.0
H517 H 0.35782 0.48891 0.45784 0.0
H518 H 0.39253 0.48276 0.46964 0.0
H519 H 0.38061 0.51591 0.46879 0.0
H520 H 0.47694 0.47734 0.49253 0.0
H521 H 0.46562 0.55896 0.43872 0.0
H522 H 0.44312 0.45478 0.30128 0.0
H523 H 0.41969 0.45226 0.39034 0.0
H524 H 0.45378 0.44436 0.41143 0.0
H525 H 0.42223 0.55645 0.26922 0.0
H526 H 0.42671 0.57497 0.3731 0.0
H527 H 0.39939 0.55271 0.35991 0.0
C528 C 0.0489 0.38422 0.14469 0.0
C529 C 0.04618 0.35895 0.18084 0.0
C530 C 0.04761 0.40734 0.20102 0.0
C531 C 0.04398 0.40535 0.29662 0.0
C532 C 0.04251 0.37974 0.33296 0.0
C533 C 0.04356 0.35725 0.27534 0.0
C534 C 0.04967 0.43367 0.15599 0.0
C535 C 0.03808 0.37597 0.43288 0.0
C536 C 0.05266 0.46123 0.4776 0.0
C537 C 0.02715 0.47194 0.4836 0.0
C538 C 0.05885 0.44068 0.41409 0.0
C539 C 0.03882 0.42931 0.35827 0.0
C540 C 1.01309 0.44005 0.36522 0.0
C541 C 1.00799 0.46171 0.42409 0.0
C542 C 0.08707 0.43206 0.4033 0.0
C543 C 0.99081 0.42886 0.30926 0.0
H544 H 0.05089 0.38609 0.07214 0.0
H545 H 0.04155 0.33795 0.30471 0.0
H546 H 0.04496 0.4506 0.20152 0.0
H547 H 0.07001 0.43615 0.13047 0.0
H548 H 0.03634 0.4342 0.09641 0.0
H549 H 0.03908 0.35493 0.45187 0.0
H550 H 0.05289 0.38704 0.47334 0.0
H551 H 0.01844 0.38388 0.45186 0.0
H552 H 0.06813 0.46992 0.51883 0.0
H553 H 0.98875 0.47088 0.423 0.0
H554 H 0.09341 0.43534 0.33259 0.0
H555 H 0.08905 0.41068 0.41573 0.0
H556 H 0.10052 0.44298 0.44981 0.0
H557 H 0.99471 0.43209 0.23653 0.0
H558 H 0.97158 0.43799 0.32703 0.0
H559 H 0.9894 0.40728 0.31905 0.0
C560 C 0.88511 0.97957 0.18676 0.0
C561 C 0.8593 0.98916 0.17928 0.0
C562 C 0.90425 0.98388 0.11973 0.0
C563 C 0.89764 0.99795 0.04077 0.0
C564 C 0.87128 1.0072 0.03146 0.0
C565 C 0.85257 1.00305 0.10116 0.0
C566 C 0.9316 0.97333 0.13592 0.0
C567 C 0.86245 0.0201 0.94544 0.0
C568 C 0.95245 0.03236 0.90844 0.0
C569 C 0.96111 1.01259 0.84771 0.0
C570 C 0.93215 0.02777 0.97139 0.0
C571 C 0.91846 1.00344 0.96992 0.0
C572 C 0.92608 0.98394 0.90454 0.0
C573 C 0.94761 0.98851 0.84608 0.0
C574 C 0.92592 0.04882 0.04151 0.0
C575 C 0.9122 0.95777 0.8977 0.0
H576 H 0.89041 0.96837 0.24581 0.0
H577 H 0.83243 1.0096 0.09256 0.0
H578 H 0.94312 0.97031 0.0732 0.0
H579 H 0.94241 0.98748 0.18027 0.0
H580 H 0.93062 0.95422 0.17094 0.0
H581 H 0.8419 0.02748 0.94983 0.0
H582 H 0.87554 0.03672 0.9287 0.0
H583 H 0.86377 1.00555 0.88864 0.0
H584 H 0.96178 0.05147 0.90807 0.0
H585 H 0.95364 0.97329 0.79805 0.0
H586 H 0.92755 0.04052 0.11024 0.0
H587 H 0.9054 0.05582 0.03301 0.0
H588 H 0.9393 0.06601 0.03729 0.0
H589 H 0.92165 0.94383 0.94482 0.0
H590 H 0.91368 0.94916 0.82828 0.0
H591 H 0.89111 0.95956 0.91601 0.0
C592 C 0.58789 0.88035 0.13446 0.0
C593 C 0.5684 0.86797 0.18566 0.0
C594 C 0.58161 0.89855 0.06694 0.0
C595 C 0.55499 0.90509 0.04975 0.0
C596 C 0.53506 0.89249 0.10063 0.0
C597 C 0.54196 0.87396 0.16752 0.0
C598 C 0.60366 0.91103 0.01469 0.0
C599 C 0.50646 0.89889 0.08505 0.0
C600 C 0.54385 0.97201 0.93845 0.0
C601 C 0.54072 0.9651 0.84662 0.0
C602 C 0.54764 0.95277 1.005 0.0
C603 C 0.5484 0.92563 0.98033 0.0
C604 C 0.54492 0.91847 0.88793 0.0
C605 C 0.5414 0.93817 0.82268 0.0
C606 C 0.55208 0.96179 0.10132 0.0
C607 C 0.54558 0.88996 0.85725 0.0
H608 H 0.60838 0.87575 0.1473 0.0
H609 H 0.52672 0.86448 0.20621 0.0
H610 H 0.60026 0.90852 0.94093 0.0
H611 H 0.60421 0.93249 0.02992 0.0
H612 H 0.62317 0.90248 0.03143 0.0
H613 H 0.49328 0.88779 0.13034 0.0
H614 H 0.50306 0.9203 0.09637 0.0
H615 H 0.50106 0.89423 0.01382 0.0
H616 H 0.54346 0.99262 0.95884 0.0
H617 H 0.53946 0.93228 0.75264 0.0
H618 H 0.57347 0.96104 0.1151 0.0
H619 H 0.54204 0.94873 0.14962 0.0
H620 H 0.54528 0.98235 0.11349 0.0
H621 H 0.56588 0.88217 0.86405 0.0
H622 H 0.53927 0.88737 0.78567 0.0
H623 H 0.53267 0.87792 0.90041 0.0
C624 C 0.68326 0.5464 0.11136 0.0
C625 C 0.6774 0.56595 0.17698 0.0
C626 C 0.66498 0.53976 0.04131 0.0
C627 C 0.64013 0.55272 0.03662 0.0
C628 C 0.63426 0.57226 0.10345 0.0
C629 C 0.65287 0.57868 0.17135 0.0
C630 C 0.67228 0.51896 0.97169 0.0
C631 C 0.60791 0.58605 0.10485 0.0
C632 C 0.59419 0.55107 0.82635 0.0
C633 C 0.57577 0.53178 0.8499 0.0
C634 C 0.61584 0.5574 0.88407 0.0
C635 C 0.61917 0.54441 0.96807 0.0
C636 C 0.60081 0.52463 0.9904 0.0
C637 C 0.5798 0.51848 0.93129 0.0
C638 C 0.63459 0.57874 0.85682 0.0
C639 C 0.60274 0.51018 0.07831 0.0
H640 H 0.70229 0.53679 0.11328 0.0
H641 H 0.64812 0.5939 0.22107 0.0
H642 H 0.65781 0.50265 0.97282 0.0
H643 H 0.67151 0.52744 0.90308 0.0
H644 H 0.69225 0.51076 0.98326 0.0
H645 H 0.60681 0.60175 0.15803 0.0
H646 H 0.60384 0.59496 0.03831 0.0
H647 H 0.59214 0.57152 0.1174 0.0
H648 H 0.59126 0.56178 0.7644 0.0
H649 H 0.56588 0.50344 0.95038 0.0
H650 H 0.65518 0.57157 0.8614 0.0
H651 H 0.63266 0.59585 0.90411 0.0
H652 H 0.63081 0.5855 0.78695 0.0
H653 H 0.6183 0.49488 0.07263 0.0
H654 H 0.58386 0.50056 0.09475 0.0
H655 H 0.60796 0.5236 0.13551 0.0
C656 C 1.00761 0.66971 0.19206 0.0
C657 C 0.9867 0.68742 0.17891 0.0
C658 C 1.01243 0.64839 0.13002 0.0
C659 C 0.9964 0.64476 0.05147 0.0
C660 C 0.97564 0.66298 0.03762 0.0
C661 C 0.971 0.68367 0.10111 0.0
C662 C 0.0342 0.62915 0.15002 0.0
C663 C 0.95757 0.66004 0.95697 0.0
C664 C 0.0221 0.60547 0.84331 0.0
C665 C 1.01191 0.57998 0.85347 0.0
C666 C 0.01758 0.62624 0.90683 0.0
C667 C 1.00132 0.62231 0.9831 0.0
C668 C 0.98933 0.59717 0.99126 0.0
C669 C 0.99519 0.57645 0.92832 0.0
C670 C 0.03102 0.65236 0.89348 0.0
C671 C 0.97081 0.5914 0.06771 0.0
H672 H 0.01945 0.67177 0.25275 0.0
H673 H 0.95453 0.69687 0.09051 0.0
H674 H 0.02592 0.60905 0.15593 0.0
H675 H 0.04846 0.62858 0.09331 0.0
H676 H 0.04484 0.63426 0.21361 0.0
H677 H 0.9428 0.67616 0.95377 0.0
H678 H 0.96912 0.6598 0.89343 0.0
H679 H 0.94706 0.64095 0.96017 0.0
H680 H 0.03449 0.60944 0.78791 0.0
H681 H 0.98693 0.5571 0.93901 0.0
H682 H 0.04431 0.65662 0.95153 0.0
H683 H 1.01625 0.66846 0.89144 0.0
H684 H 0.04273 0.65272 0.83028 0.0
H685 H 0.98201 0.58212 0.12322 0.0
H686 H 0.95546 0.57727 0.04484 0.0
H687 H 0.96099 0.60937 0.09503 0.0
C688 C 0.09911 0.23566 0.24129 0.0
C689 C 0.08173 0.25288 0.19884 0.0
C690 C 0.08933 0.21595 0.29719 0.0
C691 C 0.06177 0.2126 0.30377 0.0
C692 C 0.04438 0.2311 0.26532 0.0
C693 C 0.05477 0.2518 0.21707 0.0
C694 C 0.1083 0.19745 0.34225 0.0
C695 C 1.01482 0.22737 0.26494 0.0
C696 C 0.02812 0.14733 0.30195 0.0
C697 C 1.01393 0.14967 0.38233 0.0
C698 C 0.04631 0.16663 0.27885 0.0
C699 C 0.05049 0.18824 0.33924 0.0
C700 C 0.0381 0.18909 0.42464 0.0
C701 C 0.01953 0.16982 0.44485 0.0
C702 C 0.05812 0.16564 0.1851 0.0
C703 C 0.04275 0.2116 0.49094 0.0
H704 H 0.11992 0.23647 0.22595 0.0
H705 H 0.0414 0.26492 0.1823 0.0
H706 H 0.10072 0.19127 0.4089 0.0
H707 H 0.11095 0.17952 0.29933 0.0
H708 H 0.12788 0.20675 0.3519 0.0
H709 H 1.00432 0.24331 0.22896 0.0
H710 H 1.00979 0.20834 0.23117 0.0
H711 H 1.0072 0.22678 0.33493 0.0
H712 H 0.02338 0.13161 0.25403 0.0
H713 H 1.00842 0.17125 0.50724 0.0
H714 H 0.07941 0.17018 0.18743 0.0
H715 H 0.0485 0.18073 0.14273 0.0
H716 H 0.05547 0.14609 0.15141 0.0
H717 H 0.06416 0.21529 0.49835 0.0
H718 H 0.03428 0.20764 0.55849 0.0
H719 H 0.03368 0.22991 0.46536 0.0
C720 C 0.31965 0.10877 0.19398 0.0
C721 C 0.30097 0.09167 0.15624 0.0
C722 C 0.33834 0.09925 0.25534 0.0
C723 C 0.33913 0.07194 0.27271 0.0
C724 C 0.31935 0.055 0.23829 0.0
C725 C 0.29994 0.06539 0.18346 0.0
C726 C 0.35832 0.11792 0.2959 0.0
C727 C 0.32027 0.02541 0.25009 0.0
C728 C 0.40154 0.03361 0.29396 0.0
C729 C 0.39796 0.02294 0.37931 0.0
C730 C 0.38357 0.05188 0.26067 0.0
C731 C 0.36212 0.05986 0.31585 0.0
C732 C 0.35986 0.05072 0.40517 0.0
C733 C 0.37792 0.03212 0.43604 0.0
C734 C 0.38569 0.05993 0.16298 0.0
C735 C 0.33703 0.05881 0.46459 0.0
H736 H 0.32058 0.12896 0.17171 0.0
H737 H 0.28588 0.052 0.1522 0.0
H738 H 0.36343 0.1123 0.36599 0.0
H739 H 0.37659 0.11723 0.25516 0.0
H740 H 0.35092 0.13852 0.29667 0.0
H741 H 0.30322 1.01524 0.21804 0.0
H742 H 0.33853 1.0173 0.21926 0.0
H743 H 0.32056 0.02043 0.32267 0.0
H744 H 0.41711 0.02603 0.25066 0.0
H745 H 0.37554 0.02361 0.5022 0.0
H746 H 0.38569 0.08166 0.15814 0.0
H747 H 0.36838 0.05253 0.12438 0.0
H748 H 0.40378 0.05214 0.12999 0.0
H749 H 0.33796 0.08036 0.4778 0.0
H750 H 0.33694 0.04815 0.52942 0.0
H751 H 0.31799 0.05491 0.43038 0.0
C752 C 0.45074 0.30996 0.26144 0.0
C753 C 0.46786 0.2949 0.20783 0.0
C754 C 0.46072 0.33063 0.3151 0.0
C755 C 0.48751 0.33742 0.30595 0.0
C756 C 0.50519 0.31999 0.26135 0.0
C757 C 0.49507 0.2978 0.21749 0.0
C758 C 0.44213 0.34756 0.37021 0.0
C759 C 0.53405 0.32627 0.24813 0.0
C760 C 0.50355 0.40668 0.24609 0.0
C761 C 0.52115 0.41329 0.31508 0.0
C762 C 0.49066 0.38256 0.24598 0.0
C763 C 0.49529 0.36506 0.31818 0.0
C764 C 0.51139 0.37267 0.39189 0.0
C765 C 0.52427 0.3969 0.38949 0.0
C766 C 0.47476 0.37476 0.16321 0.0
C767 C 0.51708 0.35429 0.4685 0.0
H768 H 0.42968 0.3073 0.25471 0.0
H769 H 0.50812 0.28556 0.17653 0.0
H770 H 0.45211 0.35555 0.43167 0.0
H771 H 0.43544 0.36446 0.32953 0.0
H772 H 0.42453 0.33623 0.39063 0.0
H773 H 0.54237 0.31558 0.18847 0.0
H774 H 0.53755 0.34759 0.23875 0.0
H775 H 0.54526 0.32002 0.30841 0.0
H776 H 0.50117 0.41974 0.18937 0.0
H777 H 0.53813 0.40217 0.44261 0.0
H778 H 0.45513 0.36739 0.18256 0.0
H779 H 0.48512 0.3587 0.12574 0.0
H780 H 0.47188 0.39142 0.1165 0.0
H781 H 0.49934 0.34283 0.48629 0.0
H782 H 0.52427 0.36522 0.52929 0.0
H783 H 0.53262 0.34011 0.44758 0.0
C784 C 0.2319 0.44305 0.20632 0.0
C785 C 0.25565 0.45629 0.19235 0.0
C786 C 0.21074 0.45651 0.24647 0.0
C787 C 0.21389 0.48339 0.2704 0.0
C788 C 0.23919 0.49461 0.27426 0.0
C789 C 0.26029 0.47997 0.24041 0.0
C790 C 0.18431 0.44326 0.25189 0.0
C791 C 0.24345 0.52308 0.30211 0.0
C792 C 0.1563 0.52578 0.20392 0.0
C793 C 0.14613 0.53341 0.28834 0.0
C794 C 0.17885 0.51006 0.19768 0.0
C795 C 0.19068 0.50066 0.2775 0.0
C796 C 0.18091 0.50846 0.36261 0.0
C797 C 0.15904 0.5252 0.36728 0.0
C798 C 0.1903 0.50389 0.10573 0.0
C799 C 0.19315 0.49915 0.4492 0.0
H800 H 0.22858 0.42413 0.17317 0.0
H801 H 0.27914 0.48963 0.23538 0.0
H802 H 0.17399 0.44935 0.315 0.0
H803 H 0.17192 0.44927 0.19389 0.0
H804 H 0.18627 0.42146 0.24972 0.0
H805 H 0.26436 0.5291 0.29652 0.0
H806 H 0.2314 0.53614 0.25895 0.0
H807 H 0.23706 0.52634 0.37303 0.0
H808 H 0.14648 0.53172 0.14247 0.0
H809 H 0.15198 0.53163 0.43306 0.0
H810 H 0.18999 0.48237 0.09206 0.0
H811 H 0.21113 0.51032 0.10361 0.0
H812 H 0.1793 0.51382 0.0513 0.0
H813 H 0.17803 0.48854 0.48812 0.0
H814 H 0.19996 0.51654 0.48915 0.0
H815 H 0.21018 0.48572 0.44012 0.0
C816 C 0.97859 0.79722 0.0524 0.0
C817 C 0.95835 0.80015 0.11571 0.0
C818 C 0.98755 0.81921 1.00659 0.0
C819 C 0.97477 0.84366 0.02197 0.0
C820 C 0.95025 0.84463 0.06639 0.0
C821 C 0.94164 0.82214 0.1108 0.0
C822 C 1.01325 0.81725 0.95599 0.0
C823 C 0.93549 0.87021 0.07942 0.0
C824 C 0.02629 0.89524 0.06029 0.0
C825 C 0.0285 0.90532 0.97345 0.0
C826 C 1.00709 0.87661 0.07941 0.0
C827 C 0.9899 0.86797 1.00934 0.0
C828 C 0.99056 0.8799 0.92402 0.0
C829 C 1.00995 0.89864 0.90684 0.0
C830 C 1.00644 0.86499 0.17276 0.0
C831 C 0.97215 0.87184 0.84856 0.0
H832 H 0.99077 0.77965 0.05256 0.0
H833 H 0.92514 0.82379 0.15691 0.0
H834 H 1.01241 0.82881 0.89314 0.0
H835 H 0.02925 0.82549 0.99911 0.0
H836 H 0.01836 0.79651 0.9382 0.0
H837 H 0.91465 0.86679 0.0981 0.0
H838 H 0.94488 0.88195 0.13464 0.0
H839 H 0.93618 0.88203 0.01706 0.0
H840 H 0.04035 0.90112 0.11206 0.0
H841 H 1.01156 0.90679 0.8398 0.0
H842 H 1.0104 0.8435 0.16853 0.0
H843 H 0.98665 0.86785 0.20274 0.0
H844 H 0.02114 0.87414 0.21916 0.0
H845 H 0.98358 0.86241 0.79284 0.0
H846 H 0.96253 0.88965 0.82198 0.0
H847 H 0.95642 0.85819 0.86958 0.0
C848 C 0.74577 0.98543 0.12231 0.0
C849 C 0.74362 0.95997 0.15697 0.0
C850 C 0.72554 0.99629 0.07196 0.0
C851 C 0.70365 0.98044 0.04891 0.0
C852 C 0.70319 0.95351 0.07174 0.0
C853 C 0.72293 0.94367 0.12857 0.0
C854 C 0.72611 0.02562 0.05495 0.0
C855 C 0.68074 0.93591 0.0429 0.0
C856 C 0.64354 0.02299 0.04693 0.0
C857 C 0.64379 0.03117 0.95744 0.0
C858 C 0.66154 1.00415 0.07623 0.0
C859 C 0.68001 0.99355 0.01373 0.0
C860 C 0.67896 1.00052 0.92171 0.0
C861 C 0.66058 0.0193 0.8943 0.0
C862 C 0.66274 0.99804 0.17582 0.0
C863 C 0.69878 0.99001 0.85438 0.0
H864 H 0.76147 0.99832 0.14539 0.0
H865 H 0.72118 0.92411 0.15606 0.0
H866 H 0.72114 0.02991 0.98378 0.0
H867 H 0.71122 0.03563 0.09841 0.0
H868 H 0.7456 0.03446 0.07054 0.0
H869 H 0.68553 0.91478 0.05216 0.0
H870 H 0.66301 0.94075 0.08348 0.0
H871 H 0.67572 0.93914 0.97084 0.0
H872 H 0.63036 0.03254 0.09499 0.0
H873 H 0.66041 0.02593 0.82506 0.0
H874 H 0.68103 1.00643 0.20548 0.0
H875 H 0.66335 0.9765 0.18612 0.0
H876 H 0.64566 1.00631 0.21348 0.0
H877 H 0.71913 0.99393 0.87805 0.0
H878 H 0.69644 0.99919 0.78739 0.0
H879 H 0.69664 0.96833 0.84741 0.0
C880 C 0.60152 0.72445 0.15382 0.0
C881 C 0.59133 0.75011 0.15543 0.0
C882 C 0.58772 0.70431 0.10903 0.0
C883 C 0.56538 0.71089 0.05646 0.0
C884 C 0.55942 0.73749 0.03973 0.0
C885 C 0.57264 0.757 0.08949 0.0
C886 C 0.5944 0.67603 0.13027 0.0
C887 C 0.53667 0.74552 0.98047 0.0
C888 C 0.53721 0.64837 0.96193 0.0
C889 C 0.52002 0.64181 0.03208 0.0
C890 C 0.54992 0.67274 0.96261 0.0
C891 C 0.54587 0.69023 0.03633 0.0
C892 C 0.52624 0.68498 0.10139 0.0
C893 C 0.51334 0.66077 0.09787 0.0
C894 C 0.56918 0.67891 0.88864 0.0
C895 C 0.52042 0.70384 0.17902 0.0
H896 H 0.61705 0.71938 0.20085 0.0
H897 H 0.56522 0.77698 0.08618 0.0
H898 H 0.57806 0.66717 0.16896 0.0
H899 H 0.59681 0.66423 0.06707 0.0
H900 H 0.61268 0.67433 0.17106 0.0
H901 H 0.5419 0.76328 0.94174 0.0
H902 H 0.53064 0.72963 0.93235 0.0
H903 H 0.51958 0.75089 0.02364 0.0
H904 H 0.54204 0.63394 0.90964 0.0
H905 H 0.49907 0.65609 0.14945 0.0
H906 H 0.58956 0.67623 0.91378 0.0
H907 H 0.56708 0.69975 0.86815 0.0
H908 H 0.56636 0.66584 0.82841 0.0
H909 H 0.50431 0.69671 0.22279 0.0
H910 H 0.51462 0.72332 0.15275 0.0
H911 H 0.5383 0.7067 0.22122 0.0
C912 C 0.80758 0.60492 0.08242 0.0
C913 C 0.79325 0.5888 0.13964 0.0
C914 C 0.82974 0.59474 0.03742 0.0
C915 C 0.83855 0.5691 0.05822 0.0
C916 C 0.82301 0.55236 0.11133 0.0
C917 C 0.79951 0.56197 0.14583 0.0
C918 C 0.84499 0.61191 0.97422 0.0
C919 C 0.83285 0.52593 0.14365 0.0
C920 C 0.89362 0.52789 0.96858 0.0
C921 C 0.91217 0.53195 0.03758 0.0
C922 C 0.87017 0.54221 0.96835 0.0
C923 C 0.86559 0.56086 0.0385 0.0
C924 C 0.88532 0.56658 0.10371 0.0
C925 C 0.90841 0.55175 0.10284 0.0
C926 C 0.84928 0.5355 0.89899 0.0
C927 C 0.88105 0.58637 0.17987 0.0
H928 H 0.80254 0.6256 0.07769 0.0
H929 H 0.78833 0.54968 0.19099 0.0
H930 H 0.864 0.61768 1.00551 0.0
H931 H 0.84958 0.60076 0.91092 0.0
H932 H 0.83394 0.63005 0.95711 0.0
H933 H 0.81769 0.5151 0.18201 0.0
H934 H 0.83936 0.51329 0.08613 0.0
H935 H 0.85007 0.529 0.18894 0.0
H936 H 0.89676 0.51246 0.91808 0.0
H937 H 0.92316 0.55498 0.15492 0.0
H938 H 0.83915 0.55357 0.87602 0.0
H939 H 0.83423 0.5227 0.92979 0.0
H940 H 0.85762 0.52481 0.83942 0.0
H941 H 0.87395 0.60536 0.15327 0.0
H942 H 0.89933 0.59014 0.21925 0.0
H943 H 0.86575 0.57898 0.22639 0.0
C944 C 0.04387 0.22802 0.85436 0.0
C945 C 0.06891 0.23386 0.8903 0.0
C946 C 0.03833 0.20307 0.81227 0.0
C947 C 0.05761 0.1825 0.81094 0.0
C948 C 0.08315 0.1889 0.84292 0.0
C949 C 0.08865 0.21447 0.87734 0.0
C950 C 1.0115 0.19875 0.77109 0.0
C951 C 0.10462 0.1683 0.84531 0.0
C952 C 0.02873 0.11188 0.80648 0.0
C953 C 0.03764 0.10084 0.72411 0.0
C954 C 0.03651 0.13735 0.83757 0.0
C955 C 0.05109 0.1542 0.78058 0.0
C956 C 0.05954 0.14348 0.69573 0.0
C957 C 0.05302 0.1172 0.66963 0.0
C958 C 0.02866 0.14631 0.93154 0.0
C959 C 0.07397 0.15979 0.62782 0.0
H960 H 0.02824 0.24242 0.86229 0.0
H961 H 0.10837 0.21864 0.9016 0.0
H962 H 1.01223 0.18442 0.71353 0.0
H963 H 0.99797 0.19106 0.82288 0.0
H964 H 1.00306 0.21757 0.74687 0.0
H965 H 0.12206 0.1751 0.8845 0.0
H966 H 0.09719 0.14993 0.87581 0.0
H967 H 0.11107 0.16337 0.77548 0.0
H968 H 1.01423 0.10141 0.84467 0.0
H969 H 0.05863 0.11 0.6029 0.0
H970 H 1.01252 0.16093 0.92766 0.0
H971 H 0.04551 0.15591 0.96674 0.0
H972 H 0.02172 0.12973 0.97297 0.0
H973 H 0.0604 0.16389 0.57139 0.0
H974 H 0.09068 0.1484 0.59865 0.0
H975 H 0.0813 0.17884 0.65525 0.0
C976 C 0.33577 0.04275 0.92255 0.0
C977 C 0.31805 0.05963 0.87851 0.0
C978 C 0.36126 0.03745 0.88808 0.0
C979 C 0.36959 0.0489 0.80605 0.0
C980 C 0.35154 0.06551 0.76024 0.0
C981 C 0.32631 0.07086 0.79732 0.0
C982 C 0.37995 0.02092 0.94285 0.0
C983 C 0.3592 0.07882 0.67402 0.0
C984 C 0.44355 0.05434 0.74582 0.0
C985 C 0.44924 0.02915 0.71025 0.0
C986 C 0.41825 0.06079 0.78071 0.0
C987 C 0.39687 0.04303 0.76821 0.0
C988 C 0.40183 0.01906 0.72047 0.0
C989 C 0.42782 1.01198 0.69626 0.0
C990 C 0.41497 0.08586 0.83584 0.0
C991 C 0.37969 1.00064 0.69501 0.0
H992 H 0.33027 0.03506 0.98776 0.0
H993 H 0.31348 0.08495 0.76494 0.0
H994 H 0.38637 1.0034 0.90287 0.0
H995 H 0.39784 0.03252 0.95962 0.0
H996 H 0.37096 1.01412 1.00666 0.0
H997 H 0.34164 0.08607 0.63732 0.0
H998 H 0.37165 0.09616 0.68975 0.0
H999 H 0.37072 0.06533 0.6294 0.0
H1000 H 0.45894 0.06879 0.74849 0.0
H1001 H 0.43122 0.99289 0.66441 0.0
H1002 H 0.41187 0.08076 0.90771 0.0
H1003 H 0.39746 0.09708 0.81419 0.0
H1004 H 0.43246 0.0988 0.83161 0.0
H1005 H 0.37328 0.98975 0.75535 0.0
H1006 H 0.38573 0.98606 0.64204 0.0
H1007 H 0.36249 1.01187 0.66968 0.0
C1008 C 0.45472 0.33915 0.89721 0.0
C1009 C 0.47184 0.31719 0.8961 0.0
C1010 C 0.46156 0.36336 0.85813 0.0
C1011 C 0.48572 0.36587 0.81154 0.0
C1012 C 0.50214 0.34319 0.80312 0.0
C1013 C 0.49524 0.31936 0.84623 0.0
C1014 C 0.44333 0.38668 0.87063 0.0
C1015 C 0.52779 0.3445 0.75263 0.0
C1016 C 0.49413 0.42711 0.66247 0.0
C1017 C 0.50751 0.44461 0.72081 0.0
C1018 C 0.48722 0.40143 0.69018 0.0
C1019 C 0.49436 0.3926 0.77772 0.0
C1020 C 0.50849 0.41017 0.83572 0.0
C1021 C 0.51443 0.43591 0.80726 0.0
C1022 C 0.4714 0.3841 0.62675 0.0
C1023 C 0.51674 0.40203 0.92929 0.0
H1024 H 0.43631 0.33788 0.93362 0.0
H1025 H 0.50889 0.30294 0.84475 0.0
H1026 H 0.45411 0.40363 0.90108 0.0
H1027 H 0.43579 0.39293 0.80395 0.0
H1028 H 0.42632 0.38218 0.91466 0.0
H1029 H 0.53573 0.32457 0.73645 0.0
H1030 H 0.52532 0.35539 0.68889 0.0
H1031 H 0.54245 0.35531 0.79464 0.0
H1032 H 0.48824 0.43383 0.59626 0.0
H1033 H 0.52453 0.4494 0.8531 0.0
H1034 H 0.45102 0.38247 0.65253 0.0
H1035 H 0.47977 0.36392 0.62381 0.0
H1036 H 0.47056 0.39205 0.5573 0.0
H1037 H 0.49904 0.3985 0.97103 0.0
H1038 H 0.52904 0.41718 0.96404 0.0
H1039 H 0.52799 0.38329 0.92555 0.0
C1040 C 0.22624 0.50953 0.90332 0.0
C1041 C 0.23727 0.48414 0.89648 0.0
C1042 C 0.20049 0.515 0.8707 0.0
C1043 C 0.18518 0.4947 0.82904 0.0
C1044 C 0.19684 0.46944 0.81753 0.0
C1045 C 0.22243 0.46452 0.85122 0.0
C1046 C 0.18896 0.54211 0.88694 0.0
C1047 C 0.18165 0.44704 0.7742 0.0
C1048 C 0.10912 0.497 0.82754 0.0
C1049 C 0.10325 0.50778 0.74281 0.0
C1050 C 0.13527 0.49249 0.85646 0.0
C1051 C 0.15677 0.49946 0.80041 0.0
C1052 C 0.1509 0.51056 0.71531 0.0
C1053 C 0.12451 0.51452 0.68754 0.0
C1054 C 0.13911 0.48032 0.94788 0.0
C1055 C 0.17266 0.51777 0.65225 0.0
H1056 H 0.23692 0.52466 0.94058 0.0
H1057 H 0.23028 0.44466 0.84741 0.0
H1058 H 0.18563 0.55198 0.82179 0.0
H1059 H 0.16953 0.54063 0.92057 0.0
H1060 H 0.202 0.55482 0.92921 0.0
H1061 H 0.19398 0.42915 0.76375 0.0
H1062 H 0.16479 0.44188 0.81792 0.0
H1063 H 0.17354 0.45312 0.70799 0.0
H1064 H 0.0933 0.49236 0.87298 0.0
H1065 H 0.12054 0.52285 0.62193 0.0
H1066 H 0.15982 0.47539 0.96327 0.0
H1067 H 0.12728 0.46202 0.95169 0.0
H1068 H 0.13158 0.49406 1.0011 0.0
H1069 H 0.18524 0.53325 0.68291 0.0
H1070 H 0.16486 0.52525 0.58759 0.0
H1071 H 0.1854 0.50029 0.63994 0.0
C1072 C 1.00904 0.82851 0.4757 0.0
C1073 C 0.98617 0.82425 0.42356 0.0
C1074 C 1.01404 0.85342 0.51955 0.0
C1075 C 0.99739 0.87575 0.50385 0.0
C1076 C 0.97391 0.87092 0.45416 0.0
C1077 C 0.96777 0.84524 0.42317 0.0
C1078 C 0.03757 0.85571 0.58122 0.0
C1079 C 0.9555 0.89261 0.42572 0.0
C1080 C 0.99735 0.9458 0.61908 0.0
C1081 C 0.02028 0.95719 0.58479 0.0
C1082 C 0.99007 0.91941 0.59635 0.0
C1083 C 1.00524 0.90395 0.53319 0.0
C1084 C 0.02754 0.91638 0.49445 0.0
C1085 C 0.03539 0.94185 0.52426 0.0
C1086 C 0.96577 0.90868 0.64032 0.0
C1087 C 0.04315 0.90375 0.41851 0.0
H1088 H 0.02334 0.81276 0.48081 0.0
H1089 H 0.94895 0.84237 0.38983 0.0
H1090 H 0.05518 0.86066 0.54107 0.0
H1091 H 0.03467 0.87119 0.63427 0.0
H1092 H 0.04161 0.83668 0.61456 0.0
H1093 H 0.93658 0.89075 0.46223 0.0
H1094 H 0.96359 0.91251 0.43777 0.0
H1095 H 0.95096 0.89046 0.35242 0.0
H1096 H 0.98554 0.95718 0.66669 0.0
H1097 H 0.05327 0.9502 0.49728 0.0
H1098 H 0.96675 0.88699 0.64759 0.0
H1099 H 0.94831 0.91368 0.59905 0.0
H1100 H 0.9626 0.91822 0.70749 0.0
H1101 H 0.06236 0.89693 0.44512 0.0
H1102 H 0.0475 0.91856 0.36624 0.0
H1103 H 0.03291 0.88699 0.38499 0.0
C1104 C 0.7105 1.01287 0.39743 0.0
C1105 C 0.72738 0.99387 0.43424 0.0
C1106 C 0.68514 1.01787 0.43361 0.0
C1107 C 0.6762 1.00393 0.51023 0.0
C1108 C 0.69357 0.98521 0.5492 0.0
C1109 C 0.71857 0.98024 0.51019 0.0
C1110 C 0.66722 0.0369 0.38583 0.0
C1111 C 0.68558 0.96895 0.62886 0.0
C1112 C 0.61751 0.03889 0.62435 0.0
C1113 C 0.59603 0.02234 0.60328 0.0
C1114 C 0.64368 0.03191 0.60191 0.0
C1115 C 0.6488 1.00905 0.54828 0.0
C1116 C 0.62743 0.99166 0.5302 0.0
C1117 C 0.60191 0.9977 0.56383 0.0
C1118 C 0.66588 0.04898 0.63669 0.0
C1119 C 0.63094 0.96753 0.4705 0.0
H1120 H 0.71646 0.02255 0.33607 0.0
H1121 H 0.73078 0.96462 0.53666 0.0
H1122 H 0.64814 0.02727 0.36984 0.0
H1123 H 0.66295 0.05413 0.43043 0.0
H1124 H 0.67594 0.04418 0.32226 0.0
H1125 H 0.70286 0.96481 0.67238 0.0
H1126 H 0.66997 0.97855 0.67016 0.0
H1127 H 0.67817 0.94959 0.60419 0.0
H1128 H 0.61399 0.05733 0.6604 0.0
H1129 H 0.58652 0.98338 0.55721 0.0
H1130 H 0.67395 0.06082 0.58112 0.0
H1131 H 0.68208 0.03652 0.66291 0.0
H1132 H 0.65931 0.06266 0.69165 0.0
H1133 H 0.63231 0.9738 0.39915 0.0
H1134 H 0.61424 0.95367 0.4766 0.0
H1135 H 0.64934 0.95687 0.486 0.0
C1136 C 0.53812 0.72559 0.42958 0.0
C1137 C 0.55971 0.74121 0.45567 0.0
C1138 C 0.534 0.70036 0.46576 0.0
C1139 C 0.55172 0.69027 0.53105 0.0
C1140 C 0.57274 0.70656 0.5614 0.0
C1141 C 0.57663 0.73157 0.52282 0.0
C1142 C 0.51195 0.68369 0.42766 0.0
C1143 C 0.59238 0.69678 0.62971 0.0
C1144 C 0.53065 0.62894 0.66247 0.0
C1145 C 0.54294 0.6083 0.61379 0.0
C1146 C 0.53373 0.65558 0.6377 0.0
C1147 C 0.54941 0.66209 0.56197 0.0
C1148 C 0.56223 0.64142 0.51364 0.0
C1149 C 0.55883 0.61507 0.53998 0.0
C1150 C 0.51965 0.6768 0.69135 0.0
C1151 C 0.57908 0.64696 0.43216 0.0
H1152 H 0.5257 0.73217 0.3747 0.0
H1153 H 0.59404 0.74282 0.54054 0.0
H1154 H 0.50261 0.67178 0.48081 0.0
H1155 H 0.4966 0.69593 0.39517 0.0
H1156 H 0.52004 0.6699 0.37563 0.0
H1157 H 0.60518 0.71285 0.65627 0.0
H1158 H 0.58217 0.68757 0.68717 0.0
H1159 H 0.60505 0.68145 0.59762 0.0
H1160 H 0.51821 0.62429 0.71935 0.0
H1161 H 0.56828 0.59976 0.50064 0.0
H1162 H 0.50483 0.68644 0.64766 0.0
H1163 H 0.53378 0.6922 0.7139 0.0
H1164 H 0.50956 0.66892 0.75162 0.0
H1165 H 0.56663 0.65486 0.37719 0.0
H1166 H 0.58935 0.62903 0.40609 0.0
H1167 H 0.59403 0.66213 0.4492 0.0
C1168 C 0.83016 0.59668 0.44878 0.0
C1169 C 0.81058 0.57745 0.43128 0.0
C1170 C 0.85516 0.59031 0.48451 0.0
C1171 C 0.86072 0.56433 0.51226 0.0
C1172 C 0.8402 0.54536 0.5045 0.0
C1173 C 0.81578 0.55188 0.46251 0.0
C1174 C 0.87619 0.61126 0.48756 0.0
C1175 C 0.84438 0.51785 0.53825 0.0
C1176 C 0.9339 0.54352 0.51035 0.0
C1177 C 0.94158 0.54673 0.6013 0.0
C1178 C 0.90768 0.54807 0.48173 0.0
C1179 C 0.88834 0.55702 0.54456 0.0
C1180 C 0.89612 0.56047 0.63664 0.0
C1181 C 0.92235 0.55488 0.66393 0.0
C1182 C 0.90076 0.54364 0.38339 0.0
C1183 C 0.87699 0.57086 0.70641 0.0
H1184 H 0.82652 0.61686 0.42971 0.0
H1185 H 0.80126 0.53662 0.45101 0.0
H1186 H 0.88405 0.61363 0.55719 0.0
H1187 H 0.89283 0.60515 0.44342 0.0
H1188 H 0.86884 0.63065 0.4646 0.0
H1189 H 0.82603 0.50605 0.53579 0.0
H1190 H 0.85957 0.50768 0.49663 0.0
H1191 H 0.85174 0.51861 0.60899 0.0
H1192 H 0.94844 0.53696 0.46133 0.0
H1193 H 0.92801 0.55761 0.73418 0.0
H1194 H 0.89391 0.56239 0.35427 0.0
H1195 H 0.88434 0.52938 0.37693 0.0
H1196 H 0.91767 0.53611 0.34302 0.0
H1197 H 0.87411 0.5923 0.69705 0.0
H1198 H 0.88426 0.56788 0.77637 0.0
H1199 H 0.85752 0.56127 0.69845 0.0
loop_
_geom_bond_atom_site_label_1
_geom_bond_atom_site_label_2
_geom_bond_distance
_geom_bond_site_symmetry_2
_ccdc_geom_bond_type
H0 C5 0.930 . S
H1 C8 0.930 . S
H2 C10 0.930 . S
H3 C4 1.016 . S
C4 H3 1.016 . S
C4 N11 1.286 . S
C5 H0 0.930 . S
C5 C6 1.397 . S
C5 C7 1.361 . S
C6 C5 1.397 . S
C6 C10 1.390 . S
C7 C5 1.361 . S
C7 C8 1.393 . S
C7 N11 1.413 . S
C8 H1 0.930 . S
C8 C7 1.393 . S
C8 C9 1.399 . S
C9 C8 1.399 . S
C9 C10 1.381 . S
C10 H2 0.930 . S
C10 C6 1.390 . S
C10 C9 1.381 . S
N11 C4 1.286 . S
N11 C7 1.413 . S
H12 C17 0.930 . S
H13 C20 0.930 . S
H14 C22 0.930 . S
H15 C16 1.016 . S
C16 H15 1.016 . S
C16 N23 1.286 . S
C17 H12 0.930 . S
C17 C18 1.397 . S
C17 C19 1.361 . S
C18 C17 1.397 . S
C18 C22 1.390 . S
C19 C17 1.361 . S
C19 C20 1.393 . S
C19 N23 1.413 . S
C20 H13 0.930 . S
C20 C19 1.393 . S
C20 C21 1.399 . S
C21 C20 1.399 . S
C21 C22 1.381 . S
C22 H14 0.930 . S
C22 C18 1.390 . S
C22 C21 1.381 . S
N23 C16 1.286 . S
N23 C19 1.413 . S
H24 C29 0.930 . S
H25 C32 0.930 . S
H26 C34 0.930 . S
H27 C28 1.016 . S
C28 H27 1.016 . S
C28 N35 1.286 . S
C29 H24 0.930 . S
C29 C30 1.397 . S
C29 C31 1.361 . S
C30 C29 1.397 . S
C30 C34 1.390 . S
C31 C29 1.361 . S
C31 C32 1.393 . S
C31 N35 1.413 . S
C32 H25 0.930 . S
C32 C31 1.393 . S
C32 C33 1.399 . S
C33 C32 1.399 . S
C33 C34 1.381 . S
C34 H26 0.930 . S
C34 C30 1.390 . S
C34 C33 1.381 . S
N35 C28 1.286 . S
N35 C31 1.413 . S
H36 C41 0.930 . S
H37 C44 0.930 . S
H38 C46 0.930 . S
H39 C40 1.016 . S
C40 H39 1.016 . S
C40 N47 1.286 . S
C41 H36 0.930 . S
C41 C42 1.397 . S
C41 C43 1.361 . S
C42 C41 1.397 . S
C42 C46 1.390 . S
C43 C41 1.361 . S
C43 C44 1.393 . S
C43 N47 1.413 . S
C44 H37 0.930 . S
C44 C43 1.393 . S
C44 C45 1.399 . S
C45 C44 1.399 . S
C45 C46 1.381 . S
C46 H38 0.930 . S
C46 C42 1.390 . S
C46 C45 1.381 . S
N47 C40 1.286 . S
N47 C43 1.413 . S
H48 C53 0.930 . S
H49 C56 0.930 . S
H50 C58 0.930 . S
H51 C52 1.016 . S
C52 H51 1.016 . S
C52 N59 1.286 . S
C53 H48 0.930 . S
C53 C54 1.397 . S
C53 C55 1.361 1_556 S
C54 C53 1.397 . S
C54 C58 1.390 . S
C55 C53 1.361 1_554 S
C55 C56 1.393 . S
C55 N59 1.413 . S
C56 H49 0.930 . S
C56 C55 1.393 . S
C56 C57 1.399 . S
C57 C56 1.399 . S
C57 C58 1.381 1_554 S
C58 H50 0.930 . S
C58 C54 1.390 . S
C58 C57 1.381 1_556 S
N59 C52 1.286 . S
N59 C55 1.413 . S
H60 C65 0.930 . S
H61 C68 0.930 . S
H62 C70 0.930 . S
H63 C64 1.016 . S
C64 H63 1.016 . S
C64 N71 1.286 . S
C65 H60 0.930 . S
C65 C66 1.397 . S
C65 C67 1.361 1_556 S
C66 C65 1.397 . S
C66 C70 1.390 . S
C67 C65 1.361 1_554 S
C67 C68 1.393 . S
C67 N71 1.413 . S
C68 H61 0.930 . S
C68 C67 1.393 . S
C68 C69 1.399 . S
C69 C68 1.399 . S
C69 C70 1.381 1_554 S
C70 H62 0.930 . S
C70 C66 1.390 . S
C70 C69 1.381 1_556 S
N71 C64 1.286 . S
N71 C67 1.413 . S
H72 C77 0.930 . S
H73 C80 0.930 . S
H74 C82 0.930 . S
H75 C76 1.016 . S
C76 H75 1.016 . S
C76 N83 1.286 . S
C77 H72 0.930 . S
C77 C78 1.397 . S
C77 C79 1.371 . S
C78 C77 1.397 . S
C78 C82 1.390 . S
C79 C77 1.371 . S
C79 C80 1.385 1_556 S
C79 N83 1.412 1_556 S
C80 H73 0.930 . S
C80 C79 1.385 1_554 S
C80 C81 1.399 . S
C81 C80 1.399 . S
C81 C82 1.381 1_554 S
C82 H74 0.930 . S
C82 C78 1.390 . S
C82 C81 1.381 1_556 S
N83 C76 1.286 . S
N83 C79 1.412 1_554 S
H84 C89 0.930 . S
H85 C92 0.930 . S
H86 C94 0.930 . S
H87 C88 1.016 . S
C88 H87 1.016 . S
C88 N95 1.286 . S
C89 H84 0.930 . S
C89 C90 1.397 . S
C89 C91 1.361 1_556 S
C90 C89 1.397 . S
C90 C94 1.390 . S
C91 C89 1.361 1_554 S
C91 C92 1.393 . S
C91 N95 1.413 . S
C92 H85 0.930 . S
C92 C91 1.393 . S
C92 C93 1.399 . S
C93 C92 1.399 . S
C93 C94 1.381 1_554 S
C94 H86 0.930 . S
C94 C90 1.390 . S
C94 C93 1.381 1_556 S
N95 C88 1.286 . S
N95 C91 1.413 . S
Gd96 N127 2.646 1_545 S
Gd96 N133 2.601 . S
Gd96 O140 2.545 . S
Gd96 O141 2.606 1_655 S
Gd96 O143 2.429 . S
Gd96 O144 2.545 1_655 S
Gd96 O145 2.412 . S
Gd96 O147 2.362 1_545 S
Gd96 O148 2.324 1_655 S
Gd96 C155 2.828 . S
Gd97 N106 2.661 1_565 S
Gd97 N110 2.601 1_565 S
Gd97 O141 2.362 1_565 S
Gd97 O142 2.324 1_455 S
Gd97 O146 2.545 . S
Gd97 O147 2.606 1_455 S
Gd97 O149 2.429 . S
Gd97 O150 2.545 . S
Gd97 O151 2.412 . S
Gd97 C164 2.828 . S
C98 C101 1.417 1_554 S
C98 C103 1.431 . S
C98 C104 1.412 . S
C99 C102 1.437 1_554 S
C99 C103 1.317 . S
C99 H118 0.929 . S
C100 C101 1.426 . S
C100 C102 1.413 . S
C100 N110 1.359 . S
C101 C98 1.417 1_556 S
C101 C100 1.426 . S
C101 N106 1.350 . S
C102 C99 1.437 1_556 S
C102 C100 1.413 . S
C102 C112 1.391 . S
C103 C98 1.431 . S
C103 C99 1.317 . S
C103 H114 0.930 . S
C104 C98 1.412 . S
C104 C105 1.355 . S
C104 H116 0.930 . S
C105 C104 1.355 . S
C105 C107 1.402 1_554 S
C105 H117 0.930 1_455 S
N106 Gd97 2.661 1_545 S
N106 C101 1.350 . S
N106 C107 1.307 . S
C107 C105 1.402 1_556 S
C107 N106 1.307 . S
C107 H108 0.930 1_455 S
H108 C107 0.930 1_655 S
C109 N110 1.334 1_565 S
C109 C111 1.394 . S
C109 H113 0.930 . S
N110 Gd97 2.601 1_545 S
N110 C100 1.359 . S
N110 C109 1.334 1_545 S
C111 C109 1.394 . S
C111 C112 1.359 1_565 S
C111 H123 0.930 . S
C112 C102 1.391 . S
C112 C111 1.359 1_545 S
C112 H124 0.929 . S
H113 C109 0.930 . S
H114 C103 0.930 . S
H115 C132 0.930 . S
H116 C104 0.930 . S
H117 C105 0.930 1_655 S
H118 C99 0.929 . S
H119 C137 0.930 . S
H120 C128 0.930 . S
H121 C129 0.930 . S
H122 C153 0.929 . S
H123 C111 0.930 . S
H124 C112 0.929 . S
H125 C154 0.930 . S
H126 C135 0.930 . S
N127 Gd96 2.646 1_565 S
N127 C131 1.356 . S
N127 C132 1.318 1_655 S
C128 H120 0.930 . S
C128 C129 1.355 1_655 S
C128 C130 1.412 . S
C129 H121 0.930 . S
C129 C128 1.355 1_455 S
C129 C132 1.402 . S
C130 C128 1.412 . S
C130 C131 1.417 . S
C130 C154 1.431 . S
C131 N127 1.356 . S
C131 C130 1.417 . S
C131 C134 1.426 1_565 S
C132 H115 0.930 . S
C132 N127 1.318 1_455 S
C132 C129 1.402 . S
N133 Gd96 2.601 . S
N133 C134 1.359 . S
N133 C137 1.334 . S
C134 C131 1.426 1_545 S
C134 N133 1.359 . S
C134 C138 1.409 1_545 S
C135 H126 0.930 . S
C135 C136 1.359 . S
C135 C137 1.394 . S
C136 C135 1.359 . S
C136 C138 1.381 1_545 S
C136 H139 0.929 . S
C137 H119 0.930 . S
C137 N133 1.334 . S
C137 C135 1.394 . S
C138 C134 1.409 1_565 S
C138 C136 1.381 1_565 S
C138 C153 1.451 . S
H139 C136 0.929 . S
O140 Gd96 2.545 . S
O140 C155 1.258 . S
O141 Gd96 2.606 1_455 S
O141 Gd97 2.362 1_545 S
O141 C152 1.284 . S
O142 Gd97 2.324 1_655 S
O142 C162 1.254 1_565 S
O143 Gd96 2.429 . S
O143 C162 1.268 . S
O144 Gd96 2.545 1_455 S
O144 C152 1.250 . S
O145 Gd96 2.412 . S
O145 C155 1.252 . S
O146 Gd97 2.545 . S
O146 C164 1.258 . S
O147 Gd96 2.362 1_565 S
O147 Gd97 2.606 1_655 S
O147 C163 1.284 . S
O148 Gd96 2.324 1_455 S
O148 C171 1.254 . S
O149 Gd97 2.429 . S
O149 C171 1.268 1_565 S
O150 Gd97 2.545 . S
O150 C163 1.250 1_455 S
O151 Gd97 2.412 . S
O151 C164 1.252 . S
C152 O141 1.284 . S
C152 O144 1.250 . S
C153 H122 0.929 . S
C153 C138 1.451 . S
C153 C154 1.317 . S
C154 H125 0.930 . S
C154 C130 1.431 . S
C154 C153 1.317 . S
C155 Gd96 2.828 . S
C155 O140 1.258 . S
C155 O145 1.252 . S
C155 C156 1.497 . S
C156 C155 1.497 . S
C156 C157 1.395 . S
C156 C158 1.380 . S
C157 C156 1.395 . S
C157 C160 1.398 . S
C157 H172 0.930 . S
C158 C156 1.380 . S
C158 C159 1.391 . S
C158 H173 0.930 1_655 S
C159 C158 1.391 . S
C159 C161 1.387 . S
C160 C157 1.398 . S
C160 C161 1.380 . S
C160 H174 0.930 . S
C161 C159 1.387 . S
C161 C160 1.380 . S
C161 H175 0.930 . S
C162 O142 1.254 1_545 S
C162 O143 1.268 . S
C163 O147 1.284 . S
C163 O150 1.250 1_655 S
C164 Gd97 2.828 . S
C164 O146 1.258 . S
C164 O151 1.252 . S
C164 C165 1.497 . S
C165 C164 1.497 . S
C165 C166 1.395 . S
C165 C167 1.380 . S
C166 C165 1.395 . S
C166 C169 1.398 . S
C166 H176 0.930 . S
C167 C165 1.380 . S
C167 C168 1.391 . S
C167 H177 0.947 . S
C168 C167 1.391 . S
C168 C170 1.387 1_556 S
C169 C166 1.398 . S
C169 C170 1.380 1_556 S
C169 H178 0.930 . S
C170 C168 1.387 1_554 S
C170 C169 1.380 1_554 S
C170 H179 0.930 . S
C171 O148 1.254 . S
C171 O149 1.268 1_545 S
H172 C157 0.930 . S
H173 C158 0.930 1_455 S
H174 C160 0.930 . S
H175 C161 0.930 . S
H176 C166 0.930 . S
H177 C167 0.947 . S
H178 C169 0.930 . S
H179 C170 0.930 . S
Gd180 N211 2.661 . S
Gd180 N217 2.601 . S
Gd180 O224 2.545 . S
Gd180 O225 2.606 1_565 S
Gd180 O227 2.429 . S
Gd180 O228 2.545 1_565 S
Gd180 O229 2.412 . S
Gd180 O231 2.362 . S
Gd180 O232 2.324 1_565 S
Gd180 C239 2.828 . S
Gd181 N190 2.661 . S
Gd181 N194 2.601 . S
Gd181 O225 2.362 . S
Gd181 O226 2.324 1_545 S
Gd181 O230 2.545 . S
Gd181 O231 2.606 1_545 S
Gd181 O233 2.429 . S
Gd181 O234 2.545 . S
Gd181 O235 2.412 . S
Gd181 C248 2.828 . S
C182 C185 1.417 1_554 S
C182 C187 1.431 . S
C182 C188 1.412 . S
C183 C186 1.437 1_554 S
C183 C187 1.317 . S
C183 H202 0.929 . S
C184 C185 1.426 . S
C184 C186 1.413 . S
C184 N194 1.359 . S
C185 C182 1.417 1_556 S
C185 C184 1.426 . S
C185 N190 1.350 . S
C186 C183 1.437 1_556 S
C186 C184 1.413 . S
C186 C196 1.391 . S
C187 C182 1.431 . S
C187 C183 1.317 . S
C187 H198 0.930 . S
C188 C182 1.412 . S
C188 C189 1.355 . S
C188 H200 0.930 . S
C189 C188 1.355 . S
C189 C191 1.402 1_554 S
C189 H201 0.930 1_545 S
N190 Gd181 2.661 . S
N190 C185 1.350 . S
N190 C191 1.307 . S
C191 C189 1.402 1_556 S
C191 N190 1.307 . S
C191 H192 0.930 1_545 S
H192 C191 0.930 1_565 S
C193 N194 1.334 . S
C193 C195 1.394 . S
C193 H197 0.930 . S
N194 Gd181 2.601 . S
N194 C184 1.359 . S
N194 C193 1.334 . S
C195 C193 1.394 . S
C195 C196 1.359 . S
C195 H207 0.930 . S
C196 C186 1.391 . S
C196 C195 1.359 . S
C196 H208 0.929 . S
H197 C193 0.930 . S
H198 C187 0.930 . S
H199 C216 0.930 . S
H200 C188 0.930 . S
H201 C189 0.930 1_565 S
H202 C183 0.929 . S
H203 C221 0.930 . S
H204 C212 0.930 . S
H205 C213 0.930 . S
H206 C237 0.929 . S
H207 C195 0.930 . S
H208 C196 0.929 . S
H209 C238 0.930 . S
H210 C219 0.930 . S
N211 Gd180 2.661 . S
N211 C215 1.350 . S
N211 C216 1.307 1_565 S
C212 H204 0.930 . S
C212 C213 1.355 1_565 S
C212 C214 1.412 . S
C213 H205 0.930 . S
C213 C212 1.355 1_545 S
C213 C216 1.402 . S
C214 C212 1.412 . S
C214 C215 1.417 . S
C214 C238 1.431 . S
C215 N211 1.350 . S
C215 C214 1.417 . S
C215 C218 1.426 . S
C216 H199 0.930 . S
C216 N211 1.307 1_545 S
C216 C213 1.402 . S
N217 Gd180 2.601 . S
N217 C218 1.359 . S
N217 C221 1.334 . S
C218 C215 1.426 . S
C218 N217 1.359 . S
C218 C222 1.413 . S
C219 H210 0.930 . S
C219 C220 1.359 . S
C219 C221 1.394 . S
C220 C219 1.359 . S
C220 C222 1.391 . S
C220 H223 0.929 . S
C221 H203 0.930 . S
C221 N217 1.334 . S
C221 C219 1.394 . S
C222 C218 1.413 . S
C222 C220 1.391 . S
C222 C237 1.437 . S
H223 C220 0.929 . S
O224 Gd180 2.545 . S
O224 C239 1.258 . S
O225 Gd180 2.606 1_545 S
O225 Gd181 2.362 . S
O225 C236 1.284 . S
O226 Gd181 2.324 1_565 S
O226 C246 1.254 . S
O227 Gd180 2.429 . S
O227 C246 1.268 . S
O228 Gd180 2.545 1_545 S
O228 C236 1.250 . S
O229 Gd180 2.412 . S
O229 C239 1.252 . S
O230 Gd181 2.545 . S
O230 C248 1.258 . S
O231 Gd180 2.362 . S
O231 Gd181 2.606 1_565 S
O231 C247 1.287 . S
O232 Gd180 2.324 1_545 S
O232 C255 1.254 . S
O233 Gd181 2.429 . S
O233 C255 1.268 . S
O234 Gd181 2.545 . S
O234 C247 1.223 1_545 S
O235 Gd181 2.412 . S
O235 C248 1.252 . S
C236 O225 1.284 . S
C236 O228 1.250 . S
C237 H206 0.929 . S
C237 C222 1.437 . S
C237 C238 1.317 . S
C238 H209 0.930 . S
C238 C214 1.431 . S
C238 C237 1.317 . S
C239 Gd180 2.828 . S
C239 O224 1.258 . S
C239 O229 1.252 . S
C239 C240 1.497 . S
C240 C239 1.497 . S
C240 C241 1.395 . S
C240 C242 1.380 . S
C241 C240 1.395 . S
C241 C244 1.398 . S
C241 H256 0.930 . S
C242 C240 1.380 . S
C242 C243 1.391 . S
C242 H257 0.930 1_565 S
C243 C242 1.391 . S
C243 C245 1.387 . S
C244 C241 1.398 . S
C244 C245 1.380 . S
C244 H258 0.930 . S
C245 C243 1.387 . S
C245 C244 1.380 . S
C245 H259 0.930 . S
C246 O226 1.254 . S
C246 O227 1.268 . S
C247 O231 1.287 . S
C247 O234 1.223 1_565 S
C248 Gd181 2.828 . S
C248 O230 1.258 . S
C248 O235 1.252 . S
C248 C249 1.497 . S
C249 C248 1.497 . S
C249 C250 1.395 . S
C249 C251 1.380 . S
C250 C249 1.395 . S
C250 C253 1.398 . S
C250 H260 0.930 . S
C251 C249 1.380 . S
C251 C252 1.391 . S
C251 H261 0.930 . S
C252 C251 1.391 . S
C252 C254 1.387 1_556 S
C253 C250 1.398 . S
C253 C254 1.380 1_556 S
C253 H262 0.930 . S
C254 C252 1.387 1_554 S
C254 C253 1.380 1_554 S
C254 H263 0.930 . S
C255 O232 1.254 . S
C255 O233 1.268 . S
H256 C241 0.930 . S
H257 C242 0.930 1_545 S
H258 C244 0.930 . S
H259 C245 0.930 . S
H260 C250 0.930 . S
H261 C251 0.930 . S
H262 C253 0.930 . S
H263 C254 0.930 . S
Gd264 N295 2.661 . S
Gd264 N301 2.601 . S
Gd264 O308 2.545 . S
Gd264 O309 2.606 . S
Gd264 O311 2.429 . S
Gd264 O312 2.545 . S
Gd264 O313 2.412 . S
Gd264 O315 2.362 . S
Gd264 O316 2.324 . S
Gd264 C323 2.828 . S
Gd265 N274 2.661 . S
Gd265 N278 2.601 . S
Gd265 O309 2.362 . S
Gd265 O310 2.324 . S
Gd265 O314 2.545 . S
Gd265 O315 2.606 . S
Gd265 O317 2.429 . S
Gd265 O318 2.545 . S
Gd265 O319 2.412 . S
Gd265 C332 2.828 . S
C266 C269 1.417 . S
C266 C271 1.431 . S
C266 C272 1.412 . S
C267 C270 1.437 . S
C267 C271 1.317 . S
C267 H286 0.929 . S
C268 C269 1.426 . S
C268 C270 1.413 . S
C268 N278 1.359 . S
C269 C266 1.417 . S
C269 C268 1.426 . S
C269 N274 1.350 . S
C270 C267 1.437 . S
C270 C268 1.413 . S
C270 C280 1.391 . S
C271 C266 1.431 . S
C271 C267 1.317 . S
C271 H282 0.930 . S
C272 C266 1.412 . S
C272 C273 1.355 . S
C272 H284 0.930 . S
C273 C272 1.355 . S
C273 C275 1.402 . S
C273 H285 0.930 . S
N274 Gd265 2.661 . S
N274 C269 1.350 . S
N274 C275 1.307 . S
C275 C273 1.402 . S
C275 N274 1.307 . S
C275 H276 0.930 . S
H276 C275 0.930 . S
C277 N278 1.334 . S
C277 C279 1.394 . S
C277 H281 0.930 . S
N278 Gd265 2.601 . S
N278 C268 1.359 . S
N278 C277 1.334 . S
C279 C277 1.394 . S
C279 C280 1.359 . S
C279 H291 0.930 . S
C280 C270 1.391 . S
C280 C279 1.359 . S
C280 H292 0.929 . S
H281 C277 0.930 . S
H282 C271 0.930 . S
H283 C300 0.930 . S
H284 C272 0.930 . S
H285 C273 0.930 . S
H286 C267 0.929 . S
H287 C305 0.930 . S
H288 C296 0.930 . S
H289 C297 0.930 . S
H290 C321 0.929 . S
H291 C279 0.930 . S
H292 C280 0.929 . S
H293 C322 0.930 . S
H294 C303 0.930 . S
N295 Gd264 2.661 . S
N295 C299 1.350 . S
N295 C300 1.307 . S
C296 H288 0.930 . S
C296 C297 1.355 . S
C296 C298 1.412 . S
C297 H289 0.930 . S
C297 C296 1.355 . S
C297 C300 1.402 . S
C298 C296 1.412 . S
C298 C299 1.417 . S
C298 C322 1.431 . S
C299 N295 1.350 . S
C299 C298 1.417 . S
C299 C302 1.426 . S
C300 H283 0.930 . S
C300 N295 1.307 . S
C300 C297 1.402 . S
N301 Gd264 2.601 . S
N301 C302 1.359 . S
N301 C305 1.334 . S
C302 C299 1.426 . S
C302 N301 1.359 . S
C302 C306 1.413 . S
C303 H294 0.930 . S
C303 C304 1.359 . S
C303 C305 1.394 . S
C304 C303 1.359 . S
C304 C306 1.391 . S
C304 H307 0.929 . S
C305 H287 0.930 . S
C305 N301 1.334 . S
C305 C303 1.394 . S
C306 C302 1.413 . S
C306 C304 1.391 . S
C306 C321 1.437 . S
H307 C304 0.929 . S
O308 Gd264 2.545 . S
O308 C323 1.258 . S
O309 Gd264 2.606 . S
O309 Gd265 2.362 . S
O309 C320 1.284 . S
O310 Gd265 2.324 . S
O310 C330 1.254 . S
O311 Gd264 2.429 . S
O311 C330 1.268 . S
O312 Gd264 2.545 . S
O312 C320 1.250 . S
O313 Gd264 2.412 . S
O313 C323 1.252 . S
O314 Gd265 2.545 . S
O314 C332 1.258 . S
O315 Gd264 2.362 . S
O315 Gd265 2.606 . S
O315 C331 1.284 . S
O316 Gd264 2.324 . S
O316 C339 1.254 . S
O317 Gd265 2.429 . S
O317 C339 1.268 . S
O318 Gd265 2.545 . S
O318 C331 1.250 . S
O319 Gd265 2.412 . S
O319 C332 1.252 . S
C320 O309 1.284 . S
C320 O312 1.250 . S
C321 H290 0.929 . S
C321 C306 1.437 . S
C321 C322 1.317 . S
C322 H293 0.930 . S
C322 C298 1.431 . S
C322 C321 1.317 . S
C323 Gd264 2.828 . S
C323 O308 1.258 . S
C323 O313 1.252 . S
C323 C324 1.497 . S
C324 C323 1.497 . S
C324 C325 1.395 1_556 S
C324 C326 1.380 . S
C325 C324 1.395 1_554 S
C325 C328 1.398 . S
C325 H340 0.930 . S
C326 C324 1.380 . S
C326 C327 1.391 1_556 S
C326 H341 0.930 . S
C327 C326 1.391 1_554 S
C327 C329 1.387 . S
C328 C325 1.398 . S
C328 C329 1.380 . S
C328 H342 0.930 . S
C329 C327 1.387 . S
C329 C328 1.380 . S
C329 H343 0.930 . S
C330 O310 1.254 . S
C330 O311 1.268 . S
C331 O315 1.284 . S
C331 O318 1.250 . S
C332 Gd265 2.828 . S
C332 O314 1.258 . S
C332 O319 1.252 . S
C332 C333 1.497 . S
C333 C332 1.497 . S
C333 C334 1.395 . S
C333 C335 1.380 . S
C334 C333 1.395 . S
C334 C337 1.398 . S
C334 H344 0.930 . S
C335 C333 1.380 . S
C335 C336 1.391 . S
C335 H345 0.930 . S
C336 C335 1.391 . S
C336 C338 1.387 . S
C337 C334 1.398 . S
C337 C338 1.380 . S
C337 H346 0.930 . S
C338 C336 1.387 . S
C338 C337 1.380 . S
C338 H347 0.930 . S
C339 O316 1.254 . S
C339 O317 1.268 . S
H340 C325 0.930 . S
H341 C326 0.930 . S
H342 C328 0.930 . S
H343 C329 0.930 . S
H344 C334 0.930 . S
H345 C335 0.930 . S
H346 C337 0.930 . S
H347 C338 0.930 . S
Gd348 N379 2.661 . S
Gd348 N385 2.601 . S
Gd348 O392 2.545 . S
Gd348 O393 2.606 1_655 S
Gd348 O395 2.429 1_655 S
Gd348 O396 2.545 . S
Gd348 O397 2.412 . S
Gd348 O399 2.362 1_655 S
Gd348 O400 2.324 . S
Gd348 C407 2.828 . S
Gd349 N358 2.661 . S
Gd349 N362 2.601 . S
Gd349 O393 2.362 . S
Gd349 O394 2.324 . S
Gd349 O398 2.545 . S
Gd349 O399 2.606 . S
Gd349 O401 2.429 1_455 S
Gd349 O402 2.545 . S
Gd349 O403 2.412 . S
Gd349 C416 2.828 . S
C350 C353 1.417 . S
C350 C355 1.431 . S
C350 C356 1.412 . S
C351 C354 1.437 . S
C351 C355 1.317 . S
C351 H370 0.929 . S
C352 C353 1.426 . S
C352 C354 1.413 . S
C352 N362 1.359 . S
C353 C350 1.417 . S
C353 C352 1.426 . S
C353 N358 1.350 . S
C354 C351 1.437 . S
C354 C352 1.413 . S
C354 C364 1.391 . S
C355 C350 1.431 . S
C355 C351 1.317 . S
C355 H366 0.930 . S
C356 C350 1.412 . S
C356 C357 1.355 . S
C356 H368 0.930 . S
C357 C356 1.355 . S
C357 C359 1.402 . S
C357 H369 0.930 . S
N358 Gd349 2.661 . S
N358 C353 1.350 . S
N358 C359 1.307 . S
C359 C357 1.402 . S
C359 N358 1.307 . S
C359 H360 0.930 . S
H360 C359 0.930 . S
C361 N362 1.342 . S
C361 C363 1.393 1_455 S
C361 H365 0.923 1_455 S
N362 Gd349 2.601 . S
N362 C352 1.359 . S
N362 C361 1.342 . S
C363 C361 1.393 1_655 S
C363 C364 1.359 1_655 S
C363 H375 0.930 . S
C364 C354 1.391 . S
C364 C363 1.359 1_455 S
C364 H376 0.929 . S
H365 C361 0.923 1_655 S
H366 C355 0.930 . S
H367 C384 0.930 . S
H368 C356 0.930 . S
H369 C357 0.930 . S
H370 C351 0.929 . S
H371 C389 0.930 . S
H372 C380 0.930 . S
H373 C381 0.930 . S
H374 C405 0.929 . S
H375 C363 0.930 . S
H376 C364 0.929 . S
H377 C406 0.930 . S
H378 C387 0.930 . S
N379 Gd348 2.661 . S
N379 C383 1.350 . S
N379 C384 1.307 . S
C380 H372 0.930 . S
C380 C381 1.355 . S
C380 C382 1.412 . S
C381 H373 0.930 . S
C381 C380 1.355 . S
C381 C384 1.402 . S
C382 C380 1.412 . S
C382 C383 1.417 . S
C382 C406 1.431 . S
C383 N379 1.350 . S
C383 C382 1.417 . S
C383 C386 1.426 . S
C384 H367 0.930 . S
C384 N379 1.307 . S
C384 C381 1.402 . S
N385 Gd348 2.601 . S
N385 C386 1.359 . S
N385 C389 1.334 1_655 S
C386 C383 1.426 . S
C386 N385 1.359 . S
C386 C390 1.413 . S
C387 H378 0.930 . S
C387 C388 1.359 . S
C387 C389 1.394 . S
C388 C387 1.359 . S
C388 C390 1.391 1_455 S
C388 H391 0.929 . S
C389 H371 0.930 . S
C389 N385 1.334 1_455 S
C389 C387 1.394 . S
C390 C386 1.413 . S
C390 C388 1.391 1_655 S
C390 C405 1.437 . S
H391 C388 0.929 . S
O392 Gd348 2.545 . S
O392 C407 1.258 . S
O393 Gd348 2.606 1_455 S
O393 Gd349 2.362 . S
O393 C404 1.284 1_455 S
O394 Gd349 2.324 . S
O394 C414 1.254 . S
O395 Gd348 2.429 1_455 S
O395 C414 1.268 . S
O396 Gd348 2.545 . S
O396 C404 1.250 . S
O397 Gd348 2.412 . S
O397 C407 1.252 . S
O398 Gd349 2.545 . S
O398 C416 1.258 . S
O399 Gd348 2.362 1_455 S
O399 Gd349 2.606 . S
O399 C415 1.284 . S
O400 Gd348 2.324 . S
O400 C423 1.254 . S
O401 Gd349 2.429 1_655 S
O401 C423 1.268 . S
O402 Gd349 2.545 . S
O402 C415 1.250 . S
O403 Gd349 2.412 . S
O403 C416 1.252 . S
C404 O393 1.284 1_655 S
C404 O396 1.250 . S
C405 H374 0.929 . S
C405 C390 1.437 . S
C405 C406 1.317 . S
C406 H377 0.930 . S
C406 C382 1.431 . S
C406 C405 1.317 . S
C407 Gd348 2.828 . S
C407 O392 1.258 . S
C407 O397 1.252 . S
C407 C408 1.497 . S
C408 C407 1.497 . S
C408 C409 1.395 1_556 S
C408 C410 1.380 . S
C409 C408 1.395 1_554 S
C409 C412 1.398 . S
C409 H424 0.930 . S
C410 C408 1.380 . S
C410 C411 1.391 1_556 S
C410 H425 0.930 . S
C411 C410 1.391 1_554 S
C411 C413 1.387 . S
C412 C409 1.398 . S
C412 C413 1.380 . S
C412 H426 0.930 . S
C413 C411 1.387 . S
C413 C412 1.380 . S
C413 H427 0.930 . S
C414 O394 1.254 . S
C414 O395 1.268 . S
C415 O399 1.284 . S
C415 O402 1.250 . S
C416 Gd349 2.828 . S
C416 O398 1.258 . S
C416 O403 1.252 . S
C416 C417 1.497 . S
C417 C416 1.497 . S
C417 C418 1.395 . S
C417 C419 1.380 . S
C418 C417 1.395 . S
C418 C421 1.398 . S
C418 H428 0.930 . S
C419 C417 1.380 . S
C419 C420 1.391 . S
C419 H429 0.930 . S
C420 C419 1.391 . S
C420 C422 1.387 . S
C421 C418 1.398 . S
C421 C422 1.380 . S
C421 H430 0.930 . S
C422 C420 1.387 . S
C422 C421 1.380 . S
C422 H431 0.930 . S
C423 O400 1.254 . S
C423 O401 1.268 . S
H424 C409 0.930 . S
H425 C410 0.930 . S
H426 C412 0.930 . S
H427 C413 0.930 . S
H428 C418 0.930 . S
H429 C419 0.930 . S
H430 C421 0.930 . S
H431 C422 0.930 . S
C432 C433 1.391 . S
C432 C434 1.394 . S
C432 H448 0.931 . S
C433 C432 1.391 . S
C433 C437 1.376 . S
C434 C432 1.394 . S
C434 C435 1.369 . S
C434 C438 1.531 . S
C435 C434 1.369 . S
C435 C436 1.410 . S
C435 C443 1.503 . S
C436 C435 1.410 . S
C436 C437 1.392 . S
C436 C439 1.511 1_545 S
C437 C433 1.376 . S
C437 C436 1.392 . S
C437 H449 0.929 . S
C438 C434 1.531 . S
C438 H450 0.960 . S
C438 H451 0.962 . S
C438 H452 0.960 . S
C439 C436 1.511 1_565 S
C439 H453 0.961 . S
C439 H454 0.961 . S
C439 H455 0.961 . S
C440 C441 1.370 . S
C440 C442 1.363 . S
C440 H456 0.931 . S
C441 C440 1.370 . S
C441 C445 1.408 . S
C442 C440 1.363 . S
C442 C443 1.370 . S
C442 C446 1.524 . S
C443 C435 1.503 . S
C443 C442 1.370 . S
C443 C444 1.403 . S
C444 C443 1.403 . S
C444 C445 1.404 . S
C444 C447 1.539 . S
C445 C441 1.408 . S
C445 C444 1.404 . S
C445 H457 0.930 . S
C446 C442 1.524 . S
C446 H458 0.956 . S
C446 H459 0.961 . S
C446 H460 0.961 . S
C447 C444 1.539 . S
C447 H461 0.958 . S
C447 H462 0.941 1_545 S
C447 H463 0.960 . S
H448 C432 0.931 . S
H449 C437 0.929 . S
H450 C438 0.960 . S
H451 C438 0.962 . S
H452 C438 0.960 . S
H453 C439 0.961 . S
H454 C439 0.961 . S
H455 C439 0.961 . S
H456 C440 0.931 . S
H457 C445 0.930 . S
H458 C446 0.956 . S
H459 C446 0.961 . S
H460 C446 0.961 . S
H461 C447 0.958 . S
H462 C447 0.941 1_565 S
H463 C447 0.960 . S
C464 C465 1.391 . S
C464 C466 1.394 . S
C464 H480 0.931 . S
C465 C464 1.391 . S
C465 C469 1.376 . S
C466 C464 1.394 . S
C466 C467 1.369 . S
C466 C470 1.531 . S
C467 C466 1.369 . S
C467 C468 1.410 . S
C467 C475 1.503 . S
C468 C467 1.410 . S
C468 C469 1.392 . S
C468 C471 1.511 . S
C469 C465 1.376 . S
C469 C468 1.392 . S
C469 H481 0.929 . S
C470 C466 1.531 . S
C470 H482 0.960 . S
C470 H483 0.962 . S
C470 H484 0.960 . S
C471 C468 1.511 . S
C471 H485 0.961 . S
C471 H486 0.961 . S
C471 H487 0.961 . S
C472 C473 1.370 . S
C472 C474 1.363 . S
C472 H488 0.931 . S
C473 C472 1.370 . S
C473 C477 1.408 . S
C474 C472 1.363 . S
C474 C475 1.370 . S
C474 C478 1.524 . S
C475 C467 1.503 . S
C475 C474 1.370 . S
C475 C476 1.403 . S
C476 C475 1.403 . S
C476 C477 1.404 . S
C476 C479 1.539 . S
C477 C473 1.408 . S
C477 C476 1.404 . S
C477 H489 0.930 . S
C478 C474 1.524 . S
C478 H490 0.956 . S
C478 H491 0.961 . S
C478 H492 0.961 . S
C479 C476 1.539 . S
C479 H493 0.958 . S
C479 H494 0.961 . S
C479 H495 0.960 . S
H480 C464 0.931 . S
H481 C469 0.929 . S
H482 C470 0.960 . S
H483 C470 0.962 . S
H484 C470 0.960 . S
H485 C471 0.961 . S
H486 C471 0.961 . S
H487 C471 0.961 . S
H488 C472 0.931 . S
H489 C477 0.930 . S
H490 C478 0.956 . S
H491 C478 0.961 . S
H492 C478 0.961 . S
H493 C479 0.958 . S
H494 C479 0.961 . S
H495 C479 0.960 . S
C496 C497 1.391 . S
C496 C498 1.394 . S
C496 H512 0.931 . S
C497 C496 1.391 . S
C497 C501 1.376 . S
C498 C496 1.394 . S
C498 C499 1.369 . S
C498 C502 1.531 . S
C499 C498 1.369 . S
C499 C500 1.410 . S
C499 C507 1.503 . S
C500 C499 1.410 . S
C500 C501 1.392 . S
C500 C503 1.511 . S
C501 C497 1.376 . S
C501 C500 1.392 . S
C501 H513 0.929 . S
C502 C498 1.531 . S
C502 H514 0.960 . S
C502 H515 0.962 . S
C502 H516 0.960 . S
C503 C500 1.511 . S
C503 H517 0.961 . S
C503 H518 0.961 . S
C503 H519 0.961 . S
C504 C505 1.370 . S
C504 C506 1.363 . S
C504 H520 0.931 . S
C505 C504 1.370 . S
C505 C509 1.408 . S
C506 C504 1.363 . S
C506 C507 1.370 . S
C506 C510 1.524 . S
C507 C499 1.503 . S
C507 C506 1.370 . S
C507 C508 1.403 . S
C508 C507 1.403 . S
C508 C509 1.404 . S
C508 C511 1.539 . S
C509 C505 1.408 . S
C509 C508 1.404 . S
C509 H521 0.930 . S
C510 C506 1.524 . S
C510 H522 0.956 . S
C510 H523 0.961 . S
C510 H524 0.961 . S
C511 C508 1.539 . S
C511 H525 0.958 . S
C511 H526 0.961 . S
C511 H527 0.960 . S
H512 C496 0.931 . S
H513 C501 0.929 . S
H514 C502 0.960 . S
H515 C502 0.962 . S
H516 C502 0.960 . S
H517 C503 0.961 . S
H518 C503 0.961 . S
H519 C503 0.961 . S
H520 C504 0.931 . S
H521 C509 0.930 . S
H522 C510 0.956 . S
H523 C510 0.961 . S
H524 C510 0.961 . S
H525 C511 0.958 . S
H526 C511 0.961 . S
H527 C511 0.960 . S
C528 C529 1.391 . S
C528 C530 1.394 . S
C528 H544 0.931 . S
C529 C528 1.391 . S
C529 C533 1.376 . S
C530 C528 1.394 . S
C530 C531 1.369 . S
C530 C534 1.531 . S
C531 C530 1.369 . S
C531 C532 1.410 . S
C531 C539 1.503 . S
C532 C531 1.410 . S
C532 C533 1.392 . S
C532 C535 1.511 . S
C533 C529 1.376 . S
C533 C532 1.392 . S
C533 H545 0.929 . S
C534 C530 1.531 . S
C534 H546 0.960 . S
C534 H547 0.962 . S
C534 H548 0.960 . S
C535 C532 1.511 . S
C535 H549 0.961 . S
C535 H550 0.961 . S
C535 H551 0.961 . S
C536 C537 1.370 . S
C536 C538 1.363 . S
C536 H552 0.931 . S
C537 C536 1.370 . S
C537 C541 1.408 . S
C538 C536 1.363 . S
C538 C539 1.370 . S
C538 C542 1.524 . S
C539 C531 1.503 . S
C539 C538 1.370 . S
C539 C540 1.403 . S
C540 C539 1.403 . S
C540 C541 1.404 . S
C540 C543 1.539 1_455 S
C541 C537 1.408 . S
C541 C540 1.404 . S
C541 H553 0.930 1_455 S
C542 C538 1.524 . S
C542 H554 0.956 . S
C542 H555 0.961 . S
C542 H556 0.961 . S
C543 C540 1.539 1_655 S
C543 H557 0.958 . S
C543 H558 0.961 . S
C543 H559 0.960 . S
H544 C528 0.931 . S
H545 C533 0.929 . S
H546 C534 0.960 . S
H547 C534 0.962 . S
H548 C534 0.960 . S
H549 C535 0.961 . S
H550 C535 0.961 . S
H551 C535 0.961 . S
H552 C536 0.931 . S
H553 C541 0.930 1_655 S
H554 C542 0.956 . S
H555 C542 0.961 . S
H556 C542 0.961 . S
H557 C543 0.958 . S
H558 C543 0.961 . S
H559 C543 0.960 . S
C560 C561 1.391 . S
C560 C562 1.394 . S
C560 H576 0.931 . S
C561 C560 1.391 . S
C561 C565 1.376 . S
C562 C560 1.394 . S
C562 C563 1.369 . S
C562 C566 1.531 . S
C563 C562 1.369 . S
C563 C564 1.410 . S
C563 C571 1.503 1_554 S
C564 C563 1.410 . S
C564 C565 1.392 . S
C564 C567 1.511 1_554 S
C565 C561 1.376 . S
C565 C564 1.392 . S
C565 H577 0.929 . S
C566 C562 1.531 . S
C566 H578 0.960 . S
C566 H579 0.962 . S
C566 H580 0.960 . S
C567 C564 1.511 1_556 S
C567 H581 0.961 . S
C567 H582 0.961 . S
C567 H583 0.961 . S
C568 C569 1.370 1_545 S
C568 C570 1.363 . S
C568 H584 0.931 . S
C569 C568 1.370 1_565 S
C569 C573 1.408 . S
C570 C568 1.363 . S
C570 C571 1.370 1_545 S
C570 C574 1.524 1_556 S
C571 C563 1.503 1_556 S
C571 C570 1.370 1_565 S
C571 C572 1.403 . S
C572 C571 1.403 . S
C572 C573 1.404 . S
C572 C575 1.539 . S
C573 C569 1.408 . S
C573 C572 1.404 . S
C573 H585 0.930 . S
C574 C570 1.524 1_554 S
C574 H586 0.956 . S
C574 H587 0.961 . S
C574 H588 0.961 1_554 S
C575 C572 1.539 . S
C575 H589 0.958 . S
C575 H590 0.961 . S
C575 H591 0.960 . S
H576 C560 0.931 . S
H577 C565 0.929 . S
H578 C566 0.960 . S
H579 C566 0.962 . S
H580 C566 0.960 . S
H581 C567 0.961 . S
H582 C567 0.961 . S
H583 C567 0.961 . S
H584 C568 0.931 . S
H585 C573 0.930 . S
H586 C574 0.956 . S
H587 C574 0.961 . S
H588 C574 0.961 1_556 S
H589 C575 0.958 . S
H590 C575 0.961 . S
H591 C575 0.960 . S
C592 C593 1.391 . S
C592 C594 1.394 . S
C592 H608 0.931 . S
C593 C592 1.391 . S
C593 C597 1.376 . S
C594 C592 1.394 . S
C594 C595 1.369 . S
C594 C598 1.531 1_554 S
C595 C594 1.369 . S
C595 C596 1.410 . S
C595 C603 1.503 1_554 S
C596 C595 1.410 . S
C596 C597 1.392 . S
C596 C599 1.511 . S
C597 C593 1.376 . S
C597 C596 1.392 . S
C597 H609 0.929 . S
C598 C594 1.531 1_556 S
C598 H610 0.960 . S
C598 H611 0.962 1_556 S
C598 H612 0.960 . S
C599 C596 1.511 . S
C599 H613 0.961 . S
C599 H614 0.961 . S
C599 H615 0.961 . S
C600 C601 1.370 . S
C600 C602 1.363 . S
C600 H616 0.931 . S
C601 C600 1.370 . S
C601 C605 1.408 . S
C602 C600 1.363 . S
C602 C603 1.370 . S
C602 C606 1.524 1_556 S
C603 C595 1.503 1_556 S
C603 C602 1.370 . S
C603 C604 1.403 . S
C604 C603 1.403 . S
C604 C605 1.404 . S
C604 C607 1.539 . S
C605 C601 1.408 . S
C605 C604 1.404 . S
C605 H617 0.930 . S
C606 C602 1.524 1_554 S
C606 H618 0.956 . S
C606 H619 0.961 . S
C606 H620 0.961 . S
C607 C604 1.539 . S
C607 H621 0.958 . S
C607 H622 0.961 . S
C607 H623 0.960 . S
H608 C592 0.931 . S
H609 C597 0.929 . S
H610 C598 0.960 . S
H611 C598 0.962 1_554 S
H612 C598 0.960 . S
H613 C599 0.961 . S
H614 C599 0.961 . S
H615 C599 0.961 . S
H616 C600 0.931 . S
H617 C605 0.930 . S
H618 C606 0.956 . S
H619 C606 0.961 . S
H620 C606 0.961 . S
H621 C607 0.958 . S
H622 C607 0.961 . S
H623 C607 0.960 . S
C624 C625 1.391 . S
C624 C626 1.394 . S
C624 H640 0.931 . S
C625 C624 1.391 . S
C625 C629 1.376 . S
C626 C624 1.394 . S
C626 C627 1.369 . S
C626 C630 1.531 1_554 S
C627 C626 1.369 . S
C627 C628 1.410 . S
C627 C635 1.503 1_554 S
C628 C627 1.410 . S
C628 C629 1.392 . S
C628 C631 1.511 . S
C629 C625 1.376 . S
C629 C628 1.392 . S
C629 H641 0.929 . S
C630 C626 1.531 1_556 S
C630 H642 0.960 . S
C630 H643 0.962 . S
C630 H644 0.960 . S
C631 C628 1.511 . S
C631 H645 0.961 . S
C631 H646 0.961 . S
C631 H647 0.961 . S
C632 C633 1.370 . S
C632 C634 1.363 . S
C632 H648 0.931 . S
C633 C632 1.370 . S
C633 C637 1.408 . S
C634 C632 1.363 . S
C634 C635 1.370 . S
C634 C638 1.524 . S
C635 C627 1.503 1_556 S
C635 C634 1.370 . S
C635 C636 1.403 . S
C636 C635 1.403 . S
C636 C637 1.404 . S
C636 C639 1.539 1_556 S
C637 C633 1.408 . S
C637 C636 1.404 . S
C637 H649 0.930 . S
C638 C634 1.524 . S
C638 H650 0.956 . S
C638 H651 0.961 . S
C638 H652 0.961 . S
C639 C636 1.539 1_554 S
C639 H653 0.958 . S
C639 H654 0.961 . S
C639 H655 0.960 . S
H640 C624 0.931 . S
H641 C629 0.929 . S
H642 C630 0.960 . S
H643 C630 0.962 . S
H644 C630 0.960 . S
H645 C631 0.961 . S
H646 C631 0.961 . S
H647 C631 0.961 . S
H648 C632 0.931 . S
H649 C637 0.930 . S
H650 C638 0.956 . S
H651 C638 0.961 . S
H652 C638 0.961 . S
H653 C639 0.958 . S
H654 C639 0.961 . S
H655 C639 0.960 . S
C656 C657 1.391 . S
C656 C658 1.394 . S
C656 H672 0.931 . S
C657 C656 1.391 . S
C657 C661 1.376 . S
C658 C656 1.394 . S
C658 C659 1.369 . S
C658 C662 1.531 1_655 S
C659 C658 1.369 . S
C659 C660 1.410 . S
C659 C667 1.503 1_554 S
C660 C659 1.410 . S
C660 C661 1.392 . S
C660 C663 1.511 1_554 S
C661 C657 1.376 . S
C661 C660 1.392 . S
C661 H673 0.929 . S
C662 C658 1.531 1_455 S
C662 H674 0.960 1_455 S
C662 H675 0.962 . S
C662 H676 0.960 . S
C663 C660 1.511 1_556 S
C663 H677 0.961 . S
C663 H678 0.961 . S
C663 H679 0.961 . S
C664 C665 1.370 . S
C664 C666 1.363 . S
C664 H680 0.931 1_655 S
C665 C664 1.370 . S
C665 C669 1.408 . S
C666 C664 1.363 . S
C666 C667 1.370 . S
C666 C670 1.524 1_655 S
C667 C659 1.503 1_556 S
C667 C666 1.370 . S
C667 C668 1.403 . S
C668 C667 1.403 . S
C668 C669 1.404 . S
C668 C671 1.539 1_556 S
C669 C665 1.408 . S
C669 C668 1.404 . S
C669 H681 0.930 . S
C670 C666 1.524 1_455 S
C670 H682 0.956 . S
C670 H683 0.961 1_455 S
C670 H684 0.961 . S
C671 C668 1.539 1_554 S
C671 H685 0.958 . S
C671 H686 0.961 1_554 S
C671 H687 0.960 . S
H672 C656 0.931 . S
H673 C661 0.929 . S
H674 C662 0.960 1_655 S
H675 C662 0.962 . S
H676 C662 0.960 . S
H677 C663 0.961 . S
H678 C663 0.961 . S
H679 C663 0.961 . S
H680 C664 0.931 1_455 S
H681 C669 0.930 . S
H682 C670 0.956 . S
H683 C670 0.961 1_655 S
H684 C670 0.961 . S
H685 C671 0.958 . S
H686 C671 0.961 1_556 S
H687 C671 0.960 . S
C688 C689 1.391 . S
C688 C690 1.394 . S
C688 H704 0.931 . S
C689 C688 1.391 . S
C689 C693 1.376 . S
C690 C688 1.394 . S
C690 C691 1.369 . S
C690 C694 1.531 . S
C691 C690 1.369 . S
C691 C692 1.410 . S
C691 C699 1.503 . S
C692 C691 1.410 . S
C692 C693 1.392 . S
C692 C695 1.511 1_455 S
C693 C689 1.376 . S
C693 C692 1.392 . S
C693 H705 0.929 . S
C694 C690 1.531 . S
C694 H706 0.960 . S
C694 H707 0.962 . S
C694 H708 0.960 . S
C695 C692 1.511 1_655 S
C695 H709 0.961 . S
C695 H710 0.961 . S
C695 H711 0.961 . S
C696 C697 1.370 . S
C696 C698 1.363 . S
C696 H712 0.931 . S
C697 C696 1.370 . S
C697 C701 1.408 . S
C698 C696 1.363 . S
C698 C699 1.370 . S
C698 C702 1.524 . S
C699 C691 1.503 . S
C699 C698 1.370 . S
C699 C700 1.403 . S
C700 C699 1.403 . S
C700 C701 1.404 . S
C700 C703 1.539 . S
C701 C697 1.408 . S
C701 C700 1.404 . S
C701 H713 0.930 1_455 S
C702 C698 1.524 . S
C702 H714 0.956 . S
C702 H715 0.961 . S
C702 H716 0.961 . S
C703 C700 1.539 . S
C703 H717 0.958 . S
C703 H718 0.961 1_455 S
C703 H719 0.960 . S
H704 C688 0.931 . S
H705 C693 0.929 . S
H706 C694 0.960 . S
H707 C694 0.962 . S
H708 C694 0.960 . S
H709 C695 0.961 . S
H710 C695 0.961 . S
H711 C695 0.961 . S
H712 C696 0.931 . S
H713 C701 0.930 1_655 S
H714 C702 0.956 . S
H715 C702 0.961 . S
H716 C702 0.961 . S
H717 C703 0.958 . S
H718 C703 0.961 1_655 S
H719 C703 0.960 . S
C720 C721 1.391 . S
C720 C722 1.394 . S
C720 H736 0.931 . S
C721 C720 1.391 . S
C721 C725 1.376 . S
C722 C720 1.394 . S
C722 C723 1.369 . S
C722 C726 1.531 . S
C723 C722 1.369 . S
C723 C724 1.410 . S
C723 C731 1.503 . S
C724 C723 1.410 . S
C724 C725 1.392 . S
C724 C727 1.511 1_545 S
C725 C721 1.376 . S
C725 C724 1.392 . S
C725 H737 0.929 . S
C726 C722 1.531 . S
C726 H738 0.960 . S
C726 H739 0.962 . S
C726 H740 0.960 . S
C727 C724 1.511 1_565 S
C727 H741 0.961 . S
C727 H742 0.961 . S
C727 H743 0.961 . S
C728 C729 1.370 . S
C728 C730 1.363 . S
C728 H744 0.931 . S
C729 C728 1.370 . S
C729 C733 1.408 . S
C730 C728 1.363 . S
C730 C731 1.370 . S
C730 C734 1.524 . S
C731 C723 1.503 . S
C731 C730 1.370 . S
C731 C732 1.403 . S
C732 C731 1.403 . S
C732 C733 1.404 . S
C732 C735 1.539 . S
C733 C729 1.408 . S
C733 C732 1.404 . S
C733 H745 0.930 . S
C734 C730 1.524 . S
C734 H746 0.956 . S
C734 H747 0.961 . S
C734 H748 0.961 . S
C735 C732 1.539 . S
C735 H749 0.958 . S
C735 H750 0.961 . S
C735 H751 0.960 . S
H736 C720 0.931 . S
H737 C725 0.929 . S
H738 C726 0.960 . S
H739 C726 0.962 . S
H740 C726 0.960 . S
H741 C727 0.961 . S
H742 C727 0.961 . S
H743 C727 0.961 . S
H744 C728 0.931 . S
H745 C733 0.930 . S
H746 C734 0.956 . S
H747 C734 0.961 . S
H748 C734 0.961 . S
H749 C735 0.958 . S
H750 C735 0.961 . S
H751 C735 0.960 . S
C752 C753 1.391 . S
C752 C754 1.394 . S
C752 H768 0.931 . S
C753 C752 1.391 . S
C753 C757 1.376 . S
C754 C752 1.394 . S
C754 C755 1.369 . S
C754 C758 1.531 . S
C755 C754 1.369 . S
C755 C756 1.410 . S
C755 C763 1.503 . S
C756 C755 1.410 . S
C756 C757 1.392 . S
C756 C759 1.511 . S
C757 C753 1.376 . S
C757 C756 1.392 . S
C757 H769 0.929 . S
C758 C754 1.531 . S
C758 H770 0.960 . S
C758 H771 0.962 . S
C758 H772 0.960 . S
C759 C756 1.511 . S
C759 H773 0.961 . S
C759 H774 0.961 . S
C759 H775 0.961 . S
C760 C761 1.370 . S
C760 C762 1.363 . S
C760 H776 0.931 . S
C761 C760 1.370 . S
C761 C765 1.408 . S
C762 C760 1.363 . S
C762 C763 1.370 . S
C762 C766 1.524 . S
C763 C755 1.503 . S
C763 C762 1.370 . S
C763 C764 1.403 . S
C764 C763 1.403 . S
C764 C765 1.404 . S
C764 C767 1.539 . S
C765 C761 1.408 . S
C765 C764 1.404 . S
C765 H777 0.930 . S
C766 C762 1.524 . S
C766 H778 0.956 . S
C766 H779 0.961 . S
C766 H780 0.961 . S
C767 C764 1.539 . S
C767 H781 0.958 . S
C767 H782 0.961 . S
C767 H783 0.960 . S
H768 C752 0.931 . S
H769 C757 0.929 . S
H770 C758 0.960 . S
H771 C758 0.962 . S
H772 C758 0.960 . S
H773 C759 0.961 . S
H774 C759 0.961 . S
H775 C759 0.961 . S
H776 C760 0.931 . S
H777 C765 0.930 . S
H778 C766 0.956 . S
H779 C766 0.961 . S
H780 C766 0.961 . S
H781 C767 0.958 . S
H782 C767 0.961 . S
H783 C767 0.960 . S
C784 C785 1.391 . S
C784 C786 1.394 . S
C784 H800 0.931 . S
C785 C784 1.391 . S
C785 C789 1.376 . S
C786 C784 1.394 . S
C786 C787 1.369 . S
C786 C790 1.531 . S
C787 C786 1.369 . S
C787 C788 1.410 . S
C787 C795 1.503 . S
C788 C787 1.410 . S
C788 C789 1.392 . S
C788 C791 1.511 . S
C789 C785 1.376 . S
C789 C788 1.392 . S
C789 H801 0.929 . S
C790 C786 1.531 . S
C790 H802 0.960 . S
C790 H803 0.962 . S
C790 H804 0.960 . S
C791 C788 1.511 . S
C791 H805 0.961 . S
C791 H806 0.961 . S
C791 H807 0.961 . S
C792 C793 1.370 . S
C792 C794 1.363 . S
C792 H808 0.931 . S
C793 C792 1.370 . S
C793 C797 1.408 . S
C794 C792 1.363 . S
C794 C795 1.370 . S
C794 C798 1.524 . S
C795 C787 1.503 . S
C795 C794 1.370 . S
C795 C796 1.403 . S
C796 C795 1.403 . S
C796 C797 1.404 . S
C796 C799 1.539 . S
C797 C793 1.408 . S
C797 C796 1.404 . S
C797 H809 0.930 . S
C798 C794 1.524 . S
C798 H810 0.956 . S
C798 H811 0.961 . S
C798 H812 0.961 . S
C799 C796 1.539 . S
C799 H813 0.958 . S
C799 H814 0.961 . S
C799 H815 0.960 . S
H800 C784 0.931 . S
H801 C789 0.929 . S
H802 C790 0.960 . S
H803 C790 0.962 . S
H804 C790 0.960 . S
H805 C791 0.961 . S
H806 C791 0.961 . S
H807 C791 0.961 . S
H808 C792 0.931 . S
H809 C797 0.930 . S
H810 C798 0.956 . S
H811 C798 0.961 . S
H812 C798 0.961 . S
H813 C799 0.958 . S
H814 C799 0.961 . S
H815 C799 0.960 . S
C816 C817 1.391 . S
C816 C818 1.394 . S
C816 H832 0.931 . S
C817 C816 1.391 . S
C817 C821 1.376 . S
C818 C816 1.394 . S
C818 C819 1.369 . S
C818 C822 1.531 1_655 S
C819 C818 1.369 . S
C819 C820 1.410 . S
C819 C827 1.503 . S
C820 C819 1.410 . S
C820 C821 1.392 . S
C820 C823 1.511 . S
C821 C817 1.376 . S
C821 C820 1.392 . S
C821 H833 0.929 . S
C822 C818 1.531 1_455 S
C822 H834 0.960 . S
C822 H835 0.962 . S
C822 H836 0.960 . S
C823 C820 1.511 . S
C823 H837 0.961 . S
C823 H838 0.961 . S
C823 H839 0.961 . S
C824 C825 1.370 1_554 S
C824 C826 1.370 . S
C824 H840 0.931 . S
C825 C824 1.370 1_556 S
C825 C829 1.408 1_455 S
C826 C824 1.370 . S
C826 C827 1.361 1_455 S
C826 C830 1.527 . S
C827 C819 1.503 . S
C827 C826 1.361 1_655 S
C827 C828 1.403 1_554 S
C828 C827 1.403 1_556 S
C828 C829 1.404 . S
C828 C831 1.539 . S
C829 C825 1.408 1_655 S
C829 C828 1.404 . S
C829 H841 0.930 . S
C830 C826 1.527 . S
C830 H842 0.956 . S
C830 H843 0.961 1_455 S
C830 H844 0.961 . S
C831 C828 1.539 . S
C831 H845 0.958 . S
C831 H846 0.961 . S
C831 H847 0.960 . S
H832 C816 0.931 . S
H833 C821 0.929 . S
H834 C822 0.960 . S
H835 C822 0.962 . S
H836 C822 0.960 . S
H837 C823 0.961 . S
H838 C823 0.961 . S
H839 C823 0.961 . S
H840 C824 0.931 . S
H841 C829 0.930 . S
H842 C830 0.956 . S
H843 C830 0.961 1_655 S
H844 C830 0.961 . S
H845 C831 0.958 . S
H846 C831 0.961 . S
H847 C831 0.960 . S
C848 C849 1.391 . S
C848 C850 1.394 . S
C848 H864 0.931 . S
C849 C848 1.391 . S
C849 C853 1.376 . S
C850 C848 1.394 . S
C850 C851 1.369 . S
C850 C854 1.531 1_565 S
C851 C850 1.369 . S
C851 C852 1.410 . S
C851 C859 1.503 . S
C852 C851 1.410 . S
C852 C853 1.392 . S
C852 C855 1.511 . S
C853 C849 1.376 . S
C853 C852 1.392 . S
C853 H865 0.929 . S
C854 C850 1.531 1_545 S
C854 H866 0.960 . S
C854 H867 0.962 . S
C854 H868 0.960 . S
C855 C852 1.511 . S
C855 H869 0.961 . S
C855 H870 0.961 . S
C855 H871 0.961 . S
C856 C857 1.370 1_554 S
C856 C858 1.363 1_545 S
C856 H872 0.931 . S
C857 C856 1.370 1_556 S
C857 C861 1.408 . S
C858 C856 1.363 1_565 S
C858 C859 1.370 . S
C858 C862 1.524 . S
C859 C851 1.503 . S
C859 C858 1.370 . S
C859 C860 1.403 1_554 S
C860 C859 1.403 1_556 S
C860 C861 1.404 1_565 S
C860 C863 1.539 . S
C861 C857 1.408 . S
C861 C860 1.404 1_545 S
C861 H873 0.930 . S
C862 C858 1.524 . S
C862 H874 0.956 1_565 S
C862 H875 0.961 . S
C862 H876 0.961 . S
C863 C860 1.539 . S
C863 H877 0.958 1_565 S
C863 H878 0.961 . S
C863 H879 0.960 . S
H864 C848 0.931 . S
H865 C853 0.929 . S
H866 C854 0.960 . S
H867 C854 0.962 . S
H868 C854 0.960 . S
H869 C855 0.961 . S
H870 C855 0.961 . S
H871 C855 0.961 . S
H872 C856 0.931 . S
H873 C861 0.930 . S
H874 C862 0.956 1_545 S
H875 C862 0.961 . S
H876 C862 0.961 . S
H877 C863 0.958 1_545 S
H878 C863 0.961 . S
H879 C863 0.960 . S
C880 C881 1.391 . S
C880 C882 1.394 . S
C880 H896 0.931 . S
C881 C880 1.391 . S
C881 C885 1.376 . S
C882 C880 1.394 . S
C882 C883 1.369 . S
C882 C886 1.531 . S
C883 C882 1.369 . S
C883 C884 1.410 . S
C883 C891 1.503 . S
C884 C883 1.410 . S
C884 C885 1.392 . S
C884 C887 1.511 . S
C885 C881 1.376 . S
C885 C884 1.392 . S
C885 H897 0.929 . S
C886 C882 1.531 . S
C886 H898 0.960 . S
C886 H899 0.962 . S
C886 H900 0.960 . S
C887 C884 1.511 . S
C887 H901 0.961 . S
C887 H902 0.961 . S
C887 H903 0.961 . S
C888 C889 1.370 1_556 S
C888 C890 1.363 1_556 S
C888 H904 0.931 . S
C889 C888 1.370 1_554 S
C889 C893 1.408 . S
C890 C888 1.363 1_554 S
C890 C891 1.370 . S
C890 C894 1.524 1_554 S
C891 C883 1.503 . S
C891 C890 1.370 . S
C891 C892 1.403 . S
C892 C891 1.403 . S
C892 C893 1.404 . S
C892 C895 1.539 . S
C893 C889 1.408 . S
C893 C892 1.404 . S
C893 H905 0.930 . S
C894 C890 1.524 1_556 S
C894 H906 0.956 . S
C894 H907 0.961 . S
C894 H908 0.961 . S
C895 C892 1.539 . S
C895 H909 0.958 . S
C895 H910 0.961 . S
C895 H911 0.960 . S
H896 C880 0.931 . S
H897 C885 0.929 . S
H898 C886 0.960 . S
H899 C886 0.962 . S
H900 C886 0.960 . S
H901 C887 0.961 . S
H902 C887 0.961 . S
H903 C887 0.961 . S
H904 C888 0.931 . S
H905 C893 0.930 . S
H906 C894 0.956 . S
H907 C894 0.961 . S
H908 C894 0.961 . S
H909 C895 0.958 . S
H910 C895 0.961 . S
H911 C895 0.960 . S
C912 C913 1.391 . S
C912 C914 1.394 . S
C912 H928 0.931 . S
C913 C912 1.391 . S
C913 C917 1.376 . S
C914 C912 1.394 . S
C914 C915 1.369 . S
C914 C918 1.531 . S
C915 C914 1.369 . S
C915 C916 1.410 . S
C915 C923 1.503 . S
C916 C915 1.410 . S
C916 C917 1.392 . S
C916 C919 1.511 . S
C917 C913 1.376 . S
C917 C916 1.392 . S
C917 H929 0.929 . S
C918 C914 1.531 . S
C918 H930 0.960 . S
C918 H931 0.962 1_554 S
C918 H932 0.960 . S
C919 C916 1.511 . S
C919 H933 0.961 . S
C919 H934 0.961 . S
C919 H935 0.961 . S
C920 C921 1.370 1_556 S
C920 C922 1.363 1_556 S
C920 H936 0.931 . S
C921 C920 1.370 1_554 S
C921 C925 1.408 . S
C922 C920 1.363 1_554 S
C922 C923 1.370 . S
C922 C926 1.524 . S
C923 C915 1.503 . S
C923 C922 1.370 . S
C923 C924 1.403 . S
C924 C923 1.403 . S
C924 C925 1.404 . S
C924 C927 1.539 . S
C925 C921 1.408 . S
C925 C924 1.404 . S
C925 H937 0.930 . S
C926 C922 1.524 . S
C926 H938 0.956 1_554 S
C926 H939 0.961 . S
C926 H940 0.961 1_554 S
C927 C924 1.539 . S
C927 H941 0.958 . S
C927 H942 0.961 . S
C927 H943 0.960 . S
H928 C912 0.931 . S
H929 C917 0.929 . S
H930 C918 0.960 . S
H931 C918 0.962 1_556 S
H932 C918 0.960 . S
H933 C919 0.961 . S
H934 C919 0.961 . S
H935 C919 0.961 . S
H936 C920 0.931 . S
H937 C925 0.930 . S
H938 C926 0.956 1_556 S
H939 C926 0.961 . S
H940 C926 0.961 1_556 S
H941 C927 0.958 . S
H942 C927 0.961 . S
H943 C927 0.960 . S
C944 C945 1.391 . S
C944 C946 1.394 . S
C944 H960 0.931 . S
C945 C944 1.391 . S
C945 C949 1.376 . S
C946 C944 1.394 . S
C946 C947 1.369 . S
C946 C950 1.531 . S
C947 C946 1.369 . S
C947 C948 1.410 . S
C947 C955 1.503 . S
C948 C947 1.410 . S
C948 C949 1.392 . S
C948 C951 1.511 . S
C949 C945 1.376 . S
C949 C948 1.392 . S
C949 H961 0.929 . S
C950 C946 1.531 . S
C950 H962 0.960 . S
C950 H963 0.962 1_455 S
C950 H964 0.960 1_455 S
C951 C948 1.511 . S
C951 H965 0.961 . S
C951 H966 0.961 . S
C951 H967 0.961 . S
C952 C953 1.370 . S
C952 C954 1.363 . S
C952 H968 0.931 . S
C953 C952 1.370 . S
C953 C957 1.408 . S
C954 C952 1.363 . S
C954 C955 1.370 . S
C954 C958 1.524 . S
C955 C947 1.503 . S
C955 C954 1.370 . S
C955 C956 1.403 . S
C956 C955 1.403 . S
C956 C957 1.404 . S
C956 C959 1.539 . S
C957 C953 1.408 . S
C957 C956 1.404 . S
C957 H969 0.930 . S
C958 C954 1.524 . S
C958 H970 0.956 . S
C958 H971 0.961 . S
C958 H972 0.961 . S
C959 C956 1.539 . S
C959 H973 0.958 . S
C959 H974 0.961 . S
C959 H975 0.960 . S
H960 C944 0.931 . S
H961 C949 0.929 . S
H962 C950 0.960 . S
H963 C950 0.962 1_655 S
H964 C950 0.960 1_655 S
H965 C951 0.961 . S
H966 C951 0.961 . S
H967 C951 0.961 . S
H968 C952 0.931 . S
H969 C957 0.930 . S
H970 C958 0.956 . S
H971 C958 0.961 . S
H972 C958 0.961 . S
H973 C959 0.958 . S
H974 C959 0.961 . S
H975 C959 0.960 . S
C976 C977 1.391 . S
C976 C978 1.394 . S
C976 H992 0.931 . S
C977 C976 1.391 . S
C977 C981 1.376 . S
C978 C976 1.394 . S
C978 C979 1.369 . S
C978 C982 1.531 . S
C979 C978 1.369 . S
C979 C980 1.410 . S
C979 C987 1.503 . S
C980 C979 1.410 . S
C980 C981 1.392 . S
C980 C983 1.511 . S
C981 C977 1.376 . S
C981 C980 1.392 . S
C981 H993 0.929 . S
C982 C978 1.531 . S
C982 H994 0.960 . S
C982 H995 0.962 . S
C982 H996 0.960 . S
C983 C980 1.511 . S
C983 H997 0.961 . S
C983 H998 0.961 . S
C983 H999 0.961 . S
C984 C985 1.370 . S
C984 C986 1.363 . S
C984 H1000 0.931 . S
C985 C984 1.370 . S
C985 C989 1.408 . S
C986 C984 1.363 . S
C986 C987 1.370 . S
C986 C990 1.524 . S
C987 C979 1.503 . S
C987 C986 1.370 . S
C987 C988 1.403 . S
C988 C987 1.403 . S
C988 C989 1.404 . S
C988 C991 1.539 1_545 S
C989 C985 1.408 . S
C989 C988 1.404 . S
C989 H1001 0.930 1_545 S
C990 C986 1.524 . S
C990 H1002 0.956 . S
C990 H1003 0.961 . S
C990 H1004 0.961 . S
C991 C988 1.539 1_565 S
C991 H1005 0.958 . S
C991 H1006 0.961 . S
C991 H1007 0.945 1_565 S
H992 C976 0.931 . S
H993 C981 0.929 . S
H994 C982 0.960 . S
H995 C982 0.962 . S
H996 C982 0.960 . S
H997 C983 0.961 . S
H998 C983 0.961 . S
H999 C983 0.961 . S
H1000 C984 0.931 . S
H1001 C989 0.930 1_565 S
H1002 C990 0.956 . S
H1003 C990 0.961 . S
H1004 C990 0.961 . S
H1005 C991 0.958 . S
H1006 C991 0.961 . S
H1007 C991 0.945 1_545 S
C1008 C1009 1.391 . S
C1008 C1010 1.394 . S
C1008 H1024 0.931 . S
C1009 C1008 1.391 . S
C1009 C1013 1.376 . S
C1010 C1008 1.394 . S
C1010 C1011 1.369 . S
C1010 C1014 1.531 . S
C1011 C1010 1.369 . S
C1011 C1012 1.410 . S
C1011 C1019 1.503 . S
C1012 C1011 1.410 . S
C1012 C1013 1.392 . S
C1012 C1015 1.511 . S
C1013 C1009 1.376 . S
C1013 C1012 1.392 . S
C1013 H1025 0.929 . S
C1014 C1010 1.531 . S
C1014 H1026 0.960 . S
C1014 H1027 0.962 . S
C1014 H1028 0.960 . S
C1015 C1012 1.511 . S
C1015 H1029 0.961 . S
C1015 H1030 0.961 . S
C1015 H1031 0.961 . S
C1016 C1017 1.370 . S
C1016 C1018 1.363 . S
C1016 H1032 0.931 . S
C1017 C1016 1.370 . S
C1017 C1021 1.408 . S
C1018 C1016 1.363 . S
C1018 C1019 1.370 . S
C1018 C1022 1.524 . S
C1019 C1011 1.503 . S
C1019 C1018 1.370 . S
C1019 C1020 1.403 . S
C1020 C1019 1.403 . S
C1020 C1021 1.404 . S
C1020 C1023 1.539 . S
C1021 C1017 1.408 . S
C1021 C1020 1.404 . S
C1021 H1033 0.930 . S
C1022 C1018 1.524 . S
C1022 H1034 0.956 . S
C1022 H1035 0.961 . S
C1022 H1036 0.961 . S
C1023 C1020 1.539 . S
C1023 H1037 0.958 . S
C1023 H1038 0.961 . S
C1023 H1039 0.960 . S
H1024 C1008 0.931 . S
H1025 C1013 0.929 . S
H1026 C1014 0.960 . S
H1027 C1014 0.962 . S
H1028 C1014 0.960 . S
H1029 C1015 0.961 . S
H1030 C1015 0.961 . S
H1031 C1015 0.961 . S
H1032 C1016 0.931 . S
H1033 C1021 0.930 . S
H1034 C1022 0.956 . S
H1035 C1022 0.961 . S
H1036 C1022 0.961 . S
H1037 C1023 0.958 . S
H1038 C1023 0.961 . S
H1039 C1023 0.960 . S
C1040 C1041 1.391 . S
C1040 C1042 1.394 . S
C1040 H1056 0.931 . S
C1041 C1040 1.391 . S
C1041 C1045 1.376 . S
C1042 C1040 1.394 . S
C1042 C1043 1.369 . S
C1042 C1046 1.531 . S
C1043 C1042 1.369 . S
C1043 C1044 1.410 . S
C1043 C1051 1.503 . S
C1044 C1043 1.410 . S
C1044 C1045 1.392 . S
C1044 C1047 1.511 . S
C1045 C1041 1.376 . S
C1045 C1044 1.392 . S
C1045 H1057 0.929 . S
C1046 C1042 1.531 . S
C1046 H1058 0.960 . S
C1046 H1059 0.962 . S
C1046 H1060 0.960 . S
C1047 C1044 1.511 . S
C1047 H1061 0.961 . S
C1047 H1062 0.961 . S
C1047 H1063 0.961 . S
C1048 C1049 1.370 . S
C1048 C1050 1.363 . S
C1048 H1064 0.931 . S
C1049 C1048 1.370 . S
C1049 C1053 1.408 . S
C1050 C1048 1.363 . S
C1050 C1051 1.370 . S
C1050 C1054 1.524 . S
C1051 C1043 1.503 . S
C1051 C1050 1.370 . S
C1051 C1052 1.403 . S
C1052 C1051 1.403 . S
C1052 C1053 1.404 . S
C1052 C1055 1.539 . S
C1053 C1049 1.408 . S
C1053 C1052 1.404 . S
C1053 H1065 0.930 . S
C1054 C1050 1.524 . S
C1054 H1066 0.956 . S
C1054 H1067 0.961 . S
C1054 H1068 0.961 . S
C1055 C1052 1.539 . S
C1055 H1069 0.958 . S
C1055 H1070 0.961 . S
C1055 H1071 0.960 . S
H1056 C1040 0.931 . S
H1057 C1045 0.929 . S
H1058 C1046 0.960 . S
H1059 C1046 0.962 . S
H1060 C1046 0.960 . S
H1061 C1047 0.961 . S
H1062 C1047 0.961 . S
H1063 C1047 0.961 . S
H1064 C1048 0.931 . S
H1065 C1053 0.930 . S
H1066 C1054 0.956 . S
H1067 C1054 0.961 . S
H1068 C1054 0.961 . S
H1069 C1055 0.958 . S
H1070 C1055 0.961 . S
H1071 C1055 0.960 . S
C1072 C1073 1.391 . S
C1072 C1074 1.394 . S
C1072 H1088 0.931 . S
C1073 C1072 1.391 . S
C1073 C1077 1.376 . S
C1074 C1072 1.394 . S
C1074 C1075 1.369 . S
C1074 C1078 1.531 1_655 S
C1075 C1074 1.369 . S
C1075 C1076 1.410 . S
C1075 C1083 1.503 . S
C1076 C1075 1.410 . S
C1076 C1077 1.392 . S
C1076 C1079 1.511 . S
C1077 C1073 1.376 . S
C1077 C1076 1.392 . S
C1077 H1089 0.929 . S
C1078 C1074 1.531 1_455 S
C1078 H1090 0.960 . S
C1078 H1091 0.962 1_455 S
C1078 H1092 0.960 . S
C1079 C1076 1.511 . S
C1079 H1093 0.961 . S
C1079 H1094 0.961 . S
C1079 H1095 0.961 . S
C1080 C1081 1.370 . S
C1080 C1082 1.363 . S
C1080 H1096 0.931 . S
C1081 C1080 1.370 . S
C1081 C1085 1.408 . S
C1082 C1080 1.363 . S
C1082 C1083 1.370 . S
C1082 C1086 1.524 . S
C1083 C1075 1.503 . S
C1083 C1082 1.370 . S
C1083 C1084 1.403 . S
C1084 C1083 1.403 . S
C1084 C1085 1.404 . S
C1084 C1087 1.539 1_655 S
C1085 C1081 1.408 . S
C1085 C1084 1.404 . S
C1085 H1097 0.930 1_655 S
C1086 C1082 1.524 . S
C1086 H1098 0.956 . S
C1086 H1099 0.961 . S
C1086 H1100 0.961 . S
C1087 C1084 1.539 1_455 S
C1087 H1101 0.958 . S
C1087 H1102 0.961 . S
C1087 H1103 0.962 . S
H1088 C1072 0.931 . S
H1089 C1077 0.929 . S
H1090 C1078 0.960 . S
H1091 C1078 0.962 1_655 S
H1092 C1078 0.960 . S
H1093 C1079 0.961 . S
H1094 C1079 0.961 . S
H1095 C1079 0.961 . S
H1096 C1080 0.931 . S
H1097 C1085 0.930 1_455 S
H1098 C1086 0.956 . S
H1099 C1086 0.961 . S
H1100 C1086 0.961 . S
H1101 C1087 0.958 . S
H1102 C1087 0.961 . S
H1103 C1087 0.962 . S
C1104 C1105 1.391 . S
C1104 C1106 1.394 . S
C1104 H1120 0.931 . S
C1105 C1104 1.391 . S
C1105 C1109 1.376 . S
C1106 C1104 1.394 . S
C1106 C1107 1.369 . S
C1106 C1110 1.531 1_565 S
C1107 C1106 1.369 . S
C1107 C1108 1.410 . S
C1107 C1115 1.503 . S
C1108 C1107 1.410 . S
C1108 C1109 1.392 . S
C1108 C1111 1.511 . S
C1109 C1105 1.376 . S
C1109 C1108 1.392 . S
C1109 H1121 0.929 . S
C1110 C1106 1.531 1_545 S
C1110 H1122 0.960 1_545 S
C1110 H1123 0.962 . S
C1110 H1124 0.960 . S
C1111 C1108 1.511 . S
C1111 H1125 0.961 . S
C1111 H1126 0.961 . S
C1111 H1127 0.961 . S
C1112 C1113 1.370 . S
C1112 C1114 1.363 . S
C1112 H1128 0.931 1_565 S
C1113 C1112 1.370 . S
C1113 C1117 1.408 . S
C1114 C1112 1.363 . S
C1114 C1115 1.370 . S
C1114 C1118 1.524 1_565 S
C1115 C1107 1.503 . S
C1115 C1114 1.370 . S
C1115 C1116 1.403 . S
C1116 C1115 1.403 . S
C1116 C1117 1.404 . S
C1116 C1119 1.539 . S
C1117 C1113 1.408 . S
C1117 C1116 1.404 . S
C1117 H1129 0.930 . S
C1118 C1114 1.524 1_545 S
C1118 H1130 0.956 . S
C1118 H1131 0.961 1_545 S
C1118 H1132 0.961 . S
C1119 C1116 1.539 . S
C1119 H1133 0.958 . S
C1119 H1134 0.961 . S
C1119 H1135 0.960 . S
H1120 C1104 0.931 . S
H1121 C1109 0.929 . S
H1122 C1110 0.960 1_565 S
H1123 C1110 0.962 . S
H1124 C1110 0.960 . S
H1125 C1111 0.961 . S
H1126 C1111 0.961 . S
H1127 C1111 0.961 . S
H1128 C1112 0.931 1_545 S
H1129 C1117 0.930 . S
H1130 C1118 0.956 . S
H1131 C1118 0.961 1_565 S
H1132 C1118 0.961 . S
H1133 C1119 0.958 . S
H1134 C1119 0.961 . S
H1135 C1119 0.960 . S
C1136 C1137 1.391 . S
C1136 C1138 1.394 . S
C1136 H1152 0.931 . S
C1137 C1136 1.391 . S
C1137 C1141 1.376 . S
C1138 C1136 1.394 . S
C1138 C1139 1.369 . S
C1138 C1142 1.531 . S
C1139 C1138 1.369 . S
C1139 C1140 1.410 . S
C1139 C1147 1.503 . S
C1140 C1139 1.410 . S
C1140 C1141 1.392 . S
C1140 C1143 1.511 . S
C1141 C1137 1.376 . S
C1141 C1140 1.392 . S
C1141 H1153 0.929 . S
C1142 C1138 1.531 . S
C1142 H1154 0.960 . S
C1142 H1155 0.962 . S
C1142 H1156 0.960 . S
C1143 C1140 1.511 . S
C1143 H1157 0.961 . S
C1143 H1158 0.961 . S
C1143 H1159 0.961 . S
C1144 C1145 1.370 . S
C1144 C1146 1.363 . S
C1144 H1160 0.931 . S
C1145 C1144 1.370 . S
C1145 C1149 1.408 . S
C1146 C1144 1.363 . S
C1146 C1147 1.370 . S
C1146 C1150 1.524 . S
C1147 C1139 1.503 . S
C1147 C1146 1.370 . S
C1147 C1148 1.403 . S
C1148 C1147 1.403 . S
C1148 C1149 1.404 . S
C1148 C1151 1.539 . S
C1149 C1145 1.408 . S
C1149 C1148 1.404 . S
C1149 H1161 0.930 . S
C1150 C1146 1.524 . S
C1150 H1162 0.956 . S
C1150 H1163 0.961 . S
C1150 H1164 0.961 . S
C1151 C1148 1.539 . S
C1151 H1165 0.958 . S
C1151 H1166 0.961 . S
C1151 H1167 0.960 . S
H1152 C1136 0.931 . S
H1153 C1141 0.929 . S
H1154 C1142 0.960 . S
H1155 C1142 0.962 . S
H1156 C1142 0.960 . S
H1157 C1143 0.961 . S
H1158 C1143 0.961 . S
H1159 C1143 0.961 . S
H1160 C1144 0.931 . S
H1161 C1149 0.930 . S
H1162 C1150 0.956 . S
H1163 C1150 0.961 . S
H1164 C1150 0.961 . S
H1165 C1151 0.958 . S
H1166 C1151 0.961 . S
H1167 C1151 0.960 . S
C1168 C1169 1.391 . S
C1168 C1170 1.394 . S
C1168 H1184 0.931 . S
C1169 C1168 1.391 . S
C1169 C1173 1.376 . S
C1170 C1168 1.394 . S
C1170 C1171 1.369 . S
C1170 C1174 1.531 . S
C1171 C1170 1.369 . S
C1171 C1172 1.410 . S
C1171 C1179 1.503 . S
C1172 C1171 1.410 . S
C1172 C1173 1.392 . S
C1172 C1175 1.511 . S
C1173 C1169 1.376 . S
C1173 C1172 1.392 . S
C1173 H1185 0.929 . S
C1174 C1170 1.531 . S
C1174 H1186 0.960 . S
C1174 H1187 0.962 . S
C1174 H1188 0.960 . S
C1175 C1172 1.511 . S
C1175 H1189 0.961 . S
C1175 H1190 0.961 . S
C1175 H1191 0.961 . S
C1176 C1177 1.370 . S
C1176 C1178 1.363 . S
C1176 H1192 0.931 . S
C1177 C1176 1.370 . S
C1177 C1181 1.408 . S
C1178 C1176 1.363 . S
C1178 C1179 1.370 . S
C1178 C1182 1.524 . S
C1179 C1171 1.503 . S
C1179 C1178 1.370 . S
C1179 C1180 1.403 . S
C1180 C1179 1.403 . S
C1180 C1181 1.404 . S
C1180 C1183 1.539 . S
C1181 C1177 1.408 . S
C1181 C1180 1.404 . S
C1181 H1193 0.930 . S
C1182 C1178 1.524 . S
C1182 H1194 0.956 . S
C1182 H1195 0.961 . S
C1182 H1196 0.961 . S
C1183 C1180 1.539 . S
C1183 H1197 0.958 . S
C1183 H1198 0.961 . S
C1183 H1199 0.960 . S
H1184 C1168 0.931 . S
H1185 C1173 0.929 . S
H1186 C1174 0.960 . S
H1187 C1174 0.962 . S
H1188 C1174 0.960 . S
H1189 C1175 0.961 . S
H1190 C1175 0.961 . S
H1191 C1175 0.961 . S
H1192 C1176 0.931 . S
H1193 C1181 0.930 . S
H1194 C1182 0.956 . S
H1195 C1182 0.961 . S
H1196 C1182 0.961 . S
H1197 C1183 0.958 . S
H1198 C1183 0.961 . S
H1199 C1183 0.960 . S
C433 C76 1.872 . S
C441 C171 1.932 . S
C473 C255 1.951 . S
C465 C88 1.891 . S
C505 C331 1.941 . S
C497 C52 1.933 . S
C537 C415 1.922 . S
C529 C64 1.926 . S
C569 C162 1.952 1_565 S
C561 C28 1.852 . S
C593 C40 1.836 . S
C601 C246 1.966 . S
C625 C4 1.980 . S
C633 C320 1.923 . S
C657 C16 1.975 . S
C665 C404 1.906 . S
C697 C159 0.627 1_455 S
C689 C69 0.677 . S
C729 C243 0.609 1_545 S
C721 C81 0.664 . S
C761 C336 0.598 . S
C753 C93 0.618 . S
C785 C57 0.685 . S
C793 C420 0.641 . S
C817 C21 0.717 . S
C825 C168 0.658 . S
C857 C252 0.621 . S
C849 C33 0.674 . S
C889 C327 0.553 . S
C881 C45 0.505 . S
C913 C9 0.622 . S
C921 C411 0.597 . S
C945 C66 2.048 . S
C953 C152 2.071 . S
C977 C78 2.003 . S
C985 C236 2.033 . S
C1017 C330 2.068 . S
C1009 C90 1.872 . S
C1049 C414 2.103 . S
C1041 C54 1.962 . S
C1073 C18 1.969 . S
C1081 C163 2.076 . S
C1113 C247 2.075 . S
C1105 C30 1.954 . S
C1145 C339 2.079 . S
C1137 C42 1.861 . S
C1169 C6 1.943 . S
C1177 C423 2.106 . S
