# Generated by pormake.
# Topology pto, (3,4)-cn, num edge types: 1
# Building blocks:
#     Node 0, Type 0, BuildingBlock: VETTIZ_charged_linker_0, # of connection points: 3
#     Node 1, Type 0, BuildingBlock: VETTIZ_charged_linker_0, # of connection points: 3
#     Node 2, Type 0, BuildingBlock: VETTIZ_charged_linker_0, # of connection points: 3
#     Node 3, Type 0, BuildingBlock: VETTIZ_charged_linker_0, # of connection points: 3
#     Node 4, Type 0, BuildingBlock: VETTIZ_charged_linker_0, # of connection points: 3
#     Node 5, Type 0, BuildingBlock: VETTIZ_charged_linker_0, # of connection points: 3
#     Node 6, Type 0, BuildingBlock: VETTIZ_charged_linker_0, # of connection points: 3
#     Node 7, Type 0, BuildingBlock: VETTIZ_charged_linker_0, # of connection points: 3
#     Node 8, Type 1, BuildingBlock: KOZSID_clean_sbu_0, # of connection points: 4
#     Node 9, Type 1, BuildingBlock: KOZSID_clean_sbu_0, # of connection points: 4
#     Node 10, Type 1, BuildingBlock: KOZSID_clean_sbu_0, # of connection points: 4
#     Node 11, Type 1, BuildingBlock: KOZSID_clean_sbu_0, # of connection points: 4
#     Node 12, Type 1, BuildingBlock: KOZSID_clean_sbu_0, # of connection points: 4
#     Node 13, Type 1, BuildingBlock: KOZSID_clean_sbu_0, # of connection points: 4
#     Edge 14, Type (0, 1), BuildingBlock: XIVTED_clean_linker_0, # of connection points: 2
#     Edge 15, Type (0, 1), BuildingBlock: XIVTED_clean_linker_0, # of connection points: 2
#     Edge 16, Type (0, 1), BuildingBlock: XIVTED_clean_linker_0, # of connection points: 2
#     Edge 17, Type (0, 1), BuildingBlock: XIVTED_clean_linker_0, # of connection points: 2
#     Edge 18, Type (0, 1), BuildingBlock: XIVTED_clean_linker_0, # of connection points: 2
#     Edge 19, Type (0, 1), BuildingBlock: XIVTED_clean_linker_0, # of connection points: 2
#     Edge 20, Type (0, 1), BuildingBlock: XIVTED_clean_linker_0, # of connection points: 2
#     Edge 21, Type (0, 1), BuildingBlock: XIVTED_clean_linker_0, # of connection points: 2
#     Edge 22, Type (0, 1), BuildingBlock: XIVTED_clean_linker_0, # of connection points: 2
#     Edge 23, Type (0, 1), BuildingBlock: XIVTED_clean_linker_0, # of connection points: 2
#     Edge 24, Type (0, 1), BuildingBlock: XIVTED_clean_linker_0, # of connection points: 2
#     Edge 25, Type (0, 1), BuildingBlock: XIVTED_clean_linker_0, # of connection points: 2
#     Edge 26, Type (0, 1), BuildingBlock: XIVTED_clean_linker_0, # of connection points: 2
#     Edge 27, Type (0, 1), BuildingBlock: XIVTED_clean_linker_0, # of connection points: 2
#     Edge 28, Type (0, 1), BuildingBlock: XIVTED_clean_linker_0, # of connection points: 2
#     Edge 29, Type (0, 1), BuildingBlock: XIVTED_clean_linker_0, # of connection points: 2
#     Edge 30, Type (0, 1), BuildingBlock: XIVTED_clean_linker_0, # of connection points: 2
#     Edge 31, Type (0, 1), BuildingBlock: XIVTED_clean_linker_0, # of connection points: 2
#     Edge 32, Type (0, 1), BuildingBlock: XIVTED_clean_linker_0, # of connection points: 2
#     Edge 33, Type (0, 1), BuildingBlock: XIVTED_clean_linker_0, # of connection points: 2
#     Edge 34, Type (0, 1), BuildingBlock: XIVTED_clean_linker_0, # of connection points: 2
#     Edge 35, Type (0, 1), BuildingBlock: XIVTED_clean_linker_0, # of connection points: 2
#     Edge 36, Type (0, 1), BuildingBlock: XIVTED_clean_linker_0, # of connection points: 2
#     Edge 37, Type (0, 1), BuildingBlock: XIVTED_clean_linker_0, # of connection points: 2
# Relax obj value: 0.000
# Max RMSD: 0.022
# Mean RMSD: 0.009
data_MOF--net-pto--node1-KOZSID_clean_sbu_0--node2-VETTIZ_charged_linker_0--edge1-XIVTED_clean_linker_0
_symmetry_space_group_name_H-M    P1
_symmetry_Int_Tables_number       1
_symmetry_cell_setting            triclinic
loop_
_symmetry_equiv_pos_as_xyz
'x, y, z'
_cell_length_a     46.676016
_cell_length_b     63.062199
_cell_length_c     55.006205
_cell_angle_alpha  87.713116
_cell_angle_beta   87.329782
_cell_angle_gamma 92.566416
loop_
_atom_site_label
_atom_site_type_symbol
_atom_site_fract_x
_atom_site_fract_y
_atom_site_fract_z
_atom_type_partial_charge
C0 C 0.25058 0.19934 0.36997 0.0
C1 C 0.26143 0.17962 0.36383 0.0
C2 C 0.27701 0.17835 0.34133 0.0
C3 C 0.27141 0.21572 0.33213 0.0
C4 C 0.25551 0.21701 0.35378 0.0
C5 C 0.24395 0.23875 0.35668 0.0
H6 H 0.22682 0.33743 0.30775 0.0
C7 C 0.2724 0.23675 0.3193 0.0
C8 C 0.25609 0.25031 0.33343 0.0
H9 H 0.18951 0.30982 0.3758 0.0
H10 H 0.21594 0.27809 0.37004 0.0
H11 H 0.21899 0.29694 0.27699 0.0
H12 H 0.29071 0.32114 0.31559 0.0
H13 H 0.30506 0.31072 0.28879 0.0
H14 H 0.28152 0.33262 0.28679 0.0
H15 H 0.24022 0.32033 0.26681 0.0
H16 H 0.25008 0.29425 0.25832 0.0
C17 C 0.21072 0.23643 0.35751 0.0
C18 C 0.25649 0.2483 0.37962 0.0
C19 C 0.33089 0.24857 0.23929 0.0
C20 C 0.33573 0.26625 0.22299 0.0
C21 C 0.32259 0.28535 0.22823 0.0
C22 C 0.30501 0.28684 0.24939 0.0
C23 C 0.30033 0.26901 0.26548 0.0
C24 C 0.31318 0.25029 0.2603 0.0
C25 C 0.30545 0.23289 0.27926 0.0
C26 C 0.28632 0.2444 0.29696 0.0
C27 C 0.28334 0.26549 0.28876 0.0
C28 C 0.28876 0.21469 0.26699 0.0
C29 C 0.33345 0.22622 0.29087 0.0
C30 C 0.22431 0.32453 0.32139 0.0
C31 C 0.20577 0.32597 0.34206 0.0
C32 C 0.20366 0.30906 0.35971 0.0
C33 C 0.2188 0.29059 0.35621 0.0
C34 C 0.2362 0.28902 0.33483 0.0
C35 C 0.2392 0.30604 0.31815 0.0
C36 C 0.25877 0.30177 0.29662 0.0
C37 C 0.26624 0.27908 0.30265 0.0
C38 C 0.25294 0.27164 0.32501 0.0
C39 C 0.24138 0.30351 0.27334 0.0
C40 C 0.28538 0.31739 0.29668 0.0
H41 H 0.2943 0.19412 0.30893 0.0
H42 H 0.23858 0.20114 0.38701 0.0
H43 H 0.27939 0.24443 0.38102 0.0
H44 H 0.25647 0.26582 0.37925 0.0
H45 H 0.24456 0.24185 0.39645 0.0
H46 H 0.20328 0.22376 0.34544 0.0
H47 H 0.20192 0.23213 0.37626 0.0
H48 H 0.20061 0.25086 0.35073 0.0
H49 H 0.34033 0.23357 0.2356 0.0
H50 H 0.32621 0.29925 0.21608 0.0
H51 H 0.29569 0.30182 0.25235 0.0
H52 H 0.27806 0.22062 0.25056 0.0
H53 H 0.3033 0.20218 0.26116 0.0
H54 H 0.27102 0.20732 0.27897 0.0
H55 H 0.34737 0.24045 0.29439 0.0
H56 H 0.32965 0.21769 0.30871 0.0
H57 H 0.34588 0.21608 0.27857 0.0
H58 H 0.2849 0.1634 0.3355 0.0
C59 C 0.28223 0.19624 0.32564 0.0
C60 C 0.20396 0.69737 0.72624 0.0
C61 C 0.18794 0.69502 0.7055 0.0
C62 C 0.18893 0.7115 0.68742 0.0
C63 C 0.21997 0.73301 0.7118 0.0
C64 C 0.22003 0.71632 0.72889 0.0
C65 C 0.23883 0.72119 0.74958 0.0
H66 H 0.32506 0.79125 0.8052 0.0
C67 C 0.23749 0.7509 0.72081 0.0
C68 C 0.24882 0.74396 0.7428 0.0
H69 H 0.30537 0.72502 0.82535 0.0
H70 H 0.27491 0.72199 0.79135 0.0
H71 H 0.26268 0.80268 0.79424 0.0
H72 H 0.33243 0.78519 0.74651 0.0
H73 H 0.31678 0.8076 0.73341 0.0
H74 H 0.33213 0.80938 0.76267 0.0
H75 H 0.28971 0.82194 0.78242 0.0
H76 H 0.25776 0.81592 0.76618 0.0
C77 C 0.21995 0.71954 0.77356 0.0
C78 C 0.264 0.70591 0.74891 0.0
C79 C 0.24175 0.82309 0.6757 0.0
C80 C 0.25319 0.84328 0.68137 0.0
C81 C 0.26781 0.84517 0.70316 0.0
C82 C 0.27136 0.82744 0.71866 0.0
C83 C 0.25983 0.8075 0.71269 0.0
C84 C 0.24495 0.8056 0.69171 0.0
C85 C 0.23242 0.78341 0.68926 0.0
C86 C 0.2426 0.77231 0.71209 0.0
C87 C 0.25896 0.78647 0.72553 0.0
C88 C 0.1993 0.78448 0.68973 0.0
C89 C 0.24582 0.77435 0.66581 0.0
C90 C 0.314 0.77614 0.80239 0.0
C91 C 0.31775 0.75832 0.81793 0.0
C92 C 0.30318 0.7389 0.81345 0.0
C93 C 0.28543 0.73718 0.79372 0.0
C94 C 0.28219 0.75505 0.77819 0.0
C95 C 0.2963 0.77412 0.78266 0.0
C96 C 0.29046 0.79136 0.76408 0.0
C97 C 0.27118 0.77929 0.74736 0.0
C98 C 0.26626 0.75811 0.75584 0.0
C99 C 0.2745 0.80902 0.77726 0.0
C100 C 0.31938 0.79899 0.75095 0.0
H101 H 0.20444 0.7427 0.67631 0.0
H102 H 0.20395 0.68469 0.74013 0.0
H103 H 0.26851 0.70032 0.73024 0.0
H104 H 0.28452 0.7137 0.75384 0.0
H105 H 0.25914 0.69162 0.76112 0.0
H106 H 0.1991 0.72702 0.77095 0.0
H107 H 0.21523 0.70268 0.77962 0.0
H108 H 0.22972 0.72795 0.78855 0.0
H109 H 0.23055 0.8208 0.65915 0.0
H110 H 0.27618 0.86045 0.70859 0.0
H111 H 0.28274 0.83 0.73485 0.0
H112 H 0.19179 0.79603 0.70313 0.0
H113 H 0.19199 0.78968 0.6716 0.0
H114 H 0.18792 0.76931 0.69553 0.0
H115 H 0.26865 0.78005 0.66272 0.0
H116 H 0.24636 0.75684 0.66681 0.0
H117 H 0.23416 0.77937 0.64955 0.0
H118 H 0.17677 0.70983 0.67124 0.0
C119 C 0.20481 0.73055 0.69049 0.0
C120 C 0.82903 0.70742 0.33612 0.0
C121 C 0.82809 0.68944 0.32172 0.0
C122 C 0.81089 0.68959 0.30128 0.0
C123 C 0.79604 0.72494 0.30993 0.0
C124 C 0.81298 0.72492 0.32987 0.0
C125 C 0.81205 0.74545 0.34288 0.0
H126 H 0.75773 0.8427 0.35277 0.0
C127 C 0.78221 0.74552 0.30836 0.0
C128 C 0.79153 0.75767 0.32757 0.0
H129 H 0.82139 0.81387 0.39664 0.0
H130 H 0.81874 0.78261 0.37302 0.0
H131 H 0.71678 0.80031 0.34744 0.0
H132 H 0.78647 0.83036 0.30287 0.0
H133 H 0.76164 0.82025 0.28282 0.0
H134 H 0.75109 0.84037 0.30346 0.0
H135 H 0.71414 0.82532 0.33111 0.0
H136 H 0.70683 0.80049 0.31697 0.0
C137 C 0.79947 0.74043 0.36912 0.0
C138 C 0.84269 0.75613 0.34144 0.0
C139 C 0.71431 0.76027 0.2408 0.0
C140 C 0.6985 0.77794 0.2344 0.0
C141 C 0.69996 0.79595 0.24875 0.0
C142 C 0.71685 0.79634 0.26916 0.0
C143 C 0.73262 0.77857 0.27526 0.0
C144 C 0.7312 0.76096 0.26114 0.0
C145 C 0.74974 0.74368 0.27009 0.0
C146 C 0.76258 0.75384 0.29191 0.0
C147 C 0.7524 0.77422 0.2949 0.0
C148 C 0.72995 0.72391 0.27771 0.0
C149 C 0.77291 0.73992 0.24977 0.0
C150 C 0.77136 0.8298 0.35725 0.0
C151 C 0.78966 0.8309 0.37685 0.0
C152 C 0.80663 0.81344 0.38204 0.0
C153 C 0.80527 0.79529 0.36813 0.0
C154 C 0.78696 0.79454 0.34861 0.0
C155 C 0.77056 0.81169 0.34335 0.0
C156 C 0.75321 0.80849 0.32132 0.0
C157 C 0.76169 0.78651 0.31437 0.0
C158 C 0.78128 0.77833 0.33053 0.0
C159 C 0.721 0.80878 0.32941 0.0
C160 C 0.76331 0.82577 0.30154 0.0
H161 H 0.78233 0.70623 0.27957 0.0
H162 H 0.84182 0.70787 0.35203 0.0
H163 H 0.85475 0.75222 0.32439 0.0
H164 H 0.84261 0.77366 0.34075 0.0
H165 H 0.85524 0.75072 0.357 0.0
H166 H 0.78116 0.72851 0.36911 0.0
H167 H 0.8159 0.73379 0.38086 0.0
H168 H 0.79066 0.75437 0.37778 0.0
H169 H 0.71397 0.7463 0.22995 0.0
H170 H 0.68775 0.80968 0.24433 0.0
H171 H 0.71696 0.81047 0.27939 0.0
H172 H 0.70936 0.72869 0.28641 0.0
H173 H 0.72471 0.71458 0.26166 0.0
H174 H 0.73918 0.71336 0.29148 0.0
H175 H 0.77916 0.75493 0.23914 0.0
H176 H 0.79319 0.73456 0.25699 0.0
H177 H 0.7649 0.72823 0.23681 0.0
H178 H 0.81015 0.67624 0.28952 0.0
C179 C 0.79487 0.70715 0.29538 0.0
C180 C 0.71382 0.27075 0.82119 0.0
C181 C 0.69983 0.25153 0.82974 0.0
C182 C 0.70431 0.23295 0.81699 0.0
C183 C 0.73585 0.25296 0.78726 0.0
C184 C 0.73186 0.27106 0.80013 0.0
C185 C 0.74948 0.28995 0.78927 0.0
H186 H 0.84391 0.332 0.70131 0.0
C187 C 0.75565 0.25878 0.76606 0.0
C188 C 0.7638 0.28039 0.7672 0.0
H189 H 0.81165 0.36125 0.76611 0.0
H190 H 0.78189 0.32972 0.77733 0.0
H191 H 0.78322 0.3082 0.68761 0.0
H192 H 0.85463 0.28783 0.72804 0.0
H193 H 0.84447 0.26715 0.7093 0.0
H194 H 0.85693 0.2925 0.69558 0.0
H195 H 0.81687 0.30226 0.67291 0.0
H196 H 0.78906 0.28186 0.68019 0.0
C197 C 0.72874 0.3073 0.78184 0.0
C198 C 0.77152 0.29696 0.80803 0.0
C199 C 0.78079 0.20321 0.70526 0.0
C200 C 0.79731 0.20402 0.68315 0.0
C201 C 0.81052 0.22365 0.67456 0.0
C202 C 0.8076 0.242 0.68784 0.0
C203 C 0.79124 0.24083 0.70999 0.0
C204 C 0.77789 0.22172 0.71819 0.0
C205 C 0.76055 0.22359 0.74166 0.0
C206 C 0.76603 0.24693 0.74637 0.0
C207 C 0.78419 0.25691 0.72786 0.0
C208 C 0.72863 0.21828 0.73684 0.0
C209 C 0.77317 0.20899 0.76141 0.0
C210 C 0.83005 0.3316 0.7177 0.0
C211 C 0.82982 0.34899 0.73284 0.0
C212 C 0.81205 0.34792 0.75427 0.0
C213 C 0.79492 0.3296 0.76076 0.0
C214 C 0.79596 0.31203 0.74588 0.0
C215 C 0.81326 0.3132 0.72472 0.0
C216 C 0.81285 0.29252 0.71197 0.0
C217 C 0.79277 0.27872 0.72914 0.0
C218 C 0.78274 0.29032 0.7488 0.0
C219 C 0.80006 0.29626 0.68675 0.0
C220 C 0.84377 0.2845 0.71092 0.0
H221 H 0.72456 0.21893 0.78674 0.0
H222 H 0.71119 0.28517 0.83097 0.0
H223 H 0.77596 0.28369 0.82106 0.0
H224 H 0.79279 0.30182 0.79933 0.0
H225 H 0.76357 0.31015 0.81889 0.0
H226 H 0.71009 0.30017 0.77269 0.0
H227 H 0.72031 0.3154 0.79807 0.0
H228 H 0.73874 0.31941 0.76868 0.0
H229 H 0.77051 0.18844 0.71259 0.0
H230 H 0.82288 0.22492 0.65737 0.0
H231 H 0.81819 0.2564 0.68033 0.0
H232 H 0.7233 0.22444 0.71844 0.0
H233 H 0.72389 0.20084 0.73772 0.0
H234 H 0.71354 0.22578 0.74953 0.0
H235 H 0.79689 0.20845 0.75858 0.0
H236 H 0.76982 0.21472 0.77999 0.0
H237 H 0.76402 0.19246 0.7609 0.0
H238 H 0.69368 0.21799 0.82334 0.0
C239 C 0.72213 0.23358 0.79573 0.0
C240 C 0.77766 0.82709 0.67223 0.0
C241 C 0.76483 0.84637 0.67694 0.0
C242 C 0.7469 0.8476 0.69814 0.0
C243 C 0.75572 0.81113 0.70992 0.0
C244 C 0.77291 0.80978 0.68894 0.0
C245 C 0.78571 0.78837 0.68718 0.0
H246 H 0.80789 0.69201 0.73961 0.0
C247 C 0.75613 0.79067 0.72394 0.0
C248 C 0.77369 0.77725 0.71072 0.0
H249 H 0.83892 0.7173 0.6684 0.0
H250 H 0.81383 0.74929 0.67478 0.0
H251 H 0.81569 0.73465 0.76819 0.0
H252 H 0.74323 0.70654 0.73361 0.0
H253 H 0.72993 0.71726 0.7606 0.0
H254 H 0.75495 0.69629 0.76219 0.0
H255 H 0.79626 0.71108 0.78034 0.0
H256 H 0.78515 0.73718 0.7876 0.0
C257 C 0.81882 0.79169 0.68682 0.0
C258 C 0.77421 0.7777 0.66444 0.0
C259 C 0.70071 0.78081 0.80569 0.0
C260 C 0.69788 0.76399 0.82335 0.0
C261 C 0.71259 0.74531 0.8192 0.0
C262 C 0.72969 0.74339 0.79784 0.0
C263 C 0.73226 0.76033 0.78036 0.0
C264 C 0.71795 0.77866 0.78448 0.0
C265 C 0.72359 0.79517 0.76412 0.0
C266 C 0.74325 0.78359 0.74691 0.0
C267 C 0.74827 0.76321 0.75652 0.0
C268 C 0.73908 0.81482 0.77459 0.0
C269 C 0.69462 0.79972 0.75276 0.0
C270 C 0.80907 0.70426 0.7252 0.0
C271 C 0.82579 0.70204 0.70354 0.0
C272 C 0.8268 0.71866 0.6855 0.0
C273 C 0.81203 0.73723 0.68915 0.0
C274 C 0.79588 0.7393 0.71106 0.0
C275 C 0.79424 0.72284 0.72847 0.0
C276 C 0.77528 0.72753 0.75028 0.0
C277 C 0.76617 0.74966 0.74325 0.0
C278 C 0.77852 0.75655 0.72036 0.0
C279 C 0.79381 0.72751 0.77293 0.0
C280 C 0.74953 0.71104 0.75204 0.0
H281 H 0.72848 0.83215 0.73041 0.0
H282 H 0.79173 0.82565 0.65622 0.0
H283 H 0.75216 0.78262 0.66083 0.0
H284 H 0.77209 0.7602 0.66674 0.0
H285 H 0.78811 0.78212 0.64791 0.0
H286 H 0.8252 0.80385 0.6999 0.0
H287 H 0.82761 0.79724 0.66844 0.0
H288 H 0.82973 0.77729 0.69251 0.0
H289 H 0.69006 0.7955 0.80845 0.0
H290 H 0.71055 0.73203 0.83237 0.0
H291 H 0.74025 0.72876 0.79577 0.0
H292 H 0.75299 0.81003 0.78956 0.0
H293 H 0.72341 0.82589 0.7821 0.0
H294 H 0.75385 0.82359 0.76106 0.0
H295 H 0.68096 0.78485 0.75209 0.0
H296 H 0.69717 0.80591 0.73368 0.0
H297 H 0.68243 0.81109 0.76363 0.0
H298 H 0.73638 0.86214 0.70202 0.0
C299 C 0.74224 0.83012 0.71459 0.0
C300 C 0.81057 0.19666 0.36267 0.0
C301 C 0.79897 0.17663 0.3565 0.0
C302 C 0.7824 0.17554 0.3357 0.0
C303 C 0.78771 0.21372 0.3288 0.0
C304 C 0.80495 0.21485 0.34848 0.0
C305 C 0.81661 0.23717 0.35183 0.0
H306 H 0.81829 0.34167 0.31783 0.0
C307 C 0.78523 0.23547 0.31838 0.0
C308 C 0.80229 0.24931 0.33165 0.0
H309 H 0.87219 0.31074 0.36923 0.0
H310 H 0.84801 0.27711 0.36268 0.0
H311 H 0.7588 0.31379 0.33164 0.0
H312 H 0.82828 0.30868 0.2783 0.0
H313 H 0.7967 0.3014 0.26408 0.0
H314 H 0.80141 0.32791 0.27488 0.0
H315 H 0.76472 0.33184 0.30565 0.0
H316 H 0.74367 0.30729 0.30406 0.0
C317 C 0.80632 0.24404 0.37734 0.0
C318 C 0.84974 0.23767 0.34761 0.0
C319 C 0.72013 0.24806 0.24817 0.0
C320 C 0.71274 0.26651 0.23511 0.0
C321 C 0.72396 0.28642 0.24197 0.0
C322 C 0.74249 0.28791 0.26121 0.0
C323 C 0.75006 0.26931 0.27379 0.0
C324 C 0.73869 0.24984 0.26734 0.0
C325 C 0.74896 0.23178 0.28283 0.0
C326 C 0.76868 0.24361 0.29941 0.0
C327 C 0.76924 0.26556 0.29401 0.0
C328 C 0.72248 0.22098 0.29711 0.0
C329 C 0.76563 0.21688 0.26607 0.0
C330 C 0.82531 0.32776 0.32761 0.0
C331 C 0.84745 0.32924 0.34412 0.0
C332 C 0.855 0.31046 0.3567 0.0
C333 C 0.84118 0.29076 0.35264 0.0
C334 C 0.81986 0.2896 0.33549 0.0
C335 C 0.81237 0.30792 0.32324 0.0
C336 C 0.79085 0.30356 0.30435 0.0
C337 C 0.78675 0.27958 0.30719 0.0
C338 C 0.80342 0.27149 0.32573 0.0
C339 C 0.76302 0.31476 0.31154 0.0
C340 C 0.80472 0.31084 0.27903 0.0
H341 H 0.76368 0.1919 0.30656 0.0
H342 H 0.82344 0.19833 0.3784 0.0
H343 H 0.85667 0.22465 0.33592 0.0
H344 H 0.85831 0.2524 0.33772 0.0
H345 H 0.86055 0.23584 0.3651 0.0
H346 H 0.78301 0.23994 0.38072 0.0
H347 H 0.81804 0.23585 0.39182 0.0
H348 H 0.80901 0.26133 0.37945 0.0
H349 H 0.71215 0.2325 0.24327 0.0
H350 H 0.71826 0.30091 0.23251 0.0
H351 H 0.75031 0.30352 0.26547 0.0
H352 H 0.70759 0.23308 0.3036 0.0
H353 H 0.71033 0.21018 0.2854 0.0
H354 H 0.72799 0.21198 0.31371 0.0
H355 H 0.77614 0.22586 0.24999 0.0
H356 H 0.78347 0.20937 0.27516 0.0
H357 H 0.75109 0.20431 0.25916 0.0
H358 H 0.77395 0.16044 0.32978 0.0
C359 C 0.7766 0.1939 0.322 0.0
C360 C 0.25495 0.19894 0.69604 0.0
C361 C 0.23882 0.19903 0.6751 0.0
C362 C 0.22567 0.21777 0.66777 0.0
C363 C 0.24488 0.23588 0.70195 0.0
C364 C 0.25792 0.21752 0.70898 0.0
C365 C 0.27555 0.22043 0.73091 0.0
H366 H 0.32573 0.28463 0.81658 0.0
C367 C 0.25283 0.25249 0.71895 0.0
C368 C 0.27108 0.24359 0.73579 0.0
H369 H 0.34057 0.21803 0.80807 0.0
H370 H 0.31189 0.2179 0.77279 0.0
H371 H 0.25776 0.28008 0.80671 0.0
H372 H 0.33267 0.29907 0.76115 0.0
H373 H 0.30517 0.31525 0.75194 0.0
H374 H 0.3172 0.3165 0.78262 0.0
H375 H 0.27807 0.30458 0.80985 0.0
H376 H 0.2495 0.3026 0.78905 0.0
C377 C 0.2624 0.20538 0.75188 0.0
C378 C 0.30726 0.21655 0.72348 0.0
C379 C 0.20967 0.32505 0.71221 0.0
C380 C 0.21335 0.34368 0.72528 0.0
C381 C 0.23396 0.34422 0.74327 0.0
C382 C 0.2496 0.32639 0.74887 0.0
C383 C 0.24485 0.30771 0.73632 0.0
C384 C 0.2257 0.3074 0.71793 0.0
C385 C 0.22459 0.28643 0.70574 0.0
C386 C 0.24532 0.27399 0.72059 0.0
C387 C 0.25692 0.28651 0.73859 0.0
C388 C 0.19353 0.27671 0.70895 0.0
C389 C 0.23567 0.29028 0.67883 0.0
C390 C 0.32264 0.26995 0.80728 0.0
C391 C 0.33556 0.25132 0.81523 0.0
C392 C 0.33127 0.2327 0.80221 0.0
C393 C 0.31439 0.2326 0.78179 0.0
C394 C 0.30149 0.25131 0.77423 0.0
C395 C 0.3057 0.26955 0.78694 0.0
C396 C 0.28986 0.28783 0.77662 0.0
C397 C 0.27552 0.27757 0.75553 0.0
C398 C 0.28245 0.2562 0.7542 0.0
C399 C 0.2677 0.29434 0.79649 0.0
C400 C 0.31218 0.30575 0.76772 0.0
H401 H 0.21789 0.24989 0.67473 0.0
H402 H 0.26569 0.18486 0.70186 0.0
H403 H 0.31269 0.22258 0.70445 0.0
H404 H 0.32271 0.22509 0.73462 0.0
H405 H 0.3114 0.19933 0.72447 0.0
H406 H 0.23859 0.20395 0.75125 0.0
H407 H 0.27057 0.18917 0.75058 0.0
H408 H 0.2664 0.21126 0.77011 0.0
H409 H 0.19415 0.32397 0.69824 0.0
H410 H 0.23804 0.35848 0.75313 0.0
H411 H 0.26467 0.32783 0.76292 0.0
H412 H 0.18483 0.27845 0.72791 0.0
H413 H 0.17914 0.28481 0.69642 0.0
H414 H 0.19205 0.25952 0.70593 0.0
H415 H 0.25081 0.30444 0.67657 0.0
H416 H 0.24818 0.27704 0.67208 0.0
H417 H 0.2177 0.29299 0.6667 0.0
H418 H 0.21306 0.21814 0.65173 0.0
C419 C 0.22849 0.23615 0.68115 0.0
C420 C 0.20299 0.69566 0.33424 0.0
C421 C 0.20384 0.67739 0.32037 0.0
C422 C 0.22191 0.67787 0.29905 0.0
C423 C 0.23716 0.71439 0.3054 0.0
C424 C 0.21974 0.71388 0.32645 0.0
C425 C 0.22108 0.7347 0.3389 0.0
H426 H 0.27115 0.83715 0.33888 0.0
C427 C 0.25122 0.73586 0.30209 0.0
C428 C 0.24191 0.74784 0.32169 0.0
H429 H 0.21543 0.80273 0.39346 0.0
H430 H 0.21738 0.77123 0.3702 0.0
H431 H 0.24275 0.81763 0.29186 0.0
H432 H 0.31484 0.8005 0.33324 0.0
H433 H 0.32453 0.79661 0.3026 0.0
H434 H 0.31673 0.82293 0.31201 0.0
H435 H 0.27574 0.83346 0.29121 0.0
H436 H 0.27079 0.8119 0.27104 0.0
C437 C 0.19065 0.74358 0.33957 0.0
C438 C 0.23343 0.73087 0.36429 0.0
C439 C 0.31834 0.75405 0.22796 0.0
C440 C 0.33442 0.77262 0.21992 0.0
C441 C 0.33294 0.79082 0.23395 0.0
C442 C 0.31573 0.79054 0.25554 0.0
C443 C 0.29982 0.77186 0.26334 0.0
C444 C 0.30134 0.75401 0.24964 0.0
C445 C 0.28314 0.73554 0.26086 0.0
C446 C 0.27049 0.74525 0.28355 0.0
C447 C 0.28026 0.76653 0.28485 0.0
C448 C 0.2598 0.72961 0.24284 0.0
C449 C 0.30318 0.71738 0.2672 0.0
C450 C 0.25952 0.82282 0.346 0.0
C451 C 0.24298 0.82261 0.36808 0.0
C452 C 0.22793 0.80356 0.37634 0.0
C453 C 0.22927 0.78518 0.36288 0.0
C454 C 0.2459 0.78571 0.34088 0.0
C455 C 0.26081 0.80429 0.33288 0.0
C456 C 0.27801 0.8018 0.30945 0.0
C457 C 0.27082 0.77869 0.30461 0.0
C458 C 0.25187 0.76937 0.32299 0.0
C459 C 0.26653 0.81703 0.28976 0.0
C460 C 0.31023 0.80578 0.31433 0.0
H461 H 0.25164 0.69555 0.27505 0.0
H462 H 0.18964 0.69578 0.35087 0.0
H463 H 0.24934 0.71824 0.36386 0.0
H464 H 0.24541 0.74496 0.37058 0.0
H465 H 0.21619 0.72576 0.37816 0.0
H466 H 0.17999 0.74063 0.32226 0.0
H467 H 0.17687 0.73583 0.35469 0.0
H468 H 0.19081 0.76095 0.34131 0.0
H469 H 0.31926 0.73971 0.2178 0.0
H470 H 0.34484 0.8054 0.22804 0.0
H471 H 0.31546 0.80493 0.26529 0.0
H472 H 0.25243 0.74406 0.23316 0.0
H473 H 0.26819 0.71896 0.22885 0.0
H474 H 0.24014 0.72206 0.25195 0.0
H475 H 0.32411 0.72387 0.27324 0.0
H476 H 0.29452 0.70682 0.28255 0.0
H477 H 0.30769 0.70771 0.25114 0.0
H478 H 0.22274 0.66417 0.28782 0.0
C479 C 0.23854 0.69621 0.29153 0.0
C480 C 0.05897 0.53978 0.3726 0.0
C481 C 0.06859 0.54614 0.39479 0.0
C482 C 0.05269 0.53447 0.41244 0.0
C483 C 0.0345 0.5216 0.40007 0.0
N484 N 0.03781 0.52432 0.37558 0.0
Co485 Co 0.01647 0.50823 0.35078 0.0
N486 N 0.99182 0.49211 0.37674 0.0
C487 C 0.99147 0.49517 0.40095 0.0
C488 C 0.97143 0.48243 0.41424 0.0
C489 C 0.95829 0.4704 0.39756 0.0
C490 C 0.97139 0.47634 0.37497 0.0
N491 N 0.99626 0.49126 0.32602 0.0
C492 C 0.9771 0.47443 0.3291 0.0
C493 C 0.97113 0.46569 0.30697 0.0
C494 C 0.98664 0.47758 0.28934 0.0
C495 C 0.00151 0.49262 0.30159 0.0
N496 N 0.04007 0.52514 0.32472 0.0
C497 C 0.03784 0.52403 0.30037 0.0
C498 C 0.05552 0.53846 0.28696 0.0
C499 C 0.06974 0.54965 0.30374 0.0
C500 C 0.06003 0.54123 0.32652 0.0
N501 N 0.04549 0.48624 0.35206 0.0
C502 C 0.08298 0.45242 0.35273 0.0
C503 C 0.07909 0.46433 0.33126 0.0
C504 C 0.06042 0.48096 0.33132 0.0
C505 C 0.06873 0.45839 0.37413 0.0
C506 C 0.05035 0.4753 0.37342 0.0
N507 N 0.98737 0.53025 0.34943 0.0
C508 C 0.95538 0.55148 0.32636 0.0
C509 C 0.94877 0.56327 0.34665 0.0
C510 C 0.96124 0.55795 0.3685 0.0
C511 C 0.98012 0.5414 0.36955 0.0
C512 C 0.97462 0.53524 0.32811 0.0
H513 H 0.98871 0.53806 0.38681 0.0
H514 H 0.9791 0.52716 0.31184 0.0
H515 H 0.05812 0.48909 0.31424 0.0
H516 H 0.0399 0.47898 0.39029 0.0
C517 C 0.01221 0.50845 0.41083 0.0
C518 C 0.07011 0.54927 0.34926 0.0
C519 C 0.96439 0.466 0.35255 0.0
C520 C 0.02026 0.5084 0.29065 0.0
H521 H 0.08506 0.55823 0.39789 0.0
H522 H 0.05372 0.53565 0.43196 0.0
H523 H 0.96744 0.48154 0.43381 0.0
H524 H 0.94138 0.45831 0.40165 0.0
H525 H 0.95732 0.45198 0.30374 0.0
H526 H 0.98729 0.47535 0.26991 0.0
H527 H 0.0579 0.5405 0.26733 0.0
H528 H 0.08545 0.56259 0.29961 0.0
H529 H 0.09027 0.46078 0.31431 0.0
H530 H 0.07101 0.4497 0.39125 0.0
H531 H 0.94634 0.55513 0.30898 0.0
H532 H 0.95637 0.56647 0.3848 0.0
C533 C 0.05657 0.55091 0.72072 0.0
C534 C 0.06683 0.55715 0.74277 0.0
C535 C 0.05108 0.5457 0.76065 0.0
C536 C 0.0324 0.53299 0.74858 0.0
N537 N 0.03546 0.53547 0.72403 0.0
Co538 Co 0.01381 0.51934 0.69952 0.0
N539 N 0.98876 0.50401 0.72585 0.0
C540 C 0.98898 0.50698 0.75008 0.0
C541 C 0.96842 0.49489 0.76355 0.0
C542 C 0.95436 0.48333 0.74699 0.0
C543 C 0.96749 0.48887 0.72429 0.0
N544 N 0.99269 0.50266 0.67507 0.0
C545 C 0.9723 0.48664 0.67844 0.0
C546 C 0.96505 0.4782 0.65648 0.0
C547 C 0.98126 0.48933 0.63863 0.0
C548 C 0.99763 0.50372 0.65061 0.0
N549 N 0.03825 0.53528 0.67318 0.0
C550 C 0.03679 0.53327 0.64886 0.0
C551 C 0.05458 0.54741 0.63518 0.0
C552 C 0.06802 0.55941 0.6517 0.0
C553 C 0.05784 0.55169 0.67465 0.0
N554 N 0.0421 0.49673 0.70134 0.0
C555 C 0.08242 0.46474 0.70441 0.0
C556 C 0.07674 0.47452 0.68199 0.0
C557 C 0.0566 0.49028 0.68087 0.0
C558 C 0.06729 0.47115 0.72516 0.0
C559 C 0.04759 0.48703 0.72326 0.0
N560 N 0.98561 0.54193 0.69777 0.0
C561 C 0.9565 0.5653 0.67441 0.0
C562 C 0.94661 0.57469 0.69558 0.0
C563 C 0.95643 0.56739 0.71782 0.0
C564 C 0.9759 0.55127 0.71848 0.0
C565 C 0.97566 0.54891 0.67593 0.0
H566 H 0.98302 0.5468 0.73595 0.0
H567 H 0.98223 0.5422 0.65921 0.0
H568 H 0.0532 0.49701 0.66324 0.0
H569 H 0.03702 0.49108 0.73984 0.0
C570 C 0.01013 0.52006 0.75977 0.0
C571 C 0.06662 0.56086 0.69726 0.0
C572 C 0.96 0.47847 0.70206 0.0
C573 C 0.01798 0.51825 0.63943 0.0
H574 H 0.08355 0.56911 0.74565 0.0
H575 H 0.0525 0.54693 0.78013 0.0
H576 H 0.96455 0.49419 0.78313 0.0
H577 H 0.93683 0.47177 0.75123 0.0
H578 H 0.94997 0.46514 0.65358 0.0
H579 H 0.98144 0.48697 0.61924 0.0
H580 H 0.05701 0.5491 0.61552 0.0
H581 H 0.08318 0.5726 0.64719 0.0
H582 H 0.088 0.47029 0.66535 0.0
H583 H 0.0703 0.46378 0.74293 0.0
H584 H 0.94929 0.57043 0.65678 0.0
H585 H 0.94962 0.57442 0.73466 0.0
C586 C 0.26209 0.98082 0.5596 0.0
C587 C 0.28867 0.97462 0.56697 0.0
C588 C 0.30896 0.98665 0.55343 0.0
C589 C 0.29381 0.99933 0.53845 0.0
N590 N 0.26497 0.99625 0.54163 0.0
Co591 Co 0.23505 0.01051 0.52254 0.0
N592 N 0.26519 0.02671 0.50107 0.0
C593 C 0.29401 0.02546 0.50196 0.0
C594 C 0.30934 0.03914 0.4858 0.0
C595 C 0.2892 0.04991 0.47391 0.0
C596 C 0.26252 0.042 0.48338 0.0
N597 N 0.20516 0.02513 0.50381 0.0
C598 C 0.20812 0.04049 0.48577 0.0
C599 C 0.18168 0.04647 0.47796 0.0
C600 C 0.16126 0.03487 0.49194 0.0
C601 C 0.17631 0.02244 0.50732 0.0
N602 N 0.20493 0.99397 0.54366 0.0
C603 C 0.17611 0.9948 0.54242 0.0
C604 C 0.16088 0.98149 0.55908 0.0
C605 C 0.18114 0.97126 0.57152 0.0
C606 C 0.20769 0.97888 0.56156 0.0
N607 N 0.2351 0.034 0.54559 0.0
C608 C 0.23496 0.06934 0.57533 0.0
C609 C 0.20945 0.05805 0.57097 0.0
C610 C 0.20998 0.04064 0.55604 0.0
C611 C 0.2606 0.0623 0.56521 0.0
C612 C 0.26022 0.04461 0.55076 0.0
N613 N 0.23499 0.98705 0.49946 0.0
C614 C 0.20929 0.96148 0.47588 0.0
C615 C 0.23487 0.95234 0.46856 0.0
C616 C 0.26052 0.96117 0.47668 0.0
C617 C 0.2601 0.97841 0.49183 0.0
C618 C 0.20984 0.97863 0.49122 0.0
H619 H 0.28039 0.98427 0.49733 0.0
H620 H 0.1896 0.98469 0.49627 0.0
H621 H 0.18975 0.03304 0.55294 0.0
H622 H 0.28052 0.03998 0.54376 0.0
C623 C 0.30609 0.01279 0.51973 0.0
C624 C 0.23482 0.97097 0.56944 0.0
C625 C 0.23536 0.05017 0.47578 0.0
C626 C 0.16399 0.00824 0.52535 0.0
H627 H 0.29318 0.96227 0.58025 0.0
H628 H 0.33204 0.98569 0.55381 0.0
H629 H 0.33244 0.04158 0.48361 0.0
H630 H 0.29389 0.0626 0.46032 0.0
H631 H 0.17754 0.05816 0.46376 0.0
H632 H 0.13819 0.03556 0.49114 0.0
H633 H 0.13779 0.97936 0.56175 0.0
H634 H 0.17683 0.9594 0.58615 0.0
H635 H 0.18905 0.06301 0.57846 0.0
H636 H 0.28095 0.07039 0.56848 0.0
H637 H 0.18884 0.95554 0.46976 0.0
H638 H 0.28094 0.95458 0.47186 0.0
C639 C 0.47209 0.79361 0.0548 0.0
C640 C 0.46158 0.81319 0.06034 0.0
C641 C 0.47687 0.82805 0.04573 0.0
C642 C 0.49561 0.81675 0.03203 0.0
N643 N 0.49308 0.79552 0.03686 0.0
Co644 Co 0.51578 0.77319 0.02085 0.0
N645 N 0.5399 0.79521 0.00086 0.0
C646 C 0.53875 0.81656 0.00188 0.0
C647 C 0.55819 0.82761 0.98619 0.0
C648 C 0.57252 0.81244 0.97426 0.0
C649 C 0.56077 0.79292 0.9833 0.0
N650 N 0.53791 0.75081 0.00425 0.0
C651 C 0.55831 0.75271 0.9858 0.0
C652 C 0.56672 0.73299 0.97853 0.0
C653 C 0.55116 0.71811 0.99288 0.0
C654 C 0.53404 0.72951 0.00789 0.0
N655 N 0.49223 0.75118 0.04141 0.0
C656 C 0.49476 0.72988 0.0416 0.0
C657 C 0.47692 0.71889 0.05862 0.0
C658 C 0.46232 0.73405 0.07027 0.0
C659 C 0.47199 0.75352 0.05949 0.0
N660 N 0.48762 0.77183 0.99493 0.0
C661 C 0.44916 0.76964 0.95696 0.0
C662 C 0.45594 0.75137 0.97028 0.0
C663 C 0.47503 0.75281 0.98899 0.0
C664 C 0.46167 0.78908 0.96324 0.0
C665 C 0.48062 0.78981 0.98213 0.0
N666 N 0.54388 0.77454 0.04683 0.0
C667 C 0.57334 0.75681 0.07562 0.0
C668 C 0.58036 0.776 0.08625 0.0
C669 C 0.56951 0.79454 0.07626 0.0
C670 C 0.5516 0.79347 0.05666 0.0
C671 C 0.55524 0.75645 0.05613 0.0
H672 H 0.5439 0.80814 0.05006 0.0
H673 H 0.55054 0.74128 0.04909 0.0
H674 H 0.47932 0.73828 0.9983 0.0
H675 H 0.48954 0.8051 0.98587 0.0
C676 C 0.51748 0.82571 0.01616 0.0
C677 C 0.46209 0.7738 0.06766 0.0
C678 C 0.56956 0.77273 0.97406 0.0
C679 C 0.51412 0.72066 0.02557 0.0
H680 H 0.44497 0.81643 0.07389 0.0
H681 H 0.47511 0.84511 0.0456 0.0
H682 H 0.56105 0.84467 0.98327 0.0
H683 H 0.58933 0.81539 0.96015 0.0
H684 H 0.5822 0.72961 0.96411 0.0
H685 H 0.55194 0.70101 0.99222 0.0
H686 H 0.47506 0.70188 0.06234 0.0
H687 H 0.44665 0.73107 0.08527 0.0
H688 H 0.44642 0.73596 0.96643 0.0
H689 H 0.45734 0.80369 0.95333 0.0
H690 H 0.58172 0.74205 0.08228 0.0
H691 H 0.57415 0.80982 0.08389 0.0
C692 C 0.82857 0.98577 0.56049 0.0
C693 C 0.85324 0.97909 0.57105 0.0
C694 C 0.87505 0.99335 0.56307 0.0
C695 C 0.86253 0.00785 0.54811 0.0
N696 N 0.83426 0.00355 0.54619 0.0
Co697 Co 0.80796 0.0201 0.52635 0.0
N698 N 0.84047 0.03393 0.50617 0.0
C699 C 0.86831 0.03437 0.51171 0.0
C700 C 0.88611 0.04464 0.49404 0.0
C701 C 0.86833 0.0514 0.47648 0.0
C702 C 0.8405 0.04509 0.48459 0.0
N703 N 0.78146 0.03685 0.50692 0.0
C704 C 0.78639 0.04841 0.48573 0.0
C705 C 0.76194 0.05885 0.47952 0.0
C706 C 0.74126 0.05373 0.4975 0.0
C707 C 0.75407 0.04058 0.51372 0.0
N708 N 0.77558 0.00613 0.54647 0.0
C709 C 0.74884 0.01307 0.54908 0.0
C710 C 0.73107 0.99993 0.5642 0.0
C711 C 0.74778 0.98375 0.5716 0.0
C712 C 0.77487 0.988 0.5605 0.0
N713 N 0.81035 0.043 0.5492 0.0
C714 C 0.81156 0.076 0.58166 0.0
C715 C 0.8077 0.05482 0.59027 0.0
C716 C 0.8074 0.03855 0.57376 0.0
C717 C 0.81525 0.08029 0.55653 0.0
C718 C 0.81444 0.06362 0.54066 0.0
N719 N 0.80554 0.99718 0.50363 0.0
C720 C 0.77714 0.97324 0.48051 0.0
C721 C 0.80158 0.96225 0.47408 0.0
C722 C 0.82813 0.96943 0.48218 0.0
C723 C 0.82969 0.98704 0.49671 0.0
C724 C 0.77955 0.99057 0.49544 0.0
H725 H 0.8504 0.99219 0.5027 0.0
H726 H 0.76029 0.99834 0.50078 0.0
H727 H 0.8045 0.02238 0.58088 0.0
H728 H 0.81675 0.06755 0.52144 0.0
C729 C 0.87723 0.02266 0.53192 0.0
C730 C 0.79992 0.97552 0.56509 0.0
C731 C 0.81465 0.05213 0.47284 0.0
C732 C 0.74019 0.02962 0.53387 0.0
H733 H 0.85532 0.9653 0.58307 0.0
H734 H 0.89758 0.99255 0.5667 0.0
H735 H 0.90928 0.04657 0.49366 0.0
H736 H 0.87508 0.06038 0.45987 0.0
H737 H 0.75939 0.06962 0.46406 0.0
H738 H 0.71941 0.05882 0.49846 0.0
H739 H 0.70842 0.00143 0.56856 0.0
H740 H 0.74089 0.97045 0.58384 0.0
H741 H 0.80503 0.05085 0.60961 0.0
H742 H 0.81798 0.09646 0.54911 0.0
H743 H 0.7562 0.96808 0.47466 0.0
H744 H 0.84756 0.96149 0.47733 0.0
C745 C 0.47681 0.27566 0.06091 0.0
C746 C 0.46861 0.29576 0.06699 0.0
C747 C 0.48539 0.31 0.05274 0.0
C748 C 0.50291 0.29787 0.03893 0.0
N749 N 0.49816 0.27669 0.04327 0.0
Co750 Co 0.51991 0.25336 0.02818 0.0
N751 N 0.54565 0.27442 0.00827 0.0
C752 C 0.54517 0.29586 0.00825 0.0
C753 C 0.56543 0.30609 0.99261 0.0
C754 C 0.57943 0.29026 0.98166 0.0
C755 C 0.56668 0.2712 0.99118 0.0
N756 N 0.54182 0.23004 0.01323 0.0
C757 C 0.56298 0.23104 0.9954 0.0
C758 C 0.5713 0.21092 0.98952 0.0
C759 C 0.55489 0.19673 0.00412 0.0
C760 C 0.53741 0.20888 0.01793 0.0
N761 N 0.49401 0.2323 0.04795 0.0
C762 C 0.49434 0.21086 0.04781 0.0
C763 C 0.47402 0.20063 0.0634 0.0
C764 C 0.46005 0.21646 0.07441 0.0
C765 C 0.47284 0.23551 0.06493 0.0
N766 N 0.49307 0.25252 0.00121 0.0
C767 C 0.45718 0.25138 0.9614 0.0
C768 C 0.46535 0.23265 0.97297 0.0
C769 C 0.48301 0.23357 0.99275 0.0
C770 C 0.4669 0.27069 0.97033 0.0
C771 C 0.48473 0.27089 0.99003 0.0
N772 N 0.5468 0.25421 0.05515 0.0
C773 C 0.57214 0.23627 0.08678 0.0
C774 C 0.58383 0.2556 0.09422 0.0
C775 C 0.57677 0.27418 0.08167 0.0
C776 C 0.55841 0.27313 0.06241 0.0
C777 C 0.55389 0.23594 0.06735 0.0
H778 H 0.55377 0.28789 0.05384 0.0
H779 H 0.54571 0.22072 0.0626 0.0
H780 H 0.48839 0.21873 0.00075 0.0
H781 H 0.49176 0.28612 0.99567 0.0
C782 C 0.52491 0.30593 0.02263 0.0
C783 C 0.46472 0.25615 0.07324 0.0
C784 C 0.5746 0.25054 0.98268 0.0
C785 C 0.51502 0.20082 0.03385 0.0
H786 H 0.45264 0.29982 0.08069 0.0
H787 H 0.48535 0.32715 0.05289 0.0
H788 H 0.56925 0.32304 0.98929 0.0
H789 H 0.59677 0.29249 0.9679 0.0
H790 H 0.587 0.20678 0.97564 0.0
H791 H 0.55494 0.17957 0.00403 0.0
H792 H 0.47024 0.18368 0.06676 0.0
H793 H 0.44271 0.21425 0.08817 0.0
H794 H 0.458 0.21729 0.96692 0.0
H795 H 0.46134 0.28565 0.96182 0.0
H796 H 0.57723 0.22139 0.09573 0.0
H797 H 0.58494 0.28959 0.08694 0.0
H798 H 0.1752 0.34449 0.30674 0.0
H799 H 0.11953 0.43838 0.38734 0.0
H800 H 0.19447 0.3494 0.38233 0.0
H801 H 0.08724 0.42317 0.3175 0.0
H802 H 0.14908 0.40724 0.38571 0.0
H803 H 0.1454 0.37506 0.30993 0.0
C804 C 0.17328 0.35212 0.32401 0.0
C805 C 0.18749 0.34449 0.34426 0.0
C806 C 0.13548 0.41077 0.37079 0.0
C807 C 0.15307 0.37948 0.34814 0.0
C808 C 0.11852 0.42849 0.37173 0.0
C809 C 0.10101 0.43356 0.35242 0.0
C810 C 0.13498 0.39811 0.35036 0.0
C811 C 0.10084 0.42024 0.33256 0.0
C812 C 0.15608 0.36949 0.32587 0.0
C813 C 0.18377 0.35475 0.36631 0.0
N814 N 0.11761 0.40323 0.33203 0.0
N815 N 0.167 0.37183 0.36765 0.0
H816 H 0.144 0.68027 0.73644 0.0
H817 H 0.12199 0.5682 0.67901 0.0
H818 H 0.19015 0.66607 0.66981 0.0
H819 H 0.05192 0.59878 0.71488 0.0
H820 H 0.15134 0.60158 0.67952 0.0
H821 H 0.11372 0.64777 0.73333 0.0
C822 C 0.14767 0.67024 0.72117 0.0
C823 C 0.16941 0.67571 0.70332 0.0
C824 C 0.12947 0.60096 0.6871 0.0
C825 C 0.1354 0.63859 0.69984 0.0
C826 C 0.1128 0.58203 0.68679 0.0
C827 C 0.08453 0.58097 0.69668 0.0
C828 C 0.11795 0.61865 0.698 0.0
C829 C 0.07365 0.5991 0.707 0.0
C830 C 0.1304 0.65182 0.71935 0.0
C831 C 0.17343 0.66232 0.68383 0.0
N832 N 0.09048 0.61718 0.7076 0.0
N833 N 0.15673 0.64418 0.68271 0.0
H834 H 0.88234 0.68895 0.33924 0.0
H835 H 0.89746 0.56458 0.3246 0.0
H836 H 0.81313 0.64714 0.31754 0.0
H837 H 0.95654 0.603 0.36423 0.0
H838 H 0.86724 0.59507 0.32004 0.0
H839 H 0.91068 0.65802 0.34723 0.0
C840 C 0.87294 0.67329 0.33637 0.0
C841 C 0.84526 0.67073 0.32757 0.0
C842 C 0.88672 0.5968 0.32987 0.0
C843 C 0.87793 0.63525 0.33626 0.0
C844 C 0.90403 0.57945 0.33236 0.0
C845 C 0.92954 0.5813 0.34477 0.0
C846 C 0.89515 0.61624 0.33961 0.0
C847 C 0.93691 0.60086 0.3547 0.0
C848 C 0.88923 0.65564 0.34082 0.0
C849 C 0.83453 0.64999 0.32383 0.0
N850 N 0.91991 0.61763 0.35174 0.0
N851 N 0.85093 0.6331 0.32805 0.0
H852 H 0.87144 0.36449 0.76092 0.0
H853 H 0.9067 0.47163 0.68413 0.0
H854 H 0.83268 0.37568 0.69225 0.0
H855 H 0.97086 0.44089 0.72495 0.0
H856 H 0.87523 0.43926 0.69001 0.0
H857 H 0.90419 0.39557 0.75178 0.0
C858 C 0.86985 0.3736 0.74395 0.0
C859 C 0.84946 0.3677 0.72729 0.0
C860 C 0.89631 0.4396 0.69745 0.0
C861 C 0.88641 0.40317 0.71687 0.0
C862 C 0.91418 0.45795 0.69408 0.0
C863 C 0.94134 0.45871 0.70396 0.0
C864 C 0.90547 0.42224 0.71135 0.0
C865 C 0.95003 0.4408 0.71706 0.0
C866 C 0.88857 0.39118 0.73869 0.0
C867 C 0.84825 0.37982 0.70547 0.0
N868 N 0.93201 0.42334 0.72063 0.0
N869 N 0.86633 0.39721 0.70095 0.0
H870 H 0.29675 0.14622 0.37038 0.0
H871 H 0.21591 0.08949 0.48445 0.0
H872 H 0.21496 0.16886 0.39578 0.0
H873 H 0.25526 0.05326 0.42822 0.0
H874 H 0.22007 0.12118 0.45663 0.0
H875 H 0.28744 0.11421 0.39623 0.0
C876 C 0.27671 0.14451 0.38112 0.0
C877 C 0.25648 0.16038 0.38047 0.0
C878 C 0.22757 0.10623 0.45041 0.0
C879 C 0.24641 0.12392 0.41093 0.0
C880 C 0.22521 0.08825 0.46617 0.0
C881 C 0.23558 0.06895 0.45856 0.0
C882 C 0.24099 0.10487 0.4272 0.0
C883 C 0.24739 0.06799 0.43476 0.0
C884 C 0.27156 0.12622 0.396 0.0
C885 C 0.23144 0.15734 0.39576 0.0
N886 N 0.25027 0.08582 0.42002 0.0
N887 N 0.22721 0.13953 0.41051 0.0
H888 H 0.35654 0.72976 0.83265 0.0
H889 H 0.40771 0.79715 0.94444 0.0
H890 H 0.32319 0.79038 0.84996 0.0
H891 H 0.4458 0.73924 0.92281 0.0
H892 H 0.37584 0.79468 0.91055 0.0
H893 H 0.38828 0.73247 0.86653 0.0
C894 C 0.35577 0.74359 0.84368 0.0
C895 C 0.33711 0.75984 0.8385 0.0
C896 C 0.39117 0.78251 0.91323 0.0
C897 C 0.37364 0.76316 0.87723 0.0
C898 C 0.40949 0.78397 0.93251 0.0
C899 C 0.42948 0.76836 0.93654 0.0
C900 C 0.3928 0.76531 0.89785 0.0
C901 C 0.43046 0.75147 0.92068 0.0
C902 C 0.37404 0.74519 0.86294 0.0
C903 C 0.33741 0.77757 0.85316 0.0
N904 N 0.41239 0.7504 0.90207 0.0
N905 N 0.35534 0.77873 0.87189 0.0
H906 H 0.79786 0.83337 0.42597 0.0
H907 H 0.77468 0.95741 0.43137 0.0
H908 H 0.78511 0.87272 0.36158 0.0
H909 H 0.82324 0.92353 0.48389 0.0
H910 H 0.77146 0.92532 0.4076 0.0
H911 H 0.80097 0.86531 0.44955 0.0
C912 C 0.79589 0.84866 0.41668 0.0
C913 C 0.79127 0.85021 0.39161 0.0
C914 C 0.78286 0.92496 0.42431 0.0
C915 C 0.79405 0.88682 0.41881 0.0
C916 C 0.78457 0.94318 0.43789 0.0
C917 C 0.79935 0.94307 0.45951 0.0
C918 C 0.79556 0.90644 0.43268 0.0
C919 C 0.81191 0.92429 0.46717 0.0
C920 C 0.79751 0.86688 0.43024 0.0
C921 C 0.78817 0.87056 0.38088 0.0
N922 N 0.80959 0.90667 0.45384 0.0
N923 N 0.7895 0.88803 0.39454 0.0
H924 H 0.65556 0.27701 0.83988 0.0
H925 H 0.62871 0.23573 0.97769 0.0
H926 H 0.70091 0.22475 0.86995 0.0
H927 H 0.56241 0.26366 0.93677 0.0
H928 H 0.65908 0.23513 0.94 0.0
H929 H 0.62451 0.27618 0.87714 0.0
C930 C 0.65894 0.2654 0.85438 0.0
C931 C 0.68071 0.25091 0.85195 0.0
C932 C 0.63781 0.24126 0.93928 0.0
C933 C 0.64564 0.25 0.8945 0.0
C934 C 0.62058 0.24158 0.96068 0.0
C935 C 0.59306 0.24954 0.96008 0.0
C936 C 0.62763 0.24943 0.91736 0.0
C937 C 0.58352 0.25732 0.9378 0.0
C938 C 0.64119 0.26486 0.87552 0.0
C939 C 0.68419 0.23608 0.87114 0.0
N940 N 0.60087 0.2572 0.9173 0.0
N941 N 0.66697 0.23611 0.89176 0.0
H942 H 0.29013 0.87845 0.67302 0.0
H943 H 0.21456 0.93049 0.5626 0.0
H944 H 0.20842 0.85188 0.65179 0.0
H945 H 0.25479 0.96917 0.61538 0.0
H946 H 0.21727 0.89922 0.59051 0.0
H947 H 0.28329 0.90991 0.64718 0.0
C948 C 0.27063 0.87917 0.66319 0.0
C949 C 0.24972 0.86233 0.66494 0.0
C950 C 0.22535 0.9146 0.59596 0.0
C951 C 0.24249 0.89817 0.63453 0.0
C952 C 0.22381 0.93234 0.58013 0.0
C953 C 0.23474 0.95225 0.58674 0.0
C954 C 0.2385 0.91682 0.6182 0.0
C955 C 0.24648 0.95397 0.60961 0.0
C956 C 0.2669 0.89715 0.64832 0.0
C957 C 0.22542 0.86415 0.65087 0.0
N958 N 0.24849 0.93639 0.62441 0.0
N959 N 0.22258 0.88168 0.63611 0.0
H960 H 0.66271 0.7456 0.22033 0.0
H961 H 0.62177 0.80617 0.09703 0.0
H962 H 0.69386 0.80945 0.1992 0.0
H963 H 0.57976 0.7472 0.12501 0.0
H964 H 0.65019 0.80696 0.13321 0.0
H965 H 0.63423 0.74506 0.18417 0.0
C966 C 0.66362 0.75949 0.20802 0.0
C967 C 0.6807 0.77759 0.21276 0.0
C968 C 0.63475 0.79385 0.13141 0.0
C969 C 0.64807 0.77713 0.17137 0.0
C970 C 0.6184 0.79343 0.11079 0.0
C971 C 0.5983 0.77657 0.10789 0.0
C972 C 0.63109 0.77727 0.14925 0.0
C973 C 0.59529 0.76034 0.1262 0.0
C974 C 0.64725 0.75921 0.18745 0.0
C975 C 0.68077 0.79524 0.19636 0.0
N976 N 0.6115 0.76109 0.14605 0.0
N977 N 0.66479 0.79454 0.17635 0.0
H978 H 0.84501 0.19187 0.65696 0.0
H979 H 0.77293 0.08128 0.61958 0.0
H980 H 0.75719 0.17161 0.67719 0.0
H981 H 0.8484 0.11095 0.58197 0.0
H982 H 0.77026 0.11185 0.64556 0.0
H983 H 0.84959 0.16008 0.63342 0.0
C984 C 0.82662 0.18084 0.65639 0.0
C985 C 0.80061 0.18456 0.66906 0.0
C986 C 0.78745 0.11162 0.63167 0.0
C987 C 0.806 0.14786 0.64253 0.0
C988 C 0.78911 0.09413 0.61699 0.0
C989 C 0.81086 0.09366 0.59857 0.0
C990 C 0.80787 0.12864 0.62806 0.0
C991 C 0.83112 0.11082 0.5958 0.0
C992 C 0.82934 0.16262 0.64306 0.0
C993 C 0.77779 0.16935 0.66805 0.0
N994 N 0.82914 0.12762 0.6104 0.0
N995 N 0.78103 0.15168 0.65504 0.0
H996 H 0.32626 0.28126 0.17678 0.0
H997 H 0.47678 0.24568 0.11993 0.0
H998 H 0.38762 0.24787 0.21831 0.0
H999 H 0.40955 0.26892 0.07646 0.0
H1000 H 0.44526 0.24783 0.15661 0.0
H1001 H 0.35745 0.27868 0.14014 0.0
C1002 C 0.34636 0.27347 0.1782 0.0
C1003 C 0.35438 0.26477 0.20062 0.0
C1004 C 0.43733 0.25244 0.13907 0.0
C1005 C 0.39008 0.26166 0.15877 0.0
C1006 C 0.4553 0.25122 0.11824 0.0
C1007 C 0.44561 0.25726 0.0954 0.0
C1008 C 0.40956 0.25985 0.13696 0.0
C1009 C 0.41769 0.26428 0.09391 0.0
C1010 C 0.36407 0.27188 0.15726 0.0
C1011 C 0.38048 0.2546 0.20135 0.0
N1012 N 0.40062 0.26548 0.11446 0.0
N1013 N 0.39745 0.25339 0.18075 0.0
H1014 H 0.87906 0.69918 0.68058 0.0
H1015 H 0.89761 0.57906 0.72372 0.0
H1016 H 0.81092 0.66063 0.71853 0.0
H1017 H 0.95065 0.6105 0.6656 0.0
H1018 H 0.86684 0.60949 0.72394 0.0
H1019 H 0.9068 0.66754 0.67636 0.0
C1020 C 0.86971 0.68408 0.6878 0.0
C1021 C 0.84251 0.68271 0.70001 0.0
C1022 C 0.88507 0.60967 0.711 0.0
C1023 C 0.87464 0.64643 0.6957 0.0
C1024 C 0.90267 0.59237 0.71095 0.0
C1025 C 0.92671 0.59233 0.69466 0.0
C1026 C 0.8918 0.62722 0.69492 0.0
C1027 C 0.93221 0.60987 0.67834 0.0
C1028 C 0.88569 0.66602 0.68547 0.0
C1029 C 0.83196 0.66265 0.70941 0.0
N1030 N 0.91505 0.62673 0.67905 0.0
N1031 N 0.84812 0.64536 0.70721 0.0
H1032 H 0.8738 0.34365 0.38495 0.0
H1033 H 0.91247 0.46054 0.33199 0.0
H1034 H 0.85802 0.36272 0.3105 0.0
H1035 H 0.97204 0.42765 0.37577 0.0
H1036 H 0.88258 0.42749 0.33119 0.0
H1037 H 0.90138 0.37719 0.38863 0.0
C1038 C 0.87602 0.3547 0.36934 0.0
C1039 C 0.86333 0.35004 0.34732 0.0
C1040 C 0.90212 0.4276 0.34109 0.0
C1041 C 0.89395 0.38885 0.35199 0.0
C1042 C 0.91909 0.44636 0.34154 0.0
C1043 C 0.94489 0.4466 0.35361 0.0
C1044 C 0.9106 0.40919 0.35342 0.0
C1045 C 0.95235 0.42797 0.36612 0.0
C1046 C 0.89162 0.37392 0.37161 0.0
C1047 C 0.86657 0.36552 0.32807 0.0
N1048 N 0.93523 0.40996 0.36577 0.0
N1049 N 0.88136 0.38422 0.33092 0.0
H1050 H 0.19301 0.3589 0.68184 0.0
H1051 H 0.1196 0.45785 0.7408 0.0
H1052 H 0.192 0.37081 0.75869 0.0
H1053 H 0.09423 0.43331 0.67241 0.0
H1054 H 0.15221 0.42899 0.74511 0.0
H1055 H 0.16219 0.38889 0.67573 0.0
C1056 C 0.18633 0.36772 0.69745 0.0
C1057 C 0.19529 0.36223 0.72085 0.0
C1058 C 0.13952 0.42994 0.72915 0.0
C1059 C 0.16051 0.39684 0.7138 0.0
C1060 C 0.12073 0.44636 0.72671 0.0
C1061 C 0.10373 0.44793 0.70635 0.0
C1062 C 0.14168 0.415 0.71101 0.0
C1063 C 0.10697 0.43288 0.68835 0.0
C1064 C 0.16885 0.3849 0.69389 0.0
C1065 C 0.18626 0.37459 0.74024 0.0
N1066 N 0.12552 0.41701 0.69112 0.0
N1067 N 0.16948 0.39128 0.73626 0.0
H1068 H 0.21763 0.63559 0.31856 0.0
H1069 H 0.05907 0.58994 0.36009 0.0
H1070 H 0.14797 0.6752 0.33855 0.0
H1071 H 0.12732 0.55073 0.3364 0.0
H1072 H 0.09246 0.62121 0.35571 0.0
H1073 H 0.186 0.60415 0.32805 0.0
C1074 C 0.19568 0.63769 0.32494 0.0
C1075 C 0.18542 0.65811 0.32758 0.0
C1076 C 0.10025 0.60577 0.35161 0.0
C1077 C 0.14909 0.62211 0.3387 0.0
C1078 C 0.08124 0.588 0.35418 0.0
C1079 C 0.09066 0.56795 0.34852 0.0
C1080 C 0.12882 0.60339 0.34327 0.0
C1081 C 0.11943 0.56605 0.34088 0.0
C1082 C 0.17766 0.61971 0.33048 0.0
C1083 C 0.15691 0.6598 0.33641 0.0
N1084 N 0.13751 0.58358 0.33835 0.0
N1085 N 0.13973 0.64206 0.34151 0.0
H1086 H 0.77589 0.88743 0.68915 0.0
H1087 H 0.78761 0.93512 0.55157 0.0
H1088 H 0.76743 0.84855 0.62684 0.0
H1089 H 0.80308 0.972 0.61424 0.0
H1090 H 0.77961 0.90309 0.57851 0.0
H1091 H 0.78509 0.91859 0.66178 0.0
C1092 C 0.77579 0.88547 0.66968 0.0
C1093 C 0.7707 0.86535 0.66029 0.0
C1094 C 0.78491 0.91816 0.58637 0.0
C1095 C 0.78155 0.90104 0.62872 0.0
C1096 C 0.78948 0.93633 0.57103 0.0
C1097 C 0.79621 0.95595 0.58087 0.0
C1098 C 0.78689 0.9198 0.61168 0.0
C1099 C 0.79815 0.95699 0.60611 0.0
C1100 C 0.78125 0.90327 0.65404 0.0
C1101 C 0.77143 0.86373 0.63487 0.0
N1102 N 0.79348 0.93916 0.62067 0.0
N1103 N 0.77664 0.88135 0.61996 0.0
H1104 H 0.71815 0.28879 0.19122 0.0
H1105 H 0.5788 0.2324 0.13765 0.0
H1106 H 0.66434 0.24067 0.23123 0.0
H1107 H 0.63264 0.28084 0.09818 0.0
H1108 H 0.61024 0.23468 0.17186 0.0
H1109 H 0.68703 0.28599 0.15694 0.0
C1110 C 0.69967 0.27773 0.19287 0.0
C1111 C 0.69383 0.26499 0.21419 0.0
C1112 C 0.61519 0.2448 0.15571 0.0
C1113 C 0.65823 0.26149 0.17481 0.0
C1114 C 0.59735 0.24341 0.13609 0.0
C1115 C 0.60305 0.25647 0.11499 0.0
C1116 C 0.63897 0.25934 0.15423 0.0
C1117 C 0.62716 0.27067 0.11419 0.0
C1118 C 0.682 0.27603 0.17321 0.0
C1119 C 0.66986 0.25064 0.21507 0.0
N1120 N 0.6442 0.27172 0.1335 0.0
N1121 N 0.65293 0.2493 0.19569 0.0
H1122 H 0.22509 0.15808 0.6913 0.0
H1123 H 0.26174 0.10797 0.56365 0.0
H1124 H 0.24767 0.19636 0.62591 0.0
H1125 H 0.20788 0.07452 0.61983 0.0
H1126 H 0.26161 0.13975 0.5878 0.0
H1127 H 0.22317 0.12635 0.66692 0.0
C1128 C 0.22961 0.15977 0.6718 0.0
C1129 C 0.23651 0.17982 0.66055 0.0
C1130 C 0.24976 0.12548 0.59481 0.0
C1131 C 0.23463 0.14371 0.63269 0.0
C1132 C 0.24999 0.10733 0.58114 0.0
C1133 C 0.23485 0.08863 0.58983 0.0
C1134 C 0.23466 0.12483 0.61753 0.0
C1135 C 0.21969 0.08868 0.61246 0.0
C1136 C 0.22839 0.14172 0.65792 0.0
C1137 C 0.24202 0.1812 0.63523 0.0
N1138 N 0.22015 0.10648 0.62565 0.0
N1139 N 0.2412 0.16336 0.62217 0.0
H1140 H 0.32172 0.75584 0.17625 0.0
H1141 H 0.47572 0.78854 0.11167 0.0
H1142 H 0.38889 0.79033 0.21156 0.0
H1143 H 0.4056 0.7605 0.07398 0.0
H1144 H 0.44448 0.7888 0.14878 0.0
H1145 H 0.35244 0.75649 0.13896 0.0
C1146 C 0.34298 0.76348 0.17619 0.0
C1147 C 0.35275 0.77304 0.19708 0.0
C1148 C 0.43585 0.78261 0.13241 0.0
C1149 C 0.38798 0.77396 0.15438 0.0
C1150 C 0.45365 0.78249 0.11132 0.0
C1151 C 0.44308 0.7744 0.09 0.0
C1152 C 0.40731 0.77451 0.13212 0.0
C1153 C 0.41443 0.76675 0.09023 0.0
C1154 C 0.36045 0.76396 0.15484 0.0
C1155 C 0.38035 0.78297 0.19582 0.0
N1156 N 0.39752 0.76691 0.11103 0.0
N1157 N 0.39701 0.78311 0.17488 0.0
H1158 H 0.76252 0.14117 0.36502 0.0
H1159 H 0.84046 0.09167 0.47468 0.0
H1160 H 0.84582 0.16701 0.3833 0.0
H1161 H 0.79365 0.05151 0.42721 0.0
H1162 H 0.83975 0.12106 0.4442 0.0
H1163 H 0.77008 0.10958 0.39038 0.0
C1164 C 0.78259 0.14023 0.374 0.0
C1165 C 0.80359 0.15702 0.37175 0.0
C1166 C 0.8301 0.10571 0.44028 0.0
C1167 C 0.81172 0.12095 0.40165 0.0
C1168 C 0.83064 0.08895 0.45755 0.0
C1169 C 0.81754 0.06909 0.45315 0.0
C1170 C 0.8155 0.10279 0.41887 0.0
C1171 C 0.80425 0.06654 0.43105 0.0
C1172 C 0.78675 0.12214 0.38861 0.0
C1173 C 0.82868 0.15484 0.38471 0.0
N1174 N 0.80316 0.08332 0.41484 0.0
N1175 N 0.83189 0.13727 0.3993 0.0
H1176 H 0.3259 0.27174 0.85782 0.0
H1177 H 0.46149 0.22576 0.92247 0.0
H1178 H 0.38529 0.23071 0.82272 0.0
H1179 H 0.41158 0.27572 0.95152 0.0
H1180 H 0.43167 0.22535 0.88707 0.0
H1181 H 0.35526 0.27172 0.89338 0.0
C1182 C 0.34521 0.26283 0.85748 0.0
C1183 C 0.35314 0.25127 0.83712 0.0
C1184 C 0.42724 0.23641 0.90118 0.0
C1185 C 0.38664 0.2509 0.87808 0.0
C1186 C 0.44413 0.23655 0.92147 0.0
C1187 C 0.43901 0.2508 0.93998 0.0
C1188 C 0.40491 0.25051 0.89945 0.0
C1189 C 0.41648 0.26463 0.93756 0.0
C1190 C 0.36188 0.26274 0.87789 0.0
C1191 C 0.37809 0.23964 0.83806 0.0
N1192 N 0.40022 0.26411 0.9177 0.0
N1193 N 0.39392 0.23976 0.85818 0.0
H1194 H 0.28616 0.85264 0.37459 0.0
H1195 H 0.19538 0.91854 0.46922 0.0
H1196 H 0.19691 0.83706 0.3947 0.0
H1197 H 0.27439 0.94308 0.43229 0.0
H1198 H 0.19664 0.88741 0.44425 0.0
H1199 H 0.2835 0.88458 0.39798 0.0
C1200 C 0.26592 0.85597 0.38373 0.0
C1201 C 0.24169 0.84207 0.38252 0.0
C1202 C 0.21364 0.89966 0.44158 0.0
C1203 C 0.23873 0.87854 0.40984 0.0
C1204 C 0.21286 0.91754 0.45574 0.0
C1205 C 0.23485 0.93355 0.45297 0.0
C1206 C 0.23668 0.89761 0.42465 0.0
C1207 C 0.25723 0.93104 0.43546 0.0
C1208 C 0.26448 0.8742 0.39721 0.0
C1209 C 0.21628 0.84708 0.39534 0.0
N1210 N 0.25762 0.91339 0.42207 0.0
N1211 N 0.21549 0.86486 0.4085 0.0
H1212 H 0.70939 0.75154 0.8701 0.0
H1213 H 0.55737 0.78399 0.92753 0.0
H1214 H 0.64477 0.78071 0.82811 0.0
H1215 H 0.62527 0.76113 0.9705 0.0
H1216 H 0.58893 0.78266 0.89073 0.0
H1217 H 0.67866 0.75431 0.90696 0.0
C1218 C 0.68868 0.75845 0.86862 0.0
C1219 C 0.67962 0.76586 0.84596 0.0
C1220 C 0.59701 0.77797 0.90818 0.0
C1221 C 0.64438 0.76922 0.88813 0.0
C1222 C 0.57903 0.77876 0.92909 0.0
C1223 C 0.58886 0.77255 0.95184 0.0
C1224 C 0.62498 0.77086 0.91009 0.0
C1225 C 0.61701 0.76591 0.95315 0.0
C1226 C 0.67122 0.76015 0.88969 0.0
C1227 C 0.65276 0.77498 0.84521 0.0
N1228 N 0.63408 0.76514 0.93252 0.0
N1229 N 0.63606 0.77633 0.86595 0.0
loop_
_geom_bond_atom_site_label_1
_geom_bond_atom_site_label_2
_geom_bond_distance
_geom_bond_site_symmetry_2
_ccdc_geom_bond_type
C0 C1 1.391 . S
C0 C4 1.391 . S
C0 H42 0.948 . S
C1 C0 1.391 . S
C1 C2 1.391 . S
C2 C1 1.391 . S
C2 H58 0.947 . S
C2 C59 1.392 . S
C3 C4 1.391 . S
C3 C7 1.397 . S
C3 C59 1.419 . S
C4 C0 1.391 . S
C4 C3 1.391 . S
C4 C5 1.399 . S
C5 C4 1.399 . S
C5 C8 1.396 . S
C5 C17 1.453 . S
C5 C18 1.684 . S
H6 C30 0.948 . S
C7 C3 1.397 . S
C7 C8 1.394 . S
C7 C26 1.723 . S
C8 C5 1.396 . S
C8 C7 1.394 . S
C8 C38 1.723 . S
H9 C32 0.947 . S
H10 C33 0.948 . S
H11 C39 0.982 . S
H12 C40 0.979 . S
H13 C40 0.980 . S
H14 C40 0.983 . S
H15 C39 0.979 . S
H16 C39 0.977 . S
C17 C5 1.453 . S
C17 H46 0.982 . S
C17 H47 0.979 . S
C17 H48 0.977 . S
C18 C5 1.684 . S
C18 H43 0.979 . S
C18 H44 0.980 . S
C18 H45 0.983 . S
C19 C20 1.391 . S
C19 C24 1.391 . S
C19 H49 0.948 . S
C20 C19 1.391 . S
C20 C21 1.391 . S
C21 C20 1.391 . S
C21 C22 1.392 . S
C21 H50 0.947 . S
C22 C21 1.392 . S
C22 C23 1.419 . S
C22 H51 0.948 . S
C23 C22 1.419 . S
C23 C24 1.391 . S
C23 C27 1.397 . S
C24 C19 1.391 . S
C24 C23 1.391 . S
C24 C25 1.399 . S
C25 C24 1.399 . S
C25 C26 1.396 . S
C25 C28 1.453 . S
C25 C29 1.684 . S
C26 C7 1.723 . S
C26 C25 1.396 . S
C26 C27 1.394 . S
C27 C23 1.397 . S
C27 C26 1.394 . S
C27 C37 1.723 . S
C28 C25 1.453 . S
C28 H52 0.982 . S
C28 H53 0.979 . S
C28 H54 0.977 . S
C29 C25 1.684 . S
C29 H55 0.979 . S
C29 H56 0.980 . S
C29 H57 0.983 . S
C30 H6 0.948 . S
C30 C31 1.391 . S
C30 C35 1.391 . S
C31 C30 1.391 . S
C31 C32 1.391 . S
C32 H9 0.947 . S
C32 C31 1.391 . S
C32 C33 1.392 . S
C33 H10 0.948 . S
C33 C32 1.392 . S
C33 C34 1.419 . S
C34 C33 1.419 . S
C34 C35 1.391 . S
C34 C38 1.397 . S
C35 C30 1.391 . S
C35 C34 1.391 . S
C35 C36 1.399 . S
C36 C35 1.399 . S
C36 C37 1.396 . S
C36 C39 1.453 . S
C36 C40 1.684 . S
C37 C27 1.723 . S
C37 C36 1.396 . S
C37 C38 1.394 . S
C38 C8 1.723 . S
C38 C34 1.397 . S
C38 C37 1.394 . S
C39 H11 0.982 . S
C39 H15 0.979 . S
C39 H16 0.977 . S
C39 C36 1.453 . S
C40 H12 0.979 . S
C40 H13 0.980 . S
C40 H14 0.983 . S
C40 C36 1.684 . S
H41 C59 0.948 . S
H42 C0 0.948 . S
H43 C18 0.979 . S
H44 C18 0.980 . S
H45 C18 0.983 . S
H46 C17 0.982 . S
H47 C17 0.979 . S
H48 C17 0.977 . S
H49 C19 0.948 . S
H50 C21 0.947 . S
H51 C22 0.948 . S
H52 C28 0.982 . S
H53 C28 0.979 . S
H54 C28 0.977 . S
H55 C29 0.979 . S
H56 C29 0.980 . S
H57 C29 0.983 . S
H58 C2 0.947 . S
C59 C2 1.392 . S
C59 C3 1.419 . S
C59 H41 0.948 . S
C60 C61 1.391 . S
C60 C64 1.391 . S
C60 H102 0.948 . S
C61 C60 1.391 . S
C61 C62 1.391 . S
C62 C61 1.391 . S
C62 H118 0.947 . S
C62 C119 1.392 . S
C63 C64 1.391 . S
C63 C67 1.397 . S
C63 C119 1.419 . S
C64 C60 1.391 . S
C64 C63 1.391 . S
C64 C65 1.399 . S
C65 C64 1.399 . S
C65 C68 1.396 . S
C65 C77 1.453 . S
C65 C78 1.684 . S
H66 C90 0.948 . S
C67 C63 1.397 . S
C67 C68 1.394 . S
C67 C86 1.723 . S
C68 C65 1.396 . S
C68 C67 1.394 . S
C68 C98 1.723 . S
H69 C92 0.947 . S
H70 C93 0.948 . S
H71 C99 0.982 . S
H72 C100 0.979 . S
H73 C100 0.980 . S
H74 C100 0.983 . S
H75 C99 0.979 . S
H76 C99 0.977 . S
C77 C65 1.453 . S
C77 H106 0.982 . S
C77 H107 0.979 . S
C77 H108 0.977 . S
C78 C65 1.684 . S
C78 H103 0.979 . S
C78 H104 0.980 . S
C78 H105 0.983 . S
C79 C80 1.391 . S
C79 C84 1.391 . S
C79 H109 0.948 . S
C80 C79 1.391 . S
C80 C81 1.391 . S
C81 C80 1.391 . S
C81 C82 1.392 . S
C81 H110 0.947 . S
C82 C81 1.392 . S
C82 C83 1.419 . S
C82 H111 0.948 . S
C83 C82 1.419 . S
C83 C84 1.391 . S
C83 C87 1.397 . S
C84 C79 1.391 . S
C84 C83 1.391 . S
C84 C85 1.399 . S
C85 C84 1.399 . S
C85 C86 1.396 . S
C85 C88 1.453 . S
C85 C89 1.684 . S
C86 C67 1.723 . S
C86 C85 1.396 . S
C86 C87 1.394 . S
C87 C83 1.397 . S
C87 C86 1.394 . S
C87 C97 1.723 . S
C88 C85 1.453 . S
C88 H112 0.982 . S
C88 H113 0.979 . S
C88 H114 0.977 . S
C89 C85 1.684 . S
C89 H115 0.979 . S
C89 H116 0.980 . S
C89 H117 0.983 . S
C90 H66 0.948 . S
C90 C91 1.391 . S
C90 C95 1.391 . S
C91 C90 1.391 . S
C91 C92 1.391 . S
C92 H69 0.947 . S
C92 C91 1.391 . S
C92 C93 1.392 . S
C93 H70 0.948 . S
C93 C92 1.392 . S
C93 C94 1.419 . S
C94 C93 1.419 . S
C94 C95 1.391 . S
C94 C98 1.397 . S
C95 C90 1.391 . S
C95 C94 1.391 . S
C95 C96 1.399 . S
C96 C95 1.399 . S
C96 C97 1.396 . S
C96 C99 1.453 . S
C96 C100 1.684 . S
C97 C87 1.723 . S
C97 C96 1.396 . S
C97 C98 1.394 . S
C98 C68 1.723 . S
C98 C94 1.397 . S
C98 C97 1.394 . S
C99 H71 0.982 . S
C99 H75 0.979 . S
C99 H76 0.977 . S
C99 C96 1.453 . S
C100 H72 0.979 . S
C100 H73 0.980 . S
C100 H74 0.983 . S
C100 C96 1.684 . S
H101 C119 0.948 . S
H102 C60 0.948 . S
H103 C78 0.979 . S
H104 C78 0.980 . S
H105 C78 0.983 . S
H106 C77 0.982 . S
H107 C77 0.979 . S
H108 C77 0.977 . S
H109 C79 0.948 . S
H110 C81 0.947 . S
H111 C82 0.948 . S
H112 C88 0.982 . S
H113 C88 0.979 . S
H114 C88 0.977 . S
H115 C89 0.979 . S
H116 C89 0.980 . S
H117 C89 0.983 . S
H118 C62 0.947 . S
C119 C62 1.392 . S
C119 C63 1.419 . S
C119 H101 0.948 . S
C120 C121 1.391 . S
C120 C124 1.391 . S
C120 H162 0.948 . S
C121 C120 1.391 . S
C121 C122 1.391 . S
C122 C121 1.391 . S
C122 H178 0.947 . S
C122 C179 1.392 . S
C123 C124 1.391 . S
C123 C127 1.397 . S
C123 C179 1.419 . S
C124 C120 1.391 . S
C124 C123 1.391 . S
C124 C125 1.399 . S
C125 C124 1.399 . S
C125 C128 1.396 . S
C125 C137 1.453 . S
C125 C138 1.684 . S
H126 C150 0.948 . S
C127 C123 1.397 . S
C127 C128 1.394 . S
C127 C146 1.723 . S
C128 C125 1.396 . S
C128 C127 1.394 . S
C128 C158 1.723 . S
H129 C152 0.947 . S
H130 C153 0.948 . S
H131 C159 0.982 . S
H132 C160 0.979 . S
H133 C160 0.980 . S
H134 C160 0.983 . S
H135 C159 0.979 . S
H136 C159 0.977 . S
C137 C125 1.453 . S
C137 H166 0.982 . S
C137 H167 0.979 . S
C137 H168 0.977 . S
C138 C125 1.684 . S
C138 H163 0.979 . S
C138 H164 0.980 . S
C138 H165 0.983 . S
C139 C140 1.391 . S
C139 C144 1.391 . S
C139 H169 0.948 . S
C140 C139 1.391 . S
C140 C141 1.391 . S
C141 C140 1.391 . S
C141 C142 1.392 . S
C141 H170 0.947 . S
C142 C141 1.392 . S
C142 C143 1.419 . S
C142 H171 0.948 . S
C143 C142 1.419 . S
C143 C144 1.391 . S
C143 C147 1.397 . S
C144 C139 1.391 . S
C144 C143 1.391 . S
C144 C145 1.399 . S
C145 C144 1.399 . S
C145 C146 1.396 . S
C145 C148 1.453 . S
C145 C149 1.684 . S
C146 C127 1.723 . S
C146 C145 1.396 . S
C146 C147 1.394 . S
C147 C143 1.397 . S
C147 C146 1.394 . S
C147 C157 1.723 . S
C148 C145 1.453 . S
C148 H172 0.982 . S
C148 H173 0.979 . S
C148 H174 0.977 . S
C149 C145 1.684 . S
C149 H175 0.979 . S
C149 H176 0.980 . S
C149 H177 0.983 . S
C150 H126 0.948 . S
C150 C151 1.391 . S
C150 C155 1.391 . S
C151 C150 1.391 . S
C151 C152 1.391 . S
C152 H129 0.947 . S
C152 C151 1.391 . S
C152 C153 1.392 . S
C153 H130 0.948 . S
C153 C152 1.392 . S
C153 C154 1.419 . S
C154 C153 1.419 . S
C154 C155 1.391 . S
C154 C158 1.397 . S
C155 C150 1.391 . S
C155 C154 1.391 . S
C155 C156 1.399 . S
C156 C155 1.399 . S
C156 C157 1.396 . S
C156 C159 1.453 . S
C156 C160 1.684 . S
C157 C147 1.723 . S
C157 C156 1.396 . S
C157 C158 1.394 . S
C158 C128 1.723 . S
C158 C154 1.397 . S
C158 C157 1.394 . S
C159 H131 0.982 . S
C159 H135 0.979 . S
C159 H136 0.977 . S
C159 C156 1.453 . S
C160 H132 0.979 . S
C160 H133 0.980 . S
C160 H134 0.983 . S
C160 C156 1.684 . S
H161 C179 0.948 . S
H162 C120 0.948 . S
H163 C138 0.979 . S
H164 C138 0.980 . S
H165 C138 0.983 . S
H166 C137 0.982 . S
H167 C137 0.979 . S
H168 C137 0.977 . S
H169 C139 0.948 . S
H170 C141 0.947 . S
H171 C142 0.948 . S
H172 C148 0.982 . S
H173 C148 0.979 . S
H174 C148 0.977 . S
H175 C149 0.979 . S
H176 C149 0.980 . S
H177 C149 0.983 . S
H178 C122 0.947 . S
C179 C122 1.392 . S
C179 C123 1.419 . S
C179 H161 0.948 . S
C180 C181 1.391 . S
C180 C184 1.391 . S
C180 H222 0.948 . S
C181 C180 1.391 . S
C181 C182 1.391 . S
C182 C181 1.391 . S
C182 H238 0.947 . S
C182 C239 1.392 . S
C183 C184 1.391 . S
C183 C187 1.397 . S
C183 C239 1.419 . S
C184 C180 1.391 . S
C184 C183 1.391 . S
C184 C185 1.399 . S
C185 C184 1.399 . S
C185 C188 1.396 . S
C185 C197 1.453 . S
C185 C198 1.684 . S
H186 C210 0.948 . S
C187 C183 1.397 . S
C187 C188 1.394 . S
C187 C206 1.723 . S
C188 C185 1.396 . S
C188 C187 1.394 . S
C188 C218 1.723 . S
H189 C212 0.947 . S
H190 C213 0.948 . S
H191 C219 0.982 . S
H192 C220 0.979 . S
H193 C220 0.980 . S
H194 C220 0.983 . S
H195 C219 0.979 . S
H196 C219 0.977 . S
C197 C185 1.453 . S
C197 H226 0.982 . S
C197 H227 0.979 . S
C197 H228 0.977 . S
C198 C185 1.684 . S
C198 H223 0.979 . S
C198 H224 0.980 . S
C198 H225 0.983 . S
C199 C200 1.391 . S
C199 C204 1.391 . S
C199 H229 0.948 . S
C200 C199 1.391 . S
C200 C201 1.391 . S
C201 C200 1.391 . S
C201 C202 1.392 . S
C201 H230 0.947 . S
C202 C201 1.392 . S
C202 C203 1.419 . S
C202 H231 0.948 . S
C203 C202 1.419 . S
C203 C204 1.391 . S
C203 C207 1.397 . S
C204 C199 1.391 . S
C204 C203 1.391 . S
C204 C205 1.399 . S
C205 C204 1.399 . S
C205 C206 1.396 . S
C205 C208 1.453 . S
C205 C209 1.684 . S
C206 C187 1.723 . S
C206 C205 1.396 . S
C206 C207 1.394 . S
C207 C203 1.397 . S
C207 C206 1.394 . S
C207 C217 1.723 . S
C208 C205 1.453 . S
C208 H232 0.982 . S
C208 H233 0.979 . S
C208 H234 0.977 . S
C209 C205 1.684 . S
C209 H235 0.979 . S
C209 H236 0.980 . S
C209 H237 0.983 . S
C210 H186 0.948 . S
C210 C211 1.391 . S
C210 C215 1.391 . S
C211 C210 1.391 . S
C211 C212 1.391 . S
C212 H189 0.947 . S
C212 C211 1.391 . S
C212 C213 1.392 . S
C213 H190 0.948 . S
C213 C212 1.392 . S
C213 C214 1.419 . S
C214 C213 1.419 . S
C214 C215 1.391 . S
C214 C218 1.397 . S
C215 C210 1.391 . S
C215 C214 1.391 . S
C215 C216 1.399 . S
C216 C215 1.399 . S
C216 C217 1.396 . S
C216 C219 1.453 . S
C216 C220 1.684 . S
C217 C207 1.723 . S
C217 C216 1.396 . S
C217 C218 1.394 . S
C218 C188 1.723 . S
C218 C214 1.397 . S
C218 C217 1.394 . S
C219 H191 0.982 . S
C219 H195 0.979 . S
C219 H196 0.977 . S
C219 C216 1.453 . S
C220 H192 0.979 . S
C220 H193 0.980 . S
C220 H194 0.983 . S
C220 C216 1.684 . S
H221 C239 0.948 . S
H222 C180 0.948 . S
H223 C198 0.979 . S
H224 C198 0.980 . S
H225 C198 0.983 . S
H226 C197 0.982 . S
H227 C197 0.979 . S
H228 C197 0.977 . S
H229 C199 0.948 . S
H230 C201 0.947 . S
H231 C202 0.948 . S
H232 C208 0.982 . S
H233 C208 0.979 . S
H234 C208 0.977 . S
H235 C209 0.979 . S
H236 C209 0.980 . S
H237 C209 0.983 . S
H238 C182 0.947 . S
C239 C182 1.392 . S
C239 C183 1.419 . S
C239 H221 0.948 . S
C240 C241 1.391 . S
C240 C244 1.391 . S
C240 H282 0.948 . S
C241 C240 1.391 . S
C241 C242 1.391 . S
C242 C241 1.391 . S
C242 H298 0.947 . S
C242 C299 1.392 . S
C243 C244 1.391 . S
C243 C247 1.397 . S
C243 C299 1.419 . S
C244 C240 1.391 . S
C244 C243 1.391 . S
C244 C245 1.399 . S
C245 C244 1.399 . S
C245 C248 1.396 . S
C245 C257 1.453 . S
C245 C258 1.684 . S
H246 C270 0.948 . S
C247 C243 1.397 . S
C247 C248 1.394 . S
C247 C266 1.723 . S
C248 C245 1.396 . S
C248 C247 1.394 . S
C248 C278 1.723 . S
H249 C272 0.947 . S
H250 C273 0.948 . S
H251 C279 0.982 . S
H252 C280 0.979 . S
H253 C280 0.980 . S
H254 C280 0.983 . S
H255 C279 0.979 . S
H256 C279 0.977 . S
C257 C245 1.453 . S
C257 H286 0.982 . S
C257 H287 0.979 . S
C257 H288 0.977 . S
C258 C245 1.684 . S
C258 H283 0.979 . S
C258 H284 0.980 . S
C258 H285 0.983 . S
C259 C260 1.391 . S
C259 C264 1.391 . S
C259 H289 0.948 . S
C260 C259 1.391 . S
C260 C261 1.391 . S
C261 C260 1.391 . S
C261 C262 1.392 . S
C261 H290 0.947 . S
C262 C261 1.392 . S
C262 C263 1.419 . S
C262 H291 0.948 . S
C263 C262 1.419 . S
C263 C264 1.391 . S
C263 C267 1.397 . S
C264 C259 1.391 . S
C264 C263 1.391 . S
C264 C265 1.399 . S
C265 C264 1.399 . S
C265 C266 1.396 . S
C265 C268 1.453 . S
C265 C269 1.684 . S
C266 C247 1.723 . S
C266 C265 1.396 . S
C266 C267 1.394 . S
C267 C263 1.397 . S
C267 C266 1.394 . S
C267 C277 1.723 . S
C268 C265 1.453 . S
C268 H292 0.982 . S
C268 H293 0.979 . S
C268 H294 0.977 . S
C269 C265 1.684 . S
C269 H295 0.979 . S
C269 H296 0.980 . S
C269 H297 0.983 . S
C270 H246 0.948 . S
C270 C271 1.391 . S
C270 C275 1.391 . S
C271 C270 1.391 . S
C271 C272 1.391 . S
C272 H249 0.947 . S
C272 C271 1.391 . S
C272 C273 1.392 . S
C273 H250 0.948 . S
C273 C272 1.392 . S
C273 C274 1.419 . S
C274 C273 1.419 . S
C274 C275 1.391 . S
C274 C278 1.397 . S
C275 C270 1.391 . S
C275 C274 1.391 . S
C275 C276 1.399 . S
C276 C275 1.399 . S
C276 C277 1.396 . S
C276 C279 1.453 . S
C276 C280 1.684 . S
C277 C267 1.723 . S
C277 C276 1.396 . S
C277 C278 1.394 . S
C278 C248 1.723 . S
C278 C274 1.397 . S
C278 C277 1.394 . S
C279 H251 0.982 . S
C279 H255 0.979 . S
C279 H256 0.977 . S
C279 C276 1.453 . S
C280 H252 0.979 . S
C280 H253 0.980 . S
C280 H254 0.983 . S
C280 C276 1.684 . S
H281 C299 0.948 . S
H282 C240 0.948 . S
H283 C258 0.979 . S
H284 C258 0.980 . S
H285 C258 0.983 . S
H286 C257 0.982 . S
H287 C257 0.979 . S
H288 C257 0.977 . S
H289 C259 0.948 . S
H290 C261 0.947 . S
H291 C262 0.948 . S
H292 C268 0.982 . S
H293 C268 0.979 . S
H294 C268 0.977 . S
H295 C269 0.979 . S
H296 C269 0.980 . S
H297 C269 0.983 . S
H298 C242 0.947 . S
C299 C242 1.392 . S
C299 C243 1.419 . S
C299 H281 0.948 . S
C300 C301 1.391 . S
C300 C304 1.391 . S
C300 H342 0.948 . S
C301 C300 1.391 . S
C301 C302 1.391 . S
C302 C301 1.391 . S
C302 H358 0.947 . S
C302 C359 1.392 . S
C303 C304 1.391 . S
C303 C307 1.397 . S
C303 C359 1.419 . S
C304 C300 1.391 . S
C304 C303 1.391 . S
C304 C305 1.399 . S
C305 C304 1.399 . S
C305 C308 1.396 . S
C305 C317 1.453 . S
C305 C318 1.684 . S
H306 C330 0.948 . S
C307 C303 1.397 . S
C307 C308 1.394 . S
C307 C326 1.723 . S
C308 C305 1.396 . S
C308 C307 1.394 . S
C308 C338 1.723 . S
H309 C332 0.947 . S
H310 C333 0.948 . S
H311 C339 0.982 . S
H312 C340 0.979 . S
H313 C340 0.980 . S
H314 C340 0.983 . S
H315 C339 0.979 . S
H316 C339 0.977 . S
C317 C305 1.453 . S
C317 H346 0.982 . S
C317 H347 0.979 . S
C317 H348 0.977 . S
C318 C305 1.684 . S
C318 H343 0.979 . S
C318 H344 0.980 . S
C318 H345 0.983 . S
C319 C320 1.391 . S
C319 C324 1.391 . S
C319 H349 0.948 . S
C320 C319 1.391 . S
C320 C321 1.391 . S
C321 C320 1.391 . S
C321 C322 1.392 . S
C321 H350 0.947 . S
C322 C321 1.392 . S
C322 C323 1.419 . S
C322 H351 0.948 . S
C323 C322 1.419 . S
C323 C324 1.391 . S
C323 C327 1.397 . S
C324 C319 1.391 . S
C324 C323 1.391 . S
C324 C325 1.399 . S
C325 C324 1.399 . S
C325 C326 1.396 . S
C325 C328 1.453 . S
C325 C329 1.684 . S
C326 C307 1.723 . S
C326 C325 1.396 . S
C326 C327 1.394 . S
C327 C323 1.397 . S
C327 C326 1.394 . S
C327 C337 1.723 . S
C328 C325 1.453 . S
C328 H352 0.982 . S
C328 H353 0.979 . S
C328 H354 0.977 . S
C329 C325 1.684 . S
C329 H355 0.979 . S
C329 H356 0.980 . S
C329 H357 0.983 . S
C330 H306 0.948 . S
C330 C331 1.391 . S
C330 C335 1.391 . S
C331 C330 1.391 . S
C331 C332 1.391 . S
C332 H309 0.947 . S
C332 C331 1.391 . S
C332 C333 1.392 . S
C333 H310 0.948 . S
C333 C332 1.392 . S
C333 C334 1.419 . S
C334 C333 1.419 . S
C334 C335 1.391 . S
C334 C338 1.397 . S
C335 C330 1.391 . S
C335 C334 1.391 . S
C335 C336 1.399 . S
C336 C335 1.399 . S
C336 C337 1.396 . S
C336 C339 1.453 . S
C336 C340 1.684 . S
C337 C327 1.723 . S
C337 C336 1.396 . S
C337 C338 1.394 . S
C338 C308 1.723 . S
C338 C334 1.397 . S
C338 C337 1.394 . S
C339 H311 0.982 . S
C339 H315 0.979 . S
C339 H316 0.977 . S
C339 C336 1.453 . S
C340 H312 0.979 . S
C340 H313 0.980 . S
C340 H314 0.983 . S
C340 C336 1.684 . S
H341 C359 0.948 . S
H342 C300 0.948 . S
H343 C318 0.979 . S
H344 C318 0.980 . S
H345 C318 0.983 . S
H346 C317 0.982 . S
H347 C317 0.979 . S
H348 C317 0.977 . S
H349 C319 0.948 . S
H350 C321 0.947 . S
H351 C322 0.948 . S
H352 C328 0.982 . S
H353 C328 0.979 . S
H354 C328 0.977 . S
H355 C329 0.979 . S
H356 C329 0.980 . S
H357 C329 0.983 . S
H358 C302 0.947 . S
C359 C302 1.392 . S
C359 C303 1.419 . S
C359 H341 0.948 . S
C360 C361 1.391 . S
C360 C364 1.391 . S
C360 H402 0.948 . S
C361 C360 1.391 . S
C361 C362 1.391 . S
C362 C361 1.391 . S
C362 H418 0.947 . S
C362 C419 1.392 . S
C363 C364 1.391 . S
C363 C367 1.397 . S
C363 C419 1.419 . S
C364 C360 1.391 . S
C364 C363 1.391 . S
C364 C365 1.399 . S
C365 C364 1.399 . S
C365 C368 1.396 . S
C365 C377 1.453 . S
C365 C378 1.684 . S
H366 C390 0.948 . S
C367 C363 1.397 . S
C367 C368 1.394 . S
C367 C386 1.723 . S
C368 C365 1.396 . S
C368 C367 1.394 . S
C368 C398 1.723 . S
H369 C392 0.947 . S
H370 C393 0.948 . S
H371 C399 0.982 . S
H372 C400 0.979 . S
H373 C400 0.980 . S
H374 C400 0.983 . S
H375 C399 0.979 . S
H376 C399 0.977 . S
C377 C365 1.453 . S
C377 H406 0.982 . S
C377 H407 0.979 . S
C377 H408 0.977 . S
C378 C365 1.684 . S
C378 H403 0.979 . S
C378 H404 0.980 . S
C378 H405 0.983 . S
C379 C380 1.391 . S
C379 C384 1.391 . S
C379 H409 0.948 . S
C380 C379 1.391 . S
C380 C381 1.391 . S
C381 C380 1.391 . S
C381 C382 1.392 . S
C381 H410 0.947 . S
C382 C381 1.392 . S
C382 C383 1.419 . S
C382 H411 0.948 . S
C383 C382 1.419 . S
C383 C384 1.391 . S
C383 C387 1.397 . S
C384 C379 1.391 . S
C384 C383 1.391 . S
C384 C385 1.399 . S
C385 C384 1.399 . S
C385 C386 1.396 . S
C385 C388 1.453 . S
C385 C389 1.684 . S
C386 C367 1.723 . S
C386 C385 1.396 . S
C386 C387 1.394 . S
C387 C383 1.397 . S
C387 C386 1.394 . S
C387 C397 1.723 . S
C388 C385 1.453 . S
C388 H412 0.982 . S
C388 H413 0.979 . S
C388 H414 0.977 . S
C389 C385 1.684 . S
C389 H415 0.979 . S
C389 H416 0.980 . S
C389 H417 0.983 . S
C390 H366 0.948 . S
C390 C391 1.391 . S
C390 C395 1.391 . S
C391 C390 1.391 . S
C391 C392 1.391 . S
C392 H369 0.947 . S
C392 C391 1.391 . S
C392 C393 1.392 . S
C393 H370 0.948 . S
C393 C392 1.392 . S
C393 C394 1.419 . S
C394 C393 1.419 . S
C394 C395 1.391 . S
C394 C398 1.397 . S
C395 C390 1.391 . S
C395 C394 1.391 . S
C395 C396 1.399 . S
C396 C395 1.399 . S
C396 C397 1.396 . S
C396 C399 1.453 . S
C396 C400 1.684 . S
C397 C387 1.723 . S
C397 C396 1.396 . S
C397 C398 1.394 . S
C398 C368 1.723 . S
C398 C394 1.397 . S
C398 C397 1.394 . S
C399 H371 0.982 . S
C399 H375 0.979 . S
C399 H376 0.977 . S
C399 C396 1.453 . S
C400 H372 0.979 . S
C400 H373 0.980 . S
C400 H374 0.983 . S
C400 C396 1.684 . S
H401 C419 0.948 . S
H402 C360 0.948 . S
H403 C378 0.979 . S
H404 C378 0.980 . S
H405 C378 0.983 . S
H406 C377 0.982 . S
H407 C377 0.979 . S
H408 C377 0.977 . S
H409 C379 0.948 . S
H410 C381 0.947 . S
H411 C382 0.948 . S
H412 C388 0.982 . S
H413 C388 0.979 . S
H414 C388 0.977 . S
H415 C389 0.979 . S
H416 C389 0.980 . S
H417 C389 0.983 . S
H418 C362 0.947 . S
C419 C362 1.392 . S
C419 C363 1.419 . S
C419 H401 0.948 . S
C420 C421 1.391 . S
C420 C424 1.391 . S
C420 H462 0.948 . S
C421 C420 1.391 . S
C421 C422 1.391 . S
C422 C421 1.391 . S
C422 H478 0.947 . S
C422 C479 1.392 . S
C423 C424 1.391 . S
C423 C427 1.397 . S
C423 C479 1.419 . S
C424 C420 1.391 . S
C424 C423 1.391 . S
C424 C425 1.399 . S
C425 C424 1.399 . S
C425 C428 1.396 . S
C425 C437 1.453 . S
C425 C438 1.684 . S
H426 C450 0.948 . S
C427 C423 1.397 . S
C427 C428 1.394 . S
C427 C446 1.723 . S
C428 C425 1.396 . S
C428 C427 1.394 . S
C428 C458 1.723 . S
H429 C452 0.947 . S
H430 C453 0.948 . S
H431 C459 0.982 . S
H432 C460 0.979 . S
H433 C460 0.980 . S
H434 C460 0.983 . S
H435 C459 0.979 . S
H436 C459 0.977 . S
C437 C425 1.453 . S
C437 H466 0.982 . S
C437 H467 0.979 . S
C437 H468 0.977 . S
C438 C425 1.684 . S
C438 H463 0.979 . S
C438 H464 0.980 . S
C438 H465 0.983 . S
C439 C440 1.391 . S
C439 C444 1.391 . S
C439 H469 0.948 . S
C440 C439 1.391 . S
C440 C441 1.391 . S
C441 C440 1.391 . S
C441 C442 1.392 . S
C441 H470 0.947 . S
C442 C441 1.392 . S
C442 C443 1.419 . S
C442 H471 0.948 . S
C443 C442 1.419 . S
C443 C444 1.391 . S
C443 C447 1.397 . S
C444 C439 1.391 . S
C444 C443 1.391 . S
C444 C445 1.399 . S
C445 C444 1.399 . S
C445 C446 1.396 . S
C445 C448 1.453 . S
C445 C449 1.684 . S
C446 C427 1.723 . S
C446 C445 1.396 . S
C446 C447 1.394 . S
C447 C443 1.397 . S
C447 C446 1.394 . S
C447 C457 1.723 . S
C448 C445 1.453 . S
C448 H472 0.982 . S
C448 H473 0.979 . S
C448 H474 0.977 . S
C449 C445 1.684 . S
C449 H475 0.979 . S
C449 H476 0.980 . S
C449 H477 0.983 . S
C450 H426 0.948 . S
C450 C451 1.391 . S
C450 C455 1.391 . S
C451 C450 1.391 . S
C451 C452 1.391 . S
C452 H429 0.947 . S
C452 C451 1.391 . S
C452 C453 1.392 . S
C453 H430 0.948 . S
C453 C452 1.392 . S
C453 C454 1.419 . S
C454 C453 1.419 . S
C454 C455 1.391 . S
C454 C458 1.397 . S
C455 C450 1.391 . S
C455 C454 1.391 . S
C455 C456 1.399 . S
C456 C455 1.399 . S
C456 C457 1.396 . S
C456 C459 1.453 . S
C456 C460 1.684 . S
C457 C447 1.723 . S
C457 C456 1.396 . S
C457 C458 1.394 . S
C458 C428 1.723 . S
C458 C454 1.397 . S
C458 C457 1.394 . S
C459 H431 0.982 . S
C459 H435 0.979 . S
C459 H436 0.977 . S
C459 C456 1.453 . S
C460 H432 0.979 . S
C460 H433 0.980 . S
C460 H434 0.983 . S
C460 C456 1.684 . S
H461 C479 0.948 . S
H462 C420 0.948 . S
H463 C438 0.979 . S
H464 C438 0.980 . S
H465 C438 0.983 . S
H466 C437 0.982 . S
H467 C437 0.979 . S
H468 C437 0.977 . S
H469 C439 0.948 . S
H470 C441 0.947 . S
H471 C442 0.948 . S
H472 C448 0.982 . S
H473 C448 0.979 . S
H474 C448 0.977 . S
H475 C449 0.979 . S
H476 C449 0.980 . S
H477 C449 0.983 . S
H478 C422 0.947 . S
C479 C422 1.392 . S
C479 C423 1.419 . S
C479 H461 0.948 . S
C480 C481 1.443 . S
C480 N484 1.376 . S
C480 C518 1.389 . S
C481 C480 1.443 . S
C481 C482 1.340 . S
C481 H521 0.951 . S
C482 C481 1.340 . S
C482 C483 1.439 . S
C482 H522 0.950 . S
C483 C482 1.439 . S
C483 N484 1.374 . S
C483 C517 1.395 . S
N484 C480 1.376 . S
N484 C483 1.374 . S
N484 Co485 2.008 . S
Co485 N484 2.008 . S
Co485 N486 1.995 1_455 S
Co485 N491 2.008 . S
Co485 N496 1.995 . S
Co485 N501 2.282 . S
Co485 N507 2.282 1_455 S
N486 Co485 1.995 1_655 S
N486 C487 1.376 . S
N486 C490 1.383 . S
C487 N486 1.376 . S
C487 C488 1.446 . S
C487 C517 1.391 1_655 S
C488 C487 1.446 . S
C488 C489 1.339 . S
C488 H523 0.949 . S
C489 C488 1.339 . S
C489 C490 1.439 . S
C489 H524 0.950 . S
C490 N486 1.383 . S
C490 C489 1.439 . S
C490 C519 1.392 . S
N491 Co485 2.008 . S
N491 C492 1.376 1_455 S
N491 C495 1.374 . S
C492 N491 1.376 1_655 S
C492 C493 1.443 . S
C492 C519 1.389 . S
C493 C492 1.443 . S
C493 C494 1.340 . S
C493 H525 0.951 . S
C494 C493 1.340 . S
C494 C495 1.439 1_655 S
C494 H526 0.950 . S
C495 N491 1.374 . S
C495 C494 1.439 1_455 S
C495 C520 1.395 . S
N496 Co485 1.995 . S
N496 C497 1.376 . S
N496 C500 1.383 . S
C497 N496 1.376 . S
C497 C498 1.446 . S
C497 C520 1.391 . S
C498 C497 1.446 . S
C498 C499 1.339 . S
C498 H527 0.949 . S
C499 C498 1.339 . S
C499 C500 1.439 . S
C499 H528 0.950 . S
C500 N496 1.383 . S
C500 C499 1.439 . S
C500 C518 1.392 . S
N501 Co485 2.282 . S
N501 C504 1.332 . S
N501 C506 1.332 . S
C502 C503 1.386 . S
C502 C505 1.388 . S
C503 C502 1.386 . S
C503 C504 1.382 . S
C503 H529 0.950 . S
C504 N501 1.332 . S
C504 C503 1.382 . S
C504 H515 0.952 . S
C505 C502 1.388 . S
C505 C506 1.382 . S
C505 H530 0.950 . S
C506 N501 1.332 . S
C506 C505 1.382 . S
C506 H516 0.948 . S
N507 Co485 2.282 1_655 S
N507 C511 1.332 . S
N507 C512 1.332 . S
C508 C509 1.388 . S
C508 C512 1.382 . S
C508 H531 0.950 . S
C509 C508 1.388 . S
C509 C510 1.386 . S
C510 C509 1.386 . S
C510 C511 1.382 . S
C510 H532 0.950 . S
C511 N507 1.332 . S
C511 C510 1.382 . S
C511 H513 0.952 . S
C512 N507 1.332 . S
C512 C508 1.382 . S
C512 H514 0.948 . S
H513 C511 0.952 . S
H514 C512 0.948 . S
H515 C504 0.952 . S
H516 C506 0.948 . S
C517 C483 1.395 . S
C517 C487 1.391 1_455 S
C518 C480 1.389 . S
C518 C500 1.392 . S
C519 C490 1.392 . S
C519 C492 1.389 . S
C520 C495 1.395 . S
C520 C497 1.391 . S
H521 C481 0.951 . S
H522 C482 0.950 . S
H523 C488 0.949 . S
H524 C489 0.950 . S
H525 C493 0.951 . S
H526 C494 0.950 . S
H527 C498 0.949 . S
H528 C499 0.950 . S
H529 C503 0.950 . S
H530 C505 0.950 . S
H531 C508 0.950 . S
H532 C510 0.950 . S
C533 C534 1.443 . S
C533 N537 1.376 . S
C533 C571 1.389 . S
C534 C533 1.443 . S
C534 C535 1.340 . S
C534 H574 0.951 . S
C535 C534 1.340 . S
C535 C536 1.439 . S
C535 H575 0.950 . S
C536 C535 1.439 . S
C536 N537 1.374 . S
C536 C570 1.395 . S
N537 C533 1.376 . S
N537 C536 1.374 . S
N537 Co538 2.008 . S
Co538 N537 2.008 . S
Co538 N539 1.995 1_455 S
Co538 N544 2.008 1_455 S
Co538 N549 1.995 . S
Co538 N554 2.282 . S
Co538 N560 2.282 1_455 S
N539 Co538 1.995 1_655 S
N539 C540 1.376 . S
N539 C543 1.383 . S
C540 N539 1.376 . S
C540 C541 1.446 . S
C540 C570 1.391 1_655 S
C541 C540 1.446 . S
C541 C542 1.339 . S
C541 H576 0.949 . S
C542 C541 1.339 . S
C542 C543 1.439 . S
C542 H577 0.950 . S
C543 N539 1.383 . S
C543 C542 1.439 . S
C543 C572 1.392 . S
N544 Co538 2.008 1_655 S
N544 C545 1.376 . S
N544 C548 1.374 1_655 S
C545 N544 1.376 . S
C545 C546 1.443 . S
C545 C572 1.389 . S
C546 C545 1.443 . S
C546 C547 1.340 . S
C546 H578 0.951 . S
C547 C546 1.340 . S
C547 C548 1.439 1_655 S
C547 H579 0.950 . S
C548 N544 1.374 1_455 S
C548 C547 1.439 1_455 S
C548 C573 1.395 . S
N549 Co538 1.995 . S
N549 C550 1.376 . S
N549 C553 1.383 . S
C550 N549 1.376 . S
C550 C551 1.446 . S
C550 C573 1.391 . S
C551 C550 1.446 . S
C551 C552 1.339 . S
C551 H580 0.949 . S
C552 C551 1.339 . S
C552 C553 1.439 . S
C552 H581 0.950 . S
C553 N549 1.383 . S
C553 C552 1.439 . S
C553 C571 1.392 . S
N554 Co538 2.282 . S
N554 C557 1.332 . S
N554 C559 1.332 . S
C555 C556 1.386 . S
C555 C558 1.388 . S
C556 C555 1.386 . S
C556 C557 1.382 . S
C556 H582 0.950 . S
C557 N554 1.332 . S
C557 C556 1.382 . S
C557 H568 0.952 . S
C558 C555 1.388 . S
C558 C559 1.382 . S
C558 H583 0.950 . S
C559 N554 1.332 . S
C559 C558 1.382 . S
C559 H569 0.948 . S
N560 Co538 2.282 1_655 S
N560 C564 1.332 . S
N560 C565 1.332 . S
C561 C562 1.388 . S
C561 C565 1.382 . S
C561 H584 0.950 . S
C562 C561 1.388 . S
C562 C563 1.386 . S
C563 C562 1.386 . S
C563 C564 1.382 . S
C563 H585 0.950 . S
C564 N560 1.332 . S
C564 C563 1.382 . S
C564 H566 0.952 . S
C565 N560 1.332 . S
C565 C561 1.382 . S
C565 H567 0.948 . S
H566 C564 0.952 . S
H567 C565 0.948 . S
H568 C557 0.952 . S
H569 C559 0.948 . S
C570 C536 1.395 . S
C570 C540 1.391 1_455 S
C571 C533 1.389 . S
C571 C553 1.392 . S
C572 C543 1.392 . S
C572 C545 1.389 . S
C573 C548 1.395 . S
C573 C550 1.391 . S
H574 C534 0.951 . S
H575 C535 0.950 . S
H576 C541 0.949 . S
H577 C542 0.950 . S
H578 C546 0.951 . S
H579 C547 0.950 . S
H580 C551 0.949 . S
H581 C552 0.950 . S
H582 C556 0.950 . S
H583 C558 0.950 . S
H584 C561 0.950 . S
H585 C563 0.950 . S
C586 C587 1.443 . S
C586 N590 1.376 . S
C586 C624 1.389 . S
C587 C586 1.443 . S
C587 C588 1.340 . S
C587 H627 0.951 . S
C588 C587 1.340 . S
C588 C589 1.439 . S
C588 H628 0.950 . S
C589 C588 1.439 . S
C589 N590 1.374 . S
C589 C623 1.395 1_565 S
N590 C586 1.376 . S
N590 C589 1.374 . S
N590 Co591 2.008 1_565 S
Co591 N590 2.008 1_545 S
Co591 N592 1.995 . S
Co591 N597 2.008 . S
Co591 N602 1.995 1_545 S
Co591 N607 2.282 . S
Co591 N613 2.282 1_545 S
N592 Co591 1.995 . S
N592 C593 1.376 . S
N592 C596 1.383 . S
C593 N592 1.376 . S
C593 C594 1.446 . S
C593 C623 1.391 . S
C594 C593 1.446 . S
C594 C595 1.339 . S
C594 H629 0.949 . S
C595 C594 1.339 . S
C595 C596 1.439 . S
C595 H630 0.950 . S
C596 N592 1.383 . S
C596 C595 1.439 . S
C596 C625 1.392 . S
N597 Co591 2.008 . S
N597 C598 1.376 . S
N597 C601 1.374 . S
C598 N597 1.376 . S
C598 C599 1.443 . S
C598 C625 1.389 . S
C599 C598 1.443 . S
C599 C600 1.340 . S
C599 H631 0.951 . S
C600 C599 1.340 . S
C600 C601 1.439 . S
C600 H632 0.950 . S
C601 N597 1.374 . S
C601 C600 1.439 . S
C601 C626 1.395 . S
N602 Co591 1.995 1_565 S
N602 C603 1.376 . S
N602 C606 1.383 . S
C603 N602 1.376 . S
C603 C604 1.446 . S
C603 C626 1.391 1_565 S
C604 C603 1.446 . S
C604 C605 1.339 . S
C604 H633 0.949 . S
C605 C604 1.339 . S
C605 C606 1.439 . S
C605 H634 0.950 . S
C606 N602 1.383 . S
C606 C605 1.439 . S
C606 C624 1.392 . S
N607 Co591 2.282 . S
N607 C610 1.332 . S
N607 C612 1.332 . S
C608 C609 1.386 . S
C608 C611 1.388 . S
C609 C608 1.386 . S
C609 C610 1.382 . S
C609 H635 0.950 . S
C610 N607 1.332 . S
C610 C609 1.382 . S
C610 H621 0.952 . S
C611 C608 1.388 . S
C611 C612 1.382 . S
C611 H636 0.950 . S
C612 N607 1.332 . S
C612 C611 1.382 . S
C612 H622 0.948 . S
N613 Co591 2.282 1_565 S
N613 C617 1.332 . S
N613 C618 1.332 . S
C614 C615 1.388 . S
C614 C618 1.382 . S
C614 H637 0.950 . S
C615 C614 1.388 . S
C615 C616 1.386 . S
C616 C615 1.386 . S
C616 C617 1.382 . S
C616 H638 0.950 . S
C617 N613 1.332 . S
C617 C616 1.382 . S
C617 H619 0.952 . S
C618 N613 1.332 . S
C618 C614 1.382 . S
C618 H620 0.948 . S
H619 C617 0.952 . S
H620 C618 0.948 . S
H621 C610 0.952 . S
H622 C612 0.948 . S
C623 C589 1.395 1_545 S
C623 C593 1.391 . S
C624 C586 1.389 . S
C624 C606 1.392 . S
C625 C596 1.392 . S
C625 C598 1.389 . S
C626 C601 1.395 . S
C626 C603 1.391 1_545 S
H627 C587 0.951 . S
H628 C588 0.950 . S
H629 C594 0.949 . S
H630 C595 0.950 . S
H631 C599 0.951 . S
H632 C600 0.950 . S
H633 C604 0.949 . S
H634 C605 0.950 . S
H635 C609 0.950 . S
H636 C611 0.950 . S
H637 C614 0.950 . S
H638 C616 0.950 . S
C639 C640 1.443 . S
C639 N643 1.376 . S
C639 C677 1.389 . S
C640 C639 1.443 . S
C640 C641 1.340 . S
C640 H680 0.951 . S
C641 C640 1.340 . S
C641 C642 1.439 . S
C641 H681 0.950 . S
C642 C641 1.439 . S
C642 N643 1.374 . S
C642 C676 1.395 . S
N643 C639 1.376 . S
N643 C642 1.374 . S
N643 Co644 2.008 . S
Co644 N643 2.008 . S
Co644 N645 1.997 . S
Co644 N650 2.008 1_554 S
Co644 N655 1.995 . S
Co644 N660 2.282 1_554 S
Co644 N666 2.282 . S
N645 Co644 1.997 . S
N645 C646 1.377 . S
N645 C649 1.379 1_554 S
C646 N645 1.377 . S
C646 C647 1.446 1_554 S
C646 C676 1.391 . S
C647 C646 1.446 1_556 S
C647 C648 1.339 . S
C647 H682 0.949 . S
C648 C647 1.339 . S
C648 C649 1.439 . S
C648 H683 0.950 . S
C649 N645 1.379 1_556 S
C649 C648 1.439 . S
C649 C678 1.392 . S
N650 Co644 2.008 1_556 S
N650 C651 1.376 . S
N650 C654 1.374 . S
C651 N650 1.376 . S
C651 C652 1.443 . S
C651 C678 1.389 . S
C652 C651 1.443 . S
C652 C653 1.340 . S
C652 H684 0.951 . S
C653 C652 1.340 . S
C653 C654 1.444 . S
C653 H685 0.950 . S
C654 N650 1.374 . S
C654 C653 1.444 . S
C654 C679 1.391 1_556 S
N655 Co644 1.995 . S
N655 C656 1.376 . S
N655 C659 1.383 . S
C656 N655 1.376 . S
C656 C657 1.446 . S
C656 C679 1.391 . S
C657 C656 1.446 . S
C657 C658 1.339 . S
C657 H686 0.949 . S
C658 C657 1.339 . S
C658 C659 1.439 . S
C658 H687 0.950 . S
C659 N655 1.383 . S
C659 C658 1.439 . S
C659 C677 1.392 . S
N660 Co644 2.282 1_556 S
N660 C663 1.332 . S
N660 C665 1.332 . S
C661 C662 1.386 . S
C661 C664 1.388 . S
C662 C661 1.386 . S
C662 C663 1.382 . S
C662 H688 0.950 . S
C663 N660 1.332 . S
C663 C662 1.382 . S
C663 H674 0.952 . S
C664 C661 1.388 . S
C664 C665 1.382 . S
C664 H689 0.950 . S
C665 N660 1.332 . S
C665 C664 1.382 . S
C665 H675 0.948 . S
N666 Co644 2.282 . S
N666 C670 1.332 . S
N666 C671 1.332 . S
C667 C668 1.388 . S
C667 C671 1.382 . S
C667 H690 0.950 . S
C668 C667 1.388 . S
C668 C669 1.386 . S
C669 C668 1.386 . S
C669 C670 1.382 . S
C669 H691 0.950 . S
C670 N666 1.332 . S
C670 C669 1.382 . S
C670 H672 0.952 . S
C671 N666 1.332 . S
C671 C667 1.382 . S
C671 H673 0.948 . S
H672 C670 0.952 . S
H673 C671 0.948 . S
H674 C663 0.952 . S
H675 C665 0.948 . S
C676 C642 1.395 . S
C676 C646 1.391 . S
C677 C639 1.389 . S
C677 C659 1.392 . S
C678 C649 1.392 . S
C678 C651 1.389 . S
C679 C654 1.391 1_554 S
C679 C656 1.391 . S
H680 C640 0.951 . S
H681 C641 0.950 . S
H682 C647 0.949 . S
H683 C648 0.950 . S
H684 C652 0.951 . S
H685 C653 0.950 . S
H686 C657 0.949 . S
H687 C658 0.950 . S
H688 C662 0.950 . S
H689 C664 0.950 . S
H690 C667 0.950 . S
H691 C669 0.950 . S
C692 C693 1.443 . S
C692 N696 1.376 1_565 S
C692 C730 1.389 . S
C693 C692 1.443 . S
C693 C694 1.340 . S
C693 H733 0.951 . S
C694 C693 1.340 . S
C694 C695 1.439 1_565 S
C694 H734 0.950 . S
C695 C694 1.439 1_545 S
C695 N696 1.374 . S
C695 C729 1.395 . S
N696 C692 1.376 1_545 S
N696 C695 1.374 . S
N696 Co697 2.008 . S
Co697 N696 2.008 . S
Co697 N698 1.995 . S
Co697 N703 2.008 . S
Co697 N708 1.995 . S
Co697 N713 2.282 . S
Co697 N719 2.282 1_545 S
N698 Co697 1.995 . S
N698 C699 1.376 . S
N698 C702 1.383 . S
C699 N698 1.376 . S
C699 C700 1.446 . S
C699 C729 1.391 . S
C700 C699 1.446 . S
C700 C701 1.339 . S
C700 H735 0.949 . S
C701 C700 1.339 . S
C701 C702 1.439 . S
C701 H736 0.950 . S
C702 N698 1.383 . S
C702 C701 1.439 . S
C702 C731 1.392 . S
N703 Co697 2.008 . S
N703 C704 1.376 . S
N703 C707 1.374 . S
C704 N703 1.376 . S
C704 C705 1.443 . S
C704 C731 1.389 . S
C705 C704 1.443 . S
C705 C706 1.340 . S
C705 H737 0.951 . S
C706 C705 1.340 . S
C706 C707 1.439 . S
C706 H738 0.950 . S
C707 N703 1.374 . S
C707 C706 1.439 . S
C707 C732 1.395 . S
N708 Co697 1.995 . S
N708 C709 1.376 . S
N708 C712 1.383 1_545 S
C709 N708 1.376 . S
C709 C710 1.446 1_545 S
C709 C732 1.391 . S
C710 C709 1.446 1_565 S
C710 C711 1.339 . S
C710 H739 0.949 . S
C711 C710 1.339 . S
C711 C712 1.439 . S
C711 H740 0.950 . S
C712 N708 1.383 1_565 S
C712 C711 1.439 . S
C712 C730 1.392 . S
N713 Co697 2.282 . S
N713 C716 1.332 . S
N713 C718 1.332 . S
C714 C715 1.386 . S
C714 C717 1.388 . S
C715 C714 1.386 . S
C715 C716 1.382 . S
C715 H741 0.950 . S
C716 N713 1.332 . S
C716 C715 1.382 . S
C716 H727 0.952 . S
C717 C714 1.388 . S
C717 C718 1.382 . S
C717 H742 0.950 . S
C718 N713 1.332 . S
C718 C717 1.382 . S
C718 H728 0.948 . S
N719 Co697 2.282 1_565 S
N719 C723 1.332 . S
N719 C724 1.332 . S
C720 C721 1.388 . S
C720 C724 1.382 . S
C720 H743 0.950 . S
C721 C720 1.388 . S
C721 C722 1.386 . S
C722 C721 1.386 . S
C722 C723 1.382 . S
C722 H744 0.950 . S
C723 N719 1.332 . S
C723 C722 1.382 . S
C723 H725 0.952 . S
C724 N719 1.332 . S
C724 C720 1.382 . S
C724 H726 0.948 . S
H725 C723 0.952 . S
H726 C724 0.948 . S
H727 C716 0.952 . S
H728 C718 0.948 . S
C729 C695 1.395 . S
C729 C699 1.391 . S
C730 C692 1.389 . S
C730 C712 1.392 . S
C731 C702 1.392 . S
C731 C704 1.389 . S
C732 C707 1.395 . S
C732 C709 1.391 . S
H733 C693 0.951 . S
H734 C694 0.950 . S
H735 C700 0.949 . S
H736 C701 0.950 . S
H737 C705 0.951 . S
H738 C706 0.950 . S
H739 C710 0.949 . S
H740 C711 0.950 . S
H741 C715 0.950 . S
H742 C717 0.950 . S
H743 C720 0.950 . S
H744 C722 0.950 . S
C745 C746 1.443 . S
C745 N749 1.376 . S
C745 C783 1.389 . S
C746 C745 1.443 . S
C746 C747 1.340 . S
C746 H786 0.951 . S
C747 C746 1.340 . S
C747 C748 1.439 . S
C747 H787 0.950 . S
C748 C747 1.439 . S
C748 N749 1.374 . S
C748 C782 1.395 . S
N749 C745 1.376 . S
N749 C748 1.374 . S
N749 Co750 2.008 . S
Co750 N749 2.008 . S
Co750 N751 1.995 . S
Co750 N756 2.008 . S
Co750 N761 1.995 . S
Co750 N766 2.295 . S
Co750 N772 2.282 . S
N751 Co750 1.995 . S
N751 C752 1.376 . S
N751 C755 1.383 1_554 S
C752 N751 1.376 . S
C752 C753 1.446 1_554 S
C752 C782 1.391 . S
C753 C752 1.446 1_556 S
C753 C754 1.339 . S
C753 H788 0.949 . S
C754 C753 1.339 . S
C754 C755 1.439 . S
C754 H789 0.950 . S
C755 N751 1.383 1_556 S
C755 C754 1.439 . S
C755 C784 1.392 . S
N756 Co750 2.008 . S
N756 C757 1.376 1_554 S
N756 C760 1.374 . S
C757 N756 1.376 1_556 S
C757 C758 1.443 . S
C757 C784 1.389 . S
C758 C757 1.443 . S
C758 C759 1.340 . S
C758 H790 0.951 . S
C759 C758 1.340 . S
C759 C760 1.439 1_556 S
C759 H791 0.950 . S
C760 N756 1.374 . S
C760 C759 1.439 1_554 S
C760 C785 1.395 . S
N761 Co750 1.995 . S
N761 C762 1.376 . S
N761 C765 1.383 . S
C762 N761 1.376 . S
C762 C763 1.446 . S
C762 C785 1.391 . S
C763 C762 1.446 . S
C763 C764 1.339 . S
C763 H792 0.949 . S
C764 C763 1.339 . S
C764 C765 1.439 . S
C764 H793 0.950 . S
C765 N761 1.383 . S
C765 C764 1.439 . S
C765 C783 1.392 . S
N766 Co750 2.295 . S
N766 C769 1.327 1_554 S
N766 C771 1.323 1_554 S
C767 C768 1.386 . S
C767 C770 1.388 . S
C768 C767 1.386 . S
C768 C769 1.382 . S
C768 H794 0.950 . S
C769 N766 1.327 1_556 S
C769 C768 1.382 . S
C769 H780 0.952 1_556 S
C770 C767 1.388 . S
C770 C771 1.382 . S
C770 H795 0.950 . S
C771 N766 1.323 1_556 S
C771 C770 1.382 . S
C771 H781 0.948 . S
N772 Co750 2.282 . S
N772 C776 1.332 . S
N772 C777 1.332 . S
C773 C774 1.388 . S
C773 C777 1.382 . S
C773 H796 0.950 . S
C774 C773 1.388 . S
C774 C775 1.386 . S
C775 C774 1.386 . S
C775 C776 1.382 . S
C775 H797 0.950 . S
C776 N772 1.332 . S
C776 C775 1.382 . S
C776 H778 0.952 . S
C777 N772 1.332 . S
C777 C773 1.382 . S
C777 H779 0.948 . S
H778 C776 0.952 . S
H779 C777 0.948 . S
H780 C769 0.952 1_554 S
H781 C771 0.948 . S
C782 C748 1.395 . S
C782 C752 1.391 . S
C783 C745 1.389 . S
C783 C765 1.392 . S
C784 C755 1.392 . S
C784 C757 1.389 . S
C785 C760 1.395 . S
C785 C762 1.391 . S
H786 C746 0.951 . S
H787 C747 0.950 . S
H788 C753 0.949 . S
H789 C754 0.950 . S
H790 C758 0.951 . S
H791 C759 0.950 . S
H792 C763 0.949 . S
H793 C764 0.950 . S
H794 C768 0.950 . S
H795 C770 0.950 . S
H796 C773 0.950 . S
H797 C775 0.950 . S
H798 C804 0.930 . S
H799 C808 0.930 . S
H800 C813 0.929 . S
H801 C811 0.929 . S
H802 C806 0.929 . S
H803 C812 0.929 . S
C804 H798 0.930 . S
C804 C805 1.367 . S
C804 C812 1.378 . S
C805 C804 1.367 . S
C805 C813 1.433 . S
C806 H802 0.929 . S
C806 C808 1.378 . S
C806 C810 1.350 . S
C807 C810 1.463 . S
C807 C812 1.350 . S
C807 N815 1.427 . S
C808 H799 0.930 . S
C808 C806 1.378 . S
C808 C809 1.367 . S
C809 C808 1.367 . S
C809 C811 1.433 . S
C810 C806 1.350 . S
C810 C807 1.463 . S
C810 N814 1.427 . S
C811 H801 0.929 . S
C811 C809 1.433 . S
C811 N814 1.384 . S
C812 H803 0.929 . S
C812 C804 1.378 . S
C812 C807 1.350 . S
C813 H800 0.929 . S
C813 C805 1.433 . S
C813 N815 1.384 . S
N814 C810 1.427 . S
N814 C811 1.384 . S
N815 C807 1.427 . S
N815 C813 1.384 . S
H816 C822 0.930 . S
H817 C826 0.930 . S
H818 C831 0.929 . S
H819 C829 0.929 . S
H820 C824 0.929 . S
H821 C830 0.929 . S
C822 H816 0.930 . S
C822 C823 1.367 . S
C822 C830 1.378 . S
C823 C822 1.367 . S
C823 C831 1.433 . S
C824 H820 0.929 . S
C824 C826 1.378 . S
C824 C828 1.350 . S
C825 C828 1.463 . S
C825 C830 1.350 . S
C825 N833 1.427 . S
C826 H817 0.930 . S
C826 C824 1.378 . S
C826 C827 1.367 . S
C827 C826 1.367 . S
C827 C829 1.433 . S
C828 C824 1.350 . S
C828 C825 1.463 . S
C828 N832 1.427 . S
C829 H819 0.929 . S
C829 C827 1.433 . S
C829 N832 1.384 . S
C830 H821 0.929 . S
C830 C822 1.378 . S
C830 C825 1.350 . S
C831 H818 0.929 . S
C831 C823 1.433 . S
C831 N833 1.384 . S
N832 C828 1.427 . S
N832 C829 1.384 . S
N833 C825 1.427 . S
N833 C831 1.384 . S
H834 C840 0.930 . S
H835 C844 0.930 . S
H836 C849 0.929 . S
H837 C847 0.929 . S
H838 C842 0.929 . S
H839 C848 0.929 . S
C840 H834 0.930 . S
C840 C841 1.367 . S
C840 C848 1.378 . S
C841 C840 1.367 . S
C841 C849 1.433 . S
C842 H838 0.929 . S
C842 C844 1.378 . S
C842 C846 1.350 . S
C843 C846 1.463 . S
C843 C848 1.350 . S
C843 N851 1.427 . S
C844 H835 0.930 . S
C844 C842 1.378 . S
C844 C845 1.367 . S
C845 C844 1.367 . S
C845 C847 1.433 . S
C846 C842 1.350 . S
C846 C843 1.463 . S
C846 N850 1.427 . S
C847 H837 0.929 . S
C847 C845 1.433 . S
C847 N850 1.384 . S
C848 H839 0.929 . S
C848 C840 1.378 . S
C848 C843 1.350 . S
C849 H836 0.929 . S
C849 C841 1.433 . S
C849 N851 1.384 . S
N850 C846 1.427 . S
N850 C847 1.384 . S
N851 C843 1.427 . S
N851 C849 1.384 . S
H852 C858 0.930 . S
H853 C862 0.930 . S
H854 C867 0.929 . S
H855 C865 0.929 . S
H856 C860 0.929 . S
H857 C866 0.929 . S
C858 H852 0.930 . S
C858 C859 1.367 . S
C858 C866 1.378 . S
C859 C858 1.367 . S
C859 C867 1.433 . S
C860 H856 0.929 . S
C860 C862 1.378 . S
C860 C864 1.350 . S
C861 C864 1.463 . S
C861 C866 1.350 . S
C861 N869 1.427 . S
C862 H853 0.930 . S
C862 C860 1.378 . S
C862 C863 1.367 . S
C863 C862 1.367 . S
C863 C865 1.433 . S
C864 C860 1.350 . S
C864 C861 1.463 . S
C864 N868 1.427 . S
C865 H855 0.929 . S
C865 C863 1.433 . S
C865 N868 1.384 . S
C866 H857 0.929 . S
C866 C858 1.378 . S
C866 C861 1.350 . S
C867 H854 0.929 . S
C867 C859 1.433 . S
C867 N869 1.384 . S
N868 C864 1.427 . S
N868 C865 1.384 . S
N869 C861 1.427 . S
N869 C867 1.384 . S
H870 C876 0.930 . S
H871 C880 0.930 . S
H872 C885 0.929 . S
H873 C883 0.929 . S
H874 C878 0.929 . S
H875 C884 0.929 . S
C876 H870 0.930 . S
C876 C877 1.367 . S
C876 C884 1.378 . S
C877 C876 1.367 . S
C877 C885 1.433 . S
C878 H874 0.929 . S
C878 C880 1.378 . S
C878 C882 1.350 . S
C879 C882 1.463 . S
C879 C884 1.350 . S
C879 N887 1.427 . S
C880 H871 0.930 . S
C880 C878 1.378 . S
C880 C881 1.367 . S
C881 C880 1.367 . S
C881 C883 1.433 . S
C882 C878 1.350 . S
C882 C879 1.463 . S
C882 N886 1.427 . S
C883 H873 0.929 . S
C883 C881 1.433 . S
C883 N886 1.384 . S
C884 H875 0.929 . S
C884 C876 1.378 . S
C884 C879 1.350 . S
C885 H872 0.929 . S
C885 C877 1.433 . S
C885 N887 1.384 . S
N886 C882 1.427 . S
N886 C883 1.384 . S
N887 C879 1.427 . S
N887 C885 1.384 . S
H888 C894 0.930 . S
H889 C898 0.930 . S
H890 C903 0.929 . S
H891 C901 0.929 . S
H892 C896 0.929 . S
H893 C902 0.929 . S
C894 H888 0.930 . S
C894 C895 1.367 . S
C894 C902 1.378 . S
C895 C894 1.367 . S
C895 C903 1.433 . S
C896 H892 0.929 . S
C896 C898 1.378 . S
C896 C900 1.350 . S
C897 C900 1.463 . S
C897 C902 1.350 . S
C897 N905 1.427 . S
C898 H889 0.930 . S
C898 C896 1.378 . S
C898 C899 1.367 . S
C899 C898 1.367 . S
C899 C901 1.433 . S
C900 C896 1.350 . S
C900 C897 1.463 . S
C900 N904 1.427 . S
C901 H891 0.929 . S
C901 C899 1.433 . S
C901 N904 1.384 . S
C902 H893 0.929 . S
C902 C894 1.378 . S
C902 C897 1.350 . S
C903 H890 0.929 . S
C903 C895 1.433 . S
C903 N905 1.384 . S
N904 C900 1.427 . S
N904 C901 1.384 . S
N905 C897 1.427 . S
N905 C903 1.384 . S
H906 C912 0.930 . S
H907 C916 0.930 . S
H908 C921 0.929 . S
H909 C919 0.929 . S
H910 C914 0.929 . S
H911 C920 0.929 . S
C912 H906 0.930 . S
C912 C913 1.367 . S
C912 C920 1.378 . S
C913 C912 1.367 . S
C913 C921 1.433 . S
C914 H910 0.929 . S
C914 C916 1.378 . S
C914 C918 1.350 . S
C915 C918 1.463 . S
C915 C920 1.350 . S
C915 N923 1.427 . S
C916 H907 0.930 . S
C916 C914 1.378 . S
C916 C917 1.367 . S
C917 C916 1.367 . S
C917 C919 1.433 . S
C918 C914 1.350 . S
C918 C915 1.463 . S
C918 N922 1.427 . S
C919 H909 0.929 . S
C919 C917 1.433 . S
C919 N922 1.384 . S
C920 H911 0.929 . S
C920 C912 1.378 . S
C920 C915 1.350 . S
C921 H908 0.929 . S
C921 C913 1.433 . S
C921 N923 1.384 . S
N922 C918 1.427 . S
N922 C919 1.384 . S
N923 C915 1.427 . S
N923 C921 1.384 . S
H924 C930 0.930 . S
H925 C934 0.930 . S
H926 C939 0.929 . S
H927 C937 0.929 . S
H928 C932 0.929 . S
H929 C938 0.929 . S
C930 H924 0.930 . S
C930 C931 1.367 . S
C930 C938 1.378 . S
C931 C930 1.367 . S
C931 C939 1.433 . S
C932 H928 0.929 . S
C932 C934 1.378 . S
C932 C936 1.350 . S
C933 C936 1.463 . S
C933 C938 1.350 . S
C933 N941 1.427 . S
C934 H925 0.930 . S
C934 C932 1.378 . S
C934 C935 1.367 . S
C935 C934 1.367 . S
C935 C937 1.433 . S
C936 C932 1.350 . S
C936 C933 1.463 . S
C936 N940 1.427 . S
C937 H927 0.929 . S
C937 C935 1.433 . S
C937 N940 1.384 . S
C938 H929 0.929 . S
C938 C930 1.378 . S
C938 C933 1.350 . S
C939 H926 0.929 . S
C939 C931 1.433 . S
C939 N941 1.384 . S
N940 C936 1.427 . S
N940 C937 1.384 . S
N941 C933 1.427 . S
N941 C939 1.384 . S
H942 C948 0.930 . S
H943 C952 0.930 . S
H944 C957 0.929 . S
H945 C955 0.929 . S
H946 C950 0.929 . S
H947 C956 0.929 . S
C948 H942 0.930 . S
C948 C949 1.367 . S
C948 C956 1.378 . S
C949 C948 1.367 . S
C949 C957 1.433 . S
C950 H946 0.929 . S
C950 C952 1.378 . S
C950 C954 1.350 . S
C951 C954 1.463 . S
C951 C956 1.350 . S
C951 N959 1.427 . S
C952 H943 0.930 . S
C952 C950 1.378 . S
C952 C953 1.367 . S
C953 C952 1.367 . S
C953 C955 1.433 . S
C954 C950 1.350 . S
C954 C951 1.463 . S
C954 N958 1.427 . S
C955 H945 0.929 . S
C955 C953 1.433 . S
C955 N958 1.384 . S
C956 H947 0.929 . S
C956 C948 1.378 . S
C956 C951 1.350 . S
C957 H944 0.929 . S
C957 C949 1.433 . S
C957 N959 1.384 . S
N958 C954 1.427 . S
N958 C955 1.384 . S
N959 C951 1.427 . S
N959 C957 1.384 . S
H960 C966 0.930 . S
H961 C970 0.930 . S
H962 C975 0.929 . S
H963 C973 0.929 . S
H964 C968 0.929 . S
H965 C974 0.929 . S
C966 H960 0.930 . S
C966 C967 1.367 . S
C966 C974 1.378 . S
C967 C966 1.367 . S
C967 C975 1.433 . S
C968 H964 0.929 . S
C968 C970 1.378 . S
C968 C972 1.350 . S
C969 C972 1.463 . S
C969 C974 1.350 . S
C969 N977 1.427 . S
C970 H961 0.930 . S
C970 C968 1.378 . S
C970 C971 1.367 . S
C971 C970 1.367 . S
C971 C973 1.433 . S
C972 C968 1.350 . S
C972 C969 1.463 . S
C972 N976 1.427 . S
C973 H963 0.929 . S
C973 C971 1.433 . S
C973 N976 1.384 . S
C974 H965 0.929 . S
C974 C966 1.378 . S
C974 C969 1.350 . S
C975 H962 0.929 . S
C975 C967 1.433 . S
C975 N977 1.384 . S
N976 C972 1.427 . S
N976 C973 1.384 . S
N977 C969 1.427 . S
N977 C975 1.384 . S
H978 C984 0.930 . S
H979 C988 0.930 . S
H980 C993 0.929 . S
H981 C991 0.929 . S
H982 C986 0.929 . S
H983 C992 0.929 . S
C984 H978 0.930 . S
C984 C985 1.367 . S
C984 C992 1.378 . S
C985 C984 1.367 . S
C985 C993 1.433 . S
C986 H982 0.929 . S
C986 C988 1.378 . S
C986 C990 1.350 . S
C987 C990 1.463 . S
C987 C992 1.350 . S
C987 N995 1.427 . S
C988 H979 0.930 . S
C988 C986 1.378 . S
C988 C989 1.367 . S
C989 C988 1.367 . S
C989 C991 1.433 . S
C990 C986 1.350 . S
C990 C987 1.463 . S
C990 N994 1.427 . S
C991 H981 0.929 . S
C991 C989 1.433 . S
C991 N994 1.384 . S
C992 H983 0.929 . S
C992 C984 1.378 . S
C992 C987 1.350 . S
C993 H980 0.929 . S
C993 C985 1.433 . S
C993 N995 1.384 . S
N994 C990 1.427 . S
N994 C991 1.384 . S
N995 C987 1.427 . S
N995 C993 1.384 . S
H996 C1002 0.930 . S
H997 C1006 0.930 . S
H998 C1011 0.929 . S
H999 C1009 0.929 . S
H1000 C1004 0.929 . S
H1001 C1010 0.929 . S
C1002 H996 0.930 . S
C1002 C1003 1.367 . S
C1002 C1010 1.378 . S
C1003 C1002 1.367 . S
C1003 C1011 1.433 . S
C1004 H1000 0.929 . S
C1004 C1006 1.378 . S
C1004 C1008 1.350 . S
C1005 C1008 1.463 . S
C1005 C1010 1.350 . S
C1005 N1013 1.427 . S
C1006 H997 0.930 . S
C1006 C1004 1.378 . S
C1006 C1007 1.367 . S
C1007 C1006 1.367 . S
C1007 C1009 1.433 . S
C1008 C1004 1.350 . S
C1008 C1005 1.463 . S
C1008 N1012 1.427 . S
C1009 H999 0.929 . S
C1009 C1007 1.433 . S
C1009 N1012 1.384 . S
C1010 H1001 0.929 . S
C1010 C1002 1.378 . S
C1010 C1005 1.350 . S
C1011 H998 0.929 . S
C1011 C1003 1.433 . S
C1011 N1013 1.384 . S
N1012 C1008 1.427 . S
N1012 C1009 1.384 . S
N1013 C1005 1.427 . S
N1013 C1011 1.384 . S
H1014 C1020 0.930 . S
H1015 C1024 0.930 . S
H1016 C1029 0.929 . S
H1017 C1027 0.929 . S
H1018 C1022 0.929 . S
H1019 C1028 0.929 . S
C1020 H1014 0.930 . S
C1020 C1021 1.367 . S
C1020 C1028 1.378 . S
C1021 C1020 1.367 . S
C1021 C1029 1.433 . S
C1022 H1018 0.929 . S
C1022 C1024 1.378 . S
C1022 C1026 1.350 . S
C1023 C1026 1.463 . S
C1023 C1028 1.350 . S
C1023 N1031 1.427 . S
C1024 H1015 0.930 . S
C1024 C1022 1.378 . S
C1024 C1025 1.367 . S
C1025 C1024 1.367 . S
C1025 C1027 1.433 . S
C1026 C1022 1.350 . S
C1026 C1023 1.463 . S
C1026 N1030 1.427 . S
C1027 H1017 0.929 . S
C1027 C1025 1.433 . S
C1027 N1030 1.384 . S
C1028 H1019 0.929 . S
C1028 C1020 1.378 . S
C1028 C1023 1.350 . S
C1029 H1016 0.929 . S
C1029 C1021 1.433 . S
C1029 N1031 1.384 . S
N1030 C1026 1.427 . S
N1030 C1027 1.384 . S
N1031 C1023 1.427 . S
N1031 C1029 1.384 . S
H1032 C1038 0.930 . S
H1033 C1042 0.930 . S
H1034 C1047 0.929 . S
H1035 C1045 0.929 . S
H1036 C1040 0.929 . S
H1037 C1046 0.929 . S
C1038 H1032 0.930 . S
C1038 C1039 1.367 . S
C1038 C1046 1.378 . S
C1039 C1038 1.367 . S
C1039 C1047 1.433 . S
C1040 H1036 0.929 . S
C1040 C1042 1.378 . S
C1040 C1044 1.350 . S
C1041 C1044 1.463 . S
C1041 C1046 1.350 . S
C1041 N1049 1.427 . S
C1042 H1033 0.930 . S
C1042 C1040 1.378 . S
C1042 C1043 1.367 . S
C1043 C1042 1.367 . S
C1043 C1045 1.433 . S
C1044 C1040 1.350 . S
C1044 C1041 1.463 . S
C1044 N1048 1.427 . S
C1045 H1035 0.929 . S
C1045 C1043 1.433 . S
C1045 N1048 1.384 . S
C1046 H1037 0.929 . S
C1046 C1038 1.378 . S
C1046 C1041 1.350 . S
C1047 H1034 0.929 . S
C1047 C1039 1.433 . S
C1047 N1049 1.384 . S
N1048 C1044 1.427 . S
N1048 C1045 1.384 . S
N1049 C1041 1.427 . S
N1049 C1047 1.384 . S
H1050 C1056 0.930 . S
H1051 C1060 0.930 . S
H1052 C1065 0.929 . S
H1053 C1063 0.929 . S
H1054 C1058 0.929 . S
H1055 C1064 0.929 . S
C1056 H1050 0.930 . S
C1056 C1057 1.367 . S
C1056 C1064 1.378 . S
C1057 C1056 1.367 . S
C1057 C1065 1.433 . S
C1058 H1054 0.929 . S
C1058 C1060 1.378 . S
C1058 C1062 1.350 . S
C1059 C1062 1.463 . S
C1059 C1064 1.350 . S
C1059 N1067 1.427 . S
C1060 H1051 0.930 . S
C1060 C1058 1.378 . S
C1060 C1061 1.367 . S
C1061 C1060 1.367 . S
C1061 C1063 1.433 . S
C1062 C1058 1.350 . S
C1062 C1059 1.463 . S
C1062 N1066 1.427 . S
C1063 H1053 0.929 . S
C1063 C1061 1.433 . S
C1063 N1066 1.384 . S
C1064 H1055 0.929 . S
C1064 C1056 1.378 . S
C1064 C1059 1.350 . S
C1065 H1052 0.929 . S
C1065 C1057 1.433 . S
C1065 N1067 1.384 . S
N1066 C1062 1.427 . S
N1066 C1063 1.384 . S
N1067 C1059 1.427 . S
N1067 C1065 1.384 . S
H1068 C1074 0.930 . S
H1069 C1078 0.930 . S
H1070 C1083 0.929 . S
H1071 C1081 0.929 . S
H1072 C1076 0.929 . S
H1073 C1082 0.929 . S
C1074 H1068 0.930 . S
C1074 C1075 1.367 . S
C1074 C1082 1.378 . S
C1075 C1074 1.367 . S
C1075 C1083 1.433 . S
C1076 H1072 0.929 . S
C1076 C1078 1.378 . S
C1076 C1080 1.350 . S
C1077 C1080 1.463 . S
C1077 C1082 1.350 . S
C1077 N1085 1.427 . S
C1078 H1069 0.930 . S
C1078 C1076 1.378 . S
C1078 C1079 1.367 . S
C1079 C1078 1.367 . S
C1079 C1081 1.433 . S
C1080 C1076 1.350 . S
C1080 C1077 1.463 . S
C1080 N1084 1.427 . S
C1081 H1071 0.929 . S
C1081 C1079 1.433 . S
C1081 N1084 1.384 . S
C1082 H1073 0.929 . S
C1082 C1074 1.378 . S
C1082 C1077 1.350 . S
C1083 H1070 0.929 . S
C1083 C1075 1.433 . S
C1083 N1085 1.384 . S
N1084 C1080 1.427 . S
N1084 C1081 1.384 . S
N1085 C1077 1.427 . S
N1085 C1083 1.384 . S
H1086 C1092 0.930 . S
H1087 C1096 0.930 . S
H1088 C1101 0.929 . S
H1089 C1099 0.929 . S
H1090 C1094 0.929 . S
H1091 C1100 0.929 . S
C1092 H1086 0.930 . S
C1092 C1093 1.367 . S
C1092 C1100 1.378 . S
C1093 C1092 1.367 . S
C1093 C1101 1.433 . S
C1094 H1090 0.929 . S
C1094 C1096 1.378 . S
C1094 C1098 1.350 . S
C1095 C1098 1.463 . S
C1095 C1100 1.350 . S
C1095 N1103 1.427 . S
C1096 H1087 0.930 . S
C1096 C1094 1.378 . S
C1096 C1097 1.367 . S
C1097 C1096 1.367 . S
C1097 C1099 1.433 . S
C1098 C1094 1.350 . S
C1098 C1095 1.463 . S
C1098 N1102 1.427 . S
C1099 H1089 0.929 . S
C1099 C1097 1.433 . S
C1099 N1102 1.384 . S
C1100 H1091 0.929 . S
C1100 C1092 1.378 . S
C1100 C1095 1.350 . S
C1101 H1088 0.929 . S
C1101 C1093 1.433 . S
C1101 N1103 1.384 . S
N1102 C1098 1.427 . S
N1102 C1099 1.384 . S
N1103 C1095 1.427 . S
N1103 C1101 1.384 . S
H1104 C1110 0.930 . S
H1105 C1114 0.930 . S
H1106 C1119 0.929 . S
H1107 C1117 0.929 . S
H1108 C1112 0.929 . S
H1109 C1118 0.929 . S
C1110 H1104 0.930 . S
C1110 C1111 1.367 . S
C1110 C1118 1.378 . S
C1111 C1110 1.367 . S
C1111 C1119 1.433 . S
C1112 H1108 0.929 . S
C1112 C1114 1.378 . S
C1112 C1116 1.350 . S
C1113 C1116 1.463 . S
C1113 C1118 1.350 . S
C1113 N1121 1.427 . S
C1114 H1105 0.930 . S
C1114 C1112 1.378 . S
C1114 C1115 1.367 . S
C1115 C1114 1.367 . S
C1115 C1117 1.433 . S
C1116 C1112 1.350 . S
C1116 C1113 1.463 . S
C1116 N1120 1.427 . S
C1117 H1107 0.929 . S
C1117 C1115 1.433 . S
C1117 N1120 1.384 . S
C1118 H1109 0.929 . S
C1118 C1110 1.378 . S
C1118 C1113 1.350 . S
C1119 H1106 0.929 . S
C1119 C1111 1.433 . S
C1119 N1121 1.384 . S
N1120 C1116 1.427 . S
N1120 C1117 1.384 . S
N1121 C1113 1.427 . S
N1121 C1119 1.384 . S
H1122 C1128 0.930 . S
H1123 C1132 0.930 . S
H1124 C1137 0.929 . S
H1125 C1135 0.929 . S
H1126 C1130 0.929 . S
H1127 C1136 0.929 . S
C1128 H1122 0.930 . S
C1128 C1129 1.367 . S
C1128 C1136 1.378 . S
C1129 C1128 1.367 . S
C1129 C1137 1.433 . S
C1130 H1126 0.929 . S
C1130 C1132 1.378 . S
C1130 C1134 1.350 . S
C1131 C1134 1.463 . S
C1131 C1136 1.350 . S
C1131 N1139 1.427 . S
C1132 H1123 0.930 . S
C1132 C1130 1.378 . S
C1132 C1133 1.367 . S
C1133 C1132 1.367 . S
C1133 C1135 1.433 . S
C1134 C1130 1.350 . S
C1134 C1131 1.463 . S
C1134 N1138 1.427 . S
C1135 H1125 0.929 . S
C1135 C1133 1.433 . S
C1135 N1138 1.384 . S
C1136 H1127 0.929 . S
C1136 C1128 1.378 . S
C1136 C1131 1.350 . S
C1137 H1124 0.929 . S
C1137 C1129 1.433 . S
C1137 N1139 1.384 . S
N1138 C1134 1.427 . S
N1138 C1135 1.384 . S
N1139 C1131 1.427 . S
N1139 C1137 1.384 . S
H1140 C1146 0.930 . S
H1141 C1150 0.930 . S
H1142 C1155 0.929 . S
H1143 C1153 0.929 . S
H1144 C1148 0.929 . S
H1145 C1154 0.929 . S
C1146 H1140 0.930 . S
C1146 C1147 1.367 . S
C1146 C1154 1.378 . S
C1147 C1146 1.367 . S
C1147 C1155 1.433 . S
C1148 H1144 0.929 . S
C1148 C1150 1.378 . S
C1148 C1152 1.350 . S
C1149 C1152 1.463 . S
C1149 C1154 1.350 . S
C1149 N1157 1.427 . S
C1150 H1141 0.930 . S
C1150 C1148 1.378 . S
C1150 C1151 1.367 . S
C1151 C1150 1.367 . S
C1151 C1153 1.433 . S
C1152 C1148 1.350 . S
C1152 C1149 1.463 . S
C1152 N1156 1.427 . S
C1153 H1143 0.929 . S
C1153 C1151 1.433 . S
C1153 N1156 1.384 . S
C1154 H1145 0.929 . S
C1154 C1146 1.378 . S
C1154 C1149 1.350 . S
C1155 H1142 0.929 . S
C1155 C1147 1.433 . S
C1155 N1157 1.384 . S
N1156 C1152 1.427 . S
N1156 C1153 1.384 . S
N1157 C1149 1.427 . S
N1157 C1155 1.384 . S
H1158 C1164 0.930 . S
H1159 C1168 0.930 . S
H1160 C1173 0.929 . S
H1161 C1171 0.929 . S
H1162 C1166 0.929 . S
H1163 C1172 0.929 . S
C1164 H1158 0.930 . S
C1164 C1165 1.367 . S
C1164 C1172 1.378 . S
C1165 C1164 1.367 . S
C1165 C1173 1.433 . S
C1166 H1162 0.929 . S
C1166 C1168 1.378 . S
C1166 C1170 1.350 . S
C1167 C1170 1.463 . S
C1167 C1172 1.350 . S
C1167 N1175 1.427 . S
C1168 H1159 0.930 . S
C1168 C1166 1.378 . S
C1168 C1169 1.367 . S
C1169 C1168 1.367 . S
C1169 C1171 1.433 . S
C1170 C1166 1.350 . S
C1170 C1167 1.463 . S
C1170 N1174 1.427 . S
C1171 H1161 0.929 . S
C1171 C1169 1.433 . S
C1171 N1174 1.384 . S
C1172 H1163 0.929 . S
C1172 C1164 1.378 . S
C1172 C1167 1.350 . S
C1173 H1160 0.929 . S
C1173 C1165 1.433 . S
C1173 N1175 1.384 . S
N1174 C1170 1.427 . S
N1174 C1171 1.384 . S
N1175 C1167 1.427 . S
N1175 C1173 1.384 . S
H1176 C1182 0.930 . S
H1177 C1186 0.930 . S
H1178 C1191 0.929 . S
H1179 C1189 0.929 . S
H1180 C1184 0.929 . S
H1181 C1190 0.929 . S
C1182 H1176 0.930 . S
C1182 C1183 1.367 . S
C1182 C1190 1.378 . S
C1183 C1182 1.367 . S
C1183 C1191 1.433 . S
C1184 H1180 0.929 . S
C1184 C1186 1.378 . S
C1184 C1188 1.350 . S
C1185 C1188 1.463 . S
C1185 C1190 1.350 . S
C1185 N1193 1.427 . S
C1186 H1177 0.930 . S
C1186 C1184 1.378 . S
C1186 C1187 1.367 . S
C1187 C1186 1.367 . S
C1187 C1189 1.433 . S
C1188 C1184 1.350 . S
C1188 C1185 1.463 . S
C1188 N1192 1.427 . S
C1189 H1179 0.929 . S
C1189 C1187 1.433 . S
C1189 N1192 1.384 . S
C1190 H1181 0.929 . S
C1190 C1182 1.378 . S
C1190 C1185 1.350 . S
C1191 H1178 0.929 . S
C1191 C1183 1.433 . S
C1191 N1193 1.384 . S
N1192 C1188 1.427 . S
N1192 C1189 1.384 . S
N1193 C1185 1.427 . S
N1193 C1191 1.384 . S
H1194 C1200 0.930 . S
H1195 C1204 0.930 . S
H1196 C1209 0.929 . S
H1197 C1207 0.929 . S
H1198 C1202 0.929 . S
H1199 C1208 0.929 . S
C1200 H1194 0.930 . S
C1200 C1201 1.367 . S
C1200 C1208 1.378 . S
C1201 C1200 1.367 . S
C1201 C1209 1.433 . S
C1202 H1198 0.929 . S
C1202 C1204 1.378 . S
C1202 C1206 1.350 . S
C1203 C1206 1.463 . S
C1203 C1208 1.350 . S
C1203 N1211 1.427 . S
C1204 H1195 0.930 . S
C1204 C1202 1.378 . S
C1204 C1205 1.367 . S
C1205 C1204 1.367 . S
C1205 C1207 1.433 . S
C1206 C1202 1.350 . S
C1206 C1203 1.463 . S
C1206 N1210 1.427 . S
C1207 H1197 0.929 . S
C1207 C1205 1.433 . S
C1207 N1210 1.384 . S
C1208 H1199 0.929 . S
C1208 C1200 1.378 . S
C1208 C1203 1.350 . S
C1209 H1196 0.929 . S
C1209 C1201 1.433 . S
C1209 N1211 1.384 . S
N1210 C1206 1.427 . S
N1210 C1207 1.384 . S
N1211 C1203 1.427 . S
N1211 C1209 1.384 . S
H1212 C1218 0.930 . S
H1213 C1222 0.930 . S
H1214 C1227 0.929 . S
H1215 C1225 0.929 . S
H1216 C1220 0.929 . S
H1217 C1226 0.929 . S
C1218 H1212 0.930 . S
C1218 C1219 1.367 . S
C1218 C1226 1.378 . S
C1219 C1218 1.367 . S
C1219 C1227 1.433 . S
C1220 H1216 0.929 . S
C1220 C1222 1.378 . S
C1220 C1224 1.350 . S
C1221 C1224 1.463 . S
C1221 C1226 1.350 . S
C1221 N1229 1.427 . S
C1222 H1213 0.930 . S
C1222 C1220 1.378 . S
C1222 C1223 1.367 . S
C1223 C1222 1.367 . S
C1223 C1225 1.433 . S
C1224 C1220 1.350 . S
C1224 C1221 1.463 . S
C1224 N1228 1.427 . S
C1225 H1215 0.929 . S
C1225 C1223 1.433 . S
C1225 N1228 1.384 . S
C1226 H1217 0.929 . S
C1226 C1218 1.378 . S
C1226 C1221 1.350 . S
C1227 H1214 0.929 . S
C1227 C1219 1.433 . S
C1227 N1229 1.384 . S
N1228 C1224 1.427 . S
N1228 C1225 1.384 . S
N1229 C1221 1.427 . S
N1229 C1227 1.384 . S
C809 C502 1.556 . S
C805 C31 1.536 . S
C827 C571 1.549 . S
C823 C61 1.532 . S
C845 C509 1.548 . S
C841 C121 1.540 . S
C863 C572 1.550 . S
C859 C211 1.524 . S
C881 C625 1.558 . S
C877 C1 1.543 . S
C899 C661 1.525 . S
C895 C91 1.506 . S
C913 C151 1.515 . S
C917 C721 1.552 . S
C935 C784 1.525 . S
C931 C181 1.495 . S
C953 C624 1.551 . S
C949 C80 1.538 . S
C967 C140 1.496 . S
C971 C668 1.526 . S
C989 C714 1.552 . S
C985 C200 1.512 . S
C1007 C783 1.530 . S
C1003 C20 1.512 . S
C1021 C271 1.529 . S
C1025 C562 1.554 . S
C1043 C519 1.544 . S
C1039 C331 1.516 . S
C1057 C380 1.546 . S
C1061 C555 1.549 . S
C1075 C421 1.532 . S
C1079 C518 1.550 . S
C1097 C730 1.555 . S
C1093 C241 1.547 . S
C1115 C774 1.525 . S
C1111 C320 1.492 . S
C1133 C608 1.553 . S
C1129 C361 1.542 . S
C1147 C440 1.508 . S
C1151 C677 1.525 . S
C1169 C731 1.551 . S
C1165 C301 1.522 . S
C1187 C767 1.526 . S
C1183 C391 1.509 . S
C1205 C615 1.556 . S
C1201 C451 1.541 . S
C1219 C260 1.514 . S
C1223 C678 1.529 . S
