# Generated by pormake.
# Topology anh, (6,3)-cn, num edge types: 1
# Building blocks:
#     Node 0, Type 0, BuildingBlock: PAMTUU_clean_sbu_0, # of connection points: 6
#     Node 1, Type 0, BuildingBlock: PAMTUU_clean_sbu_0, # of connection points: 6
#     Node 2, Type 0, BuildingBlock: PAMTUU_clean_sbu_0, # of connection points: 6
#     Node 3, Type 1, BuildingBlock: PAMTOO_clean_linker_0, # of connection points: 3
#     Node 4, Type 1, BuildingBlock: PAMTOO_clean_linker_0, # of connection points: 3
#     Node 5, Type 1, BuildingBlock: PAMTOO_clean_linker_0, # of connection points: 3
#     Node 6, Type 1, BuildingBlock: PAMTOO_clean_linker_0, # of connection points: 3
#     Node 7, Type 1, BuildingBlock: PAMTOO_clean_linker_0, # of connection points: 3
#     Node 8, Type 1, BuildingBlock: PAMTOO_clean_linker_0, # of connection points: 3
#     Edge 9, Type (0, 1), BuildingBlock: CIFDUS_clean_linker_0, # of connection points: 2
#     Edge 10, Type (0, 1), BuildingBlock: CIFDUS_clean_linker_0, # of connection points: 2
#     Edge 11, Type (0, 1), BuildingBlock: CIFDUS_clean_linker_0, # of connection points: 2
#     Edge 12, Type (0, 1), BuildingBlock: CIFDUS_clean_linker_0, # of connection points: 2
#     Edge 13, Type (0, 1), BuildingBlock: CIFDUS_clean_linker_0, # of connection points: 2
#     Edge 14, Type (0, 1), BuildingBlock: CIFDUS_clean_linker_0, # of connection points: 2
#     Edge 15, Type (0, 1), BuildingBlock: CIFDUS_clean_linker_0, # of connection points: 2
#     Edge 16, Type (0, 1), BuildingBlock: CIFDUS_clean_linker_0, # of connection points: 2
#     Edge 17, Type (0, 1), BuildingBlock: CIFDUS_clean_linker_0, # of connection points: 2
#     Edge 18, Type (0, 1), BuildingBlock: CIFDUS_clean_linker_0, # of connection points: 2
#     Edge 19, Type (0, 1), BuildingBlock: CIFDUS_clean_linker_0, # of connection points: 2
#     Edge 20, Type (0, 1), BuildingBlock: CIFDUS_clean_linker_0, # of connection points: 2
#     Edge 21, Type (0, 1), BuildingBlock: CIFDUS_clean_linker_0, # of connection points: 2
#     Edge 22, Type (0, 1), BuildingBlock: CIFDUS_clean_linker_0, # of connection points: 2
#     Edge 23, Type (0, 1), BuildingBlock: CIFDUS_clean_linker_0, # of connection points: 2
#     Edge 24, Type (0, 1), BuildingBlock: CIFDUS_clean_linker_0, # of connection points: 2
#     Edge 25, Type (0, 1), BuildingBlock: CIFDUS_clean_linker_0, # of connection points: 2
#     Edge 26, Type (0, 1), BuildingBlock: CIFDUS_clean_linker_0, # of connection points: 2
# Relax obj value: 0.315
# Max RMSD: 0.161
# Mean RMSD: 0.129
data_MOF--net-anh--node1-PAMTUU_clean_sbu_0--node2-PAMTOO_clean_linker_0--edge1-CIFDUS_clean_linker_0
_symmetry_space_group_name_H-M    P1
_symmetry_Int_Tables_number       1
_symmetry_cell_setting            triclinic
loop_
_symmetry_equiv_pos_as_xyz
'x, y, z'
_cell_length_a     26.063966
_cell_length_b     26.155425
_cell_length_c     43.482709
_cell_angle_alpha  90.588908
_cell_angle_beta   90.733982
_cell_angle_gamma 119.9203
loop_
_atom_site_label
_atom_site_type_symbol
_atom_site_fract_x
_atom_site_fract_y
_atom_site_fract_z
_atom_type_partial_charge
Tb0 Tb 0.20724 0.73595 0.16157 0.0
Tb1 Tb 0.29165 0.67846 0.17419 0.0
C2 C 0.25745 0.69801 0.10753 0.0
C3 C 1.08173 0.76632 0.15992 0.0
C4 C 0.96134 0.72805 0.17004 0.0
C5 C 0.98759 0.75342 0.14195 0.0
C6 C 1.04714 0.77254 0.13705 0.0
C7 C 1.05681 0.74344 0.18851 0.0
C8 C 0.99717 0.72483 0.19359 0.0
C9 C 1.14229 0.7807 0.15257 0.0
O10 O 1.14302 0.63979 0.16061 0.0
O11 O 0.20173 0.60972 0.18486 0.0
O12 O 0.29068 0.72034 0.21775 0.0
O13 O 0.20096 0.71485 0.20962 0.0
O14 O 0.36422 0.66714 0.16321 0.0
O15 O 0.30021 0.6132 0.19699 0.0
O16 O 0.35802 0.7728 0.17123 0.0
O17 O 0.29633 0.81255 0.16949 0.0
O18 O 0.25189 0.74113 0.11924 0.0
O19 O 0.26202 0.66058 0.1257 0.0
C20 C 1.14929 0.59874 0.17479 0.0
O21 O 0.18003 0.79557 0.17554 0.0
O22 O 1.14651 0.74469 0.13312 0.0
C23 C 0.24507 0.72366 0.22788 0.0
C24 C 0.39337 0.61694 0.19989 0.0
C25 C 0.46299 0.56749 0.21844 0.0
C26 C 0.41009 0.55246 0.23343 0.0
C27 C 0.37562 0.57703 0.22428 0.0
C28 C 0.44952 0.637 0.1874 0.0
C29 C 0.48426 0.61276 0.19677 0.0
C30 C 0.34828 0.62455 0.18279 0.0
C31 C 0.34993 0.81881 0.17109 0.0
H32 H 0.96152 0.75551 0.12293 0.0
H33 H 1.06562 0.79001 0.11484 0.0
H34 H 1.08283 0.73831 0.20657 0.0
H35 H 0.97869 0.70612 0.21559 0.0
H36 H 0.3928 0.51776 0.25023 0.0
H37 H 0.33247 0.56036 0.23434 0.0
H38 H 0.46426 0.66726 0.16842 0.0
H39 H 0.52465 0.62484 0.18459 0.0
Tb40 Tb 0.69187 1.0729 0.48052 0.0
Tb41 Tb 0.82692 0.1551 0.50335 0.0
C42 C 0.78974 0.12935 0.43433 0.0
C43 C 0.53583 1.02841 0.46363 0.0
C44 C 0.43808 1.04668 0.46651 0.0
C45 C 0.44097 1.00433 0.48499 0.0
C46 C 0.48918 0.99514 0.48346 0.0
C47 C 0.53373 1.07183 0.44563 0.0
C48 C 0.48516 1.0807 0.44699 0.0
C49 C 0.58587 1.01705 0.46187 0.0
O50 O 0.71684 1.00681 0.49424 0.0
O51 O 0.81818 1.06708 0.49849 0.0
O52 O 0.77784 1.10478 0.54278 0.0
O53 O 0.69061 1.0979 0.52798 0.0
O54 O 0.91696 0.19074 0.49351 0.0
O55 O 0.88965 0.21193 0.53622 0.0
O56 O 0.78977 0.21371 0.50923 0.0
O57 O 0.70898 0.16454 0.47695 0.0
O58 O 0.74861 1.07791 0.44344 0.0
O59 O 0.81768 0.17189 0.45481 0.0
C60 C 0.77043 1.0139 0.49834 0.0
O61 O 0.62985 1.05206 0.44463 0.0
O62 O 0.60422 1.00641 0.48783 0.0
C63 C 0.7249 1.09528 0.54936 0.0
C64 C 0.9652 0.28933 0.51021 0.0
C65 C 1.01907 0.4107 0.4991 0.0
C66 C 1.04768 0.38873 0.51799 0.0
C67 C 1.02058 0.32818 0.52369 0.0
C68 C 0.93733 0.31122 0.49096 0.0
C69 C 0.96393 0.37121 0.48546 0.0
C70 C 0.93314 0.22656 0.51738 0.0
C71 C 0.74578 0.21226 0.49331 0.0
H72 H 0.40474 0.97648 0.49976 0.0
H73 H 0.4895 0.96127 0.49747 0.0
H74 H 0.56911 1.09846 0.43017 0.0
H75 H 0.48395 0.11349 0.43246 0.0
H76 H 1.09031 0.4184 0.52871 0.0
H77 H 1.04232 0.31188 0.53883 0.0
H78 H 0.89447 0.28188 0.4804 0.0
H79 H 0.94142 0.38663 0.47029 0.0
Tb80 Tb 0.7438 0.53312 0.81933 0.0
Tb81 Tb 0.81658 0.67232 0.83516 0.0
C82 C 0.79836 0.62197 0.76813 0.0
C83 C 0.66089 0.36714 0.79274 0.0
C84 C 0.60145 0.24598 0.77651 0.0
C85 C 0.58461 0.28424 0.7631 0.0
C86 C 0.61414 0.34403 0.77102 0.0
C87 C 0.68077 0.33024 0.80464 0.0
C88 C 0.65164 0.27022 0.79634 0.0
C89 C 0.67836 0.4251 0.80685 0.0
O90 O 0.83137 0.54833 0.83495 0.0
O91 O 0.88766 0.6497 0.83201 0.0
O92 O 0.81043 0.62666 0.87773 0.0
O93 O 0.72193 0.54568 0.86547 0.0
O94 O 0.87787 0.75828 0.82157 0.0
O95 O 0.83488 0.74289 0.86529 0.0
O96 O 0.72341 0.64981 0.84069 0.0
O97 O 0.68094 0.56507 0.81153 0.0
O98 O 0.79709 0.57548 0.77975 0.0
O99 O 0.7909 0.65826 0.78615 0.0
C100 C 0.88349 0.5976 0.83577 0.0
O101 O 0.71398 0.44472 0.83089 0.0
O102 O 0.68239 0.46712 0.78939 0.0
C103 C 0.76136 0.58007 0.88608 0.0
C104 C 0.83807 0.81802 0.83604 0.0
C105 C 0.76795 0.87057 0.8266 0.0
C106 C 0.81296 0.89329 0.84942 0.0
C107 C 0.84759 0.86667 0.85431 0.0
C108 C 0.79501 0.79747 0.81234 0.0
C109 C 0.76048 0.82352 0.80765 0.0
C110 C 0.86429 0.7817 0.8445 0.0
C111 C 0.67675 0.60722 0.82616 0.0
H112 H 0.54582 0.26764 0.74818 0.0
H113 H 0.59729 0.37131 0.76186 0.0
H114 H 0.71659 0.34688 0.82157 0.0
H115 H 0.66677 0.24241 0.80659 0.0
H116 H 0.81959 0.92979 0.86418 0.0
H117 H 0.87992 0.8824 0.87306 0.0
H118 H 0.78612 0.75943 0.79825 0.0
H119 H 0.72685 0.80593 0.7895 0.0
H120 H 0.88881 0.31525 0.2584 0.0
H121 H 0.72821 0.14707 0.25163 0.0
H122 H 0.79398 0.25404 0.17151 0.0
H123 H 0.64625 0.16585 0.17532 0.0
C124 C 0.65112 0.13879 0.19343 0.0
O125 O 0.70941 0.14995 0.19331 0.0
H126 H 0.64191 0.15302 0.2159 0.0
C127 C 0.85178 0.28219 0.24476 0.0
C128 C 0.84785 0.29201 0.21316 0.0
C129 C 0.80904 0.23053 0.2591 0.0
C130 C 0.76156 0.18718 0.24117 0.0
C131 C 0.75515 0.19511 0.20981 0.0
C132 C 0.79817 0.24811 0.19583 0.0
H133 H 0.7733 0.74426 0.58376 0.0
H134 H 0.77347 0.57951 0.58012 0.0
H135 H 0.75831 0.65771 0.49649 0.0
H136 H 0.69626 0.51001 0.49639 0.0
C137 C 0.72309 0.51122 0.51675 0.0
O138 O 0.77007 0.56904 0.52073 0.0
H139 H 0.69397 0.49857 0.53705 0.0
C140 C 0.77078 0.70761 0.57064 0.0
C141 C 0.76503 0.7073 0.53836 0.0
C142 C 0.77278 0.66157 0.58627 0.0
C143 C 0.77154 0.6152 0.56878 0.0
C144 C 0.76649 0.61302 0.53655 0.0
C145 C 0.76205 0.65883 0.52134 0.0
H146 H 0.17025 0.62461 0.92338 0.0
H147 H 0.34286 0.64093 0.92077 0.0
H148 H 0.25046 0.6314 0.83616 0.0
H149 H 0.33499 0.57091 0.83407 0.0
C150 C 0.36171 0.59526 0.85483 0.0
O151 O 0.35081 0.64149 0.86116 0.0
H152 H 0.34624 0.56385 0.87419 0.0
C153 C 0.20645 0.62709 0.91022 0.0
C154 C 0.20277 0.62644 0.87784 0.0
C155 C 0.2566 0.63257 0.92599 0.0
C156 C 0.30369 0.63584 0.90893 0.0
C157 C 0.30204 0.63471 0.8766 0.0
C158 C 0.25154 0.63077 0.86105 0.0
H159 H 1.12552 0.69097 0.39689 0.0
H160 H 0.1664 0.87119 0.39247 0.0
H161 H 1.06986 0.76566 0.46877 0.0
H162 H 1.08089 0.92234 0.44805 0.0
C163 C 1.1109 0.91428 0.43346 0.0
O164 O 1.11884 0.87056 0.44647 0.0
H165 H 1.0902 0.90111 0.41004 0.0
C166 C 1.12394 0.72839 0.40676 0.0
C167 C 1.09629 0.72247 0.43502 0.0
C168 C 1.14792 0.78141 0.39079 0.0
C169 C 1.14559 0.82945 0.40398 0.0
C170 C 1.11576 0.82329 0.43164 0.0
C171 C 1.09032 0.76938 0.44674 0.0
H172 H 0.60562 0.97354 0.7231 0.0
H173 H 0.44227 0.93811 0.67864 0.0
H174 H 0.4393 0.86948 0.76787 0.0
H175 H 0.33385 0.89397 0.76083 0.0
C176 C 0.35074 0.91253 0.73786 0.0
O177 O 0.37587 0.88187 0.72457 0.0
H178 H 0.31187 0.90491 0.72354 0.0
C179 C 0.55794 0.95377 0.7232 0.0
C180 C 0.52638 0.91984 0.74841 0.0
C181 C 0.52849 0.96072 0.69768 0.0
C182 C 0.4665 0.93414 0.69801 0.0
C183 C 0.43488 0.90239 0.7235 0.0
C184 C 0.46453 0.89455 0.74842 0.0
H185 H 0.69921 0.58761 0.06363 0.0
H186 H 0.56941 0.4025 0.05508 0.0
H187 H 0.58876 0.49879 0.13908 0.0
H188 H 0.58972 0.37849 0.13734 0.0
C189 C 0.54186 0.36456 0.13495 0.0
O190 O 0.53174 0.39413 0.11145 0.0
H191 H 0.51769 0.31651 0.12942 0.0
C192 C 0.66375 0.5476 0.07312 0.0
C193 C 0.64928 0.5479 0.10398 0.0
C194 C 0.63483 0.49579 0.0549 0.0
C195 C 0.59113 0.44349 0.06829 0.0
C196 C 0.57458 0.44416 0.09878 0.0
C197 C 0.60189 0.49719 0.11592 0.0
H198 H 0.40176 0.45009 0.20975 0.0
H199 H 0.5788 0.59486 0.22624 0.0
H200 H 0.61958 0.53226 0.2106 0.0
H201 H 0.60457 0.44582 0.18033 0.0
H202 H 0.42766 0.31193 0.15381 0.0
H203 H 0.38662 0.35796 0.18699 0.0
C204 C 0.44918 0.46719 0.21122 0.0
C205 C 0.48733 0.52697 0.21901 0.0
C206 C 0.4721 0.43229 0.2002 0.0
C207 C 0.54872 0.54897 0.22023 0.0
C208 C 0.57193 0.51323 0.21115 0.0
C209 C 0.55706 0.42575 0.18282 0.0
C210 C 0.51905 0.37667 0.16418 0.0
C211 C 0.5341 0.45604 0.19933 0.0
C212 C 0.45764 0.3502 0.16773 0.0
C213 C 0.43427 0.37708 0.18632 0.0
H214 H 0.96619 0.47728 0.50002 0.0
H215 H 1.13305 0.48594 0.48297 0.0
H216 H 0.17337 0.58616 0.46391 0.0
H217 H 1.15751 0.6666 0.4472 0.0
H218 H 0.98946 0.65647 0.46226 0.0
H219 H 0.95296 0.56118 0.4871 0.0
C220 C 1.01154 0.50138 0.49232 0.0
C221 C 1.04646 0.4742 0.49246 0.0
C222 C 1.03381 0.5582 0.48078 0.0
C223 C 1.10547 0.50612 0.48312 0.0
C224 C 1.12831 0.56312 0.47198 0.0
C225 C 1.11293 0.64347 0.456 0.0
C226 C 1.07575 0.66773 0.45251 0.0
C227 C 1.09228 0.58878 0.46988 0.0
C228 C 1.01866 0.63835 0.46464 0.0
C229 C 0.99781 0.58393 0.4787 0.0
H230 H 0.64891 0.8082 0.82423 0.0
H231 H 0.79646 0.98526 0.81865 0.0
H232 H 0.73019 1.01933 0.7991 0.0
H233 H 0.63416 0.99454 0.77531 0.0
H234 H 0.48989 0.81453 0.77631 0.0
H235 H 0.55026 0.78619 0.80688 0.0
C236 C 0.66624 0.85448 0.81923 0.0
C237 C 0.72738 0.89409 0.82216 0.0
C238 C 0.62844 0.87301 0.80702 0.0
C239 C 0.74948 0.95408 0.81636 0.0
C240 C 0.7117 0.97335 0.80497 0.0
C241 C 0.61577 0.94923 0.78247 0.0
C242 C 0.55804 0.90648 0.77286 0.0
C243 C 0.65168 0.93259 0.79884 0.0
C244 C 0.53413 0.8484 0.78327 0.0
C245 C 0.56887 0.83195 0.8005 0.0
H246 H 0.88531 0.76224 0.14674 0.0
H247 H 0.88903 0.62419 0.1987 0.0
H248 H 0.78337 0.56076 0.18972 0.0
H249 H 0.69832 0.53552 0.15593 0.0
H250 H 0.69835 0.66747 0.09736 0.0
H251 H 0.79343 0.74202 0.11999 0.0
C252 C 0.86285 0.71857 0.15648 0.0
C253 C 0.89574 0.69759 0.17254 0.0
C254 C 0.80263 0.68067 0.1495 0.0
C255 C 0.86538 0.64178 0.18609 0.0
C256 C 0.80479 0.60497 0.18065 0.0
C257 C 0.71788 0.58116 0.14908 0.0
C258 C 0.69207 0.59597 0.12472 0.0
C259 C 0.77402 0.62261 0.16076 0.0
C260 C 0.71794 0.65511 0.11588 0.0
C261 C 0.77249 0.69751 0.12863 0.0
H262 H 0.37822 1.04878 0.41557 0.0
H263 H 0.37342 1.04975 0.51468 0.0
H264 H 0.26975 1.02464 0.51242 0.0
H265 H 0.17669 0.97825 0.48245 0.0
H266 H 0.18013 0.96962 0.38363 0.0
H267 H 0.28835 1.02437 0.38535 0.0
C268 C 0.35515 1.04578 0.43665 0.0
C269 C 0.38278 1.04957 0.46525 0.0
C270 C 0.29507 1.02941 0.43514 0.0
C271 C 0.35245 1.04559 0.4924 0.0
C272 C 0.29324 1.03125 0.49111 0.0
C273 C 0.20134 0.99097 0.4613 0.0
C274 C 0.17103 0.96877 0.43305 0.0
C275 C 0.26329 1.01946 0.46264 0.0
C276 C 0.20284 0.98552 0.40567 0.0
C277 C 0.26469 1.01618 0.40669 0.0
H278 H 0.53698 0.18403 0.72537 0.0
H279 H 0.57629 0.16082 0.81936 0.0
H280 H 0.50251 1.05656 0.81562 0.0
H281 H 0.42231 0.97281 0.78685 0.0
H282 H 0.37832 0.99692 0.69436 0.0
H283 H 0.45673 1.10068 0.69674 0.0
C284 C 0.52927 0.15644 0.74518 0.0
C285 C 0.56232 0.1809 0.77265 0.0
C286 C 0.48476 1.09694 0.74342 0.0
C287 C 0.55258 0.14358 0.79769 0.0
C288 C 0.50959 1.08392 0.79578 0.0
C289 C 0.42934 1.0013 0.76751 0.0
C290 C 0.39385 0.97815 0.74079 0.0
C291 C 0.47456 1.06048 0.76903 0.0
C292 C 0.40425 1.01459 0.71543 0.0
C293 C 0.44941 1.07352 0.71669 0.0
H294 H 0.69698 0.89355 0.48358 0.0
H295 H 0.86211 1.01488 0.5296 0.0
H296 H 0.87631 0.93314 0.54429 0.0
H297 H 0.84099 0.82638 0.54644 0.0
H298 H 0.67948 0.70346 0.49856 0.0
H299 H 0.66556 0.78549 0.48205 0.0
C300 C 0.73624 0.90221 0.49668 0.0
C301 C 0.77825 0.96136 0.50544 0.0
C302 C 0.74511 0.85421 0.50473 0.0
C303 C 0.82893 0.97072 0.52226 0.0
C304 C 0.83716 0.92362 0.53082 0.0
C305 C 0.80306 0.81741 0.53201 0.0
C306 C 0.76143 0.7581 0.52381 0.0
C307 C 0.79552 0.86511 0.52244 0.0
C308 C 0.71273 0.74815 0.50503 0.0
C309 C 0.70448 0.79532 0.4958 0.0
H310 H 1.00177 0.6728 0.8203 0.0
H311 H 0.89005 0.51343 0.8692 0.0
H312 H 0.97654 0.50662 0.88498 0.0
H313 H 1.08504 0.54742 0.88718 0.0
H314 H 0.19787 0.70267 0.83599 0.0
H315 H 1.11101 0.70889 0.81867 0.0
C316 C 0.99625 0.63641 0.83429 0.0
C317 C 0.93848 0.59383 0.84357 0.0
C318 C 1.04691 0.63175 0.84287 0.0
C319 C 0.93311 0.54685 0.86148 0.0
C320 C 0.98293 0.54292 0.87065 0.0
C321 C 1.0907 0.5822 0.87183 0.0
C322 C 1.14867 0.62445 0.86294 0.0
C323 C 1.04016 0.58521 0.86173 0.0
C324 C 1.15434 0.66905 0.84301 0.0
C325 C 1.1044 0.67291 0.83331 0.0
H326 H 0.46932 0.85786 0.1852 0.0
H327 H 0.35023 0.92175 0.16108 0.0
H328 H 0.43162 1.02285 0.16443 0.0
H329 H 0.53633 1.09513 0.17534 0.0
H330 H 0.65698 1.03502 0.20144 0.0
H331 H 0.57644 0.93202 0.19616 0.0
C332 C 0.46113 0.89381 0.18053 0.0
C333 C 0.40262 0.88097 0.17286 0.0
C334 C 0.50894 0.95328 0.18278 0.0
C335 C 0.39384 0.92907 0.16714 0.0
C336 C 0.44074 0.98747 0.16901 0.0
C337 C 0.54534 1.05949 0.17945 0.0
C338 C 0.60354 1.0735 0.18796 0.0
C339 C 0.4984 1.00029 0.17691 0.0
C340 C 0.61344 1.02627 0.19411 0.0
C341 C 0.567 0.96707 0.19126 0.0
H342 H 0.81551 0.32358 0.52104 0.0
H343 H 0.65507 0.22192 0.46681 0.0
H344 H 0.63689 0.30473 0.46791 0.0
H345 H 0.66358 0.40533 0.48547 0.0
H346 H 0.82204 0.50792 0.54044 0.0
H347 H 0.8438 0.42668 0.53765 0.0
C348 C 0.77655 0.3194 0.50938 0.0
C349 C 0.7367 0.26537 0.49389 0.0
C350 C 0.766 0.36802 0.5101 0.0
C351 C 0.68676 0.262 0.47894 0.0
C352 C 0.67619 0.30972 0.47956 0.0
C353 C 0.70354 0.41048 0.49643 0.0
C354 C 0.74189 0.46405 0.51242 0.0
C355 C 0.71519 0.36289 0.49514 0.0
C356 C 0.79236 0.46843 0.52727 0.0
C357 C 0.80455 0.42147 0.52586 0.0
H358 H 0.63988 0.67571 0.85951 0.0
H359 H 0.57672 0.53137 0.79351 0.0
H360 H 0.47803 0.51901 0.79494 0.0
H361 H 0.40645 0.54403 0.81659 0.0
H362 H 0.46495 0.68533 0.88358 0.0
H363 H 0.56709 0.70402 0.87988 0.0
C364 C 0.60472 0.64183 0.84524 0.0
C365 C 0.61699 0.6044 0.82647 0.0
C366 C 0.54644 0.63429 0.84627 0.0
C367 C 0.56985 0.56087 0.80832 0.0
C368 C 0.51278 0.55362 0.80909 0.0
C369 C 0.44167 0.57986 0.82996 0.0
C370 C 0.42747 0.61422 0.84972 0.0
C371 C 0.50019 0.58945 0.82817 0.0
C372 C 0.47407 0.65905 0.86755 0.0
C373 C 0.5327 0.66938 0.86561 0.0
H374 H 1.02767 0.5469 0.1582 0.0
H375 H 1.15176 0.51208 0.20756 0.0
H376 H 1.07234 0.41626 0.22165 0.0
H377 H 0.96755 0.34153 0.22209 0.0
H378 H 0.83977 0.37069 0.17345 0.0
H379 H 0.91968 0.46715 0.15676 0.0
C380 C 1.03743 0.51834 0.17193 0.0
C381 C 1.09692 0.53837 0.18171 0.0
C382 C 0.99042 0.46128 0.18018 0.0
C383 C 1.10748 0.49949 0.19946 0.0
C384 C 1.06166 0.44392 0.20769 0.0
C385 C 0.9568 0.36874 0.20779 0.0
C386 C 0.89692 0.34822 0.19941 0.0
C387 C 1.00299 0.42436 0.19846 0.0
C388 C 0.88499 0.38445 0.18029 0.0
C389 C 0.93094 0.44016 0.1709 0.0
H390 H 0.28482 0.62711 0.07161 0.0
H391 H 0.22474 0.75375 0.066 0.0
H392 H 0.21883 0.74423 0.01033 0.0
H393 H 0.23052 0.70089 0.96274 0.0
H394 H 0.29262 0.57613 0.96661 0.0
H395 H 0.29838 0.58439 0.02295 0.0
C396 C 0.27046 0.65258 0.05819 0.0
C397 C 0.25534 0.69115 0.0733 0.0
C398 C 0.26755 0.64739 0.02567 0.0
C399 C 0.23705 0.72393 0.05532 0.0
C400 C 0.23345 0.71847 0.0233 0.0
C401 C 0.24486 0.67507 0.97589 0.0
C402 C 0.26062 0.63757 0.96037 0.0
C403 C 0.24849 0.68039 0.0082 0.0
C404 C 0.28036 0.60549 0.97788 0.0
C405 C 0.28347 0.61006 0.01016 0.0
H406 H 0.83187 0.23457 0.40507 0.0
H407 H 0.76299 1.04861 0.3881 0.0
H408 H 0.76535 1.06368 0.3327 0.0
H409 H 0.78293 0.12868 0.28899 0.0
H410 H 0.84522 0.31365 0.30584 0.0
H411 H 0.85039 0.30007 0.36098 0.0
C412 C 0.81818 0.19752 0.38922 0.0
C413 C 0.79746 0.14054 0.40078 0.0
C414 C 0.81823 0.20625 0.35723 0.0
C415 C 0.7791 1.09291 0.37988 0.0
C416 C 0.7803 1.10146 0.34815 0.0
C417 C 0.79723 0.16607 0.30465 0.0
C418 C 0.81362 0.22216 0.29293 0.0
C419 C 0.79888 0.15776 0.33654 0.0
C420 C 0.83313 0.27008 0.31386 0.0
C421 C 0.83572 0.2623 0.34555 0.0
H422 H 0.75251 0.67465 0.73168 0.0
H423 H 0.85395 0.58556 0.72847 0.0
H424 H 0.85753 0.59224 0.67245 0.0
H425 H 0.83 0.62118 0.62419 0.0
H426 H 0.71984 0.70138 0.62704 0.0
H427 H 0.72272 0.70143 0.68299 0.0
C428 C 0.77588 0.65726 0.7187 0.0
C429 C 0.80319 0.62991 0.73429 0.0
C430 C 0.77628 0.65967 0.68627 0.0
C431 C 0.83251 0.60677 0.71707 0.0
C432 C 0.83454 0.61054 0.68499 0.0
C433 C 0.80594 0.63812 0.63686 0.0
C434 C 0.77509 0.66161 0.62088 0.0
C435 C 0.80602 0.63629 0.66927 0.0
C436 C 0.74526 0.68422 0.63827 0.0
C437 C 0.74633 0.6838 0.67047 0.0
H438 H 0.63515 1.1024 0.57594 0.0
H439 H 0.75893 1.04067 0.59123 0.0
H440 H 0.70948 0.9943 0.6388 0.0
H441 H 0.62662 0.96471 0.67342 0.0
H442 H 0.50686 1.0324 0.66043 0.0
H443 H 0.55845 1.08173 0.61396 0.0
C444 C 0.65164 1.07932 0.58989 0.0
C445 C 0.70031 1.07457 0.58004 0.0
C446 C 0.62317 1.05299 0.61723 0.0
C447 C 0.72169 1.04513 0.59842 0.0
C448 C 0.69317 1.01825 0.62548 0.0
C449 C 0.6124 0.99133 0.66099 0.0
C450 C 0.5623 0.99409 0.67044 0.0
C451 C 0.64326 1.02103 0.63479 0.0
C452 C 0.54422 1.02804 0.65339 0.0
C453 C 0.57407 1.05682 0.62694 0.0
H454 H 0.65592 0.50373 0.91073 0.0
H455 H 0.83856 0.62633 0.93518 0.0
H456 H 0.81643 0.60551 0.98962 0.0
H457 H 0.74461 0.55569 0.03003 0.0
H458 H 0.56033 0.43998 0.00563 0.0
H459 H 0.58437 0.45294 0.95117 0.0
C460 C 0.69106 0.5257 0.92793 0.0
C461 C 0.74879 0.56673 0.91895 0.0
C462 C 0.67783 0.51426 0.95911 0.0
C463 C 0.79368 0.59492 0.94152 0.0
C464 C 0.7811 0.58288 0.97261 0.0
C465 C 0.70948 0.53359 0.01286 0.0
C466 C 0.65053 0.49753 0.02202 0.0
C467 C 0.72318 0.54321 0.98165 0.0
C468 C 0.6061 0.46764 -0.00065 0.0
C469 C 0.61971 0.47556 0.96817 0.0
H470 H 0.19373 0.78326 0.24937 0.0
H471 H 0.28892 0.69642 0.27914 0.0
H472 H 0.27141 0.71112 0.33308 0.0
H473 H 0.22135 0.74149 0.3712 0.0
H474 H 1.1266 0.82822 0.3401 0.0
H475 H 1.15264 0.82172 0.28713 0.0
C476 C 0.21101 0.76784 0.26769 0.0
C477 C 0.24168 0.73794 0.26043 0.0
C478 C 0.20088 0.77653 0.29832 0.0
C479 C 0.26498 0.71936 0.28427 0.0
C480 C 0.25474 0.72756 0.31503 0.0
C481 C 0.20687 0.75935 0.35281 0.0
C482 C 0.17161 0.78484 0.35954 0.0
C483 C 0.22158 0.75495 0.32227 0.0
C484 C 1.15404 0.80876 0.33559 0.0
C485 C 0.16849 0.80462 0.30526 0.0
loop_
_geom_bond_atom_site_label_1
_geom_bond_atom_site_label_2
_geom_bond_distance
_geom_bond_site_symmetry_2
_ccdc_geom_bond_type
Tb0 C9 2.764 . S
Tb0 O10 2.325 . S
Tb0 O13 2.303 . S
Tb0 O17 2.322 1_655 S
Tb0 O18 2.349 . S
Tb0 O21 2.415 . S
Tb0 O22 2.399 . S
Tb1 O11 2.322 1_455 S
Tb1 O12 2.349 . S
Tb1 O14 2.415 . S
Tb1 O15 2.399 . S
Tb1 O16 2.325 . S
Tb1 O19 2.303 . S
Tb1 C30 2.764 . S
C2 O18 1.261 1_455 S
C2 O19 1.257 . S
C3 C6 1.358 . S
C3 C7 1.332 . S
C3 C9 1.504 . S
C4 C5 1.373 . S
C4 C8 1.308 . S
C5 C4 1.373 . S
C5 C6 1.429 . S
C5 H32 0.932 . S
C6 C3 1.358 . S
C6 C5 1.429 . S
C6 H33 0.930 . S
C7 C3 1.332 . S
C7 C8 1.394 . S
C7 H34 0.932 . S
C8 C4 1.308 . S
C8 C7 1.394 . S
C8 H35 0.929 . S
C9 Tb0 2.764 . S
C9 C3 1.504 . S
C9 O21 1.239 . S
C9 O22 1.263 . S
O10 Tb0 2.325 . S
O10 C20 1.236 . S
O11 Tb1 2.322 1_655 S
O11 C20 1.257 . S
O12 Tb1 2.349 . S
O12 C23 1.261 . S
O13 Tb0 2.303 . S
O13 C23 1.257 1_655 S
O14 Tb1 2.415 . S
O14 C30 1.239 . S
O15 Tb1 2.399 . S
O15 C30 1.263 . S
O16 Tb1 2.325 . S
O16 C31 1.236 . S
O17 Tb0 2.322 1_455 S
O17 C31 1.257 . S
O18 Tb0 2.349 . S
O18 C2 1.261 1_655 S
O19 Tb1 2.303 . S
O19 C2 1.257 . S
C20 O10 1.236 . S
C20 O11 1.257 . S
O21 Tb0 2.415 . S
O21 C9 1.239 . S
O22 Tb0 2.399 . S
O22 C9 1.263 . S
C23 O12 1.261 . S
C23 O13 1.257 1_455 S
C24 C27 1.358 . S
C24 C28 1.332 . S
C24 C30 1.504 . S
C25 C26 1.373 . S
C25 C29 1.308 . S
C26 C25 1.373 . S
C26 C27 1.429 . S
C26 H36 0.932 . S
C27 C24 1.358 . S
C27 C26 1.429 . S
C27 H37 0.930 . S
C28 C24 1.332 . S
C28 C29 1.394 . S
C28 H38 0.932 . S
C29 C25 1.308 . S
C29 C28 1.394 . S
C29 H39 0.929 . S
C30 Tb1 2.764 . S
C30 O14 1.239 . S
C30 O15 1.263 . S
C30 C24 1.504 . S
C31 O16 1.236 . S
C31 O17 1.257 . S
H32 C5 0.932 . S
H33 C6 0.930 . S
H34 C7 0.932 . S
H35 C8 0.929 . S
H36 C26 0.932 . S
H37 C27 0.930 . S
H38 C28 0.932 . S
H39 C29 0.929 . S
Tb40 C49 2.764 . S
Tb40 O50 2.325 . S
Tb40 O53 2.303 1_565 S
Tb40 O57 2.322 1_565 S
Tb40 O58 2.349 1_565 S
Tb40 O61 2.415 . S
Tb40 O62 2.399 . S
Tb41 O51 2.322 1_545 S
Tb41 O52 2.349 . S
Tb41 O54 2.415 . S
Tb41 O55 2.399 . S
Tb41 O56 2.325 . S
Tb41 O59 2.303 . S
Tb41 C70 2.764 . S
C42 O58 1.261 . S
C42 O59 1.257 . S
C43 C46 1.358 . S
C43 C47 1.332 . S
C43 C49 1.504 . S
C44 C45 1.373 . S
C44 C48 1.308 . S
C45 C44 1.373 . S
C45 C46 1.429 . S
C45 H72 0.932 . S
C46 C43 1.358 . S
C46 C45 1.429 . S
C46 H73 0.930 . S
C47 C43 1.332 . S
C47 C48 1.394 . S
C47 H74 0.932 . S
C48 C44 1.308 . S
C48 C47 1.394 . S
C48 H75 0.929 . S
C49 Tb40 2.764 . S
C49 C43 1.504 . S
C49 O61 1.239 . S
C49 O62 1.263 . S
O50 Tb40 2.325 . S
O50 C60 1.236 . S
O51 Tb41 2.322 1_565 S
O51 C60 1.257 . S
O52 Tb41 2.349 . S
O52 C63 1.261 . S
O53 Tb40 2.303 1_545 S
O53 C63 1.257 . S
O54 Tb41 2.415 . S
O54 C70 1.239 . S
O55 Tb41 2.399 . S
O55 C70 1.263 . S
O56 Tb41 2.325 . S
O56 C71 1.236 . S
O57 Tb40 2.322 1_545 S
O57 C71 1.257 . S
O58 Tb40 2.349 1_545 S
O58 C42 1.261 . S
O59 Tb41 2.303 . S
O59 C42 1.257 . S
C60 O50 1.236 . S
C60 O51 1.257 . S
O61 Tb40 2.415 . S
O61 C49 1.239 . S
O62 Tb40 2.399 . S
O62 C49 1.263 . S
C63 O52 1.261 . S
C63 O53 1.257 . S
C64 C67 1.358 . S
C64 C68 1.332 . S
C64 C70 1.504 . S
C65 C66 1.373 . S
C65 C69 1.308 . S
C66 C65 1.373 . S
C66 C67 1.429 . S
C66 H76 0.932 . S
C67 C64 1.358 . S
C67 C66 1.429 . S
C67 H77 0.930 . S
C68 C64 1.332 . S
C68 C69 1.394 . S
C68 H78 0.932 . S
C69 C65 1.308 . S
C69 C68 1.394 . S
C69 H79 0.929 . S
C70 Tb41 2.764 . S
C70 O54 1.239 . S
C70 O55 1.263 . S
C70 C64 1.504 . S
C71 O56 1.236 . S
C71 O57 1.257 . S
H72 C45 0.932 . S
H73 C46 0.930 . S
H74 C47 0.932 . S
H75 C48 0.929 . S
H76 C66 0.932 . S
H77 C67 0.930 . S
H78 C68 0.932 . S
H79 C69 0.929 . S
Tb80 C89 2.764 . S
Tb80 O90 2.325 . S
Tb80 O93 2.303 . S
Tb80 O97 2.322 . S
Tb80 O98 2.349 . S
Tb80 O101 2.415 . S
Tb80 O102 2.399 . S
Tb81 O91 2.322 . S
Tb81 O92 2.349 . S
Tb81 O94 2.415 . S
Tb81 O95 2.399 . S
Tb81 O96 2.325 . S
Tb81 O99 2.303 . S
Tb81 C110 2.764 . S
C82 O98 1.261 . S
C82 O99 1.257 . S
C83 C86 1.358 . S
C83 C87 1.332 . S
C83 C89 1.504 . S
C84 C85 1.373 . S
C84 C88 1.308 . S
C85 C84 1.373 . S
C85 C86 1.429 . S
C85 H112 0.932 . S
C86 C83 1.358 . S
C86 C85 1.429 . S
C86 H113 0.930 . S
C87 C83 1.332 . S
C87 C88 1.394 . S
C87 H114 0.932 . S
C88 C84 1.308 . S
C88 C87 1.394 . S
C88 H115 0.929 . S
C89 Tb80 2.764 . S
C89 C83 1.504 . S
C89 O101 1.239 . S
C89 O102 1.263 . S
O90 Tb80 2.325 . S
O90 C100 1.236 . S
O91 Tb81 2.322 . S
O91 C100 1.257 . S
O92 Tb81 2.349 . S
O92 C103 1.261 . S
O93 Tb80 2.303 . S
O93 C103 1.257 . S
O94 Tb81 2.415 . S
O94 C110 1.239 . S
O95 Tb81 2.399 . S
O95 C110 1.263 . S
O96 Tb81 2.325 . S
O96 C111 1.236 . S
O97 Tb80 2.322 . S
O97 C111 1.257 . S
O98 Tb80 2.349 . S
O98 C82 1.261 . S
O99 Tb81 2.303 . S
O99 C82 1.257 . S
C100 O90 1.236 . S
C100 O91 1.257 . S
O101 Tb80 2.415 . S
O101 C89 1.239 . S
O102 Tb80 2.399 . S
O102 C89 1.263 . S
C103 O92 1.261 . S
C103 O93 1.257 . S
C104 C107 1.358 . S
C104 C108 1.332 . S
C104 C110 1.504 . S
C105 C106 1.373 . S
C105 C109 1.308 . S
C106 C105 1.373 . S
C106 C107 1.429 . S
C106 H116 0.932 . S
C107 C104 1.358 . S
C107 C106 1.429 . S
C107 H117 0.930 . S
C108 C104 1.332 . S
C108 C109 1.394 . S
C108 H118 0.932 . S
C109 C105 1.308 . S
C109 C108 1.394 . S
C109 H119 0.929 . S
C110 Tb81 2.764 . S
C110 O94 1.239 . S
C110 O95 1.263 . S
C110 C104 1.504 . S
C111 O96 1.236 . S
C111 O97 1.257 . S
H112 C85 0.932 . S
H113 C86 0.930 . S
H114 C87 0.932 . S
H115 C88 0.929 . S
H116 C106 0.932 . S
H117 C107 0.930 . S
H118 C108 0.932 . S
H119 C109 0.929 . S
H120 C127 0.929 . S
H121 C130 0.930 . S
H122 C132 0.929 . S
H123 C124 0.969 . S
C124 H123 0.969 . S
C124 O125 1.550 . S
C124 H126 0.973 . S
O125 C124 1.550 . S
O125 C131 1.412 1_565 S
H126 C124 0.973 . S
C127 H120 0.929 . S
C127 C128 1.400 . S
C127 C129 1.364 . S
C128 C127 1.400 . S
C128 C132 1.377 . S
C129 C127 1.364 . S
C129 C130 1.374 1_545 S
C130 H121 0.930 . S
C130 C129 1.374 1_565 S
C130 C131 1.383 1_565 S
C131 O125 1.412 1_545 S
C131 C130 1.383 1_545 S
C131 C132 1.394 . S
C132 H122 0.929 . S
C132 C128 1.377 . S
C132 C131 1.394 . S
H133 C140 0.929 . S
H134 C143 0.930 . S
H135 C145 0.929 . S
H136 C137 0.969 . S
C137 H136 0.969 . S
C137 O138 1.550 . S
C137 H139 0.973 . S
O138 C137 1.550 . S
O138 C144 1.412 . S
H139 C137 0.973 . S
C140 H133 0.929 . S
C140 C141 1.400 . S
C140 C142 1.364 . S
C141 C140 1.400 . S
C141 C145 1.377 . S
C142 C140 1.364 . S
C142 C143 1.374 . S
C143 H134 0.930 . S
C143 C142 1.374 . S
C143 C144 1.383 . S
C144 O138 1.412 . S
C144 C143 1.383 . S
C144 C145 1.394 . S
C145 H135 0.929 . S
C145 C141 1.377 . S
C145 C144 1.394 . S
H146 C153 0.929 1_655 S
H147 C156 0.930 . S
H148 C158 0.929 . S
H149 C150 0.969 . S
C150 H149 0.969 . S
C150 O151 1.550 . S
C150 H152 0.973 . S
O151 C150 1.550 . S
O151 C157 1.412 . S
H152 C150 0.973 . S
C153 H146 0.929 1_455 S
C153 C154 1.400 . S
C153 C155 1.364 . S
C154 C153 1.400 . S
C154 C158 1.377 . S
C155 C153 1.364 . S
C155 C156 1.374 . S
C156 H147 0.930 . S
C156 C155 1.374 . S
C156 C157 1.383 . S
C157 O151 1.412 . S
C157 C156 1.383 . S
C157 C158 1.394 . S
C158 H148 0.929 . S
C158 C154 1.377 . S
C158 C157 1.394 . S
H159 C166 0.929 . S
H160 C169 0.930 . S
H161 C171 0.929 . S
H162 C163 0.969 . S
C163 H162 0.969 . S
C163 O164 1.550 . S
C163 H165 0.973 . S
O164 C163 1.550 . S
O164 C170 1.412 . S
H165 C163 0.973 . S
C166 H159 0.929 . S
C166 C167 1.400 . S
C166 C168 1.364 . S
C167 C166 1.400 . S
C167 C171 1.377 . S
C168 C166 1.364 . S
C168 C169 1.374 1_655 S
C169 H160 0.930 . S
C169 C168 1.374 1_455 S
C169 C170 1.383 . S
C170 O164 1.412 . S
C170 C169 1.383 . S
C170 C171 1.394 1_455 S
C171 H161 0.929 . S
C171 C167 1.377 . S
C171 C170 1.394 1_655 S
H172 C179 0.929 . S
H173 C182 0.930 . S
H174 C184 0.929 . S
H175 C176 0.969 . S
C176 H175 0.969 . S
C176 O177 1.550 . S
C176 H178 0.973 . S
O177 C176 1.550 . S
O177 C183 1.412 . S
H178 C176 0.973 . S
C179 H172 0.929 . S
C179 C180 1.400 . S
C179 C181 1.364 . S
C180 C179 1.400 . S
C180 C184 1.377 . S
C181 C179 1.364 . S
C181 C182 1.374 1_565 S
C182 H173 0.930 . S
C182 C181 1.374 1_545 S
C182 C183 1.383 . S
C183 O177 1.412 . S
C183 C182 1.383 . S
C183 C184 1.394 1_545 S
C184 H174 0.929 . S
C184 C180 1.377 . S
C184 C183 1.394 1_565 S
H185 C192 0.929 . S
H186 C195 0.930 . S
H187 C197 0.929 . S
H188 C189 0.969 . S
C189 H188 0.969 . S
C189 O190 1.550 . S
C189 H191 0.973 . S
O190 C189 1.550 . S
O190 C196 1.412 . S
H191 C189 0.973 . S
C192 H185 0.929 . S
C192 C193 1.400 . S
C192 C194 1.364 . S
C193 C192 1.400 . S
C193 C197 1.377 . S
C194 C192 1.364 . S
C194 C195 1.374 . S
C195 H186 0.930 . S
C195 C194 1.374 . S
C195 C196 1.383 . S
C196 O190 1.412 . S
C196 C195 1.383 . S
C196 C197 1.394 . S
C197 H187 0.929 . S
C197 C193 1.377 . S
C197 C196 1.394 . S
H198 C204 0.930 . S
H199 C207 0.930 . S
H200 C208 0.930 . S
H201 C209 0.930 . S
H202 C212 0.930 . S
H203 C213 0.930 . S
C204 H198 0.930 . S
C204 C205 1.355 . S
C204 C206 1.415 . S
C205 C204 1.355 . S
C205 C207 1.419 . S
C206 C204 1.415 . S
C206 C211 1.425 . S
C206 C213 1.409 . S
C207 H199 0.930 . S
C207 C205 1.419 . S
C207 C208 1.362 . S
C208 H200 0.930 . S
C208 C207 1.362 . S
C208 C211 1.409 . S
C209 H201 0.930 . S
C209 C210 1.355 . S
C209 C211 1.415 . S
C210 C209 1.355 . S
C210 C212 1.419 . S
C211 C206 1.425 . S
C211 C208 1.409 . S
C211 C209 1.415 . S
C212 H202 0.930 . S
C212 C210 1.419 . S
C212 C213 1.362 . S
C213 H203 0.930 . S
C213 C206 1.409 . S
C213 C212 1.362 . S
H214 C220 0.930 . S
H215 C223 0.930 . S
H216 C224 0.930 . S
H217 C225 0.930 . S
H218 C228 0.930 . S
H219 C229 0.930 . S
C220 H214 0.930 . S
C220 C221 1.355 . S
C220 C222 1.415 . S
C221 C220 1.355 . S
C221 C223 1.419 . S
C222 C220 1.415 . S
C222 C227 1.425 . S
C222 C229 1.409 . S
C223 H215 0.930 . S
C223 C221 1.419 . S
C223 C224 1.362 . S
C224 H216 0.930 . S
C224 C223 1.362 . S
C224 C227 1.409 . S
C225 H217 0.930 . S
C225 C226 1.355 . S
C225 C227 1.415 . S
C226 C225 1.355 . S
C226 C228 1.419 . S
C227 C222 1.425 . S
C227 C224 1.409 . S
C227 C225 1.415 . S
C228 H218 0.930 . S
C228 C226 1.419 . S
C228 C229 1.362 . S
C229 H219 0.930 . S
C229 C222 1.409 . S
C229 C228 1.362 . S
H230 C236 0.930 . S
H231 C239 0.930 . S
H232 C240 0.930 . S
H233 C241 0.930 . S
H234 C244 0.930 . S
H235 C245 0.930 . S
C236 H230 0.930 . S
C236 C237 1.355 . S
C236 C238 1.415 . S
C237 C236 1.355 . S
C237 C239 1.419 . S
C238 C236 1.415 . S
C238 C243 1.425 . S
C238 C245 1.409 . S
C239 H231 0.930 . S
C239 C237 1.419 . S
C239 C240 1.362 . S
C240 H232 0.930 . S
C240 C239 1.362 . S
C240 C243 1.409 . S
C241 H233 0.930 . S
C241 C242 1.355 . S
C241 C243 1.415 . S
C242 C241 1.355 . S
C242 C244 1.419 . S
C243 C238 1.425 . S
C243 C240 1.409 . S
C243 C241 1.415 . S
C244 H234 0.930 . S
C244 C242 1.419 . S
C244 C245 1.362 . S
C245 H235 0.930 . S
C245 C238 1.409 . S
C245 C244 1.362 . S
H246 C252 0.930 . S
H247 C255 0.930 . S
H248 C256 0.930 . S
H249 C257 0.930 . S
H250 C260 0.930 . S
H251 C261 0.930 . S
C252 H246 0.930 . S
C252 C253 1.355 . S
C252 C254 1.415 . S
C253 C252 1.355 . S
C253 C255 1.419 . S
C254 C252 1.415 . S
C254 C259 1.425 . S
C254 C261 1.409 . S
C255 H247 0.930 . S
C255 C253 1.419 . S
C255 C256 1.362 . S
C256 H248 0.930 . S
C256 C255 1.362 . S
C256 C259 1.409 . S
C257 H249 0.930 . S
C257 C258 1.355 . S
C257 C259 1.415 . S
C258 C257 1.355 . S
C258 C260 1.419 . S
C259 C254 1.425 . S
C259 C256 1.409 . S
C259 C257 1.415 . S
C260 H250 0.930 . S
C260 C258 1.419 . S
C260 C261 1.362 . S
C261 H251 0.930 . S
C261 C254 1.409 . S
C261 C260 1.362 . S
H262 C268 0.930 . S
H263 C271 0.930 . S
H264 C272 0.930 . S
H265 C273 0.930 . S
H266 C276 0.930 . S
H267 C277 0.930 . S
C268 H262 0.930 . S
C268 C269 1.355 . S
C268 C270 1.415 . S
C269 C268 1.355 . S
C269 C271 1.419 . S
C270 C268 1.415 . S
C270 C275 1.425 . S
C270 C277 1.409 . S
C271 H263 0.930 . S
C271 C269 1.419 . S
C271 C272 1.362 . S
C272 H264 0.930 . S
C272 C271 1.362 . S
C272 C275 1.409 . S
C273 H265 0.930 . S
C273 C274 1.355 . S
C273 C275 1.415 . S
C274 C273 1.355 . S
C274 C276 1.419 . S
C275 C270 1.425 . S
C275 C272 1.409 . S
C275 C273 1.415 . S
C276 H266 0.930 . S
C276 C274 1.419 . S
C276 C277 1.362 . S
C277 H267 0.930 . S
C277 C270 1.409 . S
C277 C276 1.362 . S
H278 C284 0.930 . S
H279 C287 0.930 . S
H280 C288 0.930 . S
H281 C289 0.930 . S
H282 C292 0.930 . S
H283 C293 0.930 . S
C284 H278 0.930 . S
C284 C285 1.355 . S
C284 C286 1.415 . S
C285 C284 1.355 . S
C285 C287 1.419 . S
C286 C284 1.415 . S
C286 C291 1.425 . S
C286 C293 1.409 . S
C287 H279 0.930 . S
C287 C285 1.419 . S
C287 C288 1.362 . S
C288 H280 0.930 . S
C288 C287 1.362 . S
C288 C291 1.409 . S
C289 H281 0.930 . S
C289 C290 1.355 . S
C289 C291 1.415 . S
C290 C289 1.355 . S
C290 C292 1.419 . S
C291 C286 1.425 . S
C291 C288 1.409 . S
C291 C289 1.415 . S
C292 H282 0.930 . S
C292 C290 1.419 . S
C292 C293 1.362 . S
C293 H283 0.930 . S
C293 C286 1.409 . S
C293 C292 1.362 . S
H294 C300 0.930 . S
H295 C303 0.930 . S
H296 C304 0.930 . S
H297 C305 0.930 . S
H298 C308 0.930 . S
H299 C309 0.930 . S
C300 H294 0.930 . S
C300 C301 1.355 . S
C300 C302 1.415 . S
C301 C300 1.355 . S
C301 C303 1.419 . S
C302 C300 1.415 . S
C302 C307 1.425 . S
C302 C309 1.409 . S
C303 H295 0.930 . S
C303 C301 1.419 . S
C303 C304 1.362 . S
C304 H296 0.930 . S
C304 C303 1.362 . S
C304 C307 1.409 . S
C305 H297 0.930 . S
C305 C306 1.355 . S
C305 C307 1.415 . S
C306 C305 1.355 . S
C306 C308 1.419 . S
C307 C302 1.425 . S
C307 C304 1.409 . S
C307 C305 1.415 . S
C308 H298 0.930 . S
C308 C306 1.419 . S
C308 C309 1.362 . S
C309 H299 0.930 . S
C309 C302 1.409 . S
C309 C308 1.362 . S
H310 C316 0.930 . S
H311 C319 0.930 . S
H312 C320 0.930 . S
H313 C321 0.930 . S
H314 C324 0.930 . S
H315 C325 0.930 . S
C316 H310 0.930 . S
C316 C317 1.355 . S
C316 C318 1.415 . S
C317 C316 1.355 . S
C317 C319 1.419 . S
C318 C316 1.415 . S
C318 C323 1.425 . S
C318 C325 1.409 . S
C319 H311 0.930 . S
C319 C317 1.419 . S
C319 C320 1.362 . S
C320 H312 0.930 . S
C320 C319 1.362 . S
C320 C323 1.409 . S
C321 H313 0.930 . S
C321 C322 1.355 . S
C321 C323 1.415 . S
C322 C321 1.355 . S
C322 C324 1.419 . S
C323 C318 1.425 . S
C323 C320 1.409 . S
C323 C321 1.415 . S
C324 H314 0.930 . S
C324 C322 1.419 . S
C324 C325 1.362 . S
C325 H315 0.930 . S
C325 C318 1.409 . S
C325 C324 1.362 . S
H326 C332 0.930 . S
H327 C335 0.930 . S
H328 C336 0.930 . S
H329 C337 0.930 . S
H330 C340 0.930 . S
H331 C341 0.930 . S
C332 H326 0.930 . S
C332 C333 1.355 . S
C332 C334 1.415 . S
C333 C332 1.355 . S
C333 C335 1.419 . S
C334 C332 1.415 . S
C334 C339 1.425 . S
C334 C341 1.409 . S
C335 H327 0.930 . S
C335 C333 1.419 . S
C335 C336 1.362 . S
C336 H328 0.930 . S
C336 C335 1.362 . S
C336 C339 1.409 . S
C337 H329 0.930 . S
C337 C338 1.355 . S
C337 C339 1.415 . S
C338 C337 1.355 . S
C338 C340 1.419 . S
C339 C334 1.425 . S
C339 C336 1.409 . S
C339 C337 1.415 . S
C340 H330 0.930 . S
C340 C338 1.419 . S
C340 C341 1.362 . S
C341 H331 0.930 . S
C341 C334 1.409 . S
C341 C340 1.362 . S
H342 C348 0.930 . S
H343 C351 0.930 . S
H344 C352 0.930 . S
H345 C353 0.930 . S
H346 C356 0.930 . S
H347 C357 0.930 . S
C348 H342 0.930 . S
C348 C349 1.355 . S
C348 C350 1.415 . S
C349 C348 1.355 . S
C349 C351 1.419 . S
C350 C348 1.415 . S
C350 C355 1.425 . S
C350 C357 1.409 . S
C351 H343 0.930 . S
C351 C349 1.419 . S
C351 C352 1.362 . S
C352 H344 0.930 . S
C352 C351 1.362 . S
C352 C355 1.409 . S
C353 H345 0.930 . S
C353 C354 1.355 . S
C353 C355 1.415 . S
C354 C353 1.355 . S
C354 C356 1.419 . S
C355 C350 1.425 . S
C355 C352 1.409 . S
C355 C353 1.415 . S
C356 H346 0.930 . S
C356 C354 1.419 . S
C356 C357 1.362 . S
C357 H347 0.930 . S
C357 C350 1.409 . S
C357 C356 1.362 . S
H358 C364 0.930 . S
H359 C367 0.930 . S
H360 C368 0.930 . S
H361 C369 0.930 . S
H362 C372 0.930 . S
H363 C373 0.930 . S
C364 H358 0.930 . S
C364 C365 1.355 . S
C364 C366 1.415 . S
C365 C364 1.355 . S
C365 C367 1.419 . S
C366 C364 1.415 . S
C366 C371 1.425 . S
C366 C373 1.409 . S
C367 H359 0.930 . S
C367 C365 1.419 . S
C367 C368 1.362 . S
C368 H360 0.930 . S
C368 C367 1.362 . S
C368 C371 1.409 . S
C369 H361 0.930 . S
C369 C370 1.355 . S
C369 C371 1.415 . S
C370 C369 1.355 . S
C370 C372 1.419 . S
C371 C366 1.425 . S
C371 C368 1.409 . S
C371 C369 1.415 . S
C372 H362 0.930 . S
C372 C370 1.419 . S
C372 C373 1.362 . S
C373 H363 0.930 . S
C373 C366 1.409 . S
C373 C372 1.362 . S
H374 C380 0.930 . S
H375 C383 0.930 . S
H376 C384 0.930 . S
H377 C385 0.930 . S
H378 C388 0.930 . S
H379 C389 0.930 . S
C380 H374 0.930 . S
C380 C381 1.355 . S
C380 C382 1.415 . S
C381 C380 1.355 . S
C381 C383 1.419 . S
C382 C380 1.415 . S
C382 C387 1.425 . S
C382 C389 1.409 . S
C383 H375 0.930 . S
C383 C381 1.419 . S
C383 C384 1.362 . S
C384 H376 0.930 . S
C384 C383 1.362 . S
C384 C387 1.409 . S
C385 H377 0.930 . S
C385 C386 1.355 . S
C385 C387 1.415 . S
C386 C385 1.355 . S
C386 C388 1.419 . S
C387 C382 1.425 . S
C387 C384 1.409 . S
C387 C385 1.415 . S
C388 H378 0.930 . S
C388 C386 1.419 . S
C388 C389 1.362 . S
C389 H379 0.930 . S
C389 C382 1.409 . S
C389 C388 1.362 . S
H390 C396 0.930 . S
H391 C399 0.930 . S
H392 C400 0.930 . S
H393 C401 0.930 . S
H394 C404 0.930 . S
H395 C405 0.930 1_554 S
C396 H390 0.930 . S
C396 C397 1.355 . S
C396 C398 1.415 . S
C397 C396 1.355 . S
C397 C399 1.419 . S
C398 C396 1.415 . S
C398 C403 1.425 . S
C398 C405 1.409 1_554 S
C399 H391 0.930 . S
C399 C397 1.419 . S
C399 C400 1.362 . S
C400 H392 0.930 . S
C400 C399 1.362 . S
C400 C403 1.409 . S
C401 H393 0.930 . S
C401 C402 1.355 . S
C401 C403 1.415 1_556 S
C402 C401 1.355 . S
C402 C404 1.419 . S
C403 C398 1.425 . S
C403 C400 1.409 . S
C403 C401 1.415 1_554 S
C404 H394 0.930 . S
C404 C402 1.419 . S
C404 C405 1.362 . S
C405 H395 0.930 1_556 S
C405 C398 1.409 1_556 S
C405 C404 1.362 . S
H406 C412 0.930 . S
H407 C415 0.930 . S
H408 C416 0.930 . S
H409 C417 0.930 1_565 S
H410 C420 0.930 . S
H411 C421 0.930 . S
C412 H406 0.930 . S
C412 C413 1.355 . S
C412 C414 1.415 . S
C413 C412 1.355 . S
C413 C415 1.419 1_545 S
C414 C412 1.415 . S
C414 C419 1.425 . S
C414 C421 1.409 . S
C415 H407 0.930 . S
C415 C413 1.419 1_565 S
C415 C416 1.362 . S
C416 H408 0.930 . S
C416 C415 1.362 . S
C416 C419 1.409 1_565 S
C417 H409 0.930 1_545 S
C417 C418 1.355 . S
C417 C419 1.415 . S
C418 C417 1.355 . S
C418 C420 1.419 . S
C419 C414 1.425 . S
C419 C416 1.409 1_545 S
C419 C417 1.415 . S
C420 H410 0.930 . S
C420 C418 1.419 . S
C420 C421 1.362 . S
C421 H411 0.930 . S
C421 C414 1.409 . S
C421 C420 1.362 . S
H422 C428 0.930 . S
H423 C431 0.930 . S
H424 C432 0.930 . S
H425 C433 0.930 . S
H426 C436 0.930 . S
H427 C437 0.930 . S
C428 H422 0.930 . S
C428 C429 1.355 . S
C428 C430 1.415 . S
C429 C428 1.355 . S
C429 C431 1.419 . S
C430 C428 1.415 . S
C430 C435 1.425 . S
C430 C437 1.409 . S
C431 H423 0.930 . S
C431 C429 1.419 . S
C431 C432 1.362 . S
C432 H424 0.930 . S
C432 C431 1.362 . S
C432 C435 1.409 . S
C433 H425 0.930 . S
C433 C434 1.355 . S
C433 C435 1.415 . S
C434 C433 1.355 . S
C434 C436 1.419 . S
C435 C430 1.425 . S
C435 C432 1.409 . S
C435 C433 1.415 . S
C436 H426 0.930 . S
C436 C434 1.419 . S
C436 C437 1.362 . S
C437 H427 0.930 . S
C437 C430 1.409 . S
C437 C436 1.362 . S
H438 C444 0.930 . S
H439 C447 0.930 . S
H440 C448 0.930 . S
H441 C449 0.930 . S
H442 C452 0.930 . S
H443 C453 0.930 . S
C444 H438 0.930 . S
C444 C445 1.355 . S
C444 C446 1.415 . S
C445 C444 1.355 . S
C445 C447 1.419 1_545 S
C446 C444 1.415 . S
C446 C451 1.425 1_545 S
C446 C453 1.409 . S
C447 H439 0.930 . S
C447 C445 1.419 1_565 S
C447 C448 1.362 . S
C448 H440 0.930 . S
C448 C447 1.362 . S
C448 C451 1.409 . S
C449 H441 0.930 . S
C449 C450 1.353 1_565 S
C449 C451 1.415 . S
C450 C449 1.353 1_545 S
C450 C452 1.421 . S
C451 C446 1.425 1_565 S
C451 C448 1.409 . S
C451 C449 1.415 . S
C452 H442 0.930 . S
C452 C450 1.421 . S
C452 C453 1.362 . S
C453 H443 0.930 . S
C453 C446 1.409 . S
C453 C452 1.362 . S
H454 C460 0.930 . S
H455 C463 0.930 . S
H456 C464 0.930 . S
H457 C465 0.930 . S
H458 C468 0.930 . S
H459 C469 0.930 . S
C460 H454 0.930 . S
C460 C461 1.355 . S
C460 C462 1.415 . S
C461 C460 1.355 . S
C461 C463 1.419 . S
C462 C460 1.415 . S
C462 C467 1.425 . S
C462 C469 1.409 1_556 S
C463 H455 0.930 . S
C463 C461 1.419 . S
C463 C464 1.362 . S
C464 H456 0.930 . S
C464 C463 1.362 . S
C464 C467 1.409 . S
C465 H457 0.930 . S
C465 C466 1.355 . S
C465 C467 1.415 1_554 S
C466 C465 1.355 . S
C466 C468 1.419 . S
C467 C462 1.425 . S
C467 C464 1.409 . S
C467 C465 1.415 1_556 S
C468 H458 0.930 . S
C468 C466 1.419 . S
C468 C469 1.362 . S
C469 H459 0.930 . S
C469 C462 1.409 1_554 S
C469 C468 1.362 . S
H470 C476 0.930 . S
H471 C479 0.930 . S
H472 C480 0.930 . S
H473 C481 0.930 . S
H474 C484 0.930 . S
H475 C485 0.930 . S
C476 H470 0.930 . S
C476 C477 1.355 1_455 S
C476 C478 1.415 . S
C477 C476 1.355 1_655 S
C477 C479 1.419 . S
C478 C476 1.415 . S
C478 C483 1.425 1_455 S
C478 C485 1.409 . S
C479 H471 0.930 . S
C479 C477 1.419 . S
C479 C480 1.362 . S
C480 H472 0.930 . S
C480 C479 1.362 . S
C480 C483 1.409 . S
C481 H473 0.930 . S
C481 C482 1.355 . S
C481 C483 1.415 . S
C482 C481 1.355 . S
C482 C484 1.419 1_655 S
C483 C478 1.425 1_655 S
C483 C480 1.409 . S
C483 C481 1.415 . S
C484 H474 0.930 . S
C484 C482 1.419 1_455 S
C484 C485 1.362 . S
C485 H475 0.930 . S
C485 C478 1.409 . S
C485 C484 1.362 . S
C205 C25 0.594 . S
C210 C189 0.464 . S
C221 C65 0.358 . S
C226 C167 0.325 . S
C237 C105 0.669 . S
C242 C180 0.548 . S
C253 C4 0.364 . S
C258 C193 0.300 . S
C274 C163 0.582 . S
C269 C44 0.634 . S
C290 C176 0.607 . S
C285 C84 0.519 . S
C301 C60 2.928 . S
C306 C141 2.900 . S
C317 C100 3.032 . S
C322 C154 2.991 1_655 S
C333 C31 3.129 . S
C338 C124 2.916 . S
C354 C137 2.966 . S
C349 C71 3.135 . S
C370 C150 2.825 . S
C365 C111 3.029 . S
C381 C20 2.937 . S
C386 C128 2.896 . S
C402 C155 1.768 . S
C397 C2 1.702 . S
C413 C42 1.680 . S
C418 C129 1.782 . S
C429 C82 1.698 . S
C434 C142 1.809 . S
C450 C181 1.217 1_545 S
C445 C63 1.244 . S
C466 C194 1.264 . S
C461 C103 1.291 . S
C477 C23 1.183 1_655 S
C482 C168 1.231 . S
