# Generated by pormake.
# Topology pyr, (3,6)-cn, num edge types: 1
# Building blocks:
#     Node 0, Type 0, BuildingBlock: QEWDON_clean_linker_0, # of connection points: 3
#     Node 1, Type 0, BuildingBlock: QEWDON_clean_linker_0, # of connection points: 3
#     Node 2, Type 0, BuildingBlock: QEWDON_clean_linker_0, # of connection points: 3
#     Node 3, Type 0, BuildingBlock: QEWDON_clean_linker_0, # of connection points: 3
#     Node 4, Type 0, BuildingBlock: QEWDON_clean_linker_0, # of connection points: 3
#     Node 5, Type 0, BuildingBlock: QEWDON_clean_linker_0, # of connection points: 3
#     Node 6, Type 0, BuildingBlock: QEWDON_clean_linker_0, # of connection points: 3
#     Node 7, Type 0, BuildingBlock: QEWDON_clean_linker_0, # of connection points: 3
#     Node 8, Type 1, BuildingBlock: INOVEN_clean_sbu_0, # of connection points: 6
#     Node 9, Type 1, BuildingBlock: INOVEN_clean_sbu_0, # of connection points: 6
#     Node 10, Type 1, BuildingBlock: INOVEN_clean_sbu_0, # of connection points: 6
#     Node 11, Type 1, BuildingBlock: INOVEN_clean_sbu_0, # of connection points: 6
#     Edge 12, Type (0, 1), BuildingBlock: CIFDUS_clean_linker_0, # of connection points: 2
#     Edge 13, Type (0, 1), BuildingBlock: CIFDUS_clean_linker_0, # of connection points: 2
#     Edge 14, Type (0, 1), BuildingBlock: CIFDUS_clean_linker_0, # of connection points: 2
#     Edge 15, Type (0, 1), BuildingBlock: CIFDUS_clean_linker_0, # of connection points: 2
#     Edge 16, Type (0, 1), BuildingBlock: CIFDUS_clean_linker_0, # of connection points: 2
#     Edge 17, Type (0, 1), BuildingBlock: CIFDUS_clean_linker_0, # of connection points: 2
#     Edge 18, Type (0, 1), BuildingBlock: CIFDUS_clean_linker_0, # of connection points: 2
#     Edge 19, Type (0, 1), BuildingBlock: CIFDUS_clean_linker_0, # of connection points: 2
#     Edge 20, Type (0, 1), BuildingBlock: CIFDUS_clean_linker_0, # of connection points: 2
#     Edge 21, Type (0, 1), BuildingBlock: CIFDUS_clean_linker_0, # of connection points: 2
#     Edge 22, Type (0, 1), BuildingBlock: CIFDUS_clean_linker_0, # of connection points: 2
#     Edge 23, Type (0, 1), BuildingBlock: CIFDUS_clean_linker_0, # of connection points: 2
#     Edge 24, Type (0, 1), BuildingBlock: CIFDUS_clean_linker_0, # of connection points: 2
#     Edge 25, Type (0, 1), BuildingBlock: CIFDUS_clean_linker_0, # of connection points: 2
#     Edge 26, Type (0, 1), BuildingBlock: CIFDUS_clean_linker_0, # of connection points: 2
#     Edge 27, Type (0, 1), BuildingBlock: CIFDUS_clean_linker_0, # of connection points: 2
#     Edge 28, Type (0, 1), BuildingBlock: CIFDUS_clean_linker_0, # of connection points: 2
#     Edge 29, Type (0, 1), BuildingBlock: CIFDUS_clean_linker_0, # of connection points: 2
#     Edge 30, Type (0, 1), BuildingBlock: CIFDUS_clean_linker_0, # of connection points: 2
#     Edge 31, Type (0, 1), BuildingBlock: CIFDUS_clean_linker_0, # of connection points: 2
#     Edge 32, Type (0, 1), BuildingBlock: CIFDUS_clean_linker_0, # of connection points: 2
#     Edge 33, Type (0, 1), BuildingBlock: CIFDUS_clean_linker_0, # of connection points: 2
#     Edge 34, Type (0, 1), BuildingBlock: CIFDUS_clean_linker_0, # of connection points: 2
#     Edge 35, Type (0, 1), BuildingBlock: CIFDUS_clean_linker_0, # of connection points: 2
# Relax obj value: 0.184
# Max RMSD: 0.264
# Mean RMSD: 0.196
data_MOF--net-pyr--node1-INOVEN_clean_sbu_0--node2-QEWDON_clean_linker_0--edge1-CIFDUS_clean_linker_0
_symmetry_space_group_name_H-M    P1
_symmetry_Int_Tables_number       1
_symmetry_cell_setting            triclinic
loop_
_symmetry_equiv_pos_as_xyz
'x, y, z'
_cell_length_a     33.856108
_cell_length_b     36.586038
_cell_length_c     34.528687
_cell_angle_alpha  91.886166
_cell_angle_beta   89.828783
_cell_angle_gamma 110.89196
loop_
_atom_site_label
_atom_site_type_symbol
_atom_site_fract_x
_atom_site_fract_y
_atom_site_fract_z
_atom_type_partial_charge
H0 H 0.46081 0.36575 0.19314 0.0
C1 C 0.43887 0.35289 0.21614 0.0
C2 C 0.43219 0.31446 0.22673 0.0
C3 C 0.41577 0.37398 0.23372 0.0
H4 H 0.39778 0.26771 0.26356 0.0
C5 C 0.40297 0.2975 0.25571 0.0
C6 C 0.37845 0.31755 0.27265 0.0
C7 C 0.38552 0.35606 0.26182 0.0
C8 C 0.42081 0.41354 0.22058 0.0
H9 H 0.36651 0.37175 0.27425 0.0
C10 C 0.38495 0.4227 0.21191 0.0
C11 C 0.38902 0.45989 0.19893 0.0
C12 C 0.46116 0.44199 0.2159 0.0
H13 H 0.48929 0.43568 0.22247 0.0
C14 C 0.46549 0.47905 0.20312 0.0
H15 H 0.3538 0.40037 0.21417 0.0
C16 C 0.42971 0.48803 0.19465 0.0
H17 H 0.43389 0.51706 0.18509 0.0
H18 H 0.49669 0.50092 0.19982 0.0
H19 H 0.2007 0.89581 0.73183 0.0
C20 C 0.22508 0.88403 0.72467 0.0
C21 C 0.25574 0.88564 0.75272 0.0
C22 C 0.22548 0.86649 0.68778 0.0
H23 H 0.31102 0.87159 0.76493 0.0
C24 C 0.28705 0.87003 0.74353 0.0
C25 C 0.28831 0.85302 0.70688 0.0
C26 C 0.25747 0.8513 0.67922 0.0
C27 C 0.19337 0.8643 0.65755 0.0
H28 H 0.2592 0.83908 0.65052 0.0
C29 C 0.18008 0.89612 0.65152 0.0
C30 C 0.15319 0.89544 0.61999 0.0
C31 C 0.1776 0.83076 0.63302 0.0
H32 H 0.1862 0.80538 0.6375 0.0
C33 C 0.15114 0.82971 0.60197 0.0
H34 H 0.19144 0.92151 0.67099 0.0
C35 C 0.13969 0.86187 0.595 0.0
H36 H 0.12076 0.86031 0.5694 0.0
H37 H 0.14002 0.80405 0.58275 0.0
H38 H 0.74269 0.46903 0.9006 0.0
C39 C 0.72583 0.44285 0.91615 0.0
C40 C 0.74149 0.43673 0.95242 0.0
C41 C 0.69065 0.41368 0.89824 0.0
H42 H 0.73058 0.39781 0.99992 0.0
C43 C 0.71997 0.40162 0.97132 0.0
C44 C 0.6857 0.37123 0.95382 0.0
C45 C 0.67102 0.37809 0.91747 0.0
C46 C 0.67915 0.4165 0.85661 0.0
H47 H 0.64546 0.35493 0.9029 0.0
C48 C 0.67065 0.44894 0.84162 0.0
C49 C 0.66044 0.44927 0.80156 0.0
C50 C 0.67739 0.38526 0.831 0.0
H51 H 0.68438 0.36047 0.84107 0.0
C52 C 0.66718 0.38546 0.79207 0.0
H53 H 0.672 0.47342 0.86074 0.0
C54 C 0.65871 0.4169 0.77754 0.0
H55 H 0.65035 0.41568 0.74713 0.0
H56 H 0.66583 0.36098 0.77295 0.0
H57 H 0.93936 0.83483 0.407 0.0
C58 C 0.91252 0.81258 0.41973 0.0
C59 C 0.89981 0.81922 0.45741 0.0
C60 C 0.8903 0.77806 0.39774 0.0
H61 H 0.85308 0.79647 0.50125 0.0
C62 C 0.86408 0.79059 0.47306 0.0
C63 C 0.84058 0.75605 0.45171 0.0
C64 C 0.85447 0.7499 0.41409 0.0
C65 C 0.90011 0.77574 0.3555 0.0
H66 H 0.83643 0.72408 0.39684 0.0
C67 C 0.91272 0.74583 0.33805 0.0
C68 C 0.92294 0.74648 0.29781 0.0
C69 C 0.8973 0.80551 0.33229 0.0
H70 H 0.88755 0.82855 0.34464 0.0
C71 C 0.90701 0.80622 0.29311 0.0
H72 H 0.91498 0.7227 0.35568 0.0
C73 C 0.91993 0.77737 0.27612 0.0
H74 H 0.92862 0.78002 0.24586 0.0
H75 H 0.90501 0.82966 0.27581 0.0
H76 H 0.70416 0.79932 0.98521 0.0
C77 C 0.72529 0.82343 0.9692 0.0
C78 C 0.76907 0.83134 0.97019 0.0
C79 C 0.70899 0.84717 0.94791 0.0
H80 H 0.82963 0.86732 0.94824 0.0
C81 C 0.79604 0.86226 0.94897 0.0
C82 C 0.77997 0.88485 0.92636 0.0
C83 C 0.73648 0.87756 0.92624 0.0
C84 C 0.66316 0.83978 0.94674 0.0
H85 H 0.72392 0.89493 0.90857 0.0
C86 C 0.64811 0.86993 0.95708 0.0
C87 C 0.60481 0.86427 0.95352 0.0
C88 C 0.63465 0.8034 0.93334 0.0
H89 H 0.64572 0.7799 0.92505 0.0
C90 C 0.59183 0.79756 0.92928 0.0
H91 H 0.67031 0.89748 0.96856 0.0
C92 C 0.577 0.82773 0.93892 0.0
H93 H 0.54372 0.82237 0.9346 0.0
H94 H 0.57006 0.76963 0.91823 0.0
H95 H 0.75872 0.17751 0.59515 0.0
C96 C 0.75344 0.17397 0.56411 0.0
C97 C 0.78139 0.16305 0.5403 0.0
C98 C 0.71898 0.18128 0.54829 0.0
H99 H 0.79463 0.15007 0.48125 0.0
C100 C 0.77455 0.16008 0.49995 0.0
C101 C 0.74115 0.16875 0.4834 0.0
C102 C 0.71339 0.17926 0.5079 0.0
C103 C 0.68878 0.19071 0.57434 0.0
H104 H 0.68725 0.18564 0.4956 0.0
C105 C 0.67576 0.22227 0.56699 0.0
C106 C 0.6484 0.23207 0.5926 0.0
C107 C 0.67353 0.16853 0.60729 0.0
H108 H 0.68273 0.14381 0.61341 0.0
C109 C 0.64602 0.17788 0.63251 0.0
H110 H 0.6881 0.24004 0.54213 0.0
C111 C 0.6336 0.20953 0.62538 0.0
H112 H 0.6122 0.21625 0.64534 0.0
H113 H 0.63437 0.16058 0.65775 0.0
H114 H 0.46011 0.8424 0.26759 0.0
C115 C 0.42826 0.82406 0.25893 0.0
C116 C 0.40447 0.83933 0.23513 0.0
C117 C 0.41271 0.78465 0.26971 0.0
H118 H 0.34518 0.82636 0.20532 0.0
C119 C 0.36394 0.81431 0.22255 0.0
C120 C 0.34744 0.77436 0.23228 0.0
C121 C 0.37245 0.76011 0.25617 0.0
C122 C 0.44248 0.76771 0.28736 0.0
H123 H 0.36201 0.72931 0.2624 0.0
C124 C 0.43773 0.75203 0.32508 0.0
C125 C 0.46746 0.73615 0.33932 0.0
C126 C 0.47696 0.7674 0.26483 0.0
H127 H 0.48132 0.77906 0.23602 0.0
C128 C 0.50594 0.75186 0.27873 0.0
H129 H 0.4114 0.75211 0.34292 0.0
C130 C 0.50126 0.73637 0.31546 0.0
H131 H 0.52459 0.72476 0.3255 0.0
H132 H 0.53227 0.75182 0.26089 0.0
H133 H 0.2961 0.49108 0.7788 0.0
C134 C 0.2724 0.46403 0.76791 0.0
C135 C 0.28043 0.44636 0.73346 0.0
C136 C 0.23625 0.44519 0.79057 0.0
H137 H 0.25743 0.39633 0.69443 0.0
C138 C 0.25067 0.41032 0.72049 0.0
C139 C 0.21391 0.39087 0.74164 0.0
C140 C 0.20703 0.40854 0.77701 0.0
C141 C 0.23563 0.45972 0.83179 0.0
H142 H 0.18019 0.3931 0.79475 0.0
C143 C 0.20326 0.47193 0.84799 0.0
C144 C 0.20692 0.48763 0.887 0.0
C145 C 0.27049 0.46249 0.85519 0.0
H146 H 0.29538 0.45306 0.84401 0.0
C147 C 0.27437 0.47787 0.89285 0.0
H148 H 0.17605 0.46965 0.83035 0.0
C149 C 0.24351 0.49075 0.90837 0.0
H150 H 0.24918 0.50405 0.93724 0.0
H151 H 0.30196 0.48041 0.91007 0.0
Gd152 Gd 0.06685 0.12875 0.54774 0.0
Gd153 Gd 0.04684 0.09397 0.62677 0.0
C154 C 0.09782 0.18555 0.62474 0.0
C155 C 0.08057 0.17016 0.48655 0.0
C156 C 0.11878 0.19294 0.46548 0.0
C157 C 0.1515 0.17835 0.45918 0.0
C158 C 0.12294 0.22982 0.45185 0.0
C159 C 0.19114 0.23638 0.42415 0.0
C160 C 0.159 0.25151 0.43146 0.0
C161 C 0.18723 0.19978 0.43848 0.0
C162 C 0.12241 0.09635 0.57363 0.0
C163 C 1.00894 0.0389 0.54883 0.0
C164 C 0.03856 0.05373 0.68838 0.0
C165 C 1.0026 1.02814 0.70992 0.0
C166 C 0.96111 1.02286 0.69857 0.0
C167 C 1.00977 1.01189 0.74408 0.0
C168 C 0.93426 0.98733 0.75705 0.0
C169 C 0.97587 0.99153 0.76745 0.0
C170 C 0.92713 1.00253 0.72196 0.0
C171 C 0.98992 0.12406 0.60053 0.0
O172 O 0.08447 0.18206 0.58839 0.0
O173 O 0.09342 0.15405 0.64459 0.0
O174 O 0.07078 0.13221 0.48544 0.0
O175 O 0.07609 0.18406 0.52095 0.0
O176 O 0.11243 0.09707 0.53768 0.0
O177 O 0.10536 0.11593 0.59353 0.0
O178 O 1.0218 0.04009 0.58535 0.0
O179 O 1.01554 0.07177 0.53055 0.0
O180 O 0.04186 0.09039 0.68888 0.0
O181 O 0.04514 0.0408 0.6541 0.0
O182 O 0.99677 0.12104 0.63692 0.0
O183 O 1.00845 0.10601 0.58065 0.0
H184 H 0.14939 0.15025 0.46997 0.0
H185 H 0.09815 0.24166 0.45672 0.0
H186 H 0.16125 0.27959 0.42051 0.0
H187 H 0.21183 0.18771 0.43359 0.0
H188 H 0.95519 0.03557 0.6723 0.0
H189 H 0.04167 1.01583 0.75321 0.0
H190 H 0.98227 0.97948 0.79394 0.0
H191 H 0.89551 0.99995 0.71328 0.0
Gd192 Gd 0.57171 0.10828 0.10466 0.0
Gd193 Gd 0.49566 0.09268 0.06003 0.0
C194 C 0.51198 0.15122 0.13602 0.0
C195 C 0.64461 0.12355 0.13736 0.0
C196 C 0.65616 0.12568 0.17882 0.0
C197 C 0.63337 0.09576 0.20353 0.0
C198 C 0.68762 0.15924 0.19469 0.0
C199 C 0.67186 0.13376 0.25958 0.0
C200 C 0.69543 0.16328 0.23471 0.0
C201 C 0.64129 0.09968 0.24336 0.0
C202 C 0.50552 0.04679 0.13196 0.0
C203 C 0.55765 0.0532 1.02921 0.0
C204 C 0.41877 0.07208 0.03407 0.0
C205 C 0.38897 0.03979 1.01095 0.0
C206 C 0.35045 0.04224 0.99925 0.0
C207 C 0.40024 1.00833 0.99749 0.0
C208 C 0.33605 0.98366 0.95799 0.0
C209 C 0.37395 0.98044 0.97123 0.0
C210 C 0.32411 1.01436 0.973 0.0
C211 C 0.56066 0.15386 1.03133 0.0
O212 O 0.54966 0.14922 0.13988 0.0
O213 O 0.48524 0.13058 0.10893 0.0
O214 O 0.62197 0.08894 0.12293 0.0
O215 O 0.63125 0.15087 0.126 0.0
O216 O 0.53235 0.07381 0.15352 0.0
O217 O 0.51495 0.05369 0.09691 0.0
O218 O 0.51714 0.04621 0.03441 0.0
O219 O 0.58597 0.08331 0.04762 0.0
O220 O 0.45178 0.09416 1.01539 0.0
O221 O 0.42819 0.06401 0.0687 0.0
O222 O 0.53345 0.12597 1.01074 0.0
O223 O 0.55265 0.14763 0.06697 0.0
H224 H 0.60869 0.06957 0.19228 0.0
H225 H 0.70532 0.18283 0.17625 0.0
H226 H 0.71894 0.19006 0.24626 0.0
H227 H 0.62312 0.07605 0.26152 0.0
H228 H 0.3414 0.06645 1.00942 0.0
H229 H 0.43007 1.0062 1.00613 0.0
H230 H 0.38439 0.95749 0.95986 0.0
H231 H 0.29494 1.01738 0.9637 0.0
Gd232 Gd 0.5564 0.56821 0.5589 0.0
Gd233 Gd 0.55687 0.63415 0.6086 0.0
C234 C 0.59559 0.57347 0.64311 0.0
C235 C 0.56475 0.5172 0.5092 0.0
C236 C 0.56758 0.47836 0.51249 0.0
C237 C 0.55233 0.4565 0.54548 0.0
C238 C 0.58865 0.46434 0.48404 0.0
C239 C 0.58099 0.40758 0.52241 0.0
C240 C 0.5953 0.42918 0.48891 0.0
C241 C 0.55877 0.42131 0.5503 0.0
C242 C 0.49185 0.54979 0.61097 0.0
C243 C 0.52017 0.62954 0.52075 0.0
C244 C 0.53904 0.68572 0.6508 0.0
C245 C 0.50501 0.70218 0.6527 0.0
C246 C 0.51356 0.74114 0.64273 0.0
C247 C 0.46417 0.67975 0.6651 0.0
C248 C 0.44115 0.73496 0.65746 0.0
C249 C 0.43257 0.69593 0.6673 0.0
C250 C 0.48196 0.75736 0.64502 0.0
C251 C 0.63362 0.64522 0.57631 0.0
O252 O 0.60015 0.56499 0.60636 0.0
O253 O 0.57307 0.59556 0.65236 0.0
O254 O 0.52821 0.52002 0.51768 0.0
O255 O 0.5968 0.5461 0.52419 0.0
O256 O 0.51349 0.52779 0.60244 0.0
O257 O 0.50487 0.58012 0.59124 0.0
O258 O 0.52541 0.64796 0.55512 0.0
O259 O 0.5313 0.59871 0.51528 0.0
O260 O 0.56404 0.69472 0.62084 0.0
O261 O 0.52911 0.64917 0.66029 0.0
O262 O 0.62794 0.65445 0.61187 0.0
O263 O 0.59825 0.63067 0.5591 0.0
H264 H 0.53624 0.46704 0.56792 0.0
H265 H 0.60099 0.48112 0.45859 0.0
H266 H 0.61296 0.41968 0.46712 0.0
H267 H 0.54678 0.4051 0.57614 0.0
H268 H 0.5448 0.75915 0.63329 0.0
H269 H 0.4566 0.64981 0.67355 0.0
H270 H 0.40165 0.67812 0.6776 0.0
H271 H 0.48945 0.78744 0.63695 0.0
Gd272 Gd 0.04888 0.57209 0.11321 0.0
Gd273 Gd 0.04397 0.63493 0.06541 0.0
C274 C 0.12826 0.65119 0.12014 0.0
C275 C 0.05531 0.50871 0.13856 0.0
C276 C 0.09153 0.49759 0.15002 0.0
C277 C 0.10495 0.50151 0.18893 0.0
C278 C 0.11397 0.48421 0.12204 0.0
C279 C 0.16409 0.48155 0.17123 0.0
C280 C 0.14996 0.47648 0.13251 0.0
C281 C 0.14087 0.49363 0.19941 0.0
C282 C 1.01513 0.62009 0.15167 0.0
C283 C 0.96521 0.55598 0.05826 0.0
C284 C 0.03854 0.69969 0.04286 0.0
C285 C 1.00441 0.71544 0.0403 0.0
C286 C 1.0143 0.75496 1.03248 0.0
C287 C 0.96225 0.69185 0.0472 0.0
C288 C 0.94014 0.7476 0.03878 0.0
C289 C 0.93031 0.70779 0.04639 0.0
C290 C 0.9825 0.77089 1.03162 0.0
C291 C 0.07902 0.58753 1.02713 0.0
O292 O 0.11515 0.61333 0.12611 0.0
O293 O 0.1052 0.66612 0.09937 0.0
O294 O 0.04723 0.53461 0.16101 0.0
O295 O 0.05192 0.51463 0.10177 0.0
O296 O 0.04006 0.60479 0.16726 0.0
O297 O 1.00738 0.60772 0.11676 0.0
O298 O 0.97696 0.59415 0.05507 0.0
O299 O 0.98969 0.54086 0.07675 0.0
O300 O 0.03595 0.67033 1.01908 0.0
O301 O 0.04952 0.69485 0.07803 0.0
O302 O 0.05548 0.60392 1.0108 0.0
O303 O 0.08562 0.59953 0.06217 0.0
H304 H 0.08814 0.51138 0.21124 0.0
H305 H 0.10412 0.48017 0.0919 0.0
H306 H 0.16673 0.46648 0.11026 0.0
H307 H 0.15106 0.49797 0.22946 0.0
H308 H 0.04669 0.77357 1.02717 0.0
H309 H 0.95411 0.66125 0.05348 0.0
H310 H 0.8981 0.68913 0.05223 0.0
H311 H 0.99108 0.80145 1.02491 0.0
H312 H 0.35123 0.34718 0.3371 0.0
H313 H 0.3247 0.24145 0.26614 0.0
H314 H 0.26609 0.20716 0.30764 0.0
H315 H 0.22081 0.2072 0.36277 0.0
H316 H 0.24305 0.31319 0.43159 0.0
H317 H 0.30413 0.34771 0.39155 0.0
C318 C 0.33247 0.31673 0.33052 0.0
C319 C 0.343 0.29693 0.29876 0.0
C320 C 0.29776 0.29729 0.3539 0.0
C321 C 0.31836 0.25731 0.29096 0.0
C322 C 0.2844 0.23767 0.31443 0.0
C323 C 0.23927 0.2378 0.36913 0.0
C324 C 0.22784 0.25764 0.40012 0.0
C325 C 0.27379 0.25736 0.34586 0.0
C326 C 0.25136 0.29744 0.40772 0.0
C327 C 0.28628 0.31707 0.38496 0.0
H328 H 0.2648 0.85827 0.82279 0.0
H329 H 0.25164 0.95779 0.76844 0.0
H330 H 0.27032 0.99588 0.82963 0.0
H331 H 0.30097 1.00364 0.89513 0.0
H332 H 0.3165 0.90458 0.94867 0.0
H333 H 0.28678 0.8636 0.891 0.0
C334 C 0.26539 0.88813 0.82459 0.0
C335 C 0.25748 0.90545 0.79115 0.0
C336 C 0.27734 0.91008 0.85944 0.0
C337 C 0.25756 0.94385 0.79386 0.0
C338 C 0.26866 0.96573 0.82871 0.0
C339 C 0.29681 0.97283 0.89465 0.0
C340 C 0.31147 0.95731 0.92599 0.0
C341 C 0.28015 0.94957 0.86124 0.0
C342 C 0.30622 0.91741 0.92465 0.0
C343 C 0.28912 0.89394 0.89175 0.0
H344 H 0.69447 0.48653 0.73617 0.0
H345 H 0.6026 0.48363 0.82358 0.0
H346 H 0.57596 0.52487 0.78407 0.0
H347 H 0.57369 0.55568 0.72029 0.0
H348 H 0.66484 0.55411 0.63313 0.0
H349 H 0.69623 0.52087 0.67643 0.0
C350 C 0.66907 0.49548 0.747 0.0
C351 C 0.65061 0.48177 0.78293 0.0
C352 C 0.65313 0.51804 0.72358 0.0
C353 C 0.61782 0.49394 0.79636 0.0
C354 C 0.60221 0.51718 0.77343 0.0
C355 C 0.60084 0.54861 0.71108 0.0
C356 C 0.6165 0.55734 0.67304 0.0
C357 C 0.61878 0.52853 0.73633 0.0
C358 C 0.65161 0.54758 0.6618 0.0
C359 C 0.66979 0.52852 0.68667 0.0
H360 H 0.90667 0.71568 0.22316 0.0
H361 H 0.97612 0.71117 0.32642 0.0
H362 H 1.00965 0.67118 0.29082 0.0
H363 H 0.02308 0.64105 0.229 0.0
H364 H 0.95578 0.64848 0.1255 0.0
H365 H 0.91886 0.6848 0.16216 0.0
C366 C 0.92931 0.70624 0.23808 0.0
C367 C 0.93897 0.71718 0.27772 0.0
C368 C 0.9495 0.68418 0.21705 0.0
C369 C 0.96753 0.70327 0.29629 0.0
C370 C 0.98718 0.68068 0.27572 0.0
C371 C 1.00025 0.65054 0.21446 0.0
C372 C 0.9924 0.64205 0.1743 0.0
C373 C 0.97904 0.67155 0.2359 0.0
C374 C 0.96263 0.65461 0.15614 0.0
C375 C 0.94139 0.67533 0.17722 0.0
H376 H 0.47525 0.2703 0.25392 0.0
H377 H 0.42891 0.30227 0.14891 0.0
H378 H 0.44888 0.25374 0.11167 0.0
H379 H 0.47561 0.19971 0.10959 0.0
H380 H 0.52634 0.16987 0.21316 0.0
H381 H 0.5082 0.2198 0.25071 0.0
C382 C 0.47014 0.26688 0.2228 0.0
C383 C 0.45072 0.28969 0.20407 0.0
C384 C 0.48177 0.23894 0.20159 0.0
C385 C 0.4443 0.2853 0.16378 0.0
C386 C 0.45528 0.25731 0.14258 0.0
C387 C 0.48243 0.20409 0.14045 0.0
C388 C 0.50127 0.18082 0.15899 0.0
C389 C 0.47323 0.2335 0.16131 0.0
C390 C 0.5113 0.18732 0.19861 0.0
C391 C 0.50107 0.21585 0.21994 0.0
H392 H 0.19484 0.97422 0.63921 0.0
H393 H 0.08045 0.89466 0.58373 0.0
H394 H 0.06342 0.94959 0.56249 0.0
H395 H 0.08226 1.02005 0.55666 0.0
H396 H 0.18662 0.09987 0.62311 0.0
H397 H 0.20622 0.04471 0.64355 0.0
C398 C 0.16559 0.9684 0.62336 0.0
C399 C 0.14013 0.92964 0.61196 0.0
C400 C 0.15422 1.00029 0.61306 0.0
C401 C 0.10231 0.92374 0.59132 0.0
C402 C 0.09199 0.95527 0.57949 0.0
C403 C 0.10863 1.02531 0.57643 0.0
C404 C 0.13296 0.06372 0.58852 0.0
C405 C 0.11808 0.99359 0.5896 0.0
C406 C 0.1675 0.07034 0.61357 0.0
C407 C 0.17862 0.03887 0.62517 0.0
H408 H 0.8035 0.41999 0.99029 0.0
H409 H 0.77195 0.51776 0.95315 0.0
H410 H 0.83786 0.56321 0.98224 0.0
H411 H 0.90454 0.57522 1.01928 0.0
H412 H 0.93342 0.47617 0.0573 0.0
H413 H 0.86817 0.43158 1.02768 0.0
C414 C 0.81045 0.45123 0.98896 0.0
C415 C 0.78207 0.46514 0.96973 0.0
C416 C 0.84811 0.47717 1.00619 0.0
C417 C 0.79293 0.50592 0.96747 0.0
C418 C 0.83063 0.53201 0.98437 0.0
C419 C 0.89652 0.54388 1.02121 0.0
C420 C 0.92423 0.52932 0.04076 0.0
C421 C 0.85849 0.518 1.00396 0.0
C422 C 0.91303 0.48851 0.04272 0.0
C423 C 0.87559 0.46282 1.02564 0.0
H424 H 0.82315 0.73297 0.52664 0.0
H425 H 0.765 0.71785 0.41336 0.0
H426 H 0.69663 0.67961 0.44081 0.0
H427 H 0.6516 0.65463 0.49831 0.0
H428 H 0.71038 0.67281 0.61146 0.0
H429 H 0.77951 0.70564 0.58293 0.0
C430 C 0.7956 0.72135 0.50781 0.0
C431 C 0.79967 0.72873 0.46783 0.0
C432 C 0.75603 0.7 0.52395 0.0
C433 C 0.76339 0.71252 0.44408 0.0
C434 C 0.72399 0.69085 0.45988 0.0
C435 C 0.67963 0.66539 0.5166 0.0
C436 C 0.67561 0.6614 0.55711 0.0
C437 C 0.71967 0.68495 0.49994 0.0
C438 C 0.71236 0.67564 0.58031 0.0
C439 C 0.75203 0.6945 0.56399 0.0
H440 H 0.31547 0.44016 0.23899 0.0
H441 H 0.37651 0.49947 0.13706 0.0
H442 H 0.31258 0.51184 0.11986 0.0
H443 H 0.23889 0.50465 0.1331 0.0
H444 H 0.17727 0.44359 0.23398 0.0
H445 H 0.24187 0.43285 0.25215 0.0
C446 C 0.31471 0.45556 0.21286 0.0
C447 C 0.35071 0.46875 0.1893 0.0
C448 C 0.27773 0.46216 0.20291 0.0
C449 C 0.34944 0.48936 0.15595 0.0
C450 C 0.31278 0.4962 0.14593 0.0
C451 C 0.23949 0.48868 0.15887 0.0
C452 C 0.20328 0.47483 0.18208 0.0
C453 C 0.27667 0.4825 0.16906 0.0
C454 C 0.20482 0.45485 0.2158 0.0
C455 C 0.24167 0.44855 0.22612 0.0
H456 H 0.6041 0.31626 0.94961 0.0
H457 H 0.72701 0.3352 0.99958 0.0
H458 H 0.6992 0.27237 1.03005 0.0
H459 H 0.64021 0.20979 0.04157 0.0
H460 H 0.51993 0.18824 0.98586 0.0
H461 H 0.54656 0.25317 0.9585 0.0
C462 C 0.62517 0.30676 0.96677 0.0
C463 C 0.66776 0.3317 0.97239 0.0
C464 C 0.60936 0.26944 0.98334 0.0
C465 C 0.69382 0.31804 0.99534 0.0
C466 C 0.67803 0.28153 1.01263 0.0
C467 C 0.61991 0.21946 1.02353 0.0
C468 C 0.5781 0.19408 1.01585 0.0
C469 C 0.63586 0.2568 1.00684 0.0
C470 C 0.5523 0.207 0.99212 0.0
C471 C 0.56751 0.24426 0.97645 0.0
H472 H 0.92314 0.89407 0.43196 0.0
H473 H 0.92563 0.82954 0.53352 0.0
H474 H 0.95923 0.89095 0.57093 0.0
H475 H 0.98759 0.96367 0.57511 0.0
H476 H 0.98263 1.02739 0.4733 0.0
H477 H 0.95058 0.96616 0.43623 0.0
C478 C 0.93139 0.89341 0.46219 0.0
C479 C 0.92197 0.85701 0.47972 0.0
C480 C 0.95011 0.92896 0.48378 0.0
C481 C 0.93231 0.85697 0.5192 0.0
C482 C 0.95158 0.89217 0.54066 0.0
C483 C 0.97931 0.9642 0.54488 0.0
C484 C 0.98759 1.00054 0.52734 0.0
C485 C 0.96046 0.92847 0.52337 0.0
C486 C 0.97666 1.00023 0.48794 0.0
C487 C 0.95833 0.96505 0.46649 0.0
H488 H 0.28002 0.78337 0.67095 0.0
H489 H 0.37268 0.88776 0.72232 0.0
H490 H 0.42824 0.86085 0.7106 0.0
H491 H 0.45001 0.80678 0.68803 0.0
H492 H 0.35776 0.70239 0.63625 0.0
H493 H 0.30248 0.73018 0.64584 0.0
C494 C 0.31248 0.80038 0.67912 0.0
C495 C 0.32221 0.83738 0.69765 0.0
C496 C 0.34425 0.78467 0.67242 0.0
C497 C 0.36431 0.85895 0.70849 0.0
C498 C 0.39611 0.84367 0.70167 0.0
C499 C 0.41794 0.79034 0.67831 0.0
C500 C 0.40801 0.75258 0.66149 0.0
C501 C 0.38637 0.80643 0.68399 0.0
C502 C 0.36612 0.73136 0.64969 0.0
C503 C 0.33455 0.74728 0.65501 0.0
H504 H 0.77282 0.88571 0.8486 0.0
H505 H 0.8523 0.94536 0.94545 0.0
H506 H 0.90635 0.98434 0.90111 0.0
H507 H 0.93307 0.99736 0.83511 0.0
H508 H 0.85554 0.93484 0.73804 0.0
H509 H 0.79829 0.90137 0.78207 0.0
C510 C 0.80158 0.90796 0.85983 0.0
C511 C 0.80872 0.91301 0.90003 0.0
C512 C 0.83295 0.92927 0.83418 0.0
C513 C 0.84631 0.94126 0.91451 0.0
C514 C 0.8772 0.96329 0.88922 0.0
C515 C 0.90371 0.97626 0.82359 0.0
C516 C 0.89876 0.96822 0.78343 0.0
C517 C 0.8713 0.95677 0.84905 0.0
C518 C 0.86012 0.94159 0.76885 0.0
C519 C 0.82744 0.92236 0.79401 0.0
H520 H 0.66706 0.13879 0.44262 0.0
H521 H 0.8019 0.19302 0.42782 0.0
H522 H 0.79256 0.18695 0.35753 0.0
H523 H 0.74616 0.16528 0.30016 0.0
H524 H 0.6111 0.11371 0.31531 0.0
H525 H 0.62057 0.11987 0.38546 0.0
C526 C 0.69439 0.14978 0.42407 0.0
C527 C 0.73512 0.1662 0.44058 0.0
C528 C 0.6888 0.14651 0.38365 0.0
C529 C 0.77021 0.17969 0.41596 0.0
C530 C 0.7649 0.17644 0.37572 0.0
C531 C 0.71876 0.15578 0.31878 0.0
C532 C 0.67803 0.13873 0.30235 0.0
C533 C 0.72435 0.15974 0.35923 0.0
C534 C 0.64292 0.1262 0.32706 0.0
C535 C 0.64824 0.12995 0.36724 0.0
H536 H 0.46234 0.6628 0.35538 0.0
H537 H 0.47157 0.77236 0.41136 0.0
H538 H 0.48646 0.74895 0.47375 0.0
H539 H 0.50455 0.699 0.51107 0.0
H540 H 0.4953 0.59026 0.45188 0.0
H541 H 0.47302 0.61159 0.39292 0.0
C542 C 0.46653 0.68122 0.38146 0.0
C543 C 0.46547 0.7192 0.37862 0.0
C544 C 0.47602 0.66788 0.41687 0.0
C545 C 0.47146 0.74279 0.4127 0.0
C546 C 0.48057 0.72952 0.44834 0.0
C547 C 0.49719 0.67981 0.48542 0.0
C548 C 0.50243 0.64308 0.48636 0.0
C549 C 0.48416 0.6924 0.45066 0.0
C550 C 0.4924 0.61881 0.4525 0.0
C551 C 0.47941 0.63093 0.41845 0.0
H552 H 0.18509 0.48633 0.96417 0.0
H553 H 0.15596 0.52361 0.85393 0.0
H554 H 0.11216 0.5556 0.88697 0.0
H555 H 0.08624 0.57752 0.94815 0.0
H556 H 0.12387 0.54652 0.05783 0.0
H557 H 0.16123 0.5089 1.02419 0.0
C558 C 0.16989 0.50189 0.947 0.0
C559 C 0.17505 0.50283 0.90616 0.0
C560 C 0.14647 0.52196 0.9664 0.0
C561 C 0.15292 0.52189 0.88509 0.0
C562 C 0.12811 0.5407 0.90416 0.0
C563 C 0.10256 0.56246 0.96468 0.0
C564 C 0.10186 0.56475 1.00574 0.0
C565 C 0.12533 0.54166 0.94492 0.0
C566 C 0.12351 0.54519 1.02646 0.0
C567 C 0.14499 0.52364 1.00713 0.0
H568 H 0.64475 0.94412 0.94979 0.0
H569 H 0.528 0.85602 0.98581 0.0
H570 H 0.5017 0.90681 1.00745 0.0
H571 H 0.51319 0.97589 1.02065 0.0
H572 H 0.63271 0.06415 0.99273 0.0
H573 H 0.6568 1.0136 0.9641 0.0
C574 C 0.61374 0.93581 0.96276 0.0
C575 C 0.58856 0.89587 0.96585 0.0
C576 C 0.59927 0.9653 0.9768 0.0
C577 C 0.548 0.88621 0.98205 0.0
C578 C 0.53294 0.91534 0.99489 0.0
C579 C 0.54429 0.98415 1.00775 0.0
C580 C 0.57103 1.02369 1.00842 0.0
C581 C 0.55844 0.95491 0.99281 0.0
C582 C 0.61154 1.03388 0.99238 0.0
C583 C 0.62532 1.00498 0.97614 0.0
H584 H 0.85988 0.17663 0.50971 0.0
H585 H 0.78433 0.12985 0.6101 0.0
H586 H 0.84353 0.1175 0.63905 0.0
H587 H 0.91608 0.11753 0.63511 0.0
H588 H 0.98765 0.15525 0.53109 0.0
H589 H 0.93035 0.17282 0.50392 0.0
C590 C 0.85586 0.16311 0.53762 0.0
C591 C 0.81744 0.15459 0.55761 0.0
C592 C 0.88942 0.15437 0.55349 0.0
C593 C 0.81365 0.13779 0.59423 0.0
C594 C 0.84743 0.13029 0.61077 0.0
C595 C 0.91909 0.12989 0.60664 0.0
C596 C 0.95594 0.13565 0.58518 0.0
C597 C 0.8854 0.13835 0.59064 0.0
C598 C 0.95946 0.15088 0.54806 0.0
C599 C 0.92675 0.16082 0.53256 0.0
H600 H 0.30753 0.77849 0.16338 0.0
H601 H 0.29028 0.70828 0.26474 0.0
H602 H 0.22356 0.66328 0.23815 0.0
H603 H 0.16852 0.6438 0.18655 0.0
H604 H 0.18213 0.71823 0.08937 0.0
H605 H 0.25087 0.76182 0.11445 0.0
C606 C 0.28913 0.75393 0.18036 0.0
C607 C 0.30508 0.7473 0.21631 0.0
C608 C 0.24959 0.72864 0.16556 0.0
C609 C 0.2802 0.71425 0.23671 0.0
C610 C 0.24148 0.68844 0.22164 0.0
C611 C 0.18663 0.66951 0.17082 0.0
C612 C 0.17018 0.67749 0.13589 0.0
C613 C 0.2258 0.69524 0.18607 0.0
C614 C 0.19386 0.71131 0.11626 0.0
C615 C 0.23329 0.73627 0.13061 0.0
H616 H 0.32079 0.51975 0.70412 0.0
H617 H 0.33413 0.408 0.71777 0.0
H618 H 0.40072 0.43025 0.68269 0.0
H619 H 0.45454 0.4805 0.64621 0.0
H620 H 0.44087 0.5915 0.62916 0.0
H621 H 0.37582 0.57092 0.66734 0.0
C622 C 0.3385 0.50047 0.69958 0.0
C623 C 0.32222 0.46211 0.71345 0.0
C624 C 0.37685 0.51334 0.67859 0.0
C625 C 0.34558 0.43746 0.70712 0.0
C626 C 0.38379 0.4502 0.68708 0.0
C627 C 0.43741 0.50026 0.65093 0.0
C628 C 0.45276 0.5376 0.63492 0.0
C629 C 0.39958 0.4879 0.67233 0.0
C630 C 0.42996 0.5627 0.6413 0.0
C631 C 0.39262 0.55086 0.66308 0.0
H632 H 0.83188 0.85463 1.02343 0.0
H633 H 0.74941 0.75252 0.96042 0.0
H634 H 0.79323 0.71533 0.97998 0.0
H635 H 0.86112 0.71563 1.00629 0.0
H636 H 0.94378 0.81879 0.06836 0.0
H637 H 0.89396 0.85191 0.0577 0.0
C638 C 0.82298 0.8239 1.01491 0.0
C639 C 0.78779 0.80629 0.99041 0.0
C640 C 0.8489 0.80324 1.02533 0.0
C641 C 0.77627 0.76652 0.97952 0.0
C642 C 0.80162 0.74546 0.99031 0.0
C643 C 0.86778 0.74501 1.01827 0.0
C644 C 0.90664 0.76501 0.03732 0.0
C645 C 0.83896 0.76403 1.0119 0.0
C646 C 0.9147 0.80311 0.05263 0.0
C647 C 0.88612 0.82202 0.04676 0.0
H648 H 0.40083 0.86786 0.16282 0.0
H649 H 0.45036 0.905 0.2783 0.0
H650 H 0.48408 0.97206 0.25728 0.0
H651 H 0.50183 1.02031 0.20563 0.0
H652 H 0.45358 0.98332 0.08985 0.0
H653 H 0.41678 0.9167 0.11149 0.0
C654 C 0.41851 0.89068 0.18357 0.0
C655 C 0.42295 0.88096 0.22224 0.0
C656 C 0.43821 0.92948 0.17116 0.0
C657 C 0.44666 0.91117 0.24834 0.0
C658 C 0.46589 0.94972 0.23634 0.0
C659 C 0.48295 0.99777 0.18518 0.0
C660 C 0.48053 1.00701 0.14608 0.0
C661 C 0.46226 0.95923 0.19776 0.0
C662 C 0.45604 0.97721 0.12005 0.0
C663 C 0.43502 0.93898 0.13244 0.0
H664 H 0.18661 0.3665 0.66772 0.0
H665 H 0.17897 0.32391 0.78341 0.0
H666 H 0.14251 0.25672 0.75822 0.0
H667 H 0.11614 0.20913 0.70209 0.0
H668 H 0.1256 0.25393 0.58689 0.0
H669 H 0.15843 0.32039 0.613 0.0
C670 C 0.17684 0.34259 0.68758 0.0
C671 C 0.18587 0.35058 0.72752 0.0
C672 C 0.15661 0.30398 0.67279 0.0
C673 C 0.17221 0.31901 0.75265 0.0
C674 C 0.15173 0.28039 0.73813 0.0
C675 C 0.12547 0.23343 0.68272 0.0
C676 C 0.11838 0.22602 0.64235 0.0
C677 C 0.14437 0.27233 0.69808 0.0
C678 C 0.13043 0.25823 0.61795 0.0
C679 C 0.14929 0.29653 0.63288 0.0
H680 H 0.62199 0.25201 0.52486 0.0
H681 H 0.64767 0.2891 0.64501 0.0
H682 H 0.62842 0.34622 0.63394 0.0
H683 H 0.60607 0.38632 0.58995 0.0
H684 H 0.57894 0.34902 0.46995 0.0
H685 H 0.59784 0.29163 0.48097 0.0
C686 C 0.62351 0.27273 0.54853 0.0
C687 C 0.63617 0.26638 0.58568 0.0
C688 C 0.61238 0.30549 0.54197 0.0
C689 C 0.63756 0.29315 0.61624 0.0
C690 C 0.62677 0.32589 0.6099 0.0
C691 C 0.60364 0.36536 0.5663 0.0
C692 C 0.591 0.37194 0.5292 0.0
C693 C 0.61418 0.33235 0.5729 0.0
C694 C 0.58899 0.34488 0.4987 0.0
C695 C 0.5996 0.31197 0.50501 0.0
loop_
_geom_bond_atom_site_label_1
_geom_bond_atom_site_label_2
_geom_bond_distance
_geom_bond_site_symmetry_2
_ccdc_geom_bond_type
H0 C1 0.949 . S
C1 H0 0.949 . S
C1 C2 1.395 . S
C1 C3 1.391 . S
C2 C1 1.395 . S
C2 C5 1.390 . S
C3 C1 1.391 . S
C3 C7 1.387 . S
C3 C8 1.491 . S
H4 C5 0.950 . S
C5 C2 1.390 . S
C5 H4 0.950 . S
C5 C6 1.378 . S
C6 C5 1.378 . S
C6 C7 1.409 . S
C7 C3 1.387 . S
C7 C6 1.409 . S
C7 H9 0.951 . S
C8 C3 1.491 . S
C8 C10 1.382 . S
C8 C12 1.404 . S
H9 C7 0.951 . S
C10 C8 1.382 . S
C10 C11 1.390 . S
C10 H15 0.949 . S
C11 C10 1.390 . S
C11 C16 1.399 . S
C12 C8 1.404 . S
C12 H13 0.950 . S
C12 C14 1.375 . S
H13 C12 0.950 . S
C14 C12 1.375 . S
C14 C16 1.382 . S
C14 H18 0.950 . S
H15 C10 0.949 . S
C16 C11 1.399 . S
C16 C14 1.382 . S
C16 H17 0.952 . S
H17 C16 0.952 . S
H18 C14 0.950 . S
H19 C20 0.949 . S
C20 H19 0.949 . S
C20 C21 1.395 . S
C20 C22 1.391 . S
C21 C20 1.395 . S
C21 C24 1.390 . S
C22 C20 1.391 . S
C22 C26 1.387 . S
C22 C27 1.491 . S
H23 C24 0.950 . S
C24 C21 1.390 . S
C24 H23 0.950 . S
C24 C25 1.378 . S
C25 C24 1.378 . S
C25 C26 1.409 . S
C26 C22 1.387 . S
C26 C25 1.409 . S
C26 H28 0.951 . S
C27 C22 1.491 . S
C27 C29 1.382 . S
C27 C31 1.404 . S
H28 C26 0.951 . S
C29 C27 1.382 . S
C29 C30 1.390 . S
C29 H34 0.949 . S
C30 C29 1.390 . S
C30 C35 1.399 . S
C31 C27 1.404 . S
C31 H32 0.950 . S
C31 C33 1.375 . S
H32 C31 0.950 . S
C33 C31 1.375 . S
C33 C35 1.382 . S
C33 H37 0.950 . S
H34 C29 0.949 . S
C35 C30 1.399 . S
C35 C33 1.382 . S
C35 H36 0.952 . S
H36 C35 0.952 . S
H37 C33 0.950 . S
H38 C39 0.949 . S
C39 H38 0.949 . S
C39 C40 1.395 . S
C39 C41 1.391 . S
C40 C39 1.395 . S
C40 C43 1.390 . S
C41 C39 1.391 . S
C41 C45 1.387 . S
C41 C46 1.491 . S
H42 C43 0.950 . S
C43 C40 1.390 . S
C43 H42 0.950 . S
C43 C44 1.378 . S
C44 C43 1.378 . S
C44 C45 1.409 . S
C45 C41 1.387 . S
C45 C44 1.409 . S
C45 H47 0.951 . S
C46 C41 1.491 . S
C46 C48 1.382 . S
C46 C50 1.404 . S
H47 C45 0.951 . S
C48 C46 1.382 . S
C48 C49 1.390 . S
C48 H53 0.949 . S
C49 C48 1.390 . S
C49 C54 1.399 . S
C50 C46 1.404 . S
C50 H51 0.950 . S
C50 C52 1.375 . S
H51 C50 0.950 . S
C52 C50 1.375 . S
C52 C54 1.382 . S
C52 H56 0.950 . S
H53 C48 0.949 . S
C54 C49 1.399 . S
C54 C52 1.382 . S
C54 H55 0.952 . S
H55 C54 0.952 . S
H56 C52 0.950 . S
H57 C58 0.949 . S
C58 H57 0.949 . S
C58 C59 1.395 . S
C58 C60 1.391 . S
C59 C58 1.395 . S
C59 C62 1.390 . S
C60 C58 1.391 . S
C60 C64 1.387 . S
C60 C65 1.491 . S
H61 C62 0.950 . S
C62 C59 1.390 . S
C62 H61 0.950 . S
C62 C63 1.378 . S
C63 C62 1.378 . S
C63 C64 1.409 . S
C64 C60 1.387 . S
C64 C63 1.409 . S
C64 H66 0.951 . S
C65 C60 1.491 . S
C65 C67 1.382 . S
C65 C69 1.404 . S
H66 C64 0.951 . S
C67 C65 1.382 . S
C67 C68 1.390 . S
C67 H72 0.949 . S
C68 C67 1.390 . S
C68 C73 1.399 . S
C69 C65 1.404 . S
C69 H70 0.950 . S
C69 C71 1.375 . S
H70 C69 0.950 . S
C71 C69 1.375 . S
C71 C73 1.382 . S
C71 H75 0.950 . S
H72 C67 0.949 . S
C73 C68 1.399 . S
C73 C71 1.382 . S
C73 H74 0.952 . S
H74 C73 0.952 . S
H75 C71 0.950 . S
H76 C77 0.949 . S
C77 H76 0.949 . S
C77 C78 1.395 . S
C77 C79 1.391 . S
C78 C77 1.395 . S
C78 C81 1.390 . S
C79 C77 1.391 . S
C79 C83 1.387 . S
C79 C84 1.491 . S
H80 C81 0.950 . S
C81 C78 1.390 . S
C81 H80 0.950 . S
C81 C82 1.378 . S
C82 C81 1.378 . S
C82 C83 1.409 . S
C83 C79 1.387 . S
C83 C82 1.409 . S
C83 H85 0.951 . S
C84 C79 1.491 . S
C84 C86 1.382 . S
C84 C88 1.404 . S
H85 C83 0.951 . S
C86 C84 1.382 . S
C86 C87 1.390 . S
C86 H91 0.949 . S
C87 C86 1.390 . S
C87 C92 1.399 . S
C88 C84 1.404 . S
C88 H89 0.950 . S
C88 C90 1.375 . S
H89 C88 0.950 . S
C90 C88 1.375 . S
C90 C92 1.382 . S
C90 H94 0.950 . S
H91 C86 0.949 . S
C92 C87 1.399 . S
C92 C90 1.382 . S
C92 H93 0.952 . S
H93 C92 0.952 . S
H94 C90 0.950 . S
H95 C96 0.949 . S
C96 H95 0.949 . S
C96 C97 1.395 . S
C96 C98 1.391 . S
C97 C96 1.395 . S
C97 C100 1.390 . S
C98 C96 1.391 . S
C98 C102 1.387 . S
C98 C103 1.491 . S
H99 C100 0.950 . S
C100 C97 1.390 . S
C100 H99 0.950 . S
C100 C101 1.378 . S
C101 C100 1.378 . S
C101 C102 1.409 . S
C102 C98 1.387 . S
C102 C101 1.409 . S
C102 H104 0.951 . S
C103 C98 1.491 . S
C103 C105 1.382 . S
C103 C107 1.404 . S
H104 C102 0.951 . S
C105 C103 1.382 . S
C105 C106 1.390 . S
C105 H110 0.949 . S
C106 C105 1.390 . S
C106 C111 1.399 . S
C107 C103 1.404 . S
C107 H108 0.950 . S
C107 C109 1.375 . S
H108 C107 0.950 . S
C109 C107 1.375 . S
C109 C111 1.382 . S
C109 H113 0.950 . S
H110 C105 0.949 . S
C111 C106 1.399 . S
C111 C109 1.382 . S
C111 H112 0.952 . S
H112 C111 0.952 . S
H113 C109 0.950 . S
H114 C115 0.949 . S
C115 H114 0.949 . S
C115 C116 1.395 . S
C115 C117 1.391 . S
C116 C115 1.395 . S
C116 C119 1.390 . S
C117 C115 1.391 . S
C117 C121 1.387 . S
C117 C122 1.491 . S
H118 C119 0.950 . S
C119 C116 1.390 . S
C119 H118 0.950 . S
C119 C120 1.378 . S
C120 C119 1.378 . S
C120 C121 1.409 . S
C121 C117 1.387 . S
C121 C120 1.409 . S
C121 H123 0.951 . S
C122 C117 1.491 . S
C122 C124 1.382 . S
C122 C126 1.404 . S
H123 C121 0.951 . S
C124 C122 1.382 . S
C124 C125 1.390 . S
C124 H129 0.949 . S
C125 C124 1.390 . S
C125 C130 1.399 . S
C126 C122 1.404 . S
C126 H127 0.950 . S
C126 C128 1.375 . S
H127 C126 0.950 . S
C128 C126 1.375 . S
C128 C130 1.382 . S
C128 H132 0.950 . S
H129 C124 0.949 . S
C130 C125 1.399 . S
C130 C128 1.382 . S
C130 H131 0.952 . S
H131 C130 0.952 . S
H132 C128 0.950 . S
H133 C134 0.949 . S
C134 H133 0.949 . S
C134 C135 1.395 . S
C134 C136 1.391 . S
C135 C134 1.395 . S
C135 C138 1.390 . S
C136 C134 1.391 . S
C136 C140 1.387 . S
C136 C141 1.491 . S
H137 C138 0.950 . S
C138 C135 1.390 . S
C138 H137 0.950 . S
C138 C139 1.378 . S
C139 C138 1.378 . S
C139 C140 1.409 . S
C140 C136 1.387 . S
C140 C139 1.409 . S
C140 H142 0.951 . S
C141 C136 1.491 . S
C141 C143 1.382 . S
C141 C145 1.404 . S
H142 C140 0.951 . S
C143 C141 1.382 . S
C143 C144 1.390 . S
C143 H148 0.949 . S
C144 C143 1.390 . S
C144 C149 1.399 . S
C145 C141 1.404 . S
C145 H146 0.950 . S
C145 C147 1.375 . S
H146 C145 0.950 . S
C147 C145 1.375 . S
C147 C149 1.382 . S
C147 H151 0.950 . S
H148 C143 0.949 . S
C149 C144 1.399 . S
C149 C147 1.382 . S
C149 H150 0.952 . S
H150 C149 0.952 . S
H151 C147 0.950 . S
Gd152 C155 2.818 . S
Gd152 O172 2.377 . S
Gd152 O174 2.448 . S
Gd152 O175 2.506 . S
Gd152 O176 2.435 . S
Gd152 O177 2.717 . S
Gd152 O179 2.409 1_545 S
Gd152 O183 2.327 1_455 S
Gd153 C164 2.818 1_545 S
Gd153 O173 2.395 1_655 S
Gd153 O177 2.327 1_655 S
Gd153 O178 2.377 1_545 S
Gd153 O180 2.448 1_545 S
Gd153 O181 2.506 1_545 S
Gd153 O182 2.435 . S
Gd153 O183 2.717 . S
C154 O172 1.240 . S
C154 O173 1.240 . S
C155 Gd152 2.818 . S
C155 C156 1.510 . S
C155 O174 1.249 . S
C155 O175 1.252 . S
C156 C155 1.510 . S
C156 C157 1.404 . S
C156 C158 1.352 . S
C157 C156 1.404 . S
C157 C161 1.389 . S
C157 H184 0.930 . S
C158 C156 1.352 . S
C158 C160 1.374 . S
C158 H185 0.931 . S
C159 C160 1.359 . S
C159 C161 1.364 . S
C160 C158 1.374 . S
C160 C159 1.359 . S
C160 H186 0.931 . S
C161 C157 1.389 . S
C161 C159 1.364 . S
C161 H187 0.931 . S
C162 O176 1.256 . S
C162 O177 1.257 . S
C163 O178 1.240 . S
C163 O179 1.219 1_655 S
C164 Gd153 2.818 1_565 S
C164 C165 1.510 . S
C164 O180 1.249 . S
C164 O181 1.252 . S
C165 C164 1.510 . S
C165 C166 1.404 . S
C165 C167 1.352 . S
C166 C165 1.404 . S
C166 C170 1.389 . S
C166 H188 0.930 . S
C167 C165 1.352 . S
C167 C169 1.374 . S
C167 H189 0.931 . S
C168 C169 1.359 . S
C168 C170 1.364 . S
C169 C167 1.374 . S
C169 C168 1.359 . S
C169 H190 0.931 . S
C170 C166 1.389 . S
C170 C168 1.364 . S
C170 H191 0.931 . S
C171 O182 1.256 . S
C171 O183 1.257 . S
O172 Gd152 2.377 . S
O172 C154 1.240 . S
O173 Gd153 2.395 1_455 S
O173 C154 1.240 . S
O174 Gd152 2.448 . S
O174 C155 1.249 . S
O175 Gd152 2.506 . S
O175 C155 1.252 . S
O176 Gd152 2.435 . S
O176 C162 1.256 . S
O177 Gd152 2.717 . S
O177 Gd153 2.327 1_455 S
O177 C162 1.257 . S
O178 Gd153 2.377 1_565 S
O178 C163 1.240 . S
O179 Gd152 2.409 1_565 S
O179 C163 1.219 1_455 S
O180 Gd153 2.448 1_565 S
O180 C164 1.249 . S
O181 Gd153 2.506 1_565 S
O181 C164 1.252 . S
O182 Gd153 2.435 . S
O182 C171 1.256 . S
O183 Gd152 2.327 1_655 S
O183 Gd153 2.717 . S
O183 C171 1.257 . S
H184 C157 0.930 . S
H185 C158 0.931 . S
H186 C160 0.931 . S
H187 C161 0.931 . S
H188 C166 0.930 . S
H189 C167 0.931 . S
H190 C169 0.931 . S
H191 C170 0.931 . S
Gd192 C195 2.818 . S
Gd192 O212 2.377 . S
Gd192 O214 2.448 . S
Gd192 O215 2.506 . S
Gd192 O216 2.435 1_545 S
Gd192 O217 2.717 1_545 S
Gd192 O219 2.395 1_545 S
Gd192 O223 2.327 . S
Gd193 C204 2.818 1_544 S
Gd193 O213 2.395 . S
Gd193 O217 2.327 1_545 S
Gd193 O218 2.377 . S
Gd193 O220 2.448 1_554 S
Gd193 O221 2.506 1_545 S
Gd193 O222 2.435 . S
Gd193 O223 2.717 . S
C194 O212 1.240 . S
C194 O213 1.240 . S
C195 Gd192 2.818 . S
C195 C196 1.510 . S
C195 O214 1.249 . S
C195 O215 1.252 . S
C196 C195 1.510 . S
C196 C197 1.404 . S
C196 C198 1.352 . S
C197 C196 1.404 . S
C197 C201 1.389 . S
C197 H224 0.930 . S
C198 C196 1.352 . S
C198 C200 1.374 . S
C198 H225 0.931 . S
C199 C200 1.359 . S
C199 C201 1.364 . S
C200 C198 1.374 . S
C200 C199 1.359 . S
C200 H226 0.931 . S
C201 C197 1.389 . S
C201 C199 1.364 . S
C201 H227 0.931 . S
C202 O216 1.256 . S
C202 O217 1.257 . S
C203 O218 1.240 1_565 S
C203 O219 1.240 . S
C204 Gd193 2.818 1_566 S
C204 C205 1.510 . S
C204 O220 1.249 1_565 S
C204 O221 1.252 1_556 S
C205 C204 1.510 . S
C205 C206 1.404 . S
C205 C207 1.352 . S
C206 C205 1.404 . S
C206 C210 1.389 . S
C206 H228 0.930 . S
C207 C205 1.352 . S
C207 C209 1.374 . S
C207 H229 0.931 . S
C208 C209 1.359 . S
C208 C210 1.364 . S
C209 C207 1.374 . S
C209 C208 1.359 . S
C209 H230 0.931 . S
C210 C206 1.389 . S
C210 C208 1.364 . S
C210 H231 0.931 . S
C211 O222 1.256 . S
C211 O223 1.257 . S
O212 Gd192 2.377 . S
O212 C194 1.240 . S
O213 Gd193 2.395 . S
O213 C194 1.240 . S
O214 Gd192 2.448 . S
O214 C195 1.249 . S
O215 Gd192 2.506 . S
O215 C195 1.252 . S
O216 Gd192 2.435 1_565 S
O216 C202 1.256 . S
O217 Gd192 2.717 1_565 S
O217 Gd193 2.327 1_565 S
O217 C202 1.257 . S
O218 Gd193 2.377 . S
O218 C203 1.240 1_545 S
O219 Gd192 2.395 1_565 S
O219 C203 1.240 . S
O220 Gd193 2.448 1_556 S
O220 C204 1.249 1_545 S
O221 Gd193 2.506 1_565 S
O221 C204 1.252 1_554 S
O222 Gd193 2.435 . S
O222 C211 1.256 . S
O223 Gd192 2.327 . S
O223 Gd193 2.717 . S
O223 C211 1.257 . S
H224 C197 0.930 . S
H225 C198 0.931 . S
H226 C200 0.931 . S
H227 C201 0.931 . S
H228 C206 0.930 . S
H229 C207 0.931 . S
H230 C209 0.931 . S
H231 C210 0.931 . S
Gd232 C235 2.818 . S
Gd232 O252 2.377 . S
Gd232 O254 2.448 . S
Gd232 O255 2.506 . S
Gd232 O256 2.435 . S
Gd232 O257 2.717 . S
Gd232 O259 2.395 . S
Gd232 O263 2.327 . S
Gd233 C244 2.818 . S
Gd233 O253 2.395 . S
Gd233 O257 2.327 . S
Gd233 O258 2.377 . S
Gd233 O260 2.448 . S
Gd233 O261 2.506 . S
Gd233 O262 2.435 . S
Gd233 O263 2.717 . S
C234 O252 1.240 . S
C234 O253 1.240 . S
C235 Gd232 2.818 . S
C235 C236 1.510 . S
C235 O254 1.249 . S
C235 O255 1.252 . S
C236 C235 1.510 . S
C236 C237 1.404 . S
C236 C238 1.352 . S
C237 C236 1.404 . S
C237 C241 1.389 . S
C237 H264 0.930 . S
C238 C236 1.352 . S
C238 C240 1.374 . S
C238 H265 0.931 . S
C239 C240 1.359 . S
C239 C241 1.364 . S
C240 C238 1.374 . S
C240 C239 1.359 . S
C240 H266 0.931 . S
C241 C237 1.389 . S
C241 C239 1.364 . S
C241 H267 0.931 . S
C242 O256 1.256 . S
C242 O257 1.257 . S
C243 O258 1.240 . S
C243 O259 1.240 . S
C244 Gd233 2.818 . S
C244 C245 1.510 . S
C244 O260 1.249 . S
C244 O261 1.252 . S
C245 C244 1.510 . S
C245 C246 1.404 . S
C245 C247 1.352 . S
C246 C245 1.404 . S
C246 C250 1.389 . S
C246 H268 0.930 . S
C247 C245 1.352 . S
C247 C249 1.374 . S
C247 H269 0.931 . S
C248 C249 1.359 . S
C248 C250 1.364 . S
C249 C247 1.374 . S
C249 C248 1.359 . S
C249 H270 0.931 . S
C250 C246 1.389 . S
C250 C248 1.364 . S
C250 H271 0.931 . S
C251 O262 1.256 . S
C251 O263 1.257 . S
O252 Gd232 2.377 . S
O252 C234 1.240 . S
O253 Gd233 2.395 . S
O253 C234 1.240 . S
O254 Gd232 2.448 . S
O254 C235 1.249 . S
O255 Gd232 2.506 . S
O255 C235 1.252 . S
O256 Gd232 2.435 . S
O256 C242 1.256 . S
O257 Gd232 2.717 . S
O257 Gd233 2.327 . S
O257 C242 1.257 . S
O258 Gd233 2.377 . S
O258 C243 1.240 . S
O259 Gd232 2.395 . S
O259 C243 1.240 . S
O260 Gd233 2.448 . S
O260 C244 1.249 . S
O261 Gd233 2.506 . S
O261 C244 1.252 . S
O262 Gd233 2.435 . S
O262 C251 1.256 . S
O263 Gd232 2.327 . S
O263 Gd233 2.717 . S
O263 C251 1.257 . S
H264 C237 0.930 . S
H265 C238 0.931 . S
H266 C240 0.931 . S
H267 C241 0.931 . S
H268 C246 0.930 . S
H269 C247 0.931 . S
H270 C249 0.931 . S
H271 C250 0.931 . S
Gd272 C275 2.818 . S
Gd272 O292 2.377 . S
Gd272 O294 2.448 . S
Gd272 O295 2.506 . S
Gd272 O296 2.435 . S
Gd272 O297 2.717 . S
Gd272 O299 2.395 1_455 S
Gd272 O303 2.327 1_554 S
Gd273 C284 2.818 1_455 S
Gd273 O293 2.395 1_556 S
Gd273 O297 2.327 1_556 S
Gd273 O298 2.377 1_455 S
Gd273 O300 2.448 . S
Gd273 O301 2.506 1_455 S
Gd273 O302 2.435 . S
Gd273 O303 2.717 . S
C274 O292 1.240 . S
C274 O293 1.240 . S
C275 Gd272 2.818 . S
C275 C276 1.510 . S
C275 O294 1.249 . S
C275 O295 1.252 . S
C276 C275 1.510 . S
C276 C277 1.404 . S
C276 C278 1.352 . S
C277 C276 1.404 . S
C277 C281 1.389 . S
C277 H304 0.930 . S
C278 C276 1.352 . S
C278 C280 1.374 . S
C278 H305 0.931 . S
C279 C280 1.359 . S
C279 C281 1.364 . S
C280 C278 1.374 . S
C280 C279 1.359 . S
C280 H306 0.931 . S
C281 C277 1.389 . S
C281 C279 1.364 . S
C281 H307 0.931 . S
C282 O296 1.256 . S
C282 O297 1.257 . S
C283 O298 1.240 . S
C283 O299 1.240 1_556 S
C284 Gd273 2.818 1_655 S
C284 C285 1.510 . S
C284 O300 1.249 1_655 S
C284 O301 1.252 . S
C285 C284 1.510 . S
C285 C286 1.404 . S
C285 C287 1.352 . S
C286 C285 1.404 . S
C286 C290 1.389 . S
C286 H308 0.930 . S
C287 C285 1.352 . S
C287 C289 1.374 . S
C287 H309 0.931 . S
C288 C289 1.359 . S
C288 C290 1.364 . S
C289 C287 1.374 . S
C289 C288 1.359 . S
C289 H310 0.931 . S
C290 C286 1.389 . S
C290 C288 1.364 . S
C290 H311 0.931 . S
C291 O302 1.256 . S
C291 O303 1.257 . S
O292 Gd272 2.377 . S
O292 C274 1.240 . S
O293 Gd273 2.395 1_554 S
O293 C274 1.240 . S
O294 Gd272 2.448 . S
O294 C275 1.249 . S
O295 Gd272 2.506 . S
O295 C275 1.252 . S
O296 Gd272 2.435 . S
O296 C282 1.256 . S
O297 Gd272 2.717 . S
O297 Gd273 2.327 1_554 S
O297 C282 1.257 . S
O298 Gd273 2.377 1_655 S
O298 C283 1.240 . S
O299 Gd272 2.395 1_655 S
O299 C283 1.240 1_554 S
O300 Gd273 2.448 . S
O300 C284 1.249 1_455 S
O301 Gd273 2.506 1_655 S
O301 C284 1.252 . S
O302 Gd273 2.435 . S
O302 C291 1.256 . S
O303 Gd272 2.327 1_556 S
O303 Gd273 2.717 . S
O303 C291 1.257 . S
H304 C277 0.930 . S
H305 C278 0.931 . S
H306 C280 0.931 . S
H307 C281 0.931 . S
H308 C286 0.930 . S
H309 C287 0.931 . S
H310 C289 0.931 . S
H311 C290 0.931 . S
H312 C318 0.930 . S
H313 C321 0.930 . S
H314 C322 0.930 . S
H315 C323 0.930 . S
H316 C326 0.930 . S
H317 C327 0.930 . S
C318 H312 0.930 . S
C318 C319 1.355 . S
C318 C320 1.415 . S
C319 C318 1.355 . S
C319 C321 1.419 . S
C320 C318 1.415 . S
C320 C325 1.425 . S
C320 C327 1.409 . S
C321 H313 0.930 . S
C321 C319 1.419 . S
C321 C322 1.362 . S
C322 H314 0.930 . S
C322 C321 1.362 . S
C322 C325 1.409 . S
C323 H315 0.930 . S
C323 C324 1.355 . S
C323 C325 1.415 . S
C324 C323 1.355 . S
C324 C326 1.419 . S
C325 C320 1.425 . S
C325 C322 1.409 . S
C325 C323 1.415 . S
C326 H316 0.930 . S
C326 C324 1.419 . S
C326 C327 1.362 . S
C327 H317 0.930 . S
C327 C320 1.409 . S
C327 C326 1.362 . S
H328 C334 0.930 . S
H329 C337 0.930 . S
H330 C338 0.930 . S
H331 C339 0.930 . S
H332 C342 0.930 . S
H333 C343 0.930 . S
C334 H328 0.930 . S
C334 C335 1.355 . S
C334 C336 1.415 . S
C335 C334 1.355 . S
C335 C337 1.419 . S
C336 C334 1.415 . S
C336 C341 1.425 . S
C336 C343 1.409 . S
C337 H329 0.930 . S
C337 C335 1.419 . S
C337 C338 1.362 . S
C338 H330 0.930 . S
C338 C337 1.362 . S
C338 C341 1.409 . S
C339 H331 0.930 . S
C339 C340 1.355 . S
C339 C341 1.415 . S
C340 C339 1.355 . S
C340 C342 1.419 . S
C341 C336 1.425 . S
C341 C338 1.409 . S
C341 C339 1.415 . S
C342 H332 0.930 . S
C342 C340 1.419 . S
C342 C343 1.362 . S
C343 H333 0.930 . S
C343 C336 1.409 . S
C343 C342 1.362 . S
H344 C350 0.930 . S
H345 C353 0.930 . S
H346 C354 0.930 . S
H347 C355 0.930 . S
H348 C358 0.930 . S
H349 C359 0.930 . S
C350 H344 0.930 . S
C350 C351 1.355 . S
C350 C352 1.415 . S
C351 C350 1.355 . S
C351 C353 1.419 . S
C352 C350 1.415 . S
C352 C357 1.425 . S
C352 C359 1.409 . S
C353 H345 0.930 . S
C353 C351 1.419 . S
C353 C354 1.362 . S
C354 H346 0.930 . S
C354 C353 1.362 . S
C354 C357 1.409 . S
C355 H347 0.930 . S
C355 C356 1.355 . S
C355 C357 1.415 . S
C356 C355 1.355 . S
C356 C358 1.419 . S
C357 C352 1.425 . S
C357 C354 1.409 . S
C357 C355 1.415 . S
C358 H348 0.930 . S
C358 C356 1.419 . S
C358 C359 1.362 . S
C359 H349 0.930 . S
C359 C352 1.409 . S
C359 C358 1.362 . S
H360 C366 0.930 . S
H361 C369 0.930 . S
H362 C370 0.930 . S
H363 C371 0.930 . S
H364 C374 0.930 1_455 S
H365 C375 0.917 1_455 S
C366 H360 0.930 . S
C366 C367 1.355 . S
C366 C368 1.415 . S
C367 C366 1.355 . S
C367 C369 1.419 . S
C368 C366 1.415 . S
C368 C373 1.425 . S
C368 C375 1.409 . S
C369 H361 0.930 . S
C369 C367 1.419 . S
C369 C370 1.362 . S
C370 H362 0.930 . S
C370 C369 1.362 . S
C370 C373 1.409 . S
C371 H363 0.930 . S
C371 C372 1.355 . S
C371 C373 1.415 . S
C372 C371 1.355 . S
C372 C374 1.419 . S
C373 C368 1.425 . S
C373 C370 1.409 . S
C373 C371 1.415 . S
C374 H364 0.930 1_655 S
C374 C372 1.419 . S
C374 C375 1.362 . S
C375 H365 0.917 1_655 S
C375 C368 1.409 . S
C375 C374 1.362 . S
H376 C382 0.930 . S
H377 C385 0.930 . S
H378 C386 0.930 . S
H379 C387 0.930 . S
H380 C390 0.930 . S
H381 C391 0.930 . S
C382 H376 0.930 . S
C382 C383 1.355 . S
C382 C384 1.415 . S
C383 C382 1.355 . S
C383 C385 1.419 . S
C384 C382 1.415 . S
C384 C389 1.425 . S
C384 C391 1.409 . S
C385 H377 0.930 . S
C385 C383 1.419 . S
C385 C386 1.362 . S
C386 H378 0.930 . S
C386 C385 1.362 . S
C386 C389 1.409 . S
C387 H379 0.930 . S
C387 C388 1.355 . S
C387 C389 1.415 . S
C388 C387 1.355 . S
C388 C390 1.419 . S
C389 C384 1.425 . S
C389 C386 1.409 . S
C389 C387 1.415 . S
C390 H380 0.930 . S
C390 C388 1.419 . S
C390 C391 1.362 . S
C391 H381 0.930 . S
C391 C384 1.409 . S
C391 C390 1.362 . S
H392 C398 0.930 . S
H393 C401 0.930 . S
H394 C402 0.930 . S
H395 C403 0.930 . S
H396 C406 0.930 . S
H397 C407 0.930 . S
C398 H392 0.930 . S
C398 C399 1.355 . S
C398 C400 1.415 . S
C399 C398 1.355 . S
C399 C401 1.419 . S
C400 C398 1.415 . S
C400 C405 1.425 . S
C400 C407 1.409 . S
C401 H393 0.930 . S
C401 C399 1.419 . S
C401 C402 1.362 . S
C402 H394 0.930 . S
C402 C401 1.362 . S
C402 C405 1.409 . S
C403 H395 0.930 . S
C403 C404 1.355 . S
C403 C405 1.415 . S
C404 C403 1.355 . S
C404 C406 1.419 1_565 S
C405 C400 1.425 . S
C405 C402 1.409 . S
C405 C403 1.415 . S
C406 H396 0.930 . S
C406 C404 1.419 1_545 S
C406 C407 1.362 1_545 S
C407 H397 0.930 . S
C407 C400 1.409 . S
C407 C406 1.362 1_565 S
H408 C414 0.930 . S
H409 C417 0.930 . S
H410 C418 0.930 . S
H411 C419 0.930 . S
H412 C422 0.930 . S
H413 C423 0.930 . S
C414 H408 0.930 . S
C414 C415 1.355 . S
C414 C416 1.415 . S
C415 C414 1.355 . S
C415 C417 1.419 . S
C416 C414 1.415 . S
C416 C421 1.425 . S
C416 C423 1.409 . S
C417 H409 0.930 . S
C417 C415 1.419 . S
C417 C418 1.362 . S
C418 H410 0.930 . S
C418 C417 1.362 . S
C418 C421 1.409 . S
C419 H411 0.930 . S
C419 C420 1.355 . S
C419 C421 1.415 . S
C420 C419 1.355 . S
C420 C422 1.419 . S
C421 C416 1.425 . S
C421 C418 1.409 . S
C421 C419 1.415 . S
C422 H412 0.930 . S
C422 C420 1.419 . S
C422 C423 1.362 . S
C423 H413 0.930 . S
C423 C416 1.409 . S
C423 C422 1.362 . S
H424 C430 0.930 . S
H425 C433 0.930 . S
H426 C434 0.930 . S
H427 C435 0.930 . S
H428 C438 0.930 . S
H429 C439 0.930 . S
C430 H424 0.930 . S
C430 C431 1.355 . S
C430 C432 1.415 . S
C431 C430 1.355 . S
C431 C433 1.419 . S
C432 C430 1.415 . S
C432 C437 1.425 . S
C432 C439 1.409 . S
C433 H425 0.930 . S
C433 C431 1.419 . S
C433 C434 1.362 . S
C434 H426 0.930 . S
C434 C433 1.362 . S
C434 C437 1.409 . S
C435 H427 0.930 . S
C435 C436 1.355 . S
C435 C437 1.415 . S
C436 C435 1.355 . S
C436 C438 1.419 . S
C437 C432 1.425 . S
C437 C434 1.409 . S
C437 C435 1.415 . S
C438 H428 0.930 . S
C438 C436 1.419 . S
C438 C439 1.362 . S
C439 H429 0.930 . S
C439 C432 1.409 . S
C439 C438 1.362 . S
H440 C446 0.930 . S
H441 C449 0.930 . S
H442 C450 0.930 . S
H443 C451 0.930 . S
H444 C454 0.930 . S
H445 C455 0.930 . S
C446 H440 0.930 . S
C446 C447 1.355 . S
C446 C448 1.415 . S
C447 C446 1.355 . S
C447 C449 1.419 . S
C448 C446 1.415 . S
C448 C453 1.425 . S
C448 C455 1.409 . S
C449 H441 0.930 . S
C449 C447 1.419 . S
C449 C450 1.362 . S
C450 H442 0.930 . S
C450 C449 1.362 . S
C450 C453 1.409 . S
C451 H443 0.930 . S
C451 C452 1.355 . S
C451 C453 1.415 . S
C452 C451 1.355 . S
C452 C454 1.419 . S
C453 C448 1.425 . S
C453 C450 1.409 . S
C453 C451 1.415 . S
C454 H444 0.930 . S
C454 C452 1.419 . S
C454 C455 1.362 . S
C455 H445 0.930 . S
C455 C448 1.409 . S
C455 C454 1.362 . S
H456 C462 0.930 . S
H457 C465 0.930 . S
H458 C466 0.930 1_554 S
H459 C467 0.930 . S
H460 C470 0.930 . S
H461 C471 0.930 . S
C462 H456 0.930 . S
C462 C463 1.355 . S
C462 C464 1.415 . S
C463 C462 1.355 . S
C463 C465 1.419 . S
C464 C462 1.415 . S
C464 C469 1.425 . S
C464 C471 1.409 . S
C465 H457 0.930 . S
C465 C463 1.419 . S
C465 C466 1.362 . S
C466 H458 0.930 1_556 S
C466 C465 1.362 . S
C466 C469 1.409 . S
C467 H459 0.930 . S
C467 C468 1.355 . S
C467 C469 1.415 1_554 S
C468 C467 1.355 . S
C468 C470 1.419 1_554 S
C469 C464 1.425 . S
C469 C466 1.409 . S
C469 C467 1.415 1_556 S
C470 H460 0.930 . S
C470 C468 1.419 1_556 S
C470 C471 1.362 . S
C471 H461 0.930 . S
C471 C464 1.409 . S
C471 C470 1.362 . S
H472 C478 0.930 . S
H473 C481 0.930 . S
H474 C482 0.930 . S
H475 C483 0.930 . S
H476 C486 0.930 . S
H477 C487 0.930 . S
C478 H472 0.930 . S
C478 C479 1.355 . S
C478 C480 1.415 . S
C479 C478 1.355 . S
C479 C481 1.419 . S
C480 C478 1.415 . S
C480 C485 1.425 . S
C480 C487 1.409 . S
C481 H473 0.930 . S
C481 C479 1.419 . S
C481 C482 1.362 . S
C482 H474 0.930 . S
C482 C481 1.362 . S
C482 C485 1.409 . S
C483 H475 0.930 . S
C483 C484 1.355 . S
C483 C485 1.415 . S
C484 C483 1.355 . S
C484 C486 1.419 . S
C485 C480 1.425 . S
C485 C482 1.409 . S
C485 C483 1.415 . S
C486 H476 0.930 . S
C486 C484 1.419 . S
C486 C487 1.362 . S
C487 H477 0.930 . S
C487 C480 1.409 . S
C487 C486 1.362 . S
H488 C494 0.930 . S
H489 C497 0.930 . S
H490 C498 0.930 . S
H491 C499 0.930 . S
H492 C502 0.930 . S
H493 C503 0.930 . S
C494 H488 0.930 . S
C494 C495 1.355 . S
C494 C496 1.415 . S
C495 C494 1.355 . S
C495 C497 1.419 . S
C496 C494 1.415 . S
C496 C501 1.425 . S
C496 C503 1.409 . S
C497 H489 0.930 . S
C497 C495 1.419 . S
C497 C498 1.362 . S
C498 H490 0.930 . S
C498 C497 1.362 . S
C498 C501 1.409 . S
C499 H491 0.930 . S
C499 C500 1.355 . S
C499 C501 1.415 . S
C500 C499 1.355 . S
C500 C502 1.419 . S
C501 C496 1.425 . S
C501 C498 1.409 . S
C501 C499 1.415 . S
C502 H492 0.930 . S
C502 C500 1.419 . S
C502 C503 1.362 . S
C503 H493 0.930 . S
C503 C496 1.409 . S
C503 C502 1.362 . S
H504 C510 0.930 . S
H505 C513 0.930 . S
H506 C514 0.930 . S
H507 C515 0.930 . S
H508 C518 0.930 . S
H509 C519 0.930 . S
C510 H504 0.930 . S
C510 C511 1.355 . S
C510 C512 1.415 . S
C511 C510 1.355 . S
C511 C513 1.419 . S
C512 C510 1.415 . S
C512 C517 1.425 . S
C512 C519 1.409 . S
C513 H505 0.930 . S
C513 C511 1.419 . S
C513 C514 1.362 . S
C514 H506 0.930 . S
C514 C513 1.362 . S
C514 C517 1.409 . S
C515 H507 0.930 . S
C515 C516 1.355 . S
C515 C517 1.415 . S
C516 C515 1.355 . S
C516 C518 1.419 . S
C517 C512 1.425 . S
C517 C514 1.409 . S
C517 C515 1.415 . S
C518 H508 0.930 . S
C518 C516 1.419 . S
C518 C519 1.362 . S
C519 H509 0.930 . S
C519 C512 1.409 . S
C519 C518 1.362 . S
H520 C526 0.930 . S
H521 C529 0.930 . S
H522 C530 0.930 . S
H523 C531 0.930 . S
H524 C534 0.930 . S
H525 C535 0.930 . S
C526 H520 0.930 . S
C526 C527 1.355 . S
C526 C528 1.415 . S
C527 C526 1.355 . S
C527 C529 1.419 . S
C528 C526 1.415 . S
C528 C533 1.425 . S
C528 C535 1.409 . S
C529 H521 0.930 . S
C529 C527 1.419 . S
C529 C530 1.362 . S
C530 H522 0.930 . S
C530 C529 1.362 . S
C530 C533 1.409 . S
C531 H523 0.930 . S
C531 C532 1.355 . S
C531 C533 1.415 . S
C532 C531 1.355 . S
C532 C534 1.419 . S
C533 C528 1.425 . S
C533 C530 1.409 . S
C533 C531 1.415 . S
C534 H524 0.930 . S
C534 C532 1.419 . S
C534 C535 1.362 . S
C535 H525 0.930 . S
C535 C528 1.409 . S
C535 C534 1.362 . S
H536 C542 0.930 . S
H537 C545 0.930 . S
H538 C546 0.930 . S
H539 C547 0.930 . S
H540 C550 0.930 . S
H541 C551 0.930 . S
C542 H536 0.930 . S
C542 C543 1.355 . S
C542 C544 1.415 . S
C543 C542 1.355 . S
C543 C545 1.419 . S
C544 C542 1.415 . S
C544 C549 1.425 . S
C544 C551 1.409 . S
C545 H537 0.930 . S
C545 C543 1.419 . S
C545 C546 1.362 . S
C546 H538 0.930 . S
C546 C545 1.362 . S
C546 C549 1.409 . S
C547 H539 0.930 . S
C547 C548 1.355 . S
C547 C549 1.415 . S
C548 C547 1.355 . S
C548 C550 1.419 . S
C549 C544 1.425 . S
C549 C546 1.409 . S
C549 C547 1.415 . S
C550 H540 0.930 . S
C550 C548 1.419 . S
C550 C551 1.362 . S
C551 H541 0.930 . S
C551 C544 1.409 . S
C551 C550 1.362 . S
H552 C558 0.930 . S
H553 C561 0.930 . S
H554 C562 0.930 . S
H555 C563 0.930 . S
H556 C566 0.930 . S
H557 C567 0.930 . S
C558 H552 0.930 . S
C558 C559 1.355 . S
C558 C560 1.415 . S
C559 C558 1.355 . S
C559 C561 1.419 . S
C560 C558 1.415 . S
C560 C565 1.425 . S
C560 C567 1.409 . S
C561 H553 0.930 . S
C561 C559 1.419 . S
C561 C562 1.362 . S
C562 H554 0.930 . S
C562 C561 1.362 . S
C562 C565 1.409 . S
C563 H555 0.930 . S
C563 C564 1.355 . S
C563 C565 1.415 . S
C564 C563 1.355 . S
C564 C566 1.419 . S
C565 C560 1.425 . S
C565 C562 1.409 . S
C565 C563 1.415 . S
C566 H556 0.930 . S
C566 C564 1.419 . S
C566 C567 1.362 . S
C567 H557 0.930 . S
C567 C560 1.409 . S
C567 C566 1.362 . S
H568 C574 0.930 . S
H569 C577 0.930 . S
H570 C578 0.930 1_554 S
H571 C579 0.930 . S
H572 C582 0.930 . S
H573 C583 0.930 . S
C574 H568 0.930 . S
C574 C575 1.355 . S
C574 C576 1.415 . S
C575 C574 1.355 . S
C575 C577 1.419 . S
C576 C574 1.415 . S
C576 C581 1.425 . S
C576 C583 1.409 . S
C577 H569 0.930 . S
C577 C575 1.419 . S
C577 C578 1.362 . S
C578 H570 0.930 1_556 S
C578 C577 1.362 . S
C578 C581 1.409 . S
C579 H571 0.930 . S
C579 C580 1.355 1_554 S
C579 C581 1.415 1_554 S
C580 C579 1.355 1_556 S
C580 C582 1.419 . S
C581 C576 1.425 . S
C581 C578 1.409 . S
C581 C579 1.415 1_556 S
C582 H572 0.930 . S
C582 C580 1.419 . S
C582 C583 1.362 . S
C583 H573 0.930 . S
C583 C576 1.409 . S
C583 C582 1.362 . S
H584 C590 0.930 . S
H585 C593 0.930 . S
H586 C594 0.930 . S
H587 C595 0.930 . S
H588 C598 0.930 . S
H589 C599 0.930 . S
C590 H584 0.930 . S
C590 C591 1.355 . S
C590 C592 1.415 . S
C591 C590 1.355 . S
C591 C593 1.419 . S
C592 C590 1.415 . S
C592 C597 1.425 . S
C592 C599 1.409 . S
C593 H585 0.930 . S
C593 C591 1.419 . S
C593 C594 1.362 . S
C594 H586 0.930 . S
C594 C593 1.362 . S
C594 C597 1.409 . S
C595 H587 0.930 . S
C595 C596 1.355 . S
C595 C597 1.415 . S
C596 C595 1.355 . S
C596 C598 1.419 . S
C597 C592 1.425 . S
C597 C594 1.409 . S
C597 C595 1.415 . S
C598 H588 0.930 . S
C598 C596 1.419 . S
C598 C599 1.362 . S
C599 H589 0.930 . S
C599 C592 1.409 . S
C599 C598 1.362 . S
H600 C606 0.930 . S
H601 C609 0.930 . S
H602 C610 0.930 . S
H603 C611 0.930 . S
H604 C614 0.930 . S
H605 C615 0.930 . S
C606 H600 0.930 . S
C606 C607 1.355 . S
C606 C608 1.415 . S
C607 C606 1.355 . S
C607 C609 1.419 . S
C608 C606 1.415 . S
C608 C613 1.425 . S
C608 C615 1.409 . S
C609 H601 0.930 . S
C609 C607 1.419 . S
C609 C610 1.362 . S
C610 H602 0.930 . S
C610 C609 1.362 . S
C610 C613 1.409 . S
C611 H603 0.930 . S
C611 C612 1.355 . S
C611 C613 1.415 . S
C612 C611 1.355 . S
C612 C614 1.419 . S
C613 C608 1.425 . S
C613 C610 1.409 . S
C613 C611 1.415 . S
C614 H604 0.930 . S
C614 C612 1.419 . S
C614 C615 1.362 . S
C615 H605 0.930 . S
C615 C608 1.409 . S
C615 C614 1.362 . S
H616 C622 0.930 . S
H617 C625 0.930 . S
H618 C626 0.930 . S
H619 C627 0.930 . S
H620 C630 0.930 . S
H621 C631 0.930 . S
C622 H616 0.930 . S
C622 C623 1.355 . S
C622 C624 1.415 . S
C623 C622 1.355 . S
C623 C625 1.419 . S
C624 C622 1.415 . S
C624 C629 1.425 . S
C624 C631 1.409 . S
C625 H617 0.930 . S
C625 C623 1.419 . S
C625 C626 1.362 . S
C626 H618 0.930 . S
C626 C625 1.362 . S
C626 C629 1.409 . S
C627 H619 0.930 . S
C627 C628 1.355 . S
C627 C629 1.415 . S
C628 C627 1.355 . S
C628 C630 1.419 . S
C629 C624 1.425 . S
C629 C626 1.409 . S
C629 C627 1.415 . S
C630 H620 0.930 . S
C630 C628 1.419 . S
C630 C631 1.362 . S
C631 H621 0.930 . S
C631 C624 1.409 . S
C631 C630 1.362 . S
H632 C638 0.930 . S
H633 C641 0.930 . S
H634 C642 0.930 . S
H635 C643 0.930 . S
H636 C646 0.930 . S
H637 C647 0.930 . S
C638 H632 0.930 . S
C638 C639 1.355 . S
C638 C640 1.415 . S
C639 C638 1.355 . S
C639 C641 1.419 . S
C640 C638 1.415 . S
C640 C645 1.425 . S
C640 C647 1.409 . S
C641 H633 0.930 . S
C641 C639 1.419 . S
C641 C642 1.362 . S
C642 H634 0.930 . S
C642 C641 1.362 . S
C642 C645 1.409 . S
C643 H635 0.930 . S
C643 C644 1.355 . S
C643 C645 1.415 . S
C644 C643 1.355 . S
C644 C646 1.419 . S
C645 C640 1.425 . S
C645 C642 1.409 . S
C645 C643 1.415 . S
C646 H636 0.930 . S
C646 C644 1.419 . S
C646 C647 1.362 . S
C647 H637 0.930 . S
C647 C640 1.409 . S
C647 C646 1.362 . S
H648 C654 0.930 . S
H649 C657 0.930 . S
H650 C658 0.930 . S
H651 C659 0.930 . S
H652 C662 0.930 . S
H653 C663 0.930 . S
C654 H648 0.930 . S
C654 C655 1.355 . S
C654 C656 1.415 . S
C655 C654 1.355 . S
C655 C657 1.419 . S
C656 C654 1.415 . S
C656 C661 1.425 . S
C656 C663 1.409 . S
C657 H649 0.930 . S
C657 C655 1.419 . S
C657 C658 1.362 . S
C658 H650 0.930 . S
C658 C657 1.362 . S
C658 C661 1.409 . S
C659 H651 0.930 . S
C659 C660 1.355 . S
C659 C661 1.415 . S
C660 C659 1.355 . S
C660 C662 1.419 . S
C661 C656 1.425 . S
C661 C658 1.409 . S
C661 C659 1.415 . S
C662 H652 0.930 . S
C662 C660 1.419 . S
C662 C663 1.362 . S
C663 H653 0.930 . S
C663 C656 1.409 . S
C663 C662 1.362 . S
H664 C670 0.930 . S
H665 C673 0.930 . S
H666 C674 0.930 . S
H667 C675 0.930 . S
H668 C678 0.930 . S
H669 C679 0.930 . S
C670 H664 0.930 . S
C670 C671 1.355 . S
C670 C672 1.415 . S
C671 C670 1.355 . S
C671 C673 1.419 . S
C672 C670 1.415 . S
C672 C677 1.425 . S
C672 C679 1.409 . S
C673 H665 0.930 . S
C673 C671 1.419 . S
C673 C674 1.362 . S
C674 H666 0.930 . S
C674 C673 1.362 . S
C674 C677 1.409 . S
C675 H667 0.930 . S
C675 C676 1.355 . S
C675 C677 1.415 . S
C676 C675 1.355 . S
C676 C678 1.419 . S
C677 C672 1.425 . S
C677 C674 1.409 . S
C677 C675 1.415 . S
C678 H668 0.930 . S
C678 C676 1.419 . S
C678 C679 1.362 . S
C679 H669 0.930 . S
C679 C672 1.409 . S
C679 C678 1.362 . S
H680 C686 0.930 . S
H681 C689 0.930 . S
H682 C690 0.930 . S
H683 C691 0.930 . S
H684 C694 0.930 . S
H685 C695 0.930 . S
C686 H680 0.930 . S
C686 C687 1.355 . S
C686 C688 1.415 . S
C687 C686 1.355 . S
C687 C689 1.419 . S
C688 C686 1.415 . S
C688 C693 1.425 . S
C688 C695 1.409 . S
C689 H681 0.930 . S
C689 C687 1.419 . S
C689 C690 1.362 . S
C690 H682 0.930 . S
C690 C689 1.362 . S
C690 C693 1.409 . S
C691 H683 0.930 . S
C691 C692 1.355 . S
C691 C693 1.415 . S
C692 C691 1.355 . S
C692 C694 1.419 . S
C693 C688 1.425 . S
C693 C690 1.409 . S
C693 C691 1.415 . S
C694 H684 0.930 . S
C694 C692 1.419 . S
C694 C695 1.362 . S
C695 H685 0.930 . S
C695 C688 1.409 . S
C695 C694 1.362 . S
C319 C6 1.187 . S
C324 C159 1.248 . S
C335 C21 1.437 . S
C340 C208 1.482 . S
C356 C234 1.934 . S
C351 C49 1.857 . S
C367 C68 2.096 . S
C372 C282 2.143 1_655 S
C388 C194 2.907 . S
C383 C2 2.771 . S
C404 C162 0.471 1_565 S
C399 C30 0.506 . S
C420 C283 1.901 . S
C415 C40 1.957 . S
C436 C251 1.580 . S
C431 C63 1.603 . S
C447 C11 1.397 . S
C452 C279 1.564 . S
C468 C211 2.576 . S
C463 C44 2.664 . S
C479 C59 1.991 . S
C484 C163 1.991 . S
C495 C25 1.422 . S
C500 C248 1.397 . S
C516 C168 1.406 . S
C511 C82 1.390 . S
C527 C101 1.323 . S
C532 C199 1.326 . S
C543 C125 2.230 . S
C548 C243 2.374 . S
C559 C144 1.850 . S
C564 C291 1.940 . S
C575 C87 1.942 . S
C580 C203 2.057 1_556 S
C596 C171 1.742 . S
C591 C97 1.737 . S
C612 C274 1.742 . S
C607 C120 1.784 . S
C628 C242 1.586 . S
C623 C135 1.699 . S
C639 C78 1.938 . S
C644 C288 2.039 . S
C660 C202 1.927 . S
C655 C116 1.973 . S
C676 C154 2.619 . S
C671 C139 2.611 . S
C687 C106 0.829 . S
C692 C239 0.999 . S
