# Generated by pormake.
# Topology zzz, (3,6)-cn, num edge types: 1
# Building blocks:
#     Node 0, Type 0, BuildingBlock: CUQRIR_clean_linker_1, # of connection points: 3
#     Node 1, Type 0, BuildingBlock: CUQRIR_clean_linker_1, # of connection points: 3
#     Node 2, Type 0, BuildingBlock: CUQRIR_clean_linker_1, # of connection points: 3
#     Node 3, Type 0, BuildingBlock: CUQRIR_clean_linker_1, # of connection points: 3
#     Node 4, Type 0, BuildingBlock: CUQRIR_clean_linker_1, # of connection points: 3
#     Node 5, Type 0, BuildingBlock: CUQRIR_clean_linker_1, # of connection points: 3
#     Node 6, Type 0, BuildingBlock: CUQRIR_clean_linker_1, # of connection points: 3
#     Node 7, Type 0, BuildingBlock: CUQRIR_clean_linker_1, # of connection points: 3
#     Node 8, Type 1, BuildingBlock: VOLQOD_clean_sbu_1, # of connection points: 6
#     Node 9, Type 1, BuildingBlock: VOLQOD_clean_sbu_1, # of connection points: 6
#     Node 10, Type 1, BuildingBlock: VOLQOD_clean_sbu_1, # of connection points: 6
#     Node 11, Type 1, BuildingBlock: VOLQOD_clean_sbu_1, # of connection points: 6
#     Edge 12, Type (0, 1), BuildingBlock: XIVTED_clean_linker_0, # of connection points: 2
#     Edge 13, Type (0, 1), BuildingBlock: XIVTED_clean_linker_0, # of connection points: 2
#     Edge 14, Type (0, 1), BuildingBlock: XIVTED_clean_linker_0, # of connection points: 2
#     Edge 15, Type (0, 1), BuildingBlock: XIVTED_clean_linker_0, # of connection points: 2
#     Edge 16, Type (0, 1), BuildingBlock: XIVTED_clean_linker_0, # of connection points: 2
#     Edge 17, Type (0, 1), BuildingBlock: XIVTED_clean_linker_0, # of connection points: 2
#     Edge 18, Type (0, 1), BuildingBlock: XIVTED_clean_linker_0, # of connection points: 2
#     Edge 19, Type (0, 1), BuildingBlock: XIVTED_clean_linker_0, # of connection points: 2
#     Edge 20, Type (0, 1), BuildingBlock: XIVTED_clean_linker_0, # of connection points: 2
#     Edge 21, Type (0, 1), BuildingBlock: XIVTED_clean_linker_0, # of connection points: 2
#     Edge 22, Type (0, 1), BuildingBlock: XIVTED_clean_linker_0, # of connection points: 2
#     Edge 23, Type (0, 1), BuildingBlock: XIVTED_clean_linker_0, # of connection points: 2
#     Edge 24, Type (0, 1), BuildingBlock: XIVTED_clean_linker_0, # of connection points: 2
#     Edge 25, Type (0, 1), BuildingBlock: XIVTED_clean_linker_0, # of connection points: 2
#     Edge 26, Type (0, 1), BuildingBlock: XIVTED_clean_linker_0, # of connection points: 2
#     Edge 27, Type (0, 1), BuildingBlock: XIVTED_clean_linker_0, # of connection points: 2
#     Edge 28, Type (0, 1), BuildingBlock: XIVTED_clean_linker_0, # of connection points: 2
#     Edge 29, Type (0, 1), BuildingBlock: XIVTED_clean_linker_0, # of connection points: 2
#     Edge 30, Type (0, 1), BuildingBlock: XIVTED_clean_linker_0, # of connection points: 2
#     Edge 31, Type (0, 1), BuildingBlock: XIVTED_clean_linker_0, # of connection points: 2
#     Edge 32, Type (0, 1), BuildingBlock: XIVTED_clean_linker_0, # of connection points: 2
#     Edge 33, Type (0, 1), BuildingBlock: XIVTED_clean_linker_0, # of connection points: 2
#     Edge 34, Type (0, 1), BuildingBlock: XIVTED_clean_linker_0, # of connection points: 2
#     Edge 35, Type (0, 1), BuildingBlock: XIVTED_clean_linker_0, # of connection points: 2
# Relax obj value: 0.215
# Max RMSD: 0.242
# Mean RMSD: 0.126
data_MOF--net-zzz--node1-VOLQOD_clean_sbu_1--node2-CUQRIR_clean_linker_1--edge1-XIVTED_clean_linker_0
_symmetry_space_group_name_H-M    P1
_symmetry_Int_Tables_number       1
_symmetry_cell_setting            triclinic
loop_
_symmetry_equiv_pos_as_xyz
'x, y, z'
_cell_length_a     48.483609
_cell_length_b     48.173352
_cell_length_c     15.716154
_cell_angle_alpha  90.15438
_cell_angle_beta   89.817605
_cell_angle_gamma 90.715354
loop_
_atom_site_label
_atom_site_type_symbol
_atom_site_fract_x
_atom_site_fract_y
_atom_site_fract_z
_atom_type_partial_charge
C0 C 0.75908 0.49109 0.17035 0.0
N1 N 0.78662 0.48691 0.16818 0.0
N2 N 0.74669 0.4784 0.10342 0.0
C3 C 0.74456 0.50824 0.23631 0.0
C4 C 0.76767 0.46648 0.06037 0.0
N5 N 0.79204 0.47176 0.09943 0.0
C6 C 0.76425 0.45035 0.97875 0.0
H7 H 0.74401 0.49667 0.29723 0.0
H8 H 0.72308 0.51287 0.21756 0.0
H9 H 0.7562 0.5279 0.24734 0.0
H10 H 0.76246 0.46512 0.92508 0.0
H11 H 0.74516 0.43748 0.98041 0.0
H12 H 0.78199 0.43653 0.96701 0.0
C13 C 0.00321 0.74244 0.20252 0.0
N14 N 0.00714 0.7698 0.21831 0.0
N15 N 0.01504 0.7354 0.12748 0.0
C16 C 0.98573 0.72316 0.25564 0.0
C17 C 0.02629 0.75948 0.09852 0.0
N18 N 0.02152 0.78043 0.15379 0.0
C19 C 0.0396 0.7631 0.0126 0.0
H20 H 0.97779 0.7335 0.31374 0.0
H21 H -0.00192 0.70497 0.27451 0.0
H22 H 0.96814 0.71534 0.21703 0.0
H23 H 0.04674 0.74299 0.98661 0.0
H24 H 0.05744 0.77765 0.01682 0.0
H25 H 0.02441 0.77211 0.96817 0.0
C26 C 0.74687 0.04392 0.1724 0.0
N27 N 0.72014 0.04865 0.19127 0.0
N28 N 0.75261 0.05165 0.09143 0.0
C29 C 0.76722 0.03135 0.23256 0.0
C30 C 0.72827 0.0611 0.06155 0.0
N31 N 0.7085 0.05941 0.1225 0.0
C32 C 0.72292 0.06828 0.96985 0.0
H33 H 0.7623 0.03715 0.29925 0.0
H34 H 0.78857 0.0382 0.21677 0.0
H35 H 0.76598 0.00841 0.22714 0.0
H36 H 0.73853 0.05918 0.9267 0.0
H37 H 0.72364 0.09119 0.96285 0.0
H38 H 0.70219 0.06082 0.94985 0.0
C39 C 0.51976 0.74534 0.17945 0.0
N40 N 0.5104 0.71891 0.18809 0.0
N41 N 0.50375 0.75939 0.12439 0.0
C42 C 0.54606 0.75662 0.21716 0.0
C43 C 0.48414 0.74064 0.10123 0.0
N44 N 0.48842 0.71573 0.13827 0.0
C45 C 0.46005 0.74725 0.04481 0.0
H46 H 0.541 0.7732 0.26357 0.0
H47 H 0.55901 0.76616 0.16646 0.0
H48 H 0.55798 0.74031 0.24981 0.0
H49 H 0.46614 0.74528 0.97704 0.0
H50 H 0.45353 0.76899 0.05555 0.0
H51 H 0.44243 0.73291 0.05745 0.0
C52 C 0.2602 0.53729 0.15827 0.0
N53 N 0.23342 0.54211 0.14058 0.0
N54 N 0.26681 0.54767 0.23585 0.0
C55 C 0.27904 0.51993 0.10445 0.0
C56 C 0.24305 0.55896 0.26447 0.0
N57 N 0.22271 0.55563 0.20649 0.0
C58 C 0.23894 0.5705 0.3526 0.0
H59 H 0.28212 0.49966 0.13619 0.0
H60 H 0.2995 0.53027 0.09842 0.0
H61 H 0.27046 0.51629 0.03998 0.0
H62 H 0.22629 0.58948 0.35021 0.0
H63 H 0.25891 0.57564 0.38342 0.0
H64 H 0.22767 0.55491 0.39178 0.0
C65 C 0.06136 0.2438 0.16094 0.0
N66 N 0.05582 0.21629 0.15403 0.0
N67 N 0.05575 0.25281 0.24076 0.0
C68 C 0.0687 0.26238 0.08763 0.0
C69 C 0.04619 0.22992 0.2814 0.0
N70 N 0.04605 0.20779 0.22865 0.0
C71 C 0.03563 0.22963 0.37147 0.0
H72 H 0.08044 0.25082 0.03854 0.0
H73 H 0.08095 0.2806 0.10975 0.0
H74 H 0.04941 0.26997 0.05843 0.0
H75 H 0.01342 0.23492 0.37165 0.0
H76 H 0.04682 0.24531 0.41056 0.0
H77 H 0.03794 0.20876 0.40013 0.0
C78 C 0.24995 0.98983 0.19623 0.0
N79 N 0.27688 0.98456 0.18185 0.0
N80 N 0.24262 0.9817 0.27574 0.0
C81 C 0.23069 0.00239 0.13281 0.0
C82 C 0.26605 0.9712 0.3089 0.0
N83 N 0.28681 0.97281 0.2515 0.0
C84 C 0.26877 0.95913 0.39672 0.0
H85 H 0.2421 0.01494 0.08489 0.0
H86 H 0.21527 0.01552 0.16559 0.0
H87 H 0.21946 0.98543 0.09924 0.0
H88 H 0.27023 0.93623 0.39144 0.0
H89 H 0.25097 0.96387 0.43824 0.0
H90 H 0.28801 0.96695 0.42699 0.0
C91 C 0.44146 0.24464 0.16957 0.0
N92 N 0.4493 0.27163 0.16429 0.0
N93 N 0.44628 0.23474 0.24876 0.0
C94 C 0.43108 0.22754 0.09624 0.0
C95 C 0.45784 0.25652 0.29063 0.0
N96 N 0.45994 0.27881 0.239 0.0
C97 C 0.46867 0.25538 0.38031 0.0
H98 H 0.41909 0.20925 0.11914 0.0
H99 H 0.44898 0.22016 0.05872 0.0
H100 H 0.41811 0.24031 0.05386 0.0
H101 H 0.48862 0.24434 0.38017 0.0
H102 H 0.4542 0.24375 0.42209 0.0
H103 H 0.47177 0.27644 0.40753 0.0
O104 O 0.05882 0.99341 0.64849 0.0
Zn105 Zn 0.02641 -0.00049 0.72765 0.0
O106 O 0.99126 0.99593 0.6648 0.0
Zn107 Zn 0.97182 0.03095 0.66532 0.0
Zn108 Zn -0.00184 0.98528 0.54689 0.0
Zn109 Zn 0.96765 0.96797 0.71761 0.0
O110 O 0.93442 0.02777 0.7196 0.0
O111 O 0.93088 0.98327 0.7543 0.0
O112 O 0.03075 0.03826 0.77764 0.0
O113 O 0.99319 0.05928 0.73123 0.0
O114 O 0.9685 0.04673 0.54833 0.0
O115 O 0.98738 0.01506 0.46466 0.0
O116 O 0.98009 0.9488 0.51729 0.0
O117 O 0.02832 0.97138 0.82407 0.0
O118 O 0.96246 0.93465 0.64077 0.0
O119 O 0.9857 0.95382 0.82191 0.0
C120 C 0.06029 0.98559 0.57108 0.0
C121 C 0.92094 0.00761 0.75231 0.0
C122 C 0.97608 0.03852 0.47502 0.0
C123 C 0.01583 0.05978 0.77188 0.0
C124 C 0.96783 0.93051 0.56242 0.0
C125 C 0.0095 0.95572 0.85536 0.0
O126 O 0.03868 0.98096 0.52731 0.0
O127 O 0.48016 0.06124 0.64308 0.0
Zn128 Zn 0.48678 0.03194 0.7328 0.0
O129 O 0.50214 -0.00178 0.67912 0.0
Zn130 Zn 0.47659 0.96715 0.68991 0.0
Zn131 Zn 0.50888 0.00419 0.55809 0.0
Zn132 Zn 0.53651 0.98827 0.73413 0.0
O133 O 0.49365 0.93461 0.74675 0.0
O134 O 0.53509 0.94994 0.78605 0.0
O135 O 0.44977 0.02311 0.78911 0.0
O136 O 0.44411 0.97831 0.75929 0.0
O137 O 0.46125 0.95497 0.57802 0.0
O138 O 0.48459 0.98017 0.48409 0.0
O139 O 0.54873 -0.00106 0.52775 0.0
O140 O 0.51296 0.04792 0.82321 0.0
O141 O 0.56874 0.9916 0.65279 0.0
O142 O 0.54418 0.01446 0.82839 0.0
C143 C 0.48647 0.06274 0.56435 0.0
C144 C 0.51657 0.93099 0.78388 0.0
C145 C 0.46621 0.96198 0.50156 0.0
C146 C 0.43564 0.00062 0.79343 0.0
C147 C 0.57016 0.99511 0.57261 0.0
C148 C 0.53438 0.03714 0.85571 0.0
O149 O 0.49852 0.0429 0.52633 0.0
O150 O 0.43523 0.49871 0.64878 0.0
Zn151 Zn 0.46624 0.49235 0.73383 0.0
O152 O 0.50283 0.49686 0.67858 0.0
Zn153 Zn 0.52474 0.46363 0.69318 0.0
Zn154 Zn 0.49814 0.50249 0.55793 0.0
Zn155 Zn 0.52315 0.52886 0.7237 0.0
O156 O 0.56004 0.47169 0.75591 0.0
O157 O 0.55902 0.51729 0.77627 0.0
O158 O 0.46197 0.45362 0.78633 0.0
O159 O 0.5034 0.43609 0.76171 0.0
O160 O 0.53215 0.4438 0.58227 0.0
O161 O 0.50948 0.46964 0.49028 0.0
O162 O 0.51856 0.53571 0.51571 0.0
O163 O 0.46182 0.52147 0.8268 0.0
O164 O 0.53117 0.55815 0.63296 0.0
O165 O 0.50111 0.54588 0.81762 0.0
C166 C 0.43595 0.50599 0.57078 0.0
C167 C 0.57074 0.49398 0.78538 0.0
C168 C 0.52334 0.44817 0.50732 0.0
C169 C 0.4792 0.43389 0.79264 0.0
C170 C 0.52929 0.55679 0.55211 0.0
C171 C 0.47777 0.54103 0.85214 0.0
O172 O 0.45869 0.50867 0.53107 0.0
O173 O 0.96434 0.53072 0.55214 0.0
Zn174 Zn 0.00198 0.53406 0.60951 0.0
O175 O 0.01321 0.49781 0.65696 0.0
Zn176 Zn 0.0184 0.49968 0.78012 0.0
Zn177 Zn 0.98573 0.4695 0.63252 0.0
Zn178 Zn 0.04756 0.48641 0.60585 0.0
O179 O 0.05743 0.49049 0.81475 0.0
O180 O 0.0787 0.48904 0.68938 0.0
O181 O 0.00059 0.56294 0.70378 0.0
O182 O 0.01289 0.53886 0.81776 0.0
O183 O 0.98995 0.47682 0.84458 0.0
O184 O 0.96767 0.45595 0.73895 0.0
O185 O 0.00121 0.43719 0.5678 0.0
O186 O 0.02909 0.54773 0.51891 0.0
O187 O 0.04565 0.44794 0.55646 0.0
O188 O 0.05693 0.51147 0.51028 0.0
C189 C 0.94876 0.5096 0.53909 0.0
C190 C 0.07941 0.48918 0.77031 0.0
C191 C 0.9708 0.46069 0.818 0.0
C192 C 0.00586 0.56154 0.78317 0.0
C193 C 0.02549 0.43135 0.54316 0.0
C194 C 0.04905 0.53499 0.48412 0.0
O195 O 0.95524 0.48556 0.5649 0.0
H196 H 0.22995 0.01179 0.41459 0.0
H197 H 0.07179 0.96267 0.41575 0.0
H198 H 0.19548 0.95609 0.22767 0.0
H199 H 0.11071 0.00399 0.62886 0.0
H200 H 0.11609 0.96232 0.34184 0.0
H201 H 0.18534 0.01227 0.48905 0.0
C202 C 0.21279 -0.00024 0.38946 0.0
C203 C 0.21612 0.98366 0.31599 0.0
C204 C 0.11497 0.97135 0.40491 0.0
C205 C 0.16531 0.98409 0.3995 0.0
C206 C 0.08968 0.97155 0.44728 0.0
C207 C 0.08749 0.98342 0.52873 0.0
C208 C 0.13828 0.98331 0.4438 0.0
C209 C 0.11142 0.99455 0.56632 0.0
C210 C 0.18746 -7e-05 0.43175 0.0
C211 C 0.19347 0.96866 0.28447 0.0
N212 N 0.1358 0.99437 0.52332 0.0
N213 N 0.16895 0.96915 0.32658 0.0
H214 H 0.47807 0.19343 0.1908 0.0
H215 H 0.4524 0.10518 0.61192 0.0
H216 H 0.4153 0.21285 0.37469 0.0
H217 H 0.50181 0.076 0.40154 0.0
H218 H 0.43827 0.14458 0.52536 0.0
H219 H 0.48567 0.14905 0.26291 0.0
C220 C 0.46538 0.18782 0.24508 0.0
C221 C 0.44612 0.20651 0.27745 0.0
C222 C 0.4521 0.12947 0.49805 0.0
C223 C 0.45517 0.15664 0.36188 0.0
C224 C 0.46037 0.10709 0.54771 0.0
C225 C 0.47845 0.08731 0.51421 0.0
C226 C 0.46218 0.13226 0.41453 0.0
C227 C 0.48789 0.09076 0.43021 0.0
C228 C 0.46986 0.16274 0.28677 0.0
C229 C 0.43039 0.19879 0.34855 0.0
N230 N 0.47977 0.11286 0.38349 0.0
N231 N 0.43553 0.17459 0.38936 0.0
H232 H 0.31873 0.56463 0.20092 0.0
H233 H 0.38207 0.4969 0.62168 0.0
H234 H 0.26983 0.51784 0.38037 0.0
H235 H 0.43115 0.52897 0.41328 0.0
H236 H 0.34026 0.50726 0.54071 0.0
H237 H 0.36014 0.55452 0.28414 0.0
C238 C 0.3169 0.55214 0.25789 0.0
C239 C 0.29115 0.542 0.2843 0.0
C240 C 0.36023 0.51196 0.51291 0.0
C241 C 0.33795 0.53053 0.38021 0.0
C242 C 0.38408 0.50611 0.55914 0.0
C243 C 0.41019 0.51198 0.52426 0.0
C244 C 0.36257 0.52397 0.4317 0.0
C245 C 0.41153 0.52393 0.44282 0.0
C246 C 0.34038 0.54641 0.30548 0.0
C247 C 0.28948 0.52614 0.35884 0.0
N248 N 0.38811 0.52955 0.39957 0.0
N249 N 0.31259 0.5209 0.40448 0.0
H250 H 0.09596 0.28935 0.28362 0.0
H251 H 0.98687 0.39347 0.48893 0.0
H252 H 0.00797 0.27888 0.26551 0.0
H253 H 0.07459 0.41031 0.4859 0.0
H254 H 0.99458 0.35163 0.40547 0.0
H255 H 0.08918 0.33465 0.35333 0.0
C256 C 0.07527 0.29701 0.29315 0.0
C257 C 0.05244 0.28082 0.26932 0.0
C258 C 0.01218 0.36447 0.42286 0.0
C259 C 0.04436 0.33171 0.34965 0.0
C260 C 0.00779 0.38834 0.471 0.0
C261 C 0.03012 0.40542 0.49483 0.0
C262 C 0.03911 0.35746 0.39854 0.0
C263 C 0.05675 0.39773 0.46915 0.0
C264 C 0.07134 0.32262 0.33319 0.0
C265 C 0.02595 0.29107 0.28336 0.0
N266 N 0.06052 0.37425 0.42258 0.0
N267 N 0.0226 0.31579 0.32321 0.0
H268 H 0.78381 0.08809 0.00236 0.0
H269 H 0.88706 0.97079 0.83687 0.0
H270 H 0.77602 0.00172 0.06839 0.0
H271 H 0.89431 0.05725 0.76712 0.0
H272 H 0.84561 0.98145 0.91862 0.0
H273 H 0.82415 0.07722 0.91385 0.0
C274 C 0.79085 0.06688 0.99835 0.0
C275 C 0.77703 0.04578 0.04292 0.0
C276 C 0.85619 -0.00193 0.88506 0.0
C277 C 0.82267 0.03302 0.9421 0.0
C278 C 0.87983 0.99197 0.83805 0.0
C279 C 0.89431 0.01316 0.79518 0.0
C280 C 0.84694 0.02556 0.88949 0.0
C281 C 0.88391 0.04023 0.79922 0.0
C282 C 0.81372 0.06062 0.94792 0.0
C283 C 0.78657 0.01855 0.03589 0.0
N284 N 0.86096 0.04566 0.84587 0.0
N285 N 0.80883 0.01292 0.98637 0.0
H286 H 0.51185 0.81138 0.18732 0.0
H287 H 0.4989 0.87964 0.73664 0.0
H288 H 0.51301 0.76307 0.95654 0.0
H289 H 0.54251 0.92318 0.93623 0.0
H290 H 0.50053 0.83714 0.8208 0.0
H291 H 0.52049 0.85372 0.10236 0.0
C292 C 0.51415 0.80979 0.11895 0.0
C293 C 0.51106 0.78408 0.0781 0.0
C294 C 0.51008 0.8559 0.84578 0.0
C295 C 0.5206 0.83169 0.98155 0.0
C296 C 0.50911 0.8801 0.79789 0.0
C297 C 0.52065 0.90479 0.82967 0.0
C298 C 0.522 0.85657 0.92704 0.0
C299 C 0.53359 0.9044 0.90946 0.0
C300 C 0.5191 0.83375 0.07071 0.0
C301 C 0.51439 0.78276 0.98963 0.0
N302 N 0.53352 0.88068 0.95637 0.0
N303 N 0.51856 0.80627 0.9441 0.0
H304 H 0.70733 0.4387 0.09218 0.0
H305 H 0.60302 0.53714 0.84354 0.0
H306 H 0.72418 0.52505 0.04317 0.0
H307 H 0.59681 0.44761 0.84316 0.0
H308 H 0.64438 0.53419 0.93146 0.0
H309 H 0.66293 0.44278 0.01855 0.0
C310 C 0.70128 0.4586 0.06689 0.0
C311 C 0.71905 0.48158 0.07316 0.0
C312 C 0.63395 0.51522 0.91202 0.0
C313 C 0.66892 0.48651 0.98863 0.0
C314 C 0.61037 0.51686 0.86169 0.0
C315 C 0.59647 0.49257 0.83548 0.0
C316 C 0.64359 0.48912 0.93697 0.0
C317 C 0.60693 0.46688 0.86127 0.0
C318 C 0.67617 0.46094 0.02456 0.0
C319 C 0.7107 0.507 0.03961 0.0
N320 N 0.62981 0.46585 0.91071 0.0
N321 N 0.68623 0.5088 0.99825 0.0
H322 H 0.98921 0.72923 0.97713 0.0
H323 H 0.01929 0.56656 0.95137 0.0
H324 H 0.03188 0.68431 0.17185 0.0
H325 H 0.99008 0.61416 0.73795 0.0
H326 H 0.01942 0.60849 0.03809 0.0
H327 H 0.98484 0.68632 0.89357 0.0
C328 C 0.9976 0.71018 0.00196 0.0
C329 C 0.01112 0.71006 0.08058 0.0
C330 C 0.01292 0.60977 0.97237 0.0
C331 C 0.00606 0.66108 0.98668 0.0
C332 C 0.01277 0.5858 0.92264 0.0
C333 C 0.00477 0.58681 0.83685 0.0
C334 C 0.00492 0.63503 0.93644 0.0
C335 C 0.99651 0.6124 0.80358 0.0
C336 C 0.9951 0.68577 0.95463 0.0
C337 C 0.02129 0.685 0.1114 0.0
N338 N 0.99685 0.63552 0.85344 0.0
N339 N 0.01865 0.66145 0.06417 0.0
H340 H 0.99212 0.20061 0.26457 0.0
H341 H 0.00913 0.03778 0.3337 0.0
H342 H 0.06757 0.15645 0.22281 0.0
H343 H 0.94746 0.08688 0.46087 0.0
H344 H 0.02241 0.07833 0.2493 0.0
H345 H 0.96853 0.15648 0.29741 0.0
C346 C 0.00358 0.18148 0.26211 0.0
C347 C 0.03179 0.18189 0.24278 0.0
C348 C 0.00552 0.07998 0.29426 0.0
C349 C 0.00511 0.13166 0.27764 0.0
C350 C 0.99771 0.05679 0.3419 0.0
C351 C 0.97757 0.05916 0.40587 0.0
C352 C 0.99291 0.10553 0.31028 0.0
C353 C 0.96346 0.08431 0.41337 0.0
C354 C 0.99016 0.15641 0.27997 0.0
C355 C 0.04579 0.15674 0.2378 0.0
N356 N 0.97173 0.1067 0.36718 0.0
N357 N 0.03235 0.13255 0.25588 0.0
H358 H 0.33 0.00795 0.23611 0.0
H359 H 0.42789 0.91973 0.50777 0.0
H360 H 0.30831 0.92357 0.29946 0.0
H361 H 0.45804 0.98584 0.34609 0.0
H362 H 0.38593 0.91698 0.42251 0.0
H363 H 0.37819 -0.00177 0.26714 0.0
C364 C 0.33559 0.9872 0.25512 0.0
C365 C 0.31535 0.96654 0.26564 0.0
C366 C 0.40207 0.93154 0.40423 0.0
C367 C 0.37018 0.95538 0.30403 0.0
C368 C 0.42607 0.93309 0.45279 0.0
C369 C 0.44615 0.95359 0.43547 0.0
C370 C 0.39802 0.95094 0.33916 0.0
C371 C 0.44289 0.97006 0.36277 0.0
C372 C 0.36305 0.98162 0.27295 0.0
C373 C 0.32339 0.94014 0.29244 0.0
N374 N 0.41888 0.96893 0.31868 0.0
N375 N 0.3502 0.93539 0.31225 0.0
H376 H 0.43888 0.33011 0.22845 0.0
H377 H 0.54897 0.39775 0.51928 0.0
H378 H 0.51274 0.28586 0.28984 0.0
H379 H 0.49935 0.44688 0.3502 0.0
H380 H 0.5389 0.35689 0.43165 0.0
H381 H 0.46193 0.37368 0.26844 0.0
C382 C 0.46014 0.32976 0.24905 0.0
C383 C 0.47394 0.30462 0.25694 0.0
C384 C 0.53082 0.37679 0.41267 0.0
C385 C 0.50022 0.35389 0.30479 0.0
C386 C 0.53657 0.40014 0.46262 0.0
C387 C 0.52438 0.42564 0.44342 0.0
C388 C 0.51241 0.37899 0.34431 0.0
C389 C 0.50874 0.42754 0.36859 0.0
C390 C 0.47331 0.35451 0.27189 0.0
C391 C 0.50137 0.30497 0.28491 0.0
N392 N 0.5026 0.40435 0.32299 0.0
N393 N 0.51352 0.32922 0.30957 0.0
H394 H 0.18773 0.51247 0.21972 0.0
H395 H 0.07665 0.58487 0.48192 0.0
H396 H 0.19228 0.6015 0.23976 0.0
H397 H 0.05908 0.51197 0.33132 0.0
H398 H 0.11649 0.59519 0.38936 0.0
H399 H 0.13916 0.51364 0.25753 0.0
C400 C 0.17815 0.53236 0.22989 0.0
C401 C 0.19367 0.55693 0.22488 0.0
C402 C 0.10323 0.57758 0.37463 0.0
C403 C 0.13836 0.55853 0.27303 0.0
C404 C 0.08043 0.57183 0.42695 0.0
C405 C 0.06496 0.54741 0.41422 0.0
C406 C 0.11042 0.55848 0.31078 0.0
C407 C 0.0708 0.53086 0.34331 0.0
C408 C 0.15047 0.53309 0.25203 0.0
C409 C 0.18076 0.58216 0.24311 0.0
N410 N 0.09344 0.53635 0.29528 0.0
N411 N 0.1538 0.58234 0.26807 0.0
H412 H 0.067 0.81325 0.13367 0.0
H413 H 0.9736 0.93852 0.97692 0.0
H414 H 0.97838 0.81274 0.12127 0.0
H415 H 0.05815 0.93008 0.89568 0.0
H416 H 0.9792 0.89933 0.07259 0.0
H417 H 0.06753 0.86174 0.08215 0.0
C418 C 0.04773 0.82363 0.12168 0.0
C419 C 0.02257 0.80943 0.1326 0.0
C420 C 0.99671 0.90628 0.03491 0.0
C421 C 0.02289 0.86423 0.07566 0.0
C422 C 0.99355 0.9287 0.98057 0.0
C423 C 0.01529 0.93713 0.92727 0.0
C424 C 0.02166 0.89186 0.03518 0.0
C425 C 0.04084 0.92401 0.93545 0.0
C426 C 0.04801 0.85111 0.09263 0.0
C427 C -0.00192 0.82336 0.11597 0.0
N428 N 0.04321 0.90152 0.98723 0.0
N429 N -0.00117 0.84995 0.08833 0.0
H430 H 0.67008 0.01907 0.14323 0.0
H431 H 0.56235 0.08661 0.84946 0.0
H432 H 0.68069 0.10407 0.06464 0.0
H433 H 0.54356 0.01724 0.01273 0.0
H434 H 0.60234 0.0981 0.93913 0.0
H435 H 0.6215 0.0212 0.10803 0.0
C436 C 0.6619 0.03853 0.1212 0.0
C437 C 0.67921 0.06162 0.10875 0.0
C438 C 0.58885 0.08103 0.95728 0.0
C439 C 0.62368 0.06385 0.06274 0.0
C440 C 0.56588 0.07469 0.90666 0.0
C441 C 0.54985 0.05096 0.9241 0.0
C442 C 0.59577 0.06316 0.02436 0.0
C443 C 0.55554 0.0357 0.99748 0.0
C444 C 0.63413 0.03972 0.10012 0.0
C445 C 0.66782 0.08589 0.07529 0.0
N446 N 0.57835 0.04172 0.04397 0.0
N447 N 0.64079 0.08626 0.05188 0.0
H448 H 0.48261 0.69967 0.97496 0.0
H449 H 0.50142 0.55102 0.00571 0.0
H450 H 0.47107 0.67105 0.23257 0.0
H451 H 0.43487 0.57641 0.84373 0.0
H452 H 0.49438 0.59255 0.09406 0.0
H453 H 0.46874 0.65409 0.9227 0.0
C454 C 0.47629 0.68408 0.02063 0.0
C455 C 0.47755 0.6894 0.10833 0.0
C456 C 0.48063 0.58838 0.0412 0.0
C457 C 0.4634 0.63657 0.04855 0.0
C458 C 0.48465 0.56484 0.99089 0.0
C459 C 0.46857 0.56046 0.91802 0.0
C460 C 0.46122 0.60801 0.0159 0.0
C461 C 0.44746 0.5791 0.90002 0.0
C462 C 0.46862 0.65799 0.99066 0.0
C463 C 0.4706 0.66773 0.16451 0.0
N464 N 0.44496 0.60264 0.94711 0.0
N465 N 0.46453 0.64189 0.13369 0.0
H466 H 0.81123 0.48389 0.94326 0.0
H467 H 0.9648 0.47228 0.98918 0.0
H468 H 0.83459 0.44704 0.18155 0.0
H469 H 0.92491 0.42986 0.77954 0.0
H470 H 0.92125 0.46944 0.06946 0.0
H471 H 0.85666 0.47295 0.88511 0.0
C472 C 0.8259 0.47322 0.9829 0.0
C473 C 0.81909 0.46581 0.06646 0.0
C474 C 0.92249 0.46008 0.00683 0.0
C475 C 0.87125 0.45437 0.00188 0.0
C476 C 0.94725 0.46165 0.96095 0.0
C477 C 0.94836 0.4519 0.87656 0.0
C478 C 0.89888 0.4492 0.96712 0.0
C479 C 0.92496 0.4382 0.84357 0.0
C480 C 0.85172 0.46711 0.94998 0.0
C481 C 0.83919 0.453 0.11667 0.0
N482 N 0.90094 0.43803 0.88791 0.0
N483 N 0.86469 0.4479 0.08385 0.0
H484 H 0.01285 0.21473 0.04796 0.0
H485 H 0.99481 0.11137 0.74668 0.0
H486 H 0.09274 0.1802 0.09257 0.0
H487 H 0.05696 0.06841 0.88978 0.0
H488 H 0.00708 0.15414 0.82019 0.0
H489 H 0.00406 0.17933 0.93958 0.0
C490 C 0.02892 0.20021 0.03179 0.0
C491 C 0.0536 0.20033 0.0773 0.0
C492 C 0.01781 0.13537 0.83672 0.0
C493 C 0.04402 0.15958 0.95447 0.0
C494 C 0.01093 0.11087 0.79419 0.0
C495 C 0.02448 0.08607 0.81336 0.0
C496 C 0.03814 0.13508 0.90008 0.0
C497 C 0.04573 0.08695 0.87376 0.0
C498 C 0.02402 0.17994 0.97007 0.0
C499 C 0.07364 0.18073 0.05721 0.0
N500 N 0.05174 0.11103 0.91556 0.0
N501 N 0.06827 0.16079 0.99799 0.0
H502 H 0.29383 0.0336 0.116 0.0
H503 H 0.39975 0.9568 0.80655 0.0
H504 H 0.29701 0.94523 0.07958 0.0
H505 H 0.40979 0.04264 0.88186 0.0
H506 H 0.35653 0.95458 0.88461 0.0
H507 H 0.33022 0.03961 0.00747 0.0
C508 C 0.3016 0.01561 0.0826 0.0
C509 C 0.29253 0.98892 0.10531 0.0
C510 C 0.36808 0.97397 0.88392 0.0
C511 C 0.33413 0.99536 0.9838 0.0
C512 C 0.39289 0.97528 0.8394 0.0
C513 C 0.40873 -0.00012 0.83844 0.0
C514 C 0.35885 0.99738 0.92832 0.0
C515 C 0.39841 0.02317 0.8815 0.0
C516 C 0.32252 0.01895 0.02184 0.0
C517 C 0.30349 0.96608 0.06263 0.0
N518 N 0.37417 0.0213 0.9253 0.0
N519 N 0.32387 0.96977 0.00433 0.0
H520 H 0.49322 0.2807 0.06432 0.0
H521 H 0.43068 0.41985 0.87629 0.0
H522 H 0.4085 0.30292 0.10168 0.0
H523 H 0.51047 0.38756 0.80774 0.0
H524 H 0.42055 0.37643 0.9526 0.0
H525 H 0.49845 0.31827 0.96064 0.0
C526 C 0.47554 0.29312 0.04819 0.0
C527 C 0.4504 0.28882 0.08995 0.0
C528 C 0.44015 0.37886 0.92011 0.0
C529 C 0.45619 0.33245 0.97478 0.0
C530 C 0.44598 0.40367 0.87683 0.0
C531 C 0.47159 0.40759 0.83628 0.0
C532 C 0.46012 0.35794 0.92295 0.0
C533 C 0.49055 0.38577 0.8387 0.0
C534 C 0.47848 0.31471 0.98991 0.0
C535 C 0.42806 0.30564 0.06925 0.0
N536 N 0.48451 0.36209 0.88165 0.0
N537 N 0.43155 0.3271 0.0139 0.0
H538 H 0.22171 0.48826 0.10784 0.0
H539 H 0.12558 0.51549 0.71162 0.0
H540 H 0.20795 0.57137 0.01954 0.0
H541 H 0.09418 0.4694 0.92695 0.0
H542 H 0.16791 0.52576 0.79153 0.0
H543 H 0.18651 0.47093 0.00696 0.0
C544 C 0.21188 0.50261 0.06495 0.0
C545 C 0.21753 0.53115 0.07086 0.0
C546 C 0.15191 0.51293 0.82021 0.0
C547 C 0.17814 0.51174 0.95617 0.0
C548 C 0.12788 0.50695 0.77487 0.0
C549 C 0.10636 0.49166 0.8131 0.0
C550 C 0.1547 0.50285 0.90315 0.0
C551 C 0.11026 0.48137 0.89556 0.0
C552 C 0.19178 0.49284 0.00848 0.0
C553 C 0.20405 0.54923 0.01582 0.0
N554 N 0.13407 0.48714 0.93806 0.0
N555 N 0.18491 0.53922 0.96036 0.0
H556 H 0.95402 0.78457 0.23692 0.0
H557 H 0.97833 0.88126 0.63875 0.0
H558 H 0.03446 0.79259 0.34951 0.0
H559 H 0.9505 0.91653 0.40263 0.0
H560 H 0.98289 0.83609 0.56719 0.0
H561 H 0.93707 0.82101 0.33421 0.0
C562 C 0.96773 0.79341 0.28431 0.0
C563 C 0.99555 0.78596 0.28605 0.0
C564 C 0.97496 0.8536 0.53221 0.0
C565 C 0.97646 0.8264 0.39726 0.0
C566 C 0.9722 0.87924 0.57276 0.0
C567 C 0.96409 0.90253 0.52613 0.0
C568 C 0.96873 0.85125 0.44553 0.0
C569 C 0.95687 0.899 0.44043 0.0
C570 C 0.95818 0.81409 0.33903 0.0
C571 C 0.01287 0.79797 0.34719 0.0
N572 N 0.95945 0.87377 0.40255 0.0
N573 N 0.00306 0.81775 0.40064 0.0
H574 H 0.69263 0.08092 0.30174 0.0
H575 H 0.58687 0.97165 0.42373 0.0
H576 H 0.71323 0.99616 0.24625 0.0
H577 H 0.61416 0.02593 0.62601 0.0
H578 H 0.62966 0.98232 0.34539 0.0
H579 H 0.66035 0.06449 0.41274 0.0
C580 C 0.69077 0.05892 0.31487 0.0
C581 C 0.70549 0.03977 0.26614 0.0
C582 C 0.62644 0.99139 0.40774 0.0
C583 C 0.66838 0.02096 0.38895 0.0
C584 C 0.60214 0.9854 0.45209 0.0
C585 C 0.59727 -0.00216 0.53127 0.0
C586 C 0.64531 0.01072 0.44157 0.0
C587 C 0.61745 0.01575 0.56535 0.0
C588 C 0.6725 0.04959 0.37763 0.0
C589 C 0.70236 0.0114 0.28383 0.0
N590 N 0.6404 0.02225 0.51925 0.0
N591 N 0.68351 0.00272 0.34244 0.0
H592 H 0.5394 0.67487 0.13348 0.0
H593 H 0.53868 0.55713 0.38125 0.0
H594 H 0.50812 0.71489 0.35803 0.0
H595 H 0.536 0.61148 0.59973 0.0
H596 H 0.54163 0.59718 0.28903 0.0
H597 H 0.55378 0.63548 0.22031 0.0
C598 C 0.53582 0.67522 0.20152 0.0
C599 C 0.5223 0.69758 0.23925 0.0
C600 C 0.54136 0.60064 0.357 0.0
C601 C 0.53738 0.65246 0.33877 0.0
C602 C 0.5394 0.57759 0.41001 0.0
C603 C 0.53679 0.58093 0.49841 0.0
C604 C 0.54065 0.62743 0.39246 0.0
C605 C 0.53793 0.60794 0.53194 0.0
C606 C 0.54363 0.65266 0.25112 0.0
C607 C 0.5183 0.69766 0.32737 0.0
N608 N 0.53927 0.63018 0.47876 0.0
N609 N 0.52549 0.67524 0.37422 0.0
H610 H 0.78871 0.47255 0.33261 0.0
H611 H 0.93523 0.54677 0.41337 0.0
H612 H 0.82999 0.52182 0.14188 0.0
H613 H 0.90247 0.4783 0.56021 0.0
H614 H 0.89268 0.5463 0.32803 0.0
H615 H 0.82595 0.48348 0.43269 0.0
C616 C 0.80546 0.48615 0.31278 0.0
C617 C 0.80658 0.49628 0.22961 0.0
C618 C 0.8948 0.53163 0.37962 0.0
C619 C 0.84938 0.50852 0.34218 0.0
C620 C 0.91894 0.53198 0.42842 0.0
C621 C 0.92243 0.51233 0.49314 0.0
C622 C 0.87401 0.51181 0.397 0.0
C623 C 0.90077 0.49355 0.51007 0.0
C624 C 0.82678 0.49221 0.36931 0.0
C625 C 0.82873 0.51356 0.20577 0.0
N626 N 0.87758 0.49371 0.46221 0.0
N627 N 0.84949 0.51901 0.26169 0.0
loop_
_geom_bond_atom_site_label_1
_geom_bond_atom_site_label_2
_geom_bond_distance
_geom_bond_site_symmetry_2
_ccdc_geom_bond_type
C0 N1 1.317 . S
C0 N2 1.348 1_554 S
C0 C3 1.485 . S
N1 C0 1.317 . S
N1 N5 1.370 1_554 S
N2 C0 1.348 1_556 S
N2 C4 1.346 . S
C3 C0 1.485 . S
C3 H7 0.960 . S
C3 H8 0.961 . S
C3 H9 0.960 . S
C4 N2 1.346 . S
C4 N5 1.307 . S
C4 C6 1.486 . S
N5 N1 1.370 1_556 S
N5 C4 1.307 . S
C6 C4 1.486 . S
C6 H10 0.960 . S
C6 H11 0.960 . S
C6 H12 0.959 . S
H7 C3 0.960 . S
H8 C3 0.961 . S
H9 C3 0.960 . S
H10 C6 0.960 . S
H11 C6 0.960 . S
H12 C6 0.959 . S
C13 N14 1.317 . S
C13 N15 1.348 . S
C13 C16 1.485 . S
N14 C13 1.317 . S
N14 N18 1.371 1_655 S
N15 C13 1.348 . S
N15 C17 1.346 . S
C16 C13 1.485 . S
C16 H20 0.960 1_655 S
C16 H21 0.961 . S
C16 H22 0.960 . S
C17 N15 1.346 . S
C17 N18 1.307 1_655 S
C17 C19 1.486 1_654 S
N18 N14 1.371 1_455 S
N18 C17 1.307 1_455 S
C19 C17 1.486 1_456 S
C19 H23 0.933 1_455 S
C19 H24 0.981 . S
C19 H25 0.965 . S
H20 C16 0.960 1_455 S
H21 C16 0.961 . S
H22 C16 0.960 . S
H23 C19 0.933 1_655 S
H24 C19 0.981 . S
H25 C19 0.965 . S
C26 N27 1.317 . S
C26 N28 1.348 . S
C26 C29 1.485 . S
N27 C26 1.317 . S
N27 N31 1.371 . S
N28 C26 1.348 . S
N28 C30 1.346 1_564 S
C29 C26 1.485 . S
C29 H33 0.960 1_565 S
C29 H34 0.961 . S
C29 H35 0.960 . S
C30 N28 1.346 1_546 S
C30 N31 1.307 1_546 S
C30 C32 1.485 . S
N31 N27 1.371 . S
N31 C30 1.307 1_564 S
C32 C30 1.485 . S
C32 H36 0.928 1_545 S
C32 H37 0.986 . S
C32 H38 0.967 . S
H33 C29 0.960 1_545 S
H34 C29 0.961 . S
H35 C29 0.960 . S
H36 C32 0.928 1_565 S
H37 C32 0.986 . S
H38 C32 0.967 . S
C39 N40 1.317 . S
C39 N41 1.348 . S
C39 C42 1.485 . S
N40 C39 1.317 . S
N40 N44 1.370 . S
N41 C39 1.348 . S
N41 C43 1.346 1_554 S
C42 C39 1.485 . S
C42 H46 0.960 . S
C42 H47 0.961 . S
C42 H48 0.960 . S
C43 N41 1.346 1_556 S
C43 N44 1.307 1_556 S
C43 C45 1.486 . S
N44 N40 1.370 . S
N44 C43 1.307 1_554 S
C45 C43 1.486 . S
C45 H49 0.960 . S
C45 H50 0.960 . S
C45 H51 0.959 . S
H46 C42 0.960 . S
H47 C42 0.961 . S
H48 C42 0.960 . S
H49 C45 0.960 . S
H50 C45 0.960 . S
H51 C45 0.959 . S
C52 N53 1.317 . S
C52 N54 1.348 . S
C52 C55 1.485 . S
N53 C52 1.317 . S
N53 N57 1.370 . S
N54 C52 1.348 . S
N54 C56 1.346 . S
C55 C52 1.485 . S
C55 H59 0.960 . S
C55 H60 0.961 . S
C55 H61 0.960 . S
C56 N54 1.346 . S
C56 N57 1.307 . S
C56 C58 1.486 . S
N57 N53 1.370 . S
N57 C56 1.307 . S
C58 C56 1.486 . S
C58 H62 0.960 . S
C58 H63 0.960 . S
C58 H64 0.959 . S
H59 C55 0.960 . S
H60 C55 0.961 . S
H61 C55 0.960 . S
H62 C58 0.960 . S
H63 C58 0.960 . S
H64 C58 0.959 . S
C65 N66 1.317 . S
C65 N67 1.348 . S
C65 C68 1.485 . S
N66 C65 1.317 . S
N66 N70 1.370 . S
N67 C65 1.348 . S
N67 C69 1.346 . S
C68 C65 1.485 . S
C68 H72 0.960 . S
C68 H73 0.961 . S
C68 H74 0.960 . S
C69 N67 1.346 . S
C69 N70 1.307 . S
C69 C71 1.486 . S
N70 N66 1.370 . S
N70 C69 1.307 . S
C71 C69 1.486 . S
C71 H75 0.960 . S
C71 H76 0.960 . S
C71 H77 0.959 . S
H72 C68 0.960 . S
H73 C68 0.961 . S
H74 C68 0.960 . S
H75 C71 0.960 . S
H76 C71 0.960 . S
H77 C71 0.959 . S
C78 N79 1.317 . S
C78 N80 1.348 . S
C78 C81 1.485 . S
N79 C78 1.317 . S
N79 N83 1.370 . S
N80 C78 1.348 . S
N80 C82 1.346 . S
C81 C78 1.485 . S
C81 H85 0.960 . S
C81 H86 0.961 1_545 S
C81 H87 0.960 1_545 S
C82 N80 1.346 . S
C82 N83 1.307 . S
C82 C84 1.486 . S
N83 N79 1.370 . S
N83 C82 1.307 . S
C84 C82 1.486 . S
C84 H88 0.960 1_545 S
C84 H89 0.960 . S
C84 H90 0.959 . S
H85 C81 0.960 . S
H86 C81 0.961 1_565 S
H87 C81 0.960 1_565 S
H88 C84 0.960 1_565 S
H89 C84 0.960 . S
H90 C84 0.959 . S
C91 N92 1.317 . S
C91 N93 1.348 . S
C91 C94 1.485 . S
N92 C91 1.317 . S
N92 N96 1.370 . S
N93 C91 1.348 . S
N93 C95 1.346 . S
C94 C91 1.485 . S
C94 H98 0.960 . S
C94 H99 0.961 . S
C94 H100 0.960 . S
C95 N93 1.346 . S
C95 N96 1.307 . S
C95 C97 1.486 . S
N96 N92 1.370 . S
N96 C95 1.307 . S
C97 C95 1.486 . S
C97 H101 0.960 . S
C97 H102 0.960 . S
C97 H103 0.959 . S
H98 C94 0.960 . S
H99 C94 0.961 . S
H100 C94 0.960 . S
H101 C97 0.960 . S
H102 C97 0.960 . S
H103 C97 0.959 . S
O104 Zn105 1.953 . S
O104 C120 1.225 1_545 S
Zn105 O104 1.953 . S
Zn105 O106 1.948 1_545 S
Zn105 O112 1.919 . S
Zn105 O117 1.924 1_545 S
O106 Zn105 1.948 1_565 S
O106 Zn107 1.901 1_465 S
O106 Zn108 1.952 . S
O106 Zn109 1.966 1_455 S
Zn107 O106 1.901 1_645 S
Zn107 O110 1.933 . S
Zn107 O113 1.941 1_655 S
Zn107 O114 1.965 . S
Zn108 O106 1.952 . S
Zn108 O115 1.938 1_565 S
Zn108 O116 1.906 . S
Zn108 O126 1.953 . S
Zn109 O106 1.966 1_655 S
Zn109 O111 1.932 . S
Zn109 O118 1.977 . S
Zn109 O119 1.910 1_655 S
O110 Zn107 1.933 . S
O110 C121 1.226 . S
O111 Zn109 1.932 . S
O111 C121 1.307 1_565 S
O112 Zn105 1.919 . S
O112 C123 1.253 . S
O113 Zn107 1.941 1_455 S
O113 C123 1.283 . S
O114 Zn107 1.965 . S
O114 C122 1.303 1_655 S
O115 Zn108 1.938 1_545 S
O115 C122 1.247 . S
O116 Zn108 1.906 . S
O116 C124 1.304 1_455 S
O117 Zn105 1.924 1_565 S
O117 C125 1.311 . S
O118 Zn109 1.977 . S
O118 C124 1.272 . S
O119 Zn109 1.910 1_455 S
O119 C125 1.231 . S
C120 O104 1.225 1_565 S
C120 O126 1.298 . S
C121 O110 1.226 . S
C121 O111 1.307 1_545 S
C122 O114 1.303 1_455 S
C122 O115 1.247 . S
C123 O112 1.253 . S
C123 O113 1.283 . S
C124 O116 1.304 1_655 S
C124 O118 1.272 . S
C125 O117 1.311 . S
C125 O119 1.231 . S
O126 Zn108 1.953 . S
O126 C120 1.298 . S
O127 Zn128 1.953 . S
O127 C143 1.225 . S
Zn128 O127 1.953 . S
Zn128 O129 1.949 . S
Zn128 O135 1.919 . S
Zn128 O140 1.924 . S
O129 Zn128 1.949 . S
O129 Zn130 1.923 1_545 S
O129 Zn131 1.950 . S
O129 Zn132 1.945 1_545 S
Zn130 O129 1.923 1_565 S
Zn130 O133 1.933 . S
Zn130 O136 1.941 . S
Zn130 O137 1.965 . S
Zn131 O129 1.950 . S
Zn131 O138 1.938 . S
Zn131 O139 1.906 . S
Zn131 O149 1.953 . S
Zn132 O129 1.945 1_565 S
Zn132 O134 1.932 . S
Zn132 O141 1.977 . S
Zn132 O142 1.910 1_565 S
O133 Zn130 1.933 . S
O133 C144 1.226 . S
O134 Zn132 1.932 . S
O134 C144 1.307 . S
O135 Zn128 1.919 . S
O135 C146 1.253 . S
O136 Zn130 1.941 . S
O136 C146 1.283 1_565 S
O137 Zn130 1.965 . S
O137 C145 1.303 1_565 S
O138 Zn131 1.938 . S
O138 C145 1.247 . S
O139 Zn131 1.906 . S
O139 C147 1.304 1_545 S
O140 Zn128 1.924 . S
O140 C148 1.311 . S
O141 Zn132 1.977 . S
O141 C147 1.272 . S
O142 Zn132 1.910 1_545 S
O142 C148 1.231 . S
C143 O127 1.225 . S
C143 O149 1.298 . S
C144 O133 1.226 . S
C144 O134 1.307 . S
C145 O137 1.303 1_545 S
C145 O138 1.247 . S
C146 O135 1.253 . S
C146 O136 1.283 1_545 S
C147 O139 1.304 1_565 S
C147 O141 1.272 . S
C148 O140 1.311 . S
C148 O142 1.231 . S
O149 Zn131 1.953 . S
O149 C143 1.298 . S
O150 Zn151 1.953 . S
O150 C166 1.225 . S
Zn151 O150 1.953 . S
Zn151 O152 1.949 . S
Zn151 O158 1.919 . S
Zn151 O163 1.924 . S
O152 Zn151 1.949 . S
O152 Zn153 1.923 . S
O152 Zn154 1.950 . S
O152 Zn155 1.945 . S
Zn153 O152 1.923 . S
Zn153 O156 1.933 . S
Zn153 O159 1.941 . S
Zn153 O160 1.965 . S
Zn154 O152 1.950 . S
Zn154 O161 1.938 . S
Zn154 O162 1.906 . S
Zn154 O172 1.953 . S
Zn155 O152 1.945 . S
Zn155 O157 1.932 . S
Zn155 O164 1.977 . S
Zn155 O165 1.910 . S
O156 Zn153 1.933 . S
O156 C167 1.226 . S
O157 Zn155 1.932 . S
O157 C167 1.307 . S
O158 Zn151 1.919 . S
O158 C169 1.253 . S
O159 Zn153 1.941 . S
O159 C169 1.283 . S
O160 Zn153 1.965 . S
O160 C168 1.303 . S
O161 Zn154 1.938 . S
O161 C168 1.247 . S
O162 Zn154 1.906 . S
O162 C170 1.304 . S
O163 Zn151 1.924 . S
O163 C171 1.311 . S
O164 Zn155 1.977 . S
O164 C170 1.272 . S
O165 Zn155 1.910 . S
O165 C171 1.231 . S
C166 O150 1.225 . S
C166 O172 1.298 . S
C167 O156 1.226 . S
C167 O157 1.307 . S
C168 O160 1.303 . S
C168 O161 1.247 . S
C169 O158 1.253 . S
C169 O159 1.283 . S
C170 O162 1.304 . S
C170 O164 1.272 . S
C171 O163 1.311 . S
C171 O165 1.231 . S
O172 Zn154 1.953 . S
O172 C166 1.298 . S
O173 Zn174 1.926 1_655 S
O173 C189 1.225 . S
Zn174 O173 1.926 1_455 S
Zn174 O175 1.949 . S
Zn174 O181 1.919 . S
Zn174 O186 1.952 . S
O175 Zn174 1.949 . S
O175 Zn176 1.918 1_455 S
O175 Zn177 1.928 1_455 S
O175 Zn178 1.973 . S
Zn176 O175 1.918 1_655 S
Zn176 O179 1.933 1_655 S
Zn176 O182 1.941 . S
Zn176 O183 1.965 . S
Zn177 O175 1.928 1_655 S
Zn177 O184 1.938 . S
Zn177 O185 1.906 . S
Zn177 O195 1.953 . S
Zn178 O175 1.973 . S
Zn178 O180 1.932 . S
Zn178 O187 1.977 . S
Zn178 O188 1.910 . S
O179 Zn176 1.933 1_455 S
O179 C190 1.226 . S
O180 Zn178 1.932 . S
O180 C190 1.307 . S
O181 Zn174 1.919 . S
O181 C192 1.253 . S
O182 Zn176 1.941 . S
O182 C192 1.282 1_655 S
O183 Zn176 1.965 . S
O183 C191 1.303 . S
O184 Zn177 1.938 . S
O184 C191 1.247 . S
O185 Zn177 1.906 . S
O185 C193 1.304 1_655 S
O186 Zn174 1.952 . S
O186 C194 1.311 . S
O187 Zn178 1.977 . S
O187 C193 1.272 . S
O188 Zn178 1.910 . S
O188 C194 1.231 . S
C189 O173 1.225 . S
C189 O195 1.298 . S
C190 O179 1.226 . S
C190 O180 1.307 . S
C191 O183 1.303 . S
C191 O184 1.247 . S
C192 O181 1.253 . S
C192 O182 1.282 1_455 S
C193 O185 1.304 1_455 S
C193 O187 1.272 . S
C194 O186 1.311 . S
C194 O188 1.231 . S
O195 Zn177 1.953 . S
O195 C189 1.298 . S
H196 C202 0.930 . S
H197 C206 0.930 . S
H198 C211 0.929 . S
H199 C209 0.929 . S
H200 C204 0.929 . S
H201 C210 0.929 . S
C202 H196 0.930 . S
C202 C203 1.367 . S
C202 C210 1.378 . S
C203 C202 1.367 . S
C203 C211 1.433 1_545 S
C204 H200 0.929 . S
C204 C206 1.378 . S
C204 C208 1.350 1_565 S
C205 C208 1.463 . S
C205 C210 1.350 . S
C205 N213 1.427 1_545 S
C206 H197 0.930 . S
C206 C204 1.378 . S
C206 C207 1.367 . S
C207 C206 1.367 . S
C207 C209 1.433 1_565 S
C208 C204 1.350 1_545 S
C208 C205 1.463 . S
C208 N212 1.427 . S
C209 H199 0.929 . S
C209 C207 1.433 1_545 S
C209 N212 1.384 . S
C210 H201 0.929 . S
C210 C202 1.378 . S
C210 C205 1.350 . S
C211 H198 0.929 . S
C211 C203 1.433 1_565 S
C211 N213 1.384 . S
N212 C208 1.427 . S
N212 C209 1.384 . S
N213 C205 1.427 1_565 S
N213 C211 1.384 . S
H214 C220 0.930 . S
H215 C224 0.930 . S
H216 C229 0.929 . S
H217 C227 0.929 . S
H218 C222 0.929 . S
H219 C228 0.929 . S
C220 H214 0.930 . S
C220 C221 1.367 . S
C220 C228 1.378 . S
C221 C220 1.367 . S
C221 C229 1.433 . S
C222 H218 0.929 . S
C222 C224 1.378 . S
C222 C226 1.350 . S
C223 C226 1.463 . S
C223 C228 1.350 . S
C223 N231 1.427 . S
C224 H215 0.930 . S
C224 C222 1.378 . S
C224 C225 1.367 . S
C225 C224 1.367 . S
C225 C227 1.433 . S
C226 C222 1.350 . S
C226 C223 1.463 . S
C226 N230 1.427 . S
C227 H217 0.929 . S
C227 C225 1.433 . S
C227 N230 1.384 . S
C228 H219 0.929 . S
C228 C220 1.378 . S
C228 C223 1.350 . S
C229 H216 0.929 . S
C229 C221 1.433 . S
C229 N231 1.384 . S
N230 C226 1.427 . S
N230 C227 1.384 . S
N231 C223 1.427 . S
N231 C229 1.384 . S
H232 C238 0.930 . S
H233 C242 0.930 . S
H234 C247 0.929 . S
H235 C245 0.929 . S
H236 C240 0.929 . S
H237 C246 0.929 . S
C238 H232 0.930 . S
C238 C239 1.367 . S
C238 C246 1.378 . S
C239 C238 1.367 . S
C239 C247 1.433 . S
C240 H236 0.929 . S
C240 C242 1.378 . S
C240 C244 1.350 . S
C241 C244 1.463 . S
C241 C246 1.350 . S
C241 N249 1.427 . S
C242 H233 0.930 . S
C242 C240 1.378 . S
C242 C243 1.367 . S
C243 C242 1.367 . S
C243 C245 1.433 . S
C244 C240 1.350 . S
C244 C241 1.463 . S
C244 N248 1.427 . S
C245 H235 0.929 . S
C245 C243 1.433 . S
C245 N248 1.384 . S
C246 H237 0.929 . S
C246 C238 1.378 . S
C246 C241 1.350 . S
C247 H234 0.929 . S
C247 C239 1.433 . S
C247 N249 1.384 . S
N248 C244 1.427 . S
N248 C245 1.384 . S
N249 C241 1.427 . S
N249 C247 1.384 . S
H250 C256 0.930 . S
H251 C260 0.930 . S
H252 C265 0.929 1_655 S
H253 C263 0.929 . S
H254 C258 0.929 . S
H255 C264 0.929 . S
C256 H250 0.930 . S
C256 C257 1.367 . S
C256 C264 1.378 . S
C257 C256 1.367 . S
C257 C265 1.433 . S
C258 H254 0.929 . S
C258 C260 1.378 . S
C258 C262 1.350 1_655 S
C259 C262 1.463 . S
C259 C264 1.350 . S
C259 N267 1.427 . S
C260 H251 0.930 . S
C260 C258 1.378 . S
C260 C261 1.367 1_655 S
C261 C260 1.367 1_455 S
C261 C263 1.433 . S
C262 C258 1.350 1_455 S
C262 C259 1.463 . S
C262 N266 1.427 . S
C263 H253 0.929 . S
C263 C261 1.433 . S
C263 N266 1.384 . S
C264 H255 0.929 . S
C264 C256 1.378 . S
C264 C259 1.350 . S
C265 H252 0.929 1_455 S
C265 C257 1.433 . S
C265 N267 1.384 . S
N266 C262 1.427 . S
N266 C263 1.384 . S
N267 C259 1.427 . S
N267 C265 1.384 . S
H268 C274 0.930 . S
H269 C278 0.930 . S
H270 C283 0.929 . S
H271 C281 0.929 . S
H272 C276 0.929 . S
H273 C282 0.929 . S
C274 H268 0.930 . S
C274 C275 1.379 1_556 S
C274 C282 1.378 . S
C275 C274 1.379 1_554 S
C275 C283 1.421 1_545 S
C276 H272 0.929 . S
C276 C278 1.378 . S
C276 C280 1.342 1_565 S
C277 C280 1.463 . S
C277 C282 1.350 . S
C277 N285 1.427 1_545 S
C278 H269 0.930 . S
C278 C276 1.378 . S
C278 C279 1.367 1_565 S
C279 C278 1.367 1_545 S
C279 C281 1.433 . S
C280 C276 1.342 1_545 S
C280 C277 1.463 . S
C280 N284 1.435 . S
C281 H271 0.929 . S
C281 C279 1.433 . S
C281 N284 1.384 . S
C282 H273 0.929 . S
C282 C274 1.378 . S
C282 C277 1.350 . S
C283 H270 0.929 . S
C283 C275 1.421 1_565 S
C283 N285 1.384 1_554 S
N284 C280 1.435 . S
N284 C281 1.384 . S
N285 C277 1.427 1_565 S
N285 C283 1.384 1_556 S
H286 C292 0.930 . S
H287 C296 0.930 . S
H288 C301 0.929 . S
H289 C299 0.929 . S
H290 C294 0.929 . S
H291 C300 0.929 1_554 S
C292 H286 0.930 . S
C292 C293 1.367 1_554 S
C292 C300 1.378 1_554 S
C293 C292 1.367 1_556 S
C293 C301 1.433 . S
C294 H290 0.929 . S
C294 C296 1.378 . S
C294 C298 1.350 . S
C295 C298 1.463 . S
C295 C300 1.350 . S
C295 N303 1.427 . S
C296 H287 0.930 . S
C296 C294 1.378 . S
C296 C297 1.367 . S
C297 C296 1.367 . S
C297 C299 1.433 . S
C298 C294 1.350 . S
C298 C295 1.463 . S
C298 N302 1.427 . S
C299 H289 0.929 . S
C299 C297 1.433 . S
C299 N302 1.384 . S
C300 H291 0.929 1_556 S
C300 C292 1.378 1_556 S
C300 C295 1.350 . S
C301 H288 0.929 . S
C301 C293 1.433 . S
C301 N303 1.384 . S
N302 C298 1.427 . S
N302 C299 1.384 . S
N303 C295 1.427 . S
N303 C301 1.384 . S
H304 C310 0.930 1_554 S
H305 C314 0.930 . S
H306 C319 0.929 . S
H307 C317 0.929 . S
H308 C312 0.929 . S
H309 C318 0.929 . S
C310 H304 0.930 1_556 S
C310 C311 1.367 . S
C310 C318 1.378 . S
C311 C310 1.367 . S
C311 C319 1.433 . S
C312 H308 0.929 . S
C312 C314 1.378 . S
C312 C316 1.350 . S
C313 C316 1.463 . S
C313 C318 1.350 . S
C313 N321 1.427 . S
C314 H305 0.930 . S
C314 C312 1.378 . S
C314 C315 1.367 . S
C315 C314 1.367 . S
C315 C317 1.433 . S
C316 C312 1.350 . S
C316 C313 1.463 . S
C316 N320 1.427 . S
C317 H307 0.929 . S
C317 C315 1.433 . S
C317 N320 1.384 . S
C318 H309 0.929 . S
C318 C310 1.378 . S
C318 C313 1.350 . S
C319 H306 0.929 . S
C319 C311 1.433 . S
C319 N321 1.384 . S
N320 C316 1.427 . S
N320 C317 1.384 . S
N321 C313 1.427 . S
N321 C319 1.384 . S
H322 C328 0.930 . S
H323 C332 0.930 . S
H324 C337 0.929 . S
H325 C335 0.929 . S
H326 C330 0.929 . S
H327 C336 0.929 . S
C328 H322 0.930 . S
C328 C329 1.367 . S
C328 C336 1.378 1_554 S
C329 C328 1.367 . S
C329 C337 1.433 1_655 S
C330 H326 0.929 . S
C330 C332 1.378 . S
C330 C334 1.350 . S
C331 C334 1.466 . S
C331 C336 1.323 1_455 S
C331 N339 1.454 . S
C332 H323 0.930 . S
C332 C330 1.378 . S
C332 C333 1.367 . S
C333 C332 1.367 . S
C333 C335 1.433 1_455 S
C334 C330 1.350 . S
C334 C331 1.466 . S
C334 N338 1.427 1_455 S
C335 H325 0.929 . S
C335 C333 1.433 1_655 S
C335 N338 1.384 . S
C336 H327 0.929 . S
C336 C328 1.378 1_556 S
C336 C331 1.323 1_655 S
C337 H324 0.929 . S
C337 C329 1.433 1_455 S
C337 N339 1.384 1_554 S
N338 C334 1.427 1_655 S
N338 C335 1.384 . S
N339 C331 1.454 . S
N339 C337 1.384 1_556 S
H340 C346 0.930 . S
H341 C350 0.930 . S
H342 C355 0.929 . S
H343 C353 0.953 . S
H344 C348 0.929 . S
H345 C354 0.929 1_655 S
C346 H340 0.930 . S
C346 C347 1.367 . S
C346 C354 1.378 . S
C347 C346 1.367 . S
C347 C355 1.433 . S
C348 H344 0.929 . S
C348 C350 1.378 . S
C348 C352 1.350 . S
C349 C352 1.463 . S
C349 C354 1.350 . S
C349 N357 1.427 . S
C350 H341 0.930 . S
C350 C348 1.378 . S
C350 C351 1.367 . S
C351 C350 1.367 . S
C351 C353 1.413 1_455 S
C352 C348 1.350 . S
C352 C349 1.463 . S
C352 N356 1.427 . S
C353 H343 0.953 . S
C353 C351 1.413 1_655 S
C353 N356 1.379 1_655 S
C354 H345 0.929 1_455 S
C354 C346 1.378 . S
C354 C349 1.350 . S
C355 H342 0.929 . S
C355 C347 1.433 . S
C355 N357 1.384 . S
N356 C352 1.427 . S
N356 C353 1.379 1_455 S
N357 C349 1.427 . S
N357 C355 1.384 . S
H358 C364 0.930 . S
H359 C368 0.930 . S
H360 C373 0.929 . S
H361 C371 0.929 . S
H362 C366 0.929 . S
H363 C372 0.929 . S
C364 H358 0.930 . S
C364 C365 1.367 . S
C364 C372 1.378 . S
C365 C364 1.367 . S
C365 C373 1.433 1_545 S
C366 H362 0.929 . S
C366 C368 1.378 . S
C366 C370 1.350 1_565 S
C367 C370 1.463 . S
C367 C372 1.350 . S
C367 N375 1.427 1_545 S
C368 H359 0.930 . S
C368 C366 1.378 . S
C368 C369 1.367 1_565 S
C369 C368 1.367 1_545 S
C369 C371 1.433 . S
C370 C366 1.350 1_545 S
C370 C367 1.463 . S
C370 N374 1.427 . S
C371 H361 0.929 . S
C371 C369 1.433 . S
C371 N374 1.384 . S
C372 H363 0.929 . S
C372 C364 1.378 . S
C372 C367 1.350 . S
C373 H360 0.929 . S
C373 C365 1.433 1_565 S
C373 N375 1.384 . S
N374 C370 1.427 . S
N374 C371 1.384 . S
N375 C367 1.427 1_565 S
N375 C373 1.384 . S
H376 C382 0.930 . S
H377 C386 0.930 . S
H378 C391 0.929 . S
H379 C389 0.929 . S
H380 C384 0.929 . S
H381 C390 0.929 . S
C382 H376 0.930 . S
C382 C383 1.367 . S
C382 C390 1.378 . S
C383 C382 1.367 . S
C383 C391 1.433 . S
C384 H380 0.929 . S
C384 C386 1.378 . S
C384 C388 1.350 . S
C385 C388 1.463 . S
C385 C390 1.350 . S
C385 N393 1.427 . S
C386 H377 0.930 . S
C386 C384 1.378 . S
C386 C387 1.367 . S
C387 C386 1.367 . S
C387 C389 1.433 . S
C388 C384 1.350 . S
C388 C385 1.463 . S
C388 N392 1.427 . S
C389 H379 0.929 . S
C389 C387 1.433 . S
C389 N392 1.384 . S
C390 H381 0.929 . S
C390 C382 1.378 . S
C390 C385 1.350 . S
C391 H378 0.929 . S
C391 C383 1.433 . S
C391 N393 1.384 . S
N392 C388 1.427 . S
N392 C389 1.384 . S
N393 C385 1.427 . S
N393 C391 1.384 . S
H394 C400 0.930 . S
H395 C404 0.930 . S
H396 C409 0.929 . S
H397 C407 0.929 . S
H398 C402 0.929 . S
H399 C408 0.929 . S
C400 H394 0.930 . S
C400 C401 1.367 . S
C400 C408 1.378 . S
C401 C400 1.367 . S
C401 C409 1.433 . S
C402 H398 0.929 . S
C402 C404 1.378 . S
C402 C406 1.350 . S
C403 C406 1.463 . S
C403 C408 1.350 . S
C403 N411 1.427 . S
C404 H395 0.930 . S
C404 C402 1.378 . S
C404 C405 1.367 . S
C405 C404 1.367 . S
C405 C407 1.433 . S
C406 C402 1.350 . S
C406 C403 1.463 . S
C406 N410 1.427 . S
C407 H397 0.929 . S
C407 C405 1.433 . S
C407 N410 1.384 . S
C408 H399 0.929 . S
C408 C400 1.378 . S
C408 C403 1.350 . S
C409 H396 0.929 . S
C409 C401 1.433 . S
C409 N411 1.384 . S
N410 C406 1.427 . S
N410 C407 1.384 . S
N411 C403 1.427 . S
N411 C409 1.384 . S
H412 C418 0.930 . S
H413 C422 0.920 1_655 S
H414 C427 0.929 . S
H415 C425 0.929 . S
H416 C420 0.929 1_655 S
H417 C426 0.929 . S
C418 H412 0.930 . S
C418 C419 1.398 . S
C418 C426 1.378 1_554 S
C419 C418 1.398 . S
C419 C427 1.410 1_455 S
C420 H416 0.929 1_455 S
C420 C422 1.378 . S
C420 C424 1.350 . S
C421 C424 1.463 . S
C421 C426 1.350 . S
C421 N429 1.427 1_456 S
C422 H413 0.920 1_455 S
C422 C420 1.378 . S
C422 C423 1.367 . S
C423 C422 1.367 . S
C423 C425 1.433 . S
C424 C420 1.350 . S
C424 C421 1.463 . S
C424 N428 1.427 . S
C425 H415 0.929 . S
C425 C423 1.433 . S
C425 N428 1.384 . S
C426 H417 0.929 . S
C426 C418 1.378 1_556 S
C426 C421 1.350 . S
C427 H414 0.929 . S
C427 C419 1.410 1_655 S
C427 N429 1.384 . S
N428 C424 1.427 . S
N428 C425 1.384 . S
N429 C421 1.427 1_654 S
N429 C427 1.384 . S
H430 C436 0.930 . S
H431 C440 0.930 . S
H432 C445 0.929 . S
H433 C443 0.929 1_565 S
H434 C438 0.929 . S
H435 C444 0.929 . S
C436 H430 0.930 . S
C436 C437 1.385 1_556 S
C436 C444 1.378 . S
C437 C436 1.385 1_554 S
C437 C445 1.409 1_565 S
C438 H434 0.929 . S
C438 C440 1.378 . S
C438 C442 1.350 . S
C439 C442 1.463 . S
C439 C444 1.350 1_545 S
C439 N447 1.427 . S
C440 H431 0.930 . S
C440 C438 1.378 . S
C440 C441 1.367 . S
C441 C440 1.367 . S
C441 C443 1.433 . S
C442 C438 1.350 . S
C442 C439 1.463 . S
C442 N446 1.424 1_545 S
C443 H433 0.929 1_545 S
C443 C441 1.433 . S
C443 N446 1.382 1_545 S
C444 H435 0.929 . S
C444 C436 1.378 . S
C444 C439 1.350 1_565 S
C445 H432 0.929 . S
C445 C437 1.409 1_545 S
C445 N447 1.384 1_554 S
N446 C442 1.424 1_565 S
N446 C443 1.382 1_565 S
N447 C439 1.427 . S
N447 C445 1.384 1_556 S
H448 C454 0.930 . S
H449 C458 0.930 . S
H450 C463 0.929 . S
H451 C461 0.929 . S
H452 C456 0.929 . S
H453 C462 0.929 . S
C454 H448 0.930 . S
C454 C455 1.367 . S
C454 C462 1.378 . S
C455 C454 1.367 . S
C455 C463 1.433 1_556 S
C456 H452 0.929 . S
C456 C458 1.378 . S
C456 C460 1.350 . S
C457 C460 1.463 . S
C457 C462 1.350 . S
C457 N465 1.427 . S
C458 H449 0.930 . S
C458 C456 1.378 . S
C458 C459 1.367 . S
C459 C458 1.367 . S
C459 C461 1.433 . S
C460 C456 1.350 . S
C460 C457 1.463 . S
C460 N464 1.427 . S
C461 H451 0.929 . S
C461 C459 1.433 . S
C461 N464 1.384 . S
C462 H453 0.929 . S
C462 C454 1.378 . S
C462 C457 1.350 . S
C463 H450 0.929 . S
C463 C455 1.433 1_554 S
C463 N465 1.384 1_554 S
N464 C460 1.427 . S
N464 C461 1.384 . S
N465 C457 1.427 . S
N465 C463 1.384 1_556 S
H466 C472 0.930 . S
H467 C476 0.930 . S
H468 C481 0.929 . S
H469 C479 0.929 . S
H470 C474 0.929 . S
H471 C480 0.929 . S
C472 H466 0.930 . S
C472 C473 1.367 . S
C472 C480 1.378 . S
C473 C472 1.367 . S
C473 C481 1.433 1_556 S
C474 H470 0.929 . S
C474 C476 1.378 . S
C474 C478 1.350 . S
C475 C478 1.463 . S
C475 C480 1.350 . S
C475 N483 1.427 . S
C476 H467 0.930 . S
C476 C474 1.378 . S
C476 C477 1.367 . S
C477 C476 1.367 . S
C477 C479 1.433 . S
C478 C474 1.350 . S
C478 C475 1.463 . S
C478 N482 1.427 . S
C479 H469 0.929 . S
C479 C477 1.433 . S
C479 N482 1.384 . S
C480 H471 0.929 . S
C480 C472 1.378 . S
C480 C475 1.350 . S
C481 H468 0.929 . S
C481 C473 1.433 1_554 S
C481 N483 1.384 1_554 S
N482 C478 1.427 . S
N482 C479 1.384 . S
N483 C475 1.427 . S
N483 C481 1.384 1_556 S
H484 C490 0.930 . S
H485 C494 0.930 . S
H486 C499 0.929 . S
H487 C497 0.929 . S
H488 C492 0.929 . S
H489 C498 0.929 . S
C490 H484 0.930 . S
C490 C491 1.367 . S
C490 C498 1.378 . S
C491 C490 1.367 . S
C491 C499 1.433 . S
C492 H488 0.929 . S
C492 C494 1.378 . S
C492 C496 1.350 1_556 S
C493 C496 1.463 . S
C493 C498 1.350 . S
C493 N501 1.427 . S
C494 H485 0.930 . S
C494 C492 1.378 . S
C494 C495 1.367 . S
C495 C494 1.367 . S
C495 C497 1.433 1_556 S
C496 C492 1.350 1_554 S
C496 C493 1.463 . S
C496 N500 1.427 . S
C497 H487 0.929 . S
C497 C495 1.433 1_554 S
C497 N500 1.384 . S
C498 H489 0.929 . S
C498 C490 1.378 . S
C498 C493 1.350 . S
C499 H486 0.929 . S
C499 C491 1.433 . S
C499 N501 1.384 . S
N500 C496 1.427 . S
N500 C497 1.384 . S
N501 C493 1.427 . S
N501 C499 1.384 . S
H502 C508 0.930 . S
H503 C512 0.930 . S
H504 C517 0.929 . S
H505 C515 0.929 . S
H506 C510 0.929 1_554 S
H507 C516 0.929 . S
C508 H502 0.930 . S
C508 C509 1.367 . S
C508 C516 1.378 . S
C509 C508 1.367 . S
C509 C517 1.433 1_545 S
C510 H506 0.929 1_556 S
C510 C512 1.378 . S
C510 C514 1.350 1_566 S
C511 C514 1.463 . S
C511 C516 1.350 . S
C511 N519 1.427 1_545 S
C512 H503 0.930 . S
C512 C510 1.378 . S
C512 C513 1.367 1_565 S
C513 C512 1.367 1_545 S
C513 C515 1.433 . S
C514 C510 1.350 1_544 S
C514 C511 1.463 . S
C514 N518 1.427 1_554 S
C515 H505 0.929 . S
C515 C513 1.433 . S
C515 N518 1.384 . S
C516 H507 0.929 . S
C516 C508 1.378 . S
C516 C511 1.350 . S
C517 H504 0.929 . S
C517 C509 1.433 1_565 S
C517 N519 1.384 . S
N518 C514 1.427 1_556 S
N518 C515 1.384 . S
N519 C511 1.427 1_565 S
N519 C517 1.384 . S
H520 C526 0.930 . S
H521 C530 0.930 . S
H522 C535 0.929 . S
H523 C533 0.929 . S
H524 C528 0.929 . S
H525 C534 0.929 1_556 S
C526 H520 0.930 . S
C526 C527 1.367 . S
C526 C534 1.378 . S
C527 C526 1.367 . S
C527 C535 1.433 . S
C528 H524 0.929 . S
C528 C530 1.378 1_554 S
C528 C532 1.350 1_554 S
C529 C532 1.463 1_554 S
C529 C534 1.350 . S
C529 N537 1.427 . S
C530 H521 0.930 . S
C530 C528 1.378 1_556 S
C530 C531 1.367 . S
C531 C530 1.367 . S
C531 C533 1.433 . S
C532 C528 1.350 1_556 S
C532 C529 1.463 1_556 S
C532 N536 1.427 . S
C533 H523 0.929 . S
C533 C531 1.433 . S
C533 N536 1.384 . S
C534 H525 0.929 1_554 S
C534 C526 1.378 . S
C534 C529 1.350 . S
C535 H522 0.929 . S
C535 C527 1.433 . S
C535 N537 1.384 . S
N536 C532 1.427 . S
N536 C533 1.384 . S
N537 C529 1.427 . S
N537 C535 1.384 . S
H538 C544 0.930 . S
H539 C548 0.930 . S
H540 C553 0.929 . S
H541 C551 0.929 . S
H542 C546 0.929 . S
H543 C552 0.929 . S
C544 H538 0.930 . S
C544 C545 1.367 . S
C544 C552 1.378 . S
C545 C544 1.367 . S
C545 C553 1.433 . S
C546 H542 0.929 . S
C546 C548 1.378 . S
C546 C550 1.350 . S
C547 C550 1.463 1_554 S
C547 C552 1.350 . S
C547 N555 1.427 . S
C548 H539 0.930 . S
C548 C546 1.378 . S
C548 C549 1.367 . S
C549 C548 1.367 . S
C549 C551 1.433 . S
C550 C546 1.350 . S
C550 C547 1.463 1_556 S
C550 N554 1.427 1_556 S
C551 H541 0.929 . S
C551 C549 1.433 . S
C551 N554 1.384 1_556 S
C552 H543 0.929 . S
C552 C544 1.378 . S
C552 C547 1.350 . S
C553 H540 0.929 . S
C553 C545 1.433 . S
C553 N555 1.384 . S
N554 C550 1.427 1_554 S
N554 C551 1.384 1_554 S
N555 C547 1.427 . S
N555 C553 1.384 . S
H556 C562 0.930 . S
H557 C566 0.930 . S
H558 C571 0.929 . S
H559 C569 0.929 . S
H560 C564 0.929 . S
H561 C570 0.929 . S
C562 H556 0.930 . S
C562 C563 1.367 . S
C562 C570 1.378 . S
C563 C562 1.367 . S
C563 C571 1.433 1_655 S
C564 H560 0.929 . S
C564 C566 1.378 . S
C564 C568 1.350 1_455 S
C565 C568 1.463 . S
C565 C570 1.350 . S
C565 N573 1.427 1_655 S
C566 H557 0.930 . S
C566 C564 1.378 . S
C566 C567 1.367 1_455 S
C567 C566 1.367 1_655 S
C567 C569 1.433 . S
C568 C564 1.350 1_655 S
C568 C565 1.463 . S
C568 N572 1.427 . S
C569 H559 0.929 . S
C569 C567 1.433 . S
C569 N572 1.384 . S
C570 H561 0.929 . S
C570 C562 1.378 . S
C570 C565 1.350 . S
C571 H558 0.929 . S
C571 C563 1.433 1_455 S
C571 N573 1.384 . S
N572 C568 1.427 . S
N572 C569 1.384 . S
N573 C565 1.427 1_455 S
N573 C571 1.384 . S
H574 C580 0.930 . S
H575 C584 0.930 . S
H576 C589 0.929 . S
H577 C587 0.929 . S
H578 C582 0.929 . S
H579 C588 0.929 . S
C580 H574 0.930 . S
C580 C581 1.367 1_545 S
C580 C588 1.378 . S
C581 C580 1.367 1_565 S
C581 C589 1.433 . S
C582 H578 0.929 . S
C582 C584 1.378 . S
C582 C586 1.350 . S
C583 C586 1.463 . S
C583 C588 1.350 1_565 S
C583 N591 1.427 . S
C584 H575 0.930 . S
C584 C582 1.378 . S
C584 C585 1.367 . S
C585 C584 1.367 . S
C585 C587 1.433 1_565 S
C586 C582 1.350 . S
C586 C583 1.463 . S
C586 N590 1.427 1_565 S
C587 H577 0.929 . S
C587 C585 1.433 1_545 S
C587 N590 1.384 . S
C588 H579 0.929 . S
C588 C580 1.378 . S
C588 C583 1.350 1_545 S
C589 H576 0.929 . S
C589 C581 1.433 . S
C589 N591 1.384 . S
N590 C586 1.427 1_545 S
N590 C587 1.384 . S
N591 C583 1.427 . S
N591 C589 1.384 . S
H592 C598 0.930 . S
H593 C602 0.930 . S
H594 C607 0.929 . S
H595 C605 0.929 . S
H596 C600 0.929 . S
H597 C606 0.929 . S
C598 H592 0.930 . S
C598 C599 1.367 . S
C598 C606 1.378 . S
C599 C598 1.367 . S
C599 C607 1.433 . S
C600 H596 0.929 . S
C600 C602 1.378 . S
C600 C604 1.350 . S
C601 C604 1.463 . S
C601 C606 1.350 . S
C601 N609 1.427 . S
C602 H593 0.930 . S
C602 C600 1.378 . S
C602 C603 1.367 . S
C603 C602 1.367 . S
C603 C605 1.433 . S
C604 C600 1.350 . S
C604 C601 1.463 . S
C604 N608 1.427 . S
C605 H595 0.929 . S
C605 C603 1.433 . S
C605 N608 1.384 . S
C606 H597 0.929 . S
C606 C598 1.378 . S
C606 C601 1.350 . S
C607 H594 0.929 . S
C607 C599 1.433 . S
C607 N609 1.384 . S
N608 C604 1.427 . S
N608 C605 1.384 . S
N609 C601 1.427 . S
N609 C607 1.384 . S
H610 C616 0.930 . S
H611 C620 0.930 . S
H612 C625 0.929 . S
H613 C623 0.929 . S
H614 C618 0.929 . S
H615 C624 0.929 . S
C616 H610 0.930 . S
C616 C617 1.367 . S
C616 C624 1.378 . S
C617 C616 1.367 . S
C617 C625 1.433 . S
C618 H614 0.929 . S
C618 C620 1.378 . S
C618 C622 1.350 . S
C619 C622 1.463 . S
C619 C624 1.350 . S
C619 N627 1.427 . S
C620 H611 0.930 . S
C620 C618 1.378 . S
C620 C621 1.367 . S
C621 C620 1.367 . S
C621 C623 1.433 . S
C622 C618 1.350 . S
C622 C619 1.463 . S
C622 N626 1.427 . S
C623 H613 0.929 . S
C623 C621 1.433 . S
C623 N626 1.384 . S
C624 H615 0.929 . S
C624 C616 1.378 . S
C624 C619 1.350 . S
C625 H612 0.929 . S
C625 C617 1.433 . S
C625 N627 1.384 . S
N626 C622 1.427 . S
N626 C623 1.384 . S
N627 C619 1.427 . S
N627 C625 1.384 . S
C203 N80 1.602 . S
C207 C120 1.603 . S
C225 C143 1.625 . S
C221 N93 1.621 . S
C243 C166 1.640 . S
C239 N54 1.636 . S
C261 C193 1.518 . S
C257 N67 1.587 . S
C279 C121 1.573 . S
C275 N28 1.566 1_545 S
C293 N41 1.514 1_556 S
C297 C144 1.519 . S
C311 N2 1.508 . S
C315 C167 1.510 . S
C329 N15 1.606 . S
C333 C192 1.597 . S
C351 C122 0.433 . S
C347 N70 0.417 . S
C369 C145 0.433 . S
C365 N83 0.426 . S
C387 C168 0.460 . S
C383 N96 0.455 . S
C401 N57 0.587 . S
C405 C194 0.650 . S
C419 N18 0.689 . S
C423 C125 0.693 . S
C441 C148 0.722 . S
C437 N31 0.686 . S
C459 C171 0.674 . S
C455 N44 0.632 1_556 S
C473 N5 0.416 . S
C477 C191 0.414 . S
C491 N66 1.594 . S
C495 C123 1.544 . S
C509 N79 1.570 . S
C513 C146 1.530 . S
C531 C169 1.540 . S
C527 N92 1.579 . S
C549 C190 1.394 . S
C545 N53 1.396 . S
C563 N14 1.649 . S
C567 C124 1.537 . S
C585 C147 1.513 . S
C581 N27 1.609 . S
C603 C170 1.479 . S
C599 N40 1.586 . S
C617 N1 1.727 . S
C621 C189 1.727 . S
