# Generated by pormake.
# Topology wbl, (4,4)-cn, num edge types: 1
# Building blocks:
#     Node 0, Type 0, BuildingBlock: MIFKUJ_clean_linker_1, # of connection points: 4
#     Node 1, Type 0, BuildingBlock: MIFKUJ_clean_linker_1, # of connection points: 4
#     Node 2, Type 0, BuildingBlock: MIFKUJ_clean_linker_1, # of connection points: 4
#     Node 3, Type 0, BuildingBlock: MIFKUJ_clean_linker_1, # of connection points: 4
#     Node 4, Type 0, BuildingBlock: MIFKUJ_clean_linker_1, # of connection points: 4
#     Node 5, Type 0, BuildingBlock: MIFKUJ_clean_linker_1, # of connection points: 4
#     Node 6, Type 0, BuildingBlock: MIFKUJ_clean_linker_1, # of connection points: 4
#     Node 7, Type 0, BuildingBlock: MIFKUJ_clean_linker_1, # of connection points: 4
#     Node 8, Type 1, BuildingBlock: TATPOV_clean_sbu_0, # of connection points: 4
#     Node 9, Type 1, BuildingBlock: TATPOV_clean_sbu_0, # of connection points: 4
#     Node 10, Type 1, BuildingBlock: TATPOV_clean_sbu_0, # of connection points: 4
#     Node 11, Type 1, BuildingBlock: TATPOV_clean_sbu_0, # of connection points: 4
#     Node 12, Type 1, BuildingBlock: TATPOV_clean_sbu_0, # of connection points: 4
#     Node 13, Type 1, BuildingBlock: TATPOV_clean_sbu_0, # of connection points: 4
#     Node 14, Type 1, BuildingBlock: TATPOV_clean_sbu_0, # of connection points: 4
#     Node 15, Type 1, BuildingBlock: TATPOV_clean_sbu_0, # of connection points: 4
#     Edge 16, Type (0, 1), BuildingBlock: CIFDUS_clean_linker_0, # of connection points: 2
#     Edge 17, Type (0, 1), BuildingBlock: CIFDUS_clean_linker_0, # of connection points: 2
#     Edge 18, Type (0, 1), BuildingBlock: CIFDUS_clean_linker_0, # of connection points: 2
#     Edge 19, Type (0, 1), BuildingBlock: CIFDUS_clean_linker_0, # of connection points: 2
#     Edge 20, Type (0, 1), BuildingBlock: CIFDUS_clean_linker_0, # of connection points: 2
#     Edge 21, Type (0, 1), BuildingBlock: CIFDUS_clean_linker_0, # of connection points: 2
#     Edge 22, Type (0, 1), BuildingBlock: CIFDUS_clean_linker_0, # of connection points: 2
#     Edge 23, Type (0, 1), BuildingBlock: CIFDUS_clean_linker_0, # of connection points: 2
#     Edge 24, Type (0, 1), BuildingBlock: CIFDUS_clean_linker_0, # of connection points: 2
#     Edge 25, Type (0, 1), BuildingBlock: CIFDUS_clean_linker_0, # of connection points: 2
#     Edge 26, Type (0, 1), BuildingBlock: CIFDUS_clean_linker_0, # of connection points: 2
#     Edge 27, Type (0, 1), BuildingBlock: CIFDUS_clean_linker_0, # of connection points: 2
#     Edge 28, Type (0, 1), BuildingBlock: CIFDUS_clean_linker_0, # of connection points: 2
#     Edge 29, Type (0, 1), BuildingBlock: CIFDUS_clean_linker_0, # of connection points: 2
#     Edge 30, Type (0, 1), BuildingBlock: CIFDUS_clean_linker_0, # of connection points: 2
#     Edge 31, Type (0, 1), BuildingBlock: CIFDUS_clean_linker_0, # of connection points: 2
#     Edge 32, Type (0, 1), BuildingBlock: CIFDUS_clean_linker_0, # of connection points: 2
#     Edge 33, Type (0, 1), BuildingBlock: CIFDUS_clean_linker_0, # of connection points: 2
#     Edge 34, Type (0, 1), BuildingBlock: CIFDUS_clean_linker_0, # of connection points: 2
#     Edge 35, Type (0, 1), BuildingBlock: CIFDUS_clean_linker_0, # of connection points: 2
#     Edge 36, Type (0, 1), BuildingBlock: CIFDUS_clean_linker_0, # of connection points: 2
#     Edge 37, Type (0, 1), BuildingBlock: CIFDUS_clean_linker_0, # of connection points: 2
#     Edge 38, Type (0, 1), BuildingBlock: CIFDUS_clean_linker_0, # of connection points: 2
#     Edge 39, Type (0, 1), BuildingBlock: CIFDUS_clean_linker_0, # of connection points: 2
#     Edge 40, Type (0, 1), BuildingBlock: CIFDUS_clean_linker_0, # of connection points: 2
#     Edge 41, Type (0, 1), BuildingBlock: CIFDUS_clean_linker_0, # of connection points: 2
#     Edge 42, Type (0, 1), BuildingBlock: CIFDUS_clean_linker_0, # of connection points: 2
#     Edge 43, Type (0, 1), BuildingBlock: CIFDUS_clean_linker_0, # of connection points: 2
#     Edge 44, Type (0, 1), BuildingBlock: CIFDUS_clean_linker_0, # of connection points: 2
#     Edge 45, Type (0, 1), BuildingBlock: CIFDUS_clean_linker_0, # of connection points: 2
#     Edge 46, Type (0, 1), BuildingBlock: CIFDUS_clean_linker_0, # of connection points: 2
#     Edge 47, Type (0, 1), BuildingBlock: CIFDUS_clean_linker_0, # of connection points: 2
# Relax obj value: 0.161
# Max RMSD: 0.153
# Mean RMSD: 0.128
data_MOF--net-wbl--node1-TATPOV_clean_sbu_0--node2-MIFKUJ_clean_linker_1--edge1-CIFDUS_clean_linker_0
_symmetry_space_group_name_H-M    P1
_symmetry_Int_Tables_number       1
_symmetry_cell_setting            triclinic
loop_
_symmetry_equiv_pos_as_xyz
'x, y, z'
_cell_length_a     41.180968
_cell_length_b     41.207008
_cell_length_c     65.792522
_cell_angle_alpha  91.289372
_cell_angle_beta   91.407123
_cell_angle_gamma 90.198691
loop_
_atom_site_label
_atom_site_type_symbol
_atom_site_fract_x
_atom_site_fract_y
_atom_site_fract_z
_atom_type_partial_charge
H0 H 0.06146 0.08606 0.37541 0.0
H1 H 0.04021 0.12352 0.40118 0.0
H2 H 0.94532 0.07909 0.39321 0.0
H3 H 0.96664 0.04227 0.36723 0.0
H4 H 0.06014 0.01771 0.37798 0.0
H5 H 0.01874 0.10066 0.33191 0.0
H6 H 0.97369 0.13615 0.32199 0.0
H7 H 0.91328 0.05186 0.30922 0.0
H8 H 0.95825 0.01657 0.31935 0.0
H9 H 0.02676 0.93905 0.30715 0.0
H10 H 0.05466 0.89715 0.28695 0.0
H11 H 0.14588 0.94712 0.29852 0.0
H12 H 0.11808 0.98845 0.31867 0.0
H13 H 0.02262 0.00873 0.30579 0.0
H14 H 0.05893 0.92555 0.34802 0.0
H15 H 0.09067 0.88602 0.36716 0.0
H16 H 0.15083 0.96343 0.39267 0.0
H17 H 0.11976 0.0029 0.37298 0.0
C18 C 0.01555 0.06163 0.36934 0.0
C19 C 0.03601 0.0847 0.37911 0.0
C20 C 0.02387 0.10595 0.39388 0.0
C21 C 0.99108 0.10429 0.39928 0.0
C22 C 0.97055 0.08143 0.38918 0.0
C23 C 0.98269 0.06028 0.37437 0.0
C24 C 0.02907 0.03767 0.35479 0.0
C25 C 0.05262 0.01618 0.36206 0.0
C26 C 0.01761 0.03462 0.33441 0.0
C27 C 0.99172 0.05602 0.32644 0.0
C28 C 0.99584 0.08988 0.32682 0.0
C29 C 0.97016 0.11009 0.32112 0.0
C30 C 0.93991 0.09675 0.31503 0.0
C31 C 0.93617 0.0628 0.31415 0.0
C32 C 0.96191 0.04263 0.31971 0.0
C33 C 0.07048 0.9666 0.31449 0.0
C34 C 0.05266 0.94121 0.30495 0.0
C35 C 0.06858 0.91731 0.29352 0.0
C36 C 0.10238 0.91898 0.29113 0.0
C37 C 0.11976 0.94544 0.29984 0.0
C38 C 0.10397 0.96894 0.31147 0.0
C39 C 0.05489 0.9895 0.32882 0.0
C40 C 0.03075 0.01059 0.32158 0.0
C41 C 0.06523 0.99166 0.34948 0.0
C42 C 0.08709 0.96727 0.35888 0.0
C43 C 0.07963 0.93398 0.35716 0.0
C44 C 0.09764 0.91138 0.3682 0.0
C45 C 0.123 0.92176 0.38147 0.0
C46 C 0.13117 0.95488 0.38267 0.0
C47 C 0.11347 0.9774 0.37142 0.0
H48 H 0.97103 0.49131 0.54884 0.0
H49 H 0.93426 0.45569 0.53023 0.0
H50 H 0.85939 0.47788 0.57359 0.0
H51 H 0.89436 0.51871 0.5893 0.0
H52 H 0.9824 0.5459 0.55654 0.0
H53 H 0.95388 0.46168 0.60502 0.0
H54 H 0.91896 0.42996 0.62687 0.0
H55 H 0.8864 0.51868 0.65599 0.0
H56 H 0.92057 0.5501 0.63381 0.0
H57 H 0.00076 0.61051 0.63432 0.0
H58 H 0.04293 0.63861 0.65486 0.0
H59 H 0.11668 0.58433 0.62337 0.0
H60 H 0.07438 0.556 0.60302 0.0
H61 H 0.98652 0.54677 0.6319 0.0
H62 H 0.02279 0.62825 0.58546 0.0
H63 H 0.06638 0.65612 0.56821 0.0
H64 H 0.09161 0.56624 0.53752 0.0
H65 H 0.04788 0.53846 0.55485 0.0
C66 C 0.93629 0.50692 0.57129 0.0
C67 C 0.94637 0.48936 0.55404 0.0
C68 C 0.92522 0.46796 0.54362 0.0
C69 C 0.89388 0.46175 0.55084 0.0
C70 C 0.88316 0.48107 0.56734 0.0
C71 C 0.90373 0.50408 0.57693 0.0
C72 C 0.96024 0.52723 0.58342 0.0
C73 C 0.98335 0.54552 0.57301 0.0
C74 C 0.96151 0.52782 0.60506 0.0
C75 C 0.93959 0.50828 0.61764 0.0
C76 C 0.93891 0.47424 0.61597 0.0
C77 C 0.91913 0.45616 0.62857 0.0
C78 C 0.89979 0.47177 0.64317 0.0
C79 C 0.90053 0.50587 0.64472 0.0
C80 C 0.92026 0.52388 0.63215 0.0
C81 C 0.03444 0.58143 0.61701 0.0
C82 C 0.02601 0.60464 0.63186 0.0
C83 C 0.05009 0.62061 0.6436 0.0
C84 C 0.08305 0.61364 0.64069 0.0
C85 C 0.09148 0.59046 0.62575 0.0
C86 C 0.06736 0.57429 0.61413 0.0
C87 C 0.00866 0.56409 0.60495 0.0
C88 C 0.98528 0.54672 0.6154 0.0
C89 C 0.00774 0.56355 0.58345 0.0
C90 C 0.03227 0.58118 0.57163 0.0
C91 C 0.03767 0.61455 0.575 0.0
C92 C 0.06273 0.6304 0.56521 0.0
C93 C 0.08277 0.61331 0.55168 0.0
C94 C 0.07656 0.58013 0.54778 0.0
C95 C 0.05155 0.56424 0.55765 0.0
H96 H 0.48843 0.56521 0.85486 0.0
H97 H 0.45631 0.59922 0.87755 0.0
H98 H 0.41084 0.51344 0.90081 0.0
H99 H 0.4431 0.47945 0.87791 0.0
H100 H 0.50965 0.47365 0.87491 0.0
H101 H 0.49823 0.55921 0.80869 0.0
H102 H 0.45917 0.60081 0.79845 0.0
H103 H 0.38072 0.541 0.8193 0.0
H104 H 0.41998 0.50017 0.82999 0.0
H105 H 0.5214 0.40178 0.8113 0.0
H106 H 0.55754 0.37106 0.78921 0.0
H107 H 0.62059 0.45517 0.78657 0.0
H108 H 0.58274 0.4861 0.80718 0.0
H109 H 0.50568 0.4902 0.80037 0.0
H110 H 0.51758 0.40913 0.87136 0.0
H111 H 0.55657 0.38281 0.89404 0.0
H112 H 0.6348 0.43483 0.86642 0.0
H113 H 0.59547 0.46248 0.84471 0.0
C114 C 0.46778 0.51986 0.86452 0.0
C115 C 0.4713 0.55375 0.86469 0.0
C116 C 0.45289 0.57315 0.87764 0.0
C117 C 0.43088 0.559 0.89084 0.0
C118 C 0.42775 0.52499 0.89087 0.0
C119 C 0.4461 0.50558 0.87782 0.0
C120 C 0.48694 0.49948 0.85043 0.0
C121 C 0.50832 0.4766 0.85856 0.0
C122 C 0.48564 0.50411 0.82922 0.0
C123 C 0.46193 0.52677 0.82014 0.0
C124 C 0.47255 0.55493 0.8107 0.0
C125 C 0.45019 0.57868 0.80491 0.0
C126 C 0.41683 0.57444 0.80831 0.0
C127 C 0.40627 0.54542 0.81692 0.0
C128 C 0.42861 0.52188 0.82281 0.0
C129 C 0.54979 0.44594 0.81101 0.0
C130 C 0.54285 0.41354 0.80566 0.0
C131 C 0.56373 0.396 0.79314 0.0
C132 C 0.59245 0.41032 0.78619 0.0
C133 C 0.5986 0.44326 0.7912 0.0
C134 C 0.5772 0.46098 0.80324 0.0
C135 C 0.52852 0.46408 0.82489 0.0
C136 C 0.50664 0.48659 0.81665 0.0
C137 C 0.52936 0.45891 0.84608 0.0
C138 C 0.55354 0.43759 0.85616 0.0
C139 C 0.54322 0.41428 0.86987 0.0
C140 C 0.56562 0.39911 0.88279 0.0
C141 C 0.59886 0.40693 0.88224 0.0
C142 C 0.60933 0.42862 0.8675 0.0
C143 C 0.58688 0.44403 0.85474 0.0
H144 H 0.54684 0.9111 0.06047 0.0
H145 H 0.51014 0.87105 0.04386 0.0
H146 H 0.42757 0.92757 0.06276 0.0
H147 H 0.46435 0.96744 0.07934 0.0
H148 H 0.55214 0.98182 0.05561 0.0
H149 H 0.52646 0.90168 0.10588 0.0
H150 H 0.48929 0.86835 0.12503 0.0
H151 H 0.44348 0.95526 0.14839 0.0
H152 H 0.48097 0.98841 0.12931 0.0
H153 H 0.55016 0.05689 0.13093 0.0
H154 H 0.58438 0.09409 0.15158 0.0
H155 H 0.66982 0.05438 0.12363 0.0
H156 H 0.63553 0.01688 0.1032 0.0
H157 H 0.5474 0.99314 0.13078 0.0
H158 H 0.55898 0.07138 0.07799 0.0
H159 H 0.59024 0.11067 0.05902 0.0
H160 H 0.65659 0.03496 0.0411 0.0
H161 H 0.62461 0.99536 0.05984 0.0
C162 C 0.50819 0.94199 0.07116 0.0
C163 C 0.52085 0.91498 0.06079 0.0
C164 C 0.49992 0.89211 0.05147 0.0
C165 C 0.4661 0.89625 0.05215 0.0
C166 C 0.45355 0.92396 0.06192 0.0
C167 C 0.47447 0.94662 0.07143 0.0
C168 C 0.53008 0.96444 0.08271 0.0
C169 C 0.55158 0.98392 0.07207 0.0
C170 C 0.52843 0.96784 0.10409 0.0
C171 C 0.50633 0.94753 0.11604 0.0
C172 C 0.5083 0.91353 0.11505 0.0
C173 C 0.48695 0.89451 0.12596 0.0
C174 C 0.4633 0.90911 0.13821 0.0
C175 C 0.46163 0.94322 0.13931 0.0
C176 C 0.48299 0.96221 0.12838 0.0
C177 C 0.59026 0.03427 0.11543 0.0
C178 C 0.57625 0.05623 0.12923 0.0
C179 C 0.59581 0.07741 0.14102 0.0
C180 C 0.62974 0.07703 0.13922 0.0
C181 C 0.64371 0.05543 0.12514 0.0
C182 C 0.62414 0.03407 0.11345 0.0
C183 C 0.5695 0.01069 0.10373 0.0
C184 C 0.54824 0.99089 0.11434 0.0
C185 C 0.57087 0.00743 0.08233 0.0
C186 C 0.58958 0.03057 0.0703 0.0
C187 C 0.5801 0.06319 0.06984 0.0
C188 C 0.59786 0.08553 0.05896 0.0
C189 C 0.62569 0.07573 0.04856 0.0
C190 C 0.63521 0.04303 0.04901 0.0
C191 C 0.61698 0.02048 0.05961 0.0
H192 H 0.97878 0.62583 0.88929 0.0
H193 H 0.01102 0.66159 0.86855 0.0
H194 H 0.09887 0.62568 0.89736 0.0
H195 H 0.06662 0.58857 0.917 0.0
H196 H 0.97941 0.56179 0.88741 0.0
H197 H 0.99574 0.64051 0.94344 0.0
H198 H 0.03469 0.67813 0.95992 0.0
H199 H 0.09694 0.59717 0.97471 0.0
H200 H 0.05711 0.55989 0.95915 0.0
H201 H 0.99537 0.48061 0.95659 0.0
H202 H 0.96822 0.43449 0.97176 0.0
H203 H 0.8758 0.46877 0.94839 0.0
H204 H 0.90321 0.5144 0.93299 0.0
H205 H 0.98975 0.54613 0.96185 0.0
H206 H 0.97498 0.46764 0.90798 0.0
H207 H 0.94802 0.43002 0.88374 0.0
H208 H 0.88931 0.50854 0.86088 0.0
H209 H 0.91624 0.54609 0.8853 0.0
C210 C 0.02016 0.60471 0.90491 0.0
C211 C 0.00498 0.62588 0.89125 0.0
C212 C 0.02348 0.64654 0.87951 0.0
C213 C 0.05763 0.64652 0.8812 0.0
C214 C 0.07268 0.62606 0.89542 0.0
C215 C 0.05419 0.60516 0.90696 0.0
C216 C 0.00071 0.58011 0.91557 0.0
C217 C 0.98095 0.55893 0.90376 0.0
C218 C 0.00354 0.57561 0.93681 0.0
C219 C 0.02385 0.59756 0.94989 0.0
C220 C 0.01741 0.63094 0.95075 0.0
C221 C 0.03982 0.65238 0.96005 0.0
C222 C 0.06931 0.64083 0.96835 0.0
C223 C 0.07444 0.60706 0.96872 0.0
C224 C 0.05175 0.58561 0.95972 0.0
C225 C 0.95135 0.50084 0.94356 0.0
C226 C 0.96924 0.47823 0.95484 0.0
C227 C 0.95366 0.45188 0.96351 0.0
C228 C 0.91982 0.44775 0.9612 0.0
C229 C 0.90196 0.47076 0.95012 0.0
C230 C 0.91755 0.49702 0.94141 0.0
C231 C 0.96812 0.52797 0.93363 0.0
C232 C 0.98744 0.54952 0.94558 0.0
C233 C 0.96496 0.53275 0.91243 0.0
C234 C 0.94729 0.50957 0.89862 0.0
C235 C 0.95589 0.47664 0.89802 0.0
C236 C 0.94053 0.45519 0.88413 0.0
C237 C 0.91659 0.46639 0.87043 0.0
C238 C 0.90792 0.49934 0.87112 0.0
C239 C 0.92315 0.52074 0.8851 0.0
H240 H 0.50668 0.56007 0.19311 0.0
H241 H 0.47578 0.60626 0.20627 0.0
H242 H 0.38618 0.55719 0.18875 0.0
H243 H 0.41727 0.51083 0.17581 0.0
H244 H 0.50692 0.49309 0.20182 0.0
H245 H 0.47847 0.56432 0.14626 0.0
H246 H 0.44096 0.59391 0.12419 0.0
H247 H 0.39465 0.50344 0.10539 0.0
H248 H 0.43135 0.47419 0.12823 0.0
H249 H 0.50483 0.41139 0.12657 0.0
H250 H 0.54058 0.37904 0.1056 0.0
H251 H 0.62361 0.4162 0.14054 0.0
H252 H 0.58789 0.45127 0.15987 0.0
H253 H 0.49776 0.47052 0.12753 0.0
H254 H 0.52172 0.39781 0.18122 0.0
H255 H 0.55652 0.36454 0.20295 0.0
H256 H 0.60684 0.45077 0.22537 0.0
H257 H 0.57194 0.48404 0.20346 0.0
C258 C 0.46424 0.5322 0.1834 0.0
C259 C 0.48038 0.5591 0.19238 0.0
C260 C 0.46273 0.58556 0.19968 0.0
C261 C 0.42861 0.58542 0.19832 0.0
C262 C 0.41245 0.55789 0.19003 0.0
C263 C 0.43014 0.53149 0.18261 0.0
C264 C 0.48322 0.50602 0.17363 0.0
C265 C 0.50511 0.48813 0.18557 0.0
C266 C 0.48001 0.49896 0.15256 0.0
C267 C 0.45745 0.51709 0.13908 0.0
C268 C 0.45995 0.55093 0.1376 0.0
C269 C 0.43869 0.56776 0.1248 0.0
C270 C 0.41477 0.55105 0.113 0.0
C271 C 0.41243 0.51712 0.11448 0.0
C272 C 0.4336 0.50033 0.12737 0.0
C273 C 0.54344 0.43381 0.14497 0.0
C274 C 0.53076 0.41264 0.12972 0.0
C275 C 0.55137 0.3937 0.11785 0.0
C276 C 0.58527 0.39484 0.1212 0.0
C277 C 0.5978 0.41505 0.1371 0.0
C278 C 0.57721 0.43469 0.14858 0.0
C279 C 0.52166 0.45702 0.15565 0.0
C280 C 0.49935 0.47474 0.14386 0.0
C281 C 0.52392 0.46327 0.17693 0.0
C282 C 0.54446 0.44334 0.19058 0.0
C283 C 0.54019 0.40956 0.19084 0.0
C284 C 0.55988 0.39063 0.2034 0.0
C285 C 0.58431 0.4051 0.2159 0.0
C286 C 0.58828 0.43899 0.21583 0.0
C287 C 0.56832 0.45798 0.2034 0.0
H288 H 0.53855 0.92869 0.37909 0.0
H289 H 0.50519 0.8951 0.35571 0.0
H290 H 0.41926 0.92391 0.38775 0.0
H291 H 0.4529 0.95786 0.41118 0.0
H292 H 0.53411 0.99319 0.38324 0.0
H293 H 0.51545 0.90045 0.42325 0.0
H294 H 0.47945 0.86253 0.43881 0.0
H295 H 0.45619 0.93602 0.48429 0.0
H296 H 0.48777 0.97517 0.46634 0.0
H297 H 0.54436 0.05055 0.46507 0.0
H298 H 0.58048 0.08773 0.48435 0.0
H299 H 0.65814 0.0634 0.4436 0.0
H300 H 0.62313 0.02412 0.42604 0.0
H301 H 0.5437 0.98765 0.45834 0.0
H302 H 0.55224 0.08064 0.41236 0.0
H303 H 0.58207 0.11969 0.39204 0.0
H304 H 0.62992 0.04025 0.36122 0.0
H305 H 0.60021 0.00156 0.38144 0.0
C306 C 0.49819 0.94579 0.39683 0.0
C307 C 0.51254 0.92767 0.38116 0.0
C308 C 0.49349 0.90853 0.36781 0.0
C309 C 0.45966 0.90713 0.36985 0.0
C310 C 0.44533 0.92443 0.38595 0.0
C311 C 0.46446 0.94383 0.39928 0.0
C312 C 0.51868 0.96804 0.40969 0.0
C313 C 0.53625 0.99181 0.39968 0.0
C314 C 0.52104 0.96636 0.43121 0.0
C315 C 0.50313 0.94142 0.44279 0.0
C316 C 0.50172 0.90877 0.43617 0.0
C317 C 0.48156 0.88659 0.4456 0.0
C318 C 0.46363 0.89585 0.46278 0.0
C319 C 0.46786 0.92784 0.47057 0.0
C320 C 0.48672 0.9504 0.46049 0.0
C321 C 0.58078 0.03497 0.44382 0.0
C322 C 0.56935 0.05296 0.46054 0.0
C323 C 0.58996 0.07457 0.47139 0.0
C324 C 0.62237 0.07888 0.46559 0.0
C325 C 0.63366 0.0605 0.4489 0.0
C326 C 0.61336 0.03836 0.43848 0.0
C327 C 0.55872 0.01284 0.43181 0.0
C328 C 0.54101 0.9891 0.44195 0.0
C329 C 0.55612 0.0142 0.41036 0.0
C330 C 0.57414 0.03823 0.39845 0.0
C331 C 0.56926 0.07173 0.40127 0.0
C332 C 0.58616 0.09395 0.38962 0.0
C333 C 0.60843 0.08298 0.37514 0.0
C334 C 0.61325 0.04943 0.37244 0.0
C335 C 0.59613 0.0273 0.38387 0.0
H336 H 0.05445 0.13753 0.69169 0.0
H337 H 0.01084 0.17242 0.70372 0.0
H338 H 0.96002 0.08791 0.72476 0.0
H339 H 0.00471 0.05356 0.71361 0.0
H340 H 0.0777 0.05343 0.71829 0.0
H341 H 0.06275 0.11548 0.64053 0.0
H342 H 0.02048 0.14316 0.62063 0.0
H343 H 0.94671 0.08954 0.65138 0.0
H344 H 0.98896 0.06156 0.67087 0.0
H345 H 0.08003 0.98246 0.64418 0.0
H346 H 0.11384 0.95056 0.62143 0.0
H347 H 0.1995 -0.00097 0.64663 0.0
H348 H 0.16512 0.0318 0.66897 0.0
H349 H 0.07577 0.04903 0.64275 0.0
H350 H 0.08359 0.97059 0.70007 0.0
H351 H 0.11723 0.93071 0.71768 0.0
H352 H 0.1932 0.00255 0.72671 0.0
H353 H 0.15899 0.04261 0.7092 0.0
C354 C 0.03271 0.09311 0.70186 0.0
C355 C 0.03431 0.12676 0.69946 0.0
C356 C 0.00908 0.14654 0.70602 0.0
C357 C 0.98153 0.13294 0.71484 0.0
C358 C 0.98091 0.09931 0.71819 0.0
C359 C 0.00647 0.07959 0.71191 0.0
C360 C 0.05544 0.07185 0.69091 0.0
C361 C 0.07766 0.0528 0.7018 0.0
C362 C 0.05441 0.07007 0.66943 0.0
C363 C 0.02896 0.08688 0.65738 0.0
C364 C 0.03747 0.10972 0.64295 0.0
C365 C 0.01334 0.12548 0.63162 0.0
C366 C 0.98033 0.11864 0.63459 0.0
C367 C 0.97191 0.09572 0.64905 0.0
C368 C 0.99603 0.07975 0.66019 0.0
C369 C 0.1201 0.0093 0.65833 0.0
C370 C 0.10614 0.9859 0.64499 0.0
C371 C 0.12556 0.96753 0.63209 0.0
C372 C 0.15942 0.9722 0.63224 0.0
C373 C 0.17348 0.99504 0.64606 0.0
C374 C 0.15394 0.01349 0.65899 0.0
C375 C 0.09882 0.03122 0.67005 0.0
C376 C 0.07657 0.05035 0.65925 0.0
C377 C 0.09915 0.03223 0.69153 0.0
C378 C 0.11898 0.00931 0.70334 0.0
C379 C 0.1073 0.97782 0.70613 0.0
C380 C 0.12643 0.9552 0.71629 0.0
C381 C 0.15774 0.96363 0.72365 0.0
C382 C 0.16916 0.99547 0.72117 0.0
C383 C 0.14973 0.01828 0.71123 0.0
Zn384 Zn 0.29415 0.74782 0.96686 0.0
Zn385 Zn 0.31566 0.70826 0.99746 0.0
O386 O 0.26654 0.70364 0.99993 0.0
O387 O 0.24884 0.73527 0.97549 0.0
O388 O 0.33654 0.68224 0.01969 0.0
O389 O 0.31782 0.78637 0.9802 0.0
O390 O 0.33511 0.7529 0.00366 0.0
C391 C 0.24314 0.71597 0.98974 0.0
C392 C 0.33201 0.69276 0.95311 0.0
O393 O 0.33255 0.68632 0.97193 0.0
O394 O 0.31778 0.71804 0.94688 0.0
C395 C 0.32442 0.65932 0.02968 0.0
O396 O 0.29418 0.65033 0.02599 0.0
C397 C 0.33453 0.78111 0.9962 0.0
Zn398 Zn 0.28761 0.75985 0.28107 0.0
Zn399 Zn 0.319 0.79757 0.25346 0.0
O400 O 0.27218 0.81378 0.25147 0.0
O401 O 0.2461 0.78317 0.27278 0.0
O402 O 0.34385 0.82549 0.23426 0.0
O403 O 0.30296 0.71981 0.26548 0.0
O404 O 0.32803 0.75098 0.24403 0.0
C405 C 0.24604 0.80595 0.26013 0.0
C406 C 0.33751 0.8015 0.29907 0.0
O407 O 0.34057 0.80955 0.28065 0.0
O408 O 0.31653 0.78045 0.30362 0.0
C409 C 0.34936 0.81789 0.21582 0.0
O410 O 0.33757 0.79054 0.20805 0.0
C411 C 0.32056 0.72285 0.2501 0.0
Zn412 Zn 0.25049 0.76682 0.48135 0.0
Zn413 Zn 0.23338 0.80787 0.51264 0.0
O414 O 0.28132 0.81747 0.50985 0.0
O415 O 0.29777 0.78279 0.48635 0.0
O416 O 0.21958 0.83378 0.53708 0.0
O417 O 0.22981 0.72835 0.49587 0.0
O418 O 0.219 0.76291 0.52069 0.0
C419 C 0.30377 0.80615 0.49883 0.0
C420 C 0.20587 0.81928 0.47014 0.0
O421 O 0.20772 0.82665 0.48903 0.0
O422 O 0.22137 0.79506 0.46316 0.0
C423 C 0.23059 0.86116 0.54332 0.0
O424 O 0.25326 0.87561 0.53306 0.0
C425 C 0.21793 0.73425 0.51316 0.0
Zn426 Zn 0.25678 0.7404 0.733 0.0
Zn427 Zn 0.2232 0.72371 0.76643 0.0
O428 O 0.21795 0.77323 0.76642 0.0
O429 O 0.247 0.7873 0.74032 0.0
O430 O 0.19991 0.70803 0.79105 0.0
O431 O 0.29686 0.71811 0.74399 0.0
O432 O 0.2691 0.70536 0.77084 0.0
C433 C 0.22897 0.79505 0.75499 0.0
C434 C 0.20049 0.7001 0.72387 0.0
O435 O 0.19752 0.70167 0.74308 0.0
O436 O 0.2239 0.71443 0.71565 0.0
C437 C 0.17426 0.72036 0.79826 0.0
O438 O 0.16171 0.74627 0.7899 0.0
C439 C 0.29534 0.7044 0.76097 0.0
Zn440 Zn 0.79905 0.23049 0.54234 0.0
Zn441 Zn 0.83715 0.21413 0.50973 0.0
O442 O 0.83907 0.26324 0.51115 0.0
O443 O 0.80733 0.2783 0.53609 0.0
O444 O 0.86112 0.20196 0.48451 0.0
O445 O 0.76091 0.20486 0.52911 0.0
O446 O 0.79421 0.19102 0.50476 0.0
C447 C 0.82665 0.2855 0.52215 0.0
C448 C 0.859 0.19374 0.5517 0.0
O449 O 0.86318 0.19483 0.53266 0.0
O450 O 0.83397 0.2065 0.55946 0.0
C451 C 0.89182 0.1993 0.4841 0.0
O452 O 0.90927 0.20575 0.5007 0.0
C453 C 0.76664 0.18896 0.5129 0.0
Zn454 Zn 0.79621 0.26913 0.78812 0.0
Zn455 Zn 0.81455 0.3084 0.75789 0.0
O456 O 0.76467 0.31234 0.75633 0.0
O457 O 0.74985 0.27809 0.77966 0.0
O458 O 0.83249 0.33414 0.73474 0.0
O459 O 0.82071 0.23118 0.77677 0.0
O460 O 0.83515 0.26369 0.75249 0.0
C461 C 0.74243 0.29848 0.7662 0.0
C462 C 0.83302 0.32545 0.80218 0.0
O463 O 0.8332 0.33178 0.78331 0.0
O464 O 0.81909 0.30003 0.80815 0.0
C465 C 0.82018 0.35885 0.7263 0.0
O466 O 0.79218 0.37006 0.73246 0.0
C467 C 0.8363 0.23604 0.7608 0.0
Zn468 Zn 0.77355 0.28102 0.03547 0.0
Zn469 Zn 0.72761 0.29038 0.00531 0.0
O470 O 0.72462 0.24164 0.00929 0.0
O471 O 0.76168 0.23261 0.03319 0.0
O472 O 0.69687 0.2995 0.98175 0.0
O473 O 0.80848 0.30187 0.01871 0.0
O474 O 0.77034 0.30946 0.99536 0.0
C475 C 0.73921 0.2222 0.02117 0.0
C476 C 0.71869 0.32088 0.04744 0.0
O477 O 0.70814 0.3146 0.02943 0.0
O478 O 0.74613 0.31057 0.05354 0.0
C479 C 0.69758 0.32803 0.9748 0.0
O480 O 0.71705 0.34968 0.98366 0.0
C481 C 0.79966 0.31291 0.00164 0.0
Zn482 Zn 0.76605 0.23817 0.23545 0.0
Zn483 Zn 0.73014 0.21779 0.26702 0.0
O484 O 0.71486 0.26479 0.26334 0.0
O485 O 0.74588 0.28263 0.23911 0.0
O486 O 0.70597 0.20074 0.2909 0.0
O487 O 0.80768 0.22587 0.25026 0.0
O488 O 0.77768 0.20859 0.27507 0.0
C489 C 0.72337 0.28736 0.25162 0.0
C490 C 0.72013 0.18631 0.22496 0.0
O491 O 0.71342 0.18891 0.2437 0.0
O492 O 0.7418 0.20427 0.21763 0.0
C493 C 0.67583 0.20515 0.29363 0.0
O494 O 0.65919 0.22309 0.28085 0.0
C495 C 0.80544 0.21254 0.26732 0.0
H496 H 0.14955 0.9225 0.26308 0.0
H497 H 0.09608 0.85457 0.29843 0.0
H498 H 0.13346 0.81127 0.28887 0.0
H499 H 0.1861 0.79536 0.27524 0.0
H500 H 0.24075 0.86391 0.24087 0.0
H501 H 0.1979 0.90406 0.24495 0.0
C502 C 0.14579 0.89804 0.26835 0.0
C503 C 0.12041 0.89178 0.28164 0.0
C504 C 0.16778 0.87346 0.26314 0.0
C505 C 0.11541 0.85995 0.28814 0.0
C506 C 0.13695 0.83525 0.28282 0.0
C507 C 0.18836 0.81883 0.26826 0.0
C508 C 0.21695 0.82681 0.25815 0.0
C509 C 0.16395 0.84208 0.27103 0.0
C510 C 0.21919 0.85717 0.24891 0.0
C511 C 0.19477 0.88027 0.25135 0.0
H512 H 0.12574 0.6563 0.56919 0.0
H513 H 0.10137 0.60787 0.51201 0.0
H514 H 0.14424 0.63798 0.49546 0.0
H515 H 0.18546 0.68175 0.49663 0.0
H516 H 0.20739 0.73179 0.55366 0.0
H517 H 0.16895 0.69731 0.57084 0.0
C518 C 0.12974 0.65238 0.55309 0.0
C519 C 0.11008 0.63014 0.54183 0.0
C520 C 0.15411 0.67007 0.54363 0.0
C521 C 0.11617 0.62478 0.52107 0.0
C522 C 0.14062 0.6421 0.51157 0.0
C523 C 0.18232 0.68458 0.51289 0.0
C524 C 0.19923 0.70934 0.52384 0.0
C525 C 0.15939 0.66523 0.52262 0.0
C526 C 0.1946 0.71299 0.54487 0.0
C527 C 0.17251 0.69338 0.5547 0.0
H528 H 0.41558 0.61291 0.7751 0.0
H529 H 0.36474 0.59431 0.83029 0.0
H530 H 0.32364 0.63417 0.82108 0.0
H531 H 0.30069 0.67232 0.7966 0.0
H532 H 0.35221 0.69185 0.74178 0.0
H533 H 0.39492 0.6543 0.75195 0.0
C534 C 0.39581 0.61791 0.78528 0.0
C535 C 0.39305 0.60023 0.8032 0.0
C536 C 0.37238 0.64112 0.78001 0.0
C537 C 0.36706 0.60692 0.81613 0.0
C538 C 0.34365 0.62992 0.81097 0.0
C539 C 0.32141 0.66865 0.78696 0.0
C540 C 0.32303 0.68471 0.76837 0.0
C541 C 0.34581 0.64682 0.7928 0.0
C542 C 0.35021 0.67976 0.75615 0.0
C543 C 0.37464 0.65817 0.7619 0.0
H544 H 0.41392 0.90493 0.02684 0.0
H545 H 0.46866 0.83132 0.05807 0.0
H546 H 0.43185 0.78939 0.04412 0.0
H547 H 0.38474 0.77369 0.02287 0.0
H548 H 0.33079 0.84662 0.9904 0.0
H549 H 0.36652 0.88896 0.00519 0.0
C550 C 0.41761 0.8797 0.03061 0.0
C551 C 0.44391 0.8711 0.04338 0.0
C552 C 0.39652 0.85572 0.02239 0.0
C553 C 0.44876 0.83837 0.04806 0.0
C554 C 0.42765 0.81446 0.04019 0.0
C555 C 0.3806 0.79887 0.01912 0.0
C556 C 0.35506 0.80704 0.00564 0.0
C557 C 0.40153 0.82287 0.02733 0.0
C558 C 0.3503 0.83973 0.00075 0.0
C559 C 0.37072 0.86392 0.00918 0.0
H560 H 0.11474 0.63591 0.9993 0.0
H561 H 0.08529 0.69694 0.9496 0.0
H562 H 0.13436 0.72918 0.95452 0.0
H563 H 0.18899 0.73496 0.96911 0.0
H564 H 0.22149 0.6711 0.01655 0.0
H565 H 0.16801 0.64516 0.01626 0.0
C566 C 0.11894 0.65638 0.98962 0.0
C567 C 0.09631 0.66365 0.97398 0.0
C568 C 0.14803 0.67413 0.99193 0.0
C569 C 0.10188 0.69083 0.96194 0.0
C570 C 0.13023 0.70915 0.96456 0.0
C571 C 0.18432 0.71572 0.97966 0.0
C572 C 0.20943 0.70464 0.99258 0.0
C573 C 0.15396 0.70027 0.97897 0.0
C574 C 0.20271 0.67994 0.00629 0.0
C575 C 0.17216 0.66498 0.00608 0.0
H576 H 0.37503 0.58672 0.22168 0.0
H577 H 0.44071 0.64873 0.19017 0.0
H578 H 0.4116 0.69666 0.20227 0.0
H579 H 0.36906 0.72098 0.22291 0.0
H580 H 0.30424 0.65924 0.25539 0.0
H581 H 0.33108 0.61115 0.24149 0.0
C582 C 0.38271 0.61073 0.21731 0.0
C583 C 0.41007 0.61423 0.20518 0.0
C584 C 0.36601 0.63819 0.22445 0.0
C585 C 0.42 0.64547 0.19976 0.0
C586 C 0.40327 0.67286 0.20658 0.0
C587 C 0.36052 0.69702 0.22679 0.0
C588 C 0.3347 0.69374 0.2402 0.0
C589 C 0.37647 0.66952 0.2191 0.0
C590 C 0.32413 0.66247 0.24514 0.0
C591 C 0.3395 0.63495 0.23724 0.0
H592 H 0.4094 0.91135 0.48464 0.0
H593 H 0.46188 0.82822 0.46129 0.0
H594 H 0.41788 0.79282 0.47097 0.0
H595 H 0.36218 0.78586 0.4838 0.0
H596 H 0.31441 0.86866 0.51099 0.0
H597 H 0.36 0.90322 0.50302 0.0
C598 C 0.41231 0.8855 0.48215 0.0
C599 C 0.4392 0.87317 0.47159 0.0
C600 C 0.38761 0.86486 0.48861 0.0
C601 C 0.44119 0.8392 0.46849 0.0
C602 C 0.41608 0.81862 0.47429 0.0
C603 C 0.36209 0.81132 0.48834 0.0
C604 C 0.33463 0.82462 0.49774 0.0
C605 C 0.38877 0.83129 0.48394 0.0
C606 C 0.33509 0.85763 0.50372 0.0
C607 C 0.36111 0.87758 0.49903 0.0
H608 H 0.1431 0.91984 0.75237 0.0
H609 H 0.22007 0.9503 0.71372 0.0
H610 H 0.25177 0.90253 0.72279 0.0
H611 H 0.25378 0.84849 0.73755 0.0
H612 H 0.17625 0.81716 0.77559 0.0
H613 H 0.14891 0.86912 0.77124 0.0
C614 C 0.16705 0.9162 0.74622 0.0
C615 C 0.1791 0.93825 0.73221 0.0
C616 C 0.18492 0.88845 0.75127 0.0
C617 C 0.21034 0.93366 0.72457 0.0
C618 C 0.22836 0.90624 0.72963 0.0
C619 C 0.23123 0.85326 0.74524 0.0
C620 C 0.21679 0.82874 0.75656 0.0
C621 C 0.21535 0.88292 0.74237 0.0
C622 C 0.18783 0.83551 0.76669 0.0
C623 C 0.17203 0.86514 0.76408 0.0
H624 H 0.60658 0.34631 0.79139 0.0
H625 H 0.63486 0.42924 0.75676 0.0
H626 H 0.68218 0.39975 0.74479 0.0
H627 H 0.71942 0.35333 0.74829 0.0
H628 H 0.68916 0.27025 0.78205 0.0
H629 H 0.63778 0.29648 0.78924 0.0
C630 C 0.62226 0.35781 0.78067 0.0
C631 C 0.61736 0.39044 0.77551 0.0
C632 C 0.6492 0.34062 0.77361 0.0
C633 C 0.63851 0.4046 0.76168 0.0
C634 C 0.66551 0.38764 0.75465 0.0
C635 C 0.70121 0.34055 0.7567 0.0
C636 C 0.70851 0.31019 0.76503 0.0
C637 C 0.67177 0.35606 0.76116 0.0
C638 C 0.68446 0.29388 0.77574 0.0
C639 C 0.65508 0.30894 0.77998 0.0
H640 H 0.6902 0.08857 0.0533 0.0
H641 H 0.60393 0.11799 0.02029 0.0
H642 H 0.63349 0.16347 0.00615 0.0
H643 H 0.68159 0.19832 0.00652 0.0
H644 H 0.7669 0.17166 0.04164 0.0
H645 H 0.74033 0.1213 0.05122 0.0
C646 C 0.67818 0.1046 0.04267 0.0
C647 C 0.64497 0.10016 0.03788 0.0
C648 C 0.69511 0.13125 0.03508 0.0
C649 C 0.62944 0.1212 0.02428 0.0
C650 C 0.64632 0.14715 0.01621 0.0
C651 C 0.69472 0.18121 0.01591 0.0
C652 C 0.72615 0.18893 0.02346 0.0
C653 C 0.67887 0.15296 0.02198 0.0
C654 C 0.74265 0.16643 0.03569 0.0
C655 C 0.72739 0.13769 0.04126 0.0
H656 H 0.93996 0.14957 0.29096 0.0
H657 H 0.87756 0.09158 0.32749 0.0
H658 H 0.83089 0.12458 0.31754 0.0
H659 H 0.80729 0.16751 0.29679 0.0
H660 H 0.86913 0.22417 0.25906 0.0
H661 H 0.91666 0.19459 0.27151 0.0
C662 C 0.91621 0.14447 0.29693 0.0
C663 C 0.91213 0.11804 0.30979 0.0
C664 C 0.88942 0.16333 0.29097 0.0
C665 C 0.88118 0.11149 0.31729 0.0
C666 C 0.85454 0.13044 0.31171 0.0
C667 C 0.83121 0.17379 0.29153 0.0
C668 C 0.83462 0.19798 0.27698 0.0
C669 C 0.85828 0.1561 0.29831 0.0
C670 C 0.86581 0.20559 0.27021 0.0
C671 C 0.89299 0.18861 0.27727 0.0
H672 H 0.91509 0.4073 0.53012 0.0
H673 H 0.82694 0.45114 0.55237 0.0
H674 H 0.79769 0.40095 0.54465 0.0
H675 H 0.79848 0.34255 0.53452 0.0
H676 H 0.88527 0.30298 0.50819 0.0
H677 H 0.91298 0.35468 0.51354 0.0
C678 C 0.88928 0.40706 0.53271 0.0
C679 C 0.87401 0.43351 0.54254 0.0
C680 C 0.87204 0.37867 0.52736 0.0
C681 C 0.84031 0.43116 0.54578 0.0
C682 C 0.82321 0.40241 0.5411 0.0
C683 C 0.82321 0.34553 0.52957 0.0
C684 C 0.83991 0.31879 0.52128 0.0
C685 C 0.8391 0.37565 0.53244 0.0
C686 C 0.8718 0.32309 0.51465 0.0
C687 C 0.88783 0.35262 0.51785 0.0
H688 H 0.68752 0.07309 0.47262 0.0
H689 H 0.60723 0.13773 0.48384 0.0
H690 H 0.64425 0.17659 0.50084 0.0
H691 H 0.70034 0.19358 0.51103 0.0
H692 H 0.78023 0.13098 0.49556 0.0
H693 H 0.74254 0.09053 0.48114 0.0
C694 C 0.67796 0.09587 0.47839 0.0
C695 C 0.64449 0.10233 0.47671 0.0
C696 C 0.69947 0.11875 0.48728 0.0
C697 C 0.63275 0.13168 0.48507 0.0
C698 C 0.65398 0.15416 0.49465 0.0
C699 C 0.70932 0.17103 0.50452 0.0
C700 C 0.74293 0.16523 0.5043 0.0
C701 C 0.68748 0.14812 0.49565 0.0
C702 C 0.75443 0.13608 0.49571 0.0
C703 C 0.73293 0.11287 0.48754 0.0
H704 H 0.94168 0.12837 0.74722 0.0
H705 H 0.957 0.18376 0.69328 0.0
H706 H 0.91223 0.21944 0.70211 0.0
H707 H 0.87035 0.23644 0.7259 0.0
H708 H 0.85341 0.17947 0.77895 0.0
H709 H 0.89641 0.14218 0.76919 0.0
C710 C 0.93497 0.14789 0.73719 0.0
C711 C 0.95319 0.15364 0.71982 0.0
C712 C 0.90871 0.16795 0.74208 0.0
C713 C 0.94413 0.1793 0.70711 0.0
C714 C 0.91827 0.19955 0.71201 0.0
C715 C 0.87578 0.21566 0.73521 0.0
C716 C 0.85888 0.21098 0.75322 0.0
C717 C 0.90067 0.19436 0.7296 0.0
C718 C 0.86606 0.18374 0.76501 0.0
C719 C 0.8908 0.16247 0.75952 0.0
H720 H 0.86996 0.41095 0.94505 0.0
H721 H 0.93197 0.42203 0.99863 0.0
H722 H 0.90264 0.37854 0.01491 0.0
H723 H 0.85668 0.34044 0.01504 0.0
H724 H 0.79257 0.33181 0.96228 0.0
H725 H 0.82538 0.37124 0.94464 0.0
C726 C 0.877 0.40397 0.96032 0.0
C727 C 0.90304 0.41998 0.97062 0.0
C728 C 0.85959 0.37937 0.96978 0.0
C729 C 0.91224 0.41002 0.99024 0.0
C730 C 0.89533 0.38525 0.99963 0.0
C731 C 0.85017 0.34676 0.99956 0.0
C732 C 0.82215 0.33319 0.99003 0.0
C733 C 0.86866 0.37011 0.98968 0.0
C734 C 0.81396 0.34191 0.97001 0.0
C735 C 0.83264 0.36456 0.95992 0.0
H736 H 0.65009 0.40874 0.2187 0.0
H737 H 0.56824 0.35494 0.24017 0.0
H738 H 0.60497 0.31635 0.25645 0.0
H739 H 0.6599 0.29424 0.26073 0.0
H740 H 0.74147 0.34602 0.2371 0.0
H741 H 0.70547 0.38959 0.22609 0.0
C742 C 0.64034 0.38899 0.22734 0.0
C743 C 0.60653 0.3845 0.22809 0.0
C744 C 0.6616 0.36651 0.23626 0.0
C745 C 0.5942 0.35859 0.23915 0.0
C746 C 0.61519 0.3366 0.2485 0.0
C747 C 0.66992 0.3155 0.25371 0.0
C748 C 0.70328 0.31685 0.24967 0.0
C749 C 0.6489 0.33977 0.24663 0.0
C750 C 0.71584 0.34438 0.24031 0.0
C751 C 0.69524 0.36919 0.23389 0.0
H752 H 0.13185 0.92841 0.42209 0.0
H753 H 0.14951 0.86285 0.37164 0.0
H754 H 0.17587 0.82456 0.39473 0.0
H755 H 0.19479 0.8105 0.42925 0.0
H756 H 0.17564 0.87621 0.47961 0.0
H757 H 0.14882 0.91357 0.45656 0.0
C758 C 0.14172 0.90583 0.41616 0.0
C759 C 0.13918 0.89856 0.39522 0.0
C760 C 0.15639 0.88392 0.42951 0.0
C761 C 0.15132 0.86893 0.38773 0.0
C762 C 0.16636 0.8471 0.40091 0.0
C763 C 0.18459 0.83289 0.43521 0.0
C764 C 0.18739 0.84051 0.45616 0.0
C765 C 0.16912 0.8544 0.42184 0.0
C766 C 0.17388 0.86962 0.46359 0.0
C767 C 0.15861 0.89112 0.4504 0.0
H768 H 0.08349 0.62334 0.68155 0.0
H769 H 0.13972 0.64071 0.62839 0.0
H770 H 0.18141 0.6685 0.6495 0.0
H771 H 0.20126 0.68864 0.68296 0.0
H772 H 0.14478 0.67106 0.7361 0.0
H773 H 0.10371 0.64271 0.71504 0.0
C774 C 0.10478 0.63343 0.67459 0.0
C775 C 0.10849 0.63015 0.65347 0.0
C776 C 0.12857 0.64931 0.68679 0.0
C777 C 0.13646 0.64276 0.64466 0.0
C778 C 0.1602 0.65875 0.6567 0.0
C779 C 0.18 0.67858 0.68996 0.0
C780 C 0.17612 0.68209 0.71109 0.0
C781 C 0.15645 0.66225 0.67777 0.0
C782 C 0.14845 0.66875 0.71989 0.0
C783 C 0.12489 0.65255 0.70786 0.0
H784 H 0.39924 0.61489 0.88199 0.0
H785 H 0.41983 0.54961 0.931 0.0
H786 H 0.39033 0.58487 0.95441 0.0
H787 H 0.36036 0.63494 0.96118 0.0
H788 H 0.34012 0.70075 0.91233 0.0
H789 H 0.36814 0.66464 0.88866 0.0
C790 C 0.39738 0.60849 0.89783 0.0
C791 C 0.41179 0.57976 0.90478 0.0
C792 C 0.38061 0.62899 0.91123 0.0
C793 C 0.40869 0.57144 0.92524 0.0
C794 C 0.39202 0.59169 0.93866 0.0
C795 C 0.36203 0.64145 0.94536 0.0
C796 C 0.34829 0.67063 0.93859 0.0
C797 C 0.37812 0.62062 0.93185 0.0
C798 C 0.35053 0.67849 0.91798 0.0
C799 C 0.36655 0.65787 0.90442 0.0
H800 H 0.44322 0.91961 0.17696 0.0
H801 H 0.43237 0.85296 0.12568 0.0
H802 H 0.39604 0.81908 0.14501 0.0
H803 H 0.36763 0.80813 0.17659 0.0
H804 H 0.37804 0.87537 0.22765 0.0
H805 H 0.41376 0.90947 0.20814 0.0
C806 C 0.43262 0.89788 0.1699 0.0
C807 C 0.44063 0.88886 0.14989 0.0
C808 C 0.41157 0.8786 0.18106 0.0
C809 C 0.42704 0.86028 0.14115 0.0
C810 C 0.40608 0.84097 0.15215 0.0
C811 C 0.37759 0.8303 0.18344 0.0
C812 C 0.37012 0.83908 0.20359 0.0
C813 C 0.39826 0.84983 0.17215 0.0
C814 C 0.38333 0.86793 0.21219 0.0
C815 C 0.40382 0.88748 0.20105 0.0
H816 H 0.11389 0.62899 0.86309 0.0
H817 H 0.04579 0.70808 0.86764 0.0
H818 H 0.07613 0.73822 0.84274 0.0
H819 H 0.12106 0.74128 0.81876 0.0
H820 H 0.18975 0.6625 0.81527 0.0
H821 H 0.16048 0.63353 0.84103 0.0
C822 C 0.10596 0.6531 0.85901 0.0
C823 C 0.07744 0.66611 0.86725 0.0
C824 C 0.12364 0.6704 0.84481 0.0
C825 C 0.06732 0.69717 0.86134 0.0
C826 C 0.08477 0.71452 0.84716 0.0
C827 C 0.12974 0.71786 0.82372 0.0
C828 C 0.15748 0.70406 0.81495 0.0
C829 C 0.11276 0.70121 0.83861 0.0
C830 C 0.16846 0.67375 0.82168 0.0
C831 C 0.15169 0.65707 0.83641 0.0
H832 H 0.43093 0.60046 0.08849 0.0
H833 H 0.34965 0.5413 0.10533 0.0
H834 H 0.31444 0.56942 0.08107 0.0
H835 H 0.30687 0.6107 0.05484 0.0
H836 H 0.38844 0.67035 0.03886 0.0
H837 H 0.42312 0.64249 0.06326 0.0
C838 C 0.40541 0.59399 0.0871 0.0
C839 C 0.39301 0.56879 0.09874 0.0
C840 C 0.38528 0.61037 0.07325 0.0
C841 C 0.35997 0.56033 0.09639 0.0
C842 C 0.33976 0.57652 0.08259 0.0
C843 C 0.33221 0.61764 0.05673 0.0
C844 C 0.34495 0.64256 0.04496 0.0
C845 C 0.35218 0.60151 0.07087 0.0
C846 C 0.37788 0.65127 0.04766 0.0
C847 C 0.39782 0.63533 0.06163 0.0
H848 H 0.41023 0.86454 0.37618 0.0
H849 H 0.46392 0.90975 0.32887 0.0
H850 H 0.43141 0.88046 0.30296 0.0
H851 H 0.38765 0.84274 0.29368 0.0
H852 H 0.33343 0.79675 0.3405 0.0
H853 H 0.36628 0.82558 0.36668 0.0
C854 C 0.41462 0.868 0.36019 0.0
C855 C 0.43947 0.88914 0.35442 0.0
C856 C 0.39586 0.85095 0.34531 0.0
C857 C 0.44519 0.89327 0.33367 0.0
C858 C 0.42654 0.87666 0.31885 0.0
C859 C 0.38296 0.83891 0.3096 0.0
C860 C 0.35804 0.81768 0.31509 0.0
C861 C 0.40185 0.85547 0.32449 0.0
C862 C 0.3525 0.81294 0.33583 0.0
C863 C 0.37121 0.82947 0.35081 0.0
H864 H 0.15435 0.90889 0.62017 0.0
H865 H 0.2091 0.99626 0.61005 0.0
H866 H 0.23761 0.96902 0.58241 0.0
H867 H 0.24384 0.92161 0.55935 0.0
H868 H 0.18695 0.83524 0.56888 0.0
H869 H 0.16217 0.86106 0.59825 0.0
C870 C 0.17252 0.92199 0.61192 0.0
C871 C 0.17937 0.95462 0.61708 0.0
C872 C 0.18821 0.90647 0.59575 0.0
C873 C 0.20352 0.97103 0.60653 0.0
C874 C 0.21963 0.95556 0.59057 0.0
C875 C 0.22617 0.90838 0.56792 0.0
C876 C 0.21709 0.87664 0.56177 0.0
C877 C 0.2117 0.92347 0.58478 0.0
C878 C 0.19424 0.8598 0.57313 0.0
C879 C 0.18004 0.87451 0.58998 0.0
H880 H 0.60146 0.34701 0.89953 0.0
H881 H 0.64743 0.44146 0.90172 0.0
H882 H 0.6824 0.42492 0.9299 0.0
H883 H 0.6983 0.38494 0.95501 0.0
H884 H 0.65182 0.29086 0.95399 0.0
H885 H 0.61835 0.30622 0.92452 0.0
C886 C 0.61911 0.36398 0.90618 0.0
C887 C 0.6218 0.39541 0.89835 0.0
C888 C 0.63885 0.35454 0.92276 0.0
C889 C 0.64515 0.41691 0.90705 0.0
C890 C 0.66498 0.40761 0.92337 0.0
C891 C 0.68086 0.36772 0.94838 0.0
C892 C 0.67744 0.33687 0.9568 0.0
C893 C 0.66178 0.37667 0.93149 0.0
C894 C 0.65488 0.31483 0.94787 0.0
C895 C 0.63575 0.32358 0.931 0.0
H896 H 0.62495 0.08695 0.17979 0.0
H897 H 0.68126 0.11442 0.12847 0.0
H898 H 0.71506 0.14998 0.1506 0.0
H899 H 0.72754 0.17419 0.18442 0.0
H900 H 0.67071 0.14637 0.23559 0.0
H901 H 0.63811 0.11009 0.21357 0.0
C902 C 0.64448 0.10093 0.17344 0.0
C903 C 0.65048 0.09832 0.15254 0.0
C904 C 0.66371 0.12121 0.18621 0.0
C905 C 0.67628 0.11598 0.14455 0.0
C906 C 0.69551 0.13636 0.15717 0.0
C907 C 0.70812 0.16011 0.19078 0.0
C908 C 0.70157 0.16314 0.21163 0.0
C909 C 0.68933 0.13927 0.17802 0.0
C910 C 0.67633 0.1446 0.21961 0.0
C911 C 0.65759 0.12385 0.20703 0.0
H912 H 0.93262 0.1348 0.40091 0.0
H913 H 0.02157 0.12024 0.43554 0.0
H914 H -0.00025 0.15094 0.46419 0.0
H915 H 0.95397 0.17835 0.48036 0.0
H916 H 0.86398 0.19032 0.44633 0.0
H917 H 0.88758 0.16399 0.41661 0.0
C918 C 0.94721 0.13827 0.41474 0.0
C919 C 0.97862 0.12508 0.41607 0.0
C920 C 0.93426 0.15533 0.43134 0.0
C921 C 0.99745 0.1304 0.43398 0.0
C922 C 0.9849 0.14775 0.45046 0.0
C923 C 0.93962 0.17552 0.46638 0.0
C924 C 0.90721 0.1861 0.46562 0.0
C925 C 0.95315 0.15986 0.44943 0.0
C926 C 0.88894 0.18219 0.44738 0.0
C927 C 0.9024 0.16712 0.43037 0.0
H928 H 0.91622 0.41619 0.66261 0.0
H929 H 0.83805 0.48478 0.65551 0.0
H930 H 0.80636 0.45582 0.68028 0.0
H931 H 0.80141 0.41182 0.70473 0.0
H932 H 0.87958 0.34302 0.71146 0.0
H933 H 0.91034 0.37098 0.68592 0.0
C934 C 0.89206 0.42455 0.66623 0.0
C935 C 0.87967 0.45275 0.65724 0.0
C936 C 0.87392 0.40776 0.68051 0.0
C937 C 0.84844 0.46344 0.66239 0.0
C938 C 0.83022 0.4468 0.67651 0.0
C939 C 0.82511 0.40285 0.70057 0.0
C940 C 0.83812 0.37539 0.71013 0.0
C941 C 0.84283 0.41911 0.68583 0.0
C942 C 0.86889 0.36412 0.70444 0.0
C943 C 0.88659 0.38011 0.68981 0.0
H944 H 0.58396 0.13409 0.35424 0.0
H945 H 0.67311 0.08335 0.3676 0.0
H946 H 0.70224 0.11807 0.34451 0.0
H947 H 0.70176 0.16055 0.31911 0.0
H948 H 0.61239 0.21042 0.30473 0.0
H949 H 0.58408 0.17863 0.32978 0.0
C950 C 0.60985 0.13101 0.3523 0.0
C951 C 0.62634 0.10611 0.36252 0.0
C952 C 0.62637 0.15078 0.33875 0.0
C953 C 0.65983 0.10212 0.35971 0.0
C954 C 0.6765 0.12199 0.34655 0.0
C955 C 0.67615 0.16472 0.32155 0.0
C956 C 0.65923 0.18777 0.30995 0.0
C957 C 0.65992 0.14603 0.33574 0.0
C958 C 0.62602 0.19277 0.31336 0.0
C959 C 0.60978 0.17456 0.32768 0.0
H960 H 0.97931 0.12612 0.59385 0.0
H961 H 0.92377 0.14598 0.6474 0.0
H962 H 0.8809 0.17068 0.62653 0.0
H963 H 0.85937 0.18666 0.59294 0.0
H964 H 0.91548 0.16607 0.53956 0.0
H965 H 0.95792 0.1418 0.56051 0.0
C966 C 0.95796 0.13617 0.60096 0.0
C967 C 0.95473 0.13439 0.6221 0.0
C968 C 0.93345 0.15011 0.5889 0.0
C969 C 0.92668 0.14693 0.6311 0.0
C970 C 0.90223 0.16111 0.6192 0.0
C971 C 0.88084 0.17681 0.58589 0.0
C972 C 0.88413 0.17826 0.56469 0.0
C973 C 0.90532 0.16276 0.59805 0.0
C974 C 0.91218 0.16533 0.55583 0.0
C975 C 0.93657 0.15145 0.5678 0.0
H976 H 0.89365 0.40573 0.87662 0.0
H977 H 0.90518 0.47664 0.83006 0.0
H978 H 0.88062 0.43917 0.80474 0.0
H979 H 0.85622 0.38617 0.79584 0.0
H980 H 0.84442 0.31544 0.84258 0.0
H981 H 0.86912 0.35283 0.86776 0.0
C982 C 0.89097 0.41286 0.8609 0.0
C983 C 0.90121 0.44384 0.8552 0.0
C984 C 0.8769 0.39123 0.84645 0.0
C985 C 0.89715 0.45301 0.83485 0.0
C986 C 0.8833 0.43155 0.82035 0.0
C987 C 0.85916 0.37887 0.81152 0.0
C988 C 0.84855 0.34802 0.81728 0.0
C989 C 0.87314 0.40058 0.82598 0.0
C990 C 0.85234 0.33906 0.83771 0.0
C991 C 0.86647 0.36041 0.85214 0.0
H992 H 0.6464 0.41173 0.10943 0.0
H993 H 0.57425 0.33557 0.10205 0.0
H994 H 0.60818 0.30751 0.07763 0.0
H995 H 0.6584 0.30439 0.05816 0.0
H996 H 0.73337 0.37631 0.06886 0.0
H997 H 0.69853 0.40596 0.09259 0.0
C998 C 0.6382 0.38866 0.10292 0.0
C999 C 0.60735 0.37623 0.10756 0.0
C1000 C 0.65838 0.37189 0.0894 0.0
C1001 C 0.59731 0.34645 0.09847 0.0
C1002 C 0.61686 0.33012 0.08457 0.0
C1003 C 0.66693 0.32662 0.0657 0.0
C1004 C 0.69799 0.33861 0.0617 0.0
C1005 C 0.64729 0.34274 0.07981 0.0
C1006 C 0.70934 0.36694 0.07174 0.0
C1007 C 0.68948 0.38379 0.08526 0.0
loop_
_geom_bond_atom_site_label_1
_geom_bond_atom_site_label_2
_geom_bond_distance
_geom_bond_site_symmetry_2
_ccdc_geom_bond_type
H0 C19 0.949 . S
H1 C20 0.945 1_455 S
H2 C22 0.950 . S
H3 C23 0.950 . S
H4 C25 0.950 . S
H5 C28 0.950 1_455 S
H6 C29 0.950 . S
H7 C31 0.951 . S
H8 C32 0.970 . S
H9 C34 0.949 . S
H10 C35 0.950 . S
H11 C37 0.950 . S
H12 C38 0.950 . S
H13 C40 0.950 1_565 S
H14 C43 0.950 . S
H15 C44 0.950 . S
H16 C46 0.951 . S
H17 C47 0.949 1_545 S
C18 C19 1.376 . S
C18 C23 1.386 1_455 S
C18 C24 1.483 . S
C19 H0 0.949 . S
C19 C18 1.376 . S
C19 C20 1.397 1_455 S
C20 H1 0.945 1_655 S
C20 C19 1.397 1_655 S
C20 C21 1.391 . S
C21 C20 1.391 . S
C21 C22 1.405 . S
C22 H2 0.950 . S
C22 C21 1.405 . S
C22 C23 1.367 . S
C23 H3 0.950 . S
C23 C18 1.386 1_655 S
C23 C22 1.367 . S
C24 C18 1.483 . S
C24 C25 1.382 . S
C24 C26 1.403 . S
C25 H4 0.950 . S
C25 C24 1.382 . S
C25 C41 1.411 1_545 S
C26 C24 1.403 . S
C26 C27 1.487 . S
C26 C40 1.411 . S
C27 C26 1.487 . S
C27 C28 1.383 1_455 S
C27 C32 1.383 1_455 S
C28 H5 0.950 1_655 S
C28 C27 1.383 1_655 S
C28 C29 1.395 . S
C29 H6 0.950 . S
C29 C28 1.395 . S
C29 C30 1.288 . S
C30 C29 1.288 . S
C30 C31 1.392 . S
C31 H7 0.951 . S
C31 C30 1.392 . S
C31 C32 1.392 . S
C32 H8 0.970 . S
C32 C27 1.383 1_655 S
C32 C31 1.392 . S
C33 C34 1.376 . S
C33 C38 1.386 . S
C33 C39 1.483 . S
C34 H9 0.949 . S
C34 C33 1.376 . S
C34 C35 1.397 . S
C35 H10 0.950 . S
C35 C34 1.397 . S
C35 C36 1.391 . S
C36 C35 1.391 . S
C36 C37 1.405 . S
C37 H11 0.950 . S
C37 C36 1.405 . S
C37 C38 1.367 . S
C38 H12 0.950 . S
C38 C33 1.386 . S
C38 C37 1.367 . S
C39 C33 1.483 . S
C39 C40 1.382 1_565 S
C39 C41 1.403 . S
C40 H13 0.950 1_545 S
C40 C26 1.411 . S
C40 C39 1.382 1_545 S
C41 C25 1.411 1_565 S
C41 C39 1.403 . S
C41 C42 1.489 . S
C42 C41 1.489 . S
C42 C43 1.383 . S
C42 C47 1.382 . S
C43 H14 0.950 . S
C43 C42 1.383 . S
C43 C44 1.395 . S
C44 H15 0.950 . S
C44 C43 1.395 . S
C44 C45 1.288 . S
C45 C44 1.288 . S
C45 C46 1.392 . S
C46 H16 0.951 . S
C46 C45 1.392 . S
C46 C47 1.392 . S
C47 H17 0.949 1_565 S
C47 C42 1.382 . S
C47 C46 1.392 . S
H48 C67 0.949 1_455 S
H49 C68 0.950 . S
H50 C70 0.950 . S
H51 C71 0.950 . S
H52 C73 0.950 . S
H53 C76 0.950 . S
H54 C77 0.950 . S
H55 C79 0.951 . S
H56 C80 0.949 . S
H57 C82 0.949 . S
H58 C83 0.950 . S
H59 C85 0.950 . S
H60 C86 0.950 . S
H61 C88 0.947 1_655 S
H62 C91 0.950 . S
H63 C92 0.950 . S
H64 C94 0.951 . S
H65 C95 0.949 . S
C66 C67 1.376 . S
C66 C71 1.386 . S
C66 C72 1.483 . S
C67 H48 0.949 1_655 S
C67 C66 1.376 . S
C67 C68 1.397 . S
C68 H49 0.950 . S
C68 C67 1.397 . S
C68 C69 1.391 . S
C69 C68 1.391 . S
C69 C70 1.405 . S
C70 H50 0.950 . S
C70 C69 1.405 . S
C70 C71 1.367 . S
C71 H51 0.950 . S
C71 C66 1.386 . S
C71 C70 1.367 . S
C72 C66 1.483 . S
C72 C73 1.382 1_655 S
C72 C74 1.403 . S
C73 H52 0.950 . S
C73 C72 1.382 1_455 S
C73 C89 1.411 . S
C74 C72 1.403 . S
C74 C75 1.489 . S
C74 C88 1.411 1_655 S
C75 C74 1.489 . S
C75 C76 1.383 . S
C75 C80 1.382 . S
C76 H53 0.950 . S
C76 C75 1.383 . S
C76 C77 1.395 . S
C77 H54 0.950 . S
C77 C76 1.395 . S
C77 C78 1.288 . S
C78 C77 1.288 . S
C78 C79 1.392 . S
C79 H55 0.951 . S
C79 C78 1.392 . S
C79 C80 1.392 . S
C80 H56 0.949 . S
C80 C75 1.382 . S
C80 C79 1.392 . S
C81 C82 1.376 . S
C81 C86 1.386 . S
C81 C87 1.483 . S
C82 H57 0.949 . S
C82 C81 1.376 . S
C82 C83 1.397 . S
C83 H58 0.950 . S
C83 C82 1.397 . S
C83 C84 1.391 . S
C84 C83 1.391 . S
C84 C85 1.405 . S
C85 H59 0.950 . S
C85 C84 1.405 . S
C85 C86 1.367 . S
C86 H60 0.950 . S
C86 C81 1.386 . S
C86 C85 1.367 . S
C87 C81 1.483 . S
C87 C88 1.382 . S
C87 C89 1.403 . S
C88 H61 0.947 1_455 S
C88 C74 1.411 1_455 S
C88 C87 1.382 . S
C89 C73 1.411 . S
C89 C87 1.403 . S
C89 C90 1.489 . S
C90 C89 1.489 . S
C90 C91 1.383 . S
C90 C95 1.382 . S
C91 H62 0.950 . S
C91 C90 1.383 . S
C91 C92 1.395 . S
C92 H63 0.950 . S
C92 C91 1.395 . S
C92 C93 1.288 . S
C93 C92 1.288 . S
C93 C94 1.392 . S
C94 H64 0.951 . S
C94 C93 1.392 . S
C94 C95 1.392 . S
C95 H65 0.949 . S
C95 C90 1.382 . S
C95 C94 1.392 . S
H96 C115 0.949 . S
H97 C116 0.950 . S
H98 C118 0.950 . S
H99 C119 0.950 . S
H100 C121 0.950 . S
H101 C124 0.950 . S
H102 C125 0.950 . S
H103 C127 0.951 . S
H104 C128 0.949 . S
H105 C130 0.949 . S
H106 C131 0.950 . S
H107 C133 0.950 . S
H108 C134 0.950 . S
H109 C136 0.950 . S
H110 C139 0.950 . S
H111 C140 0.950 . S
H112 C142 0.951 . S
H113 C143 0.949 . S
C114 C115 1.376 . S
C114 C119 1.386 . S
C114 C120 1.483 . S
C115 H96 0.949 . S
C115 C114 1.376 . S
C115 C116 1.397 . S
C116 H97 0.950 . S
C116 C115 1.397 . S
C116 C117 1.391 . S
C117 C116 1.391 . S
C117 C118 1.405 . S
C118 H98 0.950 . S
C118 C117 1.405 . S
C118 C119 1.367 . S
C119 H99 0.950 . S
C119 C114 1.386 . S
C119 C118 1.367 . S
C120 C114 1.483 . S
C120 C121 1.382 . S
C120 C122 1.403 . S
C121 H100 0.950 . S
C121 C120 1.382 . S
C121 C137 1.411 . S
C122 C120 1.403 . S
C122 C123 1.489 . S
C122 C136 1.411 . S
C123 C122 1.489 . S
C123 C124 1.383 . S
C123 C128 1.382 . S
C124 H101 0.950 . S
C124 C123 1.383 . S
C124 C125 1.395 . S
C125 H102 0.950 . S
C125 C124 1.395 . S
C125 C126 1.288 . S
C126 C125 1.288 . S
C126 C127 1.392 . S
C127 H103 0.951 . S
C127 C126 1.392 . S
C127 C128 1.392 . S
C128 H104 0.949 . S
C128 C123 1.382 . S
C128 C127 1.392 . S
C129 C130 1.376 . S
C129 C134 1.386 . S
C129 C135 1.483 . S
C130 H105 0.949 . S
C130 C129 1.376 . S
C130 C131 1.397 . S
C131 H106 0.950 . S
C131 C130 1.397 . S
C131 C132 1.391 . S
C132 C131 1.391 . S
C132 C133 1.405 . S
C133 H107 0.950 . S
C133 C132 1.405 . S
C133 C134 1.367 . S
C134 H108 0.950 . S
C134 C129 1.386 . S
C134 C133 1.367 . S
C135 C129 1.483 . S
C135 C136 1.382 . S
C135 C137 1.403 . S
C136 H109 0.950 . S
C136 C122 1.411 . S
C136 C135 1.382 . S
C137 C121 1.411 . S
C137 C135 1.403 . S
C137 C138 1.489 . S
C138 C137 1.489 . S
C138 C139 1.383 . S
C138 C143 1.382 . S
C139 H110 0.950 . S
C139 C138 1.383 . S
C139 C140 1.395 . S
C140 H111 0.950 . S
C140 C139 1.395 . S
C140 C141 1.288 . S
C141 C140 1.288 . S
C141 C142 1.392 . S
C142 H112 0.951 . S
C142 C141 1.392 . S
C142 C143 1.392 . S
C143 H113 0.949 . S
C143 C138 1.382 . S
C143 C142 1.392 . S
H144 C163 0.949 . S
H145 C164 0.950 . S
H146 C166 0.950 . S
H147 C167 0.950 . S
H148 C169 0.950 . S
H149 C172 0.950 . S
H150 C173 0.950 . S
H151 C175 0.951 . S
H152 C176 0.949 . S
H153 C178 0.949 . S
H154 C179 0.950 . S
H155 C181 0.950 . S
H156 C182 0.950 . S
H157 C184 0.950 . S
H158 C187 0.950 . S
H159 C188 0.950 . S
H160 C190 0.951 . S
H161 C191 0.949 . S
C162 C163 1.376 . S
C162 C167 1.386 . S
C162 C168 1.483 . S
C163 H144 0.949 . S
C163 C162 1.376 . S
C163 C164 1.397 . S
C164 H145 0.950 . S
C164 C163 1.397 . S
C164 C165 1.391 . S
C165 C164 1.391 . S
C165 C166 1.405 . S
C166 H146 0.950 . S
C166 C165 1.405 . S
C166 C167 1.367 . S
C167 H147 0.950 . S
C167 C162 1.386 . S
C167 C166 1.367 . S
C168 C162 1.483 . S
C168 C169 1.382 . S
C168 C170 1.403 . S
C169 H148 0.950 . S
C169 C168 1.382 . S
C169 C185 1.411 1_565 S
C170 C168 1.403 . S
C170 C171 1.489 . S
C170 C184 1.411 1_565 S
C171 C170 1.489 . S
C171 C172 1.383 . S
C171 C176 1.382 . S
C172 H149 0.950 . S
C172 C171 1.383 . S
C172 C173 1.395 . S
C173 H150 0.950 . S
C173 C172 1.395 . S
C173 C174 1.288 . S
C174 C173 1.288 . S
C174 C175 1.392 . S
C175 H151 0.951 . S
C175 C174 1.392 . S
C175 C176 1.392 . S
C176 H152 0.949 . S
C176 C171 1.382 . S
C176 C175 1.392 . S
C177 C178 1.376 . S
C177 C182 1.386 . S
C177 C183 1.483 . S
C178 H153 0.949 . S
C178 C177 1.376 . S
C178 C179 1.397 . S
C179 H154 0.950 . S
C179 C178 1.397 . S
C179 C180 1.391 . S
C180 C179 1.391 . S
C180 C181 1.405 . S
C181 H155 0.950 . S
C181 C180 1.405 . S
C181 C182 1.367 . S
C182 H156 0.950 . S
C182 C177 1.386 . S
C182 C181 1.367 . S
C183 C177 1.483 . S
C183 C184 1.382 . S
C183 C185 1.403 . S
C184 H157 0.950 . S
C184 C170 1.411 1_545 S
C184 C183 1.382 . S
C185 C169 1.411 1_545 S
C185 C183 1.403 . S
C185 C186 1.489 . S
C186 C185 1.489 . S
C186 C187 1.383 . S
C186 C191 1.382 . S
C187 H158 0.950 . S
C187 C186 1.383 . S
C187 C188 1.395 . S
C188 H159 0.950 . S
C188 C187 1.395 . S
C188 C189 1.288 . S
C189 C188 1.288 . S
C189 C190 1.392 . S
C190 H160 0.951 . S
C190 C189 1.392 . S
C190 C191 1.392 . S
C191 H161 0.949 . S
C191 C186 1.382 . S
C191 C190 1.392 . S
H192 C211 0.949 . S
H193 C212 0.950 . S
H194 C214 0.950 . S
H195 C215 0.950 . S
H196 C217 0.950 . S
H197 C220 0.950 . S
H198 C221 0.950 . S
H199 C223 0.951 . S
H200 C224 0.949 . S
H201 C226 0.949 . S
H202 C227 0.950 . S
H203 C229 0.950 . S
H204 C230 0.950 . S
H205 C232 0.950 . S
H206 C235 0.950 . S
H207 C236 0.950 . S
H208 C238 0.951 . S
H209 C239 0.949 . S
C210 C211 1.376 . S
C210 C215 1.386 . S
C210 C216 1.483 . S
C211 H192 0.949 . S
C211 C210 1.376 . S
C211 C212 1.397 . S
C212 H193 0.950 . S
C212 C211 1.397 . S
C212 C213 1.391 . S
C213 C212 1.391 . S
C213 C214 1.405 . S
C214 H194 0.950 . S
C214 C213 1.405 . S
C214 C215 1.367 . S
C215 H195 0.950 . S
C215 C210 1.386 . S
C215 C214 1.367 . S
C216 C210 1.483 . S
C216 C217 1.382 1_455 S
C216 C218 1.403 . S
C217 H196 0.950 . S
C217 C216 1.382 1_655 S
C217 C233 1.411 . S
C218 C216 1.403 . S
C218 C219 1.489 . S
C218 C232 1.411 . S
C219 C218 1.489 . S
C219 C220 1.383 . S
C219 C224 1.382 . S
C220 H197 0.950 . S
C220 C219 1.383 . S
C220 C221 1.395 . S
C221 H198 0.950 . S
C221 C220 1.395 . S
C221 C222 1.288 . S
C222 C221 1.288 . S
C222 C223 1.392 . S
C223 H199 0.951 . S
C223 C222 1.392 . S
C223 C224 1.392 . S
C224 H200 0.949 . S
C224 C219 1.382 . S
C224 C223 1.392 . S
C225 C226 1.376 . S
C225 C230 1.386 . S
C225 C231 1.483 . S
C226 H201 0.949 . S
C226 C225 1.376 . S
C226 C227 1.397 . S
C227 H202 0.950 . S
C227 C226 1.397 . S
C227 C228 1.391 . S
C228 C227 1.391 . S
C228 C229 1.405 . S
C229 H203 0.950 . S
C229 C228 1.405 . S
C229 C230 1.367 . S
C230 H204 0.950 . S
C230 C225 1.386 . S
C230 C229 1.367 . S
C231 C225 1.483 . S
C231 C232 1.382 1_655 S
C231 C233 1.403 . S
C232 H205 0.950 . S
C232 C218 1.411 . S
C232 C231 1.382 1_455 S
C233 C217 1.411 . S
C233 C231 1.403 . S
C233 C234 1.489 . S
C234 C233 1.489 . S
C234 C235 1.383 . S
C234 C239 1.382 . S
C235 H206 0.950 . S
C235 C234 1.383 . S
C235 C236 1.395 . S
C236 H207 0.950 . S
C236 C235 1.395 . S
C236 C237 1.288 . S
C237 C236 1.288 . S
C237 C238 1.392 . S
C238 H208 0.951 . S
C238 C237 1.392 . S
C238 C239 1.392 . S
C239 H209 0.949 . S
C239 C234 1.382 . S
C239 C238 1.392 . S
H240 C259 0.949 . S
H241 C260 0.950 . S
H242 C262 0.950 . S
H243 C263 0.950 . S
H244 C265 0.950 . S
H245 C268 0.950 . S
H246 C269 0.950 . S
H247 C271 0.951 . S
H248 C272 0.949 . S
H249 C274 0.949 . S
H250 C275 0.950 . S
H251 C277 0.950 . S
H252 C278 0.950 . S
H253 C280 0.950 . S
H254 C283 0.950 . S
H255 C284 0.950 . S
H256 C286 0.951 . S
H257 C287 0.949 . S
C258 C259 1.376 . S
C258 C263 1.386 . S
C258 C264 1.483 . S
C259 H240 0.949 . S
C259 C258 1.376 . S
C259 C260 1.397 . S
C260 H241 0.950 . S
C260 C259 1.397 . S
C260 C261 1.391 . S
C261 C260 1.391 . S
C261 C262 1.405 . S
C262 H242 0.950 . S
C262 C261 1.405 . S
C262 C263 1.367 . S
C263 H243 0.950 . S
C263 C258 1.386 . S
C263 C262 1.367 . S
C264 C258 1.483 . S
C264 C265 1.382 . S
C264 C266 1.403 . S
C265 H244 0.950 . S
C265 C264 1.382 . S
C265 C281 1.411 . S
C266 C264 1.403 . S
C266 C267 1.489 . S
C266 C280 1.411 . S
C267 C266 1.489 . S
C267 C268 1.383 . S
C267 C272 1.382 . S
C268 H245 0.950 . S
C268 C267 1.383 . S
C268 C269 1.395 . S
C269 H246 0.950 . S
C269 C268 1.395 . S
C269 C270 1.288 . S
C270 C269 1.288 . S
C270 C271 1.392 . S
C271 H247 0.951 . S
C271 C270 1.392 . S
C271 C272 1.392 . S
C272 H248 0.949 . S
C272 C267 1.382 . S
C272 C271 1.392 . S
C273 C274 1.376 . S
C273 C278 1.386 . S
C273 C279 1.483 . S
C274 H249 0.949 . S
C274 C273 1.376 . S
C274 C275 1.397 . S
C275 H250 0.950 . S
C275 C274 1.397 . S
C275 C276 1.391 . S
C276 C275 1.391 . S
C276 C277 1.405 . S
C277 H251 0.950 . S
C277 C276 1.405 . S
C277 C278 1.367 . S
C278 H252 0.950 . S
C278 C273 1.386 . S
C278 C277 1.367 . S
C279 C273 1.483 . S
C279 C280 1.382 . S
C279 C281 1.403 . S
C280 H253 0.950 . S
C280 C266 1.411 . S
C280 C279 1.382 . S
C281 C265 1.411 . S
C281 C279 1.403 . S
C281 C282 1.489 . S
C282 C281 1.489 . S
C282 C283 1.383 . S
C282 C287 1.382 . S
C283 H254 0.950 . S
C283 C282 1.383 . S
C283 C284 1.395 . S
C284 H255 0.950 . S
C284 C283 1.395 . S
C284 C285 1.288 . S
C285 C284 1.288 . S
C285 C286 1.392 . S
C286 H256 0.951 . S
C286 C285 1.392 . S
C286 C287 1.392 . S
C287 H257 0.949 . S
C287 C282 1.382 . S
C287 C286 1.392 . S
H288 C307 0.949 . S
H289 C308 0.950 . S
H290 C310 0.950 . S
H291 C311 0.950 . S
H292 C313 0.950 . S
H293 C316 0.950 . S
H294 C317 0.950 . S
H295 C319 0.951 . S
H296 C320 0.949 1_545 S
H297 C322 0.949 . S
H298 C323 0.950 . S
H299 C325 0.950 . S
H300 C326 0.950 . S
H301 C328 0.950 . S
H302 C331 0.950 . S
H303 C332 0.950 . S
H304 C334 0.951 . S
H305 C335 0.949 1_565 S
C306 C307 1.376 . S
C306 C311 1.386 . S
C306 C312 1.483 . S
C307 H288 0.949 . S
C307 C306 1.376 . S
C307 C308 1.397 . S
C308 H289 0.950 . S
C308 C307 1.397 . S
C308 C309 1.391 . S
C309 C308 1.391 . S
C309 C310 1.405 . S
C310 H290 0.950 . S
C310 C309 1.405 . S
C310 C311 1.367 . S
C311 H291 0.950 . S
C311 C306 1.386 . S
C311 C310 1.367 . S
C312 C306 1.483 . S
C312 C313 1.382 . S
C312 C314 1.403 . S
C313 H292 0.950 . S
C313 C312 1.382 . S
C313 C329 1.411 1_565 S
C314 C312 1.403 . S
C314 C315 1.489 . S
C314 C328 1.411 1_565 S
C315 C314 1.489 . S
C315 C316 1.383 . S
C315 C320 1.382 . S
C316 H293 0.950 . S
C316 C315 1.383 . S
C316 C317 1.395 . S
C317 H294 0.950 . S
C317 C316 1.395 . S
C317 C318 1.288 . S
C318 C317 1.288 . S
C318 C319 1.392 . S
C319 H295 0.951 . S
C319 C318 1.392 . S
C319 C320 1.392 . S
C320 H296 0.949 1_565 S
C320 C315 1.382 . S
C320 C319 1.392 . S
C321 C322 1.376 . S
C321 C326 1.386 . S
C321 C327 1.483 . S
C322 H297 0.949 . S
C322 C321 1.376 . S
C322 C323 1.397 . S
C323 H298 0.950 . S
C323 C322 1.397 . S
C323 C324 1.391 . S
C324 C323 1.391 . S
C324 C325 1.405 . S
C325 H299 0.950 . S
C325 C324 1.405 . S
C325 C326 1.367 . S
C326 H300 0.950 . S
C326 C321 1.386 . S
C326 C325 1.367 . S
C327 C321 1.483 . S
C327 C328 1.382 . S
C327 C329 1.403 . S
C328 H301 0.950 . S
C328 C314 1.411 1_545 S
C328 C327 1.382 . S
C329 C313 1.411 1_545 S
C329 C327 1.403 . S
C329 C330 1.489 . S
C330 C329 1.489 . S
C330 C331 1.383 . S
C330 C335 1.382 . S
C331 H302 0.950 . S
C331 C330 1.383 . S
C331 C332 1.395 . S
C332 H303 0.950 . S
C332 C331 1.395 . S
C332 C333 1.288 . S
C333 C332 1.288 . S
C333 C334 1.392 . S
C334 H304 0.951 . S
C334 C333 1.392 . S
C334 C335 1.392 . S
C335 H305 0.949 1_545 S
C335 C330 1.382 . S
C335 C334 1.392 . S
H336 C355 0.949 . S
H337 C356 0.950 1_455 S
H338 C358 0.950 . S
H339 C359 0.950 . S
H340 C361 0.950 . S
H341 C364 0.950 . S
H342 C365 0.950 . S
H343 C367 0.951 . S
H344 C368 0.949 . S
H345 C370 0.949 . S
H346 C371 0.950 . S
H347 C373 0.950 . S
H348 C374 0.950 1_545 S
H349 C376 0.950 . S
H350 C379 0.950 . S
H351 C380 0.950 . S
H352 C382 0.951 . S
H353 C383 0.949 . S
C354 C355 1.376 1_655 S
C354 C359 1.386 . S
C354 C360 1.483 1_655 S
C355 H336 0.949 . S
C355 C354 1.376 1_455 S
C355 C356 1.397 1_455 S
C356 H337 0.950 1_655 S
C356 C355 1.397 1_655 S
C356 C357 1.391 . S
C357 C356 1.391 . S
C357 C358 1.405 . S
C358 H338 0.950 . S
C358 C357 1.405 . S
C358 C359 1.367 . S
C359 H339 0.950 . S
C359 C354 1.386 . S
C359 C358 1.367 . S
C360 C354 1.483 1_455 S
C360 C361 1.382 . S
C360 C362 1.403 . S
C361 H340 0.950 . S
C361 C360 1.382 . S
C361 C377 1.411 . S
C362 C360 1.403 . S
C362 C363 1.489 1_455 S
C362 C376 1.411 . S
C363 C362 1.489 1_655 S
C363 C364 1.383 1_655 S
C363 C368 1.382 . S
C364 H341 0.950 . S
C364 C363 1.383 1_455 S
C364 C365 1.395 1_455 S
C365 H342 0.950 . S
C365 C364 1.395 1_655 S
C365 C366 1.288 . S
C366 C365 1.288 . S
C366 C367 1.392 . S
C367 H343 0.951 . S
C367 C366 1.392 . S
C367 C368 1.392 . S
C368 H344 0.949 . S
C368 C363 1.382 . S
C368 C367 1.392 . S
C369 C370 1.376 . S
C369 C374 1.386 . S
C369 C375 1.483 1_565 S
C370 H345 0.949 . S
C370 C369 1.376 . S
C370 C371 1.397 . S
C371 H346 0.950 . S
C371 C370 1.397 . S
C371 C372 1.391 . S
C372 C371 1.391 . S
C372 C373 1.405 . S
C373 H347 0.950 . S
C373 C372 1.405 . S
C373 C374 1.367 . S
C374 H348 0.950 1_565 S
C374 C369 1.386 . S
C374 C373 1.367 . S
C375 C369 1.483 1_545 S
C375 C376 1.382 . S
C375 C377 1.403 . S
C376 H349 0.950 . S
C376 C362 1.411 . S
C376 C375 1.382 . S
C377 C361 1.411 . S
C377 C375 1.403 . S
C377 C378 1.489 1_545 S
C378 C377 1.489 1_565 S
C378 C379 1.383 . S
C378 C383 1.382 1_565 S
C379 H350 0.950 . S
C379 C378 1.383 . S
C379 C380 1.395 . S
C380 H351 0.950 . S
C380 C379 1.395 . S
C380 C381 1.288 . S
C381 C380 1.288 . S
C381 C382 1.392 . S
C382 H352 0.951 . S
C382 C381 1.392 . S
C382 C383 1.392 1_565 S
C383 H353 0.949 . S
C383 C378 1.382 1_545 S
C383 C382 1.392 1_545 S
Zn384 O387 2.031 . S
Zn384 O389 2.049 . S
Zn384 O394 2.067 . S
Zn385 O386 1.962 . S
Zn385 O388 1.986 . S
Zn385 O390 1.996 . S
Zn385 O393 1.943 1_554 S
O386 Zn385 1.962 . S
O386 C391 1.254 . S
O387 Zn384 2.031 . S
O387 C391 1.269 1_556 S
O388 Zn385 1.986 . S
O388 C395 1.262 . S
O389 Zn384 2.049 . S
O389 C397 1.260 1_556 S
O390 Zn385 1.996 . S
O390 C397 1.257 . S
C391 O386 1.254 . S
C391 O387 1.269 1_554 S
C392 O393 1.249 . S
C392 O394 1.270 . S
O393 Zn385 1.943 1_556 S
O393 C392 1.249 . S
O394 Zn384 2.067 . S
O394 C392 1.270 . S
C395 O388 1.262 . S
C395 O396 1.232 . S
O396 C395 1.232 . S
C397 O389 1.260 1_554 S
C397 O390 1.257 . S
Zn398 O401 2.031 . S
Zn398 O403 2.049 . S
Zn398 O408 2.067 . S
Zn399 O400 1.962 . S
Zn399 O402 1.986 . S
Zn399 O404 1.996 . S
Zn399 O407 1.943 . S
O400 Zn399 1.962 . S
O400 C405 1.254 . S
O401 Zn398 2.031 . S
O401 C405 1.269 . S
O402 Zn399 1.986 . S
O402 C409 1.262 . S
O403 Zn398 2.049 . S
O403 C411 1.260 . S
O404 Zn399 1.996 . S
O404 C411 1.257 . S
C405 O400 1.254 . S
C405 O401 1.269 . S
C406 O407 1.249 . S
C406 O408 1.270 . S
O407 Zn399 1.943 . S
O407 C406 1.249 . S
O408 Zn398 2.067 . S
O408 C406 1.270 . S
C409 O402 1.262 . S
C409 O410 1.232 . S
O410 C409 1.232 . S
C411 O403 1.260 . S
C411 O404 1.257 . S
Zn412 O415 2.031 . S
Zn412 O417 2.049 . S
Zn412 O422 2.067 . S
Zn413 O414 1.962 . S
Zn413 O416 1.986 . S
Zn413 O418 1.996 . S
Zn413 O421 1.943 . S
O414 Zn413 1.962 . S
O414 C419 1.254 . S
O415 Zn412 2.031 . S
O415 C419 1.269 . S
O416 Zn413 1.986 . S
O416 C423 1.262 . S
O417 Zn412 2.049 . S
O417 C425 1.260 . S
O418 Zn413 1.996 . S
O418 C425 1.257 . S
C419 O414 1.254 . S
C419 O415 1.269 . S
C420 O421 1.249 . S
C420 O422 1.270 . S
O421 Zn413 1.943 . S
O421 C420 1.249 . S
O422 Zn412 2.067 . S
O422 C420 1.270 . S
C423 O416 1.262 . S
C423 O424 1.232 . S
O424 C423 1.232 . S
C425 O417 1.260 . S
C425 O418 1.257 . S
Zn426 O429 2.031 . S
Zn426 O431 2.049 . S
Zn426 O436 2.067 . S
Zn427 O428 1.962 . S
Zn427 O430 1.986 . S
Zn427 O432 1.996 . S
Zn427 O435 1.943 . S
O428 Zn427 1.962 . S
O428 C433 1.254 . S
O429 Zn426 2.031 . S
O429 C433 1.269 . S
O430 Zn427 1.986 . S
O430 C437 1.262 . S
O431 Zn426 2.049 . S
O431 C439 1.260 . S
O432 Zn427 1.996 . S
O432 C439 1.257 . S
C433 O428 1.254 . S
C433 O429 1.269 . S
C434 O435 1.249 . S
C434 O436 1.270 . S
O435 Zn427 1.943 . S
O435 C434 1.249 . S
O436 Zn426 2.067 . S
O436 C434 1.270 . S
C437 O430 1.262 . S
C437 O438 1.232 . S
O438 C437 1.232 . S
C439 O431 1.260 . S
C439 O432 1.257 . S
Zn440 O443 2.031 . S
Zn440 O445 2.049 . S
Zn440 O450 2.067 . S
Zn441 O442 1.962 . S
Zn441 O444 1.986 . S
Zn441 O446 1.996 . S
Zn441 O449 1.943 . S
O442 Zn441 1.962 . S
O442 C447 1.254 . S
O443 Zn440 2.031 . S
O443 C447 1.269 . S
O444 Zn441 1.986 . S
O444 C451 1.262 . S
O445 Zn440 2.049 . S
O445 C453 1.260 . S
O446 Zn441 1.996 . S
O446 C453 1.257 . S
C447 O442 1.254 . S
C447 O443 1.269 . S
C448 O449 1.249 . S
C448 O450 1.270 . S
O449 Zn441 1.943 . S
O449 C448 1.249 . S
O450 Zn440 2.067 . S
O450 C448 1.270 . S
C451 O444 1.262 . S
C451 O452 1.232 . S
O452 C451 1.232 . S
C453 O445 1.260 . S
C453 O446 1.257 . S
Zn454 O457 2.031 . S
Zn454 O459 2.049 . S
Zn454 O464 2.067 . S
Zn455 O456 1.962 . S
Zn455 O458 1.986 . S
Zn455 O460 1.996 . S
Zn455 O463 1.943 . S
O456 Zn455 1.962 . S
O456 C461 1.254 . S
O457 Zn454 2.031 . S
O457 C461 1.269 . S
O458 Zn455 1.986 . S
O458 C465 1.262 . S
O459 Zn454 2.049 . S
O459 C467 1.260 . S
O460 Zn455 1.996 . S
O460 C467 1.257 . S
C461 O456 1.254 . S
C461 O457 1.269 . S
C462 O463 1.249 . S
C462 O464 1.270 . S
O463 Zn455 1.943 . S
O463 C462 1.249 . S
O464 Zn454 2.067 . S
O464 C462 1.270 . S
C465 O458 1.262 . S
C465 O466 1.232 . S
O466 C465 1.232 . S
C467 O459 1.260 . S
C467 O460 1.257 . S
Zn468 O471 2.031 . S
Zn468 O473 2.049 . S
Zn468 O478 2.067 . S
Zn469 O470 1.962 . S
Zn469 O472 1.986 . S
Zn469 O474 1.996 . S
Zn469 O477 1.943 1_556 S
O470 Zn469 1.962 . S
O470 C475 1.254 1_556 S
O471 Zn468 2.031 . S
O471 C475 1.269 . S
O472 Zn469 1.986 . S
O472 C479 1.262 . S
O473 Zn468 2.049 . S
O473 C481 1.260 . S
O474 Zn469 1.996 . S
O474 C481 1.257 1_556 S
C475 O470 1.254 1_554 S
C475 O471 1.269 . S
C476 O477 1.249 . S
C476 O478 1.270 . S
O477 Zn469 1.943 1_554 S
O477 C476 1.249 . S
O478 Zn468 2.067 . S
O478 C476 1.270 . S
C479 O472 1.262 . S
C479 O480 1.232 . S
O480 C479 1.232 . S
C481 O473 1.260 . S
C481 O474 1.257 1_554 S
Zn482 O485 2.031 . S
Zn482 O487 2.049 . S
Zn482 O492 2.067 . S
Zn483 O484 1.962 . S
Zn483 O486 1.986 . S
Zn483 O488 1.996 . S
Zn483 O491 1.943 . S
O484 Zn483 1.962 . S
O484 C489 1.254 . S
O485 Zn482 2.031 . S
O485 C489 1.269 . S
O486 Zn483 1.986 . S
O486 C493 1.262 . S
O487 Zn482 2.049 . S
O487 C495 1.260 . S
O488 Zn483 1.996 . S
O488 C495 1.257 . S
C489 O484 1.254 . S
C489 O485 1.269 . S
C490 O491 1.249 . S
C490 O492 1.270 . S
O491 Zn483 1.943 . S
O491 C490 1.249 . S
O492 Zn482 2.067 . S
O492 C490 1.270 . S
C493 O486 1.262 . S
C493 O494 1.232 . S
O494 C493 1.232 . S
C495 O487 1.260 . S
C495 O488 1.257 . S
H496 C502 0.930 . S
H497 C505 0.930 . S
H498 C506 0.930 . S
H499 C507 0.930 . S
H500 C510 0.930 . S
H501 C511 0.930 . S
C502 H496 0.930 . S
C502 C503 1.355 . S
C502 C504 1.415 . S
C503 C502 1.355 . S
C503 C505 1.419 . S
C504 C502 1.415 . S
C504 C509 1.425 . S
C504 C511 1.409 . S
C505 H497 0.930 . S
C505 C503 1.419 . S
C505 C506 1.362 . S
C506 H498 0.930 . S
C506 C505 1.362 . S
C506 C509 1.409 . S
C507 H499 0.930 . S
C507 C508 1.355 . S
C507 C509 1.415 . S
C508 C507 1.355 . S
C508 C510 1.419 . S
C509 C504 1.425 . S
C509 C506 1.409 . S
C509 C507 1.415 . S
C510 H500 0.930 . S
C510 C508 1.419 . S
C510 C511 1.362 . S
C511 H501 0.930 . S
C511 C504 1.409 . S
C511 C510 1.362 . S
H512 C518 0.930 . S
H513 C521 0.930 . S
H514 C522 0.930 . S
H515 C523 0.930 . S
H516 C526 0.930 . S
H517 C527 0.930 . S
C518 H512 0.930 . S
C518 C519 1.355 . S
C518 C520 1.415 . S
C519 C518 1.355 . S
C519 C521 1.419 . S
C520 C518 1.415 . S
C520 C525 1.425 . S
C520 C527 1.409 . S
C521 H513 0.930 . S
C521 C519 1.419 . S
C521 C522 1.362 . S
C522 H514 0.930 . S
C522 C521 1.362 . S
C522 C525 1.409 . S
C523 H515 0.930 . S
C523 C524 1.355 . S
C523 C525 1.415 . S
C524 C523 1.355 . S
C524 C526 1.419 . S
C525 C520 1.425 . S
C525 C522 1.409 . S
C525 C523 1.415 . S
C526 H516 0.930 . S
C526 C524 1.419 . S
C526 C527 1.362 . S
C527 H517 0.930 . S
C527 C520 1.409 . S
C527 C526 1.362 . S
H528 C534 0.930 . S
H529 C537 0.930 . S
H530 C538 0.930 . S
H531 C539 0.930 . S
H532 C542 0.930 . S
H533 C543 0.930 . S
C534 H528 0.930 . S
C534 C535 1.355 . S
C534 C536 1.415 . S
C535 C534 1.355 . S
C535 C537 1.419 . S
C536 C534 1.415 . S
C536 C541 1.425 . S
C536 C543 1.409 . S
C537 H529 0.930 . S
C537 C535 1.419 . S
C537 C538 1.362 . S
C538 H530 0.930 . S
C538 C537 1.362 . S
C538 C541 1.409 . S
C539 H531 0.930 . S
C539 C540 1.355 . S
C539 C541 1.415 . S
C540 C539 1.355 . S
C540 C542 1.419 . S
C541 C536 1.425 . S
C541 C538 1.409 . S
C541 C539 1.415 . S
C542 H532 0.930 . S
C542 C540 1.419 . S
C542 C543 1.362 . S
C543 H533 0.930 . S
C543 C536 1.409 . S
C543 C542 1.362 . S
H544 C550 0.930 . S
H545 C553 0.930 . S
H546 C554 0.930 . S
H547 C555 0.930 . S
H548 C558 0.930 . S
H549 C559 0.930 . S
C550 H544 0.930 . S
C550 C551 1.355 . S
C550 C552 1.415 . S
C551 C550 1.355 . S
C551 C553 1.419 . S
C552 C550 1.415 . S
C552 C557 1.425 . S
C552 C559 1.409 . S
C553 H545 0.930 . S
C553 C551 1.419 . S
C553 C554 1.362 . S
C554 H546 0.930 . S
C554 C553 1.362 . S
C554 C557 1.409 . S
C555 H547 0.930 . S
C555 C556 1.355 . S
C555 C557 1.415 . S
C556 C555 1.355 . S
C556 C558 1.419 . S
C557 C552 1.425 . S
C557 C554 1.409 . S
C557 C555 1.415 . S
C558 H548 0.930 . S
C558 C556 1.419 . S
C558 C559 1.362 . S
C559 H549 0.930 . S
C559 C552 1.409 . S
C559 C558 1.362 . S
H560 C566 0.930 . S
H561 C569 0.930 . S
H562 C570 0.930 . S
H563 C571 0.930 . S
H564 C574 0.930 . S
H565 C575 0.930 . S
C566 H560 0.930 . S
C566 C567 1.355 1_554 S
C566 C568 1.415 . S
C567 C566 1.355 1_556 S
C567 C569 1.419 . S
C568 C566 1.415 . S
C568 C573 1.425 1_554 S
C568 C575 1.409 . S
C569 H561 0.930 . S
C569 C567 1.419 . S
C569 C570 1.362 . S
C570 H562 0.930 . S
C570 C569 1.362 . S
C570 C573 1.409 . S
C571 H563 0.930 . S
C571 C572 1.344 1_556 S
C571 C573 1.415 . S
C572 C571 1.344 1_554 S
C572 C574 1.432 . S
C573 C568 1.425 1_556 S
C573 C570 1.409 . S
C573 C571 1.415 . S
C574 H564 0.930 . S
C574 C572 1.432 . S
C574 C575 1.362 . S
C575 H565 0.930 . S
C575 C568 1.409 . S
C575 C574 1.362 . S
H576 C582 0.930 . S
H577 C585 0.930 . S
H578 C586 0.930 . S
H579 C587 0.930 . S
H580 C590 0.930 . S
H581 C591 0.930 . S
C582 H576 0.930 . S
C582 C583 1.355 . S
C582 C584 1.415 . S
C583 C582 1.355 . S
C583 C585 1.419 . S
C584 C582 1.415 . S
C584 C589 1.425 . S
C584 C591 1.409 . S
C585 H577 0.930 . S
C585 C583 1.419 . S
C585 C586 1.362 . S
C586 H578 0.930 . S
C586 C585 1.362 . S
C586 C589 1.409 . S
C587 H579 0.930 . S
C587 C588 1.355 . S
C587 C589 1.415 . S
C588 C587 1.355 . S
C588 C590 1.419 . S
C589 C584 1.425 . S
C589 C586 1.409 . S
C589 C587 1.415 . S
C590 H580 0.930 . S
C590 C588 1.419 . S
C590 C591 1.362 . S
C591 H581 0.930 . S
C591 C584 1.409 . S
C591 C590 1.362 . S
H592 C598 0.930 . S
H593 C601 0.930 . S
H594 C602 0.930 . S
H595 C603 0.930 . S
H596 C606 0.930 . S
H597 C607 0.930 . S
C598 H592 0.930 . S
C598 C599 1.355 . S
C598 C600 1.415 . S
C599 C598 1.355 . S
C599 C601 1.419 . S
C600 C598 1.415 . S
C600 C605 1.425 . S
C600 C607 1.409 . S
C601 H593 0.930 . S
C601 C599 1.419 . S
C601 C602 1.362 . S
C602 H594 0.930 . S
C602 C601 1.362 . S
C602 C605 1.409 . S
C603 H595 0.930 . S
C603 C604 1.355 . S
C603 C605 1.415 . S
C604 C603 1.355 . S
C604 C606 1.419 . S
C605 C600 1.425 . S
C605 C602 1.409 . S
C605 C603 1.415 . S
C606 H596 0.930 . S
C606 C604 1.419 . S
C606 C607 1.362 . S
C607 H597 0.930 . S
C607 C600 1.409 . S
C607 C606 1.362 . S
H608 C614 0.930 . S
H609 C617 0.930 . S
H610 C618 0.930 . S
H611 C619 0.930 . S
H612 C622 0.930 . S
H613 C623 0.930 . S
C614 H608 0.930 . S
C614 C615 1.355 . S
C614 C616 1.415 . S
C615 C614 1.355 . S
C615 C617 1.419 . S
C616 C614 1.415 . S
C616 C621 1.425 . S
C616 C623 1.409 . S
C617 H609 0.930 . S
C617 C615 1.419 . S
C617 C618 1.362 . S
C618 H610 0.930 . S
C618 C617 1.362 . S
C618 C621 1.409 . S
C619 H611 0.930 . S
C619 C620 1.355 . S
C619 C621 1.415 . S
C620 C619 1.355 . S
C620 C622 1.419 . S
C621 C616 1.425 . S
C621 C618 1.409 . S
C621 C619 1.415 . S
C622 H612 0.930 . S
C622 C620 1.419 . S
C622 C623 1.362 . S
C623 H613 0.930 . S
C623 C616 1.409 . S
C623 C622 1.362 . S
H624 C630 0.930 . S
H625 C633 0.930 . S
H626 C634 0.930 . S
H627 C635 0.930 . S
H628 C638 0.930 . S
H629 C639 0.930 . S
C630 H624 0.930 . S
C630 C631 1.355 . S
C630 C632 1.415 . S
C631 C630 1.355 . S
C631 C633 1.419 . S
C632 C630 1.415 . S
C632 C637 1.425 . S
C632 C639 1.409 . S
C633 H625 0.930 . S
C633 C631 1.419 . S
C633 C634 1.362 . S
C634 H626 0.930 . S
C634 C633 1.362 . S
C634 C637 1.409 . S
C635 H627 0.930 . S
C635 C636 1.355 . S
C635 C637 1.415 . S
C636 C635 1.355 . S
C636 C638 1.419 . S
C637 C632 1.425 . S
C637 C634 1.409 . S
C637 C635 1.415 . S
C638 H628 0.930 . S
C638 C636 1.419 . S
C638 C639 1.362 . S
C639 H629 0.930 . S
C639 C632 1.409 . S
C639 C638 1.362 . S
H640 C646 0.930 . S
H641 C649 0.930 . S
H642 C650 0.930 1_556 S
H643 C651 0.930 1_556 S
H644 C654 0.930 . S
H645 C655 0.930 . S
C646 H640 0.930 . S
C646 C647 1.355 . S
C646 C648 1.415 . S
C647 C646 1.355 . S
C647 C649 1.419 . S
C648 C646 1.415 . S
C648 C653 1.425 . S
C648 C655 1.409 . S
C649 H641 0.930 . S
C649 C647 1.419 . S
C649 C650 1.362 . S
C650 H642 0.930 1_554 S
C650 C649 1.362 . S
C650 C653 1.409 . S
C651 H643 0.930 1_554 S
C651 C652 1.355 . S
C651 C653 1.415 . S
C652 C651 1.355 . S
C652 C654 1.419 . S
C653 C648 1.425 . S
C653 C650 1.409 . S
C653 C651 1.415 . S
C654 H644 0.930 . S
C654 C652 1.419 . S
C654 C655 1.362 . S
C655 H645 0.930 . S
C655 C648 1.409 . S
C655 C654 1.362 . S
H656 C662 0.930 . S
H657 C665 0.930 . S
H658 C666 0.930 . S
H659 C667 0.930 . S
H660 C670 0.930 . S
H661 C671 0.930 . S
C662 H656 0.930 . S
C662 C663 1.355 . S
C662 C664 1.415 . S
C663 C662 1.355 . S
C663 C665 1.419 . S
C664 C662 1.415 . S
C664 C669 1.425 . S
C664 C671 1.409 . S
C665 H657 0.930 . S
C665 C663 1.419 . S
C665 C666 1.362 . S
C666 H658 0.930 . S
C666 C665 1.362 . S
C666 C669 1.409 . S
C667 H659 0.930 . S
C667 C668 1.355 . S
C667 C669 1.415 . S
C668 C667 1.355 . S
C668 C670 1.419 . S
C669 C664 1.425 . S
C669 C666 1.409 . S
C669 C667 1.415 . S
C670 H660 0.930 . S
C670 C668 1.419 . S
C670 C671 1.362 . S
C671 H661 0.930 . S
C671 C664 1.409 . S
C671 C670 1.362 . S
H672 C678 0.930 . S
H673 C681 0.930 . S
H674 C682 0.930 . S
H675 C683 0.930 . S
H676 C686 0.930 . S
H677 C687 0.930 . S
C678 H672 0.930 . S
C678 C679 1.355 . S
C678 C680 1.415 . S
C679 C678 1.355 . S
C679 C681 1.419 . S
C680 C678 1.415 . S
C680 C685 1.425 . S
C680 C687 1.409 . S
C681 H673 0.930 . S
C681 C679 1.419 . S
C681 C682 1.362 . S
C682 H674 0.930 . S
C682 C681 1.362 . S
C682 C685 1.409 . S
C683 H675 0.930 . S
C683 C684 1.355 . S
C683 C685 1.415 . S
C684 C683 1.355 . S
C684 C686 1.419 . S
C685 C680 1.425 . S
C685 C682 1.409 . S
C685 C683 1.415 . S
C686 H676 0.930 . S
C686 C684 1.419 . S
C686 C687 1.362 . S
C687 H677 0.930 . S
C687 C680 1.409 . S
C687 C686 1.362 . S
H688 C694 0.930 . S
H689 C697 0.930 . S
H690 C698 0.930 . S
H691 C699 0.930 . S
H692 C702 0.930 . S
H693 C703 0.930 . S
C694 H688 0.930 . S
C694 C695 1.355 . S
C694 C696 1.415 . S
C695 C694 1.355 . S
C695 C697 1.419 . S
C696 C694 1.415 . S
C696 C701 1.425 . S
C696 C703 1.409 . S
C697 H689 0.930 . S
C697 C695 1.419 . S
C697 C698 1.362 . S
C698 H690 0.930 . S
C698 C697 1.362 . S
C698 C701 1.409 . S
C699 H691 0.930 . S
C699 C700 1.355 . S
C699 C701 1.415 . S
C700 C699 1.355 . S
C700 C702 1.419 . S
C701 C696 1.425 . S
C701 C698 1.409 . S
C701 C699 1.415 . S
C702 H692 0.930 . S
C702 C700 1.419 . S
C702 C703 1.362 . S
C703 H693 0.930 . S
C703 C696 1.409 . S
C703 C702 1.362 . S
H704 C710 0.930 . S
H705 C713 0.930 . S
H706 C714 0.930 . S
H707 C715 0.930 . S
H708 C718 0.930 . S
H709 C719 0.930 . S
C710 H704 0.930 . S
C710 C711 1.355 . S
C710 C712 1.415 . S
C711 C710 1.355 . S
C711 C713 1.419 . S
C712 C710 1.415 . S
C712 C717 1.425 . S
C712 C719 1.409 . S
C713 H705 0.930 . S
C713 C711 1.419 . S
C713 C714 1.362 . S
C714 H706 0.930 . S
C714 C713 1.362 . S
C714 C717 1.409 . S
C715 H707 0.930 . S
C715 C716 1.355 . S
C715 C717 1.415 . S
C716 C715 1.355 . S
C716 C718 1.419 . S
C717 C712 1.425 . S
C717 C714 1.409 . S
C717 C715 1.415 . S
C718 H708 0.930 . S
C718 C716 1.419 . S
C718 C719 1.362 . S
C719 H709 0.930 . S
C719 C712 1.409 . S
C719 C718 1.362 . S
H720 C726 0.930 . S
H721 C729 0.942 . S
H722 C730 0.930 . S
H723 C731 0.925 1_554 S
H724 C734 0.930 . S
H725 C735 0.930 . S
C726 H720 0.930 . S
C726 C727 1.355 . S
C726 C728 1.415 . S
C727 C726 1.355 . S
C727 C729 1.400 1_556 S
C728 C726 1.415 . S
C728 C733 1.425 . S
C728 C735 1.409 . S
C729 H721 0.942 . S
C729 C727 1.400 1_554 S
C729 C730 1.370 . S
C730 H722 0.930 . S
C730 C729 1.370 . S
C730 C733 1.409 1_554 S
C731 H723 0.925 1_556 S
C731 C732 1.357 . S
C731 C733 1.416 . S
C732 C731 1.357 . S
C732 C734 1.419 . S
C733 C728 1.425 . S
C733 C730 1.409 1_556 S
C733 C731 1.416 . S
C734 H724 0.930 . S
C734 C732 1.419 . S
C734 C735 1.362 . S
C735 H725 0.930 . S
C735 C728 1.409 . S
C735 C734 1.362 . S
H736 C742 0.930 . S
H737 C745 0.930 . S
H738 C746 0.930 . S
H739 C747 0.930 . S
H740 C750 0.930 . S
H741 C751 0.930 . S
C742 H736 0.930 . S
C742 C743 1.355 . S
C742 C744 1.415 . S
C743 C742 1.355 . S
C743 C745 1.419 . S
C744 C742 1.415 . S
C744 C749 1.425 . S
C744 C751 1.409 . S
C745 H737 0.930 . S
C745 C743 1.419 . S
C745 C746 1.362 . S
C746 H738 0.930 . S
C746 C745 1.362 . S
C746 C749 1.409 . S
C747 H739 0.930 . S
C747 C748 1.355 . S
C747 C749 1.415 . S
C748 C747 1.355 . S
C748 C750 1.419 . S
C749 C744 1.425 . S
C749 C746 1.409 . S
C749 C747 1.415 . S
C750 H740 0.930 . S
C750 C748 1.419 . S
C750 C751 1.362 . S
C751 H741 0.930 . S
C751 C744 1.409 . S
C751 C750 1.362 . S
H752 C758 0.930 . S
H753 C761 0.930 . S
H754 C762 0.930 . S
H755 C763 0.930 . S
H756 C766 0.930 . S
H757 C767 0.930 . S
C758 H752 0.930 . S
C758 C759 1.355 . S
C758 C760 1.415 . S
C759 C758 1.355 . S
C759 C761 1.419 . S
C760 C758 1.415 . S
C760 C765 1.425 . S
C760 C767 1.409 . S
C761 H753 0.930 . S
C761 C759 1.419 . S
C761 C762 1.362 . S
C762 H754 0.930 . S
C762 C761 1.362 . S
C762 C765 1.409 . S
C763 H755 0.930 . S
C763 C764 1.355 . S
C763 C765 1.415 . S
C764 C763 1.355 . S
C764 C766 1.419 . S
C765 C760 1.425 . S
C765 C762 1.409 . S
C765 C763 1.415 . S
C766 H756 0.930 . S
C766 C764 1.419 . S
C766 C767 1.362 . S
C767 H757 0.930 . S
C767 C760 1.409 . S
C767 C766 1.362 . S
H768 C774 0.930 . S
H769 C777 0.930 . S
H770 C778 0.930 . S
H771 C779 0.930 . S
H772 C782 0.930 . S
H773 C783 0.930 . S
C774 H768 0.930 . S
C774 C775 1.355 . S
C774 C776 1.415 . S
C775 C774 1.355 . S
C775 C777 1.419 . S
C776 C774 1.415 . S
C776 C781 1.425 . S
C776 C783 1.409 . S
C777 H769 0.930 . S
C777 C775 1.419 . S
C777 C778 1.362 . S
C778 H770 0.930 . S
C778 C777 1.362 . S
C778 C781 1.409 . S
C779 H771 0.930 . S
C779 C780 1.355 . S
C779 C781 1.415 . S
C780 C779 1.355 . S
C780 C782 1.419 . S
C781 C776 1.425 . S
C781 C778 1.409 . S
C781 C779 1.415 . S
C782 H772 0.930 . S
C782 C780 1.419 . S
C782 C783 1.362 . S
C783 H773 0.930 . S
C783 C776 1.409 . S
C783 C782 1.362 . S
H784 C790 0.930 . S
H785 C793 0.930 . S
H786 C794 0.930 . S
H787 C795 0.930 . S
H788 C798 0.930 . S
H789 C799 0.930 . S
C790 H784 0.930 . S
C790 C791 1.355 . S
C790 C792 1.415 . S
C791 C790 1.355 . S
C791 C793 1.419 . S
C792 C790 1.415 . S
C792 C797 1.425 . S
C792 C799 1.409 . S
C793 H785 0.930 . S
C793 C791 1.419 . S
C793 C794 1.362 . S
C794 H786 0.930 . S
C794 C793 1.362 . S
C794 C797 1.409 . S
C795 H787 0.930 . S
C795 C796 1.355 . S
C795 C797 1.415 . S
C796 C795 1.355 . S
C796 C798 1.419 . S
C797 C792 1.425 . S
C797 C794 1.409 . S
C797 C795 1.415 . S
C798 H788 0.930 . S
C798 C796 1.419 . S
C798 C799 1.362 . S
C799 H789 0.930 . S
C799 C792 1.409 . S
C799 C798 1.362 . S
H800 C806 0.930 . S
H801 C809 0.930 . S
H802 C810 0.930 . S
H803 C811 0.930 . S
H804 C814 0.930 . S
H805 C815 0.930 . S
C806 H800 0.930 . S
C806 C807 1.355 . S
C806 C808 1.415 . S
C807 C806 1.355 . S
C807 C809 1.419 . S
C808 C806 1.415 . S
C808 C813 1.425 . S
C808 C815 1.409 . S
C809 H801 0.930 . S
C809 C807 1.419 . S
C809 C810 1.362 . S
C810 H802 0.930 . S
C810 C809 1.362 . S
C810 C813 1.409 . S
C811 H803 0.930 . S
C811 C812 1.355 . S
C811 C813 1.415 . S
C812 C811 1.355 . S
C812 C814 1.419 . S
C813 C808 1.425 . S
C813 C810 1.409 . S
C813 C811 1.415 . S
C814 H804 0.930 . S
C814 C812 1.419 . S
C814 C815 1.362 . S
C815 H805 0.930 . S
C815 C808 1.409 . S
C815 C814 1.362 . S
H816 C822 0.930 . S
H817 C825 0.930 . S
H818 C826 0.930 . S
H819 C827 0.930 . S
H820 C830 0.930 . S
H821 C831 0.930 . S
C822 H816 0.930 . S
C822 C823 1.355 . S
C822 C824 1.415 . S
C823 C822 1.355 . S
C823 C825 1.419 . S
C824 C822 1.415 . S
C824 C829 1.425 . S
C824 C831 1.409 . S
C825 H817 0.930 . S
C825 C823 1.419 . S
C825 C826 1.362 . S
C826 H818 0.930 . S
C826 C825 1.362 . S
C826 C829 1.409 . S
C827 H819 0.930 . S
C827 C828 1.355 . S
C827 C829 1.415 . S
C828 C827 1.355 . S
C828 C830 1.419 . S
C829 C824 1.425 . S
C829 C826 1.409 . S
C829 C827 1.415 . S
C830 H820 0.930 . S
C830 C828 1.419 . S
C830 C831 1.362 . S
C831 H821 0.930 . S
C831 C824 1.409 . S
C831 C830 1.362 . S
H832 C838 0.930 . S
H833 C841 0.930 . S
H834 C842 0.930 . S
H835 C843 0.930 . S
H836 C846 0.930 . S
H837 C847 0.930 . S
C838 H832 0.930 . S
C838 C839 1.355 . S
C838 C840 1.415 . S
C839 C838 1.355 . S
C839 C841 1.419 . S
C840 C838 1.415 . S
C840 C845 1.425 . S
C840 C847 1.409 . S
C841 H833 0.930 . S
C841 C839 1.419 . S
C841 C842 1.362 . S
C842 H834 0.930 . S
C842 C841 1.362 . S
C842 C845 1.409 . S
C843 H835 0.930 . S
C843 C844 1.355 . S
C843 C845 1.415 . S
C844 C843 1.355 . S
C844 C846 1.419 . S
C845 C840 1.425 . S
C845 C842 1.409 . S
C845 C843 1.415 . S
C846 H836 0.930 . S
C846 C844 1.419 . S
C846 C847 1.362 . S
C847 H837 0.930 . S
C847 C840 1.409 . S
C847 C846 1.362 . S
H848 C854 0.930 . S
H849 C857 0.930 . S
H850 C858 0.930 . S
H851 C859 0.930 . S
H852 C862 0.930 . S
H853 C863 0.930 . S
C854 H848 0.930 . S
C854 C855 1.355 . S
C854 C856 1.415 . S
C855 C854 1.355 . S
C855 C857 1.419 . S
C856 C854 1.415 . S
C856 C861 1.425 . S
C856 C863 1.409 . S
C857 H849 0.930 . S
C857 C855 1.419 . S
C857 C858 1.362 . S
C858 H850 0.930 . S
C858 C857 1.362 . S
C858 C861 1.409 . S
C859 H851 0.930 . S
C859 C860 1.355 . S
C859 C861 1.415 . S
C860 C859 1.355 . S
C860 C862 1.419 . S
C861 C856 1.425 . S
C861 C858 1.409 . S
C861 C859 1.415 . S
C862 H852 0.930 . S
C862 C860 1.419 . S
C862 C863 1.362 . S
C863 H853 0.930 . S
C863 C856 1.409 . S
C863 C862 1.362 . S
H864 C870 0.930 . S
H865 C873 0.930 . S
H866 C874 0.930 . S
H867 C875 0.930 . S
H868 C878 0.930 . S
H869 C879 0.930 . S
C870 H864 0.930 . S
C870 C871 1.355 . S
C870 C872 1.415 . S
C871 C870 1.355 . S
C871 C873 1.419 . S
C872 C870 1.415 . S
C872 C877 1.425 . S
C872 C879 1.409 . S
C873 H865 0.930 . S
C873 C871 1.419 . S
C873 C874 1.362 . S
C874 H866 0.930 . S
C874 C873 1.362 . S
C874 C877 1.409 . S
C875 H867 0.930 . S
C875 C876 1.355 . S
C875 C877 1.415 . S
C876 C875 1.355 . S
C876 C878 1.419 . S
C877 C872 1.425 . S
C877 C874 1.409 . S
C877 C875 1.415 . S
C878 H868 0.930 . S
C878 C876 1.419 . S
C878 C879 1.362 . S
C879 H869 0.930 . S
C879 C872 1.409 . S
C879 C878 1.362 . S
H880 C886 0.930 . S
H881 C889 0.930 . S
H882 C890 0.930 . S
H883 C891 0.930 . S
H884 C894 0.930 . S
H885 C895 0.930 . S
C886 H880 0.930 . S
C886 C887 1.355 . S
C886 C888 1.415 . S
C887 C886 1.355 . S
C887 C889 1.419 . S
C888 C886 1.415 . S
C888 C893 1.425 . S
C888 C895 1.409 . S
C889 H881 0.930 . S
C889 C887 1.419 . S
C889 C890 1.362 . S
C890 H882 0.930 . S
C890 C889 1.362 . S
C890 C893 1.409 . S
C891 H883 0.930 . S
C891 C892 1.355 . S
C891 C893 1.415 . S
C892 C891 1.355 . S
C892 C894 1.419 . S
C893 C888 1.425 . S
C893 C890 1.409 . S
C893 C891 1.415 . S
C894 H884 0.930 . S
C894 C892 1.419 . S
C894 C895 1.362 . S
C895 H885 0.930 . S
C895 C888 1.409 . S
C895 C894 1.362 . S
H896 C902 0.930 . S
H897 C905 0.930 . S
H898 C906 0.930 . S
H899 C907 0.930 . S
H900 C910 0.930 . S
H901 C911 0.930 . S
C902 H896 0.930 . S
C902 C903 1.355 . S
C902 C904 1.415 . S
C903 C902 1.355 . S
C903 C905 1.419 . S
C904 C902 1.415 . S
C904 C909 1.425 . S
C904 C911 1.409 . S
C905 H897 0.930 . S
C905 C903 1.419 . S
C905 C906 1.362 . S
C906 H898 0.930 . S
C906 C905 1.362 . S
C906 C909 1.409 . S
C907 H899 0.930 . S
C907 C908 1.355 . S
C907 C909 1.415 . S
C908 C907 1.355 . S
C908 C910 1.419 . S
C909 C904 1.425 . S
C909 C906 1.409 . S
C909 C907 1.415 . S
C910 H900 0.930 . S
C910 C908 1.419 . S
C910 C911 1.362 . S
C911 H901 0.930 . S
C911 C904 1.409 . S
C911 C910 1.362 . S
H912 C918 0.930 . S
H913 C921 0.930 . S
H914 C922 0.930 . S
H915 C923 0.930 . S
H916 C926 0.930 . S
H917 C927 0.930 . S
C918 H912 0.930 . S
C918 C919 1.355 . S
C918 C920 1.415 . S
C919 C918 1.355 . S
C919 C921 1.419 . S
C920 C918 1.415 . S
C920 C925 1.425 . S
C920 C927 1.409 . S
C921 H913 0.930 . S
C921 C919 1.419 . S
C921 C922 1.362 . S
C922 H914 0.930 . S
C922 C921 1.362 . S
C922 C925 1.409 . S
C923 H915 0.930 . S
C923 C924 1.355 . S
C923 C925 1.415 . S
C924 C923 1.355 . S
C924 C926 1.419 . S
C925 C920 1.425 . S
C925 C922 1.409 . S
C925 C923 1.415 . S
C926 H916 0.930 . S
C926 C924 1.419 . S
C926 C927 1.362 . S
C927 H917 0.930 . S
C927 C920 1.409 . S
C927 C926 1.362 . S
H928 C934 0.930 . S
H929 C937 0.930 . S
H930 C938 0.930 . S
H931 C939 0.930 . S
H932 C942 0.930 . S
H933 C943 0.930 . S
C934 H928 0.930 . S
C934 C935 1.355 . S
C934 C936 1.415 . S
C935 C934 1.355 . S
C935 C937 1.419 . S
C936 C934 1.415 . S
C936 C941 1.425 . S
C936 C943 1.409 . S
C937 H929 0.930 . S
C937 C935 1.419 . S
C937 C938 1.362 . S
C938 H930 0.930 . S
C938 C937 1.362 . S
C938 C941 1.409 . S
C939 H931 0.930 . S
C939 C940 1.355 . S
C939 C941 1.415 . S
C940 C939 1.355 . S
C940 C942 1.419 . S
C941 C936 1.425 . S
C941 C938 1.409 . S
C941 C939 1.415 . S
C942 H932 0.930 . S
C942 C940 1.419 . S
C942 C943 1.362 . S
C943 H933 0.930 . S
C943 C936 1.409 . S
C943 C942 1.362 . S
H944 C950 0.930 . S
H945 C953 0.930 . S
H946 C954 0.930 . S
H947 C955 0.930 . S
H948 C958 0.930 . S
H949 C959 0.930 . S
C950 H944 0.930 . S
C950 C951 1.355 . S
C950 C952 1.415 . S
C951 C950 1.355 . S
C951 C953 1.419 . S
C952 C950 1.415 . S
C952 C957 1.425 . S
C952 C959 1.409 . S
C953 H945 0.930 . S
C953 C951 1.419 . S
C953 C954 1.362 . S
C954 H946 0.930 . S
C954 C953 1.362 . S
C954 C957 1.409 . S
C955 H947 0.930 . S
C955 C956 1.355 . S
C955 C957 1.415 . S
C956 C955 1.355 . S
C956 C958 1.419 . S
C957 C952 1.425 . S
C957 C954 1.409 . S
C957 C955 1.415 . S
C958 H948 0.930 . S
C958 C956 1.419 . S
C958 C959 1.362 . S
C959 H949 0.930 . S
C959 C952 1.409 . S
C959 C958 1.362 . S
H960 C966 0.930 . S
H961 C969 0.930 . S
H962 C970 0.930 . S
H963 C971 0.930 . S
H964 C974 0.930 . S
H965 C975 0.930 . S
C966 H960 0.930 . S
C966 C967 1.355 . S
C966 C968 1.415 . S
C967 C966 1.355 . S
C967 C969 1.419 . S
C968 C966 1.415 . S
C968 C973 1.425 . S
C968 C975 1.409 . S
C969 H961 0.930 . S
C969 C967 1.419 . S
C969 C970 1.362 . S
C970 H962 0.930 . S
C970 C969 1.362 . S
C970 C973 1.409 . S
C971 H963 0.930 . S
C971 C972 1.355 . S
C971 C973 1.415 . S
C972 C971 1.355 . S
C972 C974 1.419 . S
C973 C968 1.425 . S
C973 C970 1.409 . S
C973 C971 1.415 . S
C974 H964 0.930 . S
C974 C972 1.419 . S
C974 C975 1.362 . S
C975 H965 0.930 . S
C975 C968 1.409 . S
C975 C974 1.362 . S
H976 C982 0.930 . S
H977 C985 0.930 . S
H978 C986 0.930 . S
H979 C987 0.930 . S
H980 C990 0.930 . S
H981 C991 0.930 . S
C982 H976 0.930 . S
C982 C983 1.355 . S
C982 C984 1.415 . S
C983 C982 1.355 . S
C983 C985 1.419 . S
C984 C982 1.415 . S
C984 C989 1.425 . S
C984 C991 1.409 . S
C985 H977 0.930 . S
C985 C983 1.419 . S
C985 C986 1.362 . S
C986 H978 0.930 . S
C986 C985 1.362 . S
C986 C989 1.409 . S
C987 H979 0.930 . S
C987 C988 1.355 . S
C987 C989 1.415 . S
C988 C987 1.355 . S
C988 C990 1.419 . S
C989 C984 1.425 . S
C989 C986 1.409 . S
C989 C987 1.415 . S
C990 H980 0.930 . S
C990 C988 1.419 . S
C990 C991 1.362 . S
C991 H981 0.930 . S
C991 C984 1.409 . S
C991 C990 1.362 . S
H992 C998 0.930 . S
H993 C1001 0.930 . S
H994 C1002 0.930 . S
H995 C1003 0.930 . S
H996 C1006 0.930 . S
H997 C1007 0.930 . S
C998 H992 0.930 . S
C998 C999 1.355 . S
C998 C1000 1.415 . S
C999 C998 1.355 . S
C999 C1001 1.419 . S
C1000 C998 1.415 . S
C1000 C1005 1.425 . S
C1000 C1007 1.409 . S
C1001 H993 0.930 . S
C1001 C999 1.419 . S
C1001 C1002 1.362 . S
C1002 H994 0.930 . S
C1002 C1001 1.362 . S
C1002 C1005 1.409 . S
C1003 H995 0.930 . S
C1003 C1004 1.355 . S
C1003 C1005 1.415 . S
C1004 C1003 1.355 . S
C1004 C1006 1.419 . S
C1005 C1000 1.425 . S
C1005 C1002 1.409 . S
C1005 C1003 1.415 . S
C1006 H996 0.930 . S
C1006 C1004 1.419 . S
C1006 C1007 1.362 . S
C1007 H997 0.930 . S
C1007 C1000 1.409 . S
C1007 C1006 1.362 . S
C508 C405 1.387 . S
C503 C36 1.374 . S
C524 C425 1.444 . S
C519 C93 1.433 . S
C540 C439 1.421 . S
C535 C126 1.444 . S
C551 C165 1.433 . S
C556 C397 1.428 . S
C567 C222 1.493 . S
C572 C391 1.539 . S
C583 C261 1.427 . S
C588 C411 1.435 . S
C604 C419 1.407 . S
C599 C318 1.429 . S
C620 C433 1.489 . S
C615 C381 1.451 . S
C631 C132 1.420 . S
C636 C461 1.509 . S
C652 C475 1.441 . S
C647 C189 1.421 . S
C663 C30 1.446 . S
C668 C495 1.442 . S
C684 C447 1.541 . S
C679 C69 1.487 . S
C695 C324 1.451 . S
C700 C453 1.460 . S
C711 C357 1.417 . S
C716 C467 1.410 . S
C732 C481 1.450 1_556 S
C727 C228 1.447 . S
C743 C285 1.363 . S
C748 C489 1.416 . S
C764 C420 1.760 . S
C759 C45 1.738 . S
C780 C434 1.771 . S
C775 C84 1.749 . S
C791 C117 1.660 . S
C796 C392 1.682 . S
C807 C174 1.503 . S
C812 C409 1.530 . S
C823 C213 1.448 . S
C828 C437 1.457 . S
C844 C395 1.443 . S
C839 C270 1.421 . S
C860 C406 1.649 . S
C855 C309 1.641 . S
C876 C423 1.519 . S
C871 C372 1.495 . S
C892 C479 1.519 . S
C887 C141 1.484 . S
C908 C490 1.651 . S
C903 C180 1.648 . S
C919 C21 1.412 . S
C924 C451 1.449 . S
C940 C465 1.458 . S
C935 C78 1.432 . S
C956 C493 1.541 . S
C951 C333 1.511 . S
C967 C366 1.606 . S
C972 C448 1.699 . S
C988 C462 1.749 . S
C983 C237 1.713 . S
C1004 C476 1.739 . S
C999 C276 1.731 . S
