# Generated by pormake.
# Topology cml, (3,6)-cn, num edge types: 1
# Building blocks:
#     Node 0, Type 0, BuildingBlock: BETDIP_clean_linker_0, # of connection points: 3
#     Node 1, Type 0, BuildingBlock: BETDIP_clean_linker_0, # of connection points: 3
#     Node 2, Type 0, BuildingBlock: BETDIP_clean_linker_0, # of connection points: 3
#     Node 3, Type 0, BuildingBlock: BETDIP_clean_linker_0, # of connection points: 3
#     Node 4, Type 0, BuildingBlock: BETDIP_clean_linker_0, # of connection points: 3
#     Node 5, Type 0, BuildingBlock: BETDIP_clean_linker_0, # of connection points: 3
#     Node 6, Type 0, BuildingBlock: BETDIP_clean_linker_0, # of connection points: 3
#     Node 7, Type 0, BuildingBlock: BETDIP_clean_linker_0, # of connection points: 3
#     Node 8, Type 1, BuildingBlock: OJICUG_clean_sbu_0, # of connection points: 6
#     Node 9, Type 1, BuildingBlock: OJICUG_clean_sbu_0, # of connection points: 6
#     Node 10, Type 1, BuildingBlock: OJICUG_clean_sbu_0, # of connection points: 6
#     Node 11, Type 1, BuildingBlock: OJICUG_clean_sbu_0, # of connection points: 6
#     Edge 12, Type (0, 1), BuildingBlock: CIFDUS_clean_linker_0, # of connection points: 2
#     Edge 13, Type (0, 1), BuildingBlock: CIFDUS_clean_linker_0, # of connection points: 2
#     Edge 14, Type (0, 1), BuildingBlock: CIFDUS_clean_linker_0, # of connection points: 2
#     Edge 15, Type (0, 1), BuildingBlock: CIFDUS_clean_linker_0, # of connection points: 2
#     Edge 16, Type (0, 1), BuildingBlock: CIFDUS_clean_linker_0, # of connection points: 2
#     Edge 17, Type (0, 1), BuildingBlock: CIFDUS_clean_linker_0, # of connection points: 2
#     Edge 18, Type (0, 1), BuildingBlock: CIFDUS_clean_linker_0, # of connection points: 2
#     Edge 19, Type (0, 1), BuildingBlock: CIFDUS_clean_linker_0, # of connection points: 2
#     Edge 20, Type (0, 1), BuildingBlock: CIFDUS_clean_linker_0, # of connection points: 2
#     Edge 21, Type (0, 1), BuildingBlock: CIFDUS_clean_linker_0, # of connection points: 2
#     Edge 22, Type (0, 1), BuildingBlock: CIFDUS_clean_linker_0, # of connection points: 2
#     Edge 23, Type (0, 1), BuildingBlock: CIFDUS_clean_linker_0, # of connection points: 2
#     Edge 24, Type (0, 1), BuildingBlock: CIFDUS_clean_linker_0, # of connection points: 2
#     Edge 25, Type (0, 1), BuildingBlock: CIFDUS_clean_linker_0, # of connection points: 2
#     Edge 26, Type (0, 1), BuildingBlock: CIFDUS_clean_linker_0, # of connection points: 2
#     Edge 27, Type (0, 1), BuildingBlock: CIFDUS_clean_linker_0, # of connection points: 2
#     Edge 28, Type (0, 1), BuildingBlock: CIFDUS_clean_linker_0, # of connection points: 2
#     Edge 29, Type (0, 1), BuildingBlock: CIFDUS_clean_linker_0, # of connection points: 2
#     Edge 30, Type (0, 1), BuildingBlock: CIFDUS_clean_linker_0, # of connection points: 2
#     Edge 31, Type (0, 1), BuildingBlock: CIFDUS_clean_linker_0, # of connection points: 2
#     Edge 32, Type (0, 1), BuildingBlock: CIFDUS_clean_linker_0, # of connection points: 2
#     Edge 33, Type (0, 1), BuildingBlock: CIFDUS_clean_linker_0, # of connection points: 2
#     Edge 34, Type (0, 1), BuildingBlock: CIFDUS_clean_linker_0, # of connection points: 2
#     Edge 35, Type (0, 1), BuildingBlock: CIFDUS_clean_linker_0, # of connection points: 2
# Relax obj value: 0.006
# Max RMSD: 0.049
# Mean RMSD: 0.043
data_MOF--net-cml--node1-OJICUG_clean_sbu_0--node2-BETDIP_clean_linker_0--edge1-CIFDUS_clean_linker_0
_symmetry_space_group_name_H-M    P1
_symmetry_Int_Tables_number       1
_symmetry_cell_setting            triclinic
loop_
_symmetry_equiv_pos_as_xyz
'x, y, z'
_cell_length_a     35.85977
_cell_length_b     34.698399
_cell_length_c     31.151704
_cell_angle_alpha  90.02803
_cell_angle_beta   89.771643
_cell_angle_gamma 89.614146
loop_
_atom_site_label
_atom_site_type_symbol
_atom_site_fract_x
_atom_site_fract_y
_atom_site_fract_z
_atom_type_partial_charge
H0 H 0.25799 0.38043 0.06883 0.0
H1 H 0.25695 0.44504 0.95059 0.0
H2 H 0.33999 0.46749 0.04598 0.0
H3 H 0.21475 0.40401 0.92922 0.0
C4 C 0.20566 0.38541 0.95512 0.0
C5 C 0.26939 0.40293 0.04863 0.0
C6 C 0.30026 0.42393 0.06255 0.0
C7 C 0.25344 0.41008 0.0084 0.0
C8 C 0.26869 0.4389 0.98173 0.0
C9 C 0.29964 0.46024 0.99553 0.0
C10 C 0.31501 0.45255 0.03598 0.0
N11 N 0.22284 0.38681 0.9961 0.0
H12 H 0.72049 0.63826 0.55834 0.0
H13 H 0.7224 0.57412 0.43981 0.0
H14 H 0.63709 0.55256 0.53326 0.0
H15 H 0.78462 0.58271 0.44635 0.0
C16 C 0.78581 0.61263 0.45647 0.0
C17 C 0.70867 0.61649 0.53758 0.0
C18 C 0.67674 0.59629 0.55064 0.0
C19 C 0.72621 0.60766 0.49834 0.0
C20 C 0.71027 0.58008 0.471 0.0
C21 C 0.67841 0.55996 0.48366 0.0
C22 C 0.66207 0.56783 0.52366 0.0
N23 N 0.75941 0.62724 0.48671 0.0
H24 H 0.71866 0.34294 0.03444 0.0
H25 H 0.71681 0.40943 0.91751 0.0
H26 H 0.64478 0.44028 0.0224 0.0
H27 H 0.74299 0.3573 0.88901 0.0
C28 C 0.75968 0.34394 0.91396 0.0
C29 C 0.70767 0.36675 0.01573 0.0
C30 C 0.6806 0.39137 0.0336 0.0
C31 C 0.7208 0.37265 0.97381 0.0
C32 C 0.70653 0.40372 0.94953 0.0
C33 C 0.67928 0.42843 0.96708 0.0
C34 C 0.66666 0.42207 0.00913 0.0
N35 N 0.74902 0.34744 0.95778 0.0
H36 H 0.26266 0.6254 0.56739 0.0
H37 H 0.27188 0.54975 0.45787 0.0
H38 H 0.34312 0.53372 0.56721 0.0
H39 H 0.23284 0.66348 0.52384 0.0
C40 C 0.22057 0.64698 0.49799 0.0
C41 C 0.27549 0.6013 0.55092 0.0
C42 C 0.3038 0.58067 0.57198 0.0
C43 C 0.26383 0.59019 0.50949 0.0
C44 C 0.28072 0.55818 0.48974 0.0
C45 C 0.30915 0.5374 0.51049 0.0
C46 C 0.32024 0.54872 0.55166 0.0
N47 N 0.23531 0.6102 0.48669 0.0
H48 H 0.78426 0.84032 0.05946 0.0
H49 H 0.79662 0.90477 0.94253 0.0
H50 H 0.85375 0.94012 0.05721 0.0
H51 H 0.7411 0.87959 0.92544 0.0
C52 C 0.73738 0.8533 0.94376 0.0
C53 C 0.79594 0.86457 0.04221 0.0
C54 C 0.8207 0.8893 0.0629 0.0
C55 C 0.7855 0.87124 -0.00042 0.0
C56 C 0.80227 0.90148 0.97636 0.0
C57 C 0.82787 0.92625 0.99654 0.0
C58 C 0.83527 0.92075 0.04045 0.0
N59 N 0.75874 0.84618 0.98129 0.0
H60 H 0.24221 0.13882 0.55798 0.0
H61 H 0.22708 0.0747 0.44077 0.0
H62 H 0.15252 0.05805 0.54699 0.0
H63 H 0.28877 0.08357 0.43385 0.0
C64 C 0.29195 0.11307 0.44484 0.0
C65 C 0.22726 0.1175 0.53948 0.0
C66 C 0.19631 0.09891 0.55742 0.0
C67 C 0.23932 0.10805 0.49783 0.0
C68 C 0.21907 0.08122 0.4735 0.0
C69 C 0.18798 0.06283 0.49119 0.0
C70 C 0.17702 0.07159 0.53328 0.0
N71 N 0.27106 0.12686 0.48064 0.0
H72 H 0.23376 0.85799 0.07718 0.0
H73 H 0.23853 0.94318 0.97697 0.0
H74 H 0.163 0.95828 0.08305 0.0
H75 H 0.25277 0.89111 0.93621 0.0
C76 C 0.27171 0.8751 0.9568 0.0
C77 C 0.22424 0.88504 0.06357 0.0
C78 C 0.19766 0.90756 0.08561 0.0
C79 C 0.23847 0.89723 0.02378 0.0
C80 C 0.22648 0.93271 0.00659 0.0
C81 C 0.19909 0.95504 0.02757 0.0
C82 C 0.18505 0.94216 0.06713 0.0
N83 N 0.26497 0.87351 0.00188 0.0
H84 H 0.76727 0.14637 0.56458 0.0
H85 H 0.75859 0.06211 0.46336 0.0
H86 H 0.84418 0.051 0.5583 0.0
H87 H 0.72126 0.10523 0.43262 0.0
C88 C 0.71056 0.12504 0.4567 0.0
C89 C 0.77719 0.12022 0.54913 0.0
C90 C 0.8077 0.10012 0.56617 0.0
C91 C 0.75928 0.10705 0.51211 0.0
C92 C 0.77208 0.07307 0.49179 0.0
C93 C 0.80236 0.05246 0.509 0.0
C94 C 0.81989 0.06615 0.54606 0.0
N95 N 0.72841 0.12888 0.49704 0.0
Sc96 Sc 0.00218 0.785 0.32009 0.0
Sc97 Sc -0.0002 0.88714 0.31859 0.0
Sc98 Sc 0.99009 0.83822 0.41596 0.0
O99 O 0.99738 0.8367 0.35142 0.0
C100 C 0.93911 0.7676 0.3908 0.0
C101 C 0.94883 0.83416 0.25886 0.0
C102 C 0.93664 0.90739 0.38757 0.0
C103 C 0.06048 0.83671 0.26783 0.0
C104 C 0.05096 0.77089 0.40399 0.0
C105 C 0.04804 0.90606 0.40133 0.0
O106 O 0.95724 0.75893 0.35684 0.0
O107 O 0.96069 0.86652 0.27212 0.0
O108 O 0.94669 0.88135 0.41381 0.0
O109 O 0.04735 0.80409 0.27856 0.0
O110 O 0.03279 0.79567 0.42581 0.0
O111 O 0.03924 0.91224 0.36241 0.0
O112 O 0.0439 0.76369 0.36473 0.0
O113 O 0.04641 0.86836 0.28065 0.0
O114 O 0.03233 0.88067 0.42431 0.0
O115 O 0.96111 0.80193 0.2727 0.0
O116 O 0.94731 0.79604 0.41437 0.0
O117 O 0.95331 0.91293 0.35211 0.0
Sc118 Sc -0.00048 0.19958 0.80024 0.0
Sc119 Sc 0.01433 0.10031 0.81509 0.0
Sc120 Sc 0.01221 0.16169 0.90492 0.0
O121 O 0.00872 0.15393 0.84016 0.0
C122 C 0.0552 0.2356 0.86902 0.0
C123 C 0.06072 0.15097 0.74839 0.0
C124 C 0.07533 0.09807 0.88971 0.0
C125 C 0.94966 0.13505 0.75651 0.0
C126 C 0.94503 0.21828 0.87915 0.0
C127 C 0.96588 0.08345 0.89836 0.0
O128 O 0.04041 0.2346 0.83202 0.0
O129 O 0.05382 0.11948 0.76764 0.0
O130 O 0.06196 0.12625 0.91113 0.0
O131 O 0.9572 0.17022 0.76356 0.0
O132 O 0.9625 0.19748 0.90622 0.0
O133 O 0.97543 0.0758 0.85999 0.0
O134 O 0.95549 0.22186 0.84031 0.0
O135 O 0.96848 0.1075 0.77231 0.0
O136 O 0.97778 0.11244 0.91907 0.0
O137 O 0.04278 0.18202 0.75588 0.0
O138 O 0.04747 0.21142 0.89837 0.0
O139 O 0.06057 0.08598 0.85533 0.0
Sc140 Sc 0.49428 0.28699 0.28542 0.0
Sc141 Sc 0.50335 0.38779 0.29641 0.0
Sc142 Sc 0.49909 0.32952 0.38821 0.0
O143 O 0.499 0.33472 0.32332 0.0
C144 C 0.43849 0.26754 0.36255 0.0
C145 C 0.4422 0.34707 0.23714 0.0
C146 C 0.44843 0.40483 0.37481 0.0
C147 C 0.55365 0.3375 0.23308 0.0
C148 C 0.54977 0.25782 0.35807 0.0
C149 C 0.5595 0.39519 0.37531 0.0
O150 O 0.45109 0.26162 0.32488 0.0
O151 O 0.4595 0.37627 0.25135 0.0
O152 O 0.45967 0.37637 0.39718 0.0
O153 O 0.53686 0.30605 0.2409 0.0
O154 O 0.53827 0.28193 0.38609 0.0
O155 O 0.54724 0.40603 0.33898 0.0
O156 O 0.53704 0.25669 0.32006 0.0
O157 O 0.54542 0.36894 0.25187 0.0
O158 O 0.5454 0.3674 0.3961 0.0
O159 O 0.45094 0.31267 0.24711 0.0
O160 O 0.45261 0.29166 0.3882 0.0
O161 O 0.46151 0.41225 0.3378 0.0
Sc162 Sc 0.49147 0.718 0.79898 0.0
Sc163 Sc 0.49348 0.61661 0.81119 0.0
Sc164 Sc 0.50307 0.67604 0.90135 0.0
O165 O 0.496 0.67027 0.83706 0.0
C166 C 0.55592 0.74171 0.865 0.0
C167 C 0.54423 0.66176 0.74346 0.0
C168 C 0.55503 0.60272 0.88323 0.0
C169 C 0.43285 0.66173 0.75489 0.0
C170 C 0.44456 0.74386 0.88153 0.0
C171 C 0.44336 0.60832 0.89549 0.0
O172 O 0.5374 0.74654 0.8306 0.0
O173 O 0.53308 0.6312 0.76195 0.0
O174 O 0.54482 0.63152 0.90558 0.0
O175 O 0.44544 0.69531 0.76208 0.0
O176 O 0.46234 0.72121 0.90616 0.0
O177 O 0.45323 0.59756 0.85805 0.0
O178 O 0.45073 0.74548 0.84124 0.0
O179 O 0.4475 0.63153 0.77064 0.0
O180 O 0.45894 0.636 0.91521 0.0
O181 O 0.5316 0.69518 0.75293 0.0
O182 O 0.54747 0.71656 0.89299 0.0
O183 O 0.53929 0.59387 0.8482 0.0
H184 H 0.1707 0.37236 0.87989 0.0
H185 H 0.17599 0.33283 0.01108 0.0
H186 H 0.12997 0.28341 0.99582 0.0
H187 H 0.08895 0.25071 0.94528 0.0
H188 H 0.08314 0.28985 0.81382 0.0
H189 H 0.12852 0.34001 0.82923 0.0
C190 C 0.16162 0.35295 0.90508 0.0
C191 C 0.17679 0.35621 0.9464 0.0
C192 C 0.13512 0.32444 0.89609 0.0
C193 C 0.16486 0.33096 0.97889 0.0
C194 C 0.13851 0.30262 0.97022 0.0
C195 C 0.09754 0.27014 0.91989 0.0
C196 C 0.08261 0.2663 0.87841 0.0
C197 C 0.12362 0.29897 0.92891 0.0
C198 C 0.0941 0.292 0.84608 0.0
C199 C 0.1201 0.32075 0.85482 0.0
H200 H 0.79947 0.68798 0.4748 0.0
H201 H 0.83951 0.5918 0.39957 0.0
H202 H 0.8899 0.63147 0.37054 0.0
H203 H 0.92331 0.69337 0.36796 0.0
H204 H 0.88293 0.78867 0.44479 0.0
H205 H 0.8319 0.74951 0.47148 0.0
C206 C 0.81919 0.67568 0.45206 0.0
C207 C 0.81597 0.63705 0.43939 0.0
C208 C 0.84802 0.69853 0.4357 0.0
C209 C 0.84165 0.62154 0.40982 0.0
C210 C 0.87038 0.64419 0.3932 0.0
C211 C 0.90316 0.7056 0.39025 0.0
C212 C 0.9071 0.74382 0.40444 0.0
C213 C 0.87393 0.68273 0.40602 0.0
C214 C 0.88083 0.7592 0.43357 0.0
C215 C 0.85154 0.73687 0.4489 0.0
H216 H 0.80698 0.30267 0.96563 0.0
H217 H 0.78681 0.33421 0.83374 0.0
H218 H 0.8422 0.29794 0.81118 0.0
H219 H 0.89637 0.25811 0.82894 0.0
H220 H 0.9167 0.2259 0.96076 0.0
H221 H 0.86102 0.2616 0.9833 0.0
C222 C 0.81467 0.30157 0.93196 0.0
C223 C 0.79293 0.32114 0.9013 0.0
C224 C 0.84652 0.28061 0.91923 0.0
C225 C 0.80319 0.31935 0.85783 0.0
C226 C 0.83483 0.29867 0.84495 0.0
C227 C 0.88878 0.25885 0.86266 0.0
C228 C 0.91093 0.2394 0.89308 0.0
C229 C 0.85675 0.27932 0.87539 0.0
C230 C 0.90028 0.24056 0.93658 0.0
C231 C 0.86843 0.26103 0.94954 0.0
H232 H 0.18421 0.71196 0.51858 0.0
H233 H 0.18626 0.62091 0.42442 0.0
H234 H 0.13418 0.65139 0.38633 0.0
H235 H 0.08774 0.70438 0.38013 0.0
H236 H 0.08594 0.79393 0.47661 0.0
H237 H 0.13799 0.76359 0.51322 0.0
C238 C 0.17322 0.69882 0.48969 0.0
C239 C 0.189 0.66441 0.47432 0.0
C240 C 0.14321 0.71623 0.46833 0.0
C241 C 0.17452 0.64747 0.43697 0.0
C242 C 0.14476 0.66491 0.41515 0.0
C243 C 0.09878 0.71721 0.40912 0.0
C244 C 0.0827 0.75134 0.42554 0.0
C245 C 0.12883 0.69936 0.43056 0.0
C246 C 0.09737 0.7675 0.46331 0.0
C247 C 0.12731 0.75026 0.48433 0.0
H248 H 0.68725 0.86215 0.87966 0.0
H249 H 0.71778 0.78597 0.98344 0.0
H250 H 0.6647 0.74505 0.96774 0.0
H251 H 0.60889 0.73151 0.92605 0.0
H252 H 0.57767 0.80673 0.82161 0.0
H253 H 0.63173 0.84724 0.83602 0.0
C254 C 0.68229 0.83646 0.89862 0.0
C255 C 0.70629 0.82729 0.93273 0.0
C256 C 0.65153 0.81293 0.88946 0.0
C257 C 0.69969 0.7939 0.95708 0.0
C258 C 0.66928 0.77041 0.94817 0.0
C259 C 0.61375 0.75679 0.90639 0.0
C260 C 0.589 0.76614 0.87297 0.0
C261 C 0.64486 0.77983 0.91471 0.0
C262 C 0.59617 0.79882 0.8476 0.0
C263 C 0.62708 0.82205 0.85583 0.0
H264 H 0.30793 0.18782 0.46282 0.0
H265 H 0.33705 0.09388 0.37811 0.0
H266 H 0.38348 0.13432 0.3423 0.0
H267 H 0.41752 0.19569 0.33744 0.0
H268 H 0.38875 0.28841 0.4242 0.0
H269 H 0.34011 0.2492 0.45656 0.0
C270 C 0.32437 0.17616 0.43651 0.0
C271 C 0.31939 0.13792 0.42322 0.0
C272 C 0.35096 0.1994 0.41637 0.0
C273 C 0.3407 0.1233 0.38893 0.0
C274 C 0.36713 0.14637 0.36845 0.0
C275 C 0.40024 0.2074 0.36303 0.0
C276 C 0.40679 0.24476 0.37853 0.0
C277 C 0.3727 0.18441 0.38214 0.0
C278 C 0.38444 0.25955 0.41196 0.0
C279 C 0.35663 0.23718 0.43052 0.0
H280 H 0.32575 0.83202 0.996 0.0
H281 H 0.28707 0.86935 0.87184 0.0
H282 H 0.33758 0.83313 0.83689 0.0
H283 H 0.3923 0.78974 0.84175 0.0
H284 H 0.43012 0.75302 0.96687 0.0
H285 H 0.38063 0.7901 0.00096 0.0
C286 C 0.32833 0.83223 0.9613 0.0
C287 C 0.30264 0.85315 0.93648 0.0
C288 C 0.3574 0.81142 0.94148 0.0
C289 C 0.30653 0.85329 0.89158 0.0
C290 C 0.33539 0.83263 0.87159 0.0
C291 C 0.38985 0.79002 0.87645 0.0
C292 C 0.41503 0.76837 0.90146 0.0
C293 C 0.36099 0.81144 0.89621 0.0
C294 C 0.41121 0.76914 0.94652 0.0
C295 C 0.38282 0.79039 0.96625 0.0
H296 H 0.67635 0.13159 0.37998 0.0
H297 H 0.67494 0.17728 0.50886 0.0
H298 H 0.62503 0.2219 0.48964 0.0
H299 H 0.58253 0.24884 0.43618 0.0
H300 H 0.58373 0.20366 0.3069 0.0
H301 H 0.63285 0.15811 0.32641 0.0
C302 C 0.66495 0.15127 0.40379 0.0
C303 C 0.6794 0.15123 0.44559 0.0
C304 C 0.63628 0.17706 0.3925 0.0
C305 C 0.66448 0.1768 0.4763 0.0
C306 C 0.63589 0.20238 0.46538 0.0
C307 C 0.59345 0.22906 0.41219 0.0
C308 C 0.57938 0.22986 0.37011 0.0
C309 C 0.62173 0.20292 0.42353 0.0
C310 C 0.59395 0.20382 0.33957 0.0
C311 C 0.62209 0.17769 0.35066 0.0
H312 H 0.32508 0.53087 0.01745 0.0
H313 H 0.31741 0.4525 0.91039 0.0
H314 H 0.35931 0.49331 0.86842 0.0
H315 H 0.40362 0.54707 0.86546 0.0
H316 H 0.41348 0.62315 0.9747 0.0
H317 H 0.36572 0.58697 0.01268 0.0
C318 C 0.33233 0.52292 0.98476 0.0
C319 C 0.31854 0.48851 0.96723 0.0
C320 C 0.35741 0.54568 0.96151 0.0
C321 C 0.3275 0.47894 0.92456 0.0
C322 C 0.35182 0.50203 0.90075 0.0
C323 C 0.39523 0.55593 0.89748 0.0
C324 C 0.41267 0.58752 0.91734 0.0
C325 C 0.36788 0.53477 0.91944 0.0
C326 C 0.401 0.59873 0.9587 0.0
C327 C 0.37356 0.57812 0.98049 0.0
H328 H 0.66093 0.48652 0.50325 0.0
H329 H 0.65845 0.56908 0.39998 0.0
H330 H 0.62473 0.52331 0.35482 0.0
H331 H 0.59081 0.46235 0.3477 0.0
H332 H 0.59351 0.38007 0.45181 0.0
H333 H 0.63275 0.42301 0.49331 0.0
C334 C 0.65317 0.49426 0.47072 0.0
C335 C 0.66158 0.53106 0.45498 0.0
C336 C 0.63381 0.46795 0.44516 0.0
C337 C 0.65211 0.54078 0.41264 0.0
C338 C 0.63276 0.51472 0.38694 0.0
C339 C 0.60044 0.45348 0.37916 0.0
C340 C 0.5886 0.41826 0.39678 0.0
C341 C 0.62273 0.47853 0.40324 0.0
C342 C 0.60172 0.40719 0.43752 0.0
C343 C 0.62412 0.43177 0.46145 0.0
H344 H 0.66684 0.50227 0.99196 0.0
H345 H 0.65301 0.42491 0.88493 0.0
H346 H 0.61603 0.47377 0.84727 0.0
H347 H 0.58206 0.53564 0.84849 0.0
H348 H 0.59493 0.61195 0.95705 0.0
H349 H 0.63778 0.56631 0.99025 0.0
C350 C 0.65598 0.49628 0.9602 0.0
C351 C 0.66223 0.45994 0.94144 0.0
C352 C 0.63422 0.52414 0.9392 0.0
C353 C 0.64865 0.45274 0.89998 0.0
C354 C 0.62725 0.48054 0.87861 0.0
C355 C 0.59453 0.54255 0.87918 0.0
C356 C 0.58468 0.57703 0.90044 0.0
C357 C 0.61899 0.51594 0.89846 0.0
C358 C 0.60154 0.58553 0.94004 0.0
C359 C 0.6261 0.55941 0.95916 0.0
H360 H 0.3366 0.53745 0.42926 0.0
H361 H 0.32851 0.46693 0.54282 0.0
H362 H 0.36974 0.41866 0.51017 0.0
H363 H 0.41144 0.39878 0.45136 0.0
H364 H 0.41987 0.47017 0.33815 0.0
H365 H 0.37493 0.51549 0.36856 0.0
C366 C 0.34323 0.51113 0.44647 0.0
C367 C 0.32966 0.5058 0.4884 0.0
C368 C 0.36735 0.48381 0.42777 0.0
C369 C 0.33892 0.4718 0.5106 0.0
C370 C 0.3625 0.44424 0.49198 0.0
C371 C 0.40336 0.42413 0.4332 0.0
C372 C 0.41946 0.4311 0.39268 0.0
C373 C 0.37754 0.45034 0.45094 0.0
C374 C 0.40827 0.46404 0.36954 0.0
C375 C 0.38248 0.49007 0.38688 0.0
H376 H 0.8987 0.95166 0.0106 0.0
H377 H 0.80453 0.96912 0.92639 0.0
H378 H 0.83942 0.01817 0.88724 0.0
H379 H 0.89676 0.05734 0.878 0.0
H380 H 0.98569 0.04549 0.96984 0.0
H381 H 0.95185 0.99407 0.00641 0.0
C382 C 0.88492 0.96678 0.98465 0.0
C383 C 0.84855 0.95658 0.97214 0.0
C384 C 0.9042 0.99634 0.96385 0.0
C385 C 0.83255 0.97569 0.93674 0.0
C386 C 0.85237 0.00414 0.91451 0.0
C387 C 0.90836 0.04357 0.90625 0.0
C388 C 0.94348 0.0549 0.92147 0.0
C389 C 0.88818 0.01482 0.92792 0.0
C390 C 0.9585 0.03724 0.95802 0.0
C391 C 0.93929 0.00779 0.97869 0.0
H392 H 0.16317 0.9934 0.51709 0.0
H393 H 0.16373 0.0704 0.40847 0.0
H394 H 0.12219 0.02715 0.36947 0.0
H395 H 0.08198 0.96997 0.3688 0.0
H396 H 0.08043 0.89461 0.47927 0.0
H397 H 0.12581 0.93501 0.51509 0.0
C398 C 0.15419 0.00066 0.48485 0.0
C399 C 0.16609 0.03508 0.4658 0.0
C400 C 0.12987 0.97619 0.46313 0.0
C401 C 0.15499 0.04387 0.42369 0.0
C402 C 0.13105 0.01934 0.40155 0.0
C403 C 0.09175 0.96223 0.40057 0.0
C404 C 0.07739 0.92957 0.42144 0.0
C405 C 0.11774 0.98578 0.42131 0.0
C406 C 0.09056 0.91986 0.46257 0.0
C407 C 0.11662 0.94288 0.48314 0.0
H408 H 0.18554 0.96636 0.94254 0.0
H409 H 0.17546 0.02262 0.06576 0.0
H410 H 0.13924 0.07462 0.03307 0.0
H411 H 0.10453 0.10009 0.97086 0.0
H412 H 0.11699 0.04391 0.84777 0.0
H413 H 0.15936 0.99685 0.87899 0.0
C414 C 0.17648 0.99045 0.96223 0.0
C415 C 0.18274 0.98998 0.00678 0.0
C416 C 0.15592 0.02039 0.94326 0.0
C417 C 0.17022 0.02152 0.03157 0.0
C418 C 0.14966 0.05146 0.01286 0.0
C419 C 0.11714 0.07808 0.95066 0.0
C420 C 0.10688 0.07519 0.90721 0.0
C421 C 0.14135 0.05058 0.96893 0.0
C422 C 0.12377 0.04655 0.8815 0.0
C423 C 0.14802 0.01947 0.89931 0.0
H424 H 0.82718 0.046 0.42702 0.0
H425 H 0.8136 0.98197 0.54447 0.0
H426 H 0.85108 0.92899 0.51514 0.0
H427 H 0.89385 0.90478 0.45993 0.0
H428 H 0.91006 0.97008 0.34339 0.0
H429 H 0.86518 0.01835 0.36829 0.0
C430 C 0.83166 0.01995 0.44558 0.0
C431 C 0.81785 0.01774 0.48775 0.0
C432 C 0.8542 0.99013 0.42898 0.0
C433 C 0.82413 0.98416 0.51191 0.0
C434 C 0.84568 0.95402 0.49526 0.0
C435 C 0.88733 0.92931 0.43967 0.0
C436 C 0.90589 0.93399 0.40014 0.0
C437 C 0.86193 0.9573 0.45443 0.0
C438 C 0.89658 0.96582 0.37419 0.0
C439 C 0.8709 0.99353 0.3884 0.0
H440 H 0.32305 0.35326 0.08908 0.0
H441 H 0.32205 0.47321 0.12538 0.0
H442 H 0.36419 0.45931 0.18494 0.0
H443 H 0.40586 0.41442 0.22181 0.0
H444 H 0.4083 0.29446 0.1848 0.0
H445 H 0.36066 0.30694 0.13064 0.0
C446 C 0.33136 0.37611 0.11074 0.0
C447 C 0.31974 0.4142 0.10289 0.0
C448 C 0.35619 0.36802 0.14431 0.0
C449 C 0.33097 0.44372 0.13077 0.0
C450 C 0.3551 0.43581 0.16465 0.0
C451 C 0.3959 0.3909 0.20206 0.0
C452 C 0.4111 0.3537 0.2069 0.0
C453 C 0.36875 0.39829 0.17088 0.0
C454 C 0.39729 0.32346 0.18157 0.0
C455 C 0.37007 0.33056 0.15054 0.0
H456 H 0.65073 0.66526 0.58066 0.0
H457 H 0.6601 0.54479 0.61296 0.0
H458 H 0.62184 0.55508 0.67701 0.0
H459 H 0.58206 0.59686 0.72048 0.0
H460 H 0.57016 0.71727 0.68794 0.0
H461 H 0.61325 0.70854 0.62757 0.0
C462 C 0.64487 0.64153 0.60226 0.0
C463 C 0.65804 0.60431 0.59221 0.0
C464 C 0.62211 0.64753 0.63864 0.0
C465 C 0.65004 0.57362 0.62006 0.0
C466 C 0.62813 0.57947 0.65657 0.0
C467 C 0.5889 0.62137 0.70041 0.0
C468 C 0.57244 0.6576 0.70862 0.0
C469 C 0.61332 0.61609 0.66561 0.0
C470 C 0.58218 0.68899 0.68236 0.0
C471 C 0.60683 0.68401 0.64775 0.0
H472 H 0.65221 0.32478 0.0654 0.0
H473 H 0.67359 0.44327 0.0984 0.0
H474 H 0.63914 0.43569 0.16565 0.0
H475 H 0.59782 0.39765 0.21095 0.0
H476 H 0.57379 0.27969 0.17713 0.0
H477 H 0.61491 0.28461 0.11469 0.0
C478 C 0.64996 0.3486 0.08785 0.0
C479 C 0.66513 0.38458 0.07703 0.0
C480 C 0.62937 0.34426 0.12602 0.0
C481 C 0.66181 0.41541 0.10605 0.0
C482 C 0.6421 0.41111 0.14439 0.0
C483 C 0.60176 0.3728 0.19025 0.0
C484 C 0.58222 0.33853 0.19851 0.0
C485 C 0.62486 0.37601 0.15406 0.0
C486 C 0.5882 0.30655 0.17149 0.0
C487 C 0.61166 0.30936 0.13565 0.0
H488 H 0.32735 0.65226 0.59432 0.0
H489 H 0.31401 0.53693 0.64328 0.0
H490 H 0.34909 0.55379 0.70757 0.0
H491 H 0.38997 0.59841 0.74495 0.0
H492 H 0.40617 0.71321 0.69524 0.0
H493 H 0.36287 0.69978 0.63667 0.0
C494 C 0.33136 0.63121 0.61964 0.0
C495 C 0.31847 0.59334 0.61405 0.0
C496 C 0.35237 0.64088 0.65609 0.0
C497 C 0.32404 0.56615 0.64683 0.0
C498 C 0.34414 0.57574 0.68348 0.0
C499 C 0.38374 0.62075 0.72163 0.0
C500 C 0.40185 0.65654 0.72409 0.0
C501 C 0.35953 0.61257 0.68768 0.0
C502 C 0.39283 0.68533 0.69403 0.0
C503 C 0.36821 0.67759 0.66037 0.0
H504 H 0.85082 0.82251 0.09217 0.0
H505 H 0.82239 0.93839 0.1309 0.0
H506 H 0.85699 0.92984 0.19767 0.0
H507 H 0.90129 0.8925 0.24024 0.0
H508 H 0.9318 0.77711 0.20125 0.0
H509 H 0.88993 0.78211 0.13958 0.0
C510 C 0.8514 0.84542 0.11585 0.0
C511 C 0.83438 0.8811 0.1067 0.0
C512 C 0.87213 0.84059 0.15367 0.0
C513 C 0.83557 0.9108 0.13729 0.0
C514 C 0.85544 0.90597 0.17529 0.0
C515 C 0.89861 0.86827 0.21846 0.0
C516 C 0.92016 0.83476 0.22484 0.0
C517 C 0.8749 0.87151 0.18302 0.0
C518 C 0.9157 0.80334 0.19688 0.0
C519 C 0.89186 0.80623 0.16155 0.0
H520 H 0.16181 0.16442 0.58306 0.0
H521 H 0.1975 0.05249 0.62694 0.0
H522 H 0.16098 0.06045 0.69291 0.0
H523 H 0.11292 0.09552 0.73308 0.0
H524 H 0.07451 0.20645 0.68785 0.0
H525 H 0.1182 0.20284 0.62763 0.0
C526 C 0.16238 0.14246 0.60783 0.0
C527 C 0.18235 0.10811 0.60074 0.0
C528 C 0.14028 0.14673 0.6449 0.0
C529 C 0.1825 0.07929 0.63229 0.0
C530 C 0.16138 0.0837 0.66968 0.0
C531 C 0.11426 0.1191 0.71029 0.0
C532 C 0.08996 0.15088 0.71462 0.0
C533 C 0.13912 0.11667 0.67554 0.0
C534 C 0.09263 0.18146 0.68515 0.0
C535 C 0.1176 0.17943 0.65063 0.0
H536 H 0.16605 0.83827 0.10555 0.0
H537 H 0.19198 0.94972 0.15853 0.0
H538 H 0.15508 0.93541 0.22245 0.0
H539 H 0.1095 0.89496 0.25886 0.0
H540 H 0.08144 0.78389 0.20635 0.0
H541 H 0.12564 0.79387 0.1472 0.0
C542 C 0.1643 0.85893 0.13163 0.0
C543 C 0.18133 0.89517 0.12721 0.0
C544 C 0.14236 0.85074 0.16813 0.0
C545 C 0.17873 0.92183 0.16107 0.0
C546 C 0.1576 0.9137 0.19756 0.0
C547 C 0.11338 0.87265 0.23479 0.0
C548 C 0.09178 0.83899 0.23666 0.0
C549 C 0.13829 0.87884 0.20073 0.0
C550 C 0.09765 0.81011 0.20564 0.0
C551 C 0.12275 0.81593 0.17164 0.0
H552 H 0.83117 0.05972 0.63518 0.0
H553 H 0.83056 0.17402 0.58095 0.0
H554 H 0.87196 0.19634 0.63796 0.0
H555 H 0.9135 0.18135 0.6988 0.0
H556 H 0.9153 0.06573 0.75027 0.0
H557 H 0.86853 0.04601 0.69866 0.0
C558 C 0.83997 0.08957 0.63601 0.0
C559 C 0.82827 0.11506 0.60373 0.0
C560 C 0.86434 0.10188 0.66812 0.0
C561 C 0.83916 0.15386 0.6056 0.0
C562 C 0.86305 0.16655 0.63797 0.0
C563 C 0.9033 0.15199 0.69904 0.0
C564 C 0.91836 0.12497 0.72793 0.0
C565 C 0.87661 0.14054 0.66876 0.0
C566 C 0.90471 0.08703 0.72793 0.0
C567 C 0.87785 0.07566 0.69848 0.0
loop_
_geom_bond_atom_site_label_1
_geom_bond_atom_site_label_2
_geom_bond_distance
_geom_bond_site_symmetry_2
_ccdc_geom_bond_type
H0 C5 0.930 . S
H1 C8 0.930 . S
H2 C10 0.930 . S
H3 C4 1.016 . S
C4 H3 1.016 . S
C4 N11 1.286 . S
C5 H0 0.930 . S
C5 C6 1.397 . S
C5 C7 1.361 . S
C6 C5 1.397 . S
C6 C10 1.390 . S
C7 C5 1.361 . S
C7 C8 1.393 1_554 S
C7 N11 1.413 1_554 S
C8 H1 0.930 . S
C8 C7 1.393 1_556 S
C8 C9 1.399 . S
C9 C8 1.399 . S
C9 C10 1.381 1_556 S
C10 H2 0.930 . S
C10 C6 1.390 . S
C10 C9 1.381 1_554 S
N11 C4 1.286 . S
N11 C7 1.413 1_556 S
H12 C17 0.930 . S
H13 C20 0.930 . S
H14 C22 0.930 . S
H15 C16 1.016 . S
C16 H15 1.016 . S
C16 N23 1.286 . S
C17 H12 0.930 . S
C17 C18 1.397 . S
C17 C19 1.361 . S
C18 C17 1.397 . S
C18 C22 1.390 . S
C19 C17 1.361 . S
C19 C20 1.393 . S
C19 N23 1.413 . S
C20 H13 0.930 . S
C20 C19 1.393 . S
C20 C21 1.399 . S
C21 C20 1.399 . S
C21 C22 1.381 . S
C22 H14 0.930 . S
C22 C18 1.390 . S
C22 C21 1.381 . S
N23 C16 1.286 . S
N23 C19 1.413 . S
H24 C29 0.930 . S
H25 C32 0.930 . S
H26 C34 0.930 . S
H27 C28 1.016 . S
C28 H27 1.016 . S
C28 N35 1.286 1_556 S
C29 H24 0.930 . S
C29 C30 1.397 . S
C29 C31 1.361 . S
C30 C29 1.397 . S
C30 C34 1.390 . S
C31 C29 1.361 . S
C31 C32 1.393 1_554 S
C31 N35 1.413 . S
C32 H25 0.930 . S
C32 C31 1.393 1_556 S
C32 C33 1.399 . S
C33 C32 1.399 . S
C33 C34 1.381 1_556 S
C34 H26 0.930 . S
C34 C30 1.390 . S
C34 C33 1.381 1_554 S
N35 C28 1.286 1_554 S
N35 C31 1.413 . S
H36 C41 0.930 . S
H37 C44 0.930 . S
H38 C46 0.930 . S
H39 C40 1.016 . S
C40 H39 1.016 . S
C40 N47 1.286 . S
C41 H36 0.930 . S
C41 C42 1.397 . S
C41 C43 1.361 . S
C42 C41 1.397 . S
C42 C46 1.390 . S
C43 C41 1.361 . S
C43 C44 1.393 . S
C43 N47 1.413 . S
C44 H37 0.930 . S
C44 C43 1.393 . S
C44 C45 1.399 . S
C45 C44 1.399 . S
C45 C46 1.381 . S
C46 H38 0.930 . S
C46 C42 1.390 . S
C46 C45 1.381 . S
N47 C40 1.286 . S
N47 C43 1.413 . S
H48 C53 0.930 . S
H49 C56 0.930 . S
H50 C58 0.930 . S
H51 C52 1.016 . S
C52 H51 1.016 . S
C52 N59 1.286 . S
C53 H48 0.930 . S
C53 C54 1.397 . S
C53 C55 1.361 . S
C54 C53 1.397 . S
C54 C58 1.390 . S
C55 C53 1.361 . S
C55 C56 1.393 1_554 S
C55 N59 1.413 1_554 S
C56 H49 0.930 . S
C56 C55 1.393 1_556 S
C56 C57 1.399 . S
C57 C56 1.399 . S
C57 C58 1.381 1_556 S
C58 H50 0.930 . S
C58 C54 1.390 . S
C58 C57 1.381 1_554 S
N59 C52 1.286 . S
N59 C55 1.413 1_556 S
H60 C65 0.930 . S
H61 C68 0.930 . S
H62 C70 0.930 . S
H63 C64 1.016 . S
C64 H63 1.016 . S
C64 N71 1.286 . S
C65 H60 0.930 . S
C65 C66 1.397 . S
C65 C67 1.361 . S
C66 C65 1.397 . S
C66 C70 1.390 . S
C67 C65 1.361 . S
C67 C68 1.393 . S
C67 N71 1.413 . S
C68 H61 0.930 . S
C68 C67 1.393 . S
C68 C69 1.399 . S
C69 C68 1.399 . S
C69 C70 1.381 . S
C70 H62 0.930 . S
C70 C66 1.390 . S
C70 C69 1.381 . S
N71 C64 1.286 . S
N71 C67 1.413 . S
H72 C77 0.930 . S
H73 C80 0.930 . S
H74 C82 0.930 . S
H75 C76 1.016 . S
C76 H75 1.016 . S
C76 N83 1.286 1_556 S
C77 H72 0.930 . S
C77 C78 1.397 . S
C77 C79 1.361 . S
C78 C77 1.397 . S
C78 C82 1.390 . S
C79 C77 1.361 . S
C79 C80 1.393 1_554 S
C79 N83 1.413 . S
C80 H73 0.930 . S
C80 C79 1.393 1_556 S
C80 C81 1.399 . S
C81 C80 1.399 . S
C81 C82 1.381 1_556 S
C82 H74 0.930 . S
C82 C78 1.390 . S
C82 C81 1.381 1_554 S
N83 C76 1.286 1_554 S
N83 C79 1.413 . S
H84 C89 0.930 . S
H85 C92 0.930 . S
H86 C94 0.930 . S
H87 C88 1.016 . S
C88 H87 1.016 . S
C88 N95 1.286 . S
C89 H84 0.930 . S
C89 C90 1.397 . S
C89 C91 1.361 . S
C90 C89 1.397 . S
C90 C94 1.390 . S
C91 C89 1.361 . S
C91 C92 1.393 . S
C91 N95 1.413 . S
C92 H85 0.930 . S
C92 C91 1.393 . S
C92 C93 1.399 . S
C93 C92 1.399 . S
C93 C94 1.381 . S
C94 H86 0.930 . S
C94 C90 1.390 . S
C94 C93 1.381 . S
N95 C88 1.286 . S
N95 C91 1.413 . S
Sc96 O99 2.025 . S
Sc96 O106 2.104 1_455 S
Sc96 O109 2.105 . S
Sc96 O112 2.105 . S
Sc96 O115 2.104 1_455 S
Sc97 O99 2.025 . S
Sc97 O107 2.104 1_455 S
Sc97 O111 2.105 . S
Sc97 O113 2.105 . S
Sc97 O117 2.104 1_455 S
Sc98 O99 2.025 . S
Sc98 O108 2.104 1_455 S
Sc98 O110 2.105 . S
Sc98 O114 2.105 . S
Sc98 O116 2.104 1_455 S
O99 Sc96 2.025 . S
O99 Sc97 2.025 . S
O99 Sc98 2.025 . S
C100 O106 1.268 . S
C100 O116 1.268 . S
C101 O107 1.268 . S
C101 O115 1.268 . S
C102 O108 1.268 . S
C102 O117 1.268 . S
C103 O109 1.268 . S
C103 O113 1.268 . S
C104 O110 1.268 . S
C104 O112 1.268 . S
C105 O111 1.268 . S
C105 O114 1.268 . S
O106 Sc96 2.104 1_655 S
O106 C100 1.268 . S
O107 Sc97 2.104 1_655 S
O107 C101 1.268 . S
O108 Sc98 2.104 1_655 S
O108 C102 1.268 . S
O109 Sc96 2.105 . S
O109 C103 1.268 . S
O110 Sc98 2.105 . S
O110 C104 1.268 . S
O111 Sc97 2.105 . S
O111 C105 1.268 . S
O112 Sc96 2.105 . S
O112 C104 1.268 . S
O113 Sc97 2.105 . S
O113 C103 1.268 . S
O114 Sc98 2.105 . S
O114 C105 1.268 . S
O115 Sc96 2.104 1_655 S
O115 C101 1.268 . S
O116 Sc98 2.104 1_655 S
O116 C100 1.268 . S
O117 Sc97 2.104 1_655 S
O117 C102 1.268 . S
Sc118 O121 2.025 . S
Sc118 O128 2.105 . S
Sc118 O131 2.104 1_455 S
Sc118 O134 2.104 1_455 S
Sc118 O137 2.105 . S
Sc119 O121 2.025 . S
Sc119 O129 2.105 . S
Sc119 O133 2.104 1_455 S
Sc119 O135 2.104 1_455 S
Sc119 O139 2.105 . S
Sc120 O121 2.025 . S
Sc120 O130 2.105 . S
Sc120 O132 2.104 1_455 S
Sc120 O136 2.104 1_455 S
Sc120 O138 2.105 . S
O121 Sc118 2.025 . S
O121 Sc119 2.025 . S
O121 Sc120 2.025 . S
C122 O128 1.268 . S
C122 O138 1.268 . S
C123 O129 1.268 . S
C123 O137 1.268 . S
C124 O130 1.268 . S
C124 O139 1.268 . S
C125 O131 1.268 . S
C125 O135 1.268 . S
C126 O132 1.268 . S
C126 O134 1.268 . S
C127 O133 1.268 . S
C127 O136 1.268 . S
O128 Sc118 2.105 . S
O128 C122 1.268 . S
O129 Sc119 2.105 . S
O129 C123 1.268 . S
O130 Sc120 2.105 . S
O130 C124 1.268 . S
O131 Sc118 2.104 1_655 S
O131 C125 1.268 . S
O132 Sc120 2.104 1_655 S
O132 C126 1.268 . S
O133 Sc119 2.104 1_655 S
O133 C127 1.268 . S
O134 Sc118 2.104 1_655 S
O134 C126 1.268 . S
O135 Sc119 2.104 1_655 S
O135 C125 1.268 . S
O136 Sc120 2.104 1_655 S
O136 C127 1.268 . S
O137 Sc118 2.105 . S
O137 C123 1.268 . S
O138 Sc120 2.105 . S
O138 C122 1.268 . S
O139 Sc119 2.105 . S
O139 C124 1.268 . S
Sc140 O143 2.025 . S
Sc140 O150 2.105 . S
Sc140 O153 2.105 . S
Sc140 O156 2.105 . S
Sc140 O159 2.105 . S
Sc141 O143 2.025 . S
Sc141 O151 2.105 . S
Sc141 O155 2.105 . S
Sc141 O157 2.105 . S
Sc141 O161 2.105 . S
Sc142 O143 2.025 . S
Sc142 O152 2.105 . S
Sc142 O154 2.105 . S
Sc142 O158 2.105 . S
Sc142 O160 2.105 . S
O143 Sc140 2.025 . S
O143 Sc141 2.025 . S
O143 Sc142 2.025 . S
C144 O150 1.268 . S
C144 O160 1.268 . S
C145 O151 1.268 . S
C145 O159 1.268 . S
C146 O152 1.268 . S
C146 O161 1.268 . S
C147 O153 1.268 . S
C147 O157 1.268 . S
C148 O154 1.268 . S
C148 O156 1.268 . S
C149 O155 1.268 . S
C149 O158 1.268 . S
O150 Sc140 2.105 . S
O150 C144 1.268 . S
O151 Sc141 2.105 . S
O151 C145 1.268 . S
O152 Sc142 2.105 . S
O152 C146 1.268 . S
O153 Sc140 2.105 . S
O153 C147 1.268 . S
O154 Sc142 2.105 . S
O154 C148 1.268 . S
O155 Sc141 2.105 . S
O155 C149 1.268 . S
O156 Sc140 2.105 . S
O156 C148 1.268 . S
O157 Sc141 2.105 . S
O157 C147 1.268 . S
O158 Sc142 2.105 . S
O158 C149 1.268 . S
O159 Sc140 2.105 . S
O159 C145 1.268 . S
O160 Sc142 2.105 . S
O160 C144 1.268 . S
O161 Sc141 2.105 . S
O161 C146 1.268 . S
Sc162 O165 2.025 . S
Sc162 O172 2.105 . S
Sc162 O175 2.105 . S
Sc162 O178 2.105 . S
Sc162 O181 2.105 . S
Sc163 O165 2.025 . S
Sc163 O173 2.105 . S
Sc163 O177 2.105 . S
Sc163 O179 2.105 . S
Sc163 O183 2.105 . S
Sc164 O165 2.025 . S
Sc164 O174 2.105 . S
Sc164 O176 2.105 . S
Sc164 O180 2.105 . S
Sc164 O182 2.105 . S
O165 Sc162 2.025 . S
O165 Sc163 2.025 . S
O165 Sc164 2.025 . S
C166 O172 1.268 . S
C166 O182 1.268 . S
C167 O173 1.268 . S
C167 O181 1.268 . S
C168 O174 1.268 . S
C168 O183 1.268 . S
C169 O175 1.268 . S
C169 O179 1.268 . S
C170 O176 1.268 . S
C170 O178 1.268 . S
C171 O177 1.268 . S
C171 O180 1.268 . S
O172 Sc162 2.105 . S
O172 C166 1.268 . S
O173 Sc163 2.105 . S
O173 C167 1.268 . S
O174 Sc164 2.105 . S
O174 C168 1.268 . S
O175 Sc162 2.105 . S
O175 C169 1.268 . S
O176 Sc164 2.105 . S
O176 C170 1.268 . S
O177 Sc163 2.105 . S
O177 C171 1.268 . S
O178 Sc162 2.105 . S
O178 C170 1.268 . S
O179 Sc163 2.105 . S
O179 C169 1.268 . S
O180 Sc164 2.105 . S
O180 C171 1.268 . S
O181 Sc162 2.105 . S
O181 C167 1.268 . S
O182 Sc164 2.105 . S
O182 C166 1.268 . S
O183 Sc163 2.105 . S
O183 C168 1.268 . S
H184 C190 0.930 . S
H185 C193 0.930 . S
H186 C194 0.930 . S
H187 C195 0.930 . S
H188 C198 0.930 . S
H189 C199 0.930 . S
C190 H184 0.930 . S
C190 C191 1.355 . S
C190 C192 1.415 . S
C191 C190 1.355 . S
C191 C193 1.419 . S
C192 C190 1.415 . S
C192 C197 1.425 . S
C192 C199 1.409 . S
C193 H185 0.930 . S
C193 C191 1.419 . S
C193 C194 1.362 . S
C194 H186 0.930 . S
C194 C193 1.362 . S
C194 C197 1.409 . S
C195 H187 0.930 . S
C195 C196 1.355 . S
C195 C197 1.415 . S
C196 C195 1.355 . S
C196 C198 1.419 . S
C197 C192 1.425 . S
C197 C194 1.409 . S
C197 C195 1.415 . S
C198 H188 0.930 . S
C198 C196 1.419 . S
C198 C199 1.362 . S
C199 H189 0.930 . S
C199 C192 1.409 . S
C199 C198 1.362 . S
H200 C206 0.930 . S
H201 C209 0.930 . S
H202 C210 0.930 . S
H203 C211 0.930 . S
H204 C214 0.930 . S
H205 C215 0.930 . S
C206 H200 0.930 . S
C206 C207 1.355 . S
C206 C208 1.415 . S
C207 C206 1.355 . S
C207 C209 1.419 . S
C208 C206 1.415 . S
C208 C213 1.425 . S
C208 C215 1.409 . S
C209 H201 0.930 . S
C209 C207 1.419 . S
C209 C210 1.362 . S
C210 H202 0.930 . S
C210 C209 1.362 . S
C210 C213 1.409 . S
C211 H203 0.930 . S
C211 C212 1.355 . S
C211 C213 1.415 . S
C212 C211 1.355 . S
C212 C214 1.419 . S
C213 C208 1.425 . S
C213 C210 1.409 . S
C213 C211 1.415 . S
C214 H204 0.930 . S
C214 C212 1.419 . S
C214 C215 1.362 . S
C215 H205 0.930 . S
C215 C208 1.409 . S
C215 C214 1.362 . S
H216 C222 0.930 1_554 S
H217 C225 0.930 . S
H218 C226 0.930 . S
H219 C227 0.930 . S
H220 C230 0.930 . S
H221 C231 0.930 . S
C222 H216 0.930 1_556 S
C222 C223 1.355 . S
C222 C224 1.415 . S
C223 C222 1.355 . S
C223 C225 1.419 . S
C224 C222 1.415 . S
C224 C229 1.425 . S
C224 C231 1.409 . S
C225 H217 0.930 . S
C225 C223 1.419 . S
C225 C226 1.362 . S
C226 H218 0.930 . S
C226 C225 1.362 . S
C226 C229 1.409 . S
C227 H219 0.930 . S
C227 C228 1.355 . S
C227 C229 1.415 . S
C228 C227 1.355 . S
C228 C230 1.419 . S
C229 C224 1.425 . S
C229 C226 1.409 . S
C229 C227 1.415 . S
C230 H220 0.930 . S
C230 C228 1.419 . S
C230 C231 1.362 . S
C231 H221 0.930 . S
C231 C224 1.409 . S
C231 C230 1.362 . S
H232 C238 0.930 . S
H233 C241 0.930 . S
H234 C242 0.930 . S
H235 C243 0.930 . S
H236 C246 0.930 . S
H237 C247 0.930 . S
C238 H232 0.930 . S
C238 C239 1.355 . S
C238 C240 1.415 . S
C239 C238 1.355 . S
C239 C241 1.419 . S
C240 C238 1.415 . S
C240 C245 1.425 . S
C240 C247 1.409 . S
C241 H233 0.930 . S
C241 C239 1.419 . S
C241 C242 1.362 . S
C242 H234 0.930 . S
C242 C241 1.362 . S
C242 C245 1.409 . S
C243 H235 0.930 . S
C243 C244 1.355 . S
C243 C245 1.415 . S
C244 C243 1.355 . S
C244 C246 1.419 . S
C245 C240 1.425 . S
C245 C242 1.409 . S
C245 C243 1.415 . S
C246 H236 0.930 . S
C246 C244 1.419 . S
C246 C247 1.362 . S
C247 H237 0.930 . S
C247 C240 1.409 . S
C247 C246 1.362 . S
H248 C254 0.930 . S
H249 C257 0.930 . S
H250 C258 0.930 . S
H251 C259 0.930 . S
H252 C262 0.930 . S
H253 C263 0.930 . S
C254 H248 0.930 . S
C254 C255 1.355 . S
C254 C256 1.415 . S
C255 C254 1.355 . S
C255 C257 1.419 . S
C256 C254 1.415 . S
C256 C261 1.425 . S
C256 C263 1.409 . S
C257 H249 0.930 . S
C257 C255 1.419 . S
C257 C258 1.362 . S
C258 H250 0.930 . S
C258 C257 1.362 . S
C258 C261 1.409 . S
C259 H251 0.930 . S
C259 C260 1.355 . S
C259 C261 1.415 . S
C260 C259 1.355 . S
C260 C262 1.419 . S
C261 C256 1.425 . S
C261 C258 1.409 . S
C261 C259 1.415 . S
C262 H252 0.930 . S
C262 C260 1.419 . S
C262 C263 1.362 . S
C263 H253 0.930 . S
C263 C256 1.409 . S
C263 C262 1.362 . S
H264 C270 0.930 . S
H265 C273 0.930 . S
H266 C274 0.930 . S
H267 C275 0.930 . S
H268 C278 0.930 . S
H269 C279 0.930 . S
C270 H264 0.930 . S
C270 C271 1.355 . S
C270 C272 1.415 . S
C271 C270 1.355 . S
C271 C273 1.419 . S
C272 C270 1.415 . S
C272 C277 1.425 . S
C272 C279 1.409 . S
C273 H265 0.930 . S
C273 C271 1.419 . S
C273 C274 1.362 . S
C274 H266 0.930 . S
C274 C273 1.362 . S
C274 C277 1.409 . S
C275 H267 0.930 . S
C275 C276 1.355 . S
C275 C277 1.415 . S
C276 C275 1.355 . S
C276 C278 1.419 . S
C277 C272 1.425 . S
C277 C274 1.409 . S
C277 C275 1.415 . S
C278 H268 0.930 . S
C278 C276 1.419 . S
C278 C279 1.362 . S
C279 H269 0.930 . S
C279 C272 1.409 . S
C279 C278 1.362 . S
H280 C286 0.930 . S
H281 C289 0.930 . S
H282 C290 0.930 . S
H283 C291 0.930 . S
H284 C294 0.930 . S
H285 C295 0.930 . S
C286 H280 0.930 . S
C286 C287 1.355 . S
C286 C288 1.415 . S
C287 C286 1.355 . S
C287 C289 1.419 . S
C288 C286 1.415 . S
C288 C293 1.425 . S
C288 C295 1.409 . S
C289 H281 0.930 . S
C289 C287 1.419 . S
C289 C290 1.362 . S
C290 H282 0.930 . S
C290 C289 1.362 . S
C290 C293 1.409 . S
C291 H283 0.930 . S
C291 C292 1.355 . S
C291 C293 1.415 . S
C292 C291 1.355 . S
C292 C294 1.419 . S
C293 C288 1.425 . S
C293 C290 1.409 . S
C293 C291 1.415 . S
C294 H284 0.930 . S
C294 C292 1.419 . S
C294 C295 1.362 . S
C295 H285 0.930 . S
C295 C288 1.409 . S
C295 C294 1.362 . S
H296 C302 0.930 . S
H297 C305 0.930 . S
H298 C306 0.930 . S
H299 C307 0.930 . S
H300 C310 0.930 . S
H301 C311 0.930 . S
C302 H296 0.930 . S
C302 C303 1.355 . S
C302 C304 1.415 . S
C303 C302 1.355 . S
C303 C305 1.419 . S
C304 C302 1.415 . S
C304 C309 1.425 . S
C304 C311 1.409 . S
C305 H297 0.930 . S
C305 C303 1.419 . S
C305 C306 1.362 . S
C306 H298 0.930 . S
C306 C305 1.362 . S
C306 C309 1.409 . S
C307 H299 0.930 . S
C307 C308 1.355 . S
C307 C309 1.415 . S
C308 C307 1.355 . S
C308 C310 1.419 . S
C309 C304 1.425 . S
C309 C306 1.409 . S
C309 C307 1.415 . S
C310 H300 0.930 . S
C310 C308 1.419 . S
C310 C311 1.362 . S
C311 H301 0.930 . S
C311 C304 1.409 . S
C311 C310 1.362 . S
H312 C318 0.930 . S
H313 C321 0.930 . S
H314 C322 0.930 . S
H315 C323 0.930 . S
H316 C326 0.930 . S
H317 C327 0.930 . S
C318 H312 0.930 . S
C318 C319 1.355 . S
C318 C320 1.415 . S
C319 C318 1.355 . S
C319 C321 1.419 . S
C320 C318 1.415 . S
C320 C325 1.425 . S
C320 C327 1.409 . S
C321 H313 0.930 . S
C321 C319 1.419 . S
C321 C322 1.362 . S
C322 H314 0.930 . S
C322 C321 1.362 . S
C322 C325 1.409 . S
C323 H315 0.930 . S
C323 C324 1.355 . S
C323 C325 1.415 . S
C324 C323 1.355 . S
C324 C326 1.419 . S
C325 C320 1.425 . S
C325 C322 1.409 . S
C325 C323 1.415 . S
C326 H316 0.930 . S
C326 C324 1.419 . S
C326 C327 1.362 . S
C327 H317 0.930 . S
C327 C320 1.409 . S
C327 C326 1.362 . S
H328 C334 0.930 . S
H329 C337 0.930 . S
H330 C338 0.930 . S
H331 C339 0.930 . S
H332 C342 0.930 . S
H333 C343 0.930 . S
C334 H328 0.930 . S
C334 C335 1.355 . S
C334 C336 1.415 . S
C335 C334 1.355 . S
C335 C337 1.419 . S
C336 C334 1.415 . S
C336 C341 1.425 . S
C336 C343 1.409 . S
C337 H329 0.930 . S
C337 C335 1.419 . S
C337 C338 1.362 . S
C338 H330 0.930 . S
C338 C337 1.362 . S
C338 C341 1.409 . S
C339 H331 0.930 . S
C339 C340 1.355 . S
C339 C341 1.415 . S
C340 C339 1.355 . S
C340 C342 1.419 . S
C341 C336 1.425 . S
C341 C338 1.409 . S
C341 C339 1.415 . S
C342 H332 0.930 . S
C342 C340 1.419 . S
C342 C343 1.362 . S
C343 H333 0.930 . S
C343 C336 1.409 . S
C343 C342 1.362 . S
H344 C350 0.930 . S
H345 C353 0.930 . S
H346 C354 0.930 . S
H347 C355 0.930 . S
H348 C358 0.930 . S
H349 C359 0.930 . S
C350 H344 0.930 . S
C350 C351 1.355 . S
C350 C352 1.415 . S
C351 C350 1.355 . S
C351 C353 1.419 . S
C352 C350 1.415 . S
C352 C357 1.425 . S
C352 C359 1.409 . S
C353 H345 0.930 . S
C353 C351 1.419 . S
C353 C354 1.362 . S
C354 H346 0.930 . S
C354 C353 1.362 . S
C354 C357 1.409 . S
C355 H347 0.930 . S
C355 C356 1.355 . S
C355 C357 1.415 . S
C356 C355 1.355 . S
C356 C358 1.419 . S
C357 C352 1.425 . S
C357 C354 1.409 . S
C357 C355 1.415 . S
C358 H348 0.930 . S
C358 C356 1.419 . S
C358 C359 1.362 . S
C359 H349 0.930 . S
C359 C352 1.409 . S
C359 C358 1.362 . S
H360 C366 0.930 . S
H361 C369 0.930 . S
H362 C370 0.930 . S
H363 C371 0.930 . S
H364 C374 0.930 . S
H365 C375 0.930 . S
C366 H360 0.930 . S
C366 C367 1.355 . S
C366 C368 1.415 . S
C367 C366 1.355 . S
C367 C369 1.419 . S
C368 C366 1.415 . S
C368 C373 1.425 . S
C368 C375 1.409 . S
C369 H361 0.930 . S
C369 C367 1.419 . S
C369 C370 1.362 . S
C370 H362 0.930 . S
C370 C369 1.362 . S
C370 C373 1.409 . S
C371 H363 0.930 . S
C371 C372 1.355 . S
C371 C373 1.415 . S
C372 C371 1.355 . S
C372 C374 1.419 . S
C373 C368 1.425 . S
C373 C370 1.409 . S
C373 C371 1.415 . S
C374 H364 0.930 . S
C374 C372 1.419 . S
C374 C375 1.362 . S
C375 H365 0.930 . S
C375 C368 1.409 . S
C375 C374 1.362 . S
H376 C382 0.930 1_554 S
H377 C385 0.930 . S
H378 C386 0.930 . S
H379 C387 0.930 . S
H380 C390 0.930 . S
H381 C391 0.930 1_565 S
C382 H376 0.930 1_556 S
C382 C383 1.355 . S
C382 C384 1.415 . S
C383 C382 1.355 . S
C383 C385 1.419 . S
C384 C382 1.415 . S
C384 C389 1.422 1_565 S
C384 C391 1.409 1_565 S
C385 H377 0.930 . S
C385 C383 1.419 . S
C385 C386 1.362 . S
C386 H378 0.930 . S
C386 C385 1.362 . S
C386 C389 1.405 1_565 S
C387 H379 0.930 . S
C387 C388 1.355 . S
C387 C389 1.423 . S
C388 C387 1.355 . S
C388 C390 1.419 . S
C389 C384 1.422 1_545 S
C389 C386 1.405 1_545 S
C389 C387 1.423 . S
C390 H380 0.930 . S
C390 C388 1.419 . S
C390 C391 1.362 . S
C391 H381 0.930 1_545 S
C391 C384 1.409 1_545 S
C391 C390 1.362 . S
H392 C398 0.930 . S
H393 C401 0.930 . S
H394 C402 0.930 . S
H395 C403 0.930 . S
H396 C406 0.930 . S
H397 C407 0.930 . S
C398 H392 0.930 . S
C398 C399 1.355 . S
C398 C400 1.415 1_545 S
C399 C398 1.355 . S
C399 C401 1.419 . S
C400 C398 1.415 1_565 S
C400 C405 1.425 1_565 S
C400 C407 1.409 . S
C401 H393 0.930 . S
C401 C399 1.419 . S
C401 C402 1.362 . S
C402 H394 0.930 . S
C402 C401 1.362 . S
C402 C405 1.409 . S
C403 H395 0.930 . S
C403 C404 1.355 . S
C403 C405 1.415 1_565 S
C404 C403 1.355 . S
C404 C406 1.419 . S
C405 C400 1.425 1_545 S
C405 C402 1.409 . S
C405 C403 1.415 1_545 S
C406 H396 0.930 . S
C406 C404 1.419 . S
C406 C407 1.362 . S
C407 H397 0.930 . S
C407 C400 1.409 . S
C407 C406 1.362 . S
H408 C414 0.930 . S
H409 C417 0.930 . S
H410 C418 0.930 . S
H411 C419 0.930 . S
H412 C422 0.930 . S
H413 C423 0.930 . S
C414 H408 0.930 . S
C414 C415 1.355 . S
C414 C416 1.415 . S
C415 C414 1.355 . S
C415 C417 1.419 . S
C416 C414 1.415 . S
C416 C421 1.425 1_565 S
C416 C423 1.409 . S
C417 H409 0.930 . S
C417 C415 1.419 . S
C417 C418 1.362 1_565 S
C418 H410 0.930 . S
C418 C417 1.362 1_545 S
C418 C421 1.409 . S
C419 H411 0.930 . S
C419 C420 1.355 . S
C419 C421 1.415 . S
C420 C419 1.355 . S
C420 C422 1.419 . S
C421 C416 1.425 1_545 S
C421 C418 1.409 . S
C421 C419 1.415 . S
C422 H412 0.930 . S
C422 C420 1.419 . S
C422 C423 1.362 1_545 S
C423 H413 0.930 . S
C423 C416 1.409 . S
C423 C422 1.362 1_565 S
H424 C430 0.930 . S
H425 C433 0.926 1_565 S
H426 C434 0.930 . S
H427 C435 0.930 . S
H428 C438 0.930 . S
H429 C439 0.930 . S
C430 H424 0.930 . S
C430 C431 1.355 . S
C430 C432 1.415 . S
C431 C430 1.355 . S
C431 C433 1.419 . S
C432 C430 1.415 . S
C432 C437 1.425 1_545 S
C432 C439 1.409 . S
C433 H425 0.926 1_545 S
C433 C431 1.419 . S
C433 C434 1.362 1_545 S
C434 H426 0.930 . S
C434 C433 1.362 1_565 S
C434 C437 1.409 . S
C435 H427 0.930 . S
C435 C436 1.355 . S
C435 C437 1.415 . S
C436 C435 1.355 . S
C436 C438 1.419 1_565 S
C437 C432 1.425 1_565 S
C437 C434 1.409 . S
C437 C435 1.415 . S
C438 H428 0.930 . S
C438 C436 1.419 1_545 S
C438 C439 1.362 . S
C439 H429 0.930 . S
C439 C432 1.409 . S
C439 C438 1.362 . S
H440 C446 0.930 . S
H441 C449 0.930 . S
H442 C450 0.930 . S
H443 C451 0.930 . S
H444 C454 0.930 . S
H445 C455 0.930 . S
C446 H440 0.930 . S
C446 C447 1.355 . S
C446 C448 1.415 . S
C447 C446 1.355 . S
C447 C449 1.419 . S
C448 C446 1.415 . S
C448 C453 1.425 . S
C448 C455 1.409 . S
C449 H441 0.930 . S
C449 C447 1.419 . S
C449 C450 1.362 . S
C450 H442 0.930 . S
C450 C449 1.362 . S
C450 C453 1.409 . S
C451 H443 0.930 . S
C451 C452 1.355 . S
C451 C453 1.415 . S
C452 C451 1.355 . S
C452 C454 1.419 . S
C453 C448 1.425 . S
C453 C450 1.409 . S
C453 C451 1.415 . S
C454 H444 0.930 . S
C454 C452 1.419 . S
C454 C455 1.362 . S
C455 H445 0.930 . S
C455 C448 1.409 . S
C455 C454 1.362 . S
H456 C462 0.930 . S
H457 C465 0.930 . S
H458 C466 0.930 . S
H459 C467 0.930 . S
H460 C470 0.930 . S
H461 C471 0.930 . S
C462 H456 0.930 . S
C462 C463 1.355 . S
C462 C464 1.415 . S
C463 C462 1.355 . S
C463 C465 1.419 . S
C464 C462 1.415 . S
C464 C469 1.425 . S
C464 C471 1.409 . S
C465 H457 0.930 . S
C465 C463 1.419 . S
C465 C466 1.362 . S
C466 H458 0.930 . S
C466 C465 1.362 . S
C466 C469 1.409 . S
C467 H459 0.930 . S
C467 C468 1.355 . S
C467 C469 1.415 . S
C468 C467 1.355 . S
C468 C470 1.419 . S
C469 C464 1.425 . S
C469 C466 1.409 . S
C469 C467 1.415 . S
C470 H460 0.930 . S
C470 C468 1.419 . S
C470 C471 1.362 . S
C471 H461 0.930 . S
C471 C464 1.409 . S
C471 C470 1.362 . S
H472 C478 0.930 . S
H473 C481 0.930 . S
H474 C482 0.930 . S
H475 C483 0.930 . S
H476 C486 0.930 . S
H477 C487 0.930 . S
C478 H472 0.930 . S
C478 C479 1.355 . S
C478 C480 1.415 . S
C479 C478 1.355 . S
C479 C481 1.419 . S
C480 C478 1.415 . S
C480 C485 1.425 . S
C480 C487 1.409 . S
C481 H473 0.930 . S
C481 C479 1.419 . S
C481 C482 1.362 . S
C482 H474 0.930 . S
C482 C481 1.362 . S
C482 C485 1.409 . S
C483 H475 0.930 . S
C483 C484 1.355 . S
C483 C485 1.415 . S
C484 C483 1.355 . S
C484 C486 1.419 . S
C485 C480 1.425 . S
C485 C482 1.409 . S
C485 C483 1.415 . S
C486 H476 0.930 . S
C486 C484 1.419 . S
C486 C487 1.362 . S
C487 H477 0.930 . S
C487 C480 1.409 . S
C487 C486 1.362 . S
H488 C494 0.930 . S
H489 C497 0.930 . S
H490 C498 0.930 . S
H491 C499 0.930 . S
H492 C502 0.930 . S
H493 C503 0.930 . S
C494 H488 0.930 . S
C494 C495 1.355 . S
C494 C496 1.415 . S
C495 C494 1.355 . S
C495 C497 1.419 . S
C496 C494 1.415 . S
C496 C501 1.425 . S
C496 C503 1.409 . S
C497 H489 0.930 . S
C497 C495 1.419 . S
C497 C498 1.362 . S
C498 H490 0.930 . S
C498 C497 1.362 . S
C498 C501 1.409 . S
C499 H491 0.930 . S
C499 C500 1.355 . S
C499 C501 1.415 . S
C500 C499 1.355 . S
C500 C502 1.419 . S
C501 C496 1.425 . S
C501 C498 1.409 . S
C501 C499 1.415 . S
C502 H492 0.930 . S
C502 C500 1.419 . S
C502 C503 1.362 . S
C503 H493 0.930 . S
C503 C496 1.409 . S
C503 C502 1.362 . S
H504 C510 0.930 . S
H505 C513 0.930 . S
H506 C514 0.930 . S
H507 C515 0.930 . S
H508 C518 0.930 . S
H509 C519 0.930 . S
C510 H504 0.930 . S
C510 C511 1.355 . S
C510 C512 1.415 . S
C511 C510 1.355 . S
C511 C513 1.419 . S
C512 C510 1.415 . S
C512 C517 1.425 . S
C512 C519 1.409 . S
C513 H505 0.930 . S
C513 C511 1.419 . S
C513 C514 1.362 . S
C514 H506 0.930 . S
C514 C513 1.362 . S
C514 C517 1.409 . S
C515 H507 0.930 . S
C515 C516 1.355 . S
C515 C517 1.415 . S
C516 C515 1.355 . S
C516 C518 1.419 . S
C517 C512 1.425 . S
C517 C514 1.409 . S
C517 C515 1.415 . S
C518 H508 0.930 . S
C518 C516 1.419 . S
C518 C519 1.362 . S
C519 H509 0.930 . S
C519 C512 1.409 . S
C519 C518 1.362 . S
H520 C526 0.930 . S
H521 C529 0.930 . S
H522 C530 0.930 . S
H523 C531 0.930 . S
H524 C534 0.930 . S
H525 C535 0.930 . S
C526 H520 0.930 . S
C526 C527 1.355 . S
C526 C528 1.415 . S
C527 C526 1.355 . S
C527 C529 1.419 . S
C528 C526 1.415 . S
C528 C533 1.425 . S
C528 C535 1.409 . S
C529 H521 0.930 . S
C529 C527 1.419 . S
C529 C530 1.362 . S
C530 H522 0.930 . S
C530 C529 1.362 . S
C530 C533 1.409 . S
C531 H523 0.930 . S
C531 C532 1.355 . S
C531 C533 1.415 . S
C532 C531 1.355 . S
C532 C534 1.419 . S
C533 C528 1.425 . S
C533 C530 1.409 . S
C533 C531 1.415 . S
C534 H524 0.930 . S
C534 C532 1.419 . S
C534 C535 1.362 . S
C535 H525 0.930 . S
C535 C528 1.409 . S
C535 C534 1.362 . S
H536 C542 0.930 . S
H537 C545 0.930 . S
H538 C546 0.930 . S
H539 C547 0.930 . S
H540 C550 0.930 . S
H541 C551 0.930 . S
C542 H536 0.930 . S
C542 C543 1.355 . S
C542 C544 1.415 . S
C543 C542 1.355 . S
C543 C545 1.419 . S
C544 C542 1.415 . S
C544 C549 1.425 . S
C544 C551 1.409 . S
C545 H537 0.930 . S
C545 C543 1.419 . S
C545 C546 1.362 . S
C546 H538 0.930 . S
C546 C545 1.362 . S
C546 C549 1.409 . S
C547 H539 0.930 . S
C547 C548 1.355 . S
C547 C549 1.415 . S
C548 C547 1.355 . S
C548 C550 1.419 . S
C549 C544 1.425 . S
C549 C546 1.409 . S
C549 C547 1.415 . S
C550 H540 0.930 . S
C550 C548 1.419 . S
C550 C551 1.362 . S
C551 H541 0.930 . S
C551 C544 1.409 . S
C551 C550 1.362 . S
H552 C558 0.930 . S
H553 C561 0.930 . S
H554 C562 0.930 . S
H555 C563 0.930 . S
H556 C566 0.930 . S
H557 C567 0.930 . S
C558 H552 0.930 . S
C558 C559 1.355 . S
C558 C560 1.415 . S
C559 C558 1.355 . S
C559 C561 1.419 . S
C560 C558 1.415 . S
C560 C565 1.425 . S
C560 C567 1.409 . S
C561 H553 0.930 . S
C561 C559 1.419 . S
C561 C562 1.362 . S
C562 H554 0.930 . S
C562 C561 1.362 . S
C562 C565 1.409 . S
C563 H555 0.930 . S
C563 C564 1.355 . S
C563 C565 1.415 . S
C564 C563 1.355 . S
C564 C566 1.419 . S
C565 C560 1.425 . S
C565 C562 1.409 . S
C565 C563 1.415 . S
C566 H556 0.930 . S
C566 C564 1.419 . S
C566 C567 1.362 . S
C567 H557 0.930 . S
C567 C560 1.409 . S
C567 C566 1.362 . S
C191 C4 1.533 . S
C196 C122 1.495 . S
C212 C100 1.533 . S
C207 C16 1.534 . S
C228 C126 1.511 . S
C223 C28 1.512 . S
C244 C104 1.538 . S
C239 C40 1.540 . S
C260 C166 1.492 . S
C255 C52 1.530 . S
C276 C144 1.529 . S
C271 C64 1.531 . S
C287 C76 1.504 . S
C292 C170 1.487 . S
C308 C148 1.533 . S
C303 C88 1.544 . S
C319 C9 1.477 . S
C324 C171 1.523 . S
C340 C149 1.501 . S
C335 C21 1.510 . S
C351 C33 1.474 . S
C356 C168 1.531 . S
C367 C45 1.520 . S
C372 C146 1.495 . S
C388 C127 1.494 . S
C383 C57 1.519 . S
C399 C69 1.463 . S
C404 C105 1.531 . S
C420 C124 1.495 . S
C415 C81 1.524 . S
C436 C102 1.496 . S
C431 C93 1.518 . S
C452 C145 1.453 . S
C447 C6 1.495 . S
C468 C167 1.454 . S
C463 C18 1.490 . S
C479 C30 1.486 . S
C484 C147 1.472 . S
C500 C169 1.459 . S
C495 C42 1.495 . S
C516 C101 1.460 . S
C511 C54 1.492 . S
C527 C66 1.493 . S
C532 C123 1.453 . S
C543 C78 1.493 . S
C548 C103 1.461 . S
C559 C90 1.473 . S
C564 C125 1.494 . S
