# Generated by pormake.
# Topology pyr, (3,6)-cn, num edge types: 1
# Building blocks:
#     Node 0, Type 0, BuildingBlock: VETTIZ_charged_linker_0, # of connection points: 3
#     Node 1, Type 0, BuildingBlock: VETTIZ_charged_linker_0, # of connection points: 3
#     Node 2, Type 0, BuildingBlock: VETTIZ_charged_linker_0, # of connection points: 3
#     Node 3, Type 0, BuildingBlock: VETTIZ_charged_linker_0, # of connection points: 3
#     Node 4, Type 0, BuildingBlock: VETTIZ_charged_linker_0, # of connection points: 3
#     Node 5, Type 0, BuildingBlock: VETTIZ_charged_linker_0, # of connection points: 3
#     Node 6, Type 0, BuildingBlock: VETTIZ_charged_linker_0, # of connection points: 3
#     Node 7, Type 0, BuildingBlock: VETTIZ_charged_linker_0, # of connection points: 3
#     Node 8, Type 1, BuildingBlock: BETGAK_clean_sbu_0, # of connection points: 6
#     Node 9, Type 1, BuildingBlock: BETGAK_clean_sbu_0, # of connection points: 6
#     Node 10, Type 1, BuildingBlock: BETGAK_clean_sbu_0, # of connection points: 6
#     Node 11, Type 1, BuildingBlock: BETGAK_clean_sbu_0, # of connection points: 6
#     Edge 12, Type (0, 1), BuildingBlock: UVAHIK_clean_linker_0, # of connection points: 2
#     Edge 13, Type (0, 1), BuildingBlock: UVAHIK_clean_linker_0, # of connection points: 2
#     Edge 14, Type (0, 1), BuildingBlock: UVAHIK_clean_linker_0, # of connection points: 2
#     Edge 15, Type (0, 1), BuildingBlock: UVAHIK_clean_linker_0, # of connection points: 2
#     Edge 16, Type (0, 1), BuildingBlock: UVAHIK_clean_linker_0, # of connection points: 2
#     Edge 17, Type (0, 1), BuildingBlock: UVAHIK_clean_linker_0, # of connection points: 2
#     Edge 18, Type (0, 1), BuildingBlock: UVAHIK_clean_linker_0, # of connection points: 2
#     Edge 19, Type (0, 1), BuildingBlock: UVAHIK_clean_linker_0, # of connection points: 2
#     Edge 20, Type (0, 1), BuildingBlock: UVAHIK_clean_linker_0, # of connection points: 2
#     Edge 21, Type (0, 1), BuildingBlock: UVAHIK_clean_linker_0, # of connection points: 2
#     Edge 22, Type (0, 1), BuildingBlock: UVAHIK_clean_linker_0, # of connection points: 2
#     Edge 23, Type (0, 1), BuildingBlock: UVAHIK_clean_linker_0, # of connection points: 2
#     Edge 24, Type (0, 1), BuildingBlock: UVAHIK_clean_linker_0, # of connection points: 2
#     Edge 25, Type (0, 1), BuildingBlock: UVAHIK_clean_linker_0, # of connection points: 2
#     Edge 26, Type (0, 1), BuildingBlock: UVAHIK_clean_linker_0, # of connection points: 2
#     Edge 27, Type (0, 1), BuildingBlock: UVAHIK_clean_linker_0, # of connection points: 2
#     Edge 28, Type (0, 1), BuildingBlock: UVAHIK_clean_linker_0, # of connection points: 2
#     Edge 29, Type (0, 1), BuildingBlock: UVAHIK_clean_linker_0, # of connection points: 2
#     Edge 30, Type (0, 1), BuildingBlock: UVAHIK_clean_linker_0, # of connection points: 2
#     Edge 31, Type (0, 1), BuildingBlock: UVAHIK_clean_linker_0, # of connection points: 2
#     Edge 32, Type (0, 1), BuildingBlock: UVAHIK_clean_linker_0, # of connection points: 2
#     Edge 33, Type (0, 1), BuildingBlock: UVAHIK_clean_linker_0, # of connection points: 2
#     Edge 34, Type (0, 1), BuildingBlock: UVAHIK_clean_linker_0, # of connection points: 2
#     Edge 35, Type (0, 1), BuildingBlock: UVAHIK_clean_linker_0, # of connection points: 2
# Relax obj value: 0.074
# Max RMSD: 0.116
# Mean RMSD: 0.054
data_MOF--net-pyr--node1-BETGAK_clean_sbu_0--node2-VETTIZ_charged_linker_0--edge1-UVAHIK_clean_linker_0
_symmetry_space_group_name_H-M    P1
_symmetry_Int_Tables_number       1
_symmetry_cell_setting            triclinic
loop_
_symmetry_equiv_pos_as_xyz
'x, y, z'
_cell_length_a     57.88488
_cell_length_b     59.549271
_cell_length_c     53.660261
_cell_angle_alpha  90.329523
_cell_angle_beta   88.475717
_cell_angle_gamma 99.171239
loop_
_atom_site_label
_atom_site_type_symbol
_atom_site_fract_x
_atom_site_fract_y
_atom_site_fract_z
_atom_type_partial_charge
C0 C 0.26314 0.24876 0.30515 0.0
C1 C 0.24794 0.26207 0.31683 0.0
C2 C 0.24569 0.28321 0.30626 0.0
C3 C 0.27107 0.27612 0.27146 0.0
C4 C 0.27453 0.25613 0.28261 0.0
C5 C 0.29026 0.24347 0.26707 0.0
H6 H 0.35072 0.23321 0.159 0.0
C7 C 0.28351 0.27776 0.24699 0.0
C8 C 0.2951 0.25888 0.24445 0.0
H9 H 0.34277 0.18853 0.22289 0.0
H10 H 0.32001 0.2134 0.24471 0.0
H11 H 0.35846 0.28176 0.19 0.0
H12 H 0.2976 0.24042 0.15984 0.0
H13 H 0.29513 0.26893 0.1544 0.0
H14 H 0.31927 0.25729 0.14032 0.0
H15 H 0.35398 0.27852 0.1571 0.0
H16 H 0.34181 0.29976 0.17501 0.0
C17 C 0.31272 0.2425 0.28185 0.0
C18 C 0.27625 0.21989 0.26036 0.0
C19 C 0.26857 0.33785 0.18568 0.0
C20 C 0.27524 0.34228 0.16057 0.0
C21 C 0.29165 0.33 0.14923 0.0
C22 C 0.30046 0.31301 0.16238 0.0
C23 C 0.29266 0.30807 0.18709 0.0
C24 C 0.27739 0.32081 0.19847 0.0
C25 C 0.2706 0.3131 0.22462 0.0
C26 C 0.28384 0.29322 0.22692 0.0
C27 C 0.29665 0.29024 0.20486 0.0
C28 C 0.27969 0.33273 0.24273 0.0
C29 C 0.2437 0.3054 0.22587 0.0
C30 C 0.34426 0.22901 0.17781 0.0
C31 C 0.34851 0.20896 0.18933 0.0
C32 C 0.33953 0.20381 0.21363 0.0
C33 C 0.32641 0.21832 0.22628 0.0
C34 C 0.32189 0.23808 0.2144 0.0
C35 C 0.33079 0.24319 0.19058 0.0
C36 C 0.32329 0.2644 0.18055 0.0
C37 C 0.30892 0.27143 0.20251 0.0
C38 C 0.30814 0.25588 0.22222 0.0
C39 C 0.34545 0.28211 0.17516 0.0
C40 C 0.30815 0.25764 0.15746 0.0
H41 H 0.25429 0.3063 0.27632 0.0
H42 H 0.26524 0.23238 0.31265 0.0
H43 H 0.25759 0.22116 0.25709 0.0
H44 H 0.28251 0.21275 0.24289 0.0
H45 H 0.27661 0.20747 0.27565 0.0
H46 H 0.31743 0.25814 0.29327 0.0
H47 H 0.31029 0.22772 0.29472 0.0
H48 H 0.32827 0.24185 0.26963 0.0
H49 H 0.25578 0.34667 0.19495 0.0
H50 H 0.29739 0.33328 0.13004 0.0
H51 H 0.31262 0.30403 0.15263 0.0
H52 H 0.29552 0.34374 0.23487 0.0
H53 H 0.26621 0.34374 0.24658 0.0
H54 H 0.2854 0.32649 0.26058 0.0
H55 H 0.23772 0.29574 0.20879 0.0
H56 H 0.23771 0.29378 0.24146 0.0
H57 H 0.23435 0.32028 0.22731 0.0
H58 H 0.23454 0.29405 0.31514 0.0
C59 C 0.25721 0.29032 0.28371 0.0
C60 C 0.21206 0.86468 0.59309 0.0
C61 C 0.19934 0.8746 0.61176 0.0
C62 C 0.20884 0.87798 0.6357 0.0
C63 C 0.24422 0.86478 0.62113 0.0
C64 C 0.23429 0.85973 0.59826 0.0
C65 C 0.25018 0.84909 0.58069 0.0
H66 H 0.35568 0.81672 0.55825 0.0
C67 C 0.26825 0.85957 0.61982 0.0
C68 C 0.27182 0.8501 0.59632 0.0
H69 H 0.29416 0.80297 0.51335 0.0
H70 H 0.27326 0.82447 0.54226 0.0
H71 H 0.35017 0.8703 0.57377 0.0
H72 H 0.33003 0.80455 0.6079 0.0
H73 H 0.33993 0.82376 0.6317 0.0
H74 H 0.35985 0.81865 0.60668 0.0
H75 H 0.37101 0.85449 0.5865 0.0
H76 H 0.35632 0.87314 0.60564 0.0
C77 C 0.2551 0.86416 0.55715 0.0
C78 C 0.23855 0.82426 0.57536 0.0
C79 C 0.32239 0.88329 0.69119 0.0
C80 C 0.34602 0.88196 0.69524 0.0
C81 C 0.35903 0.87235 0.67657 0.0
C82 C 0.34856 0.86405 0.65434 0.0
C83 C 0.32483 0.86538 0.65074 0.0
C84 C 0.31222 0.8749 0.66904 0.0
C85 C 0.28727 0.87504 0.66217 0.0
C86 C 0.28692 0.864 0.63663 0.0
C87 C 0.30893 0.85844 0.62999 0.0
C88 C 0.28344 0.90018 0.66085 0.0
C89 C 0.27102 0.8603 0.68134 0.0
C90 C 0.33792 0.81891 0.55428 0.0
C91 C 0.32659 0.80849 0.53339 0.0
C92 C 0.3032 0.811 0.52929 0.0
C93 C 0.2911 0.82329 0.54617 0.0
C94 C 0.30241 0.83279 0.56755 0.0
C95 C 0.32549 0.83065 0.5712 0.0
C96 C 0.33422 0.84037 0.59576 0.0
C97 C 0.31241 0.84824 0.60652 0.0
C98 C 0.29393 0.84403 0.58981 0.0
C99 C 0.3541 0.86056 0.59035 0.0
C100 C 0.34159 0.821 0.61141 0.0
H101 H 0.23763 0.87678 0.6588 0.0
H102 H 0.20538 0.86164 0.57453 0.0
H103 H 0.22582 0.81752 0.59046 0.0
H104 H 0.25138 0.81232 0.57465 0.0
H105 H 0.22891 0.82306 0.55766 0.0
H106 H 0.25932 0.88242 0.56245 0.0
H107 H 0.23959 0.86215 0.54511 0.0
H108 H 0.27024 0.86041 0.54586 0.0
H109 H 0.31198 0.89095 0.7049 0.0
H110 H 0.37722 0.87096 0.67929 0.0
H111 H 0.35931 0.85682 0.6409 0.0
H112 H 0.29864 0.9108 0.65131 0.0
H113 H 0.28153 0.9073 0.67984 0.0
H114 H 0.2681 0.9026 0.65007 0.0
H115 H 0.28005 0.84729 0.69005 0.0
H116 H 0.25551 0.85033 0.67262 0.0
H117 H 0.26512 0.8709 0.6966 0.0
H118 H 0.19918 0.88475 0.65076 0.0
C119 C 0.2312 0.87325 0.64041 0.0
C120 C 0.63782 0.28737 0.90001 0.0
C121 C 0.61726 0.27417 0.89114 0.0
C122 C 0.60607 0.28279 0.87099 0.0
C123 C 0.63556 0.31689 0.86924 0.0
C124 C 0.64658 0.30845 0.88887 0.0
C125 C 0.66831 0.32431 0.89612 0.0
H126 H 0.74429 0.42246 0.87871 0.0
C127 C 0.64921 0.33941 0.86205 0.0
C128 C 0.66844 0.34376 0.87784 0.0
H129 H 0.74701 0.36918 0.93255 0.0
H130 H 0.71131 0.34825 0.91718 0.0
H131 H 0.68886 0.42312 0.88645 0.0
H132 H 0.72691 0.38879 0.83203 0.0
H133 H 0.7058 0.40148 0.81664 0.0
H134 H 0.72869 0.41917 0.83301 0.0
H135 H 0.70523 0.43807 0.86107 0.0
H136 H 0.6753 0.42441 0.85773 0.0
C137 C 0.66484 0.33197 0.92343 0.0
C138 C 0.68958 0.3118 0.89164 0.0
C139 C 0.62235 0.38557 0.79113 0.0
C140 C 0.63075 0.40737 0.78128 0.0
C141 C 0.65101 0.42002 0.79153 0.0
C142 C 0.66269 0.41126 0.811 0.0
C143 C 0.65406 0.38957 0.82073 0.0
C144 C 0.63409 0.37715 0.81091 0.0
C145 C 0.62698 0.35477 0.8243 0.0
C146 C 0.64603 0.35571 0.84353 0.0
C147 C 0.662 0.37613 0.84123 0.0
C148 C 0.60254 0.3548 0.83673 0.0
C149 C 0.62795 0.33533 0.80525 0.0
C150 C 0.73713 0.40636 0.8873 0.0
C151 C 0.74894 0.39747 0.90679 0.0
C152 C 0.73882 0.37634 0.91721 0.0
C153 C 0.71787 0.36419 0.90834 0.0
C154 C 0.70651 0.37309 0.88872 0.0
C155 C 0.71607 0.3939 0.87859 0.0
C156 C 0.70132 0.40067 0.85795 0.0
C157 C 0.68158 0.38038 0.8572 0.0
C158 C 0.68475 0.36429 0.87535 0.0
C159 C 0.69225 0.4228 0.86595 0.0
C160 C 0.71636 0.40283 0.83355 0.0
H161 H 0.60563 0.30944 0.84489 0.0
H162 H 0.64719 0.2813 0.91514 0.0
H163 H 0.68699 0.30039 0.87511 0.0
H164 H 0.706 0.32348 0.88734 0.0
H165 H 0.69221 0.30116 0.90793 0.0
H166 H 0.64632 0.33405 0.92731 0.0
H167 H 0.66929 0.31923 0.9368 0.0
H168 H 0.67513 0.34875 0.92766 0.0
H169 H 0.60669 0.37548 0.78397 0.0
H170 H 0.65804 0.43671 0.78426 0.0
H171 H 0.67803 0.42178 0.81778 0.0
H172 H 0.60089 0.372 0.84409 0.0
H173 H 0.58843 0.34998 0.82317 0.0
H174 H 0.59923 0.34343 0.85304 0.0
H175 H 0.64353 0.33936 0.79252 0.0
H176 H 0.62975 0.31904 0.81411 0.0
H177 H 0.61214 0.33274 0.79362 0.0
H178 H 0.59008 0.2733 0.86384 0.0
C179 C 0.61505 0.30394 0.86007 0.0
C180 C 0.8893 0.76152 0.3866 0.0
C181 C 0.88079 0.77264 0.40741 0.0
C182 C 0.85972 0.76249 0.41932 0.0
C183 C 0.8561 0.73082 0.39026 0.0
C184 C 0.87677 0.7406 0.37849 0.0
C185 C 0.88355 0.72598 0.35725 0.0
H186 H 0.85743 0.63091 0.28576 0.0
C187 C 0.84732 0.70913 0.37743 0.0
C188 C 0.86335 0.70611 0.35803 0.0
H189 H 0.91944 0.6822 0.28095 0.0
H190 H 0.90464 0.70266 0.31511 0.0
H191 H 0.85738 0.62714 0.34534 0.0
H192 H 0.82009 0.66496 0.29634 0.0
H193 H 0.80033 0.65286 0.31987 0.0
H194 H 0.81372 0.63455 0.29903 0.0
H195 H 0.83356 0.61364 0.32705 0.0
H196 H 0.82868 0.62536 0.35746 0.0
C197 C 0.90713 0.71839 0.36337 0.0
C198 C 0.88417 0.73978 0.33284 0.0
C199 C 0.77054 0.66171 0.40736 0.0
C200 C 0.75759 0.64097 0.39938 0.0
C201 C 0.76632 0.62976 0.37875 0.0
C202 C 0.7874 0.63896 0.36641 0.0
C203 C 0.80013 0.65964 0.37469 0.0
C204 C 0.79159 0.67065 0.39484 0.0
C205 C 0.80739 0.69244 0.40111 0.0
C206 C 0.82685 0.6927 0.38147 0.0
C207 C 0.82254 0.67345 0.36601 0.0
C208 C 0.81635 0.69023 0.42782 0.0
C209 C 0.79348 0.71235 0.39765 0.0
C210 C 0.86805 0.6464 0.2921 0.0
C211 C 0.88972 0.65481 0.28018 0.0
C212 C 0.90252 0.67536 0.28917 0.0
C213 C 0.89399 0.6872 0.30928 0.0
C214 C 0.8724 0.67848 0.32092 0.0
C215 C 0.85991 0.65831 0.31235 0.0
C216 C 0.83764 0.65115 0.3274 0.0
C217 C 0.83874 0.67034 0.34634 0.0
C218 C 0.8591 0.68647 0.34241 0.0
C219 C 0.83913 0.62805 0.33991 0.0
C220 C 0.81673 0.65065 0.30987 0.0
H221 H 0.83149 0.73513 0.42086 0.0
H222 H 0.90554 0.7687 0.37716 0.0
H223 H 0.86893 0.74902 0.33233 0.0
H224 H 0.88298 0.729 0.316 0.0
H225 H 0.90035 0.75258 0.33131 0.0
H226 H 0.90834 0.71558 0.38375 0.0
H227 H 0.92216 0.73148 0.35758 0.0
H228 H 0.90925 0.70195 0.35471 0.0
H229 H 0.76463 0.67071 0.42329 0.0
H230 H 0.75666 0.61396 0.37189 0.0
H231 H 0.79295 0.62959 0.35082 0.0
H232 H 0.81872 0.67241 0.43171 0.0
H233 H 0.80378 0.69508 0.44208 0.0
H234 H 0.83376 0.70042 0.43068 0.0
H235 H 0.7816 0.70907 0.38161 0.0
H236 H 0.80481 0.72863 0.39315 0.0
H237 H 0.78254 0.71468 0.41449 0.0
H238 H 0.85256 0.77073 0.43512 0.0
C239 C 0.84739 0.74179 0.4109 0.0
C240 C 0.73012 0.7235 0.89533 0.0
C241 C 0.74469 0.70905 0.88459 0.0
C242 C 0.74764 0.70853 0.85846 0.0
C243 C 0.72516 0.73919 0.85458 0.0
C244 C 0.7203 0.73823 0.87991 0.0
C245 C 0.70495 0.75528 0.88799 0.0
H246 H 0.6553 0.84733 0.85991 0.0
C247 C 0.71518 0.7583 0.84425 0.0
C248 C 0.70266 0.76743 0.86352 0.0
H249 H 0.65137 0.81129 0.92993 0.0
H250 H 0.67343 0.78381 0.91165 0.0
H251 H 0.64807 0.80143 0.82233 0.0
H252 H 0.70589 0.84788 0.8503 0.0
H253 H 0.71634 0.83827 0.82191 0.0
H254 H 0.69195 0.85375 0.82221 0.0
H255 H 0.65496 0.83102 0.81428 0.0
H256 H 0.6681 0.80983 0.79742 0.0
C257 C 0.68115 0.7421 0.8976 0.0
C258 C 0.71821 0.77135 0.90751 0.0
C259 C 0.74726 0.79148 0.76153 0.0
C260 C 0.74583 0.81225 0.7499 0.0
C261 C 0.72822 0.8247 0.75787 0.0
C262 C 0.71374 0.81758 0.77867 0.0
C263 C 0.71715 0.79801 0.79174 0.0
C264 C 0.73307 0.78485 0.78254 0.0
C265 C 0.73522 0.76523 0.79937 0.0
C266 C 0.7188 0.76946 0.82084 0.0
C267 C 0.70836 0.78872 0.81631 0.0
C268 C 0.7264 0.74275 0.7854 0.0
C269 C 0.76107 0.76776 0.80741 0.0
C270 C 0.65884 0.83327 0.87114 0.0
C271 C 0.65154 0.83135 0.89632 0.0
C272 C 0.65696 0.81314 0.91052 0.0
C273 C 0.66969 0.79719 0.89986 0.0
C274 C 0.67741 0.79967 0.87482 0.0
C275 C 0.67181 0.81739 0.86086 0.0
C276 C 0.68247 0.81807 0.83495 0.0
C277 C 0.69468 0.79733 0.83538 0.0
C278 C 0.69179 0.78671 0.85882 0.0
C279 C 0.66245 0.81507 0.81609 0.0
C280 C 0.69997 0.84063 0.83196 0.0
H281 H 0.74134 0.72281 0.82373 0.0
H282 H 0.7271 0.72385 0.91533 0.0
H283 H 0.73692 0.77621 0.90168 0.0
H284 H 0.71141 0.78752 0.9098 0.0
H285 H 0.71762 0.76293 0.92599 0.0
H286 H 0.67682 0.72542 0.88797 0.0
H287 H 0.68142 0.73868 0.91791 0.0
H288 H 0.66633 0.75109 0.89374 0.0
H289 H 0.76039 0.78141 0.75545 0.0
H290 H 0.72673 0.84075 0.74915 0.0
H291 H 0.70132 0.82822 0.78457 0.0
H292 H 0.71471 0.74542 0.76993 0.0
H293 H 0.74121 0.73517 0.77717 0.0
H294 H 0.71563 0.73005 0.79768 0.0
H295 H 0.76753 0.7856 0.81313 0.0
H296 H 0.76374 0.75718 0.82347 0.0
H297 H 0.77256 0.76337 0.79183 0.0
H298 H 0.75871 0.69755 0.8497 0.0
C299 C 0.7378 0.72341 0.84341 0.0
C300 C 0.77627 0.16958 0.48499 0.0
C301 C 0.78142 0.15053 0.47166 0.0
C302 C 0.76675 0.14146 0.45234 0.0
C303 C 0.74224 0.17029 0.45977 0.0
C304 C 0.75658 0.17908 0.47883 0.0
C305 C 0.74811 0.19893 0.49157 0.0
H306 H 0.67198 0.27409 0.49581 0.0
C307 C 0.72335 0.18408 0.45805 0.0
C308 C 0.7266 0.20085 0.47664 0.0
H309 H 0.72778 0.26909 0.5463 0.0
H310 H 0.73727 0.23624 0.52362 0.0
H311 H 0.65249 0.22091 0.49574 0.0
H312 H 0.69901 0.26302 0.44475 0.0
H313 H 0.67918 0.24437 0.42705 0.0
H314 H 0.66832 0.26453 0.44768 0.0
H315 H 0.64215 0.24005 0.47453 0.0
H316 H 0.64525 0.21143 0.46548 0.0
C317 C 0.74173 0.19243 0.51914 0.0
C318 C 0.76732 0.22004 0.48817 0.0
C319 C 0.66341 0.16622 0.39081 0.0
C320 C 0.6444 0.17642 0.38351 0.0
C321 C 0.6392 0.19564 0.39663 0.0
C322 C 0.65273 0.20448 0.41682 0.0
C323 C 0.67174 0.19405 0.42384 0.0
C324 C 0.67676 0.17526 0.41084 0.0
C325 C 0.69783 0.1666 0.42036 0.0
C326 C 0.70455 0.18313 0.44149 0.0
C327 C 0.68926 0.19916 0.44347 0.0
C328 C 0.68995 0.14198 0.42994 0.0
C329 C 0.7168 0.16894 0.39914 0.0
C330 C 0.68636 0.26596 0.50179 0.0
C331 C 0.69946 0.27418 0.52249 0.0
C332 C 0.71763 0.26296 0.53026 0.0
C333 C 0.72308 0.244 0.51706 0.0
C334 C 0.70997 0.2361 0.49614 0.0
C335 C 0.69172 0.24685 0.48909 0.0
C336 C 0.67885 0.23545 0.46731 0.0
C337 C 0.69259 0.21623 0.46215 0.0
C338 C 0.71096 0.21687 0.47887 0.0
C339 C 0.65328 0.22657 0.47597 0.0
C340 C 0.68122 0.25265 0.44548 0.0
H341 H 0.73678 0.1436 0.43136 0.0
H342 H 0.78706 0.17664 0.50021 0.0
H343 H 0.77452 0.22096 0.4687 0.0
H344 H 0.7608 0.23625 0.49141 0.0
H345 H 0.78206 0.21923 0.50082 0.0
H346 H 0.73635 0.17374 0.5213 0.0
H347 H 0.75684 0.19767 0.53135 0.0
H348 H 0.72652 0.19982 0.52638 0.0
H349 H 0.66823 0.15176 0.38076 0.0
H350 H 0.62461 0.20378 0.39132 0.0
H351 H 0.64794 0.21914 0.42609 0.0
H352 H 0.67194 0.13992 0.43831 0.0
H353 H 0.68984 0.12944 0.41452 0.0
H354 H 0.7009 0.13729 0.44502 0.0
H355 H 0.71602 0.18419 0.3875 0.0
H356 H 0.73482 0.17153 0.40608 0.0
H357 H 0.71435 0.15386 0.38665 0.0
H358 H 0.77051 0.12685 0.44177 0.0
C359 C 0.74722 0.15126 0.44629 0.0
C360 C 0.39089 0.67529 0.27973 0.0
C361 C 0.38269 0.65334 0.28931 0.0
C362 C 0.36286 0.64043 0.2785 0.0
C363 C 0.35972 0.67099 0.24952 0.0
C364 C 0.37929 0.68366 0.25981 0.0
C365 C 0.38613 0.70626 0.24678 0.0
H366 H 0.36382 0.7813 0.15857 0.0
C367 C 0.35155 0.6846 0.22932 0.0
C368 C 0.36703 0.70536 0.22761 0.0
H369 H 0.42278 0.78769 0.20746 0.0
H370 H 0.4074 0.75148 0.22611 0.0
H371 H 0.32528 0.76203 0.19826 0.0
H372 H 0.36421 0.7274 0.14516 0.0
H373 H 0.33448 0.7152 0.14402 0.0
H374 H 0.34308 0.7448 0.1365 0.0
H375 H 0.3178 0.75973 0.16602 0.0
H376 H 0.30612 0.73799 0.18835 0.0
C377 C 0.38493 0.72541 0.26614 0.0
C378 C 0.41062 0.70669 0.23427 0.0
C379 C 0.27836 0.65272 0.18103 0.0
C380 C 0.26558 0.66194 0.16258 0.0
C381 C 0.27352 0.68462 0.15492 0.0
C382 C 0.29378 0.69743 0.16462 0.0
C383 C 0.30645 0.68783 0.18259 0.0
C384 C 0.29845 0.66598 0.19087 0.0
C385 C 0.31344 0.65916 0.21124 0.0
C386 C 0.33199 0.68029 0.21336 0.0
C387 C 0.32794 0.69696 0.19627 0.0
C388 C 0.29801 0.65493 0.23531 0.0
C389 C 0.32416 0.63827 0.20206 0.0
C390 C 0.37365 0.77489 0.17308 0.0
C391 C 0.39466 0.78776 0.18141 0.0
C392 C 0.40641 0.7786 0.20077 0.0
C393 C 0.39755 0.75734 0.21151 0.0
C394 C 0.37666 0.74474 0.20285 0.0
C395 C 0.36512 0.75358 0.18388 0.0
C396 C 0.34328 0.73778 0.1768 0.0
C397 C 0.34377 0.71785 0.19431 0.0
C398 C 0.3633 0.72202 0.20972 0.0
C399 C 0.32192 0.74992 0.18241 0.0
C400 C 0.34617 0.73093 0.14914 0.0
H401 H 0.33642 0.63832 0.25159 0.0
H402 H 0.40626 0.68558 0.28727 0.0
H403 H 0.41296 0.68944 0.22762 0.0
H404 H 0.4133 0.71745 0.21742 0.0
H405 H 0.42474 0.71254 0.24754 0.0
H406 H 0.36892 0.72139 0.27826 0.0
H407 H 0.40033 0.72746 0.27834 0.0
H408 H 0.38382 0.74196 0.25752 0.0
H409 H 0.27312 0.63548 0.1876 0.0
H410 H 0.26393 0.6928 0.14156 0.0
H411 H 0.29874 0.71445 0.15777 0.0
H412 H 0.28509 0.66689 0.23658 0.0
H413 H 0.28807 0.63736 0.23571 0.0
H414 H 0.30813 0.65799 0.25248 0.0
H415 H 0.32933 0.64001 0.18196 0.0
H416 H 0.34037 0.63636 0.21165 0.0
H417 H 0.31139 0.62234 0.20432 0.0
H418 H 0.35598 0.62361 0.28552 0.0
C419 C 0.35139 0.64908 0.25883 0.0
C420 C 0.11899 0.29494 0.68854 0.0
C421 C 0.12757 0.28441 0.66733 0.0
C422 C 0.14834 0.2952 0.65536 0.0
C423 C 0.15145 0.32639 0.68501 0.0
C424 C 0.1311 0.31596 0.69692 0.0
C425 C 0.12421 0.33003 0.71861 0.0
H426 H 0.14688 0.42638 0.78897 0.0
C427 C 0.15976 0.34808 0.69804 0.0
C428 C 0.14384 0.35044 0.71778 0.0
H429 H 0.08847 0.37156 0.79715 0.0
H430 H 0.10362 0.35166 0.76257 0.0
H431 H 0.14657 0.42853 0.7287 0.0
H432 H 0.18598 0.39448 0.77935 0.0
H433 H 0.20518 0.40576 0.75503 0.0
H434 H 0.19164 0.42474 0.77493 0.0
H435 H 0.16905 0.44362 0.74766 0.0
H436 H 0.17577 0.43223 0.71761 0.0
C437 C 0.10017 0.33691 0.71318 0.0
C438 C 0.12448 0.31599 0.74274 0.0
C439 C 0.23502 0.39763 0.66742 0.0
C440 C 0.2475 0.4186 0.67537 0.0
C441 C 0.23852 0.42952 0.69608 0.0
C442 C 0.21765 0.41982 0.70851 0.0
C443 C 0.20543 0.39888 0.70028 0.0
C444 C 0.21421 0.38817 0.68005 0.0
C445 C 0.199 0.36602 0.67388 0.0
C446 C 0.17966 0.36513 0.69376 0.0
C447 C 0.18345 0.38443 0.70918 0.0
C448 C 0.18965 0.36799 0.64729 0.0
C449 C 0.21365 0.34664 0.6771 0.0
C450 C 0.13718 0.4102 0.78322 0.0
C451 C 0.11633 0.40068 0.79598 0.0
C452 C 0.10466 0.37929 0.78798 0.0
C453 C 0.11342 0.36778 0.76772 0.0
C454 C 0.13416 0.37763 0.75511 0.0
C455 C 0.1457 0.39848 0.76304 0.0
C456 C 0.16762 0.40635 0.74767 0.0
C457 C 0.16726 0.38697 0.72907 0.0
C458 C 0.14759 0.3701 0.73343 0.0
C459 C 0.16486 0.42895 0.73478 0.0
C460 C 0.18882 0.40814 0.76501 0.0
H461 H 0.17595 0.32311 0.654 0.0
H462 H 0.10299 0.28722 0.69809 0.0
H463 H 0.13963 0.30659 0.74235 0.0
H464 H 0.12657 0.32666 0.75966 0.0
H465 H 0.10827 0.3033 0.74487 0.0
H466 H 0.09904 0.34108 0.69311 0.0
H467 H 0.08567 0.32285 0.71779 0.0
H468 H 0.09706 0.35237 0.72331 0.0
H469 H 0.24144 0.38854 0.65183 0.0
H470 H 0.24748 0.4458 0.7025 0.0
H471 H 0.2118 0.42908 0.72403 0.0
H472 H 0.18707 0.38572 0.6433 0.0
H473 H 0.20209 0.36313 0.63288 0.0
H474 H 0.17225 0.35766 0.64475 0.0
H475 H 0.22551 0.35017 0.69313 0.0
H476 H 0.20284 0.33006 0.68146 0.0
H477 H 0.2247 0.3448 0.6602 0.0
H478 H 0.15557 0.28741 0.63927 0.0
C479 C 0.16027 0.31597 0.66405 0.0
La480 La 0.01264 0.03861 0.50895 0.0
La481 La 0.00425 1.0183 0.56007 0.0
C482 C 0.01727 0.06497 0.4721 0.0
C483 C 0.03601 0.08375 0.46448 0.0
C484 C 0.05812 0.07926 0.45633 0.0
C485 C 0.07615 0.09706 0.45051 0.0
C486 C 0.07256 0.11977 0.45268 0.0
C487 C 0.05036 0.1243 0.46041 0.0
C488 C 0.03225 0.10645 0.46626 0.0
C489 C 0.04401 1.01428 0.52339 0.0
C490 C 0.03183 0.06736 0.55737 0.0
C491 C 1.00036 0.99174 0.59671 0.0
C492 C 0.98095 0.97412 0.60479 0.0
C493 C 0.95795 0.97581 0.59837 0.0
C494 C 0.9393 0.95961 0.60672 0.0
C495 C 0.94329 0.94112 0.62133 0.0
C496 C 0.96652 0.93908 0.62694 0.0
C497 C 0.98518 0.95551 0.61881 0.0
C498 C 0.97239 0.04212 0.54575 0.0
C499 C 0.98469 0.98966 0.5117 0.0
O500 O 0.02276 0.04449 0.47152 0.0
O501 O 0.00505 0.06841 0.49227 0.0
O502 O 0.03797 1.01576 0.50054 0.0
O503 O 0.03415 1.02754 0.53662 0.0
O504 O 0.02536 0.06743 0.53382 0.0
O505 O 0.02886 0.04828 0.57043 0.0
O506 O 0.99596 1.01261 0.59795 0.0
O507 O 0.01092 0.98771 0.57569 0.0
O508 O 0.97778 0.03986 0.5687 0.0
O509 O 0.98262 1.02927 0.53235 0.0
O510 O 0.9913 0.98956 0.5352 0.0
O511 O 0.98779 1.00874 0.49857 0.0
H512 H 0.06166 0.062 0.4546 0.0
H513 H 0.09289 0.09298 0.44409 0.0
H514 H 0.04709 0.14165 0.46233 0.0
H515 H 0.01539 0.11039 0.47248 0.0
H516 H 0.95434 0.98993 0.58726 0.0
H517 H 0.92173 0.96201 0.6023 0.0
H518 H 0.97031 0.92485 0.63771 0.0
H519 H 1.00288 0.95379 0.62359 0.0
La520 La 0.53073 0.03962 0.05193 0.0
La521 La 0.48539 1.02063 1.01954 0.0
C522 C 0.56655 0.0634 0.06891 0.0
C523 C 0.57177 0.07397 0.09344 0.0
C524 C 0.5909 0.0689 0.10661 0.0
C525 C 0.5951 0.07752 0.13062 0.0
C526 C 0.58034 0.09152 0.14175 0.0
C527 C 0.5615 0.09699 0.12834 0.0
C528 C 0.55717 0.08821 0.10446 0.0
C529 C 0.5031 1.00393 0.07335 0.0
C530 C 0.48224 0.05563 0.06415 0.0
C531 C 0.44911 0.99708 1.00316 0.0
C532 C 0.44075 0.99045 0.97825 0.0
C533 C 0.44952 1.00326 0.95723 0.0
C534 C 0.44245 0.99603 0.93344 0.0
C535 C 0.42664 0.97575 0.93027 0.0
C536 C 0.41786 0.96304 0.95147 0.0
C537 C 0.42486 0.97036 0.97526 0.0
C538 C 0.51225 0.057 0.99877 0.0
C539 C 0.53394 1.00372 1.0083 0.0
O540 O 0.56349 0.04108 0.06837 0.0
O541 O 0.55103 0.07168 0.05587 0.0
O542 O 0.52171 1.01514 0.08322 0.0
O543 O 0.5011 1.01379 0.05308 0.0
O544 O 0.50535 0.06022 0.06557 0.0
O545 O 0.47112 0.03881 0.05044 0.0
O546 O 0.45058 1.01874 1.00885 0.0
O547 O 0.46756 0.98856 1.00973 0.0
O548 O 0.49345 0.04608 0.98898 0.0
O549 O 0.5148 0.04651 1.01845 0.0
O550 O 0.5109 1.00013 1.00579 0.0
O551 O 0.54522 1.01975 1.02284 0.0
H552 H 0.60236 0.05796 0.09847 0.0
H553 H 0.60987 0.07323 0.1405 0.0
H554 H 0.54973 0.10756 0.1366 0.0
H555 H 0.54213 0.09228 0.09488 0.0
H556 H 0.46199 1.01874 0.9592 0.0
H557 H 0.44932 1.00634 0.91755 0.0
H558 H 0.40597 0.94715 0.94967 0.0
H559 H 0.41817 0.96014 0.9913 0.0
La560 La 0.50575 0.51055 0.5212 0.0
La561 La 0.49953 0.54891 0.55407 0.0
C562 C 0.52395 0.47974 0.50007 0.0
C563 C 0.53792 0.46351 0.51063 0.0
C564 C 0.52699 0.44395 0.52341 0.0
C565 C 0.54033 0.43005 0.53567 0.0
C566 C 0.56486 0.43542 0.5354 0.0
C567 C 0.5758 0.45468 0.52217 0.0
C568 C 0.56249 0.46851 0.50983 0.0
C569 C 0.46405 0.5069 0.54307 0.0
C570 C 0.52268 0.51125 0.57828 0.0
C571 C 0.48159 0.57959 0.57597 0.0
C572 C 0.46859 0.59688 0.5663 0.0
C573 C 0.47573 0.61984 0.57225 0.0
C574 C 0.46521 0.63669 0.56117 0.0
C575 C 0.44731 0.63084 0.54397 0.0
C576 C 0.43982 0.60779 0.53845 0.0
C577 C 0.45039 0.59097 0.54946 0.0
C578 C 0.54132 0.55244 0.53235 0.0
C579 C 0.48329 0.54837 0.49657 0.0
O580 O 0.50186 0.47725 0.5071 0.0
O581 O 0.53377 0.50113 0.50022 0.0
O582 O 0.46784 0.50017 0.52051 0.0
O583 O 0.48338 0.51428 0.55286 0.0
O584 O 0.52394 0.50315 0.55528 0.0
O585 O 0.51144 0.52851 0.58319 0.0
O586 O 0.50365 0.58197 0.56898 0.0
O587 O 0.47127 0.55839 0.57461 0.0
O588 O 0.53746 0.5592 0.55489 0.0
O589 O 0.52198 0.54519 0.52252 0.0
O590 O 0.48213 0.55673 0.51951 0.0
O591 O 0.49405 0.53077 0.49191 0.0
H592 H 0.50809 0.43958 0.52442 0.0
H593 H 0.53143 0.41531 0.54571 0.0
H594 H 0.5947 0.45895 0.52115 0.0
H595 H 0.57145 0.48338 0.50003 0.0
H596 H 0.48978 0.62477 0.58509 0.0
H597 H 0.47108 0.6543 0.56609 0.0
H598 H 0.42622 0.6028 0.52512 0.0
H599 H 0.44467 0.57339 0.54428 0.0
La600 La 0.00868 0.50392 0.05159 0.0
La601 La 1.00204 0.5513 1.0305 0.0
C602 C 0.02422 0.46854 0.06381 0.0
C603 C 0.04757 0.46218 0.06708 0.0
C604 C 0.05271 0.45313 0.08998 0.0
C605 C 0.07471 0.44715 0.09377 0.0
C606 C 0.09198 0.44994 0.07464 0.0
C607 C 0.08682 0.45894 0.05165 0.0
C608 C 0.06485 0.46513 0.04793 0.0
C609 C 0.98392 0.52856 0.0795 0.0
C610 C 0.04967 0.54727 0.05594 0.0
C611 C 0.9864 0.58828 1.02945 0.0
C612 C 0.96921 0.59859 1.01573 0.0
C613 C 0.96198 0.59082 0.99203 0.0
C614 C 0.94401 0.59969 0.98044 0.0
C615 C 0.93285 0.61628 0.99252 0.0
C616 C 0.9404 0.62401 1.01624 0.0
C617 C 0.95842 0.61529 1.02766 0.0
C618 C 0.02062 0.52684 0.99574 0.0
C619 C 0.9641 0.50674 1.01995 0.0
O620 O 0.01805 0.48321 0.07994 0.0
O621 O 0.01839 0.4727 0.04106 0.0
O622 O 0.97976 0.50652 0.07817 0.0
O623 O 1.00189 0.53571 0.06626 0.0
O624 O 0.04332 0.52479 0.05662 0.0
O625 O 0.03565 0.56118 0.0481 0.0
O626 O 0.00557 0.58487 1.01732 0.0
O627 O 0.97742 0.57097 0.04348 0.0
O628 O 0.01612 0.54728 0.99216 0.0
O629 O 0.01454 0.52184 1.01795 0.0
O630 O 0.96914 0.52933 1.02094 0.0
O631 O 0.97813 0.49327 1.02889 0.0
H632 H 0.03965 0.45067 0.10498 0.0
H633 H 0.07808 0.43998 0.11156 0.0
H634 H 0.09987 0.46141 0.03665 0.0
H635 H 0.06144 0.47224 1.03011 0.0
H636 H 0.96995 0.57768 0.98269 0.0
H637 H 0.93882 0.5935 0.96208 0.0
H638 H 0.93194 0.63635 1.02638 0.0
H639 H 0.96355 0.62118 0.04615 0.0
C640 C 0.24125 0.23995 0.35693 0.0
C641 C 0.23281 0.25292 0.33842 0.0
C642 C 0.22605 0.22895 0.37533 0.0
C643 C 0.16606 0.22524 0.40349 0.0
H644 H 0.17062 0.16138 0.41082 0.0
C645 C 0.08786 0.15704 0.43193 0.0
C646 C 0.09193 0.1385 0.44633 0.0
C647 C 0.1065 0.17351 0.42395 0.0
C648 C 0.16931 0.17927 0.40944 0.0
H649 H 0.20187 0.26504 0.32526 0.0
H650 H 0.17554 0.24601 0.35723 0.0
H651 H 0.20126 0.18622 0.38798 0.0
H652 H 0.11851 0.12351 0.46505 0.0
H653 H 0.15105 0.15223 0.45107 0.0
H654 H 0.13361 0.21799 0.42424 0.0
C655 C 0.19393 0.24457 0.35782 0.0
C656 C 0.18693 0.19354 0.39635 0.0
C657 C 0.20908 0.25551 0.33944 0.0
C658 C 0.11489 0.13735 0.45352 0.0
C659 C 0.13351 0.15381 0.44556 0.0
C660 C 0.14841 0.21094 0.41658 0.0
C661 C 0.20211 0.23072 0.37561 0.0
C662 C 0.18522 0.21656 0.39269 0.0
C663 C 0.1296 0.17181 0.43024 0.0
C664 C 0.14958 0.18768 0.41919 0.0
H665 H 0.25951 0.2379 0.35689 0.0
H666 H 0.23293 0.21864 0.38902 0.0
H667 H 0.16443 0.24298 0.40131 0.0
H668 H 0.0704 0.15831 0.42591 0.0
H669 H 0.10292 0.18701 0.41191 0.0
C670 C 0.34386 0.88751 0.74143 0.0
C671 C 0.35681 0.89078 0.71884 0.0
C672 C 0.35293 0.89748 0.76336 0.0
C673 C 0.40641 0.92071 0.79486 0.0
H674 H 0.36535 0.95382 0.83365 0.0
C675 C 0.43597 0.96957 0.885 0.0
C676 C 0.41954 0.96768 0.90497 0.0
C677 C 0.42933 0.96149 0.86133 0.0
C678 C 0.37695 0.94445 0.8232 0.0
H679 H 0.38986 0.90638 0.70181 0.0
H680 H 0.40597 0.92344 0.74055 0.0
H681 H 0.35226 0.93637 0.79427 0.0
H682 H 0.38318 0.95619 0.9156 0.0
H683 H 0.3718 0.94144 0.87466 0.0
H684 H 0.43086 0.92821 0.82414 0.0
C685 C 0.3887 0.91325 0.74103 0.0
C686 C 0.36948 0.93453 0.80062 0.0
C687 C 0.37952 0.90342 0.71893 0.0
C688 C 0.39633 0.95767 0.90071 0.0
C689 C 0.38974 0.94949 0.87712 0.0
C690 C 0.41383 0.93046 0.81763 0.0
C691 C 0.37525 0.91073 0.7633 0.0
C692 C 0.38399 0.92232 0.78642 0.0
C693 C 0.40615 0.95129 0.85715 0.0
C694 C 0.39903 0.94218 0.83221 0.0
H695 H 0.32656 0.87739 0.74213 0.0
H696 H 0.34241 0.8949 0.78042 0.0
H697 H 0.41787 0.91128 0.78426 0.0
H698 H 0.45406 0.97696 0.88772 0.0
H699 H 0.44235 0.96333 0.8463 0.0
C700 C 0.61461 0.4399 0.76172 0.0
C701 C 0.61854 0.4172 0.76061 0.0
C702 C 0.60396 0.44953 0.74211 0.0
C703 C 0.5699 0.43469 0.68363 0.0
H704 H 0.58758 0.49923 0.67086 0.0
C705 C 0.54192 0.47942 0.59513 0.0
C706 C 0.53374 0.50027 0.59892 0.0
C707 C 0.5521 0.46898 0.61455 0.0
C708 C 0.58229 0.48121 0.67426 0.0
H709 H 0.61425 0.38685 0.73772 0.0
H710 H 0.59641 0.40371 0.70316 0.0
H711 H 0.60559 0.48169 0.70457 0.0
H712 H 0.53021 0.52649 0.62631 0.0
H713 H 0.54825 0.50849 0.65996 0.0
H714 H 0.54707 0.43431 0.65264 0.0
C715 C 0.60095 0.41406 0.71948 0.0
C716 C 0.59256 0.47106 0.69379 0.0
C717 C 0.61131 0.40432 0.73933 0.0
C718 C 0.53624 0.51045 0.62264 0.0
C719 C 0.54671 0.50017 0.64195 0.0
C720 C 0.55988 0.44481 0.66383 0.0
C721 C 0.59717 0.43691 0.72043 0.0
C722 C 0.58643 0.44763 0.69904 0.0
C723 C 0.55472 0.47924 0.63824 0.0
C724 C 0.56579 0.46826 0.65898 0.0
H725 H 0.6196 0.45025 0.77796 0.0
H726 H 0.6009 0.46691 0.74416 0.0
H727 H 0.56427 0.41674 0.68706 0.0
H728 H 0.54036 0.47102 0.57716 0.0
H729 H 0.55825 0.45299 0.61089 0.0
C730 C 0.91262 0.65392 0.23928 0.0
C731 C 0.89899 0.64219 0.25874 0.0
C732 C 0.92148 0.64211 0.21943 0.0
C733 C 0.91178 0.58768 0.18511 0.0
H734 H 0.97683 0.60367 0.16395 0.0
C735 C 0.95508 0.53189 0.11456 0.0
C736 C 0.97311 0.5423 0.09844 0.0
C737 C 0.9457 0.54442 0.13342 0.0
C738 C 0.9585 0.59916 0.1692 0.0
H739 H 0.88444 0.60841 0.27221 0.0
H740 H 0.89922 0.58805 0.23729 0.0
H741 H 0.96115 0.62486 0.19765 0.0
H742 H 0.99539 0.57414 0.08948 0.0
H743 H 0.97838 0.59628 0.12143 0.0
H744 H 0.90881 0.56237 0.15642 0.0
C745 C 0.90297 0.60646 0.23746 0.0
C746 C 0.94954 0.6113 0.1887 0.0
C747 C 0.89438 0.61823 0.25749 0.0
C748 C 0.98135 0.56564 0.10141 0.0
C749 C 0.97176 0.57827 0.12005 0.0
C750 C 0.92063 0.57573 0.16538 0.0
C751 C 0.91671 0.61823 0.21821 0.0
C752 C 0.92611 0.60563 0.19704 0.0
C753 C 0.95391 0.56784 0.13656 0.0
C754 C 0.94421 0.58113 0.15718 0.0
H755 H 0.91625 0.67232 0.23911 0.0
H756 H 0.93177 0.65173 0.20477 0.0
H757 H 0.89356 0.58306 0.19083 0.0
H758 H 0.94848 0.51388 0.11292 0.0
H759 H 0.93236 0.53552 0.14588 0.0
C760 C 0.35277 0.16986 0.17473 0.0
C761 C 0.36182 0.19314 0.17598 0.0
C762 C 0.36537 0.15478 0.16241 0.0
C763 C 0.41544 0.1531 0.11755 0.0
H764 H 0.41212 0.09191 0.14338 0.0
C765 C 0.47879 0.09227 0.08579 0.0
C766 C 0.46826 0.07048 0.07813 0.0
C767 C 0.46551 0.10693 0.09779 0.0
C768 C 0.41306 0.10891 0.13591 0.0
H769 H 0.39113 0.21897 0.16561 0.0
H770 H 0.41366 0.19262 0.14491 0.0
H771 H 0.38988 0.11836 0.16431 0.0
H772 H 0.43566 0.04681 0.0776 0.0
H773 H 0.41253 0.07238 0.0992 0.0
H774 H 0.43934 0.14368 0.08967 0.0
C775 C 0.39652 0.18597 0.15272 0.0
C776 C 0.40024 0.12407 0.14778 0.0
C777 C 0.38371 0.2011 0.16469 0.0
C778 C 0.44425 0.0635 0.08322 0.0
C779 C 0.43104 0.07806 0.09564 0.0
C780 C 0.42855 0.13804 0.10596 0.0
C781 C 0.38753 0.16258 0.1514 0.0
C782 C 0.40121 0.14639 0.13874 0.0
C783 C 0.44151 0.1 0.10275 0.0
C784 C 0.42746 0.11582 0.11501 0.0
H785 H 0.33577 0.16336 0.18303 0.0
H786 H 0.35758 0.13704 0.16134 0.0
H787 H 0.41631 0.16991 0.10968 0.0
H788 H 0.49722 0.09823 0.08206 0.0
H789 H 0.47402 0.1237 0.10327 0.0
C790 C 0.17248 0.90354 0.6167 0.0
C791 C 0.17734 0.88317 0.60583 0.0
C792 C 0.15331 0.91311 0.60935 0.0
C793 C 0.12112 0.91956 0.5548 0.0
H794 H 0.0793 0.946 0.59985 0.0
C795 C 0.05874 0.97745 0.51848 0.0
C796 C 0.0563 0.99658 0.53306 0.0
C797 C 0.06981 0.96026 0.52793 0.0
C798 C 0.09097 0.93888 0.58702 0.0
H799 H 0.16488 0.85634 0.57956 0.0
H800 H 0.13192 0.87382 0.5659 0.0
H801 H 0.10484 0.921 0.61624 0.0
H802 H 0.06333 1.01299 0.56876 0.0
H803 H 0.08368 0.98358 0.58495 0.0
H804 H 0.1086 0.93845 0.52582 0.0
C805 C 0.14302 0.88211 0.58028 0.0
C806 C 0.10538 0.92441 0.5964 0.0
C807 C 0.162 0.87225 0.58799 0.0
C808 C 0.06506 0.99834 0.5572 0.0
C809 C 0.07645 0.98134 0.56653 0.0
C810 C 0.10698 0.93429 0.54546 0.0
C811 C 0.13878 0.9028 0.59066 0.0
C812 C 0.1209 0.91501 0.58043 0.0
C813 C 0.07899 0.96208 0.552 0.0
C814 C 0.0921 0.94454 0.56154 0.0
H815 H 0.18408 0.91279 0.63006 0.0
H816 H 0.15061 0.92928 0.61733 0.0
H817 H 0.13319 0.91275 0.54218 0.0
H818 H 0.0518 0.9756 0.4999 0.0
H819 H 0.07108 0.94552 0.51637 0.0
C820 C 0.78936 0.39766 0.92362 0.0
C821 C 0.77166 0.40982 0.91639 0.0
C822 C 0.81017 0.40882 0.93374 0.0
C823 C 0.83617 0.46297 0.96466 0.0
H824 H 0.89448 0.44053 0.95078 0.0
C825 C 0.92595 0.50966 0.99922 0.0
C826 C 0.94194 0.49615 1.00792 0.0
C827 C 0.90531 0.49973 0.98763 0.0
C828 C 0.87834 0.44691 0.95511 0.0
H829 H 0.76254 0.44365 0.91398 0.0
H830 H 0.79906 0.46321 0.9311 0.0
H831 H 0.85887 0.42267 0.93087 0.0
H832 H 0.9484 0.4614 1.01112 0.0
H833 H 0.91254 0.44419 0.9911 0.0
H834 H 0.85577 0.48729 0.98887 0.0
C835 C 0.79663 0.44487 0.9293 0.0
C836 C 0.8578 0.43662 0.94365 0.0
C837 C 0.77572 0.43365 0.91916 0.0
C838 C 0.93662 0.47242 1.00469 0.0
C839 C 0.91605 0.46252 0.99301 0.0
C840 C 0.85675 0.47333 0.97607 0.0
C841 C 0.81415 0.4326 0.9369 0.0
C842 C 0.83631 0.44434 0.94838 0.0
C843 C 0.90007 0.47601 0.98425 0.0
C844 C 0.87813 0.46534 0.97163 0.0
H845 H 0.78717 0.37936 0.92146 0.0
H846 H 0.82298 0.39864 0.93954 0.0
H847 H 0.82 0.46926 0.96913 0.0
H848 H 0.92937 0.52798 1.00126 0.0
H849 H 0.89364 0.51074 0.98093 0.0
C850 C 0.72941 0.60748 0.41654 0.0
C851 C 0.73514 0.63107 0.41246 0.0
C852 C 0.70848 0.59826 0.42902 0.0
C853 C 0.66237 0.61412 0.47215 0.0
H854 H 0.62704 0.55654 0.45128 0.0
C855 C 0.5655 0.55622 0.49246 0.0
C856 C 0.56387 0.55893 0.51845 0.0
C857 C 0.58652 0.56402 0.47932 0.0
C858 C 0.63659 0.57271 0.45728 0.0
H859 H 0.72283 0.66333 0.41794 0.0
H860 H 0.68646 0.64732 0.43961 0.0
H861 H 0.66288 0.5725 0.4284 0.0
H862 H 0.5832 0.57117 0.55114 0.0
H863 H 0.61983 0.58444 0.52843 0.0
H864 H 0.63591 0.61463 0.50067 0.0
C865 C 0.69834 0.63594 0.43356 0.0
C866 C 0.65733 0.58176 0.44431 0.0
C867 C 0.71926 0.64515 0.4211 0.0
C868 C 0.58385 0.569 0.53109 0.0
C869 C 0.60482 0.57676 0.51801 0.0
C870 C 0.64169 0.60508 0.48511 0.0
C871 C 0.69267 0.61236 0.4378 0.0
C872 C 0.67052 0.60262 0.45155 0.0
C873 C 0.6064 0.57471 0.4919 0.0
C874 C 0.6285 0.58422 0.47792 0.0
H875 H 0.74132 0.59612 0.41051 0.0
H876 H 0.70493 0.58009 0.43224 0.0
H877 H 0.67212 0.63007 0.47851 0.0
H878 H 0.55037 0.54857 0.48219 0.0
H879 H 0.58697 0.56227 0.45923 0.0
C880 C 0.25597 0.35245 0.12172 0.0
C881 C 0.26344 0.35815 0.14599 0.0
C882 C 0.24154 0.36537 0.10955 0.0
C883 C 0.21619 0.41933 0.11346 0.0
H884 H 0.16365 0.38282 0.08153 0.0
C885 C 0.1269 0.44862 0.10093 0.0
C886 C 0.1151 0.44297 0.07865 0.0
C887 C 0.14785 0.44074 0.10552 0.0
C888 C 0.17839 0.39334 0.08999 0.0
H889 H 0.26312 0.383 0.17567 0.0
H890 H 0.23737 0.40498 0.15493 0.0
H891 H 0.19578 0.36483 0.0957 0.0
H892 H 0.11624 0.42508 0.04346 0.0
H893 H 0.15289 0.41118 0.05155 0.0
H894 H 0.19805 0.44766 0.10869 0.0
C895 C 0.24277 0.39068 0.14509 0.0
C896 C 0.19691 0.38303 0.09807 0.0
C897 C 0.25733 0.37788 0.15716 0.0
C898 C 0.12502 0.42979 0.06075 0.0
C899 C 0.14588 0.42171 0.06544 0.0
C900 C 0.19754 0.4296 0.10556 0.0
C901 C 0.23412 0.38421 0.12143 0.0
C902 C 0.21587 0.39581 0.1103 0.0
C903 C 0.15736 0.42687 0.08801 0.0
C904 C 0.17827 0.41663 0.09411 0.0
H905 H 0.26022 0.33732 0.11257 0.0
H906 H 0.23561 0.36015 0.09113 0.0
H907 H 0.23067 0.42978 0.12241 0.0
H908 H 0.11977 0.45895 0.11495 0.0
H909 H 0.15617 0.44483 0.12318 0.0
C910 C 0.60815 0.2483 0.9287 0.0
C911 C 0.60754 0.2516 0.90275 0.0
C912 C 0.59903 0.22723 0.93955 0.0
C913 C 0.58192 0.16559 0.92437 0.0
H914 H 0.54738 0.16367 0.98741 0.0
C915 C 0.52717 0.08223 0.96287 0.0
C916 C 0.52614 0.07836 0.98871 0.0
C917 C 0.53837 0.10299 0.95291 0.0
C918 C 0.55726 0.1638 0.96998 0.0
H919 H 0.59694 0.23479 0.86798 0.0
H920 H 0.58075 0.19834 0.88685 0.0
H921 H 0.56407 0.20027 0.96916 0.0
H922 H 0.53486 0.09392 1.02439 0.0
H923 H 0.55529 0.12983 1.00723 0.0
H924 H 0.57506 0.12916 0.92512 0.0
C925 C 0.58849 0.21201 0.89886 0.0
C926 C 0.56686 0.1849 0.95945 0.0
C927 C 0.59755 0.2331 0.88802 0.0
C928 C 0.53642 0.09587 1.00442 0.0
C929 C 0.54762 0.11673 0.9945 0.0
C930 C 0.57236 0.14452 0.93491 0.0
C931 C 0.58905 0.20872 0.92481 0.0
C932 C 0.57922 0.18615 0.93639 0.0
C933 C 0.54868 0.12067 0.96856 0.0
C934 C 0.55973 0.14325 0.95782 0.0
H935 H 0.61545 0.26213 0.94076 0.0
H936 H 0.60004 0.2254 0.95954 0.0
H937 H 0.59167 0.16574 0.90686 0.0
H938 H 0.51901 0.06921 0.95028 0.0
H939 H 0.53833 0.10537 0.93293 0.0
C940 C 0.90226 0.81271 0.40083 0.0
C941 C 0.89351 0.79469 0.41703 0.0
C942 C 0.91242 0.83396 0.41028 0.0
C943 C 0.91476 0.86846 0.46892 0.0
H944 H 0.96673 0.90626 0.43503 0.0
C945 C 0.96676 0.94839 0.51504 0.0
C946 C 0.9733 0.96795 0.50028 0.0
C947 C 0.95682 0.9277 0.50433 0.0
C948 C 0.95205 0.89602 0.4446 0.0
H949 H 0.88979 0.78459 0.45585 0.0
H950 H 0.90784 0.82119 0.47224 0.0
H951 H 0.95064 0.86931 0.41744 0.0
H952 H 0.97443 0.9809 0.46251 0.0
H953 H 0.95711 0.94474 0.44381 0.0
H954 H 0.91638 0.89501 0.49624 0.0
C955 C 0.9062 0.81932 0.45225 0.0
C956 C 0.94277 0.87478 0.43449 0.0
C957 C 0.89593 0.79822 0.44283 0.0
C958 C 0.96955 0.96624 0.47448 0.0
C959 C 0.95978 0.94545 0.46371 0.0
C960 C 0.92412 0.88958 0.47909 0.0
C961 C 0.91425 0.83769 0.43618 0.0
C962 C 0.92405 0.8606 0.44658 0.0
C963 C 0.95329 0.92588 0.4785 0.0
C964 C 0.94297 0.90362 0.46716 0.0
H965 H 0.90054 0.81062 0.38086 0.0
H966 H 0.9182 0.84765 0.39725 0.0
H967 H 0.9 0.85841 0.47855 0.0
H968 H 0.9694 0.94899 0.53496 0.0
H969 H 0.95229 0.91298 0.51628 0.0
C970 C 0.32752 0.7699 0.51568 0.0
C971 C 0.33834 0.79258 0.51831 0.0
C972 C 0.34059 0.75328 0.50774 0.0
C973 C 0.40098 0.74396 0.51296 0.0
H974 H 0.37698 0.68537 0.48396 0.0
C975 C 0.4504 0.66879 0.52314 0.0
C976 C 0.43646 0.64878 0.53194 0.0
C977 C 0.44009 0.68639 0.51344 0.0
C978 C 0.38395 0.70169 0.49203 0.0
H979 H 0.37042 0.81624 0.51203 0.0
H980 H 0.39317 0.78735 0.49737 0.0
H981 H 0.3555 0.71721 0.4792 0.0
H982 H 0.40085 0.63115 0.53661 0.0
H983 H 0.3828 0.66201 0.52005 0.0
H984 H 0.4288 0.72837 0.52671 0.0
C985 C 0.3748 0.78222 0.50218 0.0
C986 C 0.37168 0.71991 0.48928 0.0
C987 C 0.36179 0.79878 0.5104 0.0
C988 C 0.41205 0.64633 0.52985 0.0
C989 C 0.40172 0.66398 0.52023 0.0
C990 C 0.41323 0.72582 0.51562 0.0
C991 C 0.36468 0.75911 0.50211 0.0
C992 C 0.37969 0.74107 0.5004 0.0
C993 C 0.41561 0.6844 0.51243 0.0
C994 C 0.4045 0.7043 0.50587 0.0
H995 H 0.3095 0.76466 0.52184 0.0
H996 H 0.33222 0.73567 0.50808 0.0
H997 H 0.4075 0.75982 0.52221 0.0
H998 H 0.4693 0.67093 0.52402 0.0
H999 H 0.45128 0.70178 0.50721 0.0
C1000 C 0.78832 0.82273 0.73953 0.0
C1001 C 0.76501 0.8226 0.73273 0.0
C1002 C 0.80676 0.83441 0.72527 0.0
C1003 C 0.8262 0.85688 0.66465 0.0
H1004 H 0.86858 0.90082 0.70205 0.0
C1005 C 0.90259 0.9189 0.61815 0.0
C1006 C 0.92316 0.92488 0.63173 0.0
C1007 C 0.88287 0.90554 0.62897 0.0
C1008 C 0.8572 0.88838 0.69134 0.0
H1009 H 0.74277 0.83408 0.70523 0.0
H1010 H 0.77545 0.85441 0.67977 0.0
H1011 H 0.83466 0.87894 0.72306 0.0
H1012 H 0.9392 0.92063 0.66716 0.0
H1013 H 0.90545 0.89642 0.68542 0.0
H1014 H 0.84916 0.86576 0.63304 0.0
C1015 C 0.77918 0.8454 0.69629 0.0
C1016 C 0.83766 0.87601 0.70338 0.0
C1017 C 0.76057 0.8339 0.71085 0.0
C1018 C 0.92381 0.91628 0.65599 0.0
C1019 C 0.90423 0.90269 0.66667 0.0
C1020 C 0.84603 0.86907 0.6526 0.0
C1021 C 0.80238 0.84612 0.70375 0.0
C1022 C 0.82213 0.86002 0.69022 0.0
C1023 C 0.88331 0.8976 0.65355 0.0
C1024 C 0.86191 0.88481 0.6659 0.0
H1025 H 0.79232 0.81453 0.75651 0.0
H1026 H 0.82451 0.83465 0.7313 0.0
H1027 H 0.81446 0.84453 0.65419 0.0
H1028 H 0.90157 0.92482 0.59923 0.0
H1029 H 0.86708 0.90205 0.61831 0.0
C1030 C 0.62576 0.18217 0.34287 0.0
C1031 C 0.63098 0.16742 0.36151 0.0
C1032 C 0.61644 0.17344 0.32038 0.0
C1033 C 0.618 0.12409 0.28055 0.0
H1034 H 0.57016 0.14687 0.24328 0.0
C1035 C 0.58826 0.08494 0.18645 0.0
C1036 C 0.58416 0.0999 0.16755 0.0
C1037 C 0.59165 0.0927 0.21086 0.0
C1038 C 0.58372 0.1405 0.25337 0.0
H1039 H 0.6287 0.13204 0.37216 0.0
H1040 H 0.61256 0.11685 0.33289 0.0
H1041 H 0.57913 0.16143 0.28523 0.0
H1042 H 0.58042 0.13468 0.15923 0.0
H1043 H 0.58695 0.14845 0.2018 0.0
H1044 H 0.62324 0.10373 0.24869 0.0
C1045 C 0.61608 0.13512 0.33546 0.0
C1046 C 0.58875 0.14877 0.27739 0.0
C1047 C 0.6253 0.14381 0.3579 0.0
C1048 C 0.5834 0.12276 0.17352 0.0
C1049 C 0.58701 0.1306 0.19792 0.0
C1050 C 0.61312 0.11598 0.25654 0.0
C1051 C 0.61224 0.14984 0.3162 0.0
C1052 C 0.60595 0.14062 0.29118 0.0
C1053 C 0.59126 0.11566 0.21686 0.0
C1054 C 0.59595 0.12408 0.24263 0.0
H1055 H 0.63008 0.20044 0.34509 0.0
H1056 H 0.61374 0.18518 0.30579 0.0
H1057 H 0.63169 0.11785 0.29055 0.0
H1058 H 0.58852 0.06713 0.18241 0.0
H1059 H 0.59442 0.08063 0.22507 0.0
C1060 C 0.40156 0.65678 0.33159 0.0
C1061 C 0.39456 0.64367 0.31037 0.0
C1062 C 0.41157 0.64722 0.35178 0.0
C1063 C 0.44239 0.59947 0.36878 0.0
H1064 H 0.42128 0.61045 0.43623 0.0
C1065 C 0.46986 0.54887 0.45221 0.0
C1066 C 0.473 0.55958 0.47558 0.0
C1067 C 0.46048 0.55948 0.43238 0.0
C1068 C 0.42774 0.60741 0.41761 0.0
H1069 H 0.39338 0.6103 0.29366 0.0
H1070 H 0.41093 0.59376 0.32859 0.0
H1071 H 0.4055 0.62866 0.40132 0.0
H1072 H 0.46883 0.59017 0.49614 0.0
H1073 H 0.45307 0.60886 0.46165 0.0
H1074 H 0.46493 0.57861 0.38483 0.0
C1075 C 0.40859 0.61143 0.32973 0.0
C1076 C 0.41858 0.61788 0.3975 0.0
C1077 C 0.39833 0.62089 0.30973 0.0
C1078 C 0.46647 0.58125 0.47854 0.0
C1079 C 0.45728 0.59197 0.45864 0.0
C1080 C 0.45174 0.58921 0.38886 0.0
C1081 C 0.41521 0.62437 0.35117 0.0
C1082 C 0.42562 0.61392 0.37276 0.0
C1083 C 0.45415 0.5813 0.43515 0.0
C1084 C 0.44446 0.5928 0.41366 0.0
H1085 H 0.39881 0.67433 0.33283 0.0
H1086 H 0.4166 0.65778 0.36785 0.0
H1087 H 0.44854 0.59627 0.35005 0.0
H1088 H 0.47451 0.53213 0.44921 0.0
H1089 H 0.45796 0.55034 0.41493 0.0
C1090 C 0.09643 0.40126 0.83857 0.0
C1091 C 0.10675 0.41305 0.81736 0.0
C1092 C 0.08756 0.4129 0.85857 0.0
C1093 C 0.09069 0.47089 0.88654 0.0
H1094 H 0.03341 0.44441 0.92145 0.0
C1095 C 0.04145 0.52339 0.95485 0.0
C1096 C 0.03117 0.51294 0.97675 0.0
C1097 C 0.05113 0.51074 0.93636 0.0
C1098 C 0.04959 0.45196 0.91214 0.0
H1099 H 0.11522 0.4465 0.80061 0.0
H1100 H 0.09975 0.46669 0.83523 0.0
H1101 H 0.04913 0.42344 0.88748 0.0
H1102 H 0.02237 0.48081 0.99592 0.0
H1103 H 0.03963 0.45861 0.96392 0.0
H1104 H 0.09106 0.49948 0.91102 0.0
C1105 C 0.09892 0.44845 0.8367 0.0
C1106 C 0.05865 0.4399 0.89259 0.0
C1107 C 0.10782 0.43683 0.81675 0.0
C1108 C 0.03062 0.48944 0.97961 0.0
C1109 C 0.04025 0.47668 0.96103 0.0
C1110 C 0.08162 0.48295 0.90602 0.0
C1111 C 0.08869 0.4367 0.85798 0.0
C1112 C 0.07926 0.44925 0.87934 0.0
C1113 C 0.05069 0.48718 0.93911 0.0
C1114 C 0.06084 0.47377 0.91901 0.0
H1115 H 0.09556 0.383 0.83995 0.0
H1116 H 0.08015 0.40323 0.87471 0.0
H1117 H 0.10685 0.47852 0.87724 0.0
H1118 H 0.042 0.54145 0.95194 0.0
H1119 H 0.0586 0.51942 0.91964 0.0
C1120 C 0.64675 0.85905 0.9306 0.0
C1121 C 0.6392 0.84888 0.90795 0.0
C1122 C 0.63592 0.8764 0.94099 0.0
C1123 C 0.59735 0.9183 0.92467 0.0
H1124 H 0.59038 0.92321 0.99648 0.0
C1125 C 0.538 0.97519 0.97464 0.0
C1126 C 0.54763 0.98826 0.99486 0.0
C1127 C 0.55012 0.95925 0.96318 0.0
C1128 C 0.59242 0.92216 0.9764 0.0
H1129 H 0.61409 0.84841 0.87868 0.0
H1130 H 0.59457 0.87811 0.89718 0.0
H1131 H 0.60875 0.89252 0.97861 0.0
H1132 H 0.5777 0.99511 1.01863 0.0
H1133 H 0.59868 0.96698 0.99877 0.0
H1134 H 0.58023 0.94762 0.92265 0.0
C1135 C 0.60931 0.87326 0.90662 0.0
C1136 C 0.60301 0.90461 0.96612 0.0
C1137 C 0.62037 0.85612 0.89607 0.0
C1138 C 0.56984 0.98537 1.00304 0.0
C1139 C 0.58178 0.96918 0.99181 0.0
C1140 C 0.58646 0.93566 0.93498 0.0
C1141 C 0.61706 0.88378 0.92913 0.0
C1142 C 0.60566 0.90244 0.9401 0.0
C1143 C 0.57193 0.95583 0.97193 0.0
C1144 C 0.58394 0.93777 0.96094 0.0
H1145 H 0.66146 0.854 0.93995 0.0
H1146 H 0.64269 0.88433 0.95807 0.0
H1147 H 0.59946 0.91751 0.9046 0.0
H1148 H 0.52096 0.97705 0.96784 0.0
H1149 H 0.54208 0.9491 0.94797 0.0
C1150 C 0.79921 0.11617 0.4813 0.0
C1151 C 0.80177 0.13983 0.47817 0.0
C1152 C 0.81826 0.10603 0.48799 0.0
C1153 C 0.88204 0.11368 0.48667 0.0
H1154 H 0.87361 0.07118 0.54196 0.0
C1155 C 0.94116 0.06538 0.55493 0.0
C1156 C 0.95399 0.05446 0.53742 0.0
C1157 C 0.9231 0.07647 0.54726 0.0
C1158 C 0.87621 0.08308 0.52655 0.0
H1159 H 0.82616 0.17145 0.47902 0.0
H1160 H 0.85966 0.15363 0.49059 0.0
H1161 H 0.84079 0.0892 0.52908 0.0
H1162 H 0.95847 0.04678 0.49822 0.0
H1163 H 0.92699 0.06655 0.48471 0.0
H1164 H 0.91749 0.10741 0.48411 0.0
C1165 C 0.8429 0.143 0.48791 0.0
C1166 C 0.85743 0.09322 0.51908 0.0
C1167 C 0.82376 0.15317 0.4815 0.0
C1168 C 0.94883 0.05516 0.51205 0.0
C1169 C 0.93092 0.06649 0.50434 0.0
C1170 C 0.90079 0.1033 0.49396 0.0
C1171 C 0.84024 0.11937 0.4914 0.0
C1172 C 0.86019 0.10863 0.49912 0.0
C1173 C 0.91775 0.07701 0.52193 0.0
C1174 C 0.89802 0.08799 0.51403 0.0
H1175 H 0.78239 0.10554 0.47898 0.0
H1176 H 0.81584 0.08775 0.49042 0.0
H1177 H 0.88453 0.12543 0.47114 0.0
H1178 H 0.94489 0.06514 0.5746 0.0
H1179 H 0.91332 0.08465 0.56114 0.0
C1180 C 0.2294 0.63129 0.16497 0.0
C1181 C 0.2441 0.64832 0.15134 0.0
C1182 C 0.20919 0.61904 0.15446 0.0
C1183 C 0.17881 0.60783 0.09287 0.0
H1184 H 0.12529 0.58512 0.13567 0.0
C1185 C 0.08397 0.57909 0.058 0.0
C1186 C 0.07295 0.55735 0.06568 0.0
C1187 C 0.1054 0.589 0.06795 0.0
C1188 C 0.14016 0.59127 0.1235 0.0
H1189 H 0.24875 0.66495 0.11519 0.0
H1190 H 0.21318 0.64518 0.09787 0.0
H1191 H 0.16101 0.60485 0.15402 0.0
H1192 H 0.07592 0.52908 0.09005 0.0
H1193 H 0.11296 0.54678 0.10802 0.0
H1194 H 0.1572 0.59513 0.06231 0.0
C1195 C 0.21744 0.64062 0.11648 0.0
C1196 C 0.16084 0.60249 0.13402 0.0
C1197 C 0.23785 0.65249 0.12677 0.0
C1198 C 0.08395 0.54578 0.08359 0.0
C1199 C 0.1051 0.55595 0.094 0.0
C1200 C 0.15796 0.5971 0.08237 0.0
C1201 C 0.20267 0.62362 0.13007 0.0
C1202 C 0.18059 0.61105 0.1189 0.0
C1203 C 0.11607 0.57768 0.08629 0.0
C1204 C 0.13839 0.58868 0.09755 0.0
H1205 H 0.2332 0.62753 0.18399 0.0
H1206 H 0.19877 0.60588 0.16559 0.0
H1207 H 0.19357 0.61343 0.08041 0.0
H1208 H 0.07602 0.58847 0.04424 0.0
H1209 H 0.1134 0.60578 0.0617 0.0
C1210 C 0.28881 0.4402 0.67554 0.0
C1211 C 0.2697 0.42903 0.66217 0.0
C1212 C 0.30964 0.44984 0.66316 0.0
C1213 C 0.33385 0.46993 0.60074 0.0
H1214 H 0.39349 0.46408 0.62912 0.0
C1215 C 0.42145 0.49043 0.54456 0.0
C1216 C 0.44149 0.50063 0.55703 0.0
C1217 C 0.40041 0.48313 0.55774 0.0
C1218 C 0.37702 0.46617 0.62107 0.0
H1219 H 0.25766 0.41964 0.62504 0.0
H1220 H 0.29401 0.43601 0.60355 0.0
H1221 H 0.35723 0.44844 0.65128 0.0
H1222 H 0.45506 0.51159 0.59309 0.0
H1223 H 0.41826 0.49906 0.61616 0.0
H1224 H 0.35363 0.48751 0.57044 0.0
C1225 C 0.29284 0.43753 0.62365 0.0
C1226 C 0.35616 0.45717 0.6338 0.0
C1227 C 0.27203 0.42786 0.63603 0.0
C1228 C 0.43991 0.50377 0.58295 0.0
C1229 C 0.41885 0.49642 0.59619 0.0
C1230 C 0.3547 0.47893 0.58801 0.0
C1231 C 0.31197 0.44865 0.63702 0.0
C1232 C 0.33426 0.45878 0.62375 0.0
C1233 C 0.39884 0.48581 0.58379 0.0
C1234 C 0.3766 0.47705 0.5979 0.0
H1235 H 0.28781 0.44125 0.69569 0.0
H1236 H 0.32386 0.45844 0.6741 0.0
H1237 H 0.31738 0.47191 0.59261 0.0
H1238 H 0.42211 0.48775 0.52458 0.0
H1239 H 0.38553 0.47482 0.54755 0.0
C1240 C 0.76242 0.67437 0.89431 0.0
C1241 C 0.75917 0.69669 0.9003 0.0
C1242 C 0.77939 0.66436 0.90624 0.0
C1243 C 0.83602 0.68118 0.93385 0.0
H1244 H 0.82852 0.61952 0.95911 0.0
C1245 C 0.9103 0.64803 0.98413 0.0
C1246 C 0.91301 0.62514 0.98096 0.0
C1247 C 0.89097 0.65612 0.97468 0.0
C1248 C 0.83101 0.63666 0.95179 0.0
H1249 H 0.77041 0.72564 0.92421 0.0
H1250 H 0.80004 0.70814 0.94501 0.0
H1251 H 0.79467 0.63425 0.94325 0.0
H1252 H 0.89749 0.59287 0.96495 0.0
H1253 H 0.86433 0.60725 0.94743 0.0
H1254 H 0.87233 0.68358 0.94147 0.0
C1255 C 0.78948 0.69844 0.93107 0.0
C1256 C 0.81157 0.64511 0.94288 0.0
C1257 C 0.77235 0.70834 0.91937 0.0
C1258 C 0.89613 0.61066 0.96753 0.0
C1259 C 0.87688 0.61883 0.95782 0.0
C1260 C 0.85547 0.67268 0.94242 0.0
C1261 C 0.7936 0.67661 0.92414 0.0
C1262 C 0.81389 0.66751 0.93402 0.0
C1263 C 0.87394 0.64164 0.96146 0.0
C1264 C 0.85322 0.65036 0.95167 0.0
H1265 H 0.75241 0.66499 0.87975 0.0
H1266 H 0.78225 0.64752 0.90053 0.0
H1267 H 0.8384 0.69837 0.92662 0.0
H1268 H 0.92311 0.65979 0.99403 0.0
H1269 H 0.88922 0.67371 0.97816 0.0
C1270 C 0.40198 0.81468 0.1444 0.0
C1271 C 0.40437 0.81048 0.16998 0.0
C1272 C 0.4114 0.83578 0.13372 0.0
C1273 C 0.45674 0.88643 0.14372 0.0
H1274 H 0.42264 0.91542 0.09533 0.0
C1275 C 0.49163 0.97756 0.10921 0.0
C1276 C 0.48877 0.98305 0.08415 0.0
C1277 C 0.48024 0.95703 0.11946 0.0
C1278 C 0.4326 0.9075 0.10857 0.0
H1279 H 0.41822 0.82597 0.20431 0.0
H1280 H 0.43488 0.86234 0.18569 0.0
H1281 H 0.40524 0.87878 0.11325 0.0
H1282 H 0.47151 0.97107 0.05035 0.0
H1283 H 0.45178 0.93504 0.06788 0.0
H1284 H 0.48426 0.91472 0.13885 0.0
C1285 C 0.42593 0.84918 0.17379 0.0
C1286 C 0.42255 0.88642 0.11891 0.0
C1287 C 0.41637 0.82818 0.1845 0.0
C1288 C 0.4738 0.96759 0.06972 0.0
C1289 C 0.4625 0.94684 0.0799 0.0
C1290 C 0.46684 0.90736 0.13328 0.0
C1291 C 0.42368 0.8533 0.14822 0.0
C1292 C 0.43441 0.87564 0.13678 0.0
C1293 C 0.46581 0.94106 0.10489 0.0
C1294 C 0.45491 0.91839 0.11566 0.0
H1295 H 0.39323 0.80151 0.1324 0.0
H1296 H 0.40953 0.83816 0.11393 0.0
H1297 H 0.46665 0.87851 0.15701 0.0
H1298 H 0.50298 0.98911 0.12094 0.0
H1299 H 0.48289 0.95368 0.1389 0.0
C1300 C 0.1071 0.24387 0.67314 0.0
C1301 C 0.11522 0.26236 0.65731 0.0
C1302 C 0.09724 0.22269 0.66326 0.0
C1303 C 0.07003 0.19529 0.60635 0.0
H1304 H 0.08955 0.14064 0.6317 0.0
C1305 C 0.04804 0.10915 0.5549 0.0
C1306 C 0.04246 0.08919 0.56917 0.0
C1307 C 0.05675 0.12998 0.56616 0.0
C1308 C 0.08361 0.15564 0.62456 0.0
H1309 H 0.11841 0.27324 0.61872 0.0
H1310 H 0.10129 0.23655 0.60158 0.0
H1311 H 0.10377 0.17734 0.65084 0.0
H1312 H 0.04187 0.07562 0.60664 0.0
H1313 H 0.05663 0.11191 0.62631 0.0
H1314 H 0.04975 0.17373 0.58022 0.0
C1315 C 0.10255 0.23829 0.62162 0.0
C1316 C 0.0918 0.17675 0.63559 0.0
C1317 C 0.11257 0.25932 0.63146 0.0
C1318 C 0.04612 0.09059 0.59499 0.0
C1319 C 0.05469 0.11146 0.6063 0.0
C1320 C 0.06173 0.1742 0.59544 0.0
C1321 C 0.09498 0.21958 0.63733 0.0
C1322 C 0.08529 0.1969 0.62649 0.0
C1323 C 0.05998 0.13155 0.59209 0.0
C1324 C 0.06854 0.15403 0.6042 0.0
H1325 H 0.10897 0.24559 0.69312 0.0
H1326 H 0.0914 0.20874 0.67594 0.0
H1327 H 0.06433 0.21037 0.59908 0.0
H1328 H 0.04559 0.10877 0.53495 0.0
H1329 H 0.06103 0.14487 0.55443 0.0
C1330 C 0.6859 0.29293 0.56075 0.0
C1331 C 0.69371 0.29437 0.53574 0.0
C1332 C 0.67626 0.31084 0.5717 0.0
C1333 C 0.63754 0.34013 0.57662 0.0
H1334 H 0.65685 0.40315 0.55753 0.0
C1335 C 0.57403 0.39682 0.54499 0.0
C1336 C 0.57916 0.42051 0.54789 0.0
C1337 C 0.58915 0.38288 0.55394 0.0
C1338 C 0.65131 0.38579 0.56368 0.0
H1339 H 0.69935 0.31585 0.50307 0.0
H1340 H 0.6828 0.34713 0.52205 0.0
H1341 H 0.6849 0.37681 0.55464 0.0
H1342 H 0.60302 0.44807 0.56428 0.0
H1343 H 0.6296 0.42366 0.57988 0.0
H1344 H 0.60363 0.34887 0.58451 0.0
C1345 C 0.68407 0.33239 0.53337 0.0
C1346 C 0.66737 0.37066 0.56181 0.0
C1347 C 0.69338 0.31445 0.5224 0.0
C1348 C 0.59893 0.42988 0.56132 0.0
C1349 C 0.61407 0.41592 0.57033 0.0
C1350 C 0.62147 0.35528 0.57852 0.0
C1351 C 0.67466 0.33048 0.55784 0.0
C1352 C 0.66028 0.34745 0.56695 0.0
C1353 C 0.60972 0.39233 0.56605 0.0
C1354 C 0.62786 0.37798 0.57077 0.0
H1355 H 0.68595 0.27747 0.57128 0.0
H1356 H 0.66917 0.30896 0.59059 0.0
H1357 H 0.63153 0.32234 0.58071 0.0
H1358 H 0.55902 0.38913 0.53457 0.0
H1359 H 0.58544 0.36484 0.54994 0.0
loop_
_geom_bond_atom_site_label_1
_geom_bond_atom_site_label_2
_geom_bond_distance
_geom_bond_site_symmetry_2
_ccdc_geom_bond_type
C0 C1 1.391 . S
C0 C4 1.391 . S
C0 H42 0.948 . S
C1 C0 1.391 . S
C1 C2 1.391 . S
C2 C1 1.391 . S
C2 H58 0.947 . S
C2 C59 1.392 . S
C3 C4 1.391 . S
C3 C7 1.397 . S
C3 C59 1.419 . S
C4 C0 1.391 . S
C4 C3 1.391 . S
C4 C5 1.399 . S
C5 C4 1.399 . S
C5 C8 1.396 . S
C5 C17 1.453 . S
C5 C18 1.684 . S
H6 C30 0.948 . S
C7 C3 1.397 . S
C7 C8 1.394 . S
C7 C26 1.723 . S
C8 C5 1.396 . S
C8 C7 1.394 . S
C8 C38 1.723 . S
H9 C32 0.947 . S
H10 C33 0.948 . S
H11 C39 0.982 . S
H12 C40 0.979 . S
H13 C40 0.980 . S
H14 C40 0.983 . S
H15 C39 0.979 . S
H16 C39 0.977 . S
C17 C5 1.453 . S
C17 H46 0.982 . S
C17 H47 0.979 . S
C17 H48 0.977 . S
C18 C5 1.684 . S
C18 H43 0.979 . S
C18 H44 0.980 . S
C18 H45 0.983 . S
C19 C20 1.391 . S
C19 C24 1.391 . S
C19 H49 0.948 . S
C20 C19 1.391 . S
C20 C21 1.391 . S
C21 C20 1.391 . S
C21 C22 1.392 . S
C21 H50 0.947 . S
C22 C21 1.392 . S
C22 C23 1.419 . S
C22 H51 0.948 . S
C23 C22 1.419 . S
C23 C24 1.391 . S
C23 C27 1.397 . S
C24 C19 1.391 . S
C24 C23 1.391 . S
C24 C25 1.399 . S
C25 C24 1.399 . S
C25 C26 1.396 . S
C25 C28 1.453 . S
C25 C29 1.684 . S
C26 C7 1.723 . S
C26 C25 1.396 . S
C26 C27 1.394 . S
C27 C23 1.397 . S
C27 C26 1.394 . S
C27 C37 1.723 . S
C28 C25 1.453 . S
C28 H52 0.982 . S
C28 H53 0.979 . S
C28 H54 0.977 . S
C29 C25 1.684 . S
C29 H55 0.979 . S
C29 H56 0.980 . S
C29 H57 0.983 . S
C30 H6 0.948 . S
C30 C31 1.391 . S
C30 C35 1.391 . S
C31 C30 1.391 . S
C31 C32 1.391 . S
C32 H9 0.947 . S
C32 C31 1.391 . S
C32 C33 1.392 . S
C33 H10 0.948 . S
C33 C32 1.392 . S
C33 C34 1.419 . S
C34 C33 1.419 . S
C34 C35 1.391 . S
C34 C38 1.397 . S
C35 C30 1.391 . S
C35 C34 1.391 . S
C35 C36 1.399 . S
C36 C35 1.399 . S
C36 C37 1.396 . S
C36 C39 1.453 . S
C36 C40 1.684 . S
C37 C27 1.723 . S
C37 C36 1.396 . S
C37 C38 1.394 . S
C38 C8 1.723 . S
C38 C34 1.397 . S
C38 C37 1.394 . S
C39 H11 0.982 . S
C39 H15 0.979 . S
C39 H16 0.977 . S
C39 C36 1.453 . S
C40 H12 0.979 . S
C40 H13 0.980 . S
C40 H14 0.983 . S
C40 C36 1.684 . S
H41 C59 0.948 . S
H42 C0 0.948 . S
H43 C18 0.979 . S
H44 C18 0.980 . S
H45 C18 0.983 . S
H46 C17 0.982 . S
H47 C17 0.979 . S
H48 C17 0.977 . S
H49 C19 0.948 . S
H50 C21 0.947 . S
H51 C22 0.948 . S
H52 C28 0.982 . S
H53 C28 0.979 . S
H54 C28 0.977 . S
H55 C29 0.979 . S
H56 C29 0.980 . S
H57 C29 0.983 . S
H58 C2 0.947 . S
C59 C2 1.392 . S
C59 C3 1.419 . S
C59 H41 0.948 . S
C60 C61 1.391 . S
C60 C64 1.391 . S
C60 H102 0.948 . S
C61 C60 1.391 . S
C61 C62 1.391 . S
C62 C61 1.391 . S
C62 H118 0.947 . S
C62 C119 1.392 . S
C63 C64 1.391 . S
C63 C67 1.397 . S
C63 C119 1.419 . S
C64 C60 1.391 . S
C64 C63 1.391 . S
C64 C65 1.399 . S
C65 C64 1.399 . S
C65 C68 1.396 . S
C65 C77 1.453 . S
C65 C78 1.684 . S
H66 C90 0.948 . S
C67 C63 1.397 . S
C67 C68 1.394 . S
C67 C86 1.723 . S
C68 C65 1.396 . S
C68 C67 1.394 . S
C68 C98 1.723 . S
H69 C92 0.947 . S
H70 C93 0.948 . S
H71 C99 0.982 . S
H72 C100 0.979 . S
H73 C100 0.980 . S
H74 C100 0.983 . S
H75 C99 0.979 . S
H76 C99 0.977 . S
C77 C65 1.453 . S
C77 H106 0.982 . S
C77 H107 0.979 . S
C77 H108 0.977 . S
C78 C65 1.684 . S
C78 H103 0.979 . S
C78 H104 0.980 . S
C78 H105 0.983 . S
C79 C80 1.391 . S
C79 C84 1.391 . S
C79 H109 0.948 . S
C80 C79 1.391 . S
C80 C81 1.391 . S
C81 C80 1.391 . S
C81 C82 1.392 . S
C81 H110 0.947 . S
C82 C81 1.392 . S
C82 C83 1.419 . S
C82 H111 0.948 . S
C83 C82 1.419 . S
C83 C84 1.391 . S
C83 C87 1.397 . S
C84 C79 1.391 . S
C84 C83 1.391 . S
C84 C85 1.399 . S
C85 C84 1.399 . S
C85 C86 1.396 . S
C85 C88 1.453 . S
C85 C89 1.684 . S
C86 C67 1.723 . S
C86 C85 1.396 . S
C86 C87 1.394 . S
C87 C83 1.397 . S
C87 C86 1.394 . S
C87 C97 1.723 . S
C88 C85 1.453 . S
C88 H112 0.982 . S
C88 H113 0.979 . S
C88 H114 0.977 . S
C89 C85 1.684 . S
C89 H115 0.979 . S
C89 H116 0.980 . S
C89 H117 0.983 . S
C90 H66 0.948 . S
C90 C91 1.391 . S
C90 C95 1.391 . S
C91 C90 1.391 . S
C91 C92 1.391 . S
C92 H69 0.947 . S
C92 C91 1.391 . S
C92 C93 1.392 . S
C93 H70 0.948 . S
C93 C92 1.392 . S
C93 C94 1.419 . S
C94 C93 1.419 . S
C94 C95 1.391 . S
C94 C98 1.397 . S
C95 C90 1.391 . S
C95 C94 1.391 . S
C95 C96 1.399 . S
C96 C95 1.399 . S
C96 C97 1.396 . S
C96 C99 1.453 . S
C96 C100 1.684 . S
C97 C87 1.723 . S
C97 C96 1.396 . S
C97 C98 1.394 . S
C98 C68 1.723 . S
C98 C94 1.397 . S
C98 C97 1.394 . S
C99 H71 0.982 . S
C99 H75 0.979 . S
C99 H76 0.977 . S
C99 C96 1.453 . S
C100 H72 0.979 . S
C100 H73 0.980 . S
C100 H74 0.983 . S
C100 C96 1.684 . S
H101 C119 0.948 . S
H102 C60 0.948 . S
H103 C78 0.979 . S
H104 C78 0.980 . S
H105 C78 0.983 . S
H106 C77 0.982 . S
H107 C77 0.979 . S
H108 C77 0.977 . S
H109 C79 0.948 . S
H110 C81 0.947 . S
H111 C82 0.948 . S
H112 C88 0.982 . S
H113 C88 0.979 . S
H114 C88 0.977 . S
H115 C89 0.979 . S
H116 C89 0.980 . S
H117 C89 0.983 . S
H118 C62 0.947 . S
C119 C62 1.392 . S
C119 C63 1.419 . S
C119 H101 0.948 . S
C120 C121 1.391 . S
C120 C124 1.391 . S
C120 H162 0.948 . S
C121 C120 1.391 . S
C121 C122 1.391 . S
C122 C121 1.391 . S
C122 H178 0.947 . S
C122 C179 1.392 . S
C123 C124 1.391 . S
C123 C127 1.397 . S
C123 C179 1.419 . S
C124 C120 1.391 . S
C124 C123 1.391 . S
C124 C125 1.399 . S
C125 C124 1.399 . S
C125 C128 1.396 . S
C125 C137 1.453 . S
C125 C138 1.684 . S
H126 C150 0.948 . S
C127 C123 1.397 . S
C127 C128 1.394 . S
C127 C146 1.723 . S
C128 C125 1.396 . S
C128 C127 1.394 . S
C128 C158 1.723 . S
H129 C152 0.947 . S
H130 C153 0.948 . S
H131 C159 0.982 . S
H132 C160 0.979 . S
H133 C160 0.980 . S
H134 C160 0.983 . S
H135 C159 0.979 . S
H136 C159 0.977 . S
C137 C125 1.453 . S
C137 H166 0.982 . S
C137 H167 0.979 . S
C137 H168 0.977 . S
C138 C125 1.684 . S
C138 H163 0.979 . S
C138 H164 0.980 . S
C138 H165 0.983 . S
C139 C140 1.391 . S
C139 C144 1.391 . S
C139 H169 0.948 . S
C140 C139 1.391 . S
C140 C141 1.391 . S
C141 C140 1.391 . S
C141 C142 1.392 . S
C141 H170 0.947 . S
C142 C141 1.392 . S
C142 C143 1.419 . S
C142 H171 0.948 . S
C143 C142 1.419 . S
C143 C144 1.391 . S
C143 C147 1.397 . S
C144 C139 1.391 . S
C144 C143 1.391 . S
C144 C145 1.399 . S
C145 C144 1.399 . S
C145 C146 1.396 . S
C145 C148 1.453 . S
C145 C149 1.684 . S
C146 C127 1.723 . S
C146 C145 1.396 . S
C146 C147 1.394 . S
C147 C143 1.397 . S
C147 C146 1.394 . S
C147 C157 1.723 . S
C148 C145 1.453 . S
C148 H172 0.982 . S
C148 H173 0.979 . S
C148 H174 0.977 . S
C149 C145 1.684 . S
C149 H175 0.979 . S
C149 H176 0.980 . S
C149 H177 0.983 . S
C150 H126 0.948 . S
C150 C151 1.391 . S
C150 C155 1.391 . S
C151 C150 1.391 . S
C151 C152 1.391 . S
C152 H129 0.947 . S
C152 C151 1.391 . S
C152 C153 1.392 . S
C153 H130 0.948 . S
C153 C152 1.392 . S
C153 C154 1.419 . S
C154 C153 1.419 . S
C154 C155 1.391 . S
C154 C158 1.397 . S
C155 C150 1.391 . S
C155 C154 1.391 . S
C155 C156 1.399 . S
C156 C155 1.399 . S
C156 C157 1.396 . S
C156 C159 1.453 . S
C156 C160 1.684 . S
C157 C147 1.723 . S
C157 C156 1.396 . S
C157 C158 1.394 . S
C158 C128 1.723 . S
C158 C154 1.397 . S
C158 C157 1.394 . S
C159 H131 0.982 . S
C159 H135 0.979 . S
C159 H136 0.977 . S
C159 C156 1.453 . S
C160 H132 0.979 . S
C160 H133 0.980 . S
C160 H134 0.983 . S
C160 C156 1.684 . S
H161 C179 0.948 . S
H162 C120 0.948 . S
H163 C138 0.979 . S
H164 C138 0.980 . S
H165 C138 0.983 . S
H166 C137 0.982 . S
H167 C137 0.979 . S
H168 C137 0.977 . S
H169 C139 0.948 . S
H170 C141 0.947 . S
H171 C142 0.948 . S
H172 C148 0.982 . S
H173 C148 0.979 . S
H174 C148 0.977 . S
H175 C149 0.979 . S
H176 C149 0.980 . S
H177 C149 0.983 . S
H178 C122 0.947 . S
C179 C122 1.392 . S
C179 C123 1.419 . S
C179 H161 0.948 . S
C180 C181 1.391 . S
C180 C184 1.391 . S
C180 H222 0.948 . S
C181 C180 1.391 . S
C181 C182 1.391 . S
C182 C181 1.391 . S
C182 H238 0.947 . S
C182 C239 1.392 . S
C183 C184 1.391 . S
C183 C187 1.397 . S
C183 C239 1.419 . S
C184 C180 1.391 . S
C184 C183 1.391 . S
C184 C185 1.399 . S
C185 C184 1.399 . S
C185 C188 1.396 . S
C185 C197 1.453 . S
C185 C198 1.684 . S
H186 C210 0.948 . S
C187 C183 1.397 . S
C187 C188 1.394 . S
C187 C206 1.723 . S
C188 C185 1.396 . S
C188 C187 1.394 . S
C188 C218 1.723 . S
H189 C212 0.947 . S
H190 C213 0.948 . S
H191 C219 0.982 . S
H192 C220 0.979 . S
H193 C220 0.980 . S
H194 C220 0.983 . S
H195 C219 0.979 . S
H196 C219 0.977 . S
C197 C185 1.453 . S
C197 H226 0.982 . S
C197 H227 0.979 . S
C197 H228 0.977 . S
C198 C185 1.684 . S
C198 H223 0.979 . S
C198 H224 0.980 . S
C198 H225 0.983 . S
C199 C200 1.391 . S
C199 C204 1.391 . S
C199 H229 0.948 . S
C200 C199 1.391 . S
C200 C201 1.391 . S
C201 C200 1.391 . S
C201 C202 1.392 . S
C201 H230 0.947 . S
C202 C201 1.392 . S
C202 C203 1.419 . S
C202 H231 0.948 . S
C203 C202 1.419 . S
C203 C204 1.391 . S
C203 C207 1.397 . S
C204 C199 1.391 . S
C204 C203 1.391 . S
C204 C205 1.399 . S
C205 C204 1.399 . S
C205 C206 1.396 . S
C205 C208 1.453 . S
C205 C209 1.684 . S
C206 C187 1.723 . S
C206 C205 1.396 . S
C206 C207 1.394 . S
C207 C203 1.397 . S
C207 C206 1.394 . S
C207 C217 1.723 . S
C208 C205 1.453 . S
C208 H232 0.982 . S
C208 H233 0.979 . S
C208 H234 0.977 . S
C209 C205 1.684 . S
C209 H235 0.979 . S
C209 H236 0.980 . S
C209 H237 0.983 . S
C210 H186 0.948 . S
C210 C211 1.391 . S
C210 C215 1.391 . S
C211 C210 1.391 . S
C211 C212 1.391 . S
C212 H189 0.947 . S
C212 C211 1.391 . S
C212 C213 1.392 . S
C213 H190 0.948 . S
C213 C212 1.392 . S
C213 C214 1.419 . S
C214 C213 1.419 . S
C214 C215 1.391 . S
C214 C218 1.397 . S
C215 C210 1.391 . S
C215 C214 1.391 . S
C215 C216 1.399 . S
C216 C215 1.399 . S
C216 C217 1.396 . S
C216 C219 1.453 . S
C216 C220 1.684 . S
C217 C207 1.723 . S
C217 C216 1.396 . S
C217 C218 1.394 . S
C218 C188 1.723 . S
C218 C214 1.397 . S
C218 C217 1.394 . S
C219 H191 0.982 . S
C219 H195 0.979 . S
C219 H196 0.977 . S
C219 C216 1.453 . S
C220 H192 0.979 . S
C220 H193 0.980 . S
C220 H194 0.983 . S
C220 C216 1.684 . S
H221 C239 0.948 . S
H222 C180 0.948 . S
H223 C198 0.979 . S
H224 C198 0.980 . S
H225 C198 0.983 . S
H226 C197 0.982 . S
H227 C197 0.979 . S
H228 C197 0.977 . S
H229 C199 0.948 . S
H230 C201 0.947 . S
H231 C202 0.948 . S
H232 C208 0.982 . S
H233 C208 0.979 . S
H234 C208 0.977 . S
H235 C209 0.979 . S
H236 C209 0.980 . S
H237 C209 0.983 . S
H238 C182 0.947 . S
C239 C182 1.392 . S
C239 C183 1.419 . S
C239 H221 0.948 . S
C240 C241 1.391 . S
C240 C244 1.391 . S
C240 H282 0.948 . S
C241 C240 1.391 . S
C241 C242 1.391 . S
C242 C241 1.391 . S
C242 H298 0.947 . S
C242 C299 1.392 . S
C243 C244 1.391 . S
C243 C247 1.397 . S
C243 C299 1.419 . S
C244 C240 1.391 . S
C244 C243 1.391 . S
C244 C245 1.399 . S
C245 C244 1.399 . S
C245 C248 1.396 . S
C245 C257 1.453 . S
C245 C258 1.684 . S
H246 C270 0.948 . S
C247 C243 1.397 . S
C247 C248 1.394 . S
C247 C266 1.723 . S
C248 C245 1.396 . S
C248 C247 1.394 . S
C248 C278 1.723 . S
H249 C272 0.947 . S
H250 C273 0.948 . S
H251 C279 0.982 . S
H252 C280 0.979 . S
H253 C280 0.980 . S
H254 C280 0.983 . S
H255 C279 0.979 . S
H256 C279 0.977 . S
C257 C245 1.453 . S
C257 H286 0.982 . S
C257 H287 0.979 . S
C257 H288 0.977 . S
C258 C245 1.684 . S
C258 H283 0.979 . S
C258 H284 0.980 . S
C258 H285 0.983 . S
C259 C260 1.391 . S
C259 C264 1.391 . S
C259 H289 0.948 . S
C260 C259 1.391 . S
C260 C261 1.391 . S
C261 C260 1.391 . S
C261 C262 1.392 . S
C261 H290 0.947 . S
C262 C261 1.392 . S
C262 C263 1.419 . S
C262 H291 0.948 . S
C263 C262 1.419 . S
C263 C264 1.391 . S
C263 C267 1.397 . S
C264 C259 1.391 . S
C264 C263 1.391 . S
C264 C265 1.399 . S
C265 C264 1.399 . S
C265 C266 1.396 . S
C265 C268 1.453 . S
C265 C269 1.684 . S
C266 C247 1.723 . S
C266 C265 1.396 . S
C266 C267 1.394 . S
C267 C263 1.397 . S
C267 C266 1.394 . S
C267 C277 1.723 . S
C268 C265 1.453 . S
C268 H292 0.982 . S
C268 H293 0.979 . S
C268 H294 0.977 . S
C269 C265 1.684 . S
C269 H295 0.979 . S
C269 H296 0.980 . S
C269 H297 0.983 . S
C270 H246 0.948 . S
C270 C271 1.391 . S
C270 C275 1.391 . S
C271 C270 1.391 . S
C271 C272 1.391 . S
C272 H249 0.947 . S
C272 C271 1.391 . S
C272 C273 1.392 . S
C273 H250 0.948 . S
C273 C272 1.392 . S
C273 C274 1.419 . S
C274 C273 1.419 . S
C274 C275 1.391 . S
C274 C278 1.397 . S
C275 C270 1.391 . S
C275 C274 1.391 . S
C275 C276 1.399 . S
C276 C275 1.399 . S
C276 C277 1.396 . S
C276 C279 1.453 . S
C276 C280 1.684 . S
C277 C267 1.723 . S
C277 C276 1.396 . S
C277 C278 1.394 . S
C278 C248 1.723 . S
C278 C274 1.397 . S
C278 C277 1.394 . S
C279 H251 0.982 . S
C279 H255 0.979 . S
C279 H256 0.977 . S
C279 C276 1.453 . S
C280 H252 0.979 . S
C280 H253 0.980 . S
C280 H254 0.983 . S
C280 C276 1.684 . S
H281 C299 0.948 . S
H282 C240 0.948 . S
H283 C258 0.979 . S
H284 C258 0.980 . S
H285 C258 0.983 . S
H286 C257 0.982 . S
H287 C257 0.979 . S
H288 C257 0.977 . S
H289 C259 0.948 . S
H290 C261 0.947 . S
H291 C262 0.948 . S
H292 C268 0.982 . S
H293 C268 0.979 . S
H294 C268 0.977 . S
H295 C269 0.979 . S
H296 C269 0.980 . S
H297 C269 0.983 . S
H298 C242 0.947 . S
C299 C242 1.392 . S
C299 C243 1.419 . S
C299 H281 0.948 . S
C300 C301 1.391 . S
C300 C304 1.391 . S
C300 H342 0.948 . S
C301 C300 1.391 . S
C301 C302 1.391 . S
C302 C301 1.391 . S
C302 H358 0.947 . S
C302 C359 1.392 . S
C303 C304 1.391 . S
C303 C307 1.397 . S
C303 C359 1.419 . S
C304 C300 1.391 . S
C304 C303 1.391 . S
C304 C305 1.399 . S
C305 C304 1.399 . S
C305 C308 1.396 . S
C305 C317 1.453 . S
C305 C318 1.684 . S
H306 C330 0.948 . S
C307 C303 1.397 . S
C307 C308 1.394 . S
C307 C326 1.723 . S
C308 C305 1.396 . S
C308 C307 1.394 . S
C308 C338 1.723 . S
H309 C332 0.947 . S
H310 C333 0.948 . S
H311 C339 0.982 . S
H312 C340 0.979 . S
H313 C340 0.980 . S
H314 C340 0.983 . S
H315 C339 0.979 . S
H316 C339 0.977 . S
C317 C305 1.453 . S
C317 H346 0.982 . S
C317 H347 0.979 . S
C317 H348 0.977 . S
C318 C305 1.684 . S
C318 H343 0.979 . S
C318 H344 0.980 . S
C318 H345 0.983 . S
C319 C320 1.391 . S
C319 C324 1.391 . S
C319 H349 0.948 . S
C320 C319 1.391 . S
C320 C321 1.391 . S
C321 C320 1.391 . S
C321 C322 1.392 . S
C321 H350 0.947 . S
C322 C321 1.392 . S
C322 C323 1.419 . S
C322 H351 0.948 . S
C323 C322 1.419 . S
C323 C324 1.391 . S
C323 C327 1.397 . S
C324 C319 1.391 . S
C324 C323 1.391 . S
C324 C325 1.399 . S
C325 C324 1.399 . S
C325 C326 1.396 . S
C325 C328 1.453 . S
C325 C329 1.684 . S
C326 C307 1.723 . S
C326 C325 1.396 . S
C326 C327 1.394 . S
C327 C323 1.397 . S
C327 C326 1.394 . S
C327 C337 1.723 . S
C328 C325 1.453 . S
C328 H352 0.982 . S
C328 H353 0.979 . S
C328 H354 0.977 . S
C329 C325 1.684 . S
C329 H355 0.979 . S
C329 H356 0.980 . S
C329 H357 0.983 . S
C330 H306 0.948 . S
C330 C331 1.391 . S
C330 C335 1.391 . S
C331 C330 1.391 . S
C331 C332 1.391 . S
C332 H309 0.947 . S
C332 C331 1.391 . S
C332 C333 1.392 . S
C333 H310 0.948 . S
C333 C332 1.392 . S
C333 C334 1.419 . S
C334 C333 1.419 . S
C334 C335 1.391 . S
C334 C338 1.397 . S
C335 C330 1.391 . S
C335 C334 1.391 . S
C335 C336 1.399 . S
C336 C335 1.399 . S
C336 C337 1.396 . S
C336 C339 1.453 . S
C336 C340 1.684 . S
C337 C327 1.723 . S
C337 C336 1.396 . S
C337 C338 1.394 . S
C338 C308 1.723 . S
C338 C334 1.397 . S
C338 C337 1.394 . S
C339 H311 0.982 . S
C339 H315 0.979 . S
C339 H316 0.977 . S
C339 C336 1.453 . S
C340 H312 0.979 . S
C340 H313 0.980 . S
C340 H314 0.983 . S
C340 C336 1.684 . S
H341 C359 0.948 . S
H342 C300 0.948 . S
H343 C318 0.979 . S
H344 C318 0.980 . S
H345 C318 0.983 . S
H346 C317 0.982 . S
H347 C317 0.979 . S
H348 C317 0.977 . S
H349 C319 0.948 . S
H350 C321 0.947 . S
H351 C322 0.948 . S
H352 C328 0.982 . S
H353 C328 0.979 . S
H354 C328 0.977 . S
H355 C329 0.979 . S
H356 C329 0.980 . S
H357 C329 0.983 . S
H358 C302 0.947 . S
C359 C302 1.392 . S
C359 C303 1.419 . S
C359 H341 0.948 . S
C360 C361 1.391 . S
C360 C364 1.391 . S
C360 H402 0.948 . S
C361 C360 1.391 . S
C361 C362 1.391 . S
C362 C361 1.391 . S
C362 H418 0.947 . S
C362 C419 1.392 . S
C363 C364 1.391 . S
C363 C367 1.397 . S
C363 C419 1.419 . S
C364 C360 1.391 . S
C364 C363 1.391 . S
C364 C365 1.399 . S
C365 C364 1.399 . S
C365 C368 1.396 . S
C365 C377 1.453 . S
C365 C378 1.684 . S
H366 C390 0.948 . S
C367 C363 1.397 . S
C367 C368 1.394 . S
C367 C386 1.723 . S
C368 C365 1.396 . S
C368 C367 1.394 . S
C368 C398 1.723 . S
H369 C392 0.947 . S
H370 C393 0.948 . S
H371 C399 0.982 . S
H372 C400 0.979 . S
H373 C400 0.980 . S
H374 C400 0.983 . S
H375 C399 0.979 . S
H376 C399 0.977 . S
C377 C365 1.453 . S
C377 H406 0.982 . S
C377 H407 0.979 . S
C377 H408 0.977 . S
C378 C365 1.684 . S
C378 H403 0.979 . S
C378 H404 0.980 . S
C378 H405 0.983 . S
C379 C380 1.391 . S
C379 C384 1.391 . S
C379 H409 0.948 . S
C380 C379 1.391 . S
C380 C381 1.391 . S
C381 C380 1.391 . S
C381 C382 1.392 . S
C381 H410 0.947 . S
C382 C381 1.392 . S
C382 C383 1.419 . S
C382 H411 0.948 . S
C383 C382 1.419 . S
C383 C384 1.391 . S
C383 C387 1.397 . S
C384 C379 1.391 . S
C384 C383 1.391 . S
C384 C385 1.399 . S
C385 C384 1.399 . S
C385 C386 1.396 . S
C385 C388 1.453 . S
C385 C389 1.684 . S
C386 C367 1.723 . S
C386 C385 1.396 . S
C386 C387 1.394 . S
C387 C383 1.397 . S
C387 C386 1.394 . S
C387 C397 1.723 . S
C388 C385 1.453 . S
C388 H412 0.982 . S
C388 H413 0.979 . S
C388 H414 0.977 . S
C389 C385 1.684 . S
C389 H415 0.979 . S
C389 H416 0.980 . S
C389 H417 0.983 . S
C390 H366 0.948 . S
C390 C391 1.391 . S
C390 C395 1.391 . S
C391 C390 1.391 . S
C391 C392 1.391 . S
C392 H369 0.947 . S
C392 C391 1.391 . S
C392 C393 1.392 . S
C393 H370 0.948 . S
C393 C392 1.392 . S
C393 C394 1.419 . S
C394 C393 1.419 . S
C394 C395 1.391 . S
C394 C398 1.397 . S
C395 C390 1.391 . S
C395 C394 1.391 . S
C395 C396 1.399 . S
C396 C395 1.399 . S
C396 C397 1.396 . S
C396 C399 1.453 . S
C396 C400 1.684 . S
C397 C387 1.723 . S
C397 C396 1.396 . S
C397 C398 1.394 . S
C398 C368 1.723 . S
C398 C394 1.397 . S
C398 C397 1.394 . S
C399 H371 0.982 . S
C399 H375 0.979 . S
C399 H376 0.977 . S
C399 C396 1.453 . S
C400 H372 0.979 . S
C400 H373 0.980 . S
C400 H374 0.983 . S
C400 C396 1.684 . S
H401 C419 0.948 . S
H402 C360 0.948 . S
H403 C378 0.979 . S
H404 C378 0.980 . S
H405 C378 0.983 . S
H406 C377 0.982 . S
H407 C377 0.979 . S
H408 C377 0.977 . S
H409 C379 0.948 . S
H410 C381 0.947 . S
H411 C382 0.948 . S
H412 C388 0.982 . S
H413 C388 0.979 . S
H414 C388 0.977 . S
H415 C389 0.979 . S
H416 C389 0.980 . S
H417 C389 0.983 . S
H418 C362 0.947 . S
C419 C362 1.392 . S
C419 C363 1.419 . S
C419 H401 0.948 . S
C420 C421 1.391 . S
C420 C424 1.391 . S
C420 H462 0.948 . S
C421 C420 1.391 . S
C421 C422 1.391 . S
C422 C421 1.391 . S
C422 H478 0.947 . S
C422 C479 1.392 . S
C423 C424 1.391 . S
C423 C427 1.397 . S
C423 C479 1.419 . S
C424 C420 1.391 . S
C424 C423 1.391 . S
C424 C425 1.399 . S
C425 C424 1.399 . S
C425 C428 1.396 . S
C425 C437 1.453 . S
C425 C438 1.684 . S
H426 C450 0.948 . S
C427 C423 1.397 . S
C427 C428 1.394 . S
C427 C446 1.723 . S
C428 C425 1.396 . S
C428 C427 1.394 . S
C428 C458 1.723 . S
H429 C452 0.947 . S
H430 C453 0.948 . S
H431 C459 0.982 . S
H432 C460 0.979 . S
H433 C460 0.980 . S
H434 C460 0.983 . S
H435 C459 0.979 . S
H436 C459 0.977 . S
C437 C425 1.453 . S
C437 H466 0.982 . S
C437 H467 0.979 . S
C437 H468 0.977 . S
C438 C425 1.684 . S
C438 H463 0.979 . S
C438 H464 0.980 . S
C438 H465 0.983 . S
C439 C440 1.391 . S
C439 C444 1.391 . S
C439 H469 0.948 . S
C440 C439 1.391 . S
C440 C441 1.391 . S
C441 C440 1.391 . S
C441 C442 1.392 . S
C441 H470 0.947 . S
C442 C441 1.392 . S
C442 C443 1.419 . S
C442 H471 0.948 . S
C443 C442 1.419 . S
C443 C444 1.391 . S
C443 C447 1.397 . S
C444 C439 1.391 . S
C444 C443 1.391 . S
C444 C445 1.399 . S
C445 C444 1.399 . S
C445 C446 1.396 . S
C445 C448 1.453 . S
C445 C449 1.684 . S
C446 C427 1.723 . S
C446 C445 1.396 . S
C446 C447 1.394 . S
C447 C443 1.397 . S
C447 C446 1.394 . S
C447 C457 1.723 . S
C448 C445 1.453 . S
C448 H472 0.982 . S
C448 H473 0.979 . S
C448 H474 0.977 . S
C449 C445 1.684 . S
C449 H475 0.979 . S
C449 H476 0.980 . S
C449 H477 0.983 . S
C450 H426 0.948 . S
C450 C451 1.391 . S
C450 C455 1.391 . S
C451 C450 1.391 . S
C451 C452 1.391 . S
C452 H429 0.947 . S
C452 C451 1.391 . S
C452 C453 1.392 . S
C453 H430 0.948 . S
C453 C452 1.392 . S
C453 C454 1.419 . S
C454 C453 1.419 . S
C454 C455 1.391 . S
C454 C458 1.397 . S
C455 C450 1.391 . S
C455 C454 1.391 . S
C455 C456 1.399 . S
C456 C455 1.399 . S
C456 C457 1.396 . S
C456 C459 1.453 . S
C456 C460 1.684 . S
C457 C447 1.723 . S
C457 C456 1.396 . S
C457 C458 1.394 . S
C458 C428 1.723 . S
C458 C454 1.397 . S
C458 C457 1.394 . S
C459 H431 0.982 . S
C459 H435 0.979 . S
C459 H436 0.977 . S
C459 C456 1.453 . S
C460 H432 0.979 . S
C460 H433 0.980 . S
C460 H434 0.983 . S
C460 C456 1.684 . S
H461 C479 0.948 . S
H462 C420 0.948 . S
H463 C438 0.979 . S
H464 C438 0.980 . S
H465 C438 0.983 . S
H466 C437 0.982 . S
H467 C437 0.979 . S
H468 C437 0.977 . S
H469 C439 0.948 . S
H470 C441 0.947 . S
H471 C442 0.948 . S
H472 C448 0.982 . S
H473 C448 0.979 . S
H474 C448 0.977 . S
H475 C449 0.979 . S
H476 C449 0.980 . S
H477 C449 0.983 . S
H478 C422 0.947 . S
C479 C422 1.392 . S
C479 C423 1.419 . S
C479 H461 0.948 . S
La480 C482 2.928 . S
La480 O500 2.521 . S
La480 O501 2.628 . S
La480 O502 2.554 1_545 S
La480 O503 2.757 1_545 S
La480 O504 2.470 . S
La480 O509 2.482 1_455 S
La480 O511 2.503 1_445 S
La481 C491 2.928 . S
La481 O503 2.482 1_655 S
La481 O505 2.503 1_665 S
La481 O506 2.521 . S
La481 O507 2.628 . S
La481 O508 2.554 1_565 S
La481 O509 2.757 1_565 S
La481 O510 2.470 . S
C482 La480 2.928 . S
C482 C483 1.503 . S
C482 O500 1.261 . S
C482 O501 1.243 . S
C483 C482 1.503 . S
C483 C484 1.394 . S
C483 C488 1.373 . S
C484 C483 1.394 . S
C484 C485 1.380 . S
C484 H512 0.930 . S
C485 C484 1.380 . S
C485 C486 1.376 . S
C485 H513 0.930 . S
C486 C485 1.376 . S
C486 C487 1.370 . S
C487 C486 1.370 . S
C487 C488 1.396 . S
C487 H514 0.929 . S
C488 C483 1.373 . S
C488 C487 1.396 . S
C488 H515 0.929 . S
C489 O502 1.240 . S
C489 O503 1.289 . S
C490 O504 1.258 . S
C490 O505 1.256 . S
C491 La481 2.928 . S
C491 C492 1.503 . S
C491 O506 1.261 . S
C491 O507 1.243 . S
C492 C491 1.503 . S
C492 C493 1.394 . S
C492 C497 1.373 . S
C493 C492 1.394 . S
C493 C494 1.380 . S
C493 H516 0.930 . S
C494 C493 1.380 . S
C494 C495 1.376 . S
C494 H517 0.930 . S
C495 C494 1.376 . S
C495 C496 1.370 . S
C496 C495 1.370 . S
C496 C497 1.396 . S
C496 H518 0.929 . S
C497 C492 1.373 . S
C497 C496 1.396 . S
C497 H519 0.929 . S
C498 O508 1.240 . S
C498 O509 1.289 . S
C499 O510 1.258 . S
C499 O511 1.256 . S
O500 La480 2.521 . S
O500 C482 1.261 . S
O501 La480 2.628 . S
O501 C482 1.243 . S
O502 La480 2.554 1_565 S
O502 C489 1.240 . S
O503 La480 2.757 1_565 S
O503 La481 2.482 1_455 S
O503 C489 1.289 . S
O504 La480 2.470 . S
O504 C490 1.258 . S
O505 La481 2.503 1_445 S
O505 C490 1.256 . S
O506 La481 2.521 . S
O506 C491 1.261 . S
O507 La481 2.628 . S
O507 C491 1.243 . S
O508 La481 2.554 1_545 S
O508 C498 1.240 . S
O509 La480 2.482 1_655 S
O509 La481 2.757 1_545 S
O509 C498 1.289 . S
O510 La481 2.470 . S
O510 C499 1.258 . S
O511 La480 2.503 1_665 S
O511 C499 1.256 . S
H512 C484 0.930 . S
H513 C485 0.930 . S
H514 C487 0.929 . S
H515 C488 0.929 . S
H516 C493 0.930 . S
H517 C494 0.930 . S
H518 C496 0.929 . S
H519 C497 0.929 . S
La520 C522 2.913 1_565 S
La520 O540 2.519 1_565 S
La520 O541 2.603 1_565 S
La520 O542 2.576 . S
La520 O543 2.769 . S
La520 O544 2.456 1_565 S
La520 O549 2.462 1_564 S
La520 O551 2.519 1_554 S
La521 C531 2.906 1_545 S
La521 O543 2.451 1_546 S
La521 O545 2.527 1_556 S
La521 O546 2.518 1_545 S
La521 O547 2.591 1_545 S
La521 O548 2.587 . S
La521 O549 2.776 . S
La521 O550 2.449 1_545 S
C522 La520 2.913 1_545 S
C522 C523 1.503 . S
C522 O540 1.261 . S
C522 O541 1.243 . S
C523 C522 1.503 . S
C523 C524 1.394 . S
C523 C528 1.373 . S
C524 C523 1.394 . S
C524 C525 1.380 . S
C524 H552 0.930 . S
C525 C524 1.380 . S
C525 C526 1.376 . S
C525 H553 0.930 . S
C526 C525 1.376 . S
C526 C527 1.370 . S
C527 C526 1.370 . S
C527 C528 1.396 . S
C527 H554 0.929 . S
C528 C523 1.373 . S
C528 C527 1.396 . S
C528 H555 0.929 . S
C529 O542 1.240 . S
C529 O543 1.289 . S
C530 O544 1.258 . S
C530 O545 1.256 . S
C531 La521 2.906 1_565 S
C531 C532 1.503 . S
C531 O546 1.261 . S
C531 O547 1.243 . S
C532 C531 1.503 . S
C532 C533 1.394 . S
C532 C537 1.373 . S
C533 C532 1.394 . S
C533 C534 1.380 . S
C533 H556 0.930 . S
C534 C533 1.380 . S
C534 C535 1.376 . S
C534 H557 0.930 . S
C535 C534 1.376 . S
C535 C536 1.370 . S
C536 C535 1.370 . S
C536 C537 1.396 . S
C536 H558 0.929 . S
C537 C532 1.373 . S
C537 C536 1.396 . S
C537 H559 0.929 . S
C538 O548 1.240 . S
C538 O549 1.289 . S
C539 O550 1.258 . S
C539 O551 1.256 . S
O540 La520 2.519 1_545 S
O540 C522 1.261 . S
O541 La520 2.603 1_545 S
O541 C522 1.243 . S
O542 La520 2.576 . S
O542 C529 1.240 . S
O543 La520 2.769 . S
O543 La521 2.451 1_564 S
O543 C529 1.289 . S
O544 La520 2.456 1_545 S
O544 C530 1.258 . S
O545 La521 2.527 1_554 S
O545 C530 1.256 . S
O546 La521 2.518 1_565 S
O546 C531 1.261 . S
O547 La521 2.591 1_565 S
O547 C531 1.243 . S
O548 La521 2.587 . S
O548 C538 1.240 . S
O549 La520 2.462 1_546 S
O549 La521 2.776 . S
O549 C538 1.289 . S
O550 La521 2.449 1_565 S
O550 C539 1.258 . S
O551 La520 2.519 1_556 S
O551 C539 1.256 . S
H552 C524 0.930 . S
H553 C525 0.930 . S
H554 C527 0.929 . S
H555 C528 0.929 . S
H556 C533 0.930 . S
H557 C534 0.930 . S
H558 C536 0.929 . S
H559 C537 0.929 . S
La560 C562 2.928 . S
La560 O580 2.521 . S
La560 O581 2.628 . S
La560 O582 2.554 . S
La560 O583 2.757 . S
La560 O584 2.470 . S
La560 O589 2.482 . S
La560 O591 2.503 . S
La561 C571 2.928 . S
La561 O583 2.482 . S
La561 O585 2.503 . S
La561 O586 2.521 . S
La561 O587 2.628 . S
La561 O588 2.554 . S
La561 O589 2.757 . S
La561 O590 2.470 . S
C562 La560 2.928 . S
C562 C563 1.503 . S
C562 O580 1.261 . S
C562 O581 1.243 . S
C563 C562 1.503 . S
C563 C564 1.394 . S
C563 C568 1.373 . S
C564 C563 1.394 . S
C564 C565 1.380 . S
C564 H592 0.930 . S
C565 C564 1.380 . S
C565 C566 1.376 . S
C565 H593 0.930 . S
C566 C565 1.376 . S
C566 C567 1.370 . S
C567 C566 1.370 . S
C567 C568 1.396 . S
C567 H594 0.929 . S
C568 C563 1.373 . S
C568 C567 1.396 . S
C568 H595 0.929 . S
C569 O582 1.240 . S
C569 O583 1.289 . S
C570 O584 1.258 . S
C570 O585 1.256 . S
C571 La561 2.928 . S
C571 C572 1.503 . S
C571 O586 1.261 . S
C571 O587 1.243 . S
C572 C571 1.503 . S
C572 C573 1.394 . S
C572 C577 1.373 . S
C573 C572 1.394 . S
C573 C574 1.380 . S
C573 H596 0.930 . S
C574 C573 1.380 . S
C574 C575 1.376 . S
C574 H597 0.930 . S
C575 C574 1.376 . S
C575 C576 1.370 . S
C576 C575 1.370 . S
C576 C577 1.396 . S
C576 H598 0.929 . S
C577 C572 1.373 . S
C577 C576 1.396 . S
C577 H599 0.929 . S
C578 O588 1.240 . S
C578 O589 1.289 . S
C579 O590 1.258 . S
C579 O591 1.256 . S
O580 La560 2.521 . S
O580 C562 1.261 . S
O581 La560 2.628 . S
O581 C562 1.243 . S
O582 La560 2.554 . S
O582 C569 1.240 . S
O583 La560 2.757 . S
O583 La561 2.482 . S
O583 C569 1.289 . S
O584 La560 2.470 . S
O584 C570 1.258 . S
O585 La561 2.503 . S
O585 C570 1.256 . S
O586 La561 2.521 . S
O586 C571 1.261 . S
O587 La561 2.628 . S
O587 C571 1.243 . S
O588 La561 2.554 . S
O588 C578 1.240 . S
O589 La560 2.482 . S
O589 La561 2.757 . S
O589 C578 1.289 . S
O590 La561 2.470 . S
O590 C579 1.258 . S
O591 La560 2.503 . S
O591 C579 1.256 . S
H592 C564 0.930 . S
H593 C565 0.930 . S
H594 C567 0.929 . S
H595 C568 0.929 . S
H596 C573 0.930 . S
H597 C574 0.930 . S
H598 C576 0.929 . S
H599 C577 0.929 . S
La600 C602 2.928 . S
La600 O620 2.521 . S
La600 O621 2.628 . S
La600 O622 2.554 1_455 S
La600 O623 2.757 1_455 S
La600 O624 2.470 . S
La600 O629 2.482 1_554 S
La600 O631 2.503 1_454 S
La601 C611 2.928 . S
La601 O623 2.482 1_556 S
La601 O625 2.503 1_656 S
La601 O626 2.521 . S
La601 O627 2.628 . S
La601 O628 2.554 1_655 S
La601 O629 2.757 1_655 S
La601 O630 2.470 . S
C602 La600 2.928 . S
C602 C603 1.503 . S
C602 O620 1.261 . S
C602 O621 1.243 . S
C603 C602 1.503 . S
C603 C604 1.394 . S
C603 C608 1.373 . S
C604 C603 1.394 . S
C604 C605 1.380 . S
C604 H632 0.930 . S
C605 C604 1.380 . S
C605 C606 1.376 . S
C605 H633 0.930 . S
C606 C605 1.376 . S
C606 C607 1.370 . S
C607 C606 1.370 . S
C607 C608 1.396 . S
C607 H634 0.929 . S
C608 C603 1.373 . S
C608 C607 1.396 . S
C608 H635 0.929 . S
C609 O622 1.240 . S
C609 O623 1.289 . S
C610 O624 1.258 . S
C610 O625 1.256 . S
C611 La601 2.928 . S
C611 C612 1.503 . S
C611 O626 1.261 . S
C611 O627 1.243 . S
C612 C611 1.503 . S
C612 C613 1.394 . S
C612 C617 1.373 . S
C613 C612 1.394 . S
C613 C614 1.380 . S
C613 H636 0.930 . S
C614 C613 1.380 . S
C614 C615 1.376 . S
C614 H637 0.930 . S
C615 C614 1.376 . S
C615 C616 1.370 . S
C616 C615 1.370 . S
C616 C617 1.396 . S
C616 H638 0.929 . S
C617 C612 1.373 . S
C617 C616 1.396 . S
C617 H639 0.929 . S
C618 O628 1.240 . S
C618 O629 1.289 . S
C619 O630 1.258 . S
C619 O631 1.256 . S
O620 La600 2.521 . S
O620 C602 1.261 . S
O621 La600 2.628 . S
O621 C602 1.243 . S
O622 La600 2.554 1_655 S
O622 C609 1.240 . S
O623 La600 2.757 1_655 S
O623 La601 2.482 1_554 S
O623 C609 1.289 . S
O624 La600 2.470 . S
O624 C610 1.258 . S
O625 La601 2.503 1_454 S
O625 C610 1.256 . S
O626 La601 2.521 . S
O626 C611 1.261 . S
O627 La601 2.628 . S
O627 C611 1.243 . S
O628 La601 2.554 1_455 S
O628 C618 1.240 . S
O629 La600 2.482 1_556 S
O629 La601 2.757 1_455 S
O629 C618 1.289 . S
O630 La601 2.470 . S
O630 C619 1.258 . S
O631 La600 2.503 1_656 S
O631 C619 1.256 . S
H632 C604 0.930 . S
H633 C605 0.930 . S
H634 C607 0.929 . S
H635 C608 0.929 . S
H636 C613 0.930 . S
H637 C614 0.930 . S
H638 C616 0.929 . S
H639 C617 0.929 . S
C640 C641 1.349 . S
C640 C642 1.327 . S
C640 H665 0.950 . S
C641 C640 1.349 . S
C641 C657 1.349 . S
C642 C640 1.327 . S
C642 C661 1.429 . S
C642 H666 0.950 . S
C643 C660 1.574 . S
C643 C662 1.368 . S
C643 H667 0.949 . S
H644 C648 0.949 . S
C645 C646 1.349 . S
C645 C647 1.327 . S
C645 H668 0.950 . S
C646 C645 1.349 . S
C646 C658 1.349 . S
C647 C645 1.327 . S
C647 C663 1.429 . S
C647 H669 0.950 . S
C648 H644 0.949 . S
C648 C656 1.574 . S
C648 C664 1.368 . S
H649 C657 0.950 . S
H650 C655 0.950 . S
H651 C656 0.949 . S
H652 C658 0.950 . S
H653 C659 0.950 . S
H654 C660 0.949 . S
C655 H650 0.950 . S
C655 C657 1.327 . S
C655 C661 1.429 . S
C656 C648 1.574 . S
C656 H651 0.949 . S
C656 C662 1.368 . S
C657 C641 1.349 . S
C657 H649 0.950 . S
C657 C655 1.327 . S
C658 C646 1.349 . S
C658 H652 0.950 . S
C658 C659 1.327 . S
C659 H653 0.950 . S
C659 C658 1.327 . S
C659 C663 1.429 . S
C660 C643 1.574 . S
C660 H654 0.949 . S
C660 C664 1.368 . S
C661 C642 1.429 . S
C661 C655 1.429 . S
C661 C662 1.523 . S
C662 C643 1.368 . S
C662 C656 1.368 . S
C662 C661 1.523 . S
C663 C647 1.429 . S
C663 C659 1.429 . S
C663 C664 1.523 . S
C664 C648 1.368 . S
C664 C660 1.368 . S
C664 C663 1.523 . S
H665 C640 0.950 . S
H666 C642 0.950 . S
H667 C643 0.949 . S
H668 C645 0.950 . S
H669 C647 0.950 . S
C670 C671 1.349 . S
C670 C672 1.327 . S
C670 H695 0.950 . S
C671 C670 1.349 . S
C671 C687 1.349 . S
C672 C670 1.327 . S
C672 C691 1.429 . S
C672 H696 0.950 . S
C673 C690 1.574 . S
C673 C692 1.368 . S
C673 H697 0.949 . S
H674 C678 0.949 . S
C675 C676 1.349 . S
C675 C677 1.327 . S
C675 H698 0.950 . S
C676 C675 1.349 . S
C676 C688 1.349 . S
C677 C675 1.327 . S
C677 C693 1.429 . S
C677 H699 0.950 . S
C678 H674 0.949 . S
C678 C686 1.574 . S
C678 C694 1.368 . S
H679 C687 0.950 . S
H680 C685 0.950 . S
H681 C686 0.949 . S
H682 C688 0.950 . S
H683 C689 0.950 . S
H684 C690 0.949 . S
C685 H680 0.950 . S
C685 C687 1.327 . S
C685 C691 1.429 . S
C686 C678 1.574 . S
C686 H681 0.949 . S
C686 C692 1.368 . S
C687 C671 1.349 . S
C687 H679 0.950 . S
C687 C685 1.327 . S
C688 C676 1.349 . S
C688 H682 0.950 . S
C688 C689 1.327 . S
C689 H683 0.950 . S
C689 C688 1.327 . S
C689 C693 1.429 . S
C690 C673 1.574 . S
C690 H684 0.949 . S
C690 C694 1.368 . S
C691 C672 1.429 . S
C691 C685 1.429 . S
C691 C692 1.523 . S
C692 C673 1.368 . S
C692 C686 1.368 . S
C692 C691 1.523 . S
C693 C677 1.429 . S
C693 C689 1.429 . S
C693 C694 1.523 . S
C694 C678 1.368 . S
C694 C690 1.368 . S
C694 C693 1.523 . S
H695 C670 0.950 . S
H696 C672 0.950 . S
H697 C673 0.949 . S
H698 C675 0.950 . S
H699 C677 0.950 . S
C700 C701 1.349 . S
C700 C702 1.327 . S
C700 H725 0.950 . S
C701 C700 1.349 . S
C701 C717 1.349 . S
C702 C700 1.327 . S
C702 C721 1.429 . S
C702 H726 0.950 . S
C703 C720 1.574 . S
C703 C722 1.368 . S
C703 H727 0.949 . S
H704 C708 0.949 . S
C705 C706 1.349 . S
C705 C707 1.327 . S
C705 H728 0.950 . S
C706 C705 1.349 . S
C706 C718 1.349 . S
C707 C705 1.327 . S
C707 C723 1.429 . S
C707 H729 0.950 . S
C708 H704 0.949 . S
C708 C716 1.574 . S
C708 C724 1.368 . S
H709 C717 0.950 . S
H710 C715 0.950 . S
H711 C716 0.949 . S
H712 C718 0.950 . S
H713 C719 0.950 . S
H714 C720 0.949 . S
C715 H710 0.950 . S
C715 C717 1.327 . S
C715 C721 1.429 . S
C716 C708 1.574 . S
C716 H711 0.949 . S
C716 C722 1.368 . S
C717 C701 1.349 . S
C717 H709 0.950 . S
C717 C715 1.327 . S
C718 C706 1.349 . S
C718 H712 0.950 . S
C718 C719 1.327 . S
C719 H713 0.950 . S
C719 C718 1.327 . S
C719 C723 1.429 . S
C720 C703 1.574 . S
C720 H714 0.949 . S
C720 C724 1.368 . S
C721 C702 1.429 . S
C721 C715 1.429 . S
C721 C722 1.523 . S
C722 C703 1.368 . S
C722 C716 1.368 . S
C722 C721 1.523 . S
C723 C707 1.429 . S
C723 C719 1.429 . S
C723 C724 1.523 . S
C724 C708 1.368 . S
C724 C720 1.368 . S
C724 C723 1.523 . S
H725 C700 0.950 . S
H726 C702 0.950 . S
H727 C703 0.949 . S
H728 C705 0.950 . S
H729 C707 0.950 . S
C730 C731 1.349 . S
C730 C732 1.327 . S
C730 H755 0.950 . S
C731 C730 1.349 . S
C731 C747 1.349 . S
C732 C730 1.327 . S
C732 C751 1.429 . S
C732 H756 0.950 . S
C733 C750 1.574 . S
C733 C752 1.368 . S
C733 H757 0.949 . S
H734 C738 0.949 . S
C735 C736 1.349 . S
C735 C737 1.327 . S
C735 H758 0.950 . S
C736 C735 1.349 . S
C736 C748 1.349 . S
C737 C735 1.327 . S
C737 C753 1.429 . S
C737 H759 0.950 . S
C738 H734 0.949 . S
C738 C746 1.574 . S
C738 C754 1.368 . S
H739 C747 0.950 . S
H740 C745 0.950 . S
H741 C746 0.949 . S
H742 C748 0.950 . S
H743 C749 0.950 . S
H744 C750 0.949 . S
C745 H740 0.950 . S
C745 C747 1.327 . S
C745 C751 1.429 . S
C746 C738 1.574 . S
C746 H741 0.949 . S
C746 C752 1.368 . S
C747 C731 1.349 . S
C747 H739 0.950 . S
C747 C745 1.327 . S
C748 C736 1.349 . S
C748 H742 0.950 . S
C748 C749 1.327 . S
C749 H743 0.950 . S
C749 C748 1.327 . S
C749 C753 1.429 . S
C750 C733 1.574 . S
C750 H744 0.949 . S
C750 C754 1.368 . S
C751 C732 1.429 . S
C751 C745 1.429 . S
C751 C752 1.523 . S
C752 C733 1.368 . S
C752 C746 1.368 . S
C752 C751 1.523 . S
C753 C737 1.429 . S
C753 C749 1.429 . S
C753 C754 1.523 . S
C754 C738 1.368 . S
C754 C750 1.368 . S
C754 C753 1.523 . S
H755 C730 0.950 . S
H756 C732 0.950 . S
H757 C733 0.949 . S
H758 C735 0.950 . S
H759 C737 0.950 . S
C760 C761 1.349 . S
C760 C762 1.327 . S
C760 H785 0.950 . S
C761 C760 1.349 . S
C761 C777 1.349 . S
C762 C760 1.327 . S
C762 C781 1.429 . S
C762 H786 0.950 . S
C763 C780 1.574 . S
C763 C782 1.368 . S
C763 H787 0.949 . S
H764 C768 0.949 . S
C765 C766 1.349 . S
C765 C767 1.327 . S
C765 H788 0.950 . S
C766 C765 1.349 . S
C766 C778 1.349 . S
C767 C765 1.327 . S
C767 C783 1.429 . S
C767 H789 0.950 . S
C768 H764 0.949 . S
C768 C776 1.574 . S
C768 C784 1.368 . S
H769 C777 0.950 . S
H770 C775 0.950 . S
H771 C776 0.949 . S
H772 C778 0.950 . S
H773 C779 0.950 . S
H774 C780 0.949 . S
C775 H770 0.950 . S
C775 C777 1.327 . S
C775 C781 1.429 . S
C776 C768 1.574 . S
C776 H771 0.949 . S
C776 C782 1.368 . S
C777 C761 1.349 . S
C777 H769 0.950 . S
C777 C775 1.327 . S
C778 C766 1.349 . S
C778 H772 0.950 . S
C778 C779 1.327 . S
C779 H773 0.950 . S
C779 C778 1.327 . S
C779 C783 1.429 . S
C780 C763 1.574 . S
C780 H774 0.949 . S
C780 C784 1.368 . S
C781 C762 1.429 . S
C781 C775 1.429 . S
C781 C782 1.523 . S
C782 C763 1.368 . S
C782 C776 1.368 . S
C782 C781 1.523 . S
C783 C767 1.429 . S
C783 C779 1.429 . S
C783 C784 1.523 . S
C784 C768 1.368 . S
C784 C780 1.368 . S
C784 C783 1.523 . S
H785 C760 0.950 . S
H786 C762 0.950 . S
H787 C763 0.949 . S
H788 C765 0.950 . S
H789 C767 0.950 . S
C790 C791 1.349 . S
C790 C792 1.327 . S
C790 H815 0.950 . S
C791 C790 1.349 . S
C791 C807 1.349 . S
C792 C790 1.327 . S
C792 C811 1.429 . S
C792 H816 0.950 . S
C793 C810 1.574 . S
C793 C812 1.368 . S
C793 H817 0.949 . S
H794 C798 0.949 . S
C795 C796 1.349 . S
C795 C797 1.327 . S
C795 H818 0.950 . S
C796 C795 1.349 . S
C796 C808 1.349 . S
C797 C795 1.327 . S
C797 C813 1.429 . S
C797 H819 0.950 . S
C798 H794 0.949 . S
C798 C806 1.574 . S
C798 C814 1.368 . S
H799 C807 0.950 . S
H800 C805 0.950 . S
H801 C806 0.949 . S
H802 C808 0.950 . S
H803 C809 0.950 . S
H804 C810 0.949 . S
C805 H800 0.950 . S
C805 C807 1.327 . S
C805 C811 1.429 . S
C806 C798 1.574 . S
C806 H801 0.949 . S
C806 C812 1.368 . S
C807 C791 1.349 . S
C807 H799 0.950 . S
C807 C805 1.327 . S
C808 C796 1.349 . S
C808 H802 0.950 . S
C808 C809 1.327 . S
C809 H803 0.950 . S
C809 C808 1.327 . S
C809 C813 1.429 . S
C810 C793 1.574 . S
C810 H804 0.949 . S
C810 C814 1.368 . S
C811 C792 1.429 . S
C811 C805 1.429 . S
C811 C812 1.523 . S
C812 C793 1.368 . S
C812 C806 1.368 . S
C812 C811 1.523 . S
C813 C797 1.429 . S
C813 C809 1.429 . S
C813 C814 1.523 . S
C814 C798 1.368 . S
C814 C810 1.368 . S
C814 C813 1.523 . S
H815 C790 0.950 . S
H816 C792 0.950 . S
H817 C793 0.949 . S
H818 C795 0.950 . S
H819 C797 0.950 . S
C820 C821 1.349 . S
C820 C822 1.327 . S
C820 H845 0.950 . S
C821 C820 1.349 . S
C821 C837 1.349 . S
C822 C820 1.327 . S
C822 C841 1.429 . S
C822 H846 0.950 . S
C823 C840 1.574 . S
C823 C842 1.368 . S
C823 H847 0.949 . S
H824 C828 0.949 . S
C825 C826 1.349 . S
C825 C827 1.327 . S
C825 H848 0.950 . S
C826 C825 1.349 . S
C826 C838 1.349 . S
C827 C825 1.327 . S
C827 C843 1.429 . S
C827 H849 0.950 . S
C828 H824 0.949 . S
C828 C836 1.574 . S
C828 C844 1.368 . S
H829 C837 0.950 . S
H830 C835 0.950 . S
H831 C836 0.949 . S
H832 C838 0.950 . S
H833 C839 0.950 . S
H834 C840 0.949 . S
C835 H830 0.950 . S
C835 C837 1.327 . S
C835 C841 1.429 . S
C836 C828 1.574 . S
C836 H831 0.949 . S
C836 C842 1.368 . S
C837 C821 1.349 . S
C837 H829 0.950 . S
C837 C835 1.327 . S
C838 C826 1.349 . S
C838 H832 0.950 . S
C838 C839 1.327 . S
C839 H833 0.950 . S
C839 C838 1.327 . S
C839 C843 1.429 . S
C840 C823 1.574 . S
C840 H834 0.949 . S
C840 C844 1.368 . S
C841 C822 1.429 . S
C841 C835 1.429 . S
C841 C842 1.523 . S
C842 C823 1.368 . S
C842 C836 1.368 . S
C842 C841 1.523 . S
C843 C827 1.429 . S
C843 C839 1.429 . S
C843 C844 1.523 . S
C844 C828 1.368 . S
C844 C840 1.368 . S
C844 C843 1.523 . S
H845 C820 0.950 . S
H846 C822 0.950 . S
H847 C823 0.949 . S
H848 C825 0.950 . S
H849 C827 0.950 . S
C850 C851 1.349 . S
C850 C852 1.327 . S
C850 H875 0.950 . S
C851 C850 1.349 . S
C851 C867 1.349 . S
C852 C850 1.327 . S
C852 C871 1.429 . S
C852 H876 0.950 . S
C853 C870 1.574 . S
C853 C872 1.368 . S
C853 H877 0.949 . S
H854 C858 0.949 . S
C855 C856 1.349 . S
C855 C857 1.327 . S
C855 H878 0.950 . S
C856 C855 1.349 . S
C856 C868 1.349 . S
C857 C855 1.327 . S
C857 C873 1.429 . S
C857 H879 0.950 . S
C858 H854 0.949 . S
C858 C866 1.574 . S
C858 C874 1.368 . S
H859 C867 0.950 . S
H860 C865 0.950 . S
H861 C866 0.949 . S
H862 C868 0.950 . S
H863 C869 0.950 . S
H864 C870 0.949 . S
C865 H860 0.950 . S
C865 C867 1.327 . S
C865 C871 1.429 . S
C866 C858 1.574 . S
C866 H861 0.949 . S
C866 C872 1.368 . S
C867 C851 1.349 . S
C867 H859 0.950 . S
C867 C865 1.327 . S
C868 C856 1.349 . S
C868 H862 0.950 . S
C868 C869 1.327 . S
C869 H863 0.950 . S
C869 C868 1.327 . S
C869 C873 1.429 . S
C870 C853 1.574 . S
C870 H864 0.949 . S
C870 C874 1.368 . S
C871 C852 1.429 . S
C871 C865 1.429 . S
C871 C872 1.523 . S
C872 C853 1.368 . S
C872 C866 1.368 . S
C872 C871 1.523 . S
C873 C857 1.429 . S
C873 C869 1.429 . S
C873 C874 1.523 . S
C874 C858 1.368 . S
C874 C870 1.368 . S
C874 C873 1.523 . S
H875 C850 0.950 . S
H876 C852 0.950 . S
H877 C853 0.949 . S
H878 C855 0.950 . S
H879 C857 0.950 . S
C880 C881 1.349 . S
C880 C882 1.327 . S
C880 H905 0.950 . S
C881 C880 1.349 . S
C881 C897 1.349 . S
C882 C880 1.327 . S
C882 C901 1.429 . S
C882 H906 0.950 . S
C883 C900 1.574 . S
C883 C902 1.368 . S
C883 H907 0.949 . S
H884 C888 0.949 . S
C885 C886 1.349 . S
C885 C887 1.327 . S
C885 H908 0.950 . S
C886 C885 1.349 . S
C886 C898 1.349 . S
C887 C885 1.327 . S
C887 C903 1.429 . S
C887 H909 0.950 . S
C888 H884 0.949 . S
C888 C896 1.574 . S
C888 C904 1.368 . S
H889 C897 0.950 . S
H890 C895 0.950 . S
H891 C896 0.949 . S
H892 C898 0.950 . S
H893 C899 0.950 . S
H894 C900 0.949 . S
C895 H890 0.950 . S
C895 C897 1.327 . S
C895 C901 1.429 . S
C896 C888 1.574 . S
C896 H891 0.949 . S
C896 C902 1.368 . S
C897 C881 1.349 . S
C897 H889 0.950 . S
C897 C895 1.327 . S
C898 C886 1.349 . S
C898 H892 0.950 . S
C898 C899 1.327 . S
C899 H893 0.950 . S
C899 C898 1.327 . S
C899 C903 1.429 . S
C900 C883 1.574 . S
C900 H894 0.949 . S
C900 C904 1.368 . S
C901 C882 1.429 . S
C901 C895 1.429 . S
C901 C902 1.523 . S
C902 C883 1.368 . S
C902 C896 1.368 . S
C902 C901 1.523 . S
C903 C887 1.429 . S
C903 C899 1.429 . S
C903 C904 1.523 . S
C904 C888 1.368 . S
C904 C900 1.368 . S
C904 C903 1.523 . S
H905 C880 0.950 . S
H906 C882 0.950 . S
H907 C883 0.949 . S
H908 C885 0.950 . S
H909 C887 0.950 . S
C910 C911 1.349 . S
C910 C912 1.327 . S
C910 H935 0.950 . S
C911 C910 1.349 . S
C911 C927 1.349 . S
C912 C910 1.327 . S
C912 C931 1.429 . S
C912 H936 0.950 . S
C913 C930 1.574 . S
C913 C932 1.368 . S
C913 H937 0.949 . S
H914 C918 0.949 . S
C915 C916 1.349 . S
C915 C917 1.327 . S
C915 H938 0.950 . S
C916 C915 1.349 . S
C916 C928 1.349 . S
C917 C915 1.327 . S
C917 C933 1.429 . S
C917 H939 0.950 . S
C918 H914 0.949 . S
C918 C926 1.574 . S
C918 C934 1.368 . S
H919 C927 0.950 . S
H920 C925 0.950 . S
H921 C926 0.949 . S
H922 C928 0.950 . S
H923 C929 0.950 . S
H924 C930 0.949 . S
C925 H920 0.950 . S
C925 C927 1.327 . S
C925 C931 1.429 . S
C926 C918 1.574 . S
C926 H921 0.949 . S
C926 C932 1.368 . S
C927 C911 1.349 . S
C927 H919 0.950 . S
C927 C925 1.327 . S
C928 C916 1.349 . S
C928 H922 0.950 . S
C928 C929 1.327 . S
C929 H923 0.950 . S
C929 C928 1.327 . S
C929 C933 1.429 . S
C930 C913 1.574 . S
C930 H924 0.949 . S
C930 C934 1.368 . S
C931 C912 1.429 . S
C931 C925 1.429 . S
C931 C932 1.523 . S
C932 C913 1.368 . S
C932 C926 1.368 . S
C932 C931 1.523 . S
C933 C917 1.429 . S
C933 C929 1.429 . S
C933 C934 1.523 . S
C934 C918 1.368 . S
C934 C930 1.368 . S
C934 C933 1.523 . S
H935 C910 0.950 . S
H936 C912 0.950 . S
H937 C913 0.949 . S
H938 C915 0.950 . S
H939 C917 0.950 . S
C940 C941 1.349 . S
C940 C942 1.327 . S
C940 H965 0.950 . S
C941 C940 1.349 . S
C941 C957 1.349 . S
C942 C940 1.327 . S
C942 C961 1.429 . S
C942 H966 0.950 . S
C943 C960 1.574 . S
C943 C962 1.368 . S
C943 H967 0.949 . S
H944 C948 0.949 . S
C945 C946 1.349 . S
C945 C947 1.327 . S
C945 H968 0.950 . S
C946 C945 1.349 . S
C946 C958 1.349 . S
C947 C945 1.327 . S
C947 C963 1.429 . S
C947 H969 0.950 . S
C948 H944 0.949 . S
C948 C956 1.574 . S
C948 C964 1.368 . S
H949 C957 0.950 . S
H950 C955 0.950 . S
H951 C956 0.949 . S
H952 C958 0.950 . S
H953 C959 0.950 . S
H954 C960 0.949 . S
C955 H950 0.950 . S
C955 C957 1.327 . S
C955 C961 1.429 . S
C956 C948 1.574 . S
C956 H951 0.949 . S
C956 C962 1.368 . S
C957 C941 1.349 . S
C957 H949 0.950 . S
C957 C955 1.327 . S
C958 C946 1.349 . S
C958 H952 0.950 . S
C958 C959 1.327 . S
C959 H953 0.950 . S
C959 C958 1.327 . S
C959 C963 1.429 . S
C960 C943 1.574 . S
C960 H954 0.949 . S
C960 C964 1.368 . S
C961 C942 1.429 . S
C961 C955 1.429 . S
C961 C962 1.523 . S
C962 C943 1.368 . S
C962 C956 1.368 . S
C962 C961 1.523 . S
C963 C947 1.429 . S
C963 C959 1.429 . S
C963 C964 1.523 . S
C964 C948 1.368 . S
C964 C960 1.368 . S
C964 C963 1.523 . S
H965 C940 0.950 . S
H966 C942 0.950 . S
H967 C943 0.949 . S
H968 C945 0.950 . S
H969 C947 0.950 . S
C970 C971 1.349 . S
C970 C972 1.327 . S
C970 H995 0.950 . S
C971 C970 1.349 . S
C971 C987 1.349 . S
C972 C970 1.327 . S
C972 C991 1.429 . S
C972 H996 0.950 . S
C973 C990 1.574 . S
C973 C992 1.368 . S
C973 H997 0.949 . S
H974 C978 0.949 . S
C975 C976 1.349 . S
C975 C977 1.327 . S
C975 H998 0.950 . S
C976 C975 1.349 . S
C976 C988 1.349 . S
C977 C975 1.327 . S
C977 C993 1.429 . S
C977 H999 0.950 . S
C978 H974 0.949 . S
C978 C986 1.574 . S
C978 C994 1.368 . S
H979 C987 0.950 . S
H980 C985 0.950 . S
H981 C986 0.949 . S
H982 C988 0.950 . S
H983 C989 0.950 . S
H984 C990 0.949 . S
C985 H980 0.950 . S
C985 C987 1.327 . S
C985 C991 1.429 . S
C986 C978 1.574 . S
C986 H981 0.949 . S
C986 C992 1.368 . S
C987 C971 1.349 . S
C987 H979 0.950 . S
C987 C985 1.327 . S
C988 C976 1.349 . S
C988 H982 0.950 . S
C988 C989 1.327 . S
C989 H983 0.950 . S
C989 C988 1.327 . S
C989 C993 1.429 . S
C990 C973 1.574 . S
C990 H984 0.949 . S
C990 C994 1.368 . S
C991 C972 1.429 . S
C991 C985 1.429 . S
C991 C992 1.523 . S
C992 C973 1.368 . S
C992 C986 1.368 . S
C992 C991 1.523 . S
C993 C977 1.429 . S
C993 C989 1.429 . S
C993 C994 1.523 . S
C994 C978 1.368 . S
C994 C990 1.368 . S
C994 C993 1.523 . S
H995 C970 0.950 . S
H996 C972 0.950 . S
H997 C973 0.949 . S
H998 C975 0.950 . S
H999 C977 0.950 . S
C1000 C1001 1.349 . S
C1000 C1002 1.327 . S
C1000 H1025 0.950 . S
C1001 C1000 1.349 . S
C1001 C1017 1.349 . S
C1002 C1000 1.327 . S
C1002 C1021 1.429 . S
C1002 H1026 0.950 . S
C1003 C1020 1.574 . S
C1003 C1022 1.368 . S
C1003 H1027 0.949 . S
H1004 C1008 0.949 . S
C1005 C1006 1.349 . S
C1005 C1007 1.327 . S
C1005 H1028 0.950 . S
C1006 C1005 1.349 . S
C1006 C1018 1.349 . S
C1007 C1005 1.327 . S
C1007 C1023 1.429 . S
C1007 H1029 0.950 . S
C1008 H1004 0.949 . S
C1008 C1016 1.574 . S
C1008 C1024 1.368 . S
H1009 C1017 0.950 . S
H1010 C1015 0.950 . S
H1011 C1016 0.949 . S
H1012 C1018 0.950 . S
H1013 C1019 0.950 . S
H1014 C1020 0.949 . S
C1015 H1010 0.950 . S
C1015 C1017 1.327 . S
C1015 C1021 1.429 . S
C1016 C1008 1.574 . S
C1016 H1011 0.949 . S
C1016 C1022 1.368 . S
C1017 C1001 1.349 . S
C1017 H1009 0.950 . S
C1017 C1015 1.327 . S
C1018 C1006 1.349 . S
C1018 H1012 0.950 . S
C1018 C1019 1.327 . S
C1019 H1013 0.950 . S
C1019 C1018 1.327 . S
C1019 C1023 1.429 . S
C1020 C1003 1.574 . S
C1020 H1014 0.949 . S
C1020 C1024 1.368 . S
C1021 C1002 1.429 . S
C1021 C1015 1.429 . S
C1021 C1022 1.523 . S
C1022 C1003 1.368 . S
C1022 C1016 1.368 . S
C1022 C1021 1.523 . S
C1023 C1007 1.429 . S
C1023 C1019 1.429 . S
C1023 C1024 1.523 . S
C1024 C1008 1.368 . S
C1024 C1020 1.368 . S
C1024 C1023 1.523 . S
H1025 C1000 0.950 . S
H1026 C1002 0.950 . S
H1027 C1003 0.949 . S
H1028 C1005 0.950 . S
H1029 C1007 0.950 . S
C1030 C1031 1.349 . S
C1030 C1032 1.327 . S
C1030 H1055 0.950 . S
C1031 C1030 1.349 . S
C1031 C1047 1.349 . S
C1032 C1030 1.327 . S
C1032 C1051 1.429 . S
C1032 H1056 0.950 . S
C1033 C1050 1.574 . S
C1033 C1052 1.368 . S
C1033 H1057 0.949 . S
H1034 C1038 0.949 . S
C1035 C1036 1.349 . S
C1035 C1037 1.327 . S
C1035 H1058 0.950 . S
C1036 C1035 1.349 . S
C1036 C1048 1.349 . S
C1037 C1035 1.327 . S
C1037 C1053 1.429 . S
C1037 H1059 0.950 . S
C1038 H1034 0.949 . S
C1038 C1046 1.574 . S
C1038 C1054 1.368 . S
H1039 C1047 0.950 . S
H1040 C1045 0.950 . S
H1041 C1046 0.949 . S
H1042 C1048 0.950 . S
H1043 C1049 0.950 . S
H1044 C1050 0.949 . S
C1045 H1040 0.950 . S
C1045 C1047 1.327 . S
C1045 C1051 1.429 . S
C1046 C1038 1.574 . S
C1046 H1041 0.949 . S
C1046 C1052 1.368 . S
C1047 C1031 1.349 . S
C1047 H1039 0.950 . S
C1047 C1045 1.327 . S
C1048 C1036 1.349 . S
C1048 H1042 0.950 . S
C1048 C1049 1.327 . S
C1049 H1043 0.950 . S
C1049 C1048 1.327 . S
C1049 C1053 1.429 . S
C1050 C1033 1.574 . S
C1050 H1044 0.949 . S
C1050 C1054 1.368 . S
C1051 C1032 1.429 . S
C1051 C1045 1.429 . S
C1051 C1052 1.523 . S
C1052 C1033 1.368 . S
C1052 C1046 1.368 . S
C1052 C1051 1.523 . S
C1053 C1037 1.429 . S
C1053 C1049 1.429 . S
C1053 C1054 1.523 . S
C1054 C1038 1.368 . S
C1054 C1050 1.368 . S
C1054 C1053 1.523 . S
H1055 C1030 0.950 . S
H1056 C1032 0.950 . S
H1057 C1033 0.949 . S
H1058 C1035 0.950 . S
H1059 C1037 0.950 . S
C1060 C1061 1.349 . S
C1060 C1062 1.327 . S
C1060 H1085 0.950 . S
C1061 C1060 1.349 . S
C1061 C1077 1.349 . S
C1062 C1060 1.327 . S
C1062 C1081 1.429 . S
C1062 H1086 0.950 . S
C1063 C1080 1.574 . S
C1063 C1082 1.368 . S
C1063 H1087 0.949 . S
H1064 C1068 0.949 . S
C1065 C1066 1.349 . S
C1065 C1067 1.327 . S
C1065 H1088 0.950 . S
C1066 C1065 1.349 . S
C1066 C1078 1.349 . S
C1067 C1065 1.327 . S
C1067 C1083 1.429 . S
C1067 H1089 0.950 . S
C1068 H1064 0.949 . S
C1068 C1076 1.574 . S
C1068 C1084 1.368 . S
H1069 C1077 0.950 . S
H1070 C1075 0.950 . S
H1071 C1076 0.949 . S
H1072 C1078 0.950 . S
H1073 C1079 0.950 . S
H1074 C1080 0.949 . S
C1075 H1070 0.950 . S
C1075 C1077 1.327 . S
C1075 C1081 1.429 . S
C1076 C1068 1.574 . S
C1076 H1071 0.949 . S
C1076 C1082 1.368 . S
C1077 C1061 1.349 . S
C1077 H1069 0.950 . S
C1077 C1075 1.327 . S
C1078 C1066 1.349 . S
C1078 H1072 0.950 . S
C1078 C1079 1.327 . S
C1079 H1073 0.950 . S
C1079 C1078 1.327 . S
C1079 C1083 1.429 . S
C1080 C1063 1.574 . S
C1080 H1074 0.949 . S
C1080 C1084 1.368 . S
C1081 C1062 1.429 . S
C1081 C1075 1.429 . S
C1081 C1082 1.523 . S
C1082 C1063 1.368 . S
C1082 C1076 1.368 . S
C1082 C1081 1.523 . S
C1083 C1067 1.429 . S
C1083 C1079 1.429 . S
C1083 C1084 1.523 . S
C1084 C1068 1.368 . S
C1084 C1080 1.368 . S
C1084 C1083 1.523 . S
H1085 C1060 0.950 . S
H1086 C1062 0.950 . S
H1087 C1063 0.949 . S
H1088 C1065 0.950 . S
H1089 C1067 0.950 . S
C1090 C1091 1.349 . S
C1090 C1092 1.327 . S
C1090 H1115 0.950 . S
C1091 C1090 1.349 . S
C1091 C1107 1.349 . S
C1092 C1090 1.327 . S
C1092 C1111 1.429 . S
C1092 H1116 0.950 . S
C1093 C1110 1.574 . S
C1093 C1112 1.368 . S
C1093 H1117 0.949 . S
H1094 C1098 0.949 . S
C1095 C1096 1.349 . S
C1095 C1097 1.327 . S
C1095 H1118 0.950 . S
C1096 C1095 1.349 . S
C1096 C1108 1.349 . S
C1097 C1095 1.327 . S
C1097 C1113 1.429 . S
C1097 H1119 0.950 . S
C1098 H1094 0.949 . S
C1098 C1106 1.574 . S
C1098 C1114 1.368 . S
H1099 C1107 0.950 . S
H1100 C1105 0.950 . S
H1101 C1106 0.949 . S
H1102 C1108 0.950 . S
H1103 C1109 0.950 . S
H1104 C1110 0.949 . S
C1105 H1100 0.950 . S
C1105 C1107 1.327 . S
C1105 C1111 1.429 . S
C1106 C1098 1.574 . S
C1106 H1101 0.949 . S
C1106 C1112 1.368 . S
C1107 C1091 1.349 . S
C1107 H1099 0.950 . S
C1107 C1105 1.327 . S
C1108 C1096 1.349 . S
C1108 H1102 0.950 . S
C1108 C1109 1.327 . S
C1109 H1103 0.950 . S
C1109 C1108 1.327 . S
C1109 C1113 1.429 . S
C1110 C1093 1.574 . S
C1110 H1104 0.949 . S
C1110 C1114 1.368 . S
C1111 C1092 1.429 . S
C1111 C1105 1.429 . S
C1111 C1112 1.523 . S
C1112 C1093 1.368 . S
C1112 C1106 1.368 . S
C1112 C1111 1.523 . S
C1113 C1097 1.429 . S
C1113 C1109 1.429 . S
C1113 C1114 1.523 . S
C1114 C1098 1.368 . S
C1114 C1110 1.368 . S
C1114 C1113 1.523 . S
H1115 C1090 0.950 . S
H1116 C1092 0.950 . S
H1117 C1093 0.949 . S
H1118 C1095 0.950 . S
H1119 C1097 0.950 . S
C1120 C1121 1.349 . S
C1120 C1122 1.327 . S
C1120 H1145 0.950 . S
C1121 C1120 1.349 . S
C1121 C1137 1.349 . S
C1122 C1120 1.327 . S
C1122 C1141 1.429 . S
C1122 H1146 0.950 . S
C1123 C1140 1.574 . S
C1123 C1142 1.368 . S
C1123 H1147 0.949 . S
H1124 C1128 0.949 . S
C1125 C1126 1.349 . S
C1125 C1127 1.327 . S
C1125 H1148 0.950 . S
C1126 C1125 1.349 . S
C1126 C1138 1.349 . S
C1127 C1125 1.327 . S
C1127 C1143 1.429 . S
C1127 H1149 0.950 . S
C1128 H1124 0.949 . S
C1128 C1136 1.574 . S
C1128 C1144 1.368 . S
H1129 C1137 0.950 . S
H1130 C1135 0.950 . S
H1131 C1136 0.949 . S
H1132 C1138 0.950 . S
H1133 C1139 0.950 . S
H1134 C1140 0.949 . S
C1135 H1130 0.950 . S
C1135 C1137 1.327 . S
C1135 C1141 1.429 . S
C1136 C1128 1.574 . S
C1136 H1131 0.949 . S
C1136 C1142 1.368 . S
C1137 C1121 1.349 . S
C1137 H1129 0.950 . S
C1137 C1135 1.327 . S
C1138 C1126 1.349 . S
C1138 H1132 0.950 . S
C1138 C1139 1.327 . S
C1139 H1133 0.950 . S
C1139 C1138 1.327 . S
C1139 C1143 1.429 . S
C1140 C1123 1.574 . S
C1140 H1134 0.949 . S
C1140 C1144 1.368 . S
C1141 C1122 1.429 . S
C1141 C1135 1.429 . S
C1141 C1142 1.523 . S
C1142 C1123 1.368 . S
C1142 C1136 1.368 . S
C1142 C1141 1.523 . S
C1143 C1127 1.429 . S
C1143 C1139 1.429 . S
C1143 C1144 1.523 . S
C1144 C1128 1.368 . S
C1144 C1140 1.368 . S
C1144 C1143 1.523 . S
H1145 C1120 0.950 . S
H1146 C1122 0.950 . S
H1147 C1123 0.949 . S
H1148 C1125 0.950 . S
H1149 C1127 0.950 . S
C1150 C1151 1.349 . S
C1150 C1152 1.327 . S
C1150 H1175 0.950 . S
C1151 C1150 1.349 . S
C1151 C1167 1.349 . S
C1152 C1150 1.327 . S
C1152 C1171 1.429 . S
C1152 H1176 0.950 . S
C1153 C1170 1.574 . S
C1153 C1172 1.368 . S
C1153 H1177 0.949 . S
H1154 C1158 0.949 . S
C1155 C1156 1.349 . S
C1155 C1157 1.327 . S
C1155 H1178 0.950 . S
C1156 C1155 1.349 . S
C1156 C1168 1.349 . S
C1157 C1155 1.327 . S
C1157 C1173 1.429 . S
C1157 H1179 0.950 . S
C1158 H1154 0.949 . S
C1158 C1166 1.574 . S
C1158 C1174 1.368 . S
H1159 C1167 0.950 . S
H1160 C1165 0.950 . S
H1161 C1166 0.949 . S
H1162 C1168 0.950 . S
H1163 C1169 0.950 . S
H1164 C1170 0.949 . S
C1165 H1160 0.950 . S
C1165 C1167 1.327 . S
C1165 C1171 1.429 . S
C1166 C1158 1.574 . S
C1166 H1161 0.949 . S
C1166 C1172 1.368 . S
C1167 C1151 1.349 . S
C1167 H1159 0.950 . S
C1167 C1165 1.327 . S
C1168 C1156 1.349 . S
C1168 H1162 0.950 . S
C1168 C1169 1.327 . S
C1169 H1163 0.950 . S
C1169 C1168 1.327 . S
C1169 C1173 1.429 . S
C1170 C1153 1.574 . S
C1170 H1164 0.949 . S
C1170 C1174 1.368 . S
C1171 C1152 1.429 . S
C1171 C1165 1.429 . S
C1171 C1172 1.523 . S
C1172 C1153 1.368 . S
C1172 C1166 1.368 . S
C1172 C1171 1.523 . S
C1173 C1157 1.429 . S
C1173 C1169 1.429 . S
C1173 C1174 1.523 . S
C1174 C1158 1.368 . S
C1174 C1170 1.368 . S
C1174 C1173 1.523 . S
H1175 C1150 0.950 . S
H1176 C1152 0.950 . S
H1177 C1153 0.949 . S
H1178 C1155 0.950 . S
H1179 C1157 0.950 . S
C1180 C1181 1.349 . S
C1180 C1182 1.327 . S
C1180 H1205 0.950 . S
C1181 C1180 1.349 . S
C1181 C1197 1.349 . S
C1182 C1180 1.327 . S
C1182 C1201 1.429 . S
C1182 H1206 0.950 . S
C1183 C1200 1.574 . S
C1183 C1202 1.368 . S
C1183 H1207 0.949 . S
H1184 C1188 0.949 . S
C1185 C1186 1.349 . S
C1185 C1187 1.327 . S
C1185 H1208 0.950 . S
C1186 C1185 1.349 . S
C1186 C1198 1.349 . S
C1187 C1185 1.327 . S
C1187 C1203 1.429 . S
C1187 H1209 0.950 . S
C1188 H1184 0.949 . S
C1188 C1196 1.574 . S
C1188 C1204 1.368 . S
H1189 C1197 0.950 . S
H1190 C1195 0.950 . S
H1191 C1196 0.949 . S
H1192 C1198 0.950 . S
H1193 C1199 0.950 . S
H1194 C1200 0.949 . S
C1195 H1190 0.950 . S
C1195 C1197 1.327 . S
C1195 C1201 1.429 . S
C1196 C1188 1.574 . S
C1196 H1191 0.949 . S
C1196 C1202 1.368 . S
C1197 C1181 1.349 . S
C1197 H1189 0.950 . S
C1197 C1195 1.327 . S
C1198 C1186 1.349 . S
C1198 H1192 0.950 . S
C1198 C1199 1.327 . S
C1199 H1193 0.950 . S
C1199 C1198 1.327 . S
C1199 C1203 1.429 . S
C1200 C1183 1.574 . S
C1200 H1194 0.949 . S
C1200 C1204 1.368 . S
C1201 C1182 1.429 . S
C1201 C1195 1.429 . S
C1201 C1202 1.523 . S
C1202 C1183 1.368 . S
C1202 C1196 1.368 . S
C1202 C1201 1.523 . S
C1203 C1187 1.429 . S
C1203 C1199 1.429 . S
C1203 C1204 1.523 . S
C1204 C1188 1.368 . S
C1204 C1200 1.368 . S
C1204 C1203 1.523 . S
H1205 C1180 0.950 . S
H1206 C1182 0.950 . S
H1207 C1183 0.949 . S
H1208 C1185 0.950 . S
H1209 C1187 0.950 . S
C1210 C1211 1.349 . S
C1210 C1212 1.327 . S
C1210 H1235 0.950 . S
C1211 C1210 1.349 . S
C1211 C1227 1.349 . S
C1212 C1210 1.327 . S
C1212 C1231 1.429 . S
C1212 H1236 0.950 . S
C1213 C1230 1.574 . S
C1213 C1232 1.368 . S
C1213 H1237 0.949 . S
H1214 C1218 0.949 . S
C1215 C1216 1.349 . S
C1215 C1217 1.327 . S
C1215 H1238 0.950 . S
C1216 C1215 1.349 . S
C1216 C1228 1.349 . S
C1217 C1215 1.327 . S
C1217 C1233 1.429 . S
C1217 H1239 0.950 . S
C1218 H1214 0.949 . S
C1218 C1226 1.574 . S
C1218 C1234 1.368 . S
H1219 C1227 0.950 . S
H1220 C1225 0.950 . S
H1221 C1226 0.949 . S
H1222 C1228 0.950 . S
H1223 C1229 0.950 . S
H1224 C1230 0.949 . S
C1225 H1220 0.950 . S
C1225 C1227 1.327 . S
C1225 C1231 1.429 . S
C1226 C1218 1.574 . S
C1226 H1221 0.949 . S
C1226 C1232 1.368 . S
C1227 C1211 1.349 . S
C1227 H1219 0.950 . S
C1227 C1225 1.327 . S
C1228 C1216 1.349 . S
C1228 H1222 0.950 . S
C1228 C1229 1.327 . S
C1229 H1223 0.950 . S
C1229 C1228 1.327 . S
C1229 C1233 1.429 . S
C1230 C1213 1.574 . S
C1230 H1224 0.949 . S
C1230 C1234 1.368 . S
C1231 C1212 1.429 . S
C1231 C1225 1.429 . S
C1231 C1232 1.523 . S
C1232 C1213 1.368 . S
C1232 C1226 1.368 . S
C1232 C1231 1.523 . S
C1233 C1217 1.429 . S
C1233 C1229 1.429 . S
C1233 C1234 1.523 . S
C1234 C1218 1.368 . S
C1234 C1230 1.368 . S
C1234 C1233 1.523 . S
H1235 C1210 0.950 . S
H1236 C1212 0.950 . S
H1237 C1213 0.949 . S
H1238 C1215 0.950 . S
H1239 C1217 0.950 . S
C1240 C1241 1.349 . S
C1240 C1242 1.327 . S
C1240 H1265 0.950 . S
C1241 C1240 1.349 . S
C1241 C1257 1.349 . S
C1242 C1240 1.327 . S
C1242 C1261 1.429 . S
C1242 H1266 0.950 . S
C1243 C1260 1.574 . S
C1243 C1262 1.368 . S
C1243 H1267 0.949 . S
H1244 C1248 0.949 . S
C1245 C1246 1.349 . S
C1245 C1247 1.327 . S
C1245 H1268 0.950 . S
C1246 C1245 1.349 . S
C1246 C1258 1.349 . S
C1247 C1245 1.327 . S
C1247 C1263 1.429 . S
C1247 H1269 0.950 . S
C1248 H1244 0.949 . S
C1248 C1256 1.574 . S
C1248 C1264 1.368 . S
H1249 C1257 0.950 . S
H1250 C1255 0.950 . S
H1251 C1256 0.949 . S
H1252 C1258 0.950 . S
H1253 C1259 0.950 . S
H1254 C1260 0.949 . S
C1255 H1250 0.950 . S
C1255 C1257 1.327 . S
C1255 C1261 1.429 . S
C1256 C1248 1.574 . S
C1256 H1251 0.949 . S
C1256 C1262 1.368 . S
C1257 C1241 1.349 . S
C1257 H1249 0.950 . S
C1257 C1255 1.327 . S
C1258 C1246 1.349 . S
C1258 H1252 0.950 . S
C1258 C1259 1.327 . S
C1259 H1253 0.950 . S
C1259 C1258 1.327 . S
C1259 C1263 1.429 . S
C1260 C1243 1.574 . S
C1260 H1254 0.949 . S
C1260 C1264 1.368 . S
C1261 C1242 1.429 . S
C1261 C1255 1.429 . S
C1261 C1262 1.523 . S
C1262 C1243 1.368 . S
C1262 C1256 1.368 . S
C1262 C1261 1.523 . S
C1263 C1247 1.429 . S
C1263 C1259 1.429 . S
C1263 C1264 1.523 . S
C1264 C1248 1.368 . S
C1264 C1260 1.368 . S
C1264 C1263 1.523 . S
H1265 C1240 0.950 . S
H1266 C1242 0.950 . S
H1267 C1243 0.949 . S
H1268 C1245 0.950 . S
H1269 C1247 0.950 . S
C1270 C1271 1.349 . S
C1270 C1272 1.327 . S
C1270 H1295 0.950 . S
C1271 C1270 1.349 . S
C1271 C1287 1.349 . S
C1272 C1270 1.327 . S
C1272 C1291 1.429 . S
C1272 H1296 0.950 . S
C1273 C1290 1.574 . S
C1273 C1292 1.368 . S
C1273 H1297 0.949 . S
H1274 C1278 0.949 . S
C1275 C1276 1.349 . S
C1275 C1277 1.327 . S
C1275 H1298 0.950 . S
C1276 C1275 1.349 . S
C1276 C1288 1.349 . S
C1277 C1275 1.327 . S
C1277 C1293 1.429 . S
C1277 H1299 0.950 . S
C1278 H1274 0.949 . S
C1278 C1286 1.574 . S
C1278 C1294 1.368 . S
H1279 C1287 0.950 . S
H1280 C1285 0.950 . S
H1281 C1286 0.949 . S
H1282 C1288 0.950 . S
H1283 C1289 0.950 . S
H1284 C1290 0.949 . S
C1285 H1280 0.950 . S
C1285 C1287 1.327 . S
C1285 C1291 1.429 . S
C1286 C1278 1.574 . S
C1286 H1281 0.949 . S
C1286 C1292 1.368 . S
C1287 C1271 1.349 . S
C1287 H1279 0.950 . S
C1287 C1285 1.327 . S
C1288 C1276 1.349 . S
C1288 H1282 0.950 . S
C1288 C1289 1.327 . S
C1289 H1283 0.950 . S
C1289 C1288 1.327 . S
C1289 C1293 1.429 . S
C1290 C1273 1.574 . S
C1290 H1284 0.949 . S
C1290 C1294 1.368 . S
C1291 C1272 1.429 . S
C1291 C1285 1.429 . S
C1291 C1292 1.523 . S
C1292 C1273 1.368 . S
C1292 C1286 1.368 . S
C1292 C1291 1.523 . S
C1293 C1277 1.429 . S
C1293 C1289 1.429 . S
C1293 C1294 1.523 . S
C1294 C1278 1.368 . S
C1294 C1290 1.368 . S
C1294 C1293 1.523 . S
H1295 C1270 0.950 . S
H1296 C1272 0.950 . S
H1297 C1273 0.949 . S
H1298 C1275 0.950 . S
H1299 C1277 0.950 . S
C1300 C1301 1.349 . S
C1300 C1302 1.327 . S
C1300 H1325 0.950 . S
C1301 C1300 1.349 . S
C1301 C1317 1.349 . S
C1302 C1300 1.327 . S
C1302 C1321 1.429 . S
C1302 H1326 0.950 . S
C1303 C1320 1.574 . S
C1303 C1322 1.368 . S
C1303 H1327 0.949 . S
H1304 C1308 0.949 . S
C1305 C1306 1.349 . S
C1305 C1307 1.327 . S
C1305 H1328 0.950 . S
C1306 C1305 1.349 . S
C1306 C1318 1.349 . S
C1307 C1305 1.327 . S
C1307 C1323 1.429 . S
C1307 H1329 0.950 . S
C1308 H1304 0.949 . S
C1308 C1316 1.574 . S
C1308 C1324 1.368 . S
H1309 C1317 0.950 . S
H1310 C1315 0.950 . S
H1311 C1316 0.949 . S
H1312 C1318 0.950 . S
H1313 C1319 0.950 . S
H1314 C1320 0.949 . S
C1315 H1310 0.950 . S
C1315 C1317 1.327 . S
C1315 C1321 1.429 . S
C1316 C1308 1.574 . S
C1316 H1311 0.949 . S
C1316 C1322 1.368 . S
C1317 C1301 1.349 . S
C1317 H1309 0.950 . S
C1317 C1315 1.327 . S
C1318 C1306 1.349 . S
C1318 H1312 0.950 . S
C1318 C1319 1.327 . S
C1319 H1313 0.950 . S
C1319 C1318 1.327 . S
C1319 C1323 1.429 . S
C1320 C1303 1.574 . S
C1320 H1314 0.949 . S
C1320 C1324 1.368 . S
C1321 C1302 1.429 . S
C1321 C1315 1.429 . S
C1321 C1322 1.523 . S
C1322 C1303 1.368 . S
C1322 C1316 1.368 . S
C1322 C1321 1.523 . S
C1323 C1307 1.429 . S
C1323 C1319 1.429 . S
C1323 C1324 1.523 . S
C1324 C1308 1.368 . S
C1324 C1320 1.368 . S
C1324 C1323 1.523 . S
H1325 C1300 0.950 . S
H1326 C1302 0.950 . S
H1327 C1303 0.949 . S
H1328 C1305 0.950 . S
H1329 C1307 0.950 . S
C1330 C1331 1.349 . S
C1330 C1332 1.327 . S
C1330 H1355 0.950 . S
C1331 C1330 1.349 . S
C1331 C1347 1.349 . S
C1332 C1330 1.327 . S
C1332 C1351 1.429 . S
C1332 H1356 0.950 . S
C1333 C1350 1.574 . S
C1333 C1352 1.368 . S
C1333 H1357 0.949 . S
H1334 C1338 0.949 . S
C1335 C1336 1.349 . S
C1335 C1337 1.327 . S
C1335 H1358 0.950 . S
C1336 C1335 1.349 . S
C1336 C1348 1.349 . S
C1337 C1335 1.327 . S
C1337 C1353 1.429 . S
C1337 H1359 0.950 . S
C1338 H1334 0.949 . S
C1338 C1346 1.574 . S
C1338 C1354 1.368 . S
H1339 C1347 0.950 . S
H1340 C1345 0.950 . S
H1341 C1346 0.949 . S
H1342 C1348 0.950 . S
H1343 C1349 0.950 . S
H1344 C1350 0.949 . S
C1345 H1340 0.950 . S
C1345 C1347 1.327 . S
C1345 C1351 1.429 . S
C1346 C1338 1.574 . S
C1346 H1341 0.949 . S
C1346 C1352 1.368 . S
C1347 C1331 1.349 . S
C1347 H1339 0.950 . S
C1347 C1345 1.327 . S
C1348 C1336 1.349 . S
C1348 H1342 0.950 . S
C1348 C1349 1.327 . S
C1349 H1343 0.950 . S
C1349 C1348 1.327 . S
C1349 C1353 1.429 . S
C1350 C1333 1.574 . S
C1350 H1344 0.949 . S
C1350 C1354 1.368 . S
C1351 C1332 1.429 . S
C1351 C1345 1.429 . S
C1351 C1352 1.523 . S
C1352 C1333 1.368 . S
C1352 C1346 1.368 . S
C1352 C1351 1.523 . S
C1353 C1337 1.429 . S
C1353 C1349 1.429 . S
C1353 C1354 1.523 . S
C1354 C1338 1.368 . S
C1354 C1350 1.368 . S
C1354 C1353 1.523 . S
H1355 C1330 0.950 . S
H1356 C1332 0.950 . S
H1357 C1333 0.949 . S
H1358 C1335 0.950 . S
H1359 C1337 0.950 . S
C641 C1 1.133 . S
C646 C486 1.218 . S
C671 C80 0.887 . S
C676 C535 0.907 . S
C706 C570 2.461 . S
C701 C140 2.469 . S
C731 C211 2.321 . S
C736 C609 2.291 . S
C766 C530 2.457 . S
C761 C31 2.261 . S
C796 C489 0.866 . S
C791 C61 0.869 . S
C826 C619 1.860 . S
C821 C151 1.887 . S
C856 C578 1.537 . S
C851 C200 1.546 . S
C881 C20 1.647 . S
C886 C606 1.728 . S
C916 C538 2.321 . S
C911 C121 2.390 . S
C941 C181 2.308 . S
C946 C499 2.333 . S
C971 C91 0.715 . S
C976 C575 0.715 . S
C1006 C495 1.219 . S
C1001 C260 1.157 . S
C1031 C320 0.887 . S
C1036 C526 0.902 . S
C1061 C361 2.468 . S
C1066 C579 2.461 . S
C1091 C451 2.321 . S
C1096 C618 2.296 . S
C1121 C271 2.319 . S
C1126 C539 2.458 . S
C1156 C498 0.866 . S
C1151 C301 0.870 . S
C1186 C610 1.861 . S
C1181 C380 1.873 . S
C1216 C569 1.537 . S
C1211 C440 1.546 . S
C1241 C241 1.592 . S
C1246 C615 1.731 . S
C1276 C529 2.321 . S
C1271 C391 2.383 . S
C1306 C490 2.333 . S
C1301 C421 2.308 . S
C1331 C331 0.715 . S
C1336 C566 0.715 . S
