# Generated by pormake.
# Topology zzz, (3,6)-cn, num edge types: 1
# Building blocks:
#     Node 0, Type 0, BuildingBlock: ESEHIV_clean_linker_0, # of connection points: 3
#     Node 1, Type 0, BuildingBlock: ESEHIV_clean_linker_0, # of connection points: 3
#     Node 2, Type 0, BuildingBlock: ESEHIV_clean_linker_0, # of connection points: 3
#     Node 3, Type 0, BuildingBlock: ESEHIV_clean_linker_0, # of connection points: 3
#     Node 4, Type 0, BuildingBlock: ESEHIV_clean_linker_0, # of connection points: 3
#     Node 5, Type 0, BuildingBlock: ESEHIV_clean_linker_0, # of connection points: 3
#     Node 6, Type 0, BuildingBlock: ESEHIV_clean_linker_0, # of connection points: 3
#     Node 7, Type 0, BuildingBlock: ESEHIV_clean_linker_0, # of connection points: 3
#     Node 8, Type 1, BuildingBlock: CUKXOW_clean_sbu_0, # of connection points: 6
#     Node 9, Type 1, BuildingBlock: CUKXOW_clean_sbu_0, # of connection points: 6
#     Node 10, Type 1, BuildingBlock: CUKXOW_clean_sbu_0, # of connection points: 6
#     Node 11, Type 1, BuildingBlock: CUKXOW_clean_sbu_0, # of connection points: 6
#     Edge 12, Type (0, 1), BuildingBlock: UVAHIK_clean_linker_0, # of connection points: 2
#     Edge 13, Type (0, 1), BuildingBlock: UVAHIK_clean_linker_0, # of connection points: 2
#     Edge 14, Type (0, 1), BuildingBlock: UVAHIK_clean_linker_0, # of connection points: 2
#     Edge 15, Type (0, 1), BuildingBlock: UVAHIK_clean_linker_0, # of connection points: 2
#     Edge 16, Type (0, 1), BuildingBlock: UVAHIK_clean_linker_0, # of connection points: 2
#     Edge 17, Type (0, 1), BuildingBlock: UVAHIK_clean_linker_0, # of connection points: 2
#     Edge 18, Type (0, 1), BuildingBlock: UVAHIK_clean_linker_0, # of connection points: 2
#     Edge 19, Type (0, 1), BuildingBlock: UVAHIK_clean_linker_0, # of connection points: 2
#     Edge 20, Type (0, 1), BuildingBlock: UVAHIK_clean_linker_0, # of connection points: 2
#     Edge 21, Type (0, 1), BuildingBlock: UVAHIK_clean_linker_0, # of connection points: 2
#     Edge 22, Type (0, 1), BuildingBlock: UVAHIK_clean_linker_0, # of connection points: 2
#     Edge 23, Type (0, 1), BuildingBlock: UVAHIK_clean_linker_0, # of connection points: 2
#     Edge 24, Type (0, 1), BuildingBlock: UVAHIK_clean_linker_0, # of connection points: 2
#     Edge 25, Type (0, 1), BuildingBlock: UVAHIK_clean_linker_0, # of connection points: 2
#     Edge 26, Type (0, 1), BuildingBlock: UVAHIK_clean_linker_0, # of connection points: 2
#     Edge 27, Type (0, 1), BuildingBlock: UVAHIK_clean_linker_0, # of connection points: 2
#     Edge 28, Type (0, 1), BuildingBlock: UVAHIK_clean_linker_0, # of connection points: 2
#     Edge 29, Type (0, 1), BuildingBlock: UVAHIK_clean_linker_0, # of connection points: 2
#     Edge 30, Type (0, 1), BuildingBlock: UVAHIK_clean_linker_0, # of connection points: 2
#     Edge 31, Type (0, 1), BuildingBlock: UVAHIK_clean_linker_0, # of connection points: 2
#     Edge 32, Type (0, 1), BuildingBlock: UVAHIK_clean_linker_0, # of connection points: 2
#     Edge 33, Type (0, 1), BuildingBlock: UVAHIK_clean_linker_0, # of connection points: 2
#     Edge 34, Type (0, 1), BuildingBlock: UVAHIK_clean_linker_0, # of connection points: 2
#     Edge 35, Type (0, 1), BuildingBlock: UVAHIK_clean_linker_0, # of connection points: 2
# Relax obj value: 0.214
# Max RMSD: 0.230
# Mean RMSD: 0.186
data_MOF--net-zzz--node1-CUKXOW_clean_sbu_0--node2-ESEHIV_clean_linker_0--edge1-UVAHIK_clean_linker_0
_symmetry_space_group_name_H-M    P1
_symmetry_Int_Tables_number       1
_symmetry_cell_setting            triclinic
loop_
_symmetry_equiv_pos_as_xyz
'x, y, z'
_cell_length_a     58.860789
_cell_length_b     57.595441
_cell_length_c     20.659869
_cell_angle_alpha  92.544662
_cell_angle_beta   88.305287
_cell_angle_gamma 95.440663
loop_
_atom_site_label
_atom_site_type_symbol
_atom_site_fract_x
_atom_site_fract_y
_atom_site_fract_z
_atom_type_partial_charge
H0 H 0.79873 0.41633 0.12364 0.0
H1 H 0.74842 0.41681 0.97765 0.0
H2 H 0.73349 0.44101 0.17333 0.0
C3 C 0.78151 0.41897 0.11026 0.0
C4 C 0.76666 0.4283 0.15671 0.0
C5 C 0.77522 0.41513 0.04551 0.0
C6 C 0.75328 0.41951 0.02784 0.0
C7 C 0.738 0.4285 0.07385 0.0
C8 C 0.74493 0.43338 0.1381 0.0
H9 H 0.90033 0.7967 0.11204 0.0
H10 H 0.90737 0.73864 0.97734 0.0
H11 H 0.8952 0.72716 0.18067 0.0
C12 C 0.89946 0.77804 0.1014 0.0
C13 C 0.89605 0.76291 0.15278 0.0
C14 C 0.90395 0.76961 0.03805 0.0
C15 C 0.90385 0.74544 0.02601 0.0
C16 C 0.90052 0.73002 0.0771 0.0
C17 C 0.89703 0.73886 0.14079 0.0
H18 H 0.70066 0.01773 0.22986 0.0
H19 H 0.74236 0.01199 0.05727 0.0
H20 H 0.7727 0.01316 0.24547 0.0
C21 C 0.71724 0.01601 0.20666 0.0
C22 C 0.73636 0.01542 0.245 0.0
C23 C 0.71926 0.01478 0.13908 0.0
C24 C 0.74069 0.01232 0.1097 0.0
C25 C 0.76017 0.01169 0.14743 0.0
C26 C 0.75791 0.01339 0.21561 0.0
H27 H 0.60813 0.71016 0.17245 0.0
H28 H 0.6208 0.78134 0.24224 0.0
H29 H 0.60202 0.76557 0.0437 0.0
C30 C 0.61 0.72858 0.16254 0.0
C31 C 0.60465 0.73582 0.10144 0.0
C32 C 0.61603 0.7448 0.21308 0.0
C33 C 0.61673 0.76878 0.20269 0.0
C34 C 0.61217 0.77641 0.14094 0.0
C35 C 0.60623 0.75979 0.09072 0.0
H36 H 0.20749 0.58363 0.2438 0.0
H37 H 0.25461 0.58864 0.39926 0.0
H38 H 0.27617 0.56654 0.20638 0.0
C39 C 0.22466 0.58284 0.26073 0.0
C40 C 0.2414 0.5752 0.21739 0.0
C41 C 0.2292 0.58759 0.32636 0.0
C42 C 0.25118 0.58533 0.34827 0.0
C43 C 0.26845 0.57802 0.30545 0.0
C44 C 0.26328 0.5726 0.23988 0.0
H45 H 0.10583 0.20717 0.24767 0.0
H46 H 0.10283 0.26495 0.38524 0.0
H47 H 0.11268 0.27719 0.18169 0.0
C48 C 0.10767 0.22582 0.25878 0.0
C49 C 0.11094 0.24112 0.20764 0.0
C50 C 0.10445 0.23413 0.32287 0.0
C51 C 0.10553 0.25829 0.33598 0.0
C52 C 0.10861 0.27391 0.28537 0.0
C53 C 0.11101 0.26525 0.22103 0.0
H54 H 0.31386 0.98518 0.17418 0.0
H55 H 0.26672 0.98572 0.33658 0.0
H56 H 0.2417 0.97657 0.14197 0.0
C57 C 0.29648 0.9846 0.19347 0.0
C58 C 0.27834 0.98114 0.15066 0.0
C59 C 0.29251 0.98623 0.26051 0.0
C60 C 0.26995 0.98442 0.28466 0.0
C61 C 0.25148 0.9809 0.24248 0.0
C62 C 0.25574 0.97966 0.17499 0.0
H63 H 0.41112 0.29914 0.1845 0.0
H64 H 0.40334 0.2269 0.11896 0.0
H65 H 0.41741 0.24579 0.31924 0.0
C66 C 0.41005 0.28078 0.19518 0.0
C67 C 0.41448 0.27438 0.25767 0.0
C68 C 0.40612 0.26383 0.14499 0.0
C69 C 0.40597 0.24005 0.15785 0.0
C70 C 0.40923 0.23344 0.2215 0.0
C71 C 0.41378 0.25073 0.27081 0.0
Tb72 Tb 0.98883 0.98713 0.62884 0.0
C73 C 0.04331 0.99138 0.61537 0.0
Tb74 Tb 0.01788 0.01727 0.7308 0.0
O75 O 0.98145 0.01838 0.57794 0.0
O76 O 0.01041 0.01822 0.63226 0.0
O77 O 0.02361 0.97955 0.59904 0.0
C78 C 0.03588 0.05611 0.79187 0.0
O79 O 0.04454 0.0088 0.66017 0.0
C80 C 0.00849 0.97317 0.75627 0.0
C81 C 0.96338 0.01202 0.74603 0.0
O82 O 0.04311 0.03557 0.79596 0.0
O83 O 0.01839 0.05455 0.75472 0.0
O84 O 0.02549 0.98618 0.78201 0.0
O85 O 0.99656 0.98605 0.7272 0.0
O86 O 0.98298 0.02407 0.7623 0.0
O87 O 0.96236 0.9948 0.70073 0.0
C88 C 0.96933 0.94975 0.56429 0.0
O89 O 0.96243 0.97054 0.56492 0.0
O90 O 0.98742 0.95017 0.59882 0.0
C91 C 0.99862 0.03119 0.6032 0.0
Tb92 Tb 0.50107 0.02502 0.65488 0.0
C93 C 0.55153 0.01233 0.64624 0.0
Tb94 Tb 0.51424 0.98406 0.73542 0.0
O95 O 0.52254 0.05057 0.71319 0.0
O96 O 0.50866 0.01957 0.75182 0.0
O97 O 0.53555 0.02241 0.6166 0.0
C98 C 0.53346 0.95813 0.81841 0.0
O99 O 0.54718 0.99891 0.69664 0.0
C100 C 0.49275 0.97174 0.62804 0.0
C101 C 0.46364 0.99653 0.74292 0.0
O102 O 0.5354 0.95612 0.75571 0.0
O103 O 0.52031 0.97442 0.83438 0.0
O104 O 0.49282 0.95844 0.67729 0.0
O105 O 0.50657 0.98948 0.63858 0.0
O106 O 0.47966 0.98674 0.77337 0.0
O107 O 0.46813 0.00965 0.69197 0.0
C108 C 0.4818 0.05167 0.57395 0.0
O109 O 0.47894 0.05227 0.63649 0.0
O110 O 0.49586 0.03632 0.55686 0.0
C111 C 0.52249 0.03728 0.76241 0.0
Tb112 Tb 0.52276 0.52275 0.64145 0.0
C113 C 0.46835 0.5241 0.63075 0.0
Tb114 Tb 0.48939 0.49145 0.72699 0.0
O115 O 0.52991 0.49248 0.57733 0.0
O116 O 0.49913 0.49354 0.62853 0.0
O117 O 0.48934 0.53365 0.61621 0.0
C118 C 0.4662 0.45327 0.77255 0.0
O119 O 0.46436 0.50615 0.66926 0.0
C120 C 0.50037 0.53401 0.77228 0.0
C121 C 0.54327 0.49125 0.74101 0.0
O122 O 0.47079 0.47281 0.80561 0.0
O123 O 0.4746 0.45533 0.71418 0.0
O124 O 0.48125 0.52204 0.788 0.0
O125 O 0.51276 0.52106 0.73961 0.0
O126 O 0.52285 0.47931 0.747 0.0
O127 O 0.54634 0.51105 0.70976 0.0
C128 C 0.54547 0.56076 0.59362 0.0
O129 O 0.55105 0.53957 0.58374 0.0
O130 O 0.527 0.56044 0.6295 0.0
C131 C 0.51093 0.48059 0.59423 0.0
Tb132 Tb 0.98279 0.49652 0.64994 0.0
C133 C 0.02545 0.47046 0.60771 0.0
Tb134 Tb 0.02444 0.50063 0.74119 0.0
O135 O 0.00192 0.51667 0.5751 0.0
O136 O 0.01081 0.52102 0.67215 0.0
O137 O 0.00309 0.47102 0.60146 0.0
C138 C 0.06516 0.50941 0.79589 0.0
O139 O 0.03724 0.48272 0.65374 0.0
C140 C 0.98997 0.47115 0.77492 0.0
C141 C 0.98187 0.52716 0.78195 0.0
O142 O 0.05519 0.4888 0.78169 0.0
O143 O 0.05211 0.52505 0.77983 0.0
O144 O 0.00442 0.48136 0.81584 0.0
O145 O 0.99671 0.4759 0.71831 0.0
O146 O 0.00425 0.52667 0.78769 0.0
O147 O 0.96996 0.51447 0.73705 0.0
C148 C 0.9417 0.48796 0.59734 0.0
O149 O 0.95387 0.47231 0.61807 0.0
O150 O 0.95272 0.50843 0.60595 0.0
C151 C 0.01705 0.52605 0.61527 0.0
C152 C 0.21084 0.99097 0.25089 0.0
C153 C 0.228 0.97765 0.27048 0.0
C154 C 0.18968 0.98993 0.2841 0.0
C155 C 0.16526 0.97646 0.44561 0.0
H156 H 0.10698 0.97976 0.36557 0.0
C157 C 0.08526 0.99937 0.59235 0.0
C158 C 0.06423 0.98703 0.57686 0.0
C159 C 0.10472 0.99658 0.55361 0.0
C160 C 0.12311 0.97861 0.38855 0.0
H161 H 0.23603 0.95153 0.33637 0.0
H162 H 0.19917 0.94945 0.39348 0.0
H163 H 0.14141 0.9771 0.29734 0.0
H164 H 0.04733 0.96171 0.50886 0.0
H165 H 0.08144 0.95674 0.44152 0.0
H166 H 0.1471 0.97785 0.53664 0.0
C167 C 0.20214 0.96119 0.35394 0.0
C168 C 0.14284 0.97734 0.34951 0.0
C169 C 0.22322 0.96231 0.32112 0.0
C170 C 0.06323 0.97151 0.52226 0.0
C171 C 0.08273 0.96878 0.48332 0.0
C172 C 0.14561 0.97779 0.4845 0.0
C173 C 0.18536 0.97548 0.33715 0.0
C174 C 0.16415 0.97628 0.37768 0.0
C175 C 0.10366 0.9814 0.49837 0.0
C176 C 0.12433 0.97902 0.45652 0.0
H177 H 0.21416 0.00296 0.21206 0.0
H178 H 0.17712 0.00122 0.27013 0.0
H179 H 0.18144 0.97601 0.46897 0.0
H180 H 0.08668 0.01151 0.63391 0.0
H181 H 0.12053 0.00675 0.56615 0.0
C182 C 0.42563 0.1949 0.20976 0.0
C183 C 0.40931 0.20876 0.23797 0.0
C184 C 0.42965 0.17394 0.23742 0.0
C185 C 0.42752 0.15166 0.39909 0.0
H186 H 0.44257 0.09313 0.31653 0.0
C187 C 0.45248 0.07851 0.55272 0.0
C188 C 0.47064 0.06612 0.52974 0.0
C189 C 0.44236 0.09306 0.51216 0.0
C190 C 0.43859 0.10946 0.34021 0.0
H191 H 0.3829 0.21078 0.31258 0.0
H192 H 0.38956 0.17408 0.36014 0.0
H193 H 0.42875 0.12313 0.25112 0.0
H194 H 0.4921 0.05846 0.44606 0.0
H195 H 0.47507 0.0847 0.37548 0.0
H196 H 0.43813 0.13883 0.48734 0.0
C197 C 0.39959 0.17951 0.31771 0.0
C198 C 0.43059 0.12655 0.30276 0.0
C199 C 0.39568 0.20041 0.29034 0.0
C200 C 0.47815 0.06797 0.46491 0.0
C201 C 0.46825 0.08285 0.42442 0.0
C202 C 0.43568 0.13479 0.43619 0.0
C203 C 0.41735 0.16665 0.29354 0.0
C204 C 0.4249 0.14778 0.33203 0.0
C205 C 0.45048 0.09589 0.44794 0.0
C206 C 0.44128 0.11343 0.40746 0.0
H207 H 0.43645 0.20114 0.16962 0.0
H208 H 0.44347 0.16439 0.21788 0.0
H209 H 0.42387 0.16809 0.42282 0.0
H210 H 0.44612 0.07707 0.60228 0.0
H211 H 0.42831 0.10231 0.53151 0.0
C212 C 0.303 0.55557 0.31215 0.0
C213 C 0.29139 0.57515 0.33087 0.0
C214 C 0.32344 0.55181 0.34133 0.0
C215 C 0.35339 0.56516 0.49339 0.0
H216 H 0.40576 0.54331 0.39918 0.0
C217 C 0.42624 0.52529 0.61832 0.0
C218 C 0.44873 0.53237 0.59794 0.0
C219 C 0.40769 0.53194 0.58518 0.0
C220 C 0.39131 0.54955 0.42606 0.0
H221 H 0.29298 0.60685 0.39205 0.0
H222 H 0.32838 0.60009 0.44336 0.0
H223 H 0.37261 0.55254 0.33971 0.0
H224 H 0.46933 0.55223 0.52691 0.0
H225 H 0.43687 0.56369 0.46887 0.0
H226 H 0.37193 0.56199 0.57971 0.0
C227 C 0.32149 0.58748 0.40689 0.0
C228 C 0.37229 0.55464 0.39208 0.0
C229 C 0.30119 0.59132 0.3775 0.0
C230 C 0.45223 0.54651 0.54406 0.0
C231 C 0.43366 0.55294 0.51047 0.0
C232 C 0.37228 0.55984 0.52735 0.0
C233 C 0.33263 0.56748 0.39003 0.0
C234 C 0.35312 0.56249 0.42542 0.0
C235 C 0.4112 0.54563 0.53051 0.0
C236 C 0.39143 0.55193 0.49411 0.0
H237 H 0.29584 0.54265 0.27688 0.0
H238 H 0.33157 0.53616 0.32761 0.0
H239 H 0.33878 0.57094 0.52052 0.0
H240 H 0.4229 0.51442 0.65963 0.0
H241 H 0.39058 0.52589 0.60149 0.0
C242 C 0.12047 0.31095 0.3476 0.0
C243 C 0.10671 0.29896 0.30037 0.0
C244 C 0.11588 0.33319 0.37093 0.0
C245 C 0.07928 0.38186 0.34765 0.0
H246 H 0.08331 0.38892 0.53461 0.0
C247 C 0.02664 0.4426 0.51092 0.0
C248 C 0.03778 0.45488 0.56309 0.0
C249 C 0.03791 0.42662 0.47186 0.0
C250 C 0.08239 0.38742 0.48227 0.0
H251 H 0.07808 0.30094 0.23823 0.0
H252 H 0.06945 0.33944 0.28031 0.0
H253 H 0.09849 0.35577 0.47799 0.0
H254 H 0.06987 0.46065 0.61334 0.0
H255 H 0.08932 0.43264 0.5456 0.0
H256 H 0.06202 0.41312 0.35323 0.0
C257 C 0.08418 0.33211 0.29837 0.0
C258 C 0.09122 0.36843 0.44958 0.0
C259 C 0.08906 0.31002 0.27425 0.0
C260 C 0.06068 0.45141 0.5739 0.0
C261 C 0.07185 0.43532 0.53521 0.0
C262 C 0.07018 0.40077 0.38061 0.0
C263 C 0.09708 0.34366 0.34857 0.0
C264 C 0.08959 0.36522 0.38188 0.0
C265 C 0.06047 0.42248 0.48451 0.0
C266 C 0.07148 0.40358 0.44833 0.0
H267 H 0.13427 0.30273 0.36813 0.0
H268 H 0.12658 0.34179 0.40826 0.0
H269 H 0.07799 0.38016 0.29545 0.0
H270 H 0.00906 0.44494 0.50097 0.0
H271 H 0.02867 0.41683 0.43338 0.0
C272 C 0.785 0.99566 0.05927 0.0
C273 C 0.78279 0.01055 0.11438 0.0
C274 C 0.80525 0.99679 0.02232 0.0
C275 C 0.86644 0.01717 0.0217 0.0
H276 H 0.85874 0.01791 0.83598 0.0
C277 C 0.94326 0.03066 0.84099 0.0
C278 C 0.94251 0.01545 0.78575 0.0
C279 C 0.92395 0.03203 0.88169 0.0
C280 C 0.8612 0.01755 0.88766 0.0
H281 H 0.80046 0.03753 0.17575 0.0
H282 H 0.8361 0.03934 0.11121 0.0
H283 H 0.82528 0.01517 0.9083 0.0
H284 H 0.92062 0.9903 0.72903 0.0
H285 H 0.88725 0.99256 0.79991 0.0
H286 H 0.90242 0.01919 0.00081 0.0
C287 C 0.82208 0.02682 0.09674 0.0
C288 C 0.84203 0.01595 0.92909 0.0
C289 C 0.80172 0.02572 0.13377 0.0
C290 C 0.92186 0.00222 0.7711 0.0
C291 C 0.90262 0.0036 0.81164 0.0
C292 C 0.88568 0.01868 0.98011 0.0
C293 C 0.82381 0.01279 0.03966 0.0
C294 C 0.84441 0.01541 0.99648 0.0
C295 C 0.90349 0.0183 0.86785 0.0
C296 C 0.88325 0.01857 0.91253 0.0
H297 H 0.77084 0.98348 0.04383 0.0
H298 H 0.80627 0.98536 0.97945 0.0
H299 H 0.86878 0.01671 0.07342 0.0
H300 H 0.95888 0.04114 0.85369 0.0
H301 H 0.92508 0.04375 0.92418 0.0
C302 C 0.62127 0.81041 0.07067 0.0
C303 C 0.61172 0.80152 0.12861 0.0
C304 C 0.61694 0.83249 0.05194 0.0
C305 C 0.57181 0.87192 0.07278 0.0
H306 H 0.61162 0.90952 0.95729 0.0
C307 C 0.54018 0.9466 0.93096 0.0
C308 C 0.54505 0.94462 0.86411 0.0
C309 C 0.55088 0.9333 0.97395 0.0
C310 C 0.60036 0.89925 0.98974 0.0
H311 H 0.59166 0.80948 0.21498 0.0
H312 H 0.58446 0.84845 0.18296 0.0
H313 H 0.62715 0.87948 0.01798 0.0
H314 H 0.56537 0.92795 0.78973 0.0
H315 H 0.58414 0.9048 0.86467 0.0
H316 H 0.54493 0.89135 0.04318 0.0
C317 C 0.59493 0.8381 0.15133 0.0
C318 C 0.60922 0.88203 0.02443 0.0
C319 C 0.59926 0.81591 0.17005 0.0
C320 C 0.56123 0.92967 0.84106 0.0
C321 C 0.57211 0.91661 0.884 0.0
C322 C 0.56301 0.88929 0.03853 0.0
C323 C 0.60302 0.84629 0.09089 0.0
C324 C 0.59487 0.86757 0.06456 0.0
C325 C 0.56688 0.91809 0.95079 0.0
C326 C 0.57703 0.90256 0.99499 0.0
H327 H 0.63117 0.79977 0.03816 0.0
H328 H 0.62334 0.83805 0.00488 0.0
H329 H 0.56017 0.86098 0.10253 0.0
H330 H 0.52787 0.95817 0.94991 0.0
H331 H 0.54661 0.93483 0.02522 0.0
C332 C 0.70075 0.41689 0.02103 0.0
C333 C 0.71547 0.43414 0.05251 0.0
C334 C 0.68076 0.42272 0.9934 0.0
C335 C 0.65906 0.47008 0.91419 0.0
H336 H 0.59883 0.43811 0.94217 0.0
C337 C 0.58061 0.50058 0.79497 0.0
C338 C 0.56263 0.484 0.77684 0.0
C339 C 0.59856 0.49428 0.83106 0.0
C340 C 0.61557 0.44698 0.93283 0.0
H341 H 0.72081 0.47082 0.08095 0.0
H342 H 0.68601 0.4812 0.03102 0.0
H343 H 0.63096 0.42741 0.0031 0.0
H344 H 0.54952 0.44767 0.7816 0.0
H345 H 0.58146 0.43629 0.84195 0.0
H346 H 0.64434 0.48887 0.84198 0.0
C347 C 0.68983 0.46314 0.02859 0.0
C348 C 0.63391 0.44096 0.96826 0.0
C349 C 0.70959 0.45721 0.05743 0.0
C350 C 0.56312 0.46085 0.79507 0.0
C351 C 0.58137 0.4544 0.83019 0.0
C352 C 0.6409 0.47578 0.87787 0.0
C353 C 0.67542 0.44599 0.99555 0.0
C354 C 0.65577 0.45258 0.95953 0.0
C355 C 0.59933 0.47107 0.84895 0.0
C356 C 0.61881 0.46446 0.88691 0.0
H357 H 0.70502 0.39899 0.01651 0.0
H358 H 0.67 0.40922 0.96787 0.0
H359 H 0.67587 0.479 0.90572 0.0
H360 H 0.58057 0.51866 0.78261 0.0
H361 H 0.61164 0.50781 0.84578 0.0
C362 C 0.88945 0.69249 0.01633 0.0
C363 C 0.90284 0.70498 0.06352 0.0
C364 C 0.89405 0.66996 0.99574 0.0
C365 C 0.92956 0.62128 0.02851 0.0
H366 H 0.9262 0.61068 0.84222 0.0
C367 C 0.98108 0.55635 0.87579 0.0
C368 C 0.96974 0.5434 0.82506 0.0
C369 C 0.97013 0.57321 0.91247 0.0
C370 C 0.92692 0.61319 0.89443 0.0
H371 H 0.93091 0.70369 0.12814 0.0
H372 H 0.93962 0.66467 0.0907 0.0
H373 H 0.91169 0.64526 0.89293 0.0
H374 H 0.93759 0.53727 0.77523 0.0
H375 H 0.91871 0.5668 0.83878 0.0
H376 H 0.94598 0.58955 0.02866 0.0
C377 C 0.92513 0.67184 0.07064 0.0
C378 C 0.91849 0.633 0.92373 0.0
C379 C 0.92023 0.69423 0.09205 0.0
C380 C 0.94693 0.54701 0.8136 0.0
C381 C 0.93609 0.56397 0.84986 0.0
C382 C 0.93829 0.60155 0.99892 0.0
C383 C 0.91251 0.65967 0.02084 0.0
C384 C 0.91983 0.63745 0.99111 0.0
C385 C 0.94772 0.57755 0.89878 0.0
C386 C 0.93719 0.59744 0.93151 0.0
H387 H 0.87585 0.70046 0.99403 0.0
H388 H 0.88355 0.66092 0.95864 0.0
H389 H 0.93061 0.62393 0.08058 0.0
H390 H 0.9986 0.55392 0.88619 0.0
H391 H 0.97954 0.58354 0.94967 0.0
C392 C 0.10548 0.19537 0.37279 0.0
C393 C 0.09673 0.21727 0.37321 0.0
C394 C 0.09453 0.17739 0.40845 0.0
C395 C 0.05696 0.15969 0.54051 0.0
H396 H 0.03264 0.10963 0.42267 0.0
C397 C 0.02769 0.0654 0.61011 0.0
C398 C 0.00674 0.05522 0.58652 0.0
C399 C 0.03639 0.08758 0.59211 0.0
C400 C 0.03909 0.1236 0.456 0.0
H401 H 0.07081 0.23801 0.41632 0.0
H402 H 0.05227 0.20666 0.48077 0.0
H403 H 0.0547 0.14393 0.37954 0.0
H404 H 0.97844 0.06017 0.52552 0.0
H405 H 0.9943 0.09888 0.49141 0.0
H406 H 0.04212 0.13878 0.61724 0.0
C407 C 0.0674 0.2035 0.45178 0.0
C408 C 0.05186 0.14303 0.43147 0.0
C409 C 0.07813 0.22144 0.41519 0.0
C410 C 0.99456 0.0677 0.54464 0.0
C411 C 0.00357 0.08977 0.5253 0.0
C412 C 0.04455 0.13995 0.56525 0.0
C413 C 0.07496 0.18113 0.44634 0.0
C414 C 0.06105 0.16108 0.47352 0.0
C415 C 0.02464 0.09977 0.54863 0.0
C416 C 0.03564 0.12172 0.5231 0.0
H417 H 0.12006 0.19174 0.34203 0.0
H418 H 0.10075 0.16025 0.40429 0.0
H419 H 0.06387 0.17352 0.57358 0.0
H420 H 0.03777 0.05596 0.64105 0.0
H421 H 0.05286 0.09473 0.60977 0.0
C422 C 0.33216 0.0022 0.29013 0.0
C423 C 0.31207 0.98796 0.30466 0.0
C424 C 0.35164 0.00142 0.32659 0.0
C425 C 0.37792 0.96134 0.42888 0.0
H426 H 0.42002 0.01544 0.47145 0.0
C427 C 0.47494 0.98467 0.5294 0.0
C428 C 0.47349 0.97102 0.58411 0.0
C429 C 0.45554 0.9867 0.49342 0.0
C430 C 0.40853 0.00016 0.45915 0.0
H431 H 0.29637 0.96255 0.37074 0.0
H432 H 0.33016 0.96172 0.43556 0.0
H433 H 0.38469 0.0205 0.41672 0.0
H434 H 0.4511 0.94781 0.64265 0.0
H435 H 0.41734 0.95104 0.57952 0.0
H436 H 0.40166 0.94102 0.47152 0.0
C437 C 0.33099 0.97312 0.39508 0.0
C438 C 0.38829 0.00305 0.42802 0.0
C439 C 0.31153 0.97384 0.3585 0.0
C440 C 0.4527 0.95837 0.60037 0.0
C441 C 0.43337 0.96028 0.56433 0.0
C442 C 0.39808 0.95847 0.46011 0.0
C443 C 0.35142 0.98644 0.37848 0.0
C444 C 0.37273 0.98367 0.41277 0.0
C445 C 0.43448 0.97479 0.51121 0.0
C446 C 0.41355 0.97783 0.47574 0.0
H447 H 0.33299 0.0135 0.24943 0.0
H448 H 0.36712 0.01185 0.31242 0.0
H449 H 0.36656 0.94599 0.41646 0.0
H450 H 0.491 0.99399 0.51505 0.0
H451 H 0.45698 0.99766 0.45195 0.0
C452 C 0.40944 0.31142 0.32151 0.0
C453 C 0.42234 0.29258 0.30658 0.0
C454 C 0.41845 0.33035 0.36023 0.0
C455 C 0.46732 0.35143 0.46628 0.0
H456 H 0.45293 0.41176 0.41138 0.0
C457 C 0.51612 0.4418 0.53864 0.0
C458 C 0.50172 0.45804 0.56504 0.0
C459 C 0.50678 0.42047 0.51112 0.0
C460 C 0.45704 0.395 0.42723 0.0
H461 H 0.45436 0.27819 0.32129 0.0
H462 H 0.47055 0.31157 0.38686 0.0
H463 H 0.43522 0.37639 0.35828 0.0
H464 H 0.46645 0.46503 0.5831 0.0
H465 H 0.45028 0.42815 0.53399 0.0
H466 H 0.4899 0.37055 0.53376 0.0
C467 C 0.45324 0.31161 0.37059 0.0
C468 C 0.44672 0.37469 0.39738 0.0
C469 C 0.44402 0.29248 0.3329 0.0
C470 C 0.47795 0.45274 0.56339 0.0
C471 C 0.46868 0.43172 0.53516 0.0
C472 C 0.47797 0.37185 0.49543 0.0
C473 C 0.44079 0.33107 0.38341 0.0
C474 C 0.45156 0.3526 0.41677 0.0
C475 C 0.48297 0.41545 0.50862 0.0
C476 C 0.47275 0.39375 0.47634 0.0
H477 H 0.39261 0.31174 0.30189 0.0
H478 H 0.40808 0.34469 0.3706 0.0
H479 H 0.47129 0.33477 0.48305 0.0
H480 H 0.5345 0.44556 0.53956 0.0
H481 H 0.51808 0.40814 0.49054 0.0
C482 C 0.19326 0.60636 0.35447 0.0
C483 C 0.21008 0.59222 0.37215 0.0
C484 C 0.17274 0.60654 0.39006 0.0
C485 C 0.14193 0.58805 0.54081 0.0
H486 H 0.09163 0.5707 0.42599 0.0
C487 C 0.05884 0.53669 0.62575 0.0
C488 C 0.03832 0.5398 0.59615 0.0
C489 C 0.07932 0.54848 0.60453 0.0
C490 C 0.10525 0.57608 0.45903 0.0
H491 H 0.21933 0.56873 0.44413 0.0
H492 H 0.18363 0.5693 0.5067 0.0
H493 H 0.129 0.58333 0.38069 0.0
H494 H 0.0228 0.55776 0.52165 0.0
H495 H 0.05849 0.57906 0.48532 0.0
H496 H 0.11823 0.58039 0.61922 0.0
C497 C 0.18631 0.58023 0.46531 0.0
C498 C 0.12675 0.58331 0.43292 0.0
C499 C 0.2068 0.57993 0.42948 0.0
C500 C 0.03848 0.55515 0.54534 0.0
C501 C 0.05893 0.56723 0.52447 0.0
C502 C 0.12032 0.58106 0.56707 0.0
C503 C 0.16872 0.59275 0.44432 0.0
C504 C 0.14543 0.5888 0.47339 0.0
C505 C 0.07969 0.56375 0.55315 0.0
C506 C 0.10185 0.57435 0.52637 0.0
H507 H 0.1955 0.61636 0.31117 0.0
H508 H 0.15959 0.61664 0.37343 0.0
H509 H 0.15602 0.59238 0.57311 0.0
H510 H 0.05931 0.52419 0.66278 0.0
H511 H 0.09496 0.54476 0.62661 0.0
C512 C 0.93097 0.78274 0.94765 0.0
C513 C 0.91176 0.78646 0.98773 0.0
C514 C 0.94154 0.80079 0.91111 0.0
C515 C 0.95165 0.84413 0.8208 0.0
H516 H 0.97315 0.89565 0.93785 0.0
C517 C 0.98009 0.93841 0.74765 0.0
C518 C 0.00056 0.9491 0.77307 0.0
C519 C 0.97143 0.91627 0.76623 0.0
C520 C 0.96746 0.8813 0.90476 0.0
H521 H 0.88728 0.81124 0.01545 0.0
H522 H 0.90631 0.84293 0.95342 0.0
H523 H 0.95145 0.86116 0.98107 0.0
H524 H 0.0281 0.94507 0.83766 0.0
H525 H 0.01234 0.90645 0.87254 0.0
H526 H 0.96691 0.86481 0.74413 0.0
C527 C 0.91312 0.82607 0.95071 0.0
C528 C 0.9549 0.86174 0.92932 0.0
C529 C 0.90233 0.80797 0.98627 0.0
C530 C 0.01236 0.93714 0.81712 0.0
C531 C 0.00339 0.91513 0.83695 0.0
C532 C 0.96383 0.86399 0.79597 0.0
C533 C 0.93322 0.82283 0.91471 0.0
C534 C 0.94677 0.84312 0.88754 0.0
C535 C 0.98275 0.90464 0.81197 0.0
C536 C 0.97175 0.88274 0.83784 0.0
H537 H 0.93882 0.76649 0.94798 0.0
H538 H 0.95708 0.79801 0.88362 0.0
H539 H 0.94556 0.82987 0.78793 0.0
H540 H 0.97032 0.94743 0.71489 0.0
H541 H 0.9553 0.90871 0.74716 0.0
C542 C 0.6936 0.00209 0.04655 0.0
C543 C 0.69909 0.01738 0.09984 0.0
C544 C 0.67417 0.00447 0.01091 0.0
C545 C 0.63513 0.04748 0.97153 0.0
H546 H 0.59303 0.9936 0.92673 0.0
C547 C 0.56265 0.04991 0.791 0.0
C548 C 0.54147 0.03804 0.80731 0.0
C549 C 0.58161 0.04799 0.82867 0.0
C550 C 0.60458 0.0088 0.93932 0.0
H551 H 0.68898 0.04741 0.1568 0.0
H552 H 0.65515 0.05154 0.09473 0.0
H553 H 0.62721 0.98853 0.9873 0.0
H554 H 0.52287 0.01654 0.87795 0.0
H555 H 0.55622 0.0127 0.94363 0.0
H556 H 0.61255 0.06778 0.92382 0.0
C557 C 0.66577 0.03773 0.0805 0.0
C558 C 0.62423 0.00587 0.97328 0.0
C559 C 0.68501 0.03523 0.11632 0.0
C560 C 0.53925 0.02519 0.86353 0.0
C561 C 0.55826 0.02308 0.90101 0.0
C562 C 0.61562 0.05039 0.93717 0.0
C563 C 0.66012 0.02236 0.02755 0.0
C564 C 0.63963 0.02521 0.98991 0.0
C565 C 0.57969 0.03419 0.88333 0.0
C566 C 0.60014 0.0311 0.92087 0.0
H567 H 0.70414 0.98813 0.03307 0.0
H568 H 0.67026 0.9925 0.96997 0.0
H569 H 0.64681 0.06266 0.9833 0.0
H570 H 0.56481 0.05986 0.7476 0.0
H571 H 0.59794 0.05663 0.8137 0.0
C572 C 0.57647 0.72266 0.01508 0.0
C573 C 0.59527 0.71827 0.05185 0.0
C574 C 0.56534 0.70485 0.97625 0.0
C575 C 0.55757 0.66125 0.87403 0.0
H576 H 0.52831 0.6118 0.97801 0.0
C577 C 0.53028 0.56743 0.7796 0.0
C578 C 0.50833 0.55762 0.79725 0.0
C579 C 0.53855 0.58936 0.80455 0.0
C580 C 0.53614 0.62562 0.94852 0.0
H581 H 0.61813 0.69222 0.0724 0.0
H582 H 0.59801 0.66097 0.00661 0.0
H583 H 0.54908 0.64595 0.03112 0.0
H584 H 0.4778 0.56291 0.85502 0.0
H585 H 0.49276 0.6012 0.90123 0.0
H586 H 0.54555 0.64033 0.79117 0.0
C587 C 0.59203 0.67822 0.00815 0.0
C588 C 0.54812 0.64497 0.97876 0.0
C589 C 0.60341 0.69606 0.04597 0.0
C590 C 0.49474 0.57017 0.84045 0.0
C591 C 0.50325 0.59198 0.86671 0.0
C592 C 0.54595 0.64162 0.84361 0.0
C593 C 0.57265 0.68238 0.97432 0.0
C594 C 0.55908 0.66275 0.94169 0.0
C595 C 0.52526 0.60167 0.84903 0.0
C596 C 0.53532 0.62358 0.88069 0.0
H597 H 0.56954 0.73943 0.01894 0.0
H598 H 0.55033 0.7083 0.95047 0.0
H599 H 0.56595 0.67486 0.84481 0.0
H600 H 0.54134 0.55794 0.74751 0.0
H601 H 0.55571 0.59629 0.7911 0.0
C602 C 0.7975 0.42498 0.94434 0.0
C603 C 0.79294 0.41003 0.99592 0.0
C604 C 0.81762 0.42425 0.90707 0.0
C605 C 0.86116 0.41897 0.8283 0.0
H606 H 0.91199 0.41524 0.94134 0.0
C607 C 0.95534 0.44422 0.74767 0.0
C608 C 0.96793 0.45859 0.79306 0.0
C609 C 0.93397 0.43315 0.7651 0.0
C610 C 0.898 0.4163 0.90903 0.0
H611 H 0.80446 0.38099 0.04482 0.0
H612 H 0.83929 0.37908 0.9783 0.0
H613 H 0.87348 0.40402 0.98051 0.0
H614 H 0.96851 0.47238 0.89228 0.0
H615 H 0.93132 0.45332 0.92277 0.0
H616 H 0.88585 0.43283 0.75843 0.0
C617 C 0.82775 0.39191 0.96788 0.0
C618 C 0.87586 0.4095 0.93111 0.0
C619 C 0.80775 0.39286 0.00567 0.0
C620 C 0.95915 0.46131 0.85643 0.0
C621 C 0.93789 0.45027 0.87392 0.0
C622 C 0.88338 0.42592 0.80629 0.0
C623 C 0.8335 0.40839 0.92034 0.0
C624 C 0.85707 0.41141 0.89182 0.0
C625 C 0.92499 0.43613 0.82846 0.0
C626 C 0.90195 0.42539 0.84732 0.0
H627 H 0.78646 0.43853 0.93618 0.0
H628 H 0.82148 0.43734 0.87136 0.0
H629 H 0.84713 0.42033 0.79638 0.0
H630 H 0.9621 0.44138 0.69897 0.0
H631 H 0.92455 0.42217 0.72921 0.0
C632 C 0.09513 0.23651 0.09629 0.0
C633 C 0.11118 0.23091 0.14057 0.0
C634 C 0.09048 0.22202 0.04117 0.0
C635 C 0.10777 0.16873 0.94824 0.0
H636 H 0.04229 0.1536 0.93973 0.0
C637 C 0.06585 0.07859 0.85901 0.0
C638 C 0.04637 0.07816 0.82131 0.0
C639 C 0.07566 0.09972 0.88638 0.0
C640 C 0.06062 0.15781 0.94056 0.0
H641 H 0.13685 0.20757 0.15845 0.0
H642 H 0.12859 0.18215 0.0635 0.0
H643 H 0.05725 0.18783 0.00303 0.0
H644 H 0.02214 0.09933 0.78112 0.0
H645 H 0.03914 0.13614 0.82912 0.0
H646 H 0.11094 0.13785 0.888 0.0
C647 C 0.11954 0.19761 0.07049 0.0
C648 C 0.06924 0.17758 0.97661 0.0
C649 C 0.12423 0.21213 0.12524 0.0
C650 C 0.03704 0.09916 0.81062 0.0
C651 C 0.04676 0.12023 0.83808 0.0
C652 C 0.09911 0.14882 0.91246 0.0
C653 C 0.10177 0.20167 0.02965 0.0
C654 C 0.09293 0.18304 0.98213 0.0
C655 C 0.06608 0.12074 0.87663 0.0
C656 C 0.07544 0.14291 0.90937 0.0
H657 H 0.08482 0.25089 0.10696 0.0
H658 H 0.07706 0.22597 0.0098 0.0
H659 H 0.1261 0.17258 0.9507 0.0
H660 H 0.07342 0.06262 0.86767 0.0
H661 H 0.09038 0.09953 0.9165 0.0
C662 C 0.28366 0.9962 0.03949 0.0
C663 C 0.28411 0.97774 0.08123 0.0
C664 C 0.2966 0.99631 0.98146 0.0
C665 C 0.33688 0.96143 0.88049 0.0
H666 H 0.37185 0.02175 0.87046 0.0
C667 C 0.43251 0.97479 0.80798 0.0
C668 C 0.43958 0.99276 0.76599 0.0
C669 C 0.40983 0.97173 0.83058 0.0
C670 C 0.36204 0.00488 0.87182 0.0
H671 H 0.29647 0.94409 0.09345 0.0
H672 H 0.31919 0.94426 0.99378 0.0
H673 H 0.33656 0.01827 0.93458 0.0
H674 H 0.42826 0.02128 0.71366 0.0
H675 H 0.38888 0.01624 0.75463 0.0
H676 H 0.36361 0.94792 0.82138 0.0
C677 C 0.30877 0.95855 0.00401 0.0
C678 C 0.34163 0.00286 0.90823 0.0
C679 C 0.29573 0.95839 0.06142 0.0
C680 C 0.42341 0.00731 0.74617 0.0
C681 C 0.40086 0.00446 0.76955 0.0
C682 C 0.35753 0.96341 0.84498 0.0
C683 C 0.31041 0.9781 0.965 0.0
C684 C 0.32913 0.98096 0.91486 0.0
C685 C 0.39389 0.98676 0.81232 0.0
C686 C 0.37059 0.98504 0.84186 0.0
H687 H 0.27495 0.01139 0.05428 0.0
H688 H 0.29699 0.01139 0.95183 0.0
H689 H 0.3275 0.94439 0.88314 0.0
H690 H 0.44449 0.96317 0.82369 0.0
H691 H 0.40493 0.95808 0.86407 0.0
C692 C 0.3858 0.2834 0.06251 0.0
C693 C 0.40479 0.27213 0.07897 0.0
C694 C 0.38748 0.29882 0.01186 0.0
C695 C 0.40293 0.34538 0.95733 0.0
H696 H 0.44651 0.34532 0.81307 0.0
C697 C 0.44875 0.43026 0.86398 0.0
C698 C 0.45456 0.43163 0.7979 0.0
C699 C 0.43898 0.40929 0.88858 0.0
C700 C 0.43398 0.34559 0.85246 0.0
H701 H 0.4398 0.26668 0.05349 0.0
H702 H 0.44304 0.29381 0.96594 0.0
H703 H 0.43467 0.30901 0.86592 0.0
H704 H 0.45419 0.41252 0.70512 0.0
H705 H 0.43667 0.37597 0.74775 0.0
H706 H 0.40218 0.38187 0.94392 0.0
C707 C 0.42663 0.29052 0.99053 0.0
C708 C 0.42737 0.32477 0.88325 0.0
C709 C 0.42482 0.27486 0.04062 0.0
C710 C 0.44994 0.41186 0.75644 0.0
C711 C 0.44003 0.39091 0.78093 0.0
C712 C 0.40939 0.3661 0.92627 0.0
C713 C 0.40836 0.30365 0.97784 0.0
C714 C 0.41226 0.32452 0.93734 0.0
C715 C 0.43464 0.38928 0.84747 0.0
C716 C 0.42554 0.36665 0.87477 0.0
H717 H 0.37029 0.28172 0.09216 0.0
H718 H 0.37288 0.30815 0.00238 0.0
H719 H 0.3915 0.34608 -0.00077 0.0
H720 H 0.45224 0.44524 0.89698 0.0
H721 H 0.43546 0.40863 0.94023 0.0
C722 C 0.23409 0.54462 0.12899 0.0
C723 C 0.23451 0.5681 0.15056 0.0
C724 C 0.22125 0.53643 0.07522 0.0
C725 C 0.18701 0.55493 0.94013 0.0
H726 H 0.14553 0.50142 0.98555 0.0
C727 C 0.09688 0.5375 0.83715 0.0
C728 C 0.0878 0.51436 0.82494 0.0
C729 C 0.11808 0.5423 0.86606 0.0
C730 C 0.15719 0.51609 0.97122 0.0
H731 H 0.22367 0.60183 0.13018 0.0
H732 H 0.20151 0.58774 0.03636 0.0
H733 H 0.1786 0.5128 0.05148 0.0
H734 H 0.09391 0.47806 0.83167 0.0
H735 H 0.13106 0.48639 0.88199 0.0
H736 H 0.16507 0.55867 0.8611 0.0
C737 C 0.21101 0.57554 0.06033 0.0
C738 C 0.17625 0.5226 0.00902 0.0
C739 C 0.22369 0.58366 0.11414 0.0
C740 C 0.10048 0.49607 0.841 0.0
C741 C 0.12171 0.50086 0.86996 0.0
C742 C 0.16795 0.54841 0.90226 0.0
C743 C 0.20875 0.55164 0.04205 0.0
C744 C 0.19106 0.54246 0.99499 0.0
C745 C 0.13069 0.52405 0.88334 0.0
C746 C 0.15247 0.52928 0.91839 0.0
H747 H 0.24213 0.53227 0.1567 0.0
H748 H 0.22011 0.51797 0.06177 0.0
H749 H 0.19825 0.57014 0.92749 0.0
H750 H 0.08746 0.55193 0.82511 0.0
H751 H 0.12428 0.56035 0.87651 0.0
C752 C 0.91224 0.77212 0.26186 0.0
C753 C 0.89439 0.77341 0.21902 0.0
C754 C 0.91513 0.78824 0.31434 0.0
C755 C 0.90506 0.849 0.34485 0.0
H756 H 0.93272 0.84213 0.50997 0.0
C757 C 0.93658 0.92941 0.50393 0.0
C758 C 0.95769 0.92861 0.53306 0.0
C759 C 0.92542 0.90922 0.47521 0.0
C760 C 0.92511 0.84433 0.46382 0.0
H761 H 0.86415 0.79048 0.20084 0.0
H762 H 0.86876 0.81821 0.29346 0.0
H763 H 0.91782 0.80738 0.44671 0.0
H764 H 0.98364 0.90622 0.55604 0.0
H765 H 0.96461 0.87111 0.50402 0.0
H766 H 0.91317 0.88569 0.35983 0.0
C767 C 0.88084 0.80522 0.28592 0.0
C768 C 0.91648 0.82443 0.42785 0.0
C769 C 0.87805 0.78924 0.23337 0.0
C770 C 0.96739 0.90729 0.53362 0.0
C771 C 0.95634 0.88713 0.50446 0.0
C772 C 0.91378 0.8688 0.38045 0.0
C773 C 0.90015 0.80578 0.32459 0.0
C774 C 0.90663 0.82656 0.36754 0.0
C775 C 0.93526 0.88786 0.47457 0.0
C776 C 0.92424 0.86674 0.4399 0.0
H777 H 0.92517 0.76021 0.25122 0.0
H778 H 0.9302 0.78824 0.34315 0.0
H779 H 0.89807 0.85127 0.29787 0.0
H780 H 0.92864 0.94562 0.50358 0.0
H781 H 0.90906 0.91037 0.45355 0.0
C782 C 0.72421 0.99855 0.34991 0.0
C783 C 0.73278 0.0181 0.31558 0.0
C784 C 0.71114 0.0014 0.40686 0.0
C785 C 0.66875 0.03918 0.45299 0.0
H786 H 0.66024 0.00422 0.60914 0.0
C787 C 0.58364 0.03745 0.59605 0.0
C788 C 0.57541 0.01623 0.62274 0.0
C789 C 0.60623 0.04096 0.57317 0.0
C790 C 0.66223 0.01397 0.56542 0.0
H791 H 0.7366 0.05581 0.3162 0.0
H792 H 0.71387 0.06086 0.41592 0.0
H793 H 0.69624 0.00417 0.54693 0.0
H794 H 0.58428 0.98215 0.64765 0.0
H795 H 0.62313 0.98753 0.60401 0.0
H796 H 0.63446 0.04745 0.46708 0.0
C797 C 0.71725 0.0434 0.39923 0.0
C798 C 0.68298 0.01413 0.53035 0.0
C799 C 0.73044 0.04053 0.34264 0.0
C800 C 0.59023 0.99871 0.6272 0.0
C801 C 0.61264 0.00194 0.60277 0.0
C802 C 0.64793 0.03863 0.48704 0.0
C803 C 0.70629 0.02384 0.4294 0.0
C804 C 0.68628 0.02649 0.4733 0.0
C805 C 0.62094 0.02304 0.57475 0.0
C806 C 0.64415 0.02567 0.54313 0.0
H807 H 0.72545 0.98111 0.32902 0.0
H808 H 0.70278 0.98603 0.42892 0.0
H809 H 0.67061 0.04843 0.40832 0.0
H810 H 0.57265 0.05143 0.59336 0.0
H811 H 0.61205 0.0577 0.55377 0.0
C812 C 0.60189 0.73709 0.32528 0.0
C813 C 0.61915 0.73565 0.27743 0.0
C814 C 0.59992 0.72143 0.3755 0.0
C815 C 0.61088 0.66101 0.39058 0.0
H816 H 0.58465 0.66852 0.56362 0.0
C817 C 0.57906 0.58084 0.53545 0.0
C818 C 0.55807 0.58199 0.56876 0.0
C819 C 0.59066 0.60098 0.51064 0.0
C820 C 0.59188 0.66613 0.51526 0.0
H821 H 0.64927 0.71875 0.24767 0.0
H822 H 0.64633 0.69188 0.33636 0.0
H823 H 0.59893 0.70304 0.50458 0.0
H824 H 0.53292 0.60497 0.60384 0.0
H825 H 0.55266 0.63995 0.5587 0.0
H826 H 0.60287 0.62438 0.39918 0.0
C827 C 0.63402 0.70467 0.33465 0.0
C828 C 0.60017 0.6859 0.48166 0.0
C829 C 0.63589 0.7202 0.28439 0.0
C830 C 0.54907 0.60363 0.57809 0.0
C831 C 0.56054 0.62372 0.5528 0.0
C832 C 0.60248 0.64133 0.42382 0.0
C833 C 0.61522 0.70416 0.37833 0.0
C834 C 0.60943 0.68355 0.41851 0.0
C835 C 0.58137 0.62262 0.5181 0.0
C836 C 0.59248 0.6436 0.48611 0.0
H837 H 0.58862 0.74865 0.3202 0.0
H838 H 0.58521 0.72146 0.40824 0.0
H839 H 0.61742 0.65854 0.34145 0.0
H840 H 0.58647 0.56438 0.52828 0.0
H841 H 0.60685 0.59952 0.48519 0.0
C842 C 0.7863 0.41834 0.25587 0.0
C843 C 0.77538 0.43465 0.22234 0.0
C844 C 0.79934 0.42542 0.30986 0.0
C845 C 0.83466 0.47684 0.36895 0.0
H846 H 0.84261 0.43924 0.51627 0.0
C847 C 0.90743 0.50162 0.54738 0.0
C848 C 0.91932 0.48319 0.5666 0.0
C849 C 0.88677 0.49708 0.51535 0.0
C850 C 0.8407 0.44989 0.47522 0.0
H851 H 0.76831 0.47082 0.2212 0.0
H852 H 0.7911 0.48329 0.3161 0.0
H853 H 0.81063 0.42879 0.44464 0.0
H854 H 0.91877 0.44559 0.56907 0.0
H855 H 0.88304 0.43756 0.5118 0.0
H856 H 0.86516 0.49734 0.39744 0.0
C857 C 0.78966 0.46504 0.30032 0.0
C858 C 0.8223 0.44395 0.43439 0.0
C859 C 0.77642 0.45788 0.24651 0.0
C860 C 0.90994 0.46013 0.55467 0.0
C861 C 0.88935 0.45556 0.52231 0.0
C862 C 0.8531 0.48269 0.4095 0.0
C863 C 0.80191 0.44902 0.33118 0.0
C864 C 0.81932 0.4571 0.38005 0.0
C865 C 0.87761 0.47397 0.50151 0.0
C866 C 0.85665 0.46903 0.46245 0.0
H867 H 0.78578 0.40032 0.23804 0.0
H868 H 0.80865 0.41266 0.33211 0.0
H869 H 0.83311 0.48712 0.32693 0.0
H870 H 0.91422 0.51958 0.55648 0.0
H871 H 0.87805 0.5117 0.50107 0.0
loop_
_geom_bond_atom_site_label_1
_geom_bond_atom_site_label_2
_geom_bond_distance
_geom_bond_site_symmetry_2
_ccdc_geom_bond_type
H0 C3 0.931 . S
H1 C6 0.928 . S
H2 C8 0.930 . S
C3 H0 0.931 . S
C3 C4 1.413 . S
C3 C5 1.360 . S
C4 C3 1.413 . S
C4 C8 1.429 . S
C5 C3 1.360 . S
C5 C6 1.372 1_554 S
C6 H1 0.928 . S
C6 C5 1.372 1_556 S
C6 C7 1.404 1_556 S
C7 C6 1.404 1_554 S
C7 C8 1.391 . S
C8 H2 0.930 . S
C8 C4 1.429 . S
C8 C7 1.391 . S
H9 C12 0.931 . S
H10 C15 0.928 . S
H11 C17 0.930 . S
C12 H9 0.931 . S
C12 C13 1.413 . S
C12 C14 1.360 1_554 S
C13 C12 1.413 . S
C13 C17 1.429 . S
C14 C12 1.360 1_556 S
C14 C15 1.372 . S
C15 H10 0.928 . S
C15 C14 1.372 . S
C15 C16 1.404 1_556 S
C16 C15 1.404 1_554 S
C16 C17 1.391 . S
C17 H11 0.930 . S
C17 C13 1.429 . S
C17 C16 1.391 . S
H18 C21 0.931 . S
H19 C24 0.928 1_556 S
H20 C26 0.932 . S
C21 H18 0.931 . S
C21 C22 1.414 . S
C21 C23 1.360 . S
C22 C21 1.414 . S
C22 C26 1.430 1_565 S
C23 C21 1.360 . S
C23 C24 1.374 . S
C24 H19 0.928 1_554 S
C24 C23 1.374 . S
C24 C25 1.403 . S
C25 C24 1.403 . S
C25 C26 1.391 1_565 S
C26 H20 0.932 . S
C26 C22 1.430 1_545 S
C26 C25 1.391 1_545 S
H27 C30 0.931 . S
H28 C33 0.928 . S
H29 C35 0.930 1_556 S
C30 H27 0.931 . S
C30 C31 1.413 . S
C30 C32 1.360 . S
C31 C30 1.413 . S
C31 C35 1.429 . S
C32 C30 1.360 . S
C32 C33 1.372 . S
C33 H28 0.928 . S
C33 C32 1.372 . S
C33 C34 1.404 . S
C34 C33 1.404 . S
C34 C35 1.391 . S
C35 H29 0.930 1_554 S
C35 C31 1.429 . S
C35 C34 1.391 . S
H36 C39 0.931 . S
H37 C42 0.928 . S
H38 C44 0.930 . S
C39 H36 0.931 . S
C39 C40 1.413 . S
C39 C41 1.360 . S
C40 C39 1.413 . S
C40 C44 1.429 . S
C41 C39 1.360 . S
C41 C42 1.372 . S
C42 H37 0.928 . S
C42 C41 1.372 . S
C42 C43 1.404 . S
C43 C42 1.404 . S
C43 C44 1.391 . S
C44 H38 0.930 . S
C44 C40 1.429 . S
C44 C43 1.391 . S
H45 C48 0.931 . S
H46 C51 0.928 . S
H47 C53 0.930 . S
C48 H45 0.931 . S
C48 C49 1.413 . S
C48 C50 1.360 . S
C49 C48 1.413 . S
C49 C53 1.429 . S
C50 C48 1.360 . S
C50 C51 1.372 . S
C51 H46 0.928 . S
C51 C50 1.372 . S
C51 C52 1.404 . S
C52 C51 1.404 . S
C52 C53 1.391 . S
C53 H47 0.930 . S
C53 C49 1.429 . S
C53 C52 1.391 . S
H54 C57 0.931 . S
H55 C60 0.928 . S
H56 C62 0.930 . S
C57 H54 0.931 . S
C57 C58 1.413 . S
C57 C59 1.360 . S
C58 C57 1.413 . S
C58 C62 1.429 . S
C59 C57 1.360 . S
C59 C60 1.372 . S
C60 H55 0.928 . S
C60 C59 1.372 . S
C60 C61 1.404 . S
C61 C60 1.404 . S
C61 C62 1.391 . S
C62 H56 0.930 . S
C62 C58 1.429 . S
C62 C61 1.391 . S
H63 C66 0.931 . S
H64 C69 0.928 . S
H65 C71 0.930 . S
C66 H63 0.931 . S
C66 C67 1.413 . S
C66 C68 1.360 . S
C67 C66 1.413 . S
C67 C71 1.429 . S
C68 C66 1.360 . S
C68 C69 1.372 . S
C69 H64 0.928 . S
C69 C68 1.372 . S
C69 C70 1.404 . S
C70 C69 1.404 . S
C70 C71 1.391 . S
C71 H65 0.930 . S
C71 C67 1.429 . S
C71 C70 1.391 . S
Tb72 O75 2.453 1_665 S
Tb72 O76 2.596 1_665 S
Tb72 O77 2.374 1_655 S
Tb72 O85 2.343 . S
Tb72 O87 2.353 1_565 S
Tb72 O89 2.427 . S
Tb72 O90 2.513 . S
C73 O77 1.251 . S
C73 O79 1.263 . S
Tb74 O76 2.343 . S
Tb74 O79 2.353 1_545 S
Tb74 O82 2.427 . S
Tb74 O83 2.513 . S
Tb74 O84 2.453 1_545 S
Tb74 O85 2.596 1_445 S
Tb74 O86 2.374 1_455 S
O75 Tb72 2.453 1_445 S
O75 C91 1.245 . S
O76 Tb72 2.596 1_445 S
O76 Tb74 2.343 . S
O76 C91 1.259 . S
O77 Tb72 2.374 1_455 S
O77 C73 1.251 . S
C78 O82 1.275 . S
C78 O83 1.246 . S
O79 C73 1.263 . S
O79 Tb74 2.353 1_565 S
C80 O84 1.245 1_655 S
C80 O85 1.259 . S
C81 O86 1.250 . S
C81 O87 1.263 . S
O82 Tb74 2.427 . S
O82 C78 1.275 . S
O83 Tb74 2.513 . S
O83 C78 1.246 . S
O84 Tb74 2.453 1_565 S
O84 C80 1.245 1_455 S
O85 Tb72 2.343 . S
O85 Tb74 2.596 1_665 S
O85 C80 1.259 . S
O86 Tb74 2.374 1_655 S
O86 C81 1.250 . S
O87 Tb72 2.353 1_545 S
O87 C81 1.263 . S
C88 O89 1.275 . S
C88 O90 1.246 . S
O89 Tb72 2.427 . S
O89 C88 1.275 . S
O90 Tb72 2.513 . S
O90 C88 1.246 . S
C91 O75 1.245 . S
C91 O76 1.259 . S
Tb92 O95 2.453 . S
Tb92 O96 2.576 1_545 S
Tb92 O97 2.374 . S
Tb92 O105 2.343 . S
Tb92 O107 2.353 . S
Tb92 O109 2.427 . S
Tb92 O110 2.513 . S
C93 O97 1.251 . S
C93 O99 1.263 1_545 S
Tb94 O96 2.358 . S
Tb94 O99 2.353 . S
Tb94 O102 2.427 . S
Tb94 O103 2.513 . S
Tb94 O104 2.453 . S
Tb94 O105 2.596 1_565 S
Tb94 O106 2.374 . S
O95 Tb92 2.453 . S
O95 C111 1.245 . S
O96 Tb92 2.576 1_565 S
O96 Tb94 2.358 . S
O96 C111 1.250 1_565 S
O97 Tb92 2.374 . S
O97 C93 1.251 . S
C98 O102 1.275 . S
C98 O103 1.246 . S
O99 C93 1.263 1_565 S
O99 Tb94 2.353 . S
C100 O104 1.245 . S
C100 O105 1.259 1_565 S
C101 O106 1.250 1_545 S
C101 O107 1.263 . S
O102 Tb94 2.427 . S
O102 C98 1.275 . S
O103 Tb94 2.513 . S
O103 C98 1.246 . S
O104 Tb94 2.453 . S
O104 C100 1.245 . S
O105 Tb92 2.343 . S
O105 Tb94 2.596 1_545 S
O105 C100 1.259 1_545 S
O106 Tb94 2.374 . S
O106 C101 1.250 1_565 S
O107 Tb92 2.353 . S
O107 C101 1.263 . S
C108 O109 1.275 . S
C108 O110 1.246 . S
O109 Tb92 2.427 . S
O109 C108 1.275 . S
O110 Tb92 2.513 . S
O110 C108 1.246 . S
C111 O95 1.245 . S
C111 O96 1.250 1_545 S
Tb112 O115 2.453 . S
Tb112 O116 2.596 . S
Tb112 O117 2.374 . S
Tb112 O125 2.343 . S
Tb112 O127 2.353 . S
Tb112 O129 2.427 . S
Tb112 O130 2.513 . S
C113 O117 1.251 . S
C113 O119 1.263 . S
Tb114 O116 2.343 . S
Tb114 O119 2.353 . S
Tb114 O122 2.427 . S
Tb114 O123 2.513 . S
Tb114 O124 2.453 . S
Tb114 O125 2.596 . S
Tb114 O126 2.374 . S
O115 Tb112 2.453 . S
O115 C131 1.245 . S
O116 Tb112 2.596 . S
O116 Tb114 2.343 . S
O116 C131 1.259 . S
O117 Tb112 2.374 . S
O117 C113 1.251 . S
C118 O122 1.275 . S
C118 O123 1.246 . S
O119 C113 1.263 . S
O119 Tb114 2.353 . S
C120 O124 1.245 . S
C120 O125 1.259 . S
C121 O126 1.250 . S
C121 O127 1.263 . S
O122 Tb114 2.427 . S
O122 C118 1.275 . S
O123 Tb114 2.513 . S
O123 C118 1.246 . S
O124 Tb114 2.453 . S
O124 C120 1.245 . S
O125 Tb112 2.343 . S
O125 Tb114 2.596 . S
O125 C120 1.259 . S
O126 Tb114 2.374 . S
O126 C121 1.250 . S
O127 Tb112 2.353 . S
O127 C121 1.263 . S
C128 O129 1.275 . S
C128 O130 1.246 . S
O129 Tb112 2.427 . S
O129 C128 1.275 . S
O130 Tb112 2.513 . S
O130 C128 1.246 . S
C131 O115 1.245 . S
C131 O116 1.259 . S
Tb132 O135 2.453 1_655 S
Tb132 O136 2.596 1_655 S
Tb132 O137 2.374 1_655 S
Tb132 O145 2.343 . S
Tb132 O147 2.353 . S
Tb132 O149 2.427 . S
Tb132 O150 2.513 . S
C133 O137 1.251 . S
C133 O139 1.263 . S
Tb134 O136 2.343 . S
Tb134 O139 2.353 . S
Tb134 O142 2.427 . S
Tb134 O143 2.513 . S
Tb134 O144 2.453 1_455 S
Tb134 O145 2.596 1_455 S
Tb134 O146 2.374 . S
O135 Tb132 2.453 1_455 S
O135 C151 1.245 . S
O136 Tb132 2.596 1_455 S
O136 Tb134 2.343 . S
O136 C151 1.259 . S
O137 Tb132 2.374 1_455 S
O137 C133 1.251 . S
C138 O142 1.275 . S
C138 O143 1.246 . S
O139 C133 1.263 . S
O139 Tb134 2.353 . S
C140 O144 1.245 . S
C140 O145 1.259 . S
C141 O146 1.250 1_655 S
C141 O147 1.263 . S
O142 Tb134 2.427 . S
O142 C138 1.275 . S
O143 Tb134 2.513 . S
O143 C138 1.246 . S
O144 Tb134 2.453 1_655 S
O144 C140 1.245 . S
O145 Tb132 2.343 . S
O145 Tb134 2.596 1_655 S
O145 C140 1.259 . S
O146 Tb134 2.374 . S
O146 C141 1.250 1_455 S
O147 Tb132 2.353 . S
O147 C141 1.263 . S
C148 O149 1.275 . S
C148 O150 1.246 . S
O149 Tb132 2.427 . S
O149 C148 1.275 . S
O150 Tb132 2.513 . S
O150 C148 1.246 . S
C151 O135 1.245 . S
C151 O136 1.259 . S
C152 C153 1.349 . S
C152 C154 1.327 . S
C152 H177 0.950 . S
C153 C152 1.349 . S
C153 C169 1.349 1_545 S
C154 C152 1.327 . S
C154 C173 1.429 . S
C154 H178 0.950 . S
C155 C172 1.574 . S
C155 C174 1.368 1_565 S
C155 H179 0.949 . S
H156 C160 0.949 . S
C157 C158 1.368 . S
C157 C159 1.327 . S
C157 H180 0.950 . S
C158 C157 1.368 . S
C158 C170 1.331 1_565 S
C159 C157 1.327 . S
C159 C175 1.429 1_565 S
C159 H181 0.950 . S
C160 H156 0.949 . S
C160 C168 1.574 . S
C160 C176 1.368 . S
H161 C169 0.950 . S
H162 C167 0.950 . S
H163 C168 0.949 . S
H164 C170 0.950 . S
H165 C171 0.950 . S
H166 C172 0.949 . S
C167 H162 0.950 . S
C167 C169 1.327 . S
C167 C173 1.429 1_565 S
C168 C160 1.574 . S
C168 H163 0.949 . S
C168 C174 1.368 . S
C169 C153 1.349 1_565 S
C169 H161 0.950 . S
C169 C167 1.327 . S
C170 C158 1.331 1_545 S
C170 H164 0.950 . S
C170 C171 1.327 . S
C171 H165 0.950 . S
C171 C170 1.327 . S
C171 C175 1.429 . S
C172 C155 1.574 . S
C172 H166 0.949 . S
C172 C176 1.368 1_565 S
C173 C154 1.429 . S
C173 C167 1.429 1_545 S
C173 C174 1.523 . S
C174 C155 1.368 1_545 S
C174 C168 1.368 . S
C174 C173 1.523 . S
C175 C159 1.429 1_545 S
C175 C171 1.429 . S
C175 C176 1.523 . S
C176 C160 1.368 . S
C176 C172 1.368 1_545 S
C176 C175 1.523 . S
H177 C152 0.950 . S
H178 C154 0.950 . S
H179 C155 0.949 . S
H180 C157 0.950 . S
H181 C159 0.950 . S
C182 C183 1.349 . S
C182 C184 1.327 . S
C182 H207 0.950 . S
C183 C182 1.349 . S
C183 C199 1.349 . S
C184 C182 1.327 . S
C184 C203 1.429 . S
C184 H208 0.950 . S
C185 C202 1.574 . S
C185 C204 1.368 . S
C185 H209 0.949 . S
H186 C190 0.949 . S
C187 C188 1.349 . S
C187 C189 1.327 . S
C187 H210 0.950 . S
C188 C187 1.349 . S
C188 C200 1.349 . S
C189 C187 1.327 . S
C189 C205 1.429 . S
C189 H211 0.950 . S
C190 H186 0.949 . S
C190 C198 1.574 . S
C190 C206 1.368 . S
H191 C199 0.950 . S
H192 C197 0.950 . S
H193 C198 0.949 . S
H194 C200 0.950 . S
H195 C201 0.950 . S
H196 C202 0.949 . S
C197 H192 0.950 . S
C197 C199 1.327 . S
C197 C203 1.429 . S
C198 C190 1.574 . S
C198 H193 0.949 . S
C198 C204 1.368 . S
C199 C183 1.349 . S
C199 H191 0.950 . S
C199 C197 1.327 . S
C200 C188 1.349 . S
C200 H194 0.950 . S
C200 C201 1.327 . S
C201 H195 0.950 . S
C201 C200 1.327 . S
C201 C205 1.429 . S
C202 C185 1.574 . S
C202 H196 0.949 . S
C202 C206 1.368 . S
C203 C184 1.429 . S
C203 C197 1.429 . S
C203 C204 1.523 . S
C204 C185 1.368 . S
C204 C198 1.368 . S
C204 C203 1.523 . S
C205 C189 1.429 . S
C205 C201 1.429 . S
C205 C206 1.523 . S
C206 C190 1.368 . S
C206 C202 1.368 . S
C206 C205 1.523 . S
H207 C182 0.950 . S
H208 C184 0.950 . S
H209 C185 0.949 . S
H210 C187 0.950 . S
H211 C189 0.950 . S
C212 C213 1.349 . S
C212 C214 1.327 . S
C212 H237 0.950 . S
C213 C212 1.349 . S
C213 C229 1.349 . S
C214 C212 1.327 . S
C214 C233 1.429 . S
C214 H238 0.950 . S
C215 C232 1.574 . S
C215 C234 1.368 . S
C215 H239 0.949 . S
H216 C220 0.949 . S
C217 C218 1.349 . S
C217 C219 1.327 . S
C217 H240 0.950 . S
C218 C217 1.349 . S
C218 C230 1.349 . S
C219 C217 1.327 . S
C219 C235 1.429 . S
C219 H241 0.950 . S
C220 H216 0.949 . S
C220 C228 1.574 . S
C220 C236 1.368 . S
H221 C229 0.950 . S
H222 C227 0.950 . S
H223 C228 0.949 . S
H224 C230 0.950 . S
H225 C231 0.950 . S
H226 C232 0.949 . S
C227 H222 0.950 . S
C227 C229 1.327 . S
C227 C233 1.429 . S
C228 C220 1.574 . S
C228 H223 0.949 . S
C228 C234 1.368 . S
C229 C213 1.349 . S
C229 H221 0.950 . S
C229 C227 1.327 . S
C230 C218 1.349 . S
C230 H224 0.950 . S
C230 C231 1.327 . S
C231 H225 0.950 . S
C231 C230 1.327 . S
C231 C235 1.429 . S
C232 C215 1.574 . S
C232 H226 0.949 . S
C232 C236 1.368 . S
C233 C214 1.429 . S
C233 C227 1.429 . S
C233 C234 1.523 . S
C234 C215 1.368 . S
C234 C228 1.368 . S
C234 C233 1.523 . S
C235 C219 1.429 . S
C235 C231 1.429 . S
C235 C236 1.523 . S
C236 C220 1.368 . S
C236 C232 1.368 . S
C236 C235 1.523 . S
H237 C212 0.950 . S
H238 C214 0.950 . S
H239 C215 0.949 . S
H240 C217 0.950 . S
H241 C219 0.950 . S
C242 C243 1.349 . S
C242 C244 1.327 . S
C242 H267 0.950 . S
C243 C242 1.349 . S
C243 C259 1.349 . S
C244 C242 1.327 . S
C244 C263 1.429 . S
C244 H268 0.950 . S
C245 C262 1.574 . S
C245 C264 1.368 . S
C245 H269 0.949 . S
H246 C250 0.949 . S
C247 C248 1.349 . S
C247 C249 1.327 . S
C247 H270 0.950 . S
C248 C247 1.349 . S
C248 C260 1.349 . S
C249 C247 1.327 . S
C249 C265 1.429 . S
C249 H271 0.950 . S
C250 H246 0.949 . S
C250 C258 1.574 . S
C250 C266 1.368 . S
H251 C259 0.950 . S
H252 C257 0.950 . S
H253 C258 0.949 . S
H254 C260 0.950 . S
H255 C261 0.950 . S
H256 C262 0.949 . S
C257 H252 0.950 . S
C257 C259 1.327 . S
C257 C263 1.429 . S
C258 C250 1.574 . S
C258 H253 0.949 . S
C258 C264 1.368 . S
C259 C243 1.349 . S
C259 H251 0.950 . S
C259 C257 1.327 . S
C260 C248 1.349 . S
C260 H254 0.950 . S
C260 C261 1.327 . S
C261 H255 0.950 . S
C261 C260 1.327 . S
C261 C265 1.429 . S
C262 C245 1.574 . S
C262 H256 0.949 . S
C262 C266 1.368 . S
C263 C244 1.429 . S
C263 C257 1.429 . S
C263 C264 1.523 . S
C264 C245 1.368 . S
C264 C258 1.368 . S
C264 C263 1.523 . S
C265 C249 1.429 . S
C265 C261 1.429 . S
C265 C266 1.523 . S
C266 C250 1.368 . S
C266 C262 1.368 . S
C266 C265 1.523 . S
H267 C242 0.950 . S
H268 C244 0.950 . S
H269 C245 0.949 . S
H270 C247 0.950 . S
H271 C249 0.950 . S
C272 C273 1.337 1_565 S
C272 C274 1.327 1_554 S
C272 H297 0.950 . S
C273 C272 1.337 1_545 S
C273 C289 1.361 . S
C274 C272 1.327 1_556 S
C274 C293 1.429 1_565 S
C274 H298 0.950 . S
C275 C292 1.574 . S
C275 C294 1.368 . S
C275 H299 0.949 . S
H276 C280 0.949 . S
C277 C278 1.349 . S
C277 C279 1.327 . S
C277 H300 0.950 . S
C278 C277 1.349 . S
C278 C290 1.349 1_545 S
C279 C277 1.327 . S
C279 C295 1.429 . S
C279 H301 0.950 . S
C280 H276 0.949 . S
C280 C288 1.574 . S
C280 C296 1.368 1_565 S
H281 C289 0.950 . S
H282 C287 0.950 . S
H283 C288 0.949 . S
H284 C290 0.950 . S
H285 C291 0.950 . S
H286 C292 0.949 . S
C287 H282 0.950 . S
C287 C289 1.327 . S
C287 C293 1.429 1_554 S
C288 C280 1.574 . S
C288 H283 0.949 . S
C288 C294 1.368 1_565 S
C289 C273 1.361 . S
C289 H281 0.950 . S
C289 C287 1.327 . S
C290 C278 1.349 1_565 S
C290 H284 0.950 . S
C290 C291 1.327 . S
C291 H285 0.950 . S
C291 C290 1.327 . S
C291 C295 1.429 1_565 S
C292 C275 1.574 . S
C292 H286 0.949 . S
C292 C296 1.368 . S
C293 C274 1.429 1_545 S
C293 C287 1.429 1_556 S
C293 C294 1.523 . S
C294 C275 1.368 . S
C294 C288 1.368 1_545 S
C294 C293 1.523 . S
C295 C279 1.429 . S
C295 C291 1.429 1_545 S
C295 C296 1.523 . S
C296 C280 1.368 1_545 S
C296 C292 1.368 . S
C296 C295 1.523 . S
H297 C272 0.950 . S
H298 C274 0.950 . S
H299 C275 0.949 . S
H300 C277 0.950 . S
H301 C279 0.950 . S
C302 C303 1.354 . S
C302 C304 1.323 1_554 S
C302 H327 0.949 1_554 S
C303 C302 1.354 . S
C303 C319 1.349 . S
C304 C302 1.323 1_556 S
C304 C323 1.429 . S
C304 H328 0.950 . S
C305 C322 1.574 . S
C305 C324 1.368 . S
C305 H329 0.949 . S
H306 C310 0.949 . S
C307 C308 1.349 . S
C307 C309 1.327 . S
C307 H330 0.950 . S
C308 C307 1.349 . S
C308 C320 1.349 . S
C309 C307 1.327 . S
C309 C325 1.429 . S
C309 H331 0.950 . S
C310 H306 0.949 . S
C310 C318 1.574 . S
C310 C326 1.368 . S
H311 C319 0.950 . S
H312 C317 0.950 . S
H313 C318 0.949 . S
H314 C320 0.950 . S
H315 C321 0.950 . S
H316 C322 0.949 . S
C317 H312 0.950 . S
C317 C319 1.327 . S
C317 C323 1.429 1_554 S
C318 C310 1.574 . S
C318 H313 0.949 . S
C318 C324 1.368 . S
C319 C303 1.349 . S
C319 H311 0.950 . S
C319 C317 1.327 . S
C320 C308 1.349 . S
C320 H314 0.950 . S
C320 C321 1.327 . S
C321 H315 0.950 . S
C321 C320 1.327 . S
C321 C325 1.429 . S
C322 C305 1.574 . S
C322 H316 0.949 . S
C322 C326 1.368 . S
C323 C304 1.429 . S
C323 C317 1.429 1_556 S
C323 C324 1.523 . S
C324 C305 1.368 . S
C324 C318 1.368 . S
C324 C323 1.523 . S
C325 C309 1.429 . S
C325 C321 1.429 . S
C325 C326 1.523 . S
C326 C310 1.368 . S
C326 C322 1.368 . S
C326 C325 1.523 . S
H327 C302 0.949 1_556 S
H328 C304 0.950 . S
H329 C305 0.949 . S
H330 C307 0.950 . S
H331 C309 0.950 . S
C332 C333 1.349 . S
C332 C334 1.327 1_554 S
C332 H357 0.950 . S
C333 C332 1.349 . S
C333 C349 1.349 1_554 S
C334 C332 1.327 1_556 S
C334 C353 1.429 . S
C334 H358 0.950 . S
C335 C352 1.574 . S
C335 C354 1.368 . S
C335 H359 0.949 . S
H336 C340 0.949 . S
C337 C338 1.349 . S
C337 C339 1.327 . S
C337 H360 0.950 . S
C338 C337 1.349 . S
C338 C350 1.349 . S
C339 C337 1.327 . S
C339 C355 1.429 . S
C339 H361 0.950 . S
C340 H336 0.949 . S
C340 C348 1.574 . S
C340 C356 1.368 . S
H341 C349 0.950 . S
H342 C347 0.950 . S
H343 C348 0.949 . S
H344 C350 0.950 . S
H345 C351 0.950 . S
H346 C352 0.949 . S
C347 H342 0.950 . S
C347 C349 1.327 . S
C347 C353 1.429 . S
C348 C340 1.574 . S
C348 H343 0.949 . S
C348 C354 1.368 . S
C349 C333 1.349 1_556 S
C349 H341 0.950 . S
C349 C347 1.327 . S
C350 C338 1.349 . S
C350 H344 0.950 . S
C350 C351 1.327 . S
C351 H345 0.950 . S
C351 C350 1.327 . S
C351 C355 1.429 . S
C352 C335 1.574 . S
C352 H346 0.949 . S
C352 C356 1.368 . S
C353 C334 1.429 . S
C353 C347 1.429 . S
C353 C354 1.523 . S
C354 C335 1.368 . S
C354 C348 1.368 . S
C354 C353 1.523 . S
C355 C339 1.429 . S
C355 C351 1.429 . S
C355 C356 1.523 . S
C356 C340 1.368 . S
C356 C352 1.368 . S
C356 C355 1.523 . S
H357 C332 0.950 . S
H358 C334 0.950 . S
H359 C335 0.949 . S
H360 C337 0.950 . S
H361 C339 0.950 . S
C362 C363 1.349 . S
C362 C364 1.327 . S
C362 H387 0.950 . S
C363 C362 1.349 . S
C363 C379 1.349 1_556 S
C364 C362 1.327 . S
C364 C383 1.429 . S
C364 H388 0.950 . S
C365 C382 1.574 . S
C365 C384 1.368 . S
C365 H389 0.949 . S
H366 C370 0.949 . S
C367 C368 1.349 . S
C367 C369 1.327 . S
C367 H390 0.950 1_655 S
C368 C367 1.349 . S
C368 C380 1.349 . S
C369 C367 1.327 . S
C369 C385 1.429 . S
C369 H391 0.950 . S
C370 H366 0.949 . S
C370 C378 1.574 . S
C370 C386 1.368 . S
H371 C379 0.950 . S
H372 C377 0.950 . S
H373 C378 0.949 . S
H374 C380 0.950 . S
H375 C381 0.950 . S
H376 C382 0.949 . S
C377 H372 0.950 . S
C377 C379 1.327 1_556 S
C377 C383 1.429 . S
C378 C370 1.574 . S
C378 H373 0.949 . S
C378 C384 1.368 . S
C379 C363 1.349 1_554 S
C379 H371 0.950 . S
C379 C377 1.327 1_554 S
C380 C368 1.349 . S
C380 H374 0.950 . S
C380 C381 1.327 . S
C381 H375 0.950 . S
C381 C380 1.327 . S
C381 C385 1.429 . S
C382 C365 1.574 . S
C382 H376 0.949 . S
C382 C386 1.368 . S
C383 C364 1.429 . S
C383 C377 1.429 . S
C383 C384 1.523 . S
C384 C365 1.368 . S
C384 C378 1.368 . S
C384 C383 1.523 . S
C385 C369 1.429 . S
C385 C381 1.429 . S
C385 C386 1.523 . S
C386 C370 1.368 . S
C386 C382 1.368 . S
C386 C385 1.523 . S
H387 C362 0.950 . S
H388 C364 0.950 . S
H389 C365 0.949 . S
H390 C367 0.950 1_455 S
H391 C369 0.950 . S
C392 C393 1.349 . S
C392 C394 1.327 . S
C392 H417 0.950 . S
C393 C392 1.349 . S
C393 C409 1.349 . S
C394 C392 1.327 . S
C394 C413 1.429 . S
C394 H418 0.950 . S
C395 C412 1.574 . S
C395 C414 1.368 . S
C395 H419 0.949 . S
H396 C400 0.949 . S
C397 C398 1.349 . S
C397 C399 1.327 . S
C397 H420 0.950 . S
C398 C397 1.349 . S
C398 C410 1.349 . S
C399 C397 1.327 . S
C399 C415 1.429 . S
C399 H421 0.950 . S
C400 H396 0.949 . S
C400 C408 1.574 . S
C400 C416 1.368 . S
H401 C409 0.950 . S
H402 C407 0.950 . S
H403 C408 0.949 . S
H404 C410 0.950 . S
H405 C411 0.950 . S
H406 C412 0.949 . S
C407 H402 0.950 . S
C407 C409 1.327 . S
C407 C413 1.429 . S
C408 C400 1.574 . S
C408 H403 0.949 . S
C408 C414 1.368 . S
C409 C393 1.349 . S
C409 H401 0.950 . S
C409 C407 1.327 . S
C410 C398 1.349 . S
C410 H404 0.950 . S
C410 C411 1.327 . S
C411 H405 0.950 . S
C411 C410 1.327 . S
C411 C415 1.429 . S
C412 C395 1.574 . S
C412 H406 0.949 . S
C412 C416 1.368 . S
C413 C394 1.429 . S
C413 C407 1.429 . S
C413 C414 1.523 . S
C414 C395 1.368 . S
C414 C408 1.368 . S
C414 C413 1.523 . S
C415 C399 1.429 . S
C415 C411 1.429 . S
C415 C416 1.523 . S
C416 C400 1.368 . S
C416 C412 1.368 . S
C416 C415 1.523 . S
H417 C392 0.950 . S
H418 C394 0.950 . S
H419 C395 0.949 . S
H420 C397 0.950 . S
H421 C399 0.950 . S
C422 C423 1.349 . S
C422 C424 1.327 . S
C422 H447 0.950 . S
C423 C422 1.349 . S
C423 C439 1.349 1_545 S
C424 C422 1.327 . S
C424 C443 1.429 . S
C424 H448 0.950 . S
C425 C442 1.574 . S
C425 C444 1.368 1_565 S
C425 H449 0.949 . S
H426 C430 0.949 . S
C427 C428 1.349 1_565 S
C427 C429 1.327 . S
C427 H450 0.950 . S
C428 C427 1.349 1_545 S
C428 C440 1.349 . S
C429 C427 1.327 . S
C429 C445 1.429 1_565 S
C429 H451 0.950 . S
C430 H426 0.949 . S
C430 C438 1.574 . S
C430 C446 1.368 . S
H431 C439 0.950 . S
H432 C437 0.950 . S
H433 C438 0.949 . S
H434 C440 0.950 . S
H435 C441 0.950 . S
H436 C442 0.949 . S
C437 H432 0.950 . S
C437 C439 1.327 . S
C437 C443 1.429 1_565 S
C438 C430 1.574 . S
C438 H433 0.949 . S
C438 C444 1.368 . S
C439 C423 1.349 1_565 S
C439 H431 0.950 . S
C439 C437 1.327 . S
C440 C428 1.349 . S
C440 H434 0.950 . S
C440 C441 1.327 . S
C441 H435 0.950 . S
C441 C440 1.327 . S
C441 C445 1.429 . S
C442 C425 1.574 . S
C442 H436 0.949 . S
C442 C446 1.368 1_565 S
C443 C424 1.429 . S
C443 C437 1.429 1_545 S
C443 C444 1.523 . S
C444 C425 1.368 1_545 S
C444 C438 1.368 . S
C444 C443 1.523 . S
C445 C429 1.429 1_545 S
C445 C441 1.429 . S
C445 C446 1.523 . S
C446 C430 1.368 . S
C446 C442 1.368 1_545 S
C446 C445 1.523 . S
H447 C422 0.950 . S
H448 C424 0.950 . S
H449 C425 0.949 . S
H450 C427 0.950 . S
H451 C429 0.950 . S
C452 C453 1.349 . S
C452 C454 1.327 . S
C452 H477 0.950 . S
C453 C452 1.349 . S
C453 C469 1.349 . S
C454 C452 1.327 . S
C454 C473 1.429 . S
C454 H478 0.950 . S
C455 C472 1.574 . S
C455 C474 1.368 . S
C455 H479 0.949 . S
H456 C460 0.949 . S
C457 C458 1.349 . S
C457 C459 1.327 . S
C457 H480 0.950 . S
C458 C457 1.349 . S
C458 C470 1.349 . S
C459 C457 1.327 . S
C459 C475 1.429 . S
C459 H481 0.950 . S
C460 H456 0.949 . S
C460 C468 1.574 . S
C460 C476 1.368 . S
H461 C469 0.950 . S
H462 C467 0.950 . S
H463 C468 0.949 . S
H464 C470 0.950 . S
H465 C471 0.950 . S
H466 C472 0.949 . S
C467 H462 0.950 . S
C467 C469 1.327 . S
C467 C473 1.429 . S
C468 C460 1.574 . S
C468 H463 0.949 . S
C468 C474 1.368 . S
C469 C453 1.349 . S
C469 H461 0.950 . S
C469 C467 1.327 . S
C470 C458 1.349 . S
C470 H464 0.950 . S
C470 C471 1.327 . S
C471 H465 0.950 . S
C471 C470 1.327 . S
C471 C475 1.429 . S
C472 C455 1.574 . S
C472 H466 0.949 . S
C472 C476 1.368 . S
C473 C454 1.429 . S
C473 C467 1.429 . S
C473 C474 1.523 . S
C474 C455 1.368 . S
C474 C468 1.368 . S
C474 C473 1.523 . S
C475 C459 1.429 . S
C475 C471 1.429 . S
C475 C476 1.523 . S
C476 C460 1.368 . S
C476 C472 1.368 . S
C476 C475 1.523 . S
H477 C452 0.950 . S
H478 C454 0.950 . S
H479 C455 0.949 . S
H480 C457 0.950 . S
H481 C459 0.950 . S
C482 C483 1.349 . S
C482 C484 1.327 . S
C482 H507 0.950 . S
C483 C482 1.349 . S
C483 C499 1.349 . S
C484 C482 1.327 . S
C484 C503 1.429 . S
C484 H508 0.950 . S
C485 C502 1.574 . S
C485 C504 1.368 . S
C485 H509 0.949 . S
H486 C490 0.949 . S
C487 C488 1.349 . S
C487 C489 1.327 . S
C487 H510 0.950 . S
C488 C487 1.349 . S
C488 C500 1.349 . S
C489 C487 1.327 . S
C489 C505 1.429 . S
C489 H511 0.950 . S
C490 H486 0.949 . S
C490 C498 1.574 . S
C490 C506 1.368 . S
H491 C499 0.950 . S
H492 C497 0.950 . S
H493 C498 0.949 . S
H494 C500 0.950 . S
H495 C501 0.950 . S
H496 C502 0.949 . S
C497 H492 0.950 . S
C497 C499 1.327 . S
C497 C503 1.429 . S
C498 C490 1.574 . S
C498 H493 0.949 . S
C498 C504 1.368 . S
C499 C483 1.349 . S
C499 H491 0.950 . S
C499 C497 1.327 . S
C500 C488 1.349 . S
C500 H494 0.950 . S
C500 C501 1.327 . S
C501 H495 0.950 . S
C501 C500 1.327 . S
C501 C505 1.429 . S
C502 C485 1.574 . S
C502 H496 0.949 . S
C502 C506 1.368 . S
C503 C484 1.429 . S
C503 C497 1.429 . S
C503 C504 1.523 . S
C504 C485 1.368 . S
C504 C498 1.368 . S
C504 C503 1.523 . S
C505 C489 1.429 . S
C505 C501 1.429 . S
C505 C506 1.523 . S
C506 C490 1.368 . S
C506 C502 1.368 . S
C506 C505 1.523 . S
H507 C482 0.950 . S
H508 C484 0.950 . S
H509 C485 0.949 . S
H510 C487 0.950 . S
H511 C489 0.950 . S
C512 C513 1.349 . S
C512 C514 1.327 . S
C512 H537 0.950 1_556 S
C513 C512 1.349 . S
C513 C529 1.349 . S
C514 C512 1.327 . S
C514 C533 1.429 . S
C514 H538 0.950 . S
C515 C532 1.574 . S
C515 C534 1.368 . S
C515 H539 0.949 . S
H516 C520 0.949 . S
C517 C518 1.349 . S
C517 C519 1.327 . S
C517 H540 0.950 . S
C518 C517 1.349 . S
C518 C530 1.349 . S
C519 C517 1.327 . S
C519 C535 1.429 . S
C519 H541 0.950 . S
C520 H516 0.949 . S
C520 C528 1.574 . S
C520 C536 1.368 . S
H521 C529 0.950 . S
H522 C527 0.950 . S
H523 C528 0.949 . S
H524 C530 0.950 1_455 S
H525 C531 0.950 . S
H526 C532 0.949 . S
C527 H522 0.950 . S
C527 C529 1.327 . S
C527 C533 1.429 . S
C528 C520 1.574 . S
C528 H523 0.949 . S
C528 C534 1.368 . S
C529 C513 1.349 . S
C529 H521 0.950 . S
C529 C527 1.327 . S
C530 C518 1.349 . S
C530 H524 0.950 1_655 S
C530 C531 1.327 . S
C531 H525 0.950 . S
C531 C530 1.327 . S
C531 C535 1.429 . S
C532 C515 1.574 . S
C532 H526 0.949 . S
C532 C536 1.368 . S
C533 C514 1.429 . S
C533 C527 1.429 . S
C533 C534 1.523 . S
C534 C515 1.368 . S
C534 C528 1.368 . S
C534 C533 1.523 . S
C535 C519 1.429 . S
C535 C531 1.429 . S
C535 C536 1.523 . S
C536 C520 1.368 . S
C536 C532 1.368 . S
C536 C535 1.523 . S
H537 C512 0.950 1_554 S
H538 C514 0.950 . S
H539 C515 0.949 . S
H540 C517 0.950 . S
H541 C519 0.950 . S
C542 C543 1.350 . S
C542 C544 1.327 . S
C542 H567 0.950 . S
C543 C542 1.350 . S
C543 C559 1.348 1_564 S
C544 C542 1.327 . S
C544 C563 1.429 1_564 S
C544 H568 0.950 . S
C545 C562 1.574 . S
C545 C564 1.368 . S
C545 H569 0.949 . S
H546 C550 0.949 . S
C547 C548 1.349 . S
C547 C549 1.327 . S
C547 H570 0.950 . S
C548 C547 1.349 . S
C548 C560 1.349 1_545 S
C549 C547 1.327 . S
C549 C565 1.429 . S
C549 H571 0.950 . S
C550 H546 0.949 . S
C550 C558 1.574 . S
C550 C566 1.368 1_565 S
H551 C559 0.950 . S
H552 C557 0.950 . S
H553 C558 0.949 . S
H554 C560 0.950 . S
H555 C561 0.950 . S
H556 C562 0.949 . S
C557 H552 0.950 . S
C557 C559 1.327 . S
C557 C563 1.429 . S
C558 C550 1.574 . S
C558 H553 0.949 . S
C558 C564 1.368 1_565 S
C559 C543 1.348 1_546 S
C559 H551 0.950 . S
C559 C557 1.327 . S
C560 C548 1.349 1_565 S
C560 H554 0.950 . S
C560 C561 1.327 . S
C561 H555 0.950 . S
C561 C560 1.327 . S
C561 C565 1.429 1_565 S
C562 C545 1.574 . S
C562 H556 0.949 . S
C562 C566 1.368 . S
C563 C544 1.429 1_546 S
C563 C557 1.429 . S
C563 C564 1.523 . S
C564 C545 1.368 . S
C564 C558 1.368 1_545 S
C564 C563 1.523 . S
C565 C549 1.429 . S
C565 C561 1.429 1_545 S
C565 C566 1.523 . S
C566 C550 1.368 1_545 S
C566 C562 1.368 . S
C566 C565 1.523 . S
H567 C542 0.950 . S
H568 C544 0.950 . S
H569 C545 0.949 . S
H570 C547 0.950 . S
H571 C549 0.950 . S
C572 C573 1.349 1_554 S
C572 C574 1.327 . S
C572 H597 0.950 . S
C573 C572 1.349 1_556 S
C573 C589 1.349 . S
C574 C572 1.327 . S
C574 C593 1.429 1_554 S
C574 H598 0.950 . S
C575 C592 1.574 . S
C575 C594 1.368 . S
C575 H599 0.949 . S
H576 C580 0.949 . S
C577 C578 1.349 . S
C577 C579 1.327 . S
C577 H600 0.950 . S
C578 C577 1.349 . S
C578 C590 1.349 . S
C579 C577 1.327 . S
C579 C595 1.429 . S
C579 H601 0.950 . S
C580 H576 0.949 . S
C580 C588 1.574 . S
C580 C596 1.368 . S
H581 C589 0.950 . S
H582 C587 0.950 . S
H583 C588 0.949 . S
H584 C590 0.950 . S
H585 C591 0.950 . S
H586 C592 0.949 . S
C587 H582 0.950 . S
C587 C589 1.327 . S
C587 C593 1.429 . S
C588 C580 1.574 . S
C588 H583 0.949 . S
C588 C594 1.368 . S
C589 C573 1.349 . S
C589 H581 0.950 . S
C589 C587 1.327 . S
C590 C578 1.349 . S
C590 H584 0.950 . S
C590 C591 1.327 . S
C591 H585 0.950 . S
C591 C590 1.327 . S
C591 C595 1.429 . S
C592 C575 1.574 . S
C592 H586 0.949 . S
C592 C596 1.368 . S
C593 C574 1.429 1_556 S
C593 C587 1.429 . S
C593 C594 1.523 . S
C594 C575 1.368 . S
C594 C588 1.368 . S
C594 C593 1.523 . S
C595 C579 1.429 . S
C595 C591 1.429 . S
C595 C596 1.523 . S
C596 C580 1.368 . S
C596 C592 1.368 . S
C596 C595 1.523 . S
H597 C572 0.950 . S
H598 C574 0.950 . S
H599 C575 0.949 . S
H600 C577 0.950 . S
H601 C579 0.950 . S
C602 C603 1.349 1_554 S
C602 C604 1.327 1_554 S
C602 H627 0.950 . S
C603 C602 1.349 1_556 S
C603 C619 1.349 . S
C604 C602 1.327 1_556 S
C604 C623 1.429 . S
C604 H628 0.950 1_556 S
C605 C622 1.574 . S
C605 C624 1.368 . S
C605 H629 0.949 . S
H606 C610 0.949 . S
C607 C608 1.349 . S
C607 C609 1.327 . S
C607 H630 0.950 . S
C608 C607 1.349 . S
C608 C620 1.349 . S
C609 C607 1.327 . S
C609 C625 1.429 . S
C609 H631 0.950 . S
C610 H606 0.949 . S
C610 C618 1.574 . S
C610 C626 1.368 . S
H611 C619 0.950 . S
H612 C617 0.950 . S
H613 C618 0.949 . S
H614 C620 0.950 . S
H615 C621 0.950 . S
H616 C622 0.949 . S
C617 H612 0.950 . S
C617 C619 1.327 . S
C617 C623 1.429 . S
C618 C610 1.574 . S
C618 H613 0.949 . S
C618 C624 1.368 . S
C619 C603 1.349 . S
C619 H611 0.950 . S
C619 C617 1.327 . S
C620 C608 1.349 . S
C620 H614 0.950 . S
C620 C621 1.327 . S
C621 H615 0.950 . S
C621 C620 1.327 . S
C621 C625 1.429 . S
C622 C605 1.574 . S
C622 H616 0.949 . S
C622 C626 1.368 . S
C623 C604 1.429 . S
C623 C617 1.429 . S
C623 C624 1.523 . S
C624 C605 1.368 . S
C624 C618 1.368 . S
C624 C623 1.523 . S
C625 C609 1.429 . S
C625 C621 1.429 . S
C625 C626 1.523 . S
C626 C610 1.368 . S
C626 C622 1.368 . S
C626 C625 1.523 . S
H627 C602 0.950 . S
H628 C604 0.950 1_554 S
H629 C605 0.949 . S
H630 C607 0.950 . S
H631 C609 0.950 . S
C632 C633 1.349 . S
C632 C634 1.327 . S
C632 H657 0.950 . S
C633 C632 1.349 . S
C633 C649 1.349 . S
C634 C632 1.327 . S
C634 C653 1.429 . S
C634 H658 0.950 . S
C635 C652 1.574 1_554 S
C635 C654 1.368 . S
C635 H659 0.949 . S
H636 C640 0.949 . S
C637 C638 1.349 . S
C637 C639 1.327 . S
C637 H660 0.950 . S
C638 C637 1.349 . S
C638 C650 1.349 . S
C639 C637 1.327 . S
C639 C655 1.429 . S
C639 H661 0.950 . S
C640 H636 0.949 . S
C640 C648 1.574 . S
C640 C656 1.368 1_554 S
H641 C649 0.950 . S
H642 C647 0.950 . S
H643 C648 0.949 . S
H644 C650 0.950 . S
H645 C651 0.950 1_554 S
H646 C652 0.949 . S
C647 H642 0.950 . S
C647 C649 1.327 . S
C647 C653 1.429 . S
C648 C640 1.574 . S
C648 H643 0.949 . S
C648 C654 1.368 . S
C649 C633 1.349 . S
C649 H641 0.950 . S
C649 C647 1.327 . S
C650 C638 1.349 . S
C650 H644 0.950 . S
C650 C651 1.327 . S
C651 H645 0.950 1_556 S
C651 C650 1.327 . S
C651 C655 1.429 . S
C652 C635 1.574 1_556 S
C652 H646 0.949 . S
C652 C656 1.368 . S
C653 C634 1.429 . S
C653 C647 1.429 . S
C653 C654 1.523 . S
C654 C635 1.368 . S
C654 C648 1.368 . S
C654 C653 1.523 . S
C655 C639 1.429 . S
C655 C651 1.429 . S
C655 C656 1.523 . S
C656 C640 1.368 1_556 S
C656 C652 1.368 . S
C656 C655 1.523 . S
H657 C632 0.950 . S
H658 C634 0.950 . S
H659 C635 0.949 . S
H660 C637 0.950 . S
H661 C639 0.950 . S
C662 C663 1.349 . S
C662 C664 1.327 . S
C662 H687 0.950 . S
C663 C662 1.349 . S
C663 C679 1.349 1_545 S
C664 C662 1.327 . S
C664 C683 1.429 . S
C664 H688 0.950 . S
C665 C682 1.574 . S
C665 C684 1.368 1_566 S
C665 H689 0.949 . S
H666 C670 0.949 . S
C667 C668 1.349 1_565 S
C667 C669 1.327 . S
C667 H690 0.950 . S
C668 C667 1.349 1_545 S
C668 C680 1.349 . S
C669 C667 1.327 . S
C669 C685 1.429 1_565 S
C669 H691 0.950 . S
C670 H666 0.949 . S
C670 C678 1.574 1_556 S
C670 C686 1.368 . S
H671 C679 0.950 . S
H672 C677 0.950 . S
H673 C678 0.949 . S
H674 C680 0.950 . S
H675 C681 0.950 . S
H676 C682 0.949 . S
C677 H672 0.950 . S
C677 C679 1.327 . S
C677 C683 1.429 1_565 S
C678 C670 1.574 1_554 S
C678 H673 0.949 . S
C678 C684 1.368 . S
C679 C663 1.349 1_565 S
C679 H671 0.950 . S
C679 C677 1.327 . S
C680 C668 1.349 . S
C680 H674 0.950 . S
C680 C681 1.327 . S
C681 H675 0.950 . S
C681 C680 1.327 . S
C681 C685 1.429 . S
C682 C665 1.574 . S
C682 H676 0.949 . S
C682 C686 1.368 1_565 S
C683 C664 1.429 . S
C683 C677 1.429 1_545 S
C683 C684 1.523 . S
C684 C665 1.368 1_544 S
C684 C678 1.368 . S
C684 C683 1.523 . S
C685 C669 1.429 1_545 S
C685 C681 1.429 . S
C685 C686 1.523 . S
C686 C670 1.368 . S
C686 C682 1.368 1_545 S
C686 C685 1.523 . S
H687 C662 0.950 . S
H688 C664 0.950 . S
H689 C665 0.949 . S
H690 C667 0.950 . S
H691 C669 0.950 . S
C692 C693 1.349 . S
C692 C694 1.327 . S
C692 H717 0.950 . S
C693 C692 1.349 . S
C693 C709 1.349 . S
C694 C692 1.327 . S
C694 C713 1.429 . S
C694 H718 0.950 . S
C695 C712 1.574 . S
C695 C714 1.368 . S
C695 H719 0.949 . S
H696 C700 0.949 . S
C697 C698 1.349 . S
C697 C699 1.327 . S
C697 H720 0.950 . S
C698 C697 1.349 . S
C698 C710 1.349 . S
C699 C697 1.327 . S
C699 C715 1.429 . S
C699 H721 0.950 . S
C700 H696 0.949 . S
C700 C708 1.574 . S
C700 C716 1.368 . S
H701 C709 0.950 . S
H702 C707 0.950 . S
H703 C708 0.949 . S
H704 C710 0.950 . S
H705 C711 0.950 . S
H706 C712 0.949 . S
C707 H702 0.950 . S
C707 C709 1.327 . S
C707 C713 1.429 . S
C708 C700 1.574 . S
C708 H703 0.949 . S
C708 C714 1.368 1_556 S
C709 C693 1.349 . S
C709 H701 0.950 . S
C709 C707 1.327 . S
C710 C698 1.349 . S
C710 H704 0.950 . S
C710 C711 1.327 . S
C711 H705 0.950 . S
C711 C710 1.327 . S
C711 C715 1.429 . S
C712 C695 1.574 . S
C712 H706 0.949 . S
C712 C716 1.368 1_554 S
C713 C694 1.429 . S
C713 C707 1.429 . S
C713 C714 1.523 . S
C714 C695 1.368 . S
C714 C708 1.368 1_554 S
C714 C713 1.523 . S
C715 C699 1.429 . S
C715 C711 1.429 . S
C715 C716 1.523 . S
C716 C700 1.368 . S
C716 C712 1.368 1_556 S
C716 C715 1.523 . S
H717 C692 0.950 . S
H718 C694 0.950 . S
H719 C695 0.949 . S
H720 C697 0.950 . S
H721 C699 0.950 . S
C722 C723 1.349 . S
C722 C724 1.327 . S
C722 H747 0.950 . S
C723 C722 1.349 . S
C723 C739 1.349 . S
C724 C722 1.327 . S
C724 C743 1.429 . S
C724 H748 0.950 . S
C725 C742 1.574 1_554 S
C725 C744 1.368 . S
C725 H749 0.949 . S
H726 C730 0.949 . S
C727 C728 1.349 . S
C727 C729 1.327 . S
C727 H750 0.950 . S
C728 C727 1.349 . S
C728 C740 1.349 . S
C729 C727 1.327 . S
C729 C745 1.429 . S
C729 H751 0.950 . S
C730 H726 0.949 . S
C730 C738 1.574 . S
C730 C746 1.368 1_554 S
H731 C739 0.950 . S
H732 C737 0.950 . S
H733 C738 0.949 . S
H734 C740 0.950 . S
H735 C741 0.950 . S
H736 C742 0.949 . S
C737 H732 0.950 . S
C737 C739 1.327 . S
C737 C743 1.429 . S
C738 C730 1.574 . S
C738 H733 0.949 . S
C738 C744 1.368 . S
C739 C723 1.349 . S
C739 H731 0.950 . S
C739 C737 1.327 . S
C740 C728 1.349 . S
C740 H734 0.950 . S
C740 C741 1.327 . S
C741 H735 0.950 . S
C741 C740 1.327 . S
C741 C745 1.429 . S
C742 C725 1.574 1_556 S
C742 H736 0.949 . S
C742 C746 1.368 . S
C743 C724 1.429 . S
C743 C737 1.429 . S
C743 C744 1.523 . S
C744 C725 1.368 . S
C744 C738 1.368 . S
C744 C743 1.523 . S
C745 C729 1.429 . S
C745 C741 1.429 . S
C745 C746 1.523 . S
C746 C730 1.368 1_556 S
C746 C742 1.368 . S
C746 C745 1.523 . S
H747 C722 0.950 . S
H748 C724 0.950 . S
H749 C725 0.949 . S
H750 C727 0.950 . S
H751 C729 0.950 . S
C752 C753 1.349 . S
C752 C754 1.327 . S
C752 H777 0.950 . S
C753 C752 1.349 . S
C753 C769 1.349 . S
C754 C752 1.327 . S
C754 C773 1.429 . S
C754 H778 0.950 . S
C755 C772 1.574 . S
C755 C774 1.368 . S
C755 H779 0.949 . S
H756 C760 0.949 . S
C757 C758 1.349 . S
C757 C759 1.327 . S
C757 H780 0.950 . S
C758 C757 1.349 . S
C758 C770 1.349 . S
C759 C757 1.327 . S
C759 C775 1.429 . S
C759 H781 0.950 . S
C760 H756 0.949 . S
C760 C768 1.574 . S
C760 C776 1.368 . S
H761 C769 0.950 . S
H762 C767 0.950 . S
H763 C768 0.949 . S
H764 C770 0.950 . S
H765 C771 0.950 . S
H766 C772 0.949 . S
C767 H762 0.950 . S
C767 C769 1.327 . S
C767 C773 1.429 . S
C768 C760 1.574 . S
C768 H763 0.949 . S
C768 C774 1.368 . S
C769 C753 1.349 . S
C769 H761 0.950 . S
C769 C767 1.327 . S
C770 C758 1.349 . S
C770 H764 0.950 . S
C770 C771 1.327 . S
C771 H765 0.950 . S
C771 C770 1.327 . S
C771 C775 1.429 . S
C772 C755 1.574 . S
C772 H766 0.949 . S
C772 C776 1.368 . S
C773 C754 1.429 . S
C773 C767 1.429 . S
C773 C774 1.523 . S
C774 C755 1.368 . S
C774 C768 1.368 . S
C774 C773 1.523 . S
C775 C759 1.429 . S
C775 C771 1.429 . S
C775 C776 1.523 . S
C776 C760 1.368 . S
C776 C772 1.368 . S
C776 C775 1.523 . S
H777 C752 0.950 . S
H778 C754 0.950 . S
H779 C755 0.949 . S
H780 C757 0.950 . S
H781 C759 0.950 . S
C782 C783 1.350 1_565 S
C782 C784 1.327 . S
C782 H807 0.950 . S
C783 C782 1.350 1_545 S
C783 C799 1.347 . S
C784 C782 1.327 . S
C784 C803 1.417 1_565 S
C784 H808 0.950 . S
C785 C802 1.574 . S
C785 C804 1.389 . S
C785 H809 0.949 . S
H786 C790 0.949 . S
C787 C788 1.349 . S
C787 C789 1.327 . S
C787 H810 0.950 . S
C788 C787 1.349 . S
C788 C800 1.349 1_545 S
C789 C787 1.327 . S
C789 C805 1.468 . S
C789 H811 0.950 . S
C790 H786 0.949 . S
C790 C798 1.574 . S
C790 C806 1.334 1_565 S
H791 C799 0.950 . S
H792 C797 0.950 . S
H793 C798 0.949 . S
H794 C800 0.950 . S
H795 C801 0.950 . S
H796 C802 0.949 . S
C797 H792 0.950 . S
C797 C799 1.327 . S
C797 C803 1.440 . S
C798 C790 1.574 . S
C798 H793 0.949 . S
C798 C804 1.348 1_565 S
C799 C783 1.347 . S
C799 H791 0.950 . S
C799 C797 1.327 . S
C800 C788 1.349 1_565 S
C800 H794 0.950 . S
C800 C801 1.327 . S
C801 H795 0.950 . S
C801 C800 1.327 . S
C801 C805 1.392 1_565 S
C802 C785 1.574 . S
C802 H796 0.949 . S
C802 C806 1.402 . S
C803 C784 1.417 1_545 S
C803 C797 1.440 . S
C803 C804 1.522 . S
C804 C785 1.389 . S
C804 C798 1.348 1_545 S
C804 C803 1.522 . S
C805 C789 1.468 . S
C805 C801 1.392 1_545 S
C805 C806 1.522 . S
C806 C790 1.334 1_545 S
C806 C802 1.402 . S
C806 C805 1.522 . S
H807 C782 0.950 . S
H808 C784 0.950 . S
H809 C785 0.949 . S
H810 C787 0.950 . S
H811 C789 0.950 . S
C812 C813 1.349 . S
C812 C814 1.327 . S
C812 H837 0.950 . S
C813 C812 1.349 . S
C813 C829 1.349 . S
C814 C812 1.327 . S
C814 C833 1.429 . S
C814 H838 0.950 . S
C815 C832 1.574 . S
C815 C834 1.368 . S
C815 H839 0.949 . S
H816 C820 0.949 . S
C817 C818 1.349 . S
C817 C819 1.327 . S
C817 H840 0.950 . S
C818 C817 1.349 . S
C818 C830 1.349 . S
C819 C817 1.327 . S
C819 C835 1.429 . S
C819 H841 0.950 . S
C820 H816 0.949 . S
C820 C828 1.574 . S
C820 C836 1.368 . S
H821 C829 0.950 . S
H822 C827 0.950 . S
H823 C828 0.949 . S
H824 C830 0.950 . S
H825 C831 0.950 . S
H826 C832 0.949 . S
C827 H822 0.950 . S
C827 C829 1.327 . S
C827 C833 1.429 . S
C828 C820 1.574 . S
C828 H823 0.949 . S
C828 C834 1.368 . S
C829 C813 1.349 . S
C829 H821 0.950 . S
C829 C827 1.327 . S
C830 C818 1.349 . S
C830 H824 0.950 . S
C830 C831 1.327 . S
C831 H825 0.950 . S
C831 C830 1.327 . S
C831 C835 1.429 . S
C832 C815 1.574 . S
C832 H826 0.949 . S
C832 C836 1.368 . S
C833 C814 1.429 . S
C833 C827 1.429 . S
C833 C834 1.523 . S
C834 C815 1.368 . S
C834 C828 1.368 . S
C834 C833 1.523 . S
C835 C819 1.429 . S
C835 C831 1.429 . S
C835 C836 1.523 . S
C836 C820 1.368 . S
C836 C832 1.368 . S
C836 C835 1.523 . S
H837 C812 0.950 . S
H838 C814 0.950 . S
H839 C815 0.949 . S
H840 C817 0.950 . S
H841 C819 0.950 . S
C842 C843 1.349 . S
C842 C844 1.327 . S
C842 H867 0.950 . S
C843 C842 1.349 . S
C843 C859 1.349 . S
C844 C842 1.327 . S
C844 C863 1.429 . S
C844 H868 0.950 . S
C845 C862 1.574 . S
C845 C864 1.368 . S
C845 H869 0.949 . S
H846 C850 0.949 . S
C847 C848 1.349 . S
C847 C849 1.327 . S
C847 H870 0.950 . S
C848 C847 1.349 . S
C848 C860 1.349 . S
C849 C847 1.327 . S
C849 C865 1.429 . S
C849 H871 0.950 . S
C850 H846 0.949 . S
C850 C858 1.574 . S
C850 C866 1.368 . S
H851 C859 0.950 . S
H852 C857 0.950 . S
H853 C858 0.949 . S
H854 C860 0.950 . S
H855 C861 0.950 . S
H856 C862 0.949 . S
C857 H852 0.950 . S
C857 C859 1.327 . S
C857 C863 1.429 . S
C858 C850 1.574 . S
C858 H853 0.949 . S
C858 C864 1.368 . S
C859 C843 1.349 . S
C859 H851 0.950 . S
C859 C857 1.327 . S
C860 C848 1.349 . S
C860 H854 0.950 . S
C860 C861 1.327 . S
C861 H855 0.950 . S
C861 C860 1.327 . S
C861 C865 1.429 . S
C862 C845 1.574 . S
C862 H856 0.949 . S
C862 C866 1.368 . S
C863 C844 1.429 . S
C863 C857 1.429 . S
C863 C864 1.523 . S
C864 C845 1.368 . S
C864 C858 1.368 . S
C864 C863 1.523 . S
C865 C849 1.429 . S
C865 C861 1.429 . S
C865 C866 1.523 . S
C866 C850 1.368 . S
C866 C862 1.368 . S
C866 C865 1.523 . S
H867 C842 0.950 . S
H868 C844 0.950 . S
H869 C845 0.949 . S
H870 C847 0.950 . S
H871 C849 0.950 . S
C153 C61 1.388 . S
C158 C73 1.403 . S
C188 C108 1.778 . S
C183 C70 1.726 . S
C218 C113 1.229 . S
C213 C43 1.223 . S
C248 C133 1.567 . S
C243 C52 1.518 . S
C278 C81 1.401 . S
C273 C25 1.391 1_545 S
C303 C34 1.718 . S
C308 C98 1.777 . S
C333 C7 1.220 . S
C338 C121 1.229 . S
C363 C16 1.526 1_556 S
C368 C141 1.568 . S
C398 C91 0.908 . S
C393 C50 0.899 . S
C428 C100 0.548 1_545 S
C423 C59 0.526 . S
C458 C131 1.051 . S
C453 C67 1.040 . S
C483 C41 0.662 . S
C488 C151 0.674 . S
C513 C14 0.902 . S
C518 C80 0.908 . S
C548 C111 0.548 . S
C543 C23 0.524 . S
C578 C120 1.051 . S
C573 C31 1.037 1_556 S
C603 C5 0.664 1_556 S
C608 C140 0.674 . S
C633 C49 1.647 . S
C638 C78 1.681 . S
C663 C58 1.307 . S
C668 C101 1.359 . S
C698 C118 1.704 . S
C693 C68 1.656 . S
C728 C138 1.565 . S
C723 C40 1.541 . S
C753 C13 1.652 . S
C758 C88 1.682 . S
C788 C93 1.359 . S
C783 C22 1.307 1_545 S
C818 C128 1.704 . S
C813 C32 1.646 . S
C843 C4 1.538 . S
C848 C148 1.564 . S
