# Generated by pormake.
# Topology pyr, (3,6)-cn, num edge types: 1
# Building blocks:
#     Node 0, Type 0, BuildingBlock: MIDCAF_clean_linker_0, # of connection points: 3
#     Node 1, Type 0, BuildingBlock: MIDCAF_clean_linker_0, # of connection points: 3
#     Node 2, Type 0, BuildingBlock: MIDCAF_clean_linker_0, # of connection points: 3
#     Node 3, Type 0, BuildingBlock: MIDCAF_clean_linker_0, # of connection points: 3
#     Node 4, Type 0, BuildingBlock: MIDCAF_clean_linker_0, # of connection points: 3
#     Node 5, Type 0, BuildingBlock: MIDCAF_clean_linker_0, # of connection points: 3
#     Node 6, Type 0, BuildingBlock: MIDCAF_clean_linker_0, # of connection points: 3
#     Node 7, Type 0, BuildingBlock: MIDCAF_clean_linker_0, # of connection points: 3
#     Node 8, Type 1, BuildingBlock: BETDEL_clean_sbu_0, # of connection points: 6
#     Node 9, Type 1, BuildingBlock: BETDEL_clean_sbu_0, # of connection points: 6
#     Node 10, Type 1, BuildingBlock: BETDEL_clean_sbu_0, # of connection points: 6
#     Node 11, Type 1, BuildingBlock: BETDEL_clean_sbu_0, # of connection points: 6
#     Edge 12, Type (0, 1), BuildingBlock: AJUNOK_clean_linker_0, # of connection points: 2
#     Edge 13, Type (0, 1), BuildingBlock: AJUNOK_clean_linker_0, # of connection points: 2
#     Edge 14, Type (0, 1), BuildingBlock: AJUNOK_clean_linker_0, # of connection points: 2
#     Edge 15, Type (0, 1), BuildingBlock: AJUNOK_clean_linker_0, # of connection points: 2
#     Edge 16, Type (0, 1), BuildingBlock: AJUNOK_clean_linker_0, # of connection points: 2
#     Edge 17, Type (0, 1), BuildingBlock: AJUNOK_clean_linker_0, # of connection points: 2
#     Edge 18, Type (0, 1), BuildingBlock: AJUNOK_clean_linker_0, # of connection points: 2
#     Edge 19, Type (0, 1), BuildingBlock: AJUNOK_clean_linker_0, # of connection points: 2
#     Edge 20, Type (0, 1), BuildingBlock: AJUNOK_clean_linker_0, # of connection points: 2
#     Edge 21, Type (0, 1), BuildingBlock: AJUNOK_clean_linker_0, # of connection points: 2
#     Edge 22, Type (0, 1), BuildingBlock: AJUNOK_clean_linker_0, # of connection points: 2
#     Edge 23, Type (0, 1), BuildingBlock: AJUNOK_clean_linker_0, # of connection points: 2
#     Edge 24, Type (0, 1), BuildingBlock: AJUNOK_clean_linker_0, # of connection points: 2
#     Edge 25, Type (0, 1), BuildingBlock: AJUNOK_clean_linker_0, # of connection points: 2
#     Edge 26, Type (0, 1), BuildingBlock: AJUNOK_clean_linker_0, # of connection points: 2
#     Edge 27, Type (0, 1), BuildingBlock: AJUNOK_clean_linker_0, # of connection points: 2
#     Edge 28, Type (0, 1), BuildingBlock: AJUNOK_clean_linker_0, # of connection points: 2
#     Edge 29, Type (0, 1), BuildingBlock: AJUNOK_clean_linker_0, # of connection points: 2
#     Edge 30, Type (0, 1), BuildingBlock: AJUNOK_clean_linker_0, # of connection points: 2
#     Edge 31, Type (0, 1), BuildingBlock: AJUNOK_clean_linker_0, # of connection points: 2
#     Edge 32, Type (0, 1), BuildingBlock: AJUNOK_clean_linker_0, # of connection points: 2
#     Edge 33, Type (0, 1), BuildingBlock: AJUNOK_clean_linker_0, # of connection points: 2
#     Edge 34, Type (0, 1), BuildingBlock: AJUNOK_clean_linker_0, # of connection points: 2
#     Edge 35, Type (0, 1), BuildingBlock: AJUNOK_clean_linker_0, # of connection points: 2
# Relax obj value: 0.032
# Max RMSD: 0.093
# Mean RMSD: 0.040
data_MOF--net-pyr--node1-BETDEL_clean_sbu_0--node2-MIDCAF_clean_linker_0--edge1-AJUNOK_clean_linker_0
_symmetry_space_group_name_H-M    P1
_symmetry_Int_Tables_number       1
_symmetry_cell_setting            triclinic
loop_
_symmetry_equiv_pos_as_xyz
'x, y, z'
_cell_length_a     34.95528
_cell_length_b     36.459145
_cell_length_c     33.816078
_cell_angle_alpha  91.189802
_cell_angle_beta   88.901418
_cell_angle_gamma 95.609218
loop_
_atom_site_label
_atom_site_type_symbol
_atom_site_fract_x
_atom_site_fract_y
_atom_site_fract_z
_atom_type_partial_charge
C0 C 0.14557 0.17698 0.28248 0.0
C1 C 0.16179 0.15529 0.31028 0.0
C2 C 0.20165 0.1605 0.31648 0.0
C3 C 0.22515 0.18483 0.29315 0.0
H4 H 0.31845 0.16901 0.22065 0.0
H5 H 0.36396 0.1318 0.18764 0.0
H6 H 0.37474 0.20687 0.09025 0.0
H7 H 0.32881 0.24444 0.12289 0.0
H8 H 0.24476 0.27831 0.10336 0.0
H9 H 0.20155 0.31079 0.06334 0.0
H10 H 0.14702 0.34933 0.16988 0.0
H11 H 0.18941 0.31663 0.20974 0.0
H12 H 0.15569 0.21714 0.2375 0.0
H13 H 0.11498 0.17366 0.27706 0.0
H14 H 0.21481 0.14531 0.33888 0.0
H15 H 0.25597 0.18714 0.29721 0.0
N16 N 0.26706 0.21335 0.2227 0.0
N17 N 0.27211 0.25522 0.17069 0.0
N18 N 0.21983 0.25364 0.21527 0.0
C19 C 0.28662 0.22784 0.19068 0.0
C20 C 0.23902 0.26865 0.18342 0.0
C21 C 0.23368 0.2261 0.2351 0.0
C22 C 0.31946 0.20951 0.17415 0.0
C23 C 0.33085 0.17812 0.19251 0.0
C24 C 0.35683 0.15668 0.17367 0.0
C25 C 0.37235 0.16645 0.13645 0.0
C26 C 0.36309 0.19898 0.1191 0.0
C27 C 0.33679 0.22039 0.1378 0.0
C28 C 0.21998 0.29458 0.15959 0.0
C29 C 0.22411 0.29442 0.11817 0.0
C30 C 0.19929 0.3127 0.09529 0.0
C31 C 0.17025 0.33132 0.11367 0.0
C32 C 0.16833 0.33397 0.15508 0.0
C33 C 0.19282 0.31561 0.17783 0.0
C34 C 0.20901 0.20523 0.26417 0.0
C35 C 0.16892 0.20198 0.2599 0.0
C36 C 0.17792 0.89762 0.63509 0.0
C37 C 0.15603 0.87864 0.60536 0.0
C38 C 0.16218 0.84173 0.59651 0.0
C39 C 0.18926 0.82414 0.61741 0.0
H40 H 0.26033 0.72409 0.62761 0.0
H41 H 0.29706 0.67328 0.60512 0.0
H42 H 0.39821 0.72691 0.6612 0.0
H43 H 0.36127 0.77603 0.68525 0.0
H44 H 0.34375 0.81766 0.76606 0.0
H45 H 0.36685 0.84885 0.82634 0.0
H46 H 0.26202 0.90222 0.83729 0.0
H47 H 0.23931 0.87202 0.77575 0.0
H48 H 0.22061 0.89569 0.67896 0.0
H49 H 0.17523 0.92647 0.64159 0.0
H50 H 0.14591 0.82641 0.57359 0.0
H51 H 0.19334 0.7957 0.61011 0.0
N52 N 0.25714 0.79667 0.65501 0.0
N53 N 0.29577 0.79799 0.71122 0.0
N54 N 0.24938 0.83959 0.70675 0.0
C55 C 0.28577 0.78308 0.67536 0.0
C56 C 0.27749 0.82591 0.72733 0.0
C57 C 0.23905 0.8253 0.67061 0.0
C58 C 0.30781 0.75368 0.65859 0.0
C59 C 0.29039 0.72481 0.63507 0.0
C60 C 0.31142 0.69578 0.6223 0.0
C61 C 0.35034 0.69546 0.63236 0.0
C62 C 0.36794 0.72531 0.65441 0.0
C63 C 0.34684 0.75375 0.6678 0.0
C64 C 0.28985 0.84267 0.76579 0.0
C65 C 0.32539 0.83581 0.78136 0.0
C66 C 0.33858 0.85354 0.8161 0.0
C67 C 0.31643 0.87828 0.83636 0.0
C68 C 0.28012 0.88396 0.82181 0.0
C69 C 0.26707 0.86653 0.78667 0.0
C70 C 0.21034 0.84305 0.64782 0.0
C71 C 0.2043 0.87997 0.65633 0.0
C72 C 0.62755 0.21065 0.9077 0.0
C73 C 0.59051 0.19679 0.89581 0.0
C74 C 0.57051 0.21838 0.87072 0.0
C75 C 0.58748 0.2523 0.85699 0.0
H76 H 0.58718 0.32498 0.75943 0.0
H77 H 0.56203 0.35555 0.70312 0.0
H78 H 0.63758 0.45346 0.72886 0.0
H79 H 0.66287 0.42319 0.78514 0.0
H80 H 0.73538 0.41571 0.8386 0.0
H81 H 0.79505 0.44282 0.86799 0.0
H82 H 0.79168 0.35251 0.94884 0.0
H83 H 0.73242 0.32486 0.91915 0.0
H84 H 0.67312 0.25425 0.90388 0.0
H85 H 0.64382 0.19484 0.92696 0.0
H86 H 0.54147 0.20923 0.86191 0.0
H87 H 0.57115 0.26794 0.83763 0.0
N88 N 0.62723 0.31954 0.82372 0.0
N89 N 0.67666 0.36789 0.82781 0.0
N90 N 0.67574 0.31801 0.8706 0.0
C91 C 0.64394 0.35251 0.81047 0.0
C92 C 0.69281 0.35089 0.85786 0.0
C93 C 0.64293 0.3021 0.85389 0.0
C94 C 0.62731 0.37141 0.77691 0.0
C95 C 0.59842 0.35305 0.75327 0.0
C96 C 0.58413 0.37049 0.7208 0.0
C97 C 0.59811 0.40681 0.71129 0.0
C98 C 0.62624 0.42549 0.73542 0.0
C99 C 0.64082 0.40797 0.76762 0.0
C100 C 0.72895 0.36787 0.87624 0.0
C101 C 0.74728 0.40148 0.86258 0.0
C102 C 0.78148 0.41716 0.87951 0.0
C103 C 0.79838 0.39963 0.91044 0.0
C104 C 0.77989 0.36631 0.92447 0.0
C105 C 0.74569 0.35059 0.90756 0.0
C106 C 0.62473 0.26597 0.86846 0.0
C107 C 0.6444 0.24476 0.89428 0.0
C108 C 0.72815 0.63942 0.42525 0.0
C109 C 0.70782 0.60633 0.41238 0.0
C110 C 0.72222 0.58753 0.37937 0.0
C111 C 0.75585 0.60196 0.35937 0.0
H112 H 0.86052 0.57671 0.28837 0.0
H113 H 0.8907 0.54448 0.234 0.0
H114 H 0.92168 0.64853 0.17715 0.0
H115 H 0.89408 0.68076 0.23309 0.0
H116 H 0.92456 0.74372 0.31703 0.0
H117 H 0.95373 0.80232 0.34513 0.0
H118 H 0.85793 0.8052 0.42702 0.0
H119 H 0.82901 0.74715 0.39974 0.0
H120 H 0.77598 0.67952 0.41633 0.0
H121 H 0.71811 0.6544 0.4508 0.0
H122 H 0.70698 0.5622 0.36839 0.0
H123 H 0.76581 0.58711 0.33371 0.0
N124 N 0.82655 0.63464 0.31912 0.0
N125 N 0.8731 0.68535 0.31072 0.0
N126 N 0.82634 0.68647 0.3612 0.0
C127 C 0.85778 0.651 0.29916 0.0
C128 C 0.85753 0.70325 0.34199 0.0
C129 C 0.8105 0.6524 0.35017 0.0
C130 C 0.87521 0.63135 0.2653 0.0
C131 C 0.87403 0.59269 0.26436 0.0
C132 C 0.89123 0.57419 0.23297 0.0
C133 C 0.90941 0.59373 0.20113 0.0
C134 C 0.90949 0.63243 0.20165 0.0
C135 C 0.89322 0.65099 0.2336 0.0
C136 C 0.87458 0.7402 0.35635 0.0
C137 C 0.90959 0.75694 0.34087 0.0
C138 C 0.9263 0.79055 0.35686 0.0
C139 C 0.90845 0.808 0.38876 0.0
C140 C 0.87283 0.79202 0.40308 0.0
C141 C 0.85619 0.75866 0.38722 0.0
C142 C 0.77575 0.63553 0.37191 0.0
C143 C 0.76153 0.65379 0.4054 0.0
C144 C 0.66243 0.86794 0.86543 0.0
C145 C 0.64807 0.8619 0.90395 0.0
C146 C 0.66533 0.83774 0.9283 0.0
C147 C 0.69885 0.82282 0.91576 0.0
H148 H 0.78371 0.7373 0.924 0.0
H149 H 0.82071 0.69144 0.95334 0.0
H150 H 0.92541 0.76243 0.93401 0.0
H151 H 0.88891 0.80774 0.90413 0.0
H152 H 0.89274 0.85388 0.82743 0.0
H153 H 0.92951 0.89007 0.77756 0.0
H154 H 0.82447 0.9243 0.73171 0.0
H155 H 0.78736 0.88866 0.78201 0.0
H156 H 0.70801 0.86049 0.82404 0.0
H157 H 0.6497 0.88667 0.84625 0.0
H158 H 0.65449 0.83266 0.95812 0.0
H159 H 0.71309 0.8065 0.93631 0.0
N160 N 0.77448 0.80275 0.89271 0.0
N161 N 0.83268 0.82199 0.8604 0.0
N162 N 0.77644 0.84678 0.84281 0.0
C163 C 0.81288 0.80077 0.88774 0.0
C164 C 0.81475 0.84496 0.83776 0.0
C165 C 0.7561 0.82583 0.87019 0.0
C166 C 0.83353 0.77572 0.9112 0.0
C167 C 0.81451 0.74337 0.92682 0.0
C168 C 0.83561 0.71726 0.94375 0.0
C169 C 0.87585 0.72348 0.94566 0.0
C170 C 0.89444 0.7569 0.93243 0.0
C171 C 0.87352 0.78273 0.91529 0.0
C172 C 0.83703 0.86817 0.80855 0.0
C173 C 0.87737 0.8693 0.80697 0.0
C174 C 0.89851 0.89006 0.77853 0.0
C175 C 0.87978 0.91009 0.75114 0.0
C176 C 0.83959 0.90965 0.75309 0.0
C177 C 0.81838 0.88897 0.78165 0.0
C178 C 0.71575 0.83229 0.87887 0.0
C179 C 0.69605 0.85321 0.85294 0.0
C180 C 0.73721 0.13239 0.20129 0.0
C181 C 0.70948 0.14807 0.17939 0.0
C182 C 0.70028 0.18376 0.18922 0.0
C183 C 0.71639 0.20238 0.22232 0.0
H184 H 0.66416 0.24679 0.32075 0.0
H185 H 0.62197 0.29081 0.34782 0.0
H186 H 0.7111 0.335 0.42678 0.0
H187 H 0.75369 0.29011 0.40019 0.0
H188 H 0.78692 0.18818 0.42439 0.0
H189 H 0.82689 0.14844 0.4598 0.0
H190 H 0.88966 0.12841 0.3517 0.0
H191 H 0.84984 0.16773 0.31622 0.0
H192 H 0.77347 0.13746 0.25164 0.0
H193 H 0.74465 0.10483 0.19417 0.0
H194 H 0.67862 0.19622 0.17299 0.0
H195 H 0.70715 0.22907 0.23043 0.0
N196 N 0.73162 0.22704 0.30243 0.0
N197 N 0.76558 0.22485 0.36146 0.0
N198 N 0.78045 0.18799 0.30648 0.0
C199 C 0.73782 0.23894 0.34027 0.0
C200 C 0.78721 0.19942 0.34441 0.0
C201 C 0.75283 0.20173 0.28525 0.0
C202 C 0.71235 0.26506 0.35829 0.0
C203 C 0.67489 0.26576 0.34397 0.0
C204 C 0.65063 0.2908 0.3595 0.0
C205 C 0.66342 0.31609 0.38925 0.0
C206 C 0.70077 0.31562 0.40376 0.0
C207 C 0.72496 0.28994 0.38871 0.0
C208 C 0.81505 0.18088 0.36747 0.0
C209 C 0.80973 0.17589 0.40838 0.0
C210 C 0.83231 0.15293 0.42854 0.0
C211 C 0.8609 0.13505 0.40824 0.0
C212 C 0.86772 0.1418 0.36794 0.0
C213 C 0.84486 0.16425 0.3477 0.0
C214 C 0.7421 0.18563 0.24604 0.0
C215 C 0.75365 0.15113 0.23416 0.0
C216 C 0.23967 0.59902 0.13512 0.0
C217 C 0.22331 0.61474 0.10261 0.0
C218 C 0.24068 0.64845 0.08844 0.0
C219 C 0.27392 0.66573 0.10593 0.0
H220 H 0.35417 0.75478 0.09507 0.0
H221 H 0.38296 0.81325 0.06944 0.0
H222 H 0.46122 0.82409 0.1671 0.0
H223 H 0.43322 0.765 0.19229 0.0
H224 H 0.43165 0.69722 0.25508 0.0
H225 H 0.45887 0.66702 0.31049 0.0
H226 H 0.38552 0.56756 0.28519 0.0
H227 H 0.35824 0.59742 0.22982 0.0
H228 H 0.28458 0.60319 0.17756 0.0
H229 H 0.2265 0.57353 0.14739 0.0
H230 H 0.2288 0.66126 0.06342 0.0
H231 H 0.28656 0.69155 0.09397 0.0
N232 N 0.34205 0.70132 0.14395 0.0
N233 N 0.39032 0.7019 0.19142 0.0
N234 N 0.34271 0.65192 0.18711 0.0
C235 C 0.37414 0.7185 0.16093 0.0
C236 C 0.37483 0.66846 0.20462 0.0
C237 C 0.32603 0.66812 0.15686 0.0
C238 C 0.39128 0.75488 0.1459 0.0
C239 C 0.37739 0.7696 0.11133 0.0
C240 C 0.39371 0.80343 0.09671 0.0
C241 C 0.42416 0.82375 0.11639 0.0
C242 C 0.43791 0.80915 0.15105 0.0
C243 C 0.42176 0.77521 0.16557 0.0
C244 C 0.39246 0.64999 0.2379 0.0
C245 C 0.42131 0.6689 0.26117 0.0
C246 C 0.43682 0.65164 0.2931 0.0
C247 C 0.4241 0.61497 0.30246 0.0
C248 C 0.39596 0.59579 0.27872 0.0
C249 C 0.3802 0.61309 0.24706 0.0
C250 C 0.29061 0.6498 0.13821 0.0
C251 C 0.27291 0.61624 0.1526 0.0
C252 C 0.12623 0.2388 0.5896 0.0
C253 C 0.10647 0.21311 0.61508 0.0
C254 C 0.10306 0.2229 0.65546 0.0
C255 C 0.1184 0.25758 0.66971 0.0
H256 H 0.08708 0.35392 0.74045 0.0
H257 H 0.05969 0.385 0.79721 0.0
H258 H 0.16545 0.45583 0.8091 0.0
H259 H 0.19228 0.42584 0.75118 0.0
H260 H 0.23671 0.44122 0.65865 0.0
H261 H 0.29293 0.46957 0.62264 0.0
H262 H 0.30687 0.36537 0.56377 0.0
H263 H 0.25004 0.3375 0.59829 0.0
H264 H 0.15732 0.292 0.58341 0.0
H265 H 0.12915 0.23256 0.5583 0.0
H266 H 0.08916 0.20356 0.67632 0.0
H267 H 0.11539 0.26413 0.70094 0.0
N268 N 0.14187 0.33573 0.69198 0.0
N269 N 0.18953 0.3856 0.68575 0.0
N270 N 0.1873 0.33625 0.63996 0.0
C271 C 0.15827 0.36903 0.70544 0.0
C272 C 0.20426 0.36933 0.65297 0.0
C273 C 0.15622 0.31922 0.65918 0.0
C274 C 0.14199 0.38726 0.74107 0.0
C275 C 0.10465 0.37598 0.75525 0.0
C276 C 0.08901 0.39364 0.78816 0.0
C277 C 0.11049 0.42264 0.80836 0.0
C278 C 0.14793 0.43375 0.79428 0.0
C279 C 0.16338 0.41644 0.76104 0.0
C280 C 0.23874 0.38699 0.63155 0.0
C281 C 0.25179 0.42434 0.63804 0.0
C282 C 0.28424 0.44057 0.61756 0.0
C283 C 0.30485 0.41969 0.59056 0.0
C284 C 0.29161 0.38243 0.58402 0.0
C285 C 0.259 0.36636 0.60405 0.0
C286 C 0.13845 0.28296 0.64418 0.0
C287 C 0.14226 0.27306 0.60399 0.0
Dy288 Dy 0.03252 0.01716 0.46921 0.0
C289 C 0.95778 0.97468 0.61381 0.0
C290 C 0.06908 0.05089 0.40641 0.0
Dy291 Dy 0.98585 0.99754 0.54224 0.0
O292 O 0.08555 0.03325 0.43314 0.0
O293 O 0.03237 0.04987 0.41362 0.0
O294 O 0.06245 0.96587 0.47447 0.0
O295 O 0.04577 0.99385 0.52587 0.0
C296 C 0.06059 0.9657 0.51284 0.0
C297 C 0.94691 0.02976 0.48696 0.0
O298 O 0.01893 0.04866 0.56621 0.0
O299 O 0.05297 0.06543 0.50861 0.0
O300 O 0.95284 1.00627 0.59864 0.0
O301 O 0.97798 0.95572 0.58986 0.0
O302 O 0.93142 1.00446 0.5103 0.0
O303 O 0.98152 0.03772 0.49609 0.0
O304 O 0.99063 0.97197 0.44476 0.0
O305 O 0.97732 0.94566 0.50545 0.0
C306 C 0.04331 0.07175 0.54612 0.0
C307 C 0.97639 0.94372 0.46635 0.0
Dy308 Dy 0.54126 0.027 0.03895 0.0
C309 C 0.40661 0.96155 0.95415 0.0
C310 C 0.60004 0.06366 0.07932 0.0
Dy311 Dy 0.46923 1.00054 0.98609 0.0
O312 O 0.5721 0.04243 0.0951 0.0
O313 O 0.59596 0.06496 0.04125 0.0
O314 O 0.53879 0.97031 0.06361 0.0
O315 O 0.48755 0.99055 0.04626 0.0
C316 C 0.50211 0.9625 0.05854 0.0
C317 C 0.5132 0.0576 0.95248 0.0
O318 O 0.44271 0.03597 0.03154 0.0
O319 O 0.49923 0.06704 0.056 0.0
O320 O 0.41167 0.99727 0.95741 0.0
O321 O 0.43554 0.94713 0.96915 0.0
O322 O 0.48255 0.04129 0.93623 0.0
O323 O 0.51779 0.04127 0.98405 0.0
O324 O 0.56877 0.99528 0.99144 0.0
O325 O 0.51306 0.96252 0.96725 0.0
C326 C 0.46138 0.06317 0.05228 0.0
C327 C 0.55098 0.96802 0.97017 0.0
Dy328 Dy 0.5212 0.47639 0.4795 0.0
C329 C 0.44659 0.5846 0.57259 0.0
C330 C 0.56153 0.42388 0.44401 0.0
Dy331 Dy 0.4966 0.54269 0.53467 0.0
O332 O 0.53213 0.4174 0.46778 0.0
O333 O 0.56816 0.45916 0.43861 0.0
O334 O 0.45829 0.45604 0.47443 0.0
O335 O 0.47815 0.48446 0.5255 0.0
C336 C 0.44845 0.47036 0.50835 0.0
C337 C 0.5656 0.56054 0.49901 0.0
O338 O 0.51892 0.50696 0.58077 0.0
O339 O 0.54923 0.4675 0.53772 0.0
O340 O 0.48101 0.58033 0.58493 0.0
O341 O 0.43964 0.56561 0.54017 0.0
O342 O 0.549 0.58328 0.52241 0.0
O343 O 0.54402 0.53093 0.49729 0.0
O344 O 0.50383 0.514 0.43273 0.0
O345 O 0.47196 0.55265 0.47511 0.0
C346 C 0.54128 0.47983 0.57402 0.0
C347 C 0.48183 0.5414 0.43901 0.0
Dy348 Dy 0.02067 0.47081 0.02253 0.0
C349 C 0.96435 0.60275 0.98094 0.0
C350 C 0.06058 0.41243 0.03755 0.0
Dy351 Dy 1.00154 0.54176 0.99118 0.0
O352 O 0.02789 0.41842 0.0542 0.0
O353 O 0.07083 0.43791 0.01231 0.0
O354 O 0.97662 0.4746 0.07172 0.0
O355 O 0.00749 0.52259 0.05087 0.0
C356 C 0.9807 0.51037 0.0739 0.0
C357 C 0.04241 0.50316 0.93972 0.0
O358 O 0.05492 0.56412 0.02264 0.0
O359 O 0.07583 0.50704 0.03277 0.0
O360 O 0.99176 0.59257 0.95796 0.0
O361 O 0.95737 0.57962 0.00935 0.0
O362 O 0.04523 0.53898 0.94181 0.0
O363 O 0.01572 0.49021 0.96262 0.0
O364 O 0.96941 0.44826 0.98819 0.0
O365 O 0.9465 0.50489 0.98031 0.0
C366 C 0.08192 0.54349 0.03349 0.0
C367 C 0.94172 0.46831 0.97795 0.0
C368 C 0.1012 0.13517 0.34779 0.0
C369 C 0.13711 0.12696 0.33222 0.0
C370 C 0.07803 0.10934 0.36986 0.0
C371 C 0.09036 0.07478 0.37764 0.0
H372 H 0.09141 0.16214 0.34395 0.0
H373 H 0.05124 0.11718 0.38255 0.0
S374 S 0.17909 0.03767 0.33958 0.0
N375 N 0.18148 0.07988 0.32232 0.0
N376 N 0.1387 0.03221 0.36587 0.0
C377 C 0.12532 0.0656 0.36121 0.0
C378 C 0.14856 0.09151 0.33801 0.0
C379 C 0.35277 0.88192 0.8996 0.0
C380 C 0.3329 0.89966 0.87091 0.0
C381 C 0.37464 0.90217 0.92831 0.0
C382 C 0.37719 0.94087 0.92952 0.0
H383 H 0.35271 0.85219 0.89884 0.0
H384 H 0.39101 0.88746 0.94855 0.0
S385 S 0.32797 1.00053 0.86347 0.0
N386 N 0.31542 0.95819 0.84706 0.0
N387 N 0.35557 0.99615 0.90181 0.0
C388 C 0.35533 0.95887 0.90287 0.0
C389 C 0.33338 0.93828 0.87334 0.0
C390 C 0.57036 0.46012 0.67952 0.0
C391 C 0.58393 0.42505 0.67595 0.0
C392 C 0.55672 0.47763 0.64658 0.0
C393 C 0.5567 0.46111 0.60849 0.0
H394 H 0.56978 0.47395 0.70816 0.0
H395 H 0.54624 0.50443 0.65108 0.0
S396 S 0.59064 0.36973 0.5832 0.0
N397 N 0.59732 0.37476 0.63127 0.0
N398 N 0.57213 0.40733 0.5695 0.0
C399 C 0.57072 0.42613 0.60456 0.0
C400 C 0.58416 0.40821 0.63818 0.0
C401 C 0.91041 0.53943 0.15339 0.0
C402 C 0.92787 0.57359 0.16768 0.0
C403 C 0.9276 0.51932 0.12308 0.0
C404 C 0.96269 0.53271 0.10517 0.0
H405 H 0.88304 0.52805 0.1656 0.0
H406 H 0.91311 0.49313 0.11342 0.0
S407 S 0.02149 0.61963 0.13198 0.0
N408 N 0.98371 0.61885 0.16213 0.0
N409 N 0.01474 0.58195 0.1041 0.0
C410 C 0.98035 0.56691 0.11863 0.0
C411 C 0.96328 0.58709 0.15004 0.0
C412 C 0.38021 0.1045 0.10715 0.0
C413 C 0.39566 0.14099 0.11456 0.0
C414 C 0.40146 0.07959 0.08636 0.0
C415 C 0.43908 0.09024 0.07288 0.0
H416 H 0.35135 0.09523 0.1173 0.0
H417 H 0.38855 0.05166 0.08145 0.0
S418 S 0.49217 0.18308 0.08422 0.0
N419 N 0.45021 0.18692 0.10643 0.0
N420 N 0.49061 0.14007 0.06756 0.0
C421 C 0.45479 0.1268 0.07997 0.0
C422 C 0.43291 0.15224 0.10072 0.0
C423 C 0.12775 0.89512 0.54111 0.0
C424 C 0.12829 0.89815 0.58267 0.0
C425 C 0.10485 0.91628 0.51887 0.0
C426 C 0.08192 0.94156 0.53727 0.0
H427 H 0.14616 0.87723 0.52551 0.0
H428 H 0.10605 0.91355 0.48692 0.0
S429 S 0.06983 0.95715 0.64537 0.0
N430 N 0.10068 0.9257 0.64147 0.0
N431 N 0.05949 0.9669 0.59959 0.0
C432 C 0.08119 0.944 0.5788 0.0
C433 C 0.10392 0.92197 0.60149 0.0
C434 C 0.83952 0.45391 0.93892 0.0
C435 C 0.83507 0.41628 0.92805 0.0
C436 C 0.87386 0.47031 0.95524 0.0
C437 C 0.90534 0.44982 0.96136 0.0
H438 H 0.8161 0.47083 0.93508 0.0
H439 H 0.87561 0.49935 0.96317 0.0
S440 S 0.90914 0.35056 0.9357 0.0
N441 N 0.86559 0.35925 0.92307 0.0
N442 N 0.92991 0.38974 0.95391 0.0
C443 C 0.9013 0.4121 0.95039 0.0
C444 C 0.86629 0.39545 0.93375 0.0
C445 C 0.64349 0.61771 0.44178 0.0
C446 C 0.67096 0.59281 0.43279 0.0
C447 C 0.6095 0.60673 0.46288 0.0
C448 C 0.60123 0.5703 0.47551 0.0
H449 H 0.64837 0.64608 0.43252 0.0
H450 H 0.58944 0.62702 0.46927 0.0
S451 S 0.66444 0.49494 0.46247 0.0
N452 N 0.68811 0.53026 0.43997 0.0
N453 N 0.62392 0.50971 0.47941 0.0
C454 C 0.62817 0.545 0.46677 0.0
C455 C 0.66305 0.55622 0.44542 0.0
C456 C 0.15278 0.3722 0.05998 0.0
C457 C 0.14121 0.34744 0.09013 0.0
C458 C 0.12585 0.39145 0.04107 0.0
C459 C 0.08662 0.38653 0.05185 0.0
H460 H 0.18297 0.37811 0.05236 0.0
H461 H 0.13619 0.41173 0.01941 0.0
S462 S 0.04119 0.32013 0.12426 0.0
N463 N 0.08759 0.3153 0.12622 0.0
N464 N 0.037 0.35203 0.09108 0.0
C465 C 0.07441 0.35997 0.07995 0.0
C466 C 0.10176 0.34028 0.09906 0.0
C467 C 0.57473 0.14998 0.9495 0.0
C468 C 0.57274 0.16002 0.90952 0.0
C469 C 0.5566 0.11623 0.96317 0.0
C470 C 0.5357 0.09131 0.93741 0.0
H471 H 0.5895 0.16877 0.97067 0.0
H472 H 0.55782 0.11026 0.99432 0.0
S473 S 0.52542 0.10206 0.82939 0.0
N474 N 0.55111 0.14021 0.84386 0.0
N475 N 0.51637 0.0777 0.86968 0.0
C476 C 0.53453 0.10042 0.89729 0.0
C477 C 0.55319 0.13448 0.88331 0.0
C478 C 0.93995 0.87338 0.3865 0.0
C479 C 0.92723 0.84197 0.40843 0.0
C480 C 0.95585 0.90611 0.40529 0.0
C481 C 0.95988 0.90865 0.44674 0.0
H482 H 0.93687 0.8729 0.35468 0.0
H483 H 0.96472 0.92965 0.38713 0.0
S484 S 0.93404 0.83259 0.51704 0.0
N485 N 0.92197 0.81459 0.47334 0.0
N486 N 0.9515 0.87547 0.50868 0.0
C487 C 0.94808 0.87691 0.46877 0.0
C488 C 0.93189 0.8438 0.44964 0.0
C489 C 0.37011 0.65119 0.57976 0.0
C490 C 0.37306 0.66485 0.61892 0.0
C491 C 0.39329 0.62438 0.56551 0.0
C492 C 0.42065 0.61055 0.58969 0.0
H493 H 0.35059 0.66208 0.55953 0.0
H494 H 0.3906 0.61534 0.53488 0.0
S495 S 0.4367 0.63357 0.69562 0.0
N496 N 0.40288 0.65942 0.68282 0.0
N497 N 0.44752 0.61017 0.65528 0.0
C498 C 0.42317 0.62297 0.62914 0.0
C499 C 0.39912 0.64983 0.64394 0.0
C500 C 0.92704 0.90901 0.69543 0.0
C501 C 0.9019 0.92876 0.71853 0.0
C502 C 0.94595 0.92469 0.66225 0.0
C503 C 0.94034 0.96062 0.65102 0.0
H504 H 0.93114 0.88078 0.70229 0.0
H505 H 0.96431 0.90813 0.64472 0.0
S506 S 0.88047 0.02508 0.70398 0.0
N507 N 0.87459 0.98695 0.72986 0.0
N508 N 0.91005 0.01652 0.66699 0.0
C509 C 0.91648 0.98123 0.6747 0.0
C510 C 0.89718 0.96522 0.70856 0.0
C511 C 0.66513 0.09245 0.16433 0.0
C512 C 0.68556 0.12512 0.15103 0.0
C513 C 0.6381 0.07239 0.14042 0.0
C514 C 0.63095 0.08397 0.10215 0.0
H515 H 0.66889 0.08314 0.19411 0.0
H516 H 0.62222 0.04793 0.15231 0.0
S517 S 0.67853 0.16646 0.05257 0.0
N518 N 0.698 0.16754 0.09678 0.0
N519 N 0.64753 0.12923 0.05123 0.0
C520 C 0.65222 0.11579 0.08781 0.0
C521 C 0.6794 0.1366 0.11248 0.0
C522 C 0.45353 0.56211 0.33344 0.0
C523 C 0.43937 0.59691 0.3374 0.0
C524 C 0.46755 0.54453 0.36617 0.0
C525 C 0.46739 0.56071 0.4044 0.0
H526 H 0.45404 0.54845 0.30471 0.0
H527 H 0.47816 0.51782 0.36145 0.0
S528 S 0.43242 0.65146 0.43064 0.0
N529 N 0.42557 0.64669 0.38258 0.0
N530 N 0.45157 0.61406 0.44388 0.0
C531 C 0.4531 0.59555 0.40866 0.0
C532 C 0.43924 0.61352 0.37528 0.0
C533 C 0.09896 0.48101 0.84621 0.0
C534 C 0.09361 0.44223 0.84303 0.0
C535 C 0.08277 0.50028 0.87777 0.0
C536 C 0.06025 0.48172 0.90749 0.0
H537 H 0.11525 0.49679 0.82369 0.0
H538 H 0.08756 0.53009 0.8785 0.0
S539 S 0.03928 0.38028 0.91484 0.0
N540 N 0.06585 0.38589 0.8741 0.0
N541 N 0.03446 0.42217 0.93246 0.0
C542 C 0.05499 0.44297 0.90507 0.0
C543 C 0.07181 0.42326 0.87312 0.0
C544 C 0.63248 0.90854 0.95425 0.0
C545 C 0.62092 0.88648 0.92125 0.0
C546 C 0.60983 0.93518 0.9693 0.0
C547 C 0.57454 0.94054 0.95215 0.0
H548 H 0.65982 0.90587 0.96796 0.0
H549 H 0.62001 0.95144 0.99485 0.0
S550 S 0.53113 0.88927 0.86548 0.0
N551 N 0.57212 0.87129 0.87183 0.0
N552 N 0.52879 0.92125 0.90055 0.0
C553 C 0.56231 0.91829 0.91939 0.0
C554 C 0.58575 0.89134 0.90375 0.0
C555 C 0.92273 0.11159 0.42778 0.0
C556 C 0.88231 0.10783 0.42831 0.0
C557 C 0.94342 0.08579 0.44619 0.0
C558 C 0.92442 0.05502 0.46528 0.0
H559 H 0.93844 0.13492 0.41351 0.0
H560 H 0.97451 0.09026 0.44585 0.0
S561 S 0.81879 0.03131 0.47211 0.0
N562 N 0.82403 0.07029 0.44771 0.0
N563 N 0.86273 0.02151 0.48185 0.0
C564 C 0.88398 0.05049 0.46503 0.0
C565 C 0.86297 0.077 0.44672 0.0
C566 C 0.15673 0.61637 0.07589 0.0
C567 C 0.18803 0.59622 0.08378 0.0
C568 C 0.12285 0.59929 0.05916 0.0
C569 C 0.11884 0.56133 0.04949 0.0
H570 H 0.15812 0.64548 0.08345 0.0
H571 H 0.0994 0.61596 0.05441 0.0
S572 S 0.19378 0.49681 0.06124 0.0
N573 N 0.21374 0.53673 0.07842 0.0
N574 N 0.15033 0.50455 0.04733 0.0
C575 C 0.15034 0.54104 0.05647 0.0
C576 C 0.18479 0.55847 0.07351 0.0
C577 C 0.34631 0.42792 0.52892 0.0
C578 C 0.34033 0.43607 0.56941 0.0
C579 C 0.38074 0.44023 0.50907 0.0
C580 C 0.4107 0.46127 0.52879 0.0
H581 H 0.32434 0.41144 0.51246 0.0
H582 H 0.3842 0.43246 0.47821 0.0
S583 S 0.40939 0.49155 0.63434 0.0
N584 N 0.36739 0.46738 0.62822 0.0
N585 N 0.43149 0.49108 0.5908 0.0
C586 C 0.40465 0.47076 0.56888 0.0
C587 C 0.36967 0.45808 0.58917 0.0
C588 C 0.92882 0.68422 0.93137 0.0
C589 C 0.89902 0.69377 0.95695 0.0
C590 C 0.95029 0.65513 0.93986 0.0
C591 C 0.94269 0.63453 0.97419 0.0
H592 H 0.93501 0.69882 0.90404 0.0
H593 H 0.97254 0.64835 0.91897 0.0
S594 S 0.86945 0.65001 0.05209 0.0
N595 N 0.86417 0.68166 0.0189 0.0
N596 N 0.90453 0.62654 0.03496 0.0
C597 C 0.91354 0.64422 1.00053 0.0
C598 C 0.89161 0.67392 0.99182 0.0
C599 C 0.48311 0.86564 0.09856 0.0
C600 C 0.44274 0.85926 0.10024 0.0
C601 C 0.50166 0.89878 0.08438 0.0
C602 C 0.48079 0.92721 0.07125 0.0
H603 H 0.50067 0.84472 0.10814 0.0
H604 H 0.5328 0.90217 0.08399 0.0
S605 S 0.37453 0.92486 0.06928 0.0
N606 N 0.38236 0.88457 0.08738 0.0
N607 N 0.41739 0.94674 0.06053 0.0
C608 C 0.44042 0.9212 0.0722 0.0
C609 C 0.4214 0.88731 0.08668 0.0
C610 C 0.11103 0.15706 0.57084 0.0
C611 C 0.09014 0.17622 0.59929 0.0
C612 C 0.09589 0.12323 0.55417 0.0
C613 C 0.05947 0.10665 0.56569 0.0
H614 H 0.13945 0.16827 0.56126 0.0
H615 H 0.11299 0.10988 0.53213 0.0
S616 S 0.99208 0.14564 0.63761 0.0
N617 N 0.03004 0.17637 0.63684 0.0
N618 N 1.00243 0.11222 0.60673 0.0
C619 C 0.03838 0.12512 0.5944 0.0
C620 C 0.05349 0.15994 0.6109 0.0
C621 C 0.6469 0.38097 0.39794 0.0
C622 C 0.63763 0.34318 0.40439 0.0
C623 C 0.62158 0.40684 0.40991 0.0
C624 C 0.58648 0.39583 0.42933 0.0
H625 H 0.67359 0.39049 0.38295 0.0
H626 H 0.62973 0.43567 0.40415 0.0
S627 S 0.54948 0.29989 0.45365 0.0
N628 N 0.59127 0.29585 0.43118 0.0
N629 N 0.54403 0.3444 0.45462 0.0
C630 C 0.57707 0.35805 0.4361 0.0
C631 C 0.60259 0.33174 0.42341 0.0
loop_
_geom_bond_atom_site_label_1
_geom_bond_atom_site_label_2
_geom_bond_distance
_geom_bond_site_symmetry_2
_ccdc_geom_bond_type
C0 C1 1.384 . S
C0 H13 0.947 . S
C0 C35 1.382 . S
C1 C0 1.384 . S
C1 C2 1.378 . S
C2 C1 1.378 . S
C2 C3 1.378 . S
C2 H14 0.952 . S
C3 C2 1.378 . S
C3 H15 0.950 . S
C3 C34 1.383 . S
H4 C23 0.947 . S
H5 C24 0.946 . S
H6 C26 0.953 . S
H7 C27 0.945 . S
H8 C29 0.952 . S
H9 C30 0.949 . S
H10 C32 0.950 . S
H11 C33 0.948 . S
H12 C35 0.951 . S
H13 C0 0.947 . S
H14 C2 0.952 . S
H15 C3 0.950 . S
N16 C19 1.382 . S
N16 C21 1.363 . S
N17 C19 1.371 . S
N17 C20 1.372 . S
N18 C20 1.361 . S
N18 C21 1.377 . S
C19 N16 1.382 . S
C19 N17 1.371 . S
C19 C22 1.480 . S
C20 N17 1.372 . S
C20 N18 1.361 . S
C20 C28 1.457 . S
C21 N16 1.363 . S
C21 N18 1.377 . S
C21 C34 1.479 . S
C22 C19 1.480 . S
C22 C23 1.383 . S
C22 C27 1.385 . S
C23 H4 0.947 . S
C23 C22 1.383 . S
C23 C24 1.388 . S
C24 H5 0.946 . S
C24 C23 1.388 . S
C24 C25 1.384 . S
C25 C24 1.384 . S
C25 C26 1.377 . S
C26 H6 0.953 . S
C26 C25 1.377 . S
C26 C27 1.369 . S
C27 H7 0.945 . S
C27 C22 1.385 . S
C27 C26 1.369 . S
C28 C20 1.457 . S
C28 C29 1.372 . S
C28 C33 1.364 . S
C29 H8 0.952 . S
C29 C28 1.372 . S
C29 C30 1.389 . S
C30 H9 0.949 . S
C30 C29 1.389 . S
C30 C31 1.387 . S
C31 C30 1.387 . S
C31 C32 1.372 . S
C32 H10 0.950 . S
C32 C31 1.372 . S
C32 C33 1.379 . S
C33 H11 0.948 . S
C33 C28 1.364 . S
C33 C32 1.379 . S
C34 C3 1.383 . S
C34 C21 1.479 . S
C34 C35 1.398 . S
C35 C0 1.382 . S
C35 H12 0.951 . S
C35 C34 1.398 . S
C36 C37 1.384 . S
C36 H49 0.947 . S
C36 C71 1.382 . S
C37 C36 1.384 . S
C37 C38 1.378 . S
C38 C37 1.378 . S
C38 C39 1.378 . S
C38 H50 0.952 . S
C39 C38 1.378 . S
C39 H51 0.950 . S
C39 C70 1.383 . S
H40 C59 0.947 . S
H41 C60 0.946 . S
H42 C62 0.953 . S
H43 C63 0.945 . S
H44 C65 0.952 . S
H45 C66 0.949 . S
H46 C68 0.950 . S
H47 C69 0.948 . S
H48 C71 0.951 . S
H49 C36 0.947 . S
H50 C38 0.952 . S
H51 C39 0.950 . S
N52 C55 1.382 . S
N52 C57 1.363 . S
N53 C55 1.371 . S
N53 C56 1.372 . S
N54 C56 1.361 . S
N54 C57 1.377 . S
C55 N52 1.382 . S
C55 N53 1.371 . S
C55 C58 1.480 . S
C56 N53 1.372 . S
C56 N54 1.361 . S
C56 C64 1.457 . S
C57 N52 1.363 . S
C57 N54 1.377 . S
C57 C70 1.479 . S
C58 C55 1.480 . S
C58 C59 1.383 . S
C58 C63 1.385 . S
C59 H40 0.947 . S
C59 C58 1.383 . S
C59 C60 1.388 . S
C60 H41 0.946 . S
C60 C59 1.388 . S
C60 C61 1.384 . S
C61 C60 1.384 . S
C61 C62 1.377 . S
C62 H42 0.953 . S
C62 C61 1.377 . S
C62 C63 1.369 . S
C63 H43 0.945 . S
C63 C58 1.385 . S
C63 C62 1.369 . S
C64 C56 1.457 . S
C64 C65 1.372 . S
C64 C69 1.364 . S
C65 H44 0.952 . S
C65 C64 1.372 . S
C65 C66 1.389 . S
C66 H45 0.949 . S
C66 C65 1.389 . S
C66 C67 1.387 . S
C67 C66 1.387 . S
C67 C68 1.372 . S
C68 H46 0.950 . S
C68 C67 1.372 . S
C68 C69 1.379 . S
C69 H47 0.948 . S
C69 C64 1.364 . S
C69 C68 1.379 . S
C70 C39 1.383 . S
C70 C57 1.479 . S
C70 C71 1.398 . S
C71 C36 1.382 . S
C71 H48 0.951 . S
C71 C70 1.398 . S
C72 C73 1.384 . S
C72 H85 0.947 . S
C72 C107 1.382 . S
C73 C72 1.384 . S
C73 C74 1.378 . S
C74 C73 1.378 . S
C74 C75 1.378 . S
C74 H86 0.952 . S
C75 C74 1.378 . S
C75 H87 0.950 . S
C75 C106 1.383 . S
H76 C95 0.947 . S
H77 C96 0.946 . S
H78 C98 0.953 . S
H79 C99 0.945 . S
H80 C101 0.952 . S
H81 C102 0.949 . S
H82 C104 0.950 . S
H83 C105 0.948 . S
H84 C107 0.951 . S
H85 C72 0.947 . S
H86 C74 0.952 . S
H87 C75 0.950 . S
N88 C91 1.382 . S
N88 C93 1.363 . S
N89 C91 1.371 . S
N89 C92 1.372 . S
N90 C92 1.361 . S
N90 C93 1.377 . S
C91 N88 1.382 . S
C91 N89 1.371 . S
C91 C94 1.480 . S
C92 N89 1.372 . S
C92 N90 1.361 . S
C92 C100 1.457 . S
C93 N88 1.363 . S
C93 N90 1.377 . S
C93 C106 1.479 . S
C94 C91 1.480 . S
C94 C95 1.383 . S
C94 C99 1.385 . S
C95 H76 0.947 . S
C95 C94 1.383 . S
C95 C96 1.388 . S
C96 H77 0.946 . S
C96 C95 1.388 . S
C96 C97 1.384 . S
C97 C96 1.384 . S
C97 C98 1.377 . S
C98 H78 0.953 . S
C98 C97 1.377 . S
C98 C99 1.369 . S
C99 H79 0.945 . S
C99 C94 1.385 . S
C99 C98 1.369 . S
C100 C92 1.457 . S
C100 C101 1.372 . S
C100 C105 1.364 . S
C101 H80 0.952 . S
C101 C100 1.372 . S
C101 C102 1.389 . S
C102 H81 0.949 . S
C102 C101 1.389 . S
C102 C103 1.387 . S
C103 C102 1.387 . S
C103 C104 1.372 . S
C104 H82 0.950 . S
C104 C103 1.372 . S
C104 C105 1.379 . S
C105 H83 0.948 . S
C105 C100 1.364 . S
C105 C104 1.379 . S
C106 C75 1.383 . S
C106 C93 1.479 . S
C106 C107 1.398 . S
C107 C72 1.382 . S
C107 H84 0.951 . S
C107 C106 1.398 . S
C108 C109 1.384 . S
C108 H121 0.947 . S
C108 C143 1.382 . S
C109 C108 1.384 . S
C109 C110 1.378 . S
C110 C109 1.378 . S
C110 C111 1.378 . S
C110 H122 0.952 . S
C111 C110 1.378 . S
C111 H123 0.950 . S
C111 C142 1.383 . S
H112 C131 0.947 . S
H113 C132 0.946 . S
H114 C134 0.953 . S
H115 C135 0.945 . S
H116 C137 0.952 . S
H117 C138 0.949 . S
H118 C140 0.950 . S
H119 C141 0.948 . S
H120 C143 0.951 . S
H121 C108 0.947 . S
H122 C110 0.952 . S
H123 C111 0.950 . S
N124 C127 1.382 . S
N124 C129 1.363 . S
N125 C127 1.371 . S
N125 C128 1.372 . S
N126 C128 1.361 . S
N126 C129 1.377 . S
C127 N124 1.382 . S
C127 N125 1.371 . S
C127 C130 1.480 . S
C128 N125 1.372 . S
C128 N126 1.361 . S
C128 C136 1.457 . S
C129 N124 1.363 . S
C129 N126 1.377 . S
C129 C142 1.479 . S
C130 C127 1.480 . S
C130 C131 1.383 . S
C130 C135 1.385 . S
C131 H112 0.947 . S
C131 C130 1.383 . S
C131 C132 1.388 . S
C132 H113 0.946 . S
C132 C131 1.388 . S
C132 C133 1.384 . S
C133 C132 1.384 . S
C133 C134 1.377 . S
C134 H114 0.953 . S
C134 C133 1.377 . S
C134 C135 1.369 . S
C135 H115 0.945 . S
C135 C130 1.385 . S
C135 C134 1.369 . S
C136 C128 1.457 . S
C136 C137 1.372 . S
C136 C141 1.364 . S
C137 H116 0.952 . S
C137 C136 1.372 . S
C137 C138 1.389 . S
C138 H117 0.949 . S
C138 C137 1.389 . S
C138 C139 1.387 . S
C139 C138 1.387 . S
C139 C140 1.372 . S
C140 H118 0.950 . S
C140 C139 1.372 . S
C140 C141 1.379 . S
C141 H119 0.948 . S
C141 C136 1.364 . S
C141 C140 1.379 . S
C142 C111 1.383 . S
C142 C129 1.479 . S
C142 C143 1.398 . S
C143 C108 1.382 . S
C143 H120 0.951 . S
C143 C142 1.398 . S
C144 C145 1.384 . S
C144 H157 0.947 . S
C144 C179 1.382 . S
C145 C144 1.384 . S
C145 C146 1.378 . S
C146 C145 1.378 . S
C146 C147 1.378 . S
C146 H158 0.952 . S
C147 C146 1.378 . S
C147 H159 0.950 . S
C147 C178 1.383 . S
H148 C167 0.947 . S
H149 C168 0.946 . S
H150 C170 0.953 . S
H151 C171 0.945 . S
H152 C173 0.952 . S
H153 C174 0.949 . S
H154 C176 0.950 . S
H155 C177 0.948 . S
H156 C179 0.951 . S
H157 C144 0.947 . S
H158 C146 0.952 . S
H159 C147 0.950 . S
N160 C163 1.382 . S
N160 C165 1.363 . S
N161 C163 1.371 . S
N161 C164 1.372 . S
N162 C164 1.361 . S
N162 C165 1.377 . S
C163 N160 1.382 . S
C163 N161 1.371 . S
C163 C166 1.480 . S
C164 N161 1.372 . S
C164 N162 1.361 . S
C164 C172 1.457 . S
C165 N160 1.363 . S
C165 N162 1.377 . S
C165 C178 1.479 . S
C166 C163 1.480 . S
C166 C167 1.383 . S
C166 C171 1.385 . S
C167 H148 0.947 . S
C167 C166 1.383 . S
C167 C168 1.388 . S
C168 H149 0.946 . S
C168 C167 1.388 . S
C168 C169 1.384 . S
C169 C168 1.384 . S
C169 C170 1.377 . S
C170 H150 0.953 . S
C170 C169 1.377 . S
C170 C171 1.369 . S
C171 H151 0.945 . S
C171 C166 1.385 . S
C171 C170 1.369 . S
C172 C164 1.457 . S
C172 C173 1.372 . S
C172 C177 1.364 . S
C173 H152 0.952 . S
C173 C172 1.372 . S
C173 C174 1.389 . S
C174 H153 0.949 . S
C174 C173 1.389 . S
C174 C175 1.387 . S
C175 C174 1.387 . S
C175 C176 1.372 . S
C176 H154 0.950 . S
C176 C175 1.372 . S
C176 C177 1.379 . S
C177 H155 0.948 . S
C177 C172 1.364 . S
C177 C176 1.379 . S
C178 C147 1.383 . S
C178 C165 1.479 . S
C178 C179 1.398 . S
C179 C144 1.382 . S
C179 H156 0.951 . S
C179 C178 1.398 . S
C180 C181 1.384 . S
C180 H193 0.947 . S
C180 C215 1.382 . S
C181 C180 1.384 . S
C181 C182 1.378 . S
C182 C181 1.378 . S
C182 C183 1.378 . S
C182 H194 0.952 . S
C183 C182 1.378 . S
C183 H195 0.950 . S
C183 C214 1.383 . S
H184 C203 0.947 . S
H185 C204 0.946 . S
H186 C206 0.953 . S
H187 C207 0.945 . S
H188 C209 0.952 . S
H189 C210 0.949 . S
H190 C212 0.950 . S
H191 C213 0.948 . S
H192 C215 0.951 . S
H193 C180 0.947 . S
H194 C182 0.952 . S
H195 C183 0.950 . S
N196 C199 1.382 . S
N196 C201 1.363 . S
N197 C199 1.371 . S
N197 C200 1.372 . S
N198 C200 1.361 . S
N198 C201 1.377 . S
C199 N196 1.382 . S
C199 N197 1.371 . S
C199 C202 1.480 . S
C200 N197 1.372 . S
C200 N198 1.361 . S
C200 C208 1.457 . S
C201 N196 1.363 . S
C201 N198 1.377 . S
C201 C214 1.479 . S
C202 C199 1.480 . S
C202 C203 1.383 . S
C202 C207 1.385 . S
C203 H184 0.947 . S
C203 C202 1.383 . S
C203 C204 1.388 . S
C204 H185 0.946 . S
C204 C203 1.388 . S
C204 C205 1.384 . S
C205 C204 1.384 . S
C205 C206 1.377 . S
C206 H186 0.953 . S
C206 C205 1.377 . S
C206 C207 1.369 . S
C207 H187 0.945 . S
C207 C202 1.385 . S
C207 C206 1.369 . S
C208 C200 1.457 . S
C208 C209 1.372 . S
C208 C213 1.364 . S
C209 H188 0.952 . S
C209 C208 1.372 . S
C209 C210 1.389 . S
C210 H189 0.949 . S
C210 C209 1.389 . S
C210 C211 1.387 . S
C211 C210 1.387 . S
C211 C212 1.372 . S
C212 H190 0.950 . S
C212 C211 1.372 . S
C212 C213 1.379 . S
C213 H191 0.948 . S
C213 C208 1.364 . S
C213 C212 1.379 . S
C214 C183 1.383 . S
C214 C201 1.479 . S
C214 C215 1.398 . S
C215 C180 1.382 . S
C215 H192 0.951 . S
C215 C214 1.398 . S
C216 C217 1.384 . S
C216 H229 0.947 . S
C216 C251 1.382 . S
C217 C216 1.384 . S
C217 C218 1.378 . S
C218 C217 1.378 . S
C218 C219 1.378 . S
C218 H230 0.952 . S
C219 C218 1.378 . S
C219 H231 0.950 . S
C219 C250 1.383 . S
H220 C239 0.947 . S
H221 C240 0.946 . S
H222 C242 0.953 . S
H223 C243 0.945 . S
H224 C245 0.952 . S
H225 C246 0.949 . S
H226 C248 0.950 . S
H227 C249 0.948 . S
H228 C251 0.951 . S
H229 C216 0.947 . S
H230 C218 0.952 . S
H231 C219 0.950 . S
N232 C235 1.382 . S
N232 C237 1.363 . S
N233 C235 1.371 . S
N233 C236 1.372 . S
N234 C236 1.361 . S
N234 C237 1.377 . S
C235 N232 1.382 . S
C235 N233 1.371 . S
C235 C238 1.480 . S
C236 N233 1.372 . S
C236 N234 1.361 . S
C236 C244 1.457 . S
C237 N232 1.363 . S
C237 N234 1.377 . S
C237 C250 1.479 . S
C238 C235 1.480 . S
C238 C239 1.383 . S
C238 C243 1.385 . S
C239 H220 0.947 . S
C239 C238 1.383 . S
C239 C240 1.388 . S
C240 H221 0.946 . S
C240 C239 1.388 . S
C240 C241 1.384 . S
C241 C240 1.384 . S
C241 C242 1.377 . S
C242 H222 0.953 . S
C242 C241 1.377 . S
C242 C243 1.369 . S
C243 H223 0.945 . S
C243 C238 1.385 . S
C243 C242 1.369 . S
C244 C236 1.457 . S
C244 C245 1.372 . S
C244 C249 1.364 . S
C245 H224 0.952 . S
C245 C244 1.372 . S
C245 C246 1.389 . S
C246 H225 0.949 . S
C246 C245 1.389 . S
C246 C247 1.387 . S
C247 C246 1.387 . S
C247 C248 1.372 . S
C248 H226 0.950 . S
C248 C247 1.372 . S
C248 C249 1.379 . S
C249 H227 0.948 . S
C249 C244 1.364 . S
C249 C248 1.379 . S
C250 C219 1.383 . S
C250 C237 1.479 . S
C250 C251 1.398 . S
C251 C216 1.382 . S
C251 H228 0.951 . S
C251 C250 1.398 . S
C252 C253 1.384 . S
C252 H265 0.947 . S
C252 C287 1.382 . S
C253 C252 1.384 . S
C253 C254 1.378 . S
C254 C253 1.378 . S
C254 C255 1.378 . S
C254 H266 0.952 . S
C255 C254 1.378 . S
C255 H267 0.950 . S
C255 C286 1.383 . S
H256 C275 0.947 . S
H257 C276 0.946 . S
H258 C278 0.953 . S
H259 C279 0.945 . S
H260 C281 0.952 . S
H261 C282 0.949 . S
H262 C284 0.950 . S
H263 C285 0.948 . S
H264 C287 0.951 . S
H265 C252 0.947 . S
H266 C254 0.952 . S
H267 C255 0.950 . S
N268 C271 1.382 . S
N268 C273 1.363 . S
N269 C271 1.371 . S
N269 C272 1.372 . S
N270 C272 1.361 . S
N270 C273 1.377 . S
C271 N268 1.382 . S
C271 N269 1.371 . S
C271 C274 1.480 . S
C272 N269 1.372 . S
C272 N270 1.361 . S
C272 C280 1.457 . S
C273 N268 1.363 . S
C273 N270 1.377 . S
C273 C286 1.479 . S
C274 C271 1.480 . S
C274 C275 1.383 . S
C274 C279 1.385 . S
C275 H256 0.947 . S
C275 C274 1.383 . S
C275 C276 1.388 . S
C276 H257 0.946 . S
C276 C275 1.388 . S
C276 C277 1.384 . S
C277 C276 1.384 . S
C277 C278 1.377 . S
C278 H258 0.953 . S
C278 C277 1.377 . S
C278 C279 1.369 . S
C279 H259 0.945 . S
C279 C274 1.385 . S
C279 C278 1.369 . S
C280 C272 1.457 . S
C280 C281 1.372 . S
C280 C285 1.364 . S
C281 H260 0.952 . S
C281 C280 1.372 . S
C281 C282 1.389 . S
C282 H261 0.949 . S
C282 C281 1.389 . S
C282 C283 1.387 . S
C283 C282 1.387 . S
C283 C284 1.372 . S
C284 H262 0.950 . S
C284 C283 1.372 . S
C284 C285 1.379 . S
C285 H263 0.948 . S
C285 C280 1.364 . S
C285 C284 1.379 . S
C286 C255 1.383 . S
C286 C273 1.479 . S
C286 C287 1.398 . S
C287 C252 1.382 . S
C287 H264 0.951 . S
C287 C286 1.398 . S
Dy288 O292 2.398 . S
Dy288 O293 2.491 . S
Dy288 O294 2.403 1_545 S
Dy288 O295 2.664 1_545 S
Dy288 O299 2.326 . S
Dy288 O303 2.310 1_455 S
Dy288 O304 2.351 1_445 S
C289 O300 1.185 . S
C289 O301 1.355 . S
C290 O292 1.185 . S
C290 O293 1.355 . S
Dy291 O295 2.310 1_655 S
Dy291 O298 2.351 1_665 S
Dy291 O300 2.398 . S
Dy291 O301 2.491 . S
Dy291 O302 2.403 1_565 S
Dy291 O303 2.664 1_565 S
Dy291 O305 2.326 . S
O292 Dy288 2.398 . S
O292 C290 1.185 . S
O293 Dy288 2.491 . S
O293 C290 1.355 . S
O294 Dy288 2.403 1_565 S
O294 C296 1.254 . S
O295 Dy288 2.664 1_565 S
O295 Dy291 2.310 1_455 S
O295 C296 1.268 . S
C296 O294 1.254 . S
C296 O295 1.268 . S
C297 O302 1.254 . S
C297 O303 1.268 . S
O298 Dy291 2.351 1_445 S
O298 C306 1.249 . S
O299 Dy288 2.326 . S
O299 C306 1.267 . S
O300 C289 1.185 . S
O300 Dy291 2.398 . S
O301 C289 1.355 . S
O301 Dy291 2.491 . S
O302 Dy291 2.403 1_545 S
O302 C297 1.254 . S
O303 Dy288 2.310 1_655 S
O303 Dy291 2.664 1_545 S
O303 C297 1.268 . S
O304 Dy288 2.351 1_665 S
O304 C307 1.249 . S
O305 Dy291 2.326 . S
O305 C307 1.267 . S
C306 O298 1.249 . S
C306 O299 1.267 . S
C307 O304 1.249 . S
C307 O305 1.267 . S
Dy308 O312 2.398 . S
Dy308 O313 2.491 . S
Dy308 O314 2.403 1_545 S
Dy308 O315 2.664 1_545 S
Dy308 O319 2.326 . S
Dy308 O323 2.310 1_554 S
Dy308 O324 2.351 1_544 S
C309 O320 1.185 . S
C309 O321 1.355 . S
C310 O312 1.185 . S
C310 O313 1.355 . S
Dy311 O315 2.310 1_546 S
Dy311 O318 2.351 1_556 S
Dy311 O320 2.398 1_545 S
Dy311 O321 2.491 1_545 S
Dy311 O322 2.403 . S
Dy311 O323 2.664 . S
Dy311 O325 2.326 1_545 S
O312 Dy308 2.398 . S
O312 C310 1.185 . S
O313 Dy308 2.491 . S
O313 C310 1.355 . S
O314 Dy308 2.403 1_565 S
O314 C316 1.254 . S
O315 Dy308 2.664 1_565 S
O315 Dy311 2.310 1_564 S
O315 C316 1.268 . S
C316 O314 1.254 . S
C316 O315 1.268 . S
C317 O322 1.254 . S
C317 O323 1.268 . S
O318 Dy311 2.351 1_554 S
O318 C326 1.249 . S
O319 Dy308 2.326 . S
O319 C326 1.267 . S
O320 C309 1.185 . S
O320 Dy311 2.398 1_565 S
O321 C309 1.355 . S
O321 Dy311 2.491 1_565 S
O322 Dy311 2.403 . S
O322 C317 1.254 . S
O323 Dy308 2.310 1_556 S
O323 Dy311 2.664 . S
O323 C317 1.268 . S
O324 Dy308 2.351 1_566 S
O324 C327 1.249 . S
O325 Dy311 2.326 1_565 S
O325 C327 1.267 . S
C326 O318 1.249 . S
C326 O319 1.267 . S
C327 O324 1.249 . S
C327 O325 1.267 . S
Dy328 O332 2.398 . S
Dy328 O333 2.491 . S
Dy328 O334 2.403 . S
Dy328 O335 2.664 . S
Dy328 O339 2.326 . S
Dy328 O343 2.310 . S
Dy328 O344 2.351 . S
C329 O340 1.185 . S
C329 O341 1.355 . S
C330 O332 1.185 . S
C330 O333 1.355 . S
Dy331 O335 2.310 . S
Dy331 O338 2.351 . S
Dy331 O340 2.398 . S
Dy331 O341 2.491 . S
Dy331 O342 2.403 . S
Dy331 O343 2.664 . S
Dy331 O345 2.326 . S
O332 Dy328 2.398 . S
O332 C330 1.185 . S
O333 Dy328 2.491 . S
O333 C330 1.355 . S
O334 Dy328 2.403 . S
O334 C336 1.254 . S
O335 Dy328 2.664 . S
O335 Dy331 2.310 . S
O335 C336 1.268 . S
C336 O334 1.254 . S
C336 O335 1.268 . S
C337 O342 1.254 . S
C337 O343 1.268 . S
O338 Dy331 2.351 . S
O338 C346 1.249 . S
O339 Dy328 2.326 . S
O339 C346 1.267 . S
O340 C329 1.185 . S
O340 Dy331 2.398 . S
O341 C329 1.355 . S
O341 Dy331 2.491 . S
O342 Dy331 2.403 . S
O342 C337 1.254 . S
O343 Dy328 2.310 . S
O343 Dy331 2.664 . S
O343 C337 1.268 . S
O344 Dy328 2.351 . S
O344 C347 1.249 . S
O345 Dy331 2.326 . S
O345 C347 1.267 . S
C346 O338 1.249 . S
C346 O339 1.267 . S
C347 O344 1.249 . S
C347 O345 1.267 . S
Dy348 O352 2.398 . S
Dy348 O353 2.491 . S
Dy348 O354 2.403 1_455 S
Dy348 O355 2.664 1_455 S
Dy348 O359 2.326 . S
Dy348 O363 2.310 1_554 S
Dy348 O364 2.351 1_454 S
C349 O360 1.185 . S
C349 O361 1.355 . S
C350 O352 1.185 . S
C350 O353 1.355 . S
Dy351 O355 2.310 1_556 S
Dy351 O358 2.351 1_656 S
Dy351 O360 2.398 . S
Dy351 O361 2.491 . S
Dy351 O362 2.403 1_655 S
Dy351 O363 2.664 1_655 S
Dy351 O365 2.326 . S
O352 Dy348 2.398 . S
O352 C350 1.185 . S
O353 Dy348 2.491 . S
O353 C350 1.355 . S
O354 Dy348 2.403 1_655 S
O354 C356 1.254 . S
O355 Dy348 2.664 1_655 S
O355 Dy351 2.310 1_554 S
O355 C356 1.268 . S
C356 O354 1.254 . S
C356 O355 1.268 . S
C357 O362 1.254 . S
C357 O363 1.268 . S
O358 Dy351 2.351 1_454 S
O358 C366 1.249 . S
O359 Dy348 2.326 . S
O359 C366 1.267 . S
O360 C349 1.185 . S
O360 Dy351 2.398 . S
O361 C349 1.355 . S
O361 Dy351 2.491 . S
O362 Dy351 2.403 1_455 S
O362 C357 1.254 . S
O363 Dy348 2.310 1_556 S
O363 Dy351 2.664 1_455 S
O363 C357 1.268 . S
O364 Dy348 2.351 1_656 S
O364 C367 1.249 . S
O365 Dy351 2.326 . S
O365 C367 1.267 . S
C366 O358 1.249 . S
C366 O359 1.267 . S
C367 O364 1.249 . S
C367 O365 1.267 . S
C368 C369 1.369 . S
C368 C370 1.419 . S
C368 H372 0.930 . S
C369 C368 1.369 . S
C369 C378 1.429 . S
C370 C368 1.419 . S
C370 C371 1.363 . S
C370 H373 0.929 . S
C371 C370 1.363 . S
C371 C377 1.428 . S
H372 C368 0.930 . S
H373 C370 0.929 . S
S374 N375 1.613 . S
S374 N376 1.610 . S
N375 S374 1.613 . S
N375 C378 1.350 . S
N376 S374 1.610 . S
N376 C377 1.351 . S
C377 C371 1.428 . S
C377 N376 1.351 . S
C377 C378 1.434 . S
C378 C369 1.429 . S
C378 N375 1.350 . S
C378 C377 1.434 . S
C379 C380 1.369 . S
C379 C381 1.419 . S
C379 H383 0.930 . S
C380 C379 1.369 . S
C380 C389 1.429 . S
C381 C379 1.419 . S
C381 C382 1.363 . S
C381 H384 0.929 . S
C382 C381 1.363 . S
C382 C388 1.428 . S
H383 C379 0.930 . S
H384 C381 0.929 . S
S385 N386 1.613 1_545 S
S385 N387 1.599 1_545 S
N386 S385 1.613 1_565 S
N386 C389 1.350 . S
N387 S385 1.599 1_565 S
N387 C388 1.371 . S
C388 C382 1.428 . S
C388 N387 1.371 . S
C388 C389 1.434 . S
C389 C380 1.429 . S
C389 N386 1.350 . S
C389 C388 1.434 . S
C390 C391 1.369 . S
C390 C392 1.419 . S
C390 H394 0.930 . S
C391 C390 1.369 . S
C391 C400 1.429 . S
C392 C390 1.419 . S
C392 C393 1.363 . S
C392 H395 0.929 . S
C393 C392 1.363 . S
C393 C399 1.428 . S
H394 C390 0.930 . S
H395 C392 0.929 . S
S396 N397 1.613 . S
S396 N398 1.610 . S
N397 S396 1.613 . S
N397 C400 1.350 . S
N398 S396 1.610 . S
N398 C399 1.351 . S
C399 C393 1.428 . S
C399 N398 1.351 . S
C399 C400 1.434 . S
C400 C391 1.429 . S
C400 N397 1.350 . S
C400 C399 1.434 . S
C401 C402 1.369 . S
C401 C403 1.419 . S
C401 H405 0.930 . S
C402 C401 1.369 . S
C402 C411 1.429 . S
C403 C401 1.419 . S
C403 C404 1.363 . S
C403 H406 0.929 . S
C404 C403 1.363 . S
C404 C410 1.428 . S
H405 C401 0.930 . S
H406 C403 0.929 . S
S407 N408 1.613 1_455 S
S407 N409 1.610 . S
N408 S407 1.613 1_655 S
N408 C411 1.350 . S
N409 S407 1.610 . S
N409 C410 1.351 1_455 S
C410 C404 1.428 . S
C410 N409 1.351 1_655 S
C410 C411 1.434 . S
C411 C402 1.429 . S
C411 N408 1.350 . S
C411 C410 1.434 . S
C412 C413 1.369 . S
C412 C414 1.419 . S
C412 H416 0.930 . S
C413 C412 1.369 . S
C413 C422 1.429 . S
C414 C412 1.419 . S
C414 C415 1.363 . S
C414 H417 0.929 . S
C415 C414 1.363 . S
C415 C421 1.428 . S
H416 C412 0.930 . S
H417 C414 0.929 . S
S418 N419 1.613 . S
S418 N420 1.610 . S
N419 S418 1.613 . S
N419 C422 1.350 . S
N420 S418 1.610 . S
N420 C421 1.351 . S
C421 C415 1.428 . S
C421 N420 1.351 . S
C421 C422 1.434 . S
C422 C413 1.429 . S
C422 N419 1.350 . S
C422 C421 1.434 . S
C423 C424 1.369 . S
C423 C425 1.419 . S
C423 H427 0.930 . S
C424 C423 1.369 . S
C424 C433 1.429 . S
C425 C423 1.419 . S
C425 C426 1.363 . S
C425 H428 0.929 . S
C426 C425 1.363 . S
C426 C432 1.428 . S
H427 C423 0.930 . S
H428 C425 0.929 . S
S429 N430 1.613 . S
S429 N431 1.610 . S
N430 S429 1.613 . S
N430 C433 1.350 . S
N431 S429 1.610 . S
N431 C432 1.351 . S
C432 C426 1.428 . S
C432 N431 1.351 . S
C432 C433 1.434 . S
C433 C424 1.429 . S
C433 N430 1.350 . S
C433 C432 1.434 . S
C434 C435 1.369 . S
C434 C436 1.419 . S
C434 H438 0.930 . S
C435 C434 1.369 . S
C435 C444 1.429 . S
C436 C434 1.419 . S
C436 C437 1.363 . S
C436 H439 0.929 . S
C437 C436 1.363 . S
C437 C443 1.428 . S
H438 C434 0.930 . S
H439 C436 0.929 . S
S440 N441 1.613 . S
S440 N442 1.610 . S
N441 S440 1.613 . S
N441 C444 1.350 . S
N442 S440 1.610 . S
N442 C443 1.351 . S
C443 C437 1.428 . S
C443 N442 1.351 . S
C443 C444 1.434 . S
C444 C435 1.429 . S
C444 N441 1.350 . S
C444 C443 1.434 . S
C445 C446 1.369 . S
C445 C447 1.419 . S
C445 H449 0.930 . S
C446 C445 1.369 . S
C446 C455 1.429 . S
C447 C445 1.419 . S
C447 C448 1.363 . S
C447 H450 0.929 . S
C448 C447 1.363 . S
C448 C454 1.428 . S
H449 C445 0.930 . S
H450 C447 0.929 . S
S451 N452 1.613 . S
S451 N453 1.610 . S
N452 S451 1.613 . S
N452 C455 1.350 . S
N453 S451 1.610 . S
N453 C454 1.351 . S
C454 C448 1.428 . S
C454 N453 1.351 . S
C454 C455 1.434 . S
C455 C446 1.429 . S
C455 N452 1.350 . S
C455 C454 1.434 . S
C456 C457 1.369 . S
C456 C458 1.419 . S
C456 H460 0.930 . S
C457 C456 1.369 . S
C457 C466 1.429 . S
C458 C456 1.419 . S
C458 C459 1.363 . S
C458 H461 0.929 . S
C459 C458 1.363 . S
C459 C465 1.428 . S
H460 C456 0.930 . S
H461 C458 0.929 . S
S462 N463 1.613 . S
S462 N464 1.610 . S
N463 S462 1.613 . S
N463 C466 1.350 . S
N464 S462 1.610 . S
N464 C465 1.351 . S
C465 C459 1.428 . S
C465 N464 1.351 . S
C465 C466 1.434 . S
C466 C457 1.429 . S
C466 N463 1.350 . S
C466 C465 1.434 . S
C467 C468 1.369 . S
C467 C469 1.419 . S
C467 H471 0.930 . S
C468 C467 1.369 . S
C468 C477 1.429 . S
C469 C467 1.419 . S
C469 C470 1.363 . S
C469 H472 0.929 . S
C470 C469 1.363 . S
C470 C476 1.428 . S
H471 C467 0.930 . S
H472 C469 0.929 . S
S473 N474 1.613 . S
S473 N475 1.610 . S
N474 S473 1.613 . S
N474 C477 1.350 . S
N475 S473 1.610 . S
N475 C476 1.351 . S
C476 C470 1.428 . S
C476 N475 1.351 . S
C476 C477 1.434 . S
C477 C468 1.429 . S
C477 N474 1.350 . S
C477 C476 1.434 . S
C478 C479 1.369 . S
C478 C480 1.419 . S
C478 H482 0.930 . S
C479 C478 1.369 . S
C479 C488 1.429 . S
C480 C478 1.419 . S
C480 C481 1.363 . S
C480 H483 0.929 . S
C481 C480 1.363 . S
C481 C487 1.428 . S
H482 C478 0.930 . S
H483 C480 0.929 . S
S484 N485 1.613 1_455 S
S484 N486 1.610 . S
N485 S484 1.613 1_655 S
N485 C488 1.350 . S
N486 S484 1.610 . S
N486 C487 1.351 1_455 S
C487 C481 1.428 . S
C487 N486 1.351 1_655 S
C487 C488 1.434 . S
C488 C479 1.429 . S
C488 N485 1.350 . S
C488 C487 1.434 . S
C489 C490 1.369 . S
C489 C491 1.419 . S
C489 H493 0.930 . S
C490 C489 1.369 . S
C490 C499 1.429 . S
C491 C489 1.419 . S
C491 C492 1.363 . S
C491 H494 0.929 . S
C492 C491 1.363 . S
C492 C498 1.428 . S
H493 C489 0.930 . S
H494 C491 0.929 . S
S495 N496 1.613 . S
S495 N497 1.610 . S
N496 S495 1.613 . S
N496 C499 1.350 . S
N497 S495 1.610 . S
N497 C498 1.351 . S
C498 C492 1.428 . S
C498 N497 1.351 . S
C498 C499 1.434 . S
C499 C490 1.429 . S
C499 N496 1.350 . S
C499 C498 1.434 . S
C500 C501 1.369 . S
C500 C502 1.419 . S
C500 H504 0.930 . S
C501 C500 1.369 . S
C501 C510 1.429 . S
C502 C500 1.419 . S
C502 C503 1.363 . S
C502 H505 0.929 . S
C503 C502 1.363 . S
C503 C509 1.428 . S
H504 C500 0.930 . S
H505 C502 0.929 . S
S506 N507 1.613 . S
S506 N508 1.610 . S
N507 S506 1.613 . S
N507 C510 1.350 . S
N508 S506 1.610 . S
N508 C509 1.351 . S
C509 C503 1.428 . S
C509 N508 1.351 . S
C509 C510 1.434 . S
C510 C501 1.429 . S
C510 N507 1.350 . S
C510 C509 1.434 . S
C511 C512 1.369 . S
C511 C513 1.419 . S
C511 H515 0.930 . S
C512 C511 1.369 . S
C512 C521 1.429 . S
C513 C511 1.419 . S
C513 C514 1.363 . S
C513 H516 0.929 . S
C514 C513 1.363 . S
C514 C520 1.428 . S
H515 C511 0.930 . S
H516 C513 0.929 . S
S517 N518 1.613 . S
S517 N519 1.610 . S
N518 S517 1.613 . S
N518 C521 1.350 . S
N519 S517 1.610 . S
N519 C520 1.351 . S
C520 C514 1.428 . S
C520 N519 1.351 . S
C520 C521 1.434 . S
C521 C512 1.429 . S
C521 N518 1.350 . S
C521 C520 1.434 . S
C522 C523 1.369 . S
C522 C524 1.419 . S
C522 H526 0.930 . S
C523 C522 1.369 . S
C523 C532 1.429 . S
C524 C522 1.419 . S
C524 C525 1.363 . S
C524 H527 0.929 . S
C525 C524 1.363 . S
C525 C531 1.428 . S
H526 C522 0.930 . S
H527 C524 0.929 . S
S528 N529 1.613 . S
S528 N530 1.610 . S
N529 S528 1.613 . S
N529 C532 1.350 . S
N530 S528 1.610 . S
N530 C531 1.351 . S
C531 C525 1.428 . S
C531 N530 1.351 . S
C531 C532 1.434 . S
C532 C523 1.429 . S
C532 N529 1.350 . S
C532 C531 1.434 . S
C533 C534 1.369 . S
C533 C535 1.419 . S
C533 H537 0.930 . S
C534 C533 1.369 . S
C534 C543 1.429 . S
C535 C533 1.419 . S
C535 C536 1.363 . S
C535 H538 0.929 . S
C536 C535 1.363 . S
C536 C542 1.428 . S
H537 C533 0.930 . S
H538 C535 0.929 . S
S539 N540 1.613 . S
S539 N541 1.610 . S
N540 S539 1.613 . S
N540 C543 1.350 . S
N541 S539 1.610 . S
N541 C542 1.351 . S
C542 C536 1.428 . S
C542 N541 1.351 . S
C542 C543 1.434 . S
C543 C534 1.429 . S
C543 N540 1.350 . S
C543 C542 1.434 . S
C544 C545 1.369 . S
C544 C546 1.419 . S
C544 H548 0.930 . S
C545 C544 1.369 . S
C545 C554 1.429 . S
C546 C544 1.419 . S
C546 C547 1.363 . S
C546 H549 0.929 . S
C547 C546 1.363 . S
C547 C553 1.428 . S
H548 C544 0.930 . S
H549 C546 0.929 . S
S550 N551 1.613 . S
S550 N552 1.610 . S
N551 S550 1.613 . S
N551 C554 1.350 . S
N552 S550 1.610 . S
N552 C553 1.351 . S
C553 C547 1.428 . S
C553 N552 1.351 . S
C553 C554 1.434 . S
C554 C545 1.429 . S
C554 N551 1.350 . S
C554 C553 1.434 . S
C555 C556 1.369 . S
C555 C557 1.419 . S
C555 H559 0.930 . S
C556 C555 1.369 . S
C556 C565 1.429 . S
C557 C555 1.419 . S
C557 C558 1.363 . S
C557 H560 0.929 . S
C558 C557 1.363 . S
C558 C564 1.428 . S
H559 C555 0.930 . S
H560 C557 0.929 . S
S561 N562 1.613 . S
S561 N563 1.610 . S
N562 S561 1.613 . S
N562 C565 1.350 . S
N563 S561 1.610 . S
N563 C564 1.351 . S
C564 C558 1.428 . S
C564 N563 1.351 . S
C564 C565 1.434 . S
C565 C556 1.429 . S
C565 N562 1.350 . S
C565 C564 1.434 . S
C566 C567 1.369 . S
C566 C568 1.419 . S
C566 H570 0.930 . S
C567 C566 1.369 . S
C567 C576 1.429 . S
C568 C566 1.419 . S
C568 C569 1.363 . S
C568 H571 0.929 . S
C569 C568 1.363 . S
C569 C575 1.428 . S
H570 C566 0.930 . S
H571 C568 0.929 . S
S572 N573 1.613 1_556 S
S572 N574 1.609 1_556 S
N573 S572 1.613 1_554 S
N573 C576 1.350 . S
N574 S572 1.609 1_554 S
N574 C575 1.363 . S
C575 C569 1.428 . S
C575 N574 1.363 . S
C575 C576 1.434 . S
C576 C567 1.429 . S
C576 N573 1.350 . S
C576 C575 1.434 . S
C577 C578 1.369 . S
C577 C579 1.419 . S
C577 H581 0.930 . S
C578 C577 1.369 . S
C578 C587 1.429 . S
C579 C577 1.419 . S
C579 C580 1.363 . S
C579 H582 0.929 . S
C580 C579 1.363 . S
C580 C586 1.428 . S
H581 C577 0.930 . S
H582 C579 0.929 . S
S583 N584 1.613 . S
S583 N585 1.610 . S
N584 S583 1.613 . S
N584 C587 1.350 . S
N585 S583 1.610 . S
N585 C586 1.351 . S
C586 C580 1.428 . S
C586 N585 1.351 . S
C586 C587 1.434 . S
C587 C578 1.429 . S
C587 N584 1.350 . S
C587 C586 1.434 . S
C588 C589 1.369 . S
C588 C590 1.419 . S
C588 H592 0.930 . S
C589 C588 1.369 . S
C589 C598 1.429 . S
C590 C588 1.419 . S
C590 C591 1.363 . S
C590 H593 0.929 . S
C591 C590 1.363 . S
C591 C597 1.428 . S
H592 C588 0.930 . S
H593 C590 0.929 . S
S594 N595 1.613 . S
S594 N596 1.610 . S
N595 S594 1.613 . S
N595 C598 1.350 . S
N596 S594 1.610 . S
N596 C597 1.351 . S
C597 C591 1.428 . S
C597 N596 1.351 . S
C597 C598 1.434 . S
C598 C589 1.429 . S
C598 N595 1.350 . S
C598 C597 1.434 . S
C599 C600 1.369 . S
C599 C601 1.419 . S
C599 H603 0.930 . S
C600 C599 1.369 . S
C600 C609 1.429 . S
C601 C599 1.419 . S
C601 C602 1.363 . S
C601 H604 0.929 . S
C602 C601 1.363 . S
C602 C608 1.428 . S
H603 C599 0.930 . S
H604 C601 0.929 . S
S605 N606 1.613 . S
S605 N607 1.610 . S
N606 S605 1.613 . S
N606 C609 1.350 . S
N607 S605 1.610 . S
N607 C608 1.351 . S
C608 C602 1.428 . S
C608 N607 1.351 . S
C608 C609 1.434 . S
C609 C600 1.429 . S
C609 N606 1.350 . S
C609 C608 1.434 . S
C610 C611 1.369 . S
C610 C612 1.419 . S
C610 H614 0.930 . S
C611 C610 1.369 . S
C611 C620 1.429 . S
C612 C610 1.419 . S
C612 C613 1.363 . S
C612 H615 0.929 . S
C613 C612 1.363 . S
C613 C619 1.428 . S
H614 C610 0.930 . S
H615 C612 0.929 . S
S616 N617 1.613 1_655 S
S616 N618 1.610 . S
N617 S616 1.613 1_455 S
N617 C620 1.350 . S
N618 S616 1.610 . S
N618 C619 1.351 1_655 S
C619 C613 1.428 . S
C619 N618 1.351 1_455 S
C619 C620 1.434 . S
C620 C611 1.429 . S
C620 N617 1.350 . S
C620 C619 1.434 . S
C621 C622 1.369 . S
C621 C623 1.419 . S
C621 H625 0.930 . S
C622 C621 1.369 . S
C622 C631 1.429 . S
C623 C621 1.419 . S
C623 C624 1.363 . S
C623 H626 0.929 . S
C624 C623 1.363 . S
C624 C630 1.428 . S
H625 C621 0.930 . S
H626 C623 0.929 . S
S627 N628 1.613 . S
S627 N629 1.610 . S
N628 S627 1.613 . S
N628 C631 1.350 . S
N629 S627 1.610 . S
N629 C630 1.351 . S
C630 C624 1.428 . S
C630 N629 1.351 . S
C630 C631 1.434 . S
C631 C622 1.429 . S
C631 N628 1.350 . S
C631 C630 1.434 . S
C369 C1 1.566 . S
C371 C290 1.598 . S
C380 C67 1.353 . S
C382 C309 1.321 . S
C393 C346 1.745 . S
C391 C97 1.767 . S
C402 C133 1.767 . S
C404 C356 1.697 . S
C415 C326 2.027 . S
C413 C25 1.978 . S
C426 C296 1.390 . S
C424 C37 1.459 . S
C437 C367 1.528 . S
C435 C103 1.559 . S
C448 C337 1.465 . S
C446 C109 1.487 . S
C457 C31 1.736 . S
C459 C350 1.787 . S
C470 C317 1.693 . S
C468 C73 1.750 . S
C479 C139 1.770 . S
C481 C307 1.768 . S
C490 C61 1.243 . S
C492 C329 1.284 . S
C503 C289 1.603 . S
C501 C175 1.505 . S
C512 C181 1.328 . S
C514 C310 1.315 . S
C523 C247 1.798 . S
C525 C347 1.764 . S
C534 C277 1.757 . S
C536 C357 1.692 . S
C545 C145 1.900 . S
C547 C327 2.019 . S
C558 C297 1.388 . S
C556 C211 1.457 . S
C569 C366 1.519 . S
C567 C217 1.540 . S
C580 C336 1.480 . S
C578 C283 1.502 . S
C589 C169 1.664 . S
C591 C349 1.782 . S
C602 C316 1.699 . S
C600 C241 1.761 . S
C613 C306 1.757 . S
C611 C253 1.756 . S
C622 C205 1.275 . S
C624 C330 1.297 . S
