# Generated by pormake.
# Topology pth, (4,4)-cn, num edge types: 1
# Building blocks:
#     Node 0, Type 0, BuildingBlock: QUQFOY_clean_sbu_3, # of connection points: 4
#     Node 1, Type 0, BuildingBlock: QUQFOY_clean_sbu_3, # of connection points: 4
#     Node 2, Type 0, BuildingBlock: QUQFOY_clean_sbu_3, # of connection points: 4
#     Node 3, Type 1, BuildingBlock: NAHDIM_clean_linker_0, # of connection points: 4
#     Node 4, Type 1, BuildingBlock: NAHDIM_clean_linker_0, # of connection points: 4
#     Node 5, Type 1, BuildingBlock: NAHDIM_clean_linker_0, # of connection points: 4
#     Edge 6, Type (0, 1), BuildingBlock: OJICUG_clean_linker_0, # of connection points: 2
#     Edge 7, Type (0, 1), BuildingBlock: OJICUG_clean_linker_0, # of connection points: 2
#     Edge 8, Type (0, 1), BuildingBlock: OJICUG_clean_linker_0, # of connection points: 2
#     Edge 9, Type (0, 1), BuildingBlock: OJICUG_clean_linker_0, # of connection points: 2
#     Edge 10, Type (0, 1), BuildingBlock: OJICUG_clean_linker_0, # of connection points: 2
#     Edge 11, Type (0, 1), BuildingBlock: OJICUG_clean_linker_0, # of connection points: 2
#     Edge 12, Type (0, 1), BuildingBlock: OJICUG_clean_linker_0, # of connection points: 2
#     Edge 13, Type (0, 1), BuildingBlock: OJICUG_clean_linker_0, # of connection points: 2
#     Edge 14, Type (0, 1), BuildingBlock: OJICUG_clean_linker_0, # of connection points: 2
#     Edge 15, Type (0, 1), BuildingBlock: OJICUG_clean_linker_0, # of connection points: 2
#     Edge 16, Type (0, 1), BuildingBlock: OJICUG_clean_linker_0, # of connection points: 2
#     Edge 17, Type (0, 1), BuildingBlock: OJICUG_clean_linker_0, # of connection points: 2
# Relax obj value: 0.008
# Max RMSD: 0.056
# Mean RMSD: 0.048
data_MOF--net-pth--node1-QUQFOY_clean_sbu_3--node2-NAHDIM_clean_linker_0--edge1-OJICUG_clean_linker_0
_symmetry_space_group_name_H-M    P1
_symmetry_Int_Tables_number       1
_symmetry_cell_setting            triclinic
loop_
_symmetry_equiv_pos_as_xyz
'x, y, z'
_cell_length_a     25.965544
_cell_length_b     25.702967
_cell_length_c     67.926578
_cell_angle_alpha  89.673712
_cell_angle_beta   91.305621
_cell_angle_gamma 120.36123
loop_
_atom_site_label
_atom_site_type_symbol
_atom_site_fract_x
_atom_site_fract_y
_atom_site_fract_z
_atom_type_partial_charge
C0 C 0.96151 0.12185 0.08478 0.0
O1 O 0.91768 0.10984 0.07323 0.0
Cd2 Cd 0.9095 0.05919 0.0419 0.0
O3 O -0.00516 0.10012 0.0816 0.0
Cd4 Cd 0.00947 0.0327 0.06104 0.0
C5 C 0.05658 0.14282 0.02745 0.0
O6 O 0.911 0.96749 0.04588 0.0
O7 O 0.98761 0.96732 0.03364 0.0
O8 O -0.00532 0.9739 0.09004 0.0
C9 C 0.93191 0.94778 0.03296 0.0
O10 O 0.00146 0.12578 0.02496 0.0
C11 C 0.04524 0.97744 0.09017 0.0
O12 O 0.07446 0.12016 0.04084 0.0
O13 O 0.08072 0.00783 0.07649 0.0
C14 C 0.13945 0.07663 0.4162 0.0
O15 O 0.17489 0.10219 0.40215 0.0
Cd16 Cd 0.13796 0.11425 0.37062 0.0
O17 O 0.08476 0.06147 0.41449 0.0
Cd18 Cd 0.01277 0.06714 0.39198 0.0
C19 C 0.02055 0.96907 0.36168 0.0
O20 O 0.08074 0.16137 0.3765 0.0
O21 O -0.00552 0.10969 0.36205 0.0
O22 O 0.98293 0.10531 0.41931 0.0
C23 C 0.04556 0.15715 0.36255 0.0
O24 O 0.07164 0.01289 0.35718 0.0
C25 C 0.92907 0.06252 0.41909 0.0
O26 O -0.00982 0.97458 0.37509 0.0
O27 O 0.9135 0.02255 0.40573 0.0
C28 C 0.94894 0.09634 0.70137 0.0
O29 O 0.93923 0.12522 0.71447 0.0
Cd30 Cd 0.96811 0.1339 0.74838 0.0
O31 O 0.97943 0.07098 0.70507 0.0
Cd32 Cd 0.04037 0.0644 0.73275 0.0
C33 C 0.91248 0.98288 0.75881 0.0
O34 O 0.06873 0.1631 0.74344 0.0
O35 O 0.11111 0.1238 0.76047 0.0
O36 O 0.11221 0.07817 0.70794 0.0
C37 C 0.10373 0.16835 0.75744 0.0
O38 O 0.90882 0.0303 0.76032 0.0
C39 C 0.11642 0.0328 0.713 0.0
O40 O 0.95537 0.98372 0.74978 0.0
O41 O 0.08461 0.00149 0.7272 0.0
C42 C 0.88432 0.73199 0.30447 0.0
C43 C 0.93469 0.74375 0.31923 0.0
C44 C -0.00547 0.70673 0.30291 0.0
C45 C 0.05152 0.72587 0.29599 0.0
C46 C 0.06563 0.68517 0.28761 0.0
C47 C 0.02063 0.62395 0.28547 0.0
C48 C 0.96331 0.60363 0.29314 0.0
C49 C 0.95098 0.64522 0.30206 0.0
C50 C 0.12803 0.70821 0.2804 0.0
C51 C 0.91464 0.5384 0.2913 0.0
C52 C 0.18957 0.30082 0.28658 0.0
C53 C 0.14054 0.31084 0.29447 0.0
C54 C 0.13726 0.404 0.29585 0.0
C55 C 0.0748 0.37731 0.2946 0.0
C56 C 0.04854 0.41149 0.28903 0.0
C57 C 0.08558 0.47312 0.28447 0.0
C58 C 0.14816 0.50107 0.28743 0.0
C59 C 0.17313 0.46604 0.29327 0.0
C60 C 0.98157 0.38102 0.28675 0.0
C61 C 0.18894 0.56718 0.28325 0.0
C62 C 0.06025 0.35865 0.16322 0.0
C63 C 0.00593 0.35797 0.16421 0.0
C64 C 0.00403 0.4072 0.17211 0.0
C65 C 0.0577 0.45873 0.17853 0.0
C66 C 0.113 0.4619 0.17569 0.0
C67 C 0.11347 0.41148 0.16813 0.0
C68 C 0.94443 0.40322 0.17433 0.0
C69 C 0.17123 0.51725 0.1816 0.0
C70 C 0.11496 0.88751 0.17034 0.0
C71 C 0.10308 0.85357 0.15072 0.0
C72 C 0.05485 0.74718 0.16094 0.0
C73 C 0.00054 0.69275 0.16138 0.0
C74 C -0.00388 0.64177 0.17066 0.0
C75 C 0.04748 0.64569 0.17973 0.0
C76 C 0.10293 0.7002 0.17897 0.0
C77 C 0.10611 0.75038 0.16957 0.0
C78 C 0.93653 0.58412 0.17112 0.0
C79 C 0.15875 0.70569 0.18838 0.0
C80 C 0.03223 0.58253 0.27382 0.0
C81 C 0.04742 0.5443 0.28386 0.0
C82 C 0.06072 0.50584 0.27354 0.0
C83 C 0.05658 0.50352 0.25273 0.0
C84 C 0.06618 0.46271 0.24195 0.0
C85 C 0.06365 0.46193 0.2215 0.0
C86 C 0.05449 0.50397 0.211 0.0
C87 C 0.05497 0.50574 0.19019 0.0
C88 C 0.05089 0.55132 0.18028 0.0
C89 C 0.04347 0.5938 0.19065 0.0
C90 C 0.03735 0.58934 0.21131 0.0
C91 C 0.02456 0.628 0.22199 0.0
C92 C 0.02048 0.62429 0.24239 0.0
C93 C 0.03177 0.58369 0.25298 0.0
C94 C 0.04383 0.54384 0.24244 0.0
C95 C 0.04485 0.54548 0.22156 0.0
C96 C 0.04112 0.21676 0.17262 0.0
C97 C 0.01889 0.24959 0.15912 0.0
O98 O 0.98381 0.74985 0.30959 0.0
O99 O 0.05532 0.79521 0.15228 0.0
O100 O 0.06339 0.30961 0.15777 0.0
O101 O 0.16459 0.37139 0.2989 0.0
H102 H 0.9186 0.70593 0.3299 0.0
H103 H 0.86895 0.68926 0.29628 0.0
H104 H 0.89969 0.76919 0.29363 0.0
H105 H 0.84556 0.72825 0.31236 0.0
H106 H 0.08495 0.77337 0.29696 0.0
H107 H 0.90704 0.62964 0.30777 0.0
H108 H 0.14396 0.67679 0.28456 0.0
H109 H 0.1601 0.7537 0.28644 0.0
H110 H 0.12788 0.71111 0.2641 0.0
H111 H 0.87211 0.52989 0.29772 0.0
H112 H 0.92916 0.50942 0.29888 0.0
H113 H 0.90637 0.52478 0.27553 0.0
H114 H 0.10625 0.29697 0.28239 0.0
H115 H 0.17125 0.25236 0.28302 0.0
H116 H 0.22692 0.31557 0.29751 0.0
H117 H 0.20751 0.32723 0.27289 0.0
H118 H 0.04649 0.32967 0.29745 0.0
H119 H 0.22117 0.48638 0.29477 0.0
H120 H 0.96535 0.40941 0.29334 0.0
H121 H 0.95872 0.33588 0.29374 0.0
H122 H 0.96901 0.37544 0.27084 0.0
H123 H 0.2362 0.58279 0.28741 0.0
H124 H 0.17429 0.59445 0.29148 0.0
H125 H 0.18635 0.57565 0.26731 0.0
H126 H 0.97832 0.24438 0.16612 0.0
H127 H 0.96476 0.31904 0.15911 0.0
H128 H 0.15537 0.41228 0.16673 0.0
H129 H 0.93664 0.40668 0.19016 0.0
H130 H 0.9068 0.36038 0.1683 0.0
H131 H 0.9446 0.44152 0.16664 0.0
H132 H 0.21029 0.51629 0.17569 0.0
H133 H 0.1757 0.52012 0.19791 0.0
H134 H 0.17194 0.55858 0.17631 0.0
H135 H 0.14375 0.85258 0.14653 0.0
H136 H 0.15208 0.93479 0.16885 0.0
H137 H 0.12784 0.86581 0.18208 0.0
H138 H 0.07442 0.88784 0.17505 0.0
H139 H 0.9613 0.69056 0.1546 0.0
H140 H 0.14868 0.79185 0.16925 0.0
H141 H 0.92372 0.57094 0.18663 0.0
H142 H 0.94003 0.54722 0.16405 0.0
H143 H 0.90066 0.58844 0.16344 0.0
H144 H 0.19916 0.74982 0.18535 0.0
H145 H 0.16574 0.66912 0.18292 0.0
H146 H 0.15349 0.70051 0.20457 0.0
H147 H 0.05072 0.54585 0.29982 0.0
H148 H 0.07533 0.43049 0.24915 0.0
H149 H 0.07067 0.42894 0.21409 0.0
H150 H 0.05397 0.55402 0.16436 0.0
H151 H 0.01706 0.66119 0.21466 0.0
H152 H 0.00981 0.65477 0.24977 0.0
H153 H 0.00682 0.16813 0.17351 0.0
H154 H 0.04991 0.23646 0.18768 0.0
H155 H 0.08321 0.22121 0.1672 0.0
C156 C 0.29833 0.93585 0.68789 0.0
C157 C 0.2899 0.9844 0.67759 0.0
C158 C 0.31793 0.98998 0.64362 0.0
C159 C 0.35945 0.05157 0.64163 0.0
C160 C 0.40593 0.07132 0.62824 0.0
C161 C 0.41086 0.02842 0.61672 0.0
C162 C 0.36684 0.96656 0.61789 0.0
C163 C 0.32027 0.94824 0.63119 0.0
C164 C 0.45108 0.13773 0.62694 0.0
C165 C 0.37065 0.91953 0.60582 0.0
C166 C 0.82067 0.04918 0.66895 0.0
C167 C 0.77502 0.0336 0.6531 0.0
C168 C 0.70493 0.06593 0.64219 0.0
C169 C 0.67109 0.01834 0.62894 0.0
C170 C 0.62602 0.01809 0.6171 0.0
C171 C 0.61649 0.06766 0.618 0.0
C172 C 0.65175 0.11638 0.63097 0.0
C173 C 0.69488 0.11428 0.64314 0.0
C174 C 0.58795 0.96421 0.60394 0.0
C175 C 0.64348 0.17032 0.63216 0.0
C176 C 0.71609 0.07912 0.49382 0.0
C177 C 0.6716 0.02737 0.5032 0.0
C178 C 0.62375 0.02763 0.51217 0.0
C179 C 0.62119 0.08131 0.51241 0.0
C180 C 0.66572 0.13353 0.50305 0.0
C181 C 0.71243 0.13155 0.49373 0.0
C182 C 0.57637 0.9705 0.52166 0.0
C183 C 0.6645 0.19157 0.50324 0.0
C184 C 0.17248 0.01151 0.50789 0.0
C185 C 0.22134 0.04119 0.49253 0.0
C186 C 0.30457 0.02208 0.4955 0.0
C187 C 0.31561 0.97589 0.50062 0.0
C188 C 0.37154 0.98891 0.5082 0.0
C189 C 0.4173 0.04978 0.51063 0.0
C190 C 0.40807 0.09657 0.50388 0.0
C191 C 0.35182 0.08223 0.4962 0.0
C192 C 0.3808 0.93779 0.51453 0.0
C193 C 0.45687 0.16178 0.5056 0.0
C194 C 0.46559 0.04723 0.60539 0.0
C195 C 0.51518 0.05273 0.61574 0.0
C196 C 0.56766 0.0671 0.60615 0.0
C197 C 0.5713 0.07655 0.58562 0.0
C198 C 0.62378 0.09188 0.57555 0.0
C199 C 0.62508 0.09566 0.55513 0.0
C200 C 0.5741 0.0848 0.54407 0.0
C201 C 0.57306 0.08272 0.52327 0.0
C202 C 0.5222 0.07319 0.51267 0.0
C203 C 0.47161 0.06441 0.52241 0.0
C204 C 0.47123 0.06479 0.54322 0.0
C205 C 0.42046 0.05477 0.55348 0.0
C206 C 0.41889 0.05035 0.5739 0.0
C207 C 0.46801 0.05589 0.58481 0.0
C208 C 0.52079 0.06952 0.57486 0.0
C209 C 0.52234 0.07395 0.55405 0.0
C210 C 0.80868 0.0334 0.50287 0.0
C211 C 0.77611 0.03461 0.48391 0.0
O212 O 0.27642 0.9697 0.65782 0.0
O213 O 0.24791 0.00662 0.49013 0.0
O214 O 0.76317 0.08066 0.48484 0.0
O215 O 0.74618 0.06626 0.6548 0.0
H216 H 0.33331 0.02726 0.67959 0.0
H217 H 0.3388 0.93714 0.68226 0.0
H218 H 0.25961 0.89014 0.68483 0.0
H219 H 0.30451 0.94414 0.70404 0.0
H220 H 0.35613 0.08406 0.65078 0.0
H221 H 0.28728 0.90087 0.63268 0.0
H222 H 0.49401 0.14662 0.6338 0.0
H223 H 0.43625 0.16583 0.63459 0.0
H224 H 0.45946 0.15171 0.61129 0.0
H225 H 0.33339 0.8732 0.60871 0.0
H226 H 0.41357 0.92126 0.60915 0.0
H227 H 0.36976 0.92915 0.58991 0.0
H228 H 0.74458 0.9843 0.65071 0.0
H229 H 0.80482 0.00616 0.67747 0.0
H230 H 0.81033 0.07224 0.68102 0.0
H231 H 0.90193 0.09143 0.65411 0.0
H232 H 0.67828 0.98049 0.62815 0.0
H233 H 0.72137 0.15072 0.65346 0.0
H234 H 0.60055 0.97657 0.58839 0.0
H235 H 0.53998 0.94983 0.60512 0.0
H236 H 0.59376 0.92529 0.60762 0.0
H237 H 0.68057 0.20832 0.64053 0.0
H238 H 0.60109 0.1572 0.63964 0.0
H239 H 0.6404 0.18612 0.61716 0.0
H240 H 0.73432 0.99037 0.48208 0.0
H241 H 0.67358 0.98643 0.50379 0.0
H242 H 0.7469 0.17132 0.48653 0.0
H243 H 0.58151 0.97551 0.53792 0.0
H244 H 0.57947 0.93052 0.5174 0.0
H245 H 0.53112 0.96194 0.51751 0.0
H246 H 0.70359 0.22884 0.49586 0.0
H247 H 0.66383 0.2052 0.51868 0.0
H248 H 0.62306 0.18453 0.49569 0.0
H249 H 0.25306 0.08656 0.49873 0.0
H250 H 0.14606 0.03454 0.50851 0.0
H251 H 0.19342 0.01517 0.52265 0.0
H252 H 0.1423 0.96283 0.50462 0.0
H253 H 0.27939 0.92954 0.49945 0.0
H254 H 0.34513 0.11828 0.49106 0.0
H255 H 0.38391 0.93717 0.53085 0.0
H256 H 0.42339 0.94452 0.50874 0.0
H257 H 0.3437 0.89329 0.50937 0.0
H258 H 0.44375 0.19275 0.49866 0.0
H259 H 0.49784 0.16824 0.49853 0.0
H260 H 0.4681 0.17426 0.52139 0.0
H261 H 0.51244 0.04442 0.63147 0.0
H262 H 0.66401 0.09978 0.58332 0.0
H263 H 0.66624 0.10625 0.5481 0.0
H264 H 0.5211 0.07015 0.49673 0.0
H265 H 0.3809 0.0491 0.54583 0.0
H266 H 0.37835 0.04144 0.58101 0.0
H267 H 0.82072 -0.00228 0.5019 0.0
H268 H 0.77944 0.0235 0.51569 0.0
H269 H 0.84996 0.07761 0.50551 0.0
C270 C 0.70074 0.70618 0.76142 0.0
C271 C 0.71115 0.74923 0.77853 0.0
C272 C 0.67831 0.70112 0.81037 0.0
C273 C 0.64619 0.7283 0.8166 0.0
C274 C 0.6016 0.70037 0.83065 0.0
C275 C 0.58929 0.64442 0.83867 0.0
C276 C 0.6236 0.61842 0.83307 0.0
C277 C 0.66832 0.64768 0.81914 0.0
C278 C 0.56689 0.73002 0.83669 0.0
C279 C 0.61179 0.55883 0.84133 0.0
C280 C 0.23759 0.4519 0.76733 0.0
C281 C 0.24835 0.41497 0.78294 0.0
C282 C 0.27811 0.44963 0.81649 0.0
C283 C 0.31313 0.42339 0.82059 0.0
C284 C 0.361 0.4502 0.83417 0.0
C285 C 0.37393 0.50434 0.84374 0.0
C286 C 0.33574 0.52818 0.84078 0.0
C287 C 0.28758 0.49986 0.82729 0.0
C288 C 0.39973 0.42255 0.83746 0.0
C289 C 0.34801 0.58552 0.85092 0.0
C290 C 0.31595 0.41341 0.97405 0.0
C291 C 0.34364 0.38954 0.96284 0.0
C292 C 0.39166 0.42703 0.95087 0.0
C293 C 0.411 0.48933 0.94986 0.0
C294 C 0.38299 0.51339 0.96134 0.0
C295 C 0.33624 0.47506 0.97358 0.0
C296 C 0.42153 0.40008 0.93929 0.0
C297 C 0.40216 0.57941 0.96064 0.0
C298 C 0.87723 0.86188 0.94444 0.0
C299 C 0.82529 0.83339 0.95868 0.0
C300 C 0.74227 0.72915 0.95565 0.0
C301 C 0.72841 0.67191 0.94925 0.0
C302 C 0.66974 0.62846 0.94381 0.0
C303 C 0.62434 0.64338 0.9446 0.0
C304 C 0.63712 0.6993 0.95273 0.0
C305 C 0.69592 0.74132 0.95852 0.0
C306 C 0.65701 0.56809 0.93608 0.0
C307 C 0.58921 0.71573 0.95445 0.0
C308 C 0.5381 0.61106 0.85189 0.0
C309 C 0.48159 0.57631 0.84316 0.0
C310 C 0.43168 0.5402 0.85446 0.0
C311 C 0.43803 0.53778 0.87509 0.0
C312 C 0.38908 0.50053 0.88683 0.0
C313 C 0.39622 0.49802 0.90713 0.0
C314 C 0.45265 0.53244 0.91641 0.0
C315 C 0.46083 0.52944 0.93697 0.0
C316 C 0.51727 0.56533 0.94575 0.0
C317 C 0.56608 0.60447 0.93451 0.0
C318 C 0.55915 0.6075 0.91391 0.0
C319 C 0.60767 0.64629 0.90217 0.0
C320 C 0.6009 0.64762 0.88187 0.0
C321 C 0.54514 0.61108 0.87255 0.0
C322 C 0.49509 0.57347 0.88416 0.0
C323 C 0.50229 0.5711 0.90484 0.0
C324 C 0.18174 0.38027 0.97601 0.0
C325 C 0.21179 0.34211 0.97763 0.0
O326 O 0.71889 0.72513 0.79589 0.0
O327 O 0.80073 0.77139 0.95842 0.0
O328 O 0.26916 0.37697 0.98531 0.0
O329 O 0.23754 0.42955 0.8014 0.0
H330 H 0.67034 0.75306 0.77888 0.0
H331 H 0.65852 0.66288 0.76358 0.0
H332 H 0.73765 0.69635 0.76056 0.0
H333 H 0.69686 0.7259 0.74725 0.0
H334 H 0.65579 0.77119 0.81046 0.0
H335 H 0.69417 0.62772 0.81445 0.0
H336 H 0.51993 0.70246 0.83129 0.0
H337 H 0.5859 0.77629 0.83069 0.0
H338 H 0.56625 0.73228 0.853 0.0
H339 H 0.64088 0.54356 0.83487 0.0
H340 H 0.56442 0.52376 0.83847 0.0
H341 H 0.61945 0.56287 0.85753 0.0
H342 H 0.29626 0.42839 0.78166 0.0
H343 H 0.2434 0.43882 0.75234 0.0
H344 H 0.27039 0.50059 0.7696 0.0
H345 H 0.1921 0.44546 0.76831 0.0
H346 H 0.30425 0.38312 0.81269 0.0
H347 H 0.25951 0.51907 0.82419 0.0
H348 H 0.40928 0.42152 0.85344 0.0
H349 H 0.44303 0.45062 0.83015 0.0
H350 H 0.37857 0.37599 0.83139 0.0
H351 H 0.31258 0.59672 0.8477 0.0
H352 H 0.3914 0.62352 0.84606 0.0
H353 H 0.35158 0.58119 0.86709 0.0
H354 H 0.21335 0.32562 0.96263 0.0
H355 H 0.32757 0.34161 0.96355 0.0
H356 H 0.31442 0.49275 0.98251 0.0
H357 H 0.41144 0.40068 0.92335 0.0
H358 H 0.40616 0.35276 0.94359 0.0
H359 H 0.47076 0.42731 0.94146 0.0
H360 H 0.37029 0.58909 0.96813 0.0
H361 H 0.40645 0.59487 0.94515 0.0
H362 H 0.44656 0.60599 0.96805 0.0
H363 H 0.79301 0.84668 0.95311 0.0
H364 H 0.89881 0.91183 0.94485 0.0
H365 H 0.86029 0.84615 0.92919 0.0
H366 H 0.9112 0.84904 0.94817 0.0
H367 H 0.76421 0.66225 0.94769 0.0
H368 H 0.70537 0.78388 0.96483 0.0
H369 H 0.65126 0.56694 0.91981 0.0
H370 H 0.61491 0.53127 0.94219 0.0
H371 H 0.69389 0.55939 0.93975 0.0
H372 H 0.60674 0.76164 0.96071 0.0
H373 H 0.5535 0.68271 0.96405 0.0
H374 H 0.56865 0.7135 0.93973 0.0
H375 H 0.47649 0.57669 0.82726 0.0
H376 H 0.34478 0.47276 0.88042 0.0
H377 H 0.35698 0.46857 0.91544 0.0
H378 H 0.52319 0.56311 0.96154 0.0
H379 H 0.65171 0.67576 0.90848 0.0
H380 H 0.6399 0.67778 0.87356 0.0
H381 H 0.18031 0.39827 -0.00931 0.0
H382 H 0.1355 0.35304 0.96991 0.0
H383 H 0.20692 0.4187 0.96591 0.0
C384 C 0.03477 0.19476 0.10903 0.0
C385 C 0.97511 0.16028 0.10237 0.0
H386 H 0.09514 0.25062 0.13188 0.0
C387 C 0.92979 0.15892 0.11362 0.0
H388 H 0.07066 0.19704 0.10053 0.0
C389 C 0.94388 0.18897 0.13183 0.0
C390 C 0.00348 0.22145 0.13881 0.0
H391 H 0.88348 0.13243 0.10881 0.0
H392 H 0.90814 0.1856 0.14067 0.0
C393 C 0.04883 0.22534 0.12697 0.0
C394 C 0.83379 0.00323 0.43697 0.0
C395 C 0.8878 0.05746 0.43452 0.0
H396 H 0.75675 0.95342 0.45458 0.0
C397 C 0.90386 0.10537 0.44776 0.0
H398 H 0.82044 0.96543 0.42707 0.0
C399 C 0.86713 0.09865 0.46343 0.0
C400 C 0.81395 0.04373 0.46623 0.0
H401 H 0.94527 0.14775 0.44621 0.0
H402 H 0.88078 0.13592 0.4736 0.0
C403 C 0.79742 -0.0037 0.45275 0.0
C404 C 0.87029 0.8742 0.76777 0.0
C405 C 0.8633 0.92483 0.76602 0.0
H406 H 0.82832 0.77956 0.77364 0.0
C407 C 0.80737 0.91838 0.76983 0.0
H408 H 0.91296 0.87782 0.76513 0.0
C409 C 0.75875 0.86196 0.7743 0.0
C410 C 0.76509 0.81088 0.77523 0.0
H411 H 0.80046 0.95646 0.76863 0.0
H412 H 0.71577 0.85804 0.77658 0.0
C413 C 0.82182 0.81792 0.77256 0.0
C414 C 0.1173 0.95151 0.10627 0.0
C415 C 0.06092 0.94664 0.10554 0.0
H416 H 0.17488 0.92605 0.1212 0.0
C417 C 0.01873 0.91147 0.11967 0.0
H418 H 0.15077 0.97851 0.09563 0.0
C419 C 0.03238 0.88146 0.13416 0.0
C420 C 0.08845 0.88565 0.1348 0.0
H421 H 0.9749 0.9069 0.11956 0.0
H422 H -0.00097 0.85481 0.14489 0.0
C423 C 0.13104 0.92145 0.12085 0.0
C424 C 0.12257 0.01693 0.44677 0.0
C425 C 0.16133 0.06575 0.43505 0.0
H426 H 0.11067 0.96922 0.47357 0.0
C427 C 0.21977 0.10515 0.44192 0.0
H428 H 0.07753 0.9853 0.44162 0.0
C429 C 0.23832 0.09715 0.46059 0.0
C430 C 0.19904 0.04935 0.47263 0.0
H431 H 0.25054 0.14306 0.43312 0.0
H432 H 0.28338 0.12869 0.46568 0.0
C433 C 0.14154 0.00807 0.46519 0.0
C434 C 0.20015 0.25135 0.77113 0.0
C435 C 0.13867 0.22644 0.7677 0.0
H436 H 0.28326 0.33121 0.77825 0.0
C437 C 0.1122 0.26127 0.77137 0.0
H438 H 0.22145 0.22528 0.76826 0.0
C439 C 0.14712 0.32122 0.77743 0.0
C440 C 0.20944 0.34798 0.77919 0.0
H441 H 0.06466 0.24263 0.7689 0.0
H442 H 0.12569 0.34737 0.77986 0.0
C443 C 0.23541 0.31194 0.77667 0.0
C444 C 0.89786 0.02245 0.66765 0.0
C445 C 0.92189 0.09035 0.68189 0.0
H446 H 0.83354 0.96521 0.63794 0.0
C447 C 0.90744 0.14886 0.67383 0.0
H448 H 0.90813 0.98883 0.67288 0.0
C449 C 0.86377 0.13936 0.65186 0.0
C450 C 0.82565 0.06176 0.64126 0.0
H451 H 0.92358 0.18934 0.68263 0.0
H452 H 0.85048 0.17178 0.64787 0.0
C453 C 0.85339 0.00834 0.64543 0.0
C454 C 0.91208 0.87149 0.00734 0.0
C455 C 0.89615 0.91049 0.01611 0.0
H456 H 0.90109 0.8156 0.98257 0.0
C457 C 0.85235 0.91964 0.007 0.0
H458 H 0.94562 0.86361 0.01419 0.0
C459 C 0.82788 0.89326 -0.01138 0.0
C460 C 0.84634 0.8568 0.97936 0.0
H461 H 0.83981 0.94998 0.01345 0.0
H462 H 0.79613 0.90296 0.98136 0.0
C463 C 0.88696 0.84439 -0.01076 0.0
C464 C 0.95427 0.85662 0.35936 0.0
C465 C -0.00378 0.91153 0.35085 0.0
H466 H 0.90231 0.76025 0.35609 0.0
C467 C 0.01542 0.91136 0.33173 0.0
H468 H 0.93848 0.8556 0.37406 0.0
C469 C -0.0059 0.85741 0.32143 0.0
C470 C 0.95438 0.80207 0.33022 0.0
H471 H 0.04681 0.95308 0.32465 0.0
H472 H 0.0096 0.85887 0.30665 0.0
C473 C 0.93369 0.80221 0.34914 0.0
C474 C 0.15358 0.96218 0.70588 0.0
C475 C 0.15805 0.01851 0.70324 0.0
H476 H 0.1894 0.9057 0.69965 0.0
C477 C 0.20367 0.06181 0.69156 0.0
H478 H 0.11828 0.92761 0.71457 0.0
C479 C 0.24537 0.04983 0.6833 0.0
C480 C 0.24239 -0.0057 0.68645 0.0
H481 H 0.20802 0.10555 0.68915 0.0
H482 H 0.28069 0.08445 0.67463 0.0
C483 C 0.19474 0.94979 0.69734 0.0
C484 C 0.15461 0.23654 0.02208 0.0
C485 C 0.09964 0.19041 0.01457 0.0
H486 H 0.23276 0.32163 0.01666 0.0
C487 C 0.08367 0.19226 -0.00519 0.0
H488 H 0.16748 0.23624 0.03735 0.0
C489 C 0.12146 0.24007 0.98283 0.0
C490 C 0.17544 0.28773 -0.00956 0.0
H491 H 0.04148 0.157 -0.01131 0.0
H492 H 0.10767 0.24084 0.9677 0.0
C493 C 0.19185 0.28536 0.01021 0.0
C494 C 0.03312 0.1856 0.32824 0.0
C495 C 0.0672 0.19913 0.34581 0.0
H496 H 0.02993 0.21014 0.29822 0.0
C497 C 0.12411 0.2511 0.3468 0.0
H498 H -0.01082 0.14574 0.32702 0.0
C499 C 0.14716 0.28796 0.33038 0.0
C500 C 0.11385 0.27343 0.31263 0.0
H501 H 0.15138 0.26269 0.36016 0.0
H502 H 0.19157 0.32721 0.3314 0.0
C503 C 0.05642 0.22227 0.31175 0.0
loop_
_geom_bond_atom_site_label_1
_geom_bond_atom_site_label_2
_geom_bond_distance
_geom_bond_site_symmetry_2
_ccdc_geom_bond_type
C0 O1 1.306 1_455 S
C0 O3 1.160 . S
O1 C0 1.306 1_655 S
O1 Cd2 2.228 . S
Cd2 O1 2.228 . S
Cd2 O6 2.273 . S
Cd2 O10 2.277 1_655 S
O3 C0 1.160 . S
O3 Cd4 2.203 . S
Cd4 O3 2.203 . S
Cd4 O6 2.411 1_455 S
Cd4 O7 2.333 1_445 S
Cd4 O8 2.352 1_445 S
Cd4 O12 2.277 . S
Cd4 O13 2.356 1_545 S
C5 O10 1.209 . S
C5 O12 1.226 . S
O6 Cd2 2.273 . S
O6 Cd4 2.411 1_655 S
O6 C9 1.320 1_545 S
O7 Cd4 2.333 1_665 S
O7 C9 1.214 . S
O8 Cd4 2.352 1_665 S
O8 C11 1.258 1_655 S
C9 O6 1.320 1_565 S
C9 O7 1.214 . S
O10 Cd2 2.277 1_455 S
O10 C5 1.209 . S
C11 O8 1.258 1_455 S
C11 O13 1.282 . S
O12 Cd4 2.277 . S
O12 C5 1.226 . S
O13 Cd4 2.356 1_565 S
O13 C11 1.282 . S
C14 O15 1.306 . S
C14 O17 1.160 . S
O15 C14 1.306 . S
O15 Cd16 2.228 . S
Cd16 O15 2.228 . S
Cd16 O20 2.273 . S
Cd16 O24 2.277 . S
O17 C14 1.160 . S
O17 Cd18 2.203 . S
Cd18 O17 2.203 . S
Cd18 O20 2.411 . S
Cd18 O21 2.333 1_455 S
Cd18 O22 2.352 1_455 S
Cd18 O26 2.277 1_445 S
Cd18 O27 2.358 1_445 S
C19 O24 1.209 1_565 S
C19 O26 1.226 1_455 S
O20 Cd16 2.273 . S
O20 Cd18 2.411 . S
O20 C23 1.320 . S
O21 Cd18 2.333 1_655 S
O21 C23 1.214 1_655 S
O22 Cd18 2.352 1_655 S
O22 C25 1.258 . S
C23 O20 1.320 . S
C23 O21 1.214 1_455 S
O24 Cd16 2.277 . S
O24 C19 1.209 1_545 S
C25 O22 1.258 . S
C25 O27 1.274 1_545 S
O26 Cd18 2.277 1_665 S
O26 C19 1.226 1_655 S
O27 Cd18 2.358 1_665 S
O27 C25 1.274 1_565 S
C28 O29 1.306 . S
C28 O31 1.160 . S
O29 C28 1.306 . S
O29 Cd30 2.228 . S
Cd30 O29 2.228 . S
Cd30 O34 2.273 1_655 S
Cd30 O38 2.277 . S
O31 C28 1.160 . S
O31 Cd32 2.203 1_655 S
Cd32 O31 2.203 1_455 S
Cd32 O34 2.411 . S
Cd32 O35 2.333 . S
Cd32 O36 2.352 . S
Cd32 O40 2.277 1_445 S
Cd32 O41 2.356 . S
C33 O38 1.209 1_565 S
C33 O40 1.226 . S
O34 Cd30 2.273 1_455 S
O34 Cd32 2.411 . S
O34 C37 1.320 . S
O35 Cd32 2.333 . S
O35 C37 1.214 . S
O36 Cd32 2.352 . S
O36 C39 1.258 . S
C37 O34 1.320 . S
C37 O35 1.214 . S
O38 Cd30 2.277 . S
O38 C33 1.209 1_545 S
C39 O36 1.258 . S
C39 O41 1.282 . S
O40 Cd32 2.277 1_665 S
O40 C33 1.226 . S
O41 Cd32 2.356 . S
O41 C39 1.282 . S
C42 C43 1.560 1_655 S
C42 H103 0.959 . S
C42 H104 0.959 . S
C42 H105 0.960 . S
C43 C42 1.560 1_455 S
C43 O98 1.426 1_455 S
C43 H102 0.980 . S
C44 C45 1.407 . S
C44 C49 1.418 1_455 S
C44 O98 1.334 1_455 S
C45 C44 1.407 . S
C45 C46 1.360 . S
C45 H106 0.929 . S
C46 C45 1.360 . S
C46 C47 1.401 . S
C46 C50 1.527 . S
C47 C46 1.401 . S
C47 C48 1.405 1_455 S
C47 C80 1.587 . S
C48 C47 1.405 1_655 S
C48 C49 1.332 . S
C48 C51 1.496 . S
C49 C44 1.418 1_655 S
C49 C48 1.332 . S
C49 H107 0.929 . S
C50 C46 1.527 . S
C50 H108 0.959 . S
C50 H109 0.961 . S
C50 H110 0.961 . S
C51 C48 1.496 . S
C51 H111 0.960 . S
C51 H112 0.960 . S
C51 H113 0.961 . S
C52 C53 1.517 . S
C52 H115 0.961 . S
C52 H116 0.960 . S
C52 H117 0.959 . S
C53 C52 1.517 . S
C53 O101 1.468 . S
C53 H114 0.980 . S
C54 C55 1.349 . S
C54 C59 1.367 . S
C54 O101 1.408 . S
C55 C54 1.349 . S
C55 C56 1.407 . S
C55 H118 0.930 . S
C56 C55 1.407 . S
C56 C57 1.449 . S
C56 C60 1.535 1_455 S
C57 C56 1.449 . S
C57 C58 1.384 . S
C57 C82 1.553 . S
C58 C57 1.384 . S
C58 C59 1.364 . S
C58 C61 1.450 . S
C59 C54 1.367 . S
C59 C58 1.364 . S
C59 H119 0.931 . S
C60 C56 1.535 1_655 S
C60 H120 0.959 . S
C60 H121 0.961 . S
C60 H122 0.959 . S
C61 C58 1.450 . S
C61 H123 0.960 . S
C61 H124 0.960 . S
C61 H125 0.960 . S
C62 C63 1.309 . S
C62 C67 1.304 . S
C62 O100 1.435 . S
C63 C62 1.309 . S
C63 C64 1.476 . S
C63 H127 0.930 . S
C64 C63 1.476 . S
C64 C65 1.400 . S
C64 C68 1.567 1_455 S
C65 C64 1.400 . S
C65 C66 1.373 . S
C65 C87 1.432 . S
C66 C65 1.373 . S
C66 C67 1.339 . S
C66 C69 1.530 . S
C67 C62 1.304 . S
C67 C66 1.339 . S
C67 H128 0.930 . S
C68 C64 1.567 1_655 S
C68 H129 0.961 . S
C68 H130 0.960 . S
C68 H131 0.958 . S
C69 C66 1.530 . S
C69 H132 0.961 . S
C69 H133 0.960 . S
C69 H134 0.960 . S
C70 C71 1.530 1_655 S
C70 H136 0.961 1_655 S
C70 H137 0.961 . S
C70 H138 0.959 . S
C71 C70 1.530 1_455 S
C71 O99 1.412 1_455 S
C71 H135 0.980 . S
C72 C73 1.288 1_455 S
C72 C77 1.377 . S
C72 O99 1.393 1_455 S
C73 C72 1.288 1_655 S
C73 C74 1.369 . S
C73 H139 0.932 . S
C74 C73 1.369 . S
C74 C75 1.398 1_655 S
C74 C78 1.527 . S
C75 C74 1.398 1_455 S
C75 C76 1.380 . S
C75 C89 1.497 . S
C76 C75 1.380 . S
C76 C77 1.383 . S
C76 C79 1.603 . S
C77 C72 1.377 . S
C77 C76 1.383 . S
C77 H140 0.929 . S
C78 C74 1.527 . S
C78 H141 0.961 . S
C78 H142 0.959 . S
C78 H143 0.959 . S
C79 C76 1.603 . S
C79 H144 0.960 . S
C79 H145 0.962 . S
C79 H146 0.961 . S
C80 C47 1.587 . S
C80 C81 1.360 . S
C80 C93 1.412 . S
C81 C80 1.360 . S
C81 C82 1.365 . S
C81 H147 0.929 . S
C82 C57 1.553 . S
C82 C81 1.365 . S
C82 C83 1.404 . S
C83 C82 1.404 . S
C83 C84 1.395 . S
C83 C94 1.451 . S
C84 C83 1.395 . S
C84 C85 1.322 . S
C84 H148 0.930 . S
C85 C84 1.322 . S
C85 C86 1.459 . S
C85 H149 0.929 . S
C86 C85 1.459 . S
C86 C87 1.445 . S
C86 C95 1.395 . S
C87 C65 1.432 . S
C87 C86 1.445 . S
C87 C88 1.370 . S
C88 C87 1.370 . S
C88 C89 1.438 . S
C88 H150 0.930 . S
C89 C75 1.497 . S
C89 C88 1.438 . S
C89 C90 1.360 . S
C90 C89 1.360 . S
C90 C91 1.401 . S
C90 C95 1.446 . S
C91 C90 1.401 . S
C91 C92 1.347 . S
C91 H151 0.929 . S
C92 C91 1.347 . S
C92 C93 1.455 . S
C92 H152 0.930 . S
C93 C80 1.412 . S
C93 C92 1.455 . S
C93 C94 1.331 . S
C94 C83 1.451 . S
C94 C93 1.331 . S
C94 C95 1.497 . S
C95 C86 1.395 . S
C95 C90 1.446 . S
C95 C94 1.497 . S
C96 C97 1.582 . S
C96 H153 0.962 . S
C96 H154 0.959 . S
C96 H155 0.958 . S
C97 C96 1.582 . S
C97 O100 1.458 . S
C97 H126 0.980 . S
O98 C43 1.426 1_655 S
O98 C44 1.334 1_655 S
O99 C71 1.412 1_655 S
O99 C72 1.393 1_655 S
O100 C62 1.435 . S
O100 C97 1.458 . S
O101 C53 1.468 . S
O101 C54 1.408 . S
H102 C43 0.980 . S
H103 C42 0.959 . S
H104 C42 0.959 . S
H105 C42 0.960 . S
H106 C45 0.929 . S
H107 C49 0.929 . S
H108 C50 0.959 . S
H109 C50 0.961 . S
H110 C50 0.961 . S
H111 C51 0.960 . S
H112 C51 0.960 . S
H113 C51 0.961 . S
H114 C53 0.980 . S
H115 C52 0.961 . S
H116 C52 0.960 . S
H117 C52 0.959 . S
H118 C55 0.930 . S
H119 C59 0.931 . S
H120 C60 0.959 . S
H121 C60 0.961 . S
H122 C60 0.959 . S
H123 C61 0.960 . S
H124 C61 0.960 . S
H125 C61 0.960 . S
H126 C97 0.980 . S
H127 C63 0.930 . S
H128 C67 0.930 . S
H129 C68 0.961 . S
H130 C68 0.960 . S
H131 C68 0.958 . S
H132 C69 0.961 . S
H133 C69 0.960 . S
H134 C69 0.960 . S
H135 C71 0.980 . S
H136 C70 0.961 1_455 S
H137 C70 0.961 . S
H138 C70 0.959 . S
H139 C73 0.932 . S
H140 C77 0.929 . S
H141 C78 0.961 . S
H142 C78 0.959 . S
H143 C78 0.959 . S
H144 C79 0.960 . S
H145 C79 0.962 . S
H146 C79 0.961 . S
H147 C81 0.929 . S
H148 C84 0.930 . S
H149 C85 0.929 . S
H150 C88 0.930 . S
H151 C91 0.929 . S
H152 C92 0.930 . S
H153 C96 0.962 . S
H154 C96 0.959 . S
H155 C96 0.958 . S
C156 C157 1.560 1_565 S
C156 H217 0.959 . S
C156 H218 0.959 . S
C156 H219 0.960 1_565 S
C157 C156 1.560 1_545 S
C157 O212 1.439 . S
C157 H216 0.980 . S
C158 C159 1.407 . S
C158 C163 1.418 1_545 S
C158 O212 1.334 . S
C159 C158 1.407 . S
C159 C160 1.360 . S
C159 H220 0.929 . S
C160 C159 1.360 . S
C160 C161 1.401 . S
C160 C164 1.527 . S
C161 C160 1.401 . S
C161 C162 1.405 . S
C161 C194 1.587 . S
C162 C161 1.405 . S
C162 C163 1.332 1_545 S
C162 C165 1.496 1_545 S
C163 C158 1.418 1_565 S
C163 C162 1.332 1_565 S
C163 H221 0.929 . S
C164 C160 1.527 . S
C164 H222 0.959 . S
C164 H223 0.961 . S
C164 H224 0.961 . S
C165 C162 1.496 1_565 S
C165 H225 0.960 . S
C165 H226 0.960 . S
C165 H227 0.961 . S
C166 C167 1.517 . S
C166 H229 0.961 . S
C166 H230 0.960 . S
C166 H231 0.959 . S
C167 C166 1.517 . S
C167 O215 1.468 . S
C167 H228 0.980 . S
C168 C169 1.349 . S
C168 C173 1.367 . S
C168 O215 1.408 . S
C169 C168 1.349 . S
C169 C170 1.407 . S
C169 H232 0.930 . S
C170 C169 1.407 . S
C170 C171 1.449 . S
C170 C174 1.535 . S
C171 C170 1.449 . S
C171 C172 1.384 . S
C171 C196 1.553 . S
C172 C171 1.384 . S
C172 C173 1.364 . S
C172 C175 1.450 . S
C173 C168 1.367 . S
C173 C172 1.364 . S
C173 H233 0.931 . S
C174 C170 1.535 . S
C174 H234 0.959 . S
C174 H235 0.961 1_545 S
C174 H236 0.959 1_545 S
C175 C172 1.450 . S
C175 H237 0.960 . S
C175 H238 0.960 . S
C175 H239 0.960 . S
C176 C177 1.309 . S
C176 C181 1.304 . S
C176 O214 1.435 . S
C177 C176 1.309 . S
C177 C178 1.476 . S
C177 H241 0.930 . S
C178 C177 1.476 . S
C178 C179 1.400 . S
C178 C182 1.567 1_545 S
C179 C178 1.400 . S
C179 C180 1.373 . S
C179 C201 1.432 . S
C180 C179 1.373 . S
C180 C181 1.339 . S
C180 C183 1.530 . S
C181 C176 1.304 . S
C181 C180 1.339 . S
C181 H242 0.930 . S
C182 C178 1.567 1_565 S
C182 H243 0.961 . S
C182 H244 0.960 . S
C182 H245 0.958 . S
C183 C180 1.530 . S
C183 H246 0.961 . S
C183 H247 0.960 . S
C183 H248 0.960 . S
C184 C185 1.530 . S
C184 H250 0.961 . S
C184 H251 0.961 1_545 S
C184 H252 0.959 1_545 S
C185 C184 1.530 . S
C185 O213 1.412 . S
C185 H249 0.980 . S
C186 C187 1.288 1_545 S
C186 C191 1.377 . S
C186 O213 1.393 . S
C187 C186 1.288 1_565 S
C187 C188 1.369 . S
C187 H253 0.932 . S
C188 C187 1.369 . S
C188 C189 1.398 1_565 S
C188 C192 1.527 . S
C189 C188 1.398 1_545 S
C189 C190 1.380 . S
C189 C203 1.497 . S
C190 C189 1.380 . S
C190 C191 1.383 . S
C190 C193 1.603 . S
C191 C186 1.377 . S
C191 C190 1.383 . S
C191 H254 0.929 . S
C192 C188 1.527 . S
C192 H255 0.961 . S
C192 H256 0.959 . S
C192 H257 0.959 . S
C193 C190 1.603 . S
C193 H258 0.960 . S
C193 H259 0.962 . S
C193 H260 0.961 . S
C194 C161 1.587 . S
C194 C195 1.360 . S
C194 C207 1.412 . S
C195 C194 1.360 . S
C195 C196 1.365 . S
C195 H261 0.929 . S
C196 C171 1.553 . S
C196 C195 1.365 . S
C196 C197 1.404 . S
C197 C196 1.404 . S
C197 C198 1.395 . S
C197 C208 1.451 . S
C198 C197 1.395 . S
C198 C199 1.322 . S
C198 H262 0.930 . S
C199 C198 1.322 . S
C199 C200 1.459 . S
C199 H263 0.929 . S
C200 C199 1.459 . S
C200 C201 1.445 . S
C200 C209 1.395 . S
C201 C179 1.432 . S
C201 C200 1.445 . S
C201 C202 1.370 . S
C202 C201 1.370 . S
C202 C203 1.438 . S
C202 H264 0.930 . S
C203 C189 1.497 . S
C203 C202 1.438 . S
C203 C204 1.360 . S
C204 C203 1.360 . S
C204 C205 1.401 . S
C204 C209 1.446 . S
C205 C204 1.401 . S
C205 C206 1.347 . S
C205 H265 0.929 . S
C206 C205 1.347 . S
C206 C207 1.455 . S
C206 H266 0.930 . S
C207 C194 1.412 . S
C207 C206 1.455 . S
C207 C208 1.331 . S
C208 C197 1.451 . S
C208 C207 1.331 . S
C208 C209 1.497 . S
C209 C200 1.395 . S
C209 C204 1.446 . S
C209 C208 1.497 . S
C210 C211 1.582 . S
C210 H267 0.962 . S
C210 H268 0.959 . S
C210 H269 0.958 . S
C211 C210 1.582 . S
C211 O214 1.458 . S
C211 H240 0.980 . S
O212 C157 1.439 . S
O212 C158 1.334 . S
O213 C185 1.412 . S
O213 C186 1.393 . S
O214 C176 1.435 . S
O214 C211 1.458 . S
O215 C167 1.468 . S
O215 C168 1.408 . S
H216 C157 0.980 . S
H217 C156 0.959 . S
H218 C156 0.959 . S
H219 C156 0.960 1_545 S
H220 C159 0.929 . S
H221 C163 0.929 . S
H222 C164 0.959 . S
H223 C164 0.961 . S
H224 C164 0.961 . S
H225 C165 0.960 . S
H226 C165 0.960 . S
H227 C165 0.961 . S
H228 C167 0.980 . S
H229 C166 0.961 . S
H230 C166 0.960 . S
H231 C166 0.959 . S
H232 C169 0.930 . S
H233 C173 0.931 . S
H234 C174 0.959 . S
H235 C174 0.961 1_565 S
H236 C174 0.959 1_565 S
H237 C175 0.960 . S
H238 C175 0.960 . S
H239 C175 0.960 . S
H240 C211 0.980 . S
H241 C177 0.930 . S
H242 C181 0.930 . S
H243 C182 0.961 . S
H244 C182 0.960 . S
H245 C182 0.958 . S
H246 C183 0.961 . S
H247 C183 0.960 . S
H248 C183 0.960 . S
H249 C185 0.980 . S
H250 C184 0.961 . S
H251 C184 0.961 1_565 S
H252 C184 0.959 1_565 S
H253 C187 0.932 . S
H254 C191 0.929 . S
H255 C192 0.961 . S
H256 C192 0.959 . S
H257 C192 0.959 . S
H258 C193 0.960 . S
H259 C193 0.962 . S
H260 C193 0.961 . S
H261 C195 0.929 . S
H262 C198 0.930 . S
H263 C199 0.929 . S
H264 C202 0.930 . S
H265 C205 0.929 . S
H266 C206 0.930 . S
H267 C210 0.962 . S
H268 C210 0.959 . S
H269 C210 0.958 . S
C270 C271 1.560 . S
C270 H331 0.959 . S
C270 H332 0.959 . S
C270 H333 0.960 . S
C271 C270 1.560 . S
C271 O326 1.426 . S
C271 H330 0.980 . S
C272 C273 1.407 . S
C272 C277 1.418 . S
C272 O326 1.334 . S
C273 C272 1.407 . S
C273 C274 1.360 . S
C273 H334 0.929 . S
C274 C273 1.360 . S
C274 C275 1.401 . S
C274 C278 1.527 . S
C275 C274 1.401 . S
C275 C276 1.405 . S
C275 C308 1.587 . S
C276 C275 1.405 . S
C276 C277 1.332 . S
C276 C279 1.496 . S
C277 C272 1.418 . S
C277 C276 1.332 . S
C277 H335 0.929 . S
C278 C274 1.527 . S
C278 H336 0.959 . S
C278 H337 0.961 . S
C278 H338 0.961 . S
C279 C276 1.496 . S
C279 H339 0.960 . S
C279 H340 0.960 . S
C279 H341 0.961 . S
C280 C281 1.517 . S
C280 H343 0.961 . S
C280 H344 0.960 . S
C280 H345 0.959 . S
C281 C280 1.517 . S
C281 O329 1.468 . S
C281 H342 0.980 . S
C282 C283 1.349 . S
C282 C287 1.367 . S
C282 O329 1.408 . S
C283 C282 1.349 . S
C283 C284 1.407 . S
C283 H346 0.930 . S
C284 C283 1.407 . S
C284 C285 1.449 . S
C284 C288 1.535 . S
C285 C284 1.449 . S
C285 C286 1.384 . S
C285 C310 1.553 . S
C286 C285 1.384 . S
C286 C287 1.364 . S
C286 C289 1.450 . S
C287 C282 1.367 . S
C287 C286 1.364 . S
C287 H347 0.931 . S
C288 C284 1.535 . S
C288 H348 0.959 . S
C288 H349 0.961 . S
C288 H350 0.959 . S
C289 C286 1.450 . S
C289 H351 0.960 . S
C289 H352 0.960 . S
C289 H353 0.960 . S
C290 C291 1.309 . S
C290 C295 1.304 . S
C290 O328 1.435 . S
C291 C290 1.309 . S
C291 C292 1.476 . S
C291 H355 0.930 . S
C292 C291 1.476 . S
C292 C293 1.400 . S
C292 C296 1.567 . S
C293 C292 1.400 . S
C293 C294 1.373 . S
C293 C315 1.432 . S
C294 C293 1.373 . S
C294 C295 1.339 . S
C294 C297 1.530 . S
C295 C290 1.304 . S
C295 C294 1.339 . S
C295 H356 0.930 . S
C296 C292 1.567 . S
C296 H357 0.961 . S
C296 H358 0.960 . S
C296 H359 0.958 . S
C297 C294 1.530 . S
C297 H360 0.961 . S
C297 H361 0.960 . S
C297 H362 0.960 . S
C298 C299 1.530 1_554 S
C298 H364 0.961 . S
C298 H365 0.961 1_554 S
C298 H366 0.959 . S
C299 C298 1.530 1_556 S
C299 O327 1.412 . S
C299 H363 0.980 . S
C300 C301 1.288 . S
C300 C305 1.377 . S
C300 O327 1.393 . S
C301 C300 1.288 . S
C301 C302 1.369 . S
C301 H367 0.932 . S
C302 C301 1.369 . S
C302 C303 1.398 . S
C302 C306 1.527 . S
C303 C302 1.398 . S
C303 C304 1.380 . S
C303 C317 1.497 . S
C304 C303 1.380 . S
C304 C305 1.383 . S
C304 C307 1.603 . S
C305 C300 1.377 . S
C305 C304 1.383 . S
C305 H368 0.929 . S
C306 C302 1.527 . S
C306 H369 0.961 . S
C306 H370 0.959 . S
C306 H371 0.959 . S
C307 C304 1.603 . S
C307 H372 0.960 . S
C307 H373 0.962 . S
C307 H374 0.961 . S
C308 C275 1.587 . S
C308 C309 1.360 . S
C308 C321 1.412 . S
C309 C308 1.360 . S
C309 C310 1.365 . S
C309 H375 0.929 . S
C310 C285 1.553 . S
C310 C309 1.365 . S
C310 C311 1.404 . S
C311 C310 1.404 . S
C311 C312 1.395 . S
C311 C322 1.451 . S
C312 C311 1.395 . S
C312 C313 1.322 . S
C312 H376 0.930 . S
C313 C312 1.322 . S
C313 C314 1.459 . S
C313 H377 0.929 . S
C314 C313 1.459 . S
C314 C315 1.445 . S
C314 C323 1.395 . S
C315 C293 1.432 . S
C315 C314 1.445 . S
C315 C316 1.370 . S
C316 C315 1.370 . S
C316 C317 1.438 . S
C316 H378 0.930 . S
C317 C303 1.497 . S
C317 C316 1.438 . S
C317 C318 1.360 . S
C318 C317 1.360 . S
C318 C319 1.401 . S
C318 C323 1.446 . S
C319 C318 1.401 . S
C319 C320 1.347 . S
C319 H379 0.929 . S
C320 C319 1.347 . S
C320 C321 1.455 . S
C320 H380 0.930 . S
C321 C308 1.412 . S
C321 C320 1.455 . S
C321 C322 1.331 . S
C322 C311 1.451 . S
C322 C321 1.331 . S
C322 C323 1.497 . S
C323 C314 1.395 . S
C323 C318 1.446 . S
C323 C322 1.497 . S
C324 C325 1.575 1_554 S
C324 H381 0.971 . S
C324 H382 0.951 1_554 S
C324 H383 0.964 . S
C325 C324 1.575 1_556 S
C325 O328 1.458 . S
C325 H354 0.980 . S
O326 C271 1.426 . S
O326 C272 1.334 . S
O327 C299 1.412 . S
O327 C300 1.393 . S
O328 C290 1.435 . S
O328 C325 1.458 . S
O329 C281 1.468 . S
O329 C282 1.408 . S
H330 C271 0.980 . S
H331 C270 0.959 . S
H332 C270 0.959 . S
H333 C270 0.960 . S
H334 C273 0.929 . S
H335 C277 0.929 . S
H336 C278 0.959 . S
H337 C278 0.961 . S
H338 C278 0.961 . S
H339 C279 0.960 . S
H340 C279 0.960 . S
H341 C279 0.961 . S
H342 C281 0.980 . S
H343 C280 0.961 . S
H344 C280 0.960 . S
H345 C280 0.959 . S
H346 C283 0.930 . S
H347 C287 0.931 . S
H348 C288 0.959 . S
H349 C288 0.961 . S
H350 C288 0.959 . S
H351 C289 0.960 . S
H352 C289 0.960 . S
H353 C289 0.960 . S
H354 C325 0.980 . S
H355 C291 0.930 . S
H356 C295 0.930 . S
H357 C296 0.961 . S
H358 C296 0.960 . S
H359 C296 0.958 . S
H360 C297 0.961 . S
H361 C297 0.960 . S
H362 C297 0.960 . S
H363 C299 0.980 . S
H364 C298 0.961 . S
H365 C298 0.961 1_556 S
H366 C298 0.959 . S
H367 C301 0.932 . S
H368 C305 0.929 . S
H369 C306 0.961 . S
H370 C306 0.959 . S
H371 C306 0.959 . S
H372 C307 0.960 . S
H373 C307 0.962 . S
H374 C307 0.961 . S
H375 C309 0.929 . S
H376 C312 0.930 . S
H377 C313 0.929 . S
H378 C316 0.930 . S
H379 C319 0.929 . S
H380 C320 0.930 . S
H381 C324 0.971 . S
H382 C324 0.951 1_556 S
H383 C324 0.964 . S
C384 C385 1.387 . S
C384 H388 0.950 . S
C384 C393 1.390 . S
C385 C384 1.387 . S
C385 C387 1.387 1_455 S
H386 C393 0.950 . S
C387 C385 1.387 1_655 S
C387 C389 1.390 . S
C387 H391 0.950 . S
H388 C384 0.950 . S
C389 C387 1.390 . S
C389 C390 1.387 1_655 S
C389 H392 0.950 . S
C390 C389 1.387 1_455 S
C390 C393 1.387 . S
H391 C387 0.950 . S
H392 C389 0.950 . S
C393 C384 1.390 . S
C393 H386 0.950 . S
C393 C390 1.387 . S
C394 C395 1.387 1_565 S
C394 H398 0.950 . S
C394 C403 1.390 . S
C395 C394 1.387 1_545 S
C395 C397 1.387 . S
H396 C403 0.950 . S
C397 C395 1.387 . S
C397 C399 1.390 . S
C397 H401 0.950 . S
H398 C394 0.950 . S
C399 C397 1.390 . S
C399 C400 1.387 . S
C399 H402 0.950 . S
C400 C399 1.387 . S
C400 C403 1.387 1_545 S
H401 C397 0.950 . S
H402 C399 0.950 . S
C403 C394 1.390 . S
C403 H396 0.950 . S
C403 C400 1.387 1_565 S
C404 C405 1.387 . S
C404 H408 0.950 . S
C404 C413 1.390 . S
C405 C404 1.387 . S
C405 C407 1.387 . S
H406 C413 0.950 . S
C407 C405 1.387 . S
C407 C409 1.390 . S
C407 H411 0.950 1_565 S
H408 C404 0.950 . S
C409 C407 1.390 . S
C409 C410 1.387 . S
C409 H412 0.950 . S
C410 C409 1.387 . S
C410 C413 1.387 . S
H411 C407 0.950 1_545 S
H412 C409 0.950 . S
C413 C404 1.390 . S
C413 H406 0.950 . S
C413 C410 1.387 . S
C414 C415 1.387 . S
C414 H418 0.950 . S
C414 C423 1.390 . S
C415 C414 1.387 . S
C415 C417 1.387 1_455 S
H416 C423 0.950 . S
C417 C415 1.387 1_655 S
C417 C419 1.390 . S
C417 H421 0.950 . S
H418 C414 0.950 . S
C419 C417 1.390 . S
C419 C420 1.387 1_655 S
C419 H422 0.950 . S
C420 C419 1.387 1_455 S
C420 C423 1.387 . S
H421 C417 0.950 . S
H422 C419 0.950 . S
C423 C414 1.390 . S
C423 H416 0.950 . S
C423 C420 1.387 . S
C424 C425 1.387 . S
C424 H428 0.950 1_545 S
C424 C433 1.390 . S
C425 C424 1.387 . S
C425 C427 1.387 . S
H426 C433 0.950 1_565 S
C427 C425 1.387 . S
C427 C429 1.390 . S
C427 H431 0.950 . S
H428 C424 0.950 1_565 S
C429 C427 1.390 . S
C429 C430 1.387 . S
C429 H432 0.950 . S
C430 C429 1.387 . S
C430 C433 1.387 . S
H431 C427 0.950 . S
H432 C429 0.950 . S
C433 C424 1.390 . S
C433 H426 0.950 1_545 S
C433 C430 1.387 . S
C434 C435 1.387 . S
C434 H438 0.950 . S
C434 C443 1.390 . S
C435 C434 1.387 . S
C435 C437 1.387 . S
H436 C443 0.950 . S
C437 C435 1.387 . S
C437 C439 1.390 . S
C437 H441 0.950 . S
H438 C434 0.950 . S
C439 C437 1.390 . S
C439 C440 1.387 . S
C439 H442 0.950 . S
C440 C439 1.387 . S
C440 C443 1.387 . S
H441 C437 0.950 . S
H442 C439 0.950 . S
C443 C434 1.390 . S
C443 H436 0.950 . S
C443 C440 1.387 . S
C444 C445 1.387 . S
C444 H448 0.950 1_545 S
C444 C453 1.390 . S
C445 C444 1.387 . S
C445 C447 1.387 . S
H446 C453 0.950 1_565 S
C447 C445 1.387 . S
C447 C449 1.390 . S
C447 H451 0.950 . S
H448 C444 0.950 1_565 S
C449 C447 1.390 . S
C449 C450 1.387 . S
C449 H452 0.950 . S
C450 C449 1.387 . S
C450 C453 1.387 . S
H451 C447 0.950 . S
H452 C449 0.950 . S
C453 C444 1.390 . S
C453 H446 0.950 1_545 S
C453 C450 1.387 . S
C454 C455 1.387 . S
C454 H458 0.950 . S
C454 C463 1.390 . S
C455 C454 1.387 . S
C455 C457 1.387 . S
H456 C463 0.950 . S
C457 C455 1.387 . S
C457 C459 1.390 . S
C457 H461 0.950 . S
H458 C454 0.950 . S
C459 C457 1.390 . S
C459 C460 1.387 . S
C459 H462 0.950 1_554 S
C460 C459 1.387 . S
C460 C463 1.387 . S
H461 C457 0.950 . S
H462 C459 0.950 1_556 S
C463 C454 1.390 . S
C463 H456 0.950 . S
C463 C460 1.387 . S
C464 C465 1.387 . S
C464 H468 0.950 . S
C464 C473 1.390 . S
C465 C464 1.387 . S
C465 C467 1.387 . S
H466 C473 0.950 . S
C467 C465 1.387 . S
C467 C469 1.390 . S
C467 H471 0.950 . S
H468 C464 0.950 . S
C469 C467 1.390 . S
C469 C470 1.387 . S
C469 H472 0.950 . S
C470 C469 1.387 . S
C470 C473 1.387 . S
H471 C467 0.950 . S
H472 C469 0.950 . S
C473 C464 1.390 . S
C473 H466 0.950 . S
C473 C470 1.387 . S
C474 C475 1.387 1_565 S
C474 H478 0.950 . S
C474 C483 1.390 . S
C475 C474 1.387 1_545 S
C475 C477 1.387 . S
H476 C483 0.950 . S
C477 C475 1.387 . S
C477 C479 1.390 . S
C477 H481 0.950 . S
H478 C474 0.950 . S
C479 C477 1.390 . S
C479 C480 1.387 . S
C479 H482 0.950 . S
C480 C479 1.387 . S
C480 C483 1.387 1_545 S
H481 C477 0.950 . S
H482 C479 0.950 . S
C483 C474 1.390 . S
C483 H476 0.950 . S
C483 C480 1.387 1_565 S
C484 C485 1.387 . S
C484 H488 0.950 . S
C484 C493 1.390 . S
C485 C484 1.387 . S
C485 C487 1.387 . S
H486 C493 0.950 . S
C487 C485 1.387 . S
C487 C489 1.390 . S
C487 H491 0.950 . S
H488 C484 0.950 . S
C489 C487 1.390 . S
C489 C490 1.387 . S
C489 H492 0.950 1_554 S
C490 C489 1.387 . S
C490 C493 1.387 . S
H491 C487 0.950 . S
H492 C489 0.950 1_556 S
C493 C484 1.390 . S
C493 H486 0.950 . S
C493 C490 1.387 . S
C494 C495 1.387 . S
C494 H498 0.950 . S
C494 C503 1.390 . S
C495 C494 1.387 . S
C495 C497 1.387 . S
H496 C503 0.950 . S
C497 C495 1.387 . S
C497 C499 1.390 . S
C497 H501 0.950 . S
H498 C494 0.950 . S
C499 C497 1.390 . S
C499 C500 1.387 . S
C499 H502 0.950 . S
C500 C499 1.387 . S
C500 C503 1.387 . S
H501 C497 0.950 . S
H502 C499 0.950 . S
C503 C494 1.390 . S
C503 H496 0.950 . S
C503 C500 1.387 . S
C390 C97 1.162 . S
C385 C0 1.539 . S
C395 C25 1.566 . S
C400 C211 1.166 . S
C405 C33 1.382 . S
C410 C271 1.072 . S
C415 C11 1.395 . S
C420 C71 1.081 . S
C430 C185 1.130 . S
C425 C14 1.445 . S
C435 C37 1.540 . S
C440 C281 0.962 . S
C450 C167 0.902 . S
C445 C28 1.504 . S
C455 C9 1.486 . S
C460 C299 1.120 1_554 S
C470 C43 1.116 . S
C465 C19 1.400 . S
C480 C157 1.086 . S
C475 C39 1.362 . S
C490 C325 1.222 1_554 S
C485 C5 1.579 . S
C495 C23 1.560 . S
C500 C53 0.944 . S
