# Generated by pormake.
# Topology anh, (6,3)-cn, num edge types: 1
# Building blocks:
#     Node 0, Type 0, BuildingBlock: NUHQIS_clean_sbu_0, # of connection points: 6
#     Node 1, Type 0, BuildingBlock: NUHQIS_clean_sbu_0, # of connection points: 6
#     Node 2, Type 0, BuildingBlock: NUHQIS_clean_sbu_0, # of connection points: 6
#     Node 3, Type 1, BuildingBlock: ESEHIV_clean_linker_0, # of connection points: 3
#     Node 4, Type 1, BuildingBlock: ESEHIV_clean_linker_0, # of connection points: 3
#     Node 5, Type 1, BuildingBlock: ESEHIV_clean_linker_0, # of connection points: 3
#     Node 6, Type 1, BuildingBlock: ESEHIV_clean_linker_0, # of connection points: 3
#     Node 7, Type 1, BuildingBlock: ESEHIV_clean_linker_0, # of connection points: 3
#     Node 8, Type 1, BuildingBlock: ESEHIV_clean_linker_0, # of connection points: 3
#     Edge 9, Type (0, 1), BuildingBlock: EZIPEK_clean_linker_0, # of connection points: 2
#     Edge 10, Type (0, 1), BuildingBlock: EZIPEK_clean_linker_0, # of connection points: 2
#     Edge 11, Type (0, 1), BuildingBlock: EZIPEK_clean_linker_0, # of connection points: 2
#     Edge 12, Type (0, 1), BuildingBlock: EZIPEK_clean_linker_0, # of connection points: 2
#     Edge 13, Type (0, 1), BuildingBlock: EZIPEK_clean_linker_0, # of connection points: 2
#     Edge 14, Type (0, 1), BuildingBlock: EZIPEK_clean_linker_0, # of connection points: 2
#     Edge 15, Type (0, 1), BuildingBlock: EZIPEK_clean_linker_0, # of connection points: 2
#     Edge 16, Type (0, 1), BuildingBlock: EZIPEK_clean_linker_0, # of connection points: 2
#     Edge 17, Type (0, 1), BuildingBlock: EZIPEK_clean_linker_0, # of connection points: 2
#     Edge 18, Type (0, 1), BuildingBlock: EZIPEK_clean_linker_0, # of connection points: 2
#     Edge 19, Type (0, 1), BuildingBlock: EZIPEK_clean_linker_0, # of connection points: 2
#     Edge 20, Type (0, 1), BuildingBlock: EZIPEK_clean_linker_0, # of connection points: 2
#     Edge 21, Type (0, 1), BuildingBlock: EZIPEK_clean_linker_0, # of connection points: 2
#     Edge 22, Type (0, 1), BuildingBlock: EZIPEK_clean_linker_0, # of connection points: 2
#     Edge 23, Type (0, 1), BuildingBlock: EZIPEK_clean_linker_0, # of connection points: 2
#     Edge 24, Type (0, 1), BuildingBlock: EZIPEK_clean_linker_0, # of connection points: 2
#     Edge 25, Type (0, 1), BuildingBlock: EZIPEK_clean_linker_0, # of connection points: 2
#     Edge 26, Type (0, 1), BuildingBlock: EZIPEK_clean_linker_0, # of connection points: 2
# Relax obj value: 0.443
# Max RMSD: 0.220
# Mean RMSD: 0.179
data_MOF--net-anh--node1-NUHQIS_clean_sbu_0--node2-ESEHIV_clean_linker_0--edge1-EZIPEK_clean_linker_0
_symmetry_space_group_name_H-M    P1
_symmetry_Int_Tables_number       1
_symmetry_cell_setting            triclinic
loop_
_symmetry_equiv_pos_as_xyz
'x, y, z'
_cell_length_a     21.59845
_cell_length_b     21.741504
_cell_length_c     37.646904
_cell_angle_alpha  90.13522
_cell_angle_beta   91.990233
_cell_angle_gamma 119.75228
loop_
_atom_site_label
_atom_site_type_symbol
_atom_site_fract_x
_atom_site_fract_y
_atom_site_fract_z
_atom_type_partial_charge
Tb0 Tb 0.2506 0.61966 0.18854 0.0
Eu1 Eu 0.16821 0.69762 0.17289 0.0
C2 C 0.19948 0.67467 0.25121 0.0
C3 C 1.06769 0.51697 0.18859 0.0
C4 C 0.29739 0.47908 0.18868 0.0
C5 C 0.35191 0.4137 0.16673 0.0
C6 C 0.35489 0.46672 0.18871 0.0
C7 C 0.23362 0.43265 0.16969 0.0
C8 C 0.23031 0.37887 0.14788 0.0
C9 C 0.29134 0.37243 0.14416 0.0
C10 C 0.30894 0.54666 0.20313 0.0
O11 O 0.24043 0.60977 0.12915 0.0
O12 O 0.1939 0.68146 0.11675 0.0
O13 O 0.28977 0.7962 0.18338 0.0
O14 O 0.34838 0.73465 0.19101 0.0
C15 C 0.21954 0.64169 0.10563 0.0
O16 O 1.09974 0.72143 0.13885 0.0
O17 O 0.14107 0.77757 0.18935 0.0
O18 O 0.14847 0.66791 0.22942 0.0
O19 O 0.25383 0.67163 0.23896 0.0
O20 O 0.13375 0.52455 0.19231 0.0
O21 O 1.06867 0.57773 0.17974 0.0
C22 C 0.35338 0.79918 0.18959 0.0
O23 O 0.33362 0.59815 0.18063 0.0
O24 O 0.25714 0.5443 0.22085 0.0
C25 C 1.02248 0.74549 0.17042 0.0
C26 C 0.87539 0.68195 0.18049 0.0
C27 C 0.90258 0.70613 0.14691 0.0
C28 C 0.97556 0.73808 0.14197 0.0
C29 C 0.99597 0.72643 0.20473 0.0
C30 C 0.92267 0.69572 0.20982 0.0
C31 C 1.09569 0.76306 0.16252 0.0
H32 H 0.40004 0.41036 0.16474 0.0
H33 H 0.40436 0.50195 0.2033 0.0
H34 H 0.18827 0.44113 0.16964 0.0
H35 H 0.18206 0.34633 0.13196 0.0
H36 H 0.8668 0.69654 0.12404 0.0
H37 H 0.99482 0.75268 0.11538 0.0
H38 H 1.03108 0.73163 0.22719 0.0
H39 H 0.90245 0.67808 0.23598 0.0
Tb40 Tb 0.74819 0.12274 0.51923 0.0
Eu41 Eu 0.59686 1.04705 0.48999 0.0
C42 C 0.6205 1.0567 0.57262 0.0
C43 C 0.66818 0.94077 0.51474 0.0
C44 C 0.93965 0.25185 0.52942 0.0
C45 C 1.02477 0.37078 0.55086 0.0
C46 C 0.97931 0.29926 0.55755 0.0
C47 C 0.95131 0.27518 0.49426 0.0
C48 C 0.99694 0.34627 0.48763 0.0
C49 C 1.03089 0.39473 0.51597 0.0
C50 C 0.87887 0.18252 0.53731 0.0
O51 O 0.75063 0.15597 0.46265 0.0
O52 O 0.66297 1.05031 0.44425 0.0
O53 O 0.61736 0.1668 0.50253 0.0
O54 O 0.73109 0.22036 0.52512 0.0
C55 C 0.71587 0.11128 0.43598 0.0
O56 O 0.48323 0.97097 0.48321 0.0
O57 O 0.53591 1.05229 0.44406 0.0
O58 O 0.57452 1.04589 0.54676 0.0
O59 O 0.68833 0.08022 0.56732 0.0
O60 O 0.72703 1.00566 0.5194 0.0
O61 O 0.60937 0.944 0.50397 0.0
C62 C 0.67348 0.22706 0.51651 0.0
O63 O 0.83086 0.18506 0.55636 0.0
O64 O 0.84993 0.13728 0.51065 0.0
C65 C 0.41758 1.01855 0.45512 0.0
C66 C 0.2918 1.02511 0.46142 0.0
C67 C 0.30359 0.99628 0.4303 0.0
C68 C 0.36548 0.992 0.42758 0.0
C69 C 0.41207 1.05803 0.4831 0.0
C70 C 0.34992 1.06229 0.48593 0.0
C71 C 0.47541 1.00196 0.45504 0.0
H72 H 1.05039 0.40806 0.57294 0.0
H73 H 0.97091 0.28206 0.58483 0.0
H74 H 0.92145 0.23988 0.47204 0.0
H75 H 1.00111 0.36449 0.46057 0.0
H76 H 0.26197 0.96906 0.4099 0.0
H77 H 0.37034 0.96361 0.40512 0.0
H78 H 0.45357 0.08137 0.50394 0.0
H79 H 0.34436 0.08762 0.5094 0.0
Tb80 Tb 0.75095 0.68937 0.84233 0.0
Eu81 Eu 0.67221 0.52832 0.84638 0.0
C82 C 0.72809 0.62108 0.91456 0.0
C83 C 0.85616 0.61217 0.85284 0.0
C84 C 0.78218 0.86992 0.8483 0.0
C85 C 0.69133 0.88705 0.87572 0.0
C86 C 0.73665 0.85827 0.87647 0.0
C87 C 0.7868 0.91626 0.82138 0.0
C88 C 0.7406 0.94368 0.82026 0.0
C89 C 0.68989 0.92582 0.84631 0.0
C90 C 0.81142 0.82269 0.84193 0.0
O91 O 0.73966 0.65936 0.78491 0.0
O92 O 0.66325 0.54034 0.78632 0.0
O93 O 0.57596 0.55364 0.85511 0.0
O94 O 0.63519 0.67198 0.84624 0.0
C95 C 0.69877 0.59825 0.76799 0.0
O96 O 0.6431 0.42034 0.83094 0.0
O97 O 0.59899 0.43974 0.87788 0.0
O98 O 0.73378 0.57219 0.89772 0.0
O99 O 0.71135 0.66089 0.89548 0.0
O100 O 0.84896 0.67085 0.85155 0.0
O101 O 0.79378 0.55065 0.84902 0.0
C102 C 0.57232 0.61377 0.85337 0.0
O103 O 0.81668 0.78756 0.86879 0.0
O104 O 0.78342 0.7821 0.81373 0.0
C105 C 0.52728 0.33399 0.84518 0.0
C106 C 0.40334 0.22235 0.81253 0.0
C107 C 0.4125 0.29099 0.81385 0.0
C108 C 0.47465 0.3468 0.82982 0.0
C109 C 0.51481 0.26469 0.84718 0.0
C110 C 0.45337 0.20927 0.83106 0.0
C111 C 0.59785 0.39229 0.85621 0.0
H112 H 0.65313 0.87384 0.89628 0.0
H113 H 0.73197 0.82266 0.89755 0.0
H114 H 0.82144 0.9259 0.79942 0.0
H115 H 0.74073 0.97438 0.7976 0.0
H116 H 0.37427 0.30241 0.80053 0.0
H117 H 0.48338 0.40028 0.82849 0.0
H118 H 0.55478 0.254 0.85915 0.0
H119 H 0.44849 0.15721 0.83025 0.0
H120 H 0.62421 1.05556 0.27597 0.0
H121 H 0.82035 0.25369 0.27739 0.0
H122 H 0.71021 0.15725 0.17587 0.0
C123 C 0.66378 0.09802 0.26052 0.0
C124 C 0.65339 0.09333 0.22292 0.0
C125 C 0.72291 0.15406 0.27961 0.0
C126 C 0.77703 0.21236 0.2613 0.0
C127 C 0.77866 0.21924 0.22356 0.0
C128 C 0.71339 0.15702 0.20459 0.0
H129 H 0.67651 0.6853 0.60532 0.0
H130 H 0.67737 0.48819 0.60526 0.0
H131 H 0.6673 0.58163 0.50441 0.0
C132 C 0.67529 0.64292 0.58956 0.0
C133 C 0.6725 0.64738 0.55176 0.0
C134 C 0.67755 0.58708 0.60842 0.0
C135 C 0.67545 0.52898 0.58958 0.0
C136 C 0.67085 0.52075 0.55184 0.0
C137 C 0.66989 0.58309 0.53315 0.0
H138 H 0.12343 0.62084 0.94305 0.0
H139 H 0.3227 0.62136 0.94381 0.0
H140 H 0.21501 0.61507 0.84265 0.0
C141 C 0.16434 0.61983 0.9276 0.0
C142 C 0.15592 0.61786 0.88984 0.0
C143 C 0.22312 0.62114 0.94676 0.0
C144 C 0.27909 0.62002 0.92806 0.0
C145 C 0.28172 0.61792 0.89024 0.0
C146 C 0.21701 0.61616 0.87139 0.0
H147 H 0.14642 0.61663 0.41109 0.0
H148 H 0.18251 0.82744 0.39598 0.0
H149 H 1.10006 0.72111 0.49424 0.0
C150 C 0.14641 0.66341 0.4212 0.0
C151 C 0.12407 0.66396 0.45549 0.0
C152 C 0.16469 0.72101 0.39914 0.0
C153 C 0.16591 0.78185 0.41274 0.0
C154 C 0.1451 0.78348 0.44775 0.0
C155 C 1.12015 0.72241 0.46808 0.0
H156 H 0.42088 1.03523 0.68981 0.0
H157 H 0.5598 0.9651 0.735 0.0
H158 H 0.44371 1.02557 0.80362 0.0
C159 C 0.44166 1.02064 0.71295 0.0
C160 C 0.42608 1.03346 0.74715 0.0
C161 C 0.49268 0.9996 0.70875 0.0
C162 C 0.5198 0.98075 0.73836 0.0
C163 C 0.50058 0.98825 0.77253 0.0
C164 C 0.45445 1.01533 0.77698 0.0
H165 H 0.51884 0.45119 0.02383 0.0
H166 H 0.71168 0.59135 0.08384 0.0
H167 H 0.52056 0.45807 0.13849 0.0
C168 C 0.54711 0.47171 0.04926 0.0
C169 C 0.51065 0.44861 0.08095 0.0
C170 C 0.61901 0.52488 0.05046 0.0
C171 C 0.65574 0.55081 0.08314 0.0
C172 C 0.62083 0.52565 0.11488 0.0
C173 C 0.54799 0.47566 0.11383 0.0
C174 C 0.31295 0.3819 0.08122 0.0
C175 C 0.30126 0.34024 0.11146 0.0
C176 C 0.40803 0.33409 0.09947 0.0
C177 C 0.43275 0.39834 0.08079 0.0
N178 N 0.40411 0.48007 0.05019 0.0
N179 N 0.31921 0.2522 0.13971 0.0
C180 C 0.3833 0.42015 0.06931 0.0
C181 C 0.34119 0.30539 0.11593 0.0
N182 N 0.25852 0.38851 0.06598 0.0
N183 N 0.45028 0.30402 0.1029 0.0
H184 H 0.27071 0.2339 0.15208 0.0
H185 H 0.34828 0.22763 0.1473 0.0
H186 H 0.49931 0.32541 0.09079 0.0
H187 H 0.43496 0.25625 0.11541 0.0
H188 H 0.26372 0.41644 0.04276 0.0
H189 H 0.20653 0.35883 0.07451 0.0
H190 H 0.37095 0.50141 0.04503 0.0
H191 H 0.45538 0.51089 0.04122 0.0
C192 C 1.00912 0.49371 0.50296 0.0
C193 C 1.05907 0.47036 0.50904 0.0
C194 C 0.15486 0.58414 0.48999 0.0
C195 C 1.10257 0.60135 0.47762 0.0
N196 N 0.97864 0.56843 0.46812 0.0
N197 N 0.17929 0.4911 0.50846 0.0
C198 C 1.02937 0.55571 0.48345 0.0
C199 C 0.13228 0.51529 0.50304 0.0
N200 N 0.94212 0.45625 0.51565 0.0
N201 N 0.22565 0.63374 0.48932 0.0
H202 H 0.16426 0.44162 0.51917 0.0
H203 H 0.23195 0.51831 0.50073 0.0
H204 H 0.24349 0.68487 0.48015 0.0
H205 H 0.26612 0.6264 0.50065 0.0
H206 H 0.90682 0.4758 0.51556 0.0
H207 H 0.92476 0.40956 0.52968 0.0
H208 H 0.92451 0.53102 0.46733 0.0
H209 H 0.99063 0.61302 0.45318 0.0
C210 C 0.64581 1.0116 0.83909 0.0
C211 C 0.63041 0.94029 0.83942 0.0
C212 C 0.51295 0.90248 0.81109 0.0
C213 C 0.53582 0.97387 0.8032 0.0
N214 N 0.62183 0.09814 0.81081 0.0
N215 N 0.54908 0.81626 0.82522 0.0
C216 C 0.60093 1.02924 0.8183 0.0
C217 C 0.563 0.88486 0.82622 0.0
N218 N 0.70412 1.06208 0.8581 0.0
N219 N 0.44397 0.85172 0.80302 0.0
H220 H 0.58448 0.80064 0.83534 0.0
H221 H 0.50422 0.77514 0.81218 0.0
H222 H 0.40691 0.86414 0.79157 0.0
H223 H 0.42201 0.79933 0.81088 0.0
H224 H 0.71558 0.11432 0.86127 0.0
H225 H 0.73742 1.04963 0.87347 0.0
H226 H 0.67248 0.14033 0.81738 0.0
H227 H 0.58923 0.11288 0.79648 0.0
C228 C 0.75369 0.66646 0.17576 0.0
C229 C 0.79714 0.63585 0.18264 0.0
C230 C 0.6985 0.51951 0.16324 0.0
C231 C 0.66318 0.55423 0.14861 0.0
N232 N 0.64717 0.65663 0.14903 0.0
N233 N 0.80806 0.53156 0.19025 0.0
C234 C 0.68644 0.62549 0.1583 0.0
C235 C 0.76766 0.56118 0.17978 0.0
N236 N 0.77891 0.73636 0.18362 0.0
N237 N 0.66692 0.44753 0.15961 0.0
H238 H 0.85816 0.56056 0.20299 0.0
H239 H 0.79264 0.47845 0.18665 0.0
H240 H 0.61637 0.41707 0.1474 0.0
H241 H 0.68761 0.41733 0.17055 0.0
H242 H 0.74927 0.76144 0.17792 0.0
H243 H 0.82842 0.76771 0.19677 0.0
H244 H 0.59689 0.62933 0.13608 0.0
H245 H 0.59689 0.62933 0.13608 0.0
C246 C 0.20703 0.95148 0.50335 0.0
C247 C 0.21717 0.99435 0.47393 0.0
C248 C 0.1269 0.88905 0.44186 0.0
C249 C 0.15133 0.84991 0.4628 0.0
N250 N 0.21749 0.84954 0.5172 0.0
N251 N 0.15272 1.00802 0.42494 0.0
C252 C 0.18962 0.88106 0.49576 0.0
C253 C 0.16205 0.96415 0.4474 0.0
N254 N 0.22413 0.98025 0.53676 0.0
N255 N 1.07324 0.85501 0.4167 0.0
H256 H 0.1822 1.06293 0.42914 0.0
H257 H 1.1179 0.99065 0.40268 0.0
H258 H 1.04661 0.79994 0.41338 0.0
H259 H 1.05217 0.88037 0.40121 0.0
H260 H 0.21683 0.94958 0.55918 0.0
H261 H 0.23933 1.03342 0.5413 0.0
H262 H 0.2496 0.87531 0.53978 0.0
H263 H 0.21596 0.80226 0.51088 0.0
C264 C 0.31907 0.0981 0.79506 0.0
C265 C 0.35596 0.16947 0.78485 0.0
C266 C 0.41398 0.14315 0.73869 0.0
C267 C 0.38808 1.07393 0.75266 0.0
N268 N 0.29369 0.97748 0.78344 0.0
N269 N 0.39123 0.24121 0.73316 0.0
C270 C 0.33185 1.04818 0.77693 0.0
C271 C 0.38466 0.18409 0.75104 0.0
N272 N 0.27977 0.0813 0.82464 0.0
N273 N 0.47126 0.17374 0.71748 0.0
H274 H 0.36959 0.27133 0.74261 0.0
H275 H 0.41027 0.2526 0.70754 0.0
H276 H 0.50121 0.15053 0.71056 0.0
H277 H 0.49407 0.22642 0.70988 0.0
H278 H 0.25745 1.03189 0.83636 0.0
H279 H 0.27211 0.11931 0.83774 0.0
H280 H 0.25 0.95531 0.79963 0.0
H281 H 0.30255 0.94068 0.76997 0.0
C282 C 0.6217 0.79463 0.50497 0.0
C283 C 0.66936 0.86395 0.52219 0.0
C284 C 0.7265 0.79266 0.55077 0.0
C285 C 0.67428 0.72206 0.53701 0.0
N286 N 0.56353 0.66318 0.50309 0.0
N287 N 0.75848 0.91342 0.57012 0.0
C288 C 0.61998 0.72614 0.51467 0.0
C289 C 0.71921 0.8577 0.54715 0.0
N290 N 0.57842 0.7934 0.47745 0.0
N291 N 0.78718 0.79948 0.56691 0.0
H292 H 0.75324 0.95846 0.57078 0.0
H293 H 0.7892 0.91116 0.59149 0.0
H294 H 0.79658 0.75695 0.56914 0.0
H295 H 0.83137 0.84833 0.57402 0.0
H296 H 0.54841 0.74922 0.46086 0.0
H297 H 0.57834 0.83884 0.46887 0.0
H298 H 0.51734 0.65854 0.49088 0.0
H299 H 0.5611 0.61495 0.5084 0.0
C300 C 0.95453 0.56501 0.84474 0.0
C301 C 0.93537 0.61517 0.85987 0.0
C302 C 1.06622 0.67398 0.88641 0.0
C303 C 1.08264 0.61987 0.87468 0.0
N304 N 1.02793 0.50621 0.84522 0.0
N305 N 0.98012 0.71114 0.90296 0.0
C306 C 1.02226 0.56376 0.8545 0.0
C307 C 0.99397 0.66784 0.88253 0.0
N308 N 0.90895 0.51886 0.81909 0.0
N309 N 1.12177 0.73487 0.9008 0.0
H310 H 0.93034 0.70783 0.90272 0.0
H311 H 1.01509 0.74442 0.9231 0.0
H312 H 0.17351 0.74283 0.90337 0.0
H313 H 1.11841 0.78009 0.90626 0.0
H314 H 0.92082 0.48634 0.80384 0.0
H315 H 0.86247 0.51859 0.81044 0.0
H316 H 0.98527 0.4592 0.83486 0.0
H317 H 1.07456 0.50406 0.85058 0.0
C318 C 0.49221 0.88308 0.21784 0.0
C319 C 0.432 0.87594 0.19579 0.0
C320 C 0.51774 1.01322 0.18901 0.0
C321 C 0.57969 1.01824 0.20832 0.0
N322 N 0.62118 0.94297 0.23331 0.0
N323 N 0.40304 0.94402 0.15489 0.0
C324 C 0.56448 0.94846 0.22021 0.0
C325 C 0.44991 0.94429 0.18015 0.0
N326 N 0.4802 0.82805 0.23925 0.0
N327 N 0.52202 1.07564 0.17963 0.0
H328 H 0.35652 0.89794 0.1468 0.0
H329 H 0.41389 0.98755 0.13937 0.0
H330 H 0.56856 0.12419 0.18435 0.0
H331 H 0.47845 0.07956 0.16984 0.0
H332 H 0.51687 0.8312 0.25891 0.0
H333 H 0.43051 0.7826 0.2406 0.0
H334 H 0.61823 0.89464 0.23875 0.0
H335 H 0.67305 0.98604 0.23463 0.0
C336 C 0.61824 0.30827 0.54401 0.0
C337 C 0.6712 0.3031 0.52325 0.0
C338 C 0.72183 0.44065 0.51755 0.0
C339 C 0.66718 0.44509 0.53716 0.0
N340 N 0.55432 0.37021 0.56281 0.0
N341 N 0.76856 0.37265 0.48586 0.0
C342 C 0.61361 0.37479 0.54851 0.0
C343 C 0.72139 0.37221 0.50913 0.0
N344 N 0.57251 0.24893 0.56156 0.0
N345 N 0.77709 0.50358 0.50744 0.0
H346 H 0.77097 0.32709 0.4797 0.0
H347 H 0.80076 0.41587 0.47053 0.0
H348 H 0.77849 0.5516 0.51206 0.0
H349 H 0.82276 0.50901 0.49632 0.0
H350 H 0.53882 0.24828 0.58083 0.0
H351 H 0.57304 0.20138 0.55915 0.0
H352 H 0.50883 0.32251 0.56804 0.0
H353 H 0.54767 0.41428 0.56586 0.0
C354 C 0.49364 0.67112 0.88107 0.0
C355 C 0.49659 0.61601 0.86039 0.0
C356 C 0.35722 0.56159 0.85702 0.0
C357 C 0.35526 0.61971 0.8752 0.0
N358 N 0.43369 0.73783 0.89783 0.0
N359 N 0.4209 0.51257 0.82404 0.0
C360 C 0.42731 0.67607 0.88512 0.0
C361 C 0.42501 0.56258 0.84741 0.0
N362 N 0.55458 0.71822 0.89952 0.0
N363 N 0.29301 0.50241 0.84966 0.0
H364 H 0.46607 0.51156 0.81597 0.0
H365 H 0.37413 0.47678 0.81007 0.0
H366 H 0.24486 0.5003 0.85489 0.0
H367 H 0.28763 0.45444 0.84097 0.0
H368 H 0.55622 0.75375 0.91864 0.0
H369 H 0.60185 0.71654 0.89853 0.0
H370 H 0.48253 0.7843 0.90164 0.0
H371 H 0.38953 0.74458 0.90073 0.0
C372 C 0.98816 0.38493 0.21965 0.0
C373 C 0.99192 0.43877 0.19532 0.0
C374 C 0.85372 0.34746 0.1869 0.0
C375 C 0.85209 0.29203 0.20923 0.0
N376 N 0.93331 0.26066 0.238 0.0
N377 N 0.91832 0.45543 0.15119 0.0
C378 C 0.92406 0.31261 0.22282 0.0
C379 C 0.92134 0.41483 0.17798 0.0
N380 N 1.04558 0.40345 0.24235 0.0
N381 N 0.78916 0.33685 0.17431 0.0
H382 H 0.9632 0.50131 0.14333 0.0
H383 H 0.87352 0.44039 0.13447 0.0
H384 H 0.74168 0.29076 0.17946 0.0
H385 H 0.78198 0.37456 0.16073 0.0
H386 H 1.04483 0.37222 0.26346 0.0
H387 H 1.0907 0.45355 0.24304 0.0
H388 H 0.98334 0.267 0.24484 0.0
H389 H 0.89169 0.20853 0.23952 0.0
C390 C 0.18856 0.56773 0.04678 0.0
C391 C 0.22584 0.6348 0.06521 0.0
C392 C 0.26803 0.69153 0.00643 0.0
C393 C 0.22635 0.6253 0.98787 0.0
N394 N 0.14398 0.50037 0.9906 0.0
N395 N 0.30156 0.76124 0.06187 0.0
C396 C 0.18626 0.56347 0.00827 0.0
C397 C 0.26569 0.6967 0.04466 0.0
N398 N 0.15501 0.50754 0.06613 0.0
N399 N 0.31128 0.74986 0.98737 0.0
H400 H 0.30778 0.76698 0.08948 0.0
H401 H 0.32354 0.80953 0.04913 0.0
H402 H 0.31219 0.74896 0.9597 0.0
H403 H 0.34939 0.7983 0.99867 0.0
H404 H 0.13442 0.4566 0.05549 0.0
H405 H 0.151 0.50824 0.09361 0.0
H406 H 1.10664 0.45447 0.00266 0.0
H407 H 0.14347 0.49458 0.96306 0.0
C408 C 0.74997 0.09366 0.37353 0.0
C409 C 0.72781 0.13057 0.39666 0.0
C410 C 0.70454 0.18512 0.34323 0.0
C411 C 0.72855 0.14963 0.32029 0.0
N412 N 0.78569 0.07952 0.31459 0.0
N413 N 0.6927 0.21908 0.40342 0.0
C414 C 0.75463 0.10669 0.33587 0.0
C415 C 0.70828 0.17898 0.38139 0.0
N416 N 0.76555 1.04478 0.38759 0.0
N417 N 0.67504 0.22244 0.32838 0.0
H418 H 0.69135 0.2139 0.43093 0.0
H419 H 0.68583 0.26086 0.39488 0.0
H420 H 0.67292 0.22933 0.30104 0.0
H421 H 0.64851 0.24274 0.34264 0.0
H422 H 0.77314 1.00927 0.37233 0.0
H423 H 0.76744 1.0372 0.41487 0.0
H424 H 0.81285 1.05425 0.32418 0.0
H425 H 0.78933 0.08722 0.28723 0.0
C426 C 0.75514 0.61788 0.70655 0.0
C427 C 0.69315 0.59482 0.72698 0.0
C428 C 0.62037 0.56148 0.66982 0.0
C429 C 0.68287 0.58979 0.64947 0.0
N430 N 0.81107 0.65367 0.64933 0.0
N431 N 0.56725 0.55466 0.72686 0.0
C432 C 0.75053 0.62049 0.66821 0.0
C433 C 0.62589 0.56898 0.70817 0.0
N434 N 0.81844 0.63416 0.72368 0.0
N435 N 0.55506 0.52592 0.65244 0.0
H436 H 0.56894 0.56019 0.75446 0.0
H437 H 0.5184 0.54337 0.71498 0.0
H438 H 0.54887 0.5211 0.62479 0.0
H439 H 0.50746 0.49671 0.66532 0.0
H440 H 0.86389 0.64362 0.71058 0.0
H441 H 0.82393 0.63187 0.7512 0.0
H442 H 0.86192 0.68439 0.66105 0.0
H443 H 0.81003 0.65502 0.62162 0.0
C444 C 0.54147 0.97016 0.61667 0.0
C445 C 0.59389 1.04058 0.60883 0.0
C446 C 0.58778 0.0803 0.66866 0.0
C447 C 0.52887 1.01209 0.67476 0.0
N448 N 0.44553 0.89309 0.65443 0.0
N449 N 0.66049 0.1649 0.62518 0.0
C450 C 0.50459 0.95711 0.64875 0.0
C451 C 0.61588 0.09627 0.63432 0.0
N452 N 0.52864 0.91567 0.59388 0.0
N453 N 0.61756 0.12955 0.69583 0.0
H454 H 0.68236 0.17905 0.60024 0.0
H455 H 0.67124 0.20837 0.64128 0.0
H456 H 0.59795 0.12074 0.72134 0.0
H457 H 0.66536 0.17704 0.69393 0.0
H458 H 0.4961 0.86245 0.59961 0.0
H459 H 0.55582 0.92335 0.57049 0.0
H460 H 0.42034 0.8534 0.63491 0.0
H461 H 0.4187 0.88131 0.67816 0.0
C462 C 0.68571 0.64646 0.97163 0.0
C463 C 0.72148 0.61643 0.95389 0.0
C464 C 0.70259 0.53687 0.00323 0.0
C465 C 0.65588 0.55769 0.01765 0.0
N466 N 0.60463 0.63436 0.01752 0.0
N467 N 0.79573 0.56359 0.9618 0.0
C468 C 0.64838 0.61364 0.00259 0.0
C469 C 0.7398 0.57078 0.9725 0.0
N470 N 0.6927 0.70933 0.96066 0.0
N471 N 0.70891 0.48272 0.01797 0.0
H472 H 0.82787 0.59362 0.94135 0.0
H473 H 0.81569 0.5354 0.97571 0.0
H474 H 0.68286 0.45704 0.04076 0.0
H475 H 0.73586 0.45986 0.00625 0.0
H476 H 0.67122 0.73641 0.97354 0.0
H477 H 0.72912 0.7397 0.94177 0.0
H478 H 0.58983 0.66833 0.00535 0.0
H479 H 0.57968 0.6145 0.04138 0.0
C480 C 0.25085 0.74297 0.30945 0.0
C481 C 0.19407 0.68577 0.28968 0.0
C482 C 1.11653 0.66091 0.33992 0.0
C483 C 0.17511 0.71307 0.36092 0.0
N484 N 0.30107 0.8019 0.36536 0.0
N485 N 1.07875 0.57929 0.28972 0.0
C486 C 0.24284 0.75315 0.34583 0.0
C487 C 0.12849 0.64166 0.30594 0.0
N488 N 0.31267 0.78899 0.29373 0.0
N489 N 1.0488 0.63141 0.3519 0.0
H490 H 1.0869 0.56109 0.26566 0.0
H491 H 1.03315 0.54184 0.30204 0.0
H492 H 1.03722 0.64571 0.37621 0.0
H493 H 1.00347 0.59854 0.33611 0.0
H494 H 0.35514 0.83129 0.30769 0.0
H495 H 0.32036 0.78718 0.26669 0.0
H496 H 0.30091 0.81243 0.39241 0.0
H497 H 0.30091 0.81243 0.39241 0.0
loop_
_geom_bond_atom_site_label_1
_geom_bond_atom_site_label_2
_geom_bond_distance
_geom_bond_site_symmetry_2
_ccdc_geom_bond_type
Tb0 C10 2.825 . S
Tb0 O11 2.347 . S
Tb0 O14 2.366 . S
Tb0 O19 2.418 . S
Tb0 O20 2.384 1_455 S
Tb0 O23 2.479 . S
Tb0 O24 2.471 . S
Eu1 O12 2.418 . S
Eu1 O13 2.384 1_655 S
Eu1 O16 2.479 . S
Eu1 O17 2.471 . S
Eu1 O18 2.347 1_655 S
Eu1 O21 2.366 . S
Eu1 C31 2.825 . S
C2 O18 1.259 . S
C2 O19 1.265 . S
C3 O20 1.255 . S
C3 O21 1.265 . S
C4 C6 1.380 . S
C4 C7 1.374 . S
C4 C10 1.507 . S
C5 C6 1.384 . S
C5 C9 1.387 . S
C5 H32 0.930 . S
C6 C4 1.380 . S
C6 C5 1.384 . S
C6 H33 0.931 . S
C7 C4 1.374 . S
C7 C8 1.390 . S
C7 H34 0.930 . S
C8 C7 1.390 . S
C8 C9 1.391 . S
C8 H35 0.930 . S
C9 C5 1.387 . S
C9 C8 1.391 . S
C10 Tb0 2.825 . S
C10 C4 1.507 . S
C10 O23 1.238 . S
C10 O24 1.247 . S
O11 Tb0 2.347 . S
O11 C15 1.259 . S
O12 Eu1 2.418 . S
O12 C15 1.265 1_655 S
O13 Eu1 2.384 1_455 S
O13 C22 1.255 . S
O14 Tb0 2.366 . S
O14 C22 1.265 . S
C15 O11 1.259 . S
C15 O12 1.265 1_455 S
O16 Eu1 2.479 . S
O16 C31 1.238 . S
O17 Eu1 2.471 . S
O17 C31 1.247 . S
O18 Eu1 2.347 1_455 S
O18 C2 1.259 . S
O19 Tb0 2.418 . S
O19 C2 1.265 . S
O20 Tb0 2.384 1_655 S
O20 C3 1.255 . S
O21 Eu1 2.366 . S
O21 C3 1.265 . S
C22 O13 1.255 . S
C22 O14 1.265 . S
O23 Tb0 2.479 . S
O23 C10 1.238 . S
O24 Tb0 2.471 . S
O24 C10 1.247 . S
C25 C28 1.380 . S
C25 C29 1.374 . S
C25 C31 1.507 . S
C26 C27 1.387 . S
C26 C30 1.391 . S
C27 C26 1.387 . S
C27 C28 1.384 . S
C27 H36 0.930 . S
C28 C25 1.380 . S
C28 C27 1.384 . S
C28 H37 0.931 . S
C29 C25 1.374 . S
C29 C30 1.390 . S
C29 H38 0.930 . S
C30 C26 1.391 . S
C30 C29 1.390 . S
C30 H39 0.930 . S
C31 Eu1 2.825 . S
C31 O16 1.238 . S
C31 O17 1.247 . S
C31 C25 1.507 . S
H32 C5 0.930 . S
H33 C6 0.931 . S
H34 C7 0.930 . S
H35 C8 0.930 . S
H36 C27 0.930 . S
H37 C28 0.931 . S
H38 C29 0.930 . S
H39 C30 0.930 . S
Tb40 C50 2.825 . S
Tb40 O51 2.347 . S
Tb40 O54 2.366 . S
Tb40 O59 2.418 . S
Tb40 O60 2.384 1_545 S
Tb40 O63 2.479 . S
Tb40 O64 2.471 . S
Eu41 O52 2.418 . S
Eu41 O53 2.384 . S
Eu41 O56 2.479 1_545 S
Eu41 O57 2.471 1_545 S
Eu41 O58 2.347 . S
Eu41 O61 2.366 1_545 S
Eu41 C71 2.825 1_545 S
C42 O58 1.259 . S
C42 O59 1.265 . S
C43 O60 1.255 . S
C43 O61 1.265 . S
C44 C46 1.380 . S
C44 C47 1.374 . S
C44 C50 1.507 . S
C45 C46 1.384 . S
C45 C49 1.387 . S
C45 H72 0.930 . S
C46 C44 1.380 . S
C46 C45 1.384 . S
C46 H73 0.931 . S
C47 C44 1.374 . S
C47 C48 1.390 . S
C47 H74 0.930 . S
C48 C47 1.390 . S
C48 C49 1.391 . S
C48 H75 0.930 . S
C49 C45 1.387 . S
C49 C48 1.391 . S
C50 Tb40 2.825 . S
C50 C44 1.507 . S
C50 O63 1.238 . S
C50 O64 1.247 . S
O51 Tb40 2.347 . S
O51 C55 1.259 . S
O52 Eu41 2.418 . S
O52 C55 1.265 . S
O53 Eu41 2.384 . S
O53 C62 1.255 . S
O54 Tb40 2.366 . S
O54 C62 1.265 . S
C55 O51 1.259 . S
C55 O52 1.265 . S
O56 Eu41 2.479 1_565 S
O56 C71 1.238 . S
O57 Eu41 2.471 1_565 S
O57 C71 1.247 . S
O58 Eu41 2.347 . S
O58 C42 1.259 . S
O59 Tb40 2.418 . S
O59 C42 1.265 . S
O60 Tb40 2.384 1_565 S
O60 C43 1.255 . S
O61 Eu41 2.366 1_565 S
O61 C43 1.265 . S
C62 O53 1.255 . S
C62 O54 1.265 . S
O63 Tb40 2.479 . S
O63 C50 1.238 . S
O64 Tb40 2.471 . S
O64 C50 1.247 . S
C65 C68 1.380 . S
C65 C69 1.374 . S
C65 C71 1.507 . S
C66 C67 1.387 . S
C66 C70 1.391 . S
C67 C66 1.387 . S
C67 C68 1.384 . S
C67 H76 0.930 . S
C68 C65 1.380 . S
C68 C67 1.384 . S
C68 H77 0.931 . S
C69 C65 1.374 . S
C69 C70 1.390 . S
C69 H78 0.930 . S
C70 C66 1.391 . S
C70 C69 1.390 . S
C70 H79 0.930 . S
C71 Eu41 2.825 1_565 S
C71 O56 1.238 . S
C71 O57 1.247 . S
C71 C65 1.507 . S
H72 C45 0.930 . S
H73 C46 0.931 . S
H74 C47 0.930 . S
H75 C48 0.930 . S
H76 C67 0.930 . S
H77 C68 0.931 . S
H78 C69 0.930 . S
H79 C70 0.930 . S
Tb80 C90 2.825 . S
Tb80 O91 2.347 . S
Tb80 O94 2.366 . S
Tb80 O99 2.418 . S
Tb80 O100 2.384 . S
Tb80 O103 2.479 . S
Tb80 O104 2.471 . S
Eu81 O92 2.418 . S
Eu81 O93 2.384 . S
Eu81 O96 2.479 . S
Eu81 O97 2.471 . S
Eu81 O98 2.347 . S
Eu81 O101 2.366 . S
Eu81 C111 2.825 . S
C82 O98 1.259 . S
C82 O99 1.265 . S
C83 O100 1.255 . S
C83 O101 1.265 . S
C84 C86 1.380 . S
C84 C87 1.374 . S
C84 C90 1.507 . S
C85 C86 1.384 . S
C85 C89 1.387 . S
C85 H112 0.930 . S
C86 C84 1.380 . S
C86 C85 1.384 . S
C86 H113 0.931 . S
C87 C84 1.374 . S
C87 C88 1.390 . S
C87 H114 0.930 . S
C88 C87 1.390 . S
C88 C89 1.391 . S
C88 H115 0.930 . S
C89 C85 1.387 . S
C89 C88 1.391 . S
C90 Tb80 2.825 . S
C90 C84 1.507 . S
C90 O103 1.238 . S
C90 O104 1.247 . S
O91 Tb80 2.347 . S
O91 C95 1.259 . S
O92 Eu81 2.418 . S
O92 C95 1.265 . S
O93 Eu81 2.384 . S
O93 C102 1.255 . S
O94 Tb80 2.366 . S
O94 C102 1.265 . S
C95 O91 1.259 . S
C95 O92 1.265 . S
O96 Eu81 2.479 . S
O96 C111 1.238 . S
O97 Eu81 2.471 . S
O97 C111 1.247 . S
O98 Eu81 2.347 . S
O98 C82 1.259 . S
O99 Tb80 2.418 . S
O99 C82 1.265 . S
O100 Tb80 2.384 . S
O100 C83 1.255 . S
O101 Eu81 2.366 . S
O101 C83 1.265 . S
C102 O93 1.255 . S
C102 O94 1.265 . S
O103 Tb80 2.479 . S
O103 C90 1.238 . S
O104 Tb80 2.471 . S
O104 C90 1.247 . S
C105 C108 1.380 . S
C105 C109 1.374 . S
C105 C111 1.507 . S
C106 C107 1.387 . S
C106 C110 1.391 . S
C107 C106 1.387 . S
C107 C108 1.384 . S
C107 H116 0.930 . S
C108 C105 1.380 . S
C108 C107 1.384 . S
C108 H117 0.931 . S
C109 C105 1.374 . S
C109 C110 1.390 . S
C109 H118 0.930 . S
C110 C106 1.391 . S
C110 C109 1.390 . S
C110 H119 0.930 . S
C111 Eu81 2.825 . S
C111 O96 1.238 . S
C111 O97 1.247 . S
C111 C105 1.507 . S
H112 C85 0.930 . S
H113 C86 0.931 . S
H114 C87 0.930 . S
H115 C88 0.930 . S
H116 C107 0.930 . S
H117 C108 0.931 . S
H118 C109 0.930 . S
H119 C110 0.930 . S
H120 C123 0.931 . S
H121 C126 0.928 . S
H122 C128 0.930 . S
C123 H120 0.931 . S
C123 C124 1.413 . S
C123 C125 1.360 1_565 S
C124 C123 1.413 . S
C124 C128 1.429 1_565 S
C125 C123 1.360 1_545 S
C125 C126 1.372 . S
C126 H121 0.928 . S
C126 C125 1.372 . S
C126 C127 1.404 . S
C127 C126 1.404 . S
C127 C128 1.391 . S
C128 H122 0.930 . S
C128 C124 1.429 1_545 S
C128 C127 1.391 . S
H129 C132 0.931 . S
H130 C135 0.928 . S
H131 C137 0.930 . S
C132 H129 0.931 . S
C132 C133 1.413 . S
C132 C134 1.360 . S
C133 C132 1.413 . S
C133 C137 1.429 . S
C134 C132 1.360 . S
C134 C135 1.372 . S
C135 H130 0.928 . S
C135 C134 1.372 . S
C135 C136 1.404 . S
C136 C135 1.404 . S
C136 C137 1.391 . S
C137 H131 0.930 . S
C137 C133 1.429 . S
C137 C136 1.391 . S
H138 C141 0.931 . S
H139 C144 0.928 . S
H140 C146 0.930 . S
C141 H138 0.931 . S
C141 C142 1.413 . S
C141 C143 1.360 1_655 S
C142 C141 1.413 . S
C142 C146 1.429 1_655 S
C143 C141 1.360 1_455 S
C143 C144 1.372 . S
C144 H139 0.928 . S
C144 C143 1.372 . S
C144 C145 1.404 . S
C145 C144 1.404 . S
C145 C146 1.391 . S
C146 H140 0.930 . S
C146 C142 1.429 1_455 S
C146 C145 1.391 . S
H147 C150 0.931 . S
H148 C153 0.928 . S
H149 C155 0.930 . S
C150 H147 0.931 . S
C150 C151 1.413 . S
C150 C152 1.360 1_655 S
C151 C150 1.413 . S
C151 C155 1.429 1_655 S
C152 C150 1.360 1_455 S
C152 C153 1.372 . S
C153 H148 0.928 . S
C153 C152 1.372 . S
C153 C154 1.404 . S
C154 C153 1.404 . S
C154 C155 1.391 . S
C155 H149 0.930 . S
C155 C151 1.429 1_455 S
C155 C154 1.391 . S
H156 C159 0.931 . S
H157 C162 0.928 . S
H158 C164 0.930 . S
C159 H156 0.931 . S
C159 C160 1.413 . S
C159 C161 1.360 . S
C160 C159 1.413 . S
C160 C164 1.442 . S
C161 C159 1.360 . S
C161 C162 1.372 1_545 S
C162 H157 0.928 . S
C162 C161 1.372 1_565 S
C162 C163 1.404 . S
C163 C162 1.404 . S
C163 C164 1.378 1_565 S
C164 H158 0.930 . S
C164 C160 1.442 . S
C164 C163 1.378 1_545 S
H165 C168 0.931 . S
H166 C171 0.928 . S
H167 C173 0.930 . S
C168 H165 0.931 . S
C168 C169 1.413 . S
C168 C170 1.360 . S
C169 C168 1.413 . S
C169 C173 1.429 . S
C170 C168 1.360 . S
C170 C171 1.372 . S
C171 H166 0.928 . S
C171 C170 1.372 . S
C171 C172 1.404 . S
C172 C171 1.404 . S
C172 C173 1.391 . S
C173 H167 0.930 . S
C173 C169 1.429 . S
C173 C172 1.391 . S
C174 C175 1.363 . S
C174 C180 1.379 . S
C174 N182 1.356 . S
C175 C174 1.363 . S
C175 C181 1.363 . S
C176 C177 1.363 . S
C176 C181 1.379 . S
C176 N183 1.356 . S
C177 C176 1.363 . S
C177 C180 1.363 . S
N178 C180 1.356 . S
N178 H190 0.984 . S
N178 H191 0.985 . S
N179 C181 1.356 . S
N179 H184 0.984 . S
N179 H185 0.985 . S
C180 C174 1.379 . S
C180 C177 1.363 . S
C180 N178 1.356 . S
C181 C175 1.363 . S
C181 C176 1.379 . S
C181 N179 1.356 . S
N182 C174 1.356 . S
N182 H188 0.984 . S
N182 H189 0.984 . S
N183 C176 1.356 . S
N183 H186 0.984 . S
N183 H187 0.985 . S
H184 N179 0.984 . S
H185 N179 0.985 . S
H186 N183 0.984 . S
H187 N183 0.985 . S
H188 N182 0.984 . S
H189 N182 0.984 . S
H190 N178 0.984 . S
H191 N178 0.985 . S
C192 C193 1.363 . S
C192 C198 1.379 . S
C192 N200 1.356 . S
C193 C192 1.363 . S
C193 C199 1.363 . S
C194 C195 1.363 . S
C194 C199 1.379 . S
C194 N201 1.356 . S
C195 C194 1.363 . S
C195 C198 1.363 . S
N196 C198 1.356 . S
N196 H208 0.984 . S
N196 H209 0.985 . S
N197 C199 1.356 . S
N197 H202 0.984 . S
N197 H203 0.985 . S
C198 C192 1.379 . S
C198 C195 1.363 . S
C198 N196 1.356 . S
C199 C193 1.363 . S
C199 C194 1.379 . S
C199 N197 1.356 . S
N200 C192 1.356 . S
N200 H206 0.984 . S
N200 H207 0.984 . S
N201 C194 1.356 . S
N201 H204 0.984 . S
N201 H205 0.985 . S
H202 N197 0.984 . S
H203 N197 0.985 . S
H204 N201 0.984 . S
H205 N201 0.985 . S
H206 N200 0.984 . S
H207 N200 0.984 . S
H208 N196 0.984 . S
H209 N196 0.985 . S
C210 C211 1.363 . S
C210 C216 1.379 . S
C210 N218 1.356 . S
C211 C210 1.363 . S
C211 C217 1.363 . S
C212 C213 1.363 . S
C212 C217 1.379 . S
C212 N219 1.356 . S
C213 C212 1.363 . S
C213 C216 1.363 . S
N214 C216 1.356 1_545 S
N214 H226 0.984 . S
N214 H227 0.985 . S
N215 C217 1.356 . S
N215 H220 0.984 . S
N215 H221 0.985 . S
C216 C210 1.379 . S
C216 C213 1.363 . S
C216 N214 1.356 1_565 S
C217 C211 1.363 . S
C217 C212 1.379 . S
C217 N215 1.356 . S
N218 C210 1.356 . S
N218 H224 0.984 1_565 S
N218 H225 0.984 . S
N219 C212 1.356 . S
N219 H222 0.984 . S
N219 H223 0.985 . S
H220 N215 0.984 . S
H221 N215 0.985 . S
H222 N219 0.984 . S
H223 N219 0.985 . S
H224 N218 0.984 1_545 S
H225 N218 0.984 . S
H226 N214 0.984 . S
H227 N214 0.985 . S
C228 C229 1.363 . S
C228 C234 1.379 . S
C228 N236 1.356 . S
C229 C228 1.363 . S
C229 C235 1.363 . S
C230 C231 1.363 . S
C230 C235 1.379 . S
C230 N237 1.356 . S
C231 C230 1.363 . S
C231 C234 1.363 . S
N232 C234 1.356 . S
N232 H244 0.984 . S
N232 H245 0.985 . S
N233 C235 1.356 . S
N233 H238 0.984 . S
N233 H239 0.985 . S
C234 C228 1.379 . S
C234 C231 1.363 . S
C234 N232 1.356 . S
C235 C229 1.363 . S
C235 C230 1.379 . S
C235 N233 1.356 . S
N236 C228 1.356 . S
N236 H242 0.984 . S
N236 H243 0.984 . S
N237 C230 1.356 . S
N237 H240 0.984 . S
N237 H241 0.985 . S
H238 N233 0.984 . S
H239 N233 0.985 . S
H240 N237 0.984 . S
H241 N237 0.985 . S
H242 N236 0.984 . S
H243 N236 0.984 . S
H244 N232 0.984 . S
H245 N232 0.985 . S
C246 C247 1.363 . S
C246 C252 1.379 . S
C246 N254 1.356 . S
C247 C246 1.363 . S
C247 C253 1.363 . S
C248 C249 1.363 . S
C248 C253 1.379 . S
C248 N255 1.356 . S
C249 C248 1.363 . S
C249 C252 1.363 . S
N250 C252 1.356 . S
N250 H262 0.984 . S
N250 H263 0.985 . S
N251 C253 1.356 . S
N251 H256 0.984 . S
N251 H257 0.985 . S
C252 C246 1.379 . S
C252 C249 1.363 . S
C252 N250 1.356 . S
C253 C247 1.363 . S
C253 C248 1.379 . S
C253 N251 1.356 . S
N254 C246 1.356 . S
N254 H260 0.984 . S
N254 H261 0.984 . S
N255 C248 1.356 . S
N255 H258 0.984 . S
N255 H259 0.985 . S
H256 N251 0.984 . S
H257 N251 0.985 . S
H258 N255 0.984 . S
H259 N255 0.985 . S
H260 N254 0.984 . S
H261 N254 0.984 . S
H262 N250 0.984 . S
H263 N250 0.985 . S
C264 C265 1.363 . S
C264 C270 1.379 . S
C264 N272 1.356 . S
C265 C264 1.363 . S
C265 C271 1.363 . S
C266 C267 1.363 . S
C266 C271 1.379 . S
C266 N273 1.356 . S
C267 C266 1.363 . S
C267 C270 1.363 . S
N268 C270 1.356 . S
N268 H280 0.984 1_545 S
N268 H281 0.987 . S
N269 C271 1.356 . S
N269 H274 0.984 . S
N269 H275 0.985 . S
C270 C264 1.379 . S
C270 C267 1.363 . S
C270 N268 1.356 . S
C271 C265 1.363 . S
C271 C266 1.379 . S
C271 N269 1.356 . S
N272 C264 1.356 . S
N272 H278 0.984 . S
N272 H279 0.984 . S
N273 C266 1.356 . S
N273 H276 0.984 . S
N273 H277 0.985 . S
H274 N269 0.984 . S
H275 N269 0.985 . S
H276 N273 0.984 . S
H277 N273 0.985 . S
H278 N272 0.984 . S
H279 N272 0.984 . S
H280 N268 0.984 1_565 S
H281 N268 0.987 . S
C282 C283 1.363 . S
C282 C288 1.379 . S
C282 N290 1.356 . S
C283 C282 1.363 . S
C283 C289 1.363 . S
C284 C285 1.363 . S
C284 C289 1.379 . S
C284 N291 1.356 . S
C285 C284 1.363 . S
C285 C288 1.363 . S
N286 C288 1.356 . S
N286 H298 0.984 . S
N286 H299 0.985 . S
N287 C289 1.356 . S
N287 H292 0.984 . S
N287 H293 0.985 . S
C288 C282 1.379 . S
C288 C285 1.363 . S
C288 N286 1.356 . S
C289 C283 1.363 . S
C289 C284 1.379 . S
C289 N287 1.356 . S
N290 C282 1.356 . S
N290 H296 0.984 . S
N290 H297 0.984 . S
N291 C284 1.356 . S
N291 H294 0.984 . S
N291 H295 0.985 . S
H292 N287 0.984 . S
H293 N287 0.985 . S
H294 N291 0.984 . S
H295 N291 0.985 . S
H296 N290 0.984 . S
H297 N290 0.984 . S
H298 N286 0.984 . S
H299 N286 0.985 . S
C300 C301 1.363 . S
C300 C306 1.379 . S
C300 N308 1.356 . S
C301 C300 1.363 . S
C301 C307 1.363 . S
C302 C303 1.363 . S
C302 C307 1.379 . S
C302 N309 1.356 . S
C303 C302 1.363 . S
C303 C306 1.363 . S
N304 C306 1.356 . S
N304 H316 0.984 . S
N304 H317 0.985 . S
N305 C307 1.356 . S
N305 H310 0.984 . S
N305 H311 0.985 . S
C306 C300 1.379 . S
C306 C303 1.363 . S
C306 N304 1.356 . S
C307 C301 1.363 . S
C307 C302 1.379 . S
C307 N305 1.356 . S
N308 C300 1.356 . S
N308 H314 0.984 . S
N308 H315 0.984 . S
N309 C302 1.356 . S
N309 H312 0.984 . S
N309 H313 0.985 . S
H310 N305 0.984 . S
H311 N305 0.985 . S
H312 N309 0.984 . S
H313 N309 0.985 . S
H314 N308 0.984 . S
H315 N308 0.984 . S
H316 N304 0.984 . S
H317 N304 0.985 . S
C318 C319 1.363 . S
C318 C324 1.379 . S
C318 N326 1.356 . S
C319 C318 1.363 . S
C319 C325 1.363 . S
C320 C321 1.363 . S
C320 C325 1.379 . S
C320 N327 1.356 . S
C321 C320 1.363 . S
C321 C324 1.363 . S
N322 C324 1.356 . S
N322 H334 0.984 . S
N322 H335 0.985 . S
N323 C325 1.356 . S
N323 H328 0.984 . S
N323 H329 0.985 . S
C324 C318 1.379 . S
C324 C321 1.363 . S
C324 N322 1.356 . S
C325 C319 1.363 . S
C325 C320 1.379 . S
C325 N323 1.356 . S
N326 C318 1.356 . S
N326 H332 0.984 . S
N326 H333 0.984 . S
N327 C320 1.356 . S
N327 H330 0.984 . S
N327 H331 0.985 . S
H328 N323 0.984 . S
H329 N323 0.985 . S
H330 N327 0.984 . S
H331 N327 0.985 . S
H332 N326 0.984 . S
H333 N326 0.984 . S
H334 N322 0.984 . S
H335 N322 0.985 . S
C336 C337 1.363 . S
C336 C342 1.379 . S
C336 N344 1.356 . S
C337 C336 1.363 . S
C337 C343 1.363 . S
C338 C339 1.363 . S
C338 C343 1.379 . S
C338 N345 1.356 . S
C339 C338 1.363 . S
C339 C342 1.363 . S
N340 C342 1.356 . S
N340 H352 0.984 . S
N340 H353 0.985 . S
N341 C343 1.356 . S
N341 H346 0.984 . S
N341 H347 0.985 . S
C342 C336 1.379 . S
C342 C339 1.363 . S
C342 N340 1.356 . S
C343 C337 1.363 . S
C343 C338 1.379 . S
C343 N341 1.356 . S
N344 C336 1.356 . S
N344 H350 0.984 . S
N344 H351 0.984 . S
N345 C338 1.356 . S
N345 H348 0.984 . S
N345 H349 0.985 . S
H346 N341 0.984 . S
H347 N341 0.985 . S
H348 N345 0.984 . S
H349 N345 0.985 . S
H350 N344 0.984 . S
H351 N344 0.984 . S
H352 N340 0.984 . S
H353 N340 0.985 . S
C354 C355 1.363 . S
C354 C360 1.379 . S
C354 N362 1.356 . S
C355 C354 1.363 . S
C355 C361 1.363 . S
C356 C357 1.363 . S
C356 C361 1.379 . S
C356 N363 1.356 . S
C357 C356 1.363 . S
C357 C360 1.363 . S
N358 C360 1.356 . S
N358 H370 0.984 . S
N358 H371 0.985 . S
N359 C361 1.356 . S
N359 H364 0.984 . S
N359 H365 0.985 . S
C360 C354 1.379 . S
C360 C357 1.363 . S
C360 N358 1.356 . S
C361 C355 1.363 . S
C361 C356 1.379 . S
C361 N359 1.356 . S
N362 C354 1.356 . S
N362 H368 0.984 . S
N362 H369 0.984 . S
N363 C356 1.356 . S
N363 H366 0.984 . S
N363 H367 0.985 . S
H364 N359 0.984 . S
H365 N359 0.985 . S
H366 N363 0.984 . S
H367 N363 0.985 . S
H368 N362 0.984 . S
H369 N362 0.984 . S
H370 N358 0.984 . S
H371 N358 0.985 . S
C372 C373 1.363 . S
C372 C378 1.379 . S
C372 N380 1.356 . S
C373 C372 1.363 . S
C373 C379 1.363 . S
C374 C375 1.363 . S
C374 C379 1.379 . S
C374 N381 1.356 . S
C375 C374 1.363 . S
C375 C378 1.363 . S
N376 C378 1.356 . S
N376 H388 0.984 . S
N376 H389 0.985 . S
N377 C379 1.356 . S
N377 H382 0.984 . S
N377 H383 0.985 . S
C378 C372 1.379 . S
C378 C375 1.363 . S
C378 N376 1.356 . S
C379 C373 1.363 . S
C379 C374 1.379 . S
C379 N377 1.356 . S
N380 C372 1.356 . S
N380 H386 0.984 . S
N380 H387 0.984 . S
N381 C374 1.356 . S
N381 H384 0.984 . S
N381 H385 0.985 . S
H382 N377 0.984 . S
H383 N377 0.985 . S
H384 N381 0.984 . S
H385 N381 0.985 . S
H386 N380 0.984 . S
H387 N380 0.984 . S
H388 N376 0.984 . S
H389 N376 0.985 . S
C390 C391 1.363 . S
C390 C396 1.379 . S
C390 N398 1.356 . S
C391 C390 1.363 . S
C391 C397 1.363 . S
C392 C393 1.363 1_554 S
C392 C397 1.379 . S
C392 N399 1.356 1_554 S
C393 C392 1.363 1_556 S
C393 C396 1.363 1_556 S
N394 C396 1.356 1_556 S
N394 H406 0.984 . S
N394 H407 0.985 . S
N395 C397 1.356 . S
N395 H400 0.984 . S
N395 H401 0.985 . S
C396 C390 1.379 . S
C396 C393 1.363 1_554 S
C396 N394 1.356 1_554 S
C397 C391 1.363 . S
C397 C392 1.379 . S
C397 N395 1.356 . S
N398 C390 1.356 . S
N398 H404 0.984 . S
N398 H405 0.984 . S
N399 C392 1.356 1_556 S
N399 H402 0.984 . S
N399 H403 0.985 . S
H400 N395 0.984 . S
H401 N395 0.985 . S
H402 N399 0.984 . S
H403 N399 0.985 . S
H404 N398 0.984 . S
H405 N398 0.984 . S
H406 N394 0.984 . S
H407 N394 0.985 . S
C408 C409 1.363 . S
C408 C414 1.379 1_545 S
C408 N416 1.356 1_545 S
C409 C408 1.363 . S
C409 C415 1.363 . S
C410 C411 1.363 . S
C410 C415 1.379 . S
C410 N417 1.356 . S
C411 C410 1.363 . S
C411 C414 1.363 1_545 S
N412 C414 1.356 . S
N412 H424 0.984 . S
N412 H425 0.985 . S
N413 C415 1.356 . S
N413 H418 0.984 . S
N413 H419 0.985 . S
C414 C408 1.379 1_565 S
C414 C411 1.363 1_565 S
C414 N412 1.356 . S
C415 C409 1.363 . S
C415 C410 1.379 . S
C415 N413 1.356 . S
N416 C408 1.356 1_565 S
N416 H422 0.984 . S
N416 H423 0.984 . S
N417 C410 1.356 . S
N417 H420 0.984 . S
N417 H421 0.985 . S
H418 N413 0.984 . S
H419 N413 0.985 . S
H420 N417 0.984 . S
H421 N417 0.985 . S
H422 N416 0.984 . S
H423 N416 0.984 . S
H424 N412 0.984 . S
H425 N412 0.985 . S
C426 C427 1.363 . S
C426 C432 1.379 . S
C426 N434 1.356 . S
C427 C426 1.363 . S
C427 C433 1.363 . S
C428 C429 1.363 . S
C428 C433 1.379 . S
C428 N435 1.356 . S
C429 C428 1.363 . S
C429 C432 1.363 . S
N430 C432 1.356 . S
N430 H442 0.984 . S
N430 H443 0.985 . S
N431 C433 1.356 . S
N431 H436 0.984 . S
N431 H437 0.985 . S
C432 C426 1.379 . S
C432 C429 1.363 . S
C432 N430 1.356 . S
C433 C427 1.363 . S
C433 C428 1.379 . S
C433 N431 1.356 . S
N434 C426 1.356 . S
N434 H440 0.984 . S
N434 H441 0.984 . S
N435 C428 1.356 . S
N435 H438 0.984 . S
N435 H439 0.985 . S
H436 N431 0.984 . S
H437 N431 0.985 . S
H438 N435 0.984 . S
H439 N435 0.985 . S
H440 N434 0.984 . S
H441 N434 0.984 . S
H442 N430 0.984 . S
H443 N430 0.985 . S
C444 C445 1.363 1_565 S
C444 C450 1.379 . S
C444 N452 1.356 . S
C445 C444 1.363 1_545 S
C445 C451 1.363 . S
C446 C447 1.363 . S
C446 C451 1.379 . S
C446 N453 1.356 . S
C447 C446 1.363 . S
C447 C450 1.363 1_545 S
N448 C450 1.356 . S
N448 H460 0.984 . S
N448 H461 0.985 . S
N449 C451 1.356 . S
N449 H454 0.984 . S
N449 H455 0.985 . S
C450 C444 1.379 . S
C450 C447 1.363 1_565 S
C450 N448 1.356 . S
C451 C445 1.363 . S
C451 C446 1.379 . S
C451 N449 1.356 . S
N452 C444 1.356 . S
N452 H458 0.984 . S
N452 H459 0.984 . S
N453 C446 1.356 . S
N453 H456 0.984 . S
N453 H457 0.985 . S
H454 N449 0.984 . S
H455 N449 0.985 . S
H456 N453 0.984 . S
H457 N453 0.985 . S
H458 N452 0.984 . S
H459 N452 0.984 . S
H460 N448 0.984 . S
H461 N448 0.985 . S
C462 C463 1.363 . S
C462 C468 1.379 1_556 S
C462 N470 1.356 . S
C463 C462 1.363 . S
C463 C469 1.363 . S
C464 C465 1.363 1_556 S
C464 C469 1.379 . S
C464 N471 1.356 . S
C465 C464 1.363 1_554 S
C465 C468 1.363 . S
N466 C468 1.356 . S
N466 H478 0.984 . S
N466 H479 0.985 . S
N467 C469 1.356 . S
N467 H472 0.984 . S
N467 H473 0.985 . S
C468 C462 1.379 1_554 S
C468 C465 1.363 . S
C468 N466 1.356 . S
C469 C463 1.363 . S
C469 C464 1.379 . S
C469 N467 1.356 . S
N470 C462 1.356 . S
N470 H476 0.984 . S
N470 H477 0.984 . S
N471 C464 1.356 . S
N471 H474 0.984 1_556 S
N471 H475 0.985 . S
H472 N467 0.984 . S
H473 N467 0.985 . S
H474 N471 0.984 1_554 S
H475 N471 0.985 . S
H476 N470 0.984 . S
H477 N470 0.984 . S
H478 N466 0.984 . S
H479 N466 0.985 . S
C480 C481 1.363 . S
C480 C486 1.379 . S
C480 N488 1.356 . S
C481 C480 1.363 . S
C481 C487 1.363 1_455 S
C482 C483 1.363 1_655 S
C482 C487 1.379 . S
C482 N489 1.356 . S
C483 C482 1.363 1_455 S
C483 C486 1.363 . S
N484 C486 1.356 . S
N484 H496 0.984 . S
N484 H497 0.985 . S
N485 C487 1.356 . S
N485 H490 0.984 . S
N485 H491 0.985 . S
C486 C480 1.379 . S
C486 C483 1.363 . S
C486 N484 1.356 . S
C487 C481 1.363 1_655 S
C487 C482 1.379 . S
C487 N485 1.356 . S
N488 C480 1.356 . S
N488 H494 0.984 . S
N488 H495 0.984 . S
N489 C482 1.356 . S
N489 H492 0.984 . S
N489 H493 0.985 . S
H490 N485 0.984 . S
H491 N485 0.985 . S
H492 N489 0.984 . S
H493 N489 0.985 . S
H494 N488 0.984 . S
H495 N488 0.984 . S
H496 N484 0.984 . S
H497 N484 0.985 . S
C175 C9 0.971 . S
C177 C169 1.076 . S
C193 C49 0.926 . S
C195 C151 0.994 . S
C211 C89 0.919 . S
C213 C163 0.981 . S
C229 C26 0.956 . S
C231 C172 1.104 . S
C249 C154 1.139 . S
C247 C66 0.965 . S
C267 C160 1.215 . S
C265 C106 1.016 . S
C283 C43 2.948 . S
C285 C133 2.930 . S
C301 C83 3.014 . S
C303 C142 2.984 . S
C319 C22 3.047 . S
C321 C124 3.009 . S
C339 C136 3.013 . S
C337 C62 3.053 . S
C357 C145 2.953 . S
C355 C102 2.981 . S
C373 C3 2.953 . S
C375 C127 2.937 . S
C393 C143 1.840 . S
C391 C15 1.765 . S
C409 C55 1.776 . S
C411 C125 1.837 . S
C427 C95 1.771 . S
C429 C134 1.831 . S
C447 C161 0.917 . S
C445 C42 0.922 . S
C465 C170 0.915 . S
C463 C82 0.918 . S
C481 C2 0.902 . S
C483 C152 0.897 . S
