# Generated by pormake.
# Topology zzz, (3,6)-cn, num edge types: 1
# Building blocks:
#     Node 0, Type 0, BuildingBlock: KAKCAD_clean_linker_0, # of connection points: 3
#     Node 1, Type 0, BuildingBlock: KAKCAD_clean_linker_0, # of connection points: 3
#     Node 2, Type 0, BuildingBlock: KAKCAD_clean_linker_0, # of connection points: 3
#     Node 3, Type 0, BuildingBlock: KAKCAD_clean_linker_0, # of connection points: 3
#     Node 4, Type 0, BuildingBlock: KAKCAD_clean_linker_0, # of connection points: 3
#     Node 5, Type 0, BuildingBlock: KAKCAD_clean_linker_0, # of connection points: 3
#     Node 6, Type 0, BuildingBlock: KAKCAD_clean_linker_0, # of connection points: 3
#     Node 7, Type 0, BuildingBlock: KAKCAD_clean_linker_0, # of connection points: 3
#     Node 8, Type 1, BuildingBlock: GEDQOX_clean_sbu_0, # of connection points: 6
#     Node 9, Type 1, BuildingBlock: GEDQOX_clean_sbu_0, # of connection points: 6
#     Node 10, Type 1, BuildingBlock: GEDQOX_clean_sbu_0, # of connection points: 6
#     Node 11, Type 1, BuildingBlock: GEDQOX_clean_sbu_0, # of connection points: 6
#     Edge 12, Type (0, 1), BuildingBlock: UVAHIK_clean_linker_0, # of connection points: 2
#     Edge 13, Type (0, 1), BuildingBlock: UVAHIK_clean_linker_0, # of connection points: 2
#     Edge 14, Type (0, 1), BuildingBlock: UVAHIK_clean_linker_0, # of connection points: 2
#     Edge 15, Type (0, 1), BuildingBlock: UVAHIK_clean_linker_0, # of connection points: 2
#     Edge 16, Type (0, 1), BuildingBlock: UVAHIK_clean_linker_0, # of connection points: 2
#     Edge 17, Type (0, 1), BuildingBlock: UVAHIK_clean_linker_0, # of connection points: 2
#     Edge 18, Type (0, 1), BuildingBlock: UVAHIK_clean_linker_0, # of connection points: 2
#     Edge 19, Type (0, 1), BuildingBlock: UVAHIK_clean_linker_0, # of connection points: 2
#     Edge 20, Type (0, 1), BuildingBlock: UVAHIK_clean_linker_0, # of connection points: 2
#     Edge 21, Type (0, 1), BuildingBlock: UVAHIK_clean_linker_0, # of connection points: 2
#     Edge 22, Type (0, 1), BuildingBlock: UVAHIK_clean_linker_0, # of connection points: 2
#     Edge 23, Type (0, 1), BuildingBlock: UVAHIK_clean_linker_0, # of connection points: 2
#     Edge 24, Type (0, 1), BuildingBlock: UVAHIK_clean_linker_0, # of connection points: 2
#     Edge 25, Type (0, 1), BuildingBlock: UVAHIK_clean_linker_0, # of connection points: 2
#     Edge 26, Type (0, 1), BuildingBlock: UVAHIK_clean_linker_0, # of connection points: 2
#     Edge 27, Type (0, 1), BuildingBlock: UVAHIK_clean_linker_0, # of connection points: 2
#     Edge 28, Type (0, 1), BuildingBlock: UVAHIK_clean_linker_0, # of connection points: 2
#     Edge 29, Type (0, 1), BuildingBlock: UVAHIK_clean_linker_0, # of connection points: 2
#     Edge 30, Type (0, 1), BuildingBlock: UVAHIK_clean_linker_0, # of connection points: 2
#     Edge 31, Type (0, 1), BuildingBlock: UVAHIK_clean_linker_0, # of connection points: 2
#     Edge 32, Type (0, 1), BuildingBlock: UVAHIK_clean_linker_0, # of connection points: 2
#     Edge 33, Type (0, 1), BuildingBlock: UVAHIK_clean_linker_0, # of connection points: 2
#     Edge 34, Type (0, 1), BuildingBlock: UVAHIK_clean_linker_0, # of connection points: 2
#     Edge 35, Type (0, 1), BuildingBlock: UVAHIK_clean_linker_0, # of connection points: 2
# Relax obj value: 0.301
# Max RMSD: 0.253
# Mean RMSD: 0.203
data_MOF--net-zzz--node1-GEDQOX_clean_sbu_0--node2-KAKCAD_clean_linker_0--edge1-UVAHIK_clean_linker_0
_symmetry_space_group_name_H-M    P1
_symmetry_Int_Tables_number       1
_symmetry_cell_setting            triclinic
loop_
_symmetry_equiv_pos_as_xyz
'x, y, z'
_cell_length_a     77.998273
_cell_length_b     71.836233
_cell_length_c     26.166911
_cell_angle_alpha  83.987107
_cell_angle_beta   91.718345
_cell_angle_gamma 101.00634
loop_
_atom_site_label
_atom_site_type_symbol
_atom_site_fract_x
_atom_site_fract_y
_atom_site_fract_z
_atom_type_partial_charge
C0 C 0.79328 0.41548 0.94505 0.0
C1 C 0.80667 0.40604 0.96446 0.0
C2 C 0.77919 0.41634 0.97581 0.0
C3 C 0.77813 0.40767 0.02663 0.0
C4 C 0.7907 0.39677 0.04438 0.0
C5 C 0.80485 0.39598 0.01364 0.0
C6 C 0.76556 0.41236 0.06273 0.0
C7 C 0.74863 0.41437 0.04652 0.0
C8 C 0.73786 0.42214 0.07746 0.0
C9 C 0.74412 0.42723 0.12617 0.0
C10 C 0.76084 0.42476 0.14359 0.0
C11 C 0.77139 0.41731 0.11161 0.0
C12 C 0.76825 0.43165 0.19268 0.0
C13 C 0.76686 0.44984 0.20523 0.0
C14 C 0.77839 0.42089 0.22454 0.0
C15 C 0.78777 0.42858 0.26618 0.0
C16 C 0.7872 0.44722 0.277 0.0
C17 C 0.72069 0.42619 0.05739 0.0
C18 C 0.71862 0.43244 0.0051 0.0
C19 C 0.70642 0.42452 0.09037 0.0
C20 C 0.69066 0.42932 0.07174 0.0
C21 C 0.68873 0.43561 0.0196 0.0
C22 C 0.70279 0.43693 0.9864 0.0
C23 C 0.77624 0.45755 0.24693 0.0
H24 H 0.79416 0.42307 0.90692 0.0
H25 H 0.76981 0.42492 0.96085 0.0
H26 H 0.79008 0.38965 0.08307 0.0
H27 H 0.81493 0.38856 0.02976 0.0
H28 H 0.74399 0.41022 0.00917 0.0
H29 H 0.78471 0.41664 0.12349 0.0
H30 H 0.73623 0.43366 0.15002 0.0
H31 H 0.75924 0.45854 0.18127 0.0
H32 H 0.77958 0.40675 0.21611 0.0
H33 H 0.79615 0.42025 0.28823 0.0
H34 H 0.72937 0.43439 0.97864 0.0
H35 H 0.70739 0.41948 0.13062 0.0
H36 H 0.77531 0.47184 0.25472 0.0
H37 H 0.70171 0.44198 0.94616 0.0
H38 H 0.67994 0.42803 0.09804 0.0
C39 C 0.90827 0.7723 1.00158 0.0
C40 C 0.91566 0.79124 0.00864 0.0
C41 C 0.90631 0.75829 0.04352 0.0
C42 C 0.91226 0.76292 0.0929 0.0
C43 C 0.91908 0.78214 0.09961 0.0
C44 C 0.92055 0.79611 0.05815 0.0
C45 C 0.91328 0.74782 0.13604 0.0
C46 C 0.91732 0.73029 0.1265 0.0
C47 C 0.92135 0.7172 0.16684 0.0
C48 C 0.92226 0.72238 0.21758 0.0
C49 C 0.91794 0.73978 0.2277 0.0
C50 C 0.91268 0.75185 0.18718 0.0
C51 C 0.92165 0.74757 0.27785 0.0
C52 C 0.90832 0.75345 0.30346 0.0
C53 C 0.9391 0.7539 0.29219 0.0
C54 C 0.94324 0.76729 0.32798 0.0
C55 C 0.92998 0.77429 0.35068 0.0
C56 C 0.92573 0.69891 0.154 0.0
C57 C 0.91651 0.68934 0.11441 0.0
C58 C 0.93991 0.69174 0.17745 0.0
C59 C 0.94524 0.67597 0.15988 0.0
C60 C 0.93661 0.6671 0.11813 0.0
C61 C 0.92195 0.67384 0.09639 0.0
C62 C 0.91245 0.76656 0.34004 0.0
H63 H 0.90442 0.76828 0.96353 0.0
H64 H 0.90066 0.74376 0.03686 0.0
H65 H 0.92431 0.78642 0.13626 0.0
H66 H 0.92659 0.8106 0.06433 0.0
H67 H 0.91844 0.72724 0.08722 0.0
H68 H 0.9094 0.7652 0.19554 0.0
H69 H 0.92637 0.71308 0.24894 0.0
H70 H 0.89479 0.74903 0.29227 0.0
H71 H 0.9496 0.74988 0.27222 0.0
H72 H 0.95685 0.77301 0.33569 0.0
H73 H 0.90531 0.69423 0.09605 0.0
H74 H 0.94735 0.69875 0.20795 0.0
H75 H 0.90199 0.77182 0.35676 0.0
H76 H 0.915 0.66768 0.06392 0.0
H77 H 0.95634 0.67098 0.17849 0.0
C78 C 0.71228 0.03304 0.89968 0.0
C79 C 0.7036 0.04812 0.90536 0.0
C80 C 0.72216 0.02614 0.94017 0.0
C81 C 0.7235 0.03414 0.98723 0.0
C82 C 0.71532 0.04965 0.9923 0.0
C83 C 0.7055 0.0566 0.95172 0.0
C84 C 0.73306 0.02603 0.03125 0.0
C85 C 0.74922 0.02099 0.02379 0.0
C86 C 0.75836 0.01333 0.06518 0.0
C87 C 0.75121 0.01049 0.11459 0.0
C88 C 0.73487 0.01517 0.12262 0.0
C89 C 0.72595 0.02303 0.08075 0.0
C90 C 0.72675 0.01146 0.17414 0.0
C91 C 0.72637 0.99391 0.20383 0.0
C92 C 0.71843 0.02508 0.19269 0.0
C93 C 0.70949 0.02105 0.23914 0.0
C94 C 0.70861 1.00327 0.2681 0.0
C95 C 0.77569 0.00907 0.05613 0.0
C96 C 0.77762 0.99674 0.01938 0.0
C97 C 0.79057 0.01893 0.07983 0.0
C98 C 0.80721 0.01726 0.06488 0.0
C99 C 0.80915 1.00544 0.02677 0.0
C100 C 0.79423 0.99479 0.00516 0.0
C101 C 0.71733 0.98983 0.25027 0.0
H102 H 0.71111 0.02629 0.86428 0.0
H103 H 0.72827 0.01413 0.93519 0.0
H104 H 0.71633 0.05626 0.0279 0.0
H105 H 0.69879 0.0681 0.95744 0.0
H106 H 0.75497 0.02352 0.98587 0.0
H107 H 0.71317 0.02629 0.08638 0.0
H108 H 0.75836 1.00466 0.14659 0.0
H109 H 0.73257 0.98309 0.19034 0.0
H110 H 0.71864 0.0388 0.17087 0.0
H111 H 0.70278 0.03165 0.25151 0.0
H112 H 0.76626 0.98908 1.00059 0.0
H113 H 0.78932 0.02863 0.10795 0.0
H114 H 0.71702 0.97607 0.27197 0.0
H115 H 0.79544 0.98568 0.97549 0.0
H116 H 0.81857 0.02554 0.08214 0.0
C117 C 0.55948 0.73939 0.46789 0.0
C118 C 0.57135 0.73549 0.50743 0.0
C119 C 0.56397 0.75493 0.43083 0.0
C120 C 0.5804 0.76688 0.43233 0.0
C121 C 0.59183 0.76386 0.4734 0.0
C122 C 0.58728 0.74844 0.51093 0.0
C123 C 0.58708 0.77879 0.38515 0.0
C124 C 0.58356 0.79719 0.37222 0.0
C125 C 0.58864 0.80716 0.32398 0.0
C126 C 0.59699 0.79823 0.28908 0.0
C127 C 0.60014 0.77971 0.30128 0.0
C128 C 0.59547 0.7703 0.34988 0.0
C129 C 0.60574 0.76898 0.26125 0.0
C130 C 0.5981 0.76998 0.21192 0.0
C131 C 0.61668 0.75569 0.27392 0.0
C132 C 0.61856 0.74249 0.23988 0.0
C133 C 0.60964 0.74245 0.19243 0.0
C134 C 0.58389 0.82599 0.30676 0.0
C135 C 0.56726 0.8296 0.31646 0.0
C136 C 0.59523 0.8396 0.27489 0.0
C137 C 0.58961 0.8555 0.24974 0.0
C138 C 0.57257 0.85855 0.25663 0.0
C139 C 0.56171 0.84575 0.29196 0.0
C140 C 0.60008 0.75688 0.17782 0.0
H141 H 0.5472 0.72971 0.46325 0.0
H142 H 0.55514 0.75675 0.39869 0.0
H143 H 0.60471 0.77273 0.4747 0.0
H144 H 0.59661 0.74619 0.54135 0.0
H145 H 0.57671 0.80352 0.3992 0.0
H146 H 0.5972 0.7557 0.35925 0.0
H147 H 0.60027 0.80532 0.25107 0.0
H148 H 0.58943 0.77986 0.20099 0.0
H149 H 0.62302 0.75482 0.31127 0.0
H150 H 0.62621 0.73166 0.2518 0.0
H151 H 0.55815 0.81946 0.34076 0.0
H152 H 0.60829 0.83752 0.26741 0.0
H153 H 0.59289 0.7571 0.14176 0.0
H154 H 0.54868 0.84784 0.29957 0.0
H155 H 0.59842 0.8648 0.22281 0.0
C156 C 0.22177 0.61278 0.63724 0.0
C157 C 0.20781 0.59743 0.64872 0.0
C158 C 0.23503 0.61103 0.604 0.0
C159 C 0.23431 0.59402 0.58135 0.0
C160 C 0.22071 0.57856 0.5941 0.0
C161 C 0.20764 0.58022 0.62743 0.0
C162 C 0.24659 0.59258 0.54075 0.0
C163 C 0.2644 0.59324 0.55136 0.0
C164 C 0.27549 0.58927 0.51388 0.0
C165 C 0.26844 0.58531 0.46494 0.0
C166 C 0.25054 0.58424 0.45468 0.0
C167 C 0.23982 0.58818 0.49246 0.0
C168 C 0.24236 0.57671 0.4074 0.0
C169 C 0.2478 0.58518 0.35828 0.0
C170 C 0.22836 0.56116 0.4119 0.0
C171 C 0.21966 0.55441 0.36835 0.0
C172 C 0.22469 0.56311 0.3191 0.0
C173 C 0.29377 0.58711 0.5278 0.0
C174 C 0.30374 0.59836 0.56313 0.0
C175 C 0.30098 0.57277 0.50839 0.0
C176 C 0.31752 0.56962 0.52424 0.0
C177 C 0.32719 0.58048 0.56055 0.0
C178 C 0.32021 0.59496 0.57968 0.0
C179 C 0.23891 0.57853 0.31437 0.0
H180 H 0.22226 0.62618 0.65324 0.0
H181 H 0.24541 0.62314 0.59436 0.0
H182 H 0.21992 0.56532 0.57697 0.0
H183 H 0.19697 0.56823 0.63468 0.0
H184 H 0.26926 0.59555 0.58986 0.0
H185 H 0.22594 0.58718 0.48483 0.0
H186 H 0.27662 0.58211 0.43557 0.0
H187 H 0.25857 0.59721 0.35399 0.0
H188 H 0.224 0.5543 0.44937 0.0
H189 H 0.20863 0.54269 0.37338 0.0
H190 H 0.29877 0.60971 0.57841 0.0
H191 H 0.29363 0.56342 0.48228 0.0
H192 H 0.24308 0.58545 0.27684 0.0
H193 H 0.32749 0.60364 0.60744 0.0
H194 H 0.32249 0.55817 0.50943 0.0
C195 C 0.09563 0.24449 0.60749 0.0
C196 C 0.10512 0.2298 0.60568 0.0
C197 C 0.09683 0.25916 0.56769 0.0
C198 C 0.10757 0.25948 0.52531 0.0
C199 C 0.11848 0.24596 0.52627 0.0
C200 C 0.11726 0.23123 0.56613 0.0
C201 C 0.10511 0.27176 0.47741 0.0
C202 C 0.10203 0.29023 0.47946 0.0
C203 C 0.096 0.30042 0.436 0.0
C204 C 0.09332 0.29196 0.38937 0.0
C205 C 0.0972 0.27373 0.38617 0.0
C206 C 0.10308 0.26385 0.43037 0.0
C207 C 0.09391 0.26375 0.33882 0.0
C208 C 0.07743 0.26133 0.3146 0.0
C209 C 0.10645 0.254 0.32261 0.0
C210 C 0.10228 0.24115 0.28556 0.0
C211 C 0.08543 0.23771 0.2636 0.0
C212 C 0.09122 0.3191 0.44225 0.0
C213 C 0.07445 0.32249 0.42857 0.0
C214 C 0.10252 0.33248 0.46909 0.0
C215 C 0.09686 0.34829 0.48472 0.0
C216 C 0.07972 0.35113 0.47389 0.0
C217 C 0.06874 0.33832 0.44435 0.0
C218 C 0.07321 0.2484 0.27743 0.0
H219 H 0.08605 0.24375 0.6371 0.0
H220 H 0.08814 0.26924 0.56809 0.0
H221 H 0.12715 0.24609 0.49462 0.0
H222 H 0.12497 0.22029 0.56425 0.0
H223 H 0.10344 0.29633 0.5159 0.0
H224 H 0.10484 0.24931 0.42886 0.0
H225 H 0.08833 0.29952 0.35589 0.0
H226 H 0.06746 0.26855 0.32657 0.0
H227 H 0.11928 0.25561 0.34057 0.0
H228 H 0.11201 0.23313 0.2764 0.0
H229 H 0.06542 0.31234 0.40825 0.0
H230 H 0.11554 0.33025 0.48005 0.0
H231 H 0.0602 0.24635 0.26071 0.0
H232 H 0.05556 0.34025 0.43461 0.0
H233 H 0.10566 0.35772 0.50763 0.0
C234 C 0.29665 0.96244 0.67629 0.0
C235 C 0.31329 0.97306 0.68607 0.0
C236 C 0.28656 0.96832 0.63476 0.0
C237 C 0.29296 0.98489 0.60216 0.0
C238 C 0.30948 0.99562 0.61247 0.0
C239 C 0.31953 0.98974 0.65375 0.0
C240 C 0.28258 0.991 0.55724 0.0
C241 C 0.26464 0.99039 0.56164 0.0
C242 C 0.25472 0.9965 0.51958 0.0
C243 C 0.26313 1.00352 0.47264 0.0
C244 C 0.2812 1.00454 0.46797 0.0
C245 C 0.29073 0.998 0.51022 0.0
C246 C 0.29045 0.01269 0.4196 0.0
C247 C 0.28378 1.00733 0.37172 0.0
C248 C 0.30657 0.02529 0.42154 0.0
C249 C 0.31617 0.0318 0.37696 0.0
C250 C 0.30987 0.02592 0.32923 0.0
C251 C 0.23583 0.99636 0.52631 0.0
C252 C 0.22561 0.98157 0.55782 0.0
C253 C 0.22819 0.0116 0.50462 0.0
C254 C 0.21098 0.01244 0.51613 0.0
C255 C 0.20109 0.99818 0.55011 0.0
C256 C 0.20855 0.98256 0.56999 0.0
C257 C 0.29343 0.01383 0.32695 0.0
H258 H 0.29145 0.94956 0.7006 0.0
H259 H 0.27391 0.9597 0.62758 0.0
H260 H 0.31468 0.00859 0.58855 0.0
H261 H 0.33242 0.9981 0.6595 0.0
H262 H 0.25852 0.98579 0.59862 0.0
H263 H 0.30456 0.99818 0.50629 0.0
H264 H 0.2557 0.00843 0.44003 0.0
H265 H 0.2714 0.99761 0.3691 0.0
H266 H 0.31193 0.02989 0.45781 0.0
H267 H 0.32884 0.04091 0.38029 0.0
H268 H 0.23095 0.9694 0.57432 0.0
H269 H 0.23567 0.02328 0.48036 0.0
H270 H 0.28814 0.0092 0.29067 0.0
H271 H 0.2015 0.97137 0.59663 0.0
H272 H 0.20557 0.02448 0.49912 0.0
C273 C 0.42683 0.2677 0.08134 0.0
C274 C 0.44309 0.28032 0.08063 0.0
C275 C 0.4226 0.25326 0.12174 0.0
C276 C 0.43469 0.25084 0.16142 0.0
C277 C 0.45135 0.26237 0.15889 0.0
C278 C 0.45551 0.27699 0.1191 0.0
C279 C 0.42884 0.23994 0.21077 0.0
C280 C 0.43281 0.22187 0.22587 0.0
C281 C 0.42881 0.21308 0.2759 0.0
C282 C 0.42169 0.22301 0.31098 0.0
C283 C 0.41817 0.2413 0.29675 0.0
C284 C 0.42113 0.24925 0.24577 0.0
C285 C 0.41393 0.25305 0.33665 0.0
C286 C 0.40412 0.24465 0.38033 0.0
C287 C 0.42143 0.27256 0.33405 0.0
C288 C 0.41999 0.2831 0.3749 0.0
C289 C 0.41124 0.27439 0.41982 0.0
C290 C 0.43323 0.19429 0.29446 0.0
C291 C 0.42118 0.18083 0.32453 0.0
C292 C 0.45011 0.19067 0.28847 0.0
C293 C 0.45517 0.17457 0.31507 0.0
C294 C 0.44343 0.16186 0.3481 0.0
C295 C 0.42622 0.16483 0.35104 0.0
C296 C 0.40295 0.25518 0.42177 0.0
H297 H 0.41705 0.26947 0.05193 0.0
H298 H 0.40956 0.24468 0.12349 0.0
H299 H 0.46071 0.26102 0.18986 0.0
H300 H 0.46805 0.28645 0.12074 0.0
H301 H 0.43908 0.21482 0.19913 0.0
H302 H 0.41837 0.2633 0.23374 0.0
H303 H 0.42001 0.21689 0.35057 0.0
H304 H 0.39787 0.22977 0.38333 0.0
H305 H 0.42942 0.27954 0.30189 0.0
H306 H 0.42679 0.29779 0.37263 0.0
H307 H 0.40801 0.18313 0.32928 0.0
H308 H 0.4597 0.20087 0.26585 0.0
H309 H 0.39605 0.24817 0.45593 0.0
H310 H 0.41676 0.15508 0.37525 0.0
H311 H 0.46853 0.17267 0.3121 0.0
Nd312 Nd -0.00179 0.00975 0.74209 0.0
Nd313 Nd 0.01589 1.00743 0.84436 0.0
C314 C 0.97783 1.00201 0.66126 0.0
C315 C 0.97363 0.98465 0.63436 0.0
C316 C 0.95959 0.98204 0.59943 0.0
C317 C 0.9553 0.96504 0.57593 0.0
C318 C 0.9648 0.95033 0.58794 0.0
C319 C 0.97895 0.95312 0.62249 0.0
C320 C 0.98345 0.97021 0.64496 0.0
C321 C 0.03369 0.01319 0.7372 0.0
C322 C 0.00169 0.96771 0.80338 0.0
C323 C 0.0367 0.01572 0.92377 0.0
C324 C 0.04029 0.03291 0.95168 0.0
C325 C 0.05635 0.03807 0.97688 0.0
C326 C 0.05997 0.05487 1.0014 0.0
C327 C 0.04755 0.06677 1.00123 0.0
C328 C 0.03147 0.0615 0.97582 0.0
C329 C 0.02791 0.0448 0.9512 0.0
C330 C 0.98043 1.00391 0.84932 0.0
C331 C 0.012 0.04946 0.78353 0.0
O332 O 0.97192 1.00038 0.70808 0.0
O333 O 0.99401 0.01109 0.65771 0.0
O334 O 0.02478 0.02367 0.70807 0.0
O335 O 0.02393 1.00111 0.76723 0.0
O336 O 0.99286 0.97781 0.77111 0.0
O337 O 0.01409 0.97607 0.83322 0.0
O338 O 0.04224 0.01805 0.87643 0.0
O339 O 0.02093 1.00552 0.92839 0.0
O340 O 0.98938 0.99372 0.87925 0.0
O341 O 0.99017 0.01598 0.81924 0.0
O342 O 0.02065 0.0395 0.81673 0.0
O343 O -4e-05 0.04105 0.7528 0.0
H344 H 0.95189 0.99304 0.59066 0.0
H345 H 0.94435 0.9632 0.5493 0.0
H346 H 0.98659 0.94209 0.63189 0.0
H347 H 0.99451 0.97207 0.67121 0.0
H348 H 0.06613 0.02918 0.97735 0.0
H349 H 0.07242 0.05844 0.02091 0.0
H350 H 0.02174 0.07048 0.97411 0.0
H351 H 0.01553 0.04128 0.93121 0.0
Nd352 Nd 0.51567 0.99361 0.77271 0.0
Nd353 Nd 0.50148 0.02586 0.82902 0.0
C354 C 0.53337 0.96739 0.75325 0.0
C355 C 0.54794 0.96828 0.71834 0.0
C356 C 0.55635 0.95275 0.7175 0.0
C357 C 0.57082 0.95419 0.68586 0.0
C358 C 0.57711 0.97126 0.65504 0.0
C359 C 0.56844 0.98669 0.65574 0.0
C360 C 0.55399 0.9852 0.68703 0.0
C361 C 0.50095 0.0177 0.70225 0.0
C362 C 0.54005 0.03616 0.7728 0.0
C363 C 0.48892 0.05414 0.86079 0.0
C364 C 0.4748 0.05448 0.89631 0.0
C365 C 0.46772 0.07095 0.8973 0.0
C366 C 0.45343 0.07074 0.92863 0.0
C367 C 0.446 0.05401 0.95928 0.0
C368 C 0.45337 0.03763 0.95854 0.0
C369 C 0.46758 0.03785 0.9272 0.0
C370 C 0.51202 0.99694 0.89131 0.0
C371 C 0.47592 0.98513 0.81712 0.0
O372 O 0.53705 0.97774 0.79187 0.0
O373 O 0.51833 0.96898 0.73116 0.0
O374 O 0.50781 1.00378 0.68919 0.0
O375 O 0.50217 0.01777 0.75017 0.0
O376 O 0.5384 0.01862 0.75986 0.0
O377 O 0.52815 0.04219 0.79859 0.0
O378 O 0.48379 0.04664 0.81807 0.0
O379 O 0.50278 0.04837 0.88148 0.0
O380 O 0.49931 1.00505 0.90268 0.0
O381 O 0.51927 1.00499 0.85028 0.0
O382 O 0.47682 1.00356 0.82019 0.0
O383 O 0.48936 0.97755 0.80573 0.0
H384 H 0.55188 0.93963 0.74169 0.0
H385 H 0.5773 0.94211 0.68631 0.0
H386 H 0.57278 0.99992 0.63184 0.0
H387 H 0.5476 0.99733 0.68712 0.0
H388 H 0.47304 0.08384 0.87321 0.0
H389 H 0.44795 0.08353 0.9279 0.0
H390 H 0.44817 0.0246 0.98223 0.0
H391 H 0.47281 0.02494 0.92658 0.0
Nd392 Nd 0.50044 0.51301 0.8342 0.0
Nd393 Nd 0.51407 0.49866 0.74324 0.0
C394 C 0.48968 0.53381 0.89953 0.0
C395 C 0.49936 0.55127 0.91882 0.0
C396 C 0.49184 0.56099 0.95324 0.0
C397 C 0.50162 0.57743 0.9717 0.0
C398 C 0.51888 0.58439 0.95518 0.0
C399 C 0.52625 0.5746 0.92056 0.0
C400 C 0.51664 0.55809 0.903 0.0
C401 C 0.53048 0.49878 0.85327 0.0
C402 C 0.52574 0.54321 0.74952 0.0
C403 C 0.52703 0.47716 0.68451 0.0
C404 C 0.52213 0.45662 0.67911 0.0
C405 C 0.51787 0.44343 0.72257 0.0
C406 C 0.50988 0.42464 0.71688 0.0
C407 C 0.50607 0.41869 0.66771 0.0
C408 C 0.51136 0.43158 0.62431 0.0
C409 C 0.51928 0.45042 0.63001 0.0
C410 C 0.48457 0.5135 0.72241 0.0
C411 C 0.48725 0.46913 0.82475 0.0
O412 O 0.4858 0.53531 0.85047 0.0
O413 O 0.49607 0.51854 0.91401 0.0
O414 O 0.51757 0.49576 0.88488 0.0
O415 O 0.5276 0.5095 0.81398 0.0
O416 O 0.51401 0.54049 0.78631 0.0
O417 O 0.53004 0.52876 0.72899 0.0
O418 O 0.53417 0.48189 0.72836 0.0
O419 O 0.51523 0.48717 0.66828 0.0
O420 O 0.49744 0.51561 0.69068 0.0
O421 O 0.48694 0.50284 0.76265 0.0
O422 O 0.49998 0.4714 0.79118 0.0
O423 O 0.48256 0.48388 0.84256 0.0
H424 H 0.47855 0.55581 0.96605 0.0
H425 H 0.49571 0.58477 0.99853 0.0
H426 H 0.53962 0.57947 0.908 0.0
H427 H 0.52278 0.55049 0.87741 0.0
H428 H 0.51995 0.4478 0.76099 0.0
H429 H 0.50612 0.41493 0.75094 0.0
H430 H 0.50848 0.4274 0.58592 0.0
H431 H 0.52236 0.46039 0.59605 0.0
Nd432 Nd -0.0038 0.52211 0.74663 0.0
Nd433 Nd 0.01874 0.49801 0.83403 0.0
C434 C 0.97265 0.54072 0.70363 0.0
C435 C 0.95723 0.53462 0.67159 0.0
C436 C 0.94648 0.54746 0.65336 0.0
C437 C 0.93157 0.54136 0.62387 0.0
C438 C 0.9272 0.52229 0.61234 0.0
C439 C 0.93812 0.50953 0.63072 0.0
C440 C 0.95299 0.51564 0.66005 0.0
C441 C 0.01141 0.49515 0.70575 0.0
C442 C 0.97817 0.47965 0.80518 0.0
C443 C 0.04218 0.47901 0.87552 0.0
C444 C 0.05759 0.48484 0.90787 0.0
C445 C 0.07041 0.47356 0.91569 0.0
C446 C 0.08546 0.47968 0.94453 0.0
C447 C 0.08792 0.49721 0.96596 0.0
C448 C 0.07493 0.5084 0.95799 0.0
C449 C 0.05996 0.50231 0.92907 0.0
C450 C 0.00447 0.52564 0.87456 0.0
C451 C 0.03645 0.54076 0.77732 0.0
O452 O 0.97169 0.53294 0.75134 0.0
O453 O 0.98781 0.54116 0.68258 0.0
O454 O 0.00295 0.50658 0.67791 0.0
O455 O 0.01121 0.49883 0.7515 0.0
O456 O 0.97644 0.49547 0.77605 0.0
O457 O 0.99289 0.47672 0.82871 0.0
O458 O 0.04321 0.48715 0.82812 0.0
O459 O 0.02698 0.47836 0.8967 0.0
O460 O 0.01386 0.51502 0.90177 0.0
O461 O 0.0033 0.52092 0.8296 0.0
O462 O 0.03846 0.52462 0.80436 0.0
O463 O 0.02163 0.54383 0.75477 0.0
H464 H 0.94953 0.56213 0.66219 0.0
H465 H 0.92334 0.55149 0.61075 0.0
H466 H 0.93531 0.49484 0.62194 0.0
H467 H 0.96119 0.50554 0.67386 0.0
H468 H 0.06887 0.46014 0.89903 0.0
H469 H 0.0953 0.47083 0.9493 0.0
H470 H 0.07623 0.52182 0.97449 0.0
H471 H 0.05024 0.51129 0.923 0.0
C472 C 0.18 0.01808 0.57495 0.0
C473 C 0.18353 1.00007 0.56727 0.0
C474 C 0.16394 0.01976 0.5943 0.0
C475 C 0.12886 0.99485 0.6765 0.0
H476 H 0.10046 0.02799 0.60366 0.0
C477 C 0.05832 0.99552 0.73721 0.0
C478 C 0.05192 0.01248 0.72654 0.0
C479 C 0.07492 0.99436 0.72065 0.0
C480 C 0.10835 0.01897 0.62521 0.0
H481 H 0.17249 0.96977 0.57251 0.0
H482 H 0.14474 0.97278 0.60836 0.0
H483 H 0.12826 0.02539 0.56791 0.0
H484 H 0.05804 0.04187 0.69367 0.0
H485 H 0.08734 0.04028 0.66737 0.0
H486 H 0.10937 0.98883 0.73472 0.0
C487 C 0.15452 0.98551 0.59921 0.0
C488 C 0.1242 0.01739 0.60436 0.0
C489 C 0.17044 0.98383 0.57889 0.0
C490 C 0.06266 0.02856 0.70173 0.0
C491 C 0.07938 0.02755 0.68622 0.0
C492 C 0.11315 0.9967 0.69795 0.0
C493 C 0.15119 1.00347 0.60728 0.0
C494 C 0.13451 1.00523 0.62966 0.0
C495 C 0.08556 0.01028 0.69405 0.0
C496 C 0.10262 0.00872 0.67245 0.0
H497 H 0.18981 0.03088 0.56751 0.0
H498 H 0.16165 0.03376 0.60053 0.0
H499 H 0.13674 0.98553 0.6969 0.0
H500 H 0.05019 0.9829 0.75613 0.0
H501 H 0.07909 0.98076 0.72697 0.0
C502 C 0.46002 0.13488 0.36484 0.0
C503 C 0.44937 0.1465 0.38272 0.0
C504 C 0.46571 0.12069 0.39836 0.0
C505 C 0.47356 0.10753 0.53583 0.0
H506 H 0.47057 0.05648 0.49642 0.0
C507 C 0.48578 0.04545 0.68252 0.0
C508 C 0.49466 0.03207 0.66559 0.0
C509 C 0.48023 0.05923 0.64744 0.0
C510 C 0.47173 0.07072 0.50787 0.0
H511 H 0.43667 0.15262 0.44999 0.0
H512 H 0.44651 0.12795 0.50811 0.0
H513 H 0.46149 0.08099 0.43561 0.0
H514 H 0.50471 0.02248 0.59867 0.0
H515 H 0.49543 0.04671 0.53755 0.0
H516 H 0.48399 0.09747 0.60772 0.0
C517 C 0.45045 0.12973 0.46828 0.0
C518 C 0.4665 0.08476 0.47296 0.0
C519 C 0.44465 0.14373 0.4348 0.0
C520 C 0.4978 0.0326 0.61284 0.0
C521 C 0.49239 0.04644 0.57776 0.0
C522 C 0.47892 0.09356 0.57057 0.0
C523 C 0.46106 0.11806 0.45054 0.0
C524 C 0.46723 0.10328 0.4867 0.0
C525 C 0.48356 0.05999 0.59457 0.0
C526 C 0.47798 0.07492 0.55722 0.0
H527 H 0.46384 0.13666 0.32491 0.0
H528 H 0.47397 0.11199 0.38365 0.0
H529 H 0.47453 0.12176 0.5473 0.0
H530 H 0.48299 0.04518 0.72275 0.0
H531 H 0.47317 0.06917 0.66179 0.0
C532 C 0.3567 0.5735 0.54485 0.0
C533 C 0.34419 0.57602 0.57961 0.0
C534 C 0.37206 0.5676 0.56261 0.0
C535 C 0.39978 0.56132 0.67956 0.0
H536 H 0.41668 0.5261 0.59978 0.0
C537 C 0.45541 0.5198 0.74637 0.0
C538 C 0.46835 0.52075 0.70946 0.0
C539 C 0.44012 0.52684 0.73308 0.0
C540 C 0.41215 0.53599 0.62235 0.0
H541 H 0.33801 0.57472 0.66019 0.0
H542 H 0.36465 0.56392 0.69145 0.0
H543 H 0.39048 0.53815 0.5718 0.0
H544 H 0.47558 0.52988 0.63007 0.0
H545 H 0.44886 0.54175 0.60688 0.0
H546 H 0.42143 0.55865 0.73071 0.0
C547 C 0.36282 0.56688 0.65043 0.0
C548 C 0.39719 0.54303 0.60616 0.0
C549 C 0.34754 0.57304 0.63259 0.0
C550 C 0.46578 0.52887 0.65931 0.0
C551 C 0.45047 0.53562 0.6459 0.0
C552 C 0.41467 0.55406 0.69612 0.0
C553 C 0.37517 0.56378 0.61561 0.0
C554 C 0.39091 0.556 0.63409 0.0
C555 C 0.43746 0.53463 0.68256 0.0
C556 C 0.42111 0.54152 0.66725 0.0
H557 H 0.35453 0.57594 0.50381 0.0
H558 H 0.38145 0.5659 0.53462 0.0
H559 H 0.39545 0.5714 0.70185 0.0
H560 H 0.45712 0.51369 0.78532 0.0
H561 H 0.43024 0.52586 0.76205 0.0
C562 C 0.05626 0.36321 0.51738 0.0
C563 C 0.0731 0.36661 0.49639 0.0
C564 C 0.05045 0.37726 0.54179 0.0
C565 C 0.05915 0.42928 0.55231 0.0
H566 H 0.03089 0.41482 0.67467 0.0
C567 C 0.02106 0.4808 0.63184 0.0
C568 C 0.01998 0.48088 0.68525 0.0
C569 C 0.02852 0.46712 0.61109 0.0
C570 C 0.03893 0.41914 0.6409 0.0
H571 H 0.09688 0.38771 0.48381 0.0
H572 H 0.08688 0.41206 0.52703 0.0
H573 H 0.04201 0.39051 0.63402 0.0
H574 H 0.02553 0.4665 0.75898 0.0
H575 H 0.03897 0.44263 0.72277 0.0
H576 H 0.0563 0.45791 0.55948 0.0
C577 C 0.07808 0.39857 0.52429 0.0
C578 C 0.04512 0.40515 0.61714 0.0
C579 C 0.08388 0.38453 0.49985 0.0
C580 C 0.02649 0.46695 0.71769 0.0
C581 C 0.03399 0.45317 0.69688 0.0
C582 C 0.05299 0.44324 0.57605 0.0
C583 C 0.06132 0.39509 0.54588 0.0
C584 C 0.05517 0.41002 0.57222 0.0
C585 C 0.03508 0.45311 0.64323 0.0
C586 C 0.04263 0.43834 0.62029 0.0
H587 H 0.04767 0.34951 0.5161 0.0
H588 H 0.03738 0.37415 0.55728 0.0
H589 H 0.06673 0.43357 0.51762 0.0
H590 H 0.01601 0.49127 0.60585 0.0
H591 H 0.0288 0.46731 0.56968 0.0
C592 C 0.83738 0.02258 0.98853 0.0
C593 C 0.82659 1.00535 0.00657 0.0
C594 C 0.85345 0.02261 0.96647 0.0
C595 C 0.87887 0.99071 0.91094 0.0
H596 H 0.91788 0.03154 0.93325 0.0
C597 C 0.95152 0.9878 0.88413 0.0
C598 C 0.96182 1.00373 0.8571 0.0
C599 C 0.93422 0.98801 0.89568 0.0
C600 C 0.90702 0.02019 0.92619 0.0
H601 H 0.82408 0.97467 0.01665 0.0
H602 H 0.85257 0.97465 0.98044 0.0
H603 H 0.88956 0.03171 0.9696 0.0
H604 H 0.96217 0.03214 0.81952 0.0
H605 H 0.93189 0.03273 0.8412 0.0
H606 H 0.89682 0.97878 0.8697 0.0
C607 C 0.84844 0.98816 0.98161 0.0
C608 C 0.89076 0.02028 0.94688 0.0
C609 C 0.83221 0.98813 1.00281 0.0
C610 C 0.95444 0.0197 0.84045 0.0
C611 C 0.93721 0.02006 0.85293 0.0
C612 C 0.89524 0.99047 0.89104 0.0
C613 C 0.85923 1.00541 0.96279 0.0
C614 C 0.87647 1.00549 0.93975 0.0
C615 C 0.92705 1.00429 0.88116 0.0
C616 C 0.90944 1.00518 0.89869 0.0
H617 H 0.83315 0.03602 0.99023 0.0
H618 H 0.86117 0.03614 0.95151 0.0
H619 H 0.86812 0.9793 0.90363 0.0
H620 H 0.95693 0.97528 0.89711 0.0
H621 H 0.92666 0.97573 0.91776 0.0
C622 C 0.5771 0.89104 0.20594 0.0
C623 C 0.56583 0.87403 0.22395 0.0
C624 C 0.57128 0.90443 0.17025 0.0
C625 C 0.53489 0.90883 0.07573 0.0
H626 H 0.5554 0.96262 0.06905 0.0
C627 C 0.50669 0.97014 0.9608 0.0
C628 C 0.51819 0.98186 0.92537 0.0
C629 C 0.5126 0.95653 0.99549 0.0
C630 C 0.54967 0.9476 0.0704 0.0
H631 H 0.53916 0.8584 0.21938 0.0
H632 H 0.52875 0.88224 0.16081 0.0
H633 H 0.56484 0.9405 0.13634 0.0
H634 H 0.54482 0.98862 0.89803 0.0
H635 H 0.55535 0.96515 0.9603 0.0
H636 H 0.51911 0.91636 0.01107 0.0
C637 C 0.54237 0.88491 0.17236 0.0
C638 C 0.55511 0.93485 0.10879 0.0
C639 C 0.54829 0.87133 0.20715 0.0
C640 C 0.53569 0.97966 0.92485 0.0
C641 C 0.54172 0.96636 0.96049 0.0
C642 C 0.52918 0.92167 0.03817 0.0
C643 C 0.55386 0.90146 0.15232 0.0
C644 C 0.54784 0.91523 0.112 0.0
C645 C 0.53021 0.95475 0.99617 0.0
C646 C 0.53657 0.94112 0.03508 0.0
H647 H 0.5906 0.89396 0.21865 0.0
H648 H 0.58065 0.91684 0.15574 0.0
H649 H 0.52924 0.89385 0.07576 0.0
H650 H 0.49312 0.97155 0.96182 0.0
H651 H 0.50352 0.94775 0.02276 0.0
C652 C 0.66418 0.43445 0.95517 0.0
C653 C 0.67227 0.44133 0.99998 0.0
C654 C 0.64891 0.44027 0.93594 0.0
C655 C 0.62495 0.4793 0.93321 0.0
H656 H 0.5841 0.44194 0.90214 0.0
C657 C 0.5621 0.49954 0.83672 0.0
C658 C 0.54681 0.49155 0.86413 0.0
C659 C 0.57771 0.49313 0.8494 0.0
C660 C 0.59545 0.45251 0.91044 0.0
H661 H 0.6709 0.45978 0.05952 0.0
H662 H 0.64433 0.4702 0.02542 0.0
H663 H 0.611 0.43134 0.93278 0.0
H664 H 0.53558 0.47024 0.92485 0.0
H665 H 0.56271 0.45877 0.94617 0.0
H666 H 0.6094 0.50047 0.91094 0.0
C667 C 0.64976 0.46023 0.00542 0.0
C668 C 0.61082 0.44646 0.92773 0.0
C669 C 0.66484 0.45416 0.02514 0.0
C670 C 0.54723 0.4767 0.9033 0.0
C671 C 0.56271 0.47007 0.9153 0.0
C672 C 0.60968 0.48537 0.91507 0.0
C673 C 0.64165 0.45335 0.96065 0.0
C674 C 0.62564 0.45979 0.93995 0.0
C675 C 0.57814 0.47837 0.88893 0.0
C676 C 0.59472 0.47201 0.90418 0.0
H677 H 0.66963 0.42449 0.93517 0.0
H678 H 0.64294 0.43481 0.90128 0.0
H679 H 0.63624 0.48986 0.94201 0.0
H680 H 0.56209 0.51099 0.80629 0.0
H681 H 0.58944 0.49969 0.82835 0.0
C682 C 0.9318 0.63724 0.07227 0.0
C683 C 0.9433 0.65166 0.09524 0.0
C684 C 0.93815 0.62388 0.04657 0.0
C685 C 0.9792 0.6155 0.98973 0.0
H686 H 0.95255 0.56424 0.98559 0.0
C687 C 0.00693 0.55153 0.93174 0.0
C688 C -0.00245 0.54126 0.89381 0.0
C689 C 0.00021 0.56572 0.95268 0.0
C690 C 0.96003 0.57858 0.98608 0.0
H691 H 0.97071 0.66277 0.10995 0.0
H692 H 0.98165 0.63881 0.0686 0.0
H693 H 0.94125 0.58682 0.03254 0.0
H694 H 0.97368 0.53734 0.84871 0.0
H695 H 0.9616 0.56197 0.88644 0.0
H696 H -0.00163 0.6067 0.94532 0.0
C697 C 0.96769 0.63824 0.06855 0.0
C698 C 0.95355 0.5916 0.01282 0.0
C699 C 0.96135 0.65183 0.0934 0.0
C700 C 0.98129 0.54537 0.87711 0.0
C701 C 0.97434 0.55927 0.89901 0.0
C702 C 0.98582 0.60234 0.96396 0.0
C703 C 0.95621 0.62424 0.04392 0.0
C704 C 0.96306 0.61028 0.01519 0.0
C705 C 0.98376 0.56955 0.93703 0.0
C706 C 0.97631 0.58377 0.96194 0.0
H707 H 0.9178 0.6363 0.07361 0.0
H708 H 0.92882 0.61352 0.02783 0.0
H709 H 0.98676 0.62982 0.98931 0.0
H710 H 0.01949 0.54856 0.94532 0.0
H711 H 0.00766 0.57335 0.98218 0.0
C712 C 0.0948 0.21153 0.68996 0.0
C713 C 0.09976 0.21163 0.63862 0.0
C714 C 0.08574 0.19482 0.71658 0.0
C715 C 0.05176 0.15868 0.69943 0.0
H716 H 0.06891 0.1199 0.79003 0.0
C717 C 0.01548 0.08097 0.73072 0.0
C718 C 0.01762 0.07034 0.77779 0.0
C719 C 0.02411 0.09992 0.722 0.0
C720 C 0.06379 0.13077 0.76572 0.0
H721 H 0.10001 0.19396 0.57623 0.0
H722 H 0.0844 0.16489 0.6231 0.0
H723 H 0.08879 0.14961 0.7615 0.0
H724 H 0.02906 0.07159 0.85424 0.0
H725 H 0.04367 0.10476 0.83954 0.0
H726 H 0.02689 0.13992 0.70243 0.0
C727 C 0.08758 0.17776 0.64242 0.0
C728 C 0.07522 0.14767 0.74933 0.0
C729 C 0.09665 0.19438 0.6159 0.0
C730 C 0.02736 0.07939 0.81731 0.0
C731 C 0.03583 0.09836 0.80879 0.0
C732 C 0.04032 0.14186 0.71595 0.0
C733 C 0.0816 0.17807 0.69215 0.0
C734 C 0.06931 0.1615 0.71535 0.0
C735 C 0.03487 0.10861 0.7604 0.0
C736 C 0.04629 0.12751 0.74834 0.0
H737 H 0.09713 0.22458 0.70854 0.0
H738 H 0.08116 0.19521 0.75507 0.0
H739 H 0.04706 0.16929 0.67302 0.0
H740 H 0.00813 0.07432 0.6995 0.0
H741 H 0.02318 0.10735 0.68411 0.0
C742 C 0.32625 0.9472 0.73619 0.0
C743 C 0.3247 0.96646 0.72779 0.0
C744 C 0.33944 0.94171 0.76843 0.0
C745 C 0.37675 0.96149 0.8541 0.0
H746 H 0.40096 0.9293 0.7844 0.0
C747 C 0.45043 0.97216 0.87288 0.0
C748 C 0.45889 0.97273 0.82613 0.0
C749 C 0.43291 0.96338 0.87839 0.0
C750 C 0.39446 0.93842 0.80431 0.0
H751 H 0.3344 0.99466 0.75117 0.0
H752 H 0.35778 0.98551 0.8045 0.0
H753 H 0.37066 0.92992 0.76359 0.0
H754 H 0.45638 0.96399 0.74937 0.0
H755 H 0.4256 0.94985 0.75706 0.0
H756 H 0.40098 0.97182 0.89002 0.0
C757 C 0.34884 0.97439 0.78727 0.0
C758 C 0.37685 0.93848 0.7931 0.0
C759 C 0.33556 0.97979 0.75575 0.0
C760 C 0.45003 0.96352 0.78588 0.0
C761 C 0.43236 0.95527 0.7907 0.0
C762 C 0.39447 0.96187 0.86412 0.0
C763 C 0.35145 0.95542 0.7924 0.0
C764 C 0.36806 0.95092 0.81556 0.0
C765 C 0.42334 0.95573 0.83642 0.0
C766 C 0.40384 0.95118 0.83702 0.0
H767 H 0.31802 0.93653 0.71543 0.0
H768 H 0.34074 0.92689 0.77241 0.0
H769 H 0.37024 0.97065 0.87385 0.0
H770 H 0.45722 0.97913 0.90452 0.0
H771 H 0.4267 0.9635 0.91476 0.0
C772 C 0.41941 0.27668 0.51225 0.0
C773 C 0.41304 0.28484 0.46612 0.0
C774 C 0.42573 0.28804 0.55147 0.0
C775 C 0.45349 0.31841 0.59279 0.0
H776 H 0.43736 0.36372 0.62409 0.0
C777 C 0.49951 0.38848 0.62497 0.0
C778 C 0.49521 0.39976 0.6615 0.0
C779 C 0.48822 0.37164 0.61527 0.0
C780 C 0.44194 0.35096 0.6166 0.0
H781 H 0.40646 0.31068 0.427 0.0
H782 H 0.41752 0.33052 0.49517 0.0
H783 H 0.41731 0.33881 0.58412 0.0
H784 H 0.47593 0.40211 0.71733 0.0
H785 H 0.45618 0.3726 0.70037 0.0
H786 H 0.47831 0.33091 0.62322 0.0
C787 C 0.41769 0.31541 0.50128 0.0
C788 C 0.43049 0.33677 0.59342 0.0
C789 C 0.41146 0.30409 0.46203 0.0
C790 C 0.47967 0.39356 0.68938 0.0
C791 C 0.4683 0.37678 0.67938 0.0
C792 C 0.46494 0.33263 0.61569 0.0
C793 C 0.42569 0.3077 0.54529 0.0
C794 C 0.43632 0.32065 0.5797 0.0
C795 C 0.47233 0.36582 0.6416 0.0
C796 C 0.45945 0.34933 0.62619 0.0
H797 H 0.42084 0.26189 0.51638 0.0
H798 H 0.43161 0.28167 0.58528 0.0
H799 H 0.45846 0.30627 0.5823 0.0
H800 H 0.51143 0.39291 0.60311 0.0
H801 H 0.49158 0.3636 0.58549 0.0
C802 C 0.18474 0.58414 0.71395 0.0
C803 C 0.19265 0.5994 0.67933 0.0
C804 C 0.16848 0.58406 0.73471 0.0
C805 C 0.13493 0.58696 0.783 0.0
H806 H 0.10216 0.60425 0.68335 0.0
C807 C 0.06192 0.56113 0.81515 0.0
C808 C 0.05209 0.55581 0.77155 0.0
C809 C 0.07847 0.57268 0.80999 0.0
C810 C 0.11108 0.59922 0.71163 0.0
H811 H 0.19038 0.62735 0.64277 0.0
H812 H 0.1622 0.62759 0.6807 0.0
H813 H 0.13321 0.61238 0.66603 0.0
H814 H 0.05125 0.55877 0.68855 0.0
H815 H 0.08052 0.5779 0.67897 0.0
H816 H 0.11293 0.57221 0.82623 0.0
C817 C 0.16834 0.61537 0.69055 0.0
C818 C 0.12901 0.60422 0.70211 0.0
C819 C 0.18462 0.61536 0.66936 0.0
C820 C 0.0586 0.56292 0.72266 0.0
C821 C 0.07539 0.57399 0.71737 0.0
C822 C 0.11703 0.58162 0.79197 0.0
C823 C 0.15976 0.59939 0.72196 0.0
C824 C 0.14114 0.59753 0.7368 0.0
C825 C 0.08582 0.57851 0.76104 0.0
C826 C 0.10479 0.58711 0.75558 0.0
H827 H 0.19074 0.57176 0.72304 0.0
H828 H 0.16234 0.57138 0.75823 0.0
H829 H 0.14386 0.58199 0.81136 0.0
H830 H 0.05702 0.55584 0.8533 0.0
H831 H 0.08573 0.57633 0.84458 0.0
C832 C 0.91581 0.82365 0.96427 0.0
C833 C 0.92048 0.80572 0.9647 0.0
C834 C 0.92401 0.83896 0.93094 0.0
C835 C 0.96665 0.85614 0.87632 0.0
H836 H 0.94517 0.89728 0.81254 0.0
C837 C 0.98452 0.93825 0.77147 0.0
C838 C -0.00383 0.94676 0.80812 0.0
C839 C 0.9768 0.91906 0.77914 0.0
C840 C 0.95141 0.88583 0.82936 0.0
H841 H 0.93643 0.78928 0.92881 0.0
H842 H 0.95093 0.8162 0.8704 0.0
H843 H 0.92684 0.86692 0.84242 0.0
H844 H 0.00969 0.94147 0.88018 0.0
H845 H 0.99585 0.90781 0.89433 0.0
H846 H 0.9912 0.87533 0.86494 0.0
C847 C 0.94092 0.81836 0.89577 0.0
C848 C 0.94089 0.86849 0.84671 0.0
C849 C 0.93252 0.80296 0.92871 0.0
C850 C 0.00078 0.93533 0.85123 0.0
C851 C 0.9929 0.91604 0.85919 0.0
C852 C 0.97719 0.87355 0.85924 0.0
C853 C 0.93718 0.83663 0.89798 0.0
C854 C 0.94836 0.85365 0.87144 0.0
C855 C 0.98037 0.90793 0.824 0.0
C856 C 0.96964 0.8887 0.83659 0.0
H857 H 0.90662 0.82606 0.99195 0.0
H858 H 0.92096 0.85291 0.93373 0.0
H859 H 0.97274 0.84499 0.8958 0.0
H860 H 0.9807 0.94657 0.73775 0.0
H861 H 0.96746 0.91313 0.75087 0.0
C862 C 0.69003 0.07283 0.85206 0.0
C863 C 0.6911 0.05362 0.86549 0.0
C864 C 0.67649 0.07764 0.82014 0.0
C865 C 0.63842 0.05615 0.74042 0.0
H866 H 0.6156 0.09251 0.7978 0.0
C867 C 0.56567 0.05943 0.79962 0.0
C868 C 0.55687 0.04892 0.76144 0.0
C869 C 0.5834 0.06735 0.7944 0.0
C870 C 0.62174 0.08227 0.78125 0.0
H871 H 0.67927 0.02445 0.85453 0.0
H872 H 0.65562 0.03263 0.80051 0.0
H873 H 0.64559 0.09098 0.82183 0.0
H874 H 0.55877 0.04039 0.68522 0.0
H875 H 0.58936 0.05536 0.6742 0.0
H876 H 0.61416 0.04584 0.70471 0.0
C877 C 0.66538 0.04415 0.81296 0.0
C878 C 0.63913 0.08162 0.79437 0.0
C879 C 0.67895 0.03939 0.84431 0.0
C880 C 0.56544 0.04825 0.71551 0.0
C881 C 0.58303 0.05667 0.70953 0.0
C882 C 0.62094 0.05646 0.72837 0.0
C883 C 0.66367 0.06331 0.80154 0.0
C884 C 0.64734 0.06777 0.77645 0.0
C885 C 0.59255 0.06525 0.75027 0.0
C886 C 0.61205 0.06879 0.751 0.0
H887 H 0.69939 0.0841 0.86739 0.0
H888 H 0.67576 0.09254 0.81149 0.0
H889 H 0.64453 0.04577 0.72436 0.0
H890 H 0.55929 0.06005 0.83548 0.0
H891 H 0.59012 0.07365 0.82699 0.0
C892 C 0.60295 0.70735 0.18782 0.0
C893 C 0.60763 0.72577 0.16242 0.0
C894 C 0.59706 0.6918 0.16003 0.0
C895 C 0.57491 0.68198 0.03723 0.0
H896 H 0.57782 0.62985 0.0866 0.0
C897 C 0.5391 0.6159 0.94117 0.0
C898 C 0.52961 0.60139 0.97512 0.0
C899 C 0.5504 0.63122 0.96009 0.0
C900 C 0.57691 0.64436 0.07248 0.0
H901 H 0.61133 0.74214 0.0879 0.0
H902 H 0.60146 0.71482 0.03898 0.0
H903 H 0.59674 0.6561 0.12445 0.0
H904 H 0.52432 0.59147 0.05514 0.0
H905 H 0.54421 0.61826 0.08838 0.0
H906 H 0.55505 0.6701 0.98525 0.0
C907 C 0.60186 0.71249 0.08052 0.0
C908 C 0.58771 0.65939 0.0941 0.0
C909 C 0.60761 0.72811 0.10844 0.0
C910 C 0.5314 0.60257 0.02826 0.0
C911 C 0.54289 0.61774 0.04719 0.0
C912 C 0.56428 0.66694 0.01516 0.0
C913 C 0.59584 0.69427 0.1061 0.0
C914 C 0.58652 0.67839 0.0777 0.0
C915 C 0.55258 0.63211 0.01326 0.0
C916 C 0.56488 0.64801 0.0335 0.0
H917 H 0.60256 0.70511 0.22939 0.0
H918 H 0.59235 0.67809 0.1812 0.0
H919 H 0.57339 0.69639 0.02414 0.0
H920 H 0.53789 0.61529 0.89999 0.0
H921 H 0.55773 0.64213 0.9332 0.0
C922 C 0.83272 0.39393 0.93522 0.0
C923 C 0.82342 0.40883 0.93654 0.0
C924 C 0.8493 0.39739 0.91298 0.0
C925 C 0.88845 0.41217 0.89705 0.0
H926 H 0.89948 0.45185 0.78442 0.0
C927 C 0.95798 0.4556 0.86199 0.0
C928 C 0.96228 0.46491 0.81297 0.0
C929 C 0.94138 0.44444 0.87108 0.0
C930 C 0.89674 0.44041 0.81513 0.0
H931 H 0.82435 0.43906 0.91598 0.0
H932 H 0.85301 0.4451 0.87805 0.0
H933 H 0.86937 0.44016 0.80817 0.0
H934 H 0.95344 0.46855 0.73398 0.0
H935 H 0.92496 0.44816 0.7488 0.0
H936 H 0.91589 0.41221 0.90332 0.0
C937 C 0.84743 0.43061 0.89261 0.0
C938 C 0.87938 0.43392 0.82937 0.0
C939 C 0.83092 0.42714 0.91446 0.0
C940 C 0.9503 0.46168 0.77233 0.0
C941 C 0.93392 0.45014 0.78104 0.0
C942 C 0.90587 0.41847 0.88227 0.0
C943 C 0.85693 0.41585 0.89188 0.0
C944 C 0.87505 0.42024 0.87167 0.0
C945 C 0.9289 0.44206 0.83099 0.0
C946 C 0.91031 0.43313 0.8421 0.0
H947 H 0.82724 0.37965 0.95178 0.0
H948 H 0.85618 0.38567 0.91265 0.0
H949 H 0.88562 0.40162 0.92989 0.0
H950 H 0.967 0.45799 0.89398 0.0
H951 H 0.93805 0.43866 0.91016 0.0
C952 C 0.09234 0.21794 0.19536 0.0
C953 C 0.08037 0.22191 0.23 0.0
C954 C 0.08829 0.20183 0.16825 0.0
C955 C 0.05917 0.15431 0.17447 0.0
H956 H 0.07511 0.15438 0.03551 0.0
C957 C 0.03837 0.08981 0.05624 0.0
C958 C 0.05129 0.08467 0.02713 0.0
C959 C 0.04173 0.10672 0.08 0.0
C960 C 0.0707 0.15408 0.07451 0.0
H961 H 0.05447 0.21212 0.26195 0.0
H962 H 0.04721 0.18448 0.21352 0.0
H963 H 0.08079 0.18388 0.07695 0.0
H964 H 0.07787 0.09347 0.9999 0.0
H965 H 0.08379 0.12294 0.04171 0.0
H966 H 0.04902 0.12453 0.17189 0.0
C967 C 0.05991 0.19362 0.20806 0.0
C968 C 0.07397 0.17101 0.09832 0.0
C969 C 0.06398 0.20969 0.2353 0.0
C970 C 0.06768 0.0969 0.02242 0.0
C971 C 0.07101 0.1139 0.04592 0.0
C972 C 0.05584 0.13742 0.15057 0.0
C973 C 0.07213 0.18926 0.17486 0.0
C974 C 0.06827 0.17136 0.14871 0.0
C975 C 0.05807 0.11902 0.07505 0.0
C976 C 0.0616 0.13707 0.10033 0.0
H977 H 0.10501 0.22712 0.18976 0.0
H978 H 0.0981 0.19893 0.14334 0.0
H979 H 0.05489 0.15388 0.21363 0.0
H980 H 0.02565 0.08065 0.06105 0.0
H981 H 0.03142 0.11029 0.10175 0.0
C982 C 0.32252 0.01795 0.24898 0.0
C983 C 0.32101 0.03146 0.28295 0.0
C984 C 0.33452 0.02248 0.2089 0.0
C985 C 0.37616 0.05412 0.17544 0.0
H986 H 0.36697 0.03605 0.04096 0.0
C987 C 0.4291 0.06885 0.0191 0.0
C988 C 0.43049 0.05344 0.99149 0.0
C989 C 0.41478 0.06792 0.05081 0.0
C990 C 0.36978 0.04108 0.07846 0.0
H991 H 0.33019 0.06069 0.29949 0.0
H992 H 0.3512 0.06854 0.22964 0.0
H993 H 0.34331 0.03133 0.10272 0.0
H994 H 0.41754 0.02526 0.97416 0.0
H995 H 0.39291 0.02342 0.03044 0.0
H996 H 0.4027 0.0634 0.15194 0.0
C997 C 0.34329 0.05435 0.23459 0.0
C998 C 0.35621 0.03841 0.11377 0.0
C999 C 0.33126 0.04985 0.27457 0.0
C1000 C 0.41704 0.03726 0.99552 0.0
C1001 C 0.40277 0.03632 0.02726 0.0
C1002 C 0.38974 0.05673 0.14024 0.0
C1003 C 0.3453 0.0406 0.20194 0.0
C1004 C 0.3593 0.0447 0.16286 0.0
C1005 C 0.40152 0.05157 0.05562 0.0
C1006 C 0.38677 0.05003 0.09155 0.0
H1007 H 0.315 1.00359 0.25472 0.0
H1008 H 0.33589 0.0115 0.18476 0.0
H1009 H 0.37904 0.05888 0.21323 0.0
H1010 H 0.43927 0.08148 0.0171 0.0
H1011 H 0.41413 0.08001 0.07168 0.0
C1012 C 0.4329 0.30781 0.02826 0.0
C1013 C 0.44649 0.29794 0.04364 0.0
C1014 C 0.43639 0.32552 0.99891 0.0
C1015 C 0.47008 0.36752 0.98077 0.0
H1016 H 0.44507 0.38155 0.85662 0.0
C1017 C 0.47368 0.44572 0.8966 0.0
C1018 C 0.47926 0.44954 0.84539 0.0
C1019 C 0.46852 0.4269 0.91835 0.0
C1020 C 0.4521 0.37779 0.89131 0.0
H1021 H 0.47434 0.29877 0.0369 0.0
H1022 H 0.48041 0.33005 0.9877 0.0
H1023 H 0.43874 0.34858 0.89734 0.0
H1024 H 0.48279 0.43682 0.7759 0.0
H1025 H 0.47336 0.40389 0.8137 0.0
H1026 H 0.48315 0.39673 0.97559 0.0
C1027 C 0.46707 0.32392 0.99857 0.0
C1028 C 0.44848 0.359 0.91456 0.0
C1029 C 0.46356 0.30604 0.02704 0.0
C1030 C 0.47871 0.43425 0.8156 0.0
C1031 C 0.47323 0.41544 0.83707 0.0
C1032 C 0.47342 0.38635 0.95822 0.0
C1033 C 0.45356 0.33396 0.98498 0.0
C1034 C 0.45752 0.35369 0.95935 0.0
C1035 C 0.46849 0.41159 0.88899 0.0
C1036 C 0.4645 0.39166 0.91324 0.0
H1037 H 0.41964 0.30235 0.04082 0.0
H1038 H 0.42576 0.33304 0.98921 0.0
H1039 H 0.47711 0.36382 0.01553 0.0
H1040 H 0.47408 0.45722 0.92054 0.0
H1041 H 0.46481 0.42428 0.95841 0.0
C1042 C 0.20885 0.53681 0.27008 0.0
C1043 C 0.2144 0.55642 0.27366 0.0
C1044 C 0.19696 0.53034 0.23198 0.0
C1045 C 0.17589 0.54432 0.10906 0.0
H1046 H 0.1376 0.50459 0.1602 0.0
C1047 C 0.1119 0.52315 0.99304 0.0
C1048 C 0.10386 0.50378 0.99687 0.0
C1049 C 0.12642 0.52944 0.02369 0.0
C1050 C 0.14831 0.51546 0.14495 0.0
H1051 H 0.21254 0.58466 0.23845 0.0
H1052 H 0.19171 0.57333 0.17155 0.0
H1053 H 0.16154 0.51576 0.21763 0.0
H1054 H 0.10502 0.47583 0.0356 0.0
H1055 H 0.13059 0.48669 0.08786 0.0
H1056 H 0.16255 0.54403 0.03628 0.0
C1057 C 0.19664 0.56297 0.19819 0.0
C1058 C 0.16205 0.52189 0.17796 0.0
C1059 C 0.20858 0.56945 0.23642 0.0
C1060 C 0.11094 0.49081 0.0313 0.0
C1061 C 0.12549 0.49709 0.06179 0.0
C1062 C 0.16214 0.53782 0.07586 0.0
C1063 C 0.19032 0.54333 0.19653 0.0
C1064 C 0.17601 0.53637 0.16046 0.0
C1065 C 0.1333 0.51652 0.05882 0.0
C1066 C 0.14816 0.5233 0.09345 0.0
H1067 H 0.21335 0.52643 0.2977 0.0
H1068 H 0.19265 0.51512 0.231 0.0
H1069 H 0.18652 0.55541 0.09436 0.0
H1070 H 0.10697 0.5335 0.96636 0.0
H1071 H 0.13199 0.54452 0.02064 0.0
C1072 C 0.94463 0.80811 0.35541 0.0
C1073 C 0.93436 0.79143 0.37909 0.0
C1074 C 0.94776 0.82491 0.37951 0.0
C1075 C 0.93172 0.84782 0.48643 0.0
H1076 H 0.97437 0.88478 0.45762 0.0
C1077 C 0.95673 0.9147 0.59635 0.0
C1078 C 0.96007 0.93204 0.56479 0.0
C1079 C 0.95296 0.89735 0.57467 0.0
C1080 C 0.96237 0.87459 0.46578 0.0
H1081 H 0.9195 0.77908 0.44685 0.0
H1082 H 0.92577 0.8081 0.49071 0.0
H1083 H 0.9699 0.85447 0.42071 0.0
H1084 H 0.96215 0.94495 0.48613 0.0
H1085 H 0.95613 0.91448 0.4481 0.0
H1086 H 0.92475 0.86791 0.53363 0.0
C1087 C 0.93096 0.80851 0.45264 0.0
C1088 C 0.9597 0.85722 0.44436 0.0
C1089 C 0.92749 0.79177 0.42786 0.0
C1090 C 0.95952 0.93175 0.51119 0.0
C1091 C 0.95617 0.91438 0.48953 0.0
C1092 C 0.93461 0.86504 0.50884 0.0
C1093 C 0.94102 0.82542 0.4286 0.0
C1094 C 0.94422 0.84361 0.45375 0.0
C1095 C 0.95288 0.89704 0.5211 0.0
C1096 C 0.94987 0.87866 0.49821 0.0
H1097 H 0.94977 0.80833 0.31729 0.0
H1098 H 0.95514 0.83759 0.35879 0.0
H1099 H 0.91949 0.83801 0.49406 0.0
H1100 H 0.95706 0.91458 0.63781 0.0
H1101 H 0.95053 0.88415 0.59976 0.0
C1102 C 0.69792 0.01221 0.35 0.0
C1103 C 0.69785 0.99855 0.31523 0.0
C1104 C 0.68655 0.00845 0.39161 0.0
C1105 C 0.65718 0.96991 0.46978 0.0
H1106 H 0.63295 0.01067 0.49221 0.0
C1107 C 0.59461 0.95858 0.5922 0.0
C1108 C 0.59265 0.97317 0.62215 0.0
C1109 C 0.60867 0.96104 0.55863 0.0
C1110 C 0.63977 0.99922 0.48707 0.0
H1111 H 0.68609 0.97004 0.29768 0.0
H1112 H 0.66619 0.96348 0.37026 0.0
H1113 H 0.65551 0.01608 0.42738 0.0
H1114 H 0.60442 1.00132 0.6425 0.0
H1115 H 0.62896 1.00557 0.58428 0.0
H1116 H 0.64119 0.95298 0.5292 0.0
C1117 C 0.67519 0.97702 0.36571 0.0
C1118 C 0.65273 1.00232 0.44986 0.0
C1119 C 0.6866 0.98078 0.3241 0.0
C1120 C 0.60537 0.98998 0.61914 0.0
C1121 C 0.61943 0.99241 0.58576 0.0
C1122 C 0.64419 0.96679 0.50712 0.0
C1123 C 0.67481 0.99096 0.39937 0.0
C1124 C 0.66156 0.9877 0.44062 0.0
C1125 C 0.6211 0.97811 0.55446 0.0
C1126 C 0.6353 0.98141 0.51605 0.0
H1127 H 0.70665 0.02592 0.34469 0.0
H1128 H 0.68682 0.01935 0.41742 0.0
H1129 H 0.66387 0.95841 0.46394 0.0
H1130 H 0.58495 0.94553 0.59341 0.0
H1131 H 0.60948 0.94983 0.5347 0.0
C1132 C 0.5815 0.7072 0.55542 0.0
C1133 C 0.56785 0.71706 0.54113 0.0
C1134 C 0.57809 0.68903 0.58234 0.0
C1135 C 0.54358 0.65428 0.6565 0.0
H1136 H 0.57065 0.61767 0.62038 0.0
C1137 C 0.53256 0.57813 0.7592 0.0
C1138 C 0.53334 0.56307 0.72968 0.0
C1139 C 0.53819 0.59706 0.73917 0.0
C1140 C 0.56283 0.62762 0.63067 0.0
H1141 H 0.5399 0.71559 0.54629 0.0
H1142 H 0.53387 0.6837 0.59105 0.0
H1143 H 0.57706 0.65024 0.58016 0.0
H1144 H 0.54094 0.55606 0.65614 0.0
H1145 H 0.55023 0.58909 0.62034 0.0
H1146 H 0.52873 0.63146 0.70486 0.0
C1147 C 0.5473 0.69012 0.58228 0.0
C1148 C 0.56671 0.64647 0.60815 0.0
C1149 C 0.55074 0.7084 0.55587 0.0
C1150 C 0.54029 0.56735 0.68001 0.0
C1151 C 0.54568 0.58633 0.65958 0.0
C1152 C 0.53957 0.6354 0.67855 0.0
C1153 C 0.5609 0.68005 0.59527 0.0
C1154 C 0.55711 0.66008 0.62061 0.0
C1155 C 0.54447 0.60148 0.68865 0.0
C1156 C 0.54911 0.62176 0.66593 0.0
H1157 H 0.59483 0.71318 0.54428 0.0
H1158 H 0.58897 0.68196 0.59248 0.0
H1159 H 0.53602 0.66434 0.66772 0.0
H1160 H 0.52741 0.57535 0.79776 0.0
H1161 H 0.53747 0.60822 0.76335 0.0
C1162 C 0.80265 0.4459 0.36288 0.0
C1163 C 0.79916 0.45633 0.31645 0.0
C1164 C 0.81529 0.45395 0.39735 0.0
C1165 C 0.85495 0.49113 0.3996 0.0
H1166 H 0.84967 0.48237 0.54751 0.0
C1167 C 0.90699 0.52714 0.5375 0.0
C1168 C 0.91141 0.5157 0.58095 0.0
C1169 C 0.89252 0.52062 0.50693 0.0
C1170 C 0.8514 0.48481 0.50628 0.0
H1171 H 0.806 0.48359 0.27054 0.0
H1172 H 0.82768 0.49773 0.33109 0.0
H1173 H 0.82553 0.46977 0.49158 0.0
H1174 H 0.90374 0.48863 0.62716 0.0
H1175 H 0.87873 0.47711 0.57328 0.0
H1176 H 0.88084 0.50596 0.41408 0.0
C1177 C 0.82081 0.48324 0.34056 0.0
C1178 C 0.83756 0.4776 0.47425 0.0
C1179 C 0.8082 0.47521 0.30615 0.0
C1180 C 0.90083 0.49771 0.59358 0.0
C1181 C 0.88637 0.49119 0.56304 0.0
C1182 C 0.86876 0.49832 0.43156 0.0
C1183 C 0.82475 0.4726 0.38612 0.0
C1184 C 0.83919 0.48065 0.42051 0.0
C1185 C 0.88211 0.5025 0.51909 0.0
C1186 C 0.86719 0.49522 0.48529 0.0
H1187 H 0.79581 0.4314 0.37223 0.0
H1188 H 0.81806 0.44533 0.43197 0.0
H1189 H 0.85678 0.49343 0.35839 0.0
H1190 H 0.91492 0.541 0.52644 0.0
H1191 H 0.8895 0.52978 0.47369 0.0
loop_
_geom_bond_atom_site_label_1
_geom_bond_atom_site_label_2
_geom_bond_distance
_geom_bond_site_symmetry_2
_ccdc_geom_bond_type
C0 C1 1.386 . S
C0 C2 1.397 . S
C0 H24 0.931 . S
C1 C0 1.386 . S
C1 C5 1.397 . S
C2 C0 1.397 . S
C2 C3 1.384 . S
C2 H25 0.930 . S
C3 C2 1.384 . S
C3 C4 1.377 . S
C3 C6 1.481 1_556 S
C4 C3 1.377 . S
C4 C5 1.389 . S
C4 H26 0.929 1_556 S
C5 C1 1.397 . S
C5 C4 1.389 . S
C5 H27 0.931 . S
C6 C3 1.481 1_554 S
C6 C7 1.387 1_554 S
C6 C11 1.390 . S
C7 C6 1.387 1_556 S
C7 C8 1.401 1_556 S
C7 H28 0.930 . S
C8 C7 1.401 1_554 S
C8 C9 1.376 . S
C8 C17 1.511 . S
C9 C8 1.376 . S
C9 C10 1.392 . S
C9 H30 0.931 . S
C10 C9 1.392 . S
C10 C11 1.361 . S
C10 C12 1.500 . S
C11 C6 1.390 . S
C11 C10 1.361 . S
C11 H29 0.931 . S
C12 C10 1.500 . S
C12 C13 1.371 . S
C12 C14 1.365 . S
C13 C12 1.371 . S
C13 C23 1.386 . S
C13 H31 0.931 . S
C14 C12 1.365 . S
C14 C15 1.409 . S
C14 H32 0.929 . S
C15 C14 1.409 . S
C15 C16 1.380 . S
C15 H33 0.930 . S
C16 C15 1.380 . S
C16 C23 1.357 . S
C17 C8 1.511 . S
C17 C18 1.341 1_554 S
C17 C19 1.371 . S
C18 C17 1.341 1_556 S
C18 C22 1.394 . S
C18 H34 0.930 . S
C19 C17 1.371 . S
C19 C20 1.392 . S
C19 H35 0.931 . S
C20 C19 1.392 . S
C20 C21 1.331 1_554 S
C20 H38 0.932 . S
C21 C20 1.331 1_556 S
C21 C22 1.336 . S
C22 C18 1.394 . S
C22 C21 1.336 . S
C22 H37 0.929 . S
C23 C13 1.386 . S
C23 C16 1.357 . S
C23 H36 0.928 . S
H24 C0 0.931 . S
H25 C2 0.930 . S
H26 C4 0.929 1_554 S
H27 C5 0.931 . S
H28 C7 0.930 . S
H29 C11 0.931 . S
H30 C9 0.931 . S
H31 C13 0.931 . S
H32 C14 0.929 . S
H33 C15 0.930 . S
H34 C18 0.930 . S
H35 C19 0.931 . S
H36 C23 0.928 . S
H37 C22 0.929 . S
H38 C20 0.932 . S
C39 C40 1.386 . S
C39 C41 1.397 . S
C39 H63 0.931 . S
C40 C39 1.386 . S
C40 C44 1.397 . S
C41 C39 1.397 . S
C41 C42 1.384 . S
C41 H64 0.930 . S
C42 C41 1.384 . S
C42 C43 1.377 . S
C42 C45 1.481 1_556 S
C43 C42 1.377 . S
C43 C44 1.389 . S
C43 H65 0.929 . S
C44 C40 1.397 . S
C44 C43 1.389 . S
C44 H66 0.931 . S
C45 C42 1.481 1_554 S
C45 C46 1.387 . S
C45 C50 1.390 . S
C46 C45 1.387 . S
C46 C47 1.401 . S
C46 H67 0.930 1_554 S
C47 C46 1.401 . S
C47 C48 1.376 . S
C47 C56 1.511 . S
C48 C47 1.376 . S
C48 C49 1.392 . S
C48 H69 0.931 . S
C49 C48 1.392 . S
C49 C50 1.361 . S
C49 C51 1.500 . S
C50 C45 1.390 . S
C50 C49 1.361 . S
C50 H68 0.931 . S
C51 C49 1.500 . S
C51 C52 1.371 . S
C51 C53 1.365 . S
C52 C51 1.371 . S
C52 C62 1.386 . S
C52 H70 0.931 . S
C53 C51 1.365 . S
C53 C54 1.409 . S
C53 H71 0.929 . S
C54 C53 1.409 . S
C54 C55 1.380 . S
C54 H72 0.930 . S
C55 C54 1.380 . S
C55 C62 1.357 . S
C56 C47 1.511 . S
C56 C57 1.341 1_554 S
C56 C58 1.371 . S
C57 C56 1.341 1_556 S
C57 C61 1.394 . S
C57 H73 0.930 . S
C58 C56 1.371 . S
C58 C59 1.392 . S
C58 H74 0.931 . S
C59 C58 1.392 . S
C59 C60 1.331 . S
C59 H77 0.932 . S
C60 C59 1.331 . S
C60 C61 1.336 1_554 S
C61 C57 1.394 . S
C61 C60 1.336 1_556 S
C61 H76 0.929 . S
C62 C52 1.386 . S
C62 C55 1.357 . S
C62 H75 0.928 . S
H63 C39 0.931 . S
H64 C41 0.930 . S
H65 C43 0.929 . S
H66 C44 0.931 . S
H67 C46 0.930 1_556 S
H68 C50 0.931 . S
H69 C48 0.931 . S
H70 C52 0.931 . S
H71 C53 0.929 . S
H72 C54 0.930 . S
H73 C57 0.930 . S
H74 C58 0.931 . S
H75 C62 0.928 . S
H76 C61 0.929 . S
H77 C59 0.932 . S
C78 C79 1.397 . S
C78 C80 1.397 . S
C78 H102 0.931 . S
C79 C78 1.397 . S
C79 C83 1.387 1_565 S
C80 C78 1.397 . S
C80 C81 1.389 . S
C80 H103 0.930 . S
C81 C80 1.389 . S
C81 C82 1.371 1_565 S
C81 C84 1.479 . S
C82 C81 1.371 1_545 S
C82 C83 1.389 . S
C82 H104 0.929 . S
C83 C79 1.387 1_545 S
C83 C82 1.389 . S
C83 H105 0.931 . S
C84 C81 1.479 . S
C84 C85 1.396 . S
C84 C89 1.387 1_556 S
C85 C84 1.396 . S
C85 C86 1.401 . S
C85 H106 0.930 . S
C86 C85 1.401 . S
C86 C87 1.378 1_556 S
C86 C95 1.520 . S
C87 C86 1.378 1_554 S
C87 C88 1.382 . S
C87 H108 0.936 . S
C88 C87 1.382 . S
C88 C89 1.362 . S
C88 C90 1.495 1_565 S
C89 C84 1.387 1_554 S
C89 C88 1.362 . S
C89 H107 0.929 . S
C90 C88 1.495 1_545 S
C90 C91 1.363 1_545 S
C90 C92 1.377 . S
C91 C90 1.363 1_565 S
C91 C101 1.386 . S
C91 H109 0.931 . S
C92 C90 1.377 . S
C92 C93 1.409 . S
C92 H110 0.929 . S
C93 C92 1.409 . S
C93 C94 1.378 . S
C93 H111 0.930 . S
C94 C93 1.378 . S
C94 C101 1.361 1_545 S
C95 C86 1.520 . S
C95 C96 1.341 . S
C95 C97 1.371 1_566 S
C96 C95 1.341 . S
C96 C100 1.394 . S
C96 H112 0.930 . S
C97 C95 1.371 1_544 S
C97 C98 1.392 1_554 S
C97 H113 0.931 . S
C98 C97 1.392 1_556 S
C98 C99 1.318 1_545 S
C98 H116 0.932 1_556 S
C99 C98 1.318 1_565 S
C99 C100 1.344 . S
C100 C96 1.394 . S
C100 C99 1.344 . S
C100 H115 0.929 . S
C101 C91 1.386 . S
C101 C94 1.361 1_565 S
C101 H114 0.928 . S
H102 C78 0.931 . S
H103 C80 0.930 . S
H104 C82 0.929 . S
H105 C83 0.931 . S
H106 C85 0.930 . S
H107 C89 0.929 . S
H108 C87 0.936 . S
H109 C91 0.931 . S
H110 C92 0.929 . S
H111 C93 0.930 . S
H112 C96 0.930 . S
H113 C97 0.931 . S
H114 C101 0.928 . S
H115 C100 0.929 . S
H116 C98 0.932 1_554 S
C117 C118 1.386 . S
C117 C119 1.397 . S
C117 H141 0.931 . S
C118 C117 1.386 . S
C118 C122 1.397 . S
C119 C117 1.397 . S
C119 C120 1.384 . S
C119 H142 0.930 . S
C120 C119 1.384 . S
C120 C121 1.377 . S
C120 C123 1.481 . S
C121 C120 1.377 . S
C121 C122 1.389 . S
C121 H143 0.929 . S
C122 C118 1.397 . S
C122 C121 1.389 . S
C122 H144 0.931 . S
C123 C120 1.481 . S
C123 C124 1.387 . S
C123 C128 1.390 . S
C124 C123 1.387 . S
C124 C125 1.401 . S
C124 H145 0.930 . S
C125 C124 1.401 . S
C125 C126 1.376 . S
C125 C134 1.511 . S
C126 C125 1.376 . S
C126 C127 1.392 . S
C126 H147 0.931 . S
C127 C126 1.392 . S
C127 C128 1.361 . S
C127 C129 1.500 . S
C128 C123 1.390 . S
C128 C127 1.361 . S
C128 H146 0.931 . S
C129 C127 1.500 . S
C129 C130 1.371 . S
C129 C131 1.365 . S
C130 C129 1.371 . S
C130 C140 1.386 . S
C130 H148 0.931 . S
C131 C129 1.365 . S
C131 C132 1.409 . S
C131 H149 0.929 . S
C132 C131 1.409 . S
C132 C133 1.380 . S
C132 H150 0.930 . S
C133 C132 1.380 . S
C133 C140 1.357 . S
C134 C125 1.511 . S
C134 C135 1.341 . S
C134 C136 1.371 . S
C135 C134 1.341 . S
C135 C139 1.394 . S
C135 H151 0.930 . S
C136 C134 1.371 . S
C136 C137 1.392 . S
C136 H152 0.931 . S
C137 C136 1.392 . S
C137 C138 1.331 . S
C137 H155 0.932 . S
C138 C137 1.331 . S
C138 C139 1.336 . S
C139 C135 1.394 . S
C139 C138 1.336 . S
C139 H154 0.929 . S
C140 C130 1.386 . S
C140 C133 1.357 . S
C140 H153 0.928 . S
H141 C117 0.931 . S
H142 C119 0.930 . S
H143 C121 0.929 . S
H144 C122 0.931 . S
H145 C124 0.930 . S
H146 C128 0.931 . S
H147 C126 0.931 . S
H148 C130 0.931 . S
H149 C131 0.929 . S
H150 C132 0.930 . S
H151 C135 0.930 . S
H152 C136 0.931 . S
H153 C140 0.928 . S
H154 C139 0.929 . S
H155 C137 0.932 . S
C156 C157 1.386 . S
C156 C158 1.397 . S
C156 H180 0.931 . S
C157 C156 1.386 . S
C157 C161 1.397 . S
C158 C156 1.397 . S
C158 C159 1.384 . S
C158 H181 0.930 . S
C159 C158 1.384 . S
C159 C160 1.377 . S
C159 C162 1.481 . S
C160 C159 1.377 . S
C160 C161 1.389 . S
C160 H182 0.929 . S
C161 C157 1.397 . S
C161 C160 1.389 . S
C161 H183 0.931 . S
C162 C159 1.481 . S
C162 C163 1.387 . S
C162 C167 1.390 . S
C163 C162 1.387 . S
C163 C164 1.401 . S
C163 H184 0.930 . S
C164 C163 1.401 . S
C164 C165 1.376 . S
C164 C173 1.511 . S
C165 C164 1.376 . S
C165 C166 1.392 . S
C165 H186 0.931 . S
C166 C165 1.392 . S
C166 C167 1.361 . S
C166 C168 1.500 . S
C167 C162 1.390 . S
C167 C166 1.361 . S
C167 H185 0.931 . S
C168 C166 1.500 . S
C168 C169 1.371 . S
C168 C170 1.365 . S
C169 C168 1.371 . S
C169 C179 1.386 . S
C169 H187 0.931 . S
C170 C168 1.365 . S
C170 C171 1.409 . S
C170 H188 0.929 . S
C171 C170 1.409 . S
C171 C172 1.380 . S
C171 H189 0.930 . S
C172 C171 1.380 . S
C172 C179 1.357 . S
C173 C164 1.511 . S
C173 C174 1.341 . S
C173 C175 1.371 . S
C174 C173 1.341 . S
C174 C178 1.394 . S
C174 H190 0.930 . S
C175 C173 1.371 . S
C175 C176 1.392 . S
C175 H191 0.931 . S
C176 C175 1.392 . S
C176 C177 1.331 . S
C176 H194 0.932 . S
C177 C176 1.331 . S
C177 C178 1.336 . S
C178 C174 1.394 . S
C178 C177 1.336 . S
C178 H193 0.929 . S
C179 C169 1.386 . S
C179 C172 1.357 . S
C179 H192 0.928 . S
H180 C156 0.931 . S
H181 C158 0.930 . S
H182 C160 0.929 . S
H183 C161 0.931 . S
H184 C163 0.930 . S
H185 C167 0.931 . S
H186 C165 0.931 . S
H187 C169 0.931 . S
H188 C170 0.929 . S
H189 C171 0.930 . S
H190 C174 0.930 . S
H191 C175 0.931 . S
H192 C179 0.928 . S
H193 C178 0.929 . S
H194 C176 0.932 . S
C195 C196 1.386 . S
C195 C197 1.397 . S
C195 H219 0.931 . S
C196 C195 1.386 . S
C196 C200 1.397 . S
C197 C195 1.397 . S
C197 C198 1.384 . S
C197 H220 0.930 . S
C198 C197 1.384 . S
C198 C199 1.377 . S
C198 C201 1.481 . S
C199 C198 1.377 . S
C199 C200 1.389 . S
C199 H221 0.929 . S
C200 C196 1.397 . S
C200 C199 1.389 . S
C200 H222 0.931 . S
C201 C198 1.481 . S
C201 C202 1.387 . S
C201 C206 1.390 . S
C202 C201 1.387 . S
C202 C203 1.401 . S
C202 H223 0.930 . S
C203 C202 1.401 . S
C203 C204 1.376 . S
C203 C212 1.511 . S
C204 C203 1.376 . S
C204 C205 1.392 . S
C204 H225 0.931 . S
C205 C204 1.392 . S
C205 C206 1.361 . S
C205 C207 1.500 . S
C206 C201 1.390 . S
C206 C205 1.361 . S
C206 H224 0.931 . S
C207 C205 1.500 . S
C207 C208 1.371 . S
C207 C209 1.365 . S
C208 C207 1.371 . S
C208 C218 1.386 . S
C208 H226 0.931 . S
C209 C207 1.365 . S
C209 C210 1.409 . S
C209 H227 0.929 . S
C210 C209 1.409 . S
C210 C211 1.380 . S
C210 H228 0.930 . S
C211 C210 1.380 . S
C211 C218 1.357 . S
C212 C203 1.511 . S
C212 C213 1.341 . S
C212 C214 1.371 . S
C213 C212 1.341 . S
C213 C217 1.394 . S
C213 H229 0.930 . S
C214 C212 1.371 . S
C214 C215 1.392 . S
C214 H230 0.931 . S
C215 C214 1.392 . S
C215 C216 1.331 . S
C215 H233 0.932 . S
C216 C215 1.331 . S
C216 C217 1.336 . S
C217 C213 1.394 . S
C217 C216 1.336 . S
C217 H232 0.929 . S
C218 C208 1.386 . S
C218 C211 1.357 . S
C218 H231 0.928 . S
H219 C195 0.931 . S
H220 C197 0.930 . S
H221 C199 0.929 . S
H222 C200 0.931 . S
H223 C202 0.930 . S
H224 C206 0.931 . S
H225 C204 0.931 . S
H226 C208 0.931 . S
H227 C209 0.929 . S
H228 C210 0.930 . S
H229 C213 0.930 . S
H230 C214 0.931 . S
H231 C218 0.928 . S
H232 C217 0.929 . S
H233 C215 0.932 . S
C234 C235 1.386 . S
C234 C236 1.397 . S
C234 H258 0.931 . S
C235 C234 1.386 . S
C235 C239 1.397 1_565 S
C236 C234 1.397 . S
C236 C237 1.381 . S
C236 H259 0.930 . S
C237 C236 1.381 . S
C237 C238 1.380 1_565 S
C237 C240 1.482 . S
C238 C237 1.380 1_545 S
C238 C239 1.389 . S
C238 H260 0.929 . S
C239 C235 1.397 1_545 S
C239 C238 1.389 . S
C239 H261 0.931 . S
C240 C237 1.482 . S
C240 C241 1.395 . S
C240 C245 1.393 . S
C241 C240 1.395 . S
C241 C242 1.398 . S
C241 H262 0.926 . S
C242 C241 1.398 . S
C242 C243 1.374 . S
C242 C251 1.508 . S
C243 C242 1.374 . S
C243 C244 1.398 1_565 S
C243 H264 0.932 . S
C244 C243 1.398 1_545 S
C244 C245 1.361 1_545 S
C244 C246 1.505 . S
C245 C240 1.393 . S
C245 C244 1.361 1_565 S
C245 H263 0.930 1_565 S
C246 C244 1.505 . S
C246 C247 1.358 1_545 S
C246 C248 1.374 . S
C247 C246 1.358 1_565 S
C247 C257 1.386 . S
C247 H265 0.931 . S
C248 C246 1.374 . S
C248 C249 1.409 . S
C248 H266 0.929 . S
C249 C248 1.409 . S
C249 C250 1.384 . S
C249 H267 0.930 . S
C250 C249 1.384 . S
C250 C257 1.355 1_545 S
C251 C242 1.508 . S
C251 C252 1.341 . S
C251 C253 1.371 1_565 S
C252 C251 1.341 . S
C252 C256 1.394 . S
C252 H268 0.930 . S
C253 C251 1.371 1_545 S
C253 C254 1.392 . S
C253 H269 0.931 . S
C254 C253 1.392 . S
C254 C255 1.329 1_545 S
C254 H272 0.932 . S
C255 C254 1.329 1_565 S
C255 C256 1.342 . S
C256 C252 1.394 . S
C256 C255 1.342 . S
C256 H271 0.929 . S
C257 C247 1.386 . S
C257 C250 1.355 1_565 S
C257 H270 0.928 . S
H258 C234 0.931 . S
H259 C236 0.930 . S
H260 C238 0.929 . S
H261 C239 0.931 . S
H262 C241 0.926 . S
H263 C245 0.930 1_545 S
H264 C243 0.932 . S
H265 C247 0.931 . S
H266 C248 0.929 . S
H267 C249 0.930 . S
H268 C252 0.930 . S
H269 C253 0.931 . S
H270 C257 0.928 . S
H271 C256 0.929 . S
H272 C254 0.932 . S
C273 C274 1.386 . S
C273 C275 1.397 . S
C273 H297 0.931 . S
C274 C273 1.386 . S
C274 C278 1.397 . S
C275 C273 1.397 . S
C275 C276 1.384 . S
C275 H298 0.930 . S
C276 C275 1.384 . S
C276 C277 1.377 . S
C276 C279 1.481 . S
C277 C276 1.377 . S
C277 C278 1.389 . S
C277 H299 0.929 . S
C278 C274 1.397 . S
C278 C277 1.389 . S
C278 H300 0.931 . S
C279 C276 1.481 . S
C279 C280 1.387 . S
C279 C284 1.390 . S
C280 C279 1.387 . S
C280 C281 1.401 . S
C280 H301 0.930 . S
C281 C280 1.401 . S
C281 C282 1.376 . S
C281 C290 1.511 . S
C282 C281 1.376 . S
C282 C283 1.392 . S
C282 H303 0.931 . S
C283 C282 1.392 . S
C283 C284 1.361 . S
C283 C285 1.500 . S
C284 C279 1.390 . S
C284 C283 1.361 . S
C284 H302 0.931 . S
C285 C283 1.500 . S
C285 C286 1.371 . S
C285 C287 1.365 . S
C286 C285 1.371 . S
C286 C296 1.386 . S
C286 H304 0.931 . S
C287 C285 1.365 . S
C287 C288 1.409 . S
C287 H305 0.929 . S
C288 C287 1.409 . S
C288 C289 1.380 . S
C288 H306 0.930 . S
C289 C288 1.380 . S
C289 C296 1.357 . S
C290 C281 1.511 . S
C290 C291 1.341 . S
C290 C292 1.371 . S
C291 C290 1.341 . S
C291 C295 1.394 . S
C291 H307 0.930 . S
C292 C290 1.371 . S
C292 C293 1.392 . S
C292 H308 0.931 . S
C293 C292 1.392 . S
C293 C294 1.331 . S
C293 H311 0.932 . S
C294 C293 1.331 . S
C294 C295 1.336 . S
C295 C291 1.394 . S
C295 C294 1.336 . S
C295 H310 0.929 . S
C296 C286 1.386 . S
C296 C289 1.357 . S
C296 H309 0.928 . S
H297 C273 0.931 . S
H298 C275 0.930 . S
H299 C277 0.929 . S
H300 C278 0.931 . S
H301 C280 0.930 . S
H302 C284 0.931 . S
H303 C282 0.931 . S
H304 C286 0.931 . S
H305 C287 0.929 . S
H306 C288 0.930 . S
H307 C291 0.930 . S
H308 C292 0.931 . S
H309 C296 0.928 . S
H310 C295 0.929 . S
H311 C293 0.932 . S
Nd312 C314 2.836 1_455 S
Nd312 O332 2.500 1_455 S
Nd312 O333 2.492 . S
Nd312 O334 2.487 . S
Nd312 O335 2.677 1_565 S
Nd312 O336 2.410 . S
Nd312 O341 2.427 1_455 S
Nd312 O343 2.424 1_565 S
Nd313 C323 2.836 . S
Nd313 O335 2.432 . S
Nd313 O337 2.424 1_545 S
Nd313 O338 2.500 . S
Nd313 O339 2.492 . S
Nd313 O340 2.487 1_455 S
Nd313 O341 2.679 1_445 S
Nd313 O342 2.410 . S
C314 Nd312 2.836 1_655 S
C314 C315 1.498 . S
C314 O332 1.258 . S
C314 O333 1.239 1_655 S
C315 C314 1.498 . S
C315 C316 1.366 . S
C315 C320 1.407 . S
C316 C315 1.366 . S
C316 C317 1.392 . S
C316 H344 0.930 . S
C317 C316 1.392 . S
C317 C318 1.398 . S
C317 H345 0.929 . S
C318 C317 1.398 . S
C318 C319 1.352 . S
C319 C318 1.352 . S
C319 C320 1.384 . S
C319 H346 0.930 . S
C320 C315 1.407 . S
C320 C319 1.384 . S
C320 H347 0.929 1_655 S
C321 O334 1.241 . S
C321 O335 1.248 1_565 S
C322 O336 1.251 . S
C322 O337 1.268 . S
C323 Nd313 2.836 . S
C323 C324 1.498 . S
C323 O338 1.258 . S
C323 O339 1.239 . S
C324 C323 1.498 . S
C324 C325 1.366 . S
C324 C329 1.407 . S
C325 C324 1.366 . S
C325 C326 1.392 . S
C325 H348 0.930 . S
C326 C325 1.392 . S
C326 C327 1.398 . S
C326 H349 0.929 . S
C327 C326 1.398 . S
C327 C328 1.352 1_556 S
C328 C327 1.352 1_554 S
C328 C329 1.384 1_554 S
C328 H350 0.930 . S
C329 C324 1.407 . S
C329 C328 1.384 1_556 S
C329 H351 0.929 . S
C330 O340 1.241 . S
C330 O341 1.254 1_545 S
C331 O342 1.251 . S
C331 O343 1.268 . S
O332 Nd312 2.500 1_655 S
O332 C314 1.258 . S
O333 Nd312 2.492 . S
O333 C314 1.239 1_455 S
O334 Nd312 2.487 . S
O334 C321 1.241 . S
O335 Nd312 2.677 1_545 S
O335 Nd313 2.432 . S
O335 C321 1.248 1_545 S
O336 Nd312 2.410 . S
O336 C322 1.251 . S
O337 Nd313 2.424 1_565 S
O337 C322 1.268 . S
O338 Nd313 2.500 . S
O338 C323 1.258 . S
O339 Nd313 2.492 . S
O339 C323 1.239 . S
O340 Nd313 2.487 1_655 S
O340 C330 1.241 . S
O341 Nd312 2.427 1_655 S
O341 Nd313 2.679 1_665 S
O341 C330 1.254 1_565 S
O342 Nd313 2.410 . S
O342 C331 1.251 . S
O343 Nd312 2.424 1_545 S
O343 C331 1.268 . S
H344 C316 0.930 . S
H345 C317 0.929 . S
H346 C319 0.930 . S
H347 C320 0.929 1_455 S
H348 C325 0.930 . S
H349 C326 0.929 . S
H350 C328 0.930 . S
H351 C329 0.929 . S
Nd352 C354 2.836 . S
Nd352 O372 2.500 . S
Nd352 O373 2.492 1_565 S
Nd352 O374 2.487 1_565 S
Nd352 O375 2.682 1_565 S
Nd352 O376 2.410 1_565 S
Nd352 O381 2.414 . S
Nd352 O383 2.424 . S
Nd353 C363 2.836 . S
Nd353 O375 2.414 . S
Nd353 O377 2.424 . S
Nd353 O378 2.500 . S
Nd353 O379 2.492 1_545 S
Nd353 O380 2.487 1_545 S
Nd353 O381 2.682 1_545 S
Nd353 O382 2.410 1_545 S
C354 Nd352 2.836 . S
C354 C355 1.498 . S
C354 O372 1.258 . S
C354 O373 1.223 1_565 S
C355 C354 1.498 . S
C355 C356 1.366 . S
C355 C360 1.407 . S
C356 C355 1.366 . S
C356 C357 1.392 . S
C356 H384 0.930 . S
C357 C356 1.392 . S
C357 C358 1.398 . S
C357 H385 0.929 . S
C358 C357 1.398 . S
C358 C359 1.352 . S
C359 C358 1.352 . S
C359 C360 1.384 . S
C359 H386 0.928 1_565 S
C360 C355 1.407 . S
C360 C359 1.384 . S
C360 H387 0.929 1_565 S
C361 O374 1.241 . S
C361 O375 1.273 . S
C362 O376 1.251 . S
C362 O377 1.268 . S
C363 Nd353 2.836 . S
C363 C364 1.498 . S
C363 O378 1.258 . S
C363 O379 1.235 1_545 S
C364 C363 1.498 . S
C364 C365 1.366 . S
C364 C369 1.407 . S
C365 C364 1.366 . S
C365 C366 1.392 . S
C365 H388 0.930 . S
C366 C365 1.392 . S
C366 C367 1.398 . S
C366 H389 0.929 . S
C367 C366 1.398 . S
C367 C368 1.352 1_556 S
C368 C367 1.352 1_554 S
C368 C369 1.384 1_554 S
C368 H390 0.928 . S
C369 C364 1.407 . S
C369 C368 1.384 1_556 S
C369 H391 0.929 1_546 S
C370 O380 1.241 . S
C370 O381 1.273 . S
C371 O382 1.251 . S
C371 O383 1.268 . S
O372 Nd352 2.500 . S
O372 C354 1.258 . S
O373 Nd352 2.492 1_545 S
O373 C354 1.223 1_545 S
O374 Nd352 2.487 1_545 S
O374 C361 1.241 . S
O375 Nd352 2.682 1_545 S
O375 Nd353 2.414 . S
O375 C361 1.273 . S
O376 Nd352 2.410 1_545 S
O376 C362 1.251 . S
O377 Nd353 2.424 . S
O377 C362 1.268 . S
O378 Nd353 2.500 . S
O378 C363 1.258 . S
O379 Nd353 2.492 1_565 S
O379 C363 1.235 1_565 S
O380 Nd353 2.487 1_565 S
O380 C370 1.241 . S
O381 Nd352 2.414 . S
O381 Nd353 2.682 1_565 S
O381 C370 1.273 . S
O382 Nd353 2.410 1_565 S
O382 C371 1.251 . S
O383 Nd352 2.424 . S
O383 C371 1.268 . S
H384 C356 0.930 . S
H385 C357 0.929 . S
H386 C359 0.928 1_545 S
H387 C360 0.929 1_545 S
H388 C365 0.930 . S
H389 C366 0.929 . S
H390 C368 0.928 . S
H391 C369 0.929 1_564 S
Nd392 C394 2.836 . S
Nd392 O412 2.500 . S
Nd392 O413 2.492 . S
Nd392 O414 2.487 . S
Nd392 O415 2.682 . S
Nd392 O416 2.410 . S
Nd392 O421 2.414 . S
Nd392 O423 2.424 . S
Nd393 C403 2.836 . S
Nd393 O415 2.414 . S
Nd393 O417 2.424 . S
Nd393 O418 2.500 . S
Nd393 O419 2.492 . S
Nd393 O420 2.487 . S
Nd393 O421 2.682 . S
Nd393 O422 2.410 . S
C394 Nd392 2.836 . S
C394 C395 1.498 . S
C394 O412 1.258 . S
C394 O413 1.239 . S
C395 C394 1.498 . S
C395 C396 1.366 . S
C395 C400 1.407 . S
C396 C395 1.366 . S
C396 C397 1.392 . S
C396 H424 0.930 . S
C397 C396 1.392 . S
C397 C398 1.398 . S
C397 H425 0.929 . S
C398 C397 1.398 . S
C398 C399 1.352 . S
C399 C398 1.352 . S
C399 C400 1.384 . S
C399 H426 0.930 . S
C400 C395 1.407 . S
C400 C399 1.384 . S
C400 H427 0.929 . S
C401 O414 1.241 . S
C401 O415 1.273 . S
C402 O416 1.251 . S
C402 O417 1.268 . S
C403 Nd393 2.836 . S
C403 C404 1.498 . S
C403 O418 1.258 . S
C403 O419 1.239 . S
C404 C403 1.498 . S
C404 C405 1.366 . S
C404 C409 1.407 . S
C405 C404 1.366 . S
C405 C406 1.392 . S
C405 H428 0.930 . S
C406 C405 1.392 . S
C406 C407 1.398 . S
C406 H429 0.929 . S
C407 C406 1.398 . S
C407 C408 1.352 . S
C408 C407 1.352 . S
C408 C409 1.384 . S
C408 H430 0.930 . S
C409 C404 1.407 . S
C409 C408 1.384 . S
C409 H431 0.929 . S
C410 O420 1.241 . S
C410 O421 1.273 . S
C411 O422 1.251 . S
C411 O423 1.268 . S
O412 Nd392 2.500 . S
O412 C394 1.258 . S
O413 Nd392 2.492 . S
O413 C394 1.239 . S
O414 Nd392 2.487 . S
O414 C401 1.241 . S
O415 Nd392 2.682 . S
O415 Nd393 2.414 . S
O415 C401 1.273 . S
O416 Nd392 2.410 . S
O416 C402 1.251 . S
O417 Nd393 2.424 . S
O417 C402 1.268 . S
O418 Nd393 2.500 . S
O418 C403 1.258 . S
O419 Nd393 2.492 . S
O419 C403 1.239 . S
O420 Nd393 2.487 . S
O420 C410 1.241 . S
O421 Nd392 2.414 . S
O421 Nd393 2.682 . S
O421 C410 1.273 . S
O422 Nd393 2.410 . S
O422 C411 1.251 . S
O423 Nd392 2.424 . S
O423 C411 1.268 . S
H424 C396 0.930 . S
H425 C397 0.929 . S
H426 C399 0.930 . S
H427 C400 0.929 . S
H428 C405 0.930 . S
H429 C406 0.929 . S
H430 C408 0.930 . S
H431 C409 0.929 . S
Nd432 C434 2.836 1_455 S
Nd432 O452 2.500 1_455 S
Nd432 O453 2.492 1_455 S
Nd432 O454 2.487 . S
Nd432 O455 2.682 . S
Nd432 O456 2.410 1_455 S
Nd432 O461 2.414 . S
Nd432 O463 2.424 . S
Nd433 C443 2.836 . S
Nd433 O455 2.414 . S
Nd433 O457 2.424 1_455 S
Nd433 O458 2.500 . S
Nd433 O459 2.492 . S
Nd433 O460 2.487 . S
Nd433 O461 2.682 . S
Nd433 O462 2.410 . S
C434 Nd432 2.836 1_655 S
C434 C435 1.498 . S
C434 O452 1.258 . S
C434 O453 1.239 . S
C435 C434 1.498 . S
C435 C436 1.366 . S
C435 C440 1.407 . S
C436 C435 1.366 . S
C436 C437 1.392 . S
C436 H464 0.930 . S
C437 C436 1.392 . S
C437 C438 1.398 . S
C437 H465 0.929 . S
C438 C437 1.398 . S
C438 C439 1.352 . S
C439 C438 1.352 . S
C439 C440 1.384 . S
C439 H466 0.930 . S
C440 C435 1.407 . S
C440 C439 1.384 . S
C440 H467 0.929 . S
C441 O454 1.241 . S
C441 O455 1.273 . S
C442 O456 1.251 . S
C442 O457 1.268 . S
C443 Nd433 2.836 . S
C443 C444 1.498 . S
C443 O458 1.258 . S
C443 O459 1.239 . S
C444 C443 1.498 . S
C444 C445 1.366 . S
C444 C449 1.407 . S
C445 C444 1.366 . S
C445 C446 1.392 . S
C445 H468 0.930 . S
C446 C445 1.392 . S
C446 C447 1.406 . S
C446 H469 0.929 . S
C447 C446 1.406 . S
C447 C448 1.350 1_556 S
C448 C447 1.350 1_554 S
C448 C449 1.384 1_554 S
C448 H470 0.930 . S
C449 C444 1.407 . S
C449 C448 1.384 1_556 S
C449 H471 0.929 . S
C450 O460 1.241 . S
C450 O461 1.273 . S
C451 O462 1.251 . S
C451 O463 1.268 . S
O452 Nd432 2.500 1_655 S
O452 C434 1.258 . S
O453 Nd432 2.492 1_655 S
O453 C434 1.239 . S
O454 Nd432 2.487 . S
O454 C441 1.241 . S
O455 Nd432 2.682 . S
O455 Nd433 2.414 . S
O455 C441 1.273 . S
O456 Nd432 2.410 1_655 S
O456 C442 1.251 . S
O457 Nd433 2.424 1_655 S
O457 C442 1.268 . S
O458 Nd433 2.500 . S
O458 C443 1.258 . S
O459 Nd433 2.492 . S
O459 C443 1.239 . S
O460 Nd433 2.487 . S
O460 C450 1.241 . S
O461 Nd432 2.414 . S
O461 Nd433 2.682 . S
O461 C450 1.273 . S
O462 Nd433 2.410 . S
O462 C451 1.251 . S
O463 Nd432 2.424 . S
O463 C451 1.268 . S
H464 C436 0.930 . S
H465 C437 0.929 . S
H466 C439 0.930 . S
H467 C440 0.929 . S
H468 C445 0.930 . S
H469 C446 0.929 . S
H470 C448 0.930 . S
H471 C449 0.929 . S
C472 C473 1.348 . S
C472 C474 1.327 . S
C472 H497 0.950 . S
C473 C472 1.348 . S
C473 C489 1.350 1_545 S
C474 C472 1.327 . S
C474 C493 1.405 1_545 S
C474 H498 0.950 . S
C475 C492 1.574 . S
C475 C494 1.368 . S
C475 H499 0.949 . S
H476 C480 0.949 . S
C477 C478 1.349 . S
C477 C479 1.327 . S
C477 H500 0.950 . S
C478 C477 1.349 . S
C478 C490 1.349 1_565 S
C479 C477 1.327 . S
C479 C495 1.429 . S
C479 H501 0.950 . S
C480 H476 0.949 . S
C480 C488 1.574 . S
C480 C496 1.368 1_545 S
H481 C489 0.950 . S
H482 C487 0.950 . S
H483 C488 0.949 . S
H484 C490 0.950 . S
H485 C491 0.950 . S
H486 C492 0.949 . S
C487 H482 0.950 . S
C487 C489 1.327 . S
C487 C493 1.463 . S
C488 C480 1.574 . S
C488 H483 0.949 . S
C488 C494 1.368 1_545 S
C489 C473 1.350 1_565 S
C489 H481 0.950 . S
C489 C487 1.327 . S
C490 C478 1.349 1_545 S
C490 H484 0.950 . S
C490 C491 1.327 . S
C491 H485 0.950 . S
C491 C490 1.327 . S
C491 C495 1.429 1_545 S
C492 C475 1.574 . S
C492 H486 0.949 . S
C492 C496 1.368 . S
C493 C474 1.405 1_565 S
C493 C487 1.463 . S
C493 C494 1.515 . S
C494 C475 1.368 . S
C494 C488 1.368 1_565 S
C494 C493 1.515 . S
C495 C479 1.429 . S
C495 C491 1.429 1_565 S
C495 C496 1.523 . S
C496 C480 1.368 1_565 S
C496 C492 1.368 . S
C496 C495 1.523 . S
H497 C472 0.950 . S
H498 C474 0.950 . S
H499 C475 0.949 . S
H500 C477 0.950 . S
H501 C479 0.950 . S
C502 C503 1.349 . S
C502 C504 1.327 . S
C502 H527 0.950 . S
C503 C502 1.349 . S
C503 C519 1.349 . S
C504 C502 1.327 . S
C504 C523 1.429 . S
C504 H528 0.950 . S
C505 C522 1.574 . S
C505 C524 1.368 . S
C505 H529 0.949 . S
H506 C510 0.949 . S
C507 C508 1.349 . S
C507 C509 1.327 . S
C507 H530 0.950 . S
C508 C507 1.349 . S
C508 C520 1.349 . S
C509 C507 1.327 . S
C509 C525 1.429 . S
C509 H531 0.950 . S
C510 H506 0.949 . S
C510 C518 1.574 . S
C510 C526 1.368 . S
H511 C519 0.950 . S
H512 C517 0.950 . S
H513 C518 0.949 . S
H514 C520 0.950 . S
H515 C521 0.950 . S
H516 C522 0.949 . S
C517 H512 0.950 . S
C517 C519 1.327 . S
C517 C523 1.429 . S
C518 C510 1.574 . S
C518 H513 0.949 . S
C518 C524 1.368 . S
C519 C503 1.349 . S
C519 H511 0.950 . S
C519 C517 1.327 . S
C520 C508 1.349 . S
C520 H514 0.950 . S
C520 C521 1.327 . S
C521 H515 0.950 . S
C521 C520 1.327 . S
C521 C525 1.429 . S
C522 C505 1.574 . S
C522 H516 0.949 . S
C522 C526 1.368 . S
C523 C504 1.429 . S
C523 C517 1.429 . S
C523 C524 1.523 . S
C524 C505 1.368 . S
C524 C518 1.368 . S
C524 C523 1.523 . S
C525 C509 1.429 . S
C525 C521 1.429 . S
C525 C526 1.523 . S
C526 C510 1.368 . S
C526 C522 1.368 . S
C526 C525 1.523 . S
H527 C502 0.950 . S
H528 C504 0.950 . S
H529 C505 0.949 . S
H530 C507 0.950 . S
H531 C509 0.950 . S
C532 C533 1.349 . S
C532 C534 1.327 . S
C532 H557 0.950 . S
C533 C532 1.349 . S
C533 C549 1.349 . S
C534 C532 1.327 . S
C534 C553 1.429 . S
C534 H558 0.950 . S
C535 C552 1.574 . S
C535 C554 1.368 . S
C535 H559 0.949 . S
H536 C540 0.949 . S
C537 C538 1.349 . S
C537 C539 1.327 . S
C537 H560 0.950 . S
C538 C537 1.349 . S
C538 C550 1.349 . S
C539 C537 1.327 . S
C539 C555 1.429 . S
C539 H561 0.950 . S
C540 H536 0.949 . S
C540 C548 1.574 . S
C540 C556 1.368 . S
H541 C549 0.950 . S
H542 C547 0.950 . S
H543 C548 0.949 . S
H544 C550 0.950 . S
H545 C551 0.950 . S
H546 C552 0.949 . S
C547 H542 0.950 . S
C547 C549 1.327 . S
C547 C553 1.429 . S
C548 C540 1.574 . S
C548 H543 0.949 . S
C548 C554 1.368 . S
C549 C533 1.349 . S
C549 H541 0.950 . S
C549 C547 1.327 . S
C550 C538 1.349 . S
C550 H544 0.950 . S
C550 C551 1.327 . S
C551 H545 0.950 . S
C551 C550 1.327 . S
C551 C555 1.429 . S
C552 C535 1.574 . S
C552 H546 0.949 . S
C552 C556 1.368 . S
C553 C534 1.429 . S
C553 C547 1.429 . S
C553 C554 1.523 . S
C554 C535 1.368 . S
C554 C548 1.368 . S
C554 C553 1.523 . S
C555 C539 1.429 . S
C555 C551 1.429 . S
C555 C556 1.523 . S
C556 C540 1.368 . S
C556 C552 1.368 . S
C556 C555 1.523 . S
H557 C532 0.950 . S
H558 C534 0.950 . S
H559 C535 0.949 . S
H560 C537 0.950 . S
H561 C539 0.950 . S
C562 C563 1.349 . S
C562 C564 1.327 . S
C562 H587 0.950 . S
C563 C562 1.349 . S
C563 C579 1.349 . S
C564 C562 1.327 . S
C564 C583 1.429 . S
C564 H588 0.950 . S
C565 C582 1.574 . S
C565 C584 1.368 . S
C565 H589 0.949 . S
H566 C570 0.949 . S
C567 C568 1.349 . S
C567 C569 1.327 . S
C567 H590 0.950 . S
C568 C567 1.349 . S
C568 C580 1.349 . S
C569 C567 1.327 . S
C569 C585 1.429 . S
C569 H591 0.950 . S
C570 H566 0.949 . S
C570 C578 1.574 . S
C570 C586 1.368 . S
H571 C579 0.950 . S
H572 C577 0.950 . S
H573 C578 0.949 . S
H574 C580 0.950 . S
H575 C581 0.950 . S
H576 C582 0.949 . S
C577 H572 0.950 . S
C577 C579 1.327 . S
C577 C583 1.429 . S
C578 C570 1.574 . S
C578 H573 0.949 . S
C578 C584 1.368 . S
C579 C563 1.349 . S
C579 H571 0.950 . S
C579 C577 1.327 . S
C580 C568 1.349 . S
C580 H574 0.950 . S
C580 C581 1.327 . S
C581 H575 0.950 . S
C581 C580 1.327 . S
C581 C585 1.429 . S
C582 C565 1.574 . S
C582 H576 0.949 . S
C582 C586 1.368 . S
C583 C564 1.429 . S
C583 C577 1.429 . S
C583 C584 1.523 . S
C584 C565 1.368 . S
C584 C578 1.368 . S
C584 C583 1.523 . S
C585 C569 1.429 . S
C585 C581 1.429 . S
C585 C586 1.523 . S
C586 C570 1.368 . S
C586 C582 1.368 . S
C586 C585 1.523 . S
H587 C562 0.950 . S
H588 C564 0.950 . S
H589 C565 0.949 . S
H590 C567 0.950 . S
H591 C569 0.950 . S
C592 C593 1.349 . S
C592 C594 1.327 . S
C592 H617 0.950 . S
C593 C592 1.349 . S
C593 C609 1.348 1_545 S
C594 C592 1.327 . S
C594 C613 1.466 . S
C594 H618 0.950 . S
C595 C612 1.574 . S
C595 C614 1.368 1_565 S
C595 H619 0.949 . S
H596 C600 0.949 . S
C597 C598 1.349 1_565 S
C597 C599 1.327 . S
C597 H620 0.950 . S
C598 C597 1.349 1_545 S
C598 C610 1.349 . S
C599 C597 1.327 . S
C599 C615 1.429 1_565 S
C599 H621 0.950 . S
C600 H596 0.949 . S
C600 C608 1.574 . S
C600 C616 1.368 . S
H601 C609 0.950 . S
H602 C607 0.950 . S
H603 C608 0.949 . S
H604 C610 0.950 . S
H605 C611 0.950 . S
H606 C612 0.949 . S
C607 H602 0.950 . S
C607 C609 1.327 . S
C607 C613 1.406 1_565 S
C608 C600 1.574 . S
C608 H603 0.949 . S
C608 C614 1.368 . S
C609 C593 1.348 1_565 S
C609 H601 0.950 . S
C609 C607 1.327 . S
C610 C598 1.349 . S
C610 H604 0.950 . S
C610 C611 1.327 . S
C611 H605 0.950 . S
C611 C610 1.327 . S
C611 C615 1.429 . S
C612 C595 1.574 . S
C612 H606 0.949 . S
C612 C616 1.368 1_565 S
C613 C594 1.466 . S
C613 C607 1.406 1_545 S
C613 C614 1.512 . S
C614 C595 1.368 1_545 S
C614 C608 1.368 . S
C614 C613 1.512 . S
C615 C599 1.429 1_545 S
C615 C611 1.429 . S
C615 C616 1.523 . S
C616 C600 1.368 . S
C616 C612 1.368 1_545 S
C616 C615 1.523 . S
H617 C592 0.950 . S
H618 C594 0.950 . S
H619 C595 0.949 . S
H620 C597 0.950 . S
H621 C599 0.950 . S
C622 C623 1.349 . S
C622 C624 1.327 . S
C622 H647 0.950 . S
C623 C622 1.349 . S
C623 C639 1.349 . S
C624 C622 1.327 . S
C624 C643 1.429 . S
C624 H648 0.950 . S
C625 C642 1.574 . S
C625 C644 1.368 . S
C625 H649 0.949 . S
H626 C630 0.949 . S
C627 C628 1.349 . S
C627 C629 1.327 . S
C627 H650 0.950 . S
C628 C627 1.349 . S
C628 C640 1.349 . S
C629 C627 1.327 . S
C629 C645 1.429 . S
C629 H651 0.950 . S
C630 H626 0.949 . S
C630 C638 1.574 . S
C630 C646 1.368 . S
H631 C639 0.950 . S
H632 C637 0.950 . S
H633 C638 0.949 . S
H634 C640 0.950 . S
H635 C641 0.950 . S
H636 C642 0.949 1_556 S
C637 H632 0.950 . S
C637 C639 1.327 . S
C637 C643 1.429 . S
C638 C630 1.574 . S
C638 H633 0.949 . S
C638 C644 1.368 . S
C639 C623 1.349 . S
C639 H631 0.950 . S
C639 C637 1.327 . S
C640 C628 1.349 . S
C640 H634 0.950 . S
C640 C641 1.327 . S
C641 H635 0.950 . S
C641 C640 1.327 . S
C641 C645 1.429 . S
C642 C625 1.574 . S
C642 H636 0.949 1_554 S
C642 C646 1.368 . S
C643 C624 1.429 . S
C643 C637 1.429 . S
C643 C644 1.523 . S
C644 C625 1.368 . S
C644 C638 1.368 . S
C644 C643 1.523 . S
C645 C629 1.429 . S
C645 C641 1.429 . S
C645 C646 1.523 1_556 S
C646 C630 1.368 . S
C646 C642 1.368 . S
C646 C645 1.523 1_554 S
H647 C622 0.950 . S
H648 C624 0.950 . S
H649 C625 0.949 . S
H650 C627 0.950 . S
H651 C629 0.950 . S
C652 C653 1.349 . S
C652 C654 1.327 . S
C652 H677 0.950 . S
C653 C652 1.349 . S
C653 C669 1.349 . S
C654 C652 1.327 . S
C654 C673 1.429 . S
C654 H678 0.950 . S
C655 C672 1.574 . S
C655 C674 1.368 . S
C655 H679 0.949 . S
H656 C660 0.949 . S
C657 C658 1.349 . S
C657 C659 1.327 . S
C657 H680 0.950 . S
C658 C657 1.349 . S
C658 C670 1.349 . S
C659 C657 1.327 . S
C659 C675 1.429 . S
C659 H681 0.950 . S
C660 H656 0.949 . S
C660 C668 1.574 . S
C660 C676 1.368 . S
H661 C669 0.950 1_554 S
H662 C667 0.950 . S
H663 C668 0.949 . S
H664 C670 0.950 . S
H665 C671 0.950 . S
H666 C672 0.949 . S
C667 H662 0.950 . S
C667 C669 1.327 . S
C667 C673 1.429 . S
C668 C660 1.574 . S
C668 H663 0.949 . S
C668 C674 1.368 . S
C669 C653 1.349 . S
C669 H661 0.950 1_556 S
C669 C667 1.327 . S
C670 C658 1.349 . S
C670 H664 0.950 . S
C670 C671 1.327 . S
C671 H665 0.950 . S
C671 C670 1.327 . S
C671 C675 1.429 . S
C672 C655 1.574 . S
C672 H666 0.949 . S
C672 C676 1.368 . S
C673 C654 1.429 . S
C673 C667 1.429 . S
C673 C674 1.523 . S
C674 C655 1.368 . S
C674 C668 1.368 . S
C674 C673 1.523 . S
C675 C659 1.429 . S
C675 C671 1.429 . S
C675 C676 1.523 . S
C676 C660 1.368 . S
C676 C672 1.368 . S
C676 C675 1.523 . S
H677 C652 0.950 . S
H678 C654 0.950 . S
H679 C655 0.949 . S
H680 C657 0.950 . S
H681 C659 0.950 . S
C682 C683 1.349 . S
C682 C684 1.327 . S
C682 H707 0.950 . S
C683 C682 1.349 . S
C683 C699 1.349 . S
C684 C682 1.327 . S
C684 C703 1.429 . S
C684 H708 0.950 . S
C685 C702 1.574 . S
C685 C704 1.368 . S
C685 H709 0.949 . S
H686 C690 0.949 . S
C687 C688 1.349 . S
C687 C689 1.327 . S
C687 H710 0.950 1_655 S
C688 C687 1.349 . S
C688 C700 1.349 . S
C689 C687 1.327 . S
C689 C705 1.429 . S
C689 H711 0.950 . S
C690 H686 0.949 . S
C690 C698 1.574 . S
C690 C706 1.368 . S
H691 C699 0.950 . S
H692 C697 0.950 . S
H693 C698 0.949 . S
H694 C700 0.950 . S
H695 C701 0.950 . S
H696 C702 0.949 . S
C697 H692 0.950 . S
C697 C699 1.327 . S
C697 C703 1.429 . S
C698 C690 1.574 . S
C698 H693 0.949 . S
C698 C704 1.368 . S
C699 C683 1.349 . S
C699 H691 0.950 . S
C699 C697 1.327 . S
C700 C688 1.349 . S
C700 H694 0.950 . S
C700 C701 1.327 . S
C701 H695 0.950 . S
C701 C700 1.327 . S
C701 C705 1.429 . S
C702 C685 1.574 . S
C702 H696 0.949 . S
C702 C706 1.368 . S
C703 C684 1.429 . S
C703 C697 1.429 . S
C703 C704 1.523 . S
C704 C685 1.368 . S
C704 C698 1.368 . S
C704 C703 1.523 . S
C705 C689 1.429 . S
C705 C701 1.429 . S
C705 C706 1.523 . S
C706 C690 1.368 . S
C706 C702 1.368 . S
C706 C705 1.523 . S
H707 C682 0.950 . S
H708 C684 0.950 . S
H709 C685 0.949 . S
H710 C687 0.950 1_455 S
H711 C689 0.950 . S
C712 C713 1.349 . S
C712 C714 1.327 . S
C712 H737 0.950 . S
C713 C712 1.349 . S
C713 C729 1.349 . S
C714 C712 1.327 . S
C714 C733 1.429 . S
C714 H738 0.950 . S
C715 C732 1.574 . S
C715 C734 1.368 . S
C715 H739 0.949 . S
H716 C720 0.949 . S
C717 C718 1.349 . S
C717 C719 1.327 . S
C717 H740 0.950 . S
C718 C717 1.349 . S
C718 C730 1.349 . S
C719 C717 1.327 . S
C719 C735 1.429 . S
C719 H741 0.950 . S
C720 H716 0.949 . S
C720 C728 1.574 . S
C720 C736 1.368 . S
H721 C729 0.950 . S
H722 C727 0.950 . S
H723 C728 0.949 . S
H724 C730 0.950 . S
H725 C731 0.950 . S
H726 C732 0.949 . S
C727 H722 0.950 . S
C727 C729 1.327 . S
C727 C733 1.429 . S
C728 C720 1.574 . S
C728 H723 0.949 . S
C728 C734 1.368 . S
C729 C713 1.349 . S
C729 H721 0.950 . S
C729 C727 1.327 . S
C730 C718 1.349 . S
C730 H724 0.950 . S
C730 C731 1.327 . S
C731 H725 0.950 . S
C731 C730 1.327 . S
C731 C735 1.429 . S
C732 C715 1.574 . S
C732 H726 0.949 . S
C732 C736 1.368 . S
C733 C714 1.429 . S
C733 C727 1.429 . S
C733 C734 1.523 . S
C734 C715 1.368 . S
C734 C728 1.368 . S
C734 C733 1.523 . S
C735 C719 1.429 . S
C735 C731 1.429 . S
C735 C736 1.523 . S
C736 C720 1.368 . S
C736 C732 1.368 . S
C736 C735 1.523 . S
H737 C712 0.950 . S
H738 C714 0.950 . S
H739 C715 0.949 . S
H740 C717 0.950 . S
H741 C719 0.950 . S
C742 C743 1.351 . S
C742 C744 1.327 . S
C742 H767 0.950 . S
C743 C742 1.351 . S
C743 C759 1.339 1_545 S
C744 C742 1.327 . S
C744 C763 1.429 1_545 S
C744 H768 0.950 . S
C745 C762 1.574 . S
C745 C764 1.368 . S
C745 H769 0.949 . S
H746 C750 0.947 1_545 S
C747 C748 1.349 . S
C747 C749 1.327 . S
C747 H770 0.950 . S
C748 C747 1.349 . S
C748 C760 1.349 . S
C749 C747 1.327 . S
C749 C765 1.429 . S
C749 H771 0.950 . S
C750 H746 0.947 1_565 S
C750 C758 1.560 1_565 S
C750 C766 1.386 . S
H751 C759 0.950 . S
H752 C757 0.950 . S
H753 C758 0.949 . S
H754 C760 0.950 . S
H755 C761 0.945 1_545 S
H756 C762 0.949 . S
C757 H752 0.950 . S
C757 C759 1.327 . S
C757 C763 1.429 . S
C758 C750 1.560 1_545 S
C758 H753 0.949 . S
C758 C764 1.368 1_545 S
C759 C743 1.339 1_565 S
C759 H751 0.950 . S
C759 C757 1.327 . S
C760 C748 1.349 . S
C760 H754 0.950 . S
C760 C761 1.327 . S
C761 H755 0.945 1_565 S
C761 C760 1.327 . S
C761 C765 1.429 . S
C762 C745 1.574 . S
C762 H756 0.949 . S
C762 C766 1.368 . S
C763 C744 1.429 1_565 S
C763 C757 1.429 . S
C763 C764 1.523 . S
C764 C745 1.368 . S
C764 C758 1.368 1_565 S
C764 C763 1.523 . S
C765 C749 1.429 . S
C765 C761 1.429 . S
C765 C766 1.523 . S
C766 C750 1.386 . S
C766 C762 1.368 . S
C766 C765 1.523 . S
H767 C742 0.950 . S
H768 C744 0.950 . S
H769 C745 0.949 . S
H770 C747 0.950 . S
H771 C749 0.950 . S
C772 C773 1.349 . S
C772 C774 1.327 . S
C772 H797 0.950 . S
C773 C772 1.349 . S
C773 C789 1.349 . S
C774 C772 1.327 . S
C774 C793 1.429 . S
C774 H798 0.950 . S
C775 C792 1.574 . S
C775 C794 1.368 . S
C775 H799 0.949 . S
H776 C780 0.949 . S
C777 C778 1.349 . S
C777 C779 1.327 . S
C777 H800 0.950 . S
C778 C777 1.349 . S
C778 C790 1.349 . S
C779 C777 1.327 . S
C779 C795 1.429 . S
C779 H801 0.950 . S
C780 H776 0.949 . S
C780 C788 1.574 . S
C780 C796 1.368 . S
H781 C789 0.950 . S
H782 C787 0.950 . S
H783 C788 0.949 . S
H784 C790 0.950 . S
H785 C791 0.950 . S
H786 C792 0.949 . S
C787 H782 0.950 . S
C787 C789 1.327 . S
C787 C793 1.429 . S
C788 C780 1.574 . S
C788 H783 0.949 . S
C788 C794 1.368 . S
C789 C773 1.349 . S
C789 H781 0.950 . S
C789 C787 1.327 . S
C790 C778 1.349 . S
C790 H784 0.950 . S
C790 C791 1.327 . S
C791 H785 0.950 . S
C791 C790 1.327 . S
C791 C795 1.429 . S
C792 C775 1.574 . S
C792 H786 0.949 . S
C792 C796 1.368 . S
C793 C774 1.429 . S
C793 C787 1.429 . S
C793 C794 1.523 . S
C794 C775 1.368 . S
C794 C788 1.368 . S
C794 C793 1.523 . S
C795 C779 1.429 . S
C795 C791 1.429 . S
C795 C796 1.523 . S
C796 C780 1.368 . S
C796 C792 1.368 . S
C796 C795 1.523 . S
H797 C772 0.950 . S
H798 C774 0.950 . S
H799 C775 0.949 . S
H800 C777 0.950 . S
H801 C779 0.950 . S
C802 C803 1.349 . S
C802 C804 1.327 . S
C802 H827 0.950 . S
C803 C802 1.349 . S
C803 C819 1.349 . S
C804 C802 1.327 . S
C804 C823 1.429 . S
C804 H828 0.950 . S
C805 C822 1.574 . S
C805 C824 1.368 . S
C805 H829 0.949 . S
H806 C810 0.949 . S
C807 C808 1.349 . S
C807 C809 1.327 . S
C807 H830 0.950 . S
C808 C807 1.349 . S
C808 C820 1.349 . S
C809 C807 1.327 . S
C809 C825 1.429 . S
C809 H831 0.950 . S
C810 H806 0.949 . S
C810 C818 1.574 . S
C810 C826 1.368 . S
H811 C819 0.950 . S
H812 C817 0.950 . S
H813 C818 0.949 . S
H814 C820 0.950 . S
H815 C821 0.950 . S
H816 C822 0.949 . S
C817 H812 0.950 . S
C817 C819 1.327 . S
C817 C823 1.429 . S
C818 C810 1.574 . S
C818 H813 0.949 . S
C818 C824 1.368 . S
C819 C803 1.349 . S
C819 H811 0.950 . S
C819 C817 1.327 . S
C820 C808 1.349 . S
C820 H814 0.950 . S
C820 C821 1.327 . S
C821 H815 0.950 . S
C821 C820 1.327 . S
C821 C825 1.429 . S
C822 C805 1.574 . S
C822 H816 0.949 . S
C822 C826 1.368 . S
C823 C804 1.429 . S
C823 C817 1.429 . S
C823 C824 1.523 . S
C824 C805 1.368 . S
C824 C818 1.368 . S
C824 C823 1.523 . S
C825 C809 1.429 . S
C825 C821 1.429 . S
C825 C826 1.523 . S
C826 C810 1.368 . S
C826 C822 1.368 . S
C826 C825 1.523 . S
H827 C802 0.950 . S
H828 C804 0.950 . S
H829 C805 0.949 . S
H830 C807 0.950 . S
H831 C809 0.950 . S
C832 C833 1.349 . S
C832 C834 1.327 . S
C832 H857 0.950 . S
C833 C832 1.349 . S
C833 C849 1.349 . S
C834 C832 1.327 . S
C834 C853 1.429 . S
C834 H858 0.950 . S
C835 C852 1.574 . S
C835 C854 1.368 . S
C835 H859 0.949 . S
H836 C840 0.949 . S
C837 C838 1.349 . S
C837 C839 1.327 . S
C837 H860 0.950 1_655 S
C838 C837 1.349 . S
C838 C850 1.349 . S
C839 C837 1.327 . S
C839 C855 1.429 . S
C839 H861 0.950 . S
C840 H836 0.949 . S
C840 C848 1.574 . S
C840 C856 1.368 . S
H841 C849 0.950 . S
H842 C847 0.950 . S
H843 C848 0.949 . S
H844 C850 0.950 . S
H845 C851 0.950 . S
H846 C852 0.949 . S
C847 H842 0.950 . S
C847 C849 1.327 . S
C847 C853 1.429 . S
C848 C840 1.574 . S
C848 H843 0.949 . S
C848 C854 1.368 . S
C849 C833 1.349 . S
C849 H841 0.950 . S
C849 C847 1.327 . S
C850 C838 1.349 . S
C850 H844 0.950 . S
C850 C851 1.327 . S
C851 H845 0.950 . S
C851 C850 1.327 . S
C851 C855 1.429 . S
C852 C835 1.574 . S
C852 H846 0.949 . S
C852 C856 1.368 . S
C853 C834 1.429 . S
C853 C847 1.429 . S
C853 C854 1.523 . S
C854 C835 1.368 . S
C854 C848 1.368 . S
C854 C853 1.523 . S
C855 C839 1.429 . S
C855 C851 1.429 . S
C855 C856 1.523 . S
C856 C840 1.368 . S
C856 C852 1.368 . S
C856 C855 1.523 . S
H857 C832 0.950 . S
H858 C834 0.950 . S
H859 C835 0.949 . S
H860 C837 0.950 1_455 S
H861 C839 0.950 . S
C862 C863 1.338 1_545 S
C862 C864 1.327 . S
C862 H887 0.950 . S
C863 C862 1.338 1_565 S
C863 C879 1.356 . S
C864 C862 1.327 . S
C864 C883 1.429 . S
C864 H888 0.950 . S
C865 C882 1.574 . S
C865 C884 1.368 1_565 S
C865 H889 0.949 . S
H866 C870 0.949 . S
C867 C868 1.349 . S
C867 C869 1.341 . S
C867 H890 0.950 1_545 S
C868 C867 1.349 . S
C868 C880 1.349 . S
C869 C867 1.341 . S
C869 C885 1.448 . S
C869 H891 0.917 1_545 S
C870 H866 0.949 . S
C870 C878 1.574 . S
C870 C886 1.368 . S
H871 C879 0.950 . S
H872 C877 0.950 . S
H873 C878 0.949 . S
H874 C880 0.950 . S
H875 C881 0.950 . S
H876 C882 0.949 . S
C877 H872 0.950 . S
C877 C879 1.327 . S
C877 C883 1.429 1_565 S
C878 C870 1.574 . S
C878 H873 0.949 . S
C878 C884 1.368 . S
C879 C863 1.356 . S
C879 H871 0.950 . S
C879 C877 1.327 . S
C880 C868 1.349 . S
C880 H874 0.950 . S
C880 C881 1.327 . S
C881 H875 0.950 . S
C881 C880 1.327 . S
C881 C885 1.429 . S
C882 C865 1.574 . S
C882 H876 0.949 . S
C882 C886 1.368 1_565 S
C883 C864 1.429 . S
C883 C877 1.429 1_545 S
C883 C884 1.523 . S
C884 C865 1.368 1_545 S
C884 C878 1.368 . S
C884 C883 1.523 . S
C885 C869 1.448 . S
C885 C881 1.429 . S
C885 C886 1.523 . S
C886 C870 1.368 . S
C886 C882 1.368 1_545 S
C886 C885 1.523 . S
H887 C862 0.950 . S
H888 C864 0.950 . S
H889 C865 0.949 . S
H890 C867 0.950 1_565 S
H891 C869 0.917 1_565 S
C892 C893 1.349 . S
C892 C894 1.327 . S
C892 H917 0.950 . S
C893 C892 1.349 . S
C893 C909 1.349 . S
C894 C892 1.327 . S
C894 C913 1.429 . S
C894 H918 0.950 . S
C895 C912 1.574 1_554 S
C895 C914 1.368 . S
C895 H919 0.949 . S
H896 C900 0.949 . S
C897 C898 1.349 . S
C897 C899 1.327 . S
C897 H920 0.950 . S
C898 C897 1.349 . S
C898 C910 1.349 . S
C899 C897 1.327 . S
C899 C915 1.429 . S
C899 H921 0.950 . S
C900 H896 0.949 . S
C900 C908 1.574 . S
C900 C916 1.368 . S
H901 C909 0.950 . S
H902 C907 0.950 . S
H903 C908 0.949 . S
H904 C910 0.950 1_554 S
H905 C911 0.950 . S
H906 C912 0.949 . S
C907 H902 0.950 . S
C907 C909 1.327 . S
C907 C913 1.429 . S
C908 C900 1.574 . S
C908 H903 0.949 . S
C908 C914 1.368 . S
C909 C893 1.349 . S
C909 H901 0.950 . S
C909 C907 1.327 . S
C910 C898 1.349 . S
C910 H904 0.950 1_556 S
C910 C911 1.327 1_556 S
C911 H905 0.950 . S
C911 C910 1.327 1_554 S
C911 C915 1.429 1_554 S
C912 C895 1.574 1_556 S
C912 H906 0.949 . S
C912 C916 1.368 1_556 S
C913 C894 1.429 . S
C913 C907 1.429 . S
C913 C914 1.523 . S
C914 C895 1.368 . S
C914 C908 1.368 . S
C914 C913 1.523 . S
C915 C899 1.429 . S
C915 C911 1.429 1_556 S
C915 C916 1.523 1_556 S
C916 C900 1.368 . S
C916 C912 1.368 1_554 S
C916 C915 1.523 1_554 S
H917 C892 0.950 . S
H918 C894 0.950 . S
H919 C895 0.949 . S
H920 C897 0.950 . S
H921 C899 0.950 . S
C922 C923 1.349 . S
C922 C924 1.327 . S
C922 H947 0.950 . S
C923 C922 1.349 . S
C923 C939 1.349 . S
C924 C922 1.327 . S
C924 C943 1.429 . S
C924 H948 0.950 . S
C925 C942 1.574 . S
C925 C944 1.368 . S
C925 H949 0.949 . S
H926 C930 0.949 . S
C927 C928 1.349 . S
C927 C929 1.327 . S
C927 H950 0.950 . S
C928 C927 1.349 . S
C928 C940 1.349 . S
C929 C927 1.327 . S
C929 C945 1.429 . S
C929 H951 0.950 . S
C930 H926 0.949 . S
C930 C938 1.574 . S
C930 C946 1.368 . S
H931 C939 0.950 . S
H932 C937 0.950 . S
H933 C938 0.949 . S
H934 C940 0.950 . S
H935 C941 0.950 . S
H936 C942 0.949 . S
C937 H932 0.950 . S
C937 C939 1.327 . S
C937 C943 1.429 . S
C938 C930 1.574 . S
C938 H933 0.949 . S
C938 C944 1.368 . S
C939 C923 1.349 . S
C939 H931 0.950 . S
C939 C937 1.327 . S
C940 C928 1.349 . S
C940 H934 0.950 . S
C940 C941 1.327 . S
C941 H935 0.950 . S
C941 C940 1.327 . S
C941 C945 1.429 . S
C942 C925 1.574 . S
C942 H936 0.949 . S
C942 C946 1.368 . S
C943 C924 1.429 . S
C943 C937 1.429 . S
C943 C944 1.523 . S
C944 C925 1.368 . S
C944 C938 1.368 . S
C944 C943 1.523 . S
C945 C929 1.429 . S
C945 C941 1.429 . S
C945 C946 1.523 . S
C946 C930 1.368 . S
C946 C942 1.368 . S
C946 C945 1.523 . S
H947 C922 0.950 . S
H948 C924 0.950 . S
H949 C925 0.949 . S
H950 C927 0.950 . S
H951 C929 0.950 . S
C952 C953 1.349 . S
C952 C954 1.327 . S
C952 H977 0.950 . S
C953 C952 1.349 . S
C953 C969 1.349 . S
C954 C952 1.327 . S
C954 C973 1.429 . S
C954 H978 0.950 . S
C955 C972 1.574 . S
C955 C974 1.368 . S
C955 H979 0.949 . S
H956 C960 0.949 . S
C957 C958 1.349 . S
C957 C959 1.327 . S
C957 H980 0.950 . S
C958 C957 1.349 . S
C958 C970 1.349 . S
C959 C957 1.327 . S
C959 C975 1.429 . S
C959 H981 0.950 . S
C960 H956 0.949 . S
C960 C968 1.574 . S
C960 C976 1.368 . S
H961 C969 0.950 . S
H962 C967 0.950 . S
H963 C968 0.949 . S
H964 C970 0.950 1_556 S
H965 C971 0.950 . S
H966 C972 0.949 . S
C967 H962 0.950 . S
C967 C969 1.327 . S
C967 C973 1.429 . S
C968 C960 1.574 . S
C968 H963 0.949 . S
C968 C974 1.368 . S
C969 C953 1.349 . S
C969 H961 0.950 . S
C969 C967 1.327 . S
C970 C958 1.349 . S
C970 H964 0.950 1_554 S
C970 C971 1.327 . S
C971 H965 0.950 . S
C971 C970 1.327 . S
C971 C975 1.429 . S
C972 C955 1.574 . S
C972 H966 0.949 . S
C972 C976 1.368 . S
C973 C954 1.429 . S
C973 C967 1.429 . S
C973 C974 1.523 . S
C974 C955 1.368 . S
C974 C968 1.368 . S
C974 C973 1.523 . S
C975 C959 1.429 . S
C975 C971 1.429 . S
C975 C976 1.523 . S
C976 C960 1.368 . S
C976 C972 1.368 . S
C976 C975 1.523 . S
H977 C952 0.950 . S
H978 C954 0.950 . S
H979 C955 0.949 . S
H980 C957 0.950 . S
H981 C959 0.950 . S
C982 C983 1.349 1_565 S
C982 C984 1.327 . S
C982 H1007 0.950 . S
C983 C982 1.349 1_545 S
C983 C999 1.349 . S
C984 C982 1.327 . S
C984 C1003 1.429 1_565 S
C984 H1008 0.950 . S
C985 C1002 1.574 . S
C985 C1004 1.368 . S
C985 H1009 0.949 . S
H986 C990 0.949 . S
C987 C988 1.349 . S
C987 C989 1.327 . S
C987 H1010 0.950 . S
C988 C987 1.349 . S
C988 C1000 1.349 . S
C989 C987 1.327 . S
C989 C1005 1.429 . S
C989 H1011 0.950 . S
C990 H986 0.949 . S
C990 C998 1.574 . S
C990 C1006 1.368 1_565 S
H991 C999 0.950 . S
H992 C997 0.950 . S
H993 C998 0.949 . S
H994 C1000 0.950 1_565 S
H995 C1001 0.910 1_565 S
H996 C1002 0.949 . S
C997 H992 0.950 . S
C997 C999 1.327 . S
C997 C1003 1.429 . S
C998 C990 1.574 . S
C998 H993 0.949 . S
C998 C1004 1.368 1_565 S
C999 C983 1.349 . S
C999 H991 0.950 . S
C999 C997 1.327 . S
C1000 C988 1.349 . S
C1000 H994 0.950 1_545 S
C1000 C1001 1.323 . S
C1001 H995 0.910 1_545 S
C1001 C1000 1.323 . S
C1001 C1005 1.475 . S
C1002 C985 1.574 . S
C1002 H996 0.949 . S
C1002 C1006 1.368 . S
C1003 C984 1.429 1_545 S
C1003 C997 1.429 . S
C1003 C1004 1.523 . S
C1004 C985 1.368 . S
C1004 C998 1.368 1_545 S
C1004 C1003 1.523 . S
C1005 C989 1.429 . S
C1005 C1001 1.475 . S
C1005 C1006 1.523 . S
C1006 C990 1.368 1_545 S
C1006 C1002 1.368 . S
C1006 C1005 1.523 . S
H1007 C982 0.950 . S
H1008 C984 0.950 . S
H1009 C985 0.949 . S
H1010 C987 0.950 . S
H1011 C989 0.950 . S
C1012 C1013 1.349 1_556 S
C1012 C1014 1.327 . S
C1012 H1037 0.950 . S
C1013 C1012 1.349 1_554 S
C1013 C1029 1.349 . S
C1014 C1012 1.327 . S
C1014 C1033 1.429 . S
C1014 H1038 0.950 . S
C1015 C1032 1.574 . S
C1015 C1034 1.368 . S
C1015 H1039 0.949 1_556 S
H1016 C1020 0.949 . S
C1017 C1018 1.349 . S
C1017 C1019 1.327 . S
C1017 H1040 0.950 . S
C1018 C1017 1.349 . S
C1018 C1030 1.349 . S
C1019 C1017 1.327 . S
C1019 C1035 1.429 . S
C1019 H1041 0.950 . S
C1020 H1016 0.949 . S
C1020 C1028 1.574 . S
C1020 C1036 1.368 . S
H1021 C1029 0.950 . S
H1022 C1027 0.950 . S
H1023 C1028 0.949 . S
H1024 C1030 0.950 . S
H1025 C1031 0.950 . S
H1026 C1032 0.949 . S
C1027 H1022 0.950 . S
C1027 C1029 1.327 . S
C1027 C1033 1.429 1_554 S
C1028 C1020 1.574 . S
C1028 H1023 0.949 . S
C1028 C1034 1.368 . S
C1029 C1013 1.349 . S
C1029 H1021 0.950 . S
C1029 C1027 1.327 . S
C1030 C1018 1.349 . S
C1030 H1024 0.950 . S
C1030 C1031 1.327 . S
C1031 H1025 0.950 . S
C1031 C1030 1.327 . S
C1031 C1035 1.429 . S
C1032 C1015 1.574 . S
C1032 H1026 0.949 . S
C1032 C1036 1.368 . S
C1033 C1014 1.429 . S
C1033 C1027 1.429 1_556 S
C1033 C1034 1.523 . S
C1034 C1015 1.368 . S
C1034 C1028 1.368 . S
C1034 C1033 1.523 . S
C1035 C1019 1.429 . S
C1035 C1031 1.429 . S
C1035 C1036 1.523 . S
C1036 C1020 1.368 . S
C1036 C1032 1.368 . S
C1036 C1035 1.523 . S
H1037 C1012 0.950 . S
H1038 C1014 0.950 . S
H1039 C1015 0.949 1_554 S
H1040 C1017 0.950 . S
H1041 C1019 0.950 . S
C1042 C1043 1.349 . S
C1042 C1044 1.327 . S
C1042 H1067 0.950 . S
C1043 C1042 1.349 . S
C1043 C1059 1.349 . S
C1044 C1042 1.327 . S
C1044 C1063 1.429 . S
C1044 H1068 0.950 . S
C1045 C1062 1.574 . S
C1045 C1064 1.368 . S
C1045 H1069 0.949 . S
H1046 C1050 0.949 . S
C1047 C1048 1.349 . S
C1047 C1049 1.327 . S
C1047 H1070 0.950 1_554 S
C1048 C1047 1.349 . S
C1048 C1060 1.349 . S
C1049 C1047 1.327 . S
C1049 C1065 1.429 . S
C1049 H1071 0.950 . S
C1050 H1046 0.949 . S
C1050 C1058 1.574 . S
C1050 C1066 1.368 . S
H1051 C1059 0.950 . S
H1052 C1057 0.950 . S
H1053 C1058 0.949 . S
H1054 C1060 0.950 . S
H1055 C1061 0.950 . S
H1056 C1062 0.949 . S
C1057 H1052 0.950 . S
C1057 C1059 1.327 . S
C1057 C1063 1.429 . S
C1058 C1050 1.574 . S
C1058 H1053 0.949 . S
C1058 C1064 1.368 . S
C1059 C1043 1.349 . S
C1059 H1051 0.950 . S
C1059 C1057 1.327 . S
C1060 C1048 1.349 . S
C1060 H1054 0.950 . S
C1060 C1061 1.327 . S
C1061 H1055 0.950 . S
C1061 C1060 1.327 . S
C1061 C1065 1.429 . S
C1062 C1045 1.574 . S
C1062 H1056 0.949 . S
C1062 C1066 1.368 . S
C1063 C1044 1.429 . S
C1063 C1057 1.429 . S
C1063 C1064 1.523 . S
C1064 C1045 1.368 . S
C1064 C1058 1.368 . S
C1064 C1063 1.523 . S
C1065 C1049 1.429 . S
C1065 C1061 1.429 . S
C1065 C1066 1.523 . S
C1066 C1050 1.368 . S
C1066 C1062 1.368 . S
C1066 C1065 1.523 . S
H1067 C1042 0.950 . S
H1068 C1044 0.950 . S
H1069 C1045 0.949 . S
H1070 C1047 0.950 1_556 S
H1071 C1049 0.950 . S
C1072 C1073 1.349 . S
C1072 C1074 1.327 . S
C1072 H1097 0.950 . S
C1073 C1072 1.349 . S
C1073 C1089 1.349 . S
C1074 C1072 1.327 . S
C1074 C1093 1.429 . S
C1074 H1098 0.950 . S
C1075 C1092 1.574 . S
C1075 C1094 1.368 . S
C1075 H1099 0.949 . S
H1076 C1080 0.949 . S
C1077 C1078 1.349 . S
C1077 C1079 1.327 . S
C1077 H1100 0.950 . S
C1078 C1077 1.349 . S
C1078 C1090 1.349 . S
C1079 C1077 1.327 . S
C1079 C1095 1.429 . S
C1079 H1101 0.950 . S
C1080 H1076 0.949 . S
C1080 C1088 1.574 . S
C1080 C1096 1.368 . S
H1081 C1089 0.950 . S
H1082 C1087 0.950 . S
H1083 C1088 0.949 . S
H1084 C1090 0.950 . S
H1085 C1091 0.950 . S
H1086 C1092 0.949 . S
C1087 H1082 0.950 . S
C1087 C1089 1.327 . S
C1087 C1093 1.429 . S
C1088 C1080 1.574 . S
C1088 H1083 0.949 . S
C1088 C1094 1.368 . S
C1089 C1073 1.349 . S
C1089 H1081 0.950 . S
C1089 C1087 1.327 . S
C1090 C1078 1.349 . S
C1090 H1084 0.950 . S
C1090 C1091 1.327 . S
C1091 H1085 0.950 . S
C1091 C1090 1.327 . S
C1091 C1095 1.429 . S
C1092 C1075 1.574 . S
C1092 H1086 0.949 . S
C1092 C1096 1.368 . S
C1093 C1074 1.429 . S
C1093 C1087 1.429 . S
C1093 C1094 1.523 . S
C1094 C1075 1.368 . S
C1094 C1088 1.368 . S
C1094 C1093 1.523 . S
C1095 C1079 1.429 . S
C1095 C1091 1.429 . S
C1095 C1096 1.523 . S
C1096 C1080 1.368 . S
C1096 C1092 1.368 . S
C1096 C1095 1.523 . S
H1097 C1072 0.950 . S
H1098 C1074 0.950 . S
H1099 C1075 0.949 . S
H1100 C1077 0.950 . S
H1101 C1079 0.950 . S
C1102 C1103 1.349 1_545 S
C1102 C1104 1.327 . S
C1102 H1127 0.950 . S
C1103 C1102 1.349 1_565 S
C1103 C1119 1.349 . S
C1104 C1102 1.327 . S
C1104 C1123 1.429 1_545 S
C1104 H1128 0.950 . S
C1105 C1122 1.574 . S
C1105 C1124 1.368 . S
C1105 H1129 0.949 . S
H1106 C1110 0.949 . S
C1107 C1108 1.349 . S
C1107 C1109 1.327 . S
C1107 H1130 0.950 . S
C1108 C1107 1.349 . S
C1108 C1120 1.349 . S
C1109 C1107 1.327 . S
C1109 C1125 1.429 . S
C1109 H1131 0.950 . S
C1110 H1106 0.949 . S
C1110 C1118 1.574 . S
C1110 C1126 1.368 1_545 S
H1111 C1119 0.950 . S
H1112 C1117 0.950 . S
H1113 C1118 0.949 . S
H1114 C1120 0.950 1_545 S
H1115 C1121 0.919 1_545 S
H1116 C1122 0.949 . S
C1117 H1112 0.950 . S
C1117 C1119 1.327 . S
C1117 C1123 1.429 . S
C1118 C1110 1.574 . S
C1118 H1113 0.949 . S
C1118 C1124 1.368 1_545 S
C1119 C1103 1.349 . S
C1119 H1111 0.950 . S
C1119 C1117 1.327 . S
C1120 C1108 1.349 . S
C1120 H1114 0.950 1_565 S
C1120 C1121 1.324 . S
C1121 H1115 0.919 1_565 S
C1121 C1120 1.324 . S
C1121 C1125 1.464 . S
C1122 C1105 1.574 . S
C1122 H1116 0.949 . S
C1122 C1126 1.368 . S
C1123 C1104 1.429 1_565 S
C1123 C1117 1.429 . S
C1123 C1124 1.523 . S
C1124 C1105 1.368 . S
C1124 C1118 1.368 1_565 S
C1124 C1123 1.523 . S
C1125 C1109 1.429 . S
C1125 C1121 1.464 . S
C1125 C1126 1.523 . S
C1126 C1110 1.368 1_565 S
C1126 C1122 1.368 . S
C1126 C1125 1.523 . S
H1127 C1102 0.950 . S
H1128 C1104 0.950 . S
H1129 C1105 0.949 . S
H1130 C1107 0.950 . S
H1131 C1109 0.950 . S
C1132 C1133 1.349 . S
C1132 C1134 1.327 . S
C1132 H1157 0.950 . S
C1133 C1132 1.349 . S
C1133 C1149 1.349 . S
C1134 C1132 1.327 . S
C1134 C1153 1.429 . S
C1134 H1158 0.950 . S
C1135 C1152 1.574 . S
C1135 C1154 1.368 . S
C1135 H1159 0.949 . S
H1136 C1140 0.949 . S
C1137 C1138 1.349 . S
C1137 C1139 1.327 . S
C1137 H1160 0.950 . S
C1138 C1137 1.349 . S
C1138 C1150 1.349 . S
C1139 C1137 1.327 . S
C1139 C1155 1.429 . S
C1139 H1161 0.950 . S
C1140 H1136 0.949 . S
C1140 C1148 1.574 . S
C1140 C1156 1.368 . S
H1141 C1149 0.950 . S
H1142 C1147 0.950 . S
H1143 C1148 0.949 . S
H1144 C1150 0.950 . S
H1145 C1151 0.950 . S
H1146 C1152 0.949 . S
C1147 H1142 0.950 . S
C1147 C1149 1.327 . S
C1147 C1153 1.429 . S
C1148 C1140 1.574 . S
C1148 H1143 0.949 . S
C1148 C1154 1.368 . S
C1149 C1133 1.349 . S
C1149 H1141 0.950 . S
C1149 C1147 1.327 . S
C1150 C1138 1.349 . S
C1150 H1144 0.950 . S
C1150 C1151 1.327 . S
C1151 H1145 0.950 . S
C1151 C1150 1.327 . S
C1151 C1155 1.429 . S
C1152 C1135 1.574 . S
C1152 H1146 0.949 . S
C1152 C1156 1.368 . S
C1153 C1134 1.429 . S
C1153 C1147 1.429 . S
C1153 C1154 1.523 . S
C1154 C1135 1.368 . S
C1154 C1148 1.368 . S
C1154 C1153 1.523 . S
C1155 C1139 1.429 . S
C1155 C1151 1.429 . S
C1155 C1156 1.523 . S
C1156 C1140 1.368 . S
C1156 C1152 1.368 . S
C1156 C1155 1.523 . S
H1157 C1132 0.950 . S
H1158 C1134 0.950 . S
H1159 C1135 0.949 . S
H1160 C1137 0.950 . S
H1161 C1139 0.950 . S
C1162 C1163 1.349 . S
C1162 C1164 1.327 . S
C1162 H1187 0.950 . S
C1163 C1162 1.349 . S
C1163 C1179 1.349 . S
C1164 C1162 1.327 . S
C1164 C1183 1.429 . S
C1164 H1188 0.950 . S
C1165 C1182 1.574 . S
C1165 C1184 1.368 . S
C1165 H1189 0.949 . S
H1166 C1170 0.949 . S
C1167 C1168 1.349 . S
C1167 C1169 1.327 . S
C1167 H1190 0.950 . S
C1168 C1167 1.349 . S
C1168 C1180 1.349 . S
C1169 C1167 1.327 . S
C1169 C1185 1.429 . S
C1169 H1191 0.950 . S
C1170 H1166 0.949 . S
C1170 C1178 1.574 . S
C1170 C1186 1.368 . S
H1171 C1179 0.950 . S
H1172 C1177 0.950 . S
H1173 C1178 0.949 . S
H1174 C1180 0.950 . S
H1175 C1181 0.950 . S
H1176 C1182 0.949 . S
C1177 H1172 0.950 . S
C1177 C1179 1.327 . S
C1177 C1183 1.429 . S
C1178 C1170 1.574 . S
C1178 H1173 0.949 . S
C1178 C1184 1.368 . S
C1179 C1163 1.349 . S
C1179 H1171 0.950 . S
C1179 C1177 1.327 . S
C1180 C1168 1.349 . S
C1180 H1174 0.950 . S
C1180 C1181 1.327 . S
C1181 H1175 0.950 . S
C1181 C1180 1.327 . S
C1181 C1185 1.429 . S
C1182 C1165 1.574 . S
C1182 H1176 0.949 . S
C1182 C1186 1.368 . S
C1183 C1164 1.429 . S
C1183 C1177 1.429 . S
C1183 C1184 1.523 . S
C1184 C1165 1.368 . S
C1184 C1178 1.368 . S
C1184 C1183 1.523 . S
C1185 C1169 1.429 . S
C1185 C1181 1.429 . S
C1185 C1186 1.523 . S
C1186 C1170 1.368 . S
C1186 C1182 1.368 . S
C1186 C1185 1.523 . S
H1187 C1162 0.950 . S
H1188 C1164 0.950 . S
H1189 C1165 0.949 . S
H1190 C1167 0.950 . S
H1191 C1169 0.950 . S
C473 C255 0.813 1_545 S
C478 C321 0.805 . S
C508 C361 1.760 . S
C503 C294 1.790 . S
C538 C410 1.636 . S
C533 C177 1.656 . S
C568 C441 2.127 . S
C563 C216 2.133 . S
C598 C330 0.805 . S
C593 C99 0.821 1_545 S
C623 C138 1.775 . S
C628 C370 1.764 . S
C653 C21 1.640 . S
C658 C401 1.637 . S
C683 C60 2.156 1_556 S
C688 C450 2.127 1_655 S
C718 C331 1.090 . S
C713 C196 0.979 . S
C748 C371 0.434 . S
C743 C235 0.564 1_545 S
C778 C407 0.405 . S
C773 C289 0.454 . S
C803 C157 1.135 . S
C808 C451 1.229 . S
C833 C40 0.992 . S
C838 C322 1.096 1_655 S
C868 C362 0.434 . S
C863 C79 0.567 . S
C898 C398 0.405 . S
C893 C133 0.447 . S
C923 C1 1.129 . S
C928 C442 1.229 . S
C953 C211 2.113 . S
C958 C327 2.218 1_554 S
C983 C250 1.672 . S
C988 C367 1.715 1_554 S
C1018 C411 2.767 . S
C1013 C274 2.523 . S
C1048 C447 1.772 1_554 S
C1043 C172 1.701 . S
C1073 C55 2.109 . S
C1078 C318 2.229 . S
C1108 C358 1.714 . S
C1103 C94 1.673 1_565 S
C1138 C402 2.767 . S
C1133 C118 2.515 . S
C1163 C16 1.706 . S
C1168 C438 1.778 . S
