# Generated by pormake.
# Topology rtl, (3,6)-cn, num edge types: 1
# Building blocks:
#     Node 0, Type 0, BuildingBlock: MIDCAF_clean_linker_0, # of connection points: 3
#     Node 1, Type 0, BuildingBlock: MIDCAF_clean_linker_0, # of connection points: 3
#     Node 2, Type 0, BuildingBlock: MIDCAF_clean_linker_0, # of connection points: 3
#     Node 3, Type 0, BuildingBlock: MIDCAF_clean_linker_0, # of connection points: 3
#     Node 4, Type 1, BuildingBlock: CIFDUS_clean_sbu_1, # of connection points: 6
#     Node 5, Type 1, BuildingBlock: CIFDUS_clean_sbu_1, # of connection points: 6
#     Edge 6, Type (0, 1), BuildingBlock: XIVTED_clean_linker_0, # of connection points: 2
#     Edge 7, Type (0, 1), BuildingBlock: XIVTED_clean_linker_0, # of connection points: 2
#     Edge 8, Type (0, 1), BuildingBlock: XIVTED_clean_linker_0, # of connection points: 2
#     Edge 9, Type (0, 1), BuildingBlock: XIVTED_clean_linker_0, # of connection points: 2
#     Edge 10, Type (0, 1), BuildingBlock: XIVTED_clean_linker_0, # of connection points: 2
#     Edge 11, Type (0, 1), BuildingBlock: XIVTED_clean_linker_0, # of connection points: 2
#     Edge 12, Type (0, 1), BuildingBlock: XIVTED_clean_linker_0, # of connection points: 2
#     Edge 13, Type (0, 1), BuildingBlock: XIVTED_clean_linker_0, # of connection points: 2
#     Edge 14, Type (0, 1), BuildingBlock: XIVTED_clean_linker_0, # of connection points: 2
#     Edge 15, Type (0, 1), BuildingBlock: XIVTED_clean_linker_0, # of connection points: 2
#     Edge 16, Type (0, 1), BuildingBlock: XIVTED_clean_linker_0, # of connection points: 2
#     Edge 17, Type (0, 1), BuildingBlock: XIVTED_clean_linker_0, # of connection points: 2
# Relax obj value: 0.029
# Max RMSD: 0.064
# Mean RMSD: 0.049
data_MOF--net-rtl--node1-CIFDUS_clean_sbu_1--node2-MIDCAF_clean_linker_0--edge1-XIVTED_clean_linker_0
_symmetry_space_group_name_H-M    P1
_symmetry_Int_Tables_number       1
_symmetry_cell_setting            triclinic
loop_
_symmetry_equiv_pos_as_xyz
'x, y, z'
_cell_length_a     37.213447
_cell_length_b     42.325416
_cell_length_c     29.681027
_cell_angle_alpha  89.807423
_cell_angle_beta   97.700642
_cell_angle_gamma 89.985646
loop_
_atom_site_label
_atom_site_type_symbol
_atom_site_fract_x
_atom_site_fract_y
_atom_site_fract_z
_atom_type_partial_charge
C0 C 0.21658 0.95503 0.20557 0.0
C1 C 0.2313 0.94555 0.24973 0.0
C2 C 0.26096 0.92463 0.25459 0.0
C3 C 0.27449 0.91245 0.21644 0.0
H4 H 0.32233 0.82955 0.17827 0.0
H5 H 0.35921 0.78153 0.18713 0.0
H6 H 0.38189 0.79116 0.04894 0.0
H7 H 0.34477 0.83889 0.03971 0.0
H8 H 0.26316 0.86192 0.97606 0.0
H9 H 0.2326 0.87345 0.89983 0.0
H10 H 0.20121 0.96499 0.94474 0.0
H11 H 0.23122 0.95335 0.02165 0.0
H12 H 0.21748 0.95008 0.13389 0.0
H13 H 0.19356 0.9709 0.20037 0.0
H14 H 0.27355 0.91728 0.28799 0.0
H15 H 0.29687 0.8959 0.2218 0.0
N16 N 0.29527 0.88113 0.13767 0.0
N17 N 0.29103 0.87458 0.05878 0.0
N18 N 0.257 0.91415 0.0888 0.0
C19 C 0.3055 0.86566 0.1014 0.0
C20 C 0.26681 0.89876 0.05207 0.0
C21 C 0.27121 0.90551 0.13182 0.0
C22 C 0.33033 0.83801 0.10814 0.0
C23 C 0.33543 0.82163 0.14987 0.0
C24 C 0.35641 0.79403 0.15495 0.0
C25 C 0.37336 0.78254 0.11873 0.0
C26 C 0.36937 0.79954 0.07758 0.0
C27 C 0.3479 0.8268 0.07222 0.0
C28 C 0.24958 0.90667 0.0052 0.0
C29 C 0.24986 0.88458 0.96986 0.0
C30 C 0.23217 0.89105 0.92618 0.0
C31 C 0.21437 0.91999 0.91646 0.0
C32 C 0.21477 0.94247 0.95133 0.0
C33 C 0.23186 0.93575 0.99537 0.0
C34 C 0.25885 0.92089 0.17221 0.0
C35 C 0.2302 0.9429 0.16731 0.0
C36 C 0.68205 0.59517 0.45236 0.0
C37 C 0.69282 0.60638 0.41151 0.0
C38 C 0.72154 0.62823 0.41411 0.0
C39 C 0.73897 0.63848 0.45646 0.0
H40 H 0.79798 0.71371 0.51825 0.0
H41 H 0.83204 0.76296 0.52404 0.0
H42 H 0.8556 0.75067 0.66935 0.0
H43 H 0.82127 0.70122 0.66391 0.0
H44 H 0.77141 0.65274 0.71178 0.0
H45 H 0.74817 0.63257 0.77914 0.0
H46 H 0.68184 0.56535 0.69629 0.0
H47 H 0.70568 0.58492 0.62909 0.0
H48 H 0.69009 0.596 0.52489 0.0
H49 H 0.65956 0.5789 0.45199 0.0
H50 H 0.73085 0.63716 0.38347 0.0
H51 H 0.76098 0.65528 0.45719 0.0
N52 N 0.7686 0.66343 0.54589 0.0
N53 N 0.77451 0.66033 0.62559 0.0
N54 N 0.73731 0.62439 0.58114 0.0
C55 C 0.78324 0.67461 0.58732 0.0
C56 C 0.75162 0.6351 0.62283 0.0
C57 C 0.74566 0.63827 0.54247 0.0
C58 C 0.80645 0.70345 0.59065 0.0
C59 C 0.81048 0.72127 0.55152 0.0
C60 C 0.82987 0.74966 0.55482 0.0
C61 C 0.84614 0.7609 0.59722 0.0
C62 C 0.84337 0.74261 0.6362 0.0
C63 C 0.82356 0.71431 0.63302 0.0
C64 C 0.74016 0.62083 0.66466 0.0
C65 C 0.75219 0.63342 0.70786 0.0
C66 C 0.73867 0.62193 0.74659 0.0
C67 C 0.71272 0.59754 0.74326 0.0
C68 C 0.70195 0.58398 0.70037 0.0
C69 C 0.71547 0.59545 0.66163 0.0
C70 C 0.72816 0.62705 0.49722 0.0
C71 C 0.69954 0.60517 0.49446 0.0
C72 C 0.81569 0.08129 0.88207 0.0
C73 C 0.80597 0.09471 0.83872 0.0
C74 C 0.78224 0.1208 0.8346 0.0
C75 C 0.7695 0.13367 0.87294 0.0
H76 H 0.69849 0.20113 0.91533 0.0
H77 H 0.66358 0.25025 0.90834 0.0
H78 H 0.68971 0.26562 0.05265 0.0
H79 H 0.72449 0.21669 0.05992 0.0
H80 H 0.75858 0.15663 0.12246 0.0
H81 H 0.78991 0.14088 0.19688 0.0
H82 H 0.86259 0.08247 0.13153 0.0
H83 H 0.83153 0.09801 0.05736 0.0
H84 H 0.81177 0.08343 0.95317 0.0
H85 H 0.83422 0.06146 0.88683 0.0
H86 H 0.77369 0.13151 0.80173 0.0
H87 H 0.75184 0.1541 0.86845 0.0
N88 N 0.74649 0.16129 0.9544 0.0
N89 N 0.75242 0.16506 0.03401 0.0
N90 N 0.78338 0.1254 0.99985 0.0
C91 C 0.73789 0.17601 0.99229 0.0
C92 C 0.77515 0.1397 0.03812 0.0
C93 C 0.76916 0.13588 0.95787 0.0
C94 C 0.71467 0.2049 0.98817 0.0
C95 C 0.69671 0.21487 0.94567 0.0
C96 C 0.67655 0.24299 0.94162 0.0
C97 C 0.6742 0.26205 0.97983 0.0
C98 C 0.6915 0.25178 0.0224 0.0
C99 C 0.71129 0.22354 0.02657 0.0
C100 C 0.79261 0.12884 0.08368 0.0
C101 C 0.78115 0.14033 0.1239 0.0
C102 C 0.79899 0.13119 0.16661 0.0
C103 C 0.82899 0.11068 0.17014 0.0
C104 C 0.83995 0.09871 0.13001 0.0
C105 C 0.82191 0.10751 0.08741 0.0
C106 C 0.78019 0.12083 0.91648 0.0
C107 C 0.80299 0.09413 0.92035 0.0
C108 C 0.30546 0.44396 0.62731 0.0
C109 C 0.30531 0.42302 0.66419 0.0
C110 C 0.28789 0.39371 0.65665 0.0
C111 C 0.27082 0.38559 0.61325 0.0
H112 H 0.17736 0.33808 0.54606 0.0
H113 H 0.13783 0.29214 0.53875 0.0
H114 H 0.15485 0.28166 0.39858 0.0
H115 H 0.19448 0.32817 0.4056 0.0
H116 H 0.22065 0.39428 0.3607 0.0
H117 H 0.24291 0.41499 0.29325 0.0
H118 H 0.32634 0.46666 0.37772 0.0
H119 H 0.30344 0.44658 0.44549 0.0
H120 H 0.28985 0.45228 0.55613 0.0
H121 H 0.31884 0.46667 0.63202 0.0
H122 H 0.28705 0.37721 0.68447 0.0
H123 H 0.25762 0.3628 0.60871 0.0
N124 N 0.22994 0.37313 0.52428 0.0
N125 N 0.22471 0.37893 0.44509 0.0
N126 N 0.26354 0.41223 0.49234 0.0
C127 C 0.21497 0.36386 0.48207 0.0
C128 C 0.24886 0.40322 0.44981 0.0
C129 C 0.25422 0.39728 0.52979 0.0
C130 C 0.18932 0.3368 0.47653 0.0
C131 C 0.1726 0.32622 0.51353 0.0
C132 C 0.14969 0.29997 0.50924 0.0
C133 C 0.14317 0.28333 0.46803 0.0
C134 C 0.1595 0.29398 0.43077 0.0
C135 C 0.18207 0.32066 0.43483 0.0
C136 C 0.26052 0.41833 0.40877 0.0
C137 C 0.24356 0.41027 0.36509 0.0
C138 C 0.25646 0.42207 0.32624 0.0
C139 C 0.28682 0.44216 0.32986 0.0
C140 C 0.30278 0.45141 0.37351 0.0
C141 C 0.28975 0.43968 0.41248 0.0
C142 C 0.27136 0.40636 0.57616 0.0
C143 C 0.28896 0.43564 0.58377 0.0
O144 O 0.98557 0.03487 0.49112 0.0
Mn145 Mn 0.01788 0.01324 0.54666 0.0
O146 O 0.96984 0.99616 0.44012 0.0
Mn147 Mn 0.99828 0.9647 0.47017 0.0
O148 O 0.05065 0.98897 0.60046 0.0
O149 O 0.03787 0.05827 0.56415 0.0
Mn150 Mn 0.0422 0.05411 0.62457 0.0
O151 O 0.97482 0.01926 0.58541 0.0
O152 O 0.07728 0.02593 0.64618 0.0
O153 O 0.06084 0.00727 0.50706 0.0
O154 O 0.04659 0.96482 0.46278 0.0
O155 O 0.05808 0.0932 0.61818 0.0
O156 O 0.99732 0.05004 0.64365 0.0
C157 C 0.98099 0.94276 0.52804 0.0
C158 C 0.96847 0.02471 0.45325 0.0
C159 C 0.07455 0.99759 0.63347 0.0
C160 C 0.05051 0.08672 0.57528 0.0
C161 C 0.97149 0.03444 0.62205 0.0
C162 C 0.06872 0.98616 0.47867 0.0
O163 O 0.99651 0.97026 0.52866 0.0
O164 O 0.97714 0.92878 0.48898 0.0
O165 O 0.53326 0.5304 0.09517 0.0
Mn166 Mn 0.4997 0.515 0.03618 0.0
O167 O 0.53954 0.48703 0.13954 0.0
Mn168 Mn 0.51404 0.45935 0.09914 0.0
O169 O 0.46544 0.49815 0.97821 0.0
O170 O 0.47955 0.5599 0.02887 0.0
Mn171 Mn 0.47445 0.56798 0.9699 0.0
O172 O 0.54123 0.52581 0.99634 0.0
O173 O 0.44056 0.54065 0.94122 0.0
O174 O 0.45707 0.50575 0.07533 0.0
O175 O 0.46529 0.45667 0.102 0.0
O176 O 0.45926 0.60392 0.9947 0.0
O177 O 0.52009 0.567 0.95229 0.0
C178 C 0.53597 0.44226 0.04283 0.0
C179 C 0.54514 0.51628 0.13284 0.0
C180 C 0.4425 0.51096 0.94708 0.0
C181 C 0.46734 0.58852 0.03247 0.0
C182 C 0.54494 0.54726 0.96631 0.0
C183 C 0.44583 0.48115 0.0948 0.0
O184 O 0.52112 0.47024 0.04344 0.0
O185 O 0.53658 0.4253 0.07935 0.0
H186 H 0.15822 0.22479 0.43475 0.0
H187 H 0.03147 0.14603 0.59032 0.0
H188 H 0.07695 0.27554 0.49615 0.0
H189 H 0.07492 0.08913 0.49008 0.0
H190 H 0.04672 0.19326 0.55153 0.0
H191 H 0.12669 0.17499 0.44715 0.0
C192 C 0.13325 0.22553 0.44974 0.0
C193 C 0.12064 0.25422 0.46555 0.0
C194 C 0.05207 0.17063 0.53683 0.0
C195 C 0.0848 0.19762 0.48 0.0
C196 C 0.04334 0.14346 0.5591 0.0
C197 C 0.05192 0.11351 0.54343 0.0
C198 C 0.07005 0.16831 0.49844 0.0
C199 C 0.06769 0.11179 0.5031 0.0
C200 C 0.11533 0.19712 0.45682 0.0
C201 C 0.08816 0.25388 0.48458 0.0
N202 N 0.07698 0.13898 0.48231 0.0
N203 N 0.07177 0.22606 0.49189 0.0
H204 H 0.44038 0.76981 0.09454 0.0
H205 H 0.41025 0.58802 0.08069 0.0
H206 H 0.35202 0.7259 0.15143 0.0
H207 H 0.51453 0.63044 0.07473 0.0
H208 H 0.39101 0.63584 0.11713 0.0
H209 H 0.47006 0.71827 0.09364 0.0
C210 C 0.42743 0.74933 0.10729 0.0
C211 C 0.39357 0.7521 0.12277 0.0
C212 C 0.41863 0.63428 0.10959 0.0
C213 C 0.42725 0.69285 0.12159 0.0
C214 C 0.42985 0.60666 0.08961 0.0
C215 C 0.4641 0.60525 0.07496 0.0
C216 C 0.44165 0.66076 0.11387 0.0
C217 C 0.48801 0.63051 0.08596 0.0
C218 C 0.44449 0.71992 0.10712 0.0
C219 C 0.37816 0.72481 0.1393 0.0
N220 N 0.47602 0.65761 0.10344 0.0
N221 N 0.39477 0.69625 0.13751 0.0
H222 H 0.82197 0.81673 0.558 0.0
H223 H 0.01165 0.89942 0.58907 0.0
H224 H 0.91303 0.77605 0.6438 0.0
H225 H 0.91223 0.94929 0.54577 0.0
H226 H 0.97682 0.85681 0.61883 0.0
H227 H 0.8544 0.86689 0.55867 0.0
C228 C 0.8488 0.81843 0.57717 0.0
C229 C 0.86498 0.79204 0.60042 0.0
C230 C 0.96264 0.87759 0.60441 0.0
C231 C 0.90248 0.84965 0.60144 0.0
C232 C 0.98262 0.90221 0.58818 0.0
C233 C 0.96478 0.92806 0.56545 0.0
C234 C 0.92455 0.87858 0.59664 0.0
C235 C 0.92702 0.92998 0.56371 0.0
C236 C 0.86721 0.84719 0.57792 0.0
C237 C 0.8996 0.79578 0.62531 0.0
N238 N 0.90808 0.90521 0.57791 0.0
N239 N 0.91746 0.82389 0.62456 0.0
H240 H 0.60713 0.27529 0.9322 0.0
H241 H 0.60575 0.4511 0.02994 0.0
H242 H 0.69623 0.31898 0.01741 0.0
H243 H 0.50887 0.40032 0.97846 0.0
H244 H 0.64223 0.40886 0.00274 0.0
H245 H 0.57392 0.32558 0.92974 0.0
C246 C 0.61989 0.29554 0.94992 0.0
C247 C 0.65437 0.29279 0.97551 0.0
C248 C 0.61295 0.40743 0.99587 0.0
C249 C 0.61669 0.35048 0.9724 0.0
C250 C 0.5921 0.43196 0.01042 0.0
C251 C 0.55425 0.42933 0.00603 0.0
C252 C 0.59573 0.38006 0.9769 0.0
C253 C 0.538 0.40342 0.98192 0.0
C254 C 0.60092 0.32421 0.94852 0.0
C255 C 0.66949 0.31983 0.99793 0.0
N256 N 0.5588 0.37944 0.96909 0.0
N257 N 0.65055 0.34741 0.99599 0.0
H258 H 0.20236 0.00375 0.2674 0.0
H259 H 0.11721 0.93855 0.48237 0.0
H260 H 0.22112 0.9104 0.3248 0.0
H261 H 0.09724 0.03278 0.4298 0.0
H262 H 0.16359 0.93159 0.43245 0.0
H263 H 0.17051 0.01786 0.33169 0.0
C264 C 0.19998 0.98625 0.29352 0.0
C265 C 0.2144 0.95573 0.29032 0.0
C266 C 0.14979 0.95412 0.43236 0.0
C267 C 0.17819 0.9719 0.36436 0.0
C268 C 0.1236 0.9582 0.46133 0.0
C269 C 0.10372 0.98638 0.46049 0.0
C270 C 0.15567 0.97813 0.40137 0.0
C271 C 0.11243 0.01088 0.43191 0.0
C272 C 0.182 0.99442 0.33042 0.0
C273 C 0.21093 0.93431 0.32577 0.0
N274 N 0.13735 0.00601 0.40283 0.0
N275 N 0.19302 0.94271 0.36091 0.0
H276 H 0.69236 0.63561 0.80982 0.0
H277 H 0.58441 0.50158 0.92803 0.0
H278 H 0.69165 0.53792 0.76839 0.0
H279 H 0.58116 0.60126 0.95633 0.0
H280 H 0.63144 0.51188 0.87847 0.0
H281 H 0.65932 0.62107 0.87199 0.0
C282 C 0.68583 0.61095 0.81415 0.0
C283 C 0.69493 0.58803 0.78352 0.0
C284 C 0.62087 0.53137 0.89627 0.0
C285 C 0.65597 0.57112 0.85482 0.0
C286 C 0.59439 0.52542 0.92489 0.0
C287 C 0.57898 0.55064 0.94617 0.0
C288 C 0.63188 0.56267 0.88933 0.0
C289 C 0.59233 0.58117 0.94043 0.0
C290 C 0.6666 0.60265 0.84964 0.0
C291 C 0.68481 0.55652 0.79069 0.0
N292 N 0.61768 0.58632 0.91241 0.0
N293 N 0.66569 0.54902 0.82538 0.0
H294 H 0.90258 0.10888 0.19453 0.0
H295 H 0.89519 0.02825 0.43556 0.0
H296 H 0.8021 0.09346 0.24871 0.0
H297 H 0.99303 0.06723 0.39564 0.0
H298 H 0.86012 0.0532 0.36895 0.0
H299 H 0.936 0.09374 0.26803 0.0
C300 C 0.88753 0.10227 0.22191 0.0
C301 C 0.84944 0.10229 0.2153 0.0
C302 C 0.88914 0.05697 0.37524 0.0
C303 C 0.88765 0.08502 0.2999 0.0
C304 C 0.90906 0.04301 0.41347 0.0
C305 C 0.94684 0.0464 0.4215 0.0
C306 C 0.90731 0.07369 0.3441 0.0
C307 C 0.9638 0.06477 0.39112 0.0
C308 C 0.90665 0.09388 0.26403 0.0
C309 C 0.83143 0.09394 0.2523 0.0
N310 N 0.94398 0.0774 0.35343 0.0
N311 N 0.85066 0.08536 0.29283 0.0
H312 H 0.35239 0.38811 0.72437 0.0
H313 H 0.37438 0.52603 0.90988 0.0
H314 H 0.29839 0.47841 0.70913 0.0
H315 H 0.45478 0.4527 0.90928 0.0
H316 H 0.33824 0.50127 0.84519 0.0
H317 H 0.38304 0.40493 0.79919 0.0
C318 C 0.34677 0.41134 0.73694 0.0
C319 C 0.32301 0.43201 0.71035 0.0
C320 C 0.3636 0.49033 0.85929 0.0
C321 C 0.35756 0.45115 0.7958 0.0
C322 C 0.38421 0.50437 0.89644 0.0
C323 C 0.41792 0.49166 0.91463 0.0
C324 C 0.37668 0.46332 0.83961 0.0
C325 C 0.42898 0.46329 0.89622 0.0
C326 C 0.36434 0.42092 0.77948 0.0
C327 C 0.31682 0.46187 0.72815 0.0
N328 N 0.40861 0.45024 0.85919 0.0
N329 N 0.3339 0.47047 0.76964 0.0
H330 H 0.67505 0.63956 0.33062 0.0
H331 H 0.5493 0.50034 0.22148 0.0
H332 H 0.66752 0.54688 0.38986 0.0
H333 H 0.58648 0.57166 0.13424 0.0
H334 H 0.58603 0.52362 0.28609 0.0
H335 H 0.63922 0.62031 0.26021 0.0
C336 C 0.66621 0.61518 0.32886 0.0
C337 C 0.67384 0.59502 0.36686 0.0
C338 C 0.58647 0.53425 0.25292 0.0
C339 C 0.63238 0.57322 0.2868 0.0
C340 C 0.56534 0.52097 0.21575 0.0
C341 C 0.56527 0.53359 0.17192 0.0
C342 C 0.60804 0.56066 0.24697 0.0
C343 C 0.58594 0.56099 0.16733 0.0
C344 C 0.64564 0.60432 0.28871 0.0
C345 C 0.66151 0.5637 0.36234 0.0
N346 N 0.60679 0.57358 0.20449 0.0
N347 N 0.64125 0.55398 0.32347 0.0
H348 H 0.82116 0.03307 0.81729 0.0
H349 H 0.92731 0.08488 0.61176 0.0
H350 H 0.82854 0.1288 0.76869 0.0
H351 H 0.93801 0.99261 0.67356 0.0
H352 H 0.87963 0.09761 0.65794 0.0
H353 H 0.85375 0.01487 0.75577 0.0
C354 C 0.82944 0.05029 0.79366 0.0
C355 C 0.82228 0.08265 0.79869 0.0
C356 C 0.89169 0.07427 0.66078 0.0
C357 C 0.85922 0.06177 0.72765 0.0
C358 C 0.91855 0.06688 0.63396 0.0
C359 C 0.93609 0.03754 0.63851 0.0
C360 C 0.88262 0.05229 0.69298 0.0
C361 C 0.92462 0.01531 0.66864 0.0
C362 C 0.84787 0.0398 0.75836 0.0
C363 C 0.83303 0.10365 0.76622 0.0
N364 N 0.89883 0.02327 0.69522 0.0
N365 N 0.85112 0.09288 0.73245 0.0
H366 H 0.29421 0.40585 0.25553 0.0
H367 H 0.41874 0.52916 0.14276 0.0
H368 H 0.31765 0.4992 0.30984 0.0
H369 H 0.39814 0.43329 0.09811 0.0
H370 H 0.37359 0.52283 0.1957 0.0
H371 H 0.32432 0.41937 0.19041 0.0
C372 C 0.30515 0.42944 0.2535 0.0
C373 C 0.30326 0.45138 0.2885 0.0
C374 C 0.37842 0.50344 0.17357 0.0
C375 C 0.33884 0.46693 0.21372 0.0
C376 C 0.40381 0.5072 0.14297 0.0
C377 C 0.41218 0.48165 0.11619 0.0
C378 C 0.36136 0.474 0.17703 0.0
C379 C 0.39256 0.45352 0.11832 0.0
C380 C 0.32266 0.43711 0.21626 0.0
C381 C 0.31884 0.48135 0.28408 0.0
N382 N 0.36844 0.45036 0.14849 0.0
N383 N 0.33618 0.48817 0.24756 0.0
H384 H 0.16401 0.88334 0.86477 0.0
H385 H 0.14693 0.00208 0.65327 0.0
H386 H 0.22166 0.97154 0.86265 0.0
H387 H 0.05662 0.94437 0.67944 0.0
H388 H 0.18374 0.97873 0.71928 0.0
H389 H 0.13227 0.89528 0.78833 0.0
C390 C 0.17014 0.90508 0.84804 0.0
C391 C 0.19535 0.92659 0.87007 0.0
C392 C 0.15615 0.97059 0.71007 0.0
C393 C 0.15986 0.93995 0.78268 0.0
C394 C 0.13529 0.98354 0.67203 0.0
C395 C 0.09873 0.97509 0.66092 0.0
C396 C 0.1404 0.94897 0.73746 0.0
C397 C 0.08482 0.95125 0.68664 0.0
C398 C 0.15202 0.91185 0.8046 0.0
C399 C 0.20222 0.95447 0.84706 0.0
N400 N 0.10557 0.93928 0.7243 0.0
N401 N 0.18472 0.96025 0.80461 0.0
loop_
_geom_bond_atom_site_label_1
_geom_bond_atom_site_label_2
_geom_bond_distance
_geom_bond_site_symmetry_2
_ccdc_geom_bond_type
C0 C1 1.384 . S
C0 H13 0.947 . S
C0 C35 1.382 . S
C1 C0 1.384 . S
C1 C2 1.378 . S
C2 C1 1.378 . S
C2 C3 1.378 . S
C2 H14 0.952 . S
C3 C2 1.378 . S
C3 H15 0.950 . S
C3 C34 1.383 . S
H4 C23 0.947 . S
H5 C24 0.946 . S
H6 C26 0.953 . S
H7 C27 0.945 . S
H8 C29 0.952 . S
H9 C30 0.949 . S
H10 C32 0.950 . S
H11 C33 0.948 . S
H12 C35 0.951 . S
H13 C0 0.947 . S
H14 C2 0.952 . S
H15 C3 0.950 . S
N16 C19 1.382 . S
N16 C21 1.363 . S
N17 C19 1.371 . S
N17 C20 1.372 . S
N18 C20 1.361 . S
N18 C21 1.377 . S
C19 N16 1.382 . S
C19 N17 1.371 . S
C19 C22 1.480 . S
C20 N17 1.372 . S
C20 N18 1.361 . S
C20 C28 1.457 . S
C21 N16 1.363 . S
C21 N18 1.377 . S
C21 C34 1.479 . S
C22 C19 1.480 . S
C22 C23 1.383 . S
C22 C27 1.385 . S
C23 H4 0.947 . S
C23 C22 1.383 . S
C23 C24 1.388 . S
C24 H5 0.946 . S
C24 C23 1.388 . S
C24 C25 1.384 . S
C25 C24 1.384 . S
C25 C26 1.377 . S
C26 H6 0.953 . S
C26 C25 1.377 . S
C26 C27 1.369 . S
C27 H7 0.945 . S
C27 C22 1.385 . S
C27 C26 1.369 . S
C28 C20 1.457 . S
C28 C29 1.372 1_554 S
C28 C33 1.364 . S
C29 H8 0.952 . S
C29 C28 1.372 1_556 S
C29 C30 1.389 . S
C30 H9 0.949 . S
C30 C29 1.389 . S
C30 C31 1.387 . S
C31 C30 1.387 . S
C31 C32 1.372 . S
C32 H10 0.950 . S
C32 C31 1.372 . S
C32 C33 1.379 1_556 S
C33 H11 0.948 . S
C33 C28 1.364 . S
C33 C32 1.379 1_554 S
C34 C3 1.383 . S
C34 C21 1.479 . S
C34 C35 1.398 . S
C35 C0 1.382 . S
C35 H12 0.951 . S
C35 C34 1.398 . S
C36 C37 1.384 . S
C36 H49 0.947 . S
C36 C71 1.382 . S
C37 C36 1.384 . S
C37 C38 1.378 . S
C38 C37 1.378 . S
C38 C39 1.378 . S
C38 H50 0.952 . S
C39 C38 1.378 . S
C39 H51 0.950 . S
C39 C70 1.383 . S
H40 C59 0.947 . S
H41 C60 0.946 . S
H42 C62 0.953 . S
H43 C63 0.945 . S
H44 C65 0.952 . S
H45 C66 0.949 . S
H46 C68 0.950 . S
H47 C69 0.948 . S
H48 C71 0.951 . S
H49 C36 0.947 . S
H50 C38 0.952 . S
H51 C39 0.950 . S
N52 C55 1.382 . S
N52 C57 1.363 . S
N53 C55 1.371 . S
N53 C56 1.372 . S
N54 C56 1.361 . S
N54 C57 1.377 . S
C55 N52 1.382 . S
C55 N53 1.371 . S
C55 C58 1.480 . S
C56 N53 1.372 . S
C56 N54 1.361 . S
C56 C64 1.457 . S
C57 N52 1.363 . S
C57 N54 1.377 . S
C57 C70 1.479 . S
C58 C55 1.480 . S
C58 C59 1.383 . S
C58 C63 1.385 . S
C59 H40 0.947 . S
C59 C58 1.383 . S
C59 C60 1.388 . S
C60 H41 0.946 . S
C60 C59 1.388 . S
C60 C61 1.384 . S
C61 C60 1.384 . S
C61 C62 1.377 . S
C62 H42 0.953 . S
C62 C61 1.377 . S
C62 C63 1.369 . S
C63 H43 0.945 . S
C63 C58 1.385 . S
C63 C62 1.369 . S
C64 C56 1.457 . S
C64 C65 1.372 . S
C64 C69 1.364 . S
C65 H44 0.952 . S
C65 C64 1.372 . S
C65 C66 1.389 . S
C66 H45 0.949 . S
C66 C65 1.389 . S
C66 C67 1.387 . S
C67 C66 1.387 . S
C67 C68 1.372 . S
C68 H46 0.950 . S
C68 C67 1.372 . S
C68 C69 1.379 . S
C69 H47 0.948 . S
C69 C64 1.364 . S
C69 C68 1.379 . S
C70 C39 1.383 . S
C70 C57 1.479 . S
C70 C71 1.398 . S
C71 C36 1.382 . S
C71 H48 0.951 . S
C71 C70 1.398 . S
C72 C73 1.384 . S
C72 H85 0.947 . S
C72 C107 1.382 . S
C73 C72 1.384 . S
C73 C74 1.378 . S
C74 C73 1.378 . S
C74 C75 1.378 . S
C74 H86 0.952 . S
C75 C74 1.378 . S
C75 H87 0.950 . S
C75 C106 1.383 . S
H76 C95 0.947 . S
H77 C96 0.946 . S
H78 C98 0.953 . S
H79 C99 0.945 . S
H80 C101 0.952 . S
H81 C102 0.949 . S
H82 C104 0.950 . S
H83 C105 0.948 . S
H84 C107 0.951 . S
H85 C72 0.947 . S
H86 C74 0.952 . S
H87 C75 0.950 . S
N88 C91 1.382 1_556 S
N88 C93 1.363 . S
N89 C91 1.371 . S
N89 C92 1.372 . S
N90 C92 1.361 . S
N90 C93 1.377 1_554 S
C91 N88 1.382 1_554 S
C91 N89 1.371 . S
C91 C94 1.480 1_554 S
C92 N89 1.372 . S
C92 N90 1.361 . S
C92 C100 1.457 . S
C93 N88 1.363 . S
C93 N90 1.377 1_556 S
C93 C106 1.479 . S
C94 C91 1.480 1_556 S
C94 C95 1.383 . S
C94 C99 1.385 1_556 S
C95 H76 0.947 . S
C95 C94 1.383 . S
C95 C96 1.388 . S
C96 H77 0.946 . S
C96 C95 1.388 . S
C96 C97 1.384 . S
C97 C96 1.384 . S
C97 C98 1.377 1_556 S
C98 H78 0.953 . S
C98 C97 1.377 1_554 S
C98 C99 1.369 . S
C99 H79 0.945 . S
C99 C94 1.385 1_554 S
C99 C98 1.369 . S
C100 C92 1.457 . S
C100 C101 1.372 . S
C100 C105 1.364 . S
C101 H80 0.952 . S
C101 C100 1.372 . S
C101 C102 1.389 . S
C102 H81 0.949 . S
C102 C101 1.389 . S
C102 C103 1.387 . S
C103 C102 1.387 . S
C103 C104 1.372 . S
C104 H82 0.950 . S
C104 C103 1.372 . S
C104 C105 1.379 . S
C105 H83 0.948 . S
C105 C100 1.364 . S
C105 C104 1.379 . S
C106 C75 1.383 . S
C106 C93 1.479 . S
C106 C107 1.398 . S
C107 C72 1.382 . S
C107 H84 0.951 . S
C107 C106 1.398 . S
C108 C109 1.384 . S
C108 H121 0.947 . S
C108 C143 1.382 . S
C109 C108 1.384 . S
C109 C110 1.378 . S
C110 C109 1.378 . S
C110 C111 1.378 . S
C110 H122 0.952 . S
C111 C110 1.378 . S
C111 H123 0.950 . S
C111 C142 1.383 . S
H112 C131 0.947 . S
H113 C132 0.946 . S
H114 C134 0.953 . S
H115 C135 0.945 . S
H116 C137 0.952 . S
H117 C138 0.949 . S
H118 C140 0.950 . S
H119 C141 0.948 . S
H120 C143 0.951 . S
H121 C108 0.947 . S
H122 C110 0.952 . S
H123 C111 0.950 . S
N124 C127 1.382 . S
N124 C129 1.363 . S
N125 C127 1.371 . S
N125 C128 1.372 . S
N126 C128 1.361 . S
N126 C129 1.377 . S
C127 N124 1.382 . S
C127 N125 1.371 . S
C127 C130 1.480 . S
C128 N125 1.372 . S
C128 N126 1.361 . S
C128 C136 1.457 . S
C129 N124 1.363 . S
C129 N126 1.377 . S
C129 C142 1.479 . S
C130 C127 1.480 . S
C130 C131 1.383 . S
C130 C135 1.385 . S
C131 H112 0.947 . S
C131 C130 1.383 . S
C131 C132 1.388 . S
C132 H113 0.946 . S
C132 C131 1.388 . S
C132 C133 1.384 . S
C133 C132 1.384 . S
C133 C134 1.377 . S
C134 H114 0.953 . S
C134 C133 1.377 . S
C134 C135 1.369 . S
C135 H115 0.945 . S
C135 C130 1.385 . S
C135 C134 1.369 . S
C136 C128 1.457 . S
C136 C137 1.372 . S
C136 C141 1.364 . S
C137 H116 0.952 . S
C137 C136 1.372 . S
C137 C138 1.389 . S
C138 H117 0.949 . S
C138 C137 1.389 . S
C138 C139 1.387 . S
C139 C138 1.387 . S
C139 C140 1.372 . S
C140 H118 0.950 . S
C140 C139 1.372 . S
C140 C141 1.379 . S
C141 H119 0.948 . S
C141 C136 1.364 . S
C141 C140 1.379 . S
C142 C111 1.383 . S
C142 C129 1.479 . S
C142 C143 1.398 . S
C143 C108 1.382 . S
C143 H120 0.951 . S
C143 C142 1.398 . S
O144 Mn145 2.163 1_655 S
O144 C158 1.244 . S
Mn145 O144 2.163 1_455 S
Mn145 O148 2.160 1_545 S
Mn145 O149 2.221 . S
Mn145 O151 2.163 1_455 S
Mn145 O153 2.160 1_545 S
Mn145 O163 2.221 1_445 S
O146 Mn147 2.087 1_545 S
O146 C158 1.256 . S
Mn147 O146 2.087 1_565 S
Mn147 O154 2.089 1_655 S
Mn147 O163 2.290 . S
Mn147 O164 2.251 . S
O148 Mn145 2.160 1_565 S
O148 C159 1.239 . S
O149 Mn145 2.221 . S
O149 Mn150 2.290 . S
O149 C160 1.278 . S
Mn150 O149 2.290 . S
Mn150 O152 2.089 . S
Mn150 O155 2.251 . S
Mn150 O156 2.087 1_455 S
O151 Mn145 2.163 1_655 S
O151 C161 1.244 . S
O152 Mn150 2.089 . S
O152 C159 1.256 1_545 S
O153 Mn145 2.160 1_565 S
O153 C162 1.239 . S
O154 Mn147 2.089 1_455 S
O154 C162 1.256 . S
O155 Mn150 2.251 . S
O155 C160 1.241 . S
O156 Mn150 2.087 1_655 S
O156 C161 1.256 . S
C157 O163 1.278 . S
C157 O164 1.241 . S
C158 O144 1.244 . S
C158 O146 1.256 . S
C159 O148 1.239 . S
C159 O152 1.256 1_565 S
C160 O149 1.278 . S
C160 O155 1.241 . S
C161 O151 1.244 . S
C161 O156 1.256 . S
C162 O153 1.239 . S
C162 O154 1.256 . S
O163 Mn145 2.221 1_665 S
O163 Mn147 2.290 . S
O163 C157 1.278 . S
O164 Mn147 2.251 . S
O164 C157 1.241 . S
O165 Mn166 2.163 . S
O165 C179 1.244 . S
Mn166 O165 2.163 . S
Mn166 O169 2.160 1_554 S
Mn166 O170 2.221 . S
Mn166 O172 2.163 1_554 S
Mn166 O174 2.160 . S
Mn166 O184 2.221 . S
O167 Mn168 2.087 . S
O167 C179 1.256 . S
Mn168 O167 2.087 . S
Mn168 O175 2.089 . S
Mn168 O184 2.290 . S
Mn168 O185 2.251 . S
O169 Mn166 2.160 1_556 S
O169 C180 1.239 . S
O170 Mn166 2.221 . S
O170 Mn171 2.290 1_554 S
O170 C181 1.278 . S
Mn171 O170 2.290 1_556 S
Mn171 O173 2.089 . S
Mn171 O176 2.241 1_556 S
Mn171 O177 2.087 . S
O172 Mn166 2.163 1_556 S
O172 C182 1.244 . S
O173 Mn171 2.089 . S
O173 C180 1.256 . S
O174 Mn166 2.160 . S
O174 C183 1.239 . S
O175 Mn168 2.089 . S
O175 C183 1.256 . S
O176 Mn171 2.241 1_554 S
O176 C181 1.252 . S
O177 Mn171 2.087 . S
O177 C182 1.256 . S
C178 O184 1.278 . S
C178 O185 1.241 . S
C179 O165 1.244 . S
C179 O167 1.256 . S
C180 O169 1.239 . S
C180 O173 1.256 . S
C181 O170 1.278 . S
C181 O176 1.252 . S
C182 O172 1.244 . S
C182 O177 1.256 . S
C183 O174 1.239 . S
C183 O175 1.256 . S
O184 Mn166 2.221 . S
O184 Mn168 2.290 . S
O184 C178 1.278 . S
O185 Mn168 2.251 . S
O185 C178 1.241 . S
H186 C192 0.930 . S
H187 C196 0.930 . S
H188 C201 0.929 . S
H189 C199 0.929 . S
H190 C194 0.929 . S
H191 C200 0.929 . S
C192 H186 0.930 . S
C192 C193 1.367 . S
C192 C200 1.378 . S
C193 C192 1.367 . S
C193 C201 1.433 . S
C194 H190 0.929 . S
C194 C196 1.378 . S
C194 C198 1.350 . S
C195 C198 1.463 . S
C195 C200 1.350 . S
C195 N203 1.427 . S
C196 H187 0.930 . S
C196 C194 1.378 . S
C196 C197 1.367 . S
C197 C196 1.367 . S
C197 C199 1.433 . S
C198 C194 1.350 . S
C198 C195 1.463 . S
C198 N202 1.427 . S
C199 H189 0.929 . S
C199 C197 1.433 . S
C199 N202 1.384 . S
C200 H191 0.929 . S
C200 C192 1.378 . S
C200 C195 1.350 . S
C201 H188 0.929 . S
C201 C193 1.433 . S
C201 N203 1.384 . S
N202 C198 1.427 . S
N202 C199 1.384 . S
N203 C195 1.427 . S
N203 C201 1.384 . S
H204 C210 0.930 . S
H205 C214 0.930 . S
H206 C219 0.929 . S
H207 C217 0.929 . S
H208 C212 0.929 . S
H209 C218 0.929 . S
C210 H204 0.930 . S
C210 C211 1.367 . S
C210 C218 1.378 . S
C211 C210 1.367 . S
C211 C219 1.433 . S
C212 H208 0.929 . S
C212 C214 1.378 . S
C212 C216 1.350 . S
C213 C216 1.463 . S
C213 C218 1.350 . S
C213 N221 1.427 . S
C214 H205 0.930 . S
C214 C212 1.378 . S
C214 C215 1.367 . S
C215 C214 1.367 . S
C215 C217 1.433 . S
C216 C212 1.350 . S
C216 C213 1.463 . S
C216 N220 1.427 . S
C217 H207 0.929 . S
C217 C215 1.433 . S
C217 N220 1.384 . S
C218 H209 0.929 . S
C218 C210 1.378 . S
C218 C213 1.350 . S
C219 H206 0.929 . S
C219 C211 1.433 . S
C219 N221 1.384 . S
N220 C216 1.427 . S
N220 C217 1.384 . S
N221 C213 1.427 . S
N221 C219 1.384 . S
H222 C228 0.930 . S
H223 C232 0.930 . S
H224 C237 0.929 . S
H225 C235 0.929 . S
H226 C230 0.929 . S
H227 C236 0.929 . S
C228 H222 0.930 . S
C228 C229 1.367 . S
C228 C236 1.378 . S
C229 C228 1.367 . S
C229 C237 1.433 . S
C230 H226 0.929 . S
C230 C232 1.378 . S
C230 C234 1.350 . S
C231 C234 1.463 . S
C231 C236 1.350 . S
C231 N239 1.427 . S
C232 H223 0.930 . S
C232 C230 1.378 . S
C232 C233 1.367 . S
C233 C232 1.367 . S
C233 C235 1.433 . S
C234 C230 1.350 . S
C234 C231 1.463 . S
C234 N238 1.427 . S
C235 H225 0.929 . S
C235 C233 1.433 . S
C235 N238 1.384 . S
C236 H227 0.929 . S
C236 C228 1.378 . S
C236 C231 1.350 . S
C237 H224 0.929 . S
C237 C229 1.433 . S
C237 N239 1.384 . S
N238 C234 1.427 . S
N238 C235 1.384 . S
N239 C231 1.427 . S
N239 C237 1.384 . S
H240 C246 0.930 . S
H241 C250 0.930 . S
H242 C255 0.929 . S
H243 C253 0.929 . S
H244 C248 0.929 . S
H245 C254 0.929 . S
C246 H240 0.930 . S
C246 C247 1.367 . S
C246 C254 1.378 . S
C247 C246 1.367 . S
C247 C255 1.433 1_556 S
C248 H244 0.929 . S
C248 C250 1.378 . S
C248 C252 1.350 . S
C249 C252 1.463 . S
C249 C254 1.350 1_554 S
C249 N257 1.427 . S
C250 H241 0.930 . S
C250 C248 1.378 . S
C250 C251 1.367 . S
C251 C250 1.367 . S
C251 C253 1.433 1_554 S
C252 C248 1.350 . S
C252 C249 1.463 . S
C252 N256 1.427 1_554 S
C253 H243 0.929 . S
C253 C251 1.433 1_556 S
C253 N256 1.384 . S
C254 H245 0.929 . S
C254 C246 1.378 . S
C254 C249 1.350 1_556 S
C255 H242 0.929 . S
C255 C247 1.433 1_554 S
C255 N257 1.384 . S
N256 C252 1.427 1_556 S
N256 C253 1.384 . S
N257 C249 1.427 . S
N257 C255 1.384 . S
H258 C264 0.930 . S
H259 C268 0.930 . S
H260 C273 0.929 . S
H261 C271 0.929 . S
H262 C266 0.929 . S
H263 C272 0.929 1_545 S
C264 H258 0.930 . S
C264 C265 1.367 . S
C264 C272 1.378 . S
C265 C264 1.367 . S
C265 C273 1.433 . S
C266 H262 0.929 . S
C266 C268 1.378 . S
C266 C270 1.350 . S
C267 C270 1.463 . S
C267 C272 1.350 . S
C267 N275 1.427 . S
C268 H259 0.930 . S
C268 C266 1.378 . S
C268 C269 1.367 . S
C269 C268 1.367 . S
C269 C271 1.433 1_565 S
C270 C266 1.350 . S
C270 C267 1.463 . S
C270 N274 1.427 . S
C271 H261 0.929 . S
C271 C269 1.433 1_545 S
C271 N274 1.384 1_545 S
C272 H263 0.929 1_565 S
C272 C264 1.378 . S
C272 C267 1.350 . S
C273 H260 0.929 . S
C273 C265 1.433 . S
C273 N275 1.384 . S
N274 C270 1.427 . S
N274 C271 1.384 1_565 S
N275 C267 1.427 . S
N275 C273 1.384 . S
H276 C282 0.930 . S
H277 C286 0.930 . S
H278 C291 0.929 . S
H279 C289 0.929 . S
H280 C284 0.929 . S
H281 C290 0.929 . S
C282 H276 0.930 . S
C282 C283 1.367 . S
C282 C290 1.378 . S
C283 C282 1.367 . S
C283 C291 1.433 . S
C284 H280 0.929 . S
C284 C286 1.378 . S
C284 C288 1.350 . S
C285 C288 1.463 . S
C285 C290 1.350 . S
C285 N293 1.427 . S
C286 H277 0.930 . S
C286 C284 1.378 . S
C286 C287 1.367 . S
C287 C286 1.367 . S
C287 C289 1.433 . S
C288 C284 1.350 . S
C288 C285 1.463 . S
C288 N292 1.427 . S
C289 H279 0.929 . S
C289 C287 1.433 . S
C289 N292 1.384 . S
C290 H281 0.929 . S
C290 C282 1.378 . S
C290 C285 1.350 . S
C291 H278 0.929 . S
C291 C283 1.433 . S
C291 N293 1.384 . S
N292 C288 1.427 . S
N292 C289 1.384 . S
N293 C285 1.427 . S
N293 C291 1.384 . S
H294 C300 0.930 . S
H295 C304 0.930 . S
H296 C309 0.929 . S
H297 C307 0.929 . S
H298 C302 0.929 . S
H299 C308 0.929 . S
C300 H294 0.930 . S
C300 C301 1.367 . S
C300 C308 1.378 . S
C301 C300 1.367 . S
C301 C309 1.433 . S
C302 H298 0.929 . S
C302 C304 1.378 . S
C302 C306 1.350 . S
C303 C306 1.463 . S
C303 C308 1.350 . S
C303 N311 1.427 . S
C304 H295 0.930 . S
C304 C302 1.378 . S
C304 C305 1.367 . S
C305 C304 1.367 . S
C305 C307 1.433 . S
C306 C302 1.350 . S
C306 C303 1.463 . S
C306 N310 1.427 . S
C307 H297 0.929 . S
C307 C305 1.433 . S
C307 N310 1.384 . S
C308 H299 0.929 . S
C308 C300 1.378 . S
C308 C303 1.350 . S
C309 H296 0.929 . S
C309 C301 1.433 . S
C309 N311 1.384 . S
N310 C306 1.427 . S
N310 C307 1.384 . S
N311 C303 1.427 . S
N311 C309 1.384 . S
H312 C318 0.930 . S
H313 C322 0.930 . S
H314 C327 0.929 . S
H315 C325 0.929 . S
H316 C320 0.929 . S
H317 C326 0.929 . S
C318 H312 0.930 . S
C318 C319 1.367 . S
C318 C326 1.378 . S
C319 C318 1.367 . S
C319 C327 1.433 . S
C320 H316 0.929 . S
C320 C322 1.378 . S
C320 C324 1.350 . S
C321 C324 1.463 . S
C321 C326 1.350 . S
C321 N329 1.427 . S
C322 H313 0.930 . S
C322 C320 1.378 . S
C322 C323 1.367 . S
C323 C322 1.367 . S
C323 C325 1.433 . S
C324 C320 1.350 . S
C324 C321 1.463 . S
C324 N328 1.427 . S
C325 H315 0.929 . S
C325 C323 1.433 . S
C325 N328 1.384 . S
C326 H317 0.929 . S
C326 C318 1.378 . S
C326 C321 1.350 . S
C327 H314 0.929 . S
C327 C319 1.433 . S
C327 N329 1.384 . S
N328 C324 1.427 . S
N328 C325 1.384 . S
N329 C321 1.427 . S
N329 C327 1.384 . S
H330 C336 0.930 . S
H331 C340 0.930 . S
H332 C345 0.929 . S
H333 C343 0.929 . S
H334 C338 0.929 . S
H335 C344 0.929 . S
C336 H330 0.930 . S
C336 C337 1.367 . S
C336 C344 1.378 . S
C337 C336 1.367 . S
C337 C345 1.433 . S
C338 H334 0.929 . S
C338 C340 1.378 . S
C338 C342 1.350 . S
C339 C342 1.463 . S
C339 C344 1.350 . S
C339 N347 1.427 . S
C340 H331 0.930 . S
C340 C338 1.378 . S
C340 C341 1.367 . S
C341 C340 1.367 . S
C341 C343 1.433 . S
C342 C338 1.350 . S
C342 C339 1.463 . S
C342 N346 1.427 . S
C343 H333 0.929 . S
C343 C341 1.433 . S
C343 N346 1.384 . S
C344 H335 0.929 . S
C344 C336 1.378 . S
C344 C339 1.350 . S
C345 H332 0.929 . S
C345 C337 1.433 . S
C345 N347 1.384 . S
N346 C342 1.427 . S
N346 C343 1.384 . S
N347 C339 1.427 . S
N347 C345 1.384 . S
H348 C354 0.930 . S
H349 C358 0.930 . S
H350 C363 0.929 . S
H351 C361 0.929 . S
H352 C356 0.929 . S
H353 C362 0.929 . S
C354 H348 0.930 . S
C354 C355 1.367 . S
C354 C362 1.378 . S
C355 C354 1.367 . S
C355 C363 1.433 . S
C356 H352 0.929 . S
C356 C358 1.378 . S
C356 C360 1.350 . S
C357 C360 1.463 . S
C357 C362 1.350 . S
C357 N365 1.427 . S
C358 H349 0.930 . S
C358 C356 1.378 . S
C358 C359 1.367 . S
C359 C358 1.367 . S
C359 C361 1.433 . S
C360 C356 1.350 . S
C360 C357 1.463 . S
C360 N364 1.427 . S
C361 H351 0.929 . S
C361 C359 1.433 . S
C361 N364 1.384 . S
C362 H353 0.929 . S
C362 C354 1.378 . S
C362 C357 1.350 . S
C363 H350 0.929 . S
C363 C355 1.433 . S
C363 N365 1.384 . S
N364 C360 1.427 . S
N364 C361 1.384 . S
N365 C357 1.427 . S
N365 C363 1.384 . S
H366 C372 0.930 . S
H367 C376 0.930 . S
H368 C381 0.929 . S
H369 C379 0.929 . S
H370 C374 0.929 . S
H371 C380 0.929 . S
C372 H366 0.930 . S
C372 C373 1.367 . S
C372 C380 1.378 . S
C373 C372 1.367 . S
C373 C381 1.433 . S
C374 H370 0.929 . S
C374 C376 1.378 . S
C374 C378 1.350 . S
C375 C378 1.463 . S
C375 C380 1.350 . S
C375 N383 1.427 . S
C376 H367 0.930 . S
C376 C374 1.378 . S
C376 C377 1.367 . S
C377 C376 1.367 . S
C377 C379 1.433 . S
C378 C374 1.350 . S
C378 C375 1.463 . S
C378 N382 1.427 . S
C379 H369 0.929 . S
C379 C377 1.433 . S
C379 N382 1.384 . S
C380 H371 0.929 . S
C380 C372 1.378 . S
C380 C375 1.350 . S
C381 H368 0.929 . S
C381 C373 1.433 . S
C381 N383 1.384 . S
N382 C378 1.427 . S
N382 C379 1.384 . S
N383 C375 1.427 . S
N383 C381 1.384 . S
H384 C390 0.930 . S
H385 C394 0.930 . S
H386 C399 0.922 1_545 S
H387 C397 0.929 . S
H388 C392 0.929 1_545 S
H389 C398 0.929 . S
C390 H384 0.930 . S
C390 C391 1.367 . S
C390 C398 1.378 . S
C391 C390 1.367 . S
C391 C399 1.433 . S
C392 H388 0.929 1_565 S
C392 C394 1.378 1_565 S
C392 C396 1.350 . S
C393 C396 1.463 . S
C393 C398 1.350 . S
C393 N401 1.427 . S
C394 H385 0.930 . S
C394 C392 1.378 1_545 S
C394 C395 1.367 1_545 S
C395 C394 1.367 1_565 S
C395 C397 1.433 . S
C396 C392 1.350 . S
C396 C393 1.463 . S
C396 N400 1.427 . S
C397 H387 0.929 . S
C397 C395 1.433 . S
C397 N400 1.384 . S
C398 H389 0.929 . S
C398 C390 1.378 . S
C398 C393 1.350 . S
C399 H386 0.922 1_565 S
C399 C391 1.433 . S
C399 N401 1.384 . S
N400 C396 1.427 . S
N400 C397 1.384 . S
N401 C393 1.427 . S
N401 C399 1.384 . S
C197 C160 1.344 . S
C193 C133 1.498 . S
C211 C25 1.532 . S
C215 C181 1.366 . S
C229 C61 1.693 . S
C233 C157 1.493 . S
C247 C97 1.653 . S
C251 C178 1.471 . S
C269 C162 1.639 . S
C265 C1 1.650 . S
C287 C182 1.588 . S
C283 C67 1.609 . S
C301 C103 1.551 . S
C305 C158 1.513 . S
C319 C109 1.592 . S
C323 C180 1.547 . S
C341 C179 1.511 . S
C337 C37 1.588 . S
C359 C161 1.575 . S
C355 C73 1.598 . S
C377 C183 1.646 . S
C373 C139 1.597 . S
C391 C31 1.633 . S
C395 C159 1.547 . S
