# Generated by pormake.
# Topology the, (3,8)-cn, num edge types: 1
# Building blocks:
#     Node 0, Type 0, BuildingBlock: BELTOD_clean_linker_0, # of connection points: 3
#     Node 1, Type 0, BuildingBlock: BELTOD_clean_linker_0, # of connection points: 3
#     Node 2, Type 0, BuildingBlock: BELTOD_clean_linker_0, # of connection points: 3
#     Node 3, Type 0, BuildingBlock: BELTOD_clean_linker_0, # of connection points: 3
#     Node 4, Type 0, BuildingBlock: BELTOD_clean_linker_0, # of connection points: 3
#     Node 5, Type 0, BuildingBlock: BELTOD_clean_linker_0, # of connection points: 3
#     Node 6, Type 0, BuildingBlock: BELTOD_clean_linker_0, # of connection points: 3
#     Node 7, Type 0, BuildingBlock: BELTOD_clean_linker_0, # of connection points: 3
#     Node 8, Type 1, BuildingBlock: GIZVER_clean_sbu_0, # of connection points: 8
#     Node 9, Type 1, BuildingBlock: GIZVER_clean_sbu_0, # of connection points: 8
#     Node 10, Type 1, BuildingBlock: GIZVER_clean_sbu_0, # of connection points: 8
#     Edge 11, Type (0, 1), BuildingBlock: UVAHIK_clean_linker_0, # of connection points: 2
#     Edge 12, Type (0, 1), BuildingBlock: UVAHIK_clean_linker_0, # of connection points: 2
#     Edge 13, Type (0, 1), BuildingBlock: UVAHIK_clean_linker_0, # of connection points: 2
#     Edge 14, Type (0, 1), BuildingBlock: UVAHIK_clean_linker_0, # of connection points: 2
#     Edge 15, Type (0, 1), BuildingBlock: UVAHIK_clean_linker_0, # of connection points: 2
#     Edge 16, Type (0, 1), BuildingBlock: UVAHIK_clean_linker_0, # of connection points: 2
#     Edge 17, Type (0, 1), BuildingBlock: UVAHIK_clean_linker_0, # of connection points: 2
#     Edge 18, Type (0, 1), BuildingBlock: UVAHIK_clean_linker_0, # of connection points: 2
#     Edge 19, Type (0, 1), BuildingBlock: UVAHIK_clean_linker_0, # of connection points: 2
#     Edge 20, Type (0, 1), BuildingBlock: UVAHIK_clean_linker_0, # of connection points: 2
#     Edge 21, Type (0, 1), BuildingBlock: UVAHIK_clean_linker_0, # of connection points: 2
#     Edge 22, Type (0, 1), BuildingBlock: UVAHIK_clean_linker_0, # of connection points: 2
#     Edge 23, Type (0, 1), BuildingBlock: UVAHIK_clean_linker_0, # of connection points: 2
#     Edge 24, Type (0, 1), BuildingBlock: UVAHIK_clean_linker_0, # of connection points: 2
#     Edge 25, Type (0, 1), BuildingBlock: UVAHIK_clean_linker_0, # of connection points: 2
#     Edge 26, Type (0, 1), BuildingBlock: UVAHIK_clean_linker_0, # of connection points: 2
#     Edge 27, Type (0, 1), BuildingBlock: UVAHIK_clean_linker_0, # of connection points: 2
#     Edge 28, Type (0, 1), BuildingBlock: UVAHIK_clean_linker_0, # of connection points: 2
#     Edge 29, Type (0, 1), BuildingBlock: UVAHIK_clean_linker_0, # of connection points: 2
#     Edge 30, Type (0, 1), BuildingBlock: UVAHIK_clean_linker_0, # of connection points: 2
#     Edge 31, Type (0, 1), BuildingBlock: UVAHIK_clean_linker_0, # of connection points: 2
#     Edge 32, Type (0, 1), BuildingBlock: UVAHIK_clean_linker_0, # of connection points: 2
#     Edge 33, Type (0, 1), BuildingBlock: UVAHIK_clean_linker_0, # of connection points: 2
#     Edge 34, Type (0, 1), BuildingBlock: UVAHIK_clean_linker_0, # of connection points: 2
# Relax obj value: 0.043
# Max RMSD: 0.142
# Mean RMSD: 0.066
data_MOF--net-the--node1-GIZVER_clean_sbu_0--node2-BELTOD_clean_linker_0--edge1-UVAHIK_clean_linker_0
_symmetry_space_group_name_H-M    P1
_symmetry_Int_Tables_number       1
_symmetry_cell_setting            triclinic
loop_
_symmetry_equiv_pos_as_xyz
'x, y, z'
_cell_length_a     58.116012
_cell_length_b     55.226552
_cell_length_c     50.558878
_cell_angle_alpha  86.516971
_cell_angle_beta   93.305408
_cell_angle_gamma 100.20721
loop_
_atom_site_label
_atom_site_type_symbol
_atom_site_fract_x
_atom_site_fract_y
_atom_site_fract_z
_atom_type_partial_charge
P0 P 0.34823 0.35964 0.42591 0.0
H1 H 0.33097 0.37628 0.47345 0.0
H2 H 0.29189 0.3805 0.48583 0.0
H3 H 0.26329 0.35477 0.4097 0.0
H4 H 0.30245 0.35028 0.39765 0.0
H5 H 0.37406 0.33593 0.46834 0.0
H6 H 0.37741 0.29297 0.4793 0.0
H7 H 0.32984 0.27053 0.41289 0.0
H8 H 0.32663 0.3137 0.40199 0.0
H9 H 0.33825 0.40162 0.39236 0.0
H10 H 0.37009 0.3378 0.38419 0.0
O11 O 0.36834 0.37792 0.44393 0.0
H12 H 0.34766 0.41595 0.34697 0.0
H13 H 0.37843 0.3512 0.33846 0.0
C14 C 0.31961 0.36357 0.43441 0.0
C15 C 0.31631 0.37175 0.45936 0.0
C16 C 0.29397 0.37414 0.46641 0.0
C17 C 0.27452 0.36811 0.44868 0.0
C18 C 0.27789 0.35939 0.42386 0.0
C19 C 0.30027 0.35706 0.41684 0.0
C20 C 0.35052 0.32798 0.434 0.0
C21 C 0.36438 0.3218 0.45611 0.0
C22 C 0.3661 0.2972 0.46251 0.0
C23 C 0.35394 0.2784 0.4469 0.0
C24 C 0.33962 0.28466 0.42509 0.0
C25 C 0.33777 0.30927 0.41885 0.0
C26 C 0.35299 0.36839 0.39149 0.0
C27 C 0.34679 0.3904 0.38057 0.0
C28 C 0.35209 0.3985 0.35453 0.0
C29 C 0.36378 0.38473 0.3389 0.0
C30 C 0.36969 0.36247 0.34994 0.0
C31 C 0.36461 0.35457 0.37607 0.0
P32 P 0.7175 0.29141 0.27322 0.0
H33 H 0.76357 0.31845 0.26021 0.0
H34 H 0.79511 0.34282 0.28621 0.0
H35 H 0.75252 0.3306 0.35472 0.0
H36 H 0.72083 0.307 0.3283 0.0
H37 H 0.72178 0.24022 0.28762 0.0
H38 H 0.69766 0.20727 0.31328 0.0
H39 H 0.65312 0.25813 0.33191 0.0
H40 H 0.67742 0.29109 0.30625 0.0
H41 H 0.72524 0.34116 0.24749 0.0
H42 H 0.66841 0.27961 0.2542 0.0
O43 O 0.73063 0.27736 0.25162 0.0
H44 H 0.70086 0.36296 0.21708 0.0
H45 H 0.64341 0.30185 0.22568 0.0
C46 C 0.73998 0.31056 0.29239 0.0
C47 C 0.76101 0.3211 0.28081 0.0
C48 C 0.77911 0.33491 0.29578 0.0
C49 C 0.77654 0.33847 0.32271 0.0
C50 C 0.75511 0.32842 0.33402 0.0
C51 C 0.73697 0.31472 0.31895 0.0
C52 C 0.70099 0.26792 0.29442 0.0
C53 C 0.7069 0.24433 0.29732 0.0
C54 C 0.69319 0.22553 0.31215 0.0
C55 C 0.67332 0.23003 0.32433 0.0
C56 C 0.66807 0.254 0.32234 0.0
C57 C 0.68195 0.27284 0.30774 0.0
C58 C 0.6985 0.30904 0.25391 0.0
C59 C 0.70731 0.3326 0.24308 0.0
C60 C 0.69324 0.34512 0.22568 0.0
C61 C 0.67 0.3343 0.21877 0.0
C62 C 0.66125 0.31075 0.23003 0.0
C63 C 0.67547 0.29811 0.24693 0.0
P64 P 0.7272 0.74418 0.28767 0.0
H65 H 0.74437 0.77845 0.3285 0.0
H66 H 0.72512 0.80253 0.35656 0.0
H67 H 0.65779 0.7692 0.32274 0.0
H68 H 0.67717 0.74479 0.29518 0.0
H69 H 0.77379 0.73622 0.27592 0.0
H70 H 0.80269 0.71556 0.30067 0.0
H71 H 0.75507 0.69559 0.36417 0.0
H72 H 0.72648 0.717 0.33946 0.0
H73 H 0.69822 0.75242 0.24022 0.0
H74 H 0.71276 0.69008 0.28979 0.0
O75 O 0.74189 0.76594 0.26766 0.0
H76 H 0.67326 0.72467 0.21035 0.0
H77 H 0.68838 0.66216 0.25969 0.0
C78 C 0.71224 0.75976 0.30986 0.0
C79 C 0.72544 0.77613 0.32737 0.0
C80 C 0.71441 0.79005 0.34323 0.0
C81 C 0.6899 0.78795 0.34181 0.0
C82 C 0.67668 0.77111 0.32455 0.0
C83 C 0.68777 0.75718 0.30866 0.0
C84 C 0.7482 0.72853 0.30609 0.0
C85 C 0.76963 0.72753 0.29525 0.0
C86 C 0.78608 0.7155 0.30936 0.0
C87 C 0.7813 0.70394 0.33451 0.0
C88 C 0.75955 0.70467 0.3451 0.0
C89 C 0.74313 0.71681 0.33097 0.0
C90 C 0.70762 0.72333 0.267 0.0
C91 C 0.69607 0.73273 0.24464 0.0
C92 C 0.68192 0.71681 0.22748 0.0
C93 C 0.679 0.69111 0.23239 0.0
C94 C 0.69009 0.68182 0.25534 0.0
C95 C 0.7042 0.6978 0.27253 0.0
P96 P 0.28634 0.71537 0.28312 0.0
H97 H 0.3193 0.75975 0.26986 0.0
H98 H 0.34442 0.79025 0.29658 0.0
H99 H 0.32162 0.74789 0.36796 0.0
H100 H 0.29686 0.71718 0.34097 0.0
H101 H 0.28246 0.7 0.22858 0.0
H102 H 0.30365 0.67466 0.20464 0.0
H103 H 0.34582 0.66279 0.27598 0.0
H104 H 0.32495 0.6891 0.29954 0.0
H105 H 0.24789 0.72771 0.3109 0.0
H106 H 0.27435 0.66183 0.29618 0.0
O107 O 0.2732 0.73243 0.26065 0.0
H108 H 0.21448 0.70273 0.3325 0.0
H109 H 0.24135 0.6368 0.3182 0.0
C110 C 0.30594 0.73646 0.30344 0.0
C111 C 0.31978 0.757 0.29127 0.0
C112 C 0.33402 0.7745 0.30659 0.0
C113 C 0.3348 0.77173 0.33446 0.0
C114 C 0.32149 0.75058 0.34657 0.0
C115 C 0.3072 0.73306 0.33116 0.0
C116 C 0.30243 0.69679 0.2657 0.0
C117 C 0.2964 0.69213 0.23903 0.0
C118 C 0.3084 0.67735 0.22542 0.0
C119 C 0.3265 0.66657 0.23831 0.0
C120 C 0.33228 0.67108 0.26525 0.0
C121 C 0.32033 0.68605 0.2788 0.0
C122 C 0.26352 0.69668 0.30177 0.0
C123 C 0.24666 0.70788 0.31264 0.0
C124 C 0.22762 0.69356 0.3251 0.0
C125 C 0.2251 0.6677 0.32693 0.0
C126 C 0.24251 0.65662 0.31672 0.0
C127 C 0.26153 0.67098 0.30425 0.0
P128 P 0.32961 0.67322 0.68839 0.0
H129 H 0.29399 0.69384 0.65527 0.0
H130 H 0.25323 0.67774 0.64389 0.0
H131 H 0.25464 0.61854 0.70367 0.0
H132 H 0.29594 0.63404 0.71381 0.0
H133 H 0.33669 0.70142 0.63817 0.0
H134 H 0.353 0.74433 0.62663 0.0
H135 H 0.36222 0.75917 0.70983 0.0
H136 H 0.34568 0.71606 0.72129 0.0
H137 H 0.37169 0.65269 0.7024 0.0
H138 H 0.31603 0.6736 0.74381 0.0
O139 O 0.33906 0.65751 0.66528 0.0
H140 H 0.38903 0.63864 0.74425 0.0
H141 H 0.33322 0.65914 0.78614 0.0
C142 C 0.29807 0.66549 0.68579 0.0
C143 C 0.28545 0.67777 0.66645 0.0
C144 C 0.26194 0.66851 0.65998 0.0
C145 C 0.25047 0.64666 0.67269 0.0
C146 C 0.2629 0.63515 0.69308 0.0
C147 C 0.28651 0.64426 0.69927 0.0
C148 C 0.34016 0.70545 0.68058 0.0
C149 C 0.34204 0.71392 0.65396 0.0
C150 C 0.35126 0.73851 0.64737 0.0
C151 C 0.35895 0.75516 0.66732 0.0
C152 C 0.35665 0.74673 0.69404 0.0
C153 C 0.34715 0.7221 0.7006 0.0
C154 C 0.34222 0.66357 0.71991 0.0
C155 C 0.36305 0.65406 0.72052 0.0
C156 C 0.37294 0.64594 0.74452 0.0
C157 C 0.36231 0.64735 0.76854 0.0
C158 C 0.34183 0.65775 0.76799 0.0
C159 C 0.33189 0.66586 0.74384 0.0
P160 P 0.33004 0.31487 0.67922 0.0
H161 H 0.37305 0.31333 0.71126 0.0
H162 H 0.38668 0.32835 0.755 0.0
H163 H 0.3186 0.34617 0.76596 0.0
H164 H 0.30482 0.33051 0.72261 0.0
H165 H 0.32154 0.29153 0.62901 0.0
H166 H 0.32946 0.25274 0.61397 0.0
H167 H 0.35163 0.23234 0.69396 0.0
H168 H 0.34319 0.271 0.70905 0.0
H169 H 0.31483 0.36208 0.67276 0.0
H170 H 0.28358 0.28595 0.66416 0.0
O171 O 0.34986 0.33378 0.66165 0.0
H172 H 0.27831 0.37476 0.65646 0.0
H173 H 0.24722 0.29853 0.64637 0.0
C174 C 0.33793 0.32075 0.7136 0.0
C175 C 0.36084 0.31978 0.72341 0.0
C176 C 0.36862 0.32837 0.74839 0.0
C177 C 0.35373 0.33855 0.76379 0.0
C178 C 0.33048 0.33856 0.75441 0.0
C179 C 0.3226 0.32957 0.7296 0.0
C180 C 0.33181 0.28422 0.67011 0.0
C181 C 0.32754 0.27843 0.64345 0.0
C182 C 0.33201 0.25623 0.63488 0.0
C183 C 0.34124 0.23955 0.65278 0.0
C184 C 0.34466 0.24495 0.67971 0.0
C185 C 0.33986 0.26707 0.68834 0.0
C186 C 0.30208 0.32316 0.66915 0.0
C187 C 0.30009 0.34809 0.6672 0.0
C188 C 0.27921 0.35531 0.65763 0.0
C189 C 0.2599 0.33772 0.64945 0.0
C190 C 0.26169 0.31259 0.65244 0.0
C191 C 0.28258 0.30537 0.6624 0.0
P192 P 0.72139 0.29497 0.7235 0.0
H193 H 0.72947 0.27287 0.67423 0.0
H194 H 0.70495 0.24257 0.6467 0.0
H195 H 0.64718 0.24196 0.69679 0.0
H196 H 0.67148 0.2728 0.72382 0.0
H197 H 0.77046 0.30907 0.74079 0.0
H198 H 0.80425 0.33366 0.71983 0.0
H199 H 0.76056 0.34646 0.65007 0.0
H200 H 0.7266 0.32231 0.67165 0.0
H201 H 0.69138 0.28458 0.76851 0.0
H202 H 0.71814 0.34791 0.71815 0.0
O203 O 0.73184 0.27565 0.74582 0.0
H204 H 0.67208 0.31025 0.79438 0.0
H205 H 0.70007 0.37407 0.74481 0.0
C206 C 0.70219 0.27585 0.70069 0.0
C207 C 0.71132 0.2669 0.67885 0.0
C208 C 0.69734 0.24941 0.66319 0.0
C209 C 0.67415 0.23993 0.66959 0.0
C210 C 0.66501 0.24892 0.69143 0.0
C211 C 0.67889 0.26673 0.70679 0.0
C212 C 0.74613 0.31332 0.70751 0.0
C213 C 0.76815 0.31704 0.72092 0.0
C214 C 0.78753 0.33105 0.70883 0.0
C215 C 0.78528 0.3418 0.68307 0.0
C216 C 0.76297 0.33854 0.66994 0.0
C217 C 0.74356 0.32455 0.68214 0.0
C218 C 0.70629 0.31427 0.74143 0.0
C219 C 0.69315 0.30407 0.76305 0.0
C220 C 0.68233 0.3189 0.77806 0.0
C221 C 0.68466 0.34444 0.77203 0.0
C222 C 0.6976 0.35451 0.75 0.0
C223 C 0.70815 0.33954 0.73476 0.0
P224 P 0.74663 0.71835 0.6843 0.0
H225 H 0.78658 0.73655 0.65205 0.0
H226 H 0.80647 0.71712 0.61989 0.0
H227 H 0.75636 0.64985 0.63054 0.0
H228 H 0.73668 0.6693 0.66265 0.0
H229 H 0.7301 0.76194 0.69967 0.0
H230 H 0.70419 0.78793 0.67738 0.0
H231 H 0.69421 0.74127 0.61058 0.0
H232 H 0.72038 0.71554 0.63289 0.0
H233 H 0.76223 0.68648 0.72682 0.0
H234 H 0.6965 0.69821 0.68873 0.0
O235 O 0.76715 0.73612 0.70232 0.0
H236 H 0.7415 0.65359 0.75564 0.0
H237 H 0.67561 0.66591 0.71788 0.0
C238 C 0.76066 0.70412 0.66027 0.0
C239 C 0.77994 0.71762 0.64744 0.0
C240 C 0.79111 0.7066 0.6289 0.0
C241 C 0.78304 0.68192 0.6229 0.0
C242 C 0.76316 0.66877 0.63512 0.0
C243 C 0.75196 0.67985 0.65354 0.0
C244 C 0.72755 0.73723 0.66766 0.0
C245 C 0.72242 0.75741 0.68018 0.0
C246 C 0.70745 0.77209 0.66751 0.0
C247 C 0.69723 0.76667 0.64217 0.0
C248 C 0.70211 0.74611 0.6299 0.0
C249 C 0.71706 0.7314 0.64265 0.0
C250 C 0.73088 0.69509 0.70608 0.0
C251 C 0.74331 0.68215 0.72491 0.0
C252 C 0.73143 0.66338 0.74136 0.0
C253 C 0.70688 0.65719 0.73915 0.0
C254 C 0.69453 0.67003 0.71992 0.0
C255 C 0.70645 0.68875 0.70343 0.0
Co256 Co 0.05184 0.47695 0.51794 0.0
Co257 Co 0.02824 0.46633 0.4724 0.0
Co258 Co 0.00471 0.50396 0.50183 0.0
O259 O 0.01944 0.47377 0.50584 0.0
H260 H 0.00951 0.45983 0.51417 0.0
O261 O 0.99054 0.53435 0.49775 0.0
Co262 Co 0.95909 0.53342 0.48399 0.0
Co263 Co 0.98095 0.54163 0.53048 0.0
H264 H 1.00118 0.54829 0.49047 0.0
O265 O 0.03703 0.43598 0.46606 0.0
O266 O 0.0598 0.46929 0.48241 0.0
O267 O 0.02711 0.49112 0.4439 0.0
O268 O 0.02523 0.51989 0.47219 0.0
O269 O 0.98106 0.48681 0.47559 0.0
O270 O 0.93072 0.5354 0.47026 0.0
O271 O 0.96228 0.56556 0.4726 0.0
O272 O 0.95172 0.49944 0.49313 0.0
O273 O 0.9839 0.48788 0.53124 0.0
O274 O 0.9803 0.51665 0.55885 0.0
O275 O 0.94998 0.54129 0.51914 0.0
O276 O 0.97477 0.57263 0.53706 0.0
C277 C 0.07305 0.45417 0.53578 0.0
C278 C 0.04999 0.52425 0.5241 0.0
C279 C 0.03051 0.51356 0.44969 0.0
C280 C 0.05754 0.4472 0.47406 0.0
C281 C 0.94029 0.55826 0.46545 0.0
C282 C 0.95913 0.48481 0.47855 0.0
C283 C 0.97763 0.49421 0.55331 0.0
C284 C 0.95386 0.5632 0.52832 0.0
O285 O 0.08089 0.47728 0.52991 0.0
O286 O 0.0511 0.44507 0.53004 0.0
O287 O 0.02823 0.52114 0.52829 0.0
O288 O 0.05706 0.51073 0.50803 0.0
Co289 Co 0.53497 0.95552 0.49171 0.0
Co290 Co 0.54378 0.97627 0.53716 0.0
Co291 Co 0.50676 0.00244 0.50426 0.0
O292 O 0.53571 0.988 0.50331 0.0
H293 H 0.54864 0.99971 0.49644 0.0
O294 O 0.47784 0.01711 0.50525 0.0
Co295 Co 0.48002 0.04921 0.5187 0.0
Co296 Co 0.46904 0.03035 0.47213 0.0
H297 H 0.4649 0.00548 0.51221 0.0
O298 O 0.574 0.97195 0.54626 0.0
O299 O 0.54488 0.94456 0.52805 0.0
O300 O 0.52101 0.97295 0.56396 0.0
O301 O 0.49283 0.97942 0.53421 0.0
O302 O 0.52407 0.0263 0.53007 0.0
O303 O 0.47954 0.07778 0.53228 0.0
O304 O 0.45039 0.04498 0.53003 0.0
O305 O 0.51151 0.05794 0.50938 0.0
O306 O 0.52049 0.02542 0.47402 0.0
O307 O 0.49198 0.03434 0.44565 0.0
O308 O 0.46961 0.06173 0.48357 0.0
O309 O 0.43883 0.03751 0.46454 0.0
C310 C 0.55816 0.93712 0.47565 0.0
C311 C 0.48808 0.95504 0.4835 0.0
C312 C 0.49949 0.97117 0.55703 0.0
C313 C 0.56603 0.94987 0.53861 0.0
C314 C 0.45829 0.06734 0.53737 0.0
C315 C 0.52642 0.04946 0.5249 0.0
C316 C 0.51354 0.03482 0.45183 0.0
C317 C 0.44804 0.05841 0.47432 0.0
O318 O 0.53686 0.92634 0.48009 0.0
O319 O 0.565 0.96003 0.48174 0.0
O320 O 0.4897 0.97826 0.47877 0.0
O321 O 0.50298 0.9467 0.49935 0.0
Co322 Co 0.4816 0.51561 0.06554 0.0
Co323 Co 0.47147 0.47095 0.0492 0.0
Co324 Co 0.50879 0.5038 0.01139 0.0
O325 O 0.47989 0.50154 0.03168 0.0
H326 H 0.46685 0.50545 0.02051 0.0
O327 O 0.53765 0.50577 0.99127 0.0
Co328 Co 0.53617 0.49214 0.95716 0.0
Co329 Co 0.54602 0.53631 0.97423 0.0
H330 H 0.55066 0.50181 1.00245 0.0
O331 O 0.44155 0.45954 0.0615 0.0
O332 O 0.47179 0.48261 0.08302 0.0
O333 O 0.4941 0.44926 0.05017 0.0
O334 O 0.52257 0.47859 0.03529 0.0
O335 O 0.49138 0.47745 0.98851 0.0
O336 O 0.53715 0.47859 0.92643 0.0
O337 O 0.56564 0.48516 0.95862 0.0
O338 O 0.50471 0.49666 0.95141 0.0
O339 O 0.49492 0.52913 0.98756 0.0
O340 O 0.52339 0.55786 0.97179 0.0
O341 O 0.5476 0.52527 0.94062 0.0
O342 O 0.5765 0.54742 0.96526 0.0
C343 C 0.45947 0.53106 0.08685 0.0
C344 C 0.52827 0.5275 0.05909 0.0
C345 C 0.5156 0.4575 0.04682 0.0
C346 C 0.45074 0.46979 0.08298 0.0
C347 C 0.55813 0.47653 0.93558 0.0
C348 C 0.48939 0.48123 0.96339 0.0
C349 C 0.50188 0.54989 0.97528 0.0
C350 C 0.56895 0.53736 0.9431 0.0
O351 O 0.48063 0.52965 0.09594 0.0
O352 O 0.4519 0.52162 0.06422 0.0
O353 O 0.52641 0.53036 0.0339 0.0
O354 O 0.51317 0.51198 0.07116 0.0
C355 C 0.24811 0.39283 0.46817 0.0
C356 C 0.25092 0.37152 0.45579 0.0
C357 C 0.22587 0.39672 0.47381 0.0
C358 C 0.16414 0.37961 0.45167 0.0
H359 H 0.154 0.41403 0.51346 0.0
C360 C 0.07586 0.40993 0.46897 0.0
C361 C 0.07821 0.43494 0.47437 0.0
C362 C 0.09556 0.3985 0.46975 0.0
C363 C 0.15659 0.40435 0.49616 0.0
H364 H 0.23267 0.33712 0.4405 0.0
H365 H 0.19372 0.3439 0.45041 0.0
H366 H 0.19126 0.40015 0.5098 0.0
H367 H 0.1031 0.4676 0.48457 0.0
H368 H 0.13724 0.44762 0.48626 0.0
H369 H 0.12959 0.38428 0.43785 0.0
C370 C 0.20873 0.35777 0.4554 0.0
C371 C 0.17792 0.39647 0.49401 0.0
C372 C 0.23102 0.35391 0.44969 0.0
C373 C 0.10062 0.44825 0.48054 0.0
C374 C 0.12019 0.43678 0.48168 0.0
C375 C 0.14275 0.38737 0.45392 0.0
C376 C 0.20588 0.37936 0.46727 0.0
C377 C 0.18219 0.38465 0.47137 0.0
C378 C 0.11789 0.41184 0.47621 0.0
C379 C 0.13905 0.40043 0.4758 0.0
H380 H 0.26306 0.40692 0.47277 0.0
H381 H 0.2243 0.41378 0.48248 0.0
H382 H 0.1669 0.37078 0.43386 0.0
H383 H 0.05883 0.39916 0.46419 0.0
H384 H 0.09335 0.37923 0.46544 0.0
C385 C 0.63318 0.2067 0.33302 0.0
C386 C 0.65752 0.20952 0.33793 0.0
C387 C 0.61825 0.18682 0.34475 0.0
C388 C 0.6176 0.12465 0.37789 0.0
H389 H 0.55692 0.13408 0.39925 0.0
C390 C 0.55514 0.05349 0.44233 0.0
C391 C 0.53109 0.05045 0.43501 0.0
C392 C 0.57125 0.07137 0.42913 0.0
C393 C 0.57371 0.13109 0.39313 0.0
H394 H 0.68527 0.19398 0.35942 0.0
H395 H 0.65918 0.15957 0.3805 0.0
H396 H 0.58369 0.16889 0.38036 0.0
H397 H 0.50543 0.06301 0.40696 0.0
H398 H 0.53349 0.09408 0.38412 0.0
H399 H 0.6076 0.08683 0.39141 0.0
C400 C 0.65162 0.17237 0.36705 0.0
C401 C 0.58908 0.15105 0.38224 0.0
C402 C 0.66659 0.19215 0.35509 0.0
C403 C 0.52376 0.06483 0.41327 0.0
C404 C 0.53981 0.0828 0.40027 0.0
C405 C 0.60227 0.1047 0.38908 0.0
C406 C 0.62723 0.16936 0.36193 0.0
C407 C 0.61118 0.14811 0.37427 0.0
C408 C 0.56362 0.0867 0.40848 0.0
C409 C 0.58008 0.10768 0.3966 0.0
H410 H 0.62569 0.21953 0.31953 0.0
H411 H 0.59965 0.18492 0.33987 0.0
H412 H 0.63431 0.12155 0.37167 0.0
H413 H 0.56145 0.04277 0.45897 0.0
H414 H 0.58949 0.07399 0.43592 0.0
C415 C 0.80243 0.69261 0.37717 0.0
C416 C 0.79891 0.69114 0.3495 0.0
C417 C 0.81902 0.68062 0.39116 0.0
C418 C 0.8718 0.65344 0.38253 0.0
H419 H 0.85434 0.61576 0.44775 0.0
C420 C 0.93532 0.60021 0.44588 0.0
C421 C 0.92558 0.57583 0.45355 0.0
C422 C 0.92098 0.61648 0.43476 0.0
C423 C 0.85949 0.62624 0.42958 0.0
H424 H 0.80995 0.67551 0.31499 0.0
H425 H 0.83892 0.65481 0.33934 0.0
H426 H 0.82713 0.63984 0.42485 0.0
H427 H 0.89307 0.54962 0.45609 0.0
H428 H 0.86831 0.57783 0.43692 0.0
H429 H 0.90392 0.63925 0.38695 0.0
C430 C 0.8291 0.66555 0.35016 0.0
C431 C 0.84398 0.6402 0.41658 0.0
C432 C 0.81246 0.67743 0.3362 0.0
C433 C 0.90123 0.56821 0.45024 0.0
C434 C 0.88695 0.58447 0.43948 0.0
C435 C 0.88737 0.63958 0.39564 0.0
C436 C 0.83256 0.66696 0.37781 0.0
C437 C 0.84978 0.65363 0.39265 0.0
C438 C 0.89662 0.60875 0.43149 0.0
C439 C 0.8812 0.62547 0.41904 0.0
H440 H 0.79259 0.70331 0.38802 0.0
H441 H 0.82143 0.68227 0.41242 0.0
H442 H 0.87691 0.66383 0.36431 0.0
H443 H 0.95399 0.60668 0.44831 0.0
H444 H 0.92891 0.63515 0.42892 0.0
C445 C 0.34973 0.81621 0.34339 0.0
C446 C 0.34909 0.79112 0.35069 0.0
C447 C 0.36325 0.83452 0.35837 0.0
C448 C 0.393 0.84542 0.4246 0.0
H449 H 0.42834 0.90259 0.388 0.0
C450 C 0.46713 0.91201 0.47673 0.0
C451 C 0.46962 0.93738 0.46983 0.0
C452 C 0.45087 0.89498 0.46298 0.0
C453 C 0.41832 0.88693 0.39856 0.0
H454 H 0.36234 0.76567 0.37953 0.0
H455 H 0.38604 0.79759 0.40562 0.0
H456 H 0.4034 0.87117 0.36248 0.0
H457 H 0.45649 0.96472 0.44334 0.0
H458 H 0.42795 0.93488 0.41929 0.0
H459 H 0.40819 0.86106 0.46067 0.0
C460 C 0.37578 0.80313 0.38849 0.0
C461 C 0.40402 0.86887 0.38392 0.0
C462 C 0.3622 0.7848 0.37351 0.0
C463 C 0.45506 0.94533 0.44914 0.0
C464 C 0.43881 0.92821 0.43525 0.0
C465 C 0.40734 0.86346 0.43924 0.0
C466 C 0.37653 0.82824 0.38106 0.0
C467 C 0.39129 0.84778 0.39673 0.0
C468 C 0.43667 0.9028 0.44188 0.0
C469 C 0.42032 0.88435 0.42639 0.0
H470 H 0.3395 0.82177 0.32623 0.0
H471 H 0.36307 0.85363 0.35231 0.0
H472 H 0.38314 0.82967 0.43517 0.0
H473 H 0.47802 0.90518 0.49257 0.0
H474 H 0.44991 0.87557 0.46843 0.0
C475 C 0.22107 0.60892 0.66173 0.0
C476 C 0.22664 0.63471 0.66283 0.0
C477 C 0.19996 0.59769 0.64968 0.0
C478 C 0.16466 0.58072 0.60589 0.0
H479 H 0.10565 0.60419 0.60667 0.0
C480 C 0.09044 0.54771 0.53075 0.0
C481 C 0.06769 0.5409 0.53985 0.0
C482 C 0.10832 0.56066 0.5466 0.0
C483 C 0.12196 0.59731 0.60641 0.0
H484 H 0.21337 0.66871 0.65334 0.0
H485 H 0.17693 0.64916 0.6314 0.0
H486 H 0.13912 0.6228 0.63473 0.0
H487 H 0.04559 0.54343 0.57229 0.0
H488 H 0.07712 0.56591 0.60039 0.0
H489 H 0.14766 0.555 0.57811 0.0
C490 C 0.18885 0.6376 0.64017 0.0
C491 C 0.14121 0.60813 0.6223 0.0
C492 C 0.20995 0.64885 0.65248 0.0
C493 C 0.06295 0.54843 0.56474 0.0
C494 C 0.08101 0.56132 0.58081 0.0
C495 C 0.14552 0.56994 0.59015 0.0
C496 C 0.18385 0.6119 0.63803 0.0
C497 C 0.16286 0.60001 0.62214 0.0
C498 C 0.10406 0.56699 0.57216 0.0
C499 C 0.12399 0.57825 0.58991 0.0
H500 H 0.23344 0.5973 0.66915 0.0
H501 H 0.19652 0.57782 0.64894 0.0
H502 H 0.18107 0.57418 0.60484 0.0
H503 H 0.09461 0.54253 0.51149 0.0
H504 H 0.12566 0.56532 0.53895 0.0
C505 C 0.37225 0.21386 0.64999 0.0
C506 C 0.34954 0.21806 0.64273 0.0
C507 C 0.38149 0.19582 0.63801 0.0
C508 C 0.36873 0.13909 0.60318 0.0
H509 H 0.42819 0.16338 0.57151 0.0
C510 C 0.41879 0.07744 0.54561 0.0
C511 C 0.44325 0.08181 0.54995 0.0
C512 C 0.40526 0.09319 0.55558 0.0
C513 C 0.41172 0.15617 0.58049 0.0
H514 H 0.31828 0.20588 0.61821 0.0
H515 H 0.33441 0.17378 0.59759 0.0
H516 H 0.40839 0.19173 0.5928 0.0
H517 H 0.47259 0.10532 0.569 0.0
H518 H 0.44918 0.13192 0.58715 0.0
H519 H 0.37252 0.10327 0.59171 0.0
C520 C 0.34502 0.18469 0.61239 0.0
C521 C 0.40036 0.17247 0.59257 0.0
C522 C 0.33587 0.20306 0.6241 0.0
C523 C 0.4538 0.10161 0.5651 0.0
C524 C 0.44036 0.11703 0.5753 0.0
C525 C 0.38031 0.1226 0.59137 0.0
C526 C 0.36813 0.18137 0.61879 0.0
C527 C 0.379 0.16403 0.60446 0.0
C528 C 0.41598 0.11339 0.57027 0.0
C529 C 0.40223 0.1309 0.58042 0.0
H530 H 0.38328 0.22528 0.66406 0.0
H531 H 0.39931 0.19348 0.6434 0.0
H532 H 0.3522 0.1322 0.61216 0.0
H533 H 0.41025 0.06244 0.53373 0.0
H534 H 0.38654 0.08994 0.55121 0.0
C535 C 0.82807 0.34878 0.67342 0.0
C536 C 0.80615 0.35635 0.67011 0.0
C537 C 0.8478 0.36266 0.66183 0.0
C538 C 0.87074 0.42544 0.63404 0.0
H539 H 0.91662 0.39317 0.6042 0.0
C540 C 0.95598 0.48191 0.59496 0.0
C541 C 0.96276 0.47562 0.57037 0.0
C542 C 0.93871 0.46614 0.60885 0.0
C543 C 0.90394 0.40249 0.61235 0.0
H544 H 0.78794 0.38458 0.65181 0.0
H545 H 0.82216 0.40843 0.63105 0.0
H546 H 0.88208 0.3684 0.62356 0.0
H547 H 0.95741 0.44709 0.54183 0.0
H548 H 0.92718 0.41978 0.56587 0.0
H549 H 0.89211 0.45951 0.62209 0.0
C550 C 0.82419 0.39192 0.64299 0.0
C551 C 0.88423 0.38827 0.62371 0.0
C552 C 0.80445 0.37805 0.65462 0.0
C553 C 0.95275 0.45253 0.56076 0.0
C554 C 0.93536 0.43681 0.5746 0.0
C555 C 0.8904 0.43964 0.62266 0.0
C556 C 0.84616 0.38449 0.64655 0.0
C557 C 0.8673 0.39956 0.63461 0.0
C558 C 0.92765 0.44372 0.59846 0.0
C559 C 0.90726 0.42838 0.61159 0.0
H560 H 0.83001 0.33199 0.6849 0.0
H561 H 0.86444 0.35646 0.66523 0.0
H562 H 0.85828 0.43481 0.64255 0.0
H563 H 0.96343 0.49945 0.60307 0.0
H564 H 0.93363 0.47182 0.62747 0.0
C565 C 0.68413 0.78992 0.60151 0.0
C566 C 0.68185 0.78274 0.62854 0.0
C567 C 0.67084 0.80657 0.58924 0.0
C568 C 0.64136 0.85647 0.60603 0.0
H569 H 0.61281 0.85111 0.53486 0.0
C570 C 0.57148 0.90582 0.53825 0.0
C571 C 0.58056 0.93049 0.54349 0.0
C572 C 0.58452 0.88728 0.54549 0.0
C573 C 0.62066 0.85277 0.55477 0.0
H574 H 0.66293 0.78621 0.66345 0.0
H575 H 0.6398 0.81528 0.64207 0.0
H576 H 0.63294 0.81838 0.5544 0.0
H577 H 0.61107 0.95525 0.55866 0.0
H578 H 0.63373 0.92299 0.57116 0.0
H579 H 0.62894 0.89053 0.60674 0.0
C580 C 0.65217 0.80842 0.63051 0.0
C581 C 0.63229 0.83416 0.56587 0.0
C582 C 0.66542 0.79181 0.64275 0.0
C583 C 0.60339 0.9364 0.55473 0.0
C584 C 0.61638 0.91791 0.56197 0.0
C585 C 0.62989 0.87503 0.59495 0.0
C586 C 0.65507 0.81635 0.60378 0.0
C587 C 0.64263 0.8358 0.59169 0.0
C588 C 0.60683 0.89311 0.55813 0.0
C589 C 0.61943 0.87342 0.56923 0.0
H590 H 0.69678 0.78338 0.5901 0.0
H591 H 0.67357 0.8125 0.56867 0.0
H592 H 0.64944 0.85843 0.62581 0.0
H593 H 0.554 0.90071 0.52939 0.0
H594 H 0.57672 0.86831 0.54231 0.0
C595 C 0.3613 0.23818 0.43205 0.0
C596 C 0.35713 0.25252 0.45267 0.0
C597 C 0.36635 0.21456 0.43757 0.0
C598 C 0.39016 0.17708 0.49166 0.0
H599 H 0.37398 0.12616 0.44092 0.0
C600 C 0.4098 0.07377 0.47004 0.0
C601 C 0.43412 0.07825 0.47547 0.0
C602 C 0.39681 0.09268 0.47119 0.0
C603 C 0.37833 0.13996 0.45559 0.0
H604 H 0.35382 0.25295 0.49511 0.0
H605 H 0.36229 0.21146 0.50478 0.0
H606 H 0.3563 0.16302 0.43544 0.0
H607 H 0.46384 0.106 0.48669 0.0
H608 H 0.44136 0.13893 0.48829 0.0
H609 H 0.41215 0.15391 0.51184 0.0
C610 C 0.36217 0.21868 0.48438 0.0
C611 C 0.36844 0.16127 0.45223 0.0
C612 C 0.35729 0.24241 0.47886 0.0
C613 C 0.44512 0.10191 0.48243 0.0
C614 C 0.43217 0.12076 0.48361 0.0
C615 C 0.39993 0.15568 0.49512 0.0
C616 C 0.36717 0.20462 0.46384 0.0
C617 C 0.37482 0.18045 0.46971 0.0
C618 C 0.4079 0.11646 0.47775 0.0
C619 C 0.39473 0.13725 0.47661 0.0
H620 H 0.36161 0.24559 0.41172 0.0
H621 H 0.37054 0.20451 0.42128 0.0
H622 H 0.39555 0.19146 0.5055 0.0
H623 H 0.40078 0.05565 0.4649 0.0
H624 H 0.3781 0.08872 0.46683 0.0
C625 C 0.81953 0.34949 0.33554 0.0
C626 C 0.79626 0.3522 0.33901 0.0
C627 C 0.83802 0.36212 0.35101 0.0
C628 C 0.85108 0.39253 0.41446 0.0
H629 H 0.9077 0.42566 0.38174 0.0
C630 C 0.9178 0.46502 0.46788 0.0
C631 C 0.94183 0.4666 0.4641 0.0
C632 C 0.90109 0.44914 0.45338 0.0
C633 C 0.89219 0.41616 0.3913 0.0
H634 H 0.77442 0.3708 0.36133 0.0
H635 H 0.80663 0.39257 0.38848 0.0
H636 H 0.87644 0.402 0.35472 0.0
H637 H 0.96709 0.4522 0.44238 0.0
H638 H 0.93775 0.42407 0.41713 0.0
H639 H 0.86669 0.40664 0.45099 0.0
C640 C 0.81051 0.38042 0.37395 0.0
C641 C 0.87424 0.40266 0.37578 0.0
C642 C 0.79202 0.36791 0.35838 0.0
C643 C 0.94874 0.45146 0.44575 0.0
C644 C 0.93192 0.43547 0.43116 0.0
C645 C 0.86904 0.40589 0.42998 0.0
C646 C 0.83372 0.37766 0.37048 0.0
C647 C 0.85333 0.39099 0.38712 0.0
C648 C 0.90786 0.43425 0.4347 0.0
C649 C 0.88969 0.41823 0.41854 0.0
H650 H 0.82346 0.33723 0.32116 0.0
H651 H 0.85567 0.35937 0.34806 0.0
H652 H 0.83539 0.38334 0.42391 0.0
H653 H 0.91177 0.47642 0.48178 0.0
H654 H 0.88277 0.44905 0.45635 0.0
C655 C 0.68807 0.82873 0.36052 0.0
C656 C 0.67828 0.80377 0.35769 0.0
C657 C 0.67702 0.84376 0.37503 0.0
C658 C 0.63302 0.84146 0.4258 0.0
H659 H 0.62892 0.90752 0.39751 0.0
C660 C 0.5675 0.89729 0.46223 0.0
C661 C 0.57437 0.92282 0.46463 0.0
C662 C 0.58212 0.88353 0.45121 0.0
C663 C 0.63023 0.88927 0.40592 0.0
H664 H 0.64927 0.77504 0.3683 0.0
H665 H 0.62978 0.80134 0.39322 0.0
H666 H 0.65043 0.88192 0.37417 0.0
H667 H 0.60235 0.95381 0.45784 0.0
H668 H 0.62802 0.92966 0.43838 0.0
H669 H 0.61252 0.84869 0.45733 0.0
C670 C 0.64617 0.80924 0.38443 0.0
C671 C 0.64254 0.87456 0.39252 0.0
C672 C 0.6572 0.79421 0.36987 0.0
C673 C 0.59649 0.93421 0.45615 0.0
C674 C 0.61113 0.92039 0.4449 0.0
C675 C 0.62072 0.85616 0.43918 0.0
C676 C 0.6559 0.83423 0.38712 0.0
C677 C 0.64383 0.85035 0.4021 0.0
C678 C 0.60404 0.89489 0.44219 0.0
C679 C 0.61888 0.88012 0.42921 0.0
H680 H 0.70414 0.8368 0.35115 0.0
H681 H 0.68512 0.86285 0.37688 0.0
H682 H 0.63405 0.8231 0.43404 0.0
H683 H 0.55065 0.88784 0.46871 0.0
H684 H 0.57595 0.86402 0.44915 0.0
C685 C 0.19428 0.65956 0.36101 0.0
C686 C 0.20399 0.65234 0.33852 0.0
C687 C 0.17409 0.64539 0.37139 0.0
C688 C 0.13902 0.5826 0.37231 0.0
H689 H 0.09048 0.61438 0.39708 0.0
C690 C 0.05311 0.52528 0.40858 0.0
C691 C 0.04542 0.532 0.43252 0.0
C692 C 0.07053 0.54108 0.39492 0.0
C693 C 0.10393 0.60522 0.39041 0.0
H694 H 0.19973 0.62469 0.30909 0.0
H695 H 0.16471 0.59997 0.32726 0.0
H696 H 0.12526 0.63943 0.37838 0.0
H697 H 0.04919 0.56134 0.46 0.0
H698 H 0.07959 0.58869 0.43633 0.0
H699 H 0.11797 0.54844 0.38463 0.0
C700 C 0.17288 0.6164 0.33711 0.0
C701 C 0.1239 0.61958 0.37974 0.0
C702 C 0.19302 0.63057 0.32673 0.0
C703 C 0.0546 0.55553 0.4416 0.0
C704 C 0.07207 0.57128 0.42797 0.0
C705 C 0.11911 0.56826 0.383 0.0
C706 C 0.16313 0.62364 0.35955 0.0
C707 C 0.14173 0.60844 0.37063 0.0
C708 C 0.08074 0.56396 0.40488 0.0
C709 C 0.10132 0.57937 0.39227 0.0
H710 H 0.20242 0.67604 0.37081 0.0
H711 H 0.16727 0.65129 0.38894 0.0
H712 H 0.15256 0.57341 0.36589 0.0
H713 H 0.04636 0.50739 0.40088 0.0
H714 H 0.07642 0.53507 0.37687 0.0
C715 C 0.39108 0.79172 0.6731 0.0
C716 C 0.37011 0.78089 0.66004 0.0
C717 C 0.40278 0.815 0.66451 0.0
C718 C 0.40785 0.85703 0.60446 0.0
H719 H 0.44353 0.90361 0.65222 0.0
C720 C 0.45843 0.94942 0.56418 0.0
C721 C 0.48193 0.95518 0.57357 0.0
C722 C 0.44278 0.93091 0.57706 0.0
C723 C 0.43369 0.89075 0.63864 0.0
H724 H 0.34429 0.7866 0.62869 0.0
H725 H 0.3644 0.82733 0.61399 0.0
H726 H 0.41974 0.86592 0.67033 0.0
H727 H 0.50686 0.94702 0.60504 0.0
H728 H 0.47954 0.91476 0.62744 0.0
H729 H 0.42196 0.8816 0.5728 0.0
C730 C 0.37221 0.8176 0.63042 0.0
C731 C 0.42009 0.86912 0.64901 0.0
C732 C 0.36062 0.79428 0.63889 0.0
C733 C 0.48893 0.94308 0.59718 0.0
C734 C 0.47323 0.92459 0.61011 0.0
C735 C 0.42131 0.87865 0.59414 0.0
C736 C 0.3937 0.82808 0.64275 0.0
C737 C 0.40715 0.85185 0.63203 0.0
C738 C 0.45018 0.91774 0.59971 0.0
C739 C 0.43457 0.8957 0.61107 0.0
H740 H 0.39896 0.78176 0.68929 0.0
H741 H 0.4194 0.8223 0.67431 0.0
H742 H 0.39855 0.84399 0.59072 0.0
H743 H 0.45233 0.95842 0.54615 0.0
H744 H 0.42502 0.9264 0.56882 0.0
C745 C 0.21588 0.33266 0.6422 0.0
C746 C 0.2384 0.34588 0.63722 0.0
C747 C 0.19586 0.3413 0.63147 0.0
C748 C 0.17663 0.39872 0.61139 0.0
H749 H 0.12713 0.36207 0.56745 0.0
C750 C 0.11375 0.44863 0.5489 0.0
C751 C 0.08977 0.43861 0.54738 0.0
C752 C 0.13001 0.43488 0.56013 0.0
C753 C 0.14062 0.37237 0.58006 0.0
H754 H 0.25735 0.37771 0.61558 0.0
H755 H 0.22261 0.39306 0.59784 0.0
H756 H 0.15907 0.34188 0.58697 0.0
H757 H 0.06414 0.40583 0.55569 0.0
H758 H 0.09283 0.38172 0.57621 0.0
H759 H 0.15854 0.4291 0.6049 0.0
C760 C 0.22047 0.37617 0.61021 0.0
C761 C 0.15887 0.36085 0.59113 0.0
C762 C 0.24037 0.36744 0.62059 0.0
C763 C 0.08248 0.41412 0.55682 0.0
C764 C 0.0989 0.4003 0.56839 0.0
C765 C 0.1584 0.41008 0.60066 0.0
C766 C 0.19806 0.36342 0.61584 0.0
C767 C 0.17731 0.37419 0.60632 0.0
C768 C 0.12282 0.41077 0.57059 0.0
C769 C 0.14052 0.39732 0.58423 0.0
H770 H 0.21367 0.31605 0.655 0.0
H771 H 0.17872 0.3312 0.63611 0.0
H772 H 0.19043 0.40926 0.62343 0.0
H773 H 0.12015 0.46723 0.54132 0.0
H774 H 0.14834 0.44327 0.56068 0.0
C775 C 0.64818 0.19854 0.66742 0.0
C776 C 0.6599 0.21996 0.65425 0.0
C777 C 0.63519 0.17944 0.65304 0.0
C778 C 0.6023 0.16697 0.59037 0.0
H779 H 0.61114 0.09937 0.60471 0.0
C780 C 0.55284 0.09027 0.52613 0.0
C781 C 0.54496 0.06701 0.5384 0.0
C782 C 0.56845 0.10811 0.5396 0.0
C783 C 0.60814 0.11805 0.60065 0.0
H784 H 0.66703 0.23826 0.61573 0.0
H785 H 0.64377 0.20508 0.59056 0.0
H786 H 0.6346 0.13216 0.6299 0.0
H787 H 0.54766 0.04396 0.57422 0.0
H788 H 0.57421 0.07539 0.5983 0.0
H789 H 0.57527 0.15316 0.56203 0.0
C790 C 0.64486 0.20303 0.61202 0.0
C791 C 0.62171 0.13686 0.61504 0.0
C792 C 0.65822 0.22194 0.62639 0.0
C793 C 0.55357 0.06169 0.56421 0.0
C794 C 0.56888 0.07976 0.57797 0.0
C795 C 0.58845 0.14819 0.57633 0.0
C796 C 0.63329 0.18153 0.62519 0.0
C797 C 0.61899 0.16152 0.60996 0.0
C798 C 0.57624 0.10342 0.566 0.0
C799 C 0.59122 0.12341 0.58111 0.0
H800 H 0.64935 0.19643 0.68888 0.0
H801 H 0.62633 0.16316 0.66371 0.0
H802 H 0.59959 0.18578 0.5863 0.0
H803 H 0.54672 0.09479 0.50609 0.0
H804 H 0.57421 0.1257 0.52928 0.0
C805 C 0.80482 0.6812 0.58155 0.0
C806 C 0.79621 0.66946 0.60531 0.0
C807 C 0.81867 0.66992 0.5661 0.0
C808 C 0.83802 0.61001 0.558 0.0
H809 H 0.89427 0.65148 0.53281 0.0
C810 C 0.91167 0.5668 0.52019 0.0
C811 C 0.93439 0.57701 0.52938 0.0
C812 C 0.89308 0.57936 0.52224 0.0
C813 C 0.87866 0.63963 0.53975 0.0
H814 H 0.79518 0.63675 0.63149 0.0
H815 H 0.81958 0.61735 0.60503 0.0
H816 H 0.86402 0.67028 0.55058 0.0
H817 H 0.95549 0.60866 0.5475 0.0
H818 H 0.92297 0.62993 0.55247 0.0
H819 H 0.85334 0.57929 0.5492 0.0
C820 C 0.81519 0.6349 0.59777 0.0
C821 C 0.86114 0.65044 0.54959 0.0
C822 C 0.80125 0.64606 0.61304 0.0
C823 C 0.9382 0.60027 0.54023 0.0
C824 C 0.91954 0.61263 0.54276 0.0
C825 C 0.85564 0.5992 0.54851 0.0
C826 C 0.8243 0.64678 0.57426 0.0
C827 C 0.84096 0.63569 0.55966 0.0
C828 C 0.89667 0.60215 0.53417 0.0
C829 C 0.87651 0.61384 0.54005 0.0
H830 H 0.80097 0.69916 0.57502 0.0
H831 H 0.82517 0.67943 0.54794 0.0
H832 H 0.82246 0.59814 0.56503 0.0
H833 H 0.9081 0.5489 0.51173 0.0
H834 H 0.87581 0.57094 0.51495 0.0
C835 C 0.39233 0.39079 0.30259 0.0
C836 C 0.37074 0.39407 0.31173 0.0
C837 C 0.39934 0.40017 0.2775 0.0
C838 C 0.37744 0.42424 0.21239 0.0
H839 H 0.44342 0.44977 0.20489 0.0
C840 C 0.41882 0.44588 0.11028 0.0
C841 C 0.43847 0.4647 0.10812 0.0
C842 C 0.40887 0.4393 0.1348 0.0
C843 C 0.42486 0.44312 0.20659 0.0
H844 H 0.3394 0.4095 0.30115 0.0
H845 H 0.35206 0.4267 0.25778 0.0
H846 H 0.42953 0.43465 0.24809 0.0
H847 H 0.46223 0.49225 0.12979 0.0
H848 H 0.44427 0.48164 0.17206 0.0
H849 H 0.37275 0.43347 0.17091 0.0
C850 C 0.36341 0.41648 0.2699 0.0
C851 C 0.41693 0.43399 0.23139 0.0
C852 C 0.35628 0.40688 0.29496 0.0
C853 C 0.44719 0.47759 0.13072 0.0
C854 C 0.43701 0.4713 0.15509 0.0
C855 C 0.38536 0.43362 0.18755 0.0
C856 C 0.38512 0.41339 0.26093 0.0
C857 C 0.39319 0.4241 0.23459 0.0
C858 C 0.41814 0.45161 0.15765 0.0
C859 C 0.40923 0.44297 0.18428 0.0
H860 H 0.40413 0.38136 0.315 0.0
H861 H 0.41598 0.39699 0.27113 0.0
H862 H 0.35905 0.41664 0.21403 0.0
H863 H 0.41169 0.43554 0.09326 0.0
H864 H 0.39451 0.42389 0.13597 0.0
C865 C 0.37444 0.65071 0.81713 0.0
C866 C 0.37262 0.63768 0.79383 0.0
C867 C 0.38535 0.64203 0.84039 0.0
C868 C 0.40484 0.58599 0.87223 0.0
H869 H 0.44926 0.63272 0.91193 0.0
C870 C 0.46029 0.55308 0.96093 0.0
C871 C 0.48428 0.56324 0.96126 0.0
C872 C 0.44417 0.56364 0.94439 0.0
C873 C 0.43692 0.61941 0.90107 0.0
H874 H 0.38001 0.6048 0.77708 0.0
H875 H 0.3993 0.59001 0.81721 0.0
H876 H 0.42566 0.64754 0.87503 0.0
H877 H 0.50983 0.59336 0.9454 0.0
H878 H 0.48191 0.61147 0.91649 0.0
H879 H 0.41685 0.55778 0.89734 0.0
C880 C 0.39221 0.60682 0.81772 0.0
C881 C 0.42318 0.62794 0.88008 0.0
C882 C 0.3814 0.61549 0.79454 0.0
C883 C 0.49152 0.58497 0.9457 0.0
C884 C 0.47543 0.59548 0.92916 0.0
C885 C 0.41859 0.57746 0.89316 0.0
C886 C 0.39453 0.62006 0.8409 0.0
C887 C 0.40731 0.61129 0.86502 0.0
C888 C 0.45162 0.58462 0.92776 0.0
C889 C 0.43515 0.59402 0.90755 0.0
H890 H 0.36796 0.66792 0.81722 0.0
H891 H 0.38664 0.65258 0.85795 0.0
H892 H 0.39254 0.57265 0.86136 0.0
H893 H 0.45402 0.53641 0.97269 0.0
H894 H 0.42591 0.55502 0.94419 0.0
C895 C 0.37691 0.34029 0.80746 0.0
C896 C 0.36317 0.35135 0.78811 0.0
C897 C 0.38761 0.3535 0.82901 0.0
C898 C 0.41327 0.4153 0.84492 0.0
H899 H 0.40819 0.3939 0.91913 0.0
C900 C 0.46072 0.4776 0.92477 0.0
C901 C 0.47052 0.46656 0.94738 0.0
C902 C 0.44508 0.46341 0.90743 0.0
C903 C 0.41011 0.40004 0.89852 0.0
H904 H 0.34965 0.38472 0.77629 0.0
H905 H 0.36879 0.40793 0.81358 0.0
H906 H 0.38599 0.36852 0.88507 0.0
H907 H 0.47128 0.43221 0.97011 0.0
H908 H 0.44486 0.40705 0.93917 0.0
H909 H 0.43817 0.44598 0.85763 0.0
C910 C 0.37098 0.38897 0.81225 0.0
C911 C 0.39726 0.38552 0.87906 0.0
C912 C 0.35993 0.37565 0.79104 0.0
C913 C 0.46379 0.44116 0.95287 0.0
C914 C 0.44856 0.42678 0.9351 0.0
C915 C 0.42646 0.42951 0.86421 0.0
C916 C 0.38514 0.37814 0.83124 0.0
C917 C 0.39862 0.39316 0.85212 0.0
C918 C 0.43937 0.43765 0.91178 0.0
C919 C 0.42498 0.42226 0.89136 0.0
H920 H 0.37966 0.32158 0.80566 0.0
H921 H 0.39857 0.34481 0.84334 0.0
H922 H 0.41491 0.42138 0.82422 0.0
H923 H 0.46545 0.49724 0.92029 0.0
H924 H 0.43781 0.47271 0.89032 0.0
C925 C 0.67243 0.35523 0.81636 0.0
C926 C 0.67384 0.3604 0.78882 0.0
C927 C 0.66177 0.3697 0.83202 0.0
C928 C 0.62058 0.41454 0.82686 0.0
H929 H 0.64082 0.42341 0.90059 0.0
C930 C 0.56272 0.44989 0.89882 0.0
C931 C 0.57311 0.46482 0.91932 0.0
C932 C 0.57635 0.43881 0.88297 0.0
C933 C 0.63509 0.42145 0.87995 0.0
H934 H 0.66523 0.38539 0.75643 0.0
H935 H 0.64774 0.41122 0.78382 0.0
H936 H 0.66276 0.40212 0.87278 0.0
H937 H 0.60608 0.48012 0.93904 0.0
H938 H 0.63014 0.46126 0.91082 0.0
H939 H 0.59345 0.43459 0.83369 0.0
C940 C 0.65432 0.39553 0.79328 0.0
C941 C 0.64749 0.40884 0.86404 0.0
C942 C 0.66472 0.38086 0.77755 0.0
C943 C 0.59756 0.46852 0.92355 0.0
C944 C 0.61131 0.45763 0.9074 0.0
C945 C 0.60838 0.42738 0.84265 0.0
C946 C 0.65245 0.39002 0.82073 0.0
C947 C 0.6402 0.40485 0.83735 0.0
C948 C 0.60086 0.44262 0.88683 0.0
C949 C 0.61515 0.43063 0.86957 0.0
H950 H 0.67962 0.33998 0.82597 0.0
H951 H 0.66047 0.36457 0.85296 0.0
H952 H 0.61417 0.41172 0.80656 0.0
H953 H 0.54391 0.44645 0.89514 0.0
H954 H 0.56751 0.42693 0.86789 0.0
C955 C 0.6745 0.62136 0.74804 0.0
C956 C 0.69414 0.63791 0.75732 0.0
C957 C 0.66175 0.60424 0.76557 0.0
C958 C 0.66418 0.57466 0.83335 0.0
H959 H 0.59706 0.57277 0.82927 0.0
C960 C 0.60748 0.55333 0.92341 0.0
C961 C 0.58424 0.54105 0.92029 0.0
C962 C 0.62141 0.55896 0.90157 0.0
C963 C 0.6157 0.57258 0.83039 0.0
H964 H 0.71592 0.64918 0.79226 0.0
H965 H 0.69377 0.61938 0.82273 0.0
H966 H 0.62074 0.59441 0.7941 0.0
H967 H 0.55782 0.52371 0.89203 0.0
H968 H 0.58226 0.53366 0.85374 0.0
H969 H 0.65919 0.55361 0.87019 0.0
C970 C 0.68841 0.61934 0.80185 0.0
C971 C 0.62929 0.58503 0.81023 0.0
C972 C 0.70111 0.63648 0.78437 0.0
C973 C 0.57559 0.53344 0.89504 0.0
C974 C 0.58955 0.53916 0.87311 0.0
C975 C 0.65059 0.5622 0.8535 0.0
C976 C 0.66841 0.60325 0.79272 0.0
C977 C 0.65376 0.58685 0.81191 0.0
C978 C 0.61245 0.55246 0.87608 0.0
C979 C 0.62629 0.5617 0.85265 0.0
H980 H 0.66891 0.62171 0.72723 0.0
H981 H 0.64656 0.59189 0.75791 0.0
H982 H 0.68295 0.57534 0.83493 0.0
H983 H 0.61477 0.55927 0.94262 0.0
H984 H 0.63888 0.56946 0.90453 0.0
C985 C 0.65028 0.65247 0.2226 0.0
C986 C 0.66481 0.67412 0.2134 0.0
C987 C 0.63719 0.63644 0.20473 0.0
C988 C 0.61256 0.63372 0.13564 0.0
H989 H 0.60689 0.56318 0.14974 0.0
C990 C 0.5617 0.5633 0.06303 0.0
C991 C 0.54677 0.54325 0.07489 0.0
C992 C 0.57793 0.57897 0.07863 0.0
C993 C 0.60816 0.58283 0.14559 0.0
H994 H 0.67716 0.69557 0.17801 0.0
H995 H 0.65422 0.66771 0.14691 0.0
H996 H 0.63118 0.59121 0.17965 0.0
H997 H 0.53767 0.52364 0.11243 0.0
H998 H 0.56564 0.55083 0.13936 0.0
H999 H 0.58925 0.62531 0.10176 0.0
C1000 C 0.65273 0.6633 0.16798 0.0
C1001 C 0.62207 0.59891 0.16277 0.0
C1002 C 0.66586 0.67931 0.18585 0.0
C1003 C 0.54886 0.53889 0.10256 0.0
C1004 C 0.56506 0.55443 0.11806 0.0
C1005 C 0.5986 0.61762 0.11845 0.0
C1006 C 0.63826 0.64163 0.17719 0.0
C1007 C 0.62423 0.62456 0.15821 0.0
C1008 C 0.57967 0.57481 0.10638 0.0
C1009 C 0.59598 0.59196 0.1234 0.0
H1010 H 0.64874 0.64806 0.24365 0.0
H1011 H 0.62593 0.62013 0.21253 0.0
H1012 H 0.61365 0.65337 0.13167 0.0
H1013 H 0.56056 0.56717 0.04178 0.0
H1014 H 0.5891 0.59435 0.06897 0.0
C1015 C 0.32761 0.63527 0.20431 0.0
C1016 C 0.33938 0.65099 0.22355 0.0
C1017 C 0.33984 0.6215 0.18962 0.0
C1018 C 0.39992 0.61939 0.16954 0.0
H1019 H 0.3725 0.55343 0.14944 0.0
C1020 C 0.45404 0.55574 0.12509 0.0
C1021 C 0.44441 0.54322 0.10253 0.0
C1022 C 0.44048 0.56817 0.13957 0.0
C1023 C 0.38027 0.57192 0.1547 0.0
H1024 H 0.37337 0.66414 0.24253 0.0
H1025 H 0.39449 0.6395 0.21769 0.0
H1026 H 0.35052 0.57617 0.17593 0.0
H1027 H 0.4127 0.53338 0.07794 0.0
H1028 H 0.38883 0.55507 0.10353 0.0
H1029 H 0.42981 0.61496 0.14871 0.0
C1030 C 0.37584 0.63822 0.2135 0.0
C1031 C 0.36768 0.585 0.16986 0.0
C1032 C 0.36364 0.65212 0.22808 0.0
C1033 C 0.42067 0.54294 0.09514 0.0
C1034 C 0.40698 0.55525 0.10985 0.0
C1035 C 0.41254 0.60626 0.15462 0.0
C1036 C 0.36417 0.62292 0.19386 0.0
C1037 C 0.37739 0.60889 0.17759 0.0
C1038 C 0.41687 0.56827 0.13202 0.0
C1039 C 0.40293 0.58234 0.14714 0.0
H1040 H 0.30888 0.63358 0.20055 0.0
H1041 H 0.33025 0.6101 0.17455 0.0
H1042 H 0.40778 0.63793 0.17452 0.0
H1043 H 0.47223 0.55627 0.13147 0.0
H1044 H 0.44851 0.57769 0.15678 0.0
C1045 C 0.63854 0.33343 0.18212 0.0
C1046 C 0.65511 0.34708 0.19942 0.0
C1047 C 0.6242 0.34519 0.16442 0.0
C1048 C 0.62018 0.40248 0.12678 0.0
H1049 H 0.553 0.38132 0.12843 0.0
C1050 C 0.55521 0.45663 0.06867 0.0
C1051 C 0.53321 0.44388 0.06004 0.0
C1052 C 0.57079 0.44446 0.08416 0.0
C1053 C 0.5717 0.38719 0.12719 0.0
H1054 H 0.66949 0.38415 0.21115 0.0
H1055 H 0.64504 0.40463 0.17935 0.0
H1056 H 0.57884 0.36094 0.15821 0.0
H1057 H 0.5108 0.4081 0.05968 0.0
H1058 H 0.5384 0.38653 0.08542 0.0
H1059 H 0.6133 0.42817 0.09523 0.0
C1060 C 0.64317 0.38474 0.17986 0.0
C1061 C 0.58649 0.37559 0.14448 0.0
C1062 C 0.65725 0.37295 0.19798 0.0
C1063 C 0.52756 0.41846 0.06622 0.0
C1064 C 0.54334 0.40617 0.08125 0.0
C1065 C 0.60542 0.41379 0.10908 0.0
C1066 C 0.62638 0.37093 0.16311 0.0
C1067 C 0.61084 0.38321 0.14455 0.0
C1068 C 0.56497 0.41909 0.09102 0.0
C1069 C 0.58092 0.40642 0.10912 0.0
H1070 H 0.63671 0.3136 0.18196 0.0
H1071 H 0.61156 0.33415 0.15147 0.0
H1072 H 0.63894 0.40851 0.12629 0.0
H1073 H 0.55998 0.47631 0.06451 0.0
H1074 H 0.58703 0.45524 0.09154 0.0
loop_
_geom_bond_atom_site_label_1
_geom_bond_atom_site_label_2
_geom_bond_distance
_geom_bond_site_symmetry_2
_ccdc_geom_bond_type
P0 O11 1.490 . S
P0 C14 1.812 . S
P0 C20 1.803 . S
P0 C26 1.819 . S
H1 C15 0.941 . S
H2 C16 0.939 . S
H3 C18 0.940 . S
H4 C19 0.940 . S
H5 C21 0.939 . S
H6 C22 0.942 . S
H7 C24 0.940 . S
H8 C25 0.939 . S
H9 C27 0.941 . S
H10 C31 0.939 . S
O11 P0 1.490 . S
H12 C28 0.939 . S
H13 C30 0.940 . S
C14 P0 1.812 . S
C14 C15 1.389 . S
C14 C19 1.391 . S
C15 H1 0.941 . S
C15 C14 1.389 . S
C15 C16 1.397 . S
C16 H2 0.939 . S
C16 C15 1.397 . S
C16 C17 1.378 . S
C17 C16 1.378 . S
C17 C18 1.378 . S
C18 H3 0.940 . S
C18 C17 1.378 . S
C18 C19 1.396 . S
C19 H4 0.940 . S
C19 C14 1.391 . S
C19 C18 1.396 . S
C20 P0 1.803 . S
C20 C21 1.378 . S
C20 C25 1.400 . S
C21 H5 0.939 . S
C21 C20 1.378 . S
C21 C22 1.361 . S
C22 H6 0.942 . S
C22 C21 1.361 . S
C22 C23 1.369 . S
C23 C22 1.369 . S
C23 C24 1.404 . S
C24 H7 0.940 . S
C24 C23 1.404 . S
C24 C25 1.389 . S
C25 H8 0.939 . S
C25 C20 1.400 . S
C25 C24 1.389 . S
C26 P0 1.819 . S
C26 C27 1.391 . S
C26 C31 1.391 . S
C27 H9 0.941 . S
C27 C26 1.391 . S
C27 C28 1.396 . S
C28 H12 0.939 . S
C28 C27 1.396 . S
C28 C29 1.397 . S
C29 C28 1.397 . S
C29 C30 1.385 . S
C30 H13 0.940 . S
C30 C29 1.385 . S
C30 C31 1.388 . S
C31 H10 0.939 . S
C31 C26 1.391 . S
C31 C30 1.388 . S
P32 O43 1.490 . S
P32 C46 1.812 . S
P32 C52 1.803 . S
P32 C58 1.819 . S
H33 C47 0.941 . S
H34 C48 0.939 . S
H35 C50 0.940 . S
H36 C51 0.940 . S
H37 C53 0.939 . S
H38 C54 0.942 . S
H39 C56 0.940 . S
H40 C57 0.939 . S
H41 C59 0.941 . S
H42 C63 0.939 . S
O43 P32 1.490 . S
H44 C60 0.939 . S
H45 C62 0.940 . S
C46 P32 1.812 . S
C46 C47 1.389 . S
C46 C51 1.391 . S
C47 H33 0.941 . S
C47 C46 1.389 . S
C47 C48 1.397 . S
C48 H34 0.939 . S
C48 C47 1.397 . S
C48 C49 1.378 . S
C49 C48 1.378 . S
C49 C50 1.378 . S
C50 H35 0.940 . S
C50 C49 1.378 . S
C50 C51 1.396 . S
C51 H36 0.940 . S
C51 C46 1.391 . S
C51 C50 1.396 . S
C52 P32 1.803 . S
C52 C53 1.378 . S
C52 C57 1.400 . S
C53 H37 0.939 . S
C53 C52 1.378 . S
C53 C54 1.361 . S
C54 H38 0.942 . S
C54 C53 1.361 . S
C54 C55 1.369 . S
C55 C54 1.369 . S
C55 C56 1.404 . S
C56 H39 0.940 . S
C56 C55 1.404 . S
C56 C57 1.389 . S
C57 H40 0.939 . S
C57 C52 1.400 . S
C57 C56 1.389 . S
C58 P32 1.819 . S
C58 C59 1.391 . S
C58 C63 1.391 . S
C59 H41 0.941 . S
C59 C58 1.391 . S
C59 C60 1.396 . S
C60 H44 0.939 . S
C60 C59 1.396 . S
C60 C61 1.397 . S
C61 C60 1.397 . S
C61 C62 1.385 . S
C62 H45 0.940 . S
C62 C61 1.385 . S
C62 C63 1.388 . S
C63 H42 0.939 . S
C63 C58 1.391 . S
C63 C62 1.388 . S
P64 O75 1.490 . S
P64 C78 1.812 . S
P64 C84 1.803 . S
P64 C90 1.819 . S
H65 C79 0.941 . S
H66 C80 0.939 . S
H67 C82 0.940 . S
H68 C83 0.940 . S
H69 C85 0.939 . S
H70 C86 0.942 . S
H71 C88 0.940 . S
H72 C89 0.939 . S
H73 C91 0.941 . S
H74 C95 0.939 . S
O75 P64 1.490 . S
H76 C92 0.939 . S
H77 C94 0.940 . S
C78 P64 1.812 . S
C78 C79 1.389 . S
C78 C83 1.391 . S
C79 H65 0.941 . S
C79 C78 1.389 . S
C79 C80 1.397 . S
C80 H66 0.939 . S
C80 C79 1.397 . S
C80 C81 1.378 . S
C81 C80 1.378 . S
C81 C82 1.378 . S
C82 H67 0.940 . S
C82 C81 1.378 . S
C82 C83 1.396 . S
C83 H68 0.940 . S
C83 C78 1.391 . S
C83 C82 1.396 . S
C84 P64 1.803 . S
C84 C85 1.378 . S
C84 C89 1.400 . S
C85 H69 0.939 . S
C85 C84 1.378 . S
C85 C86 1.361 . S
C86 H70 0.942 . S
C86 C85 1.361 . S
C86 C87 1.369 . S
C87 C86 1.369 . S
C87 C88 1.404 . S
C88 H71 0.940 . S
C88 C87 1.404 . S
C88 C89 1.389 . S
C89 H72 0.939 . S
C89 C84 1.400 . S
C89 C88 1.389 . S
C90 P64 1.819 . S
C90 C91 1.391 . S
C90 C95 1.391 . S
C91 H73 0.941 . S
C91 C90 1.391 . S
C91 C92 1.396 . S
C92 H76 0.939 . S
C92 C91 1.396 . S
C92 C93 1.397 . S
C93 C92 1.397 . S
C93 C94 1.385 . S
C94 H77 0.940 . S
C94 C93 1.385 . S
C94 C95 1.388 . S
C95 H74 0.939 . S
C95 C90 1.391 . S
C95 C94 1.388 . S
P96 O107 1.490 . S
P96 C110 1.812 . S
P96 C116 1.803 . S
P96 C122 1.819 . S
H97 C111 0.941 . S
H98 C112 0.939 . S
H99 C114 0.940 . S
H100 C115 0.940 . S
H101 C117 0.939 . S
H102 C118 0.942 . S
H103 C120 0.940 . S
H104 C121 0.939 . S
H105 C123 0.941 . S
H106 C127 0.939 . S
O107 P96 1.490 . S
H108 C124 0.939 . S
H109 C126 0.940 . S
C110 P96 1.812 . S
C110 C111 1.389 . S
C110 C115 1.391 . S
C111 H97 0.941 . S
C111 C110 1.389 . S
C111 C112 1.397 . S
C112 H98 0.939 . S
C112 C111 1.397 . S
C112 C113 1.378 . S
C113 C112 1.378 . S
C113 C114 1.378 . S
C114 H99 0.940 . S
C114 C113 1.378 . S
C114 C115 1.396 . S
C115 H100 0.940 . S
C115 C110 1.391 . S
C115 C114 1.396 . S
C116 P96 1.803 . S
C116 C117 1.378 . S
C116 C121 1.400 . S
C117 H101 0.939 . S
C117 C116 1.378 . S
C117 C118 1.361 . S
C118 H102 0.942 . S
C118 C117 1.361 . S
C118 C119 1.369 . S
C119 C118 1.369 . S
C119 C120 1.404 . S
C120 H103 0.940 . S
C120 C119 1.404 . S
C120 C121 1.389 . S
C121 H104 0.939 . S
C121 C116 1.400 . S
C121 C120 1.389 . S
C122 P96 1.819 . S
C122 C123 1.391 . S
C122 C127 1.391 . S
C123 H105 0.941 . S
C123 C122 1.391 . S
C123 C124 1.396 . S
C124 H108 0.939 . S
C124 C123 1.396 . S
C124 C125 1.397 . S
C125 C124 1.397 . S
C125 C126 1.385 . S
C126 H109 0.940 . S
C126 C125 1.385 . S
C126 C127 1.388 . S
C127 H106 0.939 . S
C127 C122 1.391 . S
C127 C126 1.388 . S
P128 O139 1.490 . S
P128 C142 1.812 . S
P128 C148 1.803 . S
P128 C154 1.819 . S
H129 C143 0.941 . S
H130 C144 0.939 . S
H131 C146 0.940 . S
H132 C147 0.940 . S
H133 C149 0.939 . S
H134 C150 0.942 . S
H135 C152 0.940 . S
H136 C153 0.939 . S
H137 C155 0.941 . S
H138 C159 0.939 . S
O139 P128 1.490 . S
H140 C156 0.939 . S
H141 C158 0.940 . S
C142 P128 1.812 . S
C142 C143 1.389 . S
C142 C147 1.391 . S
C143 H129 0.941 . S
C143 C142 1.389 . S
C143 C144 1.397 . S
C144 H130 0.939 . S
C144 C143 1.397 . S
C144 C145 1.378 . S
C145 C144 1.378 . S
C145 C146 1.378 . S
C146 H131 0.940 . S
C146 C145 1.378 . S
C146 C147 1.396 . S
C147 H132 0.940 . S
C147 C142 1.391 . S
C147 C146 1.396 . S
C148 P128 1.803 . S
C148 C149 1.378 . S
C148 C153 1.400 . S
C149 H133 0.939 . S
C149 C148 1.378 . S
C149 C150 1.361 . S
C150 H134 0.942 . S
C150 C149 1.361 . S
C150 C151 1.369 . S
C151 C150 1.369 . S
C151 C152 1.404 . S
C152 H135 0.940 . S
C152 C151 1.404 . S
C152 C153 1.389 . S
C153 H136 0.939 . S
C153 C148 1.400 . S
C153 C152 1.389 . S
C154 P128 1.819 . S
C154 C155 1.391 . S
C154 C159 1.391 . S
C155 H137 0.941 . S
C155 C154 1.391 . S
C155 C156 1.396 . S
C156 H140 0.939 . S
C156 C155 1.396 . S
C156 C157 1.397 . S
C157 C156 1.397 . S
C157 C158 1.385 . S
C158 H141 0.940 . S
C158 C157 1.385 . S
C158 C159 1.388 . S
C159 H138 0.939 . S
C159 C154 1.391 . S
C159 C158 1.388 . S
P160 O171 1.490 . S
P160 C174 1.812 . S
P160 C180 1.803 . S
P160 C186 1.819 . S
H161 C175 0.941 . S
H162 C176 0.939 . S
H163 C178 0.940 . S
H164 C179 0.940 . S
H165 C181 0.939 . S
H166 C182 0.942 . S
H167 C184 0.940 . S
H168 C185 0.939 . S
H169 C187 0.941 . S
H170 C191 0.939 . S
O171 P160 1.490 . S
H172 C188 0.939 . S
H173 C190 0.940 . S
C174 P160 1.812 . S
C174 C175 1.389 . S
C174 C179 1.391 . S
C175 H161 0.941 . S
C175 C174 1.389 . S
C175 C176 1.397 . S
C176 H162 0.939 . S
C176 C175 1.397 . S
C176 C177 1.378 . S
C177 C176 1.378 . S
C177 C178 1.378 . S
C178 H163 0.940 . S
C178 C177 1.378 . S
C178 C179 1.396 . S
C179 H164 0.940 . S
C179 C174 1.391 . S
C179 C178 1.396 . S
C180 P160 1.803 . S
C180 C181 1.378 . S
C180 C185 1.400 . S
C181 H165 0.939 . S
C181 C180 1.378 . S
C181 C182 1.361 . S
C182 H166 0.942 . S
C182 C181 1.361 . S
C182 C183 1.369 . S
C183 C182 1.369 . S
C183 C184 1.404 . S
C184 H167 0.940 . S
C184 C183 1.404 . S
C184 C185 1.389 . S
C185 H168 0.939 . S
C185 C180 1.400 . S
C185 C184 1.389 . S
C186 P160 1.819 . S
C186 C187 1.391 . S
C186 C191 1.391 . S
C187 H169 0.941 . S
C187 C186 1.391 . S
C187 C188 1.396 . S
C188 H172 0.939 . S
C188 C187 1.396 . S
C188 C189 1.397 . S
C189 C188 1.397 . S
C189 C190 1.385 . S
C190 H173 0.940 . S
C190 C189 1.385 . S
C190 C191 1.388 . S
C191 H170 0.939 . S
C191 C186 1.391 . S
C191 C190 1.388 . S
P192 O203 1.490 . S
P192 C206 1.812 . S
P192 C212 1.803 . S
P192 C218 1.819 . S
H193 C207 0.941 . S
H194 C208 0.939 . S
H195 C210 0.940 . S
H196 C211 0.940 . S
H197 C213 0.939 . S
H198 C214 0.942 . S
H199 C216 0.940 . S
H200 C217 0.939 . S
H201 C219 0.941 . S
H202 C223 0.939 . S
O203 P192 1.490 . S
H204 C220 0.939 . S
H205 C222 0.940 . S
C206 P192 1.812 . S
C206 C207 1.389 . S
C206 C211 1.391 . S
C207 H193 0.941 . S
C207 C206 1.389 . S
C207 C208 1.397 . S
C208 H194 0.939 . S
C208 C207 1.397 . S
C208 C209 1.378 . S
C209 C208 1.378 . S
C209 C210 1.378 . S
C210 H195 0.940 . S
C210 C209 1.378 . S
C210 C211 1.396 . S
C211 H196 0.940 . S
C211 C206 1.391 . S
C211 C210 1.396 . S
C212 P192 1.803 . S
C212 C213 1.378 . S
C212 C217 1.400 . S
C213 H197 0.939 . S
C213 C212 1.378 . S
C213 C214 1.361 . S
C214 H198 0.942 . S
C214 C213 1.361 . S
C214 C215 1.369 . S
C215 C214 1.369 . S
C215 C216 1.404 . S
C216 H199 0.940 . S
C216 C215 1.404 . S
C216 C217 1.389 . S
C217 H200 0.939 . S
C217 C212 1.400 . S
C217 C216 1.389 . S
C218 P192 1.819 . S
C218 C219 1.391 . S
C218 C223 1.391 . S
C219 H201 0.941 . S
C219 C218 1.391 . S
C219 C220 1.396 . S
C220 H204 0.939 . S
C220 C219 1.396 . S
C220 C221 1.397 . S
C221 C220 1.397 . S
C221 C222 1.385 . S
C222 H205 0.940 . S
C222 C221 1.385 . S
C222 C223 1.388 . S
C223 H202 0.939 . S
C223 C218 1.391 . S
C223 C222 1.388 . S
P224 O235 1.490 . S
P224 C238 1.812 . S
P224 C244 1.803 . S
P224 C250 1.819 . S
H225 C239 0.941 . S
H226 C240 0.939 . S
H227 C242 0.940 . S
H228 C243 0.940 . S
H229 C245 0.939 . S
H230 C246 0.942 . S
H231 C248 0.940 . S
H232 C249 0.939 . S
H233 C251 0.941 . S
H234 C255 0.939 . S
O235 P224 1.490 . S
H236 C252 0.939 . S
H237 C254 0.940 . S
C238 P224 1.812 . S
C238 C239 1.389 . S
C238 C243 1.391 . S
C239 H225 0.941 . S
C239 C238 1.389 . S
C239 C240 1.397 . S
C240 H226 0.939 . S
C240 C239 1.397 . S
C240 C241 1.378 . S
C241 C240 1.378 . S
C241 C242 1.378 . S
C242 H227 0.940 . S
C242 C241 1.378 . S
C242 C243 1.396 . S
C243 H228 0.940 . S
C243 C238 1.391 . S
C243 C242 1.396 . S
C244 P224 1.803 . S
C244 C245 1.378 . S
C244 C249 1.400 . S
C245 H229 0.939 . S
C245 C244 1.378 . S
C245 C246 1.361 . S
C246 H230 0.942 . S
C246 C245 1.361 . S
C246 C247 1.369 . S
C247 C246 1.369 . S
C247 C248 1.404 . S
C248 H231 0.940 . S
C248 C247 1.404 . S
C248 C249 1.389 . S
C249 H232 0.939 . S
C249 C244 1.400 . S
C249 C248 1.389 . S
C250 P224 1.819 . S
C250 C251 1.391 . S
C250 C255 1.391 . S
C251 H233 0.941 . S
C251 C250 1.391 . S
C251 C252 1.396 . S
C252 H236 0.939 . S
C252 C251 1.396 . S
C252 C253 1.397 . S
C253 C252 1.397 . S
C253 C254 1.385 . S
C254 H237 0.940 . S
C254 C253 1.385 . S
C254 C255 1.388 . S
C255 H234 0.939 . S
C255 C250 1.391 . S
C255 C254 1.388 . S
Co256 O259 2.042 . S
Co256 O266 2.264 . S
Co256 O285 2.286 . S
Co256 O286 2.069 . S
Co256 O288 2.015 . S
Co257 O259 2.122 . S
Co257 O265 2.073 . S
Co257 O266 2.327 . S
Co257 O267 1.976 . S
Co258 O259 2.087 . S
Co258 O261 2.087 1_455 S
Co258 O268 2.111 . S
Co258 O269 2.143 1_455 S
Co258 O273 2.111 1_455 S
Co258 O287 2.143 . S
O259 Co256 2.042 . S
O259 Co257 2.122 . S
O259 Co258 2.087 . S
O259 H260 0.980 . S
H260 O259 0.980 . S
O261 Co258 2.087 1_655 S
O261 Co262 2.042 . S
O261 Co263 2.122 . S
O261 H264 0.980 . S
Co262 O261 2.042 . S
Co262 O270 2.286 . S
Co262 O271 2.069 . S
Co262 O272 2.015 . S
Co262 O275 2.264 . S
Co263 O261 2.122 . S
Co263 O274 1.976 . S
Co263 O275 2.327 . S
Co263 O276 2.073 . S
H264 O261 0.980 . S
O265 Co257 2.073 . S
O265 C280 1.245 . S
O266 Co256 2.264 . S
O266 Co257 2.327 . S
O266 C280 1.257 . S
O267 Co257 1.976 . S
O267 C279 1.251 . S
O268 Co258 2.111 . S
O268 C279 1.274 . S
O269 Co258 2.143 1_655 S
O269 C282 1.246 . S
O270 Co262 2.286 . S
O270 C281 1.259 . S
O271 Co262 2.069 . S
O271 C281 1.289 . S
O272 Co262 2.015 . S
O272 C282 1.257 . S
O273 Co258 2.111 1_655 S
O273 C283 1.274 . S
O274 Co263 1.976 . S
O274 C283 1.251 . S
O275 Co262 2.264 . S
O275 Co263 2.327 . S
O275 C284 1.257 . S
O276 Co263 2.073 . S
O276 C284 1.245 . S
C277 O285 1.259 . S
C277 O286 1.289 . S
C278 O287 1.246 . S
C278 O288 1.257 . S
C279 O267 1.251 . S
C279 O268 1.274 . S
C280 O265 1.245 . S
C280 O266 1.257 . S
C281 O270 1.259 . S
C281 O271 1.289 . S
C282 O269 1.246 . S
C282 O272 1.257 . S
C283 O273 1.274 . S
C283 O274 1.251 . S
C284 O275 1.257 . S
C284 O276 1.245 . S
O285 Co256 2.286 . S
O285 C277 1.259 . S
O286 Co256 2.069 . S
O286 C277 1.289 . S
O287 Co258 2.143 . S
O287 C278 1.246 . S
O288 Co256 2.015 . S
O288 C278 1.257 . S
Co289 O292 2.042 . S
Co289 O299 2.264 . S
Co289 O318 2.286 . S
Co289 O319 2.069 . S
Co289 O321 2.015 . S
Co290 O292 2.122 . S
Co290 O298 2.073 . S
Co290 O299 2.327 . S
Co290 O300 1.976 . S
Co291 O292 2.087 1_545 S
Co291 O294 2.087 . S
Co291 O301 2.111 1_545 S
Co291 O302 2.143 . S
Co291 O306 2.111 . S
Co291 O320 2.143 1_545 S
O292 Co289 2.042 . S
O292 Co290 2.122 . S
O292 Co291 2.087 1_565 S
O292 H293 0.980 . S
H293 O292 0.980 . S
O294 Co291 2.087 . S
O294 Co295 2.042 . S
O294 Co296 2.122 . S
O294 H297 0.980 . S
Co295 O294 2.042 . S
Co295 O303 2.286 . S
Co295 O304 2.069 . S
Co295 O305 2.015 . S
Co295 O308 2.264 . S
Co296 O294 2.122 . S
Co296 O307 1.976 . S
Co296 O308 2.327 . S
Co296 O309 2.073 . S
H297 O294 0.980 . S
O298 Co290 2.073 . S
O298 C313 1.245 . S
O299 Co289 2.264 . S
O299 Co290 2.327 . S
O299 C313 1.257 . S
O300 Co290 1.976 . S
O300 C312 1.251 . S
O301 Co291 2.111 1_565 S
O301 C312 1.274 . S
O302 Co291 2.143 . S
O302 C315 1.246 . S
O303 Co295 2.286 . S
O303 C314 1.259 . S
O304 Co295 2.069 . S
O304 C314 1.289 . S
O305 Co295 2.015 . S
O305 C315 1.257 . S
O306 Co291 2.111 . S
O306 C316 1.274 . S
O307 Co296 1.976 . S
O307 C316 1.251 . S
O308 Co295 2.264 . S
O308 Co296 2.327 . S
O308 C317 1.257 . S
O309 Co296 2.073 . S
O309 C317 1.245 . S
C310 O318 1.259 . S
C310 O319 1.289 . S
C311 O320 1.246 . S
C311 O321 1.257 . S
C312 O300 1.251 . S
C312 O301 1.274 . S
C313 O298 1.245 . S
C313 O299 1.257 . S
C314 O303 1.259 . S
C314 O304 1.289 . S
C315 O302 1.246 . S
C315 O305 1.257 . S
C316 O306 1.274 . S
C316 O307 1.251 . S
C317 O308 1.257 . S
C317 O309 1.245 . S
O318 Co289 2.286 . S
O318 C310 1.259 . S
O319 Co289 2.069 . S
O319 C310 1.289 . S
O320 Co291 2.143 1_565 S
O320 C311 1.246 . S
O321 Co289 2.015 . S
O321 C311 1.257 . S
Co322 O325 2.042 . S
Co322 O332 2.264 . S
Co322 O351 2.286 . S
Co322 O352 2.069 . S
Co322 O354 2.015 . S
Co323 O325 2.122 . S
Co323 O331 2.073 . S
Co323 O332 2.327 . S
Co323 O333 1.976 . S
Co324 O325 2.087 . S
Co324 O327 2.087 1_554 S
Co324 O334 2.111 . S
Co324 O335 2.143 1_554 S
Co324 O339 2.111 1_554 S
Co324 O353 2.143 . S
O325 Co322 2.042 . S
O325 Co323 2.122 . S
O325 Co324 2.087 . S
O325 H326 0.980 . S
H326 O325 0.980 . S
O327 Co324 2.087 1_556 S
O327 Co328 2.042 . S
O327 Co329 2.122 . S
O327 H330 0.980 . S
Co328 O327 2.042 . S
Co328 O336 2.286 . S
Co328 O337 2.069 . S
Co328 O338 2.015 . S
Co328 O341 2.264 . S
Co329 O327 2.122 . S
Co329 O340 1.976 . S
Co329 O341 2.327 . S
Co329 O342 2.073 . S
H330 O327 0.980 . S
O331 Co323 2.073 . S
O331 C346 1.245 . S
O332 Co322 2.264 . S
O332 Co323 2.327 . S
O332 C346 1.257 . S
O333 Co323 1.976 . S
O333 C345 1.251 . S
O334 Co324 2.111 . S
O334 C345 1.274 . S
O335 Co324 2.143 1_556 S
O335 C348 1.246 . S
O336 Co328 2.286 . S
O336 C347 1.259 . S
O337 Co328 2.069 . S
O337 C347 1.289 . S
O338 Co328 2.015 . S
O338 C348 1.257 . S
O339 Co324 2.111 1_556 S
O339 C349 1.274 . S
O340 Co329 1.976 . S
O340 C349 1.251 . S
O341 Co328 2.264 . S
O341 Co329 2.327 . S
O341 C350 1.257 . S
O342 Co329 2.073 . S
O342 C350 1.245 . S
C343 O351 1.259 . S
C343 O352 1.289 . S
C344 O353 1.246 . S
C344 O354 1.257 . S
C345 O333 1.251 . S
C345 O334 1.274 . S
C346 O331 1.245 . S
C346 O332 1.257 . S
C347 O336 1.259 . S
C347 O337 1.289 . S
C348 O335 1.246 . S
C348 O338 1.257 . S
C349 O339 1.274 . S
C349 O340 1.251 . S
C350 O341 1.257 . S
C350 O342 1.245 . S
O351 Co322 2.286 . S
O351 C343 1.259 . S
O352 Co322 2.069 . S
O352 C343 1.289 . S
O353 Co324 2.143 . S
O353 C344 1.246 . S
O354 Co322 2.015 . S
O354 C344 1.257 . S
C355 C356 1.349 . S
C355 C357 1.327 . S
C355 H380 0.950 . S
C356 C355 1.349 . S
C356 C372 1.349 . S
C357 C355 1.327 . S
C357 C376 1.429 . S
C357 H381 0.950 . S
C358 C375 1.574 . S
C358 C377 1.368 . S
C358 H382 0.949 . S
H359 C363 0.949 . S
C360 C361 1.349 . S
C360 C362 1.327 . S
C360 H383 0.950 . S
C361 C360 1.349 . S
C361 C373 1.349 . S
C362 C360 1.327 . S
C362 C378 1.429 . S
C362 H384 0.950 . S
C363 H359 0.949 . S
C363 C371 1.574 . S
C363 C379 1.368 . S
H364 C372 0.950 . S
H365 C370 0.950 . S
H366 C371 0.949 . S
H367 C373 0.950 . S
H368 C374 0.950 . S
H369 C375 0.949 . S
C370 H365 0.950 . S
C370 C372 1.327 . S
C370 C376 1.429 . S
C371 C363 1.574 . S
C371 H366 0.949 . S
C371 C377 1.368 . S
C372 C356 1.349 . S
C372 H364 0.950 . S
C372 C370 1.327 . S
C373 C361 1.349 . S
C373 H367 0.950 . S
C373 C374 1.327 . S
C374 H368 0.950 . S
C374 C373 1.327 . S
C374 C378 1.429 . S
C375 C358 1.574 . S
C375 H369 0.949 . S
C375 C379 1.368 . S
C376 C357 1.429 . S
C376 C370 1.429 . S
C376 C377 1.523 . S
C377 C358 1.368 . S
C377 C371 1.368 . S
C377 C376 1.523 . S
C378 C362 1.429 . S
C378 C374 1.429 . S
C378 C379 1.523 . S
C379 C363 1.368 . S
C379 C375 1.368 . S
C379 C378 1.523 . S
H380 C355 0.950 . S
H381 C357 0.950 . S
H382 C358 0.949 . S
H383 C360 0.950 . S
H384 C362 0.950 . S
C385 C386 1.349 . S
C385 C387 1.327 . S
C385 H410 0.950 . S
C386 C385 1.349 . S
C386 C402 1.349 . S
C387 C385 1.327 . S
C387 C406 1.429 . S
C387 H411 0.950 . S
C388 C405 1.574 . S
C388 C407 1.368 . S
C388 H412 0.949 . S
H389 C393 0.949 . S
C390 C391 1.349 . S
C390 C392 1.327 . S
C390 H413 0.950 . S
C391 C390 1.349 . S
C391 C403 1.349 . S
C392 C390 1.327 . S
C392 C408 1.429 . S
C392 H414 0.950 . S
C393 H389 0.949 . S
C393 C401 1.574 . S
C393 C409 1.368 . S
H394 C402 0.950 . S
H395 C400 0.950 . S
H396 C401 0.949 . S
H397 C403 0.950 . S
H398 C404 0.950 . S
H399 C405 0.949 . S
C400 H395 0.950 . S
C400 C402 1.327 . S
C400 C406 1.429 . S
C401 C393 1.574 . S
C401 H396 0.949 . S
C401 C407 1.368 . S
C402 C386 1.349 . S
C402 H394 0.950 . S
C402 C400 1.327 . S
C403 C391 1.349 . S
C403 H397 0.950 . S
C403 C404 1.327 . S
C404 H398 0.950 . S
C404 C403 1.327 . S
C404 C408 1.429 . S
C405 C388 1.574 . S
C405 H399 0.949 . S
C405 C409 1.368 . S
C406 C387 1.429 . S
C406 C400 1.429 . S
C406 C407 1.523 . S
C407 C388 1.368 . S
C407 C401 1.368 . S
C407 C406 1.523 . S
C408 C392 1.429 . S
C408 C404 1.429 . S
C408 C409 1.523 . S
C409 C393 1.368 . S
C409 C405 1.368 . S
C409 C408 1.523 . S
H410 C385 0.950 . S
H411 C387 0.950 . S
H412 C388 0.949 . S
H413 C390 0.950 . S
H414 C392 0.950 . S
C415 C416 1.349 . S
C415 C417 1.327 . S
C415 H440 0.950 . S
C416 C415 1.349 . S
C416 C432 1.349 . S
C417 C415 1.327 . S
C417 C436 1.429 . S
C417 H441 0.950 . S
C418 C435 1.574 . S
C418 C437 1.368 . S
C418 H442 0.949 . S
H419 C423 0.949 . S
C420 C421 1.349 . S
C420 C422 1.327 . S
C420 H443 0.950 . S
C421 C420 1.349 . S
C421 C433 1.349 . S
C422 C420 1.327 . S
C422 C438 1.429 . S
C422 H444 0.950 . S
C423 H419 0.949 . S
C423 C431 1.574 . S
C423 C439 1.368 . S
H424 C432 0.950 . S
H425 C430 0.950 . S
H426 C431 0.949 . S
H427 C433 0.950 . S
H428 C434 0.950 . S
H429 C435 0.949 . S
C430 H425 0.950 . S
C430 C432 1.327 . S
C430 C436 1.429 . S
C431 C423 1.574 . S
C431 H426 0.949 . S
C431 C437 1.368 . S
C432 C416 1.349 . S
C432 H424 0.950 . S
C432 C430 1.327 . S
C433 C421 1.349 . S
C433 H427 0.950 . S
C433 C434 1.327 . S
C434 H428 0.950 . S
C434 C433 1.327 . S
C434 C438 1.429 . S
C435 C418 1.574 . S
C435 H429 0.949 . S
C435 C439 1.368 . S
C436 C417 1.429 . S
C436 C430 1.429 . S
C436 C437 1.523 . S
C437 C418 1.368 . S
C437 C431 1.368 . S
C437 C436 1.523 . S
C438 C422 1.429 . S
C438 C434 1.429 . S
C438 C439 1.523 . S
C439 C423 1.368 . S
C439 C435 1.368 . S
C439 C438 1.523 . S
H440 C415 0.950 . S
H441 C417 0.950 . S
H442 C418 0.949 . S
H443 C420 0.950 . S
H444 C422 0.950 . S
C445 C446 1.349 . S
C445 C447 1.327 . S
C445 H470 0.950 . S
C446 C445 1.349 . S
C446 C462 1.349 . S
C447 C445 1.327 . S
C447 C466 1.429 . S
C447 H471 0.950 . S
C448 C465 1.574 . S
C448 C467 1.368 . S
C448 H472 0.949 . S
H449 C453 0.949 . S
C450 C451 1.349 . S
C450 C452 1.327 . S
C450 H473 0.950 . S
C451 C450 1.349 . S
C451 C463 1.349 . S
C452 C450 1.327 . S
C452 C468 1.429 . S
C452 H474 0.950 . S
C453 H449 0.949 . S
C453 C461 1.574 . S
C453 C469 1.368 . S
H454 C462 0.950 . S
H455 C460 0.950 . S
H456 C461 0.949 . S
H457 C463 0.950 . S
H458 C464 0.950 . S
H459 C465 0.949 . S
C460 H455 0.950 . S
C460 C462 1.327 . S
C460 C466 1.429 . S
C461 C453 1.574 . S
C461 H456 0.949 . S
C461 C467 1.368 . S
C462 C446 1.349 . S
C462 H454 0.950 . S
C462 C460 1.327 . S
C463 C451 1.349 . S
C463 H457 0.950 . S
C463 C464 1.327 . S
C464 H458 0.950 . S
C464 C463 1.327 . S
C464 C468 1.429 . S
C465 C448 1.574 . S
C465 H459 0.949 . S
C465 C469 1.368 . S
C466 C447 1.429 . S
C466 C460 1.429 . S
C466 C467 1.523 . S
C467 C448 1.368 . S
C467 C461 1.368 . S
C467 C466 1.523 . S
C468 C452 1.429 . S
C468 C464 1.429 . S
C468 C469 1.523 . S
C469 C453 1.368 . S
C469 C465 1.368 . S
C469 C468 1.523 . S
H470 C445 0.950 . S
H471 C447 0.950 . S
H472 C448 0.949 . S
H473 C450 0.950 . S
H474 C452 0.950 . S
C475 C476 1.349 . S
C475 C477 1.327 . S
C475 H500 0.950 . S
C476 C475 1.349 . S
C476 C492 1.349 . S
C477 C475 1.327 . S
C477 C496 1.429 . S
C477 H501 0.950 . S
C478 C495 1.574 . S
C478 C497 1.368 . S
C478 H502 0.949 . S
H479 C483 0.949 . S
C480 C481 1.349 . S
C480 C482 1.327 . S
C480 H503 0.950 . S
C481 C480 1.349 . S
C481 C493 1.349 . S
C482 C480 1.327 . S
C482 C498 1.429 . S
C482 H504 0.950 . S
C483 H479 0.949 . S
C483 C491 1.574 . S
C483 C499 1.368 . S
H484 C492 0.950 . S
H485 C490 0.950 . S
H486 C491 0.949 . S
H487 C493 0.950 . S
H488 C494 0.950 . S
H489 C495 0.949 . S
C490 H485 0.950 . S
C490 C492 1.327 . S
C490 C496 1.429 . S
C491 C483 1.574 . S
C491 H486 0.949 . S
C491 C497 1.368 . S
C492 C476 1.349 . S
C492 H484 0.950 . S
C492 C490 1.327 . S
C493 C481 1.349 . S
C493 H487 0.950 . S
C493 C494 1.327 . S
C494 H488 0.950 . S
C494 C493 1.327 . S
C494 C498 1.429 . S
C495 C478 1.574 . S
C495 H489 0.949 . S
C495 C499 1.368 . S
C496 C477 1.429 . S
C496 C490 1.429 . S
C496 C497 1.523 . S
C497 C478 1.368 . S
C497 C491 1.368 . S
C497 C496 1.523 . S
C498 C482 1.429 . S
C498 C494 1.429 . S
C498 C499 1.523 . S
C499 C483 1.368 . S
C499 C495 1.368 . S
C499 C498 1.523 . S
H500 C475 0.950 . S
H501 C477 0.950 . S
H502 C478 0.949 . S
H503 C480 0.950 . S
H504 C482 0.950 . S
C505 C506 1.349 . S
C505 C507 1.327 . S
C505 H530 0.950 . S
C506 C505 1.349 . S
C506 C522 1.349 . S
C507 C505 1.327 . S
C507 C526 1.429 . S
C507 H531 0.950 . S
C508 C525 1.574 . S
C508 C527 1.368 . S
C508 H532 0.949 . S
H509 C513 0.949 . S
C510 C511 1.349 . S
C510 C512 1.327 . S
C510 H533 0.950 . S
C511 C510 1.349 . S
C511 C523 1.349 . S
C512 C510 1.327 . S
C512 C528 1.429 . S
C512 H534 0.950 . S
C513 H509 0.949 . S
C513 C521 1.574 . S
C513 C529 1.368 . S
H514 C522 0.950 . S
H515 C520 0.950 . S
H516 C521 0.949 . S
H517 C523 0.950 . S
H518 C524 0.950 . S
H519 C525 0.949 . S
C520 H515 0.950 . S
C520 C522 1.327 . S
C520 C526 1.429 . S
C521 C513 1.574 . S
C521 H516 0.949 . S
C521 C527 1.368 . S
C522 C506 1.349 . S
C522 H514 0.950 . S
C522 C520 1.327 . S
C523 C511 1.349 . S
C523 H517 0.950 . S
C523 C524 1.327 . S
C524 H518 0.950 . S
C524 C523 1.327 . S
C524 C528 1.429 . S
C525 C508 1.574 . S
C525 H519 0.949 . S
C525 C529 1.368 . S
C526 C507 1.429 . S
C526 C520 1.429 . S
C526 C527 1.523 . S
C527 C508 1.368 . S
C527 C521 1.368 . S
C527 C526 1.523 . S
C528 C512 1.429 . S
C528 C524 1.429 . S
C528 C529 1.523 . S
C529 C513 1.368 . S
C529 C525 1.368 . S
C529 C528 1.523 . S
H530 C505 0.950 . S
H531 C507 0.950 . S
H532 C508 0.949 . S
H533 C510 0.950 . S
H534 C512 0.950 . S
C535 C536 1.349 . S
C535 C537 1.327 . S
C535 H560 0.950 . S
C536 C535 1.349 . S
C536 C552 1.349 . S
C537 C535 1.327 . S
C537 C556 1.429 . S
C537 H561 0.950 . S
C538 C555 1.574 . S
C538 C557 1.368 . S
C538 H562 0.949 . S
H539 C543 0.949 . S
C540 C541 1.349 . S
C540 C542 1.327 . S
C540 H563 0.950 . S
C541 C540 1.349 . S
C541 C553 1.349 . S
C542 C540 1.327 . S
C542 C558 1.429 . S
C542 H564 0.950 . S
C543 H539 0.949 . S
C543 C551 1.574 . S
C543 C559 1.368 . S
H544 C552 0.950 . S
H545 C550 0.950 . S
H546 C551 0.949 . S
H547 C553 0.950 . S
H548 C554 0.950 . S
H549 C555 0.949 . S
C550 H545 0.950 . S
C550 C552 1.327 . S
C550 C556 1.429 . S
C551 C543 1.574 . S
C551 H546 0.949 . S
C551 C557 1.368 . S
C552 C536 1.349 . S
C552 H544 0.950 . S
C552 C550 1.327 . S
C553 C541 1.349 . S
C553 H547 0.950 . S
C553 C554 1.327 . S
C554 H548 0.950 . S
C554 C553 1.327 . S
C554 C558 1.429 . S
C555 C538 1.574 . S
C555 H549 0.949 . S
C555 C559 1.368 . S
C556 C537 1.429 . S
C556 C550 1.429 . S
C556 C557 1.523 . S
C557 C538 1.368 . S
C557 C551 1.368 . S
C557 C556 1.523 . S
C558 C542 1.429 . S
C558 C554 1.429 . S
C558 C559 1.523 . S
C559 C543 1.368 . S
C559 C555 1.368 . S
C559 C558 1.523 . S
H560 C535 0.950 . S
H561 C537 0.950 . S
H562 C538 0.949 . S
H563 C540 0.950 . S
H564 C542 0.950 . S
C565 C566 1.349 . S
C565 C567 1.327 . S
C565 H590 0.950 . S
C566 C565 1.349 . S
C566 C582 1.349 . S
C567 C565 1.327 . S
C567 C586 1.429 . S
C567 H591 0.950 . S
C568 C585 1.574 . S
C568 C587 1.368 . S
C568 H592 0.949 . S
H569 C573 0.949 . S
C570 C571 1.349 . S
C570 C572 1.327 . S
C570 H593 0.950 . S
C571 C570 1.349 . S
C571 C583 1.349 . S
C572 C570 1.327 . S
C572 C588 1.429 . S
C572 H594 0.950 . S
C573 H569 0.949 . S
C573 C581 1.574 . S
C573 C589 1.368 . S
H574 C582 0.950 . S
H575 C580 0.950 . S
H576 C581 0.949 . S
H577 C583 0.950 . S
H578 C584 0.950 . S
H579 C585 0.949 . S
C580 H575 0.950 . S
C580 C582 1.327 . S
C580 C586 1.429 . S
C581 C573 1.574 . S
C581 H576 0.949 . S
C581 C587 1.368 . S
C582 C566 1.349 . S
C582 H574 0.950 . S
C582 C580 1.327 . S
C583 C571 1.349 . S
C583 H577 0.950 . S
C583 C584 1.327 . S
C584 H578 0.950 . S
C584 C583 1.327 . S
C584 C588 1.429 . S
C585 C568 1.574 . S
C585 H579 0.949 . S
C585 C589 1.368 . S
C586 C567 1.429 . S
C586 C580 1.429 . S
C586 C587 1.523 . S
C587 C568 1.368 . S
C587 C581 1.368 . S
C587 C586 1.523 . S
C588 C572 1.429 . S
C588 C584 1.429 . S
C588 C589 1.523 . S
C589 C573 1.368 . S
C589 C585 1.368 . S
C589 C588 1.523 . S
H590 C565 0.950 . S
H591 C567 0.950 . S
H592 C568 0.949 . S
H593 C570 0.950 . S
H594 C572 0.950 . S
C595 C596 1.349 . S
C595 C597 1.327 . S
C595 H620 0.950 . S
C596 C595 1.349 . S
C596 C612 1.349 . S
C597 C595 1.327 . S
C597 C616 1.429 . S
C597 H621 0.950 . S
C598 C615 1.574 . S
C598 C617 1.368 . S
C598 H622 0.949 . S
H599 C603 0.949 . S
C600 C601 1.349 . S
C600 C602 1.327 . S
C600 H623 0.950 . S
C601 C600 1.349 . S
C601 C613 1.349 . S
C602 C600 1.327 . S
C602 C618 1.429 . S
C602 H624 0.950 . S
C603 H599 0.949 . S
C603 C611 1.574 . S
C603 C619 1.368 . S
H604 C612 0.950 . S
H605 C610 0.950 . S
H606 C611 0.949 . S
H607 C613 0.950 . S
H608 C614 0.950 . S
H609 C615 0.949 . S
C610 H605 0.950 . S
C610 C612 1.327 . S
C610 C616 1.429 . S
C611 C603 1.574 . S
C611 H606 0.949 . S
C611 C617 1.368 . S
C612 C596 1.349 . S
C612 H604 0.950 . S
C612 C610 1.327 . S
C613 C601 1.349 . S
C613 H607 0.950 . S
C613 C614 1.327 . S
C614 H608 0.950 . S
C614 C613 1.327 . S
C614 C618 1.429 . S
C615 C598 1.574 . S
C615 H609 0.949 . S
C615 C619 1.368 . S
C616 C597 1.429 . S
C616 C610 1.429 . S
C616 C617 1.523 . S
C617 C598 1.368 . S
C617 C611 1.368 . S
C617 C616 1.523 . S
C618 C602 1.429 . S
C618 C614 1.429 . S
C618 C619 1.523 . S
C619 C603 1.368 . S
C619 C615 1.368 . S
C619 C618 1.523 . S
H620 C595 0.950 . S
H621 C597 0.950 . S
H622 C598 0.949 . S
H623 C600 0.950 . S
H624 C602 0.950 . S
C625 C626 1.349 . S
C625 C627 1.327 . S
C625 H650 0.950 . S
C626 C625 1.349 . S
C626 C642 1.349 . S
C627 C625 1.327 . S
C627 C646 1.429 . S
C627 H651 0.950 . S
C628 C645 1.574 . S
C628 C647 1.368 . S
C628 H652 0.949 . S
H629 C633 0.949 . S
C630 C631 1.349 . S
C630 C632 1.327 . S
C630 H653 0.950 . S
C631 C630 1.349 . S
C631 C643 1.349 . S
C632 C630 1.327 . S
C632 C648 1.429 . S
C632 H654 0.950 . S
C633 H629 0.949 . S
C633 C641 1.574 . S
C633 C649 1.368 . S
H634 C642 0.950 . S
H635 C640 0.950 . S
H636 C641 0.949 . S
H637 C643 0.950 . S
H638 C644 0.950 . S
H639 C645 0.949 . S
C640 H635 0.950 . S
C640 C642 1.327 . S
C640 C646 1.429 . S
C641 C633 1.574 . S
C641 H636 0.949 . S
C641 C647 1.368 . S
C642 C626 1.349 . S
C642 H634 0.950 . S
C642 C640 1.327 . S
C643 C631 1.349 . S
C643 H637 0.950 . S
C643 C644 1.327 . S
C644 H638 0.950 . S
C644 C643 1.327 . S
C644 C648 1.429 . S
C645 C628 1.574 . S
C645 H639 0.949 . S
C645 C649 1.368 . S
C646 C627 1.429 . S
C646 C640 1.429 . S
C646 C647 1.523 . S
C647 C628 1.368 . S
C647 C641 1.368 . S
C647 C646 1.523 . S
C648 C632 1.429 . S
C648 C644 1.429 . S
C648 C649 1.523 . S
C649 C633 1.368 . S
C649 C645 1.368 . S
C649 C648 1.523 . S
H650 C625 0.950 . S
H651 C627 0.950 . S
H652 C628 0.949 . S
H653 C630 0.950 . S
H654 C632 0.950 . S
C655 C656 1.349 . S
C655 C657 1.327 . S
C655 H680 0.950 . S
C656 C655 1.349 . S
C656 C672 1.349 . S
C657 C655 1.327 . S
C657 C676 1.429 . S
C657 H681 0.950 . S
C658 C675 1.574 . S
C658 C677 1.368 . S
C658 H682 0.949 . S
H659 C663 0.949 . S
C660 C661 1.349 . S
C660 C662 1.327 . S
C660 H683 0.950 . S
C661 C660 1.349 . S
C661 C673 1.349 . S
C662 C660 1.327 . S
C662 C678 1.429 . S
C662 H684 0.950 . S
C663 H659 0.949 . S
C663 C671 1.574 . S
C663 C679 1.368 . S
H664 C672 0.950 . S
H665 C670 0.950 . S
H666 C671 0.949 . S
H667 C673 0.950 . S
H668 C674 0.950 . S
H669 C675 0.949 . S
C670 H665 0.950 . S
C670 C672 1.327 . S
C670 C676 1.429 . S
C671 C663 1.574 . S
C671 H666 0.949 . S
C671 C677 1.368 . S
C672 C656 1.349 . S
C672 H664 0.950 . S
C672 C670 1.327 . S
C673 C661 1.349 . S
C673 H667 0.950 . S
C673 C674 1.327 . S
C674 H668 0.950 . S
C674 C673 1.327 . S
C674 C678 1.429 . S
C675 C658 1.574 . S
C675 H669 0.949 . S
C675 C679 1.368 . S
C676 C657 1.429 . S
C676 C670 1.429 . S
C676 C677 1.523 . S
C677 C658 1.368 . S
C677 C671 1.368 . S
C677 C676 1.523 . S
C678 C662 1.429 . S
C678 C674 1.429 . S
C678 C679 1.523 . S
C679 C663 1.368 . S
C679 C675 1.368 . S
C679 C678 1.523 . S
H680 C655 0.950 . S
H681 C657 0.950 . S
H682 C658 0.949 . S
H683 C660 0.950 . S
H684 C662 0.950 . S
C685 C686 1.349 . S
C685 C687 1.327 . S
C685 H710 0.950 . S
C686 C685 1.349 . S
C686 C702 1.349 . S
C687 C685 1.327 . S
C687 C706 1.429 . S
C687 H711 0.950 . S
C688 C705 1.574 . S
C688 C707 1.368 . S
C688 H712 0.949 . S
H689 C693 0.949 . S
C690 C691 1.349 . S
C690 C692 1.327 . S
C690 H713 0.950 . S
C691 C690 1.349 . S
C691 C703 1.349 . S
C692 C690 1.327 . S
C692 C708 1.429 . S
C692 H714 0.950 . S
C693 H689 0.949 . S
C693 C701 1.574 . S
C693 C709 1.368 . S
H694 C702 0.950 . S
H695 C700 0.950 . S
H696 C701 0.949 . S
H697 C703 0.950 . S
H698 C704 0.950 . S
H699 C705 0.949 . S
C700 H695 0.950 . S
C700 C702 1.327 . S
C700 C706 1.429 . S
C701 C693 1.574 . S
C701 H696 0.949 . S
C701 C707 1.368 . S
C702 C686 1.349 . S
C702 H694 0.950 . S
C702 C700 1.327 . S
C703 C691 1.349 . S
C703 H697 0.950 . S
C703 C704 1.327 . S
C704 H698 0.950 . S
C704 C703 1.327 . S
C704 C708 1.429 . S
C705 C688 1.574 . S
C705 H699 0.949 . S
C705 C709 1.368 . S
C706 C687 1.429 . S
C706 C700 1.429 . S
C706 C707 1.523 . S
C707 C688 1.368 . S
C707 C701 1.368 . S
C707 C706 1.523 . S
C708 C692 1.429 . S
C708 C704 1.429 . S
C708 C709 1.523 . S
C709 C693 1.368 . S
C709 C705 1.368 . S
C709 C708 1.523 . S
H710 C685 0.950 . S
H711 C687 0.950 . S
H712 C688 0.949 . S
H713 C690 0.950 . S
H714 C692 0.950 . S
C715 C716 1.349 . S
C715 C717 1.327 . S
C715 H740 0.950 . S
C716 C715 1.349 . S
C716 C732 1.349 . S
C717 C715 1.327 . S
C717 C736 1.429 . S
C717 H741 0.950 . S
C718 C735 1.574 . S
C718 C737 1.368 . S
C718 H742 0.949 . S
H719 C723 0.949 . S
C720 C721 1.349 . S
C720 C722 1.327 . S
C720 H743 0.950 . S
C721 C720 1.349 . S
C721 C733 1.349 . S
C722 C720 1.327 . S
C722 C738 1.429 . S
C722 H744 0.950 . S
C723 H719 0.949 . S
C723 C731 1.574 . S
C723 C739 1.368 . S
H724 C732 0.950 . S
H725 C730 0.950 . S
H726 C731 0.949 . S
H727 C733 0.950 . S
H728 C734 0.950 . S
H729 C735 0.949 . S
C730 H725 0.950 . S
C730 C732 1.327 . S
C730 C736 1.429 . S
C731 C723 1.574 . S
C731 H726 0.949 . S
C731 C737 1.368 . S
C732 C716 1.349 . S
C732 H724 0.950 . S
C732 C730 1.327 . S
C733 C721 1.349 . S
C733 H727 0.950 . S
C733 C734 1.327 . S
C734 H728 0.950 . S
C734 C733 1.327 . S
C734 C738 1.429 . S
C735 C718 1.574 . S
C735 H729 0.949 . S
C735 C739 1.368 . S
C736 C717 1.429 . S
C736 C730 1.429 . S
C736 C737 1.523 . S
C737 C718 1.368 . S
C737 C731 1.368 . S
C737 C736 1.523 . S
C738 C722 1.429 . S
C738 C734 1.429 . S
C738 C739 1.523 . S
C739 C723 1.368 . S
C739 C735 1.368 . S
C739 C738 1.523 . S
H740 C715 0.950 . S
H741 C717 0.950 . S
H742 C718 0.949 . S
H743 C720 0.950 . S
H744 C722 0.950 . S
C745 C746 1.349 . S
C745 C747 1.327 . S
C745 H770 0.950 . S
C746 C745 1.349 . S
C746 C762 1.349 . S
C747 C745 1.327 . S
C747 C766 1.429 . S
C747 H771 0.950 . S
C748 C765 1.574 . S
C748 C767 1.368 . S
C748 H772 0.949 . S
H749 C753 0.949 . S
C750 C751 1.349 . S
C750 C752 1.327 . S
C750 H773 0.950 . S
C751 C750 1.349 . S
C751 C763 1.349 . S
C752 C750 1.327 . S
C752 C768 1.429 . S
C752 H774 0.950 . S
C753 H749 0.949 . S
C753 C761 1.574 . S
C753 C769 1.368 . S
H754 C762 0.950 . S
H755 C760 0.950 . S
H756 C761 0.949 . S
H757 C763 0.950 . S
H758 C764 0.950 . S
H759 C765 0.949 . S
C760 H755 0.950 . S
C760 C762 1.327 . S
C760 C766 1.429 . S
C761 C753 1.574 . S
C761 H756 0.949 . S
C761 C767 1.368 . S
C762 C746 1.349 . S
C762 H754 0.950 . S
C762 C760 1.327 . S
C763 C751 1.349 . S
C763 H757 0.950 . S
C763 C764 1.327 . S
C764 H758 0.950 . S
C764 C763 1.327 . S
C764 C768 1.429 . S
C765 C748 1.574 . S
C765 H759 0.949 . S
C765 C769 1.368 . S
C766 C747 1.429 . S
C766 C760 1.429 . S
C766 C767 1.523 . S
C767 C748 1.368 . S
C767 C761 1.368 . S
C767 C766 1.523 . S
C768 C752 1.429 . S
C768 C764 1.429 . S
C768 C769 1.523 . S
C769 C753 1.368 . S
C769 C765 1.368 . S
C769 C768 1.523 . S
H770 C745 0.950 . S
H771 C747 0.950 . S
H772 C748 0.949 . S
H773 C750 0.950 . S
H774 C752 0.950 . S
C775 C776 1.349 . S
C775 C777 1.327 . S
C775 H800 0.950 . S
C776 C775 1.349 . S
C776 C792 1.349 . S
C777 C775 1.327 . S
C777 C796 1.429 . S
C777 H801 0.950 . S
C778 C795 1.574 . S
C778 C797 1.368 . S
C778 H802 0.949 . S
H779 C783 0.949 . S
C780 C781 1.349 . S
C780 C782 1.327 . S
C780 H803 0.950 . S
C781 C780 1.349 . S
C781 C793 1.349 . S
C782 C780 1.327 . S
C782 C798 1.429 . S
C782 H804 0.950 . S
C783 H779 0.949 . S
C783 C791 1.574 . S
C783 C799 1.368 . S
H784 C792 0.950 . S
H785 C790 0.950 . S
H786 C791 0.949 . S
H787 C793 0.950 . S
H788 C794 0.950 . S
H789 C795 0.949 . S
C790 H785 0.950 . S
C790 C792 1.327 . S
C790 C796 1.429 . S
C791 C783 1.574 . S
C791 H786 0.949 . S
C791 C797 1.368 . S
C792 C776 1.349 . S
C792 H784 0.950 . S
C792 C790 1.327 . S
C793 C781 1.349 . S
C793 H787 0.950 . S
C793 C794 1.327 . S
C794 H788 0.950 . S
C794 C793 1.327 . S
C794 C798 1.429 . S
C795 C778 1.574 . S
C795 H789 0.949 . S
C795 C799 1.368 . S
C796 C777 1.429 . S
C796 C790 1.429 . S
C796 C797 1.523 . S
C797 C778 1.368 . S
C797 C791 1.368 . S
C797 C796 1.523 . S
C798 C782 1.429 . S
C798 C794 1.429 . S
C798 C799 1.523 . S
C799 C783 1.368 . S
C799 C795 1.368 . S
C799 C798 1.523 . S
H800 C775 0.950 . S
H801 C777 0.950 . S
H802 C778 0.949 . S
H803 C780 0.950 . S
H804 C782 0.950 . S
C805 C806 1.349 . S
C805 C807 1.327 . S
C805 H830 0.950 . S
C806 C805 1.349 . S
C806 C822 1.349 . S
C807 C805 1.327 . S
C807 C826 1.429 . S
C807 H831 0.950 . S
C808 C825 1.574 . S
C808 C827 1.368 . S
C808 H832 0.949 . S
H809 C813 0.949 . S
C810 C811 1.349 . S
C810 C812 1.327 . S
C810 H833 0.950 . S
C811 C810 1.349 . S
C811 C823 1.349 . S
C812 C810 1.327 . S
C812 C828 1.429 . S
C812 H834 0.950 . S
C813 H809 0.949 . S
C813 C821 1.574 . S
C813 C829 1.368 . S
H814 C822 0.950 . S
H815 C820 0.950 . S
H816 C821 0.949 . S
H817 C823 0.950 . S
H818 C824 0.950 . S
H819 C825 0.949 . S
C820 H815 0.950 . S
C820 C822 1.327 . S
C820 C826 1.429 . S
C821 C813 1.574 . S
C821 H816 0.949 . S
C821 C827 1.368 . S
C822 C806 1.349 . S
C822 H814 0.950 . S
C822 C820 1.327 . S
C823 C811 1.349 . S
C823 H817 0.950 . S
C823 C824 1.327 . S
C824 H818 0.950 . S
C824 C823 1.327 . S
C824 C828 1.429 . S
C825 C808 1.574 . S
C825 H819 0.949 . S
C825 C829 1.368 . S
C826 C807 1.429 . S
C826 C820 1.429 . S
C826 C827 1.523 . S
C827 C808 1.368 . S
C827 C821 1.368 . S
C827 C826 1.523 . S
C828 C812 1.429 . S
C828 C824 1.429 . S
C828 C829 1.523 . S
C829 C813 1.368 . S
C829 C825 1.368 . S
C829 C828 1.523 . S
H830 C805 0.950 . S
H831 C807 0.950 . S
H832 C808 0.949 . S
H833 C810 0.950 . S
H834 C812 0.950 . S
C835 C836 1.349 . S
C835 C837 1.327 . S
C835 H860 0.950 . S
C836 C835 1.349 . S
C836 C852 1.349 . S
C837 C835 1.327 . S
C837 C856 1.429 . S
C837 H861 0.950 . S
C838 C855 1.574 . S
C838 C857 1.368 . S
C838 H862 0.949 . S
H839 C843 0.949 . S
C840 C841 1.349 . S
C840 C842 1.327 . S
C840 H863 0.950 . S
C841 C840 1.349 . S
C841 C853 1.349 . S
C842 C840 1.327 . S
C842 C858 1.429 . S
C842 H864 0.950 . S
C843 H839 0.949 . S
C843 C851 1.574 . S
C843 C859 1.368 . S
H844 C852 0.950 . S
H845 C850 0.950 . S
H846 C851 0.949 . S
H847 C853 0.950 . S
H848 C854 0.950 . S
H849 C855 0.949 . S
C850 H845 0.950 . S
C850 C852 1.327 . S
C850 C856 1.429 . S
C851 C843 1.574 . S
C851 H846 0.949 . S
C851 C857 1.368 . S
C852 C836 1.349 . S
C852 H844 0.950 . S
C852 C850 1.327 . S
C853 C841 1.349 . S
C853 H847 0.950 . S
C853 C854 1.327 . S
C854 H848 0.950 . S
C854 C853 1.327 . S
C854 C858 1.429 . S
C855 C838 1.574 . S
C855 H849 0.949 . S
C855 C859 1.368 . S
C856 C837 1.429 . S
C856 C850 1.429 . S
C856 C857 1.523 . S
C857 C838 1.368 . S
C857 C851 1.368 . S
C857 C856 1.523 . S
C858 C842 1.429 . S
C858 C854 1.429 . S
C858 C859 1.523 . S
C859 C843 1.368 . S
C859 C855 1.368 . S
C859 C858 1.523 . S
H860 C835 0.950 . S
H861 C837 0.950 . S
H862 C838 0.949 . S
H863 C840 0.950 . S
H864 C842 0.950 . S
C865 C866 1.349 . S
C865 C867 1.327 . S
C865 H890 0.950 . S
C866 C865 1.349 . S
C866 C882 1.349 . S
C867 C865 1.327 . S
C867 C886 1.429 . S
C867 H891 0.950 . S
C868 C885 1.574 . S
C868 C887 1.368 . S
C868 H892 0.949 . S
H869 C873 0.949 . S
C870 C871 1.349 . S
C870 C872 1.327 . S
C870 H893 0.950 . S
C871 C870 1.349 . S
C871 C883 1.349 . S
C872 C870 1.327 . S
C872 C888 1.429 . S
C872 H894 0.950 . S
C873 H869 0.949 . S
C873 C881 1.574 . S
C873 C889 1.368 . S
H874 C882 0.950 . S
H875 C880 0.950 . S
H876 C881 0.949 . S
H877 C883 0.950 . S
H878 C884 0.950 . S
H879 C885 0.949 . S
C880 H875 0.950 . S
C880 C882 1.327 . S
C880 C886 1.429 . S
C881 C873 1.574 . S
C881 H876 0.949 . S
C881 C887 1.368 . S
C882 C866 1.349 . S
C882 H874 0.950 . S
C882 C880 1.327 . S
C883 C871 1.349 . S
C883 H877 0.950 . S
C883 C884 1.327 . S
C884 H878 0.950 . S
C884 C883 1.327 . S
C884 C888 1.429 . S
C885 C868 1.574 . S
C885 H879 0.949 . S
C885 C889 1.368 . S
C886 C867 1.429 . S
C886 C880 1.429 . S
C886 C887 1.523 . S
C887 C868 1.368 . S
C887 C881 1.368 . S
C887 C886 1.523 . S
C888 C872 1.429 . S
C888 C884 1.429 . S
C888 C889 1.523 . S
C889 C873 1.368 . S
C889 C885 1.368 . S
C889 C888 1.523 . S
H890 C865 0.950 . S
H891 C867 0.950 . S
H892 C868 0.949 . S
H893 C870 0.950 . S
H894 C872 0.950 . S
C895 C896 1.349 . S
C895 C897 1.327 . S
C895 H920 0.950 . S
C896 C895 1.349 . S
C896 C912 1.349 . S
C897 C895 1.327 . S
C897 C916 1.429 . S
C897 H921 0.950 . S
C898 C915 1.574 . S
C898 C917 1.368 . S
C898 H922 0.949 . S
H899 C903 0.949 . S
C900 C901 1.349 . S
C900 C902 1.327 . S
C900 H923 0.950 . S
C901 C900 1.349 . S
C901 C913 1.349 . S
C902 C900 1.327 . S
C902 C918 1.429 . S
C902 H924 0.950 . S
C903 H899 0.949 . S
C903 C911 1.574 . S
C903 C919 1.368 . S
H904 C912 0.950 . S
H905 C910 0.950 . S
H906 C911 0.949 . S
H907 C913 0.950 . S
H908 C914 0.950 . S
H909 C915 0.949 . S
C910 H905 0.950 . S
C910 C912 1.327 . S
C910 C916 1.429 . S
C911 C903 1.574 . S
C911 H906 0.949 . S
C911 C917 1.368 . S
C912 C896 1.349 . S
C912 H904 0.950 . S
C912 C910 1.327 . S
C913 C901 1.349 . S
C913 H907 0.950 . S
C913 C914 1.327 . S
C914 H908 0.950 . S
C914 C913 1.327 . S
C914 C918 1.429 . S
C915 C898 1.574 . S
C915 H909 0.949 . S
C915 C919 1.368 . S
C916 C897 1.429 . S
C916 C910 1.429 . S
C916 C917 1.523 . S
C917 C898 1.368 . S
C917 C911 1.368 . S
C917 C916 1.523 . S
C918 C902 1.429 . S
C918 C914 1.429 . S
C918 C919 1.523 . S
C919 C903 1.368 . S
C919 C915 1.368 . S
C919 C918 1.523 . S
H920 C895 0.950 . S
H921 C897 0.950 . S
H922 C898 0.949 . S
H923 C900 0.950 . S
H924 C902 0.950 . S
C925 C926 1.349 . S
C925 C927 1.327 . S
C925 H950 0.950 . S
C926 C925 1.349 . S
C926 C942 1.349 . S
C927 C925 1.327 . S
C927 C946 1.429 . S
C927 H951 0.950 . S
C928 C945 1.574 . S
C928 C947 1.368 . S
C928 H952 0.949 . S
H929 C933 0.949 . S
C930 C931 1.349 . S
C930 C932 1.327 . S
C930 H953 0.950 . S
C931 C930 1.349 . S
C931 C943 1.349 . S
C932 C930 1.327 . S
C932 C948 1.429 . S
C932 H954 0.950 . S
C933 H929 0.949 . S
C933 C941 1.574 . S
C933 C949 1.368 . S
H934 C942 0.950 . S
H935 C940 0.950 . S
H936 C941 0.949 . S
H937 C943 0.950 . S
H938 C944 0.950 . S
H939 C945 0.949 . S
C940 H935 0.950 . S
C940 C942 1.327 . S
C940 C946 1.429 . S
C941 C933 1.574 . S
C941 H936 0.949 . S
C941 C947 1.368 . S
C942 C926 1.349 . S
C942 H934 0.950 . S
C942 C940 1.327 . S
C943 C931 1.349 . S
C943 H937 0.950 . S
C943 C944 1.327 . S
C944 H938 0.950 . S
C944 C943 1.327 . S
C944 C948 1.429 . S
C945 C928 1.574 . S
C945 H939 0.949 . S
C945 C949 1.368 . S
C946 C927 1.429 . S
C946 C940 1.429 . S
C946 C947 1.523 . S
C947 C928 1.368 . S
C947 C941 1.368 . S
C947 C946 1.523 . S
C948 C932 1.429 . S
C948 C944 1.429 . S
C948 C949 1.523 . S
C949 C933 1.368 . S
C949 C945 1.368 . S
C949 C948 1.523 . S
H950 C925 0.950 . S
H951 C927 0.950 . S
H952 C928 0.949 . S
H953 C930 0.950 . S
H954 C932 0.950 . S
C955 C956 1.349 . S
C955 C957 1.327 . S
C955 H980 0.950 . S
C956 C955 1.349 . S
C956 C972 1.349 . S
C957 C955 1.327 . S
C957 C976 1.429 . S
C957 H981 0.950 . S
C958 C975 1.574 . S
C958 C977 1.368 . S
C958 H982 0.949 . S
H959 C963 0.949 . S
C960 C961 1.349 . S
C960 C962 1.327 . S
C960 H983 0.950 . S
C961 C960 1.349 . S
C961 C973 1.349 . S
C962 C960 1.327 . S
C962 C978 1.429 . S
C962 H984 0.950 . S
C963 H959 0.949 . S
C963 C971 1.574 . S
C963 C979 1.368 . S
H964 C972 0.950 . S
H965 C970 0.950 . S
H966 C971 0.949 . S
H967 C973 0.950 . S
H968 C974 0.950 . S
H969 C975 0.949 . S
C970 H965 0.950 . S
C970 C972 1.327 . S
C970 C976 1.429 . S
C971 C963 1.574 . S
C971 H966 0.949 . S
C971 C977 1.368 . S
C972 C956 1.349 . S
C972 H964 0.950 . S
C972 C970 1.327 . S
C973 C961 1.349 . S
C973 H967 0.950 . S
C973 C974 1.327 . S
C974 H968 0.950 . S
C974 C973 1.327 . S
C974 C978 1.429 . S
C975 C958 1.574 . S
C975 H969 0.949 . S
C975 C979 1.368 . S
C976 C957 1.429 . S
C976 C970 1.429 . S
C976 C977 1.523 . S
C977 C958 1.368 . S
C977 C971 1.368 . S
C977 C976 1.523 . S
C978 C962 1.429 . S
C978 C974 1.429 . S
C978 C979 1.523 . S
C979 C963 1.368 . S
C979 C975 1.368 . S
C979 C978 1.523 . S
H980 C955 0.950 . S
H981 C957 0.950 . S
H982 C958 0.949 . S
H983 C960 0.950 . S
H984 C962 0.950 . S
C985 C986 1.349 . S
C985 C987 1.327 . S
C985 H1010 0.950 . S
C986 C985 1.349 . S
C986 C1002 1.349 . S
C987 C985 1.327 . S
C987 C1006 1.429 . S
C987 H1011 0.950 . S
C988 C1005 1.574 . S
C988 C1007 1.368 . S
C988 H1012 0.949 . S
H989 C993 0.949 . S
C990 C991 1.349 . S
C990 C992 1.327 . S
C990 H1013 0.950 . S
C991 C990 1.349 . S
C991 C1003 1.349 . S
C992 C990 1.327 . S
C992 C1008 1.429 . S
C992 H1014 0.950 . S
C993 H989 0.949 . S
C993 C1001 1.574 . S
C993 C1009 1.368 . S
H994 C1002 0.950 . S
H995 C1000 0.950 . S
H996 C1001 0.949 . S
H997 C1003 0.950 . S
H998 C1004 0.950 . S
H999 C1005 0.949 . S
C1000 H995 0.950 . S
C1000 C1002 1.327 . S
C1000 C1006 1.429 . S
C1001 C993 1.574 . S
C1001 H996 0.949 . S
C1001 C1007 1.368 . S
C1002 C986 1.349 . S
C1002 H994 0.950 . S
C1002 C1000 1.327 . S
C1003 C991 1.349 . S
C1003 H997 0.950 . S
C1003 C1004 1.327 . S
C1004 H998 0.950 . S
C1004 C1003 1.327 . S
C1004 C1008 1.429 . S
C1005 C988 1.574 . S
C1005 H999 0.949 . S
C1005 C1009 1.368 . S
C1006 C987 1.429 . S
C1006 C1000 1.429 . S
C1006 C1007 1.523 . S
C1007 C988 1.368 . S
C1007 C1001 1.368 . S
C1007 C1006 1.523 . S
C1008 C992 1.429 . S
C1008 C1004 1.429 . S
C1008 C1009 1.523 . S
C1009 C993 1.368 . S
C1009 C1005 1.368 . S
C1009 C1008 1.523 . S
H1010 C985 0.950 . S
H1011 C987 0.950 . S
H1012 C988 0.949 . S
H1013 C990 0.950 . S
H1014 C992 0.950 . S
C1015 C1016 1.349 . S
C1015 C1017 1.327 . S
C1015 H1040 0.950 . S
C1016 C1015 1.349 . S
C1016 C1032 1.349 . S
C1017 C1015 1.327 . S
C1017 C1036 1.429 . S
C1017 H1041 0.950 . S
C1018 C1035 1.574 . S
C1018 C1037 1.368 . S
C1018 H1042 0.949 . S
H1019 C1023 0.949 . S
C1020 C1021 1.349 . S
C1020 C1022 1.327 . S
C1020 H1043 0.950 . S
C1021 C1020 1.349 . S
C1021 C1033 1.349 . S
C1022 C1020 1.327 . S
C1022 C1038 1.429 . S
C1022 H1044 0.950 . S
C1023 H1019 0.949 . S
C1023 C1031 1.574 . S
C1023 C1039 1.368 . S
H1024 C1032 0.950 . S
H1025 C1030 0.950 . S
H1026 C1031 0.949 . S
H1027 C1033 0.950 . S
H1028 C1034 0.950 . S
H1029 C1035 0.949 . S
C1030 H1025 0.950 . S
C1030 C1032 1.327 . S
C1030 C1036 1.429 . S
C1031 C1023 1.574 . S
C1031 H1026 0.949 . S
C1031 C1037 1.368 . S
C1032 C1016 1.349 . S
C1032 H1024 0.950 . S
C1032 C1030 1.327 . S
C1033 C1021 1.349 . S
C1033 H1027 0.950 . S
C1033 C1034 1.327 . S
C1034 H1028 0.950 . S
C1034 C1033 1.327 . S
C1034 C1038 1.429 . S
C1035 C1018 1.574 . S
C1035 H1029 0.949 . S
C1035 C1039 1.368 . S
C1036 C1017 1.429 . S
C1036 C1030 1.429 . S
C1036 C1037 1.523 . S
C1037 C1018 1.368 . S
C1037 C1031 1.368 . S
C1037 C1036 1.523 . S
C1038 C1022 1.429 . S
C1038 C1034 1.429 . S
C1038 C1039 1.523 . S
C1039 C1023 1.368 . S
C1039 C1035 1.368 . S
C1039 C1038 1.523 . S
H1040 C1015 0.950 . S
H1041 C1017 0.950 . S
H1042 C1018 0.949 . S
H1043 C1020 0.950 . S
H1044 C1022 0.950 . S
C1045 C1046 1.349 . S
C1045 C1047 1.327 . S
C1045 H1070 0.950 . S
C1046 C1045 1.349 . S
C1046 C1062 1.349 . S
C1047 C1045 1.327 . S
C1047 C1066 1.429 . S
C1047 H1071 0.950 . S
C1048 C1065 1.574 . S
C1048 C1067 1.368 . S
C1048 H1072 0.949 . S
H1049 C1053 0.949 . S
C1050 C1051 1.349 . S
C1050 C1052 1.327 . S
C1050 H1073 0.950 . S
C1051 C1050 1.349 . S
C1051 C1063 1.349 . S
C1052 C1050 1.327 . S
C1052 C1068 1.429 . S
C1052 H1074 0.950 . S
C1053 H1049 0.949 . S
C1053 C1061 1.574 . S
C1053 C1069 1.368 . S
H1054 C1062 0.950 . S
H1055 C1060 0.950 . S
H1056 C1061 0.949 . S
H1057 C1063 0.950 . S
H1058 C1064 0.950 . S
H1059 C1065 0.949 . S
C1060 H1055 0.950 . S
C1060 C1062 1.327 . S
C1060 C1066 1.429 . S
C1061 C1053 1.574 . S
C1061 H1056 0.949 . S
C1061 C1067 1.368 . S
C1062 C1046 1.349 . S
C1062 H1054 0.950 . S
C1062 C1060 1.327 . S
C1063 C1051 1.349 . S
C1063 H1057 0.950 . S
C1063 C1064 1.327 . S
C1064 H1058 0.950 . S
C1064 C1063 1.327 . S
C1064 C1068 1.429 . S
C1065 C1048 1.574 . S
C1065 H1059 0.949 . S
C1065 C1069 1.368 . S
C1066 C1047 1.429 . S
C1066 C1060 1.429 . S
C1066 C1067 1.523 . S
C1067 C1048 1.368 . S
C1067 C1061 1.368 . S
C1067 C1066 1.523 . S
C1068 C1052 1.429 . S
C1068 C1064 1.429 . S
C1068 C1069 1.523 . S
C1069 C1053 1.368 . S
C1069 C1065 1.368 . S
C1069 C1068 1.523 . S
H1070 C1045 0.950 . S
H1071 C1047 0.950 . S
H1072 C1048 0.949 . S
H1073 C1050 0.950 . S
H1074 C1052 0.950 . S
C361 C280 0.979 . S
C356 C17 1.002 . S
C391 C316 1.610 . S
C386 C55 1.722 . S
C421 C281 1.339 . S
C416 C87 1.355 . S
C451 C311 1.481 . S
C446 C113 1.528 . S
C481 C278 1.380 . S
C476 C145 1.377 . S
C506 C183 1.563 . S
C511 C314 1.638 . S
C536 C215 1.105 . S
C541 C283 1.022 . S
C571 C313 1.363 . S
C566 C247 1.391 . S
C601 C317 1.324 . S
C596 C23 1.330 . S
C631 C282 1.462 . S
C626 C49 1.532 . S
C661 C310 1.706 . S
C656 C81 1.718 . S
C691 C279 1.064 . S
C686 C125 1.150 . S
C721 C312 1.554 . S
C716 C151 1.589 . S
C746 C189 1.341 . S
C751 C277 1.396 . S
C776 C209 1.589 . S
C781 C315 1.527 . S
C811 C284 1.010 . S
C806 C241 1.047 . S
C841 C346 1.758 . S
C836 C29 1.804 . S
C866 C157 1.929 . S
C871 C349 1.897 . S
C901 C348 1.635 . S
C896 C177 1.626 . S
C926 C221 2.181 . S
C931 C347 2.160 . S
C961 C350 1.759 . S
C956 C253 1.840 . S
C986 C93 1.799 . S
C991 C344 1.723 . S
C1021 C343 2.042 . S
C1016 C119 2.063 . S
C1046 C61 2.063 . S
C1051 C345 1.931 . S
