# Generated by pormake.
# Topology anh, (6,3)-cn, num edge types: 1
# Building blocks:
#     Node 0, Type 0, BuildingBlock: BETFAJ_clean_sbu_0, # of connection points: 6
#     Node 1, Type 0, BuildingBlock: BETFAJ_clean_sbu_0, # of connection points: 6
#     Node 2, Type 0, BuildingBlock: BETFAJ_clean_sbu_0, # of connection points: 6
#     Node 3, Type 1, BuildingBlock: MIDCAF_clean_linker_0, # of connection points: 3
#     Node 4, Type 1, BuildingBlock: MIDCAF_clean_linker_0, # of connection points: 3
#     Node 5, Type 1, BuildingBlock: MIDCAF_clean_linker_0, # of connection points: 3
#     Node 6, Type 1, BuildingBlock: MIDCAF_clean_linker_0, # of connection points: 3
#     Node 7, Type 1, BuildingBlock: MIDCAF_clean_linker_0, # of connection points: 3
#     Node 8, Type 1, BuildingBlock: MIDCAF_clean_linker_0, # of connection points: 3
#     Edge 9, Type (0, 1), BuildingBlock: XIVTED_clean_linker_0, # of connection points: 2
#     Edge 10, Type (0, 1), BuildingBlock: XIVTED_clean_linker_0, # of connection points: 2
#     Edge 11, Type (0, 1), BuildingBlock: XIVTED_clean_linker_0, # of connection points: 2
#     Edge 12, Type (0, 1), BuildingBlock: XIVTED_clean_linker_0, # of connection points: 2
#     Edge 13, Type (0, 1), BuildingBlock: XIVTED_clean_linker_0, # of connection points: 2
#     Edge 14, Type (0, 1), BuildingBlock: XIVTED_clean_linker_0, # of connection points: 2
#     Edge 15, Type (0, 1), BuildingBlock: XIVTED_clean_linker_0, # of connection points: 2
#     Edge 16, Type (0, 1), BuildingBlock: XIVTED_clean_linker_0, # of connection points: 2
#     Edge 17, Type (0, 1), BuildingBlock: XIVTED_clean_linker_0, # of connection points: 2
#     Edge 18, Type (0, 1), BuildingBlock: XIVTED_clean_linker_0, # of connection points: 2
#     Edge 19, Type (0, 1), BuildingBlock: XIVTED_clean_linker_0, # of connection points: 2
#     Edge 20, Type (0, 1), BuildingBlock: XIVTED_clean_linker_0, # of connection points: 2
#     Edge 21, Type (0, 1), BuildingBlock: XIVTED_clean_linker_0, # of connection points: 2
#     Edge 22, Type (0, 1), BuildingBlock: XIVTED_clean_linker_0, # of connection points: 2
#     Edge 23, Type (0, 1), BuildingBlock: XIVTED_clean_linker_0, # of connection points: 2
#     Edge 24, Type (0, 1), BuildingBlock: XIVTED_clean_linker_0, # of connection points: 2
#     Edge 25, Type (0, 1), BuildingBlock: XIVTED_clean_linker_0, # of connection points: 2
#     Edge 26, Type (0, 1), BuildingBlock: XIVTED_clean_linker_0, # of connection points: 2
# Relax obj value: 0.183
# Max RMSD: 0.209
# Mean RMSD: 0.156
data_MOF--net-anh--node1-BETFAJ_clean_sbu_0--node2-MIDCAF_clean_linker_0--edge1-XIVTED_clean_linker_0
_symmetry_space_group_name_H-M    P1
_symmetry_Int_Tables_number       1
_symmetry_cell_setting            triclinic
loop_
_symmetry_equiv_pos_as_xyz
'x, y, z'
_cell_length_a     37.880898
_cell_length_b     44.071273
_cell_length_c     67.083781
_cell_angle_alpha  92.26179
_cell_angle_beta   89.388789
_cell_angle_gamma 128.5959
loop_
_atom_site_label
_atom_site_type_symbol
_atom_site_fract_x
_atom_site_fract_y
_atom_site_fract_z
_atom_type_partial_charge
Sm0 Sm 0.08342 0.51462 0.13612 0.0
Sm1 Sm 1.02895 0.53828 0.15203 0.0
C2 C 0.13993 0.50915 0.11634 0.0
C3 C 0.18731 0.52665 0.11986 0.0
C4 C 0.21129 0.52334 0.10515 0.0
C5 C 0.25468 0.53594 0.1094 0.0
C6 C 0.27438 0.55169 0.12848 0.0
C7 C 0.25104 0.55675 0.14285 0.0
C8 C 0.20786 0.5445 0.13852 0.0
C9 C 0.07738 0.51386 0.17689 0.0
C10 C 0.13437 0.60872 0.14683 0.0
C11 C 0.97127 0.54115 0.17266 0.0
C12 C 0.92305 0.51074 0.17635 0.0
C13 C 0.90472 0.50957 0.19484 0.0
C14 C 0.85957 0.47875 0.19881 0.0
C15 C 0.83233 0.44856 0.18437 0.0
C16 C 0.85106 0.45002 0.16588 0.0
C17 C 0.89594 0.4807 0.16194 0.0
C18 C 1.03651 0.53898 0.11112 0.0
C19 C 0.97846 0.44479 0.14249 0.0
O20 O 0.13206 0.53296 0.11157 0.0
O21 O 0.112 0.48441 0.12954 0.0
O22 O 0.08334 0.53953 0.16621 0.0
O23 O 0.07804 0.48901 0.16629 0.0
O24 O 0.13568 0.58252 0.13725 0.0
O25 O 0.09755 0.59849 0.15592 0.0
O26 O 0.99813 0.53589 0.18086 0.0
O27 O 0.98196 0.55226 0.15427 0.0
O28 O 1.02906 0.51297 0.12201 0.0
O29 O 1.03789 0.56516 0.12161 0.0
O30 O 0.97923 0.47101 0.15322 0.0
O31 O 1.01314 0.45524 0.1314 0.0
H32 H 0.19582 0.50968 0.09068 0.0
H33 H 0.27169 0.53126 0.09812 0.0
H34 H 0.26559 0.56896 0.15761 0.0
H35 H 0.18976 0.54753 0.14999 0.0
H36 H 0.92542 0.53223 0.20625 0.0
H37 H 0.84608 0.47841 0.21319 0.0
H38 H 0.83084 0.42775 0.15425 0.0
H39 H 0.90955 0.4807 0.14765 0.0
Sm40 Sm 0.59966 0.01593 0.47465 0.0
Sm41 Sm 0.54212 0.03899 0.46654 0.0
C42 C 0.63509 0.98421 0.48817 0.0
C43 C 0.62278 0.94548 0.49107 0.0
C44 C 0.61171 0.93013 0.51015 0.0
C45 C 0.6025 0.89467 0.51334 0.0
C46 C 0.60446 0.8738 0.49756 0.0
C47 C 0.61523 0.88902 0.47844 0.0
C48 C 0.62433 0.92447 0.47523 0.0
C49 C 0.59489 0.02749 0.43515 0.0
C50 C 0.48959 0.94756 0.46622 0.0
C51 C 0.50778 0.07255 0.45468 0.0
C52 C 0.51648 0.10909 0.46083 0.0
C53 C 0.49475 0.12101 0.45102 0.0
C54 C 0.50162 0.15495 0.45759 0.0
C55 C 0.53011 0.17727 0.47415 0.0
C56 C 0.55255 0.16552 0.48362 0.0
C57 C 0.54585 0.1318 0.47699 0.0
C58 C 0.54786 0.02876 0.50624 0.0
C59 C 0.6532 0.1078 0.47286 0.0
O60 O 0.6158 0.99457 0.49966 0.0
O61 O 0.6397 0.99523 0.46987 0.0
O62 O 0.56178 0.00961 0.44672 0.0
O63 O 0.63186 0.03904 0.44408 0.0
O64 O 0.5263 0.95725 0.47543 0.0
O65 O 0.48948 0.97426 0.45807 0.0
O66 O 0.54076 0.07607 0.44553 0.0
O67 O 0.4892 0.04622 0.46814 0.0
O68 O 0.58054 0.04586 0.49444 0.0
O69 O 0.51128 0.01829 0.49749 0.0
O70 O 0.61461 0.09759 0.46571 0.0
O71 O 0.65592 0.08168 0.4798 0.0
H72 H 0.61088 0.94585 0.52273 0.0
H73 H 0.59505 0.88414 0.52833 0.0
H74 H 0.61665 0.87353 0.46593 0.0
H75 H 0.63304 0.93554 0.46035 0.0
H76 H 0.47197 0.10378 0.43851 0.0
H77 H 0.48367 0.16312 0.45008 0.0
H78 H 0.57523 0.18238 0.49621 0.0
H79 H 0.56315 0.12313 0.48466 0.0
Sm80 Sm 0.59654 0.55793 0.83973 0.0
Sm81 Sm 0.53361 0.47099 0.84297 0.0
C82 C 0.63955 0.63067 0.82932 0.0
C83 C 0.63261 0.65959 0.82623 0.0
C84 C 0.59054 0.6486 0.82019 0.0
C85 C 0.58581 0.67696 0.8163 0.0
C86 C 0.62309 0.71679 0.81834 0.0
C87 C 0.66478 0.72745 0.82491 0.0
C88 C 0.66943 0.69915 0.82878 0.0
C89 C 0.58524 0.53278 0.87768 0.0
C90 C 0.48437 0.51195 0.84425 0.0
C91 C 0.49301 0.39785 0.85186 0.0
C92 C 0.49979 0.36883 0.84731 0.0
C93 C 0.53893 0.3793 0.83776 0.0
C94 C 0.54421 0.35119 0.8328 0.0
C95 C 0.51028 0.31199 0.83717 0.0
C96 C 0.47135 0.30182 0.84694 0.0
C97 C 0.46621 0.33 0.85196 0.0
C98 C 0.54615 0.49486 0.80456 0.0
C99 C 0.64682 0.518 0.84092 0.0
O100 O 0.62009 0.60103 0.81649 0.0
O101 O 0.63847 0.62123 0.84768 0.0
O102 O 0.55421 0.519 0.8648 0.0
O103 O 0.62385 0.5624 0.8711 0.0
O104 O 0.52451 0.5432 0.83836 0.0
O105 O 0.48009 0.4809 0.84938 0.0
O106 O 0.52352 0.42774 0.86341 0.0
O107 O 0.48081 0.40754 0.8368 0.0
O108 O 0.57702 0.50968 0.81768 0.0
O109 O 0.50779 0.46535 0.81125 0.0
O110 O 0.60561 0.48572 0.84484 0.0
O111 O 0.65215 0.54984 0.83655 0.0
H112 H 0.5616 0.61817 0.81816 0.0
H113 H 0.5533 0.66767 0.81114 0.0
H114 H 0.69398 0.75775 0.82703 0.0
H115 H 0.70211 0.70823 0.83354 0.0
H116 H 0.56508 0.40911 0.83388 0.0
H117 H 0.57435 0.35999 0.82507 0.0
H118 H 0.44481 0.27204 0.85074 0.0
H119 H 0.43578 0.32137 0.85933 0.0
C120 C 0.40964 0.90606 0.18635 0.0
C121 C 0.41005 0.88907 0.16827 0.0
C122 C 0.45003 0.91008 0.15711 0.0
C123 C 0.4888 0.94678 0.16416 0.0
H124 H 0.69306 0.10229 0.19969 0.0
H125 H 0.75544 0.16392 0.18602 0.0
H126 H 0.66294 0.15627 0.145 0.0
H127 H 0.60015 0.09373 0.15855 0.0
H128 H 0.64757 0.0716 0.24595 0.0
H129 H 0.65162 0.07276 0.28221 0.0
H130 H 0.50578 0.99904 0.28424 0.0
H131 H 0.50194 0.99624 0.24805 0.0
H132 H 0.4466 0.95364 0.20771 0.0
H133 H 0.3799 0.89075 0.19553 0.0
H134 H 0.45146 0.898 0.14304 0.0
H135 H 0.5194 0.96175 0.15556 0.0
N136 N 0.56534 0.0279 0.18136 0.0
N137 N 0.60646 0.06052 0.21125 0.0
N138 N 0.53395 0.00097 0.21237 0.0
C139 C 0.60357 0.05922 0.191 0.0
C140 C 0.5717 0.03168 0.22203 0.0
C141 C 0.5304 0.99841 0.19215 0.0
C142 C 0.64165 0.09305 0.18017 0.0
C143 C 0.6861 0.1133 0.18746 0.0
C144 C 0.72193 0.14862 0.17959 0.0
C145 C 0.71421 0.16515 0.16447 0.0
C146 C 0.66994 0.14437 0.15671 0.0
C147 C 0.63407 0.10842 0.16433 0.0
C148 C 0.57446 0.03365 0.24412 0.0
C149 C 0.61643 0.05567 0.25419 0.0
C150 C 0.61869 0.05651 0.27504 0.0
C151 C 0.57902 0.03591 0.28635 0.0
C152 C 0.53709 0.01452 0.27617 0.0
C153 C 0.53484 0.01311 0.25534 0.0
C154 C 0.48852 0.96284 0.18265 0.0
C155 C 0.44818 0.94221 0.19343 0.0
C156 C 0.59814 0.42877 0.54976 0.0
C157 C 0.57746 0.41536 0.53074 0.0
C158 C 0.56497 0.43554 0.52139 0.0
C159 C 0.57134 0.46737 0.53124 0.0
H160 H 0.59448 0.57699 0.52439 0.0
H161 H 0.59035 0.62451 0.50942 0.0
H162 H 0.57933 0.66167 0.56808 0.0
H163 H 0.58289 0.61445 0.58295 0.0
H164 H 0.61343 0.59443 0.62099 0.0
H165 H 0.61043 0.59163 0.65736 0.0
H166 H 0.58233 0.48042 0.65286 0.0
H167 H 0.58537 0.483 0.61667 0.0
H168 H 0.61948 0.46906 0.5744 0.0
H169 H 0.6094 0.41472 0.5572 0.0
H170 H 0.54887 0.42594 0.50675 0.0
H171 H 0.56012 0.48157 0.52394 0.0
N172 N 0.59045 0.53609 0.55323 0.0
N173 N 0.59563 0.56451 0.58459 0.0
N174 N 0.59642 0.5119 0.58248 0.0
C175 C 0.59202 0.56349 0.56438 0.0
C176 C 0.59781 0.53884 0.59376 0.0
C177 C 0.59289 0.51028 0.56228 0.0
C178 C 0.58906 0.59178 0.5549 0.0
C179 C 0.59098 0.59519 0.53407 0.0
C180 C 0.58883 0.62253 0.52549 0.0
C181 C 0.58425 0.64672 0.53755 0.0
C182 C 0.58209 0.64308 0.55832 0.0
C183 C 0.58452 0.61609 0.56687 0.0
C184 C 0.59929 0.5388 0.61585 0.0
C185 C 0.60694 0.5695 0.62774 0.0
C186 C 0.6055 0.56806 0.64857 0.0
C187 C 0.59584 0.5357 0.65788 0.0
C188 C 0.58936 0.50553 0.64604 0.0
C189 C 0.5913 0.50714 0.62529 0.0
C190 C 0.59009 0.47945 0.55066 0.0
C191 C 0.60416 0.46018 0.5596 0.0
C192 C 0.96591 0.55366 0.85525 0.0
C193 C 0.9228 0.51918 0.8492 0.0
C194 C 0.92037 0.48583 0.84579 0.0
C195 C 0.95824 0.48669 0.84901 0.0
H196 H 0.16334 0.55438 0.83838 0.0
H197 H 0.2268 0.55304 0.83237 0.0
H198 H 0.17356 0.46544 0.87602 0.0
H199 H 0.11097 0.46643 0.88148 0.0
H200 H 0.11278 0.51464 0.9249 0.0
H201 H 0.11055 0.51889 0.96119 0.0
H202 H 1.01377 0.53979 0.95647 0.0
H203 H 1.01637 0.53615 0.92028 0.0
H204 H 1.03451 0.58107 0.86451 0.0
H205 H 0.97048 0.58014 0.85854 0.0
H206 H 0.88873 0.45846 0.84097 0.0
H207 H 0.95339 0.45975 0.84739 0.0
N208 N 0.06609 0.51591 0.85654 0.0
N209 N 0.0945 0.51792 0.8882 0.0
N210 N 1.03683 0.52304 0.88609 0.0
C211 C 0.09605 0.51509 0.86799 0.0
C212 C 0.06555 0.52206 0.89736 0.0
C213 C 1.03588 0.5198 0.86588 0.0
C214 C 0.13036 0.50978 0.86014 0.0
C215 C 0.16433 0.5339 0.8462 0.0
C216 C 0.20165 0.53357 0.84304 0.0
C217 C 0.20678 0.50904 0.8536 0.0
C218 C 0.17192 0.48444 0.86708 0.0
C219 C 0.13523 0.48497 0.87028 0.0
C220 C 0.06475 0.52503 0.91954 0.0
C221 C 0.0911 0.52027 0.93156 0.0
C222 C 0.08963 0.52247 0.95241 0.0
C223 C 0.06198 0.52968 0.96179 0.0
C224 C 1.03589 0.53469 0.94978 0.0
C225 C 1.03719 0.53233 0.92896 0.0
C226 C 1.00079 0.52099 0.85563 0.0
C227 C 1.00348 0.55438 0.85854 0.0
C228 C 0.18077 0.66577 0.42957 0.0
C229 C 0.20534 0.67097 0.44668 0.0
C230 C 0.19193 0.63768 0.45661 0.0
C231 C 0.15526 0.60014 0.44929 0.0
H232 H 1.03142 0.46367 0.45846 0.0
H233 H 0.9683 0.40159 0.47258 0.0
H234 H 0.88708 0.37475 0.42009 0.0
H235 H 0.94897 0.43552 0.40617 0.0
H236 H 1.00833 0.45884 0.36507 0.0
H237 H 1.00796 0.45755 0.32871 0.0
H238 H 0.12255 0.57974 0.33012 0.0
H239 H 0.12265 0.58136 0.36637 0.0
H240 H 0.12771 0.6261 0.40867 0.0
H241 H 0.19028 0.69045 0.42132 0.0
H242 H 0.21 0.64065 0.4699 0.0
H243 H 0.14636 0.575 0.45685 0.0
N244 N 0.06585 0.52416 0.43171 0.0
N245 N 1.03383 0.4894 0.40097 0.0
N246 N 0.09717 0.55476 0.40135 0.0
C247 C 1.03335 0.49028 0.42126 0.0
C248 C 0.06571 0.52133 0.39089 0.0
C249 C 0.09779 0.55672 0.4216 0.0
C250 C 0.99539 0.4546 0.43116 0.0
C251 C 0.99987 0.44457 0.4501 0.0
C252 C 0.9639 0.40895 0.4581 0.0
C253 C 0.92255 0.38325 0.44749 0.0
C254 C 0.91812 0.39391 0.4288 0.0
C255 C 0.95392 0.42882 0.42075 0.0
C256 C 0.06551 0.5202 0.36874 0.0
C257 C 1.03346 0.48548 0.35766 0.0
C258 C 1.03336 0.48466 0.33679 0.0
C259 C 0.06519 0.51856 0.32651 0.0
C260 C 0.09717 0.55324 0.33757 0.0
C261 C 0.09737 0.55406 0.3584 0.0
C262 C 0.13203 0.59533 0.43172 0.0
C263 C 0.1449 0.62867 0.42221 0.0
C264 C 0.52645 0.10109 0.76317 0.0
C265 C 0.5407 0.11314 0.78315 0.0
C266 C 0.56186 0.10027 0.79271 0.0
C267 C 0.56869 0.07596 0.78243 0.0
H268 H 0.56422 0.97267 0.78697 0.0
H269 H 0.57385 0.92791 0.80134 0.0
H270 H 0.62513 0.91982 0.74529 0.0
H271 H 0.61605 0.96435 0.73106 0.0
H272 H 0.60151 0.99183 0.6918 0.0
H273 H 0.59963 0.99265 0.65544 0.0
H274 H 0.54624 0.05515 0.65989 0.0
H275 H 0.54773 0.05423 0.69607 0.0
H276 H 0.52271 0.06917 0.7374 0.0
H277 H 0.51053 0.1108 0.75527 0.0
H278 H 0.57301 0.10893 0.80815 0.0
H279 H 0.58543 0.0668 0.79011 0.0
N280 N 0.57288 0.01885 0.75963 0.0
N281 N 0.58255 0.99954 0.72821 0.0
N282 N 0.5655 0.04218 0.73036 0.0
C283 C 0.58169 0.99779 0.74843 0.0
C284 C 0.57448 0.02162 0.71905 0.0
C285 C 0.56478 0.04122 0.75059 0.0
C286 C 0.58929 0.97219 0.75783 0.0
C287 C 0.57788 0.96156 0.77778 0.0
C288 C 0.58308 0.9357 0.78597 0.0
C289 C 0.60034 0.92032 0.77448 0.0
C290 C 0.6123 0.93145 0.75466 0.0
C291 C 0.60676 0.95689 0.74645 0.0
C292 C 0.57459 0.02281 0.69694 0.0
C293 C 0.5894 0.0058 0.68505 0.0
C294 C 0.58861 0.00646 0.6642 0.0
C295 C 0.5726 0.0238 0.6548 0.0
C296 C 0.55822 0.04111 0.66668 0.0
C297 C 0.55933 0.04074 0.68747 0.0
C298 C 0.5552 0.06465 0.76228 0.0
C299 C 0.53376 0.07737 0.75287 0.0
C300 C 0.54984 0.31582 0.12029 0.0
C301 C 0.53687 0.31271 0.14034 0.0
C302 C 0.50357 0.31656 0.14513 0.0
C303 C 0.48868 0.32879 0.1309 0.0
H304 H 0.48184 0.41871 0.13614 0.0
H305 H 0.46766 0.46172 0.15088 0.0
H306 H 0.47604 0.50382 0.0925 0.0
H307 H 0.49127 0.46216 0.078 0.0
H308 H 0.49053 0.33958 0.03727 0.0
H309 H 0.50867 0.35463 0.00188 0.0
H310 H 0.59738 0.47722 0.01839 0.0
H311 H 0.5789 0.46225 0.05325 0.0
H312 H 0.54838 0.33302 0.09119 0.0
H313 H 0.5754 0.31312 0.11593 0.0
H314 H 0.49178 0.31324 0.16026 0.0
H315 H 0.4659 0.33467 0.1355 0.0
N316 N 0.4929 0.38384 0.10724 0.0
N317 N 0.50811 0.41483 0.07726 0.0
N318 N 0.51441 0.36538 0.0792 0.0
C319 C 0.49564 0.41071 0.09655 0.0
C320 C 0.51722 0.39229 0.06845 0.0
C321 C 0.50212 0.36099 0.0987 0.0
C322 C 0.48744 0.43677 0.10586 0.0
C323 C 0.48092 0.43736 0.12651 0.0
C324 C 0.47287 0.46204 0.13496 0.0
C325 C 0.47108 0.4865 0.12292 0.0
C326 C 0.47832 0.4862 0.10236 0.0
C327 C 0.48652 0.4618 0.09396 0.0
C328 C 0.5332 0.39982 0.04782 0.0
C329 C 0.51467 0.36959 0.03324 0.0
C330 C 0.52483 0.3782 0.01308 0.0
C331 C 0.55444 0.41708 0.00743 0.0
C332 C 0.5749 0.44701 0.02228 0.0
C333 C 0.56411 0.43847 0.04222 0.0
C334 C 0.50632 0.33684 0.11156 0.0
C335 C 0.53453 0.32758 0.10602 0.0
H336 H 0.28985 0.52743 0.1616 0.0
H337 H 0.50279 0.55955 0.11317 0.0
H338 H 0.35299 0.58849 0.10765 0.0
H339 H 0.4074 0.46564 0.15115 0.0
H340 H 0.46591 0.58857 0.12019 0.0
H341 H 0.35113 0.5241 0.16673 0.0
C342 C 0.31735 0.54119 0.15116 0.0
C343 C 0.31609 0.55771 0.13399 0.0
C344 C 0.45382 0.56208 0.12732 0.0
C345 C 0.38578 0.55364 0.13969 0.0
C346 C 0.47463 0.54537 0.12327 0.0
C347 C 0.45725 0.50941 0.13107 0.0
C348 C 0.41567 0.54287 0.1394 0.0
C349 C 0.42177 0.49314 0.14463 0.0
C350 C 0.35211 0.53906 0.15404 0.0
C351 C 0.35238 0.57486 0.12087 0.0
N352 N 0.40161 0.50966 0.14809 0.0
N353 N 0.38551 0.57191 0.12384 0.0
H354 H 0.74246 0.14112 0.48088 0.0
H355 H 0.83352 0.3518 0.44806 0.0
H356 H 0.65733 0.16981 0.46357 0.0
H357 H 0.92292 0.32719 0.4643 0.0
H358 H 0.76899 0.28622 0.45658 0.0
H359 H 0.80896 0.2095 0.4776 0.0
C360 C 0.73764 0.16174 0.47655 0.0
C361 C 0.69406 0.14944 0.47238 0.0
C362 C 0.80264 0.29505 0.45844 0.0
C363 C 0.77013 0.22782 0.46857 0.0
C364 C 0.8396 0.33261 0.45356 0.0
C365 C 0.88379 0.34501 0.45528 0.0
C366 C 0.80951 0.26918 0.46504 0.0
C367 C 0.88949 0.31894 0.46279 0.0
C368 C 0.77567 0.20079 0.47465 0.0
C369 C 0.69009 0.17762 0.46681 0.0
N370 N 0.85278 0.28213 0.4672 0.0
N371 N 0.72745 0.21521 0.46501 0.0
H372 H 0.55302 0.71929 0.82558 0.0
H373 H 0.67112 0.91874 0.76999 0.0
H374 H 0.68431 0.78377 0.79876 0.0
H375 H 0.54122 0.85794 0.79776 0.0
H376 H 0.67682 0.87005 0.78139 0.0
H377 H 0.54791 0.76968 0.8162 0.0
C378 C 0.58073 0.74394 0.8177 0.0
C379 C 0.61923 0.74722 0.81303 0.0
C380 C 0.64708 0.86732 0.78508 0.0
C381 C 0.61371 0.80521 0.80236 0.0
C382 C 0.64374 0.89511 0.7785 0.0
C383 C 0.60547 0.89233 0.78277 0.0
C384 C 0.61181 0.8362 0.796 0.0
C385 C 0.57146 0.86139 0.7942 0.0
C386 C 0.57789 0.77283 0.81245 0.0
C387 C 0.65426 0.78014 0.80298 0.0
N388 N 0.57528 0.8344 0.8003 0.0
N389 N 0.6506 0.80766 0.79797 0.0
H390 H 0.78232 0.37085 0.17408 0.0
H391 H 0.56326 0.35366 0.17623 0.0
H392 H 0.77114 0.45441 0.20197 0.0
H393 H 0.57685 0.27744 0.14093 0.0
H394 H 0.62867 0.37489 0.19606 0.0
H395 H 0.69993 0.32357 0.1719 0.0
C396 C 0.76251 0.37902 0.18008 0.0
C397 C 0.78361 0.41705 0.18762 0.0
C398 C 0.61675 0.3528 0.1843 0.0
C399 C 0.68949 0.36307 0.18527 0.0
C400 C 0.57884 0.3402 0.17301 0.0
C401 C 0.56525 0.31462 0.15632 0.0
C402 C 0.64169 0.34025 0.1787 0.0
C403 C 0.5872 0.2984 0.15313 0.0
C404 C 0.7155 0.35194 0.17893 0.0
C405 C 0.75638 0.42563 0.1958 0.0
N406 N 0.62515 0.31231 0.16384 0.0
N407 N 0.71072 0.39912 0.19401 0.0
H408 H 0.47856 0.88209 0.47651 0.0
H409 H 0.21398 0.73759 0.44821 0.0
H410 H 0.40514 0.91851 0.45317 0.0
H411 H 0.28912 0.69641 0.45984 0.0
H412 H 0.28256 0.80418 0.45419 0.0
H413 H 0.40895 0.81439 0.47413 0.0
C414 C 0.44789 0.87595 0.47092 0.0
C415 C 0.44792 0.90621 0.46495 0.0
C416 C 0.28416 0.78066 0.45554 0.0
C417 C 0.36797 0.82871 0.46238 0.0
C418 C 0.2449 0.7425 0.45211 0.0
C419 C 0.24569 0.71115 0.45324 0.0
C420 C 0.32496 0.78797 0.46023 0.0
C421 C 0.28674 0.71953 0.45884 0.0
C422 C 0.40815 0.83725 0.46957 0.0
C423 C 0.40702 0.89632 0.45785 0.0
N424 N 0.32478 0.75712 0.46198 0.0
N425 N 0.3689 0.8586 0.4568 0.0
H426 H 0.58576 0.31606 0.83905 0.0
H427 H 0.46533 0.10869 0.78294 0.0
H428 H 0.44511 0.23874 0.82102 0.0
H429 H 0.60145 0.17864 0.80677 0.0
H430 H 0.45733 0.15582 0.79735 0.0
H431 H 0.59253 0.2664 0.82765 0.0
C432 C 0.5563 0.28867 0.83269 0.0
C433 C 0.51479 0.28166 0.83099 0.0
C434 C 0.4889 0.16083 0.79957 0.0
C435 C 0.52228 0.22454 0.81798 0.0
C436 C 0.49352 0.13394 0.79128 0.0
C437 C 0.53422 0.13981 0.79354 0.0
C438 C 0.52536 0.19418 0.81011 0.0
C439 C 0.56939 0.17283 0.80475 0.0
C440 C 0.56013 0.26023 0.8263 0.0
C441 C 0.47765 0.24537 0.82287 0.0
N442 N 0.5643 0.19894 0.81247 0.0
N443 N 0.48235 0.21836 0.81659 0.0
H444 H 0.54045 0.81451 0.52106 0.0
H445 H 0.6361 0.69625 0.50765 0.0
H446 H 0.65101 0.84921 0.48259 0.0
H447 H 0.52907 0.66499 0.54763 0.0
H448 H 0.63739 0.74878 0.49578 0.0
H449 H 0.53173 0.75649 0.52877 0.0
C450 C 0.5629 0.80993 0.51422 0.0
C451 C 0.59675 0.83701 0.50127 0.0
C452 C 0.61343 0.73026 0.50706 0.0
C453 C 0.58677 0.77033 0.50996 0.0
C454 C 0.61248 0.7001 0.51375 0.0
C455 C 0.58273 0.67639 0.52881 0.0
C456 C 0.58435 0.73672 0.51545 0.0
C457 C 0.55316 0.68299 0.53628 0.0
C458 C 0.55777 0.77667 0.51855 0.0
C459 C 0.62425 0.82906 0.49255 0.0
N460 N 0.55489 0.7126 0.52961 0.0
N461 N 0.61886 0.79662 0.49715 0.0
H462 H 0.73837 0.57884 0.83474 0.0
H463 H 0.83005 0.45712 0.85361 0.0
H464 H 0.6506 0.45803 0.84882 0.0
H465 H 0.91775 0.57856 0.84044 0.0
H466 H 0.76498 0.45654 0.85128 0.0
H467 H 0.80336 0.57893 0.83635 0.0
C468 C 0.73237 0.55217 0.83814 0.0
C469 C 0.68784 0.51836 0.8416 0.0
C470 C 0.79843 0.48339 0.84888 0.0
C471 C 0.76408 0.51831 0.84352 0.0
C472 C 0.8362 0.48377 0.85006 0.0
C473 C 0.88101 0.51798 0.84726 0.0
C474 C 0.80422 0.51744 0.84477 0.0
C475 C 0.88491 0.55133 0.84307 0.0
C476 C 0.76996 0.55229 0.83908 0.0
C477 C 0.68361 0.48499 0.84598 0.0
N478 N 0.84771 0.55013 0.84197 0.0
N479 N 0.72063 0.48586 0.84679 0.0
H480 H 0.22097 0.64122 0.13489 0.0
H481 H 0.32088 0.85791 0.17048 0.0
H482 H 0.14182 0.67154 0.16136 0.0
H483 H 0.40566 0.82835 0.15165 0.0
H484 H 0.25439 0.79054 0.16387 0.0
H485 H 0.28812 0.70991 0.13787 0.0
C486 C 0.21757 0.66225 0.14124 0.0
C487 C 0.17549 0.65036 0.14794 0.0
C488 C 0.28747 0.7987 0.16108 0.0
C489 C 0.25239 0.72921 0.15132 0.0
C490 C 0.32559 0.83728 0.16489 0.0
C491 C 0.36921 0.84897 0.16186 0.0
C492 C 0.29256 0.77115 0.15412 0.0
C493 C 0.37283 0.82086 0.15415 0.0
C494 C 0.256 0.70149 0.14296 0.0
C495 C 0.17339 0.67908 0.15607 0.0
N496 N 0.33509 0.78326 0.15069 0.0
N497 N 0.21113 0.71695 0.15752 0.0
H498 H 0.52919 0.19725 0.51307 0.0
H499 H 0.58462 0.40017 0.49117 0.0
H500 H 0.54241 0.23583 0.45337 0.0
H501 H 0.54757 0.34867 0.54874 0.0
H502 H 0.57104 0.34158 0.4767 0.0
H503 H 0.53885 0.25439 0.52621 0.0
C504 C 0.53437 0.2179 0.50271 0.0
C505 C 0.5353 0.21186 0.48209 0.0
C506 C 0.56584 0.34319 0.49249 0.0
C507 C 0.54606 0.27749 0.49707 0.0
C508 C 0.5734 0.37654 0.50074 0.0
C509 C 0.56781 0.37966 0.52127 0.0
C510 C 0.55267 0.3128 0.50486 0.0
C511 C 0.55345 0.34812 0.53295 0.0
C512 C 0.53958 0.25044 0.51022 0.0
C513 C 0.54127 0.23928 0.46937 0.0
N514 N 0.54663 0.31625 0.52462 0.0
N515 N 0.54668 0.27105 0.47707 0.0
H516 H 0.47965 0.57117 0.83595 0.0
H517 H 0.21254 0.44926 0.8591 0.0
H518 H 0.39462 0.45328 0.85489 0.0
H519 H 0.29698 0.56879 0.84248 0.0
H520 H 0.27787 0.45046 0.85706 0.0
H521 H 0.41442 0.57088 0.83762 0.0
C522 C 0.44744 0.54507 0.84047 0.0
C523 C 0.44373 0.51217 0.84528 0.0
C524 C 0.28238 0.47655 0.85385 0.0
C525 C 0.36698 0.51169 0.84721 0.0
C526 C 0.2446 0.47609 0.85514 0.0
C527 C 0.24782 0.50914 0.85121 0.0
C528 C 0.32514 0.5103 0.84848 0.0
C529 C 0.29141 0.54222 0.8456 0.0
C530 C 0.40982 0.54499 0.84142 0.0
C531 C 0.40015 0.47953 0.85101 0.0
N532 N 0.32766 0.54192 0.8445 0.0
N533 N 0.3642 0.48018 0.85178 0.0
H534 H 0.89497 0.41457 0.15691 0.0
H535 H 0.80074 0.19483 0.15464 0.0
H536 H 0.96947 0.37963 0.13043 0.0
H537 H 0.71401 0.22669 0.16006 0.0
H538 H 0.8641 0.26226 0.1473 0.0
H539 H 0.8297 0.34632 0.15988 0.0
C540 C 0.89759 0.39259 0.15159 0.0
C541 C 0.93793 0.40309 0.14334 0.0
C542 C 0.83111 0.25441 0.14989 0.0
C543 C 0.86308 0.32434 0.14703 0.0
C544 C 0.79495 0.21595 0.15413 0.0
C545 C 0.75191 0.20501 0.15796 0.0
C546 C 0.82456 0.28248 0.14985 0.0
C547 C 0.74642 0.23366 0.15703 0.0
C548 C 0.86017 0.3535 0.15327 0.0
C549 C 0.93911 0.37302 0.1368 0.0
N550 N 0.78235 0.27106 0.15331 0.0
N551 N 0.90245 0.33508 0.13897 0.0
H552 H 0.04725 0.59015 0.08493 0.0
H553 H 0.05977 0.48314 0.98873 0.0
H554 H 1.03676 0.48716 0.08751 0.0
H555 H 0.05926 0.58048 0.98553 0.0
H556 H 0.05491 0.48605 0.02503 0.0
H557 H 0.05473 0.58874 0.04864 0.0
C558 C 0.0465 0.56724 0.07784 0.0
C559 C 1.04118 0.53864 0.08921 0.0
C560 C 0.05589 0.5068 0.0164 0.0
C561 C 0.04989 0.53687 0.04771 0.0
C562 C 0.05897 0.50532 -0.00435 0.0
C563 C 0.05988 0.53158 0.98398 0.0
C564 C 0.05387 0.53484 0.02566 0.0
C565 C 0.05806 0.55931 -0.00616 0.0
C566 C 0.05076 0.56642 0.05713 0.0
C567 C 1.04059 0.50968 0.07928 0.0
N568 N 0.05518 0.56022 0.01407 0.0
N569 N 0.0449 0.50954 0.05912 0.0
H570 H 0.51831 0.98654 0.41174 0.0
H571 H 0.64366 0.09546 0.31232 0.0
H572 H 0.66297 0.07451 0.40952 0.0
H573 H 0.51941 0.97723 0.31151 0.0
H574 H 0.64722 0.09449 0.3486 0.0
H575 H 0.51369 0.98953 0.37548 0.0
C576 C 0.54903 0.00663 0.40362 0.0
C577 C 0.59113 0.03014 0.41353 0.0
C578 C 0.6192 0.06886 0.3404 0.0
C579 C 0.58605 0.034 0.37229 0.0
C580 C 0.61721 0.06921 0.31964 0.0
C581 C 0.58123 0.0363 0.3086 0.0
C582 C 0.58463 0.03564 0.35033 0.0
C583 C 0.54743 0.0036 0.31922 0.0
C584 C 0.54639 0.00821 0.38297 0.0
C585 C 0.62991 0.0557 0.40236 0.0
N586 N 0.54989 0.00416 0.33944 0.0
N587 N 0.62645 0.05708 0.38232 0.0
H588 H 0.48435 0.45653 0.77432 0.0
H589 H 0.65093 0.59008 0.68769 0.0
H590 H 0.6248 0.55285 0.78631 0.0
H591 H 0.52709 0.47333 0.67776 0.0
H592 H 0.63954 0.5825 0.72389 0.0
H593 H 0.49682 0.46826 0.73881 0.0
C594 C 0.51786 0.4803 0.76946 0.0
C595 C 0.5537 0.50359 0.78323 0.0
C596 C 0.615 0.5586 0.71374 0.0
C597 C 0.56821 0.51728 0.74253 0.0
C598 C 0.62135 0.56295 0.69315 0.0
C599 C 0.59002 0.53217 0.67977 0.0
C600 C 0.57667 0.52349 0.72089 0.0
C601 C 0.55235 0.49759 0.68756 0.0
C602 C 0.52498 0.48691 0.74917 0.0
C603 C 0.59634 0.53413 0.77611 0.0
N604 N 0.54666 0.49425 0.70757 0.0
N605 N 0.60249 0.54014 0.75618 0.0
H606 H 0.48151 0.99973 0.53347 0.0
H607 H 0.63572 0.03871 0.62738 0.0
H608 H 0.62246 0.05211 0.52826 0.0
H609 H 0.50299 0.00736 0.63184 0.0
H610 H 0.63022 0.03857 0.59094 0.0
H611 H 0.48749 0.99706 0.5694 0.0
C612 C 0.51377 0.01064 0.53992 0.0
C613 C 0.55162 0.02637 0.52791 0.0
C614 C 0.60236 0.03175 0.59992 0.0
C615 C 0.55876 0.02334 0.56914 0.0
C616 C 0.60536 0.03161 0.62069 0.0
C617 C 0.56985 0.02324 0.63268 0.0
C618 C 0.56337 0.02306 0.59109 0.0
C619 C 0.53145 0.01454 0.62323 0.0
C620 C 0.5172 0.00916 0.56046 0.0
C621 C 0.59252 0.0399 0.53704 0.0
N622 N 0.52923 0.01463 0.60304 0.0
N623 N 0.59505 0.0381 0.55715 0.0
H624 H 0.5076 0.46907 0.89307 0.0
H625 H 0.63346 0.47105 0.98867 0.0
H626 H 0.65155 0.55165 0.90371 0.0
H627 H 0.48953 0.38747 0.97829 0.0
H628 H 0.64147 0.49674 0.95587 0.0
H629 H 0.50059 0.43563 0.92295 0.0
C630 C 0.53769 0.48018 0.90175 0.0
C631 C 0.58018 0.51323 0.89603 0.0
C632 C 0.60816 0.47246 0.96063 0.0
C633 C 0.57254 0.47513 0.93009 0.0
C634 C 0.60363 0.45773 0.97931 0.0
C635 C 0.56074 0.42732 0.98623 0.0
C636 C 0.56946 0.45689 0.94883 0.0
C637 C 0.52323 0.41083 0.97347 0.0
C638 C 0.53372 0.46101 0.91874 0.0
C639 C 0.61812 0.52639 0.9077 0.0
N640 N 0.52838 0.42617 0.95547 0.0
N641 N 0.6134 0.50735 0.92421 0.0
H642 H 0.06397 0.4601 0.20158 0.0
H643 H 0.07799 0.57265 0.30173 0.0
H644 H 0.08419 0.56789 0.20201 0.0
H645 H 0.053 0.46272 0.30071 0.0
H646 H 0.08032 0.57159 0.26529 0.0
H647 H 0.0596 0.46059 0.23794 0.0
C648 C 0.06751 0.4839 0.20936 0.0
C649 C 0.07456 0.51405 0.19883 0.0
C650 C 0.07423 0.54766 0.27303 0.0
C651 C 0.06957 0.51485 0.24045 0.0
C652 C 0.07313 0.54834 0.29385 0.0
C653 C 0.06541 0.51777 0.30433 0.0
C654 C 0.0677 0.51623 0.26256 0.0
C655 C 0.05859 0.48671 0.29329 0.0
C656 C 0.06495 0.48415 0.23012 0.0
C657 C 0.07874 0.5441 0.20961 0.0
N658 N 0.06005 0.48682 0.27304 0.0
N659 N 0.07627 0.54378 0.22985 0.0
loop_
_geom_bond_atom_site_label_1
_geom_bond_atom_site_label_2
_geom_bond_distance
_geom_bond_site_symmetry_2
_ccdc_geom_bond_type
Sm0 C2 2.846 . S
Sm0 O20 2.543 . S
Sm0 O21 2.450 . S
Sm0 O22 2.681 . S
Sm0 O23 2.464 . S
Sm0 O24 2.396 . S
Sm0 O28 2.386 . S
Sm0 O31 2.408 1_455 S
Sm1 C11 2.846 . S
Sm1 O22 2.386 1_655 S
Sm1 O25 2.408 1_655 S
Sm1 O26 2.543 . S
Sm1 O27 2.450 . S
Sm1 O28 2.681 1_655 S
Sm1 O29 2.464 . S
Sm1 O30 2.396 . S
C2 Sm0 2.846 . S
C2 C3 1.506 . S
C2 O20 1.261 . S
C2 O21 1.242 . S
C3 C2 1.506 . S
C3 C4 1.358 . S
C3 C8 1.382 . S
C4 C3 1.358 . S
C4 C5 1.385 . S
C4 H32 0.930 . S
C5 C4 1.385 . S
C5 C6 1.395 . S
C5 H33 0.929 . S
C6 C5 1.395 . S
C6 C7 1.335 . S
C7 C6 1.335 . S
C7 C8 1.398 . S
C7 H34 0.930 . S
C8 C3 1.382 . S
C8 C7 1.398 . S
C8 H35 0.929 . S
C9 O22 1.271 . S
C9 O23 1.251 . S
C10 O24 1.252 . S
C10 O25 1.272 . S
C11 Sm1 2.846 . S
C11 C12 1.506 . S
C11 O26 1.261 . S
C11 O27 1.242 . S
C12 C11 1.506 . S
C12 C13 1.358 . S
C12 C17 1.382 . S
C13 C12 1.358 . S
C13 C14 1.385 . S
C13 H36 0.930 . S
C14 C13 1.385 . S
C14 C15 1.395 . S
C14 H37 0.929 . S
C15 C14 1.395 . S
C15 C16 1.335 . S
C16 C15 1.335 . S
C16 C17 1.398 . S
C16 H38 0.930 . S
C17 C12 1.382 . S
C17 C16 1.398 . S
C17 H39 0.929 . S
C18 O28 1.271 . S
C18 O29 1.251 1_455 S
C19 O30 1.252 . S
C19 O31 1.272 . S
O20 Sm0 2.543 . S
O20 C2 1.261 . S
O21 Sm0 2.450 . S
O21 C2 1.242 . S
O22 Sm0 2.681 . S
O22 Sm1 2.386 1_455 S
O22 C9 1.271 . S
O23 Sm0 2.464 . S
O23 C9 1.251 . S
O24 Sm0 2.396 . S
O24 C10 1.252 . S
O25 Sm1 2.408 1_455 S
O25 C10 1.272 . S
O26 Sm1 2.543 . S
O26 C11 1.261 . S
O27 Sm1 2.450 . S
O27 C11 1.242 . S
O28 Sm0 2.386 . S
O28 Sm1 2.681 1_455 S
O28 C18 1.271 . S
O29 Sm1 2.464 . S
O29 C18 1.251 1_655 S
O30 Sm1 2.396 . S
O30 C19 1.252 . S
O31 Sm0 2.408 1_655 S
O31 C19 1.272 . S
H32 C4 0.930 . S
H33 C5 0.929 . S
H34 C7 0.930 . S
H35 C8 0.929 . S
H36 C13 0.930 . S
H37 C14 0.929 . S
H38 C16 0.930 . S
H39 C17 0.929 . S
Sm40 C42 2.846 . S
Sm40 O60 2.543 . S
Sm40 O61 2.450 . S
Sm40 O62 2.681 1_565 S
Sm40 O63 2.464 . S
Sm40 O64 2.396 . S
Sm40 O68 2.405 . S
Sm40 O71 2.408 1_565 S
Sm41 C51 2.846 . S
Sm41 O62 2.386 . S
Sm41 O65 2.408 1_545 S
Sm41 O66 2.543 . S
Sm41 O67 2.450 . S
Sm41 O68 2.652 1_545 S
Sm41 O69 2.464 . S
Sm41 O70 2.396 . S
C42 Sm40 2.846 . S
C42 C43 1.506 . S
C42 O60 1.261 . S
C42 O61 1.242 . S
C43 C42 1.506 . S
C43 C44 1.358 . S
C43 C48 1.382 . S
C44 C43 1.358 . S
C44 C45 1.385 . S
C44 H72 0.930 . S
C45 C44 1.385 . S
C45 C46 1.395 . S
C45 H73 0.929 . S
C46 C45 1.395 . S
C46 C47 1.335 . S
C47 C46 1.335 . S
C47 C48 1.398 . S
C47 H74 0.930 . S
C48 C43 1.382 . S
C48 C47 1.398 . S
C48 H75 0.929 . S
C49 O62 1.271 . S
C49 O63 1.251 1_545 S
C50 O64 1.252 . S
C50 O65 1.272 . S
C51 Sm41 2.846 . S
C51 C52 1.506 . S
C51 O66 1.261 . S
C51 O67 1.242 . S
C52 C51 1.506 . S
C52 C53 1.358 . S
C52 C57 1.382 . S
C53 C52 1.358 . S
C53 C54 1.385 . S
C53 H76 0.930 . S
C54 C53 1.385 . S
C54 C55 1.395 . S
C54 H77 0.929 . S
C55 C54 1.395 . S
C55 C56 1.335 . S
C56 C55 1.335 . S
C56 C57 1.398 . S
C56 H78 0.930 . S
C57 C52 1.382 . S
C57 C56 1.398 . S
C57 H79 0.929 . S
C58 O68 1.255 1_545 S
C58 O69 1.251 . S
C59 O70 1.252 . S
C59 O71 1.272 . S
O60 Sm40 2.543 . S
O60 C42 1.261 . S
O61 Sm40 2.450 . S
O61 C42 1.242 . S
O62 Sm40 2.681 1_545 S
O62 Sm41 2.386 . S
O62 C49 1.271 . S
O63 Sm40 2.464 . S
O63 C49 1.251 1_565 S
O64 Sm40 2.396 . S
O64 C50 1.252 . S
O65 Sm41 2.408 1_565 S
O65 C50 1.272 . S
O66 Sm41 2.543 . S
O66 C51 1.261 . S
O67 Sm41 2.450 . S
O67 C51 1.242 . S
O68 Sm40 2.405 . S
O68 Sm41 2.652 1_565 S
O68 C58 1.255 1_565 S
O69 Sm41 2.464 . S
O69 C58 1.251 . S
O70 Sm41 2.396 . S
O70 C59 1.252 . S
O71 Sm40 2.408 1_545 S
O71 C59 1.272 . S
H72 C44 0.930 . S
H73 C45 0.929 . S
H74 C47 0.930 . S
H75 C48 0.929 . S
H76 C53 0.930 . S
H77 C54 0.929 . S
H78 C56 0.930 . S
H79 C57 0.929 . S
Sm80 C82 2.846 . S
Sm80 O100 2.543 . S
Sm80 O101 2.450 . S
Sm80 O102 2.681 . S
Sm80 O103 2.464 . S
Sm80 O104 2.396 . S
Sm80 O108 2.386 . S
Sm80 O111 2.408 . S
Sm81 C91 2.846 . S
Sm81 O102 2.386 . S
Sm81 O105 2.408 . S
Sm81 O106 2.543 . S
Sm81 O107 2.450 . S
Sm81 O108 2.681 . S
Sm81 O109 2.464 . S
Sm81 O110 2.396 . S
C82 Sm80 2.846 . S
C82 C83 1.506 . S
C82 O100 1.261 . S
C82 O101 1.242 . S
C83 C82 1.506 . S
C83 C84 1.358 . S
C83 C88 1.382 . S
C84 C83 1.358 . S
C84 C85 1.385 . S
C84 H112 0.930 . S
C85 C84 1.385 . S
C85 C86 1.395 . S
C85 H113 0.929 . S
C86 C85 1.395 . S
C86 C87 1.335 . S
C87 C86 1.335 . S
C87 C88 1.398 . S
C87 H114 0.930 . S
C88 C83 1.382 . S
C88 C87 1.398 . S
C88 H115 0.929 . S
C89 O102 1.271 . S
C89 O103 1.251 . S
C90 O104 1.252 . S
C90 O105 1.272 . S
C91 Sm81 2.846 . S
C91 C92 1.506 . S
C91 O106 1.261 . S
C91 O107 1.242 . S
C92 C91 1.506 . S
C92 C93 1.358 . S
C92 C97 1.382 . S
C93 C92 1.358 . S
C93 C94 1.385 . S
C93 H116 0.930 . S
C94 C93 1.385 . S
C94 C95 1.395 . S
C94 H117 0.929 . S
C95 C94 1.395 . S
C95 C96 1.335 . S
C96 C95 1.335 . S
C96 C97 1.398 . S
C96 H118 0.930 . S
C97 C92 1.382 . S
C97 C96 1.398 . S
C97 H119 0.929 . S
C98 O108 1.271 . S
C98 O109 1.251 . S
C99 O110 1.252 . S
C99 O111 1.272 . S
O100 Sm80 2.543 . S
O100 C82 1.261 . S
O101 Sm80 2.450 . S
O101 C82 1.242 . S
O102 Sm80 2.681 . S
O102 Sm81 2.386 . S
O102 C89 1.271 . S
O103 Sm80 2.464 . S
O103 C89 1.251 . S
O104 Sm80 2.396 . S
O104 C90 1.252 . S
O105 Sm81 2.408 . S
O105 C90 1.272 . S
O106 Sm81 2.543 . S
O106 C91 1.261 . S
O107 Sm81 2.450 . S
O107 C91 1.242 . S
O108 Sm80 2.386 . S
O108 Sm81 2.681 . S
O108 C98 1.271 . S
O109 Sm81 2.464 . S
O109 C98 1.251 . S
O110 Sm81 2.396 . S
O110 C99 1.252 . S
O111 Sm80 2.408 . S
O111 C99 1.272 . S
H112 C84 0.930 . S
H113 C85 0.929 . S
H114 C87 0.930 . S
H115 C88 0.929 . S
H116 C93 0.930 . S
H117 C94 0.929 . S
H118 C96 0.930 . S
H119 C97 0.929 . S
C120 C121 1.384 . S
C120 H133 0.947 . S
C120 C155 1.382 . S
C121 C120 1.384 . S
C121 C122 1.378 . S
C122 C121 1.378 . S
C122 C123 1.378 . S
C122 H134 0.952 . S
C123 C122 1.378 . S
C123 H135 0.950 . S
C123 C154 1.383 . S
H124 C143 0.947 . S
H125 C144 0.946 . S
H126 C146 0.953 . S
H127 C147 0.945 . S
H128 C149 0.952 . S
H129 C150 0.949 . S
H130 C152 0.950 . S
H131 C153 0.948 . S
H132 C155 0.951 . S
H133 C120 0.947 . S
H134 C122 0.952 . S
H135 C123 0.950 . S
N136 C139 1.382 . S
N136 C141 1.363 1_545 S
N137 C139 1.371 . S
N137 C140 1.372 . S
N138 C140 1.361 1_565 S
N138 C141 1.377 . S
C139 N136 1.382 . S
C139 N137 1.371 . S
C139 C142 1.480 . S
C140 N137 1.372 . S
C140 N138 1.361 1_545 S
C140 C148 1.457 . S
C141 N136 1.363 1_565 S
C141 N138 1.377 . S
C141 C154 1.479 . S
C142 C139 1.480 . S
C142 C143 1.383 . S
C142 C147 1.385 . S
C143 H124 0.947 . S
C143 C142 1.383 . S
C143 C144 1.388 . S
C144 H125 0.946 . S
C144 C143 1.388 . S
C144 C145 1.384 . S
C145 C144 1.384 . S
C145 C146 1.377 . S
C146 H126 0.953 . S
C146 C145 1.377 . S
C146 C147 1.369 . S
C147 H127 0.945 . S
C147 C142 1.385 . S
C147 C146 1.369 . S
C148 C140 1.457 . S
C148 C149 1.372 . S
C148 C153 1.364 1_545 S
C149 H128 0.952 . S
C149 C148 1.372 . S
C149 C150 1.389 . S
C150 H129 0.949 . S
C150 C149 1.389 . S
C150 C151 1.387 . S
C151 C150 1.387 . S
C151 C152 1.372 1_545 S
C152 H130 0.950 . S
C152 C151 1.372 1_565 S
C152 C153 1.379 . S
C153 H131 0.948 . S
C153 C148 1.364 1_565 S
C153 C152 1.379 . S
C154 C123 1.383 . S
C154 C141 1.479 . S
C154 C155 1.398 . S
C155 C120 1.382 . S
C155 H132 0.951 . S
C155 C154 1.398 . S
C156 C157 1.384 . S
C156 H169 0.947 . S
C156 C191 1.382 . S
C157 C156 1.384 . S
C157 C158 1.378 . S
C158 C157 1.378 . S
C158 C159 1.378 . S
C158 H170 0.952 . S
C159 C158 1.378 . S
C159 H171 0.950 . S
C159 C190 1.383 . S
H160 C179 0.947 . S
H161 C180 0.946 . S
H162 C182 0.953 . S
H163 C183 0.945 . S
H164 C185 0.952 . S
H165 C186 0.949 . S
H166 C188 0.950 . S
H167 C189 0.948 . S
H168 C191 0.951 . S
H169 C156 0.947 . S
H170 C158 0.952 . S
H171 C159 0.950 . S
N172 C175 1.382 . S
N172 C177 1.363 . S
N173 C175 1.371 . S
N173 C176 1.372 . S
N174 C176 1.361 . S
N174 C177 1.377 . S
C175 N172 1.382 . S
C175 N173 1.371 . S
C175 C178 1.480 . S
C176 N173 1.372 . S
C176 N174 1.361 . S
C176 C184 1.457 . S
C177 N172 1.363 . S
C177 N174 1.377 . S
C177 C190 1.479 . S
C178 C175 1.480 . S
C178 C179 1.383 . S
C178 C183 1.385 . S
C179 H160 0.947 . S
C179 C178 1.383 . S
C179 C180 1.388 . S
C180 H161 0.946 . S
C180 C179 1.388 . S
C180 C181 1.384 . S
C181 C180 1.384 . S
C181 C182 1.377 . S
C182 H162 0.953 . S
C182 C181 1.377 . S
C182 C183 1.369 . S
C183 H163 0.945 . S
C183 C178 1.385 . S
C183 C182 1.369 . S
C184 C176 1.457 . S
C184 C185 1.372 . S
C184 C189 1.364 . S
C185 H164 0.952 . S
C185 C184 1.372 . S
C185 C186 1.389 . S
C186 H165 0.949 . S
C186 C185 1.389 . S
C186 C187 1.387 . S
C187 C186 1.387 . S
C187 C188 1.372 . S
C188 H166 0.950 . S
C188 C187 1.372 . S
C188 C189 1.379 . S
C189 H167 0.948 . S
C189 C184 1.364 . S
C189 C188 1.379 . S
C190 C159 1.383 . S
C190 C177 1.479 . S
C190 C191 1.398 . S
C191 C156 1.382 . S
C191 H168 0.951 . S
C191 C190 1.398 . S
C192 C193 1.384 . S
C192 H205 0.947 . S
C192 C227 1.382 . S
C193 C192 1.384 . S
C193 C194 1.378 . S
C194 C193 1.378 . S
C194 C195 1.378 . S
C194 H206 0.952 . S
C195 C194 1.378 . S
C195 H207 0.950 . S
C195 C226 1.383 . S
H196 C215 0.947 . S
H197 C216 0.946 . S
H198 C218 0.953 . S
H199 C219 0.945 . S
H200 C221 0.952 . S
H201 C222 0.949 . S
H202 C224 0.950 1_655 S
H203 C225 0.948 1_655 S
H204 C227 0.951 . S
H205 C192 0.947 . S
H206 C194 0.952 . S
H207 C195 0.950 . S
N208 C211 1.382 . S
N208 C213 1.363 . S
N209 C211 1.371 . S
N209 C212 1.372 . S
N210 C212 1.361 . S
N210 C213 1.377 . S
C211 N208 1.382 . S
C211 N209 1.371 . S
C211 C214 1.480 . S
C212 N209 1.372 . S
C212 N210 1.361 . S
C212 C220 1.457 . S
C213 N208 1.363 . S
C213 N210 1.377 . S
C213 C226 1.479 1_455 S
C214 C211 1.480 . S
C214 C215 1.383 . S
C214 C219 1.385 . S
C215 H196 0.947 . S
C215 C214 1.383 . S
C215 C216 1.388 . S
C216 H197 0.946 . S
C216 C215 1.388 . S
C216 C217 1.384 . S
C217 C216 1.384 . S
C217 C218 1.377 . S
C218 H198 0.953 . S
C218 C217 1.377 . S
C218 C219 1.369 . S
C219 H199 0.945 . S
C219 C214 1.385 . S
C219 C218 1.369 . S
C220 C212 1.457 . S
C220 C221 1.372 . S
C220 C225 1.364 . S
C221 H200 0.952 . S
C221 C220 1.372 . S
C221 C222 1.389 . S
C222 H201 0.949 . S
C222 C221 1.389 . S
C222 C223 1.387 . S
C223 C222 1.387 . S
C223 C224 1.372 . S
C224 H202 0.950 1_455 S
C224 C223 1.372 . S
C224 C225 1.379 . S
C225 H203 0.948 1_455 S
C225 C220 1.364 . S
C225 C224 1.379 . S
C226 C195 1.383 . S
C226 C213 1.479 1_655 S
C226 C227 1.398 . S
C227 C192 1.382 . S
C227 H204 0.951 . S
C227 C226 1.398 . S
C228 C229 1.384 . S
C228 H241 0.947 . S
C228 C263 1.382 . S
C229 C228 1.384 . S
C229 C230 1.378 . S
C230 C229 1.378 . S
C230 C231 1.378 . S
C230 H242 0.952 . S
C231 C230 1.378 . S
C231 H243 0.950 . S
C231 C262 1.383 . S
H232 C251 0.947 . S
H233 C252 0.946 . S
H234 C254 0.953 . S
H235 C255 0.945 . S
H236 C257 0.952 . S
H237 C258 0.949 . S
H238 C260 0.950 . S
H239 C261 0.948 . S
H240 C263 0.951 . S
H241 C228 0.947 . S
H242 C230 0.952 . S
H243 C231 0.950 . S
N244 C247 1.382 1_455 S
N244 C249 1.363 . S
N245 C247 1.371 . S
N245 C248 1.372 1_655 S
N246 C248 1.361 . S
N246 C249 1.377 . S
C247 N244 1.382 1_655 S
C247 N245 1.371 . S
C247 C250 1.480 . S
C248 N245 1.372 1_455 S
C248 N246 1.361 . S
C248 C256 1.457 . S
C249 N244 1.363 . S
C249 N246 1.377 . S
C249 C262 1.479 . S
C250 C247 1.480 . S
C250 C251 1.383 . S
C250 C255 1.385 . S
C251 H232 0.947 . S
C251 C250 1.383 . S
C251 C252 1.388 . S
C252 H233 0.946 . S
C252 C251 1.388 . S
C252 C253 1.384 . S
C253 C252 1.384 . S
C253 C254 1.377 . S
C254 H234 0.953 . S
C254 C253 1.377 . S
C254 C255 1.369 . S
C255 H235 0.945 . S
C255 C250 1.385 . S
C255 C254 1.369 . S
C256 C248 1.457 . S
C256 C257 1.372 1_455 S
C256 C261 1.364 . S
C257 H236 0.952 . S
C257 C256 1.372 1_655 S
C257 C258 1.389 . S
C258 H237 0.949 . S
C258 C257 1.389 . S
C258 C259 1.387 1_655 S
C259 C258 1.387 1_455 S
C259 C260 1.372 . S
C260 H238 0.950 . S
C260 C259 1.372 . S
C260 C261 1.379 . S
C261 H239 0.948 . S
C261 C256 1.364 . S
C261 C260 1.379 . S
C262 C231 1.383 . S
C262 C249 1.479 . S
C262 C263 1.398 . S
C263 C228 1.382 . S
C263 H240 0.951 . S
C263 C262 1.398 . S
C264 C265 1.384 . S
C264 H277 0.947 . S
C264 C299 1.382 . S
C265 C264 1.384 . S
C265 C266 1.378 . S
C266 C265 1.378 . S
C266 C267 1.378 . S
C266 H278 0.952 . S
C267 C266 1.378 . S
C267 H279 0.950 . S
C267 C298 1.383 . S
H268 C287 0.947 . S
H269 C288 0.946 . S
H270 C290 0.953 . S
H271 C291 0.945 . S
H272 C293 0.952 . S
H273 C294 0.949 . S
H274 C296 0.950 . S
H275 C297 0.948 . S
H276 C299 0.951 . S
H277 C264 0.947 . S
H278 C266 0.952 . S
H279 C267 0.950 . S
N280 C283 1.382 1_545 S
N280 C285 1.363 . S
N281 C283 1.371 . S
N281 C284 1.372 1_565 S
N282 C284 1.361 . S
N282 C285 1.377 . S
C283 N280 1.382 1_565 S
C283 N281 1.371 . S
C283 C286 1.480 . S
C284 N281 1.372 1_545 S
C284 N282 1.361 . S
C284 C292 1.457 . S
C285 N280 1.363 . S
C285 N282 1.377 . S
C285 C298 1.479 . S
C286 C283 1.480 . S
C286 C287 1.383 . S
C286 C291 1.385 . S
C287 H268 0.947 . S
C287 C286 1.383 . S
C287 C288 1.388 . S
C288 H269 0.946 . S
C288 C287 1.388 . S
C288 C289 1.384 . S
C289 C288 1.384 . S
C289 C290 1.377 . S
C290 H270 0.953 . S
C290 C289 1.377 . S
C290 C291 1.369 . S
C291 H271 0.945 . S
C291 C286 1.385 . S
C291 C290 1.369 . S
C292 C284 1.457 . S
C292 C293 1.372 1_545 S
C292 C297 1.364 . S
C293 H272 0.952 . S
C293 C292 1.372 1_565 S
C293 C294 1.389 . S
C294 H273 0.949 . S
C294 C293 1.389 . S
C294 C295 1.419 . S
C295 C294 1.419 . S
C295 C296 1.341 1_565 S
C296 H274 0.950 . S
C296 C295 1.341 1_545 S
C296 C297 1.379 . S
C297 H275 0.948 . S
C297 C292 1.364 . S
C297 C296 1.379 . S
C298 C267 1.383 . S
C298 C285 1.479 . S
C298 C299 1.398 . S
C299 C264 1.382 . S
C299 H276 0.951 . S
C299 C298 1.398 . S
C300 C301 1.384 . S
C300 H313 0.947 . S
C300 C335 1.382 . S
C301 C300 1.384 . S
C301 C302 1.378 . S
C302 C301 1.378 . S
C302 C303 1.378 . S
C302 H314 0.952 . S
C303 C302 1.378 . S
C303 H315 0.950 . S
C303 C334 1.383 . S
H304 C323 0.947 . S
H305 C324 0.946 . S
H306 C326 0.953 . S
H307 C327 0.945 . S
H308 C329 0.952 . S
H309 C330 0.949 . S
H310 C332 0.950 . S
H311 C333 0.948 . S
H312 C335 0.951 . S
H313 C300 0.947 . S
H314 C302 0.952 . S
H315 C303 0.950 . S
N316 C319 1.382 . S
N316 C321 1.363 . S
N317 C319 1.371 . S
N317 C320 1.372 . S
N318 C320 1.361 . S
N318 C321 1.377 . S
C319 N316 1.382 . S
C319 N317 1.371 . S
C319 C322 1.480 . S
C320 N317 1.372 . S
C320 N318 1.361 . S
C320 C328 1.457 . S
C321 N316 1.363 . S
C321 N318 1.377 . S
C321 C334 1.479 . S
C322 C319 1.480 . S
C322 C323 1.383 . S
C322 C327 1.385 . S
C323 H304 0.947 . S
C323 C322 1.383 . S
C323 C324 1.388 . S
C324 H305 0.946 . S
C324 C323 1.388 . S
C324 C325 1.384 . S
C325 C324 1.384 . S
C325 C326 1.377 . S
C326 H306 0.953 . S
C326 C325 1.377 . S
C326 C327 1.369 . S
C327 H307 0.945 . S
C327 C322 1.385 . S
C327 C326 1.369 . S
C328 C320 1.457 . S
C328 C329 1.372 . S
C328 C333 1.364 . S
C329 H308 0.952 . S
C329 C328 1.372 . S
C329 C330 1.389 . S
C330 H309 0.949 . S
C330 C329 1.389 . S
C330 C331 1.387 . S
C331 C330 1.387 . S
C331 C332 1.372 . S
C332 H310 0.950 . S
C332 C331 1.372 . S
C332 C333 1.379 . S
C333 H311 0.948 . S
C333 C328 1.364 . S
C333 C332 1.379 . S
C334 C303 1.383 . S
C334 C321 1.479 . S
C334 C335 1.398 . S
C335 C300 1.382 . S
C335 H312 0.951 . S
C335 C334 1.398 . S
H336 C342 0.930 . S
H337 C346 0.930 . S
H338 C351 0.929 . S
H339 C349 0.929 . S
H340 C344 0.929 . S
H341 C350 0.929 . S
C342 H336 0.930 . S
C342 C343 1.367 . S
C342 C350 1.378 . S
C343 C342 1.367 . S
C343 C351 1.433 . S
C344 H340 0.929 . S
C344 C346 1.378 . S
C344 C348 1.350 . S
C345 C348 1.463 . S
C345 C350 1.350 . S
C345 N353 1.427 . S
C346 H337 0.930 . S
C346 C344 1.378 . S
C346 C347 1.367 . S
C347 C346 1.367 . S
C347 C349 1.433 . S
C348 C344 1.350 . S
C348 C345 1.463 . S
C348 N352 1.427 . S
C349 H339 0.929 . S
C349 C347 1.433 . S
C349 N352 1.384 . S
C350 H341 0.929 . S
C350 C342 1.378 . S
C350 C345 1.350 . S
C351 H338 0.929 . S
C351 C343 1.433 . S
C351 N353 1.384 . S
N352 C348 1.427 . S
N352 C349 1.384 . S
N353 C345 1.427 . S
N353 C351 1.384 . S
H354 C360 0.930 . S
H355 C364 0.930 . S
H356 C369 0.929 . S
H357 C367 0.929 . S
H358 C362 0.929 . S
H359 C368 0.929 . S
C360 H354 0.930 . S
C360 C361 1.367 . S
C360 C368 1.378 . S
C361 C360 1.367 . S
C361 C369 1.433 . S
C362 H358 0.929 . S
C362 C364 1.378 . S
C362 C366 1.350 . S
C363 C366 1.463 . S
C363 C368 1.350 . S
C363 N371 1.427 . S
C364 H355 0.930 . S
C364 C362 1.378 . S
C364 C365 1.367 . S
C365 C364 1.367 . S
C365 C367 1.433 . S
C366 C362 1.350 . S
C366 C363 1.463 . S
C366 N370 1.427 . S
C367 H357 0.929 . S
C367 C365 1.433 . S
C367 N370 1.384 . S
C368 H359 0.929 . S
C368 C360 1.378 . S
C368 C363 1.350 . S
C369 H356 0.929 . S
C369 C361 1.433 . S
C369 N371 1.384 . S
N370 C366 1.427 . S
N370 C367 1.384 . S
N371 C363 1.427 . S
N371 C369 1.384 . S
H372 C378 0.930 . S
H373 C382 0.930 . S
H374 C387 0.929 . S
H375 C385 0.929 . S
H376 C380 0.929 . S
H377 C386 0.929 . S
C378 H372 0.930 . S
C378 C379 1.367 . S
C378 C386 1.378 . S
C379 C378 1.367 . S
C379 C387 1.433 . S
C380 H376 0.929 . S
C380 C382 1.378 . S
C380 C384 1.350 . S
C381 C384 1.463 . S
C381 C386 1.350 . S
C381 N389 1.427 . S
C382 H373 0.930 . S
C382 C380 1.378 . S
C382 C383 1.367 . S
C383 C382 1.367 . S
C383 C385 1.433 . S
C384 C380 1.350 . S
C384 C381 1.463 . S
C384 N388 1.427 . S
C385 H375 0.929 . S
C385 C383 1.433 . S
C385 N388 1.384 . S
C386 H377 0.929 . S
C386 C378 1.378 . S
C386 C381 1.350 . S
C387 H374 0.929 . S
C387 C379 1.433 . S
C387 N389 1.384 . S
N388 C384 1.427 . S
N388 C385 1.384 . S
N389 C381 1.427 . S
N389 C387 1.384 . S
H390 C396 0.930 . S
H391 C400 0.930 . S
H392 C405 0.929 . S
H393 C403 0.929 . S
H394 C398 0.929 . S
H395 C404 0.929 . S
C396 H390 0.930 . S
C396 C397 1.367 . S
C396 C404 1.378 . S
C397 C396 1.367 . S
C397 C405 1.433 . S
C398 H394 0.929 . S
C398 C400 1.378 . S
C398 C402 1.350 . S
C399 C402 1.463 . S
C399 C404 1.350 . S
C399 N407 1.427 . S
C400 H391 0.930 . S
C400 C398 1.378 . S
C400 C401 1.367 . S
C401 C400 1.367 . S
C401 C403 1.433 . S
C402 C398 1.350 . S
C402 C399 1.463 . S
C402 N406 1.427 . S
C403 H393 0.929 . S
C403 C401 1.433 . S
C403 N406 1.384 . S
C404 H395 0.929 . S
C404 C396 1.378 . S
C404 C399 1.350 . S
C405 H392 0.929 . S
C405 C397 1.433 . S
C405 N407 1.384 . S
N406 C402 1.427 . S
N406 C403 1.384 . S
N407 C399 1.427 . S
N407 C405 1.384 . S
H408 C414 0.930 . S
H409 C418 0.930 . S
H410 C423 0.929 . S
H411 C421 0.929 . S
H412 C416 0.929 . S
H413 C422 0.929 . S
C414 H408 0.930 . S
C414 C415 1.367 . S
C414 C422 1.378 . S
C415 C414 1.367 . S
C415 C423 1.433 . S
C416 H412 0.929 . S
C416 C418 1.378 . S
C416 C420 1.350 . S
C417 C420 1.463 . S
C417 C422 1.350 . S
C417 N425 1.427 . S
C418 H409 0.930 . S
C418 C416 1.378 . S
C418 C419 1.367 . S
C419 C418 1.367 . S
C419 C421 1.433 . S
C420 C416 1.350 . S
C420 C417 1.463 . S
C420 N424 1.427 . S
C421 H411 0.929 . S
C421 C419 1.433 . S
C421 N424 1.384 . S
C422 H413 0.929 . S
C422 C414 1.378 . S
C422 C417 1.350 . S
C423 H410 0.929 . S
C423 C415 1.433 . S
C423 N425 1.384 . S
N424 C420 1.427 . S
N424 C421 1.384 . S
N425 C417 1.427 . S
N425 C423 1.384 . S
H426 C432 0.930 . S
H427 C436 0.930 . S
H428 C441 0.929 . S
H429 C439 0.929 . S
H430 C434 0.929 . S
H431 C440 0.929 . S
C432 H426 0.930 . S
C432 C433 1.367 . S
C432 C440 1.378 . S
C433 C432 1.367 . S
C433 C441 1.433 . S
C434 H430 0.929 . S
C434 C436 1.378 . S
C434 C438 1.350 . S
C435 C438 1.463 . S
C435 C440 1.350 . S
C435 N443 1.427 . S
C436 H427 0.930 . S
C436 C434 1.378 . S
C436 C437 1.367 . S
C437 C436 1.367 . S
C437 C439 1.433 . S
C438 C434 1.350 . S
C438 C435 1.463 . S
C438 N442 1.427 . S
C439 H429 0.929 . S
C439 C437 1.433 . S
C439 N442 1.384 . S
C440 H431 0.929 . S
C440 C432 1.378 . S
C440 C435 1.350 . S
C441 H428 0.929 . S
C441 C433 1.433 . S
C441 N443 1.384 . S
N442 C438 1.427 . S
N442 C439 1.384 . S
N443 C435 1.427 . S
N443 C441 1.384 . S
H444 C450 0.930 . S
H445 C454 0.930 . S
H446 C459 0.929 . S
H447 C457 0.929 . S
H448 C452 0.929 . S
H449 C458 0.929 . S
C450 H444 0.930 . S
C450 C451 1.367 . S
C450 C458 1.378 . S
C451 C450 1.367 . S
C451 C459 1.433 . S
C452 H448 0.929 . S
C452 C454 1.378 . S
C452 C456 1.350 . S
C453 C456 1.463 . S
C453 C458 1.350 . S
C453 N461 1.427 . S
C454 H445 0.930 . S
C454 C452 1.378 . S
C454 C455 1.367 . S
C455 C454 1.367 . S
C455 C457 1.433 . S
C456 C452 1.350 . S
C456 C453 1.463 . S
C456 N460 1.427 . S
C457 H447 0.929 . S
C457 C455 1.433 . S
C457 N460 1.384 . S
C458 H449 0.929 . S
C458 C450 1.378 . S
C458 C453 1.350 . S
C459 H446 0.929 . S
C459 C451 1.433 . S
C459 N461 1.384 . S
N460 C456 1.427 . S
N460 C457 1.384 . S
N461 C453 1.427 . S
N461 C459 1.384 . S
H462 C468 0.930 . S
H463 C472 0.930 . S
H464 C477 0.929 . S
H465 C475 0.929 . S
H466 C470 0.929 . S
H467 C476 0.929 . S
C468 H462 0.930 . S
C468 C469 1.367 . S
C468 C476 1.378 . S
C469 C468 1.367 . S
C469 C477 1.433 . S
C470 H466 0.929 . S
C470 C472 1.378 . S
C470 C474 1.350 . S
C471 C474 1.463 . S
C471 C476 1.350 . S
C471 N479 1.427 . S
C472 H463 0.930 . S
C472 C470 1.378 . S
C472 C473 1.367 . S
C473 C472 1.367 . S
C473 C475 1.433 . S
C474 C470 1.350 . S
C474 C471 1.463 . S
C474 N478 1.427 . S
C475 H465 0.929 . S
C475 C473 1.433 . S
C475 N478 1.384 . S
C476 H467 0.929 . S
C476 C468 1.378 . S
C476 C471 1.350 . S
C477 H464 0.929 . S
C477 C469 1.433 . S
C477 N479 1.384 . S
N478 C474 1.427 . S
N478 C475 1.384 . S
N479 C471 1.427 . S
N479 C477 1.384 . S
H480 C486 0.930 . S
H481 C490 0.930 . S
H482 C495 0.929 . S
H483 C493 0.929 . S
H484 C488 0.929 . S
H485 C494 0.929 . S
C486 H480 0.930 . S
C486 C487 1.367 . S
C486 C494 1.378 . S
C487 C486 1.367 . S
C487 C495 1.433 . S
C488 H484 0.929 . S
C488 C490 1.378 . S
C488 C492 1.350 . S
C489 C492 1.463 . S
C489 C494 1.350 . S
C489 N497 1.427 . S
C490 H481 0.930 . S
C490 C488 1.378 . S
C490 C491 1.367 . S
C491 C490 1.367 . S
C491 C493 1.433 . S
C492 C488 1.350 . S
C492 C489 1.463 . S
C492 N496 1.427 . S
C493 H483 0.929 . S
C493 C491 1.433 . S
C493 N496 1.384 . S
C494 H485 0.929 . S
C494 C486 1.378 . S
C494 C489 1.350 . S
C495 H482 0.929 . S
C495 C487 1.433 . S
C495 N497 1.384 . S
N496 C492 1.427 . S
N496 C493 1.384 . S
N497 C489 1.427 . S
N497 C495 1.384 . S
H498 C504 0.930 . S
H499 C508 0.930 . S
H500 C513 0.929 . S
H501 C511 0.929 . S
H502 C506 0.929 . S
H503 C512 0.929 . S
C504 H498 0.930 . S
C504 C505 1.367 . S
C504 C512 1.378 . S
C505 C504 1.367 . S
C505 C513 1.433 . S
C506 H502 0.929 . S
C506 C508 1.378 . S
C506 C510 1.350 . S
C507 C510 1.463 . S
C507 C512 1.350 . S
C507 N515 1.427 . S
C508 H499 0.930 . S
C508 C506 1.378 . S
C508 C509 1.367 . S
C509 C508 1.367 . S
C509 C511 1.433 . S
C510 C506 1.350 . S
C510 C507 1.463 . S
C510 N514 1.427 . S
C511 H501 0.929 . S
C511 C509 1.433 . S
C511 N514 1.384 . S
C512 H503 0.929 . S
C512 C504 1.378 . S
C512 C507 1.350 . S
C513 H500 0.929 . S
C513 C505 1.433 . S
C513 N515 1.384 . S
N514 C510 1.427 . S
N514 C511 1.384 . S
N515 C507 1.427 . S
N515 C513 1.384 . S
H516 C522 0.930 . S
H517 C526 0.930 . S
H518 C531 0.929 . S
H519 C529 0.929 . S
H520 C524 0.929 . S
H521 C530 0.929 . S
C522 H516 0.930 . S
C522 C523 1.367 . S
C522 C530 1.378 . S
C523 C522 1.367 . S
C523 C531 1.433 . S
C524 H520 0.929 . S
C524 C526 1.378 . S
C524 C528 1.350 . S
C525 C528 1.463 . S
C525 C530 1.350 . S
C525 N533 1.427 . S
C526 H517 0.930 . S
C526 C524 1.378 . S
C526 C527 1.367 . S
C527 C526 1.367 . S
C527 C529 1.433 . S
C528 C524 1.350 . S
C528 C525 1.463 . S
C528 N532 1.427 . S
C529 H519 0.929 . S
C529 C527 1.433 . S
C529 N532 1.384 . S
C530 H521 0.929 . S
C530 C522 1.378 . S
C530 C525 1.350 . S
C531 H518 0.929 . S
C531 C523 1.433 . S
C531 N533 1.384 . S
N532 C528 1.427 . S
N532 C529 1.384 . S
N533 C525 1.427 . S
N533 C531 1.384 . S
H534 C540 0.930 . S
H535 C544 0.930 . S
H536 C549 0.929 . S
H537 C547 0.929 . S
H538 C542 0.929 . S
H539 C548 0.929 . S
C540 H534 0.930 . S
C540 C541 1.367 . S
C540 C548 1.378 . S
C541 C540 1.367 . S
C541 C549 1.433 . S
C542 H538 0.929 . S
C542 C544 1.378 . S
C542 C546 1.350 . S
C543 C546 1.463 . S
C543 C548 1.350 . S
C543 N551 1.427 . S
C544 H535 0.930 . S
C544 C542 1.378 . S
C544 C545 1.367 . S
C545 C544 1.367 . S
C545 C547 1.433 . S
C546 C542 1.350 . S
C546 C543 1.463 . S
C546 N550 1.427 . S
C547 H537 0.929 . S
C547 C545 1.433 . S
C547 N550 1.384 . S
C548 H539 0.929 . S
C548 C540 1.378 . S
C548 C543 1.350 . S
C549 H536 0.929 . S
C549 C541 1.433 . S
C549 N551 1.384 . S
N550 C546 1.427 . S
N550 C547 1.384 . S
N551 C543 1.427 . S
N551 C549 1.384 . S
H552 C558 0.930 . S
H553 C562 0.932 1_556 S
H554 C567 0.929 1_655 S
H555 C565 0.929 . S
H556 C560 0.929 . S
H557 C566 0.929 . S
C558 H552 0.930 . S
C558 C559 1.367 . S
C558 C566 1.378 . S
C559 C558 1.367 . S
C559 C567 1.433 . S
C560 H556 0.929 . S
C560 C562 1.378 . S
C560 C564 1.350 . S
C561 C564 1.463 . S
C561 C566 1.350 . S
C561 N569 1.427 . S
C562 H553 0.932 1_554 S
C562 C560 1.378 . S
C562 C563 1.364 1_554 S
C563 C562 1.364 1_556 S
C563 C565 1.431 1_556 S
C564 C560 1.350 . S
C564 C561 1.463 . S
C564 N568 1.427 . S
C565 H555 0.929 . S
C565 C563 1.431 1_554 S
C565 N568 1.384 . S
C566 H557 0.929 . S
C566 C558 1.378 . S
C566 C561 1.350 . S
C567 H554 0.929 1_455 S
C567 C559 1.433 . S
C567 N569 1.384 . S
N568 C564 1.427 . S
N568 C565 1.384 . S
N569 C561 1.427 . S
N569 C567 1.384 . S
H570 C576 0.930 . S
H571 C580 0.930 . S
H572 C585 0.929 . S
H573 C583 0.929 . S
H574 C578 0.929 . S
H575 C584 0.929 . S
C576 H570 0.930 . S
C576 C577 1.367 1_565 S
C576 C584 1.378 . S
C577 C576 1.367 1_545 S
C577 C585 1.433 . S
C578 H574 0.929 . S
C578 C580 1.378 . S
C578 C582 1.350 . S
C579 C582 1.463 . S
C579 C584 1.350 1_545 S
C579 N587 1.427 . S
C580 H571 0.930 . S
C580 C578 1.378 . S
C580 C581 1.367 . S
C581 C580 1.367 . S
C581 C583 1.433 1_545 S
C582 C578 1.350 . S
C582 C579 1.463 . S
C582 N586 1.427 1_545 S
C583 H573 0.929 . S
C583 C581 1.433 1_565 S
C583 N586 1.384 . S
C584 H575 0.929 . S
C584 C576 1.378 . S
C584 C579 1.350 1_565 S
C585 H572 0.929 . S
C585 C577 1.433 . S
C585 N587 1.384 . S
N586 C582 1.427 1_565 S
N586 C583 1.384 . S
N587 C579 1.427 . S
N587 C585 1.384 . S
H588 C594 0.930 . S
H589 C598 0.930 . S
H590 C603 0.929 . S
H591 C601 0.929 . S
H592 C596 0.929 . S
H593 C602 0.929 . S
C594 H588 0.930 . S
C594 C595 1.367 . S
C594 C602 1.378 . S
C595 C594 1.367 . S
C595 C603 1.433 . S
C596 H592 0.929 . S
C596 C598 1.378 . S
C596 C600 1.350 . S
C597 C600 1.463 . S
C597 C602 1.350 . S
C597 N605 1.427 . S
C598 H589 0.930 . S
C598 C596 1.378 . S
C598 C599 1.367 . S
C599 C598 1.367 . S
C599 C601 1.433 . S
C600 C596 1.350 . S
C600 C597 1.463 . S
C600 N604 1.427 . S
C601 H591 0.929 . S
C601 C599 1.433 . S
C601 N604 1.384 . S
C602 H593 0.929 . S
C602 C594 1.378 . S
C602 C597 1.350 . S
C603 H590 0.929 . S
C603 C595 1.433 . S
C603 N605 1.384 . S
N604 C600 1.427 . S
N604 C601 1.384 . S
N605 C597 1.427 . S
N605 C603 1.384 . S
H606 C612 0.930 . S
H607 C616 0.930 . S
H608 C621 0.929 . S
H609 C619 0.929 . S
H610 C614 0.929 . S
H611 C620 0.929 . S
C612 H606 0.930 . S
C612 C613 1.367 . S
C612 C620 1.378 . S
C613 C612 1.367 . S
C613 C621 1.433 1_545 S
C614 H610 0.929 . S
C614 C616 1.378 . S
C614 C618 1.387 . S
C615 C618 1.458 1_545 S
C615 C620 1.350 . S
C615 N623 1.427 1_545 S
C616 H607 0.930 . S
C616 C614 1.378 . S
C616 C617 1.367 . S
C617 C616 1.367 . S
C617 C619 1.433 1_565 S
C618 C614 1.387 . S
C618 C615 1.458 1_565 S
C618 N622 1.393 1_565 S
C619 H609 0.929 . S
C619 C617 1.433 1_545 S
C619 N622 1.384 . S
C620 H611 0.929 . S
C620 C612 1.378 . S
C620 C615 1.350 . S
C621 H608 0.929 . S
C621 C613 1.433 1_565 S
C621 N623 1.384 . S
N622 C618 1.393 1_545 S
N622 C619 1.384 . S
N623 C615 1.427 1_565 S
N623 C621 1.384 . S
H624 C630 0.930 . S
H625 C634 0.930 . S
H626 C639 0.929 . S
H627 C637 0.929 . S
H628 C632 0.929 . S
H629 C638 0.929 . S
C630 H624 0.930 . S
C630 C631 1.367 . S
C630 C638 1.378 . S
C631 C630 1.367 . S
C631 C639 1.433 . S
C632 H628 0.929 . S
C632 C634 1.378 . S
C632 C636 1.350 . S
C633 C636 1.463 . S
C633 C638 1.350 . S
C633 N641 1.427 . S
C634 H625 0.930 . S
C634 C632 1.378 . S
C634 C635 1.367 . S
C635 C634 1.367 . S
C635 C637 1.433 . S
C636 C632 1.350 . S
C636 C633 1.463 . S
C636 N640 1.427 . S
C637 H627 0.929 . S
C637 C635 1.433 . S
C637 N640 1.384 . S
C638 H629 0.929 . S
C638 C630 1.378 . S
C638 C633 1.350 . S
C639 H626 0.929 . S
C639 C631 1.433 . S
C639 N641 1.384 . S
N640 C636 1.427 . S
N640 C637 1.384 . S
N641 C633 1.427 . S
N641 C639 1.384 . S
H642 C648 0.930 . S
H643 C652 0.930 . S
H644 C657 0.929 . S
H645 C655 0.929 . S
H646 C650 0.929 . S
H647 C656 0.929 . S
C648 H642 0.930 . S
C648 C649 1.367 1_655 S
C648 C656 1.378 . S
C649 C648 1.367 1_455 S
C649 C657 1.433 . S
C650 H646 0.929 . S
C650 C652 1.378 . S
C650 C654 1.350 . S
C651 C654 1.463 . S
C651 C656 1.350 1_455 S
C651 N659 1.427 . S
C652 H643 0.930 . S
C652 C650 1.378 . S
C652 C653 1.365 . S
C653 C652 1.365 . S
C653 C655 1.435 1_455 S
C654 C650 1.350 . S
C654 C651 1.463 . S
C654 N658 1.427 1_455 S
C655 H645 0.929 . S
C655 C653 1.435 1_655 S
C655 N658 1.384 . S
C656 H647 0.929 . S
C656 C648 1.378 . S
C656 C651 1.350 1_655 S
C657 H644 0.929 . S
C657 C649 1.433 . S
C657 N659 1.384 . S
N658 C654 1.427 1_655 S
N658 C655 1.384 . S
N659 C651 1.427 . S
N659 C657 1.384 . S
C343 C6 0.584 . S
C347 C325 0.558 . S
C361 C59 1.928 . S
C365 C253 1.862 . S
C379 C86 1.233 . S
C383 C289 1.219 . S
C397 C15 0.462 . S
C401 C301 0.336 . S
C419 C229 1.998 . S
C415 C50 2.031 . S
C437 C265 1.313 . S
C433 C95 1.311 . S
C451 C46 1.216 . S
C455 C181 1.218 . S
C469 C99 3.108 . S
C473 C193 3.070 . S
C487 C10 2.062 . S
C491 C121 2.031 . S
C509 C157 1.307 . S
C505 C55 1.283 . S
C527 C217 2.948 . S
C523 C90 3.015 . S
C541 C19 1.928 . S
C545 C145 1.878 . S
C563 C223 1.772 . S
C559 C18 1.702 . S
C577 C49 1.331 . S
C581 C151 1.375 . S
C595 C98 1.448 . S
C599 C187 1.504 . S
C617 C295 1.483 . S
C613 C58 1.438 . S
C635 C331 1.095 1_556 S
C631 C89 1.075 . S
C649 C9 1.323 . S
C653 C259 1.362 . S
