# Generated by pormake.
# Topology pto, (3,4)-cn, num edge types: 1
# Building blocks:
#     Node 0, Type 0, BuildingBlock: WUSLED_clean_sbu_0, # of connection points: 3
#     Node 1, Type 0, BuildingBlock: WUSLED_clean_sbu_0, # of connection points: 3
#     Node 2, Type 0, BuildingBlock: WUSLED_clean_sbu_0, # of connection points: 3
#     Node 3, Type 0, BuildingBlock: WUSLED_clean_sbu_0, # of connection points: 3
#     Node 4, Type 0, BuildingBlock: WUSLED_clean_sbu_0, # of connection points: 3
#     Node 5, Type 0, BuildingBlock: WUSLED_clean_sbu_0, # of connection points: 3
#     Node 6, Type 0, BuildingBlock: WUSLED_clean_sbu_0, # of connection points: 3
#     Node 7, Type 0, BuildingBlock: WUSLED_clean_sbu_0, # of connection points: 3
#     Node 8, Type 1, BuildingBlock: KUFVIS_clean_linker_0, # of connection points: 4
#     Node 9, Type 1, BuildingBlock: KUFVIS_clean_linker_0, # of connection points: 4
#     Node 10, Type 1, BuildingBlock: KUFVIS_clean_linker_0, # of connection points: 4
#     Node 11, Type 1, BuildingBlock: KUFVIS_clean_linker_0, # of connection points: 4
#     Node 12, Type 1, BuildingBlock: KUFVIS_clean_linker_0, # of connection points: 4
#     Node 13, Type 1, BuildingBlock: KUFVIS_clean_linker_0, # of connection points: 4
#     Edge 14, Type (0, 1), BuildingBlock: KIFKEQ_clean_linker_1, # of connection points: 2
#     Edge 15, Type (0, 1), BuildingBlock: KIFKEQ_clean_linker_1, # of connection points: 2
#     Edge 16, Type (0, 1), BuildingBlock: KIFKEQ_clean_linker_1, # of connection points: 2
#     Edge 17, Type (0, 1), BuildingBlock: KIFKEQ_clean_linker_1, # of connection points: 2
#     Edge 18, Type (0, 1), BuildingBlock: KIFKEQ_clean_linker_1, # of connection points: 2
#     Edge 19, Type (0, 1), BuildingBlock: KIFKEQ_clean_linker_1, # of connection points: 2
#     Edge 20, Type (0, 1), BuildingBlock: KIFKEQ_clean_linker_1, # of connection points: 2
#     Edge 21, Type (0, 1), BuildingBlock: KIFKEQ_clean_linker_1, # of connection points: 2
#     Edge 22, Type (0, 1), BuildingBlock: KIFKEQ_clean_linker_1, # of connection points: 2
#     Edge 23, Type (0, 1), BuildingBlock: KIFKEQ_clean_linker_1, # of connection points: 2
#     Edge 24, Type (0, 1), BuildingBlock: KIFKEQ_clean_linker_1, # of connection points: 2
#     Edge 25, Type (0, 1), BuildingBlock: KIFKEQ_clean_linker_1, # of connection points: 2
#     Edge 26, Type (0, 1), BuildingBlock: KIFKEQ_clean_linker_1, # of connection points: 2
#     Edge 27, Type (0, 1), BuildingBlock: KIFKEQ_clean_linker_1, # of connection points: 2
#     Edge 28, Type (0, 1), BuildingBlock: KIFKEQ_clean_linker_1, # of connection points: 2
#     Edge 29, Type (0, 1), BuildingBlock: KIFKEQ_clean_linker_1, # of connection points: 2
#     Edge 30, Type (0, 1), BuildingBlock: KIFKEQ_clean_linker_1, # of connection points: 2
#     Edge 31, Type (0, 1), BuildingBlock: KIFKEQ_clean_linker_1, # of connection points: 2
#     Edge 32, Type (0, 1), BuildingBlock: KIFKEQ_clean_linker_1, # of connection points: 2
#     Edge 33, Type (0, 1), BuildingBlock: KIFKEQ_clean_linker_1, # of connection points: 2
#     Edge 34, Type (0, 1), BuildingBlock: KIFKEQ_clean_linker_1, # of connection points: 2
#     Edge 35, Type (0, 1), BuildingBlock: KIFKEQ_clean_linker_1, # of connection points: 2
#     Edge 36, Type (0, 1), BuildingBlock: KIFKEQ_clean_linker_1, # of connection points: 2
#     Edge 37, Type (0, 1), BuildingBlock: KIFKEQ_clean_linker_1, # of connection points: 2
# Relax obj value: 0.002
# Max RMSD: 0.051
# Mean RMSD: 0.028
data_MOF--net-pto--node1-WUSLED_clean_sbu_0--node2-KUFVIS_clean_linker_0--edge1-KIFKEQ_clean_linker_1
_symmetry_space_group_name_H-M    P1
_symmetry_Int_Tables_number       1
_symmetry_cell_setting            triclinic
loop_
_symmetry_equiv_pos_as_xyz
'x, y, z'
_cell_length_a     40.52571
_cell_length_b     65.686995
_cell_length_c     53.535787
_cell_angle_alpha  89.491907
_cell_angle_beta   90.744543
_cell_angle_gamma 90.552402
loop_
_atom_site_label
_atom_site_type_symbol
_atom_site_fract_x
_atom_site_fract_y
_atom_site_fract_z
_atom_type_partial_charge
C0 C 0.21654 0.23702 0.36253 0.0
C1 C 0.22806 0.22042 0.34887 0.0
C2 C 0.22187 0.19812 0.38529 0.0
C3 C 0.23059 0.20111 0.36013 0.0
C4 C 0.20995 0.21481 0.39869 0.0
C5 C 0.20734 0.23403 0.38743 0.0
U6 U 0.23478 0.27487 0.30972 0.0
O7 O 0.20503 0.29964 0.2935 0.0
O8 O 0.25285 0.30658 0.31131 0.0
C9 C 0.22626 0.31386 0.3003 0.0
C10 C 0.2149 0.25762 0.35144 0.0
C11 C 0.21224 0.33235 0.31113 0.0
C12 C 0.18169 0.34986 0.34317 0.0
C13 C 0.19582 0.33202 0.33404 0.0
C14 C 0.20069 0.36846 0.30674 0.0
C15 C 0.18374 0.3683 0.32952 0.0
C16 C 0.21476 0.35068 0.2977 0.0
C17 C 0.27934 0.25715 0.25145 0.0
C18 C 0.31266 0.27816 0.22368 0.0
C19 C 0.29062 0.24587 0.2093 0.0
C20 C 0.27571 0.24271 0.23246 0.0
C21 C 0.30971 0.2635 0.2047 0.0
C22 C 0.2975 0.27506 0.24675 0.0
C23 C 0.26455 0.25308 0.27606 0.0
O24 O 0.2434 0.26715 0.34934 0.0
O25 O 0.19584 0.25962 0.33152 0.0
O26 O 0.2323 0.25471 0.27701 0.0
O27 O 0.27993 0.2612 0.29538 0.0
H28 H 0.23543 0.22246 0.32962 0.0
H29 H 0.2401 0.18866 0.34932 0.0
H30 H 0.2025 0.21302 0.41795 0.0
H31 H 0.19835 0.24664 0.39825 0.0
H32 H 0.16912 0.34921 0.36089 0.0
H33 H 0.19369 0.31799 0.3447 0.0
H34 H 0.20231 0.38219 0.29547 0.0
H35 H 0.22725 0.3512 0.27992 0.0
H36 H 0.32746 0.29179 0.22102 0.0
H37 H 0.28726 0.23442 0.19504 0.0
H38 H 0.26156 0.22887 0.23563 0.0
H39 H 0.30047 0.28653 0.26104 0.0
C40 C 0.20838 0.82162 0.66547 0.0
C41 C 0.21492 0.83892 0.68004 0.0
C42 C 0.21253 0.86064 0.64283 0.0
C43 C 0.21681 0.85827 0.66884 0.0
C44 C 0.20581 0.84323 0.62841 0.0
C45 C 0.20375 0.82394 0.63963 0.0
U46 U 0.23025 0.78483 0.71843 0.0
O47 O 0.2023 0.75978 0.73596 0.0
O48 O 0.24904 0.75348 0.71735 0.0
C49 C 0.22347 0.74588 0.7292 0.0
C50 C 0.20741 0.80105 0.67673 0.0
C51 C 0.20949 0.72667 0.71957 0.0
C52 C 0.17151 0.70757 0.6929 0.0
C53 C 0.18573 0.72618 0.70028 0.0
C54 C 0.20524 0.68987 0.72364 0.0
C55 C 0.18075 0.68922 0.70481 0.0
C56 C 0.21942 0.70839 0.73091 0.0
C57 C 0.27954 0.80445 0.77462 0.0
C58 C 0.28616 0.78612 0.81407 0.0
C59 C 0.32595 0.8121 0.8022 0.0
C60 C 0.30818 0.81574 0.78011 0.0
C61 C 0.31532 0.79714 0.81932 0.0
C62 C 0.26852 0.78965 0.79179 0.0
C63 C 0.26249 0.80783 0.75049 0.0
O64 O 0.23604 0.79189 0.67843 0.0
O65 O 0.18962 0.79893 0.69699 0.0
O66 O 0.23019 0.80566 0.75038 0.0
O67 O 0.27649 0.79944 0.73119 0.0
H68 H 0.21887 0.83743 0.70002 0.0
H69 H 0.22233 0.87132 0.68045 0.0
H70 H 0.20192 0.84451 0.60841 0.0
H71 H 0.19873 0.81079 0.62806 0.0
H72 H 0.15254 0.70763 0.67847 0.0
H73 H 0.17774 0.74017 0.6913 0.0
H74 H 0.2133 0.67604 0.73293 0.0
H75 H 0.23783 0.70846 0.74578 0.0
H76 H 0.27756 0.77439 0.82682 0.0
H77 H 0.34813 0.82098 0.80587 0.0
H78 H 0.31709 0.82721 0.7671 0.0
H79 H 0.2466 0.78061 0.78783 0.0
C80 C 0.72936 0.80151 0.2548 0.0
C81 C 0.70903 0.78439 0.25073 0.0
C82 C 0.69835 0.79544 0.20778 0.0
C83 C 0.69357 0.78144 0.22752 0.0
C84 C 0.71963 0.8122 0.21175 0.0
C85 C 0.73485 0.81523 0.23505 0.0
U86 U 0.77417 0.78428 0.3146 0.0
O87 O 0.81271 0.79989 0.33688 0.0
O88 O 0.76509 0.79223 0.35374 0.0
C89 C 0.79306 0.80243 0.35597 0.0
C90 C 0.74421 0.80566 0.27959 0.0
C91 C 0.79059 0.8234 0.36607 0.0
C92 C 0.76438 0.84726 0.39409 0.0
C93 C 0.76688 0.8277 0.38418 0.0
C94 C 0.80963 0.85873 0.36835 0.0
C95 C 0.78573 0.86304 0.38635 0.0
C96 C 0.81203 0.83916 0.35833 0.0
C97 C 0.79701 0.72661 0.31762 0.0
C98 C 0.8317 0.70889 0.34801 0.0
C99 C 0.80526 0.69012 0.31442 0.0
C100 C 0.79086 0.70808 0.30558 0.0
C101 C 0.82617 0.69026 0.3356 0.0
C102 C 0.81725 0.72692 0.33907 0.0
C103 C 0.78308 0.74528 0.30649 0.0
O104 O 0.72891 0.79763 0.29887 0.0
O105 O 0.77648 0.80415 0.28122 0.0
O106 O 0.80431 0.75954 0.29991 0.0
O107 O 0.75643 0.75248 0.31682 0.0
H108 H 0.70453 0.77347 0.26561 0.0
H109 H 0.67706 0.76851 0.22535 0.0
H110 H 0.7244 0.8231 0.19691 0.0
H111 H 0.75063 0.82846 0.23773 0.0
H112 H 0.74611 0.8499 0.40826 0.0
H113 H 0.7503 0.81588 0.39084 0.0
H114 H 0.82637 0.87053 0.36187 0.0
H115 H 0.83077 0.83642 0.34455 0.0
H116 H 0.84735 0.70956 0.36453 0.0
H117 H 0.80084 0.67625 0.30407 0.0
H118 H 0.77542 0.70756 0.28891 0.0
H119 H 0.82223 0.74111 0.34864 0.0
C120 C 0.76748 0.21758 0.69808 0.0
C121 C 0.75515 0.21796 0.6734 0.0
C122 C 0.77378 0.18316 0.66697 0.0
C123 C 0.75824 0.20092 0.65804 0.0
C124 C 0.78651 0.18297 0.69154 0.0
C125 C 0.78328 0.19994 0.7069 0.0
U126 U 0.77431 0.27379 0.72023 0.0
O127 O 0.73765 0.29218 0.73943 0.0
O128 O 0.78434 0.28474 0.75844 0.0
C129 C 0.75506 0.29298 0.76029 0.0
C130 C 0.7622 0.23458 0.71558 0.0
C131 C 0.73686 0.28821 0.78324 0.0
C132 C 0.69625 0.26809 0.80583 0.0
C133 C 0.71565 0.27125 0.78468 0.0
C134 C 0.72015 0.29829 0.82473 0.0
C135 C 0.69785 0.28178 0.82591 0.0
C136 C 0.73941 0.30149 0.80354 0.0
C137 C 0.81511 0.31638 0.68336 0.0
C138 C 0.81595 0.35087 0.69958 0.0
C139 C 0.84387 0.34345 0.66103 0.0
C140 C 0.83393 0.32303 0.66304 0.0
C141 C 0.83517 0.35763 0.67935 0.0
C142 C 0.80605 0.33044 0.70157 0.0
C143 C 0.80539 0.29478 0.68565 0.0
O144 O 0.78861 0.24189 0.72701 0.0
O145 O 0.74121 0.24877 0.70863 0.0
O146 O 0.77344 0.29115 0.68489 0.0
O147 O 0.82071 0.28451 0.70344 0.0
H148 H 0.74279 0.23131 0.66601 0.0
H149 H 0.74855 0.2017 0.63911 0.0
H150 H 0.7983 0.1695 0.69913 0.0
H151 H 0.79265 0.19914 0.72593 0.0
H152 H 0.67963 0.25508 0.80631 0.0
H153 H 0.71352 0.26075 0.76924 0.0
H154 H 0.72175 0.30922 0.83974 0.0
H155 H 0.75566 0.31467 0.80272 0.0
H156 H 0.80848 0.36136 0.71388 0.0
H157 H 0.85906 0.348 0.64542 0.0
H158 H 0.84124 0.31237 0.64885 0.0
H159 H 0.79144 0.32558 0.71739 0.0
C160 C 0.80968 0.73205 0.74102 0.0
C161 C 0.81916 0.72781 0.7165 0.0
C162 C 0.83574 0.69352 0.72933 0.0
C163 C 0.83204 0.70867 0.71069 0.0
C164 C 0.82612 0.69797 0.75382 0.0
C165 C 0.81327 0.71701 0.75956 0.0
U166 U 0.78943 0.78983 0.73335 0.0
O167 O 0.7427 0.80474 0.74248 0.0
O168 O 0.78813 0.81265 0.76307 0.0
C169 C 0.75596 0.81474 0.7613 0.0
C170 C 0.79512 0.75165 0.74798 0.0
C171 C 0.73796 0.81335 0.78494 0.0
C172 C 0.72688 0.7968 0.82481 0.0
C173 C 0.74423 0.79772 0.80237 0.0
C174 C 0.69665 0.82698 0.81246 0.0
C175 C 0.70285 0.81144 0.83015 0.0
C176 C 0.71409 0.82793 0.79013 0.0
C177 C 0.81639 0.82443 0.67989 0.0
C178 C 0.79022 0.85669 0.66939 0.0
C179 C 0.84511 0.84973 0.65456 0.0
C180 C 0.84425 0.83068 0.6665 0.0
C181 C 0.81799 0.86296 0.65564 0.0
C182 C 0.78948 0.83768 0.68146 0.0
C183 C 0.81588 0.80419 0.69223 0.0
O184 O 0.81582 0.76613 0.75487 0.0
O185 O 0.77062 0.7583 0.73388 0.0
O186 O 0.78708 0.79479 0.6927 0.0
O187 O 0.83216 0.80296 0.71359 0.0
H188 H 0.81657 0.73923 0.70191 0.0
H189 H 0.83953 0.70585 0.6917 0.0
H190 H 0.82811 0.68664 0.76856 0.0
H191 H 0.80587 0.71994 0.77856 0.0
H192 H 0.7325 0.78473 0.83805 0.0
H193 H 0.76256 0.78628 0.79864 0.0
H194 H 0.67789 0.83826 0.81564 0.0
H195 H 0.7088 0.84002 0.77682 0.0
H196 H 0.76872 0.86628 0.67044 0.0
H197 H 0.86716 0.85412 0.64458 0.0
H198 H 0.86541 0.8208 0.66526 0.0
H199 H 0.76776 0.83327 0.69185 0.0
C200 C 0.73741 0.24443 0.24787 0.0
C201 C 0.72942 0.2643 0.24033 0.0
C202 C 0.70033 0.25119 0.20366 0.0
C203 C 0.71096 0.26766 0.21847 0.0
C204 C 0.70908 0.23132 0.21102 0.0
C205 C 0.7274 0.22798 0.233 0.0
U206 U 0.79035 0.26436 0.30139 0.0
O207 O 0.78873 0.25772 0.34172 0.0
O208 O 0.83328 0.25083 0.32069 0.0
C209 C 0.81765 0.24881 0.34196 0.0
C210 C 0.75588 0.24078 0.27129 0.0
C211 C 0.81821 0.2283 0.35338 0.0
C212 C 0.80369 0.19226 0.35245 0.0
C213 C 0.804 0.21154 0.34103 0.0
C214 C 0.83201 0.20624 0.38862 0.0
C215 C 0.81755 0.18935 0.37649 0.0
C216 C 0.83232 0.22549 0.37717 0.0
C217 C 0.81024 0.32274 0.29669 0.0
C218 C 0.83663 0.3451 0.32711 0.0
C219 C 0.82403 0.3577 0.28545 0.0
C220 C 0.81068 0.33872 0.27918 0.0
C221 C 0.83734 0.36116 0.30944 0.0
C222 C 0.82323 0.32601 0.32076 0.0
C223 C 0.79567 0.3031 0.28902 0.0
O224 O 0.78804 0.24307 0.26984 0.0
O225 O 0.74351 0.24927 0.29119 0.0
O226 O 0.77167 0.29568 0.30277 0.0
O227 O 0.81629 0.28916 0.28154 0.0
H228 H 0.73722 0.27721 0.25148 0.0
H229 H 0.70498 0.28315 0.21314 0.0
H230 H 0.70102 0.21833 0.20014 0.0
H231 H 0.73344 0.21254 0.23853 0.0
H232 H 0.79266 0.17962 0.34242 0.0
H233 H 0.79295 0.21342 0.32262 0.0
H234 H 0.84241 0.20471 0.40727 0.0
H235 H 0.84322 0.23826 0.38706 0.0
H236 H 0.84696 0.34718 0.34568 0.0
H237 H 0.82366 0.36974 0.2715 0.0
H238 H 0.80056 0.33652 0.26055 0.0
H239 H 0.8231 0.31383 0.33454 0.0
C240 C 0.1824 0.22975 0.67628 0.0
C241 C 0.2106 0.21746 0.67708 0.0
C242 C 0.18269 0.19179 0.65145 0.0
C243 C 0.21079 0.19875 0.66472 0.0
C244 C 0.15432 0.20405 0.6511 0.0
C245 C 0.15424 0.22282 0.66332 0.0
U246 U 0.20797 0.26337 0.7308 0.0
O247 O 0.22519 0.2952 0.73231 0.0
O248 O 0.18057 0.28591 0.75246 0.0
C249 C 0.2005 0.30096 0.74619 0.0
C250 C 0.18187 0.24964 0.68903 0.0
C251 C 0.18501 0.32057 0.73965 0.0
C252 C 0.16495 0.34569 0.70954 0.0
C253 C 0.17818 0.32642 0.71485 0.0
C254 C 0.16511 0.35329 0.75371 0.0
C255 C 0.1583 0.35939 0.72894 0.0
C256 C 0.17828 0.33412 0.75896 0.0
C257 C 0.26125 0.23945 0.78258 0.0
C258 C 0.27228 0.25536 0.8227 0.0
C259 C 0.30336 0.22581 0.81052 0.0
C260 C 0.28566 0.22507 0.78797 0.0
C261 C 0.2969 0.24094 0.82822 0.0
C262 C 0.25467 0.25465 0.80004 0.0
C263 C 0.24306 0.23834 0.75867 0.0
O264 O 0.16574 0.24994 0.71017 0.0
O265 O 0.21011 0.25967 0.69007 0.0
O266 O 0.25556 0.24912 0.74023 0.0
O267 O 0.21081 0.23975 0.76006 0.0
H268 H 0.23261 0.22237 0.68712 0.0
H269 H 0.23324 0.18995 0.66519 0.0
H270 H 0.13201 0.1991 0.64151 0.0
H271 H 0.13211 0.23195 0.66266 0.0
H272 H 0.15965 0.34977 0.69027 0.0
H273 H 0.18322 0.31619 0.69964 0.0
H274 H 0.16082 0.36347 0.7691 0.0
H275 H 0.18364 0.32995 0.77822 0.0
H276 H 0.26644 0.26711 0.83594 0.0
H277 H 0.32255 0.21472 0.81386 0.0
H278 H 0.29118 0.2133 0.77463 0.0
H279 H 0.23592 0.26593 0.79616 0.0
C280 C 0.17074 0.74549 0.33196 0.0
C281 C 0.19212 0.73021 0.32385 0.0
C282 C 0.14951 0.70432 0.33045 0.0
C283 C 0.18167 0.70981 0.32328 0.0
C284 C 0.12828 0.71966 0.33866 0.0
C285 C 0.13884 0.74 0.33946 0.0
U286 U 0.21405 0.79025 0.30062 0.0
O287 O 0.20031 0.82239 0.29607 0.0
O288 O 0.24651 0.81451 0.31556 0.0
C289 C 0.22632 0.82909 0.30855 0.0
C290 C 0.18084 0.76721 0.33191 0.0
C291 C 0.22061 0.84531 0.32684 0.0
C292 C 0.1895 0.86035 0.36048 0.0
C293 C 0.19488 0.84417 0.34411 0.0
C294 C 0.23563 0.8788 0.34261 0.0
C295 C 0.20972 0.87795 0.35984 0.0
C296 C 0.24096 0.86268 0.32632 0.0
C297 C 0.25505 0.77972 0.23783 0.0
C298 C 0.29467 0.8023 0.21777 0.0
C299 C 0.27423 0.7724 0.1961 0.0
C300 C 0.25455 0.76744 0.21656 0.0
C301 C 0.2949 0.78972 0.1966 0.0
C302 C 0.27484 0.79736 0.2382 0.0
C303 C 0.23573 0.77344 0.25969 0.0
O304 O 0.21266 0.77096 0.33439 0.0
O305 O 0.16652 0.77864 0.31474 0.0
O306 O 0.20627 0.78145 0.26134 0.0
O307 O 0.25198 0.77306 0.2811 0.0
H308 H 0.21679 0.73403 0.3177 0.0
H309 H 0.19849 0.69841 0.31664 0.0
H310 H 0.10348 0.71591 0.34457 0.0
H311 H 0.12192 0.7515 0.34575 0.0
H312 H 0.16916 0.85921 0.37335 0.0
H313 H 0.17883 0.8309 0.34478 0.0
H314 H 0.25209 0.89188 0.34185 0.0
H315 H 0.26099 0.86383 0.31314 0.0
H316 H 0.31002 0.81587 0.21862 0.0
H317 H 0.27411 0.76227 0.18024 0.0
H318 H 0.23941 0.75376 0.21599 0.0
H319 H 0.27536 0.8071 0.25444 0.0
H320 H 0.00548 0.45742 0.35407 0.0
H321 H 0.95194 0.51224 0.34009 0.0
H322 H 0.05742 0.51436 0.35559 0.0
H323 H 0.05486 0.54373 0.33493 0.0
H324 H 0.00273 0.59919 0.34558 0.0
H325 H 0.95252 0.54255 0.35839 0.0
C326 C 0.0051 0.47392 0.35287 0.0
C327 C 0.03469 0.48483 0.35504 0.0
C328 C 0.9753 0.48369 0.34779 0.0
C329 C 0.97507 0.505 0.34487 0.0
C330 C 0.00445 0.51672 0.34814 0.0
C331 C 0.03437 0.50619 0.35295 0.0
C332 C 0.00382 0.53972 0.3469 0.0
C333 C 0.03238 0.55119 0.34028 0.0
C334 C 0.0319 0.57258 0.34006 0.0
C335 C 0.00301 0.58266 0.34606 0.0
C336 C 0.97439 0.57194 0.3523 0.0
C337 C 0.97473 0.55053 0.35279 0.0
H338 H -0.00226 0.59854 0.68516 0.0
H339 H 0.0506 0.54273 0.67916 0.0
H340 H 0.94632 0.54221 0.69696 0.0
H341 H 0.94645 0.51275 0.67644 0.0
H342 H -0.00071 0.45684 0.68251 0.0
H343 H 0.04985 0.51268 0.69901 0.0
C344 C -0.00209 0.58201 0.68544 0.0
C345 C 0.96869 0.57146 0.6905 0.0
C346 C 0.02754 0.57181 0.68191 0.0
C347 C 0.02769 0.55039 0.68287 0.0
C348 C -0.00163 0.53911 0.68779 0.0
C349 C 0.969 0.55009 0.69225 0.0
C350 C -0.00171 0.51612 0.68748 0.0
C351 C 0.96924 0.50501 0.6809 0.0
C352 C 0.96964 0.48367 0.67919 0.0
C353 C -0.00093 0.47333 0.68364 0.0
C354 C 0.02793 0.48369 0.69052 0.0
C355 C 0.02745 0.50499 0.69296 0.0
H356 H 0.21527 0.10062 0.51631 0.0
H357 H 0.19404 0.04402 0.553 0.0
H358 H 0.2233 0.0453 0.47519 0.0
H359 H 0.19613 1.01579 0.4737 0.0
H360 H 0.20276 0.95875 0.51281 0.0
H361 H 0.21839 1.01384 0.55328 0.0
C362 C 0.21366 0.08412 0.51568 0.0
C363 C 0.21965 0.07412 0.49331 0.0
C364 C 0.20479 0.0733 0.53712 0.0
C365 C 0.20196 0.05198 0.53632 0.0
C366 C 0.20886 0.04122 0.51411 0.0
C367 C 0.2175 0.05274 0.49252 0.0
C368 C 0.20715 1.01822 0.51359 0.0
C369 C 0.20067 1.00761 0.491 0.0
C370 C 0.19905 0.98617 0.49068 0.0
C371 C 0.20368 0.97527 0.51296 0.0
C372 C 0.21021 0.98521 0.53541 0.0
C373 C 0.21223 1.00656 0.53576 0.0
H374 H 0.50108 0.79254 0.10245 0.0
H375 H 0.55447 0.78477 0.03481 0.0
H376 H 0.45013 0.79881 0.0323 0.0
H377 H 0.45192 0.78241 0.99605 0.0
H378 H 0.50543 0.79301 0.92863 0.0
H379 H 0.55454 0.80181 0.99889 0.0
C380 C 0.50143 0.79223 0.08219 0.0
C381 C 0.47225 0.79565 0.06865 0.0
C382 C 0.53108 0.78857 0.07003 0.0
C383 C 0.53147 0.78822 0.04383 0.0
C384 C 0.50239 0.7918 0.02956 0.0
C385 C 0.47275 0.79548 0.04242 0.0
C386 C 0.50315 0.79197 1.00148 0.0
C387 C 0.47463 0.78699 0.98711 0.0
C388 C 0.47541 0.78738 0.96088 0.0
C389 C 0.50477 0.79262 0.94889 0.0
C390 C 0.53329 0.79753 0.96255 0.0
C391 C 0.53245 0.79728 0.98873 0.0
H392 H 0.79686 0.09884 0.51681 0.0
H393 H 0.78771 0.04324 0.55828 0.0
H394 H 0.80332 0.04241 0.47809 0.0
H395 H 0.78045 1.01216 0.47985 0.0
H396 H 0.79261 0.95666 0.52125 0.0
H397 H 0.81006 1.01313 0.55821 0.0
C398 C 0.79656 0.08231 0.51724 0.0
C399 C 0.79913 0.07165 0.49493 0.0
C400 C 0.79342 0.0721 0.54006 0.0
C401 C 0.79178 0.05071 0.5405 0.0
C402 C 0.79559 0.03928 0.5183 0.0
C403 C 0.79976 0.05024 0.49551 0.0
C404 C 0.79505 1.0162 0.51897 0.0
C405 C 0.78695 1.00472 0.49729 0.0
C406 C 0.78618 0.98329 0.49807 0.0
C407 C 0.79304 0.97318 0.52057 0.0
C408 C 0.80113 0.98392 0.54216 0.0
C409 C 0.80255 1.0053 0.54137 0.0
H410 H 0.50377 0.27519 0.09977 0.0
H411 H 0.5531 0.26208 0.03168 0.0
H412 H 0.44781 0.27323 0.03141 0.0
H413 H 0.44862 0.25368 0.99795 0.0
H414 H 0.49553 0.25964 0.92715 0.0
H415 H 0.54924 0.27633 0.99343 0.0
C416 C 0.50278 0.27346 0.07963 0.0
C417 C 0.47237 0.27423 0.06701 0.0
C418 C 0.5318 0.26931 0.0669 0.0
C419 C 0.53053 0.26596 0.04104 0.0
C420 C 0.50039 0.26761 0.02754 0.0
C421 C 0.47135 0.2717 0.04098 0.0
C422 C 0.49924 0.26512 0.99965 0.0
C423 C 0.47018 0.25808 0.98741 0.0
C424 C 0.4688 0.25624 0.96133 0.0
C425 C 0.49667 0.26111 0.94732 0.0
C426 C 0.52574 0.26821 0.95878 0.0
C427 C 0.52697 0.2702 0.9849 0.0
H428 H 0.12341 0.37129 0.35163 0.0
H429 H 0.20581 0.40803 0.32668 0.0
H430 H 0.09378 0.40195 0.36219 0.0
H431 H 0.17589 0.43885 0.33712 0.0
H432 H 0.08689 0.48422 0.32346 0.0
H433 H 0.12782 0.4572 0.32085 0.0
H434 H 0.09167 0.43093 0.38965 0.0
H435 H 0.05047 0.45771 0.39181 0.0
C436 C 0.13554 0.38588 0.34887 0.0
C437 C 0.167 0.38709 0.33818 0.0
C438 C 0.11851 0.40354 0.35496 0.0
C439 C 0.13242 0.42295 0.35054 0.0
C440 C 0.16428 0.42419 0.34051 0.0
C441 C 0.18139 0.40649 0.33448 0.0
C442 C 0.08865 0.47311 0.33849 0.0
C443 C 0.06555 0.473 0.3578 0.0
C444 C 0.11197 0.45754 0.33697 0.0
C445 C 0.11258 0.44161 0.35477 0.0
C446 C 0.09138 0.44266 0.3753 0.0
C447 C 0.06807 0.45814 0.37675 0.0
H448 H 0.16377 0.67427 0.65852 0.0
H449 H 0.15931 0.65979 0.73723 0.0
H450 H 0.13393 0.64271 0.64898 0.0
H451 H 0.12917 0.62861 0.72787 0.0
H452 H 0.08576 0.56906 0.70813 0.0
H453 H 0.129 0.59525 0.7108 0.0
H454 H 0.07942 0.62983 0.65264 0.0
H455 H 0.03735 0.60335 0.64943 0.0
C456 C 0.15643 0.66435 0.67378 0.0
C457 C 0.1639 0.66959 0.69863 0.0
C458 C 0.13937 0.64623 0.66833 0.0
C459 C 0.1291 0.63298 0.68762 0.0
C460 C 0.13724 0.63809 0.71243 0.0
C461 C 0.15443 0.6561 0.71784 0.0
C462 C 0.08492 0.58189 0.6953 0.0
C463 C 0.05804 0.58428 0.67877 0.0
C464 C 0.10938 0.59708 0.69706 0.0
C465 C 0.10738 0.61496 0.68235 0.0
C466 C 0.082 0.61636 0.66426 0.0
C467 C 0.05772 0.60118 0.66246 0.0
H468 H 0.80208 0.6509 0.33619 0.0
H469 H 0.8898 0.68641 0.35283 0.0
H470 H 0.83244 0.61965 0.34504 0.0
H471 H 0.91983 0.65533 0.3619 0.0
H472 H 0.96591 0.59908 0.38947 0.0
H473 H 0.92548 0.62638 0.39001 0.0
H474 H 0.87684 0.60062 0.32516 0.0
H475 H 0.91712 0.57307 0.32508 0.0
C476 C 0.82777 0.65208 0.34185 0.0
C477 C 0.84348 0.67126 0.34365 0.0
C478 C 0.84513 0.63414 0.34698 0.0
C479 C 0.87858 0.63492 0.35421 0.0
C480 C 0.89394 0.65411 0.35684 0.0
C481 C 0.87665 0.67202 0.35162 0.0
C482 C 0.94576 0.59886 0.37596 0.0
C483 C 0.94449 0.58397 0.35729 0.0
C484 C 0.92287 0.61464 0.37604 0.0
C485 C 0.89832 0.61597 0.3573 0.0
C486 C 0.89534 0.60005 0.33992 0.0
C487 C 0.91827 0.58418 0.33991 0.0
H488 H 0.83988 0.38231 0.63778 0.0
H489 H 0.85802 0.38176 0.71747 0.0
H490 H 0.86413 0.41642 0.63495 0.0
H491 H 0.8821 0.41574 0.71465 0.0
H492 H 0.91444 0.48004 0.70748 0.0
H493 H 0.87436 0.45187 0.70602 0.0
H494 H 0.91969 0.42991 0.63892 0.0
H495 H 0.95907 0.45813 0.64034 0.0
C496 C 0.84891 0.38947 0.65471 0.0
C497 C 0.84721 0.37916 0.67782 0.0
C498 C 0.86269 0.40907 0.6531 0.0
C499 C 0.87513 0.41888 0.67456 0.0
C500 C 0.87226 0.40886 0.69778 0.0
C501 C 0.8585 0.38928 0.69939 0.0
C502 C 0.91479 0.46965 0.69188 0.0
C503 C 0.93967 0.47125 0.67397 0.0
C504 C 0.89221 0.45334 0.69122 0.0
C505 C 0.89411 0.4384 0.67258 0.0
C506 C 0.91726 0.44113 0.65345 0.0
C507 C 0.93984 0.45734 0.6542 0.0
H508 H 0.24569 0.19031 0.43231 0.0
H509 H 0.20697 0.16007 0.36675 0.0
H510 H 0.24923 0.15781 0.45406 0.0
H511 H 0.21158 0.12718 0.38839 0.0
H512 H 0.18083 0.08007 0.45201 0.0
H513 H 0.1848 0.10869 0.42253 0.0
H514 H 0.27828 0.12626 0.45603 0.0
H515 H 0.27354 0.09805 0.48581 0.0
C516 C 0.23804 0.17668 0.42247 0.0
C517 C 0.22574 0.17788 0.39784 0.0
C518 C 0.24054 0.15794 0.43485 0.0
C519 C 0.2309 0.13975 0.42298 0.0
C520 C 0.21909 0.14086 0.39816 0.0
C521 C 0.21669 0.1597 0.38569 0.0
C522 C 0.20275 0.08964 0.45236 0.0
C523 C 0.22694 0.08687 0.47105 0.0
C524 C 0.20501 0.10611 0.43557 0.0
C525 C 0.23155 0.12008 0.43721 0.0
C526 C 0.25711 0.11613 0.45459 0.0
C527 C 0.2547 0.09981 0.47143 0.0
H528 H 0.38165 0.79176 0.82208 0.0
H529 H 0.29459 0.7922 0.8677 0.0
H530 H 0.41575 0.78572 0.85906 0.0
H531 H 0.32896 0.78587 0.90505 0.0
H532 H 0.41539 0.80592 0.96245 0.0
H533 H 0.37263 0.80531 0.92962 0.0
H534 H 0.42663 0.75914 0.89085 0.0
H535 H 0.4693 0.75998 0.92341 0.0
C536 C 0.3698 0.79051 0.84006 0.0
C537 C 0.33549 0.79259 0.84201 0.0
C538 C 0.38929 0.7868 0.86124 0.0
C539 C 0.37502 0.78516 0.88499 0.0
C540 C 0.34063 0.78707 0.887 0.0
C541 C 0.32099 0.79059 0.86566 0.0
C542 C 0.41744 0.79518 0.94732 0.0
C543 C 0.44573 0.78316 0.94524 0.0
C544 C 0.39304 0.79485 0.9285 0.0
C545 C 0.39666 0.78248 0.90739 0.0
C546 C 0.42354 0.76915 0.9066 0.0
C547 C 0.44783 0.76953 0.92529 0.0
H548 H 0.7301 0.88461 0.39704 0.0
H549 H 0.83646 0.88825 0.40134 0.0
H550 H 0.72647 0.91693 0.41888 0.0
H551 H 0.83287 0.92048 0.4233 0.0
H552 H 0.82008 0.98296 0.45425 0.0
H553 H 0.81782 0.95625 0.4225 0.0
H554 H 0.73646 0.92759 0.46112 0.0
H555 H 0.73854 0.95435 0.49227 0.0
C556 C 0.75273 0.89232 0.40259 0.0
C557 C 0.78357 0.88368 0.39764 0.0
C558 C 0.75065 0.9109 0.41508 0.0
C559 C 0.77935 0.92133 0.42303 0.0
C560 C 0.81022 0.91308 0.41717 0.0
C561 C 0.81229 0.89452 0.40462 0.0
C562 C 0.80102 0.97132 0.45533 0.0
C563 C 0.77947 0.9707 0.47565 0.0
C564 C 0.79999 0.95586 0.43739 0.0
C565 C 0.77723 0.93958 0.43938 0.0
C566 C 0.75414 0.9399 0.45877 0.0
C567 C 0.75531 0.95524 0.47669 0.0
H568 H 0.63214 0.27278 0.82371 0.0
H569 H 0.71107 0.28645 0.87609 0.0
H570 H 0.59319 0.27108 0.85786 0.0
H571 H 0.67164 0.28512 0.91046 0.0
H572 H 0.59009 0.25607 0.96408 0.0
H573 H 0.63406 0.26001 0.9332 0.0
H574 H 0.56906 0.29614 0.88657 0.0
H575 H 0.5255 0.2922 0.9172 0.0
C576 C 0.64125 0.27523 0.84256 0.0
C577 C 0.67473 0.27971 0.84716 0.0
C578 C 0.61883 0.27452 0.86212 0.0
C579 C 0.62927 0.27821 0.88682 0.0
C580 C 0.66289 0.28221 0.89161 0.0
C581 C 0.68537 0.28309 0.87194 0.0
C582 C 0.58559 0.26522 0.94748 0.0
C583 C 0.55428 0.27357 0.94282 0.0
C584 C 0.61066 0.26744 0.92979 0.0
C585 C 0.60473 0.27801 0.90722 0.0
C586 C 0.5741 0.28747 0.90347 0.0
C587 C 0.54922 0.28529 0.92105 0.0
H588 H 0.24383 0.87039 0.59937 0.0
H589 H 0.18791 0.89718 0.65859 0.0
H590 H 0.24614 0.90314 0.57791 0.0
H591 H 0.19104 0.93029 0.63737 0.0
H592 H 0.16464 0.97492 0.57018 0.0
H593 H 0.1678 0.94625 0.59964 0.0
H594 H 0.26946 0.93706 0.57952 0.0
H595 H 0.26574 0.96542 0.54973 0.0
C596 C 0.23212 0.88332 0.60788 0.0
C597 C 0.21543 0.88108 0.63061 0.0
C598 C 0.23385 0.90221 0.59574 0.0
C599 C 0.21892 0.91946 0.60594 0.0
C600 C 0.20268 0.91733 0.62891 0.0
C601 C 0.20109 0.89838 0.64116 0.0
C602 C 0.18795 0.9672 0.57285 0.0
C603 C 0.21509 0.97246 0.55803 0.0
C604 C 0.18979 0.95073 0.58962 0.0
C605 C 0.21876 0.93913 0.59172 0.0
C606 C 0.24659 0.9454 0.57807 0.0
C607 C 0.24469 0.96182 0.56129 0.0
H608 H 0.68283 0.76014 0.18271 0.0
H609 H 0.6714 0.82545 0.17824 0.0
H610 H 0.64734 0.75631 0.14581 0.0
H611 H 0.63682 0.82156 0.1411 0.0
H612 H 0.58905 0.80978 0.06618 0.0
H613 H 0.63508 0.81004 0.09638 0.0
H614 H 0.58693 0.76236 0.13884 0.0
H615 H 0.5412 0.76213 0.10871 0.0
C616 C 0.67298 0.77369 0.17383 0.0
C617 C 0.67982 0.7931 0.18369 0.0
C618 C 0.65281 0.77148 0.1526 0.0
C619 C 0.63929 0.78863 0.14056 0.0
C620 C 0.64728 0.80806 0.14972 0.0
C621 C 0.66717 0.81027 0.17106 0.0
C622 C 0.58885 0.79901 0.08162 0.0
C623 C 0.5616 0.786 0.08524 0.0
C624 C 0.61498 0.79927 0.09899 0.0
C625 C 0.61448 0.78633 0.12008 0.0
C626 C 0.58818 0.7724 0.12272 0.0
C627 C 0.56194 0.77233 0.10555 0.0
H628 H 0.72689 0.16666 0.63552 0.0
H629 H 0.82697 0.15812 0.66197 0.0
H630 H 0.73216 0.13735 0.60814 0.0
H631 H 0.83194 0.12853 0.63507 0.0
H632 H 0.84026 0.09831 0.55698 0.0
H633 H 0.83543 0.12342 0.58996 0.0
H634 H 0.73857 0.0997 0.60745 0.0
H635 H 0.74358 0.07449 0.57407 0.0
C636 C 0.74999 0.15851 0.63554 0.0
C637 C 0.77659 0.16487 0.65083 0.0
C638 C 0.75285 0.14153 0.6201 0.0
C639 C 0.78246 0.13055 0.61942 0.0
C640 C 0.80886 0.13671 0.63501 0.0
C641 C 0.80594 0.15361 0.65055 0.0
C642 C 0.81826 0.09819 0.56828 0.0
C643 C 0.79234 0.08446 0.5631 0.0
C644 C 0.81548 0.11255 0.5872 0.0
C645 C 0.78654 0.11367 0.60129 0.0
C646 C 0.76106 0.09936 0.59676 0.0
C647 C 0.76402 0.08479 0.5779 0.0
H648 H 0.34042 0.23428 0.17738 0.0
H649 H 0.32037 0.2988 0.17774 0.0
H650 H 0.37353 0.23887 0.14019 0.0
H651 H 0.35436 0.30339 0.14073 0.0
H652 H 0.45931 0.30204 0.10306 0.0
H653 H 0.41476 0.30059 0.1333 0.0
H654 H 0.37233 0.24876 0.09507 0.0
H655 H 0.41722 0.25015 0.06491 0.0
C656 C 0.34247 0.2494 0.16929 0.0
C657 C 0.32776 0.26618 0.18075 0.0
C658 C 0.36153 0.25202 0.14791 0.0
C659 C 0.36659 0.2715 0.13751 0.0
C660 C 0.35116 0.28822 0.14847 0.0
C661 C 0.33184 0.28558 0.16976 0.0
C662 C 0.44003 0.29063 0.10083 0.0
C663 C 0.44181 0.27612 0.08177 0.0
C664 C 0.41444 0.28985 0.11806 0.0
C665 C 0.39022 0.27442 0.11673 0.0
C666 C 0.39087 0.26068 0.09673 0.0
C667 C 0.41635 0.26159 0.07933 0.0
H668 H 0.82422 0.66974 0.68802 0.0
H669 H 0.87947 0.67125 0.75751 0.0
H670 H 0.84849 0.63686 0.67841 0.0
H671 H 0.90372 0.63858 0.74794 0.0
H672 H 0.93299 0.57489 0.73322 0.0
H673 H 0.8948 0.6024 0.74283 0.0
H674 H 0.90158 0.62441 0.66673 0.0
H675 H 0.93893 0.59679 0.65728 0.0
C676 C 0.84159 0.6631 0.70122 0.0
C677 C 0.84993 0.67323 0.72351 0.0
C678 C 0.85541 0.6442 0.69577 0.0
C679 C 0.87799 0.63494 0.71244 0.0
C680 C 0.88588 0.64494 0.73489 0.0
C681 C 0.87206 0.6638 0.74034 0.0
C682 C 0.92515 0.58516 0.7184 0.0
C683 C 0.93871 0.58371 0.69451 0.0
C684 C 0.90373 0.60111 0.72394 0.0
C685 C 0.89549 0.61588 0.70567 0.0
C686 C 0.90708 0.61333 0.68126 0.0
C687 C 0.92848 0.59747 0.67578 0.0
H688 H 0.87687 0.3851 0.28006 0.0
H689 H 0.83204 0.38299 0.35278 0.0
H690 H 0.90262 0.41763 0.2901 0.0
H691 H 0.85775 0.41576 0.36286 0.0
H692 H 0.95044 0.45631 0.38089 0.0
H693 H 0.9121 0.42851 0.37196 0.0
H694 H 0.89488 0.45336 0.29796 0.0
H695 H 0.93421 0.48102 0.30693 0.0
C696 C 0.87205 0.39174 0.29808 0.0
C697 C 0.85242 0.38135 0.31563 0.0
C698 C 0.88673 0.41051 0.30381 0.0
C699 C 0.8822 0.41947 0.32727 0.0
C700 C 0.86208 0.40924 0.3447 0.0
C701 C 0.84743 0.39041 0.33897 0.0
C702 C 0.93768 0.45613 0.36298 0.0
C703 C 0.94535 0.47075 0.34456 0.0
C704 C 0.91563 0.44019 0.35783 0.0
C705 C 0.9007 0.43844 0.33408 0.0
C706 C 0.90642 0.45401 0.31629 0.0
C707 C 0.92854 0.47004 0.3215 0.0
H708 H 0.17362 0.38606 0.6908 0.0
H709 H 0.11086 0.37933 0.755 0.0
H710 H 0.14977 0.41943 0.68201 0.0
H711 H 0.08716 0.41253 0.74627 0.0
H712 H 0.05955 0.47727 0.73518 0.0
H713 H 0.09681 0.44907 0.74521 0.0
H714 H 0.09752 0.43261 0.66724 0.0
H715 H 0.06095 0.46089 0.65745 0.0
C716 C 0.15469 0.39164 0.703 0.0
C717 C 0.14415 0.37992 0.72358 0.0
C718 C 0.14112 0.41084 0.69803 0.0
C719 C 0.11666 0.4188 0.71352 0.0
C720 C 0.10647 0.40717 0.73426 0.0
C721 C 0.11999 0.38802 0.73921 0.0
C722 C 0.06887 0.46809 0.72016 0.0
C723 C 0.05767 0.47129 0.69555 0.0
C724 C 0.08975 0.45174 0.72589 0.0
C725 C 0.09978 0.43832 0.70709 0.0
C726 C 0.09057 0.44263 0.6822 0.0
C727 C 0.06967 0.45888 0.67653 0.0
H728 H 0.09069 0.6904 0.31172 0.0
H729 H 0.1817 0.66959 0.34557 0.0
H730 H 0.06989 0.65553 0.31072 0.0
H731 H 0.16096 0.6344 0.34426 0.0
H732 H 0.08254 0.58376 0.37084 0.0
H733 H 0.11675 0.61441 0.36584 0.0
H734 H 0.07799 0.62242 0.2909 0.0
H735 H 0.04358 0.59195 0.29622 0.0
C736 C 0.10632 0.67833 0.31887 0.0
C737 C 0.13774 0.6828 0.32889 0.0
C738 C 0.09458 0.65828 0.31799 0.0
C739 C 0.11385 0.6421 0.32723 0.0
C740 C 0.1455 0.6465 0.337 0.0
C741 C 0.15742 0.66663 0.33765 0.0
C742 C 0.08266 0.59155 0.35292 0.0
C743 C 0.06084 0.58541 0.33379 0.0
C744 C 0.10204 0.6092 0.35008 0.0
C745 C 0.09963 0.62108 0.32813 0.0
C746 C 0.07999 0.6138 0.30819 0.0
C747 C 0.0607 0.59619 0.31104 0.0
H748 H 0.79244 0.89969 0.6703 0.0
H749 H 0.84407 0.87159 0.60969 0.0
H750 H 0.7914 0.93182 0.64696 0.0
H751 H 0.84338 0.9036 0.58668 0.0
H752 H 0.85845 0.96558 0.55525 0.0
H753 H 0.86537 0.93807 0.58593 0.0
H754 H 0.7647 0.946 0.60934 0.0
H755 H 0.75832 0.97378 0.57892 0.0
C756 C 0.80356 0.90031 0.65203 0.0
C757 C 0.81837 0.88293 0.64196 0.0
C758 C 0.80305 0.91878 0.63869 0.0
C759 C 0.81752 0.9204 0.615 0.0
C760 C 0.83265 0.9031 0.6051 0.0
C761 C 0.83303 0.88466 0.61835 0.0
C762 C 0.83833 0.96191 0.5677 0.0
C763 C 0.80808 0.97195 0.56511 0.0
C764 C 0.84205 0.94597 0.58499 0.0
C765 C 0.81543 0.93957 0.59988 0.0
C766 C 0.78581 0.95059 0.59837 0.0
C767 C 0.78214 0.96657 0.58106 0.0
H768 H 0.64747 0.27633 0.19939 0.0
H769 H 0.70484 0.23382 0.15737 0.0
H770 H 0.61117 0.28146 0.1635 0.0
H771 H 0.66878 0.23926 0.12098 0.0
H772 H 0.5699 0.23584 0.0748 0.0
H773 H 0.61394 0.232 0.10618 0.0
H774 H 0.60729 0.29607 0.12318 0.0
H775 H 0.56243 0.29946 0.09265 0.0
C776 C 0.65266 0.26834 0.18229 0.0
C777 C 0.67909 0.25472 0.18122 0.0
C778 C 0.6319 0.27133 0.1616 0.0
C779 C 0.63713 0.26091 0.13915 0.0
C780 C 0.66379 0.24739 0.138 0.0
C781 C 0.68447 0.24428 0.15883 0.0
C782 C 0.57855 0.24912 0.0849 0.0
C783 C 0.56293 0.26791 0.08146 0.0
C784 C 0.60374 0.24698 0.10288 0.0
C785 C 0.61386 0.26366 0.11759 0.0
C786 C 0.59959 0.28277 0.11273 0.0
C787 C 0.57419 0.28481 0.09505 0.0
H788 H 0.21301 0.1559 0.66512 0.0
H789 H 0.15379 0.18293 0.60611 0.0
H790 H 0.2159 0.12442 0.64136 0.0
H791 H 0.15624 0.15145 0.58273 0.0
H792 H 0.14635 0.08885 0.55155 0.0
H793 H 0.13841 0.11574 0.58226 0.0
H794 H 0.24179 0.11287 0.60263 0.0
H795 H 0.2493 0.08584 0.5721 0.0
C796 C 0.20061 0.15519 0.64711 0.0
C797 C 0.18322 0.1721 0.6376 0.0
C798 C 0.20216 0.13708 0.63354 0.0
C799 C 0.18616 0.13532 0.61018 0.0
C800 C 0.1683 0.15208 0.60088 0.0
C801 C 0.16691 0.1702 0.61435 0.0
C802 C 0.16698 0.0935 0.56332 0.0
C803 C 0.19826 0.0851 0.55989 0.0
C804 C 0.16262 0.10908 0.58062 0.0
C805 C 0.18954 0.11665 0.59475 0.0
C806 C 0.22045 0.10731 0.59229 0.0
C807 C 0.22479 0.09178 0.57491 0.0
H808 H 0.35955 0.80138 0.2 0.0
H809 H 0.28273 0.78715 0.14612 0.0
H810 H 0.39881 0.80568 0.16647 0.0
H811 H 0.32208 0.79175 0.11226 0.0
H812 H 0.41474 0.77382 0.06591 0.0
H813 H 0.36898 0.77485 0.09522 0.0
H814 H 0.41512 0.82627 0.13207 0.0
H815 H 0.4612 0.82462 0.10332 0.0
C816 C 0.35086 0.7996 0.18092 0.0
C817 C 0.31799 0.79393 0.17576 0.0
C818 C 0.3734 0.80211 0.1616 0.0
C819 C 0.36367 0.79914 0.13655 0.0
C820 C 0.33056 0.79392 0.13133 0.0
C821 C 0.30799 0.7913 0.15072 0.0
C822 C 0.41455 0.78561 0.07993 0.0
C823 C 0.44148 0.79904 0.08256 0.0
C824 C 0.38837 0.78624 0.09674 0.0
C825 C 0.3886 0.80042 0.11634 0.0
C826 C 0.41451 0.8148 0.11766 0.0
C827 C 0.44076 0.81401 0.10108 0.0
H828 H 0.76643 0.16159 0.3762 0.0
H829 H 0.86496 0.17102 0.40591 0.0
H830 H 0.76222 0.12966 0.39951 0.0
H831 H 0.86018 0.13952 0.43005 0.0
H832 H 0.85083 0.07643 0.46287 0.0
H833 H 0.85608 0.10249 0.4299 0.0
H834 H 0.75578 0.12106 0.44291 0.0
H835 H 0.75073 0.09499 0.4753 0.0
C836 C 0.78739 0.15677 0.38745 0.0
C837 C 0.81595 0.16905 0.38928 0.0
C838 C 0.78483 0.13851 0.40103 0.0
C839 C 0.81076 0.13201 0.41684 0.0
C840 C 0.83982 0.14389 0.41792 0.0
C841 C 0.84237 0.16215 0.40433 0.0
C842 C 0.82969 0.08569 0.45798 0.0
C843 C 0.8003 0.08366 0.47138 0.0
C844 C 0.83276 0.10078 0.43938 0.0
C845 C 0.80643 0.11403 0.43383 0.0
C846 C 0.77645 0.11105 0.44637 0.0
C847 C 0.7735 0.09611 0.46495 0.0
H848 H 0.31817 0.20925 0.85787 0.0
H849 H 0.32033 0.27493 0.85232 0.0
H850 H 0.35492 0.21082 0.89429 0.0
H851 H 0.35651 0.27644 0.88896 0.0
H852 H 0.40857 0.2742 0.96372 0.0
H853 H 0.36171 0.26922 0.93488 0.0
H854 H 0.41397 0.2207 0.89909 0.0
H855 H 0.46045 0.22568 0.92788 0.0
C856 C 0.32633 0.22403 0.86445 0.0
C857 C 0.31654 0.24196 0.85193 0.0
C858 C 0.34724 0.22491 0.8854 0.0
C859 C 0.35867 0.24374 0.89447 0.0
C860 C 0.34776 0.2617 0.88266 0.0
C861 C 0.32701 0.26082 0.8616 0.0
C862 C 0.40948 0.26209 0.95015 0.0
C863 C 0.43802 0.25033 0.94793 0.0
C864 C 0.38288 0.25938 0.9335 0.0
C865 C 0.38427 0.24469 0.91458 0.0
C866 C 0.41199 0.23203 0.91355 0.0
C867 C 0.43864 0.2349 0.92997 0.0
H868 H 0.19308 0.87624 0.40931 0.0
H869 H 0.21413 0.919 0.34973 0.0
H870 H 0.18636 0.90436 0.43801 0.0
H871 H 0.20742 0.94722 0.37854 0.0
H872 H 0.23526 0.98786 0.44792 0.0
H873 H 0.23498 0.96271 0.4144 0.0
H874 H 0.15126 0.93238 0.44795 0.0
H875 H 0.15216 0.95723 0.48153 0.0
C876 C 0.19579 0.89165 0.40221 0.0
C877 C 0.20422 0.89527 0.37716 0.0
C878 C 0.19189 0.90784 0.41869 0.0
C879 C 0.19622 0.92815 0.41062 0.0
C880 C 0.20428 0.9318 0.3855 0.0
C881 C 0.20817 0.91559 0.36898 0.0
C882 C 0.21625 0.97615 0.44763 0.0
C883 C 0.19383 0.97443 0.46734 0.0
C884 C 0.21612 0.96167 0.4285 0.0
C885 C 0.19349 0.94523 0.42871 0.0
C886 C 0.16957 0.94449 0.44751 0.0
C887 C 0.16982 0.95886 0.4666 0.0
H888 H 0.67863 0.77737 0.85395 0.0
H889 H 0.68326 0.84293 0.85967 0.0
H890 H 0.64298 0.77579 0.89025 0.0
H891 H 0.64703 0.84129 0.89569 0.0
H892 H 0.54163 0.82759 0.92812 0.0
H893 H 0.58752 0.83198 0.89945 0.0
H894 H 0.63891 0.78264 0.93639 0.0
H895 H 0.59265 0.77833 0.96521 0.0
C896 C 0.6726 0.79142 0.8632 0.0
C897 C 0.68358 0.8103 0.85366 0.0
C898 C 0.65216 0.7905 0.88405 0.0
C899 C 0.64209 0.80843 0.89576 0.0
C900 C 0.65406 0.82724 0.88685 0.0
C901 C 0.67466 0.82816 0.86613 0.0
C902 C 0.56313 0.81804 0.93046 0.0
C903 C 0.56373 0.80264 0.94879 0.0
C904 C 0.58943 0.82057 0.91411 0.0
C905 C 0.61675 0.80757 0.91557 0.0
C906 C 0.61805 0.79276 0.93472 0.0
C907 C 0.59182 0.79042 0.95133 0.0
loop_
_geom_bond_atom_site_label_1
_geom_bond_atom_site_label_2
_geom_bond_distance
_geom_bond_site_symmetry_2
_ccdc_geom_bond_type
C0 C1 1.264 . S
C0 C5 1.479 . S
C0 C10 1.465 . S
C1 C0 1.264 . S
C1 C3 1.339 . S
C1 H28 0.931 . S
C2 C3 1.395 . S
C2 C4 1.320 . S
C3 C1 1.339 . S
C3 C2 1.395 . S
C3 H29 0.929 . S
C4 C2 1.320 . S
C4 C5 1.405 . S
C4 H30 0.930 . S
C5 C0 1.479 . S
C5 C4 1.405 . S
C5 H31 0.931 . S
U6 O7 2.454 . S
U6 O8 2.458 . S
U6 C9 2.984 . S
U6 C10 2.847 . S
U6 C23 2.882 . S
U6 O24 2.441 . S
U6 O25 2.420 . S
U6 O26 2.455 . S
U6 O27 2.449 . S
O7 U6 2.454 . S
O7 C9 1.353 . S
O8 U6 2.458 . S
O8 C9 1.286 . S
C9 U6 2.984 . S
C9 O7 1.353 . S
C9 O8 1.286 . S
C9 C11 1.363 . S
C10 C0 1.465 . S
C10 U6 2.847 . S
C10 O24 1.249 . S
C10 O25 1.202 . S
C11 C9 1.363 . S
C11 C13 1.408 . S
C11 C16 1.342 . S
C12 C13 1.310 . S
C12 C15 1.461 . S
C12 H32 0.932 . S
C13 C11 1.408 . S
C13 C12 1.310 . S
C13 H33 0.930 . S
C14 C15 1.474 . S
C14 C16 1.285 . S
C14 H34 0.929 . S
C15 C12 1.461 . S
C15 C14 1.474 . S
C16 C11 1.342 . S
C16 C14 1.285 . S
C16 H35 0.930 . S
C17 C20 1.424 . S
C17 C22 1.245 . S
C17 C23 1.428 . S
C18 C21 1.260 . S
C18 C22 1.477 . S
C18 H36 0.932 . S
C19 C20 1.384 . S
C19 C21 1.479 . S
C19 H37 0.929 . S
C20 C17 1.424 . S
C20 C19 1.384 . S
C20 H38 0.928 . S
C21 C18 1.260 . S
C21 C19 1.479 . S
C22 C17 1.245 . S
C22 C18 1.477 . S
C22 H39 0.932 . S
C23 U6 2.882 . S
C23 C17 1.428 . S
C23 O26 1.301 . S
C23 O27 1.282 . S
O24 U6 2.441 . S
O24 C10 1.249 . S
O25 U6 2.420 . S
O25 C10 1.202 . S
O26 U6 2.455 . S
O26 C23 1.301 . S
O27 U6 2.449 . S
O27 C23 1.282 . S
H28 C1 0.931 . S
H29 C3 0.929 . S
H30 C4 0.930 . S
H31 C5 0.931 . S
H32 C12 0.932 . S
H33 C13 0.930 . S
H34 C14 0.929 . S
H35 C16 0.930 . S
H36 C18 0.932 . S
H37 C19 0.929 . S
H38 C20 0.928 . S
H39 C22 0.932 . S
C40 C41 1.264 . S
C40 C45 1.479 . S
C40 C50 1.465 . S
C41 C40 1.264 . S
C41 C43 1.339 . S
C41 H68 0.931 . S
C42 C43 1.395 . S
C42 C44 1.320 . S
C43 C41 1.339 . S
C43 C42 1.395 . S
C43 H69 0.929 . S
C44 C42 1.320 . S
C44 C45 1.405 . S
C44 H70 0.930 . S
C45 C40 1.479 . S
C45 C44 1.405 . S
C45 H71 0.931 . S
U46 O47 2.454 . S
U46 O48 2.458 . S
U46 C49 2.984 . S
U46 C50 2.847 . S
U46 C63 2.882 . S
U46 O64 2.441 . S
U46 O65 2.420 . S
U46 O66 2.455 . S
U46 O67 2.449 . S
O47 U46 2.454 . S
O47 C49 1.353 . S
O48 U46 2.458 . S
O48 C49 1.286 . S
C49 U46 2.984 . S
C49 O47 1.353 . S
C49 O48 1.286 . S
C49 C51 1.363 . S
C50 C40 1.465 . S
C50 U46 2.847 . S
C50 O64 1.249 . S
C50 O65 1.202 . S
C51 C49 1.363 . S
C51 C53 1.408 . S
C51 C56 1.342 . S
C52 C53 1.310 . S
C52 C55 1.461 . S
C52 H72 0.932 . S
C53 C51 1.408 . S
C53 C52 1.310 . S
C53 H73 0.930 . S
C54 C55 1.474 . S
C54 C56 1.285 . S
C54 H74 0.929 . S
C55 C52 1.461 . S
C55 C54 1.474 . S
C56 C51 1.342 . S
C56 C54 1.285 . S
C56 H75 0.930 . S
C57 C60 1.424 . S
C57 C62 1.245 . S
C57 C63 1.428 . S
C58 C61 1.260 . S
C58 C62 1.477 . S
C58 H76 0.932 . S
C59 C60 1.384 . S
C59 C61 1.479 . S
C59 H77 0.929 . S
C60 C57 1.424 . S
C60 C59 1.384 . S
C60 H78 0.928 . S
C61 C58 1.260 . S
C61 C59 1.479 . S
C62 C57 1.245 . S
C62 C58 1.477 . S
C62 H79 0.932 . S
C63 U46 2.882 . S
C63 C57 1.428 . S
C63 O66 1.301 . S
C63 O67 1.282 . S
O64 U46 2.441 . S
O64 C50 1.249 . S
O65 U46 2.420 . S
O65 C50 1.202 . S
O66 U46 2.455 . S
O66 C63 1.301 . S
O67 U46 2.449 . S
O67 C63 1.282 . S
H68 C41 0.931 . S
H69 C43 0.929 . S
H70 C44 0.930 . S
H71 C45 0.931 . S
H72 C52 0.932 . S
H73 C53 0.930 . S
H74 C54 0.929 . S
H75 C56 0.930 . S
H76 C58 0.932 . S
H77 C59 0.929 . S
H78 C60 0.928 . S
H79 C62 0.932 . S
C80 C81 1.264 . S
C80 C85 1.479 . S
C80 C90 1.465 . S
C81 C80 1.264 . S
C81 C83 1.339 . S
C81 H108 0.931 . S
C82 C83 1.395 . S
C82 C84 1.320 . S
C83 C81 1.339 . S
C83 C82 1.395 . S
C83 H109 0.929 . S
C84 C82 1.320 . S
C84 C85 1.405 . S
C84 H110 0.930 . S
C85 C80 1.479 . S
C85 C84 1.405 . S
C85 H111 0.931 . S
U86 O87 2.454 . S
U86 O88 2.458 . S
U86 C89 2.984 . S
U86 C90 2.847 . S
U86 C103 2.882 . S
U86 O104 2.441 . S
U86 O105 2.420 . S
U86 O106 2.455 . S
U86 O107 2.449 . S
O87 U86 2.454 . S
O87 C89 1.353 . S
O88 U86 2.458 . S
O88 C89 1.286 . S
C89 U86 2.984 . S
C89 O87 1.353 . S
C89 O88 1.286 . S
C89 C91 1.363 . S
C90 C80 1.465 . S
C90 U86 2.847 . S
C90 O104 1.249 . S
C90 O105 1.202 . S
C91 C89 1.363 . S
C91 C93 1.408 . S
C91 C96 1.342 . S
C92 C93 1.310 . S
C92 C95 1.461 . S
C92 H112 0.932 . S
C93 C91 1.408 . S
C93 C92 1.310 . S
C93 H113 0.930 . S
C94 C95 1.474 . S
C94 C96 1.285 . S
C94 H114 0.929 . S
C95 C92 1.461 . S
C95 C94 1.474 . S
C96 C91 1.342 . S
C96 C94 1.285 . S
C96 H115 0.930 . S
C97 C100 1.424 . S
C97 C102 1.245 . S
C97 C103 1.428 . S
C98 C101 1.260 . S
C98 C102 1.477 . S
C98 H116 0.932 . S
C99 C100 1.384 . S
C99 C101 1.479 . S
C99 H117 0.929 . S
C100 C97 1.424 . S
C100 C99 1.384 . S
C100 H118 0.928 . S
C101 C98 1.260 . S
C101 C99 1.479 . S
C102 C97 1.245 . S
C102 C98 1.477 . S
C102 H119 0.932 . S
C103 U86 2.882 . S
C103 C97 1.428 . S
C103 O106 1.301 . S
C103 O107 1.282 . S
O104 U86 2.441 . S
O104 C90 1.249 . S
O105 U86 2.420 . S
O105 C90 1.202 . S
O106 U86 2.455 . S
O106 C103 1.301 . S
O107 U86 2.449 . S
O107 C103 1.282 . S
H108 C81 0.931 . S
H109 C83 0.929 . S
H110 C84 0.930 . S
H111 C85 0.931 . S
H112 C92 0.932 . S
H113 C93 0.930 . S
H114 C94 0.929 . S
H115 C96 0.930 . S
H116 C98 0.932 . S
H117 C99 0.929 . S
H118 C100 0.928 . S
H119 C102 0.932 . S
C120 C121 1.264 . S
C120 C125 1.479 . S
C120 C130 1.465 . S
C121 C120 1.264 . S
C121 C123 1.339 . S
C121 H148 0.931 . S
C122 C123 1.395 . S
C122 C124 1.320 . S
C123 C121 1.339 . S
C123 C122 1.395 . S
C123 H149 0.929 . S
C124 C122 1.320 . S
C124 C125 1.405 . S
C124 H150 0.930 . S
C125 C120 1.479 . S
C125 C124 1.405 . S
C125 H151 0.931 . S
U126 O127 2.454 . S
U126 O128 2.458 . S
U126 C129 2.984 . S
U126 C130 2.847 . S
U126 C143 2.882 . S
U126 O144 2.441 . S
U126 O145 2.420 . S
U126 O146 2.455 . S
U126 O147 2.449 . S
O127 U126 2.454 . S
O127 C129 1.353 . S
O128 U126 2.458 . S
O128 C129 1.286 . S
C129 U126 2.984 . S
C129 O127 1.353 . S
C129 O128 1.286 . S
C129 C131 1.363 . S
C130 C120 1.465 . S
C130 U126 2.847 . S
C130 O144 1.249 . S
C130 O145 1.202 . S
C131 C129 1.363 . S
C131 C133 1.408 . S
C131 C136 1.342 . S
C132 C133 1.310 . S
C132 C135 1.461 . S
C132 H152 0.932 . S
C133 C131 1.408 . S
C133 C132 1.310 . S
C133 H153 0.930 . S
C134 C135 1.474 . S
C134 C136 1.285 . S
C134 H154 0.929 . S
C135 C132 1.461 . S
C135 C134 1.474 . S
C136 C131 1.342 . S
C136 C134 1.285 . S
C136 H155 0.930 . S
C137 C140 1.424 . S
C137 C142 1.245 . S
C137 C143 1.428 . S
C138 C141 1.260 . S
C138 C142 1.477 . S
C138 H156 0.932 . S
C139 C140 1.384 . S
C139 C141 1.479 . S
C139 H157 0.929 . S
C140 C137 1.424 . S
C140 C139 1.384 . S
C140 H158 0.928 . S
C141 C138 1.260 . S
C141 C139 1.479 . S
C142 C137 1.245 . S
C142 C138 1.477 . S
C142 H159 0.932 . S
C143 U126 2.882 . S
C143 C137 1.428 . S
C143 O146 1.301 . S
C143 O147 1.282 . S
O144 U126 2.441 . S
O144 C130 1.249 . S
O145 U126 2.420 . S
O145 C130 1.202 . S
O146 U126 2.455 . S
O146 C143 1.301 . S
O147 U126 2.449 . S
O147 C143 1.282 . S
H148 C121 0.931 . S
H149 C123 0.929 . S
H150 C124 0.930 . S
H151 C125 0.931 . S
H152 C132 0.932 . S
H153 C133 0.930 . S
H154 C134 0.929 . S
H155 C136 0.930 . S
H156 C138 0.932 . S
H157 C139 0.929 . S
H158 C140 0.928 . S
H159 C142 0.932 . S
C160 C161 1.264 . S
C160 C165 1.479 . S
C160 C170 1.465 . S
C161 C160 1.264 . S
C161 C163 1.339 . S
C161 H188 0.931 . S
C162 C163 1.395 . S
C162 C164 1.320 . S
C163 C161 1.339 . S
C163 C162 1.395 . S
C163 H189 0.929 . S
C164 C162 1.320 . S
C164 C165 1.405 . S
C164 H190 0.930 . S
C165 C160 1.479 . S
C165 C164 1.405 . S
C165 H191 0.931 . S
U166 O167 2.454 . S
U166 O168 2.458 . S
U166 C169 2.984 . S
U166 C170 2.847 . S
U166 C183 2.882 . S
U166 O184 2.441 . S
U166 O185 2.420 . S
U166 O186 2.455 . S
U166 O187 2.449 . S
O167 U166 2.454 . S
O167 C169 1.353 . S
O168 U166 2.458 . S
O168 C169 1.286 . S
C169 U166 2.984 . S
C169 O167 1.353 . S
C169 O168 1.286 . S
C169 C171 1.363 . S
C170 C160 1.465 . S
C170 U166 2.847 . S
C170 O184 1.249 . S
C170 O185 1.202 . S
C171 C169 1.363 . S
C171 C173 1.408 . S
C171 C176 1.342 . S
C172 C173 1.310 . S
C172 C175 1.461 . S
C172 H192 0.932 . S
C173 C171 1.408 . S
C173 C172 1.310 . S
C173 H193 0.930 . S
C174 C175 1.474 . S
C174 C176 1.285 . S
C174 H194 0.929 . S
C175 C172 1.461 . S
C175 C174 1.474 . S
C176 C171 1.342 . S
C176 C174 1.285 . S
C176 H195 0.930 . S
C177 C180 1.424 . S
C177 C182 1.245 . S
C177 C183 1.428 . S
C178 C181 1.260 . S
C178 C182 1.477 . S
C178 H196 0.932 . S
C179 C180 1.384 . S
C179 C181 1.479 . S
C179 H197 0.929 . S
C180 C177 1.424 . S
C180 C179 1.384 . S
C180 H198 0.928 . S
C181 C178 1.260 . S
C181 C179 1.479 . S
C182 C177 1.245 . S
C182 C178 1.477 . S
C182 H199 0.932 . S
C183 U166 2.882 . S
C183 C177 1.428 . S
C183 O186 1.301 . S
C183 O187 1.282 . S
O184 U166 2.441 . S
O184 C170 1.249 . S
O185 U166 2.420 . S
O185 C170 1.202 . S
O186 U166 2.455 . S
O186 C183 1.301 . S
O187 U166 2.449 . S
O187 C183 1.282 . S
H188 C161 0.931 . S
H189 C163 0.929 . S
H190 C164 0.930 . S
H191 C165 0.931 . S
H192 C172 0.932 . S
H193 C173 0.930 . S
H194 C174 0.929 . S
H195 C176 0.930 . S
H196 C178 0.932 . S
H197 C179 0.929 . S
H198 C180 0.928 . S
H199 C182 0.932 . S
C200 C201 1.264 . S
C200 C205 1.479 . S
C200 C210 1.465 . S
C201 C200 1.264 . S
C201 C203 1.339 . S
C201 H228 0.931 . S
C202 C203 1.395 . S
C202 C204 1.320 . S
C203 C201 1.339 . S
C203 C202 1.395 . S
C203 H229 0.929 . S
C204 C202 1.320 . S
C204 C205 1.405 . S
C204 H230 0.930 . S
C205 C200 1.479 . S
C205 C204 1.405 . S
C205 H231 0.931 . S
U206 O207 2.454 . S
U206 O208 2.458 . S
U206 C209 2.984 . S
U206 C210 2.847 . S
U206 C223 2.882 . S
U206 O224 2.441 . S
U206 O225 2.420 . S
U206 O226 2.455 . S
U206 O227 2.449 . S
O207 U206 2.454 . S
O207 C209 1.353 . S
O208 U206 2.458 . S
O208 C209 1.286 . S
C209 U206 2.984 . S
C209 O207 1.353 . S
C209 O208 1.286 . S
C209 C211 1.363 . S
C210 C200 1.465 . S
C210 U206 2.847 . S
C210 O224 1.249 . S
C210 O225 1.202 . S
C211 C209 1.363 . S
C211 C213 1.408 . S
C211 C216 1.342 . S
C212 C213 1.310 . S
C212 C215 1.461 . S
C212 H232 0.932 . S
C213 C211 1.408 . S
C213 C212 1.310 . S
C213 H233 0.930 . S
C214 C215 1.474 . S
C214 C216 1.285 . S
C214 H234 0.929 . S
C215 C212 1.461 . S
C215 C214 1.474 . S
C216 C211 1.342 . S
C216 C214 1.285 . S
C216 H235 0.930 . S
C217 C220 1.424 . S
C217 C222 1.245 . S
C217 C223 1.428 . S
C218 C221 1.260 . S
C218 C222 1.477 . S
C218 H236 0.932 . S
C219 C220 1.384 . S
C219 C221 1.479 . S
C219 H237 0.929 . S
C220 C217 1.424 . S
C220 C219 1.384 . S
C220 H238 0.928 . S
C221 C218 1.260 . S
C221 C219 1.479 . S
C222 C217 1.245 . S
C222 C218 1.477 . S
C222 H239 0.932 . S
C223 U206 2.882 . S
C223 C217 1.428 . S
C223 O226 1.301 . S
C223 O227 1.282 . S
O224 U206 2.441 . S
O224 C210 1.249 . S
O225 U206 2.420 . S
O225 C210 1.202 . S
O226 U206 2.455 . S
O226 C223 1.301 . S
O227 U206 2.449 . S
O227 C223 1.282 . S
H228 C201 0.931 . S
H229 C203 0.929 . S
H230 C204 0.930 . S
H231 C205 0.931 . S
H232 C212 0.932 . S
H233 C213 0.930 . S
H234 C214 0.929 . S
H235 C216 0.930 . S
H236 C218 0.932 . S
H237 C219 0.929 . S
H238 C220 0.928 . S
H239 C222 0.932 . S
C240 C241 1.264 . S
C240 C245 1.479 . S
C240 C250 1.465 . S
C241 C240 1.264 . S
C241 C243 1.339 . S
C241 H268 0.931 . S
C242 C243 1.395 . S
C242 C244 1.320 . S
C243 C241 1.339 . S
C243 C242 1.395 . S
C243 H269 0.929 . S
C244 C242 1.320 . S
C244 C245 1.405 . S
C244 H270 0.930 . S
C245 C240 1.479 . S
C245 C244 1.405 . S
C245 H271 0.931 . S
U246 O247 2.454 . S
U246 O248 2.458 . S
U246 C249 2.984 . S
U246 C250 2.847 . S
U246 C263 2.882 . S
U246 O264 2.441 . S
U246 O265 2.420 . S
U246 O266 2.455 . S
U246 O267 2.449 . S
O247 U246 2.454 . S
O247 C249 1.353 . S
O248 U246 2.458 . S
O248 C249 1.286 . S
C249 U246 2.984 . S
C249 O247 1.353 . S
C249 O248 1.286 . S
C249 C251 1.363 . S
C250 C240 1.465 . S
C250 U246 2.847 . S
C250 O264 1.249 . S
C250 O265 1.202 . S
C251 C249 1.363 . S
C251 C253 1.408 . S
C251 C256 1.342 . S
C252 C253 1.310 . S
C252 C255 1.461 . S
C252 H272 0.932 . S
C253 C251 1.408 . S
C253 C252 1.310 . S
C253 H273 0.930 . S
C254 C255 1.474 . S
C254 C256 1.285 . S
C254 H274 0.929 . S
C255 C252 1.461 . S
C255 C254 1.474 . S
C256 C251 1.342 . S
C256 C254 1.285 . S
C256 H275 0.930 . S
C257 C260 1.424 . S
C257 C262 1.245 . S
C257 C263 1.428 . S
C258 C261 1.260 . S
C258 C262 1.477 . S
C258 H276 0.932 . S
C259 C260 1.384 . S
C259 C261 1.479 . S
C259 H277 0.929 . S
C260 C257 1.424 . S
C260 C259 1.384 . S
C260 H278 0.928 . S
C261 C258 1.260 . S
C261 C259 1.479 . S
C262 C257 1.245 . S
C262 C258 1.477 . S
C262 H279 0.932 . S
C263 U246 2.882 . S
C263 C257 1.428 . S
C263 O266 1.301 . S
C263 O267 1.282 . S
O264 U246 2.441 . S
O264 C250 1.249 . S
O265 U246 2.420 . S
O265 C250 1.202 . S
O266 U246 2.455 . S
O266 C263 1.301 . S
O267 U246 2.449 . S
O267 C263 1.282 . S
H268 C241 0.931 . S
H269 C243 0.929 . S
H270 C244 0.930 . S
H271 C245 0.931 . S
H272 C252 0.932 . S
H273 C253 0.930 . S
H274 C254 0.929 . S
H275 C256 0.930 . S
H276 C258 0.932 . S
H277 C259 0.929 . S
H278 C260 0.928 . S
H279 C262 0.932 . S
C280 C281 1.264 . S
C280 C285 1.479 . S
C280 C290 1.465 . S
C281 C280 1.264 . S
C281 C283 1.339 . S
C281 H308 0.931 . S
C282 C283 1.395 . S
C282 C284 1.320 . S
C283 C281 1.339 . S
C283 C282 1.395 . S
C283 H309 0.929 . S
C284 C282 1.320 . S
C284 C285 1.405 . S
C284 H310 0.930 . S
C285 C280 1.479 . S
C285 C284 1.405 . S
C285 H311 0.931 . S
U286 O287 2.454 . S
U286 O288 2.458 . S
U286 C289 2.984 . S
U286 C290 2.847 . S
U286 C303 2.882 . S
U286 O304 2.441 . S
U286 O305 2.420 . S
U286 O306 2.455 . S
U286 O307 2.449 . S
O287 U286 2.454 . S
O287 C289 1.353 . S
O288 U286 2.458 . S
O288 C289 1.286 . S
C289 U286 2.984 . S
C289 O287 1.353 . S
C289 O288 1.286 . S
C289 C291 1.363 . S
C290 C280 1.465 . S
C290 U286 2.847 . S
C290 O304 1.249 . S
C290 O305 1.202 . S
C291 C289 1.363 . S
C291 C293 1.408 . S
C291 C296 1.342 . S
C292 C293 1.310 . S
C292 C295 1.461 . S
C292 H312 0.932 . S
C293 C291 1.408 . S
C293 C292 1.310 . S
C293 H313 0.930 . S
C294 C295 1.474 . S
C294 C296 1.285 . S
C294 H314 0.929 . S
C295 C292 1.461 . S
C295 C294 1.474 . S
C296 C291 1.342 . S
C296 C294 1.285 . S
C296 H315 0.930 . S
C297 C300 1.424 . S
C297 C302 1.245 . S
C297 C303 1.428 . S
C298 C301 1.260 . S
C298 C302 1.477 . S
C298 H316 0.932 . S
C299 C300 1.384 . S
C299 C301 1.479 . S
C299 H317 0.929 . S
C300 C297 1.424 . S
C300 C299 1.384 . S
C300 H318 0.928 . S
C301 C298 1.260 . S
C301 C299 1.479 . S
C302 C297 1.245 . S
C302 C298 1.477 . S
C302 H319 0.932 . S
C303 U286 2.882 . S
C303 C297 1.428 . S
C303 O306 1.301 . S
C303 O307 1.282 . S
O304 U286 2.441 . S
O304 C290 1.249 . S
O305 U286 2.420 . S
O305 C290 1.202 . S
O306 U286 2.455 . S
O306 C303 1.301 . S
O307 U286 2.449 . S
O307 C303 1.282 . S
H308 C281 0.931 . S
H309 C283 0.929 . S
H310 C284 0.930 . S
H311 C285 0.931 . S
H312 C292 0.932 . S
H313 C293 0.930 . S
H314 C294 0.929 . S
H315 C296 0.930 . S
H316 C298 0.932 . S
H317 C299 0.929 . S
H318 C300 0.928 . S
H319 C302 0.932 . S
H320 C326 0.930 . S
H321 C329 0.931 . S
H322 C331 0.931 . S
H323 C333 0.930 . S
H324 C335 0.930 . S
H325 C337 0.931 . S
C326 H320 0.930 . S
C326 C327 1.380 . S
C326 C328 1.394 1_455 S
C327 C326 1.380 . S
C327 C331 1.382 . S
C328 C326 1.394 1_655 S
C328 C329 1.400 . S
C329 H321 0.931 . S
C329 C328 1.400 . S
C329 C330 1.375 1_655 S
C330 C329 1.375 1_455 S
C330 C331 1.415 . S
C330 C332 1.501 . S
C331 H322 0.931 . S
C331 C327 1.382 . S
C331 C330 1.415 . S
C332 C330 1.501 . S
C332 C333 1.384 . S
C332 C337 1.408 1_455 S
C333 H323 0.930 . S
C333 C332 1.384 . S
C333 C334 1.389 . S
C334 C333 1.389 . S
C334 C335 1.405 . S
C335 H324 0.930 . S
C335 C334 1.405 . S
C335 C336 1.364 1_455 S
C336 C335 1.364 1_655 S
C336 C337 1.400 . S
C337 H325 0.931 . S
C337 C332 1.408 1_655 S
C337 C336 1.400 . S
H338 C344 0.930 . S
H339 C347 0.931 . S
H340 C349 0.931 . S
H341 C351 0.930 . S
H342 C353 0.930 . S
H343 C355 0.931 . S
C344 H338 0.930 . S
C344 C345 1.380 1_455 S
C344 C346 1.394 . S
C345 C344 1.380 1_655 S
C345 C349 1.382 . S
C346 C344 1.394 . S
C346 C347 1.400 . S
C347 H339 0.931 . S
C347 C346 1.400 . S
C347 C348 1.375 . S
C348 C347 1.375 . S
C348 C349 1.415 1_455 S
C348 C350 1.501 . S
C349 H340 0.931 . S
C349 C345 1.382 . S
C349 C348 1.415 1_655 S
C350 C348 1.501 . S
C350 C351 1.384 1_455 S
C350 C355 1.408 . S
C351 H341 0.930 . S
C351 C350 1.384 1_655 S
C351 C352 1.389 . S
C352 C351 1.389 . S
C352 C353 1.405 1_655 S
C353 H342 0.930 . S
C353 C352 1.405 1_455 S
C353 C354 1.364 . S
C354 C353 1.364 . S
C354 C355 1.400 . S
C355 H343 0.931 . S
C355 C350 1.408 . S
C355 C354 1.400 . S
H356 C362 0.930 . S
H357 C365 0.931 . S
H358 C367 0.931 . S
H359 C369 0.930 . S
H360 C371 0.930 . S
H361 C373 0.931 . S
C362 H356 0.930 . S
C362 C363 1.380 . S
C362 C364 1.394 . S
C363 C362 1.380 . S
C363 C367 1.382 . S
C364 C362 1.394 . S
C364 C365 1.400 . S
C365 H357 0.931 . S
C365 C364 1.400 . S
C365 C366 1.375 . S
C366 C365 1.375 . S
C366 C367 1.415 . S
C366 C368 1.501 1_545 S
C367 H358 0.931 . S
C367 C363 1.382 . S
C367 C366 1.415 . S
C368 C366 1.501 1_565 S
C368 C369 1.384 . S
C368 C373 1.408 . S
C369 H359 0.930 . S
C369 C368 1.384 . S
C369 C370 1.389 . S
C370 C369 1.389 . S
C370 C371 1.405 . S
C371 H360 0.930 . S
C371 C370 1.405 . S
C371 C372 1.364 . S
C372 C371 1.364 . S
C372 C373 1.400 . S
C373 H361 0.931 . S
C373 C368 1.408 . S
C373 C372 1.400 . S
H374 C380 0.930 . S
H375 C383 0.931 . S
H376 C385 0.931 . S
H377 C387 0.930 . S
H378 C389 0.930 . S
H379 C391 0.931 . S
C380 H374 0.930 . S
C380 C381 1.380 . S
C380 C382 1.394 . S
C381 C380 1.380 . S
C381 C385 1.382 . S
C382 C380 1.394 . S
C382 C383 1.400 . S
C383 H375 0.931 . S
C383 C382 1.400 . S
C383 C384 1.375 . S
C384 C383 1.375 . S
C384 C385 1.415 . S
C384 C386 1.501 1_554 S
C385 H376 0.931 . S
C385 C381 1.382 . S
C385 C384 1.415 . S
C386 C384 1.501 1_556 S
C386 C387 1.384 . S
C386 C391 1.408 . S
C387 H377 0.930 . S
C387 C386 1.384 . S
C387 C388 1.389 . S
C388 C387 1.389 . S
C388 C389 1.405 . S
C389 H378 0.930 . S
C389 C388 1.405 . S
C389 C390 1.364 . S
C390 C389 1.364 . S
C390 C391 1.400 . S
C391 H379 0.931 . S
C391 C386 1.408 . S
C391 C390 1.400 . S
H392 C398 0.930 . S
H393 C401 0.931 . S
H394 C403 0.931 . S
H395 C405 0.930 . S
H396 C407 0.930 . S
H397 C409 0.931 . S
C398 H392 0.930 . S
C398 C399 1.380 . S
C398 C400 1.394 . S
C399 C398 1.380 . S
C399 C403 1.382 . S
C400 C398 1.394 . S
C400 C401 1.400 . S
C401 H393 0.931 . S
C401 C400 1.400 . S
C401 C402 1.375 . S
C402 C401 1.375 . S
C402 C403 1.415 . S
C402 C404 1.501 1_545 S
C403 H394 0.931 . S
C403 C399 1.382 . S
C403 C402 1.415 . S
C404 C402 1.501 1_565 S
C404 C405 1.384 . S
C404 C409 1.408 . S
C405 H395 0.930 . S
C405 C404 1.384 . S
C405 C406 1.389 . S
C406 C405 1.389 . S
C406 C407 1.405 . S
C407 H396 0.930 . S
C407 C406 1.405 . S
C407 C408 1.364 . S
C408 C407 1.364 . S
C408 C409 1.400 . S
C409 H397 0.931 . S
C409 C404 1.408 . S
C409 C408 1.400 . S
H410 C416 0.930 . S
H411 C419 0.931 . S
H412 C421 0.931 . S
H413 C423 0.930 . S
H414 C425 0.930 . S
H415 C427 0.931 . S
C416 H410 0.930 . S
C416 C417 1.380 . S
C416 C418 1.394 . S
C417 C416 1.380 . S
C417 C421 1.382 . S
C418 C416 1.394 . S
C418 C419 1.400 . S
C419 H411 0.931 . S
C419 C418 1.400 . S
C419 C420 1.375 . S
C420 C419 1.375 . S
C420 C421 1.415 . S
C420 C422 1.501 1_554 S
C421 H412 0.931 . S
C421 C417 1.382 . S
C421 C420 1.415 . S
C422 C420 1.501 1_556 S
C422 C423 1.384 . S
C422 C427 1.408 . S
C423 H413 0.930 . S
C423 C422 1.384 . S
C423 C424 1.389 . S
C424 C423 1.389 . S
C424 C425 1.405 . S
C425 H414 0.930 . S
C425 C424 1.405 . S
C425 C426 1.364 . S
C426 C425 1.364 . S
C426 C427 1.400 . S
C427 H415 0.931 . S
C427 C422 1.408 . S
C427 C426 1.400 . S
H428 C436 0.950 . S
H429 C441 0.950 . S
H430 C438 0.950 . S
H431 C440 0.950 . S
H432 C442 0.950 . S
H433 C444 0.950 . S
H434 C446 0.950 . S
H435 C447 0.950 . S
C436 H428 0.950 . S
C436 C437 1.386 . S
C436 C438 1.391 . S
C437 C436 1.386 . S
C437 C441 1.393 . S
C438 H430 0.950 . S
C438 C436 1.391 . S
C438 C439 1.400 . S
C439 C438 1.400 . S
C439 C440 1.398 . S
C439 C445 1.491 . S
C440 H431 0.950 . S
C440 C439 1.398 . S
C440 C441 1.391 . S
C441 H429 0.950 . S
C441 C437 1.393 . S
C441 C440 1.391 . S
C442 H432 0.950 . S
C442 C443 1.386 . S
C442 C444 1.391 . S
C443 C442 1.386 . S
C443 C447 1.393 . S
C444 H433 0.950 . S
C444 C442 1.391 . S
C444 C445 1.400 . S
C445 C439 1.491 . S
C445 C444 1.400 . S
C445 C446 1.398 . S
C446 H434 0.950 . S
C446 C445 1.398 . S
C446 C447 1.391 . S
C447 H435 0.950 . S
C447 C443 1.393 . S
C447 C446 1.391 . S
H448 C456 0.950 . S
H449 C461 0.950 . S
H450 C458 0.950 . S
H451 C460 0.950 . S
H452 C462 0.950 . S
H453 C464 0.950 . S
H454 C466 0.950 . S
H455 C467 0.950 . S
C456 H448 0.950 . S
C456 C457 1.386 . S
C456 C458 1.391 . S
C457 C456 1.386 . S
C457 C461 1.393 . S
C458 H450 0.950 . S
C458 C456 1.391 . S
C458 C459 1.400 . S
C459 C458 1.400 . S
C459 C460 1.398 . S
C459 C465 1.491 . S
C460 H451 0.950 . S
C460 C459 1.398 . S
C460 C461 1.391 . S
C461 H449 0.950 . S
C461 C457 1.393 . S
C461 C460 1.391 . S
C462 H452 0.950 . S
C462 C463 1.386 . S
C462 C464 1.391 . S
C463 C462 1.386 . S
C463 C467 1.393 . S
C464 H453 0.950 . S
C464 C462 1.391 . S
C464 C465 1.400 . S
C465 C459 1.491 . S
C465 C464 1.400 . S
C465 C466 1.398 . S
C466 H454 0.950 . S
C466 C465 1.398 . S
C466 C467 1.391 . S
C467 H455 0.950 . S
C467 C463 1.393 . S
C467 C466 1.391 . S
H468 C476 0.950 . S
H469 C481 0.950 . S
H470 C478 0.950 . S
H471 C480 0.950 . S
H472 C482 0.950 . S
H473 C484 0.950 . S
H474 C486 0.950 . S
H475 C487 0.950 . S
C476 H468 0.950 . S
C476 C477 1.386 . S
C476 C478 1.391 . S
C477 C476 1.386 . S
C477 C481 1.393 . S
C478 H470 0.950 . S
C478 C476 1.391 . S
C478 C479 1.400 . S
C479 C478 1.400 . S
C479 C480 1.398 . S
C479 C485 1.491 . S
C480 H471 0.950 . S
C480 C479 1.398 . S
C480 C481 1.391 . S
C481 H469 0.950 . S
C481 C477 1.393 . S
C481 C480 1.391 . S
C482 H472 0.950 . S
C482 C483 1.386 . S
C482 C484 1.391 . S
C483 C482 1.386 . S
C483 C487 1.393 . S
C484 H473 0.950 . S
C484 C482 1.391 . S
C484 C485 1.400 . S
C485 C479 1.491 . S
C485 C484 1.400 . S
C485 C486 1.398 . S
C486 H474 0.950 . S
C486 C485 1.398 . S
C486 C487 1.391 . S
C487 H475 0.950 . S
C487 C483 1.393 . S
C487 C486 1.391 . S
H488 C496 0.950 . S
H489 C501 0.950 . S
H490 C498 0.950 . S
H491 C500 0.950 . S
H492 C502 0.950 . S
H493 C504 0.950 . S
H494 C506 0.950 . S
H495 C507 0.950 . S
C496 H488 0.950 . S
C496 C497 1.386 . S
C496 C498 1.391 . S
C497 C496 1.386 . S
C497 C501 1.393 . S
C498 H490 0.950 . S
C498 C496 1.391 . S
C498 C499 1.400 . S
C499 C498 1.400 . S
C499 C500 1.398 . S
C499 C505 1.491 . S
C500 H491 0.950 . S
C500 C499 1.398 . S
C500 C501 1.391 . S
C501 H489 0.950 . S
C501 C497 1.393 . S
C501 C500 1.391 . S
C502 H492 0.950 . S
C502 C503 1.386 . S
C502 C504 1.391 . S
C503 C502 1.386 . S
C503 C507 1.393 . S
C504 H493 0.950 . S
C504 C502 1.391 . S
C504 C505 1.400 . S
C505 C499 1.491 . S
C505 C504 1.400 . S
C505 C506 1.398 . S
C506 H494 0.950 . S
C506 C505 1.398 . S
C506 C507 1.391 . S
C507 H495 0.950 . S
C507 C503 1.393 . S
C507 C506 1.391 . S
H508 C516 0.950 . S
H509 C521 0.950 . S
H510 C518 0.950 . S
H511 C520 0.950 . S
H512 C522 0.950 . S
H513 C524 0.950 . S
H514 C526 0.950 . S
H515 C527 0.950 . S
C516 H508 0.950 . S
C516 C517 1.386 . S
C516 C518 1.391 . S
C517 C516 1.386 . S
C517 C521 1.393 . S
C518 H510 0.950 . S
C518 C516 1.391 . S
C518 C519 1.400 . S
C519 C518 1.400 . S
C519 C520 1.398 . S
C519 C525 1.491 . S
C520 H511 0.950 . S
C520 C519 1.398 . S
C520 C521 1.391 . S
C521 H509 0.950 . S
C521 C517 1.393 . S
C521 C520 1.391 . S
C522 H512 0.950 . S
C522 C523 1.386 . S
C522 C524 1.391 . S
C523 C522 1.386 . S
C523 C527 1.393 . S
C524 H513 0.950 . S
C524 C522 1.391 . S
C524 C525 1.400 . S
C525 C519 1.491 . S
C525 C524 1.400 . S
C525 C526 1.398 . S
C526 H514 0.950 . S
C526 C525 1.398 . S
C526 C527 1.391 . S
C527 H515 0.950 . S
C527 C523 1.393 . S
C527 C526 1.391 . S
H528 C536 0.950 . S
H529 C541 0.950 . S
H530 C538 0.950 . S
H531 C540 0.950 . S
H532 C542 0.950 . S
H533 C544 0.950 . S
H534 C546 0.950 . S
H535 C547 0.950 . S
C536 H528 0.950 . S
C536 C537 1.386 . S
C536 C538 1.391 . S
C537 C536 1.386 . S
C537 C541 1.393 . S
C538 H530 0.950 . S
C538 C536 1.391 . S
C538 C539 1.400 . S
C539 C538 1.400 . S
C539 C540 1.398 . S
C539 C545 1.491 . S
C540 H531 0.950 . S
C540 C539 1.398 . S
C540 C541 1.391 . S
C541 H529 0.950 . S
C541 C537 1.393 . S
C541 C540 1.391 . S
C542 H532 0.950 . S
C542 C543 1.386 . S
C542 C544 1.391 . S
C543 C542 1.386 . S
C543 C547 1.393 . S
C544 H533 0.950 . S
C544 C542 1.391 . S
C544 C545 1.400 . S
C545 C539 1.491 . S
C545 C544 1.400 . S
C545 C546 1.398 . S
C546 H534 0.950 . S
C546 C545 1.398 . S
C546 C547 1.391 . S
C547 H535 0.950 . S
C547 C543 1.393 . S
C547 C546 1.391 . S
H548 C556 0.950 . S
H549 C561 0.950 . S
H550 C558 0.950 . S
H551 C560 0.950 . S
H552 C562 0.950 . S
H553 C564 0.950 . S
H554 C566 0.950 . S
H555 C567 0.950 . S
C556 H548 0.950 . S
C556 C557 1.386 . S
C556 C558 1.391 . S
C557 C556 1.386 . S
C557 C561 1.393 . S
C558 H550 0.950 . S
C558 C556 1.391 . S
C558 C559 1.400 . S
C559 C558 1.400 . S
C559 C560 1.398 . S
C559 C565 1.491 . S
C560 H551 0.950 . S
C560 C559 1.398 . S
C560 C561 1.391 . S
C561 H549 0.950 . S
C561 C557 1.393 . S
C561 C560 1.391 . S
C562 H552 0.950 . S
C562 C563 1.386 . S
C562 C564 1.391 . S
C563 C562 1.386 . S
C563 C567 1.393 . S
C564 H553 0.950 . S
C564 C562 1.391 . S
C564 C565 1.400 . S
C565 C559 1.491 . S
C565 C564 1.400 . S
C565 C566 1.398 . S
C566 H554 0.950 . S
C566 C565 1.398 . S
C566 C567 1.391 . S
C567 H555 0.950 . S
C567 C563 1.393 . S
C567 C566 1.391 . S
H568 C576 0.950 . S
H569 C581 0.950 . S
H570 C578 0.950 . S
H571 C580 0.950 . S
H572 C582 0.950 . S
H573 C584 0.950 . S
H574 C586 0.950 . S
H575 C587 0.950 . S
C576 H568 0.950 . S
C576 C577 1.386 . S
C576 C578 1.391 . S
C577 C576 1.386 . S
C577 C581 1.393 . S
C578 H570 0.950 . S
C578 C576 1.391 . S
C578 C579 1.400 . S
C579 C578 1.400 . S
C579 C580 1.398 . S
C579 C585 1.491 . S
C580 H571 0.950 . S
C580 C579 1.398 . S
C580 C581 1.391 . S
C581 H569 0.950 . S
C581 C577 1.393 . S
C581 C580 1.391 . S
C582 H572 0.950 . S
C582 C583 1.386 . S
C582 C584 1.391 . S
C583 C582 1.386 . S
C583 C587 1.393 . S
C584 H573 0.950 . S
C584 C582 1.391 . S
C584 C585 1.400 . S
C585 C579 1.491 . S
C585 C584 1.400 . S
C585 C586 1.398 . S
C586 H574 0.950 . S
C586 C585 1.398 . S
C586 C587 1.391 . S
C587 H575 0.950 . S
C587 C583 1.393 . S
C587 C586 1.391 . S
H588 C596 0.950 . S
H589 C601 0.950 . S
H590 C598 0.950 . S
H591 C600 0.950 . S
H592 C602 0.950 . S
H593 C604 0.950 . S
H594 C606 0.950 . S
H595 C607 0.950 . S
C596 H588 0.950 . S
C596 C597 1.386 . S
C596 C598 1.391 . S
C597 C596 1.386 . S
C597 C601 1.393 . S
C598 H590 0.950 . S
C598 C596 1.391 . S
C598 C599 1.400 . S
C599 C598 1.400 . S
C599 C600 1.398 . S
C599 C605 1.491 . S
C600 H591 0.950 . S
C600 C599 1.398 . S
C600 C601 1.391 . S
C601 H589 0.950 . S
C601 C597 1.393 . S
C601 C600 1.391 . S
C602 H592 0.950 . S
C602 C603 1.386 . S
C602 C604 1.391 . S
C603 C602 1.386 . S
C603 C607 1.393 . S
C604 H593 0.950 . S
C604 C602 1.391 . S
C604 C605 1.400 . S
C605 C599 1.491 . S
C605 C604 1.400 . S
C605 C606 1.398 . S
C606 H594 0.950 . S
C606 C605 1.398 . S
C606 C607 1.391 . S
C607 H595 0.950 . S
C607 C603 1.393 . S
C607 C606 1.391 . S
H608 C616 0.950 . S
H609 C621 0.950 . S
H610 C618 0.950 . S
H611 C620 0.950 . S
H612 C622 0.950 . S
H613 C624 0.950 . S
H614 C626 0.950 . S
H615 C627 0.950 . S
C616 H608 0.950 . S
C616 C617 1.386 . S
C616 C618 1.391 . S
C617 C616 1.386 . S
C617 C621 1.393 . S
C618 H610 0.950 . S
C618 C616 1.391 . S
C618 C619 1.400 . S
C619 C618 1.400 . S
C619 C620 1.398 . S
C619 C625 1.491 . S
C620 H611 0.950 . S
C620 C619 1.398 . S
C620 C621 1.391 . S
C621 H609 0.950 . S
C621 C617 1.393 . S
C621 C620 1.391 . S
C622 H612 0.950 . S
C622 C623 1.386 . S
C622 C624 1.391 . S
C623 C622 1.386 . S
C623 C627 1.393 . S
C624 H613 0.950 . S
C624 C622 1.391 . S
C624 C625 1.400 . S
C625 C619 1.491 . S
C625 C624 1.400 . S
C625 C626 1.398 . S
C626 H614 0.950 . S
C626 C625 1.398 . S
C626 C627 1.391 . S
C627 H615 0.950 . S
C627 C623 1.393 . S
C627 C626 1.391 . S
H628 C636 0.950 . S
H629 C641 0.950 . S
H630 C638 0.950 . S
H631 C640 0.950 . S
H632 C642 0.950 . S
H633 C644 0.950 . S
H634 C646 0.950 . S
H635 C647 0.950 . S
C636 H628 0.950 . S
C636 C637 1.386 . S
C636 C638 1.391 . S
C637 C636 1.386 . S
C637 C641 1.393 . S
C638 H630 0.950 . S
C638 C636 1.391 . S
C638 C639 1.400 . S
C639 C638 1.400 . S
C639 C640 1.398 . S
C639 C645 1.491 . S
C640 H631 0.950 . S
C640 C639 1.398 . S
C640 C641 1.391 . S
C641 H629 0.950 . S
C641 C637 1.393 . S
C641 C640 1.391 . S
C642 H632 0.950 . S
C642 C643 1.386 . S
C642 C644 1.391 . S
C643 C642 1.386 . S
C643 C647 1.393 . S
C644 H633 0.950 . S
C644 C642 1.391 . S
C644 C645 1.400 . S
C645 C639 1.491 . S
C645 C644 1.400 . S
C645 C646 1.398 . S
C646 H634 0.950 . S
C646 C645 1.398 . S
C646 C647 1.391 . S
C647 H635 0.950 . S
C647 C643 1.393 . S
C647 C646 1.391 . S
H648 C656 0.950 . S
H649 C661 0.950 . S
H650 C658 0.950 . S
H651 C660 0.950 . S
H652 C662 0.950 . S
H653 C664 0.950 . S
H654 C666 0.950 . S
H655 C667 0.950 . S
C656 H648 0.950 . S
C656 C657 1.386 . S
C656 C658 1.391 . S
C657 C656 1.386 . S
C657 C661 1.393 . S
C658 H650 0.950 . S
C658 C656 1.391 . S
C658 C659 1.400 . S
C659 C658 1.400 . S
C659 C660 1.398 . S
C659 C665 1.491 . S
C660 H651 0.950 . S
C660 C659 1.398 . S
C660 C661 1.391 . S
C661 H649 0.950 . S
C661 C657 1.393 . S
C661 C660 1.391 . S
C662 H652 0.950 . S
C662 C663 1.386 . S
C662 C664 1.391 . S
C663 C662 1.386 . S
C663 C667 1.393 . S
C664 H653 0.950 . S
C664 C662 1.391 . S
C664 C665 1.400 . S
C665 C659 1.491 . S
C665 C664 1.400 . S
C665 C666 1.398 . S
C666 H654 0.950 . S
C666 C665 1.398 . S
C666 C667 1.391 . S
C667 H655 0.950 . S
C667 C663 1.393 . S
C667 C666 1.391 . S
H668 C676 0.950 . S
H669 C681 0.950 . S
H670 C678 0.950 . S
H671 C680 0.950 . S
H672 C682 0.950 . S
H673 C684 0.950 . S
H674 C686 0.950 . S
H675 C687 0.950 . S
C676 H668 0.950 . S
C676 C677 1.386 . S
C676 C678 1.391 . S
C677 C676 1.386 . S
C677 C681 1.393 . S
C678 H670 0.950 . S
C678 C676 1.391 . S
C678 C679 1.400 . S
C679 C678 1.400 . S
C679 C680 1.398 . S
C679 C685 1.491 . S
C680 H671 0.950 . S
C680 C679 1.398 . S
C680 C681 1.391 . S
C681 H669 0.950 . S
C681 C677 1.393 . S
C681 C680 1.391 . S
C682 H672 0.950 . S
C682 C683 1.386 . S
C682 C684 1.391 . S
C683 C682 1.386 . S
C683 C687 1.393 . S
C684 H673 0.950 . S
C684 C682 1.391 . S
C684 C685 1.400 . S
C685 C679 1.491 . S
C685 C684 1.400 . S
C685 C686 1.398 . S
C686 H674 0.950 . S
C686 C685 1.398 . S
C686 C687 1.391 . S
C687 H675 0.950 . S
C687 C683 1.393 . S
C687 C686 1.391 . S
H688 C696 0.950 . S
H689 C701 0.950 . S
H690 C698 0.950 . S
H691 C700 0.950 . S
H692 C702 0.950 . S
H693 C704 0.950 . S
H694 C706 0.950 . S
H695 C707 0.950 . S
C696 H688 0.950 . S
C696 C697 1.386 . S
C696 C698 1.391 . S
C697 C696 1.386 . S
C697 C701 1.393 . S
C698 H690 0.950 . S
C698 C696 1.391 . S
C698 C699 1.400 . S
C699 C698 1.400 . S
C699 C700 1.398 . S
C699 C705 1.491 . S
C700 H691 0.950 . S
C700 C699 1.398 . S
C700 C701 1.391 . S
C701 H689 0.950 . S
C701 C697 1.393 . S
C701 C700 1.391 . S
C702 H692 0.950 . S
C702 C703 1.386 . S
C702 C704 1.391 . S
C703 C702 1.386 . S
C703 C707 1.393 . S
C704 H693 0.950 . S
C704 C702 1.391 . S
C704 C705 1.400 . S
C705 C699 1.491 . S
C705 C704 1.400 . S
C705 C706 1.398 . S
C706 H694 0.950 . S
C706 C705 1.398 . S
C706 C707 1.391 . S
C707 H695 0.950 . S
C707 C703 1.393 . S
C707 C706 1.391 . S
H708 C716 0.950 . S
H709 C721 0.950 . S
H710 C718 0.950 . S
H711 C720 0.950 . S
H712 C722 0.950 . S
H713 C724 0.950 . S
H714 C726 0.950 . S
H715 C727 0.950 . S
C716 H708 0.950 . S
C716 C717 1.386 . S
C716 C718 1.391 . S
C717 C716 1.386 . S
C717 C721 1.393 . S
C718 H710 0.950 . S
C718 C716 1.391 . S
C718 C719 1.400 . S
C719 C718 1.400 . S
C719 C720 1.398 . S
C719 C725 1.491 . S
C720 H711 0.950 . S
C720 C719 1.398 . S
C720 C721 1.391 . S
C721 H709 0.950 . S
C721 C717 1.393 . S
C721 C720 1.391 . S
C722 H712 0.950 . S
C722 C723 1.386 . S
C722 C724 1.391 . S
C723 C722 1.386 . S
C723 C727 1.393 . S
C724 H713 0.950 . S
C724 C722 1.391 . S
C724 C725 1.400 . S
C725 C719 1.491 . S
C725 C724 1.400 . S
C725 C726 1.398 . S
C726 H714 0.950 . S
C726 C725 1.398 . S
C726 C727 1.391 . S
C727 H715 0.950 . S
C727 C723 1.393 . S
C727 C726 1.391 . S
H728 C736 0.950 . S
H729 C741 0.950 . S
H730 C738 0.950 . S
H731 C740 0.950 . S
H732 C742 0.950 . S
H733 C744 0.950 . S
H734 C746 0.950 . S
H735 C747 0.950 . S
C736 H728 0.950 . S
C736 C737 1.386 . S
C736 C738 1.391 . S
C737 C736 1.386 . S
C737 C741 1.393 . S
C738 H730 0.950 . S
C738 C736 1.391 . S
C738 C739 1.400 . S
C739 C738 1.400 . S
C739 C740 1.398 . S
C739 C745 1.491 . S
C740 H731 0.950 . S
C740 C739 1.398 . S
C740 C741 1.391 . S
C741 H729 0.950 . S
C741 C737 1.393 . S
C741 C740 1.391 . S
C742 H732 0.950 . S
C742 C743 1.386 . S
C742 C744 1.391 . S
C743 C742 1.386 . S
C743 C747 1.393 . S
C744 H733 0.950 . S
C744 C742 1.391 . S
C744 C745 1.400 . S
C745 C739 1.491 . S
C745 C744 1.400 . S
C745 C746 1.398 . S
C746 H734 0.950 . S
C746 C745 1.398 . S
C746 C747 1.391 . S
C747 H735 0.950 . S
C747 C743 1.393 . S
C747 C746 1.391 . S
H748 C756 0.950 . S
H749 C761 0.950 . S
H750 C758 0.950 . S
H751 C760 0.950 . S
H752 C762 0.950 . S
H753 C764 0.950 . S
H754 C766 0.950 . S
H755 C767 0.950 . S
C756 H748 0.950 . S
C756 C757 1.386 . S
C756 C758 1.391 . S
C757 C756 1.386 . S
C757 C761 1.393 . S
C758 H750 0.950 . S
C758 C756 1.391 . S
C758 C759 1.400 . S
C759 C758 1.400 . S
C759 C760 1.398 . S
C759 C765 1.491 . S
C760 H751 0.950 . S
C760 C759 1.398 . S
C760 C761 1.391 . S
C761 H749 0.950 . S
C761 C757 1.393 . S
C761 C760 1.391 . S
C762 H752 0.950 . S
C762 C763 1.386 . S
C762 C764 1.391 . S
C763 C762 1.386 . S
C763 C767 1.393 . S
C764 H753 0.950 . S
C764 C762 1.391 . S
C764 C765 1.400 . S
C765 C759 1.491 . S
C765 C764 1.400 . S
C765 C766 1.398 . S
C766 H754 0.950 . S
C766 C765 1.398 . S
C766 C767 1.391 . S
C767 H755 0.950 . S
C767 C763 1.393 . S
C767 C766 1.391 . S
H768 C776 0.950 . S
H769 C781 0.950 . S
H770 C778 0.950 . S
H771 C780 0.950 . S
H772 C782 0.950 . S
H773 C784 0.950 . S
H774 C786 0.950 . S
H775 C787 0.950 . S
C776 H768 0.950 . S
C776 C777 1.386 . S
C776 C778 1.391 . S
C777 C776 1.386 . S
C777 C781 1.393 . S
C778 H770 0.950 . S
C778 C776 1.391 . S
C778 C779 1.400 . S
C779 C778 1.400 . S
C779 C780 1.398 . S
C779 C785 1.491 . S
C780 H771 0.950 . S
C780 C779 1.398 . S
C780 C781 1.391 . S
C781 H769 0.950 . S
C781 C777 1.393 . S
C781 C780 1.391 . S
C782 H772 0.950 . S
C782 C783 1.386 . S
C782 C784 1.391 . S
C783 C782 1.386 . S
C783 C787 1.393 . S
C784 H773 0.950 . S
C784 C782 1.391 . S
C784 C785 1.400 . S
C785 C779 1.491 . S
C785 C784 1.400 . S
C785 C786 1.398 . S
C786 H774 0.950 . S
C786 C785 1.398 . S
C786 C787 1.391 . S
C787 H775 0.950 . S
C787 C783 1.393 . S
C787 C786 1.391 . S
H788 C796 0.950 . S
H789 C801 0.950 . S
H790 C798 0.950 . S
H791 C800 0.950 . S
H792 C802 0.950 . S
H793 C804 0.950 . S
H794 C806 0.950 . S
H795 C807 0.950 . S
C796 H788 0.950 . S
C796 C797 1.386 . S
C796 C798 1.391 . S
C797 C796 1.386 . S
C797 C801 1.393 . S
C798 H790 0.950 . S
C798 C796 1.391 . S
C798 C799 1.400 . S
C799 C798 1.400 . S
C799 C800 1.398 . S
C799 C805 1.491 . S
C800 H791 0.950 . S
C800 C799 1.398 . S
C800 C801 1.391 . S
C801 H789 0.950 . S
C801 C797 1.393 . S
C801 C800 1.391 . S
C802 H792 0.950 . S
C802 C803 1.386 . S
C802 C804 1.391 . S
C803 C802 1.386 . S
C803 C807 1.393 . S
C804 H793 0.950 . S
C804 C802 1.391 . S
C804 C805 1.400 . S
C805 C799 1.491 . S
C805 C804 1.400 . S
C805 C806 1.398 . S
C806 H794 0.950 . S
C806 C805 1.398 . S
C806 C807 1.391 . S
C807 H795 0.950 . S
C807 C803 1.393 . S
C807 C806 1.391 . S
H808 C816 0.950 . S
H809 C821 0.950 . S
H810 C818 0.950 . S
H811 C820 0.950 . S
H812 C822 0.950 . S
H813 C824 0.950 . S
H814 C826 0.950 . S
H815 C827 0.950 . S
C816 H808 0.950 . S
C816 C817 1.386 . S
C816 C818 1.391 . S
C817 C816 1.386 . S
C817 C821 1.393 . S
C818 H810 0.950 . S
C818 C816 1.391 . S
C818 C819 1.400 . S
C819 C818 1.400 . S
C819 C820 1.398 . S
C819 C825 1.491 . S
C820 H811 0.950 . S
C820 C819 1.398 . S
C820 C821 1.391 . S
C821 H809 0.950 . S
C821 C817 1.393 . S
C821 C820 1.391 . S
C822 H812 0.950 . S
C822 C823 1.386 . S
C822 C824 1.391 . S
C823 C822 1.386 . S
C823 C827 1.393 . S
C824 H813 0.950 . S
C824 C822 1.391 . S
C824 C825 1.400 . S
C825 C819 1.491 . S
C825 C824 1.400 . S
C825 C826 1.398 . S
C826 H814 0.950 . S
C826 C825 1.398 . S
C826 C827 1.391 . S
C827 H815 0.950 . S
C827 C823 1.393 . S
C827 C826 1.391 . S
H828 C836 0.950 . S
H829 C841 0.950 . S
H830 C838 0.950 . S
H831 C840 0.950 . S
H832 C842 0.950 . S
H833 C844 0.950 . S
H834 C846 0.950 . S
H835 C847 0.950 . S
C836 H828 0.950 . S
C836 C837 1.386 . S
C836 C838 1.391 . S
C837 C836 1.386 . S
C837 C841 1.393 . S
C838 H830 0.950 . S
C838 C836 1.391 . S
C838 C839 1.400 . S
C839 C838 1.400 . S
C839 C840 1.398 . S
C839 C845 1.491 . S
C840 H831 0.950 . S
C840 C839 1.398 . S
C840 C841 1.391 . S
C841 H829 0.950 . S
C841 C837 1.393 . S
C841 C840 1.391 . S
C842 H832 0.950 . S
C842 C843 1.386 . S
C842 C844 1.391 . S
C843 C842 1.386 . S
C843 C847 1.393 . S
C844 H833 0.950 . S
C844 C842 1.391 . S
C844 C845 1.400 . S
C845 C839 1.491 . S
C845 C844 1.400 . S
C845 C846 1.398 . S
C846 H834 0.950 . S
C846 C845 1.398 . S
C846 C847 1.391 . S
C847 H835 0.950 . S
C847 C843 1.393 . S
C847 C846 1.391 . S
H848 C856 0.950 . S
H849 C861 0.950 . S
H850 C858 0.950 . S
H851 C860 0.950 . S
H852 C862 0.950 . S
H853 C864 0.950 . S
H854 C866 0.950 . S
H855 C867 0.950 . S
C856 H848 0.950 . S
C856 C857 1.386 . S
C856 C858 1.391 . S
C857 C856 1.386 . S
C857 C861 1.393 . S
C858 H850 0.950 . S
C858 C856 1.391 . S
C858 C859 1.400 . S
C859 C858 1.400 . S
C859 C860 1.398 . S
C859 C865 1.491 . S
C860 H851 0.950 . S
C860 C859 1.398 . S
C860 C861 1.391 . S
C861 H849 0.950 . S
C861 C857 1.393 . S
C861 C860 1.391 . S
C862 H852 0.950 . S
C862 C863 1.386 . S
C862 C864 1.391 . S
C863 C862 1.386 . S
C863 C867 1.393 . S
C864 H853 0.950 . S
C864 C862 1.391 . S
C864 C865 1.400 . S
C865 C859 1.491 . S
C865 C864 1.400 . S
C865 C866 1.398 . S
C866 H854 0.950 . S
C866 C865 1.398 . S
C866 C867 1.391 . S
C867 H855 0.950 . S
C867 C863 1.393 . S
C867 C866 1.391 . S
H868 C876 0.950 . S
H869 C881 0.950 . S
H870 C878 0.950 . S
H871 C880 0.950 . S
H872 C882 0.950 . S
H873 C884 0.950 . S
H874 C886 0.950 . S
H875 C887 0.950 . S
C876 H868 0.950 . S
C876 C877 1.386 . S
C876 C878 1.391 . S
C877 C876 1.386 . S
C877 C881 1.393 . S
C878 H870 0.950 . S
C878 C876 1.391 . S
C878 C879 1.400 . S
C879 C878 1.400 . S
C879 C880 1.398 . S
C879 C885 1.491 . S
C880 H871 0.950 . S
C880 C879 1.398 . S
C880 C881 1.391 . S
C881 H869 0.950 . S
C881 C877 1.393 . S
C881 C880 1.391 . S
C882 H872 0.950 . S
C882 C883 1.386 . S
C882 C884 1.391 . S
C883 C882 1.386 . S
C883 C887 1.393 . S
C884 H873 0.950 . S
C884 C882 1.391 . S
C884 C885 1.400 . S
C885 C879 1.491 . S
C885 C884 1.400 . S
C885 C886 1.398 . S
C886 H874 0.950 . S
C886 C885 1.398 . S
C886 C887 1.391 . S
C887 H875 0.950 . S
C887 C883 1.393 . S
C887 C886 1.391 . S
H888 C896 0.950 . S
H889 C901 0.950 . S
H890 C898 0.950 . S
H891 C900 0.950 . S
H892 C902 0.950 . S
H893 C904 0.950 . S
H894 C906 0.950 . S
H895 C907 0.950 . S
C896 H888 0.950 . S
C896 C897 1.386 . S
C896 C898 1.391 . S
C897 C896 1.386 . S
C897 C901 1.393 . S
C898 H890 0.950 . S
C898 C896 1.391 . S
C898 C899 1.400 . S
C899 C898 1.400 . S
C899 C900 1.398 . S
C899 C905 1.491 . S
C900 H891 0.950 . S
C900 C899 1.398 . S
C900 C901 1.391 . S
C901 H889 0.950 . S
C901 C897 1.393 . S
C901 C900 1.391 . S
C902 H892 0.950 . S
C902 C903 1.386 . S
C902 C904 1.391 . S
C903 C902 1.386 . S
C903 C907 1.393 . S
C904 H893 0.950 . S
C904 C902 1.391 . S
C904 C905 1.400 . S
C905 C899 1.491 . S
C905 C904 1.400 . S
C905 C906 1.398 . S
C906 H894 0.950 . S
C906 C905 1.398 . S
C906 C907 1.391 . S
C907 H895 0.950 . S
C907 C903 1.393 . S
C907 C906 1.391 . S
C443 C327 1.530 . S
C437 C15 1.582 . S
C463 C346 1.529 . S
C457 C55 1.589 . S
C483 C336 1.596 . S
C477 C101 1.599 . S
C503 C352 1.598 . S
C497 C141 1.660 . S
C523 C363 1.515 . S
C517 C2 1.539 . S
C543 C388 1.475 . S
C537 C61 1.517 . S
C557 C95 1.657 . S
C563 C406 1.587 . S
C583 C426 1.476 . S
C577 C135 1.540 . S
C603 C372 1.506 . S
C597 C42 1.526 . S
C617 C82 1.532 . S
C623 C382 1.503 . S
C643 C400 1.589 . S
C637 C122 1.670 . S
C663 C417 1.472 . S
C657 C21 1.515 . S
C677 C162 1.699 . S
C683 C345 1.638 . S
C703 C328 1.596 . S
C697 C221 1.661 . S
C717 C255 1.632 . S
C723 C354 1.562 . S
C737 C282 1.600 . S
C743 C334 1.568 . S
C763 C408 1.609 . S
C757 C181 1.745 . S
C783 C418 1.493 . S
C777 C202 1.566 . S
C803 C364 1.526 . S
C797 C242 1.615 . S
C817 C301 1.545 . S
C823 C381 1.498 . S
C843 C399 1.591 . S
C837 C215 1.706 . S
C863 C424 1.509 . S
C857 C261 1.564 . S
C883 C370 1.560 . S
C877 C295 1.622 . S
C897 C175 1.558 . S
C903 C390 1.468 . S
