# Generated by pormake.
# Topology tsx, (6,3)-cn, num edge types: 1
# Building blocks:
#     Node 0, Type 0, BuildingBlock: LEVNOQ01_clean_sbu_1, # of connection points: 6
#     Node 1, Type 0, BuildingBlock: LEVNOQ01_clean_sbu_1, # of connection points: 6
#     Node 2, Type 1, BuildingBlock: CUQRIR_clean_linker_1, # of connection points: 3
#     Node 3, Type 1, BuildingBlock: CUQRIR_clean_linker_1, # of connection points: 3
#     Node 4, Type 1, BuildingBlock: CUQRIR_clean_linker_1, # of connection points: 3
#     Node 5, Type 1, BuildingBlock: CUQRIR_clean_linker_1, # of connection points: 3
#     Edge 6, Type (0, 1), BuildingBlock: TEMPAE_clean_linker_10, # of connection points: 2
#     Edge 7, Type (0, 1), BuildingBlock: TEMPAE_clean_linker_10, # of connection points: 2
#     Edge 8, Type (0, 1), BuildingBlock: TEMPAE_clean_linker_10, # of connection points: 2
#     Edge 9, Type (0, 1), BuildingBlock: TEMPAE_clean_linker_10, # of connection points: 2
#     Edge 10, Type (0, 1), BuildingBlock: TEMPAE_clean_linker_10, # of connection points: 2
#     Edge 11, Type (0, 1), BuildingBlock: TEMPAE_clean_linker_10, # of connection points: 2
#     Edge 12, Type (0, 1), BuildingBlock: TEMPAE_clean_linker_10, # of connection points: 2
#     Edge 13, Type (0, 1), BuildingBlock: TEMPAE_clean_linker_10, # of connection points: 2
#     Edge 14, Type (0, 1), BuildingBlock: TEMPAE_clean_linker_10, # of connection points: 2
#     Edge 15, Type (0, 1), BuildingBlock: TEMPAE_clean_linker_10, # of connection points: 2
#     Edge 16, Type (0, 1), BuildingBlock: TEMPAE_clean_linker_10, # of connection points: 2
#     Edge 17, Type (0, 1), BuildingBlock: TEMPAE_clean_linker_10, # of connection points: 2
# Relax obj value: 0.161
# Max RMSD: 0.177
# Mean RMSD: 0.163
data_MOF--net-tsx--node1-LEVNOQ01_clean_sbu_1--node2-CUQRIR_clean_linker_1--edge1-TEMPAE_clean_linker_10
_symmetry_space_group_name_H-M    P1
_symmetry_Int_Tables_number       1
_symmetry_cell_setting            triclinic
loop_
_symmetry_equiv_pos_as_xyz
'x, y, z'
_cell_length_a     17.537273
_cell_length_b     21.077509
_cell_length_c     33.731329
_cell_angle_alpha  87.263736
_cell_angle_beta   89.935342
_cell_angle_gamma 90.914015
loop_
_atom_site_label
_atom_site_type_symbol
_atom_site_fract_x
_atom_site_fract_y
_atom_site_fract_z
_atom_type_partial_charge
O0 O 0.1947 0.01795 0.06036 0.0
Mg1 Mg 0.24212 0.04963 0.00456 0.0
O2 O 0.07157 0.03215 0.047 0.0
Mg3 Mg 0.07183 0.04945 -0.02067 0.0
O4 O 0.17277 0.11816 -0.01788 0.0
O5 O 0.2949 0.13689 -0.00401 0.0
O6 O 0.08989 0.06791 0.91035 0.0
O7 O 0.99572 0.14121 -0.01673 0.0
Mg8 Mg 0.95738 0.02698 0.93066 0.0
O9 O 0.96578 0.97961 -0.01618 0.0
O10 O 0.02614 0.98756 0.88845 0.0
O11 O 0.93371 0.12521 0.92773 0.0
O12 O 0.86323 0.97455 0.94368 0.0
C13 C 0.20882 0.94 0.96243 0.0
C14 C 0.12505 0.01669 0.07113 0.0
C15 C 0.22983 0.15744 -0.01635 0.0
C16 C 0.07795 0.02906 0.88322 0.0
C17 C 0.95077 0.16086 0.95562 0.0
C18 C 0.89945 0.95562 -0.02478 0.0
O19 O 0.26243 0.98053 0.96369 0.0
O20 O 0.14122 0.9542 0.97272 0.0
O21 O 0.69733 0.5107 0.55233 0.0
Mg22 Mg 0.73193 0.54496 0.49401 0.0
O23 O 0.57647 0.53636 0.54271 0.0
Mg24 Mg 0.57632 0.54273 0.47539 0.0
O25 O 0.67117 0.62368 0.47587 0.0
O26 O 0.79599 0.62636 0.49016 0.0
O27 O 0.58292 0.54987 0.40663 0.0
O28 O 0.4974 0.63508 0.47486 0.0
Mg29 Mg 0.42793 0.52771 0.44713 0.0
O30 O 0.47865 0.46341 0.48373 0.0
O31 O 0.46223 0.54373 0.38934 0.0
O32 O 0.37826 0.60124 0.47588 0.0
O33 O 0.36845 0.44646 0.45116 0.0
C34 C 0.71409 0.43479 0.45702 0.0
C35 C 0.63004 0.51722 0.56544 0.0
C36 C 0.73488 0.65558 0.47932 0.0
C37 C 0.53155 0.55013 0.38009 0.0
C38 C 0.42603 0.64625 0.47778 0.0
C39 C 0.41773 0.42889 0.47765 0.0
O40 O 0.76407 0.47817 0.45312 0.0
O41 O 0.64917 0.44746 0.47171 0.0
C42 C 0.00852 0.98736 0.41554 0.0
N43 N 0.04304 0.95242 0.38836 0.0
N44 N 0.94435 0.01456 0.40058 0.0
C45 C 0.03521 0.99199 0.45732 0.0
C46 C 0.94076 0.99344 0.36344 0.0
N47 N 1.00063 0.95598 0.35582 0.0
C48 C 0.88524 0.01769 0.33251 0.0
H49 H 0.9851 0.99346 0.47664 0.0
H50 H 0.07051 0.03568 0.45968 0.0
H51 H 0.0692 0.95028 0.46726 0.0
H52 H 0.90547 0.0648 0.32028 0.0
H53 H 0.82822 0.02365 0.346 0.0
H54 H 0.88036 0.98475 0.3079 0.0
C55 C 0.96537 0.11695 0.54788 0.0
N56 N 0.00765 0.14528 0.57659 0.0
N57 N 0.91499 0.07305 0.56376 0.0
C58 C 0.97972 0.12376 0.50417 0.0
C59 C 0.92824 0.07397 0.60291 0.0
N60 N 0.98435 0.11617 0.61074 0.0
C61 C 0.89438 0.0264 0.63314 0.0
H62 H 0.95598 0.16851 0.49215 0.0
H63 H 0.9484 0.0871 0.48863 0.0
H64 H 0.04155 0.12241 0.49749 0.0
H65 H 0.84646 -0.00127 0.6207 0.0
H66 H 0.87311 0.05121 0.65911 0.0
H67 H 0.9393 0.99323 0.64377 0.0
C68 C 0.50742 0.50177 0.91105 0.0
N69 N 0.55934 0.47915 0.88614 0.0
N70 N 0.4709 0.55206 0.89434 0.0
C71 C 0.48488 0.47043 0.94939 0.0
C72 C 0.50261 0.55961 0.858 0.0
N73 N 0.55651 0.51542 0.85301 0.0
C74 C 0.47904 0.60878 0.82682 0.0
H75 H 0.48401 0.50752 0.97085 0.0
H76 H 0.52212 0.43038 0.95861 0.0
H77 H 0.42561 0.45367 0.94699 0.0
H78 H 0.46258 0.65329 0.84067 0.0
H79 H 0.4288 0.59041 0.81073 0.0
H80 H 0.52566 0.6192 0.80511 0.0
C81 C 0.54283 0.55207 0.04316 0.0
N82 N 0.57036 0.59774 0.06609 0.0
N83 N 0.46871 0.53856 0.0525 0.0
C84 C 0.59532 0.5116 0.02005 0.0
C85 C 0.45438 0.57566 0.08309 0.0
N86 N 0.51736 0.60959 0.09274 0.0
C87 C 0.3837 0.56941 0.10847 0.0
H88 H 0.60377 0.53275 -0.01038 0.0
H89 H 0.57374 0.46221 0.01878 0.0
H90 H 0.65244 0.51035 0.0342 0.0
H91 H 0.39107 0.52983 0.13097 0.0
H92 H 0.33276 0.55865 0.0904 0.0
H93 H 0.37406 0.6137 0.12411 0.0
C94 C 0.26679 0.25769 0.94872 0.0
C95 C 0.22102 0.22586 -0.0227 0.0
C96 C 0.28963 0.32083 0.95327 0.0
C97 C 0.26835 0.35122 -0.01185 0.0
C98 C 0.21172 0.3224 0.01338 0.0
C99 C 0.18843 0.25953 0.00756 0.0
C100 C 0.34409 0.35117 0.9233 0.0
C101 C 0.18449 0.35402 0.04987 0.0
C102 C 0.43084 0.42735 0.04402 0.0
C103 C 0.41731 0.49191 0.03722 0.0
C104 C 0.38313 0.38156 0.02761 0.0
C105 C 0.31941 0.40097 0.00424 0.0
C106 C 0.30423 0.46655 -0.00172 0.0
C107 C 0.3534 0.51131 0.01506 0.0
C108 C 0.40143 0.31222 0.03517 0.0
C109 C 0.23877 0.48979 0.97282 0.0
H110 H 0.29106 0.23129 0.92505 0.0
H111 H 0.15263 0.23445 0.0296 0.0
H112 H 0.32975 0.4017 0.91723 0.0
H113 H 0.40302 0.34786 0.93506 0.0
H114 H 0.34235 0.32689 0.89478 0.0
H115 H 0.13027 0.3322 0.06139 0.0
H116 H 0.22833 0.34883 0.07346 0.0
H117 H 0.17594 0.40553 0.04349 0.0
H118 H 0.47925 0.41292 0.06203 0.0
H119 H 0.3434 0.56166 0.01004 0.0
H120 H 0.41149 0.2898 0.00657 0.0
H121 H 0.35252 0.2869 0.05004 0.0
H122 H 0.45279 0.30535 0.05405 0.0
H123 H 0.25488 0.4875 0.94111 0.0
H124 H 0.22477 0.53984 -0.02163 0.0
H125 H 0.18698 0.45958 -0.02213 0.0
C126 C 0.28288 0.86548 0.92366 0.0
C127 C 0.22857 0.87457 0.95318 0.0
C128 C 0.31296 0.80541 0.91819 0.0
C129 C 0.28921 0.75309 0.9434 0.0
C130 C 0.233 0.76158 0.97282 0.0
C131 C 0.20254 0.82237 -0.02291 0.0
C132 C 0.37243 0.79851 0.88628 0.0
C133 C 0.20819 0.70737 0.001 0.0
C134 C 0.34499 0.60117 0.89712 0.0
C135 C 0.41816 0.5931 0.91265 0.0
C136 C 0.29806 0.64929 0.91024 0.0
C137 C 0.32601 0.69065 0.939 0.0
C138 C 0.3973 0.67842 0.95739 0.0
C139 C 0.44271 0.62988 0.94372 0.0
C140 C 0.22152 0.65931 0.89081 0.0
C141 C 0.42949 0.71983 -0.01119 0.0
H142 H 0.30321 0.90598 0.90536 0.0
H143 H 0.16167 0.82974 0.0005 0.0
H144 H 0.42739 0.78439 0.9001 0.0
H145 H 0.35491 0.76057 0.86632 0.0
H146 H 0.38198 0.84323 0.86806 0.0
H147 H 0.16027 0.72053 0.02039 0.0
H148 H 0.19057 0.66555 -0.01574 0.0
H149 H 0.25694 0.69261 0.02007 0.0
H150 H 0.32616 0.5717 0.87344 0.0
H151 H 0.49947 0.62308 0.9556 0.0
H152 H 0.22541 0.70084 0.86937 0.0
H153 H 0.17763 0.66968 0.9132 0.0
H154 H 0.20255 0.6172 0.87462 0.0
H155 H 0.46326 0.75936 -0.02579 0.0
H156 H 0.46823 0.69249 0.00905 0.0
H157 H 0.38399 0.74057 0.00674 0.0
C158 C 0.79078 0.90677 0.01215 0.0
C159 C 0.86647 0.90329 -0.00028 0.0
C160 C 0.75238 0.85283 0.02808 0.0
C161 C 0.79021 0.79391 0.03009 0.0
C162 C 0.86821 0.791 0.01961 0.0
C163 C 0.90598 0.84638 0.00491 0.0
C164 C 0.66982 0.85814 0.04016 0.0
C165 C 0.90985 0.72881 0.02065 0.0
C166 C 0.68216 0.66261 0.08684 0.0
C167 C 0.63553 0.6388 0.05692 0.0
C168 C 0.73591 0.7112 0.07838 0.0
C169 C 0.74498 0.73514 0.03885 0.0
C170 C 0.70291 0.70791 0.00803 0.0
C171 C 0.64785 0.66095 0.01756 0.0
C172 C 0.77917 0.73973 0.11209 0.0
C173 C 0.71219 0.7313 0.96524 0.0
H174 H 0.76082 0.95121 0.00794 0.0
H175 H 0.96449 0.84412 -0.00534 0.0
H176 H 0.63282 0.83456 0.01842 0.0
H177 H 0.65969 0.83374 0.06962 0.0
H178 H 0.65215 0.90837 0.04152 0.0
H179 H 0.97251 0.73604 0.01747 0.0
H180 H 0.89796 0.70077 0.04868 0.0
H181 H 0.8894 0.70015 -0.00409 0.0
H182 H 0.6765 0.64514 0.11713 0.0
H183 H 0.61156 0.64399 -0.00569 0.0
H184 H 0.75926 0.78876 0.11599 0.0
H185 H 0.84101 0.74305 0.10526 0.0
H186 H 0.77104 0.71182 0.14061 0.0
H187 H 0.68757 0.77932 0.96107 0.0
H188 H 0.68319 0.69938 0.94451 0.0
H189 H 0.7735 0.73527 0.95719 0.0
C190 C 0.86219 0.23917 -0.01598 0.0
C191 C 0.91464 0.22386 0.95472 0.0
C192 C 0.80883 0.28783 -0.02336 0.0
C193 C 0.80811 0.32137 0.93911 0.0
C194 C 0.86583 0.30979 0.9111 0.0
C195 C 0.91795 0.26105 0.91919 0.0
C196 C 0.74944 0.29956 0.00773 0.0
C197 C 0.86849 0.34491 0.87103 0.0
C198 C 0.61893 0.37424 0.89363 0.0
C199 C 0.62244 0.43974 0.8979 0.0
C200 C 0.67827 0.33511 0.90781 0.0
C201 C 0.74237 0.36233 0.92683 0.0
C202 C 0.7452 0.42876 0.93158 0.0
C203 C 0.68511 0.4666 0.91702 0.0
C204 C 0.67248 0.26455 0.90235 0.0
C205 C 0.81143 0.45982 0.9521 0.0
H206 H 0.85868 0.20989 0.01129 0.0
H207 H 0.95822 0.24895 0.89642 0.0
H208 H 0.73931 0.35113 0.00974 0.0
H209 H 0.69467 0.27683 -0.00066 0.0
H210 H 0.76629 0.27954 0.03745 0.0
H211 H 0.92212 0.33618 0.85474 0.0
H212 H 0.81967 0.32916 0.85283 0.0
H213 H 0.86321 0.39677 0.87428 0.0
H214 H 0.56941 0.35384 0.87951 0.0
H215 H 0.68632 0.51737 0.92086 0.0
H216 H 0.67505 0.23838 0.93163 0.0
H217 H 0.72152 0.24923 0.88452 0.0
H218 H 0.61883 0.25079 0.88728 0.0
H219 H 0.81624 0.43961 -0.01704 0.0
H220 H 0.80522 0.51211 0.95305 0.0
H221 H 0.86553 0.44987 0.93668 0.0
C222 C 0.76545 0.76639 0.45336 0.0
C223 C 0.73467 0.72492 0.48307 0.0
C224 C 0.78478 0.82969 0.46146 0.0
C225 C 0.77538 0.85082 0.50049 0.0
C226 C 0.74008 0.80977 0.52978 0.0
C227 C 0.71952 0.7476 0.52054 0.0
C228 C 0.81864 0.87293 0.42889 0.0
C229 C 0.73061 0.82929 0.572 0.0
C230 C 0.92111 0.96307 0.54365 0.0
C231 C 0.88116 0.01984 0.5445 0.0
C232 C 0.88881 0.90919 0.52704 0.0
C233 C 0.81285 0.91103 0.51274 0.0
C234 C 0.77174 0.96834 0.51399 0.0
C235 C 0.80689 0.02252 0.52947 0.0
C236 C 0.93567 0.84986 0.52552 0.0
C237 C 0.69029 0.9718 0.4999 0.0
H238 H 0.7777 0.74849 0.42447 0.0
H239 H 0.69708 0.71494 0.54369 0.0
H240 H 0.78018 0.9135 0.42292 0.0
H241 H 0.87449 0.89265 0.4382 0.0
H242 H 0.82663 0.84824 0.40084 0.0
H243 H 0.69467 0.79484 0.58998 0.0
H244 H 0.7875 0.83248 0.58624 0.0
H245 H 0.70467 0.87686 0.57267 0.0
H246 H 0.97839 0.96147 0.55566 0.0
H247 H 0.77585 0.06634 0.53102 0.0
H248 H 0.9382 0.83407 0.49463 0.0
H249 H 0.90841 0.81092 0.54407 0.0
H250 H 0.99494 0.85728 0.53615 0.0
H251 H 0.68817 0.9641 0.46761 0.0
H252 H 0.66433 0.01823 0.50556 0.0
H253 H 0.6551 0.93362 0.51493 0.0
C254 C 0.73602 0.34538 0.41255 0.0
C255 C 0.73611 0.3687 0.45068 0.0
C256 C 0.76521 0.285 0.40563 0.0
C257 C 0.79697 0.24771 0.43748 0.0
C258 C 0.79401 0.27048 0.47644 0.0
C259 C 0.76419 0.33087 0.48241 0.0
C260 C 0.76266 0.26132 0.36412 0.0
C261 C 0.82451 0.23326 0.51209 0.0
C262 C 0.83267 0.071 0.42513 0.0
C263 C 0.90893 0.07176 0.41283 0.0
C264 C 0.79536 0.12777 0.43312 0.0
C265 C 0.83573 0.18662 0.4294 0.0
C266 C 0.91294 0.18734 0.41672 0.0
C267 C 0.94827 0.13 0.40824 0.0
C268 C 0.71249 0.12487 0.44512 0.0
C269 C 0.95902 0.24843 0.41329 0.0
H270 H 0.71419 0.37486 0.38804 0.0
H271 H 0.76477 0.34931 0.51189 0.0
H272 H 0.82142 0.25805 0.35229 0.0
H273 H 0.73673 0.2129 0.3645 0.0
H274 H 0.72949 0.29299 0.34355 0.0
H275 H 0.79081 0.24236 0.53908 0.0
H276 H 0.82392 0.18141 0.50807 0.0
H277 H 0.88387 0.2495 0.51762 0.0
H278 H 0.80201 0.02605 0.42772 0.0
H279 H 0.00687 0.13037 0.39798 0.0
H280 H 0.67993 0.16252 0.42883 0.0
H281 H 0.70767 0.13318 0.47725 0.0
H282 H 0.68563 0.0782 0.43933 0.0
H283 H 0.93396 0.28119 0.39032 0.0
H284 H 0.01953 0.24043 0.40541 0.0
H285 H 0.95727 0.27241 0.44187 0.0
C286 C 0.38942 0.31819 0.50189 0.0
C287 C 0.3891 0.38324 0.50817 0.0
C288 C 0.33421 0.27745 0.52016 0.0
C289 C 0.27547 0.30361 0.54291 0.0
C290 C 0.279 0.36857 0.55168 0.0
C291 C 0.33742 0.40713 0.53508 0.0
C292 C 0.3345 0.2077 0.51206 0.0
C293 C 0.21578 0.39973 0.5738 0.0
C294 C 0.07772 0.23003 0.53499 0.0
C295 C 0.07002 0.19313 0.5708 0.0
C296 C 0.14482 0.26442 0.52507 0.0
C297 C 0.20518 0.26589 0.55269 0.0
C298 C 0.19467 0.2371 0.59079 0.0
C299 C 0.12565 0.20524 0.59999 0.0
C300 C 0.1508 0.29943 0.48498 0.0
C301 C 0.25635 0.23979 0.622 0.0
H302 H 0.42875 0.30013 0.48047 0.0
H303 H 0.33645 0.45795 0.53895 0.0
H304 H 0.32057 0.17856 0.53948 0.0
H305 H 0.2903 0.19748 0.48963 0.0
H306 H 0.39063 0.19301 0.50059 0.0
H307 H 0.2336 0.44708 0.58397 0.0
H308 H 0.16615 0.40632 0.55371 0.0
H309 H 0.19619 0.36991 0.59986 0.0
H310 H 0.03086 0.23497 0.51486 0.0
H311 H 0.11681 0.19405 0.63072 0.0
H312 H 0.20028 0.28202 0.46835 0.0
H313 H 0.16062 0.35089 0.48886 0.0
H314 H 0.0988 0.29331 0.46671 0.0
H315 H 0.31038 0.22153 0.61012 0.0
H316 H 0.24112 0.21139 0.64956 0.0
H317 H 0.26751 0.28956 0.62981 0.0
C318 C 0.4173 0.74518 0.43548 0.0
C319 C 0.3958 0.71059 0.47036 0.0
C320 C 0.36957 0.7921 0.4184 0.0
C321 C 0.30038 0.80627 0.43764 0.0
C322 C 0.28282 0.7759 0.47503 0.0
C323 C 0.33008 0.72772 0.49058 0.0
C324 C 0.39093 0.82313 0.37858 0.0
C325 C 0.21078 0.79057 0.49716 0.0
C326 C 0.17776 0.94876 0.41001 0.0
C327 C 0.11424 0.9192 0.39303 0.0
C328 C 0.24099 0.91333 0.42304 0.0
C329 C 0.24195 0.84725 0.41744 0.0
C330 C 0.18148 0.81871 0.39634 0.0
C331 C 0.11787 0.85491 0.38486 0.0
C332 C 0.30415 0.94572 0.44515 0.0
C333 C 0.18184 0.749 0.38799 0.0
H334 H 0.46744 0.73113 0.41942 0.0
H335 H 0.31286 0.70034 0.51722 0.0
H336 H 0.34103 0.82525 0.35838 0.0
H337 H 0.41089 0.87255 0.38268 0.0
H338 H 0.43739 0.79762 0.36395 0.0
H339 H 0.21073 0.76954 0.528 0.0
H340 H 0.20362 0.84268 0.49823 0.0
H341 H 0.16071 0.77118 0.48139 0.0
H342 H 0.17585 -0.00096 0.41516 0.0
H343 H 0.06905 0.83217 0.37154 0.0
H344 H 0.35971 0.93804 0.4306 0.0
H345 H 0.30767 0.92464 0.47588 0.0
H346 H 0.29535 0.99764 0.4466 0.0
H347 H 0.23804 0.73586 0.37592 0.0
H348 H 0.13668 0.73628 0.36656 0.0
H349 H 0.17236 0.72027 0.41604 0.0
C350 C 0.03234 0.00048 0.12722 0.0
C351 C 0.10646 0.99517 0.11231 0.0
C352 C 0.0158 0.98337 0.16699 0.0
C353 C 0.07475 0.9601 0.19209 0.0
C354 C 0.14835 0.95091 0.1766 0.0
C355 C 0.16348 0.9689 0.13691 0.0
C356 C 0.93653 0.99383 0.18269 0.0
C357 C 0.21215 0.92525 0.20247 0.0
C358 C 0.06412 0.00569 0.29841 0.0
C359 C 0.03084 0.95137 0.31678 0.0
C360 C 0.07908 0.00877 0.25779 0.0
C361 C 0.06282 0.95505 0.23548 0.0
C362 C 0.03358 0.89837 0.2545 0.0
C363 C 0.01636 0.89764 0.29517 0.0
C364 C 0.10845 0.07063 0.23851 0.0
C365 C 0.01759 0.83974 0.23173 0.0
H366 H 0.98778 0.01988 0.10822 0.0
H367 H 0.22061 0.96335 0.12542 0.0
H368 H 0.91516 0.95076 0.1996 0.0
H369 H 0.93817 0.03316 0.20342 0.0
H370 H 0.89546 0.00603 0.15855 0.0
H371 H 0.26282 0.91286 0.1848 0.0
H372 H 0.22983 0.96143 0.22361 0.0
H373 H 0.19248 0.88242 0.22024 0.0
H374 H 0.07366 0.04715 0.3157 0.0
H375 H 0.98936 0.85625 0.30979 0.0
H376 H 0.06686 0.08873 0.21609 0.0
H377 H 0.16287 0.06298 0.22279 0.0
H378 H 0.11809 0.10774 0.26035 0.0
H379 H 0.96609 0.84711 0.21312 0.0
H380 H 0.00759 0.79711 0.25184 0.0
H381 H 0.06573 0.83043 0.21155 0.0
C382 C 0.13812 0.10042 0.83028 0.0
C383 C 0.10891 0.04053 0.84298 0.0
C384 C 0.14456 0.11685 0.7896 0.0
C385 C 0.11849 0.07309 0.76191 0.0
C386 C 0.09956 0.00986 0.77474 0.0
C387 C 0.09665 0.99409 0.8153 0.0
C388 C 0.17239 0.18267 0.77657 0.0
C389 C 0.07259 0.961 0.74621 0.0
C390 C 0.98779 0.13518 0.68126 0.0
C391 C 0.0235 0.11316 0.64784 0.0
C392 C 0.01952 0.12424 0.71884 0.0
C393 C 0.0923 0.09583 0.72226 0.0
C394 C 0.13146 0.07839 0.68788 0.0
C395 C 0.09379 0.08264 0.65133 0.0
C396 C 0.97247 0.13926 0.75471 0.0
C397 C 0.21309 0.05671 0.68953 0.0
H398 H 0.15013 0.13596 0.85172 0.0
H399 H 0.07719 0.94691 0.8253 0.0
H400 H 0.19832 0.18338 0.7465 0.0
H401 H 0.12392 0.21583 0.77578 0.0
H402 H 0.21497 0.20065 0.79785 0.0
H403 H 0.05938 0.91419 0.76142 0.0
H404 H 0.02046 0.97783 0.73059 0.0
H405 H 0.11679 0.95386 0.72343 0.0
H406 H 0.93258 0.15721 0.678 0.0
H407 H 0.12073 0.06592 0.62492 0.0
H408 H 0.99889 0.1796 0.76981 0.0
H409 H 0.96985 0.09787 0.77631 0.0
H410 H 0.91315 0.15232 0.74664 0.0
H411 H 0.25066 0.09866 0.69398 0.0
H412 H 0.23065 0.03502 0.66164 0.0
H413 H 0.22306 0.02247 0.71488 0.0
C414 C 0.56523 0.54294 0.62779 0.0
C415 C 0.61419 0.50377 0.60764 0.0
C416 C 0.55515 0.53445 0.66885 0.0
C417 C 0.59355 0.48457 0.68968 0.0
C418 C 0.63828 0.44193 0.6689 0.0
C419 C 0.64935 0.45279 0.62802 0.0
C420 C 0.5067 0.58079 0.69014 0.0
C421 C 0.6764 0.38631 0.69009 0.0
C422 C 0.63939 0.52363 0.79494 0.0
C423 C 0.57786 0.49464 0.81508 0.0
C424 C 0.64799 0.51712 0.7541 0.0
C425 C 0.59295 0.48138 0.73349 0.0
C426 C 0.53359 0.4484 0.75453 0.0
C427 C 0.52706 0.45534 0.79537 0.0
C428 C 0.71233 0.55254 0.73253 0.0
C429 C 0.47319 0.4105 0.73374 0.0
H430 H 0.53773 0.58206 0.61174 0.0
H431 H 0.68573 0.42167 0.612 0.0
H432 H 0.46353 0.55494 0.70905 0.0
H433 H 0.54321 0.6088 0.70997 0.0
H434 H 0.47684 0.61426 0.66923 0.0
H435 H 0.70145 0.3534 0.66904 0.0
H436 H 0.72244 0.40388 0.70946 0.0
H437 H 0.63478 0.35937 0.70945 0.0
H438 H 0.67744 0.55462 0.81071 0.0
H439 H 0.47882 0.43418 0.81154 0.0
H440 H 0.6887 0.59124 0.71297 0.0
H441 H 0.74336 0.52025 0.71336 0.0
H442 H 0.75359 0.5737 0.7533 0.0
H443 H 0.42994 0.44335 0.7209 0.0
H444 H 0.44351 0.37601 0.75465 0.0
H445 H 0.49781 0.38441 0.7091 0.0
C446 C 0.61122 0.5978 0.32462 0.0
C447 C 0.54981 0.55924 0.33797 0.0
C448 C 0.61949 0.61421 0.28402 0.0
C449 C 0.56475 0.59154 0.25712 0.0
C450 C 0.50471 0.55043 0.27055 0.0
C451 C 0.49854 0.53439 0.3108 0.0
C452 C 0.68513 0.65676 0.27004 0.0
C453 C 0.44594 0.52407 0.24259 0.0
C454 C 0.51194 0.66076 0.15668 0.0
C455 C 0.53827 0.61277 0.13344 0.0
C456 C 0.52665 0.6583 0.19755 0.0
C457 C 0.57007 0.6076 0.21439 0.0
C458 C 0.60221 0.56246 0.19006 0.0
C459 C 0.58329 0.5642 0.1501 0.0
C460 C 0.48979 0.706 0.22312 0.0
C461 C 0.6501 0.50856 0.20673 0.0
H462 H 0.6506 0.61703 0.34588 0.0
H463 H 0.45184 0.50358 0.32124 0.0
H464 H 0.71524 0.63584 0.24495 0.0
H465 H 0.66306 0.70334 0.25898 0.0
H466 H 0.72679 0.66495 0.29412 0.0
H467 H 0.40079 0.49533 0.25849 0.0
H468 H 0.41831 0.56335 0.2252 0.0
H469 H 0.47392 0.49349 0.22121 0.0
H470 H 0.47694 0.69783 0.14326 0.0
H471 H 0.60311 0.5272 0.13155 0.0
H472 H 0.53078 0.72318 0.24536 0.0
H473 H 0.44125 0.68279 0.23959 0.0
H474 H 0.4679 0.74739 0.20521 0.0
H475 H 0.68973 0.52518 0.22978 0.0
H476 H 0.68382 0.48673 0.18317 0.0
H477 H 0.61235 0.47119 0.22081 0.0
loop_
_geom_bond_atom_site_label_1
_geom_bond_atom_site_label_2
_geom_bond_distance
_geom_bond_site_symmetry_2
_ccdc_geom_bond_type
O0 Mg1 1.990 . S
O0 C14 1.253 . S
Mg1 O0 1.990 . S
Mg1 O4 2.180 . S
Mg1 O5 2.117 . S
Mg1 O19 2.030 1_545 S
O2 Mg3 2.072 1_554 S
O2 C14 1.260 . S
Mg3 O2 2.072 1_556 S
Mg3 O4 2.099 1_556 S
Mg3 O6 2.079 . S
Mg3 O7 2.073 . S
Mg3 O9 2.099 1_445 S
Mg3 O20 2.079 1_545 S
O4 Mg1 2.180 . S
O4 Mg3 2.099 1_554 S
O4 C15 1.279 . S
O5 Mg1 2.117 . S
O5 C15 1.250 . S
O6 Mg3 2.079 . S
O6 C16 1.264 . S
O7 Mg3 2.073 . S
O7 C17 1.261 1_455 S
Mg8 O9 2.180 1_545 S
Mg8 O10 2.030 . S
Mg8 O11 1.990 . S
Mg8 O12 2.117 1_545 S
O9 Mg3 2.099 1_665 S
O9 Mg8 2.180 1_565 S
O9 C18 1.279 1_556 S
O10 Mg8 2.030 . S
O10 C16 1.248 1_655 S
O11 Mg8 1.990 . S
O11 C17 1.253 . S
O12 Mg8 2.117 1_565 S
O12 C18 1.250 1_556 S
C13 O19 1.248 . S
C13 O20 1.264 1_554 S
C14 O0 1.253 . S
C14 O2 1.260 . S
C15 O4 1.279 . S
C15 O5 1.250 . S
C16 O6 1.264 . S
C16 O10 1.248 1_455 S
C17 O7 1.261 1_655 S
C17 O11 1.253 . S
C18 O9 1.279 1_554 S
C18 O12 1.250 1_554 S
O19 Mg1 2.030 1_565 S
O19 C13 1.248 . S
O20 Mg3 2.079 1_565 S
O20 C13 1.264 1_556 S
O21 Mg22 1.990 . S
O21 C35 1.253 . S
Mg22 O21 1.990 . S
Mg22 O25 2.180 . S
Mg22 O26 2.117 . S
Mg22 O40 2.030 . S
O23 Mg24 2.072 . S
O23 C35 1.260 . S
Mg24 O23 2.072 . S
Mg24 O25 2.099 . S
Mg24 O27 2.079 . S
Mg24 O28 2.072 . S
Mg24 O30 2.099 . S
Mg24 O41 2.079 . S
O25 Mg22 2.180 . S
O25 Mg24 2.099 . S
O25 C36 1.279 . S
O26 Mg22 2.117 . S
O26 C36 1.250 . S
O27 Mg24 2.079 . S
O27 C37 1.264 . S
O28 Mg24 2.072 . S
O28 C38 1.260 . S
Mg29 O30 2.180 . S
Mg29 O31 2.030 . S
Mg29 O32 1.990 . S
Mg29 O33 2.117 . S
O30 Mg24 2.099 . S
O30 Mg29 2.180 . S
O30 C39 1.279 . S
O31 Mg29 2.030 . S
O31 C37 1.248 . S
O32 Mg29 1.990 . S
O32 C38 1.253 . S
O33 Mg29 2.117 . S
O33 C39 1.250 . S
C34 O40 1.248 . S
C34 O41 1.264 . S
C35 O21 1.253 . S
C35 O23 1.260 . S
C36 O25 1.279 . S
C36 O26 1.250 . S
C37 O27 1.264 . S
C37 O31 1.248 . S
C38 O28 1.260 . S
C38 O32 1.253 . S
C39 O30 1.279 . S
C39 O33 1.250 . S
O40 Mg22 2.030 . S
O40 C34 1.248 . S
O41 Mg24 2.079 . S
O41 C34 1.264 . S
C42 N43 1.317 1_545 S
C42 N44 1.348 1_455 S
C42 C45 1.483 1_545 S
N43 C42 1.317 1_565 S
N43 N47 1.370 1_565 S
N44 C42 1.348 1_655 S
N44 C46 1.346 . S
C45 C42 1.483 1_565 S
C45 H49 0.969 . S
C45 H50 0.948 1_565 S
C45 H51 0.966 . S
C46 N44 1.346 . S
C46 N47 1.307 1_655 S
C46 C48 1.486 . S
N47 N43 1.370 1_545 S
N47 C46 1.307 1_455 S
C48 C46 1.486 . S
C48 H52 0.960 . S
C48 H53 0.960 . S
C48 H54 0.959 . S
H49 C45 0.969 . S
H50 C45 0.948 1_545 S
H51 C45 0.966 . S
H52 C48 0.960 . S
H53 C48 0.960 . S
H54 C48 0.959 . S
C55 N56 1.317 . S
C55 N57 1.348 1_455 S
C55 C58 1.485 . S
N56 C55 1.317 . S
N56 N60 1.370 . S
N57 C55 1.348 1_655 S
N57 C59 1.346 . S
C58 C55 1.485 . S
C58 H62 0.960 1_455 S
C58 H63 0.961 . S
C58 H64 0.960 . S
C59 N57 1.346 . S
C59 N60 1.307 1_655 S
C59 C61 1.486 . S
N60 N56 1.370 . S
N60 C59 1.307 1_455 S
C61 C59 1.486 . S
C61 H65 0.960 1_545 S
C61 H66 0.960 . S
C61 H67 0.959 . S
H62 C58 0.960 1_655 S
H63 C58 0.961 . S
H64 C58 0.960 . S
H65 C61 0.960 1_565 S
H66 C61 0.960 . S
H67 C61 0.959 . S
C68 N69 1.317 . S
C68 N70 1.348 . S
C68 C71 1.485 1_556 S
N69 C68 1.317 . S
N69 N73 1.370 . S
N70 C68 1.348 . S
N70 C72 1.346 . S
C71 C68 1.485 1_554 S
C71 H75 0.960 . S
C71 H76 0.961 . S
C71 H77 0.960 . S
C72 N70 1.346 . S
C72 N73 1.307 . S
C72 C74 1.486 . S
N73 N69 1.370 . S
N73 C72 1.307 . S
C74 C72 1.486 . S
C74 H78 0.960 . S
C74 H79 0.960 . S
C74 H80 0.959 . S
H75 C71 0.960 . S
H76 C71 0.961 . S
H77 C71 0.960 . S
H78 C74 0.960 . S
H79 C74 0.960 . S
H80 C74 0.959 . S
C81 N82 1.317 . S
C81 N83 1.348 . S
C81 C84 1.485 1_554 S
N82 C81 1.317 . S
N82 N86 1.370 . S
N83 C81 1.348 . S
N83 C85 1.346 . S
C84 C81 1.485 1_556 S
C84 H88 0.960 . S
C84 H89 0.961 . S
C84 H90 0.960 . S
C85 N83 1.346 . S
C85 N86 1.307 . S
C85 C87 1.486 . S
N86 N82 1.370 . S
N86 C85 1.307 . S
C87 C85 1.486 . S
C87 H91 0.960 . S
C87 H92 0.960 . S
C87 H93 0.959 . S
H88 C84 0.960 . S
H89 C84 0.961 . S
H90 C84 0.960 . S
H91 C87 0.960 . S
H92 C87 0.960 . S
H93 C87 0.959 . S
C94 C95 1.380 1_556 S
C94 C96 1.394 . S
C94 H110 0.931 . S
C95 C94 1.380 1_554 S
C95 C99 1.388 . S
C96 C94 1.394 . S
C96 C97 1.369 1_556 S
C96 C100 1.531 . S
C97 C96 1.369 1_554 S
C97 C98 1.410 . S
C97 C105 1.503 . S
C98 C97 1.410 . S
C98 C99 1.392 . S
C98 C101 1.511 . S
C99 C95 1.388 . S
C99 C98 1.392 . S
C99 H111 0.929 . S
C100 C96 1.531 . S
C100 H112 0.960 . S
C100 H113 0.962 . S
C100 H114 0.960 . S
C101 C98 1.511 . S
C101 H115 0.961 . S
C101 H116 0.961 . S
C101 H117 0.961 . S
C102 C103 1.370 . S
C102 C104 1.363 . S
C102 H118 0.931 . S
C103 C102 1.370 . S
C103 C107 1.408 . S
C104 C102 1.363 . S
C104 C105 1.370 . S
C104 C108 1.524 . S
C105 C97 1.503 . S
C105 C104 1.370 . S
C105 C106 1.403 1_554 S
C106 C105 1.403 1_556 S
C106 C107 1.404 1_556 S
C106 C109 1.539 . S
C107 C103 1.408 . S
C107 C106 1.404 1_554 S
C107 H119 0.930 1_554 S
C108 C104 1.524 . S
C108 H120 0.956 . S
C108 H121 0.961 . S
C108 H122 0.961 . S
C109 C106 1.539 . S
C109 H123 0.958 . S
C109 H124 0.961 . S
C109 H125 0.960 . S
H110 C94 0.931 . S
H111 C99 0.929 . S
H112 C100 0.960 . S
H113 C100 0.962 . S
H114 C100 0.960 . S
H115 C101 0.961 . S
H116 C101 0.961 . S
H117 C101 0.961 . S
H118 C102 0.931 . S
H119 C107 0.930 1_556 S
H120 C108 0.956 . S
H121 C108 0.961 . S
H122 C108 0.961 . S
H123 C109 0.958 . S
H124 C109 0.961 . S
H125 C109 0.960 . S
C126 C127 1.391 1_556 S
C126 C128 1.394 . S
C126 H142 0.931 . S
C127 C126 1.391 1_554 S
C127 C131 1.376 . S
C128 C126 1.394 . S
C128 C129 1.369 1_556 S
C128 C132 1.531 . S
C129 C128 1.369 1_554 S
C129 C130 1.410 . S
C129 C137 1.503 1_554 S
C130 C129 1.410 . S
C130 C131 1.392 . S
C130 C133 1.511 . S
C131 C127 1.376 . S
C131 C130 1.392 . S
C131 H143 0.929 . S
C132 C128 1.531 . S
C132 H144 0.960 . S
C132 H145 0.962 . S
C132 H146 0.960 . S
C133 C130 1.511 . S
C133 H147 0.961 . S
C133 H148 0.961 . S
C133 H149 0.961 . S
C134 C135 1.370 . S
C134 C136 1.363 . S
C134 H150 0.931 . S
C135 C134 1.370 . S
C135 C139 1.408 1_556 S
C136 C134 1.363 . S
C136 C137 1.370 . S
C136 C140 1.524 . S
C137 C129 1.503 1_556 S
C137 C136 1.370 . S
C137 C138 1.403 1_556 S
C138 C137 1.403 1_554 S
C138 C139 1.404 . S
C138 C141 1.539 . S
C139 C135 1.408 1_554 S
C139 C138 1.404 . S
C139 H151 0.930 . S
C140 C136 1.524 . S
C140 H152 0.956 . S
C140 H153 0.961 . S
C140 H154 0.961 . S
C141 C138 1.539 . S
C141 H155 0.958 . S
C141 H156 0.961 . S
C141 H157 0.960 . S
H142 C126 0.931 . S
H143 C131 0.929 . S
H144 C132 0.960 . S
H145 C132 0.962 . S
H146 C132 0.960 . S
H147 C133 0.961 . S
H148 C133 0.961 . S
H149 C133 0.961 . S
H150 C134 0.931 . S
H151 C139 0.930 . S
H152 C140 0.956 . S
H153 C140 0.961 . S
H154 C140 0.961 . S
H155 C141 0.958 . S
H156 C141 0.961 . S
H157 C141 0.960 . S
C158 C159 1.391 . S
C158 C160 1.394 . S
C158 H174 0.931 . S
C159 C158 1.391 . S
C159 C163 1.376 . S
C160 C158 1.394 . S
C160 C161 1.369 . S
C160 C164 1.531 . S
C161 C160 1.369 . S
C161 C162 1.410 . S
C161 C169 1.503 . S
C162 C161 1.410 . S
C162 C163 1.392 . S
C162 C165 1.511 . S
C163 C159 1.376 . S
C163 C162 1.392 . S
C163 H175 0.929 . S
C164 C160 1.531 . S
C164 H176 0.960 . S
C164 H177 0.962 . S
C164 H178 0.960 . S
C165 C162 1.511 . S
C165 H179 0.961 . S
C165 H180 0.961 . S
C165 H181 0.980 . S
C166 C167 1.370 . S
C166 C168 1.363 . S
C166 H182 0.931 . S
C167 C166 1.370 . S
C167 C171 1.408 . S
C168 C166 1.363 . S
C168 C169 1.370 . S
C168 C172 1.524 . S
C169 C161 1.503 . S
C169 C168 1.370 . S
C169 C170 1.403 . S
C170 C169 1.403 . S
C170 C171 1.404 . S
C170 C173 1.539 1_554 S
C171 C167 1.408 . S
C171 C170 1.404 . S
C171 H183 0.930 1_554 S
C172 C168 1.524 . S
C172 H184 0.956 . S
C172 H185 0.961 . S
C172 H186 0.961 . S
C173 C170 1.539 1_556 S
C173 H187 0.958 . S
C173 H188 0.961 . S
C173 H189 0.960 . S
H174 C158 0.931 . S
H175 C163 0.929 . S
H176 C164 0.960 . S
H177 C164 0.962 . S
H178 C164 0.960 . S
H179 C165 0.961 . S
H180 C165 0.961 . S
H181 C165 0.980 . S
H182 C166 0.931 . S
H183 C171 0.930 1_556 S
H184 C172 0.956 . S
H185 C172 0.961 . S
H186 C172 0.961 . S
H187 C173 0.958 . S
H188 C173 0.961 . S
H189 C173 0.960 . S
C190 C191 1.391 1_554 S
C190 C192 1.394 . S
C190 H206 0.931 . S
C191 C190 1.391 1_556 S
C191 C195 1.376 . S
C192 C190 1.394 . S
C192 C193 1.369 1_554 S
C192 C196 1.531 . S
C193 C192 1.369 1_556 S
C193 C194 1.410 . S
C193 C201 1.503 . S
C194 C193 1.410 . S
C194 C195 1.392 . S
C194 C197 1.511 . S
C195 C191 1.376 . S
C195 C194 1.392 . S
C195 H207 0.929 . S
C196 C192 1.531 . S
C196 H208 0.960 . S
C196 H209 0.962 . S
C196 H210 0.960 . S
C197 C194 1.511 . S
C197 H211 0.961 . S
C197 H212 0.961 . S
C197 H213 0.961 . S
C198 C199 1.370 . S
C198 C200 1.363 . S
C198 H214 0.931 . S
C199 C198 1.370 . S
C199 C203 1.408 . S
C200 C198 1.363 . S
C200 C201 1.370 . S
C200 C204 1.524 . S
C201 C193 1.503 . S
C201 C200 1.370 . S
C201 C202 1.403 . S
C202 C201 1.403 . S
C202 C203 1.404 . S
C202 C205 1.539 . S
C203 C199 1.408 . S
C203 C202 1.404 . S
C203 H215 0.930 . S
C204 C200 1.524 . S
C204 H216 0.956 . S
C204 H217 0.961 . S
C204 H218 0.961 . S
C205 C202 1.539 . S
C205 H219 0.958 1_556 S
C205 H220 0.961 . S
C205 H221 0.960 . S
H206 C190 0.931 . S
H207 C195 0.929 . S
H208 C196 0.960 . S
H209 C196 0.962 . S
H210 C196 0.960 . S
H211 C197 0.961 . S
H212 C197 0.961 . S
H213 C197 0.961 . S
H214 C198 0.931 . S
H215 C203 0.930 . S
H216 C204 0.956 . S
H217 C204 0.961 . S
H218 C204 0.961 . S
H219 C205 0.958 1_554 S
H220 C205 0.961 . S
H221 C205 0.960 . S
C222 C223 1.391 . S
C222 C224 1.394 . S
C222 H238 0.931 . S
C223 C222 1.391 . S
C223 C227 1.376 . S
C224 C222 1.394 . S
C224 C225 1.369 . S
C224 C228 1.531 . S
C225 C224 1.369 . S
C225 C226 1.410 . S
C225 C233 1.503 . S
C226 C225 1.410 . S
C226 C227 1.392 . S
C226 C229 1.511 . S
C227 C223 1.376 . S
C227 C226 1.392 . S
C227 H239 0.929 . S
C228 C224 1.531 . S
C228 H240 0.960 . S
C228 H241 0.962 . S
C228 H242 0.960 . S
C229 C226 1.511 . S
C229 H243 0.961 . S
C229 H244 0.961 . S
C229 H245 0.961 . S
C230 C231 1.370 . S
C230 C232 1.363 . S
C230 H246 0.931 . S
C231 C230 1.370 . S
C231 C235 1.408 . S
C232 C230 1.363 . S
C232 C233 1.370 . S
C232 C236 1.524 . S
C233 C225 1.503 . S
C233 C232 1.370 . S
C233 C234 1.403 . S
C234 C233 1.403 . S
C234 C235 1.404 . S
C234 C237 1.539 . S
C235 C231 1.408 . S
C235 C234 1.404 . S
C235 H247 0.930 1_565 S
C236 C232 1.524 . S
C236 H248 0.956 . S
C236 H249 0.961 . S
C236 H250 0.961 . S
C237 C234 1.539 . S
C237 H251 0.958 . S
C237 H252 0.961 . S
C237 H253 0.960 . S
H238 C222 0.931 . S
H239 C227 0.929 . S
H240 C228 0.960 . S
H241 C228 0.962 . S
H242 C228 0.960 . S
H243 C229 0.961 . S
H244 C229 0.961 . S
H245 C229 0.961 . S
H246 C230 0.931 . S
H247 C235 0.930 1_545 S
H248 C236 0.956 . S
H249 C236 0.961 . S
H250 C236 0.961 . S
H251 C237 0.958 . S
H252 C237 0.961 . S
H253 C237 0.960 . S
C254 C255 1.391 . S
C254 C256 1.394 . S
C254 H270 0.931 . S
C255 C254 1.391 . S
C255 C259 1.376 . S
C256 C254 1.394 . S
C256 C257 1.369 . S
C256 C260 1.531 . S
C257 C256 1.369 . S
C257 C258 1.410 . S
C257 C265 1.503 . S
C258 C257 1.410 . S
C258 C259 1.392 . S
C258 C261 1.511 . S
C259 C255 1.376 . S
C259 C258 1.392 . S
C259 H271 0.929 . S
C260 C256 1.531 . S
C260 H272 0.960 . S
C260 H273 0.962 . S
C260 H274 0.960 . S
C261 C258 1.511 . S
C261 H275 0.961 . S
C261 H276 0.961 . S
C261 H277 0.961 . S
C262 C263 1.370 . S
C262 C264 1.363 . S
C262 H278 0.931 . S
C263 C262 1.370 . S
C263 C267 1.408 . S
C264 C262 1.363 . S
C264 C265 1.370 . S
C264 C268 1.524 . S
C265 C257 1.503 . S
C265 C264 1.370 . S
C265 C266 1.403 . S
C266 C265 1.403 . S
C266 C267 1.404 . S
C266 C269 1.539 . S
C267 C263 1.408 . S
C267 C266 1.404 . S
C267 H279 0.930 1_655 S
C268 C264 1.524 . S
C268 H280 0.956 . S
C268 H281 0.961 . S
C268 H282 0.961 . S
C269 C266 1.539 . S
C269 H283 0.958 . S
C269 H284 0.961 1_655 S
C269 H285 0.960 . S
H270 C254 0.931 . S
H271 C259 0.929 . S
H272 C260 0.960 . S
H273 C260 0.962 . S
H274 C260 0.960 . S
H275 C261 0.961 . S
H276 C261 0.961 . S
H277 C261 0.961 . S
H278 C262 0.931 . S
H279 C267 0.930 1_455 S
H280 C268 0.956 . S
H281 C268 0.961 . S
H282 C268 0.961 . S
H283 C269 0.958 . S
H284 C269 0.961 1_455 S
H285 C269 0.960 . S
C286 C287 1.391 . S
C286 C288 1.394 . S
C286 H302 0.931 . S
C287 C286 1.391 . S
C287 C291 1.376 . S
C288 C286 1.394 . S
C288 C289 1.369 . S
C288 C292 1.531 . S
C289 C288 1.369 . S
C289 C290 1.410 . S
C289 C297 1.503 . S
C290 C289 1.410 . S
C290 C291 1.392 . S
C290 C293 1.511 . S
C291 C287 1.376 . S
C291 C290 1.392 . S
C291 H303 0.929 . S
C292 C288 1.531 . S
C292 H304 0.960 . S
C292 H305 0.962 . S
C292 H306 0.960 . S
C293 C290 1.511 . S
C293 H307 0.961 . S
C293 H308 0.961 . S
C293 H309 0.961 . S
C294 C295 1.370 . S
C294 C296 1.363 . S
C294 H310 0.931 . S
C295 C294 1.370 . S
C295 C299 1.408 . S
C296 C294 1.363 . S
C296 C297 1.370 . S
C296 C300 1.524 . S
C297 C289 1.503 . S
C297 C296 1.370 . S
C297 C298 1.403 . S
C298 C297 1.403 . S
C298 C299 1.404 . S
C298 C301 1.539 . S
C299 C295 1.408 . S
C299 C298 1.404 . S
C299 H311 0.930 . S
C300 C296 1.524 . S
C300 H312 0.956 . S
C300 H313 0.961 . S
C300 H314 0.961 . S
C301 C298 1.539 . S
C301 H315 0.958 . S
C301 H316 0.961 . S
C301 H317 0.960 . S
H302 C286 0.931 . S
H303 C291 0.929 . S
H304 C292 0.960 . S
H305 C292 0.962 . S
H306 C292 0.960 . S
H307 C293 0.961 . S
H308 C293 0.961 . S
H309 C293 0.961 . S
H310 C294 0.931 . S
H311 C299 0.930 . S
H312 C300 0.956 . S
H313 C300 0.961 . S
H314 C300 0.961 . S
H315 C301 0.958 . S
H316 C301 0.961 . S
H317 C301 0.960 . S
C318 C319 1.391 . S
C318 C320 1.394 . S
C318 H334 0.931 . S
C319 C318 1.391 . S
C319 C323 1.376 . S
C320 C318 1.394 . S
C320 C321 1.369 . S
C320 C324 1.531 . S
C321 C320 1.369 . S
C321 C322 1.410 . S
C321 C329 1.503 . S
C322 C321 1.410 . S
C322 C323 1.392 . S
C322 C325 1.511 . S
C323 C319 1.376 . S
C323 C322 1.392 . S
C323 H335 0.929 . S
C324 C320 1.531 . S
C324 H336 0.960 . S
C324 H337 0.962 . S
C324 H338 0.960 . S
C325 C322 1.511 . S
C325 H339 0.961 . S
C325 H340 0.961 . S
C325 H341 0.961 . S
C326 C327 1.370 . S
C326 C328 1.363 . S
C326 H342 0.931 . S
C327 C326 1.370 . S
C327 C331 1.408 . S
C328 C326 1.363 . S
C328 C329 1.370 . S
C328 C332 1.524 . S
C329 C321 1.503 . S
C329 C328 1.370 . S
C329 C330 1.403 . S
C330 C329 1.403 . S
C330 C331 1.404 . S
C330 C333 1.539 . S
C331 C327 1.408 . S
C331 C330 1.404 . S
C331 H343 0.930 . S
C332 C328 1.524 . S
C332 H344 0.956 . S
C332 H345 0.961 . S
C332 H346 0.961 . S
C333 C330 1.539 . S
C333 H347 0.958 . S
C333 H348 0.961 . S
C333 H349 0.960 . S
H334 C318 0.931 . S
H335 C323 0.929 . S
H336 C324 0.960 . S
H337 C324 0.962 . S
H338 C324 0.960 . S
H339 C325 0.961 . S
H340 C325 0.961 . S
H341 C325 0.961 . S
H342 C326 0.931 . S
H343 C331 0.930 . S
H344 C332 0.956 . S
H345 C332 0.961 . S
H346 C332 0.961 . S
H347 C333 0.958 . S
H348 C333 0.961 . S
H349 C333 0.960 . S
C350 C351 1.391 1_565 S
C350 C352 1.394 1_455 S
C350 H366 0.931 1_455 S
C351 C350 1.391 1_545 S
C351 C355 1.376 1_545 S
C352 C350 1.394 1_655 S
C352 C353 1.367 1_655 S
C352 C356 1.532 . S
C353 C352 1.367 1_455 S
C353 C354 1.410 . S
C353 C361 1.503 . S
C354 C353 1.410 . S
C354 C355 1.392 . S
C354 C357 1.511 . S
C355 C351 1.376 1_565 S
C355 C354 1.392 . S
C355 H367 0.928 1_565 S
C356 C352 1.532 . S
C356 H368 0.960 . S
C356 H369 0.962 1_565 S
C356 H370 0.960 . S
C357 C354 1.511 . S
C357 H371 0.961 1_565 S
C357 H372 0.961 1_565 S
C357 H373 0.961 . S
C358 C359 1.370 1_545 S
C358 C360 1.363 . S
C358 H374 0.931 . S
C359 C358 1.370 1_565 S
C359 C363 1.408 . S
C360 C358 1.363 . S
C360 C361 1.370 1_545 S
C360 C364 1.524 . S
C361 C353 1.503 . S
C361 C360 1.370 1_565 S
C361 C362 1.403 . S
C362 C361 1.403 . S
C362 C363 1.404 . S
C362 C365 1.539 . S
C363 C359 1.408 . S
C363 C362 1.404 . S
C363 H375 0.930 . S
C364 C360 1.524 . S
C364 H376 0.956 . S
C364 H377 0.961 . S
C364 H378 0.961 . S
C365 C362 1.539 . S
C365 H379 0.958 . S
C365 H380 0.961 . S
C365 H381 0.960 . S
H366 C350 0.931 1_655 S
H367 C355 0.928 1_545 S
H368 C356 0.960 . S
H369 C356 0.962 1_545 S
H370 C356 0.960 . S
H371 C357 0.961 1_545 S
H372 C357 0.961 1_545 S
H373 C357 0.961 . S
H374 C358 0.931 . S
H375 C363 0.930 . S
H376 C364 0.956 . S
H377 C364 0.961 . S
H378 C364 0.961 . S
H379 C365 0.958 . S
H380 C365 0.961 . S
H381 C365 0.960 . S
C382 C383 1.391 . S
C382 C384 1.394 . S
C382 H398 0.931 . S
C383 C382 1.391 . S
C383 C387 1.376 . S
C384 C382 1.394 . S
C384 C385 1.369 . S
C384 C388 1.531 . S
C385 C384 1.369 . S
C385 C386 1.410 . S
C385 C393 1.503 . S
C386 C385 1.410 . S
C386 C387 1.392 . S
C386 C389 1.511 1_545 S
C387 C383 1.376 . S
C387 C386 1.392 . S
C387 H399 0.929 1_545 S
C388 C384 1.531 . S
C388 H400 0.960 . S
C388 H401 0.962 1_455 S
C388 H402 0.960 . S
C389 C386 1.511 1_565 S
C389 H403 0.961 . S
C389 H404 0.961 . S
C389 H405 0.961 . S
C390 C391 1.370 1_655 S
C390 C392 1.363 . S
C390 H406 0.931 . S
C391 C390 1.370 1_455 S
C391 C395 1.408 . S
C392 C390 1.363 . S
C392 C393 1.370 1_655 S
C392 C396 1.524 . S
C393 C385 1.503 . S
C393 C392 1.370 1_455 S
C393 C394 1.403 . S
C394 C393 1.403 . S
C394 C395 1.404 . S
C394 C397 1.539 . S
C395 C391 1.408 . S
C395 C394 1.404 . S
C395 H407 0.930 . S
C396 C392 1.524 . S
C396 H408 0.956 . S
C396 H409 0.961 . S
C396 H410 0.961 . S
C397 C394 1.539 . S
C397 H411 0.958 . S
C397 H412 0.961 . S
C397 H413 0.960 . S
H398 C382 0.931 . S
H399 C387 0.929 1_565 S
H400 C388 0.960 . S
H401 C388 0.962 1_655 S
H402 C388 0.960 . S
H403 C389 0.961 . S
H404 C389 0.961 . S
H405 C389 0.961 . S
H406 C390 0.931 . S
H407 C395 0.930 . S
H408 C396 0.956 . S
H409 C396 0.961 . S
H410 C396 0.961 . S
H411 C397 0.958 . S
H412 C397 0.961 . S
H413 C397 0.960 . S
C414 C415 1.391 . S
C414 C416 1.394 . S
C414 H430 0.931 . S
C415 C414 1.391 . S
C415 C419 1.376 . S
C416 C414 1.394 . S
C416 C417 1.369 . S
C416 C420 1.531 . S
C417 C416 1.369 . S
C417 C418 1.410 . S
C417 C425 1.503 . S
C418 C417 1.410 . S
C418 C419 1.392 . S
C418 C421 1.511 . S
C419 C415 1.376 . S
C419 C418 1.392 . S
C419 H431 0.929 . S
C420 C416 1.531 . S
C420 H432 0.960 . S
C420 H433 0.962 . S
C420 H434 0.960 . S
C421 C418 1.511 . S
C421 H435 0.961 . S
C421 H436 0.961 . S
C421 H437 0.961 . S
C422 C423 1.370 . S
C422 C424 1.363 . S
C422 H438 0.931 . S
C423 C422 1.370 . S
C423 C427 1.408 . S
C424 C422 1.363 . S
C424 C425 1.370 . S
C424 C428 1.524 . S
C425 C417 1.503 . S
C425 C424 1.370 . S
C425 C426 1.403 . S
C426 C425 1.403 . S
C426 C427 1.404 . S
C426 C429 1.539 . S
C427 C423 1.408 . S
C427 C426 1.404 . S
C427 H439 0.930 . S
C428 C424 1.524 . S
C428 H440 0.956 . S
C428 H441 0.961 . S
C428 H442 0.961 . S
C429 C426 1.539 . S
C429 H443 0.958 . S
C429 H444 0.961 . S
C429 H445 0.960 . S
H430 C414 0.931 . S
H431 C419 0.929 . S
H432 C420 0.960 . S
H433 C420 0.962 . S
H434 C420 0.960 . S
H435 C421 0.961 . S
H436 C421 0.961 . S
H437 C421 0.961 . S
H438 C422 0.931 . S
H439 C427 0.930 . S
H440 C428 0.956 . S
H441 C428 0.961 . S
H442 C428 0.961 . S
H443 C429 0.958 . S
H444 C429 0.961 . S
H445 C429 0.960 . S
C446 C447 1.391 . S
C446 C448 1.394 . S
C446 H462 0.931 . S
C447 C446 1.391 . S
C447 C451 1.376 . S
C448 C446 1.394 . S
C448 C449 1.369 . S
C448 C452 1.531 . S
C449 C448 1.369 . S
C449 C450 1.410 . S
C449 C457 1.503 . S
C450 C449 1.410 . S
C450 C451 1.392 . S
C450 C453 1.511 . S
C451 C447 1.376 . S
C451 C450 1.392 . S
C451 H463 0.929 . S
C452 C448 1.531 . S
C452 H464 0.960 . S
C452 H465 0.962 . S
C452 H466 0.960 . S
C453 C450 1.511 . S
C453 H467 0.961 . S
C453 H468 0.961 . S
C453 H469 0.961 . S
C454 C455 1.370 . S
C454 C456 1.363 . S
C454 H470 0.931 . S
C455 C454 1.370 . S
C455 C459 1.408 . S
C456 C454 1.363 . S
C456 C457 1.370 . S
C456 C460 1.524 . S
C457 C449 1.503 . S
C457 C456 1.370 . S
C457 C458 1.403 . S
C458 C457 1.403 . S
C458 C459 1.404 . S
C458 C461 1.539 . S
C459 C455 1.408 . S
C459 C458 1.404 . S
C459 H471 0.930 . S
C460 C456 1.524 . S
C460 H472 0.956 . S
C460 H473 0.961 . S
C460 H474 0.961 . S
C461 C458 1.539 . S
C461 H475 0.958 . S
C461 H476 0.961 . S
C461 H477 0.960 . S
H462 C446 0.931 . S
H463 C451 0.929 . S
H464 C452 0.960 . S
H465 C452 0.962 . S
H466 C452 0.960 . S
H467 C453 0.961 . S
H468 C453 0.961 . S
H469 C453 0.961 . S
H470 C454 0.931 . S
H471 C459 0.930 . S
H472 C460 0.956 . S
H473 C460 0.961 . S
H474 C460 0.961 . S
H475 C461 0.958 . S
H476 C461 0.961 . S
H477 C461 0.960 . S
C103 N83 1.386 . S
C95 C15 1.275 . S
C127 C13 1.411 . S
C135 N70 1.426 . S
C159 C18 1.282 . S
C167 N82 1.537 . S
C191 C17 1.445 . S
C199 N69 1.476 . S
C223 C36 1.236 . S
C231 N57 1.379 1_565 S
C255 C34 1.416 . S
C263 N44 1.414 . S
C295 N56 1.539 . S
C287 C39 1.362 . S
C327 N43 1.486 . S
C319 C38 1.375 . S
C351 C14 1.568 . S
C359 N47 1.593 1_565 S
C383 C16 1.441 . S
C391 N60 1.446 . S
C423 N73 1.585 . S
C415 C35 1.577 . S
C447 C37 1.418 . S
C455 N86 1.435 . S
