# Generated by pormake.
# Topology anh, (6,3)-cn, num edge types: 1
# Building blocks:
#     Node 0, Type 0, BuildingBlock: MIFKUJ_clean_sbu_0, # of connection points: 6
#     Node 1, Type 0, BuildingBlock: MIFKUJ_clean_sbu_0, # of connection points: 6
#     Node 2, Type 0, BuildingBlock: MIFKUJ_clean_sbu_0, # of connection points: 6
#     Node 3, Type 1, BuildingBlock: PAMTOO_clean_linker_0, # of connection points: 3
#     Node 4, Type 1, BuildingBlock: PAMTOO_clean_linker_0, # of connection points: 3
#     Node 5, Type 1, BuildingBlock: PAMTOO_clean_linker_0, # of connection points: 3
#     Node 6, Type 1, BuildingBlock: PAMTOO_clean_linker_0, # of connection points: 3
#     Node 7, Type 1, BuildingBlock: PAMTOO_clean_linker_0, # of connection points: 3
#     Node 8, Type 1, BuildingBlock: PAMTOO_clean_linker_0, # of connection points: 3
#     Edge 9, Type (0, 1), BuildingBlock: FUNLAD_clean_linker_1, # of connection points: 2
#     Edge 10, Type (0, 1), BuildingBlock: FUNLAD_clean_linker_1, # of connection points: 2
#     Edge 11, Type (0, 1), BuildingBlock: FUNLAD_clean_linker_1, # of connection points: 2
#     Edge 12, Type (0, 1), BuildingBlock: FUNLAD_clean_linker_1, # of connection points: 2
#     Edge 13, Type (0, 1), BuildingBlock: FUNLAD_clean_linker_1, # of connection points: 2
#     Edge 14, Type (0, 1), BuildingBlock: FUNLAD_clean_linker_1, # of connection points: 2
#     Edge 15, Type (0, 1), BuildingBlock: FUNLAD_clean_linker_1, # of connection points: 2
#     Edge 16, Type (0, 1), BuildingBlock: FUNLAD_clean_linker_1, # of connection points: 2
#     Edge 17, Type (0, 1), BuildingBlock: FUNLAD_clean_linker_1, # of connection points: 2
#     Edge 18, Type (0, 1), BuildingBlock: FUNLAD_clean_linker_1, # of connection points: 2
#     Edge 19, Type (0, 1), BuildingBlock: FUNLAD_clean_linker_1, # of connection points: 2
#     Edge 20, Type (0, 1), BuildingBlock: FUNLAD_clean_linker_1, # of connection points: 2
#     Edge 21, Type (0, 1), BuildingBlock: FUNLAD_clean_linker_1, # of connection points: 2
#     Edge 22, Type (0, 1), BuildingBlock: FUNLAD_clean_linker_1, # of connection points: 2
#     Edge 23, Type (0, 1), BuildingBlock: FUNLAD_clean_linker_1, # of connection points: 2
#     Edge 24, Type (0, 1), BuildingBlock: FUNLAD_clean_linker_1, # of connection points: 2
#     Edge 25, Type (0, 1), BuildingBlock: FUNLAD_clean_linker_1, # of connection points: 2
#     Edge 26, Type (0, 1), BuildingBlock: FUNLAD_clean_linker_1, # of connection points: 2
# Relax obj value: 0.083
# Max RMSD: 0.147
# Mean RMSD: 0.110
data_MOF--net-anh--node1-MIFKUJ_clean_sbu_0--node2-PAMTOO_clean_linker_0--edge1-FUNLAD_clean_linker_1
_symmetry_space_group_name_H-M    P1
_symmetry_Int_Tables_number       1
_symmetry_cell_setting            triclinic
loop_
_symmetry_equiv_pos_as_xyz
'x, y, z'
_cell_length_a     32.959231
_cell_length_b     33.156318
_cell_length_c     48.380982
_cell_angle_alpha  88.54958
_cell_angle_beta   93.615962
_cell_angle_gamma 120.04203
loop_
_atom_site_label
_atom_site_type_symbol
_atom_site_fract_x
_atom_site_fract_y
_atom_site_fract_z
_atom_type_partial_charge
Zn0 Zn 0.08535 0.55362 0.15473 0.0
Zn1 Zn 0.95214 0.46255 0.16894 0.0
C2 C 0.16099 0.53741 0.15608 0.0
O3 O 0.1764 0.57241 0.17359 0.0
C4 C 0.88503 0.48185 0.14276 0.0
O5 O 0.88646 0.4545 0.12419 0.0
O6 O 0.12162 0.62238 0.14829 0.0
O7 O 0.02261 0.52768 0.13652 0.0
O8 O 0.97266 0.45422 0.13201 0.0
C9 C 0.15618 0.64172 0.133 0.0
O10 O 0.16866 0.61623 0.11941 0.0
O11 O 0.12061 0.52173 0.14387 0.0
C12 C 0.88012 0.39413 0.20005 0.0
O13 O 0.88824 0.43088 0.21428 0.0
O14 O 0.90539 0.39883 0.18014 0.0
O15 O 1.00201 0.49171 0.20128 0.0
O16 O 0.07758 0.5433 0.19533 0.0
O17 O 0.91353 0.49425 0.16395 0.0
C18 C 0.00663 0.49045 0.12273 0.0
C19 C 0.04407 0.51878 0.21085 0.0
Zn20 Zn 0.63078 0.09056 0.49661 0.0
Zn21 Zn 0.59359 0.96012 0.50481 0.0
C22 C 0.72597 0.16394 0.50498 0.0
O23 O 0.70563 0.17645 0.52273 0.0
C24 C 0.51182 0.88424 0.47654 0.0
O25 O 0.54393 0.88823 0.4602 0.0
O26 O 0.61131 0.13876 0.49463 0.0
O27 O 0.59365 0.0465 0.4653 0.0
O28 O 0.62106 0.99826 0.47055 0.0
C29 C 0.62749 0.17054 0.47656 0.0
O30 O 0.65539 0.17041 0.45836 0.0
O31 O 0.70131 0.12606 0.49135 0.0
C32 C 0.60442 0.8824 0.52076 0.0
O33 O 0.5624 0.8669 0.52981 0.0
O34 O 0.62585 0.92261 0.51017 0.0
O35 O 0.60179 0.99271 0.54142 0.0
O36 O 0.61949 0.06633 0.53502 0.0
O37 O 0.52389 0.91272 0.49671 0.0
C38 C 0.59933 0.01444 0.45589 0.0
C39 C 0.61029 0.03195 0.55068 0.0
Zn40 Zn 0.6528 0.52737 0.83396 0.0
Zn41 Zn 0.55986 0.58528 0.83629 0.0
C42 C 0.66122 0.44658 0.83739 0.0
O43 O 0.70008 0.47675 0.85106 0.0
C44 C 0.57408 0.67085 0.81644 0.0
O45 O 0.54431 0.64164 0.79748 0.0
O46 O 0.72217 0.5658 0.82712 0.0
O47 O 0.61088 0.54571 0.81298 0.0
O48 O 0.56111 0.5663 0.79694 0.0
C49 C 0.73822 0.55579 0.80674 0.0
O50 O 0.70886 0.52467 0.78847 0.0
O51 O 0.63283 0.45952 0.82757 0.0
C52 C 0.48322 0.57862 0.86475 0.0
O53 O 0.51753 0.60712 0.88204 0.0
O54 O 0.49236 0.56164 0.84436 0.0
O55 O 0.59425 0.56313 0.86457 0.0
O56 O 0.64237 0.53506 0.87364 0.0
O57 O 0.58911 0.6554 0.83652 0.0
C58 C 0.58862 0.5513 0.7924 0.0
C59 C 0.61566 0.54936 0.88188 0.0
H60 H 0.60679 0.08337 0.24743 0.0
H61 H 0.4796 0.95358 0.22965 0.0
H62 H 0.5564 0.04143 0.16306 0.0
H63 H 0.4549 0.99159 0.14751 0.0
C64 C 0.44437 0.96734 0.16534 0.0
O65 O 0.48226 0.96369 0.17578 0.0
H66 H 0.43136 0.98062 0.18157 0.0
C67 C 0.58102 0.05835 0.23264 0.0
C68 C 0.58573 0.06778 0.20419 0.0
C69 C 0.54338 0.01685 0.24212 0.0
C70 C 0.50945 0.98537 0.22277 0.0
C71 C 0.51441 0.99438 0.19435 0.0
C72 C 0.55286 0.03502 0.1851 0.0
H73 H 0.63437 0.60351 0.59469 0.0
H74 H 0.6673 0.49785 0.57411 0.0
H75 H 0.65609 0.58502 0.51049 0.0
H76 H 0.6288 0.49519 0.48493 0.0
C77 C 0.63341 0.48038 0.50494 0.0
O78 O 0.66989 0.51523 0.52076 0.0
H79 H 0.59996 0.46508 0.51574 0.0
C80 C 0.64146 0.58468 0.57956 0.0
C81 C 0.64433 0.59868 0.5519 0.0
C82 C 0.65 0.54861 0.588 0.0
C83 C 0.66071 0.52586 0.56808 0.0
C84 C 0.66231 0.53885 0.54016 0.0
C85 C 0.65494 0.57566 0.53215 0.0
H86 H 0.02298 0.55638 0.92149 0.0
H87 H 0.1548 0.56404 0.90854 0.0
H88 H 0.07241 0.57402 0.83936 0.0
H89 H 0.12652 0.52955 0.8215 0.0
C90 C 0.14606 0.53498 0.8419 0.0
O91 O 0.14946 0.57329 0.85484 0.0
H92 H 0.12676 0.50284 0.85439 0.0
C93 C 0.04897 0.55921 0.90773 0.0
C94 C 0.04259 0.56553 0.87932 0.0
C95 C 0.0892 0.55841 0.91858 0.0
C96 C 0.12341 0.56423 0.90057 0.0
C97 C 0.11701 0.56949 0.87208 0.0
C98 C 0.0769 0.57045 0.86147 0.0
H99 H 1.0008 0.44216 0.43223 0.0
H100 H 0.13465 0.56706 0.42674 0.0
H101 H 0.09026 0.50269 0.50587 0.0
H102 H 0.14203 0.6096 0.50652 0.0
C103 C 0.16161 0.6152 0.48759 0.0
O104 O 0.1577 0.57349 0.47977 0.0
H105 H 0.14632 0.62815 0.47089 0.0
C106 C 0.03369 0.46855 0.44211 0.0
C107 C 0.04217 0.46685 0.47076 0.0
C108 C 0.06662 0.50414 0.42602 0.0
C109 C 0.10898 0.53886 0.43881 0.0
C110 C 0.1174 0.53873 0.46762 0.0
C111 C 0.08377 0.50278 0.48364 0.0
H112 H 0.64372 0.98682 0.76793 0.0
H113 H 0.62543 0.10623 0.76676 0.0
H114 H 0.60834 0.02896 0.84206 0.0
H115 H 0.54277 0.07211 0.83402 0.0
C116 C 0.56402 0.09751 0.81814 0.0
O117 O 0.60795 0.10169 0.81903 0.0
H118 H 0.54555 0.08496 0.79741 0.0
C119 C 0.63553 0.00991 0.77867 0.0
C120 C 0.62468 0.00225 0.80663 0.0
C121 C 0.6349 0.04647 0.76402 0.0
C122 C 0.62554 0.0774 0.77777 0.0
C123 C 0.6163 0.07126 0.80592 0.0
C124 C 0.61598 0.03378 0.82037 0.0
H125 H 0.61978 0.53354 0.09019 0.0
H126 H 0.49147 0.53539 0.0972 0.0
H127 H 0.56042 0.51409 0.16957 0.0
H128 H 0.44955 0.46722 0.17426 0.0
C129 C 0.44686 0.48419 0.15469 0.0
O130 O 0.48949 0.5237 0.15073 0.0
H131 H 0.43664 0.45906 0.1372 0.0
C132 C 0.59154 0.52875 0.10258 0.0
C133 C 0.59394 0.52123 0.13129 0.0
C134 C 0.55416 0.53284 0.08992 0.0
C135 C 0.52001 0.5313 0.10646 0.0
C136 C 0.52214 0.52413 0.13502 0.0
C137 C 0.55893 0.5191 0.14738 0.0
H138 H 0.17262 0.48063 0.14313 0.0
C139 C 0.18978 0.51595 0.15135 0.0
H140 H 0.25305 0.57448 0.16568 0.0
H141 H 0.36919 0.48147 0.20622 0.0
H142 H 0.35888 0.51069 0.24907 0.0
H143 H 0.30535 0.54231 0.25026 0.0
H144 H 0.2619 0.54489 0.20868 0.0
C145 C 0.23636 0.53919 0.15743 0.0
C146 C 0.26609 0.51714 0.15643 0.0
C147 C 0.29114 0.51567 0.18107 0.0
C148 C 0.32219 0.49766 0.1804 0.0
C149 C 0.3461 0.4959 0.20539 0.0
C150 C 0.34021 0.5122 0.23021 0.0
C151 C 0.31007 0.52997 0.23088 0.0
C152 C 0.28553 0.53151 0.20674 0.0
H153 H 0.42128 0.53397 0.16161 0.0
C154 C 0.41011 0.49791 0.15671 0.0
H155 H 0.35257 0.4306 0.1485 0.0
H156 H 0.22665 0.51799 0.1047 0.0
H157 H 0.2348 0.48581 0.0625 0.0
H158 H 0.28539 0.4507 0.06208 0.0
H159 H 0.32854 0.44815 0.10393 0.0
C160 C 0.3641 0.4666 0.15368 0.0
C161 C 0.32832 0.48127 0.1551 0.0
C162 C 0.30184 0.48082 0.13074 0.0
C163 C 0.27144 0.49971 0.13121 0.0
C164 C 0.24832 0.50201 0.10602 0.0
C165 C 0.25314 0.48413 0.08148 0.0
C166 C 0.2817 0.46447 0.08122 0.0
C167 C 0.30619 0.46313 0.10543 0.0
H168 H 0.79257 0.18325 0.48573 0.0
C169 C 0.77563 0.19578 0.4989 0.0
H170 H 0.78185 0.2531 0.52075 0.0
H171 H 1.00084 0.37843 0.53202 0.0
H172 H 0.98238 0.3569 0.57975 0.0
H173 H 0.90236 0.2977 0.5915 0.0
H174 H 0.84041 0.25936 0.55558 0.0
C175 C 0.79871 0.24065 0.50746 0.0
C176 C 0.84753 0.2751 0.49984 0.0
C177 C 0.88348 0.29778 0.52108 0.0
C178 C 0.92955 0.33273 0.51435 0.0
C179 C 0.96492 0.35312 0.53598 0.0
C180 C 0.95491 0.34072 0.56349 0.0
C181 C 0.90988 0.30734 0.5701 0.0
C182 C 0.87455 0.28577 0.54925 0.0
H183 H 0.98981 0.43753 0.50287 0.0
C184 C 0.00541 0.42853 0.48673 0.0
H185 H 0.00378 0.37605 0.46258 0.0
H186 H 0.78598 0.24334 0.45393 0.0
H187 H 0.80462 0.26377 0.40635 0.0
H188 H 0.88502 0.32152 0.39447 0.0
H189 H 0.94678 0.35948 0.43008 0.0
C190 C 0.98697 0.38376 0.47863 0.0
C191 C 0.93957 0.34575 0.48635 0.0
C192 C 0.90382 0.32236 0.46502 0.0
C193 C 0.85765 0.2878 0.47178 0.0
C194 C 0.82213 0.26787 0.45011 0.0
C195 C 0.83219 0.27973 0.42258 0.0
C196 C 0.87738 0.3123 0.4159 0.0
C197 C 0.91271 0.33377 0.43673 0.0
H198 H 0.57632 0.73112 0.79527 0.0
C199 C 0.58719 0.72022 0.81437 0.0
H200 H 0.61722 0.74042 0.85511 0.0
H201 H 0.67591 0.93418 0.78056 0.0
H202 H 0.72743 0.9147 0.75782 0.0
H203 H 0.72906 0.84264 0.76956 0.0
H204 H 0.67897 0.7896 0.80408 0.0
C205 C 0.60839 0.75103 0.83526 0.0
C206 C 0.61458 0.7986 0.83232 0.0
C207 C 0.6451 0.82992 0.81278 0.0
C208 C 0.64435 0.87154 0.80618 0.0
C209 C 0.67461 0.90179 0.78617 0.0
C210 C 0.70458 0.89116 0.77306 0.0
C211 C 0.70548 0.8506 0.77966 0.0
C212 C 0.67634 0.82032 0.79937 0.0
H213 H 0.63647 0.96558 0.84276 0.0
C214 C 0.62311 0.96159 0.82129 0.0
H215 H 0.59228 0.91632 0.78683 0.0
H216 H 0.55582 0.74877 0.87309 0.0
H217 H 0.50498 0.76869 0.8963 0.0
H218 H 0.50289 0.84046 0.88443 0.0
H219 H 0.5519 0.89296 0.84939 0.0
C220 C 0.60668 0.92059 0.80807 0.0
C221 C 0.61341 0.88205 0.81929 0.0
C222 C 0.58518 0.85232 0.84019 0.0
C223 C 0.58606 0.81066 0.84686 0.0
C224 C 0.55659 0.78085 0.86725 0.0
C225 C 0.52721 0.79185 0.88071 0.0
C226 C 0.52606 0.83228 0.87404 0.0
C227 C 0.55448 0.8622 0.85394 0.0
H228 H 0.82469 0.48221 0.1211 0.0
C229 C 0.84599 0.49154 0.14049 0.0
H230 H 0.85223 0.51434 0.18188 0.0
H231 H 0.71637 0.595 0.14113 0.0
H232 H 0.78937 0.66682 0.15099 0.0
H233 H 0.86205 0.66579 0.16523 0.0
H234 H 0.86205 0.59258 0.1695 0.0
C235 C 0.83208 0.50528 0.16211 0.0
C236 C 0.787 0.50558 0.15958 0.0
C237 C 0.78721 0.54835 0.15813 0.0
C238 C 0.74505 0.5488 0.15037 0.0
C239 C 0.7469 0.59231 0.14756 0.0
C240 C 0.78872 0.63392 0.15304 0.0
C241 C 0.82966 0.63334 0.16102 0.0
C242 C 0.8292 0.59116 0.16339 0.0
H243 H 0.6424 0.52687 0.16702 0.0
C244 C 0.6341 0.51836 0.14508 0.0
H245 H 0.65099 0.49366 0.11019 0.0
H246 H 0.7728 0.41745 0.16728 0.0
H247 H 0.6988 0.34503 0.16058 0.0
H248 H 0.6259 0.34552 0.1462 0.0
H249 H 0.62636 0.41857 0.13905 0.0
C250 C 0.66071 0.50617 0.13142 0.0
C251 C 0.70267 0.5062 0.14466 0.0
C252 C 0.70181 0.46329 0.14858 0.0
C253 C 0.74393 0.46296 0.15634 0.0
C254 C 0.74197 0.41962 0.16064 0.0
C255 C 0.69972 0.37781 0.157 0.0
C256 C 0.65864 0.37811 0.14898 0.0
C257 C 0.65943 0.42024 0.14483 0.0
H258 H 0.45553 0.82248 0.45416 0.0
C259 C 0.46329 0.8446 0.47221 0.0
H260 H 0.43737 0.85391 0.50885 0.0
H261 H 0.24204 0.71053 0.43269 0.0
H262 H 0.26577 0.77405 0.40024 0.0
H263 H 0.34212 0.84629 0.40707 0.0
H264 H 0.39528 0.8553 0.44635 0.0
C265 C 0.42951 0.83346 0.49004 0.0
C266 C 0.38231 0.79032 0.48617 0.0
C267 C 0.3511 0.78571 0.46326 0.0
C268 C 0.30663 0.74414 0.45955 0.0
C269 C 0.27632 0.7409 0.43651 0.0
C270 C 0.28939 0.77727 0.41773 0.0
C271 C 0.33239 0.81791 0.42156 0.0
C272 C 0.36281 0.82243 0.44411 0.0
H273 H 0.22074 0.67261 0.51256 0.0
C274 C 0.2122 0.65224 0.49365 0.0
H275 H 0.23576 0.64575 0.45555 0.0
H276 H 0.43305 0.78758 0.53244 0.0
H277 H 0.40997 0.72358 0.56461 0.0
H278 H 0.33414 0.65084 0.55747 0.0
H279 H 0.28076 0.64178 0.51826 0.0
C280 C 0.24524 0.66452 0.47514 0.0
C281 C 0.29281 0.70732 0.47898 0.0
C282 C 0.32424 0.71179 0.50176 0.0
C283 C 0.3686 0.75349 0.50554 0.0
C284 C 0.39899 0.75689 0.52855 0.0
C285 C 0.38627 0.72032 0.54715 0.0
C286 C 0.34354 0.6794 0.54316 0.0
C287 C 0.31295 0.67486 0.52068 0.0
H288 H 0.68093 0.39236 0.83932 0.0
C289 C 0.6523 0.39883 0.83346 0.0
H290 H 0.58188 0.3692 0.81784 0.0
H291 H 0.57313 0.19462 0.76148 0.0
H292 H 0.55732 0.23271 0.72234 0.0
H293 H 0.56311 0.30912 0.7278 0.0
H294 H 0.58469 0.34806 0.77253 0.0
C295 C 0.61066 0.36323 0.82417 0.0
C296 C 0.60379 0.31537 0.82131 0.0
C297 C 0.59187 0.29346 0.79491 0.0
C298 C 0.58936 0.24966 0.79165 0.0
C299 C 0.57644 0.22822 0.76512 0.0
C300 C 0.56712 0.24964 0.74244 0.0
C301 C 0.57039 0.2927 0.74553 0.0
C302 C 0.58272 0.31459 0.77137 0.0
H303 H 0.54441 0.1449 0.83808 0.0
C304 C 0.56813 0.14383 0.82387 0.0
H305 H 0.61976 0.18101 0.79536 0.0
H306 H 0.61619 0.34169 0.87589 0.0
H307 H 0.63549 0.30563 0.91479 0.0
H308 H 0.64198 0.23562 0.90807 0.0
H309 H 0.62756 0.20039 0.86266 0.0
C310 C 0.598 0.18282 0.81071 0.0
C311 C 0.59952 0.22812 0.81468 0.0
C312 C 0.61131 0.25002 0.84113 0.0
C313 C 0.61132 0.29252 0.84464 0.0
C314 C 0.61881 0.31121 0.87172 0.0
C315 C 0.62944 0.29058 0.8943 0.0
C316 C 0.63282 0.25103 0.89054 0.0
C317 C 0.62396 0.23087 0.86434 0.0
H318 H 0.66202 0.86781 0.51596 0.0
C319 C 0.6255 0.85245 0.52092 0.0
H320 H 0.56282 0.7903 0.52893 0.0
H321 H 0.61944 0.65666 0.47477 0.0
H322 H 0.57137 0.66264 0.43642 0.0
H323 H 0.54568 0.72087 0.43741 0.0
H324 H 0.56764 0.77331 0.47676 0.0
C325 C 0.60003 0.80658 0.52549 0.0
C326 C 0.62039 0.77589 0.52344 0.0
C327 C 0.60771 0.74604 0.50012 0.0
C328 C 0.62274 0.71273 0.49944 0.0
C329 C 0.60889 0.68261 0.47623 0.0
C330 C 0.58143 0.68575 0.45411 0.0
C331 C 0.56696 0.71853 0.45467 0.0
C332 C 0.57974 0.74835 0.47738 0.0
H333 H 0.61434 0.64354 0.55855 0.0
C334 C 0.63566 0.6374 0.54482 0.0
H335 H 0.67897 0.66441 0.51067 0.0
H336 H 0.65311 0.82985 0.57061 0.0
H337 H 0.70578 0.82748 0.60712 0.0
H338 H 0.73543 0.77259 0.60451 0.0
H339 H 0.71198 0.71932 0.56548 0.0
C340 C 0.65657 0.66822 0.52463 0.0
C341 C 0.65014 0.70941 0.52211 0.0
C342 C 0.66641 0.74216 0.5442 0.0
C343 C 0.6507 0.77485 0.54518 0.0
C344 C 0.66495 0.80507 0.56841 0.0
C345 C 0.69509 0.804 0.58958 0.0
C346 C 0.71169 0.77303 0.58815 0.0
C347 C 0.6977 0.74243 0.56576 0.0
H348 H 0.80068 0.5628 0.7881 0.0
C349 C 0.78838 0.57002 0.80666 0.0
H350 H 0.80433 0.5892 0.84898 0.0
H351 H 0.93998 0.49959 0.83 0.0
H352 H 0.86706 0.42648 0.8224 0.0
H353 H 0.79085 0.42398 0.82042 0.0
H354 H 0.78712 0.49438 0.82534 0.0
C355 C 0.81624 0.58264 0.83005 0.0
C356 C 0.86208 0.58366 0.83173 0.0
C357 C 0.86331 0.54156 0.82991 0.0
C358 C 0.90704 0.54255 0.83257 0.0
C359 C 0.90756 0.50048 0.82927 0.0
C360 C 0.866 0.45832 0.82474 0.0
C361 C 0.82313 0.45694 0.82351 0.0
C362 C 0.82156 0.49787 0.82613 0.0
H363 H 0.96954 0.54958 0.88277 0.0
C364 C 0.99887 0.56531 0.86935 0.0
H365 H 0.02309 0.60413 0.83258 0.0
H366 H 0.87219 0.67034 0.83564 0.0
H367 H 0.9451 0.74298 0.84487 0.0
H368 H 0.02053 0.74415 0.85136 0.0
H369 H 0.02365 0.67278 0.84852 0.0
C370 C 0.99389 0.58508 0.84572 0.0
C371 C 0.94917 0.58507 0.83863 0.0
C372 C 0.94802 0.62714 0.84007 0.0
C373 C 0.90444 0.62642 0.83661 0.0
C374 C 0.90429 0.66891 0.83833 0.0
C375 C 0.94587 0.71083 0.84358 0.0
C376 C 0.98835 0.71148 0.84722 0.0
C377 C 0.98964 0.67026 0.84554 0.0
H378 H 0.17067 0.71276 0.14133 0.0
C379 C 0.1857 0.69254 0.13413 0.0
H380 H 0.24748 0.69351 0.12379 0.0
H381 H 0.36652 0.9086 0.10105 0.0
H382 H 0.35717 0.8766 0.05497 0.0
H383 H 0.30418 0.79275 0.04555 0.0
H384 H 0.26034 0.74043 0.08211 0.0
C385 C 0.23185 0.71343 0.13059 0.0
C386 C 0.2632 0.76388 0.13641 0.0
C387 C 0.28831 0.79387 0.11473 0.0
C388 C 0.31897 0.84208 0.12016 0.0
C389 C 0.34341 0.87149 0.09813 0.0
C390 C 0.33814 0.85364 0.07156 0.0
C391 C 0.30828 0.80644 0.06625 0.0
C392 C 0.28341 0.77677 0.08746 0.0
H393 H 0.41614 0.89487 0.1498 0.0
C394 C 0.40639 0.92022 0.15568 0.0
H395 H 0.35076 0.93337 0.16018 0.0
H396 H 0.2257 0.71504 0.18395 0.0
H397 H 0.23428 0.74754 0.22955 0.0
H398 H 0.28345 0.83212 0.23807 0.0
H399 H 0.32488 0.88449 0.20095 0.0
C400 C 0.36115 0.90871 0.15398 0.0
C401 C 0.32451 0.86003 0.14726 0.0
C402 C 0.2986 0.83036 0.16881 0.0
C403 C 0.26884 0.78192 0.16362 0.0
C404 C 0.24668 0.75245 0.18618 0.0
C405 C 0.25179 0.7706 0.21265 0.0
C406 C 0.27957 0.81817 0.21746 0.0
C407 C 0.3031 0.84783 0.19595 0.0
H408 H 0.59251 0.20623 0.49216 0.0
C409 C 0.61921 0.20984 0.47859 0.0
H410 H 0.6737 0.2556 0.45331 0.0
H411 H 0.59415 0.39473 0.43808 0.0
H412 H 0.58475 0.36617 0.39109 0.0
H413 H 0.60063 0.30299 0.3809 0.0
H414 H 0.62635 0.26821 0.41762 0.0
C415 C 0.64671 0.25113 0.46688 0.0
C416 C 0.64115 0.29182 0.47264 0.0
C417 C 0.62601 0.31154 0.45095 0.0
C418 C 0.6163 0.34752 0.45689 0.0
C419 C 0.60154 0.36694 0.4348 0.0
C420 C 0.59607 0.35092 0.40771 0.0
C421 C 0.60503 0.31537 0.40197 0.0
C422 C 0.61977 0.29571 0.42325 0.0
H423 H 0.68077 0.45059 0.50209 0.0
C424 C 0.64456 0.44289 0.49944 0.0
H425 H 0.57499 0.3936 0.48649 0.0
H426 H 0.67939 0.26857 0.51802 0.0
H427 H 0.68673 0.29529 0.56521 0.0
H428 H 0.66197 0.35169 0.57636 0.0
H429 H 0.63102 0.38259 0.54028 0.0
C430 C 0.61078 0.40064 0.49054 0.0
C431 C 0.62158 0.36345 0.48452 0.0
C432 C 0.63732 0.34407 0.5062 0.0
C433 C 0.64873 0.30939 0.50007 0.0
C434 C 0.6677 0.29306 0.52174 0.0
C435 C 0.67252 0.30844 0.5489 0.0
C436 C 0.6588 0.34034 0.55515 0.0
C437 C 0.64139 0.35807 0.53416 0.0
H438 H 0.42742 0.57929 0.88726 0.0
C439 C 0.43565 0.57116 0.86748 0.0
H440 H 0.41261 0.55202 0.82568 0.0
H441 H 0.19599 0.45995 0.84367 0.0
H442 H 0.20167 0.39355 0.82923 0.0
H443 H 0.2788 0.40067 0.82338 0.0
H444 H 0.3507 0.4742 0.83194 0.0
C445 C 0.40449 0.55968 0.84563 0.0
C446 C 0.358 0.55637 0.84795 0.0
C447 C 0.31626 0.51314 0.84271 0.0
C448 C 0.27175 0.50905 0.84601 0.0
C449 C 0.23069 0.46521 0.84116 0.0
C450 C 0.23344 0.42673 0.83296 0.0
C451 C 0.27686 0.43074 0.82967 0.0
C452 C 0.31789 0.47324 0.83459 0.0
H453 H 0.20523 0.54632 0.81649 0.0
C454 C 0.19414 0.54272 0.83753 0.0
H455 H 0.21204 0.54081 0.87999 0.0
H456 H 0.4303 0.64676 0.85404 0.0
H457 H 0.42424 0.71341 0.86733 0.0
H458 H 0.34734 0.7052 0.87547 0.0
H459 H 0.2758 0.63024 0.8698 0.0
C460 C 0.22264 0.54363 0.85888 0.0
C461 C 0.26904 0.54827 0.85439 0.0
C462 C 0.31061 0.59183 0.8588 0.0
C463 C 0.35511 0.59618 0.85503 0.0
C464 C 0.39578 0.64085 0.85786 0.0
C465 C 0.39277 0.67958 0.86523 0.0
C466 C 0.34945 0.67499 0.86973 0.0
C467 C 0.3087 0.63176 0.86648 0.0
H468 H 0.81876 0.34572 0.22301 0.0
C469 C 0.83894 0.34879 0.20535 0.0
H470 H 0.84251 0.31579 0.16944 0.0
H471 H 0.69277 0.14476 0.24935 0.0
H472 H 0.76084 0.16387 0.28021 0.0
H473 H 0.83854 0.23049 0.27058 0.0
H474 H 0.84837 0.27851 0.2301 0.0
C475 C 0.82405 0.31256 0.18794 0.0
C476 C 0.7791 0.26912 0.19184 0.0
C477 C 0.77433 0.24091 0.21527 0.0
C478 C 0.72984 0.20214 0.22052 0.0
C479 C 0.72577 0.17474 0.2443 0.0
C480 C 0.76462 0.18523 0.26218 0.0
C481 C 0.80833 0.22275 0.25678 0.0
C482 C 0.81339 0.25027 0.23358 0.0
H483 H 0.64164 0.10916 0.17549 0.0
C484 C 0.62603 0.11085 0.19425 0.0
H485 H 0.62871 0.15374 0.22672 0.0
H486 H 0.77748 0.31451 0.14394 0.0
H487 H 0.70984 0.29402 0.11228 0.0
H488 H 0.63239 0.22666 0.12147 0.0
H489 H 0.62221 0.17923 0.16234 0.0
C490 C 0.64442 0.15122 0.20824 0.0
C491 C 0.69064 0.19112 0.20193 0.0
C492 C 0.69576 0.21823 0.17791 0.0
C493 C 0.74026 0.25724 0.17276 0.0
C494 C 0.74452 0.28429 0.14882 0.0
C495 C 0.70595 0.27296 0.13047 0.0
C496 C 0.66234 0.23504 0.13565 0.0
C497 C 0.65704 0.20798 0.15912 0.0
H498 H 0.99998 0.46069 0.08143 0.0
C499 C 0.02252 0.49023 0.09495 0.0
H500 H 0.08274 0.5565 0.09865 0.0
H501 H 0.07259 0.4601 0.97458 0.0
H502 H 0.0784 0.39924 0.00054 0.0
H503 H 0.08251 0.39977 0.05165 0.0
H504 H 0.07995 0.46061 0.07712 0.0
C505 C 0.06074 0.52696 0.08512 0.0
C506 C 0.06897 0.53157 0.05493 0.0
C507 C 0.07253 0.49687 0.04044 0.0
C508 C 0.07174 0.4974 0.011 0.0
C509 C 0.07342 0.46139 0.99695 0.0
C510 C 0.07691 0.42641 0.01159 0.0
C511 C 0.07913 0.42665 0.04038 0.0
C512 C 0.07716 0.46148 0.05474 0.0
H513 H 0.13307 0.57174 0.95773 0.0
C514 C 0.09718 0.55426 0.94884 0.0
H515 H 0.02562 0.51115 0.95715 0.0
H516 H 0.06837 0.60751 0.07628 0.0
H517 H 0.06867 0.67087 0.05035 0.0
H518 H 0.06919 0.67246 0.99938 0.0
H519 H 0.06943 0.61046 0.97409 0.0
C520 C 0.06164 0.53089 0.96558 0.0
C521 C 0.06926 0.53355 0.99622 0.0
C522 C 0.06996 0.57047 0.01076 0.0
C523 C 0.06985 0.56957 0.04017 0.0
C524 C 0.06902 0.60631 0.05403 0.0
C525 C 0.06906 0.64303 0.03937 0.0
C526 C 0.06934 0.64392 0.01068 0.0
C527 C 0.06953 0.60808 0.99643 0.0
H528 H 0.60996 0.98945 0.41662 0.0
C529 C 0.59215 0.00546 0.42584 0.0
H530 H 0.54891 0.03519 0.41883 0.0
H531 H 0.61041 0.10829 0.29946 0.0
H532 H 0.64087 0.18007 0.32557 0.0
H533 H 0.63856 0.17904 0.37646 0.0
H534 H 0.60553 0.10629 0.40147 0.0
C535 C 0.56634 0.01875 0.40966 0.0
C536 C 0.56685 0.01848 0.37898 0.0
C537 C 0.58671 0.06153 0.36473 0.0
C538 C 0.58887 0.06221 0.33549 0.0
C539 C 0.60843 0.10568 0.32172 0.0
C540 C 0.626 0.14722 0.33645 0.0
C541 C 0.62463 0.14664 0.36508 0.0
C542 C 0.60536 0.10448 0.37917 0.0
H543 H 0.50331 0.98826 0.27977 0.0
C544 C 0.53842 0.00714 0.27218 0.0
H545 H 0.61126 0.03965 0.28289 0.0
H546 H 0.52147 0.92964 0.39949 0.0
H547 H 0.49413 0.85809 0.37356 0.0
H548 H 0.50321 0.8598 0.32323 0.0
H549 H 0.53886 0.93305 0.29846 0.0
C550 C 0.57597 0.02173 0.29018 0.0
C551 C 0.57161 0.01992 0.32058 0.0
C552 C 0.5519 0.97688 0.33479 0.0
C553 C 0.54859 0.97607 0.364 0.0
C554 C 0.52666 0.93247 0.37752 0.0
C555 C 0.51049 0.89108 0.36284 0.0
C556 C 0.51546 0.89204 0.3345 0.0
C557 C 0.53582 0.93432 0.32051 0.0
H558 H 0.56264 0.52996 0.74936 0.0
C559 C 0.59265 0.54001 0.76397 0.0
H560 H 0.66522 0.56403 0.76829 0.0
H561 H 0.60613 0.45624 0.64642 0.0
H562 H 0.59358 0.38941 0.67429 0.0
H563 H 0.60238 0.39505 0.72531 0.0
H564 H 0.62294 0.46727 0.74883 0.0
C565 C 0.63375 0.5491 0.75462 0.0
C566 C 0.63824 0.54829 0.72436 0.0
C567 C 0.62759 0.50642 0.71095 0.0
C568 C 0.62375 0.50367 0.68151 0.0
C569 C 0.61071 0.46065 0.66867 0.0
C570 C 0.6032 0.42197 0.68444 0.0
C571 C 0.60799 0.42506 0.71318 0.0
C572 C 0.61977 0.46664 0.72641 0.0
H573 H 0.67774 0.52926 0.62591 0.0
C574 C 0.65109 0.53729 0.61782 0.0
H575 H 0.59526 0.54763 0.62705 0.0
H576 H 0.66472 0.63521 0.74403 0.0
H577 H 0.68069 0.7033 0.71651 0.0
H578 H 0.67551 0.69932 0.66545 0.0
H579 H 0.65426 0.62739 0.64171 0.0
C580 C 0.6224 0.54032 0.63517 0.0
C581 C 0.63162 0.54331 0.66572 0.0
C582 C 0.64524 0.58609 0.67928 0.0
C583 C 0.64859 0.58856 0.70864 0.0
C584 C 0.66147 0.63144 0.72171 0.0
C585 C 0.67088 0.67082 0.70619 0.0
C586 C 0.66794 0.66857 0.67746 0.0
C587 C 0.65543 0.6269 0.66407 0.0
H588 H 0.60978 0.07024 0.58688 0.0
C589 C 0.61051 0.03938 0.58054 0.0
H590 H 0.61527 0.98079 0.5942 0.0
H591 H 0.68774 0.13219 0.70086 0.0
H592 H 0.7523 0.18386 0.67282 0.0
H593 H 0.75668 0.16131 0.62536 0.0
H594 H 0.69628 0.08746 0.60552 0.0
C595 C 0.61463 0.01191 0.6 0.0
C596 C 0.61637 0.02264 0.62991 0.0
C597 C 0.65321 0.06518 0.64157 0.0
C598 C 0.65182 0.07735 0.66932 0.0
C599 C 0.68782 0.12081 0.68011 0.0
C600 C 0.72499 0.15082 0.66423 0.0
C601 C 0.72736 0.13819 0.63748 0.0
C602 C 0.69215 0.09586 0.62623 0.0
H603 H 0.66645 0.03919 0.72696 0.0
C604 C 0.64256 0.04986 0.73411 0.0
H605 H 0.5876 0.06295 0.7219 0.0
H606 H 0.54213 0.93704 0.61463 0.0
H607 H 0.48067 0.88343 0.64377 0.0
H608 H 0.47988 0.90348 0.69242 0.0
H609 H 0.54035 0.97742 0.71215 0.0
C610 C 0.615 0.05682 0.71535 0.0
C611 C 0.61485 0.04612 0.68572 0.0
C612 C 0.57912 0.00281 0.67447 0.0
C613 C 0.57988 0.99103 0.64653 0.0
C614 C 0.54355 0.94766 0.63579 0.0
C615 C 0.508 0.91653 0.65229 0.0
C616 C 0.50754 0.92782 0.67967 0.0
C617 C 0.5425 0.97042 0.69073 0.0
H618 H 0.63453 0.54416 0.9257 0.0
C619 C 0.61043 0.54967 0.91188 0.0
H620 H 0.54971 0.55618 0.90932 0.0
H621 H 0.49456 0.45039 0.0254 0.0
H622 H 0.4367 0.39063 0.99379 0.0
H623 H 0.43922 0.4029 0.94327 0.0
H624 H 0.49958 0.47499 0.924 0.0
C625 C 0.57602 0.55359 0.92267 0.0
C626 C 0.57053 0.54906 0.95308 0.0
C627 C 0.53445 0.50716 0.96396 0.0
C628 C 0.53306 0.50001 0.99307 0.0
C629 C 0.49728 0.45747 0.00343 0.0
C630 C 0.46385 0.42295 0.98553 0.0
C631 C 0.46526 0.42987 0.95708 0.0
C632 C 0.50009 0.47138 0.94629 0.0
H633 H 0.53318 0.55921 0.05225 0.0
C634 C 0.5513 0.54085 0.05969 0.0
H635 H 0.58462 0.50406 0.04772 0.0
H636 H 0.64001 0.6358 0.9391 0.0
H637 H 0.69755 0.69578 0.97071 0.0
H638 H 0.69643 0.68264 0.02115 0.0
H639 H 0.6376 0.60968 0.04033 0.0
C640 C 0.56922 0.52529 0.04124 0.0
C641 C 0.56745 0.53494 0.01119 0.0
C642 C 0.60219 0.57774 0.00039 0.0
C643 C 0.60347 0.58495 0.97129 0.0
C644 C 0.63817 0.62818 0.96101 0.0
C645 C 0.67123 0.66295 0.97893 0.0
C646 C 0.67054 0.65558 0.00733 0.0
C647 C 0.63654 0.61354 0.01807 0.0
H648 H 0.09254 0.53745 0.24778 0.0
C649 C 0.05564 0.52168 0.24092 0.0
H650 H 0.98621 0.49124 0.25344 0.0
H651 H 0.03374 0.42753 0.36968 0.0
H652 H 0.97622 0.35412 0.34825 0.0
H653 H 0.94589 0.35101 0.29996 0.0
H654 H 0.97319 0.42132 0.27281 0.0
C655 C 0.02324 0.50729 0.25992 0.0
C656 C 0.03708 0.5103 0.29012 0.0
C657 C 0.01999 0.46889 0.3059 0.0
C658 C 0.03662 0.47083 0.33399 0.0
C659 C 0.02085 0.42855 0.34872 0.0
C660 C 0.98818 0.38597 0.33655 0.0
C661 C 0.97118 0.38421 0.30935 0.0
C662 C 0.98711 0.42496 0.29402 0.0
H663 H 0.01713 0.49091 0.38995 0.0
C664 C 0.05407 0.50478 0.39616 0.0
H665 H 0.12194 0.53057 0.38186 0.0
H666 H 0.07026 0.59725 0.26755 0.0
H667 H 0.12653 0.67095 0.28931 0.0
H668 H 0.15754 0.67402 0.33744 0.0
H669 H 0.13197 0.60339 0.36415 0.0
C670 C 0.08491 0.51728 0.37639 0.0
C671 C 0.0692 0.51445 0.34656 0.0
C672 C 0.0856 0.5559 0.33094 0.0
C673 C 0.06884 0.55398 0.30289 0.0
C674 C 0.08358 0.59633 0.28842 0.0
C675 C 0.11546 0.63901 0.30079 0.0
C676 C 0.13282 0.64075 0.3279 0.0
C677 C 0.11792 0.59987 0.34297 0.0
loop_
_geom_bond_atom_site_label_1
_geom_bond_atom_site_label_2
_geom_bond_distance
_geom_bond_site_symmetry_2
_ccdc_geom_bond_type
Zn0 O6 1.969 . S
Zn0 O7 1.965 . S
Zn0 O11 2.024 . S
Zn0 O16 1.969 . S
Zn1 O8 1.969 . S
Zn1 O14 1.969 . S
Zn1 O15 1.965 . S
Zn1 O17 2.024 . S
C2 O3 1.229 . S
C2 O11 1.058 . S
O3 C2 1.229 . S
C4 O5 1.229 . S
C4 O17 1.058 . S
O5 C4 1.229 . S
O6 Zn0 1.969 . S
O6 C9 1.267 . S
O7 Zn0 1.965 . S
O7 C18 1.260 . S
O8 Zn1 1.969 . S
O8 C18 1.258 1_655 S
C9 O6 1.267 . S
C9 O10 1.228 . S
O10 C9 1.228 . S
O11 Zn0 2.024 . S
O11 C2 1.058 . S
C12 O13 1.228 . S
C12 O14 1.267 . S
O13 C12 1.228 . S
O14 Zn1 1.969 . S
O14 C12 1.267 . S
O15 Zn1 1.965 . S
O15 C19 1.260 1_655 S
O16 Zn0 1.969 . S
O16 C19 1.258 . S
O17 Zn1 2.024 . S
O17 C4 1.058 . S
C18 O7 1.260 . S
C18 O8 1.258 1_455 S
C19 O15 1.260 1_455 S
C19 O16 1.258 . S
Zn20 O26 1.969 . S
Zn20 O27 1.965 . S
Zn20 O31 2.024 . S
Zn20 O36 1.969 . S
Zn21 O28 1.969 . S
Zn21 O34 1.969 . S
Zn21 O35 1.965 1_565 S
Zn21 O37 2.024 . S
C22 O23 1.229 . S
C22 O31 1.058 . S
O23 C22 1.229 . S
C24 O25 1.229 . S
C24 O37 1.058 . S
O25 C24 1.229 . S
O26 Zn20 1.969 . S
O26 C29 1.267 . S
O27 Zn20 1.965 . S
O27 C38 1.260 . S
O28 Zn21 1.969 . S
O28 C38 1.258 1_565 S
C29 O26 1.267 . S
C29 O30 1.228 . S
O30 C29 1.228 . S
O31 Zn20 2.024 . S
O31 C22 1.058 . S
C32 O33 1.228 . S
C32 O34 1.267 . S
O33 C32 1.228 . S
O34 Zn21 1.969 . S
O34 C32 1.267 . S
O35 Zn21 1.965 1_545 S
O35 C39 1.260 . S
O36 Zn20 1.969 . S
O36 C39 1.258 . S
O37 Zn21 2.024 . S
O37 C24 1.058 . S
C38 O27 1.260 . S
C38 O28 1.258 1_545 S
C39 O35 1.260 . S
C39 O36 1.258 . S
Zn40 O46 1.969 . S
Zn40 O47 1.965 . S
Zn40 O51 2.024 . S
Zn40 O56 1.969 . S
Zn41 O48 1.969 . S
Zn41 O54 1.969 . S
Zn41 O55 1.965 . S
Zn41 O57 2.024 . S
C42 O43 1.229 . S
C42 O51 1.058 . S
O43 C42 1.229 . S
C44 O45 1.229 . S
C44 O57 1.058 . S
O45 C44 1.229 . S
O46 Zn40 1.969 . S
O46 C49 1.267 . S
O47 Zn40 1.965 . S
O47 C58 1.260 . S
O48 Zn41 1.969 . S
O48 C58 1.258 . S
C49 O46 1.267 . S
C49 O50 1.228 . S
O50 C49 1.228 . S
O51 Zn40 2.024 . S
O51 C42 1.058 . S
C52 O53 1.228 . S
C52 O54 1.267 . S
O53 C52 1.228 . S
O54 Zn41 1.969 . S
O54 C52 1.267 . S
O55 Zn41 1.965 . S
O55 C59 1.260 . S
O56 Zn40 1.969 . S
O56 C59 1.258 . S
O57 Zn41 2.024 . S
O57 C44 1.058 . S
C58 O47 1.260 . S
C58 O48 1.258 . S
C59 O55 1.260 . S
C59 O56 1.258 . S
H60 C67 0.929 . S
H61 C70 0.930 1_565 S
H62 C72 0.929 . S
H63 C64 0.969 . S
C64 H63 0.969 . S
C64 O65 1.550 . S
C64 H66 0.973 . S
O65 C64 1.550 . S
O65 C71 1.412 1_565 S
H66 C64 0.973 . S
C67 H60 0.929 . S
C67 C68 1.400 . S
C67 C69 1.364 . S
C68 C67 1.400 . S
C68 C72 1.377 . S
C69 C67 1.364 . S
C69 C70 1.374 . S
C70 H61 0.930 1_545 S
C70 C69 1.374 . S
C70 C71 1.383 . S
C71 O65 1.412 1_545 S
C71 C70 1.383 . S
C71 C72 1.394 . S
C72 H62 0.929 . S
C72 C68 1.377 . S
C72 C71 1.394 . S
H73 C80 0.929 . S
H74 C83 0.930 . S
H75 C85 0.929 . S
H76 C77 0.969 . S
C77 H76 0.969 . S
C77 O78 1.550 . S
C77 H79 0.973 . S
O78 C77 1.550 . S
O78 C84 1.412 . S
H79 C77 0.973 . S
C80 H73 0.929 . S
C80 C81 1.400 . S
C80 C82 1.364 . S
C81 C80 1.400 . S
C81 C85 1.377 . S
C82 C80 1.364 . S
C82 C83 1.374 . S
C83 H74 0.930 . S
C83 C82 1.374 . S
C83 C84 1.383 . S
C84 O78 1.412 . S
C84 C83 1.383 . S
C84 C85 1.394 . S
C85 H75 0.929 . S
C85 C81 1.377 . S
C85 C84 1.394 . S
H86 C93 0.929 . S
H87 C96 0.930 . S
H88 C98 0.929 . S
H89 C90 0.969 . S
C90 H89 0.969 . S
C90 O91 1.550 . S
C90 H92 0.973 . S
O91 C90 1.550 . S
O91 C97 1.412 . S
H92 C90 0.973 . S
C93 H86 0.929 . S
C93 C94 1.400 . S
C93 C95 1.364 . S
C94 C93 1.400 . S
C94 C98 1.377 . S
C95 C93 1.364 . S
C95 C96 1.374 . S
C96 H87 0.930 . S
C96 C95 1.374 . S
C96 C97 1.383 . S
C97 O91 1.412 . S
C97 C96 1.383 . S
C97 C98 1.394 . S
C98 H88 0.929 . S
C98 C94 1.377 . S
C98 C97 1.394 . S
H99 C106 0.929 . S
H100 C109 0.930 . S
H101 C111 0.929 . S
H102 C103 0.969 . S
C103 H102 0.969 . S
C103 O104 1.550 . S
C103 H105 0.973 . S
O104 C103 1.550 . S
O104 C110 1.412 . S
H105 C103 0.973 . S
C106 H99 0.929 . S
C106 C107 1.400 . S
C106 C108 1.364 . S
C107 C106 1.400 . S
C107 C111 1.377 . S
C108 C106 1.364 . S
C108 C109 1.374 . S
C109 H100 0.930 . S
C109 C108 1.374 . S
C109 C110 1.383 . S
C110 O104 1.412 . S
C110 C109 1.383 . S
C110 C111 1.394 . S
C111 H101 0.929 . S
C111 C107 1.377 . S
C111 C110 1.394 . S
H112 C119 0.929 . S
H113 C122 0.930 . S
H114 C124 0.929 . S
H115 C116 0.969 . S
C116 H115 0.969 . S
C116 O117 1.550 . S
C116 H118 0.973 . S
O117 C116 1.550 . S
O117 C123 1.412 . S
H118 C116 0.973 . S
C119 H112 0.929 . S
C119 C120 1.400 . S
C119 C121 1.364 1_565 S
C120 C119 1.400 . S
C120 C124 1.377 1_565 S
C121 C119 1.364 1_545 S
C121 C122 1.374 . S
C122 H113 0.930 . S
C122 C121 1.374 . S
C122 C123 1.383 . S
C123 O117 1.412 . S
C123 C122 1.383 . S
C123 C124 1.394 . S
C124 H114 0.929 . S
C124 C120 1.377 1_545 S
C124 C123 1.394 . S
H125 C132 0.929 . S
H126 C135 0.930 . S
H127 C137 0.929 . S
H128 C129 0.969 . S
C129 H128 0.969 . S
C129 O130 1.550 . S
C129 H131 0.973 . S
O130 C129 1.550 . S
O130 C136 1.412 . S
H131 C129 0.973 . S
C132 H125 0.929 . S
C132 C133 1.400 . S
C132 C134 1.364 . S
C133 C132 1.400 . S
C133 C137 1.377 . S
C134 C132 1.364 . S
C134 C135 1.374 . S
C135 H126 0.930 . S
C135 C134 1.374 . S
C135 C136 1.383 . S
C136 O130 1.412 . S
C136 C135 1.383 . S
C136 C137 1.394 . S
C137 H127 0.929 . S
C137 C133 1.377 . S
C137 C136 1.394 . S
H138 C139 0.951 . S
C139 H138 0.951 . S
C139 C145 1.265 . S
H140 C145 0.950 . S
H141 C149 0.949 . S
H142 C150 0.950 . S
H143 C151 0.951 . S
H144 C152 0.951 . S
C145 C139 1.265 . S
C145 H140 0.950 . S
C145 C146 1.478 . S
C146 C145 1.478 . S
C146 C147 1.397 . S
C146 C163 1.394 . S
C147 C146 1.397 . S
C147 C148 1.438 . S
C147 C152 1.429 . S
C148 C147 1.438 . S
C148 C149 1.428 . S
C148 C161 1.394 . S
C149 H141 0.949 . S
C149 C148 1.428 . S
C149 C150 1.345 . S
C150 H142 0.950 . S
C150 C149 1.345 . S
C150 C151 1.424 . S
C151 H143 0.951 . S
C151 C150 1.424 . S
C151 C152 1.347 . S
C152 H144 0.951 . S
C152 C147 1.429 . S
C152 C151 1.347 . S
H153 C154 0.951 . S
C154 H153 0.951 . S
C154 C160 1.265 . S
H155 C160 0.950 . S
H156 C164 0.949 . S
H157 C165 0.950 . S
H158 C166 0.951 . S
H159 C167 0.951 . S
C160 C154 1.265 . S
C160 H155 0.950 . S
C160 C161 1.478 . S
C161 C148 1.394 . S
C161 C160 1.478 . S
C161 C162 1.397 . S
C162 C161 1.397 . S
C162 C163 1.438 . S
C162 C167 1.429 . S
C163 C146 1.394 . S
C163 C162 1.438 . S
C163 C164 1.428 . S
C164 H156 0.949 . S
C164 C163 1.428 . S
C164 C165 1.345 . S
C165 H157 0.950 . S
C165 C164 1.345 . S
C165 C166 1.424 . S
C166 H158 0.951 . S
C166 C165 1.424 . S
C166 C167 1.347 . S
C167 H159 0.951 . S
C167 C162 1.429 . S
C167 C166 1.347 . S
H168 C169 0.951 . S
C169 H168 0.951 . S
C169 C175 1.265 . S
H170 C175 0.950 . S
H171 C179 0.949 . S
H172 C180 0.950 . S
H173 C181 0.951 . S
H174 C182 0.951 . S
C175 C169 1.265 . S
C175 H170 0.950 . S
C175 C176 1.478 . S
C176 C175 1.478 . S
C176 C177 1.397 . S
C176 C193 1.394 . S
C177 C176 1.397 . S
C177 C178 1.438 . S
C177 C182 1.429 . S
C178 C177 1.438 . S
C178 C179 1.428 . S
C178 C191 1.394 . S
C179 H171 0.949 . S
C179 C178 1.428 . S
C179 C180 1.345 . S
C180 H172 0.950 . S
C180 C179 1.345 . S
C180 C181 1.424 . S
C181 H173 0.951 . S
C181 C180 1.424 . S
C181 C182 1.347 . S
C182 H174 0.951 . S
C182 C177 1.429 . S
C182 C181 1.347 . S
H183 C184 0.951 . S
C184 H183 0.951 . S
C184 C190 1.265 . S
H185 C190 0.950 1_455 S
H186 C194 0.949 . S
H187 C195 0.950 . S
H188 C196 0.951 . S
H189 C197 0.951 . S
C190 C184 1.265 . S
C190 H185 0.950 1_655 S
C190 C191 1.478 . S
C191 C178 1.394 . S
C191 C190 1.478 . S
C191 C192 1.397 . S
C192 C191 1.397 . S
C192 C193 1.438 . S
C192 C197 1.429 . S
C193 C176 1.394 . S
C193 C192 1.438 . S
C193 C194 1.428 . S
C194 H186 0.949 . S
C194 C193 1.428 . S
C194 C195 1.345 . S
C195 H187 0.950 . S
C195 C194 1.345 . S
C195 C196 1.424 . S
C196 H188 0.951 . S
C196 C195 1.424 . S
C196 C197 1.347 . S
C197 H189 0.951 . S
C197 C192 1.429 . S
C197 C196 1.347 . S
H198 C199 0.951 . S
C199 H198 0.951 . S
C199 C205 1.265 . S
H200 C205 0.950 . S
H201 C209 0.949 . S
H202 C210 0.950 . S
H203 C211 0.951 . S
H204 C212 0.951 . S
C205 C199 1.265 . S
C205 H200 0.950 . S
C205 C206 1.478 . S
C206 C205 1.478 . S
C206 C207 1.397 . S
C206 C223 1.394 . S
C207 C206 1.397 . S
C207 C208 1.438 . S
C207 C212 1.429 . S
C208 C207 1.438 . S
C208 C209 1.428 . S
C208 C221 1.394 . S
C209 H201 0.949 . S
C209 C208 1.428 . S
C209 C210 1.345 . S
C210 H202 0.950 . S
C210 C209 1.345 . S
C210 C211 1.424 . S
C211 H203 0.951 . S
C211 C210 1.424 . S
C211 C212 1.347 . S
C212 H204 0.951 . S
C212 C207 1.429 . S
C212 C211 1.347 . S
H213 C214 0.951 . S
C214 H213 0.951 . S
C214 C220 1.265 . S
H215 C220 0.950 . S
H216 C224 0.949 . S
H217 C225 0.950 . S
H218 C226 0.951 . S
H219 C227 0.951 . S
C220 C214 1.265 . S
C220 H215 0.950 . S
C220 C221 1.478 . S
C221 C208 1.394 . S
C221 C220 1.478 . S
C221 C222 1.397 . S
C222 C221 1.397 . S
C222 C223 1.438 . S
C222 C227 1.429 . S
C223 C206 1.394 . S
C223 C222 1.438 . S
C223 C224 1.428 . S
C224 H216 0.949 . S
C224 C223 1.428 . S
C224 C225 1.345 . S
C225 H217 0.950 . S
C225 C224 1.345 . S
C225 C226 1.424 . S
C226 H218 0.951 . S
C226 C225 1.424 . S
C226 C227 1.347 . S
C227 H219 0.951 . S
C227 C222 1.429 . S
C227 C226 1.347 . S
H228 C229 0.951 . S
C229 H228 0.951 . S
C229 C235 1.265 . S
H230 C235 0.950 . S
H231 C239 0.949 . S
H232 C240 0.950 . S
H233 C241 0.951 . S
H234 C242 0.951 . S
C235 C229 1.265 . S
C235 H230 0.950 . S
C235 C236 1.478 . S
C236 C235 1.478 . S
C236 C237 1.397 . S
C236 C253 1.394 . S
C237 C236 1.397 . S
C237 C238 1.438 . S
C237 C242 1.429 . S
C238 C237 1.438 . S
C238 C239 1.428 . S
C238 C251 1.394 . S
C239 H231 0.949 . S
C239 C238 1.428 . S
C239 C240 1.345 . S
C240 H232 0.950 . S
C240 C239 1.345 . S
C240 C241 1.424 . S
C241 H233 0.951 . S
C241 C240 1.424 . S
C241 C242 1.347 . S
C242 H234 0.951 . S
C242 C237 1.429 . S
C242 C241 1.347 . S
H243 C244 0.951 . S
C244 H243 0.951 . S
C244 C250 1.265 . S
H245 C250 0.950 . S
H246 C254 0.949 . S
H247 C255 0.950 . S
H248 C256 0.951 . S
H249 C257 0.951 . S
C250 C244 1.265 . S
C250 H245 0.950 . S
C250 C251 1.478 . S
C251 C238 1.394 . S
C251 C250 1.478 . S
C251 C252 1.397 . S
C252 C251 1.397 . S
C252 C253 1.438 . S
C252 C257 1.429 . S
C253 C236 1.394 . S
C253 C252 1.438 . S
C253 C254 1.428 . S
C254 H246 0.949 . S
C254 C253 1.428 . S
C254 C255 1.345 . S
C255 H247 0.950 . S
C255 C254 1.345 . S
C255 C256 1.424 . S
C256 H248 0.951 . S
C256 C255 1.424 . S
C256 C257 1.347 . S
C257 H249 0.951 . S
C257 C252 1.429 . S
C257 C256 1.347 . S
H258 C259 0.951 . S
C259 H258 0.951 . S
C259 C265 1.265 . S
H260 C265 0.950 . S
H261 C269 0.949 . S
H262 C270 0.950 . S
H263 C271 0.951 . S
H264 C272 0.951 . S
C265 C259 1.265 . S
C265 H260 0.950 . S
C265 C266 1.478 . S
C266 C265 1.478 . S
C266 C267 1.397 . S
C266 C283 1.394 . S
C267 C266 1.397 . S
C267 C268 1.438 . S
C267 C272 1.429 . S
C268 C267 1.438 . S
C268 C269 1.428 . S
C268 C281 1.394 . S
C269 H261 0.949 . S
C269 C268 1.428 . S
C269 C270 1.345 . S
C270 H262 0.950 . S
C270 C269 1.345 . S
C270 C271 1.424 . S
C271 H263 0.951 . S
C271 C270 1.424 . S
C271 C272 1.347 . S
C272 H264 0.951 . S
C272 C267 1.429 . S
C272 C271 1.347 . S
H273 C274 0.951 . S
C274 H273 0.951 . S
C274 C280 1.265 . S
H275 C280 0.950 . S
H276 C284 0.949 . S
H277 C285 0.950 . S
H278 C286 0.951 . S
H279 C287 0.951 . S
C280 C274 1.265 . S
C280 H275 0.950 . S
C280 C281 1.478 . S
C281 C268 1.394 . S
C281 C280 1.478 . S
C281 C282 1.397 . S
C282 C281 1.397 . S
C282 C283 1.438 . S
C282 C287 1.429 . S
C283 C266 1.394 . S
C283 C282 1.438 . S
C283 C284 1.428 . S
C284 H276 0.949 . S
C284 C283 1.428 . S
C284 C285 1.345 . S
C285 H277 0.950 . S
C285 C284 1.345 . S
C285 C286 1.424 . S
C286 H278 0.951 . S
C286 C285 1.424 . S
C286 C287 1.347 . S
C287 H279 0.951 . S
C287 C282 1.429 . S
C287 C286 1.347 . S
H288 C289 0.951 . S
C289 H288 0.951 . S
C289 C295 1.265 . S
H290 C295 0.950 . S
H291 C299 0.949 . S
H292 C300 0.950 . S
H293 C301 0.951 . S
H294 C302 0.951 . S
C295 C289 1.265 . S
C295 H290 0.950 . S
C295 C296 1.478 . S
C296 C295 1.478 . S
C296 C297 1.397 . S
C296 C313 1.394 . S
C297 C296 1.397 . S
C297 C298 1.438 . S
C297 C302 1.429 . S
C298 C297 1.438 . S
C298 C299 1.428 . S
C298 C311 1.394 . S
C299 H291 0.949 . S
C299 C298 1.428 . S
C299 C300 1.345 . S
C300 H292 0.950 . S
C300 C299 1.345 . S
C300 C301 1.424 . S
C301 H293 0.951 . S
C301 C300 1.424 . S
C301 C302 1.347 . S
C302 H294 0.951 . S
C302 C297 1.429 . S
C302 C301 1.347 . S
H303 C304 0.951 . S
C304 H303 0.951 . S
C304 C310 1.265 . S
H305 C310 0.950 . S
H306 C314 0.949 . S
H307 C315 0.950 . S
H308 C316 0.951 . S
H309 C317 0.951 . S
C310 C304 1.265 . S
C310 H305 0.950 . S
C310 C311 1.478 . S
C311 C298 1.394 . S
C311 C310 1.478 . S
C311 C312 1.397 . S
C312 C311 1.397 . S
C312 C313 1.438 . S
C312 C317 1.429 . S
C313 C296 1.394 . S
C313 C312 1.438 . S
C313 C314 1.428 . S
C314 H306 0.949 . S
C314 C313 1.428 . S
C314 C315 1.345 . S
C315 H307 0.950 . S
C315 C314 1.345 . S
C315 C316 1.424 . S
C316 H308 0.951 . S
C316 C315 1.424 . S
C316 C317 1.347 . S
C317 H309 0.951 . S
C317 C312 1.429 . S
C317 C316 1.347 . S
H318 C319 0.951 . S
C319 H318 0.951 . S
C319 C325 1.265 . S
H320 C325 0.950 . S
H321 C329 0.949 . S
H322 C330 0.950 . S
H323 C331 0.951 . S
H324 C332 0.951 . S
C325 C319 1.265 . S
C325 H320 0.950 . S
C325 C326 1.478 . S
C326 C325 1.478 . S
C326 C327 1.397 . S
C326 C343 1.394 . S
C327 C326 1.397 . S
C327 C328 1.438 . S
C327 C332 1.429 . S
C328 C327 1.438 . S
C328 C329 1.428 . S
C328 C341 1.394 . S
C329 H321 0.949 . S
C329 C328 1.428 . S
C329 C330 1.345 . S
C330 H322 0.950 . S
C330 C329 1.345 . S
C330 C331 1.424 . S
C331 H323 0.951 . S
C331 C330 1.424 . S
C331 C332 1.347 . S
C332 H324 0.951 . S
C332 C327 1.429 . S
C332 C331 1.347 . S
H333 C334 0.951 . S
C334 H333 0.951 . S
C334 C340 1.265 . S
H335 C340 0.950 . S
H336 C344 0.949 . S
H337 C345 0.950 . S
H338 C346 0.951 . S
H339 C347 0.951 . S
C340 C334 1.265 . S
C340 H335 0.950 . S
C340 C341 1.478 . S
C341 C328 1.394 . S
C341 C340 1.478 . S
C341 C342 1.397 . S
C342 C341 1.397 . S
C342 C343 1.438 . S
C342 C347 1.429 . S
C343 C326 1.394 . S
C343 C342 1.438 . S
C343 C344 1.428 . S
C344 H336 0.949 . S
C344 C343 1.428 . S
C344 C345 1.345 . S
C345 H337 0.950 . S
C345 C344 1.345 . S
C345 C346 1.424 . S
C346 H338 0.951 . S
C346 C345 1.424 . S
C346 C347 1.347 . S
C347 H339 0.951 . S
C347 C342 1.429 . S
C347 C346 1.347 . S
H348 C349 0.951 . S
C349 H348 0.951 . S
C349 C355 1.265 . S
H350 C355 0.950 . S
H351 C359 0.949 . S
H352 C360 0.950 . S
H353 C361 0.951 . S
H354 C362 0.951 . S
C355 C349 1.265 . S
C355 H350 0.950 . S
C355 C356 1.478 . S
C356 C355 1.478 . S
C356 C357 1.397 . S
C356 C373 1.394 . S
C357 C356 1.397 . S
C357 C358 1.438 . S
C357 C362 1.429 . S
C358 C357 1.438 . S
C358 C359 1.428 . S
C358 C371 1.394 . S
C359 H351 0.949 . S
C359 C358 1.428 . S
C359 C360 1.345 . S
C360 H352 0.950 . S
C360 C359 1.345 . S
C360 C361 1.424 . S
C361 H353 0.951 . S
C361 C360 1.424 . S
C361 C362 1.347 . S
C362 H354 0.951 . S
C362 C357 1.429 . S
C362 C361 1.347 . S
H363 C364 0.951 1_655 S
C364 H363 0.951 1_455 S
C364 C370 1.265 1_455 S
H365 C370 0.950 1_455 S
H366 C374 0.949 . S
H367 C375 0.950 . S
H368 C376 0.942 1_455 S
H369 C377 0.951 1_455 S
C370 C364 1.265 1_655 S
C370 H365 0.950 1_655 S
C370 C371 1.478 . S
C371 C358 1.394 . S
C371 C370 1.478 . S
C371 C372 1.397 . S
C372 C371 1.397 . S
C372 C373 1.438 . S
C372 C377 1.429 . S
C373 C356 1.394 . S
C373 C372 1.438 . S
C373 C374 1.428 . S
C374 H366 0.949 . S
C374 C373 1.428 . S
C374 C375 1.345 . S
C375 H367 0.950 . S
C375 C374 1.345 . S
C375 C376 1.424 . S
C376 H368 0.942 1_655 S
C376 C375 1.424 . S
C376 C377 1.347 . S
C377 H369 0.951 1_655 S
C377 C372 1.429 . S
C377 C376 1.347 . S
H378 C379 0.951 . S
C379 H378 0.951 . S
C379 C385 1.265 . S
H380 C385 0.950 . S
H381 C389 0.949 . S
H382 C390 0.950 . S
H383 C391 0.951 . S
H384 C392 0.951 . S
C385 C379 1.265 . S
C385 H380 0.950 . S
C385 C386 1.478 . S
C386 C385 1.478 . S
C386 C387 1.397 . S
C386 C403 1.394 . S
C387 C386 1.397 . S
C387 C388 1.438 . S
C387 C392 1.429 . S
C388 C387 1.438 . S
C388 C389 1.428 . S
C388 C401 1.394 . S
C389 H381 0.949 . S
C389 C388 1.428 . S
C389 C390 1.345 . S
C390 H382 0.950 . S
C390 C389 1.345 . S
C390 C391 1.424 . S
C391 H383 0.951 . S
C391 C390 1.424 . S
C391 C392 1.347 . S
C392 H384 0.951 . S
C392 C387 1.429 . S
C392 C391 1.347 . S
H393 C394 0.951 . S
C394 H393 0.951 . S
C394 C400 1.265 . S
H395 C400 0.950 . S
H396 C404 0.949 . S
H397 C405 0.950 . S
H398 C406 0.951 . S
H399 C407 0.951 . S
C400 C394 1.265 . S
C400 H395 0.950 . S
C400 C401 1.478 . S
C401 C388 1.394 . S
C401 C400 1.478 . S
C401 C402 1.397 . S
C402 C401 1.397 . S
C402 C403 1.438 . S
C402 C407 1.429 . S
C403 C386 1.394 . S
C403 C402 1.438 . S
C403 C404 1.428 . S
C404 H396 0.949 . S
C404 C403 1.428 . S
C404 C405 1.345 . S
C405 H397 0.950 . S
C405 C404 1.345 . S
C405 C406 1.424 . S
C406 H398 0.951 . S
C406 C405 1.424 . S
C406 C407 1.347 . S
C407 H399 0.951 . S
C407 C402 1.429 . S
C407 C406 1.347 . S
H408 C409 0.951 . S
C409 H408 0.951 . S
C409 C415 1.265 . S
H410 C415 0.950 . S
H411 C419 0.949 . S
H412 C420 0.950 . S
H413 C421 0.951 . S
H414 C422 0.951 . S
C415 C409 1.265 . S
C415 H410 0.950 . S
C415 C416 1.478 . S
C416 C415 1.478 . S
C416 C417 1.397 . S
C416 C433 1.394 . S
C417 C416 1.397 . S
C417 C418 1.438 . S
C417 C422 1.429 . S
C418 C417 1.438 . S
C418 C419 1.428 . S
C418 C431 1.394 . S
C419 H411 0.949 . S
C419 C418 1.428 . S
C419 C420 1.345 . S
C420 H412 0.950 . S
C420 C419 1.345 . S
C420 C421 1.424 . S
C421 H413 0.951 . S
C421 C420 1.424 . S
C421 C422 1.347 . S
C422 H414 0.951 . S
C422 C417 1.429 . S
C422 C421 1.347 . S
H423 C424 0.951 . S
C424 H423 0.951 . S
C424 C430 1.265 . S
H425 C430 0.950 . S
H426 C434 0.949 . S
H427 C435 0.950 . S
H428 C436 0.951 . S
H429 C437 0.951 . S
C430 C424 1.265 . S
C430 H425 0.950 . S
C430 C431 1.478 . S
C431 C418 1.394 . S
C431 C430 1.478 . S
C431 C432 1.397 . S
C432 C431 1.397 . S
C432 C433 1.438 . S
C432 C437 1.429 . S
C433 C416 1.394 . S
C433 C432 1.438 . S
C433 C434 1.428 . S
C434 H426 0.949 . S
C434 C433 1.428 . S
C434 C435 1.345 . S
C435 H427 0.950 . S
C435 C434 1.345 . S
C435 C436 1.424 . S
C436 H428 0.951 . S
C436 C435 1.424 . S
C436 C437 1.347 . S
C437 H429 0.951 . S
C437 C432 1.429 . S
C437 C436 1.347 . S
H438 C439 0.951 . S
C439 H438 0.951 . S
C439 C445 1.265 . S
H440 C445 0.950 . S
H441 C449 0.949 . S
H442 C450 0.950 . S
H443 C451 0.951 . S
H444 C452 0.951 . S
C445 C439 1.265 . S
C445 H440 0.950 . S
C445 C446 1.478 . S
C446 C445 1.478 . S
C446 C447 1.397 . S
C446 C463 1.394 . S
C447 C446 1.397 . S
C447 C448 1.438 . S
C447 C452 1.429 . S
C448 C447 1.438 . S
C448 C449 1.428 . S
C448 C461 1.394 . S
C449 H441 0.949 . S
C449 C448 1.428 . S
C449 C450 1.345 . S
C450 H442 0.950 . S
C450 C449 1.345 . S
C450 C451 1.424 . S
C451 H443 0.951 . S
C451 C450 1.424 . S
C451 C452 1.347 . S
C452 H444 0.951 . S
C452 C447 1.429 . S
C452 C451 1.347 . S
H453 C454 0.951 . S
C454 H453 0.951 . S
C454 C460 1.265 . S
H455 C460 0.950 . S
H456 C464 0.949 . S
H457 C465 0.950 . S
H458 C466 0.951 . S
H459 C467 0.951 . S
C460 C454 1.265 . S
C460 H455 0.950 . S
C460 C461 1.478 . S
C461 C448 1.394 . S
C461 C460 1.478 . S
C461 C462 1.397 . S
C462 C461 1.397 . S
C462 C463 1.438 . S
C462 C467 1.429 . S
C463 C446 1.394 . S
C463 C462 1.438 . S
C463 C464 1.428 . S
C464 H456 0.949 . S
C464 C463 1.428 . S
C464 C465 1.345 . S
C465 H457 0.950 . S
C465 C464 1.345 . S
C465 C466 1.424 . S
C466 H458 0.951 . S
C466 C465 1.424 . S
C466 C467 1.347 . S
C467 H459 0.951 . S
C467 C462 1.429 . S
C467 C466 1.347 . S
H468 C469 0.951 . S
C469 H468 0.951 . S
C469 C475 1.265 . S
H470 C475 0.950 . S
H471 C479 0.949 . S
H472 C480 0.950 . S
H473 C481 0.951 . S
H474 C482 0.951 . S
C475 C469 1.265 . S
C475 H470 0.950 . S
C475 C476 1.478 . S
C476 C475 1.478 . S
C476 C477 1.397 . S
C476 C493 1.394 . S
C477 C476 1.397 . S
C477 C478 1.438 . S
C477 C482 1.429 . S
C478 C477 1.438 . S
C478 C479 1.428 . S
C478 C491 1.394 . S
C479 H471 0.949 . S
C479 C478 1.428 . S
C479 C480 1.345 . S
C480 H472 0.950 . S
C480 C479 1.345 . S
C480 C481 1.424 . S
C481 H473 0.951 . S
C481 C480 1.424 . S
C481 C482 1.347 . S
C482 H474 0.951 . S
C482 C477 1.429 . S
C482 C481 1.347 . S
H483 C484 0.951 . S
C484 H483 0.951 . S
C484 C490 1.265 . S
H485 C490 0.950 . S
H486 C494 0.949 . S
H487 C495 0.950 . S
H488 C496 0.951 . S
H489 C497 0.951 . S
C490 C484 1.265 . S
C490 H485 0.950 . S
C490 C491 1.478 . S
C491 C478 1.394 . S
C491 C490 1.478 . S
C491 C492 1.397 . S
C492 C491 1.397 . S
C492 C493 1.438 . S
C492 C497 1.429 . S
C493 C476 1.394 . S
C493 C492 1.438 . S
C493 C494 1.428 . S
C494 H486 0.949 . S
C494 C493 1.428 . S
C494 C495 1.345 . S
C495 H487 0.950 . S
C495 C494 1.345 . S
C495 C496 1.424 . S
C496 H488 0.951 . S
C496 C495 1.424 . S
C496 C497 1.347 . S
C497 H489 0.951 . S
C497 C492 1.429 . S
C497 C496 1.347 . S
H498 C499 0.951 1_655 S
C499 H498 0.951 1_455 S
C499 C505 1.265 . S
H500 C505 0.950 . S
H501 C509 0.949 . S
H502 C510 0.950 . S
H503 C511 0.951 . S
H504 C512 0.951 . S
C505 C499 1.265 . S
C505 H500 0.950 . S
C505 C506 1.478 . S
C506 C505 1.478 . S
C506 C507 1.397 . S
C506 C523 1.394 . S
C507 C506 1.397 . S
C507 C508 1.438 1_554 S
C507 C512 1.429 . S
C508 C507 1.438 1_556 S
C508 C509 1.428 . S
C508 C521 1.394 . S
C509 H501 0.949 . S
C509 C508 1.428 . S
C509 C510 1.345 . S
C510 H502 0.950 . S
C510 C509 1.345 . S
C510 C511 1.424 1_556 S
C511 H503 0.951 . S
C511 C510 1.424 1_554 S
C511 C512 1.347 . S
C512 H504 0.951 . S
C512 C507 1.429 . S
C512 C511 1.347 . S
H513 C514 0.951 . S
C514 H513 0.951 . S
C514 C520 1.265 . S
H515 C520 0.950 . S
H516 C524 0.949 . S
H517 C525 0.950 . S
H518 C526 0.951 . S
H519 C527 0.951 . S
C520 C514 1.265 . S
C520 H515 0.950 . S
C520 C521 1.478 . S
C521 C508 1.394 . S
C521 C520 1.478 . S
C521 C522 1.397 1_556 S
C522 C521 1.397 1_554 S
C522 C523 1.438 . S
C522 C527 1.429 1_554 S
C523 C506 1.394 . S
C523 C522 1.438 . S
C523 C524 1.428 . S
C524 H516 0.949 . S
C524 C523 1.428 . S
C524 C525 1.345 . S
C525 H517 0.950 . S
C525 C524 1.345 . S
C525 C526 1.424 . S
C526 H518 0.951 . S
C526 C525 1.424 . S
C526 C527 1.347 1_554 S
C527 H519 0.951 . S
C527 C522 1.429 1_556 S
C527 C526 1.347 1_556 S
H528 C529 0.951 . S
C529 H528 0.951 . S
C529 C535 1.265 . S
H530 C535 0.950 . S
H531 C539 0.949 . S
H532 C540 0.950 . S
H533 C541 0.951 . S
H534 C542 0.951 . S
C535 C529 1.265 . S
C535 H530 0.950 . S
C535 C536 1.478 . S
C536 C535 1.478 . S
C536 C537 1.397 . S
C536 C553 1.394 1_545 S
C537 C536 1.397 . S
C537 C538 1.438 . S
C537 C542 1.429 . S
C538 C537 1.438 . S
C538 C539 1.428 . S
C538 C551 1.394 . S
C539 H531 0.949 . S
C539 C538 1.428 . S
C539 C540 1.345 . S
C540 H532 0.950 . S
C540 C539 1.345 . S
C540 C541 1.424 . S
C541 H533 0.951 . S
C541 C540 1.424 . S
C541 C542 1.347 . S
C542 H534 0.951 . S
C542 C537 1.429 . S
C542 C541 1.347 . S
H543 C544 0.951 . S
C544 H543 0.951 . S
C544 C550 1.265 . S
H545 C550 0.950 . S
H546 C554 0.949 . S
H547 C555 0.950 . S
H548 C556 0.951 . S
H549 C557 0.951 . S
C550 C544 1.265 . S
C550 H545 0.950 . S
C550 C551 1.478 . S
C551 C538 1.394 . S
C551 C550 1.478 . S
C551 C552 1.397 1_545 S
C552 C551 1.397 1_565 S
C552 C553 1.438 . S
C552 C557 1.429 . S
C553 C536 1.394 1_565 S
C553 C552 1.438 . S
C553 C554 1.428 . S
C554 H546 0.949 . S
C554 C553 1.428 . S
C554 C555 1.345 . S
C555 H547 0.950 . S
C555 C554 1.345 . S
C555 C556 1.424 . S
C556 H548 0.951 . S
C556 C555 1.424 . S
C556 C557 1.347 . S
C557 H549 0.951 . S
C557 C552 1.429 . S
C557 C556 1.347 . S
H558 C559 0.951 . S
C559 H558 0.951 . S
C559 C565 1.265 . S
H560 C565 0.950 . S
H561 C569 0.949 . S
H562 C570 0.950 . S
H563 C571 0.951 . S
H564 C572 0.951 . S
C565 C559 1.265 . S
C565 H560 0.950 . S
C565 C566 1.478 . S
C566 C565 1.478 . S
C566 C567 1.397 . S
C566 C583 1.394 . S
C567 C566 1.397 . S
C567 C568 1.438 . S
C567 C572 1.429 . S
C568 C567 1.438 . S
C568 C569 1.428 . S
C568 C581 1.394 . S
C569 H561 0.949 . S
C569 C568 1.428 . S
C569 C570 1.345 . S
C570 H562 0.950 . S
C570 C569 1.345 . S
C570 C571 1.424 . S
C571 H563 0.951 . S
C571 C570 1.424 . S
C571 C572 1.347 . S
C572 H564 0.951 . S
C572 C567 1.429 . S
C572 C571 1.347 . S
H573 C574 0.951 . S
C574 H573 0.951 . S
C574 C580 1.265 . S
H575 C580 0.950 . S
H576 C584 0.949 . S
H577 C585 0.950 . S
H578 C586 0.951 . S
H579 C587 0.951 . S
C580 C574 1.265 . S
C580 H575 0.950 . S
C580 C581 1.478 . S
C581 C568 1.394 . S
C581 C580 1.478 . S
C581 C582 1.397 . S
C582 C581 1.397 . S
C582 C583 1.438 . S
C582 C587 1.429 . S
C583 C566 1.394 . S
C583 C582 1.438 . S
C583 C584 1.428 . S
C584 H576 0.949 . S
C584 C583 1.428 . S
C584 C585 1.345 . S
C585 H577 0.950 . S
C585 C584 1.345 . S
C585 C586 1.424 . S
C586 H578 0.951 . S
C586 C585 1.424 . S
C586 C587 1.347 . S
C587 H579 0.951 . S
C587 C582 1.429 . S
C587 C586 1.347 . S
H588 C589 0.951 . S
C589 H588 0.951 . S
C589 C595 1.265 . S
H590 C595 0.950 . S
H591 C599 0.949 . S
H592 C600 0.950 . S
H593 C601 0.951 . S
H594 C602 0.951 . S
C595 C589 1.265 . S
C595 H590 0.950 . S
C595 C596 1.478 . S
C596 C595 1.478 . S
C596 C597 1.397 . S
C596 C613 1.394 1_545 S
C597 C596 1.397 . S
C597 C598 1.438 . S
C597 C602 1.429 . S
C598 C597 1.438 . S
C598 C599 1.428 . S
C598 C611 1.394 . S
C599 H591 0.949 . S
C599 C598 1.428 . S
C599 C600 1.345 . S
C600 H592 0.950 . S
C600 C599 1.345 . S
C600 C601 1.424 . S
C601 H593 0.951 . S
C601 C600 1.424 . S
C601 C602 1.347 . S
C602 H594 0.951 . S
C602 C597 1.429 . S
C602 C601 1.347 . S
H603 C604 0.951 . S
C604 H603 0.951 . S
C604 C610 1.265 . S
H605 C610 0.950 . S
H606 C614 0.949 . S
H607 C615 0.950 . S
H608 C616 0.951 . S
H609 C617 0.951 . S
C610 C604 1.265 . S
C610 H605 0.950 . S
C610 C611 1.478 . S
C611 C598 1.394 . S
C611 C610 1.478 . S
C611 C612 1.397 1_545 S
C612 C611 1.397 1_565 S
C612 C613 1.438 . S
C612 C617 1.429 . S
C613 C596 1.394 1_565 S
C613 C612 1.438 . S
C613 C614 1.428 . S
C614 H606 0.949 . S
C614 C613 1.428 . S
C614 C615 1.345 . S
C615 H607 0.950 . S
C615 C614 1.345 . S
C615 C616 1.424 . S
C616 H608 0.951 . S
C616 C615 1.424 . S
C616 C617 1.347 . S
C617 H609 0.951 . S
C617 C612 1.429 . S
C617 C616 1.347 . S
H618 C619 0.951 . S
C619 H618 0.951 . S
C619 C625 1.265 . S
H620 C625 0.950 . S
H621 C629 0.949 . S
H622 C630 0.950 . S
H623 C631 0.951 . S
H624 C632 0.951 . S
C625 C619 1.265 . S
C625 H620 0.950 . S
C625 C626 1.478 . S
C626 C625 1.478 . S
C626 C627 1.397 . S
C626 C643 1.394 . S
C627 C626 1.397 . S
C627 C628 1.438 . S
C627 C632 1.429 . S
C628 C627 1.438 . S
C628 C629 1.428 1_556 S
C628 C641 1.394 1_556 S
C629 H621 0.949 . S
C629 C628 1.428 1_554 S
C629 C630 1.345 1_554 S
C630 H622 0.950 . S
C630 C629 1.345 1_556 S
C630 C631 1.424 . S
C631 H623 0.951 . S
C631 C630 1.424 . S
C631 C632 1.347 . S
C632 H624 0.951 . S
C632 C627 1.429 . S
C632 C631 1.347 . S
H633 C634 0.951 . S
C634 H633 0.951 . S
C634 C640 1.265 . S
H635 C640 0.950 . S
H636 C644 0.949 . S
H637 C645 0.950 . S
H638 C646 0.951 . S
H639 C647 0.951 . S
C640 C634 1.265 . S
C640 H635 0.950 . S
C640 C641 1.478 . S
C641 C628 1.394 1_554 S
C641 C640 1.478 . S
C641 C642 1.389 1_554 S
C642 C641 1.389 1_556 S
C642 C643 1.456 . S
C642 C647 1.419 1_556 S
C643 C626 1.394 . S
C643 C642 1.456 . S
C643 C644 1.428 . S
C644 H636 0.949 . S
C644 C643 1.428 . S
C644 C645 1.345 . S
C645 H637 0.950 . S
C645 C644 1.345 . S
C645 C646 1.424 1_556 S
C646 H638 0.951 . S
C646 C645 1.424 1_554 S
C646 C647 1.347 . S
C647 H639 0.951 . S
C647 C642 1.419 1_554 S
C647 C646 1.347 . S
H648 C649 0.951 . S
C649 H648 0.951 . S
C649 C655 1.265 1_455 S
H650 C655 0.950 . S
H651 C659 0.949 . S
H652 C660 0.950 . S
H653 C661 0.951 . S
H654 C662 0.951 . S
C655 C649 1.265 1_655 S
C655 H650 0.950 . S
C655 C656 1.478 1_655 S
C656 C655 1.478 1_455 S
C656 C657 1.397 1_455 S
C656 C673 1.394 . S
C657 C656 1.397 1_655 S
C657 C658 1.438 1_655 S
C657 C662 1.429 . S
C658 C657 1.438 1_455 S
C658 C659 1.428 1_455 S
C658 C671 1.394 . S
C659 H651 0.949 . S
C659 C658 1.428 1_655 S
C659 C660 1.345 . S
C660 H652 0.950 . S
C660 C659 1.345 . S
C660 C661 1.424 . S
C661 H653 0.951 . S
C661 C660 1.424 . S
C661 C662 1.347 . S
C662 H654 0.951 . S
C662 C657 1.429 . S
C662 C661 1.347 . S
H663 C664 0.951 . S
C664 H663 0.951 . S
C664 C670 1.265 . S
H665 C670 0.950 . S
H666 C674 0.949 . S
H667 C675 0.950 . S
H668 C676 0.951 . S
H669 C677 0.951 . S
C670 C664 1.265 . S
C670 H665 0.950 . S
C670 C671 1.478 . S
C671 C658 1.394 . S
C671 C670 1.478 . S
C671 C672 1.397 . S
C672 C671 1.397 . S
C672 C673 1.438 . S
C672 C677 1.429 . S
C673 C656 1.394 . S
C673 C672 1.438 . S
C673 C674 1.428 . S
C674 H666 0.949 . S
C674 C673 1.428 . S
C674 C675 1.345 . S
C675 H667 0.950 . S
C675 C674 1.345 . S
C675 C676 1.424 . S
C676 H668 0.951 . S
C676 C675 1.424 . S
C676 C677 1.347 . S
C677 H669 0.951 . S
C677 C672 1.429 . S
C677 C676 1.347 . S
C139 C2 1.472 . S
C154 C129 1.405 . S
C169 C22 1.356 . S
C184 C107 1.388 1_655 S
C199 C44 1.234 . S
C214 C120 1.391 . S
C229 C4 1.400 . S
C244 C133 1.538 . S
C274 C103 1.509 . S
C259 C24 1.545 . S
C304 C116 1.468 . S
C289 C42 1.482 . S
C319 C32 1.266 . S
C334 C81 1.230 . S
C349 C49 1.156 . S
C364 C94 1.113 . S
C379 C9 1.335 . S
C394 C64 1.240 . S
C424 C77 1.266 . S
C409 C29 1.303 . S
C454 C90 1.314 . S
C439 C52 1.284 . S
C469 C12 1.123 . S
C484 C68 1.210 . S
C514 C95 1.516 . S
C499 C18 1.486 . S
C529 C38 1.526 . S
C544 C69 1.545 . S
C559 C58 1.479 . S
C574 C82 1.509 . S
C604 C121 1.570 . S
C589 C39 1.557 . S
C634 C134 1.543 . S
C619 C59 1.494 . S
C649 C19 1.481 . S
C664 C108 1.559 . S
