# Generated by pormake.
# Topology cml, (3,6)-cn, num edge types: 1
# Building blocks:
#     Node 0, Type 0, BuildingBlock: BETDIP_clean_linker_0, # of connection points: 3
#     Node 1, Type 0, BuildingBlock: BETDIP_clean_linker_0, # of connection points: 3
#     Node 2, Type 0, BuildingBlock: BETDIP_clean_linker_0, # of connection points: 3
#     Node 3, Type 0, BuildingBlock: BETDIP_clean_linker_0, # of connection points: 3
#     Node 4, Type 0, BuildingBlock: BETDIP_clean_linker_0, # of connection points: 3
#     Node 5, Type 0, BuildingBlock: BETDIP_clean_linker_0, # of connection points: 3
#     Node 6, Type 0, BuildingBlock: BETDIP_clean_linker_0, # of connection points: 3
#     Node 7, Type 0, BuildingBlock: BETDIP_clean_linker_0, # of connection points: 3
#     Node 8, Type 1, BuildingBlock: IZENUY_clean_sbu_0, # of connection points: 6
#     Node 9, Type 1, BuildingBlock: IZENUY_clean_sbu_0, # of connection points: 6
#     Node 10, Type 1, BuildingBlock: IZENUY_clean_sbu_0, # of connection points: 6
#     Node 11, Type 1, BuildingBlock: IZENUY_clean_sbu_0, # of connection points: 6
#     Edge 12, Type (0, 1), BuildingBlock: MIFKUJ_clean_linker_0, # of connection points: 2
#     Edge 13, Type (0, 1), BuildingBlock: MIFKUJ_clean_linker_0, # of connection points: 2
#     Edge 14, Type (0, 1), BuildingBlock: MIFKUJ_clean_linker_0, # of connection points: 2
#     Edge 15, Type (0, 1), BuildingBlock: MIFKUJ_clean_linker_0, # of connection points: 2
#     Edge 16, Type (0, 1), BuildingBlock: MIFKUJ_clean_linker_0, # of connection points: 2
#     Edge 17, Type (0, 1), BuildingBlock: MIFKUJ_clean_linker_0, # of connection points: 2
#     Edge 18, Type (0, 1), BuildingBlock: MIFKUJ_clean_linker_0, # of connection points: 2
#     Edge 19, Type (0, 1), BuildingBlock: MIFKUJ_clean_linker_0, # of connection points: 2
#     Edge 20, Type (0, 1), BuildingBlock: MIFKUJ_clean_linker_0, # of connection points: 2
#     Edge 21, Type (0, 1), BuildingBlock: MIFKUJ_clean_linker_0, # of connection points: 2
#     Edge 22, Type (0, 1), BuildingBlock: MIFKUJ_clean_linker_0, # of connection points: 2
#     Edge 23, Type (0, 1), BuildingBlock: MIFKUJ_clean_linker_0, # of connection points: 2
#     Edge 24, Type (0, 1), BuildingBlock: MIFKUJ_clean_linker_0, # of connection points: 2
#     Edge 25, Type (0, 1), BuildingBlock: MIFKUJ_clean_linker_0, # of connection points: 2
#     Edge 26, Type (0, 1), BuildingBlock: MIFKUJ_clean_linker_0, # of connection points: 2
#     Edge 27, Type (0, 1), BuildingBlock: MIFKUJ_clean_linker_0, # of connection points: 2
#     Edge 28, Type (0, 1), BuildingBlock: MIFKUJ_clean_linker_0, # of connection points: 2
#     Edge 29, Type (0, 1), BuildingBlock: MIFKUJ_clean_linker_0, # of connection points: 2
#     Edge 30, Type (0, 1), BuildingBlock: MIFKUJ_clean_linker_0, # of connection points: 2
#     Edge 31, Type (0, 1), BuildingBlock: MIFKUJ_clean_linker_0, # of connection points: 2
#     Edge 32, Type (0, 1), BuildingBlock: MIFKUJ_clean_linker_0, # of connection points: 2
#     Edge 33, Type (0, 1), BuildingBlock: MIFKUJ_clean_linker_0, # of connection points: 2
#     Edge 34, Type (0, 1), BuildingBlock: MIFKUJ_clean_linker_0, # of connection points: 2
#     Edge 35, Type (0, 1), BuildingBlock: MIFKUJ_clean_linker_0, # of connection points: 2
# Relax obj value: 0.003
# Max RMSD: 0.069
# Mean RMSD: 0.053
data_MOF--net-cml--node1-IZENUY_clean_sbu_0--node2-BETDIP_clean_linker_0--edge1-MIFKUJ_clean_linker_0
_symmetry_space_group_name_H-M    P1
_symmetry_Int_Tables_number       1
_symmetry_cell_setting            triclinic
loop_
_symmetry_equiv_pos_as_xyz
'x, y, z'
_cell_length_a     48.364339
_cell_length_b     53.565579
_cell_length_c     47.474054
_cell_angle_alpha  90.005839
_cell_angle_beta   89.994737
_cell_angle_gamma 90.096277
loop_
_atom_site_label
_atom_site_type_symbol
_atom_site_fract_x
_atom_site_fract_y
_atom_site_fract_z
_atom_type_partial_charge
H0 H 0.28294 0.35076 0.04123 0.0
H1 H 0.27912 0.39372 0.96466 0.0
H2 H 0.3351 0.41506 0.03053 0.0
H3 H 0.2563 0.3621 0.94732 0.0
C4 C 0.24814 0.35049 0.96408 0.0
C5 C 0.29011 0.36629 0.02853 0.0
C6 C 0.30997 0.38284 0.03937 0.0
C7 C 0.2791 0.36967 0.00148 0.0
C8 C 0.28797 0.3902 0.98515 0.0
C9 C 0.30802 0.40687 0.99562 0.0
C10 C 0.31894 0.40287 0.02265 0.0
N11 N 0.25886 0.35227 0.99192 0.0
H12 H 0.72027 0.65561 0.53947 0.0
H13 H 0.72317 0.61188 0.46345 0.0
H14 H 0.66681 0.59186 0.52933 0.0
H15 H 0.76231 0.63158 0.45526 0.0
C16 C 0.76284 0.64889 0.46711 0.0
C17 C 0.71314 0.63974 0.5273 0.0
C18 C 0.69201 0.6243 0.53787 0.0
C19 C 0.72495 0.63531 0.5008 0.0
C20 C 0.71517 0.6152 0.48437 0.0
C21 C 0.69388 0.59974 0.49451 0.0
C22 C 0.68269 0.60427 0.52129 0.0
N23 N 0.74577 0.65212 0.49122 0.0
H24 H 0.72231 0.34885 0.04003 0.0
H25 H 0.72859 0.39652 0.96736 0.0
H26 H 0.67551 0.41703 0.0359 0.0
H27 H 0.74485 0.36183 0.94663 0.0
C28 C 0.75551 0.35129 0.96284 0.0
C29 C 0.71647 0.36581 0.02914 0.0
C30 C 0.69732 0.38227 0.04137 0.0
C31 C 0.72765 0.37052 0.00242 0.0
C32 C 0.71976 0.39226 0.98773 0.0
C33 C 0.70092 0.40913 0.9998 0.0
C34 C 0.69002 0.40402 0.02661 0.0
N35 N 0.74715 0.35318 0.99147 0.0
H36 H 0.28458 0.65411 0.54222 0.0
H37 H 0.2843 0.60888 0.46723 0.0
H38 H 0.33414 0.58759 0.53775 0.0
H39 H 0.26108 0.63932 0.44816 0.0
C40 C 0.25261 0.65166 0.46406 0.0
C41 C 0.29159 0.6377 0.53097 0.0
C42 C 0.311 0.62159 0.54339 0.0
C43 C 0.28166 0.63338 0.50363 0.0
C44 C 0.29136 0.61251 0.48842 0.0
C45 C 0.3109 0.59627 0.50046 0.0
C46 C 0.31998 0.60069 0.52809 0.0
N47 N 0.26216 0.65064 0.4924 0.0
H48 H 0.78274 0.84764 0.04525 0.0
H49 H 0.77715 0.89576 0.97287 0.0
H50 H 0.83491 0.91254 0.03882 0.0
H51 H 0.75942 0.86201 0.95226 0.0
C52 C 0.74856 0.85153 0.9684 0.0
C53 C 0.78942 0.86419 0.03399 0.0
C54 C 0.81029 0.87945 0.04531 0.0
C55 C 0.77774 0.86949 0.00765 0.0
C56 C 0.78653 0.89086 0.99279 0.0
C57 C 0.8071 0.90654 0.00401 0.0
C58 C 0.81883 0.90065 0.03022 0.0
N59 N 0.75712 0.85302 0.99702 0.0
H60 H 0.22057 0.15719 0.54241 0.0
H61 H 0.22346 0.11427 0.4658 0.0
H62 H 0.16731 0.09345 0.5319 0.0
H63 H 0.27076 0.12801 0.47002 0.0
C64 C 0.26658 0.14761 0.47413 0.0
C65 C 0.21312 0.14168 0.52984 0.0
C66 C 0.19284 0.12553 0.54069 0.0
C67 C 0.22473 0.13743 0.5032 0.0
C68 C 0.21528 0.11722 0.48677 0.0
C69 C 0.19419 0.10155 0.49691 0.0
C70 C 0.18337 0.10571 0.52393 0.0
N71 N 0.24515 0.15431 0.49312 0.0
H72 H 0.2279 0.84919 0.04488 0.0
H73 H 0.21602 0.88468 0.9645 0.0
H74 H 0.17294 0.91166 0.03756 0.0
H75 H 0.23964 0.85352 0.94712 0.0
C76 C 0.25067 0.8437 0.9636 0.0
C77 C 0.21821 0.86353 0.03218 0.0
C78 C 0.19945 0.88018 0.04459 0.0
C79 C 0.22458 0.86503 0.00344 0.0
C80 C 0.21173 0.88349 0.98676 0.0
C81 C 0.19277 0.90037 0.99883 0.0
C82 C 0.18728 0.89874 0.02788 0.0
N83 N 0.24398 0.84756 0.99246 0.0
H84 H 0.78337 0.15625 0.54125 0.0
H85 H 0.79419 0.12188 0.46016 0.0
H86 H 0.84119 0.09613 0.53136 0.0
H87 H 0.77841 0.15994 0.44499 0.0
C88 C 0.76299 0.16518 0.46052 0.0
C89 C 0.79354 0.14251 0.52809 0.0
C90 C 0.81347 0.12654 0.53972 0.0
C91 C 0.78664 0.14117 0.49948 0.0
C92 C 0.79956 0.1232 0.48222 0.0
C93 C 0.81942 0.10679 0.49356 0.0
C94 C 0.826 0.10862 0.52236 0.0
N95 N 0.76622 0.15789 0.48911 0.0
Fe96 Fe 0.00528 0.83429 0.32968 0.0
Fe97 Fe 0.00623 0.8632 0.38561 0.0
O98 O 0.00527 0.86298 0.34826 0.0
Fe99 Fe 0.0043 0.89151 0.32947 0.0
O100 O 0.98359 0.87934 0.30016 0.0
O101 O 0.97245 0.84125 0.31294 0.0
O102 O 0.98566 0.81716 0.35657 0.0
C103 C 0.97001 0.82472 0.37618 0.0
C104 C 0.04062 0.86515 0.297 0.0
O105 O 0.97416 0.84558 0.38782 0.0
C106 C 0.0415 0.90181 0.37418 0.0
O107 O 0.03806 0.82531 0.34498 0.0
O108 O 0.02742 0.83477 0.3887 0.0
O109 O 0.03647 0.88448 0.31155 0.0
O110 O 0.02501 0.84625 0.29945 0.0
C111 C 0.96904 0.90265 0.37239 0.0
O112 O 0.03834 0.88087 0.38594 0.0
O113 O 0.02487 0.90902 0.35527 0.0
C114 C 0.04293 0.8239 0.371 0.0
O115 O 0.98538 0.89179 0.3893 0.0
O116 O 0.97208 0.90044 0.34614 0.0
C117 C 0.96791 0.86046 0.29833 0.0
Fe118 Fe 1.00095 0.13863 0.8853 0.0
Fe119 Fe 1.00206 0.11046 0.82892 0.0
O120 O 1.00188 0.13896 0.84787 0.0
Fe121 Fe 0.00251 0.16777 0.82946 0.0
O122 O 0.02292 0.18421 0.8563 0.0
O123 O 0.03351 0.15547 0.8876 0.0
O124 O 0.02086 0.10951 0.88888 0.0
C125 C 0.03676 0.09817 0.87194 0.0
C126 C 0.96537 0.1788 0.87111 0.0
O127 O 0.03387 0.10062 0.84571 0.0
C128 C 0.96656 0.13779 0.7964 0.0
O129 O 0.96836 0.12174 0.88564 0.0
O130 O 0.98071 0.09348 0.85452 0.0
O131 O 0.97007 0.17732 0.84507 0.0
O132 O 0.98074 0.16761 0.88865 0.0
C133 C 0.03911 0.14097 0.79776 0.0
O134 O 0.9703 0.11824 0.81068 0.0
O135 O 0.98226 0.15655 0.79931 0.0
C136 C 0.96448 0.10098 0.87366 0.0
O137 O 0.02337 0.12217 0.79986 0.0
O138 O 0.03493 0.16033 0.81224 0.0
C139 C 0.03835 0.17617 0.87587 0.0
Fe140 Fe 0.50387 0.33438 0.32648 0.0
Fe141 Fe 0.50335 0.36313 0.38254 0.0
O142 O 0.50307 0.36301 0.34515 0.0
Fe143 Fe 0.50201 0.39149 0.32633 0.0
O144 O 0.46971 0.38306 0.30948 0.0
O145 O 0.48293 0.34554 0.29671 0.0
O146 O 0.47184 0.32433 0.34262 0.0
C147 C 0.4677 0.32279 0.36878 0.0
C148 C 0.53885 0.36198 0.29393 0.0
O149 O 0.48345 0.3339 0.3861 0.0
C150 C 0.53858 0.40367 0.36804 0.0
O151 O 0.52486 0.31788 0.35279 0.0
O152 O 0.53616 0.34674 0.38357 0.0
O153 O 0.52229 0.38013 0.29632 0.0
O154 O 0.53602 0.34271 0.30894 0.0
C155 C 0.4658 0.40019 0.37218 0.0
O156 O 0.52324 0.39235 0.38557 0.0
O157 O 0.53427 0.4018 0.34192 0.0
C158 C 0.5408 0.32603 0.37186 0.0
O159 O 0.47059 0.37966 0.38426 0.0
O160 O 0.48142 0.40809 0.35273 0.0
C161 C 0.46637 0.36376 0.29465 0.0
Fe162 Fe 0.50389 0.6398 0.88337 0.0
Fe163 Fe 0.50575 0.61257 0.82637 0.0
O164 O 0.50414 0.64071 0.84599 0.0
Fe165 Fe 0.50279 0.66971 0.82804 0.0
O166 O 0.53444 0.68021 0.84457 0.0
O167 O 0.5236 0.66899 0.88776 0.0
O168 O 0.53675 0.62347 0.88454 0.0
C169 C 0.54162 0.603 0.87239 0.0
C170 C 0.46584 0.6767 0.87373 0.0
O171 O 0.52639 0.59551 0.85243 0.0
C172 C 0.46831 0.6421 0.79488 0.0
O173 O 0.48405 0.61047 0.88551 0.0
O174 O 0.47368 0.60148 0.84151 0.0
O175 O 0.48125 0.68533 0.85449 0.0
O176 O 0.47104 0.65601 0.88519 0.0
C177 C 0.54105 0.64149 0.7957 0.0
O178 O 0.48538 0.62428 0.79657 0.0
O179 O 0.4709 0.66114 0.81026 0.0
C180 C 0.46913 0.59922 0.86754 0.0
O181 O 0.53796 0.62177 0.80986 0.0
O182 O 0.5242 0.65946 0.79819 0.0
C183 C 0.53873 0.68112 0.87075 0.0
H184 H 0.22336 0.34381 0.91351 0.0
H185 H 0.18746 0.31348 0.90099 0.0
H186 H 0.18793 0.28521 0.98607 0.0
H187 H 0.22396 0.3154 0.99866 0.0
H188 H 0.18767 0.24762 0.94748 0.0
H189 H 0.1359 0.32206 0.96452 0.0
H190 H 0.12393 0.36656 0.95946 0.0
H191 H 0.10951 0.3559 0.87102 0.0
H192 H 0.12178 0.31139 0.87548 0.0
H193 H 0.06469 0.17454 0.92714 0.0
H194 H 0.10034 0.20313 0.94468 0.0
H195 H 0.09941 0.24235 0.86526 0.0
H196 H 0.06317 0.21457 0.84816 0.0
H197 H 0.09895 0.27454 0.90499 0.0
H198 H 0.15289 0.19994 0.88785 0.0
H199 H 0.16707 0.15596 0.89323 0.0
H200 H 0.17813 0.16698 0.9821 0.0
H201 H 0.16363 0.21089 0.97734 0.0
C202 C 0.21575 0.33114 0.92954 0.0
C203 C 0.22638 0.33203 0.95703 0.0
C204 C 0.19519 0.31389 0.92241 0.0
C205 C 0.18479 0.29725 0.94269 0.0
C206 C 0.19561 0.29791 0.97012 0.0
C207 C 0.21614 0.31523 0.97729 0.0
C208 C 0.16283 0.27903 0.93508 0.0
C209 C 0.16807 0.25346 0.93855 0.0
C210 C 0.13748 0.28668 0.92304 0.0
C211 C 0.13 0.31343 0.9203 0.0
C212 C 0.13039 0.32924 0.94395 0.0
C213 C 0.12351 0.35446 0.9412 0.0
C214 C 0.11602 0.36406 0.91492 0.0
C215 C 0.11534 0.34844 0.89136 0.0
C216 C 0.12223 0.32321 0.89399 0.0
C217 C 0.07223 0.18919 0.9134 0.0
C218 C 0.061 0.19237 0.88631 0.0
C219 C 0.09273 0.20546 0.92339 0.0
C220 C 0.10284 0.22485 0.90624 0.0
C221 C 0.09193 0.22768 0.87901 0.0
C222 C 0.07119 0.21173 0.86922 0.0
C223 C 0.12395 0.2429 0.91671 0.0
C224 C 0.11849 0.26856 0.91393 0.0
C225 C 0.14911 0.23528 0.92937 0.0
C226 C 0.15691 0.20864 0.93227 0.0
C227 C 0.15803 0.19291 0.90858 0.0
C228 C 0.1662 0.168 0.91152 0.0
C229 C 0.1735 0.15871 0.938 0.0
C230 C 0.17247 0.17421 0.96162 0.0
C231 C 0.16428 0.19909 0.95882 0.0
H232 H 0.18013 0.13955 0.94025 0.0
H233 H 0.1107 0.38359 0.91283 0.0
H234 H 0.79987 0.64658 0.42441 0.0
H235 H 0.83429 0.67788 0.41074 0.0
H236 H 0.80616 0.72624 0.47749 0.0
H237 H 0.7715 0.69509 0.49106 0.0
H238 H 0.81507 0.7521 0.4288 0.0
H239 H 0.86498 0.69374 0.48559 0.0
H240 H 0.88113 0.65216 0.50053 0.0
H241 H 0.92006 0.64139 0.42016 0.0
H242 H 0.90381 0.68279 0.40459 0.0
H243 H 0.93328 0.83289 0.41949 0.0
H244 H 0.89735 0.80445 0.43676 0.0
H245 H 0.9206 0.75027 0.37389 0.0
H246 H 0.95661 0.77826 0.35677 0.0
H247 H 0.91414 0.72855 0.42409 0.0
H248 H 0.86258 0.78618 0.36664 0.0
H249 H 0.84643 0.82774 0.35164 0.0
H250 H 0.81077 0.84 0.43331 0.0
H251 H 0.82706 0.79861 0.44893 0.0
C252 C 0.80103 0.6639 0.43613 0.0
C253 C 0.78316 0.6683 0.45888 0.0
C254 C 0.82073 0.68174 0.42837 0.0
C255 C 0.82304 0.70428 0.44333 0.0
C256 C 0.8048 0.70895 0.46571 0.0
C257 C 0.78507 0.69108 0.47351 0.0
C258 C 0.84474 0.72278 0.43571 0.0
C259 C 0.83679 0.74708 0.42818 0.0
C260 C 0.87303 0.71613 0.4345 0.0
C261 C 0.88297 0.69128 0.44384 0.0
C262 C 0.87681 0.68243 0.47103 0.0
C263 C 0.88601 0.65891 0.47962 0.0
C264 C 0.90156 0.64412 0.46128 0.0
C265 C 0.908 0.65286 0.43433 0.0
C266 C 0.89882 0.67636 0.42562 0.0
C267 C 0.93074 0.81492 0.40933 0.0
C268 C 0.94792 0.80787 0.38677 0.0
C269 C 0.91011 0.79873 0.41916 0.0
C270 C 0.90616 0.77527 0.4065 0.0
C271 C 0.9233 0.76823 0.38404 0.0
C272 C 0.94387 0.78434 0.37423 0.0
C273 C 0.88448 0.75777 0.41671 0.0
C274 C 0.89245 0.73363 0.42483 0.0
C275 C 0.85625 0.7646 0.41845 0.0
C276 C 0.84631 0.78942 0.40904 0.0
C277 C 0.85149 0.79782 0.38147 0.0
C278 C 0.84227 0.82133 0.37284 0.0
C279 C 0.82765 0.83653 0.39154 0.0
C280 C 0.82214 0.82822 0.41887 0.0
C281 C 0.83134 0.80473 0.42761 0.0
H282 H 0.82054 0.85473 0.38482 0.0
H283 H 0.90866 0.62591 0.46797 0.0
H284 H 0.7711 0.33934 0.90966 0.0
H285 H 0.80631 0.30916 0.89493 0.0
H286 H 0.82369 0.29227 0.98198 0.0
H287 H 0.78865 0.32245 0.9968 0.0
H288 H 0.871 0.29842 0.95123 0.0
H289 H 0.78641 0.25217 0.94334 0.0
H290 H 0.73862 0.24412 0.92767 0.0
H291 H 0.76486 0.24681 0.84131 0.0
H292 H 0.81278 0.25524 0.85647 0.0
H293 H 0.95104 0.18946 0.92572 0.0
H294 H 0.915 0.21796 0.9421 0.0
H295 H 0.89339 0.23476 0.85603 0.0
H296 H 0.92905 0.2061 0.83945 0.0
H297 H 0.84791 0.22802 0.88745 0.0
H298 H 0.93206 0.27521 0.89496 0.0
H299 H 0.97995 0.2834 0.91025 0.0
H300 H 0.95465 0.27928 0.99683 0.0
H301 H 0.90665 0.2707 0.98204 0.0
C302 C 0.78245 0.32916 0.92561 0.0
C303 C 0.77703 0.33315 0.95431 0.0
C304 C 0.80246 0.31188 0.9172 0.0
C305 C 0.81743 0.29827 0.93736 0.0
C306 C 0.81234 0.30252 0.96608 0.0
C307 C 0.79223 0.31972 0.9745 0.0
C308 C 0.83849 0.27971 0.92848 0.0
C309 C 0.86588 0.28281 0.93762 0.0
C310 C 0.83193 0.25966 0.91022 0.0
C311 C 0.80314 0.25459 0.90104 0.0
C312 C 0.78195 0.25126 0.921 0.0
C313 C 0.75485 0.24659 0.91221 0.0
C314 C 0.74869 0.24502 0.88351 0.0
C315 C 0.76965 0.24806 0.86354 0.0
C316 C 0.79679 0.25277 0.87221 0.0
C317 C 0.9386 0.19918 0.91025 0.0
C318 C 0.94311 0.19559 0.88125 0.0
C319 C 0.91806 0.21554 0.91966 0.0
C320 C 0.90172 0.22875 0.90029 0.0
C321 C 0.90579 0.22482 0.87136 0.0
C322 C 0.92629 0.20848 0.86193 0.0
C323 C 0.88046 0.24678 0.91009 0.0
C324 C 0.85302 0.24358 0.90112 0.0
C325 C 0.887 0.26678 0.92844 0.0
C326 C 0.91582 0.27205 0.93739 0.0
C327 C 0.93675 0.27585 0.91726 0.0
C328 C 0.96391 0.28059 0.92583 0.0
C329 C 0.97035 0.28179 0.95449 0.0
C330 C 0.94963 0.2783 0.97463 0.0
C331 C 0.92244 0.27352 0.96617 0.0
H332 H 0.99139 0.28546 0.96109 0.0
H333 H 0.7277 0.24139 0.87675 0.0
H334 H 0.22732 0.68767 0.49642 0.0
H335 H 0.19286 0.71817 0.48118 0.0
H336 H 0.19598 0.68822 0.39688 0.0
H337 H 0.23086 0.65789 0.41195 0.0
H338 H 0.19591 0.73818 0.39574 0.0
H339 H 0.14246 0.67427 0.44181 0.0
H340 H 0.12952 0.6463 0.48093 0.0
H341 H 0.11409 0.70971 0.53396 0.0
H342 H 0.1273 0.73807 0.49524 0.0
H343 H 0.07316 0.79041 0.34028 0.0
H344 H 0.10955 0.76264 0.35696 0.0
H345 H 0.10111 0.79277 0.4408 0.0
H346 H 0.064 0.82015 0.42442 0.0
H347 H 0.10483 0.74404 0.44333 0.0
H348 H 0.15645 0.80819 0.39613 0.0
H349 H 0.16895 0.83584 0.35656 0.0
H350 H 0.18775 0.77202 0.30534 0.0
H351 H 0.17497 0.74397 0.34445 0.0
C352 C 0.22068 0.68756 0.47464 0.0
C353 C 0.2317 0.67032 0.45534 0.0
C354 C 0.20089 0.70497 0.46597 0.0
C355 C 0.19157 0.70533 0.43794 0.0
C356 C 0.20283 0.6883 0.4186 0.0
C357 C 0.22266 0.67094 0.42724 0.0
C358 C 0.17007 0.72339 0.42872 0.0
C359 C 0.17588 0.73929 0.40595 0.0
C360 C 0.14417 0.72529 0.44246 0.0
C361 C 0.13614 0.70827 0.46572 0.0
C362 C 0.13651 0.68224 0.46188 0.0
C363 C 0.12909 0.66632 0.48397 0.0
C364 C 0.12106 0.67622 0.50994 0.0
C365 C 0.12036 0.70207 0.51385 0.0
C366 C 0.12779 0.71807 0.49184 0.0
C367 C 0.07908 0.79124 0.36227 0.0
C368 C 0.06563 0.80754 0.38102 0.0
C369 C 0.10004 0.77541 0.37175 0.0
C370 C 0.10843 0.77584 0.40008 0.0
C371 C 0.09506 0.79211 0.41885 0.0
C372 C 0.07386 0.80779 0.40943 0.0
C373 C 0.13059 0.75882 0.41024 0.0
C374 C 0.12491 0.74309 0.4332 0.0
C375 C 0.15662 0.75709 0.39665 0.0
C376 C 0.16454 0.77397 0.37318 0.0
C377 C 0.16307 0.80005 0.37637 0.0
C378 C 0.17023 0.81579 0.35403 0.0
C379 C 0.17909 0.80568 0.32844 0.0
C380 C 0.18087 0.77982 0.32517 0.0
C381 C 0.1737 0.76399 0.34742 0.0
H382 H 0.18465 0.81787 0.31117 0.0
H383 H 0.11532 0.66387 0.52701 0.0
H384 H 0.71624 0.82119 0.00174 0.0
H385 H 0.68019 0.79218 0.98628 0.0
H386 H 0.69519 0.81305 0.89983 0.0
H387 H 0.731 0.84242 0.91525 0.0
H388 H 0.64107 0.81087 0.91028 0.0
H389 H 0.71946 0.75778 0.92709 0.0
H390 H 0.75771 0.73991 0.95485 0.0
H391 H 0.6998 0.71264 0.01617 0.0
H392 H 0.66122 0.73065 0.98895 0.0
H393 H 0.5734 0.71151 0.84065 0.0
H394 H 0.60838 0.74018 0.8588 0.0
H395 H 0.58831 0.71825 0.9438 0.0
H396 H 0.55336 0.68925 0.92583 0.0
H397 H 0.64385 0.72108 0.93579 0.0
H398 H 0.56534 0.77315 0.91822 0.0
H399 H 0.52712 0.79073 0.8902 0.0
H400 H 0.58529 0.8198 0.8302 0.0
H401 H 0.62386 0.80208 0.85767 0.0
C402 C 0.71188 0.8196 0.97944 0.0
C403 C 0.7265 0.83398 0.95962 0.0
C404 C 0.69133 0.80293 0.97063 0.0
C405 C 0.6852 0.8002 0.94186 0.0
C406 C 0.69958 0.81481 0.92212 0.0
C407 C 0.72006 0.83151 0.93093 0.0
C408 C 0.6637 0.78226 0.93225 0.0
C409 C 0.64187 0.79118 0.91558 0.0
C410 C 0.66432 0.75668 0.93977 0.0
C411 C 0.68748 0.74579 0.95613 0.0
C412 C 0.7149 0.74815 0.94661 0.0
C413 C 0.73664 0.73796 0.96222 0.0
C414 C 0.73119 0.72521 0.9873 0.0
C415 C 0.70399 0.72256 0.99677 0.0
C416 C 0.68218 0.73274 0.98124 0.0
C417 C 0.57637 0.71273 0.86322 0.0
C418 C 0.56038 0.69817 0.88178 0.0
C419 C 0.59634 0.72922 0.87357 0.0
C420 C 0.6007 0.73161 0.90268 0.0
C421 C 0.58521 0.71676 0.92126 0.0
C422 C 0.56519 0.70025 0.91093 0.0
C423 C 0.6214 0.74967 0.91364 0.0
C424 C 0.64303 0.74078 0.93058 0.0
C425 C 0.62062 0.77529 0.90636 0.0
C426 C 0.59748 0.78609 0.88988 0.0
C427 C 0.56997 0.78313 0.89894 0.0
C428 C 0.54825 0.79315 0.88318 0.0
C429 C 0.55377 0.80633 0.8584 0.0
C430 C 0.58104 0.80957 0.84938 0.0
C431 C 0.60285 0.79956 0.86505 0.0
H432 H 0.53692 0.81407 0.84623 0.0
H433 H 0.74805 0.71734 0.99936 0.0
H434 H 0.25798 0.19799 0.46909 0.0
H435 H 0.28971 0.22909 0.44945 0.0
H436 H 0.35069 0.1715 0.43597 0.0
H437 H 0.31834 0.14026 0.45408 0.0
H438 H 0.33558 0.24732 0.46303 0.0
H439 H 0.3919 0.18322 0.38185 0.0
H440 H 0.38115 0.14736 0.3511 0.0
H441 H 0.29527 0.16756 0.35129 0.0
H442 H 0.30555 0.20372 0.38172 0.0
H443 H 0.46099 0.3041 0.42206 0.0
H444 H 0.42483 0.27583 0.43876 0.0
H445 H 0.38746 0.27623 0.3562 0.0
H446 H 0.4241 0.30377 0.33914 0.0
H447 H 0.38681 0.23159 0.37428 0.0
H448 H 0.36034 0.30901 0.41256 0.0
H449 H 0.36578 0.34875 0.43802 0.0
H450 H 0.38059 0.3089 0.51501 0.0
H451 H 0.37611 0.26882 0.48979 0.0
C452 C 0.27813 0.19201 0.46182 0.0
C453 C 0.28574 0.16673 0.46295 0.0
C454 C 0.29631 0.2098 0.45066 0.0
C455 C 0.32255 0.2027 0.44076 0.0
C456 C 0.33034 0.17746 0.44266 0.0
C457 C 0.31194 0.15961 0.4532 0.0
C458 C 0.34183 0.22162 0.42865 0.0
C459 C 0.34673 0.24386 0.4436 0.0
C460 C 0.35581 0.21765 0.40279 0.0
C461 C 0.34948 0.19604 0.3843 0.0
C462 C 0.37074 0.18006 0.37524 0.0
C463 C 0.36472 0.15968 0.35788 0.0
C464 C 0.33753 0.15514 0.34932 0.0
C465 C 0.31631 0.17104 0.35802 0.0
C466 C 0.32221 0.19146 0.37535 0.0
C467 C 0.44503 0.29822 0.40748 0.0
C468 C 0.44544 0.30617 0.37926 0.0
C469 C 0.42428 0.28212 0.41708 0.0
C470 C 0.40317 0.27407 0.39885 0.0
C471 C 0.40353 0.28208 0.37068 0.0
C472 C 0.42447 0.29789 0.36097 0.0
C473 C 0.38101 0.25695 0.40899 0.0
C474 C 0.3756 0.23506 0.39367 0.0
C475 C 0.36564 0.26182 0.43379 0.0
C476 C 0.36813 0.28587 0.4492 0.0
C477 C 0.36498 0.30869 0.43487 0.0
C478 C 0.36787 0.33129 0.44927 0.0
C479 C 0.37347 0.33137 0.47814 0.0
C480 C 0.37625 0.30881 0.49264 0.0
C481 C 0.37358 0.28613 0.47829 0.0
H482 H 0.37563 0.34891 0.48926 0.0
H483 H 0.33292 0.13934 0.3359 0.0
H484 H 0.28243 0.81403 0.99807 0.0
H485 H 0.31792 0.78413 0.98389 0.0
H486 H 0.30329 0.8022 0.89659 0.0
H487 H 0.26736 0.83193 0.9107 0.0
H488 H 0.30854 0.75292 0.90301 0.0
H489 H 0.35944 0.8253 0.93164 0.0
H490 H 0.37368 0.85947 0.9633 0.0
H491 H 0.40082 0.80608 0.02478 0.0
H492 H 0.38638 0.77156 0.99362 0.0
H493 H 0.43737 0.7122 0.84481 0.0
H494 H 0.3994 0.73831 0.8619 0.0
H495 H 0.40412 0.70265 0.94315 0.0
H496 H 0.44175 0.67592 0.92598 0.0
H497 H 0.40375 0.75905 0.94141 0.0
H498 H 0.35368 0.68652 0.91044 0.0
H499 H 0.34136 0.65343 0.87661 0.0
H500 H 0.3143 0.70871 0.81725 0.0
H501 H 0.32692 0.7422 0.85059 0.0
C502 C 0.28673 0.81165 0.97585 0.0
C503 C 0.27218 0.8254 0.95544 0.0
C504 C 0.30711 0.79459 0.96777 0.0
C505 C 0.31352 0.79109 0.93917 0.0
C506 C 0.29873 0.80458 0.91877 0.0
C507 C 0.2783 0.82161 0.92684 0.0
C508 C 0.33573 0.7735 0.93054 0.0
C509 C 0.3294 0.75445 0.91123 0.0
C510 C 0.36289 0.77515 0.94161 0.0
C511 C 0.37153 0.79585 0.96043 0.0
C512 C 0.36821 0.82084 0.95202 0.0
C513 C 0.37636 0.84028 0.96985 0.0
C514 C 0.38806 0.83495 0.99607 0.0
C515 C 0.3917 0.81017 0.00448 0.0
C516 C 0.38355 0.79067 0.98674 0.0
C517 C 0.43029 0.70987 0.86631 0.0
C518 C 0.44256 0.69205 0.88409 0.0
C519 C 0.40858 0.72474 0.87599 0.0
C520 C 0.39903 0.72237 0.90375 0.0
C521 C 0.41127 0.70472 0.92165 0.0
C522 C 0.43264 0.68943 0.91179 0.0
C523 C 0.37645 0.73865 0.914 0.0
C524 C 0.38279 0.75748 0.93347 0.0
C525 C 0.3494 0.73696 0.9029 0.0
C526 C 0.34151 0.71688 0.8829 0.0
C527 C 0.34534 0.69164 0.89008 0.0
C528 C 0.33826 0.6728 0.87101 0.0
C529 C 0.32712 0.67896 0.84477 0.0
C530 C 0.32297 0.70397 0.83758 0.0
C531 C 0.33006 0.72289 0.85656 0.0
H532 H 0.32165 0.66434 0.83003 0.0
H533 H 0.39438 0.85002 0.00984 0.0
H534 H 0.71802 0.17996 0.49171 0.0
H535 H 0.68092 0.20819 0.47721 0.0
H536 H 0.71989 0.21757 0.39618 0.0
H537 H 0.7571 0.18918 0.41055 0.0
H538 H 0.70148 0.26271 0.41939 0.0
H539 H 0.66666 0.17996 0.40073 0.0
H540 H 0.65473 0.13649 0.41283 0.0
H541 H 0.59861 0.16245 0.47647 0.0
H542 H 0.61051 0.2061 0.465 0.0
H543 H 0.55666 0.28059 0.35134 0.0
H544 H 0.59483 0.25444 0.36716 0.0
H545 H 0.61556 0.30884 0.43078 0.0
H546 H 0.57756 0.33543 0.41476 0.0
H547 H 0.60466 0.23201 0.41614 0.0
H548 H 0.68541 0.30767 0.44138 0.0
H549 H 0.69711 0.35075 0.42723 0.0
H550 H 0.66159 0.3379 0.3456 0.0
H551 H 0.64998 0.29468 0.35916 0.0
C552 C 0.71876 0.18807 0.47083 0.0
C553 C 0.74045 0.18236 0.45218 0.0
C554 C 0.69751 0.20417 0.46257 0.0
C555 C 0.69761 0.21492 0.4356 0.0
C556 C 0.71947 0.20953 0.41712 0.0
C557 C 0.7406 0.19325 0.42528 0.0
C558 C 0.67454 0.23125 0.42639 0.0
C559 C 0.68029 0.25604 0.41874 0.0
C560 C 0.64694 0.2225 0.42534 0.0
C561 C 0.63969 0.19628 0.4322 0.0
C562 C 0.65195 0.17639 0.41746 0.0
C563 C 0.64516 0.15172 0.42418 0.0
C564 C 0.62598 0.14671 0.44546 0.0
C565 C 0.61349 0.16636 0.46002 0.0
C566 C 0.62023 0.19107 0.4534 0.0
C567 C 0.56929 0.28707 0.3687 0.0
C568 C 0.56399 0.31016 0.38176 0.0
C569 C 0.5911 0.27203 0.37778 0.0
C570 C 0.60819 0.27971 0.40004 0.0
C571 C 0.60287 0.30266 0.41332 0.0
C572 C 0.58106 0.3178 0.40419 0.0
C573 C 0.6315 0.26357 0.40921 0.0
C574 C 0.6258 0.23879 0.41693 0.0
C575 C 0.65915 0.27229 0.41005 0.0
C576 C 0.66664 0.29802 0.40139 0.0
C577 C 0.68025 0.31401 0.42037 0.0
C578 C 0.68684 0.33845 0.41246 0.0
C579 C 0.68006 0.34706 0.38555 0.0
C580 C 0.66677 0.33122 0.36646 0.0
C581 C 0.66016 0.30676 0.37425 0.0
H582 H 0.68511 0.36601 0.3795 0.0
H583 H 0.62075 0.1276 0.45063 0.0
H584 H 0.31973 0.40774 0.93896 0.0
H585 H 0.34099 0.4417 0.9121 0.0
H586 H 0.34212 0.48767 0.98672 0.0
H587 H 0.31956 0.45441 0.01325 0.0
H588 H 0.331 0.51563 0.94296 0.0
H589 H 0.39936 0.45295 0.96479 0.0
H590 H 0.41927 0.41058 0.96496 0.0
H591 H 0.41957 0.40995 0.87451 0.0
H592 H 0.39932 0.45222 0.87381 0.0
H593 H 0.44769 0.59415 0.92053 0.0
H594 H 0.41474 0.56273 0.9371 0.0
H595 H 0.41022 0.53152 0.85349 0.0
H596 H 0.44299 0.56301 0.83661 0.0
H597 H 0.42014 0.49605 0.89622 0.0
H598 H 0.35664 0.56178 0.87559 0.0
H599 H 0.33904 0.60491 0.87702 0.0
H600 H 0.33179 0.60061 0.96704 0.0
H601 H 0.34969 0.55751 0.96618 0.0
C602 C 0.32393 0.42528 0.9495 0.0
C603 C 0.3183 0.4282 0.97839 0.0
C604 C 0.33636 0.4446 0.93418 0.0
C605 C 0.34373 0.46707 0.94753 0.0
C606 C 0.33683 0.47047 0.97597 0.0
C607 C 0.32419 0.4513 0.9912 0.0
C608 C 0.36002 0.48655 0.93254 0.0
C609 C 0.35055 0.51134 0.93287 0.0
C610 C 0.38532 0.48097 0.91886 0.0
C611 C 0.39753 0.4556 0.91925 0.0
C612 C 0.40348 0.44369 0.94494 0.0
C613 C 0.41486 0.41971 0.94513 0.0
C614 C 0.4206 0.40755 0.91976 0.0
C615 C 0.41506 0.41937 0.89414 0.0
C616 C 0.40364 0.44334 0.89384 0.0
C617 C 0.43956 0.58072 0.9056 0.0
C618 C 0.44805 0.58105 0.87727 0.0
C619 C 0.42064 0.56285 0.91508 0.0
C620 C 0.40999 0.54489 0.89648 0.0
C621 C 0.4182 0.54526 0.86815 0.0
C622 C 0.43687 0.56332 0.85856 0.0
C623 C 0.39128 0.52505 0.90703 0.0
C624 C 0.40037 0.50023 0.90593 0.0
C625 C 0.36583 0.53066 0.92022 0.0
C626 C 0.35472 0.55647 0.92084 0.0
C627 C 0.35148 0.57009 0.89572 0.0
C628 C 0.34142 0.59453 0.89642 0.0
C629 C 0.33438 0.60554 0.92211 0.0
C630 C 0.33728 0.59207 0.94715 0.0
C631 C 0.34734 0.56762 0.94656 0.0
H632 H 0.32662 0.62448 0.92262 0.0
H633 H 0.42941 0.38899 0.91996 0.0
H634 H 0.72205 0.56235 0.46755 0.0
H635 H 0.70225 0.52713 0.44096 0.0
H636 H 0.6203 0.55588 0.45584 0.0
H637 H 0.63987 0.59079 0.48243 0.0
H638 H 0.66422 0.49065 0.46 0.0
H639 H 0.583 0.54698 0.39565 0.0
H640 H 0.57904 0.58823 0.37293 0.0
H641 H 0.66739 0.59253 0.3654 0.0
H642 H 0.67188 0.55117 0.38767 0.0
H643 H 0.54847 0.41792 0.42248 0.0
H644 H 0.58135 0.44912 0.43923 0.0
H645 H 0.60994 0.46087 0.35417 0.0
H646 H 0.57662 0.42999 0.33709 0.0
H647 H 0.60155 0.50397 0.37862 0.0
H648 H 0.64999 0.43016 0.40309 0.0
H649 H 0.6561 0.38822 0.42347 0.0
H650 H 0.63905 0.41716 0.50598 0.0
H651 H 0.63229 0.45922 0.48604 0.0
C652 C 0.69985 0.56118 0.46487 0.0
C653 C 0.68245 0.57921 0.47704 0.0
C654 C 0.68858 0.54105 0.44987 0.0
C655 C 0.65984 0.53898 0.44637 0.0
C656 C 0.64254 0.55722 0.45814 0.0
C657 C 0.65372 0.57708 0.47339 0.0
C658 C 0.64746 0.51758 0.43103 0.0
C659 C 0.65067 0.49346 0.44207 0.0
C660 C 0.63034 0.52123 0.40725 0.0
C661 C 0.62776 0.54604 0.39356 0.0
C662 C 0.60158 0.55667 0.38903 0.0
C663 C 0.59924 0.58009 0.37625 0.0
C664 C 0.62295 0.59302 0.3678 0.0
C665 C 0.64904 0.58254 0.37205 0.0
C666 C 0.65149 0.55912 0.38479 0.0
C667 C 0.56188 0.42696 0.4073 0.0
C668 C 0.5598 0.42148 0.3784 0.0
C669 C 0.58081 0.44474 0.41696 0.0
C670 C 0.59837 0.45719 0.39801 0.0
C671 C 0.59663 0.45151 0.36919 0.0
C672 C 0.57758 0.43381 0.35947 0.0
C673 C 0.61741 0.47706 0.40822 0.0
C674 C 0.61539 0.50097 0.39627 0.0
C675 C 0.63602 0.47307 0.43082 0.0
C676 C 0.64049 0.44786 0.44302 0.0
C677 C 0.64739 0.42757 0.42556 0.0
C678 C 0.65098 0.40376 0.43704 0.0
C679 C 0.64797 0.40002 0.466 0.0
C680 C 0.64139 0.42009 0.48355 0.0
C681 C 0.6377 0.44393 0.47217 0.0
H682 H 0.65075 0.38156 0.47483 0.0
H683 H 0.62109 0.61115 0.35792 0.0
H684 H 0.68401 0.41261 0.94493 0.0
H685 H 0.6627 0.44861 0.92178 0.0
H686 H 0.67505 0.4926 0.99689 0.0
H687 H 0.69617 0.45665 0.02013 0.0
H688 H 0.6234 0.49613 0.97973 0.0
H689 H 0.71201 0.50367 0.9357 0.0
H690 H 0.75285 0.48944 0.90913 0.0
H691 H 0.70155 0.47277 0.83772 0.0
H692 H 0.66033 0.48658 0.86401 0.0
H693 H 0.57271 0.60847 0.92046 0.0
H694 H 0.60529 0.57845 0.94061 0.0
H695 H 0.59179 0.5291 0.87015 0.0
H696 H 0.55944 0.55898 0.84975 0.0
H697 H 0.64631 0.53038 0.88548 0.0
H698 H 0.55787 0.51943 0.93045 0.0
H699 H 0.51656 0.53307 0.95669 0.0
H700 H 0.56767 0.55546 0.02624 0.0
H701 H 0.60934 0.54228 1.00021 0.0
C702 C 0.68273 0.43013 0.95626 0.0
C703 C 0.6916 0.43177 0.9844 0.0
C704 C 0.67054 0.45071 0.94302 0.0
C705 C 0.6673 0.47338 0.95756 0.0
C706 C 0.67718 0.47529 0.98528 0.0
C707 C 0.68922 0.45473 0.99854 0.0
C708 C 0.65176 0.49447 0.94475 0.0
C709 C 0.6288 0.50392 0.95936 0.0
C710 C 0.65827 0.50424 0.91783 0.0
C711 C 0.68304 0.49596 0.90193 0.0
C712 C 0.7094 0.49679 0.91441 0.0
C713 C 0.73263 0.48883 0.89938 0.0
C714 C 0.72979 0.48015 0.87178 0.0
C715 C 0.70372 0.47947 0.85912 0.0
C716 C 0.68042 0.48739 0.87406 0.0
C717 C 0.57687 0.59135 0.90909 0.0
C718 C 0.56319 0.58603 0.88363 0.0
C719 C 0.59546 0.57418 0.92068 0.0
C720 C 0.60071 0.55139 0.90704 0.0
C721 C 0.58803 0.54653 0.88105 0.0
C722 C 0.5694 0.56362 0.8695 0.0
C723 C 0.61813 0.53196 0.92054 0.0
C724 C 0.64125 0.52274 0.90601 0.0
C725 C 0.61177 0.52231 0.94753 0.0
C726 C 0.58674 0.53014 0.96326 0.0
C727 C 0.56031 0.52746 0.95125 0.0
C728 C 0.53683 0.53507 0.96609 0.0
C729 C 0.5395 0.5452 0.99309 0.0
C730 C 0.56564 0.54766 0.00531 0.0
C731 C 0.5892 0.54011 0.99053 0.0
H732 H 0.52129 0.55108 0.00455 0.0
H733 H 0.7478 0.474 0.86017 0.0
H734 H 0.36503 0.5825 0.49813 0.0
H735 H 0.38538 0.54737 0.47313 0.0
H736 H 0.30528 0.52756 0.43994 0.0
H737 H 0.28442 0.56249 0.4659 0.0
H738 H 0.33346 0.48639 0.45752 0.0
H739 H 0.35147 0.55587 0.39785 0.0
H740 H 0.3669 0.59841 0.38568 0.0
H741 H 0.44937 0.5806 0.41232 0.0
H742 H 0.43435 0.53803 0.42504 0.0
H743 H 0.4388 0.43613 0.34281 0.0
H744 H 0.40571 0.46662 0.36059 0.0
H745 H 0.41077 0.43336 0.44326 0.0
H746 H 0.44308 0.40207 0.42515 0.0
H747 H 0.41436 0.50108 0.39544 0.0
H748 H 0.35438 0.44729 0.48271 0.0
H749 H 0.33583 0.40509 0.4916 0.0
H750 H 0.33203 0.39123 0.40261 0.0
H751 H 0.3502 0.43345 0.39315 0.0
C752 C 0.35162 0.57058 0.48573 0.0
C753 C 0.32304 0.57524 0.48413 0.0
C754 C 0.36336 0.5506 0.47123 0.0
C755 C 0.34692 0.53495 0.45444 0.0
C756 C 0.31835 0.53943 0.45276 0.0
C757 C 0.30651 0.55951 0.46737 0.0
C758 C 0.35996 0.51408 0.4387 0.0
C759 C 0.35105 0.48952 0.44379 0.0
C760 C 0.38253 0.51823 0.42033 0.0
C761 C 0.39172 0.54379 0.41257 0.0
C762 C 0.37285 0.56107 0.40129 0.0
C763 C 0.38153 0.58518 0.39427 0.0
C764 C 0.40909 0.59222 0.39827 0.0
C765 C 0.42803 0.57512 0.40924 0.0
C766 C 0.41945 0.55099 0.41633 0.0
C767 C 0.43253 0.43508 0.3647 0.0
C768 C 0.44367 0.41682 0.38265 0.0
C769 C 0.41362 0.45255 0.37485 0.0
C770 C 0.40562 0.45239 0.4033 0.0
C771 C 0.41613 0.43368 0.42112 0.0
C772 C 0.43473 0.41586 0.4108 0.0
C773 C 0.38834 0.4731 0.41463 0.0
C774 C 0.39657 0.49775 0.40885 0.0
C775 C 0.3648 0.46895 0.4318 0.0
C776 C 0.35384 0.4435 0.43724 0.0
C777 C 0.34948 0.43528 0.46503 0.0
C778 C 0.33905 0.41135 0.47017 0.0
C779 C 0.33275 0.39551 0.44769 0.0
C780 C 0.33695 0.40352 0.42001 0.0
C781 C 0.34736 0.42744 0.41474 0.0
H782 H 0.32458 0.37703 0.45172 0.0
H783 H 0.41577 0.6109 0.39282 0.0
H784 H 0.82074 0.90927 0.94819 0.0
H785 H 0.84235 0.94435 0.92343 0.0
H786 H 0.83877 0.98848 0.99934 0.0
H787 H 0.81674 0.95362 0.02408 0.0
H788 H 0.82668 0.01631 0.95156 0.0
H789 H 0.89667 0.95921 0.98376 0.0
H790 H 0.91925 0.91819 0.98857 0.0
H791 H 0.92897 0.91384 0.89879 0.0
H792 H 0.90604 0.95469 0.89343 0.0
H793 H 0.9344 0.1044 0.92263 0.0
H794 H 0.90277 0.07319 0.94217 0.0
H795 H 0.91433 0.02718 0.86852 0.0
H796 H 0.94634 0.05794 0.84918 0.0
H797 H 0.92075 1.00037 0.91404 0.0
H798 H 0.85286 0.05875 0.88174 0.0
H799 H 0.83055 0.0999 0.87711 0.0
H800 H 0.81702 0.1023 0.96646 0.0
H801 H 0.8396 0.06129 0.97169 0.0
C802 C 0.82405 0.92661 0.95944 0.0
C803 C 0.81728 0.92863 0.98814 0.0
C804 C 0.83654 0.94658 0.94533 0.0
C805 C 0.84248 0.9689 0.95967 0.0
C806 C 0.83445 0.9714 0.98791 0.0
C807 C 0.82208 0.95142 0.00206 0.0
C808 C 0.85875 0.98895 0.94584 0.0
C809 C 0.84733 0.01294 0.94352 0.0
C810 C 0.88551 0.9844 0.93499 0.0
C811 C 0.89936 0.95987 0.93818 0.0
C812 C 0.90341 0.94941 0.96503 0.0
C813 C 0.91631 0.9262 0.96786 0.0
C814 C 0.92547 0.91338 0.944 0.0
C815 C 0.92181 0.92377 0.91726 0.0
C816 C 0.90887 0.94695 0.91431 0.0
C817 C 0.92993 0.08779 0.91044 0.0
C818 C 0.94307 0.08359 0.88443 0.0
C819 C 0.91174 0.06999 0.92159 0.0
C820 C 0.90605 0.04785 0.90677 0.0
C821 C 0.91847 0.04405 0.8804 0.0
C822 C 0.93677 0.06169 0.86936 0.0
C823 C 0.88867 0.02786 0.91943 0.0
C824 C 0.89999 0.00382 0.92175 0.0
C825 C 0.86185 0.03243 0.93022 0.0
C826 C 0.84816 0.05704 0.92713 0.0
C827 C 0.84532 0.06814 0.90043 0.0
C828 C 0.83259 0.09142 0.89769 0.0
C829 C 0.82244 0.10374 0.92148 0.0
C830 C 0.82493 0.09275 0.94805 0.0
C831 C 0.83766 0.06947 0.95091 0.0
H832 H 0.8126 0.12177 0.91931 0.0
H833 H 0.93547 0.89543 0.94623 0.0
H834 H 0.14008 0.0915 0.48661 0.0
H835 H 0.12053 0.05485 0.4634 0.0
H836 H 0.20265 0.02804 0.44512 0.0
H837 H 0.22243 0.0651 0.46826 0.0
H838 H 0.16668 0.01891 0.40138 0.0
H839 H 0.16953 0.00453 0.50028 0.0
H840 H 0.16226 0.01474 0.55038 0.0
H841 H 0.07454 0.01762 0.5369 0.0
H842 H 0.0813 0.00784 0.48659 0.0
H843 H 0.07879 0.895 0.41721 0.0
H844 H 0.11182 0.92554 0.43587 0.0
H845 H 0.08478 0.97923 0.37407 0.0
H846 H 0.05217 0.94893 0.3551 0.0
H847 H 0.10169 0.96924 0.45991 0.0
H848 H 0.13748 0.01765 0.3558 0.0
H849 H 0.14663 0.00578 0.30648 0.0
H850 H 0.16198 0.9302 0.33212 0.0
H851 H 0.15359 0.9417 0.3816 0.0
C852 C 0.15398 0.07789 0.47746 0.0
C853 C 0.18276 0.08092 0.47958 0.0
C854 C 0.1428 0.05697 0.46421 0.0
C855 C 0.16014 0.03845 0.45309 0.0
C856 C 0.18892 0.04205 0.45373 0.0
C857 C 0.20017 0.06319 0.46689 0.0
C858 C 0.14792 0.01489 0.44226 0.0
C859 C 0.15257 0.00795 0.41415 0.0
C860 C 0.13018 1.00015 0.45923 0.0
C861 C 0.12595 0.00558 0.48961 0.0
C862 C 0.1487 0.00747 0.50796 0.0
C863 C 0.14467 0.01318 0.5364 0.0
C864 C 0.11796 0.01686 0.54681 0.0
C865 C 0.09522 0.01476 0.5288 0.0
C866 C 0.09913 0.00911 0.50033 0.0
C867 C 0.08008 0.91322 0.40741 0.0
C868 C 0.06275 0.9195 0.3847 0.0
C869 C 0.09894 0.93066 0.41813 0.0
C870 C 0.10097 0.95459 0.4062 0.0
C871 C 0.08397 0.96075 0.3833 0.0
C872 C 0.06517 0.94339 0.37259 0.0
C873 C 0.11951 0.97379 0.41865 0.0
C874 C 0.11605 0.97994 0.44714 0.0
C875 C 0.13873 0.98743 0.40215 0.0
C876 C 0.14468 0.98053 0.37244 0.0
C877 C 0.14304 0.99854 0.35096 0.0
C878 C 0.14809 0.99187 0.32294 0.0
C879 C 0.15486 0.96724 0.31614 0.0
C880 C 0.15674 0.94927 0.33737 0.0
C881 C 0.15183 0.95585 0.36541 0.0
H882 H 0.15865 0.96209 0.29444 0.0
H883 H 0.11489 0.0213 0.56883 0.0
H884 H 0.13923 0.91646 0.00447 0.0
H885 H 0.11595 0.9493 0.97882 0.0
H886 H 0.1876 0.95871 0.92565 0.0
H887 H 0.21229 0.92732 0.9533 0.0
H888 H 0.16951 1.0017 0.93629 0.0
H889 H 0.12448 0.92926 0.90295 0.0
H890 H 0.10059 0.88859 0.90463 0.0
H891 H 0.03319 0.92176 0.94997 0.0
H892 H 0.05684 0.96257 0.94895 0.0
H893 H 0.08111 0.07702 0.84512 0.0
H894 H 0.11015 0.04259 0.86207 0.0
H895 H 0.06354 0.0403 0.93942 0.0
H896 H 0.03485 0.07489 0.92301 0.0
H897 H 0.07107 0.99233 0.90878 0.0
H898 H 0.12202 0.0653 0.94247 0.0
H899 H 0.146 0.1052 0.93411 0.0
H900 H 0.20375 0.06845 0.87936 0.0
H901 H 0.17961 0.02838 0.88687 0.0
C902 C 0.15039 0.9257 0.98766 0.0
C903 C 0.17792 0.91928 0.98132 0.0
C904 C 0.13671 0.94423 0.97251 0.0
C905 C 0.14967 0.95625 0.94977 0.0
C906 C 0.17702 0.94968 0.94299 0.0
C907 C 0.19103 0.93147 0.95865 0.0
C908 C 0.13486 0.97629 0.93405 0.0
C909 C 0.14815 0.99937 0.92981 0.0
C910 C 0.10695 0.97349 0.92535 0.0
C911 C 0.09255 0.94897 0.92602 0.0
C912 C 0.10465 0.92786 0.91345 0.0
C913 C 0.09113 0.90478 0.91427 0.0
C914 C 0.06541 0.90259 0.92744 0.0
C915 C 0.05312 0.92349 0.93978 0.0
C916 C 0.06656 0.94661 0.93906 0.0
C917 C 0.07723 0.06932 0.86584 0.0
C918 C 0.05572 0.07872 0.88275 0.0
C919 C 0.09379 0.04966 0.87544 0.0
C920 C 0.08885 0.0389 0.90191 0.0
C921 C 0.06757 0.04835 0.91889 0.0
C922 C 0.05134 0.06823 0.90955 0.0
C923 C 0.10553 0.01754 0.91202 0.0
C924 C 0.09254 0.9943 0.91503 0.0
C925 C 0.13386 0.01997 0.91875 0.0
C926 C 0.14882 0.04391 0.91497 0.0
C927 C 0.13969 0.06576 0.92847 0.0
C928 C 0.15335 0.08842 0.9239 0.0
C929 C 0.17639 0.08939 0.90616 0.0
C930 C 0.18588 0.06768 0.89306 0.0
C931 C 0.17221 0.045 0.89745 0.0
H932 H 0.18691 0.10694 0.90256 0.0
H933 H 0.05498 0.8847 0.92805 0.0
H934 H 0.79749 0.07833 0.45049 0.0
H935 H 0.82009 0.04473 0.42436 0.0
H936 H 0.89501 0.05694 0.47185 0.0
H937 H 0.8735 0.09177 0.49602 0.0
H938 H 0.90948 0.04614 0.42306 0.0
H939 H 0.844 0.00887 0.48692 0.0
H940 H 0.7981 1.00124 0.50791 0.0
H941 H 0.76747 0.97593 0.42794 0.0
H942 H 0.81314 0.9837 0.40639 0.0
H943 H 0.97022 0.92597 0.42349 0.0
H944 H 0.94135 0.96067 0.4393 0.0
H945 H 0.89467 0.95703 0.36208 0.0
H946 H 0.92392 0.92252 0.34569 0.0
H947 H 0.86372 0.96319 0.41992 0.0
H948 H 0.93483 0.99832 0.35903 0.0
H949 H 0.98334 0.00272 0.34375 0.0
H950 H 0.00581 0.02947 0.4259 0.0
H951 H 0.95748 0.02483 0.4418 0.0
C952 C 0.81896 0.07424 0.45493 0.0
C953 C 0.83344 0.08756 0.47583 0.0
C954 C 0.83177 0.05471 0.44025 0.0
C955 C 0.8591 0.04771 0.44661 0.0
C956 C 0.87386 0.0617 0.46661 0.0
C957 C 0.86133 0.08148 0.48078 0.0
C958 C 0.87238 0.02556 0.43322 0.0
C959 C 0.89937 0.02806 0.42254 0.0
C960 C 0.8593 1.00183 0.43209 0.0
C961 C 0.83186 0.99715 0.44498 0.0
C962 C 0.82741 1.00185 0.47377 0.0
C963 C 0.80145 0.99748 0.48577 0.0
C964 C 0.77986 0.98819 0.46924 0.0
C965 C 0.7842 0.98318 0.44069 0.0
C966 C 0.81011 0.98756 0.42858 0.0
C967 C 0.95357 0.93225 0.41 0.0
C968 C 0.94944 0.92156 0.38326 0.0
C969 C 0.93715 0.95211 0.41906 0.0
C970 C 0.91602 0.96139 0.40178 0.0
C971 C 0.9109 0.95005 0.37568 0.0
C972 C 0.92766 0.93043 0.36634 0.0
C973 C 0.90062 0.98398 0.41043 0.0
C974 C 0.87342 0.98147 0.42017 0.0
C975 C 0.9137 0.00755 0.41143 0.0
C976 C 0.94259 0.01103 0.40166 0.0
C977 C 0.95015 0.00498 0.37389 0.0
C978 C 0.97761 0.00754 0.36511 0.0
C979 C 0.99766 0.01631 0.38386 0.0
C980 C 0.99026 0.02266 0.4114 0.0
C981 C 0.96283 0.0201 0.42029 0.0
H982 H 0.01891 0.01822 0.37705 0.0
H983 H 0.75978 0.98481 0.47857 0.0
H984 H 0.32825 0.33946 0.06365 0.0
H985 H 0.35108 0.33464 0.1094 0.0
H986 H 0.34129 0.41345 0.12521 0.0
H987 H 0.31862 0.41838 0.07957 0.0
H988 H 0.39286 0.39932 0.13531 0.0
H989 H 0.30238 0.3692 0.16009 0.0
H990 H 0.26093 0.34264 0.15557 0.0
H991 H 0.3104 0.27714 0.16846 0.0
H992 H 0.35224 0.3033 0.17267 0.0
H993 H 0.43394 0.40273 0.27731 0.0
H994 H 0.40364 0.40409 0.23616 0.0
H995 H 0.42155 0.3268 0.21866 0.0
H996 H 0.45191 0.32518 0.25982 0.0
H997 H 0.36577 0.33912 0.20985 0.0
H998 H 0.45595 0.36868 0.18411 0.0
H999 H 0.49772 0.39479 0.18898 0.0
H1000 H 0.44892 0.4609 0.17741 0.0
H1001 H 0.40676 0.43518 0.17298 0.0
C1002 C 0.33059 0.35566 0.0771 0.0
C1003 C 0.32178 0.37932 0.06797 0.0
C1004 C 0.34364 0.35289 0.10323 0.0
C1005 C 0.34782 0.37368 0.1208 0.0
C1006 C 0.33843 0.39718 0.11196 0.0
C1007 C 0.32552 0.39997 0.08586 0.0
C1008 C 0.36321 0.37131 0.14773 0.0
C1009 C 0.38664 0.38642 0.15176 0.0
C1010 C 0.35562 0.35395 0.16888 0.0
C1011 C 0.33048 0.3382 0.16641 0.0
C1012 C 0.30446 0.34912 0.16173 0.0
C1013 C 0.28089 0.33414 0.15927 0.0
C1014 C 0.28304 0.30822 0.16165 0.0
C1015 C 0.30877 0.29722 0.16658 0.0
C1016 C 0.33241 0.31212 0.16903 0.0
C1017 C 0.43121 0.3859 0.26495 0.0
C1018 C 0.44565 0.36392 0.27167 0.0
C1019 C 0.4139 0.38674 0.24141 0.0
C1020 C 0.41065 0.36563 0.2242 0.0
C1021 C 0.42385 0.3433 0.23165 0.0
C1022 C 0.44129 0.34247 0.25511 0.0
C1023 C 0.39503 0.36738 0.19743 0.0
C1024 C 0.37178 0.35209 0.19339 0.0
C1025 C 0.40278 0.38451 0.17617 0.0
C1026 C 0.42815 0.40002 0.1785 0.0
C1027 C 0.45409 0.3888 0.18283 0.0
C1028 C 0.47784 0.40352 0.18548 0.0
C1029 C 0.47596 0.42949 0.18357 0.0
C1030 C 0.45033 0.44078 0.17893 0.0
C1031 C 0.4265 0.42614 0.17634 0.0
H1032 H 0.49437 0.44086 0.18563 0.0
H1033 H 0.26476 0.29666 0.15974 0.0
H1034 H 0.63752 0.61998 0.55288 0.0
H1035 H 0.61695 0.62627 0.5991 0.0
H1036 H 0.69657 0.64735 0.6326 0.0
H1037 H 0.71772 0.6396 0.5866 0.0
H1038 H 0.67183 0.61853 0.66861 0.0
H1039 H 0.64565 0.69145 0.61888 0.0
H1040 H 0.62697 0.71643 0.57965 0.0
H1041 H 0.54734 0.68227 0.59073 0.0
H1042 H 0.56563 0.65681 0.62978 0.0
H1043 H 0.56145 0.68261 0.7688 0.0
H1044 H 0.59298 0.68375 0.72857 0.0
H1045 H 0.59815 0.60331 0.73002 0.0
H1046 H 0.5676 0.60216 0.77088 0.0
H1047 H 0.58592 0.66816 0.67887 0.0
H1048 H 0.65655 0.58216 0.7013 0.0
H1049 H 0.67833 0.56148 0.74205 0.0
H1050 H 0.67516 0.63005 0.78879 0.0
H1051 H 0.65373 0.65123 0.74821 0.0
C1052 C 0.6508 0.62567 0.57009 0.0
C1053 C 0.67935 0.62919 0.56595 0.0
C1054 C 0.6389 0.62962 0.59649 0.0
C1055 C 0.6551 0.63768 0.61929 0.0
C1056 C 0.68361 0.64124 0.6153 0.0
C1057 C 0.69562 0.63704 0.5889 0.0
C1058 C 0.64219 0.64185 0.64733 0.0
C1059 C 0.65313 0.6295 0.67091 0.0
C1060 C 0.61826 0.65676 0.65058 0.0
C1061 C 0.60708 0.6721 0.62715 0.0
C1062 C 0.6242 0.68914 0.61284 0.0
C1063 C 0.61368 0.70341 0.59065 0.0
C1064 C 0.586 0.70091 0.58268 0.0
C1065 C 0.56878 0.68417 0.59692 0.0
C1066 C 0.57921 0.66985 0.61912 0.0
C1067 C 0.56965 0.66519 0.76078 0.0
C1068 C 0.562 0.64229 0.77299 0.0
C1069 C 0.58764 0.66586 0.73774 0.0
C1070 C 0.59816 0.64364 0.72627 0.0
C1071 C 0.59088 0.62077 0.73878 0.0
C1072 C 0.57325 0.62012 0.7621 0.0
C1073 C 0.61504 0.64422 0.70006 0.0
C1074 C 0.60481 0.65743 0.67675 0.0
C1075 C 0.64009 0.63076 0.69733 0.0
C1076 C 0.65332 0.61823 0.72175 0.0
C1077 C 0.66063 0.59286 0.72021 0.0
C1078 C 0.67289 0.58104 0.7433 0.0
C1079 C 0.67805 0.59443 0.76802 0.0
C1080 C 0.67106 0.61968 0.76967 0.0
C1081 C 0.65882 0.63159 0.74664 0.0
H1082 H 0.68752 0.58523 0.78587 0.0
H1083 H 0.57789 0.71197 0.56549 0.0
H1084 H 0.64381 0.3906 0.05766 0.0
H1085 H 0.62347 0.38458 0.10413 0.0
H1086 H 0.7002 0.35399 0.13452 0.0
H1087 H 0.72144 0.36113 0.08827 0.0
H1088 H 0.64348 0.32711 0.14821 0.0
H1089 H 0.69457 0.40447 0.1564 0.0
H1090 H 0.70933 0.44604 0.13983 0.0
H1091 H 0.62498 0.47095 0.14036 0.0
H1092 H 0.60968 0.42938 0.1565 0.0
H1093 H 0.58547 0.33319 0.28759 0.0
H1094 H 0.61845 0.33415 0.24829 0.0
H1095 H 0.57003 0.39161 0.208 0.0
H1096 H 0.53794 0.39142 0.24736 0.0
H1097 H 0.62107 0.40318 0.20327 0.0
H1098 H 0.56835 0.32748 0.18846 0.0
H1099 H 0.55003 0.28599 0.20123 0.0
H1100 H 0.63274 0.25797 0.20983 0.0
H1101 H 0.65154 0.29941 0.19742 0.0
C1102 C 0.6566 0.38287 0.07421 0.0
C1103 C 0.68448 0.37676 0.06924 0.0
C1104 C 0.64479 0.37919 0.10068 0.0
C1105 C 0.66041 0.36896 0.12265 0.0
C1106 C 0.68786 0.36185 0.11769 0.0
C1107 C 0.69989 0.36588 0.09123 0.0
C1108 C 0.64801 0.36699 0.15102 0.0
C1109 C 0.63908 0.3436 0.16068 0.0
C1110 C 0.6418 0.38863 0.16676 0.0
C1111 C 0.65097 0.41375 0.15745 0.0
C1112 C 0.67915 0.41875 0.15277 0.0
C1113 C 0.68762 0.44233 0.14349 0.0
C1114 C 0.6681 0.46111 0.13899 0.0
C1115 C 0.64008 0.45638 0.14384 0.0
C1116 C 0.6315 0.43282 0.15308 0.0
C1117 C 0.58199 0.34604 0.27034 0.0
C1118 C 0.55914 0.36225 0.2706 0.0
C1119 C 0.60076 0.34652 0.24785 0.0
C1120 C 0.59664 0.36281 0.225 0.0
C1121 C 0.57384 0.37899 0.2254 0.0
C1122 C 0.55543 0.37882 0.24796 0.0
C1123 C 0.61569 0.36328 0.2004 0.0
C1124 C 0.6259 0.38649 0.19131 0.0
C1125 C 0.6226 0.34149 0.18497 0.0
C1126 C 0.61133 0.31659 0.19237 0.0
C1127 C 0.58262 0.31251 0.19328 0.0
C1128 C 0.57215 0.289 0.20041 0.0
C1129 C 0.59021 0.26938 0.20643 0.0
C1130 C 0.61878 0.2732 0.20523 0.0
C1131 C 0.62935 0.29669 0.19814 0.0
H1132 H 0.58207 0.25119 0.21194 0.0
H1133 H 0.67469 0.47935 0.1318 0.0
H1134 H 0.28475 0.64115 0.59016 0.0
H1135 H 0.30451 0.64801 0.6372 0.0
H1136 H 0.38285 0.61955 0.60848 0.0
H1137 H 0.36411 0.61403 0.56132 0.0
H1138 H 0.35362 0.59734 0.66268 0.0
H1139 H 0.38607 0.67342 0.61361 0.0
H1140 H 0.37712 0.71259 0.5879 0.0
H1141 H 0.32701 0.73893 0.65638 0.0
H1142 H 0.33537 0.6997 0.68231 0.0
H1143 H 0.4672 0.61201 0.74878 0.0
H1144 H 0.43332 0.61121 0.71106 0.0
H1145 H 0.38708 0.6697 0.75205 0.0
H1146 H 0.42183 0.67125 0.78975 0.0
H1147 H 0.38884 0.67859 0.698 0.0
H1148 H 0.36346 0.60833 0.7518 0.0
H1149 H 0.36968 0.56969 0.77926 0.0
H1150 H 0.40035 0.53218 0.70572 0.0
H1151 H 0.39476 0.5707 0.67789 0.0
C1152 C 0.30631 0.63675 0.59369 0.0
C1153 C 0.32269 0.6267 0.57191 0.0
C1154 C 0.31746 0.64053 0.62062 0.0
C1155 C 0.34501 0.63408 0.6262 0.0
C1156 C 0.36144 0.62439 0.60455 0.0
C1157 C 0.35056 0.62106 0.57764 0.0
C1158 C 0.35701 0.63672 0.65464 0.0
C1159 C 0.36133 0.61505 0.67054 0.0
C1160 C 0.36589 0.66 0.66526 0.0
C1161 C 0.361 0.68352 0.64968 0.0
C1162 C 0.37288 0.68744 0.62303 0.0
C1163 C 0.36799 0.70968 0.60846 0.0
C1164 C 0.35141 0.7282 0.62045 0.0
C1165 C 0.33978 0.72455 0.64708 0.0
C1166 C 0.3446 0.70233 0.66172 0.0
C1167 C 0.44977 0.62465 0.74996 0.0
C1168 C 0.44714 0.64161 0.77237 0.0
C1169 C 0.43027 0.62407 0.72839 0.0
C1170 C 0.40723 0.63997 0.72899 0.0
C1171 C 0.40457 0.65712 0.75123 0.0
C1172 C 0.42441 0.65797 0.77274 0.0
C1173 C 0.3867 0.63893 0.70571 0.0
C1174 C 0.38063 0.66087 0.69072 0.0
C1175 C 0.37564 0.61588 0.69622 0.0
C1176 C 0.37878 0.59249 0.71276 0.0
C1177 C 0.37167 0.59189 0.7415 0.0
C1178 C 0.37508 0.57 0.75714 0.0
C1179 C 0.38542 0.54851 0.74425 0.0
C1180 C 0.39232 0.54885 0.71567 0.0
C1181 C 0.38899 0.5707 0.69993 0.0
H1182 H 0.38806 0.53158 0.7564 0.0
H1183 H 0.34765 0.74541 0.60914 0.0
H1184 H 0.7857 0.86375 0.09434 0.0
H1185 H 0.80811 0.8556 0.13975 0.0
H1186 H 0.88741 0.87333 0.10317 0.0
H1187 H 0.86534 0.88072 0.05773 0.0
H1188 H 0.8918 0.83406 0.13729 0.0
H1189 H 0.85138 0.91645 0.14113 0.0
H1190 H 0.81331 0.94692 0.13834 0.0
H1191 H 0.77064 0.90889 0.20511 0.0
H1192 H 0.80834 0.87798 0.20803 0.0
H1193 H 0.94929 0.89969 0.26718 0.0
H1194 H 0.91762 0.89864 0.22728 0.0
H1195 H 0.90591 0.81948 0.23902 0.0
H1196 H 0.93791 0.82029 0.27905 0.0
H1197 H 0.86414 0.88568 0.21937 0.0
H1198 H 0.9034 0.79339 0.17225 0.0
H1199 H 0.945 0.76675 0.1733 0.0
H1200 H 0.99562 0.83093 0.19033 0.0
H1201 H 0.9544 0.85796 0.189 0.0
C1202 C 0.80795 0.86555 0.09592 0.0
C1203 C 0.82372 0.87315 0.07254 0.0
C1204 C 0.8207 0.86104 0.1219 0.0
C1205 C 0.8494 0.86412 0.12493 0.0
C1206 C 0.86524 0.87087 0.10136 0.0
C1207 C 0.85256 0.87535 0.07547 0.0
C1208 C 0.86304 0.86151 0.15278 0.0
C1209 C 0.88553 0.84513 0.15533 0.0
C1210 C 0.85511 0.87616 0.17625 0.0
C1211 C 0.83249 0.89475 0.17456 0.0
C1212 C 0.83377 0.91448 0.15506 0.0
C1213 C 0.81228 0.93184 0.15348 0.0
C1214 C 0.78953 0.9298 0.17148 0.0
C1215 C 0.78825 0.91042 0.19114 0.0
C1216 C 0.80967 0.89298 0.19278 0.0
C1217 C 0.93983 0.88205 0.26149 0.0
C1218 C 0.94642 0.86 0.2761 0.0
C1219 C 0.92158 0.88153 0.23876 0.0
C1220 C 0.90962 0.85896 0.23002 0.0
C1221 C 0.91515 0.83706 0.24528 0.0
C1222 C 0.93338 0.83757 0.26817 0.0
C1223 C 0.89296 0.85835 0.2038 0.0
C1224 C 0.86995 0.87415 0.20154 0.0
C1225 C 0.90081 0.84362 0.18039 0.0
C1226 C 0.92578 0.8276 0.18089 0.0
C1227 C 0.92343 0.8018 0.17615 0.0
C1228 C 0.94693 0.78664 0.1768 0.0
C1229 C 0.97292 0.79713 0.18199 0.0
C1230 C 0.97547 0.82282 0.18643 0.0
C1231 C 0.95205 0.83805 0.18576 0.0
H1232 H 0.99108 0.78536 0.18251 0.0
H1233 H 0.77291 0.94326 0.17023 0.0
H1234 H 0.17623 0.16913 0.56593 0.0
H1235 H 0.15379 0.17389 0.61195 0.0
H1236 H 0.16091 0.0946 0.62608 0.0
H1237 H 0.18336 0.08976 0.58037 0.0
H1238 H 0.10937 0.11052 0.63561 0.0
H1239 H 0.20124 0.13623 0.6617 0.0
H1240 H 0.24379 0.16147 0.65825 0.0
H1241 H 0.19715 0.22814 0.67416 0.0
H1242 H 0.15424 0.20331 0.67732 0.0
H1243 H 0.0657 0.10107 0.77521 0.0
H1244 H 0.09589 0.10051 0.73399 0.0
H1245 H 0.08896 0.18059 0.72702 0.0
H1246 H 0.05959 0.18134 0.76909 0.0
H1247 H 0.13966 0.16627 0.71318 0.0
H1248 H 0.0477 0.13984 0.68869 0.0
H1249 H 0.00557 0.11397 0.69272 0.0
H1250 H 0.05243 0.04836 0.67285 0.0
H1251 H 0.09497 0.07362 0.66945 0.0
C1252 C 0.17341 0.1528 0.57908 0.0
C1253 C 0.18134 0.12904 0.56943 0.0
C1254 C 0.16057 0.15553 0.60534 0.0
C1255 C 0.15568 0.13458 0.62245 0.0
C1256 C 0.1643 0.11099 0.61315 0.0
C1257 C 0.17705 0.10825 0.58699 0.0
C1258 C 0.14026 0.13682 0.64936 0.0
C1259 C 0.11618 0.12248 0.65271 0.0
C1260 C 0.14871 0.153 0.67131 0.0
C1261 C 0.17448 0.16794 0.66944 0.0
C1262 C 0.20002 0.15629 0.66422 0.0
C1263 C 0.22421 0.17052 0.66236 0.0
C1264 C 0.22316 0.1964 0.6659 0.0
C1265 C 0.19792 0.20809 0.67138 0.0
C1266 C 0.17366 0.19395 0.67322 0.0
C1267 C 0.07092 0.1186 0.7651 0.0
C1268 C 0.06005 0.14122 0.77513 0.0
C1269 C 0.08807 0.11825 0.74148 0.0
C1270 C 0.09405 0.14043 0.72692 0.0
C1271 C 0.08445 0.16322 0.73779 0.0
C1272 C 0.06767 0.16363 0.76181 0.0
C1273 C 0.10903 0.13961 0.69962 0.0
C1274 C 0.13285 0.15432 0.69608 0.0
C1275 C 0.10033 0.12377 0.67738 0.0
C1276 C 0.0746 0.10863 0.67903 0.0
C1277 C 0.04906 0.11987 0.68535 0.0
C1278 C 0.02511 0.10533 0.68752 0.0
C1279 C 0.02633 0.07959 0.68301 0.0
C1280 C 0.05152 0.06831 0.67634 0.0
C1281 C 0.07556 0.08272 0.67432 0.0
H1282 H 0.00776 0.06839 0.68468 0.0
H1283 H 0.24192 0.20738 0.66446 0.0
H1284 H 0.18561 0.8371 0.07196 0.0
H1285 H 0.1647 0.833 0.11864 0.0
H1286 H 0.17173 0.91252 0.13099 0.0
H1287 H 0.19321 0.9167 0.0845 0.0
H1288 H 0.18172 0.88554 0.18036 0.0
H1289 H 0.11338 0.89012 0.1068 0.0
H1290 H 0.09128 0.87755 0.06218 0.0
H1291 H 0.07713 0.80401 0.09522 0.0
H1292 H 0.09959 0.81604 0.1399 0.0
H1293 H 0.07244 0.90465 0.27936 0.0
H1294 H 0.10493 0.90553 0.23993 0.0
H1295 H 0.08989 0.82725 0.22476 0.0
H1296 H 0.057 0.82632 0.2637 0.0
H1297 H 0.08584 0.85252 0.17763 0.0
H1298 H 0.1513 0.84919 0.25321 0.0
H1299 H 0.1733 0.86235 0.29767 0.0
H1300 H 0.19263 0.93373 0.26156 0.0
H1301 H 0.17023 0.92124 0.21705 0.0
C1302 C 0.18339 0.85362 0.0849 0.0
C1303 C 0.1908 0.87726 0.07445 0.0
C1304 C 0.17128 0.85127 0.1115 0.0
C1305 C 0.1663 0.87251 0.12808 0.0
C1306 C 0.17531 0.89592 0.11848 0.0
C1307 C 0.18736 0.89829 0.09185 0.0
C1308 C 0.14942 0.87063 0.15407 0.0
C1309 C 0.16069 0.8785 0.17984 0.0
C1310 C 0.12212 0.86111 0.15334 0.0
C1311 C 0.10845 0.85389 0.12656 0.0
C1312 C 0.10577 0.87121 0.10446 0.0
C1313 C 0.09315 0.86419 0.07918 0.0
C1314 C 0.08288 0.83998 0.07584 0.0
C1315 C 0.08514 0.82274 0.09782 0.0
C1316 C 0.09781 0.82965 0.12313 0.0
C1317 C 0.07622 0.88756 0.2678 0.0
C1318 C 0.06193 0.86545 0.27457 0.0
C1319 C 0.09494 0.88806 0.24534 0.0
C1320 C 0.10001 0.86641 0.22947 0.0
C1321 C 0.08628 0.8442 0.23666 0.0
C1322 C 0.06747 0.84371 0.25896 0.0
C1323 C 0.11812 0.86721 0.20422 0.0
C1324 C 0.10698 0.85931 0.17841 0.0
C1325 C 0.14546 0.87674 0.20502 0.0
C1326 C 0.15888 0.88433 0.23182 0.0
C1327 C 0.16002 0.86778 0.25481 0.0
C1328 C 0.1726 0.8751 0.28001 0.0
C1329 C 0.18438 0.89883 0.28241 0.0
C1330 C 0.18351 0.91534 0.25965 0.0
C1331 C 0.17087 0.90815 0.23443 0.0
H1332 H 0.19425 0.9044 0.30188 0.0
H1333 H 0.0731 0.83458 0.05625 0.0
H1334 H 0.82436 0.08938 0.57783 0.0
H1335 H 0.84492 0.09369 0.62449 0.0
H1336 H 0.84264 0.1739 0.61637 0.0
H1337 H 0.82326 0.16968 0.56905 0.0
H1338 H 0.8916 0.15982 0.63292 0.0
H1339 H 0.79977 0.14178 0.66304 0.0
H1340 H 0.7556 0.1188 0.66493 0.0
H1341 H 0.79787 0.05349 0.69464 0.0
H1342 H 0.84238 0.07597 0.69255 0.0
H1343 H 0.94402 0.17829 0.7703 0.0
H1344 H 0.91232 0.17861 0.73023 0.0
H1345 H 0.91108 0.09805 0.73016 0.0
H1346 H 0.94199 0.09762 0.77092 0.0
H1347 H 0.86114 0.11545 0.71924 0.0
H1348 H 0.95375 0.13397 0.6853 0.0
H1349 H 0.99723 0.15819 0.68344 0.0
H1350 H 0.95205 0.22406 0.66087 0.0
H1351 H 0.90826 0.20045 0.66305 0.0
C1352 C 0.82814 0.10795 0.58599 0.0
C1353 C 0.82237 0.12918 0.56958 0.0
C1354 C 0.8396 0.1104 0.61286 0.0
C1355 C 0.84517 0.13414 0.62409 0.0
C1356 C 0.83849 0.15539 0.60817 0.0
C1357 C 0.82718 0.15295 0.58121 0.0
C1358 C 0.85996 0.13667 0.65139 0.0
C1359 C 0.88463 0.1505 0.65194 0.0
C1360 C 0.8512 0.12411 0.67608 0.0
C1361 C 0.82445 0.11052 0.67742 0.0
C1362 C 0.79968 0.12246 0.66977 0.0
C1363 C 0.77458 0.10953 0.67091 0.0
C1364 C 0.77394 0.08468 0.67984 0.0
C1365 C 0.7984 0.07273 0.68771 0.0
C1366 C 0.82357 0.08557 0.68658 0.0
C1367 C 0.93683 0.16064 0.76187 0.0
C1368 C 0.94574 0.13792 0.77357 0.0
C1369 C 0.91878 0.16085 0.7389 0.0
C1370 C 0.9098 0.13835 0.72675 0.0
C1371 C 0.91782 0.11565 0.73909 0.0
C1372 C 0.93554 0.11543 0.76236 0.0
C1373 C 0.89289 0.13836 0.70062 0.0
C1374 C 0.86791 0.12495 0.70027 0.0
C1375 C 0.90128 0.15142 0.6761 0.0
C1376 C 0.9277 0.16549 0.67461 0.0
C1377 C 0.95307 0.15366 0.68012 0.0
C1378 C 0.97776 0.16725 0.67899 0.0
C1379 C 0.97738 0.1926 0.6721 0.0
C1380 C 0.95231 0.20443 0.66625 0.0
C1381 C 0.92756 0.19096 0.66743 0.0
H1382 H 0.99653 0.20307 0.67123 0.0
H1383 H 0.75448 0.07471 0.68071 0.0
loop_
_geom_bond_atom_site_label_1
_geom_bond_atom_site_label_2
_geom_bond_distance
_geom_bond_site_symmetry_2
_ccdc_geom_bond_type
H0 C5 0.930 . S
H1 C8 0.930 . S
H2 C10 0.930 . S
H3 C4 1.016 . S
C4 H3 1.016 . S
C4 N11 1.279 1_556 S
C5 H0 0.930 . S
C5 C6 1.397 . S
C5 C7 1.361 . S
C6 C5 1.397 . S
C6 C10 1.390 . S
C7 C5 1.361 . S
C7 C8 1.393 1_554 S
C7 N11 1.416 . S
C8 H1 0.930 . S
C8 C7 1.393 1_556 S
C8 C9 1.410 . S
C9 C8 1.410 . S
C9 C10 1.348 1_556 S
C10 H2 0.930 . S
C10 C6 1.390 . S
C10 C9 1.348 1_554 S
N11 C4 1.279 1_554 S
N11 C7 1.416 . S
H12 C17 0.930 . S
H13 C20 0.930 . S
H14 C22 0.930 . S
H15 C16 1.016 . S
C16 H15 1.016 . S
C16 N23 1.286 . S
C17 H12 0.930 . S
C17 C18 1.397 . S
C17 C19 1.361 . S
C18 C17 1.397 . S
C18 C22 1.390 . S
C19 C17 1.361 . S
C19 C20 1.393 . S
C19 N23 1.413 . S
C20 H13 0.930 . S
C20 C19 1.393 . S
C20 C21 1.399 . S
C21 C20 1.399 . S
C21 C22 1.381 . S
C22 H14 0.930 . S
C22 C18 1.390 . S
C22 C21 1.381 . S
N23 C16 1.286 . S
N23 C19 1.413 . S
H24 C29 0.930 . S
H25 C32 0.930 . S
H26 C34 0.930 . S
H27 C28 1.016 . S
C28 H27 1.016 . S
C28 N35 1.286 1_556 S
C29 H24 0.930 . S
C29 C30 1.397 . S
C29 C31 1.361 . S
C30 C29 1.397 . S
C30 C34 1.390 . S
C31 C29 1.361 . S
C31 C32 1.393 1_554 S
C31 N35 1.413 . S
C32 H25 0.930 . S
C32 C31 1.393 1_556 S
C32 C33 1.399 . S
C33 C32 1.399 . S
C33 C34 1.381 1_556 S
C34 H26 0.930 . S
C34 C30 1.390 . S
C34 C33 1.381 1_554 S
N35 C28 1.286 1_554 S
N35 C31 1.413 . S
H36 C41 0.930 . S
H37 C44 0.930 . S
H38 C46 0.930 . S
H39 C40 1.016 . S
C40 H39 1.016 . S
C40 N47 1.286 . S
C41 H36 0.930 . S
C41 C42 1.397 . S
C41 C43 1.361 . S
C42 C41 1.397 . S
C42 C46 1.390 . S
C43 C41 1.361 . S
C43 C44 1.393 . S
C43 N47 1.413 . S
C44 H37 0.930 . S
C44 C43 1.393 . S
C44 C45 1.399 . S
C45 C44 1.399 . S
C45 C46 1.381 . S
C46 H38 0.930 . S
C46 C42 1.390 . S
C46 C45 1.381 . S
N47 C40 1.286 . S
N47 C43 1.413 . S
H48 C53 0.930 . S
H49 C56 0.930 . S
H50 C58 0.930 . S
H51 C52 1.016 . S
C52 H51 1.016 . S
C52 N59 1.279 1_556 S
C53 H48 0.930 . S
C53 C54 1.397 . S
C53 C55 1.361 . S
C54 C53 1.397 . S
C54 C58 1.390 . S
C55 C53 1.361 . S
C55 C56 1.393 1_554 S
C55 N59 1.416 . S
C56 H49 0.930 . S
C56 C55 1.393 1_556 S
C56 C57 1.410 . S
C57 C56 1.410 . S
C57 C58 1.347 1_556 S
C58 H50 0.930 . S
C58 C54 1.390 . S
C58 C57 1.347 1_554 S
N59 C52 1.279 1_554 S
N59 C55 1.416 . S
H60 C65 0.930 . S
H61 C68 0.930 . S
H62 C70 0.930 . S
H63 C64 1.016 . S
C64 H63 1.016 . S
C64 N71 1.286 . S
C65 H60 0.930 . S
C65 C66 1.397 . S
C65 C67 1.361 . S
C66 C65 1.397 . S
C66 C70 1.390 . S
C67 C65 1.361 . S
C67 C68 1.393 . S
C67 N71 1.413 . S
C68 H61 0.930 . S
C68 C67 1.393 . S
C68 C69 1.399 . S
C69 C68 1.399 . S
C69 C70 1.381 . S
C70 H62 0.930 . S
C70 C66 1.390 . S
C70 C69 1.381 . S
N71 C64 1.286 . S
N71 C67 1.413 . S
H72 C77 0.930 . S
H73 C80 0.930 . S
H74 C82 0.930 . S
H75 C76 1.016 . S
C76 H75 1.016 . S
C76 N83 1.286 1_556 S
C77 H72 0.930 . S
C77 C78 1.397 . S
C77 C79 1.361 . S
C78 C77 1.397 . S
C78 C82 1.390 . S
C79 C77 1.361 . S
C79 C80 1.393 1_554 S
C79 N83 1.413 . S
C80 H73 0.930 . S
C80 C79 1.393 1_556 S
C80 C81 1.399 . S
C81 C80 1.399 . S
C81 C82 1.381 1_556 S
C82 H74 0.930 . S
C82 C78 1.390 . S
C82 C81 1.381 1_554 S
N83 C76 1.286 1_554 S
N83 C79 1.413 . S
H84 C89 0.930 . S
H85 C92 0.930 . S
H86 C94 0.930 . S
H87 C88 1.016 . S
C88 H87 1.016 . S
C88 N95 1.286 . S
C89 H84 0.930 . S
C89 C90 1.397 . S
C89 C91 1.361 . S
C90 C89 1.397 . S
C90 C94 1.390 . S
C91 C89 1.361 . S
C91 C92 1.393 . S
C91 N95 1.413 . S
C92 H85 0.930 . S
C92 C91 1.393 . S
C92 C93 1.399 . S
C93 C92 1.399 . S
C93 C94 1.381 . S
C94 H86 0.930 . S
C94 C90 1.390 . S
C94 C93 1.381 . S
N95 C88 1.286 . S
N95 C91 1.413 . S
Fe96 O98 1.918 . S
Fe96 O101 1.997 1_455 S
Fe96 O102 2.002 1_455 S
Fe96 O107 1.976 . S
Fe96 O110 1.996 . S
Fe97 O98 1.918 . S
Fe97 O105 1.997 1_455 S
Fe97 O108 1.996 . S
Fe97 O112 1.976 . S
Fe97 O115 2.002 1_455 S
O98 Fe96 1.918 . S
O98 Fe97 1.918 . S
O98 Fe99 1.918 . S
Fe99 O98 1.918 . S
Fe99 O100 2.002 1_455 S
Fe99 O109 1.976 . S
Fe99 O113 1.996 . S
Fe99 O116 1.997 1_455 S
O100 Fe99 2.002 1_655 S
O100 C117 1.295 . S
O101 Fe96 1.997 1_655 S
O101 C117 1.235 . S
O102 Fe96 2.002 1_655 S
O102 C103 1.295 . S
C103 O102 1.295 . S
C103 O105 1.235 . S
C104 O109 1.287 . S
C104 O110 1.255 . S
O105 Fe97 1.997 1_655 S
O105 C103 1.235 . S
C106 O112 1.287 . S
C106 O113 1.255 . S
O107 Fe96 1.976 . S
O107 C114 1.287 . S
O108 Fe97 1.996 . S
O108 C114 1.255 . S
O109 Fe99 1.976 . S
O109 C104 1.287 . S
O110 Fe96 1.996 . S
O110 C104 1.255 . S
C111 O115 1.295 . S
C111 O116 1.235 . S
O112 Fe97 1.976 . S
O112 C106 1.287 . S
O113 Fe99 1.996 . S
O113 C106 1.255 . S
C114 O107 1.287 . S
C114 O108 1.255 . S
O115 Fe97 2.002 1_655 S
O115 C111 1.295 . S
O116 Fe99 1.997 1_655 S
O116 C111 1.235 . S
C117 O100 1.295 . S
C117 O101 1.235 . S
Fe118 O120 1.918 . S
Fe118 O123 1.997 1_655 S
Fe118 O124 2.002 1_655 S
Fe118 O129 1.976 . S
Fe118 O132 1.996 . S
Fe119 O120 1.918 . S
Fe119 O127 1.997 1_655 S
Fe119 O130 1.996 . S
Fe119 O134 1.976 . S
Fe119 O137 2.002 1_655 S
O120 Fe118 1.918 . S
O120 Fe119 1.918 . S
O120 Fe121 1.918 . S
Fe121 O120 1.918 . S
Fe121 O122 2.002 1_655 S
Fe121 O131 1.976 . S
Fe121 O135 1.996 . S
Fe121 O138 1.997 1_655 S
O122 Fe121 2.002 1_455 S
O122 C139 1.295 . S
O123 Fe118 1.997 1_455 S
O123 C139 1.235 . S
O124 Fe118 2.002 1_455 S
O124 C125 1.295 . S
C125 O124 1.295 . S
C125 O127 1.235 . S
C126 O131 1.287 . S
C126 O132 1.255 . S
O127 Fe119 1.997 1_455 S
O127 C125 1.235 . S
C128 O134 1.287 . S
C128 O135 1.255 . S
O129 Fe118 1.976 . S
O129 C136 1.287 . S
O130 Fe119 1.996 . S
O130 C136 1.255 . S
O131 Fe121 1.976 . S
O131 C126 1.287 . S
O132 Fe118 1.996 . S
O132 C126 1.255 . S
C133 O137 1.295 . S
C133 O138 1.235 . S
O134 Fe119 1.976 . S
O134 C128 1.287 . S
O135 Fe121 1.996 . S
O135 C128 1.255 . S
C136 O129 1.287 . S
C136 O130 1.255 . S
O137 Fe119 2.002 1_455 S
O137 C133 1.295 . S
O138 Fe121 1.997 1_455 S
O138 C133 1.235 . S
C139 O122 1.295 . S
C139 O123 1.235 . S
Fe140 O142 1.918 . S
Fe140 O145 1.997 . S
Fe140 O146 2.002 . S
Fe140 O151 1.976 . S
Fe140 O154 1.996 . S
Fe141 O142 1.918 . S
Fe141 O149 1.997 . S
Fe141 O152 1.996 . S
Fe141 O156 1.976 . S
Fe141 O159 2.002 . S
O142 Fe140 1.918 . S
O142 Fe141 1.918 . S
O142 Fe143 1.918 . S
Fe143 O142 1.918 . S
Fe143 O144 2.002 . S
Fe143 O153 1.976 . S
Fe143 O157 1.996 . S
Fe143 O160 1.997 . S
O144 Fe143 2.002 . S
O144 C161 1.295 . S
O145 Fe140 1.997 . S
O145 C161 1.235 . S
O146 Fe140 2.002 . S
O146 C147 1.295 . S
C147 O146 1.295 . S
C147 O149 1.235 . S
C148 O153 1.287 . S
C148 O154 1.255 . S
O149 Fe141 1.997 . S
O149 C147 1.235 . S
C150 O156 1.287 . S
C150 O157 1.255 . S
O151 Fe140 1.976 . S
O151 C158 1.287 . S
O152 Fe141 1.996 . S
O152 C158 1.255 . S
O153 Fe143 1.976 . S
O153 C148 1.287 . S
O154 Fe140 1.996 . S
O154 C148 1.255 . S
C155 O159 1.295 . S
C155 O160 1.235 . S
O156 Fe141 1.976 . S
O156 C150 1.287 . S
O157 Fe143 1.996 . S
O157 C150 1.255 . S
C158 O151 1.287 . S
C158 O152 1.255 . S
O159 Fe141 2.002 . S
O159 C155 1.295 . S
O160 Fe143 1.997 . S
O160 C155 1.235 . S
C161 O144 1.295 . S
C161 O145 1.235 . S
Fe162 O164 1.918 . S
Fe162 O167 1.997 . S
Fe162 O168 2.002 . S
Fe162 O173 1.976 . S
Fe162 O176 1.996 . S
Fe163 O164 1.918 . S
Fe163 O171 1.997 . S
Fe163 O174 1.996 . S
Fe163 O178 1.976 . S
Fe163 O181 2.002 . S
O164 Fe162 1.918 . S
O164 Fe163 1.918 . S
O164 Fe165 1.918 . S
Fe165 O164 1.918 . S
Fe165 O166 2.002 . S
Fe165 O175 1.976 . S
Fe165 O179 1.996 . S
Fe165 O182 1.997 . S
O166 Fe165 2.002 . S
O166 C183 1.295 . S
O167 Fe162 1.997 . S
O167 C183 1.235 . S
O168 Fe162 2.002 . S
O168 C169 1.295 . S
C169 O168 1.295 . S
C169 O171 1.235 . S
C170 O175 1.287 . S
C170 O176 1.255 . S
O171 Fe163 1.997 . S
O171 C169 1.235 . S
C172 O178 1.287 . S
C172 O179 1.255 . S
O173 Fe162 1.976 . S
O173 C180 1.287 . S
O174 Fe163 1.996 . S
O174 C180 1.255 . S
O175 Fe165 1.976 . S
O175 C170 1.287 . S
O176 Fe162 1.996 . S
O176 C170 1.255 . S
C177 O181 1.295 . S
C177 O182 1.235 . S
O178 Fe163 1.976 . S
O178 C172 1.287 . S
O179 Fe165 1.996 . S
O179 C172 1.255 . S
C180 O173 1.287 . S
C180 O174 1.255 . S
O181 Fe163 2.002 . S
O181 C177 1.295 . S
O182 Fe165 1.997 . S
O182 C177 1.235 . S
C183 O166 1.295 . S
C183 O167 1.235 . S
H184 C202 0.951 . S
H185 C204 0.951 . S
H186 C206 0.950 . S
H187 C207 0.950 1_554 S
H188 C209 0.950 . S
H189 C212 0.950 . S
H190 C213 0.950 . S
H191 C215 0.950 . S
H192 C216 0.950 . S
H193 C217 0.951 . S
H194 C219 0.951 . S
H195 C221 0.950 . S
H196 C222 0.950 . S
H197 C224 0.950 . S
H198 C227 0.950 . S
H199 C228 0.950 . S
H200 C230 0.950 . S
H201 C231 0.950 . S
C202 H184 0.951 . S
C202 C203 1.366 . S
C202 C204 1.388 . S
C203 C202 1.366 . S
C203 C207 1.385 . S
C204 H185 0.951 . S
C204 C202 1.388 . S
C204 C205 1.366 . S
C205 C204 1.366 . S
C205 C206 1.414 . S
C205 C208 1.499 . S
C206 H186 0.950 . S
C206 C205 1.414 . S
C206 C207 1.374 . S
C207 H187 0.950 1_556 S
C207 C203 1.385 . S
C207 C206 1.374 . S
C208 C205 1.499 . S
C208 C209 1.373 . S
C208 C210 1.389 . S
C209 H188 0.950 . S
C209 C208 1.373 . S
C209 C225 1.377 . S
C210 C208 1.389 . S
C210 C211 1.524 . S
C210 C224 1.377 . S
C211 C210 1.524 . S
C211 C212 1.397 . S
C211 C216 1.363 . S
C212 H189 0.950 . S
C212 C211 1.397 . S
C212 C213 1.334 . S
C213 H190 0.950 . S
C213 C212 1.334 . S
C213 C214 1.287 . S
C214 C213 1.287 . S
C214 C215 1.524 . S
C214 H233 0.913 . S
C215 H191 0.950 . S
C215 C214 1.524 . S
C215 C216 1.415 . S
C216 H192 0.950 . S
C216 C211 1.363 . S
C216 C215 1.415 . S
C217 H193 0.951 . S
C217 C218 1.366 . S
C217 C219 1.388 . S
C218 C217 1.366 . S
C218 C222 1.385 . S
C219 H194 0.951 . S
C219 C217 1.388 . S
C219 C220 1.366 . S
C220 C219 1.366 . S
C220 C221 1.414 . S
C220 C223 1.499 . S
C221 H195 0.950 . S
C221 C220 1.414 . S
C221 C222 1.374 . S
C222 H196 0.950 . S
C222 C218 1.385 . S
C222 C221 1.374 . S
C223 C220 1.499 . S
C223 C224 1.373 . S
C223 C225 1.389 . S
C224 H197 0.950 . S
C224 C210 1.377 . S
C224 C223 1.373 . S
C225 C209 1.377 . S
C225 C223 1.389 . S
C225 C226 1.524 . S
C226 C225 1.524 . S
C226 C227 1.397 . S
C226 C231 1.363 . S
C227 H198 0.950 . S
C227 C226 1.397 . S
C227 C228 1.334 . S
C228 H199 0.950 . S
C228 C227 1.334 . S
C228 C229 1.287 . S
C229 C228 1.287 . S
C229 C230 1.524 . S
C229 H232 0.999 . S
C230 H200 0.950 . S
C230 C229 1.524 . S
C230 C231 1.415 . S
C231 H201 0.950 . S
C231 C226 1.363 . S
C231 C230 1.415 . S
H232 C229 0.999 . S
H233 C214 0.913 . S
H234 C252 0.951 . S
H235 C254 0.951 . S
H236 C256 0.950 . S
H237 C257 0.950 . S
H238 C259 0.950 . S
H239 C262 0.950 . S
H240 C263 0.950 . S
H241 C265 0.950 . S
H242 C266 0.950 . S
H243 C267 0.951 . S
H244 C269 0.951 . S
H245 C271 0.950 . S
H246 C272 0.950 . S
H247 C274 0.950 . S
H248 C277 0.950 . S
H249 C278 0.950 . S
H250 C280 0.950 . S
H251 C281 0.950 . S
C252 H234 0.951 . S
C252 C253 1.366 . S
C252 C254 1.388 . S
C253 C252 1.366 . S
C253 C257 1.385 . S
C254 H235 0.951 . S
C254 C252 1.388 . S
C254 C255 1.366 . S
C255 C254 1.366 . S
C255 C256 1.414 . S
C255 C258 1.499 . S
C256 H236 0.950 . S
C256 C255 1.414 . S
C256 C257 1.374 . S
C257 H237 0.950 . S
C257 C253 1.385 . S
C257 C256 1.374 . S
C258 C255 1.499 . S
C258 C259 1.373 . S
C258 C260 1.389 . S
C259 H238 0.950 . S
C259 C258 1.373 . S
C259 C275 1.377 . S
C260 C258 1.389 . S
C260 C261 1.524 . S
C260 C274 1.377 . S
C261 C260 1.524 . S
C261 C262 1.397 . S
C261 C266 1.363 . S
C262 H239 0.950 . S
C262 C261 1.397 . S
C262 C263 1.334 . S
C263 H240 0.950 . S
C263 C262 1.334 . S
C263 C264 1.287 . S
C264 C263 1.287 . S
C264 C265 1.524 . S
C264 H283 0.913 . S
C265 H241 0.950 . S
C265 C264 1.524 . S
C265 C266 1.415 . S
C266 H242 0.950 . S
C266 C261 1.363 . S
C266 C265 1.415 . S
C267 H243 0.951 . S
C267 C268 1.366 . S
C267 C269 1.388 . S
C268 C267 1.366 . S
C268 C272 1.385 . S
C269 H244 0.951 . S
C269 C267 1.388 . S
C269 C270 1.366 . S
C270 C269 1.366 . S
C270 C271 1.414 . S
C270 C273 1.499 . S
C271 H245 0.950 . S
C271 C270 1.414 . S
C271 C272 1.374 . S
C272 H246 0.950 . S
C272 C268 1.385 . S
C272 C271 1.374 . S
C273 C270 1.499 . S
C273 C274 1.373 . S
C273 C275 1.389 . S
C274 H247 0.950 . S
C274 C260 1.377 . S
C274 C273 1.373 . S
C275 C259 1.377 . S
C275 C273 1.389 . S
C275 C276 1.524 . S
C276 C275 1.524 . S
C276 C277 1.397 . S
C276 C281 1.363 . S
C277 H248 0.950 . S
C277 C276 1.397 . S
C277 C278 1.334 . S
C278 H249 0.950 . S
C278 C277 1.334 . S
C278 C279 1.287 . S
C279 C278 1.287 . S
C279 C280 1.524 . S
C279 H282 0.999 . S
C280 H250 0.950 . S
C280 C279 1.524 . S
C280 C281 1.415 . S
C281 H251 0.950 . S
C281 C276 1.363 . S
C281 C280 1.415 . S
H282 C279 0.999 . S
H283 C264 0.913 . S
H284 C302 0.951 . S
H285 C304 0.951 . S
H286 C306 0.950 . S
H287 C307 0.950 . S
H288 C309 0.950 . S
H289 C312 0.950 . S
H290 C313 0.950 1_554 S
H291 C315 0.950 . S
H292 C316 0.950 . S
H293 C317 0.951 . S
H294 C319 0.951 . S
H295 C321 0.950 . S
H296 C322 0.950 . S
H297 C324 0.950 . S
H298 C327 0.950 . S
H299 C328 0.950 . S
H300 C330 0.950 . S
H301 C331 0.950 . S
C302 H284 0.951 . S
C302 C303 1.366 . S
C302 C304 1.388 . S
C303 C302 1.366 . S
C303 C307 1.385 . S
C304 H285 0.951 . S
C304 C302 1.388 . S
C304 C305 1.366 . S
C305 C304 1.366 . S
C305 C306 1.414 . S
C305 C308 1.499 . S
C306 H286 0.950 . S
C306 C305 1.414 . S
C306 C307 1.374 . S
C307 H287 0.950 . S
C307 C303 1.385 . S
C307 C306 1.374 . S
C308 C305 1.499 . S
C308 C309 1.373 . S
C308 C310 1.389 . S
C309 H288 0.950 . S
C309 C308 1.373 . S
C309 C325 1.377 . S
C310 C308 1.389 . S
C310 C311 1.524 . S
C310 C324 1.377 . S
C311 C310 1.524 . S
C311 C312 1.397 . S
C311 C316 1.363 . S
C312 H289 0.950 . S
C312 C311 1.397 . S
C312 C313 1.334 . S
C313 H290 0.950 1_556 S
C313 C312 1.334 . S
C313 C314 1.287 . S
C314 C313 1.287 . S
C314 C315 1.524 . S
C314 H333 0.913 . S
C315 H291 0.950 . S
C315 C314 1.524 . S
C315 C316 1.415 . S
C316 H292 0.950 . S
C316 C311 1.363 . S
C316 C315 1.415 . S
C317 H293 0.951 . S
C317 C318 1.366 . S
C317 C319 1.388 . S
C318 C317 1.366 . S
C318 C322 1.385 . S
C319 H294 0.951 . S
C319 C317 1.388 . S
C319 C320 1.366 . S
C320 C319 1.366 . S
C320 C321 1.414 . S
C320 C323 1.499 . S
C321 H295 0.950 . S
C321 C320 1.414 . S
C321 C322 1.374 . S
C322 H296 0.950 . S
C322 C318 1.385 . S
C322 C321 1.374 . S
C323 C320 1.499 . S
C323 C324 1.373 . S
C323 C325 1.389 . S
C324 H297 0.950 . S
C324 C310 1.377 . S
C324 C323 1.373 . S
C325 C309 1.377 . S
C325 C323 1.389 . S
C325 C326 1.524 . S
C326 C325 1.524 . S
C326 C327 1.397 . S
C326 C331 1.363 . S
C327 H298 0.950 . S
C327 C326 1.397 . S
C327 C328 1.334 . S
C328 H299 0.950 . S
C328 C327 1.334 . S
C328 C329 1.287 . S
C329 C328 1.287 . S
C329 C330 1.524 . S
C329 H332 0.999 . S
C330 H300 0.950 . S
C330 C329 1.524 . S
C330 C331 1.415 . S
C331 H301 0.950 . S
C331 C326 1.363 . S
C331 C330 1.415 . S
H332 C329 0.999 . S
H333 C314 0.913 . S
H334 C352 0.951 . S
H335 C354 0.951 . S
H336 C356 0.950 . S
H337 C357 0.950 . S
H338 C359 0.950 . S
H339 C362 0.950 . S
H340 C363 0.950 . S
H341 C365 0.950 . S
H342 C366 0.950 . S
H343 C367 0.951 . S
H344 C369 0.951 . S
H345 C371 0.950 . S
H346 C372 0.950 . S
H347 C374 0.950 . S
H348 C377 0.950 . S
H349 C378 0.950 . S
H350 C380 0.950 . S
H351 C381 0.950 . S
C352 H334 0.951 . S
C352 C353 1.366 . S
C352 C354 1.388 . S
C353 C352 1.366 . S
C353 C357 1.385 . S
C354 H335 0.951 . S
C354 C352 1.388 . S
C354 C355 1.366 . S
C355 C354 1.366 . S
C355 C356 1.414 . S
C355 C358 1.499 . S
C356 H336 0.950 . S
C356 C355 1.414 . S
C356 C357 1.374 . S
C357 H337 0.950 . S
C357 C353 1.385 . S
C357 C356 1.374 . S
C358 C355 1.499 . S
C358 C359 1.373 . S
C358 C360 1.389 . S
C359 H338 0.950 . S
C359 C358 1.373 . S
C359 C375 1.377 . S
C360 C358 1.389 . S
C360 C361 1.524 . S
C360 C374 1.377 . S
C361 C360 1.524 . S
C361 C362 1.397 . S
C361 C366 1.363 . S
C362 H339 0.950 . S
C362 C361 1.397 . S
C362 C363 1.334 . S
C363 H340 0.950 . S
C363 C362 1.334 . S
C363 C364 1.287 . S
C364 C363 1.287 . S
C364 C365 1.524 . S
C364 H383 0.913 . S
C365 H341 0.950 . S
C365 C364 1.524 . S
C365 C366 1.415 . S
C366 H342 0.950 . S
C366 C361 1.363 . S
C366 C365 1.415 . S
C367 H343 0.951 . S
C367 C368 1.366 . S
C367 C369 1.388 . S
C368 C367 1.366 . S
C368 C372 1.385 . S
C369 H344 0.951 . S
C369 C367 1.388 . S
C369 C370 1.366 . S
C370 C369 1.366 . S
C370 C371 1.414 . S
C370 C373 1.499 . S
C371 H345 0.950 . S
C371 C370 1.414 . S
C371 C372 1.374 . S
C372 H346 0.950 . S
C372 C368 1.385 . S
C372 C371 1.374 . S
C373 C370 1.499 . S
C373 C374 1.373 . S
C373 C375 1.389 . S
C374 H347 0.950 . S
C374 C360 1.377 . S
C374 C373 1.373 . S
C375 C359 1.377 . S
C375 C373 1.389 . S
C375 C376 1.524 . S
C376 C375 1.524 . S
C376 C377 1.397 . S
C376 C381 1.363 . S
C377 H348 0.950 . S
C377 C376 1.397 . S
C377 C378 1.334 . S
C378 H349 0.950 . S
C378 C377 1.334 . S
C378 C379 1.287 . S
C379 C378 1.287 . S
C379 C380 1.524 . S
C379 H382 0.999 . S
C380 H350 0.950 . S
C380 C379 1.524 . S
C380 C381 1.415 . S
C381 H351 0.950 . S
C381 C376 1.363 . S
C381 C380 1.415 . S
H382 C379 0.999 . S
H383 C364 0.913 . S
H384 C402 0.951 1_554 S
H385 C404 0.951 . S
H386 C406 0.950 . S
H387 C407 0.950 . S
H388 C409 0.950 . S
H389 C412 0.950 . S
H390 C413 0.950 . S
H391 C415 0.950 . S
H392 C416 0.950 . S
H393 C417 0.951 . S
H394 C419 0.951 . S
H395 C421 0.950 . S
H396 C422 0.950 . S
H397 C424 0.950 . S
H398 C427 0.950 . S
H399 C428 0.950 . S
H400 C430 0.950 . S
H401 C431 0.950 . S
C402 H384 0.951 1_556 S
C402 C403 1.366 . S
C402 C404 1.388 . S
C403 C402 1.366 . S
C403 C407 1.385 . S
C404 H385 0.951 . S
C404 C402 1.388 . S
C404 C405 1.366 . S
C405 C404 1.366 . S
C405 C406 1.414 . S
C405 C408 1.499 . S
C406 H386 0.950 . S
C406 C405 1.414 . S
C406 C407 1.374 . S
C407 H387 0.950 . S
C407 C403 1.385 . S
C407 C406 1.374 . S
C408 C405 1.499 . S
C408 C409 1.373 . S
C408 C410 1.389 . S
C409 H388 0.950 . S
C409 C408 1.373 . S
C409 C425 1.377 . S
C410 C408 1.389 . S
C410 C411 1.524 . S
C410 C424 1.377 . S
C411 C410 1.524 . S
C411 C412 1.397 . S
C411 C416 1.363 . S
C412 H389 0.950 . S
C412 C411 1.397 . S
C412 C413 1.334 . S
C413 H390 0.950 . S
C413 C412 1.334 . S
C413 C414 1.287 1_556 S
C414 C413 1.287 1_554 S
C414 C415 1.524 . S
C414 H433 0.913 . S
C415 H391 0.950 . S
C415 C414 1.524 . S
C415 C416 1.415 1_554 S
C416 H392 0.950 . S
C416 C411 1.363 . S
C416 C415 1.415 1_556 S
C417 H393 0.951 . S
C417 C418 1.366 . S
C417 C419 1.388 . S
C418 C417 1.366 . S
C418 C422 1.385 . S
C419 H394 0.951 . S
C419 C417 1.388 . S
C419 C420 1.366 . S
C420 C419 1.366 . S
C420 C421 1.414 . S
C420 C423 1.499 . S
C421 H395 0.950 . S
C421 C420 1.414 . S
C421 C422 1.374 . S
C422 H396 0.950 . S
C422 C418 1.385 . S
C422 C421 1.374 . S
C423 C420 1.499 . S
C423 C424 1.373 . S
C423 C425 1.389 . S
C424 H397 0.950 . S
C424 C410 1.377 . S
C424 C423 1.373 . S
C425 C409 1.377 . S
C425 C423 1.389 . S
C425 C426 1.524 . S
C426 C425 1.524 . S
C426 C427 1.397 . S
C426 C431 1.363 . S
C427 H398 0.950 . S
C427 C426 1.397 . S
C427 C428 1.334 . S
C428 H399 0.950 . S
C428 C427 1.334 . S
C428 C429 1.287 . S
C429 C428 1.287 . S
C429 C430 1.524 . S
C429 H432 0.999 . S
C430 H400 0.950 . S
C430 C429 1.524 . S
C430 C431 1.415 . S
C431 H401 0.950 . S
C431 C426 1.363 . S
C431 C430 1.415 . S
H432 C429 0.999 . S
H433 C414 0.913 . S
H434 C452 0.951 . S
H435 C454 0.951 . S
H436 C456 0.950 . S
H437 C457 0.950 . S
H438 C459 0.950 . S
H439 C462 0.950 . S
H440 C463 0.950 . S
H441 C465 0.950 . S
H442 C466 0.950 . S
H443 C467 0.951 . S
H444 C469 0.951 . S
H445 C471 0.950 . S
H446 C472 0.950 . S
H447 C474 0.950 . S
H448 C477 0.950 . S
H449 C478 0.950 . S
H450 C480 0.950 . S
H451 C481 0.950 . S
C452 H434 0.951 . S
C452 C453 1.366 . S
C452 C454 1.388 . S
C453 C452 1.366 . S
C453 C457 1.385 . S
C454 H435 0.951 . S
C454 C452 1.388 . S
C454 C455 1.366 . S
C455 C454 1.366 . S
C455 C456 1.414 . S
C455 C458 1.499 . S
C456 H436 0.950 . S
C456 C455 1.414 . S
C456 C457 1.374 . S
C457 H437 0.950 . S
C457 C453 1.385 . S
C457 C456 1.374 . S
C458 C455 1.499 . S
C458 C459 1.373 . S
C458 C460 1.389 . S
C459 H438 0.950 . S
C459 C458 1.373 . S
C459 C475 1.377 . S
C460 C458 1.389 . S
C460 C461 1.524 . S
C460 C474 1.377 . S
C461 C460 1.524 . S
C461 C462 1.397 . S
C461 C466 1.363 . S
C462 H439 0.950 . S
C462 C461 1.397 . S
C462 C463 1.334 . S
C463 H440 0.950 . S
C463 C462 1.334 . S
C463 C464 1.287 . S
C464 C463 1.287 . S
C464 C465 1.524 . S
C464 H483 0.913 . S
C465 H441 0.950 . S
C465 C464 1.524 . S
C465 C466 1.415 . S
C466 H442 0.950 . S
C466 C461 1.363 . S
C466 C465 1.415 . S
C467 H443 0.951 . S
C467 C468 1.366 . S
C467 C469 1.388 . S
C468 C467 1.366 . S
C468 C472 1.385 . S
C469 H444 0.951 . S
C469 C467 1.388 . S
C469 C470 1.366 . S
C470 C469 1.366 . S
C470 C471 1.414 . S
C470 C473 1.499 . S
C471 H445 0.950 . S
C471 C470 1.414 . S
C471 C472 1.374 . S
C472 H446 0.950 . S
C472 C468 1.385 . S
C472 C471 1.374 . S
C473 C470 1.499 . S
C473 C474 1.373 . S
C473 C475 1.389 . S
C474 H447 0.950 . S
C474 C460 1.377 . S
C474 C473 1.373 . S
C475 C459 1.377 . S
C475 C473 1.389 . S
C475 C476 1.524 . S
C476 C475 1.524 . S
C476 C477 1.397 . S
C476 C481 1.363 . S
C477 H448 0.950 . S
C477 C476 1.397 . S
C477 C478 1.334 . S
C478 H449 0.950 . S
C478 C477 1.334 . S
C478 C479 1.287 . S
C479 C478 1.287 . S
C479 C480 1.524 . S
C479 H482 0.999 . S
C480 H450 0.950 . S
C480 C479 1.524 . S
C480 C481 1.415 . S
C481 H451 0.950 . S
C481 C476 1.363 . S
C481 C480 1.415 . S
H482 C479 0.999 . S
H483 C464 0.913 . S
H484 C502 0.951 . S
H485 C504 0.951 . S
H486 C506 0.950 . S
H487 C507 0.950 . S
H488 C509 0.950 . S
H489 C512 0.950 . S
H490 C513 0.950 . S
H491 C515 0.950 . S
H492 C516 0.950 . S
H493 C517 0.951 . S
H494 C519 0.951 . S
H495 C521 0.950 . S
H496 C522 0.950 . S
H497 C524 0.950 . S
H498 C527 0.950 . S
H499 C528 0.950 . S
H500 C530 0.950 . S
H501 C531 0.950 . S
C502 H484 0.951 . S
C502 C503 1.366 . S
C502 C504 1.388 . S
C503 C502 1.366 . S
C503 C507 1.385 . S
C504 H485 0.951 . S
C504 C502 1.388 . S
C504 C505 1.366 . S
C505 C504 1.366 . S
C505 C506 1.414 . S
C505 C508 1.499 . S
C506 H486 0.950 . S
C506 C505 1.414 . S
C506 C507 1.374 . S
C507 H487 0.950 . S
C507 C503 1.385 . S
C507 C506 1.374 . S
C508 C505 1.499 . S
C508 C509 1.373 . S
C508 C510 1.389 . S
C509 H488 0.950 . S
C509 C508 1.373 . S
C509 C525 1.377 . S
C510 C508 1.389 . S
C510 C511 1.524 . S
C510 C524 1.377 . S
C511 C510 1.524 . S
C511 C512 1.397 . S
C511 C516 1.363 . S
C512 H489 0.950 . S
C512 C511 1.397 . S
C512 C513 1.334 . S
C513 H490 0.950 . S
C513 C512 1.334 . S
C513 C514 1.287 . S
C514 C513 1.287 . S
C514 C515 1.524 . S
C514 H533 0.913 . S
C515 H491 0.950 . S
C515 C514 1.524 . S
C515 C516 1.415 . S
C516 H492 0.950 . S
C516 C511 1.363 . S
C516 C515 1.415 . S
C517 H493 0.951 . S
C517 C518 1.366 . S
C517 C519 1.388 . S
C518 C517 1.366 . S
C518 C522 1.385 . S
C519 H494 0.951 . S
C519 C517 1.388 . S
C519 C520 1.366 . S
C520 C519 1.366 . S
C520 C521 1.414 . S
C520 C523 1.499 . S
C521 H495 0.950 . S
C521 C520 1.414 . S
C521 C522 1.374 . S
C522 H496 0.950 . S
C522 C518 1.385 . S
C522 C521 1.374 . S
C523 C520 1.499 . S
C523 C524 1.373 . S
C523 C525 1.389 . S
C524 H497 0.950 . S
C524 C510 1.377 . S
C524 C523 1.373 . S
C525 C509 1.377 . S
C525 C523 1.389 . S
C525 C526 1.524 . S
C526 C525 1.524 . S
C526 C527 1.397 . S
C526 C531 1.363 . S
C527 H498 0.950 . S
C527 C526 1.397 . S
C527 C528 1.334 . S
C528 H499 0.950 . S
C528 C527 1.334 . S
C528 C529 1.287 . S
C529 C528 1.287 . S
C529 C530 1.524 . S
C529 H532 0.999 . S
C530 H500 0.950 . S
C530 C529 1.524 . S
C530 C531 1.415 . S
C531 H501 0.950 . S
C531 C526 1.363 . S
C531 C530 1.415 . S
H532 C529 0.999 . S
H533 C514 0.913 . S
H534 C552 0.951 . S
H535 C554 0.951 . S
H536 C556 0.950 . S
H537 C557 0.950 . S
H538 C559 0.950 . S
H539 C562 0.950 . S
H540 C563 0.950 . S
H541 C565 0.950 . S
H542 C566 0.950 . S
H543 C567 0.951 . S
H544 C569 0.951 . S
H545 C571 0.950 . S
H546 C572 0.950 . S
H547 C574 0.950 . S
H548 C577 0.950 . S
H549 C578 0.950 . S
H550 C580 0.950 . S
H551 C581 0.950 . S
C552 H534 0.951 . S
C552 C553 1.366 . S
C552 C554 1.388 . S
C553 C552 1.366 . S
C553 C557 1.385 . S
C554 H535 0.951 . S
C554 C552 1.388 . S
C554 C555 1.366 . S
C555 C554 1.366 . S
C555 C556 1.414 . S
C555 C558 1.499 . S
C556 H536 0.950 . S
C556 C555 1.414 . S
C556 C557 1.374 . S
C557 H537 0.950 . S
C557 C553 1.385 . S
C557 C556 1.374 . S
C558 C555 1.499 . S
C558 C559 1.373 . S
C558 C560 1.389 . S
C559 H538 0.950 . S
C559 C558 1.373 . S
C559 C575 1.377 . S
C560 C558 1.389 . S
C560 C561 1.524 . S
C560 C574 1.377 . S
C561 C560 1.524 . S
C561 C562 1.397 . S
C561 C566 1.363 . S
C562 H539 0.950 . S
C562 C561 1.397 . S
C562 C563 1.334 . S
C563 H540 0.950 . S
C563 C562 1.334 . S
C563 C564 1.287 . S
C564 C563 1.287 . S
C564 C565 1.524 . S
C564 H583 0.913 . S
C565 H541 0.950 . S
C565 C564 1.524 . S
C565 C566 1.415 . S
C566 H542 0.950 . S
C566 C561 1.363 . S
C566 C565 1.415 . S
C567 H543 0.951 . S
C567 C568 1.366 . S
C567 C569 1.388 . S
C568 C567 1.366 . S
C568 C572 1.385 . S
C569 H544 0.951 . S
C569 C567 1.388 . S
C569 C570 1.366 . S
C570 C569 1.366 . S
C570 C571 1.414 . S
C570 C573 1.499 . S
C571 H545 0.950 . S
C571 C570 1.414 . S
C571 C572 1.374 . S
C572 H546 0.950 . S
C572 C568 1.385 . S
C572 C571 1.374 . S
C573 C570 1.499 . S
C573 C574 1.373 . S
C573 C575 1.389 . S
C574 H547 0.950 . S
C574 C560 1.377 . S
C574 C573 1.373 . S
C575 C559 1.377 . S
C575 C573 1.389 . S
C575 C576 1.524 . S
C576 C575 1.524 . S
C576 C577 1.397 . S
C576 C581 1.363 . S
C577 H548 0.950 . S
C577 C576 1.397 . S
C577 C578 1.334 . S
C578 H549 0.950 . S
C578 C577 1.334 . S
C578 C579 1.287 . S
C579 C578 1.287 . S
C579 C580 1.524 . S
C579 H582 0.999 . S
C580 H550 0.950 . S
C580 C579 1.524 . S
C580 C581 1.415 . S
C581 H551 0.950 . S
C581 C576 1.363 . S
C581 C580 1.415 . S
H582 C579 0.999 . S
H583 C564 0.913 . S
H584 C602 0.951 . S
H585 C604 0.951 . S
H586 C606 0.950 . S
H587 C607 0.950 1_554 S
H588 C609 0.950 . S
H589 C612 0.950 . S
H590 C613 0.950 . S
H591 C615 0.950 . S
H592 C616 0.950 . S
H593 C617 0.951 . S
H594 C619 0.951 . S
H595 C621 0.950 . S
H596 C622 0.950 . S
H597 C624 0.950 . S
H598 C627 0.950 . S
H599 C628 0.950 . S
H600 C630 0.950 1_554 S
H601 C631 0.950 . S
C602 H584 0.951 . S
C602 C603 1.366 . S
C602 C604 1.388 . S
C603 C602 1.366 . S
C603 C607 1.385 . S
C604 H585 0.951 . S
C604 C602 1.388 . S
C604 C605 1.366 . S
C605 C604 1.366 . S
C605 C606 1.414 . S
C605 C608 1.499 . S
C606 H586 0.950 . S
C606 C605 1.414 . S
C606 C607 1.374 . S
C607 H587 0.950 1_556 S
C607 C603 1.385 . S
C607 C606 1.374 . S
C608 C605 1.499 . S
C608 C609 1.373 . S
C608 C610 1.389 . S
C609 H588 0.950 . S
C609 C608 1.373 . S
C609 C625 1.377 . S
C610 C608 1.389 . S
C610 C611 1.524 . S
C610 C624 1.377 . S
C611 C610 1.524 . S
C611 C612 1.397 . S
C611 C616 1.363 . S
C612 H589 0.950 . S
C612 C611 1.397 . S
C612 C613 1.334 . S
C613 H590 0.950 . S
C613 C612 1.334 . S
C613 C614 1.287 . S
C614 C613 1.287 . S
C614 C615 1.524 . S
C614 H633 0.913 . S
C615 H591 0.950 . S
C615 C614 1.524 . S
C615 C616 1.415 . S
C616 H592 0.950 . S
C616 C611 1.363 . S
C616 C615 1.415 . S
C617 H593 0.951 . S
C617 C618 1.366 . S
C617 C619 1.388 . S
C618 C617 1.366 . S
C618 C622 1.385 . S
C619 H594 0.951 . S
C619 C617 1.388 . S
C619 C620 1.366 . S
C620 C619 1.366 . S
C620 C621 1.414 . S
C620 C623 1.499 . S
C621 H595 0.950 . S
C621 C620 1.414 . S
C621 C622 1.374 . S
C622 H596 0.950 . S
C622 C618 1.385 . S
C622 C621 1.374 . S
C623 C620 1.499 . S
C623 C624 1.373 . S
C623 C625 1.389 . S
C624 H597 0.950 . S
C624 C610 1.377 . S
C624 C623 1.373 . S
C625 C609 1.377 . S
C625 C623 1.389 . S
C625 C626 1.524 . S
C626 C625 1.524 . S
C626 C627 1.397 . S
C626 C631 1.363 . S
C627 H598 0.950 . S
C627 C626 1.397 . S
C627 C628 1.334 . S
C628 H599 0.950 . S
C628 C627 1.334 . S
C628 C629 1.287 . S
C629 C628 1.287 . S
C629 C630 1.524 . S
C629 H632 0.999 . S
C630 H600 0.950 1_556 S
C630 C629 1.524 . S
C630 C631 1.415 . S
C631 H601 0.950 . S
C631 C626 1.363 . S
C631 C630 1.415 . S
H632 C629 0.999 . S
H633 C614 0.913 . S
H634 C652 0.951 . S
H635 C654 0.951 . S
H636 C656 0.950 . S
H637 C657 0.950 . S
H638 C659 0.950 . S
H639 C662 0.950 . S
H640 C663 0.950 . S
H641 C665 0.950 . S
H642 C666 0.950 . S
H643 C667 0.951 . S
H644 C669 0.951 . S
H645 C671 0.950 . S
H646 C672 0.950 . S
H647 C674 0.950 . S
H648 C677 0.950 . S
H649 C678 0.950 . S
H650 C680 0.950 . S
H651 C681 0.950 . S
C652 H634 0.951 . S
C652 C653 1.366 . S
C652 C654 1.388 . S
C653 C652 1.366 . S
C653 C657 1.385 . S
C654 H635 0.951 . S
C654 C652 1.388 . S
C654 C655 1.366 . S
C655 C654 1.366 . S
C655 C656 1.414 . S
C655 C658 1.499 . S
C656 H636 0.950 . S
C656 C655 1.414 . S
C656 C657 1.374 . S
C657 H637 0.950 . S
C657 C653 1.385 . S
C657 C656 1.374 . S
C658 C655 1.499 . S
C658 C659 1.373 . S
C658 C660 1.389 . S
C659 H638 0.950 . S
C659 C658 1.373 . S
C659 C675 1.377 . S
C660 C658 1.389 . S
C660 C661 1.524 . S
C660 C674 1.377 . S
C661 C660 1.524 . S
C661 C662 1.397 . S
C661 C666 1.363 . S
C662 H639 0.950 . S
C662 C661 1.397 . S
C662 C663 1.334 . S
C663 H640 0.950 . S
C663 C662 1.334 . S
C663 C664 1.287 . S
C664 C663 1.287 . S
C664 C665 1.524 . S
C664 H683 0.913 . S
C665 H641 0.950 . S
C665 C664 1.524 . S
C665 C666 1.415 . S
C666 H642 0.950 . S
C666 C661 1.363 . S
C666 C665 1.415 . S
C667 H643 0.951 . S
C667 C668 1.366 . S
C667 C669 1.388 . S
C668 C667 1.366 . S
C668 C672 1.385 . S
C669 H644 0.951 . S
C669 C667 1.388 . S
C669 C670 1.366 . S
C670 C669 1.366 . S
C670 C671 1.414 . S
C670 C673 1.499 . S
C671 H645 0.950 . S
C671 C670 1.414 . S
C671 C672 1.374 . S
C672 H646 0.950 . S
C672 C668 1.385 . S
C672 C671 1.374 . S
C673 C670 1.499 . S
C673 C674 1.373 . S
C673 C675 1.389 . S
C674 H647 0.950 . S
C674 C660 1.377 . S
C674 C673 1.373 . S
C675 C659 1.377 . S
C675 C673 1.389 . S
C675 C676 1.524 . S
C676 C675 1.524 . S
C676 C677 1.397 . S
C676 C681 1.363 . S
C677 H648 0.950 . S
C677 C676 1.397 . S
C677 C678 1.334 . S
C678 H649 0.950 . S
C678 C677 1.334 . S
C678 C679 1.287 . S
C679 C678 1.287 . S
C679 C680 1.524 . S
C679 H682 0.999 . S
C680 H650 0.950 . S
C680 C679 1.524 . S
C680 C681 1.415 . S
C681 H651 0.950 . S
C681 C676 1.363 . S
C681 C680 1.415 . S
H682 C679 0.999 . S
H683 C664 0.913 . S
H684 C702 0.951 . S
H685 C704 0.951 . S
H686 C706 0.950 . S
H687 C707 0.950 1_554 S
H688 C709 0.950 . S
H689 C712 0.950 . S
H690 C713 0.950 . S
H691 C715 0.950 . S
H692 C716 0.950 . S
H693 C717 0.951 . S
H694 C719 0.951 . S
H695 C721 0.950 . S
H696 C722 0.950 . S
H697 C724 0.950 . S
H698 C727 0.950 . S
H699 C728 0.950 . S
H700 C730 0.950 . S
H701 C731 0.950 . S
C702 H684 0.951 . S
C702 C703 1.366 . S
C702 C704 1.388 . S
C703 C702 1.366 . S
C703 C707 1.385 . S
C704 H685 0.951 . S
C704 C702 1.388 . S
C704 C705 1.366 . S
C705 C704 1.366 . S
C705 C706 1.414 . S
C705 C708 1.499 . S
C706 H686 0.950 . S
C706 C705 1.414 . S
C706 C707 1.374 . S
C707 H687 0.950 1_556 S
C707 C703 1.385 . S
C707 C706 1.374 . S
C708 C705 1.499 . S
C708 C709 1.373 . S
C708 C710 1.389 . S
C709 H688 0.950 . S
C709 C708 1.373 . S
C709 C725 1.377 . S
C710 C708 1.389 . S
C710 C711 1.524 . S
C710 C724 1.377 . S
C711 C710 1.524 . S
C711 C712 1.397 . S
C711 C716 1.363 . S
C712 H689 0.950 . S
C712 C711 1.397 . S
C712 C713 1.334 . S
C713 H690 0.950 . S
C713 C712 1.334 . S
C713 C714 1.287 . S
C714 C713 1.287 . S
C714 C715 1.524 . S
C714 H733 0.913 . S
C715 H691 0.950 . S
C715 C714 1.524 . S
C715 C716 1.415 . S
C716 H692 0.950 . S
C716 C711 1.363 . S
C716 C715 1.415 . S
C717 H693 0.951 . S
C717 C718 1.366 . S
C717 C719 1.388 . S
C718 C717 1.366 . S
C718 C722 1.385 . S
C719 H694 0.951 . S
C719 C717 1.388 . S
C719 C720 1.366 . S
C720 C719 1.366 . S
C720 C721 1.414 . S
C720 C723 1.499 . S
C721 H695 0.950 . S
C721 C720 1.414 . S
C721 C722 1.374 . S
C722 H696 0.950 . S
C722 C718 1.385 . S
C722 C721 1.374 . S
C723 C720 1.499 . S
C723 C724 1.373 . S
C723 C725 1.389 . S
C724 H697 0.950 . S
C724 C710 1.377 . S
C724 C723 1.373 . S
C725 C709 1.377 . S
C725 C723 1.389 . S
C725 C726 1.524 . S
C726 C725 1.524 . S
C726 C727 1.397 . S
C726 C731 1.363 . S
C727 H698 0.950 . S
C727 C726 1.397 . S
C727 C728 1.334 . S
C728 H699 0.950 . S
C728 C727 1.334 . S
C728 C729 1.287 . S
C729 C728 1.287 . S
C729 C730 1.524 1_556 S
C729 H732 0.999 . S
C730 H700 0.950 . S
C730 C729 1.524 1_554 S
C730 C731 1.415 1_554 S
C731 H701 0.950 . S
C731 C726 1.363 . S
C731 C730 1.415 1_556 S
H732 C729 0.999 . S
H733 C714 0.913 . S
H734 C752 0.951 . S
H735 C754 0.951 . S
H736 C756 0.950 . S
H737 C757 0.950 . S
H738 C759 0.950 . S
H739 C762 0.950 . S
H740 C763 0.950 . S
H741 C765 0.950 . S
H742 C766 0.950 . S
H743 C767 0.951 . S
H744 C769 0.951 . S
H745 C771 0.950 . S
H746 C772 0.950 . S
H747 C774 0.950 . S
H748 C777 0.950 . S
H749 C778 0.950 . S
H750 C780 0.950 . S
H751 C781 0.950 . S
C752 H734 0.951 . S
C752 C753 1.366 . S
C752 C754 1.388 . S
C753 C752 1.366 . S
C753 C757 1.385 . S
C754 H735 0.951 . S
C754 C752 1.388 . S
C754 C755 1.366 . S
C755 C754 1.366 . S
C755 C756 1.414 . S
C755 C758 1.499 . S
C756 H736 0.950 . S
C756 C755 1.414 . S
C756 C757 1.374 . S
C757 H737 0.950 . S
C757 C753 1.385 . S
C757 C756 1.374 . S
C758 C755 1.499 . S
C758 C759 1.373 . S
C758 C760 1.389 . S
C759 H738 0.950 . S
C759 C758 1.373 . S
C759 C775 1.377 . S
C760 C758 1.389 . S
C760 C761 1.524 . S
C760 C774 1.377 . S
C761 C760 1.524 . S
C761 C762 1.397 . S
C761 C766 1.363 . S
C762 H739 0.950 . S
C762 C761 1.397 . S
C762 C763 1.334 . S
C763 H740 0.950 . S
C763 C762 1.334 . S
C763 C764 1.287 . S
C764 C763 1.287 . S
C764 C765 1.524 . S
C764 H783 0.913 . S
C765 H741 0.950 . S
C765 C764 1.524 . S
C765 C766 1.415 . S
C766 H742 0.950 . S
C766 C761 1.363 . S
C766 C765 1.415 . S
C767 H743 0.951 . S
C767 C768 1.366 . S
C767 C769 1.388 . S
C768 C767 1.366 . S
C768 C772 1.385 . S
C769 H744 0.951 . S
C769 C767 1.388 . S
C769 C770 1.366 . S
C770 C769 1.366 . S
C770 C771 1.414 . S
C770 C773 1.499 . S
C771 H745 0.950 . S
C771 C770 1.414 . S
C771 C772 1.374 . S
C772 H746 0.950 . S
C772 C768 1.385 . S
C772 C771 1.374 . S
C773 C770 1.499 . S
C773 C774 1.373 . S
C773 C775 1.389 . S
C774 H747 0.950 . S
C774 C760 1.377 . S
C774 C773 1.373 . S
C775 C759 1.377 . S
C775 C773 1.389 . S
C775 C776 1.524 . S
C776 C775 1.524 . S
C776 C777 1.397 . S
C776 C781 1.363 . S
C777 H748 0.950 . S
C777 C776 1.397 . S
C777 C778 1.334 . S
C778 H749 0.950 . S
C778 C777 1.334 . S
C778 C779 1.287 . S
C779 C778 1.287 . S
C779 C780 1.524 . S
C779 H782 0.999 . S
C780 H750 0.950 . S
C780 C779 1.524 . S
C780 C781 1.415 . S
C781 H751 0.950 . S
C781 C776 1.363 . S
C781 C780 1.415 . S
H782 C779 0.999 . S
H783 C764 0.913 . S
H784 C802 0.951 . S
H785 C804 0.951 . S
H786 C806 0.950 . S
H787 C807 0.950 1_554 S
H788 C809 0.941 1_545 S
H789 C812 0.950 . S
H790 C813 0.950 . S
H791 C815 0.950 . S
H792 C816 0.950 . S
H793 C817 0.951 . S
H794 C819 0.951 . S
H795 C821 0.950 . S
H796 C822 0.950 . S
H797 C824 0.950 . S
H798 C827 0.950 . S
H799 C828 0.950 . S
H800 C830 0.950 . S
H801 C831 0.950 . S
C802 H784 0.951 . S
C802 C803 1.366 . S
C802 C804 1.388 . S
C803 C802 1.366 . S
C803 C807 1.385 . S
C804 H785 0.951 . S
C804 C802 1.388 . S
C804 C805 1.366 . S
C805 C804 1.366 . S
C805 C806 1.414 . S
C805 C808 1.499 . S
C806 H786 0.950 . S
C806 C805 1.414 . S
C806 C807 1.374 . S
C807 H787 0.950 1_556 S
C807 C803 1.385 . S
C807 C806 1.374 . S
C808 C805 1.499 . S
C808 C809 1.404 . S
C808 C810 1.389 . S
C809 H788 0.941 1_565 S
C809 C808 1.404 . S
C809 C825 1.356 1_565 S
C810 C808 1.389 . S
C810 C811 1.524 . S
C810 C824 1.377 . S
C811 C810 1.524 . S
C811 C812 1.397 . S
C811 C816 1.363 . S
C812 H789 0.950 . S
C812 C811 1.397 . S
C812 C813 1.334 . S
C813 H790 0.950 . S
C813 C812 1.334 . S
C813 C814 1.287 . S
C814 C813 1.287 . S
C814 C815 1.524 . S
C814 H833 0.913 . S
C815 H791 0.950 . S
C815 C814 1.524 . S
C815 C816 1.415 . S
C816 H792 0.950 . S
C816 C811 1.363 . S
C816 C815 1.415 . S
C817 H793 0.951 . S
C817 C818 1.366 . S
C817 C819 1.388 . S
C818 C817 1.366 . S
C818 C822 1.385 . S
C819 H794 0.951 . S
C819 C817 1.388 . S
C819 C820 1.366 . S
C820 C819 1.366 . S
C820 C821 1.414 . S
C820 C823 1.499 . S
C821 H795 0.950 . S
C821 C820 1.414 . S
C821 C822 1.374 . S
C822 H796 0.950 . S
C822 C818 1.385 . S
C822 C821 1.374 . S
C823 C820 1.499 . S
C823 C824 1.373 1_545 S
C823 C825 1.389 . S
C824 H797 0.950 . S
C824 C810 1.377 . S
C824 C823 1.373 1_565 S
C825 C809 1.356 1_545 S
C825 C823 1.389 . S
C825 C826 1.524 . S
C826 C825 1.524 . S
C826 C827 1.397 . S
C826 C831 1.363 . S
C827 H798 0.950 . S
C827 C826 1.397 . S
C827 C828 1.334 . S
C828 H799 0.950 . S
C828 C827 1.334 . S
C828 C829 1.287 . S
C829 C828 1.287 . S
C829 C830 1.524 . S
C829 H832 0.999 . S
C830 H800 0.950 . S
C830 C829 1.524 . S
C830 C831 1.415 . S
C831 H801 0.950 . S
C831 C826 1.363 . S
C831 C830 1.415 . S
H832 C829 0.999 . S
H833 C814 0.913 . S
H834 C852 0.951 . S
H835 C854 0.951 . S
H836 C856 0.950 . S
H837 C857 0.950 . S
H838 C859 0.950 . S
H839 C862 0.950 . S
H840 C863 0.950 . S
H841 C865 0.950 . S
H842 C866 0.950 . S
H843 C867 0.951 . S
H844 C869 0.951 . S
H845 C871 0.950 . S
H846 C872 0.950 . S
H847 C874 0.943 1_565 S
H848 C877 0.958 . S
H849 C878 0.954 . S
H850 C880 0.950 . S
H851 C881 0.950 . S
C852 H834 0.951 . S
C852 C853 1.366 . S
C852 C854 1.388 . S
C853 C852 1.366 . S
C853 C857 1.385 . S
C854 H835 0.951 . S
C854 C852 1.388 . S
C854 C855 1.366 . S
C855 C854 1.366 . S
C855 C856 1.414 . S
C855 C858 1.499 . S
C856 H836 0.950 . S
C856 C855 1.414 . S
C856 C857 1.374 . S
C857 H837 0.950 . S
C857 C853 1.385 . S
C857 C856 1.374 . S
C858 C855 1.499 . S
C858 C859 1.373 . S
C858 C860 1.389 . S
C859 H838 0.950 . S
C859 C858 1.373 . S
C859 C875 1.395 . S
C860 C858 1.389 . S
C860 C861 1.524 . S
C860 C874 1.392 . S
C861 C860 1.524 . S
C861 C862 1.397 . S
C861 C866 1.363 . S
C862 H839 0.950 . S
C862 C861 1.397 . S
C862 C863 1.334 . S
C863 H840 0.950 . S
C863 C862 1.334 . S
C863 C864 1.287 . S
C864 C863 1.287 . S
C864 C865 1.524 . S
C864 H883 0.913 . S
C865 H841 0.950 . S
C865 C864 1.524 . S
C865 C866 1.415 . S
C866 H842 0.950 . S
C866 C861 1.363 . S
C866 C865 1.415 . S
C867 H843 0.951 . S
C867 C868 1.366 . S
C867 C869 1.388 . S
C868 C867 1.366 . S
C868 C872 1.385 . S
C869 H844 0.951 . S
C869 C867 1.388 . S
C869 C870 1.366 . S
C870 C869 1.366 . S
C870 C871 1.414 . S
C870 C873 1.499 . S
C871 H845 0.950 . S
C871 C870 1.414 . S
C871 C872 1.374 . S
C872 H846 0.950 . S
C872 C868 1.385 . S
C872 C871 1.374 . S
C873 C870 1.499 . S
C873 C874 1.366 1_565 S
C873 C875 1.380 1_565 S
C874 H847 0.943 1_545 S
C874 C860 1.392 . S
C874 C873 1.366 1_545 S
C875 C859 1.395 . S
C875 C873 1.380 1_545 S
C875 C876 1.518 1_545 S
C876 C875 1.518 1_565 S
C876 C877 1.392 1_565 S
C876 C881 1.363 . S
C877 H848 0.958 . S
C877 C876 1.392 1_545 S
C877 C878 1.331 1_545 S
C878 H849 0.954 . S
C878 C877 1.331 1_565 S
C878 C879 1.287 . S
C879 C878 1.287 . S
C879 C880 1.524 . S
C879 H882 0.999 . S
C880 H850 0.950 . S
C880 C879 1.524 . S
C880 C881 1.415 . S
C881 H851 0.950 . S
C881 C876 1.363 . S
C881 C880 1.415 . S
H882 C879 0.999 . S
H883 C864 0.913 . S
H884 C902 0.951 1_554 S
H885 C904 0.951 . S
H886 C906 0.950 . S
H887 C907 0.950 . S
H888 C909 0.950 . S
H889 C912 0.950 . S
H890 C913 0.950 . S
H891 C915 0.950 . S
H892 C916 0.950 . S
H893 C917 0.951 . S
H894 C919 0.951 . S
H895 C921 0.950 . S
H896 C922 0.950 . S
H897 C924 0.950 . S
H898 C927 0.950 . S
H899 C928 0.950 . S
H900 C930 0.950 . S
H901 C931 0.950 . S
C902 H884 0.951 1_556 S
C902 C903 1.366 . S
C902 C904 1.388 . S
C903 C902 1.366 . S
C903 C907 1.385 . S
C904 H885 0.951 . S
C904 C902 1.388 . S
C904 C905 1.366 . S
C905 C904 1.366 . S
C905 C906 1.414 . S
C905 C908 1.499 . S
C906 H886 0.950 . S
C906 C905 1.414 . S
C906 C907 1.374 . S
C907 H887 0.950 . S
C907 C903 1.385 . S
C907 C906 1.374 . S
C908 C905 1.499 . S
C908 C909 1.373 1_565 S
C908 C910 1.389 . S
C909 H888 0.950 . S
C909 C908 1.373 1_545 S
C909 C925 1.377 . S
C910 C908 1.389 . S
C910 C911 1.524 . S
C910 C924 1.377 . S
C911 C910 1.524 . S
C911 C912 1.397 . S
C911 C916 1.363 . S
C912 H889 0.950 . S
C912 C911 1.397 . S
C912 C913 1.334 . S
C913 H890 0.950 . S
C913 C912 1.334 . S
C913 C914 1.287 . S
C914 C913 1.287 . S
C914 C915 1.524 . S
C914 H933 0.913 . S
C915 H891 0.950 . S
C915 C914 1.524 . S
C915 C916 1.415 . S
C916 H892 0.950 . S
C916 C911 1.363 . S
C916 C915 1.415 . S
C917 H893 0.951 . S
C917 C918 1.366 . S
C917 C919 1.388 . S
C918 C917 1.366 . S
C918 C922 1.385 . S
C919 H894 0.951 . S
C919 C917 1.388 . S
C919 C920 1.366 . S
C920 C919 1.366 . S
C920 C921 1.414 . S
C920 C923 1.499 . S
C921 H895 0.950 . S
C921 C920 1.414 . S
C921 C922 1.374 . S
C922 H896 0.950 . S
C922 C918 1.385 . S
C922 C921 1.374 . S
C923 C920 1.499 . S
C923 C924 1.373 1_545 S
C923 C925 1.389 . S
C924 H897 0.950 . S
C924 C910 1.377 . S
C924 C923 1.373 1_565 S
C925 C909 1.377 . S
C925 C923 1.389 . S
C925 C926 1.524 . S
C926 C925 1.524 . S
C926 C927 1.397 . S
C926 C931 1.363 . S
C927 H898 0.950 . S
C927 C926 1.397 . S
C927 C928 1.334 . S
C928 H899 0.950 . S
C928 C927 1.334 . S
C928 C929 1.287 . S
C929 C928 1.287 . S
C929 C930 1.524 . S
C929 H932 0.999 . S
C930 H900 0.950 . S
C930 C929 1.524 . S
C930 C931 1.415 . S
C931 H901 0.950 . S
C931 C926 1.363 . S
C931 C930 1.415 . S
H932 C929 0.999 . S
H933 C914 0.913 . S
H934 C952 0.951 . S
H935 C954 0.951 . S
H936 C956 0.950 . S
H937 C957 0.950 . S
H938 C959 0.950 . S
H939 C962 0.950 . S
H940 C963 0.950 . S
H941 C965 0.950 . S
H942 C966 0.950 . S
H943 C967 0.951 . S
H944 C969 0.951 . S
H945 C971 0.950 . S
H946 C972 0.950 . S
H947 C974 0.950 . S
H948 C977 0.950 . S
H949 C978 0.950 . S
H950 C980 0.950 . S
H951 C981 0.950 . S
C952 H934 0.951 . S
C952 C953 1.366 . S
C952 C954 1.388 . S
C953 C952 1.366 . S
C953 C957 1.385 . S
C954 H935 0.951 . S
C954 C952 1.388 . S
C954 C955 1.366 . S
C955 C954 1.366 . S
C955 C956 1.414 . S
C955 C958 1.499 . S
C956 H936 0.950 . S
C956 C955 1.414 . S
C956 C957 1.374 . S
C957 H937 0.950 . S
C957 C953 1.385 . S
C957 C956 1.374 . S
C958 C955 1.499 . S
C958 C959 1.373 . S
C958 C960 1.389 1_545 S
C959 H938 0.950 . S
C959 C958 1.373 . S
C959 C975 1.377 . S
C960 C958 1.389 1_565 S
C960 C961 1.524 . S
C960 C974 1.377 . S
C961 C960 1.524 . S
C961 C962 1.397 . S
C961 C966 1.363 . S
C962 H939 0.950 . S
C962 C961 1.397 . S
C962 C963 1.334 . S
C963 H940 0.950 . S
C963 C962 1.334 . S
C963 C964 1.287 . S
C964 C963 1.287 . S
C964 C965 1.524 . S
C964 H983 0.913 . S
C965 H941 0.950 . S
C965 C964 1.524 . S
C965 C966 1.415 . S
C966 H942 0.950 . S
C966 C961 1.363 . S
C966 C965 1.415 . S
C967 H943 0.951 . S
C967 C968 1.366 . S
C967 C969 1.388 . S
C968 C967 1.366 . S
C968 C972 1.385 . S
C969 H944 0.951 . S
C969 C967 1.388 . S
C969 C970 1.366 . S
C970 C969 1.366 . S
C970 C971 1.414 . S
C970 C973 1.499 . S
C971 H945 0.950 . S
C971 C970 1.414 . S
C971 C972 1.374 . S
C972 H946 0.950 . S
C972 C968 1.385 . S
C972 C971 1.374 . S
C973 C970 1.499 . S
C973 C974 1.373 . S
C973 C975 1.389 1_565 S
C974 H947 0.950 . S
C974 C960 1.377 . S
C974 C973 1.373 . S
C975 C959 1.377 . S
C975 C973 1.389 1_545 S
C975 C976 1.524 . S
C976 C975 1.524 . S
C976 C977 1.397 . S
C976 C981 1.363 . S
C977 H948 0.950 . S
C977 C976 1.397 . S
C977 C978 1.334 . S
C978 H949 0.950 . S
C978 C977 1.334 . S
C978 C979 1.287 . S
C979 C978 1.287 . S
C979 C980 1.524 . S
C979 H982 0.999 . S
C980 H950 0.950 . S
C980 C979 1.524 . S
C980 C981 1.415 . S
C981 H951 0.950 . S
C981 C976 1.363 . S
C981 C980 1.415 . S
H982 C979 0.999 . S
H983 C964 0.913 . S
H984 C1002 0.951 . S
H985 C1004 0.951 . S
H986 C1006 0.950 . S
H987 C1007 0.950 . S
H988 C1009 0.950 . S
H989 C1012 0.950 . S
H990 C1013 0.950 . S
H991 C1015 0.950 . S
H992 C1016 0.950 . S
H993 C1017 0.951 . S
H994 C1019 0.951 . S
H995 C1021 0.950 . S
H996 C1022 0.950 . S
H997 C1024 0.950 . S
H998 C1027 0.950 . S
H999 C1028 0.950 . S
H1000 C1030 0.950 . S
H1001 C1031 0.950 . S
C1002 H984 0.951 . S
C1002 C1003 1.366 . S
C1002 C1004 1.388 . S
C1003 C1002 1.366 . S
C1003 C1007 1.385 . S
C1004 H985 0.951 . S
C1004 C1002 1.388 . S
C1004 C1005 1.366 . S
C1005 C1004 1.366 . S
C1005 C1006 1.414 . S
C1005 C1008 1.499 . S
C1006 H986 0.950 . S
C1006 C1005 1.414 . S
C1006 C1007 1.374 . S
C1007 H987 0.950 . S
C1007 C1003 1.385 . S
C1007 C1006 1.374 . S
C1008 C1005 1.499 . S
C1008 C1009 1.373 . S
C1008 C1010 1.389 . S
C1009 H988 0.950 . S
C1009 C1008 1.373 . S
C1009 C1025 1.377 . S
C1010 C1008 1.389 . S
C1010 C1011 1.524 . S
C1010 C1024 1.377 . S
C1011 C1010 1.524 . S
C1011 C1012 1.397 . S
C1011 C1016 1.363 . S
C1012 H989 0.950 . S
C1012 C1011 1.397 . S
C1012 C1013 1.334 . S
C1013 H990 0.950 . S
C1013 C1012 1.334 . S
C1013 C1014 1.287 . S
C1014 C1013 1.287 . S
C1014 C1015 1.524 . S
C1014 H1033 0.913 . S
C1015 H991 0.950 . S
C1015 C1014 1.524 . S
C1015 C1016 1.415 . S
C1016 H992 0.950 . S
C1016 C1011 1.363 . S
C1016 C1015 1.415 . S
C1017 H993 0.951 . S
C1017 C1018 1.366 . S
C1017 C1019 1.388 . S
C1018 C1017 1.366 . S
C1018 C1022 1.385 . S
C1019 H994 0.951 . S
C1019 C1017 1.388 . S
C1019 C1020 1.366 . S
C1020 C1019 1.366 . S
C1020 C1021 1.414 . S
C1020 C1023 1.499 . S
C1021 H995 0.950 . S
C1021 C1020 1.414 . S
C1021 C1022 1.374 . S
C1022 H996 0.950 . S
C1022 C1018 1.385 . S
C1022 C1021 1.374 . S
C1023 C1020 1.499 . S
C1023 C1024 1.373 . S
C1023 C1025 1.389 . S
C1024 H997 0.950 . S
C1024 C1010 1.377 . S
C1024 C1023 1.373 . S
C1025 C1009 1.377 . S
C1025 C1023 1.389 . S
C1025 C1026 1.524 . S
C1026 C1025 1.524 . S
C1026 C1027 1.397 . S
C1026 C1031 1.363 . S
C1027 H998 0.950 . S
C1027 C1026 1.397 . S
C1027 C1028 1.334 . S
C1028 H999 0.950 . S
C1028 C1027 1.334 . S
C1028 C1029 1.287 . S
C1029 C1028 1.287 . S
C1029 C1030 1.524 . S
C1029 H1032 0.999 . S
C1030 H1000 0.950 . S
C1030 C1029 1.524 . S
C1030 C1031 1.415 . S
C1031 H1001 0.950 . S
C1031 C1026 1.363 . S
C1031 C1030 1.415 . S
H1032 C1029 0.999 . S
H1033 C1014 0.913 . S
H1034 C1052 0.951 . S
H1035 C1054 0.951 . S
H1036 C1056 0.950 . S
H1037 C1057 0.950 . S
H1038 C1059 0.950 . S
H1039 C1062 0.950 . S
H1040 C1063 0.950 . S
H1041 C1065 0.950 . S
H1042 C1066 0.950 . S
H1043 C1067 0.951 . S
H1044 C1069 0.951 . S
H1045 C1071 0.950 . S
H1046 C1072 0.950 . S
H1047 C1074 0.950 . S
H1048 C1077 0.950 . S
H1049 C1078 0.950 . S
H1050 C1080 0.950 . S
H1051 C1081 0.950 . S
C1052 H1034 0.951 . S
C1052 C1053 1.366 . S
C1052 C1054 1.388 . S
C1053 C1052 1.366 . S
C1053 C1057 1.385 . S
C1054 H1035 0.951 . S
C1054 C1052 1.388 . S
C1054 C1055 1.366 . S
C1055 C1054 1.366 . S
C1055 C1056 1.414 . S
C1055 C1058 1.499 . S
C1056 H1036 0.950 . S
C1056 C1055 1.414 . S
C1056 C1057 1.374 . S
C1057 H1037 0.950 . S
C1057 C1053 1.385 . S
C1057 C1056 1.374 . S
C1058 C1055 1.499 . S
C1058 C1059 1.373 . S
C1058 C1060 1.389 . S
C1059 H1038 0.950 . S
C1059 C1058 1.373 . S
C1059 C1075 1.377 . S
C1060 C1058 1.389 . S
C1060 C1061 1.524 . S
C1060 C1074 1.377 . S
C1061 C1060 1.524 . S
C1061 C1062 1.397 . S
C1061 C1066 1.363 . S
C1062 H1039 0.950 . S
C1062 C1061 1.397 . S
C1062 C1063 1.334 . S
C1063 H1040 0.950 . S
C1063 C1062 1.334 . S
C1063 C1064 1.287 . S
C1064 C1063 1.287 . S
C1064 C1065 1.524 . S
C1064 H1083 0.913 . S
C1065 H1041 0.950 . S
C1065 C1064 1.524 . S
C1065 C1066 1.415 . S
C1066 H1042 0.950 . S
C1066 C1061 1.363 . S
C1066 C1065 1.415 . S
C1067 H1043 0.951 . S
C1067 C1068 1.366 . S
C1067 C1069 1.388 . S
C1068 C1067 1.366 . S
C1068 C1072 1.385 . S
C1069 H1044 0.951 . S
C1069 C1067 1.388 . S
C1069 C1070 1.366 . S
C1070 C1069 1.366 . S
C1070 C1071 1.414 . S
C1070 C1073 1.499 . S
C1071 H1045 0.950 . S
C1071 C1070 1.414 . S
C1071 C1072 1.374 . S
C1072 H1046 0.950 . S
C1072 C1068 1.385 . S
C1072 C1071 1.374 . S
C1073 C1070 1.499 . S
C1073 C1074 1.373 . S
C1073 C1075 1.389 . S
C1074 H1047 0.950 . S
C1074 C1060 1.377 . S
C1074 C1073 1.373 . S
C1075 C1059 1.377 . S
C1075 C1073 1.389 . S
C1075 C1076 1.524 . S
C1076 C1075 1.524 . S
C1076 C1077 1.397 . S
C1076 C1081 1.363 . S
C1077 H1048 0.950 . S
C1077 C1076 1.397 . S
C1077 C1078 1.334 . S
C1078 H1049 0.950 . S
C1078 C1077 1.334 . S
C1078 C1079 1.287 . S
C1079 C1078 1.287 . S
C1079 C1080 1.524 . S
C1079 H1082 0.999 . S
C1080 H1050 0.950 . S
C1080 C1079 1.524 . S
C1080 C1081 1.415 . S
C1081 H1051 0.950 . S
C1081 C1076 1.363 . S
C1081 C1080 1.415 . S
H1082 C1079 0.999 . S
H1083 C1064 0.913 . S
H1084 C1102 0.951 . S
H1085 C1104 0.951 . S
H1086 C1106 0.950 . S
H1087 C1107 0.950 . S
H1088 C1109 0.950 . S
H1089 C1112 0.950 . S
H1090 C1113 0.950 . S
H1091 C1115 0.950 . S
H1092 C1116 0.950 . S
H1093 C1117 0.951 . S
H1094 C1119 0.951 . S
H1095 C1121 0.950 . S
H1096 C1122 0.950 . S
H1097 C1124 0.950 . S
H1098 C1127 0.950 . S
H1099 C1128 0.950 . S
H1100 C1130 0.950 . S
H1101 C1131 0.950 . S
C1102 H1084 0.951 . S
C1102 C1103 1.366 . S
C1102 C1104 1.388 . S
C1103 C1102 1.366 . S
C1103 C1107 1.385 . S
C1104 H1085 0.951 . S
C1104 C1102 1.388 . S
C1104 C1105 1.366 . S
C1105 C1104 1.366 . S
C1105 C1106 1.414 . S
C1105 C1108 1.499 . S
C1106 H1086 0.950 . S
C1106 C1105 1.414 . S
C1106 C1107 1.374 . S
C1107 H1087 0.950 . S
C1107 C1103 1.385 . S
C1107 C1106 1.374 . S
C1108 C1105 1.499 . S
C1108 C1109 1.373 . S
C1108 C1110 1.389 . S
C1109 H1088 0.950 . S
C1109 C1108 1.373 . S
C1109 C1125 1.377 . S
C1110 C1108 1.389 . S
C1110 C1111 1.524 . S
C1110 C1124 1.377 . S
C1111 C1110 1.524 . S
C1111 C1112 1.397 . S
C1111 C1116 1.363 . S
C1112 H1089 0.950 . S
C1112 C1111 1.397 . S
C1112 C1113 1.334 . S
C1113 H1090 0.950 . S
C1113 C1112 1.334 . S
C1113 C1114 1.287 . S
C1114 C1113 1.287 . S
C1114 C1115 1.524 . S
C1114 H1133 0.913 . S
C1115 H1091 0.950 . S
C1115 C1114 1.524 . S
C1115 C1116 1.415 . S
C1116 H1092 0.950 . S
C1116 C1111 1.363 . S
C1116 C1115 1.415 . S
C1117 H1093 0.951 . S
C1117 C1118 1.366 . S
C1117 C1119 1.388 . S
C1118 C1117 1.366 . S
C1118 C1122 1.385 . S
C1119 H1094 0.951 . S
C1119 C1117 1.388 . S
C1119 C1120 1.366 . S
C1120 C1119 1.366 . S
C1120 C1121 1.414 . S
C1120 C1123 1.499 . S
C1121 H1095 0.950 . S
C1121 C1120 1.414 . S
C1121 C1122 1.374 . S
C1122 H1096 0.950 . S
C1122 C1118 1.385 . S
C1122 C1121 1.374 . S
C1123 C1120 1.499 . S
C1123 C1124 1.373 . S
C1123 C1125 1.389 . S
C1124 H1097 0.950 . S
C1124 C1110 1.377 . S
C1124 C1123 1.373 . S
C1125 C1109 1.377 . S
C1125 C1123 1.389 . S
C1125 C1126 1.524 . S
C1126 C1125 1.524 . S
C1126 C1127 1.397 . S
C1126 C1131 1.363 . S
C1127 H1098 0.950 . S
C1127 C1126 1.397 . S
C1127 C1128 1.334 . S
C1128 H1099 0.950 . S
C1128 C1127 1.334 . S
C1128 C1129 1.287 . S
C1129 C1128 1.287 . S
C1129 C1130 1.524 . S
C1129 H1132 0.999 . S
C1130 H1100 0.950 . S
C1130 C1129 1.524 . S
C1130 C1131 1.415 . S
C1131 H1101 0.950 . S
C1131 C1126 1.363 . S
C1131 C1130 1.415 . S
H1132 C1129 0.999 . S
H1133 C1114 0.913 . S
H1134 C1152 0.951 . S
H1135 C1154 0.951 . S
H1136 C1156 0.950 . S
H1137 C1157 0.950 . S
H1138 C1159 0.950 . S
H1139 C1162 0.950 . S
H1140 C1163 0.950 . S
H1141 C1165 0.950 . S
H1142 C1166 0.950 . S
H1143 C1167 0.951 . S
H1144 C1169 0.951 . S
H1145 C1171 0.950 . S
H1146 C1172 0.950 . S
H1147 C1174 0.950 . S
H1148 C1177 0.950 . S
H1149 C1178 0.950 . S
H1150 C1180 0.950 . S
H1151 C1181 0.950 . S
C1152 H1134 0.951 . S
C1152 C1153 1.366 . S
C1152 C1154 1.388 . S
C1153 C1152 1.366 . S
C1153 C1157 1.385 . S
C1154 H1135 0.951 . S
C1154 C1152 1.388 . S
C1154 C1155 1.366 . S
C1155 C1154 1.366 . S
C1155 C1156 1.414 . S
C1155 C1158 1.499 . S
C1156 H1136 0.950 . S
C1156 C1155 1.414 . S
C1156 C1157 1.374 . S
C1157 H1137 0.950 . S
C1157 C1153 1.385 . S
C1157 C1156 1.374 . S
C1158 C1155 1.499 . S
C1158 C1159 1.373 . S
C1158 C1160 1.389 . S
C1159 H1138 0.950 . S
C1159 C1158 1.373 . S
C1159 C1175 1.377 . S
C1160 C1158 1.389 . S
C1160 C1161 1.524 . S
C1160 C1174 1.377 . S
C1161 C1160 1.524 . S
C1161 C1162 1.397 . S
C1161 C1166 1.363 . S
C1162 H1139 0.950 . S
C1162 C1161 1.397 . S
C1162 C1163 1.334 . S
C1163 H1140 0.950 . S
C1163 C1162 1.334 . S
C1163 C1164 1.287 . S
C1164 C1163 1.287 . S
C1164 C1165 1.524 . S
C1164 H1183 0.913 . S
C1165 H1141 0.950 . S
C1165 C1164 1.524 . S
C1165 C1166 1.415 . S
C1166 H1142 0.950 . S
C1166 C1161 1.363 . S
C1166 C1165 1.415 . S
C1167 H1143 0.951 . S
C1167 C1168 1.366 . S
C1167 C1169 1.388 . S
C1168 C1167 1.366 . S
C1168 C1172 1.385 . S
C1169 H1144 0.951 . S
C1169 C1167 1.388 . S
C1169 C1170 1.366 . S
C1170 C1169 1.366 . S
C1170 C1171 1.414 . S
C1170 C1173 1.499 . S
C1171 H1145 0.950 . S
C1171 C1170 1.414 . S
C1171 C1172 1.374 . S
C1172 H1146 0.950 . S
C1172 C1168 1.385 . S
C1172 C1171 1.374 . S
C1173 C1170 1.499 . S
C1173 C1174 1.373 . S
C1173 C1175 1.389 . S
C1174 H1147 0.950 . S
C1174 C1160 1.377 . S
C1174 C1173 1.373 . S
C1175 C1159 1.377 . S
C1175 C1173 1.389 . S
C1175 C1176 1.524 . S
C1176 C1175 1.524 . S
C1176 C1177 1.397 . S
C1176 C1181 1.363 . S
C1177 H1148 0.950 . S
C1177 C1176 1.397 . S
C1177 C1178 1.334 . S
C1178 H1149 0.950 . S
C1178 C1177 1.334 . S
C1178 C1179 1.287 . S
C1179 C1178 1.287 . S
C1179 C1180 1.524 . S
C1179 H1182 0.999 . S
C1180 H1150 0.950 . S
C1180 C1179 1.524 . S
C1180 C1181 1.415 . S
C1181 H1151 0.950 . S
C1181 C1176 1.363 . S
C1181 C1180 1.415 . S
H1182 C1179 0.999 . S
H1183 C1164 0.913 . S
H1184 C1202 0.951 . S
H1185 C1204 0.951 . S
H1186 C1206 0.950 . S
H1187 C1207 0.950 . S
H1188 C1209 0.950 . S
H1189 C1212 0.950 . S
H1190 C1213 0.950 . S
H1191 C1215 0.950 . S
H1192 C1216 0.950 . S
H1193 C1217 0.951 . S
H1194 C1219 0.951 . S
H1195 C1221 0.950 . S
H1196 C1222 0.950 . S
H1197 C1224 0.950 . S
H1198 C1227 0.950 . S
H1199 C1228 0.950 . S
H1200 C1230 0.950 . S
H1201 C1231 0.950 . S
C1202 H1184 0.951 . S
C1202 C1203 1.366 . S
C1202 C1204 1.388 . S
C1203 C1202 1.366 . S
C1203 C1207 1.385 . S
C1204 H1185 0.951 . S
C1204 C1202 1.388 . S
C1204 C1205 1.366 . S
C1205 C1204 1.366 . S
C1205 C1206 1.414 . S
C1205 C1208 1.499 . S
C1206 H1186 0.950 . S
C1206 C1205 1.414 . S
C1206 C1207 1.374 . S
C1207 H1187 0.950 . S
C1207 C1203 1.385 . S
C1207 C1206 1.374 . S
C1208 C1205 1.499 . S
C1208 C1209 1.373 . S
C1208 C1210 1.389 . S
C1209 H1188 0.950 . S
C1209 C1208 1.373 . S
C1209 C1225 1.377 . S
C1210 C1208 1.389 . S
C1210 C1211 1.524 . S
C1210 C1224 1.377 . S
C1211 C1210 1.524 . S
C1211 C1212 1.397 . S
C1211 C1216 1.363 . S
C1212 H1189 0.950 . S
C1212 C1211 1.397 . S
C1212 C1213 1.334 . S
C1213 H1190 0.950 . S
C1213 C1212 1.334 . S
C1213 C1214 1.287 . S
C1214 C1213 1.287 . S
C1214 C1215 1.524 . S
C1214 H1233 0.913 . S
C1215 H1191 0.950 . S
C1215 C1214 1.524 . S
C1215 C1216 1.415 . S
C1216 H1192 0.950 . S
C1216 C1211 1.363 . S
C1216 C1215 1.415 . S
C1217 H1193 0.951 . S
C1217 C1218 1.366 . S
C1217 C1219 1.388 . S
C1218 C1217 1.366 . S
C1218 C1222 1.385 . S
C1219 H1194 0.951 . S
C1219 C1217 1.388 . S
C1219 C1220 1.366 . S
C1220 C1219 1.366 . S
C1220 C1221 1.414 . S
C1220 C1223 1.499 . S
C1221 H1195 0.950 . S
C1221 C1220 1.414 . S
C1221 C1222 1.374 . S
C1222 H1196 0.950 . S
C1222 C1218 1.385 . S
C1222 C1221 1.374 . S
C1223 C1220 1.499 . S
C1223 C1224 1.373 . S
C1223 C1225 1.389 . S
C1224 H1197 0.950 . S
C1224 C1210 1.377 . S
C1224 C1223 1.373 . S
C1225 C1209 1.377 . S
C1225 C1223 1.389 . S
C1225 C1226 1.524 . S
C1226 C1225 1.524 . S
C1226 C1227 1.397 . S
C1226 C1231 1.363 . S
C1227 H1198 0.950 . S
C1227 C1226 1.397 . S
C1227 C1228 1.334 . S
C1228 H1199 0.950 . S
C1228 C1227 1.334 . S
C1228 C1229 1.287 . S
C1229 C1228 1.287 . S
C1229 C1230 1.524 . S
C1229 H1232 0.999 . S
C1230 H1200 0.950 . S
C1230 C1229 1.524 . S
C1230 C1231 1.415 . S
C1231 H1201 0.950 . S
C1231 C1226 1.363 . S
C1231 C1230 1.415 . S
H1232 C1229 0.999 . S
H1233 C1214 0.913 . S
H1234 C1252 0.951 . S
H1235 C1254 0.951 . S
H1236 C1256 0.950 . S
H1237 C1257 0.950 . S
H1238 C1259 0.950 . S
H1239 C1262 0.950 . S
H1240 C1263 0.950 . S
H1241 C1265 0.950 . S
H1242 C1266 0.950 . S
H1243 C1267 0.951 . S
H1244 C1269 0.951 . S
H1245 C1271 0.950 . S
H1246 C1272 0.950 . S
H1247 C1274 0.950 . S
H1248 C1277 0.950 . S
H1249 C1278 0.950 . S
H1250 C1280 0.950 . S
H1251 C1281 0.950 . S
C1252 H1234 0.951 . S
C1252 C1253 1.366 . S
C1252 C1254 1.388 . S
C1253 C1252 1.366 . S
C1253 C1257 1.385 . S
C1254 H1235 0.951 . S
C1254 C1252 1.388 . S
C1254 C1255 1.366 . S
C1255 C1254 1.366 . S
C1255 C1256 1.414 . S
C1255 C1258 1.499 . S
C1256 H1236 0.950 . S
C1256 C1255 1.414 . S
C1256 C1257 1.374 . S
C1257 H1237 0.950 . S
C1257 C1253 1.385 . S
C1257 C1256 1.374 . S
C1258 C1255 1.499 . S
C1258 C1259 1.373 . S
C1258 C1260 1.389 . S
C1259 H1238 0.950 . S
C1259 C1258 1.373 . S
C1259 C1275 1.377 . S
C1260 C1258 1.389 . S
C1260 C1261 1.524 . S
C1260 C1274 1.377 . S
C1261 C1260 1.524 . S
C1261 C1262 1.397 . S
C1261 C1266 1.363 . S
C1262 H1239 0.950 . S
C1262 C1261 1.397 . S
C1262 C1263 1.334 . S
C1263 H1240 0.950 . S
C1263 C1262 1.334 . S
C1263 C1264 1.287 . S
C1264 C1263 1.287 . S
C1264 C1265 1.524 . S
C1264 H1283 0.913 . S
C1265 H1241 0.950 . S
C1265 C1264 1.524 . S
C1265 C1266 1.415 . S
C1266 H1242 0.950 . S
C1266 C1261 1.363 . S
C1266 C1265 1.415 . S
C1267 H1243 0.951 . S
C1267 C1268 1.366 . S
C1267 C1269 1.388 . S
C1268 C1267 1.366 . S
C1268 C1272 1.385 . S
C1269 H1244 0.951 . S
C1269 C1267 1.388 . S
C1269 C1270 1.366 . S
C1270 C1269 1.366 . S
C1270 C1271 1.414 . S
C1270 C1273 1.499 . S
C1271 H1245 0.950 . S
C1271 C1270 1.414 . S
C1271 C1272 1.374 . S
C1272 H1246 0.950 . S
C1272 C1268 1.385 . S
C1272 C1271 1.374 . S
C1273 C1270 1.499 . S
C1273 C1274 1.373 . S
C1273 C1275 1.389 . S
C1274 H1247 0.950 . S
C1274 C1260 1.377 . S
C1274 C1273 1.373 . S
C1275 C1259 1.377 . S
C1275 C1273 1.389 . S
C1275 C1276 1.524 . S
C1276 C1275 1.524 . S
C1276 C1277 1.397 . S
C1276 C1281 1.363 . S
C1277 H1248 0.950 . S
C1277 C1276 1.397 . S
C1277 C1278 1.334 . S
C1278 H1249 0.950 . S
C1278 C1277 1.334 . S
C1278 C1279 1.287 . S
C1279 C1278 1.287 . S
C1279 C1280 1.524 . S
C1279 H1282 1.041 . S
C1280 H1250 0.950 . S
C1280 C1279 1.524 . S
C1280 C1281 1.415 . S
C1281 H1251 0.950 . S
C1281 C1276 1.363 . S
C1281 C1280 1.415 . S
H1282 C1279 1.041 . S
H1283 C1264 0.913 . S
H1284 C1302 0.951 . S
H1285 C1304 0.951 . S
H1286 C1306 0.950 . S
H1287 C1307 0.950 . S
H1288 C1309 0.950 . S
H1289 C1312 0.950 . S
H1290 C1313 0.950 . S
H1291 C1315 0.950 . S
H1292 C1316 0.950 . S
H1293 C1317 0.951 . S
H1294 C1319 0.951 . S
H1295 C1321 0.950 . S
H1296 C1322 0.950 . S
H1297 C1324 0.950 . S
H1298 C1327 0.950 . S
H1299 C1328 0.950 . S
H1300 C1330 0.950 . S
H1301 C1331 0.950 . S
C1302 H1284 0.951 . S
C1302 C1303 1.366 . S
C1302 C1304 1.388 . S
C1303 C1302 1.366 . S
C1303 C1307 1.385 . S
C1304 H1285 0.951 . S
C1304 C1302 1.388 . S
C1304 C1305 1.366 . S
C1305 C1304 1.366 . S
C1305 C1306 1.414 . S
C1305 C1308 1.499 . S
C1306 H1286 0.950 . S
C1306 C1305 1.414 . S
C1306 C1307 1.374 . S
C1307 H1287 0.950 . S
C1307 C1303 1.385 . S
C1307 C1306 1.374 . S
C1308 C1305 1.499 . S
C1308 C1309 1.373 . S
C1308 C1310 1.389 . S
C1309 H1288 0.950 . S
C1309 C1308 1.373 . S
C1309 C1325 1.377 . S
C1310 C1308 1.389 . S
C1310 C1311 1.524 . S
C1310 C1324 1.377 . S
C1311 C1310 1.524 . S
C1311 C1312 1.397 . S
C1311 C1316 1.363 . S
C1312 H1289 0.950 . S
C1312 C1311 1.397 . S
C1312 C1313 1.334 . S
C1313 H1290 0.950 . S
C1313 C1312 1.334 . S
C1313 C1314 1.287 . S
C1314 C1313 1.287 . S
C1314 C1315 1.524 . S
C1314 H1333 0.913 . S
C1315 H1291 0.950 . S
C1315 C1314 1.524 . S
C1315 C1316 1.415 . S
C1316 H1292 0.950 . S
C1316 C1311 1.363 . S
C1316 C1315 1.415 . S
C1317 H1293 0.951 . S
C1317 C1318 1.366 . S
C1317 C1319 1.388 . S
C1318 C1317 1.366 . S
C1318 C1322 1.385 . S
C1319 H1294 0.951 . S
C1319 C1317 1.388 . S
C1319 C1320 1.366 . S
C1320 C1319 1.366 . S
C1320 C1321 1.414 . S
C1320 C1323 1.499 . S
C1321 H1295 0.950 . S
C1321 C1320 1.414 . S
C1321 C1322 1.374 . S
C1322 H1296 0.950 . S
C1322 C1318 1.385 . S
C1322 C1321 1.374 . S
C1323 C1320 1.499 . S
C1323 C1324 1.373 . S
C1323 C1325 1.389 . S
C1324 H1297 0.950 . S
C1324 C1310 1.377 . S
C1324 C1323 1.373 . S
C1325 C1309 1.377 . S
C1325 C1323 1.389 . S
C1325 C1326 1.524 . S
C1326 C1325 1.524 . S
C1326 C1327 1.397 . S
C1326 C1331 1.363 . S
C1327 H1298 0.950 . S
C1327 C1326 1.397 . S
C1327 C1328 1.334 . S
C1328 H1299 0.950 . S
C1328 C1327 1.334 . S
C1328 C1329 1.287 . S
C1329 C1328 1.287 . S
C1329 C1330 1.524 . S
C1329 H1332 0.999 . S
C1330 H1300 0.950 . S
C1330 C1329 1.524 . S
C1330 C1331 1.415 . S
C1331 H1301 0.950 . S
C1331 C1326 1.363 . S
C1331 C1330 1.415 . S
H1332 C1329 0.999 . S
H1333 C1314 0.913 . S
H1334 C1352 0.951 . S
H1335 C1354 0.951 . S
H1336 C1356 0.950 . S
H1337 C1357 0.950 . S
H1338 C1359 0.950 . S
H1339 C1362 0.950 . S
H1340 C1363 0.950 . S
H1341 C1365 0.950 . S
H1342 C1366 0.950 . S
H1343 C1367 0.951 . S
H1344 C1369 0.951 . S
H1345 C1371 0.950 . S
H1346 C1372 0.950 . S
H1347 C1374 0.950 . S
H1348 C1377 0.950 . S
H1349 C1378 0.950 . S
H1350 C1380 0.950 . S
H1351 C1381 0.950 . S
C1352 H1334 0.951 . S
C1352 C1353 1.366 . S
C1352 C1354 1.388 . S
C1353 C1352 1.366 . S
C1353 C1357 1.385 . S
C1354 H1335 0.951 . S
C1354 C1352 1.388 . S
C1354 C1355 1.366 . S
C1355 C1354 1.366 . S
C1355 C1356 1.414 . S
C1355 C1358 1.499 . S
C1356 H1336 0.950 . S
C1356 C1355 1.414 . S
C1356 C1357 1.374 . S
C1357 H1337 0.950 . S
C1357 C1353 1.385 . S
C1357 C1356 1.374 . S
C1358 C1355 1.499 . S
C1358 C1359 1.373 . S
C1358 C1360 1.389 . S
C1359 H1338 0.950 . S
C1359 C1358 1.373 . S
C1359 C1375 1.377 . S
C1360 C1358 1.389 . S
C1360 C1361 1.524 . S
C1360 C1374 1.377 . S
C1361 C1360 1.524 . S
C1361 C1362 1.397 . S
C1361 C1366 1.363 . S
C1362 H1339 0.950 . S
C1362 C1361 1.397 . S
C1362 C1363 1.334 . S
C1363 H1340 0.950 . S
C1363 C1362 1.334 . S
C1363 C1364 1.287 . S
C1364 C1363 1.287 . S
C1364 C1365 1.524 . S
C1364 H1383 0.913 . S
C1365 H1341 0.950 . S
C1365 C1364 1.524 . S
C1365 C1366 1.415 . S
C1366 H1342 0.950 . S
C1366 C1361 1.363 . S
C1366 C1365 1.415 . S
C1367 H1343 0.951 . S
C1367 C1368 1.366 . S
C1367 C1369 1.388 . S
C1368 C1367 1.366 . S
C1368 C1372 1.385 . S
C1369 H1344 0.951 . S
C1369 C1367 1.388 . S
C1369 C1370 1.366 . S
C1370 C1369 1.366 . S
C1370 C1371 1.414 . S
C1370 C1373 1.499 . S
C1371 H1345 0.950 . S
C1371 C1370 1.414 . S
C1371 C1372 1.374 . S
C1372 H1346 0.950 . S
C1372 C1368 1.385 . S
C1372 C1371 1.374 . S
C1373 C1370 1.499 . S
C1373 C1374 1.373 . S
C1373 C1375 1.389 . S
C1374 H1347 0.950 . S
C1374 C1360 1.377 . S
C1374 C1373 1.373 . S
C1375 C1359 1.377 . S
C1375 C1373 1.389 . S
C1375 C1376 1.524 . S
C1376 C1375 1.524 . S
C1376 C1377 1.397 . S
C1376 C1381 1.363 . S
C1377 H1348 0.950 . S
C1377 C1376 1.397 . S
C1377 C1378 1.334 . S
C1378 H1349 0.950 . S
C1378 C1377 1.334 . S
C1378 C1379 1.287 . S
C1379 C1378 1.287 . S
C1379 C1380 1.524 . S
C1379 H1382 0.999 . S
C1380 H1350 0.950 . S
C1380 C1379 1.524 . S
C1380 C1381 1.415 . S
C1381 H1351 0.950 . S
C1381 C1376 1.363 . S
C1381 C1380 1.415 . S
H1382 C1379 0.999 . S
H1383 C1364 0.913 . S
C203 C4 1.557 . S
C218 C139 1.551 . S
C268 C103 1.550 . S
C253 C16 1.557 . S
C318 C126 1.548 . S
C303 C28 1.536 . S
C368 C114 1.547 . S
C353 C40 1.535 . S
C418 C183 1.551 . S
C403 C52 1.557 . S
C468 C147 1.551 . S
C453 C64 1.557 . S
C503 C76 1.536 . S
C518 C170 1.548 . S
C568 C158 1.547 . S
C553 C88 1.536 . S
C603 C9 1.511 . S
C618 C180 1.521 . S
C668 C150 1.522 . S
C653 C21 1.492 . S
C703 C33 1.529 . S
C718 C169 1.545 . S
C753 C45 1.530 . S
C768 C155 1.545 . S
C818 C136 1.521 . S
C803 C57 1.512 . S
C853 C69 1.493 . S
C868 C106 1.522 . S
C918 C125 1.545 . S
C903 C81 1.530 . S
C968 C111 1.545 . S
C953 C93 1.530 . S
C1018 C161 1.524 . S
C1003 C6 1.519 . S
C1068 C177 1.524 . S
C1053 C18 1.519 . S
C1103 C30 1.485 . S
C1118 C148 1.490 . S
C1168 C172 1.490 . S
C1153 C42 1.485 . S
C1218 C117 1.524 . S
C1203 C54 1.519 . S
C1253 C66 1.519 . S
C1268 C133 1.524 . S
C1303 C78 1.485 . S
C1318 C104 1.490 . S
C1353 C90 1.485 . S
C1368 C128 1.490 . S
