# Generated by pormake.
# Topology rtl, (3,6)-cn, num edge types: 1
# Building blocks:
#     Node 0, Type 0, BuildingBlock: BETDAH_clean_linker_0, # of connection points: 3
#     Node 1, Type 0, BuildingBlock: BETDAH_clean_linker_0, # of connection points: 3
#     Node 2, Type 0, BuildingBlock: BETDAH_clean_linker_0, # of connection points: 3
#     Node 3, Type 0, BuildingBlock: BETDAH_clean_linker_0, # of connection points: 3
#     Node 4, Type 1, BuildingBlock: KUMBUR_clean_sbu_1, # of connection points: 6
#     Node 5, Type 1, BuildingBlock: KUMBUR_clean_sbu_1, # of connection points: 6
#     Edge 6, Type (0, 1), BuildingBlock: CIFDUS_clean_linker_0, # of connection points: 2
#     Edge 7, Type (0, 1), BuildingBlock: CIFDUS_clean_linker_0, # of connection points: 2
#     Edge 8, Type (0, 1), BuildingBlock: CIFDUS_clean_linker_0, # of connection points: 2
#     Edge 9, Type (0, 1), BuildingBlock: CIFDUS_clean_linker_0, # of connection points: 2
#     Edge 10, Type (0, 1), BuildingBlock: CIFDUS_clean_linker_0, # of connection points: 2
#     Edge 11, Type (0, 1), BuildingBlock: CIFDUS_clean_linker_0, # of connection points: 2
#     Edge 12, Type (0, 1), BuildingBlock: CIFDUS_clean_linker_0, # of connection points: 2
#     Edge 13, Type (0, 1), BuildingBlock: CIFDUS_clean_linker_0, # of connection points: 2
#     Edge 14, Type (0, 1), BuildingBlock: CIFDUS_clean_linker_0, # of connection points: 2
#     Edge 15, Type (0, 1), BuildingBlock: CIFDUS_clean_linker_0, # of connection points: 2
#     Edge 16, Type (0, 1), BuildingBlock: CIFDUS_clean_linker_0, # of connection points: 2
#     Edge 17, Type (0, 1), BuildingBlock: CIFDUS_clean_linker_0, # of connection points: 2
# Relax obj value: 0.049
# Max RMSD: 0.226
# Mean RMSD: 0.161
data_MOF--net-rtl--node1-KUMBUR_clean_sbu_1--node2-BETDAH_clean_linker_0--edge1-CIFDUS_clean_linker_0
_symmetry_space_group_name_H-M    P1
_symmetry_Int_Tables_number       1
_symmetry_cell_setting            triclinic
loop_
_symmetry_equiv_pos_as_xyz
'x, y, z'
_cell_length_a     30.956715
_cell_length_b     31.197815
_cell_length_c     23.96897
_cell_angle_alpha  76.924387
_cell_angle_beta   100.51708
_cell_angle_gamma 91.405746
loop_
_atom_site_label
_atom_site_type_symbol
_atom_site_fract_x
_atom_site_fract_y
_atom_site_fract_z
_atom_type_partial_charge
H0 H 0.14674 0.89124 0.97919 0.0
H1 H 0.18702 0.78472 0.12807 0.0
H2 H 0.21738 0.77951 0.96197 0.0
C3 C 0.16346 0.85993 0.99905 0.0
C4 C 0.18125 0.83751 0.96368 0.0
C5 C 0.16445 0.84127 0.05838 0.0
C6 C 0.18648 0.80058 0.08281 0.0
C7 C 0.20731 0.7792 0.04907 0.0
C8 C 0.20398 0.79731 0.98904 0.0
N9 N 0.22799 0.73773 0.07613 0.0
C10 C 0.26585 0.72242 0.06283 0.0
H11 H 0.66493 0.62668 0.66626 0.0
H12 H 0.73442 0.74076 0.59212 0.0
H13 H 0.70779 0.72322 0.76574 0.0
C14 C 0.68258 0.65657 0.67047 0.0
C15 C 0.68539 0.67113 0.72224 0.0
C16 C 0.69965 0.68147 0.62288 0.0
C17 C 0.72138 0.72101 0.62843 0.0
C18 C 0.72457 0.73584 0.68035 0.0
C19 C 0.70578 0.71125 0.72628 0.0
N20 N 0.74325 0.77691 0.68654 0.0
C21 C 0.78052 0.79457 0.66568 0.0
H22 H 0.92512 0.16052 0.13172 0.0
H23 H 0.80742 0.20432 0.17576 0.0
H24 H 0.82388 0.23122 0.99704 0.0
C25 C 0.89388 0.17824 0.11849 0.0
C26 C 0.87809 0.1962 0.05914 0.0
C27 C 0.86836 0.18058 0.16062 0.0
C28 C 0.82747 0.20294 0.14356 0.0
C29 C 0.81173 0.22167 0.08439 0.0
C30 C 0.83667 0.21733 0.04264 0.0
N31 N 0.76952 0.24202 0.06462 0.0
C32 C 0.75068 0.26949 0.0923 0.0
H33 H 0.38273 0.41644 0.43812 0.0
H34 H 0.30119 0.31544 0.51784 0.0
H35 H 0.32847 0.31779 0.34738 0.0
C36 C 0.36346 0.38706 0.43687 0.0
C37 C 0.35856 0.36902 0.38754 0.0
C38 C 0.34279 0.36792 0.48406 0.0
C39 C 0.31741 0.33002 0.48182 0.0
C40 C 0.31211 0.31192 0.43228 0.0
C41 C 0.33278 0.33161 0.38564 0.0
N42 N 0.28612 0.27434 0.4269 0.0
C43 C 0.25915 0.25325 0.46497 0.0
Tb44 Tb 0.05183 0.97603 0.52212 0.0
C45 C 0.92411 0.11356 0.52842 0.0
N46 N 0.96674 0.1155 0.55351 0.0
C47 C 0.96882 0.19117 0.50357 0.0
C48 C 0.90245 0.14972 0.48749 0.0
C49 C 0.98871 0.15425 0.54414 0.0
C50 C 0.92575 0.18862 0.47418 0.0
C51 C 0.85619 0.07386 0.52723 0.0
C52 C 0.90168 0.07616 0.54746 0.0
C53 C 0.83479 0.10835 0.48315 0.0
C54 C 0.85796 0.14629 0.4632 0.0
Tb55 Tb 0.99864 0.05186 0.61236 0.0
N56 N 0.92358 0.04432 0.59085 0.0
C57 C 0.83328 0.03837 0.55444 0.0
C58 C 0.90035 0.01287 0.62221 0.0
C59 C 0.85527 0.00844 0.60331 0.0
H60 H 0.02206 0.15603 0.56646 0.0
H61 H 0.83748 0.98221 0.62675 0.0
H62 H 0.97006 0.92612 0.45281 0.0
H63 H 0.20523 0.90029 0.64786 0.0
H64 H 0.91667 0.99047 0.66128 0.0
H65 H 0.79829 0.03525 0.54029 0.0
H66 H 0.15813 0.95935 0.57848 0.0
H67 H 0.98675 0.22144 0.49483 0.0
H68 H 0.79999 0.1069 0.4662 0.0
H69 H 0.84077 0.17341 0.43091 0.0
H70 H 0.9354 0.85301 0.46856 0.0
H71 H 0.91037 0.21723 0.44287 0.0
H72 H 0.17301 0.82855 0.68597 0.0
N73 N 0.02035 0.90822 0.52767 0.0
C74 C 0.04085 0.8748 0.56978 0.0
C75 C 0.96488 0.85878 0.49777 0.0
C76 C 0.02295 0.83239 0.57995 0.0
C77 C 0.98456 0.90007 0.48895 0.0
C78 C 0.98352 0.82507 0.5445 0.0
N79 N 0.09965 0.92221 0.58078 0.0
C80 C 0.14396 0.92808 0.59518 0.0
C81 C 0.10797 0.84709 0.63585 0.0
C82 C 0.08247 0.88202 0.59728 0.0
C83 C 0.15228 0.85441 0.656 0.0
C84 C 0.17061 0.89481 0.63443 0.0
H85 H 0.96853 0.793 0.5509 0.0
H86 H 0.03291 0.76558 0.63181 0.0
H87 H 0.10765 0.77852 0.68098 0.0
O88 O 0.06571 0.01375 0.44267 0.0
O89 O 0.08624 0.98289 0.60818 0.0
O90 O 0.03054 0.98869 0.65742 0.0
O91 O 0.07961 0.94468 0.46788 0.0
O92 O 0.0925 0.03198 0.54002 0.0
O93 O 0.06174 0.07814 0.58899 0.0
O94 O 0.96887 0.07221 0.67468 0.0
O95 O 1.00679 0.07592 0.52124 0.0
O96 O 0.99229 0.0158 0.48189 0.0
O97 O 0.03883 0.07234 0.68213 0.0
O98 O 0.9819 0.9815 0.62172 0.0
O99 O 0.98218 0.9727 0.52988 0.0
C100 C 0.07114 0.97843 0.65673 0.0
C101 C 0.0558 0.97336 0.36896 0.0
C102 C 0.0592 0.94308 0.28413 0.0
C103 C 0.01331 0.94967 0.26704 0.0
C104 C 1.01033 0.9801 0.35065 0.0
C105 C 0.98933 0.96855 0.29967 0.0
C106 C 0.08013 0.95576 0.33518 0.0
C107 C 0.09278 0.06722 0.56264 0.0
C108 C 0.07752 0.97958 0.42631 0.0
C109 C 0.0464 0.79826 0.62249 0.0
C110 C 0.08898 0.80561 0.65043 0.0
C111 C 0.99033 0.05843 0.47728 0.0
C112 C 1.00681 0.12339 0.72383 0.0
C113 C 0.98419 0.16483 0.78939 0.0
C114 C 1.01102 0.19954 0.76848 0.0
C115 C 0.03316 0.15856 0.70325 0.0
C116 C 0.98218 0.12688 0.76653 0.0
C117 C 0.03509 0.19644 0.72547 0.0
C118 C 0.96789 0.96144 0.57921 0.0
C119 C 1.00581 0.08186 0.70397 0.0
H120 H 0.99548 0.93937 0.22922 0.0
H121 H 0.99094 0.99322 0.37644 0.0
H122 H 0.95412 0.97324 0.28614 0.0
H123 H 0.11531 0.95141 0.34961 0.0
H124 H 0.01298 0.22927 0.78493 0.0
H125 H 0.05257 0.15664 0.67058 0.0
H126 H 0.9622 0.09955 0.78296 0.0
H127 H 0.05551 0.22343 0.70952 0.0
Tb128 Tb 0.49112 0.48372 1.00428 0.0
C129 C 0.64911 0.58946 0.06794 0.0
N130 N 0.63608 0.55174 0.10099 0.0
C131 C 0.70924 0.52159 0.11746 0.0
C132 C 0.69199 0.59375 0.05545 0.0
C133 C 0.66655 0.51939 0.12941 0.0
C134 C 0.72172 0.5585 0.07914 0.0
C135 C 0.63338 0.66613 0.02045 0.0
C136 C 0.62043 0.62514 0.0507 0.0
C137 C 0.67513 0.66994 1.00486 0.0
C138 C 0.70436 0.63374 0.02218 0.0
Tb139 Tb 0.56405 0.55122 0.11342 0.0
N140 N 0.58 0.61983 0.06523 0.0
C141 C 0.60419 0.70208 1.00774 0.0
C142 C 0.55228 0.65518 0.05591 0.0
C143 C 0.56371 0.69671 0.02636 0.0
H144 H 0.65839 0.49178 0.16178 0.0
H145 H 0.5413 0.72448 0.01781 0.0
H146 H 0.38857 0.50752 1.00696 0.0
H147 H 0.57379 0.32554 0.04335 0.0
H148 H 0.52103 0.651 0.07033 0.0
H149 H 0.61289 0.7342 0.98461 0.0
H150 H 0.56095 0.40445 0.99906 0.0
H151 H 0.73269 0.49512 0.13859 0.0
H152 H 0.68551 0.70096 0.98072 0.0
H153 H 0.73697 0.63749 0.01146 0.0
H154 H 0.32547 0.46955 0.04569 0.0
H155 H 0.75498 0.56039 0.07058 0.0
H156 H 0.52109 0.28405 0.10051 0.0
N157 N 0.43101 0.45145 0.03763 0.0
C158 C 0.43502 0.40798 0.06349 0.0
C159 C 0.35619 0.4519 0.05126 0.0
C160 C 0.40031 0.38505 0.08695 0.0
C161 C 0.39181 0.47329 0.02918 0.0
C162 C 0.36068 0.40776 0.08115 0.0
N163 N 0.50464 0.40937 0.03717 0.0
C164 C 0.53886 0.38744 0.0264 0.0
C165 C 0.4785 0.34074 0.08823 0.0
C166 C 0.47356 0.38635 0.06423 0.0
C167 C 0.51596 0.31906 0.0826 0.0
C168 C 0.54579 0.34237 0.05041 0.0
H169 H 0.33315 0.39133 0.09854 0.0
H170 H 0.37991 0.32198 0.13295 0.0
H171 H 0.44844 0.28306 0.13396 0.0
O172 O 0.47399 0.44966 0.93676 0.0
O173 O 0.47366 0.48437 0.08942 0.0
O174 O 0.5396 0.48641 0.15071 0.0
O175 O 0.45893 0.51841 0.92209 0.0
O176 O 0.56274 0.47418 0.02633 0.0
O177 O 0.58381 0.48206 0.1208 0.0
O178 O 0.53845 0.57816 0.17365 0.0
O179 O 0.54641 0.57819 0.0186 0.0
O180 O 0.5492 0.51862 0.97897 0.0
O181 O 0.60719 0.56395 0.18678 0.0
O182 O 0.49334 0.56824 0.09048 0.0
O183 O 0.46414 0.5488 1.00233 0.0
C184 C 0.49858 0.47378 0.14135 0.0
C185 C 0.41234 0.47731 0.86395 0.0
C186 C 0.3715 0.45118 0.78089 0.0
C187 C 0.33293 0.47017 0.78854 0.0
C188 C 0.37336 0.49601 0.87076 0.0
C189 C 0.33388 0.49211 0.83349 0.0
C190 C 0.41109 0.45443 0.8193 0.0
C191 C 0.58809 0.46333 0.07792 0.0
C192 C 0.45508 0.48389 0.89981 0.0
C193 C 0.40596 0.34014 0.11395 0.0
C194 C 0.44504 0.31801 0.11465 0.0
C195 C 0.5565 0.56036 0.97796 0.0
C196 C 0.57619 0.55817 0.27096 0.0
C197 C 0.60447 0.55731 0.37349 0.0
C198 C 0.57649 0.52214 0.38935 0.0
C199 C 0.54832 0.52349 0.28805 0.0
C200 C 0.60406 0.57528 0.31383 0.0
C201 C 0.54863 0.5055 0.34689 0.0
C202 C 0.46328 0.57174 0.04243 0.0
C203 C 0.57595 0.57706 0.20867 0.0
H204 H 0.30203 0.46797 0.75972 0.0
H205 H 0.37346 0.51435 0.90402 0.0
H206 H 0.30401 0.50672 0.83891 0.0
H207 H 0.44118 0.44054 0.81317 0.0
H208 H 0.57548 0.50803 0.43473 0.0
H209 H 0.526 0.51073 0.25578 0.0
H210 H 0.6255 0.60223 0.30077 0.0
H211 H 0.5269 0.4788 0.35965 0.0
H212 H 0.26349 0.16588 0.49947 0.0
H213 H 0.18533 0.27916 0.49511 0.0
H214 H 0.12767 0.23104 0.53156 0.0
H215 H 0.09678 0.15639 0.5552 0.0
H216 H 0.17492 0.04389 0.55453 0.0
H217 H 0.2353 0.09171 0.53029 0.0
C218 C 0.23418 0.17987 0.50779 0.0
C219 C 0.22853 0.2257 0.49532 0.0
C220 C 0.20099 0.15204 0.52733 0.0
C221 C 0.19034 0.24379 0.50515 0.0
C222 C 0.15735 0.21629 0.52561 0.0
C223 C 0.12727 0.14231 0.5508 0.0
C224 C 0.131 0.09655 0.55622 0.0
C225 C 0.16185 0.17028 0.53556 0.0
C226 C 0.17081 0.07897 0.54995 0.0
C227 C 0.20548 0.10631 0.53609 0.0
H228 H 0.28273 0.67866 0.98358 0.0
H229 H 0.34016 0.71956 0.14044 0.0
H230 H 0.40758 0.67776 0.14724 0.0
H231 H 0.44821 0.62602 0.11202 0.0
H232 H 0.39152 0.58571 0.9538 0.0
H233 H 0.32612 0.63065 0.94413 0.0
C234 C 0.3104 0.67882 0.01859 0.0
C235 C 0.30697 0.7021 0.06135 0.0
C236 C 0.34897 0.65443 0.02236 0.0
C237 C 0.34252 0.70199 0.1069 0.0
C238 C 0.38091 0.67795 0.11094 0.0
C239 C 0.42177 0.62716 0.07515 0.0
C240 C 0.42481 0.60174 0.03431 0.0
C241 C 0.38424 0.65344 0.06946 0.0
C242 C 0.39013 0.60429 0.98653 0.0
C243 C 0.35258 0.63014 0.98078 0.0
H244 H 0.79562 0.84785 0.56529 0.0
H245 H 0.85388 0.79416 0.74432 0.0
H246 H 0.9182 0.84049 0.73352 0.0
H247 H 0.95591 0.8997 0.67462 0.0
H248 H 0.8984 0.95293 0.4951 0.0
H249 H 0.83606 0.90363 0.50417 0.0
C250 C 0.82286 0.84588 0.60142 0.0
C251 C 0.82049 0.81761 0.65537 0.0
C252 C 0.85964 0.87289 0.59489 0.0
C253 C 0.85546 0.81551 0.70226 0.0
C254 C 0.89205 0.84217 0.6962 0.0
C255 C 0.92975 0.90024 0.63755 0.0
C256 C 0.93156 0.92988 0.58439 0.0
C257 C 0.89418 0.87155 0.64303 0.0
C258 C 0.89774 0.93016 0.53641 0.0
C259 C 0.86205 0.90208 0.54163 0.0
H260 H 0.74054 0.35302 0.03539 0.0
H261 H 0.70389 0.25946 0.17997 0.0
H262 H 0.65312 0.31409 0.19374 0.0
H263 H 0.61381 0.3866 0.15744 0.0
H264 H 0.64782 0.47672 1.00771 0.0
H265 H 0.70537 0.42609 1.00348 0.0
C266 C 0.72206 0.34505 0.07066 0.0
C267 C 0.72596 0.30279 0.10702 0.0
C268 C 0.69233 0.3761 0.07707 0.0
C269 C 0.70153 0.29219 0.15197 0.0
C270 C 0.67241 0.32331 0.15956 0.0
C271 C 0.63466 0.39533 0.12495 0.0
C272 C 0.62693 0.43524 0.08303 0.0
C273 C 0.6668 0.36515 0.12152 0.0
C274 C 0.6533 0.44605 0.04021 0.0
C275 C 0.6861 0.4171 0.03772 0.0
H276 H 0.18552 0.84159 0.17493 0.0
H277 H 0.08742 0.88979 0.0211 0.0
H278 H 0.04929 0.92798 0.07572 0.0
H279 H 0.04295 0.94771 0.16657 0.0
H280 H 0.13344 0.88967 0.32426 0.0
H281 H 0.17512 0.85588 0.26838 0.0
C282 C 0.1555 0.85987 0.15329 0.0
C283 C 0.14032 0.86326 0.09327 0.0
C284 C 0.13223 0.8804 0.18562 0.0
C285 C 0.10131 0.88764 0.06649 0.0
C286 C 0.07893 0.90922 0.09793 0.0
C287 C 0.07124 0.92707 0.18935 0.0
C288 C 0.08479 0.92191 0.24993 0.0
C289 C 0.09406 0.90584 0.15748 0.0
C290 C 0.12246 0.89563 0.27761 0.0
C291 C 0.14622 0.87568 0.24573 0.0
H292 H 0.63161 0.69981 0.78517 0.0
H293 H 0.69501 0.58295 0.76852 0.0
H294 H 0.66077 0.53838 0.84592 0.0
H295 H 0.61202 0.53238 0.91757 0.0
H296 H 0.54619 0.64851 0.9317 0.0
H297 H 0.58237 0.69367 0.8567 0.0
C298 C 0.63824 0.66466 0.79895 0.0
C299 C 0.66585 0.64473 0.77116 0.0
C300 C 0.61798 0.63912 0.84304 0.0
C301 C 0.67363 0.59902 0.78892 0.0
C302 C 0.65412 0.57353 0.83322 0.0
C303 C 0.60553 0.56755 0.90407 0.0
C304 C 0.57711 0.58725 0.9309 0.0
C305 C 0.62598 0.59315 0.8603 0.0
C306 C 0.56877 0.63279 0.91268 0.0
C307 C 0.58925 0.65856 0.86954 0.0
H308 H 0.9352 0.19976 0.24117 0.0
H309 H 0.83463 0.10495 0.21426 0.0
H310 H 0.86362 0.05805 0.31007 0.0
H311 H 0.91979 0.04263 0.39979 0.0
H312 H 0.01775 0.13952 0.42936 0.0
H313 H 0.98763 0.18721 0.33477 0.0
C314 C 0.91943 0.16911 0.25692 0.0
C315 C 0.88291 0.15565 0.22124 0.0
C316 C 0.93602 0.14264 0.31225 0.0
C317 C 0.8626 0.11591 0.24153 0.0
C318 C 0.87931 0.08906 0.29603 0.0
C319 C 0.93446 0.07419 0.38529 0.0
C320 C 0.97119 0.08743 0.42086 0.0
C321 C 0.91639 0.10178 0.33142 0.0
C322 C 0.9895 0.12868 0.40243 0.0
C323 C 0.97233 0.15591 0.34839 0.0
H324 H 0.37408 0.33243 0.59888 0.0
H325 H 0.31819 0.45135 0.48049 0.0
H326 H 0.32164 0.48748 0.56175 0.0
H327 H 0.34026 0.48523 0.66661 0.0
H328 H 0.4005 0.36831 0.78506 0.0
H329 H 0.39606 0.33142 0.70403 0.0
C330 C 0.36267 0.36622 0.59118 0.0
C331 C 0.34571 0.38923 0.534 0.0
C332 C 0.36567 0.38709 0.63808 0.0
C333 C 0.33144 0.43313 0.5242 0.0
C334 C 0.33335 0.45373 0.57061 0.0
C335 C 0.35233 0.45164 0.67455 0.0
C336 C 0.37037 0.42933 0.73164 0.0
C337 C 0.35034 0.43105 0.62771 0.0
C338 C 0.38656 0.38609 0.74139 0.0
C339 C 0.38387 0.365 0.69514 0.0
H340 H 0.70872 0.59923 0.60568 0.0
H341 H 0.66908 0.73172 0.51381 0.0
H342 H 0.6402 0.70563 0.4255 0.0
H343 H 0.61741 0.64359 0.37861 0.0
H344 H 0.65525 0.51107 0.47285 0.0
H345 H 0.69316 0.53861 0.5559 0.0
C346 C 0.69427 0.62249 0.56607 0.0
C347 C 0.69066 0.66728 0.56657 0.0
C348 C 0.6767 0.60709 0.51606 0.0
C349 C 0.6725 0.6971 0.51462 0.0
C350 C 0.65554 0.68211 0.46424 0.0
C351 C 0.63475 0.62088 0.41686 0.0
C352 C 0.6329 0.57525 0.4198 0.0
C353 C 0.65616 0.63696 0.465 0.0
C354 C 0.65543 0.54624 0.46985 0.0
C355 C 0.67723 0.56197 0.51734 0.0
H356 H 0.84979 0.17004 0.95781 0.0
H357 H 0.96523 0.21272 0.06002 0.0
H358 H 1.00818 0.20717 0.98566 0.0
H359 H 0.0128 0.19065 0.89099 0.0
H360 H 0.89774 0.14607 0.79018 0.0
H361 H 0.85479 0.15192 0.86436 0.0
C362 C 0.8843 0.17836 0.9636 0.0
C363 C 0.90423 0.19203 0.01422 0.0
C364 C 0.90886 0.17472 0.92089 0.0
C365 C 0.94918 0.20192 0.0216 0.0
C366 C 0.9737 0.19892 0.97899 0.0
C367 C 0.97826 0.18245 0.8852 0.0
C368 C 0.95843 0.16812 0.83503 0.0
C369 C 0.95387 0.18547 0.92836 0.0
C370 C 0.91382 0.15693 0.82855 0.0
C371 C 0.88922 0.16042 0.87085 0.0
H372 H 0.44517 0.37256 0.37928 0.0
H373 H 0.31593 0.41246 0.28157 0.0
H374 H 0.34759 0.44832 0.19653 0.0
H375 H 0.41228 0.47026 0.15135 0.0
H376 H 0.54127 0.42528 0.24571 0.0
H377 H 0.50982 0.39011 0.33095 0.0
C378 C 0.42414 0.3892 0.33927 0.0
C379 C 0.3784 0.39037 0.33656 0.0
C380 C 0.44256 0.40889 0.29017 0.0
C381 C 0.35124 0.41144 0.28447 0.0
C382 C 0.36933 0.43188 0.23597 0.0
C383 C 0.43341 0.45186 0.18995 0.0
C384 C 0.47904 0.4503 0.19184 0.0
C385 C 0.41495 0.43092 0.23835 0.0
C386 C 0.50603 0.42719 0.24304 0.0
C387 C 0.48806 0.40703 0.29184 0.0
H388 H 0.19482 0.91885 0.90017 0.0
H389 H 0.13844 0.7934 0.88516 0.0
H390 H 0.09949 0.82602 0.7867 0.0
H391 H 0.07338 0.8927 0.71112 0.0
H392 H 0.13201 0.01744 0.72383 0.0
H393 H 0.17731 0.98321 0.81799 0.0
C394 C 0.17499 0.8985 0.87454 0.0
C395 C 0.16935 0.85389 0.89972 0.0
C396 C 0.15209 0.9177 0.81856 0.0
C397 C 0.1436 0.8277 0.86636 0.0
C398 C 0.12079 0.8465 0.81049 0.0
C399 C 0.09682 0.91197 0.73414 0.0
C400 C 0.09958 0.95729 0.71144 0.0
C401 C 0.12347 0.89178 0.78716 0.0
C402 C 0.12946 0.98245 0.74129 0.0
C403 C 0.15537 0.96287 0.79477 0.0
loop_
_geom_bond_atom_site_label_1
_geom_bond_atom_site_label_2
_geom_bond_distance
_geom_bond_site_symmetry_2
_ccdc_geom_bond_type
H0 C3 0.929 . S
H1 C6 0.929 . S
H2 C8 0.930 . S
C3 H0 0.929 . S
C3 C4 1.398 1_554 S
C3 C5 1.396 . S
C4 C3 1.398 1_556 S
C4 C8 1.407 . S
C5 C3 1.396 . S
C5 C6 1.394 . S
C6 H1 0.929 . S
C6 C5 1.394 . S
C6 C7 1.382 . S
C7 C6 1.382 . S
C7 C8 1.392 1_554 S
C7 N9 1.420 . S
C8 H2 0.930 . S
C8 C4 1.407 . S
C8 C7 1.392 1_556 S
N9 C7 1.420 . S
N9 C10 1.244 . S
C10 N9 1.244 . S
H11 C14 0.929 . S
H12 C17 0.929 . S
H13 C19 0.930 . S
C14 H11 0.929 . S
C14 C15 1.398 . S
C14 C16 1.396 . S
C15 C14 1.398 . S
C15 C19 1.407 . S
C16 C14 1.396 . S
C16 C17 1.394 . S
C17 H12 0.929 . S
C17 C16 1.394 . S
C17 C18 1.382 . S
C18 C17 1.382 . S
C18 C19 1.392 . S
C18 N20 1.420 . S
C19 H13 0.930 . S
C19 C15 1.407 . S
C19 C18 1.392 . S
N20 C18 1.420 . S
N20 C21 1.244 . S
C21 N20 1.244 . S
H22 C25 0.929 . S
H23 C28 0.929 . S
H24 C30 0.930 1_556 S
C25 H22 0.929 . S
C25 C26 1.398 . S
C25 C27 1.396 . S
C26 C25 1.398 . S
C26 C30 1.407 . S
C27 C25 1.396 . S
C27 C28 1.394 . S
C28 H23 0.929 . S
C28 C27 1.394 . S
C28 C29 1.382 . S
C29 C28 1.382 . S
C29 C30 1.392 . S
C29 N31 1.420 . S
C30 H24 0.930 1_554 S
C30 C26 1.407 . S
C30 C29 1.392 . S
N31 C29 1.420 . S
N31 C32 1.244 . S
C32 N31 1.244 . S
H33 C36 0.929 . S
H34 C39 0.929 . S
H35 C41 0.930 . S
C36 H33 0.929 . S
C36 C37 1.398 . S
C36 C38 1.396 . S
C37 C36 1.398 . S
C37 C41 1.407 . S
C38 C36 1.396 . S
C38 C39 1.394 . S
C39 H34 0.929 . S
C39 C38 1.394 . S
C39 C40 1.382 . S
C40 C39 1.382 . S
C40 C41 1.392 . S
C40 N42 1.420 . S
C41 H35 0.930 . S
C41 C37 1.407 . S
C41 C40 1.392 . S
N42 C40 1.420 . S
N42 C43 1.244 . S
C43 N42 1.244 . S
Tb44 N73 2.617 . S
Tb44 N79 2.572 . S
Tb44 O88 2.465 . S
Tb44 O89 2.387 . S
Tb44 O91 2.428 . S
Tb44 O92 2.308 1_565 S
Tb44 O96 2.349 1_465 S
Tb44 O99 2.393 1_455 S
Tb44 C108 2.802 . S
C45 N46 1.379 . S
C45 C48 1.416 . S
C45 C52 1.424 . S
N46 C45 1.379 . S
N46 C49 1.334 1_655 S
N46 Tb55 2.617 . S
C47 C49 1.390 . S
C47 C50 1.339 1_455 S
C47 H67 0.930 . S
C48 C45 1.416 . S
C48 C50 1.416 . S
C48 C54 1.448 . S
C49 N46 1.334 1_455 S
C49 C47 1.390 . S
C49 H60 0.930 . S
C50 C47 1.339 1_655 S
C50 C48 1.416 . S
C50 H71 0.930 . S
C51 C52 1.413 . S
C51 C53 1.427 . S
C51 C57 1.416 . S
C52 C45 1.424 . S
C52 C51 1.413 . S
C52 N56 1.361 . S
C53 C51 1.427 . S
C53 C54 1.328 . S
C53 H68 0.929 . S
C54 C48 1.448 . S
C54 C53 1.328 . S
C54 H69 0.930 . S
Tb55 N46 2.617 . S
Tb55 N56 2.572 . S
Tb55 O90 2.349 1_655 S
Tb55 O93 2.393 1_655 S
Tb55 O94 2.465 . S
Tb55 O95 2.387 . S
Tb55 O97 2.428 . S
Tb55 O98 2.308 1_545 S
Tb55 C119 2.802 . S
N56 C52 1.361 . S
N56 Tb55 2.572 . S
N56 C58 1.340 . S
C57 C51 1.416 . S
C57 C59 1.332 . S
C57 H65 0.931 . S
C58 N56 1.340 . S
C58 C59 1.407 . S
C58 H64 0.930 . S
C59 C57 1.332 . S
C59 C58 1.407 . S
C59 H61 0.929 . S
H60 C49 0.930 . S
H61 C59 0.929 . S
H62 C77 0.930 1_655 S
H63 C84 0.929 . S
H64 C58 0.930 . S
H65 C57 0.931 . S
H66 C80 0.930 . S
H67 C47 0.930 . S
H68 C53 0.929 . S
H69 C54 0.930 . S
H70 C75 0.930 1_655 S
H71 C50 0.930 . S
H72 C83 0.931 . S
N73 Tb44 2.617 . S
N73 C74 1.379 . S
N73 C77 1.334 . S
C74 N73 1.379 . S
C74 C76 1.416 . S
C74 C82 1.424 . S
C75 H70 0.930 1_455 S
C75 C77 1.390 . S
C75 C78 1.339 . S
C76 C74 1.416 . S
C76 C78 1.416 . S
C76 C109 1.448 . S
C77 H62 0.930 1_455 S
C77 N73 1.334 . S
C77 C75 1.390 . S
C78 C75 1.339 . S
C78 C76 1.416 . S
C78 H85 0.930 . S
N79 Tb44 2.572 . S
N79 C80 1.340 . S
N79 C82 1.361 . S
C80 H66 0.930 . S
C80 N79 1.340 . S
C80 C84 1.407 . S
C81 C82 1.413 . S
C81 C83 1.416 . S
C81 C110 1.427 . S
C82 C74 1.424 . S
C82 N79 1.361 . S
C82 C81 1.413 . S
C83 H72 0.931 . S
C83 C81 1.416 . S
C83 C84 1.332 . S
C84 H63 0.929 . S
C84 C80 1.407 . S
C84 C83 1.332 . S
H85 C78 0.930 . S
H86 C109 0.930 . S
H87 C110 0.929 . S
O88 Tb44 2.465 . S
O88 C108 1.264 . S
O89 Tb44 2.387 . S
O89 C100 1.264 . S
O90 Tb55 2.349 1_455 S
O90 C100 1.243 1_545 S
O91 Tb44 2.428 . S
O91 C108 1.256 . S
O92 Tb44 2.308 1_545 S
O92 C107 1.266 . S
O93 Tb55 2.393 1_455 S
O93 C107 1.248 . S
O94 Tb55 2.465 . S
O94 C119 1.264 . S
O95 Tb55 2.387 . S
O95 C111 1.264 . S
O96 Tb44 2.349 1_645 S
O96 C111 1.243 . S
O97 Tb55 2.428 . S
O97 C119 1.256 . S
O98 Tb55 2.308 1_565 S
O98 C118 1.266 . S
O99 Tb44 2.393 1_655 S
O99 C118 1.248 . S
C100 O89 1.264 . S
C100 O90 1.243 1_565 S
C101 C104 1.399 . S
C101 C106 1.383 . S
C101 C108 1.496 . S
C102 C103 1.399 . S
C102 C106 1.389 . S
C103 C102 1.399 . S
C103 C105 1.380 . S
C103 H120 0.929 . S
C104 C101 1.399 . S
C104 C105 1.392 . S
C104 H121 0.929 . S
C105 C103 1.380 . S
C105 C104 1.392 . S
C105 H122 0.929 . S
C106 C101 1.383 . S
C106 C102 1.389 . S
C106 H123 0.931 . S
C107 O92 1.266 . S
C107 O93 1.248 . S
C108 Tb44 2.802 . S
C108 O88 1.264 . S
C108 O91 1.256 . S
C108 C101 1.496 . S
C109 C76 1.448 . S
C109 H86 0.930 . S
C109 C110 1.328 . S
C110 C81 1.427 . S
C110 H87 0.929 . S
C110 C109 1.328 . S
C111 O95 1.264 . S
C111 O96 1.243 . S
C112 C115 1.399 . S
C112 C116 1.383 . S
C112 C119 1.496 . S
C113 C114 1.399 . S
C113 C116 1.389 . S
C114 C113 1.399 . S
C114 C117 1.380 . S
C114 H124 0.929 . S
C115 C112 1.399 . S
C115 C117 1.392 . S
C115 H125 0.929 . S
C116 C112 1.383 . S
C116 C113 1.389 . S
C116 H126 0.931 . S
C117 C114 1.380 . S
C117 C115 1.392 . S
C117 H127 0.929 . S
C118 O98 1.266 . S
C118 O99 1.248 . S
C119 Tb55 2.802 . S
C119 O94 1.264 . S
C119 O97 1.256 . S
C119 C112 1.496 . S
H120 C103 0.929 . S
H121 C104 0.929 . S
H122 C105 0.929 . S
H123 C106 0.931 . S
H124 C114 0.929 . S
H125 C115 0.929 . S
H126 C116 0.931 . S
H127 C117 0.929 . S
Tb128 N157 2.617 . S
Tb128 N163 2.572 . S
Tb128 O172 2.465 1_554 S
Tb128 O173 2.387 . S
Tb128 O175 2.428 1_554 S
Tb128 O176 2.308 . S
Tb128 O180 2.349 1_554 S
Tb128 O183 2.393 . S
Tb128 C192 2.802 1_554 S
C129 N130 1.379 . S
C129 C132 1.416 . S
C129 C136 1.424 . S
N130 C129 1.379 . S
N130 C133 1.334 . S
N130 Tb139 2.617 . S
C131 C133 1.390 . S
C131 C134 1.339 . S
C131 H151 0.930 . S
C132 C129 1.416 . S
C132 C134 1.416 . S
C132 C138 1.448 . S
C133 N130 1.334 . S
C133 C131 1.390 . S
C133 H144 0.930 . S
C134 C131 1.339 . S
C134 C132 1.416 . S
C134 H155 0.930 . S
C135 C136 1.413 . S
C135 C137 1.427 . S
C135 C141 1.416 . S
C136 C129 1.424 . S
C136 C135 1.413 . S
C136 N140 1.361 . S
C137 C135 1.427 . S
C137 C138 1.328 . S
C137 H152 0.929 . S
C138 C132 1.448 . S
C138 C137 1.328 . S
C138 H153 0.930 . S
Tb139 N130 2.617 . S
Tb139 N140 2.572 . S
Tb139 O174 2.349 . S
Tb139 O177 2.393 . S
Tb139 O178 2.465 . S
Tb139 O179 2.387 . S
Tb139 O181 2.428 . S
Tb139 O182 2.308 . S
Tb139 C203 2.802 . S
N140 C136 1.361 . S
N140 Tb139 2.572 . S
N140 C142 1.340 . S
C141 C135 1.416 . S
C141 C143 1.332 . S
C141 H149 0.931 . S
C142 N140 1.340 . S
C142 C143 1.407 . S
C142 H148 0.930 . S
C143 C141 1.332 . S
C143 C142 1.407 . S
C143 H145 0.929 . S
H144 C133 0.930 . S
H145 C143 0.929 . S
H146 C161 0.930 . S
H147 C168 0.929 . S
H148 C142 0.930 . S
H149 C141 0.931 . S
H150 C164 0.930 . S
H151 C131 0.930 . S
H152 C137 0.929 . S
H153 C138 0.930 . S
H154 C159 0.930 . S
H155 C134 0.930 . S
H156 C167 0.931 . S
N157 Tb128 2.617 . S
N157 C158 1.379 . S
N157 C161 1.334 1_554 S
C158 N157 1.379 . S
C158 C160 1.416 . S
C158 C166 1.424 . S
C159 H154 0.930 . S
C159 C161 1.390 . S
C159 C162 1.339 1_556 S
C160 C158 1.416 . S
C160 C162 1.416 . S
C160 C193 1.448 . S
C161 H146 0.930 . S
C161 N157 1.334 1_556 S
C161 C159 1.390 . S
C162 C159 1.339 1_554 S
C162 C160 1.416 . S
C162 H169 0.930 . S
N163 Tb128 2.572 . S
N163 C164 1.340 . S
N163 C166 1.361 . S
C164 H150 0.930 . S
C164 N163 1.340 . S
C164 C168 1.407 . S
C165 C166 1.413 . S
C165 C167 1.416 . S
C165 C194 1.427 . S
C166 C158 1.424 . S
C166 N163 1.361 . S
C166 C165 1.413 . S
C167 H156 0.931 . S
C167 C165 1.416 . S
C167 C168 1.332 . S
C168 H147 0.929 . S
C168 C164 1.407 . S
C168 C167 1.332 . S
H169 C162 0.930 . S
H170 C193 0.930 . S
H171 C194 0.929 . S
O172 Tb128 2.465 1_556 S
O172 C192 1.264 . S
O173 Tb128 2.387 . S
O173 C184 1.264 . S
O174 Tb139 2.349 . S
O174 C184 1.243 . S
O175 Tb128 2.428 1_556 S
O175 C192 1.256 . S
O176 Tb128 2.308 . S
O176 C191 1.266 . S
O177 Tb139 2.393 . S
O177 C191 1.248 . S
O178 Tb139 2.465 . S
O178 C203 1.264 . S
O179 Tb139 2.387 . S
O179 C195 1.264 1_554 S
O180 Tb128 2.349 1_556 S
O180 C195 1.243 . S
O181 Tb139 2.428 . S
O181 C203 1.256 . S
O182 Tb139 2.308 . S
O182 C202 1.266 . S
O183 Tb128 2.393 . S
O183 C202 1.248 . S
C184 O173 1.264 . S
C184 O174 1.243 . S
C185 C188 1.399 . S
C185 C190 1.383 . S
C185 C192 1.496 . S
C186 C187 1.399 . S
C186 C190 1.389 . S
C187 C186 1.399 . S
C187 C189 1.380 . S
C187 H204 0.929 . S
C188 C185 1.399 . S
C188 C189 1.392 . S
C188 H205 0.929 . S
C189 C187 1.380 . S
C189 C188 1.392 . S
C189 H206 0.929 . S
C190 C185 1.383 . S
C190 C186 1.389 . S
C190 H207 0.931 . S
C191 O176 1.266 . S
C191 O177 1.248 . S
C192 Tb128 2.802 1_556 S
C192 O172 1.264 . S
C192 O175 1.256 . S
C192 C185 1.496 . S
C193 C160 1.448 . S
C193 H170 0.930 . S
C193 C194 1.328 . S
C194 C165 1.427 . S
C194 H171 0.929 . S
C194 C193 1.328 . S
C195 O179 1.264 1_556 S
C195 O180 1.243 . S
C196 C199 1.399 . S
C196 C200 1.383 . S
C196 C203 1.496 . S
C197 C198 1.399 . S
C197 C200 1.389 . S
C198 C197 1.399 . S
C198 C201 1.380 . S
C198 H208 0.929 . S
C199 C196 1.399 . S
C199 C201 1.392 . S
C199 H209 0.929 . S
C200 C196 1.383 . S
C200 C197 1.389 . S
C200 H210 0.931 . S
C201 C198 1.380 . S
C201 C199 1.392 . S
C201 H211 0.929 . S
C202 O182 1.266 . S
C202 O183 1.248 . S
C203 Tb139 2.802 . S
C203 O178 1.264 . S
C203 O181 1.256 . S
C203 C196 1.496 . S
H204 C187 0.929 . S
H205 C188 0.929 . S
H206 C189 0.929 . S
H207 C190 0.931 . S
H208 C198 0.929 . S
H209 C199 0.929 . S
H210 C200 0.931 . S
H211 C201 0.929 . S
H212 C218 0.930 . S
H213 C221 0.930 . S
H214 C222 0.930 . S
H215 C223 0.930 . S
H216 C226 0.930 . S
H217 C227 0.930 . S
C218 H212 0.930 . S
C218 C219 1.355 . S
C218 C220 1.415 . S
C219 C218 1.355 . S
C219 C221 1.419 . S
C220 C218 1.415 . S
C220 C225 1.425 . S
C220 C227 1.409 . S
C221 H213 0.930 . S
C221 C219 1.419 . S
C221 C222 1.362 . S
C222 H214 0.930 . S
C222 C221 1.362 . S
C222 C225 1.409 . S
C223 H215 0.930 . S
C223 C224 1.355 . S
C223 C225 1.415 . S
C224 C223 1.355 . S
C224 C226 1.419 . S
C225 C220 1.425 . S
C225 C222 1.409 . S
C225 C223 1.415 . S
C226 H216 0.930 . S
C226 C224 1.419 . S
C226 C227 1.362 . S
C227 H217 0.930 . S
C227 C220 1.409 . S
C227 C226 1.362 . S
H228 C234 0.930 1_556 S
H229 C237 0.930 . S
H230 C238 0.930 . S
H231 C239 0.930 . S
H232 C242 0.930 . S
H233 C243 0.930 . S
C234 H228 0.930 1_554 S
C234 C235 1.355 . S
C234 C236 1.415 . S
C235 C234 1.355 . S
C235 C237 1.419 . S
C236 C234 1.415 . S
C236 C241 1.425 . S
C236 C243 1.409 1_554 S
C237 H229 0.930 . S
C237 C235 1.419 . S
C237 C238 1.362 . S
C238 H230 0.930 . S
C238 C237 1.362 . S
C238 C241 1.409 . S
C239 H231 0.930 . S
C239 C240 1.355 . S
C239 C241 1.415 . S
C240 C239 1.355 . S
C240 C242 1.419 1_554 S
C241 C236 1.425 . S
C241 C238 1.409 . S
C241 C239 1.415 . S
C242 H232 0.930 . S
C242 C240 1.419 1_556 S
C242 C243 1.362 . S
C243 H233 0.930 . S
C243 C236 1.409 1_556 S
C243 C242 1.362 . S
H244 C250 0.930 . S
H245 C253 0.930 . S
H246 C254 0.930 . S
H247 C255 0.930 . S
H248 C258 0.930 . S
H249 C259 0.930 . S
C250 H244 0.930 . S
C250 C251 1.355 . S
C250 C252 1.415 . S
C251 C250 1.355 . S
C251 C253 1.419 . S
C252 C250 1.415 . S
C252 C257 1.425 . S
C252 C259 1.409 . S
C253 H245 0.930 . S
C253 C251 1.419 . S
C253 C254 1.362 . S
C254 H246 0.930 . S
C254 C253 1.362 . S
C254 C257 1.409 . S
C255 H247 0.930 . S
C255 C256 1.355 . S
C255 C257 1.415 . S
C256 C255 1.355 . S
C256 C258 1.419 . S
C257 C252 1.425 . S
C257 C254 1.409 . S
C257 C255 1.415 . S
C258 H248 0.930 . S
C258 C256 1.419 . S
C258 C259 1.362 . S
C259 H249 0.930 . S
C259 C252 1.409 . S
C259 C258 1.362 . S
H260 C266 0.930 . S
H261 C269 0.930 . S
H262 C270 0.930 . S
H263 C271 0.930 . S
H264 C274 0.930 . S
H265 C275 0.930 . S
C266 H260 0.930 . S
C266 C267 1.355 . S
C266 C268 1.415 . S
C267 C266 1.355 . S
C267 C269 1.419 . S
C268 C266 1.415 . S
C268 C273 1.425 . S
C268 C275 1.409 . S
C269 H261 0.930 . S
C269 C267 1.419 . S
C269 C270 1.362 . S
C270 H262 0.930 . S
C270 C269 1.362 . S
C270 C273 1.409 . S
C271 H263 0.930 . S
C271 C272 1.355 . S
C271 C273 1.415 . S
C272 C271 1.355 . S
C272 C274 1.419 . S
C273 C268 1.425 . S
C273 C270 1.409 . S
C273 C271 1.415 . S
C274 H264 0.930 . S
C274 C272 1.419 . S
C274 C275 1.362 . S
C275 H265 0.930 . S
C275 C268 1.409 . S
C275 C274 1.362 . S
H276 C282 0.930 . S
H277 C285 0.930 . S
H278 C286 0.930 . S
H279 C287 0.930 . S
H280 C290 0.930 . S
H281 C291 0.930 . S
C282 H276 0.930 . S
C282 C283 1.355 . S
C282 C284 1.415 . S
C283 C282 1.355 . S
C283 C285 1.419 . S
C284 C282 1.415 . S
C284 C289 1.425 . S
C284 C291 1.409 . S
C285 H277 0.930 . S
C285 C283 1.419 . S
C285 C286 1.362 . S
C286 H278 0.930 . S
C286 C285 1.362 . S
C286 C289 1.409 . S
C287 H279 0.930 . S
C287 C288 1.355 . S
C287 C289 1.415 . S
C288 C287 1.355 . S
C288 C290 1.419 . S
C289 C284 1.425 . S
C289 C286 1.409 . S
C289 C287 1.415 . S
C290 H280 0.930 . S
C290 C288 1.419 . S
C290 C291 1.362 . S
C291 H281 0.930 . S
C291 C284 1.409 . S
C291 C290 1.362 . S
H292 C298 0.930 . S
H293 C301 0.930 . S
H294 C302 0.930 . S
H295 C303 0.930 . S
H296 C306 0.930 . S
H297 C307 0.930 . S
C298 H292 0.930 . S
C298 C299 1.355 . S
C298 C300 1.415 . S
C299 C298 1.355 . S
C299 C301 1.419 . S
C300 C298 1.415 . S
C300 C305 1.425 . S
C300 C307 1.409 . S
C301 H293 0.930 . S
C301 C299 1.419 . S
C301 C302 1.362 . S
C302 H294 0.930 . S
C302 C301 1.362 . S
C302 C305 1.409 . S
C303 H295 0.930 . S
C303 C304 1.355 . S
C303 C305 1.415 . S
C304 C303 1.355 . S
C304 C306 1.419 . S
C305 C300 1.425 . S
C305 C302 1.409 . S
C305 C303 1.415 . S
C306 H296 0.930 . S
C306 C304 1.419 . S
C306 C307 1.362 . S
C307 H297 0.930 . S
C307 C300 1.409 . S
C307 C306 1.362 . S
H308 C314 0.930 . S
H309 C317 0.930 . S
H310 C318 0.930 . S
H311 C319 0.930 . S
H312 C322 0.930 . S
H313 C323 0.930 . S
C314 H308 0.930 . S
C314 C315 1.355 . S
C314 C316 1.415 . S
C315 C314 1.355 . S
C315 C317 1.419 . S
C316 C314 1.415 . S
C316 C321 1.425 . S
C316 C323 1.409 . S
C317 H309 0.930 . S
C317 C315 1.419 . S
C317 C318 1.362 . S
C318 H310 0.930 . S
C318 C317 1.362 . S
C318 C321 1.409 . S
C319 H311 0.930 . S
C319 C320 1.355 . S
C319 C321 1.415 . S
C320 C319 1.355 . S
C320 C322 1.419 . S
C321 C316 1.425 . S
C321 C318 1.409 . S
C321 C319 1.415 . S
C322 H312 0.930 . S
C322 C320 1.419 . S
C322 C323 1.362 . S
C323 H313 0.930 . S
C323 C316 1.409 . S
C323 C322 1.362 . S
H324 C330 0.930 . S
H325 C333 0.930 . S
H326 C334 0.930 . S
H327 C335 0.930 . S
H328 C338 0.930 . S
H329 C339 0.930 . S
C330 H324 0.930 . S
C330 C331 1.355 . S
C330 C332 1.415 . S
C331 C330 1.355 . S
C331 C333 1.419 . S
C332 C330 1.415 . S
C332 C337 1.425 . S
C332 C339 1.409 . S
C333 H325 0.930 . S
C333 C331 1.419 . S
C333 C334 1.362 . S
C334 H326 0.930 . S
C334 C333 1.362 . S
C334 C337 1.409 . S
C335 H327 0.930 . S
C335 C336 1.355 . S
C335 C337 1.415 . S
C336 C335 1.355 . S
C336 C338 1.419 . S
C337 C332 1.425 . S
C337 C334 1.409 . S
C337 C335 1.415 . S
C338 H328 0.930 . S
C338 C336 1.419 . S
C338 C339 1.362 . S
C339 H329 0.930 . S
C339 C332 1.409 . S
C339 C338 1.362 . S
H340 C346 0.930 . S
H341 C349 0.930 . S
H342 C350 0.930 . S
H343 C351 0.930 . S
H344 C354 0.930 . S
H345 C355 0.930 . S
C346 H340 0.930 . S
C346 C347 1.355 . S
C346 C348 1.415 . S
C347 C346 1.355 . S
C347 C349 1.419 . S
C348 C346 1.415 . S
C348 C353 1.425 . S
C348 C355 1.409 . S
C349 H341 0.930 . S
C349 C347 1.419 . S
C349 C350 1.362 . S
C350 H342 0.930 . S
C350 C349 1.362 . S
C350 C353 1.409 . S
C351 H343 0.930 . S
C351 C352 1.355 . S
C351 C353 1.415 . S
C352 C351 1.355 . S
C352 C354 1.419 . S
C353 C348 1.425 . S
C353 C350 1.409 . S
C353 C351 1.415 . S
C354 H344 0.930 . S
C354 C352 1.419 . S
C354 C355 1.362 . S
C355 H345 0.930 . S
C355 C348 1.409 . S
C355 C354 1.362 . S
H356 C362 0.930 . S
H357 C365 0.930 . S
H358 C366 0.930 . S
H359 C367 0.930 . S
H360 C370 0.930 . S
H361 C371 0.930 . S
C362 H356 0.930 . S
C362 C363 1.355 . S
C362 C364 1.415 . S
C363 C362 1.355 . S
C363 C365 1.419 1_556 S
C364 C362 1.415 . S
C364 C369 1.425 . S
C364 C371 1.409 . S
C365 H357 0.930 . S
C365 C363 1.419 1_554 S
C365 C366 1.362 1_554 S
C366 H358 0.930 . S
C366 C365 1.362 1_556 S
C366 C369 1.409 . S
C367 H359 0.930 . S
C367 C368 1.355 . S
C367 C369 1.415 . S
C368 C367 1.355 . S
C368 C370 1.419 . S
C369 C364 1.425 . S
C369 C366 1.409 . S
C369 C367 1.415 . S
C370 H360 0.930 . S
C370 C368 1.419 . S
C370 C371 1.362 . S
C371 H361 0.930 . S
C371 C364 1.409 . S
C371 C370 1.362 . S
H372 C378 0.930 . S
H373 C381 0.930 . S
H374 C382 0.930 . S
H375 C383 0.930 . S
H376 C386 0.930 . S
H377 C387 0.930 . S
C378 H372 0.930 . S
C378 C379 1.355 . S
C378 C380 1.415 . S
C379 C378 1.355 . S
C379 C381 1.419 . S
C380 C378 1.415 . S
C380 C385 1.425 . S
C380 C387 1.409 . S
C381 H373 0.930 . S
C381 C379 1.419 . S
C381 C382 1.362 . S
C382 H374 0.930 . S
C382 C381 1.362 . S
C382 C385 1.409 . S
C383 H375 0.930 . S
C383 C384 1.355 . S
C383 C385 1.415 . S
C384 C383 1.355 . S
C384 C386 1.419 . S
C385 C380 1.425 . S
C385 C382 1.409 . S
C385 C383 1.415 . S
C386 H376 0.930 . S
C386 C384 1.419 . S
C386 C387 1.362 . S
C387 H377 0.930 . S
C387 C380 1.409 . S
C387 C386 1.362 . S
H388 C394 0.930 . S
H389 C397 0.930 . S
H390 C398 0.930 . S
H391 C399 0.930 . S
H392 C402 0.930 . S
H393 C403 0.930 . S
C394 H388 0.930 . S
C394 C395 1.355 . S
C394 C396 1.415 . S
C395 C394 1.355 . S
C395 C397 1.419 . S
C396 C394 1.415 . S
C396 C401 1.425 . S
C396 C403 1.409 . S
C397 H389 0.930 . S
C397 C395 1.419 . S
C397 C398 1.362 . S
C398 H390 0.930 . S
C398 C397 1.362 . S
C398 C401 1.409 . S
C399 H391 0.930 . S
C399 C400 1.355 . S
C399 C401 1.415 . S
C400 C399 1.355 . S
C400 C402 1.419 . S
C401 C396 1.425 . S
C401 C398 1.409 . S
C401 C399 1.415 . S
C402 H392 0.930 . S
C402 C400 1.419 . S
C402 C403 1.362 . S
C403 H393 0.930 . S
C403 C396 1.409 . S
C403 C402 1.362 . S
C224 C107 1.625 . S
C219 C43 1.641 . S
C235 C10 1.641 . S
C240 C202 1.614 . S
C251 C21 1.625 . S
C256 C118 1.658 . S
C267 C32 1.612 . S
C272 C191 1.617 . S
C288 C102 1.449 . S
C283 C5 1.569 . S
C304 C195 1.693 . S
C299 C15 1.677 . S
C315 C27 1.640 . S
C320 C111 1.642 . S
C331 C38 1.577 . S
C336 C186 1.463 . S
C352 C197 1.337 . S
C347 C16 1.543 . S
C368 C113 1.383 . S
C363 C26 1.532 1_556 S
C384 C184 1.625 . S
C379 C37 1.597 . S
C395 C4 1.573 . S
C400 C100 1.579 . S
