# Generated by pormake.
# Topology pyr, (3,6)-cn, num edge types: 1
# Building blocks:
#     Node 0, Type 0, BuildingBlock: BETDIP_clean_linker_0, # of connection points: 3
#     Node 1, Type 0, BuildingBlock: BETDIP_clean_linker_0, # of connection points: 3
#     Node 2, Type 0, BuildingBlock: BETDIP_clean_linker_0, # of connection points: 3
#     Node 3, Type 0, BuildingBlock: BETDIP_clean_linker_0, # of connection points: 3
#     Node 4, Type 0, BuildingBlock: BETDIP_clean_linker_0, # of connection points: 3
#     Node 5, Type 0, BuildingBlock: BETDIP_clean_linker_0, # of connection points: 3
#     Node 6, Type 0, BuildingBlock: BETDIP_clean_linker_0, # of connection points: 3
#     Node 7, Type 0, BuildingBlock: BETDIP_clean_linker_0, # of connection points: 3
#     Node 8, Type 1, BuildingBlock: BETDEL_clean_sbu_0, # of connection points: 6
#     Node 9, Type 1, BuildingBlock: BETDEL_clean_sbu_0, # of connection points: 6
#     Node 10, Type 1, BuildingBlock: BETDEL_clean_sbu_0, # of connection points: 6
#     Node 11, Type 1, BuildingBlock: BETDEL_clean_sbu_0, # of connection points: 6
#     Edge 12, Type (0, 1), BuildingBlock: EZIPEK_clean_linker_0, # of connection points: 2
#     Edge 13, Type (0, 1), BuildingBlock: EZIPEK_clean_linker_0, # of connection points: 2
#     Edge 14, Type (0, 1), BuildingBlock: EZIPEK_clean_linker_0, # of connection points: 2
#     Edge 15, Type (0, 1), BuildingBlock: EZIPEK_clean_linker_0, # of connection points: 2
#     Edge 16, Type (0, 1), BuildingBlock: EZIPEK_clean_linker_0, # of connection points: 2
#     Edge 17, Type (0, 1), BuildingBlock: EZIPEK_clean_linker_0, # of connection points: 2
#     Edge 18, Type (0, 1), BuildingBlock: EZIPEK_clean_linker_0, # of connection points: 2
#     Edge 19, Type (0, 1), BuildingBlock: EZIPEK_clean_linker_0, # of connection points: 2
#     Edge 20, Type (0, 1), BuildingBlock: EZIPEK_clean_linker_0, # of connection points: 2
#     Edge 21, Type (0, 1), BuildingBlock: EZIPEK_clean_linker_0, # of connection points: 2
#     Edge 22, Type (0, 1), BuildingBlock: EZIPEK_clean_linker_0, # of connection points: 2
#     Edge 23, Type (0, 1), BuildingBlock: EZIPEK_clean_linker_0, # of connection points: 2
#     Edge 24, Type (0, 1), BuildingBlock: EZIPEK_clean_linker_0, # of connection points: 2
#     Edge 25, Type (0, 1), BuildingBlock: EZIPEK_clean_linker_0, # of connection points: 2
#     Edge 26, Type (0, 1), BuildingBlock: EZIPEK_clean_linker_0, # of connection points: 2
#     Edge 27, Type (0, 1), BuildingBlock: EZIPEK_clean_linker_0, # of connection points: 2
#     Edge 28, Type (0, 1), BuildingBlock: EZIPEK_clean_linker_0, # of connection points: 2
#     Edge 29, Type (0, 1), BuildingBlock: EZIPEK_clean_linker_0, # of connection points: 2
#     Edge 30, Type (0, 1), BuildingBlock: EZIPEK_clean_linker_0, # of connection points: 2
#     Edge 31, Type (0, 1), BuildingBlock: EZIPEK_clean_linker_0, # of connection points: 2
#     Edge 32, Type (0, 1), BuildingBlock: EZIPEK_clean_linker_0, # of connection points: 2
#     Edge 33, Type (0, 1), BuildingBlock: EZIPEK_clean_linker_0, # of connection points: 2
#     Edge 34, Type (0, 1), BuildingBlock: EZIPEK_clean_linker_0, # of connection points: 2
#     Edge 35, Type (0, 1), BuildingBlock: EZIPEK_clean_linker_0, # of connection points: 2
# Relax obj value: 0.070
# Max RMSD: 0.174
# Mean RMSD: 0.128
data_MOF--net-pyr--node1-BETDEL_clean_sbu_0--node2-BETDIP_clean_linker_0--edge1-EZIPEK_clean_linker_0
_symmetry_space_group_name_H-M    P1
_symmetry_Int_Tables_number       1
_symmetry_cell_setting            triclinic
loop_
_symmetry_equiv_pos_as_xyz
'x, y, z'
_cell_length_a     26.376425
_cell_length_b     27.063418
_cell_length_c     26.812629
_cell_angle_alpha  93.628114
_cell_angle_beta   85.822717
_cell_angle_gamma 102.5742
loop_
_atom_site_label
_atom_site_type_symbol
_atom_site_fract_x
_atom_site_fract_y
_atom_site_fract_z
_atom_type_partial_charge
H0 H 0.0936 0.1486 0.16147 0.0
H1 H 0.22362 0.16826 0.05259 0.0
H2 H 0.2216 0.07817 0.17935 0.0
H3 H 0.16782 0.19303 0.00239 0.0
C4 C 0.14482 0.21112 0.03013 0.0
C5 C 0.13036 0.13984 0.14726 0.0
C6 C 0.15525 0.11156 0.17534 0.0
C7 C 0.1539 0.15931 0.1023 0.0
C8 C 0.20342 0.15114 0.08588 0.0
C9 C 0.22755 0.12088 0.113 0.0
C10 C 0.20276 0.10054 0.15744 0.0
N11 N 0.12868 0.19085 0.07746 0.0
H12 H 0.26382 0.88218 0.73613 0.0
H13 H 0.25837 0.77307 0.61116 0.0
H14 H 0.36108 0.77361 0.72859 0.0
H15 H 0.1932 0.80586 0.58765 0.0
C16 C 0.19179 0.84113 0.60868 0.0
C17 C 0.27572 0.84938 0.71761 0.0
C18 C 0.31375 0.8293 0.73787 0.0
C19 C 0.25495 0.82952 0.67226 0.0
C20 C 0.27234 0.78818 0.64711 0.0
C21 C 0.31038 0.76764 0.6679 0.0
C22 C 0.33049 0.78812 0.71341 0.0
N23 N 0.21995 0.85521 0.65231 0.0
H24 H 0.72533 0.42658 0.84737 0.0
H25 H 0.59312 0.30105 0.83753 0.0
H26 H 0.70732 0.3028 0.94463 0.0
H27 H 0.56342 0.34809 0.78566 0.0
C28 C 0.59423 0.37854 0.77209 0.0
C29 C 0.70303 0.3907 0.86039 0.0
C30 C 0.72144 0.36773 0.89899 0.0
C31 C 0.65653 0.3678 0.83793 0.0
C32 C 0.62829 0.3204 0.85473 0.0
C33 C 0.64638 0.29682 0.89352 0.0
C34 C 0.69282 0.32098 0.91543 0.0
N35 N 0.64114 0.39317 0.79795 0.0
H36 H 0.80075 0.58795 0.37548 0.0
H37 H 0.93004 0.71278 0.34594 0.0
H38 H 0.81091 0.73038 0.45892 0.0
H39 H 0.96426 0.65743 0.30046 0.0
C40 C 0.93418 0.62512 0.28985 0.0
C41 C 0.82166 0.6264 0.38386 0.0
C42 C 0.80083 0.65687 0.42062 0.0
C43 C 0.86826 0.64563 0.35656 0.0
C44 C 0.89448 0.69611 0.36678 0.0
C45 C 0.874 0.72626 0.4041 0.0
C46 C 0.82714 0.7067 0.43071 0.0
N47 N 0.88546 0.61398 0.31751 0.0
H48 H 0.72566 0.81612 0.93852 0.0
H49 H 0.84254 0.81788 0.81756 0.0
H50 H 0.78512 0.95179 0.85874 0.0
H51 H 0.81467 0.73061 0.81986 0.0
C52 C 0.81432 0.72992 0.86031 0.0
C53 C 0.75211 0.83628 0.91007 0.0
C54 C 0.75179 0.8868 0.90205 0.0
C55 C 0.78509 0.81109 0.88021 0.0
C56 C 0.81759 0.83677 0.84192 0.0
C57 C 0.81822 0.88757 0.83452 0.0
C58 C 0.78598 0.91286 0.86536 0.0
N59 N 0.78627 0.76078 0.89078 0.0
H60 H 0.76307 0.16083 0.30569 0.0
H61 H 0.78018 0.27725 0.42293 0.0
H62 H 0.66533 0.26954 0.31734 0.0
H63 H 0.85443 0.25296 0.43436 0.0
C64 C 0.85103 0.21425 0.41954 0.0
C65 C 0.74849 0.19144 0.32526 0.0
C66 C 0.70285 0.20515 0.31155 0.0
C67 C 0.77664 0.21647 0.3652 0.0
C68 C 0.76142 0.25883 0.3901 0.0
C69 C 0.72055 0.27713 0.37243 0.0
C70 C 0.69403 0.25209 0.33171 0.0
N71 N 0.81662 0.19449 0.38133 0.0
H72 H 0.29776 0.62506 0.18992 0.0
H73 H 0.4306 0.74955 0.20208 0.0
H74 H 0.31785 0.75001 0.09388 0.0
H75 H 0.46386 0.69355 0.2429 0.0
C76 C 0.43245 0.66479 0.25847 0.0
C77 C 0.3202 0.66123 0.17774 0.0
C78 C 0.30264 0.68481 0.13915 0.0
C79 C 0.36678 0.68324 0.20031 0.0
C80 C 0.39546 0.73084 0.18439 0.0
C81 C 0.37764 0.75531 0.14606 0.0
C82 C 0.33157 0.73163 0.12342 0.0
N83 N 0.38194 0.65676 0.23948 0.0
H84 H 0.11736 0.31733 0.70856 0.0
H85 H 0.25028 0.43981 0.68378 0.0
H86 H 0.22838 0.30705 0.58485 0.0
H87 H 0.23541 0.46051 0.76434 0.0
C88 C 0.19446 0.4464 0.77429 0.0
C89 C 0.15293 0.33362 0.68722 0.0
C90 C 0.16972 0.30679 0.64516 0.0
C91 C 0.1822 0.38111 0.70231 0.0
C92 C 0.22776 0.40252 0.6739 0.0
C93 C 0.24424 0.3757 0.63162 0.0
C94 C 0.21547 0.32777 0.61756 0.0
N95 N 0.16408 0.4062 0.74575 0.0
Dy96 Dy 0.04595 0.03549 0.47 0.0
C97 C 0.9367 0.97004 0.65891 0.0
C98 C 0.07908 0.06029 0.37549 0.0
Dy99 Dy 0.97898 1.00686 0.57033 0.0
O100 O 0.08516 0.01981 0.39569 0.0
O101 O 0.05542 0.08758 0.40678 0.0
O102 O 0.11724 0.02523 0.50538 0.0
O103 O 0.04456 0.98226 0.52855 0.0
C104 C 0.09231 0.99219 0.53673 0.0
C105 C 0.93486 0.06619 0.51659 0.0
O106 O 0.03751 0.07646 0.59388 0.0
O107 O 0.06729 0.10758 0.51523 0.0
O108 O 0.98167 1.00118 0.65337 0.0
O109 O 0.91571 0.95871 0.61622 0.0
O110 O 0.91451 0.04819 0.55892 0.0
O111 O 0.97489 0.04878 0.50636 0.0
O112 O 0.9893 0.96527 0.44535 0.0
O113 O 0.96023 0.93446 0.52402 0.0
C114 C 0.06333 0.11268 0.56468 0.0
C115 C 0.9639 0.92904 0.47451 0.0
Dy116 Dy 0.53842 0.05293 0.06886 0.0
C117 C 0.41936 0.93691 0.90589 0.0
C118 C 0.5938 0.11345 0.13913 0.0
Dy119 Dy 0.47631 1.00036 0.97304 0.0
O120 O 0.54389 0.09582 0.14268 0.0
O121 O 0.61357 0.09997 0.09583 0.0
O122 O 0.51504 0.98503 0.11838 0.0
O123 O 0.48816 0.98137 0.04795 0.0
C124 C 0.48619 0.9563 0.08624 0.0
C125 C 0.53376 0.09588 0.95394 0.0
O126 O 0.41496 0.02065 0.02616 0.0
O127 O 0.46825 0.08744 0.06868 0.0
O128 O 0.4038 0.97389 0.9314 0.0
O129 O 0.46555 0.93409 0.91756 0.0
O130 O 0.50475 0.06662 0.92206 0.0
O131 O 0.52797 0.07175 0.99335 0.0
O132 O 0.59976 0.02413 0.02099 0.0
O133 O 0.54442 0.96426 0.97191 0.0
C134 C 0.42181 0.06293 0.05475 0.0
C135 C 0.59089 0.98465 0.98844 0.0
Dy136 Dy 0.53144 0.47878 0.48088 0.0
C137 C 0.43024 0.62247 0.59104 0.0
C138 C 0.60052 0.42314 0.44133 0.0
Dy139 Dy 0.4954 0.56407 0.54836 0.0
O140 O 0.5504 0.41062 0.43715 0.0
O141 O 0.61285 0.46621 0.4663 0.0
O142 O 0.44929 0.43574 0.47453 0.0
O143 O 0.47075 0.48235 0.53865 0.0
C144 C 0.43287 0.45661 0.51598 0.0
C145 C 0.59499 0.58406 0.51224 0.0
O146 O 0.51696 0.52117 0.61019 0.0
O147 O 0.5539 0.46426 0.55831 0.0
O148 O 0.48084 0.63506 0.58989 0.0
O149 O 0.41535 0.57762 0.56997 0.0
O150 O 0.57911 0.60529 0.55378 0.0
O151 O 0.55593 0.55979 0.49056 0.0
O152 O 0.50636 0.52106 0.41993 0.0
O153 O 0.46936 0.57742 0.47256 0.0
C154 C 0.54285 0.48386 0.60368 0.0
C155 C 0.48028 0.55816 0.42716 0.0
Dy156 Dy 0.02934 0.47665 0.02714 0.0
C157 C 0.95901 0.64215 0.95495 0.0
C158 C 0.06744 0.39177 0.02453 0.0
Dy159 Dy 1.00554 0.57385 0.99239 0.0
O160 O 0.02312 0.39614 0.04726 0.0
O161 O 0.09066 0.43337 0.00387 0.0
O162 O 0.02465 0.50195 0.10772 0.0
O163 O 0.97918 0.52804 0.05817 0.0
C164 C 0.9941 0.5328 0.10248 0.0
C165 C 0.07326 0.53312 0.9316 0.0
O166 O 0.07494 0.60737 0.03766 0.0
O167 O 0.10406 0.53258 0.04006 0.0
O168 O 0.96818 0.60169 0.93117 0.0
O169 O 0.97671 0.64692 0.9994 0.0
O170 O 0.0733 0.58107 0.93544 0.0
O171 O 0.0336 0.51059 0.95621 0.0
O172 O 0.95314 0.44235 0.99345 0.0
O173 O 0.92949 0.51835 0.9809 0.0
C174 C 0.11087 0.58235 0.04778 0.0
C175 C 0.9195 0.46811 0.97964 0.0
C176 C 0.09746 0.05296 0.23421 0.0
C177 C 0.1346 0.09859 0.22643 0.0
C178 C 0.13725 0.11769 0.31663 0.0
C179 C 0.09754 0.07385 0.32427 0.0
N180 N 0.03339 1.00402 0.29153 0.0
N181 N 0.18443 0.17857 0.25831 0.0
C182 C 0.07586 0.04249 0.2834 0.0
C183 C 0.15288 0.13228 0.26711 0.0
N184 N 0.08373 0.01935 0.19473 0.0
N185 N 0.16163 0.14402 0.35657 0.0
H186 H 0.19786 0.19029 0.2225 0.0
H187 H 0.19414 0.20703 0.28612 0.0
H188 H 0.15139 0.13443 0.39358 0.0
H189 H 0.19487 0.1728 0.35302 0.0
H190 H 0.06124 0.98294 0.1987 0.0
H191 H 0.09789 0.02656 0.15796 0.0
H192 H 0.01242 0.98319 0.26292 0.0
H193 H 0.01625 0.99549 0.32714 0.0
C194 C 0.38757 0.89274 0.77264 0.0
C195 C 0.34106 0.85581 0.78131 0.0
C196 C 0.34443 0.87369 0.87184 0.0
C197 C 0.39256 0.90842 0.86329 0.0
N198 N 0.46291 0.94874 0.8068 0.0
N199 N 0.27781 0.80597 0.83766 0.0
C200 C 0.41514 0.91708 0.81404 0.0
C201 C 0.32011 0.84485 0.83055 0.0
N202 N 0.4042 0.90592 0.72475 0.0
N203 N 0.32193 0.86866 0.91937 0.0
H204 H 0.25868 0.78472 0.80807 0.0
H205 H 0.26365 0.79234 0.87252 0.0
H206 H 0.3399 0.88729 0.95077 0.0
H207 H 0.2843 0.84835 0.92766 0.0
H208 H 0.43404 0.93675 0.71603 0.0
H209 H 0.38585 0.88817 0.6932 0.0
H210 H 0.48463 0.95121 0.77271 0.0
H211 H 0.48256 0.97109 0.83542 0.0
C212 C 0.53414 0.42313 0.73124 0.0
C213 C 0.58299 0.4088 0.73039 0.0
C214 C 0.60824 0.45122 0.65074 0.0
C215 C 0.55713 0.46003 0.64857 0.0
N216 N 0.4681 0.44399 0.68318 0.0
N217 N 0.66253 0.40059 0.68331 0.0
C218 C 0.5192 0.44338 0.68797 0.0
C219 C 0.61912 0.42074 0.68863 0.0
N220 N 0.50233 0.41884 0.77403 0.0
N221 N 0.64707 0.47307 0.61741 0.0
H222 H 0.67108 0.37653 0.70882 0.0
H223 H 0.68722 0.40342 0.65099 0.0
H224 H 0.64122 0.496 0.58953 0.0
H225 H 0.6861 0.47256 0.62053 0.0
H226 H 0.46889 0.43366 0.77864 0.0
H227 H 0.51203 0.40521 0.80679 0.0
H228 H 0.43813 0.42696 0.70804 0.0
H229 H 0.45465 0.45668 0.65182 0.0
C230 C 0.949 0.62843 0.19716 0.0
C231 C 0.9408 0.59938 0.24021 0.0
C232 C 0.94839 0.52364 0.18778 0.0
C233 C 0.96698 0.55453 0.14666 0.0
N234 N 0.98351 0.63662 0.1116 0.0
N235 N 0.93445 0.51949 0.27788 0.0
C236 C 0.96588 0.60688 0.15093 0.0
C237 C 0.94024 0.54681 0.23591 0.0
N238 N 0.9396 0.67633 0.20034 0.0
N239 N 0.93687 0.47209 0.18034 0.0
H240 H 0.92838 0.53511 0.3138 0.0
H241 H 0.93964 0.48239 0.27747 0.0
H242 H 0.93963 0.45421 0.1449 0.0
H243 H 0.91895 0.44755 0.20789 0.0
H244 H 0.93953 0.6976 0.16932 0.0
H245 H 0.92705 0.69323 0.23369 0.0
H246 H 0.99052 0.67605 0.11386 0.0
H247 H 0.99429 0.62133 0.07723 0.0
C248 C 0.32059 0.12309 0.12951 0.0
C249 C 0.27967 0.1116 0.09619 0.0
C250 C 0.33896 0.08341 0.03221 0.0
C251 C 0.37548 0.08431 0.06877 0.0
N252 N 0.39592 0.09716 0.15595 0.0
N253 N 0.2478 0.07071 0.01812 0.0
C254 C 0.36528 0.10237 0.11851 0.0
C255 C 0.2882 0.08912 0.04798 0.0
N256 N 0.31728 0.1544 0.17106 0.0
N257 N 0.353 0.07854 0.98237 0.0
H258 H 0.2092 0.07116 0.0292 0.0
H259 H 0.25215 0.04997 0.98455 0.0
H260 H 0.39104 0.0779 0.96907 0.0
H261 H 0.32848 0.08158 0.95444 0.0
H262 H 0.34811 0.167 0.19416 0.0
H263 H 0.28613 0.17224 0.17908 0.0
H264 H 0.38665 0.10573 0.1935 0.0
H265 H 0.42718 0.07921 0.15056 0.0
C266 C 0.13235 0.90277 0.6231 0.0
C267 C 0.16374 0.87758 0.58953 0.0
C268 C 0.1419 0.92251 0.52021 0.0
C269 C 0.11724 0.95306 0.55498 0.0
N270 N 0.09543 0.97686 0.64061 0.0
N271 N 0.20497 0.86938 0.50685 0.0
C272 C 0.1143 0.94449 0.60677 0.0
C273 C 0.17021 0.88891 0.53821 0.0
N274 N 0.11733 0.88519 0.66973 0.0
N275 N 0.13649 0.92376 0.47 0.0
H276 H 0.22702 0.845 0.51831 0.0
H277 H 0.21547 0.88109 0.47056 0.0
H278 H 0.1144 0.94614 0.45504 0.0
H279 H 0.14901 0.89836 0.4436 0.0
H280 H 0.09067 0.89935 0.69404 0.0
H281 H 0.12673 0.85265 0.68193 0.0
H282 H 0.09827 0.97605 0.67909 0.0
H283 H 0.08117 1.00732 0.62992 0.0
C284 C 0.77287 0.42228 0.96621 0.0
C285 C 0.77214 0.39189 0.92095 0.0
C286 C 0.86789 0.41257 0.91351 0.0
C287 C 0.86878 0.44008 0.9605 0.0
N288 N 0.8226 0.46517 0.0353 0.0
N289 N 0.81848 0.35084 0.8559 0.0
C290 C 0.82132 0.4433 0.98789 0.0
C291 C 0.81958 0.38481 0.89599 0.0
N292 N 0.7273 0.43211 0.98778 0.0
N293 N 0.91296 0.4152 0.88423 0.0
H294 H 0.78396 0.33056 0.8414 0.0
H295 H 0.8515 0.33962 0.8396 0.0
H296 H 0.94877 0.43618 0.89507 0.0
H297 H 0.91424 0.40063 0.84739 0.0
H298 H 0.72545 0.45845 0.01751 0.0
H299 H 0.69115 0.41646 0.97364 0.0
H300 H 0.78967 0.46425 0.05939 0.0
H301 H 0.85725 0.48078 0.05226 0.0
C302 C 0.74364 0.62675 0.49695 0.0
C303 C 0.74903 0.63765 0.44554 0.0
C304 C 0.65834 0.59774 0.43637 0.0
C305 C 0.64952 0.59536 0.48926 0.0
N306 N 0.68596 0.60539 0.57056 0.0
N307 N 0.70833 0.64456 0.36928 0.0
C308 C 0.69284 0.60953 0.51989 0.0
C309 C 0.70528 0.62697 0.41632 0.0
N310 N 0.78702 0.63087 0.52321 0.0
N311 N 0.62453 0.56882 0.40468 0.0
H312 H 0.74214 0.66697 0.35327 0.0
H313 H 0.67567 0.64131 0.34858 0.0
H314 H 0.5974 0.53763 0.4168 0.0
H315 H 0.63081 0.56845 0.36582 0.0
H316 H 0.78609 0.61835 0.55925 0.0
H317 H 0.82467 0.64323 0.50747 0.0
H318 H 0.71432 0.62179 0.59523 0.0
H319 H 0.65155 0.5861 0.58826 0.0
C320 C 0.09018 0.25989 0.99035 0.0
C321 C 0.13167 0.25967 0.02082 0.0
C322 C 0.13534 0.34821 0.0484 0.0
C323 C 0.08968 0.34642 0.02283 0.0
N324 N 0.02286 0.3023 0.96939 0.0
N325 N 0.1958 0.30199 0.07754 0.0
C326 C 0.06696 0.30279 0.9935 0.0
C327 C 0.15525 0.30363 0.04905 0.0
N328 N 0.07341 0.21906 0.95846 0.0
N329 N 0.15948 0.39248 0.07208 0.0
H330 H 0.21391 0.27121 0.07573 0.0
H331 H 0.21069 0.33009 0.10411 0.0
H332 H 0.14418 0.42504 0.07554 0.0
H333 H 0.19601 0.39814 0.08642 0.0
H334 H 0.04614 0.21794 0.93206 0.0
H335 H 0.08998 0.18724 0.95574 0.0
H336 H 1.00123 0.27022 0.95147 0.0
H337 H 0.00605 0.33377 0.96922 0.0
C338 C 0.62302 0.20151 0.87879 0.0
C339 C 0.61878 0.2451 0.90969 0.0
C340 C 0.57251 0.18965 0.9757 0.0
C341 C 0.56929 0.14634 0.94198 0.0
N342 N 0.5945 0.11143 0.86091 0.0
N343 N 0.58437 0.28126 0.98562 0.0
C344 C 0.59533 0.15256 0.89335 0.0
C345 C 0.59221 0.23925 0.95767 0.0
N346 N 0.65571 0.20658 0.83651 0.0
N347 N 0.55846 0.18379 0.02529 0.0
H348 H 0.59819 0.31802 0.97377 0.0
H349 H 0.56025 0.27955 0.01827 0.0
H350 H 0.5473 0.1486 0.04066 0.0
H351 H 0.56438 0.21354 0.05229 0.0
H352 H 0.66573 0.17613 0.81541 0.0
H353 H 0.67657 0.24154 0.8245 0.0
H354 H 0.60451 0.11409 0.82273 0.0
H355 H 0.58301 0.07431 0.87189 0.0
C356 C 0.942 0.78704 0.45018 0.0
C357 C 0.90173 0.77867 0.41648 0.0
C358 C 0.9031 0.86958 0.41897 0.0
C359 C 0.94443 0.87806 0.45158 0.0
N360 N 0.01163 0.84717 0.4886 0.0
N361 N 0.85058 0.81122 0.36081 0.0
C362 C 0.96644 0.83743 0.46428 0.0
C363 C 0.88447 0.81984 0.39821 0.0
N364 N 0.95547 0.74682 0.47027 0.0
N365 N 0.87997 0.90844 0.40993 0.0
H366 H 0.83594 0.77506 0.34521 0.0
H367 H 0.84037 0.84002 0.34238 0.0
H368 H 0.89247 0.94529 0.42473 0.0
H369 H 0.84607 0.90355 0.39093 0.0
H370 H 0.97989 0.75063 0.49973 0.0
H371 H 0.9394 0.70917 0.45996 0.0
H372 H 0.03263 0.81972 0.49402 0.0
H373 H 0.03091 0.88368 0.49929 0.0
C374 C 0.37585 0.74179 0.60472 0.0
C375 C 0.33397 0.72773 0.64088 0.0
C376 C 0.35349 0.64328 0.64317 0.0
C377 C 0.39503 0.65729 0.60655 0.0
N378 N 0.43569 0.71379 0.54207 0.0
N379 N 0.27567 0.66293 0.68687 0.0
C380 C 0.40323 0.70477 0.58419 0.0
C381 C 0.32035 0.67755 0.65746 0.0
N382 N 0.391 0.79108 0.59158 0.0
N383 N 0.34738 0.59846 0.66611 0.0
H384 H 0.25094 0.68746 0.6979 0.0
H385 H 0.26073 0.62573 0.69667 0.0
H386 H 0.37099 0.57254 0.65686 0.0
H387 H 0.32145 0.58841 0.69678 0.0
H388 H 0.4253 0.80486 0.57041 0.0
H389 H 0.37114 0.81917 0.60458 0.0
H390 H 0.43907 0.74564 0.52119 0.0
H391 H 0.4552 0.68704 0.52483 0.0
C392 C 0.90496 0.91861 0.78901 0.0
C393 C 0.85005 0.91292 0.79184 0.0
C394 C 0.85612 0.95711 0.71454 0.0
C395 C 0.90921 0.95457 0.70708 0.0
N396 N 0.98304 0.92624 0.73425 0.0
N397 N 0.77239 0.9167 0.75064 0.0
C398 C 0.93368 0.93392 0.74368 0.0
C399 C 0.82523 0.92955 0.75288 0.0
N400 N 0.92966 0.91014 0.82969 0.0
N401 N 0.83539 0.98694 0.68598 0.0
H402 H 0.74823 0.89359 0.77615 0.0
H403 H 0.75327 0.92414 0.72018 0.0
H404 H 0.85758 0.01026 0.65928 0.0
H405 H 0.79784 0.99317 0.69313 0.0
H406 H 0.97002 0.91817 0.83099 0.0
H407 H 0.90984 0.89981 0.86383 0.0
H408 H 1.00052 0.90642 0.75763 0.0
H409 H 1.00474 0.93543 0.70083 0.0
C410 C 0.67669 0.12759 0.25083 0.0
C411 C 0.66691 0.17335 0.27414 0.0
C412 C 0.60461 0.17547 0.21176 0.0
C413 C 0.62306 0.13682 0.18257 0.0
N414 N 0.677 0.07415 0.17546 0.0
N415 N 0.58969 0.20572 0.29649 0.0
C416 C 0.6596 0.11254 0.20209 0.0
C417 C 0.62162 0.18815 0.26057 0.0
N418 N 0.69199 0.09363 0.27878 0.0
N419 N 0.57121 0.20066 0.19292 0.0
H420 H 0.59619 0.20611 0.3345 0.0
H421 H 0.55362 0.21261 0.28916 0.0
H422 H 0.5588 0.19355 0.15657 0.0
H423 H 0.5602 0.23185 0.21198 0.0
H424 H 0.69493 0.05734 0.26526 0.0
H425 H 0.69347 0.09904 0.3176 0.0
H426 H 0.70784 0.05974 0.18642 0.0
H427 H 0.66332 0.05872 0.14122 0.0
C428 C 0.4717 0.66371 0.34152 0.0
C429 C 0.4431 0.63641 0.30185 0.0
C430 C 0.43556 0.55738 0.34597 0.0
C431 C 0.4683 0.58419 0.38298 0.0
N432 N 0.52738 0.66134 0.4089 0.0
N433 N 0.40794 0.5551 0.26134 0.0
C434 C 0.48909 0.63695 0.37876 0.0
C435 C 0.42757 0.5826 0.30275 0.0
N436 N 0.48074 0.71547 0.34489 0.0
N437 N 0.41081 0.50818 0.35268 0.0
H438 H 0.40386 0.57158 0.22819 0.0
H439 H 0.40088 0.51567 0.25802 0.0
H440 H 0.41571 0.4886 0.38365 0.0
H441 H 0.38209 0.48833 0.32987 0.0
H442 H 0.49627 0.73709 0.37591 0.0
H443 H 0.46793 0.7367 0.31918 0.0
H444 H 0.54788 0.69838 0.40394 0.0
H445 H 0.54265 0.64306 0.43546 0.0
C446 C 0.1355 0.43581 0.8517 0.0
C447 C 0.16966 0.46836 0.81912 0.0
C448 C 0.15311 0.54089 0.87155 0.0
C449 C 0.1091 0.50915 0.89641 0.0
N450 N 0.05579 0.42266 0.90193 0.0
N451 N 0.20741 0.55345 0.79477 0.0
C452 C 0.09949 0.45555 0.88453 0.0
C453 C 0.1777 0.52137 0.82815 0.0
N454 N 0.13849 0.38609 0.85274 0.0
N455 N 0.17341 0.58885 0.88994 0.0
H456 H 0.22636 0.54089 0.76252 0.0
H457 H 0.2094 0.59243 0.797 0.0
H458 H 0.16119 0.60414 0.92406 0.0
H459 H 0.20779 0.61101 0.87481 0.0
H460 H 0.11766 0.36197 0.87951 0.0
H461 H 0.16651 0.3709 0.8312 0.0
H462 H 0.04544 0.38537 0.88752 0.0
H463 H 0.02786 0.43143 0.92789 0.0
C464 C 0.67044 0.91722 0.89678 0.0
C465 C 0.71037 0.91033 0.92629 0.0
C466 C 0.66999 0.9488 0.99929 0.0
C467 C 0.6345 0.96207 0.96767 0.0
N468 N 0.61087 0.97006 0.88334 0.0
N469 N 0.7531 0.92528 0.00398 0.0
C470 C 0.63767 0.94961 0.91548 0.0
C471 C 0.71177 0.92791 0.97715 0.0
N472 N 0.66259 0.89142 0.85154 0.0
N473 N 0.66241 0.95331 0.0502 0.0
H474 H 0.78387 0.90937 0.98897 0.0
H475 H 0.75871 0.94238 0.03965 0.0
H476 H 0.63111 0.96628 0.06824 0.0
H477 H 0.6843 0.93939 0.07462 0.0
H478 H 0.63091 0.892 0.83066 0.0
H479 H 0.684 0.86476 0.8379 0.0
H480 H 0.61596 0.96552 0.84452 0.0
H481 H 0.58816 0.99612 0.89503 0.0
C482 C 0.9037 0.14644 0.41473 0.0
C483 C 0.87693 0.17935 0.44411 0.0
C484 C 0.89917 0.14542 0.52016 0.0
C485 C 0.91798 0.10667 0.49083 0.0
N486 N 0.93105 0.0665 0.40914 0.0
N487 N 0.84208 0.20456 0.52524 0.0
C488 C 0.91869 0.10627 0.43775 0.0
C489 C 0.87283 0.17745 0.49696 0.0
N490 N 0.91644 0.15455 0.36517 0.0
N491 N 0.90872 0.15367 0.56979 0.0
H492 H 0.82153 0.22825 0.51008 0.0
H493 H 0.83305 0.19978 0.56336 0.0
H494 H 0.93157 0.13425 0.5878 0.0
H495 H 0.90008 0.18449 0.59141 0.0
H496 H 0.94039 0.13481 0.34314 0.0
H497 H 0.90791 0.18476 0.3475 0.0
H498 H 0.92685 0.06189 0.37068 0.0
H499 H 0.94079 0.0356 0.42423 0.0
C500 C 0.20557 0.67112 0.13301 0.0
C501 C 0.25381 0.65994 0.11466 0.0
C502 C 0.20939 0.60222 0.04915 0.0
C503 C 0.16032 0.61012 0.07011 0.0
N504 N 0.11194 0.64277 0.13975 0.0
N505 N 0.30168 0.61048 0.05937 0.0
C506 C 0.15846 0.64241 0.11393 0.0
C507 C 0.25568 0.62422 0.07388 0.0
N508 N 0.20468 0.70927 0.16879 0.0
N509 N 0.21221 0.57503 0.00469 0.0
H510 H 0.33677 0.62726 0.07501 0.0
H511 H 0.3046 0.58005 0.03436 0.0
H512 H 0.1797 0.55703 0.98574 0.0
H513 H 0.24701 0.57341 0.98433 0.0
H514 H 0.17143 0.72314 0.17947 0.0
H515 H 0.23811 0.72988 0.185 0.0
H516 H 0.10852 0.66149 0.17458 0.0
H517 H 0.07714 0.61957 0.12926 0.0
C518 C 0.3389 0.38162 0.61063 0.0
C519 C 0.29251 0.39722 0.60206 0.0
C520 C 0.33824 0.45228 0.53658 0.0
C521 C 0.38369 0.4342 0.54316 0.0
N522 N 0.42566 0.37509 0.579 0.0
N523 N 0.24492 0.44163 0.55341 0.0
C524 C 0.38357 0.3969 0.57804 0.0
C525 C 0.29125 0.43102 0.56403 0.0
N526 N 0.34054 0.35327 0.65072 0.0
N527 N 0.34039 0.49047 0.50492 0.0
H528 H 0.20993 0.42753 0.57353 0.0
H529 H 0.24033 0.46156 0.5227 0.0
H530 H 0.37368 0.50533 0.48269 0.0
H531 H 0.3104 0.50953 0.50276 0.0
H532 H 0.37472 0.34553 0.66229 0.0
H533 H 0.30828 0.34077 0.67514 0.0
H534 H 0.42586 0.34406 0.59997 0.0
H535 H 0.45922 0.3852 0.5556 0.0
C536 C 0.90553 0.71825 0.86658 0.0
C537 C 0.85222 0.70732 0.88393 0.0
C538 C 0.87306 0.66547 0.95567 0.0
C539 C 0.92523 0.67213 0.93578 0.0
N540 N 0.99138 0.7008 0.87105 0.0
N541 N 0.78348 0.6616 0.93839 0.0
C542 C 0.94155 0.6975 0.89091 0.0
C543 C 0.8355 0.67881 0.92693 0.0
N544 N 0.92223 0.74982 0.8281 0.0
N545 N 0.85914 0.64565 1.00159 0.0
H546 H 0.75471 0.66832 0.91661 0.0
H547 H 0.76879 0.63618 0.96615 0.0
H548 H 0.885 0.63373 0.02327 0.0
H549 H 0.82298 0.64504 0.02023 0.0
H550 H 0.96132 0.76465 0.81854 0.0
H551 H 0.89734 0.76388 0.80718 0.0
H552 H 1.00387 0.71246 0.8351 0.0
H553 H 0.01994 0.68951 0.88983 0.0
C554 C 0.45112 0.81197 0.09698 0.0
C555 C 0.40579 0.80674 0.12992 0.0
C556 C 0.40789 0.89786 0.12482 0.0
C557 C 0.45589 0.90394 0.09584 0.0
N558 N 0.52703 0.86818 0.05974 0.0
N559 N 0.34425 0.84553 0.18034 0.0
C560 C 0.47847 0.8613 0.08323 0.0
C561 C 0.38493 0.84996 0.14507 0.0
N562 N 0.46731 0.76962 0.07773 0.0
N563 N 0.38394 0.93794 0.13254 0.0
H564 H 0.32659 0.81127 0.1961 0.0
H565 H 0.33065 0.87629 0.1971 0.0
H566 H 0.40007 0.97362 0.11901 0.0
H567 H 0.34637 0.93502 0.14866 0.0
H568 H 0.49643 0.77028 0.04924 0.0
H569 H 0.44888 0.73308 0.08754 0.0
H570 H 0.5484 0.83993 0.05469 0.0
H571 H 0.54758 0.90338 0.04831 0.0
C572 C 0.14993 0.21222 0.64548 0.0
C573 C 0.13876 0.25701 0.62854 0.0
C574 C 0.07339 0.20679 0.57495 0.0
C575 C 0.08827 0.16209 0.58803 0.0
N576 N 0.14678 0.12266 0.62875 0.0
N577 N 0.09409 0.29851 0.57415 0.0
C578 C 0.12785 0.16476 0.62183 0.0
C579 C 0.10148 0.25475 0.59257 0.0
N580 N 0.18167 0.21517 0.68415 0.0
N581 N 0.03153 0.20334 0.54671 0.0
H582 H 0.1123 0.33451 0.58768 0.0
H583 H 0.07251 0.29934 0.54333 0.0
H584 H 0.01069 0.16907 0.53197 0.0
H585 H 0.01482 0.23385 0.54099 0.0
H586 H 0.18689 0.18359 0.70178 0.0
H587 H 0.19958 0.24951 0.70146 0.0
H588 H 0.17922 0.12331 0.64889 0.0
H589 H 0.13326 0.08775 0.61026 0.0
C590 C 0.71292 0.36792 0.381 0.0
C591 C 0.6992 0.31851 0.39934 0.0
C592 C 0.62854 0.34255 0.4533 0.0
C593 C 0.6368 0.38884 0.42885 0.0
N594 N 0.68668 0.44712 0.3701 0.0
N595 N 0.64342 0.25727 0.45173 0.0
C596 C 0.67956 0.40242 0.39344 0.0
C597 C 0.65729 0.30562 0.43572 0.0
N598 N 0.75771 0.38136 0.35148 0.0
N599 N 0.59442 0.3346 0.4944 0.0
H600 H 0.665 0.22975 0.44164 0.0
H601 H 0.60904 0.24356 0.47279 0.0
H602 H 0.57329 0.36118 0.50899 0.0
H603 H 0.59069 0.30393 0.51697 0.0
H604 H 0.77266 0.41792 0.33987 0.0
H605 H 0.78242 0.35645 0.34198 0.0
H606 H 0.71378 0.45723 0.34033 0.0
H607 H 0.6632 0.4733 0.37863 0.0
loop_
_geom_bond_atom_site_label_1
_geom_bond_atom_site_label_2
_geom_bond_distance
_geom_bond_site_symmetry_2
_ccdc_geom_bond_type
H0 C5 0.930 . S
H1 C8 0.930 . S
H2 C10 0.930 . S
H3 C4 1.016 . S
C4 H3 1.016 . S
C4 N11 1.286 . S
C5 H0 0.930 . S
C5 C6 1.397 . S
C5 C7 1.361 . S
C6 C5 1.397 . S
C6 C10 1.390 . S
C7 C5 1.361 . S
C7 C8 1.393 . S
C7 N11 1.413 . S
C8 H1 0.930 . S
C8 C7 1.393 . S
C8 C9 1.399 . S
C9 C8 1.399 . S
C9 C10 1.381 . S
C10 H2 0.930 . S
C10 C6 1.390 . S
C10 C9 1.381 . S
N11 C4 1.286 . S
N11 C7 1.413 . S
H12 C17 0.930 . S
H13 C20 0.930 . S
H14 C22 0.930 . S
H15 C16 1.016 . S
C16 H15 1.016 . S
C16 N23 1.286 . S
C17 H12 0.930 . S
C17 C18 1.397 . S
C17 C19 1.361 . S
C18 C17 1.397 . S
C18 C22 1.390 . S
C19 C17 1.361 . S
C19 C20 1.393 . S
C19 N23 1.413 . S
C20 H13 0.930 . S
C20 C19 1.393 . S
C20 C21 1.399 . S
C21 C20 1.399 . S
C21 C22 1.381 . S
C22 H14 0.930 . S
C22 C18 1.390 . S
C22 C21 1.381 . S
N23 C16 1.286 . S
N23 C19 1.413 . S
H24 C29 0.930 . S
H25 C32 0.930 . S
H26 C34 0.930 . S
H27 C28 1.016 . S
C28 H27 1.016 . S
C28 N35 1.286 . S
C29 H24 0.930 . S
C29 C30 1.397 . S
C29 C31 1.361 . S
C30 C29 1.397 . S
C30 C34 1.390 . S
C31 C29 1.361 . S
C31 C32 1.393 . S
C31 N35 1.413 . S
C32 H25 0.930 . S
C32 C31 1.393 . S
C32 C33 1.399 . S
C33 C32 1.399 . S
C33 C34 1.381 . S
C34 H26 0.930 . S
C34 C30 1.390 . S
C34 C33 1.381 . S
N35 C28 1.286 . S
N35 C31 1.413 . S
H36 C41 0.930 . S
H37 C44 0.930 . S
H38 C46 0.930 . S
H39 C40 1.016 . S
C40 H39 1.016 . S
C40 N47 1.286 . S
C41 H36 0.930 . S
C41 C42 1.397 . S
C41 C43 1.361 . S
C42 C41 1.397 . S
C42 C46 1.390 . S
C43 C41 1.361 . S
C43 C44 1.393 . S
C43 N47 1.413 . S
C44 H37 0.930 . S
C44 C43 1.393 . S
C44 C45 1.399 . S
C45 C44 1.399 . S
C45 C46 1.381 . S
C46 H38 0.930 . S
C46 C42 1.390 . S
C46 C45 1.381 . S
N47 C40 1.286 . S
N47 C43 1.413 . S
H48 C53 0.930 . S
H49 C56 0.930 . S
H50 C58 0.930 . S
H51 C52 1.016 . S
C52 H51 1.016 . S
C52 N59 1.286 . S
C53 H48 0.930 . S
C53 C54 1.397 . S
C53 C55 1.361 . S
C54 C53 1.397 . S
C54 C58 1.390 . S
C55 C53 1.361 . S
C55 C56 1.393 . S
C55 N59 1.413 . S
C56 H49 0.930 . S
C56 C55 1.393 . S
C56 C57 1.399 . S
C57 C56 1.399 . S
C57 C58 1.381 . S
C58 H50 0.930 . S
C58 C54 1.390 . S
C58 C57 1.381 . S
N59 C52 1.286 . S
N59 C55 1.413 . S
H60 C65 0.930 . S
H61 C68 0.930 . S
H62 C70 0.930 . S
H63 C64 1.016 . S
C64 H63 1.016 . S
C64 N71 1.286 . S
C65 H60 0.930 . S
C65 C66 1.397 . S
C65 C67 1.361 . S
C66 C65 1.397 . S
C66 C70 1.390 . S
C67 C65 1.361 . S
C67 C68 1.393 . S
C67 N71 1.413 . S
C68 H61 0.930 . S
C68 C67 1.393 . S
C68 C69 1.399 . S
C69 C68 1.399 . S
C69 C70 1.381 . S
C70 H62 0.930 . S
C70 C66 1.390 . S
C70 C69 1.381 . S
N71 C64 1.286 . S
N71 C67 1.413 . S
H72 C77 0.930 . S
H73 C80 0.930 . S
H74 C82 0.930 . S
H75 C76 1.016 . S
C76 H75 1.016 . S
C76 N83 1.286 . S
C77 H72 0.930 . S
C77 C78 1.397 . S
C77 C79 1.361 . S
C78 C77 1.397 . S
C78 C82 1.390 . S
C79 C77 1.361 . S
C79 C80 1.393 . S
C79 N83 1.413 . S
C80 H73 0.930 . S
C80 C79 1.393 . S
C80 C81 1.399 . S
C81 C80 1.399 . S
C81 C82 1.381 . S
C82 H74 0.930 . S
C82 C78 1.390 . S
C82 C81 1.381 . S
N83 C76 1.286 . S
N83 C79 1.413 . S
H84 C89 0.930 . S
H85 C92 0.930 . S
H86 C94 0.930 . S
H87 C88 1.016 . S
C88 H87 1.016 . S
C88 N95 1.286 . S
C89 H84 0.930 . S
C89 C90 1.397 . S
C89 C91 1.361 . S
C90 C89 1.397 . S
C90 C94 1.390 . S
C91 C89 1.361 . S
C91 C92 1.393 . S
C91 N95 1.413 . S
C92 H85 0.930 . S
C92 C91 1.393 . S
C92 C93 1.399 . S
C93 C92 1.399 . S
C93 C94 1.381 . S
C94 H86 0.930 . S
C94 C90 1.390 . S
C94 C93 1.381 . S
N95 C88 1.286 . S
N95 C91 1.413 . S
Dy96 O100 2.398 . S
Dy96 O101 2.491 . S
Dy96 O102 2.403 1_545 S
Dy96 O103 2.664 1_545 S
Dy96 O107 2.326 . S
Dy96 O111 2.310 1_455 S
Dy96 O112 2.351 1_445 S
C97 O108 1.185 . S
C97 O109 1.355 . S
C98 O100 1.185 . S
C98 O101 1.355 . S
Dy99 O103 2.310 1_655 S
Dy99 O106 2.351 1_665 S
Dy99 O108 2.398 . S
Dy99 O109 2.491 . S
Dy99 O110 2.403 1_565 S
Dy99 O111 2.664 1_565 S
Dy99 O113 2.326 . S
O100 Dy96 2.398 . S
O100 C98 1.185 . S
O101 Dy96 2.491 . S
O101 C98 1.355 . S
O102 Dy96 2.403 1_565 S
O102 C104 1.254 . S
O103 Dy96 2.664 1_565 S
O103 Dy99 2.310 1_455 S
O103 C104 1.268 . S
C104 O102 1.254 . S
C104 O103 1.268 . S
C105 O110 1.254 . S
C105 O111 1.268 . S
O106 Dy99 2.351 1_445 S
O106 C114 1.249 . S
O107 Dy96 2.326 . S
O107 C114 1.267 . S
O108 C97 1.185 . S
O108 Dy99 2.398 . S
O109 C97 1.355 . S
O109 Dy99 2.491 . S
O110 Dy99 2.403 1_545 S
O110 C105 1.254 . S
O111 Dy96 2.310 1_655 S
O111 Dy99 2.664 1_545 S
O111 C105 1.268 . S
O112 Dy96 2.351 1_665 S
O112 C115 1.249 . S
O113 Dy99 2.326 . S
O113 C115 1.267 . S
C114 O106 1.249 . S
C114 O107 1.267 . S
C115 O112 1.249 . S
C115 O113 1.267 . S
Dy116 O120 2.398 . S
Dy116 O121 2.491 . S
Dy116 O122 2.403 1_545 S
Dy116 O123 2.664 1_545 S
Dy116 O127 2.326 . S
Dy116 O131 2.310 . S
Dy116 O132 2.351 1_544 S
C117 O128 1.185 . S
C117 O129 1.355 . S
C118 O120 1.185 . S
C118 O121 1.355 . S
Dy119 O123 2.310 1_546 S
Dy119 O126 2.351 1_556 S
Dy119 O128 2.398 1_545 S
Dy119 O129 2.491 1_545 S
Dy119 O130 2.403 . S
Dy119 O131 2.664 1_556 S
Dy119 O133 2.326 1_545 S
O120 Dy116 2.398 . S
O120 C118 1.185 . S
O121 Dy116 2.491 . S
O121 C118 1.355 . S
O122 Dy116 2.403 1_565 S
O122 C124 1.254 . S
O123 Dy116 2.664 1_565 S
O123 Dy119 2.310 1_564 S
O123 C124 1.268 . S
C124 O122 1.254 . S
C124 O123 1.268 . S
C125 O130 1.254 . S
C125 O131 1.268 1_556 S
O126 Dy119 2.351 1_554 S
O126 C134 1.249 . S
O127 Dy116 2.326 . S
O127 C134 1.267 . S
O128 C117 1.185 . S
O128 Dy119 2.398 1_565 S
O129 C117 1.355 . S
O129 Dy119 2.491 1_565 S
O130 Dy119 2.403 . S
O130 C125 1.254 . S
O131 Dy116 2.310 . S
O131 Dy119 2.664 1_554 S
O131 C125 1.268 1_554 S
O132 Dy116 2.351 1_566 S
O132 C135 1.249 . S
O133 Dy119 2.326 1_565 S
O133 C135 1.267 . S
C134 O126 1.249 . S
C134 O127 1.267 . S
C135 O132 1.249 . S
C135 O133 1.267 . S
Dy136 O140 2.398 . S
Dy136 O141 2.491 . S
Dy136 O142 2.403 . S
Dy136 O143 2.664 . S
Dy136 O147 2.326 . S
Dy136 O151 2.310 . S
Dy136 O152 2.351 . S
C137 O148 1.185 . S
C137 O149 1.355 . S
C138 O140 1.185 . S
C138 O141 1.355 . S
Dy139 O143 2.310 . S
Dy139 O146 2.351 . S
Dy139 O148 2.398 . S
Dy139 O149 2.491 . S
Dy139 O150 2.403 . S
Dy139 O151 2.664 . S
Dy139 O153 2.326 . S
O140 Dy136 2.398 . S
O140 C138 1.185 . S
O141 Dy136 2.491 . S
O141 C138 1.355 . S
O142 Dy136 2.403 . S
O142 C144 1.254 . S
O143 Dy136 2.664 . S
O143 Dy139 2.310 . S
O143 C144 1.268 . S
C144 O142 1.254 . S
C144 O143 1.268 . S
C145 O150 1.254 . S
C145 O151 1.268 . S
O146 Dy139 2.351 . S
O146 C154 1.249 . S
O147 Dy136 2.326 . S
O147 C154 1.267 . S
O148 C137 1.185 . S
O148 Dy139 2.398 . S
O149 C137 1.355 . S
O149 Dy139 2.491 . S
O150 Dy139 2.403 . S
O150 C145 1.254 . S
O151 Dy136 2.310 . S
O151 Dy139 2.664 . S
O151 C145 1.268 . S
O152 Dy136 2.351 . S
O152 C155 1.249 . S
O153 Dy139 2.326 . S
O153 C155 1.267 . S
C154 O146 1.249 . S
C154 O147 1.267 . S
C155 O152 1.249 . S
C155 O153 1.267 . S
Dy156 O160 2.398 . S
Dy156 O161 2.491 . S
Dy156 O162 2.403 1_455 S
Dy156 O163 2.664 1_455 S
Dy156 O167 2.326 . S
Dy156 O171 2.310 1_554 S
Dy156 O172 2.351 1_455 S
C157 O168 1.185 . S
C157 O169 1.355 . S
C158 O160 1.185 . S
C158 O161 1.355 . S
Dy159 O163 2.310 1_456 S
Dy159 O166 2.351 1_556 S
Dy159 O168 2.398 1_455 S
Dy159 O169 2.491 1_455 S
Dy159 O170 2.403 . S
Dy159 O171 2.664 . S
Dy159 O173 2.326 1_455 S
O160 Dy156 2.398 . S
O160 C158 1.185 . S
O161 Dy156 2.491 . S
O161 C158 1.355 . S
O162 Dy156 2.403 1_655 S
O162 C164 1.254 . S
O163 Dy156 2.664 1_655 S
O163 Dy159 2.310 1_654 S
O163 C164 1.268 . S
C164 O162 1.254 . S
C164 O163 1.268 . S
C165 O170 1.254 . S
C165 O171 1.268 . S
O166 Dy159 2.351 1_554 S
O166 C174 1.249 . S
O167 Dy156 2.326 . S
O167 C174 1.267 . S
O168 C157 1.185 . S
O168 Dy159 2.398 1_655 S
O169 C157 1.355 . S
O169 Dy159 2.491 1_655 S
O170 Dy159 2.403 . S
O170 C165 1.254 . S
O171 Dy156 2.310 1_556 S
O171 Dy159 2.664 . S
O171 C165 1.268 . S
O172 Dy156 2.351 1_655 S
O172 C175 1.250 1_554 S
O173 Dy159 2.326 1_655 S
O173 C175 1.267 . S
C174 O166 1.249 . S
C174 O167 1.267 . S
C175 O172 1.250 1_556 S
C175 O173 1.267 . S
C176 C177 1.363 . S
C176 C182 1.379 . S
C176 N184 1.356 . S
C177 C176 1.363 . S
C177 C183 1.363 . S
C178 C179 1.363 . S
C178 C183 1.379 . S
C178 N185 1.356 . S
C179 C178 1.363 . S
C179 C182 1.363 . S
N180 C182 1.356 . S
N180 H192 0.984 . S
N180 H193 0.985 . S
N181 C183 1.356 . S
N181 H186 0.984 . S
N181 H187 0.985 . S
C182 C176 1.379 . S
C182 C179 1.363 . S
C182 N180 1.356 . S
C183 C177 1.363 . S
C183 C178 1.379 . S
C183 N181 1.356 . S
N184 C176 1.356 . S
N184 H190 0.984 . S
N184 H191 0.984 . S
N185 C178 1.356 . S
N185 H188 0.984 . S
N185 H189 0.985 . S
H186 N181 0.984 . S
H187 N181 0.985 . S
H188 N185 0.984 . S
H189 N185 0.985 . S
H190 N184 0.984 . S
H191 N184 0.984 . S
H192 N180 0.984 . S
H193 N180 0.985 . S
C194 C195 1.363 . S
C194 C200 1.379 . S
C194 N202 1.356 . S
C195 C194 1.363 . S
C195 C201 1.363 . S
C196 C197 1.363 . S
C196 C201 1.379 . S
C196 N203 1.356 . S
C197 C196 1.363 . S
C197 C200 1.363 . S
N198 C200 1.356 . S
N198 H210 0.984 1_565 S
N198 H211 0.985 . S
N199 C201 1.356 . S
N199 H204 0.984 . S
N199 H205 0.985 . S
C200 C194 1.379 . S
C200 C197 1.363 . S
C200 N198 1.356 . S
C201 C195 1.363 . S
C201 C196 1.379 . S
C201 N199 1.356 . S
N202 C194 1.356 . S
N202 H208 0.984 . S
N202 H209 0.984 . S
N203 C196 1.356 . S
N203 H206 0.984 . S
N203 H207 0.985 . S
H204 N199 0.984 . S
H205 N199 0.985 . S
H206 N203 0.984 . S
H207 N203 0.985 . S
H208 N202 0.984 . S
H209 N202 0.984 . S
H210 N198 0.984 1_545 S
H211 N198 0.985 . S
C212 C213 1.363 . S
C212 C218 1.379 . S
C212 N220 1.356 . S
C213 C212 1.363 . S
C213 C219 1.363 . S
C214 C215 1.363 . S
C214 C219 1.379 . S
C214 N221 1.356 . S
C215 C214 1.363 . S
C215 C218 1.363 . S
N216 C218 1.356 . S
N216 H228 0.984 . S
N216 H229 0.985 . S
N217 C219 1.356 . S
N217 H222 0.984 . S
N217 H223 0.985 . S
C218 C212 1.379 . S
C218 C215 1.363 . S
C218 N216 1.356 . S
C219 C213 1.363 . S
C219 C214 1.379 . S
C219 N217 1.356 . S
N220 C212 1.356 . S
N220 H226 0.984 . S
N220 H227 0.984 . S
N221 C214 1.356 . S
N221 H224 0.984 . S
N221 H225 0.985 . S
H222 N217 0.984 . S
H223 N217 0.985 . S
H224 N221 0.984 . S
H225 N221 0.985 . S
H226 N220 0.984 . S
H227 N220 0.984 . S
H228 N216 0.984 . S
H229 N216 0.985 . S
C230 C231 1.363 . S
C230 C236 1.379 . S
C230 N238 1.356 . S
C231 C230 1.363 . S
C231 C237 1.363 . S
C232 C233 1.363 . S
C232 C237 1.379 . S
C232 N239 1.356 . S
C233 C232 1.363 . S
C233 C236 1.363 . S
N234 C236 1.356 . S
N234 H246 0.984 . S
N234 H247 0.985 . S
N235 C237 1.356 . S
N235 H240 0.984 . S
N235 H241 0.985 . S
C236 C230 1.379 . S
C236 C233 1.363 . S
C236 N234 1.356 . S
C237 C231 1.363 . S
C237 C232 1.379 . S
C237 N235 1.356 . S
N238 C230 1.356 . S
N238 H244 0.984 . S
N238 H245 0.984 . S
N239 C232 1.356 . S
N239 H242 0.984 . S
N239 H243 0.985 . S
H240 N235 0.984 . S
H241 N235 0.985 . S
H242 N239 0.984 . S
H243 N239 0.985 . S
H244 N238 0.984 . S
H245 N238 0.984 . S
H246 N234 0.984 . S
H247 N234 0.985 . S
C248 C249 1.363 . S
C248 C254 1.379 . S
C248 N256 1.356 . S
C249 C248 1.363 . S
C249 C255 1.363 . S
C250 C251 1.363 . S
C250 C255 1.379 . S
C250 N257 1.356 . S
C251 C250 1.363 . S
C251 C254 1.363 . S
N252 C254 1.356 . S
N252 H264 0.984 . S
N252 H265 0.985 . S
N253 C255 1.356 . S
N253 H258 0.984 . S
N253 H259 0.985 . S
C254 C248 1.379 . S
C254 C251 1.363 . S
C254 N252 1.356 . S
C255 C249 1.363 . S
C255 C250 1.379 . S
C255 N253 1.356 . S
N256 C248 1.356 . S
N256 H262 0.984 . S
N256 H263 0.984 . S
N257 C250 1.356 . S
N257 H260 0.984 . S
N257 H261 0.985 . S
H258 N253 0.984 . S
H259 N253 0.985 . S
H260 N257 0.984 . S
H261 N257 0.985 . S
H262 N256 0.984 . S
H263 N256 0.984 . S
H264 N252 0.984 . S
H265 N252 0.985 . S
C266 C267 1.363 . S
C266 C272 1.379 . S
C266 N274 1.356 . S
C267 C266 1.363 . S
C267 C273 1.363 . S
C268 C269 1.363 . S
C268 C273 1.379 . S
C268 N275 1.356 . S
C269 C268 1.363 . S
C269 C272 1.363 . S
N270 C272 1.356 . S
N270 H282 0.984 . S
N270 H283 0.985 . S
N271 C273 1.356 . S
N271 H276 0.984 . S
N271 H277 0.985 . S
C272 C266 1.379 . S
C272 C269 1.363 . S
C272 N270 1.356 . S
C273 C267 1.363 . S
C273 C268 1.379 . S
C273 N271 1.356 . S
N274 C266 1.356 . S
N274 H280 0.984 . S
N274 H281 0.984 . S
N275 C268 1.356 . S
N275 H278 0.984 . S
N275 H279 0.985 . S
H276 N271 0.984 . S
H277 N271 0.985 . S
H278 N275 0.984 . S
H279 N275 0.985 . S
H280 N274 0.984 . S
H281 N274 0.984 . S
H282 N270 0.984 . S
H283 N270 0.985 . S
C284 C285 1.363 . S
C284 C290 1.379 . S
C284 N292 1.356 . S
C285 C284 1.363 . S
C285 C291 1.363 . S
C286 C287 1.363 . S
C286 C291 1.379 . S
C286 N293 1.356 . S
C287 C286 1.363 . S
C287 C290 1.363 . S
N288 C290 1.356 1_554 S
N288 H300 0.984 . S
N288 H301 0.985 . S
N289 C291 1.356 . S
N289 H294 0.984 . S
N289 H295 0.985 . S
C290 C284 1.379 . S
C290 C287 1.363 . S
C290 N288 1.356 1_556 S
C291 C285 1.363 . S
C291 C286 1.379 . S
C291 N289 1.356 . S
N292 C284 1.356 . S
N292 H298 0.984 1_556 S
N292 H299 0.984 . S
N293 C286 1.356 . S
N293 H296 0.984 . S
N293 H297 0.985 . S
H294 N289 0.984 . S
H295 N289 0.985 . S
H296 N293 0.984 . S
H297 N293 0.985 . S
H298 N292 0.984 1_554 S
H299 N292 0.984 . S
H300 N288 0.984 . S
H301 N288 0.985 . S
C302 C303 1.363 . S
C302 C308 1.379 . S
C302 N310 1.356 . S
C303 C302 1.363 . S
C303 C309 1.363 . S
C304 C305 1.363 . S
C304 C309 1.379 . S
C304 N311 1.356 . S
C305 C304 1.363 . S
C305 C308 1.363 . S
N306 C308 1.356 . S
N306 H318 0.984 . S
N306 H319 0.985 . S
N307 C309 1.356 . S
N307 H312 0.984 . S
N307 H313 0.985 . S
C308 C302 1.379 . S
C308 C305 1.363 . S
C308 N306 1.356 . S
C309 C303 1.363 . S
C309 C304 1.379 . S
C309 N307 1.356 . S
N310 C302 1.356 . S
N310 H316 0.984 . S
N310 H317 0.984 . S
N311 C304 1.356 . S
N311 H314 0.984 . S
N311 H315 0.985 . S
H312 N307 0.984 . S
H313 N307 0.985 . S
H314 N311 0.984 . S
H315 N311 0.985 . S
H316 N310 0.984 . S
H317 N310 0.984 . S
H318 N306 0.984 . S
H319 N306 0.985 . S
C320 C321 1.363 . S
C320 C326 1.379 . S
C320 N328 1.356 . S
C321 C320 1.363 . S
C321 C327 1.363 . S
C322 C323 1.363 . S
C322 C327 1.379 . S
C322 N329 1.356 . S
C323 C322 1.363 . S
C323 C326 1.363 . S
N324 C326 1.356 . S
N324 H336 0.984 . S
N324 H337 0.985 . S
N325 C327 1.356 . S
N325 H330 0.984 . S
N325 H331 0.985 . S
C326 C320 1.379 . S
C326 C323 1.363 . S
C326 N324 1.356 . S
C327 C321 1.363 . S
C327 C322 1.379 . S
C327 N325 1.356 . S
N328 C320 1.356 . S
N328 H334 0.984 . S
N328 H335 0.984 . S
N329 C322 1.356 . S
N329 H332 0.984 . S
N329 H333 0.985 . S
H330 N325 0.984 . S
H331 N325 0.985 . S
H332 N329 0.984 . S
H333 N329 0.985 . S
H334 N328 0.984 . S
H335 N328 0.984 . S
H336 N324 0.984 . S
H337 N324 0.985 . S
C338 C339 1.363 . S
C338 C344 1.379 . S
C338 N346 1.356 . S
C339 C338 1.363 . S
C339 C345 1.363 . S
C340 C341 1.363 . S
C340 C345 1.379 . S
C340 N347 1.356 1_556 S
C341 C340 1.363 . S
C341 C344 1.363 . S
N342 C344 1.356 . S
N342 H354 0.984 . S
N342 H355 0.985 . S
N343 C345 1.356 . S
N343 H348 0.984 . S
N343 H349 0.985 . S
C344 C338 1.379 . S
C344 C341 1.363 . S
C344 N342 1.356 . S
C345 C339 1.363 . S
C345 C340 1.379 . S
C345 N343 1.356 . S
N346 C338 1.356 . S
N346 H352 0.984 . S
N346 H353 0.984 . S
N347 C340 1.356 1_554 S
N347 H350 0.984 . S
N347 H351 0.985 . S
H348 N343 0.984 . S
H349 N343 0.985 . S
H350 N347 0.984 . S
H351 N347 0.985 . S
H352 N346 0.984 . S
H353 N346 0.984 . S
H354 N342 0.984 . S
H355 N342 0.985 . S
C356 C357 1.363 . S
C356 C362 1.379 . S
C356 N364 1.356 . S
C357 C356 1.363 . S
C357 C363 1.363 . S
C358 C359 1.363 . S
C358 C363 1.379 . S
C358 N365 1.356 . S
C359 C358 1.363 . S
C359 C362 1.363 . S
N360 C362 1.356 . S
N360 H372 0.984 . S
N360 H373 0.985 . S
N361 C363 1.356 . S
N361 H366 0.984 . S
N361 H367 0.985 . S
C362 C356 1.379 . S
C362 C359 1.363 . S
C362 N360 1.356 . S
C363 C357 1.363 . S
C363 C358 1.379 . S
C363 N361 1.356 . S
N364 C356 1.356 . S
N364 H370 0.984 . S
N364 H371 0.984 . S
N365 C358 1.356 . S
N365 H368 0.984 . S
N365 H369 0.985 1_655 S
H366 N361 0.984 . S
H367 N361 0.985 . S
H368 N365 0.984 . S
H369 N365 0.985 1_455 S
H370 N364 0.984 . S
H371 N364 0.984 . S
H372 N360 0.984 . S
H373 N360 0.985 . S
C374 C375 1.363 . S
C374 C380 1.379 . S
C374 N382 1.356 . S
C375 C374 1.363 . S
C375 C381 1.363 . S
C376 C377 1.363 . S
C376 C381 1.379 . S
C376 N383 1.356 . S
C377 C376 1.363 . S
C377 C380 1.363 . S
N378 C380 1.356 . S
N378 H390 0.984 . S
N378 H391 0.985 . S
N379 C381 1.356 . S
N379 H384 0.984 . S
N379 H385 0.985 . S
C380 C374 1.379 . S
C380 C377 1.363 . S
C380 N378 1.356 . S
C381 C375 1.363 . S
C381 C376 1.379 . S
C381 N379 1.356 . S
N382 C374 1.356 . S
N382 H388 0.984 . S
N382 H389 0.984 . S
N383 C376 1.356 . S
N383 H386 0.984 . S
N383 H387 0.985 . S
H384 N379 0.984 . S
H385 N379 0.985 . S
H386 N383 0.984 . S
H387 N383 0.985 . S
H388 N382 0.984 . S
H389 N382 0.984 . S
H390 N378 0.984 . S
H391 N378 0.985 . S
C392 C393 1.363 . S
C392 C398 1.379 . S
C392 N400 1.356 . S
C393 C392 1.363 . S
C393 C399 1.363 . S
C394 C395 1.363 . S
C394 C399 1.379 . S
C394 N401 1.356 . S
C395 C394 1.363 . S
C395 C398 1.363 . S
N396 C398 1.356 . S
N396 H408 0.984 . S
N396 H409 0.985 . S
N397 C399 1.356 . S
N397 H402 0.984 . S
N397 H403 0.985 . S
C398 C392 1.379 . S
C398 C395 1.363 . S
C398 N396 1.356 . S
C399 C393 1.363 . S
C399 C394 1.379 . S
C399 N397 1.356 . S
N400 C392 1.356 . S
N400 H406 0.984 . S
N400 H407 0.984 . S
N401 C394 1.356 . S
N401 H404 0.984 . S
N401 H405 0.985 . S
H402 N397 0.984 . S
H403 N397 0.985 . S
H404 N401 0.984 . S
H405 N401 0.985 . S
H406 N400 0.984 . S
H407 N400 0.984 . S
H408 N396 0.984 . S
H409 N396 0.985 . S
C410 C411 1.363 . S
C410 C416 1.379 . S
C410 N418 1.356 . S
C411 C410 1.363 . S
C411 C417 1.363 . S
C412 C413 1.363 . S
C412 C417 1.379 . S
C412 N419 1.356 . S
C413 C412 1.363 . S
C413 C416 1.363 . S
N414 C416 1.356 . S
N414 H426 0.984 . S
N414 H427 0.985 . S
N415 C417 1.356 . S
N415 H420 0.984 . S
N415 H421 0.985 . S
C416 C410 1.379 . S
C416 C413 1.363 . S
C416 N414 1.356 . S
C417 C411 1.363 . S
C417 C412 1.379 . S
C417 N415 1.356 . S
N418 C410 1.356 . S
N418 H424 0.984 . S
N418 H425 0.984 . S
N419 C412 1.356 . S
N419 H422 0.984 . S
N419 H423 0.985 . S
H420 N415 0.984 . S
H421 N415 0.985 . S
H422 N419 0.984 . S
H423 N419 0.985 . S
H424 N418 0.984 . S
H425 N418 0.984 . S
H426 N414 0.984 . S
H427 N414 0.985 . S
C428 C429 1.363 . S
C428 C434 1.379 . S
C428 N436 1.356 . S
C429 C428 1.363 . S
C429 C435 1.363 . S
C430 C431 1.363 . S
C430 C435 1.379 . S
C430 N437 1.356 . S
C431 C430 1.363 . S
C431 C434 1.363 . S
N432 C434 1.356 . S
N432 H444 0.984 . S
N432 H445 0.985 . S
N433 C435 1.356 . S
N433 H438 0.984 . S
N433 H439 0.985 . S
C434 C428 1.379 . S
C434 C431 1.363 . S
C434 N432 1.356 . S
C435 C429 1.363 . S
C435 C430 1.379 . S
C435 N433 1.356 . S
N436 C428 1.356 . S
N436 H442 0.984 . S
N436 H443 0.984 . S
N437 C430 1.356 . S
N437 H440 0.984 . S
N437 H441 0.985 . S
H438 N433 0.984 . S
H439 N433 0.985 . S
H440 N437 0.984 . S
H441 N437 0.985 . S
H442 N436 0.984 . S
H443 N436 0.984 . S
H444 N432 0.984 . S
H445 N432 0.985 . S
C446 C447 1.363 . S
C446 C452 1.379 . S
C446 N454 1.356 . S
C447 C446 1.363 . S
C447 C453 1.363 . S
C448 C449 1.363 . S
C448 C453 1.379 . S
C448 N455 1.356 . S
C449 C448 1.363 . S
C449 C452 1.363 . S
N450 C452 1.356 . S
N450 H462 0.984 1_455 S
N450 H463 0.985 . S
N451 C453 1.356 . S
N451 H456 0.984 . S
N451 H457 0.985 . S
C452 C446 1.379 . S
C452 C449 1.363 . S
C452 N450 1.356 . S
C453 C447 1.363 . S
C453 C448 1.379 . S
C453 N451 1.356 . S
N454 C446 1.356 . S
N454 H460 0.984 . S
N454 H461 0.984 . S
N455 C448 1.356 . S
N455 H458 0.984 . S
N455 H459 0.985 . S
H456 N451 0.984 . S
H457 N451 0.985 . S
H458 N455 0.984 . S
H459 N455 0.985 . S
H460 N454 0.984 . S
H461 N454 0.984 . S
H462 N450 0.984 1_655 S
H463 N450 0.985 . S
C464 C465 1.363 . S
C464 C470 1.379 . S
C464 N472 1.356 . S
C465 C464 1.363 . S
C465 C471 1.363 . S
C466 C467 1.363 . S
C466 C471 1.379 . S
C466 N473 1.356 . S
C467 C466 1.363 . S
C467 C470 1.363 . S
N468 C470 1.356 . S
N468 H480 0.984 . S
N468 H481 0.985 . S
N469 C471 1.356 . S
N469 H474 0.984 . S
N469 H475 0.985 . S
C470 C464 1.379 . S
C470 C467 1.363 . S
C470 N468 1.356 . S
C471 C465 1.363 . S
C471 C466 1.379 . S
C471 N469 1.356 . S
N472 C464 1.356 . S
N472 H478 0.984 . S
N472 H479 0.984 . S
N473 C466 1.356 . S
N473 H476 0.984 . S
N473 H477 0.985 1_556 S
H474 N469 0.984 . S
H475 N469 0.985 . S
H476 N473 0.984 . S
H477 N473 0.985 1_554 S
H478 N472 0.984 . S
H479 N472 0.984 . S
H480 N468 0.984 . S
H481 N468 0.985 . S
C482 C483 1.363 . S
C482 C488 1.379 . S
C482 N490 1.356 . S
C483 C482 1.363 . S
C483 C489 1.363 . S
C484 C485 1.363 . S
C484 C489 1.379 . S
C484 N491 1.356 . S
C485 C484 1.363 . S
C485 C488 1.363 . S
N486 C488 1.356 1_565 S
N486 H498 0.984 . S
N486 H499 0.985 . S
N487 C489 1.356 . S
N487 H492 0.984 . S
N487 H493 0.985 . S
C488 C482 1.379 . S
C488 C485 1.363 . S
C488 N486 1.356 1_545 S
C489 C483 1.363 . S
C489 C484 1.379 . S
C489 N487 1.356 . S
N490 C482 1.356 . S
N490 H496 0.984 . S
N490 H497 0.984 . S
N491 C484 1.356 . S
N491 H494 0.984 . S
N491 H495 0.985 . S
H492 N487 0.984 . S
H493 N487 0.985 . S
H494 N491 0.984 . S
H495 N491 0.985 . S
H496 N490 0.984 . S
H497 N490 0.984 . S
H498 N486 0.984 . S
H499 N486 0.985 . S
C500 C501 1.363 . S
C500 C506 1.379 . S
C500 N508 1.356 . S
C501 C500 1.363 . S
C501 C507 1.363 . S
C502 C503 1.363 . S
C502 C507 1.379 . S
C502 N509 1.356 . S
C503 C502 1.363 . S
C503 C506 1.363 . S
N504 C506 1.356 . S
N504 H516 0.984 . S
N504 H517 0.985 . S
N505 C507 1.356 . S
N505 H510 0.984 . S
N505 H511 0.985 . S
C506 C500 1.379 . S
C506 C503 1.363 . S
C506 N504 1.356 . S
C507 C501 1.363 . S
C507 C502 1.379 . S
C507 N505 1.356 . S
N508 C500 1.356 . S
N508 H514 0.984 . S
N508 H515 0.984 . S
N509 C502 1.356 . S
N509 H512 0.984 . S
N509 H513 0.985 . S
H510 N505 0.984 . S
H511 N505 0.985 . S
H512 N509 0.984 . S
H513 N509 0.985 . S
H514 N508 0.984 . S
H515 N508 0.984 . S
H516 N504 0.984 . S
H517 N504 0.985 . S
C518 C519 1.363 . S
C518 C524 1.379 . S
C518 N526 1.356 . S
C519 C518 1.363 . S
C519 C525 1.363 . S
C520 C521 1.363 . S
C520 C525 1.379 . S
C520 N527 1.356 . S
C521 C520 1.363 . S
C521 C524 1.363 . S
N522 C524 1.356 . S
N522 H534 0.984 . S
N522 H535 0.985 . S
N523 C525 1.356 . S
N523 H528 0.984 . S
N523 H529 0.985 . S
C524 C518 1.379 . S
C524 C521 1.363 . S
C524 N522 1.356 . S
C525 C519 1.363 . S
C525 C520 1.379 . S
C525 N523 1.356 . S
N526 C518 1.356 . S
N526 H532 0.984 . S
N526 H533 0.984 . S
N527 C520 1.356 . S
N527 H530 0.984 . S
N527 H531 0.985 . S
H528 N523 0.984 . S
H529 N523 0.985 . S
H530 N527 0.984 . S
H531 N527 0.985 . S
H532 N526 0.984 . S
H533 N526 0.984 . S
H534 N522 0.984 . S
H535 N522 0.985 . S
C536 C537 1.363 . S
C536 C542 1.379 . S
C536 N544 1.356 . S
C537 C536 1.363 . S
C537 C543 1.363 . S
C538 C539 1.363 . S
C538 C543 1.379 . S
C538 N545 1.356 . S
C539 C538 1.363 . S
C539 C542 1.363 . S
N540 C542 1.356 . S
N540 H552 0.984 . S
N540 H553 0.985 . S
N541 C543 1.356 . S
N541 H546 0.984 . S
N541 H547 0.985 . S
C542 C536 1.379 . S
C542 C539 1.363 . S
C542 N540 1.356 . S
C543 C537 1.363 . S
C543 C538 1.379 . S
C543 N541 1.356 . S
N544 C536 1.356 . S
N544 H550 0.984 . S
N544 H551 0.984 . S
N545 C538 1.356 . S
N545 H548 0.984 . S
N545 H549 0.985 . S
H546 N541 0.984 . S
H547 N541 0.985 . S
H548 N545 0.984 . S
H549 N545 0.985 . S
H550 N544 0.984 . S
H551 N544 0.984 . S
H552 N540 0.984 . S
H553 N540 0.985 . S
C554 C555 1.363 . S
C554 C560 1.379 . S
C554 N562 1.356 . S
C555 C554 1.363 . S
C555 C561 1.363 . S
C556 C557 1.363 . S
C556 C561 1.379 . S
C556 N563 1.356 . S
C557 C556 1.363 . S
C557 C560 1.363 . S
N558 C560 1.356 . S
N558 H570 0.984 . S
N558 H571 0.985 . S
N559 C561 1.356 . S
N559 H564 0.984 . S
N559 H565 0.985 . S
C560 C554 1.379 . S
C560 C557 1.363 . S
C560 N558 1.356 . S
C561 C555 1.363 . S
C561 C556 1.379 . S
C561 N559 1.356 . S
N562 C554 1.356 . S
N562 H568 0.984 . S
N562 H569 0.984 . S
N563 C556 1.356 . S
N563 H566 0.984 . S
N563 H567 0.985 . S
H564 N559 0.984 . S
H565 N559 0.985 . S
H566 N563 0.984 . S
H567 N563 0.985 . S
H568 N562 0.984 . S
H569 N562 0.984 . S
H570 N558 0.984 . S
H571 N558 0.985 . S
C572 C573 1.363 . S
C572 C578 1.379 . S
C572 N580 1.356 . S
C573 C572 1.363 . S
C573 C579 1.363 . S
C574 C575 1.363 . S
C574 C579 1.379 . S
C574 N581 1.356 . S
C575 C574 1.363 . S
C575 C578 1.363 . S
N576 C578 1.356 . S
N576 H588 0.984 . S
N576 H589 0.985 . S
N577 C579 1.356 . S
N577 H582 0.984 . S
N577 H583 0.985 . S
C578 C572 1.379 . S
C578 C575 1.363 . S
C578 N576 1.356 . S
C579 C573 1.363 . S
C579 C574 1.379 . S
C579 N577 1.356 . S
N580 C572 1.356 . S
N580 H586 0.984 . S
N580 H587 0.984 . S
N581 C574 1.356 . S
N581 H584 0.984 . S
N581 H585 0.985 . S
H582 N577 0.984 . S
H583 N577 0.985 . S
H584 N581 0.984 . S
H585 N581 0.985 . S
H586 N580 0.984 . S
H587 N580 0.984 . S
H588 N576 0.984 . S
H589 N576 0.985 . S
C590 C591 1.363 . S
C590 C596 1.379 . S
C590 N598 1.356 . S
C591 C590 1.363 . S
C591 C597 1.363 . S
C592 C593 1.363 . S
C592 C597 1.379 . S
C592 N599 1.356 . S
C593 C592 1.363 . S
C593 C596 1.363 . S
N594 C596 1.356 . S
N594 H606 0.984 . S
N594 H607 0.985 . S
N595 C597 1.356 . S
N595 H600 0.984 . S
N595 H601 0.985 . S
C596 C590 1.379 . S
C596 C593 1.363 . S
C596 N594 1.356 . S
C597 C591 1.363 . S
C597 C592 1.379 . S
C597 N595 1.356 . S
N598 C590 1.356 . S
N598 H604 0.984 . S
N598 H605 0.984 . S
N599 C592 1.356 . S
N599 H602 0.984 . S
N599 H603 0.985 . S
H600 N595 0.984 . S
H601 N595 0.985 . S
H602 N599 0.984 . S
H603 N599 0.985 . S
H604 N598 0.984 . S
H605 N598 0.984 . S
H606 N594 0.984 . S
H607 N594 0.985 . S
C177 C6 1.439 . S
C179 C98 1.456 . S
C195 C18 1.522 . S
C197 C117 1.490 . S
C215 C154 1.811 . S
C213 C28 1.841 . S
C231 C40 1.353 . S
C233 C164 1.315 . S
C251 C134 1.943 . S
C249 C9 1.884 . S
C269 C104 1.391 . S
C267 C16 1.456 . S
C287 C175 1.557 . S
C285 C30 1.579 . S
C305 C145 1.235 . S
C303 C42 1.264 . S
C321 C4 1.558 . S
C323 C158 1.591 . S
C341 C125 1.811 . S
C339 C33 1.874 . S
C357 C45 1.604 . S
C359 C115 1.594 . S
C375 C21 1.394 . S
C377 C137 1.395 . S
C395 C97 1.458 . S
C393 C57 1.464 . S
C411 C66 1.535 . S
C413 C118 1.484 . S
C429 C76 1.881 . S
C431 C155 1.840 . S
C447 C88 1.302 . S
C449 C165 1.273 . S
C465 C54 1.862 . S
C467 C135 1.919 . S
C485 C105 1.445 . S
C483 C64 1.511 . S
C503 C174 1.475 . S
C501 C78 1.505 . S
C521 C144 1.252 . S
C519 C93 1.282 . S
C537 C52 1.512 . S
C539 C157 1.579 . S
C557 C124 1.801 . S
C555 C81 1.866 . S
C575 C114 1.596 . S
C573 C90 1.600 . S
C591 C69 1.409 . S
C593 C138 1.412 . S
