# Generated by pormake.
# Topology eea, (3,6)-cn, num edge types: 1
# Building blocks:
#     Node 0, Type 0, BuildingBlock: CUQRIR_clean_linker_1, # of connection points: 3
#     Node 1, Type 0, BuildingBlock: CUQRIR_clean_linker_1, # of connection points: 3
#     Node 2, Type 0, BuildingBlock: CUQRIR_clean_linker_1, # of connection points: 3
#     Node 3, Type 0, BuildingBlock: CUQRIR_clean_linker_1, # of connection points: 3
#     Node 4, Type 0, BuildingBlock: CUQRIR_clean_linker_1, # of connection points: 3
#     Node 5, Type 0, BuildingBlock: CUQRIR_clean_linker_1, # of connection points: 3
#     Node 6, Type 0, BuildingBlock: CUQRIR_clean_linker_1, # of connection points: 3
#     Node 7, Type 0, BuildingBlock: CUQRIR_clean_linker_1, # of connection points: 3
#     Node 8, Type 0, BuildingBlock: CUQRIR_clean_linker_1, # of connection points: 3
#     Node 9, Type 0, BuildingBlock: CUQRIR_clean_linker_1, # of connection points: 3
#     Node 10, Type 0, BuildingBlock: CUQRIR_clean_linker_1, # of connection points: 3
#     Node 11, Type 0, BuildingBlock: CUQRIR_clean_linker_1, # of connection points: 3
#     Node 12, Type 0, BuildingBlock: CUQRIR_clean_linker_1, # of connection points: 3
#     Node 13, Type 0, BuildingBlock: CUQRIR_clean_linker_1, # of connection points: 3
#     Node 14, Type 0, BuildingBlock: CUQRIR_clean_linker_1, # of connection points: 3
#     Node 15, Type 0, BuildingBlock: CUQRIR_clean_linker_1, # of connection points: 3
#     Node 16, Type 0, BuildingBlock: CUQRIR_clean_linker_1, # of connection points: 3
#     Node 17, Type 0, BuildingBlock: CUQRIR_clean_linker_1, # of connection points: 3
#     Node 18, Type 1, BuildingBlock: KUMJIN_clean_sbu_0, # of connection points: 6
#     Node 19, Type 1, BuildingBlock: KUMJIN_clean_sbu_0, # of connection points: 6
#     Node 20, Type 1, BuildingBlock: KUMJIN_clean_sbu_0, # of connection points: 6
#     Node 21, Type 1, BuildingBlock: KUMJIN_clean_sbu_0, # of connection points: 6
#     Node 22, Type 1, BuildingBlock: KUMJIN_clean_sbu_0, # of connection points: 6
#     Node 23, Type 1, BuildingBlock: KUMJIN_clean_sbu_0, # of connection points: 6
#     Node 24, Type 1, BuildingBlock: KUMJIN_clean_sbu_0, # of connection points: 6
#     Node 25, Type 1, BuildingBlock: KUMJIN_clean_sbu_0, # of connection points: 6
#     Node 26, Type 1, BuildingBlock: KUMJIN_clean_sbu_0, # of connection points: 6
#     Edge 27, Type (0, 1), BuildingBlock: XIVTED_clean_linker_0, # of connection points: 2
#     Edge 28, Type (0, 1), BuildingBlock: XIVTED_clean_linker_0, # of connection points: 2
#     Edge 29, Type (0, 1), BuildingBlock: XIVTED_clean_linker_0, # of connection points: 2
#     Edge 30, Type (0, 1), BuildingBlock: XIVTED_clean_linker_0, # of connection points: 2
#     Edge 31, Type (0, 1), BuildingBlock: XIVTED_clean_linker_0, # of connection points: 2
#     Edge 32, Type (0, 1), BuildingBlock: XIVTED_clean_linker_0, # of connection points: 2
#     Edge 33, Type (0, 1), BuildingBlock: XIVTED_clean_linker_0, # of connection points: 2
#     Edge 34, Type (0, 1), BuildingBlock: XIVTED_clean_linker_0, # of connection points: 2
#     Edge 35, Type (0, 1), BuildingBlock: XIVTED_clean_linker_0, # of connection points: 2
#     Edge 36, Type (0, 1), BuildingBlock: XIVTED_clean_linker_0, # of connection points: 2
#     Edge 37, Type (0, 1), BuildingBlock: XIVTED_clean_linker_0, # of connection points: 2
#     Edge 38, Type (0, 1), BuildingBlock: XIVTED_clean_linker_0, # of connection points: 2
#     Edge 39, Type (0, 1), BuildingBlock: XIVTED_clean_linker_0, # of connection points: 2
#     Edge 40, Type (0, 1), BuildingBlock: XIVTED_clean_linker_0, # of connection points: 2
#     Edge 41, Type (0, 1), BuildingBlock: XIVTED_clean_linker_0, # of connection points: 2
#     Edge 42, Type (0, 1), BuildingBlock: XIVTED_clean_linker_0, # of connection points: 2
#     Edge 43, Type (0, 1), BuildingBlock: XIVTED_clean_linker_0, # of connection points: 2
#     Edge 44, Type (0, 1), BuildingBlock: XIVTED_clean_linker_0, # of connection points: 2
#     Edge 45, Type (0, 1), BuildingBlock: XIVTED_clean_linker_0, # of connection points: 2
#     Edge 46, Type (0, 1), BuildingBlock: XIVTED_clean_linker_0, # of connection points: 2
#     Edge 47, Type (0, 1), BuildingBlock: XIVTED_clean_linker_0, # of connection points: 2
#     Edge 48, Type (0, 1), BuildingBlock: XIVTED_clean_linker_0, # of connection points: 2
#     Edge 49, Type (0, 1), BuildingBlock: XIVTED_clean_linker_0, # of connection points: 2
#     Edge 50, Type (0, 1), BuildingBlock: XIVTED_clean_linker_0, # of connection points: 2
#     Edge 51, Type (0, 1), BuildingBlock: XIVTED_clean_linker_0, # of connection points: 2
#     Edge 52, Type (0, 1), BuildingBlock: XIVTED_clean_linker_0, # of connection points: 2
#     Edge 53, Type (0, 1), BuildingBlock: XIVTED_clean_linker_0, # of connection points: 2
#     Edge 54, Type (0, 1), BuildingBlock: XIVTED_clean_linker_0, # of connection points: 2
#     Edge 55, Type (0, 1), BuildingBlock: XIVTED_clean_linker_0, # of connection points: 2
#     Edge 56, Type (0, 1), BuildingBlock: XIVTED_clean_linker_0, # of connection points: 2
#     Edge 57, Type (0, 1), BuildingBlock: XIVTED_clean_linker_0, # of connection points: 2
#     Edge 58, Type (0, 1), BuildingBlock: XIVTED_clean_linker_0, # of connection points: 2
#     Edge 59, Type (0, 1), BuildingBlock: XIVTED_clean_linker_0, # of connection points: 2
#     Edge 60, Type (0, 1), BuildingBlock: XIVTED_clean_linker_0, # of connection points: 2
#     Edge 61, Type (0, 1), BuildingBlock: XIVTED_clean_linker_0, # of connection points: 2
#     Edge 62, Type (0, 1), BuildingBlock: XIVTED_clean_linker_0, # of connection points: 2
#     Edge 63, Type (0, 1), BuildingBlock: XIVTED_clean_linker_0, # of connection points: 2
#     Edge 64, Type (0, 1), BuildingBlock: XIVTED_clean_linker_0, # of connection points: 2
#     Edge 65, Type (0, 1), BuildingBlock: XIVTED_clean_linker_0, # of connection points: 2
#     Edge 66, Type (0, 1), BuildingBlock: XIVTED_clean_linker_0, # of connection points: 2
#     Edge 67, Type (0, 1), BuildingBlock: XIVTED_clean_linker_0, # of connection points: 2
#     Edge 68, Type (0, 1), BuildingBlock: XIVTED_clean_linker_0, # of connection points: 2
#     Edge 69, Type (0, 1), BuildingBlock: XIVTED_clean_linker_0, # of connection points: 2
#     Edge 70, Type (0, 1), BuildingBlock: XIVTED_clean_linker_0, # of connection points: 2
#     Edge 71, Type (0, 1), BuildingBlock: XIVTED_clean_linker_0, # of connection points: 2
#     Edge 72, Type (0, 1), BuildingBlock: XIVTED_clean_linker_0, # of connection points: 2
#     Edge 73, Type (0, 1), BuildingBlock: XIVTED_clean_linker_0, # of connection points: 2
#     Edge 74, Type (0, 1), BuildingBlock: XIVTED_clean_linker_0, # of connection points: 2
#     Edge 75, Type (0, 1), BuildingBlock: XIVTED_clean_linker_0, # of connection points: 2
#     Edge 76, Type (0, 1), BuildingBlock: XIVTED_clean_linker_0, # of connection points: 2
#     Edge 77, Type (0, 1), BuildingBlock: XIVTED_clean_linker_0, # of connection points: 2
#     Edge 78, Type (0, 1), BuildingBlock: XIVTED_clean_linker_0, # of connection points: 2
#     Edge 79, Type (0, 1), BuildingBlock: XIVTED_clean_linker_0, # of connection points: 2
#     Edge 80, Type (0, 1), BuildingBlock: XIVTED_clean_linker_0, # of connection points: 2
# Relax obj value: 0.040
# Max RMSD: 0.206
# Mean RMSD: 0.147
data_MOF--net-eea--node1-KUMJIN_clean_sbu_0--node2-CUQRIR_clean_linker_1--edge1-XIVTED_clean_linker_0
_symmetry_space_group_name_H-M    P1
_symmetry_Int_Tables_number       1
_symmetry_cell_setting            triclinic
loop_
_symmetry_equiv_pos_as_xyz
'x, y, z'
_cell_length_a     48.070319
_cell_length_b     51.495231
_cell_length_c     63.850386
_cell_angle_alpha  83.116753
_cell_angle_beta   89.848796
_cell_angle_gamma 118.74943
loop_
_atom_site_label
_atom_site_type_symbol
_atom_site_fract_x
_atom_site_fract_y
_atom_site_fract_z
_atom_type_partial_charge
C0 C 0.21946 0.10646 0.41291 0.0
N1 N 0.23087 0.12965 0.42439 0.0
N2 N 0.22801 0.08579 0.42068 0.0
C3 C 0.20264 0.10537 0.39291 0.0
C4 C 0.24513 0.09734 0.43726 0.0
N5 N 0.24718 0.12405 0.43936 0.0
C6 C 0.25767 0.08144 0.45251 0.0
H7 H 0.17662 0.09404 0.39694 0.0
H8 H 0.20755 0.09267 0.38196 0.0
H9 H 0.21016 0.12825 0.38477 0.0
H10 H 0.28237 0.08798 0.44703 0.0
H11 H 0.24292 0.05682 0.45343 0.0
H12 H 0.25808 0.08776 0.46857 0.0
C13 C 0.90155 0.11928 0.41153 0.0
N14 N 0.91485 0.14126 0.42406 0.0
N15 N 0.87206 0.09791 0.41964 0.0
C16 C 0.91605 0.12013 0.39037 0.0
C17 C 0.86796 0.10774 0.43757 0.0
N18 N 0.89368 0.13406 0.44019 0.0
C19 C 0.83936 0.09103 0.45312 0.0
H20 H 0.89736 0.10829 0.37958 0.0
H21 H 0.93076 0.10888 0.39264 0.0
H22 H 0.93155 0.14351 0.38288 0.0
H23 H 0.82793 0.06659 0.45266 0.0
H24 H 0.82186 0.09875 0.44905 0.0
H25 H 0.84608 0.09548 0.46945 0.0
C26 C 0.91628 0.83996 0.4137 0.0
N27 N 0.92936 0.82634 0.42632 0.0
N28 N 0.88753 0.83343 0.42225 0.0
C29 C 0.92902 0.85514 0.39149 0.0
C30 C 0.88372 0.81549 0.44051 0.0
N31 N 0.90896 0.81092 0.44293 0.0
C32 C 0.85382 0.80006 0.45493 0.0
H33 H 0.91449 0.86462 0.38398 0.0
H34 H 0.92945 0.83876 0.38184 0.0
H35 H 0.95382 0.8734 0.39164 0.0
H36 H 0.83781 0.7779 0.45008 0.0
H37 H 0.8412 0.81337 0.45387 0.0
H38 H 0.85942 0.7965 0.47153 0.0
C39 C 0.08799 0.18119 0.64723 0.0
N40 N 0.11259 0.19079 0.63279 0.0
N41 N 0.06315 0.18202 0.63807 0.0
C42 C 0.08958 0.17468 0.67066 0.0
C43 C 0.07351 0.19234 0.61748 0.0
N44 N 0.10366 0.19755 0.61422 0.0
C45 C 0.05585 0.20125 0.60128 0.0
H46 H 0.10679 0.1664 0.67405 0.0
H47 H 0.06581 0.1579 0.67818 0.0
H48 H 0.09751 0.1956 0.67772 0.0
H49 H 0.06884 0.2259 0.59683 0.0
H50 H 0.0312 0.1941 0.60728 0.0
H51 H 0.05484 0.19099 0.5868 0.0
C52 C 0.78931 0.90718 0.63851 0.0
N53 N 0.78046 0.88537 0.62591 0.0
N54 N 0.78609 0.93044 0.62884 0.0
C55 C 0.79963 0.90511 0.66062 0.0
C56 C 0.77533 0.9221 0.60988 0.0
N57 N 0.7722 0.89494 0.60798 0.0
C58 C 0.76667 0.94 0.59344 0.0
H59 H 0.77821 0.89317 0.67181 0.0
H60 H 0.81471 0.92741 0.66541 0.0
H61 H 0.81294 0.89244 0.662 0.0
H62 H 0.77146 0.93648 0.57731 0.0
H63 H 0.78014 0.9642 0.59483 0.0
H64 H 0.74087 0.93239 0.59573 0.0
C65 C 0.1114 0.91855 0.641 0.0
N66 N 0.09869 0.89482 0.62995 0.0
N67 N 0.14003 0.94024 0.63172 0.0
C68 C 0.09687 0.92001 0.66142 0.0
C69 C 0.14429 0.92875 0.61474 0.0
N70 N 0.11936 0.90128 0.61369 0.0
C71 C 0.1733 0.94418 0.59945 0.0
H72 H 0.10549 0.94354 0.66395 0.0
H73 H 0.10383 0.90879 0.67466 0.0
H74 H 0.07059 0.90839 0.66182 0.0
H75 H 0.17697 0.92807 0.59139 0.0
H76 H 0.19487 0.95757 0.60771 0.0
H77 H 0.17015 0.95956 0.58719 0.0
C78 C 0.88108 0.43904 0.74506 0.0
N79 N 0.89259 0.46225 0.75654 0.0
N80 N 0.88517 0.41627 0.75474 0.0
C81 C 0.86553 0.43823 0.72453 0.0
C82 C 0.89939 0.42646 0.77254 0.0
N83 N 0.90371 0.45419 0.77369 0.0
C84 C 0.90878 0.40926 0.78906 0.0
H85 H 0.83935 0.42504 0.72776 0.0
H86 H 0.87273 0.42703 0.71355 0.0
H87 H 0.87123 0.46074 0.71672 0.0
H88 H 0.93379 0.41497 0.7853 0.0
H89 H 0.89336 0.3848 0.78941 0.0
H90 H 0.90726 0.41538 0.80494 0.0
C91 C 0.57351 0.45507 0.74484 0.0
N92 N 0.58687 0.47701 0.75737 0.0
N93 N 0.54465 0.43309 0.75348 0.0
C94 C 0.58831 0.45524 0.72399 0.0
C95 C 0.54097 0.44253 0.7717 0.0
N96 N 0.5665 0.46908 0.77411 0.0
C97 C 0.51158 0.42665 0.78663 0.0
H98 H 0.5809 0.46676 0.71125 0.0
H99 H 0.58025 0.43209 0.72071 0.0
H100 H 0.61462 0.46736 0.72358 0.0
H101 H 0.51458 0.41126 0.79896 0.0
H102 H 0.4902 0.4134 0.77816 0.0
H103 H 0.50777 0.44281 0.79459 0.0
C104 C 0.59246 0.18746 0.75451 0.0
N105 N 0.60295 0.1718 0.76751 0.0
N106 N 0.56404 0.183 0.76216 0.0
C107 C 0.60666 0.20207 0.73242 0.0
C108 C 0.55795 0.16441 0.78046 0.0
N109 N 0.58132 0.15724 0.7836 0.0
C110 C 0.52697 0.15007 0.7937 0.0
H111 H 0.6327 0.21669 0.73259 0.0
H112 H 0.59592 0.21563 0.72533 0.0
H113 H 0.60259 0.18452 0.72242 0.0
H114 H 0.51012 0.12893 0.78785 0.0
H115 H 0.5163 0.16506 0.79248 0.0
H116 H 0.53063 0.14475 0.81049 0.0
C117 C 0.76502 0.53278 0.98198 0.0
N118 N 0.78833 0.54257 0.96656 0.0
N119 N 0.73874 0.53185 0.97395 0.0
C120 C 0.76832 0.52531 1.00502 0.0
C121 C 0.74692 0.54155 0.95305 0.0
N122 N 0.7772 0.54781 0.94848 0.0
C123 C 0.72692 0.54864 0.93773 0.0
H124 H 0.74471 0.5102 0.01348 0.0
H125 H 0.77979 0.54628 0.01224 0.0
H126 H 0.78363 0.51464 1.00692 0.0
H127 H 0.7072 0.54968 0.94593 0.0
H128 H 0.7166 0.53095 0.92731 0.0
H129 H 0.7418 0.5703 0.92759 0.0
C130 C 0.45799 0.23944 0.97372 0.0
N131 N 0.4489 0.21756 0.96118 0.0
N132 N 0.45499 0.26279 0.964 0.0
C133 C 0.46845 0.23746 0.99579 0.0
C134 C 0.44409 0.25443 0.94506 0.0
N135 N 0.44074 0.22718 0.94322 0.0
C136 C 0.43543 0.27234 0.92865 0.0
H137 H 0.44713 0.22587 1.00707 0.0
H138 H 0.48388 0.25979 1.00043 0.0
H139 H 0.48149 0.22453 0.99721 0.0
H140 H 0.44883 0.29653 0.93009 0.0
H141 H 0.40961 0.26466 0.93091 0.0
H142 H 0.44029 0.2689 0.91251 0.0
C143 C 0.77864 0.24944 0.97513 0.0
N144 N 0.76679 0.22557 0.96423 0.0
N145 N 0.80779 0.27098 0.96653 0.0
C146 C 0.76152 0.25174 0.99399 0.0
C147 C 0.81329 0.25924 0.95014 0.0
N148 N 0.78859 0.23173 0.94878 0.0
C149 C 0.84286 0.27489 0.93537 0.0
H150 H 0.74306 0.25749 0.98843 0.0
H151 H 0.77768 0.26932 1.00322 0.0
H152 H 0.74947 0.22994 1.00441 0.0
H153 H 0.84753 0.25888 0.92793 0.0
H154 H 0.86386 0.28893 0.94387 0.0
H155 H 0.83973 0.28971 0.92261 0.0
C156 C 0.54664 0.77016 0.07952 0.0
N157 N 0.55786 0.79315 0.09119 0.0
N158 N 0.55034 0.7472 0.08925 0.0
C159 C 0.53196 0.7698 0.05868 0.0
C160 C 0.56405 0.75705 0.10727 0.0
N161 N 0.56842 0.78478 0.1085 0.0
C162 C 0.5731 0.7396 0.12381 0.0
H163 H 0.50582 0.7554 0.06126 0.0
H164 H 0.54083 0.76006 0.04751 0.0
H165 H 0.53666 0.79225 0.05142 0.0
H166 H 0.59826 0.74555 0.12038 0.0
H167 H 0.55789 0.71518 0.12383 0.0
H168 H 0.57096 0.74531 0.13974 0.0
C169 C 0.24142 0.7853 0.07921 0.0
N170 N 0.25431 0.80717 0.09183 0.0
N171 N 0.21134 0.76445 0.0866 0.0
C172 C 0.25716 0.78573 0.05867 0.0
C173 C 0.2065 0.77453 0.1042 0.0
N174 N 0.23236 0.80048 0.1073 0.0
C175 C 0.17701 0.75836 0.11902 0.0
H176 H 0.27363 0.80901 0.05138 0.0
H177 H 0.23922 0.77433 0.04733 0.0
H178 H 0.27113 0.77386 0.0618 0.0
H179 H 0.1651 0.73391 0.11852 0.0
H180 H 0.16027 0.76675 0.11426 0.0
H181 H 0.18283 0.76261 0.1355 0.0
C182 C 0.25127 0.50697 0.08798 0.0
N183 N 0.26259 0.49201 0.10093 0.0
N184 N 0.22242 0.50136 0.09568 0.0
C185 C 0.26548 0.52221 0.06598 0.0
C186 C 0.21685 0.48273 0.11387 0.0
N187 N 0.24101 0.47668 0.11695 0.0
C188 C 0.18618 0.46805 0.12748 0.0
H189 H 0.25297 0.53378 0.05837 0.0
H190 H 0.26421 0.50533 0.05617 0.0
H191 H 0.29092 0.53881 0.06655 0.0
H192 H 0.16962 0.44646 0.12207 0.0
H193 H 0.17479 0.48245 0.12618 0.0
H194 H 0.19049 0.46348 0.14425 0.0
C195 C 0.41558 0.8359 0.29996 0.0
N196 N 0.44167 0.84973 0.28629 0.0
N197 N 0.39257 0.84186 0.29272 0.0
C198 C 0.41494 0.82167 0.32211 0.0
C199 C 0.40557 0.85961 0.27409 0.0
N200 N 0.43552 0.8647 0.27027 0.0
C201 C 0.38993 0.8743 0.26072 0.0
H202 H 0.39063 0.80996 0.33001 0.0
H203 H 0.43098 0.83924 0.33149 0.0
H204 H 0.42381 0.80542 0.32181 0.0
H205 H 0.39608 0.89608 0.26601 0.0
H206 H 0.36367 0.86011 0.26251 0.0
H207 H 0.39835 0.87844 0.24384 0.0
C208 C 0.12094 0.57157 0.30757 0.0
N209 N 0.11259 0.5498 0.295 0.0
N210 N 0.11741 0.5946 0.29785 0.0
C211 C 0.13544 0.57172 0.32846 0.0
C212 C 0.10689 0.58622 0.27885 0.0
N213 N 0.10438 0.55925 0.27697 0.0
C214 C 0.09646 0.60316 0.26281 0.0
H215 H 0.11619 0.56074 0.34131 0.0
H216 H 0.15159 0.59493 0.33146 0.0
H217 H 0.149 0.55931 0.32887 0.0
H218 H 0.11682 0.61826 0.25129 0.0
H219 H 0.08843 0.61684 0.2705 0.0
H220 H 0.0768 0.58765 0.25401 0.0
C221 C 0.44412 0.57729 0.31267 0.0
N222 N 0.43128 0.55453 0.30081 0.0
N223 N 0.47229 0.59982 0.30338 0.0
C224 C 0.42882 0.57782 0.33306 0.0
C225 C 0.47593 0.58982 0.2854 0.0
N226 N 0.45102 0.56253 0.28374 0.0
C227 C 0.5049 0.60575 0.27011 0.0
H228 H 0.40256 0.56412 0.3336 0.0
H229 H 0.43529 0.60107 0.33522 0.0
H230 H 0.43742 0.56832 0.34639 0.0
H231 H 0.52636 0.61987 0.2782 0.0
H232 H 0.50108 0.6203 0.25751 0.0
H233 H 0.50911 0.58952 0.26254 0.0
Eu234 Eu 0.50067 0.99401 1.00338 0.0
C235 C 0.57205 0.10059 0.05424 0.0
C236 C 0.62666 0.11138 0.04919 0.0
C237 C 0.61515 0.15142 0.05398 0.0
C238 C 0.59373 0.09101 0.05066 0.0
C239 C 0.58251 0.13073 0.0566 0.0
C240 C 0.6372 0.14176 0.05027 0.0
C241 C 0.52815 0.11698 0.06652 0.0
N242 N 0.54082 0.07994 0.05707 0.0
C243 C 0.51907 0.08734 0.06421 0.0
C244 C 0.55997 0.1389 0.06235 0.0
Eu245 Eu 0.52648 0.03039 0.05168 0.0
N246 N 0.5827 0.06149 0.04974 0.0
C247 C 0.60353 0.05053 0.04911 0.0
C248 C 0.64801 0.10047 0.04727 0.0
C249 C 0.63638 0.06984 0.04762 0.0
H250 H 0.49444 0.07034 0.06753 0.0
H251 H 0.6527 0.06107 0.04658 0.0
H252 H 0.66237 0.15778 0.04887 0.0
H253 H 0.51064 0.12286 0.07157 0.0
H254 H 0.59519 0.02702 0.04915 0.0
H255 H 0.37192 0.9509 0.00989 0.0
H256 H 0.67347 0.11538 0.04604 0.0
H257 H 0.54015 0.96188 0.98521 0.0
H258 H 0.42829 0.98946 1.00723 0.0
H259 H 0.5299 0.91161 0.97885 0.0
H260 H 0.62363 0.17474 0.05547 0.0
H261 H 0.35721 0.898 0.00885 0.0
H262 H 0.37454 0.86011 1.00393 0.0
H263 H 0.56704 0.16182 0.06432 0.0
H264 H 0.41762 0.84931 0.99557 0.0
N265 N 0.44569 0.95874 1.00536 0.0
C266 C 0.42236 0.96654 1.00669 0.0
C267 C 0.38207 0.91486 1.00769 0.0
C268 C 0.40604 0.90729 1.00492 0.0
C269 C 0.39028 0.9447 0.00822 0.0
C270 C 0.43806 0.93008 1.00361 0.0
H271 H 0.47559 0.86847 0.98578 0.0
N272 N 0.49254 0.94682 0.99655 0.0
C273 C 0.5107 0.91469 0.98474 0.0
C274 C 0.46225 0.92391 0.99911 0.0
C275 C 0.51644 0.94306 0.98834 0.0
C276 C 0.48003 0.89039 0.98873 0.0
C277 C 0.45519 0.89494 0.99554 0.0
O278 O 0.5272 0.01005 0.97261 0.0
O279 O 0.53751 0.03316 0.01735 0.0
O280 O 0.51148 0.05907 0.03006 0.0
O281 O 0.4835 0.02813 1.00488 0.0
O282 O 0.55417 0.01376 0.99772 0.0
O283 O 0.4789 1.00247 0.9752 0.0
O284 O 0.50758 0.02671 0.08372 0.0
O285 O 0.48883 0.99223 0.03762 0.0
O286 O 0.51263 0.96336 0.02495 0.0
O287 O 0.54 0.99344 0.0507 0.0
O288 O 0.47323 0.01122 0.05821 0.0
O289 O 0.53993 0.00958 0.07853 0.0
C290 C 0.56243 0.03554 0.00868 0.0
C291 C 0.49758 0.99545 0.9431 0.0
C292 C 0.5105 1.00082 0.90532 0.0
C293 C 0.51388 0.01334 0.92417 0.0
C294 C 0.49039 0.96988 0.90577 0.0
C295 C 0.47744 0.9647 0.94328 0.0
C296 C 0.47397 0.952 0.92466 0.0
C297 C 0.49268 0.05241 0.01416 0.0
C298 C 0.50346 0.00934 0.96251 0.0
C299 C 0.4235 0.87181 0.99799 0.0
C300 C 0.39896 0.87797 1.00271 0.0
C301 C 0.46419 0.98995 0.04671 0.0
C302 C 0.54084 0.02689 0.11098 0.0
C303 C 0.53395 1.00756 0.12992 0.0
C304 C 0.54997 0.01803 0.14802 0.0
C305 C 0.57312 0.04831 0.14687 0.0
C306 C 0.56412 0.05698 0.10997 0.0
C307 C 0.58017 0.06761 0.12789 0.0
C308 C 0.53051 0.9692 0.04127 0.0
C309 C 0.524 0.01475 0.09244 0.0
H310 H 0.5289 0.03718 0.92416 0.0
H311 H 0.48745 0.95948 0.89157 0.0
H312 H 0.46455 0.95056 0.95773 0.0
H313 H 0.45853 0.92823 0.92487 0.0
H314 H 0.51564 0.9844 0.13061 0.0
H315 H 0.58587 0.05697 0.16057 0.0
H316 H 0.56988 0.07216 0.09542 0.0
H317 H 0.59812 0.09086 0.12708 0.0
Eu318 Eu 0.03292 0.53344 0.99406 0.0
C319 C 0.9136 0.4791 0.05874 0.0
C320 C 0.89744 0.51712 0.0542 0.0
C321 C 0.85781 0.46502 0.06434 0.0
C322 C 0.92128 0.50865 0.05359 0.0
C323 C 0.88195 0.45704 0.0649 0.0
C324 C 0.86554 0.49504 0.05894 0.0
C325 C 0.90106 0.42178 0.07419 0.0
N326 N 0.93755 0.47232 0.05938 0.0
C327 C 0.93207 0.44454 0.06798 0.0
C328 C 0.87578 0.42792 0.07227 0.0
Eu329 Eu 0.98926 0.51119 0.04752 0.0
N330 N 0.95239 0.52934 0.04947 0.0
C331 C 0.96155 0.55912 0.0477 0.0
C332 C 0.90654 0.54757 0.05085 0.0
C333 C 0.93879 0.56868 0.04802 0.0
H334 H 0.95161 0.43976 0.06935 0.0
H335 H 0.94616 0.59232 0.04596 0.0
H336 H 0.84684 0.50106 0.05923 0.0
H337 H 0.89669 0.39956 0.08041 0.0
H338 H 0.98632 0.57573 0.04532 0.0
H339 H 0.07247 0.45031 0.99269 0.0
H340 H 0.88897 0.55503 0.05112 0.0
H341 H 0.0733 0.60701 0.97737 0.0
H342 H 0.03347 0.46817 0.99485 0.0
H343 H 0.12904 0.6466 0.96802 0.0
H344 H 0.83327 0.44834 0.06874 0.0
H345 H 0.12996 0.4866 0.98737 0.0
H346 H 0.17325 0.54021 0.98072 0.0
H347 H 0.8518 0.41031 0.07718 0.0
H348 H 0.18868 0.59366 0.97403 0.0
N349 N 0.06845 0.51419 0.99118 0.0
C350 C 0.05842 0.4843 0.99238 0.0
C351 C 0.11292 0.4946 0.98826 0.0
C352 C 0.12291 0.52525 0.98587 0.0
C353 C 0.08049 0.47405 0.9912 0.0
C354 C 0.09975 0.53447 0.98723 0.0
H355 H 0.17232 0.63352 0.96895 0.0
N356 N 0.08535 0.57235 0.98411 0.0
C357 C 0.12361 0.62362 0.9725 0.0
C358 C 0.10848 0.5645 0.98362 0.0
C359 C 0.09216 0.60123 0.97774 0.0
C360 C 0.14798 0.61615 0.9731 0.0
C361 C 0.14053 0.58622 0.97834 0.0
O362 O 0.0232 0.55281 0.96456 0.0
O363 O 0.99159 0.52763 0.01337 0.0
O364 O 0.95935 0.47392 0.02853 0.0
O365 O 0.99354 0.48404 0.99858 0.0
O366 O 0.01384 0.56607 0.99166 0.0
O367 O 0.02104 0.50965 0.96641 0.0
O368 O 0.00121 0.49407 0.07716 0.0
O369 O 0.02992 0.51643 0.02787 0.0
O370 O 0.0637 0.56773 0.01493 0.0
O371 O 0.02671 0.5611 0.04182 0.0
O372 O 0.00956 0.47925 0.05042 0.0
O373 O 0.00245 0.53681 0.07419 0.0
C374 C 0.9901 0.55046 1.00544 0.0
C375 C 0.03493 0.53962 0.93293 0.0
C376 C 0.03097 0.53965 0.89469 0.0
C377 C 0.01654 0.53051 0.91546 0.0
C378 C 0.0642 0.55819 0.89186 0.0
C379 C 0.06799 0.55762 0.92969 0.0
C380 C 0.08249 0.56689 0.90924 0.0
C381 C 0.967 0.46668 0.01096 0.0
C382 C 0.01915 0.53096 0.95432 0.0
C383 C 0.16388 0.57728 0.97784 0.0
C384 C 0.15509 0.54685 0.98163 0.0
C385 C 0.03232 0.4942 0.03589 0.0
C386 C 0.99008 0.50868 0.10828 0.0
C387 C 0.0084 0.51088 0.12579 0.0
C388 C 0.99445 0.50369 0.14661 0.0
C389 C 0.96165 0.49392 0.14946 0.0
C390 C 0.95751 0.4989 0.11154 0.0
C391 C 0.94341 0.49149 0.13205 0.0
C392 C 0.05509 0.57657 0.03126 0.0
C393 C 0.00525 0.51641 0.08675 0.0
H394 H 0.99106 0.51611 0.91816 0.0
H395 H 0.07617 0.5663 0.87619 0.0
H396 H 0.08256 0.56473 0.94289 0.0
H397 H 0.108 0.58107 0.90683 0.0
H398 H 0.03348 0.51805 0.1231 0.0
H399 H 0.95011 0.48877 0.16514 0.0
H400 H 0.94305 0.4971 0.09826 0.0
H401 H 0.91826 0.48409 0.13447 0.0
Eu402 Eu 0.50007 0.4876 0.0578 0.0
C403 C 0.4428 0.54439 0.99023 0.0
C404 C 0.38711 0.50718 0.9924 0.0
C405 C 0.40291 0.55976 0.98266 0.0
C406 C 0.41929 0.5149 0.99439 0.0
C407 C 0.435 0.56714 0.98387 0.0
C408 C 0.379 0.52983 0.98695 0.0
C409 C 0.49126 0.60233 0.97877 0.0
N410 N 0.47349 0.55067 0.99143 0.0
C411 C 0.49776 0.57895 0.98508 0.0
C412 C 0.45972 0.59647 0.97841 0.0
Eu413 Eu 0.48283 0.51043 1.00339 0.0
N414 N 0.42802 0.49362 0.99941 0.0
C415 C 0.40595 0.46401 1.00122 0.0
C416 C 0.36417 0.4769 0.99543 0.0
C417 C 0.3737 0.45521 0.99958 0.0
H418 H 0.52217 0.58354 0.98548 0.0
H419 H 0.35622 0.43171 1.00155 0.0
H420 H 0.35438 0.52436 0.98552 0.0
H421 H 0.51056 0.62483 0.97422 0.0
H422 H 0.41295 0.44702 1.00451 0.0
H423 H 0.62506 0.56627 0.06603 0.0
H424 H 0.33918 0.47003 0.99411 0.0
H425 H 0.46077 0.41357 0.07272 0.0
H426 H 0.56884 0.55084 0.06069 0.0
H427 H 0.47253 0.37217 0.08297 0.0
H428 H 0.39639 0.57695 0.97799 0.0
H429 H 0.64255 0.52819 0.07256 0.0
H430 H 0.62797 0.47386 0.07877 0.0
H431 H 0.45473 0.6146 0.97345 0.0
H432 H 0.58643 0.42099 0.08344 0.0
N433 N 0.55442 0.50442 0.06372 0.0
C434 C 0.57596 0.53391 0.06365 0.0
C435 C 0.61775 0.52125 0.07028 0.0
C436 C 0.59524 0.49095 0.07155 0.0
C437 C 0.60795 0.54279 0.06665 0.0
C438 C 0.56328 0.48315 0.06836 0.0
H439 H 0.52835 0.38286 0.08534 0.0
N440 N 0.50942 0.44705 0.06886 0.0
C441 C 0.49176 0.39493 0.07955 0.0
C442 C 0.54004 0.4535 0.07097 0.0
C443 C 0.48517 0.41839 0.07383 0.0
C444 C 0.5233 0.40105 0.08081 0.0
C445 C 0.5479 0.43067 0.07685 0.0
O446 O 0.46972 0.46863 0.08722 0.0
O447 O 0.46573 0.49306 0.03718 0.0
O448 O 0.48705 0.54516 0.02362 0.0
O449 O 0.51509 0.53766 0.05162 0.0
O450 O 0.44722 0.45512 0.05901 0.0
O451 O 0.50926 0.51361 0.08409 0.0
O452 O 0.5139 0.52761 0.97426 0.0
O453 O 0.51692 0.50543 0.02427 0.0
O454 O 0.49906 0.45514 0.03648 0.0
O455 O 0.46828 0.46056 0.00975 0.0
O456 O 0.53609 0.54246 1.00144 0.0
O457 O 0.47135 0.4847 0.97677 0.0
C458 C 0.44017 0.47047 0.04468 0.0
C459 C 0.49415 0.48622 0.11839 0.0
C460 C 0.48892 0.48777 0.15639 0.0
C461 C 0.48134 0.49299 0.13548 0.0
C462 C 0.50956 0.47564 0.15972 0.0
C463 C 0.51455 0.47411 0.12221 0.0
C464 C 0.52215 0.46884 0.14277 0.0
C465 C 0.50387 0.55362 0.04032 0.0
C466 C 0.48627 0.492 0.09666 0.0
C467 C 0.57986 0.43821 0.07913 0.0
C468 C 0.6035 0.46831 0.07647 0.0
C469 C 0.54248 0.5278 0.0167 0.0
C470 C 0.48993 0.51238 0.94253 0.0
C471 C 0.50729 0.51033 0.92554 0.0
C472 C 0.502 0.51747 0.90435 0.0
C473 C 0.4789 0.52662 0.90069 0.0
C474 C 0.4673 0.52174 0.93834 0.0
C475 C 0.46186 0.52879 0.91753 0.0
C476 C 0.48159 0.44591 0.02016 0.0
C477 C 0.49582 0.50505 0.96455 0.0
H478 H 0.46534 0.50209 0.13244 0.0
H479 H 0.51657 0.47191 0.17542 0.0
H480 H 0.52467 0.46885 0.1093 0.0
H481 H 0.53808 0.45965 0.14559 0.0
H482 H 0.52506 0.50346 0.92889 0.0
H483 H 0.47349 0.53162 0.88476 0.0
H484 H 0.45379 0.5235 0.95117 0.0
H485 H 0.44418 0.53581 0.91441 0.0
Eu486 Eu 0.16324 0.32452 0.33757 0.0
C487 C 0.23054 0.43109 0.39072 0.0
C488 C 0.2862 0.44549 0.38549 0.0
C489 C 0.27095 0.48254 0.39224 0.0
C490 C 0.25379 0.42373 0.38645 0.0
C491 C 0.23882 0.46037 0.39426 0.0
C492 C 0.29463 0.47511 0.38784 0.0
C493 C 0.18335 0.44285 0.40372 0.0
N494 N 0.19987 0.40906 0.39284 0.0
C495 C 0.17644 0.41414 0.40015 0.0
C496 C 0.21464 0.4662 0.40045 0.0
Eu497 Eu 0.18915 0.36123 0.3855 0.0
N498 N 0.24473 0.39487 0.38442 0.0
C499 C 0.26706 0.38579 0.38321 0.0
C500 C 0.30915 0.43662 0.38287 0.0
C501 C 0.29952 0.40653 0.3821 0.0
H502 H 0.1522 0.39612 0.40267 0.0
H503 H 0.31706 0.39929 0.38054 0.0
H504 H 0.31939 0.49221 0.38689 0.0
H505 H 0.16455 0.44692 0.409 0.0
H506 H 0.26015 0.3627 0.38244 0.0
H507 H 0.03517 0.28418 0.3392 0.0
H508 H 0.3343 0.45265 0.38198 0.0
H509 H 0.2036 0.28925 0.32666 0.0
H510 H 0.09186 0.32199 0.33784 0.0
H511 H 0.19268 0.2378 0.3234 0.0
H512 H 0.27779 0.50525 0.39466 0.0
H513 H 0.01961 0.23079 0.33978 0.0
H514 H 0.03617 0.19164 0.33798 0.0
H515 H 0.21999 0.48839 0.40334 0.0
H516 H 0.07896 0.179 0.33368 0.0
N517 N 0.10831 0.29028 0.33811 0.0
C518 C 0.08544 0.2988 0.33799 0.0
C519 C 0.04456 0.2473 0.33915 0.0
C520 C 0.0682 0.23892 0.33814 0.0
C521 C 0.05325 0.27742 0.33878 0.0
C522 C 0.10034 0.26126 0.33748 0.0
H523 H 0.13734 0.1961 0.32797 0.0
N524 N 0.15506 0.27635 0.33362 0.0
C525 C 0.17329 0.24205 0.32681 0.0
C526 C 0.1244 0.25407 0.33515 0.0
C527 C 0.1794 0.2711 0.32861 0.0
C528 C 0.14201 0.21856 0.32945 0.0
C529 C 0.11705 0.22447 0.33332 0.0
O530 O 0.18976 0.33605 0.30715 0.0
O531 O 0.20033 0.36348 0.35134 0.0
O532 O 0.17646 0.39127 0.36326 0.0
O533 O 0.14799 0.36027 0.33809 0.0
O534 O 0.21695 0.34373 0.3322 0.0
O535 O 0.14335 0.33351 0.30859 0.0
O536 O 0.16638 0.35047 0.41726 0.0
O537 O 0.15066 0.32396 0.37124 0.0
O538 O 0.16795 0.29245 0.36256 0.0
O539 O 0.20524 0.32613 0.38246 0.0
O540 O 0.13605 0.34379 0.39162 0.0
O541 O 0.20597 0.34249 0.41172 0.0
C542 C 0.22527 0.36579 0.34288 0.0
C543 C 0.15994 0.32177 0.27769 0.0
C544 C 0.17144 0.32408 0.24008 0.0
C545 C 0.17579 0.33817 0.25828 0.0
C546 C 0.15075 0.29307 0.2417 0.0
C547 C 0.13916 0.29097 0.27901 0.0
C548 C 0.13466 0.27671 0.26106 0.0
C549 C 0.15795 0.38493 0.34712 0.0
C550 C 0.16723 0.33715 0.29645 0.0
C551 C 0.08509 0.20194 0.33484 0.0
C552 C 0.06073 0.20915 0.33728 0.0
C553 C 0.12631 0.32284 0.37982 0.0
C554 C 0.19804 0.35218 0.4457 0.0
C555 C 0.19069 0.33078 0.46347 0.0
C556 C 0.19975 0.33936 0.48352 0.0
C557 C 0.21764 0.37008 0.48521 0.0
C558 C 0.21592 0.38265 0.44756 0.0
C559 C 0.22585 0.3915 0.46727 0.0
C560 C 0.18957 0.2991 0.3766 0.0
C561 C 0.18573 0.34181 0.42566 0.0
H562 H 0.19129 0.36209 0.2574 0.0
H563 H 0.14706 0.28144 0.22806 0.0
H564 H 0.12661 0.27797 0.29384 0.0
H565 H 0.11875 0.25288 0.26217 0.0
H566 H 0.17755 0.30732 0.46156 0.0
H567 H 0.22468 0.37767 0.50038 0.0
H568 H 0.22191 0.39945 0.43389 0.0
H569 H 0.23947 0.41505 0.46874 0.0
Eu570 Eu 0.69162 0.86603 0.32996 0.0
C571 C 0.57161 0.80722 0.39354 0.0
C572 C 0.55227 0.84289 0.38774 0.0
C573 C 0.51499 0.79023 0.39848 0.0
C574 C 0.57749 0.8362 0.38784 0.0
C575 C 0.54044 0.78404 0.39968 0.0
C576 C 0.5209 0.81961 0.39245 0.0
C577 C 0.56246 0.75142 0.41032 0.0
N578 N 0.59675 0.80214 0.39479 0.0
C579 C 0.59291 0.7752 0.40407 0.0
C580 C 0.53602 0.7557 0.40773 0.0
Eu581 Eu 0.64747 0.84293 0.38322 0.0
N582 N 0.60812 0.85815 0.38383 0.0
C583 C 0.61541 0.88751 0.38137 0.0
C584 C 0.55948 0.87285 0.38371 0.0
C585 C 0.59123 0.89529 0.3809 0.0
H586 H 0.61338 0.77189 0.40599 0.0
H587 H 0.59712 0.91857 0.3783 0.0
H588 H 0.50117 0.82425 0.39221 0.0
H589 H 0.55941 0.72985 0.4171 0.0
H590 H 0.63984 0.90506 0.37907 0.0
H591 H 0.7353 0.78591 0.32821 0.0
H592 H 0.5408 0.87894 0.38342 0.0
H593 H 0.72985 0.93975 0.31372 0.0
H594 H 0.69487 0.80197 0.33068 0.0
H595 H 0.78501 0.98059 0.30438 0.0
H596 H 0.49081 0.77265 0.40286 0.0
H597 H 0.79233 0.82359 0.32273 0.0
H598 H 0.8342 0.87771 0.3162 0.0
H599 H 0.51247 0.7373 0.41268 0.0
H600 H 0.84778 0.93071 0.30979 0.0
N601 N 0.72857 0.84839 0.32699 0.0
C602 C 0.71959 0.81871 0.32814 0.0
C603 C 0.77465 0.83081 0.32374 0.0
C604 C 0.78356 0.86123 0.32145 0.0
C605 C 0.74249 0.80948 0.32678 0.0
C606 C 0.75961 0.86942 0.32298 0.0
H607 H 0.82957 0.96926 0.30504 0.0
N608 N 0.74347 0.90613 0.32021 0.0
C609 C 0.78039 0.95784 0.30875 0.0
C610 C 0.76731 0.89922 0.31955 0.0
C611 C 0.74926 0.93474 0.31398 0.0
C612 C 0.80548 0.95135 0.30919 0.0
C613 C 0.79907 0.92169 0.31427 0.0
O614 O 0.68212 0.88515 0.30028 0.0
O615 O 0.64923 0.85851 0.34895 0.0
O616 O 0.61952 0.80437 0.36474 0.0
O617 O 0.65384 0.81609 0.33455 0.0
O618 O 0.67023 0.89689 0.3273 0.0
O619 O 0.68056 0.84218 0.30236 0.0
O620 O 0.6626 0.82934 0.41286 0.0
O621 O 0.68914 0.84975 0.3639 0.0
O622 O 0.72137 0.90041 0.35099 0.0
O623 O 0.68341 0.89336 0.37726 0.0
O624 O 0.67019 0.81295 0.38693 0.0
O625 O 0.65497 0.86752 0.41026 0.0
C626 C 0.6462 0.88039 0.34072 0.0
C627 C 0.6949 0.87216 0.26887 0.0
C628 C 0.69192 0.87172 0.23062 0.0
C629 C 0.67703 0.86256 0.25126 0.0
C630 C 0.72509 0.89075 0.22806 0.0
C631 C 0.72791 0.89069 0.2659 0.0
C632 C 0.74287 0.89996 0.24558 0.0
C633 C 0.62774 0.79776 0.34708 0.0
C634 C 0.67864 0.86338 0.29012 0.0
C635 C 0.82318 0.91375 0.3136 0.0
C636 C 0.81545 0.88357 0.31722 0.0
C637 C 0.69266 0.82827 0.37224 0.0
C638 C 0.64527 0.83887 0.44405 0.0
C639 C 0.6631 0.8438 0.46204 0.0
C640 C 0.6478 0.83217 0.48256 0.0
C641 C 0.61432 0.81518 0.48452 0.0
C642 C 0.61201 0.82268 0.44658 0.0
C643 C 0.59668 0.81075 0.4667 0.0
C644 C 0.71204 0.90914 0.36704 0.0
C645 C 0.6616 0.84957 0.42274 0.0
H646 H 0.65159 0.84777 0.25374 0.0
H647 H 0.73737 0.89885 0.21249 0.0
H648 H 0.7421 0.89821 0.27921 0.0
H649 H 0.76834 0.91453 0.24339 0.0
H650 H 0.68878 0.85694 0.45995 0.0
H651 H 0.60158 0.80504 0.49984 0.0
H652 H 0.59787 0.81905 0.43303 0.0
H653 H 0.57098 0.79787 0.46849 0.0
Eu654 Eu 0.1714 0.82194 0.39166 0.0
C655 C 0.12274 0.8862 0.32442 0.0
C656 C 0.06667 0.85073 0.32429 0.0
C657 C 0.08488 0.90407 0.31665 0.0
C658 C 0.09827 0.85696 0.3271 0.0
C659 C 0.11644 0.91006 0.31865 0.0
C660 C 0.06003 0.87446 0.31951 0.0
C661 C 0.17319 0.9437 0.31542 0.0
N662 N 0.15295 0.89122 0.32636 0.0
C663 C 0.17822 0.91927 0.3211 0.0
C664 C 0.14214 0.93913 0.31447 0.0
Eu665 Eu 0.1594 0.84893 0.3369 0.0
N666 N 0.10552 0.83456 0.33153 0.0
C667 C 0.08268 0.80543 0.33189 0.0
C668 C 0.04283 0.82084 0.32584 0.0
C669 C 0.05095 0.79811 0.32936 0.0
H670 H 0.20223 0.9228 0.32194 0.0
H671 H 0.03279 0.77494 0.33019 0.0
H672 H 0.03587 0.87012 0.31747 0.0
H673 H 0.19322 0.966 0.3118 0.0
H674 H 0.08865 0.78768 0.33474 0.0
H675 H 0.29868 0.89493 0.3975 0.0
H676 H 0.01825 0.8151 0.32384 0.0
H677 H 0.12818 0.74946 0.41035 0.0
H678 H 0.24303 0.88276 0.3932 0.0
H679 H 0.13618 0.70611 0.42225 0.0
H680 H 0.07951 0.92212 0.31243 0.0
H681 H 0.31256 0.85438 0.40429 0.0
H682 H 0.29411 0.79925 0.41177 0.0
H683 H 0.1383 0.95807 0.30999 0.0
H684 H 0.24975 0.74765 0.41854 0.0
N685 N 0.22538 0.83571 0.39685 0.0
C686 C 0.24859 0.86478 0.39622 0.0
C687 C 0.28803 0.84888 0.40237 0.0
C688 C 0.26384 0.81909 0.40442 0.0
C689 C 0.28027 0.87182 0.39862 0.0
C690 C 0.23232 0.81318 0.40169 0.0
H691 H 0.19068 0.71273 0.42294 0.0
N692 N 0.1775 0.77981 0.40374 0.0
C693 C 0.15647 0.72792 0.41735 0.0
C694 C 0.20754 0.78425 0.40526 0.0
C695 C 0.15201 0.75246 0.41063 0.0
C696 C 0.18726 0.73173 0.41765 0.0
C697 C 0.21332 0.76028 0.41198 0.0
O698 O 0.13868 0.80627 0.41988 0.0
O699 O 0.13975 0.8306 0.37018 0.0
O700 O 0.16306 0.88241 0.35803 0.0
O701 O 0.18945 0.87269 0.3861 0.0
O702 O 0.11822 0.79206 0.39159 0.0
O703 O 0.18394 0.8462 0.41914 0.0
O704 O 0.19259 0.86687 0.30883 0.0
O705 O 0.19041 0.83939 0.3583 0.0
O706 O 0.16394 0.78587 0.37164 0.0
O707 O 0.14358 0.79884 0.34102 0.0
O708 O 0.21284 0.8781 0.3371 0.0
O709 O 0.14743 0.82703 0.30828 0.0
C710 C 0.11325 0.80855 0.37689 0.0
C711 C 0.16185 0.81687 0.45246 0.0
C712 C 0.15614 0.81659 0.49072 0.0
C713 C 0.15326 0.82693 0.46971 0.0
C714 C 0.16715 0.79561 0.49398 0.0
C715 C 0.17357 0.79667 0.45629 0.0
C716 C 0.17596 0.78597 0.47691 0.0
C717 C 0.17941 0.88977 0.37499 0.0
C718 C 0.15804 0.82701 0.43056 0.0
C719 C 0.24477 0.76581 0.41365 0.0
C720 C 0.27002 0.79518 0.40982 0.0
C721 C 0.21715 0.86089 0.35161 0.0
C722 C 0.17087 0.85835 0.27563 0.0
C723 C 0.18216 0.85098 0.25801 0.0
C724 C 0.18057 0.86295 0.23716 0.0
C725 C 0.16802 0.8828 0.23451 0.0
C726 C 0.15784 0.87755 0.27231 0.0
C727 C 0.15661 0.88979 0.2519 0.0
C728 C 0.1505 0.7803 0.35338 0.0
C729 C 0.17371 0.84688 0.29742 0.0
H730 H 0.14483 0.84303 0.46669 0.0
H731 H 0.16884 0.78642 0.50978 0.0
H732 H 0.18073 0.78899 0.44339 0.0
H733 H 0.18464 0.77005 0.47969 0.0
H734 H 0.19179 0.83576 0.2606 0.0
H735 H 0.16722 0.89328 0.21895 0.0
H736 H 0.14889 0.88334 0.28549 0.0
H737 H 0.1469 0.90494 0.24954 0.0
Eu738 Eu 0.83414 0.66127 0.66616 0.0
C739 C 0.90133 0.7677 0.71867 0.0
C740 C 0.95663 0.78038 0.71436 0.0
C741 C 0.94288 0.81884 0.71978 0.0
C742 C 0.92399 0.75929 0.71513 0.0
C743 C 0.91048 0.79737 0.72168 0.0
C744 C 0.96593 0.81036 0.71609 0.0
C745 C 0.85527 0.78156 0.73065 0.0
N746 N 0.87037 0.74632 0.72074 0.0
C747 C 0.84749 0.75242 0.72767 0.0
C748 C 0.88687 0.80427 0.72731 0.0
Eu749 Eu 0.85828 0.69771 0.71443 0.0
N750 N 0.91413 0.73011 0.71365 0.0
C751 C 0.93579 0.72011 0.71318 0.0
C752 C 0.97892 0.77053 0.71254 0.0
C753 C 0.96842 0.74016 0.71234 0.0
H754 H 0.82304 0.73484 0.73032 0.0
H755 H 0.98544 0.73218 0.71139 0.0
H756 H 0.99088 0.82695 0.71526 0.0
H757 H 0.83692 0.78645 0.73557 0.0
H758 H 0.92827 0.69682 0.7128 0.0
H759 H 0.70579 0.62049 0.67018 0.0
H760 H 0.00421 0.78602 0.71183 0.0
H761 H 0.87255 0.62724 0.6494 0.0
H762 H 0.76247 0.6584 0.66751 0.0
H763 H 0.86146 0.57608 0.64488 0.0
H764 H 0.95037 0.84183 0.72178 0.0
H765 H 0.69012 0.56698 0.67141 0.0
H766 H 0.70655 0.52788 0.66889 0.0
H767 H 0.89291 0.82678 0.72977 0.0
H768 H 0.74907 0.51567 0.6621 0.0
N769 N 0.77899 0.62671 0.66784 0.0
C770 C 0.75608 0.63519 0.66794 0.0
C771 C 0.7151 0.58354 0.67024 0.0
C772 C 0.7387 0.57522 0.66864 0.0
C773 C 0.72385 0.61373 0.66947 0.0
C774 C 0.77087 0.59766 0.66725 0.0
H775 H 0.80689 0.53359 0.65268 0.0
N776 N 0.8252 0.61329 0.66071 0.0
C777 C 0.84253 0.57982 0.65036 0.0
C778 C 0.79475 0.59071 0.66362 0.0
C779 C 0.84875 0.60868 0.65292 0.0
C780 C 0.81172 0.55589 0.65485 0.0
C781 C 0.78719 0.56127 0.66104 0.0
O782 O 0.86134 0.67582 0.63567 0.0
O783 O 0.87047 0.70032 0.68034 0.0
O784 O 0.84536 0.72737 0.6921 0.0
O785 O 0.81812 0.69652 0.66665 0.0
O786 O 0.88774 0.68092 0.66117 0.0
O787 O 0.81338 0.66921 0.63726 0.0
O788 O 0.83474 0.68931 0.74568 0.0
O789 O 0.82101 0.65934 0.70017 0.0
O790 O 0.84571 0.63092 0.68839 0.0
O791 O 0.87315 0.66158 0.71379 0.0
O792 O 0.80515 0.67979 0.71939 0.0
O793 O 0.87344 0.67953 0.7419 0.0
C794 C 0.89564 0.70265 0.67213 0.0
C795 C 0.83217 0.65995 0.60615 0.0
C796 C 0.84491 0.6629 0.56861 0.0
C797 C 0.84805 0.67679 0.58682 0.0
C798 C 0.82562 0.63166 0.57021 0.0
C799 C 0.81257 0.62896 0.60735 0.0
C800 C 0.80947 0.6149 0.58945 0.0
C801 C 0.82717 0.7209 0.67585 0.0
C802 C 0.83803 0.67508 0.62501 0.0
C803 C 0.75533 0.53851 0.66373 0.0
C804 C 0.73111 0.54547 0.66756 0.0
C805 C 0.79628 0.65804 0.70836 0.0
C806 C 0.86537 0.69176 0.7749 0.0
C807 C 0.85741 0.67125 0.79329 0.0
C808 C 0.86705 0.681 0.81297 0.0
C809 C 0.88579 0.71189 0.81373 0.0
C810 C 0.88412 0.72242 0.77585 0.0
C811 C 0.89438 0.73238 0.79524 0.0
C812 C 0.86368 0.63712 0.70465 0.0
C813 C 0.85324 0.68034 0.75509 0.0
H814 H 0.86251 0.70083 0.586 0.0
H815 H 0.823 0.62013 0.55664 0.0
H816 H 0.79983 0.61565 0.62205 0.0
H817 H 0.79455 0.59092 0.5905 0.0
H818 H 0.84355 0.64758 0.79215 0.0
H819 H 0.89327 0.72034 0.82862 0.0
H820 H 0.89062 0.73854 0.76173 0.0
H821 H 0.90869 0.75609 0.79599 0.0
Eu822 Eu 0.36566 0.20208 0.66198 0.0
C823 C 0.24677 0.14311 0.72592 0.0
C824 C 0.23026 0.18094 0.72249 0.0
C825 C 0.19072 0.12848 0.73087 0.0
C826 C 0.25433 0.17278 0.72175 0.0
C827 C 0.21502 0.1207 0.73133 0.0
C828 C 0.19833 0.15857 0.7264 0.0
C829 C 0.23421 0.08539 0.74006 0.0
N830 N 0.27082 0.13645 0.72648 0.0
C831 C 0.2653 0.10847 0.73464 0.0
C832 C 0.20886 0.0914 0.73798 0.0
Eu833 Eu 0.32269 0.17625 0.71609 0.0
N834 N 0.28544 0.1938 0.71834 0.0
C835 C 0.29431 0.22345 0.71732 0.0
C836 C 0.23911 0.21135 0.72005 0.0
C837 C 0.27131 0.23267 0.71788 0.0
H838 H 0.28496 0.10386 0.73619 0.0
H839 H 0.27845 0.25623 0.71648 0.0
H840 H 0.17947 0.16438 0.72675 0.0
H841 H 0.22983 0.06302 0.74583 0.0
H842 H 0.31907 0.24021 0.71541 0.0
H843 H 0.40338 0.11752 0.66028 0.0
H844 H 0.22134 0.21855 0.72046 0.0
H845 H 0.4071 0.27501 0.64372 0.0
H846 H 0.36513 0.13613 0.66225 0.0
H847 H 0.46315 0.314 0.63454 0.0
H848 H 0.16612 0.11153 0.73468 0.0
H849 H 0.46111 0.15306 0.65578 0.0
H850 H 0.50513 0.20634 0.64986 0.0
H851 H 0.1848 0.07354 0.74231 0.0
H852 H 0.52152 0.25999 0.64305 0.0
N853 N 0.40064 0.18201 0.6592 0.0
C854 C 0.39014 0.15204 0.66011 0.0
C855 C 0.44437 0.16144 0.65657 0.0
C856 C 0.45489 0.19216 0.65447 0.0
C857 C 0.41182 0.14132 0.65904 0.0
C858 C 0.43211 0.20188 0.65566 0.0
H859 H 0.50599 0.30035 0.63692 0.0
N860 N 0.41858 0.24028 0.65221 0.0
C861 C 0.45743 0.29108 0.63967 0.0
C862 C 0.44139 0.232 0.65215 0.0
C863 C 0.42581 0.26903 0.64487 0.0
C864 C 0.48153 0.28328 0.64109 0.0
C865 C 0.4736 0.25332 0.6469 0.0
O866 O 0.35727 0.22311 0.63269 0.0
O867 O 0.32389 0.19339 0.68221 0.0
O868 O 0.29464 0.13875 0.69691 0.0
O869 O 0.32659 0.15266 0.66524 0.0
O870 O 0.34325 0.23203 0.66067 0.0
O871 O 0.35334 0.17937 0.63382 0.0
O872 O 0.33455 0.15793 0.74522 0.0
O873 O 0.3645 0.18529 0.69577 0.0
O874 O 0.39373 0.23905 0.68177 0.0
O875 O 0.36016 0.22598 0.71252 0.0
O876 O 0.34625 0.14713 0.71762 0.0
O877 O 0.33219 0.19884 0.74429 0.0
C878 C 0.32022 0.21518 0.67472 0.0
C879 C 0.36947 0.21058 0.60084 0.0
C880 C 0.36777 0.21077 0.5625 0.0
C881 C 0.35209 0.20174 0.58291 0.0
C882 C 0.40104 0.22924 0.56046 0.0
C883 C 0.40264 0.22828 0.59835 0.0
C884 C 0.41826 0.23773 0.57826 0.0
C885 C 0.30158 0.13342 0.67833 0.0
C886 C 0.35275 0.20155 0.62199 0.0
C887 C 0.4966 0.24391 0.64676 0.0
C888 C 0.48726 0.21337 0.65059 0.0
C889 C 0.36881 0.16394 0.70326 0.0
C890 C 0.31969 0.16778 0.77727 0.0
C891 C 0.33742 0.17333 0.7953 0.0
C892 C 0.32207 0.16196 0.81582 0.0
C893 C 0.28862 0.14461 0.81775 0.0
C894 C 0.28644 0.15128 0.77976 0.0
C895 C 0.27106 0.1396 0.79988 0.0
C896 C 0.38598 0.24475 0.69998 0.0
C897 C 0.33614 0.17846 0.75599 0.0
H898 H 0.32653 0.18745 0.58494 0.0
H899 H 0.41387 0.23727 0.54506 0.0
H900 H 0.41651 0.23492 0.61186 0.0
H901 H 0.44385 0.2517 0.57648 0.0
H902 H 0.36307 0.18678 0.79323 0.0
H903 H 0.27585 0.13463 0.83307 0.0
H904 H 0.27234 0.14724 0.76619 0.0
H905 H 0.24538 0.12647 0.80163 0.0
Eu906 Eu 0.83207 0.15423 0.72377 0.0
C907 C 0.78071 0.21725 0.65746 0.0
C908 C 0.72437 0.18198 0.65917 0.0
C909 C 0.74279 0.23526 0.65056 0.0
C910 C 0.75611 0.18813 0.66106 0.0
C911 C 0.77442 0.2411 0.65164 0.0
C912 C 0.71779 0.20575 0.65436 0.0
C913 C 0.83118 0.27433 0.64657 0.0
N914 N 0.81096 0.22208 0.65852 0.0
C915 C 0.83618 0.2499 0.65234 0.0
C916 C 0.80016 0.26998 0.64649 0.0
Eu917 Eu 0.81753 0.1799 0.66938 0.0
N918 N 0.76333 0.16571 0.66545 0.0
C919 C 0.74017 0.13655 0.66669 0.0
C920 C 0.70029 0.15211 0.66163 0.0
C921 C 0.7083 0.1293 0.66512 0.0
H922 H 0.86018 0.2533 0.65248 0.0
H923 H 0.68993 0.10613 0.66665 0.0
H924 H 0.69354 0.20149 0.65302 0.0
H925 H 0.85122 0.29646 0.6422 0.0
H926 H 0.74606 0.11874 0.66948 0.0
H927 H 0.95831 0.22793 0.73219 0.0
H928 H 0.6756 0.14644 0.66036 0.0
H929 H 0.78923 0.08007 0.73777 0.0
H930 H 0.90274 0.21529 0.72679 0.0
H931 H 0.79814 0.03684 0.74771 0.0
H932 H 0.73743 0.25331 0.64632 0.0
H933 H 0.97281 0.18776 0.73871 0.0
H934 H 0.95523 0.13276 0.74466 0.0
H935 H 0.79633 0.28892 0.64194 0.0
H936 H 0.91166 0.08075 0.74888 0.0
N937 N 0.88581 0.1684 0.72978 0.0
C938 C 0.9086 0.1975 0.72974 0.0
C939 C 0.94831 0.18206 0.73639 0.0
C940 C 0.92453 0.1522 0.73756 0.0
C941 C 0.9402 0.20478 0.73277 0.0
C942 C 0.89304 0.146 0.73433 0.0
H943 H 0.85297 0.04478 0.75033 0.0
N944 N 0.83852 0.11184 0.73424 0.0
C945 C 0.81819 0.0592 0.74452 0.0
C946 C 0.86864 0.1168 0.7366 0.0
C947 C 0.81322 0.08367 0.73894 0.0
C948 C 0.84918 0.06377 0.74593 0.0
C949 C 0.87487 0.09288 0.7423 0.0
O950 O 0.79985 0.13664 0.75229 0.0
O951 O 0.79932 0.1621 0.70296 0.0
O952 O 0.82311 0.2146 0.69003 0.0
O953 O 0.84913 0.20479 0.71843 0.0
O954 O 0.77886 0.1236 0.72427 0.0
O955 O 0.84393 0.178 0.7515 0.0
O956 O 0.84977 0.19563 0.64092 0.0
O957 O 0.85013 0.17249 0.69041 0.0
O958 O 0.82958 0.12155 0.70224 0.0
O959 O 0.80115 0.12949 0.67479 0.0
O960 O 0.87109 0.21009 0.66812 0.0
O961 O 0.80353 0.15692 0.64129 0.0
C962 C 0.77304 0.1401 0.71009 0.0
C963 C 0.82335 0.14775 0.78472 0.0
C964 C 0.8194 0.14805 0.82303 0.0
C965 C 0.81585 0.15826 0.80215 0.0
C966 C 0.83023 0.12691 0.82597 0.0
C967 C 0.83462 0.12716 0.78821 0.0
C968 C 0.83791 0.11676 0.80871 0.0
C969 C 0.8393 0.22191 0.7071 0.0
C970 C 0.81862 0.15769 0.76301 0.0
C971 C 0.90634 0.09884 0.74471 0.0
C972 C 0.93114 0.12845 0.74232 0.0
C973 C 0.87637 0.19432 0.6832 0.0
C974 C 0.82654 0.18723 0.60825 0.0
C975 C 0.83848 0.1808 0.59045 0.0
C976 C 0.83651 0.19291 0.56972 0.0
C977 C 0.82303 0.21203 0.56741 0.0
C978 C 0.81253 0.20565 0.60524 0.0
C979 C 0.81101 0.2181 0.58498 0.0
C980 C 0.81299 0.11359 0.68541 0.0
C981 C 0.82974 0.17574 0.62994 0.0
H982 H 0.80761 0.17453 0.79938 0.0
H983 H 0.83249 0.11787 0.84168 0.0
H984 H 0.84058 0.11888 0.77512 0.0
H985 H 0.84628 0.1006 0.81125 0.0
H986 H 0.84887 0.16618 0.59277 0.0
H987 H 0.82191 0.22259 0.55196 0.0
H988 H 0.80301 0.21066 0.61857 0.0
H989 H 0.80055 0.23266 0.58286 0.0
H990 H 0.31007 0.80688 0.0901 0.0
H991 H 0.45291 0.93192 0.04907 0.0
H992 H 0.26989 0.86585 0.08542 0.0
H993 H 0.40702 0.98387 0.05934 0.0
H994 H 0.40347 0.88633 0.06091 0.0
H995 H 0.36255 0.84949 0.07963 0.0
C996 C 0.31258 0.82907 0.08697 0.0
C997 C 0.28577 0.83293 0.08866 0.0
C998 C 0.40391 0.90748 0.06093 0.0
C999 C 0.34588 0.88233 0.07564 0.0
C1000 C 0.43225 0.93365 0.05375 0.0
C1001 C 0.43389 0.9617 0.05276 0.0
C1002 C 0.37698 0.90931 0.06769 0.0
C1003 C 0.40663 0.96263 0.05958 0.0
C1004 C 0.34257 0.85353 0.08064 0.0
C1005 C 0.29009 0.86204 0.08448 0.0
N1006 N 0.37937 0.93692 0.06663 0.0
N1007 N 0.3195 0.88557 0.07806 0.0
H1008 H 0.21428 0.54881 0.08274 0.0
H1009 H 0.04307 0.44707 0.04476 0.0
H1010 H 0.17649 0.45485 0.07985 0.0
H1011 H 0.09073 0.54343 0.03446 0.0
H1012 H 0.09316 0.44927 0.05506 0.0
H1013 H 0.17046 0.54793 0.0625 0.0
C1014 C 0.19665 0.52812 0.07768 0.0
C1015 C 0.19811 0.50177 0.0831 0.0
C1016 C 0.09276 0.46994 0.05007 0.0
C1017 C 0.14851 0.50026 0.06026 0.0
C1018 C 0.06426 0.46862 0.04424 0.0
C1019 C 0.06298 0.49507 0.03849 0.0
C1020 C 0.11972 0.49794 0.0507 0.0
C1021 C 0.09079 0.52252 0.03832 0.0
C1022 C 0.17187 0.52752 0.06612 0.0
C1023 C 0.17536 0.47538 0.07616 0.0
N1024 N 0.11799 0.52326 0.04455 0.0
N1025 N 0.15116 0.47516 0.06526 0.0
H1026 H 0.59172 0.72642 0.08496 0.0
H1027 H 0.47263 0.5857 0.03043 0.0
H1028 H 0.49499 0.70592 0.07559 0.0
H1029 H 0.55088 0.58809 0.06477 0.0
H1030 H 0.48405 0.63352 0.0417 0.0
H1031 H 0.58068 0.67927 0.07263 0.0
C1032 C 0.56813 0.71189 0.08034 0.0
C1033 C 0.54418 0.71992 0.08138 0.0
C1034 C 0.49868 0.62352 0.04673 0.0
C1035 C 0.53153 0.6664 0.06679 0.0
C1036 C 0.49232 0.59633 0.04022 0.0
C1037 C 0.51085 0.58282 0.04666 0.0
C1038 C 0.52407 0.63757 0.05948 0.0
C1039 C 0.5359 0.59756 0.05949 0.0
C1040 C 0.56187 0.6851 0.07324 0.0
C1041 C 0.51418 0.70068 0.07476 0.0
N1042 N 0.54187 0.62419 0.06537 0.0
N1043 N 0.50869 0.67482 0.06768 0.0
H1044 H 0.83147 0.32573 0.94351 0.0
H1045 H 0.93086 0.41343 0.0363 0.0
H1046 H 0.83358 0.28105 1.00441 0.0
H1047 H 0.95106 0.45294 0.97094 0.0
H1048 H 0.89107 0.36602 0.02581 0.0
H1049 H 0.87105 0.3737 0.95399 0.0
C1050 C 0.84013 0.32616 0.95917 0.0
C1051 C 0.829 0.29953 0.97323 0.0
C1052 C 0.90415 0.38503 0.01373 0.0
C1053 C 0.87422 0.3542 0.9854 0.0
C1054 C 0.92669 0.41224 0.01976 0.0
C1055 C 0.94403 0.43737 1.00455 0.0
C1056 C 0.89853 0.38285 0.99227 0.0
C1057 C 0.93828 0.43413 0.9832 0.0
C1058 C 0.86275 0.35345 0.96512 0.0
C1059 C 0.84105 0.30118 0.99331 0.0
N1060 N 0.91586 0.40748 0.97771 0.0
N1061 N 0.86288 0.32802 0.99882 0.0
H1062 H 0.74016 0.56954 0.99996 0.0
H1063 H 0.60072 0.57699 0.01257 0.0
H1064 H 0.67783 0.48955 0.97389 0.0
H1065 H 0.55368 0.48072 0.01905 0.0
H1066 H 0.65185 0.57813 1.00738 0.0
H1067 H 0.69369 0.56889 0.0167 0.0
C1068 C 0.71652 0.55169 0.99808 0.0
C1069 C 0.71221 0.52967 0.9856 0.0
C1070 C 0.63043 0.55673 0.01074 0.0
C1071 C 0.65967 0.52906 1.00393 0.0
C1072 C 0.60137 0.55614 0.01347 0.0
C1073 C 0.57328 0.52873 0.01674 0.0
C1074 C 0.63094 0.52967 0.01076 0.0
C1075 C 0.5749 0.50224 0.01724 0.0
C1076 C 0.69019 0.55147 1.00737 0.0
C1077 C 0.68159 0.50688 0.98338 0.0
N1078 N 0.60329 0.50338 0.01401 0.0
N1079 N 0.65626 0.5072 0.99244 0.0
H1080 H 0.47746 0.19492 0.93831 0.0
H1081 H 0.47213 0.08297 0.03629 0.0
H1082 H 0.41989 0.17618 0.99565 0.0
H1083 H 0.48827 0.07022 0.97283 0.0
H1084 H 0.45678 0.12012 0.02194 0.0
H1085 H 0.48427 0.15115 0.95014 0.0
C1086 C 0.46577 0.1812 0.95319 0.0
C1087 C 0.44852 0.1893 0.9662 0.0
C1088 C 0.46351 0.10909 0.01114 0.0
C1089 C 0.45688 0.14002 0.9801 0.0
C1090 C 0.47263 0.08815 0.01934 0.0
C1091 C 0.48186 0.07382 1.00574 0.0
C1092 C 0.4642 0.11621 0.98913 0.0
C1093 C 0.48128 0.08081 0.98385 0.0
C1094 C 0.46981 0.15642 0.96 0.0
C1095 C 0.43402 0.17102 0.98543 0.0
N1096 N 0.47302 0.10183 0.97618 0.0
N1097 N 0.43898 0.14756 0.99199 0.0
H1098 H 0.75882 0.1694 0.97125 0.0
H1099 H 0.57209 0.09314 1.00521 0.0
H1100 H 0.70728 0.21857 0.9688 0.0
H1101 H 0.62055 0.04272 0.99723 0.0
H1102 H 0.62173 0.13956 0.99369 0.0
H1103 H 0.70888 0.12289 0.98191 0.0
C1104 C 0.73688 0.17031 0.97273 0.0
C1105 C 0.73717 0.19784 0.96917 0.0
C1106 C 0.62157 0.11836 0.99448 0.0
C1107 C 0.6799 0.14483 0.98181 0.0
C1108 C 0.59328 0.09188 1.00122 0.0
C1109 C 0.59243 0.06409 1.00268 0.0
C1110 C 0.64922 0.11708 0.98898 0.0
C1111 C 0.62034 0.06372 0.99666 0.0
C1112 C 0.7084 0.14382 0.97898 0.0
C1113 C 0.70814 0.19786 0.9717 0.0
N1114 N 0.64758 0.08975 0.99025 0.0
N1115 N 0.68076 0.17185 0.97794 0.0
H1116 H 0.83409 0.58691 0.98448 0.0
H1117 H 0.93182 0.50169 1.00553 0.0
H1118 H 0.81206 0.50784 0.95653 0.0
H1119 H 0.98058 0.59818 0.99575 0.0
H1120 H 0.88307 0.50146 0.99467 0.0
H1121 H 0.88499 0.59025 0.99462 0.0
C1122 C 0.84055 0.5707 0.98017 0.0
C1123 C 0.81974 0.54738 0.96947 0.0
C1124 C 0.90444 0.52264 0.99502 0.0
C1125 C 0.87621 0.55017 0.98156 0.0
C1126 C 0.93207 0.52281 1.00144 0.0
C1127 C 0.95994 0.55005 1.00175 0.0
C1128 C 0.9048 0.54987 0.98901 0.0
C1129 C 0.95931 0.57681 0.99583 0.0
C1130 C 0.86921 0.57248 0.98598 0.0
C1131 C 0.82813 0.52631 0.96449 0.0
N1132 N 0.93195 0.57611 0.9898 0.0
N1133 N 0.85574 0.52793 0.97085 0.0
H1134 H 0.40902 0.27746 0.96987 0.0
H1135 H 0.51728 0.41787 0.02825 0.0
H1136 H 0.50822 0.30678 0.97752 0.0
H1137 H 0.43569 0.41022 0.99557 0.0
H1138 H 0.5106 0.37264 0.01501 0.0
H1139 H 0.41481 0.32194 0.98414 0.0
C1140 C 0.43198 0.29333 0.97464 0.0
C1141 C 0.45813 0.28851 0.97276 0.0
C1142 C 0.49417 0.38089 0.01078 0.0
C1143 C 0.46491 0.33898 0.98928 0.0
C1144 C 0.49782 0.40659 0.01842 0.0
C1145 C 0.47702 0.4179 0.01298 0.0
C1146 C 0.46924 0.36609 0.9979 0.0
C1147 C 0.45237 0.4024 1.00008 0.0
C1148 C 0.43529 0.3186 0.98276 0.0
C1149 C 0.48742 0.30955 0.97915 0.0
N1150 N 0.44908 0.37722 0.99306 0.0
N1151 N 0.49002 0.33382 0.98727 0.0
H1152 H 0.14987 0.7477 0.07913 0.0
H1153 H 0.12005 0.60614 0.02377 0.0
H1154 H 0.22195 0.72165 0.07309 0.0
H1155 H 0.04412 0.61226 0.05502 0.0
H1156 H 0.15863 0.65252 0.03648 0.0
H1157 H 0.11164 0.70216 0.06528 0.0
C1158 C 0.15759 0.73231 0.07495 0.0
C1159 C 0.18905 0.73831 0.07749 0.0
C1160 C 0.13351 0.64371 0.0405 0.0
C1161 C 0.14567 0.68652 0.06104 0.0
C1162 C 0.11142 0.61731 0.03316 0.0
C1163 C 0.07868 0.60521 0.0383 0.0
C1164 C 0.12286 0.65848 0.0528 0.0
C1165 C 0.06905 0.62064 0.0507 0.0
C1166 C 0.13583 0.7064 0.06697 0.0
C1167 C 0.19801 0.71797 0.07127 0.0
N1168 N 0.09098 0.6465 0.05741 0.0
N1169 N 0.17648 0.69304 0.06328 0.0
H1170 H 0.32444 0.53223 0.09643 0.0
H1171 H 0.38145 0.4239 0.05729 0.0
H1172 H 0.25756 0.44082 0.09057 0.0
H1173 H 0.4324 0.51986 0.04126 0.0
H1174 H 0.33609 0.42757 0.07146 0.0
H1175 H 0.36659 0.52617 0.07978 0.0
C1176 C 0.31902 0.51072 0.092 0.0
C1177 C 0.28803 0.48686 0.09501 0.0
C1178 C 0.35706 0.44771 0.06444 0.0
C1179 C 0.33525 0.47976 0.07569 0.0
C1180 C 0.38274 0.44561 0.05627 0.0
C1181 C 0.4106 0.4716 0.04807 0.0
C1182 C 0.35982 0.47605 0.06476 0.0
C1183 C 0.4114 0.49926 0.04727 0.0
C1184 C 0.34275 0.50732 0.08229 0.0
C1185 C 0.28154 0.45942 0.08884 0.0
N1186 N 0.38652 0.50079 0.05579 0.0
N1187 N 0.30506 0.45653 0.0794 0.0
H1188 H 0.59085 0.83475 0.05776 0.0
H1189 H 0.52668 0.94629 0.08266 0.0
H1190 H 0.52829 0.81642 0.11232 0.0
H1191 H 0.55484 0.94099 0.0199 0.0
H1192 H 0.53733 0.90547 0.09657 0.0
H1193 H 0.58817 0.88081 0.04645 0.0
C1194 C 0.57683 0.84074 0.06742 0.0
C1195 C 0.55939 0.82181 0.08577 0.0
C1196 C 0.54127 0.91336 0.07977 0.0
C1197 C 0.55649 0.87433 0.07326 0.0
C1198 C 0.53538 0.93669 0.07186 0.0
C1199 C 0.53942 0.94659 0.05007 0.0
C1200 C 0.55189 0.90036 0.06579 0.0
C1201 C 0.55065 0.93345 0.03671 0.0
C1202 C 0.57524 0.86686 0.061 0.0
C1203 C 0.54197 0.83055 0.09805 0.0
N1204 N 0.55653 0.91104 0.04477 0.0
N1205 N 0.54078 0.85615 0.09153 0.0
H1206 H 0.97104 0.14247 0.41809 0.0
H1207 H 0.07015 0.32121 0.38833 0.0
H1208 H 0.92933 0.19966 0.42046 0.0
H1209 H 0.11077 0.26331 0.38435 0.0
H1210 H 0.01865 0.27732 0.40029 0.0
H1211 H 0.02265 0.18652 0.40661 0.0
C1212 C 0.97297 0.16445 0.41643 0.0
C1213 C 0.94598 0.16749 0.42029 0.0
C1214 C 0.03871 0.27411 0.39664 0.0
C1215 C 0.00497 0.21819 0.40696 0.0
C1216 C 0.06808 0.29916 0.38972 0.0
C1217 C 0.0946 0.29588 0.38481 0.0
C1218 C 0.03582 0.24541 0.39909 0.0
C1219 C 0.09079 0.26685 0.38736 0.0
C1220 C 0.00236 0.18959 0.40979 0.0
C1221 C 0.94965 0.19642 0.41791 0.0
N1222 N 0.062 0.2428 0.3943 0.0
N1223 N 0.97853 0.22063 0.41131 0.0
H1224 H 0.84054 0.78682 0.40718 0.0
H1225 H 0.75064 0.87822 0.37033 0.0
H1226 H 0.87769 0.88035 0.41139 0.0
H1227 H 0.70481 0.78191 0.38039 0.0
H1228 H 0.80116 0.88047 0.37773 0.0
H1229 H 0.79453 0.78584 0.39003 0.0
C1230 C 0.83881 0.80714 0.40429 0.0
C1231 C 0.86213 0.83358 0.41083 0.0
C1232 C 0.78018 0.85882 0.37804 0.0
C1233 C 0.81035 0.83287 0.39137 0.0
C1234 C 0.75133 0.85752 0.37357 0.0
C1235 C 0.72371 0.82981 0.37426 0.0
C1236 C 0.78123 0.8322 0.38368 0.0
C1237 C 0.72578 0.80367 0.37948 0.0
C1238 C 0.8128 0.80665 0.39455 0.0
C1239 C 0.85971 0.8596 0.40665 0.0
N1240 N 0.75415 0.80548 0.38406 0.0
N1241 N 0.83397 0.85858 0.39727 0.0
H1242 H 0.17057 0.04292 0.41096 0.0
H1243 H 0.22816 0.92403 0.3985 0.0
H1244 H 0.26902 0.06525 0.41332 0.0
H1245 H 0.14808 0.92194 0.36678 0.0
H1246 H 0.2404 0.97249 0.40904 0.0
H1247 H 0.1587 0.99518 0.39911 0.0
C1248 C 0.18969 0.03783 0.40882 0.0
C1249 C 0.2208 0.05799 0.41314 0.0
C1250 C 0.22021 0.96139 0.39973 0.0
C1251 C 0.20732 1.00324 0.40024 0.0
C1252 C 0.21312 0.93369 0.3938 0.0
C1253 C 0.18714 0.91895 0.38168 0.0
C1254 C 0.20078 0.97413 0.39389 0.0
C1255 C 0.1685 0.93261 0.37599 0.0
C1256 C 0.18291 0.0106 0.40218 0.0
C1257 C 0.24465 0.0501 0.41049 0.0
N1258 N 0.17553 0.9593 0.38227 0.0
N1259 N 0.23739 0.02325 0.4044 0.0
H1260 H 0.49588 0.60918 0.34207 0.0
H1261 H 0.61454 0.78403 0.30684 0.0
H1262 H 0.49743 0.65512 0.28077 0.0
H1263 H 0.59092 0.74407 0.37209 0.0
H1264 H 0.57604 0.73582 0.29631 0.0
H1265 H 0.53393 0.65736 0.35304 0.0
C1266 C 0.50402 0.62945 0.331 0.0
C1267 C 0.4935 0.62814 0.31048 0.0
C1268 C 0.57921 0.73763 0.31296 0.0
C1269 C 0.53767 0.68329 0.32267 0.0
C1270 C 0.60135 0.7651 0.31897 0.0
C1271 C 0.6057 0.76826 0.34044 0.0
C1272 C 0.5616 0.71288 0.32849 0.0
C1273 C 0.58783 0.74293 0.35544 0.0
C1274 C 0.52589 0.65692 0.33719 0.0
C1275 C 0.50526 0.65508 0.29663 0.0
N1276 N 0.56672 0.71635 0.34921 0.0
N1277 N 0.52681 0.68145 0.3029 0.0
H1278 H 0.33457 0.79612 0.30633 0.0
H1279 H 0.27821 0.90524 0.34413 0.0
H1280 H 0.39794 0.8894 0.30892 0.0
H1281 H 0.2204 0.80923 0.35401 0.0
H1282 H 0.32418 0.89956 0.33471 0.0
H1283 H 0.29338 0.79939 0.32702 0.0
C1284 C 0.33961 0.81716 0.31145 0.0
C1285 C 0.36893 0.84267 0.30579 0.0
C1286 C 0.30156 0.8797 0.33937 0.0
C1287 C 0.32285 0.84685 0.32915 0.0
C1288 C 0.27545 0.883 0.34472 0.0
C1289 C 0.2457 0.8577 0.34989 0.0
C1290 C 0.29748 0.8509 0.33865 0.0
C1291 C 0.24301 0.8293 0.35029 0.0
C1292 C 0.31641 0.8191 0.32328 0.0
C1293 C 0.3751 0.86951 0.31282 0.0
N1294 N 0.26853 0.82665 0.34447 0.0
N1295 N 0.35207 0.87105 0.32396 0.0
H1296 H 0.08505 0.50963 0.32993 0.0
H1297 H 0.15447 0.40235 0.3055 0.0
H1298 H 0.14132 0.52678 0.27226 0.0
H1299 H 0.13871 0.4172 0.36839 0.0
H1300 H 0.13972 0.44021 0.29097 0.0
H1301 H 0.09363 0.46718 0.34198 0.0
C1302 C 0.09892 0.50414 0.31973 0.0
C1303 C 0.11292 0.52189 0.30026 0.0
C1304 C 0.13952 0.43511 0.30794 0.0
C1305 C 0.12257 0.47325 0.31376 0.0
C1306 C 0.14779 0.41351 0.31624 0.0
C1307 C 0.14824 0.40699 0.3382 0.0
C1308 C 0.13084 0.44968 0.32175 0.0
C1309 C 0.1394 0.42203 0.35141 0.0
C1310 C 0.10387 0.48003 0.3266 0.0
C1311 C 0.13014 0.51357 0.28737 0.0
N1312 N 0.13092 0.44254 0.343 0.0
N1313 N 0.13469 0.48989 0.2944 0.0
H1314 H 0.37329 0.54855 0.29409 0.0
H1315 H 0.23438 0.42301 0.34023 0.0
H1316 H 0.42066 0.49967 0.31804 0.0
H1317 H 0.28398 0.37387 0.33125 0.0
H1318 H 0.28357 0.46978 0.32953 0.0
H1319 H 0.32167 0.50344 0.30389 0.0
C1320 C 0.37261 0.52811 0.30133 0.0
C1321 C 0.401 0.52755 0.30513 0.0
C1322 C 0.28375 0.44885 0.32958 0.0
C1323 C 0.34226 0.476 0.31697 0.0
C1324 C 0.25568 0.42208 0.336 0.0
C1325 C 0.25518 0.39449 0.33693 0.0
C1326 C 0.31162 0.44812 0.3238 0.0
C1327 C 0.28341 0.39468 0.3309 0.0
C1328 C 0.34324 0.50247 0.30719 0.0
C1329 C 0.39916 0.50072 0.31464 0.0
N1330 N 0.31053 0.42104 0.32481 0.0
N1331 N 0.37031 0.47597 0.32015 0.0
H1332 H 0.46258 0.80977 0.29149 0.0
H1333 H 0.63252 0.92462 0.32662 0.0
H1334 H 0.48984 0.90186 0.29468 0.0
H1335 H 0.58992 0.82882 0.34189 0.0
H1336 H 0.58255 0.91818 0.31234 0.0
H1337 H 0.51266 0.81768 0.30635 0.0
C1338 C 0.47959 0.83177 0.29499 0.0
C1339 C 0.47274 0.85533 0.29171 0.0
C1340 C 0.58411 0.89864 0.31908 0.0
C1341 C 0.52926 0.86459 0.30889 0.0
C1342 C 0.61245 0.90232 0.32728 0.0
C1343 C 0.6151 0.87725 0.33558 0.0
C1344 C 0.55873 0.86965 0.31883 0.0
C1345 C 0.58874 0.84876 0.33587 0.0
C1346 C 0.50785 0.83626 0.30363 0.0
C1347 C 0.49493 0.88345 0.29663 0.0
N1348 N 0.56169 0.84572 0.32745 0.0
N1349 N 0.52235 0.88737 0.30504 0.0
H1350 H 0.15151 0.6515 0.27833 0.0
H1351 H 0.13014 0.72493 0.37618 0.0
H1352 H 0.09571 0.59897 0.33574 0.0
H1353 H 0.15632 0.77172 0.31264 0.0
H1354 H 0.12266 0.67952 0.3629 0.0
H1355 H 0.15882 0.69694 0.29174 0.0
C1356 C 0.14078 0.64962 0.29375 0.0
C1357 C 0.1229 0.62155 0.30594 0.0
C1358 C 0.13002 0.69972 0.35186 0.0
C1359 C 0.13152 0.67327 0.32155 0.0
C1360 C 0.13459 0.72572 0.35948 0.0
C1361 C 0.14421 0.75221 0.34557 0.0
C1362 C 0.1355 0.70031 0.33015 0.0
C1363 C 0.14875 0.75172 0.32392 0.0
C1364 C 0.14497 0.67547 0.30141 0.0
C1365 C 0.10991 0.62026 0.32598 0.0
N1366 N 0.1446 0.72626 0.31689 0.0
N1367 N 0.11453 0.64576 0.3332 0.0
H1368 H 0.88322 0.05592 0.40543 0.0
H1369 H 0.70037 0.94441 0.39091 0.0
H1370 H 0.80968 0.07947 0.41401 0.0
H1371 H 0.77695 0.93921 0.35972 0.0
H1372 H 0.73955 0.99112 0.40299 0.0
H1373 H 0.84434 0.01041 0.39167 0.0
C1374 C 0.85892 0.05157 0.40429 0.0
C1375 C 0.84963 0.07143 0.41095 0.0
C1376 C 0.74772 0.97979 0.39342 0.0
C1377 C 0.80482 0.01912 0.39572 0.0
C1378 C 0.72537 0.95307 0.38657 0.0
C1379 C 0.73528 0.93785 0.37417 0.0
C1380 C 0.78032 0.99117 0.3882 0.0
C1381 C 0.76809 0.95024 0.36907 0.0
C1382 C 0.83672 0.02557 0.39653 0.0
C1383 C 0.8177 0.0645 0.40941 0.0
N1384 N 0.78939 0.97598 0.37621 0.0
N1385 N 0.79643 0.03887 0.40212 0.0
H1386 H 0.9901 0.86947 0.42024 0.0
H1387 H 0.05309 0.76268 0.385 0.0
H1388 H 0.92794 0.77616 0.4169 0.0
H1389 H 0.10746 0.85896 0.375 0.0
H1390 H 0.00647 0.76626 0.39641 0.0
H1391 H 0.03423 0.86538 0.40462 0.0
C1392 C 0.98611 0.84804 0.41648 0.0
C1393 C 0.95592 0.823 0.42008 0.0
C1394 C 0.02848 0.78659 0.39132 0.0
C1395 C 0.00547 0.81803 0.40198 0.0
C1396 C 0.05493 0.78454 0.38471 0.0
C1397 C 0.08397 0.81055 0.37889 0.0
C1398 C 0.0315 0.81487 0.3925 0.0
C1399 C 0.08546 0.83837 0.37905 0.0
C1400 C 0.011 0.8457 0.4074 0.0
C1401 C 0.95129 0.79568 0.41478 0.0
N1402 N 0.05965 0.8398 0.38597 0.0
N1403 N 0.9759 0.79385 0.40597 0.0
H1404 H 0.27558 0.18853 0.41963 0.0
H1405 H 0.15076 0.23922 0.37828 0.0
H1406 H 0.17473 0.12904 0.42156 0.0
H1407 H 0.24266 0.30337 0.39619 0.0
H1408 H 0.16111 0.19894 0.39227 0.0
H1409 H 0.2661 0.23136 0.4102 0.0
C1410 C 0.25145 0.1846 0.41837 0.0
C1411 C 0.22586 0.15531 0.42116 0.0
C1412 C 0.17903 0.22177 0.3933 0.0
C1413 C 0.21488 0.20377 0.41002 0.0
C1414 C 0.17321 0.2449 0.38517 0.0
C1415 C 0.19596 0.27483 0.38593 0.0
C1416 C 0.20801 0.22838 0.40214 0.0
C1417 C 0.22446 0.28062 0.39529 0.0
C1418 C 0.24605 0.20894 0.4129 0.0
C1419 C 0.19507 0.15128 0.41917 0.0
N1420 N 0.22983 0.25759 0.40287 0.0
N1421 N 0.19047 0.17513 0.41352 0.0
H1422 H 0.59713 0.53314 0.74521 0.0
H1423 H 0.78326 0.59914 0.71437 0.0
H1424 H 0.64527 0.48162 0.75824 0.0
H1425 H 0.7394 0.65461 0.71733 0.0
H1426 H 0.73225 0.55497 0.72757 0.0
H1427 H 0.64841 0.57748 0.73304 0.0
C1428 C 0.6187 0.53146 0.74597 0.0
C1429 C 0.6172 0.50398 0.75307 0.0
C1430 C 0.73376 0.5768 0.72525 0.0
C1431 C 0.67585 0.55414 0.73839 0.0
C1432 C 0.76278 0.60194 0.71752 0.0
C1433 C 0.76534 0.63049 0.71435 0.0
C1434 C 0.70715 0.58024 0.72992 0.0
C1435 C 0.73829 0.63295 0.71928 0.0
C1436 C 0.64792 0.5566 0.7388 0.0
C1437 C 0.64567 0.5026 0.75308 0.0
N1438 N 0.71037 0.60823 0.72667 0.0
N1439 N 0.67377 0.52722 0.7457 0.0
H1440 H 0.55105 0.22813 0.75164 0.0
H1441 H 0.38445 0.11987 0.71153 0.0
H1442 H 0.52282 0.13726 0.7434 0.0
H1443 H 0.42475 0.21579 0.70213 0.0
H1444 H 0.43624 0.12596 0.72134 0.0
H1445 H 0.50609 0.22509 0.73165 0.0
C1446 C 0.53538 0.20773 0.74538 0.0
C1447 C 0.53978 0.18276 0.74922 0.0
C1448 C 0.4339 0.14571 0.71671 0.0
C1449 C 0.48895 0.17882 0.72673 0.0
C1450 C 0.40441 0.14218 0.71117 0.0
C1451 C 0.40059 0.16734 0.70582 0.0
C1452 C 0.45927 0.17459 0.71753 0.0
C1453 C 0.42687 0.19584 0.70585 0.0
C1454 C 0.50996 0.20593 0.73397 0.0
C1455 C 0.51946 0.15671 0.74082 0.0
N1456 N 0.45509 0.19871 0.71185 0.0
N1457 N 0.49457 0.15523 0.73015 0.0
H1458 H 0.8291 0.37511 0.74185 0.0
H1459 H 0.88652 0.25516 0.73197 0.0
H1460 H 0.92558 0.39424 0.75058 0.0
H1461 H 0.80897 0.25489 0.69789 0.0
H1462 H 0.89799 0.30303 0.74314 0.0
H1463 H 0.81805 0.32793 0.72942 0.0
C1464 C 0.84798 0.36946 0.74097 0.0
C1465 C 0.87829 0.38857 0.7472 0.0
C1466 C 0.87854 0.2925 0.73315 0.0
C1467 C 0.8657 0.33441 0.73361 0.0
C1468 C 0.8719 0.26513 0.72684 0.0
C1469 C 0.84684 0.25102 0.71388 0.0
C1470 C 0.85962 0.30562 0.72683 0.0
C1471 C 0.82871 0.26507 0.70771 0.0
C1472 C 0.84166 0.34252 0.73401 0.0
C1473 C 0.90179 0.3799 0.74621 0.0
N1474 N 0.83531 0.29146 0.71436 0.0
N1475 N 0.89497 0.35338 0.7397 0.0
H1476 H 0.16596 0.9954 0.60895 0.0
H1477 H 0.26777 0.07886 0.70265 0.0
H1478 H 0.16479 0.94921 0.67004 0.0
H1479 H 0.28387 0.12157 0.63819 0.0
H1480 H 0.22755 0.03208 0.69165 0.0
H1481 H 0.20636 0.04256 0.61988 0.0
C1482 C 0.17421 0.99528 0.6247 0.0
C1483 C 0.16205 0.96842 0.63862 0.0
C1484 C 0.23983 0.05163 0.67987 0.0
C1485 C 0.20813 0.02229 0.65137 0.0
C1486 C 0.26265 0.07848 0.6862 0.0
C1487 C 0.27891 0.10436 0.67142 0.0
C1488 C 0.23292 0.05051 0.65853 0.0
C1489 C 0.27197 0.10217 0.65013 0.0
C1490 C 0.19725 0.02216 0.63094 0.0
C1491 C 0.17327 0.96948 0.65894 0.0
N1492 N 0.24936 0.07582 0.64435 0.0
N1493 N 0.19562 0.99593 0.6647 0.0
H1494 H 0.0102 0.13598 0.65823 0.0
H1495 H 0.93624 0.24132 0.67745 0.0
H1496 H 0.06063 0.23176 0.64277 0.0
H1497 H 0.88395 0.14498 0.68644 0.0
H1498 H 0.98535 0.23898 0.67136 0.0
H1499 H 0.96647 0.13927 0.6755 0.0
C1500 C 0.01183 0.15763 0.65863 0.0
C1501 C 0.03816 0.18358 0.6489 0.0
C1502 C 0.96314 0.21836 0.67512 0.0
C1503 C 0.98915 0.18782 0.6683 0.0
C1504 C 0.93527 0.21973 0.67858 0.0
C1505 C 0.90624 0.19331 0.68281 0.0
C1506 C 0.96156 0.19033 0.67548 0.0
C1507 C 0.90586 0.16584 0.6838 0.0
C1508 C 0.98718 0.15963 0.66845 0.0
C1509 C 0.04007 0.21136 0.64989 0.0
N1510 N 0.93311 0.16505 0.68004 0.0
N1511 N 0.01563 0.21279 0.65925 0.0
H1512 H 0.75126 0.84361 0.66014 0.0
H1513 H 0.82471 0.73971 0.63433 0.0
H1514 H 0.80976 0.86325 0.60311 0.0
H1515 H 0.80484 0.75046 0.69758 0.0
H1516 H 0.80903 0.77712 0.62031 0.0
H1517 H 0.7597 0.80088 0.67161 0.0
C1518 C 0.76563 0.83866 0.64996 0.0
C1519 C 0.78037 0.85721 0.63087 0.0
C1520 C 0.80809 0.7712 0.63726 0.0
C1521 C 0.78973 0.80819 0.64364 0.0
C1522 C 0.81692 0.74986 0.64525 0.0
C1523 C 0.81658 0.74241 0.66717 0.0
C1524 C 0.7981 0.78457 0.65131 0.0
C1525 C 0.80624 0.75612 0.68063 0.0
C1526 C 0.77045 0.81435 0.65648 0.0
C1527 C 0.79805 0.84944 0.61794 0.0
N1528 N 0.79731 0.77642 0.67251 0.0
N1529 N 0.80247 0.8256 0.62461 0.0
H1530 H 0.03924 0.88792 0.63232 0.0
H1531 H 0.95395 0.70935 0.66204 0.0
H1532 H 0.09083 0.83885 0.63914 0.0
H1533 H 0.90589 0.7605 0.66857 0.0
H1534 H 0.00359 0.75603 0.65134 0.0
H1535 H 0.98947 0.8412 0.64316 0.0
C1536 C 0.03997 0.86721 0.63615 0.0
C1537 C 0.0691 0.86718 0.63511 0.0
C1538 C 0.98227 0.75711 0.65522 0.0
C1539 C 0.01232 0.81352 0.64716 0.0
C1540 C 0.95394 0.73048 0.66133 0.0
C1541 C 0.92595 0.73108 0.66667 0.0
C1542 C 0.98255 0.78469 0.65392 0.0
C1543 C 0.9271 0.75903 0.66507 0.0
C1544 C 0.01163 0.84057 0.64231 0.0
C1545 C 0.06881 0.83974 0.63975 0.0
N1546 N 0.95489 0.78468 0.65886 0.0
N1547 N 0.04092 0.81403 0.64559 0.0
H1548 H 0.1543 0.23613 0.65205 0.0
H1549 H 0.26458 0.16359 0.67452 0.0
H1550 H 0.14069 0.15874 0.62481 0.0
H1551 H 0.30504 0.25958 0.66573 0.0
H1552 H 0.21393 0.15883 0.66382 0.0
H1553 H 0.20611 0.24332 0.66357 0.0
C1554 C 0.16272 0.22103 0.6483 0.0
C1555 C 0.14406 0.19712 0.63735 0.0
C1556 C 0.23387 0.1809 0.66438 0.0
C1557 C 0.20166 0.20433 0.6509 0.0
C1558 C 0.26262 0.18364 0.6707 0.0
C1559 C 0.28875 0.21204 0.67125 0.0
C1560 C 0.23131 0.20672 0.65864 0.0
C1561 C 0.28518 0.23734 0.66566 0.0
C1562 C 0.19191 0.225 0.65486 0.0
C1563 C 0.15502 0.17757 0.63302 0.0
N1564 N 0.25675 0.23412 0.65965 0.0
N1565 N 0.18316 0.18139 0.64004 0.0
H1566 H 0.74018 0.9454 0.63427 0.0
H1567 H 0.84741 0.08446 0.69385 0.0
H1568 H 0.83913 0.97432 0.64266 0.0
H1569 H 0.76799 0.07928 0.65957 0.0
H1570 H 0.84057 0.03943 0.68037 0.0
H1571 H 0.74599 0.99011 0.64825 0.0
C1572 C 0.76308 0.96121 0.63915 0.0
C1573 C 0.78916 0.95618 0.63757 0.0
C1574 C 0.82464 0.04815 0.67582 0.0
C1575 C 0.79592 1.0069 0.65377 0.0
C1576 C 0.82837 0.07376 0.6836 0.0
C1577 C 0.80821 0.08571 0.67783 0.0
C1578 C 0.80027 0.03402 0.66242 0.0
C1579 C 0.78414 0.07094 0.66437 0.0
C1580 C 0.7664 0.98661 0.64709 0.0
C1581 C 0.81837 0.97718 0.64408 0.0
N1582 N 0.78071 0.04575 0.65721 0.0
N1583 N 0.82094 1.00155 0.65206 0.0
H1584 H 0.51774 0.37674 0.77427 0.0
H1585 H 0.42347 0.2996 0.67649 0.0
H1586 H 0.52129 0.42732 0.71458 0.0
H1587 H 0.39988 0.25513 0.74069 0.0
H1588 H 0.4629 0.34552 0.68913 0.0
H1589 H 0.47821 0.33091 0.76137 0.0
C1590 C 0.51014 0.37812 0.75843 0.0
C1591 C 0.5227 0.40582 0.74549 0.0
C1592 C 0.4491 0.32573 0.70047 0.0
C1593 C 0.47777 0.35346 0.73045 0.0
C1594 C 0.42675 0.2994 0.69321 0.0
C1595 C 0.40858 0.27332 0.70748 0.0
C1596 C 0.45363 0.326 0.72218 0.0
C1597 C 0.41327 0.27471 0.72911 0.0
C1598 C 0.48762 0.352 0.75106 0.0
C1599 C 0.51244 0.40637 0.72495 0.0
N1600 N 0.43547 0.30049 0.73578 0.0
N1601 N 0.49063 0.38059 0.71805 0.0
H1602 H 0.66558 0.20924 0.76365 0.0
H1603 H 0.71296 0.09553 0.72224 0.0
H1604 H 0.5944 0.1199 0.75612 0.0
H1605 H 0.76903 0.19143 0.70784 0.0
H1606 H 0.66943 0.10169 0.73677 0.0
H1607 H 0.70593 0.20077 0.74688 0.0
C1608 C 0.65882 0.18762 0.75885 0.0
C1609 C 0.62715 0.16504 0.76146 0.0
C1610 C 0.69113 0.12129 0.73004 0.0
C1611 C 0.67232 0.15525 0.74197 0.0
C1612 C 0.71577 0.11779 0.72165 0.0
C1613 C 0.74455 0.143 0.71377 0.0
C1614 C 0.69582 0.15022 0.73089 0.0
C1615 C 0.7473 0.17138 0.71356 0.0
C1616 C 0.68153 0.18287 0.74907 0.0
C1617 C 0.61892 0.13747 0.75476 0.0
N1618 N 0.7234 0.17424 0.72226 0.0
N1619 N 0.64146 0.13326 0.74526 0.0
H1620 H 0.86247 0.48453 0.77819 0.0
H1621 H 0.89077 0.61132 0.68325 0.0
H1622 H 0.9242 0.50414 0.72291 0.0
H1623 H 0.85834 0.61257 0.74587 0.0
H1624 H 0.90151 0.57093 0.69722 0.0
H1625 H 0.85952 0.53054 0.76701 0.0
C1626 C 0.87574 0.49886 0.76385 0.0
C1627 C 0.89331 0.4906 0.75128 0.0
C1628 C 0.89225 0.58011 0.70798 0.0
C1629 C 0.88968 0.54269 0.73816 0.0
C1630 C 0.88581 0.60296 0.69995 0.0
C1631 C 0.87319 0.61488 0.71337 0.0
C1632 C 0.88559 0.56876 0.7296 0.0
C1633 C 0.86808 0.60389 0.73502 0.0
C1634 C 0.874 0.52498 0.75743 0.0
C1635 C 0.91004 0.50968 0.73279 0.0
N1636 N 0.87389 0.58113 0.74245 0.0
N1637 N 0.90747 0.53461 0.72662 0.0
H1638 H 0.4676 0.85745 0.23883 0.0
H1639 H 0.54041 0.0288 0.18762 0.0
H1640 H 0.45622 0.92374 0.26716 0.0
H1641 H 0.53931 0.96029 0.1542 0.0
H1642 H 0.51909 0.99249 0.21968 0.0
H1643 H 0.50303 0.89662 0.21034 0.0
C1644 C 0.47295 0.88038 0.23903 0.0
C1645 C 0.45875 0.88761 0.25483 0.0
C1646 C 0.52382 0.98546 0.20539 0.0
C1647 C 0.49886 0.9322 0.22283 0.0
C1648 C 0.53621 1.00625 0.18712 0.0
C1649 C 0.54122 0.99743 0.16816 0.0
C1650 C 0.51639 0.95565 0.20469 0.0
C1651 C 0.53515 0.96784 0.1684 0.0
C1652 C 0.49299 0.90264 0.22289 0.0
C1653 C 0.46634 0.91747 0.25482 0.0
N1654 N 0.52276 0.94792 0.18633 0.0
N1655 N 0.48571 0.93869 0.23896 0.0
H1656 H 0.05043 0.50718 0.27525 0.0
H1657 H 0.0559 0.54724 0.15039 0.0
H1658 H 0.1323 0.57721 0.23766 0.0
H1659 H 0.97794 0.46885 0.18573 0.0
H1660 H 0.08608 0.55521 0.18176 0.0
H1661 H 0.02547 0.4888 0.24262 0.0
C1662 C 0.06348 0.51798 0.26008 0.0
C1663 C 0.09332 0.54361 0.25894 0.0
C1664 C 0.06248 0.53607 0.18264 0.0
C1665 C 0.06492 0.52361 0.22171 0.0
C1666 C 0.04521 0.53139 0.16462 0.0
C1667 C 0.01407 0.50743 0.1653 0.0
C1668 C 0.04856 0.5169 0.2017 0.0
C1669 C 0.00153 0.48803 0.18447 0.0
C1670 C 0.04921 0.50778 0.24148 0.0
C1671 C 0.10923 0.55732 0.23902 0.0
N1672 N 0.01865 0.49335 0.20192 0.0
N1673 N 0.09469 0.54745 0.22119 0.0
H1674 H 0.44992 0.50952 0.28356 0.0
H1675 H 0.47915 0.53611 0.15787 0.0
H1676 H 0.44423 0.57993 0.24355 0.0
H1677 H 0.46993 0.45749 0.19688 0.0
H1678 H 0.4627 0.55054 0.18872 0.0
H1679 H 0.45304 0.4877 0.25205 0.0
C1680 C 0.44827 0.51977 0.26814 0.0
C1681 C 0.44638 0.54624 0.26605 0.0
C1682 C 0.46402 0.52999 0.19051 0.0
C1683 C 0.45124 0.52233 0.22989 0.0
C1684 C 0.47328 0.52162 0.17281 0.0
C1685 C 0.47632 0.49564 0.17468 0.0
C1686 C 0.45789 0.51242 0.21035 0.0
C1687 C 0.4687 0.47807 0.19467 0.0
C1688 C 0.45046 0.50759 0.25012 0.0
C1689 C 0.44546 0.55935 0.24569 0.0
N1690 N 0.46015 0.4869 0.2117 0.0
N1691 N 0.44824 0.54748 0.2284 0.0
H1692 H 0.96721 0.48541 0.77256 0.0
H1693 H 0.97023 0.53083 0.88861 0.0
H1694 H 0.88211 0.46382 0.80945 0.0
H1695 H 0.04746 0.52592 0.85793 0.0
H1696 H 0.93919 0.51393 0.85794 0.0
H1697 H 0.99907 0.50962 0.80145 0.0
C1698 C 0.95546 0.48659 0.78662 0.0
C1699 C 0.9223 0.47324 0.78869 0.0
C1700 C 0.963 0.51672 0.85795 0.0
C1701 C 0.95807 0.49997 0.82194 0.0
C1702 C 0.98071 0.52615 0.87554 0.0
C1703 C 0.01167 0.52984 0.87602 0.0
C1704 C 0.97638 0.51118 0.84059 0.0
C1705 C 0.02402 0.52397 0.85828 0.0
C1706 C 0.97346 0.50004 0.80316 0.0
C1707 C 0.90776 0.47451 0.80728 0.0
N1708 N 0.0064 0.51499 0.84137 0.0
N1709 N 0.92574 0.48755 0.8233 0.0
H1710 H 0.56082 0.51839 0.77634 0.0
H1711 H 0.52117 0.47536 0.90083 0.0
H1712 H 0.57718 0.45226 0.81336 0.0
H1713 H 0.52319 0.55339 0.86574 0.0
H1714 H 0.54555 0.46898 0.86959 0.0
H1715 H 0.55172 0.53474 0.80904 0.0
C1716 C 0.56389 0.50826 0.79137 0.0
C1717 C 0.57055 0.48451 0.79222 0.0
C1718 C 0.54092 0.48767 0.86878 0.0
C1719 C 0.55841 0.50176 0.82979 0.0
C1720 C 0.52709 0.49143 0.88671 0.0
C1721 C 0.5196 0.51476 0.88602 0.0
C1722 C 0.54722 0.50721 0.84984 0.0
C1723 C 0.52765 0.53459 0.86701 0.0
C1724 C 0.55817 0.51719 0.81008 0.0
C1725 C 0.57273 0.47107 0.81215 0.0
N1726 N 0.54065 0.53019 0.8497 0.0
N1727 N 0.56625 0.47955 0.83012 0.0
H1728 H 0.54095 0.09944 0.78169 0.0
H1729 H 0.57089 0.04893 0.89875 0.0
H1730 H 0.6144 0.15862 0.8179 0.0
H1731 H 0.48732 0.99768 0.86598 0.0
H1732 H 0.594 0.08507 0.86667 0.0
H1733 H 0.52863 0.05759 0.80949 0.0
C1734 C 0.55481 0.10329 0.79545 0.0
C1735 C 0.5784 0.13219 0.79785 0.0
C1736 C 0.57079 0.0657 0.86646 0.0
C1737 C 0.56436 0.08497 0.82976 0.0
C1738 C 0.55747 0.04514 0.88478 0.0
C1739 C 0.52681 0.02047 0.88521 0.0
C1740 C 0.5534 0.06151 0.84839 0.0
C1741 C 0.51099 0.01627 0.86645 0.0
C1742 C 0.54779 0.07958 0.8113 0.0
C1743 C 0.59599 0.13648 0.81572 0.0
N1744 N 0.52432 0.03676 0.84889 0.0
N1745 N 0.58832 0.11311 0.83124 0.0
H1746 H 0.15426 0.25279 0.61173 0.0
H1747 H 0.14368 0.28636 0.49096 0.0
H1748 H 0.09891 0.18247 0.57495 0.0
H1749 H 0.23093 0.33946 0.5199 0.0
H1750 H 0.12605 0.24902 0.52209 0.0
H1751 H 0.18301 0.28582 0.57914 0.0
C1752 C 0.149 0.24407 0.5968 0.0
C1753 C 0.12451 0.21495 0.59585 0.0
C1754 C 0.14924 0.26867 0.5215 0.0
C1755 C 0.15597 0.25273 0.55867 0.0
C1756 C 0.15951 0.29008 0.50364 0.0
C1757 C 0.18912 0.31624 0.50255 0.0
C1758 C 0.1682 0.27363 0.53877 0.0
C1759 C 0.20777 0.31996 0.52004 0.0
C1760 C 0.16513 0.26294 0.57823 0.0
C1761 C 0.11764 0.20489 0.57614 0.0
N1762 N 0.19683 0.29904 0.53756 0.0
N1763 N 0.13291 0.22394 0.55823 0.0
H1764 H 0.79676 0.893 0.57053 0.0
H1765 H 0.63047 0.83992 0.52146 0.0
H1766 H 0.70926 0.85953 0.60832 0.0
H1767 H 0.70769 0.83799 0.48814 0.0
H1768 H 0.66009 0.84861 0.55297 0.0
H1769 H 0.76611 0.87356 0.53985 0.0
C1770 C 0.77104 0.88056 0.57244 0.0
C1771 C 0.7553 0.87722 0.59188 0.0
C1772 C 0.67047 0.84603 0.53882 0.0
C1773 C 0.72021 0.85631 0.55698 0.0
C1774 C 0.65346 0.84091 0.52073 0.0
C1775 C 0.66628 0.8379 0.50191 0.0
C1776 C 0.70097 0.84883 0.53822 0.0
C1777 C 0.69684 0.84052 0.50206 0.0
C1778 C 0.75358 0.86977 0.55498 0.0
C1779 C 0.72203 0.86193 0.5936 0.0
N1780 N 0.71322 0.84604 0.51986 0.0
N1781 N 0.70556 0.85241 0.57631 0.0
H1782 H 0.08764 0.895 0.57819 0.0
H1783 H 0.1865 0.82784 0.52755 0.0
H1784 H 0.14707 0.86691 0.61311 0.0
H1785 H 0.10821 0.83102 0.4966 0.0
H1786 H 0.17259 0.84345 0.5585 0.0
H1787 H 0.09367 0.87193 0.54798 0.0
C1788 C 0.10117 0.88315 0.57961 0.0
C1789 C 0.11661 0.88238 0.59806 0.0
C1790 C 0.15826 0.84058 0.54502 0.0
C1791 C 0.12463 0.85705 0.56366 0.0
C1792 C 0.16613 0.83151 0.52726 0.0
C1793 C 0.1483 0.82762 0.50935 0.0
C1794 C 0.13257 0.84638 0.54501 0.0
C1795 C 0.12284 0.83385 0.5099 0.0
C1796 C 0.10487 0.87027 0.5624 0.0
C1797 C 0.13454 0.8675 0.59916 0.0
N1798 N 0.11578 0.84298 0.52741 0.0
N1799 N 0.13836 0.85573 0.58214 0.0
H1800 H 0.63189 0.81551 0.10835 0.0
H1801 H 0.63112 0.86199 0.22366 0.0
H1802 H 0.5458 0.79435 0.14384 0.0
H1803 H 0.70979 0.85784 0.19443 0.0
H1804 H 0.60102 0.84444 0.19274 0.0
H1805 H 0.66281 0.83985 0.13753 0.0
C1806 C 0.61973 0.81678 0.12218 0.0
C1807 C 0.58656 0.80354 0.12376 0.0
C1808 C 0.62493 0.84752 0.19313 0.0
C1809 C 0.62125 0.83046 0.15731 0.0
C1810 C 0.6421 0.85733 0.21085 0.0
C1811 C 0.67318 0.86144 0.21181 0.0
C1812 C 0.63896 0.84199 0.17611 0.0
C1813 C 0.68621 0.85557 0.1944 0.0
C1814 C 0.63719 0.83032 0.13887 0.0
C1815 C 0.57147 0.80493 0.14204 0.0
N1816 N 0.66909 0.8462 0.17734 0.0
N1817 N 0.58893 0.81808 0.15822 0.0
H1818 H 0.20335 0.83336 0.10919 0.0
H1819 H 0.23138 0.85214 0.23167 0.0
H1820 H 0.26248 0.80438 0.14359 0.0
H1821 H 0.1546 0.85533 0.1986 0.0
H1822 H 0.24925 0.84136 0.19926 0.0
H1823 H 0.19349 0.85101 0.1409 0.0
C1824 C 0.21509 0.83171 0.12335 0.0
C1825 C 0.23412 0.81795 0.12379 0.0
C1826 C 0.22859 0.84458 0.19918 0.0
C1827 C 0.22206 0.8369 0.16051 0.0
C1828 C 0.21817 0.85051 0.21773 0.0
C1829 C 0.19152 0.85505 0.21801 0.0
C1830 C 0.21243 0.8434 0.18068 0.0
C1831 C 0.17571 0.85287 0.19924 0.0
C1832 C 0.20912 0.84131 0.14154 0.0
C1833 C 0.24816 0.81545 0.14262 0.0
N1834 N 0.18645 0.84738 0.18147 0.0
N1835 N 0.24166 0.8246 0.16035 0.0
H1836 H 0.27639 0.48022 0.15028 0.0
H1837 H 0.14729 0.31772 0.20103 0.0
H1838 H 0.2014 0.41835 0.11635 0.0
H1839 H 0.23188 0.37189 0.23192 0.0
H1840 H 0.17075 0.35173 0.16832 0.0
H1841 H 0.26517 0.43904 0.17877 0.0
C1842 C 0.2581 0.45772 0.14873 0.0
C1843 C 0.2394 0.45236 0.13138 0.0
C1844 C 0.18442 0.35601 0.18217 0.0
C1845 C 0.22602 0.40562 0.16356 0.0
C1846 C 0.17105 0.33644 0.20088 0.0
C1847 C 0.18734 0.34218 0.21942 0.0
C1848 C 0.21413 0.3818 0.182 0.0
C1849 C 0.21801 0.36705 0.21819 0.0
C1850 C 0.25157 0.43431 0.1649 0.0
C1851 C 0.2159 0.4231 0.12979 0.0
N1852 N 0.2302 0.38622 0.1999 0.0
N1853 N 0.20952 0.40085 0.14585 0.0
H1854 H 0.83103 0.60109 0.94303 0.0
H1855 H 0.80998 0.62941 0.82224 0.0
H1856 H 0.76459 0.53112 0.90967 0.0
H1857 H 0.89963 0.68218 0.84871 0.0
H1858 H 0.79259 0.59382 0.85442 0.0
H1859 H 0.85714 0.63161 0.90917 0.0
C1860 C 0.82263 0.59183 0.92853 0.0
C1861 C 0.79587 0.56358 0.92899 0.0
C1862 C 0.81621 0.61301 0.85309 0.0
C1863 C 0.82451 0.59866 0.89036 0.0
C1864 C 0.8263 0.63339 0.83464 0.0
C1865 C 0.8565 0.65895 0.83258 0.0
C1866 C 0.83609 0.6184 0.8699 0.0
C1867 C 0.87599 0.66313 0.84963 0.0
C1868 C 0.83728 0.60932 0.90924 0.0
C1869 C 0.78512 0.55291 0.90981 0.0
N1870 N 0.86532 0.6432 0.86767 0.0
N1871 N 0.79917 0.57066 0.89122 0.0
H1872 H 0.378 0.19083 0.94348 0.0
H1873 H 0.38232 0.16888 0.82167 0.0
H1874 H 0.46582 0.22604 0.9057 0.0
H1875 H 0.30414 0.1698 0.85454 0.0
H1876 H 0.41164 0.18 0.85366 0.0
H1877 H 0.34845 0.17096 0.91265 0.0
C1878 C 0.39092 0.19342 0.92878 0.0
C1879 C 0.42415 0.20954 0.92701 0.0
C1880 C 0.38796 0.17753 0.8538 0.0
C1881 C 0.39094 0.18782 0.89164 0.0
C1882 C 0.37123 0.17143 0.83548 0.0
C1883 C 0.34047 0.16829 0.8352 0.0
C1884 C 0.37373 0.18009 0.8721 0.0
C1885 C 0.32736 0.17129 0.8539 0.0
C1886 C 0.3742 0.18251 0.91116 0.0
C1887 C 0.44013 0.21321 0.90758 0.0
N1888 N 0.34397 0.17692 0.87151 0.0
N1889 N 0.42337 0.20256 0.89054 0.0
H1890 H 0.81832 0.19921 0.94728 0.0
H1891 H 0.77165 0.16237 0.82963 0.0
H1892 H 0.75541 0.22413 0.91384 0.0
H1893 H 0.8507 0.15936 0.85956 0.0
H1894 H 0.75998 0.17915 0.8613 0.0
H1895 H 0.82346 0.17647 0.91688 0.0
C1896 C 0.805 0.19913 0.93362 0.0
C1897 C 0.78631 0.21323 0.93294 0.0
C1898 C 0.77979 0.17468 0.86089 0.0
C1899 C 0.79254 0.18813 0.89788 0.0
C1900 C 0.78666 0.16532 0.84274 0.0
C1901 C 0.81214 0.15917 0.84182 0.0
C1902 C 0.79839 0.17777 0.87833 0.0
C1903 C 0.83039 0.16309 0.85954 0.0
C1904 C 0.80815 0.18653 0.9162 0.0
C1905 C 0.7698 0.21314 0.91487 0.0
N1906 N 0.82311 0.172 0.87697 0.0
N1907 N 0.77345 0.20097 0.89792 0.0
H1908 H 0.22422 0.14121 0.47071 0.0
H1909 H 0.38665 0.19483 0.52799 0.0
H1910 H 0.30992 0.14868 0.44315 0.0
H1911 H 0.30811 0.2028 0.55329 0.0
H1912 H 0.35838 0.17884 0.49658 0.0
H1913 H 0.25394 0.16558 0.50051 0.0
C1914 C 0.24947 0.14867 0.47079 0.0
C1915 C 0.26486 0.14305 0.45468 0.0
C1916 C 0.34729 0.18423 0.5089 0.0
C1917 C 0.29866 0.17007 0.48854 0.0
C1918 C 0.36356 0.19355 0.5269 0.0
C1919 C 0.34998 0.20049 0.54337 0.0
C1920 C 0.31685 0.18139 0.50725 0.0
C1921 C 0.31947 0.19745 0.54113 0.0
C1922 C 0.26634 0.1623 0.48778 0.0
C1923 C 0.2974 0.15265 0.45542 0.0
N1924 N 0.30388 0.18804 0.52343 0.0
N1925 N 0.31315 0.16541 0.47215 0.0
H1926 H 0.92477 0.1384 0.47604 0.0
H1927 H 0.80988 0.18479 0.53147 0.0
H1928 H 0.86388 0.16614 0.44275 0.0
H1929 H 0.88863 0.18418 0.56346 0.0
H1930 H 0.82951 0.17647 0.49932 0.0
H1931 H 0.91383 0.15515 0.50825 0.0
C1932 C 0.91011 0.14912 0.47537 0.0
C1933 C 0.89562 0.1515 0.45673 0.0
C1934 C 0.84273 0.17834 0.51329 0.0
C1935 C 0.88181 0.16935 0.49347 0.0
C1936 C 0.83154 0.18322 0.53177 0.0
C1937 C 0.84781 0.18578 0.55035 0.0
C1938 C 0.87028 0.1754 0.51313 0.0
C1939 C 0.87514 0.18231 0.54965 0.0
C1940 C 0.90351 0.15829 0.49376 0.0
C1941 C 0.8759 0.16451 0.45675 0.0
N1942 N 0.88548 0.17725 0.53138 0.0
N1943 N 0.86927 0.17258 0.47483 0.0
H1944 H 0.94426 0.81823 0.47668 0.0
H1945 H 0.8217 0.65456 0.52936 0.0
H1946 H 0.87361 0.75188 0.44299 0.0
H1947 H 0.90372 0.71331 0.56052 0.0
H1948 H 0.84455 0.68789 0.49637 0.0
H1949 H 0.93477 0.77886 0.50623 0.0
C1950 C 0.92747 0.79515 0.47537 0.0
C1951 C 0.90951 0.78794 0.45771 0.0
C1952 C 0.8578 0.69337 0.51035 0.0
C1953 C 0.89789 0.74322 0.49116 0.0
C1954 C 0.8448 0.67417 0.52925 0.0
C1955 C 0.86051 0.68126 0.54793 0.0
C1956 C 0.88655 0.72016 0.51008 0.0
C1957 C 0.89025 0.70733 0.54668 0.0
C1958 C 0.92187 0.77275 0.49217 0.0
C1959 C 0.88772 0.75799 0.45655 0.0
N1960 N 0.90208 0.72606 0.52817 0.0
N1961 N 0.88214 0.73674 0.4732 0.0
loop_
_geom_bond_atom_site_label_1
_geom_bond_atom_site_label_2
_geom_bond_distance
_geom_bond_site_symmetry_2
_ccdc_geom_bond_type
C0 N1 1.317 . S
C0 N2 1.348 . S
C0 C3 1.485 . S
N1 C0 1.317 . S
N1 N5 1.370 . S
N2 C0 1.348 . S
N2 C4 1.346 . S
C3 C0 1.485 . S
C3 H7 0.960 . S
C3 H8 0.961 . S
C3 H9 0.960 . S
C4 N2 1.346 . S
C4 N5 1.307 . S
C4 C6 1.486 . S
N5 N1 1.370 . S
N5 C4 1.307 . S
C6 C4 1.486 . S
C6 H10 0.960 . S
C6 H11 0.960 . S
C6 H12 0.959 . S
H7 C3 0.960 . S
H8 C3 0.961 . S
H9 C3 0.960 . S
H10 C6 0.960 . S
H11 C6 0.960 . S
H12 C6 0.959 . S
C13 N14 1.317 . S
C13 N15 1.348 . S
C13 C16 1.485 . S
N14 C13 1.317 . S
N14 N18 1.370 . S
N15 C13 1.348 . S
N15 C17 1.346 . S
C16 C13 1.485 . S
C16 H20 0.960 . S
C16 H21 0.961 . S
C16 H22 0.960 . S
C17 N15 1.346 . S
C17 N18 1.307 . S
C17 C19 1.486 . S
N18 N14 1.370 . S
N18 C17 1.307 . S
C19 C17 1.486 . S
C19 H23 0.960 . S
C19 H24 0.960 . S
C19 H25 0.959 . S
H20 C16 0.960 . S
H21 C16 0.961 . S
H22 C16 0.960 . S
H23 C19 0.960 . S
H24 C19 0.960 . S
H25 C19 0.959 . S
C26 N27 1.317 . S
C26 N28 1.348 . S
C26 C29 1.485 . S
N27 C26 1.317 . S
N27 N31 1.370 . S
N28 C26 1.348 . S
N28 C30 1.346 . S
C29 C26 1.485 . S
C29 H33 0.960 . S
C29 H34 0.961 . S
C29 H35 0.960 . S
C30 N28 1.346 . S
C30 N31 1.307 . S
C30 C32 1.486 . S
N31 N27 1.370 . S
N31 C30 1.307 . S
C32 C30 1.486 . S
C32 H36 0.960 . S
C32 H37 0.960 . S
C32 H38 0.959 . S
H33 C29 0.960 . S
H34 C29 0.961 . S
H35 C29 0.960 . S
H36 C32 0.960 . S
H37 C32 0.960 . S
H38 C32 0.959 . S
C39 N40 1.317 . S
C39 N41 1.348 . S
C39 C42 1.485 . S
N40 C39 1.317 . S
N40 N44 1.370 . S
N41 C39 1.348 . S
N41 C43 1.346 . S
C42 C39 1.485 . S
C42 H46 0.960 . S
C42 H47 0.961 . S
C42 H48 0.960 . S
C43 N41 1.346 . S
C43 N44 1.307 . S
C43 C45 1.486 . S
N44 N40 1.370 . S
N44 C43 1.307 . S
C45 C43 1.486 . S
C45 H49 0.960 . S
C45 H50 0.960 . S
C45 H51 0.959 . S
H46 C42 0.960 . S
H47 C42 0.961 . S
H48 C42 0.960 . S
H49 C45 0.960 . S
H50 C45 0.960 . S
H51 C45 0.959 . S
C52 N53 1.317 . S
C52 N54 1.348 . S
C52 C55 1.485 . S
N53 C52 1.317 . S
N53 N57 1.370 . S
N54 C52 1.348 . S
N54 C56 1.346 . S
C55 C52 1.485 . S
C55 H59 0.960 . S
C55 H60 0.961 . S
C55 H61 0.960 . S
C56 N54 1.346 . S
C56 N57 1.307 . S
C56 C58 1.486 . S
N57 N53 1.370 . S
N57 C56 1.307 . S
C58 C56 1.486 . S
C58 H62 0.960 . S
C58 H63 0.960 . S
C58 H64 0.959 . S
H59 C55 0.960 . S
H60 C55 0.961 . S
H61 C55 0.960 . S
H62 C58 0.960 . S
H63 C58 0.960 . S
H64 C58 0.959 . S
C65 N66 1.317 . S
C65 N67 1.348 . S
C65 C68 1.485 . S
N66 C65 1.317 . S
N66 N70 1.370 . S
N67 C65 1.348 . S
N67 C69 1.346 . S
C68 C65 1.485 . S
C68 H72 0.960 . S
C68 H73 0.961 . S
C68 H74 0.960 . S
C69 N67 1.346 . S
C69 N70 1.307 . S
C69 C71 1.486 . S
N70 N66 1.370 . S
N70 C69 1.307 . S
C71 C69 1.486 . S
C71 H75 0.960 . S
C71 H76 0.960 . S
C71 H77 0.959 . S
H72 C68 0.960 . S
H73 C68 0.961 . S
H74 C68 0.960 . S
H75 C71 0.960 . S
H76 C71 0.960 . S
H77 C71 0.959 . S
C78 N79 1.317 . S
C78 N80 1.348 . S
C78 C81 1.485 . S
N79 C78 1.317 . S
N79 N83 1.370 . S
N80 C78 1.348 . S
N80 C82 1.346 . S
C81 C78 1.485 . S
C81 H85 0.960 . S
C81 H86 0.961 . S
C81 H87 0.960 . S
C82 N80 1.346 . S
C82 N83 1.307 . S
C82 C84 1.486 . S
N83 N79 1.370 . S
N83 C82 1.307 . S
C84 C82 1.486 . S
C84 H88 0.960 . S
C84 H89 0.960 . S
C84 H90 0.959 . S
H85 C81 0.960 . S
H86 C81 0.961 . S
H87 C81 0.960 . S
H88 C84 0.960 . S
H89 C84 0.960 . S
H90 C84 0.959 . S
C91 N92 1.317 . S
C91 N93 1.348 . S
C91 C94 1.485 . S
N92 C91 1.317 . S
N92 N96 1.370 . S
N93 C91 1.348 . S
N93 C95 1.346 . S
C94 C91 1.485 . S
C94 H98 0.960 . S
C94 H99 0.961 . S
C94 H100 0.960 . S
C95 N93 1.346 . S
C95 N96 1.307 . S
C95 C97 1.486 . S
N96 N92 1.370 . S
N96 C95 1.307 . S
C97 C95 1.486 . S
C97 H101 0.960 . S
C97 H102 0.960 . S
C97 H103 0.959 . S
H98 C94 0.960 . S
H99 C94 0.961 . S
H100 C94 0.960 . S
H101 C97 0.960 . S
H102 C97 0.960 . S
H103 C97 0.959 . S
C104 N105 1.317 . S
C104 N106 1.348 . S
C104 C107 1.485 . S
N105 C104 1.317 . S
N105 N109 1.370 . S
N106 C104 1.348 . S
N106 C108 1.346 . S
C107 C104 1.485 . S
C107 H111 0.960 . S
C107 H112 0.961 . S
C107 H113 0.960 . S
C108 N106 1.346 . S
C108 N109 1.307 . S
C108 C110 1.486 . S
N109 N105 1.370 . S
N109 C108 1.307 . S
C110 C108 1.486 . S
C110 H114 0.960 . S
C110 H115 0.960 . S
C110 H116 0.959 . S
H111 C107 0.960 . S
H112 C107 0.961 . S
H113 C107 0.960 . S
H114 C110 0.960 . S
H115 C110 0.960 . S
H116 C110 0.959 . S
C117 N118 1.317 . S
C117 N119 1.348 . S
C117 C120 1.485 . S
N118 C117 1.317 . S
N118 N122 1.370 . S
N119 C117 1.348 . S
N119 C121 1.346 . S
C120 C117 1.485 . S
C120 H124 0.960 . S
C120 H125 0.961 1_556 S
C120 H126 0.960 . S
C121 N119 1.346 . S
C121 N122 1.307 . S
C121 C123 1.486 . S
N122 N118 1.370 . S
N122 C121 1.307 . S
C123 C121 1.486 . S
C123 H127 0.960 . S
C123 H128 0.960 . S
C123 H129 0.959 . S
H124 C120 0.960 . S
H125 C120 0.961 1_554 S
H126 C120 0.960 . S
H127 C123 0.960 . S
H128 C123 0.960 . S
H129 C123 0.959 . S
C130 N131 1.317 . S
C130 N132 1.348 . S
C130 C133 1.444 1_556 S
N131 C130 1.317 . S
N131 N135 1.370 . S
N132 C130 1.348 . S
N132 C134 1.346 . S
C133 C130 1.444 1_554 S
C133 H137 0.991 . S
C133 H138 0.979 . S
C133 H139 0.956 . S
C134 N132 1.346 . S
C134 N135 1.307 . S
C134 C136 1.486 . S
N135 N131 1.370 . S
N135 C134 1.307 . S
C136 C134 1.486 . S
C136 H140 0.960 . S
C136 H141 0.960 . S
C136 H142 0.959 . S
H137 C133 0.991 . S
H138 C133 0.979 . S
H139 C133 0.956 . S
H140 C136 0.960 . S
H141 C136 0.960 . S
H142 C136 0.959 . S
C143 N144 1.317 . S
C143 N145 1.348 . S
C143 C146 1.485 1_556 S
N144 C143 1.317 . S
N144 N148 1.370 . S
N145 C143 1.348 . S
N145 C147 1.346 . S
C146 C143 1.485 1_554 S
C146 H150 0.960 . S
C146 H151 0.961 . S
C146 H152 0.960 . S
C147 N145 1.346 . S
C147 N148 1.307 . S
C147 C149 1.486 . S
N148 N144 1.370 . S
N148 C147 1.307 . S
C149 C147 1.486 . S
C149 H153 0.960 . S
C149 H154 0.960 . S
C149 H155 0.959 . S
H150 C146 0.960 . S
H151 C146 0.961 . S
H152 C146 0.960 . S
H153 C149 0.960 . S
H154 C149 0.960 . S
H155 C149 0.959 . S
C156 N157 1.317 . S
C156 N158 1.348 . S
C156 C159 1.485 . S
N157 C156 1.317 . S
N157 N161 1.370 . S
N158 C156 1.348 . S
N158 C160 1.346 . S
C159 C156 1.485 . S
C159 H163 0.960 . S
C159 H164 0.961 . S
C159 H165 0.960 . S
C160 N158 1.346 . S
C160 N161 1.307 . S
C160 C162 1.486 . S
N161 N157 1.370 . S
N161 C160 1.307 . S
C162 C160 1.486 . S
C162 H166 0.960 . S
C162 H167 0.960 . S
C162 H168 0.959 . S
H163 C159 0.960 . S
H164 C159 0.961 . S
H165 C159 0.960 . S
H166 C162 0.960 . S
H167 C162 0.960 . S
H168 C162 0.959 . S
C169 N170 1.317 . S
C169 N171 1.348 . S
C169 C172 1.485 . S
N170 C169 1.317 . S
N170 N174 1.370 . S
N171 C169 1.348 . S
N171 C173 1.346 . S
C172 C169 1.485 . S
C172 H176 0.960 . S
C172 H177 0.961 . S
C172 H178 0.960 . S
C173 N171 1.346 . S
C173 N174 1.307 . S
C173 C175 1.486 . S
N174 N170 1.370 . S
N174 C173 1.307 . S
C175 C173 1.486 . S
C175 H179 0.960 . S
C175 H180 0.960 . S
C175 H181 0.959 . S
H176 C172 0.960 . S
H177 C172 0.961 . S
H178 C172 0.960 . S
H179 C175 0.960 . S
H180 C175 0.960 . S
H181 C175 0.959 . S
C182 N183 1.317 . S
C182 N184 1.348 . S
C182 C185 1.485 . S
N183 C182 1.317 . S
N183 N187 1.370 . S
N184 C182 1.348 . S
N184 C186 1.346 . S
C185 C182 1.485 . S
C185 H189 0.960 . S
C185 H190 0.961 . S
C185 H191 0.960 . S
C186 N184 1.346 . S
C186 N187 1.307 . S
C186 C188 1.486 . S
N187 N183 1.370 . S
N187 C186 1.307 . S
C188 C186 1.486 . S
C188 H192 0.960 . S
C188 H193 0.960 . S
C188 H194 0.959 . S
H189 C185 0.960 . S
H190 C185 0.961 . S
H191 C185 0.960 . S
H192 C188 0.960 . S
H193 C188 0.960 . S
H194 C188 0.959 . S
C195 N196 1.317 . S
C195 N197 1.348 . S
C195 C198 1.485 . S
N196 C195 1.317 . S
N196 N200 1.370 . S
N197 C195 1.348 . S
N197 C199 1.346 . S
C198 C195 1.485 . S
C198 H202 0.960 . S
C198 H203 0.961 . S
C198 H204 0.960 . S
C199 N197 1.346 . S
C199 N200 1.307 . S
C199 C201 1.486 . S
N200 N196 1.370 . S
N200 C199 1.307 . S
C201 C199 1.486 . S
C201 H205 0.960 . S
C201 H206 0.960 . S
C201 H207 0.959 . S
H202 C198 0.960 . S
H203 C198 0.961 . S
H204 C198 0.960 . S
H205 C201 0.960 . S
H206 C201 0.960 . S
H207 C201 0.959 . S
C208 N209 1.317 . S
C208 N210 1.348 . S
C208 C211 1.485 . S
N209 C208 1.317 . S
N209 N213 1.370 . S
N210 C208 1.348 . S
N210 C212 1.346 . S
C211 C208 1.485 . S
C211 H215 0.960 . S
C211 H216 0.961 . S
C211 H217 0.960 . S
C212 N210 1.346 . S
C212 N213 1.307 . S
C212 C214 1.486 . S
N213 N209 1.370 . S
N213 C212 1.307 . S
C214 C212 1.486 . S
C214 H218 0.960 . S
C214 H219 0.960 . S
C214 H220 0.959 . S
H215 C211 0.960 . S
H216 C211 0.961 . S
H217 C211 0.960 . S
H218 C214 0.960 . S
H219 C214 0.960 . S
H220 C214 0.959 . S
C221 N222 1.317 . S
C221 N223 1.348 . S
C221 C224 1.485 . S
N222 C221 1.317 . S
N222 N226 1.370 . S
N223 C221 1.348 . S
N223 C225 1.346 . S
C224 C221 1.485 . S
C224 H228 0.960 . S
C224 H229 0.961 . S
C224 H230 0.960 . S
C225 N223 1.346 . S
C225 N226 1.307 . S
C225 C227 1.486 . S
N226 N222 1.370 . S
N226 C225 1.307 . S
C227 C225 1.486 . S
C227 H231 0.960 . S
C227 H232 0.960 . S
C227 H233 0.959 . S
H228 C224 0.960 . S
H229 C224 0.961 . S
H230 C224 0.960 . S
H231 C227 0.960 . S
H232 C227 0.960 . S
H233 C227 0.959 . S
Eu234 N265 2.657 . S
Eu234 N272 2.609 . S
Eu234 O278 2.558 . S
Eu234 O279 2.612 1_566 S
Eu234 O281 2.339 1_565 S
Eu234 O282 2.563 1_565 S
Eu234 O283 2.419 1_565 S
Eu234 O285 2.380 1_556 S
Eu234 O286 2.432 1_556 S
Eu234 C298 2.848 1_565 S
C235 C238 1.429 . S
C235 C239 1.411 . S
C235 N242 1.377 . S
C236 C238 1.420 . S
C236 C240 1.423 . S
C236 C248 1.392 . S
C237 C239 1.420 . S
C237 C240 1.351 . S
C237 H260 0.931 . S
C238 C235 1.429 . S
C238 C236 1.420 . S
C238 N246 1.362 . S
C239 C235 1.411 . S
C239 C237 1.420 . S
C239 C244 1.395 . S
C240 C236 1.423 . S
C240 C237 1.351 . S
C240 H252 0.930 . S
C241 C243 1.400 . S
C241 C244 1.386 . S
C241 H253 0.930 . S
N242 C235 1.377 . S
N242 C243 1.321 . S
N242 Eu245 2.609 . S
C243 C241 1.400 . S
C243 N242 1.321 . S
C243 H250 0.930 . S
C244 C239 1.395 . S
C244 C241 1.386 . S
C244 H263 0.930 . S
Eu245 N242 2.609 . S
Eu245 N246 2.657 . S
Eu245 O279 2.380 . S
Eu245 O280 2.432 . S
Eu245 O284 2.558 . S
Eu245 O285 2.612 1_545 S
Eu245 O287 2.339 1_545 S
Eu245 O288 2.563 1_545 S
Eu245 O289 2.419 1_545 S
Eu245 C309 2.848 1_545 S
N246 C238 1.362 . S
N246 Eu245 2.657 . S
N246 C247 1.334 . S
C247 N246 1.334 . S
C247 C249 1.413 . S
C247 H254 0.929 . S
C248 C236 1.392 . S
C248 C249 1.367 . S
C248 H256 0.930 . S
C249 C247 1.413 . S
C249 C248 1.367 . S
C249 H251 0.930 . S
H250 C243 0.930 . S
H251 C249 0.930 . S
H252 C240 0.930 . S
H253 C241 0.930 . S
H254 C247 0.929 . S
H255 C269 0.930 . S
H256 C248 0.930 . S
H257 C275 0.930 . S
H258 C266 0.929 1_545 S
H259 C273 0.930 . S
H260 C237 0.931 . S
H261 C267 0.930 . S
H262 C300 0.930 . S
H263 C244 0.930 . S
H264 C299 0.931 . S
N265 Eu234 2.657 . S
N265 C266 1.334 . S
N265 C270 1.362 . S
C266 H258 0.929 1_565 S
C266 N265 1.334 . S
C266 C269 1.413 . S
C267 H261 0.930 . S
C267 C268 1.392 . S
C267 C269 1.367 . S
C268 C267 1.392 . S
C268 C270 1.420 . S
C268 C300 1.423 . S
C269 H255 0.930 . S
C269 C266 1.413 . S
C269 C267 1.367 . S
C270 N265 1.362 . S
C270 C268 1.420 . S
C270 C274 1.429 . S
H271 C276 0.930 . S
N272 Eu234 2.609 . S
N272 C274 1.377 . S
N272 C275 1.321 . S
C273 H259 0.930 . S
C273 C275 1.400 . S
C273 C276 1.386 . S
C274 C270 1.429 . S
C274 N272 1.377 . S
C274 C277 1.411 . S
C275 H257 0.930 . S
C275 N272 1.321 . S
C275 C273 1.400 . S
C276 H271 0.930 . S
C276 C273 1.386 . S
C276 C277 1.395 . S
C277 C274 1.411 . S
C277 C276 1.395 . S
C277 C299 1.420 . S
O278 Eu234 2.558 . S
O278 C298 1.257 1_565 S
O279 Eu234 2.612 1_544 S
O279 Eu245 2.380 . S
O279 C290 1.276 . S
O280 Eu245 2.432 . S
O280 C297 1.264 . S
O281 Eu234 2.339 1_545 S
O281 C297 1.254 1_556 S
O282 Eu234 2.563 1_545 S
O282 C290 1.235 1_556 S
O283 Eu234 2.419 1_545 S
O283 C298 1.249 . S
O284 Eu245 2.558 . S
O284 C309 1.257 1_545 S
O285 Eu234 2.380 1_554 S
O285 Eu245 2.612 1_565 S
O285 C301 1.276 . S
O286 Eu234 2.432 1_554 S
O286 C308 1.264 . S
O287 Eu245 2.339 1_565 S
O287 C308 1.254 . S
O288 Eu245 2.563 1_565 S
O288 C301 1.235 . S
O289 Eu245 2.419 1_565 S
O289 C309 1.249 . S
C290 O279 1.276 . S
C290 O282 1.235 1_554 S
C291 C293 1.393 . S
C291 C295 1.395 . S
C291 C298 1.492 . S
C292 C293 1.392 . S
C292 C294 1.386 . S
C293 C291 1.393 . S
C293 C292 1.392 . S
C293 H310 0.930 . S
C294 C292 1.386 . S
C294 C296 1.395 . S
C294 H311 0.930 . S
C295 C291 1.395 . S
C295 C296 1.379 . S
C295 H312 0.930 1_545 S
C296 C294 1.395 . S
C296 C295 1.379 . S
C296 H313 0.930 . S
C297 O280 1.264 . S
C297 O281 1.254 1_554 S
C298 Eu234 2.848 1_545 S
C298 O278 1.257 1_545 S
C298 O283 1.249 . S
C298 C291 1.492 . S
C299 H264 0.931 . S
C299 C277 1.420 . S
C299 C300 1.351 . S
C300 H262 0.930 . S
C300 C268 1.423 . S
C300 C299 1.351 . S
C301 O285 1.276 . S
C301 O288 1.235 . S
C302 C303 1.393 . S
C302 C306 1.395 . S
C302 C309 1.492 . S
C303 C302 1.393 . S
C303 C304 1.392 . S
C303 H314 0.930 . S
C304 C303 1.392 . S
C304 C305 1.386 . S
C305 C304 1.386 . S
C305 C307 1.395 . S
C305 H315 0.930 . S
C306 C302 1.395 . S
C306 C307 1.379 . S
C306 H316 0.930 1_565 S
C307 C305 1.395 . S
C307 C306 1.379 . S
C307 H317 0.930 . S
C308 O286 1.264 . S
C308 O287 1.254 . S
C309 Eu245 2.848 1_565 S
C309 O284 1.257 1_565 S
C309 O289 1.249 . S
C309 C302 1.492 . S
H310 C293 0.930 . S
H311 C294 0.930 . S
H312 C295 0.930 1_565 S
H313 C296 0.930 . S
H314 C303 0.930 . S
H315 C305 0.930 . S
H316 C306 0.930 1_545 S
H317 C307 0.930 . S
Eu318 N349 2.657 . S
Eu318 N356 2.609 . S
Eu318 O362 2.558 . S
Eu318 O363 2.612 1_456 S
Eu318 O365 2.339 1_455 S
Eu318 O366 2.563 1_455 S
Eu318 O367 2.419 . S
Eu318 O369 2.380 1_556 S
Eu318 O370 2.432 . S
Eu318 C382 2.848 . S
C319 C322 1.429 . S
C319 C323 1.411 . S
C319 N326 1.377 . S
C320 C322 1.420 . S
C320 C324 1.423 . S
C320 C332 1.392 . S
C321 C323 1.420 . S
C321 C324 1.351 . S
C321 H344 0.931 . S
C322 C319 1.429 . S
C322 C320 1.420 . S
C322 N330 1.362 . S
C323 C319 1.411 . S
C323 C321 1.420 . S
C323 C328 1.395 . S
C324 C320 1.423 . S
C324 C321 1.351 . S
C324 H336 0.930 . S
C325 C327 1.400 . S
C325 C328 1.386 . S
C325 H337 0.930 . S
N326 C319 1.377 . S
N326 C327 1.321 . S
N326 Eu329 2.609 . S
C327 C325 1.400 . S
C327 N326 1.321 . S
C327 H334 0.930 . S
C328 C323 1.395 . S
C328 C325 1.386 . S
C328 H347 0.930 . S
Eu329 N326 2.609 . S
Eu329 N330 2.657 . S
Eu329 O363 2.380 . S
Eu329 O364 2.432 . S
Eu329 O368 2.558 . S
Eu329 O369 2.612 1_655 S
Eu329 O371 2.339 1_655 S
Eu329 O372 2.563 1_655 S
Eu329 O373 2.417 1_655 S
Eu329 C393 2.848 . S
N330 C322 1.362 . S
N330 Eu329 2.657 . S
N330 C331 1.334 . S
C331 N330 1.334 . S
C331 C333 1.413 . S
C331 H338 0.929 . S
C332 C320 1.392 . S
C332 C333 1.367 . S
C332 H340 0.930 . S
C333 C331 1.413 . S
C333 C332 1.367 . S
C333 H335 0.930 . S
H334 C327 0.930 . S
H335 C333 0.930 . S
H336 C324 0.930 . S
H337 C325 0.930 . S
H338 C331 0.929 . S
H339 C353 0.930 . S
H340 C332 0.930 . S
H341 C359 0.930 . S
H342 C350 0.929 . S
H343 C357 0.930 . S
H344 C321 0.931 . S
H345 C351 0.930 . S
H346 C384 0.930 . S
H347 C328 0.930 . S
H348 C383 0.931 . S
N349 Eu318 2.657 . S
N349 C350 1.334 . S
N349 C354 1.362 . S
C350 H342 0.929 . S
C350 N349 1.334 . S
C350 C353 1.413 . S
C351 H345 0.930 . S
C351 C352 1.392 . S
C351 C353 1.367 . S
C352 C351 1.392 . S
C352 C354 1.420 . S
C352 C384 1.423 . S
C353 H339 0.930 . S
C353 C350 1.413 . S
C353 C351 1.367 . S
C354 N349 1.362 . S
C354 C352 1.420 . S
C354 C358 1.429 . S
H355 C360 0.930 . S
N356 Eu318 2.609 . S
N356 C358 1.377 . S
N356 C359 1.321 . S
C357 H343 0.930 . S
C357 C359 1.400 . S
C357 C360 1.386 . S
C358 C354 1.429 . S
C358 N356 1.377 . S
C358 C361 1.411 . S
C359 H341 0.930 . S
C359 N356 1.321 . S
C359 C357 1.400 . S
C360 H355 0.930 . S
C360 C357 1.386 . S
C360 C361 1.395 . S
C361 C358 1.411 . S
C361 C360 1.395 . S
C361 C383 1.420 . S
O362 Eu318 2.558 . S
O362 C382 1.257 . S
O363 Eu318 2.612 1_654 S
O363 Eu329 2.380 . S
O363 C374 1.276 1_554 S
O364 Eu329 2.432 . S
O364 C381 1.264 . S
O365 Eu318 2.339 1_655 S
O365 C381 1.254 1_556 S
O366 Eu318 2.563 1_655 S
O366 C374 1.235 . S
O367 Eu318 2.419 . S
O367 C382 1.249 . S
O368 Eu329 2.558 . S
O368 C393 1.257 . S
O369 Eu318 2.380 1_554 S
O369 Eu329 2.612 1_455 S
O369 C385 1.276 . S
O370 Eu318 2.432 . S
O370 C392 1.264 1_556 S
O371 Eu329 2.339 1_455 S
O371 C392 1.254 . S
O372 Eu329 2.563 1_455 S
O372 C385 1.235 . S
O373 Eu329 2.417 1_455 S
O373 C393 1.256 1_455 S
C374 O363 1.276 1_556 S
C374 O366 1.235 . S
C375 C377 1.393 1_455 S
C375 C379 1.395 . S
C375 C382 1.492 . S
C376 C377 1.392 . S
C376 C378 1.386 1_655 S
C377 C375 1.393 1_655 S
C377 C376 1.392 . S
C377 H394 0.930 . S
C378 C376 1.386 1_455 S
C378 C380 1.395 . S
C378 H395 0.930 . S
C379 C375 1.395 . S
C379 C380 1.379 . S
C379 H396 0.930 . S
C380 C378 1.395 . S
C380 C379 1.379 . S
C380 H397 0.930 . S
C381 O364 1.264 . S
C381 O365 1.254 1_554 S
C382 Eu318 2.848 . S
C382 O362 1.257 . S
C382 O367 1.249 . S
C382 C375 1.492 . S
C383 H348 0.931 . S
C383 C361 1.420 . S
C383 C384 1.351 . S
C384 H346 0.930 . S
C384 C352 1.423 . S
C384 C383 1.351 . S
C385 O369 1.276 . S
C385 O372 1.235 . S
C386 C387 1.393 1_655 S
C386 C390 1.395 . S
C386 C393 1.492 . S
C387 C386 1.393 1_455 S
C387 C388 1.392 . S
C387 H398 0.930 . S
C388 C387 1.392 . S
C388 C389 1.386 . S
C389 C388 1.386 . S
C389 C391 1.395 1_455 S
C389 H399 0.930 . S
C390 C386 1.395 . S
C390 C391 1.379 . S
C390 H400 0.930 . S
C391 C389 1.395 1_655 S
C391 C390 1.379 . S
C391 H401 0.930 . S
C392 O370 1.264 1_554 S
C392 O371 1.254 . S
C393 Eu329 2.848 . S
C393 O368 1.257 . S
C393 O373 1.256 1_655 S
C393 C386 1.492 . S
H394 C377 0.930 . S
H395 C378 0.930 . S
H396 C379 0.930 . S
H397 C380 0.930 . S
H398 C387 0.930 . S
H399 C389 0.930 . S
H400 C390 0.930 . S
H401 C391 0.930 . S
Eu402 N433 2.657 . S
Eu402 N440 2.609 . S
Eu402 O446 2.558 . S
Eu402 O447 2.612 . S
Eu402 O449 2.339 . S
Eu402 O450 2.563 . S
Eu402 O451 2.419 . S
Eu402 O453 2.380 . S
Eu402 O454 2.432 . S
Eu402 C466 2.848 . S
C403 C406 1.429 . S
C403 C407 1.411 . S
C403 N410 1.377 . S
C404 C406 1.420 . S
C404 C408 1.423 . S
C404 C416 1.392 . S
C405 C407 1.420 . S
C405 C408 1.351 . S
C405 H428 0.931 . S
C406 C403 1.429 . S
C406 C404 1.420 . S
C406 N414 1.362 . S
C407 C403 1.411 . S
C407 C405 1.420 . S
C407 C412 1.395 . S
C408 C404 1.423 . S
C408 C405 1.351 . S
C408 H420 0.930 . S
C409 C411 1.400 . S
C409 C412 1.386 . S
C409 H421 0.930 . S
N410 C403 1.377 . S
N410 C411 1.321 . S
N410 Eu413 2.623 . S
C411 C409 1.400 . S
C411 N410 1.321 . S
C411 H418 0.930 . S
C412 C407 1.395 . S
C412 C409 1.386 . S
C412 H431 0.930 . S
Eu413 N410 2.623 . S
Eu413 N414 2.665 . S
Eu413 O447 2.327 1_556 S
Eu413 O448 2.400 1_556 S
Eu413 O452 2.607 . S
Eu413 O453 2.579 1_556 S
Eu413 O455 2.332 1_556 S
Eu413 O456 2.575 . S
Eu413 O457 2.474 . S
Eu413 C477 2.905 . S
N414 C406 1.362 . S
N414 Eu413 2.665 . S
N414 C415 1.334 1_556 S
C415 N414 1.334 1_554 S
C415 C417 1.414 . S
C415 H422 0.929 . S
C416 C404 1.392 . S
C416 C417 1.367 1_556 S
C416 H424 0.930 . S
C417 C415 1.414 . S
C417 C416 1.367 1_554 S
C417 H419 0.931 . S
H418 C411 0.930 . S
H419 C417 0.931 . S
H420 C408 0.930 . S
H421 C409 0.930 . S
H422 C415 0.929 . S
H423 C437 0.930 . S
H424 C416 0.930 . S
H425 C443 0.930 . S
H426 C434 0.929 . S
H427 C441 0.930 . S
H428 C405 0.931 . S
H429 C435 0.930 . S
H430 C468 0.930 . S
H431 C412 0.930 . S
H432 C467 0.931 . S
N433 Eu402 2.657 . S
N433 C434 1.334 . S
N433 C438 1.362 . S
C434 H426 0.929 . S
C434 N433 1.334 . S
C434 C437 1.413 . S
C435 H429 0.930 . S
C435 C436 1.392 . S
C435 C437 1.367 . S
C436 C435 1.392 . S
C436 C438 1.420 . S
C436 C468 1.423 . S
C437 H423 0.930 . S
C437 C434 1.413 . S
C437 C435 1.367 . S
C438 N433 1.362 . S
C438 C436 1.420 . S
C438 C442 1.429 . S
H439 C444 0.930 . S
N440 Eu402 2.609 . S
N440 C442 1.377 . S
N440 C443 1.321 . S
C441 H427 0.930 . S
C441 C443 1.400 . S
C441 C444 1.386 . S
C442 C438 1.429 . S
C442 N440 1.377 . S
C442 C445 1.411 . S
C443 H425 0.930 . S
C443 N440 1.321 . S
C443 C441 1.400 . S
C444 H439 0.930 . S
C444 C441 1.386 . S
C444 C445 1.395 . S
C445 C442 1.411 . S
C445 C444 1.395 . S
C445 C467 1.420 . S
O446 Eu402 2.558 . S
O446 C466 1.257 . S
O447 Eu402 2.612 . S
O447 Eu413 2.327 1_554 S
O447 C458 1.276 . S
O448 Eu413 2.400 1_554 S
O448 C465 1.264 . S
O449 Eu402 2.339 . S
O449 C465 1.254 . S
O450 Eu402 2.563 . S
O450 C458 1.235 . S
O451 Eu402 2.419 . S
O451 C466 1.249 . S
O452 Eu413 2.607 . S
O452 C477 1.257 . S
O453 Eu402 2.380 . S
O453 Eu413 2.579 1_554 S
O453 C469 1.276 . S
O454 Eu402 2.432 . S
O454 C476 1.264 . S
O455 Eu413 2.332 1_554 S
O455 C476 1.254 . S
O456 Eu413 2.575 . S
O456 C469 1.235 1_556 S
O457 Eu413 2.474 . S
O457 C477 1.249 . S
C458 O447 1.276 . S
C458 O450 1.235 . S
C459 C461 1.393 . S
C459 C463 1.395 . S
C459 C466 1.492 . S
C460 C461 1.392 . S
C460 C462 1.386 . S
C461 C459 1.393 . S
C461 C460 1.392 . S
C461 H478 0.930 . S
C462 C460 1.386 . S
C462 C464 1.395 . S
C462 H479 0.930 . S
C463 C459 1.395 . S
C463 C464 1.379 . S
C463 H480 0.930 . S
C464 C462 1.395 . S
C464 C463 1.379 . S
C464 H481 0.930 . S
C465 O448 1.264 . S
C465 O449 1.254 . S
C466 Eu402 2.848 . S
C466 O446 1.257 . S
C466 O451 1.249 . S
C466 C459 1.492 . S
C467 H432 0.931 . S
C467 C445 1.420 . S
C467 C468 1.351 . S
C468 H430 0.930 . S
C468 C436 1.423 . S
C468 C467 1.351 . S
C469 O453 1.276 . S
C469 O456 1.235 1_554 S
C470 C471 1.393 . S
C470 C474 1.395 . S
C470 C477 1.492 . S
C471 C470 1.393 . S
C471 C472 1.392 . S
C471 H482 0.930 . S
C472 C471 1.392 . S
C472 C473 1.386 . S
C473 C472 1.386 . S
C473 C475 1.395 . S
C473 H483 0.930 . S
C474 C470 1.395 . S
C474 C475 1.379 . S
C474 H484 0.930 . S
C475 C473 1.395 . S
C475 C474 1.379 . S
C475 H485 0.930 . S
C476 O454 1.264 . S
C476 O455 1.254 . S
C477 Eu413 2.905 . S
C477 O452 1.257 . S
C477 O457 1.249 . S
C477 C470 1.492 . S
H478 C461 0.930 . S
H479 C462 0.930 . S
H480 C463 0.930 . S
H481 C464 0.930 . S
H482 C471 0.930 . S
H483 C473 0.930 . S
H484 C474 0.930 . S
H485 C475 0.930 . S
Eu486 N517 2.657 . S
Eu486 N524 2.609 . S
Eu486 O530 2.558 . S
Eu486 O531 2.612 . S
Eu486 O533 2.339 . S
Eu486 O534 2.563 . S
Eu486 O535 2.419 . S
Eu486 O537 2.380 . S
Eu486 O538 2.432 . S
Eu486 C550 2.848 . S
C487 C490 1.429 . S
C487 C491 1.411 . S
C487 N494 1.377 . S
C488 C490 1.420 . S
C488 C492 1.423 . S
C488 C500 1.392 . S
C489 C491 1.420 . S
C489 C492 1.351 . S
C489 H512 0.931 . S
C490 C487 1.429 . S
C490 C488 1.420 . S
C490 N498 1.362 . S
C491 C487 1.411 . S
C491 C489 1.420 . S
C491 C496 1.395 . S
C492 C488 1.423 . S
C492 C489 1.351 . S
C492 H504 0.930 . S
C493 C495 1.400 . S
C493 C496 1.386 . S
C493 H505 0.930 . S
N494 C487 1.377 . S
N494 C495 1.321 . S
N494 Eu497 2.609 . S
C495 C493 1.400 . S
C495 N494 1.321 . S
C495 H502 0.930 . S
C496 C491 1.395 . S
C496 C493 1.386 . S
C496 H515 0.930 . S
Eu497 N494 2.609 . S
Eu497 N498 2.657 . S
Eu497 O531 2.380 . S
Eu497 O532 2.432 . S
Eu497 O536 2.558 . S
Eu497 O537 2.612 . S
Eu497 O539 2.339 . S
Eu497 O540 2.563 . S
Eu497 O541 2.419 . S
Eu497 C561 2.848 . S
N498 C490 1.362 . S
N498 Eu497 2.657 . S
N498 C499 1.334 . S
C499 N498 1.334 . S
C499 C501 1.413 . S
C499 H506 0.929 . S
C500 C488 1.392 . S
C500 C501 1.367 . S
C500 H508 0.930 . S
C501 C499 1.413 . S
C501 C500 1.367 . S
C501 H503 0.930 . S
H502 C495 0.930 . S
H503 C501 0.930 . S
H504 C492 0.930 . S
H505 C493 0.930 . S
H506 C499 0.929 . S
H507 C521 0.930 . S
H508 C500 0.930 . S
H509 C527 0.930 . S
H510 C518 0.929 . S
H511 C525 0.930 . S
H512 C489 0.931 . S
H513 C519 0.930 . S
H514 C552 0.930 . S
H515 C496 0.930 . S
H516 C551 0.931 . S
N517 Eu486 2.657 . S
N517 C518 1.334 . S
N517 C522 1.362 . S
C518 H510 0.929 . S
C518 N517 1.334 . S
C518 C521 1.413 . S
C519 H513 0.930 . S
C519 C520 1.392 . S
C519 C521 1.367 . S
C520 C519 1.392 . S
C520 C522 1.420 . S
C520 C552 1.423 . S
C521 H507 0.930 . S
C521 C518 1.413 . S
C521 C519 1.367 . S
C522 N517 1.362 . S
C522 C520 1.420 . S
C522 C526 1.429 . S
H523 C528 0.930 . S
N524 Eu486 2.609 . S
N524 C526 1.377 . S
N524 C527 1.321 . S
C525 H511 0.930 . S
C525 C527 1.400 . S
C525 C528 1.386 . S
C526 C522 1.429 . S
C526 N524 1.377 . S
C526 C529 1.411 . S
C527 H509 0.930 . S
C527 N524 1.321 . S
C527 C525 1.400 . S
C528 H523 0.930 . S
C528 C525 1.386 . S
C528 C529 1.395 . S
C529 C526 1.411 . S
C529 C528 1.395 . S
C529 C551 1.420 . S
O530 Eu486 2.558 . S
O530 C550 1.257 . S
O531 Eu486 2.612 . S
O531 Eu497 2.380 . S
O531 C542 1.276 . S
O532 Eu497 2.432 . S
O532 C549 1.264 . S
O533 Eu486 2.339 . S
O533 C549 1.254 . S
O534 Eu486 2.563 . S
O534 C542 1.235 . S
O535 Eu486 2.419 . S
O535 C550 1.249 . S
O536 Eu497 2.558 . S
O536 C561 1.257 . S
O537 Eu486 2.380 . S
O537 Eu497 2.612 . S
O537 C553 1.276 . S
O538 Eu486 2.432 . S
O538 C560 1.264 . S
O539 Eu497 2.339 . S
O539 C560 1.254 . S
O540 Eu497 2.563 . S
O540 C553 1.235 . S
O541 Eu497 2.419 . S
O541 C561 1.249 . S
C542 O531 1.276 . S
C542 O534 1.235 . S
C543 C545 1.393 . S
C543 C547 1.395 . S
C543 C550 1.492 . S
C544 C545 1.392 . S
C544 C546 1.386 . S
C545 C543 1.393 . S
C545 C544 1.392 . S
C545 H562 0.930 . S
C546 C544 1.386 . S
C546 C548 1.395 . S
C546 H563 0.930 . S
C547 C543 1.395 . S
C547 C548 1.379 . S
C547 H564 0.930 . S
C548 C546 1.395 . S
C548 C547 1.379 . S
C548 H565 0.930 . S
C549 O532 1.264 . S
C549 O533 1.254 . S
C550 Eu486 2.848 . S
C550 O530 1.257 . S
C550 O535 1.249 . S
C550 C543 1.492 . S
C551 H516 0.931 . S
C551 C529 1.420 . S
C551 C552 1.351 . S
C552 H514 0.930 . S
C552 C520 1.423 . S
C552 C551 1.351 . S
C553 O537 1.276 . S
C553 O540 1.235 . S
C554 C555 1.393 . S
C554 C558 1.395 . S
C554 C561 1.492 . S
C555 C554 1.393 . S
C555 C556 1.392 . S
C555 H566 0.930 . S
C556 C555 1.392 . S
C556 C557 1.386 . S
C557 C556 1.386 . S
C557 C559 1.395 . S
C557 H567 0.930 . S
C558 C554 1.395 . S
C558 C559 1.379 . S
C558 H568 0.930 . S
C559 C557 1.395 . S
C559 C558 1.379 . S
C559 H569 0.930 . S
C560 O538 1.264 . S
C560 O539 1.254 . S
C561 Eu497 2.848 . S
C561 O536 1.257 . S
C561 O541 1.249 . S
C561 C554 1.492 . S
H562 C545 0.930 . S
H563 C546 0.930 . S
H564 C547 0.930 . S
H565 C548 0.930 . S
H566 C555 0.930 . S
H567 C557 0.930 . S
H568 C558 0.930 . S
H569 C559 0.930 . S
Eu570 N601 2.657 . S
Eu570 N608 2.609 . S
Eu570 O614 2.558 . S
Eu570 O615 2.612 . S
Eu570 O617 2.339 . S
Eu570 O618 2.563 . S
Eu570 O619 2.419 . S
Eu570 O621 2.380 . S
Eu570 O622 2.432 . S
Eu570 C634 2.848 . S
C571 C574 1.429 . S
C571 C575 1.411 . S
C571 N578 1.377 . S
C572 C574 1.420 . S
C572 C576 1.423 . S
C572 C584 1.392 . S
C573 C575 1.420 . S
C573 C576 1.351 . S
C573 H596 0.931 . S
C574 C571 1.429 . S
C574 C572 1.420 . S
C574 N582 1.362 . S
C575 C571 1.411 . S
C575 C573 1.420 . S
C575 C580 1.395 . S
C576 C572 1.423 . S
C576 C573 1.351 . S
C576 H588 0.930 . S
C577 C579 1.400 . S
C577 C580 1.386 . S
C577 H589 0.930 . S
N578 C571 1.377 . S
N578 C579 1.321 . S
N578 Eu581 2.609 . S
C579 C577 1.400 . S
C579 N578 1.321 . S
C579 H586 0.930 . S
C580 C575 1.395 . S
C580 C577 1.386 . S
C580 H599 0.930 . S
Eu581 N578 2.609 . S
Eu581 N582 2.657 . S
Eu581 O615 2.380 . S
Eu581 O616 2.432 . S
Eu581 O620 2.558 . S
Eu581 O621 2.612 . S
Eu581 O623 2.339 . S
Eu581 O624 2.563 . S
Eu581 O625 2.419 . S
Eu581 C645 2.848 . S
N582 C574 1.362 . S
N582 Eu581 2.657 . S
N582 C583 1.334 . S
C583 N582 1.334 . S
C583 C585 1.413 . S
C583 H590 0.929 . S
C584 C572 1.392 . S
C584 C585 1.367 . S
C584 H592 0.930 . S
C585 C583 1.413 . S
C585 C584 1.367 . S
C585 H587 0.930 . S
H586 C579 0.930 . S
H587 C585 0.930 . S
H588 C576 0.930 . S
H589 C577 0.930 . S
H590 C583 0.929 . S
H591 C605 0.930 . S
H592 C584 0.930 . S
H593 C611 0.930 . S
H594 C602 0.929 . S
H595 C609 0.930 . S
H596 C573 0.931 . S
H597 C603 0.930 . S
H598 C636 0.930 . S
H599 C580 0.930 . S
H600 C635 0.931 . S
N601 Eu570 2.657 . S
N601 C602 1.334 . S
N601 C606 1.362 . S
C602 H594 0.929 . S
C602 N601 1.334 . S
C602 C605 1.413 . S
C603 H597 0.930 . S
C603 C604 1.392 . S
C603 C605 1.367 . S
C604 C603 1.392 . S
C604 C606 1.420 . S
C604 C636 1.423 . S
C605 H591 0.930 . S
C605 C602 1.413 . S
C605 C603 1.367 . S
C606 N601 1.362 . S
C606 C604 1.420 . S
C606 C610 1.429 . S
H607 C612 0.930 . S
N608 Eu570 2.609 . S
N608 C610 1.377 . S
N608 C611 1.321 . S
C609 H595 0.930 . S
C609 C611 1.400 . S
C609 C612 1.386 . S
C610 C606 1.429 . S
C610 N608 1.377 . S
C610 C613 1.411 . S
C611 H593 0.930 . S
C611 N608 1.321 . S
C611 C609 1.400 . S
C612 H607 0.930 . S
C612 C609 1.386 . S
C612 C613 1.395 . S
C613 C610 1.411 . S
C613 C612 1.395 . S
C613 C635 1.420 . S
O614 Eu570 2.558 . S
O614 C634 1.257 . S
O615 Eu570 2.612 . S
O615 Eu581 2.380 . S
O615 C626 1.276 . S
O616 Eu581 2.432 . S
O616 C633 1.264 . S
O617 Eu570 2.339 . S
O617 C633 1.254 . S
O618 Eu570 2.563 . S
O618 C626 1.235 . S
O619 Eu570 2.419 . S
O619 C634 1.249 . S
O620 Eu581 2.558 . S
O620 C645 1.257 . S
O621 Eu570 2.380 . S
O621 Eu581 2.612 . S
O621 C637 1.276 . S
O622 Eu570 2.432 . S
O622 C644 1.264 . S
O623 Eu581 2.339 . S
O623 C644 1.254 . S
O624 Eu581 2.563 . S
O624 C637 1.235 . S
O625 Eu581 2.419 . S
O625 C645 1.249 . S
C626 O615 1.276 . S
C626 O618 1.235 . S
C627 C629 1.393 . S
C627 C631 1.395 . S
C627 C634 1.492 . S
C628 C629 1.392 . S
C628 C630 1.386 . S
C629 C627 1.393 . S
C629 C628 1.392 . S
C629 H646 0.930 . S
C630 C628 1.386 . S
C630 C632 1.395 . S
C630 H647 0.930 . S
C631 C627 1.395 . S
C631 C632 1.379 . S
C631 H648 0.930 . S
C632 C630 1.395 . S
C632 C631 1.379 . S
C632 H649 0.930 . S
C633 O616 1.264 . S
C633 O617 1.254 . S
C634 Eu570 2.848 . S
C634 O614 1.257 . S
C634 O619 1.249 . S
C634 C627 1.492 . S
C635 H600 0.931 . S
C635 C613 1.420 . S
C635 C636 1.351 . S
C636 H598 0.930 . S
C636 C604 1.423 . S
C636 C635 1.351 . S
C637 O621 1.276 . S
C637 O624 1.235 . S
C638 C639 1.393 . S
C638 C642 1.395 . S
C638 C645 1.492 . S
C639 C638 1.393 . S
C639 C640 1.392 . S
C639 H650 0.930 . S
C640 C639 1.392 . S
C640 C641 1.386 . S
C641 C640 1.386 . S
C641 C643 1.395 . S
C641 H651 0.930 . S
C642 C638 1.395 . S
C642 C643 1.379 . S
C642 H652 0.930 . S
C643 C641 1.395 . S
C643 C642 1.379 . S
C643 H653 0.930 . S
C644 O622 1.264 . S
C644 O623 1.254 . S
C645 Eu581 2.848 . S
C645 O620 1.257 . S
C645 O625 1.249 . S
C645 C638 1.492 . S
H646 C629 0.930 . S
H647 C630 0.930 . S
H648 C631 0.930 . S
H649 C632 0.930 . S
H650 C639 0.930 . S
H651 C641 0.930 . S
H652 C642 0.930 . S
H653 C643 0.930 . S
Eu654 N685 2.657 . S
Eu654 N692 2.609 . S
Eu654 O698 2.558 . S
Eu654 O699 2.612 . S
Eu654 O701 2.339 . S
Eu654 O702 2.563 . S
Eu654 O703 2.419 . S
Eu654 O705 2.380 . S
Eu654 O706 2.432 . S
Eu654 C718 2.848 . S
C655 C658 1.429 . S
C655 C659 1.411 . S
C655 N662 1.377 . S
C656 C658 1.420 . S
C656 C660 1.423 . S
C656 C668 1.392 . S
C657 C659 1.420 . S
C657 C660 1.351 . S
C657 H680 0.931 . S
C658 C655 1.429 . S
C658 C656 1.420 . S
C658 N666 1.362 . S
C659 C655 1.411 . S
C659 C657 1.420 . S
C659 C664 1.395 . S
C660 C656 1.423 . S
C660 C657 1.351 . S
C660 H672 0.930 . S
C661 C663 1.400 . S
C661 C664 1.386 . S
C661 H673 0.930 . S
N662 C655 1.377 . S
N662 C663 1.321 . S
N662 Eu665 2.609 . S
C663 C661 1.400 . S
C663 N662 1.321 . S
C663 H670 0.930 . S
C664 C659 1.395 . S
C664 C661 1.386 . S
C664 H683 0.930 . S
Eu665 N662 2.609 . S
Eu665 N666 2.657 . S
Eu665 O699 2.380 . S
Eu665 O700 2.432 . S
Eu665 O704 2.558 . S
Eu665 O705 2.612 . S
Eu665 O707 2.339 . S
Eu665 O708 2.563 . S
Eu665 O709 2.419 . S
Eu665 C729 2.848 . S
N666 C658 1.362 . S
N666 Eu665 2.657 . S
N666 C667 1.334 . S
C667 N666 1.334 . S
C667 C669 1.413 . S
C667 H674 0.929 . S
C668 C656 1.392 . S
C668 C669 1.367 . S
C668 H676 0.930 . S
C669 C667 1.413 . S
C669 C668 1.367 . S
C669 H671 0.930 . S
H670 C663 0.930 . S
H671 C669 0.930 . S
H672 C660 0.930 . S
H673 C661 0.930 . S
H674 C667 0.929 . S
H675 C689 0.930 . S
H676 C668 0.930 . S
H677 C695 0.930 . S
H678 C686 0.929 . S
H679 C693 0.930 . S
H680 C657 0.931 . S
H681 C687 0.930 . S
H682 C720 0.930 . S
H683 C664 0.930 . S
H684 C719 0.931 . S
N685 Eu654 2.657 . S
N685 C686 1.334 . S
N685 C690 1.362 . S
C686 H678 0.929 . S
C686 N685 1.334 . S
C686 C689 1.413 . S
C687 H681 0.930 . S
C687 C688 1.392 . S
C687 C689 1.367 . S
C688 C687 1.392 . S
C688 C690 1.420 . S
C688 C720 1.423 . S
C689 H675 0.930 . S
C689 C686 1.413 . S
C689 C687 1.367 . S
C690 N685 1.362 . S
C690 C688 1.420 . S
C690 C694 1.429 . S
H691 C696 0.930 . S
N692 Eu654 2.609 . S
N692 C694 1.377 . S
N692 C695 1.321 . S
C693 H679 0.930 . S
C693 C695 1.400 . S
C693 C696 1.386 . S
C694 C690 1.429 . S
C694 N692 1.377 . S
C694 C697 1.411 . S
C695 H677 0.930 . S
C695 N692 1.321 . S
C695 C693 1.400 . S
C696 H691 0.930 . S
C696 C693 1.386 . S
C696 C697 1.395 . S
C697 C694 1.411 . S
C697 C696 1.395 . S
C697 C719 1.420 . S
O698 Eu654 2.558 . S
O698 C718 1.257 . S
O699 Eu654 2.612 . S
O699 Eu665 2.380 . S
O699 C710 1.276 . S
O700 Eu665 2.432 . S
O700 C717 1.264 . S
O701 Eu654 2.339 . S
O701 C717 1.254 . S
O702 Eu654 2.563 . S
O702 C710 1.235 . S
O703 Eu654 2.419 . S
O703 C718 1.249 . S
O704 Eu665 2.558 . S
O704 C729 1.257 . S
O705 Eu654 2.380 . S
O705 Eu665 2.612 . S
O705 C721 1.276 . S
O706 Eu654 2.432 . S
O706 C728 1.264 . S
O707 Eu665 2.339 . S
O707 C728 1.254 . S
O708 Eu665 2.563 . S
O708 C721 1.235 . S
O709 Eu665 2.419 . S
O709 C729 1.249 . S
C710 O699 1.276 . S
C710 O702 1.235 . S
C711 C713 1.393 . S
C711 C715 1.395 . S
C711 C718 1.492 . S
C712 C713 1.392 . S
C712 C714 1.386 . S
C713 C711 1.393 . S
C713 C712 1.392 . S
C713 H730 0.930 . S
C714 C712 1.386 . S
C714 C716 1.395 . S
C714 H731 0.930 . S
C715 C711 1.395 . S
C715 C716 1.379 . S
C715 H732 0.930 . S
C716 C714 1.395 . S
C716 C715 1.379 . S
C716 H733 0.930 . S
C717 O700 1.264 . S
C717 O701 1.254 . S
C718 Eu654 2.848 . S
C718 O698 1.257 . S
C718 O703 1.249 . S
C718 C711 1.492 . S
C719 H684 0.931 . S
C719 C697 1.420 . S
C719 C720 1.351 . S
C720 H682 0.930 . S
C720 C688 1.423 . S
C720 C719 1.351 . S
C721 O705 1.276 . S
C721 O708 1.235 . S
C722 C723 1.393 . S
C722 C726 1.395 . S
C722 C729 1.492 . S
C723 C722 1.393 . S
C723 C724 1.392 . S
C723 H734 0.930 . S
C724 C723 1.392 . S
C724 C725 1.386 . S
C725 C724 1.386 . S
C725 C727 1.395 . S
C725 H735 0.930 . S
C726 C722 1.395 . S
C726 C727 1.379 . S
C726 H736 0.930 . S
C727 C725 1.395 . S
C727 C726 1.379 . S
C727 H737 0.930 . S
C728 O706 1.264 . S
C728 O707 1.254 . S
C729 Eu665 2.848 . S
C729 O704 1.257 . S
C729 O709 1.249 . S
C729 C722 1.492 . S
H730 C713 0.930 . S
H731 C714 0.930 . S
H732 C715 0.930 . S
H733 C716 0.930 . S
H734 C723 0.930 . S
H735 C725 0.930 . S
H736 C726 0.930 . S
H737 C727 0.930 . S
Eu738 N769 2.657 . S
Eu738 N776 2.609 . S
Eu738 O782 2.558 . S
Eu738 O783 2.612 . S
Eu738 O785 2.339 . S
Eu738 O786 2.563 . S
Eu738 O787 2.419 . S
Eu738 O789 2.380 . S
Eu738 O790 2.432 . S
Eu738 C802 2.848 . S
C739 C742 1.429 . S
C739 C743 1.411 . S
C739 N746 1.377 . S
C740 C742 1.420 . S
C740 C744 1.423 . S
C740 C752 1.392 . S
C741 C743 1.420 . S
C741 C744 1.351 . S
C741 H764 0.931 . S
C742 C739 1.429 . S
C742 C740 1.420 . S
C742 N750 1.362 . S
C743 C739 1.411 . S
C743 C741 1.420 . S
C743 C748 1.395 . S
C744 C740 1.423 . S
C744 C741 1.351 . S
C744 H756 0.918 1_655 S
C745 C747 1.400 . S
C745 C748 1.386 . S
C745 H757 0.930 . S
N746 C739 1.377 . S
N746 C747 1.321 . S
N746 Eu749 2.609 . S
C747 C745 1.400 . S
C747 N746 1.321 . S
C747 H754 0.930 . S
C748 C743 1.395 . S
C748 C745 1.386 . S
C748 H767 0.930 . S
Eu749 N746 2.609 . S
Eu749 N750 2.657 . S
Eu749 O783 2.380 . S
Eu749 O784 2.432 . S
Eu749 O788 2.558 . S
Eu749 O789 2.612 . S
Eu749 O791 2.339 . S
Eu749 O792 2.563 . S
Eu749 O793 2.419 . S
Eu749 C813 2.848 . S
N750 C742 1.362 . S
N750 Eu749 2.657 . S
N750 C751 1.334 . S
C751 N750 1.334 . S
C751 C753 1.413 . S
C751 H758 0.929 . S
C752 C740 1.392 . S
C752 C753 1.367 . S
C752 H760 0.930 1_655 S
C753 C751 1.413 . S
C753 C752 1.367 . S
C753 H755 0.930 . S
H754 C747 0.930 . S
H755 C753 0.930 . S
H756 C744 0.918 1_455 S
H757 C745 0.930 . S
H758 C751 0.929 . S
H759 C773 0.930 . S
H760 C752 0.930 1_455 S
H761 C779 0.930 . S
H762 C770 0.929 . S
H763 C777 0.930 . S
H764 C741 0.931 . S
H765 C771 0.930 . S
H766 C804 0.930 . S
H767 C748 0.930 . S
H768 C803 0.931 . S
N769 Eu738 2.657 . S
N769 C770 1.334 . S
N769 C774 1.362 . S
C770 H762 0.929 . S
C770 N769 1.334 . S
C770 C773 1.413 . S
C771 H765 0.930 . S
C771 C772 1.392 . S
C771 C773 1.367 . S
C772 C771 1.392 . S
C772 C774 1.420 . S
C772 C804 1.423 . S
C773 H759 0.930 . S
C773 C770 1.413 . S
C773 C771 1.367 . S
C774 N769 1.362 . S
C774 C772 1.420 . S
C774 C778 1.429 . S
H775 C780 0.930 . S
N776 Eu738 2.609 . S
N776 C778 1.377 . S
N776 C779 1.321 . S
C777 H763 0.930 . S
C777 C779 1.400 . S
C777 C780 1.386 . S
C778 C774 1.429 . S
C778 N776 1.377 . S
C778 C781 1.411 . S
C779 H761 0.930 . S
C779 N776 1.321 . S
C779 C777 1.400 . S
C780 H775 0.930 . S
C780 C777 1.386 . S
C780 C781 1.395 . S
C781 C778 1.411 . S
C781 C780 1.395 . S
C781 C803 1.420 . S
O782 Eu738 2.558 . S
O782 C802 1.257 . S
O783 Eu738 2.612 . S
O783 Eu749 2.380 . S
O783 C794 1.276 . S
O784 Eu749 2.432 . S
O784 C801 1.264 . S
O785 Eu738 2.339 . S
O785 C801 1.254 . S
O786 Eu738 2.563 . S
O786 C794 1.235 . S
O787 Eu738 2.419 . S
O787 C802 1.249 . S
O788 Eu749 2.558 . S
O788 C813 1.257 . S
O789 Eu738 2.380 . S
O789 Eu749 2.612 . S
O789 C805 1.276 . S
O790 Eu738 2.432 . S
O790 C812 1.264 . S
O791 Eu749 2.339 . S
O791 C812 1.254 . S
O792 Eu749 2.563 . S
O792 C805 1.235 . S
O793 Eu749 2.419 . S
O793 C813 1.249 . S
C794 O783 1.276 . S
C794 O786 1.235 . S
C795 C797 1.393 . S
C795 C799 1.395 . S
C795 C802 1.492 . S
C796 C797 1.392 . S
C796 C798 1.386 . S
C797 C795 1.393 . S
C797 C796 1.392 . S
C797 H814 0.930 . S
C798 C796 1.386 . S
C798 C800 1.395 . S
C798 H815 0.930 . S
C799 C795 1.395 . S
C799 C800 1.379 . S
C799 H816 0.930 . S
C800 C798 1.395 . S
C800 C799 1.379 . S
C800 H817 0.930 . S
C801 O784 1.264 . S
C801 O785 1.254 . S
C802 Eu738 2.848 . S
C802 O782 1.257 . S
C802 O787 1.249 . S
C802 C795 1.492 . S
C803 H768 0.931 . S
C803 C781 1.420 . S
C803 C804 1.351 . S
C804 H766 0.930 . S
C804 C772 1.423 . S
C804 C803 1.351 . S
C805 O789 1.276 . S
C805 O792 1.235 . S
C806 C807 1.393 . S
C806 C810 1.395 . S
C806 C813 1.492 . S
C807 C806 1.393 . S
C807 C808 1.392 . S
C807 H818 0.930 . S
C808 C807 1.392 . S
C808 C809 1.386 . S
C809 C808 1.386 . S
C809 C811 1.395 . S
C809 H819 0.930 . S
C810 C806 1.395 . S
C810 C811 1.379 . S
C810 H820 0.930 . S
C811 C809 1.395 . S
C811 C810 1.379 . S
C811 H821 0.930 . S
C812 O790 1.264 . S
C812 O791 1.254 . S
C813 Eu749 2.848 . S
C813 O788 1.257 . S
C813 O793 1.249 . S
C813 C806 1.492 . S
H814 C797 0.930 . S
H815 C798 0.930 . S
H816 C799 0.930 . S
H817 C800 0.930 . S
H818 C807 0.930 . S
H819 C809 0.930 . S
H820 C810 0.930 . S
H821 C811 0.930 . S
Eu822 N853 2.657 . S
Eu822 N860 2.609 . S
Eu822 O866 2.558 . S
Eu822 O867 2.612 . S
Eu822 O869 2.339 . S
Eu822 O870 2.563 . S
Eu822 O871 2.419 . S
Eu822 O873 2.380 . S
Eu822 O874 2.432 . S
Eu822 C886 2.848 . S
C823 C826 1.429 . S
C823 C827 1.411 . S
C823 N830 1.377 . S
C824 C826 1.420 . S
C824 C828 1.423 . S
C824 C836 1.392 . S
C825 C827 1.420 . S
C825 C828 1.351 . S
C825 H848 0.931 . S
C826 C823 1.429 . S
C826 C824 1.420 . S
C826 N834 1.362 . S
C827 C823 1.411 . S
C827 C825 1.420 . S
C827 C832 1.395 . S
C828 C824 1.423 . S
C828 C825 1.351 . S
C828 H840 0.930 . S
C829 C831 1.400 . S
C829 C832 1.386 . S
C829 H841 0.930 . S
N830 C823 1.377 . S
N830 C831 1.321 . S
N830 Eu833 2.609 . S
C831 C829 1.400 . S
C831 N830 1.321 . S
C831 H838 0.930 . S
C832 C827 1.395 . S
C832 C829 1.386 . S
C832 H851 0.930 . S
Eu833 N830 2.609 . S
Eu833 N834 2.657 . S
Eu833 O867 2.380 . S
Eu833 O868 2.432 . S
Eu833 O872 2.558 . S
Eu833 O873 2.612 . S
Eu833 O875 2.339 . S
Eu833 O876 2.563 . S
Eu833 O877 2.419 . S
Eu833 C897 2.848 . S
N834 C826 1.362 . S
N834 Eu833 2.657 . S
N834 C835 1.334 . S
C835 N834 1.334 . S
C835 C837 1.413 . S
C835 H842 0.929 . S
C836 C824 1.392 . S
C836 C837 1.367 . S
C836 H844 0.930 . S
C837 C835 1.413 . S
C837 C836 1.367 . S
C837 H839 0.930 . S
H838 C831 0.930 . S
H839 C837 0.930 . S
H840 C828 0.930 . S
H841 C829 0.930 . S
H842 C835 0.929 . S
H843 C857 0.930 . S
H844 C836 0.930 . S
H845 C863 0.930 . S
H846 C854 0.929 . S
H847 C861 0.930 . S
H848 C825 0.931 . S
H849 C855 0.930 . S
H850 C888 0.930 . S
H851 C832 0.930 . S
H852 C887 0.931 . S
N853 Eu822 2.657 . S
N853 C854 1.334 . S
N853 C858 1.362 . S
C854 H846 0.929 . S
C854 N853 1.334 . S
C854 C857 1.413 . S
C855 H849 0.930 . S
C855 C856 1.392 . S
C855 C857 1.367 . S
C856 C855 1.392 . S
C856 C858 1.420 . S
C856 C888 1.423 . S
C857 H843 0.930 . S
C857 C854 1.413 . S
C857 C855 1.367 . S
C858 N853 1.362 . S
C858 C856 1.420 . S
C858 C862 1.429 . S
H859 C864 0.930 . S
N860 Eu822 2.609 . S
N860 C862 1.377 . S
N860 C863 1.321 . S
C861 H847 0.930 . S
C861 C863 1.400 . S
C861 C864 1.386 . S
C862 C858 1.429 . S
C862 N860 1.377 . S
C862 C865 1.411 . S
C863 H845 0.930 . S
C863 N860 1.321 . S
C863 C861 1.400 . S
C864 H859 0.930 . S
C864 C861 1.386 . S
C864 C865 1.395 . S
C865 C862 1.411 . S
C865 C864 1.395 . S
C865 C887 1.420 . S
O866 Eu822 2.558 . S
O866 C886 1.257 . S
O867 Eu822 2.612 . S
O867 Eu833 2.380 . S
O867 C878 1.276 . S
O868 Eu833 2.432 . S
O868 C885 1.264 . S
O869 Eu822 2.339 . S
O869 C885 1.254 . S
O870 Eu822 2.563 . S
O870 C878 1.235 . S
O871 Eu822 2.419 . S
O871 C886 1.249 . S
O872 Eu833 2.558 . S
O872 C897 1.257 . S
O873 Eu822 2.380 . S
O873 Eu833 2.612 . S
O873 C889 1.276 . S
O874 Eu822 2.432 . S
O874 C896 1.264 . S
O875 Eu833 2.339 . S
O875 C896 1.254 . S
O876 Eu833 2.563 . S
O876 C889 1.235 . S
O877 Eu833 2.419 . S
O877 C897 1.249 . S
C878 O867 1.276 . S
C878 O870 1.235 . S
C879 C881 1.393 . S
C879 C883 1.395 . S
C879 C886 1.492 . S
C880 C881 1.392 . S
C880 C882 1.386 . S
C881 C879 1.393 . S
C881 C880 1.392 . S
C881 H898 0.930 . S
C882 C880 1.386 . S
C882 C884 1.395 . S
C882 H899 0.930 . S
C883 C879 1.395 . S
C883 C884 1.379 . S
C883 H900 0.930 . S
C884 C882 1.395 . S
C884 C883 1.379 . S
C884 H901 0.930 . S
C885 O868 1.264 . S
C885 O869 1.254 . S
C886 Eu822 2.848 . S
C886 O866 1.257 . S
C886 O871 1.249 . S
C886 C879 1.492 . S
C887 H852 0.931 . S
C887 C865 1.420 . S
C887 C888 1.351 . S
C888 H850 0.930 . S
C888 C856 1.423 . S
C888 C887 1.351 . S
C889 O873 1.276 . S
C889 O876 1.235 . S
C890 C891 1.393 . S
C890 C894 1.395 . S
C890 C897 1.492 . S
C891 C890 1.393 . S
C891 C892 1.392 . S
C891 H902 0.930 . S
C892 C891 1.392 . S
C892 C893 1.386 . S
C893 C892 1.386 . S
C893 C895 1.395 . S
C893 H903 0.930 . S
C894 C890 1.395 . S
C894 C895 1.379 . S
C894 H904 0.930 . S
C895 C893 1.395 . S
C895 C894 1.379 . S
C895 H905 0.930 . S
C896 O874 1.264 . S
C896 O875 1.254 . S
C897 Eu833 2.848 . S
C897 O872 1.257 . S
C897 O877 1.249 . S
C897 C890 1.492 . S
H898 C881 0.930 . S
H899 C882 0.930 . S
H900 C883 0.930 . S
H901 C884 0.930 . S
H902 C891 0.930 . S
H903 C893 0.930 . S
H904 C894 0.930 . S
H905 C895 0.930 . S
Eu906 N937 2.657 . S
Eu906 N944 2.609 . S
Eu906 O950 2.558 . S
Eu906 O951 2.612 . S
Eu906 O953 2.339 . S
Eu906 O954 2.563 . S
Eu906 O955 2.419 . S
Eu906 O957 2.380 . S
Eu906 O958 2.432 . S
Eu906 C970 2.848 . S
C907 C910 1.429 . S
C907 C911 1.411 . S
C907 N914 1.377 . S
C908 C910 1.420 . S
C908 C912 1.423 . S
C908 C920 1.392 . S
C909 C911 1.420 . S
C909 C912 1.351 . S
C909 H932 0.931 . S
C910 C907 1.429 . S
C910 C908 1.420 . S
C910 N918 1.362 . S
C911 C907 1.411 . S
C911 C909 1.420 . S
C911 C916 1.395 . S
C912 C908 1.423 . S
C912 C909 1.351 . S
C912 H924 0.930 . S
C913 C915 1.400 . S
C913 C916 1.386 . S
C913 H925 0.930 . S
N914 C907 1.377 . S
N914 C915 1.321 . S
N914 Eu917 2.609 . S
C915 C913 1.400 . S
C915 N914 1.321 . S
C915 H922 0.930 . S
C916 C911 1.395 . S
C916 C913 1.386 . S
C916 H935 0.930 . S
Eu917 N914 2.609 . S
Eu917 N918 2.657 . S
Eu917 O951 2.380 . S
Eu917 O952 2.432 . S
Eu917 O956 2.558 . S
Eu917 O957 2.612 . S
Eu917 O959 2.339 . S
Eu917 O960 2.563 . S
Eu917 O961 2.419 . S
Eu917 C981 2.848 . S
N918 C910 1.362 . S
N918 Eu917 2.657 . S
N918 C919 1.334 . S
C919 N918 1.334 . S
C919 C921 1.413 . S
C919 H926 0.929 . S
C920 C908 1.392 . S
C920 C921 1.367 . S
C920 H928 0.930 . S
C921 C919 1.413 . S
C921 C920 1.367 . S
C921 H923 0.930 . S
H922 C915 0.930 . S
H923 C921 0.930 . S
H924 C912 0.930 . S
H925 C913 0.930 . S
H926 C919 0.929 . S
H927 C941 0.930 . S
H928 C920 0.930 . S
H929 C947 0.930 . S
H930 C938 0.929 . S
H931 C945 0.930 . S
H932 C909 0.931 . S
H933 C939 0.930 . S
H934 C972 0.930 . S
H935 C916 0.930 . S
H936 C971 0.931 . S
N937 Eu906 2.657 . S
N937 C938 1.334 . S
N937 C942 1.362 . S
C938 H930 0.929 . S
C938 N937 1.334 . S
C938 C941 1.413 . S
C939 H933 0.930 . S
C939 C940 1.392 . S
C939 C941 1.367 . S
C940 C939 1.392 . S
C940 C942 1.420 . S
C940 C972 1.423 . S
C941 H927 0.930 . S
C941 C938 1.413 . S
C941 C939 1.367 . S
C942 N937 1.362 . S
C942 C940 1.420 . S
C942 C946 1.429 . S
H943 C948 0.930 . S
N944 Eu906 2.609 . S
N944 C946 1.377 . S
N944 C947 1.321 . S
C945 H931 0.930 . S
C945 C947 1.400 . S
C945 C948 1.386 . S
C946 C942 1.429 . S
C946 N944 1.377 . S
C946 C949 1.411 . S
C947 H929 0.930 . S
C947 N944 1.321 . S
C947 C945 1.400 . S
C948 H943 0.930 . S
C948 C945 1.386 . S
C948 C949 1.395 . S
C949 C946 1.411 . S
C949 C948 1.395 . S
C949 C971 1.420 . S
O950 Eu906 2.558 . S
O950 C970 1.257 . S
O951 Eu906 2.612 . S
O951 Eu917 2.380 . S
O951 C962 1.276 . S
O952 Eu917 2.432 . S
O952 C969 1.264 . S
O953 Eu906 2.339 . S
O953 C969 1.254 . S
O954 Eu906 2.563 . S
O954 C962 1.235 . S
O955 Eu906 2.419 . S
O955 C970 1.249 . S
O956 Eu917 2.558 . S
O956 C981 1.257 . S
O957 Eu906 2.380 . S
O957 Eu917 2.612 . S
O957 C973 1.276 . S
O958 Eu906 2.432 . S
O958 C980 1.264 . S
O959 Eu917 2.339 . S
O959 C980 1.254 . S
O960 Eu917 2.563 . S
O960 C973 1.235 . S
O961 Eu917 2.419 . S
O961 C981 1.249 . S
C962 O951 1.276 . S
C962 O954 1.235 . S
C963 C965 1.393 . S
C963 C967 1.395 . S
C963 C970 1.492 . S
C964 C965 1.392 . S
C964 C966 1.386 . S
C965 C963 1.393 . S
C965 C964 1.392 . S
C965 H982 0.930 . S
C966 C964 1.386 . S
C966 C968 1.395 . S
C966 H983 0.930 . S
C967 C963 1.395 . S
C967 C968 1.379 . S
C967 H984 0.930 . S
C968 C966 1.395 . S
C968 C967 1.379 . S
C968 H985 0.930 . S
C969 O952 1.264 . S
C969 O953 1.254 . S
C970 Eu906 2.848 . S
C970 O950 1.257 . S
C970 O955 1.249 . S
C970 C963 1.492 . S
C971 H936 0.931 . S
C971 C949 1.420 . S
C971 C972 1.351 . S
C972 H934 0.930 . S
C972 C940 1.423 . S
C972 C971 1.351 . S
C973 O957 1.276 . S
C973 O960 1.235 . S
C974 C975 1.393 . S
C974 C978 1.395 . S
C974 C981 1.492 . S
C975 C974 1.393 . S
C975 C976 1.392 . S
C975 H986 0.930 . S
C976 C975 1.392 . S
C976 C977 1.386 . S
C977 C976 1.386 . S
C977 C979 1.395 . S
C977 H987 0.930 . S
C978 C974 1.395 . S
C978 C979 1.379 . S
C978 H988 0.930 . S
C979 C977 1.395 . S
C979 C978 1.379 . S
C979 H989 0.930 . S
C980 O958 1.264 . S
C980 O959 1.254 . S
C981 Eu917 2.848 . S
C981 O956 1.257 . S
C981 O961 1.249 . S
C981 C974 1.492 . S
H982 C965 0.930 . S
H983 C966 0.930 . S
H984 C967 0.930 . S
H985 C968 0.930 . S
H986 C975 0.930 . S
H987 C977 0.930 . S
H988 C978 0.930 . S
H989 C979 0.930 . S
H990 C996 0.930 . S
H991 C1000 0.930 . S
H992 C1005 0.929 . S
H993 C1003 0.929 . S
H994 C998 0.929 . S
H995 C1004 0.929 . S
C996 H990 0.930 . S
C996 C997 1.367 . S
C996 C1004 1.378 . S
C997 C996 1.367 . S
C997 C1005 1.433 . S
C998 H994 0.929 . S
C998 C1000 1.378 . S
C998 C1002 1.350 . S
C999 C1002 1.463 . S
C999 C1004 1.350 . S
C999 N1007 1.427 . S
C1000 H991 0.930 . S
C1000 C998 1.378 . S
C1000 C1001 1.367 . S
C1001 C1000 1.367 . S
C1001 C1003 1.433 . S
C1002 C998 1.350 . S
C1002 C999 1.463 . S
C1002 N1006 1.427 . S
C1003 H993 0.929 . S
C1003 C1001 1.433 . S
C1003 N1006 1.384 . S
C1004 H995 0.929 . S
C1004 C996 1.378 . S
C1004 C999 1.350 . S
C1005 H992 0.929 . S
C1005 C997 1.433 . S
C1005 N1007 1.384 . S
N1006 C1002 1.427 . S
N1006 C1003 1.384 . S
N1007 C999 1.427 . S
N1007 C1005 1.384 . S
H1008 C1014 0.930 . S
H1009 C1018 0.930 . S
H1010 C1023 0.929 . S
H1011 C1021 0.929 . S
H1012 C1016 0.929 . S
H1013 C1022 0.929 . S
C1014 H1008 0.930 . S
C1014 C1015 1.367 . S
C1014 C1022 1.378 . S
C1015 C1014 1.367 . S
C1015 C1023 1.433 . S
C1016 H1012 0.929 . S
C1016 C1018 1.378 . S
C1016 C1020 1.350 . S
C1017 C1020 1.463 . S
C1017 C1022 1.350 . S
C1017 N1025 1.427 . S
C1018 H1009 0.930 . S
C1018 C1016 1.378 . S
C1018 C1019 1.367 . S
C1019 C1018 1.367 . S
C1019 C1021 1.433 . S
C1020 C1016 1.350 . S
C1020 C1017 1.463 . S
C1020 N1024 1.427 . S
C1021 H1011 0.929 . S
C1021 C1019 1.433 . S
C1021 N1024 1.384 . S
C1022 H1013 0.929 . S
C1022 C1014 1.378 . S
C1022 C1017 1.350 . S
C1023 H1010 0.929 . S
C1023 C1015 1.433 . S
C1023 N1025 1.384 . S
N1024 C1020 1.427 . S
N1024 C1021 1.384 . S
N1025 C1017 1.427 . S
N1025 C1023 1.384 . S
H1026 C1032 0.930 . S
H1027 C1036 0.930 . S
H1028 C1041 0.929 . S
H1029 C1039 0.929 . S
H1030 C1034 0.929 . S
H1031 C1040 0.929 . S
C1032 H1026 0.930 . S
C1032 C1033 1.367 . S
C1032 C1040 1.378 . S
C1033 C1032 1.367 . S
C1033 C1041 1.433 . S
C1034 H1030 0.929 . S
C1034 C1036 1.378 . S
C1034 C1038 1.350 . S
C1035 C1038 1.463 . S
C1035 C1040 1.350 . S
C1035 N1043 1.427 . S
C1036 H1027 0.930 . S
C1036 C1034 1.378 . S
C1036 C1037 1.367 . S
C1037 C1036 1.367 . S
C1037 C1039 1.433 . S
C1038 C1034 1.350 . S
C1038 C1035 1.463 . S
C1038 N1042 1.427 . S
C1039 H1029 0.929 . S
C1039 C1037 1.433 . S
C1039 N1042 1.384 . S
C1040 H1031 0.929 . S
C1040 C1032 1.378 . S
C1040 C1035 1.350 . S
C1041 H1028 0.929 . S
C1041 C1033 1.433 . S
C1041 N1043 1.384 . S
N1042 C1038 1.427 . S
N1042 C1039 1.384 . S
N1043 C1035 1.427 . S
N1043 C1041 1.384 . S
H1044 C1050 0.930 . S
H1045 C1054 0.930 . S
H1046 C1059 0.929 1_554 S
H1047 C1057 0.929 . S
H1048 C1052 0.929 . S
H1049 C1058 0.929 . S
C1050 H1044 0.930 . S
C1050 C1051 1.367 . S
C1050 C1058 1.378 . S
C1051 C1050 1.367 . S
C1051 C1059 1.433 . S
C1052 H1048 0.929 . S
C1052 C1054 1.378 . S
C1052 C1056 1.350 1_554 S
C1053 C1056 1.463 . S
C1053 C1058 1.350 . S
C1053 N1061 1.427 1_556 S
C1054 H1045 0.930 . S
C1054 C1052 1.378 . S
C1054 C1055 1.367 1_554 S
C1055 C1054 1.367 1_556 S
C1055 C1057 1.433 . S
C1056 C1052 1.350 1_556 S
C1056 C1053 1.463 . S
C1056 N1060 1.427 . S
C1057 H1047 0.929 . S
C1057 C1055 1.433 . S
C1057 N1060 1.384 . S
C1058 H1049 0.929 . S
C1058 C1050 1.378 . S
C1058 C1053 1.350 . S
C1059 H1046 0.929 1_556 S
C1059 C1051 1.433 . S
C1059 N1061 1.384 1_556 S
N1060 C1056 1.427 . S
N1060 C1057 1.384 . S
N1061 C1053 1.427 1_554 S
N1061 C1059 1.384 1_554 S
H1062 C1068 0.957 . S
H1063 C1072 0.930 . S
H1064 C1077 0.929 . S
H1065 C1075 0.929 . S
H1066 C1070 0.929 . S
H1067 C1076 0.929 1_554 S
C1068 H1062 0.957 . S
C1068 C1069 1.367 . S
C1068 C1076 1.378 . S
C1069 C1068 1.367 . S
C1069 C1077 1.433 . S
C1070 H1066 0.929 . S
C1070 C1072 1.378 . S
C1070 C1074 1.350 . S
C1071 C1074 1.463 . S
C1071 C1076 1.350 . S
C1071 N1079 1.427 . S
C1072 H1063 0.930 . S
C1072 C1070 1.378 . S
C1072 C1073 1.367 1_556 S
C1073 C1072 1.367 1_554 S
C1073 C1075 1.433 . S
C1074 C1070 1.350 . S
C1074 C1071 1.463 . S
C1074 N1078 1.427 1_556 S
C1075 H1065 0.929 . S
C1075 C1073 1.433 . S
C1075 N1078 1.384 . S
C1076 H1067 0.929 1_556 S
C1076 C1068 1.378 . S
C1076 C1071 1.350 . S
C1077 H1064 0.929 . S
C1077 C1069 1.433 . S
C1077 N1079 1.384 . S
N1078 C1074 1.427 1_554 S
N1078 C1075 1.384 . S
N1079 C1071 1.427 . S
N1079 C1077 1.384 . S
H1080 C1086 0.930 . S
H1081 C1090 0.930 . S
H1082 C1095 0.929 1_554 S
H1083 C1093 0.929 . S
H1084 C1088 0.929 . S
H1085 C1094 0.929 . S
C1086 H1080 0.930 . S
C1086 C1087 1.367 . S
C1086 C1094 1.378 . S
C1087 C1086 1.367 . S
C1087 C1095 1.433 . S
C1088 H1084 0.929 . S
C1088 C1090 1.378 . S
C1088 C1092 1.350 1_554 S
C1089 C1092 1.463 . S
C1089 C1094 1.350 . S
C1089 N1097 1.427 . S
C1090 H1081 0.930 . S
C1090 C1088 1.378 . S
C1090 C1091 1.367 . S
C1091 C1090 1.367 . S
C1091 C1093 1.433 1_554 S
C1092 C1088 1.350 1_556 S
C1092 C1089 1.463 . S
C1092 N1096 1.427 . S
C1093 H1083 0.929 . S
C1093 C1091 1.433 1_556 S
C1093 N1096 1.384 . S
C1094 H1085 0.929 . S
C1094 C1086 1.378 . S
C1094 C1089 1.350 . S
C1095 H1082 0.929 1_556 S
C1095 C1087 1.433 . S
C1095 N1097 1.384 . S
N1096 C1092 1.427 . S
N1096 C1093 1.384 . S
N1097 C1089 1.427 . S
N1097 C1095 1.384 . S
H1098 C1104 0.930 . S
H1099 C1108 0.930 . S
H1100 C1113 0.929 . S
H1101 C1111 0.929 . S
H1102 C1106 0.929 . S
H1103 C1112 0.929 1_554 S
C1104 H1098 0.930 . S
C1104 C1105 1.367 . S
C1104 C1112 1.378 . S
C1105 C1104 1.367 . S
C1105 C1113 1.433 . S
C1106 H1102 0.929 . S
C1106 C1108 1.378 . S
C1106 C1110 1.350 . S
C1107 C1110 1.463 . S
C1107 C1112 1.350 . S
C1107 N1115 1.427 . S
C1108 H1099 0.930 . S
C1108 C1106 1.378 . S
C1108 C1109 1.367 1_556 S
C1109 C1108 1.367 1_554 S
C1109 C1111 1.433 . S
C1110 C1106 1.350 . S
C1110 C1107 1.463 . S
C1110 N1114 1.427 1_556 S
C1111 H1101 0.929 . S
C1111 C1109 1.433 . S
C1111 N1114 1.384 . S
C1112 H1103 0.929 1_556 S
C1112 C1104 1.378 . S
C1112 C1107 1.350 . S
C1113 H1100 0.929 . S
C1113 C1105 1.433 . S
C1113 N1115 1.384 . S
N1114 C1110 1.427 1_554 S
N1114 C1111 1.384 . S
N1115 C1107 1.427 . S
N1115 C1113 1.384 . S
H1116 C1122 0.930 . S
H1117 C1126 0.930 . S
H1118 C1131 0.929 . S
H1119 C1129 0.929 1_554 S
H1120 C1124 0.929 . S
H1121 C1130 0.929 . S
C1122 H1116 0.930 . S
C1122 C1123 1.367 . S
C1122 C1130 1.378 . S
C1123 C1122 1.367 . S
C1123 C1131 1.433 . S
C1124 H1120 0.929 . S
C1124 C1126 1.378 . S
C1124 C1128 1.350 . S
C1125 C1128 1.463 . S
C1125 C1130 1.350 . S
C1125 N1133 1.427 . S
C1126 H1117 0.930 . S
C1126 C1124 1.378 . S
C1126 C1127 1.367 . S
C1127 C1126 1.367 . S
C1127 C1129 1.433 . S
C1128 C1124 1.350 . S
C1128 C1125 1.463 . S
C1128 N1132 1.427 . S
C1129 H1119 0.929 1_556 S
C1129 C1127 1.433 . S
C1129 N1132 1.384 . S
C1130 H1121 0.929 . S
C1130 C1122 1.378 . S
C1130 C1125 1.350 . S
C1131 H1118 0.929 . S
C1131 C1123 1.433 . S
C1131 N1133 1.384 . S
N1132 C1128 1.427 . S
N1132 C1129 1.384 . S
N1133 C1125 1.427 . S
N1133 C1131 1.384 . S
H1134 C1140 0.930 . S
H1135 C1144 0.930 . S
H1136 C1149 0.929 . S
H1137 C1147 0.929 . S
H1138 C1142 0.929 . S
H1139 C1148 0.929 . S
C1140 H1134 0.930 . S
C1140 C1141 1.367 . S
C1140 C1148 1.378 . S
C1141 C1140 1.367 . S
C1141 C1149 1.433 . S
C1142 H1138 0.929 . S
C1142 C1144 1.378 . S
C1142 C1146 1.350 . S
C1143 C1146 1.463 1_556 S
C1143 C1148 1.350 . S
C1143 N1151 1.427 . S
C1144 H1135 0.930 . S
C1144 C1142 1.378 . S
C1144 C1145 1.367 . S
C1145 C1144 1.367 . S
C1145 C1147 1.433 . S
C1146 C1142 1.350 . S
C1146 C1143 1.463 1_554 S
C1146 N1150 1.428 . S
C1147 H1137 0.929 . S
C1147 C1145 1.433 . S
C1147 N1150 1.401 . S
C1148 H1139 0.929 . S
C1148 C1140 1.378 . S
C1148 C1143 1.350 . S
C1149 H1136 0.929 . S
C1149 C1141 1.433 . S
C1149 N1151 1.384 . S
N1150 C1146 1.428 . S
N1150 C1147 1.401 . S
N1151 C1143 1.427 . S
N1151 C1149 1.384 . S
H1152 C1158 0.930 . S
H1153 C1162 0.930 . S
H1154 C1167 0.929 . S
H1155 C1165 0.929 . S
H1156 C1160 0.929 . S
H1157 C1166 0.929 . S
C1158 H1152 0.930 . S
C1158 C1159 1.367 . S
C1158 C1166 1.378 . S
C1159 C1158 1.367 . S
C1159 C1167 1.433 . S
C1160 H1156 0.929 . S
C1160 C1162 1.378 . S
C1160 C1164 1.350 . S
C1161 C1164 1.463 . S
C1161 C1166 1.350 . S
C1161 N1169 1.427 . S
C1162 H1153 0.930 . S
C1162 C1160 1.378 . S
C1162 C1163 1.367 . S
C1163 C1162 1.367 . S
C1163 C1165 1.433 . S
C1164 C1160 1.350 . S
C1164 C1161 1.463 . S
C1164 N1168 1.427 . S
C1165 H1155 0.929 . S
C1165 C1163 1.433 . S
C1165 N1168 1.384 . S
C1166 H1157 0.929 . S
C1166 C1158 1.378 . S
C1166 C1161 1.350 . S
C1167 H1154 0.929 . S
C1167 C1159 1.433 . S
C1167 N1169 1.384 . S
N1168 C1164 1.427 . S
N1168 C1165 1.384 . S
N1169 C1161 1.427 . S
N1169 C1167 1.384 . S
H1170 C1176 0.930 . S
H1171 C1180 0.930 . S
H1172 C1185 0.929 . S
H1173 C1183 0.929 . S
H1174 C1178 0.929 . S
H1175 C1184 0.929 . S
C1176 H1170 0.930 . S
C1176 C1177 1.367 . S
C1176 C1184 1.378 . S
C1177 C1176 1.367 . S
C1177 C1185 1.433 . S
C1178 H1174 0.929 . S
C1178 C1180 1.378 . S
C1178 C1182 1.350 . S
C1179 C1182 1.463 . S
C1179 C1184 1.350 . S
C1179 N1187 1.427 . S
C1180 H1171 0.930 . S
C1180 C1178 1.378 . S
C1180 C1181 1.367 . S
C1181 C1180 1.367 . S
C1181 C1183 1.433 . S
C1182 C1178 1.350 . S
C1182 C1179 1.463 . S
C1182 N1186 1.427 . S
C1183 H1173 0.929 . S
C1183 C1181 1.433 . S
C1183 N1186 1.384 . S
C1184 H1175 0.929 . S
C1184 C1176 1.378 . S
C1184 C1179 1.350 . S
C1185 H1172 0.929 . S
C1185 C1177 1.433 . S
C1185 N1187 1.384 . S
N1186 C1182 1.427 . S
N1186 C1183 1.384 . S
N1187 C1179 1.427 . S
N1187 C1185 1.384 . S
H1188 C1194 0.930 . S
H1189 C1198 0.930 . S
H1190 C1203 0.929 . S
H1191 C1201 0.929 . S
H1192 C1196 0.929 . S
H1193 C1202 0.929 . S
C1194 H1188 0.930 . S
C1194 C1195 1.367 . S
C1194 C1202 1.378 . S
C1195 C1194 1.367 . S
C1195 C1203 1.433 . S
C1196 H1192 0.929 . S
C1196 C1198 1.378 . S
C1196 C1200 1.350 . S
C1197 C1200 1.463 . S
C1197 C1202 1.350 . S
C1197 N1205 1.427 . S
C1198 H1189 0.930 . S
C1198 C1196 1.378 . S
C1198 C1199 1.367 . S
C1199 C1198 1.367 . S
C1199 C1201 1.433 . S
C1200 C1196 1.350 . S
C1200 C1197 1.463 . S
C1200 N1204 1.427 . S
C1201 H1191 0.929 . S
C1201 C1199 1.433 . S
C1201 N1204 1.384 . S
C1202 H1193 0.929 . S
C1202 C1194 1.378 . S
C1202 C1197 1.350 . S
C1203 H1190 0.929 . S
C1203 C1195 1.433 . S
C1203 N1205 1.384 . S
N1204 C1200 1.427 . S
N1204 C1201 1.384 . S
N1205 C1197 1.427 . S
N1205 C1203 1.384 . S
H1206 C1212 0.930 . S
H1207 C1216 0.930 . S
H1208 C1221 0.929 . S
H1209 C1219 0.929 . S
H1210 C1214 0.929 . S
H1211 C1220 0.929 . S
C1212 H1206 0.930 . S
C1212 C1213 1.367 . S
C1212 C1220 1.378 . S
C1213 C1212 1.367 . S
C1213 C1221 1.433 . S
C1214 H1210 0.929 . S
C1214 C1216 1.378 . S
C1214 C1218 1.350 . S
C1215 C1218 1.463 1_655 S
C1215 C1220 1.350 . S
C1215 N1223 1.427 . S
C1216 H1207 0.930 . S
C1216 C1214 1.378 . S
C1216 C1217 1.367 . S
C1217 C1216 1.367 . S
C1217 C1219 1.433 . S
C1218 C1214 1.350 . S
C1218 C1215 1.463 1_455 S
C1218 N1222 1.427 . S
C1219 H1209 0.929 . S
C1219 C1217 1.433 . S
C1219 N1222 1.384 . S
C1220 H1211 0.929 . S
C1220 C1212 1.378 . S
C1220 C1215 1.350 . S
C1221 H1208 0.929 . S
C1221 C1213 1.433 . S
C1221 N1223 1.384 . S
N1222 C1218 1.427 . S
N1222 C1219 1.384 . S
N1223 C1215 1.427 . S
N1223 C1221 1.384 . S
H1224 C1230 0.930 . S
H1225 C1234 0.930 . S
H1226 C1239 0.929 . S
H1227 C1237 0.929 . S
H1228 C1232 0.929 . S
H1229 C1238 0.929 . S
C1230 H1224 0.930 . S
C1230 C1231 1.367 . S
C1230 C1238 1.378 . S
C1231 C1230 1.367 . S
C1231 C1239 1.433 . S
C1232 H1228 0.929 . S
C1232 C1234 1.378 . S
C1232 C1236 1.350 . S
C1233 C1236 1.463 . S
C1233 C1238 1.350 . S
C1233 N1241 1.427 . S
C1234 H1225 0.930 . S
C1234 C1232 1.378 . S
C1234 C1235 1.367 . S
C1235 C1234 1.367 . S
C1235 C1237 1.433 . S
C1236 C1232 1.350 . S
C1236 C1233 1.463 . S
C1236 N1240 1.427 . S
C1237 H1227 0.929 . S
C1237 C1235 1.433 . S
C1237 N1240 1.384 . S
C1238 H1229 0.929 . S
C1238 C1230 1.378 . S
C1238 C1233 1.350 . S
C1239 H1226 0.929 . S
C1239 C1231 1.433 . S
C1239 N1241 1.384 . S
N1240 C1236 1.427 . S
N1240 C1237 1.384 . S
N1241 C1233 1.427 . S
N1241 C1239 1.384 . S
H1242 C1248 0.930 . S
H1243 C1252 0.930 . S
H1244 C1257 0.929 . S
H1245 C1255 0.929 . S
H1246 C1250 0.929 . S
H1247 C1256 0.929 . S
C1248 H1242 0.930 . S
C1248 C1249 1.367 . S
C1248 C1256 1.375 1_545 S
C1249 C1248 1.367 . S
C1249 C1257 1.433 . S
C1250 H1246 0.929 . S
C1250 C1252 1.378 . S
C1250 C1254 1.350 . S
C1251 C1254 1.463 . S
C1251 C1256 1.352 . S
C1251 N1259 1.427 1_565 S
C1252 H1243 0.930 . S
C1252 C1250 1.378 . S
C1252 C1253 1.367 . S
C1253 C1252 1.367 . S
C1253 C1255 1.433 . S
C1254 C1250 1.350 . S
C1254 C1251 1.463 . S
C1254 N1258 1.427 . S
C1255 H1245 0.929 . S
C1255 C1253 1.433 . S
C1255 N1258 1.384 . S
C1256 H1247 0.929 . S
C1256 C1248 1.375 1_565 S
C1256 C1251 1.352 . S
C1257 H1244 0.929 . S
C1257 C1249 1.433 . S
C1257 N1259 1.384 . S
N1258 C1254 1.427 . S
N1258 C1255 1.384 . S
N1259 C1251 1.427 1_545 S
N1259 C1257 1.384 . S
H1260 C1266 0.930 . S
H1261 C1270 0.930 . S
H1262 C1275 0.929 . S
H1263 C1273 0.929 . S
H1264 C1268 0.929 . S
H1265 C1274 0.929 . S
C1266 H1260 0.930 . S
C1266 C1267 1.367 . S
C1266 C1274 1.378 . S
C1267 C1266 1.367 . S
C1267 C1275 1.433 . S
C1268 H1264 0.929 . S
C1268 C1270 1.378 . S
C1268 C1272 1.350 . S
C1269 C1272 1.463 . S
C1269 C1274 1.350 . S
C1269 N1277 1.427 . S
C1270 H1261 0.930 . S
C1270 C1268 1.378 . S
C1270 C1271 1.367 . S
C1271 C1270 1.367 . S
C1271 C1273 1.433 . S
C1272 C1268 1.350 . S
C1272 C1269 1.463 . S
C1272 N1276 1.427 . S
C1273 H1263 0.929 . S
C1273 C1271 1.433 . S
C1273 N1276 1.384 . S
C1274 H1265 0.929 . S
C1274 C1266 1.378 . S
C1274 C1269 1.350 . S
C1275 H1262 0.929 . S
C1275 C1267 1.433 . S
C1275 N1277 1.384 . S
N1276 C1272 1.427 . S
N1276 C1273 1.384 . S
N1277 C1269 1.427 . S
N1277 C1275 1.384 . S
H1278 C1284 0.930 . S
H1279 C1288 0.930 . S
H1280 C1293 0.929 . S
H1281 C1291 0.929 . S
H1282 C1286 0.929 . S
H1283 C1292 0.929 . S
C1284 H1278 0.930 . S
C1284 C1285 1.367 . S
C1284 C1292 1.378 . S
C1285 C1284 1.367 . S
C1285 C1293 1.433 . S
C1286 H1282 0.929 . S
C1286 C1288 1.378 . S
C1286 C1290 1.350 . S
C1287 C1290 1.463 . S
C1287 C1292 1.350 . S
C1287 N1295 1.427 . S
C1288 H1279 0.930 . S
C1288 C1286 1.378 . S
C1288 C1289 1.367 . S
C1289 C1288 1.367 . S
C1289 C1291 1.433 . S
C1290 C1286 1.350 . S
C1290 C1287 1.463 . S
C1290 N1294 1.427 . S
C1291 H1281 0.929 . S
C1291 C1289 1.433 . S
C1291 N1294 1.384 . S
C1292 H1283 0.929 . S
C1292 C1284 1.378 . S
C1292 C1287 1.350 . S
C1293 H1280 0.929 . S
C1293 C1285 1.433 . S
C1293 N1295 1.384 . S
N1294 C1290 1.427 . S
N1294 C1291 1.384 . S
N1295 C1287 1.427 . S
N1295 C1293 1.384 . S
H1296 C1302 0.930 . S
H1297 C1306 0.930 . S
H1298 C1311 0.929 . S
H1299 C1309 0.929 . S
H1300 C1304 0.929 . S
H1301 C1310 0.929 . S
C1302 H1296 0.930 . S
C1302 C1303 1.367 . S
C1302 C1310 1.378 . S
C1303 C1302 1.367 . S
C1303 C1311 1.433 . S
C1304 H1300 0.929 . S
C1304 C1306 1.378 . S
C1304 C1308 1.350 . S
C1305 C1308 1.463 . S
C1305 C1310 1.350 . S
C1305 N1313 1.427 . S
C1306 H1297 0.930 . S
C1306 C1304 1.378 . S
C1306 C1307 1.367 . S
C1307 C1306 1.367 . S
C1307 C1309 1.433 . S
C1308 C1304 1.350 . S
C1308 C1305 1.463 . S
C1308 N1312 1.427 . S
C1309 H1299 0.929 . S
C1309 C1307 1.433 . S
C1309 N1312 1.384 . S
C1310 H1301 0.929 . S
C1310 C1302 1.378 . S
C1310 C1305 1.350 . S
C1311 H1298 0.929 . S
C1311 C1303 1.433 . S
C1311 N1313 1.384 . S
N1312 C1308 1.427 . S
N1312 C1309 1.384 . S
N1313 C1305 1.427 . S
N1313 C1311 1.384 . S
H1314 C1320 0.930 . S
H1315 C1324 0.930 . S
H1316 C1329 0.929 . S
H1317 C1327 0.929 . S
H1318 C1322 0.929 . S
H1319 C1328 0.929 . S
C1320 H1314 0.930 . S
C1320 C1321 1.367 . S
C1320 C1328 1.378 . S
C1321 C1320 1.367 . S
C1321 C1329 1.433 . S
C1322 H1318 0.929 . S
C1322 C1324 1.378 . S
C1322 C1326 1.350 . S
C1323 C1326 1.463 . S
C1323 C1328 1.350 . S
C1323 N1331 1.427 . S
C1324 H1315 0.930 . S
C1324 C1322 1.378 . S
C1324 C1325 1.367 . S
C1325 C1324 1.367 . S
C1325 C1327 1.433 . S
C1326 C1322 1.350 . S
C1326 C1323 1.463 . S
C1326 N1330 1.427 . S
C1327 H1317 0.929 . S
C1327 C1325 1.433 . S
C1327 N1330 1.384 . S
C1328 H1319 0.929 . S
C1328 C1320 1.378 . S
C1328 C1323 1.350 . S
C1329 H1316 0.929 . S
C1329 C1321 1.433 . S
C1329 N1331 1.384 . S
N1330 C1326 1.427 . S
N1330 C1327 1.384 . S
N1331 C1323 1.427 . S
N1331 C1329 1.384 . S
H1332 C1338 0.930 . S
H1333 C1342 0.930 . S
H1334 C1347 0.929 . S
H1335 C1345 0.929 . S
H1336 C1340 0.929 . S
H1337 C1346 0.929 . S
C1338 H1332 0.930 . S
C1338 C1339 1.367 . S
C1338 C1346 1.378 . S
C1339 C1338 1.367 . S
C1339 C1347 1.433 . S
C1340 H1336 0.929 . S
C1340 C1342 1.378 . S
C1340 C1344 1.350 . S
C1341 C1344 1.463 . S
C1341 C1346 1.350 . S
C1341 N1349 1.427 . S
C1342 H1333 0.930 . S
C1342 C1340 1.378 . S
C1342 C1343 1.367 . S
C1343 C1342 1.367 . S
C1343 C1345 1.433 . S
C1344 C1340 1.350 . S
C1344 C1341 1.463 . S
C1344 N1348 1.427 . S
C1345 H1335 0.929 . S
C1345 C1343 1.433 . S
C1345 N1348 1.384 . S
C1346 H1337 0.929 . S
C1346 C1338 1.378 . S
C1346 C1341 1.350 . S
C1347 H1334 0.929 . S
C1347 C1339 1.433 . S
C1347 N1349 1.384 . S
N1348 C1344 1.427 . S
N1348 C1345 1.384 . S
N1349 C1341 1.427 . S
N1349 C1347 1.384 . S
H1350 C1356 0.930 . S
H1351 C1360 0.930 . S
H1352 C1365 0.929 . S
H1353 C1363 0.929 . S
H1354 C1358 0.929 . S
H1355 C1364 0.929 . S
C1356 H1350 0.930 . S
C1356 C1357 1.367 . S
C1356 C1364 1.378 . S
C1357 C1356 1.367 . S
C1357 C1365 1.433 . S
C1358 H1354 0.929 . S
C1358 C1360 1.378 . S
C1358 C1362 1.350 . S
C1359 C1362 1.463 . S
C1359 C1364 1.350 . S
C1359 N1367 1.427 . S
C1360 H1351 0.930 . S
C1360 C1358 1.378 . S
C1360 C1361 1.367 . S
C1361 C1360 1.367 . S
C1361 C1363 1.433 . S
C1362 C1358 1.350 . S
C1362 C1359 1.463 . S
C1362 N1366 1.427 . S
C1363 H1353 0.929 . S
C1363 C1361 1.433 . S
C1363 N1366 1.384 . S
C1364 H1355 0.929 . S
C1364 C1356 1.378 . S
C1364 C1359 1.350 . S
C1365 H1352 0.929 . S
C1365 C1357 1.433 . S
C1365 N1367 1.384 . S
N1366 C1362 1.427 . S
N1366 C1363 1.384 . S
N1367 C1359 1.427 . S
N1367 C1365 1.384 . S
H1368 C1374 0.930 . S
H1369 C1378 0.930 . S
H1370 C1383 0.929 . S
H1371 C1381 0.929 . S
H1372 C1376 0.929 . S
H1373 C1382 0.929 . S
C1374 H1368 0.930 . S
C1374 C1375 1.367 . S
C1374 C1382 1.378 . S
C1375 C1374 1.367 . S
C1375 C1383 1.433 . S
C1376 H1372 0.929 . S
C1376 C1378 1.378 . S
C1376 C1380 1.350 . S
C1377 C1380 1.463 1_545 S
C1377 C1382 1.350 . S
C1377 N1385 1.427 . S
C1378 H1369 0.930 . S
C1378 C1376 1.378 . S
C1378 C1379 1.367 . S
C1379 C1378 1.367 . S
C1379 C1381 1.433 . S
C1380 C1376 1.350 . S
C1380 C1377 1.463 1_565 S
C1380 N1384 1.427 . S
C1381 H1371 0.929 . S
C1381 C1379 1.433 . S
C1381 N1384 1.384 . S
C1382 H1373 0.929 . S
C1382 C1374 1.378 . S
C1382 C1377 1.350 . S
C1383 H1370 0.929 . S
C1383 C1375 1.433 . S
C1383 N1385 1.384 . S
N1384 C1380 1.427 . S
N1384 C1381 1.384 . S
N1385 C1377 1.427 . S
N1385 C1383 1.384 . S
H1386 C1392 0.930 . S
H1387 C1396 0.930 . S
H1388 C1401 0.929 . S
H1389 C1399 0.929 . S
H1390 C1394 0.929 . S
H1391 C1400 0.929 . S
C1392 H1386 0.930 . S
C1392 C1393 1.367 . S
C1392 C1400 1.378 1_655 S
C1393 C1392 1.367 . S
C1393 C1401 1.433 . S
C1394 H1390 0.929 . S
C1394 C1396 1.378 . S
C1394 C1398 1.350 . S
C1395 C1398 1.463 . S
C1395 C1400 1.350 . S
C1395 N1403 1.427 1_455 S
C1396 H1387 0.930 . S
C1396 C1394 1.378 . S
C1396 C1397 1.367 . S
C1397 C1396 1.367 . S
C1397 C1399 1.433 . S
C1398 C1394 1.350 . S
C1398 C1395 1.463 . S
C1398 N1402 1.427 . S
C1399 H1389 0.929 . S
C1399 C1397 1.433 . S
C1399 N1402 1.384 . S
C1400 H1391 0.929 . S
C1400 C1392 1.378 1_455 S
C1400 C1395 1.350 . S
C1401 H1388 0.929 . S
C1401 C1393 1.433 . S
C1401 N1403 1.384 . S
N1402 C1398 1.427 . S
N1402 C1399 1.384 . S
N1403 C1395 1.427 1_655 S
N1403 C1401 1.384 . S
H1404 C1410 0.930 . S
H1405 C1414 0.930 . S
H1406 C1419 0.929 . S
H1407 C1417 0.929 . S
H1408 C1412 0.929 . S
H1409 C1418 0.929 . S
C1410 H1404 0.930 . S
C1410 C1411 1.367 . S
C1410 C1418 1.378 . S
C1411 C1410 1.367 . S
C1411 C1419 1.433 . S
C1412 H1408 0.929 . S
C1412 C1414 1.378 . S
C1412 C1416 1.350 . S
C1413 C1416 1.463 . S
C1413 C1418 1.350 . S
C1413 N1421 1.427 . S
C1414 H1405 0.930 . S
C1414 C1412 1.378 . S
C1414 C1415 1.367 . S
C1415 C1414 1.367 . S
C1415 C1417 1.433 . S
C1416 C1412 1.350 . S
C1416 C1413 1.463 . S
C1416 N1420 1.427 . S
C1417 H1407 0.929 . S
C1417 C1415 1.433 . S
C1417 N1420 1.384 . S
C1418 H1409 0.929 . S
C1418 C1410 1.378 . S
C1418 C1413 1.350 . S
C1419 H1406 0.929 . S
C1419 C1411 1.433 . S
C1419 N1421 1.384 . S
N1420 C1416 1.427 . S
N1420 C1417 1.384 . S
N1421 C1413 1.427 . S
N1421 C1419 1.384 . S
H1422 C1428 0.930 . S
H1423 C1432 0.930 . S
H1424 C1437 0.929 . S
H1425 C1435 0.929 . S
H1426 C1430 0.929 . S
H1427 C1436 0.929 . S
C1428 H1422 0.930 . S
C1428 C1429 1.367 . S
C1428 C1436 1.378 . S
C1429 C1428 1.367 . S
C1429 C1437 1.433 . S
C1430 H1426 0.929 . S
C1430 C1432 1.378 . S
C1430 C1434 1.350 . S
C1431 C1434 1.463 . S
C1431 C1436 1.350 . S
C1431 N1439 1.427 . S
C1432 H1423 0.930 . S
C1432 C1430 1.378 . S
C1432 C1433 1.367 . S
C1433 C1432 1.367 . S
C1433 C1435 1.433 . S
C1434 C1430 1.350 . S
C1434 C1431 1.463 . S
C1434 N1438 1.427 . S
C1435 H1425 0.929 . S
C1435 C1433 1.433 . S
C1435 N1438 1.384 . S
C1436 H1427 0.929 . S
C1436 C1428 1.378 . S
C1436 C1431 1.350 . S
C1437 H1424 0.929 . S
C1437 C1429 1.433 . S
C1437 N1439 1.384 . S
N1438 C1434 1.427 . S
N1438 C1435 1.384 . S
N1439 C1431 1.427 . S
N1439 C1437 1.384 . S
H1440 C1446 0.930 . S
H1441 C1450 0.930 . S
H1442 C1455 0.929 . S
H1443 C1453 0.929 . S
H1444 C1448 0.929 . S
H1445 C1454 0.929 . S
C1446 H1440 0.930 . S
C1446 C1447 1.367 . S
C1446 C1454 1.378 . S
C1447 C1446 1.367 . S
C1447 C1455 1.433 . S
C1448 H1444 0.929 . S
C1448 C1450 1.378 . S
C1448 C1452 1.350 . S
C1449 C1452 1.463 . S
C1449 C1454 1.350 . S
C1449 N1457 1.427 . S
C1450 H1441 0.930 . S
C1450 C1448 1.378 . S
C1450 C1451 1.367 . S
C1451 C1450 1.367 . S
C1451 C1453 1.433 . S
C1452 C1448 1.350 . S
C1452 C1449 1.463 . S
C1452 N1456 1.427 . S
C1453 H1443 0.929 . S
C1453 C1451 1.433 . S
C1453 N1456 1.384 . S
C1454 H1445 0.929 . S
C1454 C1446 1.378 . S
C1454 C1449 1.350 . S
C1455 H1442 0.929 . S
C1455 C1447 1.433 . S
C1455 N1457 1.384 . S
N1456 C1452 1.427 . S
N1456 C1453 1.384 . S
N1457 C1449 1.427 . S
N1457 C1455 1.384 . S
H1458 C1464 0.930 . S
H1459 C1468 0.930 . S
H1460 C1473 0.929 . S
H1461 C1471 0.929 . S
H1462 C1466 0.929 . S
H1463 C1472 0.929 . S
C1464 H1458 0.930 . S
C1464 C1465 1.367 . S
C1464 C1472 1.378 . S
C1465 C1464 1.367 . S
C1465 C1473 1.433 . S
C1466 H1462 0.929 . S
C1466 C1468 1.378 . S
C1466 C1470 1.350 . S
C1467 C1470 1.463 . S
C1467 C1472 1.350 . S
C1467 N1475 1.427 . S
C1468 H1459 0.930 . S
C1468 C1466 1.378 . S
C1468 C1469 1.367 . S
C1469 C1468 1.367 . S
C1469 C1471 1.433 . S
C1470 C1466 1.350 . S
C1470 C1467 1.463 . S
C1470 N1474 1.427 . S
C1471 H1461 0.929 . S
C1471 C1469 1.433 . S
C1471 N1474 1.384 . S
C1472 H1463 0.929 . S
C1472 C1464 1.378 . S
C1472 C1467 1.350 . S
C1473 H1460 0.929 . S
C1473 C1465 1.433 . S
C1473 N1475 1.384 . S
N1474 C1470 1.427 . S
N1474 C1471 1.384 . S
N1475 C1467 1.427 . S
N1475 C1473 1.384 . S
H1476 C1482 0.930 . S
H1477 C1486 0.930 . S
H1478 C1491 0.929 . S
H1479 C1489 0.929 . S
H1480 C1484 0.929 . S
H1481 C1490 0.929 . S
C1482 H1476 0.930 . S
C1482 C1483 1.367 . S
C1482 C1490 1.378 1_565 S
C1483 C1482 1.367 . S
C1483 C1491 1.433 . S
C1484 H1480 0.929 . S
C1484 C1486 1.378 . S
C1484 C1488 1.350 . S
C1485 C1488 1.463 . S
C1485 C1490 1.350 . S
C1485 N1493 1.427 1_545 S
C1486 H1477 0.930 . S
C1486 C1484 1.378 . S
C1486 C1487 1.367 . S
C1487 C1486 1.367 . S
C1487 C1489 1.433 . S
C1488 C1484 1.350 . S
C1488 C1485 1.463 . S
C1488 N1492 1.427 . S
C1489 H1479 0.929 . S
C1489 C1487 1.433 . S
C1489 N1492 1.384 . S
C1490 H1481 0.929 . S
C1490 C1482 1.378 1_545 S
C1490 C1485 1.350 . S
C1491 H1478 0.929 . S
C1491 C1483 1.433 . S
C1491 N1493 1.384 . S
N1492 C1488 1.427 . S
N1492 C1489 1.384 . S
N1493 C1485 1.427 1_565 S
N1493 C1491 1.384 . S
H1494 C1500 0.930 . S
H1495 C1504 0.930 . S
H1496 C1509 0.929 . S
H1497 C1507 0.929 . S
H1498 C1502 0.929 . S
H1499 C1508 0.929 . S
C1500 H1494 0.930 . S
C1500 C1501 1.367 1_655 S
C1500 C1508 1.378 . S
C1501 C1500 1.367 1_455 S
C1501 C1509 1.433 . S
C1502 H1498 0.929 . S
C1502 C1504 1.378 . S
C1502 C1506 1.350 . S
C1503 C1506 1.463 . S
C1503 C1508 1.350 . S
C1503 N1511 1.427 . S
C1504 H1495 0.930 . S
C1504 C1502 1.378 . S
C1504 C1505 1.367 . S
C1505 C1504 1.367 . S
C1505 C1507 1.433 . S
C1506 C1502 1.350 . S
C1506 C1503 1.463 . S
C1506 N1510 1.427 . S
C1507 H1497 0.929 . S
C1507 C1505 1.433 . S
C1507 N1510 1.384 . S
C1508 H1499 0.929 . S
C1508 C1500 1.378 . S
C1508 C1503 1.350 . S
C1509 H1496 0.929 . S
C1509 C1501 1.433 . S
C1509 N1511 1.384 1_455 S
N1510 C1506 1.427 . S
N1510 C1507 1.384 . S
N1511 C1503 1.427 . S
N1511 C1509 1.384 1_655 S
H1512 C1518 0.930 . S
H1513 C1522 0.930 . S
H1514 C1527 0.929 . S
H1515 C1525 0.929 . S
H1516 C1520 0.929 . S
H1517 C1526 0.929 . S
C1518 H1512 0.930 . S
C1518 C1519 1.367 . S
C1518 C1526 1.378 . S
C1519 C1518 1.367 . S
C1519 C1527 1.433 . S
C1520 H1516 0.929 . S
C1520 C1522 1.378 . S
C1520 C1524 1.350 . S
C1521 C1524 1.463 . S
C1521 C1526 1.350 . S
C1521 N1529 1.427 . S
C1522 H1513 0.930 . S
C1522 C1520 1.378 . S
C1522 C1523 1.367 . S
C1523 C1522 1.367 . S
C1523 C1525 1.433 . S
C1524 C1520 1.350 . S
C1524 C1521 1.463 . S
C1524 N1528 1.427 . S
C1525 H1515 0.929 . S
C1525 C1523 1.433 . S
C1525 N1528 1.384 . S
C1526 H1517 0.929 . S
C1526 C1518 1.378 . S
C1526 C1521 1.350 . S
C1527 H1514 0.929 . S
C1527 C1519 1.433 . S
C1527 N1529 1.384 . S
N1528 C1524 1.427 . S
N1528 C1525 1.384 . S
N1529 C1521 1.427 . S
N1529 C1527 1.384 . S
H1530 C1536 0.930 . S
H1531 C1540 0.930 . S
H1532 C1545 0.929 . S
H1533 C1543 0.929 . S
H1534 C1538 0.929 1_455 S
H1535 C1544 0.929 . S
C1536 H1530 0.930 . S
C1536 C1537 1.367 . S
C1536 C1544 1.378 . S
C1537 C1536 1.367 . S
C1537 C1545 1.433 . S
C1538 H1534 0.929 1_655 S
C1538 C1540 1.378 . S
C1538 C1542 1.349 1_655 S
C1539 C1542 1.488 . S
C1539 C1544 1.350 . S
C1539 N1547 1.427 . S
C1540 H1531 0.930 . S
C1540 C1538 1.378 . S
C1540 C1541 1.367 . S
C1541 C1540 1.367 . S
C1541 C1543 1.433 . S
C1542 C1538 1.349 1_455 S
C1542 C1539 1.488 . S
C1542 N1546 1.404 1_455 S
C1543 H1533 0.929 . S
C1543 C1541 1.433 . S
C1543 N1546 1.384 . S
C1544 H1535 0.929 . S
C1544 C1536 1.378 . S
C1544 C1539 1.350 . S
C1545 H1532 0.929 . S
C1545 C1537 1.433 . S
C1545 N1547 1.384 . S
N1546 C1542 1.404 1_655 S
N1546 C1543 1.384 . S
N1547 C1539 1.427 . S
N1547 C1545 1.384 . S
H1548 C1554 0.930 . S
H1549 C1558 0.930 . S
H1550 C1563 0.929 . S
H1551 C1561 0.929 . S
H1552 C1556 0.929 . S
H1553 C1562 0.929 . S
C1554 H1548 0.930 . S
C1554 C1555 1.367 . S
C1554 C1562 1.378 . S
C1555 C1554 1.367 . S
C1555 C1563 1.433 . S
C1556 H1552 0.929 . S
C1556 C1558 1.378 . S
C1556 C1560 1.350 . S
C1557 C1560 1.463 . S
C1557 C1562 1.350 . S
C1557 N1565 1.427 . S
C1558 H1549 0.930 . S
C1558 C1556 1.378 . S
C1558 C1559 1.367 . S
C1559 C1558 1.367 . S
C1559 C1561 1.433 . S
C1560 C1556 1.350 . S
C1560 C1557 1.463 . S
C1560 N1564 1.427 . S
C1561 H1551 0.929 . S
C1561 C1559 1.433 . S
C1561 N1564 1.384 . S
C1562 H1553 0.929 . S
C1562 C1554 1.378 . S
C1562 C1557 1.350 . S
C1563 H1550 0.929 . S
C1563 C1555 1.433 . S
C1563 N1565 1.384 . S
N1564 C1560 1.427 . S
N1564 C1561 1.384 . S
N1565 C1557 1.427 . S
N1565 C1563 1.384 . S
H1566 C1572 0.930 . S
H1567 C1576 0.930 . S
H1568 C1581 0.929 . S
H1569 C1579 0.929 . S
H1570 C1574 0.929 . S
H1571 C1580 0.929 . S
C1572 H1566 0.930 . S
C1572 C1573 1.367 . S
C1572 C1580 1.378 . S
C1573 C1572 1.367 . S
C1573 C1581 1.433 . S
C1574 H1570 0.929 . S
C1574 C1576 1.378 . S
C1574 C1578 1.350 . S
C1575 C1578 1.463 1_565 S
C1575 C1580 1.350 . S
C1575 N1583 1.427 . S
C1576 H1567 0.930 . S
C1576 C1574 1.378 . S
C1576 C1577 1.367 . S
C1577 C1576 1.367 . S
C1577 C1579 1.433 . S
C1578 C1574 1.350 . S
C1578 C1575 1.463 1_545 S
C1578 N1582 1.427 . S
C1579 H1569 0.929 . S
C1579 C1577 1.433 . S
C1579 N1582 1.384 . S
C1580 H1571 0.929 . S
C1580 C1572 1.378 . S
C1580 C1575 1.350 . S
C1581 H1568 0.929 . S
C1581 C1573 1.433 . S
C1581 N1583 1.384 . S
N1582 C1578 1.427 . S
N1582 C1579 1.384 . S
N1583 C1575 1.427 . S
N1583 C1581 1.384 . S
H1584 C1590 0.930 . S
H1585 C1594 0.930 . S
H1586 C1599 0.929 . S
H1587 C1597 0.929 . S
H1588 C1592 0.929 . S
H1589 C1598 0.929 . S
C1590 H1584 0.930 . S
C1590 C1591 1.367 . S
C1590 C1598 1.378 . S
C1591 C1590 1.367 . S
C1591 C1599 1.433 . S
C1592 H1588 0.929 . S
C1592 C1594 1.378 . S
C1592 C1596 1.350 . S
C1593 C1596 1.463 . S
C1593 C1598 1.350 . S
C1593 N1601 1.427 . S
C1594 H1585 0.930 . S
C1594 C1592 1.378 . S
C1594 C1595 1.367 . S
C1595 C1594 1.367 . S
C1595 C1597 1.433 . S
C1596 C1592 1.350 . S
C1596 C1593 1.463 . S
C1596 N1600 1.427 . S
C1597 H1587 0.929 . S
C1597 C1595 1.433 . S
C1597 N1600 1.384 . S
C1598 H1589 0.929 . S
C1598 C1590 1.378 . S
C1598 C1593 1.350 . S
C1599 H1586 0.929 . S
C1599 C1591 1.433 . S
C1599 N1601 1.384 . S
N1600 C1596 1.427 . S
N1600 C1597 1.384 . S
N1601 C1593 1.427 . S
N1601 C1599 1.384 . S
H1602 C1608 0.930 . S
H1603 C1612 0.930 . S
H1604 C1617 0.929 . S
H1605 C1615 0.929 . S
H1606 C1610 0.929 . S
H1607 C1616 0.929 . S
C1608 H1602 0.930 . S
C1608 C1609 1.367 . S
C1608 C1616 1.378 . S
C1609 C1608 1.367 . S
C1609 C1617 1.433 . S
C1610 H1606 0.929 . S
C1610 C1612 1.378 . S
C1610 C1614 1.350 . S
C1611 C1614 1.463 . S
C1611 C1616 1.350 . S
C1611 N1619 1.427 . S
C1612 H1603 0.930 . S
C1612 C1610 1.378 . S
C1612 C1613 1.367 . S
C1613 C1612 1.367 . S
C1613 C1615 1.433 . S
C1614 C1610 1.350 . S
C1614 C1611 1.463 . S
C1614 N1618 1.427 . S
C1615 H1605 0.929 . S
C1615 C1613 1.433 . S
C1615 N1618 1.384 . S
C1616 H1607 0.929 . S
C1616 C1608 1.378 . S
C1616 C1611 1.350 . S
C1617 H1604 0.929 . S
C1617 C1609 1.433 . S
C1617 N1619 1.384 . S
N1618 C1614 1.427 . S
N1618 C1615 1.384 . S
N1619 C1611 1.427 . S
N1619 C1617 1.384 . S
H1620 C1626 0.930 . S
H1621 C1630 0.930 . S
H1622 C1635 0.929 . S
H1623 C1633 0.929 . S
H1624 C1628 0.929 . S
H1625 C1634 0.929 . S
C1626 H1620 0.930 . S
C1626 C1627 1.367 . S
C1626 C1634 1.378 . S
C1627 C1626 1.367 . S
C1627 C1635 1.433 . S
C1628 H1624 0.929 . S
C1628 C1630 1.378 . S
C1628 C1632 1.350 . S
C1629 C1632 1.463 . S
C1629 C1634 1.350 . S
C1629 N1637 1.427 . S
C1630 H1621 0.930 . S
C1630 C1628 1.378 . S
C1630 C1631 1.367 . S
C1631 C1630 1.367 . S
C1631 C1633 1.433 . S
C1632 C1628 1.350 . S
C1632 C1629 1.463 . S
C1632 N1636 1.427 . S
C1633 H1623 0.929 . S
C1633 C1631 1.433 . S
C1633 N1636 1.384 . S
C1634 H1625 0.929 . S
C1634 C1626 1.378 . S
C1634 C1629 1.350 . S
C1635 H1622 0.929 . S
C1635 C1627 1.433 . S
C1635 N1637 1.384 . S
N1636 C1632 1.427 . S
N1636 C1633 1.384 . S
N1637 C1629 1.427 . S
N1637 C1635 1.384 . S
H1638 C1644 0.930 . S
H1639 C1648 0.930 . S
H1640 C1653 0.929 . S
H1641 C1651 0.929 . S
H1642 C1646 0.929 . S
H1643 C1652 0.929 . S
C1644 H1638 0.930 . S
C1644 C1645 1.367 . S
C1644 C1652 1.378 . S
C1645 C1644 1.367 . S
C1645 C1653 1.433 . S
C1646 H1642 0.929 . S
C1646 C1648 1.378 . S
C1646 C1650 1.350 . S
C1647 C1650 1.463 . S
C1647 C1652 1.350 . S
C1647 N1655 1.427 . S
C1648 H1639 0.930 . S
C1648 C1646 1.378 . S
C1648 C1649 1.367 . S
C1649 C1648 1.367 . S
C1649 C1651 1.433 . S
C1650 C1646 1.350 . S
C1650 C1647 1.463 . S
C1650 N1654 1.427 . S
C1651 H1641 0.929 . S
C1651 C1649 1.433 . S
C1651 N1654 1.384 . S
C1652 H1643 0.929 . S
C1652 C1644 1.378 . S
C1652 C1647 1.350 . S
C1653 H1640 0.929 . S
C1653 C1645 1.433 . S
C1653 N1655 1.384 . S
N1654 C1650 1.427 . S
N1654 C1651 1.384 . S
N1655 C1647 1.427 . S
N1655 C1653 1.384 . S
H1656 C1662 0.930 . S
H1657 C1666 0.930 . S
H1658 C1671 0.929 . S
H1659 C1669 0.929 . S
H1660 C1664 0.929 . S
H1661 C1670 0.929 . S
C1662 H1656 0.930 . S
C1662 C1663 1.367 . S
C1662 C1670 1.378 . S
C1663 C1662 1.367 . S
C1663 C1671 1.433 . S
C1664 H1660 0.929 . S
C1664 C1666 1.378 . S
C1664 C1668 1.350 . S
C1665 C1668 1.463 . S
C1665 C1670 1.350 . S
C1665 N1673 1.427 . S
C1666 H1657 0.930 . S
C1666 C1664 1.378 . S
C1666 C1667 1.367 . S
C1667 C1666 1.367 . S
C1667 C1669 1.433 . S
C1668 C1664 1.350 . S
C1668 C1665 1.463 . S
C1668 N1672 1.427 . S
C1669 H1659 0.929 . S
C1669 C1667 1.433 . S
C1669 N1672 1.384 . S
C1670 H1661 0.929 . S
C1670 C1662 1.378 . S
C1670 C1665 1.350 . S
C1671 H1658 0.929 . S
C1671 C1663 1.433 . S
C1671 N1673 1.384 . S
N1672 C1668 1.427 . S
N1672 C1669 1.384 . S
N1673 C1665 1.427 . S
N1673 C1671 1.384 . S
H1674 C1680 0.930 . S
H1675 C1684 0.930 . S
H1676 C1689 0.929 . S
H1677 C1687 0.929 . S
H1678 C1682 0.929 . S
H1679 C1688 0.929 . S
C1680 H1674 0.930 . S
C1680 C1681 1.367 . S
C1680 C1688 1.378 . S
C1681 C1680 1.367 . S
C1681 C1689 1.433 . S
C1682 H1678 0.929 . S
C1682 C1684 1.378 . S
C1682 C1686 1.350 . S
C1683 C1686 1.463 . S
C1683 C1688 1.350 . S
C1683 N1691 1.427 . S
C1684 H1675 0.930 . S
C1684 C1682 1.378 . S
C1684 C1685 1.367 . S
C1685 C1684 1.367 . S
C1685 C1687 1.433 . S
C1686 C1682 1.350 . S
C1686 C1683 1.463 . S
C1686 N1690 1.427 . S
C1687 H1677 0.929 . S
C1687 C1685 1.433 . S
C1687 N1690 1.384 . S
C1688 H1679 0.929 . S
C1688 C1680 1.378 . S
C1688 C1683 1.350 . S
C1689 H1676 0.929 . S
C1689 C1681 1.433 . S
C1689 N1691 1.384 . S
N1690 C1686 1.427 . S
N1690 C1687 1.384 . S
N1691 C1683 1.427 . S
N1691 C1689 1.384 . S
H1692 C1698 0.930 . S
H1693 C1702 0.930 . S
H1694 C1707 0.929 . S
H1695 C1705 0.929 . S
H1696 C1700 0.929 . S
H1697 C1706 0.929 . S
C1698 H1692 0.930 . S
C1698 C1699 1.367 . S
C1698 C1706 1.378 . S
C1699 C1698 1.367 . S
C1699 C1707 1.433 . S
C1700 H1696 0.929 . S
C1700 C1702 1.378 . S
C1700 C1704 1.350 . S
C1701 C1704 1.463 . S
C1701 C1706 1.350 . S
C1701 N1709 1.427 . S
C1702 H1693 0.930 . S
C1702 C1700 1.378 . S
C1702 C1703 1.367 . S
C1703 C1702 1.367 . S
C1703 C1705 1.433 . S
C1704 C1700 1.350 . S
C1704 C1701 1.463 . S
C1704 N1708 1.427 . S
C1705 H1695 0.929 . S
C1705 C1703 1.433 . S
C1705 N1708 1.384 . S
C1706 H1697 0.929 . S
C1706 C1698 1.378 . S
C1706 C1701 1.350 . S
C1707 H1694 0.929 . S
C1707 C1699 1.433 . S
C1707 N1709 1.384 . S
N1708 C1704 1.427 . S
N1708 C1705 1.384 . S
N1709 C1701 1.427 . S
N1709 C1707 1.384 . S
H1710 C1716 0.930 . S
H1711 C1720 0.930 . S
H1712 C1725 0.929 . S
H1713 C1723 0.929 . S
H1714 C1718 0.929 . S
H1715 C1724 0.929 . S
C1716 H1710 0.930 . S
C1716 C1717 1.367 . S
C1716 C1724 1.378 . S
C1717 C1716 1.367 . S
C1717 C1725 1.433 . S
C1718 H1714 0.929 . S
C1718 C1720 1.378 . S
C1718 C1722 1.350 . S
C1719 C1722 1.463 . S
C1719 C1724 1.350 . S
C1719 N1727 1.427 . S
C1720 H1711 0.930 . S
C1720 C1718 1.378 . S
C1720 C1721 1.367 . S
C1721 C1720 1.367 . S
C1721 C1723 1.433 . S
C1722 C1718 1.350 . S
C1722 C1719 1.463 . S
C1722 N1726 1.427 . S
C1723 H1713 0.929 . S
C1723 C1721 1.433 . S
C1723 N1726 1.384 . S
C1724 H1715 0.929 . S
C1724 C1716 1.378 . S
C1724 C1719 1.350 . S
C1725 H1712 0.929 . S
C1725 C1717 1.433 . S
C1725 N1727 1.384 . S
N1726 C1722 1.427 . S
N1726 C1723 1.384 . S
N1727 C1719 1.427 . S
N1727 C1725 1.384 . S
H1728 C1734 0.930 . S
H1729 C1738 0.930 . S
H1730 C1743 0.929 . S
H1731 C1741 0.929 . S
H1732 C1736 0.929 . S
H1733 C1742 0.929 . S
C1734 H1728 0.930 . S
C1734 C1735 1.367 . S
C1734 C1742 1.378 . S
C1735 C1734 1.367 . S
C1735 C1743 1.433 . S
C1736 H1732 0.929 . S
C1736 C1738 1.378 . S
C1736 C1740 1.350 . S
C1737 C1740 1.463 . S
C1737 C1742 1.350 . S
C1737 N1745 1.427 . S
C1738 H1729 0.930 . S
C1738 C1736 1.378 . S
C1738 C1739 1.367 . S
C1739 C1738 1.367 . S
C1739 C1741 1.433 . S
C1740 C1736 1.350 . S
C1740 C1737 1.463 . S
C1740 N1744 1.427 . S
C1741 H1731 0.929 . S
C1741 C1739 1.433 . S
C1741 N1744 1.384 . S
C1742 H1733 0.929 . S
C1742 C1734 1.378 . S
C1742 C1737 1.350 . S
C1743 H1730 0.929 . S
C1743 C1735 1.433 . S
C1743 N1745 1.384 . S
N1744 C1740 1.427 . S
N1744 C1741 1.384 . S
N1745 C1737 1.427 . S
N1745 C1743 1.384 . S
H1746 C1752 0.930 . S
H1747 C1756 0.930 . S
H1748 C1761 0.929 . S
H1749 C1759 0.929 . S
H1750 C1754 0.929 . S
H1751 C1760 0.929 . S
C1752 H1746 0.930 . S
C1752 C1753 1.367 . S
C1752 C1760 1.378 . S
C1753 C1752 1.367 . S
C1753 C1761 1.433 . S
C1754 H1750 0.929 . S
C1754 C1756 1.378 . S
C1754 C1758 1.350 . S
C1755 C1758 1.463 . S
C1755 C1760 1.350 . S
C1755 N1763 1.427 . S
C1756 H1747 0.930 . S
C1756 C1754 1.378 . S
C1756 C1757 1.367 . S
C1757 C1756 1.367 . S
C1757 C1759 1.433 . S
C1758 C1754 1.350 . S
C1758 C1755 1.463 . S
C1758 N1762 1.427 . S
C1759 H1749 0.929 . S
C1759 C1757 1.433 . S
C1759 N1762 1.384 . S
C1760 H1751 0.929 . S
C1760 C1752 1.378 . S
C1760 C1755 1.350 . S
C1761 H1748 0.929 . S
C1761 C1753 1.433 . S
C1761 N1763 1.384 . S
N1762 C1758 1.427 . S
N1762 C1759 1.384 . S
N1763 C1755 1.427 . S
N1763 C1761 1.384 . S
H1764 C1770 0.930 . S
H1765 C1774 0.930 . S
H1766 C1779 0.929 . S
H1767 C1777 0.929 . S
H1768 C1772 0.929 . S
H1769 C1778 0.929 . S
C1770 H1764 0.930 . S
C1770 C1771 1.367 . S
C1770 C1778 1.378 . S
C1771 C1770 1.367 . S
C1771 C1779 1.433 . S
C1772 H1768 0.929 . S
C1772 C1774 1.378 . S
C1772 C1776 1.350 . S
C1773 C1776 1.463 . S
C1773 C1778 1.350 . S
C1773 N1781 1.427 . S
C1774 H1765 0.930 . S
C1774 C1772 1.378 . S
C1774 C1775 1.367 . S
C1775 C1774 1.367 . S
C1775 C1777 1.433 . S
C1776 C1772 1.350 . S
C1776 C1773 1.463 . S
C1776 N1780 1.427 . S
C1777 H1767 0.929 . S
C1777 C1775 1.433 . S
C1777 N1780 1.384 . S
C1778 H1769 0.929 . S
C1778 C1770 1.378 . S
C1778 C1773 1.350 . S
C1779 H1766 0.929 . S
C1779 C1771 1.433 . S
C1779 N1781 1.384 . S
N1780 C1776 1.427 . S
N1780 C1777 1.384 . S
N1781 C1773 1.427 . S
N1781 C1779 1.384 . S
H1782 C1788 0.930 . S
H1783 C1792 0.930 . S
H1784 C1797 0.929 . S
H1785 C1795 0.929 . S
H1786 C1790 0.929 . S
H1787 C1796 0.929 . S
C1788 H1782 0.930 . S
C1788 C1789 1.367 . S
C1788 C1796 1.378 . S
C1789 C1788 1.367 . S
C1789 C1797 1.433 . S
C1790 H1786 0.929 . S
C1790 C1792 1.378 . S
C1790 C1794 1.350 . S
C1791 C1794 1.463 . S
C1791 C1796 1.350 . S
C1791 N1799 1.427 . S
C1792 H1783 0.930 . S
C1792 C1790 1.378 . S
C1792 C1793 1.367 . S
C1793 C1792 1.367 . S
C1793 C1795 1.433 . S
C1794 C1790 1.350 . S
C1794 C1791 1.463 . S
C1794 N1798 1.427 . S
C1795 H1785 0.929 . S
C1795 C1793 1.433 . S
C1795 N1798 1.384 . S
C1796 H1787 0.929 . S
C1796 C1788 1.378 . S
C1796 C1791 1.350 . S
C1797 H1784 0.929 . S
C1797 C1789 1.433 . S
C1797 N1799 1.384 . S
N1798 C1794 1.427 . S
N1798 C1795 1.384 . S
N1799 C1791 1.427 . S
N1799 C1797 1.384 . S
H1800 C1806 0.930 . S
H1801 C1810 0.930 . S
H1802 C1815 0.929 . S
H1803 C1813 0.929 . S
H1804 C1808 0.929 . S
H1805 C1814 0.929 . S
C1806 H1800 0.930 . S
C1806 C1807 1.367 . S
C1806 C1814 1.378 . S
C1807 C1806 1.367 . S
C1807 C1815 1.433 . S
C1808 H1804 0.929 . S
C1808 C1810 1.378 . S
C1808 C1812 1.350 . S
C1809 C1812 1.463 . S
C1809 C1814 1.350 . S
C1809 N1817 1.427 . S
C1810 H1801 0.930 . S
C1810 C1808 1.378 . S
C1810 C1811 1.367 . S
C1811 C1810 1.367 . S
C1811 C1813 1.433 . S
C1812 C1808 1.350 . S
C1812 C1809 1.463 . S
C1812 N1816 1.427 . S
C1813 H1803 0.929 . S
C1813 C1811 1.433 . S
C1813 N1816 1.384 . S
C1814 H1805 0.929 . S
C1814 C1806 1.378 . S
C1814 C1809 1.350 . S
C1815 H1802 0.929 . S
C1815 C1807 1.433 . S
C1815 N1817 1.384 . S
N1816 C1812 1.427 . S
N1816 C1813 1.384 . S
N1817 C1809 1.427 . S
N1817 C1815 1.384 . S
H1818 C1824 0.930 . S
H1819 C1828 0.930 . S
H1820 C1833 0.929 . S
H1821 C1831 0.929 . S
H1822 C1826 0.929 . S
H1823 C1832 0.929 . S
C1824 H1818 0.930 . S
C1824 C1825 1.367 . S
C1824 C1832 1.378 . S
C1825 C1824 1.367 . S
C1825 C1833 1.433 . S
C1826 H1822 0.929 . S
C1826 C1828 1.378 . S
C1826 C1830 1.350 . S
C1827 C1830 1.463 . S
C1827 C1832 1.350 . S
C1827 N1835 1.427 . S
C1828 H1819 0.930 . S
C1828 C1826 1.378 . S
C1828 C1829 1.367 . S
C1829 C1828 1.367 . S
C1829 C1831 1.433 . S
C1830 C1826 1.350 . S
C1830 C1827 1.463 . S
C1830 N1834 1.427 . S
C1831 H1821 0.929 . S
C1831 C1829 1.433 . S
C1831 N1834 1.384 . S
C1832 H1823 0.929 . S
C1832 C1824 1.378 . S
C1832 C1827 1.350 . S
C1833 H1820 0.929 . S
C1833 C1825 1.433 . S
C1833 N1835 1.384 . S
N1834 C1830 1.427 . S
N1834 C1831 1.384 . S
N1835 C1827 1.427 . S
N1835 C1833 1.384 . S
H1836 C1842 0.930 . S
H1837 C1846 0.930 . S
H1838 C1851 0.929 . S
H1839 C1849 0.929 . S
H1840 C1844 0.929 . S
H1841 C1850 0.929 . S
C1842 H1836 0.930 . S
C1842 C1843 1.367 . S
C1842 C1850 1.378 . S
C1843 C1842 1.367 . S
C1843 C1851 1.433 . S
C1844 H1840 0.929 . S
C1844 C1846 1.378 . S
C1844 C1848 1.350 . S
C1845 C1848 1.463 . S
C1845 C1850 1.350 . S
C1845 N1853 1.427 . S
C1846 H1837 0.930 . S
C1846 C1844 1.378 . S
C1846 C1847 1.367 . S
C1847 C1846 1.367 . S
C1847 C1849 1.433 . S
C1848 C1844 1.350 . S
C1848 C1845 1.463 . S
C1848 N1852 1.427 . S
C1849 H1839 0.929 . S
C1849 C1847 1.433 . S
C1849 N1852 1.384 . S
C1850 H1841 0.929 . S
C1850 C1842 1.378 . S
C1850 C1845 1.350 . S
C1851 H1838 0.929 . S
C1851 C1843 1.433 . S
C1851 N1853 1.384 . S
N1852 C1848 1.427 . S
N1852 C1849 1.384 . S
N1853 C1845 1.427 . S
N1853 C1851 1.384 . S
H1854 C1860 0.930 . S
H1855 C1864 0.930 . S
H1856 C1869 0.929 . S
H1857 C1867 0.929 . S
H1858 C1862 0.929 . S
H1859 C1868 0.929 . S
C1860 H1854 0.930 . S
C1860 C1861 1.367 . S
C1860 C1868 1.378 . S
C1861 C1860 1.367 . S
C1861 C1869 1.433 . S
C1862 H1858 0.929 . S
C1862 C1864 1.378 . S
C1862 C1866 1.350 . S
C1863 C1866 1.463 . S
C1863 C1868 1.350 . S
C1863 N1871 1.427 . S
C1864 H1855 0.930 . S
C1864 C1862 1.378 . S
C1864 C1865 1.367 . S
C1865 C1864 1.367 . S
C1865 C1867 1.433 . S
C1866 C1862 1.350 . S
C1866 C1863 1.463 . S
C1866 N1870 1.427 . S
C1867 H1857 0.929 . S
C1867 C1865 1.433 . S
C1867 N1870 1.384 . S
C1868 H1859 0.929 . S
C1868 C1860 1.378 . S
C1868 C1863 1.350 . S
C1869 H1856 0.929 . S
C1869 C1861 1.433 . S
C1869 N1871 1.384 . S
N1870 C1866 1.427 . S
N1870 C1867 1.384 . S
N1871 C1863 1.427 . S
N1871 C1869 1.384 . S
H1872 C1878 0.930 . S
H1873 C1882 0.930 . S
H1874 C1887 0.929 . S
H1875 C1885 0.929 . S
H1876 C1880 0.929 . S
H1877 C1886 0.929 . S
C1878 H1872 0.930 . S
C1878 C1879 1.367 . S
C1878 C1886 1.378 . S
C1879 C1878 1.367 . S
C1879 C1887 1.433 . S
C1880 H1876 0.929 . S
C1880 C1882 1.378 . S
C1880 C1884 1.350 . S
C1881 C1884 1.463 . S
C1881 C1886 1.350 . S
C1881 N1889 1.427 . S
C1882 H1873 0.930 . S
C1882 C1880 1.378 . S
C1882 C1883 1.367 . S
C1883 C1882 1.367 . S
C1883 C1885 1.433 . S
C1884 C1880 1.350 . S
C1884 C1881 1.463 . S
C1884 N1888 1.427 . S
C1885 H1875 0.929 . S
C1885 C1883 1.433 . S
C1885 N1888 1.384 . S
C1886 H1877 0.929 . S
C1886 C1878 1.378 . S
C1886 C1881 1.350 . S
C1887 H1874 0.929 . S
C1887 C1879 1.433 . S
C1887 N1889 1.384 . S
N1888 C1884 1.427 . S
N1888 C1885 1.384 . S
N1889 C1881 1.427 . S
N1889 C1887 1.384 . S
H1890 C1896 0.930 . S
H1891 C1900 0.930 . S
H1892 C1905 0.929 . S
H1893 C1903 0.929 . S
H1894 C1898 0.929 . S
H1895 C1904 0.929 . S
C1896 H1890 0.930 . S
C1896 C1897 1.367 . S
C1896 C1904 1.378 . S
C1897 C1896 1.367 . S
C1897 C1905 1.433 . S
C1898 H1894 0.929 . S
C1898 C1900 1.378 . S
C1898 C1902 1.350 . S
C1899 C1902 1.463 . S
C1899 C1904 1.350 . S
C1899 N1907 1.427 . S
C1900 H1891 0.930 . S
C1900 C1898 1.378 . S
C1900 C1901 1.367 . S
C1901 C1900 1.367 . S
C1901 C1903 1.433 . S
C1902 C1898 1.350 . S
C1902 C1899 1.463 . S
C1902 N1906 1.427 . S
C1903 H1893 0.929 . S
C1903 C1901 1.433 . S
C1903 N1906 1.384 . S
C1904 H1895 0.929 . S
C1904 C1896 1.378 . S
C1904 C1899 1.350 . S
C1905 H1892 0.929 . S
C1905 C1897 1.433 . S
C1905 N1907 1.384 . S
N1906 C1902 1.427 . S
N1906 C1903 1.384 . S
N1907 C1899 1.427 . S
N1907 C1905 1.384 . S
H1908 C1914 0.930 . S
H1909 C1918 0.930 . S
H1910 C1923 0.929 . S
H1911 C1921 0.929 . S
H1912 C1916 0.929 . S
H1913 C1922 0.929 . S
C1914 H1908 0.930 . S
C1914 C1915 1.367 . S
C1914 C1922 1.378 . S
C1915 C1914 1.367 . S
C1915 C1923 1.433 . S
C1916 H1912 0.929 . S
C1916 C1918 1.378 . S
C1916 C1920 1.350 . S
C1917 C1920 1.463 . S
C1917 C1922 1.350 . S
C1917 N1925 1.427 . S
C1918 H1909 0.930 . S
C1918 C1916 1.378 . S
C1918 C1919 1.367 . S
C1919 C1918 1.367 . S
C1919 C1921 1.433 . S
C1920 C1916 1.350 . S
C1920 C1917 1.463 . S
C1920 N1924 1.427 . S
C1921 H1911 0.929 . S
C1921 C1919 1.433 . S
C1921 N1924 1.384 . S
C1922 H1913 0.929 . S
C1922 C1914 1.378 . S
C1922 C1917 1.350 . S
C1923 H1910 0.929 . S
C1923 C1915 1.433 . S
C1923 N1925 1.384 . S
N1924 C1920 1.427 . S
N1924 C1921 1.384 . S
N1925 C1917 1.427 . S
N1925 C1923 1.384 . S
H1926 C1932 0.930 . S
H1927 C1936 0.930 . S
H1928 C1941 0.929 . S
H1929 C1939 0.929 . S
H1930 C1934 0.929 . S
H1931 C1940 0.929 . S
C1932 H1926 0.930 . S
C1932 C1933 1.367 . S
C1932 C1940 1.378 . S
C1933 C1932 1.367 . S
C1933 C1941 1.433 . S
C1934 H1930 0.929 . S
C1934 C1936 1.378 . S
C1934 C1938 1.350 . S
C1935 C1938 1.463 . S
C1935 C1940 1.350 . S
C1935 N1943 1.427 . S
C1936 H1927 0.930 . S
C1936 C1934 1.378 . S
C1936 C1937 1.367 . S
C1937 C1936 1.367 . S
C1937 C1939 1.433 . S
C1938 C1934 1.350 . S
C1938 C1935 1.463 . S
C1938 N1942 1.427 . S
C1939 H1929 0.929 . S
C1939 C1937 1.433 . S
C1939 N1942 1.384 . S
C1940 H1931 0.929 . S
C1940 C1932 1.378 . S
C1940 C1935 1.350 . S
C1941 H1928 0.929 . S
C1941 C1933 1.433 . S
C1941 N1943 1.384 . S
N1942 C1938 1.427 . S
N1942 C1939 1.384 . S
N1943 C1935 1.427 . S
N1943 C1941 1.384 . S
H1944 C1950 0.930 . S
H1945 C1954 0.930 . S
H1946 C1959 0.929 . S
H1947 C1957 0.929 . S
H1948 C1952 0.929 . S
H1949 C1958 0.929 . S
C1950 H1944 0.930 . S
C1950 C1951 1.367 . S
C1950 C1958 1.378 . S
C1951 C1950 1.367 . S
C1951 C1959 1.433 . S
C1952 H1948 0.929 . S
C1952 C1954 1.378 . S
C1952 C1956 1.350 . S
C1953 C1956 1.463 . S
C1953 C1958 1.350 . S
C1953 N1961 1.427 . S
C1954 H1945 0.930 . S
C1954 C1952 1.378 . S
C1954 C1955 1.367 . S
C1955 C1954 1.367 . S
C1955 C1957 1.433 . S
C1956 C1952 1.350 . S
C1956 C1953 1.463 . S
C1956 N1960 1.427 . S
C1957 H1947 0.929 . S
C1957 C1955 1.433 . S
C1957 N1960 1.384 . S
C1958 H1949 0.929 . S
C1958 C1950 1.378 . S
C1958 C1953 1.350 . S
C1959 H1946 0.929 . S
C1959 C1951 1.433 . S
C1959 N1961 1.384 . S
N1960 C1956 1.427 . S
N1960 C1957 1.384 . S
N1961 C1953 1.427 . S
N1961 C1959 1.384 . S
C997 N170 1.981 . S
C1001 C301 1.913 . S
C1015 N184 0.966 . S
C1019 C385 0.928 . S
C1033 N158 1.558 . S
C1037 C465 1.533 . S
C1051 N145 1.532 . S
C1055 C381 1.505 1_556 S
C1073 C469 0.878 . S
C1069 N119 0.912 . S
C1087 N131 1.936 . S
C1091 C297 1.896 . S
C1109 C290 1.579 . S
C1105 N144 1.646 . S
C1127 C374 1.345 . S
C1123 N118 1.362 . S
C1141 N132 1.438 . S
C1145 C476 1.434 . S
C1159 N171 1.421 . S
C1163 C392 1.416 . S
C1177 N183 1.323 . S
C1181 C458 1.300 . S
C1199 C308 1.572 . S
C1195 N157 1.602 . S
C1217 C553 1.901 . S
C1213 N14 1.977 . S
C1231 N28 0.957 . S
C1235 C637 0.952 . S
C1249 N2 1.558 . S
C1253 C717 1.527 . S
C1267 N223 1.536 . S
C1271 C633 1.513 . S
C1285 N197 0.915 . S
C1289 C721 0.893 . S
C1303 N209 1.935 . S
C1307 C549 1.899 . S
C1321 N222 1.647 . S
C1325 C542 1.588 . S
C1339 N196 1.371 . S
C1343 C626 1.349 . S
C1361 C728 1.430 . S
C1357 N210 1.435 . S
C1375 N15 1.420 . S
C1379 C644 1.411 . S
C1397 C710 1.304 . S
C1393 N27 1.323 . S
C1411 N1 1.603 . S
C1415 C560 1.571 . S
C1433 C805 1.915 . S
C1429 N92 1.984 . S
C1447 N106 0.967 . S
C1451 C889 0.932 . S
C1469 C969 1.528 . S
C1465 N80 1.558 . S
C1487 C885 1.506 . S
C1483 N67 1.532 . S
C1505 C973 0.902 . S
C1501 N41 0.910 . S
C1519 N53 1.933 . S
C1523 C801 1.896 . S
C1537 N66 1.646 . S
C1541 C794 1.586 . S
C1555 N40 1.364 . S
C1559 C878 1.352 . S
C1577 C980 1.434 . S
C1573 N54 1.439 . S
C1591 N93 1.420 . S
C1595 C896 1.415 . S
C1609 N105 1.321 . S
C1613 C962 1.295 . S
C1627 N79 1.600 . S
C1631 C812 1.561 . S
C1645 N200 1.254 . S
C1649 C304 1.126 . S
C1667 C388 1.611 . S
C1663 N213 1.786 . S
C1681 N226 1.504 . S
C1685 C460 1.389 . S
C1699 N83 1.530 . S
C1703 C376 1.401 . S
C1717 N96 1.763 . S
C1721 C472 1.590 . S
C1739 C292 1.189 . S
C1735 N109 1.268 . S
C1753 N44 1.248 . S
C1757 C556 1.152 . S
C1771 N57 1.779 . S
C1775 C640 1.590 . S
C1789 N70 1.504 . S
C1793 C712 1.384 . S
C1807 N161 1.535 . S
C1811 C628 1.415 . S
C1829 C724 1.591 . S
C1825 N174 1.758 . S
C1843 N187 1.273 . S
C1847 C544 1.163 . S
C1861 N122 1.249 . S
C1865 C808 1.149 . S
C1879 N135 1.785 . S
C1883 C892 1.612 . S
C1901 C964 1.378 . S
C1897 N148 1.499 . S
C1915 N5 1.531 . S
C1919 C880 1.393 . S
C1933 N18 1.760 . S
C1937 C976 1.581 . S
C1951 N31 1.272 . S
C1955 C796 1.163 . S
