# Generated by pormake.
# Topology pyr, (3,6)-cn, num edge types: 1
# Building blocks:
#     Node 0, Type 0, BuildingBlock: KAKCAD_clean_linker_0, # of connection points: 3
#     Node 1, Type 0, BuildingBlock: KAKCAD_clean_linker_0, # of connection points: 3
#     Node 2, Type 0, BuildingBlock: KAKCAD_clean_linker_0, # of connection points: 3
#     Node 3, Type 0, BuildingBlock: KAKCAD_clean_linker_0, # of connection points: 3
#     Node 4, Type 0, BuildingBlock: KAKCAD_clean_linker_0, # of connection points: 3
#     Node 5, Type 0, BuildingBlock: KAKCAD_clean_linker_0, # of connection points: 3
#     Node 6, Type 0, BuildingBlock: KAKCAD_clean_linker_0, # of connection points: 3
#     Node 7, Type 0, BuildingBlock: KAKCAD_clean_linker_0, # of connection points: 3
#     Node 8, Type 1, BuildingBlock: INOVEN_clean_sbu_0, # of connection points: 6
#     Node 9, Type 1, BuildingBlock: INOVEN_clean_sbu_0, # of connection points: 6
#     Node 10, Type 1, BuildingBlock: INOVEN_clean_sbu_0, # of connection points: 6
#     Node 11, Type 1, BuildingBlock: INOVEN_clean_sbu_0, # of connection points: 6
#     Edge 12, Type (0, 1), BuildingBlock: OJICUG_clean_linker_0, # of connection points: 2
#     Edge 13, Type (0, 1), BuildingBlock: OJICUG_clean_linker_0, # of connection points: 2
#     Edge 14, Type (0, 1), BuildingBlock: OJICUG_clean_linker_0, # of connection points: 2
#     Edge 15, Type (0, 1), BuildingBlock: OJICUG_clean_linker_0, # of connection points: 2
#     Edge 16, Type (0, 1), BuildingBlock: OJICUG_clean_linker_0, # of connection points: 2
#     Edge 17, Type (0, 1), BuildingBlock: OJICUG_clean_linker_0, # of connection points: 2
#     Edge 18, Type (0, 1), BuildingBlock: OJICUG_clean_linker_0, # of connection points: 2
#     Edge 19, Type (0, 1), BuildingBlock: OJICUG_clean_linker_0, # of connection points: 2
#     Edge 20, Type (0, 1), BuildingBlock: OJICUG_clean_linker_0, # of connection points: 2
#     Edge 21, Type (0, 1), BuildingBlock: OJICUG_clean_linker_0, # of connection points: 2
#     Edge 22, Type (0, 1), BuildingBlock: OJICUG_clean_linker_0, # of connection points: 2
#     Edge 23, Type (0, 1), BuildingBlock: OJICUG_clean_linker_0, # of connection points: 2
#     Edge 24, Type (0, 1), BuildingBlock: OJICUG_clean_linker_0, # of connection points: 2
#     Edge 25, Type (0, 1), BuildingBlock: OJICUG_clean_linker_0, # of connection points: 2
#     Edge 26, Type (0, 1), BuildingBlock: OJICUG_clean_linker_0, # of connection points: 2
#     Edge 27, Type (0, 1), BuildingBlock: OJICUG_clean_linker_0, # of connection points: 2
#     Edge 28, Type (0, 1), BuildingBlock: OJICUG_clean_linker_0, # of connection points: 2
#     Edge 29, Type (0, 1), BuildingBlock: OJICUG_clean_linker_0, # of connection points: 2
#     Edge 30, Type (0, 1), BuildingBlock: OJICUG_clean_linker_0, # of connection points: 2
#     Edge 31, Type (0, 1), BuildingBlock: OJICUG_clean_linker_0, # of connection points: 2
#     Edge 32, Type (0, 1), BuildingBlock: OJICUG_clean_linker_0, # of connection points: 2
#     Edge 33, Type (0, 1), BuildingBlock: OJICUG_clean_linker_0, # of connection points: 2
#     Edge 34, Type (0, 1), BuildingBlock: OJICUG_clean_linker_0, # of connection points: 2
#     Edge 35, Type (0, 1), BuildingBlock: OJICUG_clean_linker_0, # of connection points: 2
# Relax obj value: 0.128
# Max RMSD: 0.139
# Mean RMSD: 0.064
data_MOF--net-pyr--node1-INOVEN_clean_sbu_0--node2-KAKCAD_clean_linker_0--edge1-OJICUG_clean_linker_0
_symmetry_space_group_name_H-M    P1
_symmetry_Int_Tables_number       1
_symmetry_cell_setting            triclinic
loop_
_symmetry_equiv_pos_as_xyz
'x, y, z'
_cell_length_a     36.956402
_cell_length_b     38.578998
_cell_length_c     33.767821
_cell_angle_alpha  90.279781
_cell_angle_beta   87.600994
_cell_angle_gamma 102.34103
loop_
_atom_site_label
_atom_site_type_symbol
_atom_site_fract_x
_atom_site_fract_y
_atom_site_fract_z
_atom_type_partial_charge
C0 C 0.29236 0.27608 0.40562 0.0
C1 C 0.31336 0.25545 0.42474 0.0
C2 C 0.30695 0.29602 0.37222 0.0
C3 C 0.34335 0.29652 0.35754 0.0
C4 C 0.3659 0.27963 0.38011 0.0
C5 C 0.35082 0.25871 0.413 0.0
C6 C 0.35458 0.30854 0.3159 0.0
C7 C 0.33751 0.33309 0.29756 0.0
C8 C 0.33727 0.33543 0.25611 0.0
C9 C 0.3589 0.31669 0.23271 0.0
C10 C 0.37881 0.2941 0.25061 0.0
C11 C 0.37611 0.29 0.29204 0.0
C12 C 0.39777 0.2703 0.22659 0.0
C13 C 0.3802 0.25128 0.19461 0.0
C14 C 0.43151 0.26322 0.23848 0.0
C15 C 0.44632 0.23644 0.22024 0.0
C16 C 0.42773 0.21614 0.18963 0.0
C17 C 0.30893 0.35181 0.23811 0.0
C18 C 0.27225 0.34325 0.25373 0.0
C19 C 0.31727 0.37442 0.20499 0.0
C20 C 0.28942 0.38867 0.18834 0.0
C21 C 0.25272 0.38023 0.20432 0.0
C22 C 0.24458 0.35715 0.23706 0.0
C23 C 0.39504 0.22454 0.17632 0.0
H24 H 0.26326 0.27382 0.41377 0.0
H25 H 0.2881 0.30802 0.35607 0.0
H26 H 0.39445 0.28039 0.37082 0.0
H27 H 0.36766 0.24325 0.4276 0.0
H28 H 0.32149 0.34835 0.31532 0.0
H29 H 0.38812 0.26972 0.30511 0.0
H30 H 0.35851 0.31808 0.2007 0.0
H31 H 0.354 0.25578 0.18495 0.0
H32 H 0.44582 0.27761 0.26289 0.0
H33 H 0.47147 0.23066 0.23131 0.0
H34 H 0.26466 0.32503 0.2785 0.0
H35 H 0.34528 0.38128 0.19225 0.0
H36 H 0.38041 0.20987 0.15228 0.0
H37 H 0.21654 0.34911 0.24946 0.0
H38 H 0.29669 0.40647 0.1632 0.0
C39 C 0.20519 0.83016 0.87032 0.0
C40 C 0.24282 0.82826 0.8692 0.0
C41 C 0.18224 0.81524 0.84002 0.0
C42 C 0.1965 0.79841 0.80775 0.0
C43 C 0.23362 0.79483 0.80794 0.0
C44 C 0.25632 0.80923 0.83844 0.0
C45 C 0.17439 0.78785 0.7721 0.0
C46 C 0.15218 0.80985 0.75752 0.0
C47 C 0.13649 0.80383 0.72014 0.0
C48 C 0.14413 0.7756 0.69682 0.0
C49 C 0.16601 0.75326 0.71128 0.0
C50 C 0.17968 0.75871 0.7494 0.0
C51 C 0.18131 0.72871 0.68502 0.0
C52 C 0.17942 0.69367 0.69732 0.0
C53 C 0.20585 0.74278 0.65342 0.0
C54 C 0.23122 0.72369 0.63764 0.0
C55 C 0.23218 0.69007 0.65303 0.0
C56 C 0.11567 0.82952 0.70437 0.0
C57 C 0.0931 0.84568 0.72999 0.0
C58 C 0.12049 0.84029 0.66438 0.0
C59 C 0.10433 0.86737 0.6508 0.0
C60 C 0.08343 0.88442 0.67697 0.0
C61 C 0.07747 0.87316 0.71649 0.0
C62 C 0.20439 0.67437 0.68118 0.0
H63 H 0.19386 0.84475 0.89348 0.0
H64 H 0.15366 0.818 0.84118 0.0
H65 H 0.24595 0.78255 0.78348 0.0
H66 H 0.28495 0.80662 0.83705 0.0
H67 H 0.14934 0.83334 0.774 0.0
H68 H 0.19705 0.74169 0.76008 0.0
H69 H 0.13389 0.77135 0.66721 0.0
H70 H 0.16068 0.68232 0.72168 0.0
H71 H 0.20809 0.76994 0.64378 0.0
H72 H 0.25216 0.7367 0.61607 0.0
H73 H 0.08819 0.83765 0.76077 0.0
H74 H 0.13808 0.82901 0.64388 0.0
H75 H 0.20366 0.64813 0.69287 0.0
H76 H 0.0613 0.88605 0.73702 0.0
H77 H 0.10936 0.876 0.6202 0.0
C78 C 0.77018 0.46316 0.94306 0.0
C79 C 0.79737 0.44399 0.95215 0.0
C80 C 0.73733 0.44663 0.92481 0.0
C81 C 0.73027 0.41026 0.91526 0.0
C82 C 0.7575 0.39117 0.92401 0.0
C83 C 0.79043 0.40771 0.9419 0.0
C84 C 0.69444 0.39202 0.89726 0.0
C85 C 0.67851 0.40849 0.86713 0.0
C86 C 0.64484 0.39162 0.85009 0.0
C87 C 0.62681 0.35752 0.86473 0.0
C88 C 0.64214 0.34033 0.89492 0.0
C89 C 0.67601 0.3579 0.91048 0.0
C90 C 0.62289 0.30438 0.9113 0.0
C91 C 0.58517 0.29724 0.92349 0.0
C92 C 0.64267 0.27745 0.91706 0.0
C93 C 0.62535 0.24454 0.93436 0.0
C94 C 0.58762 0.23738 0.94734 0.0
C95 C 0.62909 0.40967 0.81688 0.0
C96 C 0.63176 0.44674 0.81662 0.0
C97 C 0.61211 0.39036 0.78451 0.0
C98 C 0.59883 0.40747 0.75298 0.0
C99 C 0.60167 0.44459 0.75266 0.0
C100 C 0.61827 0.4638 0.78528 0.0
C101 C 0.56799 0.26463 0.94153 0.0
H102 H 0.77379 0.49091 0.95077 0.0
H103 H 0.71698 0.46224 0.91905 0.0
H104 H 0.75357 0.36331 0.91659 0.0
H105 H 0.81068 0.39192 0.94723 0.0
H106 H 0.69309 0.43421 0.85606 0.0
H107 H 0.6875 0.34531 0.93413 0.0
H108 H 0.60077 0.34428 0.85268 0.0
H109 H 0.5691 0.3174 0.92025 0.0
H110 H 0.67173 0.28176 0.9079 0.0
H111 H 0.64176 0.22466 0.93714 0.0
H112 H 0.64416 0.4628 0.84091 0.0
H113 H 0.60964 0.36191 0.78306 0.0
H114 H 0.53933 0.26137 0.95168 0.0
H115 H 0.62149 0.49233 0.78644 0.0
H116 H 0.58595 0.39139 0.72894 0.0
C117 C 0.87696 0.62682 0.25193 0.0
C118 C 0.91525 0.63396 0.24229 0.0
C119 C 0.86221 0.64484 0.28291 0.0
C120 C 0.88525 0.67019 0.30636 0.0
C121 C 0.92368 0.67764 0.29616 0.0
C122 C 0.93833 0.6601 0.26448 0.0
C123 C 0.86931 0.68785 0.34152 0.0
C124 C 0.83636 0.67016 0.36233 0.0
C125 C 0.82126 0.6857 0.39526 0.0
C126 C 0.83958 0.71952 0.40773 0.0
C127 C 0.87207 0.73845 0.38776 0.0
C128 C 0.88675 0.72222 0.3548 0.0
C129 C 0.88989 0.77521 0.4018 0.0
C130 C 0.86776 0.79872 0.41559 0.0
C131 C 0.92869 0.78673 0.4035 0.0
C132 C 0.9446 0.82002 0.41984 0.0
C133 C 0.92222 0.84284 0.43503 0.0
C134 C 0.78615 0.66698 0.41696 0.0
C135 C 0.75387 0.65287 0.39657 0.0
C136 C 0.78415 0.66465 0.45859 0.0
C137 C 0.75085 0.64919 0.47927 0.0
C138 C 0.71796 0.63609 0.45916 0.0
C139 C 0.72028 0.63795 0.41729 0.0
C140 C 0.88357 0.83177 0.43191 0.0
H141 H 0.85819 0.60722 0.23528 0.0
H142 H 0.83246 0.63872 0.28823 0.0
H143 H 0.94287 0.69638 0.31326 0.0
H144 H 0.968 0.66613 0.25822 0.0
H145 H 0.82272 0.64365 0.35388 0.0
H146 H 0.91119 0.73693 0.33889 0.0
H147 H 0.82818 0.73125 0.43328 0.0
H148 H 0.83789 0.79155 0.41395 0.0
H149 H 0.94678 0.76951 0.39345 0.0
H150 H 0.97443 0.82732 0.42175 0.0
H151 H 0.75426 0.65447 0.36454 0.0
H152 H 0.80854 0.6748 0.4753 0.0
H153 H 0.86527 0.84872 0.44217 0.0
H154 H 0.69592 0.62883 0.40028 0.0
H155 H 0.75116 0.64755 0.51121 0.0
C156 C 0.71547 0.79241 0.72795 0.0
C157 C 0.71771 0.82815 0.71796 0.0
C158 C 0.69447 0.77753 0.76158 0.0
C159 C 0.67612 0.79841 0.78634 0.0
C160 C 0.67612 0.83329 0.77409 0.0
C161 C 0.6963 0.84776 0.74025 0.0
C162 C 0.66247 0.78682 0.82748 0.0
C163 C 0.68187 0.76688 0.85007 0.0
C164 C 0.67624 0.7641 0.89153 0.0
C165 C 0.65161 0.78272 0.91065 0.0
C166 C 0.63194 0.80266 0.88834 0.0
C167 C 0.63533 0.80196 0.84684 0.0
C168 C 0.61386 0.82977 0.90733 0.0
C169 C 0.5898 0.82223 0.94098 0.0
C170 C 0.62214 0.86449 0.89186 0.0
C171 C 0.60683 0.89105 0.90937 0.0
C172 C 0.58291 0.88377 0.94302 0.0
C173 C 0.70042 0.7459 0.91432 0.0
C174 C 0.70832 0.71378 0.90049 0.0
C175 C 0.71914 0.76237 0.94709 0.0
C176 C 0.74671 0.74812 0.96407 0.0
C177 C 0.75619 0.71712 0.94863 0.0
C178 C 0.73589 0.6996 0.91736 0.0
C179 C 0.57417 0.84901 0.95852 0.0
H180 H 0.73149 0.7766 0.71099 0.0
H181 H 0.69439 0.75031 0.76931 0.0
H182 H 0.66329 0.85088 0.79221 0.0
H183 H 0.69784 0.87553 0.73381 0.0
H184 H 0.70386 0.756 0.83605 0.0
H185 H 0.61919 0.81649 0.82985 0.0
H186 H 0.64929 0.78325 0.94273 0.0
H187 H 0.58309 0.79575 0.95358 0.0
H188 H 0.64117 0.87144 0.86645 0.0
H189 H 0.61386 0.91745 0.89656 0.0
H190 H 0.69415 0.7003 0.87549 0.0
H191 H 0.71395 0.78728 0.9583 0.0
H192 H 0.55598 0.84278 0.98468 0.0
H193 H 0.74253 0.67585 0.90446 0.0
H194 H 0.76135 0.76199 0.98856 0.0
C195 C 0.8169 0.22773 0.26441 0.0
C196 C 0.80028 0.25 0.24187 0.0
C197 C 0.83715 0.24086 0.29715 0.0
C198 C 0.84192 0.27684 0.30778 0.0
C199 C 0.82737 0.29963 0.28334 0.0
C200 C 0.80624 0.28621 0.25105 0.0
C201 C 0.85756 0.28905 0.34676 0.0
C202 C 0.88391 0.27293 0.36384 0.0
C203 C 0.89194 0.27795 0.40403 0.0
C204 C 0.87524 0.30142 0.42674 0.0
C205 C 0.85053 0.3194 0.40951 0.0
C206 C 0.84179 0.3129 0.36972 0.0
C207 C 0.82974 0.3416 0.43345 0.0
C208 C 0.81034 0.32838 0.46876 0.0
C209 C 0.82465 0.37384 0.41793 0.0
C210 C 0.79858 0.39109 0.4355 0.0
C211 C 0.77697 0.3765 0.46907 0.0
C212 C 0.91255 0.25397 0.42315 0.0
C213 C 0.89643 0.23401 0.4565 0.0
C214 C 0.94526 0.24692 0.40517 0.0
C215 C 0.96047 0.21922 0.41912 0.0
C216 C 0.94278 0.19785 0.45077 0.0
C217 C 0.91127 0.2061 0.46999 0.0
C218 C 0.78414 0.34566 0.48639 0.0
H219 H 0.81223 0.19956 0.25827 0.0
H220 H 0.84694 0.22209 0.31542 0.0
H221 H 0.83107 0.32762 0.28999 0.0
H222 H 0.79378 0.30389 0.23389 0.0
H223 H 0.89622 0.2543 0.34667 0.0
H224 H 0.82026 0.3244 0.35773 0.0
H225 H 0.88076 0.30498 0.45794 0.0
H226 H 0.8136 0.30348 0.48128 0.0
H227 H 0.83943 0.38469 0.39084 0.0
H228 H 0.7937 0.41459 0.42111 0.0
H229 H 0.871 0.2385 0.47066 0.0
H230 H 0.95822 0.26195 0.37941 0.0
H231 H 0.76836 0.33404 0.51259 0.0
H232 H 0.89737 0.19011 0.4947 0.0
H233 H 0.98483 0.21333 0.40391 0.0
C234 C 0.22048 0.63394 0.20487 0.0
C235 C 0.21462 0.64152 0.16511 0.0
C236 C 0.25325 0.65045 0.22338 0.0
C237 C 0.28153 0.67488 0.20265 0.0
C238 C 0.27582 0.68169 0.16256 0.0
C239 C 0.24297 0.66557 0.1443 0.0
C240 C 0.31651 0.69367 0.22236 0.0
C241 C 0.33292 0.67702 0.252 0.0
C242 C 0.36596 0.69444 0.26988 0.0
C243 C 0.38301 0.72925 0.25656 0.0
C244 C 0.36742 0.74683 0.22682 0.0
C245 C 0.33371 0.72874 0.2111 0.0
C246 C 0.38588 0.7838 0.21152 0.0
C247 C 0.40851 0.809 0.23542 0.0
C248 C 0.38073 0.79453 0.17246 0.0
C249 C 0.39666 0.82892 0.15832 0.0
C250 C 0.41927 0.85383 0.18216 0.0
C251 C 0.38257 0.67615 0.30227 0.0
C252 C 0.38158 0.63934 0.30116 0.0
C253 C 0.39902 0.69507 0.33515 0.0
C254 C 0.41346 0.67788 0.36577 0.0
C255 C 0.41233 0.64104 0.36472 0.0
C256 C 0.39621 0.6222 0.33163 0.0
C257 C 0.42516 0.84322 0.22087 0.0
H258 H 0.19929 0.61581 0.2221 0.0
H259 H 0.25595 0.64455 0.25428 0.0
H260 H 0.29697 0.69939 0.14485 0.0
H261 H 0.24001 0.67166 0.11348 0.0
H262 H 0.31986 0.65032 0.26131 0.0
H263 H 0.32009 0.74239 0.19033 0.0
H264 H 0.40906 0.7422 0.26871 0.0
H265 H 0.41313 0.80264 0.26571 0.0
H266 H 0.36478 0.77621 0.15212 0.0
H267 H 0.39203 0.83571 0.12813 0.0
H268 H 0.3697 0.62358 0.27642 0.0
H269 H 0.40023 0.72328 0.33768 0.0
H270 H 0.44233 0.86163 0.24024 0.0
H271 H 0.39429 0.59387 0.32943 0.0
H272 H 0.42591 0.69372 0.39018 0.0
C273 C 0.14155 0.25146 0.68521 0.0
C274 C 0.10312 0.24017 0.68063 0.0
C275 C 0.15668 0.28486 0.70107 0.0
C276 C 0.13409 0.30859 0.71293 0.0
C277 C 0.09545 0.29691 0.70985 0.0
C278 C 0.0802 0.26323 0.69395 0.0
C279 C 0.15153 0.34566 0.72641 0.0
C280 C 0.18457 0.36399 0.70698 0.0
C281 C 0.20372 0.39763 0.71951 0.0
C282 C 0.188 0.41372 0.75178 0.0
C283 C 0.1542 0.39681 0.77155 0.0
C284 C 0.1363 0.36262 0.75836 0.0
C285 C 0.13813 0.41493 0.80606 0.0
C286 C 0.16137 0.4366 0.83267 0.0
C287 C 0.09951 0.41153 0.81244 0.0
C288 C 0.08485 0.42961 0.84363 0.0
C289 C 0.10823 0.4519 0.86962 0.0
C290 C 0.24013 0.41535 0.69872 0.0
C291 C 0.2639 0.39479 0.68126 0.0
C292 C 0.2515 0.45264 0.69534 0.0
C293 C 0.28492 0.46855 0.67483 0.0
C294 C 0.30766 0.44769 0.65637 0.0
C295 C 0.2967 0.41063 0.66007 0.0
C296 C 0.14676 0.45474 0.86367 0.0
H297 H 0.16023 0.23438 0.67648 0.0
H298 H 0.18643 0.29219 0.70385 0.0
H299 H 0.07703 0.31426 0.71846 0.0
H300 H 0.05051 0.25577 0.69091 0.0
H301 H 0.1951 0.35197 0.68117 0.0
H302 H 0.11115 0.34868 0.77376 0.0
H303 H 0.20215 0.43961 0.76161 0.0
H304 H 0.19115 0.43945 0.82986 0.0
H305 H 0.08044 0.39556 0.79267 0.0
H306 H 0.05509 0.42682 0.84666 0.0
H307 H 0.25742 0.36617 0.684 0.0
H308 H 0.23425 0.46973 0.70773 0.0
H309 H 0.16588 0.47085 0.88328 0.0
H310 H 0.31383 0.39376 0.64683 0.0
H311 H 0.2925 0.4972 0.67246 0.0
Gd312 Gd 0.04936 0.04436 0.53764 0.0
Gd313 Gd 0.97965 1.03515 0.58205 0.0
C314 C 0.04509 0.10404 0.60234 0.0
C315 C 0.10688 0.05504 0.4897 0.0
C316 C 0.14018 0.08384 0.48614 0.0
C317 C 0.17539 0.07571 0.4865 0.0
C318 C 0.13729 0.1195 0.48493 0.0
C319 C 0.2046 0.13856 0.48286 0.0
C320 C 0.16914 0.14653 0.48302 0.0
C321 C 0.2073 0.10279 0.48505 0.0
C322 C 0.04664 1.00563 0.6048 0.0
C323 C 0.98351 0.97668 0.51603 0.0
C324 C 0.92409 1.02229 0.63244 0.0
C325 C 0.89435 0.99077 0.63925 0.0
C326 C 0.85938 0.99473 0.65348 0.0
C327 C 0.89992 0.95684 0.62924 0.0
C328 C 0.83586 0.93095 0.64881 0.0
C329 C 0.87093 0.92713 0.63417 0.0
C330 C 0.83036 0.96508 0.65826 0.0
C331 C 0.98096 0.07358 0.51505 0.0
O332 O 0.06236 0.09678 0.56933 0.0
O333 O 0.0142 0.08208 0.61535 0.0
O334 O 0.10413 1.03584 0.52182 0.0
O335 O 0.07531 0.0626 0.48058 0.0
O336 O 0.07404 1.03124 0.59415 0.0
O337 O 0.02162 1.00275 0.58016 0.0
O338 O 0.9673 0.98294 0.55006 0.0
O339 O 0.01382 0.99923 0.50261 0.0
O340 O 0.9233 1.03839 0.59867 0.0
O341 O 0.95748 1.01919 0.6411 0.0
O342 O 0.95371 0.04826 0.52688 0.0
O343 O 1.00688 0.07673 0.53884 0.0
H344 H 0.17819 0.04837 0.48813 0.0
H345 H 0.11046 0.1266 0.48529 0.0
H346 H 0.16583 0.17364 0.48055 0.0
H347 H 0.23407 0.09565 0.48549 0.0
H348 H 0.85454 1.02077 0.66091 0.0
H349 H 0.92666 0.95332 0.6176 0.0
H350 H 0.87592 0.9012 0.62652 0.0
H351 H 0.80382 0.96881 0.67028 0.0
Gd352 Gd 0.53926 0.05409 0.08719 0.0
Gd353 Gd 0.46803 1.04038 1.05225 0.0
C354 C 0.47888 0.09693 0.11964 0.0
C355 C 0.6038 0.07535 0.11651 0.0
C356 C 0.63213 0.10556 0.12885 0.0
C357 C 0.66499 0.09858 0.14263 0.0
C358 C 0.62749 0.14066 0.1269 0.0
C359 C 0.68881 0.16153 0.15319 0.0
C360 C 0.6557 0.16855 0.13917 0.0
C361 C 0.69301 0.12619 0.15474 0.0
C362 C 0.49579 0.99066 0.11286 0.0
C363 C 0.52891 0.99874 1.01877 0.0
C364 C 0.40393 1.01586 1.02323 0.0
C365 C 0.38191 0.98264 1.00807 0.0
C366 C 0.39884 0.95728 0.98942 0.0
C367 C 0.34319 0.97722 1.01039 0.0
C368 C 0.33836 0.92309 0.97203 0.0
C369 C 0.32154 0.94765 0.99259 0.0
C370 C 0.3772 0.92773 0.97143 0.0
C371 C 0.51154 0.10354 1.02604 0.0
O372 O 0.51454 0.0987 0.11218 0.0
O373 O 0.45404 0.07133 0.10449 0.0
O374 O 0.5731 0.06712 0.13832 0.0
O375 O 0.59862 0.0719 0.07858 0.0
O376 O 0.53115 0.99678 0.10591 0.0
O377 O 0.48463 1.0192 0.10799 0.0
O378 O 0.49327 0.99643 1.02648 0.0
O379 O 0.55344 1.02457 1.0339 0.0
O380 O 0.43333 1.03079 1.00175 0.0
O381 O 0.40943 1.01702 1.0612 0.0
O382 O 0.47615 0.09756 1.03334 0.0
O383 O 0.52276 0.07501 1.03114 0.0
H384 H 0.6689 0.07157 0.14435 0.0
H385 H 0.60218 0.14638 0.1161 0.0
H386 H 0.65167 0.1955 0.13765 0.0
H387 H 0.71764 0.11966 0.16631 0.0
H388 H 0.42874 0.96088 0.98766 0.0
H389 H 0.32973 0.99655 1.0248 0.0
H390 H 0.29175 0.94502 0.99318 0.0
H391 H 0.39086 0.90901 0.95614 0.0
Gd392 Gd 0.51519 0.5144 0.53084 0.0
Gd393 Gd 0.50675 0.57349 0.58228 0.0
C394 C 0.54452 0.51586 0.62137 0.0
C395 C 0.54239 0.46783 0.491 0.0
C396 C 0.57714 0.45464 0.49238 0.0
C397 C 0.58202 0.43026 0.52152 0.0
C398 C 0.60624 0.46701 0.46444 0.0
C399 C 0.64444 0.43116 0.49473 0.0
C400 C 0.63953 0.45555 0.46571 0.0
C401 C 0.61531 0.41859 0.52261 0.0
C402 C 0.44599 0.50485 0.5662 0.0
C403 C 0.47489 0.57054 0.49282 0.0
C404 C 0.47944 0.62016 0.62179 0.0
C405 C 0.44204 0.62841 0.62457 0.0
C406 C 0.43532 0.65871 0.60579 0.0
C407 C 0.41253 0.60579 0.64536 0.0
C408 C 0.37045 0.64367 0.62879 0.0
C409 C 0.37718 0.61323 0.64725 0.0
C410 C 0.39988 0.66624 0.60781 0.0
C411 C 0.57608 0.58301 0.54689 0.0
O412 O 0.54854 0.50551 0.58424 0.0
O413 O 0.52581 0.54082 0.62938 0.0
O414 O 0.51812 0.45945 0.52057 0.0
O415 O 0.54607 0.50071 0.47944 0.0
O416 O 0.45289 0.49478 0.53044 0.0
O417 O 0.47622 0.5178 0.58212 0.0
O418 O 0.47121 0.58055 0.53012 0.0
O419 O 0.49427 0.54621 0.48415 0.0
O420 O 0.49818 0.62734 0.58806 0.0
O421 O 0.4825 0.5898 0.63674 0.0
O422 O 0.56907 0.59343 0.58242 0.0
O423 O 0.54579 0.57018 0.53103 0.0
H424 H 0.5602 0.42021 0.54355 0.0
H425 H 0.60327 0.4856 0.44148 0.0
H426 H 0.66117 0.46522 0.44336 0.0
H427 H 0.61835 0.39986 0.54538 0.0
H428 H 0.45753 0.6767 0.58969 0.0
H429 H 0.41659 0.58228 0.66035 0.0
H430 H 0.35506 0.59508 0.66328 0.0
H431 H 0.39575 0.6902 0.59376 0.0
Gd432 Gd 0.00984 0.50656 0.07351 0.0
Gd433 Gd 1.00856 0.57851 1.03195 0.0
C434 C 0.07698 0.57641 0.08746 0.0
C435 C 0.03172 0.44852 0.0858 0.0
C436 C 0.06491 0.44035 0.10335 0.0
C437 C 0.06091 0.41515 0.13388 0.0
C438 C 0.1008 0.45752 0.08982 0.0
C439 C 0.12804 0.42395 0.13665 0.0
C440 C 0.13201 0.44921 0.10614 0.0
C441 C 0.09219 0.40713 0.15055 0.0
C442 C 0.97847 0.5485 0.12472 0.0
C443 C 0.93715 0.50994 1.02576 0.0
C444 C 0.99024 0.63542 1.00706 0.0
C445 C 0.9554 0.64684 1.00089 0.0
C446 C 0.95581 0.67661 0.97721 0.0
C447 C 0.92169 0.62828 1.01826 0.0
C448 C 0.88901 0.66953 0.98842 0.0
C449 C 0.88876 0.63953 1.01209 0.0
C450 C 0.92296 0.68786 0.97099 0.0
C451 C 0.04735 0.53577 0.99176 0.0
O452 O 0.0655 0.54136 0.0886 0.0
O453 O 0.05801 0.59703 0.06976 0.0
O454 O 1.00811 0.45981 0.10999 0.0
O455 O 0.03738 0.4658 1.05209 0.0
O456 O 0.98114 0.51621 0.13268 0.0
O457 O 0.99145 0.55535 0.08977 0.0
O458 O 0.95108 0.54453 1.02069 0.0
O459 O 0.95535 0.48903 1.04414 0.0
O460 O 0.99747 0.61066 0.98327 0.0
O461 O 0.99759 0.63049 1.04396 0.0
O462 O 0.05728 0.57022 0.9926 0.0
O463 O 0.01688 0.52617 1.01139 0.0
H464 H 0.03358 0.40159 0.14478 0.0
H465 H 0.10487 0.47739 0.06656 0.0
H466 H 0.1593 0.46284 0.0952 0.0
H467 H 0.08836 0.38735 0.17387 0.0
H468 H 0.98156 0.69111 0.96339 0.0
H469 H 0.92085 0.60519 1.03668 0.0
H470 H 0.86322 0.62497 1.02623 0.0
H471 H 0.92412 0.71064 0.952 0.0
C472 C 0.26644 0.2304 0.47831 0.0
C473 C 0.2935 0.22543 0.44969 0.0
H474 H 0.21763 0.20643 0.51259 0.0
C475 C 0.29517 0.19079 0.4381 0.0
H476 H 0.26476 0.25688 0.48786 0.0
C477 C 0.26768 0.16203 0.45129 0.0
C478 C 0.23824 0.16735 0.47672 0.0
H479 H 0.31549 0.18623 0.4157 0.0
H480 H 0.26792 0.13619 0.43877 0.0
C481 C 0.23921 0.20155 0.49197 0.0
C482 C 0.25772 0.85307 0.93722 0.0
C483 C 0.26875 0.84905 0.89739 0.0
H484 H 0.27143 0.87926 0.99246 0.0
C485 C 0.30411 0.86731 0.88362 0.0
H486 H 0.23089 0.83901 0.94892 0.0
C487 C 0.32733 0.88995 0.90855 0.0
C488 C 0.3157 0.89514 0.94782 0.0
H489 H 0.31331 0.86552 0.85295 0.0
H490 H 0.35364 0.90482 0.89639 0.0
C491 C 0.28094 0.87599 0.96217 0.0
C492 C 0.59025 0.45182 0.67909 0.0
C493 C 0.58747 0.46315 0.71875 0.0
H494 H 0.57971 0.4593 0.61784 0.0
C495 C 0.57095 0.49257 0.72559 0.0
H496 H 0.6031 0.42969 0.67208 0.0
C497 C 0.55753 0.5097 0.69425 0.0
C498 C 0.56025 0.49831 0.65469 0.0
H499 H 0.56767 0.50211 0.75545 0.0
H500 H 0.54471 0.53187 0.70121 0.0
C501 C 0.57701 0.46911 0.64769 0.0
C502 C 0.95623 0.62915 0.18038 0.0
C503 C 0.93091 0.6128 0.21072 0.0
H504 H 0.99035 0.62202 0.12867 0.0
C505 C 0.92071 0.5755 0.21109 0.0
H506 H 0.96467 0.65779 0.17903 0.0
C507 C 0.93588 0.55517 0.18284 0.0
C508 C 0.96106 0.57133 0.1525 0.0
H509 H 0.90158 0.56189 0.23399 0.0
H510 H 0.92788 0.52651 0.18489 0.0
C511 C 0.97074 0.60868 0.15131 0.0
C512 C 0.47939 0.18688 0.16572 0.0
C513 C 0.4413 0.18524 0.17297 0.0
H514 H 0.52124 0.1602 0.14352 0.0
C515 C 0.41602 0.15353 0.1647 0.0
H516 H 0.49958 0.21095 0.17158 0.0
C517 C 0.42839 0.12451 0.14861 0.0
C518 C 0.46636 0.12641 0.14048 0.0
H519 H 0.38657 0.15103 0.17079 0.0
H520 H 0.40803 0.10074 0.14206 0.0
C521 C 0.4918 0.15777 0.14966 0.0
C522 C 0.03974 0.91151 0.63941 0.0
C523 C 0.07038 0.91563 0.6634 0.0
H524 H 1.00735 0.93726 0.60289 0.0
C525 C 0.09072 0.94979 0.67153 0.0
H526 H 0.02383 0.88528 0.63282 0.0
C527 C 0.08177 0.97947 0.65405 0.0
C528 C 0.05208 0.97535 0.6286 0.0
H529 H 0.11455 0.95333 0.68995 0.0
H530 H 0.09889 1.00547 0.65925 0.0
C531 C 0.03036 0.94123 0.62247 0.0
C532 C 0.85001 0.44217 0.99811 0.0
C533 C 0.83261 0.46147 0.97214 0.0
H534 H 0.89575 0.44187 1.03513 0.0
C535 C 0.84958 0.49749 0.96533 0.0
H536 H 0.83781 0.41472 1.00516 0.0
C537 C 0.88281 0.51335 0.98328 0.0
C538 C 0.90047 0.49374 1.00851 0.0
H539 H 0.83772 0.51344 0.94533 0.0
H540 H 0.89502 0.54092 0.97668 0.0
C541 C 0.88334 0.45794 1.01577 0.0
C542 C 0.65329 0.59547 0.46549 0.0
C543 C 0.68157 0.62154 0.48181 0.0
H544 H 0.59818 0.56316 0.4727 0.0
C545 C 0.67441 0.63403 0.52013 0.0
H546 H 0.65741 0.58443 0.43656 0.0
C547 C 0.64069 0.62098 0.54123 0.0
C548 C 0.61245 0.59547 0.52461 0.0
H549 H 0.69453 0.65457 0.53387 0.0
H550 H 0.63647 0.63154 0.57044 0.0
C551 C 0.61921 0.58288 0.48642 0.0
C552 C 0.2204 0.39716 0.14544 0.0
C553 C 0.22246 0.39434 0.18676 0.0
H554 H 0.18877 0.40859 0.0972 0.0
C555 C 0.19407 0.4032 0.21133 0.0
H556 H 0.24149 0.39021 0.1256 0.0
C557 C 0.16367 0.41311 0.19505 0.0
C558 C 0.16116 0.41495 0.15382 0.0
H559 H 0.19514 0.40218 0.2433 0.0
H560 H 0.14207 0.41935 0.21476 0.0
C561 C 0.19012 0.40752 0.12915 0.0
C562 C 0.53015 0.18925 0.96523 0.0
C563 C 0.56883 0.20205 0.9667 0.0
H564 H 0.48245 0.14923 0.98255 0.0
C565 C 0.58888 0.18069 0.98717 0.0
H566 H 0.51323 0.20354 0.94914 0.0
C567 C 0.5709 0.14827 1.00549 0.0
C568 C 0.5322 0.13642 1.00463 0.0
H569 H 0.61849 0.18922 0.98996 0.0
H570 H 0.58717 0.13302 1.02129 0.0
C571 C 0.51226 0.15747 0.98419 0.0
C572 C 0.97204 0.89973 0.44142 0.0
C573 C 0.93851 0.87741 0.45524 0.0
H574 H 0.01233 0.94845 0.44899 0.0
C575 C 0.92029 0.88844 0.48899 0.0
H576 H 0.98689 0.89245 0.41545 0.0
C577 C 0.93484 0.92048 0.50815 0.0
C578 C 0.96817 0.94293 0.4943 0.0
H579 H 0.89484 0.87198 0.5012 0.0
H580 H 0.91979 0.92753 0.53411 0.0
C581 C 0.98656 0.93207 0.46055 0.0
C582 C 0.2838 0.67759 0.60737 0.0
C583 C 0.26516 0.67433 0.64481 0.0
H584 H 0.33153 0.67013 0.57272 0.0
C585 C 0.28061 0.65922 0.67608 0.0
H586 H 0.27258 0.68887 0.58256 0.0
C587 C 0.31419 0.64857 0.67046 0.0
C588 C 0.33341 0.6528 0.63344 0.0
H589 H 0.26772 0.65712 0.70561 0.0
H590 H 0.32584 0.63835 0.69569 0.0
C591 C 0.31761 0.66697 0.60175 0.0
C592 C 0.73975 0.87432 0.66554 0.0
C593 C 0.74699 0.84741 0.68998 0.0
H594 H 0.76251 0.92191 0.6328 0.0
C595 C 0.7839 0.84453 0.69419 0.0
H596 H 0.71152 0.87686 0.66136 0.0
C597 C 0.81306 0.87037 0.67802 0.0
C598 C 0.80574 0.89948 0.65737 0.0
H599 H 0.7904 0.82429 0.71312 0.0
H600 H 0.84118 0.8691 0.68459 0.0
C601 C 0.76888 0.9002 0.64946 0.0
C602 C 0.78312 0.2103 0.18405 0.0
C603 C 0.77352 0.23406 0.21211 0.0
H604 H 0.76385 0.16963 0.14206 0.0
C605 C 0.73659 0.23795 0.21583 0.0
H606 H 0.81149 0.20709 0.18046 0.0
C607 C 0.70911 0.21604 0.19441 0.0
C608 C 0.71826 0.19009 0.16879 0.0
H609 H 0.72851 0.25594 0.23755 0.0
H610 H 0.68048 0.21768 0.20016 0.0
C611 C 0.7558 0.18874 0.16235 0.0
C612 C 0.42504 0.63286 0.43775 0.0
C613 C 0.42781 0.62245 0.39775 0.0
H614 H 0.43688 0.62492 0.49848 0.0
C615 C 0.44563 0.59405 0.38977 0.0
H616 H 0.4112 0.65412 0.44567 0.0
C617 C 0.46037 0.57709 0.42034 0.0
C618 C 0.45773 0.58766 0.46023 0.0
H619 H 0.44894 0.58524 0.35961 0.0
H620 H 0.47418 0.55577 0.41254 0.0
C621 C 0.43961 0.61578 0.46834 0.0
C622 C 0.11141 0.50743 0.91166 0.0
C623 C 0.09282 0.47271 0.90207 0.0
H624 H 0.11195 0.55405 0.94691 0.0
C625 C 0.05933 0.45851 0.92358 0.0
H626 H 0.13691 0.51977 0.89573 0.0
C627 C 0.04496 0.4784 0.95327 0.0
C628 C 0.06343 0.51324 0.96225 0.0
H629 H 0.04421 0.43185 0.91766 0.0
H630 H 0.01901 0.46664 0.96875 0.0
C631 C 0.09695 0.52731 0.94107 0.0
C632 C 0.59259 0.94592 0.96831 0.0
C633 C 0.56849 0.91303 0.96223 0.0
H634 H 0.59896 0.99876 0.99043 0.0
C635 C 0.53082 0.90882 0.97371 0.0
H636 H 0.62184 0.94985 0.96009 0.0
C637 C 0.51757 0.93706 0.99091 0.0
C638 C 0.54186 0.96985 0.99732 0.0
H639 H 0.5116 0.88384 0.96906 0.0
H640 H 0.48848 0.93296 0.99988 0.0
C641 C 0.57947 0.97395 0.98571 0.0
C642 C 0.92932 0.13271 0.46267 0.0
C643 C 0.95496 0.1653 0.46211 0.0
H644 H 0.91795 0.07783 0.47861 0.0
C645 C 0.99108 0.16658 0.47429 0.0
H646 H 0.90148 0.13101 0.45277 0.0
C647 C 1.00054 0.13607 0.48947 0.0
C648 C 0.97408 0.10389 0.49215 0.0
H649 H 0.01134 0.19145 0.47388 0.0
H650 H 0.02794 0.13805 0.50071 0.0
C651 C 0.93885 0.10226 0.47723 0.0
C652 C 0.16179 0.64474 0.12029 0.0
C653 C 0.17921 0.62474 0.14535 0.0
H654 H 0.11636 0.64571 0.08294 0.0
C655 C 0.16256 0.58857 0.15099 0.0
H656 H 0.1734 0.6727 0.1154 0.0
C657 C 0.12985 0.57293 0.132 0.0
C658 C 0.11232 0.59302 0.10713 0.0
H659 H 0.17516 0.57212 0.16968 0.0
H660 H 0.11817 0.545 0.13707 0.0
C661 C 0.12883 0.62923 0.10172 0.0
C662 C 0.37017 0.49048 0.64894 0.0
C663 C 0.34241 0.46405 0.63277 0.0
H664 H 0.42499 0.52332 0.64111 0.0
C665 C 0.34862 0.45227 0.59406 0.0
H666 H 0.3664 0.50003 0.67872 0.0
C667 C 0.38167 0.46626 0.57221 0.0
C668 C 0.40992 0.49188 0.58874 0.0
H669 H 0.32779 0.43211 0.58061 0.0
H670 H 0.38541 0.45636 0.54258 0.0
C671 C 0.40372 0.50385 0.62739 0.0
C672 C 0.82182 0.72935 0.97061 0.0
C673 C 0.78902 0.70471 0.96262 0.0
H674 H 0.87868 0.73767 0.9856 0.0
C675 C 0.78884 0.66828 0.96536 0.0
H676 H 0.82321 0.75759 0.96834 0.0
C677 C 0.82097 0.65683 0.97459 0.0
C678 C 0.85407 0.68153 0.98134 0.0
H679 H 0.76397 0.64856 0.95983 0.0
H680 H 0.82014 0.62861 0.97522 0.0
C681 C 0.85388 0.71791 0.97992 0.0
C682 C 0.41831 0.91117 0.14486 0.0
C683 C 0.43786 0.89004 0.16607 0.0
H684 H 0.42065 0.95979 0.11238 0.0
C685 C 0.47596 0.90332 0.17067 0.0
H686 H 0.38892 0.90191 0.14071 0.0
C687 C 0.49412 0.936 0.15383 0.0
C688 C 0.47475 0.95714 0.13264 0.0
H689 H 0.4921 0.88787 0.18636 0.0
H690 H 0.52368 0.94469 0.15733 0.0
C691 C 0.43641 0.94449 0.1288 0.0
C692 C 0.05376 0.18298 0.67408 0.0
C693 C 0.08768 0.20507 0.66101 0.0
H694 H 0.01394 0.13396 0.66662 0.0
C695 C 0.10716 0.19321 0.62868 0.0
H696 H 0.03795 0.19086 0.69897 0.0
C697 C 0.09344 0.16061 0.61021 0.0
C698 C 0.0597 0.13841 0.62334 0.0
H699 H 0.13298 0.20944 0.61706 0.0
H700 H 0.10942 0.15291 0.58533 0.0
C701 C 0.04007 0.1501 0.65565 0.0
C702 C 0.74599 0.42782 0.48161 0.0
C703 C 0.74439 0.39108 0.48257 0.0
H704 H 0.71569 0.46935 0.4852 0.0
C705 C 0.71015 0.36803 0.49197 0.0
H706 H 0.77201 0.44636 0.47518 0.0
C707 C 0.67795 0.38124 0.49788 0.0
C708 C 0.67923 0.41775 0.49434 0.0
H709 H 0.70774 0.33957 0.49246 0.0
H710 H 0.65174 0.36263 0.503 0.0
C711 C 0.71375 0.44099 0.48731 0.0
loop_
_geom_bond_atom_site_label_1
_geom_bond_atom_site_label_2
_geom_bond_distance
_geom_bond_site_symmetry_2
_ccdc_geom_bond_type
C0 C1 1.386 . S
C0 C2 1.397 . S
C0 H24 0.931 . S
C1 C0 1.386 . S
C1 C5 1.397 . S
C2 C0 1.397 . S
C2 C3 1.384 . S
C2 H25 0.930 . S
C3 C2 1.384 . S
C3 C4 1.377 . S
C3 C6 1.481 . S
C4 C3 1.377 . S
C4 C5 1.389 . S
C4 H26 0.929 . S
C5 C1 1.397 . S
C5 C4 1.389 . S
C5 H27 0.931 . S
C6 C3 1.481 . S
C6 C7 1.387 . S
C6 C11 1.390 . S
C7 C6 1.387 . S
C7 C8 1.401 . S
C7 H28 0.930 . S
C8 C7 1.401 . S
C8 C9 1.376 . S
C8 C17 1.511 . S
C9 C8 1.376 . S
C9 C10 1.392 . S
C9 H30 0.931 . S
C10 C9 1.392 . S
C10 C11 1.361 . S
C10 C12 1.500 . S
C11 C6 1.390 . S
C11 C10 1.361 . S
C11 H29 0.931 . S
C12 C10 1.500 . S
C12 C13 1.371 . S
C12 C14 1.365 . S
C13 C12 1.371 . S
C13 C23 1.386 . S
C13 H31 0.931 . S
C14 C12 1.365 . S
C14 C15 1.409 . S
C14 H32 0.929 . S
C15 C14 1.409 . S
C15 C16 1.380 . S
C15 H33 0.930 . S
C16 C15 1.380 . S
C16 C23 1.357 . S
C17 C8 1.511 . S
C17 C18 1.341 . S
C17 C19 1.371 . S
C18 C17 1.341 . S
C18 C22 1.394 . S
C18 H34 0.930 . S
C19 C17 1.371 . S
C19 C20 1.392 . S
C19 H35 0.931 . S
C20 C19 1.392 . S
C20 C21 1.331 . S
C20 H38 0.932 . S
C21 C20 1.331 . S
C21 C22 1.336 . S
C22 C18 1.394 . S
C22 C21 1.336 . S
C22 H37 0.929 . S
C23 C13 1.386 . S
C23 C16 1.357 . S
C23 H36 0.928 . S
H24 C0 0.931 . S
H25 C2 0.930 . S
H26 C4 0.929 . S
H27 C5 0.931 . S
H28 C7 0.930 . S
H29 C11 0.931 . S
H30 C9 0.931 . S
H31 C13 0.931 . S
H32 C14 0.929 . S
H33 C15 0.930 . S
H34 C18 0.930 . S
H35 C19 0.931 . S
H36 C23 0.928 . S
H37 C22 0.929 . S
H38 C20 0.932 . S
C39 C40 1.386 . S
C39 C41 1.397 . S
C39 H63 0.931 . S
C40 C39 1.386 . S
C40 C44 1.397 . S
C41 C39 1.397 . S
C41 C42 1.384 . S
C41 H64 0.930 . S
C42 C41 1.384 . S
C42 C43 1.377 . S
C42 C45 1.481 . S
C43 C42 1.377 . S
C43 C44 1.389 . S
C43 H65 0.929 . S
C44 C40 1.397 . S
C44 C43 1.389 . S
C44 H66 0.931 . S
C45 C42 1.481 . S
C45 C46 1.387 . S
C45 C50 1.390 . S
C46 C45 1.387 . S
C46 C47 1.401 . S
C46 H67 0.930 . S
C47 C46 1.401 . S
C47 C48 1.376 . S
C47 C56 1.511 . S
C48 C47 1.376 . S
C48 C49 1.392 . S
C48 H69 0.931 . S
C49 C48 1.392 . S
C49 C50 1.361 . S
C49 C51 1.500 . S
C50 C45 1.390 . S
C50 C49 1.361 . S
C50 H68 0.931 . S
C51 C49 1.500 . S
C51 C52 1.371 . S
C51 C53 1.365 . S
C52 C51 1.371 . S
C52 C62 1.386 . S
C52 H70 0.931 . S
C53 C51 1.365 . S
C53 C54 1.409 . S
C53 H71 0.929 . S
C54 C53 1.409 . S
C54 C55 1.380 . S
C54 H72 0.930 . S
C55 C54 1.380 . S
C55 C62 1.357 . S
C56 C47 1.511 . S
C56 C57 1.341 . S
C56 C58 1.371 . S
C57 C56 1.341 . S
C57 C61 1.394 . S
C57 H73 0.930 . S
C58 C56 1.371 . S
C58 C59 1.392 . S
C58 H74 0.931 . S
C59 C58 1.392 . S
C59 C60 1.331 . S
C59 H77 0.932 . S
C60 C59 1.331 . S
C60 C61 1.336 . S
C61 C57 1.394 . S
C61 C60 1.336 . S
C61 H76 0.929 . S
C62 C52 1.386 . S
C62 C55 1.357 . S
C62 H75 0.928 . S
H63 C39 0.931 . S
H64 C41 0.930 . S
H65 C43 0.929 . S
H66 C44 0.931 . S
H67 C46 0.930 . S
H68 C50 0.931 . S
H69 C48 0.931 . S
H70 C52 0.931 . S
H71 C53 0.929 . S
H72 C54 0.930 . S
H73 C57 0.930 . S
H74 C58 0.931 . S
H75 C62 0.928 . S
H76 C61 0.929 . S
H77 C59 0.932 . S
C78 C79 1.386 . S
C78 C80 1.397 . S
C78 H102 0.931 . S
C79 C78 1.386 . S
C79 C83 1.397 . S
C80 C78 1.397 . S
C80 C81 1.384 . S
C80 H103 0.930 . S
C81 C80 1.384 . S
C81 C82 1.377 . S
C81 C84 1.481 . S
C82 C81 1.377 . S
C82 C83 1.389 . S
C82 H104 0.929 . S
C83 C79 1.397 . S
C83 C82 1.389 . S
C83 H105 0.931 . S
C84 C81 1.481 . S
C84 C85 1.387 . S
C84 C89 1.390 . S
C85 C84 1.387 . S
C85 C86 1.401 . S
C85 H106 0.930 . S
C86 C85 1.401 . S
C86 C87 1.376 . S
C86 C95 1.511 . S
C87 C86 1.376 . S
C87 C88 1.392 . S
C87 H108 0.931 . S
C88 C87 1.392 . S
C88 C89 1.361 . S
C88 C90 1.500 . S
C89 C84 1.390 . S
C89 C88 1.361 . S
C89 H107 0.931 . S
C90 C88 1.500 . S
C90 C91 1.371 . S
C90 C92 1.365 . S
C91 C90 1.371 . S
C91 C101 1.386 . S
C91 H109 0.931 . S
C92 C90 1.365 . S
C92 C93 1.409 . S
C92 H110 0.929 . S
C93 C92 1.409 . S
C93 C94 1.380 . S
C93 H111 0.930 . S
C94 C93 1.380 . S
C94 C101 1.357 . S
C95 C86 1.511 . S
C95 C96 1.341 . S
C95 C97 1.371 . S
C96 C95 1.341 . S
C96 C100 1.394 . S
C96 H112 0.930 . S
C97 C95 1.371 . S
C97 C98 1.392 . S
C97 H113 0.931 . S
C98 C97 1.392 . S
C98 C99 1.331 . S
C98 H116 0.932 . S
C99 C98 1.331 . S
C99 C100 1.336 . S
C100 C96 1.394 . S
C100 C99 1.336 . S
C100 H115 0.929 . S
C101 C91 1.386 . S
C101 C94 1.357 . S
C101 H114 0.928 . S
H102 C78 0.931 . S
H103 C80 0.930 . S
H104 C82 0.929 . S
H105 C83 0.931 . S
H106 C85 0.930 . S
H107 C89 0.931 . S
H108 C87 0.931 . S
H109 C91 0.931 . S
H110 C92 0.929 . S
H111 C93 0.930 . S
H112 C96 0.930 . S
H113 C97 0.931 . S
H114 C101 0.928 . S
H115 C100 0.929 . S
H116 C98 0.932 . S
C117 C118 1.386 . S
C117 C119 1.397 . S
C117 H141 0.931 . S
C118 C117 1.386 . S
C118 C122 1.397 . S
C119 C117 1.397 . S
C119 C120 1.384 . S
C119 H142 0.930 . S
C120 C119 1.384 . S
C120 C121 1.377 . S
C120 C123 1.481 . S
C121 C120 1.377 . S
C121 C122 1.389 . S
C121 H143 0.929 . S
C122 C118 1.397 . S
C122 C121 1.389 . S
C122 H144 0.931 . S
C123 C120 1.481 . S
C123 C124 1.387 . S
C123 C128 1.390 . S
C124 C123 1.387 . S
C124 C125 1.401 . S
C124 H145 0.930 . S
C125 C124 1.401 . S
C125 C126 1.376 . S
C125 C134 1.511 . S
C126 C125 1.376 . S
C126 C127 1.392 . S
C126 H147 0.931 . S
C127 C126 1.392 . S
C127 C128 1.361 . S
C127 C129 1.500 . S
C128 C123 1.390 . S
C128 C127 1.361 . S
C128 H146 0.931 . S
C129 C127 1.500 . S
C129 C130 1.371 . S
C129 C131 1.365 . S
C130 C129 1.371 . S
C130 C140 1.386 . S
C130 H148 0.931 . S
C131 C129 1.365 . S
C131 C132 1.409 . S
C131 H149 0.929 . S
C132 C131 1.409 . S
C132 C133 1.380 . S
C132 H150 0.930 . S
C133 C132 1.380 . S
C133 C140 1.357 . S
C134 C125 1.511 . S
C134 C135 1.341 . S
C134 C136 1.371 . S
C135 C134 1.341 . S
C135 C139 1.394 . S
C135 H151 0.930 . S
C136 C134 1.371 . S
C136 C137 1.392 . S
C136 H152 0.931 . S
C137 C136 1.392 . S
C137 C138 1.331 . S
C137 H155 0.932 . S
C138 C137 1.331 . S
C138 C139 1.336 . S
C139 C135 1.394 . S
C139 C138 1.336 . S
C139 H154 0.929 . S
C140 C130 1.386 . S
C140 C133 1.357 . S
C140 H153 0.928 . S
H141 C117 0.931 . S
H142 C119 0.930 . S
H143 C121 0.929 . S
H144 C122 0.931 . S
H145 C124 0.930 . S
H146 C128 0.931 . S
H147 C126 0.931 . S
H148 C130 0.931 . S
H149 C131 0.929 . S
H150 C132 0.930 . S
H151 C135 0.930 . S
H152 C136 0.931 . S
H153 C140 0.928 . S
H154 C139 0.929 . S
H155 C137 0.932 . S
C156 C157 1.386 . S
C156 C158 1.397 . S
C156 H180 0.931 . S
C157 C156 1.386 . S
C157 C161 1.397 . S
C158 C156 1.397 . S
C158 C159 1.384 . S
C158 H181 0.930 . S
C159 C158 1.384 . S
C159 C160 1.377 . S
C159 C162 1.481 . S
C160 C159 1.377 . S
C160 C161 1.389 . S
C160 H182 0.929 . S
C161 C157 1.397 . S
C161 C160 1.389 . S
C161 H183 0.931 . S
C162 C159 1.481 . S
C162 C163 1.387 . S
C162 C167 1.390 . S
C163 C162 1.387 . S
C163 C164 1.401 . S
C163 H184 0.930 . S
C164 C163 1.401 . S
C164 C165 1.376 . S
C164 C173 1.511 . S
C165 C164 1.376 . S
C165 C166 1.392 . S
C165 H186 0.931 . S
C166 C165 1.392 . S
C166 C167 1.361 . S
C166 C168 1.500 . S
C167 C162 1.390 . S
C167 C166 1.361 . S
C167 H185 0.931 . S
C168 C166 1.500 . S
C168 C169 1.371 . S
C168 C170 1.365 . S
C169 C168 1.371 . S
C169 C179 1.386 . S
C169 H187 0.931 . S
C170 C168 1.365 . S
C170 C171 1.409 . S
C170 H188 0.929 . S
C171 C170 1.409 . S
C171 C172 1.380 . S
C171 H189 0.930 . S
C172 C171 1.380 . S
C172 C179 1.357 . S
C173 C164 1.511 . S
C173 C174 1.341 . S
C173 C175 1.371 . S
C174 C173 1.341 . S
C174 C178 1.394 . S
C174 H190 0.930 . S
C175 C173 1.371 . S
C175 C176 1.392 . S
C175 H191 0.931 . S
C176 C175 1.392 . S
C176 C177 1.331 . S
C176 H194 0.932 . S
C177 C176 1.331 . S
C177 C178 1.336 . S
C178 C174 1.394 . S
C178 C177 1.336 . S
C178 H193 0.929 . S
C179 C169 1.386 . S
C179 C172 1.357 . S
C179 H192 0.928 . S
H180 C156 0.931 . S
H181 C158 0.930 . S
H182 C160 0.929 . S
H183 C161 0.931 . S
H184 C163 0.930 . S
H185 C167 0.931 . S
H186 C165 0.931 . S
H187 C169 0.931 . S
H188 C170 0.929 . S
H189 C171 0.930 . S
H190 C174 0.930 . S
H191 C175 0.931 . S
H192 C179 0.928 . S
H193 C178 0.929 . S
H194 C176 0.932 . S
C195 C196 1.386 . S
C195 C197 1.397 . S
C195 H219 0.931 . S
C196 C195 1.386 . S
C196 C200 1.397 . S
C197 C195 1.397 . S
C197 C198 1.384 . S
C197 H220 0.930 . S
C198 C197 1.384 . S
C198 C199 1.377 . S
C198 C201 1.481 . S
C199 C198 1.377 . S
C199 C200 1.389 . S
C199 H221 0.929 . S
C200 C196 1.397 . S
C200 C199 1.389 . S
C200 H222 0.931 . S
C201 C198 1.481 . S
C201 C202 1.387 . S
C201 C206 1.390 . S
C202 C201 1.387 . S
C202 C203 1.401 . S
C202 H223 0.930 . S
C203 C202 1.401 . S
C203 C204 1.376 . S
C203 C212 1.511 . S
C204 C203 1.376 . S
C204 C205 1.392 . S
C204 H225 0.931 . S
C205 C204 1.392 . S
C205 C206 1.361 . S
C205 C207 1.500 . S
C206 C201 1.390 . S
C206 C205 1.361 . S
C206 H224 0.931 . S
C207 C205 1.500 . S
C207 C208 1.371 . S
C207 C209 1.365 . S
C208 C207 1.371 . S
C208 C218 1.386 . S
C208 H226 0.931 . S
C209 C207 1.365 . S
C209 C210 1.409 . S
C209 H227 0.929 . S
C210 C209 1.409 . S
C210 C211 1.380 . S
C210 H228 0.930 . S
C211 C210 1.380 . S
C211 C218 1.357 . S
C212 C203 1.511 . S
C212 C213 1.341 . S
C212 C214 1.371 . S
C213 C212 1.341 . S
C213 C217 1.394 . S
C213 H229 0.930 . S
C214 C212 1.371 . S
C214 C215 1.392 . S
C214 H230 0.931 . S
C215 C214 1.392 . S
C215 C216 1.331 . S
C215 H233 0.932 . S
C216 C215 1.331 . S
C216 C217 1.336 . S
C217 C213 1.394 . S
C217 C216 1.336 . S
C217 H232 0.929 . S
C218 C208 1.386 . S
C218 C211 1.357 . S
C218 H231 0.928 . S
H219 C195 0.931 . S
H220 C197 0.930 . S
H221 C199 0.929 . S
H222 C200 0.931 . S
H223 C202 0.930 . S
H224 C206 0.931 . S
H225 C204 0.931 . S
H226 C208 0.931 . S
H227 C209 0.929 . S
H228 C210 0.930 . S
H229 C213 0.930 . S
H230 C214 0.931 . S
H231 C218 0.928 . S
H232 C217 0.929 . S
H233 C215 0.932 . S
C234 C235 1.386 . S
C234 C236 1.397 . S
C234 H258 0.931 . S
C235 C234 1.386 . S
C235 C239 1.397 . S
C236 C234 1.397 . S
C236 C237 1.384 . S
C236 H259 0.930 . S
C237 C236 1.384 . S
C237 C238 1.377 . S
C237 C240 1.481 . S
C238 C237 1.377 . S
C238 C239 1.389 . S
C238 H260 0.929 . S
C239 C235 1.397 . S
C239 C238 1.389 . S
C239 H261 0.931 . S
C240 C237 1.481 . S
C240 C241 1.387 . S
C240 C245 1.390 . S
C241 C240 1.387 . S
C241 C242 1.401 . S
C241 H262 0.930 . S
C242 C241 1.401 . S
C242 C243 1.376 . S
C242 C251 1.511 . S
C243 C242 1.376 . S
C243 C244 1.392 . S
C243 H264 0.931 . S
C244 C243 1.392 . S
C244 C245 1.361 . S
C244 C246 1.500 . S
C245 C240 1.390 . S
C245 C244 1.361 . S
C245 H263 0.931 . S
C246 C244 1.500 . S
C246 C247 1.371 . S
C246 C248 1.365 . S
C247 C246 1.371 . S
C247 C257 1.386 . S
C247 H265 0.931 . S
C248 C246 1.365 . S
C248 C249 1.409 . S
C248 H266 0.929 . S
C249 C248 1.409 . S
C249 C250 1.380 . S
C249 H267 0.930 . S
C250 C249 1.380 . S
C250 C257 1.357 . S
C251 C242 1.511 . S
C251 C252 1.341 . S
C251 C253 1.371 . S
C252 C251 1.341 . S
C252 C256 1.394 . S
C252 H268 0.930 . S
C253 C251 1.371 . S
C253 C254 1.392 . S
C253 H269 0.931 . S
C254 C253 1.392 . S
C254 C255 1.331 . S
C254 H272 0.932 . S
C255 C254 1.331 . S
C255 C256 1.336 . S
C256 C252 1.394 . S
C256 C255 1.336 . S
C256 H271 0.929 . S
C257 C247 1.386 . S
C257 C250 1.357 . S
C257 H270 0.928 . S
H258 C234 0.931 . S
H259 C236 0.930 . S
H260 C238 0.929 . S
H261 C239 0.931 . S
H262 C241 0.930 . S
H263 C245 0.931 . S
H264 C243 0.931 . S
H265 C247 0.931 . S
H266 C248 0.929 . S
H267 C249 0.930 . S
H268 C252 0.930 . S
H269 C253 0.931 . S
H270 C257 0.928 . S
H271 C256 0.929 . S
H272 C254 0.932 . S
C273 C274 1.386 . S
C273 C275 1.397 . S
C273 H297 0.931 . S
C274 C273 1.386 . S
C274 C278 1.397 . S
C275 C273 1.397 . S
C275 C276 1.384 . S
C275 H298 0.930 . S
C276 C275 1.384 . S
C276 C277 1.377 . S
C276 C279 1.481 . S
C277 C276 1.377 . S
C277 C278 1.389 . S
C277 H299 0.929 . S
C278 C274 1.397 . S
C278 C277 1.389 . S
C278 H300 0.931 . S
C279 C276 1.481 . S
C279 C280 1.387 . S
C279 C284 1.390 . S
C280 C279 1.387 . S
C280 C281 1.401 . S
C280 H301 0.930 . S
C281 C280 1.401 . S
C281 C282 1.376 . S
C281 C290 1.511 . S
C282 C281 1.376 . S
C282 C283 1.392 . S
C282 H303 0.931 . S
C283 C282 1.392 . S
C283 C284 1.361 . S
C283 C285 1.500 . S
C284 C279 1.390 . S
C284 C283 1.361 . S
C284 H302 0.931 . S
C285 C283 1.500 . S
C285 C286 1.371 . S
C285 C287 1.365 . S
C286 C285 1.371 . S
C286 C296 1.386 . S
C286 H304 0.931 . S
C287 C285 1.365 . S
C287 C288 1.409 . S
C287 H305 0.929 . S
C288 C287 1.409 . S
C288 C289 1.380 . S
C288 H306 0.930 . S
C289 C288 1.380 . S
C289 C296 1.357 . S
C290 C281 1.511 . S
C290 C291 1.341 . S
C290 C292 1.371 . S
C291 C290 1.341 . S
C291 C295 1.394 . S
C291 H307 0.930 . S
C292 C290 1.371 . S
C292 C293 1.392 . S
C292 H308 0.931 . S
C293 C292 1.392 . S
C293 C294 1.331 . S
C293 H311 0.932 . S
C294 C293 1.331 . S
C294 C295 1.336 . S
C295 C291 1.394 . S
C295 C294 1.336 . S
C295 H310 0.929 . S
C296 C286 1.386 . S
C296 C289 1.357 . S
C296 H309 0.928 . S
H297 C273 0.931 . S
H298 C275 0.930 . S
H299 C277 0.929 . S
H300 C278 0.931 . S
H301 C280 0.930 . S
H302 C284 0.931 . S
H303 C282 0.931 . S
H304 C286 0.931 . S
H305 C287 0.929 . S
H306 C288 0.930 . S
H307 C291 0.930 . S
H308 C292 0.931 . S
H309 C296 0.928 . S
H310 C295 0.929 . S
H311 C293 0.932 . S
Gd312 C315 2.818 . S
Gd312 O332 2.377 . S
Gd312 O334 2.448 . S
Gd312 O335 2.506 . S
Gd312 O336 2.435 1_545 S
Gd312 O337 2.717 1_545 S
Gd312 O339 2.395 1_445 S
Gd312 O343 2.327 1_455 S
Gd313 C324 2.818 . S
Gd313 O333 2.395 1_665 S
Gd313 O337 2.327 1_655 S
Gd313 O338 2.377 . S
Gd313 O340 2.448 . S
Gd313 O341 2.506 . S
Gd313 O342 2.435 1_565 S
Gd313 O343 2.717 1_565 S
C314 O332 1.240 . S
C314 O333 1.240 . S
C315 Gd312 2.818 . S
C315 C316 1.510 . S
C315 O334 1.249 . S
C315 O335 1.252 . S
C316 C315 1.510 . S
C316 C317 1.404 . S
C316 C318 1.352 . S
C317 C316 1.404 . S
C317 C321 1.389 . S
C317 H344 0.930 . S
C318 C316 1.352 . S
C318 C320 1.374 . S
C318 H345 0.931 . S
C319 C320 1.359 . S
C319 C321 1.364 . S
C320 C318 1.374 . S
C320 C319 1.359 . S
C320 H346 0.931 . S
C321 C317 1.389 . S
C321 C319 1.364 . S
C321 H347 0.931 . S
C322 O336 1.256 . S
C322 O337 1.257 . S
C323 O338 1.240 . S
C323 O339 1.240 . S
C324 Gd313 2.818 . S
C324 C325 1.510 . S
C324 O340 1.249 . S
C324 O341 1.252 . S
C325 C324 1.510 . S
C325 C326 1.404 . S
C325 C327 1.352 . S
C326 C325 1.404 . S
C326 C330 1.389 . S
C326 H348 0.930 . S
C327 C325 1.352 . S
C327 C329 1.374 . S
C327 H349 0.931 . S
C328 C329 1.359 . S
C328 C330 1.364 . S
C329 C327 1.374 . S
C329 C328 1.359 . S
C329 H350 0.931 . S
C330 C326 1.389 . S
C330 C328 1.364 . S
C330 H351 0.931 . S
C331 O342 1.256 . S
C331 O343 1.257 . S
O332 Gd312 2.377 . S
O332 C314 1.240 . S
O333 Gd313 2.395 1_445 S
O333 C314 1.240 . S
O334 Gd312 2.448 . S
O334 C315 1.249 . S
O335 Gd312 2.506 . S
O335 C315 1.252 . S
O336 Gd312 2.435 1_565 S
O336 C322 1.256 . S
O337 Gd312 2.717 1_565 S
O337 Gd313 2.327 1_455 S
O337 C322 1.257 . S
O338 Gd313 2.377 . S
O338 C323 1.240 . S
O339 Gd312 2.395 1_665 S
O339 C323 1.240 . S
O340 Gd313 2.448 . S
O340 C324 1.249 . S
O341 Gd313 2.506 . S
O341 C324 1.252 . S
O342 Gd313 2.435 1_545 S
O342 C331 1.256 . S
O343 Gd312 2.327 1_655 S
O343 Gd313 2.717 1_545 S
O343 C331 1.257 . S
H344 C317 0.930 . S
H345 C318 0.931 . S
H346 C320 0.931 . S
H347 C321 0.931 . S
H348 C326 0.930 . S
H349 C327 0.931 . S
H350 C329 0.931 . S
H351 C330 0.931 . S
Gd352 C355 2.803 1_565 S
Gd352 O372 2.359 1_565 S
Gd352 O374 2.447 1_565 S
Gd352 O375 2.481 1_565 S
Gd352 O376 2.458 . S
Gd352 O377 2.728 . S
Gd352 O379 2.414 1_554 S
Gd352 O383 2.306 1_564 S
Gd353 C364 2.818 1_545 S
Gd353 O373 2.395 1_556 S
Gd353 O377 2.327 1_546 S
Gd353 O378 2.377 1_545 S
Gd353 O380 2.448 1_545 S
Gd353 O381 2.506 1_545 S
Gd353 O382 2.435 . S
Gd353 O383 2.717 . S
C354 O372 1.240 . S
C354 O373 1.240 . S
C355 Gd352 2.803 1_545 S
C355 C356 1.510 . S
C355 O374 1.249 . S
C355 O375 1.252 . S
C356 C355 1.510 . S
C356 C357 1.404 . S
C356 C358 1.352 . S
C357 C356 1.404 . S
C357 C361 1.389 . S
C357 H384 0.930 . S
C358 C356 1.352 . S
C358 C360 1.374 . S
C358 H385 0.931 . S
C359 C360 1.359 . S
C359 C361 1.364 . S
C360 C358 1.374 . S
C360 C359 1.359 . S
C360 H386 0.931 . S
C361 C357 1.389 . S
C361 C359 1.364 . S
C361 H387 0.931 . S
C362 O376 1.256 . S
C362 O377 1.257 . S
C363 O378 1.240 . S
C363 O379 1.240 . S
C364 Gd353 2.818 1_565 S
C364 C365 1.510 . S
C364 O380 1.249 . S
C364 O381 1.252 . S
C365 C364 1.510 . S
C365 C366 1.404 . S
C365 C367 1.352 . S
C366 C365 1.404 . S
C366 C370 1.389 . S
C366 H388 0.930 . S
C367 C365 1.352 . S
C367 C369 1.374 . S
C367 H389 0.931 . S
C368 C369 1.359 . S
C368 C370 1.364 . S
C369 C367 1.374 . S
C369 C368 1.359 . S
C369 H390 0.931 . S
C370 C366 1.389 . S
C370 C368 1.364 . S
C370 H391 0.931 . S
C371 O382 1.256 . S
C371 O383 1.257 . S
O372 Gd352 2.359 1_545 S
O372 C354 1.240 . S
O373 Gd353 2.395 1_554 S
O373 C354 1.240 . S
O374 Gd352 2.447 1_545 S
O374 C355 1.249 . S
O375 Gd352 2.481 1_545 S
O375 C355 1.252 . S
O376 Gd352 2.458 . S
O376 C362 1.256 . S
O377 Gd352 2.728 . S
O377 Gd353 2.327 1_564 S
O377 C362 1.257 . S
O378 Gd353 2.377 1_565 S
O378 C363 1.240 . S
O379 Gd352 2.414 1_556 S
O379 C363 1.240 . S
O380 Gd353 2.448 1_565 S
O380 C364 1.249 . S
O381 Gd353 2.506 1_565 S
O381 C364 1.252 . S
O382 Gd353 2.435 . S
O382 C371 1.256 . S
O383 Gd352 2.306 1_546 S
O383 Gd353 2.717 . S
O383 C371 1.257 . S
H384 C357 0.930 . S
H385 C358 0.931 . S
H386 C360 0.931 . S
H387 C361 0.931 . S
H388 C366 0.930 . S
H389 C367 0.931 . S
H390 C369 0.931 . S
H391 C370 0.931 . S
Gd392 C395 2.818 . S
Gd392 O412 2.377 . S
Gd392 O414 2.448 . S
Gd392 O415 2.506 . S
Gd392 O416 2.435 . S
Gd392 O417 2.717 . S
Gd392 O419 2.395 . S
Gd392 O423 2.327 . S
Gd393 C404 2.818 . S
Gd393 O413 2.395 . S
Gd393 O417 2.327 . S
Gd393 O418 2.377 . S
Gd393 O420 2.448 . S
Gd393 O421 2.506 . S
Gd393 O422 2.435 . S
Gd393 O423 2.717 . S
C394 O412 1.240 . S
C394 O413 1.240 . S
C395 Gd392 2.818 . S
C395 C396 1.510 . S
C395 O414 1.249 . S
C395 O415 1.252 . S
C396 C395 1.510 . S
C396 C397 1.404 . S
C396 C398 1.352 . S
C397 C396 1.404 . S
C397 C401 1.389 . S
C397 H424 0.930 . S
C398 C396 1.352 . S
C398 C400 1.374 . S
C398 H425 0.931 . S
C399 C400 1.359 . S
C399 C401 1.364 . S
C400 C398 1.374 . S
C400 C399 1.359 . S
C400 H426 0.931 . S
C401 C397 1.389 . S
C401 C399 1.364 . S
C401 H427 0.931 . S
C402 O416 1.256 . S
C402 O417 1.257 . S
C403 O418 1.240 . S
C403 O419 1.240 . S
C404 Gd393 2.818 . S
C404 C405 1.510 . S
C404 O420 1.249 . S
C404 O421 1.252 . S
C405 C404 1.510 . S
C405 C406 1.404 . S
C405 C407 1.352 . S
C406 C405 1.404 . S
C406 C410 1.389 . S
C406 H428 0.930 . S
C407 C405 1.352 . S
C407 C409 1.374 . S
C407 H429 0.931 . S
C408 C409 1.359 . S
C408 C410 1.364 . S
C409 C407 1.374 . S
C409 C408 1.359 . S
C409 H430 0.931 . S
C410 C406 1.389 . S
C410 C408 1.364 . S
C410 H431 0.931 . S
C411 O422 1.256 . S
C411 O423 1.257 . S
O412 Gd392 2.377 . S
O412 C394 1.240 . S
O413 Gd393 2.395 . S
O413 C394 1.240 . S
O414 Gd392 2.448 . S
O414 C395 1.249 . S
O415 Gd392 2.506 . S
O415 C395 1.252 . S
O416 Gd392 2.435 . S
O416 C402 1.256 . S
O417 Gd392 2.717 . S
O417 Gd393 2.327 . S
O417 C402 1.257 . S
O418 Gd393 2.377 . S
O418 C403 1.240 . S
O419 Gd392 2.395 . S
O419 C403 1.240 . S
O420 Gd393 2.448 . S
O420 C404 1.249 . S
O421 Gd393 2.506 . S
O421 C404 1.252 . S
O422 Gd393 2.435 . S
O422 C411 1.256 . S
O423 Gd392 2.327 . S
O423 Gd393 2.717 . S
O423 C411 1.257 . S
H424 C397 0.930 . S
H425 C398 0.931 . S
H426 C400 0.931 . S
H427 C401 0.931 . S
H428 C406 0.930 . S
H429 C407 0.931 . S
H430 C409 0.931 . S
H431 C410 0.931 . S
Gd432 C435 2.818 . S
Gd432 O452 2.377 . S
Gd432 O454 2.448 . S
Gd432 O455 2.506 . S
Gd432 O456 2.435 1_455 S
Gd432 O457 2.717 1_455 S
Gd432 O459 2.395 1_454 S
Gd432 O463 2.327 1_554 S
Gd433 C444 2.818 . S
Gd433 O453 2.395 1_656 S
Gd433 O457 2.327 1_556 S
Gd433 O458 2.377 . S
Gd433 O460 2.448 . S
Gd433 O461 2.506 . S
Gd433 O462 2.435 1_655 S
Gd433 O463 2.717 1_655 S
C434 O452 1.240 . S
C434 O453 1.240 . S
C435 Gd432 2.818 . S
C435 C436 1.510 . S
C435 O454 1.249 . S
C435 O455 1.252 . S
C436 C435 1.510 . S
C436 C437 1.404 . S
C436 C438 1.352 . S
C437 C436 1.404 . S
C437 C441 1.389 . S
C437 H464 0.930 . S
C438 C436 1.352 . S
C438 C440 1.374 . S
C438 H465 0.931 . S
C439 C440 1.359 . S
C439 C441 1.364 . S
C440 C438 1.374 . S
C440 C439 1.359 . S
C440 H466 0.931 . S
C441 C437 1.389 . S
C441 C439 1.364 . S
C441 H467 0.931 . S
C442 O456 1.256 . S
C442 O457 1.257 . S
C443 O458 1.240 . S
C443 O459 1.240 . S
C444 Gd433 2.818 . S
C444 C445 1.510 . S
C444 O460 1.249 . S
C444 O461 1.252 . S
C445 C444 1.510 . S
C445 C446 1.404 . S
C445 C447 1.352 . S
C446 C445 1.404 . S
C446 C450 1.389 . S
C446 H468 0.930 . S
C447 C445 1.352 . S
C447 C449 1.374 . S
C447 H469 0.931 . S
C448 C449 1.359 . S
C448 C450 1.364 . S
C449 C447 1.374 . S
C449 C448 1.359 . S
C449 H470 0.931 . S
C450 C446 1.389 . S
C450 C448 1.364 . S
C450 H471 0.931 . S
C451 O462 1.256 . S
C451 O463 1.257 . S
O452 Gd432 2.377 . S
O452 C434 1.240 . S
O453 Gd433 2.395 1_454 S
O453 C434 1.240 . S
O454 Gd432 2.448 . S
O454 C435 1.249 . S
O455 Gd432 2.506 . S
O455 C435 1.252 . S
O456 Gd432 2.435 1_655 S
O456 C442 1.256 . S
O457 Gd432 2.717 1_655 S
O457 Gd433 2.327 1_554 S
O457 C442 1.257 . S
O458 Gd433 2.377 . S
O458 C443 1.240 . S
O459 Gd432 2.395 1_656 S
O459 C443 1.240 . S
O460 Gd433 2.448 . S
O460 C444 1.249 . S
O461 Gd433 2.506 . S
O461 C444 1.252 . S
O462 Gd433 2.435 1_455 S
O462 C451 1.256 . S
O463 Gd432 2.327 1_556 S
O463 Gd433 2.717 1_455 S
O463 C451 1.257 . S
H464 C437 0.930 . S
H465 C438 0.931 . S
H466 C440 0.931 . S
H467 C441 0.931 . S
H468 C446 0.930 . S
H469 C447 0.931 . S
H470 C449 0.931 . S
H471 C450 0.931 . S
C472 C473 1.387 . S
C472 H476 0.950 . S
C472 C481 1.390 . S
C473 C472 1.387 . S
C473 C475 1.387 . S
H474 C481 0.950 . S
C475 C473 1.387 . S
C475 C477 1.390 . S
C475 H479 0.950 . S
H476 C472 0.950 . S
C477 C475 1.390 . S
C477 C478 1.387 . S
C477 H480 0.950 . S
C478 C477 1.387 . S
C478 C481 1.387 . S
H479 C475 0.950 . S
H480 C477 0.950 . S
C481 C472 1.390 . S
C481 H474 0.950 . S
C481 C478 1.387 . S
C482 C483 1.387 . S
C482 H486 0.950 . S
C482 C491 1.390 . S
C483 C482 1.387 . S
C483 C485 1.387 . S
H484 C491 0.950 . S
C485 C483 1.387 . S
C485 C487 1.390 . S
C485 H489 0.950 . S
H486 C482 0.950 . S
C487 C485 1.390 . S
C487 C488 1.387 . S
C487 H490 0.950 . S
C488 C487 1.387 . S
C488 C491 1.387 . S
H489 C485 0.950 . S
H490 C487 0.950 . S
C491 C482 1.390 . S
C491 H484 0.950 . S
C491 C488 1.387 . S
C492 C493 1.387 . S
C492 H496 0.950 . S
C492 C501 1.390 . S
C493 C492 1.387 . S
C493 C495 1.387 . S
H494 C501 0.950 . S
C495 C493 1.387 . S
C495 C497 1.390 . S
C495 H499 0.950 . S
H496 C492 0.950 . S
C497 C495 1.390 . S
C497 C498 1.387 . S
C497 H500 0.950 . S
C498 C497 1.387 . S
C498 C501 1.387 . S
H499 C495 0.950 . S
H500 C497 0.950 . S
C501 C492 1.390 . S
C501 H494 0.950 . S
C501 C498 1.387 . S
C502 C503 1.387 . S
C502 H506 0.950 . S
C502 C511 1.390 . S
C503 C502 1.387 . S
C503 C505 1.387 . S
H504 C511 0.950 . S
C505 C503 1.387 . S
C505 C507 1.390 . S
C505 H509 0.950 . S
H506 C502 0.950 . S
C507 C505 1.390 . S
C507 C508 1.387 . S
C507 H510 0.950 . S
C508 C507 1.387 . S
C508 C511 1.387 . S
H509 C505 0.950 . S
H510 C507 0.950 . S
C511 C502 1.390 . S
C511 H504 0.950 . S
C511 C508 1.387 . S
C512 C513 1.387 . S
C512 H516 0.950 . S
C512 C521 1.390 . S
C513 C512 1.387 . S
C513 C515 1.387 . S
H514 C521 0.950 . S
C515 C513 1.387 . S
C515 C517 1.390 . S
C515 H519 0.950 . S
H516 C512 0.950 . S
C517 C515 1.390 . S
C517 C518 1.387 . S
C517 H520 0.950 . S
C518 C517 1.387 . S
C518 C521 1.387 . S
H519 C515 0.950 . S
H520 C517 0.950 . S
C521 C512 1.390 . S
C521 H514 0.950 . S
C521 C518 1.387 . S
C522 C523 1.387 . S
C522 H526 0.950 . S
C522 C531 1.390 . S
C523 C522 1.387 . S
C523 C525 1.387 . S
H524 C531 0.950 . S
C525 C523 1.387 . S
C525 C527 1.390 . S
C525 H529 0.950 . S
H526 C522 0.950 . S
C527 C525 1.390 . S
C527 C528 1.387 . S
C527 H530 0.950 . S
C528 C527 1.387 . S
C528 C531 1.387 . S
H529 C525 0.950 . S
H530 C527 0.950 . S
C531 C522 1.390 . S
C531 H524 0.950 . S
C531 C528 1.387 . S
C532 C533 1.387 . S
C532 H536 0.950 . S
C532 C541 1.390 . S
C533 C532 1.387 . S
C533 C535 1.387 . S
H534 C541 0.950 . S
C535 C533 1.387 . S
C535 C537 1.390 . S
C535 H539 0.950 . S
H536 C532 0.950 . S
C537 C535 1.390 . S
C537 C538 1.387 . S
C537 H540 0.950 . S
C538 C537 1.387 . S
C538 C541 1.387 . S
H539 C535 0.950 . S
H540 C537 0.950 . S
C541 C532 1.390 . S
C541 H534 0.950 . S
C541 C538 1.387 . S
C542 C543 1.387 . S
C542 H546 0.950 . S
C542 C551 1.390 . S
C543 C542 1.387 . S
C543 C545 1.387 . S
H544 C551 0.950 . S
C545 C543 1.387 . S
C545 C547 1.390 . S
C545 H549 0.950 . S
H546 C542 0.950 . S
C547 C545 1.390 . S
C547 C548 1.387 . S
C547 H550 0.950 . S
C548 C547 1.387 . S
C548 C551 1.387 . S
H549 C545 0.950 . S
H550 C547 0.950 . S
C551 C542 1.390 . S
C551 H544 0.950 . S
C551 C548 1.387 . S
C552 C553 1.387 . S
C552 H556 0.950 . S
C552 C561 1.390 . S
C553 C552 1.387 . S
C553 C555 1.387 . S
H554 C561 0.950 . S
C555 C553 1.387 . S
C555 C557 1.390 . S
C555 H559 0.950 . S
H556 C552 0.950 . S
C557 C555 1.390 . S
C557 C558 1.387 . S
C557 H560 0.950 . S
C558 C557 1.387 . S
C558 C561 1.387 . S
H559 C555 0.950 . S
H560 C557 0.950 . S
C561 C552 1.390 . S
C561 H554 0.950 . S
C561 C558 1.387 . S
C562 C563 1.387 . S
C562 H566 0.950 . S
C562 C571 1.390 . S
C563 C562 1.387 . S
C563 C565 1.387 . S
H564 C571 0.950 . S
C565 C563 1.387 . S
C565 C567 1.390 . S
C565 H569 0.950 . S
H566 C562 0.950 . S
C567 C565 1.390 . S
C567 C568 1.387 . S
C567 H570 0.950 . S
C568 C567 1.387 . S
C568 C571 1.387 . S
H569 C565 0.950 . S
H570 C567 0.950 . S
C571 C562 1.390 . S
C571 H564 0.950 . S
C571 C568 1.387 . S
C572 C573 1.387 . S
C572 H576 0.950 . S
C572 C581 1.390 . S
C573 C572 1.387 . S
C573 C575 1.387 . S
H574 C581 0.950 . S
C575 C573 1.387 . S
C575 C577 1.390 . S
C575 H579 0.950 . S
H576 C572 0.950 . S
C577 C575 1.390 . S
C577 C578 1.387 . S
C577 H580 0.950 . S
C578 C577 1.387 . S
C578 C581 1.387 . S
H579 C575 0.950 . S
H580 C577 0.950 . S
C581 C572 1.390 . S
C581 H574 0.950 . S
C581 C578 1.387 . S
C582 C583 1.387 . S
C582 H586 0.950 . S
C582 C591 1.390 . S
C583 C582 1.387 . S
C583 C585 1.387 . S
H584 C591 0.950 . S
C585 C583 1.387 . S
C585 C587 1.390 . S
C585 H589 0.950 . S
H586 C582 0.950 . S
C587 C585 1.390 . S
C587 C588 1.387 . S
C587 H590 0.950 . S
C588 C587 1.387 . S
C588 C591 1.387 . S
H589 C585 0.950 . S
H590 C587 0.950 . S
C591 C582 1.390 . S
C591 H584 0.950 . S
C591 C588 1.387 . S
C592 C593 1.387 . S
C592 H596 0.950 . S
C592 C601 1.390 . S
C593 C592 1.387 . S
C593 C595 1.387 . S
H594 C601 0.950 . S
C595 C593 1.387 . S
C595 C597 1.390 . S
C595 H599 0.950 . S
H596 C592 0.950 . S
C597 C595 1.390 . S
C597 C598 1.387 . S
C597 H600 0.950 . S
C598 C597 1.387 . S
C598 C601 1.387 . S
H599 C595 0.950 . S
H600 C597 0.950 . S
C601 C592 1.390 . S
C601 H594 0.950 . S
C601 C598 1.387 . S
C602 C603 1.387 . S
C602 H606 0.950 . S
C602 C611 1.390 . S
C603 C602 1.387 . S
C603 C605 1.387 . S
H604 C611 0.950 . S
C605 C603 1.387 . S
C605 C607 1.390 . S
C605 H609 0.950 . S
H606 C602 0.950 . S
C607 C605 1.390 . S
C607 C608 1.387 . S
C607 H610 0.950 . S
C608 C607 1.387 . S
C608 C611 1.387 . S
H609 C605 0.950 . S
H610 C607 0.950 . S
C611 C602 1.390 . S
C611 H604 0.950 . S
C611 C608 1.387 . S
C612 C613 1.387 . S
C612 H616 0.950 . S
C612 C621 1.390 . S
C613 C612 1.387 . S
C613 C615 1.387 . S
H614 C621 0.950 . S
C615 C613 1.387 . S
C615 C617 1.390 . S
C615 H619 0.950 . S
H616 C612 0.950 . S
C617 C615 1.390 . S
C617 C618 1.387 . S
C617 H620 0.950 . S
C618 C617 1.387 . S
C618 C621 1.387 . S
H619 C615 0.950 . S
H620 C617 0.950 . S
C621 C612 1.390 . S
C621 H614 0.950 . S
C621 C618 1.387 . S
C622 C623 1.387 . S
C622 H626 0.950 . S
C622 C631 1.390 . S
C623 C622 1.387 . S
C623 C625 1.387 . S
H624 C631 0.950 . S
C625 C623 1.387 . S
C625 C627 1.390 . S
C625 H629 0.950 . S
H626 C622 0.950 . S
C627 C625 1.390 . S
C627 C628 1.387 . S
C627 H630 0.950 . S
C628 C627 1.387 . S
C628 C631 1.387 . S
H629 C625 0.950 . S
H630 C627 0.950 . S
C631 C622 1.390 . S
C631 H624 0.950 . S
C631 C628 1.387 . S
C632 C633 1.387 . S
C632 H636 0.950 . S
C632 C641 1.390 . S
C633 C632 1.387 . S
C633 C635 1.387 . S
H634 C641 0.950 . S
C635 C633 1.387 . S
C635 C637 1.390 . S
C635 H639 0.950 . S
H636 C632 0.950 . S
C637 C635 1.390 . S
C637 C638 1.387 . S
C637 H640 0.950 . S
C638 C637 1.387 . S
C638 C641 1.387 . S
H639 C635 0.950 . S
H640 C637 0.950 . S
C641 C632 1.390 . S
C641 H634 0.950 . S
C641 C638 1.387 . S
C642 C643 1.387 . S
C642 H646 0.950 . S
C642 C651 1.390 . S
C643 C642 1.387 . S
C643 C645 1.387 . S
H644 C651 0.950 . S
C645 C643 1.387 . S
C645 C647 1.390 . S
C645 H649 0.950 . S
H646 C642 0.950 . S
C647 C645 1.390 . S
C647 C648 1.387 . S
C647 H650 0.950 . S
C648 C647 1.387 . S
C648 C651 1.387 . S
H649 C645 0.950 . S
H650 C647 0.950 . S
C651 C642 1.390 . S
C651 H644 0.950 . S
C651 C648 1.387 . S
C652 C653 1.387 . S
C652 H656 0.950 . S
C652 C661 1.390 . S
C653 C652 1.387 . S
C653 C655 1.387 . S
H654 C661 0.950 . S
C655 C653 1.387 . S
C655 C657 1.390 . S
C655 H659 0.950 . S
H656 C652 0.950 . S
C657 C655 1.390 . S
C657 C658 1.387 . S
C657 H660 0.950 . S
C658 C657 1.387 . S
C658 C661 1.387 . S
H659 C655 0.950 . S
H660 C657 0.950 . S
C661 C652 1.390 . S
C661 H654 0.950 . S
C661 C658 1.387 . S
C662 C663 1.387 . S
C662 H666 0.950 . S
C662 C671 1.390 . S
C663 C662 1.387 . S
C663 C665 1.387 . S
H664 C671 0.950 . S
C665 C663 1.387 . S
C665 C667 1.390 . S
C665 H669 0.950 . S
H666 C662 0.950 . S
C667 C665 1.390 . S
C667 C668 1.387 . S
C667 H670 0.950 . S
C668 C667 1.387 . S
C668 C671 1.387 . S
H669 C665 0.950 . S
H670 C667 0.950 . S
C671 C662 1.390 . S
C671 H664 0.950 . S
C671 C668 1.387 . S
C672 C673 1.387 . S
C672 H676 0.950 . S
C672 C681 1.390 . S
C673 C672 1.387 . S
C673 C675 1.387 . S
H674 C681 0.950 . S
C675 C673 1.387 . S
C675 C677 1.390 . S
C675 H679 0.950 . S
H676 C672 0.950 . S
C677 C675 1.390 . S
C677 C678 1.387 . S
C677 H680 0.950 . S
C678 C677 1.387 . S
C678 C681 1.387 . S
H679 C675 0.950 . S
H680 C677 0.950 . S
C681 C672 1.390 . S
C681 H674 0.950 . S
C681 C678 1.387 . S
C682 C683 1.387 . S
C682 H686 0.950 . S
C682 C691 1.390 . S
C683 C682 1.387 . S
C683 C685 1.387 . S
H684 C691 0.950 . S
C685 C683 1.387 . S
C685 C687 1.390 . S
C685 H689 0.950 . S
H686 C682 0.950 . S
C687 C685 1.390 . S
C687 C688 1.387 . S
C687 H690 0.950 . S
C688 C687 1.387 . S
C688 C691 1.387 . S
H689 C685 0.950 . S
H690 C687 0.950 . S
C691 C682 1.390 . S
C691 H684 0.950 . S
C691 C688 1.387 . S
C692 C693 1.387 . S
C692 H696 0.950 . S
C692 C701 1.390 . S
C693 C692 1.387 . S
C693 C695 1.387 . S
H694 C701 0.950 . S
C695 C693 1.387 . S
C695 C697 1.390 . S
C695 H699 0.950 . S
H696 C692 0.950 . S
C697 C695 1.390 . S
C697 C698 1.387 . S
C697 H700 0.950 . S
C698 C697 1.387 . S
C698 C701 1.387 . S
H699 C695 0.950 . S
H700 C697 0.950 . S
C701 C692 1.390 . S
C701 H694 0.950 . S
C701 C698 1.387 . S
C702 C703 1.387 . S
C702 H706 0.950 . S
C702 C711 1.390 . S
C703 C702 1.387 . S
C703 C705 1.387 . S
H704 C711 0.950 . S
C705 C703 1.387 . S
C705 C707 1.390 . S
C705 H709 0.950 . S
H706 C702 0.950 . S
C707 C705 1.390 . S
C707 C708 1.387 . S
C707 H710 0.950 . S
C708 C707 1.387 . S
C708 C711 1.387 . S
H709 C705 0.950 . S
H710 C707 0.950 . S
C711 C702 1.390 . S
C711 H704 0.950 . S
C711 C708 1.387 . S
C473 C1 1.319 . S
C478 C319 1.439 . S
C483 C40 1.128 . S
C488 C368 1.123 . S
C498 C394 2.477 . S
C493 C99 2.519 . S
C503 C118 2.441 . S
C508 C442 2.384 . S
C518 C354 2.631 . S
C513 C16 2.418 . S
C528 C322 0.936 . S
C523 C60 0.952 . S
C538 C443 1.937 . S
C533 C79 1.979 . S
C548 C411 1.659 . S
C543 C138 1.671 . S
C553 C21 1.732 . S
C558 C439 1.867 . S
C568 C371 2.341 . S
C563 C94 2.427 . S
C573 C133 2.330 . S
C578 C323 2.324 . S
C583 C55 1.156 . S
C588 C408 1.193 . S
C598 C328 1.439 . S
C593 C157 1.330 . S
C603 C196 1.128 . S
C608 C359 1.124 . S
C613 C255 2.518 . S
C618 C403 2.477 . S
C623 C289 2.438 . S
C628 C451 2.379 . S
C633 C172 2.405 . S
C638 C363 2.629 . S
C648 C331 0.935 . S
C643 C216 0.944 . S
C658 C434 1.939 . S
C653 C235 1.983 . S
C668 C402 1.657 . S
C663 C294 1.674 . S
C673 C177 1.754 . S
C678 C448 1.863 . S
C688 C362 2.342 . S
C683 C250 2.428 . S
C698 C314 2.328 . S
C693 C274 2.332 . S
C703 C211 1.155 . S
C708 C399 1.189 . S
