# Generated by pormake.
# Topology eea, (3,6)-cn, num edge types: 1
# Building blocks:
#     Node 0, Type 0, BuildingBlock: KAKCAD_clean_linker_0, # of connection points: 3
#     Node 1, Type 0, BuildingBlock: KAKCAD_clean_linker_0, # of connection points: 3
#     Node 2, Type 0, BuildingBlock: KAKCAD_clean_linker_0, # of connection points: 3
#     Node 3, Type 0, BuildingBlock: KAKCAD_clean_linker_0, # of connection points: 3
#     Node 4, Type 0, BuildingBlock: KAKCAD_clean_linker_0, # of connection points: 3
#     Node 5, Type 0, BuildingBlock: KAKCAD_clean_linker_0, # of connection points: 3
#     Node 6, Type 0, BuildingBlock: KAKCAD_clean_linker_0, # of connection points: 3
#     Node 7, Type 0, BuildingBlock: KAKCAD_clean_linker_0, # of connection points: 3
#     Node 8, Type 0, BuildingBlock: KAKCAD_clean_linker_0, # of connection points: 3
#     Node 9, Type 0, BuildingBlock: KAKCAD_clean_linker_0, # of connection points: 3
#     Node 10, Type 0, BuildingBlock: KAKCAD_clean_linker_0, # of connection points: 3
#     Node 11, Type 0, BuildingBlock: KAKCAD_clean_linker_0, # of connection points: 3
#     Node 12, Type 0, BuildingBlock: KAKCAD_clean_linker_0, # of connection points: 3
#     Node 13, Type 0, BuildingBlock: KAKCAD_clean_linker_0, # of connection points: 3
#     Node 14, Type 0, BuildingBlock: KAKCAD_clean_linker_0, # of connection points: 3
#     Node 15, Type 0, BuildingBlock: KAKCAD_clean_linker_0, # of connection points: 3
#     Node 16, Type 0, BuildingBlock: KAKCAD_clean_linker_0, # of connection points: 3
#     Node 17, Type 0, BuildingBlock: KAKCAD_clean_linker_0, # of connection points: 3
#     Node 18, Type 1, BuildingBlock: CIFDUS_clean_sbu_1, # of connection points: 6
#     Node 19, Type 1, BuildingBlock: CIFDUS_clean_sbu_1, # of connection points: 6
#     Node 20, Type 1, BuildingBlock: CIFDUS_clean_sbu_1, # of connection points: 6
#     Node 21, Type 1, BuildingBlock: CIFDUS_clean_sbu_1, # of connection points: 6
#     Node 22, Type 1, BuildingBlock: CIFDUS_clean_sbu_1, # of connection points: 6
#     Node 23, Type 1, BuildingBlock: CIFDUS_clean_sbu_1, # of connection points: 6
#     Node 24, Type 1, BuildingBlock: CIFDUS_clean_sbu_1, # of connection points: 6
#     Node 25, Type 1, BuildingBlock: CIFDUS_clean_sbu_1, # of connection points: 6
#     Node 26, Type 1, BuildingBlock: CIFDUS_clean_sbu_1, # of connection points: 6
#     Edge 27, Type (0, 1), BuildingBlock: TEMPAE_clean_linker_10, # of connection points: 2
#     Edge 28, Type (0, 1), BuildingBlock: TEMPAE_clean_linker_10, # of connection points: 2
#     Edge 29, Type (0, 1), BuildingBlock: TEMPAE_clean_linker_10, # of connection points: 2
#     Edge 30, Type (0, 1), BuildingBlock: TEMPAE_clean_linker_10, # of connection points: 2
#     Edge 31, Type (0, 1), BuildingBlock: TEMPAE_clean_linker_10, # of connection points: 2
#     Edge 32, Type (0, 1), BuildingBlock: TEMPAE_clean_linker_10, # of connection points: 2
#     Edge 33, Type (0, 1), BuildingBlock: TEMPAE_clean_linker_10, # of connection points: 2
#     Edge 34, Type (0, 1), BuildingBlock: TEMPAE_clean_linker_10, # of connection points: 2
#     Edge 35, Type (0, 1), BuildingBlock: TEMPAE_clean_linker_10, # of connection points: 2
#     Edge 36, Type (0, 1), BuildingBlock: TEMPAE_clean_linker_10, # of connection points: 2
#     Edge 37, Type (0, 1), BuildingBlock: TEMPAE_clean_linker_10, # of connection points: 2
#     Edge 38, Type (0, 1), BuildingBlock: TEMPAE_clean_linker_10, # of connection points: 2
#     Edge 39, Type (0, 1), BuildingBlock: TEMPAE_clean_linker_10, # of connection points: 2
#     Edge 40, Type (0, 1), BuildingBlock: TEMPAE_clean_linker_10, # of connection points: 2
#     Edge 41, Type (0, 1), BuildingBlock: TEMPAE_clean_linker_10, # of connection points: 2
#     Edge 42, Type (0, 1), BuildingBlock: TEMPAE_clean_linker_10, # of connection points: 2
#     Edge 43, Type (0, 1), BuildingBlock: TEMPAE_clean_linker_10, # of connection points: 2
#     Edge 44, Type (0, 1), BuildingBlock: TEMPAE_clean_linker_10, # of connection points: 2
#     Edge 45, Type (0, 1), BuildingBlock: TEMPAE_clean_linker_10, # of connection points: 2
#     Edge 46, Type (0, 1), BuildingBlock: TEMPAE_clean_linker_10, # of connection points: 2
#     Edge 47, Type (0, 1), BuildingBlock: TEMPAE_clean_linker_10, # of connection points: 2
#     Edge 48, Type (0, 1), BuildingBlock: TEMPAE_clean_linker_10, # of connection points: 2
#     Edge 49, Type (0, 1), BuildingBlock: TEMPAE_clean_linker_10, # of connection points: 2
#     Edge 50, Type (0, 1), BuildingBlock: TEMPAE_clean_linker_10, # of connection points: 2
#     Edge 51, Type (0, 1), BuildingBlock: TEMPAE_clean_linker_10, # of connection points: 2
#     Edge 52, Type (0, 1), BuildingBlock: TEMPAE_clean_linker_10, # of connection points: 2
#     Edge 53, Type (0, 1), BuildingBlock: TEMPAE_clean_linker_10, # of connection points: 2
#     Edge 54, Type (0, 1), BuildingBlock: TEMPAE_clean_linker_10, # of connection points: 2
#     Edge 55, Type (0, 1), BuildingBlock: TEMPAE_clean_linker_10, # of connection points: 2
#     Edge 56, Type (0, 1), BuildingBlock: TEMPAE_clean_linker_10, # of connection points: 2
#     Edge 57, Type (0, 1), BuildingBlock: TEMPAE_clean_linker_10, # of connection points: 2
#     Edge 58, Type (0, 1), BuildingBlock: TEMPAE_clean_linker_10, # of connection points: 2
#     Edge 59, Type (0, 1), BuildingBlock: TEMPAE_clean_linker_10, # of connection points: 2
#     Edge 60, Type (0, 1), BuildingBlock: TEMPAE_clean_linker_10, # of connection points: 2
#     Edge 61, Type (0, 1), BuildingBlock: TEMPAE_clean_linker_10, # of connection points: 2
#     Edge 62, Type (0, 1), BuildingBlock: TEMPAE_clean_linker_10, # of connection points: 2
#     Edge 63, Type (0, 1), BuildingBlock: TEMPAE_clean_linker_10, # of connection points: 2
#     Edge 64, Type (0, 1), BuildingBlock: TEMPAE_clean_linker_10, # of connection points: 2
#     Edge 65, Type (0, 1), BuildingBlock: TEMPAE_clean_linker_10, # of connection points: 2
#     Edge 66, Type (0, 1), BuildingBlock: TEMPAE_clean_linker_10, # of connection points: 2
#     Edge 67, Type (0, 1), BuildingBlock: TEMPAE_clean_linker_10, # of connection points: 2
#     Edge 68, Type (0, 1), BuildingBlock: TEMPAE_clean_linker_10, # of connection points: 2
#     Edge 69, Type (0, 1), BuildingBlock: TEMPAE_clean_linker_10, # of connection points: 2
#     Edge 70, Type (0, 1), BuildingBlock: TEMPAE_clean_linker_10, # of connection points: 2
#     Edge 71, Type (0, 1), BuildingBlock: TEMPAE_clean_linker_10, # of connection points: 2
#     Edge 72, Type (0, 1), BuildingBlock: TEMPAE_clean_linker_10, # of connection points: 2
#     Edge 73, Type (0, 1), BuildingBlock: TEMPAE_clean_linker_10, # of connection points: 2
#     Edge 74, Type (0, 1), BuildingBlock: TEMPAE_clean_linker_10, # of connection points: 2
#     Edge 75, Type (0, 1), BuildingBlock: TEMPAE_clean_linker_10, # of connection points: 2
#     Edge 76, Type (0, 1), BuildingBlock: TEMPAE_clean_linker_10, # of connection points: 2
#     Edge 77, Type (0, 1), BuildingBlock: TEMPAE_clean_linker_10, # of connection points: 2
#     Edge 78, Type (0, 1), BuildingBlock: TEMPAE_clean_linker_10, # of connection points: 2
#     Edge 79, Type (0, 1), BuildingBlock: TEMPAE_clean_linker_10, # of connection points: 2
#     Edge 80, Type (0, 1), BuildingBlock: TEMPAE_clean_linker_10, # of connection points: 2
# Relax obj value: 0.100
# Max RMSD: 0.184
# Mean RMSD: 0.093
data_MOF--net-eea--node1-CIFDUS_clean_sbu_1--node2-KAKCAD_clean_linker_0--edge1-TEMPAE_clean_linker_10
_symmetry_space_group_name_H-M    P1
_symmetry_Int_Tables_number       1
_symmetry_cell_setting            triclinic
loop_
_symmetry_equiv_pos_as_xyz
'x, y, z'
_cell_length_a     67.336058
_cell_length_b     66.696503
_cell_length_c     68.201884
_cell_angle_alpha  90.422634
_cell_angle_beta   90.158163
_cell_angle_gamma 120.02097
loop_
_atom_site_label
_atom_site_type_symbol
_atom_site_fract_x
_atom_site_fract_y
_atom_site_fract_z
_atom_type_partial_charge
C0 C 0.28378 0.15289 0.47494 0.0
C1 C 0.29858 0.14528 0.48168 0.0
C2 C 0.27939 0.15278 0.45495 0.0
C3 C 0.28968 0.14503 0.44123 0.0
C4 C 0.30509 0.13812 0.44791 0.0
C5 C 0.3096 0.13838 0.46798 0.0
C6 C 0.28234 0.14205 0.42037 0.0
C7 C 0.27821 0.15851 0.41143 0.0
C8 C 0.26584 0.15343 0.39374 0.0
C9 C 0.25877 0.13207 0.38434 0.0
C10 C 0.26349 0.11576 0.39279 0.0
C11 C 0.27558 0.12097 0.41063 0.0
C12 C 0.25233 0.0918 0.38506 0.0
C13 C 0.22833 0.07871 0.38401 0.0
C14 C 0.26527 0.08126 0.38045 0.0
C15 C 0.25431 0.05789 0.37492 0.0
C16 C 0.23015 0.0444 0.37446 0.0
C17 C 0.25692 0.16856 0.38706 0.0
C18 C 0.24689 0.17658 0.40077 0.0
C19 C 0.25683 0.1738 0.36714 0.0
C20 C 0.2466 0.18659 0.36108 0.0
C21 C 0.23601 0.19399 0.37484 0.0
C22 C 0.23659 0.18913 0.39474 0.0
C23 C 0.21735 0.05524 0.37897 0.0
H24 H 0.27533 0.15864 0.48516 0.0
H25 H 0.26715 0.15787 0.45034 0.0
H26 H 0.31328 0.13211 0.43766 0.0
H27 H 0.3211 0.13244 0.47282 0.0
H28 H 0.28338 0.17481 0.41892 0.0
H29 H 0.27774 0.10771 0.41777 0.0
H30 H 0.24829 0.12748 0.37116 0.0
H31 H 0.21802 0.08644 0.38788 0.0
H32 H 0.28383 0.0911 0.38124 0.0
H33 H 0.26486 0.05045 0.37108 0.0
H34 H 0.24632 0.17251 0.41618 0.0
H35 H 0.26446 0.16783 0.35628 0.0
H36 H 0.1988 0.04552 0.3792 0.0
H37 H 0.22883 0.19487 0.40567 0.0
H38 H 0.24637 0.19011 0.34563 0.0
C39 C 0.86198 0.16726 0.46925 0.0
C40 C 0.85489 0.14896 0.48258 0.0
C41 C 0.86542 0.16405 0.44949 0.0
C42 C 0.86158 0.14243 0.44275 0.0
C43 C 0.85463 0.12426 0.45616 0.0
C44 C 0.85129 0.12747 0.4758 0.0
C45 C 0.86443 0.13834 0.42182 0.0
C46 C 0.88424 0.15368 0.41151 0.0
C47 C 0.88793 0.14836 0.39225 0.0
C48 C 0.87125 0.12738 0.38348 0.0
C49 C 0.85179 0.11168 0.39394 0.0
C50 C 0.84815 0.11766 0.41274 0.0
C51 C 0.83706 0.08767 0.38672 0.0
C52 C 0.82807 0.08282 0.36756 0.0
C53 C 0.83262 0.06924 0.39921 0.0
C54 C 0.81958 0.04644 0.39271 0.0
C55 C 0.81058 0.04149 0.37361 0.0
C56 C 0.91006 0.16363 0.38213 0.0
C57 C 0.92185 0.18771 0.38537 0.0
C58 C 0.92022 0.15416 0.36993 0.0
C59 C 0.94166 0.1683 0.36153 0.0
C60 C 0.95384 0.19225 0.36543 0.0
C61 C 0.94352 0.20176 0.37735 0.0
C62 C 0.81469 0.05982 0.36109 0.0
H63 H 0.8651 0.18409 0.47416 0.0
H64 H 0.87077 0.17833 0.43945 0.0
H65 H 0.85189 0.10749 0.45148 0.0
H66 H 0.84568 0.11301 0.48569 0.0
H67 H 0.89734 0.16904 0.41899 0.0
H68 H 0.8329 0.10561 0.42068 0.0
H69 H 0.87382 0.12265 0.36888 0.0
H70 H 0.83129 0.09677 0.35769 0.0
H71 H 0.83961 0.07248 0.41397 0.0
H72 H 0.81645 0.0326 0.40269 0.0
H73 H 0.91454 0.19579 0.39437 0.0
H74 H 0.91202 0.1357 0.36728 0.0
H75 H 0.8079 0.05636 0.34626 0.0
H76 H 0.95241 0.22003 0.38106 0.0
H77 H 0.94881 0.16033 0.3522 0.0
C78 C 0.86883 0.72114 0.47687 0.0
C79 C 0.84698 0.70433 0.48331 0.0
C80 C 0.87299 0.72617 0.45697 0.0
C81 C 0.85537 0.71459 0.44302 0.0
C82 C 0.83358 0.69757 0.44938 0.0
C83 C 0.82944 0.69243 0.46931 0.0
C84 C 0.85959 0.72123 0.42209 0.0
C85 C 0.88019 0.7257 0.41323 0.0
C86 C 0.88555 0.73463 0.39421 0.0
C87 C 0.8699 0.73862 0.38381 0.0
C88 C 0.84934 0.73455 0.3925 0.0
C89 C 0.84412 0.72544 0.41153 0.0
C90 C 0.83472 0.7424 0.38276 0.0
C91 C 0.84481 0.76429 0.37393 0.0
C92 C 0.8107 0.72894 0.38343 0.0
C93 C 0.79707 0.7375 0.37597 0.0
C94 C 0.8072 0.75972 0.36775 0.0
C95 C 0.90866 0.74264 0.38618 0.0
C96 C 0.92809 0.75738 0.39751 0.0
C97 C 0.91151 0.73709 0.36686 0.0
C98 C 0.93349 0.74632 0.35898 0.0
C99 C 0.95279 0.76159 0.37018 0.0
C100 C 0.94996 0.76691 0.38953 0.0
C101 C 0.8312 0.77285 0.36651 0.0
H102 H 0.88263 0.73089 0.48725 0.0
H103 H 0.88985 0.73968 0.45258 0.0
H104 H 0.81974 0.68823 0.43892 0.0
H105 H 0.81252 0.6791 0.47375 0.0
H106 H 0.89237 0.72278 0.42133 0.0
H107 H 0.82878 0.72318 0.41866 0.0
H108 H 0.87429 0.74607 0.3693 0.0
H109 H 0.86328 0.77523 0.37342 0.0
H110 H 0.80246 0.71197 0.39005 0.0
H111 H 0.77862 0.72706 0.37733 0.0
H112 H 0.92634 0.76214 0.41236 0.0
H113 H 0.89675 0.72576 0.35786 0.0
H114 H 0.83947 0.78995 0.36013 0.0
H115 H 0.96471 0.7785 0.39843 0.0
H116 H 0.93542 0.74198 0.34403 0.0
C117 C 0.16202 0.28654 0.53388 0.0
C118 C 0.15286 0.29901 0.52478 0.0
C119 C 0.15879 0.28153 0.55382 0.0
C120 C 0.14682 0.28936 0.56556 0.0
C121 C 0.1382 0.30245 0.55663 0.0
C122 C 0.14105 0.3071 0.53649 0.0
C123 C 0.14239 0.2826 0.58666 0.0
C124 C 0.15818 0.27902 0.59751 0.0
C125 C 0.1525 0.26847 0.61597 0.0
C126 C 0.13145 0.26307 0.62433 0.0
C127 C 0.11564 0.26697 0.61405 0.0
C128 C 0.12125 0.2769 0.59532 0.0
C129 C 0.09204 0.25731 0.62161 0.0
C130 C 0.0799 0.23408 0.62751 0.0
C131 C 0.08118 0.27062 0.62232 0.0
C132 C 0.05848 0.26075 0.62877 0.0
C133 C 0.04627 0.23734 0.63418 0.0
C134 C 0.16665 0.25959 0.62501 0.0
C135 C 0.17442 0.24753 0.61329 0.0
C136 C 0.17065 0.26104 0.64537 0.0
C137 C 0.18193 0.25034 0.65383 0.0
C138 C 0.18906 0.23773 0.64209 0.0
C139 C 0.18546 0.23673 0.62172 0.0
C140 C 0.05722 0.22417 0.63362 0.0
H141 H 0.17169 0.28045 0.52559 0.0
H142 H 0.16528 0.27093 0.55983 0.0
H143 H 0.12907 0.309 0.56515 0.0
H144 H 0.13358 0.31662 0.53007 0.0
H145 H 0.17465 0.28352 0.59128 0.0
H146 H 0.10838 0.27845 0.58697 0.0
H147 H 0.12666 0.25438 0.63833 0.0
H148 H 0.08777 0.22335 0.6269 0.0
H149 H 0.09022 0.28857 0.61785 0.0
H150 H 0.05028 0.27118 0.62904 0.0
H151 H 0.17129 0.24574 0.59762 0.0
H152 H 0.16485 0.27024 0.65475 0.0
H153 H 0.04814 0.20612 0.63781 0.0
H154 H 0.19118 0.22754 0.61225 0.0
H155 H 0.18462 0.25149 0.66956 0.0
C156 C 0.6954 0.83557 0.5348 0.0
C157 C 0.70402 0.85623 0.52415 0.0
C158 C 0.69945 0.83624 0.55504 0.0
C159 C 0.71235 0.85759 0.5649 0.0
C160 C 0.72131 0.87813 0.55398 0.0
C161 C 0.71704 0.87745 0.53396 0.0
C162 C 0.71789 0.85902 0.58621 0.0
C163 C 0.72453 0.84412 0.59462 0.0
C164 C 0.7348 0.84879 0.61339 0.0
C165 C 0.73918 0.86927 0.62334 0.0
C166 C 0.73283 0.88446 0.61491 0.0
C167 C 0.72029 0.87788 0.59728 0.0
C168 C 0.74304 0.90895 0.62192 0.0
C169 C 0.7472 0.91517 0.64191 0.0
C170 C 0.75058 0.92673 0.60797 0.0
C171 C 0.76223 0.94987 0.61367 0.0
C172 C 0.76724 0.95618 0.63347 0.0
C173 C 0.74364 0.83384 0.62109 0.0
C174 C 0.73127 0.80973 0.61793 0.0
C175 C 0.76535 0.84368 0.63016 0.0
C176 C 0.77484 0.82993 0.63512 0.0
C177 C 0.76297 0.80602 0.63101 0.0
C178 C 0.74083 0.796 0.62276 0.0
C179 C 0.75916 0.93862 0.64765 0.0
H180 H 0.6852 0.81896 0.52754 0.0
H181 H 0.69237 0.82011 0.56296 0.0
H182 H 0.73208 0.8949 0.56081 0.0
H183 H 0.72424 0.8936 0.52604 0.0
H184 H 0.72334 0.82987 0.58596 0.0
H185 H 0.7143 0.88888 0.59116 0.0
H186 H 0.74863 0.87399 0.63706 0.0
H187 H 0.74156 0.902 0.65306 0.0
H188 H 0.74835 0.92294 0.5924 0.0
H189 H 0.76771 0.96293 0.60241 0.0
H190 H 0.71436 0.8015 0.61124 0.0
H191 H 0.77553 0.86218 0.6327 0.0
H192 H 0.76268 0.94299 0.66307 0.0
H193 H 0.73118 0.77765 0.61935 0.0
H194 H 0.79171 0.83813 0.64187 0.0
C195 C 0.13519 0.84556 0.52824 0.0
C196 C 0.15774 0.85207 0.52275 0.0
C197 C 0.12949 0.84503 0.54799 0.0
C198 C 0.14623 0.85105 0.56267 0.0
C199 C 0.16852 0.85651 0.55723 0.0
C200 C 0.17421 0.85698 0.53748 0.0
C201 C 0.14134 0.85468 0.5832 0.0
C202 C 0.12053 0.83923 0.59236 0.0
C203 C 0.11532 0.84447 0.61102 0.0
C204 C 0.13093 0.86539 0.62032 0.0
C205 C 0.15133 0.8812 0.61109 0.0
C206 C 0.15667 0.87546 0.59282 0.0
C207 C 0.16549 0.90504 0.6189 0.0
C208 C 0.15499 0.91781 0.6246 0.0
C209 C 0.18952 0.91604 0.61852 0.0
C210 C 0.20279 0.93962 0.62293 0.0
C211 C 0.19227 0.95266 0.62771 0.0
C212 C 0.09255 0.82987 0.62 0.0
C213 C 0.07254 0.82415 0.60929 0.0
C214 C 0.09075 0.82406 0.63996 0.0
C215 C 0.0694 0.81337 0.64918 0.0
C216 C 0.04957 0.80874 0.63867 0.0
C217 C 0.05127 0.81382 0.61858 0.0
C218 C 0.16826 0.9414 0.62897 0.0
H219 H 0.122 0.8412 0.51722 0.0
H220 H 0.11224 0.84096 0.55168 0.0
H221 H 0.18176 0.86113 0.56827 0.0
H222 H 0.1917 0.86198 0.53372 0.0
H223 H 0.10828 0.82339 0.58487 0.0
H224 H 0.17198 0.8881 0.58531 0.0
H225 H 0.12657 0.86999 0.63429 0.0
H226 H 0.13648 0.90985 0.62472 0.0
H227 H 0.19802 0.90652 0.61435 0.0
H228 H 0.2213 0.94773 0.62234 0.0
H229 H 0.07347 0.82862 0.59395 0.0
H230 H 0.10596 0.82831 0.64851 0.0
H231 H 0.15968 0.951 0.63255 0.0
H232 H 0.03612 0.81 0.6101 0.0
H233 H 0.06847 0.80943 0.66464 0.0
C234 C 0.95535 0.48693 0.80985 0.0
C235 C 0.96839 0.47685 0.81542 0.0
C236 C 0.94926 0.48661 0.79023 0.0
C237 C 0.95648 0.47661 0.77565 0.0
C238 C 0.97038 0.46734 0.78129 0.0
C239 C 0.97606 0.46724 0.80104 0.0
C240 C 0.94785 0.47418 0.75508 0.0
C241 C 0.943 0.49073 0.74723 0.0
C242 C 0.93076 0.48649 0.72954 0.0
C243 C 0.92457 0.46607 0.71894 0.0
C244 C 0.92979 0.44962 0.72623 0.0
C245 C 0.94157 0.45385 0.74418 0.0
C246 C 0.91996 0.42652 0.71678 0.0
C247 C 0.89627 0.41346 0.71314 0.0
C248 C 0.93368 0.41665 0.71285 0.0
C249 C 0.92379 0.39392 0.7057 0.0
C250 C 0.89987 0.38039 0.70279 0.0
C251 C 0.9213 0.50147 0.72381 0.0
C252 C 0.90972 0.5073 0.73782 0.0
C253 C 0.92216 0.50855 0.70433 0.0
C254 C 0.91141 0.52107 0.69896 0.0
C255 C 0.89929 0.52628 0.71294 0.0
C256 C 0.89875 0.51947 0.73243 0.0
C257 C 0.88632 0.39062 0.70638 0.0
H258 H 0.94915 0.49429 0.8208 0.0
H259 H 0.93808 0.4934 0.7867 0.0
H260 H 0.9766 0.45983 0.77051 0.0
H261 H 0.98631 0.45953 0.80511 0.0
H262 H 0.94783 0.50659 0.7553 0.0
H263 H 0.94414 0.44037 0.75032 0.0
H264 H 0.91448 0.46231 0.70559 0.0
H265 H 0.88528 0.42059 0.71633 0.0
H266 H 0.95202 0.42646 0.71548 0.0
H267 H 0.93494 0.38695 0.70263 0.0
H268 H 0.90849 0.50179 0.75289 0.0
H269 H 0.93096 0.50424 0.69325 0.0
H270 H 0.86786 0.38079 0.70468 0.0
H271 H 0.88973 0.52349 0.7435 0.0
H272 H 0.91205 0.52615 0.68382 0.0
C273 C 0.53004 0.49856 0.80369 0.0
C274 C 0.52066 0.47843 0.81516 0.0
C275 C 0.5339 0.49745 0.78361 0.0
C276 C 0.52846 0.47618 0.77477 0.0
C277 C 0.52015 0.4564 0.78657 0.0
C278 C 0.51617 0.45748 0.80644 0.0
C279 C 0.53103 0.47391 0.75336 0.0
C280 C 0.55117 0.4893 0.74344 0.0
C281 C 0.55515 0.48406 0.72429 0.0
C282 C 0.53882 0.46311 0.71528 0.0
C283 C 0.51871 0.44763 0.72513 0.0
C284 C 0.51435 0.45405 0.74351 0.0
C285 C 0.5044 0.42325 0.71826 0.0
C286 C 0.49942 0.41738 0.69829 0.0
C287 C 0.49683 0.40535 0.73205 0.0
C288 C 0.48468 0.3823 0.72615 0.0
C289 C 0.4801 0.37629 0.70625 0.0
C290 C 0.57759 0.49893 0.71476 0.0
C291 C 0.58788 0.52317 0.71531 0.0
C292 C 0.5894 0.48891 0.70587 0.0
C293 C 0.61126 0.50278 0.69817 0.0
C294 C 0.62185 0.52704 0.69915 0.0
C295 C 0.60974 0.53708 0.70752 0.0
C296 C 0.4873 0.39406 0.69233 0.0
H297 H 0.5337 0.51497 0.81012 0.0
H298 H 0.54049 0.51299 0.77492 0.0
H299 H 0.51656 0.43989 0.78041 0.0
H300 H 0.50946 0.44183 0.81501 0.0
H301 H 0.56442 0.50442 0.7511 0.0
H302 H 0.49849 0.44249 0.75094 0.0
H303 H 0.54241 0.45829 0.70108 0.0
H304 H 0.50498 0.43075 0.68732 0.0
H305 H 0.50078 0.40905 0.74751 0.0
H306 H 0.47896 0.36911 0.73731 0.0
H307 H 0.57907 0.53136 0.7219 0.0
H308 H 0.58215 0.4703 0.70553 0.0
H309 H 0.484 0.38995 0.67684 0.0
H310 H 0.61728 0.55572 0.70824 0.0
H311 H 0.62022 0.49446 0.69215 0.0
C312 C 0.53326 0.05534 0.80971 0.0
C313 C 0.51373 0.03458 0.81533 0.0
C314 C 0.53752 0.0613 0.78998 0.0
C315 C 0.52216 0.04689 0.77542 0.0
C316 C 0.50256 0.02624 0.78086 0.0
C317 C 0.49849 0.02001 0.80062 0.0
C318 C 0.52638 0.05401 0.75467 0.0
C319 C 0.54757 0.06018 0.74614 0.0
C320 C 0.55261 0.06909 0.72709 0.0
C321 C 0.53611 0.07165 0.71651 0.0
C322 C 0.51503 0.06623 0.72506 0.0
C323 C 0.51014 0.0569 0.74405 0.0
C324 C 0.49939 0.07284 0.71526 0.0
C325 C 0.50842 0.094 0.70526 0.0
C326 C 0.47547 0.05918 0.71726 0.0
C327 C 0.46106 0.06708 0.71039 0.0
C328 C 0.47024 0.08866 0.70118 0.0
C329 C 0.57589 0.07798 0.71897 0.0
C330 C 0.59524 0.09245 0.73051 0.0
C331 C 0.57897 0.07313 0.69949 0.0
C332 C 0.60102 0.08271 0.69167 0.0
C333 C 0.6203 0.09756 0.70313 0.0
C334 C 0.6172 0.10221 0.72265 0.0
C335 C 0.49397 0.10174 0.69818 0.0
H336 H 0.54513 0.06728 0.82057 0.0
H337 H 0.55257 0.07751 0.78612 0.0
H338 H 0.49053 0.01484 0.76982 0.0
H339 H 0.4835 0.00371 0.80431 0.0
H340 H 0.56029 0.05835 0.75449 0.0
H341 H 0.49436 0.05337 0.75118 0.0
H342 H 0.54017 0.07897 0.70195 0.0
H343 H 0.52675 0.10521 0.70373 0.0
H344 H 0.46791 0.04263 0.72456 0.0
H345 H 0.44274 0.05655 0.71265 0.0
H346 H 0.59337 0.0967 0.7455 0.0
H347 H 0.56432 0.06197 0.69031 0.0
H348 H 0.50148 0.11854 0.6913 0.0
H349 H 0.63182 0.11335 0.73186 0.0
H350 H 0.60299 0.07884 0.67659 0.0
C351 C 0.82617 0.61729 0.86493 0.0
C352 C 0.82211 0.63458 0.85772 0.0
C353 C 0.8212 0.6101 0.8843 0.0
C354 C 0.81207 0.62003 0.89705 0.0
C355 C 0.80733 0.63688 0.88977 0.0
C356 C 0.81232 0.64411 0.87024 0.0
C357 C 0.80787 0.61271 0.91787 0.0
C358 C 0.82412 0.60947 0.9281 0.0
C359 C 0.81949 0.59959 0.9468 0.0
C360 C 0.79891 0.5947 0.95597 0.0
C361 C 0.78235 0.59807 0.94617 0.0
C362 C 0.78707 0.60707 0.927 0.0
C363 C 0.75952 0.59054 0.95529 0.0
C364 C 0.74955 0.57152 0.96806 0.0
C365 C 0.74703 0.60165 0.95073 0.0
C366 C 0.7249 0.59335 0.95794 0.0
C367 C 0.71481 0.57411 0.97047 0.0
C368 C 0.83507 0.59225 0.95573 0.0
C369 C 0.84586 0.58335 0.94366 0.0
C370 C 0.83843 0.59283 0.97619 0.0
C371 C 0.85201 0.58447 0.98429 0.0
C372 C 0.86276 0.57583 0.97206 0.0
C373 C 0.85972 0.57549 0.95172 0.0
C374 C 0.72774 0.56371 0.97579 0.0
H375 H 0.83312 0.60917 0.85552 0.0
H376 H 0.82446 0.59663 0.8893 0.0
H377 H 0.80028 0.64482 0.89926 0.0
H378 H 0.80901 0.65749 0.86508 0.0
H379 H 0.84032 0.61418 0.92116 0.0
H380 H 0.77416 0.60857 0.91869 0.0
H381 H 0.79547 0.58746 0.97053 0.0
H382 H 0.75817 0.56204 0.97178 0.0
H383 H 0.75416 0.61665 0.94134 0.0
H384 H 0.71554 0.60174 0.95317 0.0
H385 H 0.8432 0.58188 0.92793 0.0
H386 H 0.83063 0.59974 0.98595 0.0
H387 H 0.72094 0.54923 0.98574 0.0
H388 H 0.86771 0.56864 0.94208 0.0
H389 H 0.85426 0.58489 5e-05 0.0
C390 C 0.35403 0.16514 0.86897 0.0
C391 C 0.36574 0.18457 0.85683 0.0
C392 C 0.35968 0.16667 0.88896 0.0
C393 C 0.37703 0.18766 0.897 0.0
C394 C 0.38928 0.20665 0.8846 0.0
C395 C 0.3837 0.20514 0.86482 0.0
C396 C 0.38295 0.19038 0.91816 0.0
C397 C 0.38799 0.1749 0.92771 0.0
C398 C 0.39879 0.18059 0.94624 0.0
C399 C 0.4041 0.20172 0.95532 0.0
C400 C 0.39881 0.21713 0.94594 0.0
C401 C 0.38734 0.21081 0.92783 0.0
C402 C 0.40887 0.24139 0.95292 0.0
C403 C 0.40777 0.24689 0.97267 0.0
C404 C 0.42061 0.2594 0.93952 0.0
C405 C 0.43108 0.2824 0.94562 0.0
C406 C 0.43018 0.28803 0.96531 0.0
C407 C 0.40785 0.16625 0.95438 0.0
C408 C 0.39369 0.1422 0.95598 0.0
C409 C 0.4313 0.17638 0.95886 0.0
C410 C 0.44066 0.1626 0.96403 0.0
C411 C 0.42669 0.1384 0.96503 0.0
C412 C 0.40298 0.12843 0.96144 0.0
C413 C 0.41822 0.2701 0.97881 0.0
H414 H 0.34014 0.14903 0.86315 0.0
H415 H 0.35015 0.15172 0.89819 0.0
H416 H 0.40328 0.22283 0.89023 0.0
H417 H 0.39346 0.22017 0.85573 0.0
H418 H 0.38542 0.15948 0.92004 0.0
H419 H 0.38338 0.22278 0.92049 0.0
H420 H 0.41364 0.20677 0.96902 0.0
H421 H 0.39885 0.23329 0.98328 0.0
H422 H 0.42212 0.25573 0.92427 0.0
H423 H 0.43991 0.29584 0.93487 0.0
H424 H 0.37552 0.13405 0.95271 0.0
H425 H 0.44263 0.19488 0.95748 0.0
H426 H 0.41734 0.27404 0.99411 0.0
H427 H 0.39159 0.10993 0.96261 0.0
H428 H 0.45899 0.17088 0.96651 0.0
C429 C 0.79935 0.17141 0.86257 0.0
C430 C 0.82211 0.18109 0.85634 0.0
C431 C 0.79453 0.17274 0.88226 0.0
C432 C 0.8124 0.18344 0.89617 0.0
C433 C 0.83518 0.19222 0.8899 0.0
C434 C 0.83999 0.19132 0.87011 0.0
C435 C 0.80742 0.18741 0.91664 0.0
C436 C 0.78691 0.17147 0.92592 0.0
C437 C 0.78066 0.17696 0.944 0.0
C438 C 0.79552 0.19832 0.95307 0.0
C439 C 0.81621 0.21403 0.94424 0.0
C440 C 0.82213 0.2085 0.92618 0.0
C441 C 0.83045 0.23748 0.95248 0.0
C442 C 0.82113 0.25201 0.95476 0.0
C443 C 0.85381 0.24615 0.9563 0.0
C444 C 0.86781 0.26925 0.96195 0.0
C445 C 0.85878 0.28424 0.96339 0.0
C446 C 0.75769 0.16166 0.95249 0.0
C447 C 0.7381 0.15156 0.94033 0.0
C448 C 0.75495 0.15861 0.97291 0.0
C449 C 0.73304 0.14647 0.98101 0.0
C450 C 0.71363 0.13705 0.96882 0.0
C451 C 0.71624 0.1393 0.94845 0.0
C452 C 0.83518 0.27523 0.96002 0.0
H453 H 0.78534 0.16354 0.85205 0.0
H454 H 0.77684 0.16622 0.88637 0.0
H455 H 0.84936 0.20019 0.90021 0.0
H456 H 0.85766 0.19869 0.86552 0.0
H457 H 0.77553 0.15498 0.9189 0.0
H458 H 0.83751 0.22147 0.91898 0.0
H459 H 0.79062 0.20324 0.96662 0.0
H460 H 0.80315 0.24566 0.95162 0.0
H461 H 0.86125 0.23511 0.95467 0.0
H462 H 0.88575 0.2754 0.96498 0.0
H463 H 0.73957 0.15389 0.9246 0.0
H464 H 0.76972 0.16595 0.98263 0.0
H465 H 0.82766 0.28624 0.96076 0.0
H466 H 0.70133 0.1321 0.93887 0.0
H467 H 0.73122 0.14466 0.99678 0.0
C468 C 0.61191 0.81431 0.14334 0.0
C469 C 0.62966 0.81069 0.14974 0.0
C470 C 0.60741 0.81426 0.12336 0.0
C471 C 0.62038 0.81026 0.10938 0.0
C472 C 0.63845 0.80706 0.11577 0.0
C473 C 0.64323 0.80755 0.13582 0.0
C474 C 0.61349 0.80751 0.08844 0.0
C475 C 0.60803 0.82318 0.07982 0.0
C476 C 0.59654 0.81816 0.06167 0.0
C477 C 0.59151 0.79762 0.05168 0.0
C478 C 0.59721 0.78191 0.05998 0.0
C479 C 0.60862 0.78721 0.0782 0.0
C480 C 0.58785 0.75832 0.05154 0.0
C481 C 0.56432 0.74503 0.04704 0.0
C482 C 0.6016 0.74802 0.04998 0.0
C483 C 0.59183 0.72466 0.04464 0.0
C484 C 0.56812 0.71116 0.04118 0.0
C485 C 0.58654 0.83232 0.05481 0.0
C486 C 0.57546 0.8394 0.06831 0.0
C487 C 0.58644 0.83747 0.03486 0.0
C488 C 0.57508 0.84907 0.02855 0.0
C489 C 0.56344 0.85545 0.04208 0.0
C490 C 0.56411 0.85083 0.06203 0.0
C491 C 0.55452 0.72161 0.04207 0.0
H492 H 0.60132 0.8169 0.15384 0.0
H493 H 0.59317 0.81647 0.11887 0.0
H494 H 0.64864 0.8039 0.10527 0.0
H495 H 0.65701 0.8047 0.1405 0.0
H496 H 0.61164 0.83877 0.08783 0.0
H497 H 0.61175 0.77452 0.08524 0.0
H498 H 0.5818 0.79309 0.03807 0.0
H499 H 0.55327 0.75243 0.04835 0.0
H500 H 0.61976 0.7579 0.05338 0.0
H501 H 0.60261 0.71688 0.04403 0.0
H502 H 0.57488 0.83542 0.08374 0.0
H503 H 0.59492 0.83232 0.02414 0.0
H504 H 0.53621 0.71149 0.03935 0.0
H505 H 0.55565 0.85592 0.07282 0.0
H506 H 0.57489 0.85251 0.01308 0.0
C507 C 0.20219 0.83951 0.13628 0.0
C508 C 0.19097 0.82097 0.14929 0.0
C509 C 0.20534 0.83534 0.11665 0.0
C510 C 0.19759 0.81259 0.1099 0.0
C511 C 0.1871 0.79429 0.12335 0.0
C512 C 0.18355 0.79841 0.1427 0.0
C513 C 0.20003 0.80745 0.08901 0.0
C514 C 0.22003 0.82155 0.07826 0.0
C515 C 0.22305 0.81492 0.05923 0.0
C516 C 0.20569 0.7937 0.05129 0.0
C517 C 0.18624 0.77917 0.06225 0.0
C518 C 0.18295 0.7868 0.08042 0.0
C519 C 0.17143 0.75452 0.05671 0.0
C520 C 0.16159 0.74764 0.03796 0.0
C521 C 0.16764 0.73753 0.07059 0.0
C522 C 0.15396 0.71414 0.06603 0.0
C523 C 0.14349 0.70705 0.04751 0.0
C524 C 0.2452 0.8288 0.04861 0.0
C525 C 0.25833 0.85299 0.05104 0.0
C526 C 0.254 0.8178 0.03661 0.0
C527 C 0.27536 0.83047 0.02769 0.0
C528 C 0.28899 0.85445 0.03094 0.0
C529 C 0.28001 0.86559 0.04253 0.0
C530 C 0.14757 0.72406 0.03343 0.0
H531 H 0.20817 0.8571 0.14123 0.0
H532 H 0.21347 0.84983 0.10674 0.0
H533 H 0.18168 0.77663 0.11901 0.0
H534 H 0.17527 0.78395 0.15264 0.0
H535 H 0.23376 0.83692 0.08521 0.0
H536 H 0.16736 0.77573 0.08839 0.0
H537 H 0.20771 0.78777 0.03701 0.0
H538 H 0.16439 0.76046 0.027 0.0
H539 H 0.17553 0.74235 0.08501 0.0
H540 H 0.15176 0.70159 0.07704 0.0
H541 H 0.2521 0.86225 0.05982 0.0
H542 H 0.24486 0.79921 0.03453 0.0
H543 H 0.13963 0.7192 0.01904 0.0
H544 H 0.28999 0.88398 0.04566 0.0
H545 H 0.28134 0.82126 0.01855 0.0
C546 C 0.20577 0.38958 0.1446 0.0
C547 C 0.18359 0.37373 0.15112 0.0
C548 C 0.21019 0.39379 0.12458 0.0
C549 C 0.19253 0.3822 0.11064 0.0
C550 C 0.1706 0.36563 0.11713 0.0
C551 C 0.16618 0.36145 0.13713 0.0
C552 C 0.19645 0.38879 0.08963 0.0
C553 C 0.21689 0.39344 0.08032 0.0
C554 C 0.2216 0.4021 0.0611 0.0
C555 C 0.20521 0.40532 0.05104 0.0
C556 C 0.18479 0.401 0.06015 0.0
C557 C 0.18049 0.39254 0.07939 0.0
C558 C 0.16917 0.40769 0.05047 0.0
C559 C 0.17821 0.42834 0.03974 0.0
C560 C 0.14529 0.39445 0.053 0.0
C561 C 0.13093 0.40222 0.04573 0.0
C562 C 0.14015 0.42322 0.03559 0.0
C563 C 0.24455 0.41035 0.05229 0.0
C564 C 0.26441 0.42262 0.06388 0.0
C565 C 0.24696 0.40783 0.03205 0.0
C566 C 0.26872 0.41797 0.02356 0.0
C567 C 0.28851 0.43077 0.03514 0.0
C568 C 0.28608 0.43258 0.05544 0.0
C569 C 0.16383 0.43593 0.03227 0.0
H570 H 0.21953 0.39939 0.15501 0.0
H571 H 0.22721 0.40685 0.12008 0.0
H572 H 0.15673 0.35616 0.10674 0.0
H573 H 0.14905 0.34873 0.14167 0.0
H574 H 0.22932 0.3907 0.08818 0.0
H575 H 0.16535 0.39027 0.08689 0.0
H576 H 0.20883 0.4123 0.03636 0.0
H577 H 0.19653 0.43926 0.03782 0.0
H578 H 0.13772 0.37829 0.06092 0.0
H579 H 0.11265 0.392 0.04831 0.0
H580 H 0.26328 0.42521 0.07944 0.0
H581 H 0.23201 0.39827 0.02272 0.0
H582 H 0.17137 0.45233 0.02472 0.0
H583 H 0.30098 0.44181 0.06488 0.0
H584 H 0.27001 0.41619 0.00789 0.0
C585 C 0.48061 0.94424 0.19649 0.0
C586 C 0.48291 0.96505 0.18947 0.0
C587 C 0.4765 0.93868 0.21626 0.0
C588 C 0.47422 0.95359 0.22949 0.0
C589 C 0.47541 0.9739 0.22251 0.0
C590 C 0.47985 0.97967 0.20263 0.0
C591 C 0.47135 0.94782 0.25055 0.0
C592 C 0.48728 0.94335 0.25989 0.0
C593 C 0.48308 0.93363 0.27865 0.0
C594 C 0.46306 0.92939 0.28843 0.0
C595 C 0.44684 0.93372 0.27929 0.0
C596 C 0.45134 0.94342 0.26043 0.0
C597 C 0.42384 0.92481 0.28812 0.0
C598 C 0.41246 0.90244 0.29612 0.0
C599 C 0.41237 0.93756 0.28735 0.0
C600 C 0.38979 0.92785 0.29402 0.0
C601 C 0.3784 0.90524 0.30135 0.0
C602 C 0.49807 0.92526 0.28688 0.0
C603 C 0.50656 0.91437 0.27448 0.0
C604 C 0.50316 0.927 0.30707 0.0
C605 C 0.51653 0.91812 0.31462 0.0
C606 C 0.52519 0.90758 0.30207 0.0
C607 C 0.52005 0.90578 0.28197 0.0
C608 C 0.38995 0.89275 0.30262 0.0
H609 H 0.48216 0.93223 0.18671 0.0
H610 H 0.47522 0.9227 0.22128 0.0
H611 H 0.47364 0.9856 0.2325 0.0
H612 H 0.48156 0.99586 0.19772 0.0
H613 H 0.50261 0.94663 0.25209 0.0
H614 H 0.43851 0.94576 0.2528 0.0
H615 H 0.45937 0.92135 0.30272 0.0
H616 H 0.4206 0.89196 0.2966 0.0
H617 H 0.42073 0.95484 0.28132 0.0
H618 H 0.38098 0.93766 0.29289 0.0
H619 H 0.50241 0.91203 0.25898 0.0
H620 H 0.49694 0.93534 0.317 0.0
H621 H 0.38131 0.87524 0.30817 0.0
H622 H 0.52621 0.89736 0.27204 0.0
H623 H 0.52039 0.91979 0.33018 0.0
C624 C 0.02282 0.4986 0.20125 0.0
C625 C 0.03245 0.51865 0.18967 0.0
C626 C 0.0285 0.50009 0.22125 0.0
C627 C 0.04395 0.52163 0.22987 0.0
C628 C 0.0541 0.54137 0.21796 0.0
C629 C 0.04835 0.53991 0.19822 0.0
C630 C 0.05034 0.52414 0.25102 0.0
C631 C 0.05641 0.5091 0.26001 0.0
C632 C 0.06711 0.51437 0.27867 0.0
C633 C 0.07213 0.53543 0.28798 0.0
C634 C 0.0664 0.55076 0.27889 0.0
C635 C 0.05397 0.54399 0.26123 0.0
C636 C 0.07688 0.57542 0.28535 0.0
C637 C 0.07862 0.58199 0.30521 0.0
C638 C 0.08635 0.59288 0.27111 0.0
C639 C 0.09736 0.61616 0.27645 0.0
C640 C 0.09957 0.62285 0.29622 0.0
C641 C 0.0756 0.49925 0.28686 0.0
C642 C 0.06327 0.47513 0.2835 0.0
C643 C 0.09706 0.50891 0.29644 0.0
C644 C 0.10638 0.49501 0.30158 0.0
C645 C 0.09465 0.4713 0.29695 0.0
C646 C 0.07282 0.46138 0.28826 0.0
C647 C 0.08975 0.60555 0.3106 0.0
H648 H 0.01055 0.48194 0.19496 0.0
H649 H 0.02057 0.48455 0.23001 0.0
H650 H 0.06675 0.5581 0.22387 0.0
H651 H 0.05651 0.55553 0.18955 0.0
H652 H 0.05439 0.49422 0.2518 0.0
H653 H 0.04888 0.55541 0.25448 0.0
H654 H 0.08157 0.54051 0.30171 0.0
H655 H 0.07147 0.56898 0.31651 0.0
H656 H 0.08582 0.58861 0.25569 0.0
H657 H 0.10437 0.62901 0.265 0.0
H658 H 0.04646 0.46693 0.27665 0.0
H659 H 0.10728 0.52737 0.29911 0.0
H660 H 0.09119 0.61024 0.32599 0.0
H661 H 0.06333 0.44302 0.28485 0.0
H662 H 0.12326 0.50299 0.30832 0.0
C663 C 0.46516 0.509 0.19604 0.0
C664 C 0.48737 0.51744 0.18859 0.0
C665 C 0.46169 0.50949 0.21618 0.0
C666 C 0.48033 0.51829 0.22937 0.0
C667 C 0.50235 0.52549 0.222 0.0
C668 C 0.50585 0.52516 0.20184 0.0
C669 C 0.47712 0.52245 0.2503 0.0
C670 C 0.45722 0.50699 0.26042 0.0
C671 C 0.45193 0.51303 0.27874 0.0
C672 C 0.46812 0.53422 0.28761 0.0
C673 C 0.48872 0.54943 0.27808 0.0
C674 C 0.4928 0.54344 0.25936 0.0
C675 C 0.5051 0.57274 0.28635 0.0
C676 C 0.49712 0.58628 0.29561 0.0
C677 C 0.52882 0.5826 0.28313 0.0
C678 C 0.54391 0.60588 0.2876 0.0
C679 C 0.53569 0.6196 0.29585 0.0
C680 C 0.42864 0.49844 0.28745 0.0
C681 C 0.40942 0.48592 0.27512 0.0
C682 C 0.42501 0.49782 0.30784 0.0
C683 C 0.40277 0.4858 0.31552 0.0
C684 C 0.38362 0.47369 0.30304 0.0
C685 C 0.38742 0.47343 0.2828 0.0
C686 C 0.51234 0.60947 0.30045 0.0
H687 H 0.45048 0.50247 0.18626 0.0
H688 H 0.44451 0.50398 0.22128 0.0
H689 H 0.51704 0.53208 0.23177 0.0
H690 H 0.52319 0.53181 0.19662 0.0
H691 H 0.44552 0.49049 0.2536 0.0
H692 H 0.50761 0.55592 0.25123 0.0
H693 H 0.46441 0.53936 0.30158 0.0
H694 H 0.479 0.57941 0.29816 0.0
H695 H 0.53565 0.57253 0.27648 0.0
H696 H 0.56194 0.61331 0.28422 0.0
H697 H 0.41105 0.48613 0.25934 0.0
H698 H 0.43927 0.50679 0.31795 0.0
H699 H 0.50568 0.61982 0.30684 0.0
H700 H 0.37333 0.46371 0.27267 0.0
H701 H 0.40064 0.48643 0.33119 0.0
O702 O 0.46926 0.96919 0.00349 0.0
Mn703 Mn 0.50161 0.99822 0.00316 0.0
O704 O 0.46012 0.97658 0.03276 0.0
Mn705 Mn 0.48142 0.00817 0.03167 0.0
O706 O 0.5342 0.02819 0.00306 0.0
O707 O 0.51477 0.97747 0.99724 0.0
Mn708 Mn 0.53587 0.99046 0.97918 0.0
O709 O 0.49745 0.00205 0.97294 0.0
O710 O 0.55841 0.01815 0.98943 0.0
O711 O 0.50717 0.99225 0.0328 0.0
O712 O 0.50685 0.02062 0.04745 0.0
O713 O 0.53522 0.96343 0.98461 0.0
O714 O 0.52088 0.99216 0.95734 0.0
C715 C 0.47545 0.02917 0.01511 0.0
C716 C 0.45567 0.9631 0.01808 0.0
C717 C 0.55442 0.03264 0.99816 0.0
C718 C 0.51936 0.96079 0.99676 0.0
C719 C 0.50551 0.99794 0.95722 0.0
C720 C 0.5128 0.00572 0.04771 0.0
O721 O 0.48701 0.01976 0.0074 0.0
O722 O 0.46785 0.0245 0.0329 0.0
O723 O 0.02873 0.49335 0.00291 0.0
Mn724 Mn 0.00075 0.49822 0.00295 0.0
O725 O 0.02362 0.47768 0.03221 0.0
Mn726 Mn 0.99261 0.46855 0.03216 0.0
O727 O 0.97308 0.50397 0.00188 0.0
O728 O 0.02168 0.53178 0.99537 0.0
Mn729 Mn 0.01195 0.53432 0.972 0.0
O730 O 0.99366 0.48578 0.97364 0.0
O731 O 0.98199 0.52795 0.97598 0.0
O732 O 0.00789 0.51197 0.03242 0.0
O733 O 0.9817 0.48258 0.04798 0.0
O734 O 0.03567 0.56312 0.97749 0.0
O735 O 0.01597 0.5155 0.95479 0.0
C736 C 0.96948 0.44154 0.01651 0.0
C737 C 0.03566 0.48597 0.017 0.0
C738 C 0.96853 0.51584 0.98973 0.0
C739 C 0.0361 0.55384 0.99399 0.0
C740 C 0.00306 0.49401 0.95705 0.0
C741 C 0.99508 0.50386 0.04754 0.0
O742 O 0.97893 0.46247 0.00867 0.0
O743 O 0.97572 0.43867 0.03378 0.0
O744 O 0.53507 0.51272 -0.00075 0.0
Mn745 Mn 0.50064 0.50282 9e-05 0.0
O746 O 0.54639 0.53382 0.97202 0.0
Mn747 Mn 0.52342 0.54156 0.971 0.0
O748 O 0.46612 0.49232 0.00145 0.0
O749 O 0.49352 0.46868 0.00517 0.0
Mn750 Mn 0.48508 0.47062 0.0294 0.0
O751 O 0.50441 0.51492 0.02964 0.0
O752 O 0.45885 0.47339 0.02966 0.0
O753 O 0.49624 0.49285 0.96989 0.0
O754 O 0.50061 0.52379 0.95361 0.0
O755 O 0.4796 0.44206 0.02954 0.0
O756 O 0.51024 0.48986 0.04417 0.0
C757 C 0.52031 0.55688 0.99713 0.0
C758 C 0.54977 0.52314 0.9858 0.0
C759 C 0.45254 0.48137 0.01552 0.0
C760 C 0.48765 0.4479 0.01195 0.0
C761 C 0.51111 0.50895 0.0449 0.0
C762 C 0.49383 0.50227 0.9542 0.0
O763 O 0.50736 0.53505 0.99298 0.0
O764 O 0.53214 0.56948 0.98255 0.0
O765 O 0.13348 0.31226 0.33888 0.0
Mn766 Mn 0.16816 0.33551 0.33633 0.0
O767 O 0.12323 0.32624 0.36488 0.0
Mn768 Mn 0.15001 0.35516 0.3677 0.0
O769 O 0.20334 0.35941 0.33448 0.0
O770 O 0.17382 0.30846 0.32907 0.0
Mn771 Mn 0.18676 0.31852 0.30595 0.0
O772 O 0.16263 0.34296 0.30719 0.0
O773 O 0.21441 0.34553 0.30937 0.0
O774 O 0.1725 0.32831 0.36583 0.0
O775 O 0.17238 0.35619 0.38376 0.0
O776 O 0.18686 0.29204 0.30772 0.0
O777 O 0.16633 0.31803 0.2883 0.0
C778 C 0.1578 0.37817 0.34372 0.0
C779 C 0.1188 0.31078 0.35163 0.0
C780 C 0.21884 0.36051 0.32286 0.0
C781 C 0.17742 0.29135 0.32444 0.0
C782 C 0.15981 0.33254 0.29064 0.0
C783 C 0.17594 0.33935 0.38221 0.0
O784 O 0.16189 0.36115 0.34411 0.0
O785 O 0.15015 0.38155 0.36006 0.0
O786 O 0.68618 0.81891 0.34102 0.0
Mn787 Mn 0.66175 0.82909 0.33836 0.0
O788 O 0.67179 0.79348 0.36606 0.0
Mn789 Mn 0.6423 0.78939 0.36788 0.0
O790 O 0.63627 0.83793 0.33754 0.0
O791 O 0.6876 0.86328 0.33238 0.0
Mn792 Mn 0.67456 0.86371 0.30959 0.0
O793 O 0.65437 0.81693 0.30881 0.0
O794 O 0.64605 0.86129 0.31187 0.0
O795 O 0.66747 0.83951 0.36838 0.0
O796 O 0.63914 0.80969 0.38383 0.0
O797 O 0.69769 0.89206 0.31025 0.0
O798 O 0.67819 0.84622 0.29098 0.0
C799 C 0.62194 0.7751 0.34213 0.0
C800 C 0.68764 0.80543 0.3537 0.0
C801 C 0.63231 0.85007 0.32551 0.0
C802 C 0.70199 0.88454 0.32629 0.0
C803 C 0.66396 0.82507 0.29232 0.0
C804 C 0.65523 0.83057 0.38383 0.0
O805 O 0.63755 0.79651 0.34451 0.0
O806 O 0.61771 0.76288 0.35782 0.0
O807 O 0.19656 0.83002 0.33264 0.0
Mn808 Mn 0.16482 0.82996 0.33542 0.0
O809 O 0.21751 0.86356 0.34469 0.0
Mn810 Mn 0.20135 0.8674 0.32487 0.0
O811 O 0.13202 0.82684 0.3376 0.0
O812 O 0.15019 0.79485 0.33582 0.0
Mn813 Mn 0.12845 0.78563 0.35384 0.0
O814 O 0.1691 0.83347 0.36588 0.0
O815 O 0.1068 0.78885 0.3402 0.0
O816 O 0.16127 0.82729 0.30534 0.0
O817 O 0.19741 0.8539 0.29994 0.0
O818 O 0.13705 0.76378 0.35319 0.0
O819 O 0.1375 0.80268 0.37681 0.0
C820 C 0.18952 0.88862 0.33025 0.0
C821 C 0.21594 0.84484 0.33988 0.0
C822 C 0.11136 0.80947 0.33693 0.0
C823 C 0.15254 0.77747 0.34102 0.0
C824 C 0.1557 0.82183 0.37985 0.0
C825 C 0.17801 0.83811 0.29369 0.0
O826 O 0.17643 0.86637 0.33464 0.0
O827 O 0.20946 0.89632 0.32225 0.0
O828 O 0.80343 0.64069 0.66954 0.0
Mn829 Mn 0.83664 0.66861 0.67042 0.0
O830 O 0.78747 0.64578 0.69606 0.0
Mn831 Mn 0.80803 0.67722 0.69847 0.0
O832 O 0.87063 0.69671 0.66985 0.0
O833 O 0.84696 0.64526 0.66375 0.0
Mn834 Mn 0.86407 0.65646 0.64278 0.0
O835 O 0.83191 0.67426 0.6407 0.0
O836 O 0.88871 0.68483 0.64911 0.0
O837 O 0.84148 0.66382 0.70076 0.0
O838 O 0.82947 0.68475 0.71758 0.0
O839 O 0.86502 0.6304 0.64738 0.0
O840 O 0.84587 0.65599 0.62273 0.0
C841 C 0.81117 0.69807 0.67407 0.0
C842 C 0.78699 0.63356 0.68165 0.0
C843 C 0.88854 0.70008 0.66032 0.0
C844 C 0.85166 0.62858 0.66175 0.0
C845 C 0.83461 0.66645 0.62422 0.0
C846 C 0.84067 0.67412 0.7167 0.0
O847 O 0.82603 0.69152 0.67792 0.0
O848 O 0.7962 0.6936 0.68769 0.0
O849 O 0.35681 0.15672 0.67011 0.0
Mn850 Mn 0.33169 0.16568 0.6701 0.0
O851 O 0.34997 0.14185 0.69966 0.0
Mn852 Mn 0.31902 0.13353 0.69848 0.0
O853 O 0.30651 0.17525 0.66891 0.0
O854 O 0.35717 0.1994 0.66532 0.0
Mn855 Mn 0.34828 0.20426 0.64243 0.0
O856 O 0.3251 0.15573 0.64008 0.0
O857 O 0.31969 0.20156 0.64492 0.0
O858 O 0.33756 0.1766 0.70033 0.0
O859 O 0.30933 0.14765 0.71543 0.0
O860 O 0.37322 0.23159 0.64732 0.0
O861 O 0.35152 0.18601 0.62429 0.0
C862 C 0.301 0.10956 0.67792 0.0
C863 C 0.36259 0.14905 0.68468 0.0
C864 C 0.30434 0.18917 0.65731 0.0
C865 C 0.37371 0.22081 0.6629 0.0
C866 C 0.33581 0.16517 0.62423 0.0
C867 C 0.32434 0.16869 0.71533 0.0
O868 O 0.30589 0.13116 0.67494 0.0
O869 O 0.30386 0.10354 0.69531 0.0
O870 O 0.86489 0.16375 0.6662 0.0
Mn871 Mn 0.83331 0.164 0.6688 0.0
O872 O 0.88604 0.19678 0.67887 0.0
Mn873 Mn 0.86949 0.20013 0.65903 0.0
O874 O 0.80007 0.16014 0.67125 0.0
O875 O 0.81907 0.12902 0.67014 0.0
Mn876 Mn 0.7983 0.12024 0.6891 0.0
O877 O 0.83839 0.16875 0.69892 0.0
O878 O 0.776 0.12197 0.67522 0.0
O879 O 0.8295 0.16085 0.63864 0.0
O880 O 0.866 0.1866 0.63427 0.0
O881 O 0.80877 0.09977 0.68917 0.0
O882 O 0.80696 0.13893 0.71121 0.0
C883 C 0.8587 0.22245 0.66267 0.0
C884 C 0.88408 0.17789 0.67413 0.0
C885 C 0.77962 0.14223 0.67161 0.0
C886 C 0.82273 0.1126 0.67571 0.0
C887 C 0.82504 0.15837 0.71317 0.0
C888 C 0.84665 0.17162 0.62731 0.0
O889 O 0.84472 0.2005 0.66754 0.0
O890 O 0.8789 0.22919 0.6556 0.0
C891 C 0.32663 0.85689 0.02293 0.0
C892 C 0.31305 0.86746 0.02358 0.0
C893 C 0.35006 0.86962 0.01847 0.0
C894 C 0.36041 0.89368 0.0152 0.0
C895 C 0.34663 0.9042 0.01459 0.0
C896 C 0.32309 0.89091 0.01854 0.0
C897 C 0.36402 0.85761 0.01868 0.0
C898 C 0.35701 0.92986 0.01117 0.0
C899 C 0.42032 0.93359 0.03454 0.0
C900 C 0.4329 0.94186 0.01722 0.0
C901 C 0.39693 0.91713 0.03403 0.0
C902 C 0.38582 0.90846 0.01573 0.0
C903 C 0.39878 0.91533 0.99824 0.0
C904 C 0.42226 0.93204 -0.00082 0.0
C905 C 0.38383 0.91019 0.05306 0.0
C906 C 0.38761 0.90603 0.9785 0.0
H907 H 0.31934 0.83888 0.0269 0.0
H908 H 0.31273 0.89915 0.01833 0.0
H909 H 0.37652 0.86372 0.0065 0.0
H910 H 0.37389 0.86175 0.03262 0.0
H911 H 0.35298 0.8385 0.01747 0.0
H912 H 0.34375 0.93494 0.00921 0.0
H913 H 0.368 0.93962 0.02392 0.0
H914 H 0.36811 0.93516 0.99804 0.0
H915 H 0.42853 0.94089 0.04855 0.0
H916 H 0.4319 0.93836 0.98573 0.0
H917 H 0.37423 0.89107 0.05441 0.0
H918 H 0.37111 0.91613 0.05323 0.0
H919 H 0.39526 0.91767 0.06608 0.0
H920 H 0.37671 0.8869 0.97889 0.0
H921 H 0.40046 0.91074 0.96667 0.0
H922 H 0.3763 0.91312 0.9748 0.0
C923 C 0.12682 0.4418 0.01107 0.0
C924 C 0.12544 0.43286 0.02988 0.0
C925 C 0.11369 0.45201 0.00596 0.0
C926 C 0.09915 0.45353 0.02011 0.0
C927 C 0.09773 0.44451 0.03912 0.0
C928 C 0.11084 0.4342 0.04373 0.0
C929 C 0.11535 0.46117 0.9855 0.0
C930 C 0.0824 0.44577 0.05462 0.0
C931 C 0.07635 0.49517 0.01897 0.0
C932 C 0.05356 0.4801 0.01357 0.0
C933 C 0.09214 0.48723 0.01957 0.0
C934 C 0.08458 0.46367 0.0151 0.0
C935 C 0.06185 0.44891 0.00844 0.0
C936 C 0.04662 0.45739 0.0077 0.0
C937 C 0.11639 0.50354 0.02637 0.0
C938 C 0.053 0.42365 0.00373 0.0
H939 H 0.13809 0.44069 0.00035 0.0
H940 H 0.11005 0.42762 0.05837 0.0
H941 H 0.09815 0.45271 0.97844 0.0
H942 H 0.12156 0.48002 0.98617 0.0
H943 H 0.12713 0.45822 0.97611 0.0
H944 H 0.0834 0.43804 0.06871 0.0
H945 H 0.08727 0.46409 0.0574 0.0
H946 H 0.06431 0.43655 0.04944 0.0
H947 H 0.08149 0.5127 0.02362 0.0
H948 H 0.02881 0.4458 0.00369 0.0
H949 H 0.12883 0.50181 0.01688 0.0
H950 H 0.11873 0.49904 0.0415 0.0
H951 H 0.12049 0.52188 0.02633 0.0
H952 H 0.06513 0.42161 0.99411 0.0
H953 H 0.0359 0.41538 0.99643 0.0
H954 H 0.05147 0.41423 0.0175 0.0
C955 C 0.54092 0.67054 0.05104 0.0
C956 C 0.55735 0.68592 0.03788 0.0
C957 C 0.53111 0.64648 0.04862 0.0
C958 C 0.53753 0.63768 0.03241 0.0
C959 C 0.55382 0.65326 0.01884 0.0
C960 C 0.56377 0.67722 0.02192 0.0
C961 C 0.51425 0.63053 0.06358 0.0
C962 C 0.56076 0.64462 0.00106 0.0
C963 C 0.53446 0.57985 0.02732 0.0
C964 C 0.5167 0.56893 0.01353 0.0
C965 C 0.53988 0.60138 0.03554 0.0
C966 C 0.52749 0.61227 0.02941 0.0
C967 C 0.50767 0.59982 0.0175 0.0
C968 C 0.5023 0.57804 0.00993 0.0
C969 C 0.56064 0.61367 0.04878 0.0
C970 C 0.494 0.61072 0.01043 0.0
H971 H 0.53616 0.67741 0.06348 0.0
H972 H 0.57642 0.68921 0.01174 0.0
H973 H 0.498 0.61769 0.05631 0.0
H974 H 0.52136 0.62069 0.07097 0.0
H975 H 0.51034 0.64009 0.0749 0.0
H976 H 0.5727 0.65896 0.99144 0.0
H977 H 0.56925 0.63484 0.00577 0.0
H978 H 0.54534 0.63258 0.99234 0.0
H979 H 0.5458 0.57295 0.02988 0.0
H980 H 0.48882 0.56977 0.99896 0.0
H981 H 0.55767 0.62331 0.06065 0.0
H982 H 0.57549 0.6264 0.0401 0.0
H983 H 0.5652 0.60135 0.05546 0.0
H984 H 0.49154 0.62064 0.02235 0.0
H985 H 0.47693 0.59753 0.00459 0.0
H986 H 0.50354 0.62301 0.9985 0.0
C987 C 0.86629 0.32124 0.97979 0.0
C988 C 0.87402 0.30924 0.96798 0.0
C989 C 0.88083 0.34457 0.98483 0.0
C990 C 0.90381 0.35602 0.97831 0.0
C991 C 0.91152 0.34429 0.96586 0.0
C992 C 0.89645 0.32114 0.96066 0.0
C993 C 0.87199 0.3565 0.99817 0.0
C994 C 0.93611 0.35568 0.95913 0.0
C995 C 0.94258 0.42073 0.98805 0.0
C996 C 0.95266 0.42029 0.00592 0.0
C997 C 0.92647 0.39989 0.97872 0.0
C998 C 0.9207 0.37841 0.98744 0.0
C999 C 0.93112 0.378 0.00529 0.0
C1000 C 0.94681 0.39882 0.01426 0.0
C1001 C 0.91548 0.40077 0.95969 0.0
C1002 C 0.92571 0.35552 0.01506 0.0
H1003 H 0.84911 0.31221 0.98573 0.0
H1004 H 0.90244 0.31224 0.95111 0.0
H1005 H 0.87936 0.35832 0.01309 0.0
H1006 H 0.87739 0.37416 0.99284 0.0
H1007 H 0.853 0.34664 -0.0007 0.0
H1008 H 0.93876 0.34514 0.94785 0.0
H1009 H 0.94157 0.37303 0.95304 0.0
H1010 H 0.94746 0.35817 0.97186 0.0
H1011 H 0.9471 0.43722 0.9815 0.0
H1012 H 0.95461 0.39809 0.02796 0.0
H1013 H 0.89657 0.39183 0.96137 0.0
H1014 H 0.91915 0.39144 0.94801 0.0
H1015 H 0.92167 0.41881 0.95487 0.0
H1016 H 0.90736 0.34583 0.0192 0.0
H1017 H 0.93621 0.35833 0.02848 0.0
H1018 H 0.92874 0.3444 0.00475 0.0
C1019 C 0.681 0.57855 0.97966 0.0
C1020 C 0.69055 0.56422 0.97702 0.0
C1021 C 0.65755 0.56919 0.98334 0.0
C1022 C 0.64336 0.54493 0.98519 0.0
C1023 C 0.65308 0.53047 0.98404 0.0
C1024 C 0.67643 0.5402 0.9796 0.0
C1025 C 0.64774 0.58519 0.98419 0.0
C1026 C 0.63861 0.50458 0.98646 0.0
C1027 C 0.58383 0.52706 0.00401 0.0
C1028 C 0.57205 0.52405 0.98629 0.0
C1029 C 0.60689 0.53254 0.00404 0.0
C1030 C 0.61809 0.53477 0.98595 0.0
C1031 C 0.60556 0.52976 0.96816 0.0
C1032 C 0.58272 0.52459 0.96856 0.0
C1033 C 0.61963 0.53741 0.02331 0.0
C1034 C 0.61668 0.5315 0.94855 0.0
H1035 H 0.69173 0.59715 0.97839 0.0
H1036 H 0.68328 0.52874 0.97739 0.0
H1037 H 0.63564 0.58125 0.97174 0.0
H1038 H 0.63791 0.58243 0.9979 0.0
H1039 H 0.66123 0.60373 0.98345 0.0
H1040 H 0.64931 0.49642 0.98882 0.0
H1041 H 0.62675 0.50034 0.999 0.0
H1042 H 0.628 0.49679 0.97308 0.0
H1043 H 0.57552 0.5266 0.01773 0.0
H1044 H 0.57342 0.52185 0.95487 0.0
H1045 H 0.63133 0.55634 0.02504 0.0
H1046 H 0.63031 0.52905 0.02364 0.0
H1047 H 0.60776 0.53127 0.03598 0.0
H1048 H 0.62938 0.54989 0.94561 0.0
H1049 H 0.60397 0.52475 0.93633 0.0
H1050 H 0.62602 0.52174 0.94866 0.0
C1051 C 0.45478 0.13059 0.98293 0.0
C1052 C 0.43686 0.12355 0.96922 0.0
C1053 C 0.46378 0.11622 0.98755 0.0
C1054 C 0.45438 0.09412 0.9785 0.0
C1055 C 0.43695 0.0873 0.9641 0.0
C1056 C 0.42854 0.10215 0.95954 0.0
C1057 C 0.48236 0.12411 0.00302 0.0
C1058 C 0.42614 0.06368 0.95443 0.0
C1059 C 0.48228 0.05731 0.98782 0.0
C1060 C 0.46969 0.04455 0.00402 0.0
C1061 C 0.47743 0.07349 0.97903 0.0
C1062 C 0.4596 0.07669 0.98666 0.0
C1063 C 0.44643 0.06322 0.00257 0.0
C1064 C 0.45157 0.04734 0.01092 0.0
C1065 C 0.4917 0.08758 0.96201 0.0
C1066 C 0.42715 0.06587 0.01115 0.0
H1067 H 0.46125 0.14698 0.99062 0.0
H1068 H 0.41513 0.09679 0.94855 0.0
H1069 H 0.47501 0.11423 0.01667 0.0
H1070 H 0.49608 0.12065 0.99815 0.0
H1071 H 0.49014 0.14286 0.0065 0.0
H1072 H 0.41485 0.0621 0.9419 0.0
H1073 H 0.43953 0.05995 0.94914 0.0
H1074 H 0.41567 0.05025 0.96533 0.0
H1075 H 0.49625 0.05518 0.98243 0.0
H1076 H 0.44139 0.03724 0.02321 0.0
H1077 H 0.50157 0.10613 0.96636 0.0
H1078 H 0.48046 0.08614 0.94951 0.0
H1079 H 0.5039 0.08201 0.957 0.0
H1080 H 0.43407 0.08365 0.01718 0.0
H1081 H 0.41805 0.05338 0.02309 0.0
H1082 H 0.41447 0.06332 -0.00042 0.0
C1083 C 0.68064 0.1383 0.98374 0.0
C1084 C 0.69052 0.12534 0.97723 0.0
C1085 C 0.65783 0.12726 0.9902 0.0
C1086 C 0.64484 0.10277 0.99009 0.0
C1087 C 0.65516 0.08969 0.98409 0.0
C1088 C 0.67792 0.1012 0.97765 0.0
C1089 C 0.64743 0.14171 0.99651 0.0
C1090 C 0.6419 0.06353 0.98371 0.0
C1091 C 0.58885 0.06343 0.01523 0.0
C1092 C 0.57384 0.05628 -0.00085 0.0
C1093 C 0.61187 0.08089 0.01313 0.0
C1094 C 0.6199 0.09053 0.99438 0.0
C1095 C 0.60413 0.08491 0.97869 0.0
C1096 C 0.58116 0.06803 0.98139 0.0
C1097 C 0.62804 0.08712 0.03038 0.0
C1098 C 0.61191 0.09429 0.95833 0.0
H1099 H 0.69059 0.15705 0.98326 0.0
H1100 H 0.68578 0.09136 0.97255 0.0
H1101 H 0.63351 0.13894 0.98618 0.0
H1102 H 0.63962 0.13629 0.01122 0.0
H1103 H 0.66028 0.1605 0.99702 0.0
H1104 H 0.65268 0.05603 0.9792 0.0
H1105 H 0.6348 0.05686 0.99842 0.0
H1106 H 0.6272 0.05728 0.97334 0.0
H1107 H 0.58318 0.05402 0.02888 0.0
H1108 H 0.5695 0.06208 0.96891 0.0
H1109 H 0.64068 0.10595 0.03066 0.0
H1110 H 0.63773 0.07775 0.02909 0.0
H1111 H 0.61865 0.0823 0.04449 0.0
H1112 H 0.6242 0.11317 0.95883 0.0
H1113 H 0.59727 0.09099 0.94864 0.0
H1114 H 0.62085 0.08577 0.95167 0.0
C1115 C 0.86686 0.54575 0.99013 0.0
C1116 C 0.87702 0.5668 0.98014 0.0
C1117 C 0.87967 0.53507 0.99496 0.0
C1118 C 0.90315 0.54596 0.98986 0.0
C1119 C 0.9137 0.56794 0.98078 0.0
C1120 C 0.90041 0.57796 0.97584 0.0
C1121 C 0.86782 0.51159 0.00445 0.0
C1122 C 0.93877 0.58033 0.97535 0.0
C1123 C 0.94531 0.52845 0.00883 0.0
C1124 C 0.94778 0.51756 0.99214 0.0
C1125 C 0.92972 0.53667 0.00886 0.0
C1126 C 0.91623 0.53354 0.9919 0.0
C1127 C 0.91742 0.5208 0.97567 0.0
C1128 C 0.93343 0.51323 0.97591 0.0
C1129 C 0.92917 0.55042 0.02632 0.0
C1130 C 0.90316 0.51679 0.95739 0.0
H1131 H 0.84866 0.5371 0.99324 0.0
H1132 H 0.90812 0.59425 0.96805 0.0
H1133 H 0.86743 0.49846 0.99412 0.0
H1134 H 0.87747 0.51166 0.01768 0.0
H1135 H 0.84993 0.50619 0.00871 0.0
H1136 H 0.94477 0.59817 0.97006 0.0
H1137 H 0.94943 0.58132 0.98815 0.0
H1138 H 0.94165 0.57049 0.9636 0.0
H1139 H 0.95685 0.53222 0.02121 0.0
H1140 H 0.93564 0.50504 0.96295 0.0
H1141 H 0.91124 0.54497 0.03037 0.0
H1142 H 0.9377 0.56903 0.02248 0.0
H1143 H 0.93812 0.54852 0.03927 0.0
H1144 H 0.88497 0.5104 0.96123 0.0
H1145 H 0.90394 0.50412 0.94722 0.0
H1146 H 0.9095 0.53339 0.94955 0.0
C1147 C 0.43061 0.32136 0.98279 0.0
C1148 C 0.44196 0.31269 0.97142 0.0
C1149 C 0.44111 0.34508 0.98731 0.0
C1150 C 0.4635 0.36037 0.98031 0.0
C1151 C 0.47518 0.35159 0.96919 0.0
C1152 C 0.46427 0.32785 0.96488 0.0
C1153 C 0.42825 0.35377 -0.00046 0.0
C1154 C 0.4992 0.36728 0.96185 0.0
C1155 C 0.47841 0.4233 0.98182 0.0
C1156 C 0.4888 0.4299 0.00033 0.0
C1157 C 0.47158 0.40106 0.97425 0.0
C1158 C 0.47504 0.38534 0.98566 0.0
C1159 C 0.48758 0.39292 0.00343 0.0
C1160 C 0.49455 0.41523 0.01039 0.0
C1161 C 0.45889 0.39373 0.95492 0.0
C1162 C 0.4915 0.37678 0.01621 0.0
H1163 H 0.41331 0.30968 0.98775 0.0
H1164 H 0.4732 0.32107 0.95633 0.0
H1165 H 0.43818 0.36239 0.01306 0.0
H1166 H 0.42618 0.36686 0.99124 0.0
H1167 H 0.411 0.33962 0.00383 0.0
H1168 H 0.50581 0.35771 0.95318 0.0
H1169 H 0.49953 0.38104 0.95258 0.0
H1170 H 0.51102 0.37599 0.97441 0.0
H1171 H 0.47381 0.43459 0.97413 0.0
H1172 H 0.50266 0.42044 0.02473 0.0
H1173 H 0.44034 0.382 0.95764 0.0
H1174 H 0.46501 0.384 0.94591 0.0
H1175 H 0.46095 0.4088 0.94643 0.0
H1176 H 0.47514 0.36437 0.02335 0.0
H1177 H 0.50449 0.38629 0.02788 0.0
H1178 H 0.49715 0.36655 0.00738 0.0
C1179 C 0.12839 0.6727 0.02473 0.0
C1180 C 0.12821 0.68197 0.04319 0.0
C1181 C 0.11347 0.64921 0.02037 0.0
C1182 C 0.09824 0.63455 0.03494 0.0
C1183 C 0.0987 0.64355 0.05385 0.0
C1184 C 0.11342 0.66719 0.05767 0.0
C1185 C 0.11342 0.6403 -6e-05 0.0
C1186 C 0.08309 0.62835 0.06986 0.0
C1187 C 0.04276 0.58721 0.01355 0.0
C1188 C 0.04781 0.56946 0.0106 0.0
C1189 C 0.05862 0.60813 0.02243 0.0
C1190 C 0.07966 0.61091 0.0294 0.0
C1191 C 0.08358 0.59188 0.02876 0.0
C1192 C 0.06768 0.57134 0.01893 0.0
C1193 C 0.0539 0.62804 0.02216 0.0
C1194 C 0.1053 0.59382 0.03694 0.0
H1195 H 0.1401 0.68385 0.01361 0.0
H1196 H 0.11292 0.67419 0.07193 0.0
H1197 H 0.11715 0.62591 0.0006 0.0
H1198 H 0.09619 0.63334 0.99313 0.0
H1199 H 0.12628 0.65397 0.99031 0.0
H1200 H 0.08734 0.63737 0.08433 0.0
H1201 H 0.06502 0.62291 0.06619 0.0
H1202 H 0.08427 0.61239 0.07109 0.0
H1203 H 0.02736 0.58565 0.00695 0.0
H1204 H 0.07166 0.55765 0.01646 0.0
H1205 H 0.06587 0.64144 0.01186 0.0
H1206 H 0.05685 0.63629 0.03685 0.0
H1207 H 0.03607 0.62249 0.01743 0.0
H1208 H 0.11909 0.6019 0.02589 0.0
H1209 H 0.10289 0.5765 0.04044 0.0
H1210 H 0.1111 0.60483 0.05037 0.0
C1211 C 0.31759 0.43012 0.01256 0.0
C1212 C 0.31179 0.44193 0.02644 0.0
C1213 C 0.34048 0.4389 0.00687 0.0
C1214 C 0.35788 0.45976 0.01547 0.0
C1215 C 0.35181 0.47279 0.02802 0.0
C1216 C 0.32881 0.46377 0.03326 0.0
C1217 C 0.3462 0.42476 0.99306 0.0
C1218 C 0.36979 0.49519 0.03741 0.0
C1219 C 0.41315 0.46169 0.02932 0.0
C1220 C 0.42853 0.47655 0.01524 0.0
C1221 C 0.39015 0.45593 0.02922 0.0
C1222 C 0.38218 0.46538 0.01478 0.0
C1223 C 0.39751 0.48047 0.0005 0.0
C1224 C 0.42056 0.48581 0.00084 0.0
C1225 C 0.37438 0.4397 0.04471 0.0
C1226 C 0.38953 0.49078 0.98486 0.0
H1227 H 0.30453 0.41331 0.00709 0.0
H1228 H 0.32432 0.47337 0.04347 0.0
H1229 H 0.35963 0.43608 0.98254 0.0
H1230 H 0.35304 0.41542 0.00161 0.0
H1231 H 0.33087 0.41179 0.98471 0.0
H1232 H 0.36216 0.50491 0.04427 0.0
H1233 H 0.37902 0.49134 0.04896 0.0
H1234 H 0.38264 0.50642 0.02647 0.0
H1235 H 0.41901 0.45427 0.04043 0.0
H1236 H 0.43229 0.49721 0.98985 0.0
H1237 H 0.35982 0.42429 0.03766 0.0
H1238 H 0.36711 0.44849 0.05356 0.0
H1239 H 0.38329 0.43369 0.05478 0.0
H1240 H 0.37693 0.47679 0.97508 0.0
H1241 H 0.40394 0.5036 0.97581 0.0
H1242 H 0.38069 0.49936 0.99158 0.0
C1243 C 0.56023 0.88563 0.02301 0.0
C1244 C 0.55038 0.86676 0.03571 0.0
C1245 C 0.54883 0.89779 0.01845 0.0
C1246 C 0.52703 0.89079 0.02675 0.0
C1247 C 0.51657 0.87109 0.03883 0.0
C1248 C 0.52841 0.85934 0.04321 0.0
C1249 C 0.56043 0.91855 0.0052 0.0
C1250 C 0.49316 0.86278 0.04749 0.0
C1251 C 0.51839 0.94228 0.02772 0.0
C1252 C 0.509 0.94022 0.00901 0.0
C1253 C 0.52202 0.92472 0.03497 0.0
C1254 C 0.51586 0.90483 0.02317 0.0
C1255 C 0.50282 0.90113 0.00586 0.0
C1256 C 0.49935 0.91892 0.99906 0.0
C1257 C 0.53546 0.92908 0.05379 0.0
C1258 C 0.49556 0.8801 0.99293 0.0
H1259 H 0.57721 0.89141 0.01721 0.0
H1260 H 0.52057 0.84442 0.05272 0.0
H1261 H 0.54911 0.91637 0.99254 0.0
H1262 H 0.56363 0.93438 0.01333 0.0
H1263 H 0.57705 0.92128 -0.00048 0.0
H1264 H 0.48681 0.84631 0.05558 0.0
H1265 H 0.49384 0.87612 0.05773 0.0
H1266 H 0.48062 0.86018 0.03576 0.0
H1267 H 0.52594 0.95884 0.03535 0.0
H1268 H 0.49214 0.91744 0.98452 0.0
H1269 H 0.55368 0.93519 0.05025 0.0
H1270 H 0.52893 0.91296 0.06237 0.0
H1271 H 0.53476 0.9425 0.06303 0.0
H1272 H 0.51012 0.88305 0.98343 0.0
H1273 H 0.4809 0.87685 0.98328 0.0
H1274 H 0.4907 0.8644 0.0017 0.0
C1275 C 0.99305 0.19862 0.35726 0.0
C1276 C 0.97772 0.20712 0.3582 0.0
C1277 C 0.01633 0.21331 0.353 0.0
C1278 C 0.02462 0.23719 0.3502 0.0
C1279 C 0.00904 0.2456 0.34989 0.0
C1280 C 0.98577 0.23041 0.3536 0.0
C1281 C 0.03225 0.2035 0.35285 0.0
C1282 C 0.01719 0.27098 0.34698 0.0
C1283 C 0.08351 0.28192 0.36862 0.0
C1284 C 0.09555 0.29035 0.35111 0.0
C1285 C 0.06078 0.26369 0.36851 0.0
C1286 C 0.04967 0.25396 0.35039 0.0
C1287 C 0.06204 0.26174 0.33267 0.0
C1288 C 0.08499 0.2798 0.33325 0.0
C1289 C 0.0484 0.25545 0.38777 0.0
C1290 C 0.0508 0.25163 0.31311 0.0
H1291 H 0.98723 0.18073 0.36082 0.0
H1292 H 0.97401 0.23705 0.35356 0.0
H1293 H 0.04536 0.21153 0.34124 0.0
H1294 H 0.04138 0.20727 0.36715 0.0
H1295 H 0.02272 0.18442 0.35054 0.0
H1296 H 0.00273 0.27439 0.34538 0.0
H1297 H 0.02781 0.28108 0.35977 0.0
H1298 H 0.02814 0.27747 0.33379 0.0
H1299 H 0.09183 0.28978 0.38247 0.0
H1300 H 0.09435 0.28628 0.3197 0.0
H1301 H 0.0408 0.23643 0.389 0.0
H1302 H 0.03412 0.25922 0.38844 0.0
H1303 H 0.05992 0.26386 0.40059 0.0
H1304 H 0.04224 0.23245 0.31338 0.0
H1305 H 0.0633 0.25809 0.30089 0.0
H1306 H 0.03736 0.25619 0.31008 0.0
C1307 C 0.77206 0.75613 0.35167 0.0
C1308 C 0.79279 0.76972 0.36178 0.0
C1309 C 0.75696 0.76445 0.3481 0.0
C1310 C 0.76273 0.78687 0.35484 0.0
C1311 C 0.78423 0.80118 0.36403 0.0
C1312 C 0.799 0.79241 0.36742 0.0
C1313 C 0.7342 0.74868 0.33822 0.0
C1314 C 0.79098 0.82514 0.37148 0.0
C1315 C 0.72374 0.80986 0.33865 0.0
C1316 C 0.70827 0.80289 0.35429 0.0
C1317 C 0.7421 0.80543 0.33878 0.0
C1318 C 0.74494 0.79382 0.35492 0.0
C1319 C 0.72993 0.78763 0.37106 0.0
C1320 C 0.71187 0.79227 0.37055 0.0
C1321 C 0.75801 0.8125 0.32146 0.0
C1322 C 0.73244 0.77539 0.38865 0.0
H1323 H 0.76737 0.73873 0.34701 0.0
H1324 H 0.8149 0.80294 0.3754 0.0
H1325 H 0.7202 0.7433 0.34906 0.0
H1326 H 0.73092 0.75794 0.32634 0.0
H1327 H 0.73339 0.73287 0.33194 0.0
H1328 H 0.80946 0.83528 0.37549 0.0
H1329 H 0.78723 0.83482 0.3603 0.0
H1330 H 0.78078 0.82375 0.38468 0.0
H1331 H 0.72114 0.81815 0.32607 0.0
H1332 H 0.70028 0.78715 0.38289 0.0
H1333 H 0.7557 0.79682 0.31365 0.0
H1334 H 0.77614 0.82242 0.32646 0.0
H1335 H 0.75479 0.82321 0.31093 0.0
H1336 H 0.72986 0.75824 0.38409 0.0
H1337 H 0.71992 0.77271 0.40035 0.0
H1338 H 0.74999 0.7855 0.39492 0.0
C1339 C 0.22833 0.00579 0.3749 0.0
C1340 C 0.21837 0.01913 0.36958 0.0
C1341 C 0.21831 0.98244 0.36929 0.0
C1342 C 0.19731 0.97179 0.35871 0.0
C1343 C 0.18636 0.98464 0.35442 0.0
C1344 C 0.19722 0.00823 0.35953 0.0
C1345 C 0.23089 0.96954 0.3738 0.0
C1346 C 0.16358 0.97368 0.34377 0.0
C1347 C 0.19301 0.92626 0.32331 0.0
C1348 C 0.18349 0.90649 0.33511 0.0
C1349 C 0.19657 0.94745 0.3305 0.0
C1350 C 0.18899 0.9486 0.34957 0.0
C1351 C 0.17632 0.92796 0.36045 0.0
C1352 C 0.17406 0.90704 0.35322 0.0
C1353 C 0.2109 0.96897 0.31856 0.0
C1354 C 0.16681 0.92825 0.38037 0.0
H1355 H 0.24422 0.01366 0.38323 0.0
H1356 H 0.18933 0.01822 0.35511 0.0
H1357 H 0.21967 0.95362 0.38212 0.0
H1358 H 0.2355 0.96412 0.35992 0.0
H1359 H 0.24684 0.9802 0.38247 0.0
H1360 H 0.15555 0.98471 0.34446 0.0
H1361 H 0.16598 0.97081 0.32813 0.0
H1362 H 0.15161 0.95652 0.35011 0.0
H1363 H 0.19997 0.92573 0.30911 0.0
H1364 H 0.16663 0.89178 0.36237 0.0
H1365 H 0.22757 0.98001 0.32613 0.0
H1366 H 0.20228 0.97932 0.31716 0.0
H1367 H 0.21443 0.96485 0.30361 0.0
H1368 H 0.18035 0.93293 0.39167 0.0
H1369 H 0.15216 0.91094 0.38403 0.0
H1370 H 0.16109 0.94121 0.3811 0.0
C1371 C 0.55404 0.65516 0.31688 0.0
C1372 C 0.55112 0.64479 0.29842 0.0
C1373 C 0.56805 0.67918 0.31933 0.0
C1374 C 0.57878 0.69319 0.30276 0.0
C1375 C 0.57586 0.68272 0.28406 0.0
C1376 C 0.56227 0.65855 0.28216 0.0
C1377 C 0.57128 0.68954 0.33967 0.0
C1378 C 0.58662 0.69707 0.26605 0.0
C1379 C 0.59317 0.75373 0.31647 0.0
C1380 C 0.61563 0.76267 0.32335 0.0
C1381 C 0.58172 0.73201 0.30702 0.0
C1382 C 0.5928 0.71877 0.30533 0.0
C1383 C 0.61644 0.72915 0.30995 0.0
C1384 C 0.62776 0.75137 0.3184 0.0
C1385 C 0.55689 0.72208 0.30123 0.0
C1386 C 0.62895 0.71566 0.30899 0.0
H1387 H 0.54545 0.64441 0.32942 0.0
H1388 H 0.55979 0.65042 0.26785 0.0
H1389 H 0.58983 0.70047 0.34313 0.0
H1390 H 0.56358 0.70084 0.34038 0.0
H1391 H 0.56323 0.67609 0.35112 0.0
H1392 H 0.58265 0.68623 0.25257 0.0
H1393 H 0.58035 0.70947 0.26404 0.0
H1394 H 0.60551 0.70743 0.26789 0.0
H1395 H 0.58373 0.76239 0.32044 0.0
H1396 H 0.64509 0.75823 0.32401 0.0
H1397 H 0.54579 0.7105 0.31297 0.0
H1398 H 0.5529 0.71164 0.28752 0.0
H1399 H 0.55253 0.73593 0.29908 0.0
H1400 H 0.62502 0.70499 0.32238 0.0
H1401 H 0.64783 0.72737 0.30839 0.0
H1402 H 0.62344 0.70377 0.29615 0.0
C1403 C 0.34691 0.89837 0.32423 0.0
C1404 C 0.35394 0.8938 0.30632 0.0
C1405 C 0.32359 0.88698 0.32918 0.0
C1406 C 0.30708 0.87084 0.31578 0.0
C1407 C 0.31427 0.8661 0.29771 0.0
C1408 C 0.3377 0.8776 0.29324 0.0
C1409 C 0.31655 0.89276 0.34846 0.0
C1410 C 0.2972 0.84946 0.28286 0.0
C1411 C 0.24691 0.83424 0.3365 0.0
C1412 C 0.23708 0.84753 0.331 0.0
C1413 C 0.26944 0.84081 0.33066 0.0
C1414 C 0.28226 0.86131 0.31962 0.0
C1415 C 0.27179 0.8739 0.3132 0.0
C1416 C 0.24928 0.86658 0.31864 0.0
C1417 C 0.27993 0.82654 0.33705 0.0
C1418 C 0.28482 0.89611 0.30179 0.0
H1419 H 0.35967 0.91084 0.33431 0.0
H1420 H 0.34338 0.87418 0.2794 0.0
H1421 H 0.30606 0.90104 0.3457 0.0
H1422 H 0.30577 0.87669 0.35679 0.0
H1423 H 0.33156 0.90466 0.3577 0.0
H1424 H 0.30571 0.84612 0.27034 0.0
H1425 H 0.28531 0.83276 0.28991 0.0
H1426 H 0.28668 0.85665 0.27703 0.0
H1427 H 0.23748 0.8195 0.34598 0.0
H1428 H 0.24162 0.87681 0.3142 0.0
H1429 H 0.2933 0.83624 0.34837 0.0
H1430 H 0.28843 0.8233 0.32449 0.0
H1431 H 0.26695 0.80966 0.34324 0.0
H1432 H 0.29865 0.90953 0.31118 0.0
H1433 H 0.2736 0.90291 0.2968 0.0
H1434 H 0.29309 0.89345 0.28878 0.0
C1435 C 0.1107 0.44731 0.28397 0.0
C1436 C 0.1057 0.45717 0.30007 0.0
C1437 C 0.12147 0.43408 0.28654 0.0
C1438 C 0.12665 0.43002 0.30572 0.0
C1439 C 0.12151 0.43995 0.32204 0.0
C1440 C 0.11142 0.45371 0.31898 0.0
C1441 C 0.12725 0.42444 0.26875 0.0
C1442 C 0.12629 0.43569 0.3428 0.0
C1443 C 0.13062 0.37734 0.3197 0.0
C1444 C 0.15353 0.38772 0.32595 0.0
C1445 C 0.12181 0.39063 0.31168 0.0
C1446 C 0.13659 0.4147 0.30903 0.0
C1447 C 0.16044 0.42446 0.31257 0.0
C1448 C 0.16858 0.41093 0.32143 0.0
C1449 C 0.09621 0.37949 0.30864 0.0
C1450 C 0.17699 0.44976 0.309 0.0
H1451 H 0.10644 0.45024 0.26933 0.0
H1452 H 0.10752 0.46139 0.33139 0.0
H1453 H 0.1454 0.42864 0.2695 0.0
H1454 H 0.11644 0.4053 0.2684 0.0
H1455 H 0.12447 0.43132 0.25487 0.0
H1456 H 0.12061 0.44405 0.35385 0.0
H1457 H 0.11739 0.41681 0.34563 0.0
H1458 H 0.14493 0.44248 0.34487 0.0
H1459 H 0.11888 0.35949 0.32363 0.0
H1460 H 0.18621 0.41909 0.32655 0.0
H1461 H 0.09213 0.38514 0.29471 0.0
H1462 H 0.08887 0.38493 0.32074 0.0
H1463 H 0.08763 0.36028 0.30855 0.0
H1464 H 0.17264 0.4555 0.29523 0.0
H1465 H 0.19496 0.45335 0.30816 0.0
H1466 H 0.17594 0.46024 0.32123 0.0
C1467 C 0.3416 0.45984 0.29926 0.0
C1468 C 0.35967 0.46133 0.31073 0.0
C1469 C 0.31868 0.44553 0.30459 0.0
C1470 C 0.31355 0.43311 0.32233 0.0
C1471 C 0.33163 0.43628 0.33497 0.0
C1472 C 0.3545 0.45004 0.32889 0.0
C1473 C 0.29998 0.4423 0.29042 0.0
C1474 C 0.32685 0.42396 0.35434 0.0
C1475 C 0.2497 0.40035 0.33398 0.0
C1476 C 0.24316 0.37882 0.32523 0.0
C1477 C 0.27292 0.41804 0.33428 0.0
C1478 C 0.28971 0.41394 0.32562 0.0
C1479 C 0.28323 0.39177 0.31785 0.0
C1480 C 0.26015 0.37457 0.31782 0.0
C1481 C 0.27934 0.44132 0.34313 0.0
C1482 C 0.30046 0.3865 0.3085 0.0
H1483 H 0.34529 0.46925 0.28563 0.0
H1484 H 0.36816 0.45103 0.338 0.0
H1485 H 0.29127 0.42434 0.28446 0.0
H1486 H 0.28685 0.4448 0.29803 0.0
H1487 H 0.30674 0.45447 0.27792 0.0
H1488 H 0.34214 0.43194 0.36416 0.0
H1489 H 0.31239 0.42417 0.36192 0.0
H1490 H 0.32188 0.4056 0.35177 0.0
H1491 H 0.23668 0.40364 0.33994 0.0
H1492 H 0.25534 0.35777 0.3115 0.0
H1493 H 0.28361 0.45412 0.33128 0.0
H1494 H 0.2948 0.44767 0.3526 0.0
H1495 H 0.26517 0.44067 0.35192 0.0
H1496 H 0.30775 0.3973 0.29527 0.0
H1497 H 0.29274 0.368 0.30407 0.0
H1498 H 0.31486 0.39079 0.31877 0.0
C1499 C 0.53263 0.88305 0.32526 0.0
C1500 C 0.53979 0.89856 0.30958 0.0
C1501 C 0.54555 0.87285 0.33115 0.0
C1502 C 0.56615 0.87858 0.32123 0.0
C1503 C 0.57379 0.89488 0.30586 0.0
C1504 C 0.56046 0.90457 0.30018 0.0
C1505 C 0.53686 0.85544 0.3475 0.0
C1506 C 0.59583 0.90174 0.29507 0.0
C1507 C 0.61441 0.87081 0.34056 0.0
C1508 C 0.61243 0.85306 0.32823 0.0
C1509 C 0.59821 0.87814 0.3397 0.0
C1510 C 0.57967 0.86727 0.32624 0.0
C1511 C 0.5766 0.84792 0.31504 0.0
C1512 C 0.59327 0.84122 0.31598 0.0
C1513 C 0.60224 0.89892 0.35176 0.0
C1514 C 0.55684 0.8356 0.30078 0.0
H1515 H 0.51655 0.87832 0.33244 0.0
H1516 H 0.56609 0.91677 0.2882 0.0
H1517 H 0.53292 0.83824 0.34171 0.0
H1518 H 0.55027 0.86049 0.35899 0.0
H1519 H 0.52116 0.85375 0.35437 0.0
H1520 H 0.59984 0.91548 0.28411 0.0
H1521 H 0.61036 0.90808 0.30561 0.0
H1522 H 0.59454 0.88643 0.28734 0.0
H1523 H 0.6295 0.88005 0.34984 0.0
H1524 H 0.59201 0.82759 0.30637 0.0
H1525 H 0.58599 0.89626 0.35817 0.0
H1526 H 0.60898 0.91429 0.34216 0.0
H1527 H 0.61484 0.90277 0.3638 0.0
H1528 H 0.54059 0.83254 0.30752 0.0
H1529 H 0.55472 0.81874 0.2958 0.0
H1530 H 0.55995 0.84661 0.28773 0.0
C1531 C 0.13353 0.66251 0.29212 0.0
C1532 C 0.11263 0.64791 0.30142 0.0
C1533 C 0.14548 0.68649 0.29567 0.0
C1534 C 0.13637 0.69617 0.30888 0.0
C1535 C 0.11546 0.68147 0.31861 0.0
C1536 C 0.10388 0.65749 0.31481 0.0
C1537 C 0.16778 0.70147 0.2852 0.0
C1538 C 0.10513 0.69112 0.33283 0.0
C1539 C 0.16945 0.75292 0.33635 0.0
C1540 C 0.16047 0.76567 0.32763 0.0
C1541 C 0.16354 0.73082 0.3292 0.0
C1542 C 0.14862 0.72161 0.31281 0.0
C1543 C 0.14276 0.73607 0.30209 0.0
C1544 C 0.14909 0.75821 0.30953 0.0
C1545 C 0.1707 0.71628 0.34082 0.0
C1546 C 0.1272 0.72716 0.28434 0.0
H1547 H 0.14055 0.65513 0.28196 0.0
H1548 H 0.08767 0.64633 0.32191 0.0
H1549 H 0.16644 0.71462 0.27633 0.0
H1550 H 0.1818 0.71095 0.29605 0.0
H1551 H 0.17257 0.69122 0.27538 0.0
H1552 H 0.08877 0.67742 0.33913 0.0
H1553 H 0.11736 0.70037 0.34503 0.0
H1554 H 0.10183 0.70389 0.32532 0.0
H1555 H 0.17824 0.75868 0.35038 0.0
H1556 H 0.14204 0.768 0.30277 0.0
H1557 H 0.17499 0.70569 0.331 0.0
H1558 H 0.15625 0.70423 0.35022 0.0
H1559 H 0.18572 0.72714 0.35045 0.0
H1560 H 0.1315 0.71629 0.27488 0.0
H1561 H 0.12821 0.74156 0.27548 0.0
H1562 H 0.10921 0.71621 0.28923 0.0
C1563 C 0.77511 0.00858 0.35893 0.0
C1564 C 0.797 0.01708 0.36706 0.0
C1565 C 0.76142 0.98502 0.35411 0.0
C1566 C 0.76997 0.96972 0.35743 0.0
C1567 C 0.79228 0.97838 0.36526 0.0
C1568 C 0.80551 0.00197 0.37005 0.0
C1569 C 0.73784 0.9765 0.34545 0.0
C1570 C 0.8022 0.96276 0.36851 0.0
C1571 C 0.72239 0.90682 0.35654 0.0
C1572 C 0.72297 0.90128 0.33682 0.0
C1573 C 0.73905 0.92858 0.36411 0.0
C1574 C 0.756 0.945 0.35144 0.0
C1575 C 0.75779 0.93845 0.33208 0.0
C1576 C 0.74158 0.91646 0.32521 0.0
C1577 C 0.73736 0.93476 0.38511 0.0
C1578 C 0.77503 0.95548 0.31781 0.0
H1579 H 0.76851 0.02027 0.35676 0.0
H1580 H 0.82259 0.00868 0.37615 0.0
H1581 H 0.73654 0.96851 0.33083 0.0
H1582 H 0.72466 0.96295 0.35492 0.0
H1583 H 0.73379 0.99064 0.34381 0.0
H1584 H 0.81971 0.97218 0.37503 0.0
H1585 H 0.79089 0.94838 0.37834 0.0
H1586 H 0.80304 0.95487 0.35439 0.0
H1587 H 0.70794 0.8952 0.36547 0.0
H1588 H 0.74201 0.91208 0.30992 0.0
H1589 H 0.7319 0.94794 0.38552 0.0
H1590 H 0.7544 0.94247 0.39242 0.0
H1591 H 0.72485 0.91945 0.39355 0.0
H1592 H 0.76959 0.968 0.31335 0.0
H1593 H 0.77642 0.94675 0.30438 0.0
H1594 H 0.79226 0.96554 0.32467 0.0
C1595 C 0.98952 0.79627 0.36074 0.0
C1596 C 0.97599 0.77214 0.36188 0.0
C1597 C 0.01232 0.80668 0.35443 0.0
C1598 C 0.02186 0.79257 0.34974 0.0
C1599 C 0.00799 0.76811 0.35045 0.0
C1600 C 0.98506 0.75817 0.35629 0.0
C1601 C 0.02641 0.83274 0.35337 0.0
C1602 C 0.01768 0.75246 0.34606 0.0
C1603 C 0.07757 0.81039 0.32339 0.0
C1604 C 0.09195 0.81329 0.33927 0.0
C1605 C 0.05508 0.80584 0.32656 0.0
C1606 C 0.04679 0.80315 0.34601 0.0
C1607 C 0.06192 0.80769 0.36203 0.0
C1608 C 0.08447 0.81309 0.35841 0.0
C1609 C 0.03968 0.80205 0.30915 0.0
C1610 C 0.0537 0.80432 0.38299 0.0
H1611 H 0.98229 0.80696 0.36502 0.0
H1612 H 0.97449 0.73951 0.35734 0.0
H1613 H 0.03998 0.83943 0.36485 0.0
H1614 H 0.0351 0.83802 0.33898 0.0
H1615 H 0.01579 0.84105 0.35548 0.0
H1616 H 0.00446 0.73383 0.34686 0.0
H1617 H 0.02529 0.75598 0.33121 0.0
H1618 H 0.0316 0.75601 0.35669 0.0
H1619 H 0.08335 0.81017 0.30861 0.0
H1620 H 0.09562 0.81486 0.37063 0.0
H1621 H 0.029 0.81018 0.31175 0.0
H1622 H 0.0279 0.78322 0.30688 0.0
H1623 H 0.04969 0.80921 0.29552 0.0
H1624 H 0.04395 0.81336 0.38584 0.0
H1625 H 0.0681 0.81071 0.39371 0.0
H1626 H 0.04194 0.7856 0.38559 0.0
C1627 C 0.23411 0.22512 0.35602 0.0
C1628 C 0.22379 0.20624 0.3687 0.0
C1629 C 0.22306 0.23754 0.3511 0.0
C1630 C 0.20116 0.23082 0.35903 0.0
C1631 C 0.19051 0.21148 0.37151 0.0
C1632 C 0.20196 0.19943 0.3762 0.0
C1633 C 0.23485 0.25789 0.33747 0.0
C1634 C 0.16704 0.20352 0.3799 0.0
C1635 C 0.1862 0.27854 0.35571 0.0
C1636 C 0.17446 0.27286 0.33775 0.0
C1637 C 0.19344 0.26388 0.36383 0.0
C1638 C 0.18908 0.24351 0.35349 0.0
C1639 C 0.17508 0.23663 0.33648 0.0
C1640 C 0.16755 0.2512 0.32908 0.0
C1641 C 0.20768 0.27134 0.38239 0.0
C1642 C 0.17035 0.21538 0.32471 0.0
H1643 H 0.25102 0.23045 0.35028 0.0
H1644 H 0.19378 0.18456 0.38574 0.0
H1645 H 0.22384 0.25512 0.32443 0.0
H1646 H 0.23757 0.27388 0.34499 0.0
H1647 H 0.25172 0.26068 0.33241 0.0
H1648 H 0.16118 0.18819 0.38947 0.0
H1649 H 0.16725 0.21778 0.38856 0.0
H1650 H 0.15433 0.19903 0.36788 0.0
H1651 H 0.19184 0.29541 0.36228 0.0
H1652 H 0.1586 0.24694 0.31507 0.0
H1653 H 0.22595 0.27795 0.37869 0.0
H1654 H 0.20229 0.25642 0.39233 0.0
H1655 H 0.20634 0.28523 0.39029 0.0
H1656 H 0.18617 0.21886 0.31687 0.0
H1657 H 0.15651 0.21062 0.31366 0.0
H1658 H 0.16549 0.20035 0.33438 0.0
C1659 C 0.65408 0.53589 0.67585 0.0
C1660 C 0.646 0.54166 0.69272 0.0
C1661 C 0.67731 0.54863 0.6706 0.0
C1662 C 0.69274 0.56763 0.68243 0.0
C1663 C 0.68458 0.57387 0.69919 0.0
C1664 C 0.66138 0.56075 0.70417 0.0
C1665 C 0.68541 0.54148 0.65265 0.0
C1666 C 0.70045 0.59421 0.71211 0.0
C1667 C 0.7568 0.59277 0.68698 0.0
C1668 C 0.76469 0.61346 0.67679 0.0
C1669 C 0.7333 0.57628 0.68719 0.0
C1670 C 0.71752 0.5812 0.67762 0.0
C1671 C 0.72575 0.60134 0.66609 0.0
C1672 C 0.74935 0.61717 0.66569 0.0
C1673 C 0.72522 0.55465 0.69915 0.0
C1674 C 0.70959 0.60752 0.65596 0.0
H1675 H 0.64224 0.52131 0.6668 0.0
H1676 H 0.65541 0.56511 0.7174 0.0
H1677 H 0.69462 0.55638 0.64269 0.0
H1678 H 0.69773 0.53587 0.6571 0.0
H1679 H 0.67103 0.52708 0.64441 0.0
H1680 H 0.69117 0.59739 0.72408 0.0
H1681 H 0.71367 0.59105 0.71878 0.0
H1682 H 0.70953 0.61014 0.70322 0.0
H1683 H 0.76876 0.59017 0.69576 0.0
H1684 H 0.7556 0.63348 0.65814 0.0
H1685 H 0.7115 0.53936 0.69124 0.0
H1686 H 0.71791 0.55653 0.71315 0.0
H1687 H 0.73946 0.55136 0.70263 0.0
H1688 H 0.69567 0.59226 0.6482 0.0
H1689 H 0.71864 0.62171 0.64526 0.0
H1690 H 0.70147 0.61328 0.66709 0.0
C1691 C 0.45652 0.10815 0.67787 0.0
C1692 C 0.45538 0.09842 0.69628 0.0
C1693 C 0.44281 0.11797 0.67349 0.0
C1694 C 0.42801 0.11836 0.688 0.0
C1695 C 0.42707 0.1088 0.70668 0.0
C1696 C 0.44066 0.09883 0.71054 0.0
C1697 C 0.44404 0.12774 0.65335 0.0
C1698 C 0.41163 0.10902 0.72261 0.0
C1699 C 0.40325 0.15846 0.68786 0.0
C1700 C 0.38054 0.14295 0.6825 0.0
C1701 C 0.41952 0.15112 0.68842 0.0
C1702 C 0.41262 0.12777 0.68368 0.0
C1703 C 0.3899 0.11253 0.67719 0.0
C1704 C 0.3741 0.12034 0.67674 0.0
C1705 C 0.44364 0.1679 0.69523 0.0
C1706 C 0.38185 0.08756 0.67195 0.0
H1707 H 0.46794 0.10783 0.66686 0.0
H1708 H 0.4401 0.09169 0.72489 0.0
H1709 H 0.4268 0.11897 0.64636 0.0
H1710 H 0.44957 0.14641 0.65458 0.0
H1711 H 0.45614 0.12573 0.64362 0.0
H1712 H 0.41342 0.10146 0.7365 0.0
H1713 H 0.41563 0.12704 0.72561 0.0
H1714 H 0.39346 0.09905 0.7177 0.0
H1715 H 0.40803 0.17595 0.69233 0.0
H1716 H 0.35639 0.10846 0.67263 0.0
H1717 H 0.45631 0.16711 0.68538 0.0
H1718 H 0.44638 0.16304 0.71011 0.0
H1719 H 0.44706 0.18601 0.69583 0.0
H1720 H 0.39406 0.08638 0.66179 0.0
H1721 H 0.36454 0.07883 0.66503 0.0
H1722 H 0.38116 0.078 0.68542 0.0
C1723 C 0.86932 0.34528 0.68467 0.0
C1724 C 0.88898 0.35552 0.69674 0.0
C1725 C 0.85873 0.32179 0.67922 0.0
C1726 C 0.86843 0.30834 0.68538 0.0
C1727 C 0.88835 0.31856 0.69742 0.0
C1728 C 0.89805 0.34181 0.70327 0.0
C1729 C 0.83763 0.31168 0.66629 0.0
C1730 C 0.90014 0.30529 0.70338 0.0
C1731 C 0.84341 0.24314 0.68314 0.0
C1732 C 0.85327 0.24109 0.66577 0.0
C1733 C 0.84613 0.26476 0.68882 0.0
C1734 C 0.85985 0.28461 0.67729 0.0
C1735 C 0.86792 0.28194 0.65889 0.0
C1736 C 0.86368 0.26003 0.65308 0.0
C1737 C 0.83566 0.26667 0.70775 0.0
C1738 C 0.88247 0.3022 0.64571 0.0
H1739 H 0.86234 0.35568 0.67914 0.0
H1740 H 0.91289 0.34924 0.71292 0.0
H1741 H 0.8426 0.3112 0.65089 0.0
H1742 H 0.82513 0.29368 0.67063 0.0
H1743 H 0.82908 0.32224 0.66685 0.0
H1744 H 0.91586 0.31598 0.71231 0.0
H1745 H 0.88831 0.28988 0.712 0.0
H1746 H 0.90498 0.29902 0.69011 0.0
H1747 H 0.83516 0.2285 0.69291 0.0
H1748 H 0.87071 0.25824 0.63931 0.0
H1749 H 0.82899 0.27881 0.70618 0.0
H1750 H 0.84892 0.27356 0.71949 0.0
H1751 H 0.82148 0.24955 0.71245 0.0
H1752 H 0.87107 0.30504 0.63577 0.0
H1753 H 0.89393 0.2987 0.63638 0.0
H1754 H 0.8933 0.31847 0.65405 0.0
C1755 C 0.22484 0.99152 0.61862 0.0
C1756 C 0.20636 0.97802 0.63099 0.0
C1757 C 0.23949 0.01517 0.62243 0.0
C1758 C 0.23563 0.02551 0.63907 0.0
C1759 C 0.21615 0.01228 0.65091 0.0
C1760 C 0.20174 0.98866 0.64672 0.0
C1761 C 0.26005 0.02865 0.60947 0.0
C1762 C 0.21154 0.02254 0.66894 0.0
C1763 C 0.28759 0.06958 0.66723 0.0
C1764 C 0.28695 0.09008 0.66441 0.0
C1765 C 0.27119 0.04867 0.65879 0.0
C1766 C 0.25418 0.04829 0.64639 0.0
C1767 C 0.25453 0.06925 0.64203 0.0
C1768 C 0.27092 0.09007 0.65129 0.0
C1769 C 0.27134 0.02676 0.66418 0.0
C1770 C 0.23704 0.06944 0.62831 0.0
H1771 H 0.22816 0.98347 0.60616 0.0
H1772 H 0.18749 0.97829 0.65634 0.0
H1773 H 0.26248 0.04604 0.60632 0.0
H1774 H 0.27572 0.03123 0.61715 0.0
H1775 H 0.25842 0.01947 0.59537 0.0
H1776 H 0.19408 0.0111 0.67482 0.0
H1777 H 0.22425 0.02519 0.68054 0.0
H1778 H 0.21345 0.03967 0.66568 0.0
H1779 H 0.30028 0.0696 0.67708 0.0
H1780 H 0.27045 0.10589 0.64903 0.0
H1781 H 0.27204 0.01762 0.65079 0.0
H1782 H 0.25528 0.01485 0.67196 0.0
H1783 H 0.28608 0.03022 0.6738 0.0
H1784 H 0.23675 0.06089 0.6142 0.0
H1785 H 0.24062 0.0873 0.62532 0.0
H1786 H 0.21969 0.05943 0.63475 0.0
C1787 C 0.01485 0.23508 0.65514 0.0
C1788 C 0.02186 0.22617 0.63971 0.0
C1789 C 0.99173 0.22414 0.66073 0.0
C1790 C 0.9753 0.20409 0.65037 0.0
C1791 C 0.98236 0.19516 0.6347 0.0
C1792 C 0.00562 0.20621 0.62967 0.0
C1793 C 0.98482 0.23429 0.67743 0.0
C1794 C 0.96527 0.1744 0.62284 0.0
C1795 C 0.91686 0.16992 0.67468 0.0
C1796 C 0.90517 0.1799 0.66585 0.0
C1797 C 0.93951 0.17671 0.66906 0.0
C1798 C 0.9505 0.19406 0.65463 0.0
C1799 C 0.9382 0.2032 0.64507 0.0
C1800 C 0.91577 0.19598 0.65079 0.0
C1801 C 0.9521 0.16633 0.67925 0.0
C1802 C 0.94917 0.2219 0.6298 0.0
H1803 H 0.0275 0.25046 0.66294 0.0
H1804 H 0.01111 0.19951 0.6176 0.0
H1805 H 0.97333 0.24047 0.67188 0.0
H1806 H 0.97509 0.22081 0.6885 0.0
H1807 H -0.00016 0.24903 0.68475 0.0
H1808 H 0.97371 0.16883 0.61184 0.0
H1809 H 0.95477 0.15968 0.63267 0.0
H1810 H 0.95335 0.17861 0.61503 0.0
H1811 H 0.90879 0.15775 0.68651 0.0
H1812 H 0.90704 0.20426 0.64432 0.0
H1813 H 0.96588 0.17969 0.6887 0.0
H1814 H 0.96042 0.16055 0.66833 0.0
H1815 H 0.94052 0.15138 0.68849 0.0
H1816 H 0.96206 0.23834 0.63696 0.0
H1817 H 0.93641 0.22504 0.62213 0.0
H1818 H 0.95826 0.21729 0.6187 0.0
C1819 C 0.7612 0.76931 0.64208 0.0
C1820 C 0.77397 0.79177 0.63463 0.0
C1821 C 0.77142 0.75576 0.64558 0.0
C1822 C 0.79503 0.76485 0.64152 0.0
C1823 C 0.80793 0.78734 0.63369 0.0
C1824 C 0.79726 0.80052 0.63035 0.0
C1825 C 0.75707 0.73195 0.65421 0.0
C1826 C 0.83303 0.79754 0.62901 0.0
C1827 C 0.82159 0.73867 0.67366 0.0
C1828 C 0.81695 0.71889 0.66272 0.0
C1829 C 0.8157 0.75462 0.6665 0.0
C1830 C 0.80645 0.75156 0.64735 0.0
C1831 C 0.80515 0.7336 0.63514 0.0
C1832 C 0.80979 0.71696 0.64319 0.0
C1833 C 0.81655 0.77279 0.68041 0.0
C1834 C 0.79676 0.73063 0.61422 0.0
H1835 H 0.74328 0.76247 0.64562 0.0
H1836 H 0.80717 0.81767 0.6242 0.0
H1837 H 0.75748 0.71873 0.64452 0.0
H1838 H 0.76428 0.73114 0.66864 0.0
H1839 H 0.7389 0.7273 0.65625 0.0
H1840 H 0.84052 0.81505 0.62252 0.0
H1841 H 0.84284 0.79882 0.64252 0.0
H1842 H 0.83532 0.78598 0.61862 0.0
H1843 H 0.82687 0.73994 0.68888 0.0
H1844 H 0.80596 0.70156 0.63478 0.0
H1845 H 0.7988 0.76797 0.68464 0.0
H1846 H 0.82428 0.78993 0.67329 0.0
H1847 H 0.82643 0.77445 0.69399 0.0
H1848 H 0.77775 0.72174 0.61402 0.0
H1849 H 0.80214 0.72003 0.60551 0.0
H1850 H 0.80332 0.74767 0.60708 0.0
C1851 C 0.01857 0.77775 0.65873 0.0
C1852 C 0.02701 0.7985 0.64846 0.0
C1853 C 0.99574 0.76582 0.66511 0.0
C1854 C 0.98122 0.7751 0.66133 0.0
C1855 C 0.99054 0.79737 0.65303 0.0
C1856 C 0.01326 0.80865 0.64636 0.0
C1857 C 0.98655 0.74217 0.674 0.0
C1858 C 0.97598 0.80838 0.64964 0.0
C1859 C 0.923 0.72924 0.64341 0.0
C1860 C 0.91009 0.72264 0.66067 0.0
C1861 C 0.94581 0.74695 0.64339 0.0
C1862 C 0.95594 0.75922 0.661 0.0
C1863 C 0.94232 0.75441 0.67808 0.0
C1864 C 0.91944 0.73584 0.67781 0.0
C1865 C 0.95947 0.75119 0.62476 0.0
C1866 C 0.95212 0.76792 0.69687 0.0
H1867 H 0.0293 0.77003 0.66052 0.0
H1868 H 0.02002 0.82505 0.63886 0.0
H1869 H 0.97646 0.74056 0.6873 0.0
H1870 H 0.97489 0.72873 0.66333 0.0
H1871 H 0.00048 0.73859 0.678 0.0
H1872 H 0.98666 0.82733 0.64733 0.0
H1873 H 0.96507 0.80056 0.63642 0.0
H1874 H 0.96443 0.80525 0.66225 0.0
H1875 H 0.91558 0.71948 0.62997 0.0
H1876 H 0.90944 0.73095 0.69115 0.0
H1877 H 0.97381 0.7478 0.62731 0.0
H1878 H 0.96703 0.76949 0.62027 0.0
H1879 H 0.94887 0.73999 0.61238 0.0
H1880 H 0.96038 0.75992 0.70537 0.0
H1881 H 0.93844 0.76767 0.7061 0.0
H1882 H 0.96528 0.78617 0.69395 0.0
C1883 C 0.21943 0.2379 0.66349 0.0
C1884 C 0.20078 0.22597 0.65064 0.0
C1885 C 0.23346 0.22865 0.66846 0.0
C1886 C 0.22865 0.20703 0.66036 0.0
C1887 C 0.20844 0.1939 0.64909 0.0
C1888 C 0.19477 0.20357 0.64431 0.0
C1889 C 0.25474 0.2431 0.68069 0.0
C1890 C 0.20246 0.17064 0.64041 0.0
C1891 C 0.28071 0.20468 0.64329 0.0
C1892 C 0.28378 0.19188 0.65804 0.0
C1893 C 0.26276 0.20943 0.64394 0.0
C1894 C 0.24709 0.20096 0.65965 0.0
C1895 C 0.24944 0.18728 0.67429 0.0
C1896 C 0.26789 0.18295 0.67337 0.0
C1897 C 0.26089 0.22395 0.62789 0.0
C1898 C 0.23288 0.17776 0.69113 0.0
H1899 H 0.22406 0.25517 0.66851 0.0
H1900 H 0.17999 0.19406 0.63476 0.0
H1901 H 0.25728 0.23221 0.69148 0.0
H1902 H 0.26994 0.25095 0.671 0.0
H1903 H 0.25394 0.25727 0.68866 0.0
H1904 H 0.18434 0.16084 0.63529 0.0
H1905 H 0.2137 0.17324 0.62767 0.0
H1906 H 0.20539 0.16006 0.65126 0.0
H1907 H 0.29262 0.21142 0.63119 0.0
H1908 H 0.27009 0.17301 0.6848 0.0
H1909 H 0.26222 0.23992 0.63429 0.0
H1910 H 0.24395 0.21422 0.62045 0.0
H1911 H 0.27446 0.22907 0.61666 0.0
H1912 H 0.23603 0.19208 0.70136 0.0
H1913 H 0.23479 0.16453 0.69942 0.0
H1914 H 0.21491 0.16993 0.6858 0.0
C1915 C 0.77508 0.99062 0.65435 0.0
C1916 C 0.78133 0.98113 0.63881 0.0
C1917 C 0.78701 0.01462 0.65801 0.0
C1918 C 0.80565 0.02943 0.64583 0.0
C1919 C 0.81262 0.01981 0.63068 0.0
C1920 C 0.80043 0.9958 0.62739 0.0
C1921 C 0.77916 0.0242 0.67448 0.0
C1922 C 0.83254 0.03491 0.6176 0.0
C1923 C 0.81432 0.08997 0.64545 0.0
C1924 C 0.82879 0.09967 0.66179 0.0
C1925 C 0.80783 0.06747 0.63896 0.0
C1926 C 0.81696 0.05502 0.64852 0.0
C1927 C 0.8346 0.06642 0.6627 0.0
C1928 C 0.84021 0.08865 0.6693 0.0
C1929 C 0.78893 0.05603 0.62381 0.0
C1930 C 0.84548 0.05415 0.6727 0.0
H1931 H 0.76033 0.97939 0.66319 0.0
H1932 H 0.80567 0.9885 0.61561 0.0
H1933 H 0.79363 0.03468 0.68469 0.0
H1934 H 0.77334 0.03583 0.66843 0.0
H1935 H 0.76488 0.01034 0.68295 0.0
H1936 H 0.83684 0.02458 0.60742 0.0
H1937 H 0.82835 0.04623 0.60879 0.0
H1938 H 0.84793 0.04637 0.62659 0.0
H1939 H 0.80529 0.09837 0.63973 0.0
H1940 H 0.85133 0.09609 0.68201 0.0
H1941 H 0.77267 0.04388 0.63123 0.0
H1942 H 0.79273 0.04579 0.61314 0.0
H1943 H 0.78624 0.06887 0.61569 0.0
H1944 H 0.83385 0.04278 0.68429 0.0
H1945 H 0.86212 0.06665 0.67969 0.0
H1946 H 0.84833 0.04309 0.66219 0.0
C1947 C 0.45006 0.34293 0.6865 0.0
C1948 C 0.46777 0.35144 0.70048 0.0
C1949 C 0.43675 0.31907 0.68263 0.0
C1950 C 0.44111 0.30339 0.69318 0.0
C1951 C 0.4595 0.31196 0.70674 0.0
C1952 C 0.47274 0.33588 0.71008 0.0
C1953 C 0.41765 0.31061 0.66759 0.0
C1954 C 0.46478 0.29584 0.71812 0.0
C1955 C 0.38829 0.24384 0.69321 0.0
C1956 C 0.39254 0.23398 0.67674 0.0
C1957 C 0.40505 0.26584 0.70009 0.0
C1958 C 0.42617 0.27805 0.69002 0.0
C1959 C 0.43146 0.26676 0.67503 0.0
C1960 C 0.41462 0.24462 0.6688 0.0
C1961 C 0.39912 0.27705 0.7166 0.0
C1962 C 0.45356 0.27909 0.66367 0.0
H1963 H 0.4461 0.35483 0.67907 0.0
H1964 H 0.48681 0.34241 0.72053 0.0
H1965 H 0.41942 0.29926 0.65661 0.0
H1966 H 0.40086 0.30014 0.67488 0.0
H1967 H 0.41747 0.32509 0.65979 0.0
H1968 H 0.48031 0.30535 0.72753 0.0
H1969 H 0.45 0.28461 0.72757 0.0
H1970 H 0.46738 0.2843 0.70796 0.0
H1971 H 0.3711 0.23575 0.69916 0.0
H1972 H 0.41772 0.23704 0.65586 0.0
H1973 H 0.39488 0.28985 0.71048 0.0
H1974 H 0.41393 0.2865 0.72674 0.0
H1975 H 0.38414 0.26413 0.72507 0.0
H1976 H 0.45219 0.29066 0.65281 0.0
H1977 H 0.45709 0.26669 0.6556 0.0
H1978 H 0.46835 0.29 0.67342 0.0
C1979 C 0.65918 0.13175 0.69756 0.0
C1980 C 0.64371 0.10801 0.69501 0.0
C1981 C 0.68208 0.14151 0.69164 0.0
C1982 C 0.68973 0.12709 0.68333 0.0
C1983 C 0.67392 0.10327 0.67999 0.0
C1984 C 0.65101 0.09405 0.68574 0.0
C1985 C 0.69833 0.16702 0.69514 0.0
C1986 C 0.68148 0.08718 0.67156 0.0
C1987 C 0.74764 0.14775 0.65936 0.0
C1988 C 0.75972 0.14514 0.6749 0.0
C1989 C 0.72518 0.14359 0.66219 0.0
C1990 C 0.71465 0.13598 0.68073 0.0
C1991 C 0.72747 0.13471 0.69666 0.0
C1992 C 0.74996 0.13966 0.69357 0.0
C1993 C 0.71223 0.14587 0.64508 0.0
C1994 C 0.71687 0.12614 0.71656 0.0
H1995 H 0.65343 0.1426 0.70451 0.0
H1996 H 0.63908 0.07567 0.68388 0.0
H1997 H 0.71057 0.16938 0.70707 0.0
H1998 H 0.70854 0.17507 0.68179 0.0
H1999 H 0.68916 0.17634 0.69935 0.0
H2000 H 0.66679 0.06955 0.66856 0.0
H2001 H 0.69099 0.09423 0.65773 0.0
H2002 H 0.69333 0.08571 0.68203 0.0
H2003 H 0.75517 0.15167 0.64488 0.0
H2004 H 0.75938 0.13743 0.70548 0.0
H2005 H 0.7028 0.15479 0.6497 0.0
H2006 H 0.69938 0.1284 0.63959 0.0
H2007 H 0.72384 0.1556 0.63283 0.0
H2008 H 0.70877 0.13604 0.72197 0.0
H2009 H 0.72965 0.12754 0.72764 0.0
H2010 H 0.7032 0.1077 0.71533 0.0
C2011 C 0.864 0.52977 0.71284 0.0
C2012 C 0.88693 0.53856 0.70736 0.0
C2013 C 0.8522 0.54151 0.70814 0.0
C2014 C 0.86372 0.56263 0.69789 0.0
C2015 C 0.88691 0.57154 0.69228 0.0
C2016 C 0.89819 0.55931 0.69701 0.0
C2017 C 0.82741 0.53125 0.71398 0.0
C2018 C 0.89982 0.59396 0.68119 0.0
C2019 C 0.83691 0.58719 0.66468 0.0
C2020 C 0.84339 0.60823 0.67433 0.0
C2021 C 0.84135 0.57073 0.67302 0.0
C2022 C 0.85153 0.57507 0.69188 0.0
C2023 C 0.85413 0.5943 0.70304 0.0
C2024 C 0.85031 0.61099 0.69399 0.0
C2025 C 0.83849 0.55076 0.66036 0.0
C2026 C 0.86375 0.59882 0.72361 0.0
H2027 H 0.85522 0.51354 0.72066 0.0
H2028 H 0.91596 0.56617 0.6929 0.0
H2029 H 0.82522 0.54392 0.72298 0.0
H2030 H 0.81647 0.52739 0.70073 0.0
H2031 H 0.82115 0.51502 0.72242 0.0
H2032 H 0.91775 0.59848 0.67796 0.0
H2033 H 0.89091 0.59266 0.66712 0.0
H2034 H 0.90025 0.60832 0.68984 0.0
H2035 H 0.83146 0.58509 0.64944 0.0
H2036 H 0.85535 0.62726 0.70147 0.0
H2037 H 0.83262 0.53481 0.66903 0.0
H2038 H 0.85532 0.55526 0.6539 0.0
H2039 H 0.82613 0.54704 0.64814 0.0
H2040 H 0.85707 0.58243 0.73184 0.0
H2041 H 0.85953 0.61069 0.73176 0.0
H2042 H 0.88269 0.60698 0.72299 0.0
C2043 C 0.50517 0.96693 0.1595 0.0
C2044 C 0.48915 0.9715 0.1686 0.0
C2045 C 0.51068 0.97184 0.13966 0.0
C2046 C 0.50018 0.9819 0.12861 0.0
C2047 C 0.48435 0.98707 0.13775 0.0
C2048 C 0.47897 0.98175 0.15764 0.0
C2049 C 0.52769 0.96618 0.13048 0.0
C2050 C 0.4728 0.99785 0.12645 0.0
C2051 C 0.52776 0.01406 0.08173 0.0
C2052 C 0.51435 0.99767 0.06737 0.0
C2053 C 0.52388 0.00888 0.10174 0.0
C2054 C 0.5058 0.98694 0.10748 0.0
C2055 C 0.49287 0.96995 0.093 0.0
C2056 C 0.49753 0.97543 0.07308 0.0
C2057 C 0.5382 0.02737 0.11672 0.0
C2058 C 0.47314 0.94655 0.09851 0.0
H2059 H 0.51354 0.95952 0.16794 0.0
H2060 H 0.46645 0.98518 0.16449 0.0
H2061 H 0.51948 0.95384 0.11807 0.0
H2062 H 0.54233 0.98211 0.12443 0.0
H2063 H 0.53442 0.95846 0.14111 0.0
H2064 H 0.46207 0.00215 0.13599 0.0
H2065 H 0.48581 0.0139 0.11919 0.0
H2066 H 0.46173 0.98572 0.11475 0.0
H2067 H 0.54038 0.03142 0.07728 0.0
H2068 H 0.48665 0.96297 0.062 0.0
H2069 H 0.54523 0.02042 0.12779 0.0
H2070 H 0.5273 0.03285 0.12462 0.0
H2071 H 0.55266 0.04285 0.10991 0.0
H2072 H 0.47902 0.93792 0.10898 0.0
H2073 H 0.46526 0.93502 0.08554 0.0
H2074 H 0.45972 0.94876 0.10598 0.0
C2075 C 0.02627 0.50186 0.15562 0.0
C2076 C 0.02604 0.518 0.16875 0.0
C2077 C 0.02197 0.50255 0.13551 0.0
C2078 C 0.01732 0.51977 0.12846 0.0
C2079 C 0.0167 0.5358 0.14176 0.0
C2080 C 0.021 0.53468 0.16171 0.0
C2081 C 0.02236 0.48485 0.12183 0.0
C2082 C 0.01143 0.55413 0.13491 0.0
C2083 C 0.02343 0.52923 0.07322 0.0
C2084 C 0.00063 0.51523 0.06705 0.0
C2085 C 0.02907 0.53207 0.09336 0.0
C2086 C 0.01159 0.52007 0.10739 0.0
C2087 C 0.98844 0.50741 0.10121 0.0
C2088 C 0.98324 0.50585 0.0812 0.0
C2089 C 0.05386 0.54656 0.09954 0.0
C2090 C 0.96929 0.49365 0.11548 0.0
H2091 H 0.0303 0.48905 0.16101 0.0
H2092 H 0.02048 0.54696 0.17189 0.0
H2093 H 0.00553 0.47481 0.11426 0.0
H2094 H 0.0355 0.4937 0.11037 0.0
H2095 H 0.02617 0.47259 0.12965 0.0
H2096 H 0.0127 0.566 0.14698 0.0
H2097 H 0.02344 0.56449 0.12311 0.0
H2098 H 0.99384 0.54584 0.12864 0.0
H2099 H 0.03696 0.53638 0.0624 0.0
H2100 H 0.96556 0.49501 0.07647 0.0
H2101 H 0.06031 0.53508 0.10463 0.0
H2102 H 0.05558 0.55816 0.11198 0.0
H2103 H 0.06485 0.55725 0.08732 0.0
H2104 H 0.97138 0.47942 0.12157 0.0
H2105 H 0.95208 0.48592 0.10845 0.0
H2106 H 0.96996 0.50469 0.12798 0.0
C2107 C 0.50715 0.51363 0.15884 0.0
C2108 C 0.49135 0.51908 0.16707 0.0
C2109 C 0.511 0.51509 0.13856 0.0
C2110 C 0.49872 0.52213 0.12618 0.0
C2111 C 0.48299 0.52795 0.1344 0.0
C2112 C 0.47954 0.52643 0.15474 0.0
C2113 C 0.52756 0.50821 0.13031 0.0
C2114 C 0.46928 0.53512 0.12165 0.0
C2115 C 0.52028 0.53628 0.0736 0.0
C2116 C 0.50624 0.51489 0.06445 0.0
C2117 C 0.51735 0.53941 0.09365 0.0
C2118 C 0.50031 0.52059 0.10454 0.0
C2119 C 0.4854 0.49943 0.09494 0.0
C2120 C 0.48838 0.497 0.07502 0.0
C2121 C 0.53312 0.56239 0.10341 0.0
C2122 C 0.46718 0.47879 0.10589 0.0
H2123 H 0.51613 0.50766 0.16821 0.0
H2124 H 0.46759 0.53106 0.161 0.0
H2125 H 0.51806 0.49232 0.12117 0.0
H2126 H 0.54019 0.52204 0.1207 0.0
H2127 H 0.537 0.50481 0.14199 0.0
H2128 H 0.45913 0.54089 0.13041 0.0
H2129 H 0.48086 0.54936 0.11181 0.0
H2130 H 0.4573 0.52034 0.11219 0.0
H2131 H 0.53403 0.55008 0.0654 0.0
H2132 H 0.47737 0.48047 0.06785 0.0
H2133 H 0.54465 0.56039 0.11386 0.0
H2134 H 0.52303 0.56837 0.11197 0.0
H2135 H 0.54378 0.5759 0.09261 0.0
H2136 H 0.47547 0.47269 0.11652 0.0
H2137 H 0.45605 0.46412 0.09592 0.0
H2138 H 0.45619 0.48366 0.11437 0.0
C2139 C 0.96246 0.45422 0.8459 0.0
C2140 C 0.97303 0.47559 0.83639 0.0
C2141 C 0.96527 0.45293 0.86619 0.0
C2142 C 0.9793 0.47348 0.87704 0.0
C2143 C 0.99035 0.49508 0.86731 0.0
C2144 C 0.98687 0.49588 0.84711 0.0
C2145 C 0.95287 0.4297 0.87608 0.0
C2146 C 0.00558 0.51741 0.8783 0.0
C2147 C 0.9731 0.47962 0.93162 0.0
C2148 C 0.99315 0.4808 0.93886 0.0
C2149 C 0.96758 0.4759 0.91157 0.0
C2150 C 0.98221 0.47272 0.89863 0.0
C2151 C 0.00126 0.47167 0.90626 0.0
C2152 C 0.00678 0.4762 0.92629 0.0
C2153 C 0.9474 0.47768 0.90405 0.0
C2154 C 0.01696 0.46778 0.89302 0.0
H2155 H 0.9515 0.4386 0.83752 0.0
H2156 H 0.99491 0.51237 0.83964 0.0
H2157 H 0.96525 0.42653 0.88432 0.0
H2158 H 0.9405 0.42959 0.88684 0.0
H2159 H 0.94337 0.41526 0.86543 0.0
H2160 H 0.01339 0.53262 0.86846 0.0
H2161 H 0.99549 0.52033 0.88964 0.0
H2162 H 0.01955 0.5163 0.88595 0.0
H2163 H 0.96298 0.48392 0.9413 0.0
H2164 H 0.02256 0.47768 0.93187 0.0
H2165 H 0.93699 0.46338 0.89357 0.0
H2166 H 0.95376 0.49419 0.89605 0.0
H2167 H 0.93617 0.4773 0.91612 0.0
H2168 H 0.00686 0.45326 0.88263 0.0
H2169 H 0.02878 0.46394 0.90146 0.0
H2170 H 0.02738 0.48354 0.88421 0.0
C2171 C 0.49319 0.4619 0.84293 0.0
C2172 C 0.51472 0.47878 0.83602 0.0
C2173 C 0.48707 0.4618 0.86258 0.0
C2174 C 0.5029 0.47895 0.87565 0.0
C2175 C 0.52486 0.49578 0.86884 0.0
C2176 C 0.53045 0.49558 0.84904 0.0
C2177 C 0.46345 0.44377 0.86921 0.0
C2178 C 0.54227 0.5143 0.88238 0.0
C2179 C 0.48297 0.4994 0.91916 0.0
C2180 C 0.48957 0.49055 0.93491 0.0
C2181 C 0.48621 0.49482 0.89974 0.0
C2182 C 0.49589 0.48064 0.89596 0.0
C2183 C 0.50041 0.46973 0.91173 0.0
C2184 C 0.4972 0.47484 0.93112 0.0
C2185 C 0.48108 0.50675 0.88339 0.0
C2186 C 0.51032 0.45413 0.90823 0.0
H2187 H 0.4809 0.449 0.83283 0.0
H2188 H 0.54719 0.50845 0.84376 0.0
H2189 H 0.46468 0.43495 0.88251 0.0
H2190 H 0.45343 0.45226 0.8732 0.0
H2191 H 0.45386 0.43052 0.85766 0.0
H2192 H 0.55902 0.5252 0.8751 0.0
H2193 H 0.53569 0.52567 0.88757 0.0
H2194 H 0.54511 0.50627 0.89549 0.0
H2195 H 0.47689 0.51143 0.92204 0.0
H2196 H 0.50242 0.46802 0.94322 0.0
H2197 H 0.47076 0.49416 0.87167 0.0
H2198 H 0.49739 0.51999 0.8767 0.0
H2199 H 0.47167 0.51547 0.88865 0.0
H2200 H 0.50091 0.44155 0.89623 0.0
H2201 H 0.50974 0.44446 0.92162 0.0
H2202 H 0.52846 0.46473 0.90364 0.0
C2203 C 0.48691 0.01724 0.84388 0.0
C2204 C 0.50933 0.02836 0.83647 0.0
C2205 C 0.48268 0.01151 0.8638 0.0
C2206 C 0.50132 0.01741 0.87671 0.0
C2207 C 0.52399 0.02874 0.86939 0.0
C2208 C 0.52768 0.03384 0.84937 0.0
C2209 C 0.45827 -0.00106 0.87103 0.0
C2210 C 0.54437 0.03513 0.88263 0.0
C2211 C 0.49798 0.02063 0.93223 0.0
C2212 C 0.4979 0.00038 0.93758 0.0
C2213 C 0.49768 0.02586 0.9123 0.0
C2214 C 0.49726 0.01043 0.89764 0.0
C2215 C 0.49533 0.98913 0.90313 0.0
C2216 C 0.4956 0.98437 0.92302 0.0
C2217 C 0.49965 0.04869 0.90694 0.0
C2218 C 0.49491 0.97218 0.88807 0.0
H2219 H 0.4726 0.01318 0.83416 0.0
H2220 H 0.54502 0.0419 0.8438 0.0
H2221 H 0.45435 0.98219 0.87758 0.0
H2222 H 0.45607 0.00931 0.88271 0.0
H2223 H 0.44565 0.99549 0.85911 0.0
H2224 H 0.56095 0.04506 0.87486 0.0
H2225 H 0.54428 0.04568 0.89526 0.0
H2226 H 0.54332 0.01922 0.88864 0.0
H2227 H 0.50008 0.03314 0.94347 0.0
H2228 H 0.49557 0.9687 0.92722 0.0
H2229 H 0.487 0.04614 0.89534 0.0
H2230 H 0.51698 0.06035 0.90097 0.0
H2231 H 0.49696 0.05737 0.91979 0.0
H2232 H 0.48217 0.96894 0.87635 0.0
H2233 H 0.49075 0.95536 0.89468 0.0
H2234 H 0.51196 0.9796 0.88105 0.0
C2235 C 0.15538 0.2864 0.49042 0.0
C2236 C 0.15551 0.30315 0.50316 0.0
C2237 C 0.15918 0.29041 0.47024 0.0
C2238 C 0.16247 0.31138 0.46234 0.0
C2239 C 0.16177 0.32804 0.47491 0.0
C2240 C 0.1586 0.32387 0.49517 0.0
C2241 C 0.1599 0.27225 0.45739 0.0
C2242 C 0.1644 0.35032 0.46697 0.0
C2243 C 0.19237 0.3346 0.4135 0.0
C2244 C 0.17363 0.32737 0.40079 0.0
C2245 C 0.18901 0.32846 0.43343 0.0
C2246 C 0.16639 0.31577 0.44088 0.0
C2247 C 0.14746 0.30796 0.4279 0.0
C2248 C 0.15136 0.31352 0.40796 0.0
C2249 C 0.20963 0.33651 0.44671 0.0
C2250 C 0.12307 0.29523 0.43524 0.0
H2251 H 0.15229 0.27001 0.49619 0.0
H2252 H 0.15892 0.33705 0.50475 0.0
H2253 H 0.14616 0.26598 0.44608 0.0
H2254 H 0.17652 0.27993 0.44957 0.0
H2255 H 0.15774 0.25715 0.4659 0.0
H2256 H 0.16238 0.36098 0.47852 0.0
H2257 H 0.18156 0.36071 0.46028 0.0
H2258 H 0.15146 0.34645 0.45526 0.0
H2259 H 0.20952 0.34589 0.40806 0.0
H2260 H 0.13685 0.30863 0.39821 0.0
H2261 H 0.20799 0.32185 0.45555 0.0
H2262 H 0.21061 0.34986 0.4571 0.0
H2263 H 0.2259 0.34401 0.43836 0.0
H2264 H 0.11989 0.27976 0.44366 0.0
H2265 H 0.11028 0.28964 0.42311 0.0
H2266 H 0.12025 0.30667 0.44535 0.0
C2267 C 0.69125 0.8703 0.49565 0.0
C2268 C 0.69924 0.85598 0.50292 0.0
C2269 C 0.68624 0.87015 0.47568 0.0
C2270 C 0.68934 0.85536 0.46265 0.0
C2271 C 0.69819 0.84145 0.4698 0.0
C2272 C 0.70291 0.84183 0.48992 0.0
C2273 C 0.67659 0.885 0.46869 0.0
C2274 C 0.70179 0.82548 0.45636 0.0
C2275 C 0.64859 0.83047 0.41957 0.0
C2276 C 0.66297 0.8414 0.40352 0.0
C2277 C 0.65703 0.83502 0.43878 0.0
C2278 C 0.68019 0.85189 0.44229 0.0
C2279 C 0.69437 0.86456 0.42639 0.0
C2280 C 0.68563 0.85901 0.40708 0.0
C2281 C 0.64145 0.82061 0.45518 0.0
C2282 C 0.71894 0.88328 0.42976 0.0
H2283 H 0.68831 0.88118 0.50573 0.0
H2284 H 0.70942 0.83103 0.4955 0.0
H2285 H 0.68578 0.89472 0.45544 0.0
H2286 H 0.65828 0.8738 0.46456 0.0
H2287 H 0.67777 0.8975 0.48013 0.0
H2288 H 0.71091 0.81762 0.46381 0.0
H2289 H 0.68492 0.81134 0.45103 0.0
H2290 H 0.71178 0.83499 0.44332 0.0
H2291 H 0.63095 0.81702 0.41705 0.0
H2292 H 0.69686 0.86755 0.39483 0.0
H2293 H 0.64062 0.83195 0.46673 0.0
H2294 H 0.64846 0.81041 0.4621 0.0
H2295 H 0.62373 0.80839 0.44998 0.0
H2296 H 0.7194 0.89736 0.43888 0.0
H2297 H 0.72804 0.89077 0.41581 0.0
H2298 H 0.72838 0.87631 0.43795 0.0
C2299 C 0.15579 0.86416 0.48847 0.0
C2300 C 0.16394 0.85387 0.50169 0.0
C2301 C 0.15909 0.86356 0.46823 0.0
C2302 C 0.17073 0.85231 0.46105 0.0
C2303 C 0.18066 0.84362 0.47443 0.0
C2304 C 0.17712 0.84448 0.49462 0.0
C2305 C 0.14835 0.87316 0.4545 0.0
C2306 C 0.19327 0.83158 0.46736 0.0
C2307 C 0.14511 0.81669 0.41507 0.0
C2308 C 0.16065 0.83024 0.40048 0.0
C2309 C 0.14843 0.82375 0.43467 0.0
C2310 C 0.16792 0.845 0.4401 0.0
C2311 C 0.18391 0.85884 0.42562 0.0
C2312 C 0.18005 0.85132 0.40587 0.0
C2313 C 0.13082 0.80843 0.44956 0.0
C2314 C 0.20485 0.88163 0.43094 0.0
H2315 H 0.14615 0.87204 0.49391 0.0
H2316 H 0.18356 0.83661 0.50477 0.0
H2317 H 0.16022 0.88287 0.44242 0.0
H2318 H 0.13264 0.85865 0.44779 0.0
H2319 H 0.14351 0.88479 0.46224 0.0
H2320 H 0.20335 0.82956 0.47932 0.0
H2321 H 0.1807 0.8141 0.46164 0.0
H2322 H 0.205 0.84128 0.4552 0.0
H2323 H 0.13001 0.80037 0.41122 0.0
H2324 H 0.19211 0.86193 0.39472 0.0
H2325 H 0.1232 0.81796 0.45675 0.0
H2326 H 0.13913 0.80353 0.46117 0.0
H2327 H 0.11672 0.79231 0.44288 0.0
H2328 H 0.19952 0.89411 0.43587 0.0
H2329 H 0.21671 0.88923 0.41838 0.0
H2330 H 0.21425 0.87936 0.44332 0.0
C2331 C 0.65452 0.82434 0.17973 0.0
C2332 C 0.6333 0.80933 0.17096 0.0
C2333 C 0.65768 0.82394 0.20006 0.0
C2334 C 0.63934 0.80764 0.21171 0.0
C2335 C 0.61806 0.79205 0.20276 0.0
C2336 C 0.61521 0.79328 0.18251 0.0
C2337 C 0.68036 0.84149 0.20913 0.0
C2338 C 0.5982 0.77434 0.21464 0.0
C2339 C 0.6574 0.8 0.26281 0.0
C2340 C 0.65203 0.81436 0.27384 0.0
C2341 C 0.65194 0.79633 0.24266 0.0
C2342 C 0.6419 0.80816 0.23342 0.0
C2343 C 0.63555 0.82182 0.24483 0.0
C2344 C 0.64021 0.82427 0.26496 0.0
C2345 C 0.6581 0.78092 0.23104 0.0
C2346 C 0.62576 0.83558 0.23559 0.0
H2347 H 0.6684 0.83687 0.17075 0.0
H2348 H 0.59882 0.78162 0.17563 0.0
H2349 H 0.67764 0.85243 0.21991 0.0
H2350 H 0.68797 0.83256 0.21721 0.0
H2351 H 0.69285 0.85294 0.19802 0.0
H2352 H 0.58343 0.76228 0.20526 0.0
H2353 H 0.60373 0.76413 0.22357 0.0
H2354 H 0.59232 0.78319 0.22496 0.0
H2355 H 0.66694 0.79275 0.26963 0.0
H2356 H 0.63654 0.8358 0.27352 0.0
H2357 H 0.67279 0.79165 0.22134 0.0
H2358 H 0.64349 0.76889 0.22152 0.0
H2359 H 0.6629 0.77064 0.24069 0.0
H2360 H 0.63883 0.84906 0.22598 0.0
H2361 H 0.62051 0.84427 0.24671 0.0
H2362 H 0.61068 0.82427 0.22625 0.0
C2363 C 0.20591 0.83487 0.18298 0.0
C2364 C 0.18731 0.82477 0.16996 0.0
C2365 C 0.20245 0.83605 0.20314 0.0
C2366 C 0.17986 0.82734 0.21027 0.0
C2367 C 0.16107 0.81769 0.19701 0.0
C2368 C 0.16501 0.81624 0.17698 0.0
C2369 C 0.2229 0.84614 0.21685 0.0
C2370 C 0.13685 0.80887 0.20396 0.0
C2371 C 0.17144 0.81283 0.26452 0.0
C2372 C 0.17496 0.83373 0.2725 0.0
C2373 C 0.17224 0.81015 0.24412 0.0
C2374 C 0.17614 0.82867 0.23161 0.0
C2375 C 0.17828 0.84926 0.23972 0.0
C2376 C 0.17808 0.85169 0.26012 0.0
C2377 C 0.17022 0.78806 0.23606 0.0
C2378 C 0.18174 0.86911 0.2269 0.0
H2379 H 0.22309 0.84112 0.17745 0.0
H2380 H 0.15068 0.80831 0.16677 0.0
H2381 H 0.22431 0.86142 0.22473 0.0
H2382 H 0.22063 0.8332 0.22807 0.0
H2383 H 0.23923 0.85156 0.20901 0.0
H2384 H 0.12418 0.80208 0.19172 0.0
H2385 H 0.13211 0.79489 0.21478 0.0
H2386 H 0.13565 0.82303 0.2115 0.0
H2387 H 0.16926 0.79909 0.27425 0.0
H2388 H 0.1808 0.86784 0.26647 0.0
H2389 H 0.1868 0.79187 0.22951 0.0
H2390 H 0.15707 0.78074 0.22424 0.0
H2391 H 0.16563 0.77476 0.24757 0.0
H2392 H 0.19901 0.87722 0.22021 0.0
H2393 H 0.18025 0.88264 0.23529 0.0
H2394 H 0.16897 0.86275 0.21476 0.0
C2395 C 0.19337 0.36852 0.18555 0.0
C2396 C 0.17838 0.37047 0.17241 0.0
C2397 C 0.18816 0.36462 0.20558 0.0
C2398 C 0.16752 0.36275 0.21265 0.0
C2399 C 0.15272 0.36546 0.19957 0.0
C2400 C 0.15829 0.36921 0.17961 0.0
C2401 C 0.2043 0.36154 0.21899 0.0
C2402 C 0.13067 0.36372 0.20658 0.0
C2403 C 0.1445 0.32442 0.25696 0.0
C2404 C 0.15437 0.34054 0.27238 0.0
C2405 C 0.14768 0.33152 0.23742 0.0
C2406 C 0.16034 0.35543 0.23322 0.0
C2407 C 0.16786 0.37189 0.2488 0.0
C2408 C 0.16489 0.36422 0.26833 0.0
C2409 C 0.13959 0.31332 0.22137 0.0
C2410 C 0.18084 0.39754 0.24488 0.0
H2411 H 0.20885 0.36933 0.18007 0.0
H2412 H 0.14685 0.37115 0.1696 0.0
H2413 H 0.20874 0.37311 0.23201 0.0
H2414 H 0.19574 0.34347 0.22436 0.0
H2415 H 0.22042 0.36525 0.21153 0.0
H2416 H 0.12207 0.36829 0.19496 0.0
H2417 H 0.1187 0.34579 0.2114 0.0
H2418 H 0.13407 0.37532 0.21944 0.0
H2419 H 0.13628 0.30607 0.26012 0.0
H2420 H 0.17266 0.37673 0.2802 0.0
H2421 H 0.15467 0.31376 0.21436 0.0
H2422 H 0.13017 0.31686 0.20981 0.0
H2423 H 0.12828 0.29559 0.22702 0.0
H2424 H 0.19864 0.40278 0.24052 0.0
H2425 H 0.18162 0.4078 0.25807 0.0
H2426 H 0.17281 0.40187 0.23263 0.0
C2427 C 0.81298 0.64518 0.82499 0.0
C2428 C 0.82825 0.64244 0.83716 0.0
C2429 C 0.81804 0.65091 0.80514 0.0
C2430 C 0.83889 0.65402 0.79731 0.0
C2431 C 0.85464 0.65196 0.80968 0.0
C2432 C 0.84914 0.64622 0.82943 0.0
C2433 C 0.80088 0.65321 0.79245 0.0
C2434 C 0.8772 0.65562 0.802 0.0
C2435 C 0.83859 0.6466 0.74197 0.0
C2436 C 0.84752 0.66949 0.73587 0.0
C2437 C 0.83672 0.64134 0.76205 0.0
C2438 C 0.84416 0.65945 0.77618 0.0
C2439 C 0.85514 0.68273 0.76996 0.0
C2440 C 0.85667 0.68745 0.74987 0.0
C2441 C 0.82498 0.61629 0.76812 0.0
C2442 C 0.86344 0.70259 0.78447 0.0
H2443 H 0.79679 0.64219 0.83086 0.0
H2444 H 0.86121 0.64457 0.83888 0.0
H2445 H 0.80912 0.67052 0.78555 0.0
H2446 H 0.7948 0.64011 0.78044 0.0
H2447 H 0.78578 0.65085 0.80089 0.0
H2448 H 0.88775 0.65377 0.81361 0.0
H2449 H 0.87405 0.6429 0.7901 0.0
H2450 H 0.88718 0.67314 0.79559 0.0
H2451 H 0.83106 0.63268 0.73119 0.0
H2452 H 0.86332 0.70515 0.74511 0.0
H2453 H 0.80791 0.6113 0.77428 0.0
H2454 H 0.83503 0.61374 0.77975 0.0
H2455 H 0.82256 0.60452 0.75559 0.0
H2456 H 0.84846 0.70271 0.79108 0.0
H2457 H 0.87438 0.7196 0.77742 0.0
H2458 H 0.87332 0.70055 0.79656 0.0
C2459 C 0.35536 0.16557 0.82358 0.0
C2460 C 0.35919 0.18402 0.83598 0.0
C2461 C 0.35037 0.16576 0.80358 0.0
C2462 C 0.34916 0.18483 0.79591 0.0
C2463 C 0.35271 0.20332 0.80845 0.0
C2464 C 0.35761 0.20265 0.82832 0.0
C2465 C 0.34646 0.1456 0.79067 0.0
C2466 C 0.35127 0.22377 0.80087 0.0
C2467 C 0.35436 0.1914 0.74053 0.0
C2468 C 0.33121 0.17969 0.73488 0.0
C2469 C 0.36058 0.19418 0.7605 0.0
C2470 C 0.34321 0.185 0.77494 0.0
C2471 C 0.31993 0.17492 0.76926 0.0
C2472 C 0.31425 0.17264 0.74931 0.0
C2473 C 0.38561 0.20535 0.76606 0.0
C2474 C 0.30087 0.16479 0.78415 0.0
H2475 H 0.35672 0.15123 0.82943 0.0
H2476 H 0.36017 0.21677 0.83794 0.0
H2477 H 0.32921 0.13765 0.78373 0.0
H2478 H 0.35923 0.15177 0.77868 0.0
H2479 H 0.34781 0.13203 0.79894 0.0
H2480 H 0.35507 0.23703 0.81246 0.0
H2481 H 0.36354 0.232 0.78869 0.0
H2482 H 0.33384 0.21787 0.79491 0.0
H2483 H 0.3675 0.19661 0.72944 0.0
H2484 H 0.29632 0.16349 0.74493 0.0
H2485 H 0.38926 0.192 0.77184 0.0
H2486 H 0.38986 0.21844 0.77787 0.0
H2487 H 0.39701 0.21384 0.75338 0.0
H2488 H 0.30018 0.14937 0.79091 0.0
H2489 H 0.28384 0.15942 0.77746 0.0
H2490 H 0.30414 0.17746 0.7961 0.0
C2491 C 0.81941 0.16006 0.82539 0.0
C2492 C 0.82704 0.18106 0.83534 0.0
C2493 C 0.82242 0.15957 0.80512 0.0
C2494 C 0.83282 0.18061 0.79459 0.0
C2495 C 0.84091 0.20194 0.80469 0.0
C2496 C 0.83811 0.20192 0.82508 0.0
C2497 C 0.81374 0.13648 0.7949 0.0
C2498 C 0.85147 0.2246 0.79386 0.0
C2499 C 0.84992 0.17495 0.74279 0.0
C2500 C 0.82964 0.16914 0.73267 0.0
C2501 C 0.85186 0.18014 0.76296 0.0
C2502 C 0.8332 0.17981 0.77286 0.0
C2503 C 0.8135 0.17584 0.76218 0.0
C2504 C 0.81187 0.17028 0.74223 0.0
C2505 C 0.87304 0.18415 0.77393 0.0
C2506 C 0.7934 0.17577 0.77205 0.0
H2507 H 0.81085 0.144 0.83348 0.0
H2508 H 0.84377 0.21811 0.83291 0.0
H2509 H 0.79908 0.13291 0.78517 0.0
H2510 H 0.82737 0.13683 0.78555 0.0
H2511 H 0.808 0.12201 0.80542 0.0
H2512 H 0.85855 0.23976 0.80401 0.0
H2513 H 0.86537 0.22624 0.78415 0.0
H2514 H 0.83828 0.22505 0.78438 0.0
H2515 H 0.86352 0.17384 0.7353 0.0
H2516 H 0.79622 0.16583 0.73422 0.0
H2517 H 0.86871 0.16896 0.78327 0.0
H2518 H 0.8794 0.19948 0.78378 0.0
H2519 H 0.88704 0.18672 0.76385 0.0
H2520 H 0.78434 0.16017 0.78133 0.0
H2521 H 0.78092 0.17559 0.76126 0.0
H2522 H 0.79937 0.19116 0.78177 0.0
C2523 C 0.324 0.153 0.51091 0.0
C2524 C 0.30192 0.14404 0.50301 0.0
C2525 C 0.32739 0.15305 0.53121 0.0
C2526 C 0.30819 0.14365 0.54384 0.0
C2527 C 0.28581 0.13393 0.53587 0.0
C2528 C 0.28294 0.13431 0.51554 0.0
C2529 C 0.35158 0.16423 0.53922 0.0
C2530 C 0.26496 0.12398 0.54888 0.0
C2531 C 0.32082 0.13565 0.5968 0.0
C2532 C 0.3247 0.15656 0.60503 0.0
C2533 C 0.31421 0.1305 0.57693 0.0
C2534 C 0.31182 0.1468 0.56536 0.0
C2535 C 0.31443 0.16724 0.57412 0.0
C2536 C 0.32055 0.17167 0.59386 0.0
C2537 C 0.31087 0.10824 0.56806 0.0
C2538 C 0.31227 0.18525 0.56241 0.0
H2539 H 0.33869 0.16072 0.50125 0.0
H2540 H 0.26582 0.12713 0.50942 0.0
H2541 H 0.3554 0.17993 0.54788 0.0
H2542 H 0.35342 0.15222 0.54923 0.0
H2543 H 0.36452 0.16935 0.52741 0.0
H2544 H 0.2487 0.11509 0.54032 0.0
H2545 H 0.26538 0.11149 0.5593 0.0
H2546 H 0.26502 0.13803 0.55772 0.0
H2547 H 0.32395 0.12398 0.60552 0.0
H2548 H 0.32322 0.18772 0.60042 0.0
H2549 H 0.3248 0.11215 0.55748 0.0
H2550 H 0.29441 0.09925 0.55981 0.0
H2551 H 0.31094 0.09636 0.57936 0.0
H2552 H 0.3262 0.19295 0.55144 0.0
H2553 H 0.31335 0.19944 0.57182 0.0
H2554 H 0.29575 0.17722 0.55427 0.0
C2555 C 0.86034 0.14364 0.51796 0.0
C2556 C 0.85155 0.15209 0.50361 0.0
C2557 C 0.85712 0.14598 0.53793 0.0
C2558 C 0.84479 0.15706 0.54372 0.0
C2559 C 0.83568 0.16548 0.52932 0.0
C2560 C 0.83926 0.16298 0.50938 0.0
C2561 C 0.86747 0.13715 0.55284 0.0
C2562 C 0.82256 0.1775 0.53499 0.0
C2563 C 0.82627 0.14841 0.59709 0.0
C2564 C 0.84463 0.16803 0.60583 0.0
C2565 C 0.82551 0.14496 0.57665 0.0
C2566 C 0.84342 0.1616 0.56487 0.0
C2567 C 0.8614 0.18187 0.57359 0.0
C2568 C 0.86181 0.18479 0.59391 0.0
C2569 C 0.80603 0.12317 0.56775 0.0
C2570 C 0.88078 0.20012 0.56158 0.0
H2571 H 0.87011 0.13549 0.51355 0.0
H2572 H 0.83227 0.16934 0.4983 0.0
H2573 H 0.88074 0.15187 0.56162 0.0
H2574 H 0.85411 0.12525 0.56315 0.0
H2575 H 0.87552 0.12787 0.5459 0.0
H2576 H 0.81495 0.18128 0.52206 0.0
H2577 H 0.80864 0.16668 0.54533 0.0
H2578 H 0.83419 0.19406 0.54266 0.0
H2579 H 0.8129 0.13551 0.60622 0.0
H2580 H 0.87588 0.20025 0.60049 0.0
H2581 H 0.81269 0.11212 0.56189 0.0
H2582 H 0.7983 0.1275 0.55526 0.0
H2583 H 0.79242 0.11302 0.57858 0.0
H2584 H 0.89105 0.19286 0.55529 0.0
H2585 H 0.8924 0.21575 0.57043 0.0
H2586 H 0.8739 0.2055 0.54916 0.0
C2587 C 0.85892 0.69876 0.51674 0.0
C2588 C 0.84249 0.69955 0.50459 0.0
C2589 C 0.85505 0.69449 0.53687 0.0
C2590 C 0.83414 0.6907 0.54504 0.0
C2591 C 0.81755 0.6916 0.53291 0.0
C2592 C 0.82194 0.69608 0.51284 0.0
C2593 C 0.87318 0.69354 0.54929 0.0
C2594 C 0.79502 0.68747 0.54112 0.0
C2595 C 0.81881 0.65477 0.59088 0.0
C2596 C 0.82753 0.6719 0.60556 0.0
C2597 C 0.81947 0.66055 0.57113 0.0
C2598 C 0.82911 0.6841 0.56598 0.0
C2599 C 0.83608 0.70129 0.5809 0.0
C2600 C 0.83515 0.69495 0.60064 0.0
C2601 C 0.81179 0.64165 0.55575 0.0
C2602 C 0.84646 0.72658 0.57597 0.0
H2603 H 0.8747 0.7011 0.51046 0.0
H2604 H 0.80931 0.69703 0.50361 0.0
H2605 H 0.87777 0.70551 0.56204 0.0
H2606 H 0.86637 0.67582 0.55512 0.0
H2607 H 0.88902 0.69822 0.54091 0.0
H2608 H 0.78421 0.68951 0.52988 0.0
H2609 H 0.78532 0.66972 0.54712 0.0
H2610 H 0.79817 0.69972 0.55341 0.0
H2611 H 0.81311 0.63696 0.59475 0.0
H2612 H 0.84232 0.70824 0.61198 0.0
H2613 H 0.82702 0.64318 0.54812 0.0
H2614 H 0.8008 0.64339 0.54455 0.0
H2615 H 0.80216 0.62409 0.5622 0.0
H2616 H 0.86403 0.73313 0.57022 0.0
H2617 H 0.84756 0.73718 0.58901 0.0
H2618 H 0.8363 0.72901 0.56437 0.0
loop_
_geom_bond_atom_site_label_1
_geom_bond_atom_site_label_2
_geom_bond_distance
_geom_bond_site_symmetry_2
_ccdc_geom_bond_type
C0 C1 1.386 . S
C0 C2 1.397 . S
C0 H24 0.931 . S
C1 C0 1.386 . S
C1 C5 1.397 . S
C2 C0 1.397 . S
C2 C3 1.384 . S
C2 H25 0.930 . S
C3 C2 1.384 . S
C3 C4 1.377 . S
C3 C6 1.481 . S
C4 C3 1.377 . S
C4 C5 1.389 . S
C4 H26 0.929 . S
C5 C1 1.397 . S
C5 C4 1.389 . S
C5 H27 0.931 . S
C6 C3 1.481 . S
C6 C7 1.387 . S
C6 C11 1.390 . S
C7 C6 1.387 . S
C7 C8 1.401 . S
C7 H28 0.930 . S
C8 C7 1.401 . S
C8 C9 1.376 . S
C8 C17 1.511 . S
C9 C8 1.376 . S
C9 C10 1.392 . S
C9 H30 0.931 . S
C10 C9 1.392 . S
C10 C11 1.361 . S
C10 C12 1.500 . S
C11 C6 1.390 . S
C11 C10 1.361 . S
C11 H29 0.931 . S
C12 C10 1.500 . S
C12 C13 1.371 . S
C12 C14 1.365 . S
C13 C12 1.371 . S
C13 C23 1.386 . S
C13 H31 0.931 . S
C14 C12 1.365 . S
C14 C15 1.409 . S
C14 H32 0.929 . S
C15 C14 1.409 . S
C15 C16 1.380 . S
C15 H33 0.930 . S
C16 C15 1.380 . S
C16 C23 1.357 . S
C17 C8 1.511 . S
C17 C18 1.341 . S
C17 C19 1.371 . S
C18 C17 1.341 . S
C18 C22 1.394 . S
C18 H34 0.930 . S
C19 C17 1.371 . S
C19 C20 1.392 . S
C19 H35 0.931 . S
C20 C19 1.392 . S
C20 C21 1.331 . S
C20 H38 0.932 . S
C21 C20 1.331 . S
C21 C22 1.336 . S
C22 C18 1.394 . S
C22 C21 1.336 . S
C22 H37 0.929 . S
C23 C13 1.386 . S
C23 C16 1.357 . S
C23 H36 0.928 . S
H24 C0 0.931 . S
H25 C2 0.930 . S
H26 C4 0.929 . S
H27 C5 0.931 . S
H28 C7 0.930 . S
H29 C11 0.931 . S
H30 C9 0.931 . S
H31 C13 0.931 . S
H32 C14 0.929 . S
H33 C15 0.930 . S
H34 C18 0.930 . S
H35 C19 0.931 . S
H36 C23 0.928 . S
H37 C22 0.929 . S
H38 C20 0.932 . S
C39 C40 1.386 . S
C39 C41 1.397 . S
C39 H63 0.931 . S
C40 C39 1.386 . S
C40 C44 1.397 . S
C41 C39 1.397 . S
C41 C42 1.384 . S
C41 H64 0.930 . S
C42 C41 1.384 . S
C42 C43 1.377 . S
C42 C45 1.481 . S
C43 C42 1.377 . S
C43 C44 1.389 . S
C43 H65 0.929 . S
C44 C40 1.397 . S
C44 C43 1.389 . S
C44 H66 0.931 . S
C45 C42 1.481 . S
C45 C46 1.387 . S
C45 C50 1.390 . S
C46 C45 1.387 . S
C46 C47 1.401 . S
C46 H67 0.930 . S
C47 C46 1.401 . S
C47 C48 1.376 . S
C47 C56 1.511 . S
C48 C47 1.376 . S
C48 C49 1.392 . S
C48 H69 0.931 . S
C49 C48 1.392 . S
C49 C50 1.361 . S
C49 C51 1.500 . S
C50 C45 1.390 . S
C50 C49 1.361 . S
C50 H68 0.931 . S
C51 C49 1.500 . S
C51 C52 1.371 . S
C51 C53 1.365 . S
C52 C51 1.371 . S
C52 C62 1.386 . S
C52 H70 0.931 . S
C53 C51 1.365 . S
C53 C54 1.409 . S
C53 H71 0.929 . S
C54 C53 1.409 . S
C54 C55 1.380 . S
C54 H72 0.930 . S
C55 C54 1.380 . S
C55 C62 1.357 . S
C56 C47 1.511 . S
C56 C57 1.341 . S
C56 C58 1.371 . S
C57 C56 1.341 . S
C57 C61 1.394 . S
C57 H73 0.930 . S
C58 C56 1.371 . S
C58 C59 1.392 . S
C58 H74 0.931 . S
C59 C58 1.392 . S
C59 C60 1.331 . S
C59 H77 0.932 . S
C60 C59 1.331 . S
C60 C61 1.336 . S
C61 C57 1.394 . S
C61 C60 1.336 . S
C61 H76 0.929 . S
C62 C52 1.386 . S
C62 C55 1.357 . S
C62 H75 0.928 . S
H63 C39 0.931 . S
H64 C41 0.930 . S
H65 C43 0.929 . S
H66 C44 0.931 . S
H67 C46 0.930 . S
H68 C50 0.931 . S
H69 C48 0.931 . S
H70 C52 0.931 . S
H71 C53 0.929 . S
H72 C54 0.930 . S
H73 C57 0.930 . S
H74 C58 0.931 . S
H75 C62 0.928 . S
H76 C61 0.929 . S
H77 C59 0.932 . S
C78 C79 1.386 . S
C78 C80 1.397 . S
C78 H102 0.931 . S
C79 C78 1.386 . S
C79 C83 1.397 . S
C80 C78 1.397 . S
C80 C81 1.384 . S
C80 H103 0.930 . S
C81 C80 1.384 . S
C81 C82 1.377 . S
C81 C84 1.481 . S
C82 C81 1.377 . S
C82 C83 1.389 . S
C82 H104 0.929 . S
C83 C79 1.397 . S
C83 C82 1.389 . S
C83 H105 0.931 . S
C84 C81 1.481 . S
C84 C85 1.387 . S
C84 C89 1.390 . S
C85 C84 1.387 . S
C85 C86 1.401 . S
C85 H106 0.930 . S
C86 C85 1.401 . S
C86 C87 1.376 . S
C86 C95 1.511 . S
C87 C86 1.376 . S
C87 C88 1.392 . S
C87 H108 0.931 . S
C88 C87 1.392 . S
C88 C89 1.361 . S
C88 C90 1.500 . S
C89 C84 1.390 . S
C89 C88 1.361 . S
C89 H107 0.931 . S
C90 C88 1.500 . S
C90 C91 1.371 . S
C90 C92 1.365 . S
C91 C90 1.371 . S
C91 C101 1.386 . S
C91 H109 0.931 . S
C92 C90 1.365 . S
C92 C93 1.409 . S
C92 H110 0.929 . S
C93 C92 1.409 . S
C93 C94 1.380 . S
C93 H111 0.930 . S
C94 C93 1.380 . S
C94 C101 1.357 . S
C95 C86 1.511 . S
C95 C96 1.341 . S
C95 C97 1.371 . S
C96 C95 1.341 . S
C96 C100 1.394 . S
C96 H112 0.930 . S
C97 C95 1.371 . S
C97 C98 1.392 . S
C97 H113 0.931 . S
C98 C97 1.392 . S
C98 C99 1.331 . S
C98 H116 0.932 . S
C99 C98 1.331 . S
C99 C100 1.336 . S
C100 C96 1.394 . S
C100 C99 1.336 . S
C100 H115 0.929 . S
C101 C91 1.386 . S
C101 C94 1.357 . S
C101 H114 0.928 . S
H102 C78 0.931 . S
H103 C80 0.930 . S
H104 C82 0.929 . S
H105 C83 0.931 . S
H106 C85 0.930 . S
H107 C89 0.931 . S
H108 C87 0.931 . S
H109 C91 0.931 . S
H110 C92 0.929 . S
H111 C93 0.930 . S
H112 C96 0.930 . S
H113 C97 0.931 . S
H114 C101 0.928 . S
H115 C100 0.929 . S
H116 C98 0.932 . S
C117 C118 1.386 . S
C117 C119 1.397 . S
C117 H141 0.931 . S
C118 C117 1.386 . S
C118 C122 1.397 . S
C119 C117 1.397 . S
C119 C120 1.384 . S
C119 H142 0.930 . S
C120 C119 1.384 . S
C120 C121 1.377 . S
C120 C123 1.481 . S
C121 C120 1.377 . S
C121 C122 1.389 . S
C121 H143 0.929 . S
C122 C118 1.397 . S
C122 C121 1.389 . S
C122 H144 0.931 . S
C123 C120 1.481 . S
C123 C124 1.387 . S
C123 C128 1.390 . S
C124 C123 1.387 . S
C124 C125 1.401 . S
C124 H145 0.930 . S
C125 C124 1.401 . S
C125 C126 1.376 . S
C125 C134 1.511 . S
C126 C125 1.376 . S
C126 C127 1.392 . S
C126 H147 0.931 . S
C127 C126 1.392 . S
C127 C128 1.361 . S
C127 C129 1.500 . S
C128 C123 1.390 . S
C128 C127 1.361 . S
C128 H146 0.931 . S
C129 C127 1.500 . S
C129 C130 1.371 . S
C129 C131 1.365 . S
C130 C129 1.371 . S
C130 C140 1.386 . S
C130 H148 0.931 . S
C131 C129 1.365 . S
C131 C132 1.409 . S
C131 H149 0.929 . S
C132 C131 1.409 . S
C132 C133 1.380 . S
C132 H150 0.930 . S
C133 C132 1.380 . S
C133 C140 1.357 . S
C134 C125 1.511 . S
C134 C135 1.341 . S
C134 C136 1.371 . S
C135 C134 1.341 . S
C135 C139 1.394 . S
C135 H151 0.930 . S
C136 C134 1.371 . S
C136 C137 1.392 . S
C136 H152 0.931 . S
C137 C136 1.392 . S
C137 C138 1.331 . S
C137 H155 0.932 . S
C138 C137 1.331 . S
C138 C139 1.336 . S
C139 C135 1.394 . S
C139 C138 1.336 . S
C139 H154 0.929 . S
C140 C130 1.386 . S
C140 C133 1.357 . S
C140 H153 0.928 . S
H141 C117 0.931 . S
H142 C119 0.930 . S
H143 C121 0.929 . S
H144 C122 0.931 . S
H145 C124 0.930 . S
H146 C128 0.931 . S
H147 C126 0.931 . S
H148 C130 0.931 . S
H149 C131 0.929 . S
H150 C132 0.930 . S
H151 C135 0.930 . S
H152 C136 0.931 . S
H153 C140 0.928 . S
H154 C139 0.929 . S
H155 C137 0.932 . S
C156 C157 1.386 . S
C156 C158 1.397 . S
C156 H180 0.931 . S
C157 C156 1.386 . S
C157 C161 1.397 . S
C158 C156 1.397 . S
C158 C159 1.384 . S
C158 H181 0.930 . S
C159 C158 1.384 . S
C159 C160 1.377 . S
C159 C162 1.481 . S
C160 C159 1.377 . S
C160 C161 1.389 . S
C160 H182 0.929 . S
C161 C157 1.397 . S
C161 C160 1.389 . S
C161 H183 0.931 . S
C162 C159 1.481 . S
C162 C163 1.387 . S
C162 C167 1.390 . S
C163 C162 1.387 . S
C163 C164 1.401 . S
C163 H184 0.930 . S
C164 C163 1.401 . S
C164 C165 1.376 . S
C164 C173 1.511 . S
C165 C164 1.376 . S
C165 C166 1.392 . S
C165 H186 0.931 . S
C166 C165 1.392 . S
C166 C167 1.361 . S
C166 C168 1.500 . S
C167 C162 1.390 . S
C167 C166 1.361 . S
C167 H185 0.931 . S
C168 C166 1.500 . S
C168 C169 1.371 . S
C168 C170 1.365 . S
C169 C168 1.371 . S
C169 C179 1.386 . S
C169 H187 0.931 . S
C170 C168 1.365 . S
C170 C171 1.409 . S
C170 H188 0.929 . S
C171 C170 1.409 . S
C171 C172 1.380 . S
C171 H189 0.930 . S
C172 C171 1.380 . S
C172 C179 1.357 . S
C173 C164 1.511 . S
C173 C174 1.341 . S
C173 C175 1.371 . S
C174 C173 1.341 . S
C174 C178 1.394 . S
C174 H190 0.930 . S
C175 C173 1.371 . S
C175 C176 1.392 . S
C175 H191 0.931 . S
C176 C175 1.392 . S
C176 C177 1.331 . S
C176 H194 0.932 . S
C177 C176 1.331 . S
C177 C178 1.336 . S
C178 C174 1.394 . S
C178 C177 1.336 . S
C178 H193 0.929 . S
C179 C169 1.386 . S
C179 C172 1.357 . S
C179 H192 0.928 . S
H180 C156 0.931 . S
H181 C158 0.930 . S
H182 C160 0.929 . S
H183 C161 0.931 . S
H184 C163 0.930 . S
H185 C167 0.931 . S
H186 C165 0.931 . S
H187 C169 0.931 . S
H188 C170 0.929 . S
H189 C171 0.930 . S
H190 C174 0.930 . S
H191 C175 0.931 . S
H192 C179 0.928 . S
H193 C178 0.929 . S
H194 C176 0.932 . S
C195 C196 1.386 . S
C195 C197 1.397 . S
C195 H219 0.931 . S
C196 C195 1.386 . S
C196 C200 1.397 . S
C197 C195 1.397 . S
C197 C198 1.384 . S
C197 H220 0.930 . S
C198 C197 1.384 . S
C198 C199 1.377 . S
C198 C201 1.481 . S
C199 C198 1.377 . S
C199 C200 1.389 . S
C199 H221 0.929 . S
C200 C196 1.397 . S
C200 C199 1.389 . S
C200 H222 0.931 . S
C201 C198 1.481 . S
C201 C202 1.387 . S
C201 C206 1.390 . S
C202 C201 1.387 . S
C202 C203 1.401 . S
C202 H223 0.930 . S
C203 C202 1.401 . S
C203 C204 1.376 . S
C203 C212 1.511 . S
C204 C203 1.376 . S
C204 C205 1.392 . S
C204 H225 0.931 . S
C205 C204 1.392 . S
C205 C206 1.361 . S
C205 C207 1.500 . S
C206 C201 1.390 . S
C206 C205 1.361 . S
C206 H224 0.931 . S
C207 C205 1.500 . S
C207 C208 1.371 . S
C207 C209 1.365 . S
C208 C207 1.371 . S
C208 C218 1.386 . S
C208 H226 0.931 . S
C209 C207 1.365 . S
C209 C210 1.409 . S
C209 H227 0.929 . S
C210 C209 1.409 . S
C210 C211 1.380 . S
C210 H228 0.930 . S
C211 C210 1.380 . S
C211 C218 1.357 . S
C212 C203 1.511 . S
C212 C213 1.341 . S
C212 C214 1.371 . S
C213 C212 1.341 . S
C213 C217 1.394 . S
C213 H229 0.930 . S
C214 C212 1.371 . S
C214 C215 1.392 . S
C214 H230 0.931 . S
C215 C214 1.392 . S
C215 C216 1.331 . S
C215 H233 0.932 . S
C216 C215 1.331 . S
C216 C217 1.336 . S
C217 C213 1.394 . S
C217 C216 1.336 . S
C217 H232 0.929 . S
C218 C208 1.386 . S
C218 C211 1.357 . S
C218 H231 0.928 . S
H219 C195 0.931 . S
H220 C197 0.930 . S
H221 C199 0.929 . S
H222 C200 0.931 . S
H223 C202 0.930 . S
H224 C206 0.931 . S
H225 C204 0.931 . S
H226 C208 0.931 . S
H227 C209 0.929 . S
H228 C210 0.930 . S
H229 C213 0.930 . S
H230 C214 0.931 . S
H231 C218 0.928 . S
H232 C217 0.929 . S
H233 C215 0.932 . S
C234 C235 1.386 . S
C234 C236 1.397 . S
C234 H258 0.931 . S
C235 C234 1.386 . S
C235 C239 1.397 . S
C236 C234 1.397 . S
C236 C237 1.384 . S
C236 H259 0.930 . S
C237 C236 1.384 . S
C237 C238 1.377 . S
C237 C240 1.481 . S
C238 C237 1.377 . S
C238 C239 1.389 . S
C238 H260 0.929 . S
C239 C235 1.397 . S
C239 C238 1.389 . S
C239 H261 0.931 . S
C240 C237 1.481 . S
C240 C241 1.387 . S
C240 C245 1.390 . S
C241 C240 1.387 . S
C241 C242 1.401 . S
C241 H262 0.930 . S
C242 C241 1.401 . S
C242 C243 1.376 . S
C242 C251 1.511 . S
C243 C242 1.376 . S
C243 C244 1.392 . S
C243 H264 0.931 . S
C244 C243 1.392 . S
C244 C245 1.361 . S
C244 C246 1.500 . S
C245 C240 1.390 . S
C245 C244 1.361 . S
C245 H263 0.931 . S
C246 C244 1.500 . S
C246 C247 1.371 . S
C246 C248 1.365 . S
C247 C246 1.371 . S
C247 C257 1.386 . S
C247 H265 0.931 . S
C248 C246 1.365 . S
C248 C249 1.409 . S
C248 H266 0.929 . S
C249 C248 1.409 . S
C249 C250 1.380 . S
C249 H267 0.930 . S
C250 C249 1.380 . S
C250 C257 1.357 . S
C251 C242 1.511 . S
C251 C252 1.341 . S
C251 C253 1.371 . S
C252 C251 1.341 . S
C252 C256 1.394 . S
C252 H268 0.930 . S
C253 C251 1.371 . S
C253 C254 1.392 . S
C253 H269 0.931 . S
C254 C253 1.392 . S
C254 C255 1.331 . S
C254 H272 0.932 . S
C255 C254 1.331 . S
C255 C256 1.336 . S
C256 C252 1.394 . S
C256 C255 1.336 . S
C256 H271 0.929 . S
C257 C247 1.386 . S
C257 C250 1.357 . S
C257 H270 0.928 . S
H258 C234 0.931 . S
H259 C236 0.930 . S
H260 C238 0.929 . S
H261 C239 0.931 . S
H262 C241 0.930 . S
H263 C245 0.931 . S
H264 C243 0.931 . S
H265 C247 0.931 . S
H266 C248 0.929 . S
H267 C249 0.930 . S
H268 C252 0.930 . S
H269 C253 0.931 . S
H270 C257 0.928 . S
H271 C256 0.929 . S
H272 C254 0.932 . S
C273 C274 1.386 . S
C273 C275 1.397 . S
C273 H297 0.931 . S
C274 C273 1.386 . S
C274 C278 1.397 . S
C275 C273 1.397 . S
C275 C276 1.384 . S
C275 H298 0.930 . S
C276 C275 1.384 . S
C276 C277 1.377 . S
C276 C279 1.481 . S
C277 C276 1.377 . S
C277 C278 1.389 . S
C277 H299 0.929 . S
C278 C274 1.397 . S
C278 C277 1.389 . S
C278 H300 0.931 . S
C279 C276 1.481 . S
C279 C280 1.387 . S
C279 C284 1.390 . S
C280 C279 1.387 . S
C280 C281 1.401 . S
C280 H301 0.930 . S
C281 C280 1.401 . S
C281 C282 1.376 . S
C281 C290 1.511 . S
C282 C281 1.376 . S
C282 C283 1.392 . S
C282 H303 0.931 . S
C283 C282 1.392 . S
C283 C284 1.361 . S
C283 C285 1.500 . S
C284 C279 1.390 . S
C284 C283 1.361 . S
C284 H302 0.931 . S
C285 C283 1.500 . S
C285 C286 1.371 . S
C285 C287 1.365 . S
C286 C285 1.371 . S
C286 C296 1.386 . S
C286 H304 0.931 . S
C287 C285 1.365 . S
C287 C288 1.409 . S
C287 H305 0.929 . S
C288 C287 1.409 . S
C288 C289 1.380 . S
C288 H306 0.930 . S
C289 C288 1.380 . S
C289 C296 1.357 . S
C290 C281 1.511 . S
C290 C291 1.341 . S
C290 C292 1.371 . S
C291 C290 1.341 . S
C291 C295 1.394 . S
C291 H307 0.930 . S
C292 C290 1.371 . S
C292 C293 1.392 . S
C292 H308 0.931 . S
C293 C292 1.392 . S
C293 C294 1.331 . S
C293 H311 0.932 . S
C294 C293 1.331 . S
C294 C295 1.336 . S
C295 C291 1.394 . S
C295 C294 1.336 . S
C295 H310 0.929 . S
C296 C286 1.386 . S
C296 C289 1.357 . S
C296 H309 0.928 . S
H297 C273 0.931 . S
H298 C275 0.930 . S
H299 C277 0.929 . S
H300 C278 0.931 . S
H301 C280 0.930 . S
H302 C284 0.931 . S
H303 C282 0.931 . S
H304 C286 0.931 . S
H305 C287 0.929 . S
H306 C288 0.930 . S
H307 C291 0.930 . S
H308 C292 0.931 . S
H309 C296 0.928 . S
H310 C295 0.929 . S
H311 C293 0.932 . S
C312 C313 1.386 . S
C312 C314 1.397 . S
C312 H336 0.931 . S
C313 C312 1.386 . S
C313 C317 1.397 . S
C314 C312 1.397 . S
C314 C315 1.384 . S
C314 H337 0.930 . S
C315 C314 1.384 . S
C315 C316 1.377 . S
C315 C318 1.481 . S
C316 C315 1.377 . S
C316 C317 1.389 . S
C316 H338 0.929 . S
C317 C313 1.397 . S
C317 C316 1.389 . S
C317 H339 0.931 . S
C318 C315 1.481 . S
C318 C319 1.387 . S
C318 C323 1.390 . S
C319 C318 1.387 . S
C319 C320 1.401 . S
C319 H340 0.930 . S
C320 C319 1.401 . S
C320 C321 1.376 . S
C320 C329 1.511 . S
C321 C320 1.376 . S
C321 C322 1.392 . S
C321 H342 0.931 . S
C322 C321 1.392 . S
C322 C323 1.361 . S
C322 C324 1.500 . S
C323 C318 1.390 . S
C323 C322 1.361 . S
C323 H341 0.931 . S
C324 C322 1.500 . S
C324 C325 1.371 . S
C324 C326 1.365 . S
C325 C324 1.371 . S
C325 C335 1.386 . S
C325 H343 0.931 . S
C326 C324 1.365 . S
C326 C327 1.409 . S
C326 H344 0.929 . S
C327 C326 1.409 . S
C327 C328 1.380 . S
C327 H345 0.930 . S
C328 C327 1.380 . S
C328 C335 1.357 . S
C329 C320 1.511 . S
C329 C330 1.341 . S
C329 C331 1.371 . S
C330 C329 1.341 . S
C330 C334 1.394 . S
C330 H346 0.930 . S
C331 C329 1.371 . S
C331 C332 1.392 . S
C331 H347 0.931 . S
C332 C331 1.392 . S
C332 C333 1.331 . S
C332 H350 0.932 . S
C333 C332 1.331 . S
C333 C334 1.336 . S
C334 C330 1.394 . S
C334 C333 1.336 . S
C334 H349 0.929 . S
C335 C325 1.386 . S
C335 C328 1.357 . S
C335 H348 0.928 . S
H336 C312 0.931 . S
H337 C314 0.930 . S
H338 C316 0.929 . S
H339 C317 0.931 . S
H340 C319 0.930 . S
H341 C323 0.931 . S
H342 C321 0.931 . S
H343 C325 0.931 . S
H344 C326 0.929 . S
H345 C327 0.930 . S
H346 C330 0.930 . S
H347 C331 0.931 . S
H348 C335 0.928 . S
H349 C334 0.929 . S
H350 C332 0.932 . S
C351 C352 1.386 . S
C351 C353 1.397 . S
C351 H375 0.931 . S
C352 C351 1.386 . S
C352 C356 1.397 . S
C353 C351 1.397 . S
C353 C354 1.384 . S
C353 H376 0.930 . S
C354 C353 1.384 . S
C354 C355 1.377 . S
C354 C357 1.481 . S
C355 C354 1.377 . S
C355 C356 1.389 . S
C355 H377 0.929 . S
C356 C352 1.397 . S
C356 C355 1.389 . S
C356 H378 0.931 . S
C357 C354 1.481 . S
C357 C358 1.387 . S
C357 C362 1.390 . S
C358 C357 1.387 . S
C358 C359 1.401 . S
C358 H379 0.930 . S
C359 C358 1.401 . S
C359 C360 1.376 . S
C359 C368 1.511 . S
C360 C359 1.376 . S
C360 C361 1.392 . S
C360 H381 0.931 . S
C361 C360 1.392 . S
C361 C362 1.361 . S
C361 C363 1.500 . S
C362 C357 1.390 . S
C362 C361 1.361 . S
C362 H380 0.931 . S
C363 C361 1.500 . S
C363 C364 1.371 . S
C363 C365 1.365 . S
C364 C363 1.371 . S
C364 C374 1.386 . S
C364 H382 0.931 . S
C365 C363 1.365 . S
C365 C366 1.409 . S
C365 H383 0.929 . S
C366 C365 1.409 . S
C366 C367 1.380 . S
C366 H384 0.930 . S
C367 C366 1.380 . S
C367 C374 1.357 . S
C368 C359 1.511 . S
C368 C369 1.341 . S
C368 C370 1.371 . S
C369 C368 1.341 . S
C369 C373 1.394 . S
C369 H385 0.930 . S
C370 C368 1.371 . S
C370 C371 1.392 . S
C370 H386 0.931 . S
C371 C370 1.392 . S
C371 C372 1.331 . S
C371 H389 0.985 . S
C372 C371 1.331 . S
C372 C373 1.336 . S
C373 C369 1.394 . S
C373 C372 1.336 . S
C373 H388 0.929 . S
C374 C364 1.386 . S
C374 C367 1.357 . S
C374 H387 0.928 . S
H375 C351 0.931 . S
H376 C353 0.930 . S
H377 C355 0.929 . S
H378 C356 0.931 . S
H379 C358 0.930 . S
H380 C362 0.931 . S
H381 C360 0.931 . S
H382 C364 0.931 . S
H383 C365 0.929 . S
H384 C366 0.930 . S
H385 C369 0.930 . S
H386 C370 0.931 . S
H387 C374 0.928 . S
H388 C373 0.929 . S
H389 C371 0.985 . S
C390 C391 1.386 . S
C390 C392 1.397 . S
C390 H414 0.931 . S
C391 C390 1.386 . S
C391 C395 1.397 . S
C392 C390 1.397 . S
C392 C393 1.384 . S
C392 H415 0.930 . S
C393 C392 1.384 . S
C393 C394 1.377 . S
C393 C396 1.481 . S
C394 C393 1.377 . S
C394 C395 1.389 . S
C394 H416 0.929 . S
C395 C391 1.397 . S
C395 C394 1.389 . S
C395 H417 0.931 . S
C396 C393 1.481 . S
C396 C397 1.387 . S
C396 C401 1.390 . S
C397 C396 1.387 . S
C397 C398 1.401 . S
C397 H418 0.930 . S
C398 C397 1.401 . S
C398 C399 1.376 . S
C398 C407 1.511 . S
C399 C398 1.376 . S
C399 C400 1.392 . S
C399 H420 0.931 . S
C400 C399 1.392 . S
C400 C401 1.361 . S
C400 C402 1.500 . S
C401 C396 1.390 . S
C401 C400 1.361 . S
C401 H419 0.931 . S
C402 C400 1.500 . S
C402 C403 1.371 . S
C402 C404 1.365 . S
C403 C402 1.371 . S
C403 C413 1.386 . S
C403 H421 0.931 . S
C404 C402 1.365 . S
C404 C405 1.409 . S
C404 H422 0.929 . S
C405 C404 1.409 . S
C405 C406 1.380 . S
C405 H423 0.930 . S
C406 C405 1.380 . S
C406 C413 1.357 . S
C407 C398 1.511 . S
C407 C408 1.341 . S
C407 C409 1.371 . S
C408 C407 1.341 . S
C408 C412 1.394 . S
C408 H424 0.930 . S
C409 C407 1.371 . S
C409 C410 1.392 . S
C409 H425 0.931 . S
C410 C409 1.392 . S
C410 C411 1.331 . S
C410 H428 0.932 . S
C411 C410 1.331 . S
C411 C412 1.336 . S
C412 C408 1.394 . S
C412 C411 1.336 . S
C412 H427 0.929 . S
C413 C403 1.386 . S
C413 C406 1.357 . S
C413 H426 0.928 . S
H414 C390 0.931 . S
H415 C392 0.930 . S
H416 C394 0.929 . S
H417 C395 0.931 . S
H418 C397 0.930 . S
H419 C401 0.931 . S
H420 C399 0.931 . S
H421 C403 0.931 . S
H422 C404 0.929 . S
H423 C405 0.930 . S
H424 C408 0.930 . S
H425 C409 0.931 . S
H426 C413 0.928 . S
H427 C412 0.929 . S
H428 C410 0.932 . S
C429 C430 1.386 . S
C429 C431 1.397 . S
C429 H453 0.931 . S
C430 C429 1.386 . S
C430 C434 1.397 . S
C431 C429 1.397 . S
C431 C432 1.384 . S
C431 H454 0.930 . S
C432 C431 1.384 . S
C432 C433 1.377 . S
C432 C435 1.481 . S
C433 C432 1.377 . S
C433 C434 1.389 . S
C433 H455 0.929 . S
C434 C430 1.397 . S
C434 C433 1.389 . S
C434 H456 0.931 . S
C435 C432 1.481 . S
C435 C436 1.387 . S
C435 C440 1.390 . S
C436 C435 1.387 . S
C436 C437 1.401 . S
C436 H457 0.930 . S
C437 C436 1.401 . S
C437 C438 1.376 . S
C437 C446 1.511 . S
C438 C437 1.376 . S
C438 C439 1.392 . S
C438 H459 0.931 . S
C439 C438 1.392 . S
C439 C440 1.361 . S
C439 C441 1.500 . S
C440 C435 1.390 . S
C440 C439 1.361 . S
C440 H458 0.931 . S
C441 C439 1.500 . S
C441 C442 1.371 . S
C441 C443 1.365 . S
C442 C441 1.371 . S
C442 C452 1.386 . S
C442 H460 0.931 . S
C443 C441 1.365 . S
C443 C444 1.409 . S
C443 H461 0.929 . S
C444 C443 1.409 . S
C444 C445 1.380 . S
C444 H462 0.930 . S
C445 C444 1.380 . S
C445 C452 1.357 . S
C446 C437 1.511 . S
C446 C447 1.341 . S
C446 C448 1.371 . S
C447 C446 1.341 . S
C447 C451 1.394 . S
C447 H463 0.930 . S
C448 C446 1.371 . S
C448 C449 1.392 . S
C448 H464 0.931 . S
C449 C448 1.392 . S
C449 C450 1.331 . S
C449 H467 0.932 . S
C450 C449 1.331 . S
C450 C451 1.336 . S
C451 C447 1.394 . S
C451 C450 1.336 . S
C451 H466 0.929 . S
C452 C442 1.386 . S
C452 C445 1.357 . S
C452 H465 0.928 . S
H453 C429 0.931 . S
H454 C431 0.930 . S
H455 C433 0.929 . S
H456 C434 0.931 . S
H457 C436 0.930 . S
H458 C440 0.931 . S
H459 C438 0.931 . S
H460 C442 0.931 . S
H461 C443 0.929 . S
H462 C444 0.930 . S
H463 C447 0.930 . S
H464 C448 0.931 . S
H465 C452 0.928 . S
H466 C451 0.929 . S
H467 C449 0.932 . S
C468 C469 1.386 . S
C468 C470 1.397 . S
C468 H492 0.931 . S
C469 C468 1.386 . S
C469 C473 1.397 . S
C470 C468 1.397 . S
C470 C471 1.384 . S
C470 H493 0.930 . S
C471 C470 1.384 . S
C471 C472 1.377 . S
C471 C474 1.481 . S
C472 C471 1.377 . S
C472 C473 1.389 . S
C472 H494 0.929 . S
C473 C469 1.397 . S
C473 C472 1.389 . S
C473 H495 0.931 . S
C474 C471 1.481 . S
C474 C475 1.387 . S
C474 C479 1.390 . S
C475 C474 1.387 . S
C475 C476 1.401 . S
C475 H496 0.930 . S
C476 C475 1.401 . S
C476 C477 1.376 . S
C476 C485 1.511 . S
C477 C476 1.376 . S
C477 C478 1.392 . S
C477 H498 0.931 . S
C478 C477 1.392 . S
C478 C479 1.361 . S
C478 C480 1.500 . S
C479 C474 1.390 . S
C479 C478 1.361 . S
C479 H497 0.931 . S
C480 C478 1.500 . S
C480 C481 1.371 . S
C480 C482 1.365 . S
C481 C480 1.371 . S
C481 C491 1.386 . S
C481 H499 0.931 . S
C482 C480 1.365 . S
C482 C483 1.409 . S
C482 H500 0.929 . S
C483 C482 1.409 . S
C483 C484 1.380 . S
C483 H501 0.930 . S
C484 C483 1.380 . S
C484 C491 1.357 . S
C485 C476 1.511 . S
C485 C486 1.341 . S
C485 C487 1.371 . S
C486 C485 1.341 . S
C486 C490 1.394 . S
C486 H502 0.930 . S
C487 C485 1.371 . S
C487 C488 1.392 . S
C487 H503 0.931 . S
C488 C487 1.392 . S
C488 C489 1.331 . S
C488 H506 0.932 . S
C489 C488 1.331 . S
C489 C490 1.336 . S
C490 C486 1.394 . S
C490 C489 1.336 . S
C490 H505 0.929 . S
C491 C481 1.386 . S
C491 C484 1.357 . S
C491 H504 0.928 . S
H492 C468 0.931 . S
H493 C470 0.930 . S
H494 C472 0.929 . S
H495 C473 0.931 . S
H496 C475 0.930 . S
H497 C479 0.931 . S
H498 C477 0.931 . S
H499 C481 0.931 . S
H500 C482 0.929 . S
H501 C483 0.930 . S
H502 C486 0.930 . S
H503 C487 0.931 . S
H504 C491 0.928 . S
H505 C490 0.929 . S
H506 C488 0.932 . S
C507 C508 1.386 . S
C507 C509 1.397 . S
C507 H531 0.931 . S
C508 C507 1.386 . S
C508 C512 1.397 . S
C509 C507 1.397 . S
C509 C510 1.384 . S
C509 H532 0.930 . S
C510 C509 1.384 . S
C510 C511 1.377 . S
C510 C513 1.481 . S
C511 C510 1.377 . S
C511 C512 1.389 . S
C511 H533 0.929 . S
C512 C508 1.397 . S
C512 C511 1.389 . S
C512 H534 0.931 . S
C513 C510 1.481 . S
C513 C514 1.387 . S
C513 C518 1.390 . S
C514 C513 1.387 . S
C514 C515 1.401 . S
C514 H535 0.930 . S
C515 C514 1.401 . S
C515 C516 1.376 . S
C515 C524 1.511 . S
C516 C515 1.376 . S
C516 C517 1.392 . S
C516 H537 0.931 . S
C517 C516 1.392 . S
C517 C518 1.361 . S
C517 C519 1.500 . S
C518 C513 1.390 . S
C518 C517 1.361 . S
C518 H536 0.931 . S
C519 C517 1.500 . S
C519 C520 1.371 . S
C519 C521 1.365 . S
C520 C519 1.371 . S
C520 C530 1.386 . S
C520 H538 0.931 . S
C521 C519 1.365 . S
C521 C522 1.409 . S
C521 H539 0.929 . S
C522 C521 1.409 . S
C522 C523 1.380 . S
C522 H540 0.930 . S
C523 C522 1.380 . S
C523 C530 1.357 . S
C524 C515 1.511 . S
C524 C525 1.341 . S
C524 C526 1.371 . S
C525 C524 1.341 . S
C525 C529 1.394 . S
C525 H541 0.930 . S
C526 C524 1.371 . S
C526 C527 1.392 . S
C526 H542 0.931 . S
C527 C526 1.392 . S
C527 C528 1.331 . S
C527 H545 0.932 . S
C528 C527 1.331 . S
C528 C529 1.336 . S
C529 C525 1.394 . S
C529 C528 1.336 . S
C529 H544 0.929 . S
C530 C520 1.386 . S
C530 C523 1.357 . S
C530 H543 0.928 . S
H531 C507 0.931 . S
H532 C509 0.930 . S
H533 C511 0.929 . S
H534 C512 0.931 . S
H535 C514 0.930 . S
H536 C518 0.931 . S
H537 C516 0.931 . S
H538 C520 0.931 . S
H539 C521 0.929 . S
H540 C522 0.930 . S
H541 C525 0.930 . S
H542 C526 0.931 . S
H543 C530 0.928 . S
H544 C529 0.929 . S
H545 C527 0.932 . S
C546 C547 1.386 . S
C546 C548 1.397 . S
C546 H570 0.931 . S
C547 C546 1.386 . S
C547 C551 1.397 . S
C548 C546 1.397 . S
C548 C549 1.384 . S
C548 H571 0.930 . S
C549 C548 1.384 . S
C549 C550 1.377 . S
C549 C552 1.481 . S
C550 C549 1.377 . S
C550 C551 1.389 . S
C550 H572 0.929 . S
C551 C547 1.397 . S
C551 C550 1.389 . S
C551 H573 0.931 . S
C552 C549 1.481 . S
C552 C553 1.387 . S
C552 C557 1.390 . S
C553 C552 1.387 . S
C553 C554 1.401 . S
C553 H574 0.930 . S
C554 C553 1.401 . S
C554 C555 1.376 . S
C554 C563 1.511 . S
C555 C554 1.376 . S
C555 C556 1.392 . S
C555 H576 0.931 . S
C556 C555 1.392 . S
C556 C557 1.361 . S
C556 C558 1.500 . S
C557 C552 1.390 . S
C557 C556 1.361 . S
C557 H575 0.931 . S
C558 C556 1.500 . S
C558 C559 1.371 . S
C558 C560 1.365 . S
C559 C558 1.371 . S
C559 C569 1.386 . S
C559 H577 0.931 . S
C560 C558 1.365 . S
C560 C561 1.409 . S
C560 H578 0.929 . S
C561 C560 1.409 . S
C561 C562 1.380 . S
C561 H579 0.930 . S
C562 C561 1.380 . S
C562 C569 1.357 . S
C563 C554 1.511 . S
C563 C564 1.341 . S
C563 C565 1.371 . S
C564 C563 1.341 . S
C564 C568 1.394 . S
C564 H580 0.930 . S
C565 C563 1.371 . S
C565 C566 1.392 . S
C565 H581 0.931 . S
C566 C565 1.392 . S
C566 C567 1.331 . S
C566 H584 0.932 . S
C567 C566 1.331 . S
C567 C568 1.336 . S
C568 C564 1.394 . S
C568 C567 1.336 . S
C568 H583 0.929 . S
C569 C559 1.386 . S
C569 C562 1.357 . S
C569 H582 0.928 . S
H570 C546 0.931 . S
H571 C548 0.930 . S
H572 C550 0.929 . S
H573 C551 0.931 . S
H574 C553 0.930 . S
H575 C557 0.931 . S
H576 C555 0.931 . S
H577 C559 0.931 . S
H578 C560 0.929 . S
H579 C561 0.930 . S
H580 C564 0.930 . S
H581 C565 0.931 . S
H582 C569 0.928 . S
H583 C568 0.929 . S
H584 C566 0.932 . S
C585 C586 1.386 . S
C585 C587 1.397 . S
C585 H609 0.931 . S
C586 C585 1.386 . S
C586 C590 1.397 . S
C587 C585 1.397 . S
C587 C588 1.384 . S
C587 H610 0.930 . S
C588 C587 1.384 . S
C588 C589 1.377 . S
C588 C591 1.481 . S
C589 C588 1.377 . S
C589 C590 1.389 . S
C589 H611 0.929 . S
C590 C586 1.397 . S
C590 C589 1.389 . S
C590 H612 0.931 . S
C591 C588 1.481 . S
C591 C592 1.387 . S
C591 C596 1.390 . S
C592 C591 1.387 . S
C592 C593 1.401 . S
C592 H613 0.930 . S
C593 C592 1.401 . S
C593 C594 1.376 . S
C593 C602 1.511 . S
C594 C593 1.376 . S
C594 C595 1.392 . S
C594 H615 0.931 . S
C595 C594 1.392 . S
C595 C596 1.361 . S
C595 C597 1.500 . S
C596 C591 1.390 . S
C596 C595 1.361 . S
C596 H614 0.931 . S
C597 C595 1.500 . S
C597 C598 1.371 . S
C597 C599 1.365 . S
C598 C597 1.371 . S
C598 C608 1.386 . S
C598 H616 0.931 . S
C599 C597 1.365 . S
C599 C600 1.409 . S
C599 H617 0.929 . S
C600 C599 1.409 . S
C600 C601 1.380 . S
C600 H618 0.930 . S
C601 C600 1.380 . S
C601 C608 1.357 . S
C602 C593 1.511 . S
C602 C603 1.341 . S
C602 C604 1.371 . S
C603 C602 1.341 . S
C603 C607 1.394 . S
C603 H619 0.930 . S
C604 C602 1.371 . S
C604 C605 1.392 . S
C604 H620 0.931 . S
C605 C604 1.392 . S
C605 C606 1.331 . S
C605 H623 0.932 . S
C606 C605 1.331 . S
C606 C607 1.336 . S
C607 C603 1.394 . S
C607 C606 1.336 . S
C607 H622 0.929 . S
C608 C598 1.386 . S
C608 C601 1.357 . S
C608 H621 0.928 . S
H609 C585 0.931 . S
H610 C587 0.930 . S
H611 C589 0.929 . S
H612 C590 0.931 . S
H613 C592 0.930 . S
H614 C596 0.931 . S
H615 C594 0.931 . S
H616 C598 0.931 . S
H617 C599 0.929 . S
H618 C600 0.930 . S
H619 C603 0.930 . S
H620 C604 0.931 . S
H621 C608 0.928 . S
H622 C607 0.929 . S
H623 C605 0.932 . S
C624 C625 1.386 . S
C624 C626 1.397 . S
C624 H648 0.931 . S
C625 C624 1.386 . S
C625 C629 1.397 . S
C626 C624 1.397 . S
C626 C627 1.384 . S
C626 H649 0.930 . S
C627 C626 1.384 . S
C627 C628 1.377 . S
C627 C630 1.481 . S
C628 C627 1.377 . S
C628 C629 1.389 . S
C628 H650 0.929 . S
C629 C625 1.397 . S
C629 C628 1.389 . S
C629 H651 0.931 . S
C630 C627 1.481 . S
C630 C631 1.387 . S
C630 C635 1.390 . S
C631 C630 1.387 . S
C631 C632 1.401 . S
C631 H652 0.930 . S
C632 C631 1.401 . S
C632 C633 1.376 . S
C632 C641 1.511 . S
C633 C632 1.376 . S
C633 C634 1.392 . S
C633 H654 0.931 . S
C634 C633 1.392 . S
C634 C635 1.361 . S
C634 C636 1.500 . S
C635 C630 1.390 . S
C635 C634 1.361 . S
C635 H653 0.931 . S
C636 C634 1.500 . S
C636 C637 1.371 . S
C636 C638 1.365 . S
C637 C636 1.371 . S
C637 C647 1.386 . S
C637 H655 0.931 . S
C638 C636 1.365 . S
C638 C639 1.409 . S
C638 H656 0.929 . S
C639 C638 1.409 . S
C639 C640 1.380 . S
C639 H657 0.930 . S
C640 C639 1.380 . S
C640 C647 1.357 . S
C641 C632 1.511 . S
C641 C642 1.341 . S
C641 C643 1.371 . S
C642 C641 1.341 . S
C642 C646 1.394 . S
C642 H658 0.930 . S
C643 C641 1.371 . S
C643 C644 1.392 . S
C643 H659 0.931 . S
C644 C643 1.392 . S
C644 C645 1.331 . S
C644 H662 0.932 . S
C645 C644 1.331 . S
C645 C646 1.336 . S
C646 C642 1.394 . S
C646 C645 1.336 . S
C646 H661 0.929 . S
C647 C637 1.386 . S
C647 C640 1.357 . S
C647 H660 0.928 . S
H648 C624 0.931 . S
H649 C626 0.930 . S
H650 C628 0.929 . S
H651 C629 0.931 . S
H652 C631 0.930 . S
H653 C635 0.931 . S
H654 C633 0.931 . S
H655 C637 0.931 . S
H656 C638 0.929 . S
H657 C639 0.930 . S
H658 C642 0.930 . S
H659 C643 0.931 . S
H660 C647 0.928 . S
H661 C646 0.929 . S
H662 C644 0.932 . S
C663 C664 1.386 . S
C663 C665 1.397 . S
C663 H687 0.931 . S
C664 C663 1.386 . S
C664 C668 1.397 . S
C665 C663 1.397 . S
C665 C666 1.384 . S
C665 H688 0.930 . S
C666 C665 1.384 . S
C666 C667 1.377 . S
C666 C669 1.481 . S
C667 C666 1.377 . S
C667 C668 1.389 . S
C667 H689 0.929 . S
C668 C664 1.397 . S
C668 C667 1.389 . S
C668 H690 0.931 . S
C669 C666 1.481 . S
C669 C670 1.387 . S
C669 C674 1.390 . S
C670 C669 1.387 . S
C670 C671 1.401 . S
C670 H691 0.930 . S
C671 C670 1.401 . S
C671 C672 1.376 . S
C671 C680 1.511 . S
C672 C671 1.376 . S
C672 C673 1.392 . S
C672 H693 0.931 . S
C673 C672 1.392 . S
C673 C674 1.361 . S
C673 C675 1.500 . S
C674 C669 1.390 . S
C674 C673 1.361 . S
C674 H692 0.931 . S
C675 C673 1.500 . S
C675 C676 1.371 . S
C675 C677 1.365 . S
C676 C675 1.371 . S
C676 C686 1.386 . S
C676 H694 0.931 . S
C677 C675 1.365 . S
C677 C678 1.409 . S
C677 H695 0.929 . S
C678 C677 1.409 . S
C678 C679 1.380 . S
C678 H696 0.930 . S
C679 C678 1.380 . S
C679 C686 1.357 . S
C680 C671 1.511 . S
C680 C681 1.341 . S
C680 C682 1.371 . S
C681 C680 1.341 . S
C681 C685 1.394 . S
C681 H697 0.930 . S
C682 C680 1.371 . S
C682 C683 1.392 . S
C682 H698 0.931 . S
C683 C682 1.392 . S
C683 C684 1.331 . S
C683 H701 0.932 . S
C684 C683 1.331 . S
C684 C685 1.336 . S
C685 C681 1.394 . S
C685 C684 1.336 . S
C685 H700 0.929 . S
C686 C676 1.386 . S
C686 C679 1.357 . S
C686 H699 0.928 . S
H687 C663 0.931 . S
H688 C665 0.930 . S
H689 C667 0.929 . S
H690 C668 0.931 . S
H691 C670 0.930 . S
H692 C674 0.931 . S
H693 C672 0.931 . S
H694 C676 0.931 . S
H695 C677 0.929 . S
H696 C678 0.930 . S
H697 C681 0.930 . S
H698 C682 0.931 . S
H699 C686 0.928 . S
H700 C685 0.929 . S
H701 C683 0.932 . S
O702 Mn703 2.163 1_565 S
O702 C716 1.244 . S
Mn703 O702 2.163 1_545 S
Mn703 O706 2.160 . S
Mn703 O707 2.221 1_545 S
Mn703 O709 2.163 1_554 S
Mn703 O711 2.160 . S
Mn703 O721 2.221 . S
O704 Mn705 2.087 1_565 S
O704 C716 1.256 . S
Mn705 O704 2.087 1_545 S
Mn705 O712 2.089 . S
Mn705 O721 2.290 . S
Mn705 O722 2.251 . S
O706 Mn703 2.160 . S
O706 C717 1.239 1_554 S
O707 Mn703 2.221 1_565 S
O707 Mn708 2.290 1_554 S
O707 C718 1.278 . S
Mn708 O707 2.290 1_556 S
Mn708 O710 2.089 1_565 S
Mn708 O713 2.251 . S
Mn708 O714 2.087 . S
O709 Mn703 2.163 1_556 S
O709 C719 1.244 . S
O710 Mn708 2.089 1_545 S
O710 C717 1.256 . S
O711 Mn703 2.160 . S
O711 C720 1.239 . S
O712 Mn705 2.089 . S
O712 C720 1.256 . S
O713 Mn708 2.251 . S
O713 C718 1.241 1_556 S
O714 Mn708 2.087 . S
O714 C719 1.256 1_565 S
C715 O721 1.278 . S
C715 O722 1.241 . S
C716 O702 1.244 . S
C716 O704 1.256 . S
C717 O706 1.239 1_556 S
C717 O710 1.256 . S
C718 O707 1.278 . S
C718 O713 1.241 1_554 S
C719 O709 1.244 . S
C719 O714 1.256 1_545 S
C720 O711 1.239 . S
C720 O712 1.256 . S
O721 Mn703 2.221 . S
O721 Mn705 2.290 . S
O721 C715 1.278 . S
O722 Mn705 2.251 . S
O722 C715 1.241 . S
O723 Mn724 2.153 1_455 S
O723 C737 1.244 . S
Mn724 O723 2.153 1_655 S
Mn724 O727 2.170 . S
Mn724 O728 2.220 1_655 S
Mn724 O730 2.163 1_554 S
Mn724 O732 2.156 . S
Mn724 O742 2.223 . S
O725 Mn726 2.087 1_455 S
O725 C737 1.256 . S
Mn726 O725 2.087 1_655 S
Mn726 O733 2.089 1_655 S
Mn726 O742 2.290 . S
Mn726 O743 2.251 . S
O727 Mn724 2.170 . S
O727 C738 1.239 1_554 S
O728 Mn724 2.220 1_455 S
O728 Mn729 2.290 1_554 S
O728 C739 1.278 . S
Mn729 O728 2.290 1_556 S
Mn729 O731 2.089 1_455 S
Mn729 O734 2.251 . S
Mn729 O735 2.087 . S
O730 Mn724 2.163 1_556 S
O730 C740 1.244 1_655 S
O731 Mn729 2.089 1_655 S
O731 C738 1.256 . S
O732 Mn724 2.156 . S
O732 C741 1.217 1_655 S
O733 Mn726 2.089 1_455 S
O733 C741 1.256 . S
O734 Mn729 2.251 . S
O734 C739 1.241 1_556 S
O735 Mn729 2.087 . S
O735 C740 1.256 . S
C736 O742 1.278 . S
C736 O743 1.241 . S
C737 O723 1.244 . S
C737 O725 1.256 . S
C738 O727 1.239 1_556 S
C738 O731 1.256 . S
C739 O728 1.278 . S
C739 O734 1.241 1_554 S
C740 O730 1.244 1_455 S
C740 O735 1.256 . S
C741 O732 1.217 1_455 S
C741 O733 1.256 . S
O742 Mn724 2.223 . S
O742 Mn726 2.290 . S
O742 C736 1.278 . S
O743 Mn726 2.251 . S
O743 C736 1.241 . S
O744 Mn745 2.163 . S
O744 C758 1.244 . S
Mn745 O744 2.163 . S
Mn745 O748 2.159 1_556 S
Mn745 O749 2.222 1_556 S
Mn745 O751 2.167 1_556 S
Mn745 O753 2.156 . S
Mn745 O763 2.221 . S
O746 Mn747 2.087 . S
O746 C758 1.256 . S
Mn747 O746 2.087 . S
Mn747 O754 2.089 . S
Mn747 O763 2.290 . S
Mn747 O764 2.202 1_556 S
O748 Mn745 2.159 1_554 S
O748 C759 1.267 . S
O749 Mn745 2.222 1_554 S
O749 Mn750 2.290 . S
O749 C760 1.278 . S
Mn750 O749 2.290 . S
Mn750 O752 2.089 . S
Mn750 O755 2.251 . S
Mn750 O756 2.087 . S
O751 Mn745 2.167 1_554 S
O751 C761 1.244 . S
O752 Mn750 2.089 . S
O752 C759 1.256 . S
O753 Mn745 2.156 . S
O753 C762 1.239 . S
O754 Mn747 2.089 . S
O754 C762 1.256 . S
O755 Mn750 2.251 . S
O755 C760 1.241 . S
O756 Mn750 2.087 . S
O756 C761 1.256 . S
C757 O763 1.278 1_554 S
C757 O764 1.258 . S
C758 O744 1.244 . S
C758 O746 1.256 . S
C759 O748 1.267 . S
C759 O752 1.256 . S
C760 O749 1.278 . S
C760 O755 1.241 . S
C761 O751 1.244 . S
C761 O756 1.256 . S
C762 O753 1.239 . S
C762 O754 1.256 . S
O763 Mn745 2.221 . S
O763 Mn747 2.290 . S
O763 C757 1.278 1_556 S
O764 Mn747 2.202 1_554 S
O764 C757 1.258 . S
O765 Mn766 2.163 . S
O765 C779 1.244 . S
Mn766 O765 2.163 . S
Mn766 O769 2.160 . S
Mn766 O770 2.221 . S
Mn766 O772 2.163 . S
Mn766 O774 2.160 . S
Mn766 O784 2.221 . S
O767 Mn768 2.087 . S
O767 C779 1.256 . S
Mn768 O767 2.087 . S
Mn768 O775 2.089 . S
Mn768 O784 2.290 . S
Mn768 O785 2.251 . S
O769 Mn766 2.160 . S
O769 C780 1.239 . S
O770 Mn766 2.221 . S
O770 Mn771 2.290 . S
O770 C781 1.278 . S
Mn771 O770 2.290 . S
Mn771 O773 2.089 . S
Mn771 O776 2.251 . S
Mn771 O777 2.087 . S
O772 Mn766 2.163 . S
O772 C782 1.244 . S
O773 Mn771 2.089 . S
O773 C780 1.256 . S
O774 Mn766 2.160 . S
O774 C783 1.239 . S
O775 Mn768 2.089 . S
O775 C783 1.256 . S
O776 Mn771 2.251 . S
O776 C781 1.241 . S
O777 Mn771 2.087 . S
O777 C782 1.256 . S
C778 O784 1.278 . S
C778 O785 1.241 . S
C779 O765 1.244 . S
C779 O767 1.256 . S
C780 O769 1.239 . S
C780 O773 1.256 . S
C781 O770 1.278 . S
C781 O776 1.241 . S
C782 O772 1.244 . S
C782 O777 1.256 . S
C783 O774 1.239 . S
C783 O775 1.256 . S
O784 Mn766 2.221 . S
O784 Mn768 2.290 . S
O784 C778 1.278 . S
O785 Mn768 2.251 . S
O785 C778 1.241 . S
O786 Mn787 2.163 . S
O786 C800 1.244 . S
Mn787 O786 2.163 . S
Mn787 O790 2.160 . S
Mn787 O791 2.221 . S
Mn787 O793 2.163 . S
Mn787 O795 2.160 . S
Mn787 O805 2.221 . S
O788 Mn789 2.087 . S
O788 C800 1.256 . S
Mn789 O788 2.087 . S
Mn789 O796 2.089 . S
Mn789 O805 2.290 . S
Mn789 O806 2.251 . S
O790 Mn787 2.160 . S
O790 C801 1.239 . S
O791 Mn787 2.221 . S
O791 Mn792 2.290 . S
O791 C802 1.278 . S
Mn792 O791 2.290 . S
Mn792 O794 2.089 . S
Mn792 O797 2.251 . S
Mn792 O798 2.087 . S
O793 Mn787 2.163 . S
O793 C803 1.244 . S
O794 Mn792 2.089 . S
O794 C801 1.256 . S
O795 Mn787 2.160 . S
O795 C804 1.239 . S
O796 Mn789 2.089 . S
O796 C804 1.256 . S
O797 Mn792 2.251 . S
O797 C802 1.241 . S
O798 Mn792 2.087 . S
O798 C803 1.256 . S
C799 O805 1.278 . S
C799 O806 1.241 . S
C800 O786 1.244 . S
C800 O788 1.256 . S
C801 O790 1.239 . S
C801 O794 1.256 . S
C802 O791 1.278 . S
C802 O797 1.241 . S
C803 O793 1.244 . S
C803 O798 1.256 . S
C804 O795 1.239 . S
C804 O796 1.256 . S
O805 Mn787 2.221 . S
O805 Mn789 2.290 . S
O805 C799 1.278 . S
O806 Mn789 2.251 . S
O806 C799 1.241 . S
O807 Mn808 2.163 . S
O807 C821 1.244 . S
Mn808 O807 2.163 . S
Mn808 O811 2.160 . S
Mn808 O812 2.221 . S
Mn808 O814 2.163 . S
Mn808 O816 2.160 . S
Mn808 O826 2.221 . S
O809 Mn810 2.087 . S
O809 C821 1.256 . S
Mn810 O809 2.087 . S
Mn810 O817 2.089 . S
Mn810 O826 2.290 . S
Mn810 O827 2.251 . S
O811 Mn808 2.160 . S
O811 C822 1.239 . S
O812 Mn808 2.221 . S
O812 Mn813 2.290 . S
O812 C823 1.278 . S
Mn813 O812 2.290 . S
Mn813 O815 2.089 . S
Mn813 O818 2.251 . S
Mn813 O819 2.087 . S
O814 Mn808 2.163 . S
O814 C824 1.244 . S
O815 Mn813 2.089 . S
O815 C822 1.256 . S
O816 Mn808 2.160 . S
O816 C825 1.239 . S
O817 Mn810 2.089 . S
O817 C825 1.256 . S
O818 Mn813 2.251 . S
O818 C823 1.241 . S
O819 Mn813 2.087 . S
O819 C824 1.256 . S
C820 O826 1.278 . S
C820 O827 1.241 . S
C821 O807 1.244 . S
C821 O809 1.256 . S
C822 O811 1.239 . S
C822 O815 1.256 . S
C823 O812 1.278 . S
C823 O818 1.241 . S
C824 O814 1.244 . S
C824 O819 1.256 . S
C825 O816 1.239 . S
C825 O817 1.256 . S
O826 Mn808 2.221 . S
O826 Mn810 2.290 . S
O826 C820 1.278 . S
O827 Mn810 2.251 . S
O827 C820 1.241 . S
O828 Mn829 2.163 . S
O828 C842 1.244 . S
Mn829 O828 2.163 . S
Mn829 O832 2.160 . S
Mn829 O833 2.221 . S
Mn829 O835 2.163 . S
Mn829 O837 2.160 . S
Mn829 O847 2.221 . S
O830 Mn831 2.087 . S
O830 C842 1.256 . S
Mn831 O830 2.087 . S
Mn831 O838 2.089 . S
Mn831 O847 2.290 . S
Mn831 O848 2.251 . S
O832 Mn829 2.160 . S
O832 C843 1.239 . S
O833 Mn829 2.221 . S
O833 Mn834 2.290 . S
O833 C844 1.278 . S
Mn834 O833 2.290 . S
Mn834 O836 2.089 . S
Mn834 O839 2.251 . S
Mn834 O840 2.087 . S
O835 Mn829 2.163 . S
O835 C845 1.244 . S
O836 Mn834 2.089 . S
O836 C843 1.256 . S
O837 Mn829 2.160 . S
O837 C846 1.239 . S
O838 Mn831 2.089 . S
O838 C846 1.256 . S
O839 Mn834 2.251 . S
O839 C844 1.241 . S
O840 Mn834 2.087 . S
O840 C845 1.256 . S
C841 O847 1.278 . S
C841 O848 1.241 . S
C842 O828 1.244 . S
C842 O830 1.256 . S
C843 O832 1.239 . S
C843 O836 1.256 . S
C844 O833 1.278 . S
C844 O839 1.241 . S
C845 O835 1.244 . S
C845 O840 1.256 . S
C846 O837 1.239 . S
C846 O838 1.256 . S
O847 Mn829 2.221 . S
O847 Mn831 2.290 . S
O847 C841 1.278 . S
O848 Mn831 2.251 . S
O848 C841 1.241 . S
O849 Mn850 2.163 . S
O849 C863 1.244 . S
Mn850 O849 2.163 . S
Mn850 O853 2.160 . S
Mn850 O854 2.221 . S
Mn850 O856 2.163 . S
Mn850 O858 2.160 . S
Mn850 O868 2.221 . S
O851 Mn852 2.087 . S
O851 C863 1.256 . S
Mn852 O851 2.087 . S
Mn852 O859 2.089 . S
Mn852 O868 2.290 . S
Mn852 O869 2.251 . S
O853 Mn850 2.160 . S
O853 C864 1.239 . S
O854 Mn850 2.221 . S
O854 Mn855 2.290 . S
O854 C865 1.278 . S
Mn855 O854 2.290 . S
Mn855 O857 2.089 . S
Mn855 O860 2.251 . S
Mn855 O861 2.087 . S
O856 Mn850 2.163 . S
O856 C866 1.244 . S
O857 Mn855 2.089 . S
O857 C864 1.256 . S
O858 Mn850 2.160 . S
O858 C867 1.239 . S
O859 Mn852 2.089 . S
O859 C867 1.256 . S
O860 Mn855 2.251 . S
O860 C865 1.241 . S
O861 Mn855 2.087 . S
O861 C866 1.256 . S
C862 O868 1.278 . S
C862 O869 1.241 . S
C863 O849 1.244 . S
C863 O851 1.256 . S
C864 O853 1.239 . S
C864 O857 1.256 . S
C865 O854 1.278 . S
C865 O860 1.241 . S
C866 O856 1.244 . S
C866 O861 1.256 . S
C867 O858 1.239 . S
C867 O859 1.256 . S
O868 Mn850 2.221 . S
O868 Mn852 2.290 . S
O868 C862 1.278 . S
O869 Mn852 2.251 . S
O869 C862 1.241 . S
O870 Mn871 2.163 . S
O870 C884 1.244 . S
Mn871 O870 2.163 . S
Mn871 O874 2.160 . S
Mn871 O875 2.221 . S
Mn871 O877 2.163 . S
Mn871 O879 2.160 . S
Mn871 O889 2.221 . S
O872 Mn873 2.087 . S
O872 C884 1.256 . S
Mn873 O872 2.087 . S
Mn873 O880 2.089 . S
Mn873 O889 2.290 . S
Mn873 O890 2.251 . S
O874 Mn871 2.160 . S
O874 C885 1.239 . S
O875 Mn871 2.221 . S
O875 Mn876 2.290 . S
O875 C886 1.278 . S
Mn876 O875 2.290 . S
Mn876 O878 2.089 . S
Mn876 O881 2.251 . S
Mn876 O882 2.087 . S
O877 Mn871 2.163 . S
O877 C887 1.244 . S
O878 Mn876 2.089 . S
O878 C885 1.256 . S
O879 Mn871 2.160 . S
O879 C888 1.239 . S
O880 Mn873 2.089 . S
O880 C888 1.256 . S
O881 Mn876 2.251 . S
O881 C886 1.241 . S
O882 Mn876 2.087 . S
O882 C887 1.256 . S
C883 O889 1.278 . S
C883 O890 1.241 . S
C884 O870 1.244 . S
C884 O872 1.256 . S
C885 O874 1.239 . S
C885 O878 1.256 . S
C886 O875 1.278 . S
C886 O881 1.241 . S
C887 O877 1.244 . S
C887 O882 1.256 . S
C888 O879 1.239 . S
C888 O880 1.256 . S
O889 Mn871 2.221 . S
O889 Mn873 2.290 . S
O889 C883 1.278 . S
O890 Mn873 2.251 . S
O890 C883 1.241 . S
C891 C892 1.391 . S
C891 C893 1.394 . S
C891 H907 0.931 . S
C892 C891 1.391 . S
C892 C896 1.376 . S
C893 C891 1.394 . S
C893 C894 1.369 . S
C893 C897 1.531 . S
C894 C893 1.369 . S
C894 C895 1.410 . S
C894 C902 1.503 . S
C895 C894 1.410 . S
C895 C896 1.392 . S
C895 C898 1.511 . S
C896 C892 1.376 . S
C896 C895 1.392 . S
C896 H908 0.929 . S
C897 C893 1.531 . S
C897 H909 0.960 . S
C897 H910 0.962 . S
C897 H911 0.960 . S
C898 C895 1.511 . S
C898 H912 0.961 . S
C898 H913 0.961 . S
C898 H914 0.961 1_554 S
C899 C900 1.370 . S
C899 C901 1.363 . S
C899 H915 0.931 . S
C900 C899 1.370 . S
C900 C904 1.408 1_554 S
C901 C899 1.363 . S
C901 C902 1.370 . S
C901 C905 1.524 . S
C902 C894 1.503 . S
C902 C901 1.370 . S
C902 C903 1.403 1_554 S
C903 C902 1.403 1_556 S
C903 C904 1.404 . S
C903 C906 1.539 . S
C904 C900 1.408 1_556 S
C904 C903 1.404 . S
C904 H916 0.930 . S
C905 C901 1.524 . S
C905 H917 0.956 . S
C905 H918 0.961 . S
C905 H919 0.961 . S
C906 C903 1.539 . S
C906 H920 0.958 . S
C906 H921 0.961 . S
C906 H922 0.960 . S
H907 C891 0.931 . S
H908 C896 0.929 . S
H909 C897 0.960 . S
H910 C897 0.962 . S
H911 C897 0.960 . S
H912 C898 0.961 . S
H913 C898 0.961 . S
H914 C898 0.961 1_556 S
H915 C899 0.931 . S
H916 C904 0.930 . S
H917 C905 0.956 . S
H918 C905 0.961 . S
H919 C905 0.961 . S
H920 C906 0.958 . S
H921 C906 0.961 . S
H922 C906 0.960 . S
C923 C924 1.391 . S
C923 C925 1.394 . S
C923 H939 0.918 1_554 S
C924 C923 1.391 . S
C924 C928 1.376 . S
C925 C923 1.394 . S
C925 C926 1.369 . S
C925 C929 1.531 1_554 S
C926 C925 1.369 . S
C926 C927 1.410 . S
C926 C934 1.503 . S
C927 C926 1.410 . S
C927 C928 1.392 . S
C927 C930 1.511 . S
C928 C924 1.376 . S
C928 C927 1.392 . S
C928 H940 0.929 . S
C929 C925 1.531 1_556 S
C929 H941 0.960 . S
C929 H942 0.962 . S
C929 H943 0.960 . S
C930 C927 1.511 . S
C930 H944 0.961 . S
C930 H945 0.961 . S
C930 H946 0.961 . S
C931 C932 1.370 . S
C931 C933 1.363 . S
C931 H947 0.931 . S
C932 C931 1.370 . S
C932 C936 1.408 . S
C933 C931 1.363 . S
C933 C934 1.370 . S
C933 C937 1.524 . S
C934 C926 1.503 . S
C934 C933 1.370 . S
C934 C935 1.403 . S
C935 C934 1.403 . S
C935 C936 1.404 . S
C935 C938 1.539 . S
C936 C932 1.408 . S
C936 C935 1.404 . S
C936 H948 0.930 . S
C937 C933 1.524 . S
C937 H949 0.956 . S
C937 H950 0.961 . S
C937 H951 0.961 . S
C938 C935 1.539 . S
C938 H952 0.958 . S
C938 H953 0.961 . S
C938 H954 0.960 . S
H939 C923 0.918 1_556 S
H940 C928 0.929 . S
H941 C929 0.960 . S
H942 C929 0.962 . S
H943 C929 0.960 . S
H944 C930 0.961 . S
H945 C930 0.961 . S
H946 C930 0.961 . S
H947 C931 0.931 . S
H948 C936 0.930 . S
H949 C937 0.956 . S
H950 C937 0.961 . S
H951 C937 0.961 . S
H952 C938 0.958 . S
H953 C938 0.961 . S
H954 C938 0.960 . S
C955 C956 1.391 . S
C955 C957 1.394 . S
C955 H971 0.931 . S
C956 C955 1.391 . S
C956 C960 1.376 . S
C957 C955 1.394 . S
C957 C958 1.369 . S
C957 C961 1.531 . S
C958 C957 1.369 . S
C958 C959 1.410 . S
C958 C966 1.503 . S
C959 C958 1.410 . S
C959 C960 1.392 . S
C959 C962 1.511 1_554 S
C960 C956 1.376 . S
C960 C959 1.392 . S
C960 H972 0.946 . S
C961 C957 1.531 . S
C961 H973 0.960 . S
C961 H974 0.962 . S
C961 H975 0.960 . S
C962 C959 1.511 1_556 S
C962 H976 0.961 . S
C962 H977 0.961 . S
C962 H978 0.961 . S
C963 C964 1.370 . S
C963 C965 1.363 . S
C963 H979 0.931 . S
C964 C963 1.370 . S
C964 C968 1.408 . S
C965 C963 1.363 . S
C965 C966 1.370 . S
C965 C969 1.524 . S
C966 C958 1.503 . S
C966 C965 1.370 . S
C966 C967 1.403 . S
C967 C966 1.403 . S
C967 C968 1.404 . S
C967 C970 1.539 1_554 S
C968 C964 1.408 . S
C968 C967 1.404 . S
C968 H980 0.916 1_554 S
C969 C965 1.524 . S
C969 H981 0.956 . S
C969 H982 0.961 . S
C969 H983 0.961 . S
C970 C967 1.539 1_556 S
C970 H984 0.958 1_556 S
C970 H985 0.961 . S
C970 H986 0.960 . S
H971 C955 0.931 . S
H972 C960 0.946 . S
H973 C961 0.960 . S
H974 C961 0.962 . S
H975 C961 0.960 . S
H976 C962 0.961 . S
H977 C962 0.961 . S
H978 C962 0.961 . S
H979 C963 0.931 . S
H980 C968 0.916 1_556 S
H981 C969 0.956 . S
H982 C969 0.961 . S
H983 C969 0.961 . S
H984 C970 0.958 1_554 S
H985 C970 0.961 . S
H986 C970 0.960 . S
C987 C988 1.391 . S
C987 C989 1.394 . S
C987 H1003 0.931 . S
C988 C987 1.391 . S
C988 C992 1.376 . S
C989 C987 1.394 . S
C989 C990 1.369 . S
C989 C993 1.531 1_556 S
C990 C989 1.369 . S
C990 C991 1.410 . S
C990 C998 1.503 . S
C991 C990 1.410 . S
C991 C992 1.392 . S
C991 C994 1.511 . S
C992 C988 1.376 . S
C992 C991 1.392 . S
C992 H1004 0.929 . S
C993 C989 1.531 1_554 S
C993 H1005 0.960 . S
C993 H1006 0.962 . S
C993 H1007 0.960 . S
C994 C991 1.511 . S
C994 H1008 0.961 . S
C994 H1009 0.961 . S
C994 H1010 0.961 . S
C995 C996 1.370 . S
C995 C997 1.363 . S
C995 H1011 0.931 . S
C996 C995 1.370 . S
C996 C1000 1.408 1_556 S
C997 C995 1.363 . S
C997 C998 1.370 . S
C997 C1001 1.524 . S
C998 C990 1.503 . S
C998 C997 1.370 . S
C998 C999 1.403 1_556 S
C999 C998 1.403 1_554 S
C999 C1000 1.404 . S
C999 C1002 1.539 . S
C1000 C996 1.408 1_554 S
C1000 C999 1.404 . S
C1000 H1012 0.930 . S
C1001 C997 1.524 . S
C1001 H1013 0.956 . S
C1001 H1014 0.961 . S
C1001 H1015 0.961 . S
C1002 C999 1.539 . S
C1002 H1016 0.958 . S
C1002 H1017 0.961 . S
C1002 H1018 0.960 . S
H1003 C987 0.931 . S
H1004 C992 0.929 . S
H1005 C993 0.960 . S
H1006 C993 0.962 . S
H1007 C993 0.960 . S
H1008 C994 0.961 . S
H1009 C994 0.961 . S
H1010 C994 0.961 . S
H1011 C995 0.931 . S
H1012 C1000 0.930 . S
H1013 C1001 0.956 . S
H1014 C1001 0.961 . S
H1015 C1001 0.961 . S
H1016 C1002 0.958 . S
H1017 C1002 0.961 . S
H1018 C1002 0.960 . S
C1019 C1020 1.391 . S
C1019 C1021 1.394 . S
C1019 H1035 0.931 . S
C1020 C1019 1.391 . S
C1020 C1024 1.376 . S
C1021 C1019 1.394 . S
C1021 C1022 1.369 . S
C1021 C1025 1.531 . S
C1022 C1021 1.369 . S
C1022 C1023 1.410 . S
C1022 C1030 1.503 . S
C1023 C1022 1.410 . S
C1023 C1024 1.392 . S
C1023 C1026 1.511 . S
C1024 C1020 1.376 . S
C1024 C1023 1.392 . S
C1024 H1036 0.929 . S
C1025 C1021 1.531 . S
C1025 H1037 0.960 . S
C1025 H1038 0.962 . S
C1025 H1039 0.960 . S
C1026 C1023 1.511 . S
C1026 H1040 0.961 . S
C1026 H1041 0.961 . S
C1026 H1042 0.961 . S
C1027 C1028 1.370 1_554 S
C1027 C1029 1.363 . S
C1027 H1043 0.931 . S
C1028 C1027 1.370 1_556 S
C1028 C1032 1.408 . S
C1029 C1027 1.363 . S
C1029 C1030 1.370 1_554 S
C1029 C1033 1.524 . S
C1030 C1022 1.503 . S
C1030 C1029 1.370 1_556 S
C1030 C1031 1.403 . S
C1031 C1030 1.403 . S
C1031 C1032 1.404 . S
C1031 C1034 1.539 . S
C1032 C1028 1.408 . S
C1032 C1031 1.404 . S
C1032 H1044 0.930 . S
C1033 C1029 1.524 . S
C1033 H1045 0.956 . S
C1033 H1046 0.961 . S
C1033 H1047 0.961 . S
C1034 C1031 1.539 . S
C1034 H1048 0.958 . S
C1034 H1049 0.961 . S
C1034 H1050 0.960 . S
H1035 C1019 0.931 . S
H1036 C1024 0.929 . S
H1037 C1025 0.960 . S
H1038 C1025 0.962 . S
H1039 C1025 0.960 . S
H1040 C1026 0.961 . S
H1041 C1026 0.961 . S
H1042 C1026 0.961 . S
H1043 C1027 0.931 . S
H1044 C1032 0.930 . S
H1045 C1033 0.956 . S
H1046 C1033 0.961 . S
H1047 C1033 0.961 . S
H1048 C1034 0.958 . S
H1049 C1034 0.961 . S
H1050 C1034 0.960 . S
C1051 C1052 1.391 . S
C1051 C1053 1.391 1_556 S
C1051 H1067 0.931 1_556 S
C1052 C1051 1.391 . S
C1052 C1056 1.376 . S
C1053 C1051 1.391 1_554 S
C1053 C1054 1.361 1_554 S
C1053 C1057 1.541 . S
C1054 C1053 1.361 1_556 S
C1054 C1055 1.410 . S
C1054 C1062 1.503 . S
C1055 C1054 1.410 . S
C1055 C1056 1.392 . S
C1055 C1058 1.511 . S
C1056 C1052 1.376 . S
C1056 C1055 1.392 . S
C1056 H1068 0.929 . S
C1057 C1053 1.541 . S
C1057 H1069 0.960 . S
C1057 H1070 0.962 . S
C1057 H1071 0.960 . S
C1058 C1055 1.511 . S
C1058 H1072 0.961 . S
C1058 H1073 0.961 . S
C1058 H1074 0.961 . S
C1059 C1060 1.370 . S
C1059 C1061 1.363 . S
C1059 H1075 0.931 . S
C1060 C1059 1.370 . S
C1060 C1064 1.408 1_556 S
C1061 C1059 1.363 . S
C1061 C1062 1.370 . S
C1061 C1065 1.524 . S
C1062 C1054 1.503 . S
C1062 C1061 1.370 . S
C1062 C1063 1.403 1_556 S
C1063 C1062 1.403 1_554 S
C1063 C1064 1.404 . S
C1063 C1066 1.539 . S
C1064 C1060 1.408 1_554 S
C1064 C1063 1.404 . S
C1064 H1076 0.930 . S
C1065 C1061 1.524 . S
C1065 H1077 0.956 . S
C1065 H1078 0.961 . S
C1065 H1079 0.961 . S
C1066 C1063 1.539 . S
C1066 H1080 0.958 . S
C1066 H1081 0.961 . S
C1066 H1082 0.960 . S
H1067 C1051 0.931 1_554 S
H1068 C1056 0.929 . S
H1069 C1057 0.960 . S
H1070 C1057 0.962 . S
H1071 C1057 0.960 . S
H1072 C1058 0.961 . S
H1073 C1058 0.961 . S
H1074 C1058 0.961 . S
H1075 C1059 0.931 . S
H1076 C1064 0.930 . S
H1077 C1065 0.956 . S
H1078 C1065 0.961 . S
H1079 C1065 0.961 . S
H1080 C1066 0.958 . S
H1081 C1066 0.961 . S
H1082 C1066 0.960 . S
C1083 C1084 1.391 . S
C1083 C1085 1.394 . S
C1083 H1099 0.931 . S
C1084 C1083 1.391 . S
C1084 C1088 1.376 . S
C1085 C1083 1.394 . S
C1085 C1086 1.369 . S
C1085 C1089 1.531 . S
C1086 C1085 1.369 . S
C1086 C1087 1.410 . S
C1086 C1094 1.503 . S
C1087 C1086 1.410 . S
C1087 C1088 1.392 . S
C1087 C1090 1.511 . S
C1088 C1084 1.376 . S
C1088 C1087 1.392 . S
C1088 H1100 0.929 . S
C1089 C1085 1.531 . S
C1089 H1101 0.960 . S
C1089 H1102 0.962 . S
C1089 H1103 0.960 . S
C1090 C1087 1.511 . S
C1090 H1104 0.961 . S
C1090 H1105 0.961 . S
C1090 H1106 0.961 . S
C1091 C1092 1.370 1_554 S
C1091 C1093 1.363 . S
C1091 H1107 0.931 . S
C1092 C1091 1.370 1_556 S
C1092 C1096 1.408 . S
C1093 C1091 1.363 . S
C1093 C1094 1.370 1_554 S
C1093 C1097 1.524 . S
C1094 C1086 1.503 . S
C1094 C1093 1.370 1_556 S
C1094 C1095 1.403 . S
C1095 C1094 1.403 . S
C1095 C1096 1.404 . S
C1095 C1098 1.539 . S
C1096 C1092 1.408 . S
C1096 C1095 1.404 . S
C1096 H1108 0.930 . S
C1097 C1093 1.524 . S
C1097 H1109 0.956 . S
C1097 H1110 0.961 . S
C1097 H1111 0.961 . S
C1098 C1095 1.539 . S
C1098 H1112 0.958 . S
C1098 H1113 0.961 . S
C1098 H1114 0.960 . S
H1099 C1083 0.931 . S
H1100 C1088 0.929 . S
H1101 C1089 0.960 . S
H1102 C1089 0.962 . S
H1103 C1089 0.960 . S
H1104 C1090 0.961 . S
H1105 C1090 0.961 . S
H1106 C1090 0.961 . S
H1107 C1091 0.931 . S
H1108 C1096 0.930 . S
H1109 C1097 0.956 . S
H1110 C1097 0.961 . S
H1111 C1097 0.961 . S
H1112 C1098 0.958 . S
H1113 C1098 0.961 . S
H1114 C1098 0.960 . S
C1115 C1116 1.391 . S
C1115 C1117 1.394 . S
C1115 H1131 0.931 . S
C1116 C1115 1.391 . S
C1116 C1120 1.376 . S
C1117 C1115 1.394 . S
C1117 C1118 1.369 . S
C1117 C1121 1.531 . S
C1118 C1117 1.369 . S
C1118 C1119 1.410 . S
C1118 C1126 1.503 . S
C1119 C1118 1.410 . S
C1119 C1120 1.392 . S
C1119 C1122 1.511 . S
C1120 C1116 1.376 . S
C1120 C1119 1.392 . S
C1120 H1132 0.929 . S
C1121 C1117 1.531 . S
C1121 H1133 0.960 . S
C1121 H1134 0.962 1_556 S
C1121 H1135 0.960 . S
C1122 C1119 1.511 . S
C1122 H1136 0.961 . S
C1122 H1137 0.961 . S
C1122 H1138 0.961 . S
C1123 C1124 1.370 1_554 S
C1123 C1125 1.363 . S
C1123 H1139 0.931 . S
C1124 C1123 1.370 1_556 S
C1124 C1128 1.408 . S
C1125 C1123 1.363 . S
C1125 C1126 1.370 1_554 S
C1125 C1129 1.524 . S
C1126 C1118 1.503 . S
C1126 C1125 1.370 1_556 S
C1126 C1127 1.403 . S
C1127 C1126 1.403 . S
C1127 C1128 1.404 . S
C1127 C1130 1.539 . S
C1128 C1124 1.408 . S
C1128 C1127 1.404 . S
C1128 H1140 0.930 . S
C1129 C1125 1.524 . S
C1129 H1141 0.956 . S
C1129 H1142 0.961 . S
C1129 H1143 0.961 . S
C1130 C1127 1.539 . S
C1130 H1144 0.958 . S
C1130 H1145 0.961 . S
C1130 H1146 0.960 . S
H1131 C1115 0.931 . S
H1132 C1120 0.929 . S
H1133 C1121 0.960 . S
H1134 C1121 0.962 1_554 S
H1135 C1121 0.960 . S
H1136 C1122 0.961 . S
H1137 C1122 0.961 . S
H1138 C1122 0.961 . S
H1139 C1123 0.931 . S
H1140 C1128 0.930 . S
H1141 C1129 0.956 . S
H1142 C1129 0.961 . S
H1143 C1129 0.961 . S
H1144 C1130 0.958 . S
H1145 C1130 0.961 . S
H1146 C1130 0.960 . S
C1147 C1148 1.391 . S
C1147 C1149 1.394 . S
C1147 H1163 0.931 . S
C1148 C1147 1.391 . S
C1148 C1152 1.376 . S
C1149 C1147 1.394 . S
C1149 C1150 1.369 . S
C1149 C1153 1.531 1_556 S
C1150 C1149 1.369 . S
C1150 C1151 1.410 . S
C1150 C1158 1.503 . S
C1151 C1150 1.410 . S
C1151 C1152 1.392 . S
C1151 C1154 1.511 . S
C1152 C1148 1.376 . S
C1152 C1151 1.392 . S
C1152 H1164 0.929 . S
C1153 C1149 1.531 1_554 S
C1153 H1165 0.960 . S
C1153 H1166 0.962 1_554 S
C1153 H1167 0.960 . S
C1154 C1151 1.511 . S
C1154 H1168 0.961 . S
C1154 H1169 0.961 . S
C1154 H1170 0.961 . S
C1155 C1156 1.370 . S
C1155 C1157 1.363 . S
C1155 H1171 0.931 . S
C1156 C1155 1.370 . S
C1156 C1160 1.408 1_556 S
C1157 C1155 1.363 . S
C1157 C1158 1.370 . S
C1157 C1161 1.524 . S
C1158 C1150 1.503 . S
C1158 C1157 1.370 . S
C1158 C1159 1.403 1_556 S
C1159 C1158 1.403 1_554 S
C1159 C1160 1.404 . S
C1159 C1162 1.539 . S
C1160 C1156 1.408 1_554 S
C1160 C1159 1.404 . S
C1160 H1172 0.930 . S
C1161 C1157 1.524 . S
C1161 H1173 0.956 . S
C1161 H1174 0.961 . S
C1161 H1175 0.961 . S
C1162 C1159 1.539 . S
C1162 H1176 0.958 . S
C1162 H1177 0.961 . S
C1162 H1178 0.960 . S
H1163 C1147 0.931 . S
H1164 C1152 0.929 . S
H1165 C1153 0.960 . S
H1166 C1153 0.962 1_556 S
H1167 C1153 0.960 . S
H1168 C1154 0.961 . S
H1169 C1154 0.961 . S
H1170 C1154 0.961 . S
H1171 C1155 0.931 . S
H1172 C1160 0.930 . S
H1173 C1161 0.956 . S
H1174 C1161 0.961 . S
H1175 C1161 0.961 . S
H1176 C1162 0.958 . S
H1177 C1162 0.961 . S
H1178 C1162 0.960 . S
C1179 C1180 1.391 . S
C1179 C1181 1.394 . S
C1179 H1195 0.931 . S
C1180 C1179 1.391 . S
C1180 C1184 1.376 . S
C1181 C1179 1.394 . S
C1181 C1182 1.369 . S
C1181 C1185 1.531 1_554 S
C1182 C1181 1.369 . S
C1182 C1183 1.410 . S
C1182 C1190 1.503 . S
C1183 C1182 1.410 . S
C1183 C1184 1.392 . S
C1183 C1186 1.511 . S
C1184 C1180 1.376 . S
C1184 C1183 1.392 . S
C1184 H1196 0.929 . S
C1185 C1181 1.531 1_556 S
C1185 H1197 0.957 1_556 S
C1185 H1198 0.962 . S
C1185 H1199 0.960 . S
C1186 C1183 1.511 . S
C1186 H1200 0.961 . S
C1186 H1201 0.961 . S
C1186 H1202 0.961 . S
C1187 C1188 1.370 . S
C1187 C1189 1.363 . S
C1187 H1203 0.931 1_554 S
C1188 C1187 1.370 . S
C1188 C1192 1.408 . S
C1189 C1187 1.363 . S
C1189 C1190 1.370 . S
C1189 C1193 1.524 1_554 S
C1190 C1182 1.503 . S
C1190 C1189 1.370 . S
C1190 C1191 1.403 . S
C1191 C1190 1.403 . S
C1191 C1192 1.404 . S
C1191 C1194 1.539 . S
C1192 C1188 1.408 . S
C1192 C1191 1.404 . S
C1192 H1204 0.930 . S
C1193 C1189 1.524 1_556 S
C1193 H1205 0.956 . S
C1193 H1206 0.961 1_556 S
C1193 H1207 0.961 . S
C1194 C1191 1.539 . S
C1194 H1208 0.958 . S
C1194 H1209 0.961 . S
C1194 H1210 0.960 . S
H1195 C1179 0.931 . S
H1196 C1184 0.929 . S
H1197 C1185 0.957 1_554 S
H1198 C1185 0.962 . S
H1199 C1185 0.960 . S
H1200 C1186 0.961 . S
H1201 C1186 0.961 . S
H1202 C1186 0.961 . S
H1203 C1187 0.931 1_556 S
H1204 C1192 0.930 . S
H1205 C1193 0.956 . S
H1206 C1193 0.961 1_554 S
H1207 C1193 0.961 . S
H1208 C1194 0.958 . S
H1209 C1194 0.961 . S
H1210 C1194 0.960 . S
C1211 C1212 1.391 . S
C1211 C1213 1.394 . S
C1211 H1227 0.931 . S
C1212 C1211 1.391 . S
C1212 C1216 1.376 . S
C1213 C1211 1.394 . S
C1213 C1214 1.369 . S
C1213 C1217 1.531 1_554 S
C1214 C1213 1.369 . S
C1214 C1215 1.410 . S
C1214 C1222 1.503 . S
C1215 C1214 1.410 . S
C1215 C1216 1.392 . S
C1215 C1218 1.511 . S
C1216 C1212 1.376 . S
C1216 C1215 1.392 . S
C1216 H1228 0.929 . S
C1217 C1213 1.531 1_556 S
C1217 H1229 0.960 . S
C1217 H1230 0.962 . S
C1217 H1231 0.960 . S
C1218 C1215 1.511 . S
C1218 H1232 0.961 . S
C1218 H1233 0.961 . S
C1218 H1234 0.961 . S
C1219 C1220 1.370 . S
C1219 C1221 1.363 . S
C1219 H1235 0.931 . S
C1220 C1219 1.370 . S
C1220 C1224 1.380 1_554 S
C1221 C1219 1.363 . S
C1221 C1222 1.370 . S
C1221 C1225 1.524 . S
C1222 C1214 1.503 . S
C1222 C1221 1.370 . S
C1222 C1223 1.403 . S
C1223 C1222 1.403 . S
C1223 C1224 1.398 1_554 S
C1223 C1226 1.539 1_554 S
C1224 C1220 1.380 1_556 S
C1224 C1223 1.398 1_556 S
C1224 H1236 0.965 . S
C1225 C1221 1.524 . S
C1225 H1237 0.956 . S
C1225 H1238 0.961 . S
C1225 H1239 0.961 . S
C1226 C1223 1.539 1_556 S
C1226 H1240 0.958 . S
C1226 H1241 0.961 . S
C1226 H1242 0.960 . S
H1227 C1211 0.931 . S
H1228 C1216 0.929 . S
H1229 C1217 0.960 . S
H1230 C1217 0.962 . S
H1231 C1217 0.960 . S
H1232 C1218 0.961 . S
H1233 C1218 0.961 . S
H1234 C1218 0.961 . S
H1235 C1219 0.931 . S
H1236 C1224 0.965 . S
H1237 C1225 0.956 . S
H1238 C1225 0.961 . S
H1239 C1225 0.961 . S
H1240 C1226 0.958 . S
H1241 C1226 0.961 . S
H1242 C1226 0.960 . S
C1243 C1244 1.391 . S
C1243 C1245 1.394 . S
C1243 H1259 0.931 . S
C1244 C1243 1.391 . S
C1244 C1248 1.376 . S
C1245 C1243 1.394 . S
C1245 C1246 1.369 . S
C1245 C1249 1.531 1_554 S
C1246 C1245 1.369 . S
C1246 C1247 1.410 . S
C1246 C1254 1.503 . S
C1247 C1246 1.410 . S
C1247 C1248 1.392 . S
C1247 C1250 1.511 . S
C1248 C1244 1.376 . S
C1248 C1247 1.392 . S
C1248 H1260 0.929 . S
C1249 C1245 1.531 1_556 S
C1249 H1261 0.960 . S
C1249 H1262 0.962 1_556 S
C1249 H1263 0.960 . S
C1250 C1247 1.511 . S
C1250 H1264 0.961 . S
C1250 H1265 0.961 . S
C1250 H1266 0.961 . S
C1251 C1252 1.370 . S
C1251 C1253 1.363 . S
C1251 H1267 0.931 . S
C1252 C1251 1.370 . S
C1252 C1256 1.408 1_554 S
C1253 C1251 1.363 . S
C1253 C1254 1.370 . S
C1253 C1257 1.524 . S
C1254 C1246 1.503 . S
C1254 C1253 1.370 . S
C1254 C1255 1.403 1_554 S
C1255 C1254 1.403 1_556 S
C1255 C1256 1.404 . S
C1255 C1258 1.539 . S
C1256 C1252 1.408 1_556 S
C1256 C1255 1.404 . S
C1256 H1268 0.930 . S
C1257 C1253 1.524 . S
C1257 H1269 0.956 . S
C1257 H1270 0.961 . S
C1257 H1271 0.961 . S
C1258 C1255 1.539 . S
C1258 H1272 0.958 . S
C1258 H1273 0.961 . S
C1258 H1274 0.960 . S
H1259 C1243 0.931 . S
H1260 C1248 0.929 . S
H1261 C1249 0.960 . S
H1262 C1249 0.962 1_554 S
H1263 C1249 0.960 . S
H1264 C1250 0.961 . S
H1265 C1250 0.961 . S
H1266 C1250 0.961 . S
H1267 C1251 0.931 . S
H1268 C1256 0.930 . S
H1269 C1257 0.956 . S
H1270 C1257 0.961 . S
H1271 C1257 0.961 . S
H1272 C1258 0.958 . S
H1273 C1258 0.961 . S
H1274 C1258 0.960 . S
C1275 C1276 1.391 . S
C1275 C1277 1.394 1_655 S
C1275 H1291 0.931 . S
C1276 C1275 1.391 . S
C1276 C1280 1.376 . S
C1277 C1275 1.394 1_455 S
C1277 C1278 1.369 . S
C1277 C1281 1.531 . S
C1278 C1277 1.369 . S
C1278 C1279 1.410 . S
C1278 C1286 1.503 . S
C1279 C1278 1.410 . S
C1279 C1280 1.392 1_455 S
C1279 C1282 1.511 . S
C1280 C1276 1.376 . S
C1280 C1279 1.392 1_655 S
C1280 H1292 0.929 . S
C1281 C1277 1.531 . S
C1281 H1293 0.960 . S
C1281 H1294 0.962 . S
C1281 H1295 0.960 . S
C1282 C1279 1.511 . S
C1282 H1296 0.961 . S
C1282 H1297 0.961 . S
C1282 H1298 0.961 . S
C1283 C1284 1.370 . S
C1283 C1285 1.363 . S
C1283 H1299 0.931 . S
C1284 C1283 1.370 . S
C1284 C1288 1.408 . S
C1285 C1283 1.363 . S
C1285 C1286 1.370 . S
C1285 C1289 1.524 . S
C1286 C1278 1.503 . S
C1286 C1285 1.370 . S
C1286 C1287 1.403 . S
C1287 C1286 1.403 . S
C1287 C1288 1.404 . S
C1287 C1290 1.539 . S
C1288 C1284 1.408 . S
C1288 C1287 1.404 . S
C1288 H1300 0.930 . S
C1289 C1285 1.524 . S
C1289 H1301 0.956 . S
C1289 H1302 0.961 . S
C1289 H1303 0.961 . S
C1290 C1287 1.539 . S
C1290 H1304 0.958 . S
C1290 H1305 0.961 . S
C1290 H1306 0.960 . S
H1291 C1275 0.931 . S
H1292 C1280 0.929 . S
H1293 C1281 0.960 . S
H1294 C1281 0.962 . S
H1295 C1281 0.960 . S
H1296 C1282 0.961 . S
H1297 C1282 0.961 . S
H1298 C1282 0.961 . S
H1299 C1283 0.931 . S
H1300 C1288 0.930 . S
H1301 C1289 0.956 . S
H1302 C1289 0.961 . S
H1303 C1289 0.961 . S
H1304 C1290 0.958 . S
H1305 C1290 0.961 . S
H1306 C1290 0.960 . S
C1307 C1308 1.391 . S
C1307 C1309 1.394 . S
C1307 H1323 0.931 . S
C1308 C1307 1.391 . S
C1308 C1312 1.376 . S
C1309 C1307 1.394 . S
C1309 C1310 1.369 . S
C1309 C1313 1.531 . S
C1310 C1309 1.369 . S
C1310 C1311 1.410 . S
C1310 C1318 1.503 . S
C1311 C1310 1.410 . S
C1311 C1312 1.392 . S
C1311 C1314 1.511 . S
C1312 C1308 1.376 . S
C1312 C1311 1.392 . S
C1312 H1324 0.929 . S
C1313 C1309 1.531 . S
C1313 H1325 0.960 . S
C1313 H1326 0.962 . S
C1313 H1327 0.960 . S
C1314 C1311 1.511 . S
C1314 H1328 0.961 . S
C1314 H1329 0.961 . S
C1314 H1330 0.961 . S
C1315 C1316 1.370 . S
C1315 C1317 1.363 . S
C1315 H1331 0.931 . S
C1316 C1315 1.370 . S
C1316 C1320 1.408 . S
C1317 C1315 1.363 . S
C1317 C1318 1.370 . S
C1317 C1321 1.524 . S
C1318 C1310 1.503 . S
C1318 C1317 1.370 . S
C1318 C1319 1.403 . S
C1319 C1318 1.403 . S
C1319 C1320 1.404 . S
C1319 C1322 1.539 . S
C1320 C1316 1.408 . S
C1320 C1319 1.404 . S
C1320 H1332 0.930 . S
C1321 C1317 1.524 . S
C1321 H1333 0.956 . S
C1321 H1334 0.961 . S
C1321 H1335 0.961 . S
C1322 C1319 1.539 . S
C1322 H1336 0.958 . S
C1322 H1337 0.961 . S
C1322 H1338 0.960 . S
H1323 C1307 0.931 . S
H1324 C1312 0.929 . S
H1325 C1313 0.960 . S
H1326 C1313 0.962 . S
H1327 C1313 0.960 . S
H1328 C1314 0.961 . S
H1329 C1314 0.961 . S
H1330 C1314 0.961 . S
H1331 C1315 0.931 . S
H1332 C1320 0.930 . S
H1333 C1321 0.956 . S
H1334 C1321 0.961 . S
H1335 C1321 0.961 . S
H1336 C1322 0.958 . S
H1337 C1322 0.961 . S
H1338 C1322 0.960 . S
C1339 C1340 1.391 . S
C1339 C1341 1.394 1_545 S
C1339 H1355 0.931 . S
C1340 C1339 1.391 . S
C1340 C1344 1.376 . S
C1341 C1339 1.394 1_565 S
C1341 C1342 1.369 . S
C1341 C1345 1.531 . S
C1342 C1341 1.369 . S
C1342 C1343 1.410 . S
C1342 C1350 1.503 . S
C1343 C1342 1.410 . S
C1343 C1344 1.392 1_565 S
C1343 C1346 1.511 . S
C1344 C1340 1.376 . S
C1344 C1343 1.392 1_545 S
C1344 H1356 0.929 . S
C1345 C1341 1.531 . S
C1345 H1357 0.960 . S
C1345 H1358 0.962 . S
C1345 H1359 0.960 . S
C1346 C1343 1.511 . S
C1346 H1360 0.961 . S
C1346 H1361 0.961 . S
C1346 H1362 0.961 . S
C1347 C1348 1.370 . S
C1347 C1349 1.363 . S
C1347 H1363 0.931 . S
C1348 C1347 1.370 . S
C1348 C1352 1.408 . S
C1349 C1347 1.363 . S
C1349 C1350 1.370 . S
C1349 C1353 1.524 . S
C1350 C1342 1.503 . S
C1350 C1349 1.370 . S
C1350 C1351 1.403 . S
C1351 C1350 1.403 . S
C1351 C1352 1.404 . S
C1351 C1354 1.539 . S
C1352 C1348 1.408 . S
C1352 C1351 1.404 . S
C1352 H1364 0.930 . S
C1353 C1349 1.524 . S
C1353 H1365 0.956 . S
C1353 H1366 0.961 . S
C1353 H1367 0.961 . S
C1354 C1351 1.539 . S
C1354 H1368 0.958 . S
C1354 H1369 0.961 . S
C1354 H1370 0.960 . S
H1355 C1339 0.931 . S
H1356 C1344 0.929 . S
H1357 C1345 0.960 . S
H1358 C1345 0.962 . S
H1359 C1345 0.960 . S
H1360 C1346 0.961 . S
H1361 C1346 0.961 . S
H1362 C1346 0.961 . S
H1363 C1347 0.931 . S
H1364 C1352 0.930 . S
H1365 C1353 0.956 . S
H1366 C1353 0.961 . S
H1367 C1353 0.961 . S
H1368 C1354 0.958 . S
H1369 C1354 0.961 . S
H1370 C1354 0.960 . S
C1371 C1372 1.391 . S
C1371 C1373 1.394 . S
C1371 H1387 0.931 . S
C1372 C1371 1.391 . S
C1372 C1376 1.376 . S
C1373 C1371 1.394 . S
C1373 C1374 1.369 . S
C1373 C1377 1.531 . S
C1374 C1373 1.369 . S
C1374 C1375 1.410 . S
C1374 C1382 1.503 . S
C1375 C1374 1.410 . S
C1375 C1376 1.392 . S
C1375 C1378 1.511 . S
C1376 C1372 1.376 . S
C1376 C1375 1.392 . S
C1376 H1388 0.929 . S
C1377 C1373 1.531 . S
C1377 H1389 0.960 . S
C1377 H1390 0.962 . S
C1377 H1391 0.960 . S
C1378 C1375 1.511 . S
C1378 H1392 0.961 . S
C1378 H1393 0.961 . S
C1378 H1394 0.961 . S
C1379 C1380 1.370 . S
C1379 C1381 1.363 . S
C1379 H1395 0.931 . S
C1380 C1379 1.370 . S
C1380 C1384 1.408 . S
C1381 C1379 1.363 . S
C1381 C1382 1.370 . S
C1381 C1385 1.524 . S
C1382 C1374 1.503 . S
C1382 C1381 1.370 . S
C1382 C1383 1.403 . S
C1383 C1382 1.403 . S
C1383 C1384 1.404 . S
C1383 C1386 1.539 . S
C1384 C1380 1.408 . S
C1384 C1383 1.404 . S
C1384 H1396 0.930 . S
C1385 C1381 1.524 . S
C1385 H1397 0.956 . S
C1385 H1398 0.961 . S
C1385 H1399 0.961 . S
C1386 C1383 1.539 . S
C1386 H1400 0.958 . S
C1386 H1401 0.961 . S
C1386 H1402 0.960 . S
H1387 C1371 0.931 . S
H1388 C1376 0.929 . S
H1389 C1377 0.960 . S
H1390 C1377 0.962 . S
H1391 C1377 0.960 . S
H1392 C1378 0.961 . S
H1393 C1378 0.961 . S
H1394 C1378 0.961 . S
H1395 C1379 0.931 . S
H1396 C1384 0.930 . S
H1397 C1385 0.956 . S
H1398 C1385 0.961 . S
H1399 C1385 0.961 . S
H1400 C1386 0.958 . S
H1401 C1386 0.961 . S
H1402 C1386 0.960 . S
C1403 C1404 1.391 . S
C1403 C1405 1.394 . S
C1403 H1419 0.931 . S
C1404 C1403 1.391 . S
C1404 C1408 1.376 . S
C1405 C1403 1.394 . S
C1405 C1406 1.369 . S
C1405 C1409 1.531 . S
C1406 C1405 1.369 . S
C1406 C1407 1.410 . S
C1406 C1414 1.503 . S
C1407 C1406 1.410 . S
C1407 C1408 1.392 . S
C1407 C1410 1.511 . S
C1408 C1404 1.376 . S
C1408 C1407 1.392 . S
C1408 H1420 0.929 . S
C1409 C1405 1.531 . S
C1409 H1421 0.960 . S
C1409 H1422 0.962 . S
C1409 H1423 0.960 . S
C1410 C1407 1.511 . S
C1410 H1424 0.961 . S
C1410 H1425 0.961 . S
C1410 H1426 0.961 . S
C1411 C1412 1.370 . S
C1411 C1413 1.363 . S
C1411 H1427 0.931 . S
C1412 C1411 1.370 . S
C1412 C1416 1.408 . S
C1413 C1411 1.363 . S
C1413 C1414 1.370 . S
C1413 C1417 1.524 . S
C1414 C1406 1.503 . S
C1414 C1413 1.370 . S
C1414 C1415 1.403 . S
C1415 C1414 1.403 . S
C1415 C1416 1.404 . S
C1415 C1418 1.539 . S
C1416 C1412 1.408 . S
C1416 C1415 1.404 . S
C1416 H1428 0.930 . S
C1417 C1413 1.524 . S
C1417 H1429 0.956 . S
C1417 H1430 0.961 . S
C1417 H1431 0.961 . S
C1418 C1415 1.539 . S
C1418 H1432 0.958 . S
C1418 H1433 0.961 . S
C1418 H1434 0.960 . S
H1419 C1403 0.931 . S
H1420 C1408 0.929 . S
H1421 C1409 0.960 . S
H1422 C1409 0.962 . S
H1423 C1409 0.960 . S
H1424 C1410 0.961 . S
H1425 C1410 0.961 . S
H1426 C1410 0.961 . S
H1427 C1411 0.931 . S
H1428 C1416 0.930 . S
H1429 C1417 0.956 . S
H1430 C1417 0.961 . S
H1431 C1417 0.961 . S
H1432 C1418 0.958 . S
H1433 C1418 0.961 . S
H1434 C1418 0.960 . S
C1435 C1436 1.391 . S
C1435 C1437 1.394 . S
C1435 H1451 0.931 . S
C1436 C1435 1.391 . S
C1436 C1440 1.376 . S
C1437 C1435 1.394 . S
C1437 C1438 1.369 . S
C1437 C1441 1.531 . S
C1438 C1437 1.369 . S
C1438 C1439 1.410 . S
C1438 C1446 1.503 . S
C1439 C1438 1.410 . S
C1439 C1440 1.392 . S
C1439 C1442 1.511 . S
C1440 C1436 1.376 . S
C1440 C1439 1.392 . S
C1440 H1452 0.929 . S
C1441 C1437 1.531 . S
C1441 H1453 0.960 . S
C1441 H1454 0.962 . S
C1441 H1455 0.960 . S
C1442 C1439 1.511 . S
C1442 H1456 0.961 . S
C1442 H1457 0.961 . S
C1442 H1458 0.961 . S
C1443 C1444 1.370 . S
C1443 C1445 1.363 . S
C1443 H1459 0.931 . S
C1444 C1443 1.370 . S
C1444 C1448 1.408 . S
C1445 C1443 1.363 . S
C1445 C1446 1.370 . S
C1445 C1449 1.524 . S
C1446 C1438 1.503 . S
C1446 C1445 1.370 . S
C1446 C1447 1.403 . S
C1447 C1446 1.403 . S
C1447 C1448 1.404 . S
C1447 C1450 1.539 . S
C1448 C1444 1.408 . S
C1448 C1447 1.404 . S
C1448 H1460 0.930 . S
C1449 C1445 1.524 . S
C1449 H1461 0.956 . S
C1449 H1462 0.961 . S
C1449 H1463 0.961 . S
C1450 C1447 1.539 . S
C1450 H1464 0.958 . S
C1450 H1465 0.961 . S
C1450 H1466 0.960 . S
H1451 C1435 0.931 . S
H1452 C1440 0.929 . S
H1453 C1441 0.960 . S
H1454 C1441 0.962 . S
H1455 C1441 0.960 . S
H1456 C1442 0.961 . S
H1457 C1442 0.961 . S
H1458 C1442 0.961 . S
H1459 C1443 0.931 . S
H1460 C1448 0.930 . S
H1461 C1449 0.956 . S
H1462 C1449 0.961 . S
H1463 C1449 0.961 . S
H1464 C1450 0.958 . S
H1465 C1450 0.961 . S
H1466 C1450 0.960 . S
C1467 C1468 1.391 . S
C1467 C1469 1.394 . S
C1467 H1483 0.931 . S
C1468 C1467 1.391 . S
C1468 C1472 1.376 . S
C1469 C1467 1.394 . S
C1469 C1470 1.369 . S
C1469 C1473 1.531 . S
C1470 C1469 1.369 . S
C1470 C1471 1.410 . S
C1470 C1478 1.503 . S
C1471 C1470 1.410 . S
C1471 C1472 1.392 . S
C1471 C1474 1.511 . S
C1472 C1468 1.376 . S
C1472 C1471 1.392 . S
C1472 H1484 0.929 . S
C1473 C1469 1.531 . S
C1473 H1485 0.960 . S
C1473 H1486 0.962 . S
C1473 H1487 0.960 . S
C1474 C1471 1.511 . S
C1474 H1488 0.961 . S
C1474 H1489 0.961 . S
C1474 H1490 0.961 . S
C1475 C1476 1.370 . S
C1475 C1477 1.363 . S
C1475 H1491 0.931 . S
C1476 C1475 1.370 . S
C1476 C1480 1.408 . S
C1477 C1475 1.363 . S
C1477 C1478 1.370 . S
C1477 C1481 1.524 . S
C1478 C1470 1.503 . S
C1478 C1477 1.370 . S
C1478 C1479 1.403 . S
C1479 C1478 1.403 . S
C1479 C1480 1.404 . S
C1479 C1482 1.539 . S
C1480 C1476 1.408 . S
C1480 C1479 1.404 . S
C1480 H1492 0.930 . S
C1481 C1477 1.524 . S
C1481 H1493 0.956 . S
C1481 H1494 0.961 . S
C1481 H1495 0.961 . S
C1482 C1479 1.539 . S
C1482 H1496 0.958 . S
C1482 H1497 0.961 . S
C1482 H1498 0.960 . S
H1483 C1467 0.931 . S
H1484 C1472 0.929 . S
H1485 C1473 0.960 . S
H1486 C1473 0.962 . S
H1487 C1473 0.960 . S
H1488 C1474 0.961 . S
H1489 C1474 0.961 . S
H1490 C1474 0.961 . S
H1491 C1475 0.931 . S
H1492 C1480 0.930 . S
H1493 C1481 0.956 . S
H1494 C1481 0.961 . S
H1495 C1481 0.961 . S
H1496 C1482 0.958 . S
H1497 C1482 0.961 . S
H1498 C1482 0.960 . S
C1499 C1500 1.391 . S
C1499 C1501 1.394 . S
C1499 H1515 0.931 . S
C1500 C1499 1.391 . S
C1500 C1504 1.376 . S
C1501 C1499 1.394 . S
C1501 C1502 1.369 . S
C1501 C1505 1.531 . S
C1502 C1501 1.369 . S
C1502 C1503 1.410 . S
C1502 C1510 1.503 . S
C1503 C1502 1.410 . S
C1503 C1504 1.392 . S
C1503 C1506 1.511 . S
C1504 C1500 1.376 . S
C1504 C1503 1.392 . S
C1504 H1516 0.929 . S
C1505 C1501 1.531 . S
C1505 H1517 0.960 . S
C1505 H1518 0.962 . S
C1505 H1519 0.960 . S
C1506 C1503 1.511 . S
C1506 H1520 0.961 . S
C1506 H1521 0.961 . S
C1506 H1522 0.961 . S
C1507 C1508 1.370 . S
C1507 C1509 1.363 . S
C1507 H1523 0.931 . S
C1508 C1507 1.370 . S
C1508 C1512 1.408 . S
C1509 C1507 1.363 . S
C1509 C1510 1.370 . S
C1509 C1513 1.524 . S
C1510 C1502 1.503 . S
C1510 C1509 1.370 . S
C1510 C1511 1.403 . S
C1511 C1510 1.403 . S
C1511 C1512 1.404 . S
C1511 C1514 1.539 . S
C1512 C1508 1.408 . S
C1512 C1511 1.404 . S
C1512 H1524 0.930 . S
C1513 C1509 1.524 . S
C1513 H1525 0.956 . S
C1513 H1526 0.961 . S
C1513 H1527 0.961 . S
C1514 C1511 1.539 . S
C1514 H1528 0.958 . S
C1514 H1529 0.961 . S
C1514 H1530 0.960 . S
H1515 C1499 0.931 . S
H1516 C1504 0.929 . S
H1517 C1505 0.960 . S
H1518 C1505 0.962 . S
H1519 C1505 0.960 . S
H1520 C1506 0.961 . S
H1521 C1506 0.961 . S
H1522 C1506 0.961 . S
H1523 C1507 0.931 . S
H1524 C1512 0.930 . S
H1525 C1513 0.956 . S
H1526 C1513 0.961 . S
H1527 C1513 0.961 . S
H1528 C1514 0.958 . S
H1529 C1514 0.961 . S
H1530 C1514 0.960 . S
C1531 C1532 1.391 . S
C1531 C1533 1.394 . S
C1531 H1547 0.931 . S
C1532 C1531 1.391 . S
C1532 C1536 1.376 . S
C1533 C1531 1.394 . S
C1533 C1534 1.369 . S
C1533 C1537 1.531 . S
C1534 C1533 1.369 . S
C1534 C1535 1.410 . S
C1534 C1542 1.503 . S
C1535 C1534 1.410 . S
C1535 C1536 1.392 . S
C1535 C1538 1.511 . S
C1536 C1532 1.376 . S
C1536 C1535 1.392 . S
C1536 H1548 0.929 . S
C1537 C1533 1.531 . S
C1537 H1549 0.960 . S
C1537 H1550 0.962 . S
C1537 H1551 0.960 . S
C1538 C1535 1.511 . S
C1538 H1552 0.961 . S
C1538 H1553 0.961 . S
C1538 H1554 0.961 . S
C1539 C1540 1.370 . S
C1539 C1541 1.363 . S
C1539 H1555 0.931 . S
C1540 C1539 1.370 . S
C1540 C1544 1.408 . S
C1541 C1539 1.363 . S
C1541 C1542 1.370 . S
C1541 C1545 1.524 . S
C1542 C1534 1.503 . S
C1542 C1541 1.370 . S
C1542 C1543 1.403 . S
C1543 C1542 1.403 . S
C1543 C1544 1.404 . S
C1543 C1546 1.539 . S
C1544 C1540 1.408 . S
C1544 C1543 1.404 . S
C1544 H1556 0.930 . S
C1545 C1541 1.524 . S
C1545 H1557 0.956 . S
C1545 H1558 0.961 . S
C1545 H1559 0.961 . S
C1546 C1543 1.539 . S
C1546 H1560 0.958 . S
C1546 H1561 0.961 . S
C1546 H1562 0.960 . S
H1547 C1531 0.931 . S
H1548 C1536 0.929 . S
H1549 C1537 0.960 . S
H1550 C1537 0.962 . S
H1551 C1537 0.960 . S
H1552 C1538 0.961 . S
H1553 C1538 0.961 . S
H1554 C1538 0.961 . S
H1555 C1539 0.931 . S
H1556 C1544 0.930 . S
H1557 C1545 0.956 . S
H1558 C1545 0.961 . S
H1559 C1545 0.961 . S
H1560 C1546 0.958 . S
H1561 C1546 0.961 . S
H1562 C1546 0.960 . S
C1563 C1564 1.391 . S
C1563 C1565 1.394 1_545 S
C1563 H1579 0.931 . S
C1564 C1563 1.391 . S
C1564 C1568 1.376 . S
C1565 C1563 1.394 1_565 S
C1565 C1566 1.369 . S
C1565 C1569 1.531 . S
C1566 C1565 1.369 . S
C1566 C1567 1.410 . S
C1566 C1574 1.503 . S
C1567 C1566 1.410 . S
C1567 C1568 1.392 1_565 S
C1567 C1570 1.511 . S
C1568 C1564 1.376 . S
C1568 C1567 1.392 1_545 S
C1568 H1580 0.929 . S
C1569 C1565 1.531 . S
C1569 H1581 0.960 . S
C1569 H1582 0.962 . S
C1569 H1583 0.960 . S
C1570 C1567 1.511 . S
C1570 H1584 0.961 . S
C1570 H1585 0.961 . S
C1570 H1586 0.961 . S
C1571 C1572 1.370 . S
C1571 C1573 1.363 . S
C1571 H1587 0.931 . S
C1572 C1571 1.370 . S
C1572 C1576 1.408 . S
C1573 C1571 1.363 . S
C1573 C1574 1.370 . S
C1573 C1577 1.524 . S
C1574 C1566 1.503 . S
C1574 C1573 1.370 . S
C1574 C1575 1.403 . S
C1575 C1574 1.403 . S
C1575 C1576 1.404 . S
C1575 C1578 1.539 . S
C1576 C1572 1.408 . S
C1576 C1575 1.404 . S
C1576 H1588 0.930 . S
C1577 C1573 1.524 . S
C1577 H1589 0.956 . S
C1577 H1590 0.961 . S
C1577 H1591 0.961 . S
C1578 C1575 1.539 . S
C1578 H1592 0.958 . S
C1578 H1593 0.961 . S
C1578 H1594 0.960 . S
H1579 C1563 0.931 . S
H1580 C1568 0.929 . S
H1581 C1569 0.960 . S
H1582 C1569 0.962 . S
H1583 C1569 0.960 . S
H1584 C1570 0.961 . S
H1585 C1570 0.961 . S
H1586 C1570 0.961 . S
H1587 C1571 0.931 . S
H1588 C1576 0.930 . S
H1589 C1577 0.956 . S
H1590 C1577 0.961 . S
H1591 C1577 0.961 . S
H1592 C1578 0.958 . S
H1593 C1578 0.961 . S
H1594 C1578 0.960 . S
C1595 C1596 1.391 . S
C1595 C1597 1.394 1_655 S
C1595 H1611 0.931 . S
C1596 C1595 1.391 . S
C1596 C1600 1.376 . S
C1597 C1595 1.394 1_455 S
C1597 C1598 1.369 . S
C1597 C1601 1.531 . S
C1598 C1597 1.369 . S
C1598 C1599 1.410 . S
C1598 C1606 1.503 . S
C1599 C1598 1.410 . S
C1599 C1600 1.392 1_455 S
C1599 C1602 1.511 . S
C1600 C1596 1.376 . S
C1600 C1599 1.392 1_655 S
C1600 H1612 0.929 . S
C1601 C1597 1.531 . S
C1601 H1613 0.960 . S
C1601 H1614 0.962 . S
C1601 H1615 0.960 . S
C1602 C1599 1.511 . S
C1602 H1616 0.961 . S
C1602 H1617 0.961 . S
C1602 H1618 0.961 . S
C1603 C1604 1.370 . S
C1603 C1605 1.363 . S
C1603 H1619 0.931 . S
C1604 C1603 1.370 . S
C1604 C1608 1.408 . S
C1605 C1603 1.363 . S
C1605 C1606 1.370 . S
C1605 C1609 1.524 . S
C1606 C1598 1.503 . S
C1606 C1605 1.370 . S
C1606 C1607 1.403 . S
C1607 C1606 1.403 . S
C1607 C1608 1.404 . S
C1607 C1610 1.539 . S
C1608 C1604 1.408 . S
C1608 C1607 1.404 . S
C1608 H1620 0.930 . S
C1609 C1605 1.524 . S
C1609 H1621 0.956 . S
C1609 H1622 0.961 . S
C1609 H1623 0.961 . S
C1610 C1607 1.539 . S
C1610 H1624 0.958 . S
C1610 H1625 0.961 . S
C1610 H1626 0.960 . S
H1611 C1595 0.931 . S
H1612 C1600 0.929 . S
H1613 C1601 0.960 . S
H1614 C1601 0.962 . S
H1615 C1601 0.960 . S
H1616 C1602 0.961 . S
H1617 C1602 0.961 . S
H1618 C1602 0.961 . S
H1619 C1603 0.931 . S
H1620 C1608 0.930 . S
H1621 C1609 0.956 . S
H1622 C1609 0.961 . S
H1623 C1609 0.961 . S
H1624 C1610 0.958 . S
H1625 C1610 0.961 . S
H1626 C1610 0.960 . S
C1627 C1628 1.391 . S
C1627 C1629 1.394 . S
C1627 H1643 0.931 . S
C1628 C1627 1.391 . S
C1628 C1632 1.376 . S
C1629 C1627 1.394 . S
C1629 C1630 1.369 . S
C1629 C1633 1.531 . S
C1630 C1629 1.369 . S
C1630 C1631 1.410 . S
C1630 C1638 1.503 . S
C1631 C1630 1.410 . S
C1631 C1632 1.392 . S
C1631 C1634 1.511 . S
C1632 C1628 1.376 . S
C1632 C1631 1.392 . S
C1632 H1644 0.929 . S
C1633 C1629 1.531 . S
C1633 H1645 0.960 . S
C1633 H1646 0.962 . S
C1633 H1647 0.960 . S
C1634 C1631 1.511 . S
C1634 H1648 0.961 . S
C1634 H1649 0.961 . S
C1634 H1650 0.961 . S
C1635 C1636 1.370 . S
C1635 C1637 1.363 . S
C1635 H1651 0.931 . S
C1636 C1635 1.370 . S
C1636 C1640 1.408 . S
C1637 C1635 1.363 . S
C1637 C1638 1.370 . S
C1637 C1641 1.524 . S
C1638 C1630 1.503 . S
C1638 C1637 1.370 . S
C1638 C1639 1.403 . S
C1639 C1638 1.403 . S
C1639 C1640 1.404 . S
C1639 C1642 1.539 . S
C1640 C1636 1.408 . S
C1640 C1639 1.404 . S
C1640 H1652 0.930 . S
C1641 C1637 1.524 . S
C1641 H1653 0.956 . S
C1641 H1654 0.961 . S
C1641 H1655 0.961 . S
C1642 C1639 1.539 . S
C1642 H1656 0.958 . S
C1642 H1657 0.961 . S
C1642 H1658 0.960 . S
H1643 C1627 0.931 . S
H1644 C1632 0.929 . S
H1645 C1633 0.960 . S
H1646 C1633 0.962 . S
H1647 C1633 0.960 . S
H1648 C1634 0.961 . S
H1649 C1634 0.961 . S
H1650 C1634 0.961 . S
H1651 C1635 0.931 . S
H1652 C1640 0.930 . S
H1653 C1641 0.956 . S
H1654 C1641 0.961 . S
H1655 C1641 0.961 . S
H1656 C1642 0.958 . S
H1657 C1642 0.961 . S
H1658 C1642 0.960 . S
C1659 C1660 1.391 . S
C1659 C1661 1.394 . S
C1659 H1675 0.931 . S
C1660 C1659 1.391 . S
C1660 C1664 1.376 . S
C1661 C1659 1.394 . S
C1661 C1662 1.369 . S
C1661 C1665 1.531 . S
C1662 C1661 1.369 . S
C1662 C1663 1.410 . S
C1662 C1670 1.503 . S
C1663 C1662 1.410 . S
C1663 C1664 1.392 . S
C1663 C1666 1.511 . S
C1664 C1660 1.376 . S
C1664 C1663 1.392 . S
C1664 H1676 0.929 . S
C1665 C1661 1.531 . S
C1665 H1677 0.960 . S
C1665 H1678 0.962 . S
C1665 H1679 0.960 . S
C1666 C1663 1.511 . S
C1666 H1680 0.961 . S
C1666 H1681 0.961 . S
C1666 H1682 0.961 . S
C1667 C1668 1.370 . S
C1667 C1669 1.363 . S
C1667 H1683 0.931 . S
C1668 C1667 1.370 . S
C1668 C1672 1.408 . S
C1669 C1667 1.363 . S
C1669 C1670 1.370 . S
C1669 C1673 1.524 . S
C1670 C1662 1.503 . S
C1670 C1669 1.370 . S
C1670 C1671 1.403 . S
C1671 C1670 1.403 . S
C1671 C1672 1.404 . S
C1671 C1674 1.539 . S
C1672 C1668 1.408 . S
C1672 C1671 1.404 . S
C1672 H1684 0.930 . S
C1673 C1669 1.524 . S
C1673 H1685 0.956 . S
C1673 H1686 0.961 . S
C1673 H1687 0.961 . S
C1674 C1671 1.539 . S
C1674 H1688 0.958 . S
C1674 H1689 0.961 . S
C1674 H1690 0.960 . S
H1675 C1659 0.931 . S
H1676 C1664 0.929 . S
H1677 C1665 0.960 . S
H1678 C1665 0.962 . S
H1679 C1665 0.960 . S
H1680 C1666 0.961 . S
H1681 C1666 0.961 . S
H1682 C1666 0.961 . S
H1683 C1667 0.931 . S
H1684 C1672 0.930 . S
H1685 C1673 0.956 . S
H1686 C1673 0.961 . S
H1687 C1673 0.961 . S
H1688 C1674 0.958 . S
H1689 C1674 0.961 . S
H1690 C1674 0.960 . S
C1691 C1692 1.391 . S
C1691 C1693 1.394 . S
C1691 H1707 0.931 . S
C1692 C1691 1.391 . S
C1692 C1696 1.376 . S
C1693 C1691 1.394 . S
C1693 C1694 1.369 . S
C1693 C1697 1.531 . S
C1694 C1693 1.369 . S
C1694 C1695 1.410 . S
C1694 C1702 1.503 . S
C1695 C1694 1.410 . S
C1695 C1696 1.392 . S
C1695 C1698 1.511 . S
C1696 C1692 1.376 . S
C1696 C1695 1.392 . S
C1696 H1708 0.929 . S
C1697 C1693 1.531 . S
C1697 H1709 0.960 . S
C1697 H1710 0.962 . S
C1697 H1711 0.960 . S
C1698 C1695 1.511 . S
C1698 H1712 0.961 . S
C1698 H1713 0.961 . S
C1698 H1714 0.961 . S
C1699 C1700 1.370 . S
C1699 C1701 1.363 . S
C1699 H1715 0.931 . S
C1700 C1699 1.370 . S
C1700 C1704 1.408 . S
C1701 C1699 1.363 . S
C1701 C1702 1.370 . S
C1701 C1705 1.524 . S
C1702 C1694 1.503 . S
C1702 C1701 1.370 . S
C1702 C1703 1.403 . S
C1703 C1702 1.403 . S
C1703 C1704 1.404 . S
C1703 C1706 1.539 . S
C1704 C1700 1.408 . S
C1704 C1703 1.404 . S
C1704 H1716 0.930 . S
C1705 C1701 1.524 . S
C1705 H1717 0.956 . S
C1705 H1718 0.961 . S
C1705 H1719 0.961 . S
C1706 C1703 1.539 . S
C1706 H1720 0.958 . S
C1706 H1721 0.961 . S
C1706 H1722 0.960 . S
H1707 C1691 0.931 . S
H1708 C1696 0.929 . S
H1709 C1697 0.960 . S
H1710 C1697 0.962 . S
H1711 C1697 0.960 . S
H1712 C1698 0.961 . S
H1713 C1698 0.961 . S
H1714 C1698 0.961 . S
H1715 C1699 0.931 . S
H1716 C1704 0.930 . S
H1717 C1705 0.956 . S
H1718 C1705 0.961 . S
H1719 C1705 0.961 . S
H1720 C1706 0.958 . S
H1721 C1706 0.961 . S
H1722 C1706 0.960 . S
C1723 C1724 1.391 . S
C1723 C1725 1.394 . S
C1723 H1739 0.931 . S
C1724 C1723 1.391 . S
C1724 C1728 1.376 . S
C1725 C1723 1.394 . S
C1725 C1726 1.369 . S
C1725 C1729 1.531 . S
C1726 C1725 1.369 . S
C1726 C1727 1.410 . S
C1726 C1734 1.503 . S
C1727 C1726 1.410 . S
C1727 C1728 1.392 . S
C1727 C1730 1.511 . S
C1728 C1724 1.376 . S
C1728 C1727 1.392 . S
C1728 H1740 0.929 . S
C1729 C1725 1.531 . S
C1729 H1741 0.960 . S
C1729 H1742 0.962 . S
C1729 H1743 0.960 . S
C1730 C1727 1.511 . S
C1730 H1744 0.961 . S
C1730 H1745 0.961 . S
C1730 H1746 0.961 . S
C1731 C1732 1.370 . S
C1731 C1733 1.363 . S
C1731 H1747 0.931 . S
C1732 C1731 1.370 . S
C1732 C1736 1.408 . S
C1733 C1731 1.363 . S
C1733 C1734 1.370 . S
C1733 C1737 1.524 . S
C1734 C1726 1.503 . S
C1734 C1733 1.370 . S
C1734 C1735 1.403 . S
C1735 C1734 1.403 . S
C1735 C1736 1.404 . S
C1735 C1738 1.539 . S
C1736 C1732 1.408 . S
C1736 C1735 1.404 . S
C1736 H1748 0.930 . S
C1737 C1733 1.524 . S
C1737 H1749 0.956 . S
C1737 H1750 0.961 . S
C1737 H1751 0.961 . S
C1738 C1735 1.539 . S
C1738 H1752 0.958 . S
C1738 H1753 0.961 . S
C1738 H1754 0.960 . S
H1739 C1723 0.931 . S
H1740 C1728 0.929 . S
H1741 C1729 0.960 . S
H1742 C1729 0.962 . S
H1743 C1729 0.960 . S
H1744 C1730 0.961 . S
H1745 C1730 0.961 . S
H1746 C1730 0.961 . S
H1747 C1731 0.931 . S
H1748 C1736 0.930 . S
H1749 C1737 0.956 . S
H1750 C1737 0.961 . S
H1751 C1737 0.961 . S
H1752 C1738 0.958 . S
H1753 C1738 0.961 . S
H1754 C1738 0.960 . S
C1755 C1756 1.391 . S
C1755 C1757 1.394 1_565 S
C1755 H1771 0.931 . S
C1756 C1755 1.391 . S
C1756 C1760 1.376 . S
C1757 C1755 1.394 1_545 S
C1757 C1758 1.369 . S
C1757 C1761 1.531 . S
C1758 C1757 1.369 . S
C1758 C1759 1.410 . S
C1758 C1766 1.503 . S
C1759 C1758 1.410 . S
C1759 C1760 1.392 1_545 S
C1759 C1762 1.511 . S
C1760 C1756 1.376 . S
C1760 C1759 1.392 1_565 S
C1760 H1772 0.929 . S
C1761 C1757 1.531 . S
C1761 H1773 0.960 . S
C1761 H1774 0.962 . S
C1761 H1775 0.960 . S
C1762 C1759 1.511 . S
C1762 H1776 0.961 . S
C1762 H1777 0.961 . S
C1762 H1778 0.961 . S
C1763 C1764 1.370 . S
C1763 C1765 1.363 . S
C1763 H1779 0.931 . S
C1764 C1763 1.370 . S
C1764 C1768 1.408 . S
C1765 C1763 1.363 . S
C1765 C1766 1.370 . S
C1765 C1769 1.524 . S
C1766 C1758 1.503 . S
C1766 C1765 1.370 . S
C1766 C1767 1.403 . S
C1767 C1766 1.403 . S
C1767 C1768 1.404 . S
C1767 C1770 1.539 . S
C1768 C1764 1.408 . S
C1768 C1767 1.404 . S
C1768 H1780 0.930 . S
C1769 C1765 1.524 . S
C1769 H1781 0.956 . S
C1769 H1782 0.961 . S
C1769 H1783 0.961 . S
C1770 C1767 1.539 . S
C1770 H1784 0.958 . S
C1770 H1785 0.961 . S
C1770 H1786 0.960 . S
H1771 C1755 0.931 . S
H1772 C1760 0.929 . S
H1773 C1761 0.960 . S
H1774 C1761 0.962 . S
H1775 C1761 0.960 . S
H1776 C1762 0.961 . S
H1777 C1762 0.961 . S
H1778 C1762 0.961 . S
H1779 C1763 0.931 . S
H1780 C1768 0.930 . S
H1781 C1769 0.956 . S
H1782 C1769 0.961 . S
H1783 C1769 0.961 . S
H1784 C1770 0.958 . S
H1785 C1770 0.961 . S
H1786 C1770 0.960 . S
C1787 C1788 1.391 . S
C1787 C1789 1.394 1_455 S
C1787 H1803 0.931 . S
C1788 C1787 1.391 . S
C1788 C1792 1.376 . S
C1789 C1787 1.394 1_655 S
C1789 C1790 1.369 . S
C1789 C1793 1.531 . S
C1790 C1789 1.369 . S
C1790 C1791 1.410 . S
C1790 C1798 1.503 . S
C1791 C1790 1.410 . S
C1791 C1792 1.392 1_655 S
C1791 C1794 1.511 . S
C1792 C1788 1.376 . S
C1792 C1791 1.392 1_455 S
C1792 H1804 0.929 . S
C1793 C1789 1.531 . S
C1793 H1805 0.960 . S
C1793 H1806 0.962 . S
C1793 H1807 0.960 . S
C1794 C1791 1.511 . S
C1794 H1808 0.961 . S
C1794 H1809 0.961 . S
C1794 H1810 0.961 . S
C1795 C1796 1.370 . S
C1795 C1797 1.363 . S
C1795 H1811 0.931 . S
C1796 C1795 1.370 . S
C1796 C1800 1.408 . S
C1797 C1795 1.363 . S
C1797 C1798 1.370 . S
C1797 C1801 1.524 . S
C1798 C1790 1.503 . S
C1798 C1797 1.370 . S
C1798 C1799 1.403 . S
C1799 C1798 1.403 . S
C1799 C1800 1.404 . S
C1799 C1802 1.539 . S
C1800 C1796 1.408 . S
C1800 C1799 1.404 . S
C1800 H1812 0.930 . S
C1801 C1797 1.524 . S
C1801 H1813 0.956 . S
C1801 H1814 0.961 . S
C1801 H1815 0.961 . S
C1802 C1799 1.539 . S
C1802 H1816 0.958 . S
C1802 H1817 0.961 . S
C1802 H1818 0.960 . S
H1803 C1787 0.931 . S
H1804 C1792 0.929 . S
H1805 C1793 0.960 . S
H1806 C1793 0.962 . S
H1807 C1793 0.960 . S
H1808 C1794 0.961 . S
H1809 C1794 0.961 . S
H1810 C1794 0.961 . S
H1811 C1795 0.931 . S
H1812 C1800 0.930 . S
H1813 C1801 0.956 . S
H1814 C1801 0.961 . S
H1815 C1801 0.961 . S
H1816 C1802 0.958 . S
H1817 C1802 0.961 . S
H1818 C1802 0.960 . S
C1819 C1820 1.391 . S
C1819 C1821 1.394 . S
C1819 H1835 0.931 . S
C1820 C1819 1.391 . S
C1820 C1824 1.376 . S
C1821 C1819 1.394 . S
C1821 C1822 1.369 . S
C1821 C1825 1.531 . S
C1822 C1821 1.369 . S
C1822 C1823 1.410 . S
C1822 C1830 1.503 . S
C1823 C1822 1.410 . S
C1823 C1824 1.392 . S
C1823 C1826 1.511 . S
C1824 C1820 1.376 . S
C1824 C1823 1.392 . S
C1824 H1836 0.929 . S
C1825 C1821 1.531 . S
C1825 H1837 0.960 . S
C1825 H1838 0.962 . S
C1825 H1839 0.960 . S
C1826 C1823 1.511 . S
C1826 H1840 0.961 . S
C1826 H1841 0.961 . S
C1826 H1842 0.961 . S
C1827 C1828 1.370 . S
C1827 C1829 1.363 . S
C1827 H1843 0.931 . S
C1828 C1827 1.370 . S
C1828 C1832 1.408 . S
C1829 C1827 1.363 . S
C1829 C1830 1.370 . S
C1829 C1833 1.524 . S
C1830 C1822 1.503 . S
C1830 C1829 1.370 . S
C1830 C1831 1.403 . S
C1831 C1830 1.403 . S
C1831 C1832 1.404 . S
C1831 C1834 1.539 . S
C1832 C1828 1.408 . S
C1832 C1831 1.404 . S
C1832 H1844 0.930 . S
C1833 C1829 1.524 . S
C1833 H1845 0.956 . S
C1833 H1846 0.961 . S
C1833 H1847 0.961 . S
C1834 C1831 1.539 . S
C1834 H1848 0.958 . S
C1834 H1849 0.961 . S
C1834 H1850 0.960 . S
H1835 C1819 0.931 . S
H1836 C1824 0.929 . S
H1837 C1825 0.960 . S
H1838 C1825 0.962 . S
H1839 C1825 0.960 . S
H1840 C1826 0.961 . S
H1841 C1826 0.961 . S
H1842 C1826 0.961 . S
H1843 C1827 0.931 . S
H1844 C1832 0.930 . S
H1845 C1833 0.956 . S
H1846 C1833 0.961 . S
H1847 C1833 0.961 . S
H1848 C1834 0.958 . S
H1849 C1834 0.961 . S
H1850 C1834 0.960 . S
C1851 C1852 1.391 . S
C1851 C1853 1.360 1_455 S
C1851 H1867 0.931 . S
C1852 C1851 1.391 . S
C1852 C1856 1.376 . S
C1853 C1851 1.360 1_655 S
C1853 C1854 1.404 . S
C1853 C1857 1.530 . S
C1854 C1853 1.404 . S
C1854 C1855 1.410 . S
C1854 C1862 1.503 . S
C1855 C1854 1.410 . S
C1855 C1856 1.392 1_655 S
C1855 C1858 1.511 . S
C1856 C1852 1.376 . S
C1856 C1855 1.392 1_455 S
C1856 H1868 0.929 . S
C1857 C1853 1.530 . S
C1857 H1869 0.960 . S
C1857 H1870 0.962 . S
C1857 H1871 0.960 1_655 S
C1858 C1855 1.511 . S
C1858 H1872 0.961 . S
C1858 H1873 0.961 . S
C1858 H1874 0.961 . S
C1859 C1860 1.370 . S
C1859 C1861 1.363 . S
C1859 H1875 0.931 . S
C1860 C1859 1.370 . S
C1860 C1864 1.408 . S
C1861 C1859 1.363 . S
C1861 C1862 1.370 . S
C1861 C1865 1.524 . S
C1862 C1854 1.503 . S
C1862 C1861 1.370 . S
C1862 C1863 1.403 . S
C1863 C1862 1.403 . S
C1863 C1864 1.404 . S
C1863 C1866 1.539 . S
C1864 C1860 1.408 . S
C1864 C1863 1.404 . S
C1864 H1876 0.930 . S
C1865 C1861 1.524 . S
C1865 H1877 0.956 . S
C1865 H1878 0.961 . S
C1865 H1879 0.961 . S
C1866 C1863 1.539 . S
C1866 H1880 0.958 . S
C1866 H1881 0.961 . S
C1866 H1882 0.960 . S
H1867 C1851 0.931 . S
H1868 C1856 0.929 . S
H1869 C1857 0.960 . S
H1870 C1857 0.962 . S
H1871 C1857 0.960 1_455 S
H1872 C1858 0.961 . S
H1873 C1858 0.961 . S
H1874 C1858 0.961 . S
H1875 C1859 0.931 . S
H1876 C1864 0.930 . S
H1877 C1865 0.956 . S
H1878 C1865 0.961 . S
H1879 C1865 0.961 . S
H1880 C1866 0.958 . S
H1881 C1866 0.961 . S
H1882 C1866 0.960 . S
C1883 C1884 1.391 . S
C1883 C1885 1.394 . S
C1883 H1899 0.931 . S
C1884 C1883 1.391 . S
C1884 C1888 1.376 . S
C1885 C1883 1.394 . S
C1885 C1886 1.369 . S
C1885 C1889 1.531 . S
C1886 C1885 1.369 . S
C1886 C1887 1.410 . S
C1886 C1894 1.503 . S
C1887 C1886 1.410 . S
C1887 C1888 1.392 . S
C1887 C1890 1.511 . S
C1888 C1884 1.376 . S
C1888 C1887 1.392 . S
C1888 H1900 0.929 . S
C1889 C1885 1.531 . S
C1889 H1901 0.960 . S
C1889 H1902 0.962 . S
C1889 H1903 0.960 . S
C1890 C1887 1.511 . S
C1890 H1904 0.961 . S
C1890 H1905 0.961 . S
C1890 H1906 0.961 . S
C1891 C1892 1.370 . S
C1891 C1893 1.363 . S
C1891 H1907 0.931 . S
C1892 C1891 1.370 . S
C1892 C1896 1.408 . S
C1893 C1891 1.363 . S
C1893 C1894 1.370 . S
C1893 C1897 1.524 . S
C1894 C1886 1.503 . S
C1894 C1893 1.370 . S
C1894 C1895 1.403 . S
C1895 C1894 1.403 . S
C1895 C1896 1.404 . S
C1895 C1898 1.539 . S
C1896 C1892 1.408 . S
C1896 C1895 1.404 . S
C1896 H1908 0.930 . S
C1897 C1893 1.524 . S
C1897 H1909 0.956 . S
C1897 H1910 0.961 . S
C1897 H1911 0.961 . S
C1898 C1895 1.539 . S
C1898 H1912 0.958 . S
C1898 H1913 0.961 . S
C1898 H1914 0.960 . S
H1899 C1883 0.931 . S
H1900 C1888 0.929 . S
H1901 C1889 0.960 . S
H1902 C1889 0.962 . S
H1903 C1889 0.960 . S
H1904 C1890 0.961 . S
H1905 C1890 0.961 . S
H1906 C1890 0.961 . S
H1907 C1891 0.931 . S
H1908 C1896 0.930 . S
H1909 C1897 0.956 . S
H1910 C1897 0.961 . S
H1911 C1897 0.961 . S
H1912 C1898 0.958 . S
H1913 C1898 0.961 . S
H1914 C1898 0.960 . S
C1915 C1916 1.391 . S
C1915 C1917 1.394 1_565 S
C1915 H1931 0.931 . S
C1916 C1915 1.391 . S
C1916 C1920 1.376 . S
C1917 C1915 1.394 1_545 S
C1917 C1918 1.369 . S
C1917 C1921 1.531 . S
C1918 C1917 1.369 . S
C1918 C1919 1.410 . S
C1918 C1926 1.503 . S
C1919 C1918 1.410 . S
C1919 C1920 1.392 1_545 S
C1919 C1922 1.511 . S
C1920 C1916 1.376 . S
C1920 C1919 1.392 1_565 S
C1920 H1932 0.929 . S
C1921 C1917 1.531 . S
C1921 H1933 0.960 . S
C1921 H1934 0.962 . S
C1921 H1935 0.960 . S
C1922 C1919 1.511 . S
C1922 H1936 0.961 . S
C1922 H1937 0.961 . S
C1922 H1938 0.961 . S
C1923 C1924 1.370 . S
C1923 C1925 1.363 . S
C1923 H1939 0.931 . S
C1924 C1923 1.370 . S
C1924 C1928 1.408 . S
C1925 C1923 1.363 . S
C1925 C1926 1.370 . S
C1925 C1929 1.524 . S
C1926 C1918 1.503 . S
C1926 C1925 1.370 . S
C1926 C1927 1.403 . S
C1927 C1926 1.403 . S
C1927 C1928 1.404 . S
C1927 C1930 1.539 . S
C1928 C1924 1.408 . S
C1928 C1927 1.404 . S
C1928 H1940 0.930 . S
C1929 C1925 1.524 . S
C1929 H1941 0.956 . S
C1929 H1942 0.961 . S
C1929 H1943 0.961 . S
C1930 C1927 1.539 . S
C1930 H1944 0.958 . S
C1930 H1945 0.961 . S
C1930 H1946 0.960 . S
H1931 C1915 0.931 . S
H1932 C1920 0.929 . S
H1933 C1921 0.960 . S
H1934 C1921 0.962 . S
H1935 C1921 0.960 . S
H1936 C1922 0.961 . S
H1937 C1922 0.961 . S
H1938 C1922 0.961 . S
H1939 C1923 0.931 . S
H1940 C1928 0.930 . S
H1941 C1929 0.956 . S
H1942 C1929 0.961 . S
H1943 C1929 0.961 . S
H1944 C1930 0.958 . S
H1945 C1930 0.961 . S
H1946 C1930 0.960 . S
C1947 C1948 1.391 . S
C1947 C1949 1.394 . S
C1947 H1963 0.931 . S
C1948 C1947 1.391 . S
C1948 C1952 1.376 . S
C1949 C1947 1.394 . S
C1949 C1950 1.369 . S
C1949 C1953 1.531 . S
C1950 C1949 1.369 . S
C1950 C1951 1.410 . S
C1950 C1958 1.503 . S
C1951 C1950 1.410 . S
C1951 C1952 1.392 . S
C1951 C1954 1.511 . S
C1952 C1948 1.376 . S
C1952 C1951 1.392 . S
C1952 H1964 0.929 . S
C1953 C1949 1.531 . S
C1953 H1965 0.960 . S
C1953 H1966 0.962 . S
C1953 H1967 0.960 . S
C1954 C1951 1.511 . S
C1954 H1968 0.961 . S
C1954 H1969 0.961 . S
C1954 H1970 0.961 . S
C1955 C1956 1.370 . S
C1955 C1957 1.363 . S
C1955 H1971 0.931 . S
C1956 C1955 1.370 . S
C1956 C1960 1.408 . S
C1957 C1955 1.363 . S
C1957 C1958 1.370 . S
C1957 C1961 1.524 . S
C1958 C1950 1.503 . S
C1958 C1957 1.370 . S
C1958 C1959 1.403 . S
C1959 C1958 1.403 . S
C1959 C1960 1.404 . S
C1959 C1962 1.539 . S
C1960 C1956 1.408 . S
C1960 C1959 1.404 . S
C1960 H1972 0.930 . S
C1961 C1957 1.524 . S
C1961 H1973 0.956 . S
C1961 H1974 0.961 . S
C1961 H1975 0.961 . S
C1962 C1959 1.539 . S
C1962 H1976 0.958 . S
C1962 H1977 0.961 . S
C1962 H1978 0.960 . S
H1963 C1947 0.931 . S
H1964 C1952 0.929 . S
H1965 C1953 0.960 . S
H1966 C1953 0.962 . S
H1967 C1953 0.960 . S
H1968 C1954 0.961 . S
H1969 C1954 0.961 . S
H1970 C1954 0.961 . S
H1971 C1955 0.931 . S
H1972 C1960 0.930 . S
H1973 C1961 0.956 . S
H1974 C1961 0.961 . S
H1975 C1961 0.961 . S
H1976 C1962 0.958 . S
H1977 C1962 0.961 . S
H1978 C1962 0.960 . S
C1979 C1980 1.391 . S
C1979 C1981 1.394 . S
C1979 H1995 0.931 . S
C1980 C1979 1.391 . S
C1980 C1984 1.376 . S
C1981 C1979 1.394 . S
C1981 C1982 1.369 . S
C1981 C1985 1.531 . S
C1982 C1981 1.369 . S
C1982 C1983 1.410 . S
C1982 C1990 1.503 . S
C1983 C1982 1.410 . S
C1983 C1984 1.392 . S
C1983 C1986 1.511 . S
C1984 C1980 1.376 . S
C1984 C1983 1.392 . S
C1984 H1996 0.929 . S
C1985 C1981 1.531 . S
C1985 H1997 0.960 . S
C1985 H1998 0.962 . S
C1985 H1999 0.960 . S
C1986 C1983 1.511 . S
C1986 H2000 0.961 . S
C1986 H2001 0.961 . S
C1986 H2002 0.961 . S
C1987 C1988 1.370 . S
C1987 C1989 1.363 . S
C1987 H2003 0.931 . S
C1988 C1987 1.370 . S
C1988 C1992 1.408 . S
C1989 C1987 1.363 . S
C1989 C1990 1.370 . S
C1989 C1993 1.524 . S
C1990 C1982 1.503 . S
C1990 C1989 1.370 . S
C1990 C1991 1.403 . S
C1991 C1990 1.403 . S
C1991 C1992 1.404 . S
C1991 C1994 1.539 . S
C1992 C1988 1.408 . S
C1992 C1991 1.404 . S
C1992 H2004 0.930 . S
C1993 C1989 1.524 . S
C1993 H2005 0.956 . S
C1993 H2006 0.961 . S
C1993 H2007 0.961 . S
C1994 C1991 1.539 . S
C1994 H2008 0.958 . S
C1994 H2009 0.961 . S
C1994 H2010 0.960 . S
H1995 C1979 0.931 . S
H1996 C1984 0.929 . S
H1997 C1985 0.960 . S
H1998 C1985 0.962 . S
H1999 C1985 0.960 . S
H2000 C1986 0.961 . S
H2001 C1986 0.961 . S
H2002 C1986 0.961 . S
H2003 C1987 0.931 . S
H2004 C1992 0.930 . S
H2005 C1993 0.956 . S
H2006 C1993 0.961 . S
H2007 C1993 0.961 . S
H2008 C1994 0.958 . S
H2009 C1994 0.961 . S
H2010 C1994 0.960 . S
C2011 C2012 1.391 . S
C2011 C2013 1.394 . S
C2011 H2027 0.931 . S
C2012 C2011 1.391 . S
C2012 C2016 1.376 . S
C2013 C2011 1.394 . S
C2013 C2014 1.369 . S
C2013 C2017 1.531 . S
C2014 C2013 1.369 . S
C2014 C2015 1.410 . S
C2014 C2022 1.503 . S
C2015 C2014 1.410 . S
C2015 C2016 1.392 . S
C2015 C2018 1.511 . S
C2016 C2012 1.376 . S
C2016 C2015 1.392 . S
C2016 H2028 0.929 . S
C2017 C2013 1.531 . S
C2017 H2029 0.960 . S
C2017 H2030 0.962 . S
C2017 H2031 0.960 . S
C2018 C2015 1.511 . S
C2018 H2032 0.961 . S
C2018 H2033 0.961 . S
C2018 H2034 0.961 . S
C2019 C2020 1.370 . S
C2019 C2021 1.363 . S
C2019 H2035 0.931 . S
C2020 C2019 1.370 . S
C2020 C2024 1.408 . S
C2021 C2019 1.363 . S
C2021 C2022 1.370 . S
C2021 C2025 1.524 . S
C2022 C2014 1.503 . S
C2022 C2021 1.370 . S
C2022 C2023 1.403 . S
C2023 C2022 1.403 . S
C2023 C2024 1.404 . S
C2023 C2026 1.539 . S
C2024 C2020 1.408 . S
C2024 C2023 1.404 . S
C2024 H2036 0.930 . S
C2025 C2021 1.524 . S
C2025 H2037 0.956 . S
C2025 H2038 0.961 . S
C2025 H2039 0.961 . S
C2026 C2023 1.539 . S
C2026 H2040 0.958 . S
C2026 H2041 0.961 . S
C2026 H2042 0.960 . S
H2027 C2011 0.931 . S
H2028 C2016 0.929 . S
H2029 C2017 0.960 . S
H2030 C2017 0.962 . S
H2031 C2017 0.960 . S
H2032 C2018 0.961 . S
H2033 C2018 0.961 . S
H2034 C2018 0.961 . S
H2035 C2019 0.931 . S
H2036 C2024 0.930 . S
H2037 C2025 0.956 . S
H2038 C2025 0.961 . S
H2039 C2025 0.961 . S
H2040 C2026 0.958 . S
H2041 C2026 0.961 . S
H2042 C2026 0.960 . S
C2043 C2044 1.391 . S
C2043 C2045 1.394 . S
C2043 H2059 0.931 . S
C2044 C2043 1.391 . S
C2044 C2048 1.376 . S
C2045 C2043 1.394 . S
C2045 C2046 1.369 . S
C2045 C2049 1.531 . S
C2046 C2045 1.369 . S
C2046 C2047 1.410 . S
C2046 C2054 1.503 . S
C2047 C2046 1.410 . S
C2047 C2048 1.392 . S
C2047 C2050 1.511 1_565 S
C2048 C2044 1.376 . S
C2048 C2047 1.392 . S
C2048 H2060 0.929 . S
C2049 C2045 1.531 . S
C2049 H2061 0.960 . S
C2049 H2062 0.962 . S
C2049 H2063 0.960 . S
C2050 C2047 1.511 1_545 S
C2050 H2064 0.961 . S
C2050 H2065 0.961 . S
C2050 H2066 0.961 1_545 S
C2051 C2052 1.360 1_545 S
C2051 C2053 1.363 . S
C2051 H2067 0.931 . S
C2052 C2051 1.360 1_565 S
C2052 C2056 1.427 . S
C2053 C2051 1.363 . S
C2053 C2054 1.370 1_545 S
C2053 C2057 1.524 . S
C2054 C2046 1.503 . S
C2054 C2053 1.370 1_565 S
C2054 C2055 1.403 . S
C2055 C2054 1.403 . S
C2055 C2056 1.404 . S
C2055 C2058 1.539 . S
C2056 C2052 1.427 . S
C2056 C2055 1.404 . S
C2056 H2068 0.930 . S
C2057 C2053 1.524 . S
C2057 H2069 0.956 . S
C2057 H2070 0.961 . S
C2057 H2071 0.961 . S
C2058 C2055 1.539 . S
C2058 H2072 0.958 . S
C2058 H2073 0.961 . S
C2058 H2074 0.960 . S
H2059 C2043 0.931 . S
H2060 C2048 0.929 . S
H2061 C2049 0.960 . S
H2062 C2049 0.962 . S
H2063 C2049 0.960 . S
H2064 C2050 0.961 . S
H2065 C2050 0.961 . S
H2066 C2050 0.961 1_565 S
H2067 C2051 0.931 . S
H2068 C2056 0.930 . S
H2069 C2057 0.956 . S
H2070 C2057 0.961 . S
H2071 C2057 0.961 . S
H2072 C2058 0.958 . S
H2073 C2058 0.961 . S
H2074 C2058 0.960 . S
C2075 C2076 1.391 . S
C2075 C2077 1.394 . S
C2075 H2091 0.931 . S
C2076 C2075 1.391 . S
C2076 C2080 1.376 . S
C2077 C2075 1.394 . S
C2077 C2078 1.369 . S
C2077 C2081 1.531 . S
C2078 C2077 1.369 . S
C2078 C2079 1.410 . S
C2078 C2086 1.503 . S
C2079 C2078 1.410 . S
C2079 C2080 1.392 . S
C2079 C2082 1.511 1_455 S
C2080 C2076 1.376 . S
C2080 C2079 1.392 . S
C2080 H2092 0.929 . S
C2081 C2077 1.531 . S
C2081 H2093 0.960 . S
C2081 H2094 0.962 . S
C2081 H2095 0.960 . S
C2082 C2079 1.511 1_655 S
C2082 H2096 0.961 1_655 S
C2082 H2097 0.961 1_655 S
C2082 H2098 0.961 . S
C2083 C2084 1.370 . S
C2083 C2085 1.363 . S
C2083 H2099 0.931 . S
C2084 C2083 1.370 . S
C2084 C2088 1.408 1_455 S
C2085 C2083 1.363 . S
C2085 C2086 1.370 . S
C2085 C2089 1.524 . S
C2086 C2078 1.503 . S
C2086 C2085 1.370 . S
C2086 C2087 1.403 1_455 S
C2087 C2086 1.403 1_655 S
C2087 C2088 1.404 . S
C2087 C2090 1.539 . S
C2088 C2084 1.408 1_655 S
C2088 C2087 1.404 . S
C2088 H2100 0.930 . S
C2089 C2085 1.524 . S
C2089 H2101 0.956 . S
C2089 H2102 0.961 . S
C2089 H2103 0.961 . S
C2090 C2087 1.539 . S
C2090 H2104 0.958 . S
C2090 H2105 0.961 . S
C2090 H2106 0.960 . S
H2091 C2075 0.931 . S
H2092 C2080 0.929 . S
H2093 C2081 0.960 . S
H2094 C2081 0.962 . S
H2095 C2081 0.960 . S
H2096 C2082 0.961 1_455 S
H2097 C2082 0.961 1_455 S
H2098 C2082 0.961 . S
H2099 C2083 0.931 . S
H2100 C2088 0.930 . S
H2101 C2089 0.956 . S
H2102 C2089 0.961 . S
H2103 C2089 0.961 . S
H2104 C2090 0.958 . S
H2105 C2090 0.961 . S
H2106 C2090 0.960 . S
C2107 C2108 1.391 . S
C2107 C2109 1.394 . S
C2107 H2123 0.931 . S
C2108 C2107 1.391 . S
C2108 C2112 1.376 . S
C2109 C2107 1.394 . S
C2109 C2110 1.369 . S
C2109 C2113 1.531 . S
C2110 C2109 1.369 . S
C2110 C2111 1.410 . S
C2110 C2118 1.503 . S
C2111 C2110 1.410 . S
C2111 C2112 1.392 . S
C2111 C2114 1.511 . S
C2112 C2108 1.376 . S
C2112 C2111 1.392 . S
C2112 H2124 0.929 . S
C2113 C2109 1.531 . S
C2113 H2125 0.960 . S
C2113 H2126 0.962 . S
C2113 H2127 0.960 . S
C2114 C2111 1.511 . S
C2114 H2128 0.961 . S
C2114 H2129 0.961 . S
C2114 H2130 0.961 . S
C2115 C2116 1.370 . S
C2115 C2117 1.363 . S
C2115 H2131 0.931 . S
C2116 C2115 1.370 . S
C2116 C2120 1.408 . S
C2117 C2115 1.363 . S
C2117 C2118 1.370 . S
C2117 C2121 1.524 . S
C2118 C2110 1.503 . S
C2118 C2117 1.370 . S
C2118 C2119 1.403 . S
C2119 C2118 1.403 . S
C2119 C2120 1.404 . S
C2119 C2122 1.539 . S
C2120 C2116 1.408 . S
C2120 C2119 1.404 . S
C2120 H2132 0.930 . S
C2121 C2117 1.524 . S
C2121 H2133 0.956 . S
C2121 H2134 0.961 . S
C2121 H2135 0.961 . S
C2122 C2119 1.539 . S
C2122 H2136 0.958 . S
C2122 H2137 0.961 . S
C2122 H2138 0.960 . S
H2123 C2107 0.931 . S
H2124 C2112 0.929 . S
H2125 C2113 0.960 . S
H2126 C2113 0.962 . S
H2127 C2113 0.960 . S
H2128 C2114 0.961 . S
H2129 C2114 0.961 . S
H2130 C2114 0.961 . S
H2131 C2115 0.931 . S
H2132 C2120 0.930 . S
H2133 C2121 0.956 . S
H2134 C2121 0.961 . S
H2135 C2121 0.961 . S
H2136 C2122 0.958 . S
H2137 C2122 0.961 . S
H2138 C2122 0.960 . S
C2139 C2140 1.391 . S
C2139 C2141 1.394 . S
C2139 H2155 0.931 . S
C2140 C2139 1.391 . S
C2140 C2144 1.376 . S
C2141 C2139 1.394 . S
C2141 C2142 1.369 . S
C2141 C2145 1.531 . S
C2142 C2141 1.369 . S
C2142 C2143 1.410 . S
C2142 C2150 1.503 . S
C2143 C2142 1.410 . S
C2143 C2144 1.392 . S
C2143 C2146 1.511 1_655 S
C2144 C2140 1.376 . S
C2144 C2143 1.392 . S
C2144 H2156 0.929 1_655 S
C2145 C2141 1.531 . S
C2145 H2157 0.960 . S
C2145 H2158 0.962 . S
C2145 H2159 0.960 . S
C2146 C2143 1.511 1_455 S
C2146 H2160 0.961 . S
C2146 H2161 0.961 . S
C2146 H2162 0.961 . S
C2147 C2148 1.370 . S
C2147 C2149 1.363 . S
C2147 H2163 0.931 . S
C2148 C2147 1.370 . S
C2148 C2152 1.408 1_655 S
C2149 C2147 1.363 . S
C2149 C2150 1.370 . S
C2149 C2153 1.524 . S
C2150 C2142 1.503 . S
C2150 C2149 1.370 . S
C2150 C2151 1.403 1_655 S
C2151 C2150 1.403 1_455 S
C2151 C2152 1.404 . S
C2151 C2154 1.539 . S
C2152 C2148 1.408 1_455 S
C2152 C2151 1.404 . S
C2152 H2164 0.930 . S
C2153 C2149 1.524 . S
C2153 H2165 0.956 . S
C2153 H2166 0.961 . S
C2153 H2167 0.961 . S
C2154 C2151 1.539 . S
C2154 H2168 0.958 . S
C2154 H2169 0.961 . S
C2154 H2170 0.960 . S
H2155 C2139 0.931 . S
H2156 C2144 0.929 1_455 S
H2157 C2145 0.960 . S
H2158 C2145 0.962 . S
H2159 C2145 0.960 . S
H2160 C2146 0.961 . S
H2161 C2146 0.961 . S
H2162 C2146 0.961 . S
H2163 C2147 0.931 . S
H2164 C2152 0.930 . S
H2165 C2153 0.956 . S
H2166 C2153 0.961 . S
H2167 C2153 0.961 . S
H2168 C2154 0.958 . S
H2169 C2154 0.961 . S
H2170 C2154 0.960 . S
C2171 C2172 1.391 . S
C2171 C2173 1.394 . S
C2171 H2187 0.931 . S
C2172 C2171 1.391 . S
C2172 C2176 1.376 . S
C2173 C2171 1.394 . S
C2173 C2174 1.369 . S
C2173 C2177 1.531 . S
C2174 C2173 1.369 . S
C2174 C2175 1.410 . S
C2174 C2182 1.503 . S
C2175 C2174 1.410 . S
C2175 C2176 1.392 . S
C2175 C2178 1.511 . S
C2176 C2172 1.376 . S
C2176 C2175 1.392 . S
C2176 H2188 0.929 . S
C2177 C2173 1.531 . S
C2177 H2189 0.960 . S
C2177 H2190 0.962 . S
C2177 H2191 0.960 . S
C2178 C2175 1.511 . S
C2178 H2192 0.961 . S
C2178 H2193 0.961 . S
C2178 H2194 0.961 . S
C2179 C2180 1.370 . S
C2179 C2181 1.363 . S
C2179 H2195 0.931 . S
C2180 C2179 1.370 . S
C2180 C2184 1.408 . S
C2181 C2179 1.363 . S
C2181 C2182 1.370 . S
C2181 C2185 1.524 . S
C2182 C2174 1.503 . S
C2182 C2181 1.370 . S
C2182 C2183 1.403 . S
C2183 C2182 1.403 . S
C2183 C2184 1.404 . S
C2183 C2186 1.539 . S
C2184 C2180 1.408 . S
C2184 C2183 1.404 . S
C2184 H2196 0.930 . S
C2185 C2181 1.524 . S
C2185 H2197 0.956 . S
C2185 H2198 0.961 . S
C2185 H2199 0.961 . S
C2186 C2183 1.539 . S
C2186 H2200 0.958 . S
C2186 H2201 0.961 . S
C2186 H2202 0.960 . S
H2187 C2171 0.931 . S
H2188 C2176 0.929 . S
H2189 C2177 0.960 . S
H2190 C2177 0.962 . S
H2191 C2177 0.960 . S
H2192 C2178 0.961 . S
H2193 C2178 0.961 . S
H2194 C2178 0.961 . S
H2195 C2179 0.931 . S
H2196 C2184 0.930 . S
H2197 C2185 0.956 . S
H2198 C2185 0.961 . S
H2199 C2185 0.961 . S
H2200 C2186 0.958 . S
H2201 C2186 0.961 . S
H2202 C2186 0.960 . S
C2203 C2204 1.391 . S
C2203 C2205 1.394 . S
C2203 H2219 0.931 . S
C2204 C2203 1.391 . S
C2204 C2208 1.376 . S
C2205 C2203 1.394 . S
C2205 C2206 1.369 . S
C2205 C2209 1.531 1_545 S
C2206 C2205 1.369 . S
C2206 C2207 1.410 . S
C2206 C2214 1.503 . S
C2207 C2206 1.410 . S
C2207 C2208 1.392 . S
C2207 C2210 1.511 . S
C2208 C2204 1.376 . S
C2208 C2207 1.392 . S
C2208 H2220 0.929 . S
C2209 C2205 1.531 1_565 S
C2209 H2221 0.960 . S
C2209 H2222 0.962 . S
C2209 H2223 0.960 . S
C2210 C2207 1.511 . S
C2210 H2224 0.961 . S
C2210 H2225 0.961 . S
C2210 H2226 0.961 . S
C2211 C2212 1.370 . S
C2211 C2213 1.363 . S
C2211 H2227 0.931 . S
C2212 C2211 1.370 . S
C2212 C2216 1.408 1_545 S
C2213 C2211 1.363 . S
C2213 C2214 1.370 . S
C2213 C2217 1.524 . S
C2214 C2206 1.503 . S
C2214 C2213 1.370 . S
C2214 C2215 1.403 1_545 S
C2215 C2214 1.403 1_565 S
C2215 C2216 1.404 . S
C2215 C2218 1.539 . S
C2216 C2212 1.408 1_565 S
C2216 C2215 1.404 . S
C2216 H2228 0.930 . S
C2217 C2213 1.524 . S
C2217 H2229 0.956 . S
C2217 H2230 0.961 . S
C2217 H2231 0.961 . S
C2218 C2215 1.539 . S
C2218 H2232 0.958 . S
C2218 H2233 0.961 . S
C2218 H2234 0.960 . S
H2219 C2203 0.931 . S
H2220 C2208 0.929 . S
H2221 C2209 0.960 . S
H2222 C2209 0.962 . S
H2223 C2209 0.960 . S
H2224 C2210 0.961 . S
H2225 C2210 0.961 . S
H2226 C2210 0.961 . S
H2227 C2211 0.931 . S
H2228 C2216 0.930 . S
H2229 C2217 0.956 . S
H2230 C2217 0.961 . S
H2231 C2217 0.961 . S
H2232 C2218 0.958 . S
H2233 C2218 0.961 . S
H2234 C2218 0.960 . S
C2235 C2236 1.391 . S
C2235 C2237 1.394 . S
C2235 H2251 0.931 . S
C2236 C2235 1.391 . S
C2236 C2240 1.376 . S
C2237 C2235 1.394 . S
C2237 C2238 1.369 . S
C2237 C2241 1.531 . S
C2238 C2237 1.369 . S
C2238 C2239 1.410 . S
C2238 C2246 1.503 . S
C2239 C2238 1.410 . S
C2239 C2240 1.392 . S
C2239 C2242 1.511 . S
C2240 C2236 1.376 . S
C2240 C2239 1.392 . S
C2240 H2252 0.929 . S
C2241 C2237 1.531 . S
C2241 H2253 0.960 . S
C2241 H2254 0.962 . S
C2241 H2255 0.960 . S
C2242 C2239 1.511 . S
C2242 H2256 0.961 . S
C2242 H2257 0.961 . S
C2242 H2258 0.961 . S
C2243 C2244 1.370 . S
C2243 C2245 1.363 . S
C2243 H2259 0.931 . S
C2244 C2243 1.370 . S
C2244 C2248 1.408 . S
C2245 C2243 1.363 . S
C2245 C2246 1.370 . S
C2245 C2249 1.524 . S
C2246 C2238 1.503 . S
C2246 C2245 1.370 . S
C2246 C2247 1.403 . S
C2247 C2246 1.403 . S
C2247 C2248 1.404 . S
C2247 C2250 1.539 . S
C2248 C2244 1.408 . S
C2248 C2247 1.404 . S
C2248 H2260 0.930 . S
C2249 C2245 1.524 . S
C2249 H2261 0.956 . S
C2249 H2262 0.961 . S
C2249 H2263 0.961 . S
C2250 C2247 1.539 . S
C2250 H2264 0.958 . S
C2250 H2265 0.961 . S
C2250 H2266 0.960 . S
H2251 C2235 0.931 . S
H2252 C2240 0.929 . S
H2253 C2241 0.960 . S
H2254 C2241 0.962 . S
H2255 C2241 0.960 . S
H2256 C2242 0.961 . S
H2257 C2242 0.961 . S
H2258 C2242 0.961 . S
H2259 C2243 0.931 . S
H2260 C2248 0.930 . S
H2261 C2249 0.956 . S
H2262 C2249 0.961 . S
H2263 C2249 0.961 . S
H2264 C2250 0.958 . S
H2265 C2250 0.961 . S
H2266 C2250 0.960 . S
C2267 C2268 1.391 . S
C2267 C2269 1.394 . S
C2267 H2283 0.931 . S
C2268 C2267 1.391 . S
C2268 C2272 1.376 . S
C2269 C2267 1.394 . S
C2269 C2270 1.369 . S
C2269 C2273 1.531 . S
C2270 C2269 1.369 . S
C2270 C2271 1.410 . S
C2270 C2278 1.503 . S
C2271 C2270 1.410 . S
C2271 C2272 1.392 . S
C2271 C2274 1.511 . S
C2272 C2268 1.376 . S
C2272 C2271 1.392 . S
C2272 H2284 0.929 . S
C2273 C2269 1.531 . S
C2273 H2285 0.960 . S
C2273 H2286 0.962 . S
C2273 H2287 0.960 . S
C2274 C2271 1.511 . S
C2274 H2288 0.961 . S
C2274 H2289 0.961 . S
C2274 H2290 0.961 . S
C2275 C2276 1.370 . S
C2275 C2277 1.363 . S
C2275 H2291 0.931 . S
C2276 C2275 1.370 . S
C2276 C2280 1.408 . S
C2277 C2275 1.363 . S
C2277 C2278 1.370 . S
C2277 C2281 1.524 . S
C2278 C2270 1.503 . S
C2278 C2277 1.370 . S
C2278 C2279 1.403 . S
C2279 C2278 1.403 . S
C2279 C2280 1.404 . S
C2279 C2282 1.539 . S
C2280 C2276 1.408 . S
C2280 C2279 1.404 . S
C2280 H2292 0.930 . S
C2281 C2277 1.524 . S
C2281 H2293 0.956 . S
C2281 H2294 0.961 . S
C2281 H2295 0.961 . S
C2282 C2279 1.539 . S
C2282 H2296 0.958 . S
C2282 H2297 0.961 . S
C2282 H2298 0.960 . S
H2283 C2267 0.931 . S
H2284 C2272 0.929 . S
H2285 C2273 0.960 . S
H2286 C2273 0.962 . S
H2287 C2273 0.960 . S
H2288 C2274 0.961 . S
H2289 C2274 0.961 . S
H2290 C2274 0.961 . S
H2291 C2275 0.931 . S
H2292 C2280 0.930 . S
H2293 C2281 0.956 . S
H2294 C2281 0.961 . S
H2295 C2281 0.961 . S
H2296 C2282 0.958 . S
H2297 C2282 0.961 . S
H2298 C2282 0.960 . S
C2299 C2300 1.391 . S
C2299 C2301 1.394 . S
C2299 H2315 0.931 . S
C2300 C2299 1.391 . S
C2300 C2304 1.376 . S
C2301 C2299 1.394 . S
C2301 C2302 1.369 . S
C2301 C2305 1.531 . S
C2302 C2301 1.369 . S
C2302 C2303 1.410 . S
C2302 C2310 1.503 . S
C2303 C2302 1.410 . S
C2303 C2304 1.392 . S
C2303 C2306 1.511 . S
C2304 C2300 1.376 . S
C2304 C2303 1.392 . S
C2304 H2316 0.929 . S
C2305 C2301 1.531 . S
C2305 H2317 0.960 . S
C2305 H2318 0.962 . S
C2305 H2319 0.960 . S
C2306 C2303 1.511 . S
C2306 H2320 0.961 . S
C2306 H2321 0.961 . S
C2306 H2322 0.961 . S
C2307 C2308 1.370 . S
C2307 C2309 1.363 . S
C2307 H2323 0.931 . S
C2308 C2307 1.370 . S
C2308 C2312 1.408 . S
C2309 C2307 1.363 . S
C2309 C2310 1.370 . S
C2309 C2313 1.524 . S
C2310 C2302 1.503 . S
C2310 C2309 1.370 . S
C2310 C2311 1.403 . S
C2311 C2310 1.403 . S
C2311 C2312 1.404 . S
C2311 C2314 1.539 . S
C2312 C2308 1.408 . S
C2312 C2311 1.404 . S
C2312 H2324 0.930 . S
C2313 C2309 1.524 . S
C2313 H2325 0.956 . S
C2313 H2326 0.961 . S
C2313 H2327 0.961 . S
C2314 C2311 1.539 . S
C2314 H2328 0.958 . S
C2314 H2329 0.961 . S
C2314 H2330 0.960 . S
H2315 C2299 0.931 . S
H2316 C2304 0.929 . S
H2317 C2305 0.960 . S
H2318 C2305 0.962 . S
H2319 C2305 0.960 . S
H2320 C2306 0.961 . S
H2321 C2306 0.961 . S
H2322 C2306 0.961 . S
H2323 C2307 0.931 . S
H2324 C2312 0.930 . S
H2325 C2313 0.956 . S
H2326 C2313 0.961 . S
H2327 C2313 0.961 . S
H2328 C2314 0.958 . S
H2329 C2314 0.961 . S
H2330 C2314 0.960 . S
C2331 C2332 1.391 . S
C2331 C2333 1.394 . S
C2331 H2347 0.931 . S
C2332 C2331 1.391 . S
C2332 C2336 1.376 . S
C2333 C2331 1.394 . S
C2333 C2334 1.369 . S
C2333 C2337 1.531 . S
C2334 C2333 1.369 . S
C2334 C2335 1.410 . S
C2334 C2342 1.503 . S
C2335 C2334 1.410 . S
C2335 C2336 1.392 . S
C2335 C2338 1.511 . S
C2336 C2332 1.376 . S
C2336 C2335 1.392 . S
C2336 H2348 0.929 . S
C2337 C2333 1.531 . S
C2337 H2349 0.960 . S
C2337 H2350 0.962 . S
C2337 H2351 0.960 . S
C2338 C2335 1.511 . S
C2338 H2352 0.961 . S
C2338 H2353 0.961 . S
C2338 H2354 0.961 . S
C2339 C2340 1.370 . S
C2339 C2341 1.363 . S
C2339 H2355 0.931 . S
C2340 C2339 1.370 . S
C2340 C2344 1.408 . S
C2341 C2339 1.363 . S
C2341 C2342 1.370 . S
C2341 C2345 1.524 . S
C2342 C2334 1.503 . S
C2342 C2341 1.370 . S
C2342 C2343 1.403 . S
C2343 C2342 1.403 . S
C2343 C2344 1.404 . S
C2343 C2346 1.539 . S
C2344 C2340 1.408 . S
C2344 C2343 1.404 . S
C2344 H2356 0.930 . S
C2345 C2341 1.524 . S
C2345 H2357 0.956 . S
C2345 H2358 0.961 . S
C2345 H2359 0.961 . S
C2346 C2343 1.539 . S
C2346 H2360 0.958 . S
C2346 H2361 0.961 . S
C2346 H2362 0.960 . S
H2347 C2331 0.931 . S
H2348 C2336 0.929 . S
H2349 C2337 0.960 . S
H2350 C2337 0.962 . S
H2351 C2337 0.960 . S
H2352 C2338 0.961 . S
H2353 C2338 0.961 . S
H2354 C2338 0.961 . S
H2355 C2339 0.931 . S
H2356 C2344 0.930 . S
H2357 C2345 0.956 . S
H2358 C2345 0.961 . S
H2359 C2345 0.961 . S
H2360 C2346 0.958 . S
H2361 C2346 0.961 . S
H2362 C2346 0.960 . S
C2363 C2364 1.391 . S
C2363 C2365 1.394 . S
C2363 H2379 0.931 . S
C2364 C2363 1.391 . S
C2364 C2368 1.376 . S
C2365 C2363 1.394 . S
C2365 C2366 1.369 . S
C2365 C2369 1.531 . S
C2366 C2365 1.369 . S
C2366 C2367 1.410 . S
C2366 C2374 1.503 . S
C2367 C2366 1.410 . S
C2367 C2368 1.392 . S
C2367 C2370 1.511 . S
C2368 C2364 1.376 . S
C2368 C2367 1.392 . S
C2368 H2380 0.929 . S
C2369 C2365 1.531 . S
C2369 H2381 0.960 . S
C2369 H2382 0.962 . S
C2369 H2383 0.960 . S
C2370 C2367 1.511 . S
C2370 H2384 0.961 . S
C2370 H2385 0.961 . S
C2370 H2386 0.961 . S
C2371 C2372 1.370 . S
C2371 C2373 1.363 . S
C2371 H2387 0.931 . S
C2372 C2371 1.370 . S
C2372 C2376 1.408 . S
C2373 C2371 1.363 . S
C2373 C2374 1.370 . S
C2373 C2377 1.524 . S
C2374 C2366 1.503 . S
C2374 C2373 1.370 . S
C2374 C2375 1.403 . S
C2375 C2374 1.403 . S
C2375 C2376 1.404 . S
C2375 C2378 1.539 . S
C2376 C2372 1.408 . S
C2376 C2375 1.404 . S
C2376 H2388 0.930 . S
C2377 C2373 1.524 . S
C2377 H2389 0.956 . S
C2377 H2390 0.961 . S
C2377 H2391 0.961 . S
C2378 C2375 1.539 . S
C2378 H2392 0.958 . S
C2378 H2393 0.961 . S
C2378 H2394 0.960 . S
H2379 C2363 0.931 . S
H2380 C2368 0.929 . S
H2381 C2369 0.960 . S
H2382 C2369 0.962 . S
H2383 C2369 0.960 . S
H2384 C2370 0.961 . S
H2385 C2370 0.961 . S
H2386 C2370 0.961 . S
H2387 C2371 0.931 . S
H2388 C2376 0.930 . S
H2389 C2377 0.956 . S
H2390 C2377 0.961 . S
H2391 C2377 0.961 . S
H2392 C2378 0.958 . S
H2393 C2378 0.961 . S
H2394 C2378 0.960 . S
C2395 C2396 1.391 . S
C2395 C2397 1.394 . S
C2395 H2411 0.931 . S
C2396 C2395 1.391 . S
C2396 C2400 1.376 . S
C2397 C2395 1.394 . S
C2397 C2398 1.369 . S
C2397 C2401 1.531 . S
C2398 C2397 1.369 . S
C2398 C2399 1.410 . S
C2398 C2406 1.503 . S
C2399 C2398 1.410 . S
C2399 C2400 1.392 . S
C2399 C2402 1.511 . S
C2400 C2396 1.376 . S
C2400 C2399 1.392 . S
C2400 H2412 0.929 . S
C2401 C2397 1.531 . S
C2401 H2413 0.960 . S
C2401 H2414 0.962 . S
C2401 H2415 0.960 . S
C2402 C2399 1.511 . S
C2402 H2416 0.961 . S
C2402 H2417 0.961 . S
C2402 H2418 0.961 . S
C2403 C2404 1.370 . S
C2403 C2405 1.363 . S
C2403 H2419 0.931 . S
C2404 C2403 1.370 . S
C2404 C2408 1.408 . S
C2405 C2403 1.363 . S
C2405 C2406 1.370 . S
C2405 C2409 1.524 . S
C2406 C2398 1.503 . S
C2406 C2405 1.370 . S
C2406 C2407 1.403 . S
C2407 C2406 1.403 . S
C2407 C2408 1.404 . S
C2407 C2410 1.539 . S
C2408 C2404 1.408 . S
C2408 C2407 1.404 . S
C2408 H2420 0.930 . S
C2409 C2405 1.524 . S
C2409 H2421 0.956 . S
C2409 H2422 0.961 . S
C2409 H2423 0.961 . S
C2410 C2407 1.539 . S
C2410 H2424 0.958 . S
C2410 H2425 0.961 . S
C2410 H2426 0.960 . S
H2411 C2395 0.931 . S
H2412 C2400 0.929 . S
H2413 C2401 0.960 . S
H2414 C2401 0.962 . S
H2415 C2401 0.960 . S
H2416 C2402 0.961 . S
H2417 C2402 0.961 . S
H2418 C2402 0.961 . S
H2419 C2403 0.931 . S
H2420 C2408 0.930 . S
H2421 C2409 0.956 . S
H2422 C2409 0.961 . S
H2423 C2409 0.961 . S
H2424 C2410 0.958 . S
H2425 C2410 0.961 . S
H2426 C2410 0.960 . S
C2427 C2428 1.391 . S
C2427 C2429 1.394 . S
C2427 H2443 0.931 . S
C2428 C2427 1.391 . S
C2428 C2432 1.376 . S
C2429 C2427 1.394 . S
C2429 C2430 1.369 . S
C2429 C2433 1.531 . S
C2430 C2429 1.369 . S
C2430 C2431 1.410 . S
C2430 C2438 1.503 . S
C2431 C2430 1.410 . S
C2431 C2432 1.392 . S
C2431 C2434 1.511 . S
C2432 C2428 1.376 . S
C2432 C2431 1.392 . S
C2432 H2444 0.929 . S
C2433 C2429 1.531 . S
C2433 H2445 0.960 . S
C2433 H2446 0.962 . S
C2433 H2447 0.960 . S
C2434 C2431 1.511 . S
C2434 H2448 0.961 . S
C2434 H2449 0.961 . S
C2434 H2450 0.961 . S
C2435 C2436 1.370 . S
C2435 C2437 1.363 . S
C2435 H2451 0.931 . S
C2436 C2435 1.370 . S
C2436 C2440 1.408 . S
C2437 C2435 1.363 . S
C2437 C2438 1.370 . S
C2437 C2441 1.524 . S
C2438 C2430 1.503 . S
C2438 C2437 1.370 . S
C2438 C2439 1.403 . S
C2439 C2438 1.403 . S
C2439 C2440 1.404 . S
C2439 C2442 1.539 . S
C2440 C2436 1.408 . S
C2440 C2439 1.404 . S
C2440 H2452 0.930 . S
C2441 C2437 1.524 . S
C2441 H2453 0.956 . S
C2441 H2454 0.961 . S
C2441 H2455 0.961 . S
C2442 C2439 1.539 . S
C2442 H2456 0.958 . S
C2442 H2457 0.961 . S
C2442 H2458 0.960 . S
H2443 C2427 0.931 . S
H2444 C2432 0.929 . S
H2445 C2433 0.960 . S
H2446 C2433 0.962 . S
H2447 C2433 0.960 . S
H2448 C2434 0.961 . S
H2449 C2434 0.961 . S
H2450 C2434 0.961 . S
H2451 C2435 0.931 . S
H2452 C2440 0.930 . S
H2453 C2441 0.956 . S
H2454 C2441 0.961 . S
H2455 C2441 0.961 . S
H2456 C2442 0.958 . S
H2457 C2442 0.961 . S
H2458 C2442 0.960 . S
C2459 C2460 1.391 . S
C2459 C2461 1.394 . S
C2459 H2475 0.931 . S
C2460 C2459 1.391 . S
C2460 C2464 1.376 . S
C2461 C2459 1.394 . S
C2461 C2462 1.369 . S
C2461 C2465 1.531 . S
C2462 C2461 1.369 . S
C2462 C2463 1.410 . S
C2462 C2470 1.503 . S
C2463 C2462 1.410 . S
C2463 C2464 1.392 . S
C2463 C2466 1.511 . S
C2464 C2460 1.376 . S
C2464 C2463 1.392 . S
C2464 H2476 0.929 . S
C2465 C2461 1.531 . S
C2465 H2477 0.960 . S
C2465 H2478 0.962 . S
C2465 H2479 0.960 . S
C2466 C2463 1.511 . S
C2466 H2480 0.961 . S
C2466 H2481 0.961 . S
C2466 H2482 0.961 . S
C2467 C2468 1.370 . S
C2467 C2469 1.363 . S
C2467 H2483 0.931 . S
C2468 C2467 1.370 . S
C2468 C2472 1.408 . S
C2469 C2467 1.363 . S
C2469 C2470 1.370 . S
C2469 C2473 1.524 . S
C2470 C2462 1.503 . S
C2470 C2469 1.370 . S
C2470 C2471 1.403 . S
C2471 C2470 1.403 . S
C2471 C2472 1.404 . S
C2471 C2474 1.539 . S
C2472 C2468 1.408 . S
C2472 C2471 1.404 . S
C2472 H2484 0.930 . S
C2473 C2469 1.524 . S
C2473 H2485 0.956 . S
C2473 H2486 0.961 . S
C2473 H2487 0.961 . S
C2474 C2471 1.539 . S
C2474 H2488 0.958 . S
C2474 H2489 0.961 . S
C2474 H2490 0.960 . S
H2475 C2459 0.931 . S
H2476 C2464 0.929 . S
H2477 C2465 0.960 . S
H2478 C2465 0.962 . S
H2479 C2465 0.960 . S
H2480 C2466 0.961 . S
H2481 C2466 0.961 . S
H2482 C2466 0.961 . S
H2483 C2467 0.931 . S
H2484 C2472 0.930 . S
H2485 C2473 0.956 . S
H2486 C2473 0.961 . S
H2487 C2473 0.961 . S
H2488 C2474 0.958 . S
H2489 C2474 0.961 . S
H2490 C2474 0.960 . S
C2491 C2492 1.391 . S
C2491 C2493 1.394 . S
C2491 H2507 0.931 . S
C2492 C2491 1.391 . S
C2492 C2496 1.376 . S
C2493 C2491 1.394 . S
C2493 C2494 1.369 . S
C2493 C2497 1.531 . S
C2494 C2493 1.369 . S
C2494 C2495 1.410 . S
C2494 C2502 1.503 . S
C2495 C2494 1.410 . S
C2495 C2496 1.392 . S
C2495 C2498 1.511 . S
C2496 C2492 1.376 . S
C2496 C2495 1.392 . S
C2496 H2508 0.929 . S
C2497 C2493 1.531 . S
C2497 H2509 0.960 . S
C2497 H2510 0.962 . S
C2497 H2511 0.960 . S
C2498 C2495 1.511 . S
C2498 H2512 0.961 . S
C2498 H2513 0.961 . S
C2498 H2514 0.961 . S
C2499 C2500 1.370 . S
C2499 C2501 1.363 . S
C2499 H2515 0.931 . S
C2500 C2499 1.370 . S
C2500 C2504 1.408 . S
C2501 C2499 1.363 . S
C2501 C2502 1.370 . S
C2501 C2505 1.524 . S
C2502 C2494 1.503 . S
C2502 C2501 1.370 . S
C2502 C2503 1.403 . S
C2503 C2502 1.403 . S
C2503 C2504 1.404 . S
C2503 C2506 1.539 . S
C2504 C2500 1.408 . S
C2504 C2503 1.404 . S
C2504 H2516 0.930 . S
C2505 C2501 1.524 . S
C2505 H2517 0.956 . S
C2505 H2518 0.961 . S
C2505 H2519 0.961 . S
C2506 C2503 1.539 . S
C2506 H2520 0.958 . S
C2506 H2521 0.961 . S
C2506 H2522 0.960 . S
H2507 C2491 0.931 . S
H2508 C2496 0.929 . S
H2509 C2497 0.960 . S
H2510 C2497 0.962 . S
H2511 C2497 0.960 . S
H2512 C2498 0.961 . S
H2513 C2498 0.961 . S
H2514 C2498 0.961 . S
H2515 C2499 0.931 . S
H2516 C2504 0.930 . S
H2517 C2505 0.956 . S
H2518 C2505 0.961 . S
H2519 C2505 0.961 . S
H2520 C2506 0.958 . S
H2521 C2506 0.961 . S
H2522 C2506 0.960 . S
C2523 C2524 1.391 . S
C2523 C2525 1.394 . S
C2523 H2539 0.931 . S
C2524 C2523 1.391 . S
C2524 C2528 1.376 . S
C2525 C2523 1.394 . S
C2525 C2526 1.369 . S
C2525 C2529 1.531 . S
C2526 C2525 1.369 . S
C2526 C2527 1.410 . S
C2526 C2534 1.503 . S
C2527 C2526 1.410 . S
C2527 C2528 1.392 . S
C2527 C2530 1.511 . S
C2528 C2524 1.376 . S
C2528 C2527 1.392 . S
C2528 H2540 0.929 . S
C2529 C2525 1.531 . S
C2529 H2541 0.960 . S
C2529 H2542 0.962 . S
C2529 H2543 0.960 . S
C2530 C2527 1.511 . S
C2530 H2544 0.961 . S
C2530 H2545 0.961 . S
C2530 H2546 0.961 . S
C2531 C2532 1.370 . S
C2531 C2533 1.363 . S
C2531 H2547 0.931 . S
C2532 C2531 1.370 . S
C2532 C2536 1.408 . S
C2533 C2531 1.363 . S
C2533 C2534 1.370 . S
C2533 C2537 1.524 . S
C2534 C2526 1.503 . S
C2534 C2533 1.370 . S
C2534 C2535 1.403 . S
C2535 C2534 1.403 . S
C2535 C2536 1.404 . S
C2535 C2538 1.539 . S
C2536 C2532 1.408 . S
C2536 C2535 1.404 . S
C2536 H2548 0.930 . S
C2537 C2533 1.524 . S
C2537 H2549 0.956 . S
C2537 H2550 0.961 . S
C2537 H2551 0.961 . S
C2538 C2535 1.539 . S
C2538 H2552 0.958 . S
C2538 H2553 0.961 . S
C2538 H2554 0.960 . S
H2539 C2523 0.931 . S
H2540 C2528 0.929 . S
H2541 C2529 0.960 . S
H2542 C2529 0.962 . S
H2543 C2529 0.960 . S
H2544 C2530 0.961 . S
H2545 C2530 0.961 . S
H2546 C2530 0.961 . S
H2547 C2531 0.931 . S
H2548 C2536 0.930 . S
H2549 C2537 0.956 . S
H2550 C2537 0.961 . S
H2551 C2537 0.961 . S
H2552 C2538 0.958 . S
H2553 C2538 0.961 . S
H2554 C2538 0.960 . S
C2555 C2556 1.391 . S
C2555 C2557 1.394 . S
C2555 H2571 0.931 . S
C2556 C2555 1.391 . S
C2556 C2560 1.376 . S
C2557 C2555 1.394 . S
C2557 C2558 1.369 . S
C2557 C2561 1.531 . S
C2558 C2557 1.369 . S
C2558 C2559 1.410 . S
C2558 C2566 1.503 . S
C2559 C2558 1.410 . S
C2559 C2560 1.392 . S
C2559 C2562 1.511 . S
C2560 C2556 1.376 . S
C2560 C2559 1.392 . S
C2560 H2572 0.929 . S
C2561 C2557 1.531 . S
C2561 H2573 0.960 . S
C2561 H2574 0.962 . S
C2561 H2575 0.960 . S
C2562 C2559 1.511 . S
C2562 H2576 0.961 . S
C2562 H2577 0.961 . S
C2562 H2578 0.961 . S
C2563 C2564 1.370 . S
C2563 C2565 1.363 . S
C2563 H2579 0.931 . S
C2564 C2563 1.370 . S
C2564 C2568 1.408 . S
C2565 C2563 1.363 . S
C2565 C2566 1.370 . S
C2565 C2569 1.524 . S
C2566 C2558 1.503 . S
C2566 C2565 1.370 . S
C2566 C2567 1.403 . S
C2567 C2566 1.403 . S
C2567 C2568 1.404 . S
C2567 C2570 1.539 . S
C2568 C2564 1.408 . S
C2568 C2567 1.404 . S
C2568 H2580 0.930 . S
C2569 C2565 1.524 . S
C2569 H2581 0.956 . S
C2569 H2582 0.961 . S
C2569 H2583 0.961 . S
C2570 C2567 1.539 . S
C2570 H2584 0.958 . S
C2570 H2585 0.961 . S
C2570 H2586 0.960 . S
H2571 C2555 0.931 . S
H2572 C2560 0.929 . S
H2573 C2561 0.960 . S
H2574 C2561 0.962 . S
H2575 C2561 0.960 . S
H2576 C2562 0.961 . S
H2577 C2562 0.961 . S
H2578 C2562 0.961 . S
H2579 C2563 0.931 . S
H2580 C2568 0.930 . S
H2581 C2569 0.956 . S
H2582 C2569 0.961 . S
H2583 C2569 0.961 . S
H2584 C2570 0.958 . S
H2585 C2570 0.961 . S
H2586 C2570 0.960 . S
C2587 C2588 1.391 . S
C2587 C2589 1.394 . S
C2587 H2603 0.931 . S
C2588 C2587 1.391 . S
C2588 C2592 1.376 . S
C2589 C2587 1.394 . S
C2589 C2590 1.369 . S
C2589 C2593 1.531 . S
C2590 C2589 1.369 . S
C2590 C2591 1.410 . S
C2590 C2598 1.503 . S
C2591 C2590 1.410 . S
C2591 C2592 1.392 . S
C2591 C2594 1.511 . S
C2592 C2588 1.376 . S
C2592 C2591 1.392 . S
C2592 H2604 0.929 . S
C2593 C2589 1.531 . S
C2593 H2605 0.960 . S
C2593 H2606 0.962 . S
C2593 H2607 0.960 . S
C2594 C2591 1.511 . S
C2594 H2608 0.961 . S
C2594 H2609 0.961 . S
C2594 H2610 0.961 . S
C2595 C2596 1.370 . S
C2595 C2597 1.363 . S
C2595 H2611 0.931 . S
C2596 C2595 1.370 . S
C2596 C2600 1.408 . S
C2597 C2595 1.363 . S
C2597 C2598 1.370 . S
C2597 C2601 1.524 . S
C2598 C2590 1.503 . S
C2598 C2597 1.370 . S
C2598 C2599 1.403 . S
C2599 C2598 1.403 . S
C2599 C2600 1.404 . S
C2599 C2602 1.539 . S
C2600 C2596 1.408 . S
C2600 C2599 1.404 . S
C2600 H2612 0.930 . S
C2601 C2597 1.524 . S
C2601 H2613 0.956 . S
C2601 H2614 0.961 . S
C2601 H2615 0.961 . S
C2602 C2599 1.539 . S
C2602 H2616 0.958 . S
C2602 H2617 0.961 . S
C2602 H2618 0.960 . S
H2603 C2587 0.931 . S
H2604 C2592 0.929 . S
H2605 C2593 0.960 . S
H2606 C2593 0.962 . S
H2607 C2593 0.960 . S
H2608 C2594 0.961 . S
H2609 C2594 0.961 . S
H2610 C2594 0.961 . S
H2611 C2595 0.931 . S
H2612 C2600 0.930 . S
H2613 C2601 0.956 . S
H2614 C2601 0.961 . S
H2615 C2601 0.961 . S
H2616 C2602 0.958 . S
H2617 C2602 0.961 . S
H2618 C2602 0.960 . S
C892 C528 1.445 . S
C900 C716 1.362 . S
C924 C562 1.470 . S
C932 C737 1.365 . S
C956 C484 1.370 . S
C964 C757 1.160 . S
C988 C445 1.420 . S
C996 C736 1.142 1_556 S
C1028 C758 1.414 . S
C1020 C367 1.464 . S
C1052 C411 1.416 . S
C1060 C715 1.137 1_556 S
C1092 C717 1.314 . S
C1084 C450 1.373 . S
C1124 C738 1.319 . S
C1116 C372 1.354 . S
C1148 C406 1.449 . S
C1156 C760 1.191 1_556 S
C1180 C523 1.358 . S
C1188 C739 1.195 . S
C1212 C567 1.352 . S
C1220 C759 1.308 . S
C1252 C718 1.191 . S
C1244 C489 1.414 . S
C1284 C779 1.356 . S
C1276 C60 1.448 . S
C1308 C94 1.447 . S
C1316 C800 1.374 . S
C1340 C16 1.343 . S
C1348 C820 1.187 . S
C1372 C679 1.415 . S
C1380 C799 1.147 . S
C1404 C601 1.494 . S
C1412 C821 1.392 . S
C1436 C645 1.378 . S
C1444 C778 1.189 . S
C1468 C684 1.402 . S
C1476 C780 1.305 . S
C1500 C606 1.354 . S
C1508 C801 1.330 . S
C1540 C823 1.195 . S
C1532 C640 1.429 . S
C1564 C55 1.404 . S
C1572 C802 1.147 . S
C1604 C822 1.276 . S
C1596 C99 1.333 . S
C1628 C21 1.419 . S
C1636 C781 1.185 . S
C1668 C842 1.343 . S
C1660 C294 1.445 . S
C1692 C328 1.472 . S
C1700 C863 1.366 . S
C1732 C883 1.129 . S
C1724 C250 1.390 . S
C1764 C862 1.200 . S
C1756 C211 1.372 . S
C1796 C884 1.394 . S
C1788 C133 1.488 . S
C1820 C177 1.371 . S
C1828 C841 1.193 . S
C1852 C216 1.398 . S
C1860 C843 1.341 . S
C1884 C138 1.386 . S
C1892 C864 1.340 . S
C1924 C886 1.214 . S
C1916 C172 1.428 . S
C1948 C289 1.389 . S
C1956 C865 1.169 . S
C1980 C333 1.339 . S
C1988 C885 1.273 . S
C2012 C255 1.390 . S
C2020 C844 1.205 . S
C2044 C586 1.409 . S
C2052 C720 1.370 1_565 S
C2084 C741 1.400 . S
C2076 C625 1.445 . S
C2108 C664 1.505 . S
C2116 C761 1.470 . S
C2140 C235 1.553 . S
C2148 C740 1.524 1_655 S
C2172 C274 1.439 . S
C2180 C762 1.410 . S
C2212 C719 1.489 . S
C2204 C313 1.529 . S
C2236 C118 1.416 . S
C2244 C783 1.376 . S
C2268 C157 1.424 . S
C2276 C804 1.406 . S
C2300 C196 1.502 . S
C2308 C824 1.491 . S
C2332 C469 1.537 . S
C2340 C803 1.512 . S
C2372 C825 1.408 . S
C2364 C508 1.456 . S
C2396 C547 1.503 . S
C2404 C782 1.505 . S
C2428 C352 1.436 . S
C2436 C846 1.392 . S
C2460 C391 1.446 . S
C2468 C867 1.405 . S
C2500 C887 1.480 . S
C2492 C430 1.486 . S
C2524 C1 1.543 . S
C2532 C866 1.510 . S
C2556 C40 1.448 . S
C2564 C888 1.400 . S
C2588 C79 1.503 . S
C2596 C845 1.504 . S
