# Generated by pormake.
# Topology tsx, (6,3)-cn, num edge types: 1
# Building blocks:
#     Node 0, Type 0, BuildingBlock: CIFDUS_clean_sbu_1, # of connection points: 6
#     Node 1, Type 0, BuildingBlock: CIFDUS_clean_sbu_1, # of connection points: 6
#     Node 2, Type 1, BuildingBlock: PAMTOO_clean_linker_0, # of connection points: 3
#     Node 3, Type 1, BuildingBlock: PAMTOO_clean_linker_0, # of connection points: 3
#     Node 4, Type 1, BuildingBlock: PAMTOO_clean_linker_0, # of connection points: 3
#     Node 5, Type 1, BuildingBlock: PAMTOO_clean_linker_0, # of connection points: 3
#     Edge 6, Type (0, 1), BuildingBlock: ZUJKAS_clean_linker_0, # of connection points: 2
#     Edge 7, Type (0, 1), BuildingBlock: ZUJKAS_clean_linker_0, # of connection points: 2
#     Edge 8, Type (0, 1), BuildingBlock: ZUJKAS_clean_linker_0, # of connection points: 2
#     Edge 9, Type (0, 1), BuildingBlock: ZUJKAS_clean_linker_0, # of connection points: 2
#     Edge 10, Type (0, 1), BuildingBlock: ZUJKAS_clean_linker_0, # of connection points: 2
#     Edge 11, Type (0, 1), BuildingBlock: ZUJKAS_clean_linker_0, # of connection points: 2
#     Edge 12, Type (0, 1), BuildingBlock: ZUJKAS_clean_linker_0, # of connection points: 2
#     Edge 13, Type (0, 1), BuildingBlock: ZUJKAS_clean_linker_0, # of connection points: 2
#     Edge 14, Type (0, 1), BuildingBlock: ZUJKAS_clean_linker_0, # of connection points: 2
#     Edge 15, Type (0, 1), BuildingBlock: ZUJKAS_clean_linker_0, # of connection points: 2
#     Edge 16, Type (0, 1), BuildingBlock: ZUJKAS_clean_linker_0, # of connection points: 2
#     Edge 17, Type (0, 1), BuildingBlock: ZUJKAS_clean_linker_0, # of connection points: 2
# Relax obj value: 0.124
# Max RMSD: 0.146
# Mean RMSD: 0.138
data_MOF--net-tsx--node1-CIFDUS_clean_sbu_1--node2-PAMTOO_clean_linker_0--edge1-ZUJKAS_clean_linker_0
_symmetry_space_group_name_H-M    P1
_symmetry_Int_Tables_number       1
_symmetry_cell_setting            triclinic
loop_
_symmetry_equiv_pos_as_xyz
'x, y, z'
_cell_length_a     24.445568
_cell_length_b     29.277079
_cell_length_c     44.073867
_cell_angle_alpha  89.006389
_cell_angle_beta   90.588127
_cell_angle_gamma 90.828521
loop_
_atom_site_label
_atom_site_type_symbol
_atom_site_fract_x
_atom_site_fract_y
_atom_site_fract_z
_atom_type_partial_charge
O0 O 0.01379 0.09762 0.00399 0.0
Mn1 Mn 0.06281 0.03916 0.00368 0.0
O2 O 0.94668 0.08333 0.96997 0.0
Mn3 Mn 0.96733 0.02478 0.9607 0.0
O4 O 0.11111 0.97943 0.00186 0.0
O5 O 0.12797 0.08101 0.01521 0.0
Mn6 Mn 0.16451 0.04681 0.042 0.0
O7 O 0.04339 0.02675 0.04944 0.0
O8 O 0.1918 0.99716 0.023 0.0
O9 O 0.08349 0.05183 0.95766 0.0
O10 O 0.01642 0.02006 0.92997 0.0
O11 O 0.20445 0.0989 0.04013 0.0
O12 O 0.12215 0.03472 0.07558 0.0
C13 C 0.95583 0.96937 0.9907 0.0
C14 C 0.97084 0.10945 0.98882 0.0
C15 C 0.16141 0.97011 0.00807 0.0
C16 C 0.16727 0.11083 0.0205 0.0
C17 C 0.07108 0.02642 0.07436 0.0
C18 C 0.06378 0.03773 0.93225 0.0
O19 O 0.9962 0.99877 0.99348 0.0
O20 O 0.9221 0.97653 0.96833 0.0
O21 O 0.51789 0.60224 0.50754 0.0
Mn22 Mn 0.5605 0.54012 0.503 0.0
O23 O 0.4302 0.5866 0.49935 0.0
Mn24 Mn 0.45104 0.53992 0.47534 0.0
O25 O 0.60593 0.47907 0.49794 0.0
O26 O 0.6289 0.57948 0.51054 0.0
Mn27 Mn 0.67201 0.54554 0.53387 0.0
O28 O 0.55155 0.52797 0.54972 0.0
O29 O 0.69198 0.49605 0.51205 0.0
O30 O 0.56942 0.55259 0.45633 0.0
O31 O 0.48316 0.55667 0.43903 0.0
O32 O 0.71011 0.59881 0.52862 0.0
O33 O 0.6363 0.53294 0.56995 0.0
C34 C 0.44734 0.4737 0.49141 0.0
C35 C 0.46738 0.61341 0.5084 0.0
C36 C 0.65719 0.46923 0.50003 0.0
C37 C 0.66763 0.61042 0.51265 0.0
C38 C 0.58493 0.52637 0.57242 0.0
C39 C 0.53446 0.55952 0.43485 0.0
O40 O 0.49123 0.49943 0.49592 0.0
O41 O 0.40719 0.49086 0.47572 0.0
H42 H 0.12645 0.94915 0.39658 0.0
H43 H 0.01297 0.05989 0.40022 0.0
H44 H 0.0769 1.00127 0.48282 0.0
H45 H 0.95422 0.03385 0.48629 0.0
C46 C 0.95665 0.05381 0.46481 0.0
O47 O 0.01109 0.06331 0.45877 0.0
H48 H 0.93825 0.03246 0.44654 0.0
C49 C 0.10231 0.97243 0.40961 0.0
C50 C 0.1058 0.97092 0.4415 0.0
C51 C 0.06911 0.00434 0.39433 0.0
C52 C 0.03969 0.03549 0.41139 0.0
C53 C 0.04218 0.03422 0.44309 0.0
C54 C 0.07546 0.00218 0.45823 0.0
H55 H 0.1006 0.13994 0.61358 0.0
H56 H 0.97458 0.03649 0.60799 0.0
H57 H 0.04309 0.09453 0.52626 0.0
H58 H 0.90881 0.06751 0.52793 0.0
C59 C 0.91617 0.04055 0.54539 0.0
O60 O 0.97187 0.03429 0.54908 0.0
H61 H 0.89837 0.05218 0.56705 0.0
C62 C 0.07311 0.11893 0.60008 0.0
C63 C 0.07681 0.12078 0.56831 0.0
C64 C 0.03622 0.08905 0.6147 0.0
C65 C 1.00265 0.06045 0.59711 0.0
C66 C 1.00407 0.06308 0.56534 0.0
C67 C 0.04082 0.09364 0.55081 0.0
H68 H 0.62979 0.45141 0.89666 0.0
H69 H 0.51748 0.56267 0.90126 0.0
H70 H 0.5798 0.50154 0.98345 0.0
H71 H 0.4562 0.53481 0.98624 0.0
C72 C 0.46 0.55542 0.96511 0.0
O73 O 0.5148 0.56447 0.95985 0.0
H74 H 0.44205 0.53483 0.94632 0.0
C75 C 0.60579 0.47439 0.90999 0.0
C76 C 0.60912 0.47208 0.94191 0.0
C77 C 0.5729 0.5068 0.895 0.0
C78 C 0.54379 0.5378 0.91228 0.0
C79 C 0.54593 0.53568 0.94397 0.0
C80 C 0.57874 0.50306 0.95887 0.0
H81 H 0.60077 0.63733 0.11662 0.0
H82 H 0.48741 0.52598 0.10444 0.0
H83 H 0.53881 0.60683 0.02707 0.0
H84 H 0.4091 0.57084 0.02979 0.0
C85 C 0.41983 0.54186 0.04522 0.0
O86 O 0.47615 0.53737 0.04594 0.0
H87 H 0.40427 0.54965 0.06818 0.0
C88 C 0.57496 0.61719 0.10161 0.0
C89 C 0.57372 0.62709 0.07033 0.0
C90 C 0.54396 0.58114 0.11393 0.0
C91 C 0.5115 0.55402 0.09496 0.0
C92 C 0.50884 0.56361 0.06372 0.0
C93 C 0.54034 0.59994 0.05126 0.0
H94 H 0.25309 0.14053 0.98866 0.0
H95 H 0.28562 0.21913 0.98608 0.0
H96 H 0.12972 0.26437 0.01851 0.0
H97 H 0.09851 0.18428 0.02323 0.0
H98 H 0.27046 0.29555 0.9624 0.0
H99 H 0.21978 0.3142 0.08426 0.0
H100 H 0.20955 0.261 0.06502 0.0
H101 H 0.16108 0.30646 0.06016 0.0
C102 C 0.22492 0.16737 0.99411 0.0
C103 C 0.17328 0.15633 0.00603 0.0
C104 C 0.24377 0.21252 0.99292 0.0
C105 C 0.21115 0.24802 0.00329 0.0
C106 C 0.15673 0.23759 0.01162 0.0
H107 H 0.3281 0.53269 0.00972 0.0
H108 H 0.27696 0.46262 0.99727 0.0
C109 C 0.13817 0.19189 0.01346 0.0
C110 C 0.2367 0.29434 0.00745 0.0
H111 H 0.26563 0.37571 0.06049 0.0
C112 C 0.26888 0.31307 0.98384 0.0
C113 C 0.23574 0.31733 0.03561 0.0
C114 C 0.20515 0.29858 0.06279 0.0
C115 C 0.3006 0.35303 0.98775 0.0
C116 C 0.2992 0.37572 0.01569 0.0
C117 C 0.26633 0.35804 0.03907 0.0
C118 C 0.3324 0.41759 0.0213 0.0
C119 C 0.33718 0.36999 0.96249 0.0
C120 C 0.38056 0.41534 0.03885 0.0
C121 C 0.41005 0.45528 0.0458 0.0
C122 C 0.39195 0.49812 0.03514 0.0
C123 C 0.34376 0.5001 0.01751 0.0
C124 C 0.31442 0.46018 0.01051 0.0
H125 H 0.33563 0.34727 0.94256 0.0
H126 H 0.32477 0.4048 0.95511 0.0
H127 H 0.38011 0.37242 0.97088 0.0
H128 H 0.39481 0.38274 0.04757 0.0
H129 H 0.44636 0.45278 0.05998 0.0
H130 H 0.26955 0.95113 0.00685 0.0
H131 H 0.3128 0.87872 -0.00215 0.0
H132 H 0.15511 0.81621 0.98041 0.0
H133 H 0.11055 0.88971 0.98952 0.0
H134 H 0.29293 0.79747 0.03173 0.0
H135 H 0.25151 0.77629 0.9083 0.0
H136 H 0.24661 0.83085 0.92652 0.0
H137 H 0.19387 0.78829 0.93181 0.0
C138 C 0.24363 0.92225 0.00091 0.0
C139 C 0.18628 0.92632 -0.00085 0.0
C140 C 0.26869 0.88075 0.99576 0.0
C141 C 0.23736 0.84205 0.98846 0.0
C142 C 0.18014 0.84587 0.98573 0.0
H143 H 0.35108 0.5661 0.95487 0.0
H144 H 0.29553 0.63411 0.96148 0.0
C145 C 0.15472 0.88782 0.99094 0.0
C146 C 0.26549 0.79777 0.98515 0.0
H147 H 0.30143 0.71842 0.93333 0.0
C148 C 0.29452 0.77999 0.01026 0.0
C149 C 0.26765 0.77514 0.95713 0.0
C150 C 0.23864 0.79357 0.92925 0.0
C151 C 0.32578 0.74031 0.00811 0.0
C152 C 0.32907 0.71823 0.97989 0.0
C153 C 0.29912 0.73548 0.95492 0.0
C154 C 0.36328 0.6772 0.97579 0.0
C155 C 0.35447 0.72215 0.03621 0.0
C156 C 0.42002 0.67884 0.98135 0.0
C157 C 0.45183 0.63994 0.97764 0.0
C158 C 0.42762 0.59885 0.96772 0.0
C159 C 0.37094 0.59747 0.96206 0.0
C160 C 0.33917 0.63625 0.96588 0.0
H161 H 0.33572 0.73495 0.05724 0.0
H162 H 0.35345 0.68422 0.03705 0.0
H163 H 0.3979 0.73372 0.036 0.0
H164 H 0.43977 0.71027 0.98848 0.0
H165 H 0.49527 0.64214 0.98246 0.0
H166 H 0.90696 0.97025 0.04569 0.0
H167 H 0.8473 0.90804 0.06435 0.0
H168 H 0.91033 0.81977 0.99602 0.0
H169 H 0.97061 0.88128 0.97817 0.0
H170 H 0.76781 0.87747 0.02799 0.0
H171 H 0.89123 0.72884 0.06363 0.0
H172 H 0.92058 0.78551 0.05952 0.0
H173 H 0.91032 0.75017 0.02683 0.0
C174 C 0.91079 0.93658 0.03616 0.0
C175 C 0.94446 0.93016 0.01102 0.0
C176 C 0.8759 0.90124 0.04642 0.0
C177 C 0.87419 0.85896 0.03167 0.0
C178 C 0.91156 0.85142 0.00836 0.0
H179 H 0.64592 0.62681 0.02288 0.0
H180 H 0.71673 0.68499 0.01142 0.0
C181 C 0.94653 0.8866 -0.00172 0.0
C182 C 0.82814 0.82591 0.03704 0.0
H183 H 0.79741 0.71312 0.05048 0.0
C184 C 0.77437 0.84164 0.0333 0.0
C185 C 0.83643 0.77894 0.04344 0.0
C186 C 0.89278 0.75997 0.04887 0.0
C187 C 0.72896 0.81178 0.0352 0.0
C188 C 0.73726 0.76479 0.04149 0.0
C189 C 0.79096 0.74902 0.04534 0.0
C190 C 0.69083 0.73186 0.04575 0.0
C191 C 0.67261 0.83084 0.02966 0.0
C192 C 0.65197 0.73928 0.06827 0.0
C193 C 0.61125 0.70663 0.07442 0.0
C194 C 0.60897 0.66523 0.05868 0.0
C195 C 0.64632 0.65853 0.03518 0.0
C196 C 0.68711 0.69152 0.02888 0.0
H197 H 0.67431 0.8627 0.01561 0.0
H198 H 0.64533 0.80576 0.01816 0.0
H199 H 0.65425 0.83936 0.05174 0.0
H200 H 0.65442 0.76953 0.08203 0.0
H201 H 0.58293 0.71285 0.09259 0.0
H202 H 0.95147 0.15712 0.04094 0.0
H203 H 0.89567 0.22648 0.04452 0.0
H204 H 0.88133 0.23304 0.94697 0.0
H205 H 0.93577 0.16422 0.94333 0.0
H206 H 0.90289 0.32255 0.98205 0.0
H207 H 0.72438 0.2137 0.01667 0.0
H208 H 0.78989 0.20574 0.03507 0.0
H209 H 0.78081 0.19041 0.99615 0.0
C210 C 0.9375 0.1742 0.02035 0.0
C211 C 0.94759 0.15537 0.99187 0.0
C212 C 0.9055 0.21352 0.0224 0.0
C213 C 0.88422 0.23458 0.99598 0.0
C214 C 0.89737 0.21732 0.96759 0.0
H215 H 0.6186 0.38244 0.92721 0.0
H216 H 0.68579 0.32792 0.94615 0.0
C217 C 0.92841 0.178 0.96556 0.0
C218 C 0.84424 0.27203 0.99727 0.0
H219 H 0.70703 0.28994 0.00295 0.0
C220 C 0.86025 0.31594 0.98735 0.0
C221 C 0.78859 0.26279 0.00362 0.0
C222 C 0.76936 0.21566 0.01342 0.0
C223 C 0.82164 0.35056 0.98258 0.0
C224 C 0.7656 0.34096 0.98809 0.0
C225 C 0.75 0.2974 -0.00096 0.0
C226 C 0.72204 0.37358 0.97905 0.0
C227 C 0.8407 0.39624 0.96996 0.0
C228 C 0.71885 0.41709 0.99186 0.0
C229 C 0.6805 0.44869 0.98083 0.0
C230 C 0.64477 0.43721 0.9568 0.0
C231 C 0.64626 0.39273 0.94528 0.0
C232 C 0.68444 0.36137 0.95624 0.0
H233 H 0.88364 0.39541 0.96198 0.0
H234 H 0.81405 0.40736 0.95074 0.0
H235 H 0.83835 0.42219 0.98793 0.0
H236 H 0.74676 0.42695 0.00991 0.0
H237 H 0.68035 0.48261 0.99023 0.0
H238 H 0.72355 0.64698 0.46562 0.0
H239 H 0.75749 0.72609 0.46396 0.0
H240 H 0.64835 0.75951 0.53614 0.0
H241 H 0.61386 0.68037 0.53757 0.0
H242 H 0.69711 0.82754 0.46842 0.0
H243 H 0.82599 0.75952 0.56357 0.0
H244 H 0.7989 0.72292 0.5343 0.0
H245 H 0.75417 0.74464 0.5624 0.0
C246 C 0.70415 0.67194 0.47968 0.0
C247 C 0.66511 0.65782 0.50121 0.0
C248 C 0.72414 0.717 0.47902 0.0
C249 C 0.70567 0.7485 0.50006 0.0
C250 C 0.66282 0.73573 0.51957 0.0
H251 H 0.80685 0.02427 0.54517 0.0
H252 H 0.75628 0.95439 0.53203 0.0
C253 C 0.64251 0.69068 0.52006 0.0
C254 C 0.7372 0.79146 0.50506 0.0
H255 H 0.83811 0.8369 0.55005 0.0
C256 C 0.72782 0.82975 0.48628 0.0
C257 C 0.77795 0.79386 0.52803 0.0
C258 C 0.79038 0.75314 0.54828 0.0
C259 C 0.75765 0.87078 0.49028 0.0
C260 C 0.79748 0.87352 0.51379 0.0
C261 C 0.8075 0.83483 0.53212 0.0
C262 C 0.82819 0.91651 0.52037 0.0
C263 C 0.74691 0.91071 0.46908 0.0
C264 C 0.88555 0.91833 0.51859 0.0
C265 C 0.91458 0.9582 0.52627 0.0
C266 C 0.88671 0.99683 0.53638 0.0
C267 C 0.82932 0.99495 0.53772 0.0
C268 C 0.80039 0.9552 0.52998 0.0
H269 H 0.72567 0.89983 0.44794 0.0
H270 H 0.72045 0.93542 0.48056 0.0
H271 H 0.78571 0.92861 0.46294 0.0
H272 H 0.90785 0.88882 0.51128 0.0
H273 H 0.95873 0.95853 0.52449 0.0
H274 H 0.60479 0.38458 0.498 0.0
H275 H 0.64926 0.31024 0.49116 0.0
H276 H 0.80298 0.37967 0.47452 0.0
H277 H 0.75957 0.45297 0.48099 0.0
H278 H 0.71948 0.2762 0.44015 0.0
H279 H 0.83097 0.29314 0.5498 0.0
H280 H 0.77091 0.32593 0.54039 0.0
H281 H 0.83619 0.34221 0.52489 0.0
C282 C 0.64771 0.38387 0.49218 0.0
C283 C 0.67869 0.42466 0.4903 0.0
C284 C 0.67315 0.34147 0.48852 0.0
C285 C 0.72971 0.33952 0.48303 0.0
C286 C 0.75962 0.38031 0.47935 0.0
H287 H 0.99124 0.14493 0.47048 0.0
H288 H 0.93385 0.2124 0.4744 0.0
C289 C 0.73452 0.42224 0.48293 0.0
C290 C 0.7589 0.29541 0.48192 0.0
H291 H 0.8613 0.23541 0.51694 0.0
C292 C 0.74995 0.26682 0.45711 0.0
C293 C 0.79915 0.28364 0.50391 0.0
C294 C 0.80973 0.31259 0.53141 0.0
C295 C 0.78147 0.22752 0.45316 0.0
C296 C 0.82218 0.21594 0.47503 0.0
C297 C 0.83034 0.24424 0.50012 0.0
C298 C 0.85697 0.17481 0.47228 0.0
C299 C 0.77227 0.19987 0.42494 0.0
C300 C 0.8331 0.13104 0.47037 0.0
C301 C 0.86579 0.09253 0.4677 0.0
C302 C 0.92313 0.09673 0.46714 0.0
C303 C 0.9472 0.14043 0.4701 0.0
C304 C 0.91438 0.17907 0.47251 0.0
H305 H 0.75169 0.22011 0.4067 0.0
H306 H 0.81149 0.18714 0.4161 0.0
H307 H 0.74554 0.16999 0.43047 0.0
H308 H 0.78911 0.12655 0.47122 0.0
H309 H 0.84626 0.05916 0.46629 0.0
H310 H 0.43017 0.40223 0.45559 0.0
H311 H 0.37542 0.33515 0.4693 0.0
H312 H 0.38954 0.37005 0.56381 0.0
H313 H 0.44221 0.43931 0.54965 0.0
H314 H 0.37584 0.26067 0.50104 0.0
H315 H 0.22811 0.37711 0.55368 0.0
H316 H 0.28747 0.39815 0.53367 0.0
H317 H 0.29381 0.37681 0.5721 0.0
C318 C 0.42369 0.39451 0.47944 0.0
C319 C 0.44062 0.42582 0.50156 0.0
C320 C 0.39172 0.35634 0.48727 0.0
C321 C 0.3763 0.34835 0.5175 0.0
C322 C 0.39907 0.37643 0.54017 0.0
H323 H 0.18479 0.11617 0.58147 0.0
H324 H 0.25719 0.17032 0.56697 0.0
C325 C 0.43051 0.41533 0.53221 0.0
C326 C 0.33295 0.31326 0.52428 0.0
H327 H 0.20537 0.29852 0.55465 0.0
C328 C 0.33872 0.26904 0.51287 0.0
C329 C 0.28355 0.32427 0.53901 0.0
C330 C 0.27246 0.37174 0.55006 0.0
C331 C 0.29713 0.23567 0.51604 0.0
C332 C 0.24875 0.24634 0.53152 0.0
C333 C 0.24258 0.29046 0.54277 0.0
C334 C 0.20535 0.21146 0.53772 0.0
C335 C 0.30472 0.18941 0.50227 0.0
C336 C 0.152 0.21633 0.52589 0.0
C337 C 0.1103 0.18509 0.5341 0.0
C338 C 0.12137 0.14911 0.55467 0.0
C339 C 0.1752 0.14359 0.56555 0.0
C340 C 0.21664 0.17444 0.55724 0.0
H341 H 0.33801 0.18994 0.48528 0.0
H342 H 0.31546 0.16434 0.52045 0.0
H343 H 0.26627 0.17742 0.49115 0.0
H344 H 0.14244 0.24483 0.51085 0.0
H345 H 0.06908 0.1903 0.5256 0.0
H346 H 0.47305 0.67704 0.46423 0.0
H347 H 0.41661 0.74482 0.45997 0.0
H348 H 0.36474 0.7241 0.55259 0.0
H349 H 0.41861 0.65405 0.55594 0.0
H350 H 0.28043 0.73365 0.519 0.0
H351 H 0.42193 0.87293 0.48383 0.0
H352 H 0.42622 0.82598 0.45855 0.0
H353 H 0.44651 0.81863 0.4978 0.0
C354 C 0.4517 0.68833 0.48414 0.0
C355 C 0.45144 0.66132 0.51075 0.0
C356 C 0.41923 0.72714 0.48169 0.0
C357 C 0.38695 0.74046 0.50614 0.0
C358 C 0.38949 0.71488 0.53346 0.0
H359 H 0.18154 0.98423 0.48705 0.0
H360 H 0.2484 0.92901 0.50688 0.0
C361 C 0.42092 0.67529 0.53561 0.0
C362 C 0.34559 0.77709 0.50187 0.0
H363 H 0.32623 0.88433 0.47208 0.0
C364 C 0.29086 0.76689 0.50928 0.0
C365 C 0.35864 0.82067 0.48918 0.0
C366 C 0.41665 0.83529 0.48219 0.0
C367 C 0.24893 0.79826 0.50351 0.0
C368 C 0.26166 0.84071 0.48933 0.0
C369 C 0.31643 0.85164 0.48281 0.0
C370 C 0.21848 0.87314 0.4795 0.0
C371 C 0.19125 0.78551 0.51253 0.0
C372 C 0.17923 0.85992 0.45781 0.0
C373 C 0.14117 0.89122 0.44657 0.0
C374 C 0.14168 0.93657 0.45661 0.0
C375 C 0.17987 0.94945 0.47908 0.0
C376 C 0.21827 0.91806 0.49024 0.0
H377 H 0.19073 0.7589 0.53082 0.0
H378 H 0.16889 0.81577 0.52043 0.0
H379 H 0.16903 0.77154 0.49259 0.0
H380 H 0.17909 0.82571 0.44883 0.0
H381 H 0.11203 0.8802 0.42942 0.0
H382 H 0.07346 0.94673 0.1058 0.0
H383 H 0.05773 0.93708 0.16035 0.0
H384 H 1.00135 0.07587 0.16389 0.0
H385 H 0.01571 0.08489 0.10917 0.0
H386 H 0.1175 0.98732 0.19889 0.0
H387 H 0.89828 0.01343 0.22286 0.0
H388 H 0.92248 1.00087 0.18538 0.0
H389 H 0.92735 0.05813 0.1995 0.0
C390 C 0.05499 0.97425 0.11804 0.0
C391 C 0.04455 0.01618 0.1034 0.0
C392 C 0.04654 0.96893 0.14921 0.0
C393 C 0.02811 0.00567 0.16628 0.0
C394 C 0.01432 0.04668 0.1512 0.0
H395 H 0.06476 0.07815 0.35522 0.0
H396 H 0.05352 0.07761 0.29991 0.0
C397 C 0.02238 0.05185 0.11992 0.0
C398 C 0.03177 0.0035 0.19994 0.0
H399 H 0.96051 0.02044 0.26503 0.0
C400 C 0.08291 0.99396 0.21331 0.0
C401 C 0.98686 0.01271 0.21879 0.0
C402 C 0.93053 0.02144 0.20592 0.0
C403 C 0.09051 0.99402 0.24488 0.0
C404 C 0.04585 0.00375 0.26361 0.0
C405 C 0.99466 0.01314 0.25045 0.0
C406 C 0.0518 0.00398 0.297 0.0
C407 C 0.14644 0.98461 0.25814 0.0
C408 C 0.05452 0.9627 0.31349 0.0
C409 C 0.06046 0.96283 0.34505 0.0
C410 C 0.06399 0.00431 0.36068 0.0
C411 C 0.06146 0.04563 0.34395 0.0
C412 C 0.05522 0.04543 0.31238 0.0
H413 H 0.17823 0.98271 0.24039 0.0
H414 H 0.1584 0.01172 0.27433 0.0
H415 H 0.14527 0.95164 0.27095 0.0
H416 H 0.05172 0.93039 0.30191 0.0
H417 H 0.06137 0.9304 0.35724 0.0
H418 H 0.0942 0.97553 0.89179 0.0
H419 H 0.0999 0.98966 0.83711 0.0
H420 H 0.09264 0.13472 0.85168 0.0
H421 H 0.08793 0.1205 0.90663 0.0
H422 H 0.00759 0.03273 0.81145 0.0
H423 H 0.19948 0.12532 0.77983 0.0
H424 H 0.19342 0.09197 0.81456 0.0
H425 H 0.16302 0.14733 0.81153 0.0
C426 C 0.09715 0.0105 0.88341 0.0
C427 C 0.09143 0.04698 0.90333 0.0
C428 C 0.0997 0.01854 0.85216 0.0
C429 C 0.09636 0.0632 0.8403 0.0
C430 C 0.09606 0.10002 0.86034 0.0
H431 H 0.03614 0.15977 0.65434 0.0
H432 H 0.04534 0.15551 0.70971 0.0
C433 C 0.09388 0.09194 0.89176 0.0
C434 C 0.08381 0.07018 0.80755 0.0
H435 H 0.13174 0.11747 0.74151 0.0
C436 C 0.03486 0.05113 0.79612 0.0
C437 C 0.11878 0.09499 0.78778 0.0
C438 C 0.17186 0.1159 0.79887 0.0
C439 C 0.02027 0.05569 0.76537 0.0
C440 C 0.05614 0.07915 0.74534 0.0
C441 C 0.10441 0.09927 0.75689 0.0
C442 C 0.04559 0.08164 0.71214 0.0
C443 C 0.96626 0.03579 0.75472 0.0
C444 C 0.04195 0.04152 0.69517 0.0
C445 C 0.03663 0.04385 0.66357 0.0
C446 C 0.03546 0.0864 0.64835 0.0
C447 C 0.03757 0.12651 0.66546 0.0
C448 C 0.04272 0.12414 0.69706 0.0
H449 H 0.93698 0.03159 0.77372 0.0
H450 H 0.94736 0.05768 0.73677 0.0
H451 H 0.97312 1.00155 0.74518 0.0
H452 H 0.04515 0.00836 0.70627 0.0
H453 H 0.03582 0.0124 0.65098 0.0
H454 H 0.6104 0.4548 0.60884 0.0
H455 H 0.59479 0.4475 0.66346 0.0
H456 H 0.50391 0.57285 0.66067 0.0
H457 H 0.51757 0.57889 0.6056 0.0
H458 H 0.63647 0.50719 0.70185 0.0
H459 H 0.41205 0.49791 0.71873 0.0
H460 H 0.44281 0.48891 0.68228 0.0
H461 H 0.43361 0.54593 0.69575 0.0
C462 C 0.58531 0.47976 0.61979 0.0
C463 C 0.56448 0.51701 0.60318 0.0
C464 C 0.57669 0.47579 0.65098 0.0
C465 C 0.54797 0.50949 0.66628 0.0
C466 C 0.52504 0.54581 0.64938 0.0
H467 H 0.57275 0.58142 0.85661 0.0
H468 H 0.56377 0.58233 0.80113 0.0
C469 C 0.53285 0.54931 0.61794 0.0
C470 C 0.54835 0.50933 0.70004 0.0
H471 H 0.46723 0.51201 0.76277 0.0
C472 C 0.59933 0.5079 0.71508 0.0
C473 C 0.49998 0.51055 0.71742 0.0
C474 C 0.44398 0.51048 0.70275 0.0
C475 C 0.60326 0.50776 0.74683 0.0
C476 C 0.5551 0.50939 0.76407 0.0
C477 C 0.50406 0.51093 0.74929 0.0
C478 C 0.55759 0.50889 0.79758 0.0
C479 C 0.65882 0.50584 0.76197 0.0
C480 C 0.55714 0.46725 0.81374 0.0
C481 C 0.5623 0.46656 0.84536 0.0
C482 C 0.56791 0.50759 0.86135 0.0
C483 C 0.56795 0.54929 0.84499 0.0
C484 C 0.56288 0.54991 0.81335 0.0
H485 H 0.69254 0.50481 0.74529 0.0
H486 H 0.66502 0.53616 0.77646 0.0
H487 H 0.66106 0.47502 0.77695 0.0
H488 H 0.55326 0.43527 0.80184 0.0
H489 H 0.56135 0.43393 0.85732 0.0
H490 H 0.62337 0.52594 0.40536 0.0
H491 H 0.64044 0.53133 0.35042 0.0
H492 H 0.50151 0.61939 0.33915 0.0
H493 H 0.4844 0.61412 0.39345 0.0
H494 H 0.55973 0.50137 0.30762 0.0
H495 H 0.61774 0.68243 0.28594 0.0
H496 H 0.62316 0.65565 0.32309 0.0
H497 H 0.55822 0.67583 0.30921 0.0
C498 C 0.59764 0.5475 0.3912 0.0
C499 C 0.55249 0.56946 0.40354 0.0
C500 C 0.60719 0.55036 0.35988 0.0
C501 C 0.57244 0.57603 0.34077 0.0
C502 C 0.52936 0.60002 0.35347 0.0
H503 H 0.47586 0.61573 0.15537 0.0
H504 H 0.48566 0.61114 0.2109 0.0
C505 C 0.51945 0.59674 0.3845 0.0
C506 C 0.5763 0.57381 0.30731 0.0
H507 H 0.58205 0.64101 0.24332 0.0
C508 C 0.56575 0.53169 0.29349 0.0
C509 C 0.58349 0.61352 0.289 0.0
C510 C 0.59679 0.65936 0.30255 0.0
C511 C 0.55965 0.52862 0.26186 0.0
C512 C 0.56516 0.56861 0.24366 0.0
C513 C 0.5775 0.61045 0.2574 0.0
C514 C 0.55694 0.56812 0.21035 0.0
C515 C 0.54478 0.48313 0.24824 0.0
C516 C 0.59339 0.54504 0.19179 0.0
C517 C 0.58768 0.54759 0.16021 0.0
C518 C 0.54537 0.57307 0.14691 0.0
C519 C 0.50823 0.59534 0.16539 0.0
C520 C 0.51403 0.59296 0.19694 0.0
H521 H 0.53151 0.45766 0.26574 0.0
H522 H 0.51147 0.48706 0.23111 0.0
H523 H 0.58096 0.46951 0.2366 0.0
H524 H 0.62722 0.5263 0.20169 0.0
H525 H 0.61719 0.53087 0.14615 0.0
loop_
_geom_bond_atom_site_label_1
_geom_bond_atom_site_label_2
_geom_bond_distance
_geom_bond_site_symmetry_2
_ccdc_geom_bond_type
O0 Mn1 2.163 . S
O0 C14 1.244 1_454 S
Mn1 O0 2.163 . S
Mn1 O4 2.157 1_544 S
Mn1 O5 2.221 . S
Mn1 O7 2.163 . S
Mn1 O9 2.160 1_554 S
Mn1 O19 2.221 1_444 S
O2 Mn3 2.087 . S
O2 C14 1.256 . S
Mn3 O2 2.087 . S
Mn3 O10 2.089 . S
Mn3 O19 2.290 1_545 S
Mn3 O20 2.239 1_546 S
O4 Mn1 2.157 1_566 S
O4 C15 1.223 1_556 S
O5 Mn1 2.221 . S
O5 Mn6 2.290 . S
O5 C16 1.278 . S
Mn6 O5 2.290 . S
Mn6 O8 2.089 1_545 S
Mn6 O11 2.251 . S
Mn6 O12 2.087 . S
O7 Mn1 2.163 . S
O7 C17 1.244 . S
O8 Mn6 2.089 1_565 S
O8 C15 1.256 . S
O9 Mn1 2.160 1_556 S
O9 C18 1.239 . S
O10 Mn3 2.089 . S
O10 C18 1.256 1_655 S
O11 Mn6 2.251 . S
O11 C16 1.241 . S
O12 Mn6 2.087 . S
O12 C17 1.256 . S
C13 O19 1.278 1_554 S
C13 O20 1.244 . S
C14 O0 1.244 1_656 S
C14 O2 1.256 . S
C15 O4 1.223 1_554 S
C15 O8 1.256 . S
C16 O5 1.278 . S
C16 O11 1.241 . S
C17 O7 1.244 . S
C17 O12 1.256 . S
C18 O9 1.239 . S
C18 O10 1.256 1_455 S
O19 Mn1 2.221 1_666 S
O19 Mn3 2.290 1_565 S
O19 C13 1.278 1_556 S
O20 Mn3 2.239 1_564 S
O20 C13 1.244 . S
O21 Mn22 2.163 . S
O21 C35 1.244 . S
Mn22 O21 2.163 . S
Mn22 O25 2.160 . S
Mn22 O26 2.221 . S
Mn22 O28 2.163 . S
Mn22 O30 2.160 . S
Mn22 O40 2.221 . S
O23 Mn24 2.087 . S
O23 C35 1.256 . S
Mn24 O23 2.087 . S
Mn24 O31 2.089 . S
Mn24 O40 2.290 . S
Mn24 O41 2.251 . S
O25 Mn22 2.160 . S
O25 C36 1.239 . S
O26 Mn22 2.221 . S
O26 Mn27 2.290 . S
O26 C37 1.278 . S
Mn27 O26 2.290 . S
Mn27 O29 2.089 . S
Mn27 O32 2.251 . S
Mn27 O33 2.087 . S
O28 Mn22 2.163 . S
O28 C38 1.244 . S
O29 Mn27 2.089 . S
O29 C36 1.256 . S
O30 Mn22 2.160 . S
O30 C39 1.239 . S
O31 Mn24 2.089 . S
O31 C39 1.256 . S
O32 Mn27 2.251 . S
O32 C37 1.241 . S
O33 Mn27 2.087 . S
O33 C38 1.256 . S
C34 O40 1.278 . S
C34 O41 1.241 . S
C35 O21 1.244 . S
C35 O23 1.256 . S
C36 O25 1.239 . S
C36 O29 1.256 . S
C37 O26 1.278 . S
C37 O32 1.241 . S
C38 O28 1.244 . S
C38 O33 1.256 . S
C39 O30 1.239 . S
C39 O31 1.256 . S
O40 Mn22 2.221 . S
O40 Mn24 2.290 . S
O40 C34 1.278 . S
O41 Mn24 2.251 . S
O41 C34 1.241 . S
H42 C49 0.929 . S
H43 C52 0.930 . S
H44 C54 0.929 . S
H45 C46 0.969 . S
C46 H45 0.969 . S
C46 O47 1.550 1_655 S
C46 H48 0.973 . S
O47 C46 1.550 1_455 S
O47 C53 1.412 . S
H48 C46 0.973 . S
C49 H42 0.929 . S
C49 C50 1.400 . S
C49 C51 1.364 . S
C50 C49 1.400 . S
C50 C54 1.377 . S
C51 C49 1.364 . S
C51 C52 1.374 1_565 S
C52 H43 0.930 . S
C52 C51 1.374 1_545 S
C52 C53 1.383 . S
C53 O47 1.412 . S
C53 C52 1.383 . S
C53 C54 1.394 1_545 S
C54 H44 0.929 . S
C54 C50 1.377 . S
C54 C53 1.394 1_565 S
H55 C62 0.929 . S
H56 C65 0.930 . S
H57 C67 0.929 . S
H58 C59 0.969 . S
C59 H58 0.969 . S
C59 O60 1.550 . S
C59 H61 0.966 1_545 S
O60 C59 1.550 . S
O60 C66 1.412 . S
H61 C59 0.966 1_565 S
C62 H55 0.929 . S
C62 C63 1.400 . S
C62 C64 1.364 . S
C63 C62 1.400 . S
C63 C67 1.377 . S
C64 C62 1.364 . S
C64 C65 1.374 1_455 S
C65 H56 0.930 . S
C65 C64 1.374 1_655 S
C65 C66 1.383 . S
C66 O60 1.412 . S
C66 C65 1.383 . S
C66 C67 1.394 1_655 S
C67 H57 0.929 . S
C67 C63 1.377 . S
C67 C66 1.394 1_455 S
H68 C75 0.929 . S
H69 C78 0.930 . S
H70 C80 0.929 . S
H71 C72 0.969 . S
C72 H71 0.969 . S
C72 O73 1.550 . S
C72 H74 0.973 . S
O73 C72 1.550 . S
O73 C79 1.412 . S
H74 C72 0.973 . S
C75 H68 0.929 . S
C75 C76 1.400 . S
C75 C77 1.364 . S
C76 C75 1.400 . S
C76 C80 1.377 . S
C77 C75 1.364 . S
C77 C78 1.374 . S
C78 H69 0.930 . S
C78 C77 1.374 . S
C78 C79 1.383 . S
C79 O73 1.412 . S
C79 C78 1.383 . S
C79 C80 1.394 . S
C80 H70 0.929 . S
C80 C76 1.377 . S
C80 C79 1.394 . S
H81 C88 0.929 . S
H82 C91 0.930 . S
H83 C93 0.929 . S
H84 C85 0.969 . S
C85 H84 0.969 . S
C85 O86 1.550 . S
C85 H87 0.973 . S
O86 C85 1.550 . S
O86 C92 1.412 . S
H87 C85 0.973 . S
C88 H81 0.929 . S
C88 C89 1.400 . S
C88 C90 1.364 . S
C89 C88 1.400 . S
C89 C93 1.377 . S
C90 C88 1.364 . S
C90 C91 1.374 . S
C91 H82 0.930 . S
C91 C90 1.374 . S
C91 C92 1.383 . S
C92 O86 1.412 . S
C92 C91 1.383 . S
C92 C93 1.394 . S
C93 H83 0.929 . S
C93 C89 1.377 . S
C93 C92 1.394 . S
H94 C102 0.929 . S
H95 C104 0.930 . S
H96 C106 0.937 . S
H97 C109 0.918 1_556 S
H98 C112 0.930 1_556 S
H99 C114 0.960 . S
H100 C114 0.960 . S
H101 C114 0.960 . S
C102 H94 0.929 . S
C102 C103 1.377 . S
C102 C104 1.384 . S
C103 C102 1.377 . S
C103 C109 1.397 . S
C104 H95 0.930 . S
C104 C102 1.384 . S
C104 C105 1.372 . S
C105 C104 1.372 . S
C105 C106 1.400 . S
C105 C110 1.490 . S
C106 H96 0.937 . S
C106 C105 1.400 . S
C106 C109 1.391 . S
H107 C123 0.930 . S
H108 C124 0.931 . S
C109 H97 0.918 1_554 S
C109 C103 1.397 . S
C109 C106 1.391 . S
C110 C105 1.490 . S
C110 C112 1.395 . S
C110 C113 1.403 . S
H111 C117 0.930 . S
C112 H98 0.930 1_554 S
C112 C110 1.395 . S
C112 C115 1.403 . S
C113 C110 1.403 . S
C113 C114 1.524 . S
C113 C117 1.400 . S
C114 H99 0.960 . S
C114 H100 0.960 . S
C114 H101 0.960 . S
C114 C113 1.524 . S
C115 C112 1.403 . S
C115 C116 1.392 . S
C115 C119 1.495 1_554 S
C116 C115 1.392 . S
C116 C117 1.385 . S
C116 C118 1.478 . S
C117 H111 0.930 . S
C117 C113 1.400 . S
C117 C116 1.385 . S
C118 C116 1.478 . S
C118 C120 1.381 . S
C118 C124 1.383 . S
C119 C115 1.495 1_556 S
C119 H125 0.959 . S
C119 H126 0.961 . S
C119 H127 0.960 . S
C120 C118 1.381 . S
C120 C121 1.394 . S
C120 H128 0.930 . S
C121 C120 1.394 . S
C121 C122 1.383 . S
C121 H129 0.929 . S
C122 C121 1.383 . S
C122 C123 1.377 . S
C123 H107 0.930 . S
C123 C122 1.377 . S
C123 C124 1.379 . S
C124 H108 0.931 . S
C124 C118 1.383 . S
C124 C123 1.379 . S
H125 C119 0.959 . S
H126 C119 0.961 . S
H127 C119 0.960 . S
H128 C120 0.930 . S
H129 C121 0.929 . S
H130 C138 0.929 . S
H131 C140 0.930 . S
H132 C142 0.930 . S
H133 C145 0.929 . S
H134 C148 0.930 . S
H135 C150 0.960 . S
H136 C150 0.960 . S
H137 C150 0.960 . S
C138 H130 0.929 . S
C138 C139 1.377 . S
C138 C140 1.384 . S
C139 C138 1.377 . S
C139 C145 1.390 1_554 S
C140 H131 0.930 . S
C140 C138 1.384 . S
C140 C141 1.388 . S
C141 C140 1.388 . S
C141 C142 1.389 1_554 S
C141 C146 1.486 1_554 S
C142 H132 0.930 . S
C142 C141 1.389 1_556 S
C142 C145 1.386 . S
H143 C159 0.930 . S
H144 C160 0.931 . S
C145 H133 0.929 . S
C145 C139 1.390 1_556 S
C145 C142 1.386 . S
C146 C141 1.486 1_556 S
C146 C148 1.395 1_556 S
C146 C149 1.403 . S
H147 C153 0.930 . S
C148 H134 0.930 . S
C148 C146 1.395 1_554 S
C148 C151 1.403 . S
C149 C146 1.403 . S
C149 C150 1.524 . S
C149 C153 1.400 . S
C150 H135 0.960 . S
C150 H136 0.960 . S
C150 H137 0.960 . S
C150 C149 1.524 . S
C151 C148 1.403 . S
C151 C152 1.392 1_554 S
C151 C155 1.495 . S
C152 C151 1.392 1_556 S
C152 C153 1.385 . S
C152 C154 1.478 . S
C153 H147 0.930 . S
C153 C149 1.400 . S
C153 C152 1.385 . S
C154 C152 1.478 . S
C154 C156 1.381 . S
C154 C160 1.383 . S
C155 C151 1.495 . S
C155 H161 0.959 . S
C155 H162 0.961 . S
C155 H163 0.960 . S
C156 C154 1.381 . S
C156 C157 1.394 . S
C156 H164 0.930 1_556 S
C157 C156 1.394 . S
C157 C158 1.383 . S
C157 H165 0.929 . S
C158 C157 1.383 . S
C158 C159 1.377 . S
C159 H143 0.930 . S
C159 C158 1.377 . S
C159 C160 1.379 . S
C160 H144 0.931 . S
C160 C154 1.383 . S
C160 C159 1.379 . S
H161 C155 0.959 . S
H162 C155 0.961 . S
H163 C155 0.960 . S
H164 C156 0.930 1_554 S
H165 C157 0.929 . S
H166 C174 0.929 . S
H167 C176 0.930 . S
H168 C178 0.930 1_556 S
H169 C181 0.929 . S
H170 C184 0.930 . S
H171 C186 0.960 . S
H172 C186 0.960 . S
H173 C186 0.960 . S
C174 H166 0.929 . S
C174 C175 1.377 . S
C174 C176 1.384 . S
C175 C174 1.377 . S
C175 C181 1.390 1_554 S
C176 H167 0.930 . S
C176 C174 1.384 . S
C176 C177 1.372 . S
C177 C176 1.372 . S
C177 C178 1.400 . S
C177 C182 1.490 . S
C178 H168 0.930 1_554 S
C178 C177 1.400 . S
C178 C181 1.386 1_554 S
H179 C195 0.930 . S
H180 C196 0.931 . S
C181 H169 0.929 . S
C181 C175 1.390 1_556 S
C181 C178 1.386 1_556 S
C182 C177 1.490 . S
C182 C184 1.395 . S
C182 C185 1.403 . S
H183 C189 0.930 . S
C184 H170 0.930 . S
C184 C182 1.395 . S
C184 C187 1.403 . S
C185 C182 1.403 . S
C185 C186 1.524 . S
C185 C189 1.400 . S
C186 H171 0.960 . S
C186 H172 0.960 . S
C186 H173 0.960 . S
C186 C185 1.524 . S
C187 C184 1.403 . S
C187 C188 1.392 . S
C187 C191 1.495 . S
C188 C187 1.392 . S
C188 C189 1.385 . S
C188 C190 1.478 . S
C189 H183 0.930 . S
C189 C185 1.400 . S
C189 C188 1.385 . S
C190 C188 1.478 . S
C190 C192 1.381 . S
C190 C196 1.383 . S
C191 C187 1.495 . S
C191 H197 0.959 . S
C191 H198 0.961 . S
C191 H199 0.960 . S
C192 C190 1.381 . S
C192 C193 1.394 . S
C192 H200 0.930 . S
C193 C192 1.394 . S
C193 C194 1.383 . S
C193 H201 0.929 . S
C194 C193 1.383 . S
C194 C195 1.377 . S
C195 H179 0.930 . S
C195 C194 1.377 . S
C195 C196 1.379 . S
C196 H180 0.931 . S
C196 C190 1.383 . S
C196 C195 1.379 . S
H197 C191 0.959 . S
H198 C191 0.961 . S
H199 C191 0.960 . S
H200 C192 0.930 . S
H201 C193 0.929 . S
H202 C210 0.929 . S
H203 C212 0.930 . S
H204 C214 0.930 . S
H205 C217 0.929 . S
H206 C220 0.930 . S
H207 C222 0.960 . S
H208 C222 0.960 1_554 S
H209 C222 0.960 . S
C210 H202 0.929 . S
C210 C211 1.377 1_554 S
C210 C212 1.384 . S
C211 C210 1.377 1_556 S
C211 C217 1.390 . S
C212 H203 0.930 . S
C212 C210 1.384 . S
C212 C213 1.372 1_554 S
C213 C212 1.372 1_556 S
C213 C214 1.400 . S
C213 C218 1.490 . S
C214 H204 0.930 . S
C214 C213 1.400 . S
C214 C217 1.386 . S
H215 C231 0.930 . S
H216 C232 0.931 . S
C217 H205 0.929 . S
C217 C211 1.390 . S
C217 C214 1.386 . S
C218 C213 1.490 . S
C218 C220 1.395 . S
C218 C221 1.403 . S
H219 C225 0.930 . S
C220 H206 0.930 . S
C220 C218 1.395 . S
C220 C223 1.403 . S
C221 C218 1.403 . S
C221 C222 1.524 . S
C221 C225 1.400 . S
C222 H207 0.960 . S
C222 H208 0.960 1_556 S
C222 H209 0.960 . S
C222 C221 1.524 . S
C223 C220 1.403 . S
C223 C224 1.392 . S
C223 C227 1.495 . S
C224 C223 1.392 . S
C224 C225 1.385 . S
C224 C226 1.478 . S
C225 H219 0.930 . S
C225 C221 1.400 . S
C225 C224 1.385 . S
C226 C224 1.478 . S
C226 C228 1.381 . S
C226 C232 1.383 . S
C227 C223 1.495 . S
C227 H233 0.959 . S
C227 H234 0.961 . S
C227 H235 0.960 . S
C228 C226 1.381 . S
C228 C229 1.394 . S
C228 H236 0.930 1_556 S
C229 C228 1.394 . S
C229 C230 1.383 . S
C229 H237 0.929 . S
C230 C229 1.383 . S
C230 C231 1.377 . S
C231 H215 0.930 . S
C231 C230 1.377 . S
C231 C232 1.379 . S
C232 H216 0.931 . S
C232 C226 1.383 . S
C232 C231 1.379 . S
H233 C227 0.959 . S
H234 C227 0.961 . S
H235 C227 0.960 . S
H236 C228 0.930 1_554 S
H237 C229 0.929 . S
H238 C246 0.929 . S
H239 C248 0.930 . S
H240 C250 0.930 . S
H241 C253 0.929 . S
H242 C256 0.930 . S
H243 C258 0.960 . S
H244 C258 0.960 . S
H245 C258 0.960 . S
C246 H238 0.929 . S
C246 C247 1.377 . S
C246 C248 1.384 . S
C247 C246 1.377 . S
C247 C253 1.390 . S
C248 H239 0.930 . S
C248 C246 1.384 . S
C248 C249 1.372 . S
C249 C248 1.372 . S
C249 C250 1.400 . S
C249 C254 1.490 . S
C250 H240 0.930 . S
C250 C249 1.400 . S
C250 C253 1.386 . S
H251 C267 0.930 . S
H252 C268 0.931 . S
C253 H241 0.929 . S
C253 C247 1.390 . S
C253 C250 1.386 . S
C254 C249 1.490 . S
C254 C256 1.395 . S
C254 C257 1.403 . S
H255 C261 0.930 . S
C256 H242 0.930 . S
C256 C254 1.395 . S
C256 C259 1.403 . S
C257 C254 1.403 . S
C257 C258 1.524 . S
C257 C261 1.400 . S
C258 H243 0.960 . S
C258 H244 0.960 . S
C258 H245 0.960 . S
C258 C257 1.524 . S
C259 C256 1.403 . S
C259 C260 1.392 . S
C259 C263 1.495 . S
C260 C259 1.392 . S
C260 C261 1.385 . S
C260 C262 1.478 . S
C261 H255 0.930 . S
C261 C257 1.400 . S
C261 C260 1.385 . S
C262 C260 1.478 . S
C262 C264 1.381 . S
C262 C268 1.383 . S
C263 C259 1.495 . S
C263 H269 0.959 . S
C263 H270 0.961 . S
C263 H271 0.960 . S
C264 C262 1.381 . S
C264 C265 1.394 . S
C264 H272 0.930 . S
C265 C264 1.394 . S
C265 C266 1.383 . S
C265 H273 0.929 . S
C266 C265 1.383 . S
C266 C267 1.377 . S
C267 H251 0.930 . S
C267 C266 1.377 . S
C267 C268 1.379 . S
C268 H252 0.931 . S
C268 C262 1.383 . S
C268 C267 1.379 . S
H269 C263 0.959 . S
H270 C263 0.961 . S
H271 C263 0.960 . S
H272 C264 0.930 . S
H273 C265 0.929 . S
H274 C282 0.929 . S
H275 C284 0.930 . S
H276 C286 0.930 . S
H277 C289 0.929 . S
H278 C292 0.930 . S
H279 C294 0.960 . S
H280 C294 0.960 . S
H281 C294 0.960 . S
C282 H274 0.929 . S
C282 C283 1.377 . S
C282 C284 1.384 . S
C283 C282 1.377 . S
C283 C289 1.390 . S
C284 H275 0.930 . S
C284 C282 1.384 . S
C284 C285 1.372 . S
C285 C284 1.372 . S
C285 C286 1.400 . S
C285 C290 1.490 . S
C286 H276 0.930 . S
C286 C285 1.400 . S
C286 C289 1.386 . S
H287 C303 0.930 . S
H288 C304 0.931 . S
C289 H277 0.929 . S
C289 C283 1.390 . S
C289 C286 1.386 . S
C290 C285 1.490 . S
C290 C292 1.395 . S
C290 C293 1.403 . S
H291 C297 0.930 . S
C292 H278 0.930 . S
C292 C290 1.395 . S
C292 C295 1.403 . S
C293 C290 1.403 . S
C293 C294 1.524 . S
C293 C297 1.400 . S
C294 H279 0.960 . S
C294 H280 0.960 . S
C294 H281 0.960 . S
C294 C293 1.524 . S
C295 C292 1.403 . S
C295 C296 1.392 . S
C295 C299 1.495 . S
C296 C295 1.392 . S
C296 C297 1.385 . S
C296 C298 1.478 . S
C297 H291 0.930 . S
C297 C293 1.400 . S
C297 C296 1.385 . S
C298 C296 1.478 . S
C298 C300 1.381 . S
C298 C304 1.383 . S
C299 C295 1.495 . S
C299 H305 0.959 . S
C299 H306 0.961 . S
C299 H307 0.960 . S
C300 C298 1.381 . S
C300 C301 1.394 . S
C300 H308 0.930 . S
C301 C300 1.394 . S
C301 C302 1.383 . S
C301 H309 0.929 . S
C302 C301 1.383 . S
C302 C303 1.377 . S
C303 H287 0.930 . S
C303 C302 1.377 . S
C303 C304 1.379 . S
C304 H288 0.931 . S
C304 C298 1.383 . S
C304 C303 1.379 . S
H305 C299 0.959 . S
H306 C299 0.961 . S
H307 C299 0.960 . S
H308 C300 0.930 . S
H309 C301 0.929 . S
H310 C318 0.929 . S
H311 C320 0.930 . S
H312 C322 0.930 . S
H313 C325 0.929 . S
H314 C328 0.930 . S
H315 C330 0.960 . S
H316 C330 0.960 . S
H317 C330 0.960 . S
C318 H310 0.929 . S
C318 C319 1.377 . S
C318 C320 1.384 . S
C319 C318 1.377 . S
C319 C325 1.390 . S
C320 H311 0.930 . S
C320 C318 1.384 . S
C320 C321 1.372 . S
C321 C320 1.372 . S
C321 C322 1.400 . S
C321 C326 1.490 . S
C322 H312 0.930 . S
C322 C321 1.400 . S
C322 C325 1.386 . S
H323 C339 0.930 . S
H324 C340 0.931 . S
C325 H313 0.929 . S
C325 C319 1.390 . S
C325 C322 1.386 . S
C326 C321 1.490 . S
C326 C328 1.395 . S
C326 C329 1.403 . S
H327 C333 0.930 . S
C328 H314 0.930 . S
C328 C326 1.395 . S
C328 C331 1.403 . S
C329 C326 1.403 . S
C329 C330 1.524 . S
C329 C333 1.400 . S
C330 H315 0.960 . S
C330 H316 0.960 . S
C330 H317 0.960 . S
C330 C329 1.524 . S
C331 C328 1.403 . S
C331 C332 1.392 . S
C331 C335 1.495 . S
C332 C331 1.392 . S
C332 C333 1.385 . S
C332 C334 1.478 . S
C333 H327 0.930 . S
C333 C329 1.400 . S
C333 C332 1.385 . S
C334 C332 1.478 . S
C334 C336 1.381 . S
C334 C340 1.383 . S
C335 C331 1.495 . S
C335 H341 0.959 . S
C335 H342 0.961 . S
C335 H343 0.960 . S
C336 C334 1.381 . S
C336 C337 1.394 . S
C336 H344 0.930 . S
C337 C336 1.394 . S
C337 C338 1.383 . S
C337 H345 0.929 . S
C338 C337 1.383 . S
C338 C339 1.377 . S
C339 H323 0.930 . S
C339 C338 1.377 . S
C339 C340 1.379 . S
C340 H324 0.931 . S
C340 C334 1.383 . S
C340 C339 1.379 . S
H341 C335 0.959 . S
H342 C335 0.961 . S
H343 C335 0.960 . S
H344 C336 0.930 . S
H345 C337 0.929 . S
H346 C354 0.929 . S
H347 C356 0.930 . S
H348 C358 0.930 . S
H349 C361 0.929 . S
H350 C364 0.930 . S
H351 C366 0.960 . S
H352 C366 0.960 . S
H353 C366 0.960 . S
C354 H346 0.929 . S
C354 C355 1.377 . S
C354 C356 1.384 . S
C355 C354 1.377 . S
C355 C361 1.390 . S
C356 H347 0.930 . S
C356 C354 1.384 . S
C356 C357 1.372 . S
C357 C356 1.372 . S
C357 C358 1.400 . S
C357 C362 1.490 . S
C358 H348 0.930 . S
C358 C357 1.400 . S
C358 C361 1.386 . S
H359 C375 0.930 . S
H360 C376 0.931 . S
C361 H349 0.929 . S
C361 C355 1.390 . S
C361 C358 1.386 . S
C362 C357 1.490 . S
C362 C364 1.395 . S
C362 C365 1.403 . S
H363 C369 0.930 . S
C364 H350 0.930 . S
C364 C362 1.395 . S
C364 C367 1.403 . S
C365 C362 1.403 . S
C365 C366 1.524 . S
C365 C369 1.400 . S
C366 H351 0.960 . S
C366 H352 0.960 . S
C366 H353 0.960 . S
C366 C365 1.524 . S
C367 C364 1.403 . S
C367 C368 1.392 . S
C367 C371 1.495 . S
C368 C367 1.392 . S
C368 C369 1.385 . S
C368 C370 1.478 . S
C369 H363 0.930 . S
C369 C365 1.400 . S
C369 C368 1.385 . S
C370 C368 1.478 . S
C370 C372 1.381 . S
C370 C376 1.383 . S
C371 C367 1.495 . S
C371 H377 0.959 . S
C371 H378 0.961 . S
C371 H379 0.960 . S
C372 C370 1.381 . S
C372 C373 1.394 . S
C372 H380 0.930 . S
C373 C372 1.394 . S
C373 C374 1.383 . S
C373 H381 0.929 . S
C374 C373 1.383 . S
C374 C375 1.377 . S
C375 H359 0.930 . S
C375 C374 1.377 . S
C375 C376 1.379 . S
C376 H360 0.931 . S
C376 C370 1.383 . S
C376 C375 1.379 . S
H377 C371 0.959 . S
H378 C371 0.961 . S
H379 C371 0.960 . S
H380 C372 0.930 . S
H381 C373 0.929 . S
H382 C390 0.929 . S
H383 C392 0.930 . S
H384 C394 0.930 . S
H385 C397 0.929 . S
H386 C400 0.930 . S
H387 C402 0.960 . S
H388 C402 0.960 1_565 S
H389 C402 0.960 . S
C390 H382 0.929 . S
C390 C391 1.377 1_565 S
C390 C392 1.384 . S
C391 C390 1.377 1_545 S
C391 C397 1.390 . S
C392 H383 0.930 . S
C392 C390 1.384 . S
C392 C393 1.372 1_565 S
C393 C392 1.372 1_545 S
C393 C394 1.400 . S
C393 C398 1.490 . S
C394 H384 0.930 . S
C394 C393 1.400 . S
C394 C397 1.386 . S
H395 C411 0.930 . S
H396 C412 0.931 . S
C397 H385 0.929 . S
C397 C391 1.390 . S
C397 C394 1.386 . S
C398 C393 1.490 . S
C398 C400 1.395 1_545 S
C398 C401 1.403 . S
H399 C405 0.930 1_655 S
C400 H386 0.930 . S
C400 C398 1.395 1_565 S
C400 C403 1.403 . S
C401 C398 1.403 . S
C401 C402 1.524 1_455 S
C401 C405 1.400 . S
C402 H387 0.960 . S
C402 H388 0.960 1_545 S
C402 H389 0.960 . S
C402 C401 1.524 1_655 S
C403 C400 1.403 . S
C403 C404 1.393 . S
C403 C407 1.495 . S
C404 C403 1.393 . S
C404 C405 1.384 1_565 S
C404 C406 1.478 . S
C405 H399 0.930 1_455 S
C405 C401 1.400 . S
C405 C404 1.384 1_545 S
C406 C404 1.478 . S
C406 C408 1.381 . S
C406 C412 1.383 1_565 S
C407 C403 1.495 . S
C407 H413 0.959 . S
C407 H414 0.961 1_565 S
C407 H415 0.960 . S
C408 C406 1.381 . S
C408 C409 1.394 . S
C408 H416 0.930 . S
C409 C408 1.394 . S
C409 C410 1.383 . S
C409 H417 0.929 . S
C410 C409 1.383 . S
C410 C411 1.377 1_565 S
C411 H395 0.930 . S
C411 C410 1.377 1_545 S
C411 C412 1.379 . S
C412 H396 0.931 . S
C412 C406 1.383 1_545 S
C412 C411 1.379 . S
H413 C407 0.959 . S
H414 C407 0.961 1_545 S
H415 C407 0.960 . S
H416 C408 0.930 . S
H417 C409 0.929 . S
H418 C426 0.929 1_565 S
H419 C428 0.930 1_565 S
H420 C430 0.930 . S
H421 C433 0.929 . S
H422 C436 0.930 . S
H423 C438 0.960 . S
H424 C438 0.960 . S
H425 C438 0.960 . S
C426 H418 0.929 1_545 S
C426 C427 1.377 . S
C426 C428 1.384 . S
C427 C426 1.377 . S
C427 C433 1.390 . S
C428 H419 0.930 1_545 S
C428 C426 1.384 . S
C428 C429 1.372 . S
C429 C428 1.372 . S
C429 C430 1.400 . S
C429 C434 1.490 . S
C430 H420 0.930 . S
C430 C429 1.400 . S
C430 C433 1.386 . S
H431 C447 0.930 . S
H432 C448 0.931 . S
C433 H421 0.929 . S
C433 C427 1.390 . S
C433 C430 1.386 . S
C434 C429 1.490 . S
C434 C436 1.395 1_455 S
C434 C437 1.403 . S
H435 C441 0.930 . S
C436 H422 0.930 . S
C436 C434 1.395 1_655 S
C436 C439 1.403 . S
C437 C434 1.403 . S
C437 C438 1.524 . S
C437 C441 1.400 . S
C438 H423 0.960 . S
C438 H424 0.960 . S
C438 H425 0.960 . S
C438 C437 1.524 . S
C439 C436 1.403 . S
C439 C440 1.392 1_655 S
C439 C443 1.495 . S
C440 C439 1.392 1_455 S
C440 C441 1.385 . S
C440 C442 1.478 . S
C441 H435 0.930 . S
C441 C437 1.400 . S
C441 C440 1.385 . S
C442 C440 1.478 . S
C442 C444 1.381 . S
C442 C448 1.383 . S
C443 C439 1.495 . S
C443 H449 0.959 . S
C443 H450 0.961 . S
C443 H451 0.960 . S
C444 C442 1.381 . S
C444 C445 1.394 . S
C444 H452 0.930 . S
C445 C444 1.394 . S
C445 C446 1.383 . S
C445 H453 0.929 . S
C446 C445 1.383 . S
C446 C447 1.377 . S
C447 H431 0.930 . S
C447 C446 1.377 . S
C447 C448 1.379 . S
C448 H432 0.931 . S
C448 C442 1.383 . S
C448 C447 1.379 . S
H449 C443 0.959 . S
H450 C443 0.961 . S
H451 C443 0.960 . S
H452 C444 0.930 . S
H453 C445 0.929 . S
H454 C462 0.929 . S
H455 C464 0.930 . S
H456 C466 0.930 . S
H457 C469 0.929 . S
H458 C472 0.930 . S
H459 C474 0.960 . S
H460 C474 0.960 . S
H461 C474 0.960 . S
C462 H454 0.929 . S
C462 C463 1.377 . S
C462 C464 1.384 . S
C463 C462 1.377 . S
C463 C469 1.390 . S
C464 H455 0.930 . S
C464 C462 1.384 . S
C464 C465 1.372 . S
C465 C464 1.372 . S
C465 C466 1.400 . S
C465 C470 1.490 . S
C466 H456 0.930 . S
C466 C465 1.400 . S
C466 C469 1.386 . S
H467 C483 0.930 . S
H468 C484 0.931 . S
C469 H457 0.929 . S
C469 C463 1.390 . S
C469 C466 1.386 . S
C470 C465 1.490 . S
C470 C472 1.395 . S
C470 C473 1.403 . S
H471 C477 0.930 . S
C472 H458 0.930 . S
C472 C470 1.395 . S
C472 C475 1.403 . S
C473 C470 1.403 . S
C473 C474 1.524 . S
C473 C477 1.400 . S
C474 H459 0.960 . S
C474 H460 0.960 . S
C474 H461 0.960 . S
C474 C473 1.524 . S
C475 C472 1.403 . S
C475 C476 1.392 . S
C475 C479 1.495 . S
C476 C475 1.392 . S
C476 C477 1.385 . S
C476 C478 1.478 . S
C477 H471 0.930 . S
C477 C473 1.400 . S
C477 C476 1.385 . S
C478 C476 1.478 . S
C478 C480 1.381 . S
C478 C484 1.383 . S
C479 C475 1.495 . S
C479 H485 0.959 . S
C479 H486 0.961 . S
C479 H487 0.960 . S
C480 C478 1.381 . S
C480 C481 1.394 . S
C480 H488 0.930 . S
C481 C480 1.394 . S
C481 C482 1.383 . S
C481 H489 0.929 . S
C482 C481 1.383 . S
C482 C483 1.377 . S
C483 H467 0.930 . S
C483 C482 1.377 . S
C483 C484 1.379 . S
C484 H468 0.931 . S
C484 C478 1.383 . S
C484 C483 1.379 . S
H485 C479 0.959 . S
H486 C479 0.961 . S
H487 C479 0.960 . S
H488 C480 0.930 . S
H489 C481 0.929 . S
H490 C498 0.929 . S
H491 C500 0.930 . S
H492 C502 0.930 . S
H493 C505 0.929 . S
H494 C508 0.930 . S
H495 C510 0.960 . S
H496 C510 0.960 . S
H497 C510 0.960 . S
C498 H490 0.929 . S
C498 C499 1.377 . S
C498 C500 1.384 . S
C499 C498 1.377 . S
C499 C505 1.390 . S
C500 H491 0.930 . S
C500 C498 1.384 . S
C500 C501 1.372 . S
C501 C500 1.372 . S
C501 C502 1.400 . S
C501 C506 1.490 . S
C502 H492 0.930 . S
C502 C501 1.400 . S
C502 C505 1.386 . S
H503 C519 0.930 . S
H504 C520 0.931 . S
C505 H493 0.929 . S
C505 C499 1.390 . S
C505 C502 1.386 . S
C506 C501 1.490 . S
C506 C508 1.395 . S
C506 C509 1.403 . S
H507 C513 0.930 . S
C508 H494 0.930 . S
C508 C506 1.395 . S
C508 C511 1.403 . S
C509 C506 1.403 . S
C509 C510 1.524 . S
C509 C513 1.400 . S
C510 H495 0.960 . S
C510 H496 0.960 . S
C510 H497 0.960 . S
C510 C509 1.524 . S
C511 C508 1.403 . S
C511 C512 1.392 . S
C511 C515 1.495 . S
C512 C511 1.392 . S
C512 C513 1.385 . S
C512 C514 1.478 . S
C513 H507 0.930 . S
C513 C509 1.400 . S
C513 C512 1.385 . S
C514 C512 1.478 . S
C514 C516 1.381 . S
C514 C520 1.383 . S
C515 C511 1.495 . S
C515 H521 0.959 . S
C515 H522 0.961 . S
C515 H523 0.960 . S
C516 C514 1.381 . S
C516 C517 1.394 . S
C516 H524 0.930 . S
C517 C516 1.394 . S
C517 C518 1.383 . S
C517 H525 0.929 . S
C518 C517 1.383 . S
C518 C519 1.377 . S
C519 H503 0.930 . S
C519 C518 1.377 . S
C519 C520 1.379 . S
C520 H504 0.931 . S
C520 C514 1.383 . S
C520 C519 1.379 . S
H521 C515 0.959 . S
H522 C515 0.961 . S
H523 C515 0.960 . S
H524 C516 0.930 . S
H525 C517 0.929 . S
C122 C85 1.299 . S
C103 C16 1.178 . S
C139 C15 1.414 . S
C158 C72 1.351 . S
C175 C13 1.352 . S
C194 C89 1.545 . S
C211 C14 1.405 . S
C230 C76 1.447 . S
C247 C37 1.185 . S
C266 C59 1.281 1_565 S
C283 C36 1.417 . S
C302 C46 1.268 . S
C338 C63 1.549 . S
C319 C34 1.332 . S
C374 C50 1.461 . S
C355 C35 1.402 . S
C391 C17 1.573 . S
C410 C51 1.615 . S
C427 C18 1.408 . S
C446 C64 1.464 . S
C482 C77 1.615 . S
C463 C38 1.573 . S
C499 C39 1.410 . S
C518 C90 1.459 . S
