# Generated by pormake.
# Topology pto, (3,4)-cn, num edge types: 1
# Building blocks:
#     Node 0, Type 0, BuildingBlock: BETDIP_clean_linker_0, # of connection points: 3
#     Node 1, Type 0, BuildingBlock: BETDIP_clean_linker_0, # of connection points: 3
#     Node 2, Type 0, BuildingBlock: BETDIP_clean_linker_0, # of connection points: 3
#     Node 3, Type 0, BuildingBlock: BETDIP_clean_linker_0, # of connection points: 3
#     Node 4, Type 0, BuildingBlock: BETDIP_clean_linker_0, # of connection points: 3
#     Node 5, Type 0, BuildingBlock: BETDIP_clean_linker_0, # of connection points: 3
#     Node 6, Type 0, BuildingBlock: BETDIP_clean_linker_0, # of connection points: 3
#     Node 7, Type 0, BuildingBlock: BETDIP_clean_linker_0, # of connection points: 3
#     Node 8, Type 1, BuildingBlock: KOZSID_clean_sbu_0, # of connection points: 4
#     Node 9, Type 1, BuildingBlock: KOZSID_clean_sbu_0, # of connection points: 4
#     Node 10, Type 1, BuildingBlock: KOZSID_clean_sbu_0, # of connection points: 4
#     Node 11, Type 1, BuildingBlock: KOZSID_clean_sbu_0, # of connection points: 4
#     Node 12, Type 1, BuildingBlock: KOZSID_clean_sbu_0, # of connection points: 4
#     Node 13, Type 1, BuildingBlock: KOZSID_clean_sbu_0, # of connection points: 4
#     Edge 14, Type (0, 1), BuildingBlock: MIFKUJ_clean_linker_0, # of connection points: 2
#     Edge 15, Type (0, 1), BuildingBlock: MIFKUJ_clean_linker_0, # of connection points: 2
#     Edge 16, Type (0, 1), BuildingBlock: MIFKUJ_clean_linker_0, # of connection points: 2
#     Edge 17, Type (0, 1), BuildingBlock: MIFKUJ_clean_linker_0, # of connection points: 2
#     Edge 18, Type (0, 1), BuildingBlock: MIFKUJ_clean_linker_0, # of connection points: 2
#     Edge 19, Type (0, 1), BuildingBlock: MIFKUJ_clean_linker_0, # of connection points: 2
#     Edge 20, Type (0, 1), BuildingBlock: MIFKUJ_clean_linker_0, # of connection points: 2
#     Edge 21, Type (0, 1), BuildingBlock: MIFKUJ_clean_linker_0, # of connection points: 2
#     Edge 22, Type (0, 1), BuildingBlock: MIFKUJ_clean_linker_0, # of connection points: 2
#     Edge 23, Type (0, 1), BuildingBlock: MIFKUJ_clean_linker_0, # of connection points: 2
#     Edge 24, Type (0, 1), BuildingBlock: MIFKUJ_clean_linker_0, # of connection points: 2
#     Edge 25, Type (0, 1), BuildingBlock: MIFKUJ_clean_linker_0, # of connection points: 2
#     Edge 26, Type (0, 1), BuildingBlock: MIFKUJ_clean_linker_0, # of connection points: 2
#     Edge 27, Type (0, 1), BuildingBlock: MIFKUJ_clean_linker_0, # of connection points: 2
#     Edge 28, Type (0, 1), BuildingBlock: MIFKUJ_clean_linker_0, # of connection points: 2
#     Edge 29, Type (0, 1), BuildingBlock: MIFKUJ_clean_linker_0, # of connection points: 2
#     Edge 30, Type (0, 1), BuildingBlock: MIFKUJ_clean_linker_0, # of connection points: 2
#     Edge 31, Type (0, 1), BuildingBlock: MIFKUJ_clean_linker_0, # of connection points: 2
#     Edge 32, Type (0, 1), BuildingBlock: MIFKUJ_clean_linker_0, # of connection points: 2
#     Edge 33, Type (0, 1), BuildingBlock: MIFKUJ_clean_linker_0, # of connection points: 2
#     Edge 34, Type (0, 1), BuildingBlock: MIFKUJ_clean_linker_0, # of connection points: 2
#     Edge 35, Type (0, 1), BuildingBlock: MIFKUJ_clean_linker_0, # of connection points: 2
#     Edge 36, Type (0, 1), BuildingBlock: MIFKUJ_clean_linker_0, # of connection points: 2
#     Edge 37, Type (0, 1), BuildingBlock: MIFKUJ_clean_linker_0, # of connection points: 2
# Relax obj value: 0.010
# Max RMSD: 0.132
# Mean RMSD: 0.060
data_MOF--net-pto--node1-KOZSID_clean_sbu_0--node2-BETDIP_clean_linker_0--edge1-MIFKUJ_clean_linker_0
_symmetry_space_group_name_H-M    P1
_symmetry_Int_Tables_number       1
_symmetry_cell_setting            triclinic
loop_
_symmetry_equiv_pos_as_xyz
'x, y, z'
_cell_length_a     47.080744
_cell_length_b     65.454873
_cell_length_c     57.403912
_cell_angle_alpha  96.203287
_cell_angle_beta   103.24837
_cell_angle_gamma 106.32466
loop_
_atom_site_label
_atom_site_type_symbol
_atom_site_fract_x
_atom_site_fract_y
_atom_site_fract_z
_atom_type_partial_charge
H0 H 0.18967 0.30401 0.34492 0.0
H1 H 0.23189 0.27471 0.29791 0.0
H2 H 0.22845 0.33906 0.29415 0.0
H3 H 0.19594 0.24401 0.30068 0.0
C4 C 0.1964 0.24679 0.31978 0.0
C5 C 0.20107 0.30498 0.3305 0.0
C6 C 0.20786 0.32397 0.32059 0.0
C7 C 0.20868 0.28695 0.32188 0.0
C8 C 0.22487 0.28826 0.30407 0.0
C9 C 0.23235 0.30714 0.29421 0.0
C10 C 0.22324 0.32471 0.30221 0.0
N11 N 0.20034 0.26793 0.3319 0.0
H12 H 0.21909 0.77834 0.658 0.0
H13 H 0.30305 0.82779 0.69893 0.0
H14 H 0.27652 0.76662 0.72176 0.0
H15 H 0.29999 0.83908 0.66278 0.0
C16 C 0.27555 0.83612 0.65513 0.0
C17 C 0.23975 0.78364 0.67307 0.0
C18 C 0.24538 0.76976 0.68934 0.0
C19 C 0.26072 0.80434 0.67591 0.0
C20 C 0.28723 0.81153 0.6958 0.0
C21 C 0.2932 0.79779 0.71212 0.0
C22 C 0.27238 0.77692 0.70863 0.0
N23 N 0.25373 0.81777 0.65904 0.0
H24 H 0.85177 0.80896 0.32154 0.0
H25 H 0.86875 0.82978 0.39846 0.0
H26 H 0.81947 0.85987 0.34776 0.0
H27 H 0.90925 0.81626 0.39971 0.0
C28 C 0.89912 0.80185 0.38558 0.0
C29 C 0.84942 0.81948 0.33641 0.0
C30 C 0.83402 0.83472 0.33159 0.0
C31 C 0.86251 0.81786 0.36036 0.0
C32 C 0.85975 0.83146 0.3799 0.0
C33 C 0.84409 0.84665 0.37545 0.0
C34 C 0.83153 0.84819 0.35127 0.0
N35 N 0.87711 0.80175 0.36397 0.0
H36 H 0.68673 0.25956 0.83301 0.0
H37 H 0.72013 0.32908 0.84493 0.0
H38 H 0.76015 0.29147 0.80395 0.0
H39 H 0.71049 0.32511 0.88165 0.0
C40 C 0.68859 0.31221 0.87657 0.0
C41 C 0.70227 0.27436 0.8305 0.0
C42 C 0.72324 0.27333 0.81692 0.0
C43 C 0.70218 0.29443 0.84173 0.0
C44 C 0.72177 0.3136 0.83779 0.0
C45 C 0.74273 0.31285 0.82399 0.0
C46 C 0.7437 0.29252 0.81413 0.0
N47 N 0.68235 0.29489 0.85697 0.0
H48 H 0.80259 0.80234 0.81575 0.0
H49 H 0.82953 0.82857 0.75557 0.0
H50 H 0.77715 0.85682 0.79371 0.0
H51 H 0.83818 0.79759 0.74646 0.0
C52 C 0.84111 0.79008 0.76242 0.0
C53 C 0.80283 0.81411 0.80381 0.0
C54 C 0.78822 0.82973 0.80691 0.0
C55 C 0.81704 0.81308 0.78499 0.0
C56 C 0.81759 0.82848 0.76957 0.0
C57 C 0.80354 0.84452 0.77283 0.0
C58 C 0.7885 0.84475 0.7913 0.0
N59 N 0.83074 0.79646 0.78257 0.0
H60 H 0.71778 0.28414 0.39927 0.0
H61 H 0.80835 0.32016 0.44515 0.0
H62 H 0.76181 0.34906 0.39118 0.0
H63 H 0.81096 0.28409 0.44125 0.0
C64 C 0.7892 0.27595 0.4447 0.0
C65 C 0.73719 0.29892 0.40482 0.0
C66 C 0.73656 0.31657 0.39307 0.0
C67 C 0.76305 0.29995 0.42335 0.0
C68 C 0.78843 0.31905 0.43058 0.0
C69 C 0.78771 0.33704 0.41941 0.0
C70 C 0.76177 0.33559 0.40067 0.0
N71 N 0.76261 0.2816 0.43455 0.0
H72 H 0.13022 0.28913 0.71677 0.0
H73 H 0.19657 0.2667 0.76267 0.0
H74 H 0.1783 0.32397 0.78988 0.0
H75 H 0.15679 0.23321 0.74082 0.0
C76 C 0.15622 0.23707 0.7228 0.0
C77 C 0.14694 0.29113 0.73403 0.0
C78 C 0.15216 0.30849 0.7529 0.0
C79 C 0.16219 0.2757 0.73762 0.0
C80 C 0.18398 0.27818 0.75991 0.0
C81 C 0.18968 0.29556 0.77869 0.0
C82 C 0.17357 0.31049 0.77525 0.0
N83 N 0.15548 0.25792 0.71853 0.0
H84 H 0.3085 0.83819 0.25736 0.0
H85 H 0.30589 0.77165 0.25243 0.0
H86 H 0.25366 0.79647 0.29428 0.0
H87 H 0.30744 0.77763 0.21187 0.0
C88 C 0.32618 0.79285 0.21696 0.0
C89 C 0.29996 0.82237 0.26194 0.0
C90 C 0.27992 0.81919 0.27681 0.0
C91 C 0.30824 0.80506 0.25221 0.0
C92 C 0.29798 0.78468 0.25877 0.0
C93 C 0.27882 0.7815 0.27451 0.0
C94 C 0.26911 0.79874 0.28271 0.0
N95 N 0.32761 0.80879 0.23643 0.0
C96 C 0.12873 0.59898 0.38856 0.0
C97 C 0.15524 0.61008 0.40705 0.0
C98 C 0.14973 0.60461 0.42823 0.0
C99 C 0.12042 0.59039 0.4215 0.0
N100 N 0.10683 0.58637 0.39727 0.0
Co101 Co 0.06507 0.56567 0.37959 0.0
N102 N 0.05702 0.55778 0.41086 0.0
C103 C 0.07533 0.56648 0.4337 0.0
C104 C 0.06382 0.55757 0.45147 0.0
C105 C 0.03667 0.54207 0.43926 0.0
C106 C 0.0333 0.54241 0.41465 0.0
N107 N 0.02369 0.54441 0.36184 0.0
C108 C 0.00351 0.52997 0.37029 0.0
C109 C 0.97823 0.51716 0.35163 0.0
C110 C 0.98272 0.52359 0.33058 0.0
C111 C 0.0104 0.53981 0.33755 0.0
N112 N 0.07275 0.57397 0.34836 0.0
C113 C 0.05303 0.56676 0.32578 0.0
C114 C 0.06375 0.57632 0.30809 0.0
C115 C 0.09202 0.59054 0.32001 0.0
C116 C 0.09714 0.58864 0.34441 0.0
N117 N 0.08359 0.54217 0.3761 0.0
C118 C 0.10749 0.5076 0.37135 0.0
C119 C 0.09103 0.51312 0.35089 0.0
C120 C 0.07909 0.53021 0.35367 0.0
C121 C 0.11227 0.51978 0.39418 0.0
C122 C 0.10058 0.53708 0.3961 0.0
N123 N 0.04646 0.58923 0.38309 0.0
C124 C 0.01208 0.6084 0.36578 0.0
C125 C 0.0214 0.62353 0.3874 0.0
C126 C 0.04331 0.62098 0.40694 0.0
C127 C 0.05554 0.60398 0.40436 0.0
C128 C 0.02454 0.59148 0.36413 0.0
H129 H 0.07239 0.6032 0.41983 0.0
H130 H 0.01618 0.58056 0.3472 0.0
H131 H 0.06602 0.53327 0.33744 0.0
H132 H 0.10541 0.546 0.41398 0.0
C133 C 0.10472 0.58112 0.43759 0.0
C134 C 0.12533 0.60127 0.36313 0.0
C135 C 0.00793 0.52716 0.39557 0.0
C136 C 0.02478 0.55069 0.3217 0.0
H137 H 0.17636 0.62111 0.40544 0.0
H138 H 0.16517 0.61043 0.44639 0.0
H139 H 0.07449 0.56128 0.4709 0.0
H140 H 0.02147 0.53132 0.44746 0.0
H141 H 0.95883 0.50422 0.35301 0.0
H142 H 0.96789 0.51694 0.31231 0.0
H143 H 0.05233 0.57337 0.28883 0.0
H144 H 0.10698 0.60117 0.31156 0.0
H145 H 0.08673 0.50394 0.33286 0.0
H146 H 0.12522 0.51608 0.41046 0.0
H147 H 0.99558 0.60972 0.34989 0.0
H148 H 0.051 0.63195 0.42428 0.0
C149 C 0.04749 0.57591 0.75466 0.0
C150 C 0.07417 0.58868 0.77208 0.0
C151 C 0.07065 0.58419 0.79409 0.0
C152 C 0.04213 0.5691 0.78891 0.0
N153 N 0.02734 0.56337 0.76487 0.0
Co154 Co 0.98454 0.54308 0.74946 0.0
N155 N 0.97858 0.53754 0.78203 0.0
C156 C 0.99904 0.54628 0.80408 0.0
C157 C 0.98963 0.53804 0.82295 0.0
C158 C 0.96171 0.52282 0.81235 0.0
C159 C 0.95548 0.5228 0.78748 0.0
N160 N 0.94168 0.52306 0.73406 0.0
C161 C 0.92155 0.51054 0.74424 0.0
C162 C 0.89393 0.49906 0.72711 0.0
C163 C 0.89712 0.50394 0.70515 0.0
C164 C 0.92627 0.51819 0.71014 0.0
N165 N 0.99059 0.54831 0.71686 0.0
C166 C 0.97045 0.5392 0.69475 0.0
C167 C 0.98103 0.54616 0.67572 0.0
C168 C 0.00947 0.56082 0.6863 0.0
C169 C 0.01448 0.56202 0.71126 0.0
N170 N 0.00058 0.51818 0.74691 0.0
C171 C 0.02121 0.48176 0.7443 0.0
C172 C 0.99962 0.48433 0.72461 0.0
C173 C 0.98965 0.50248 0.72632 0.0
C174 C 0.03262 0.49786 0.76517 0.0
C175 C 0.02219 0.51581 0.76604 0.0
N176 N 0.96846 0.56802 0.752 0.0
C177 C 0.93849 0.5894 0.73318 0.0
C178 C 0.94806 0.60461 0.75473 0.0
C179 C 0.96758 0.60097 0.77503 0.0
C180 C 0.97738 0.58274 0.77328 0.0
C181 C 0.94884 0.57142 0.73224 0.0
H182 H 0.99247 0.58107 0.78932 0.0
H183 H 0.94079 0.5606 0.71523 0.0
H184 H 0.97282 0.50333 0.71084 0.0
H185 H 0.03182 0.52748 0.78245 0.0
C186 C 0.02805 0.56077 0.80627 0.0
C187 C 0.04152 0.57727 0.7289 0.0
C188 C 0.9284 0.50766 0.76954 0.0
C189 C 0.94077 0.52568 0.69261 0.0
H190 H 0.09383 0.60046 0.76931 0.0
H191 H 0.08661 0.59152 0.81182 0.0
H192 H 0.0022 0.54192 0.84202 0.0
H193 H 0.94819 0.51248 0.82196 0.0
H194 H 0.87397 0.48773 0.73009 0.0
H195 H 0.88062 0.49723 0.68753 0.0
H196 H 0.96907 0.54167 0.65652 0.0
H197 H 0.0245 0.57006 0.67679 0.0
H198 H 0.98996 0.47218 0.7081 0.0
H199 H 0.04979 0.49675 0.78075 0.0
H200 H 0.92291 0.59127 0.71706 0.0
H201 H 0.97586 0.61237 0.79211 0.0
C202 C 0.21697 0.00726 0.51609 0.0
C203 C 0.24611 0.01042 0.53112 0.0
C204 C 0.26518 0.02856 0.52658 0.0
C205 C 0.24667 0.03545 0.50919 0.0
N206 N 0.2168 0.02297 0.50255 0.0
Co207 Co 0.18209 0.02676 0.47753 0.0
N208 N 0.21065 0.05248 0.46949 0.0
C209 C 0.24145 0.06111 0.47931 0.0
C210 C 0.25475 0.07879 0.47023 0.0
C211 C 0.23104 0.08184 0.45382 0.0
C212 C 0.2045 0.06582 0.45396 0.0
N213 N 0.1474 0.0306 0.45249 0.0
C214 C 0.14728 0.04617 0.43871 0.0
C215 C 0.118 0.04327 0.42413 0.0
C216 C 0.09889 0.02529 0.42894 0.0
C217 C 0.11747 0.0183 0.44615 0.0
N218 N 0.15358 0.001 0.48558 0.0
C219 C 0.12282 0.99236 0.47574 0.0
C220 C 0.10968 0.97429 0.48431 0.0
C221 C 0.13351 0.97099 0.50039 0.0
C222 C 0.15987 0.98736 0.5007 0.0
N223 N 0.17459 0.04635 0.50273 0.0
C224 C 0.16401 0.07542 0.53705 0.0
C225 C 0.13985 0.05783 0.52237 0.0
C226 C 0.14557 0.04369 0.50528 0.0
C227 C 0.19354 0.07805 0.53464 0.0
C228 C 0.19833 0.06333 0.51772 0.0
N229 N 0.18962 0.00721 0.45236 0.0
C230 C 0.17139 0.97542 0.42057 0.0
C231 C 0.20131 0.97786 0.41888 0.0
C232 C 0.22503 0.99571 0.43373 0.0
C233 C 0.21878 0.00988 0.45029 0.0
C234 C 0.16609 0.99027 0.43711 0.0
H235 H 0.23807 0.02274 0.4614 0.0
H236 H 0.14283 0.9875 0.4375 0.0
H237 H 0.12611 0.0309 0.49421 0.0
H238 H 0.22144 0.06614 0.51705 0.0
C239 C 0.25701 0.05277 0.49777 0.0
C240 C 0.19051 0.98866 0.51472 0.0
C241 C 0.17395 0.06446 0.43965 0.0
C242 C 0.10725 0.00089 0.4575 0.0
H243 H 0.25296 0.0004 0.54372 0.0
H244 H 0.28974 0.03559 0.53457 0.0
H245 H 0.27874 0.08854 0.47527 0.0
H246 H 0.23297 0.09464 0.44324 0.0
H247 H 0.11107 0.05336 0.41165 0.0
H248 H 0.07425 0.01843 0.42123 0.0
H249 H 0.08577 0.96435 0.47901 0.0
H250 H 0.13178 0.95777 0.51034 0.0
H251 H 0.11655 0.05526 0.52367 0.0
H252 H 0.21299 0.09133 0.54596 0.0
H253 H 0.15213 0.96183 0.40964 0.0
H254 H 0.24852 0.99879 0.43276 0.0
C255 C 0.53704 0.85785 0.05252 0.0
C256 C 0.53399 0.87726 0.06218 0.0
C257 C 0.55542 0.8934 0.05659 0.0
C258 C 0.57018 0.883 0.04381 0.0
N259 N 0.55923 0.86114 0.04059 0.0
Co260 Co 0.57465 0.83978 0.02367 0.0
N261 N 0.60638 0.86361 0.01565 0.0
C262 C 0.61127 0.88516 0.02112 0.0
C263 C 0.63364 0.89745 0.0122 0.0
C264 C 0.64337 0.88287 0.99998 0.0
C265 C 0.62633 0.86248 0.00225 0.0
N266 N 0.59061 0.81842 0.00738 0.0
C267 C 0.61271 0.82169 0.99542 0.0
C268 C 0.61693 0.8024 0.98685 0.0
C269 C 0.59647 0.7863 0.99338 0.0
C270 C 0.58108 0.79665 0.00555 0.0
N271 N 0.5423 0.81589 0.03098 0.0
C272 C 0.53687 0.7943 0.02476 0.0
C273 C 0.51377 0.78186 0.03278 0.0
C274 C 0.50383 0.79628 0.04495 0.0
C275 C 0.52141 0.81686 0.04352 0.0
N276 N 0.54545 0.83855 0.99216 0.0
C277 C 0.50807 0.83701 0.94556 0.0
C278 C 0.51169 0.81813 0.95324 0.0
C279 C 0.53028 0.81926 0.97637 0.0
C280 C 0.52265 0.85661 0.96197 0.0
C281 C 0.54098 0.857 0.98503 0.0
N282 N 0.60414 0.84102 0.05514 0.0
C283 C 0.62573 0.82292 0.08583 0.0
C284 C 0.647 0.84254 0.09923 0.0
C285 C 0.64609 0.86144 0.09025 0.0
C286 C 0.62449 0.86034 0.06852 0.0
C287 C 0.60494 0.82252 0.06401 0.0
H288 H 0.62484 0.87536 0.06293 0.0
H289 H 0.58976 0.80699 0.05472 0.0
H290 H 0.53232 0.80431 0.98095 0.0
H291 H 0.5517 0.87245 0.99661 0.0
C292 C 0.59412 0.89329 0.03437 0.0
C293 C 0.51852 0.83678 0.05543 0.0
C294 C 0.62922 0.84253 0.99073 0.0
C295 C 0.55582 0.78627 0.01347 0.0
H296 H 0.51802 0.87952 0.07233 0.0
H297 H 0.55978 0.91067 0.06134 0.0
H298 H 0.64157 0.91491 0.01403 0.0
H299 H 0.66074 0.88676 0.9902 0.0
H300 H 0.63271 0.80017 0.97648 0.0
H301 H 0.59261 0.76905 0.9891 0.0
H302 H 0.50587 0.76439 0.0308 0.0
H303 H 0.4862 0.79199 0.05438 0.0
H304 H 0.50021 0.80244 0.94146 0.0
H305 H 0.52058 0.8717 0.95691 0.0
H306 H 0.62478 0.80781 0.09217 0.0
H307 H 0.66218 0.87708 0.0997 0.0
C308 C 0.8131 0.03341 0.64109 0.0
C309 C 0.84178 0.0353 0.65608 0.0
C310 C 0.86192 0.0536 0.65289 0.0
C311 C 0.84456 0.06173 0.6361 0.0
N312 N 0.8144 0.0499 0.62855 0.0
Co313 Co 0.78149 0.055 0.60288 0.0
N314 N 0.81171 0.08103 0.59686 0.0
C315 C 0.84204 0.08954 0.60857 0.0
C316 C 0.85658 0.10815 0.60163 0.0
C317 C 0.83425 0.11189 0.58451 0.0
C318 C 0.80725 0.09511 0.58177 0.0
N319 N 0.74868 0.05986 0.57693 0.0
C320 C 0.75039 0.07543 0.56303 0.0
C321 C 0.72223 0.07243 0.54656 0.0
C322 C 0.70185 0.05464 0.55054 0.0
C323 C 0.71868 0.04768 0.56897 0.0
N324 N 0.75119 0.02916 0.60913 0.0
C325 C 0.72051 0.0214 0.59855 0.0
C326 C 0.70576 0.00344 0.60652 0.0
C327 C 0.72839 0.99929 0.62299 0.0
C328 C 0.75578 0.01496 0.62397 0.0
N329 N 0.77278 0.07407 0.62788 0.0
C330 C 0.76044 0.10174 0.66283 0.0
C331 C 0.73656 0.08599 0.64518 0.0
C332 C 0.74319 0.07256 0.628 0.0
C333 C 0.79062 0.10323 0.66274 0.0
C334 C 0.79621 0.0893 0.6454 0.0
N335 N 0.79015 0.03586 0.57802 0.0
C336 C 0.77265 0.00413 0.54629 0.0
C337 C 0.80276 0.00646 0.54527 0.0
C338 C 0.82636 0.02416 0.56054 0.0
C339 C 0.81961 0.03852 0.57663 0.0
C340 C 0.76692 0.01896 0.56247 0.0
H341 H 0.83864 0.05151 0.58794 0.0
H342 H 0.74349 0.01618 0.56234 0.0
H343 H 0.7239 0.06114 0.61494 0.0
H344 H 0.81968 0.09131 0.64646 0.0
C345 C 0.85613 0.07991 0.62638 0.0
C346 C 0.78561 0.0152 0.63862 0.0
C347 C 0.77787 0.09356 0.56505 0.0
C348 C 0.70669 0.0303 0.57978 0.0
H349 H 0.84774 0.02437 0.66776 0.0
H350 H 0.88646 0.05993 0.66134 0.0
H351 H 0.88049 0.11801 0.60849 0.0
H352 H 0.83755 0.12565 0.5754 0.0
H353 H 0.71686 0.0822 0.53318 0.0
H354 H 0.67759 0.04774 0.5413 0.0
H355 H 0.68158 0.99412 0.60056 0.0
H356 H 0.72519 0.98597 0.63281 0.0
H357 H 0.71275 0.08387 0.64461 0.0
H358 H 0.81004 0.11536 0.67571 0.0
H359 H 0.7535 0.99063 0.53506 0.0
H360 H 0.85003 0.02701 0.56011 0.0
C361 C 0.43224 0.34018 0.11822 0.0
C362 C 0.43246 0.36048 0.12838 0.0
C363 C 0.45482 0.3753 0.12206 0.0
C364 C 0.46704 0.36328 0.10858 0.0
N365 N 0.45364 0.34164 0.10564 0.0
Co366 Co 0.46564 0.31824 0.08864 0.0
N367 N 0.49931 0.3401 0.08004 0.0
C368 C 0.50712 0.36194 0.08571 0.0
C369 C 0.52907 0.37274 0.07546 0.0
C370 C 0.53545 0.35692 0.06215 0.0
C371 C 0.5172 0.33721 0.0653 0.0
N372 N 0.47781 0.29485 0.07195 0.0
C373 C 0.499 0.29628 0.05921 0.0
C374 C 0.50085 0.27603 0.05112 0.0
C375 C 0.47927 0.26123 0.05822 0.0
C376 C 0.46578 0.27322 0.07043 0.0
N377 N 0.43166 0.29634 0.09679 0.0
C378 C 0.42341 0.2745 0.09074 0.0
C379 C 0.39905 0.26374 0.0987 0.0
C380 C 0.39143 0.27961 0.1108 0.0
C381 C 0.41184 0.29921 0.10964 0.0
N382 N 0.43678 0.31817 0.05745 0.0
C383 C 0.3976 0.31796 0.0123 0.0
C384 C 0.39816 0.29862 0.02016 0.0
C385 C 0.41795 0.29908 0.04253 0.0
C386 C 0.41668 0.33743 0.02741 0.0
C387 C 0.4357 0.33717 0.04988 0.0
N388 N 0.49457 0.31832 0.11994 0.0
C389 C 0.51293 0.29915 0.15081 0.0
C390 C 0.53374 0.31843 0.16529 0.0
C391 C 0.53479 0.33767 0.15656 0.0
C392 C 0.51519 0.33725 0.13405 0.0
C393 C 0.49387 0.29945 0.12841 0.0
H394 H 0.51709 0.35246 0.12855 0.0
H395 H 0.47856 0.28419 0.11846 0.0
H396 H 0.41786 0.28379 0.04725 0.0
H397 H 0.44943 0.35253 0.06074 0.0
C398 C 0.4916 0.37181 0.099 0.0
C399 C 0.41226 0.32002 0.12193 0.0
C400 C 0.51656 0.3162 0.05311 0.0
C401 C 0.44025 0.26458 0.07892 0.0
H402 H 0.41833 0.36423 0.13959 0.0
H403 H 0.46176 0.39276 0.1271 0.0
H404 H 0.53838 0.39006 0.07668 0.0
H405 H 0.5511 0.35977 0.05084 0.0
H406 H 0.51568 0.27229 0.04058 0.0
H407 H 0.47345 0.24378 0.05428 0.0
H408 H 0.38856 0.24641 0.09647 0.0
H409 H 0.3733 0.27704 0.11989 0.0
H410 H 0.38383 0.28316 0.00885 0.0
H411 H 0.41668 0.3528 0.02204 0.0
H412 H 0.51088 0.28381 0.15685 0.0
H413 H 0.55085 0.35303 0.16691 0.0
H414 H 0.15629 0.3237 0.33569 0.0
H415 H 0.14077 0.35457 0.34851 0.0
H416 H 0.22116 0.3979 0.33561 0.0
H417 H 0.23853 0.36735 0.32521 0.0
H418 H 0.21226 0.41627 0.37273 0.0
H419 H 0.14536 0.38053 0.29376 0.0
H420 H 0.1084 0.34999 0.2625 0.0
H421 H 0.04379 0.34267 0.30546 0.0
H422 H 0.08055 0.37301 0.33714 0.0
H423 H 0.1449 0.50078 0.34366 0.0
H424 H 0.16319 0.46932 0.33885 0.0
H425 H 0.11343 0.4408 0.38787 0.0
H426 H 0.09585 0.47254 0.39333 0.0
H427 H 0.10582 0.41509 0.33463 0.0
H428 H 0.17655 0.45405 0.41309 0.0
H429 H 0.21455 0.48669 0.44054 0.0
H430 H 0.27323 0.49012 0.39282 0.0
H431 H 0.2353 0.45768 0.36487 0.0
C432 C 0.17113 0.33979 0.33609 0.0
C433 C 0.19859 0.34286 0.32909 0.0
C434 C 0.16189 0.35747 0.34305 0.0
C435 C 0.17931 0.37859 0.3424 0.0
C436 C 0.20711 0.38178 0.33608 0.0
C437 C 0.21679 0.36417 0.32973 0.0
C438 C 0.16841 0.39735 0.34788 0.0
C439 C 0.18903 0.41597 0.36421 0.0
C440 C 0.13801 0.39708 0.33697 0.0
C441 C 0.11583 0.37889 0.31792 0.0
C442 C 0.12335 0.37231 0.29661 0.0
C443 C 0.10243 0.35505 0.27881 0.0
C444 C 0.0738 0.34436 0.28202 0.0
C445 C 0.066 0.35095 0.30302 0.0
C446 C 0.08685 0.36818 0.32089 0.0
C447 C 0.13808 0.48783 0.35349 0.0
C448 C 0.1191 0.48898 0.36888 0.0
C449 C 0.14853 0.46997 0.35078 0.0
C450 C 0.13965 0.4529 0.36308 0.0
C451 C 0.12055 0.45393 0.37835 0.0
C452 C 0.11065 0.47201 0.38149 0.0
C453 C 0.14965 0.43366 0.35931 0.0
C454 C 0.1289 0.4151 0.34323 0.0
C455 C 0.18006 0.43418 0.36991 0.0
C456 C 0.20293 0.45359 0.38676 0.0
C457 C 0.19739 0.4619 0.40831 0.0
C458 C 0.21896 0.48033 0.424 0.0
C459 C 0.24624 0.49051 0.41839 0.0
C460 C 0.25206 0.48224 0.39712 0.0
C461 C 0.23055 0.46382 0.38136 0.0
H462 H 0.26292 0.50478 0.43056 0.0
H463 H 0.05763 0.331 0.26822 0.0
H464 H 0.18297 0.75992 0.68002 0.0
H465 H 0.14602 0.7257 0.68163 0.0
H466 H 0.219 0.69725 0.69667 0.0
H467 H 0.25598 0.73126 0.69443 0.0
H468 H 0.16575 0.66841 0.66603 0.0
H469 H 0.19701 0.71761 0.7426 0.0
H470 H 0.20535 0.75214 0.76926 0.0
H471 H 0.10883 0.74414 0.74593 0.0
H472 H 0.09998 0.7097 0.71884 0.0
H473 H 0.09998 0.58401 0.72508 0.0
H474 H 0.13265 0.61567 0.7138 0.0
H475 H 0.05851 0.64333 0.70321 0.0
H476 H 0.02624 0.61189 0.71508 0.0
H477 H 0.11079 0.67246 0.72969 0.0
H478 H 0.07915 0.62154 0.65488 0.0
H479 H 0.07143 0.58678 0.62897 0.0
H480 H 0.16882 0.59751 0.64942 0.0
H481 H 0.17709 0.6322 0.67576 0.0
C482 C 0.19104 0.74623 0.6831 0.0
C483 C 0.22244 0.74833 0.68732 0.0
C484 C 0.16994 0.72674 0.6842 0.0
C485 C 0.17988 0.70906 0.68965 0.0
C486 C 0.21089 0.71073 0.69254 0.0
C487 C 0.23201 0.73021 0.69146 0.0
C488 C 0.15845 0.6894 0.69405 0.0
C489 C 0.15387 0.66922 0.68005 0.0
C490 C 0.14265 0.69057 0.71212 0.0
C491 C 0.14789 0.71121 0.7285 0.0
C492 C 0.1776 0.7233 0.74301 0.0
C493 C 0.18242 0.74284 0.75822 0.0
C494 C 0.15765 0.75036 0.75923 0.0
C495 C 0.128 0.73832 0.74509 0.0
C496 C 0.12307 0.71878 0.72981 0.0
C497 C 0.09081 0.59688 0.72022 0.0
C498 C 0.06089 0.59579 0.72099 0.0
C499 C 0.1093 0.61484 0.71365 0.0
C500 C 0.09791 0.63178 0.70745 0.0
C501 C 0.06775 0.63045 0.70792 0.0
C502 C 0.04935 0.61255 0.7146 0.0
C503 C 0.11787 0.65136 0.70159 0.0
C504 C 0.12234 0.67158 0.71546 0.0
C505 C 0.13359 0.65017 0.68345 0.0
C506 C 0.12871 0.6294 0.66746 0.0
C507 C 0.0989 0.61642 0.65399 0.0
C508 C 0.09443 0.59673 0.63921 0.0
C509 C 0.11961 0.58992 0.63759 0.0
C510 C 0.14933 0.6028 0.65071 0.0
C511 C 0.15393 0.62249 0.66555 0.0
H512 H 0.1161 0.57467 0.62613 0.0
H513 H 0.16143 0.76549 0.77102 0.0
H514 H 0.87529 0.76115 0.35754 0.0
H515 H 0.89652 0.73116 0.36066 0.0
H516 H 0.9719 0.77095 0.42102 0.0
H517 H 0.9505 0.80106 0.41816 0.0
H518 H 0.98941 0.74867 0.38362 0.0
H519 H 0.91907 0.73379 0.43346 0.0
H520 H 0.86878 0.72791 0.4422 0.0
H521 H 0.82813 0.67347 0.38314 0.0
H522 H 0.87811 0.67922 0.37382 0.0
H523 H 0.05094 0.66512 0.41301 0.0
H524 H 0.03024 0.69521 0.41553 0.0
H525 H 0.94318 0.65444 0.36743 0.0
H526 H 0.96286 0.6238 0.36636 0.0
H527 H 0.93243 0.6782 0.40052 0.0
H528 H 0.99867 0.69283 0.34812 0.0
H529 H 0.04693 0.69824 0.3361 0.0
H530 H 0.0928 0.75229 0.39518 0.0
H531 H 0.04489 0.74702 0.40776 0.0
C532 C 0.89635 0.76353 0.37151 0.0
C533 C 0.91138 0.78346 0.38759 0.0
C534 C 0.90838 0.74635 0.37331 0.0
C535 C 0.93569 0.74884 0.39112 0.0
C536 C 0.95078 0.76874 0.40717 0.0
C537 C 0.93854 0.78586 0.40556 0.0
C538 C 0.94874 0.73075 0.3926 0.0
C539 C 0.97726 0.73336 0.3877 0.0
C540 C 0.93231 0.71061 0.39715 0.0
C541 C 0.90228 0.70706 0.40281 0.0
C542 C 0.89935 0.72068 0.42221 0.0
C543 C 0.87091 0.71735 0.42729 0.0
C544 C 0.84526 0.70036 0.4132 0.0
C545 C 0.84801 0.68663 0.39403 0.0
C546 C 0.8764 0.68991 0.38885 0.0
C547 C 0.02719 0.66236 0.40331 0.0
C548 C 0.0087 0.64193 0.38934 0.0
C549 C 0.01552 0.67974 0.40447 0.0
C550 C 0.98532 0.67728 0.39124 0.0
C551 C 0.96662 0.65683 0.37769 0.0
C552 C 0.97809 0.63935 0.37684 0.0
C553 C 0.97321 0.69597 0.39138 0.0
C554 C 0.94479 0.69351 0.39655 0.0
C555 C 0.98946 0.71613 0.38659 0.0
C556 C 0.01828 0.71938 0.37903 0.0
C557 C 0.01911 0.70577 0.35866 0.0
C558 C 0.04639 0.70883 0.35173 0.0
C559 C 0.07293 0.72556 0.36491 0.0
C560 C 0.07223 0.73931 0.38501 0.0
C561 C 0.04502 0.73631 0.39204 0.0
H562 H 0.09403 0.7279 0.35952 0.0
H563 H 0.82326 0.69781 0.41716 0.0
H564 H 0.7703 0.35236 0.85495 0.0
H565 H 0.80227 0.38581 0.84672 0.0
H566 H 0.79523 0.35274 0.77554 0.0
H567 H 0.76166 0.31959 0.78277 0.0
H568 H 0.85922 0.38084 0.8085 0.0
H569 H 0.75431 0.38012 0.77247 0.0
H570 H 0.70162 0.37773 0.77415 0.0
H571 H 0.7374 0.43295 0.83232 0.0
H572 H 0.79036 0.43545 0.83121 0.0
H573 H 0.92055 0.46587 0.7513 0.0
H574 H 0.88913 0.4331 0.76115 0.0
H575 H 0.86397 0.4724 0.81334 0.0
H576 H 0.89311 0.50514 0.80164 0.0
H577 H 0.81723 0.4411 0.79266 0.0
H578 H 0.92089 0.44466 0.82883 0.0
H579 H 0.97475 0.44808 0.83005 0.0
H580 H 0.94472 0.3893 0.7773 0.0
H581 H 0.89063 0.38567 0.77549 0.0
C582 C 0.77511 0.35219 0.83738 0.0
C583 C 0.76321 0.33314 0.81953 0.0
C584 C 0.79366 0.37129 0.83285 0.0
C585 C 0.80109 0.37161 0.81059 0.0
C586 C 0.78989 0.35267 0.79292 0.0
C587 C 0.77084 0.3337 0.7972 0.0
C588 C 0.81985 0.3919 0.80538 0.0
C589 C 0.85012 0.39401 0.80482 0.0
C590 C 0.80809 0.40921 0.80143 0.0
C591 C 0.77628 0.4078 0.80196 0.0
C592 C 0.75095 0.39161 0.78578 0.0
C593 C 0.72104 0.39027 0.78659 0.0
C594 C 0.71617 0.40513 0.80338 0.0
C595 C 0.74121 0.42142 0.81935 0.0
C596 C 0.77117 0.42281 0.81863 0.0
C597 C 0.90815 0.46741 0.7648 0.0
C598 C 0.90969 0.48792 0.77615 0.0
C599 C 0.89049 0.44871 0.77065 0.0
C600 C 0.8749 0.45018 0.78862 0.0
C601 C 0.876 0.47076 0.79962 0.0
C602 C 0.89288 0.48946 0.79316 0.0
C603 C 0.857 0.43028 0.79557 0.0
C604 C 0.82674 0.42815 0.7965 0.0
C605 C 0.8691 0.41314 0.80044 0.0
C606 C 0.90167 0.41499 0.80189 0.0
C607 C 0.92576 0.4325 0.81741 0.0
C608 C 0.95633 0.43448 0.8182 0.0
C609 C 0.96315 0.41895 0.80371 0.0
C610 C 0.9394 0.40133 0.78849 0.0
C611 C 0.90878 0.39929 0.7876 0.0
H612 H 0.98683 0.42054 0.8043 0.0
H613 H 0.69299 0.40407 0.80398 0.0
H614 H 0.19596 0.24661 0.36757 0.0
H615 H 0.1881 0.21531 0.38788 0.0
H616 H 0.17698 0.1735 0.32072 0.0
H617 H 0.18458 0.20479 0.30022 0.0
H618 H 0.13438 0.15569 0.34424 0.0
H619 H 0.24398 0.1891 0.36401 0.0
H620 H 0.29281 0.2191 0.37956 0.0
H621 H 0.27643 0.22691 0.45006 0.0
H622 H 0.22726 0.19713 0.43482 0.0
H623 H 0.16366 0.06468 0.39108 0.0
H624 H 0.16293 0.09575 0.37072 0.0
H625 H 0.17602 0.13566 0.43974 0.0
H626 H 0.17701 0.1046 0.46002 0.0
H627 H 0.21587 0.15483 0.416 0.0
H628 H 0.10737 0.11982 0.39674 0.0
H629 H 0.05906 0.08939 0.38116 0.0
H630 H 0.07335 0.08418 0.30981 0.0
H631 H 0.12204 0.11438 0.32504 0.0
C632 C 0.19173 0.23075 0.3571 0.0
C633 C 0.19098 0.22808 0.33232 0.0
C634 C 0.18731 0.21289 0.36875 0.0
C635 C 0.18223 0.19212 0.35585 0.0
C636 C 0.18085 0.18939 0.33099 0.0
C637 C 0.18531 0.20724 0.31935 0.0
C638 C 0.17911 0.17331 0.36841 0.0
C639 C 0.1523 0.15538 0.35978 0.0
C640 C 0.20223 0.17314 0.389 0.0
C641 C 0.23178 0.19105 0.3982 0.0
C642 C 0.25066 0.19734 0.38277 0.0
C643 C 0.27842 0.21428 0.39154 0.0
C644 C 0.28767 0.22495 0.41576 0.0
C645 C 0.26921 0.21866 0.43129 0.0
C646 C 0.2414 0.20174 0.4226 0.0
C647 C 0.16584 0.08005 0.40169 0.0
C648 C 0.17017 0.08243 0.42694 0.0
C649 C 0.16539 0.09772 0.39014 0.0
C650 C 0.1692 0.11798 0.40371 0.0
C651 C 0.17299 0.12018 0.42894 0.0
C652 C 0.17342 0.10251 0.44047 0.0
C653 C 0.17112 0.13716 0.39186 0.0
C654 C 0.19779 0.15516 0.40057 0.0
C655 C 0.14788 0.13735 0.37136 0.0
C656 C 0.11852 0.11925 0.36209 0.0
C657 C 0.10035 0.11208 0.37777 0.0
C658 C 0.07288 0.09489 0.36899 0.0
C659 C 0.06318 0.08483 0.34453 0.0
C660 C 0.08091 0.09198 0.32877 0.0
C661 C 0.10844 0.10915 0.33746 0.0
H662 H 0.04189 0.07152 0.33777 0.0
H663 H 0.30918 0.23805 0.42251 0.0
H664 H 0.31028 0.83423 0.74664 0.0
H665 H 0.35067 0.84401 0.78516 0.0
H666 H 0.37728 0.78817 0.76454 0.0
H667 H 0.33618 0.77801 0.72648 0.0
H668 H 0.37095 0.78887 0.80774 0.0
H669 H 0.42279 0.84234 0.7678 0.0
H670 H 0.42892 0.87256 0.74522 0.0
H671 H 0.41663 0.91287 0.80379 0.0
H672 H 0.41001 0.8828 0.8266 0.0
H673 H 0.50576 0.81225 0.90324 0.0
H674 H 0.47253 0.80877 0.86258 0.0
H675 H 0.43558 0.85658 0.89019 0.0
H676 H 0.46834 0.85988 0.93119 0.0
H677 H 0.44796 0.86111 0.84404 0.0
H678 H 0.39517 0.80656 0.8831 0.0
H679 H 0.39055 0.77625 0.90553 0.0
H680 H 0.40637 0.73771 0.84736 0.0
H681 H 0.41155 0.76794 0.82474 0.0
C682 C 0.32519 0.82434 0.7502 0.0
C683 C 0.3202 0.80538 0.7337 0.0
C684 C 0.34832 0.82994 0.77217 0.0
C685 C 0.36722 0.81691 0.77774 0.0
C686 C 0.36295 0.79844 0.76073 0.0
C687 C 0.33956 0.79266 0.73899 0.0
C688 C 0.3897 0.82142 0.80202 0.0
C689 C 0.3881 0.8046 0.81541 0.0
C690 C 0.41155 0.8421 0.81246 0.0
C691 C 0.41561 0.86024 0.79881 0.0
C692 C 0.42115 0.8576 0.77579 0.0
C693 C 0.42476 0.87471 0.76296 0.0
C694 C 0.42308 0.8946 0.77303 0.0
C695 C 0.41788 0.89744 0.796 0.0
C696 C 0.41423 0.88038 0.80889 0.0
C697 C 0.49048 0.82197 0.90075 0.0
C698 C 0.48938 0.8361 0.92057 0.0
C699 C 0.4717 0.82008 0.87746 0.0
C700 C 0.45144 0.83228 0.87348 0.0
C701 C 0.45114 0.84707 0.89293 0.0
C702 C 0.46988 0.84893 0.91632 0.0
C703 C 0.4293 0.82849 0.84931 0.0
C704 C 0.43085 0.84542 0.83612 0.0
C705 C 0.4075 0.80787 0.83889 0.0
C706 C 0.40403 0.78958 0.85233 0.0
C707 C 0.39789 0.79168 0.87517 0.0
C708 C 0.39514 0.77451 0.88791 0.0
C709 C 0.39824 0.75508 0.8779 0.0
C710 C 0.40401 0.75278 0.8551 0.0
C711 C 0.40683 0.76992 0.84231 0.0
H712 H 0.39611 0.74181 0.88779 0.0
H713 H 0.42588 0.90783 0.76307 0.0
H714 H 0.88703 0.86796 0.41868 0.0
H715 H 0.88229 0.89445 0.45002 0.0
H716 H 0.78907 0.88487 0.40908 0.0
H717 H 0.79314 0.85795 0.37823 0.0
H718 H 0.82747 0.92872 0.42187 0.0
H719 H 0.7993 0.86548 0.4585 0.0
H720 H 0.80742 0.8337 0.47502 0.0
H721 H 0.88904 0.8748 0.52855 0.0
H722 H 0.88164 0.90682 0.51211 0.0
H723 H 0.76843 0.98532 0.49916 0.0
H724 H 0.7781 0.95789 0.47271 0.0
H725 H 0.86243 0.96437 0.52644 0.0
H726 H 0.85194 0.99092 0.55375 0.0
H727 H 0.83368 0.92335 0.50833 0.0
H728 H 0.86215 0.98663 0.47404 0.0
H729 H 0.85634 0.01905 0.45783 0.0
H730 H 0.77825 0.97925 0.40016 0.0
H731 H 0.78332 0.9466 0.41623 0.0
C732 C 0.86532 0.87116 0.41661 0.0
C733 C 0.8406 0.86105 0.39577 0.0
C734 C 0.86271 0.88636 0.43447 0.0
C735 C 0.83541 0.89169 0.43171 0.0
C736 C 0.81043 0.88111 0.41139 0.0
C737 C 0.81288 0.86582 0.39372 0.0
C738 C 0.83313 0.90908 0.44924 0.0
C739 C 0.82852 0.9275 0.44073 0.0
C740 C 0.83567 0.90774 0.474 0.0
C741 C 0.84012 0.88851 0.48389 0.0
C742 C 0.81915 0.86772 0.47364 0.0
C743 C 0.82358 0.84967 0.48302 0.0
C744 C 0.84879 0.85222 0.50277 0.0
C745 C 0.86956 0.87284 0.51323 0.0
C746 C 0.86525 0.89095 0.50389 0.0
C747 C 0.7889 0.98079 0.50554 0.0
C748 C 0.8094 0.99041 0.52865 0.0
C749 C 0.79461 0.96527 0.49021 0.0
C750 C 0.82128 0.9593 0.49739 0.0
C751 C 0.84179 0.96879 0.52044 0.0
C752 C 0.83592 0.98418 0.53593 0.0
C753 C 0.82739 0.94294 0.48087 0.0
C754 C 0.83284 0.92473 0.48954 0.0
C755 C 0.82605 0.94459 0.45627 0.0
C756 C 0.82298 0.96418 0.44647 0.0
C757 C 0.84361 0.9848 0.458 0.0
C758 C 0.84046 0.00322 0.44882 0.0
C759 C 0.8169 0.00121 0.42801 0.0
C760 C 0.79648 0.98078 0.41629 0.0
C761 C 0.79949 0.96231 0.42541 0.0
H762 H 0.81451 0.01549 0.42093 0.0
H763 H 0.85217 0.83823 0.51002 0.0
H764 H 0.70138 0.33825 0.91991 0.0
H765 H 0.66922 0.33693 0.94807 0.0
H766 H 0.59751 0.28369 0.8979 0.0
H767 H 0.6298 0.28477 0.86967 0.0
H768 H 0.57727 0.31777 0.91924 0.0
H769 H 0.63712 0.27098 0.94307 0.0
H770 H 0.68502 0.26159 0.95447 0.0
H771 H 0.72075 0.31371 0.01616 0.0
H772 H 0.67322 0.3236 0.00492 0.0
H773 H 0.49128 0.29635 0.00566 0.0
H774 H 0.51769 0.2928 0.97411 0.0
H775 H 0.60431 0.33054 0.02545 0.0
H776 H 0.57817 0.33202 0.05752 0.0
H777 H 0.61444 0.30125 0.00093 0.0
H778 H 0.55775 0.35034 0.97669 0.0
H779 H 0.51091 0.36111 0.96581 0.0
H780 H 0.47079 0.30748 0.90578 0.0
H781 H 0.51726 0.29626 0.91647 0.0
C782 C 0.67872 0.3263 0.91487 0.0
C783 C 0.66816 0.31152 0.89275 0.0
C784 C 0.66042 0.32556 0.93095 0.0
C785 C 0.63112 0.31011 0.9251 0.0
C786 C 0.62009 0.29569 0.9027 0.0
C787 C 0.63859 0.29627 0.88668 0.0
C788 C 0.61257 0.30881 0.94284 0.0
C789 C 0.58508 0.31389 0.93702 0.0
C790 C 0.6232 0.30417 0.96613 0.0
C791 C 0.65171 0.29814 0.97303 0.0
C792 C 0.65529 0.28054 0.95896 0.0
C793 C 0.68236 0.27511 0.96541 0.0
C794 C 0.70594 0.28708 0.98599 0.0
C795 C 0.70247 0.30446 0.00021 0.0
C796 C 0.67546 0.30997 0.99382 0.0
C797 C 0.51599 0.30378 0.01011 0.0
C798 C 0.5327 0.31483 0.03382 0.0
C799 C 0.53105 0.30198 0.99203 0.0
C800 C 0.56298 0.31196 0.99707 0.0
C801 C 0.57967 0.3228 0.02093 0.0
C802 C 0.56474 0.3239 0.0392 0.0
C803 C 0.57928 0.31085 0.97779 0.0
C804 C 0.6064 0.30518 0.98323 0.0
C805 C 0.5685 0.3153 0.95429 0.0
C806 C 0.54088 0.32237 0.9475 0.0
C807 C 0.5389 0.34082 0.96121 0.0
C808 C 0.51241 0.347 0.95508 0.0
C809 C 0.48784 0.33495 0.93516 0.0
C810 C 0.4898 0.31678 0.92123 0.0
C811 C 0.51623 0.31052 0.92729 0.0
H812 H 0.46732 0.33972 0.93048 0.0
H813 H 0.72688 0.28285 0.99096 0.0
H814 H 0.2166 0.83504 0.63323 0.0
H815 H 0.20106 0.85977 0.60778 0.0
H816 H 0.29639 0.89453 0.61575 0.0
H817 H 0.31207 0.87004 0.64164 0.0
H818 H 0.26611 0.92201 0.62175 0.0
H819 H 0.25086 0.85966 0.5627 0.0
H820 H 0.23079 0.82099 0.54361 0.0
H821 H 0.13824 0.82275 0.53268 0.0
H822 H 0.15776 0.86138 0.55201 0.0
H823 H 0.21301 0.95729 0.49965 0.0
H824 H 0.22556 0.92956 0.52195 0.0
H825 H 0.19145 0.9525 0.57993 0.0
H826 H 0.17917 0.98031 0.55764 0.0
H827 H 0.19265 0.89602 0.53946 0.0
H828 H 0.2412 0.95255 0.63384 0.0
H829 H 0.26454 0.99162 0.65085 0.0
H830 H 0.29737 0.00185 0.58781 0.0
H831 H 0.27473 0.96283 0.57065 0.0
C832 C 0.23426 0.8479 0.6295 0.0
C833 C 0.2656 0.85063 0.63933 0.0
C834 C 0.22533 0.86197 0.61487 0.0
C835 C 0.24755 0.87887 0.60964 0.0
C836 C 0.27885 0.88161 0.61953 0.0
C837 C 0.28778 0.8676 0.63424 0.0
C838 C 0.23824 0.89398 0.59428 0.0
C839 C 0.25002 0.91629 0.60378 0.0
C840 C 0.2176 0.88658 0.57066 0.0
C841 C 0.20578 0.86336 0.55901 0.0
C842 C 0.22622 0.85176 0.5564 0.0
C843 C 0.21495 0.82986 0.5455 0.0
C844 C 0.18326 0.81941 0.53699 0.0
C845 C 0.16278 0.83086 0.53931 0.0
C846 C 0.17394 0.85276 0.55021 0.0
C847 C 0.20791 0.95611 0.51703 0.0
C848 C 0.19523 0.97072 0.52711 0.0
C849 C 0.21495 0.94032 0.52968 0.0
C850 C 0.20966 0.93911 0.55266 0.0
C851 C 0.19596 0.9533 0.56232 0.0
C852 C 0.18889 0.96907 0.54964 0.0
C853 C 0.22014 0.9239 0.56715 0.0
C854 C 0.20861 0.90165 0.55749 0.0
C855 C 0.24155 0.93136 0.5904 0.0
C856 C 0.25598 0.95479 0.60087 0.0
C857 C 0.25355 0.96312 0.62368 0.0
C858 C 0.26665 0.98526 0.63334 0.0
C859 C 0.28235 0.99922 0.62039 0.0
C860 C 0.28513 0.99104 0.5978 0.0
C861 C 0.27216 0.96891 0.5881 0.0
H862 H 0.29241 0.01636 0.62787 0.0
H863 H 0.17457 0.80245 0.52856 0.0
H864 H 0.8317 0.87143 0.31326 0.0
H865 H 0.80324 0.87369 0.27284 0.0
H866 H 0.77688 0.80438 0.25133 0.0
H867 H 0.80392 0.80171 0.29214 0.0
H868 H 0.79864 0.83262 0.21581 0.0
H869 H 0.72656 0.81897 0.26555 0.0
H870 H 0.71026 0.82692 0.30246 0.0
H871 H 0.71542 0.89095 0.28897 0.0
H872 H 0.73226 0.88348 0.25217 0.0
H873 H 0.6758 0.81234 0.11065 0.0
H874 H 0.71046 0.81235 0.14919 0.0
H875 H 0.70673 0.87484 0.17838 0.0
H876 H 0.66987 0.87411 0.14054 0.0
H877 H 0.70277 0.85163 0.21065 0.0
H878 H 0.77151 0.86686 0.16097 0.0
H879 H 0.79113 0.86206 0.12513 0.0
H880 H 0.79669 0.79991 0.13885 0.0
H881 H 0.77669 0.80419 0.1746 0.0
C882 C 0.81973 0.8566 0.30005 0.0
C883 C 0.81975 0.83633 0.30615 0.0
C884 C 0.80376 0.85799 0.27689 0.0
C885 C 0.78793 0.8392 0.25927 0.0
C886 C 0.78912 0.81906 0.26476 0.0
C887 C 0.8047 0.81759 0.28807 0.0
C888 C 0.76842 0.84049 0.2357 0.0
C889 C 0.77748 0.83653 0.2145 0.0
C890 C 0.74151 0.84636 0.23435 0.0
C891 C 0.73099 0.85075 0.25627 0.0
C892 C 0.72449 0.83481 0.27058 0.0
C893 C 0.7151 0.83921 0.29145 0.0
C894 C 0.71189 0.85945 0.2981 0.0
C895 C 0.71797 0.8753 0.28383 0.0
C896 C 0.72741 0.87098 0.26295 0.0
C897 C 0.68194 0.826 0.12531 0.0
C898 C 0.66975 0.84318 0.12237 0.0
C899 C 0.70232 0.82616 0.14728 0.0
C900 C 0.71173 0.84377 0.16664 0.0
C901 C 0.69995 0.86108 0.1637 0.0
C902 C 0.67908 0.86075 0.14188 0.0
C903 C 0.7327 0.84365 0.1903 0.0
C904 C 0.72396 0.84782 0.21169 0.0
C905 C 0.76026 0.83842 0.19183 0.0
C906 C 0.77233 0.83577 0.17035 0.0
C907 C 0.77669 0.85209 0.15625 0.0
C908 C 0.78792 0.84948 0.13596 0.0
C909 C 0.79508 0.83067 0.12969 0.0
C910 C 0.7911 0.81446 0.14372 0.0
C911 C 0.77985 0.81698 0.16402 0.0
H912 H 0.80377 0.82868 0.11398 0.0
H913 H 0.70463 0.86284 0.31427 0.0
H914 H 0.67817 0.2435 0.78089 0.0
H915 H 0.68229 0.21144 0.75736 0.0
H916 H 0.7741 0.22396 0.80351 0.0
H917 H 0.77041 0.25663 0.82611 0.0
H918 H 0.77568 0.2169 0.75985 0.0
H919 H 0.70878 0.17938 0.80346 0.0
H920 H 0.66318 0.16979 0.81925 0.0
H921 H 0.60427 0.14938 0.7462 0.0
H922 H 0.6495 0.15913 0.72996 0.0
H923 H 0.7926 0.11796 0.71078 0.0
H924 H 0.78405 0.14461 0.73932 0.0
H925 H 0.70466 0.14567 0.68491 0.0
H926 H 0.71364 0.11972 0.65583 0.0
H927 H 0.6968 0.14429 0.73378 0.0
H928 H 0.76568 0.18408 0.69139 0.0
H929 H 0.81231 0.19279 0.67685 0.0
H930 H 0.86892 0.20787 0.75058 0.0
H931 H 0.82256 0.19891 0.76554 0.0
C932 C 0.69894 0.23908 0.78618 0.0
C933 C 0.72395 0.25234 0.80524 0.0
C934 C 0.70128 0.22073 0.77284 0.0
C935 C 0.72843 0.21507 0.77876 0.0
C936 C 0.75295 0.22796 0.79851 0.0
C937 C 0.75083 0.24653 0.81149 0.0
C938 C 0.7323 0.19686 0.76322 0.0
C939 C 0.75863 0.20093 0.75462 0.0
C940 C 0.7098 0.17608 0.7558 0.0
C941 C 0.68254 0.17017 0.7655 0.0
C942 C 0.68609 0.173 0.79076 0.0
C943 C 0.66031 0.16751 0.79979 0.0
C944 C 0.63084 0.15903 0.78373 0.0
C945 C 0.62711 0.15597 0.75861 0.0
C946 C 0.65281 0.16145 0.74948 0.0
C947 C 0.77342 0.12393 0.70475 0.0
C948 C 0.754 0.11677 0.68085 0.0
C949 C 0.76843 0.13901 0.72119 0.0
C950 C 0.74379 0.1471 0.71415 0.0
C951 C 0.72369 0.13948 0.69069 0.0
C952 C 0.72885 0.12458 0.67413 0.0
C953 C 0.7401 0.16449 0.7308 0.0
C954 C 0.71384 0.16026 0.7394 0.0
C955 C 0.76279 0.18505 0.73853 0.0
C956 C 0.79066 0.1906 0.72956 0.0
C957 C 0.78806 0.18907 0.70448 0.0
C958 C 0.81444 0.19408 0.69617 0.0
C959 C 0.84356 0.20082 0.71277 0.0
C960 C 0.84635 0.20261 0.73774 0.0
C961 C 0.82004 0.19758 0.74614 0.0
H962 H 0.86395 0.2047 0.7063 0.0
H963 H 0.61091 0.15479 0.79076 0.0
H964 H 0.22143 0.32271 0.25179 0.0
H965 H 0.2519 0.32617 0.22226 0.0
H966 H 0.31377 0.29842 0.26564 0.0
H967 H 0.28378 0.29533 0.29547 0.0
H968 H 0.34451 0.33447 0.25068 0.0
H969 H 0.26126 0.26833 0.21476 0.0
H970 H 0.20687 0.24569 0.19935 0.0
H971 H 0.19159 0.28598 0.14659 0.0
H972 H 0.24582 0.30905 0.16193 0.0
H973 H 0.42263 0.30819 0.16609 0.0
H974 H 0.39159 0.30733 0.19514 0.0
H975 H 0.32999 0.33196 0.14668 0.0
H976 H 0.3608 0.33227 0.11735 0.0
H977 H 0.29854 0.29917 0.16385 0.0
H978 H 0.38207 0.36451 0.19833 0.0
H979 H 0.43642 0.38726 0.21349 0.0
H980 H 0.45118 0.34921 0.2688 0.0
H981 H 0.39701 0.32602 0.25374 0.0
C982 C 0.24161 0.31744 0.25506 0.0
C983 C 0.25019 0.3087 0.2759 0.0
C984 C 0.25886 0.31929 0.23812 0.0
C985 C 0.28496 0.3124 0.2417 0.0
C986 C 0.29367 0.30379 0.26254 0.0
C987 C 0.27638 0.30186 0.27943 0.0
C988 C 0.30333 0.31427 0.22378 0.0
C989 C 0.33458 0.32656 0.23174 0.0
C990 C 0.29009 0.30445 0.19896 0.0
C991 C 0.25751 0.29055 0.18966 0.0
C992 C 0.24624 0.27247 0.20001 0.0
C993 C 0.21545 0.25954 0.19126 0.0
C994 C 0.19577 0.26443 0.17205 0.0
C995 C 0.20685 0.28223 0.1615 0.0
C996 C 0.23762 0.29523 0.1702 0.0
C997 C 0.40253 0.3135 0.16182 0.0
C998 C 0.39405 0.32046 0.13977 0.0
C999 C 0.38491 0.3131 0.17838 0.0
C1000 C 0.3587 0.31987 0.17322 0.0
C1001 C 0.35018 0.32675 0.15106 0.0
C1002 C 0.36776 0.32704 0.13442 0.0
C1003 C 0.33986 0.31925 0.19075 0.0
C1004 C 0.30849 0.3072 0.18274 0.0
C1005 C 0.35297 0.32937 0.21552 0.0
C1006 C 0.38552 0.34341 0.22477 0.0
C1007 C 0.39695 0.3609 0.21362 0.0
C1008 C 0.42772 0.37388 0.22221 0.0
C1009 C 0.44725 0.36966 0.24206 0.0
C1010 C 0.43603 0.35246 0.25341 0.0
C1011 C 0.40528 0.3394 0.24487 0.0
H1012 H 0.47107 0.37973 0.24868 0.0
H1013 H 0.17194 0.25439 0.1653 0.0
H1014 H 0.85059 0.76607 0.79813 0.0
H1015 H 0.87009 0.73527 0.79667 0.0
H1016 H 0.87973 0.74182 0.72464 0.0
H1017 H 0.85971 0.77261 0.72587 0.0
H1018 H 0.853 0.70019 0.727 0.0
H1019 H 0.94253 0.75809 0.77387 0.0
H1020 H 0.97252 0.78914 0.80712 0.0
H1021 H 0.95704 0.7486 0.85995 0.0
H1022 H 0.92658 0.71736 0.82701 0.0
H1023 H 0.94275 0.63013 0.72028 0.0
H1024 H 0.92533 0.66193 0.7218 0.0
H1025 H 0.91362 0.6555 0.7933 0.0
H1026 H 0.93077 0.6235 0.79183 0.0
H1027 H 0.94199 0.69729 0.79099 0.0
H1028 H 0.85196 0.63963 0.74439 0.0
H1029 H 0.82188 0.60846 0.71131 0.0
H1030 H 0.83813 0.6485 0.65815 0.0
H1031 H 0.86871 0.67986 0.69094 0.0
C1032 C 0.85693 0.76104 0.78199 0.0
C1033 C 0.85368 0.77176 0.76207 0.0
C1034 C 0.86822 0.74346 0.78124 0.0
C1035 C 0.87669 0.73638 0.76066 0.0
C1036 C 0.87338 0.74704 0.74072 0.0
C1037 C 0.86206 0.76463 0.74146 0.0
C1038 C 0.88835 0.71756 0.75977 0.0
C1039 C 0.87276 0.69969 0.74078 0.0
C1040 C 0.91364 0.71669 0.77811 0.0
C1041 C 0.93203 0.73543 0.79796 0.0
C1042 C 0.94532 0.75584 0.79258 0.0
C1043 C 0.96244 0.77346 0.81137 0.0
C1044 C 0.96662 0.77086 0.83563 0.0
C1045 C 0.95375 0.7506 0.84115 0.0
C1046 C 0.93658 0.73292 0.82242 0.0
C1047 C 0.93618 0.63533 0.73624 0.0
C1048 C 0.93794 0.62417 0.75587 0.0
C1049 C 0.92632 0.65356 0.73711 0.0
C1050 C 0.91786 0.66093 0.75755 0.0
C1051 C 0.92007 0.65008 0.77735 0.0
C1052 C 0.92994 0.63183 0.7765 0.0
C1053 C 0.90665 0.67996 0.75823 0.0
C1054 C 0.92229 0.69784 0.77719 0.0
C1055 C 0.88139 0.68083 0.73988 0.0
C1056 C 0.86288 0.66204 0.72013 0.0
C1057 C 0.84933 0.64175 0.72565 0.0
C1058 C 0.83215 0.62405 0.70695 0.0
C1059 C 0.82816 0.62649 0.68264 0.0
C1060 C 0.84128 0.64664 0.67699 0.0
C1061 C 0.85851 0.66438 0.69562 0.0
H1062 H 0.81485 0.61277 0.66819 0.0
H1063 H 0.97988 0.78452 0.85016 0.0
H1064 H 0.78693 0.37842 0.42918 0.0
H1065 H 0.82821 0.41158 0.4312 0.0
H1066 H 0.88962 0.37435 0.42583 0.0
H1067 H 0.84823 0.34098 0.42384 0.0
H1068 H 0.91888 0.41652 0.45654 0.0
H1069 H 0.85312 0.38334 0.37593 0.0
H1070 H 0.80275 0.36706 0.34557 0.0
H1071 H 0.78237 0.42669 0.35727 0.0
H1072 H 0.83241 0.4432 0.38808 0.0
H1073 H 0.01923 0.48996 0.40454 0.0
H1074 H 0.98442 0.45803 0.41368 0.0
H1075 H 0.91568 0.49041 0.40997 0.0
H1076 H 0.95043 0.52214 0.40042 0.0
H1077 H 0.89111 0.45019 0.38477 0.0
H1078 H 0.95759 0.48403 0.46445 0.0
H1079 H 0.00744 0.5002 0.49544 0.0
H1080 H 0.02666 0.43995 0.48595 0.0
H1081 H 0.97711 0.4235 0.45458 0.0
C1082 C 0.80943 0.37737 0.42897 0.0
C1083 C 0.81432 0.35715 0.42598 0.0
C1084 C 0.83297 0.3963 0.43018 0.0
C1085 C 0.86174 0.39532 0.42822 0.0
C1086 C 0.86753 0.37539 0.42733 0.0
C1087 C 0.84392 0.35638 0.42621 0.0
C1088 C 0.88406 0.41456 0.42394 0.0
C1089 C 0.91305 0.4238 0.44075 0.0
C1090 C 0.87614 0.42414 0.40347 0.0
C1091 C 0.84639 0.41444 0.38447 0.0
C1092 C 0.83782 0.39294 0.37214 0.0
C1093 C 0.80933 0.38367 0.35485 0.0
C1094 C 0.78934 0.39582 0.34953 0.0
C1095 C 0.79786 0.41729 0.36143 0.0
C1096 C 0.82629 0.42662 0.37881 0.0
C1097 C 0.9967 0.49014 0.40582 0.0
C1098 C 0.98721 0.50824 0.4018 0.0
C1099 C 0.97693 0.47204 0.41114 0.0
C1100 C 0.94754 0.47192 0.41275 0.0
C1101 C 0.93824 0.49016 0.40884 0.0
C1102 C 0.95798 0.50823 0.40345 0.0
C1103 C 0.926 0.45248 0.41754 0.0
C1104 C 0.89708 0.44306 0.40066 0.0
C1105 C 0.93408 0.4428 0.43795 0.0
C1106 C 0.96375 0.45259 0.45699 0.0
C1107 C 0.97254 0.47427 0.46883 0.0
C1108 C 0.00073 0.48348 0.48648 0.0
C1109 C 0.02023 0.47112 0.49262 0.0
C1110 C 0.01154 0.44951 0.48116 0.0
C1111 C 0.98339 0.44022 0.46345 0.0
H1112 H 0.04205 0.47829 0.5063 0.0
H1113 H 0.76728 0.3886 0.33616 0.0
H1114 H 0.1264 0.32563 0.78499 0.0
H1115 H 0.10104 0.35332 0.78038 0.0
H1116 H 0.11362 0.35492 0.70841 0.0
H1117 H 0.13994 0.32761 0.71321 0.0
H1118 H 0.13003 0.39506 0.73441 0.0
H1119 H 0.04294 0.33127 0.71599 0.0
H1120 H 0.01073 0.29662 0.72238 0.0
H1121 H 0.0024 0.3288 0.78854 0.0
H1122 H 0.03494 0.36361 0.78275 0.0
H1123 H 0.03695 0.46264 0.70654 0.0
H1124 H 0.05585 0.43142 0.70518 0.0
H1125 H 0.04885 0.42635 0.77811 0.0
H1126 H 0.02929 0.45724 0.77938 0.0
H1127 H 0.02756 0.38687 0.74842 0.0
H1128 H 0.11749 0.44988 0.76831 0.0
H1129 H 0.15009 0.48458 0.76235 0.0
H1130 H 0.15313 0.45366 0.69348 0.0
H1131 H 0.12016 0.41881 0.69889 0.0
C1132 C 0.12387 0.33191 0.7682 0.0
C1133 C 0.13528 0.32448 0.74949 0.0
C1134 C 0.10907 0.34758 0.76549 0.0
C1135 C 0.10514 0.35602 0.74395 0.0
C1136 C 0.1163 0.34854 0.72514 0.0
C1137 C 0.13113 0.33284 0.72784 0.0
C1138 C 0.09053 0.37331 0.74156 0.0
C1139 C 0.10737 0.39313 0.73701 0.0
C1140 C 0.06126 0.37094 0.74551 0.0
C1141 C 0.04162 0.35003 0.74904 0.0
C1142 C 0.03445 0.33094 0.73201 0.0
C1143 C 0.0161 0.31127 0.7355 0.0
C1144 C 0.00459 0.3105 0.75588 0.0
C1145 C 0.01136 0.32942 0.77278 0.0
C1146 C 0.02973 0.34913 0.76939 0.0
C1147 C 0.03914 0.45472 0.72218 0.0
C1148 C 0.03186 0.46248 0.74313 0.0
C1149 C 0.05014 0.437 0.72144 0.0
C1150 C 0.0541 0.42674 0.74165 0.0
C1151 C 0.04609 0.4341 0.76235 0.0
C1152 C 0.03519 0.45185 0.76313 0.0
C1153 C 0.06718 0.40862 0.74147 0.0
C1154 C 0.05008 0.38869 0.74558 0.0
C1155 C 0.09622 0.41087 0.73714 0.0
C1156 C 0.11607 0.4318 0.73388 0.0
C1157 C 0.12489 0.45052 0.7518 0.0
C1158 C 0.14348 0.47021 0.74854 0.0
C1159 C 0.1536 0.47134 0.72752 0.0
C1160 C 0.14523 0.45277 0.70974 0.0
C1161 C 0.1266 0.43304 0.71289 0.0
H1162 H 0.168 0.48659 0.72503 0.0
H1163 H 0.99037 0.29526 0.75855 0.0
H1164 H 0.27426 0.77592 0.32012 0.0
H1165 H 0.25571 0.74231 0.33413 0.0
H1166 H 0.24654 0.70595 0.26396 0.0
H1167 H 0.26309 0.73987 0.24912 0.0
H1168 H 0.19844 0.68904 0.27737 0.0
H1169 H 0.30408 0.70773 0.31695 0.0
H1170 H 0.35605 0.73063 0.34092 0.0
H1171 H 0.32255 0.7401 0.40349 0.0
H1172 H 0.27026 0.71753 0.37982 0.0
H1173 H 0.16083 0.59488 0.33328 0.0
H1174 H 0.19528 0.62271 0.318 0.0
H1175 H 0.17874 0.67266 0.36335 0.0
H1176 H 0.14328 0.64492 0.37777 0.0
H1177 H 0.24583 0.67762 0.35951 0.0
H1178 H 0.13767 0.66363 0.31352 0.0
H1179 H 0.08757 0.63811 0.28909 0.0
H1180 H 0.13068 0.6167 0.23715 0.0
H1181 H 0.18117 0.64187 0.26156 0.0
C1182 C 0.26804 0.76082 0.30749 0.0
C1183 C 0.26977 0.76067 0.28333 0.0
C1184 C 0.25798 0.74153 0.31573 0.0
C1185 C 0.25023 0.72149 0.30029 0.0
C1186 C 0.25255 0.7212 0.27628 0.0
C1187 C 0.26224 0.74061 0.26787 0.0
C1188 C 0.2377 0.70111 0.30898 0.0
C1189 C 0.20931 0.68636 0.29509 0.0
C1190 C 0.2517 0.69741 0.33211 0.0
C1191 C 0.28316 0.71099 0.34653 0.0
C1192 C 0.30773 0.71481 0.33578 0.0
C1193 C 0.33727 0.72772 0.34932 0.0
C1194 C 0.34259 0.73683 0.3737 0.0
C1195 C 0.31839 0.73302 0.3846 0.0
C1196 C 0.2888 0.72013 0.37113 0.0
C1197 C 0.16494 0.61183 0.34013 0.0
C1198 C 0.14937 0.61789 0.35647 0.0
C1199 C 0.1846 0.62763 0.33151 0.0
C1200 C 0.18944 0.64964 0.33962 0.0
C1201 C 0.17535 0.65572 0.35705 0.0
C1202 C 0.15516 0.63994 0.36522 0.0
C1203 C 0.20657 0.66635 0.32821 0.0
C1204 C 0.23563 0.68026 0.3416 0.0
C1205 C 0.1936 0.66904 0.30446 0.0
C1206 C 0.16318 0.65443 0.28947 0.0
C1207 C 0.13648 0.65337 0.29698 0.0
C1208 C 0.10802 0.63899 0.28313 0.0
C1209 C 0.10595 0.62575 0.26161 0.0
C1210 C 0.13233 0.62694 0.25384 0.0
C1211 C 0.16086 0.64126 0.26767 0.0
H1212 H 0.08391 0.61459 0.25094 0.0
H1213 H 0.36548 0.74682 0.38416 0.0
H1214 H 0.7932 0.83921 0.72317 0.0
H1215 H 0.79074 0.86688 0.69779 0.0
H1216 H 0.81351 0.91523 0.76229 0.0
H1217 H 0.81617 0.88783 0.78762 0.0
H1218 H 0.76341 0.91603 0.72838 0.0
H1219 H 0.86573 0.91331 0.73067 0.0
H1220 H 0.90358 0.89525 0.72447 0.0
H1221 H 0.85693 0.87584 0.64817 0.0
H1222 H 0.81855 0.89355 0.65399 0.0
H1223 H 0.79724 0.01487 0.68717 0.0
H1224 H 0.80065 0.98428 0.7076 0.0
H1225 H 0.78149 0.94338 0.63795 0.0
H1226 H 0.77897 0.97427 0.61761 0.0
H1227 H 0.82622 0.93611 0.67085 0.0
H1228 H 0.72591 0.94012 0.66722 0.0
H1229 H 0.68724 0.95768 0.67241 0.0
H1230 H 0.72782 0.97324 0.74975 0.0
H1231 H 0.7671 0.95609 0.74499 0.0
C1232 C 0.79814 0.85581 0.7319 0.0
C1233 C 0.80459 0.86133 0.75735 0.0
C1234 C 0.79667 0.87158 0.71741 0.0
C1235 C 0.80187 0.89309 0.72818 0.0
C1236 C 0.80915 0.89869 0.7536 0.0
C1237 C 0.81061 0.88301 0.76803 0.0
C1238 C 0.79857 0.90977 0.71316 0.0
C1239 C 0.77737 0.92058 0.71598 0.0
C1240 C 0.81595 0.91511 0.69632 0.0
C1241 C 0.83908 0.90454 0.69282 0.0
C1242 C 0.8634 0.90503 0.71261 0.0
C1243 C 0.88497 0.89489 0.70916 0.0
C1244 C 0.88261 0.88435 0.68595 0.0
C1245 C 0.85871 0.88398 0.66614 0.0
C1246 C 0.83705 0.89408 0.6695 0.0
C1247 C 0.79394 0.99933 0.67635 0.0
C1248 C 0.78792 0.99674 0.65096 0.0
C1249 C 0.79571 0.98188 0.68794 0.0
C1250 C 0.79093 0.96146 0.67425 0.0
C1251 C 0.78523 0.95896 0.64884 0.0
C1252 C 0.78366 0.9765 0.63726 0.0
C1253 C 0.79163 0.94275 0.68658 0.0
C1254 C 0.81215 0.93148 0.68314 0.0
C1255 C 0.7734 0.93682 0.70273 0.0
C1256 C 0.74961 0.94696 0.70572 0.0
C1257 C 0.72673 0.94741 0.68532 0.0
C1258 C 0.70468 0.95729 0.68819 0.0
C1259 C 0.70511 0.9666 0.71139 0.0
C1260 C 0.72754 0.96603 0.73178 0.0
C1261 C 0.74969 0.95622 0.72901 0.0
H1262 H 0.68802 0.97424 0.71357 0.0
H1263 H 0.89934 0.87651 0.68332 0.0
H1264 H 0.70641 0.34613 0.38359 0.0
H1265 H 0.66909 0.34549 0.34575 0.0
H1266 H 0.67194 0.28286 0.31623 0.0
H1267 H 0.70953 0.28352 0.35393 0.0
H1268 H 0.68177 0.31268 0.28594 0.0
H1269 H 0.60928 0.2868 0.33154 0.0
H1270 H 0.58741 0.28801 0.3666 0.0
H1271 H 0.57403 0.34875 0.35495 0.0
H1272 H 0.59623 0.34805 0.32 0.0
H1273 H 0.56313 0.28885 0.17732 0.0
H1274 H 0.59509 0.28815 0.21698 0.0
H1275 H 0.58335 0.34753 0.24721 0.0
H1276 H 0.55005 0.34781 0.20776 0.0
H1277 H 0.57798 0.31992 0.27768 0.0
H1278 H 0.65048 0.34719 0.2336 0.0
H1279 H 0.67385 0.34801 0.19927 0.0
H1280 H 0.68938 0.28752 0.20895 0.0
H1281 H 0.66571 0.28618 0.24314 0.0
C1282 C 0.69876 0.33212 0.36913 0.0
C1283 C 0.71087 0.31488 0.37167 0.0
C1284 C 0.67737 0.33172 0.34759 0.0
C1285 C 0.66774 0.3141 0.32824 0.0
C1286 C 0.67908 0.29659 0.331 0.0
C1287 C 0.70032 0.2969 0.35259 0.0
C1288 C 0.64749 0.31461 0.30454 0.0
C1289 C 0.65886 0.3139 0.28402 0.0
C1290 C 0.61814 0.31706 0.30233 0.0
C1291 C 0.60469 0.31747 0.32329 0.0
C1292 C 0.60192 0.30051 0.33657 0.0
C1293 C 0.58941 0.30108 0.3564 0.0
C1294 C 0.57941 0.31847 0.36304 0.0
C1295 C 0.58182 0.3353 0.34981 0.0
C1296 C 0.59433 0.33481 0.32997 0.0
C1297 C 0.56706 0.30167 0.19243 0.0
C1298 C 0.55401 0.3184 0.18932 0.0
C1299 C 0.58564 0.30137 0.21506 0.0
C1300 C 0.59196 0.31794 0.23501 0.0
C1301 C 0.57887 0.33462 0.23204 0.0
C1302 C 0.56011 0.33487 0.20941 0.0
C1303 C 0.61211 0.31774 0.25895 0.0
C1304 C 0.60084 0.31863 0.27954 0.0
C1305 C 0.64177 0.31575 0.26134 0.0
C1306 C 0.65604 0.31648 0.24078 0.0
C1307 C 0.65865 0.33397 0.22828 0.0
C1308 C 0.67199 0.33455 0.20887 0.0
C1309 C 0.68302 0.3178 0.20189 0.0
C1310 C 0.68079 0.30047 0.21435 0.0
C1311 C 0.66744 0.2998 0.23376 0.0
H1312 H 0.69335 0.31827 0.18686 0.0
H1313 H 0.56973 0.31889 0.37839 0.0
H1314 H 0.14266 0.19415 0.72308 0.0
H1315 H 0.13952 0.16541 0.69065 0.0
H1316 H 0.16253 0.21282 0.64553 0.0
H1317 H 0.1643 0.24142 0.67754 0.0
H1318 H 0.1206 0.17873 0.61855 0.0
H1319 H 0.21632 0.19067 0.67786 0.0
H1320 H 0.25081 0.19414 0.71854 0.0
H1321 H 0.20302 0.12843 0.72115 0.0
H1322 H 0.16797 0.12465 0.6806 0.0
H1323 H 0.18192 0.11927 0.5418 0.0
H1324 H 0.17555 0.14547 0.57248 0.0
H1325 H 0.12857 0.09312 0.60327 0.0
H1326 H 0.13443 0.06677 0.57228 0.0
H1327 H 0.18004 0.12799 0.63716 0.0
H1328 H 0.08643 0.1167 0.57482 0.0
H1329 H 0.05569 0.11455 0.53308 0.0
H1330 H 0.10466 0.18115 0.53523 0.0
H1331 H 0.13604 0.18361 0.57688 0.0
C1332 C 0.14687 0.19836 0.70616 0.0
C1333 C 0.15375 0.21994 0.70279 0.0
C1334 C 0.14526 0.18197 0.6877 0.0
C1335 C 0.15135 0.18697 0.66577 0.0
C1336 C 0.15776 0.20854 0.66227 0.0
C1337 C 0.15884 0.22489 0.68059 0.0
C1338 C 0.15139 0.16978 0.64662 0.0
C1339 C 0.13387 0.1678 0.62263 0.0
C1340 C 0.1683 0.15523 0.65191 0.0
C1341 C 0.18931 0.15746 0.67631 0.0
C1342 C 0.21301 0.17701 0.68719 0.0
C1343 C 0.23269 0.17903 0.71021 0.0
C1344 C 0.22905 0.16154 0.72246 0.0
C1345 C 0.20577 0.14198 0.71167 0.0
C1346 C 0.18601 0.13988 0.68866 0.0
C1347 C 0.17006 0.11339 0.55504 0.0
C1348 C 0.15868 0.09107 0.55478 0.0
C1349 C 0.16635 0.12832 0.57243 0.0
C1350 C 0.15154 0.12116 0.59003 0.0
C1351 C 0.13999 0.09888 0.58976 0.0
C1352 C 0.14322 0.0839 0.57206 0.0
C1353 C 0.1494 0.1371 0.60931 0.0
C1354 C 0.16662 0.13886 0.63325 0.0
C1355 C 0.13272 0.15168 0.60389 0.0
C1356 C 0.11378 0.15027 0.57889 0.0
C1357 C 0.09084 0.13083 0.56632 0.0
C1358 C 0.07326 0.12957 0.54269 0.0
C1359 C 0.07827 0.14769 0.53149 0.0
C1360 C 0.10082 0.16712 0.54392 0.0
C1361 C 0.11849 0.16847 0.56755 0.0
H1362 H 0.06463 0.14668 0.5132 0.0
H1363 H 0.24431 0.16313 0.74027 0.0
H1364 H 0.31625 0.77319 0.17056 0.0
H1365 H 0.34877 0.78238 0.14312 0.0
H1366 H 0.41525 0.83306 0.20021 0.0
H1367 H 0.38186 0.82462 0.2272 0.0
H1368 H 0.4109 0.84761 0.16082 0.0
H1369 H 0.42528 0.78224 0.18222 0.0
H1370 H 0.41068 0.74428 0.18802 0.0
H1371 H 0.36687 0.72288 0.11142 0.0
H1372 H 0.38086 0.76075 0.1052 0.0
H1373 H 0.53548 0.85004 0.10457 0.0
H1374 H 0.50222 0.84494 0.13225 0.0
H1375 H 0.42286 0.81469 0.07086 0.0
H1376 H 0.45595 0.82053 0.0431 0.0
H1377 H 0.43532 0.79044 0.11265 0.0
H1378 H 0.42446 0.85872 0.09351 0.0
H1379 H 0.44473 0.89709 0.09041 0.0
H1380 H 0.48932 0.91323 0.16715 0.0
H1381 H 0.46973 0.87486 0.17063 0.0
C1382 C 0.33784 0.78627 0.17719 0.0
C1383 C 0.34658 0.79818 0.20092 0.0
C1384 C 0.35653 0.79144 0.16158 0.0
C1385 C 0.38483 0.80819 0.16968 0.0
C1386 C 0.39356 0.82009 0.19348 0.0
C1387 C 0.37452 0.81522 0.20893 0.0
C1388 C 0.40507 0.81343 0.15323 0.0
C1389 C 0.41651 0.83509 0.15057 0.0
C1390 C 0.41238 0.79716 0.13963 0.0
C1391 C 0.40386 0.77435 0.14329 0.0
C1392 C 0.41232 0.76945 0.16664 0.0
C1393 C 0.40419 0.74795 0.17 0.0
C1394 C 0.38778 0.73118 0.15011 0.0
C1395 C 0.37954 0.73589 0.12681 0.0
C1396 C 0.38759 0.75737 0.12336 0.0
C1397 C 0.51086 0.84268 0.09706 0.0
C1398 C 0.49812 0.83551 0.07186 0.0
C1399 C 0.49197 0.83974 0.1128 0.0
C1400 C 0.46021 0.82937 0.10351 0.0
C1401 C 0.44737 0.82268 0.07829 0.0
C1402 C 0.46616 0.82602 0.06252 0.0
C1403 C 0.44062 0.8244 0.12022 0.0
C1404 C 0.42953 0.80284 0.12296 0.0
C1405 C 0.43434 0.84079 0.13433 0.0
C1406 C 0.44591 0.86387 0.13227 0.0
C1407 C 0.43884 0.87041 0.10968 0.0
C1408 C 0.45016 0.89217 0.10786 0.0
C1409 C 0.46838 0.90758 0.12856 0.0
C1410 C 0.47525 0.90127 0.15113 0.0
C1411 C 0.46402 0.87952 0.15303 0.0
H1412 H 0.47711 0.92442 0.12712 0.0
H1413 H 0.38152 0.71455 0.15275 0.0
H1414 H 0.74354 0.25617 0.46471 0.0
H1415 H 0.73974 0.22444 0.48442 0.0
H1416 H 0.82467 0.22071 0.47083 0.0
H1417 H 0.82902 0.25282 0.45163 0.0
H1418 H 0.77014 0.17955 0.45729 0.0
H1419 H 0.83197 0.23962 0.52356 0.0
H1420 H 0.84211 0.27477 0.54969 0.0
H1421 H 0.75975 0.24912 0.5715 0.0
H1422 H 0.7489 0.21389 0.54519 0.0
H1423 H 0.80577 0.10455 0.52947 0.0
H1424 H 0.8054 0.13492 0.50811 0.0
H1425 H 0.74332 0.15125 0.54625 0.0
H1426 H 0.74545 0.12169 0.56875 0.0
H1427 H 0.7836 0.18609 0.54636 0.0
H1428 H 0.72081 0.12652 0.48334 0.0
H1429 H 0.70611 0.0911 0.4564 0.0
H1430 H 0.78257 0.11453 0.42688 0.0
H1431 H 0.79801 0.15001 0.4539 0.0
C1432 C 0.76138 0.24857 0.46591 0.0
C1433 C 0.78658 0.25686 0.45663 0.0
C1434 C 0.75919 0.2305 0.47717 0.0
C1435 C 0.78189 0.22028 0.47898 0.0
C1436 C 0.80689 0.22838 0.4695 0.0
C1437 C 0.80941 0.24671 0.45867 0.0
C1438 C 0.77975 0.20127 0.49105 0.0
C1439 C 0.7734 0.1809 0.47679 0.0
C1440 C 0.78284 0.20307 0.51631 0.0
C1441 C 0.78945 0.22421 0.5322 0.0
C1442 C 0.81587 0.24154 0.53374 0.0
C1443 C 0.82178 0.26147 0.54863 0.0
C1444 C 0.80154 0.2642 0.56219 0.0
C1445 C 0.77539 0.24699 0.56095 0.0
C1446 C 0.76936 0.22704 0.54607 0.0
C1447 C 0.79205 0.11467 0.53317 0.0
C1448 C 0.77574 0.11096 0.55073 0.0
C1449 C 0.79158 0.13188 0.52083 0.0
C1450 C 0.77395 0.14528 0.52524 0.0
C1451 C 0.75712 0.14122 0.5425 0.0
C1452 C 0.75815 0.12429 0.55522 0.0
C1453 C 0.77415 0.16405 0.51268 0.0
C1454 C 0.78012 0.18448 0.52681 0.0
C1455 C 0.76997 0.16218 0.48718 0.0
C1456 C 0.76072 0.14088 0.47081 0.0
C1457 C 0.73462 0.12407 0.47123 0.0
C1458 C 0.72614 0.10399 0.45592 0.0
C1459 C 0.74343 0.10055 0.43997 0.0
C1460 C 0.76921 0.11721 0.43926 0.0
C1461 C 0.77782 0.13732 0.45455 0.0
H1462 H 0.73683 0.08499 0.42814 0.0
H1463 H 0.80616 0.27964 0.57371 0.0
H1464 H 0.17821 0.28863 0.82174 0.0
H1465 H 0.21581 0.29405 0.86106 0.0
H1466 H 0.28976 0.31503 0.82754 0.0
H1467 H 0.25189 0.30842 0.78792 0.0
H1468 H 0.30548 0.29216 0.85805 0.0
H1469 H 0.26716 0.35141 0.86349 0.0
H1470 H 0.22876 0.37068 0.86057 0.0
H1471 H 0.19477 0.33917 0.91506 0.0
H1472 H 0.23266 0.31942 0.91805 0.0
H1473 H 0.41345 0.33856 0.97614 0.0
H1474 H 0.37999 0.33692 0.93579 0.0
H1475 H 0.30283 0.29546 0.95454 0.0
H1476 H 0.33623 0.29679 0.99471 0.0
H1477 H 0.29287 0.33235 0.93142 0.0
H1478 H 0.33389 0.2718 0.92198 0.0
H1479 H 0.37742 0.25731 0.9255 0.0
H1480 H 0.41265 0.2984 0.87833 0.0
H1481 H 0.36951 0.31334 0.8748 0.0
C1482 C 0.20253 0.29426 0.82289 0.0
C1483 C 0.2124 0.29819 0.80208 0.0
C1484 C 0.224 0.29754 0.84532 0.0
C1485 C 0.25571 0.30545 0.84744 0.0
C1486 C 0.26549 0.309 0.82642 0.0
C1487 C 0.24395 0.30529 0.80386 0.0
C1488 C 0.27848 0.30994 0.87159 0.0
C1489 C 0.30288 0.30124 0.87396 0.0
C1490 C 0.27543 0.32192 0.89248 0.0
C1491 C 0.2526 0.33379 0.89083 0.0
C1492 C 0.25135 0.34846 0.87472 0.0
C1493 C 0.22969 0.35949 0.87307 0.0
C1494 C 0.2093 0.35612 0.88758 0.0
C1495 C 0.21057 0.34174 0.90382 0.0
C1496 C 0.23215 0.33064 0.90551 0.0
C1497 C 0.38929 0.32925 0.97165 0.0
C1498 C 0.37733 0.31775 0.9884 0.0
C1499 C 0.3703 0.32828 0.94866 0.0
C1500 C 0.33905 0.31604 0.9423 0.0
C1501 C 0.32691 0.305 0.95921 0.0
C1502 C 0.34598 0.30567 0.98202 0.0
C1503 C 0.31902 0.31413 0.91772 0.0
C1504 C 0.29532 0.3234 0.91535 0.0
C1505 C 0.3233 0.30331 0.89677 0.0
C1506 C 0.34864 0.29381 0.8983 0.0
C1507 C 0.35101 0.27782 0.91247 0.0
C1508 C 0.3756 0.26952 0.91445 0.0
C1509 C 0.39784 0.27698 0.90221 0.0
C1510 C 0.39543 0.29266 0.88783 0.0
C1511 C 0.3709 0.30102 0.88581 0.0
H1512 H 0.41691 0.27058 0.90382 0.0
H1513 H 0.19255 0.36467 0.88628 0.0
H1514 H 0.22214 0.82159 0.27189 0.0
H1515 H 0.20733 0.84993 0.29313 0.0
H1516 H 0.30296 0.88503 0.32767 0.0
H1517 H 0.3179 0.85705 0.30592 0.0
H1518 H 0.25428 0.8705 0.35812 0.0
H1519 H 0.27952 0.9092 0.29367 0.0
H1520 H 0.27426 0.91232 0.25057 0.0
H1521 H 0.17748 0.9019 0.23902 0.0
H1522 H 0.1821 0.89839 0.28201 0.0
H1523 H 0.2521 0.96422 0.42683 0.0
H1524 H 0.26362 0.9383 0.39997 0.0
H1525 H 0.17655 0.92734 0.34749 0.0
H1526 H 0.16582 0.95471 0.37351 0.0
H1527 H 0.21749 0.92798 0.3243 0.0
H1528 H 0.18901 0.89078 0.38601 0.0
H1529 H 0.18896 0.88462 0.42762 0.0
H1530 H 0.28384 0.88763 0.44292 0.0
H1531 H 0.2846 0.89412 0.40149 0.0
C1532 C 0.23993 0.83559 0.28367 0.0
C1533 C 0.27111 0.83731 0.28729 0.0
C1534 C 0.23149 0.85169 0.29573 0.0
C1535 C 0.25411 0.86947 0.31185 0.0
C1536 C 0.28527 0.87142 0.31516 0.0
C1537 C 0.29375 0.85555 0.30271 0.0
C1538 C 0.24517 0.88518 0.32665 0.0
C1539 C 0.24663 0.88329 0.35093 0.0
C1540 C 0.23383 0.90107 0.31673 0.0
C1541 C 0.2311 0.90326 0.29096 0.0
C1542 C 0.25706 0.90733 0.28187 0.0
C1543 C 0.25421 0.90923 0.25748 0.0
C1544 C 0.22553 0.90724 0.24204 0.0
C1545 C 0.19966 0.9034 0.25099 0.0
C1546 C 0.20239 0.90147 0.27536 0.0
C1547 C 0.23554 0.95668 0.4094 0.0
C1548 C 0.208 0.9617 0.4024 0.0
C1549 C 0.24198 0.94152 0.39419 0.0
C1550 C 0.22068 0.93048 0.3719 0.0
C1551 C 0.19327 0.93554 0.36468 0.0
C1552 C 0.18701 0.95103 0.37974 0.0
C1553 C 0.22729 0.91378 0.35624 0.0
C1554 C 0.22514 0.91527 0.33168 0.0
C1555 C 0.23726 0.8971 0.36575 0.0
C1556 C 0.23692 0.89313 0.39069 0.0
C1557 C 0.20993 0.89029 0.3983 0.0
C1558 C 0.20976 0.88672 0.42185 0.0
C1559 C 0.23639 0.88579 0.43792 0.0
C1560 C 0.26323 0.88837 0.43045 0.0
C1561 C 0.26354 0.89198 0.40693 0.0
H1562 H 0.23622 0.88302 0.45615 0.0
H1563 H 0.22338 0.90872 0.22317 0.0
H1564 H 0.81177 0.83121 0.85533 0.0
H1565 H 0.78666 0.8345 0.88787 0.0
H1566 H 0.7042 0.83282 0.83472 0.0
H1567 H 0.72972 0.83036 0.80237 0.0
H1568 H 0.71521 0.86288 0.87158 0.0
H1569 H 0.71214 0.78829 0.86272 0.0
H1570 H 0.73377 0.75811 0.86108 0.0
H1571 H 0.79059 0.78344 0.93435 0.0
H1572 H 0.76958 0.81394 0.93631 0.0
H1573 H 0.60827 0.838 0.94189 0.0
H1574 H 0.63746 0.837 0.91163 0.0
H1575 H 0.71978 0.84702 0.96934 0.0
H1576 H 0.69033 0.84785 0.99956 0.0
H1577 H 0.71119 0.81411 0.932 0.0
H1578 H 0.71067 0.88777 0.94084 0.0
H1579 H 0.68671 0.91673 0.94188 0.0
H1580 H 0.63395 0.89167 0.86747 0.0
H1581 H 0.65725 0.86234 0.8661 0.0
C1582 C 0.78821 0.83138 0.85067 0.0
C1583 C 0.77259 0.8305 0.82642 0.0
C1584 C 0.77385 0.83321 0.86922 0.0
C1585 C 0.74337 0.83365 0.86374 0.0
C1586 C 0.72773 0.83257 0.83943 0.0
C1587 C 0.74225 0.83111 0.82097 0.0
C1588 C 0.72787 0.83567 0.88328 0.0
C1589 C 0.71403 0.85203 0.88459 0.0
C1590 C 0.72696 0.82189 0.90068 0.0
C1591 C 0.73952 0.80351 0.89957 0.0
C1592 C 0.72941 0.78751 0.87842 0.0
C1593 C 0.74153 0.77033 0.87744 0.0
C1594 C 0.7636 0.76889 0.89758 0.0
C1595 C 0.77353 0.7846 0.91876 0.0
C1596 C 0.76151 0.80182 0.91982 0.0
C1597 C 0.63265 0.84018 0.94796 0.0
C1598 C 0.64735 0.84315 0.9728 0.0
C1599 C 0.64928 0.83964 0.93079 0.0
C1600 C 0.68083 0.84214 0.9383 0.0
C1601 C 0.69548 0.84511 0.96322 0.0
C1602 C 0.67882 0.84569 0.9804 0.0
C1603 C 0.69829 0.8411 0.92002 0.0
C1604 C 0.71252 0.82498 0.91901 0.0
C1605 C 0.69929 0.85495 0.90274 0.0
C1606 C 0.68555 0.87275 0.90343 0.0
C1607 C 0.69381 0.88834 0.92475 0.0
C1608 C 0.68036 0.90484 0.92539 0.0
C1609 C 0.65878 0.90602 0.90477 0.0
C1610 C 0.65066 0.89073 0.88343 0.0
C1611 C 0.664 0.87418 0.88271 0.0
H1612 H 0.64839 0.9188 0.9053 0.0
H1613 H 0.77296 0.75558 0.89678 0.0
loop_
_geom_bond_atom_site_label_1
_geom_bond_atom_site_label_2
_geom_bond_distance
_geom_bond_site_symmetry_2
_ccdc_geom_bond_type
H0 C5 0.930 . S
H1 C8 0.930 . S
H2 C10 0.930 . S
H3 C4 1.016 . S
C4 H3 1.016 . S
C4 N11 1.286 . S
C5 H0 0.930 . S
C5 C6 1.397 . S
C5 C7 1.361 . S
C6 C5 1.397 . S
C6 C10 1.390 . S
C7 C5 1.361 . S
C7 C8 1.393 . S
C7 N11 1.413 . S
C8 H1 0.930 . S
C8 C7 1.393 . S
C8 C9 1.399 . S
C9 C8 1.399 . S
C9 C10 1.381 . S
C10 H2 0.930 . S
C10 C6 1.390 . S
C10 C9 1.381 . S
N11 C4 1.286 . S
N11 C7 1.413 . S
H12 C17 0.930 . S
H13 C20 0.930 . S
H14 C22 0.930 . S
H15 C16 1.016 . S
C16 H15 1.016 . S
C16 N23 1.286 . S
C17 H12 0.930 . S
C17 C18 1.397 . S
C17 C19 1.361 . S
C18 C17 1.397 . S
C18 C22 1.390 . S
C19 C17 1.361 . S
C19 C20 1.393 . S
C19 N23 1.413 . S
C20 H13 0.930 . S
C20 C19 1.393 . S
C20 C21 1.399 . S
C21 C20 1.399 . S
C21 C22 1.381 . S
C22 H14 0.930 . S
C22 C18 1.390 . S
C22 C21 1.381 . S
N23 C16 1.286 . S
N23 C19 1.413 . S
H24 C29 0.930 . S
H25 C32 0.930 . S
H26 C34 0.930 . S
H27 C28 1.016 . S
C28 H27 1.016 . S
C28 N35 1.286 . S
C29 H24 0.930 . S
C29 C30 1.397 . S
C29 C31 1.361 . S
C30 C29 1.397 . S
C30 C34 1.390 . S
C31 C29 1.361 . S
C31 C32 1.393 . S
C31 N35 1.413 . S
C32 H25 0.930 . S
C32 C31 1.393 . S
C32 C33 1.399 . S
C33 C32 1.399 . S
C33 C34 1.381 . S
C34 H26 0.930 . S
C34 C30 1.390 . S
C34 C33 1.381 . S
N35 C28 1.286 . S
N35 C31 1.413 . S
H36 C41 0.930 . S
H37 C44 0.930 . S
H38 C46 0.930 . S
H39 C40 1.016 . S
C40 H39 1.016 . S
C40 N47 1.286 . S
C41 H36 0.930 . S
C41 C42 1.397 . S
C41 C43 1.361 . S
C42 C41 1.397 . S
C42 C46 1.390 . S
C43 C41 1.361 . S
C43 C44 1.393 . S
C43 N47 1.413 . S
C44 H37 0.930 . S
C44 C43 1.393 . S
C44 C45 1.399 . S
C45 C44 1.399 . S
C45 C46 1.381 . S
C46 H38 0.930 . S
C46 C42 1.390 . S
C46 C45 1.381 . S
N47 C40 1.286 . S
N47 C43 1.413 . S
H48 C53 0.930 . S
H49 C56 0.930 . S
H50 C58 0.930 . S
H51 C52 1.016 . S
C52 H51 1.016 . S
C52 N59 1.286 . S
C53 H48 0.930 . S
C53 C54 1.397 . S
C53 C55 1.361 . S
C54 C53 1.397 . S
C54 C58 1.390 . S
C55 C53 1.361 . S
C55 C56 1.393 . S
C55 N59 1.413 . S
C56 H49 0.930 . S
C56 C55 1.393 . S
C56 C57 1.399 . S
C57 C56 1.399 . S
C57 C58 1.381 . S
C58 H50 0.930 . S
C58 C54 1.390 . S
C58 C57 1.381 . S
N59 C52 1.286 . S
N59 C55 1.413 . S
H60 C65 0.930 . S
H61 C68 0.930 . S
H62 C70 0.930 . S
H63 C64 1.016 . S
C64 H63 1.016 . S
C64 N71 1.286 . S
C65 H60 0.930 . S
C65 C66 1.397 . S
C65 C67 1.361 . S
C66 C65 1.397 . S
C66 C70 1.390 . S
C67 C65 1.361 . S
C67 C68 1.393 . S
C67 N71 1.413 . S
C68 H61 0.930 . S
C68 C67 1.393 . S
C68 C69 1.399 . S
C69 C68 1.399 . S
C69 C70 1.381 . S
C70 H62 0.930 . S
C70 C66 1.390 . S
C70 C69 1.381 . S
N71 C64 1.286 . S
N71 C67 1.413 . S
H72 C77 0.930 . S
H73 C80 0.930 . S
H74 C82 0.930 . S
H75 C76 1.016 . S
C76 H75 1.016 . S
C76 N83 1.286 . S
C77 H72 0.930 . S
C77 C78 1.397 . S
C77 C79 1.361 . S
C78 C77 1.397 . S
C78 C82 1.390 . S
C79 C77 1.361 . S
C79 C80 1.393 . S
C79 N83 1.413 . S
C80 H73 0.930 . S
C80 C79 1.393 . S
C80 C81 1.399 . S
C81 C80 1.399 . S
C81 C82 1.381 . S
C82 H74 0.930 . S
C82 C78 1.390 . S
C82 C81 1.381 . S
N83 C76 1.286 . S
N83 C79 1.413 . S
H84 C89 0.930 . S
H85 C92 0.930 . S
H86 C94 0.930 . S
H87 C88 1.016 . S
C88 H87 1.016 . S
C88 N95 1.286 . S
C89 H84 0.930 . S
C89 C90 1.397 . S
C89 C91 1.361 . S
C90 C89 1.397 . S
C90 C94 1.390 . S
C91 C89 1.361 . S
C91 C92 1.393 . S
C91 N95 1.413 . S
C92 H85 0.930 . S
C92 C91 1.393 . S
C92 C93 1.399 . S
C93 C92 1.399 . S
C93 C94 1.381 . S
C94 H86 0.930 . S
C94 C90 1.390 . S
C94 C93 1.381 . S
N95 C88 1.286 . S
N95 C91 1.413 . S
C96 C97 1.443 . S
C96 N100 1.376 . S
C96 C134 1.389 . S
C97 C96 1.443 . S
C97 C98 1.340 . S
C97 H137 0.951 . S
C98 C97 1.340 . S
C98 C99 1.439 . S
C98 H138 0.950 . S
C99 C98 1.439 . S
C99 N100 1.374 . S
C99 C133 1.395 . S
N100 C96 1.376 . S
N100 C99 1.374 . S
N100 Co101 2.008 . S
Co101 N100 2.008 . S
Co101 N102 1.995 . S
Co101 N107 2.008 . S
Co101 N112 1.995 . S
Co101 N117 2.282 . S
Co101 N123 2.282 . S
N102 Co101 1.995 . S
N102 C103 1.376 . S
N102 C106 1.383 . S
C103 N102 1.376 . S
C103 C104 1.446 . S
C103 C133 1.391 . S
C104 C103 1.446 . S
C104 C105 1.339 . S
C104 H139 0.949 . S
C105 C104 1.339 . S
C105 C106 1.439 . S
C105 H140 0.950 . S
C106 N102 1.383 . S
C106 C105 1.439 . S
C106 C135 1.392 . S
N107 Co101 2.008 . S
N107 C108 1.376 . S
N107 C111 1.374 . S
C108 N107 1.376 . S
C108 C109 1.443 . S
C108 C135 1.389 . S
C109 C108 1.443 . S
C109 C110 1.340 . S
C109 H141 0.955 . S
C110 C109 1.340 . S
C110 C111 1.439 . S
C110 H142 0.950 . S
C111 N107 1.374 . S
C111 C110 1.439 . S
C111 C136 1.395 . S
N112 Co101 1.995 . S
N112 C113 1.376 . S
N112 C116 1.383 . S
C113 N112 1.376 . S
C113 C114 1.446 . S
C113 C136 1.391 . S
C114 C113 1.446 . S
C114 C115 1.339 . S
C114 H143 0.949 . S
C115 C114 1.339 . S
C115 C116 1.439 . S
C115 H144 0.950 . S
C116 N112 1.383 . S
C116 C115 1.439 . S
C116 C134 1.392 . S
N117 Co101 2.282 . S
N117 C120 1.332 . S
N117 C122 1.332 . S
C118 C119 1.386 . S
C118 C121 1.388 . S
C119 C118 1.386 . S
C119 C120 1.382 . S
C119 H145 0.950 . S
C120 N117 1.332 . S
C120 C119 1.382 . S
C120 H131 0.952 . S
C121 C118 1.388 . S
C121 C122 1.382 . S
C121 H146 0.950 . S
C122 N117 1.332 . S
C122 C121 1.382 . S
C122 H132 0.948 . S
N123 Co101 2.282 . S
N123 C127 1.332 . S
N123 C128 1.332 . S
C124 C125 1.388 . S
C124 C128 1.382 . S
C124 H147 0.950 . S
C125 C124 1.388 . S
C125 C126 1.386 . S
C126 C125 1.386 . S
C126 C127 1.382 . S
C126 H148 0.950 . S
C127 N123 1.332 . S
C127 C126 1.382 . S
C127 H129 0.952 . S
C128 N123 1.332 . S
C128 C124 1.382 . S
C128 H130 0.948 . S
H129 C127 0.952 . S
H130 C128 0.948 . S
H131 C120 0.952 . S
H132 C122 0.948 . S
C133 C99 1.395 . S
C133 C103 1.391 . S
C134 C96 1.389 . S
C134 C116 1.392 . S
C135 C106 1.392 . S
C135 C108 1.389 . S
C136 C111 1.395 . S
C136 C113 1.391 . S
H137 C97 0.951 . S
H138 C98 0.950 . S
H139 C104 0.949 . S
H140 C105 0.950 . S
H141 C109 0.955 . S
H142 C110 0.950 . S
H143 C114 0.949 . S
H144 C115 0.950 . S
H145 C119 0.950 . S
H146 C121 0.950 . S
H147 C124 0.950 . S
H148 C126 0.950 . S
C149 C150 1.443 . S
C149 N153 1.376 . S
C149 C187 1.389 . S
C150 C149 1.443 . S
C150 C151 1.340 . S
C150 H190 0.951 . S
C151 C150 1.340 . S
C151 C152 1.439 . S
C151 H191 0.950 . S
C152 C151 1.439 . S
C152 N153 1.374 . S
C152 C186 1.395 . S
N153 C149 1.376 . S
N153 C152 1.374 . S
N153 Co154 2.008 . S
Co154 N153 2.008 . S
Co154 N155 1.995 1_455 S
Co154 N160 2.008 1_455 S
Co154 N165 1.995 . S
Co154 N170 2.282 . S
Co154 N176 2.282 1_455 S
N155 Co154 1.995 1_655 S
N155 C156 1.376 1_655 S
N155 C159 1.383 . S
C156 N155 1.376 1_455 S
C156 C157 1.458 . S
C156 C186 1.391 . S
C157 C156 1.458 . S
C157 C158 1.323 1_455 S
C157 H192 0.953 . S
C158 C157 1.323 1_655 S
C158 C159 1.439 . S
C158 H193 0.950 . S
C159 N155 1.383 . S
C159 C158 1.439 . S
C159 C188 1.392 . S
N160 Co154 2.008 1_655 S
N160 C161 1.376 . S
N160 C164 1.374 . S
C161 N160 1.376 . S
C161 C162 1.443 . S
C161 C188 1.389 . S
C162 C161 1.443 . S
C162 C163 1.340 . S
C162 H194 0.951 . S
C163 C162 1.340 . S
C163 C164 1.439 . S
C163 H195 0.950 . S
C164 N160 1.374 . S
C164 C163 1.439 . S
C164 C189 1.395 . S
N165 Co154 1.995 . S
N165 C166 1.376 1_455 S
N165 C169 1.383 . S
C166 N165 1.376 1_655 S
C166 C167 1.455 . S
C166 C189 1.391 . S
C167 C166 1.455 . S
C167 C168 1.328 1_655 S
C167 H196 0.952 . S
C168 C167 1.328 1_455 S
C168 C169 1.439 . S
C168 H197 0.950 . S
C169 N165 1.383 . S
C169 C168 1.439 . S
C169 C187 1.392 . S
N170 Co154 2.282 . S
N170 C173 1.332 . S
N170 C175 1.332 . S
C171 C172 1.386 . S
C171 C174 1.388 . S
C172 C171 1.386 . S
C172 C173 1.382 . S
C172 H198 0.950 . S
C173 N170 1.332 . S
C173 C172 1.382 . S
C173 H184 0.952 . S
C174 C171 1.388 . S
C174 C175 1.382 . S
C174 H199 0.950 . S
C175 N170 1.332 . S
C175 C174 1.382 . S
C175 H185 0.948 . S
N176 Co154 2.282 1_655 S
N176 C180 1.332 . S
N176 C181 1.332 . S
C177 C178 1.388 . S
C177 C181 1.382 . S
C177 H200 0.950 . S
C178 C177 1.388 . S
C178 C179 1.386 . S
C179 C178 1.386 . S
C179 C180 1.382 . S
C179 H201 0.950 . S
C180 N176 1.332 . S
C180 C179 1.382 . S
C180 H182 0.952 . S
C181 N176 1.332 . S
C181 C177 1.382 . S
C181 H183 0.948 . S
H182 C180 0.952 . S
H183 C181 0.948 . S
H184 C173 0.952 . S
H185 C175 0.948 . S
C186 C152 1.395 . S
C186 C156 1.391 . S
C187 C149 1.389 . S
C187 C169 1.392 . S
C188 C159 1.392 . S
C188 C161 1.389 . S
C189 C164 1.395 . S
C189 C166 1.391 . S
H190 C150 0.951 . S
H191 C151 0.950 . S
H192 C157 0.953 . S
H193 C158 0.950 . S
H194 C162 0.951 . S
H195 C163 0.950 . S
H196 C167 0.952 . S
H197 C168 0.950 . S
H198 C172 0.950 . S
H199 C174 0.950 . S
H200 C177 0.950 . S
H201 C179 0.950 . S
C202 C203 1.443 . S
C202 N206 1.376 . S
C202 C240 1.389 . S
C203 C202 1.443 . S
C203 C204 1.340 . S
C203 H243 0.951 . S
C204 C203 1.340 . S
C204 C205 1.439 1_565 S
C204 H244 0.950 . S
C205 C204 1.439 1_545 S
C205 N206 1.374 1_545 S
C205 C239 1.395 . S
N206 C202 1.376 . S
N206 C205 1.374 1_565 S
N206 Co207 2.004 1_565 S
Co207 N206 2.004 1_545 S
Co207 N208 1.999 . S
Co207 N213 2.012 . S
Co207 N218 1.990 1_545 S
Co207 N223 2.287 . S
Co207 N229 2.278 1_545 S
N208 Co207 1.999 . S
N208 C209 1.376 . S
N208 C212 1.383 . S
C209 N208 1.376 . S
C209 C210 1.446 . S
C209 C239 1.391 . S
C210 C209 1.446 . S
C210 C211 1.339 . S
C210 H245 0.949 . S
C211 C210 1.339 . S
C211 C212 1.439 . S
C211 H246 0.950 . S
C212 N208 1.383 . S
C212 C211 1.439 . S
C212 C241 1.392 . S
N213 Co207 2.012 . S
N213 C214 1.376 . S
N213 C217 1.374 1_545 S
C214 N213 1.376 . S
C214 C215 1.443 . S
C214 C241 1.389 . S
C215 C214 1.443 . S
C215 C216 1.340 . S
C215 H247 0.951 . S
C216 C215 1.340 . S
C216 C217 1.439 1_545 S
C216 H248 0.950 . S
C217 N213 1.374 1_565 S
C217 C216 1.439 1_565 S
C217 C242 1.395 . S
N218 Co207 1.990 1_565 S
N218 C219 1.376 . S
N218 C222 1.383 . S
C219 N218 1.376 . S
C219 C220 1.446 . S
C219 C242 1.391 . S
C220 C219 1.446 . S
C220 C221 1.339 . S
C220 H249 0.949 . S
C221 C220 1.339 . S
C221 C222 1.439 . S
C221 H250 0.950 . S
C222 N218 1.383 . S
C222 C221 1.439 . S
C222 C240 1.392 . S
N223 Co207 2.287 . S
N223 C226 1.332 . S
N223 C228 1.332 . S
C224 C225 1.386 . S
C224 C227 1.388 . S
C225 C224 1.386 . S
C225 C226 1.382 . S
C225 H251 0.950 . S
C226 N223 1.332 . S
C226 C225 1.382 . S
C226 H237 0.952 . S
C227 C224 1.388 . S
C227 C228 1.382 . S
C227 H252 0.950 . S
C228 N223 1.332 . S
C228 C227 1.382 . S
C228 H238 0.948 . S
N229 Co207 2.278 1_565 S
N229 C233 1.332 . S
N229 C234 1.332 . S
C230 C231 1.388 . S
C230 C234 1.382 . S
C230 H253 0.950 . S
C231 C230 1.388 . S
C231 C232 1.386 . S
C232 C231 1.386 . S
C232 C233 1.382 . S
C232 H254 0.950 . S
C233 N229 1.332 . S
C233 C232 1.382 . S
C233 H235 0.952 . S
C234 N229 1.332 . S
C234 C230 1.382 . S
C234 H236 0.948 . S
H235 C233 0.952 . S
H236 C234 0.948 . S
H237 C226 0.952 . S
H238 C228 0.948 . S
C239 C205 1.395 . S
C239 C209 1.391 . S
C240 C202 1.389 . S
C240 C222 1.392 . S
C241 C212 1.392 . S
C241 C214 1.389 . S
C242 C217 1.395 . S
C242 C219 1.391 . S
H243 C203 0.951 . S
H244 C204 0.950 . S
H245 C210 0.949 . S
H246 C211 0.950 . S
H247 C215 0.951 . S
H248 C216 0.950 . S
H249 C220 0.949 . S
H250 C221 0.950 . S
H251 C225 0.950 . S
H252 C227 0.950 . S
H253 C230 0.950 . S
H254 C232 0.950 . S
C255 C256 1.443 . S
C255 N259 1.376 . S
C255 C293 1.389 . S
C256 C255 1.443 . S
C256 C257 1.340 . S
C256 H296 0.951 . S
C257 C256 1.340 . S
C257 C258 1.439 . S
C257 H297 0.950 . S
C258 C257 1.439 . S
C258 N259 1.374 . S
C258 C292 1.395 . S
N259 C255 1.376 . S
N259 C258 1.374 . S
N259 Co260 2.008 . S
Co260 N259 2.008 . S
Co260 N261 1.995 . S
Co260 N266 2.018 . S
Co260 N271 1.995 . S
Co260 N276 2.282 1_554 S
Co260 N282 2.282 . S
N261 Co260 1.995 . S
N261 C262 1.376 . S
N261 C265 1.383 1_554 S
C262 N261 1.376 . S
C262 C263 1.446 . S
C262 C292 1.391 . S
C263 C262 1.446 . S
C263 C264 1.339 1_554 S
C263 H298 0.949 . S
C264 C263 1.339 1_556 S
C264 C265 1.439 . S
C264 H299 0.950 . S
C265 N261 1.383 1_556 S
C265 C264 1.439 . S
C265 C294 1.392 . S
N266 Co260 2.018 . S
N266 C267 1.362 1_554 S
N266 C270 1.374 1_554 S
C267 N266 1.362 1_556 S
C267 C268 1.443 . S
C267 C294 1.389 . S
C268 C267 1.443 . S
C268 C269 1.340 . S
C268 H300 0.951 . S
C269 C268 1.340 . S
C269 C270 1.439 . S
C269 H301 0.950 . S
C270 N266 1.374 1_556 S
C270 C269 1.439 . S
C270 C295 1.395 1_556 S
N271 Co260 1.995 . S
N271 C272 1.376 . S
N271 C275 1.383 . S
C272 N271 1.376 . S
C272 C273 1.446 . S
C272 C295 1.391 . S
C273 C272 1.446 . S
C273 C274 1.339 . S
C273 H302 0.949 . S
C274 C273 1.339 . S
C274 C275 1.439 . S
C274 H303 0.950 . S
C275 N271 1.383 . S
C275 C274 1.439 . S
C275 C293 1.392 . S
N276 Co260 2.282 1_556 S
N276 C279 1.332 . S
N276 C281 1.332 . S
C277 C278 1.386 . S
C277 C280 1.388 . S
C278 C277 1.386 . S
C278 C279 1.382 . S
C278 H304 0.950 . S
C279 N276 1.332 . S
C279 C278 1.382 . S
C279 H290 0.952 . S
C280 C277 1.388 . S
C280 C281 1.382 . S
C280 H305 0.950 . S
C281 N276 1.332 . S
C281 C280 1.382 . S
C281 H291 0.948 . S
N282 Co260 2.282 . S
N282 C286 1.332 . S
N282 C287 1.332 . S
C283 C284 1.388 . S
C283 C287 1.382 . S
C283 H306 0.950 . S
C284 C283 1.388 . S
C284 C285 1.386 . S
C285 C284 1.386 . S
C285 C286 1.382 . S
C285 H307 0.950 . S
C286 N282 1.332 . S
C286 C285 1.382 . S
C286 H288 0.952 . S
C287 N282 1.332 . S
C287 C283 1.382 . S
C287 H289 0.948 . S
H288 C286 0.952 . S
H289 C287 0.948 . S
H290 C279 0.952 . S
H291 C281 0.948 . S
C292 C258 1.395 . S
C292 C262 1.391 . S
C293 C255 1.389 . S
C293 C275 1.392 . S
C294 C265 1.392 . S
C294 C267 1.389 . S
C295 C270 1.395 1_554 S
C295 C272 1.391 . S
H296 C256 0.951 . S
H297 C257 0.950 . S
H298 C263 0.949 . S
H299 C264 0.950 . S
H300 C268 0.951 . S
H301 C269 0.950 . S
H302 C273 0.949 . S
H303 C274 0.950 . S
H304 C278 0.950 . S
H305 C280 0.950 . S
H306 C283 0.950 . S
H307 C285 0.950 . S
C308 C309 1.443 . S
C308 N312 1.376 . S
C308 C346 1.389 . S
C309 C308 1.443 . S
C309 C310 1.340 . S
C309 H349 0.951 . S
C310 C309 1.340 . S
C310 C311 1.439 . S
C310 H350 0.950 . S
C311 C310 1.439 . S
C311 N312 1.374 . S
C311 C345 1.395 . S
N312 C308 1.376 . S
N312 C311 1.374 . S
N312 Co313 2.008 . S
Co313 N312 2.008 . S
Co313 N314 1.995 . S
Co313 N319 2.008 . S
Co313 N324 1.995 . S
Co313 N329 2.282 . S
Co313 N335 2.282 . S
N314 Co313 1.995 . S
N314 C315 1.376 . S
N314 C318 1.383 . S
C315 N314 1.376 . S
C315 C316 1.446 . S
C315 C345 1.391 . S
C316 C315 1.446 . S
C316 C317 1.339 . S
C316 H351 0.949 . S
C317 C316 1.339 . S
C317 C318 1.439 . S
C317 H352 0.950 . S
C318 N314 1.383 . S
C318 C317 1.439 . S
C318 C347 1.392 . S
N319 Co313 2.008 . S
N319 C320 1.376 . S
N319 C323 1.374 . S
C320 N319 1.376 . S
C320 C321 1.443 . S
C320 C347 1.389 . S
C321 C320 1.443 . S
C321 C322 1.340 . S
C321 H353 0.951 . S
C322 C321 1.340 . S
C322 C323 1.439 . S
C322 H354 0.950 . S
C323 N319 1.374 . S
C323 C322 1.439 . S
C323 C348 1.395 . S
N324 Co313 1.995 . S
N324 C325 1.376 . S
N324 C328 1.383 . S
C325 N324 1.376 . S
C325 C326 1.441 1_545 S
C325 C348 1.391 . S
C326 C325 1.441 1_565 S
C326 C327 1.342 . S
C326 H355 0.951 . S
C327 C326 1.342 . S
C327 C328 1.439 1_565 S
C327 H356 0.950 . S
C328 N324 1.383 . S
C328 C327 1.439 1_545 S
C328 C346 1.392 . S
N329 Co313 2.282 . S
N329 C332 1.332 . S
N329 C334 1.332 . S
C330 C331 1.386 . S
C330 C333 1.388 . S
C331 C330 1.386 . S
C331 C332 1.382 . S
C331 H357 0.950 . S
C332 N329 1.332 . S
C332 C331 1.382 . S
C332 H343 0.952 . S
C333 C330 1.388 . S
C333 C334 1.382 . S
C333 H358 0.950 . S
C334 N329 1.332 . S
C334 C333 1.382 . S
C334 H344 0.948 . S
N335 Co313 2.282 . S
N335 C339 1.332 . S
N335 C340 1.332 . S
C336 C337 1.388 . S
C336 C340 1.382 1_565 S
C336 H359 0.950 . S
C337 C336 1.388 . S
C337 C338 1.386 1_565 S
C338 C337 1.386 1_545 S
C338 C339 1.382 . S
C338 H360 0.950 . S
C339 N335 1.332 . S
C339 C338 1.382 . S
C339 H341 0.952 . S
C340 N335 1.332 . S
C340 C336 1.382 1_545 S
C340 H342 0.948 . S
H341 C339 0.952 . S
H342 C340 0.948 . S
H343 C332 0.952 . S
H344 C334 0.948 . S
C345 C311 1.395 . S
C345 C315 1.391 . S
C346 C308 1.389 . S
C346 C328 1.392 . S
C347 C318 1.392 . S
C347 C320 1.389 . S
C348 C323 1.395 . S
C348 C325 1.391 . S
H349 C309 0.951 . S
H350 C310 0.950 . S
H351 C316 0.949 . S
H352 C317 0.950 . S
H353 C321 0.951 . S
H354 C322 0.950 . S
H355 C326 0.951 . S
H356 C327 0.950 . S
H357 C331 0.950 . S
H358 C333 0.950 . S
H359 C336 0.950 . S
H360 C338 0.950 . S
C361 C362 1.443 . S
C361 N365 1.376 . S
C361 C399 1.389 . S
C362 C361 1.443 . S
C362 C363 1.340 . S
C362 H402 0.951 . S
C363 C362 1.340 . S
C363 C364 1.439 . S
C363 H403 0.950 . S
C364 C363 1.439 . S
C364 N365 1.374 . S
C364 C398 1.395 . S
N365 C361 1.376 . S
N365 C364 1.374 . S
N365 Co366 2.008 . S
Co366 N365 2.008 . S
Co366 N367 1.995 . S
Co366 N372 2.008 . S
Co366 N377 1.995 . S
Co366 N382 2.282 . S
Co366 N388 2.282 . S
N367 Co366 1.995 . S
N367 C368 1.376 . S
N367 C371 1.383 . S
C368 N367 1.376 . S
C368 C369 1.446 . S
C368 C398 1.391 . S
C369 C368 1.446 . S
C369 C370 1.339 . S
C369 H404 0.949 . S
C370 C369 1.339 . S
C370 C371 1.439 . S
C370 H405 0.950 . S
C371 N367 1.383 . S
C371 C370 1.439 . S
C371 C400 1.392 . S
N372 Co366 2.008 . S
N372 C373 1.376 . S
N372 C376 1.374 . S
C373 N372 1.376 . S
C373 C374 1.443 . S
C373 C400 1.389 . S
C374 C373 1.443 . S
C374 C375 1.340 . S
C374 H406 0.951 . S
C375 C374 1.340 . S
C375 C376 1.439 . S
C375 H407 0.950 . S
C376 N372 1.374 . S
C376 C375 1.439 . S
C376 C401 1.395 . S
N377 Co366 1.995 . S
N377 C378 1.376 . S
N377 C381 1.383 . S
C378 N377 1.376 . S
C378 C379 1.446 . S
C378 C401 1.391 . S
C379 C378 1.446 . S
C379 C380 1.339 . S
C379 H408 0.949 . S
C380 C379 1.339 . S
C380 C381 1.439 . S
C380 H409 0.950 . S
C381 N377 1.383 . S
C381 C380 1.439 . S
C381 C399 1.392 . S
N382 Co366 2.282 . S
N382 C385 1.332 . S
N382 C387 1.332 . S
C383 C384 1.386 . S
C383 C386 1.388 . S
C384 C383 1.386 . S
C384 C385 1.382 . S
C384 H410 0.950 . S
C385 N382 1.332 . S
C385 C384 1.382 . S
C385 H396 0.952 . S
C386 C383 1.388 . S
C386 C387 1.382 . S
C386 H411 0.950 . S
C387 N382 1.332 . S
C387 C386 1.382 . S
C387 H397 0.948 . S
N388 Co366 2.282 . S
N388 C392 1.332 . S
N388 C393 1.332 . S
C389 C390 1.388 . S
C389 C393 1.382 . S
C389 H412 0.950 . S
C390 C389 1.388 . S
C390 C391 1.386 . S
C391 C390 1.386 . S
C391 C392 1.382 . S
C391 H413 0.950 . S
C392 N388 1.332 . S
C392 C391 1.382 . S
C392 H394 0.952 . S
C393 N388 1.332 . S
C393 C389 1.382 . S
C393 H395 0.948 . S
H394 C392 0.952 . S
H395 C393 0.948 . S
H396 C385 0.952 . S
H397 C387 0.948 . S
C398 C364 1.395 . S
C398 C368 1.391 . S
C399 C361 1.389 . S
C399 C381 1.392 . S
C400 C371 1.392 . S
C400 C373 1.389 . S
C401 C376 1.395 . S
C401 C378 1.391 . S
H402 C362 0.951 . S
H403 C363 0.950 . S
H404 C369 0.949 . S
H405 C370 0.950 . S
H406 C374 0.951 . S
H407 C375 0.950 . S
H408 C379 0.949 . S
H409 C380 0.950 . S
H410 C384 0.950 . S
H411 C386 0.950 . S
H412 C389 0.950 . S
H413 C391 0.950 . S
H414 C432 0.951 . S
H415 C434 0.951 . S
H416 C436 0.950 . S
H417 C437 0.950 . S
H418 C439 0.950 . S
H419 C442 0.950 . S
H420 C443 0.950 . S
H421 C445 0.950 . S
H422 C446 0.950 . S
H423 C447 0.951 . S
H424 C449 0.951 . S
H425 C451 0.950 . S
H426 C452 0.950 . S
H427 C454 0.950 . S
H428 C457 0.950 . S
H429 C458 0.950 . S
H430 C460 0.950 . S
H431 C461 0.950 . S
C432 H414 0.951 . S
C432 C433 1.366 . S
C432 C434 1.388 . S
C433 C432 1.366 . S
C433 C437 1.385 . S
C434 H415 0.951 . S
C434 C432 1.388 . S
C434 C435 1.366 . S
C435 C434 1.366 . S
C435 C436 1.414 . S
C435 C438 1.499 . S
C436 H416 0.950 . S
C436 C435 1.414 . S
C436 C437 1.374 . S
C437 H417 0.950 . S
C437 C433 1.385 . S
C437 C436 1.374 . S
C438 C435 1.499 . S
C438 C439 1.373 . S
C438 C440 1.389 . S
C439 H418 0.950 . S
C439 C438 1.373 . S
C439 C455 1.377 . S
C440 C438 1.389 . S
C440 C441 1.524 . S
C440 C454 1.377 . S
C441 C440 1.524 . S
C441 C442 1.397 . S
C441 C446 1.363 . S
C442 H419 0.950 . S
C442 C441 1.397 . S
C442 C443 1.334 . S
C443 H420 0.950 . S
C443 C442 1.334 . S
C443 C444 1.287 . S
C444 C443 1.287 . S
C444 C445 1.524 . S
C444 H463 0.913 . S
C445 H421 0.950 . S
C445 C444 1.524 . S
C445 C446 1.415 . S
C446 H422 0.950 . S
C446 C441 1.363 . S
C446 C445 1.415 . S
C447 H423 0.951 . S
C447 C448 1.366 . S
C447 C449 1.388 . S
C448 C447 1.366 . S
C448 C452 1.385 . S
C449 H424 0.951 . S
C449 C447 1.388 . S
C449 C450 1.366 . S
C450 C449 1.366 . S
C450 C451 1.414 . S
C450 C453 1.499 . S
C451 H425 0.950 . S
C451 C450 1.414 . S
C451 C452 1.374 . S
C452 H426 0.950 . S
C452 C448 1.385 . S
C452 C451 1.374 . S
C453 C450 1.499 . S
C453 C454 1.373 . S
C453 C455 1.389 . S
C454 H427 0.950 . S
C454 C440 1.377 . S
C454 C453 1.373 . S
C455 C439 1.377 . S
C455 C453 1.389 . S
C455 C456 1.524 . S
C456 C455 1.524 . S
C456 C457 1.397 . S
C456 C461 1.363 . S
C457 H428 0.950 . S
C457 C456 1.397 . S
C457 C458 1.334 . S
C458 H429 0.950 . S
C458 C457 1.334 . S
C458 C459 1.287 . S
C459 C458 1.287 . S
C459 C460 1.524 . S
C459 H462 0.999 . S
C460 H430 0.950 . S
C460 C459 1.524 . S
C460 C461 1.415 . S
C461 H431 0.950 . S
C461 C456 1.363 . S
C461 C460 1.415 . S
H462 C459 0.999 . S
H463 C444 0.913 . S
H464 C482 0.951 . S
H465 C484 0.951 . S
H466 C486 0.950 . S
H467 C487 0.950 . S
H468 C489 0.950 . S
H469 C492 0.950 . S
H470 C493 0.950 . S
H471 C495 0.950 . S
H472 C496 0.950 . S
H473 C497 0.951 . S
H474 C499 0.951 . S
H475 C501 0.950 . S
H476 C502 0.950 . S
H477 C504 0.950 . S
H478 C507 0.950 . S
H479 C508 0.950 . S
H480 C510 0.950 . S
H481 C511 0.950 . S
C482 H464 0.951 . S
C482 C483 1.366 . S
C482 C484 1.388 . S
C483 C482 1.366 . S
C483 C487 1.385 . S
C484 H465 0.951 . S
C484 C482 1.388 . S
C484 C485 1.366 . S
C485 C484 1.366 . S
C485 C486 1.414 . S
C485 C488 1.499 . S
C486 H466 0.950 . S
C486 C485 1.414 . S
C486 C487 1.374 . S
C487 H467 0.950 . S
C487 C483 1.385 . S
C487 C486 1.374 . S
C488 C485 1.499 . S
C488 C489 1.373 . S
C488 C490 1.389 . S
C489 H468 0.950 . S
C489 C488 1.373 . S
C489 C505 1.377 . S
C490 C488 1.389 . S
C490 C491 1.524 . S
C490 C504 1.377 . S
C491 C490 1.524 . S
C491 C492 1.397 . S
C491 C496 1.363 . S
C492 H469 0.950 . S
C492 C491 1.397 . S
C492 C493 1.334 . S
C493 H470 0.950 . S
C493 C492 1.334 . S
C493 C494 1.287 . S
C494 C493 1.287 . S
C494 C495 1.524 . S
C494 H513 0.913 . S
C495 H471 0.950 . S
C495 C494 1.524 . S
C495 C496 1.415 . S
C496 H472 0.950 . S
C496 C491 1.363 . S
C496 C495 1.415 . S
C497 H473 0.951 . S
C497 C498 1.366 . S
C497 C499 1.388 . S
C498 C497 1.366 . S
C498 C502 1.385 . S
C499 H474 0.951 . S
C499 C497 1.388 . S
C499 C500 1.366 . S
C500 C499 1.366 . S
C500 C501 1.414 . S
C500 C503 1.499 . S
C501 H475 0.950 . S
C501 C500 1.414 . S
C501 C502 1.374 . S
C502 H476 0.950 . S
C502 C498 1.385 . S
C502 C501 1.374 . S
C503 C500 1.499 . S
C503 C504 1.373 . S
C503 C505 1.389 . S
C504 H477 0.950 . S
C504 C490 1.377 . S
C504 C503 1.373 . S
C505 C489 1.377 . S
C505 C503 1.389 . S
C505 C506 1.524 . S
C506 C505 1.524 . S
C506 C507 1.397 . S
C506 C511 1.363 . S
C507 H478 0.950 . S
C507 C506 1.397 . S
C507 C508 1.334 . S
C508 H479 0.950 . S
C508 C507 1.334 . S
C508 C509 1.287 . S
C509 C508 1.287 . S
C509 C510 1.524 . S
C509 H512 0.999 . S
C510 H480 0.950 . S
C510 C509 1.524 . S
C510 C511 1.415 . S
C511 H481 0.950 . S
C511 C506 1.363 . S
C511 C510 1.415 . S
H512 C509 0.999 . S
H513 C494 0.913 . S
H514 C532 0.951 . S
H515 C534 0.951 . S
H516 C536 0.950 . S
H517 C537 0.950 . S
H518 C539 0.950 . S
H519 C542 0.950 . S
H520 C543 0.950 . S
H521 C545 0.950 . S
H522 C546 0.950 . S
H523 C547 0.951 . S
H524 C549 0.951 . S
H525 C551 0.950 . S
H526 C552 0.950 1_655 S
H527 C554 0.950 . S
H528 C557 0.950 . S
H529 C558 0.950 . S
H530 C560 0.950 . S
H531 C561 0.950 . S
C532 H514 0.951 . S
C532 C533 1.366 . S
C532 C534 1.388 . S
C533 C532 1.366 . S
C533 C537 1.385 . S
C534 H515 0.951 . S
C534 C532 1.388 . S
C534 C535 1.366 . S
C535 C534 1.366 . S
C535 C536 1.414 . S
C535 C538 1.499 . S
C536 H516 0.950 . S
C536 C535 1.414 . S
C536 C537 1.374 . S
C537 H517 0.950 . S
C537 C533 1.385 . S
C537 C536 1.374 . S
C538 C535 1.499 . S
C538 C539 1.373 . S
C538 C540 1.389 . S
C539 H518 0.950 . S
C539 C538 1.373 . S
C539 C555 1.394 . S
C540 C538 1.389 . S
C540 C541 1.524 . S
C540 C554 1.377 . S
C541 C540 1.524 . S
C541 C542 1.397 . S
C541 C546 1.363 . S
C542 H519 0.950 . S
C542 C541 1.397 . S
C542 C543 1.334 . S
C543 H520 0.950 . S
C543 C542 1.334 . S
C543 C544 1.287 . S
C544 C543 1.287 . S
C544 C545 1.524 . S
C544 H563 0.913 . S
C545 H521 0.950 . S
C545 C544 1.524 . S
C545 C546 1.415 . S
C546 H522 0.950 . S
C546 C541 1.363 . S
C546 C545 1.415 . S
C547 H523 0.951 . S
C547 C548 1.366 . S
C547 C549 1.388 . S
C548 C547 1.366 . S
C548 C552 1.385 . S
C549 H524 0.951 . S
C549 C547 1.388 . S
C549 C550 1.366 . S
C550 C549 1.366 . S
C550 C551 1.414 1_455 S
C550 C553 1.499 1_455 S
C551 H525 0.950 . S
C551 C550 1.414 1_655 S
C551 C552 1.374 1_655 S
C552 H526 0.950 1_455 S
C552 C548 1.385 . S
C552 C551 1.374 1_455 S
C553 C550 1.499 1_655 S
C553 C554 1.373 . S
C553 C555 1.396 . S
C554 H527 0.950 . S
C554 C540 1.377 . S
C554 C553 1.373 . S
C555 C539 1.394 . S
C555 C553 1.396 . S
C555 C556 1.501 1_655 S
C556 C555 1.501 1_455 S
C556 C557 1.397 . S
C556 C561 1.363 . S
C557 H528 0.950 . S
C557 C556 1.397 . S
C557 C558 1.334 . S
C558 H529 0.950 . S
C558 C557 1.334 . S
C558 C559 1.287 . S
C559 C558 1.287 . S
C559 C560 1.524 . S
C559 H562 0.999 . S
C560 H530 0.950 . S
C560 C559 1.524 . S
C560 C561 1.415 . S
C561 H531 0.950 . S
C561 C556 1.363 . S
C561 C560 1.415 . S
H562 C559 0.999 . S
H563 C544 0.913 . S
H564 C582 0.951 . S
H565 C584 0.951 . S
H566 C586 0.950 . S
H567 C587 0.950 . S
H568 C589 0.950 . S
H569 C592 0.950 . S
H570 C593 0.950 . S
H571 C595 0.950 . S
H572 C596 0.950 . S
H573 C597 0.951 . S
H574 C599 0.951 . S
H575 C601 0.950 . S
H576 C602 0.950 . S
H577 C604 0.950 . S
H578 C607 0.950 . S
H579 C608 0.950 . S
H580 C610 0.950 . S
H581 C611 0.950 . S
C582 H564 0.951 . S
C582 C583 1.366 . S
C582 C584 1.388 . S
C583 C582 1.366 . S
C583 C587 1.385 . S
C584 H565 0.951 . S
C584 C582 1.388 . S
C584 C585 1.366 . S
C585 C584 1.366 . S
C585 C586 1.414 . S
C585 C588 1.499 . S
C586 H566 0.950 . S
C586 C585 1.414 . S
C586 C587 1.374 . S
C587 H567 0.950 . S
C587 C583 1.385 . S
C587 C586 1.374 . S
C588 C585 1.499 . S
C588 C589 1.373 . S
C588 C590 1.389 . S
C589 H568 0.950 . S
C589 C588 1.373 . S
C589 C605 1.377 . S
C590 C588 1.389 . S
C590 C591 1.524 . S
C590 C604 1.377 . S
C591 C590 1.524 . S
C591 C592 1.397 . S
C591 C596 1.363 . S
C592 H569 0.950 . S
C592 C591 1.397 . S
C592 C593 1.334 . S
C593 H570 0.950 . S
C593 C592 1.334 . S
C593 C594 1.287 . S
C594 C593 1.287 . S
C594 C595 1.524 . S
C594 H613 0.913 . S
C595 H571 0.950 . S
C595 C594 1.524 . S
C595 C596 1.415 . S
C596 H572 0.950 . S
C596 C591 1.363 . S
C596 C595 1.415 . S
C597 H573 0.951 . S
C597 C598 1.366 . S
C597 C599 1.388 . S
C598 C597 1.366 . S
C598 C602 1.385 . S
C599 H574 0.951 . S
C599 C597 1.388 . S
C599 C600 1.366 . S
C600 C599 1.366 . S
C600 C601 1.414 . S
C600 C603 1.499 . S
C601 H575 0.950 . S
C601 C600 1.414 . S
C601 C602 1.374 . S
C602 H576 0.950 . S
C602 C598 1.385 . S
C602 C601 1.374 . S
C603 C600 1.499 . S
C603 C604 1.373 . S
C603 C605 1.389 . S
C604 H577 0.950 . S
C604 C590 1.377 . S
C604 C603 1.373 . S
C605 C589 1.377 . S
C605 C603 1.389 . S
C605 C606 1.524 . S
C606 C605 1.524 . S
C606 C607 1.397 . S
C606 C611 1.363 . S
C607 H578 0.950 . S
C607 C606 1.397 . S
C607 C608 1.334 . S
C608 H579 0.950 . S
C608 C607 1.334 . S
C608 C609 1.287 . S
C609 C608 1.287 . S
C609 C610 1.524 . S
C609 H612 0.999 . S
C610 H580 0.950 . S
C610 C609 1.524 . S
C610 C611 1.415 . S
C611 H581 0.950 . S
C611 C606 1.363 . S
C611 C610 1.415 . S
H612 C609 0.999 . S
H613 C594 0.913 . S
H614 C632 0.951 . S
H615 C634 0.951 . S
H616 C636 0.950 . S
H617 C637 0.950 . S
H618 C639 0.950 . S
H619 C642 0.950 . S
H620 C643 0.950 . S
H621 C645 0.950 . S
H622 C646 0.950 . S
H623 C647 0.951 . S
H624 C649 0.951 . S
H625 C651 0.950 . S
H626 C652 0.950 . S
H627 C654 0.950 . S
H628 C657 0.950 . S
H629 C658 0.950 . S
H630 C660 0.950 . S
H631 C661 0.950 . S
C632 H614 0.951 . S
C632 C633 1.366 . S
C632 C634 1.388 . S
C633 C632 1.366 . S
C633 C637 1.385 . S
C634 H615 0.951 . S
C634 C632 1.388 . S
C634 C635 1.366 . S
C635 C634 1.366 . S
C635 C636 1.414 . S
C635 C638 1.499 . S
C636 H616 0.950 . S
C636 C635 1.414 . S
C636 C637 1.374 . S
C637 H617 0.950 . S
C637 C633 1.385 . S
C637 C636 1.374 . S
C638 C635 1.499 . S
C638 C639 1.373 . S
C638 C640 1.389 . S
C639 H618 0.950 . S
C639 C638 1.373 . S
C639 C655 1.377 . S
C640 C638 1.389 . S
C640 C641 1.524 . S
C640 C654 1.377 . S
C641 C640 1.524 . S
C641 C642 1.397 . S
C641 C646 1.363 . S
C642 H619 0.950 . S
C642 C641 1.397 . S
C642 C643 1.334 . S
C643 H620 0.950 . S
C643 C642 1.334 . S
C643 C644 1.287 . S
C644 C643 1.287 . S
C644 C645 1.524 . S
C644 H663 0.913 . S
C645 H621 0.950 . S
C645 C644 1.524 . S
C645 C646 1.415 . S
C646 H622 0.950 . S
C646 C641 1.363 . S
C646 C645 1.415 . S
C647 H623 0.951 . S
C647 C648 1.366 . S
C647 C649 1.388 . S
C648 C647 1.366 . S
C648 C652 1.385 . S
C649 H624 0.951 . S
C649 C647 1.388 . S
C649 C650 1.366 . S
C650 C649 1.366 . S
C650 C651 1.414 . S
C650 C653 1.499 . S
C651 H625 0.950 . S
C651 C650 1.414 . S
C651 C652 1.374 . S
C652 H626 0.950 . S
C652 C648 1.385 . S
C652 C651 1.374 . S
C653 C650 1.499 . S
C653 C654 1.373 . S
C653 C655 1.389 . S
C654 H627 0.950 . S
C654 C640 1.377 . S
C654 C653 1.373 . S
C655 C639 1.377 . S
C655 C653 1.389 . S
C655 C656 1.524 . S
C656 C655 1.524 . S
C656 C657 1.397 . S
C656 C661 1.363 . S
C657 H628 0.950 . S
C657 C656 1.397 . S
C657 C658 1.334 . S
C658 H629 0.950 . S
C658 C657 1.334 . S
C658 C659 1.287 . S
C659 C658 1.287 . S
C659 C660 1.524 . S
C659 H662 0.999 . S
C660 H630 0.950 . S
C660 C659 1.524 . S
C660 C661 1.415 . S
C661 H631 0.950 . S
C661 C656 1.363 . S
C661 C660 1.415 . S
H662 C659 0.999 . S
H663 C644 0.913 . S
H664 C682 0.951 . S
H665 C684 0.951 . S
H666 C686 0.950 . S
H667 C687 0.950 . S
H668 C689 0.950 . S
H669 C692 0.950 . S
H670 C693 0.950 . S
H671 C695 0.950 . S
H672 C696 0.950 . S
H673 C697 0.951 . S
H674 C699 0.951 . S
H675 C701 0.950 . S
H676 C702 0.950 . S
H677 C704 0.950 . S
H678 C707 0.950 . S
H679 C708 0.950 . S
H680 C710 0.950 . S
H681 C711 0.950 . S
C682 H664 0.951 . S
C682 C683 1.366 . S
C682 C684 1.388 . S
C683 C682 1.366 . S
C683 C687 1.385 . S
C684 H665 0.951 . S
C684 C682 1.388 . S
C684 C685 1.366 . S
C685 C684 1.366 . S
C685 C686 1.414 . S
C685 C688 1.499 . S
C686 H666 0.950 . S
C686 C685 1.414 . S
C686 C687 1.374 . S
C687 H667 0.950 . S
C687 C683 1.385 . S
C687 C686 1.374 . S
C688 C685 1.499 . S
C688 C689 1.373 . S
C688 C690 1.389 . S
C689 H668 0.950 . S
C689 C688 1.373 . S
C689 C705 1.377 . S
C690 C688 1.389 . S
C690 C691 1.524 . S
C690 C704 1.377 . S
C691 C690 1.524 . S
C691 C692 1.397 . S
C691 C696 1.363 . S
C692 H669 0.950 . S
C692 C691 1.397 . S
C692 C693 1.334 . S
C693 H670 0.950 . S
C693 C692 1.334 . S
C693 C694 1.287 . S
C694 C693 1.287 . S
C694 C695 1.524 . S
C694 H713 0.913 . S
C695 H671 0.950 . S
C695 C694 1.524 . S
C695 C696 1.415 . S
C696 H672 0.950 . S
C696 C691 1.363 . S
C696 C695 1.415 . S
C697 H673 0.951 . S
C697 C698 1.366 . S
C697 C699 1.388 . S
C698 C697 1.366 . S
C698 C702 1.385 . S
C699 H674 0.951 . S
C699 C697 1.388 . S
C699 C700 1.366 . S
C700 C699 1.366 . S
C700 C701 1.414 . S
C700 C703 1.499 . S
C701 H675 0.950 . S
C701 C700 1.414 . S
C701 C702 1.374 . S
C702 H676 0.950 . S
C702 C698 1.385 . S
C702 C701 1.374 . S
C703 C700 1.499 . S
C703 C704 1.373 . S
C703 C705 1.389 . S
C704 H677 0.950 . S
C704 C690 1.377 . S
C704 C703 1.373 . S
C705 C689 1.377 . S
C705 C703 1.389 . S
C705 C706 1.524 . S
C706 C705 1.524 . S
C706 C707 1.397 . S
C706 C711 1.363 . S
C707 H678 0.950 . S
C707 C706 1.397 . S
C707 C708 1.334 . S
C708 H679 0.950 . S
C708 C707 1.334 . S
C708 C709 1.287 . S
C709 C708 1.287 . S
C709 C710 1.524 . S
C709 H712 0.999 . S
C710 H680 0.950 . S
C710 C709 1.524 . S
C710 C711 1.415 . S
C711 H681 0.950 . S
C711 C706 1.363 . S
C711 C710 1.415 . S
H712 C709 0.999 . S
H713 C694 0.913 . S
H714 C732 0.951 . S
H715 C734 0.951 . S
H716 C736 0.950 . S
H717 C737 0.950 . S
H718 C739 0.950 . S
H719 C742 0.950 . S
H720 C743 0.950 . S
H721 C745 0.950 . S
H722 C746 0.950 . S
H723 C747 0.951 . S
H724 C749 0.951 . S
H725 C751 0.950 . S
H726 C752 0.950 . S
H727 C754 0.950 . S
H728 C757 0.950 . S
H729 C758 0.950 1_545 S
H730 C760 0.950 . S
H731 C761 0.950 . S
C732 H714 0.951 . S
C732 C733 1.366 . S
C732 C734 1.388 . S
C733 C732 1.366 . S
C733 C737 1.385 . S
C734 H715 0.951 . S
C734 C732 1.388 . S
C734 C735 1.366 . S
C735 C734 1.366 . S
C735 C736 1.414 . S
C735 C738 1.499 . S
C736 H716 0.950 . S
C736 C735 1.414 . S
C736 C737 1.374 . S
C737 H717 0.950 . S
C737 C733 1.385 . S
C737 C736 1.374 . S
C738 C735 1.499 . S
C738 C739 1.373 . S
C738 C740 1.389 . S
C739 H718 0.950 . S
C739 C738 1.373 . S
C739 C755 1.377 . S
C740 C738 1.389 . S
C740 C741 1.524 . S
C740 C754 1.377 . S
C741 C740 1.524 . S
C741 C742 1.397 . S
C741 C746 1.363 . S
C742 H719 0.950 . S
C742 C741 1.397 . S
C742 C743 1.334 . S
C743 H720 0.950 . S
C743 C742 1.334 . S
C743 C744 1.287 . S
C744 C743 1.287 . S
C744 C745 1.524 . S
C744 H763 0.913 . S
C745 H721 0.950 . S
C745 C744 1.524 . S
C745 C746 1.415 . S
C746 H722 0.950 . S
C746 C741 1.363 . S
C746 C745 1.415 . S
C747 H723 0.951 . S
C747 C748 1.366 . S
C747 C749 1.388 . S
C748 C747 1.366 . S
C748 C752 1.385 . S
C749 H724 0.951 . S
C749 C747 1.388 . S
C749 C750 1.366 . S
C750 C749 1.366 . S
C750 C751 1.414 . S
C750 C753 1.499 . S
C751 H725 0.950 . S
C751 C750 1.414 . S
C751 C752 1.374 . S
C752 H726 0.950 . S
C752 C748 1.385 . S
C752 C751 1.374 . S
C753 C750 1.499 . S
C753 C754 1.373 . S
C753 C755 1.389 . S
C754 H727 0.950 . S
C754 C740 1.377 . S
C754 C753 1.373 . S
C755 C739 1.377 . S
C755 C753 1.389 . S
C755 C756 1.524 . S
C756 C755 1.524 . S
C756 C757 1.397 . S
C756 C761 1.363 . S
C757 H728 0.950 . S
C757 C756 1.397 . S
C757 C758 1.334 . S
C758 H729 0.950 1_565 S
C758 C757 1.334 . S
C758 C759 1.287 . S
C759 C758 1.287 . S
C759 C760 1.524 . S
C759 H762 0.999 1_565 S
C760 H730 0.950 . S
C760 C759 1.524 . S
C760 C761 1.415 . S
C761 H731 0.950 . S
C761 C756 1.363 . S
C761 C760 1.415 . S
H762 C759 0.999 1_545 S
H763 C744 0.913 . S
H764 C782 0.951 . S
H765 C784 0.951 . S
H766 C786 0.950 . S
H767 C787 0.950 . S
H768 C789 0.950 . S
H769 C792 0.950 . S
H770 C793 0.950 . S
H771 C795 0.950 . S
H772 C796 0.950 . S
H773 C797 0.951 . S
H774 C799 0.943 1_556 S
H775 C801 0.950 . S
H776 C802 0.950 . S
H777 C804 0.950 1_554 S
H778 C807 0.950 . S
H779 C808 0.950 . S
H780 C810 0.950 . S
H781 C811 0.950 . S
C782 H764 0.951 . S
C782 C783 1.366 . S
C782 C784 1.388 . S
C783 C782 1.366 . S
C783 C787 1.385 . S
C784 H765 0.951 . S
C784 C782 1.388 . S
C784 C785 1.366 . S
C785 C784 1.366 . S
C785 C786 1.414 . S
C785 C788 1.499 . S
C786 H766 0.950 . S
C786 C785 1.414 . S
C786 C787 1.374 . S
C787 H767 0.950 . S
C787 C783 1.385 . S
C787 C786 1.374 . S
C788 C785 1.499 . S
C788 C789 1.373 . S
C788 C790 1.389 . S
C789 H768 0.950 . S
C789 C788 1.373 . S
C789 C805 1.377 . S
C790 C788 1.389 . S
C790 C791 1.524 . S
C790 C804 1.377 . S
C791 C790 1.524 . S
C791 C792 1.397 . S
C791 C796 1.363 . S
C792 H769 0.950 . S
C792 C791 1.397 . S
C792 C793 1.334 . S
C793 H770 0.950 . S
C793 C792 1.334 . S
C793 C794 1.287 1_556 S
C794 C793 1.287 1_554 S
C794 C795 1.524 . S
C794 H813 0.913 . S
C795 H771 0.950 . S
C795 C794 1.524 . S
C795 C796 1.415 1_554 S
C796 H772 0.950 . S
C796 C791 1.363 . S
C796 C795 1.415 1_556 S
C797 H773 0.951 . S
C797 C798 1.366 . S
C797 C799 1.388 . S
C798 C797 1.366 . S
C798 C802 1.385 . S
C799 H774 0.943 1_554 S
C799 C797 1.388 . S
C799 C800 1.366 . S
C800 C799 1.366 . S
C800 C801 1.414 . S
C800 C803 1.499 1_554 S
C801 H775 0.950 . S
C801 C800 1.414 . S
C801 C802 1.374 . S
C802 H776 0.950 . S
C802 C798 1.385 . S
C802 C801 1.374 . S
C803 C800 1.499 1_556 S
C803 C804 1.373 . S
C803 C805 1.389 . S
C804 H777 0.950 1_556 S
C804 C790 1.377 . S
C804 C803 1.373 . S
C805 C789 1.377 . S
C805 C803 1.389 . S
C805 C806 1.524 . S
C806 C805 1.524 . S
C806 C807 1.397 . S
C806 C811 1.363 . S
C807 H778 0.950 . S
C807 C806 1.397 . S
C807 C808 1.334 . S
C808 H779 0.950 . S
C808 C807 1.334 . S
C808 C809 1.287 . S
C809 C808 1.287 . S
C809 C810 1.524 . S
C809 H812 0.999 . S
C810 H780 0.950 . S
C810 C809 1.524 . S
C810 C811 1.415 . S
C811 H781 0.950 . S
C811 C806 1.363 . S
C811 C810 1.415 . S
H812 C809 0.999 . S
H813 C794 0.913 . S
H814 C832 0.951 . S
H815 C834 0.951 . S
H816 C836 0.950 . S
H817 C837 0.950 . S
H818 C839 0.950 . S
H819 C842 0.950 . S
H820 C843 0.950 . S
H821 C845 0.950 . S
H822 C846 0.950 . S
H823 C847 0.951 . S
H824 C849 0.951 . S
H825 C851 0.950 . S
H826 C852 0.950 . S
H827 C854 0.950 . S
H828 C857 0.950 . S
H829 C858 0.950 . S
H830 C860 0.950 . S
H831 C861 0.950 . S
C832 H814 0.951 . S
C832 C833 1.366 . S
C832 C834 1.388 . S
C833 C832 1.366 . S
C833 C837 1.385 . S
C834 H815 0.951 . S
C834 C832 1.388 . S
C834 C835 1.366 . S
C835 C834 1.366 . S
C835 C836 1.414 . S
C835 C838 1.499 . S
C836 H816 0.950 . S
C836 C835 1.414 . S
C836 C837 1.374 . S
C837 H817 0.950 . S
C837 C833 1.385 . S
C837 C836 1.374 . S
C838 C835 1.499 . S
C838 C839 1.373 . S
C838 C840 1.389 . S
C839 H818 0.950 . S
C839 C838 1.373 . S
C839 C855 1.377 . S
C840 C838 1.389 . S
C840 C841 1.524 . S
C840 C854 1.377 . S
C841 C840 1.524 . S
C841 C842 1.397 . S
C841 C846 1.363 . S
C842 H819 0.950 . S
C842 C841 1.397 . S
C842 C843 1.334 . S
C843 H820 0.950 . S
C843 C842 1.334 . S
C843 C844 1.287 . S
C844 C843 1.287 . S
C844 C845 1.524 . S
C844 H863 0.913 . S
C845 H821 0.950 . S
C845 C844 1.524 . S
C845 C846 1.415 . S
C846 H822 0.950 . S
C846 C841 1.363 . S
C846 C845 1.415 . S
C847 H823 0.951 . S
C847 C848 1.366 . S
C847 C849 1.388 . S
C848 C847 1.366 . S
C848 C852 1.385 . S
C849 H824 0.951 . S
C849 C847 1.388 . S
C849 C850 1.366 . S
C850 C849 1.366 . S
C850 C851 1.414 . S
C850 C853 1.499 . S
C851 H825 0.950 . S
C851 C850 1.414 . S
C851 C852 1.374 . S
C852 H826 0.950 . S
C852 C848 1.385 . S
C852 C851 1.374 . S
C853 C850 1.499 . S
C853 C854 1.373 . S
C853 C855 1.389 . S
C854 H827 0.950 . S
C854 C840 1.377 . S
C854 C853 1.373 . S
C855 C839 1.377 . S
C855 C853 1.389 . S
C855 C856 1.524 . S
C856 C855 1.524 . S
C856 C857 1.397 . S
C856 C861 1.363 . S
C857 H828 0.950 . S
C857 C856 1.397 . S
C857 C858 1.334 . S
C858 H829 0.950 . S
C858 C857 1.334 . S
C858 C859 1.287 . S
C859 C858 1.287 . S
C859 C860 1.524 . S
C859 H862 0.999 . S
C860 H830 0.950 . S
C860 C859 1.524 . S
C860 C861 1.415 . S
C861 H831 0.950 . S
C861 C856 1.363 . S
C861 C860 1.415 . S
H862 C859 0.999 . S
H863 C844 0.913 . S
H864 C882 0.951 . S
H865 C884 0.951 . S
H866 C886 0.950 . S
H867 C887 0.950 . S
H868 C889 0.950 . S
H869 C892 0.950 . S
H870 C893 0.950 . S
H871 C895 0.950 . S
H872 C896 0.950 . S
H873 C897 0.951 . S
H874 C899 0.951 . S
H875 C901 0.950 . S
H876 C902 0.950 . S
H877 C904 0.950 . S
H878 C907 0.950 . S
H879 C908 0.950 . S
H880 C910 0.950 . S
H881 C911 0.950 . S
C882 H864 0.951 . S
C882 C883 1.366 . S
C882 C884 1.388 . S
C883 C882 1.366 . S
C883 C887 1.385 . S
C884 H865 0.951 . S
C884 C882 1.388 . S
C884 C885 1.366 . S
C885 C884 1.366 . S
C885 C886 1.414 . S
C885 C888 1.499 . S
C886 H866 0.950 . S
C886 C885 1.414 . S
C886 C887 1.374 . S
C887 H867 0.950 . S
C887 C883 1.385 . S
C887 C886 1.374 . S
C888 C885 1.499 . S
C888 C889 1.373 . S
C888 C890 1.389 . S
C889 H868 0.950 . S
C889 C888 1.373 . S
C889 C905 1.377 . S
C890 C888 1.389 . S
C890 C891 1.524 . S
C890 C904 1.377 . S
C891 C890 1.524 . S
C891 C892 1.397 . S
C891 C896 1.363 . S
C892 H869 0.950 . S
C892 C891 1.397 . S
C892 C893 1.334 . S
C893 H870 0.950 . S
C893 C892 1.334 . S
C893 C894 1.287 . S
C894 C893 1.287 . S
C894 C895 1.524 . S
C894 H913 0.913 . S
C895 H871 0.950 . S
C895 C894 1.524 . S
C895 C896 1.415 . S
C896 H872 0.950 . S
C896 C891 1.363 . S
C896 C895 1.415 . S
C897 H873 0.951 . S
C897 C898 1.366 . S
C897 C899 1.388 . S
C898 C897 1.366 . S
C898 C902 1.385 . S
C899 H874 0.951 . S
C899 C897 1.388 . S
C899 C900 1.366 . S
C900 C899 1.366 . S
C900 C901 1.414 . S
C900 C903 1.499 . S
C901 H875 0.950 . S
C901 C900 1.414 . S
C901 C902 1.374 . S
C902 H876 0.950 . S
C902 C898 1.385 . S
C902 C901 1.374 . S
C903 C900 1.499 . S
C903 C904 1.373 . S
C903 C905 1.389 . S
C904 H877 0.950 . S
C904 C890 1.377 . S
C904 C903 1.373 . S
C905 C889 1.377 . S
C905 C903 1.389 . S
C905 C906 1.524 . S
C906 C905 1.524 . S
C906 C907 1.397 . S
C906 C911 1.363 . S
C907 H878 0.950 . S
C907 C906 1.397 . S
C907 C908 1.334 . S
C908 H879 0.950 . S
C908 C907 1.334 . S
C908 C909 1.287 . S
C909 C908 1.287 . S
C909 C910 1.524 . S
C909 H912 0.999 . S
C910 H880 0.950 . S
C910 C909 1.524 . S
C910 C911 1.415 . S
C911 H881 0.950 . S
C911 C906 1.363 . S
C911 C910 1.415 . S
H912 C909 0.999 . S
H913 C894 0.913 . S
H914 C932 0.951 . S
H915 C934 0.951 . S
H916 C936 0.950 . S
H917 C937 0.950 . S
H918 C939 0.950 . S
H919 C942 0.950 . S
H920 C943 0.950 . S
H921 C945 0.950 . S
H922 C946 0.950 . S
H923 C947 0.951 . S
H924 C949 0.951 . S
H925 C951 0.950 . S
H926 C952 0.950 . S
H927 C954 0.950 . S
H928 C957 0.950 . S
H929 C958 0.950 . S
H930 C960 0.950 . S
H931 C961 0.950 . S
C932 H914 0.951 . S
C932 C933 1.366 . S
C932 C934 1.388 . S
C933 C932 1.366 . S
C933 C937 1.385 . S
C934 H915 0.951 . S
C934 C932 1.388 . S
C934 C935 1.366 . S
C935 C934 1.366 . S
C935 C936 1.414 . S
C935 C938 1.499 . S
C936 H916 0.950 . S
C936 C935 1.414 . S
C936 C937 1.374 . S
C937 H917 0.950 . S
C937 C933 1.385 . S
C937 C936 1.374 . S
C938 C935 1.499 . S
C938 C939 1.373 . S
C938 C940 1.389 . S
C939 H918 0.950 . S
C939 C938 1.373 . S
C939 C955 1.377 . S
C940 C938 1.389 . S
C940 C941 1.524 . S
C940 C954 1.377 . S
C941 C940 1.524 . S
C941 C942 1.397 . S
C941 C946 1.363 . S
C942 H919 0.950 . S
C942 C941 1.397 . S
C942 C943 1.334 . S
C943 H920 0.950 . S
C943 C942 1.334 . S
C943 C944 1.287 . S
C944 C943 1.287 . S
C944 C945 1.524 . S
C944 H963 0.913 . S
C945 H921 0.950 . S
C945 C944 1.524 . S
C945 C946 1.415 . S
C946 H922 0.950 . S
C946 C941 1.363 . S
C946 C945 1.415 . S
C947 H923 0.951 . S
C947 C948 1.366 . S
C947 C949 1.388 . S
C948 C947 1.366 . S
C948 C952 1.385 . S
C949 H924 0.951 . S
C949 C947 1.388 . S
C949 C950 1.366 . S
C950 C949 1.366 . S
C950 C951 1.414 . S
C950 C953 1.499 . S
C951 H925 0.950 . S
C951 C950 1.414 . S
C951 C952 1.374 . S
C952 H926 0.950 . S
C952 C948 1.385 . S
C952 C951 1.374 . S
C953 C950 1.499 . S
C953 C954 1.373 . S
C953 C955 1.389 . S
C954 H927 0.950 . S
C954 C940 1.377 . S
C954 C953 1.373 . S
C955 C939 1.377 . S
C955 C953 1.389 . S
C955 C956 1.524 . S
C956 C955 1.524 . S
C956 C957 1.397 . S
C956 C961 1.363 . S
C957 H928 0.950 . S
C957 C956 1.397 . S
C957 C958 1.334 . S
C958 H929 0.950 . S
C958 C957 1.334 . S
C958 C959 1.287 . S
C959 C958 1.287 . S
C959 C960 1.524 . S
C959 H962 0.999 . S
C960 H930 0.950 . S
C960 C959 1.524 . S
C960 C961 1.415 . S
C961 H931 0.950 . S
C961 C956 1.363 . S
C961 C960 1.415 . S
H962 C959 0.999 . S
H963 C944 0.913 . S
H964 C982 0.951 . S
H965 C984 0.951 . S
H966 C986 0.950 . S
H967 C987 0.950 . S
H968 C989 0.950 . S
H969 C992 0.950 . S
H970 C993 0.950 . S
H971 C995 0.950 . S
H972 C996 0.950 . S
H973 C997 0.951 . S
H974 C999 0.951 . S
H975 C1001 0.950 . S
H976 C1002 0.950 . S
H977 C1004 0.950 . S
H978 C1007 0.950 . S
H979 C1008 0.950 . S
H980 C1010 0.950 . S
H981 C1011 0.950 . S
C982 H964 0.951 . S
C982 C983 1.366 . S
C982 C984 1.388 . S
C983 C982 1.366 . S
C983 C987 1.385 . S
C984 H965 0.951 . S
C984 C982 1.388 . S
C984 C985 1.366 . S
C985 C984 1.366 . S
C985 C986 1.414 . S
C985 C988 1.499 . S
C986 H966 0.950 . S
C986 C985 1.414 . S
C986 C987 1.374 . S
C987 H967 0.950 . S
C987 C983 1.385 . S
C987 C986 1.374 . S
C988 C985 1.499 . S
C988 C989 1.373 . S
C988 C990 1.389 . S
C989 H968 0.950 . S
C989 C988 1.373 . S
C989 C1005 1.377 . S
C990 C988 1.389 . S
C990 C991 1.524 . S
C990 C1004 1.377 . S
C991 C990 1.524 . S
C991 C992 1.397 . S
C991 C996 1.363 . S
C992 H969 0.950 . S
C992 C991 1.397 . S
C992 C993 1.334 . S
C993 H970 0.950 . S
C993 C992 1.334 . S
C993 C994 1.287 . S
C994 C993 1.287 . S
C994 C995 1.524 . S
C994 H1013 0.913 . S
C995 H971 0.950 . S
C995 C994 1.524 . S
C995 C996 1.415 . S
C996 H972 0.950 . S
C996 C991 1.363 . S
C996 C995 1.415 . S
C997 H973 0.951 . S
C997 C998 1.366 . S
C997 C999 1.388 . S
C998 C997 1.366 . S
C998 C1002 1.385 . S
C999 H974 0.951 . S
C999 C997 1.388 . S
C999 C1000 1.366 . S
C1000 C999 1.366 . S
C1000 C1001 1.414 . S
C1000 C1003 1.499 . S
C1001 H975 0.950 . S
C1001 C1000 1.414 . S
C1001 C1002 1.374 . S
C1002 H976 0.950 . S
C1002 C998 1.385 . S
C1002 C1001 1.374 . S
C1003 C1000 1.499 . S
C1003 C1004 1.373 . S
C1003 C1005 1.389 . S
C1004 H977 0.950 . S
C1004 C990 1.377 . S
C1004 C1003 1.373 . S
C1005 C989 1.377 . S
C1005 C1003 1.389 . S
C1005 C1006 1.524 . S
C1006 C1005 1.524 . S
C1006 C1007 1.397 . S
C1006 C1011 1.363 . S
C1007 H978 0.950 . S
C1007 C1006 1.397 . S
C1007 C1008 1.334 . S
C1008 H979 0.950 . S
C1008 C1007 1.334 . S
C1008 C1009 1.287 . S
C1009 C1008 1.287 . S
C1009 C1010 1.524 . S
C1009 H1012 0.999 . S
C1010 H980 0.950 . S
C1010 C1009 1.524 . S
C1010 C1011 1.415 . S
C1011 H981 0.950 . S
C1011 C1006 1.363 . S
C1011 C1010 1.415 . S
H1012 C1009 0.999 . S
H1013 C994 0.913 . S
H1014 C1032 0.951 . S
H1015 C1034 0.951 . S
H1016 C1036 0.950 . S
H1017 C1037 0.950 . S
H1018 C1039 0.950 . S
H1019 C1042 0.950 . S
H1020 C1043 0.950 . S
H1021 C1045 0.950 . S
H1022 C1046 0.950 . S
H1023 C1047 0.951 . S
H1024 C1049 0.951 . S
H1025 C1051 0.950 . S
H1026 C1052 0.950 . S
H1027 C1054 0.950 . S
H1028 C1057 0.950 . S
H1029 C1058 0.950 . S
H1030 C1060 0.950 . S
H1031 C1061 0.950 . S
C1032 H1014 0.951 . S
C1032 C1033 1.366 . S
C1032 C1034 1.388 . S
C1033 C1032 1.366 . S
C1033 C1037 1.385 . S
C1034 H1015 0.951 . S
C1034 C1032 1.388 . S
C1034 C1035 1.366 . S
C1035 C1034 1.366 . S
C1035 C1036 1.414 . S
C1035 C1038 1.499 . S
C1036 H1016 0.950 . S
C1036 C1035 1.414 . S
C1036 C1037 1.374 . S
C1037 H1017 0.950 . S
C1037 C1033 1.385 . S
C1037 C1036 1.374 . S
C1038 C1035 1.499 . S
C1038 C1039 1.373 . S
C1038 C1040 1.389 . S
C1039 H1018 0.950 . S
C1039 C1038 1.373 . S
C1039 C1055 1.377 . S
C1040 C1038 1.389 . S
C1040 C1041 1.524 . S
C1040 C1054 1.377 . S
C1041 C1040 1.524 . S
C1041 C1042 1.397 . S
C1041 C1046 1.363 . S
C1042 H1019 0.950 . S
C1042 C1041 1.397 . S
C1042 C1043 1.334 . S
C1043 H1020 0.950 . S
C1043 C1042 1.334 . S
C1043 C1044 1.287 . S
C1044 C1043 1.287 . S
C1044 C1045 1.524 . S
C1044 H1063 0.913 . S
C1045 H1021 0.950 . S
C1045 C1044 1.524 . S
C1045 C1046 1.415 . S
C1046 H1022 0.950 . S
C1046 C1041 1.363 . S
C1046 C1045 1.415 . S
C1047 H1023 0.951 . S
C1047 C1048 1.366 . S
C1047 C1049 1.388 . S
C1048 C1047 1.366 . S
C1048 C1052 1.385 . S
C1049 H1024 0.951 . S
C1049 C1047 1.388 . S
C1049 C1050 1.366 . S
C1050 C1049 1.366 . S
C1050 C1051 1.414 . S
C1050 C1053 1.499 . S
C1051 H1025 0.950 . S
C1051 C1050 1.414 . S
C1051 C1052 1.374 . S
C1052 H1026 0.950 . S
C1052 C1048 1.385 . S
C1052 C1051 1.374 . S
C1053 C1050 1.499 . S
C1053 C1054 1.373 . S
C1053 C1055 1.389 . S
C1054 H1027 0.950 . S
C1054 C1040 1.377 . S
C1054 C1053 1.373 . S
C1055 C1039 1.377 . S
C1055 C1053 1.389 . S
C1055 C1056 1.524 . S
C1056 C1055 1.524 . S
C1056 C1057 1.397 . S
C1056 C1061 1.363 . S
C1057 H1028 0.950 . S
C1057 C1056 1.397 . S
C1057 C1058 1.334 . S
C1058 H1029 0.950 . S
C1058 C1057 1.334 . S
C1058 C1059 1.287 . S
C1059 C1058 1.287 . S
C1059 C1060 1.524 . S
C1059 H1062 0.999 . S
C1060 H1030 0.950 . S
C1060 C1059 1.524 . S
C1060 C1061 1.415 . S
C1061 H1031 0.950 . S
C1061 C1056 1.363 . S
C1061 C1060 1.415 . S
H1062 C1059 0.999 . S
H1063 C1044 0.913 . S
H1064 C1082 0.951 . S
H1065 C1084 0.951 . S
H1066 C1086 0.950 . S
H1067 C1087 0.950 . S
H1068 C1089 0.950 . S
H1069 C1092 0.950 . S
H1070 C1093 0.950 . S
H1071 C1095 0.950 . S
H1072 C1096 0.950 . S
H1073 C1097 0.951 . S
H1074 C1099 0.951 1_455 S
H1075 C1101 0.950 . S
H1076 C1102 0.950 . S
H1077 C1104 0.950 . S
H1078 C1107 0.950 . S
H1079 C1108 0.950 . S
H1080 C1110 0.944 1_455 S
H1081 C1111 0.950 . S
C1082 H1064 0.951 . S
C1082 C1083 1.366 . S
C1082 C1084 1.388 . S
C1083 C1082 1.366 . S
C1083 C1087 1.385 . S
C1084 H1065 0.951 . S
C1084 C1082 1.388 . S
C1084 C1085 1.366 . S
C1085 C1084 1.366 . S
C1085 C1086 1.414 . S
C1085 C1088 1.499 . S
C1086 H1066 0.950 . S
C1086 C1085 1.414 . S
C1086 C1087 1.374 . S
C1087 H1067 0.950 . S
C1087 C1083 1.385 . S
C1087 C1086 1.374 . S
C1088 C1085 1.499 . S
C1088 C1089 1.373 . S
C1088 C1090 1.389 . S
C1089 H1068 0.950 . S
C1089 C1088 1.373 . S
C1089 C1105 1.377 . S
C1090 C1088 1.389 . S
C1090 C1091 1.524 . S
C1090 C1104 1.377 . S
C1091 C1090 1.524 . S
C1091 C1092 1.397 . S
C1091 C1096 1.363 . S
C1092 H1069 0.950 . S
C1092 C1091 1.397 . S
C1092 C1093 1.334 . S
C1093 H1070 0.950 . S
C1093 C1092 1.334 . S
C1093 C1094 1.287 . S
C1094 C1093 1.287 . S
C1094 C1095 1.524 . S
C1094 H1113 0.913 . S
C1095 H1071 0.950 . S
C1095 C1094 1.524 . S
C1095 C1096 1.415 . S
C1096 H1072 0.950 . S
C1096 C1091 1.363 . S
C1096 C1095 1.415 . S
C1097 H1073 0.951 . S
C1097 C1098 1.366 . S
C1097 C1099 1.388 1_455 S
C1098 C1097 1.366 . S
C1098 C1102 1.385 1_455 S
C1099 H1074 0.951 1_655 S
C1099 C1097 1.388 1_655 S
C1099 C1100 1.366 . S
C1100 C1099 1.366 . S
C1100 C1101 1.414 . S
C1100 C1103 1.499 . S
C1101 H1075 0.950 . S
C1101 C1100 1.414 . S
C1101 C1102 1.374 . S
C1102 H1076 0.950 . S
C1102 C1098 1.385 1_655 S
C1102 C1101 1.374 . S
C1103 C1100 1.499 . S
C1103 C1104 1.373 . S
C1103 C1105 1.389 . S
C1104 H1077 0.950 . S
C1104 C1090 1.377 . S
C1104 C1103 1.373 . S
C1105 C1089 1.377 . S
C1105 C1103 1.389 . S
C1105 C1106 1.524 . S
C1106 C1105 1.524 . S
C1106 C1107 1.397 . S
C1106 C1111 1.363 . S
C1107 H1078 0.950 . S
C1107 C1106 1.397 . S
C1107 C1108 1.334 . S
C1108 H1079 0.950 . S
C1108 C1107 1.334 . S
C1108 C1109 1.287 1_655 S
C1109 C1108 1.287 1_455 S
C1109 C1110 1.527 1_455 S
C1109 H1112 0.999 . S
C1110 H1080 0.944 1_655 S
C1110 C1109 1.527 1_655 S
C1110 C1111 1.419 . S
C1111 H1081 0.950 . S
C1111 C1106 1.363 . S
C1111 C1110 1.419 . S
H1112 C1109 0.999 . S
H1113 C1094 0.913 . S
H1114 C1132 0.951 . S
H1115 C1134 0.951 . S
H1116 C1136 0.950 . S
H1117 C1137 0.950 . S
H1118 C1139 0.950 . S
H1119 C1142 0.950 . S
H1120 C1143 0.950 . S
H1121 C1145 0.950 . S
H1122 C1146 0.950 . S
H1123 C1147 0.951 . S
H1124 C1149 0.951 . S
H1125 C1151 0.950 . S
H1126 C1152 0.950 . S
H1127 C1154 0.950 . S
H1128 C1157 0.950 . S
H1129 C1158 0.950 . S
H1130 C1160 0.950 . S
H1131 C1161 0.950 . S
C1132 H1114 0.951 . S
C1132 C1133 1.366 . S
C1132 C1134 1.388 . S
C1133 C1132 1.366 . S
C1133 C1137 1.385 . S
C1134 H1115 0.951 . S
C1134 C1132 1.388 . S
C1134 C1135 1.366 . S
C1135 C1134 1.366 . S
C1135 C1136 1.414 . S
C1135 C1138 1.499 . S
C1136 H1116 0.950 . S
C1136 C1135 1.414 . S
C1136 C1137 1.374 . S
C1137 H1117 0.950 . S
C1137 C1133 1.385 . S
C1137 C1136 1.374 . S
C1138 C1135 1.499 . S
C1138 C1139 1.373 . S
C1138 C1140 1.389 . S
C1139 H1118 0.950 . S
C1139 C1138 1.373 . S
C1139 C1155 1.377 . S
C1140 C1138 1.389 . S
C1140 C1141 1.524 . S
C1140 C1154 1.377 . S
C1141 C1140 1.524 . S
C1141 C1142 1.397 . S
C1141 C1146 1.363 . S
C1142 H1119 0.950 . S
C1142 C1141 1.397 . S
C1142 C1143 1.334 . S
C1143 H1120 0.950 . S
C1143 C1142 1.334 . S
C1143 C1144 1.287 . S
C1144 C1143 1.287 . S
C1144 C1145 1.524 . S
C1144 H1163 0.913 . S
C1145 H1121 0.950 . S
C1145 C1144 1.524 . S
C1145 C1146 1.415 . S
C1146 H1122 0.950 . S
C1146 C1141 1.363 . S
C1146 C1145 1.415 . S
C1147 H1123 0.951 . S
C1147 C1148 1.366 . S
C1147 C1149 1.388 . S
C1148 C1147 1.366 . S
C1148 C1152 1.385 . S
C1149 H1124 0.951 . S
C1149 C1147 1.388 . S
C1149 C1150 1.366 . S
C1150 C1149 1.366 . S
C1150 C1151 1.414 . S
C1150 C1153 1.499 . S
C1151 H1125 0.950 . S
C1151 C1150 1.414 . S
C1151 C1152 1.374 . S
C1152 H1126 0.950 . S
C1152 C1148 1.385 . S
C1152 C1151 1.374 . S
C1153 C1150 1.499 . S
C1153 C1154 1.373 . S
C1153 C1155 1.389 . S
C1154 H1127 0.950 . S
C1154 C1140 1.377 . S
C1154 C1153 1.373 . S
C1155 C1139 1.377 . S
C1155 C1153 1.389 . S
C1155 C1156 1.524 . S
C1156 C1155 1.524 . S
C1156 C1157 1.397 . S
C1156 C1161 1.363 . S
C1157 H1128 0.950 . S
C1157 C1156 1.397 . S
C1157 C1158 1.334 . S
C1158 H1129 0.950 . S
C1158 C1157 1.334 . S
C1158 C1159 1.287 . S
C1159 C1158 1.287 . S
C1159 C1160 1.524 . S
C1159 H1162 0.999 . S
C1160 H1130 0.950 . S
C1160 C1159 1.524 . S
C1160 C1161 1.415 . S
C1161 H1131 0.950 . S
C1161 C1156 1.363 . S
C1161 C1160 1.415 . S
H1162 C1159 0.999 . S
H1163 C1144 0.913 . S
H1164 C1182 0.951 . S
H1165 C1184 0.951 . S
H1166 C1186 0.950 . S
H1167 C1187 0.950 . S
H1168 C1189 0.950 . S
H1169 C1192 0.950 . S
H1170 C1193 0.950 . S
H1171 C1195 0.950 . S
H1172 C1196 0.950 . S
H1173 C1197 0.951 . S
H1174 C1199 0.951 . S
H1175 C1201 0.950 . S
H1176 C1202 0.950 . S
H1177 C1204 0.950 . S
H1178 C1207 0.950 . S
H1179 C1208 0.950 . S
H1180 C1210 0.950 . S
H1181 C1211 0.950 . S
C1182 H1164 0.951 . S
C1182 C1183 1.366 . S
C1182 C1184 1.388 . S
C1183 C1182 1.366 . S
C1183 C1187 1.385 . S
C1184 H1165 0.951 . S
C1184 C1182 1.388 . S
C1184 C1185 1.366 . S
C1185 C1184 1.366 . S
C1185 C1186 1.414 . S
C1185 C1188 1.499 . S
C1186 H1166 0.950 . S
C1186 C1185 1.414 . S
C1186 C1187 1.374 . S
C1187 H1167 0.950 . S
C1187 C1183 1.385 . S
C1187 C1186 1.374 . S
C1188 C1185 1.499 . S
C1188 C1189 1.373 . S
C1188 C1190 1.389 . S
C1189 H1168 0.950 . S
C1189 C1188 1.373 . S
C1189 C1205 1.377 . S
C1190 C1188 1.389 . S
C1190 C1191 1.524 . S
C1190 C1204 1.377 . S
C1191 C1190 1.524 . S
C1191 C1192 1.397 . S
C1191 C1196 1.363 . S
C1192 H1169 0.950 . S
C1192 C1191 1.397 . S
C1192 C1193 1.334 . S
C1193 H1170 0.950 . S
C1193 C1192 1.334 . S
C1193 C1194 1.287 . S
C1194 C1193 1.287 . S
C1194 C1195 1.524 . S
C1194 H1213 0.913 . S
C1195 H1171 0.950 . S
C1195 C1194 1.524 . S
C1195 C1196 1.415 . S
C1196 H1172 0.950 . S
C1196 C1191 1.363 . S
C1196 C1195 1.415 . S
C1197 H1173 0.951 . S
C1197 C1198 1.366 . S
C1197 C1199 1.388 . S
C1198 C1197 1.366 . S
C1198 C1202 1.385 . S
C1199 H1174 0.951 . S
C1199 C1197 1.388 . S
C1199 C1200 1.366 . S
C1200 C1199 1.366 . S
C1200 C1201 1.414 . S
C1200 C1203 1.499 . S
C1201 H1175 0.950 . S
C1201 C1200 1.414 . S
C1201 C1202 1.374 . S
C1202 H1176 0.950 . S
C1202 C1198 1.385 . S
C1202 C1201 1.374 . S
C1203 C1200 1.499 . S
C1203 C1204 1.373 . S
C1203 C1205 1.389 . S
C1204 H1177 0.950 . S
C1204 C1190 1.377 . S
C1204 C1203 1.373 . S
C1205 C1189 1.377 . S
C1205 C1203 1.389 . S
C1205 C1206 1.524 . S
C1206 C1205 1.524 . S
C1206 C1207 1.397 . S
C1206 C1211 1.363 . S
C1207 H1178 0.950 . S
C1207 C1206 1.397 . S
C1207 C1208 1.334 . S
C1208 H1179 0.950 . S
C1208 C1207 1.334 . S
C1208 C1209 1.287 . S
C1209 C1208 1.287 . S
C1209 C1210 1.524 . S
C1209 H1212 0.999 . S
C1210 H1180 0.950 . S
C1210 C1209 1.524 . S
C1210 C1211 1.415 . S
C1211 H1181 0.950 . S
C1211 C1206 1.363 . S
C1211 C1210 1.415 . S
H1212 C1209 0.999 . S
H1213 C1194 0.913 . S
H1214 C1232 0.951 . S
H1215 C1234 0.951 . S
H1216 C1236 0.950 . S
H1217 C1237 0.950 . S
H1218 C1239 0.950 . S
H1219 C1242 0.950 . S
H1220 C1243 0.950 . S
H1221 C1245 0.950 . S
H1222 C1246 0.950 . S
H1223 C1247 0.951 1_545 S
H1224 C1249 0.951 . S
H1225 C1251 0.950 . S
H1226 C1252 0.950 . S
H1227 C1254 0.950 . S
H1228 C1257 0.950 . S
H1229 C1258 0.950 . S
H1230 C1260 0.950 . S
H1231 C1261 0.950 . S
C1232 H1214 0.951 . S
C1232 C1233 1.366 . S
C1232 C1234 1.388 . S
C1233 C1232 1.366 . S
C1233 C1237 1.385 . S
C1234 H1215 0.951 . S
C1234 C1232 1.388 . S
C1234 C1235 1.366 . S
C1235 C1234 1.366 . S
C1235 C1236 1.414 . S
C1235 C1238 1.499 . S
C1236 H1216 0.950 . S
C1236 C1235 1.414 . S
C1236 C1237 1.374 . S
C1237 H1217 0.950 . S
C1237 C1233 1.385 . S
C1237 C1236 1.374 . S
C1238 C1235 1.499 . S
C1238 C1239 1.373 . S
C1238 C1240 1.389 . S
C1239 H1218 0.950 . S
C1239 C1238 1.373 . S
C1239 C1255 1.377 . S
C1240 C1238 1.389 . S
C1240 C1241 1.524 . S
C1240 C1254 1.377 . S
C1241 C1240 1.524 . S
C1241 C1242 1.397 . S
C1241 C1246 1.363 . S
C1242 H1219 0.950 . S
C1242 C1241 1.397 . S
C1242 C1243 1.334 . S
C1243 H1220 0.950 . S
C1243 C1242 1.334 . S
C1243 C1244 1.287 . S
C1244 C1243 1.287 . S
C1244 C1245 1.524 . S
C1244 H1263 0.913 . S
C1245 H1221 0.950 . S
C1245 C1244 1.524 . S
C1245 C1246 1.415 . S
C1246 H1222 0.950 . S
C1246 C1241 1.363 . S
C1246 C1245 1.415 . S
C1247 H1223 0.951 1_565 S
C1247 C1248 1.366 . S
C1247 C1249 1.388 . S
C1248 C1247 1.366 . S
C1248 C1252 1.385 . S
C1249 H1224 0.951 . S
C1249 C1247 1.388 . S
C1249 C1250 1.366 . S
C1250 C1249 1.366 . S
C1250 C1251 1.414 . S
C1250 C1253 1.499 . S
C1251 H1225 0.950 . S
C1251 C1250 1.414 . S
C1251 C1252 1.374 . S
C1252 H1226 0.950 . S
C1252 C1248 1.385 . S
C1252 C1251 1.374 . S
C1253 C1250 1.499 . S
C1253 C1254 1.373 . S
C1253 C1255 1.389 . S
C1254 H1227 0.950 . S
C1254 C1240 1.377 . S
C1254 C1253 1.373 . S
C1255 C1239 1.377 . S
C1255 C1253 1.389 . S
C1255 C1256 1.524 . S
C1256 C1255 1.524 . S
C1256 C1257 1.397 . S
C1256 C1261 1.363 . S
C1257 H1228 0.950 . S
C1257 C1256 1.397 . S
C1257 C1258 1.334 . S
C1258 H1229 0.950 . S
C1258 C1257 1.334 . S
C1258 C1259 1.287 . S
C1259 C1258 1.287 . S
C1259 C1260 1.524 . S
C1259 H1262 0.999 . S
C1260 H1230 0.950 . S
C1260 C1259 1.524 . S
C1260 C1261 1.415 . S
C1261 H1231 0.950 . S
C1261 C1256 1.363 . S
C1261 C1260 1.415 . S
H1262 C1259 0.999 . S
H1263 C1244 0.913 . S
H1264 C1282 0.951 . S
H1265 C1284 0.951 . S
H1266 C1286 0.950 . S
H1267 C1287 0.950 . S
H1268 C1289 0.950 . S
H1269 C1292 0.950 . S
H1270 C1293 0.950 . S
H1271 C1295 0.950 . S
H1272 C1296 0.950 . S
H1273 C1297 0.951 . S
H1274 C1299 0.951 . S
H1275 C1301 0.950 . S
H1276 C1302 0.950 . S
H1277 C1304 0.950 . S
H1278 C1307 0.950 . S
H1279 C1308 0.950 . S
H1280 C1310 0.950 . S
H1281 C1311 0.950 . S
C1282 H1264 0.951 . S
C1282 C1283 1.366 . S
C1282 C1284 1.388 . S
C1283 C1282 1.366 . S
C1283 C1287 1.385 . S
C1284 H1265 0.951 . S
C1284 C1282 1.388 . S
C1284 C1285 1.366 . S
C1285 C1284 1.366 . S
C1285 C1286 1.414 . S
C1285 C1288 1.499 . S
C1286 H1266 0.950 . S
C1286 C1285 1.414 . S
C1286 C1287 1.374 . S
C1287 H1267 0.950 . S
C1287 C1283 1.385 . S
C1287 C1286 1.374 . S
C1288 C1285 1.499 . S
C1288 C1289 1.373 . S
C1288 C1290 1.389 . S
C1289 H1268 0.950 . S
C1289 C1288 1.373 . S
C1289 C1305 1.377 . S
C1290 C1288 1.389 . S
C1290 C1291 1.524 . S
C1290 C1304 1.377 . S
C1291 C1290 1.524 . S
C1291 C1292 1.397 . S
C1291 C1296 1.363 . S
C1292 H1269 0.950 . S
C1292 C1291 1.397 . S
C1292 C1293 1.334 . S
C1293 H1270 0.950 . S
C1293 C1292 1.334 . S
C1293 C1294 1.287 . S
C1294 C1293 1.287 . S
C1294 C1295 1.524 . S
C1294 H1313 0.913 . S
C1295 H1271 0.950 . S
C1295 C1294 1.524 . S
C1295 C1296 1.415 . S
C1296 H1272 0.950 . S
C1296 C1291 1.363 . S
C1296 C1295 1.415 . S
C1297 H1273 0.951 . S
C1297 C1298 1.366 . S
C1297 C1299 1.388 . S
C1298 C1297 1.366 . S
C1298 C1302 1.385 . S
C1299 H1274 0.951 . S
C1299 C1297 1.388 . S
C1299 C1300 1.366 . S
C1300 C1299 1.366 . S
C1300 C1301 1.414 . S
C1300 C1303 1.499 . S
C1301 H1275 0.950 . S
C1301 C1300 1.414 . S
C1301 C1302 1.374 . S
C1302 H1276 0.950 . S
C1302 C1298 1.385 . S
C1302 C1301 1.374 . S
C1303 C1300 1.499 . S
C1303 C1304 1.373 . S
C1303 C1305 1.389 . S
C1304 H1277 0.950 . S
C1304 C1290 1.377 . S
C1304 C1303 1.373 . S
C1305 C1289 1.377 . S
C1305 C1303 1.389 . S
C1305 C1306 1.524 . S
C1306 C1305 1.524 . S
C1306 C1307 1.397 . S
C1306 C1311 1.363 . S
C1307 H1278 0.950 . S
C1307 C1306 1.397 . S
C1307 C1308 1.334 . S
C1308 H1279 0.950 . S
C1308 C1307 1.334 . S
C1308 C1309 1.287 . S
C1309 C1308 1.287 . S
C1309 C1310 1.524 . S
C1309 H1312 0.999 . S
C1310 H1280 0.950 . S
C1310 C1309 1.524 . S
C1310 C1311 1.415 . S
C1311 H1281 0.950 . S
C1311 C1306 1.363 . S
C1311 C1310 1.415 . S
H1312 C1309 0.999 . S
H1313 C1294 0.913 . S
H1314 C1332 0.951 . S
H1315 C1334 0.951 . S
H1316 C1336 0.950 . S
H1317 C1337 0.950 . S
H1318 C1339 0.950 . S
H1319 C1342 0.950 . S
H1320 C1343 0.950 . S
H1321 C1345 0.950 . S
H1322 C1346 0.950 . S
H1323 C1347 0.951 . S
H1324 C1349 0.951 . S
H1325 C1351 0.950 . S
H1326 C1352 0.950 . S
H1327 C1354 0.950 . S
H1328 C1357 0.950 . S
H1329 C1358 0.950 . S
H1330 C1360 0.950 . S
H1331 C1361 0.950 . S
C1332 H1314 0.951 . S
C1332 C1333 1.366 . S
C1332 C1334 1.388 . S
C1333 C1332 1.366 . S
C1333 C1337 1.385 . S
C1334 H1315 0.951 . S
C1334 C1332 1.388 . S
C1334 C1335 1.366 . S
C1335 C1334 1.366 . S
C1335 C1336 1.414 . S
C1335 C1338 1.499 . S
C1336 H1316 0.950 . S
C1336 C1335 1.414 . S
C1336 C1337 1.374 . S
C1337 H1317 0.950 . S
C1337 C1333 1.385 . S
C1337 C1336 1.374 . S
C1338 C1335 1.499 . S
C1338 C1339 1.373 . S
C1338 C1340 1.389 . S
C1339 H1318 0.950 . S
C1339 C1338 1.373 . S
C1339 C1355 1.377 . S
C1340 C1338 1.389 . S
C1340 C1341 1.524 . S
C1340 C1354 1.377 . S
C1341 C1340 1.524 . S
C1341 C1342 1.397 . S
C1341 C1346 1.363 . S
C1342 H1319 0.950 . S
C1342 C1341 1.397 . S
C1342 C1343 1.334 . S
C1343 H1320 0.950 . S
C1343 C1342 1.334 . S
C1343 C1344 1.287 . S
C1344 C1343 1.287 . S
C1344 C1345 1.524 . S
C1344 H1363 0.913 . S
C1345 H1321 0.950 . S
C1345 C1344 1.524 . S
C1345 C1346 1.415 . S
C1346 H1322 0.950 . S
C1346 C1341 1.363 . S
C1346 C1345 1.415 . S
C1347 H1323 0.951 . S
C1347 C1348 1.366 . S
C1347 C1349 1.388 . S
C1348 C1347 1.366 . S
C1348 C1352 1.385 . S
C1349 H1324 0.951 . S
C1349 C1347 1.388 . S
C1349 C1350 1.366 . S
C1350 C1349 1.366 . S
C1350 C1351 1.414 . S
C1350 C1353 1.499 . S
C1351 H1325 0.950 . S
C1351 C1350 1.414 . S
C1351 C1352 1.374 . S
C1352 H1326 0.950 . S
C1352 C1348 1.385 . S
C1352 C1351 1.374 . S
C1353 C1350 1.499 . S
C1353 C1354 1.373 . S
C1353 C1355 1.389 . S
C1354 H1327 0.950 . S
C1354 C1340 1.377 . S
C1354 C1353 1.373 . S
C1355 C1339 1.377 . S
C1355 C1353 1.389 . S
C1355 C1356 1.524 . S
C1356 C1355 1.524 . S
C1356 C1357 1.397 . S
C1356 C1361 1.363 . S
C1357 H1328 0.950 . S
C1357 C1356 1.397 . S
C1357 C1358 1.334 . S
C1358 H1329 0.950 . S
C1358 C1357 1.334 . S
C1358 C1359 1.287 . S
C1359 C1358 1.287 . S
C1359 C1360 1.524 . S
C1359 H1362 0.999 . S
C1360 H1330 0.950 . S
C1360 C1359 1.524 . S
C1360 C1361 1.415 . S
C1361 H1331 0.950 . S
C1361 C1356 1.363 . S
C1361 C1360 1.415 . S
H1362 C1359 0.999 . S
H1363 C1344 0.913 . S
H1364 C1382 0.951 . S
H1365 C1384 0.951 . S
H1366 C1386 0.950 . S
H1367 C1387 0.950 . S
H1368 C1389 0.950 . S
H1369 C1392 0.950 . S
H1370 C1393 0.950 . S
H1371 C1395 0.950 . S
H1372 C1396 0.950 . S
H1373 C1397 0.951 . S
H1374 C1399 0.951 . S
H1375 C1401 0.950 . S
H1376 C1402 0.950 . S
H1377 C1404 0.950 . S
H1378 C1407 0.950 . S
H1379 C1408 0.950 . S
H1380 C1410 0.950 . S
H1381 C1411 0.950 . S
C1382 H1364 0.951 . S
C1382 C1383 1.366 . S
C1382 C1384 1.388 . S
C1383 C1382 1.366 . S
C1383 C1387 1.385 . S
C1384 H1365 0.951 . S
C1384 C1382 1.388 . S
C1384 C1385 1.366 . S
C1385 C1384 1.366 . S
C1385 C1386 1.414 . S
C1385 C1388 1.499 . S
C1386 H1366 0.950 . S
C1386 C1385 1.414 . S
C1386 C1387 1.374 . S
C1387 H1367 0.950 . S
C1387 C1383 1.385 . S
C1387 C1386 1.374 . S
C1388 C1385 1.499 . S
C1388 C1389 1.373 . S
C1388 C1390 1.389 . S
C1389 H1368 0.950 . S
C1389 C1388 1.373 . S
C1389 C1405 1.377 . S
C1390 C1388 1.389 . S
C1390 C1391 1.524 . S
C1390 C1404 1.377 . S
C1391 C1390 1.524 . S
C1391 C1392 1.397 . S
C1391 C1396 1.363 . S
C1392 H1369 0.950 . S
C1392 C1391 1.397 . S
C1392 C1393 1.334 . S
C1393 H1370 0.950 . S
C1393 C1392 1.334 . S
C1393 C1394 1.287 . S
C1394 C1393 1.287 . S
C1394 C1395 1.524 . S
C1394 H1413 0.913 . S
C1395 H1371 0.950 . S
C1395 C1394 1.524 . S
C1395 C1396 1.415 . S
C1396 H1372 0.950 . S
C1396 C1391 1.363 . S
C1396 C1395 1.415 . S
C1397 H1373 0.951 . S
C1397 C1398 1.366 . S
C1397 C1399 1.388 . S
C1398 C1397 1.366 . S
C1398 C1402 1.385 . S
C1399 H1374 0.951 . S
C1399 C1397 1.388 . S
C1399 C1400 1.366 . S
C1400 C1399 1.366 . S
C1400 C1401 1.414 . S
C1400 C1403 1.499 . S
C1401 H1375 0.950 . S
C1401 C1400 1.414 . S
C1401 C1402 1.374 . S
C1402 H1376 0.950 . S
C1402 C1398 1.385 . S
C1402 C1401 1.374 . S
C1403 C1400 1.499 . S
C1403 C1404 1.373 . S
C1403 C1405 1.389 . S
C1404 H1377 0.950 . S
C1404 C1390 1.377 . S
C1404 C1403 1.373 . S
C1405 C1389 1.377 . S
C1405 C1403 1.389 . S
C1405 C1406 1.524 . S
C1406 C1405 1.524 . S
C1406 C1407 1.397 . S
C1406 C1411 1.363 . S
C1407 H1378 0.950 . S
C1407 C1406 1.397 . S
C1407 C1408 1.334 . S
C1408 H1379 0.950 . S
C1408 C1407 1.334 . S
C1408 C1409 1.287 . S
C1409 C1408 1.287 . S
C1409 C1410 1.524 . S
C1409 H1412 0.999 . S
C1410 H1380 0.950 . S
C1410 C1409 1.524 . S
C1410 C1411 1.415 . S
C1411 H1381 0.950 . S
C1411 C1406 1.363 . S
C1411 C1410 1.415 . S
H1412 C1409 0.999 . S
H1413 C1394 0.913 . S
H1414 C1432 0.951 . S
H1415 C1434 0.951 . S
H1416 C1436 0.950 . S
H1417 C1437 0.950 . S
H1418 C1439 0.950 . S
H1419 C1442 0.950 . S
H1420 C1443 0.950 . S
H1421 C1445 0.950 . S
H1422 C1446 0.950 . S
H1423 C1447 0.951 . S
H1424 C1449 0.951 . S
H1425 C1451 0.950 . S
H1426 C1452 0.950 . S
H1427 C1454 0.950 . S
H1428 C1457 0.950 . S
H1429 C1458 0.950 . S
H1430 C1460 0.950 . S
H1431 C1461 0.950 . S
C1432 H1414 0.951 . S
C1432 C1433 1.366 . S
C1432 C1434 1.388 . S
C1433 C1432 1.366 . S
C1433 C1437 1.385 . S
C1434 H1415 0.951 . S
C1434 C1432 1.388 . S
C1434 C1435 1.366 . S
C1435 C1434 1.366 . S
C1435 C1436 1.414 . S
C1435 C1438 1.499 . S
C1436 H1416 0.950 . S
C1436 C1435 1.414 . S
C1436 C1437 1.374 . S
C1437 H1417 0.950 . S
C1437 C1433 1.385 . S
C1437 C1436 1.374 . S
C1438 C1435 1.499 . S
C1438 C1439 1.373 . S
C1438 C1440 1.389 . S
C1439 H1418 0.950 . S
C1439 C1438 1.373 . S
C1439 C1455 1.377 . S
C1440 C1438 1.389 . S
C1440 C1441 1.524 . S
C1440 C1454 1.377 . S
C1441 C1440 1.524 . S
C1441 C1442 1.397 . S
C1441 C1446 1.363 . S
C1442 H1419 0.950 . S
C1442 C1441 1.397 . S
C1442 C1443 1.334 . S
C1443 H1420 0.950 . S
C1443 C1442 1.334 . S
C1443 C1444 1.287 . S
C1444 C1443 1.287 . S
C1444 C1445 1.524 . S
C1444 H1463 0.913 . S
C1445 H1421 0.950 . S
C1445 C1444 1.524 . S
C1445 C1446 1.415 . S
C1446 H1422 0.950 . S
C1446 C1441 1.363 . S
C1446 C1445 1.415 . S
C1447 H1423 0.951 . S
C1447 C1448 1.366 . S
C1447 C1449 1.388 . S
C1448 C1447 1.366 . S
C1448 C1452 1.385 . S
C1449 H1424 0.951 . S
C1449 C1447 1.388 . S
C1449 C1450 1.366 . S
C1450 C1449 1.366 . S
C1450 C1451 1.414 . S
C1450 C1453 1.499 . S
C1451 H1425 0.950 . S
C1451 C1450 1.414 . S
C1451 C1452 1.374 . S
C1452 H1426 0.950 . S
C1452 C1448 1.385 . S
C1452 C1451 1.374 . S
C1453 C1450 1.499 . S
C1453 C1454 1.373 . S
C1453 C1455 1.389 . S
C1454 H1427 0.950 . S
C1454 C1440 1.377 . S
C1454 C1453 1.373 . S
C1455 C1439 1.377 . S
C1455 C1453 1.389 . S
C1455 C1456 1.524 . S
C1456 C1455 1.524 . S
C1456 C1457 1.397 . S
C1456 C1461 1.363 . S
C1457 H1428 0.950 . S
C1457 C1456 1.397 . S
C1457 C1458 1.334 . S
C1458 H1429 0.950 . S
C1458 C1457 1.334 . S
C1458 C1459 1.287 . S
C1459 C1458 1.287 . S
C1459 C1460 1.524 . S
C1459 H1462 0.999 . S
C1460 H1430 0.950 . S
C1460 C1459 1.524 . S
C1460 C1461 1.415 . S
C1461 H1431 0.950 . S
C1461 C1456 1.363 . S
C1461 C1460 1.415 . S
H1462 C1459 0.999 . S
H1463 C1444 0.913 . S
H1464 C1482 0.951 . S
H1465 C1484 0.951 . S
H1466 C1486 0.950 . S
H1467 C1487 0.950 . S
H1468 C1489 0.950 . S
H1469 C1492 0.950 . S
H1470 C1493 0.950 . S
H1471 C1495 0.950 . S
H1472 C1496 0.950 . S
H1473 C1497 0.951 . S
H1474 C1499 0.951 . S
H1475 C1501 0.950 . S
H1476 C1502 0.950 . S
H1477 C1504 0.950 . S
H1478 C1507 0.950 . S
H1479 C1508 0.950 . S
H1480 C1510 0.950 . S
H1481 C1511 0.950 . S
C1482 H1464 0.951 . S
C1482 C1483 1.366 . S
C1482 C1484 1.388 . S
C1483 C1482 1.366 . S
C1483 C1487 1.385 . S
C1484 H1465 0.951 . S
C1484 C1482 1.388 . S
C1484 C1485 1.366 . S
C1485 C1484 1.366 . S
C1485 C1486 1.414 . S
C1485 C1488 1.499 . S
C1486 H1466 0.950 . S
C1486 C1485 1.414 . S
C1486 C1487 1.374 . S
C1487 H1467 0.950 . S
C1487 C1483 1.385 . S
C1487 C1486 1.374 . S
C1488 C1485 1.499 . S
C1488 C1489 1.373 . S
C1488 C1490 1.389 . S
C1489 H1468 0.950 . S
C1489 C1488 1.373 . S
C1489 C1505 1.377 . S
C1490 C1488 1.389 . S
C1490 C1491 1.524 . S
C1490 C1504 1.377 . S
C1491 C1490 1.524 . S
C1491 C1492 1.397 . S
C1491 C1496 1.363 . S
C1492 H1469 0.950 . S
C1492 C1491 1.397 . S
C1492 C1493 1.334 . S
C1493 H1470 0.950 . S
C1493 C1492 1.334 . S
C1493 C1494 1.287 . S
C1494 C1493 1.287 . S
C1494 C1495 1.524 . S
C1494 H1513 0.913 . S
C1495 H1471 0.950 . S
C1495 C1494 1.524 . S
C1495 C1496 1.415 . S
C1496 H1472 0.950 . S
C1496 C1491 1.363 . S
C1496 C1495 1.415 . S
C1497 H1473 0.951 . S
C1497 C1498 1.366 . S
C1497 C1499 1.388 . S
C1498 C1497 1.366 . S
C1498 C1502 1.385 . S
C1499 H1474 0.951 . S
C1499 C1497 1.388 . S
C1499 C1500 1.366 . S
C1500 C1499 1.366 . S
C1500 C1501 1.414 . S
C1500 C1503 1.499 . S
C1501 H1475 0.950 . S
C1501 C1500 1.414 . S
C1501 C1502 1.374 . S
C1502 H1476 0.950 . S
C1502 C1498 1.385 . S
C1502 C1501 1.374 . S
C1503 C1500 1.499 . S
C1503 C1504 1.373 . S
C1503 C1505 1.389 . S
C1504 H1477 0.950 . S
C1504 C1490 1.377 . S
C1504 C1503 1.373 . S
C1505 C1489 1.377 . S
C1505 C1503 1.389 . S
C1505 C1506 1.524 . S
C1506 C1505 1.524 . S
C1506 C1507 1.397 . S
C1506 C1511 1.363 . S
C1507 H1478 0.950 . S
C1507 C1506 1.397 . S
C1507 C1508 1.334 . S
C1508 H1479 0.950 . S
C1508 C1507 1.334 . S
C1508 C1509 1.287 . S
C1509 C1508 1.287 . S
C1509 C1510 1.524 . S
C1509 H1512 0.999 . S
C1510 H1480 0.950 . S
C1510 C1509 1.524 . S
C1510 C1511 1.415 . S
C1511 H1481 0.950 . S
C1511 C1506 1.363 . S
C1511 C1510 1.415 . S
H1512 C1509 0.999 . S
H1513 C1494 0.913 . S
H1514 C1532 0.951 . S
H1515 C1534 0.951 . S
H1516 C1536 0.950 . S
H1517 C1537 0.950 . S
H1518 C1539 0.950 . S
H1519 C1542 0.950 . S
H1520 C1543 0.950 . S
H1521 C1545 0.950 . S
H1522 C1546 0.950 . S
H1523 C1547 0.951 . S
H1524 C1549 0.951 . S
H1525 C1551 0.950 . S
H1526 C1552 0.950 . S
H1527 C1554 0.950 . S
H1528 C1557 0.950 . S
H1529 C1558 0.950 . S
H1530 C1560 0.950 . S
H1531 C1561 0.950 . S
C1532 H1514 0.951 . S
C1532 C1533 1.366 . S
C1532 C1534 1.388 . S
C1533 C1532 1.366 . S
C1533 C1537 1.385 . S
C1534 H1515 0.951 . S
C1534 C1532 1.388 . S
C1534 C1535 1.366 . S
C1535 C1534 1.366 . S
C1535 C1536 1.414 . S
C1535 C1538 1.499 . S
C1536 H1516 0.950 . S
C1536 C1535 1.414 . S
C1536 C1537 1.374 . S
C1537 H1517 0.950 . S
C1537 C1533 1.385 . S
C1537 C1536 1.374 . S
C1538 C1535 1.499 . S
C1538 C1539 1.373 . S
C1538 C1540 1.389 . S
C1539 H1518 0.950 . S
C1539 C1538 1.373 . S
C1539 C1555 1.377 . S
C1540 C1538 1.389 . S
C1540 C1541 1.524 . S
C1540 C1554 1.377 . S
C1541 C1540 1.524 . S
C1541 C1542 1.397 . S
C1541 C1546 1.363 . S
C1542 H1519 0.950 . S
C1542 C1541 1.397 . S
C1542 C1543 1.334 . S
C1543 H1520 0.950 . S
C1543 C1542 1.334 . S
C1543 C1544 1.287 . S
C1544 C1543 1.287 . S
C1544 C1545 1.524 . S
C1544 H1563 0.913 . S
C1545 H1521 0.950 . S
C1545 C1544 1.524 . S
C1545 C1546 1.415 . S
C1546 H1522 0.950 . S
C1546 C1541 1.363 . S
C1546 C1545 1.415 . S
C1547 H1523 0.951 . S
C1547 C1548 1.366 . S
C1547 C1549 1.388 . S
C1548 C1547 1.366 . S
C1548 C1552 1.385 . S
C1549 H1524 0.951 . S
C1549 C1547 1.388 . S
C1549 C1550 1.366 . S
C1550 C1549 1.366 . S
C1550 C1551 1.414 . S
C1550 C1553 1.499 . S
C1551 H1525 0.950 . S
C1551 C1550 1.414 . S
C1551 C1552 1.374 . S
C1552 H1526 0.950 . S
C1552 C1548 1.385 . S
C1552 C1551 1.374 . S
C1553 C1550 1.499 . S
C1553 C1554 1.373 . S
C1553 C1555 1.389 . S
C1554 H1527 0.950 . S
C1554 C1540 1.377 . S
C1554 C1553 1.373 . S
C1555 C1539 1.377 . S
C1555 C1553 1.389 . S
C1555 C1556 1.524 . S
C1556 C1555 1.524 . S
C1556 C1557 1.397 . S
C1556 C1561 1.363 . S
C1557 H1528 0.950 . S
C1557 C1556 1.397 . S
C1557 C1558 1.334 . S
C1558 H1529 0.950 . S
C1558 C1557 1.334 . S
C1558 C1559 1.287 . S
C1559 C1558 1.287 . S
C1559 C1560 1.524 . S
C1559 H1562 0.999 . S
C1560 H1530 0.950 . S
C1560 C1559 1.524 . S
C1560 C1561 1.415 . S
C1561 H1531 0.950 . S
C1561 C1556 1.363 . S
C1561 C1560 1.415 . S
H1562 C1559 0.999 . S
H1563 C1544 0.913 . S
H1564 C1582 0.951 . S
H1565 C1584 0.951 . S
H1566 C1586 0.950 . S
H1567 C1587 0.950 . S
H1568 C1589 0.950 . S
H1569 C1592 0.950 . S
H1570 C1593 0.950 . S
H1571 C1595 0.950 . S
H1572 C1596 0.950 . S
H1573 C1597 0.951 . S
H1574 C1599 0.951 . S
H1575 C1601 0.950 . S
H1576 C1602 0.950 . S
H1577 C1604 0.950 . S
H1578 C1607 0.950 . S
H1579 C1608 0.950 . S
H1580 C1610 0.950 . S
H1581 C1611 0.950 . S
C1582 H1564 0.951 . S
C1582 C1583 1.366 . S
C1582 C1584 1.388 . S
C1583 C1582 1.366 . S
C1583 C1587 1.385 . S
C1584 H1565 0.951 . S
C1584 C1582 1.388 . S
C1584 C1585 1.366 . S
C1585 C1584 1.366 . S
C1585 C1586 1.414 . S
C1585 C1588 1.499 . S
C1586 H1566 0.950 . S
C1586 C1585 1.414 . S
C1586 C1587 1.374 . S
C1587 H1567 0.950 . S
C1587 C1583 1.385 . S
C1587 C1586 1.374 . S
C1588 C1585 1.499 . S
C1588 C1589 1.373 . S
C1588 C1590 1.389 . S
C1589 H1568 0.950 . S
C1589 C1588 1.373 . S
C1589 C1605 1.377 . S
C1590 C1588 1.389 . S
C1590 C1591 1.524 . S
C1590 C1604 1.377 . S
C1591 C1590 1.524 . S
C1591 C1592 1.397 . S
C1591 C1596 1.363 . S
C1592 H1569 0.950 . S
C1592 C1591 1.397 . S
C1592 C1593 1.334 . S
C1593 H1570 0.950 . S
C1593 C1592 1.334 . S
C1593 C1594 1.287 . S
C1594 C1593 1.287 . S
C1594 C1595 1.524 . S
C1594 H1613 0.913 . S
C1595 H1571 0.950 . S
C1595 C1594 1.524 . S
C1595 C1596 1.415 . S
C1596 H1572 0.950 . S
C1596 C1591 1.363 . S
C1596 C1595 1.415 . S
C1597 H1573 0.951 . S
C1597 C1598 1.366 . S
C1597 C1599 1.388 . S
C1598 C1597 1.366 . S
C1598 C1602 1.385 . S
C1599 H1574 0.951 . S
C1599 C1597 1.388 . S
C1599 C1600 1.366 . S
C1600 C1599 1.366 . S
C1600 C1601 1.414 . S
C1600 C1603 1.499 . S
C1601 H1575 0.950 . S
C1601 C1600 1.414 . S
C1601 C1602 1.374 . S
C1602 H1576 0.950 . S
C1602 C1598 1.385 . S
C1602 C1601 1.374 . S
C1603 C1600 1.499 . S
C1603 C1604 1.373 . S
C1603 C1605 1.389 . S
C1604 H1577 0.950 . S
C1604 C1590 1.377 . S
C1604 C1603 1.373 . S
C1605 C1589 1.377 . S
C1605 C1603 1.389 . S
C1605 C1606 1.524 . S
C1606 C1605 1.524 . S
C1606 C1607 1.397 . S
C1606 C1611 1.363 . S
C1607 H1578 0.950 . S
C1607 C1606 1.397 . S
C1607 C1608 1.334 . S
C1608 H1579 0.950 . S
C1608 C1607 1.334 . S
C1608 C1609 1.287 . S
C1609 C1608 1.287 . S
C1609 C1610 1.524 . S
C1609 H1612 0.999 . S
C1610 H1580 0.950 . S
C1610 C1609 1.524 . S
C1610 C1611 1.415 . S
C1611 H1581 0.950 . S
C1611 C1606 1.363 . S
C1611 C1610 1.415 . S
H1612 C1609 0.999 . S
H1613 C1594 0.913 . S
C448 C118 1.604 . S
C433 C6 1.606 . S
C498 C187 1.406 . S
C483 C18 1.395 . S
C548 C125 1.628 . S
C533 C28 1.632 . S
C598 C188 1.542 . S
C583 C45 1.534 . S
C648 C241 1.454 . S
C633 C4 1.458 . S
C698 C277 1.711 . S
C683 C21 1.707 . S
C733 C33 1.693 . S
C748 C337 1.713 . S
C798 C400 1.723 . S
C783 C40 1.715 . S
C848 C240 1.579 . S
C833 C16 1.569 . S
C883 C30 1.738 . S
C898 C284 1.725 . S
C948 C330 1.652 . S
C933 C42 1.644 . S
C998 C399 1.669 . S
C983 C9 1.664 . S
C1033 C52 1.573 . S
C1048 C178 1.578 . S
C1098 C135 1.725 . S
C1083 C69 1.714 . S
C1133 C78 1.408 . S
C1148 C171 1.408 . S
C1183 C93 1.430 . S
C1198 C134 1.462 . S
C1248 C346 1.728 1_565 S
C1233 C57 1.708 . S
C1298 C390 1.711 . S
C1283 C66 1.717 . S
C1348 C224 1.462 . S
C1333 C76 1.469 . S
C1383 C88 1.533 . S
C1398 C293 1.518 . S
C1448 C347 1.683 . S
C1433 C64 1.666 . S
C1498 C383 1.643 1_556 S
C1483 C81 1.637 . S
C1548 C231 1.430 . S
C1533 C90 1.432 . S
C1583 C54 1.703 . S
C1598 C294 1.689 . S
