# Generated by pormake.
# Topology anh, (6,3)-cn, num edge types: 1
# Building blocks:
#     Node 0, Type 0, BuildingBlock: NUHQIS_clean_sbu_0, # of connection points: 6
#     Node 1, Type 0, BuildingBlock: NUHQIS_clean_sbu_0, # of connection points: 6
#     Node 2, Type 0, BuildingBlock: NUHQIS_clean_sbu_0, # of connection points: 6
#     Node 3, Type 1, BuildingBlock: MIDCAF_clean_linker_0, # of connection points: 3
#     Node 4, Type 1, BuildingBlock: MIDCAF_clean_linker_0, # of connection points: 3
#     Node 5, Type 1, BuildingBlock: MIDCAF_clean_linker_0, # of connection points: 3
#     Node 6, Type 1, BuildingBlock: MIDCAF_clean_linker_0, # of connection points: 3
#     Node 7, Type 1, BuildingBlock: MIDCAF_clean_linker_0, # of connection points: 3
#     Node 8, Type 1, BuildingBlock: MIDCAF_clean_linker_0, # of connection points: 3
#     Edge 9, Type (0, 1), BuildingBlock: OJICUG_clean_linker_0, # of connection points: 2
#     Edge 10, Type (0, 1), BuildingBlock: OJICUG_clean_linker_0, # of connection points: 2
#     Edge 11, Type (0, 1), BuildingBlock: OJICUG_clean_linker_0, # of connection points: 2
#     Edge 12, Type (0, 1), BuildingBlock: OJICUG_clean_linker_0, # of connection points: 2
#     Edge 13, Type (0, 1), BuildingBlock: OJICUG_clean_linker_0, # of connection points: 2
#     Edge 14, Type (0, 1), BuildingBlock: OJICUG_clean_linker_0, # of connection points: 2
#     Edge 15, Type (0, 1), BuildingBlock: OJICUG_clean_linker_0, # of connection points: 2
#     Edge 16, Type (0, 1), BuildingBlock: OJICUG_clean_linker_0, # of connection points: 2
#     Edge 17, Type (0, 1), BuildingBlock: OJICUG_clean_linker_0, # of connection points: 2
#     Edge 18, Type (0, 1), BuildingBlock: OJICUG_clean_linker_0, # of connection points: 2
#     Edge 19, Type (0, 1), BuildingBlock: OJICUG_clean_linker_0, # of connection points: 2
#     Edge 20, Type (0, 1), BuildingBlock: OJICUG_clean_linker_0, # of connection points: 2
#     Edge 21, Type (0, 1), BuildingBlock: OJICUG_clean_linker_0, # of connection points: 2
#     Edge 22, Type (0, 1), BuildingBlock: OJICUG_clean_linker_0, # of connection points: 2
#     Edge 23, Type (0, 1), BuildingBlock: OJICUG_clean_linker_0, # of connection points: 2
#     Edge 24, Type (0, 1), BuildingBlock: OJICUG_clean_linker_0, # of connection points: 2
#     Edge 25, Type (0, 1), BuildingBlock: OJICUG_clean_linker_0, # of connection points: 2
#     Edge 26, Type (0, 1), BuildingBlock: OJICUG_clean_linker_0, # of connection points: 2
# Relax obj value: 0.303
# Max RMSD: 0.198
# Mean RMSD: 0.164
data_MOF--net-anh--node1-NUHQIS_clean_sbu_0--node2-MIDCAF_clean_linker_0--edge1-OJICUG_clean_linker_0
_symmetry_space_group_name_H-M    P1
_symmetry_Int_Tables_number       1
_symmetry_cell_setting            triclinic
loop_
_symmetry_equiv_pos_as_xyz
'x, y, z'
_cell_length_a     28.707157
_cell_length_b     28.830499
_cell_length_c     51.95476
_cell_angle_alpha  90.329618
_cell_angle_beta   92.228123
_cell_angle_gamma 120.14207
loop_
_atom_site_label
_atom_site_type_symbol
_atom_site_fract_x
_atom_site_fract_y
_atom_site_fract_z
_atom_type_partial_charge
Tb0 Tb 0.21376 0.62681 0.1732 0.0
Eu1 Eu 0.15357 0.69208 0.1616 0.0
C2 C 0.19131 0.68737 0.2171 0.0
C3 C 1.08548 0.56055 0.17046 0.0
C4 C 0.25296 0.52379 0.17252 0.0
C5 C 0.2776 0.45488 0.17198 0.0
C6 C 0.27892 0.49879 0.18425 0.0
C7 C 0.22333 0.50297 0.14904 0.0
C8 C 0.22223 0.45929 0.13669 0.0
C9 C 0.25047 0.43566 0.14775 0.0
C10 C 0.25851 0.57273 0.1842 0.0
O11 O 0.2113 0.62634 0.13076 0.0
O12 O 0.15525 0.66022 0.12235 0.0
O13 O 0.24274 0.75913 0.15957 0.0
O14 O 0.28104 0.71266 0.1776 0.0
C15 C 0.1837 0.63932 0.11441 0.0
O16 O 0.12058 0.73179 0.13748 0.0
O17 O 1.1032 0.72036 0.17788 0.0
O18 O 0.19585 0.72162 0.19987 0.0
O19 O 0.18642 0.64146 0.20974 0.0
O20 O 0.12964 0.56044 0.16417 0.0
O21 O 1.08856 0.60746 0.17429 0.0
C22 C 0.28598 0.7585 0.16923 0.0
O23 O 0.27943 0.6146 0.1698 0.0
O24 O 0.21611 0.56702 0.19519 0.0
C25 C 1.0299 0.6946 0.14915 0.0
C26 C 0.9229 0.60835 0.14836 0.0
C27 C 0.95903 0.60952 0.13057 0.0
C28 C 1.01194 0.65205 0.13098 0.0
C29 C 0.99284 0.69543 0.16575 0.0
C30 C 0.93962 0.65265 0.16532 0.0
C31 C 1.08816 0.72879 0.15524 0.0
H32 H 0.30039 0.438 0.18079 0.0
H33 H 0.30171 0.51433 0.20243 0.0
H34 H 0.20257 0.52164 0.13988 0.0
H35 H 0.20086 0.44513 0.1181 0.0
H36 H 0.94688 0.57662 0.1168 0.0
H37 H 1.03959 0.64967 0.11816 0.0
H38 H 1.00604 0.72725 0.18026 0.0
H39 H 0.9125 0.65289 0.17917 0.0
Tb40 Tb 0.72092 0.13256 0.50648 0.0
Eu41 Eu 0.59387 1.0673 0.49256 0.0
C42 C 0.63713 0.0883 0.54954 0.0
C43 C 0.66223 1.00257 0.50235 0.0
C44 C 0.85222 0.2506 0.51644 0.0
C45 C 0.91816 0.32744 0.49359 0.0
C46 C 0.89556 0.27361 0.50013 0.0
C47 C 0.83495 0.28346 0.52779 0.0
C48 C 0.85719 0.33691 0.52115 0.0
C49 C 0.89735 0.35895 0.50306 0.0
C50 C 0.81967 0.19173 0.51825 0.0
O51 O 0.7124 0.14671 0.46527 0.0
O52 O 0.63275 1.0705 0.45554 0.0
O53 O 0.61263 0.15551 0.49386 0.0
O54 O 0.69922 0.19658 0.51137 0.0
C55 C 0.67674 0.11215 0.44808 0.0
O56 O 0.51379 1.00267 0.50137 0.0
O57 O 0.5243 1.05073 0.4676 0.0
O58 O 0.60382 0.09348 0.53374 0.0
O59 O 0.68067 0.0908 0.54097 0.0
O60 O 0.70758 1.04957 0.50115 0.0
O61 O 0.61517 1.00103 0.50149 0.0
C62 C 0.65591 0.19917 0.50371 0.0
O63 O 0.78224 0.1743 0.53498 0.0
O64 O 0.80159 0.165 0.49631 0.0
C65 C 0.44141 1.01524 0.48821 0.0
C66 C 0.34324 1.01315 0.49406 0.0
C67 C 0.34579 0.96565 0.49514 0.0
C68 C 0.39433 0.96678 0.49224 0.0
C69 C 0.44012 1.06333 0.48856 0.0
C70 C 0.39126 1.06226 0.4914 0.0
C71 C 0.49018 1.0136 0.48234 0.0
H72 H 0.9502 0.34358 0.48017 0.0
H73 H 0.90981 0.2492 0.49128 0.0
H74 H 0.80168 0.26718 0.54053 0.0
H75 H 0.83986 0.35955 0.52884 0.0
H76 H 0.30968 0.92689 0.49658 0.0
H77 H 0.39463 0.92933 0.4921 0.0
H78 H 0.47636 0.10138 0.4858 0.0
H79 H 0.39074 0.09953 0.49064 0.0
Tb80 Tb 0.71444 0.66224 0.83514 0.0
Eu81 Eu 0.65681 0.5361 0.82873 0.0
C82 C 0.69014 0.58966 0.88165 0.0
C83 C 0.79031 0.60703 0.83374 0.0
C84 C 0.71357 0.78077 0.85144 0.0
C85 C 0.67039 0.82777 0.83353 0.0
C86 C 0.71632 0.82323 0.83734 0.0
C87 C 0.66687 0.74809 0.86491 0.0
C88 C 0.62091 0.75259 0.86107 0.0
C89 C 0.62124 0.78971 0.84369 0.0
C90 C 0.7489 0.75965 0.84483 0.0
O91 O 0.71827 0.64956 0.79354 0.0
O92 O 0.65158 0.56142 0.78858 0.0
O93 O 0.58828 0.55277 0.83886 0.0
O94 O 0.62846 0.64093 0.82861 0.0
C95 C 0.68521 0.60746 0.77872 0.0
O96 O 0.63728 0.46031 0.81004 0.0
O97 O 0.60149 0.46071 0.8461 0.0
O98 O 0.70212 0.5618 0.86652 0.0
O99 O 0.67829 0.62374 0.87114 0.0
O100 O 0.78573 0.64977 0.83923 0.0
O101 O 0.74658 0.56086 0.82677 0.0
C102 C 0.58474 0.59629 0.8349 0.0
O103 O 0.75336 0.72815 0.86143 0.0
O104 O 0.7393 0.73917 0.82149 0.0
C105 C 0.62841 0.3963 0.84092 0.0
C106 C 0.65641 0.32254 0.86107 0.0
C107 C 0.67626 0.34731 0.83757 0.0
C108 C 0.66235 0.38365 0.82759 0.0
C109 C 0.611 0.37401 0.86511 0.0
C110 C 0.6251 0.33766 0.87516 0.0
C111 C 0.61119 0.4325 0.82969 0.0
H112 H 0.67189 0.85771 0.82054 0.0
H113 H 0.75174 0.84879 0.82677 0.0
H114 H 0.66353 0.71485 0.87592 0.0
H115 H 0.58376 0.72316 0.86934 0.0
H116 H 0.69948 0.33591 0.82585 0.0
H117 H 0.67679 0.40035 0.809 0.0
H118 H 0.58523 0.38349 0.87596 0.0
H119 H 0.60933 0.3194 0.89333 0.0
C120 C 0.54048 0.96527 0.20435 0.0
C121 C 0.50155 0.96395 0.18629 0.0
C122 C 0.51664 1.014 0.17459 0.0
C123 C 0.56689 1.06224 0.18112 0.0
H124 H 0.79745 0.21976 0.17068 0.0
H125 H 0.87921 0.30304 0.15895 0.0
H126 H 0.85892 0.3877 0.22213 0.0
H127 H 0.77869 0.30563 0.23363 0.0
H128 H 0.75271 0.23614 0.29021 0.0
H129 H 0.75051 0.22787 0.33717 0.0
H130 H 0.64745 1.05618 0.32731 0.0
H131 H 0.64798 1.06471 0.28101 0.0
H132 H 0.61649 1.01061 0.2255 0.0
H133 H 0.53226 0.92964 0.21462 0.0
H134 H 0.48934 1.01639 0.16044 0.0
H135 H 0.57485 0.09937 0.17239 0.0
N136 N 0.69184 0.15926 0.19996 0.0
N137 N 0.73488 0.19923 0.24055 0.0
N138 N 0.65781 0.11386 0.23852 0.0
C139 C 0.73366 0.20244 0.21428 0.0
C140 C 0.69772 0.15528 0.25279 0.0
C141 C 0.65299 0.1143 0.21241 0.0
C142 C 0.77941 0.2546 0.20308 0.0
C143 C 0.80958 0.25632 0.18176 0.0
C144 C 0.85759 0.30465 0.17522 0.0
C145 C 0.87757 0.35409 0.18937 0.0
C146 C 0.84621 0.35212 0.21016 0.0
C147 C 0.79925 0.30408 0.21689 0.0
C148 C 0.69995 0.15125 0.28159 0.0
C149 C 0.72966 0.19665 0.29812 0.0
C150 C 0.72857 0.19181 0.32516 0.0
C151 C 0.69808 0.14136 0.33643 0.0
C152 C 0.67009 0.096 0.31972 0.0
C153 C 0.67069 0.10089 0.29291 0.0
C154 C 0.60475 1.06302 0.19972 0.0
C155 C 0.58998 1.01289 0.21079 0.0
C156 C 0.69962 0.45963 0.51228 0.0
C157 C 0.65592 0.40843 0.51838 0.0
C158 C 0.61226 0.40957 0.52966 0.0
C159 C 0.61304 0.45846 0.53534 0.0
H160 H 0.60254 0.6608 0.50476 0.0
H161 H 0.60034 0.74303 0.49397 0.0
H162 H 0.73999 0.83558 0.54497 0.0
H163 H 0.7418 0.75433 0.55551 0.0
H164 H 0.72603 0.69433 0.61476 0.0
H165 H 0.73293 0.69631 0.66167 0.0
H166 H 0.62553 0.52427 0.66075 0.0
H167 H 0.62255 0.52251 0.61402 0.0
H168 H 0.7355 0.54635 0.51357 0.0
H169 H 0.73439 0.46215 0.50354 0.0
H170 H 0.57785 0.37245 0.53528 0.0
H171 H 0.57962 0.45631 0.54534 0.0
N172 N 0.66434 0.60422 0.52883 0.0
N173 N 0.67409 0.64906 0.5687 0.0
N174 N 0.66441 0.56326 0.56821 0.0
C175 C 0.67012 0.64893 0.54247 0.0
C176 C 0.67084 0.60683 0.5817 0.0
C177 C 0.66197 0.56088 0.54196 0.0
C178 C 0.67326 0.69964 0.53069 0.0
C179 C 0.63378 0.69882 0.51312 0.0
C180 C 0.63206 0.74663 0.50724 0.0
C181 C 0.67002 0.79798 0.51838 0.0
C182 C 0.7101 0.79843 0.53535 0.0
C183 C 0.71127 0.75094 0.54146 0.0
C184 C 0.67405 0.60821 0.61053 0.0
C185 C 0.70416 0.65694 0.62468 0.0
C186 C 0.7077 0.658 0.65179 0.0
C187 C 0.68008 0.61045 0.66572 0.0
C188 C 0.64902 0.56186 0.65129 0.0
C189 C 0.64675 0.56072 0.62423 0.0
C190 C 0.65665 0.5095 0.52946 0.0
C191 C 0.69992 0.50868 0.51763 0.0
C192 C 1.04387 0.6526 0.86912 0.0
C193 C 1.00443 0.61491 0.85113 0.0
C194 C 1.0182 0.5786 0.83958 0.0
C195 C 1.06764 0.57931 0.8462 0.0
H196 H 0.28683 0.55721 0.90238 0.0
H197 H 0.36656 0.55561 0.89079 0.0
H198 H 0.37268 0.63939 0.8214 0.0
H199 H 0.29154 0.64181 0.83364 0.0
H200 H 0.27094 0.6197 0.95485 0.0
H201 H 0.2694 0.62516 0.00182 0.0
H202 H 1.10926 0.60354 0.99447 0.0
H203 H 1.11156 0.59997 0.94796 0.0
H204 H 0.11948 0.68166 0.89053 0.0
H205 H 1.03647 0.68101 0.8792 0.0
H206 H 0.9904 0.5488 0.82549 0.0
H207 H 1.07451 0.54907 0.83763 0.0
N208 N 0.19301 0.60733 0.86545 0.0
N209 N 0.23181 0.60519 0.90624 0.0
N210 N 0.15392 0.61192 0.90395 0.0
C211 C 0.23351 0.60435 0.87997 0.0
C212 C 0.19262 0.60887 0.9184 0.0
C213 C 0.15247 0.6111 0.87775 0.0
C214 C 0.28057 0.59927 0.86912 0.0
C215 C 0.30424 0.5751 0.88438 0.0
C216 C 0.35094 0.57379 0.87749 0.0
C217 C 0.37806 0.59678 0.85475 0.0
C218 C 0.35444 0.62097 0.83915 0.0
C219 C 0.30679 0.6219 0.84606 0.0
C220 C 0.19163 0.60992 0.94731 0.0
C221 C 0.23537 0.61608 0.96326 0.0
C222 C 0.23434 0.61891 0.99033 0.0
C223 C 0.18943 0.61542 0.00232 0.0
C224 C 0.14527 0.60786 0.98626 0.0
C225 C 0.14646 0.60544 0.95934 0.0
C226 C 1.10599 0.61635 0.86476 0.0
C227 C 1.09259 0.65305 0.87574 0.0
C228 C 0.14015 0.93376 0.42817 0.0
C229 C 0.13457 0.93578 0.45492 0.0
C230 C 1.08678 0.89563 0.46532 0.0
C231 C 1.0505 0.85026 0.45035 0.0
H232 H 1.00069 0.69071 0.46509 0.0
H233 H 0.97827 0.60954 0.48822 0.0
H234 H 0.88737 0.51358 0.42064 0.0
H235 H 0.91258 0.59509 0.39717 0.0
H236 H 0.99558 0.64922 0.34434 0.0
H237 H 1.04022 0.63776 0.30793 0.0
H238 H 0.17334 0.79959 0.32123 0.0
H239 H 0.12765 0.81174 0.35675 0.0
H240 H 1.11204 0.88704 0.3932 0.0
H241 H 0.1758 0.96367 0.41908 0.0
H242 H 1.07976 0.8968 0.48557 0.0
H243 H 1.01689 0.81774 0.45959 0.0
N244 N 1.00217 0.74663 0.42434 0.0
N245 N 1.00028 0.69278 0.38985 0.0
N246 N 1.05017 0.78626 0.38762 0.0
C247 C 0.9845 0.69718 0.41358 0.0
C248 C 1.03321 0.73708 0.37676 0.0
C249 C 1.03419 0.79152 0.41122 0.0
C250 C 0.9588 0.64906 0.42927 0.0
C251 C 0.97474 0.6522 0.45542 0.0
C252 C 0.96193 0.60556 0.46868 0.0
C253 C 0.93217 0.55494 0.45611 0.0
C254 C 0.91203 0.55194 0.43065 0.0
C255 C 0.92577 0.59854 0.41727 0.0
C256 C 1.05776 0.73156 0.35327 0.0
C257 C 1.03413 0.68251 0.33928 0.0
C258 C 1.06011 0.6757 0.31862 0.0
C259 C 1.11066 0.71758 0.31169 0.0
C260 C 0.13413 0.76667 0.32572 0.0
C261 C 1.1078 0.77372 0.3461 0.0
C262 C 1.06085 0.84486 0.4246 0.0
C263 C 1.10353 0.88898 0.41318 0.0
C264 C 0.64451 0.13823 0.81068 0.0
C265 C 0.62876 0.12726 0.83627 0.0
C266 C 0.58865 0.07518 0.84216 0.0
C267 C 0.56141 1.03645 0.82252 0.0
H268 H 0.41969 0.89298 0.80817 0.0
H269 H 0.42489 0.82279 0.83033 0.0
H270 H 0.43242 0.75466 0.7574 0.0
H271 H 0.43395 0.82953 0.73542 0.0
H272 H 0.46742 0.93269 0.68661 0.0
H273 H 0.49564 0.95638 0.64246 0.0
H274 H 0.64709 0.09013 0.67154 0.0
H275 H 0.61947 1.0668 0.71539 0.0
H276 H 0.62876 0.11037 0.77143 0.0
H277 H 0.67478 0.17812 0.80533 0.0
H278 H 0.57598 1.06546 0.86172 0.0
H279 H 0.52894 0.99741 0.8276 0.0
N280 N 0.49817 0.96248 0.78111 0.0
N281 N 0.48211 0.93631 0.73738 0.0
N282 N 0.55352 1.02152 0.75069 0.0
C283 C 0.46848 0.92513 0.76234 0.0
C284 C 0.52431 0.98506 0.73144 0.0
C285 C 0.54076 1.01043 0.77558 0.0
C286 C 0.43236 0.86966 0.77049 0.0
C287 C 0.42053 0.86193 0.79667 0.0
C288 C 0.42331 0.82099 0.8095 0.0
C289 C 0.43604 0.78685 0.79584 0.0
C290 C 0.42839 0.78398 0.76873 0.0
C291 C 0.42829 0.82652 0.75596 0.0
C292 C 0.54098 0.99793 0.70457 0.0
C293 C 0.5068 0.967 0.68358 0.0
C294 C 0.52283 0.98066 0.65832 0.0
C295 C 0.57357 1.02508 0.65362 0.0
C296 C 0.60801 1.05539 0.67459 0.0
C297 C 0.59185 1.04215 0.69974 0.0
C298 C 0.57391 1.04907 0.79663 0.0
C299 C 0.61737 0.09957 0.79107 0.0
C300 C 0.71073 0.39797 0.10951 0.0
C301 C 0.71213 0.42503 0.13239 0.0
C302 C 0.66338 0.41704 0.14172 0.0
C303 C 0.61521 0.38799 0.12684 0.0
H304 H 0.44827 0.31816 0.12077 0.0
H305 H 0.37067 0.31952 0.13596 0.0
H306 H 0.31715 0.32272 0.05735 0.0
H307 H 0.39693 0.32397 0.0421 0.0
H308 H 0.49492 0.3961 0.00262 0.0
H309 H 0.53106 0.45408 0.96574 0.0
H310 H 0.69296 0.50207 0.99405 0.0
H311 H 0.65751 0.44346 0.02994 0.0
H312 H 0.66405 0.3538 0.07577 0.0
H313 H 0.74752 0.40333 0.10172 0.0
H314 H 0.66323 0.43687 0.15947 0.0
H315 H 0.57923 0.3869 0.13327 0.0
N316 N 0.52111 0.33751 0.08912 0.0
N317 N 0.50052 0.36071 0.04867 0.0
N318 N 0.58824 0.37956 0.05947 0.0
C319 C 0.48425 0.33778 0.07192 0.0
C320 C 0.55267 0.38178 0.04235 0.0
C321 C 0.57297 0.35744 0.08274 0.0
C322 C 0.42989 0.32296 0.08026 0.0
C323 C 0.41941 0.3178 0.10659 0.0
C324 C 0.37426 0.31804 0.11535 0.0
C325 C 0.33816 0.32273 0.09793 0.0
C326 C 0.34507 0.32085 0.07135 0.0
C327 C 0.39075 0.3214 0.0626 0.0
C328 C 0.57313 0.41442 0.01913 0.0
C329 C 0.53818 0.41872 0.00082 0.0
C330 C 0.5589 0.45247 0.97988 0.0
C331 C 0.6149 0.48266 0.97696 0.0
C332 C 0.64961 0.47876 0.99547 0.0
C333 C 0.62907 0.4449 0.01612 0.0
C334 C 0.61557 0.36734 0.10235 0.0
C335 C 0.66288 0.3696 0.09456 0.0
C336 C 0.25804 0.35284 0.14435 0.0
C337 C 0.25873 0.39693 0.13262 0.0
H338 H 0.28011 0.2923 0.14193 0.0
C339 C 0.2755 0.40877 0.1073 0.0
H340 H 0.24437 0.3423 0.16372 0.0
C341 C 0.29666 0.38087 0.09498 0.0
C342 C 0.30115 0.34018 0.10766 0.0
H343 H 0.27682 0.44275 0.09781 0.0
H344 H 0.31392 0.39477 0.07648 0.0
C345 C 0.27863 0.32437 0.13188 0.0
C346 C 0.92043 0.41923 0.46539 0.0
C347 C 0.91204 0.41169 0.49187 0.0
H348 H 0.93449 0.47027 0.43361 0.0
C349 C 0.91225 0.45274 0.50678 0.0
H350 H 0.91969 0.38837 0.45312 0.0
C351 C 0.9185 0.49911 0.49529 0.0
C352 C 0.92554 0.50592 0.46867 0.0
H353 H 0.90665 0.44874 0.52731 0.0
H354 H 0.91671 0.52906 0.5072 0.0
C355 C 0.92757 0.46586 0.45402 0.0
C356 C 0.56344 0.7808 0.80519 0.0
C357 C 0.5699 0.78213 0.83209 0.0
H358 H 0.51665 0.77976 0.77268 0.0
C359 C 0.52676 0.77388 0.847 0.0
H360 H 0.59508 0.78462 0.79312 0.0
C361 C 0.47978 0.76919 0.83512 0.0
C362 C 0.47539 0.77304 0.80812 0.0
H363 H 0.53005 0.77282 0.8678 0.0
H364 H 0.44806 0.76486 0.8472 0.0
C365 C 0.51713 0.77635 0.79339 0.0
C366 C 0.82261 0.56549 0.15065 0.0
C367 C 0.86848 0.56028 0.14926 0.0
H368 H 0.73668 0.5262 0.1466 0.0
C369 C 0.8619 0.50866 0.14692 0.0
H370 H 0.82646 0.60472 0.15248 0.0
C371 C 0.81051 0.46354 0.14385 0.0
C372 C 0.76467 0.46921 0.14295 0.0
H373 H 0.89662 0.50335 0.14641 0.0
H374 H 0.80674 0.42458 0.14075 0.0
C375 C 0.77114 0.52035 0.14749 0.0
C376 C 0.27902 1.0368 0.47212 0.0
C377 C 0.28956 1.00909 0.49155 0.0
H378 H 0.21975 1.03746 0.44619 0.0
C379 C 0.24589 0.96872 0.50428 0.0
H380 H 0.31161 1.06897 0.46221 0.0
C381 C 0.19327 0.94921 0.49443 0.0
C382 C 0.18335 0.97056 0.47193 0.0
H383 H 0.25267 0.94807 0.52006 0.0
H384 H 0.16173 0.91331 0.50272 0.0
C385 C 0.22614 1.01814 0.46266 0.0
C386 C 0.70307 0.26893 0.8606 0.0
C387 C 0.65855 0.27355 0.86732 0.0
H388 H 0.72891 0.21651 0.84583 0.0
C389 C 0.61041 0.22682 0.87287 0.0
H390 H 0.74134 0.30439 0.85714 0.0
C391 C 0.60345 0.17665 0.86658 0.0
C392 C 0.6445 0.17281 0.85461 0.0
H393 H 0.57544 0.22871 0.87846 0.0
H394 H 0.5634 0.14206 0.86759 0.0
C395 C 0.69601 0.21865 0.85418 0.0
C396 C 0.61699 0.89838 0.50442 0.0
C397 C 0.66418 0.94993 0.50547 0.0
H398 H 0.58103 0.81235 0.50724 0.0
C399 C 0.71323 0.95009 0.51021 0.0
H400 H 0.57803 0.89515 0.50092 0.0
C401 C 0.71498 0.90192 0.51405 0.0
C402 C 0.66783 0.85024 0.51316 0.0
H403 H 0.75088 0.98794 0.51127 0.0
H404 H 0.75408 0.90553 0.51755 0.0
C405 C 0.61878 0.85006 0.50798 0.0
C406 C 0.8512 0.56399 0.83304 0.0
C407 C 0.84558 0.60968 0.83702 0.0
H408 H 0.9023 0.52888 0.83414 0.0
C409 C 0.89357 0.65731 0.84499 0.0
H410 H 0.81611 0.52608 0.82704 0.0
C411 C 0.94395 0.65907 0.84901 0.0
C412 C 0.9497 0.61323 0.84541 0.0
H413 H 0.89236 0.69378 0.84834 0.0
H414 H 0.97873 0.69723 0.85487 0.0
C415 C 0.90162 0.56571 0.83706 0.0
C416 C 0.38854 0.81134 0.18135 0.0
C417 C 0.34125 0.81124 0.17245 0.0
H418 H 0.47334 0.85566 0.19164 0.0
C419 C 0.34798 0.86253 0.16735 0.0
H420 H 0.38656 0.77364 0.18547 0.0
C421 C 0.39885 0.91104 0.17133 0.0
C422 C 0.44622 0.91126 0.18061 0.0
H423 H 0.31347 0.8655 0.16055 0.0
H424 H 0.40043 0.94865 0.16756 0.0
C425 C 0.43926 0.85957 0.18518 0.0
C426 C 0.60798 0.25571 0.50474 0.0
C427 C 0.65588 0.25285 0.50685 0.0
H428 H 0.56981 0.30386 0.50646 0.0
C429 C 0.70389 0.30251 0.51235 0.0
H430 H 0.56977 0.21939 0.50056 0.0
C431 C 0.70411 0.35195 0.51555 0.0
C432 C 0.65611 0.35483 0.51386 0.0
H433 H 0.74194 0.30335 0.51414 0.0
H434 H 0.74238 0.38803 0.51994 0.0
C435 C 0.60804 0.30501 0.50834 0.0
C436 C 0.48949 0.5553 0.85296 0.0
C437 C 0.53101 0.59551 0.83871 0.0
H438 H 0.41138 0.52317 0.86874 0.0
C439 C 0.5203 0.63516 0.82879 0.0
H440 H 0.49479 0.52359 0.861 0.0
C441 C 0.47114 0.63479 0.83312 0.0
C442 C 0.43025 0.59561 0.84821 0.0
H443 H 0.55012 0.66684 0.81749 0.0
H444 H 0.46575 0.66611 0.82484 0.0
C445 C 0.44094 0.55548 0.85767 0.0
C446 C 1.02529 0.45598 0.16904 0.0
C447 C 1.03179 0.50737 0.17421 0.0
H448 H 0.97432 0.36953 0.16922 0.0
C449 C 0.98594 0.50702 0.18367 0.0
H450 H 1.05868 0.45319 0.16179 0.0
C451 C 0.93708 0.45844 0.18818 0.0
C452 C 0.93047 0.40687 0.18326 0.0
H453 H 0.98777 0.54474 0.18789 0.0
H454 H 0.90395 0.46169 0.19541 0.0
C455 C 0.97603 0.40724 0.17327 0.0
C456 C 0.16084 0.65178 0.06859 0.0
C457 C 0.18532 0.63198 0.08586 0.0
H458 H 0.1442 0.66371 0.02953 0.0
C459 C 0.21174 0.60668 0.07539 0.0
H460 H 0.14051 0.67202 0.07567 0.0
C461 C 0.21333 0.60125 0.04846 0.0
C462 C 0.18862 0.62106 0.03121 0.0
H463 H 0.23108 0.59087 0.08798 0.0
H464 H 0.23334 0.58085 0.04121 0.0
C465 C 0.16266 0.64665 0.04186 0.0
C466 C 0.73202 0.1611 0.4097 0.0
C467 C 0.68372 0.12081 0.41969 0.0
H468 H 0.77509 0.19891 0.37594 0.0
C469 C 0.64053 0.08853 0.4021 0.0
H470 H 0.76615 0.18689 0.42259 0.0
C471 C 0.64527 0.09588 0.3755 0.0
C472 C 0.69367 0.1354 0.36527 0.0
H473 H 0.60233 1.05755 0.40884 0.0
H474 H 0.61029 1.07063 0.36297 0.0
C475 C 0.73698 0.16821 0.38286 0.0
C476 C 0.6964 0.65662 0.73706 0.0
C477 C 0.68674 0.61022 0.75005 0.0
H478 H 0.69955 0.6928 0.70081 0.0
C479 C 0.67656 0.56482 0.73528 0.0
H480 H 0.70399 0.69218 0.74786 0.0
C481 C 0.67582 0.56549 0.70829 0.0
C482 C 0.68354 0.61114 0.69492 0.0
H483 H 0.66969 0.52858 0.74465 0.0
H484 H 0.66948 0.52987 0.69805 0.0
C485 C 0.69412 0.65688 0.70991 0.0
C486 C 0.65788 1.07087 0.59463 0.0
C487 C 0.62193 1.07355 0.5764 0.0
H488 H 0.67059 1.05307 0.6334 0.0
C489 C 0.57002 1.05995 0.58376 0.0
H490 H 0.69805 0.08092 0.58952 0.0
C491 C 0.55423 1.04361 0.60871 0.0
C492 C 0.59011 1.04097 0.62695 0.0
H493 H 0.54118 1.06136 0.57019 0.0
H494 H 0.51412 1.03373 0.61385 0.0
C495 C 0.6422 1.05499 0.61972 0.0
C496 C 0.63599 0.57437 0.92074 0.0
C497 C 0.67662 0.57105 0.90809 0.0
H498 H 0.58416 0.54862 0.95267 0.0
C499 C 0.69915 0.54206 0.91919 0.0
H500 H 0.61759 0.59603 0.91241 0.0
C501 C 0.67975 0.51458 0.94176 0.0
C502 C 0.63744 0.51558 0.95396 0.0
H503 H 0.73042 0.5387 0.90979 0.0
H504 H 0.69652 0.49064 0.94903 0.0
C505 C 0.61636 0.5466 0.94351 0.0
C506 C 0.18604 0.74688 0.25024 0.0
C507 C 0.17945 0.69659 0.24344 0.0
H508 H 0.16836 0.79243 0.2764 0.0
C509 C 0.15473 0.65434 0.26055 0.0
H510 H 0.20514 0.78043 0.23755 0.0
C511 C 0.13406 0.66152 0.28327 0.0
C512 C 0.13764 0.71101 0.28921 0.0
H513 H 0.14908 0.61513 0.25585 0.0
H514 H 0.11418 0.62793 0.29586 0.0
C515 C 0.16514 0.7539 0.2727 0.0
loop_
_geom_bond_atom_site_label_1
_geom_bond_atom_site_label_2
_geom_bond_distance
_geom_bond_site_symmetry_2
_ccdc_geom_bond_type
Tb0 C10 2.825 . S
Tb0 O11 2.347 . S
Tb0 O14 2.366 . S
Tb0 O19 2.418 . S
Tb0 O20 2.384 1_455 S
Tb0 O23 2.479 . S
Tb0 O24 2.471 . S
Eu1 O12 2.418 . S
Eu1 O13 2.384 1_655 S
Eu1 O16 2.479 . S
Eu1 O17 2.471 . S
Eu1 O18 2.347 1_655 S
Eu1 O21 2.366 . S
Eu1 C31 2.825 . S
C2 O18 1.259 . S
C2 O19 1.265 . S
C3 O20 1.255 . S
C3 O21 1.265 . S
C4 C6 1.380 . S
C4 C7 1.374 . S
C4 C10 1.507 . S
C5 C6 1.384 . S
C5 C9 1.387 . S
C5 H32 0.930 . S
C6 C4 1.380 . S
C6 C5 1.384 . S
C6 H33 0.931 . S
C7 C4 1.374 . S
C7 C8 1.390 . S
C7 H34 0.930 . S
C8 C7 1.390 . S
C8 C9 1.391 . S
C8 H35 0.930 . S
C9 C5 1.387 . S
C9 C8 1.391 . S
C10 Tb0 2.825 . S
C10 C4 1.507 . S
C10 O23 1.238 . S
C10 O24 1.247 . S
O11 Tb0 2.347 . S
O11 C15 1.259 . S
O12 Eu1 2.418 . S
O12 C15 1.265 1_655 S
O13 Eu1 2.384 1_455 S
O13 C22 1.255 . S
O14 Tb0 2.366 . S
O14 C22 1.265 . S
C15 O11 1.259 . S
C15 O12 1.265 1_455 S
O16 Eu1 2.479 . S
O16 C31 1.238 . S
O17 Eu1 2.471 . S
O17 C31 1.247 . S
O18 Eu1 2.347 1_455 S
O18 C2 1.259 . S
O19 Tb0 2.418 . S
O19 C2 1.265 . S
O20 Tb0 2.384 1_655 S
O20 C3 1.255 . S
O21 Eu1 2.366 . S
O21 C3 1.265 . S
C22 O13 1.255 . S
C22 O14 1.265 . S
O23 Tb0 2.479 . S
O23 C10 1.238 . S
O24 Tb0 2.471 . S
O24 C10 1.247 . S
C25 C28 1.380 . S
C25 C29 1.374 . S
C25 C31 1.507 . S
C26 C27 1.387 . S
C26 C30 1.391 . S
C27 C26 1.387 . S
C27 C28 1.384 . S
C27 H36 0.930 . S
C28 C25 1.380 . S
C28 C27 1.384 . S
C28 H37 0.931 . S
C29 C25 1.374 . S
C29 C30 1.390 . S
C29 H38 0.930 . S
C30 C26 1.391 . S
C30 C29 1.390 . S
C30 H39 0.930 . S
C31 Eu1 2.825 . S
C31 O16 1.238 . S
C31 O17 1.247 . S
C31 C25 1.507 . S
H32 C5 0.930 . S
H33 C6 0.931 . S
H34 C7 0.930 . S
H35 C8 0.930 . S
H36 C27 0.930 . S
H37 C28 0.931 . S
H38 C29 0.930 . S
H39 C30 0.930 . S
Tb40 C50 2.825 . S
Tb40 O51 2.347 . S
Tb40 O54 2.366 . S
Tb40 O59 2.418 . S
Tb40 O60 2.384 1_545 S
Tb40 O63 2.479 . S
Tb40 O64 2.471 . S
Eu41 O52 2.418 . S
Eu41 O53 2.384 . S
Eu41 O56 2.479 1_545 S
Eu41 O57 2.471 1_545 S
Eu41 O58 2.347 . S
Eu41 O61 2.366 1_545 S
Eu41 C71 2.825 1_545 S
C42 O58 1.259 . S
C42 O59 1.265 . S
C43 O60 1.255 . S
C43 O61 1.265 . S
C44 C46 1.380 . S
C44 C47 1.374 . S
C44 C50 1.507 . S
C45 C46 1.384 . S
C45 C49 1.387 . S
C45 H72 0.930 . S
C46 C44 1.380 . S
C46 C45 1.384 . S
C46 H73 0.931 . S
C47 C44 1.374 . S
C47 C48 1.390 . S
C47 H74 0.930 . S
C48 C47 1.390 . S
C48 C49 1.391 . S
C48 H75 0.930 . S
C49 C45 1.387 . S
C49 C48 1.391 . S
C50 Tb40 2.825 . S
C50 C44 1.507 . S
C50 O63 1.238 . S
C50 O64 1.247 . S
O51 Tb40 2.347 . S
O51 C55 1.259 . S
O52 Eu41 2.418 . S
O52 C55 1.265 . S
O53 Eu41 2.384 . S
O53 C62 1.255 . S
O54 Tb40 2.366 . S
O54 C62 1.265 . S
C55 O51 1.259 . S
C55 O52 1.265 . S
O56 Eu41 2.479 1_565 S
O56 C71 1.238 . S
O57 Eu41 2.471 1_565 S
O57 C71 1.247 . S
O58 Eu41 2.347 . S
O58 C42 1.259 . S
O59 Tb40 2.418 . S
O59 C42 1.265 . S
O60 Tb40 2.384 1_565 S
O60 C43 1.255 . S
O61 Eu41 2.366 1_565 S
O61 C43 1.265 . S
C62 O53 1.255 . S
C62 O54 1.265 . S
O63 Tb40 2.479 . S
O63 C50 1.238 . S
O64 Tb40 2.471 . S
O64 C50 1.247 . S
C65 C68 1.380 . S
C65 C69 1.374 . S
C65 C71 1.507 . S
C66 C67 1.387 . S
C66 C70 1.391 . S
C67 C66 1.387 . S
C67 C68 1.384 . S
C67 H76 0.930 . S
C68 C65 1.380 . S
C68 C67 1.384 . S
C68 H77 0.931 . S
C69 C65 1.374 . S
C69 C70 1.390 . S
C69 H78 0.930 . S
C70 C66 1.391 . S
C70 C69 1.390 . S
C70 H79 0.930 . S
C71 Eu41 2.825 1_565 S
C71 O56 1.238 . S
C71 O57 1.247 . S
C71 C65 1.507 . S
H72 C45 0.930 . S
H73 C46 0.931 . S
H74 C47 0.930 . S
H75 C48 0.930 . S
H76 C67 0.930 . S
H77 C68 0.931 . S
H78 C69 0.930 . S
H79 C70 0.930 . S
Tb80 C90 2.825 . S
Tb80 O91 2.347 . S
Tb80 O94 2.366 . S
Tb80 O99 2.418 . S
Tb80 O100 2.384 . S
Tb80 O103 2.479 . S
Tb80 O104 2.471 . S
Eu81 O92 2.418 . S
Eu81 O93 2.384 . S
Eu81 O96 2.479 . S
Eu81 O97 2.471 . S
Eu81 O98 2.347 . S
Eu81 O101 2.366 . S
Eu81 C111 2.825 . S
C82 O98 1.259 . S
C82 O99 1.265 . S
C83 O100 1.255 . S
C83 O101 1.265 . S
C84 C86 1.380 . S
C84 C87 1.374 . S
C84 C90 1.507 . S
C85 C86 1.384 . S
C85 C89 1.387 . S
C85 H112 0.930 . S
C86 C84 1.380 . S
C86 C85 1.384 . S
C86 H113 0.931 . S
C87 C84 1.374 . S
C87 C88 1.390 . S
C87 H114 0.930 . S
C88 C87 1.390 . S
C88 C89 1.391 . S
C88 H115 0.930 . S
C89 C85 1.387 . S
C89 C88 1.391 . S
C90 Tb80 2.825 . S
C90 C84 1.507 . S
C90 O103 1.238 . S
C90 O104 1.247 . S
O91 Tb80 2.347 . S
O91 C95 1.259 . S
O92 Eu81 2.418 . S
O92 C95 1.265 . S
O93 Eu81 2.384 . S
O93 C102 1.255 . S
O94 Tb80 2.366 . S
O94 C102 1.265 . S
C95 O91 1.259 . S
C95 O92 1.265 . S
O96 Eu81 2.479 . S
O96 C111 1.238 . S
O97 Eu81 2.471 . S
O97 C111 1.247 . S
O98 Eu81 2.347 . S
O98 C82 1.259 . S
O99 Tb80 2.418 . S
O99 C82 1.265 . S
O100 Tb80 2.384 . S
O100 C83 1.255 . S
O101 Eu81 2.366 . S
O101 C83 1.265 . S
C102 O93 1.255 . S
C102 O94 1.265 . S
O103 Tb80 2.479 . S
O103 C90 1.238 . S
O104 Tb80 2.471 . S
O104 C90 1.247 . S
C105 C108 1.380 . S
C105 C109 1.374 . S
C105 C111 1.507 . S
C106 C107 1.387 . S
C106 C110 1.391 . S
C107 C106 1.387 . S
C107 C108 1.384 . S
C107 H116 0.930 . S
C108 C105 1.380 . S
C108 C107 1.384 . S
C108 H117 0.931 . S
C109 C105 1.374 . S
C109 C110 1.390 . S
C109 H118 0.930 . S
C110 C106 1.391 . S
C110 C109 1.390 . S
C110 H119 0.930 . S
C111 Eu81 2.825 . S
C111 O96 1.238 . S
C111 O97 1.247 . S
C111 C105 1.507 . S
H112 C85 0.930 . S
H113 C86 0.931 . S
H114 C87 0.930 . S
H115 C88 0.930 . S
H116 C107 0.930 . S
H117 C108 0.931 . S
H118 C109 0.930 . S
H119 C110 0.930 . S
C120 C121 1.384 . S
C120 H133 0.947 . S
C120 C155 1.382 . S
C121 C120 1.384 . S
C121 C122 1.378 . S
C122 C121 1.378 . S
C122 C123 1.378 . S
C122 H134 0.952 . S
C123 C122 1.378 . S
C123 H135 0.950 . S
C123 C154 1.383 . S
H124 C143 0.947 . S
H125 C144 0.946 . S
H126 C146 0.953 . S
H127 C147 0.945 . S
H128 C149 0.952 . S
H129 C150 0.949 . S
H130 C152 0.950 . S
H131 C153 0.948 . S
H132 C155 0.951 . S
H133 C120 0.947 . S
H134 C122 0.952 . S
H135 C123 0.950 . S
N136 C139 1.382 . S
N136 C141 1.363 1_545 S
N137 C139 1.371 . S
N137 C140 1.372 . S
N138 C140 1.361 1_565 S
N138 C141 1.377 . S
C139 N136 1.382 . S
C139 N137 1.371 . S
C139 C142 1.480 . S
C140 N137 1.372 . S
C140 N138 1.361 1_545 S
C140 C148 1.457 . S
C141 N136 1.363 1_565 S
C141 N138 1.377 . S
C141 C154 1.479 . S
C142 C139 1.480 . S
C142 C143 1.383 . S
C142 C147 1.385 . S
C143 H124 0.947 . S
C143 C142 1.383 . S
C143 C144 1.388 . S
C144 H125 0.946 . S
C144 C143 1.388 . S
C144 C145 1.384 . S
C145 C144 1.384 . S
C145 C146 1.377 . S
C146 H126 0.953 . S
C146 C145 1.377 . S
C146 C147 1.369 . S
C147 H127 0.945 . S
C147 C142 1.385 . S
C147 C146 1.369 . S
C148 C140 1.457 . S
C148 C149 1.372 . S
C148 C153 1.364 1_545 S
C149 H128 0.952 . S
C149 C148 1.372 . S
C149 C150 1.389 . S
C150 H129 0.949 . S
C150 C149 1.389 . S
C150 C151 1.387 . S
C151 C150 1.387 . S
C151 C152 1.372 1_545 S
C152 H130 0.950 . S
C152 C151 1.372 1_565 S
C152 C153 1.379 . S
C153 H131 0.948 . S
C153 C148 1.364 1_565 S
C153 C152 1.379 . S
C154 C123 1.383 . S
C154 C141 1.479 . S
C154 C155 1.398 . S
C155 C120 1.382 . S
C155 H132 0.951 . S
C155 C154 1.398 . S
C156 C157 1.384 . S
C156 H169 0.947 . S
C156 C191 1.382 . S
C157 C156 1.384 . S
C157 C158 1.378 . S
C158 C157 1.378 . S
C158 C159 1.378 . S
C158 H170 0.952 . S
C159 C158 1.378 . S
C159 H171 0.950 . S
C159 C190 1.383 . S
H160 C179 0.947 . S
H161 C180 0.946 . S
H162 C182 0.953 . S
H163 C183 0.945 . S
H164 C185 0.952 . S
H165 C186 0.949 . S
H166 C188 0.950 . S
H167 C189 0.948 . S
H168 C191 0.951 . S
H169 C156 0.947 . S
H170 C158 0.952 . S
H171 C159 0.950 . S
N172 C175 1.382 . S
N172 C177 1.363 . S
N173 C175 1.371 . S
N173 C176 1.372 . S
N174 C176 1.361 . S
N174 C177 1.377 . S
C175 N172 1.382 . S
C175 N173 1.371 . S
C175 C178 1.480 . S
C176 N173 1.372 . S
C176 N174 1.361 . S
C176 C184 1.457 . S
C177 N172 1.363 . S
C177 N174 1.377 . S
C177 C190 1.479 . S
C178 C175 1.480 . S
C178 C179 1.383 . S
C178 C183 1.385 . S
C179 H160 0.947 . S
C179 C178 1.383 . S
C179 C180 1.388 . S
C180 H161 0.946 . S
C180 C179 1.388 . S
C180 C181 1.384 . S
C181 C180 1.384 . S
C181 C182 1.377 . S
C182 H162 0.953 . S
C182 C181 1.377 . S
C182 C183 1.369 . S
C183 H163 0.945 . S
C183 C178 1.385 . S
C183 C182 1.369 . S
C184 C176 1.457 . S
C184 C185 1.372 . S
C184 C189 1.364 . S
C185 H164 0.952 . S
C185 C184 1.372 . S
C185 C186 1.389 . S
C186 H165 0.949 . S
C186 C185 1.389 . S
C186 C187 1.387 . S
C187 C186 1.387 . S
C187 C188 1.372 . S
C188 H166 0.950 . S
C188 C187 1.372 . S
C188 C189 1.379 . S
C189 H167 0.948 . S
C189 C184 1.364 . S
C189 C188 1.379 . S
C190 C159 1.383 . S
C190 C177 1.479 . S
C190 C191 1.398 . S
C191 C156 1.382 . S
C191 H168 0.951 . S
C191 C190 1.398 . S
C192 C193 1.384 . S
C192 H205 0.947 . S
C192 C227 1.382 . S
C193 C192 1.384 . S
C193 C194 1.378 . S
C194 C193 1.378 . S
C194 C195 1.378 . S
C194 H206 0.952 . S
C195 C194 1.378 . S
C195 H207 0.950 . S
C195 C226 1.383 . S
H196 C215 0.947 . S
H197 C216 0.946 . S
H198 C218 0.953 . S
H199 C219 0.945 . S
H200 C221 0.952 . S
H201 C222 0.949 . S
H202 C224 0.950 . S
H203 C225 0.948 . S
H204 C227 0.951 . S
H205 C192 0.947 . S
H206 C194 0.952 . S
H207 C195 0.950 . S
N208 C211 1.382 . S
N208 C213 1.363 1_455 S
N209 C211 1.371 . S
N209 C212 1.372 . S
N210 C212 1.361 1_655 S
N210 C213 1.377 . S
C211 N208 1.382 . S
C211 N209 1.371 . S
C211 C214 1.480 . S
C212 N209 1.372 . S
C212 N210 1.361 1_455 S
C212 C220 1.457 . S
C213 N208 1.363 1_655 S
C213 N210 1.377 . S
C213 C226 1.479 . S
C214 C211 1.480 . S
C214 C215 1.383 . S
C214 C219 1.385 . S
C215 H196 0.947 . S
C215 C214 1.383 . S
C215 C216 1.388 . S
C216 H197 0.946 . S
C216 C215 1.388 . S
C216 C217 1.384 . S
C217 C216 1.384 . S
C217 C218 1.377 . S
C218 H198 0.953 . S
C218 C217 1.377 . S
C218 C219 1.369 . S
C219 H199 0.945 . S
C219 C214 1.385 . S
C219 C218 1.369 . S
C220 C212 1.457 . S
C220 C221 1.372 . S
C220 C225 1.364 1_455 S
C221 H200 0.952 . S
C221 C220 1.372 . S
C221 C222 1.389 . S
C222 H201 0.949 . S
C222 C221 1.389 . S
C222 C223 1.410 . S
C223 C222 1.410 . S
C223 C224 1.393 1_455 S
C224 H202 0.950 . S
C224 C223 1.393 1_655 S
C224 C225 1.379 . S
C225 H203 0.948 . S
C225 C220 1.364 1_655 S
C225 C224 1.379 . S
C226 C195 1.383 . S
C226 C213 1.479 . S
C226 C227 1.398 . S
C227 C192 1.382 . S
C227 H204 0.951 . S
C227 C226 1.398 . S
C228 C229 1.384 . S
C228 H241 0.947 . S
C228 C263 1.382 . S
C229 C228 1.384 . S
C229 C230 1.378 . S
C230 C229 1.378 . S
C230 C231 1.378 . S
C230 H242 0.952 . S
C231 C230 1.378 . S
C231 H243 0.950 . S
C231 C262 1.383 . S
H232 C251 0.947 . S
H233 C252 0.946 . S
H234 C254 0.953 . S
H235 C255 0.945 . S
H236 C257 0.952 . S
H237 C258 0.949 . S
H238 C260 0.950 . S
H239 C261 0.948 . S
H240 C263 0.951 . S
H241 C228 0.947 . S
H242 C230 0.952 . S
H243 C231 0.950 . S
N244 C247 1.382 1_455 S
N244 C249 1.363 . S
N245 C247 1.371 . S
N245 C248 1.372 1_655 S
N246 C248 1.361 . S
N246 C249 1.377 . S
C247 N244 1.382 1_655 S
C247 N245 1.371 . S
C247 C250 1.480 . S
C248 N245 1.372 1_455 S
C248 N246 1.361 . S
C248 C256 1.457 . S
C249 N244 1.363 . S
C249 N246 1.377 . S
C249 C262 1.479 . S
C250 C247 1.480 . S
C250 C251 1.383 . S
C250 C255 1.385 . S
C251 H232 0.947 . S
C251 C250 1.383 . S
C251 C252 1.388 . S
C252 H233 0.946 . S
C252 C251 1.388 . S
C252 C253 1.384 . S
C253 C252 1.384 . S
C253 C254 1.377 . S
C254 H234 0.953 . S
C254 C253 1.377 . S
C254 C255 1.369 . S
C255 H235 0.945 . S
C255 C250 1.385 . S
C255 C254 1.369 . S
C256 C248 1.457 . S
C256 C257 1.372 1_455 S
C256 C261 1.364 . S
C257 H236 0.952 . S
C257 C256 1.372 1_655 S
C257 C258 1.389 . S
C258 H237 0.949 . S
C258 C257 1.389 . S
C258 C259 1.387 1_655 S
C259 C258 1.387 1_455 S
C259 C260 1.372 . S
C260 H238 0.950 . S
C260 C259 1.372 . S
C260 C261 1.379 . S
C261 H239 0.948 . S
C261 C256 1.364 . S
C261 C260 1.379 . S
C262 C231 1.383 . S
C262 C249 1.479 . S
C262 C263 1.398 . S
C263 C228 1.382 . S
C263 H240 0.951 . S
C263 C262 1.398 . S
C264 C265 1.384 . S
C264 H277 0.947 . S
C264 C299 1.382 . S
C265 C264 1.384 . S
C265 C266 1.378 . S
C266 C265 1.378 . S
C266 C267 1.378 . S
C266 H278 0.952 . S
C267 C266 1.378 . S
C267 H279 0.950 . S
C267 C298 1.383 . S
H268 C287 0.947 . S
H269 C288 0.946 . S
H270 C290 0.953 . S
H271 C291 0.945 . S
H272 C293 0.952 . S
H273 C294 0.949 . S
H274 C296 0.950 . S
H275 C297 0.948 . S
H276 C299 0.951 . S
H277 C264 0.947 . S
H278 C266 0.952 . S
H279 C267 0.950 . S
N280 C283 1.382 1_545 S
N280 C285 1.363 . S
N281 C283 1.371 . S
N281 C284 1.372 1_565 S
N282 C284 1.361 . S
N282 C285 1.377 . S
C283 N280 1.382 1_565 S
C283 N281 1.371 . S
C283 C286 1.480 . S
C284 N281 1.372 1_545 S
C284 N282 1.361 . S
C284 C292 1.457 . S
C285 N280 1.363 . S
C285 N282 1.377 . S
C285 C298 1.479 . S
C286 C283 1.480 . S
C286 C287 1.383 . S
C286 C291 1.385 . S
C287 H268 0.947 . S
C287 C286 1.383 . S
C287 C288 1.388 . S
C288 H269 0.946 . S
C288 C287 1.388 . S
C288 C289 1.384 . S
C289 C288 1.384 . S
C289 C290 1.377 . S
C290 H270 0.953 . S
C290 C289 1.377 . S
C290 C291 1.369 . S
C291 H271 0.945 . S
C291 C286 1.385 . S
C291 C290 1.369 . S
C292 C284 1.457 . S
C292 C293 1.372 1_545 S
C292 C297 1.364 . S
C293 H272 0.952 . S
C293 C292 1.372 1_565 S
C293 C294 1.389 . S
C294 H273 0.949 . S
C294 C293 1.389 . S
C294 C295 1.387 1_565 S
C295 C294 1.387 1_545 S
C295 C296 1.372 . S
C296 H274 0.950 . S
C296 C295 1.372 . S
C296 C297 1.379 . S
C297 H275 0.948 . S
C297 C292 1.364 . S
C297 C296 1.379 . S
C298 C267 1.383 . S
C298 C285 1.479 . S
C298 C299 1.398 . S
C299 C264 1.382 . S
C299 H276 0.951 . S
C299 C298 1.398 . S
C300 C301 1.384 . S
C300 H313 0.947 . S
C300 C335 1.382 . S
C301 C300 1.384 . S
C301 C302 1.378 . S
C302 C301 1.378 . S
C302 C303 1.378 . S
C302 H314 0.952 . S
C303 C302 1.378 . S
C303 H315 0.950 . S
C303 C334 1.383 . S
H304 C323 0.947 . S
H305 C324 0.946 . S
H306 C326 0.953 . S
H307 C327 0.945 . S
H308 C329 0.952 . S
H309 C330 0.949 . S
H310 C332 0.950 . S
H311 C333 0.948 . S
H312 C335 0.951 . S
H313 C300 0.947 . S
H314 C302 0.952 . S
H315 C303 0.950 . S
N316 C319 1.382 . S
N316 C321 1.363 . S
N317 C319 1.371 . S
N317 C320 1.372 . S
N318 C320 1.361 . S
N318 C321 1.377 . S
C319 N316 1.382 . S
C319 N317 1.371 . S
C319 C322 1.480 . S
C320 N317 1.372 . S
C320 N318 1.361 . S
C320 C328 1.457 . S
C321 N316 1.363 . S
C321 N318 1.377 . S
C321 C334 1.479 . S
C322 C319 1.480 . S
C322 C323 1.383 . S
C322 C327 1.385 . S
C323 H304 0.947 . S
C323 C322 1.383 . S
C323 C324 1.388 . S
C324 H305 0.946 . S
C324 C323 1.388 . S
C324 C325 1.384 . S
C325 C324 1.384 . S
C325 C326 1.377 . S
C326 H306 0.953 . S
C326 C325 1.377 . S
C326 C327 1.369 . S
C327 H307 0.945 . S
C327 C322 1.385 . S
C327 C326 1.369 . S
C328 C320 1.457 . S
C328 C329 1.372 . S
C328 C333 1.364 . S
C329 H308 0.952 . S
C329 C328 1.372 . S
C329 C330 1.389 1_554 S
C330 H309 0.949 . S
C330 C329 1.389 1_556 S
C330 C331 1.387 . S
C331 C330 1.387 . S
C331 C332 1.372 . S
C332 H310 0.950 . S
C332 C331 1.372 . S
C332 C333 1.379 1_556 S
C333 H311 0.948 . S
C333 C328 1.364 . S
C333 C332 1.379 1_554 S
C334 C303 1.383 . S
C334 C321 1.479 . S
C334 C335 1.398 . S
C335 C300 1.382 . S
C335 H312 0.951 . S
C335 C334 1.398 . S
C336 C337 1.387 . S
C336 H340 0.950 . S
C336 C345 1.390 . S
C337 C336 1.387 . S
C337 C339 1.387 . S
H338 C345 0.950 . S
C339 C337 1.387 . S
C339 C341 1.390 . S
C339 H343 0.950 . S
H340 C336 0.950 . S
C341 C339 1.390 . S
C341 C342 1.387 . S
C341 H344 0.950 . S
C342 C341 1.387 . S
C342 C345 1.387 . S
H343 C339 0.950 . S
H344 C341 0.950 . S
C345 C336 1.390 . S
C345 H338 0.950 . S
C345 C342 1.387 . S
C346 C347 1.387 . S
C346 H350 0.950 . S
C346 C355 1.390 . S
C347 C346 1.387 . S
C347 C349 1.387 . S
H348 C355 0.950 . S
C349 C347 1.387 . S
C349 C351 1.390 . S
C349 H353 0.950 . S
H350 C346 0.950 . S
C351 C349 1.390 . S
C351 C352 1.387 . S
C351 H354 0.950 . S
C352 C351 1.387 . S
C352 C355 1.387 . S
H353 C349 0.950 . S
H354 C351 0.950 . S
C355 C346 1.390 . S
C355 H348 0.950 . S
C355 C352 1.387 . S
C356 C357 1.387 . S
C356 H360 0.950 . S
C356 C365 1.390 . S
C357 C356 1.387 . S
C357 C359 1.387 . S
H358 C365 0.950 . S
C359 C357 1.387 . S
C359 C361 1.390 . S
C359 H363 0.950 . S
H360 C356 0.950 . S
C361 C359 1.390 . S
C361 C362 1.387 . S
C361 H364 0.950 . S
C362 C361 1.387 . S
C362 C365 1.387 . S
H363 C359 0.950 . S
H364 C361 0.950 . S
C365 C356 1.390 . S
C365 H358 0.950 . S
C365 C362 1.387 . S
C366 C367 1.387 . S
C366 H370 0.950 . S
C366 C375 1.390 . S
C367 C366 1.387 . S
C367 C369 1.387 . S
H368 C375 0.950 . S
C369 C367 1.387 . S
C369 C371 1.390 . S
C369 H373 0.950 . S
H370 C366 0.950 . S
C371 C369 1.390 . S
C371 C372 1.387 . S
C371 H374 0.950 . S
C372 C371 1.387 . S
C372 C375 1.387 . S
H373 C369 0.950 . S
H374 C371 0.950 . S
C375 C366 1.390 . S
C375 H368 0.950 . S
C375 C372 1.387 . S
C376 C377 1.387 . S
C376 H380 0.950 . S
C376 C385 1.390 . S
C377 C376 1.387 . S
C377 C379 1.387 . S
H378 C385 0.950 . S
C379 C377 1.387 . S
C379 C381 1.390 . S
C379 H383 0.950 . S
H380 C376 0.950 . S
C381 C379 1.390 . S
C381 C382 1.387 . S
C381 H384 0.950 . S
C382 C381 1.387 . S
C382 C385 1.387 . S
H383 C379 0.950 . S
H384 C381 0.950 . S
C385 C376 1.390 . S
C385 H378 0.950 . S
C385 C382 1.387 . S
C386 C387 1.387 . S
C386 H390 0.950 . S
C386 C395 1.390 . S
C387 C386 1.387 . S
C387 C389 1.387 . S
H388 C395 0.950 . S
C389 C387 1.387 . S
C389 C391 1.390 . S
C389 H393 0.950 . S
H390 C386 0.950 . S
C391 C389 1.390 . S
C391 C392 1.387 . S
C391 H394 0.950 . S
C392 C391 1.387 . S
C392 C395 1.387 . S
H393 C389 0.950 . S
H394 C391 0.950 . S
C395 C386 1.390 . S
C395 H388 0.950 . S
C395 C392 1.387 . S
C396 C397 1.387 . S
C396 H400 0.950 . S
C396 C405 1.390 . S
C397 C396 1.387 . S
C397 C399 1.387 . S
H398 C405 0.950 . S
C399 C397 1.387 . S
C399 C401 1.390 . S
C399 H403 0.950 . S
H400 C396 0.950 . S
C401 C399 1.390 . S
C401 C402 1.387 . S
C401 H404 0.950 . S
C402 C401 1.387 . S
C402 C405 1.387 . S
H403 C399 0.950 . S
H404 C401 0.950 . S
C405 C396 1.390 . S
C405 H398 0.950 . S
C405 C402 1.387 . S
C406 C407 1.387 . S
C406 H410 0.950 . S
C406 C415 1.390 . S
C407 C406 1.387 . S
C407 C409 1.387 . S
H408 C415 0.950 . S
C409 C407 1.387 . S
C409 C411 1.390 . S
C409 H413 0.950 . S
H410 C406 0.950 . S
C411 C409 1.390 . S
C411 C412 1.387 . S
C411 H414 0.950 . S
C412 C411 1.387 . S
C412 C415 1.387 . S
H413 C409 0.950 . S
H414 C411 0.950 . S
C415 C406 1.390 . S
C415 H408 0.950 . S
C415 C412 1.387 . S
C416 C417 1.387 . S
C416 H420 0.950 . S
C416 C425 1.390 . S
C417 C416 1.387 . S
C417 C419 1.387 . S
H418 C425 0.950 . S
C419 C417 1.387 . S
C419 C421 1.390 . S
C419 H423 0.950 . S
H420 C416 0.950 . S
C421 C419 1.390 . S
C421 C422 1.387 . S
C421 H424 0.950 . S
C422 C421 1.387 . S
C422 C425 1.387 . S
H423 C419 0.950 . S
H424 C421 0.950 . S
C425 C416 1.390 . S
C425 H418 0.950 . S
C425 C422 1.387 . S
C426 C427 1.387 . S
C426 H430 0.950 . S
C426 C435 1.390 . S
C427 C426 1.387 . S
C427 C429 1.387 . S
H428 C435 0.950 . S
C429 C427 1.387 . S
C429 C431 1.390 . S
C429 H433 0.950 . S
H430 C426 0.950 . S
C431 C429 1.390 . S
C431 C432 1.387 . S
C431 H434 0.950 . S
C432 C431 1.387 . S
C432 C435 1.387 . S
H433 C429 0.950 . S
H434 C431 0.950 . S
C435 C426 1.390 . S
C435 H428 0.950 . S
C435 C432 1.387 . S
C436 C437 1.387 . S
C436 H440 0.950 . S
C436 C445 1.390 . S
C437 C436 1.387 . S
C437 C439 1.387 . S
H438 C445 0.950 . S
C439 C437 1.387 . S
C439 C441 1.390 . S
C439 H443 0.950 . S
H440 C436 0.950 . S
C441 C439 1.390 . S
C441 C442 1.387 . S
C441 H444 0.950 . S
C442 C441 1.387 . S
C442 C445 1.387 . S
H443 C439 0.950 . S
H444 C441 0.950 . S
C445 C436 1.390 . S
C445 H438 0.950 . S
C445 C442 1.387 . S
C446 C447 1.387 . S
C446 H450 0.950 . S
C446 C455 1.390 . S
C447 C446 1.387 . S
C447 C449 1.387 . S
H448 C455 0.950 . S
C449 C447 1.387 . S
C449 C451 1.390 . S
C449 H453 0.950 . S
H450 C446 0.950 . S
C451 C449 1.390 . S
C451 C452 1.387 . S
C451 H454 0.950 . S
C452 C451 1.387 . S
C452 C455 1.387 . S
H453 C449 0.950 . S
H454 C451 0.950 . S
C455 C446 1.390 . S
C455 H448 0.950 . S
C455 C452 1.387 . S
C456 C457 1.387 . S
C456 H460 0.950 . S
C456 C465 1.390 . S
C457 C456 1.387 . S
C457 C459 1.387 . S
H458 C465 0.950 . S
C459 C457 1.387 . S
C459 C461 1.390 . S
C459 H463 0.950 . S
H460 C456 0.950 . S
C461 C459 1.390 . S
C461 C462 1.387 . S
C461 H464 0.950 . S
C462 C461 1.387 . S
C462 C465 1.387 . S
H463 C459 0.950 . S
H464 C461 0.950 . S
C465 C456 1.390 . S
C465 H458 0.950 . S
C465 C462 1.387 . S
C466 C467 1.387 . S
C466 H470 0.950 . S
C466 C475 1.390 . S
C467 C466 1.387 . S
C467 C469 1.389 . S
H468 C475 0.950 . S
C469 C467 1.389 . S
C469 C471 1.390 1_545 S
C469 H473 0.948 1_545 S
H470 C466 0.950 . S
C471 C469 1.390 1_565 S
C471 C472 1.387 1_565 S
C471 H474 0.950 . S
C472 C471 1.387 1_545 S
C472 C475 1.387 . S
H473 C469 0.948 1_565 S
H474 C471 0.950 . S
C475 C466 1.390 . S
C475 H468 0.950 . S
C475 C472 1.387 . S
C476 C477 1.387 . S
C476 H480 0.950 . S
C476 C485 1.390 . S
C477 C476 1.387 . S
C477 C479 1.387 . S
H478 C485 0.950 . S
C479 C477 1.387 . S
C479 C481 1.390 . S
C479 H483 0.950 . S
H480 C476 0.950 . S
C481 C479 1.390 . S
C481 C482 1.387 . S
C481 H484 0.950 . S
C482 C481 1.387 . S
C482 C485 1.387 . S
H483 C479 0.950 . S
H484 C481 0.950 . S
C485 C476 1.390 . S
C485 H478 0.950 . S
C485 C482 1.387 . S
C486 C487 1.387 . S
C486 H490 0.950 . S
C486 C495 1.390 . S
C487 C486 1.387 . S
C487 C489 1.387 . S
H488 C495 0.950 . S
C489 C487 1.387 . S
C489 C491 1.390 1_545 S
C489 H493 0.950 1_545 S
H490 C486 0.950 . S
C491 C489 1.390 1_565 S
C491 C492 1.387 1_565 S
C491 H494 0.950 . S
C492 C491 1.387 1_545 S
C492 C495 1.387 . S
H493 C489 0.950 1_565 S
H494 C491 0.950 . S
C495 C486 1.390 . S
C495 H488 0.950 . S
C495 C492 1.387 . S
C496 C497 1.387 . S
C496 H500 0.950 . S
C496 C505 1.390 . S
C497 C496 1.387 . S
C497 C499 1.387 . S
H498 C505 0.950 . S
C499 C497 1.387 . S
C499 C501 1.390 . S
C499 H503 0.950 . S
H500 C496 0.950 . S
C501 C499 1.390 . S
C501 C502 1.387 . S
C501 H504 0.950 . S
C502 C501 1.387 . S
C502 C505 1.387 . S
H503 C499 0.950 . S
H504 C501 0.950 . S
C505 C496 1.390 . S
C505 H498 0.950 . S
C505 C502 1.387 . S
C506 C507 1.387 . S
C506 H510 0.950 . S
C506 C515 1.390 . S
C507 C506 1.387 . S
C507 C509 1.387 1_455 S
H508 C515 0.950 . S
C509 C507 1.387 1_655 S
C509 C511 1.390 . S
C509 H513 0.950 . S
H510 C506 0.950 . S
C511 C509 1.390 . S
C511 C512 1.387 1_655 S
C511 H514 0.950 . S
C512 C511 1.387 1_455 S
C512 C515 1.387 . S
H513 C509 0.950 . S
H514 C511 0.950 . S
C515 C506 1.390 . S
C515 H508 0.950 . S
C515 C512 1.387 . S
C337 C9 0.748 . S
C342 C325 0.742 . S
C347 C49 0.528 . S
C352 C253 0.489 . S
C357 C89 0.537 . S
C362 C289 0.528 . S
C367 C26 0.665 . S
C372 C301 0.612 . S
C382 C229 0.718 . S
C377 C66 0.732 . S
C392 C265 0.783 . S
C387 C106 0.766 . S
C397 C43 3.057 . S
C402 C181 2.961 . S
C407 C83 3.179 . S
C412 C193 3.109 . S
C417 C22 3.229 . S
C422 C121 3.154 . S
C432 C157 3.157 . S
C427 C62 3.229 . S
C442 C217 3.004 . S
C437 C102 3.104 . S
C447 C3 3.057 . S
C452 C145 2.967 . S
C462 C223 1.760 1_554 S
C457 C15 1.748 . S
C467 C55 1.763 . S
C472 C151 1.807 . S
C477 C95 1.757 . S
C482 C187 1.803 . S
C492 C295 1.040 . S
C487 C42 1.059 . S
C502 C331 1.063 . S
C497 C82 1.062 . S
C507 C2 1.043 . S
C512 C259 1.030 . S
