# Generated by pormake.
# Topology zzz, (3,6)-cn, num edge types: 1
# Building blocks:
#     Node 0, Type 0, BuildingBlock: BETDAH_clean_linker_0, # of connection points: 3
#     Node 1, Type 0, BuildingBlock: BETDAH_clean_linker_0, # of connection points: 3
#     Node 2, Type 0, BuildingBlock: BETDAH_clean_linker_0, # of connection points: 3
#     Node 3, Type 0, BuildingBlock: BETDAH_clean_linker_0, # of connection points: 3
#     Node 4, Type 0, BuildingBlock: BETDAH_clean_linker_0, # of connection points: 3
#     Node 5, Type 0, BuildingBlock: BETDAH_clean_linker_0, # of connection points: 3
#     Node 6, Type 0, BuildingBlock: BETDAH_clean_linker_0, # of connection points: 3
#     Node 7, Type 0, BuildingBlock: BETDAH_clean_linker_0, # of connection points: 3
#     Node 8, Type 1, BuildingBlock: KUMBUR_clean_sbu_0, # of connection points: 6
#     Node 9, Type 1, BuildingBlock: KUMBUR_clean_sbu_0, # of connection points: 6
#     Node 10, Type 1, BuildingBlock: KUMBUR_clean_sbu_0, # of connection points: 6
#     Node 11, Type 1, BuildingBlock: KUMBUR_clean_sbu_0, # of connection points: 6
#     Edge 12, Type (0, 1), BuildingBlock: OJICUG_clean_linker_0, # of connection points: 2
#     Edge 13, Type (0, 1), BuildingBlock: OJICUG_clean_linker_0, # of connection points: 2
#     Edge 14, Type (0, 1), BuildingBlock: OJICUG_clean_linker_0, # of connection points: 2
#     Edge 15, Type (0, 1), BuildingBlock: OJICUG_clean_linker_0, # of connection points: 2
#     Edge 16, Type (0, 1), BuildingBlock: OJICUG_clean_linker_0, # of connection points: 2
#     Edge 17, Type (0, 1), BuildingBlock: OJICUG_clean_linker_0, # of connection points: 2
#     Edge 18, Type (0, 1), BuildingBlock: OJICUG_clean_linker_0, # of connection points: 2
#     Edge 19, Type (0, 1), BuildingBlock: OJICUG_clean_linker_0, # of connection points: 2
#     Edge 20, Type (0, 1), BuildingBlock: OJICUG_clean_linker_0, # of connection points: 2
#     Edge 21, Type (0, 1), BuildingBlock: OJICUG_clean_linker_0, # of connection points: 2
#     Edge 22, Type (0, 1), BuildingBlock: OJICUG_clean_linker_0, # of connection points: 2
#     Edge 23, Type (0, 1), BuildingBlock: OJICUG_clean_linker_0, # of connection points: 2
#     Edge 24, Type (0, 1), BuildingBlock: OJICUG_clean_linker_0, # of connection points: 2
#     Edge 25, Type (0, 1), BuildingBlock: OJICUG_clean_linker_0, # of connection points: 2
#     Edge 26, Type (0, 1), BuildingBlock: OJICUG_clean_linker_0, # of connection points: 2
#     Edge 27, Type (0, 1), BuildingBlock: OJICUG_clean_linker_0, # of connection points: 2
#     Edge 28, Type (0, 1), BuildingBlock: OJICUG_clean_linker_0, # of connection points: 2
#     Edge 29, Type (0, 1), BuildingBlock: OJICUG_clean_linker_0, # of connection points: 2
#     Edge 30, Type (0, 1), BuildingBlock: OJICUG_clean_linker_0, # of connection points: 2
#     Edge 31, Type (0, 1), BuildingBlock: OJICUG_clean_linker_0, # of connection points: 2
#     Edge 32, Type (0, 1), BuildingBlock: OJICUG_clean_linker_0, # of connection points: 2
#     Edge 33, Type (0, 1), BuildingBlock: OJICUG_clean_linker_0, # of connection points: 2
#     Edge 34, Type (0, 1), BuildingBlock: OJICUG_clean_linker_0, # of connection points: 2
#     Edge 35, Type (0, 1), BuildingBlock: OJICUG_clean_linker_0, # of connection points: 2
# Relax obj value: 0.234
# Max RMSD: 0.184
# Mean RMSD: 0.120
data_MOF--net-zzz--node1-KUMBUR_clean_sbu_0--node2-BETDAH_clean_linker_0--edge1-OJICUG_clean_linker_0
_symmetry_space_group_name_H-M    P1
_symmetry_Int_Tables_number       1
_symmetry_cell_setting            triclinic
loop_
_symmetry_equiv_pos_as_xyz
'x, y, z'
_cell_length_a     36.108018
_cell_length_b     36.06126
_cell_length_c     10.851646
_cell_angle_alpha  92.352561
_cell_angle_beta   89.598876
_cell_angle_gamma 89.599177
loop_
_atom_site_label
_atom_site_type_symbol
_atom_site_fract_x
_atom_site_fract_y
_atom_site_fract_z
_atom_type_partial_charge
H0 H 0.83729 0.6248 0.3255 0.0
H1 H 0.7286 0.6003 0.19028 0.0
H2 H 0.77823 0.53189 0.46148 0.0
C3 C 0.81287 0.60768 0.32511 0.0
C4 C 0.81283 0.57688 0.40038 0.0
C5 C 0.78495 0.61337 0.23726 0.0
C6 C 0.75139 0.59441 0.25061 0.0
C7 C 0.74825 0.56512 0.33116 0.0
C8 C 0.77951 0.5559 0.40494 0.0
N9 N 0.71527 0.54293 0.3307 0.0
C10 C 0.68501 0.54623 0.24934 0.0
H11 H 0.09286 0.87284 0.33104 0.0
H12 H 0.07087 0.76696 0.15918 0.0
H13 H 1.01245 0.80129 0.49435 0.0
C14 C 0.07884 0.84649 0.33553 0.0
C15 C 0.0534 0.84068 0.43168 0.0
C16 C 0.08562 0.81987 0.24001 0.0
C17 C 0.06567 0.7869 0.23481 0.0
C18 C 0.03888 0.77983 0.32457 0.0
C19 C 0.03282 0.80683 0.42393 0.0
N20 N 1.01778 0.74615 0.31483 0.0
C21 C 1.02259 0.71736 0.22308 0.0
H22 H 0.70094 0.0751 0.30935 0.0
H23 H 0.81322 0.06351 0.19682 0.0
H24 H 0.78063 0.03041 0.56062 0.0
C25 C 0.72879 0.06735 0.33454 0.0
C26 C 0.73631 0.05427 0.45217 0.0
C27 C 0.75653 0.07157 0.2462 0.0
C28 C 0.79249 0.05991 0.26763 0.0
C29 C 0.80159 0.04387 0.37904 0.0
C30 C 0.77342 0.04158 0.47283 0.0
N31 N 0.83874 0.03069 0.39758 0.0
C32 C 0.86744 0.03092 0.30801 0.0
H33 H 0.55361 0.70895 0.24169 0.0
H34 H 0.56772 0.82382 0.17146 0.0
H35 H 0.5453 0.79059 0.54246 0.0
C36 C 0.55593 0.73743 0.27692 0.0
C37 C 0.55106 0.74535 0.40392 0.0
C38 C 0.56122 0.76595 0.19397 0.0
C39 C 0.56331 0.80258 0.23766 0.0
C40 C 0.55608 0.81242 0.36118 0.0
C41 C 0.55075 0.78349 0.44608 0.0
N42 N 0.55188 0.85107 0.39665 0.0
C43 C 0.55049 0.87945 0.31034 0.0
H44 H 0.21762 0.463 0.11884 0.0
H45 H 0.32662 0.4803 0.26436 0.0
H46 H 0.283 0.55321 0.99496 0.0
C47 C 0.24312 0.47849 0.12222 0.0
C48 C 0.24553 0.50973 0.04957 0.0
C49 C 0.27002 0.47051 0.21144 0.0
C50 C 0.30468 0.48782 0.20272 0.0
C51 C 0.31009 0.5175 0.125 0.0
C52 C 0.27998 0.5289 0.04938 0.0
N53 N 0.34426 0.53788 0.12985 0.0
C54 C 0.37366 0.53277 0.21366 0.0
H55 H 0.05694 0.21198 0.25197 0.0
H56 H 0.06364 0.32906 0.31818 0.0
H57 H 1.02378 0.2848 0.9678 0.0
C58 C 0.0553 0.23948 0.21611 0.0
C59 C 0.0427 0.24348 0.09507 0.0
C60 C 0.06218 0.27034 0.29602 0.0
C61 C 0.05841 0.30593 0.25399 0.0
C62 C 0.04249 0.31196 0.13986 0.0
C63 C 0.03586 0.28054 0.05721 0.0
N64 N 0.03014 0.34887 0.1147 0.0
C65 C 0.02925 0.37882 0.20388 0.0
H66 H 0.37247 0.98918 0.17489 0.0
H67 H 0.26048 1.00006 0.29135 0.0
H68 H 0.29257 0.0381 0.93311 0.0
C69 C 0.34464 0.99733 0.15101 0.0
C70 C 0.33703 1.01229 0.03599 0.0
C71 C 0.317 0.99209 0.23908 0.0
C72 C 0.28113 1.00442 0.22061 0.0
C73 C 0.27197 1.02216 0.11238 0.0
C74 C 0.29992 1.02553 1.01846 0.0
N75 N 0.23495 0.03614 0.09757 0.0
C76 C 0.20702 0.03563 0.18966 0.0
H77 H 0.5018 0.36238 0.23305 0.0
H78 H 0.49311 0.24666 0.30071 0.0
H79 H 0.5219 0.28144 0.9365 0.0
C80 C 0.50184 0.3338 0.19786 0.0
C81 C 0.5096 0.3262 0.07213 0.0
C82 C 0.49697 0.30494 0.28009 0.0
C83 C 0.49769 0.26824 0.23584 0.0
C84 C 0.50867 0.25891 0.11504 0.0
C85 C 0.51376 0.28815 0.03108 0.0
N86 N 0.51706 0.22069 0.08227 0.0
C87 C 0.51923 0.19262 0.16971 0.0
Tb88 Tb 0.07467 0.03287 0.86766 0.0
C89 C 0.94048 0.98996 0.5875 0.0
C90 C 0.96438 0.94218 0.44533 0.0
C91 C 0.90078 0.93911 0.51732 0.0
C92 C 0.96961 0.97499 0.51935 0.0
C93 C 0.90535 0.97288 0.58407 0.0
C94 C 0.93028 0.92376 0.44801 0.0
C95 C 0.8804 1.02632 0.69738 0.0
N96 N 0.94566 1.023 0.64839 0.0
C97 C 0.91554 0.04224 0.69677 0.0
C98 C 0.8754 0.9911 0.64286 0.0
Tb99 Tb 1.00509 0.04662 0.6503 0.0
N100 N 1.00214 0.99382 0.51873 0.0
C101 C 0.02977 0.98152 0.43899 0.0
C102 C 0.99293 0.92966 0.36673 0.0
C103 C 1.0256 0.94965 0.36285 0.0
H104 H 0.91906 0.06963 0.73838 0.0
H105 H 0.04789 0.94039 0.30153 0.0
H106 H 0.92605 0.89837 0.39317 0.0
H107 H 0.85717 0.04136 0.73921 0.0
H108 H 0.05562 0.99527 0.4311 0.0
H109 H 0.03453 0.05086 0.3452 0.0
H110 H 0.9899 0.90487 0.30787 0.0
H111 H 0.12114 0.09054 0.68343 0.0
H112 H 0.04951 1.01397 0.15851 0.0
H113 H 0.15304 0.14932 0.70177 0.0
H114 H 0.87417 0.92541 0.51483 0.0
H115 H 0.05984 0.1147 0.37524 0.0
H116 H 0.10062 0.1639 0.29709 0.0
H117 H 0.84803 0.97895 0.64198 0.0
H118 H 0.13424 0.18997 0.1231 0.0
N119 N 0.07085 0.06018 0.06359 0.0
C120 C 0.05763 0.04282 0.16489 0.0
C121 C 0.06362 0.09927 0.28873 0.0
C122 C 0.08362 0.11444 0.19332 0.0
C123 C 0.05042 0.0632 0.27394 0.0
C124 C 0.08575 0.09448 0.07907 0.0
H125 H 0.15396 0.1847 0.90147 0.0
N126 N 0.10229 0.09068 0.87 0.0
C127 C 0.13912 0.13857 0.7813 0.0
C128 C 0.10352 0.10947 0.98074 0.0
C129 C 0.12036 0.10481 0.77104 0.0
C130 C 0.13975 0.15834 0.89402 0.0
C131 C 0.12167 0.14401 0.99547 0.0
O132 O 0.13232 1.02694 0.84718 0.0
O133 O 0.04374 1.00634 0.7172 0.0
O134 O 0.97575 0.03262 0.82141 0.0
O135 O 1.02131 1.02879 0.97008 0.0
O136 O 0.05082 0.97665 0.86885 0.0
O137 O 0.10284 0.99636 0.98145 0.0
O138 O 0.96589 0.07134 0.53319 0.0
O139 O 0.04232 0.07505 0.78135 0.0
O140 O 0.10199 1.02524 0.68504 0.0
O141 O 0.05906 0.04915 0.5506 0.0
O142 O 0.98778 0.09045 0.787 0.0
O143 O 1.0213 0.09038 0.54294 0.0
C144 C 0.0367 0.97474 0.75984 0.0
C145 C 0.15195 0.96527 0.87417 0.0
C146 C 0.16078 0.89883 0.89275 0.0
C147 C 0.1488 0.93338 0.94204 0.0
C148 C 0.17722 0.89614 0.77548 0.0
C149 C 0.16966 0.96267 0.75794 0.0
C150 C 0.18226 0.92824 0.70928 0.0
C151 C 0.98609 0.02884 0.93681 0.0
C152 C 0.13405 0.99994 0.9223 0.0
C153 C 0.12066 0.16341 0.11021 0.0
C154 C 0.10136 0.14875 0.20882 0.0
C155 C 1.01949 0.09783 0.83468 0.0
C156 C 0.97589 0.13627 0.55688 0.0
C157 C 1.00209 0.16443 0.55358 0.0
C158 C 0.99823 0.19723 0.62693 0.0
C159 C 0.96603 0.20259 0.69911 0.0
C160 C 0.94308 0.14267 0.62515 0.0
C161 C 0.93833 0.17565 0.69621 0.0
C162 C 0.09295 0.03697 0.57517 0.0
C163 C 0.98774 0.09872 0.51296 0.0
H164 H 0.13508 0.93502 0.03149 0.0
H165 H 0.18586 0.86944 0.73542 0.0
H166 H 0.17285 0.98689 0.70314 0.0
H167 H 0.1951 0.92632 0.6188 0.0
H168 H 1.02628 0.15998 0.49523 0.0
H169 H 0.96202 0.22774 0.75576 0.0
H170 H 0.9218 0.12181 0.62743 0.0
H171 H 0.91336 0.18007 0.75075 0.0
Tb172 Tb 0.5365 0.07189 0.85353 0.0
C173 C 0.61729 0.97213 0.55861 0.0
C174 C 0.63684 1.00203 0.37367 0.0
C175 C 0.67782 0.95775 0.46549 0.0
C176 C 0.60975 0.99595 0.46588 0.0
C177 C 0.65142 0.95239 0.55833 0.0
C178 C 0.67071 0.98285 0.37414 0.0
C179 C 0.63144 0.92302 0.74126 0.0
N180 N 0.59149 0.9683 0.64908 0.0
C181 C 0.598 0.94255 0.73687 0.0
C182 C 0.65842 0.92812 0.65216 0.0
Tb183 Tb 0.53528 0.99994 0.6259 0.0
N184 N 0.57589 1.01267 0.46428 0.0
C185 C 0.56696 0.0326 0.36324 0.0
C186 C 0.62899 1.02681 0.28214 0.0
C187 C 0.5937 0.04195 0.27645 0.0
H188 H 0.57703 0.93418 0.79986 0.0
H189 H 0.58654 0.05948 0.20155 0.0
H190 H 0.69153 0.98711 0.30377 0.0
H191 H 0.63587 0.90308 0.81172 0.0
H192 H 0.53919 0.04134 0.34548 0.0
H193 H 0.48178 1.013 0.27431 0.0
H194 H 0.64925 0.03286 0.21172 0.0
H195 H 0.49751 0.13966 0.68133 0.0
H196 H 0.53003 0.02981 0.13213 0.0
H197 H 0.43897 0.17103 0.66372 0.0
H198 H 0.7041 0.94303 0.46471 0.0
H199 H 0.41962 0.04079 0.26072 0.0
H200 H 0.37831 0.08653 0.16447 0.0
H201 H 0.68423 0.91269 0.6553 0.0
H202 H 0.36723 0.13052 1.00205 0.0
N203 N 0.49465 0.05962 1.01212 0.0
C204 C 0.50261 0.03931 0.11318 0.0
C205 C 0.44037 0.04646 0.19145 0.0
C206 C 0.43336 0.07117 0.09896 0.0
C207 C 0.47532 0.03064 0.19896 0.0
C208 C 0.46107 0.07684 1.00845 0.0
H209 H 0.3889 0.16093 0.8137 0.0
N210 N 0.48101 0.1045 0.82716 0.0
C211 C 0.44248 0.15067 0.73339 0.0
C212 C 0.45441 0.10068 0.91504 0.0
C213 C 0.47573 0.13095 0.7408 0.0
C214 C 0.41453 0.14527 0.81888 0.0
C215 C 0.42048 0.1207 0.91262 0.0
O216 O 0.54398 0.12932 0.85387 0.0
O217 O 0.56852 0.04463 0.70443 0.0
O218 O 0.52928 0.9772 0.81332 0.0
O219 O 0.5556 1.02159 0.94504 0.0
O220 O 0.59601 0.05767 0.86297 0.0
O221 O 0.56174 0.09867 1.00791 0.0
O222 O 0.52989 0.94231 0.62566 0.0
O223 O 0.50346 1.02704 0.77546 0.0
O224 O 0.54282 0.09434 0.66559 0.0
O225 O 0.51564 0.05019 0.53539 0.0
O226 O 0.4755 1.01344 0.6188 0.0
O227 O 0.50892 0.97249 0.47485 0.0
C228 C 0.60044 0.04314 0.75319 0.0
C229 C 0.59765 0.15047 0.94758 0.0
C230 C 0.66511 0.1503 0.95162 0.0
C231 C 0.63115 0.1328 0.97285 0.0
C232 C 0.66527 0.18635 0.90747 0.0
C233 C 0.59818 0.18657 0.90351 0.0
C234 C 0.63184 0.20437 0.88373 0.0
C235 C 0.54445 0.9871 0.92108 0.0
C236 C 0.56226 0.13064 0.95585 0.0
C237 C 0.39336 0.11557 1.00333 0.0
C238 C 0.39965 0.09057 0.09566 0.0
C239 C 0.47127 1.02815 0.72849 0.0
C240 C 0.47591 0.91922 0.53961 0.0
C241 C 0.44148 0.93529 0.51658 0.0
C242 C 0.40859 0.91607 0.5391 0.0
C243 C 0.41037 0.88009 0.58338 0.0
C244 C 0.47737 0.88323 0.58461 0.0
C245 C 0.44474 0.86382 0.60632 0.0
C246 C 0.5271 0.0846 0.55855 0.0
C247 C 0.51031 0.94045 0.52651 0.0
H248 H 0.63085 0.10549 1.01084 0.0
H249 H 0.69112 0.20055 0.8921 0.0
H250 H 0.57256 0.20072 0.88246 0.0
H251 H 0.632 0.23214 0.84947 0.0
H252 H 0.4402 0.96258 0.47855 0.0
H253 H 0.38531 0.86459 0.59903 0.0
H254 H 0.50374 0.87035 0.60446 0.0
H255 H 0.44613 0.83611 0.64083 0.0
Tb256 Tb 0.57022 0.52411 0.65139 0.0
C257 C 0.42095 0.49601 0.89377 0.0
C258 C 0.37205 0.50468 0.74544 0.0
C259 C 0.36345 0.46165 0.90965 0.0
C260 C 0.40828 0.51189 0.78755 0.0
C261 C 0.39872 0.47052 0.95547 0.0
C262 C 0.35001 0.47893 0.80552 0.0
C263 C 0.44682 0.46597 0.10751 0.0
N264 N 0.45483 0.50613 0.93774 0.0
C265 C 0.46741 0.49224 0.04584 0.0
C266 C 0.41231 0.4551 0.06245 0.0
Tb267 Tb 0.48652 0.54786 0.82145 0.0
N268 N 0.4302 0.53687 0.73193 0.0
C269 C 0.41589 0.55854 0.64289 0.0
C270 C 0.35832 0.52502 0.64846 0.0
C271 C 0.37994 0.5528 0.59944 0.0
H272 H 0.49412 0.49962 0.08245 0.0
H273 H 0.36896 0.56981 0.52817 0.0
H274 H 0.3222 0.47288 0.774 0.0
H275 H 0.45753 0.45425 0.19043 0.0
H276 H 0.43207 0.58093 0.60773 0.0
H277 H 0.68556 0.49716 0.94899 0.0
H278 H 0.33056 0.52059 0.61437 0.0
H279 H 0.56566 0.57376 0.39266 0.0
H280 H 0.62272 0.48813 0.8654 0.0
H281 H 0.6038 0.61933 0.29123 0.0
H282 H 0.34593 0.44225 0.95612 0.0
H283 H 0.72547 0.54639 0.87039 0.0
H284 H 0.73556 0.59568 0.71677 0.0
H285 H 0.39619 0.43523 0.11194 0.0
H286 H 0.71355 0.6283 0.53625 0.0
N287 N 0.62632 0.53297 0.74443 0.0
C288 C 0.63963 0.51025 0.83222 0.0
C289 C 0.69787 0.54276 0.83378 0.0
C290 C 0.68508 0.56432 0.73832 0.0
C291 C 0.67541 0.51493 0.87849 0.0
C292 C 0.64901 0.55812 0.69308 0.0
H293 H 0.66463 0.63717 0.37694 0.0
N294 N 0.60356 0.56594 0.54051 0.0
C295 C 0.6136 0.60701 0.37436 0.0
C296 C 0.63726 0.5752 0.58792 0.0
C297 C 0.59211 0.58063 0.43228 0.0
C298 C 0.64782 0.6172 0.42348 0.0
C299 C 0.66034 0.60082 0.53025 0.0
O300 O 0.56238 0.47649 0.53637 0.0
O301 O 0.51063 0.53122 0.64566 0.0
O302 O 0.49252 0.48665 0.8092 0.0
O303 O 0.55659 0.48239 0.79316 0.0
O304 O 0.53648 0.52351 0.48043 0.0
O305 O 0.61608 0.48938 0.60593 0.0
O306 O 0.49293 0.59549 0.93778 0.0
O307 O 0.54601 0.54087 0.82626 0.0
O308 O 0.5647 0.58521 0.66594 0.0
O309 O 0.50059 0.58992 0.68101 0.0
O310 O 0.52074 0.5506 0.9914 0.0
O311 O 0.44014 0.58236 0.86167 0.0
C312 C 0.50414 0.52757 0.5305 0.0
C313 C 0.59705 0.42712 0.61352 0.0
C314 C 0.56456 0.37013 0.6582 0.0
C315 C 0.56757 0.40294 0.59404 0.0
C316 C 0.59298 0.36054 0.7389 0.0
C317 C 0.62531 0.41737 0.69492 0.0
C318 C 0.62323 0.38416 0.75697 0.0
C319 C 0.5238 0.46742 0.81936 0.0
C320 C 0.59536 0.46371 0.55749 0.0
C321 C 0.69542 0.60877 0.5795 0.0
C322 C 0.70789 0.59033 0.68268 0.0
C323 C 0.55289 0.54602 0.9405 0.0
C324 C 0.45869 0.64473 0.85723 0.0
C325 C 0.48789 0.66905 0.87924 0.0
C326 C 0.4911 0.70199 0.81594 0.0
C327 C 0.4631 0.71168 0.73384 0.0
C328 C 0.4309 0.65446 0.77398 0.0
C329 C 0.43313 0.68788 0.71307 0.0
C330 C 0.53361 0.6047 0.65599 0.0
C331 C 0.46013 0.6081 0.91293 0.0
H332 H 0.5469 0.40979 0.52649 0.0
H333 H 0.59188 0.33487 0.78718 0.0
H334 H 0.64867 0.43549 0.71182 0.0
H335 H 0.64499 0.37681 0.81974 0.0
H336 H 0.50822 0.66221 0.9479 0.0
H337 H 0.46439 0.73749 0.68644 0.0
H338 H 0.40779 0.63619 0.75485 0.0
H339 H 0.4117 0.69524 0.64905 0.0
Tb340 Tb 0.04589 0.57907 0.61804 0.0
C341 C 0.05221 0.43684 0.8718 0.0
C342 C 0.02891 0.39238 0.71918 0.0
C343 C 0.07619 0.3736 0.86265 0.0
C344 C 0.03039 0.42896 0.77025 0.0
C345 C 0.07444 0.40896 0.9218 0.0
C346 C 0.05318 0.3652 0.76196 0.0
C347 C 0.08424 0.45008 0.09963 0.0
N348 N 0.04801 0.47057 0.93037 0.0
C349 C 0.06052 0.47608 0.0486 0.0
C350 C 0.0921 0.41673 0.03427 0.0
Tb351 Tb 1.01424 0.51348 0.8274 0.0
N352 N 1.00682 0.4558 0.73331 0.0
C353 C 0.97762 0.44632 0.65879 0.0
C354 C 1.00129 0.38361 0.63344 0.0
C355 C 0.97493 0.41042 0.60574 0.0
H356 H 0.05395 0.5014 0.10099 0.0
H357 H 0.9525 0.40347 0.54353 0.0
H358 H 0.05295 0.33714 0.7222 0.0
H359 H 0.09599 0.45554 0.18999 0.0
H360 H 0.95663 0.46628 0.63684 0.0
H361 H 0.10729 0.68844 0.90635 0.0
H362 H 0.99881 0.35579 0.59343 0.0
H363 H 1.00622 0.59171 0.34512 0.0
H364 H 0.10322 0.62576 0.81113 0.0
H365 H 0.96417 0.63771 0.25714 0.0
H366 H 0.0934 0.3519 0.89886 0.0
H367 H 0.06096 0.73638 0.85749 0.0
H368 H 1.00721 0.75533 0.7271 0.0
H369 H 0.10965 0.39621 0.07547 0.0
H370 H 0.96666 0.74083 0.55043 0.0
N371 N 0.05349 0.63672 0.71287 0.0
C372 C 0.08247 0.64594 0.78875 0.0
C373 C 0.05882 0.7087 0.81548 0.0
C374 C 0.03142 0.70015 0.7286 0.0
C375 C 0.08508 0.68174 0.84294 0.0
C376 C 0.03004 0.66369 0.67639 0.0
H377 H 0.95023 0.69671 0.37331 0.0
N378 N 1.01224 0.62228 0.51619 0.0
C379 C 0.97596 0.64304 0.34751 0.0
C380 C 1.00813 0.65596 0.57511 0.0
C381 C 0.9997 0.61695 0.39799 0.0
C382 C 0.96799 0.67621 0.41371 0.0
C383 C 0.98579 0.68387 0.52595 0.0
O384 O 0.08131 0.55603 0.47975 0.0
O385 O 0.03743 0.51985 0.64342 0.0
O386 O 0.07532 0.5124 0.84664 0.0
O387 O 0.09337 0.56413 0.73931 0.0
O388 O 1.02326 0.54108 0.47657 0.0
O389 O 0.08605 0.61296 0.53756 0.0
O390 O 0.97663 0.53763 0.95666 0.0
O391 O 1.02263 0.57238 0.80096 0.0
O392 O 0.98457 0.58045 0.60122 0.0
O393 O 0.96712 0.5277 0.70462 0.0
O394 O 0.03641 0.55213 0.96888 0.0
O395 O 0.9758 0.47938 0.91558 0.0
C396 C 1.02459 0.51088 0.5361 0.0
C397 C 0.14162 0.58058 0.48708 0.0
C398 C 0.19634 0.53998 0.49421 0.0
C399 C 0.15774 0.54484 0.48281 0.0
C400 C 0.21839 0.57208 0.50944 0.0
C401 C 0.16432 0.61176 0.50282 0.0
C402 C 0.20243 0.60743 0.51461 0.0
C403 C 0.10084 0.53661 0.81388 0.0
C404 C 0.10123 0.58553 0.47447 0.0
C405 C 0.98401 0.71912 0.58586 0.0
C406 C 1.00707 0.72737 0.68654 0.0
C407 C 0.03496 0.58209 0.90799 0.0
C408 C 0.91802 0.50939 0.95374 0.0
C409 C 0.89956 0.54398 0.96084 0.0
C410 C 0.86086 0.5466 0.94517 0.0
C411 C 0.84113 0.51322 0.92353 0.0
C412 C 0.89754 0.47695 0.93155 0.0
C413 C 0.85938 0.47898 0.91599 0.0
C414 C 0.95931 0.55564 0.63227 0.0
C415 C 0.95856 0.50724 0.96977 0.0
H416 H 0.13994 0.52097 0.47308 0.0
H417 H 0.24825 0.57043 0.51384 0.0
H418 H 0.15259 0.63953 0.50574 0.0
H419 H 0.21981 0.63165 0.52588 0.0
H420 H 0.91584 0.56869 0.97614 0.0
H421 H 0.81133 0.51284 0.91568 0.0
H422 H 0.91101 0.44998 0.92637 0.0
H423 H 0.84372 0.45378 0.89974 0.0
C424 C 0.16686 1.00263 0.33974 0.0
C425 C 0.17811 0.03574 0.2865 0.0
H426 H 0.13142 0.97702 0.47224 0.0
C427 C 0.16138 0.06916 0.3298 0.0
H428 H 0.17931 0.97641 0.30902 0.0
C429 C 0.13404 0.0695 0.42344 0.0
C430 C 0.12225 0.03642 0.47561 0.0
H431 H 0.16955 0.09519 0.29161 0.0
H432 H 0.12231 0.09584 0.45601 0.0
C433 C 0.13945 1.00299 0.43352 0.0
C434 C 0.495 0.13681 0.27492 0.0
C435 C 0.52145 0.16508 0.26663 0.0
H436 H 0.47548 0.09018 0.37471 0.0
C437 C 0.54941 0.16711 0.35634 0.0
H438 H 0.47266 0.13494 0.20904 0.0
C439 C 0.55106 0.1414 0.45109 0.0
C440 C 0.52497 0.11258 0.45847 0.0
H441 H 0.57 0.18878 0.35367 0.0
H442 H 0.57305 0.14393 0.51815 0.0
C443 C 0.49674 0.111 0.36939 0.0
C444 C 0.43261 0.55954 0.29759 0.0
C445 C 0.40611 0.53108 0.2961 0.0
H446 H 0.48378 0.58073 0.37245 0.0
C447 C 0.41204 0.50117 0.37369 0.0
H448 H 0.42939 0.58262 0.23764 0.0
C449 C 0.44331 0.50019 0.45198 0.0
C450 C 0.46908 0.52949 0.45665 0.0
H451 H 0.39255 0.47848 0.37374 0.0
H452 H 0.44724 0.47662 0.50937 0.0
C453 C 0.46377 0.55854 0.37538 0.0
C454 C 1.0001 0.43801 0.28505 0.0
C455 C 1.02759 0.4106 0.29472 0.0
H456 H 0.97767 0.49017 0.35426 0.0
C457 C 0.05382 0.41534 0.39013 0.0
H458 H 0.97976 0.43562 0.21227 0.0
C459 C 0.05263 0.44691 0.47282 0.0
C460 C 1.02486 0.47432 0.46292 0.0
H461 H 0.0757 0.39499 0.39954 0.0
H462 H 0.07383 0.45028 0.54239 0.0
C463 C 0.99891 0.46932 0.36699 0.0
C464 C 0.92929 1.00811 0.22767 0.0
C465 C 0.8977 0.03068 0.21558 0.0
H466 H 0.98206 0.98964 0.15179 0.0
C467 C 0.8959 0.053 0.11275 0.0
H468 H 0.93129 0.99074 0.30546 0.0
C469 C 0.92458 0.05224 0.02383 0.0
C470 C 0.95607 0.02917 0.03435 0.0
H471 H 0.8724 0.07127 0.10085 0.0
H472 H 0.92241 0.0706 0.9481 0.0
C473 C 0.95829 1.00753 0.13924 0.0
C474 C 0.57546 0.93498 0.20578 0.0
C475 C 0.54881 0.9069 0.21334 0.0
H476 H 0.59561 0.9813 0.10583 0.0
C477 C 0.52122 0.90481 0.12245 0.0
H478 H 0.5976 0.93677 0.27243 0.0
C479 C 0.52006 0.93037 0.02733 0.0
C480 C 0.54624 0.95913 0.02099 0.0
H481 H 0.50056 0.88319 0.12443 0.0
H482 H 0.4984 0.92774 0.95918 0.0
C483 C 0.57419 0.96066 0.11094 0.0
C484 C 0.64558 0.57514 0.08683 0.0
C485 C 0.65202 0.54659 0.16931 0.0
H486 H 0.60966 0.59722 0.94848 0.0
C487 C 0.62563 0.51816 0.17482 0.0
H488 H 0.66501 0.59777 0.08136 0.0
C489 C 0.59405 0.51785 0.09887 0.0
C490 C 0.58825 0.54546 1.01266 0.0
H491 H 0.62929 0.49614 0.23868 0.0
H492 H 0.57414 0.49573 0.10693 0.0
C493 C 0.61396 0.57473 1.01008 0.0
C494 C 0.05463 0.65849 0.15322 0.0
C495 C 1.02655 0.68487 0.13612 0.0
H496 H 0.0791 0.60614 0.09453 0.0
C497 C 1.0012 0.67784 0.03952 0.0
H498 H 0.07417 0.66255 0.22782 0.0
C499 C 1.00403 0.64524 0.96207 0.0
C500 C 0.03251 0.61899 0.97877 0.0
H501 H 0.9788 0.69727 0.025 0.0
H502 H 0.98361 0.64027 0.89078 0.0
C503 C 0.05738 0.62606 0.07663 0.0
C504 C 0.07933 0.23628 0.48156 0.0
C505 C 0.06041 0.26571 0.42995 0.0
H506 H 0.07456 0.19122 0.59931 0.0
C507 C 0.0298 0.28175 0.49359 0.0
H508 H 0.10379 0.22434 0.43667 0.0
C509 C 1.01235 0.26231 0.58514 0.0
C510 C 1.02573 0.22701 0.6116 0.0
H511 H 1.01515 0.30519 0.4574 0.0
H512 H 0.98509 0.27162 0.6156 0.0
C513 C 0.0623 0.21735 0.57535 0.0
C514 C 0.32849 0.93275 0.33616 0.0
C515 C 0.32659 0.97156 0.34793 0.0
H516 H 0.3564 0.88388 0.39235 0.0
C517 C 0.34379 0.99028 0.44719 0.0
H518 H 0.31548 0.91808 0.25897 0.0
C519 C 0.36685 0.97074 0.52426 0.0
C520 C 0.37339 0.93263 0.50033 0.0
H521 H 0.3427 1.0203 0.45661 0.0
H522 H 0.38298 0.98606 0.59264 0.0
C523 C 0.35181 0.91323 0.41257 0.0
C524 C 0.48484 0.34333 0.47354 0.0
C525 C 0.50125 0.31216 0.41406 0.0
H526 H 0.4911 0.38553 0.61452 0.0
C527 C 0.52895 0.29246 0.47557 0.0
H528 H 0.4626 0.35822 0.43024 0.0
C529 C 0.54563 0.30836 0.57968 0.0
C530 C 0.53488 0.34409 0.62115 0.0
H531 H 0.54168 0.26769 0.43371 0.0
H532 H 0.57087 0.29573 0.61211 0.0
C533 C 0.50095 0.35861 0.58013 0.0
C534 C 0.21971 0.44708 0.34394 0.0
C535 C 0.25765 0.45512 0.33234 0.0
H536 H 0.16801 0.4732 0.38763 0.0
C537 C 0.27332 0.47184 0.43926 0.0
H538 H 0.20667 0.42771 0.27912 0.0
C539 C 0.25154 0.49705 0.50994 0.0
C540 C 0.21416 0.50242 0.47781 0.0
H541 H 0.303 0.4724 0.45223 0.0
H542 H 0.26487 0.51495 0.57833 0.0
C543 C 0.1973 0.47348 0.40711 0.0
C544 C 0.14606 0.84466 0.16973 0.0
C545 C 0.11174 0.82865 0.1402 0.0
H546 H 0.18997 0.87914 0.10901 0.0
C547 C 0.09999 0.82715 1.01694 0.0
H548 H 0.15589 0.84561 0.26392 0.0
C549 C 0.1198 0.8459 0.92804 0.0
C550 C 0.15143 0.86611 0.9621 0.0
H551 H 0.07362 0.81493 0.992 0.0
H552 H 0.10803 0.84829 0.83705 0.0
C553 C 0.16579 0.86335 0.08106 0.0
C554 C 0.72683 0.07293 0.04265 0.0
C555 C 0.74702 0.0914 0.13571 0.0
H556 H 0.68536 0.07817 0.90512 0.0
C557 C 0.74757 0.1303 0.14309 0.0
H558 H 0.72593 0.04288 0.03675 0.0
C559 C 0.72384 0.15047 0.06983 0.0
C560 C 0.69952 0.13168 0.98903 0.0
H561 H 0.76281 0.14483 0.21571 0.0
H562 H 0.7214 0.18017 0.08744 0.0
C563 C 0.70347 0.0931 0.96842 0.0
C564 C 0.57142 0.72785 0.99944 0.0
C565 C 0.5554 0.75884 0.06102 0.0
H566 H 0.56435 0.68619 0.85755 0.0
C567 C 0.52719 0.77872 1.00297 0.0
H568 H 0.59393 0.7128 0.04065 0.0
C569 C 0.50993 0.76328 0.89913 0.0
C570 C 0.5207 0.72785 0.85459 0.0
H571 H 0.51481 0.80333 0.04722 0.0
H572 H 0.48447 0.77598 0.86881 0.0
C573 C 0.55473 0.71303 0.89335 0.0
C574 C 0.77993 0.60963 1.0095 0.0
C575 C 0.79562 0.62797 0.11359 0.0
H576 H 0.78961 0.56727 0.86928 0.0
C577 C 0.83285 0.63819 0.09781 0.0
H578 H 0.75024 0.6071 0.99982 0.0
C579 C 0.85617 0.61321 0.03213 0.0
C580 C 0.84056 0.58293 0.96424 0.0
H581 H 0.84535 0.65858 0.16033 0.0
H582 H 0.88556 0.61588 0.04706 0.0
C583 C 0.80255 0.58583 0.93651 0.0
C584 C 0.05099 0.19895 0.90477 0.0
C585 C 0.03385 0.20799 0.01943 0.0
H586 H 0.06076 0.157 0.75937 0.0
C587 C 1.01202 0.18001 0.07125 0.0
H588 H 0.06847 0.21911 0.86204 0.0
C589 C 1.00795 0.14456 1.01232 0.0
C590 C 1.02644 0.13499 0.9008 0.0
H591 H 0.99834 0.18541 0.15936 0.0
H592 H 0.99073 0.12425 0.05553 0.0
C593 C 0.04721 0.1631 0.84671 0.0
C594 C 0.4003 0.98999 0.95164 0.0
C595 C 0.3689 1.01367 0.94164 0.0
H596 H 0.45664 0.97744 0.90017 0.0
C597 C 0.37039 0.03938 0.84676 0.0
H598 H 0.40036 0.96727 1.01347 0.0
C599 C 0.40295 0.04322 0.77403 0.0
C600 C 0.4355 1.0228 0.79773 0.0
H601 H 0.34714 0.05767 0.83162 0.0
H602 H 0.4033 0.06364 0.70361 0.0
C603 C 0.43306 0.99523 0.88433 0.0
C604 C 0.54799 0.38053 1.00103 0.0
C605 C 0.51547 0.35906 0.99128 0.0
H606 H 0.57653 0.43053 0.95434 0.0
C607 C 0.48605 0.3736 0.92317 0.0
H608 H 0.57081 0.37104 0.05609 0.0
C609 C 0.48898 0.40825 0.8672 0.0
C610 C 0.52165 0.42956 0.87549 0.0
H611 H 0.4601 0.35878 0.91708 0.0
H612 H 0.46532 0.41853 0.8178 0.0
C613 C 0.55117 0.41492 0.9432 0.0
C614 C 0.17575 0.51996 0.05554 0.0
C615 C 0.20964 0.52278 0.99008 0.0
H616 H 0.11659 0.5229 0.05442 0.0
C617 C 0.20732 0.53509 0.86851 0.0
H618 H 0.17569 0.51269 0.15144 0.0
C619 C 0.17229 0.54151 0.81319 0.0
C620 C 0.13862 0.53456 0.87498 0.0
H621 H 0.23234 0.53865 0.81484 0.0
H622 H 0.17149 0.55118 0.72129 0.0
C623 C 0.14129 0.52537 0.99914 0.0
C624 C 0.07924 0.8954 0.56086 0.0
C625 C 0.04915 0.87143 0.53298 0.0
H626 H 0.09831 0.94636 0.64705 0.0
C627 C 1.01529 0.87999 0.59457 0.0
H628 H 0.10666 0.88931 0.52427 0.0
C629 C 1.01116 0.91281 0.67118 0.0
C630 C 0.04032 0.93855 0.68529 0.0
H631 H 0.99143 0.86248 0.57892 0.0
H632 H 0.98458 0.91891 0.7145 0.0
C633 C 0.07471 0.9284 0.63304 0.0
C634 C 0.70168 0.02924 0.64191 0.0
C635 C 0.70425 0.05443 0.54587 0.0
H636 H 0.66737 1.00636 0.7841 0.0
C637 C 0.67353 0.0788 0.53279 0.0
H638 H 0.7244 1.01047 0.659 0.0
C639 C 0.64027 0.07465 0.59836 0.0
C640 C 0.6367 0.04751 0.68604 0.0
H641 H 0.67443 0.10108 0.46921 0.0
H642 H 0.61717 0.09286 0.58008 0.0
C643 C 0.66862 1.02646 0.71279 0.0
C644 C 0.51138 0.69209 0.47509 0.0
C645 C 0.54433 0.71288 0.4855 0.0
H646 H 0.48172 0.64269 0.52105 0.0
C647 C 0.57323 0.69792 0.55478 0.0
H648 H 0.48891 0.70199 0.4193 0.0
C649 C 0.56947 0.66333 0.61049 0.0
C650 C 0.53641 0.64263 0.60114 0.0
H651 H 0.59945 0.71222 0.56151 0.0
H652 H 0.5928 0.65259 0.66045 0.0
C653 C 0.50733 0.65782 0.53289 0.0
C654 C 0.85295 0.55222 0.57794 0.0
C655 C 0.84968 0.56627 0.45895 0.0
H656 H 0.88992 0.53562 0.72124 0.0
C657 C 0.88326 0.57227 0.39449 0.0
H658 H 0.82832 0.54599 0.63044 0.0
C659 C 0.91803 0.56827 0.45007 0.0
C660 C 0.92142 0.55725 0.57203 0.0
H661 H 0.88287 0.58057 0.29969 0.0
H662 H 0.9424 0.57292 0.39534 0.0
C663 C 0.88835 0.54711 0.63198 0.0
loop_
_geom_bond_atom_site_label_1
_geom_bond_atom_site_label_2
_geom_bond_distance
_geom_bond_site_symmetry_2
_ccdc_geom_bond_type
H0 C3 0.929 . S
H1 C6 0.929 . S
H2 C8 0.930 . S
C3 H0 0.929 . S
C3 C4 1.398 . S
C3 C5 1.396 . S
C4 C3 1.398 . S
C4 C8 1.407 . S
C5 C3 1.396 . S
C5 C6 1.394 . S
C6 H1 0.929 . S
C6 C5 1.394 . S
C6 C7 1.382 . S
C7 C6 1.382 . S
C7 C8 1.392 . S
C7 N9 1.420 . S
C8 H2 0.930 . S
C8 C4 1.407 . S
C8 C7 1.392 . S
N9 C7 1.420 . S
N9 C10 1.244 . S
C10 N9 1.244 . S
H11 C14 0.929 . S
H12 C17 0.929 . S
H13 C19 0.930 . S
C14 H11 0.929 . S
C14 C15 1.398 . S
C14 C16 1.396 . S
C15 C14 1.398 . S
C15 C19 1.407 . S
C16 C14 1.396 . S
C16 C17 1.394 . S
C17 H12 0.929 . S
C17 C16 1.394 . S
C17 C18 1.382 . S
C18 C17 1.382 . S
C18 C19 1.392 . S
C18 N20 1.420 . S
C19 H13 0.930 . S
C19 C15 1.407 . S
C19 C18 1.392 . S
N20 C18 1.420 . S
N20 C21 1.244 . S
C21 N20 1.244 . S
H22 C25 0.929 . S
H23 C28 0.929 . S
H24 C30 0.930 . S
C25 H22 0.929 . S
C25 C26 1.398 . S
C25 C27 1.396 . S
C26 C25 1.398 . S
C26 C30 1.407 . S
C27 C25 1.396 . S
C27 C28 1.394 . S
C28 H23 0.929 . S
C28 C27 1.394 . S
C28 C29 1.382 . S
C29 C28 1.382 . S
C29 C30 1.392 . S
C29 N31 1.420 . S
C30 H24 0.930 . S
C30 C26 1.407 . S
C30 C29 1.392 . S
N31 C29 1.420 . S
N31 C32 1.244 . S
C32 N31 1.244 . S
H33 C36 0.929 . S
H34 C39 0.929 . S
H35 C41 0.930 . S
C36 H33 0.929 . S
C36 C37 1.398 . S
C36 C38 1.396 . S
C37 C36 1.398 . S
C37 C41 1.407 . S
C38 C36 1.396 . S
C38 C39 1.394 . S
C39 H34 0.929 . S
C39 C38 1.394 . S
C39 C40 1.382 . S
C40 C39 1.382 . S
C40 C41 1.392 . S
C40 N42 1.420 . S
C41 H35 0.930 . S
C41 C37 1.407 . S
C41 C40 1.392 . S
N42 C40 1.420 . S
N42 C43 1.244 . S
C43 N42 1.244 . S
H44 C47 0.929 . S
H45 C50 0.929 . S
H46 C52 0.930 . S
C47 H44 0.929 . S
C47 C48 1.398 . S
C47 C49 1.396 1_556 S
C48 C47 1.398 . S
C48 C52 1.407 . S
C49 C47 1.396 1_554 S
C49 C50 1.394 . S
C50 H45 0.929 . S
C50 C49 1.394 . S
C50 C51 1.382 . S
C51 C50 1.382 . S
C51 C52 1.392 1_554 S
C51 N53 1.420 . S
C52 H46 0.930 . S
C52 C48 1.407 . S
C52 C51 1.392 1_556 S
N53 C51 1.420 . S
N53 C54 1.244 . S
C54 N53 1.244 . S
H55 C58 0.929 . S
H56 C61 0.929 . S
H57 C63 0.930 . S
C58 H55 0.929 . S
C58 C59 1.398 . S
C58 C60 1.396 1_556 S
C59 C58 1.398 . S
C59 C63 1.407 . S
C60 C58 1.396 1_554 S
C60 C61 1.394 . S
C61 H56 0.929 . S
C61 C60 1.394 . S
C61 C62 1.382 . S
C62 C61 1.382 . S
C62 C63 1.392 1_554 S
C62 N64 1.420 . S
C63 H57 0.930 . S
C63 C59 1.407 . S
C63 C62 1.392 1_556 S
N64 C62 1.420 . S
N64 C65 1.244 . S
C65 N64 1.244 . S
H66 C69 0.929 . S
H67 C72 0.929 . S
H68 C74 0.930 . S
C69 H66 0.929 . S
C69 C70 1.398 . S
C69 C71 1.396 1_556 S
C70 C69 1.398 . S
C70 C74 1.407 . S
C71 C69 1.396 1_554 S
C71 C72 1.394 . S
C72 H67 0.929 . S
C72 C71 1.394 . S
C72 C73 1.382 . S
C73 C72 1.382 . S
C73 C74 1.392 1_554 S
C73 N75 1.420 . S
C74 H68 0.930 . S
C74 C70 1.407 . S
C74 C73 1.392 1_556 S
N75 C73 1.420 . S
N75 C76 1.244 . S
C76 N75 1.244 . S
H77 C80 0.929 . S
H78 C83 0.929 . S
H79 C85 0.930 . S
C80 H77 0.929 . S
C80 C81 1.398 . S
C80 C82 1.396 1_556 S
C81 C80 1.398 . S
C81 C85 1.407 . S
C82 C80 1.396 1_554 S
C82 C83 1.394 . S
C83 H78 0.929 . S
C83 C82 1.394 . S
C83 C84 1.382 . S
C84 C83 1.382 . S
C84 C85 1.392 1_554 S
C84 N86 1.420 . S
C85 H79 0.930 . S
C85 C81 1.407 . S
C85 C84 1.392 1_556 S
N86 C84 1.420 . S
N86 C87 1.244 . S
C87 N86 1.244 . S
Tb88 N119 2.660 1_566 S
Tb88 N126 2.600 1_565 S
Tb88 O132 2.546 . S
Tb88 O133 2.610 1_455 S
Tb88 O135 2.320 1_455 S
Tb88 O136 2.552 . S
Tb88 O137 2.413 1_556 S
Tb88 O139 2.362 1_565 S
Tb88 O140 2.421 . S
Tb88 C152 2.833 . S
C89 C92 1.432 . S
C89 C93 1.414 . S
C89 N96 1.359 1_565 S
C90 C92 1.417 . S
C90 C94 1.432 . S
C90 C102 1.410 . S
C91 C93 1.444 . S
C91 C94 1.317 . S
C91 H114 0.929 . S
C92 C89 1.432 . S
C92 C90 1.417 . S
C92 N100 1.360 . S
C93 C89 1.414 . S
C93 C91 1.444 . S
C93 C98 1.385 1_565 S
C94 C90 1.432 . S
C94 C91 1.317 . S
C94 H106 0.930 . S
C95 C97 1.392 . S
C95 C98 1.370 . S
C95 H107 0.931 . S
N96 C89 1.359 1_545 S
N96 C97 1.327 . S
N96 Tb99 2.600 . S
C97 C95 1.392 . S
C97 N96 1.327 . S
C97 H104 0.930 . S
C98 C93 1.385 1_545 S
C98 C95 1.370 . S
C98 H117 0.930 . S
Tb99 N96 2.600 . S
Tb99 N100 2.660 1_545 S
Tb99 O133 2.362 1_545 S
Tb99 O134 2.421 . S
Tb99 O138 2.546 . S
Tb99 O139 2.610 1_655 S
Tb99 O141 2.320 1_655 S
Tb99 O142 2.552 1_655 S
Tb99 O143 2.413 . S
Tb99 C163 2.833 . S
N100 C92 1.360 . S
N100 Tb99 2.660 1_565 S
N100 C101 1.305 1_655 S
C101 N100 1.305 1_455 S
C101 C103 1.407 . S
C101 H108 0.930 . S
C102 C90 1.410 . S
C102 C103 1.345 1_655 S
C102 H110 0.930 . S
C103 C101 1.407 . S
C103 C102 1.345 1_455 S
C103 H105 0.930 . S
H104 C97 0.930 . S
H105 C103 0.930 . S
H106 C94 0.930 . S
H107 C95 0.931 . S
H108 C101 0.930 . S
H109 C123 0.930 1_655 S
H110 C102 0.930 . S
H111 C129 0.930 . S
H112 C120 0.930 1_655 S
H113 C127 0.931 . S
H114 C91 0.929 . S
H115 C121 0.930 . S
H116 C154 0.930 . S
H117 C98 0.930 . S
H118 C153 0.929 . S
N119 Tb88 2.660 1_544 S
N119 C120 1.305 . S
N119 C124 1.360 . S
C120 H112 0.930 1_455 S
C120 N119 1.305 . S
C120 C123 1.407 . S
C121 H115 0.930 . S
C121 C122 1.410 . S
C121 C123 1.345 . S
C122 C121 1.410 . S
C122 C124 1.417 . S
C122 C154 1.432 . S
C123 H109 0.930 1_455 S
C123 C120 1.407 . S
C123 C121 1.345 . S
C124 N119 1.360 . S
C124 C122 1.417 . S
C124 C128 1.432 . S
H125 C130 0.930 . S
N126 Tb88 2.600 1_545 S
N126 C128 1.359 1_556 S
N126 C129 1.327 1_545 S
C127 H113 0.931 . S
C127 C129 1.392 . S
C127 C130 1.370 1_566 S
C128 C124 1.432 . S
C128 N126 1.359 1_554 S
C128 C131 1.414 . S
C129 H111 0.930 . S
C129 N126 1.327 1_565 S
C129 C127 1.392 . S
C130 H125 0.930 . S
C130 C127 1.370 1_544 S
C130 C131 1.385 . S
C131 C128 1.414 . S
C131 C130 1.385 . S
C131 C153 1.444 . S
O132 Tb88 2.546 . S
O132 C152 1.251 . S
O133 Tb88 2.610 1_655 S
O133 Tb99 2.362 1_565 S
O133 C144 1.283 . S
O134 Tb99 2.421 . S
O134 C151 1.262 . S
O135 Tb88 2.320 1_655 S
O135 C151 1.260 1_565 S
O136 Tb88 2.552 . S
O136 C144 1.243 1_455 S
O137 Tb88 2.413 1_554 S
O137 C152 1.256 1_554 S
O138 Tb99 2.546 . S
O138 C163 1.251 . S
O139 Tb88 2.362 1_545 S
O139 Tb99 2.610 1_455 S
O139 C155 1.283 . S
O140 Tb88 2.421 . S
O140 C162 1.262 1_565 S
O141 Tb99 2.320 1_455 S
O141 C162 1.260 . S
O142 Tb99 2.552 1_455 S
O142 C155 1.243 . S
O143 Tb99 2.413 . S
O143 C163 1.256 . S
C144 O133 1.283 . S
C144 O136 1.243 1_655 S
C145 C147 1.382 . S
C145 C149 1.393 . S
C145 C152 1.500 1_554 S
C146 C147 1.400 . S
C146 C148 1.384 . S
C147 C145 1.382 . S
C147 C146 1.400 . S
C147 H164 0.930 . S
C148 C146 1.384 . S
C148 C150 1.392 . S
C148 H165 0.931 . S
C149 C145 1.393 . S
C149 C150 1.401 . S
C149 H166 0.930 . S
C150 C148 1.392 . S
C150 C149 1.401 . S
C150 H167 0.930 . S
C151 O134 1.262 . S
C151 O135 1.260 1_545 S
C152 Tb88 2.833 . S
C152 O132 1.251 . S
C152 O137 1.256 1_556 S
C152 C145 1.500 1_556 S
C153 H118 0.929 . S
C153 C131 1.444 . S
C153 C154 1.317 . S
C154 H116 0.930 . S
C154 C122 1.432 . S
C154 C153 1.317 . S
C155 O139 1.283 . S
C155 O142 1.243 . S
C156 C157 1.382 . S
C156 C160 1.393 . S
C156 C163 1.500 . S
C157 C156 1.382 . S
C157 C158 1.400 . S
C157 H168 0.930 1_655 S
C158 C157 1.400 . S
C158 C159 1.384 . S
C159 C158 1.384 . S
C159 C161 1.392 . S
C159 H169 0.931 . S
C160 C156 1.393 . S
C160 C161 1.401 . S
C160 H170 0.930 . S
C161 C159 1.392 . S
C161 C160 1.401 . S
C161 H171 0.930 . S
C162 O140 1.262 1_545 S
C162 O141 1.260 . S
C163 Tb99 2.833 . S
C163 O138 1.251 . S
C163 O143 1.256 . S
C163 C156 1.500 . S
H164 C147 0.930 . S
H165 C148 0.931 . S
H166 C149 0.930 . S
H167 C150 0.930 . S
H168 C157 0.930 1_455 S
H169 C159 0.931 . S
H170 C160 0.930 . S
H171 C161 0.930 . S
Tb172 N203 2.660 1_556 S
Tb172 N210 2.600 . S
Tb172 O216 2.546 . S
Tb172 O217 2.610 1_545 S
Tb172 O219 2.320 1_545 S
Tb172 O220 2.552 . S
Tb172 O221 2.413 1_556 S
Tb172 O223 2.362 . S
Tb172 O224 2.421 . S
Tb172 C236 2.833 . S
C173 C176 1.432 . S
C173 C177 1.414 . S
C173 N180 1.359 . S
C174 C176 1.417 . S
C174 C178 1.432 . S
C174 C186 1.410 . S
C175 C177 1.444 . S
C175 C178 1.317 . S
C175 H198 0.929 . S
C176 C173 1.432 . S
C176 C174 1.417 . S
C176 N184 1.360 . S
C177 C173 1.414 . S
C177 C175 1.444 . S
C177 C182 1.385 . S
C178 C174 1.432 . S
C178 C175 1.317 . S
C178 H190 0.930 . S
C179 C181 1.392 . S
C179 C182 1.370 . S
C179 H191 0.931 . S
N180 C173 1.359 . S
N180 C181 1.327 . S
N180 Tb183 2.600 . S
C181 C179 1.392 . S
C181 N180 1.327 . S
C181 H188 0.930 . S
C182 C177 1.385 . S
C182 C179 1.370 . S
C182 H201 0.930 . S
Tb183 N180 2.600 . S
Tb183 N184 2.660 . S
Tb183 O217 2.362 . S
Tb183 O218 2.421 . S
Tb183 O222 2.546 . S
Tb183 O223 2.610 1_565 S
Tb183 O225 2.320 1_565 S
Tb183 O226 2.552 1_565 S
Tb183 O227 2.413 . S
Tb183 C247 2.833 . S
N184 C176 1.360 . S
N184 Tb183 2.660 . S
N184 C185 1.305 1_565 S
C185 N184 1.305 1_545 S
C185 C187 1.407 . S
C185 H192 0.930 . S
C186 C174 1.410 . S
C186 C187 1.345 1_565 S
C186 H194 0.930 . S
C187 C185 1.407 . S
C187 C186 1.345 1_545 S
C187 H189 0.930 . S
H188 C181 0.930 . S
H189 C187 0.930 . S
H190 C178 0.930 . S
H191 C179 0.931 . S
H192 C185 0.930 . S
H193 C207 0.930 1_565 S
H194 C186 0.930 . S
H195 C213 0.930 . S
H196 C204 0.930 1_565 S
H197 C211 0.931 . S
H198 C175 0.929 . S
H199 C205 0.930 . S
H200 C238 0.930 . S
H201 C182 0.930 . S
H202 C237 0.929 . S
N203 Tb172 2.660 1_554 S
N203 C204 1.305 . S
N203 C208 1.360 . S
C204 H196 0.930 1_545 S
C204 N203 1.305 . S
C204 C207 1.407 . S
C205 H199 0.930 . S
C205 C206 1.410 . S
C205 C207 1.345 . S
C206 C205 1.410 . S
C206 C208 1.417 . S
C206 C238 1.432 . S
C207 H193 0.930 1_545 S
C207 C204 1.407 . S
C207 C205 1.345 . S
C208 N203 1.360 . S
C208 C206 1.417 . S
C208 C212 1.432 . S
H209 C214 0.930 . S
N210 Tb172 2.600 . S
N210 C212 1.359 1_556 S
N210 C213 1.327 . S
C211 H197 0.931 . S
C211 C213 1.392 . S
C211 C214 1.370 1_556 S
C212 C208 1.432 . S
C212 N210 1.359 1_554 S
C212 C215 1.414 . S
C213 H195 0.930 . S
C213 N210 1.327 . S
C213 C211 1.392 . S
C214 H209 0.930 . S
C214 C211 1.370 1_554 S
C214 C215 1.385 . S
C215 C212 1.414 . S
C215 C214 1.385 . S
C215 C237 1.444 . S
O216 Tb172 2.546 . S
O216 C236 1.251 . S
O217 Tb172 2.610 1_565 S
O217 Tb183 2.362 . S
O217 C228 1.283 . S
O218 Tb183 2.421 . S
O218 C235 1.262 . S
O219 Tb172 2.320 1_565 S
O219 C235 1.260 . S
O220 Tb172 2.552 . S
O220 C228 1.243 1_545 S
O221 Tb172 2.413 1_554 S
O221 C236 1.256 1_554 S
O222 Tb183 2.546 . S
O222 C247 1.251 . S
O223 Tb172 2.362 . S
O223 Tb183 2.610 1_545 S
O223 C239 1.283 . S
O224 Tb172 2.421 . S
O224 C246 1.262 . S
O225 Tb183 2.320 1_545 S
O225 C246 1.260 . S
O226 Tb183 2.552 1_545 S
O226 C239 1.243 . S
O227 Tb183 2.413 . S
O227 C247 1.256 . S
C228 O217 1.283 . S
C228 O220 1.243 1_565 S
C229 C231 1.382 . S
C229 C233 1.393 . S
C229 C236 1.500 1_554 S
C230 C231 1.400 . S
C230 C232 1.384 . S
C231 C229 1.382 . S
C231 C230 1.400 . S
C231 H248 0.930 . S
C232 C230 1.384 . S
C232 C234 1.392 . S
C232 H249 0.931 . S
C233 C229 1.393 . S
C233 C234 1.401 . S
C233 H250 0.930 . S
C234 C232 1.392 . S
C234 C233 1.401 . S
C234 H251 0.930 . S
C235 O218 1.262 . S
C235 O219 1.260 . S
C236 Tb172 2.833 . S
C236 O216 1.251 . S
C236 O221 1.256 1_556 S
C236 C229 1.500 1_556 S
C237 H202 0.929 . S
C237 C215 1.444 . S
C237 C238 1.317 . S
C238 H200 0.930 . S
C238 C206 1.432 . S
C238 C237 1.317 . S
C239 O223 1.283 . S
C239 O226 1.243 . S
C240 C241 1.382 . S
C240 C244 1.393 . S
C240 C247 1.500 . S
C241 C240 1.382 . S
C241 C242 1.400 . S
C241 H252 0.930 1_565 S
C242 C241 1.400 . S
C242 C243 1.384 . S
C243 C242 1.384 . S
C243 C245 1.392 . S
C243 H253 0.931 . S
C244 C240 1.393 . S
C244 C245 1.401 . S
C244 H254 0.930 . S
C245 C243 1.392 . S
C245 C244 1.401 . S
C245 H255 0.930 . S
C246 O224 1.262 . S
C246 O225 1.260 . S
C247 Tb183 2.833 . S
C247 O222 1.251 . S
C247 O227 1.256 . S
C247 C240 1.500 . S
H248 C231 0.930 . S
H249 C232 0.931 . S
H250 C233 0.930 . S
H251 C234 0.930 . S
H252 C241 0.930 1_545 S
H253 C243 0.931 . S
H254 C244 0.930 . S
H255 C245 0.930 . S
Tb256 N287 2.660 . S
Tb256 N294 2.600 . S
Tb256 O300 2.546 . S
Tb256 O301 2.610 . S
Tb256 O303 2.320 . S
Tb256 O304 2.552 . S
Tb256 O305 2.413 . S
Tb256 O307 2.362 . S
Tb256 O308 2.421 . S
Tb256 C320 2.833 . S
C257 C260 1.432 . S
C257 C261 1.414 . S
C257 N264 1.359 . S
C258 C260 1.417 . S
C258 C262 1.432 . S
C258 C270 1.410 . S
C259 C261 1.444 . S
C259 C262 1.317 . S
C259 H282 0.929 . S
C260 C257 1.432 . S
C260 C258 1.417 . S
C260 N268 1.360 . S
C261 C257 1.414 . S
C261 C259 1.444 . S
C261 C266 1.385 1_556 S
C262 C258 1.432 . S
C262 C259 1.317 . S
C262 H274 0.930 . S
C263 C265 1.392 . S
C263 C266 1.370 . S
C263 H275 0.931 . S
N264 C257 1.359 . S
N264 C265 1.327 1_556 S
N264 Tb267 2.600 . S
C265 C263 1.392 . S
C265 N264 1.327 1_554 S
C265 H272 0.930 . S
C266 C261 1.385 1_554 S
C266 C263 1.370 . S
C266 H285 0.930 . S
Tb267 N264 2.600 . S
Tb267 N268 2.660 . S
Tb267 O301 2.362 . S
Tb267 O302 2.421 . S
Tb267 O306 2.546 1_556 S
Tb267 O307 2.610 . S
Tb267 O309 2.320 . S
Tb267 O310 2.552 . S
Tb267 O311 2.413 . S
Tb267 C331 2.833 1_556 S
N268 C260 1.360 . S
N268 Tb267 2.660 . S
N268 C269 1.305 . S
C269 N268 1.305 . S
C269 C271 1.407 . S
C269 H276 0.930 . S
C270 C258 1.410 . S
C270 C271 1.345 . S
C270 H278 0.930 . S
C271 C269 1.407 . S
C271 C270 1.345 . S
C271 H273 0.930 . S
H272 C265 0.930 . S
H273 C271 0.930 . S
H274 C262 0.930 . S
H275 C263 0.931 . S
H276 C269 0.930 . S
H277 C291 0.930 . S
H278 C270 0.930 . S
H279 C297 0.930 . S
H280 C288 0.930 . S
H281 C295 0.931 . S
H282 C259 0.929 . S
H283 C289 0.930 . S
H284 C322 0.930 . S
H285 C266 0.930 . S
H286 C321 0.929 . S
N287 Tb256 2.660 . S
N287 C288 1.305 . S
N287 C292 1.360 . S
C288 H280 0.930 . S
C288 N287 1.305 . S
C288 C291 1.407 . S
C289 H283 0.930 . S
C289 C290 1.410 . S
C289 C291 1.345 . S
C290 C289 1.410 . S
C290 C292 1.417 . S
C290 C322 1.432 . S
C291 H277 0.930 . S
C291 C288 1.407 . S
C291 C289 1.345 . S
C292 N287 1.360 . S
C292 C290 1.417 . S
C292 C296 1.432 . S
H293 C298 0.930 . S
N294 Tb256 2.600 . S
N294 C296 1.359 . S
N294 C297 1.327 . S
C295 H281 0.931 . S
C295 C297 1.392 . S
C295 C298 1.370 . S
C296 C292 1.432 . S
C296 N294 1.359 . S
C296 C299 1.414 . S
C297 H279 0.930 . S
C297 N294 1.327 . S
C297 C295 1.392 . S
C298 H293 0.930 . S
C298 C295 1.370 . S
C298 C299 1.385 . S
C299 C296 1.414 . S
C299 C298 1.385 . S
C299 C321 1.444 . S
O300 Tb256 2.546 . S
O300 C320 1.251 . S
O301 Tb256 2.610 . S
O301 Tb267 2.362 . S
O301 C312 1.283 . S
O302 Tb267 2.421 . S
O302 C319 1.262 . S
O303 Tb256 2.320 . S
O303 C319 1.260 . S
O304 Tb256 2.552 . S
O304 C312 1.243 . S
O305 Tb256 2.413 . S
O305 C320 1.256 . S
O306 Tb267 2.546 1_554 S
O306 C331 1.251 . S
O307 Tb256 2.362 . S
O307 Tb267 2.610 . S
O307 C323 1.283 . S
O308 Tb256 2.421 . S
O308 C330 1.262 . S
O309 Tb267 2.320 . S
O309 C330 1.260 . S
O310 Tb267 2.552 . S
O310 C323 1.243 . S
O311 Tb267 2.413 . S
O311 C331 1.256 1_556 S
C312 O301 1.283 . S
C312 O304 1.243 . S
C313 C315 1.382 . S
C313 C317 1.393 . S
C313 C320 1.500 . S
C314 C315 1.400 . S
C314 C316 1.384 . S
C315 C313 1.382 . S
C315 C314 1.400 . S
C315 H332 0.930 . S
C316 C314 1.384 . S
C316 C318 1.392 . S
C316 H333 0.931 . S
C317 C313 1.393 . S
C317 C318 1.401 . S
C317 H334 0.930 . S
C318 C316 1.392 . S
C318 C317 1.401 . S
C318 H335 0.930 . S
C319 O302 1.262 . S
C319 O303 1.260 . S
C320 Tb256 2.833 . S
C320 O300 1.251 . S
C320 O305 1.256 . S
C320 C313 1.500 . S
C321 H286 0.929 . S
C321 C299 1.444 . S
C321 C322 1.317 . S
C322 H284 0.930 . S
C322 C290 1.432 . S
C322 C321 1.317 . S
C323 O307 1.283 . S
C323 O310 1.243 . S
C324 C325 1.382 . S
C324 C328 1.393 . S
C324 C331 1.500 . S
C325 C324 1.382 . S
C325 C326 1.400 . S
C325 H336 0.930 . S
C326 C325 1.400 . S
C326 C327 1.384 . S
C327 C326 1.384 . S
C327 C329 1.392 . S
C327 H337 0.931 . S
C328 C324 1.393 . S
C328 C329 1.401 . S
C328 H338 0.930 . S
C329 C327 1.392 . S
C329 C328 1.401 . S
C329 H339 0.930 . S
C330 O308 1.262 . S
C330 O309 1.260 . S
C331 Tb267 2.833 1_554 S
C331 O306 1.251 . S
C331 O311 1.256 1_554 S
C331 C324 1.500 . S
H332 C315 0.930 . S
H333 C316 0.931 . S
H334 C317 0.930 . S
H335 C318 0.930 . S
H336 C325 0.930 . S
H337 C327 0.931 . S
H338 C328 0.930 . S
H339 C329 0.930 . S
Tb340 N371 2.660 . S
Tb340 N378 2.600 . S
Tb340 O384 2.546 . S
Tb340 O385 2.610 . S
Tb340 O387 2.320 . S
Tb340 O388 2.552 . S
Tb340 O389 2.413 . S
Tb340 O391 2.362 . S
Tb340 O392 2.421 1_455 S
Tb340 C404 2.833 . S
C341 C344 1.432 . S
C341 C345 1.414 . S
C341 N348 1.365 . S
C342 C344 1.417 . S
C342 C346 1.432 . S
C342 C354 1.410 . S
C343 C345 1.444 . S
C343 C346 1.317 . S
C343 H366 0.929 . S
C344 C341 1.432 . S
C344 C342 1.417 . S
C344 N352 1.360 . S
C345 C341 1.414 . S
C345 C343 1.444 . S
C345 C350 1.385 1_656 S
C346 C342 1.432 . S
C346 C343 1.317 . S
C346 H358 0.930 . S
C347 C349 1.392 . S
C347 C350 1.370 . S
C347 H359 0.931 . S
N348 C341 1.365 . S
N348 C349 1.319 1_656 S
N348 Tb351 2.603 . S
C349 C347 1.392 . S
C349 N348 1.319 1_454 S
C349 H356 0.930 . S
C350 C345 1.385 1_454 S
C350 C347 1.370 . S
C350 H369 0.930 . S
Tb351 N348 2.603 . S
Tb351 N352 2.660 . S
Tb351 O385 2.362 1_655 S
Tb351 O386 2.421 1_655 S
Tb351 O390 2.546 1_556 S
Tb351 O391 2.610 1_655 S
Tb351 O393 2.320 . S
Tb351 O394 2.552 . S
Tb351 O395 2.413 . S
Tb351 C415 2.833 1_556 S
N352 C344 1.360 . S
N352 Tb351 2.660 . S
N352 C353 1.305 . S
C353 N352 1.305 . S
C353 C355 1.407 . S
C353 H360 0.930 . S
C354 C342 1.410 . S
C354 C355 1.345 . S
C354 H362 0.930 . S
C355 C353 1.407 . S
C355 C354 1.345 . S
C355 H357 0.930 . S
H356 C349 0.930 . S
H357 C355 0.930 . S
H358 C346 0.930 . S
H359 C347 0.931 . S
H360 C353 0.930 . S
H361 C375 0.930 . S
H362 C354 0.930 . S
H363 C381 0.930 . S
H364 C372 0.930 . S
H365 C379 0.931 . S
H366 C343 0.929 . S
H367 C373 0.930 . S
H368 C406 0.930 . S
H369 C350 0.930 . S
H370 C405 0.929 . S
N371 Tb340 2.660 . S
N371 C372 1.305 . S
N371 C376 1.360 . S
C372 H364 0.930 . S
C372 N371 1.305 . S
C372 C375 1.407 . S
C373 H367 0.930 . S
C373 C374 1.410 . S
C373 C375 1.345 . S
C374 C373 1.410 . S
C374 C376 1.417 . S
C374 C406 1.432 . S
C375 H361 0.930 . S
C375 C372 1.407 . S
C375 C373 1.345 . S
C376 N371 1.360 . S
C376 C374 1.417 . S
C376 C380 1.432 . S
H377 C382 0.930 1_655 S
N378 Tb340 2.600 . S
N378 C380 1.359 . S
N378 C381 1.327 1_455 S
C379 H365 0.931 . S
C379 C381 1.392 . S
C379 C382 1.370 1_655 S
C380 C376 1.432 . S
C380 N378 1.359 . S
C380 C383 1.414 . S
C381 H363 0.930 . S
C381 N378 1.327 1_655 S
C381 C379 1.392 . S
C382 H377 0.930 1_455 S
C382 C379 1.370 1_455 S
C382 C383 1.385 . S
C383 C380 1.414 . S
C383 C382 1.385 . S
C383 C405 1.444 . S
O384 Tb340 2.546 . S
O384 C404 1.251 . S
O385 Tb340 2.610 . S
O385 Tb351 2.362 1_455 S
O385 C396 1.283 . S
O386 Tb351 2.421 1_455 S
O386 C403 1.262 . S
O387 Tb340 2.320 . S
O387 C403 1.260 . S
O388 Tb340 2.552 . S
O388 C396 1.243 . S
O389 Tb340 2.413 . S
O389 C404 1.256 . S
O390 Tb351 2.546 1_554 S
O390 C415 1.251 . S
O391 Tb340 2.362 . S
O391 Tb351 2.610 1_455 S
O391 C407 1.283 1_455 S
O392 Tb340 2.421 1_655 S
O392 C414 1.262 . S
O393 Tb351 2.320 . S
O393 C414 1.260 . S
O394 Tb351 2.552 . S
O394 C407 1.243 . S
O395 Tb351 2.413 . S
O395 C415 1.256 1_556 S
C396 O385 1.283 . S
C396 O388 1.243 . S
C397 C399 1.382 . S
C397 C401 1.393 . S
C397 C404 1.500 . S
C398 C399 1.400 . S
C398 C400 1.384 . S
C399 C397 1.382 . S
C399 C398 1.400 . S
C399 H416 0.930 . S
C400 C398 1.384 . S
C400 C402 1.392 . S
C400 H417 0.931 . S
C401 C397 1.393 . S
C401 C402 1.401 . S
C401 H418 0.930 . S
C402 C400 1.392 . S
C402 C401 1.401 . S
C402 H419 0.930 . S
C403 O386 1.262 . S
C403 O387 1.260 . S
C404 Tb340 2.833 . S
C404 O384 1.251 . S
C404 O389 1.256 . S
C404 C397 1.500 . S
C405 H370 0.929 . S
C405 C383 1.444 . S
C405 C406 1.317 . S
C406 H368 0.930 . S
C406 C374 1.432 . S
C406 C405 1.317 . S
C407 O391 1.283 1_655 S
C407 O394 1.243 . S
C408 C409 1.382 . S
C408 C412 1.393 . S
C408 C415 1.500 . S
C409 C408 1.382 . S
C409 C410 1.400 . S
C409 H420 0.930 . S
C410 C409 1.400 . S
C410 C411 1.384 . S
C411 C410 1.384 . S
C411 C413 1.392 . S
C411 H421 0.931 . S
C412 C408 1.393 . S
C412 C413 1.401 . S
C412 H422 0.930 . S
C413 C411 1.392 . S
C413 C412 1.401 . S
C413 H423 0.930 . S
C414 O392 1.262 . S
C414 O393 1.260 . S
C415 Tb351 2.833 1_554 S
C415 O390 1.251 . S
C415 O395 1.256 1_554 S
C415 C408 1.500 . S
H416 C399 0.930 . S
H417 C400 0.931 . S
H418 C401 0.930 . S
H419 C402 0.930 . S
H420 C409 0.930 . S
H421 C411 0.931 . S
H422 C412 0.930 . S
H423 C413 0.930 . S
C424 C425 1.387 . S
C424 H428 0.950 1_545 S
C424 C433 1.390 . S
C425 C424 1.387 . S
C425 C427 1.387 . S
H426 C433 0.950 1_565 S
C427 C425 1.387 . S
C427 C429 1.390 . S
C427 H431 0.950 . S
H428 C424 0.950 1_565 S
C429 C427 1.390 . S
C429 C430 1.387 . S
C429 H432 0.950 . S
C430 C429 1.387 . S
C430 C433 1.387 . S
H431 C427 0.950 . S
H432 C429 0.950 . S
C433 C424 1.390 . S
C433 H426 0.950 1_545 S
C433 C430 1.387 . S
C434 C435 1.387 . S
C434 H438 0.950 . S
C434 C443 1.390 . S
C435 C434 1.387 . S
C435 C437 1.387 . S
H436 C443 0.950 . S
C437 C435 1.387 . S
C437 C439 1.390 . S
C437 H441 0.950 . S
H438 C434 0.950 . S
C439 C437 1.390 . S
C439 C440 1.387 . S
C439 H442 0.950 . S
C440 C439 1.387 . S
C440 C443 1.387 . S
H441 C437 0.950 . S
H442 C439 0.950 . S
C443 C434 1.390 . S
C443 H436 0.950 . S
C443 C440 1.387 . S
C444 C445 1.387 . S
C444 H448 0.950 . S
C444 C453 1.390 . S
C445 C444 1.387 . S
C445 C447 1.387 . S
H446 C453 0.950 . S
C447 C445 1.387 . S
C447 C449 1.390 . S
C447 H451 0.950 . S
H448 C444 0.950 . S
C449 C447 1.390 . S
C449 C450 1.387 . S
C449 H452 0.950 . S
C450 C449 1.387 . S
C450 C453 1.387 . S
H451 C447 0.950 . S
H452 C449 0.950 . S
C453 C444 1.390 . S
C453 H446 0.950 . S
C453 C450 1.387 . S
C454 C455 1.387 . S
C454 H458 0.950 . S
C454 C463 1.390 . S
C455 C454 1.387 . S
C455 C457 1.387 . S
H456 C463 0.950 . S
C457 C455 1.387 . S
C457 C459 1.390 . S
C457 H461 0.950 . S
H458 C454 0.950 . S
C459 C457 1.390 . S
C459 C460 1.387 . S
C459 H462 0.950 . S
C460 C459 1.387 . S
C460 C463 1.387 . S
H461 C457 0.950 . S
H462 C459 0.950 . S
C463 C454 1.390 . S
C463 H456 0.950 . S
C463 C460 1.387 . S
C464 C465 1.387 . S
C464 H468 0.950 . S
C464 C473 1.390 . S
C465 C464 1.387 . S
C465 C467 1.387 . S
H466 C473 0.950 1_545 S
C467 C465 1.387 . S
C467 C469 1.390 . S
C467 H471 0.950 . S
H468 C464 0.950 . S
C469 C467 1.390 . S
C469 C470 1.387 . S
C469 H472 0.950 1_554 S
C470 C469 1.387 . S
C470 C473 1.387 . S
H471 C467 0.950 . S
H472 C469 0.950 1_556 S
C473 C464 1.390 . S
C473 H466 0.950 1_565 S
C473 C470 1.387 . S
C474 C475 1.387 . S
C474 H478 0.950 . S
C474 C483 1.390 . S
C475 C474 1.387 . S
C475 C477 1.387 . S
H476 C483 0.950 . S
C477 C475 1.387 . S
C477 C479 1.390 . S
C477 H481 0.950 . S
H478 C474 0.950 . S
C479 C477 1.390 . S
C479 C480 1.387 1_554 S
C479 H482 0.950 1_554 S
C480 C479 1.387 1_556 S
C480 C483 1.382 1_556 S
H481 C477 0.950 . S
H482 C479 0.950 1_556 S
C483 C474 1.390 . S
C483 H476 0.950 . S
C483 C480 1.382 1_554 S
C484 C485 1.387 . S
C484 H488 0.950 . S
C484 C493 1.390 . S
C485 C484 1.387 . S
C485 C487 1.387 . S
H486 C493 0.950 1_556 S
C487 C485 1.387 . S
C487 C489 1.390 . S
C487 H491 0.950 . S
H488 C484 0.950 . S
C489 C487 1.390 . S
C489 C490 1.387 1_554 S
C489 H492 0.950 . S
C490 C489 1.387 1_556 S
C490 C493 1.387 1_556 S
H491 C487 0.950 . S
H492 C489 0.950 . S
C493 C484 1.390 . S
C493 H486 0.950 1_554 S
C493 C490 1.387 1_554 S
C494 C495 1.387 . S
C494 H498 0.950 1_655 S
C494 C503 1.387 1_655 S
C495 C494 1.387 . S
C495 C497 1.387 . S
H496 C503 0.963 1_556 S
C497 C495 1.387 . S
C497 C499 1.390 . S
C497 H501 0.950 . S
H498 C494 0.950 1_455 S
C499 C497 1.390 . S
C499 C500 1.387 1_554 S
C499 H502 0.950 . S
C500 C499 1.387 1_556 S
C500 C503 1.378 1_656 S
H501 C497 0.950 . S
H502 C499 0.950 . S
C503 C494 1.387 1_455 S
C503 H496 0.963 1_554 S
C503 C500 1.378 1_454 S
C504 C505 1.387 . S
C504 H508 0.950 . S
C504 C513 1.390 . S
C505 C504 1.387 . S
C505 C507 1.387 . S
H506 C513 0.950 . S
C507 C505 1.387 . S
C507 C509 1.390 . S
C507 H511 0.950 . S
H508 C504 0.950 . S
C509 C507 1.390 . S
C509 C510 1.380 1_455 S
C509 H512 0.950 . S
C510 C509 1.380 1_655 S
C510 C513 1.379 1_655 S
H511 C507 0.950 . S
H512 C509 0.950 . S
C513 C504 1.390 . S
C513 H506 0.950 . S
C513 C510 1.379 1_455 S
C514 C515 1.387 . S
C514 H518 0.950 . S
C514 C523 1.390 1_545 S
C515 C514 1.387 . S
C515 C517 1.387 . S
H516 C523 0.950 . S
C517 C515 1.387 . S
C517 C519 1.390 . S
C517 H521 0.950 . S
H518 C514 0.950 . S
C519 C517 1.390 . S
C519 C520 1.362 1_545 S
C519 H522 0.950 . S
C520 C519 1.362 1_565 S
C520 C523 1.392 . S
H521 C517 0.950 . S
H522 C519 0.950 . S
C523 C514 1.390 1_565 S
C523 H516 0.950 . S
C523 C520 1.392 . S
C524 C525 1.387 . S
C524 H528 0.950 . S
C524 C533 1.390 . S
C525 C524 1.387 . S
C525 C527 1.387 . S
H526 C533 0.950 . S
C527 C525 1.387 . S
C527 C529 1.390 . S
C527 H531 0.950 1_554 S
H528 C524 0.950 . S
C529 C527 1.390 . S
C529 C530 1.387 . S
C529 H532 0.950 . S
C530 C529 1.387 . S
C530 C533 1.387 . S
H531 C527 0.950 1_556 S
H532 C529 0.950 . S
C533 C524 1.390 . S
C533 H526 0.950 . S
C533 C530 1.387 . S
C534 C535 1.387 . S
C534 H538 0.950 . S
C534 C543 1.390 . S
C535 C534 1.387 . S
C535 C537 1.387 . S
H536 C543 0.950 . S
C537 C535 1.387 . S
C537 C539 1.390 . S
C537 H541 0.950 1_554 S
H538 C534 0.950 . S
C539 C537 1.390 . S
C539 C540 1.387 . S
C539 H542 0.950 . S
C540 C539 1.387 . S
C540 C543 1.387 . S
H541 C537 0.950 1_556 S
H542 C539 0.950 . S
C543 C534 1.390 . S
C543 H536 0.950 . S
C543 C540 1.387 . S
C544 C545 1.387 . S
C544 H548 0.950 . S
C544 C553 1.390 1_655 S
C545 C544 1.387 . S
C545 C547 1.387 . S
H546 C553 0.950 . S
C547 C545 1.387 . S
C547 C549 1.390 . S
C547 H551 0.950 . S
H548 C544 0.950 . S
C549 C547 1.390 . S
C549 C550 1.387 1_655 S
C549 H552 0.950 . S
C550 C549 1.387 1_455 S
C550 C553 1.387 . S
H551 C547 0.950 . S
H552 C549 0.950 . S
C553 C544 1.390 1_455 S
C553 H546 0.950 . S
C553 C550 1.387 . S
C554 C555 1.387 . S
C554 H558 0.950 . S
C554 C563 1.390 . S
C555 C554 1.387 . S
C555 C557 1.387 1_565 S
H556 C563 0.950 . S
C557 C555 1.387 1_545 S
C557 C559 1.390 . S
C557 H561 0.950 . S
H558 C554 0.950 . S
C559 C557 1.390 . S
C559 C560 1.387 . S
C559 H562 0.950 . S
C560 C559 1.387 . S
C560 C563 1.387 1_545 S
H561 C557 0.950 . S
H562 C559 0.950 . S
C563 C554 1.390 . S
C563 H556 0.950 . S
C563 C560 1.387 1_565 S
C564 C565 1.387 . S
C564 H568 0.950 . S
C564 C573 1.390 . S
C565 C564 1.387 . S
C565 C567 1.387 . S
H566 C573 0.950 . S
C567 C565 1.387 . S
C567 C569 1.390 . S
C567 H571 0.950 . S
H568 C564 0.950 . S
C569 C567 1.390 . S
C569 C570 1.387 . S
C569 H572 0.950 . S
C570 C569 1.387 . S
C570 C573 1.387 . S
H571 C567 0.950 . S
H572 C569 0.950 . S
C573 C564 1.390 . S
C573 H566 0.950 . S
C573 C570 1.387 . S
C574 C575 1.387 . S
C574 H578 0.950 . S
C574 C583 1.390 . S
C575 C574 1.387 . S
C575 C577 1.387 . S
H576 C583 0.950 . S
C577 C575 1.387 . S
C577 C579 1.390 . S
C577 H581 0.950 . S
H578 C574 0.950 . S
C579 C577 1.390 . S
C579 C580 1.387 . S
C579 H582 0.950 . S
C580 C579 1.387 . S
C580 C583 1.387 . S
H581 C577 0.950 . S
H582 C579 0.950 . S
C583 C574 1.390 . S
C583 H576 0.950 . S
C583 C580 1.387 . S
C584 C585 1.387 . S
C584 H588 0.950 . S
C584 C593 1.390 . S
C585 C584 1.387 . S
C585 C587 1.387 . S
H586 C593 0.950 . S
C587 C585 1.387 . S
C587 C589 1.390 . S
C587 H591 0.950 . S
H588 C584 0.950 . S
C589 C587 1.390 . S
C589 C590 1.387 . S
C589 H592 0.950 . S
C590 C589 1.387 . S
C590 C593 1.387 . S
H591 C587 0.950 . S
H592 C589 0.950 . S
C593 C584 1.390 . S
C593 H586 0.950 . S
C593 C590 1.387 . S
C594 C595 1.387 . S
C594 H598 0.950 . S
C594 C603 1.390 . S
C595 C594 1.387 . S
C595 C597 1.387 . S
H596 C603 0.950 . S
C597 C595 1.387 . S
C597 C599 1.390 . S
C597 H601 0.950 . S
H598 C594 0.950 . S
C599 C597 1.390 . S
C599 C600 1.387 . S
C599 H602 0.950 . S
C600 C599 1.387 . S
C600 C603 1.387 . S
H601 C597 0.950 . S
H602 C599 0.950 . S
C603 C594 1.390 . S
C603 H596 0.950 . S
C603 C600 1.387 . S
C604 C605 1.387 . S
C604 H608 0.950 1_556 S
C604 C613 1.390 . S
C605 C604 1.387 . S
C605 C607 1.387 . S
H606 C613 0.950 1_554 S
C607 C605 1.387 . S
C607 C609 1.390 . S
C607 H611 0.950 . S
H608 C604 0.950 1_554 S
C609 C607 1.390 . S
C609 C610 1.387 . S
C609 H612 0.950 . S
C610 C609 1.387 . S
C610 C613 1.387 . S
H611 C607 0.950 . S
H612 C609 0.950 . S
C613 C604 1.390 . S
C613 H606 0.950 1_556 S
C613 C610 1.387 . S
C614 C615 1.387 . S
C614 H618 0.950 1_556 S
C614 C623 1.390 . S
C615 C614 1.387 . S
C615 C617 1.387 . S
H616 C623 0.950 1_554 S
C617 C615 1.387 . S
C617 C619 1.390 . S
C617 H621 0.950 . S
H618 C614 0.950 1_554 S
C619 C617 1.390 . S
C619 C620 1.387 . S
C619 H622 0.950 . S
C620 C619 1.387 . S
C620 C623 1.387 . S
H621 C617 0.950 . S
H622 C619 0.950 . S
C623 C614 1.390 . S
C623 H616 0.950 1_556 S
C623 C620 1.387 . S
C624 C625 1.387 . S
C624 H628 0.950 . S
C624 C633 1.390 . S
C625 C624 1.387 . S
C625 C627 1.387 . S
H626 C633 0.950 . S
C627 C625 1.387 . S
C627 C629 1.390 . S
C627 H631 0.950 . S
H628 C624 0.950 . S
C629 C627 1.390 . S
C629 C630 1.387 . S
C629 H632 0.950 . S
C630 C629 1.387 . S
C630 C633 1.387 . S
H631 C627 0.950 . S
H632 C629 0.950 . S
C633 C624 1.390 . S
C633 H626 0.950 . S
C633 C630 1.387 . S
C634 C635 1.387 . S
C634 H638 0.950 . S
C634 C643 1.390 . S
C635 C634 1.387 . S
C635 C637 1.387 . S
H636 C643 0.950 . S
C637 C635 1.387 . S
C637 C639 1.390 . S
C637 H641 0.950 . S
H638 C634 0.950 . S
C639 C637 1.390 . S
C639 C640 1.387 . S
C639 H642 0.950 . S
C640 C639 1.387 . S
C640 C643 1.387 . S
H641 C637 0.950 . S
H642 C639 0.950 . S
C643 C634 1.390 . S
C643 H636 0.950 . S
C643 C640 1.387 . S
C644 C645 1.387 . S
C644 H648 0.950 . S
C644 C653 1.390 . S
C645 C644 1.387 . S
C645 C647 1.387 . S
H646 C653 0.950 . S
C647 C645 1.387 . S
C647 C649 1.390 . S
C647 H651 0.950 . S
H648 C644 0.950 . S
C649 C647 1.390 . S
C649 C650 1.387 . S
C649 H652 0.950 . S
C650 C649 1.387 . S
C650 C653 1.387 . S
H651 C647 0.950 . S
H652 C649 0.950 . S
C653 C644 1.390 . S
C653 H646 0.950 . S
C653 C650 1.387 . S
C654 C655 1.387 . S
C654 H658 0.950 . S
C654 C663 1.390 . S
C655 C654 1.387 . S
C655 C657 1.387 . S
H656 C663 0.950 . S
C657 C655 1.387 . S
C657 C659 1.390 . S
C657 H661 0.950 . S
H658 C654 0.950 . S
C659 C657 1.390 . S
C659 C660 1.387 . S
C659 H662 0.950 . S
C660 C659 1.387 . S
C660 C663 1.387 . S
H661 C657 0.950 . S
H662 C659 0.950 . S
C663 C654 1.390 . S
C663 H656 0.950 . S
C663 C660 1.387 . S
C425 C76 1.962 . S
C430 C162 2.095 . S
C440 C246 2.102 . S
C435 C87 1.966 . S
C450 C312 2.008 . S
C445 C54 2.041 . S
C460 C396 1.999 . S
C455 C65 2.032 . S
C470 C151 2.094 1_564 S
C465 C32 1.966 . S
C475 C43 1.974 . S
C480 C235 2.108 . S
C485 C10 2.050 . S
C490 C323 2.008 . S
C495 C21 2.038 . S
C500 C407 1.997 . S
C510 C158 0.970 . S
C505 C60 0.894 . S
C520 C242 0.939 . S
C515 C71 0.871 . S
C530 C314 0.890 . S
C525 C82 0.850 . S
C535 C49 0.872 . S
C540 C398 0.924 . S
C545 C16 0.890 . S
C550 C146 0.949 . S
C560 C230 0.915 . S
C555 C27 0.864 . S
C570 C326 0.889 . S
C565 C38 0.846 . S
C575 C5 0.865 . S
C580 C410 0.924 . S
C585 C59 2.108 . S
C590 C155 2.216 . S
C595 C70 2.086 . S
C600 C239 2.192 . S
C610 C319 2.289 . S
C605 C81 2.007 . S
C620 C403 2.308 . S
C615 C48 2.028 . S
C625 C15 2.100 . S
C630 C144 2.216 . S
C640 C228 2.192 . S
C635 C26 2.080 . S
C650 C330 2.290 . S
C645 C37 1.999 . S
C655 C4 2.018 . S
C660 C414 2.309 . S
