# Generated by pormake.
# Topology zzz, (3,6)-cn, num edge types: 1
# Building blocks:
#     Node 0, Type 0, BuildingBlock: MIDCAF_clean_linker_0, # of connection points: 3
#     Node 1, Type 0, BuildingBlock: MIDCAF_clean_linker_0, # of connection points: 3
#     Node 2, Type 0, BuildingBlock: MIDCAF_clean_linker_0, # of connection points: 3
#     Node 3, Type 0, BuildingBlock: MIDCAF_clean_linker_0, # of connection points: 3
#     Node 4, Type 0, BuildingBlock: MIDCAF_clean_linker_0, # of connection points: 3
#     Node 5, Type 0, BuildingBlock: MIDCAF_clean_linker_0, # of connection points: 3
#     Node 6, Type 0, BuildingBlock: MIDCAF_clean_linker_0, # of connection points: 3
#     Node 7, Type 0, BuildingBlock: MIDCAF_clean_linker_0, # of connection points: 3
#     Node 8, Type 1, BuildingBlock: BETDAH_clean_sbu_0, # of connection points: 6
#     Node 9, Type 1, BuildingBlock: BETDAH_clean_sbu_0, # of connection points: 6
#     Node 10, Type 1, BuildingBlock: BETDAH_clean_sbu_0, # of connection points: 6
#     Node 11, Type 1, BuildingBlock: BETDAH_clean_sbu_0, # of connection points: 6
#     Edge 12, Type (0, 1), BuildingBlock: XIVTED_clean_linker_0, # of connection points: 2
#     Edge 13, Type (0, 1), BuildingBlock: XIVTED_clean_linker_0, # of connection points: 2
#     Edge 14, Type (0, 1), BuildingBlock: XIVTED_clean_linker_0, # of connection points: 2
#     Edge 15, Type (0, 1), BuildingBlock: XIVTED_clean_linker_0, # of connection points: 2
#     Edge 16, Type (0, 1), BuildingBlock: XIVTED_clean_linker_0, # of connection points: 2
#     Edge 17, Type (0, 1), BuildingBlock: XIVTED_clean_linker_0, # of connection points: 2
#     Edge 18, Type (0, 1), BuildingBlock: XIVTED_clean_linker_0, # of connection points: 2
#     Edge 19, Type (0, 1), BuildingBlock: XIVTED_clean_linker_0, # of connection points: 2
#     Edge 20, Type (0, 1), BuildingBlock: XIVTED_clean_linker_0, # of connection points: 2
#     Edge 21, Type (0, 1), BuildingBlock: XIVTED_clean_linker_0, # of connection points: 2
#     Edge 22, Type (0, 1), BuildingBlock: XIVTED_clean_linker_0, # of connection points: 2
#     Edge 23, Type (0, 1), BuildingBlock: XIVTED_clean_linker_0, # of connection points: 2
#     Edge 24, Type (0, 1), BuildingBlock: XIVTED_clean_linker_0, # of connection points: 2
#     Edge 25, Type (0, 1), BuildingBlock: XIVTED_clean_linker_0, # of connection points: 2
#     Edge 26, Type (0, 1), BuildingBlock: XIVTED_clean_linker_0, # of connection points: 2
#     Edge 27, Type (0, 1), BuildingBlock: XIVTED_clean_linker_0, # of connection points: 2
#     Edge 28, Type (0, 1), BuildingBlock: XIVTED_clean_linker_0, # of connection points: 2
#     Edge 29, Type (0, 1), BuildingBlock: XIVTED_clean_linker_0, # of connection points: 2
#     Edge 30, Type (0, 1), BuildingBlock: XIVTED_clean_linker_0, # of connection points: 2
#     Edge 31, Type (0, 1), BuildingBlock: XIVTED_clean_linker_0, # of connection points: 2
#     Edge 32, Type (0, 1), BuildingBlock: XIVTED_clean_linker_0, # of connection points: 2
#     Edge 33, Type (0, 1), BuildingBlock: XIVTED_clean_linker_0, # of connection points: 2
#     Edge 34, Type (0, 1), BuildingBlock: XIVTED_clean_linker_0, # of connection points: 2
#     Edge 35, Type (0, 1), BuildingBlock: XIVTED_clean_linker_0, # of connection points: 2
# Relax obj value: 0.447
# Max RMSD: 0.274
# Mean RMSD: 0.256
data_MOF--net-zzz--node1-BETDAH_clean_sbu_0--node2-MIDCAF_clean_linker_0--edge1-XIVTED_clean_linker_0
_symmetry_space_group_name_H-M    P1
_symmetry_Int_Tables_number       1
_symmetry_cell_setting            triclinic
loop_
_symmetry_equiv_pos_as_xyz
'x, y, z'
_cell_length_a     59.209036
_cell_length_b     59.235781
_cell_length_c     18.085416
_cell_angle_alpha  89.974426
_cell_angle_beta   89.814832
_cell_angle_gamma 90.041835
loop_
_atom_site_label
_atom_site_type_symbol
_atom_site_fract_x
_atom_site_fract_y
_atom_site_fract_z
_atom_type_partial_charge
C0 C 0.80435 0.5315 0.4362 0.0
C1 C 0.80679 0.52442 0.5101 0.0
C2 C 0.78828 0.51385 0.54505 0.0
C3 C 0.76869 0.50866 0.50513 0.0
H4 H 0.67737 0.47709 0.34237 0.0
H5 H 0.64257 0.48294 0.27314 0.0
H6 H 0.67311 0.53994 0.16181 0.0
H7 H 0.70753 0.53455 0.2343 0.0
H8 H 0.73301 0.45364 0.16764 0.0
H9 H 0.75583 0.43071 0.08388 0.0
H10 H 0.80692 0.42435 0.25271 0.0
H11 H 0.7841 0.44672 0.33631 0.0
H12 H 0.78417 0.53026 0.33807 0.0
H13 H 0.81823 0.53939 0.40685 0.0
H14 H 0.78936 0.5085 0.60218 0.0
H15 H 0.75551 0.4988 0.53147 0.0
N16 N 0.73046 0.50953 0.36519 0.0
N17 N 0.72559 0.47855 0.2849 0.0
N18 N 0.75936 0.48272 0.34965 0.0
C19 C 0.71735 0.49756 0.31718 0.0
C20 C 0.74661 0.47101 0.30094 0.0
C21 C 0.75147 0.50173 0.38225 0.0
C22 C 0.69493 0.50548 0.29385 0.0
C23 C 0.67619 0.49145 0.30542 0.0
C24 C 0.6564 0.49465 0.26493 0.0
C25 C 0.65519 0.51156 0.21035 0.0
C26 C 0.67335 0.52681 0.20347 0.0
C27 C 0.69307 0.5238 0.24507 0.0
C28 C 0.75704 0.45249 0.25797 0.0
C29 C 0.74876 0.4467 0.18768 0.0
C30 C 0.76188 0.43364 0.13951 0.0
C31 C 0.78339 0.42606 0.16102 0.0
C32 C 0.79043 0.4298 0.23416 0.0
C33 C 0.77741 0.44289 0.28205 0.0
C34 C 0.76715 0.51423 0.42998 0.0
C35 C 0.78476 0.52638 0.39661 0.0
C36 C 0.99207 0.80248 0.41202 0.0
C37 C 0.9979 0.80207 0.48734 0.0
C38 C 1.00628 0.78176 0.51734 0.0
C39 C 1.01001 0.76282 0.47195 0.0
H40 H 0.05244 0.67699 0.32994 0.0
H41 H 0.0507 0.6391 0.2774 0.0
H42 H 0.98316 0.6526 0.19922 0.0
H43 H 0.98474 0.6901 0.2551 0.0
H44 H 0.08243 0.73118 0.1992 0.0
H45 H 0.10633 0.75184 0.11007 0.0
H46 H 0.0499 0.79505 0.05752 0.0
H47 H 0.02658 0.77515 0.14766 0.0
H48 H 0.99269 0.78522 0.3082 0.0
H49 H 0.98586 0.81778 0.3864 0.0
H50 H 0.01074 0.78075 0.57526 0.0
H51 H 0.01783 0.74793 0.49531 0.0
N52 N 0.01256 0.72478 0.34945 0.0
N53 N 0.03666 0.71951 0.2466 0.0
N54 N 0.02869 0.75595 0.2883 0.0
C55 C 0.02314 0.71074 0.30024 0.0
C56 C 0.03935 0.74208 0.2403 0.0
C57 C 0.01565 0.74759 0.34361 0.0
C58 C 0.01865 0.68631 0.29717 0.0
C59 C 0.0368 0.67133 0.30507 0.0
C60 C 0.0359 0.64976 0.27378 0.0
C61 C 0.01703 0.64296 0.23204 0.0
C62 C 0.99794 0.65714 0.231 0.0
C63 C 0.99876 0.67864 0.26342 0.0
C64 C 0.05285 0.75181 0.18009 0.0
C65 C 0.07518 0.74483 0.16724 0.0
C66 C 0.08876 0.75655 0.11652 0.0
C67 C 0.07982 0.7748 0.07659 0.0
C68 C 0.05707 0.78078 0.08667 0.0
C69 C 0.0438 0.76957 0.13859 0.0
C70 C 1.00562 0.764 0.39579 0.0
C71 C 0.99597 0.78376 0.36695 0.0
C72 C 0.71455 0.97976 0.40224 0.0
C73 C 0.71246 0.99033 0.47156 0.0
C74 C 0.73158 1.00153 0.50045 0.0
C75 C 0.7517 1.00322 0.45893 0.0
H76 H 0.83242 0.96906 0.32613 0.0
H77 H 0.87085 0.96229 0.28097 0.0
H78 H 0.87803 0.03344 0.23373 0.0
H79 H 0.83999 0.03998 0.27956 0.0
H80 H 0.7944 0.04638 0.1196 0.0
H81 H 0.77864 0.05608 0.99768 0.0
H82 H 0.73156 1.00065 0.01785 0.0
H83 H 0.74663 0.99155 0.1388 0.0
H84 H 0.73487 0.97419 0.30622 0.0
H85 H 0.70033 0.97126 0.37706 0.0
H86 H 0.73077 1.00963 0.55403 0.0
H87 H 0.76561 0.0131 0.48041 0.0
N88 N 0.79342 1.00051 0.35075 0.0
N89 N 0.80128 0.01398 0.23052 0.0
N90 N 0.76409 1.00662 0.26558 0.0
C91 C 0.80865 1.00741 0.29816 0.0
C92 C 0.77911 0.01347 0.21384 0.0
C93 C 0.77086 1.00051 0.33427 0.0
C94 C 0.8333 1.00505 0.30661 0.0
C95 C 0.84276 0.98337 0.31024 0.0
C96 C 0.86464 0.97947 0.28294 0.0
C97 C 0.8774 0.99722 0.25183 0.0
C98 C 0.86886 0.01932 0.25723 0.0
C99 C 0.84703 0.02315 0.28404 0.0
C100 C 0.77142 0.01846 0.13851 0.0
C101 C 0.78089 0.03619 0.097 0.0
C102 C 0.77203 0.04164 0.02749 0.0
C103 C 0.7542 0.02888 0.99805 0.0
C104 C 0.74564 0.01048 0.03843 0.0
C105 C 0.75401 1.00546 0.10816 0.0
C106 C 0.75298 0.99386 0.38769 0.0
C107 C 0.73445 0.9815 0.36115 0.0
C108 C 0.43242 0.72341 0.20662 0.0
C109 C 0.42483 0.73019 0.13639 0.0
C110 C 0.43048 0.75195 0.11109 0.0
C111 C 0.44532 0.76558 0.15149 0.0
H112 H 0.47234 0.83352 0.21989 0.0
H113 H 0.48125 0.86788 0.15276 0.0
H114 H 0.5521 0.85058 0.15694 0.0
H115 H 0.54303 0.81575 0.22444 0.0
H116 H 0.5177 0.76644 0.46591 0.0
H117 H 0.53108 0.73438 0.53963 0.0
H118 H 0.54316 0.69681 0.33844 0.0
H119 H 0.53035 0.7289 0.26621 0.0
H120 H 0.4538 0.73049 0.29844 0.0
H121 H 0.42864 0.70678 0.22814 0.0
H122 H 0.42457 0.7579 0.05791 0.0
H123 H 0.45061 0.78155 0.12803 0.0
N124 N 0.48073 0.79001 0.23115 0.0
N125 N 0.51471 0.78659 0.29784 0.0
N126 N 0.48874 0.7566 0.29412 0.0
C127 C 0.50054 0.79915 0.25466 0.0
C128 C 0.50854 0.76528 0.31816 0.0
C129 C 0.47467 0.76879 0.25089 0.0
C130 C 0.50695 0.82182 0.22694 0.0
C131 C 0.48988 0.83722 0.20782 0.0
C132 C 0.49504 0.85705 0.1697 0.0
C133 C 0.5174 0.86197 0.149 0.0
C134 C 0.53468 0.84716 0.17151 0.0
C135 C 0.52951 0.82733 0.21067 0.0
C136 C 0.52339 0.75018 0.36056 0.0
C137 C 0.52428 0.75168 0.43787 0.0
C138 C 0.53156 0.73315 0.47992 0.0
C139 C 0.53794 0.71278 0.44523 0.0
C140 C 0.53869 0.71216 0.36746 0.0
C141 C 0.5314 0.7306 0.32576 0.0
C142 C 0.45476 0.75762 0.2178 0.0
C143 C 0.44717 0.73697 0.24678 0.0
C144 C 0.23277 0.51524 0.92391 0.0
C145 C 0.22245 0.49418 0.91155 0.0
C146 C 0.23332 0.47462 0.93807 0.0
C147 C 0.25298 0.47628 0.98093 0.0
H148 H 0.34701 0.52077 0.06656 0.0
H149 H 0.38542 0.52065 0.11657 0.0
H150 H 0.36783 0.46395 0.25584 0.0
H151 H 0.32986 0.46406 0.20488 0.0
H152 H 0.29635 0.54431 0.27952 0.0
H153 H 0.27609 0.56321 0.38126 0.0
H154 H 0.21864 0.5198 0.34465 0.0
H155 H 0.23834 0.50167 0.24187 0.0
H156 H 0.25867 0.53346 0.98107 0.0
H157 H 0.22484 0.53068 0.90524 0.0
H158 H 0.22599 0.45811 0.9289 0.0
H159 H 0.25994 0.46115 1.00563 0.0
N160 N 0.29914 0.49452 0.06315 0.0
N161 N 0.30161 0.50673 0.18704 0.0
N162 N 0.26716 0.50884 0.12504 0.0
C163 C 0.31153 0.49782 0.12595 0.0
C164 C 0.27947 0.51216 0.18692 0.0
C165 C 0.27676 0.50019 0.06312 0.0
C166 C 0.33567 0.49222 0.13121 0.0
C167 C 0.35184 0.50757 0.10487 0.0
C168 C 0.3737 0.50771 0.13456 0.0
C169 C 0.37966 0.49255 0.19135 0.0
C170 C 0.36402 0.47577 0.21195 0.0
C171 C 0.34223 0.47572 0.1825 0.0
C172 C 0.26873 0.52173 0.25303 0.0
C173 C 0.27953 0.53867 0.29429 0.0
C174 C 0.26805 0.5494 0.35219 0.0
C175 C 0.24603 0.54269 0.37076 0.0
C176 C 0.23576 0.52498 0.33177 0.0
C177 C 0.24691 0.51477 0.2728 0.0
C178 C 0.26211 0.4975 0.99796 0.0
C179 C 0.25225 0.51687 0.96711 0.0
C180 C 0.01526 0.22646 0.94173 0.0
C181 C 0.03497 0.21316 0.9374 0.0
C182 C 0.05515 0.22215 0.96623 0.0
C183 C 0.05515 0.2427 1.00445 0.0
H184 H 0.06032 0.33875 0.09493 0.0
H185 H 0.06083 0.37671 0.14807 0.0
H186 H 0.99069 0.36935 0.20991 0.0
H187 H 0.99033 0.33172 0.15603 0.0
H188 H 0.01275 0.29417 0.32847 0.0
H189 H 1.00775 0.27538 0.44783 0.0
H190 H 0.04668 0.21867 0.3683 0.0
H191 H 0.05155 0.23722 0.24952 0.0
H192 H 0.99955 0.25609 0.98751 0.0
H193 H 0.99936 0.22014 0.9208 0.0
H194 H 0.0708 0.21277 0.96258 0.0
H195 H 0.07054 0.24819 0.03134 0.0
N196 N 0.03018 0.29406 0.06459 0.0
N197 N 0.02875 0.29882 0.19392 0.0
N198 N 0.03482 0.26297 0.14455 0.0
C199 C 0.02786 0.30776 0.12505 0.0
C200 C 0.03235 0.27655 0.2042 0.0
C201 C 0.03362 0.27142 0.07494 0.0
C202 C 0.02521 0.33244 0.12054 0.0
C203 C 0.04469 0.34586 0.11572 0.0
C204 C 0.04506 0.36744 0.14759 0.0
C205 C 0.02595 0.37593 0.18499 0.0
C206 C 1.00571 0.36351 0.18151 0.0
C207 C 1.00541 0.34194 0.14995 0.0
C208 C 0.03223 0.26695 0.27936 0.0
C209 C 0.02067 0.27791 0.33717 0.0
C210 C 0.01782 0.26723 0.40545 0.0
C211 C 0.02685 0.24564 0.41731 0.0
C212 C 0.03979 0.23546 0.36118 0.0
C213 C 0.04233 0.24595 0.29274 0.0
C214 C 0.03514 0.25508 0.01344 0.0
C215 C 0.01535 0.2472 0.97948 0.0
C216 C 0.28634 0.01064 0.94581 0.0
C217 C 0.29834 0.02757 0.9074 0.0
C218 C 0.28918 0.04945 0.90518 0.0
C219 C 0.26958 0.05469 0.94508 0.0
H220 H 0.16631 0.05624 0.08818 0.0
H221 H 0.13217 0.04502 0.15519 0.0
H222 H 0.17009 0.9924 0.26473 0.0
H223 H 0.20359 1.00311 0.19477 0.0
H224 H 0.22201 0.07195 0.29618 0.0
H225 H 0.24631 0.07884 0.40197 0.0
H226 H 0.30072 0.09737 0.25411 0.0
H227 H 0.27645 0.09104 0.14902 0.0
H228 H 0.25834 1.00282 0.01764 0.0
H229 H 0.29287 0.99358 0.94825 0.0
H230 H 0.29803 0.06294 0.87682 0.0
H231 H 0.26393 0.07208 0.9468 0.0
N232 N 0.22198 0.03479 0.05726 0.0
N233 N 0.21658 0.05721 0.16349 0.0
N234 N 0.24945 0.06128 0.09333 0.0
C235 C 0.20881 0.0414 0.11567 0.0
C236 C 0.2369 0.06721 0.15299 0.0
C237 C 0.24224 0.04531 0.04514 0.0
C238 C 0.18738 0.03016 0.13502 0.0
C239 C 0.16691 0.04158 0.12397 0.0
C240 C 0.14748 0.0354 0.1637 0.0
C241 C 0.14823 0.01799 0.21683 0.0
C242 C 0.16851 1.00567 0.22394 0.0
C243 C 0.18781 0.0117 0.18349 0.0
C244 C 0.24766 0.0799 0.21401 0.0
C245 C 0.23885 0.07844 0.28622 0.0
C246 C 0.25281 0.08233 0.34707 0.0
C247 C 0.27571 0.08775 0.33649 0.0
C248 C 0.28326 0.09296 0.26463 0.0
C249 C 0.26933 0.0891 0.20391 0.0
C250 C 0.25832 0.0381 0.98684 0.0
C251 C 0.2664 0.01582 0.98469 0.0
C252 C 0.4281 0.30105 0.24304 0.0
C253 C 0.43543 0.29574 0.31498 0.0
C254 C 0.44078 0.27313 0.3313 0.0
C255 C 0.44231 0.25715 0.27455 0.0
H256 H 0.50773 0.20114 0.13424 0.0
H257 H 0.51409 0.16618 0.2039 0.0
H258 H 0.44456 0.14704 0.16857 0.0
H259 H 0.43831 0.18204 0.1004 0.0
H260 H 0.43771 0.27297 0.93202 0.0
H261 H 0.44712 0.30654 0.86034 0.0
H262 H 0.51794 0.29515 0.90166 0.0
H263 H 0.50836 0.26122 0.97372 0.0
H264 H 0.42569 0.2904 0.13076 0.0
H265 H 0.42368 0.31813 0.22762 0.0
H266 H 0.44575 0.26823 0.38659 0.0
H267 H 0.44873 0.2405 0.28758 0.0
N268 N 0.45426 0.22859 0.14892 0.0
N269 N 0.47276 0.22878 0.033 0.0
N270 N 0.45338 0.26091 0.07559 0.0
C271 C 0.4664 0.21766 0.09611 0.0
C272 C 0.46575 0.25053 0.02247 0.0
C273 C 0.44771 0.25024 0.13907 0.0
C274 C 0.47262 0.19406 0.11128 0.0
C275 C 0.49419 0.18889 0.13841 0.0
C276 C 0.49774 0.16894 0.17875 0.0
C277 C 0.4797 0.15403 0.19296 0.0
C278 C 0.45871 0.15835 0.15972 0.0
C279 C 0.45519 0.17821 0.11974 0.0
C280 C 0.4723 0.26441 0.95795 0.0
C281 C 0.45535 0.27704 0.92297 0.0
C282 C 0.46073 0.29644 0.88274 0.0
C283 C 0.48323 0.30377 0.87669 0.0
C284 C 0.50044 0.28991 0.90532 0.0
C285 C 0.495 0.27036 0.94595 0.0
C286 C 0.43833 0.26358 0.20092 0.0
C287 C 0.42948 0.28511 0.18672 0.0
Ho288 Ho 0.03368 0.99694 0.80347 0.0
Ho289 Ho 0.99596 1.01015 0.68775 0.0
C290 C 1.01027 0.95853 0.69732 0.0
C291 C 0.05458 0.98167 0.91727 0.0
C292 C 0.07091 0.96319 0.92405 0.0
C293 C 0.0734 0.9519 0.99149 0.0
C294 C 0.08614 0.93208 0.99514 0.0
C295 C 0.09652 0.92323 0.93119 0.0
C296 C 0.09504 0.9354 0.86468 0.0
C297 C 0.08225 0.95513 0.86108 0.0
C298 C 0.05187 1.00153 0.66527 0.0
C299 C 0.02151 0.04953 0.78364 0.0
C300 C 0.97287 0.03081 0.58907 0.0
C301 C 0.97365 0.05518 0.5718 0.0
C302 C 0.99295 0.06459 0.53844 0.0
C303 C 0.99656 0.08781 0.54033 0.0
C304 C 0.98094 0.10212 0.57532 0.0
C305 C 0.96073 0.09299 0.60301 0.0
C306 C 0.9571 0.06969 0.60111 0.0
C307 C 0.98165 0.99545 0.82144 0.0
O308 O 0.0209 0.96323 0.76023 0.0
O309 O 1.00146 0.97435 0.65439 0.0
O310 O 0.06153 0.99934 0.87976 0.0
O311 O 0.03407 0.97529 0.89948 0.0
O312 O 0.0633 0.99548 0.72284 0.0
O313 O 0.03192 1.0046 0.68639 0.0
O314 O 1.00927 0.04406 0.72508 0.0
O315 O 0.03106 0.03414 0.82657 0.0
O316 O 0.96476 0.02595 0.65463 0.0
O317 O 0.99104 0.01908 0.57298 0.0
O318 O 0.97163 0.99083 0.75944 0.0
O319 O 0.99829 1.00832 0.8095 0.0
H320 H 0.06461 0.9578 0.04044 0.0
H321 H 0.08662 0.92296 0.04702 0.0
H322 H 0.10298 0.92916 0.81469 0.0
H323 H 0.08043 0.96354 0.80831 0.0
H324 H 1.00596 0.05398 0.51456 0.0
H325 H 0.01197 0.0945 0.51637 0.0
H326 H 0.94832 0.10368 0.62976 0.0
H327 H 0.94201 0.06292 0.62694 0.0
Ho328 Ho 0.5114 0.02597 0.74379 0.0
Ho329 Ho 0.49792 0.99569 0.61757 0.0
C330 C 0.55004 1.00453 0.63151 0.0
C331 C 0.53342 0.04272 0.85302 0.0
C332 C 0.558 0.04151 0.86356 0.0
C333 C 0.56959 0.02188 0.8425 0.0
C334 C 0.59296 0.02194 0.83563 0.0
C335 C 0.60558 0.04143 0.85214 0.0
C336 C 0.59395 0.06072 0.8777 0.0
C337 C 0.57034 0.06083 0.8824 0.0
C338 C 0.49745 0.04778 0.62145 0.0
C339 C 0.45963 0.0163 0.73098 0.0
C340 C 0.47559 0.98032 0.5072 0.0
C341 C 0.45185 0.98571 0.48945 0.0
C342 C 0.44719 1.00033 0.43039 0.0
C343 C 0.4263 0.01115 0.42594 0.0
C344 C 0.40965 1.00743 0.48023 0.0
C345 C 0.4135 0.99106 0.53491 0.0
C346 C 0.43443 0.98036 0.53968 0.0
C347 C 0.51222 0.97371 0.73913 0.0
O348 O 0.54487 0.01408 0.69561 0.0
O349 O 0.53431 0.99726 0.58574 0.0
O350 O 0.52713 0.05481 0.79622 0.0
O351 O 0.52261 0.02347 0.85717 0.0
O352 O 0.49269 0.05435 0.68825 0.0
O353 O 0.50997 0.03058 0.62318 0.0
O354 O 0.46469 1.00952 0.66305 0.0
O355 O 0.47557 0.02136 0.779 0.0
O356 O 0.47897 0.9685 0.56735 0.0
O357 O 0.48953 0.99742 0.50151 0.0
O358 O 0.51605 0.96678 0.67212 0.0
O359 O 0.49974 0.99095 0.7379 0.0
H360 H 0.56053 1.00667 0.82743 0.0
H361 H 0.60087 1.00683 0.81429 0.0
H362 H 0.60296 0.07588 0.89331 0.0
H363 H 0.56171 0.0762 0.89844 0.0
H364 H 0.46024 1.00466 0.39069 0.0
H365 H 0.42354 0.02313 0.38163 0.0
H366 H 0.40099 0.98771 0.57732 0.0
H367 H 0.43739 0.96915 0.58598 0.0
Ho368 Ho 0.50519 0.5183 0.74277 0.0
Ho369 Ho 0.53751 0.50183 0.62931 0.0
C370 C 0.53122 0.55623 0.65237 0.0
C371 C 0.47974 0.52883 0.85371 0.0
C372 C 0.46651 0.54912 0.87139 0.0
C373 C 0.4741 0.57052 0.84925 0.0
C374 C 0.46127 0.58969 0.86471 0.0
C375 C 0.44041 0.58787 0.90186 0.0
C376 C 0.43267 0.5663 0.92267 0.0
C377 C 0.44564 0.54709 0.90758 0.0
C378 C 0.48835 0.51575 0.60417 0.0
C379 C 0.51251 0.46479 0.72245 0.0
C380 C 0.55555 0.48918 0.5071 0.0
C381 C 0.54766 0.46974 0.46279 0.0
C382 C 0.52739 0.47142 0.42289 0.0
C383 C 0.51514 0.4521 0.40508 0.0
C384 C 0.52311 0.43062 0.42532 0.0
C385 C 0.54486 0.42886 0.45597 0.0
C386 C 0.55702 0.44825 0.47463 0.0
C387 C 0.55533 0.5041 0.76622 0.0
O388 O 0.51869 0.55222 0.71146 0.0
O389 O 0.53947 0.53963 0.61132 0.0
O390 O 0.47257 0.51731 0.79692 0.0
O391 O 0.50174 0.53112 0.85412 0.0
O392 O 0.4844 0.53226 0.64925 0.0
O393 O 0.50063 0.50123 0.63511 0.0
O394 O 0.51968 0.46944 0.65511 0.0
O395 O 0.50916 0.48121 0.77075 0.0
O396 O 0.5642 0.48408 0.57151 0.0
O397 O 0.54155 0.50624 0.51137 0.0
O398 O 0.56052 0.48885 0.71782 0.0
O399 O 0.54233 0.51852 0.73787 0.0
H400 H 0.49004 0.57248 0.8204 0.0
H401 H 0.46805 0.606 0.84911 0.0
H402 H 0.41659 0.56422 0.9506 0.0
H403 H 0.43936 0.53065 0.92405 0.0
H404 H 0.51984 0.4877 0.41144 0.0
H405 H 0.49864 0.45428 0.38071 0.0
H406 H 0.55202 0.41255 0.46931 0.0
H407 H 0.57284 0.44638 0.50393 0.0
Ho408 Ho 1.00888 0.4889 0.76755 0.0
Ho409 Ho 0.0204 0.52635 0.64898 0.0
C410 C 0.96809 0.51375 0.67515 0.0
C411 C 0.99249 0.46478 0.87393 0.0
C412 C 0.97057 0.45398 0.88747 0.0
C413 C 0.9553 0.45061 0.82935 0.0
C414 C 0.93411 0.44109 0.84318 0.0
C415 C 0.92783 0.43485 0.91545 0.0
C416 C 0.94342 0.43795 0.97322 0.0
C417 C 0.96462 0.44744 0.95925 0.0
C418 C 0.02047 0.47434 0.63096 0.0
C419 C 0.06008 0.5041 0.75006 0.0
C420 C 0.03579 0.54647 0.53379 0.0
C421 C 0.05616 0.56049 0.52874 0.0
C422 C 0.0681 0.56216 0.46204 0.0
C423 C 0.09 0.57104 0.46139 0.0
C424 C 0.10024 0.57811 0.52767 0.0
C425 C 0.08757 0.57789 0.5933 0.0
C426 C 0.06575 0.56909 0.59383 0.0
C427 C 0.0191 0.54466 0.7873 0.0
O428 O 0.97418 0.49954 0.72837 0.0
O429 O 0.98288 0.52506 0.6343 0.0
O430 O 1.00428 0.45639 0.81925 0.0
O431 O 0.99247 0.48687 0.87445 0.0
O432 O 0.02608 0.4642 0.69178 0.0
O433 O 1.00821 0.4912 0.64537 0.0
O434 O 0.05449 0.51315 0.68551 0.0
O435 O 0.04473 0.49655 0.79745 0.0
O436 O 0.01929 0.55476 0.57406 0.0
O437 O 0.0399 0.52514 0.54807 0.0
O438 O 0.02352 0.55605 0.72796 0.0
O439 O 0.01565 0.52463 0.76813 0.0
H440 H 0.95969 0.45552 0.77341 0.0
H441 H 0.9226 0.43877 0.79739 0.0
H442 H 0.93901 0.43375 0.02973 0.0
H443 H 0.97621 0.45002 1.00472 0.0
H444 H 0.06107 0.55534 0.41151 0.0
H445 H 0.09949 0.57074 0.4101 0.0
H446 H 0.09499 0.58332 0.645 0.0
H447 H 0.05696 0.56774 0.64613 0.0
H448 H 0.11843 0.04933 0.27492 0.0
H449 H 0.08287 0.97291 0.60973 0.0
H450 H 0.13408 0.97813 0.2822 0.0
H451 H 0.04234 0.03037 0.5493 0.0
H452 H 0.10236 0.97522 0.49083 0.0
H453 H 0.09075 0.04368 0.3736 0.0
C454 C 0.11583 0.0324 0.29583 0.0
C455 C 0.12903 0.01423 0.26996 0.0
C456 C 0.089 0.98715 0.50278 0.0
C457 C 0.09758 1.0079 0.38528 0.0
C458 C 0.07788 0.98587 0.57072 0.0
C459 C 0.06097 1.00145 0.58908 0.0
C460 C 0.0837 1.0046 0.45332 0.0
C461 C 0.05519 0.01794 0.53676 0.0
C462 C 0.10003 0.02927 0.35274 0.0
C463 C 0.12492 0.99283 0.30113 0.0
N464 N 0.06685 0.01937 0.47157 0.0
N465 N 0.10988 0.99037 0.35767 0.0
H466 H 0.51438 0.1235 0.21446 0.0
H467 H 0.46733 0.08213 0.60533 0.0
H468 H 0.44983 0.14392 0.30321 0.0
H469 H 0.51809 0.04469 0.48587 0.0
H470 H 0.46214 0.10637 0.49707 0.0
H471 H 0.51781 0.09587 0.31546 0.0
C472 C 0.50089 0.12207 0.25477 0.0
C473 C 0.48172 0.13595 0.24994 0.0
C474 C 0.47433 0.09278 0.49426 0.0
C475 C 0.48564 0.10467 0.36588 0.0
C476 C 0.47731 0.07898 0.5561 0.0
C477 C 0.49321 0.06148 0.55455 0.0
C478 C 0.48761 0.08932 0.43069 0.0
C479 C 0.50565 0.05805 0.48925 0.0
C480 C 0.50281 0.10627 0.31217 0.0
C481 C 0.46474 0.13336 0.30382 0.0
N482 N 0.50278 0.072 0.43011 0.0
N483 N 0.46719 0.11822 0.35965 0.0
H484 H 0.39752 0.53281 0.2374 0.0
H485 H 0.48397 0.47674 0.52368 0.0
H486 H 0.40843 0.46091 0.25243 0.0
H487 H 0.46467 0.5469 0.52562 0.0
H488 H 0.46077 0.47109 0.41282 0.0
H489 H 0.42706 0.53871 0.32874 0.0
C490 C 0.40646 0.51824 0.25851 0.0
C491 C 0.40029 0.49628 0.23709 0.0
C492 C 0.46183 0.48776 0.43703 0.0
C493 C 0.43395 0.50298 0.34394 0.0
C494 C 0.47507 0.491 0.50019 0.0
C495 C 0.47609 0.5123 0.53397 0.0
C496 C 0.44973 0.50602 0.40716 0.0
C497 C 0.4642 0.53017 0.50154 0.0
C498 C 0.4232 0.52164 0.31155 0.0
C499 C 0.41233 0.47812 0.26793 0.0
N500 N 0.45148 0.52663 0.44016 0.0
N501 N 0.42843 0.48185 0.32018 0.0
H502 H 0.06082 0.38496 0.27932 0.0
H503 H 0.99724 0.48321 0.5025 0.0
H504 H 0.99546 0.41027 0.21452 0.0
H505 H 0.05064 0.44201 0.59147 0.0
H506 H 1.00039 0.46256 0.38468 0.0
H507 H 0.06159 0.41221 0.38002 0.0
C508 C 0.04683 0.3966 0.28496 0.0
C509 C 0.02801 0.39519 0.238 0.0
C510 C 0.01154 0.45824 0.42985 0.0
C511 C 0.02861 0.4263 0.35524 0.0
C512 C 1.00982 0.47005 0.49686 0.0
C513 C 0.0236 0.46416 0.55688 0.0
C514 C 0.02739 0.44068 0.42271 0.0
C515 C 0.03958 0.44697 0.54677 0.0
C516 C 0.04718 0.41202 0.34328 0.0
C517 C 1.01022 0.41055 0.24969 0.0
N518 N 0.041 0.43584 0.48121 0.0
N519 N 0.01088 0.42536 0.30737 0.0
H520 H 0.88266 0.96257 0.15307 0.0
H521 H 0.99099 0.01658 0.95332 0.0
H522 H 0.91698 0.02168 0.23564 0.0
H523 H 0.94717 0.96687 0.85499 0.0
H524 H 0.96891 0.014 0.06846 0.0
H525 H 0.91135 0.95895 0.05706 0.0
C526 C 0.89653 0.9745 0.15239 0.0
C527 C 0.89722 0.99256 0.20274 0.0
C528 C 0.96431 1.00348 0.02193 0.0
C529 C 0.93002 0.98878 0.09075 0.0
C530 C 0.97695 1.00488 0.95637 0.0
C531 C 0.97073 0.99207 0.89439 0.0
C532 C 0.9455 0.989 0.02557 0.0
C533 C 0.95241 0.97719 0.90127 0.0
C534 C 0.9128 0.97256 0.09671 0.0
C535 C 0.91551 1.00768 0.19753 0.0
N536 N 0.94039 0.97616 0.96537 0.0
N537 N 0.93105 1.00559 0.14215 0.0
H538 H 0.54538 0.86284 0.02791 0.0
H539 H 0.49748 0.98102 0.88086 0.0
H540 H 0.49942 0.90477 0.15237 0.0
H541 H 0.5376 0.93544 0.74903 0.0
H542 H 0.50275 0.9562 0.98791 0.0
H543 H 0.54787 0.89229 0.93356 0.0
C544 C 0.53617 0.87843 0.03625 0.0
C545 C 0.52199 0.88121 0.09797 0.0
C546 C 0.51056 0.95172 0.93575 0.0
C547 C 0.52442 0.91489 0.98913 0.0
C548 C 0.50758 0.9659 0.8747 0.0
C549 C 0.51691 0.96012 0.80589 0.0
C550 C 0.52299 0.93163 0.9279 0.0
C551 C 0.52992 0.94039 0.80096 0.0
C552 C 0.53743 0.89517 0.9819 0.0
C553 C 0.51025 0.90172 0.10511 0.0
N554 N 0.53244 0.92678 0.86095 0.0
N555 N 0.51156 0.91766 0.05109 0.0
H556 H 0.63572 0.47446 0.14752 0.0
H557 H 0.55844 0.5412 0.85799 0.0
H558 H 0.6331 0.54731 0.14262 0.0
H559 H 0.57827 0.47143 0.83806 0.0
H560 H 0.58029 0.54377 0.97367 0.0
H561 H 0.60863 0.47315 0.04744 0.0
C562 C 0.62914 0.49026 0.12653 0.0
C563 C 0.63676 0.51106 0.15421 0.0
C564 C 0.5797 0.52791 0.94399 0.0
C565 C 0.6059 0.50959 0.03688 0.0
C566 C 0.56722 0.52642 0.87832 0.0
C567 C 0.56676 0.50612 0.83834 0.0
C568 C 0.59141 0.50885 0.96994 0.0
C569 C 0.57836 0.48746 0.86685 0.0
C570 C 0.6138 0.48946 0.06846 0.0
C571 C 0.62789 0.53089 0.12272 0.0
N572 N 0.59017 0.48928 0.93069 0.0
N573 N 0.61299 0.52968 0.06547 0.0
H574 H 0.05371 0.63041 0.14994 0.0
H575 H 0.99342 0.53413 0.9109 0.0
H576 H 0.98438 0.61152 0.19199 0.0
H577 H 0.04708 0.57735 0.83337 0.0
H578 H 0.99362 0.5547 0.03011 0.0
H579 H 0.05551 0.60251 0.05195 0.0
C580 C 0.03896 0.62004 0.14003 0.0
C581 C 0.01883 0.62347 0.17983 0.0
C582 C 1.00549 0.5594 0.98707 0.0
C583 C 0.02072 0.59158 0.06515 0.0
C584 C 1.00549 0.5476 0.91959 0.0
C585 C 0.02025 0.55415 0.8626 0.0
C586 C 0.02073 0.57736 0.99747 0.0
C587 C 0.03537 0.57187 0.87587 0.0
C588 C 0.03996 0.60424 0.08317 0.0
C589 C 1.00018 0.60969 0.16236 0.0
N590 N 0.03525 0.58278 0.94174 0.0
N591 N 1.00151 0.59443 0.10594 0.0
H592 H 0.98426 0.24013 0.47187 0.0
H593 H 0.021 0.12062 0.61811 0.0
H594 H 0.05319 0.21925 0.50656 0.0
H595 H 0.95306 0.13864 0.55595 0.0
H596 H 0.03124 0.16048 0.61819 0.0
H597 H 0.97138 0.20813 0.54572 0.0
C598 C 0.99674 0.2293 0.49744 0.0
C599 C 0.0198 0.2319 0.4815 0.0
C600 C 0.01401 0.15578 0.60552 0.0
C601 C 1.00517 0.195 0.56401 0.0
C602 C 1.0082 0.13302 0.60474 0.0
C603 C 0.98633 0.12633 0.58474 0.0
C604 C 0.99795 0.17194 0.58459 0.0
C605 C 0.9702 0.14308 0.57068 0.0
C606 C 0.98935 0.21089 0.53903 0.0
C607 C 0.03522 0.21741 0.51603 0.0
N608 N 0.97646 0.16514 0.56933 0.0
N609 N 0.0276 0.19923 0.55428 0.0
H610 H 0.31519 0.11014 0.37103 0.0
H611 H 0.36614 0.99459 0.51333 0.0
H612 H 0.27538 0.0518 0.43101 0.0
H613 H 0.40631 0.05282 0.45496 0.0
H614 H 0.33234 0.01814 0.51015 0.0
H615 H 0.34788 0.09289 0.43079 0.0
C616 C 0.31314 0.09402 0.39856 0.0
C617 C 0.29265 0.08216 0.39407 0.0
C618 C 0.34857 0.02583 0.49869 0.0
C619 C 0.32999 0.06218 0.46149 0.0
C620 C 0.36788 0.01236 0.50042 0.0
C621 C 0.38901 0.0216 0.48235 0.0
C622 C 0.35038 0.04867 0.47828 0.0
C623 C 0.39026 0.04479 0.46657 0.0
C624 C 0.33183 0.08412 0.43245 0.0
C625 C 0.29083 0.06157 0.43229 0.0
N626 N 0.37118 0.05745 0.46394 0.0
N627 N 0.3094 0.05199 0.46277 0.0
H628 H 0.47193 0.2969 0.40846 0.0
H629 H 0.49025 0.42139 0.32193 0.0
H630 H 0.41583 0.3377 0.3346 0.0
H631 H 0.52081 0.39421 0.5198 0.0
H632 H 0.4641 0.38966 0.32098 0.0
H633 H 0.49054 0.33082 0.45278 0.0
C634 C 0.46304 0.31279 0.40368 0.0
C635 C 0.44249 0.31439 0.36508 0.0
C636 C 0.47643 0.39084 0.36494 0.0
C637 C 0.4644 0.35334 0.41314 0.0
C638 C 0.49146 0.40892 0.36549 0.0
C639 C 0.50798 0.41059 0.42082 0.0
C640 C 0.47823 0.37394 0.41885 0.0
C641 C 0.50886 0.39344 0.47475 0.0
C642 C 0.4739 0.33223 0.4285 0.0
C643 C 0.43209 0.33568 0.36095 0.0
N644 N 0.49439 0.37565 0.47181 0.0
N645 N 0.44351 0.35445 0.38224 0.0
H646 H 0.23331 0.58651 0.36011 0.0
H647 H 0.13009 0.56125 0.62779 0.0
H648 H 0.2265 0.52752 0.49783 0.0
H649 H 0.12659 0.60299 0.43247 0.0
H650 H 0.17111 0.5602 0.61561 0.0
H651 H 0.20065 0.60338 0.42296 0.0
C652 C 0.22549 0.57757 0.40579 0.0
C653 C 0.23226 0.55558 0.42366 0.0
C654 C 0.1614 0.5701 0.57664 0.0
C655 C 0.19506 0.57446 0.4945 0.0
C656 C 0.13799 0.57083 0.58368 0.0
C657 C 0.12492 0.58196 0.53023 0.0
C658 C 0.17177 0.58052 0.51574 0.0
C659 C 0.13607 0.59386 0.47392 0.0
C660 C 0.20681 0.58709 0.44112 0.0
C661 C 0.22155 0.54448 0.48243 0.0
N662 N 0.15889 0.59254 0.46741 0.0
N663 N 0.20319 0.5539 0.51511 0.0
H664 H 0.11773 0.7966 0.12219 0.0
H665 H 0.09139 0.89043 0.82614 0.0
H666 H 0.07412 0.78847 0.93378 0.0
H667 H 0.12237 0.90272 0.03814 0.0
H668 H 0.09851 0.85026 0.8412 0.0
H669 H 0.13274 0.83131 0.06732 0.0
C670 C 0.11203 0.80163 0.06775 0.0
C671 C 0.09439 0.79002 0.03288 0.0
C672 C 0.10426 0.86178 0.88366 0.0
C673 C 0.11101 0.82976 0.97089 0.0
C674 C 0.10033 0.88481 0.87494 0.0
C675 C 0.10581 0.89996 0.93189 0.0
C676 C 0.11348 0.8538 0.95007 0.0
C677 C 0.11726 0.89155 0.99389 0.0
C678 C 0.12044 0.82154 0.0368 0.0
C679 C 0.08748 0.79724 0.96275 0.0
N680 N 0.1203 0.86896 1.00207 0.0
N681 N 0.09546 0.81694 0.93468 0.0
H682 H 0.73611 0.07033 0.9719 0.0
H683 H 0.63477 1.00538 0.86381 0.0
H684 H 0.74259 1.0039 0.87721 0.0
H685 H 0.63425 0.07721 0.8197 0.0
H686 H 0.67531 1.00563 0.85529 0.0
H687 H 0.70183 0.07621 0.89964 0.0
C688 C 0.73097 0.05744 0.93294 0.0
C689 C 0.74162 0.03631 0.93214 0.0
C690 C 0.66633 0.0213 0.8459 0.0
C691 C 0.7023 0.0426 0.85177 0.0
C692 C 0.64294 0.02121 0.8507 0.0
C693 C 0.63064 0.04137 0.84318 0.0
C694 C 0.67785 0.04177 0.83656 0.0
C695 C 0.64283 0.06134 0.82853 0.0
C696 C 0.71129 0.06074 0.89204 0.0
C697 C 0.73436 0.02019 0.88071 0.0
N698 N 0.66581 0.06114 0.8276 0.0
N699 N 0.71462 0.02334 0.84438 0.0
H700 H 0.43277 0.72499 0.98791 0.0
H701 H 0.41676 0.59606 0.03003 0.0
H702 H 0.39511 0.69559 0.16884 0.0
H703 H 0.43523 0.62717 0.82241 0.0
H704 H 0.40242 0.63224 0.07306 0.0
H705 H 0.42695 0.69077 0.91683 0.0
C706 C 0.4226 0.71169 0.01207 0.0
C707 C 0.41505 0.713 0.08569 0.0
C708 C 0.40919 0.63109 0.01748 0.0
C709 C 0.40908 0.67324 1.00503 0.0
C710 C 0.41735 0.61034 0.99267 0.0
C711 C 0.42781 0.60861 0.92309 0.0
C712 C 0.41184 0.65036 0.97301 0.0
C713 C 0.42808 0.62784 0.87753 0.0
C714 C 0.41945 0.69195 0.97142 0.0
C715 C 0.40202 0.69502 0.11338 0.0
N716 N 0.4207 0.64801 0.90386 0.0
N717 N 0.4 0.67563 0.07387 0.0
H718 H 0.81538 0.39253 0.17395 0.0
H719 H 0.88795 0.44968 0.85621 0.0
H720 H 0.79016 0.44259 0.02167 0.0
H721 H 0.91467 0.40154 0.01241 0.0
H722 H 0.84988 0.44014 0.89688 0.0
H723 H 0.84906 0.38838 0.09662 0.0
C724 C 0.81667 0.40226 0.1234 0.0
C725 C 0.80013 0.4183 0.10525 0.0
C726 C 0.86404 0.43139 0.92157 0.0
C727 C 0.83867 0.41378 0.01689 0.0
C728 C 0.88583 0.43675 0.89802 0.0
C729 C 0.90462 0.4267 0.93187 0.0
C730 C 0.86095 0.41602 0.97991 0.0
C731 C 0.90072 0.41018 0.9862 0.0
C732 C 0.83591 0.3999 0.07928 0.0
C733 C 0.80246 0.43008 0.03823 0.0
N734 N 0.87935 0.40561 0.00932 0.0
N735 N 0.82159 0.42792 0.99733 0.0
H736 H 0.05752 0.17632 0.9923 0.0
H737 H 0.99879 0.08586 0.72505 0.0
H738 H 1.01003 0.1949 0.82217 0.0
H739 H 0.04952 0.06899 0.88674 0.0
H740 H 1.0022 0.12562 0.76017 0.0
H741 H 0.05493 0.13717 0.95272 0.0
C742 C 0.04677 0.17231 0.94581 0.0
C743 C 0.03413 0.18923 0.91031 0.0
C744 C 0.01277 0.11325 0.78727 0.0
C745 C 0.03066 0.14379 0.86556 0.0
C746 C 0.01081 0.09048 0.76742 0.0
C747 C 0.02392 0.0739 0.80284 0.0
C748 C 0.02815 0.11969 0.84238 0.0
C749 C 0.03903 0.08105 0.85785 0.0
C750 C 0.04514 0.14978 0.92365 0.0
C751 C 0.01999 0.18256 0.85176 0.0
N752 N 0.04074 0.10333 0.87572 0.0
N753 N 0.01863 0.16042 0.83134 0.0
H754 H 0.3334 1.00508 0.97269 0.0
H755 H 0.42256 0.02464 0.64438 0.0
H756 H 0.31615 0.0409 0.77306 0.0
H757 H 0.44184 0.01142 0.86987 0.0
H758 H 0.38276 0.02567 0.68333 0.0
H759 H 0.37232 1.00167 0.92802 0.0
C760 C 0.33769 0.0119 0.91887 0.0
C761 C 0.3214 0.02327 0.87659 0.0
C762 C 0.3957 0.02254 0.72424 0.0
C763 C 0.36615 0.0196 0.82526 0.0
C764 C 0.4184 0.0218 0.70196 0.0
C765 C 0.43554 0.01779 0.75384 0.0
C766 C 0.39007 0.01895 0.79893 0.0
C767 C 0.42921 0.01467 0.82804 0.0
C768 C 0.36 1.01015 0.89373 0.0
C769 C 0.32815 0.03211 0.80772 0.0
N770 N 0.40703 0.01516 0.84822 0.0
N771 N 0.34996 0.03006 0.78417 0.0
H772 H 0.51571 0.3182 0.77682 0.0
H773 H 0.49039 0.44918 0.84544 0.0
H774 H 0.46208 0.34259 0.91742 0.0
H775 H 0.52495 0.42596 0.64923 0.0
H776 H 0.48364 0.40994 0.88097 0.0
H777 H 0.5231 0.35737 0.73706 0.0
C778 C 0.5055 0.33176 0.79916 0.0
C779 C 0.4881 0.32709 0.84988 0.0
C780 C 0.49268 0.41342 0.83007 0.0
C781 C 0.49665 0.37179 0.80581 0.0
C782 C 0.4966 0.43585 0.80982 0.0
C783 C 0.50823 0.44095 0.74418 0.0
C784 C 0.5007 0.39581 0.78504 0.0
C785 C 0.51584 0.42285 0.70024 0.0
C786 C 0.50966 0.35405 0.77634 0.0
C787 C 0.47541 0.34533 0.87729 0.0
N788 N 0.51205 0.40109 0.72163 0.0
N789 N 0.48001 0.36678 0.85531 0.0
H790 H 0.18687 0.46784 0.95651 0.0
H791 H 0.09679 0.52321 0.68003 0.0
H792 H 0.20468 0.51858 0.79517 0.0
H793 H 0.07899 0.48031 0.8643 0.0
H794 H 0.13668 0.51941 0.71347 0.0
H795 H 0.14787 0.46926 0.91371 0.0
C796 C 0.18271 0.47901 0.91114 0.0
C797 C 0.19923 0.49309 0.87947 0.0
C798 C 0.12404 0.5108 0.74646 0.0
C799 C 0.1542 0.49515 0.83099 0.0
C800 C 0.10123 0.51294 0.72738 0.0
C801 C 0.0844 0.50208 0.76945 0.0
C802 C 0.13016 0.49756 0.80774 0.0
C803 C 0.09127 0.48908 0.83035 0.0
C804 C 0.16031 0.48 0.88725 0.0
C805 C 0.19254 0.50756 0.8218 0.0
N806 N 0.11355 0.48717 0.84748 0.0
N807 N 0.17057 0.50825 0.79959 0.0
H808 H 0.96574 0.83556 0.48429 0.0
H809 H 0.03311 0.92102 0.7479 0.0
H810 H 0.02853 0.81776 0.58986 0.0
H811 H 0.98129 0.94127 0.59423 0.0
H812 H 0.02864 0.88182 0.70596 0.0
H813 H 0.96787 0.87286 0.54111 0.0
C814 C 0.97993 0.8394 0.5198 0.0
C815 C 0.99713 0.82345 0.53132 0.0
C816 C 0.01823 0.89487 0.68171 0.0
C817 C 0.99959 0.86636 0.59726 0.0
C818 C 0.02073 0.91725 0.70568 0.0
C819 C 1.00765 0.93456 0.67431 0.0
C820 C 1.00232 0.88971 0.62668 0.0
C821 C 0.99191 0.9286 0.61968 0.0
C822 C 0.98112 0.86075 0.55231 0.0
C823 C 0.0148 0.82937 0.5795 0.0
N824 N 0.98968 0.90676 0.59782 0.0
N825 N 0.01567 0.85037 0.6102 0.0
H826 H 0.69345 0.02511 0.55261 0.0
H827 H 0.56917 0.97323 0.53881 0.0
H828 H 0.67927 0.95758 0.47561 0.0
H829 H 0.58614 0.02962 0.67877 0.0
H830 H 0.60929 0.96864 0.50887 0.0
H831 H 0.65449 0.02792 0.59738 0.0
C832 C 0.68236 0.01071 0.546 0.0
C833 C 0.68982 0.99116 0.50905 0.0
C834 C 0.60427 0.98194 0.54651 0.0
C835 C 0.64478 0.99464 0.55839 0.0
C836 C 0.58133 0.98467 0.56319 0.0
C837 C 0.57427 1.00175 0.61172 0.0
C838 C 0.62032 0.99664 0.57754 0.0
C839 C 0.59085 0.01602 0.64192 0.0
C840 C 0.65999 0.01244 0.57108 0.0
C841 C 0.67432 0.97325 0.50172 0.0
N842 N 0.61305 0.01324 0.62403 0.0
N843 N 0.65258 0.97554 0.52516 0.0
H844 H 0.51438 0.69862 0.56806 0.0
H845 H 0.55919 0.57184 0.54213 0.0
H846 H 0.56786 0.67783 0.42023 0.0
H847 H 0.51298 0.59495 0.71098 0.0
H848 H 0.56392 0.61083 0.50056 0.0
H849 H 0.51545 0.66151 0.62627 0.0
C850 C 0.52671 0.68647 0.54867 0.0
C851 C 0.54096 0.69148 0.4885 0.0
C852 C 0.55289 0.60741 0.54711 0.0
C853 C 0.54179 0.64847 0.5541 0.0
C854 C 0.55014 0.5851 0.57087 0.0
C855 C 0.53556 0.58 0.63 0.0
C856 C 0.54083 0.62482 0.5822 0.0
C857 C 0.52437 0.59799 0.66511 0.0
C858 C 0.52714 0.66513 0.58164 0.0
C859 C 0.55623 0.67471 0.46537 0.0
N860 N 0.5271 0.61953 0.64031 0.0
N861 N 0.55607 0.65394 0.49761 0.0
H862 H 0.8392 0.55785 0.49993 0.0
H863 H 0.93226 0.48903 0.72896 0.0
H864 H 0.82638 0.49322 0.60251 0.0
H865 H 0.94805 0.54493 0.58436 0.0
H866 H 0.89231 0.49334 0.69789 0.0
H867 H 0.87796 0.55645 0.54588 0.0
C868 C 0.84441 0.54343 0.53248 0.0
C869 C 0.82938 0.52555 0.54668 0.0
C870 C 0.90453 0.5047 0.67317 0.0
C871 C 0.87386 0.52395 0.60006 0.0
C872 C 0.92738 0.50227 0.69092 0.0
C873 C 0.94366 0.51653 0.65884 0.0
C874 C 0.89782 0.52163 0.62342 0.0
C875 C 0.93619 0.53341 0.61005 0.0
C876 C 0.86658 0.54267 0.55882 0.0
C877 C 0.83713 0.50756 0.59062 0.0
N878 N 0.91387 0.53547 0.59384 0.0
N879 N 0.85881 0.50716 0.61526 0.0
loop_
_geom_bond_atom_site_label_1
_geom_bond_atom_site_label_2
_geom_bond_distance
_geom_bond_site_symmetry_2
_ccdc_geom_bond_type
C0 C1 1.384 . S
C0 H13 0.947 . S
C0 C35 1.382 . S
C1 C0 1.384 . S
C1 C2 1.378 . S
C2 C1 1.378 . S
C2 C3 1.378 . S
C2 H14 0.952 . S
C3 C2 1.378 . S
C3 H15 0.950 . S
C3 C34 1.383 . S
H4 C23 0.947 . S
H5 C24 0.946 . S
H6 C26 0.953 . S
H7 C27 0.945 . S
H8 C29 0.952 . S
H9 C30 0.949 . S
H10 C32 0.950 . S
H11 C33 0.948 . S
H12 C35 0.951 . S
H13 C0 0.947 . S
H14 C2 0.952 . S
H15 C3 0.950 . S
N16 C19 1.382 . S
N16 C21 1.363 . S
N17 C19 1.371 . S
N17 C20 1.372 . S
N18 C20 1.361 . S
N18 C21 1.377 . S
C19 N16 1.382 . S
C19 N17 1.371 . S
C19 C22 1.480 . S
C20 N17 1.372 . S
C20 N18 1.361 . S
C20 C28 1.457 . S
C21 N16 1.363 . S
C21 N18 1.377 . S
C21 C34 1.479 . S
C22 C19 1.480 . S
C22 C23 1.383 . S
C22 C27 1.385 . S
C23 H4 0.947 . S
C23 C22 1.383 . S
C23 C24 1.388 . S
C24 H5 0.946 . S
C24 C23 1.388 . S
C24 C25 1.384 . S
C25 C24 1.384 . S
C25 C26 1.377 . S
C26 H6 0.953 . S
C26 C25 1.377 . S
C26 C27 1.369 . S
C27 H7 0.945 . S
C27 C22 1.385 . S
C27 C26 1.369 . S
C28 C20 1.457 . S
C28 C29 1.372 . S
C28 C33 1.364 . S
C29 H8 0.952 . S
C29 C28 1.372 . S
C29 C30 1.389 . S
C30 H9 0.949 . S
C30 C29 1.389 . S
C30 C31 1.387 . S
C31 C30 1.387 . S
C31 C32 1.372 . S
C32 H10 0.950 . S
C32 C31 1.372 . S
C32 C33 1.379 . S
C33 H11 0.948 . S
C33 C28 1.364 . S
C33 C32 1.379 . S
C34 C3 1.383 . S
C34 C21 1.479 . S
C34 C35 1.398 . S
C35 C0 1.382 . S
C35 H12 0.951 . S
C35 C34 1.398 . S
C36 C37 1.384 1_655 S
C36 H49 0.948 . S
C36 C71 1.382 1_655 S
C37 C36 1.384 1_455 S
C37 C38 1.378 . S
C38 C37 1.378 . S
C38 C39 1.378 . S
C38 H50 0.952 . S
C39 C38 1.378 . S
C39 H51 0.950 . S
C39 C70 1.383 . S
H40 C59 0.947 . S
H41 C60 0.952 . S
H42 C62 0.953 . S
H43 C63 0.945 . S
H44 C65 0.949 1_655 S
H45 C66 0.956 . S
H46 C68 0.950 . S
H47 C69 0.948 . S
H48 C71 0.951 1_655 S
H49 C36 0.948 . S
H50 C38 0.952 . S
H51 C39 0.950 . S
N52 C55 1.382 . S
N52 C57 1.363 . S
N53 C55 1.371 . S
N53 C56 1.372 . S
N54 C56 1.361 . S
N54 C57 1.377 . S
C55 N52 1.382 . S
C55 N53 1.371 . S
C55 C58 1.480 . S
C56 N53 1.372 . S
C56 N54 1.361 . S
C56 C64 1.457 . S
C57 N52 1.363 . S
C57 N54 1.377 . S
C57 C70 1.479 . S
C58 C55 1.480 . S
C58 C59 1.383 . S
C58 C63 1.385 . S
C59 H40 0.947 . S
C59 C58 1.383 . S
C59 C60 1.386 1_455 S
C60 H41 0.952 . S
C60 C59 1.386 1_655 S
C60 C61 1.381 1_655 S
C61 C60 1.381 1_455 S
C61 C62 1.377 . S
C62 H42 0.953 . S
C62 C61 1.377 . S
C62 C63 1.369 . S
C63 H43 0.945 . S
C63 C58 1.385 . S
C63 C62 1.369 . S
C64 C56 1.457 . S
C64 C65 1.376 . S
C64 C69 1.364 . S
C65 H44 0.949 1_455 S
C65 C64 1.376 . S
C65 C66 1.387 1_455 S
C66 H45 0.956 . S
C66 C65 1.387 1_655 S
C66 C67 1.383 1_655 S
C67 C66 1.383 1_455 S
C67 C68 1.372 . S
C68 H46 0.950 . S
C68 C67 1.372 . S
C68 C69 1.379 . S
C69 H47 0.948 . S
C69 C64 1.364 . S
C69 C68 1.379 . S
C70 C39 1.383 . S
C70 C57 1.479 . S
C70 C71 1.398 . S
C71 C36 1.382 1_455 S
C71 H48 0.951 1_455 S
C71 C70 1.398 . S
C72 C73 1.384 1_565 S
C72 H85 0.948 . S
C72 C107 1.382 1_565 S
C73 C72 1.384 1_545 S
C73 C74 1.378 . S
C74 C73 1.378 . S
C74 C75 1.378 . S
C74 H86 0.952 . S
C75 C74 1.378 . S
C75 H87 0.950 . S
C75 C106 1.383 . S
H76 C95 0.947 . S
H77 C96 0.952 . S
H78 C98 0.953 . S
H79 C99 0.945 . S
H80 C101 0.949 1_565 S
H81 C102 0.956 . S
H82 C104 0.950 . S
H83 C105 0.948 . S
H84 C107 0.951 1_565 S
H85 C72 0.948 . S
H86 C74 0.952 . S
H87 C75 0.950 . S
N88 C91 1.382 . S
N88 C93 1.363 . S
N89 C91 1.371 . S
N89 C92 1.372 . S
N90 C92 1.361 . S
N90 C93 1.377 . S
C91 N88 1.382 . S
C91 N89 1.371 . S
C91 C94 1.480 . S
C92 N89 1.372 . S
C92 N90 1.361 . S
C92 C100 1.457 . S
C93 N88 1.363 . S
C93 N90 1.377 . S
C93 C106 1.479 . S
C94 C91 1.480 . S
C94 C95 1.383 . S
C94 C99 1.385 . S
C95 H76 0.947 . S
C95 C94 1.383 . S
C95 C96 1.386 1_545 S
C96 H77 0.952 . S
C96 C95 1.386 1_565 S
C96 C97 1.381 1_565 S
C97 C96 1.381 1_545 S
C97 C98 1.377 . S
C98 H78 0.953 . S
C98 C97 1.377 . S
C98 C99 1.369 . S
C99 H79 0.945 . S
C99 C94 1.385 . S
C99 C98 1.369 . S
C100 C92 1.457 . S
C100 C101 1.376 . S
C100 C105 1.364 . S
C101 H80 0.949 1_545 S
C101 C100 1.376 . S
C101 C102 1.386 1_545 S
C102 H81 0.956 . S
C102 C101 1.386 1_565 S
C102 C103 1.383 1_565 S
C103 C102 1.383 1_545 S
C103 C104 1.372 . S
C104 H82 0.950 . S
C104 C103 1.372 . S
C104 C105 1.379 . S
C105 H83 0.948 . S
C105 C100 1.364 . S
C105 C104 1.379 . S
C106 C75 1.383 . S
C106 C93 1.479 . S
C106 C107 1.398 . S
C107 C72 1.382 1_545 S
C107 H84 0.951 1_545 S
C107 C106 1.398 . S
C108 C109 1.384 . S
C108 H121 0.947 . S
C108 C143 1.382 . S
C109 C108 1.384 . S
C109 C110 1.378 . S
C110 C109 1.378 . S
C110 C111 1.378 . S
C110 H122 0.952 . S
C111 C110 1.378 . S
C111 H123 0.950 . S
C111 C142 1.383 . S
H112 C131 0.947 . S
H113 C132 0.946 . S
H114 C134 0.953 . S
H115 C135 0.945 . S
H116 C137 0.952 . S
H117 C138 0.949 . S
H118 C140 0.950 . S
H119 C141 0.948 . S
H120 C143 0.951 . S
H121 C108 0.947 . S
H122 C110 0.952 . S
H123 C111 0.950 . S
N124 C127 1.382 . S
N124 C129 1.363 . S
N125 C127 1.371 . S
N125 C128 1.372 . S
N126 C128 1.361 . S
N126 C129 1.377 . S
C127 N124 1.382 . S
C127 N125 1.371 . S
C127 C130 1.480 . S
C128 N125 1.372 . S
C128 N126 1.361 . S
C128 C136 1.457 . S
C129 N124 1.363 . S
C129 N126 1.377 . S
C129 C142 1.479 . S
C130 C127 1.480 . S
C130 C131 1.383 . S
C130 C135 1.385 . S
C131 H112 0.947 . S
C131 C130 1.383 . S
C131 C132 1.388 . S
C132 H113 0.946 . S
C132 C131 1.388 . S
C132 C133 1.384 . S
C133 C132 1.384 . S
C133 C134 1.377 . S
C134 H114 0.953 . S
C134 C133 1.377 . S
C134 C135 1.369 . S
C135 H115 0.945 . S
C135 C130 1.385 . S
C135 C134 1.369 . S
C136 C128 1.457 . S
C136 C137 1.372 . S
C136 C141 1.364 . S
C137 H116 0.952 . S
C137 C136 1.372 . S
C137 C138 1.389 . S
C138 H117 0.949 . S
C138 C137 1.389 . S
C138 C139 1.387 . S
C139 C138 1.387 . S
C139 C140 1.372 . S
C140 H118 0.950 . S
C140 C139 1.372 . S
C140 C141 1.379 . S
C141 H119 0.948 . S
C141 C136 1.364 . S
C141 C140 1.379 . S
C142 C111 1.383 . S
C142 C129 1.479 . S
C142 C143 1.398 . S
C143 C108 1.382 . S
C143 H120 0.951 . S
C143 C142 1.398 . S
C144 C145 1.384 . S
C144 H157 0.947 . S
C144 C179 1.382 . S
C145 C144 1.384 . S
C145 C146 1.378 . S
C146 C145 1.378 . S
C146 C147 1.378 . S
C146 H158 0.952 . S
C147 C146 1.378 . S
C147 H159 0.950 . S
C147 C178 1.383 . S
H148 C167 0.947 1_556 S
H149 C168 0.946 1_556 S
H150 C170 0.953 . S
H151 C171 0.945 . S
H152 C173 0.952 . S
H153 C174 0.949 . S
H154 C176 0.950 . S
H155 C177 0.948 . S
H156 C179 0.951 . S
H157 C144 0.947 . S
H158 C146 0.952 . S
H159 C147 0.950 . S
N160 C163 1.382 1_556 S
N160 C165 1.363 . S
N161 C163 1.371 . S
N161 C164 1.372 . S
N162 C164 1.361 . S
N162 C165 1.377 1_554 S
C163 N160 1.382 1_554 S
C163 N161 1.371 . S
C163 C166 1.480 . S
C164 N161 1.372 . S
C164 N162 1.361 . S
C164 C172 1.457 . S
C165 N160 1.363 . S
C165 N162 1.377 1_556 S
C165 C178 1.479 . S
C166 C163 1.480 . S
C166 C167 1.383 . S
C166 C171 1.385 . S
C167 H148 0.947 1_554 S
C167 C166 1.383 . S
C167 C168 1.388 . S
C168 H149 0.946 1_554 S
C168 C167 1.388 . S
C168 C169 1.384 . S
C169 C168 1.384 . S
C169 C170 1.377 . S
C170 H150 0.953 . S
C170 C169 1.377 . S
C170 C171 1.369 . S
C171 H151 0.945 . S
C171 C166 1.385 . S
C171 C170 1.369 . S
C172 C164 1.457 . S
C172 C173 1.372 . S
C172 C177 1.364 . S
C173 H152 0.952 . S
C173 C172 1.372 . S
C173 C174 1.389 . S
C174 H153 0.949 . S
C174 C173 1.389 . S
C174 C175 1.387 . S
C175 C174 1.387 . S
C175 C176 1.372 . S
C176 H154 0.950 . S
C176 C175 1.372 . S
C176 C177 1.379 . S
C177 H155 0.948 . S
C177 C172 1.364 . S
C177 C176 1.379 . S
C178 C147 1.383 . S
C178 C165 1.479 . S
C178 C179 1.398 . S
C179 C144 1.382 . S
C179 H156 0.951 . S
C179 C178 1.398 . S
C180 C181 1.384 . S
C180 H193 0.948 1_455 S
C180 C215 1.382 . S
C181 C180 1.384 . S
C181 C182 1.378 . S
C182 C181 1.378 . S
C182 C183 1.378 . S
C182 H194 0.952 . S
C183 C182 1.378 . S
C183 H195 0.950 . S
C183 C214 1.383 . S
H184 C203 0.947 1_556 S
H185 C204 0.949 1_556 S
H186 C206 0.953 . S
H187 C207 0.945 . S
H188 C209 0.947 1_655 S
H189 C210 0.954 . S
H190 C212 0.950 . S
H191 C213 0.948 . S
H192 C215 0.950 1_655 S
H193 C180 0.948 1_655 S
H194 C182 0.952 . S
H195 C183 0.950 . S
N196 C199 1.382 1_556 S
N196 C201 1.363 . S
N197 C199 1.371 . S
N197 C200 1.372 . S
N198 C200 1.361 . S
N198 C201 1.377 1_554 S
C199 N196 1.382 1_554 S
C199 N197 1.371 . S
C199 C202 1.480 . S
C200 N197 1.372 . S
C200 N198 1.361 . S
C200 C208 1.457 . S
C201 N196 1.363 . S
C201 N198 1.377 1_556 S
C201 C214 1.479 . S
C202 C199 1.480 . S
C202 C203 1.383 . S
C202 C207 1.385 . S
C203 H184 0.947 1_554 S
C203 C202 1.383 . S
C203 C204 1.387 1_455 S
C204 H185 0.949 1_554 S
C204 C203 1.387 1_655 S
C204 C205 1.382 1_655 S
C205 C204 1.382 1_455 S
C205 C206 1.377 . S
C206 H186 0.953 . S
C206 C205 1.377 . S
C206 C207 1.369 . S
C207 H187 0.945 . S
C207 C202 1.385 . S
C207 C206 1.369 . S
C208 C200 1.457 . S
C208 C209 1.379 . S
C208 C213 1.364 . S
C209 H188 0.947 1_455 S
C209 C208 1.379 . S
C209 C210 1.387 1_455 S
C210 H189 0.954 . S
C210 C209 1.387 1_655 S
C210 C211 1.384 1_655 S
C211 C210 1.384 1_455 S
C211 C212 1.372 . S
C212 H190 0.950 . S
C212 C211 1.372 . S
C212 C213 1.379 . S
C213 H191 0.948 . S
C213 C208 1.364 . S
C213 C212 1.379 . S
C214 C183 1.383 . S
C214 C201 1.479 . S
C214 C215 1.399 . S
C215 C180 1.382 . S
C215 H192 0.950 1_455 S
C215 C214 1.399 . S
C216 C217 1.384 . S
C216 H229 0.948 1_545 S
C216 C251 1.382 . S
C217 C216 1.384 . S
C217 C218 1.378 . S
C218 C217 1.378 . S
C218 C219 1.378 . S
C218 H230 0.952 . S
C219 C218 1.378 . S
C219 H231 0.950 . S
C219 C250 1.383 . S
H220 C239 0.947 1_556 S
H221 C240 0.949 1_556 S
H222 C242 0.953 . S
H223 C243 0.945 . S
H224 C245 0.947 1_565 S
H225 C246 0.954 . S
H226 C248 0.950 . S
H227 C249 0.948 . S
H228 C251 0.950 1_565 S
H229 C216 0.948 1_565 S
H230 C218 0.952 . S
H231 C219 0.950 . S
N232 C235 1.382 1_556 S
N232 C237 1.363 . S
N233 C235 1.371 . S
N233 C236 1.372 . S
N234 C236 1.361 . S
N234 C237 1.377 1_554 S
C235 N232 1.382 1_554 S
C235 N233 1.371 . S
C235 C238 1.480 . S
C236 N233 1.372 . S
C236 N234 1.361 . S
C236 C244 1.457 . S
C237 N232 1.363 . S
C237 N234 1.377 1_556 S
C237 C250 1.479 . S
C238 C235 1.480 . S
C238 C239 1.383 . S
C238 C243 1.385 . S
C239 H220 0.947 1_554 S
C239 C238 1.383 . S
C239 C240 1.387 1_545 S
C240 H221 0.949 1_554 S
C240 C239 1.387 1_565 S
C240 C241 1.382 1_565 S
C241 C240 1.382 1_545 S
C241 C242 1.377 . S
C242 H222 0.953 . S
C242 C241 1.377 . S
C242 C243 1.369 . S
C243 H223 0.945 . S
C243 C238 1.385 . S
C243 C242 1.369 . S
C244 C236 1.457 . S
C244 C245 1.379 . S
C244 C249 1.364 . S
C245 H224 0.947 1_545 S
C245 C244 1.379 . S
C245 C246 1.387 1_545 S
C246 H225 0.954 . S
C246 C245 1.387 1_565 S
C246 C247 1.384 1_565 S
C247 C246 1.384 1_545 S
C247 C248 1.372 . S
C248 H226 0.950 . S
C248 C247 1.372 . S
C248 C249 1.379 . S
C249 H227 0.948 . S
C249 C244 1.364 . S
C249 C248 1.379 . S
C250 C219 1.383 . S
C250 C237 1.479 . S
C250 C251 1.399 . S
C251 C216 1.382 . S
C251 H228 0.950 1_545 S
C251 C250 1.399 . S
C252 C253 1.384 . S
C252 H265 0.947 . S
C252 C287 1.382 . S
C253 C252 1.384 . S
C253 C254 1.378 . S
C254 C253 1.378 . S
C254 C255 1.378 . S
C254 H266 0.952 . S
C255 C254 1.378 . S
C255 H267 0.950 . S
C255 C286 1.383 . S
H256 C275 0.947 . S
H257 C276 0.946 . S
H258 C278 0.953 1_556 S
H259 C279 0.945 1_556 S
H260 C281 0.952 . S
H261 C282 0.949 . S
H262 C284 0.950 . S
H263 C285 0.948 . S
H264 C287 0.951 . S
H265 C252 0.947 . S
H266 C254 0.952 . S
H267 C255 0.950 . S
N268 C271 1.382 . S
N268 C273 1.363 . S
N269 C271 1.371 1_556 S
N269 C272 1.372 . S
N270 C272 1.361 1_554 S
N270 C273 1.377 . S
C271 N268 1.382 . S
C271 N269 1.371 1_554 S
C271 C274 1.480 . S
C272 N269 1.372 . S
C272 N270 1.361 1_556 S
C272 C280 1.457 . S
C273 N268 1.363 . S
C273 N270 1.377 . S
C273 C286 1.479 . S
C274 C271 1.480 . S
C274 C275 1.383 . S
C274 C279 1.385 . S
C275 H256 0.947 . S
C275 C274 1.383 . S
C275 C276 1.388 . S
C276 H257 0.946 . S
C276 C275 1.388 . S
C276 C277 1.384 . S
C277 C276 1.384 . S
C277 C278 1.377 . S
C278 H258 0.953 1_554 S
C278 C277 1.377 . S
C278 C279 1.369 . S
C279 H259 0.945 1_554 S
C279 C274 1.385 . S
C279 C278 1.369 . S
C280 C272 1.457 . S
C280 C281 1.372 . S
C280 C285 1.364 . S
C281 H260 0.952 . S
C281 C280 1.372 . S
C281 C282 1.389 . S
C282 H261 0.949 . S
C282 C281 1.389 . S
C282 C283 1.387 . S
C283 C282 1.387 . S
C283 C284 1.372 . S
C284 H262 0.950 . S
C284 C283 1.372 . S
C284 C285 1.379 . S
C285 H263 0.948 . S
C285 C280 1.364 . S
C285 C284 1.379 . S
C286 C255 1.383 . S
C286 C273 1.479 . S
C286 C287 1.398 . S
C287 C252 1.382 . S
C287 H264 0.951 . S
C287 C286 1.398 . S
Ho288 C291 2.811 . S
Ho288 O308 2.322 . S
Ho288 O310 2.378 . S
Ho288 O311 2.524 . S
Ho288 O312 2.381 . S
Ho288 O313 2.669 1_565 S
Ho288 O315 2.346 1_565 S
Ho288 O319 2.305 1_455 S
Ho289 C300 2.811 . S
Ho289 O309 2.346 1_545 S
Ho289 O313 2.305 1_655 S
Ho289 O314 2.322 . S
Ho289 O316 2.378 . S
Ho289 O317 2.524 . S
Ho289 O318 2.381 . S
Ho289 O319 2.669 1_545 S
C290 O308 1.259 1_655 S
C290 O309 1.268 . S
C291 Ho288 2.811 . S
C291 C292 1.488 . S
C291 O310 1.215 . S
C291 O311 1.289 . S
C292 C291 1.488 . S
C292 C293 1.348 . S
C292 C297 1.413 . S
C293 C292 1.348 . S
C293 C294 1.442 . S
C293 H320 0.930 1_455 S
C294 C293 1.442 . S
C294 C295 1.381 . S
C294 H321 0.931 1_455 S
C295 C294 1.381 . S
C295 C296 1.321 . S
C296 C295 1.321 . S
C296 C297 1.403 . S
C296 H322 0.934 . S
C297 C292 1.413 . S
C297 C296 1.403 . S
C297 H323 0.930 . S
C298 O312 1.296 . S
C298 O313 1.244 1_565 S
C299 O314 1.259 1_455 S
C299 O315 1.268 . S
C300 Ho289 2.811 . S
C300 C301 1.488 . S
C300 O316 1.215 . S
C300 O317 1.289 . S
C301 C300 1.488 . S
C301 C302 1.348 . S
C301 C306 1.413 . S
C302 C301 1.348 . S
C302 C303 1.442 . S
C302 H324 0.930 1_655 S
C303 C302 1.442 . S
C303 C304 1.381 . S
C303 H325 0.931 1_655 S
C304 C303 1.381 . S
C304 C305 1.321 . S
C305 C304 1.321 . S
C305 C306 1.403 . S
C305 H326 0.934 . S
C306 C301 1.413 . S
C306 C305 1.403 . S
C306 H327 0.930 . S
C307 O318 1.275 . S
C307 O319 1.256 1_545 S
O308 Ho288 2.322 . S
O308 C290 1.259 1_455 S
O309 Ho289 2.346 1_565 S
O309 C290 1.268 . S
O310 Ho288 2.378 . S
O310 C291 1.215 . S
O311 Ho288 2.524 . S
O311 C291 1.289 . S
O312 Ho288 2.381 . S
O312 C298 1.296 . S
O313 Ho288 2.669 1_545 S
O313 Ho289 2.305 1_455 S
O313 C298 1.244 1_545 S
O314 Ho289 2.322 . S
O314 C299 1.259 1_655 S
O315 Ho288 2.346 1_545 S
O315 C299 1.268 . S
O316 Ho289 2.378 . S
O316 C300 1.215 . S
O317 Ho289 2.524 . S
O317 C300 1.289 . S
O318 Ho289 2.381 . S
O318 C307 1.275 . S
O319 Ho288 2.305 1_655 S
O319 Ho289 2.669 1_565 S
O319 C307 1.256 1_565 S
H320 C293 0.930 1_655 S
H321 C294 0.931 1_655 S
H322 C296 0.934 . S
H323 C297 0.930 . S
H324 C302 0.930 1_455 S
H325 C303 0.931 1_455 S
H326 C305 0.934 . S
H327 C306 0.930 . S
Ho328 C331 2.811 . S
Ho328 O348 2.322 . S
Ho328 O350 2.378 . S
Ho328 O351 2.524 . S
Ho328 O352 2.381 . S
Ho328 O353 2.669 . S
Ho328 O355 2.346 . S
Ho328 O359 2.305 1_545 S
Ho329 C340 2.811 . S
Ho329 O349 2.346 . S
Ho329 O353 2.305 1_565 S
Ho329 O354 2.322 . S
Ho329 O356 2.378 . S
Ho329 O357 2.524 . S
Ho329 O358 2.381 . S
Ho329 O359 2.669 . S
C330 O348 1.259 1_565 S
C330 O349 1.268 . S
C331 Ho328 2.811 . S
C331 C332 1.488 . S
C331 O350 1.215 . S
C331 O351 1.289 . S
C332 C331 1.488 . S
C332 C333 1.348 . S
C332 C337 1.413 . S
C333 C332 1.348 . S
C333 C334 1.442 . S
C333 H360 0.930 1_545 S
C334 C333 1.442 . S
C334 C335 1.381 . S
C334 H361 0.931 1_545 S
C335 C334 1.381 . S
C335 C336 1.321 . S
C336 C335 1.321 . S
C336 C337 1.403 . S
C336 H362 0.934 . S
C337 C332 1.413 . S
C337 C336 1.403 . S
C337 H363 0.930 . S
C338 O352 1.275 . S
C338 O353 1.256 . S
C339 O354 1.259 1_545 S
C339 O355 1.268 . S
C340 Ho329 2.811 . S
C340 C341 1.488 . S
C340 O356 1.215 . S
C340 O357 1.289 . S
C341 C340 1.488 . S
C341 C342 1.348 . S
C341 C346 1.413 . S
C342 C341 1.348 . S
C342 C343 1.442 . S
C342 H364 0.930 1_565 S
C343 C342 1.442 . S
C343 C344 1.381 . S
C343 H365 0.931 1_565 S
C344 C343 1.381 . S
C344 C345 1.321 . S
C345 C344 1.321 . S
C345 C346 1.403 . S
C345 H366 0.934 . S
C346 C341 1.413 . S
C346 C345 1.403 . S
C346 H367 0.930 . S
C347 O358 1.275 . S
C347 O359 1.256 . S
O348 Ho328 2.322 . S
O348 C330 1.259 1_545 S
O349 Ho329 2.346 . S
O349 C330 1.268 . S
O350 Ho328 2.378 . S
O350 C331 1.215 . S
O351 Ho328 2.524 . S
O351 C331 1.289 . S
O352 Ho328 2.381 . S
O352 C338 1.275 . S
O353 Ho328 2.669 . S
O353 Ho329 2.305 1_545 S
O353 C338 1.256 . S
O354 Ho329 2.322 . S
O354 C339 1.259 1_565 S
O355 Ho328 2.346 . S
O355 C339 1.268 . S
O356 Ho329 2.378 . S
O356 C340 1.215 . S
O357 Ho329 2.524 . S
O357 C340 1.289 . S
O358 Ho329 2.381 . S
O358 C347 1.275 . S
O359 Ho328 2.305 1_565 S
O359 Ho329 2.669 . S
O359 C347 1.256 . S
H360 C333 0.930 1_565 S
H361 C334 0.931 1_565 S
H362 C336 0.934 . S
H363 C337 0.930 . S
H364 C342 0.930 1_545 S
H365 C343 0.931 1_545 S
H366 C345 0.934 . S
H367 C346 0.930 . S
Ho368 C371 2.811 . S
Ho368 O388 2.322 . S
Ho368 O390 2.378 . S
Ho368 O391 2.524 . S
Ho368 O392 2.381 . S
Ho368 O393 2.669 . S
Ho368 O395 2.346 . S
Ho368 O399 2.305 . S
Ho369 C380 2.811 . S
Ho369 O389 2.346 . S
Ho369 O393 2.305 . S
Ho369 O394 2.322 . S
Ho369 O396 2.378 . S
Ho369 O397 2.524 . S
Ho369 O398 2.381 . S
Ho369 O399 2.669 . S
C370 O388 1.259 . S
C370 O389 1.268 . S
C371 Ho368 2.811 . S
C371 C372 1.488 . S
C371 O390 1.215 . S
C371 O391 1.289 . S
C372 C371 1.488 . S
C372 C373 1.348 . S
C372 C377 1.413 . S
C373 C372 1.348 . S
C373 C374 1.442 . S
C373 H400 0.930 . S
C374 C373 1.442 . S
C374 C375 1.381 . S
C374 H401 0.931 . S
C375 C374 1.381 . S
C375 C376 1.321 . S
C376 C375 1.321 . S
C376 C377 1.403 . S
C376 H402 0.934 . S
C377 C372 1.413 . S
C377 C376 1.403 . S
C377 H403 0.930 . S
C378 O392 1.275 . S
C378 O393 1.256 . S
C379 O394 1.259 . S
C379 O395 1.268 . S
C380 Ho369 2.811 . S
C380 C381 1.488 . S
C380 O396 1.215 . S
C380 O397 1.289 . S
C381 C380 1.488 . S
C381 C382 1.348 . S
C381 C386 1.413 . S
C382 C381 1.348 . S
C382 C383 1.442 . S
C382 H404 0.930 . S
C383 C382 1.442 . S
C383 C384 1.381 . S
C383 H405 0.931 . S
C384 C383 1.381 . S
C384 C385 1.321 . S
C385 C384 1.321 . S
C385 C386 1.403 . S
C385 H406 0.934 . S
C386 C381 1.413 . S
C386 C385 1.403 . S
C386 H407 0.930 . S
C387 O398 1.275 . S
C387 O399 1.256 . S
O388 Ho368 2.322 . S
O388 C370 1.259 . S
O389 Ho369 2.346 . S
O389 C370 1.268 . S
O390 Ho368 2.378 . S
O390 C371 1.215 . S
O391 Ho368 2.524 . S
O391 C371 1.289 . S
O392 Ho368 2.381 . S
O392 C378 1.275 . S
O393 Ho368 2.669 . S
O393 Ho369 2.305 . S
O393 C378 1.256 . S
O394 Ho369 2.322 . S
O394 C379 1.259 . S
O395 Ho368 2.346 . S
O395 C379 1.268 . S
O396 Ho369 2.378 . S
O396 C380 1.215 . S
O397 Ho369 2.524 . S
O397 C380 1.289 . S
O398 Ho369 2.381 . S
O398 C387 1.275 . S
O399 Ho368 2.305 . S
O399 Ho369 2.669 . S
O399 C387 1.256 . S
H400 C373 0.930 . S
H401 C374 0.931 . S
H402 C376 0.934 . S
H403 C377 0.930 . S
H404 C382 0.930 . S
H405 C383 0.931 . S
H406 C385 0.934 . S
H407 C386 0.930 . S
Ho408 C411 2.811 . S
Ho408 O428 2.322 . S
Ho408 O430 2.378 . S
Ho408 O431 2.524 . S
Ho408 O432 2.381 . S
Ho408 O433 2.669 1_655 S
Ho408 O435 2.346 1_655 S
Ho408 O439 2.305 . S
Ho409 C420 2.811 . S
Ho409 O429 2.346 1_455 S
Ho409 O433 2.305 . S
Ho409 O434 2.322 . S
Ho409 O436 2.378 . S
Ho409 O437 2.524 . S
Ho409 O438 2.381 . S
Ho409 O439 2.669 1_455 S
C410 O428 1.259 . S
C410 O429 1.268 . S
C411 Ho408 2.811 . S
C411 C412 1.488 . S
C411 O430 1.215 . S
C411 O431 1.289 . S
C412 C411 1.488 . S
C412 C413 1.348 . S
C412 C417 1.413 . S
C413 C412 1.348 . S
C413 C414 1.442 . S
C413 H440 0.930 . S
C414 C413 1.442 . S
C414 C415 1.381 . S
C414 H441 0.931 . S
C415 C414 1.381 . S
C415 C416 1.321 . S
C416 C415 1.321 . S
C416 C417 1.403 . S
C416 H442 0.934 . S
C417 C412 1.413 . S
C417 C416 1.403 . S
C417 H443 0.930 . S
C418 O432 1.291 . S
C418 O433 1.247 1_655 S
C419 O434 1.259 . S
C419 O435 1.268 . S
C420 Ho409 2.811 . S
C420 C421 1.488 . S
C420 O436 1.215 . S
C420 O437 1.289 . S
C421 C420 1.488 . S
C421 C422 1.348 . S
C421 C426 1.413 . S
C422 C421 1.348 . S
C422 C423 1.442 . S
C422 H444 0.930 . S
C423 C422 1.442 . S
C423 C424 1.381 . S
C423 H445 0.931 . S
C424 C423 1.381 . S
C424 C425 1.321 . S
C425 C424 1.321 . S
C425 C426 1.403 . S
C425 H446 0.934 . S
C426 C421 1.413 . S
C426 C425 1.403 . S
C426 H447 0.930 . S
C427 O438 1.298 . S
C427 O439 1.244 1_455 S
O428 Ho408 2.322 . S
O428 C410 1.259 . S
O429 Ho409 2.346 1_655 S
O429 C410 1.268 . S
O430 Ho408 2.378 . S
O430 C411 1.215 . S
O431 Ho408 2.524 . S
O431 C411 1.289 . S
O432 Ho408 2.381 . S
O432 C418 1.291 . S
O433 Ho408 2.669 1_455 S
O433 Ho409 2.305 . S
O433 C418 1.247 1_455 S
O434 Ho409 2.322 . S
O434 C419 1.259 . S
O435 Ho408 2.346 1_455 S
O435 C419 1.268 . S
O436 Ho409 2.378 . S
O436 C420 1.215 . S
O437 Ho409 2.524 . S
O437 C420 1.289 . S
O438 Ho409 2.381 . S
O438 C427 1.298 . S
O439 Ho408 2.305 . S
O439 Ho409 2.669 1_655 S
O439 C427 1.244 1_655 S
H440 C413 0.930 . S
H441 C414 0.931 . S
H442 C416 0.934 . S
H443 C417 0.930 . S
H444 C422 0.930 . S
H445 C423 0.931 . S
H446 C425 0.934 . S
H447 C426 0.930 . S
H448 C454 0.930 . S
H449 C458 0.930 . S
H450 C463 0.929 . S
H451 C461 0.929 . S
H452 C456 0.929 . S
H453 C462 0.929 . S
C454 H448 0.930 . S
C454 C455 1.405 . S
C454 C462 1.378 . S
C455 C454 1.405 . S
C455 C463 1.396 1_545 S
C456 H452 0.929 . S
C456 C458 1.378 . S
C456 C460 1.338 1_565 S
C457 C460 1.463 . S
C457 C462 1.350 . S
C457 N465 1.427 1_545 S
C458 H449 0.930 . S
C458 C456 1.378 . S
C458 C459 1.321 1_565 S
C459 C458 1.321 1_545 S
C459 C461 1.479 . S
C460 C456 1.338 1_545 S
C460 C457 1.463 . S
C460 N464 1.440 . S
C461 H451 0.929 . S
C461 C459 1.479 . S
C461 N464 1.384 . S
C462 H453 0.929 . S
C462 C454 1.378 . S
C462 C457 1.350 . S
C463 H450 0.929 . S
C463 C455 1.396 1_565 S
C463 N465 1.384 . S
N464 C460 1.440 . S
N464 C461 1.384 . S
N465 C457 1.427 1_565 S
N465 C463 1.384 . S
H466 C472 0.930 . S
H467 C476 0.930 . S
H468 C481 0.929 . S
H469 C479 0.929 . S
H470 C474 0.929 . S
H471 C480 0.929 . S
C472 H466 0.930 . S
C472 C473 1.367 . S
C472 C480 1.378 . S
C473 C472 1.367 . S
C473 C481 1.433 . S
C474 H470 0.929 . S
C474 C476 1.378 . S
C474 C478 1.350 . S
C475 C478 1.463 . S
C475 C480 1.350 . S
C475 N483 1.427 . S
C476 H467 0.930 . S
C476 C474 1.378 . S
C476 C477 1.367 . S
C477 C476 1.367 . S
C477 C479 1.433 . S
C478 C474 1.350 . S
C478 C475 1.463 . S
C478 N482 1.427 . S
C479 H469 0.929 . S
C479 C477 1.433 . S
C479 N482 1.384 . S
C480 H471 0.929 . S
C480 C472 1.378 . S
C480 C475 1.350 . S
C481 H468 0.929 . S
C481 C473 1.433 . S
C481 N483 1.384 . S
N482 C478 1.427 . S
N482 C479 1.384 . S
N483 C475 1.427 . S
N483 C481 1.384 . S
H484 C490 0.930 . S
H485 C494 0.930 . S
H486 C499 0.929 . S
H487 C497 0.929 . S
H488 C492 0.929 . S
H489 C498 0.929 . S
C490 H484 0.930 . S
C490 C491 1.367 . S
C490 C498 1.378 . S
C491 C490 1.367 . S
C491 C499 1.433 . S
C492 H488 0.929 . S
C492 C494 1.378 . S
C492 C496 1.350 . S
C493 C496 1.463 . S
C493 C498 1.350 . S
C493 N501 1.427 . S
C494 H485 0.930 . S
C494 C492 1.378 . S
C494 C495 1.367 . S
C495 C494 1.367 . S
C495 C497 1.433 . S
C496 C492 1.350 . S
C496 C493 1.463 . S
C496 N500 1.427 . S
C497 H487 0.929 . S
C497 C495 1.433 . S
C497 N500 1.384 . S
C498 H489 0.929 . S
C498 C490 1.378 . S
C498 C493 1.350 . S
C499 H486 0.929 . S
C499 C491 1.433 . S
C499 N501 1.384 . S
N500 C496 1.427 . S
N500 C497 1.384 . S
N501 C493 1.427 . S
N501 C499 1.384 . S
H502 C508 0.930 . S
H503 C512 0.930 . S
H504 C517 0.929 . S
H505 C515 0.929 . S
H506 C510 0.929 . S
H507 C516 0.929 . S
C508 H502 0.930 . S
C508 C509 1.398 . S
C508 C516 1.378 . S
C509 C508 1.398 . S
C509 C517 1.403 1_455 S
C510 H506 0.929 . S
C510 C512 1.378 . S
C510 C514 1.332 1_655 S
C511 C514 1.464 . S
C511 C516 1.350 . S
C511 N519 1.427 1_455 S
C512 H503 0.930 . S
C512 C510 1.378 . S
C512 C513 1.367 1_655 S
C513 C512 1.367 1_455 S
C513 C515 1.433 . S
C514 C510 1.332 1_455 S
C514 C511 1.464 . S
C514 N518 1.446 . S
C515 H505 0.929 . S
C515 C513 1.433 . S
C515 N518 1.384 . S
C516 H507 0.929 . S
C516 C508 1.378 . S
C516 C511 1.350 . S
C517 H504 0.929 . S
C517 C509 1.403 1_655 S
C517 N519 1.384 . S
N518 C514 1.446 . S
N518 C515 1.384 . S
N519 C511 1.427 1_655 S
N519 C517 1.384 . S
H520 C526 0.930 . S
H521 C530 0.930 . S
H522 C535 0.929 . S
H523 C533 0.929 . S
H524 C528 0.929 1_554 S
H525 C534 0.929 . S
C526 H520 0.930 . S
C526 C527 1.382 . S
C526 C534 1.378 . S
C527 C526 1.382 . S
C527 C535 1.418 1_565 S
C528 H524 0.929 1_556 S
C528 C530 1.378 . S
C528 C532 1.342 1_546 S
C529 C532 1.463 . S
C529 C534 1.350 . S
C529 N537 1.427 1_565 S
C530 H521 0.930 . S
C530 C528 1.378 . S
C530 C531 1.336 1_545 S
C531 C530 1.336 1_565 S
C531 C533 1.465 . S
C532 C528 1.342 1_564 S
C532 C529 1.463 . S
C532 N536 1.435 1_554 S
C533 H523 0.929 . S
C533 C531 1.465 . S
C533 N536 1.384 . S
C534 H525 0.929 . S
C534 C526 1.378 . S
C534 C529 1.350 . S
C535 H522 0.929 . S
C535 C527 1.418 1_545 S
C535 N537 1.384 . S
N536 C532 1.435 1_556 S
N536 C533 1.384 . S
N537 C529 1.427 1_545 S
N537 C535 1.384 . S
H538 C544 0.930 . S
H539 C548 0.930 . S
H540 C553 0.929 . S
H541 C551 0.929 . S
H542 C546 0.929 . S
H543 C552 0.929 . S
C544 H538 0.930 . S
C544 C545 1.367 . S
C544 C552 1.378 . S
C545 C544 1.367 . S
C545 C553 1.433 . S
C546 H542 0.929 . S
C546 C548 1.378 . S
C546 C550 1.350 1_556 S
C547 C550 1.463 . S
C547 C552 1.350 . S
C547 N555 1.427 . S
C548 H539 0.930 . S
C548 C546 1.378 . S
C548 C549 1.367 . S
C549 C548 1.367 . S
C549 C551 1.433 . S
C550 C546 1.350 1_554 S
C550 C547 1.463 . S
C550 N554 1.427 1_554 S
C551 H541 0.929 . S
C551 C549 1.433 . S
C551 N554 1.384 . S
C552 H543 0.929 . S
C552 C544 1.378 . S
C552 C547 1.350 . S
C553 H540 0.929 . S
C553 C545 1.433 . S
C553 N555 1.384 . S
N554 C550 1.427 1_556 S
N554 C551 1.384 . S
N555 C547 1.427 . S
N555 C553 1.384 . S
H556 C562 0.930 . S
H557 C566 0.930 . S
H558 C571 0.929 . S
H559 C569 0.929 . S
H560 C564 0.929 1_554 S
H561 C570 0.929 . S
C562 H556 0.930 . S
C562 C563 1.367 . S
C562 C570 1.378 . S
C563 C562 1.367 . S
C563 C571 1.433 . S
C564 H560 0.929 1_556 S
C564 C566 1.378 . S
C564 C568 1.350 1_556 S
C565 C568 1.463 . S
C565 C570 1.350 . S
C565 N573 1.427 . S
C566 H557 0.930 . S
C566 C564 1.378 . S
C566 C567 1.367 . S
C567 C566 1.367 . S
C567 C569 1.433 . S
C568 C564 1.350 1_554 S
C568 C565 1.463 . S
C568 N572 1.427 1_554 S
C569 H559 0.929 . S
C569 C567 1.433 . S
C569 N572 1.384 . S
C570 H561 0.929 . S
C570 C562 1.378 . S
C570 C565 1.350 . S
C571 H558 0.929 . S
C571 C563 1.433 . S
C571 N573 1.384 . S
N572 C568 1.427 1_556 S
N572 C569 1.384 . S
N573 C565 1.427 . S
N573 C571 1.384 . S
H574 C580 0.930 . S
H575 C584 0.930 . S
H576 C589 0.929 . S
H577 C587 0.929 . S
H578 C582 0.929 1_554 S
H579 C588 0.929 . S
C580 H574 0.930 . S
C580 C581 1.365 1_455 S
C580 C588 1.378 . S
C581 C580 1.365 1_655 S
C581 C589 1.435 . S
C582 H578 0.929 1_556 S
C582 C584 1.378 . S
C582 C586 1.350 1_556 S
C583 C586 1.464 . S
C583 C588 1.340 1_655 S
C583 N591 1.438 . S
C584 H575 0.930 . S
C584 C582 1.378 . S
C584 C585 1.367 . S
C585 C584 1.367 . S
C585 C587 1.433 1_655 S
C586 C582 1.350 1_554 S
C586 C583 1.464 . S
C586 N590 1.427 1_654 S
C587 H577 0.929 . S
C587 C585 1.433 1_455 S
C587 N590 1.384 . S
C588 H579 0.929 . S
C588 C580 1.378 . S
C588 C583 1.340 1_455 S
C589 H576 0.929 . S
C589 C581 1.435 . S
C589 N591 1.384 . S
N590 C586 1.427 1_456 S
N590 C587 1.384 . S
N591 C583 1.438 . S
N591 C589 1.384 . S
H592 C598 0.930 . S
H593 C602 0.930 . S
H594 C607 0.929 . S
H595 C605 0.929 . S
H596 C600 0.929 1_455 S
H597 C606 0.929 . S
C598 H592 0.930 . S
C598 C599 1.367 1_655 S
C598 C606 1.378 . S
C599 C598 1.367 1_455 S
C599 C607 1.433 . S
C600 H596 0.929 1_655 S
C600 C602 1.378 . S
C600 C604 1.350 . S
C601 C604 1.463 . S
C601 C606 1.350 . S
C601 N609 1.427 1_655 S
C602 H593 0.930 . S
C602 C600 1.378 . S
C602 C603 1.367 . S
C603 C602 1.367 . S
C603 C605 1.433 . S
C604 C600 1.350 . S
C604 C601 1.463 . S
C604 N608 1.427 . S
C605 H595 0.929 . S
C605 C603 1.433 . S
C605 N608 1.384 . S
C606 H597 0.929 . S
C606 C598 1.378 . S
C606 C601 1.350 . S
C607 H594 0.929 . S
C607 C599 1.433 . S
C607 N609 1.384 . S
N608 C604 1.427 . S
N608 C605 1.384 . S
N609 C601 1.427 1_455 S
N609 C607 1.384 . S
H610 C616 0.930 . S
H611 C620 0.930 . S
H612 C625 0.929 . S
H613 C623 0.929 . S
H614 C618 0.929 . S
H615 C624 0.929 . S
C616 H610 0.930 . S
C616 C617 1.367 . S
C616 C624 1.378 . S
C617 C616 1.367 . S
C617 C625 1.433 1_545 S
C618 H614 0.929 . S
C618 C620 1.378 . S
C618 C622 1.350 . S
C619 C622 1.463 . S
C619 C624 1.350 1_565 S
C619 N627 1.427 . S
C620 H611 0.930 . S
C620 C618 1.378 . S
C620 C621 1.367 . S
C621 C620 1.367 . S
C621 C623 1.433 . S
C622 C618 1.350 . S
C622 C619 1.463 . S
C622 N626 1.427 . S
C623 H613 0.929 . S
C623 C621 1.433 . S
C623 N626 1.384 . S
C624 H615 0.929 . S
C624 C616 1.378 . S
C624 C619 1.350 1_545 S
C625 H612 0.929 . S
C625 C617 1.433 1_565 S
C625 N627 1.384 . S
N626 C622 1.427 . S
N626 C623 1.384 . S
N627 C619 1.427 . S
N627 C625 1.384 . S
H628 C634 0.930 . S
H629 C638 0.930 . S
H630 C643 0.929 . S
H631 C641 0.929 . S
H632 C636 0.929 . S
H633 C642 0.929 . S
C634 H628 0.930 . S
C634 C635 1.367 . S
C634 C642 1.378 . S
C635 C634 1.367 . S
C635 C643 1.433 . S
C636 H632 0.929 . S
C636 C638 1.378 . S
C636 C640 1.350 . S
C637 C640 1.463 . S
C637 C642 1.350 . S
C637 N645 1.427 . S
C638 H629 0.930 . S
C638 C636 1.378 . S
C638 C639 1.367 . S
C639 C638 1.367 . S
C639 C641 1.433 . S
C640 C636 1.350 . S
C640 C637 1.463 . S
C640 N644 1.427 . S
C641 H631 0.929 . S
C641 C639 1.433 . S
C641 N644 1.384 . S
C642 H633 0.929 . S
C642 C634 1.378 . S
C642 C637 1.350 . S
C643 H630 0.929 . S
C643 C635 1.433 . S
C643 N645 1.384 . S
N644 C640 1.427 . S
N644 C641 1.384 . S
N645 C637 1.427 . S
N645 C643 1.384 . S
H646 C652 0.930 . S
H647 C656 0.930 . S
H648 C661 0.929 . S
H649 C659 0.929 . S
H650 C654 0.929 . S
H651 C660 0.929 . S
C652 H646 0.930 . S
C652 C653 1.367 . S
C652 C660 1.378 . S
C653 C652 1.367 . S
C653 C661 1.433 . S
C654 H650 0.929 . S
C654 C656 1.378 . S
C654 C658 1.350 . S
C655 C658 1.463 . S
C655 C660 1.350 . S
C655 N663 1.427 . S
C656 H647 0.930 . S
C656 C654 1.378 . S
C656 C657 1.367 . S
C657 C656 1.367 . S
C657 C659 1.433 . S
C658 C654 1.350 . S
C658 C655 1.463 . S
C658 N662 1.427 . S
C659 H649 0.929 . S
C659 C657 1.433 . S
C659 N662 1.384 . S
C660 H651 0.929 . S
C660 C652 1.378 . S
C660 C655 1.350 . S
C661 H648 0.929 . S
C661 C653 1.433 . S
C661 N663 1.384 . S
N662 C658 1.427 . S
N662 C659 1.384 . S
N663 C655 1.427 . S
N663 C661 1.384 . S
H664 C670 0.930 . S
H665 C674 0.930 . S
H666 C679 0.929 . S
H667 C677 0.929 . S
H668 C672 0.929 1_655 S
H669 C678 0.929 . S
C670 H664 0.930 . S
C670 C671 1.367 1_455 S
C670 C678 1.378 . S
C671 C670 1.367 1_655 S
C671 C679 1.433 . S
C672 H668 0.929 1_455 S
C672 C674 1.378 . S
C672 C676 1.350 1_556 S
C673 C676 1.463 . S
C673 C678 1.350 . S
C673 N681 1.427 1_455 S
C674 H665 0.930 . S
C674 C672 1.378 . S
C674 C675 1.367 . S
C675 C674 1.367 . S
C675 C677 1.433 1_556 S
C676 C672 1.350 1_554 S
C676 C673 1.463 . S
C676 N680 1.427 . S
C677 H667 0.929 . S
C677 C675 1.433 1_554 S
C677 N680 1.384 . S
C678 H669 0.929 . S
C678 C670 1.378 . S
C678 C673 1.350 . S
C679 H666 0.929 . S
C679 C671 1.433 . S
C679 N681 1.384 . S
N680 C676 1.427 . S
N680 C677 1.384 . S
N681 C673 1.427 1_655 S
N681 C679 1.384 . S
H682 C688 0.930 . S
H683 C692 0.930 . S
H684 C697 0.929 . S
H685 C695 0.929 . S
H686 C690 0.929 1_565 S
H687 C696 0.929 . S
C688 H682 0.930 . S
C688 C689 1.367 1_545 S
C688 C696 1.378 . S
C689 C688 1.367 1_565 S
C689 C697 1.433 . S
C690 H686 0.929 1_545 S
C690 C692 1.378 1_554 S
C690 C694 1.350 . S
C691 C694 1.463 . S
C691 C696 1.350 . S
C691 N699 1.427 1_545 S
C692 H683 0.930 . S
C692 C690 1.378 1_556 S
C692 C693 1.367 . S
C693 C692 1.367 . S
C693 C695 1.433 . S
C694 C690 1.350 . S
C694 C691 1.463 . S
C694 N698 1.427 1_554 S
C695 H685 0.929 . S
C695 C693 1.433 . S
C695 N698 1.384 . S
C696 H687 0.929 . S
C696 C688 1.378 . S
C696 C691 1.350 . S
C697 H684 0.929 . S
C697 C689 1.433 . S
C697 N699 1.384 . S
N698 C694 1.427 1_556 S
N698 C695 1.384 . S
N699 C691 1.427 1_565 S
N699 C697 1.384 . S
H700 C706 0.930 . S
H701 C710 0.930 . S
H702 C715 0.929 . S
H703 C713 0.929 . S
H704 C708 0.929 . S
H705 C714 0.929 1_556 S
C706 H700 0.930 . S
C706 C707 1.367 . S
C706 C714 1.378 . S
C707 C706 1.367 . S
C707 C715 1.433 . S
C708 H704 0.929 . S
C708 C710 1.378 . S
C708 C712 1.350 . S
C709 C712 1.463 . S
C709 C714 1.350 . S
C709 N717 1.427 . S
C710 H701 0.930 . S
C710 C708 1.378 . S
C710 C711 1.367 1_554 S
C711 C710 1.367 1_556 S
C711 C713 1.433 . S
C712 C708 1.350 . S
C712 C709 1.463 . S
C712 N716 1.427 1_554 S
C713 H703 0.929 . S
C713 C711 1.433 . S
C713 N716 1.384 . S
C714 H705 0.929 1_554 S
C714 C706 1.378 . S
C714 C709 1.350 . S
C715 H702 0.929 . S
C715 C707 1.433 . S
C715 N717 1.384 . S
N716 C712 1.427 1_556 S
N716 C713 1.384 . S
N717 C709 1.427 . S
N717 C715 1.384 . S
H718 C724 0.930 . S
H719 C728 0.930 . S
H720 C733 0.929 . S
H721 C731 0.929 . S
H722 C726 0.929 . S
H723 C732 0.929 1_556 S
C724 H718 0.930 . S
C724 C725 1.367 . S
C724 C732 1.378 . S
C725 C724 1.367 . S
C725 C733 1.433 . S
C726 H722 0.929 . S
C726 C728 1.378 . S
C726 C730 1.350 . S
C727 C730 1.463 . S
C727 C732 1.350 . S
C727 N735 1.427 . S
C728 H719 0.930 . S
C728 C726 1.378 . S
C728 C729 1.367 1_554 S
C729 C728 1.367 1_556 S
C729 C731 1.433 . S
C730 C726 1.350 . S
C730 C727 1.463 . S
C730 N734 1.427 1_554 S
C731 H721 0.929 . S
C731 C729 1.433 . S
C731 N734 1.384 . S
C732 H723 0.929 1_554 S
C732 C724 1.378 . S
C732 C727 1.350 . S
C733 H720 0.929 . S
C733 C725 1.433 . S
C733 N735 1.384 . S
N734 C730 1.427 1_556 S
N734 C731 1.384 . S
N735 C727 1.427 . S
N735 C733 1.384 . S
H736 C742 0.930 . S
H737 C746 0.930 . S
H738 C751 0.929 . S
H739 C749 0.929 . S
H740 C744 0.929 . S
H741 C750 0.929 . S
C742 H736 0.930 . S
C742 C743 1.367 . S
C742 C750 1.378 . S
C743 C742 1.367 . S
C743 C751 1.433 1_455 S
C744 H740 0.929 . S
C744 C746 1.378 . S
C744 C748 1.350 1_655 S
C745 C748 1.463 . S
C745 C750 1.350 . S
C745 N753 1.427 1_455 S
C746 H737 0.930 . S
C746 C744 1.378 . S
C746 C747 1.367 1_655 S
C747 C746 1.367 1_455 S
C747 C749 1.433 . S
C748 C744 1.350 1_455 S
C748 C745 1.463 . S
C748 N752 1.427 . S
C749 H739 0.929 . S
C749 C747 1.433 . S
C749 N752 1.384 . S
C750 H741 0.929 . S
C750 C742 1.378 . S
C750 C745 1.350 . S
C751 H738 0.929 . S
C751 C743 1.433 1_655 S
C751 N753 1.384 . S
N752 C748 1.427 . S
N752 C749 1.384 . S
N753 C745 1.427 1_655 S
N753 C751 1.384 . S
H754 C760 0.930 . S
H755 C764 0.930 . S
H756 C769 0.929 . S
H757 C767 0.924 1_565 S
H758 C762 0.929 . S
H759 C768 0.929 . S
C760 H754 0.930 . S
C760 C761 1.367 1_565 S
C760 C768 1.378 . S
C761 C760 1.367 1_545 S
C761 C769 1.433 . S
C762 H758 0.929 . S
C762 C764 1.378 . S
C762 C766 1.350 . S
C763 C766 1.463 . S
C763 C768 1.350 1_545 S
C763 N771 1.427 . S
C764 H755 0.930 . S
C764 C762 1.378 . S
C764 C765 1.367 . S
C765 C764 1.367 . S
C765 C767 1.433 . S
C766 C762 1.350 . S
C766 C763 1.463 . S
C766 N770 1.427 . S
C767 H757 0.924 1_545 S
C767 C765 1.433 . S
C767 N770 1.384 . S
C768 H759 0.929 . S
C768 C760 1.378 . S
C768 C763 1.350 1_565 S
C769 H756 0.929 . S
C769 C761 1.433 . S
C769 N771 1.384 . S
N770 C766 1.427 . S
N770 C767 1.384 . S
N771 C763 1.427 . S
N771 C769 1.384 . S
H772 C778 0.930 . S
H773 C782 0.930 . S
H774 C787 0.929 . S
H775 C785 0.929 . S
H776 C780 0.929 . S
H777 C786 0.929 . S
C778 H772 0.930 . S
C778 C779 1.367 . S
C778 C786 1.378 . S
C779 C778 1.367 . S
C779 C787 1.433 . S
C780 H776 0.929 . S
C780 C782 1.378 . S
C780 C784 1.350 . S
C781 C784 1.463 . S
C781 C786 1.350 . S
C781 N789 1.427 . S
C782 H773 0.930 . S
C782 C780 1.378 . S
C782 C783 1.367 . S
C783 C782 1.367 . S
C783 C785 1.433 . S
C784 C780 1.350 . S
C784 C781 1.463 . S
C784 N788 1.427 . S
C785 H775 0.929 . S
C785 C783 1.433 . S
C785 N788 1.384 . S
C786 H777 0.929 . S
C786 C778 1.378 . S
C786 C781 1.350 . S
C787 H774 0.929 . S
C787 C779 1.433 . S
C787 N789 1.384 . S
N788 C784 1.427 . S
N788 C785 1.384 . S
N789 C781 1.427 . S
N789 C787 1.384 . S
H790 C796 0.930 . S
H791 C800 0.930 . S
H792 C805 0.929 . S
H793 C803 0.929 . S
H794 C798 0.929 . S
H795 C804 0.929 . S
C796 H790 0.930 . S
C796 C797 1.367 . S
C796 C804 1.378 . S
C797 C796 1.367 . S
C797 C805 1.433 . S
C798 H794 0.929 . S
C798 C800 1.378 . S
C798 C802 1.350 . S
C799 C802 1.463 . S
C799 C804 1.350 . S
C799 N807 1.427 . S
C800 H791 0.930 . S
C800 C798 1.378 . S
C800 C801 1.367 . S
C801 C800 1.367 . S
C801 C803 1.433 . S
C802 C798 1.350 . S
C802 C799 1.463 . S
C802 N806 1.427 . S
C803 H793 0.929 . S
C803 C801 1.433 . S
C803 N806 1.384 . S
C804 H795 0.929 . S
C804 C796 1.378 . S
C804 C799 1.350 . S
C805 H792 0.929 . S
C805 C797 1.433 . S
C805 N807 1.384 . S
N806 C802 1.427 . S
N806 C803 1.384 . S
N807 C799 1.427 . S
N807 C805 1.384 . S
H808 C814 0.930 . S
H809 C818 0.930 . S
H810 C823 0.929 . S
H811 C821 0.929 . S
H812 C816 0.929 . S
H813 C822 0.929 . S
C814 H808 0.930 . S
C814 C815 1.367 . S
C814 C822 1.378 . S
C815 C814 1.367 . S
C815 C823 1.433 1_655 S
C816 H812 0.929 . S
C816 C818 1.378 . S
C816 C820 1.350 1_455 S
C817 C820 1.463 . S
C817 C822 1.350 . S
C817 N825 1.427 1_655 S
C818 H809 0.930 . S
C818 C816 1.378 . S
C818 C819 1.367 1_455 S
C819 C818 1.367 1_655 S
C819 C821 1.433 . S
C820 C816 1.350 1_655 S
C820 C817 1.463 . S
C820 N824 1.427 . S
C821 H811 0.929 . S
C821 C819 1.433 . S
C821 N824 1.384 . S
C822 H813 0.929 . S
C822 C814 1.378 . S
C822 C817 1.350 . S
C823 H810 0.929 . S
C823 C815 1.433 1_455 S
C823 N825 1.384 . S
N824 C820 1.427 . S
N824 C821 1.384 . S
N825 C817 1.427 1_455 S
N825 C823 1.384 . S
H826 C832 0.930 . S
H827 C836 0.930 . S
H828 C841 0.929 . S
H829 C839 0.929 . S
H830 C834 0.929 . S
H831 C840 0.929 . S
C832 H826 0.930 . S
C832 C833 1.367 1_545 S
C832 C840 1.378 . S
C833 C832 1.367 1_565 S
C833 C841 1.433 . S
C834 H830 0.929 . S
C834 C836 1.378 . S
C834 C838 1.350 . S
C835 C838 1.463 . S
C835 C840 1.350 1_565 S
C835 N843 1.427 . S
C836 H827 0.930 . S
C836 C834 1.378 . S
C836 C837 1.367 . S
C837 C836 1.367 . S
C837 C839 1.433 1_565 S
C838 C834 1.350 . S
C838 C835 1.463 . S
C838 N842 1.427 1_565 S
C839 H829 0.929 . S
C839 C837 1.433 1_545 S
C839 N842 1.384 . S
C840 H831 0.929 . S
C840 C832 1.378 . S
C840 C835 1.350 1_545 S
C841 H828 0.929 . S
C841 C833 1.433 . S
C841 N843 1.384 . S
N842 C838 1.427 1_545 S
N842 C839 1.384 . S
N843 C835 1.427 . S
N843 C841 1.384 . S
H844 C850 0.930 . S
H845 C854 0.930 . S
H846 C859 0.929 . S
H847 C857 0.929 . S
H848 C852 0.929 . S
H849 C858 0.929 . S
C850 H844 0.930 . S
C850 C851 1.367 . S
C850 C858 1.378 . S
C851 C850 1.367 . S
C851 C859 1.433 . S
C852 H848 0.929 . S
C852 C854 1.378 . S
C852 C856 1.350 . S
C853 C856 1.463 . S
C853 C858 1.350 . S
C853 N861 1.427 . S
C854 H845 0.930 . S
C854 C852 1.378 . S
C854 C855 1.367 . S
C855 C854 1.367 . S
C855 C857 1.433 . S
C856 C852 1.350 . S
C856 C853 1.463 . S
C856 N860 1.427 . S
C857 H847 0.929 . S
C857 C855 1.433 . S
C857 N860 1.384 . S
C858 H849 0.929 . S
C858 C850 1.378 . S
C858 C853 1.350 . S
C859 H846 0.929 . S
C859 C851 1.433 . S
C859 N861 1.384 . S
N860 C856 1.427 . S
N860 C857 1.384 . S
N861 C853 1.427 . S
N861 C859 1.384 . S
H862 C868 0.930 . S
H863 C872 0.930 . S
H864 C877 0.929 . S
H865 C875 0.929 . S
H866 C870 0.929 . S
H867 C876 0.929 . S
C868 H862 0.930 . S
C868 C869 1.367 . S
C868 C876 1.378 . S
C869 C868 1.367 . S
C869 C877 1.433 . S
C870 H866 0.929 . S
C870 C872 1.378 . S
C870 C874 1.350 . S
C871 C874 1.463 . S
C871 C876 1.350 . S
C871 N879 1.427 . S
C872 H863 0.930 . S
C872 C870 1.378 . S
C872 C873 1.367 . S
C873 C872 1.367 . S
C873 C875 1.433 . S
C874 C870 1.350 . S
C874 C871 1.463 . S
C874 N878 1.427 . S
C875 H865 0.929 . S
C875 C873 1.433 . S
C875 N878 1.384 . S
C876 H867 0.929 . S
C876 C868 1.378 . S
C876 C871 1.350 . S
C877 H864 0.929 . S
C877 C869 1.433 . S
C877 N879 1.384 . S
N878 C874 1.427 . S
N878 C875 1.384 . S
N879 C871 1.427 . S
N879 C877 1.384 . S
C455 C241 2.105 . S
C459 C298 2.327 1_545 S
C477 C338 2.355 . S
C473 C277 2.187 . S
C495 C378 2.337 . S
C491 C169 2.100 . S
C513 C418 2.342 1_455 S
C509 C205 2.112 . S
C531 C307 2.331 1_565 S
C527 C97 2.105 1_565 S
C545 C133 2.184 . S
C549 C347 2.356 . S
C563 C25 2.103 . S
C567 C387 2.337 . S
C581 C61 2.108 1_655 S
C585 C427 2.342 1_655 S
C603 C304 0.434 . S
C599 C211 0.412 . S
C621 C344 0.478 . S
C617 C247 0.452 . S
C639 C384 0.439 . S
C635 C253 0.452 . S
C653 C175 0.417 . S
C657 C424 0.429 . S
C671 C67 0.464 1_655 S
C675 C295 0.433 . S
C693 C335 0.437 . S
C689 C103 0.474 1_565 S
C711 C375 0.467 . S
C707 C109 0.420 . S
C725 C31 0.503 . S
C729 C415 0.460 . S
C743 C181 2.848 . S
C747 C299 3.208 . S
C761 C217 2.825 . S
C765 C339 3.201 . S
C783 C379 3.210 . S
C779 C283 2.767 . S
C801 C419 3.203 . S
C797 C145 2.834 . S
C815 C37 2.855 1_655 S
C819 C290 3.220 . S
C837 C330 3.205 . S
C833 C73 2.840 1_565 S
C855 C370 3.212 . S
C851 C139 2.765 . S
C869 C1 2.845 . S
C873 C410 3.207 . S
