# Generated by pormake.
# Topology the, (3,8)-cn, num edge types: 1
# Building blocks:
#     Node 0, Type 0, BuildingBlock: PAMTOO_clean_linker_0, # of connection points: 3
#     Node 1, Type 0, BuildingBlock: PAMTOO_clean_linker_0, # of connection points: 3
#     Node 2, Type 0, BuildingBlock: PAMTOO_clean_linker_0, # of connection points: 3
#     Node 3, Type 0, BuildingBlock: PAMTOO_clean_linker_0, # of connection points: 3
#     Node 4, Type 0, BuildingBlock: PAMTOO_clean_linker_0, # of connection points: 3
#     Node 5, Type 0, BuildingBlock: PAMTOO_clean_linker_0, # of connection points: 3
#     Node 6, Type 0, BuildingBlock: PAMTOO_clean_linker_0, # of connection points: 3
#     Node 7, Type 0, BuildingBlock: PAMTOO_clean_linker_0, # of connection points: 3
#     Node 8, Type 1, BuildingBlock: GIZVER_clean_sbu_0, # of connection points: 8
#     Node 9, Type 1, BuildingBlock: GIZVER_clean_sbu_0, # of connection points: 8
#     Node 10, Type 1, BuildingBlock: GIZVER_clean_sbu_0, # of connection points: 8
#     Edge 11, Type (0, 1), BuildingBlock: UVAHIK_clean_linker_0, # of connection points: 2
#     Edge 12, Type (0, 1), BuildingBlock: UVAHIK_clean_linker_0, # of connection points: 2
#     Edge 13, Type (0, 1), BuildingBlock: UVAHIK_clean_linker_0, # of connection points: 2
#     Edge 14, Type (0, 1), BuildingBlock: UVAHIK_clean_linker_0, # of connection points: 2
#     Edge 15, Type (0, 1), BuildingBlock: UVAHIK_clean_linker_0, # of connection points: 2
#     Edge 16, Type (0, 1), BuildingBlock: UVAHIK_clean_linker_0, # of connection points: 2
#     Edge 17, Type (0, 1), BuildingBlock: UVAHIK_clean_linker_0, # of connection points: 2
#     Edge 18, Type (0, 1), BuildingBlock: UVAHIK_clean_linker_0, # of connection points: 2
#     Edge 19, Type (0, 1), BuildingBlock: UVAHIK_clean_linker_0, # of connection points: 2
#     Edge 20, Type (0, 1), BuildingBlock: UVAHIK_clean_linker_0, # of connection points: 2
#     Edge 21, Type (0, 1), BuildingBlock: UVAHIK_clean_linker_0, # of connection points: 2
#     Edge 22, Type (0, 1), BuildingBlock: UVAHIK_clean_linker_0, # of connection points: 2
#     Edge 23, Type (0, 1), BuildingBlock: UVAHIK_clean_linker_0, # of connection points: 2
#     Edge 24, Type (0, 1), BuildingBlock: UVAHIK_clean_linker_0, # of connection points: 2
#     Edge 25, Type (0, 1), BuildingBlock: UVAHIK_clean_linker_0, # of connection points: 2
#     Edge 26, Type (0, 1), BuildingBlock: UVAHIK_clean_linker_0, # of connection points: 2
#     Edge 27, Type (0, 1), BuildingBlock: UVAHIK_clean_linker_0, # of connection points: 2
#     Edge 28, Type (0, 1), BuildingBlock: UVAHIK_clean_linker_0, # of connection points: 2
#     Edge 29, Type (0, 1), BuildingBlock: UVAHIK_clean_linker_0, # of connection points: 2
#     Edge 30, Type (0, 1), BuildingBlock: UVAHIK_clean_linker_0, # of connection points: 2
#     Edge 31, Type (0, 1), BuildingBlock: UVAHIK_clean_linker_0, # of connection points: 2
#     Edge 32, Type (0, 1), BuildingBlock: UVAHIK_clean_linker_0, # of connection points: 2
#     Edge 33, Type (0, 1), BuildingBlock: UVAHIK_clean_linker_0, # of connection points: 2
#     Edge 34, Type (0, 1), BuildingBlock: UVAHIK_clean_linker_0, # of connection points: 2
# Relax obj value: 0.073
# Max RMSD: 0.218
# Mean RMSD: 0.147
data_MOF--net-the--node1-GIZVER_clean_sbu_0--node2-PAMTOO_clean_linker_0--edge1-UVAHIK_clean_linker_0
_symmetry_space_group_name_H-M    P1
_symmetry_Int_Tables_number       1
_symmetry_cell_setting            triclinic
loop_
_symmetry_equiv_pos_as_xyz
'x, y, z'
_cell_length_a     52.450274
_cell_length_b     49.298699
_cell_length_c     45.71087
_cell_angle_alpha  88.47364
_cell_angle_beta   93.462173
_cell_angle_gamma 105.80343
loop_
_atom_site_label
_atom_site_type_symbol
_atom_site_fract_x
_atom_site_fract_y
_atom_site_fract_z
_atom_type_partial_charge
H0 H 0.26659 0.39188 0.37167 0.0
H1 H 0.27067 0.33971 0.44773 0.0
H2 H 0.32579 0.34565 0.38089 0.0
H3 H 0.29883 0.28853 0.40067 0.0
C4 C 0.29864 0.29254 0.42449 0.0
O5 O 0.30907 0.32093 0.42997 0.0
H6 H 0.27772 0.28589 0.43107 0.0
C7 C 0.27608 0.37787 0.38399 0.0
C8 C 0.29774 0.37063 0.37275 0.0
C9 C 0.2665 0.36715 0.41116 0.0
C10 C 0.27823 0.34854 0.42699 0.0
C11 C 0.29911 0.34038 0.4156 0.0
C12 C 0.30913 0.35172 0.38889 0.0
H13 H 0.7098 0.30779 0.37694 0.0
H14 H 0.65088 0.30421 0.306 0.0
H15 H 0.71889 0.37533 0.31325 0.0
H16 H 0.67102 0.39172 0.29987 0.0
C17 C 0.65824 0.37203 0.2897 0.0
O18 O 0.67347 0.35389 0.28496 0.0
H19 H 0.6427 0.3623 0.3053 0.0
C20 C 0.70295 0.31659 0.35699 0.0
C21 C 0.71781 0.34303 0.34668 0.0
C22 C 0.67871 0.3021 0.34259 0.0
C23 C 0.66936 0.31472 0.31769 0.0
C24 C 0.68364 0.34121 0.30763 0.0
C25 C 0.70796 0.35503 0.32171 0.0
H26 H 0.63569 0.74977 0.33391 0.0
H27 H 0.69166 0.70017 0.33204 0.0
H28 H 0.69847 0.75857 0.40154 0.0
H29 H 0.74933 0.75479 0.38092 0.0
C30 C 0.74375 0.73215 0.37475 0.0
O31 O 0.71765 0.71997 0.38094 0.0
H32 H 0.74618 0.73076 0.35088 0.0
C33 C 0.65306 0.7442 0.34334 0.0
C34 C 0.6659 0.75708 0.36945 0.0
C35 C 0.66236 0.72385 0.32942 0.0
C36 C 0.68457 0.71624 0.34202 0.0
C37 C 0.69729 0.72864 0.36807 0.0
C38 C 0.68811 0.74904 0.38157 0.0
H39 H 0.25232 0.7488 0.37614 0.0
H40 H 0.24511 0.68649 0.30916 0.0
H41 H 0.31899 0.74852 0.32591 0.0
H42 H 0.30775 0.73308 0.2639 0.0
C43 C 0.29529 0.71104 0.26651 0.0
O44 O 0.29435 0.70374 0.29584 0.0
H45 H 0.2749 0.70968 0.25713 0.0
C46 C 0.26045 0.74012 0.35852 0.0
C47 C 0.28712 0.7521 0.3522 0.0
C48 C 0.24496 0.71602 0.34355 0.0
C49 C 0.25649 0.70472 0.32144 0.0
C50 C 0.28304 0.71637 0.31527 0.0
C51 C 0.29833 0.7399 0.33066 0.0
H52 H 0.28273 0.75757 0.70615 0.0
H53 H 0.28042 0.68519 0.76172 0.0
H54 H 0.34863 0.75634 0.7672 0.0
H55 H 0.35812 0.70051 0.76703 0.0
C56 C 0.3423 0.68915 0.78161 0.0
O57 O 0.32683 0.70647 0.78828 0.0
H58 H 0.32985 0.67037 0.76961 0.0
C59 C 0.29198 0.7472 0.72321 0.0
C60 C 0.31742 0.76087 0.73552 0.0
C61 C 0.27863 0.71974 0.73216 0.0
C62 C 0.29046 0.70629 0.75442 0.0
C63 C 0.31545 0.71977 0.76717 0.0
C64 C 0.32889 0.74681 0.7577 0.0
H65 H 0.27831 0.38064 0.74341 0.0
H66 H 0.26611 0.31999 0.67416 0.0
H67 H 0.32989 0.32638 0.7391 0.0
H68 H 0.33892 0.3273 0.67284 0.0
C69 C 0.32255 0.30795 0.66782 0.0
O70 O 0.30647 0.30089 0.69124 0.0
H71 H 0.31072 0.31275 0.64831 0.0
C72 C 0.28403 0.36404 0.73264 0.0
C73 C 0.30575 0.35503 0.74453 0.0
C74 C 0.26939 0.35155 0.7073 0.0
C75 C 0.27667 0.32955 0.69403 0.0
C76 C 0.29855 0.3207 0.70539 0.0
C77 C 0.31285 0.33321 0.73072 0.0
H78 H 0.64482 0.31386 0.76732 0.0
H79 H 0.71855 0.37834 0.78087 0.0
H80 H 0.71349 0.31234 0.7204 0.0
H81 H 0.76249 0.32683 0.75743 0.0
C82 C 0.76503 0.34987 0.75955 0.0
O83 O 0.74436 0.35739 0.74453 0.0
H84 H 0.76521 0.35458 0.78326 0.0
C85 C 0.66534 0.3229 0.76229 0.0
C86 C 0.67715 0.30945 0.74217 0.0
C87 C 0.68006 0.3478 0.77644 0.0
C88 C 0.70692 0.35898 0.77062 0.0
C89 C 0.7188 0.34588 0.75075 0.0
C90 C 0.70398 0.32149 0.73641 0.0
H91 H 0.64991 0.73712 0.70078 0.0
H92 H 0.70021 0.68225 0.69099 0.0
H93 H 0.70082 0.74864 0.62831 0.0
H94 H 0.70865 0.70185 0.60004 0.0
C95 C 0.71435 0.68983 0.6191 0.0
O96 O 0.72089 0.70703 0.64326 0.0
H97 H 0.69713 0.67151 0.62355 0.0
C98 C 0.66455 0.73081 0.6888 0.0
C99 C 0.67395 0.74549 0.66312 0.0
C100 C 0.67401 0.70805 0.69915 0.0
C101 C 0.69269 0.69974 0.68331 0.0
C102 C 0.7024 0.71457 0.65797 0.0
C103 C 0.69328 0.73753 0.64811 0.0
Co104 Co 0.05136 0.50374 0.55545 0.0
Co105 Co 0.02337 0.48909 0.50658 0.0
Co106 Co 0.99914 0.53126 0.53935 0.0
O107 O 0.01478 0.49844 0.54304 0.0
H108 H 1.00317 0.48222 0.55223 0.0
O109 O 0.98314 0.56371 0.53584 0.0
Co110 Co 0.94584 0.55715 0.52564 0.0
Co111 Co 0.97673 0.57405 0.5734 0.0
H112 H 0.99399 0.57968 0.52556 0.0
O113 O 0.02839 0.45427 0.499 0.0
O114 O 0.05907 0.49282 0.51614 0.0
O115 O 0.02187 0.51496 0.47474 0.0
O116 O 0.01997 0.54914 0.50458 0.0
O117 O 0.97019 0.50805 0.51252 0.0
O118 O 0.91215 0.55451 0.51492 0.0
O119 O 0.94734 0.59269 0.51311 0.0
O120 O 0.93932 0.51884 0.53642 0.0
O121 O 0.97837 0.5138 0.57429 0.0
O122 O 0.98119 0.54876 0.6051 0.0
O123 O 0.9403 0.56647 0.56591 0.0
O124 O 0.96749 0.60763 0.58099 0.0
C125 C 0.07373 0.47969 0.57577 0.0
C126 C 0.05261 0.55816 0.56114 0.0
C127 C 0.02487 0.54084 0.47977 0.0
C128 C 0.05298 0.46728 0.50595 0.0
C129 C 0.92196 0.58098 0.5082 0.0
C130 C 0.94592 0.50318 0.51841 0.0
C131 C 0.97593 0.52261 0.59978 0.0
C132 C 0.94364 0.59199 0.57484 0.0
O133 O 0.08421 0.50586 0.56852 0.0
O134 O 0.04853 0.46817 0.56935 0.0
O135 O 0.02821 0.5545 0.56597 0.0
O136 O 0.05903 0.54183 0.54368 0.0
Co137 Co 0.52426 0.97376 0.52196 0.0
Co138 Co 0.53859 1.00076 0.57176 0.0
Co139 Co 0.49881 0.02851 0.53619 0.0
O140 O 0.52952 0.01205 0.53409 0.0
H141 H 0.54467 0.02496 0.52568 0.0
O142 O 0.46819 0.04508 0.53849 0.0
Co143 Co 0.47388 0.08312 0.55179 0.0
Co144 Co 0.4587 0.05727 0.50148 0.0
H145 H 0.45302 0.03209 0.54685 0.0
O146 O 0.57151 0.99434 0.58094 0.0
O147 O 0.53462 0.96344 0.56225 0.0
O148 O 0.51417 0.99972 0.60215 0.0
O149 O 0.48218 1.00289 0.5692 0.0
O150 O 0.52065 0.05657 0.56496 0.0
O151 O 0.47621 0.11715 0.56516 0.0
O152 O 0.44057 0.0793 0.56349 0.0
O153 O 0.50977 0.09202 0.54231 0.0
O154 O 0.51539 0.05422 0.50294 0.0
O155 O 0.48286 0.05862 0.47118 0.0
O156 O 0.46343 0.09446 0.51209 0.0
O157 O 0.42598 0.06485 0.49312 0.0
C158 C 0.54683 0.95066 0.50439 0.0
C159 C 0.47273 0.97371 0.51293 0.0
C160 C 0.48978 0.99599 0.59473 0.0
C161 C 0.55901 0.96888 0.57298 0.0
C162 C 0.45147 0.10566 0.57037 0.0
C163 C 0.52488 0.083 0.56052 0.0
C164 C 0.50733 0.06188 0.47786 0.0
C165 C 0.43895 0.08987 0.50198 0.0
O166 O 0.52213 0.9394 0.50989 0.0
O167 O 0.55771 0.97723 0.51049 0.0
O168 O 0.47672 1.00009 0.50787 0.0
O169 O 0.48835 0.96506 0.53087 0.0
Co170 Co 0.46173 0.53324 0.09542 0.0
Co171 Co 0.45074 0.48345 0.07232 0.0
Co172 Co 0.49629 0.52681 0.03685 0.0
O173 O 0.46231 0.51971 0.05698 0.0
H174 H 0.44836 0.52347 0.0441 0.0
O175 O 0.52997 0.53369 0.01613 0.0
Co176 Co 0.52866 0.52052 0.97692 0.0
Co177 Co 0.54123 0.56971 1.00064 0.0
H178 H 0.54406 0.52941 0.02842 0.0
O179 O 0.41552 0.46723 0.08208 0.0
O180 O 0.44861 0.49431 0.11043 0.0
O181 O 0.47626 0.46185 0.07409 0.0
O182 O 0.50983 0.49752 0.06026 0.0
O183 O 0.47681 0.49781 0.00745 0.0
O184 O 0.5301 0.50714 0.94176 0.0
O185 O 0.56135 0.51471 0.97889 0.0
O186 O 0.49378 0.52371 0.9698 0.0
O187 O 0.48271 0.55618 0.0136 0.0
O188 O 0.51639 0.592 1.00052 0.0
O189 O 0.54281 0.55956 0.962 0.0
O190 O 0.57602 0.58607 0.99097 0.0
C191 C 0.43526 0.54714 0.11795 0.0
C192 C 0.51497 0.55145 0.09403 0.0
C193 C 0.5009 0.47287 0.07143 0.0
C194 C 0.42446 0.47833 0.10737 0.0
C195 C 0.55312 0.50536 0.95254 0.0
C196 C 0.47543 0.50421 0.98032 0.0
C197 C 0.49174 0.58102 1.00297 0.0
C198 C 0.56683 0.576 0.96532 0.0
O199 O 0.45823 0.54673 0.13014 0.0
O200 O 0.42857 0.53737 0.09151 0.0
O201 O 0.51568 0.55596 0.06641 0.0
O202 O 0.4967 0.53147 0.10394 0.0
C203 C 0.21963 0.36979 0.40645 0.0
C204 C 0.24393 0.3751 0.42276 0.0
C205 C 0.19834 0.37762 0.41719 0.0
C206 C 0.17481 0.40164 0.48512 0.0
H207 H 0.12733 0.42659 0.42892 0.0
C208 C 0.10048 0.46575 0.51079 0.0
C209 C 0.07419 0.45396 0.49999 0.0
C210 C 0.1207 0.45401 0.50364 0.0
C211 C 0.14037 0.41948 0.44479 0.0
H212 H 0.26538 0.3927 0.46283 0.0
H213 H 0.22871 0.40778 0.4811 0.0
H214 H 0.16393 0.41106 0.4116 0.0
H215 H 0.04852 0.42043 0.47346 0.0
H216 H 0.08412 0.40068 0.46011 0.0
H217 H 0.15163 0.41166 0.51832 0.0
C218 C 0.22557 0.3967 0.4605 0.0
C219 C 0.16127 0.41036 0.43493 0.0
C220 C 0.24668 0.38829 0.45 0.0
C221 C 0.06853 0.42999 0.48221 0.0
C222 C 0.08884 0.41869 0.47451 0.0
C223 C 0.15419 0.41136 0.49499 0.0
C224 C 0.20109 0.39154 0.4442 0.0
C225 C 0.17874 0.40117 0.45492 0.0
C226 C 0.11508 0.43076 0.48497 0.0
C227 C 0.13676 0.4202 0.47486 0.0
H228 H 0.21706 0.35933 0.3855 0.0
H229 H 0.17969 0.37259 0.4043 0.0
H230 H 0.18748 0.39429 0.5012 0.0
H231 H 0.10557 0.48432 0.52434 0.0
H232 H 0.14088 0.46373 0.51178 0.0
C233 C 0.67537 0.25479 0.36708 0.0
C234 C 0.66282 0.27434 0.35403 0.0
C235 C 0.66041 0.22904 0.37828 0.0
C236 C 0.59516 0.17787 0.37172 0.0
H237 H 0.60921 0.15763 0.45243 0.0
C238 C 0.51854 0.09502 0.43512 0.0
C239 C 0.52701 0.07978 0.45841 0.0
C240 C 0.53686 0.11563 0.41992 0.0
C241 C 0.60531 0.16249 0.42964 0.0
H242 H 0.62441 0.28187 0.34305 0.0
H243 H 0.59852 0.23662 0.36153 0.0
H244 H 0.63806 0.19974 0.43075 0.0
H245 H 0.56166 0.07304 0.48262 0.0
H246 H 0.59372 0.10826 0.45533 0.0
H247 H 0.56266 0.14065 0.37026 0.0
C248 C 0.61997 0.24132 0.36298 0.0
C249 C 0.6218 0.18678 0.41731 0.0
C250 C 0.63489 0.26723 0.35225 0.0
C251 C 0.55441 0.08449 0.46493 0.0
C252 C 0.5728 0.10494 0.44944 0.0
C253 C 0.57892 0.15335 0.38386 0.0
C254 C 0.63257 0.22203 0.37623 0.0
C255 C 0.61655 0.195 0.38844 0.0
C256 C 0.56424 0.12137 0.42727 0.0
C257 C 0.58338 0.14563 0.41322 0.0
H258 H 0.69679 0.2592 0.36845 0.0
H259 H 0.6706 0.21445 0.38825 0.0
H260 H 0.59091 0.18355 0.34926 0.0
H261 H 0.49761 0.09212 0.42951 0.0
H262 H 0.52933 0.12799 0.40334 0.0
C263 C 0.7856 0.73206 0.40536 0.0
C264 C 0.76162 0.71691 0.39124 0.0
C265 C 0.80284 0.71793 0.41933 0.0
C266 C 0.81881 0.64908 0.42006 0.0
H267 H 0.85823 0.67587 0.49301 0.0
C268 C 0.87787 0.58359 0.48637 0.0
C269 C 0.90392 0.59755 0.49629 0.0
C270 C 0.86064 0.59876 0.47477 0.0
C271 C 0.84752 0.66832 0.47251 0.0
H272 H 0.73709 0.67517 0.38006 0.0
H273 H 0.76669 0.65037 0.40507 0.0
H274 H 0.82748 0.70088 0.47065 0.0
H275 H 0.93198 0.63855 0.50286 0.0
H276 H 0.90166 0.66521 0.48257 0.0
H277 H 0.83859 0.61638 0.42208 0.0
C278 C 0.77241 0.67319 0.40523 0.0
C279 C 0.82991 0.68264 0.45965 0.0
C280 C 0.75529 0.68734 0.39114 0.0
C281 C 0.91214 0.62717 0.49504 0.0
C282 C 0.89473 0.64243 0.48367 0.0
C283 C 0.83622 0.63471 0.43299 0.0
C284 C 0.79653 0.68829 0.41934 0.0
C285 C 0.81528 0.67316 0.43327 0.0
C286 C 0.86891 0.62833 0.47304 0.0
C287 C 0.85073 0.6441 0.45937 0.0
H288 H 0.79118 0.75489 0.40531 0.0
H289 H 0.8214 0.73028 0.42949 0.0
H290 H 0.80839 0.64149 0.39944 0.0
H291 H 0.8708 0.5608 0.48722 0.0
H292 H 0.84075 0.58731 0.46718 0.0
C293 C 0.32801 0.77485 0.38295 0.0
C294 C 0.30373 0.77633 0.36925 0.0
C295 C 0.34363 0.7974 0.39944 0.0
C296 C 0.36057 0.87306 0.40765 0.0
H297 H 0.38537 0.85789 0.48639 0.0
C298 C 0.43063 0.96071 0.4805 0.0
C299 C 0.45065 0.95269 0.49753 0.0
C300 C 0.4102 0.94034 0.46584 0.0
C301 C 0.37891 0.86251 0.46433 0.0
H302 H 0.27684 0.80255 0.36163 0.0
H303 H 0.30471 0.84256 0.39001 0.0
H304 H 0.35493 0.82009 0.45832 0.0
H305 H 0.46502 0.91698 0.51221 0.0
H306 H 0.43035 0.88201 0.48619 0.0
H307 H 0.38551 0.91516 0.41302 0.0
C308 C 0.3114 0.82376 0.38815 0.0
C309 C 0.36134 0.84085 0.44836 0.0
C310 C 0.29547 0.80092 0.37209 0.0
C311 C 0.44983 0.92397 0.49952 0.0
C312 C 0.4297 0.90377 0.48472 0.0
C313 C 0.37855 0.89472 0.42347 0.0
C314 C 0.33551 0.82207 0.40215 0.0
C315 C 0.35234 0.84579 0.41973 0.0
C316 C 0.4095 0.91157 0.46778 0.0
C317 C 0.38837 0.88956 0.45184 0.0
H318 H 0.33473 0.75605 0.38124 0.0
H319 H 0.36223 0.79567 0.40988 0.0
H320 H 0.35394 0.87733 0.38553 0.0
H321 H 0.43069 0.98268 0.47859 0.0
H322 H 0.39486 0.94712 0.4532 0.0
C323 C 0.24997 0.67709 0.70661 0.0
C324 C 0.25314 0.70439 0.71704 0.0
C325 C 0.22642 0.66265 0.6916 0.0
C326 C 0.16592 0.6735 0.65149 0.0
H327 H 0.1431 0.59191 0.65741 0.0
C328 C 0.06797 0.59727 0.59798 0.0
C329 C 0.07382 0.57807 0.57894 0.0
C330 C 0.08815 0.61455 0.61607 0.0
C331 C 0.1492 0.61472 0.65572 0.0
H332 H 0.23408 0.73792 0.72028 0.0
H333 H 0.19242 0.71235 0.69487 0.0
H334 H 0.18094 0.61807 0.68807 0.0
H335 H 0.10565 0.56271 0.5634 0.0
H336 H 0.14031 0.59199 0.59558 0.0
H337 H 0.13352 0.66968 0.6193 0.0
C338 C 0.20837 0.70229 0.69763 0.0
C339 C 0.17105 0.62975 0.67304 0.0
C340 C 0.23217 0.71692 0.71232 0.0
C341 C 0.10029 0.577 0.57795 0.0
C342 C 0.12021 0.59374 0.59636 0.0
C343 C 0.14369 0.6584 0.63451 0.0
C344 C 0.20519 0.67493 0.68699 0.0
C345 C 0.1802 0.65931 0.67062 0.0
C346 C 0.11431 0.61244 0.61574 0.0
C347 C 0.13558 0.62886 0.63605 0.0
H348 H 0.26599 0.66711 0.70948 0.0
H349 H 0.22515 0.64201 0.6831 0.0
H350 H 0.17244 0.69617 0.64874 0.0
H351 H 0.04782 0.5987 0.59918 0.0
H352 H 0.08324 0.62892 0.63089 0.0
C353 C 0.36097 0.28648 0.66567 0.0
C354 C 0.33377 0.28398 0.66063 0.0
C355 C 0.37187 0.26548 0.65643 0.0
C356 C 0.3565 0.19116 0.634 0.0
H357 H 0.42179 0.21771 0.59366 0.0
C358 C 0.40801 0.116 0.57882 0.0
C359 C 0.43586 0.12341 0.58211 0.0
C360 C 0.39387 0.1344 0.58795 0.0
C361 C 0.40372 0.20988 0.60515 0.0
H362 H 0.29638 0.25709 0.64333 0.0
H363 H 0.31544 0.22005 0.62721 0.0
H364 H 0.40047 0.25159 0.61158 0.0
H365 H 0.47064 0.15546 0.59836 0.0
H366 H 0.44618 0.18689 0.6149 0.0
H367 H 0.36007 0.14936 0.62785 0.0
C368 C 0.32834 0.23832 0.63822 0.0
C369 C 0.39149 0.22934 0.61541 0.0
C370 C 0.31744 0.25947 0.64735 0.0
C371 C 0.4492 0.14918 0.5953 0.0
C372 C 0.43515 0.16735 0.60458 0.0
C373 C 0.36888 0.1716 0.62384 0.0
C374 C 0.35578 0.24139 0.64211 0.0
C375 C 0.36796 0.22028 0.63033 0.0
C376 C 0.40735 0.16047 0.60067 0.0
C377 C 0.39289 0.18078 0.6097 0.0
H378 H 0.37395 0.30505 0.67612 0.0
H379 H 0.393 0.26822 0.66025 0.0
H380 H 0.33839 0.18353 0.64544 0.0
H381 H 0.39721 0.09641 0.56843 0.0
H382 H 0.37248 0.12854 0.58438 0.0
C383 C 0.79935 0.35637 0.72183 0.0
C384 C 0.79069 0.36602 0.74702 0.0
C385 C 0.8224 0.37215 0.70909 0.0
C386 C 0.86501 0.44489 0.70395 0.0
H387 H 0.91411 0.40933 0.67098 0.0
C388 C 0.95742 0.5115 0.64936 0.0
C389 C 0.96159 0.50226 0.62166 0.0
C390 C 0.93986 0.49368 0.66791 0.0
C391 C 0.90053 0.41955 0.67999 0.0
H392 H 0.79876 0.39985 0.77836 0.0
H393 H 0.83931 0.42737 0.75643 0.0
H394 H 0.8765 0.38061 0.69691 0.0
H395 H 0.95187 0.46629 0.59263 0.0
H396 H 0.92113 0.43539 0.62484 0.0
H397 H 0.88858 0.48368 0.68661 0.0
C398 C 0.82836 0.40762 0.74646 0.0
C399 C 0.87897 0.4031 0.6948 0.0
C400 C 0.8053 0.39182 0.75915 0.0
C401 C 0.94915 0.47416 0.61379 0.0
C402 C 0.93153 0.45636 0.63233 0.0
C403 C 0.88652 0.46129 0.68918 0.0
C404 C 0.8371 0.39806 0.72116 0.0
C405 C 0.86082 0.41556 0.70672 0.0
C406 C 0.92604 0.46622 0.65919 0.0
C407 C 0.90443 0.44882 0.6768 0.0
H408 H 0.78806 0.33676 0.7118 0.0
H409 H 0.82828 0.36443 0.68932 0.0
H410 H 0.85118 0.45512 0.7124 0.0
H411 H 0.96686 0.53291 0.65628 0.0
H412 H 0.93651 0.50172 0.68874 0.0
C413 C 0.68048 0.79472 0.64359 0.0
C414 C 0.66326 0.76876 0.65162 0.0
C415 C 0.67033 0.81654 0.63241 0.0
C416 C 0.61204 0.83113 0.59455 0.0
H417 H 0.63691 0.90455 0.63074 0.0
C418 C 0.55741 0.91766 0.57549 0.0
C419 C 0.57226 0.94604 0.57682 0.0
C420 C 0.56969 0.89612 0.58139 0.0
C421 C 0.63009 0.8844 0.61989 0.0
H422 H 0.62206 0.74501 0.65384 0.0
H423 H 0.60427 0.78315 0.63393 0.0
H424 H 0.6563 0.86685 0.64726 0.0
H425 H 0.61187 0.97408 0.5834 0.0
H426 H 0.63344 0.93657 0.59277 0.0
H427 H 0.58607 0.84865 0.56685 0.0
C428 C 0.62558 0.78659 0.63641 0.0
C429 C 0.64114 0.86277 0.62953 0.0
C430 C 0.63573 0.76492 0.64803 0.0
C431 C 0.59981 0.95241 0.58275 0.0
C432 C 0.61215 0.93088 0.58827 0.0
C433 C 0.60123 0.8529 0.58457 0.0
C434 C 0.64279 0.81263 0.62861 0.0
C435 C 0.63199 0.83586 0.61721 0.0
C436 C 0.59717 0.90247 0.58839 0.0
C437 C 0.60987 0.87974 0.59739 0.0
H438 H 0.70179 0.7982 0.64625 0.0
H439 H 0.68399 0.83641 0.62648 0.0
H440 H 0.60488 0.81061 0.58447 0.0
H441 H 0.53613 0.91208 0.57084 0.0
H442 H 0.55742 0.87455 0.58152 0.0
C443 C 0.34229 0.28541 0.44535 0.0
C444 C 0.3146 0.27529 0.44095 0.0
C445 C 0.35711 0.2681 0.45816 0.0
C446 C 0.35088 0.19969 0.49819 0.0
H447 H 0.41646 0.20248 0.4618 0.0
C448 C 0.39812 0.10695 0.49695 0.0
C449 C 0.42583 0.1129 0.50121 0.0
C450 C 0.38579 0.12878 0.49545 0.0
C451 C 0.39843 0.20176 0.47255 0.0
H452 H 0.28083 0.23899 0.44556 0.0
H453 H 0.30662 0.2085 0.4672 0.0
H454 H 0.39261 0.23724 0.44802 0.0
H455 H 0.46228 0.14629 0.50828 0.0
H456 H 0.44069 0.18447 0.50502 0.0
H457 H 0.35628 0.16319 0.52164 0.0
C458 C 0.31688 0.23011 0.46193 0.0
C459 C 0.38475 0.22173 0.46472 0.0
C460 C 0.30208 0.24751 0.44939 0.0
C461 C 0.4409 0.14106 0.50471 0.0
C462 C 0.42859 0.1629 0.50288 0.0
C463 C 0.36446 0.17951 0.5058 0.0
C464 C 0.34463 0.24008 0.46622 0.0
C465 C 0.36053 0.22066 0.47702 0.0
C466 C 0.40095 0.15698 0.49784 0.0
C467 C 0.38811 0.18008 0.49264 0.0
H468 H 0.35256 0.30656 0.43847 0.0
H469 H 0.3784 0.27658 0.46134 0.0
H470 H 0.33258 0.19855 0.50855 0.0
H471 H 0.38595 0.08545 0.49452 0.0
H472 H 0.36446 0.12364 0.49133 0.0
C473 C 0.74911 0.38796 0.36609 0.0
C474 C 0.74297 0.35857 0.3627 0.0
C475 C 0.77222 0.4025 0.38187 0.0
C476 C 0.83787 0.39648 0.41259 0.0
H477 H 0.8323 0.45671 0.46249 0.0
C478 C 0.92884 0.4727 0.47428 0.0
C479 C 0.92469 0.48227 0.50182 0.0
C480 C 0.90753 0.45589 0.45723 0.0
C481 C 0.83421 0.43975 0.44895 0.0
H482 H 0.75691 0.32161 0.37277 0.0
H483 H 0.79678 0.34684 0.40114 0.0
H484 H 0.79373 0.43106 0.433 0.0
H485 H 0.89538 0.48017 0.53391 0.0
H486 H 0.85864 0.45038 0.50479 0.0
H487 H 0.8783 0.4048 0.42938 0.0
C488 C 0.78388 0.35872 0.3912 0.0
C489 C 0.81212 0.42529 0.43161 0.0
C490 C 0.76079 0.34418 0.37524 0.0
C491 C 0.89917 0.47348 0.5126 0.0
C492 C 0.87803 0.45655 0.49577 0.0
C493 C 0.86003 0.41092 0.4301 0.0
C494 C 0.78977 0.38805 0.39494 0.0
C495 C 0.81361 0.40347 0.41317 0.0
C496 C 0.88172 0.44818 0.46752 0.0
C497 C 0.85842 0.43267 0.44861 0.0
H498 H 0.73577 0.39977 0.35708 0.0
H499 H 0.77628 0.42513 0.38387 0.0
H500 H 0.83984 0.37998 0.39843 0.0
H501 H 0.94828 0.47919 0.46536 0.0
H502 H 0.91109 0.44993 0.43554 0.0
C503 C 0.65598 0.77889 0.41518 0.0
C504 C 0.65596 0.77848 0.3844 0.0
C505 C 0.64678 0.79891 0.42931 0.0
C506 C 0.63055 0.86764 0.41795 0.0
H507 H 0.58849 0.84286 0.48542 0.0
C508 C 0.58858 0.9435 0.48478 0.0
C509 C 0.56212 0.9326 0.49237 0.0
C510 C 0.60227 0.92585 0.473 0.0
C511 C 0.60013 0.85015 0.46656 0.0
H512 H 0.64641 0.79928 0.34446 0.0
H513 H 0.62957 0.83363 0.36907 0.0
H514 H 0.60725 0.80994 0.4614 0.0
H515 H 0.52952 0.89445 0.49391 0.0
H516 H 0.55307 0.86419 0.47337 0.0
H517 H 0.62247 0.90764 0.4226 0.0
C518 C 0.63716 0.81871 0.38232 0.0
C519 C 0.61119 0.83132 0.45295 0.0
C520 C 0.64647 0.79872 0.36817 0.0
C521 C 0.54986 0.9037 0.48829 0.0
C522 C 0.56347 0.88618 0.4767 0.0
C523 C 0.61941 0.88652 0.43158 0.0
C524 C 0.63711 0.81903 0.41311 0.0
C525 C 0.62632 0.83967 0.42825 0.0
C526 C 0.58983 0.89694 0.46882 0.0
C527 C 0.60373 0.87787 0.4558 0.0
H528 H 0.6628 0.76346 0.42846 0.0
H529 H 0.64736 0.79865 0.45304 0.0
H530 H 0.64241 0.87496 0.39926 0.0
H531 H 0.59864 0.96562 0.48778 0.0
H532 H 0.62265 0.93478 0.46738 0.0
C533 C 0.20826 0.67189 0.35154 0.0
C534 C 0.21756 0.70151 0.35229 0.0
C535 C 0.18311 0.658 0.36074 0.0
C536 C 0.12325 0.63625 0.36722 0.0
H537 H 0.10977 0.64978 0.44722 0.0
C538 C 0.04308 0.59107 0.46328 0.0
C539 C 0.039 0.56209 0.45852 0.0
C540 C 0.06031 0.61112 0.44621 0.0
C541 C 0.11274 0.64613 0.42459 0.0
H542 H 0.20705 0.73962 0.36304 0.0
H543 H 0.16344 0.71504 0.38039 0.0
H544 H 0.14863 0.67981 0.42471 0.0
H545 H 0.04871 0.53159 0.43088 0.0
H546 H 0.07906 0.56619 0.4019 0.0
H547 H 0.08757 0.60254 0.36693 0.0
C548 C 0.17578 0.70281 0.37226 0.0
C549 C 0.13513 0.66332 0.41176 0.0
C550 C 0.20083 0.71682 0.3625 0.0
C551 C 0.05131 0.5537 0.43519 0.0
C552 C 0.0687 0.57368 0.41837 0.0
C553 C 0.10065 0.61933 0.37984 0.0
C554 C 0.16673 0.67327 0.37147 0.0
C555 C 0.141 0.65799 0.38329 0.0
C556 C 0.07403 0.60265 0.42416 0.0
C557 C 0.09553 0.62344 0.40905 0.0
H558 H 0.22067 0.65919 0.34465 0.0
H559 H 0.17681 0.63517 0.36042 0.0
H560 H 0.12721 0.63195 0.34507 0.0
H561 H 0.03375 0.5983 0.4809 0.0
H562 H 0.06344 0.63324 0.45088 0.0
C563 C 0.33061 0.7961 0.69435 0.0
C564 C 0.3326 0.78904 0.72431 0.0
C565 C 0.34585 0.82184 0.68356 0.0
C566 C 0.40885 0.87381 0.69615 0.0
H567 H 0.37856 0.92226 0.64495 0.0
C568 C 0.47624 0.973 0.64325 0.0
C569 C 0.46963 0.97852 0.61386 0.0
C570 C 0.45819 0.95335 0.65989 0.0
C571 C 0.38745 0.90887 0.65894 0.0
H572 H 0.3518 0.80435 0.76645 0.0
H573 H 0.3792 0.8487 0.7472 0.0
H574 H 0.34947 0.88063 0.66728 0.0
H575 H 0.4385 0.96828 0.5792 0.0
H576 H 0.40766 0.93358 0.60758 0.0
H577 H 0.44685 0.9008 0.68672 0.0
C578 C 0.36566 0.83419 0.73225 0.0
C579 C 0.37071 0.88511 0.67185 0.0
C580 C 0.35006 0.80868 0.74318 0.0
C581 C 0.44422 0.96477 0.60186 0.0
C582 C 0.42638 0.94484 0.61829 0.0
C583 C 0.42564 0.89726 0.68283 0.0
C584 C 0.36378 0.84094 0.70232 0.0
C585 C 0.38128 0.86722 0.69033 0.0
C586 C 0.43327 0.93841 0.64738 0.0
C587 C 0.41522 0.91496 0.66372 0.0
H588 H 0.3179 0.78143 0.67894 0.0
H589 H 0.34428 0.8264 0.6603 0.0
H590 H 0.41751 0.86017 0.7101 0.0
H591 H 0.49559 0.98338 0.65321 0.0
H592 H 0.46403 0.94952 0.6824 0.0
C593 C 0.22348 0.34365 0.68302 0.0
C594 C 0.24723 0.36225 0.69422 0.0
C595 C 0.2027 0.35397 0.67096 0.0
C596 C 0.17757 0.41738 0.67083 0.0
H597 H 0.13817 0.38688 0.59906 0.0
C598 C 0.11643 0.47801 0.60175 0.0
C599 C 0.09103 0.4635 0.59034 0.0
C600 C 0.13337 0.46346 0.61522 0.0
C601 C 0.14874 0.39532 0.61934 0.0
H602 H 0.26803 0.40635 0.70052 0.0
H603 H 0.23202 0.42427 0.67958 0.0
H604 H 0.17206 0.36564 0.62092 0.0
H605 H 0.06368 0.42213 0.58368 0.0
H606 H 0.09363 0.39644 0.60731 0.0
H607 H 0.15475 0.44739 0.669 0.0
C608 C 0.22912 0.40167 0.6807 0.0
C609 C 0.16816 0.38319 0.63187 0.0
C610 C 0.24981 0.39139 0.69273 0.0
C611 C 0.08304 0.43391 0.59249 0.0
C612 C 0.10023 0.41922 0.60582 0.0
C613 C 0.1583 0.42951 0.6583 0.0
C614 C 0.20521 0.38313 0.66984 0.0
C615 C 0.18316 0.39444 0.65749 0.0
C616 C 0.12551 0.43393 0.61754 0.0
C617 C 0.144 0.41899 0.63213 0.0
H618 H 0.22077 0.32108 0.68402 0.0
H619 H 0.18449 0.33909 0.66301 0.0
H620 H 0.18825 0.42616 0.69094 0.0
H621 H 0.12332 0.50079 0.6004 0.0
H622 H 0.15286 0.47539 0.62355 0.0
C623 C 0.63463 0.27936 0.71792 0.0
C624 C 0.66161 0.28333 0.72664 0.0
C625 C 0.62061 0.25556 0.70197 0.0
C626 C 0.63007 0.20606 0.6494 0.0
H627 H 0.5615 0.15858 0.67045 0.0
C628 C 0.55457 0.13128 0.56982 0.0
C629 C 0.54403 0.10346 0.5797 0.0
C630 C 0.57067 0.15156 0.58864 0.0
C631 C 0.58071 0.17159 0.66446 0.0
H632 H 0.69445 0.26433 0.72638 0.0
H633 H 0.67023 0.22362 0.69748 0.0
H634 H 0.58552 0.19749 0.70252 0.0
H635 H 0.54228 0.07494 0.61691 0.0
H636 H 0.56995 0.11081 0.65018 0.0
H637 H 0.62485 0.18084 0.61083 0.0
C638 C 0.66007 0.23903 0.70306 0.0
C639 C 0.59432 0.19389 0.68266 0.0
C640 C 0.67395 0.26251 0.71945 0.0
C641 C 0.55029 0.09618 0.60866 0.0
C642 C 0.56593 0.11667 0.62772 0.0
C643 C 0.61622 0.18416 0.63092 0.0
C644 C 0.63334 0.23544 0.69398 0.0
C645 C 0.61911 0.21134 0.67525 0.0
C646 C 0.57608 0.14458 0.6179 0.0
C647 C 0.59141 0.16676 0.63826 0.0
H648 H 0.62448 0.29502 0.72261 0.0
H649 H 0.60004 0.25335 0.69501 0.0
H650 H 0.64908 0.21934 0.64312 0.0
H651 H 0.55006 0.13746 0.5476 0.0
H652 H 0.57817 0.17297 0.58061 0.0
C653 C 0.73589 0.65121 0.60947 0.0
C654 C 0.73795 0.68005 0.61182 0.0
C655 C 0.758 0.64222 0.60323 0.0
C656 C 0.82539 0.66647 0.57469 0.0
H657 H 0.83566 0.60102 0.61766 0.0
C658 C 0.92326 0.63203 0.58024 0.0
C659 C 0.92033 0.60306 0.57699 0.0
C660 C 0.90094 0.64211 0.58226 0.0
C661 C 0.83292 0.61917 0.60529 0.0
H662 H 0.76427 0.72216 0.60864 0.0
H663 H 0.80324 0.70649 0.59847 0.0
H664 H 0.7968 0.61727 0.62543 0.0
H665 H 0.89173 0.56202 0.5727 0.0
H666 H 0.85299 0.57959 0.57648 0.0
H667 H 0.862 0.66847 0.55499 0.0
C668 C 0.78452 0.6908 0.60109 0.0
C669 C 0.81061 0.62844 0.60966 0.0
C670 C 0.76233 0.69978 0.60715 0.0
C671 C 0.89469 0.58445 0.5754 0.0
C672 C 0.87249 0.59447 0.57762 0.0
C673 C 0.84787 0.65725 0.57046 0.0
C674 C 0.78267 0.66188 0.59933 0.0
C675 C 0.80649 0.65213 0.59435 0.0
C676 C 0.87538 0.62333 0.58138 0.0
C677 C 0.85177 0.63345 0.58567 0.0
H678 H 0.71721 0.6356 0.6126 0.0
H679 H 0.75574 0.61981 0.60145 0.0
H680 H 0.82265 0.68459 0.56229 0.0
H681 H 0.94276 0.64689 0.58125 0.0
H682 H 0.9037 0.66446 0.58526 0.0
C683 C 0.3174 0.3664 0.32472 0.0
C684 C 0.30833 0.38275 0.34432 0.0
C685 C 0.32772 0.37796 0.29827 0.0
C686 C 0.35625 0.44671 0.26154 0.0
H687 H 0.34587 0.40013 0.19251 0.0
C688 C 0.4196 0.47935 0.16138 0.0
C689 C 0.40828 0.47083 0.13332 0.0
C690 C 0.40528 0.47037 0.18625 0.0
C691 C 0.34865 0.41363 0.2114 0.0
H692 H 0.30309 0.42426 0.35125 0.0
H693 H 0.31996 0.44398 0.3047 0.0
H694 H 0.32432 0.38079 0.23698 0.0
H695 H 0.37251 0.44739 0.10927 0.0
H696 H 0.34722 0.43227 0.15267 0.0
H697 H 0.37999 0.47979 0.23574 0.0
C698 C 0.31963 0.42235 0.31001 0.0
C699 C 0.33662 0.40235 0.23712 0.0
C700 C 0.30957 0.41088 0.33659 0.0
C701 C 0.38191 0.45407 0.13061 0.0
C702 C 0.36747 0.44526 0.15552 0.0
C703 C 0.36806 0.45807 0.23574 0.0
C704 C 0.32899 0.40611 0.29056 0.0
C705 C 0.34057 0.4186 0.26267 0.0
C706 C 0.37915 0.45286 0.18371 0.0
C707 C 0.36477 0.44155 0.21045 0.0
H708 H 0.31644 0.34456 0.3297 0.0
H709 H 0.33507 0.36489 0.2841 0.0
H710 H 0.35999 0.45983 0.2808 0.0
H711 H 0.43987 0.49229 0.16429 0.0
H712 H 0.41512 0.47639 0.20754 0.0
C713 C 0.37993 0.69524 0.82011 0.0
C714 C 0.35463 0.67992 0.80934 0.0
C715 C 0.39182 0.68607 0.84527 0.0
C716 C 0.38973 0.62154 0.88874 0.0
H717 H 0.43524 0.67372 0.94431 0.0
C718 C 0.44561 0.58157 0.98532 0.0
C719 C 0.47281 0.59558 0.98883 0.0
C720 C 0.42849 0.59328 0.96771 0.0
C721 C 0.42264 0.65889 0.92894 0.0
H722 H 0.32115 0.64415 0.81723 0.0
H723 H 0.34179 0.62806 0.8614 0.0
H724 H 0.41023 0.69149 0.90507 0.0
H725 H 0.50292 0.6338 0.97802 0.0
H726 H 0.47316 0.65405 0.94732 0.0
H727 H 0.40255 0.58903 0.91211 0.0
C728 C 0.35276 0.64677 0.85005 0.0
C729 C 0.40835 0.66907 0.90642 0.0
C730 C 0.3409 0.65598 0.82487 0.0
C731 C 0.48212 0.62235 0.97577 0.0
C732 C 0.465 0.63406 0.95823 0.0
C733 C 0.40399 0.61138 0.91124 0.0
C734 C 0.37853 0.66149 0.86033 0.0
C735 C 0.39204 0.65056 0.88576 0.0
C736 C 0.43814 0.6193 0.9533 0.0
C737 C 0.42095 0.62996 0.93136 0.0
H738 H 0.39073 0.71401 0.80869 0.0
H739 H 0.41175 0.69779 0.85239 0.0
H740 H 0.37769 0.60672 0.87299 0.0
H741 H 0.43767 0.56096 0.99511 0.0
H742 H 0.40781 0.58158 0.96476 0.0
C743 C 0.3293 0.39858 0.77258 0.0
C744 C 0.32136 0.36903 0.77085 0.0
C745 C 0.34382 0.41193 0.79731 0.0
C746 C 0.38524 0.39956 0.86284 0.0
H747 H 0.37506 0.47044 0.88728 0.0
C748 C 0.44027 0.45993 0.96604 0.0
C749 C 0.45366 0.4882 0.96022 0.0
C750 C 0.42176 0.44422 0.9452 0.0
C751 C 0.37809 0.45064 0.88072 0.0
H752 H 0.32223 0.33029 0.79383 0.0
H753 H 0.347 0.3535 0.83743 0.0
H754 H 0.3474 0.44492 0.84667 0.0
H755 H 0.45726 0.52254 0.92873 0.0
H756 H 0.42461 0.4954 0.89285 0.0
H757 H 0.41584 0.40539 0.89727 0.0
C758 C 0.34257 0.36647 0.8194 0.0
C759 C 0.36238 0.43607 0.85728 0.0
C760 C 0.32829 0.35311 0.79445 0.0
C761 C 0.44736 0.50075 0.93378 0.0
C762 C 0.42856 0.48526 0.91328 0.0
C763 C 0.40072 0.41399 0.88657 0.0
C764 C 0.35054 0.3961 0.82121 0.0
C765 C 0.36606 0.41057 0.84759 0.0
C766 C 0.4159 0.4567 0.9185 0.0
C767 C 0.39762 0.43993 0.89541 0.0
H768 H 0.32462 0.41143 0.75455 0.0
H769 H 0.35011 0.43475 0.79743 0.0
H770 H 0.38896 0.38023 0.8559 0.0
H771 H 0.4448 0.44969 0.98618 0.0
H772 H 0.41216 0.42227 0.94984 0.0
C773 C 0.6805 0.37413 0.8229 0.0
C774 C 0.66734 0.36289 0.79639 0.0
C775 C 0.6694 0.39011 0.84063 0.0
C776 C 0.62308 0.43431 0.83656 0.0
H777 H 0.62194 0.42368 0.92088 0.0
C778 C 0.55985 0.48311 0.90624 0.0
C779 C 0.56929 0.49243 0.93469 0.0
C780 C 0.57368 0.46901 0.88978 0.0
C781 C 0.6225 0.42728 0.89742 0.0
H782 H 0.63206 0.35934 0.76789 0.0
H783 H 0.6126 0.38714 0.7989 0.0
H784 H 0.64174 0.39471 0.89176 0.0
H785 H 0.60119 0.49491 0.96781 0.0
H786 H 0.62572 0.47056 0.93873 0.0
H787 H 0.60406 0.46692 0.84205 0.0
C788 C 0.63159 0.3837 0.80588 0.0
C789 C 0.63375 0.41057 0.88073 0.0
C790 C 0.64258 0.36753 0.78828 0.0
C791 C 0.59335 0.48794 0.946 0.0
C792 C 0.60728 0.4738 0.92941 0.0
C793 C 0.61204 0.45112 0.85322 0.0
C794 C 0.64501 0.39543 0.83209 0.0
C795 C 0.63383 0.41365 0.85007 0.0
C796 C 0.59746 0.46393 0.90118 0.0
C797 C 0.61124 0.44757 0.88383 0.0
H798 H 0.69952 0.37073 0.82984 0.0
H799 H 0.68026 0.39894 0.86063 0.0
H800 H 0.62335 0.43761 0.81304 0.0
H801 H 0.54139 0.48617 0.89677 0.0
H802 H 0.56524 0.46138 0.86836 0.0
C803 C 0.66681 0.70896 0.75257 0.0
C804 C 0.66484 0.69347 0.72685 0.0
C805 C 0.65827 0.69536 0.77884 0.0
C806 C 0.6384 0.62401 0.81456 0.0
H807 H 0.60764 0.66346 0.86903 0.0
C808 C 0.57471 0.57294 0.91208 0.0
C809 C 0.58197 0.58663 0.93915 0.0
C810 C 0.58717 0.58467 0.88672 0.0
C811 C 0.61639 0.65231 0.8541 0.0
H812 H 0.65231 0.65176 0.70815 0.0
H813 H 0.63614 0.62798 0.75365 0.0
H814 H 0.6236 0.68648 0.82336 0.0
H815 H 0.60849 0.62301 0.9609 0.0
H816 H 0.62965 0.64385 0.91637 0.0
H817 H 0.62977 0.58928 0.84514 0.0
C818 C 0.64509 0.65052 0.75397 0.0
C819 C 0.62572 0.66552 0.82794 0.0
C820 C 0.65415 0.66411 0.7278 0.0
C821 C 0.60247 0.61188 0.94044 0.0
C822 C 0.61452 0.6239 0.91497 0.0
C823 C 0.62855 0.61058 0.84053 0.0
C824 C 0.64701 0.66596 0.77991 0.0
C825 C 0.637 0.65165 0.80781 0.0
C826 C 0.6067 0.6106 0.88785 0.0
C827 C 0.6176 0.6247 0.86056 0.0
H828 H 0.67533 0.7316 0.75242 0.0
H829 H 0.66077 0.70799 0.79836 0.0
H830 H 0.64733 0.61275 0.79998 0.0
H831 H 0.55897 0.5535 0.91032 0.0
H832 H 0.58073 0.5741 0.866 0.0
C833 C 0.62083 0.69785 0.30102 0.0
C834 C 0.64841 0.70973 0.30232 0.0
C835 C 0.60784 0.68328 0.27613 0.0
C836 C 0.62063 0.64836 0.20889 0.0
H837 H 0.54721 0.64611 0.18881 0.0
C838 C 0.55552 0.59178 0.10656 0.0
C839 C 0.53277 0.57128 0.11524 0.0
C840 C 0.57141 0.61077 0.12708 0.0
C841 C 0.56778 0.64673 0.19408 0.0
H842 H 0.68396 0.71636 0.27828 0.0
H843 H 0.66127 0.69196 0.23434 0.0
H844 H 0.57137 0.67626 0.22844 0.0
H845 H 0.50919 0.55465 0.15249 0.0
H846 H 0.53619 0.58816 0.18752 0.0
H847 H 0.61676 0.61899 0.17386 0.0
C848 C 0.64963 0.69302 0.25283 0.0
C849 C 0.58161 0.66376 0.21703 0.0
C850 C 0.66268 0.70719 0.27796 0.0
C851 C 0.52642 0.57017 0.14483 0.0
C852 C 0.54184 0.58942 0.165 0.0
C853 C 0.60688 0.63171 0.18551 0.0
C854 C 0.62201 0.6806 0.2516 0.0
C855 C 0.60807 0.66434 0.22532 0.0
C856 C 0.5644 0.60995 0.15638 0.0
C857 C 0.58017 0.6303 0.17834 0.0
H858 H 0.60938 0.69913 0.31964 0.0
H859 H 0.58671 0.67354 0.27653 0.0
H860 H 0.6408 0.64783 0.21467 0.0
H861 H 0.56101 0.59314 0.08399 0.0
H862 H 0.5888 0.62644 0.11997 0.0
C863 C 0.29415 0.67626 0.22632 0.0
C864 C 0.30747 0.69161 0.25078 0.0
C865 C 0.30564 0.65819 0.21196 0.0
C866 C 0.35528 0.618 0.22311 0.0
H867 H 0.35681 0.62063 0.13837 0.0
C868 C 0.42551 0.571 0.16183 0.0
C869 C 0.41724 0.55906 0.1341 0.0
C870 C 0.40966 0.58429 0.17633 0.0
C871 C 0.35614 0.6192 0.162 0.0
H872 H 0.34329 0.70068 0.27907 0.0
H873 H 0.36335 0.66895 0.25415 0.0
H874 H 0.3339 0.64972 0.16295 0.0
H875 H 0.3853 0.55075 0.10037 0.0
H876 H 0.35732 0.5736 0.12598 0.0
H877 H 0.37749 0.58756 0.22231 0.0
C878 C 0.34392 0.67059 0.24627 0.0
C879 C 0.34308 0.63597 0.17608 0.0
C880 C 0.33255 0.68881 0.26044 0.0
C881 C 0.39232 0.55991 0.12162 0.0
C882 C 0.37636 0.57316 0.13623 0.0
C883 C 0.36816 0.60109 0.20905 0.0
C884 C 0.33058 0.65504 0.22191 0.0
C885 C 0.3429 0.63589 0.20681 0.0
C886 C 0.38502 0.58586 0.1636 0.0
C887 C 0.36917 0.60184 0.17834 0.0
H888 H 0.27484 0.67816 0.21836 0.0
H889 H 0.29485 0.6464 0.19332 0.0
H890 H 0.35505 0.61712 0.2468 0.0
H891 H 0.44461 0.57075 0.17211 0.0
H892 H 0.41719 0.59416 0.19715 0.0
C893 C 0.65864 0.40165 0.24372 0.0
C894 C 0.64531 0.37905 0.26126 0.0
C895 C 0.64581 0.40965 0.21856 0.0
C896 C 0.58677 0.38617 0.16653 0.0
H897 H 0.59436 0.46636 0.15755 0.0
C898 C 0.5109 0.43246 0.10013 0.0
C899 C 0.52002 0.45843 0.08542 0.0
C900 C 0.52852 0.42096 0.11714 0.0
C901 C 0.59235 0.44393 0.15932 0.0
H902 H 0.60892 0.34588 0.26544 0.0
H903 H 0.58626 0.35998 0.22176 0.0
H904 H 0.62097 0.44958 0.19554 0.0
H905 H 0.55523 0.49175 0.07568 0.0
H906 H 0.58593 0.4715 0.10509 0.0
H907 H 0.55756 0.38057 0.13072 0.0
C908 C 0.60661 0.37158 0.22726 0.0
C909 C 0.60765 0.43428 0.18117 0.0
C910 C 0.61947 0.3636 0.25239 0.0
C911 C 0.54743 0.4718 0.08682 0.0
C912 C 0.56504 0.4603 0.10387 0.0
C913 C 0.57143 0.39583 0.14465 0.0
C914 C 0.61943 0.39507 0.21034 0.0
C915 C 0.60479 0.40526 0.18535 0.0
C916 C 0.55571 0.43512 0.11986 0.0
C917 C 0.57376 0.42482 0.14107 0.0
H918 H 0.67875 0.41358 0.24993 0.0
H919 H 0.65645 0.42749 0.20574 0.0
H920 H 0.58436 0.36371 0.16884 0.0
H921 H 0.48996 0.4215 0.09954 0.0
H922 H 0.52059 0.40165 0.1293 0.0
loop_
_geom_bond_atom_site_label_1
_geom_bond_atom_site_label_2
_geom_bond_distance
_geom_bond_site_symmetry_2
_ccdc_geom_bond_type
H0 C7 0.929 . S
H1 C10 0.930 . S
H2 C12 0.929 . S
H3 C4 0.969 . S
C4 H3 0.969 . S
C4 O5 1.550 . S
C4 H6 0.973 . S
O5 C4 1.550 . S
O5 C11 1.412 . S
H6 C4 0.973 . S
C7 H0 0.929 . S
C7 C8 1.400 . S
C7 C9 1.364 . S
C8 C7 1.400 . S
C8 C12 1.377 . S
C9 C7 1.364 . S
C9 C10 1.374 . S
C10 H1 0.930 . S
C10 C9 1.374 . S
C10 C11 1.383 . S
C11 O5 1.412 . S
C11 C10 1.383 . S
C11 C12 1.394 . S
C12 H2 0.929 . S
C12 C8 1.377 . S
C12 C11 1.394 . S
H13 C20 0.929 . S
H14 C23 0.930 . S
H15 C25 0.929 . S
H16 C17 0.969 . S
C17 H16 0.969 . S
C17 O18 1.550 . S
C17 H19 0.973 . S
O18 C17 1.550 . S
O18 C24 1.412 . S
H19 C17 0.973 . S
C20 H13 0.929 . S
C20 C21 1.400 . S
C20 C22 1.364 . S
C21 C20 1.400 . S
C21 C25 1.377 . S
C22 C20 1.364 . S
C22 C23 1.374 . S
C23 H14 0.930 . S
C23 C22 1.374 . S
C23 C24 1.383 . S
C24 O18 1.412 . S
C24 C23 1.383 . S
C24 C25 1.394 . S
C25 H15 0.929 . S
C25 C21 1.377 . S
C25 C24 1.394 . S
H26 C33 0.929 . S
H27 C36 0.930 . S
H28 C38 0.929 . S
H29 C30 0.969 . S
C30 H29 0.969 . S
C30 O31 1.550 . S
C30 H32 0.973 . S
O31 C30 1.550 . S
O31 C37 1.412 . S
H32 C30 0.973 . S
C33 H26 0.929 . S
C33 C34 1.400 . S
C33 C35 1.364 . S
C34 C33 1.400 . S
C34 C38 1.377 . S
C35 C33 1.364 . S
C35 C36 1.374 . S
C36 H27 0.930 . S
C36 C35 1.374 . S
C36 C37 1.383 . S
C37 O31 1.412 . S
C37 C36 1.383 . S
C37 C38 1.394 . S
C38 H28 0.929 . S
C38 C34 1.377 . S
C38 C37 1.394 . S
H39 C46 0.929 . S
H40 C49 0.930 . S
H41 C51 0.929 . S
H42 C43 0.969 . S
C43 H42 0.969 . S
C43 O44 1.550 . S
C43 H45 0.973 . S
O44 C43 1.550 . S
O44 C50 1.412 . S
H45 C43 0.973 . S
C46 H39 0.929 . S
C46 C47 1.400 . S
C46 C48 1.364 . S
C47 C46 1.400 . S
C47 C51 1.377 . S
C48 C46 1.364 . S
C48 C49 1.374 . S
C49 H40 0.930 . S
C49 C48 1.374 . S
C49 C50 1.383 . S
C50 O44 1.412 . S
C50 C49 1.383 . S
C50 C51 1.394 . S
C51 H41 0.929 . S
C51 C47 1.377 . S
C51 C50 1.394 . S
H52 C59 0.929 . S
H53 C62 0.930 . S
H54 C64 0.929 . S
H55 C56 0.969 . S
C56 H55 0.969 . S
C56 O57 1.550 . S
C56 H58 0.973 . S
O57 C56 1.550 . S
O57 C63 1.412 . S
H58 C56 0.973 . S
C59 H52 0.929 . S
C59 C60 1.400 . S
C59 C61 1.364 . S
C60 C59 1.400 . S
C60 C64 1.377 . S
C61 C59 1.364 . S
C61 C62 1.374 . S
C62 H53 0.930 . S
C62 C61 1.374 . S
C62 C63 1.383 . S
C63 O57 1.412 . S
C63 C62 1.383 . S
C63 C64 1.394 . S
C64 H54 0.929 . S
C64 C60 1.377 . S
C64 C63 1.394 . S
H65 C72 0.929 . S
H66 C75 0.930 . S
H67 C77 0.929 . S
H68 C69 0.969 . S
C69 H68 0.969 . S
C69 O70 1.550 . S
C69 H71 0.973 . S
O70 C69 1.550 . S
O70 C76 1.412 . S
H71 C69 0.973 . S
C72 H65 0.929 . S
C72 C73 1.400 . S
C72 C74 1.364 . S
C73 C72 1.400 . S
C73 C77 1.377 . S
C74 C72 1.364 . S
C74 C75 1.374 . S
C75 H66 0.930 . S
C75 C74 1.374 . S
C75 C76 1.383 . S
C76 O70 1.412 . S
C76 C75 1.383 . S
C76 C77 1.394 . S
C77 H67 0.929 . S
C77 C73 1.377 . S
C77 C76 1.394 . S
H78 C85 0.929 . S
H79 C88 0.930 . S
H80 C90 0.929 . S
H81 C82 0.969 . S
C82 H81 0.969 . S
C82 O83 1.550 . S
C82 H84 0.973 . S
O83 C82 1.550 . S
O83 C89 1.412 . S
H84 C82 0.973 . S
C85 H78 0.929 . S
C85 C86 1.400 . S
C85 C87 1.364 . S
C86 C85 1.400 . S
C86 C90 1.377 . S
C87 C85 1.364 . S
C87 C88 1.374 . S
C88 H79 0.930 . S
C88 C87 1.374 . S
C88 C89 1.383 . S
C89 O83 1.412 . S
C89 C88 1.383 . S
C89 C90 1.394 . S
C90 H80 0.929 . S
C90 C86 1.377 . S
C90 C89 1.394 . S
H91 C98 0.929 . S
H92 C101 0.930 . S
H93 C103 0.929 . S
H94 C95 0.969 . S
C95 H94 0.969 . S
C95 O96 1.550 . S
C95 H97 0.973 . S
O96 C95 1.550 . S
O96 C102 1.412 . S
H97 C95 0.973 . S
C98 H91 0.929 . S
C98 C99 1.400 . S
C98 C100 1.364 . S
C99 C98 1.400 . S
C99 C103 1.377 . S
C100 C98 1.364 . S
C100 C101 1.374 . S
C101 H92 0.930 . S
C101 C100 1.374 . S
C101 C102 1.383 . S
C102 O96 1.412 . S
C102 C101 1.383 . S
C102 C103 1.394 . S
C103 H93 0.929 . S
C103 C99 1.377 . S
C103 C102 1.394 . S
Co104 O107 2.042 . S
Co104 O114 2.264 . S
Co104 O133 2.286 . S
Co104 O134 2.069 . S
Co104 O136 2.015 . S
Co105 O107 2.122 . S
Co105 O113 2.073 . S
Co105 O114 2.327 . S
Co105 O115 1.976 . S
Co106 O107 2.087 . S
Co106 O109 2.087 1_455 S
Co106 O116 2.111 . S
Co106 O117 2.143 1_455 S
Co106 O121 2.111 1_455 S
Co106 O135 2.143 . S
O107 Co104 2.042 . S
O107 Co105 2.122 . S
O107 Co106 2.087 . S
O107 H108 0.980 . S
H108 O107 0.980 . S
O109 Co106 2.087 1_655 S
O109 Co110 2.042 . S
O109 Co111 2.122 . S
O109 H112 0.980 1_655 S
Co110 O109 2.042 . S
Co110 O118 2.286 . S
Co110 O119 2.069 . S
Co110 O120 2.015 . S
Co110 O123 2.264 . S
Co111 O109 2.122 . S
Co111 O122 1.976 . S
Co111 O123 2.327 . S
Co111 O124 2.073 . S
H112 O109 0.980 1_455 S
O113 Co105 2.073 . S
O113 C128 1.245 . S
O114 Co104 2.264 . S
O114 Co105 2.327 . S
O114 C128 1.257 . S
O115 Co105 1.976 . S
O115 C127 1.251 . S
O116 Co106 2.111 . S
O116 C127 1.274 . S
O117 Co106 2.143 1_655 S
O117 C130 1.246 . S
O118 Co110 2.286 . S
O118 C129 1.259 . S
O119 Co110 2.069 . S
O119 C129 1.289 . S
O120 Co110 2.015 . S
O120 C130 1.257 . S
O121 Co106 2.111 1_655 S
O121 C131 1.274 . S
O122 Co111 1.976 . S
O122 C131 1.251 . S
O123 Co110 2.264 . S
O123 Co111 2.327 . S
O123 C132 1.257 . S
O124 Co111 2.073 . S
O124 C132 1.245 . S
C125 O133 1.259 . S
C125 O134 1.289 . S
C126 O135 1.246 . S
C126 O136 1.257 . S
C127 O115 1.251 . S
C127 O116 1.274 . S
C128 O113 1.245 . S
C128 O114 1.257 . S
C129 O118 1.259 . S
C129 O119 1.289 . S
C130 O117 1.246 . S
C130 O120 1.257 . S
C131 O121 1.274 . S
C131 O122 1.251 . S
C132 O123 1.257 . S
C132 O124 1.245 . S
O133 Co104 2.286 . S
O133 C125 1.259 . S
O134 Co104 2.069 . S
O134 C125 1.289 . S
O135 Co106 2.143 . S
O135 C126 1.246 . S
O136 Co104 2.015 . S
O136 C126 1.257 . S
Co137 O140 2.042 . S
Co137 O147 2.264 . S
Co137 O166 2.286 . S
Co137 O167 2.069 . S
Co137 O169 2.015 . S
Co138 O140 2.122 . S
Co138 O146 2.073 . S
Co138 O147 2.327 . S
Co138 O148 1.976 . S
Co139 O140 2.087 1_545 S
Co139 O142 2.087 . S
Co139 O149 2.111 1_545 S
Co139 O150 2.143 . S
Co139 O154 2.111 . S
Co139 O168 2.143 1_545 S
O140 Co137 2.042 . S
O140 Co138 2.122 . S
O140 Co139 2.087 1_565 S
O140 H141 0.980 1_565 S
H141 O140 0.980 1_545 S
O142 Co139 2.087 . S
O142 Co143 2.042 . S
O142 Co144 2.122 . S
O142 H145 0.980 . S
Co143 O142 2.042 . S
Co143 O151 2.286 . S
Co143 O152 2.069 . S
Co143 O153 2.015 . S
Co143 O156 2.264 . S
Co144 O142 2.122 . S
Co144 O155 1.976 . S
Co144 O156 2.327 . S
Co144 O157 2.073 . S
H145 O142 0.980 . S
O146 Co138 2.073 . S
O146 C161 1.245 . S
O147 Co137 2.264 . S
O147 Co138 2.327 . S
O147 C161 1.257 . S
O148 Co138 1.976 . S
O148 C160 1.251 . S
O149 Co139 2.111 1_565 S
O149 C160 1.274 . S
O150 Co139 2.143 . S
O150 C163 1.246 . S
O151 Co143 2.286 . S
O151 C162 1.259 . S
O152 Co143 2.069 . S
O152 C162 1.289 . S
O153 Co143 2.015 . S
O153 C163 1.257 . S
O154 Co139 2.111 . S
O154 C164 1.274 . S
O155 Co144 1.976 . S
O155 C164 1.251 . S
O156 Co143 2.264 . S
O156 Co144 2.327 . S
O156 C165 1.257 . S
O157 Co144 2.073 . S
O157 C165 1.245 . S
C158 O166 1.259 . S
C158 O167 1.289 . S
C159 O168 1.246 . S
C159 O169 1.257 . S
C160 O148 1.251 . S
C160 O149 1.274 . S
C161 O146 1.245 . S
C161 O147 1.257 . S
C162 O151 1.259 . S
C162 O152 1.289 . S
C163 O150 1.246 . S
C163 O153 1.257 . S
C164 O154 1.274 . S
C164 O155 1.251 . S
C165 O156 1.257 . S
C165 O157 1.245 . S
O166 Co137 2.286 . S
O166 C158 1.259 . S
O167 Co137 2.069 . S
O167 C158 1.289 . S
O168 Co139 2.143 1_565 S
O168 C159 1.246 . S
O169 Co137 2.015 . S
O169 C159 1.257 . S
Co170 O173 2.042 . S
Co170 O180 2.264 . S
Co170 O199 2.286 . S
Co170 O200 2.069 . S
Co170 O202 2.015 . S
Co171 O173 2.122 . S
Co171 O179 2.073 . S
Co171 O180 2.327 . S
Co171 O181 1.976 . S
Co172 O173 2.087 . S
Co172 O175 2.087 1_554 S
Co172 O182 2.111 . S
Co172 O183 2.143 1_554 S
Co172 O187 2.111 . S
Co172 O201 2.143 . S
O173 Co170 2.042 . S
O173 Co171 2.122 . S
O173 Co172 2.087 . S
O173 H174 0.980 . S
H174 O173 0.980 . S
O175 Co172 2.087 1_556 S
O175 Co176 2.042 . S
O175 Co177 2.122 . S
O175 H178 0.977 1_556 S
Co176 O175 2.042 . S
Co176 O184 2.286 . S
Co176 O185 2.069 . S
Co176 O186 2.015 . S
Co176 O189 2.264 . S
Co177 O175 2.122 . S
Co177 O188 1.976 . S
Co177 O189 2.327 . S
Co177 O190 2.073 . S
H178 O175 0.977 1_554 S
O179 Co171 2.073 . S
O179 C194 1.245 . S
O180 Co170 2.264 . S
O180 Co171 2.327 . S
O180 C194 1.257 . S
O181 Co171 1.976 . S
O181 C193 1.251 . S
O182 Co172 2.111 . S
O182 C193 1.274 . S
O183 Co172 2.143 1_556 S
O183 C196 1.246 . S
O184 Co176 2.286 . S
O184 C195 1.259 . S
O185 Co176 2.069 . S
O185 C195 1.289 . S
O186 Co176 2.015 . S
O186 C196 1.257 . S
O187 Co172 2.111 . S
O187 C197 1.274 1_554 S
O188 Co177 1.976 . S
O188 C197 1.251 . S
O189 Co176 2.264 . S
O189 Co177 2.327 . S
O189 C198 1.257 . S
O190 Co177 2.073 . S
O190 C198 1.245 . S
C191 O199 1.259 . S
C191 O200 1.289 . S
C192 O201 1.246 . S
C192 O202 1.257 . S
C193 O181 1.251 . S
C193 O182 1.274 . S
C194 O179 1.245 . S
C194 O180 1.257 . S
C195 O184 1.259 . S
C195 O185 1.289 . S
C196 O183 1.246 . S
C196 O186 1.257 . S
C197 O187 1.274 1_556 S
C197 O188 1.251 . S
C198 O189 1.257 . S
C198 O190 1.245 . S
O199 Co170 2.286 . S
O199 C191 1.259 . S
O200 Co170 2.069 . S
O200 C191 1.289 . S
O201 Co172 2.143 . S
O201 C192 1.246 . S
O202 Co170 2.015 . S
O202 C192 1.257 . S
C203 C204 1.349 . S
C203 C205 1.327 . S
C203 H228 0.950 . S
C204 C203 1.349 . S
C204 C220 1.349 . S
C205 C203 1.327 . S
C205 C224 1.429 . S
C205 H229 0.950 . S
C206 C223 1.574 . S
C206 C225 1.368 . S
C206 H230 0.949 . S
H207 C211 0.949 . S
C208 C209 1.349 . S
C208 C210 1.327 . S
C208 H231 0.950 . S
C209 C208 1.349 . S
C209 C221 1.349 . S
C210 C208 1.327 . S
C210 C226 1.429 . S
C210 H232 0.950 . S
C211 H207 0.949 . S
C211 C219 1.574 . S
C211 C227 1.368 . S
H212 C220 0.950 . S
H213 C218 0.950 . S
H214 C219 0.949 . S
H215 C221 0.950 . S
H216 C222 0.950 . S
H217 C223 0.949 . S
C218 H213 0.950 . S
C218 C220 1.327 . S
C218 C224 1.429 . S
C219 C211 1.574 . S
C219 H214 0.949 . S
C219 C225 1.368 . S
C220 C204 1.349 . S
C220 H212 0.950 . S
C220 C218 1.327 . S
C221 C209 1.349 . S
C221 H215 0.950 . S
C221 C222 1.327 . S
C222 H216 0.950 . S
C222 C221 1.327 . S
C222 C226 1.429 . S
C223 C206 1.574 . S
C223 H217 0.949 . S
C223 C227 1.368 . S
C224 C205 1.429 . S
C224 C218 1.429 . S
C224 C225 1.523 . S
C225 C206 1.368 . S
C225 C219 1.368 . S
C225 C224 1.523 . S
C226 C210 1.429 . S
C226 C222 1.429 . S
C226 C227 1.523 . S
C227 C211 1.368 . S
C227 C223 1.368 . S
C227 C226 1.523 . S
H228 C203 0.950 . S
H229 C205 0.950 . S
H230 C206 0.949 . S
H231 C208 0.950 . S
H232 C210 0.950 . S
C233 C234 1.349 . S
C233 C235 1.327 . S
C233 H258 0.950 . S
C234 C233 1.349 . S
C234 C250 1.349 . S
C235 C233 1.327 . S
C235 C254 1.429 . S
C235 H259 0.950 . S
C236 C253 1.574 . S
C236 C255 1.368 . S
C236 H260 0.949 . S
H237 C241 0.949 . S
C238 C239 1.349 . S
C238 C240 1.327 . S
C238 H261 0.950 . S
C239 C238 1.349 . S
C239 C251 1.349 . S
C240 C238 1.327 . S
C240 C256 1.429 . S
C240 H262 0.950 . S
C241 H237 0.949 . S
C241 C249 1.574 . S
C241 C257 1.368 . S
H242 C250 0.950 . S
H243 C248 0.950 . S
H244 C249 0.949 . S
H245 C251 0.950 . S
H246 C252 0.950 . S
H247 C253 0.949 . S
C248 H243 0.950 . S
C248 C250 1.327 . S
C248 C254 1.429 . S
C249 C241 1.574 . S
C249 H244 0.949 . S
C249 C255 1.368 . S
C250 C234 1.349 . S
C250 H242 0.950 . S
C250 C248 1.327 . S
C251 C239 1.349 . S
C251 H245 0.950 . S
C251 C252 1.327 . S
C252 H246 0.950 . S
C252 C251 1.327 . S
C252 C256 1.429 . S
C253 C236 1.574 . S
C253 H247 0.949 . S
C253 C257 1.368 . S
C254 C235 1.429 . S
C254 C248 1.429 . S
C254 C255 1.523 . S
C255 C236 1.368 . S
C255 C249 1.368 . S
C255 C254 1.523 . S
C256 C240 1.429 . S
C256 C252 1.429 . S
C256 C257 1.523 . S
C257 C241 1.368 . S
C257 C253 1.368 . S
C257 C256 1.523 . S
H258 C233 0.950 . S
H259 C235 0.950 . S
H260 C236 0.949 . S
H261 C238 0.950 . S
H262 C240 0.950 . S
C263 C264 1.349 . S
C263 C265 1.327 . S
C263 H288 0.950 . S
C264 C263 1.349 . S
C264 C280 1.349 . S
C265 C263 1.327 . S
C265 C284 1.429 . S
C265 H289 0.950 . S
C266 C283 1.574 . S
C266 C285 1.368 . S
C266 H290 0.949 . S
H267 C271 0.949 . S
C268 C269 1.349 . S
C268 C270 1.327 . S
C268 H291 0.950 . S
C269 C268 1.349 . S
C269 C281 1.349 . S
C270 C268 1.327 . S
C270 C286 1.429 . S
C270 H292 0.950 . S
C271 H267 0.949 . S
C271 C279 1.574 . S
C271 C287 1.368 . S
H272 C280 0.950 . S
H273 C278 0.950 . S
H274 C279 0.949 . S
H275 C281 0.950 . S
H276 C282 0.950 . S
H277 C283 0.949 . S
C278 H273 0.950 . S
C278 C280 1.327 . S
C278 C284 1.429 . S
C279 C271 1.574 . S
C279 H274 0.949 . S
C279 C285 1.368 . S
C280 C264 1.349 . S
C280 H272 0.950 . S
C280 C278 1.327 . S
C281 C269 1.349 . S
C281 H275 0.950 . S
C281 C282 1.327 . S
C282 H276 0.950 . S
C282 C281 1.327 . S
C282 C286 1.429 . S
C283 C266 1.574 . S
C283 H277 0.949 . S
C283 C287 1.368 . S
C284 C265 1.429 . S
C284 C278 1.429 . S
C284 C285 1.523 . S
C285 C266 1.368 . S
C285 C279 1.368 . S
C285 C284 1.523 . S
C286 C270 1.429 . S
C286 C282 1.429 . S
C286 C287 1.523 . S
C287 C271 1.368 . S
C287 C283 1.368 . S
C287 C286 1.523 . S
H288 C263 0.950 . S
H289 C265 0.950 . S
H290 C266 0.949 . S
H291 C268 0.950 . S
H292 C270 0.950 . S
C293 C294 1.349 . S
C293 C295 1.327 . S
C293 H318 0.950 . S
C294 C293 1.349 . S
C294 C310 1.349 . S
C295 C293 1.327 . S
C295 C314 1.429 . S
C295 H319 0.950 . S
C296 C313 1.574 . S
C296 C315 1.368 . S
C296 H320 0.949 . S
H297 C301 0.949 . S
C298 C299 1.349 . S
C298 C300 1.327 . S
C298 H321 0.950 . S
C299 C298 1.349 . S
C299 C311 1.349 . S
C300 C298 1.327 . S
C300 C316 1.429 . S
C300 H322 0.950 . S
C301 H297 0.949 . S
C301 C309 1.574 . S
C301 C317 1.368 . S
H302 C310 0.950 . S
H303 C308 0.950 . S
H304 C309 0.949 . S
H305 C311 0.950 . S
H306 C312 0.950 . S
H307 C313 0.949 . S
C308 H303 0.950 . S
C308 C310 1.327 . S
C308 C314 1.429 . S
C309 C301 1.574 . S
C309 H304 0.949 . S
C309 C315 1.368 . S
C310 C294 1.349 . S
C310 H302 0.950 . S
C310 C308 1.327 . S
C311 C299 1.349 . S
C311 H305 0.950 . S
C311 C312 1.327 . S
C312 H306 0.950 . S
C312 C311 1.327 . S
C312 C316 1.429 . S
C313 C296 1.574 . S
C313 H307 0.949 . S
C313 C317 1.368 . S
C314 C295 1.429 . S
C314 C308 1.429 . S
C314 C315 1.523 . S
C315 C296 1.368 . S
C315 C309 1.368 . S
C315 C314 1.523 . S
C316 C300 1.429 . S
C316 C312 1.429 . S
C316 C317 1.523 . S
C317 C301 1.368 . S
C317 C313 1.368 . S
C317 C316 1.523 . S
H318 C293 0.950 . S
H319 C295 0.950 . S
H320 C296 0.949 . S
H321 C298 0.950 . S
H322 C300 0.950 . S
C323 C324 1.349 . S
C323 C325 1.327 . S
C323 H348 0.950 . S
C324 C323 1.349 . S
C324 C340 1.349 . S
C325 C323 1.327 . S
C325 C344 1.429 . S
C325 H349 0.950 . S
C326 C343 1.574 . S
C326 C345 1.368 . S
C326 H350 0.949 . S
H327 C331 0.949 . S
C328 C329 1.349 . S
C328 C330 1.327 . S
C328 H351 0.950 . S
C329 C328 1.349 . S
C329 C341 1.349 . S
C330 C328 1.327 . S
C330 C346 1.429 . S
C330 H352 0.950 . S
C331 H327 0.949 . S
C331 C339 1.574 . S
C331 C347 1.368 . S
H332 C340 0.950 . S
H333 C338 0.950 . S
H334 C339 0.949 . S
H335 C341 0.950 . S
H336 C342 0.950 . S
H337 C343 0.949 . S
C338 H333 0.950 . S
C338 C340 1.327 . S
C338 C344 1.429 . S
C339 C331 1.574 . S
C339 H334 0.949 . S
C339 C345 1.368 . S
C340 C324 1.349 . S
C340 H332 0.950 . S
C340 C338 1.327 . S
C341 C329 1.349 . S
C341 H335 0.950 . S
C341 C342 1.327 . S
C342 H336 0.950 . S
C342 C341 1.327 . S
C342 C346 1.429 . S
C343 C326 1.574 . S
C343 H337 0.949 . S
C343 C347 1.368 . S
C344 C325 1.429 . S
C344 C338 1.429 . S
C344 C345 1.523 . S
C345 C326 1.368 . S
C345 C339 1.368 . S
C345 C344 1.523 . S
C346 C330 1.429 . S
C346 C342 1.429 . S
C346 C347 1.523 . S
C347 C331 1.368 . S
C347 C343 1.368 . S
C347 C346 1.523 . S
H348 C323 0.950 . S
H349 C325 0.950 . S
H350 C326 0.949 . S
H351 C328 0.950 . S
H352 C330 0.950 . S
C353 C354 1.349 . S
C353 C355 1.327 . S
C353 H378 0.950 . S
C354 C353 1.349 . S
C354 C370 1.349 . S
C355 C353 1.327 . S
C355 C374 1.429 . S
C355 H379 0.950 . S
C356 C373 1.574 . S
C356 C375 1.368 . S
C356 H380 0.949 . S
H357 C361 0.949 . S
C358 C359 1.349 . S
C358 C360 1.327 . S
C358 H381 0.950 . S
C359 C358 1.349 . S
C359 C371 1.349 . S
C360 C358 1.327 . S
C360 C376 1.429 . S
C360 H382 0.950 . S
C361 H357 0.949 . S
C361 C369 1.574 . S
C361 C377 1.368 . S
H362 C370 0.950 . S
H363 C368 0.950 . S
H364 C369 0.949 . S
H365 C371 0.950 . S
H366 C372 0.950 . S
H367 C373 0.949 . S
C368 H363 0.950 . S
C368 C370 1.327 . S
C368 C374 1.429 . S
C369 C361 1.574 . S
C369 H364 0.949 . S
C369 C375 1.368 . S
C370 C354 1.349 . S
C370 H362 0.950 . S
C370 C368 1.327 . S
C371 C359 1.349 . S
C371 H365 0.950 . S
C371 C372 1.327 . S
C372 H366 0.950 . S
C372 C371 1.327 . S
C372 C376 1.429 . S
C373 C356 1.574 . S
C373 H367 0.949 . S
C373 C377 1.368 . S
C374 C355 1.429 . S
C374 C368 1.429 . S
C374 C375 1.523 . S
C375 C356 1.368 . S
C375 C369 1.368 . S
C375 C374 1.523 . S
C376 C360 1.429 . S
C376 C372 1.429 . S
C376 C377 1.523 . S
C377 C361 1.368 . S
C377 C373 1.368 . S
C377 C376 1.523 . S
H378 C353 0.950 . S
H379 C355 0.950 . S
H380 C356 0.949 . S
H381 C358 0.950 . S
H382 C360 0.950 . S
C383 C384 1.349 . S
C383 C385 1.327 . S
C383 H408 0.950 . S
C384 C383 1.349 . S
C384 C400 1.349 . S
C385 C383 1.327 . S
C385 C404 1.429 . S
C385 H409 0.950 . S
C386 C403 1.574 . S
C386 C405 1.368 . S
C386 H410 0.949 . S
H387 C391 0.949 . S
C388 C389 1.349 . S
C388 C390 1.327 . S
C388 H411 0.950 . S
C389 C388 1.349 . S
C389 C401 1.349 . S
C390 C388 1.327 . S
C390 C406 1.429 . S
C390 H412 0.950 . S
C391 H387 0.949 . S
C391 C399 1.574 . S
C391 C407 1.368 . S
H392 C400 0.950 . S
H393 C398 0.950 . S
H394 C399 0.949 . S
H395 C401 0.950 . S
H396 C402 0.950 . S
H397 C403 0.949 . S
C398 H393 0.950 . S
C398 C400 1.327 . S
C398 C404 1.429 . S
C399 C391 1.574 . S
C399 H394 0.949 . S
C399 C405 1.368 . S
C400 C384 1.349 . S
C400 H392 0.950 . S
C400 C398 1.327 . S
C401 C389 1.349 . S
C401 H395 0.950 . S
C401 C402 1.327 . S
C402 H396 0.950 . S
C402 C401 1.327 . S
C402 C406 1.429 . S
C403 C386 1.574 . S
C403 H397 0.949 . S
C403 C407 1.368 . S
C404 C385 1.429 . S
C404 C398 1.429 . S
C404 C405 1.523 . S
C405 C386 1.368 . S
C405 C399 1.368 . S
C405 C404 1.523 . S
C406 C390 1.429 . S
C406 C402 1.429 . S
C406 C407 1.523 . S
C407 C391 1.368 . S
C407 C403 1.368 . S
C407 C406 1.523 . S
H408 C383 0.950 . S
H409 C385 0.950 . S
H410 C386 0.949 . S
H411 C388 0.950 . S
H412 C390 0.950 . S
C413 C414 1.349 . S
C413 C415 1.327 . S
C413 H438 0.950 . S
C414 C413 1.349 . S
C414 C430 1.349 . S
C415 C413 1.327 . S
C415 C434 1.429 . S
C415 H439 0.950 . S
C416 C433 1.574 . S
C416 C435 1.368 . S
C416 H440 0.949 . S
H417 C421 0.949 . S
C418 C419 1.349 . S
C418 C420 1.327 . S
C418 H441 0.950 . S
C419 C418 1.349 . S
C419 C431 1.349 . S
C420 C418 1.327 . S
C420 C436 1.429 . S
C420 H442 0.950 . S
C421 H417 0.949 . S
C421 C429 1.574 . S
C421 C437 1.368 . S
H422 C430 0.950 . S
H423 C428 0.950 . S
H424 C429 0.949 . S
H425 C431 0.950 . S
H426 C432 0.950 . S
H427 C433 0.949 . S
C428 H423 0.950 . S
C428 C430 1.327 . S
C428 C434 1.429 . S
C429 C421 1.574 . S
C429 H424 0.949 . S
C429 C435 1.368 . S
C430 C414 1.349 . S
C430 H422 0.950 . S
C430 C428 1.327 . S
C431 C419 1.349 . S
C431 H425 0.950 . S
C431 C432 1.327 . S
C432 H426 0.950 . S
C432 C431 1.327 . S
C432 C436 1.429 . S
C433 C416 1.574 . S
C433 H427 0.949 . S
C433 C437 1.368 . S
C434 C415 1.429 . S
C434 C428 1.429 . S
C434 C435 1.523 . S
C435 C416 1.368 . S
C435 C429 1.368 . S
C435 C434 1.523 . S
C436 C420 1.429 . S
C436 C432 1.429 . S
C436 C437 1.523 . S
C437 C421 1.368 . S
C437 C433 1.368 . S
C437 C436 1.523 . S
H438 C413 0.950 . S
H439 C415 0.950 . S
H440 C416 0.949 . S
H441 C418 0.950 . S
H442 C420 0.950 . S
C443 C444 1.349 . S
C443 C445 1.327 . S
C443 H468 0.950 . S
C444 C443 1.349 . S
C444 C460 1.349 . S
C445 C443 1.327 . S
C445 C464 1.429 . S
C445 H469 0.950 . S
C446 C463 1.574 . S
C446 C465 1.368 . S
C446 H470 0.949 . S
H447 C451 0.949 . S
C448 C449 1.349 . S
C448 C450 1.327 . S
C448 H471 0.950 . S
C449 C448 1.349 . S
C449 C461 1.349 . S
C450 C448 1.327 . S
C450 C466 1.429 . S
C450 H472 0.950 . S
C451 H447 0.949 . S
C451 C459 1.574 . S
C451 C467 1.368 . S
H452 C460 0.950 . S
H453 C458 0.950 . S
H454 C459 0.949 . S
H455 C461 0.950 . S
H456 C462 0.950 . S
H457 C463 0.949 . S
C458 H453 0.950 . S
C458 C460 1.327 . S
C458 C464 1.429 . S
C459 C451 1.574 . S
C459 H454 0.949 . S
C459 C465 1.368 . S
C460 C444 1.349 . S
C460 H452 0.950 . S
C460 C458 1.327 . S
C461 C449 1.349 . S
C461 H455 0.950 . S
C461 C462 1.327 . S
C462 H456 0.950 . S
C462 C461 1.327 . S
C462 C466 1.429 . S
C463 C446 1.574 . S
C463 H457 0.949 . S
C463 C467 1.368 . S
C464 C445 1.429 . S
C464 C458 1.429 . S
C464 C465 1.523 . S
C465 C446 1.368 . S
C465 C459 1.368 . S
C465 C464 1.523 . S
C466 C450 1.429 . S
C466 C462 1.429 . S
C466 C467 1.523 . S
C467 C451 1.368 . S
C467 C463 1.368 . S
C467 C466 1.523 . S
H468 C443 0.950 . S
H469 C445 0.950 . S
H470 C446 0.949 . S
H471 C448 0.950 . S
H472 C450 0.950 . S
C473 C474 1.349 . S
C473 C475 1.327 . S
C473 H498 0.950 . S
C474 C473 1.349 . S
C474 C490 1.349 . S
C475 C473 1.327 . S
C475 C494 1.429 . S
C475 H499 0.950 . S
C476 C493 1.574 . S
C476 C495 1.368 . S
C476 H500 0.949 . S
H477 C481 0.949 . S
C478 C479 1.349 . S
C478 C480 1.327 . S
C478 H501 0.950 . S
C479 C478 1.349 . S
C479 C491 1.349 . S
C480 C478 1.327 . S
C480 C496 1.429 . S
C480 H502 0.950 . S
C481 H477 0.949 . S
C481 C489 1.574 . S
C481 C497 1.368 . S
H482 C490 0.950 . S
H483 C488 0.950 . S
H484 C489 0.949 . S
H485 C491 0.950 . S
H486 C492 0.950 . S
H487 C493 0.949 . S
C488 H483 0.950 . S
C488 C490 1.327 . S
C488 C494 1.429 . S
C489 C481 1.574 . S
C489 H484 0.949 . S
C489 C495 1.368 . S
C490 C474 1.349 . S
C490 H482 0.950 . S
C490 C488 1.327 . S
C491 C479 1.349 . S
C491 H485 0.950 . S
C491 C492 1.327 . S
C492 H486 0.950 . S
C492 C491 1.327 . S
C492 C496 1.429 . S
C493 C476 1.574 . S
C493 H487 0.949 . S
C493 C497 1.368 . S
C494 C475 1.429 . S
C494 C488 1.429 . S
C494 C495 1.523 . S
C495 C476 1.368 . S
C495 C489 1.368 . S
C495 C494 1.523 . S
C496 C480 1.429 . S
C496 C492 1.429 . S
C496 C497 1.523 . S
C497 C481 1.368 . S
C497 C493 1.368 . S
C497 C496 1.523 . S
H498 C473 0.950 . S
H499 C475 0.950 . S
H500 C476 0.949 . S
H501 C478 0.950 . S
H502 C480 0.950 . S
C503 C504 1.349 . S
C503 C505 1.327 . S
C503 H528 0.950 . S
C504 C503 1.349 . S
C504 C520 1.349 . S
C505 C503 1.327 . S
C505 C524 1.429 . S
C505 H529 0.950 . S
C506 C523 1.574 . S
C506 C525 1.368 . S
C506 H530 0.949 . S
H507 C511 0.949 . S
C508 C509 1.349 . S
C508 C510 1.327 . S
C508 H531 0.950 . S
C509 C508 1.349 . S
C509 C521 1.349 . S
C510 C508 1.327 . S
C510 C526 1.429 . S
C510 H532 0.950 . S
C511 H507 0.949 . S
C511 C519 1.574 . S
C511 C527 1.368 . S
H512 C520 0.950 . S
H513 C518 0.950 . S
H514 C519 0.949 . S
H515 C521 0.950 . S
H516 C522 0.950 . S
H517 C523 0.949 . S
C518 H513 0.950 . S
C518 C520 1.327 . S
C518 C524 1.429 . S
C519 C511 1.574 . S
C519 H514 0.949 . S
C519 C525 1.368 . S
C520 C504 1.349 . S
C520 H512 0.950 . S
C520 C518 1.327 . S
C521 C509 1.349 . S
C521 H515 0.950 . S
C521 C522 1.327 . S
C522 H516 0.950 . S
C522 C521 1.327 . S
C522 C526 1.429 . S
C523 C506 1.574 . S
C523 H517 0.949 . S
C523 C527 1.368 . S
C524 C505 1.429 . S
C524 C518 1.429 . S
C524 C525 1.523 . S
C525 C506 1.368 . S
C525 C519 1.368 . S
C525 C524 1.523 . S
C526 C510 1.429 . S
C526 C522 1.429 . S
C526 C527 1.523 . S
C527 C511 1.368 . S
C527 C523 1.368 . S
C527 C526 1.523 . S
H528 C503 0.950 . S
H529 C505 0.950 . S
H530 C506 0.949 . S
H531 C508 0.950 . S
H532 C510 0.950 . S
C533 C534 1.349 . S
C533 C535 1.327 . S
C533 H558 0.950 . S
C534 C533 1.349 . S
C534 C550 1.349 . S
C535 C533 1.327 . S
C535 C554 1.429 . S
C535 H559 0.950 . S
C536 C553 1.574 . S
C536 C555 1.368 . S
C536 H560 0.949 . S
H537 C541 0.949 . S
C538 C539 1.349 . S
C538 C540 1.327 . S
C538 H561 0.950 . S
C539 C538 1.349 . S
C539 C551 1.349 . S
C540 C538 1.327 . S
C540 C556 1.429 . S
C540 H562 0.950 . S
C541 H537 0.949 . S
C541 C549 1.574 . S
C541 C557 1.368 . S
H542 C550 0.950 . S
H543 C548 0.950 . S
H544 C549 0.949 . S
H545 C551 0.950 . S
H546 C552 0.950 . S
H547 C553 0.949 . S
C548 H543 0.950 . S
C548 C550 1.327 . S
C548 C554 1.429 . S
C549 C541 1.574 . S
C549 H544 0.949 . S
C549 C555 1.368 . S
C550 C534 1.349 . S
C550 H542 0.950 . S
C550 C548 1.327 . S
C551 C539 1.349 . S
C551 H545 0.950 . S
C551 C552 1.327 . S
C552 H546 0.950 . S
C552 C551 1.327 . S
C552 C556 1.429 . S
C553 C536 1.574 . S
C553 H547 0.949 . S
C553 C557 1.368 . S
C554 C535 1.429 . S
C554 C548 1.429 . S
C554 C555 1.523 . S
C555 C536 1.368 . S
C555 C549 1.368 . S
C555 C554 1.523 . S
C556 C540 1.429 . S
C556 C552 1.429 . S
C556 C557 1.523 . S
C557 C541 1.368 . S
C557 C553 1.368 . S
C557 C556 1.523 . S
H558 C533 0.950 . S
H559 C535 0.950 . S
H560 C536 0.949 . S
H561 C538 0.950 . S
H562 C540 0.950 . S
C563 C564 1.349 . S
C563 C565 1.327 . S
C563 H588 0.950 . S
C564 C563 1.349 . S
C564 C580 1.349 . S
C565 C563 1.327 . S
C565 C584 1.429 . S
C565 H589 0.950 . S
C566 C583 1.574 . S
C566 C585 1.368 . S
C566 H590 0.949 . S
H567 C571 0.949 . S
C568 C569 1.349 . S
C568 C570 1.327 . S
C568 H591 0.950 . S
C569 C568 1.349 . S
C569 C581 1.349 . S
C570 C568 1.327 . S
C570 C586 1.429 . S
C570 H592 0.950 . S
C571 H567 0.949 . S
C571 C579 1.574 . S
C571 C587 1.368 . S
H572 C580 0.950 . S
H573 C578 0.950 . S
H574 C579 0.949 . S
H575 C581 0.950 . S
H576 C582 0.950 . S
H577 C583 0.949 . S
C578 H573 0.950 . S
C578 C580 1.327 . S
C578 C584 1.429 . S
C579 C571 1.574 . S
C579 H574 0.949 . S
C579 C585 1.368 . S
C580 C564 1.349 . S
C580 H572 0.950 . S
C580 C578 1.327 . S
C581 C569 1.349 . S
C581 H575 0.950 . S
C581 C582 1.327 . S
C582 H576 0.950 . S
C582 C581 1.327 . S
C582 C586 1.429 . S
C583 C566 1.574 . S
C583 H577 0.949 . S
C583 C587 1.368 . S
C584 C565 1.429 . S
C584 C578 1.429 . S
C584 C585 1.523 . S
C585 C566 1.368 . S
C585 C579 1.368 . S
C585 C584 1.523 . S
C586 C570 1.429 . S
C586 C582 1.429 . S
C586 C587 1.523 . S
C587 C571 1.368 . S
C587 C583 1.368 . S
C587 C586 1.523 . S
H588 C563 0.950 . S
H589 C565 0.950 . S
H590 C566 0.949 . S
H591 C568 0.950 . S
H592 C570 0.950 . S
C593 C594 1.349 . S
C593 C595 1.327 . S
C593 H618 0.950 . S
C594 C593 1.349 . S
C594 C610 1.349 . S
C595 C593 1.327 . S
C595 C614 1.429 . S
C595 H619 0.950 . S
C596 C613 1.574 . S
C596 C615 1.368 . S
C596 H620 0.949 . S
H597 C601 0.949 . S
C598 C599 1.349 . S
C598 C600 1.327 . S
C598 H621 0.950 . S
C599 C598 1.349 . S
C599 C611 1.349 . S
C600 C598 1.327 . S
C600 C616 1.429 . S
C600 H622 0.950 . S
C601 H597 0.949 . S
C601 C609 1.574 . S
C601 C617 1.368 . S
H602 C610 0.950 . S
H603 C608 0.950 . S
H604 C609 0.949 . S
H605 C611 0.950 . S
H606 C612 0.950 . S
H607 C613 0.949 . S
C608 H603 0.950 . S
C608 C610 1.327 . S
C608 C614 1.429 . S
C609 C601 1.574 . S
C609 H604 0.949 . S
C609 C615 1.368 . S
C610 C594 1.349 . S
C610 H602 0.950 . S
C610 C608 1.327 . S
C611 C599 1.349 . S
C611 H605 0.950 . S
C611 C612 1.327 . S
C612 H606 0.950 . S
C612 C611 1.327 . S
C612 C616 1.429 . S
C613 C596 1.574 . S
C613 H607 0.949 . S
C613 C617 1.368 . S
C614 C595 1.429 . S
C614 C608 1.429 . S
C614 C615 1.523 . S
C615 C596 1.368 . S
C615 C609 1.368 . S
C615 C614 1.523 . S
C616 C600 1.429 . S
C616 C612 1.429 . S
C616 C617 1.523 . S
C617 C601 1.368 . S
C617 C613 1.368 . S
C617 C616 1.523 . S
H618 C593 0.950 . S
H619 C595 0.950 . S
H620 C596 0.949 . S
H621 C598 0.950 . S
H622 C600 0.950 . S
C623 C624 1.349 . S
C623 C625 1.327 . S
C623 H648 0.950 . S
C624 C623 1.349 . S
C624 C640 1.349 . S
C625 C623 1.327 . S
C625 C644 1.429 . S
C625 H649 0.950 . S
C626 C643 1.574 . S
C626 C645 1.368 . S
C626 H650 0.949 . S
H627 C631 0.949 . S
C628 C629 1.349 . S
C628 C630 1.327 . S
C628 H651 0.950 . S
C629 C628 1.349 . S
C629 C641 1.349 . S
C630 C628 1.327 . S
C630 C646 1.429 . S
C630 H652 0.950 . S
C631 H627 0.949 . S
C631 C639 1.574 . S
C631 C647 1.368 . S
H632 C640 0.950 . S
H633 C638 0.950 . S
H634 C639 0.949 . S
H635 C641 0.950 . S
H636 C642 0.950 . S
H637 C643 0.949 . S
C638 H633 0.950 . S
C638 C640 1.327 . S
C638 C644 1.429 . S
C639 C631 1.574 . S
C639 H634 0.949 . S
C639 C645 1.368 . S
C640 C624 1.349 . S
C640 H632 0.950 . S
C640 C638 1.327 . S
C641 C629 1.349 . S
C641 H635 0.950 . S
C641 C642 1.327 . S
C642 H636 0.950 . S
C642 C641 1.327 . S
C642 C646 1.429 . S
C643 C626 1.574 . S
C643 H637 0.949 . S
C643 C647 1.368 . S
C644 C625 1.429 . S
C644 C638 1.429 . S
C644 C645 1.523 . S
C645 C626 1.368 . S
C645 C639 1.368 . S
C645 C644 1.523 . S
C646 C630 1.429 . S
C646 C642 1.429 . S
C646 C647 1.523 . S
C647 C631 1.368 . S
C647 C643 1.368 . S
C647 C646 1.523 . S
H648 C623 0.950 . S
H649 C625 0.950 . S
H650 C626 0.949 . S
H651 C628 0.950 . S
H652 C630 0.950 . S
C653 C654 1.349 . S
C653 C655 1.327 . S
C653 H678 0.950 . S
C654 C653 1.349 . S
C654 C670 1.349 . S
C655 C653 1.327 . S
C655 C674 1.429 . S
C655 H679 0.950 . S
C656 C673 1.574 . S
C656 C675 1.368 . S
C656 H680 0.949 . S
H657 C661 0.949 . S
C658 C659 1.349 . S
C658 C660 1.327 . S
C658 H681 0.950 . S
C659 C658 1.349 . S
C659 C671 1.349 . S
C660 C658 1.327 . S
C660 C676 1.429 . S
C660 H682 0.950 . S
C661 H657 0.949 . S
C661 C669 1.574 . S
C661 C677 1.368 . S
H662 C670 0.950 . S
H663 C668 0.950 . S
H664 C669 0.949 . S
H665 C671 0.950 . S
H666 C672 0.950 . S
H667 C673 0.949 . S
C668 H663 0.950 . S
C668 C670 1.327 . S
C668 C674 1.429 . S
C669 C661 1.574 . S
C669 H664 0.949 . S
C669 C675 1.368 . S
C670 C654 1.349 . S
C670 H662 0.950 . S
C670 C668 1.327 . S
C671 C659 1.349 . S
C671 H665 0.950 . S
C671 C672 1.327 . S
C672 H666 0.950 . S
C672 C671 1.327 . S
C672 C676 1.429 . S
C673 C656 1.574 . S
C673 H667 0.949 . S
C673 C677 1.368 . S
C674 C655 1.429 . S
C674 C668 1.429 . S
C674 C675 1.523 . S
C675 C656 1.368 . S
C675 C669 1.368 . S
C675 C674 1.523 . S
C676 C660 1.429 . S
C676 C672 1.429 . S
C676 C677 1.523 . S
C677 C661 1.368 . S
C677 C673 1.368 . S
C677 C676 1.523 . S
H678 C653 0.950 . S
H679 C655 0.950 . S
H680 C656 0.949 . S
H681 C658 0.950 . S
H682 C660 0.950 . S
C683 C684 1.349 . S
C683 C685 1.327 . S
C683 H708 0.950 . S
C684 C683 1.349 . S
C684 C700 1.349 . S
C685 C683 1.327 . S
C685 C704 1.429 . S
C685 H709 0.950 . S
C686 C703 1.574 . S
C686 C705 1.368 . S
C686 H710 0.949 . S
H687 C691 0.949 . S
C688 C689 1.349 . S
C688 C690 1.327 . S
C688 H711 0.950 . S
C689 C688 1.349 . S
C689 C701 1.349 . S
C690 C688 1.327 . S
C690 C706 1.429 . S
C690 H712 0.950 . S
C691 H687 0.949 . S
C691 C699 1.574 . S
C691 C707 1.368 . S
H692 C700 0.950 . S
H693 C698 0.950 . S
H694 C699 0.949 . S
H695 C701 0.950 . S
H696 C702 0.950 . S
H697 C703 0.949 . S
C698 H693 0.950 . S
C698 C700 1.327 . S
C698 C704 1.429 . S
C699 C691 1.574 . S
C699 H694 0.949 . S
C699 C705 1.368 . S
C700 C684 1.349 . S
C700 H692 0.950 . S
C700 C698 1.327 . S
C701 C689 1.349 . S
C701 H695 0.950 . S
C701 C702 1.327 . S
C702 H696 0.950 . S
C702 C701 1.327 . S
C702 C706 1.429 . S
C703 C686 1.574 . S
C703 H697 0.949 . S
C703 C707 1.368 . S
C704 C685 1.429 . S
C704 C698 1.429 . S
C704 C705 1.523 . S
C705 C686 1.368 . S
C705 C699 1.368 . S
C705 C704 1.523 . S
C706 C690 1.429 . S
C706 C702 1.429 . S
C706 C707 1.523 . S
C707 C691 1.368 . S
C707 C703 1.368 . S
C707 C706 1.523 . S
H708 C683 0.950 . S
H709 C685 0.950 . S
H710 C686 0.949 . S
H711 C688 0.950 . S
H712 C690 0.950 . S
C713 C714 1.349 . S
C713 C715 1.327 . S
C713 H738 0.950 . S
C714 C713 1.349 . S
C714 C730 1.349 . S
C715 C713 1.327 . S
C715 C734 1.429 . S
C715 H739 0.950 . S
C716 C733 1.574 . S
C716 C735 1.368 . S
C716 H740 0.949 . S
H717 C721 0.949 . S
C718 C719 1.349 . S
C718 C720 1.327 . S
C718 H741 0.950 . S
C719 C718 1.349 . S
C719 C731 1.349 . S
C720 C718 1.327 . S
C720 C736 1.429 . S
C720 H742 0.950 . S
C721 H717 0.949 . S
C721 C729 1.574 . S
C721 C737 1.368 . S
H722 C730 0.950 . S
H723 C728 0.950 . S
H724 C729 0.949 . S
H725 C731 0.950 . S
H726 C732 0.950 . S
H727 C733 0.949 . S
C728 H723 0.950 . S
C728 C730 1.327 . S
C728 C734 1.429 . S
C729 C721 1.574 . S
C729 H724 0.949 . S
C729 C735 1.368 . S
C730 C714 1.349 . S
C730 H722 0.950 . S
C730 C728 1.327 . S
C731 C719 1.349 . S
C731 H725 0.950 . S
C731 C732 1.327 . S
C732 H726 0.950 . S
C732 C731 1.327 . S
C732 C736 1.429 . S
C733 C716 1.574 . S
C733 H727 0.949 . S
C733 C737 1.368 . S
C734 C715 1.429 . S
C734 C728 1.429 . S
C734 C735 1.523 . S
C735 C716 1.368 . S
C735 C729 1.368 . S
C735 C734 1.523 . S
C736 C720 1.429 . S
C736 C732 1.429 . S
C736 C737 1.523 . S
C737 C721 1.368 . S
C737 C733 1.368 . S
C737 C736 1.523 . S
H738 C713 0.950 . S
H739 C715 0.950 . S
H740 C716 0.949 . S
H741 C718 0.950 . S
H742 C720 0.950 . S
C743 C744 1.349 . S
C743 C745 1.327 . S
C743 H768 0.950 . S
C744 C743 1.349 . S
C744 C760 1.349 . S
C745 C743 1.327 . S
C745 C764 1.429 . S
C745 H769 0.950 . S
C746 C763 1.574 . S
C746 C765 1.368 . S
C746 H770 0.949 . S
H747 C751 0.949 . S
C748 C749 1.349 . S
C748 C750 1.327 . S
C748 H771 0.950 . S
C749 C748 1.349 . S
C749 C761 1.349 . S
C750 C748 1.327 . S
C750 C766 1.429 . S
C750 H772 0.950 . S
C751 H747 0.949 . S
C751 C759 1.574 . S
C751 C767 1.368 . S
H752 C760 0.950 . S
H753 C758 0.950 . S
H754 C759 0.949 . S
H755 C761 0.950 . S
H756 C762 0.950 . S
H757 C763 0.949 . S
C758 H753 0.950 . S
C758 C760 1.327 . S
C758 C764 1.429 . S
C759 C751 1.574 . S
C759 H754 0.949 . S
C759 C765 1.368 . S
C760 C744 1.349 . S
C760 H752 0.950 . S
C760 C758 1.327 . S
C761 C749 1.349 . S
C761 H755 0.950 . S
C761 C762 1.327 . S
C762 H756 0.950 . S
C762 C761 1.327 . S
C762 C766 1.429 . S
C763 C746 1.574 . S
C763 H757 0.949 . S
C763 C767 1.368 . S
C764 C745 1.429 . S
C764 C758 1.429 . S
C764 C765 1.523 . S
C765 C746 1.368 . S
C765 C759 1.368 . S
C765 C764 1.523 . S
C766 C750 1.429 . S
C766 C762 1.429 . S
C766 C767 1.523 . S
C767 C751 1.368 . S
C767 C763 1.368 . S
C767 C766 1.523 . S
H768 C743 0.950 . S
H769 C745 0.950 . S
H770 C746 0.949 . S
H771 C748 0.950 . S
H772 C750 0.950 . S
C773 C774 1.349 . S
C773 C775 1.327 . S
C773 H798 0.950 . S
C774 C773 1.349 . S
C774 C790 1.349 . S
C775 C773 1.327 . S
C775 C794 1.429 . S
C775 H799 0.950 . S
C776 C793 1.574 . S
C776 C795 1.368 . S
C776 H800 0.949 . S
H777 C781 0.949 . S
C778 C779 1.349 . S
C778 C780 1.327 . S
C778 H801 0.950 . S
C779 C778 1.349 . S
C779 C791 1.349 . S
C780 C778 1.327 . S
C780 C796 1.429 . S
C780 H802 0.950 . S
C781 H777 0.949 . S
C781 C789 1.574 . S
C781 C797 1.368 . S
H782 C790 0.950 . S
H783 C788 0.950 . S
H784 C789 0.949 . S
H785 C791 0.950 . S
H786 C792 0.950 . S
H787 C793 0.949 . S
C788 H783 0.950 . S
C788 C790 1.327 . S
C788 C794 1.429 . S
C789 C781 1.574 . S
C789 H784 0.949 . S
C789 C795 1.368 . S
C790 C774 1.349 . S
C790 H782 0.950 . S
C790 C788 1.327 . S
C791 C779 1.349 . S
C791 H785 0.950 . S
C791 C792 1.327 . S
C792 H786 0.950 . S
C792 C791 1.327 . S
C792 C796 1.429 . S
C793 C776 1.574 . S
C793 H787 0.949 . S
C793 C797 1.368 . S
C794 C775 1.429 . S
C794 C788 1.429 . S
C794 C795 1.523 . S
C795 C776 1.368 . S
C795 C789 1.368 . S
C795 C794 1.523 . S
C796 C780 1.429 . S
C796 C792 1.429 . S
C796 C797 1.523 . S
C797 C781 1.368 . S
C797 C793 1.368 . S
C797 C796 1.523 . S
H798 C773 0.950 . S
H799 C775 0.950 . S
H800 C776 0.949 . S
H801 C778 0.950 . S
H802 C780 0.950 . S
C803 C804 1.349 . S
C803 C805 1.327 . S
C803 H828 0.950 . S
C804 C803 1.349 . S
C804 C820 1.349 . S
C805 C803 1.327 . S
C805 C824 1.429 . S
C805 H829 0.950 . S
C806 C823 1.574 . S
C806 C825 1.368 . S
C806 H830 0.949 . S
H807 C811 0.949 . S
C808 C809 1.349 . S
C808 C810 1.327 . S
C808 H831 0.950 . S
C809 C808 1.349 . S
C809 C821 1.349 . S
C810 C808 1.327 . S
C810 C826 1.429 . S
C810 H832 0.950 . S
C811 H807 0.949 . S
C811 C819 1.574 . S
C811 C827 1.368 . S
H812 C820 0.950 . S
H813 C818 0.950 . S
H814 C819 0.949 . S
H815 C821 0.950 . S
H816 C822 0.950 . S
H817 C823 0.949 . S
C818 H813 0.950 . S
C818 C820 1.327 . S
C818 C824 1.429 . S
C819 C811 1.574 . S
C819 H814 0.949 . S
C819 C825 1.368 . S
C820 C804 1.349 . S
C820 H812 0.950 . S
C820 C818 1.327 . S
C821 C809 1.349 . S
C821 H815 0.950 . S
C821 C822 1.327 . S
C822 H816 0.950 . S
C822 C821 1.327 . S
C822 C826 1.429 . S
C823 C806 1.574 . S
C823 H817 0.949 . S
C823 C827 1.368 . S
C824 C805 1.429 . S
C824 C818 1.429 . S
C824 C825 1.523 . S
C825 C806 1.368 . S
C825 C819 1.368 . S
C825 C824 1.523 . S
C826 C810 1.429 . S
C826 C822 1.429 . S
C826 C827 1.523 . S
C827 C811 1.368 . S
C827 C823 1.368 . S
C827 C826 1.523 . S
H828 C803 0.950 . S
H829 C805 0.950 . S
H830 C806 0.949 . S
H831 C808 0.950 . S
H832 C810 0.950 . S
C833 C834 1.349 . S
C833 C835 1.327 . S
C833 H858 0.950 . S
C834 C833 1.349 . S
C834 C850 1.349 . S
C835 C833 1.327 . S
C835 C854 1.429 . S
C835 H859 0.950 . S
C836 C853 1.574 . S
C836 C855 1.368 . S
C836 H860 0.949 . S
H837 C841 0.949 . S
C838 C839 1.349 . S
C838 C840 1.327 . S
C838 H861 0.950 . S
C839 C838 1.349 . S
C839 C851 1.349 . S
C840 C838 1.327 . S
C840 C856 1.429 . S
C840 H862 0.950 . S
C841 H837 0.949 . S
C841 C849 1.574 . S
C841 C857 1.368 . S
H842 C850 0.950 . S
H843 C848 0.950 . S
H844 C849 0.949 . S
H845 C851 0.950 . S
H846 C852 0.950 . S
H847 C853 0.949 . S
C848 H843 0.950 . S
C848 C850 1.327 . S
C848 C854 1.429 . S
C849 C841 1.574 . S
C849 H844 0.949 . S
C849 C855 1.368 . S
C850 C834 1.349 . S
C850 H842 0.950 . S
C850 C848 1.327 . S
C851 C839 1.349 . S
C851 H845 0.950 . S
C851 C852 1.327 . S
C852 H846 0.950 . S
C852 C851 1.327 . S
C852 C856 1.429 . S
C853 C836 1.574 . S
C853 H847 0.949 . S
C853 C857 1.368 . S
C854 C835 1.429 . S
C854 C848 1.429 . S
C854 C855 1.523 . S
C855 C836 1.368 . S
C855 C849 1.368 . S
C855 C854 1.523 . S
C856 C840 1.429 . S
C856 C852 1.429 . S
C856 C857 1.523 . S
C857 C841 1.368 . S
C857 C853 1.368 . S
C857 C856 1.523 . S
H858 C833 0.950 . S
H859 C835 0.950 . S
H860 C836 0.949 . S
H861 C838 0.950 . S
H862 C840 0.950 . S
C863 C864 1.349 . S
C863 C865 1.327 . S
C863 H888 0.950 . S
C864 C863 1.349 . S
C864 C880 1.349 . S
C865 C863 1.327 . S
C865 C884 1.429 . S
C865 H889 0.950 . S
C866 C883 1.574 . S
C866 C885 1.368 . S
C866 H890 0.949 . S
H867 C871 0.949 . S
C868 C869 1.349 . S
C868 C870 1.327 . S
C868 H891 0.950 . S
C869 C868 1.349 . S
C869 C881 1.349 . S
C870 C868 1.327 . S
C870 C886 1.429 . S
C870 H892 0.950 . S
C871 H867 0.949 . S
C871 C879 1.574 . S
C871 C887 1.368 . S
H872 C880 0.950 . S
H873 C878 0.950 . S
H874 C879 0.949 . S
H875 C881 0.950 . S
H876 C882 0.950 . S
H877 C883 0.949 . S
C878 H873 0.950 . S
C878 C880 1.327 . S
C878 C884 1.429 . S
C879 C871 1.574 . S
C879 H874 0.949 . S
C879 C885 1.368 . S
C880 C864 1.349 . S
C880 H872 0.950 . S
C880 C878 1.327 . S
C881 C869 1.349 . S
C881 H875 0.950 . S
C881 C882 1.327 . S
C882 H876 0.950 . S
C882 C881 1.327 . S
C882 C886 1.429 . S
C883 C866 1.574 . S
C883 H877 0.949 . S
C883 C887 1.368 . S
C884 C865 1.429 . S
C884 C878 1.429 . S
C884 C885 1.523 . S
C885 C866 1.368 . S
C885 C879 1.368 . S
C885 C884 1.523 . S
C886 C870 1.429 . S
C886 C882 1.429 . S
C886 C887 1.523 . S
C887 C871 1.368 . S
C887 C883 1.368 . S
C887 C886 1.523 . S
H888 C863 0.950 . S
H889 C865 0.950 . S
H890 C866 0.949 . S
H891 C868 0.950 . S
H892 C870 0.950 . S
C893 C894 1.349 . S
C893 C895 1.327 . S
C893 H918 0.950 . S
C894 C893 1.349 . S
C894 C910 1.349 . S
C895 C893 1.327 . S
C895 C914 1.429 . S
C895 H919 0.950 . S
C896 C913 1.574 . S
C896 C915 1.368 . S
C896 H920 0.949 . S
H897 C901 0.949 . S
C898 C899 1.349 . S
C898 C900 1.327 . S
C898 H921 0.950 . S
C899 C898 1.349 . S
C899 C911 1.349 . S
C900 C898 1.327 . S
C900 C916 1.429 . S
C900 H922 0.950 . S
C901 H897 0.949 . S
C901 C909 1.574 . S
C901 C917 1.368 . S
H902 C910 0.950 . S
H903 C908 0.950 . S
H904 C909 0.949 . S
H905 C911 0.950 . S
H906 C912 0.950 . S
H907 C913 0.949 . S
C908 H903 0.950 . S
C908 C910 1.327 . S
C908 C914 1.429 . S
C909 C901 1.574 . S
C909 H904 0.949 . S
C909 C915 1.368 . S
C910 C894 1.349 . S
C910 H902 0.950 . S
C910 C908 1.327 . S
C911 C899 1.349 . S
C911 H905 0.950 . S
C911 C912 1.327 . S
C912 H906 0.950 . S
C912 C911 1.327 . S
C912 C916 1.429 . S
C913 C896 1.574 . S
C913 H907 0.949 . S
C913 C917 1.368 . S
C914 C895 1.429 . S
C914 C908 1.429 . S
C914 C915 1.523 . S
C915 C896 1.368 . S
C915 C909 1.368 . S
C915 C914 1.523 . S
C916 C900 1.429 . S
C916 C912 1.429 . S
C916 C917 1.523 . S
C917 C901 1.368 . S
C917 C913 1.368 . S
C917 C916 1.523 . S
H918 C893 0.950 . S
H919 C895 0.950 . S
H920 C896 0.949 . S
H921 C898 0.950 . S
H922 C900 0.950 . S
C209 C128 1.405 . S
C204 C9 1.467 . S
C239 C164 2.086 . S
C234 C22 2.213 . S
C269 C129 1.363 . S
C264 C30 1.352 . S
C299 C159 1.043 . S
C294 C47 1.078 . S
C329 C126 1.035 . S
C324 C61 1.068 . S
C354 C69 1.274 . S
C359 C162 1.321 . S
C384 C82 0.781 . S
C389 C131 0.771 . S
C419 C161 1.730 . S
C414 C99 1.782 . S
C449 C165 1.373 . S
C444 C4 1.426 . S
C479 C130 1.717 . S
C474 C21 1.788 . S
C509 C158 2.025 . S
C504 C34 2.030 . S
C539 C127 0.663 . S
C534 C48 0.600 . S
C569 C160 1.214 . S
C564 C60 1.290 . S
C594 C74 1.606 . S
C599 C125 1.607 . S
C624 C86 1.512 . S
C629 C163 1.445 . S
C659 C132 1.160 . S
C654 C95 1.161 . S
C689 C194 1.985 . S
C684 C8 2.109 . S
C714 C56 1.130 . S
C719 C197 1.104 . S
C749 C196 1.636 . S
C744 C73 1.693 . S
C774 C87 2.378 . S
C779 C195 2.362 . S
C809 C198 2.039 . S
C804 C100 2.139 . S
C834 C35 2.214 . S
C839 C192 2.141 . S
C869 C191 1.256 . S
C864 C43 1.248 . S
C894 C17 1.936 . S
C899 C193 1.892 . S
