# Generated by pormake.
# Topology hwx, (6,3)-cn, num edge types: 1
# Building blocks:
#     Node 0, Type 0, BuildingBlock: OJICUG_clean_sbu_0, # of connection points: 6
#     Node 1, Type 0, BuildingBlock: OJICUG_clean_sbu_0, # of connection points: 6
#     Node 2, Type 0, BuildingBlock: OJICUG_clean_sbu_0, # of connection points: 6
#     Node 3, Type 0, BuildingBlock: OJICUG_clean_sbu_0, # of connection points: 6
#     Node 4, Type 1, BuildingBlock: CUQRIR_clean_linker_1, # of connection points: 3
#     Node 5, Type 1, BuildingBlock: CUQRIR_clean_linker_1, # of connection points: 3
#     Node 6, Type 1, BuildingBlock: CUQRIR_clean_linker_1, # of connection points: 3
#     Node 7, Type 1, BuildingBlock: CUQRIR_clean_linker_1, # of connection points: 3
#     Node 8, Type 1, BuildingBlock: CUQRIR_clean_linker_1, # of connection points: 3
#     Node 9, Type 1, BuildingBlock: CUQRIR_clean_linker_1, # of connection points: 3
#     Node 10, Type 1, BuildingBlock: CUQRIR_clean_linker_1, # of connection points: 3
#     Node 11, Type 1, BuildingBlock: CUQRIR_clean_linker_1, # of connection points: 3
#     Edge 12, Type (0, 1), BuildingBlock: XUDNAN_clean_linker_2, # of connection points: 2
#     Edge 13, Type (0, 1), BuildingBlock: XUDNAN_clean_linker_2, # of connection points: 2
#     Edge 14, Type (0, 1), BuildingBlock: XUDNAN_clean_linker_2, # of connection points: 2
#     Edge 15, Type (0, 1), BuildingBlock: XUDNAN_clean_linker_2, # of connection points: 2
#     Edge 16, Type (0, 1), BuildingBlock: XUDNAN_clean_linker_2, # of connection points: 2
#     Edge 17, Type (0, 1), BuildingBlock: XUDNAN_clean_linker_2, # of connection points: 2
#     Edge 18, Type (0, 1), BuildingBlock: XUDNAN_clean_linker_2, # of connection points: 2
#     Edge 19, Type (0, 1), BuildingBlock: XUDNAN_clean_linker_2, # of connection points: 2
#     Edge 20, Type (0, 1), BuildingBlock: XUDNAN_clean_linker_2, # of connection points: 2
#     Edge 21, Type (0, 1), BuildingBlock: XUDNAN_clean_linker_2, # of connection points: 2
#     Edge 22, Type (0, 1), BuildingBlock: XUDNAN_clean_linker_2, # of connection points: 2
#     Edge 23, Type (0, 1), BuildingBlock: XUDNAN_clean_linker_2, # of connection points: 2
#     Edge 24, Type (0, 1), BuildingBlock: XUDNAN_clean_linker_2, # of connection points: 2
#     Edge 25, Type (0, 1), BuildingBlock: XUDNAN_clean_linker_2, # of connection points: 2
#     Edge 26, Type (0, 1), BuildingBlock: XUDNAN_clean_linker_2, # of connection points: 2
#     Edge 27, Type (0, 1), BuildingBlock: XUDNAN_clean_linker_2, # of connection points: 2
#     Edge 28, Type (0, 1), BuildingBlock: XUDNAN_clean_linker_2, # of connection points: 2
#     Edge 29, Type (0, 1), BuildingBlock: XUDNAN_clean_linker_2, # of connection points: 2
#     Edge 30, Type (0, 1), BuildingBlock: XUDNAN_clean_linker_2, # of connection points: 2
#     Edge 31, Type (0, 1), BuildingBlock: XUDNAN_clean_linker_2, # of connection points: 2
#     Edge 32, Type (0, 1), BuildingBlock: XUDNAN_clean_linker_2, # of connection points: 2
#     Edge 33, Type (0, 1), BuildingBlock: XUDNAN_clean_linker_2, # of connection points: 2
#     Edge 34, Type (0, 1), BuildingBlock: XUDNAN_clean_linker_2, # of connection points: 2
#     Edge 35, Type (0, 1), BuildingBlock: XUDNAN_clean_linker_2, # of connection points: 2
# Relax obj value: 0.003
# Max RMSD: 0.055
# Mean RMSD: 0.044
data_MOF--net-hwx--node1-OJICUG_clean_sbu_0--node2-CUQRIR_clean_linker_1--edge1-XUDNAN_clean_linker_2
_symmetry_space_group_name_H-M    P1
_symmetry_Int_Tables_number       1
_symmetry_cell_setting            triclinic
loop_
_symmetry_equiv_pos_as_xyz
'x, y, z'
_cell_length_a     49.326423
_cell_length_b     49.294062
_cell_length_c     18.608034
_cell_angle_alpha  90.024675
_cell_angle_beta   90.042852
_cell_angle_gamma 90.065396
loop_
_atom_site_label
_atom_site_type_symbol
_atom_site_fract_x
_atom_site_fract_y
_atom_site_fract_z
_atom_type_partial_charge
Sc0 Sc 0.22026 0.22388 0.11968 0.0
Sc1 Sc 0.17661 0.18482 0.01175 0.0
Sc2 Sc 0.22906 0.22273 0.93095 0.0
O3 O 0.2087 0.21046 0.02079 0.0
C4 C 0.22498 0.27741 0.02559 0.0
C5 C 0.15574 0.22146 0.14022 0.0
C6 C 0.16734 0.22443 0.878 0.0
C7 C 0.20794 0.16165 0.15051 0.0
C8 C 0.27797 0.21808 0.0408 0.0
C9 C 0.21702 0.16047 0.89345 0.0
O10 O 0.22042 0.26547 0.085 0.0
O11 O 0.15162 0.20681 0.08526 0.0
O12 O 0.1921 0.23147 0.87447 0.0
O13 O 0.22147 0.18319 0.16282 0.0
O14 O 0.26871 0.21608 0.97726 0.0
O15 O 0.19753 0.15912 0.93782 0.0
O16 O 0.26286 0.22132 0.09544 0.0
O17 O 0.19092 0.15957 0.09914 0.0
O18 O 0.23087 0.18206 0.88427 0.0
O19 O 0.17927 0.2291 0.15951 0.0
O20 O 0.22916 0.26485 0.96664 0.0
O21 O 0.15851 0.20765 0.92446 0.0
Sc22 Sc 0.272 0.72384 0.38072 0.0
Sc23 Sc 0.32387 0.68423 0.45542 0.0
Sc24 Sc 0.28121 0.7221 0.56925 0.0
O25 O 0.29227 0.71001 0.46866 0.0
C26 C 0.27802 0.77709 0.47795 0.0
C27 C 0.33416 0.72586 0.32929 0.0
C28 C 0.34486 0.71842 0.59128 0.0
C29 C 0.2838 0.66415 0.32928 0.0
C30 C 0.22357 0.71575 0.4927 0.0
C31 C 0.29245 0.65819 0.58806 0.0
O32 O 0.27573 0.76499 0.41788 0.0
O33 O 0.34354 0.7108 0.37909 0.0
O34 O 0.32227 0.72956 0.60547 0.0
O35 O 0.26729 0.68394 0.3327 0.0
O36 O 0.23878 0.7156 0.54778 0.0
O37 O 0.3066 0.65588 0.53101 0.0
O38 O 0.23247 0.71927 0.42929 0.0
O39 O 0.30492 0.66274 0.36822 0.0
O40 O 0.2827 0.68076 0.60956 0.0
O41 O 0.30897 0.73062 0.32169 0.0
O42 O 0.27904 0.76463 0.53795 0.0
O43 O 0.3478 0.70157 0.54032 0.0
Sc44 Sc 0.77026 0.77907 0.88919 0.0
Sc45 Sc 0.82043 0.81576 0.98217 0.0
Sc46 Sc 0.78156 0.7665 0.07219 0.0
O47 O 0.79085 0.7872 0.98117 0.0
C48 C 0.72281 0.77695 1.00025 0.0
C49 C 0.78202 0.84194 0.86333 0.0
C50 C 0.78532 0.82837 0.12302 0.0
C51 C 0.83257 0.78015 0.84154 0.0
C52 C 0.77621 0.7197 0.96012 0.0
C53 C 0.84483 0.77489 0.09889 0.0
O54 O 0.7315 0.7851 0.93964 0.0
O55 O 0.80035 0.84299 0.9108 0.0
O56 O 0.77718 0.80395 0.12916 0.0
O57 O 0.80803 0.7724 0.83456 0.0
O58 O 0.78509 0.72769 0.02064 0.0
O59 O 0.84631 0.79392 0.05343 0.0
O60 O 0.76835 0.73603 0.91145 0.0
O61 O 0.84058 0.79621 0.89139 0.0
O62 O 0.8229 0.76215 0.11081 0.0
O63 O 0.76873 0.82045 0.85024 0.0
O64 O 0.73846 0.76784 0.04914 0.0
O65 O 0.80122 0.83632 0.07286 0.0
Sc66 Sc 0.72795 0.26607 0.60216 0.0
Sc67 Sc 0.67919 0.31038 0.52714 0.0
Sc68 Sc 0.72968 0.28074 0.41833 0.0
O69 O 0.71214 0.28581 0.51597 0.0
C70 C 0.78121 0.28593 0.51742 0.0
C71 C 0.71646 0.32589 0.66206 0.0
C72 C 0.71083 0.34242 0.40397 0.0
C73 C 0.66501 0.26414 0.64186 0.0
C74 C 0.73374 0.2208 0.48408 0.0
C75 C 0.66641 0.27531 0.38552 0.0
O76 O 0.76962 0.27488 0.57118 0.0
O77 O 0.69822 0.33213 0.61605 0.0
O78 O 0.72536 0.32237 0.38585 0.0
O79 O 0.68893 0.25473 0.64571 0.0
O80 O 0.73683 0.23795 0.43381 0.0
O81 O 0.65846 0.28983 0.43854 0.0
O82 O 0.72839 0.2276 0.54828 0.0
O83 O 0.65877 0.28402 0.60187 0.0
O84 O 0.69124 0.27036 0.37232 0.0
O85 O 0.72827 0.30295 0.66308 0.0
O86 O 0.76895 0.29111 0.45899 0.0
O87 O 0.69372 0.34118 0.4547 0.0
C88 C 0.23472 0.48703 0.91474 0.0
N89 N 0.23984 0.51391 0.92335 0.0
N90 N 0.22714 0.47556 0.9779 0.0
C91 C 0.23904 0.47145 0.84606 0.0
C92 C 0.22725 0.49675 0.02461 0.0
N93 N 0.23497 0.52001 0.99172 0.0
C94 C 0.22244 0.49428 0.10419 0.0
H95 H 0.22252 0.45658 0.83761 0.0
H96 H 0.25839 0.46007 0.84971 0.0
H97 H 0.23962 0.48507 0.79868 0.0
H98 H 0.24215 0.49548 0.13284 0.0
H99 H 0.21225 0.47487 0.11774 0.0
H100 H 0.20971 0.51136 0.12322 0.0
C101 C 0.0064 0.72365 0.5529 0.0
N102 N 0.98205 0.72952 0.523 0.0
N103 N 0.02527 0.71922 0.50117 0.0
C104 C 0.0119 0.72278 0.63245 0.0
C105 C 0.01134 0.72256 0.43895 0.0
N106 N 0.98509 0.72874 0.45211 0.0
C107 C 0.02299 0.71865 0.36494 0.0
H108 H 0.0328 0.72983 0.64432 0.0
H109 H 0.00986 0.70154 0.65136 0.0
H110 H 0.99735 0.73538 0.66302 0.0
H111 H 0.03978 0.70369 0.36585 0.0
H112 H 0.03099 0.73829 0.34504 0.0
H113 H 0.00707 0.71164 0.32702 0.0
C114 C 0.74689 0.51222 0.056 0.0
N115 N 0.74498 0.48488 0.04982 0.0
N116 N 0.75537 0.52332 0.99322 0.0
C117 C 0.73838 0.52811 0.12129 0.0
C118 C 0.75845 0.50178 0.94888 0.0
N119 N 0.7523 0.47848 0.98328 0.0
C120 C 0.76701 0.50345 0.87145 0.0
H121 H 0.71686 0.53419 0.11493 0.0
H122 H 0.75056 0.5468 0.12785 0.0
H123 H 0.7403 0.51571 0.17075 0.0
H124 H 0.77938 0.52189 0.86158 0.0
H125 H 0.74864 0.50431 0.83706 0.0
H126 H 0.77877 0.48518 0.856 0.0
C127 C 0.99191 0.2844 0.46964 0.0
N128 N 0.01782 0.27802 0.48654 0.0
N129 N 0.97792 0.29154 0.52925 0.0
C130 C 0.97965 0.28166 0.39587 0.0
C131 C 0.99615 0.28907 0.58322 0.0
N132 N 0.02043 0.28095 0.55719 0.0
C133 C 0.99022 0.29446 0.66106 0.0
H134 H 0.96652 0.29928 0.38356 0.0
H135 H 0.96676 0.2632 0.39445 0.0
H136 H 0.99545 0.28006 0.35371 0.0
H137 H 0.97296 0.3087 0.66698 0.0
H138 H 0.00838 0.30285 0.68848 0.0
H139 H 0.98481 0.27503 0.6875 0.0
C140 C 0.73821 0.00993 0.52156 0.0
N141 N 0.73995 0.98284 0.51021 0.0
N142 N 0.73281 0.02312 0.45924 0.0
C143 C 0.74381 0.0238 0.59223 0.0
C144 C 0.73149 0.00305 0.40965 0.0
N145 N 0.73592 0.97864 0.44051 0.0
C146 C 0.72571 0.00717 0.33105 0.0
H147 H 0.75167 0.0097 0.63358 0.0
H148 H 0.72472 0.03268 0.613 0.0
H149 H 0.75848 0.04062 0.58426 0.0
H150 H 0.74516 0.00849 0.30133 0.0
H151 H 0.71413 0.02616 0.32214 0.0
H152 H 0.71412 0.9897 0.3092 0.0
C153 C 0.49138 0.22814 0.96586 0.0
N154 N 0.5182 0.22748 0.98159 0.0
N155 N 0.47638 0.22818 0.02704 0.0
C156 C 0.47992 0.22986 0.89112 0.0
C157 C 0.49519 0.22759 0.08024 0.0
N158 N 0.52052 0.22739 0.0527 0.0
C159 C 0.48895 0.22539 0.15923 0.0
H160 H 0.46115 0.24224 0.8906 0.0
H161 H 0.47479 0.20911 0.8724 0.0
H162 H 0.49479 0.2387 0.85305 0.0
H163 H 0.46917 0.21521 0.16814 0.0
H164 H 0.48813 0.24602 0.18296 0.0
H165 H 0.50507 0.21386 0.18746 0.0
C166 C 0.26631 0.99309 0.45271 0.0
N167 N 0.25907 0.01717 0.48207 0.0
N168 N 0.2746 0.97551 0.50428 0.0
C169 C 0.26346 0.98603 0.37428 0.0
C170 C 0.272 0.98986 0.56605 0.0
N171 N 0.26241 0.01514 0.5527 0.0
C172 C 0.27962 0.97946 0.63929 0.0
H173 H 0.24989 0.00023 0.34543 0.0
H174 H 0.25563 0.96504 0.36808 0.0
H175 H 0.28372 0.98704 0.34858 0.0
H176 H 0.29614 0.96426 0.6353 0.0
H177 H 0.26175 0.96957 0.66424 0.0
H178 H 0.28619 0.99639 0.67459 0.0
C179 C 0.50401 0.78611 0.03459 0.0
N180 N 0.47995 0.78003 0.00367 0.0
N181 N 0.52465 0.78276 0.98745 0.0
C182 C 0.50737 0.79427 0.11196 0.0
C183 C 0.51215 0.77435 0.92642 0.0
N184 N 0.48495 0.77261 0.93634 0.0
C185 C 0.52681 0.76526 0.85968 0.0
H186 H 0.52642 0.80589 0.11987 0.0
H187 H 0.50806 0.77578 0.1459 0.0
H188 H 0.48983 0.80666 0.12971 0.0
H189 H 0.53727 0.74579 0.8708 0.0
H190 H 0.54241 0.78032 0.84423 0.0
H191 H 0.51278 0.76258 0.81364 0.0
H192 H 0.14762 0.26436 0.23392 0.0
H193 H 0.11133 0.18959 0.15604 0.0
H194 H 0.07378 0.19496 0.24165 0.0
H195 H 0.12896 0.25706 0.42054 0.0
H196 H 0.12083 0.29236 0.43339 0.0
H197 H 0.14585 0.28264 0.36771 0.0
H198 H 0.11916 0.30792 0.26819 0.0
H199 H 0.09433 0.31808 0.33378 0.0
H200 H 0.08384 0.30004 0.25416 0.0
H201 H 0.04119 0.2069 0.33791 0.0
H202 H 0.01168 0.22866 0.42883 0.0
H203 H 0.06588 0.29768 0.43718 0.0
C204 C 0.1317 0.24922 0.2349 0.0
C205 C 0.13242 0.22656 0.18829 0.0
C206 C 0.11112 0.20725 0.19071 0.0
C207 C 0.08979 0.20996 0.23962 0.0
C208 C 0.08978 0.23229 0.28524 0.0
C209 C 0.10981 0.25191 0.28256 0.0
C210 C 0.1039 0.2747 0.33512 0.0
C211 C 0.12622 0.2768 0.39258 0.0
C212 C 0.10007 0.30178 0.29543 0.0
C213 C 0.07748 0.26472 0.36747 0.0
C214 C 0.07006 0.23995 0.33879 0.0
C215 C 0.04668 0.22637 0.36056 0.0
C216 C 0.03014 0.23874 0.41206 0.0
C217 C 0.0368 0.26453 0.44015 0.0
C218 C 0.0608 0.27763 0.41787 0.0
H219 H 0.25381 0.64957 0.6931 0.0
H220 H 0.32177 0.61121 0.5851 0.0
H221 H 0.31636 0.57087 0.66188 0.0
H222 H 0.2676 0.62335 0.87117 0.0
H223 H 0.23243 0.61799 0.89308 0.0
H224 H 0.24187 0.64447 0.83118 0.0
H225 H 0.2098 0.62411 0.73478 0.0
H226 H 0.20014 0.59769 0.79654 0.0
H227 H 0.21347 0.58901 0.70935 0.0
H228 H 0.30499 0.53542 0.75295 0.0
H229 H 0.28523 0.50512 0.84494 0.0
H230 H 0.22278 0.56448 0.88893 0.0
C231 C 0.26759 0.63271 0.6857 0.0
C232 C 0.28828 0.63365 0.63302 0.0
C233 C 0.30569 0.611 0.6247 0.0
C234 C 0.30289 0.58802 0.66837 0.0
C235 C 0.28243 0.5878 0.71985 0.0
C236 C 0.26487 0.60939 0.72834 0.0
C237 C 0.244 0.60344 0.78618 0.0
C238 C 0.24664 0.62351 0.84912 0.0
C239 C 0.21514 0.60356 0.75482 0.0
C240 C 0.25253 0.57511 0.80845 0.0
C241 C 0.27498 0.56667 0.77013 0.0
C242 C 0.28711 0.54159 0.78236 0.0
C243 C 0.27566 0.52443 0.83415 0.0
C244 C 0.25197 0.53213 0.87181 0.0
C245 C 0.24061 0.55801 0.85972 0.0
H246 H 0.85329 0.73475 0.20193 0.0
H247 H 0.8917 0.80415 0.09941 0.0
H248 H 0.93036 0.80012 0.18111 0.0
H249 H 0.87476 0.74938 0.38164 0.0
H250 H 0.88165 0.71468 0.40597 0.0
H251 H 0.85634 0.72217 0.33896 0.0
H252 H 0.88096 0.69121 0.24738 0.0
H253 H 0.90607 0.68328 0.31449 0.0
H254 H 0.91639 0.69684 0.22881 0.0
H255 H 0.96349 0.7913 0.2772 0.0
H256 H 0.99263 0.77375 0.37476 0.0
H257 H 0.93603 0.70793 0.41075 0.0
C258 C 0.86996 0.7489 0.19622 0.0
C259 C 0.86919 0.76984 0.14406 0.0
C260 C 0.89155 0.78789 0.13854 0.0
C261 C 0.91368 0.78591 0.18506 0.0
C262 C 0.91353 0.76557 0.23661 0.0
C263 C 0.89261 0.74701 0.2419 0.0
C264 C 0.89821 0.72672 0.30157 0.0
C265 C 0.87643 0.72834 0.36051 0.0
C266 C 0.90056 0.6978 0.27124 0.0
C267 C 0.92538 0.73702 0.32886 0.0
C268 C 0.93354 0.75969 0.291 0.0
C269 C 0.95749 0.77341 0.30686 0.0
C270 C 0.97385 0.76339 0.36216 0.0
C271 C 0.96643 0.73973 0.40026 0.0
C272 C 0.94183 0.72641 0.38359 0.0
H273 H 0.69167 0.37422 0.70058 0.0
H274 H 0.76101 0.32294 0.74856 0.0
H275 H 0.77592 0.35519 0.84096 0.0
H276 H 0.7262 0.43763 0.72146 0.0
H277 H 0.69794 0.45466 0.76299 0.0
H278 H 0.692 0.42712 0.70136 0.0
H279 H 0.66397 0.40209 0.7988 0.0
H280 H 0.67 0.42952 0.86087 0.0
H281 H 0.67909 0.39533 0.88519 0.0
H282 H 0.78528 0.39387 0.92289 0.0
H283 H 0.78778 0.4372 0.9901 0.0
H284 H 0.71182 0.46263 0.89587 0.0
C285 C 0.70995 0.36977 0.73058 0.0
C286 C 0.72505 0.34592 0.71715 0.0
C287 C 0.74889 0.34091 0.75784 0.0
C288 C 0.75761 0.35912 0.81066 0.0
C289 C 0.74224 0.38226 0.82282 0.0
C290 C 0.71891 0.3877 0.7842 0.0
C291 C 0.70652 0.41443 0.80749 0.0
C292 C 0.70562 0.43465 0.74458 0.0
C293 C 0.67821 0.41007 0.84003 0.0
C294 C 0.72676 0.42321 0.86433 0.0
C295 C 0.74719 0.4043 0.87234 0.0
C296 C 0.7691 0.40857 0.9184 0.0
C297 C 0.77026 0.43298 0.9569 0.0
C298 C 0.74944 0.45239 0.94997 0.0
C299 C 0.72744 0.44747 0.90332 0.0
H300 H 0.6166 0.29565 0.34466 0.0
H301 H 0.67135 0.22782 0.31287 0.0
H302 H 0.64028 0.20854 0.22253 0.0
H303 H 0.55367 0.25786 0.32267 0.0
H304 H 0.53694 0.28479 0.27455 0.0
H305 H 0.56289 0.2927 0.33947 0.0
H306 H 0.58927 0.31952 0.24219 0.0
H307 H 0.56352 0.31148 0.17685 0.0
H308 H 0.59841 0.30289 0.15937 0.0
H309 H 0.60336 0.19628 0.13606 0.0
H310 H 0.56245 0.19214 0.05963 0.0
H311 H 0.53317 0.26902 0.14032 0.0
C312 C 0.6218 0.27656 0.31937 0.0
C313 C 0.64632 0.26319 0.33593 0.0
C314 C 0.65268 0.23846 0.30081 0.0
C315 C 0.63518 0.22731 0.24944 0.0
C316 C 0.61145 0.24123 0.23316 0.0
C317 C 0.60468 0.26529 0.26696 0.0
C318 C 0.57827 0.27646 0.23775 0.0
C319 C 0.55667 0.27804 0.29716 0.0
C320 C 0.58265 0.30423 0.20191 0.0
C321 C 0.57131 0.25488 0.1827 0.0
C322 C 0.59067 0.23468 0.18106 0.0
C323 C 0.58823 0.21215 0.13609 0.0
C324 C 0.56518 0.21009 0.09216 0.0
C325 C 0.54522 0.23059 0.09297 0.0
C326 C 0.54845 0.25329 0.13846 0.0
H327 H 0.25092 0.15408 0.77425 0.0
H328 H 0.19516 0.11037 0.91355 0.0
H329 H 0.20018 0.06981 0.83915 0.0
H330 H 0.22862 0.12364 0.60772 0.0
H331 H 0.26201 0.12105 0.56917 0.0
H332 H 0.25465 0.14752 0.63305 0.0
H333 H 0.2945 0.1315 0.71322 0.0
H334 H 0.3021 0.1052 0.64908 0.0
H335 H 0.29592 0.09659 0.74178 0.0
H336 H 0.20893 0.03442 0.74958 0.0
H337 H 0.22482 0.00422 0.65254 0.0
H338 H 0.27662 0.06824 0.57142 0.0
C339 C 0.23997 0.13591 0.78935 0.0
C340 C 0.22249 0.13571 0.84988 0.0
C341 C 0.20852 0.11139 0.86746 0.0
C342 C 0.21117 0.08809 0.82541 0.0
C343 C 0.228 0.0891 0.76572 0.0
C344 C 0.24245 0.11215 0.74773 0.0
C345 C 0.2594 0.10716 0.68069 0.0
C346 C 0.25064 0.12597 0.61902 0.0
C347 C 0.28979 0.11029 0.69721 0.0
C348 C 0.25212 0.07779 0.66447 0.0
C349 C 0.23376 0.06801 0.71414 0.0
C350 C 0.22353 0.04171 0.71072 0.0
C351 C 0.23268 0.0247 0.65576 0.0
C352 C 0.25207 0.03386 0.60546 0.0
C353 C 0.26169 0.06087 0.60923 0.0
H354 H 0.38608 0.70981 0.29552 0.0
H355 H 0.32472 0.76978 0.24339 0.0
H356 H 0.35505 0.78959 0.15209 0.0
H357 H 0.44412 0.75363 0.2745 0.0
H358 H 0.46498 0.72768 0.23466 0.0
H359 H 0.43859 0.71847 0.29689 0.0
H360 H 0.4178 0.6862 0.20153 0.0
H361 H 0.44405 0.69544 0.13887 0.0
H362 H 0.40893 0.69935 0.11424 0.0
H363 H 0.39243 0.80361 0.06792 0.0
H364 H 0.43451 0.81032 0.99697 0.0
H365 H 0.4703 0.74013 0.0988 0.0
C366 C 0.37911 0.72723 0.2653 0.0
C367 C 0.35303 0.73825 0.27675 0.0
C368 C 0.34456 0.76089 0.23543 0.0
C369 C 0.36165 0.77232 0.18344 0.0
C370 C 0.38708 0.76079 0.17291 0.0
C371 C 0.39579 0.73874 0.21257 0.0
C372 C 0.42395 0.73001 0.18996 0.0
C373 C 0.4441 0.73262 0.25274 0.0
C374 C 0.42365 0.70103 0.15933 0.0
C375 C 0.42975 0.75071 0.13186 0.0
C376 C 0.40824 0.76833 0.12287 0.0
C377 C 0.40926 0.78973 0.07383 0.0
C378 C 0.433 0.79328 0.03337 0.0
C379 C 0.45505 0.77534 0.04168 0.0
C380 C 0.45336 0.75379 0.09124 0.0
H381 H 0.7377 0.85739 0.78096 0.0
H382 H 0.82037 0.87995 0.83571 0.0
H383 H 0.81865 0.91717 0.74831 0.0
H384 H 0.74134 0.87237 0.59244 0.0
H385 H 0.70789 0.88686 0.58658 0.0
H386 H 0.71509 0.86132 0.65318 0.0
H387 H 0.69888 0.89366 0.7542 0.0
H388 H 0.69126 0.91913 0.68781 0.0
H389 H 0.71365 0.92703 0.76152 0.0
H390 H 0.80976 0.9498 0.65014 0.0
H391 H 0.79113 0.98092 0.55795 0.0
H392 H 0.71306 0.94129 0.57416 0.0
C393 C 0.75532 0.87032 0.7748 0.0
C394 C 0.77916 0.8657 0.81529 0.0
C395 C 0.80177 0.88315 0.80593 0.0
C396 C 0.80112 0.90426 0.75591 0.0
C397 C 0.77757 0.90805 0.71624 0.0
C398 C 0.75484 0.89202 0.72594 0.0
C399 C 0.7318 0.90146 0.67797 0.0
C400 C 0.72355 0.87917 0.62438 0.0
C401 C 0.70746 0.91089 0.72308 0.0
C402 C 0.7453 0.92509 0.63986 0.0
C403 C 0.77187 0.92813 0.66194 0.0
C404 C 0.78889 0.94786 0.63292 0.0
C405 C 0.77828 0.96532 0.58076 0.0
C406 C 0.75088 0.96326 0.55947 0.0
C407 C 0.7342 0.94288 0.58909 0.0
H408 H 0.88149 0.80216 0.79707 0.0
H409 H 0.82847 0.73255 0.76882 0.0
H410 H 0.8603 0.71318 0.68114 0.0
H411 H 0.90153 0.80698 0.60949 0.0
H412 H 0.936 0.81661 0.62933 0.0
H413 H 0.90919 0.82534 0.69085 0.0
H414 H 0.93472 0.80102 0.7941 0.0
H415 H 0.96164 0.79233 0.73297 0.0
H416 H 0.94464 0.76607 0.78311 0.0
H417 H 0.89846 0.69986 0.60191 0.0
H418 H 0.94081 0.69439 0.53201 0.0
H419 H 0.968 0.77353 0.60212 0.0
C420 C 0.87668 0.78282 0.77253 0.0
C421 C 0.85246 0.76889 0.78988 0.0
C422 C 0.84678 0.74372 0.75613 0.0
C423 C 0.86475 0.73248 0.70626 0.0
C424 C 0.88826 0.74676 0.68986 0.0
C425 C 0.89429 0.77143 0.72148 0.0
C426 C 0.92097 0.78252 0.69335 0.0
C427 C 0.91665 0.80946 0.65338 0.0
C428 C 0.94172 0.78566 0.75453 0.0
C429 C 0.92906 0.76004 0.64193 0.0
C430 C 0.90988 0.73958 0.64106 0.0
C431 C 0.91339 0.71596 0.60097 0.0
C432 C 0.93726 0.71308 0.56103 0.0
C433 C 0.95695 0.73386 0.56036 0.0
C434 C 0.95278 0.75769 0.60094 0.0
H435 H 0.75209 0.35888 0.31484 0.0
H436 H 0.67235 0.3821 0.39189 0.0
H437 H 0.67227 0.42101 0.30844 0.0
H438 H 0.77784 0.42789 0.29457 0.0
H439 H 0.79707 0.41973 0.21514 0.0
H440 H 0.79097 0.3941 0.28218 0.0
H441 H 0.76992 0.36303 0.18445 0.0
H442 H 0.77552 0.38876 0.11735 0.0
H443 H 0.74193 0.37536 0.13134 0.0
H444 H 0.67934 0.4553 0.20973 0.0
H445 H 0.69568 0.4857 0.1127 0.0
H446 H 0.77193 0.44248 0.10775 0.0
C447 C 0.73472 0.3723 0.3147 0.0
C448 C 0.7122 0.3674 0.35987 0.0
C449 C 0.68991 0.38552 0.3582 0.0
C450 C 0.68959 0.40758 0.31063 0.0
C451 C 0.71186 0.41148 0.26579 0.0
C452 C 0.73422 0.39464 0.26832 0.0
C453 C 0.7557 0.40354 0.21513 0.0
C454 C 0.78194 0.41181 0.2541 0.0
C455 C 0.76107 0.38135 0.15875 0.0
C456 C 0.74178 0.42781 0.18178 0.0
C457 C 0.71638 0.43188 0.21113 0.0
C458 C 0.69933 0.45251 0.18702 0.0
C459 C 0.7087 0.46963 0.13217 0.0
C460 C 0.73493 0.46621 0.10295 0.0
C461 C 0.7516 0.44506 0.12814 0.0
H462 H 0.11554 0.20756 0.84281 0.0
H463 H 0.17587 0.26923 0.79469 0.0
H464 H 0.1448 0.28988 0.70694 0.0
H465 H 0.09129 0.19988 0.66068 0.0
H466 H 0.0564 0.19516 0.6866 0.0
H467 H 0.08322 0.18511 0.74668 0.0
H468 H 0.06288 0.21541 0.84686 0.0
H469 H 0.03598 0.22553 0.78711 0.0
H470 H 0.05701 0.25089 0.82928 0.0
H471 H 0.10714 0.30479 0.62683 0.0
H472 H 0.06501 0.31209 0.55691 0.0
H473 H 0.02964 0.24021 0.6515 0.0
C474 C 0.12218 0.22545 0.81399 0.0
C475 C 0.14821 0.23672 0.82581 0.0
C476 C 0.15614 0.26007 0.7865 0.0
C477 C 0.13861 0.27203 0.73654 0.0
C478 C 0.11322 0.26037 0.72597 0.0
C479 C 0.10499 0.23757 0.76327 0.0
C480 C 0.07666 0.22901 0.74089 0.0
C481 C 0.07692 0.2006 0.70668 0.0
C482 C 0.05697 0.23029 0.80486 0.0
C483 C 0.07026 0.25067 0.68566 0.0
C484 C 0.09166 0.26857 0.67804 0.0
C485 C 0.0904 0.2907 0.63155 0.0
C486 C 0.06663 0.29458 0.59164 0.0
C487 C 0.04475 0.27626 0.5977 0.0
C488 C 0.04646 0.25416 0.64558 0.0
H489 H 0.23637 0.64414 0.26747 0.0
H490 H 0.32408 0.63669 0.2631 0.0
H491 H 0.32059 0.60204 0.16876 0.0
H492 H 0.22326 0.57316 0.24757 0.0
H493 H 0.19376 0.57724 0.19139 0.0
H494 H 0.20281 0.60334 0.25479 0.0
H495 H 0.20374 0.6387 0.15173 0.0
H496 H 0.1948 0.61261 0.08803 0.0
H497 H 0.22488 0.63272 0.07432 0.0
H498 H 0.30853 0.56762 0.07827 0.0
H499 H 0.28768 0.5318 0.00322 0.0
H500 H 0.20777 0.55904 0.06602 0.0
C501 C 0.25477 0.63532 0.2461 0.0
C502 C 0.2805 0.64316 0.27281 0.0
C503 C 0.30413 0.6309 0.2441 0.0
C504 C 0.30241 0.61133 0.18995 0.0
C505 C 0.27689 0.60393 0.16504 0.0
C506 C 0.25342 0.61523 0.1924 0.0
C507 C 0.22857 0.602 0.15895 0.0
C508 C 0.21107 0.58811 0.21662 0.0
C509 C 0.21202 0.62275 0.1157 0.0
C510 C 0.24187 0.58133 0.1097 0.0
C511 C 0.26978 0.58324 0.11333 0.0
C512 C 0.28669 0.56602 0.07448 0.0
C513 C 0.27478 0.54589 0.03184 0.0
C514 C 0.24632 0.54303 0.0287 0.0
C515 C 0.22961 0.56115 0.06738 0.0
H516 H 0.3567 0.76321 0.67581 0.0
H517 H 0.38549 0.68283 0.61857 0.0
H518 H 0.423 0.68745 0.70488 0.0
H519 H 0.42352 0.79308 0.69155 0.0
H520 H 0.41459 0.81467 0.76605 0.0
H521 H 0.38912 0.80479 0.70175 0.0
H522 H 0.35959 0.78563 0.80515 0.0
H523 H 0.38516 0.79516 0.86969 0.0
H524 H 0.37366 0.7605 0.86483 0.0
H525 H 0.45622 0.69949 0.80027 0.0
H526 H 0.48692 0.72111 0.88883 0.0
H527 H 0.44003 0.79512 0.8769 0.0
C528 C 0.37095 0.74665 0.6815 0.0
C529 C 0.36814 0.72265 0.64041 0.0
C530 C 0.38732 0.7015 0.64893 0.0
C531 C 0.40861 0.70381 0.69828 0.0
C532 C 0.41074 0.72756 0.73822 0.0
C533 C 0.39278 0.74883 0.7297 0.0
C534 C 0.40071 0.77265 0.77703 0.0
C535 C 0.40739 0.79778 0.73136 0.0
C536 C 0.37845 0.77884 0.83244 0.0
C537 C 0.42588 0.76136 0.81315 0.0
C538 C 0.43094 0.73512 0.79086 0.0
C539 C 0.45264 0.72013 0.81763 0.0
C540 C 0.46994 0.73248 0.86761 0.0
C541 C 0.46577 0.75967 0.88905 0.0
C542 C 0.44335 0.7742 0.86193 0.0
H543 H 0.80353 0.88047 0.15262 0.0
H544 H 0.74297 0.82078 0.21476 0.0
H545 H 0.72486 0.85235 0.30453 0.0
H546 H 0.81569 0.90625 0.33252 0.0
H547 H 0.81961 0.94095 0.3038 0.0
H548 H 0.82834 0.91364 0.24377 0.0
H549 H 0.79564 0.93306 0.14762 0.0
H550 H 0.78686 0.96044 0.20734 0.0
H551 H 0.76065 0.93898 0.17075 0.0
H552 H 0.71185 0.89045 0.38471 0.0
H553 H 0.70551 0.93347 0.45138 0.0
H554 H 0.77514 0.96794 0.3435 0.0
C555 C 0.78647 0.87407 0.18508 0.0
C556 C 0.77482 0.84804 0.1765 0.0
C557 C 0.7525 0.84048 0.22036 0.0
C558 C 0.74195 0.85829 0.27163 0.0
C559 C 0.75394 0.88363 0.27901 0.0
C560 C 0.77573 0.89159 0.23725 0.0
C561 C 0.78467 0.92012 0.25646 0.0
C562 C 0.81381 0.92023 0.28589 0.0
C563 C 0.78177 0.93928 0.19168 0.0
C564 C 0.76433 0.9269 0.3148 0.0
C565 C 0.7468 0.90553 0.32692 0.0
C566 C 0.72569 0.90721 0.37653 0.0
C567 C 0.72236 0.9315 0.41463 0.0
C568 C 0.7402 0.95347 0.4034 0.0
C569 C 0.76145 0.95114 0.35306 0.0
H570 H 0.62334 0.29132 0.70594 0.0
H571 H 0.65952 0.21149 0.6871 0.0
H572 H 0.62484 0.19305 0.77016 0.0
H573 H 0.60987 0.28652 0.89437 0.0
H574 H 0.57862 0.30534 0.88991 0.0
H575 H 0.60507 0.31176 0.82546 0.0
H576 H 0.57146 0.30223 0.72129 0.0
H577 H 0.54488 0.29583 0.78544 0.0
H578 H 0.55323 0.27052 0.71915 0.0
H579 H 0.58538 0.18335 0.85351 0.0
H580 H 0.54649 0.18392 0.93822 0.0
H581 H 0.53882 0.27063 0.91067 0.0
C582 C 0.62373 0.26988 0.71854 0.0
C583 C 0.64384 0.2527 0.68935 0.0
C584 C 0.64417 0.22492 0.70861 0.0
C585 C 0.62454 0.2143 0.75557 0.0
C586 C 0.60506 0.23184 0.78373 0.0
C587 C 0.60471 0.25911 0.76651 0.0
C588 C 0.58263 0.27397 0.80719 0.0
C589 C 0.59478 0.29568 0.85719 0.0
C590 C 0.56182 0.28636 0.75515 0.0
C591 C 0.57043 0.2508 0.84966 0.0
C592 C 0.58347 0.2266 0.83481 0.0
C593 C 0.57529 0.20223 0.86615 0.0
C594 C 0.55338 0.2027 0.91423 0.0
C595 C 0.54037 0.22736 0.9315 0.0
C596 C 0.54887 0.25165 0.89859 0.0
H597 H 0.25177 0.14827 0.23549 0.0
H598 H 0.17 0.123 0.18054 0.0
H599 H 0.17299 0.08584 0.26891 0.0
H600 H 0.27846 0.08118 0.25182 0.0
H601 H 0.30082 0.08936 0.32539 0.0
H602 H 0.29153 0.11516 0.26155 0.0
H603 H 0.27413 0.14537 0.36586 0.0
H604 H 0.28304 0.11944 0.42992 0.0
H605 H 0.24885 0.1322 0.42653 0.0
H606 H 0.18461 0.05139 0.36285 0.0
H607 H 0.20662 0.01824 0.44449 0.0
H608 H 0.28147 0.06371 0.43362 0.0
C609 C 0.23447 0.13497 0.24235 0.0
C610 C 0.2106 0.13861 0.20123 0.0
C611 C 0.18854 0.12055 0.21107 0.0
C612 C 0.18994 0.09952 0.26164 0.0
C613 C 0.21364 0.0966 0.30161 0.0
C614 C 0.23569 0.11354 0.29184 0.0
C615 C 0.25943 0.10473 0.33815 0.0
C616 C 0.284 0.09715 0.29143 0.0
C617 C 0.26679 0.12675 0.39338 0.0
C618 C 0.24738 0.08001 0.37465 0.0
C619 C 0.22074 0.07605 0.35395 0.0
C620 C 0.20542 0.05433 0.3796 0.0
C621 C 0.2179 0.03575 0.42603 0.0
C622 C 0.24542 0.03884 0.44531 0.0
C623 C 0.26023 0.06139 0.42024 0.0
H624 H 0.19962 0.31607 0.94194 0.0
H625 H 0.25772 0.30551 0.11461 0.0
H626 H 0.26449 0.35512 0.12061 0.0
H627 H 0.23174 0.37301 0.85437 0.0
H628 H 0.2005 0.39047 0.835 0.0
H629 H 0.20085 0.35401 0.84171 0.0
H630 H 0.16342 0.35602 0.93909 0.0
H631 H 0.16292 0.39249 0.9326 0.0
H632 H 0.16867 0.37645 0.01829 0.0
H633 H 0.26703 0.4051 0.1036 0.0
H634 H 0.26197 0.4535 0.0726 0.0
H635 H 0.19781 0.43325 0.92261 0.0
C636 C 0.21381 0.32434 0.98063 0.0
C637 C 0.22837 0.30713 0.02754 0.0
C638 C 0.24645 0.31849 0.07836 0.0
C639 C 0.25046 0.34658 0.082 0.0
C640 C 0.23579 0.36309 0.03541 0.0
C641 C 0.21751 0.35254 0.9864 0.0
C642 C 0.20348 0.37512 0.94513 0.0
C643 C 0.20951 0.37302 0.86425 0.0
C644 C 0.1728 0.37501 0.95967 0.0
C645 C 0.21702 0.39989 0.97802 0.0
C646 C 0.23583 0.39235 0.0293 0.0
C647 C 0.25199 0.41132 0.06458 0.0
C648 C 0.24884 0.43875 0.04711 0.0
C649 C 0.22924 0.44715 0.99617 0.0
C650 C 0.21302 0.4274 0.96153 0.0
H651 H 0.18213 0.74139 0.42273 0.0
H652 H 0.19891 0.68155 0.58755 0.0
H653 H 0.14963 0.67496 0.6061 0.0
H654 H 0.12631 0.77212 0.51614 0.0
H655 H 0.10728 0.77904 0.43548 0.0
H656 H 0.14374 0.77774 0.43231 0.0
H657 H 0.14117 0.74117 0.33237 0.0
H658 H 0.10469 0.7423 0.33542 0.0
H659 H 0.12209 0.71052 0.34801 0.0
H660 H 0.09828 0.6739 0.60312 0.0
H661 H 0.04901 0.68152 0.58664 0.0
H662 H 0.0663 0.74579 0.43472 0.0
C663 C 0.17536 0.72673 0.46221 0.0
C664 C 0.19418 0.71172 0.50319 0.0
C665 C 0.18471 0.69317 0.55555 0.0
C666 C 0.15681 0.68925 0.56626 0.0
C667 C 0.13873 0.70443 0.52512 0.0
C668 C 0.14763 0.72309 0.47487 0.0
C669 C 0.12408 0.73797 0.44071 0.0
C670 C 0.12544 0.76852 0.45718 0.0
C671 C 0.12295 0.73266 0.3593 0.0
C672 C 0.10054 0.72461 0.47905 0.0
C673 C 0.10935 0.70506 0.52683 0.0
C674 C 0.09118 0.68941 0.56656 0.0
C675 C 0.06329 0.69397 0.55731 0.0
C676 C 0.05391 0.71434 0.50985 0.0
C677 C 0.07289 0.72987 0.47067 0.0
H678 H 0.79843 0.67756 0.03714 0.0
H679 H 0.74594 0.69516 0.85549 0.0
H680 H 0.7365 0.64638 0.84139 0.0
H681 H 0.82621 0.61396 0.9635 0.0
H682 H 0.82726 0.59781 0.05034 0.0
H683 H 0.83128 0.63405 0.04338 0.0
H684 H 0.79145 0.64077 0.13232 0.0
H685 H 0.7871 0.60459 0.13897 0.0
H686 H 0.75898 0.62567 0.11255 0.0
H687 H 0.72895 0.59652 0.85457 0.0
H688 H 0.72699 0.54798 0.88851 0.0
H689 H 0.78671 0.56202 0.05503 0.0
C690 C 0.78524 0.67114 0.99379 0.0
C691 C 0.7729 0.69024 0.94752 0.0
C692 C 0.75576 0.68096 0.89143 0.0
C693 C 0.7502 0.65327 0.88304 0.0
C694 C 0.76223 0.63508 0.93045 0.0
C695 C 0.77973 0.64353 0.98402 0.0
C696 C 0.78959 0.61977 0.02851 0.0
C697 C 0.82042 0.61619 0.02094 0.0
C698 C 0.78127 0.6229 0.10777 0.0
C699 C 0.77434 0.59677 0.99271 0.0
C700 C 0.75862 0.60607 0.93637 0.0
C701 C 0.74152 0.58891 0.89775 0.0
C702 C 0.74053 0.56148 0.91719 0.0
C703 C 0.75667 0.55153 0.97417 0.0
C704 C 0.77399 0.56934 0.01177 0.0
H705 H 0.82209 0.25902 0.58828 0.0
H706 H 0.80556 0.32953 0.45595 0.0
H707 H 0.85417 0.34135 0.457 0.0
H708 H 0.87844 0.28848 0.69492 0.0
H709 H 0.89765 0.25739 0.69383 0.0
H710 H 0.86112 0.25628 0.69111 0.0
H711 H 0.86305 0.22774 0.57423 0.0
H712 H 0.8995 0.22873 0.5767 0.0
H713 H 0.88169 0.24049 0.49805 0.0
H714 H 0.90441 0.344 0.46484 0.0
H715 H 0.95381 0.3353 0.47219 0.0
H716 H 0.93863 0.2622 0.59421 0.0
C717 C 0.82871 0.27725 0.56096 0.0
C718 C 0.81011 0.29353 0.52259 0.0
C719 C 0.81953 0.31683 0.48572 0.0
C720 C 0.84705 0.3238 0.48639 0.0
C721 C 0.86496 0.30715 0.52372 0.0
C722 C 0.85628 0.28425 0.56 0.0
C723 C 0.88013 0.26843 0.58979 0.0
C724 C 0.87928 0.2676 0.67233 0.0
C725 C 0.88115 0.23965 0.55775 0.0
C726 C 0.90352 0.2857 0.56327 0.0
C727 C 0.89425 0.3082 0.52637 0.0
C728 C 0.91192 0.32658 0.49406 0.0
C729 C 0.93982 0.32153 0.49827 0.0
C730 C 0.94965 0.29819 0.53361 0.0
C731 C 0.93137 0.28035 0.56774 0.0
H732 H 0.70858 0.17825 0.55083 0.0
H733 H 0.76418 0.19783 0.37775 0.0
H734 H 0.76865 0.14905 0.34933 0.0
H735 H 0.74076 0.11771 0.61019 0.0
H736 H 0.70957 0.09984 0.62785 0.0
H737 H 0.71062 0.13628 0.63426 0.0
H738 H 0.67113 0.1398 0.5428 0.0
H739 H 0.66993 0.10336 0.53609 0.0
H740 H 0.67423 0.12362 0.45629 0.0
H741 H 0.76952 0.09818 0.34569 0.0
H742 H 0.7647 0.04868 0.36275 0.0
H743 H 0.70505 0.06247 0.52945 0.0
C744 C 0.72174 0.17224 0.50706 0.0
C745 C 0.73622 0.19172 0.46677 0.0
C746 C 0.75291 0.18318 0.40919 0.0
C747 C 0.75559 0.15556 0.39273 0.0
C748 C 0.74105 0.13687 0.43355 0.0
C749 C 0.72421 0.14484 0.48899 0.0
C750 C 0.71056 0.12069 0.5239 0.0
C751 C 0.71835 0.11851 0.60377 0.0
C752 C 0.67963 0.12195 0.51415 0.0
C753 C 0.72279 0.09785 0.4804 0.0
C754 C 0.74041 0.10761 0.42877 0.0
C755 C 0.75537 0.09031 0.38491 0.0
C756 C 0.75235 0.06228 0.39449 0.0
C757 C 0.73424 0.05188 0.44666 0.0
C758 C 0.71907 0.06995 0.4894 0.0
H759 H 0.3196 0.19347 0.96511 0.0
H760 H 0.30308 0.24997 0.13867 0.0
H761 H 0.35187 0.25946 0.15027 0.0
H762 H 0.38152 0.16608 0.04684 0.0
H763 H 0.39864 0.16196 0.96199 0.0
H764 H 0.36222 0.15966 0.96628 0.0
H765 H 0.35841 0.19721 0.86948 0.0
H766 H 0.39481 0.1999 0.86563 0.0
H767 H 0.37464 0.22951 0.8845 0.0
H768 H 0.40134 0.26618 0.13646 0.0
H769 H 0.45043 0.26388 0.11228 0.0
H770 H 0.43677 0.19914 0.95873 0.0
C771 C 0.32637 0.20762 0.00589 0.0
C772 C 0.30756 0.22097 0.05107 0.0
C773 C 0.31713 0.2393 0.10403 0.0
C774 C 0.34479 0.24502 0.11066 0.0
C775 C 0.36276 0.23187 0.06488 0.0
C776 C 0.35415 0.21307 0.01467 0.0
C777 C 0.37812 0.20105 0.97457 0.0
C778 C 0.38025 0.17037 0.98827 0.0
C779 C 0.37638 0.2073 0.89375 0.0
C780 C 0.40138 0.21634 0.00961 0.0
C781 C 0.39189 0.23433 0.06062 0.0
C782 C 0.40912 0.25171 0.09792 0.0
C783 C 0.43695 0.25017 0.08418 0.0
C784 C 0.44742 0.2309 0.03514 0.0
C785 C 0.42931 0.21401 0.99663 0.0
H786 H 0.2555 0.81632 0.56574 0.0
H787 H 0.30966 0.80477 0.38479 0.0
H788 H 0.31703 0.85422 0.37759 0.0
H789 H 0.22351 0.87552 0.49355 0.0
H790 H 0.21953 0.8922 0.57911 0.0
H791 H 0.22033 0.85572 0.57456 0.0
H792 H 0.25996 0.85503 0.66599 0.0
H793 H 0.25938 0.89156 0.67046 0.0
H794 H 0.2903 0.87419 0.64729 0.0
H795 H 0.31866 0.90474 0.38937 0.0
H796 H 0.3108 0.95358 0.41211 0.0
H797 H 0.2523 0.93314 0.57696 0.0
C798 C 0.26912 0.82429 0.52529 0.0
C799 C 0.28219 0.80679 0.47614 0.0
C800 C 0.29945 0.81789 0.42288 0.0
C801 C 0.30388 0.84591 0.41861 0.0
C802 C 0.2906 0.86269 0.46734 0.0
C803 C 0.27328 0.85241 0.5191 0.0
C804 C 0.25998 0.87519 0.5611 0.0
C805 C 0.229 0.87462 0.55147 0.0
C806 C 0.26789 0.87391 0.64095 0.0
C807 C 0.27247 0.89975 0.52469 0.0
C808 C 0.29041 0.89204 0.47156 0.0
C809 C 0.30452 0.91104 0.43055 0.0
C810 C 0.29985 0.93868 0.44344 0.0
C811 C 0.2809 0.94709 0.49588 0.0
C812 C 0.26722 0.92729 0.53732 0.0
H813 H 0.68278 0.80404 0.92567 0.0
H814 H 0.69569 0.74906 0.10485 0.0
H815 H 0.64636 0.74622 0.12363 0.0
H816 H 0.62541 0.84016 0.00619 0.0
H817 H 0.6079 0.84382 0.92169 0.0
H818 H 0.64439 0.8424 0.92364 0.0
H819 H 0.64344 0.80215 0.83409 0.0
H820 H 0.60696 0.80332 0.83216 0.0
H821 H 0.624 0.77225 0.85576 0.0
H822 H 0.59584 0.7461 0.11687 0.0
H823 H 0.54707 0.75125 0.08951 0.0
H824 H 0.56635 0.809 0.92177 0.0
C825 C 0.67525 0.79156 0.96919 0.0
C826 C 0.69318 0.77674 0.01369 0.0
C827 C 0.68245 0.76072 0.07021 0.0
C828 C 0.65442 0.75891 0.08127 0.0
C829 C 0.63734 0.77351 0.03604 0.0
C830 C 0.64729 0.7898 0.98168 0.0
C831 C 0.6244 0.80322 0.94047 0.0
C832 C 0.6256 0.83424 0.94851 0.0
C833 C 0.62473 0.79472 0.86092 0.0
C834 C 0.60007 0.79147 0.97929 0.0
C835 C 0.60804 0.77432 0.03409 0.0
C836 C 0.58933 0.75987 0.07503 0.0
C837 C 0.56173 0.76302 0.05948 0.0
C838 C 0.55308 0.7807 0.00419 0.0
C839 C 0.57252 0.79527 0.96408 0.0
loop_
_geom_bond_atom_site_label_1
_geom_bond_atom_site_label_2
_geom_bond_distance
_geom_bond_site_symmetry_2
_ccdc_geom_bond_type
Sc0 O3 2.026 . S
Sc0 O10 2.105 . S
Sc0 O13 2.105 . S
Sc0 O16 2.105 . S
Sc0 O19 2.105 . S
Sc1 O3 2.025 . S
Sc1 O11 2.105 . S
Sc1 O15 2.105 1_554 S
Sc1 O17 2.105 . S
Sc1 O21 2.105 1_554 S
Sc2 O3 2.025 1_556 S
Sc2 O12 2.105 . S
Sc2 O14 2.105 . S
Sc2 O18 2.105 . S
Sc2 O20 2.105 . S
O3 Sc0 2.026 . S
O3 Sc1 2.025 . S
O3 Sc2 2.025 1_554 S
C4 O10 1.270 . S
C4 O20 1.266 1_554 S
C5 O11 1.268 . S
C5 O19 1.268 . S
C6 O12 1.268 . S
C6 O21 1.268 . S
C7 O13 1.268 . S
C7 O17 1.268 . S
C8 O14 1.266 1_554 S
C8 O16 1.270 . S
C9 O15 1.268 . S
C9 O18 1.268 . S
O10 Sc0 2.105 . S
O10 C4 1.270 . S
O11 Sc1 2.105 . S
O11 C5 1.268 . S
O12 Sc2 2.105 . S
O12 C6 1.268 . S
O13 Sc0 2.105 . S
O13 C7 1.268 . S
O14 Sc2 2.105 . S
O14 C8 1.266 1_556 S
O15 Sc1 2.105 1_556 S
O15 C9 1.268 . S
O16 Sc0 2.105 . S
O16 C8 1.270 . S
O17 Sc1 2.105 . S
O17 C7 1.268 . S
O18 Sc2 2.105 . S
O18 C9 1.268 . S
O19 Sc0 2.105 . S
O19 C5 1.268 . S
O20 Sc2 2.105 . S
O20 C4 1.266 1_556 S
O21 Sc1 2.105 1_556 S
O21 C6 1.268 . S
Sc22 O25 2.025 . S
Sc22 O32 2.105 . S
Sc22 O35 2.105 . S
Sc22 O38 2.105 . S
Sc22 O41 2.105 . S
Sc23 O25 2.025 . S
Sc23 O33 2.105 . S
Sc23 O37 2.105 . S
Sc23 O39 2.105 . S
Sc23 O43 2.105 . S
Sc24 O25 2.025 . S
Sc24 O34 2.105 . S
Sc24 O36 2.105 . S
Sc24 O40 2.105 . S
Sc24 O42 2.105 . S
O25 Sc22 2.025 . S
O25 Sc23 2.025 . S
O25 Sc24 2.025 . S
C26 O32 1.268 . S
C26 O42 1.268 . S
C27 O33 1.268 . S
C27 O41 1.268 . S
C28 O34 1.268 . S
C28 O43 1.268 . S
C29 O35 1.268 . S
C29 O39 1.268 . S
C30 O36 1.268 . S
C30 O38 1.268 . S
C31 O37 1.268 . S
C31 O40 1.268 . S
O32 Sc22 2.105 . S
O32 C26 1.268 . S
O33 Sc23 2.105 . S
O33 C27 1.268 . S
O34 Sc24 2.105 . S
O34 C28 1.268 . S
O35 Sc22 2.105 . S
O35 C29 1.268 . S
O36 Sc24 2.105 . S
O36 C30 1.268 . S
O37 Sc23 2.105 . S
O37 C31 1.268 . S
O38 Sc22 2.105 . S
O38 C30 1.268 . S
O39 Sc23 2.105 . S
O39 C29 1.268 . S
O40 Sc24 2.105 . S
O40 C31 1.268 . S
O41 Sc22 2.105 . S
O41 C27 1.268 . S
O42 Sc24 2.105 . S
O42 C26 1.268 . S
O43 Sc23 2.105 . S
O43 C28 1.268 . S
Sc44 O47 2.020 1_556 S
Sc44 O54 2.105 . S
Sc44 O57 2.105 . S
Sc44 O60 2.105 . S
Sc44 O63 2.105 . S
Sc45 O47 2.025 . S
Sc45 O55 2.100 1_554 S
Sc45 O59 2.110 . S
Sc45 O61 2.100 1_554 S
Sc45 O65 2.110 . S
Sc46 O47 2.031 . S
Sc46 O56 2.105 . S
Sc46 O58 2.105 . S
Sc46 O62 2.105 . S
Sc46 O64 2.105 . S
O47 Sc44 2.020 1_554 S
O47 Sc45 2.025 . S
O47 Sc46 2.031 . S
C48 O54 1.264 1_554 S
C48 O64 1.272 . S
C49 O55 1.268 . S
C49 O63 1.268 . S
C50 O56 1.268 . S
C50 O65 1.268 . S
C51 O57 1.268 . S
C51 O61 1.268 . S
C52 O58 1.272 . S
C52 O60 1.264 1_554 S
C53 O59 1.268 . S
C53 O62 1.268 . S
O54 Sc44 2.105 . S
O54 C48 1.264 1_556 S
O55 Sc45 2.100 1_556 S
O55 C49 1.268 . S
O56 Sc46 2.105 . S
O56 C50 1.268 . S
O57 Sc44 2.105 . S
O57 C51 1.268 . S
O58 Sc46 2.105 . S
O58 C52 1.272 . S
O59 Sc45 2.110 . S
O59 C53 1.268 . S
O60 Sc44 2.105 . S
O60 C52 1.264 1_556 S
O61 Sc45 2.100 1_556 S
O61 C51 1.268 . S
O62 Sc46 2.105 . S
O62 C53 1.268 . S
O63 Sc44 2.105 . S
O63 C49 1.268 . S
O64 Sc46 2.105 . S
O64 C48 1.272 . S
O65 Sc45 2.110 . S
O65 C50 1.268 . S
Sc66 O69 2.025 . S
Sc66 O76 2.105 . S
Sc66 O79 2.105 . S
Sc66 O82 2.105 . S
Sc66 O85 2.105 . S
Sc67 O69 2.025 . S
Sc67 O77 2.105 . S
Sc67 O81 2.105 . S
Sc67 O83 2.105 . S
Sc67 O87 2.105 . S
Sc68 O69 2.025 . S
Sc68 O78 2.105 . S
Sc68 O80 2.105 . S
Sc68 O84 2.105 . S
Sc68 O86 2.105 . S
O69 Sc66 2.025 . S
O69 Sc67 2.025 . S
O69 Sc68 2.025 . S
C70 O76 1.268 . S
C70 O86 1.268 . S
C71 O77 1.268 . S
C71 O85 1.268 . S
C72 O78 1.268 . S
C72 O87 1.268 . S
C73 O79 1.268 . S
C73 O83 1.268 . S
C74 O80 1.268 . S
C74 O82 1.268 . S
C75 O81 1.268 . S
C75 O84 1.268 . S
O76 Sc66 2.105 . S
O76 C70 1.268 . S
O77 Sc67 2.105 . S
O77 C71 1.268 . S
O78 Sc68 2.105 . S
O78 C72 1.268 . S
O79 Sc66 2.105 . S
O79 C73 1.268 . S
O80 Sc68 2.105 . S
O80 C74 1.268 . S
O81 Sc67 2.105 . S
O81 C75 1.268 . S
O82 Sc66 2.105 . S
O82 C74 1.268 . S
O83 Sc67 2.105 . S
O83 C73 1.268 . S
O84 Sc68 2.105 . S
O84 C75 1.268 . S
O85 Sc66 2.105 . S
O85 C71 1.268 . S
O86 Sc68 2.105 . S
O86 C70 1.268 . S
O87 Sc67 2.105 . S
O87 C72 1.268 . S
C88 N89 1.317 . S
C88 N90 1.361 . S
C88 C91 1.485 . S
N89 C88 1.317 . S
N89 N93 1.370 1_556 S
N90 C88 1.361 . S
N90 C92 1.334 1_556 S
C91 C88 1.485 . S
C91 H95 0.960 . S
C91 H96 0.961 . S
C91 H97 0.960 . S
C92 N90 1.334 1_554 S
C92 N93 1.307 . S
C92 C94 1.486 . S
N93 N89 1.370 1_554 S
N93 C92 1.307 . S
C94 C92 1.486 . S
C94 H98 0.960 . S
C94 H99 0.960 . S
C94 H100 0.959 . S
H95 C91 0.960 . S
H96 C91 0.961 . S
H97 C91 0.960 . S
H98 C94 0.960 . S
H99 C94 0.960 . S
H100 C94 0.959 . S
C101 N102 1.317 1_455 S
C101 N103 1.348 . S
C101 C104 1.485 . S
N102 C101 1.317 1_655 S
N102 N106 1.370 . S
N103 C101 1.348 . S
N103 C105 1.346 . S
C104 C101 1.485 . S
C104 H108 0.960 . S
C104 H109 0.961 . S
C104 H110 0.960 1_455 S
C105 N103 1.346 . S
C105 N106 1.307 1_455 S
C105 C107 1.486 . S
N106 N102 1.370 . S
N106 C105 1.307 1_655 S
C107 C105 1.486 . S
C107 H111 0.960 . S
C107 H112 0.960 . S
C107 H113 0.959 1_455 S
H108 C104 0.960 . S
H109 C104 0.961 . S
H110 C104 0.960 1_655 S
H111 C107 0.960 . S
H112 C107 0.960 . S
H113 C107 0.959 1_655 S
C114 N115 1.317 . S
C114 N116 1.348 . S
C114 C117 1.485 . S
N115 C114 1.317 . S
N115 N119 1.370 1_554 S
N116 C114 1.348 . S
N116 C118 1.346 1_554 S
C117 C114 1.485 . S
C117 H121 0.960 . S
C117 H122 0.961 . S
C117 H123 0.960 . S
C118 N116 1.346 1_556 S
C118 N119 1.307 . S
C118 C120 1.486 . S
N119 N115 1.370 1_556 S
N119 C118 1.307 . S
C120 C118 1.486 . S
C120 H124 0.960 . S
C120 H125 0.960 . S
C120 H126 0.959 . S
H121 C117 0.960 . S
H122 C117 0.961 . S
H123 C117 0.960 . S
H124 C120 0.960 . S
H125 C120 0.960 . S
H126 C120 0.959 . S
C127 N128 1.317 1_655 S
C127 N129 1.348 . S
C127 C130 1.485 . S
N128 C127 1.317 1_455 S
N128 N132 1.370 . S
N129 C127 1.348 . S
N129 C131 1.346 . S
C130 C127 1.485 . S
C130 H134 0.960 . S
C130 H135 0.961 . S
C130 H136 0.946 1_655 S
C131 N129 1.346 . S
C131 N132 1.307 1_655 S
C131 C133 1.486 . S
N132 N128 1.370 . S
N132 C131 1.307 1_455 S
C133 C131 1.486 . S
C133 H137 0.960 . S
C133 H138 0.960 . S
C133 H139 0.959 1_655 S
H134 C130 0.960 . S
H135 C130 0.961 . S
H136 C130 0.946 1_455 S
H137 C133 0.960 . S
H138 C133 0.960 . S
H139 C133 0.959 1_455 S
C140 N141 1.317 1_545 S
C140 N142 1.348 . S
C140 C143 1.485 . S
N141 C140 1.317 1_565 S
N141 N145 1.370 . S
N142 C140 1.348 . S
N142 C144 1.346 . S
C143 C140 1.485 . S
C143 H147 0.960 . S
C143 H148 0.961 . S
C143 H149 0.946 1_545 S
C144 N142 1.346 . S
C144 N145 1.307 1_545 S
C144 C146 1.486 . S
N145 N141 1.370 . S
N145 C144 1.307 1_565 S
C146 C144 1.486 . S
C146 H150 0.960 . S
C146 H151 0.960 . S
C146 H152 0.959 1_545 S
H147 C143 0.960 . S
H148 C143 0.961 . S
H149 C143 0.946 1_565 S
H150 C146 0.960 . S
H151 C146 0.960 . S
H152 C146 0.959 1_565 S
C153 N154 1.317 . S
C153 N155 1.361 . S
C153 C156 1.485 . S
N154 C153 1.317 . S
N154 N158 1.370 1_556 S
N155 C153 1.361 . S
N155 C157 1.334 1_556 S
C156 C153 1.485 . S
C156 H160 0.960 . S
C156 H161 0.961 . S
C156 H162 0.960 . S
C157 N155 1.334 1_554 S
C157 N158 1.307 . S
C157 C159 1.486 . S
N158 N154 1.370 1_554 S
N158 C157 1.307 . S
C159 C157 1.486 . S
C159 H163 0.960 . S
C159 H164 0.960 . S
C159 H165 0.959 . S
H160 C156 0.960 . S
H161 C156 0.961 . S
H162 C156 0.960 . S
H163 C159 0.960 . S
H164 C159 0.960 . S
H165 C159 0.959 . S
C166 N167 1.317 1_565 S
C166 N168 1.348 . S
C166 C169 1.485 . S
N167 C166 1.317 1_545 S
N167 N171 1.370 . S
N168 C166 1.348 . S
N168 C170 1.346 . S
C169 C166 1.485 . S
C169 H173 0.960 . S
C169 H174 0.961 . S
C169 H175 0.960 1_565 S
C170 N168 1.346 . S
C170 N171 1.307 1_565 S
C170 C172 1.486 . S
N171 N167 1.370 . S
N171 C170 1.307 1_545 S
C172 C170 1.486 . S
C172 H176 0.960 . S
C172 H177 0.960 . S
C172 H178 0.959 1_565 S
H173 C169 0.960 . S
H174 C169 0.961 . S
H175 C169 0.960 1_545 S
H176 C172 0.960 . S
H177 C172 0.960 . S
H178 C172 0.959 1_545 S
C179 N180 1.317 . S
C179 N181 1.348 . S
C179 C182 1.485 . S
N180 C179 1.317 . S
N180 N184 1.370 1_554 S
N181 C179 1.348 . S
N181 C183 1.346 1_554 S
C182 C179 1.485 . S
C182 H186 0.960 . S
C182 H187 0.961 . S
C182 H188 0.960 . S
C183 N181 1.346 1_556 S
C183 N184 1.307 . S
C183 C185 1.486 . S
N184 N180 1.370 1_556 S
N184 C183 1.307 . S
C185 C183 1.486 . S
C185 H189 0.960 . S
C185 H190 0.960 . S
C185 H191 0.959 . S
H186 C182 0.960 . S
H187 C182 0.961 . S
H188 C182 0.960 . S
H189 C185 0.960 . S
H190 C185 0.960 . S
H191 C185 0.959 . S
H192 C204 0.930 . S
H193 C206 0.930 . S
H194 C207 0.930 . S
H195 C211 0.959 . S
H196 C211 0.959 . S
H197 C211 0.961 . S
H198 C212 0.960 . S
H199 C212 0.961 . S
H200 C212 0.959 . S
H201 C215 0.929 . S
H202 C216 0.931 . S
H203 C218 0.930 . S
C204 H192 0.930 . S
C204 C205 1.399 . S
C204 C209 1.399 . S
C205 C204 1.399 . S
C205 C206 1.376 . S
C206 H193 0.930 . S
C206 C205 1.376 . S
C206 C207 1.388 . S
C207 H194 0.930 . S
C207 C206 1.388 . S
C207 C208 1.390 . S
C208 C207 1.390 . S
C208 C209 1.394 . S
C208 C214 1.465 . S
C209 C204 1.399 . S
C209 C208 1.394 . S
C209 C210 1.516 . S
C210 C209 1.516 . S
C210 C211 1.502 . S
C210 C212 1.561 . S
C210 C213 1.526 . S
C211 H195 0.959 . S
C211 H196 0.959 . S
C211 H197 0.961 . S
C211 C210 1.502 . S
C212 H198 0.960 . S
C212 H199 0.961 . S
C212 H200 0.959 . S
C212 C210 1.561 . S
C213 C210 1.526 . S
C213 C214 1.396 . S
C213 C218 1.390 . S
C214 C208 1.465 . S
C214 C213 1.396 . S
C214 C215 1.399 . S
C215 H201 0.929 . S
C215 C214 1.399 . S
C215 C216 1.385 . S
C216 H202 0.931 . S
C216 C215 1.385 . S
C216 C217 1.389 . S
C217 C216 1.389 . S
C217 C218 1.387 . S
C218 H203 0.930 . S
C218 C213 1.390 . S
C218 C217 1.387 . S
H219 C231 0.930 . S
H220 C233 0.930 . S
H221 C234 0.930 . S
H222 C238 0.959 . S
H223 C238 0.959 . S
H224 C238 0.961 . S
H225 C239 0.960 . S
H226 C239 0.961 . S
H227 C239 0.959 . S
H228 C242 0.929 . S
H229 C243 0.931 . S
H230 C245 0.930 . S
C231 H219 0.930 . S
C231 C232 1.399 . S
C231 C236 1.399 . S
C232 C231 1.399 . S
C232 C233 1.376 . S
C233 H220 0.930 . S
C233 C232 1.376 . S
C233 C234 1.388 . S
C234 H221 0.930 . S
C234 C233 1.388 . S
C234 C235 1.390 . S
C235 C234 1.390 . S
C235 C236 1.394 . S
C235 C241 1.465 . S
C236 C231 1.399 . S
C236 C235 1.394 . S
C236 C237 1.516 . S
C237 C236 1.516 . S
C237 C238 1.502 . S
C237 C239 1.561 . S
C237 C240 1.526 . S
C238 H222 0.959 . S
C238 H223 0.959 . S
C238 H224 0.961 . S
C238 C237 1.502 . S
C239 H225 0.960 . S
C239 H226 0.961 . S
C239 H227 0.959 . S
C239 C237 1.561 . S
C240 C237 1.526 . S
C240 C241 1.396 . S
C240 C245 1.390 . S
C241 C235 1.465 . S
C241 C240 1.396 . S
C241 C242 1.399 . S
C242 H228 0.929 . S
C242 C241 1.399 . S
C242 C243 1.385 . S
C243 H229 0.931 . S
C243 C242 1.385 . S
C243 C244 1.389 . S
C244 C243 1.389 . S
C244 C245 1.387 . S
C245 H230 0.930 . S
C245 C240 1.390 . S
C245 C244 1.387 . S
H246 C258 0.930 . S
H247 C260 0.930 . S
H248 C261 0.930 . S
H249 C265 0.959 . S
H250 C265 0.959 . S
H251 C265 0.961 . S
H252 C266 0.960 . S
H253 C266 0.961 . S
H254 C266 0.959 . S
H255 C269 0.929 . S
H256 C270 0.931 . S
H257 C272 0.930 . S
C258 H246 0.930 . S
C258 C259 1.399 . S
C258 C263 1.399 . S
C259 C258 1.399 . S
C259 C260 1.376 . S
C260 H247 0.930 . S
C260 C259 1.376 . S
C260 C261 1.388 . S
C261 H248 0.930 . S
C261 C260 1.388 . S
C261 C262 1.390 . S
C262 C261 1.390 . S
C262 C263 1.394 . S
C262 C268 1.465 . S
C263 C258 1.399 . S
C263 C262 1.394 . S
C263 C264 1.516 . S
C264 C263 1.516 . S
C264 C265 1.502 . S
C264 C266 1.561 . S
C264 C267 1.526 . S
C265 H249 0.959 . S
C265 H250 0.959 . S
C265 H251 0.961 . S
C265 C264 1.502 . S
C266 H252 0.960 . S
C266 H253 0.961 . S
C266 H254 0.959 . S
C266 C264 1.561 . S
C267 C264 1.526 . S
C267 C268 1.396 . S
C267 C272 1.390 . S
C268 C262 1.465 . S
C268 C267 1.396 . S
C268 C269 1.399 . S
C269 H255 0.929 . S
C269 C268 1.399 . S
C269 C270 1.385 . S
C270 H256 0.931 . S
C270 C269 1.385 . S
C270 C271 1.389 . S
C271 C270 1.389 . S
C271 C272 1.387 . S
C272 H257 0.930 . S
C272 C267 1.390 . S
C272 C271 1.387 . S
H273 C285 0.930 . S
H274 C287 0.930 . S
H275 C288 0.930 . S
H276 C292 0.959 . S
H277 C292 0.959 . S
H278 C292 0.961 . S
H279 C293 0.960 . S
H280 C293 0.961 . S
H281 C293 0.959 . S
H282 C296 0.929 . S
H283 C297 0.931 . S
H284 C299 0.930 . S
C285 H273 0.930 . S
C285 C286 1.399 . S
C285 C290 1.399 . S
C286 C285 1.399 . S
C286 C287 1.376 . S
C287 H274 0.930 . S
C287 C286 1.376 . S
C287 C288 1.388 . S
C288 H275 0.930 . S
C288 C287 1.388 . S
C288 C289 1.390 . S
C289 C288 1.390 . S
C289 C290 1.394 . S
C289 C295 1.465 . S
C290 C285 1.399 . S
C290 C289 1.394 . S
C290 C291 1.516 . S
C291 C290 1.516 . S
C291 C292 1.502 . S
C291 C293 1.561 . S
C291 C294 1.526 . S
C292 H276 0.959 . S
C292 H277 0.959 . S
C292 H278 0.961 . S
C292 C291 1.502 . S
C293 H279 0.960 . S
C293 H280 0.961 . S
C293 H281 0.959 . S
C293 C291 1.561 . S
C294 C291 1.526 . S
C294 C295 1.396 . S
C294 C299 1.390 . S
C295 C289 1.465 . S
C295 C294 1.396 . S
C295 C296 1.399 . S
C296 H282 0.929 . S
C296 C295 1.399 . S
C296 C297 1.385 . S
C297 H283 0.931 . S
C297 C296 1.385 . S
C297 C298 1.389 . S
C298 C297 1.389 . S
C298 C299 1.387 . S
C299 H284 0.930 . S
C299 C294 1.390 . S
C299 C298 1.387 . S
H300 C312 0.930 . S
H301 C314 0.930 . S
H302 C315 0.930 . S
H303 C319 0.959 . S
H304 C319 0.959 . S
H305 C319 0.961 . S
H306 C320 0.960 . S
H307 C320 0.961 . S
H308 C320 0.959 . S
H309 C323 0.929 . S
H310 C324 0.931 . S
H311 C326 0.930 . S
C312 H300 0.930 . S
C312 C313 1.399 . S
C312 C317 1.399 . S
C313 C312 1.399 . S
C313 C314 1.376 . S
C314 H301 0.930 . S
C314 C313 1.376 . S
C314 C315 1.388 . S
C315 H302 0.930 . S
C315 C314 1.388 . S
C315 C316 1.390 . S
C316 C315 1.390 . S
C316 C317 1.394 . S
C316 C322 1.465 . S
C317 C312 1.399 . S
C317 C316 1.394 . S
C317 C318 1.516 . S
C318 C317 1.516 . S
C318 C319 1.502 . S
C318 C320 1.561 . S
C318 C321 1.526 . S
C319 H303 0.959 . S
C319 H304 0.959 . S
C319 H305 0.961 . S
C319 C318 1.502 . S
C320 H306 0.960 . S
C320 H307 0.961 . S
C320 H308 0.959 . S
C320 C318 1.561 . S
C321 C318 1.526 . S
C321 C322 1.396 . S
C321 C326 1.390 . S
C322 C316 1.465 . S
C322 C321 1.396 . S
C322 C323 1.399 . S
C323 H309 0.929 . S
C323 C322 1.399 . S
C323 C324 1.385 . S
C324 H310 0.931 . S
C324 C323 1.385 . S
C324 C325 1.389 . S
C325 C324 1.389 . S
C325 C326 1.387 . S
C326 H311 0.930 . S
C326 C321 1.390 . S
C326 C325 1.387 . S
H327 C339 0.930 . S
H328 C341 0.930 . S
H329 C342 0.930 . S
H330 C346 0.959 . S
H331 C346 0.959 . S
H332 C346 0.961 . S
H333 C347 0.960 . S
H334 C347 0.961 . S
H335 C347 0.959 . S
H336 C350 0.929 . S
H337 C351 0.931 . S
H338 C353 0.930 . S
C339 H327 0.930 . S
C339 C340 1.399 . S
C339 C344 1.399 . S
C340 C339 1.399 . S
C340 C341 1.376 . S
C341 H328 0.930 . S
C341 C340 1.376 . S
C341 C342 1.388 . S
C342 H329 0.930 . S
C342 C341 1.388 . S
C342 C343 1.390 . S
C343 C342 1.390 . S
C343 C344 1.394 . S
C343 C349 1.465 . S
C344 C339 1.399 . S
C344 C343 1.394 . S
C344 C345 1.516 . S
C345 C344 1.516 . S
C345 C346 1.502 . S
C345 C347 1.561 . S
C345 C348 1.526 . S
C346 H330 0.959 . S
C346 H331 0.959 . S
C346 H332 0.961 . S
C346 C345 1.502 . S
C347 H333 0.960 . S
C347 H334 0.961 . S
C347 H335 0.959 . S
C347 C345 1.561 . S
C348 C345 1.526 . S
C348 C349 1.396 . S
C348 C353 1.390 . S
C349 C343 1.465 . S
C349 C348 1.396 . S
C349 C350 1.399 . S
C350 H336 0.929 . S
C350 C349 1.399 . S
C350 C351 1.385 . S
C351 H337 0.931 . S
C351 C350 1.385 . S
C351 C352 1.389 . S
C352 C351 1.389 . S
C352 C353 1.387 . S
C353 H338 0.930 . S
C353 C348 1.390 . S
C353 C352 1.387 . S
H354 C366 0.930 . S
H355 C368 0.930 . S
H356 C369 0.930 . S
H357 C373 0.959 . S
H358 C373 0.959 . S
H359 C373 0.961 . S
H360 C374 0.960 . S
H361 C374 0.961 . S
H362 C374 0.959 . S
H363 C377 0.929 . S
H364 C378 0.931 . S
H365 C380 0.930 . S
C366 H354 0.930 . S
C366 C367 1.399 . S
C366 C371 1.399 . S
C367 C366 1.399 . S
C367 C368 1.376 . S
C368 H355 0.930 . S
C368 C367 1.376 . S
C368 C369 1.388 . S
C369 H356 0.930 . S
C369 C368 1.388 . S
C369 C370 1.390 . S
C370 C369 1.390 . S
C370 C371 1.394 . S
C370 C376 1.465 . S
C371 C366 1.399 . S
C371 C370 1.394 . S
C371 C372 1.516 . S
C372 C371 1.516 . S
C372 C373 1.502 . S
C372 C374 1.561 . S
C372 C375 1.526 . S
C373 H357 0.959 . S
C373 H358 0.959 . S
C373 H359 0.961 . S
C373 C372 1.502 . S
C374 H360 0.960 . S
C374 H361 0.961 . S
C374 H362 0.959 . S
C374 C372 1.561 . S
C375 C372 1.526 . S
C375 C376 1.396 . S
C375 C380 1.390 . S
C376 C370 1.465 . S
C376 C375 1.396 . S
C376 C377 1.399 . S
C377 H363 0.929 . S
C377 C376 1.399 . S
C377 C378 1.385 . S
C378 H364 0.931 . S
C378 C377 1.385 . S
C378 C379 1.389 . S
C379 C378 1.389 . S
C379 C380 1.387 . S
C380 H365 0.930 . S
C380 C375 1.390 . S
C380 C379 1.387 . S
H381 C393 0.930 . S
H382 C395 0.930 . S
H383 C396 0.930 . S
H384 C400 0.959 . S
H385 C400 0.959 . S
H386 C400 0.961 . S
H387 C401 0.960 . S
H388 C401 0.961 . S
H389 C401 0.959 . S
H390 C404 0.929 . S
H391 C405 0.931 . S
H392 C407 0.930 . S
C393 H381 0.930 . S
C393 C394 1.399 . S
C393 C398 1.399 . S
C394 C393 1.399 . S
C394 C395 1.376 . S
C395 H382 0.930 . S
C395 C394 1.376 . S
C395 C396 1.388 . S
C396 H383 0.930 . S
C396 C395 1.388 . S
C396 C397 1.390 . S
C397 C396 1.390 . S
C397 C398 1.394 . S
C397 C403 1.465 . S
C398 C393 1.399 . S
C398 C397 1.394 . S
C398 C399 1.516 . S
C399 C398 1.516 . S
C399 C400 1.502 . S
C399 C401 1.561 . S
C399 C402 1.526 . S
C400 H384 0.959 . S
C400 H385 0.959 . S
C400 H386 0.961 . S
C400 C399 1.502 . S
C401 H387 0.960 . S
C401 H388 0.961 . S
C401 H389 0.959 . S
C401 C399 1.561 . S
C402 C399 1.526 . S
C402 C403 1.396 . S
C402 C407 1.390 . S
C403 C397 1.465 . S
C403 C402 1.396 . S
C403 C404 1.399 . S
C404 H390 0.929 . S
C404 C403 1.399 . S
C404 C405 1.385 . S
C405 H391 0.931 . S
C405 C404 1.385 . S
C405 C406 1.389 . S
C406 C405 1.389 . S
C406 C407 1.387 . S
C407 H392 0.930 . S
C407 C402 1.390 . S
C407 C406 1.387 . S
H408 C420 0.930 . S
H409 C422 0.930 . S
H410 C423 0.930 . S
H411 C427 0.959 . S
H412 C427 0.959 . S
H413 C427 0.961 . S
H414 C428 0.960 . S
H415 C428 0.961 . S
H416 C428 0.959 . S
H417 C431 0.929 . S
H418 C432 0.931 . S
H419 C434 0.930 . S
C420 H408 0.930 . S
C420 C421 1.399 . S
C420 C425 1.399 . S
C421 C420 1.399 . S
C421 C422 1.376 . S
C422 H409 0.930 . S
C422 C421 1.376 . S
C422 C423 1.388 . S
C423 H410 0.930 . S
C423 C422 1.388 . S
C423 C424 1.390 . S
C424 C423 1.390 . S
C424 C425 1.394 . S
C424 C430 1.465 . S
C425 C420 1.399 . S
C425 C424 1.394 . S
C425 C426 1.516 . S
C426 C425 1.516 . S
C426 C427 1.502 . S
C426 C428 1.561 . S
C426 C429 1.526 . S
C427 H411 0.959 . S
C427 H412 0.959 . S
C427 H413 0.961 . S
C427 C426 1.502 . S
C428 H414 0.960 . S
C428 H415 0.961 . S
C428 H416 0.959 . S
C428 C426 1.561 . S
C429 C426 1.526 . S
C429 C430 1.396 . S
C429 C434 1.390 . S
C430 C424 1.465 . S
C430 C429 1.396 . S
C430 C431 1.399 . S
C431 H417 0.929 . S
C431 C430 1.399 . S
C431 C432 1.385 . S
C432 H418 0.931 . S
C432 C431 1.385 . S
C432 C433 1.389 . S
C433 C432 1.389 . S
C433 C434 1.387 . S
C434 H419 0.930 . S
C434 C429 1.390 . S
C434 C433 1.387 . S
H435 C447 0.930 . S
H436 C449 0.930 . S
H437 C450 0.930 . S
H438 C454 0.959 . S
H439 C454 0.959 . S
H440 C454 0.961 . S
H441 C455 0.960 . S
H442 C455 0.961 . S
H443 C455 0.959 . S
H444 C458 0.929 . S
H445 C459 0.931 . S
H446 C461 0.930 . S
C447 H435 0.930 . S
C447 C448 1.399 . S
C447 C452 1.399 . S
C448 C447 1.399 . S
C448 C449 1.376 . S
C449 H436 0.930 . S
C449 C448 1.376 . S
C449 C450 1.388 . S
C450 H437 0.930 . S
C450 C449 1.388 . S
C450 C451 1.390 . S
C451 C450 1.390 . S
C451 C452 1.394 . S
C451 C457 1.465 . S
C452 C447 1.399 . S
C452 C451 1.394 . S
C452 C453 1.516 . S
C453 C452 1.516 . S
C453 C454 1.502 . S
C453 C455 1.561 . S
C453 C456 1.526 . S
C454 H438 0.959 . S
C454 H439 0.959 . S
C454 H440 0.961 . S
C454 C453 1.502 . S
C455 H441 0.960 . S
C455 H442 0.961 . S
C455 H443 0.959 . S
C455 C453 1.561 . S
C456 C453 1.526 . S
C456 C457 1.396 . S
C456 C461 1.390 . S
C457 C451 1.465 . S
C457 C456 1.396 . S
C457 C458 1.399 . S
C458 H444 0.929 . S
C458 C457 1.399 . S
C458 C459 1.385 . S
C459 H445 0.931 . S
C459 C458 1.385 . S
C459 C460 1.389 . S
C460 C459 1.389 . S
C460 C461 1.387 . S
C461 H446 0.930 . S
C461 C456 1.390 . S
C461 C460 1.387 . S
H462 C474 0.930 . S
H463 C476 0.930 . S
H464 C477 0.930 . S
H465 C481 0.959 . S
H466 C481 0.959 . S
H467 C481 0.961 . S
H468 C482 0.960 . S
H469 C482 0.961 . S
H470 C482 0.959 . S
H471 C485 0.929 . S
H472 C486 0.931 . S
H473 C488 0.930 . S
C474 H462 0.930 . S
C474 C475 1.399 . S
C474 C479 1.399 . S
C475 C474 1.399 . S
C475 C476 1.376 . S
C476 H463 0.930 . S
C476 C475 1.376 . S
C476 C477 1.388 . S
C477 H464 0.930 . S
C477 C476 1.388 . S
C477 C478 1.390 . S
C478 C477 1.390 . S
C478 C479 1.394 . S
C478 C484 1.465 . S
C479 C474 1.399 . S
C479 C478 1.394 . S
C479 C480 1.516 . S
C480 C479 1.516 . S
C480 C481 1.502 . S
C480 C482 1.561 . S
C480 C483 1.526 . S
C481 H465 0.959 . S
C481 H466 0.959 . S
C481 H467 0.961 . S
C481 C480 1.502 . S
C482 H468 0.960 . S
C482 H469 0.961 . S
C482 H470 0.959 . S
C482 C480 1.561 . S
C483 C480 1.526 . S
C483 C484 1.396 . S
C483 C488 1.390 . S
C484 C478 1.465 . S
C484 C483 1.396 . S
C484 C485 1.399 . S
C485 H471 0.929 . S
C485 C484 1.399 . S
C485 C486 1.385 . S
C486 H472 0.931 . S
C486 C485 1.385 . S
C486 C487 1.389 . S
C487 C486 1.389 . S
C487 C488 1.387 . S
C488 H473 0.930 . S
C488 C483 1.390 . S
C488 C487 1.387 . S
H489 C501 0.930 . S
H490 C503 0.930 . S
H491 C504 0.930 . S
H492 C508 0.959 . S
H493 C508 0.959 . S
H494 C508 0.961 . S
H495 C509 0.960 . S
H496 C509 0.961 . S
H497 C509 0.959 . S
H498 C512 0.929 . S
H499 C513 0.931 . S
H500 C515 0.930 . S
C501 H489 0.930 . S
C501 C502 1.399 . S
C501 C506 1.399 . S
C502 C501 1.399 . S
C502 C503 1.376 . S
C503 H490 0.930 . S
C503 C502 1.376 . S
C503 C504 1.388 . S
C504 H491 0.930 . S
C504 C503 1.388 . S
C504 C505 1.390 . S
C505 C504 1.390 . S
C505 C506 1.394 . S
C505 C511 1.465 . S
C506 C501 1.399 . S
C506 C505 1.394 . S
C506 C507 1.516 . S
C507 C506 1.516 . S
C507 C508 1.502 . S
C507 C509 1.561 . S
C507 C510 1.526 . S
C508 H492 0.959 . S
C508 H493 0.959 . S
C508 H494 0.961 . S
C508 C507 1.502 . S
C509 H495 0.960 . S
C509 H496 0.961 . S
C509 H497 0.959 . S
C509 C507 1.561 . S
C510 C507 1.526 . S
C510 C511 1.396 . S
C510 C515 1.390 . S
C511 C505 1.465 . S
C511 C510 1.396 . S
C511 C512 1.399 . S
C512 H498 0.929 . S
C512 C511 1.399 . S
C512 C513 1.385 . S
C513 H499 0.931 . S
C513 C512 1.385 . S
C513 C514 1.389 . S
C514 C513 1.389 . S
C514 C515 1.387 . S
C515 H500 0.930 . S
C515 C510 1.390 . S
C515 C514 1.387 . S
H516 C528 0.930 . S
H517 C530 0.930 . S
H518 C531 0.930 . S
H519 C535 0.959 . S
H520 C535 0.959 . S
H521 C535 0.961 . S
H522 C536 0.960 . S
H523 C536 0.961 . S
H524 C536 0.959 . S
H525 C539 0.929 . S
H526 C540 0.931 . S
H527 C542 0.930 . S
C528 H516 0.930 . S
C528 C529 1.399 . S
C528 C533 1.399 . S
C529 C528 1.399 . S
C529 C530 1.376 . S
C530 H517 0.930 . S
C530 C529 1.376 . S
C530 C531 1.388 . S
C531 H518 0.930 . S
C531 C530 1.388 . S
C531 C532 1.390 . S
C532 C531 1.390 . S
C532 C533 1.394 . S
C532 C538 1.465 . S
C533 C528 1.399 . S
C533 C532 1.394 . S
C533 C534 1.516 . S
C534 C533 1.516 . S
C534 C535 1.502 . S
C534 C536 1.561 . S
C534 C537 1.526 . S
C535 H519 0.959 . S
C535 H520 0.959 . S
C535 H521 0.961 . S
C535 C534 1.502 . S
C536 H522 0.960 . S
C536 H523 0.961 . S
C536 H524 0.959 . S
C536 C534 1.561 . S
C537 C534 1.526 . S
C537 C538 1.396 . S
C537 C542 1.390 . S
C538 C532 1.465 . S
C538 C537 1.396 . S
C538 C539 1.399 . S
C539 H525 0.929 . S
C539 C538 1.399 . S
C539 C540 1.385 . S
C540 H526 0.931 . S
C540 C539 1.385 . S
C540 C541 1.389 . S
C541 C540 1.389 . S
C541 C542 1.387 . S
C542 H527 0.930 . S
C542 C537 1.390 . S
C542 C541 1.387 . S
H543 C555 0.930 . S
H544 C557 0.930 . S
H545 C558 0.930 . S
H546 C562 0.959 . S
H547 C562 0.959 . S
H548 C562 0.961 . S
H549 C563 0.960 . S
H550 C563 0.961 . S
H551 C563 0.959 . S
H552 C566 0.929 . S
H553 C567 0.931 . S
H554 C569 0.930 . S
C555 H543 0.930 . S
C555 C556 1.399 . S
C555 C560 1.399 . S
C556 C555 1.399 . S
C556 C557 1.376 . S
C557 H544 0.930 . S
C557 C556 1.376 . S
C557 C558 1.388 . S
C558 H545 0.930 . S
C558 C557 1.388 . S
C558 C559 1.390 . S
C559 C558 1.390 . S
C559 C560 1.394 . S
C559 C565 1.465 . S
C560 C555 1.399 . S
C560 C559 1.394 . S
C560 C561 1.516 . S
C561 C560 1.516 . S
C561 C562 1.502 . S
C561 C563 1.561 . S
C561 C564 1.526 . S
C562 H546 0.959 . S
C562 H547 0.959 . S
C562 H548 0.961 . S
C562 C561 1.502 . S
C563 H549 0.960 . S
C563 H550 0.961 . S
C563 H551 0.959 . S
C563 C561 1.561 . S
C564 C561 1.526 . S
C564 C565 1.396 . S
C564 C569 1.390 . S
C565 C559 1.465 . S
C565 C564 1.396 . S
C565 C566 1.399 . S
C566 H552 0.929 . S
C566 C565 1.399 . S
C566 C567 1.385 . S
C567 H553 0.931 . S
C567 C566 1.385 . S
C567 C568 1.389 . S
C568 C567 1.389 . S
C568 C569 1.387 . S
C569 H554 0.930 . S
C569 C564 1.390 . S
C569 C568 1.387 . S
H570 C582 0.930 . S
H571 C584 0.930 . S
H572 C585 0.930 . S
H573 C589 0.959 . S
H574 C589 0.959 . S
H575 C589 0.961 . S
H576 C590 0.960 . S
H577 C590 0.961 . S
H578 C590 0.959 . S
H579 C593 0.929 . S
H580 C594 0.931 . S
H581 C596 0.930 . S
C582 H570 0.930 . S
C582 C583 1.399 . S
C582 C587 1.399 . S
C583 C582 1.399 . S
C583 C584 1.376 . S
C584 H571 0.930 . S
C584 C583 1.376 . S
C584 C585 1.388 . S
C585 H572 0.930 . S
C585 C584 1.388 . S
C585 C586 1.390 . S
C586 C585 1.390 . S
C586 C587 1.394 . S
C586 C592 1.465 . S
C587 C582 1.399 . S
C587 C586 1.394 . S
C587 C588 1.516 . S
C588 C587 1.516 . S
C588 C589 1.502 . S
C588 C590 1.561 . S
C588 C591 1.526 . S
C589 H573 0.959 . S
C589 H574 0.959 . S
C589 H575 0.961 . S
C589 C588 1.502 . S
C590 H576 0.960 . S
C590 H577 0.961 . S
C590 H578 0.959 . S
C590 C588 1.561 . S
C591 C588 1.526 . S
C591 C592 1.396 . S
C591 C596 1.390 . S
C592 C586 1.465 . S
C592 C591 1.396 . S
C592 C593 1.399 . S
C593 H579 0.929 . S
C593 C592 1.399 . S
C593 C594 1.385 . S
C594 H580 0.931 . S
C594 C593 1.385 . S
C594 C595 1.389 . S
C595 C594 1.389 . S
C595 C596 1.387 . S
C596 H581 0.930 . S
C596 C591 1.390 . S
C596 C595 1.387 . S
H597 C609 0.930 . S
H598 C611 0.930 . S
H599 C612 0.930 . S
H600 C616 0.959 . S
H601 C616 0.959 . S
H602 C616 0.961 . S
H603 C617 0.960 . S
H604 C617 0.961 . S
H605 C617 0.959 . S
H606 C620 0.929 . S
H607 C621 0.931 . S
H608 C623 0.930 . S
C609 H597 0.930 . S
C609 C610 1.399 . S
C609 C614 1.399 . S
C610 C609 1.399 . S
C610 C611 1.376 . S
C611 H598 0.930 . S
C611 C610 1.376 . S
C611 C612 1.388 . S
C612 H599 0.930 . S
C612 C611 1.388 . S
C612 C613 1.390 . S
C613 C612 1.390 . S
C613 C614 1.394 . S
C613 C619 1.465 . S
C614 C609 1.399 . S
C614 C613 1.394 . S
C614 C615 1.516 . S
C615 C614 1.516 . S
C615 C616 1.502 . S
C615 C617 1.561 . S
C615 C618 1.526 . S
C616 H600 0.959 . S
C616 H601 0.959 . S
C616 H602 0.961 . S
C616 C615 1.502 . S
C617 H603 0.960 . S
C617 H604 0.961 . S
C617 H605 0.959 . S
C617 C615 1.561 . S
C618 C615 1.526 . S
C618 C619 1.396 . S
C618 C623 1.390 . S
C619 C613 1.465 . S
C619 C618 1.396 . S
C619 C620 1.399 . S
C620 H606 0.929 . S
C620 C619 1.399 . S
C620 C621 1.385 . S
C621 H607 0.931 . S
C621 C620 1.385 . S
C621 C622 1.389 . S
C622 C621 1.389 . S
C622 C623 1.387 . S
C623 H608 0.930 . S
C623 C618 1.390 . S
C623 C622 1.387 . S
H624 C636 0.930 . S
H625 C638 0.930 . S
H626 C639 0.930 . S
H627 C643 0.959 . S
H628 C643 0.959 . S
H629 C643 0.961 . S
H630 C644 0.960 . S
H631 C644 0.961 . S
H632 C644 0.959 1_554 S
H633 C647 0.929 . S
H634 C648 0.931 . S
H635 C650 0.930 . S
C636 H624 0.930 . S
C636 C637 1.399 1_556 S
C636 C641 1.399 . S
C637 C636 1.399 1_554 S
C637 C638 1.376 . S
C638 H625 0.930 . S
C638 C637 1.376 . S
C638 C639 1.388 . S
C639 H626 0.930 . S
C639 C638 1.388 . S
C639 C640 1.390 . S
C640 C639 1.390 . S
C640 C641 1.394 1_554 S
C640 C646 1.465 . S
C641 C636 1.399 . S
C641 C640 1.394 1_556 S
C641 C642 1.516 . S
C642 C641 1.516 . S
C642 C643 1.502 . S
C642 C644 1.561 . S
C642 C645 1.526 . S
C643 H627 0.959 . S
C643 H628 0.959 . S
C643 H629 0.961 . S
C643 C642 1.502 . S
C644 H630 0.960 . S
C644 H631 0.961 . S
C644 H632 0.959 1_556 S
C644 C642 1.561 . S
C645 C642 1.526 . S
C645 C646 1.396 1_556 S
C645 C650 1.390 . S
C646 C640 1.465 . S
C646 C645 1.396 1_554 S
C646 C647 1.399 . S
C647 H633 0.929 . S
C647 C646 1.399 . S
C647 C648 1.385 . S
C648 H634 0.931 . S
C648 C647 1.385 . S
C648 C649 1.389 . S
C649 C648 1.389 . S
C649 C650 1.387 1_554 S
C650 H635 0.930 . S
C650 C645 1.390 . S
C650 C649 1.387 1_556 S
H651 C663 0.930 . S
H652 C665 0.930 . S
H653 C666 0.930 . S
H654 C670 0.959 . S
H655 C670 0.959 . S
H656 C670 0.961 . S
H657 C671 0.960 . S
H658 C671 0.961 . S
H659 C671 0.959 . S
H660 C674 0.929 . S
H661 C675 0.931 . S
H662 C677 0.930 . S
C663 H651 0.930 . S
C663 C664 1.399 . S
C663 C668 1.399 . S
C664 C663 1.399 . S
C664 C665 1.376 . S
C665 H652 0.930 . S
C665 C664 1.376 . S
C665 C666 1.388 . S
C666 H653 0.930 . S
C666 C665 1.388 . S
C666 C667 1.390 . S
C667 C666 1.390 . S
C667 C668 1.394 . S
C667 C673 1.465 . S
C668 C663 1.399 . S
C668 C667 1.394 . S
C668 C669 1.516 . S
C669 C668 1.516 . S
C669 C670 1.502 . S
C669 C671 1.561 . S
C669 C672 1.526 . S
C670 H654 0.959 . S
C670 H655 0.959 . S
C670 H656 0.961 . S
C670 C669 1.502 . S
C671 H657 0.960 . S
C671 H658 0.961 . S
C671 H659 0.959 . S
C671 C669 1.561 . S
C672 C669 1.526 . S
C672 C673 1.396 . S
C672 C677 1.390 . S
C673 C667 1.465 . S
C673 C672 1.396 . S
C673 C674 1.399 . S
C674 H660 0.929 . S
C674 C673 1.399 . S
C674 C675 1.385 . S
C675 H661 0.931 . S
C675 C674 1.385 . S
C675 C676 1.389 . S
C676 C675 1.389 . S
C676 C677 1.387 . S
C677 H662 0.930 . S
C677 C672 1.390 . S
C677 C676 1.387 . S
H678 C690 0.930 . S
H679 C692 0.930 . S
H680 C693 0.930 . S
H681 C697 0.959 . S
H682 C697 0.959 . S
H683 C697 0.961 . S
H684 C698 0.960 . S
H685 C698 0.961 . S
H686 C698 0.959 . S
H687 C701 0.929 . S
H688 C702 0.931 . S
H689 C704 0.930 . S
C690 H678 0.930 . S
C690 C691 1.399 1_554 S
C690 C695 1.399 . S
C691 C690 1.399 1_556 S
C691 C692 1.376 . S
C692 H679 0.930 . S
C692 C691 1.376 . S
C692 C693 1.388 . S
C693 H680 0.930 . S
C693 C692 1.388 . S
C693 C694 1.390 . S
C694 C693 1.390 . S
C694 C695 1.394 1_556 S
C694 C700 1.465 . S
C695 C690 1.399 . S
C695 C694 1.394 1_554 S
C695 C696 1.516 . S
C696 C695 1.516 . S
C696 C697 1.502 . S
C696 C698 1.561 . S
C696 C699 1.526 . S
C697 H681 0.959 . S
C697 H682 0.959 . S
C697 H683 0.961 . S
C697 C696 1.502 . S
C698 H684 0.960 . S
C698 H685 0.961 . S
C698 H686 0.959 . S
C698 C696 1.561 . S
C699 C696 1.526 . S
C699 C700 1.396 1_554 S
C699 C704 1.390 . S
C700 C694 1.465 . S
C700 C699 1.396 1_556 S
C700 C701 1.399 . S
C701 H687 0.929 . S
C701 C700 1.399 . S
C701 C702 1.385 . S
C702 H688 0.931 . S
C702 C701 1.385 . S
C702 C703 1.389 . S
C703 C702 1.389 . S
C703 C704 1.387 1_556 S
C704 H689 0.930 . S
C704 C699 1.390 . S
C704 C703 1.387 1_554 S
H705 C717 0.930 . S
H706 C719 0.930 . S
H707 C720 0.930 . S
H708 C724 0.959 . S
H709 C724 0.959 . S
H710 C724 0.961 . S
H711 C725 0.960 . S
H712 C725 0.961 . S
H713 C725 0.959 . S
H714 C728 0.929 . S
H715 C729 0.931 . S
H716 C731 0.930 . S
C717 H705 0.930 . S
C717 C718 1.399 . S
C717 C722 1.399 . S
C718 C717 1.399 . S
C718 C719 1.376 . S
C719 H706 0.930 . S
C719 C718 1.376 . S
C719 C720 1.388 . S
C720 H707 0.930 . S
C720 C719 1.388 . S
C720 C721 1.390 . S
C721 C720 1.390 . S
C721 C722 1.394 . S
C721 C727 1.465 . S
C722 C717 1.399 . S
C722 C721 1.394 . S
C722 C723 1.516 . S
C723 C722 1.516 . S
C723 C724 1.502 . S
C723 C725 1.561 . S
C723 C726 1.526 . S
C724 H708 0.959 . S
C724 H709 0.959 . S
C724 H710 0.961 . S
C724 C723 1.502 . S
C725 H711 0.960 . S
C725 H712 0.961 . S
C725 H713 0.959 . S
C725 C723 1.561 . S
C726 C723 1.526 . S
C726 C727 1.396 . S
C726 C731 1.390 . S
C727 C721 1.465 . S
C727 C726 1.396 . S
C727 C728 1.399 . S
C728 H714 0.929 . S
C728 C727 1.399 . S
C728 C729 1.385 . S
C729 H715 0.931 . S
C729 C728 1.385 . S
C729 C730 1.389 . S
C730 C729 1.389 . S
C730 C731 1.387 . S
C731 H716 0.930 . S
C731 C726 1.390 . S
C731 C730 1.387 . S
H732 C744 0.930 . S
H733 C746 0.930 . S
H734 C747 0.930 . S
H735 C751 0.959 . S
H736 C751 0.959 . S
H737 C751 0.961 . S
H738 C752 0.960 . S
H739 C752 0.961 . S
H740 C752 0.959 . S
H741 C755 0.929 . S
H742 C756 0.931 . S
H743 C758 0.930 . S
C744 H732 0.930 . S
C744 C745 1.399 . S
C744 C749 1.399 . S
C745 C744 1.399 . S
C745 C746 1.376 . S
C746 H733 0.930 . S
C746 C745 1.376 . S
C746 C747 1.388 . S
C747 H734 0.930 . S
C747 C746 1.388 . S
C747 C748 1.390 . S
C748 C747 1.390 . S
C748 C749 1.394 . S
C748 C754 1.465 . S
C749 C744 1.399 . S
C749 C748 1.394 . S
C749 C750 1.516 . S
C750 C749 1.516 . S
C750 C751 1.502 . S
C750 C752 1.561 . S
C750 C753 1.526 . S
C751 H735 0.959 . S
C751 H736 0.959 . S
C751 H737 0.961 . S
C751 C750 1.502 . S
C752 H738 0.960 . S
C752 H739 0.961 . S
C752 H740 0.959 . S
C752 C750 1.561 . S
C753 C750 1.526 . S
C753 C754 1.396 . S
C753 C758 1.390 . S
C754 C748 1.465 . S
C754 C753 1.396 . S
C754 C755 1.399 . S
C755 H741 0.929 . S
C755 C754 1.399 . S
C755 C756 1.385 . S
C756 H742 0.931 . S
C756 C755 1.385 . S
C756 C757 1.389 . S
C757 C756 1.389 . S
C757 C758 1.387 . S
C758 H743 0.930 . S
C758 C753 1.390 . S
C758 C757 1.387 . S
H759 C771 0.930 . S
H760 C773 0.930 . S
H761 C774 0.930 . S
H762 C778 0.959 . S
H763 C778 0.959 . S
H764 C778 0.961 . S
H765 C779 0.960 . S
H766 C779 0.961 . S
H767 C779 0.959 . S
H768 C782 0.929 . S
H769 C783 0.931 . S
H770 C785 0.930 . S
C771 H759 0.930 . S
C771 C772 1.399 1_556 S
C771 C776 1.399 . S
C772 C771 1.399 1_554 S
C772 C773 1.376 . S
C773 H760 0.930 . S
C773 C772 1.376 . S
C773 C774 1.388 . S
C774 H761 0.930 . S
C774 C773 1.388 . S
C774 C775 1.390 . S
C775 C774 1.390 . S
C775 C776 1.394 1_554 S
C775 C781 1.465 . S
C776 C771 1.399 . S
C776 C775 1.394 1_556 S
C776 C777 1.516 . S
C777 C776 1.516 . S
C777 C778 1.502 . S
C777 C779 1.561 . S
C777 C780 1.526 . S
C778 H762 0.959 . S
C778 H763 0.959 . S
C778 H764 0.961 . S
C778 C777 1.502 . S
C779 H765 0.960 . S
C779 H766 0.961 . S
C779 H767 0.959 . S
C779 C777 1.561 . S
C780 C777 1.526 . S
C780 C781 1.396 1_556 S
C780 C785 1.390 . S
C781 C775 1.465 . S
C781 C780 1.396 1_554 S
C781 C782 1.399 . S
C782 H768 0.929 . S
C782 C781 1.399 . S
C782 C783 1.385 . S
C783 H769 0.931 . S
C783 C782 1.385 . S
C783 C784 1.389 . S
C784 C783 1.389 . S
C784 C785 1.387 1_554 S
C785 H770 0.930 . S
C785 C780 1.390 . S
C785 C784 1.387 1_556 S
H786 C798 0.930 . S
H787 C800 0.930 . S
H788 C801 0.930 . S
H789 C805 0.959 . S
H790 C805 0.959 . S
H791 C805 0.961 . S
H792 C806 0.960 . S
H793 C806 0.961 . S
H794 C806 0.959 . S
H795 C809 0.929 . S
H796 C810 0.931 . S
H797 C812 0.930 . S
C798 H786 0.930 . S
C798 C799 1.399 . S
C798 C803 1.399 . S
C799 C798 1.399 . S
C799 C800 1.376 . S
C800 H787 0.930 . S
C800 C799 1.376 . S
C800 C801 1.388 . S
C801 H788 0.930 . S
C801 C800 1.388 . S
C801 C802 1.390 . S
C802 C801 1.390 . S
C802 C803 1.394 . S
C802 C808 1.465 . S
C803 C798 1.399 . S
C803 C802 1.394 . S
C803 C804 1.516 . S
C804 C803 1.516 . S
C804 C805 1.502 . S
C804 C806 1.561 . S
C804 C807 1.526 . S
C805 H789 0.959 . S
C805 H790 0.959 . S
C805 H791 0.961 . S
C805 C804 1.502 . S
C806 H792 0.960 . S
C806 H793 0.961 . S
C806 H794 0.959 . S
C806 C804 1.561 . S
C807 C804 1.526 . S
C807 C808 1.396 . S
C807 C812 1.390 . S
C808 C802 1.465 . S
C808 C807 1.396 . S
C808 C809 1.399 . S
C809 H795 0.929 . S
C809 C808 1.399 . S
C809 C810 1.385 . S
C810 H796 0.931 . S
C810 C809 1.385 . S
C810 C811 1.389 . S
C811 C810 1.389 . S
C811 C812 1.387 . S
C812 H797 0.930 . S
C812 C807 1.390 . S
C812 C811 1.387 . S
H813 C825 0.930 . S
H814 C827 0.930 . S
H815 C828 0.930 . S
H816 C832 0.959 . S
H817 C832 0.959 . S
H818 C832 0.961 . S
H819 C833 0.960 . S
H820 C833 0.961 . S
H821 C833 0.959 . S
H822 C836 0.929 . S
H823 C837 0.931 . S
H824 C839 0.930 . S
C825 H813 0.930 . S
C825 C826 1.399 1_556 S
C825 C830 1.399 . S
C826 C825 1.399 1_554 S
C826 C827 1.376 . S
C827 H814 0.930 . S
C827 C826 1.376 . S
C827 C828 1.388 . S
C828 H815 0.930 . S
C828 C827 1.388 . S
C828 C829 1.390 . S
C829 C828 1.390 . S
C829 C830 1.394 1_554 S
C829 C835 1.465 . S
C830 C825 1.399 . S
C830 C829 1.394 1_556 S
C830 C831 1.516 . S
C831 C830 1.516 . S
C831 C832 1.502 . S
C831 C833 1.561 . S
C831 C834 1.526 . S
C832 H816 0.959 . S
C832 H817 0.959 . S
C832 H818 0.961 . S
C832 C831 1.502 . S
C833 H819 0.960 . S
C833 H820 0.961 . S
C833 H821 0.959 . S
C833 C831 1.561 . S
C834 C831 1.526 . S
C834 C835 1.396 1_556 S
C834 C839 1.390 . S
C835 C829 1.465 . S
C835 C834 1.396 1_554 S
C835 C836 1.399 . S
C836 H822 0.929 . S
C836 C835 1.399 . S
C836 C837 1.385 . S
C837 H823 0.931 . S
C837 C836 1.385 . S
C837 C838 1.389 . S
C838 C837 1.389 . S
C838 C839 1.387 1_554 S
C839 H824 0.930 . S
C839 C834 1.390 . S
C839 C838 1.387 1_556 S
C205 C5 1.451 . S
C217 N128 1.459 . S
C232 C31 1.460 . S
C244 N89 1.457 . S
C271 N106 1.470 . S
C259 C53 1.469 . S
C286 C71 1.447 . S
C298 N119 1.491 . S
C325 N158 1.488 . S
C313 C75 1.470 . S
C352 N171 1.471 . S
C340 C9 1.483 . S
C379 N180 1.489 . S
C367 C27 1.473 . S
C406 N141 1.477 . S
C394 C49 1.438 . S
C421 C51 1.487 . S
C433 N102 1.478 . S
C448 C72 1.466 . S
C460 N115 1.475 . S
C475 C6 1.486 . S
C487 N132 1.477 . S
C514 N93 1.471 . S
C502 C29 1.476 . S
C529 C28 1.441 . S
C541 N184 1.470 . S
C568 N145 1.492 . S
C556 C50 1.467 . S
C595 N154 1.475 . S
C583 C73 1.484 . S
C610 C7 1.453 . S
C622 N167 1.490 . S
C649 N90 1.494 1_554 S
C637 C4 1.482 . S
C676 N103 1.508 . S
C664 C30 1.510 . S
C691 C52 1.475 1_556 S
C703 N116 1.506 1_556 S
C718 C70 1.503 . S
C730 N129 1.510 . S
C757 N142 1.494 . S
C745 C74 1.475 . S
C772 C8 1.476 . S
C784 N155 1.505 1_554 S
C799 C26 1.507 . S
C811 N168 1.507 . S
C826 C48 1.475 . S
C838 N181 1.494 . S
