# Generated by pormake.
# Topology anh, (6,3)-cn, num edge types: 1
# Building blocks:
#     Node 0, Type 0, BuildingBlock: CUWYAW_clean_sbu_0, # of connection points: 6
#     Node 1, Type 0, BuildingBlock: CUWYAW_clean_sbu_0, # of connection points: 6
#     Node 2, Type 0, BuildingBlock: CUWYAW_clean_sbu_0, # of connection points: 6
#     Node 3, Type 1, BuildingBlock: BETDIP_clean_linker_0, # of connection points: 3
#     Node 4, Type 1, BuildingBlock: BETDIP_clean_linker_0, # of connection points: 3
#     Node 5, Type 1, BuildingBlock: BETDIP_clean_linker_0, # of connection points: 3
#     Node 6, Type 1, BuildingBlock: BETDIP_clean_linker_0, # of connection points: 3
#     Node 7, Type 1, BuildingBlock: BETDIP_clean_linker_0, # of connection points: 3
#     Node 8, Type 1, BuildingBlock: BETDIP_clean_linker_0, # of connection points: 3
#     Edge 9, Type (0, 1), BuildingBlock: XIVTED_clean_linker_0, # of connection points: 2
#     Edge 10, Type (0, 1), BuildingBlock: XIVTED_clean_linker_0, # of connection points: 2
#     Edge 11, Type (0, 1), BuildingBlock: XIVTED_clean_linker_0, # of connection points: 2
#     Edge 12, Type (0, 1), BuildingBlock: XIVTED_clean_linker_0, # of connection points: 2
#     Edge 13, Type (0, 1), BuildingBlock: XIVTED_clean_linker_0, # of connection points: 2
#     Edge 14, Type (0, 1), BuildingBlock: XIVTED_clean_linker_0, # of connection points: 2
#     Edge 15, Type (0, 1), BuildingBlock: XIVTED_clean_linker_0, # of connection points: 2
#     Edge 16, Type (0, 1), BuildingBlock: XIVTED_clean_linker_0, # of connection points: 2
#     Edge 17, Type (0, 1), BuildingBlock: XIVTED_clean_linker_0, # of connection points: 2
#     Edge 18, Type (0, 1), BuildingBlock: XIVTED_clean_linker_0, # of connection points: 2
#     Edge 19, Type (0, 1), BuildingBlock: XIVTED_clean_linker_0, # of connection points: 2
#     Edge 20, Type (0, 1), BuildingBlock: XIVTED_clean_linker_0, # of connection points: 2
#     Edge 21, Type (0, 1), BuildingBlock: XIVTED_clean_linker_0, # of connection points: 2
#     Edge 22, Type (0, 1), BuildingBlock: XIVTED_clean_linker_0, # of connection points: 2
#     Edge 23, Type (0, 1), BuildingBlock: XIVTED_clean_linker_0, # of connection points: 2
#     Edge 24, Type (0, 1), BuildingBlock: XIVTED_clean_linker_0, # of connection points: 2
#     Edge 25, Type (0, 1), BuildingBlock: XIVTED_clean_linker_0, # of connection points: 2
#     Edge 26, Type (0, 1), BuildingBlock: XIVTED_clean_linker_0, # of connection points: 2
# Relax obj value: 0.263
# Max RMSD: 0.188
# Mean RMSD: 0.132
data_MOF--net-anh--node1-CUWYAW_clean_sbu_0--node2-BETDIP_clean_linker_0--edge1-XIVTED_clean_linker_0
_symmetry_space_group_name_H-M    P1
_symmetry_Int_Tables_number       1
_symmetry_cell_setting            triclinic
loop_
_symmetry_equiv_pos_as_xyz
'x, y, z'
_cell_length_a     32.071552
_cell_length_b     32.184614
_cell_length_c     50.019692
_cell_angle_alpha  93.27264
_cell_angle_beta   89.458012
_cell_angle_gamma 120.02244
loop_
_atom_site_label
_atom_site_type_symbol
_atom_site_fract_x
_atom_site_fract_y
_atom_site_fract_z
_atom_type_partial_charge
C0 C 1.04568 0.46897 0.12872 0.0
Eu1 Eu 0.09217 0.54775 0.15775 0.0
C2 C 0.99365 0.44385 0.12456 0.0
C3 C 0.96584 0.4493 0.14466 0.0
C4 C 0.91688 0.43027 0.14061 0.0
C5 C 0.89422 0.40506 0.11628 0.0
C6 C 0.92274 0.40192 0.09553 0.0
C7 C 0.97236 0.42148 0.09963 0.0
C8 C 0.09508 0.56882 0.21229 0.0
C9 C 1.02761 0.60499 0.16181 0.0
C10 C 0.19106 0.74543 0.197 0.0
Eu11 Eu 0.14892 0.66245 0.17193 0.0
C12 C 0.23469 0.78855 0.18919 0.0
C13 C 0.23233 0.81566 0.16877 0.0
C14 C 0.27427 0.85047 0.15755 0.0
C15 C 0.3191 0.85885 0.16665 0.0
C16 C 0.32165 0.83303 0.18766 0.0
C17 C 0.27975 0.79831 0.19896 0.0
C18 C 0.14173 0.63933 0.11849 0.0
C19 C 0.21438 0.60674 0.16046 0.0
O20 O 1.06724 0.51101 0.11857 0.0
O21 O 1.06084 0.46998 0.15321 0.0
O22 O 1.07367 0.52534 0.20117 0.0
O23 O 0.11268 0.59711 0.19366 0.0
O24 O 1.02857 0.56429 0.15555 0.0
O25 O 1.06839 0.64517 0.1701 0.0
O26 O 0.19735 0.71008 0.20386 0.0
O27 O 0.15321 0.73098 0.18124 0.0
O28 O 0.16577 0.68395 0.12779 0.0
O29 O 0.1265 0.61377 0.13802 0.0
O30 O 0.21397 0.64742 0.16827 0.0
O31 O 0.17255 0.56552 0.15526 0.0
H32 H 0.98191 0.4681 0.16375 0.0
H33 H 0.89658 0.4329 0.15739 0.0
H34 H 0.90642 0.3829 0.07655 0.0
H35 H 0.99396 0.41899 0.08352 0.0
H36 H 0.19811 0.80897 0.16076 0.0
H37 H 0.27169 0.87047 0.14156 0.0
H38 H 0.35607 0.84004 0.19556 0.0
H39 H 0.2826 0.77803 0.2147 0.0
C40 C 0.49807 0.14478 0.47359 0.0
Eu41 Eu 0.5422 0.10619 0.4954 0.0
C42 C 0.51734 0.19373 0.46549 0.0
C43 C 0.49781 0.22112 0.47626 0.0
C44 C 0.52208 0.27051 0.47383 0.0
C45 C 0.56601 0.29294 0.4604 0.0
C46 C 0.58388 0.26497 0.4481 0.0
C47 C 0.55983 0.21566 0.45072 0.0
C48 C 0.55998 0.10786 0.54913 0.0
C49 C 0.66341 0.17786 0.4956 0.0
C50 C 0.63912 1.00944 0.50869 0.0
Eu51 Eu 0.60052 0.06051 0.4984 0.0
C52 C 0.62338 0.95849 0.50425 0.0
C53 C 0.64933 0.9452 0.48661 0.0
C54 C 0.63653 0.8973 0.48253 0.0
C55 C 0.59779 0.86176 0.49631 0.0
C56 C 0.5698 0.87481 0.51265 0.0
C57 C 0.58246 0.92297 0.51657 0.0
C58 C 0.58924 0.08161 0.44893 0.0
C59 C 0.47892 0.98749 0.49313 0.0
O60 O 0.51293 0.11906 0.45997 0.0
O61 O 0.49873 0.14071 0.49941 0.0
O62 O 0.53445 0.12414 0.53892 0.0
O63 O 0.57486 0.09049 0.53055 0.0
O64 O 0.62035 0.17247 0.48914 0.0
O65 O 0.66401 0.13958 0.50405 0.0
O66 O 0.61666 1.02148 0.52676 0.0
O67 O 0.64709 1.03232 0.48684 0.0
O68 O 0.63032 0.09023 0.45848 0.0
O69 O 0.55669 0.06235 0.46584 0.0
O70 O 0.52249 0.99085 0.49313 0.0
O71 O 0.47749 1.02818 0.49545 0.0
H72 H 0.46554 0.2048 0.48806 0.0
H73 H 0.50812 0.29142 0.48407 0.0
H74 H 0.61766 0.28151 0.43765 0.0
H75 H 0.57603 0.19534 0.44245 0.0
H76 H 0.68054 0.97212 0.47659 0.0
H77 H 0.65948 0.8888 0.47016 0.0
H78 H 0.53972 0.84813 0.52344 0.0
H79 H 0.56111 0.93238 0.52978 0.0
C80 C 0.73751 0.64493 0.82147 0.0
Eu81 Eu 0.64758 0.60905 0.83207 0.0
C82 C 0.76279 0.61836 0.81763 0.0
C83 C 0.74866 0.57773 0.83227 0.0
C84 C 0.76787 0.54828 0.82671 0.0
C85 C 0.80193 0.55922 0.80659 0.0
C86 C 0.81527 0.59924 0.79143 0.0
C87 C 0.79534 0.62857 0.79681 0.0
C88 C 0.61469 0.60174 0.88314 0.0
C89 C 0.60033 0.48775 0.8289 0.0
C90 C 0.46111 0.52058 0.83839 0.0
Eu91 Eu 0.55147 0.55402 0.83193 0.0
C92 C 0.43207 0.53476 0.82327 0.0
C93 C 0.43584 0.53673 0.79523 0.0
C94 C 0.41099 0.55364 0.78095 0.0
C95 C 0.3829 0.56968 0.79454 0.0
C96 C 0.38092 0.5697 0.82268 0.0
C97 C 0.40529 0.55221 0.83694 0.0
C98 C 0.58514 0.56683 0.78144 0.0
C99 C 0.59809 0.67491 0.8279 0.0
O100 O 0.70455 0.63393 0.80304 0.0
O101 O 0.72244 0.64629 0.84571 0.0
O102 O 0.64476 0.64166 0.87279 0.0
O103 O 0.60152 0.56682 0.8659 0.0
O104 O 0.6381 0.53066 0.82385 0.0
O105 O 0.56087 0.48804 0.83653 0.0
O106 O 0.49347 0.55456 0.85462 0.0
O107 O 0.47779 0.49681 0.82437 0.0
O108 O 0.55354 0.52541 0.78946 0.0
O109 O 0.59696 0.5987 0.79999 0.0
O110 O 0.55866 0.63177 0.83062 0.0
O111 O 0.63966 0.67561 0.82684 0.0
H112 H 0.72281 0.56866 0.84813 0.0
H113 H 0.75806 0.5185 0.83926 0.0
H114 H 0.8422 0.60859 0.77617 0.0
H115 H 0.80533 0.65911 0.78487 0.0
H116 H 0.45781 0.52506 0.78423 0.0
H117 H 0.41262 0.553 0.75929 0.0
H118 H 0.35858 0.58099 0.83358 0.0
H119 H 0.40318 0.5522 0.85858 0.0
H120 H 0.67043 0.10884 0.19982 0.0
H121 H 0.69427 0.17015 0.28006 0.0
H122 H 0.55467 0.11254 0.24213 0.0
H123 H 0.80654 0.21988 0.24149 0.0
C124 C 0.77167 0.20139 0.23127 0.0
C125 C 0.65715 0.11936 0.21737 0.0
C126 C 0.60961 0.11021 0.21771 0.0
C127 C 0.6877 0.14231 0.23959 0.0
C128 C 0.67038 0.15419 0.26268 0.0
C129 C 0.62216 0.14303 0.26394 0.0
C130 C 0.59216 0.122 0.24114 0.0
N131 N 0.73667 0.15508 0.23876 0.0
H132 H 0.76836 0.65912 0.52513 0.0
H133 H 0.77563 0.70922 0.60736 0.0
H134 H 0.67318 0.56225 0.58152 0.0
H135 H 0.83717 0.77934 0.52418 0.0
C136 C 0.80515 0.75604 0.53504 0.0
C137 C 0.75538 0.65259 0.54542 0.0
C138 C 0.71904 0.60705 0.55141 0.0
C139 C 0.77554 0.68959 0.56553 0.0
C140 C 0.75961 0.68037 0.59189 0.0
C141 C 0.72216 0.63442 0.59795 0.0
C142 C 0.70203 0.59791 0.57741 0.0
N143 N 0.81013 0.73673 0.5589 0.0
H144 H 1.01506 0.44825 0.85798 0.0
H145 H 0.12785 0.50329 0.91751 0.0
H146 H 0.9863 0.47716 0.93849 0.0
H147 H 0.08471 0.5317 0.84557 0.0
C148 C 0.10502 0.51297 0.84336 0.0
C149 C 1.02612 0.45709 0.87893 0.0
C150 C 0.99464 0.45893 0.8977 0.0
C151 C 1.0744 0.47508 0.88575 0.0
C152 C 0.09014 0.48898 0.91249 0.0
C153 C 1.05801 0.4884 0.9321 0.0
C154 C 1.01022 0.47335 0.92438 0.0
N155 N 0.10813 0.48778 0.86504 0.0
H156 H 0.11632 0.62169 0.49409 0.0
H157 H 1.04472 0.54586 0.41935 0.0
H158 H 0.17448 0.68373 0.41884 0.0
H159 H 0.9752 0.51519 0.44296 0.0
C160 C 0.98455 0.50367 0.4608 0.0
C161 C 0.11403 0.61985 0.47245 0.0
C162 C 0.15229 0.65897 0.45805 0.0
C163 C 1.07266 0.57839 0.45865 0.0
C164 C 1.07268 0.57728 0.43031 0.0
C165 C 0.10908 0.61453 0.41569 0.0
C166 C 0.1474 0.65468 0.4299 0.0
N167 N 1.03311 0.5376 0.47244 0.0
H168 H 0.60435 0.12508 0.82966 0.0
H169 H 0.59348 1.04606 0.75427 0.0
H170 H 0.59482 0.18007 0.75456 0.0
H171 H 0.56329 0.98038 0.77766 0.0
C172 C 0.58606 0.99102 0.79553 0.0
C173 C 0.60082 0.12127 0.80804 0.0
C174 C 0.59924 0.15919 0.79385 0.0
C175 C 0.5983 0.07856 0.794 0.0
C176 C 0.59462 0.07615 0.76569 0.0
C177 C 0.5926 0.11192 0.75149 0.0
C178 C 0.59521 0.1524 0.76575 0.0
N179 N 0.60106 1.03982 0.80753 0.0
H180 H 0.57733 0.60518 0.16288 0.0
H181 H 0.64681 0.59715 0.08948 0.0
H182 H 0.51545 0.6009 0.0854 0.0
H183 H 0.71719 0.63938 0.1146 0.0
C184 C 0.70774 0.61689 0.13153 0.0
C185 C 0.57868 0.604 0.14125 0.0
C186 C 0.53927 0.60296 0.12589 0.0
C187 C 0.61951 0.60273 0.12829 0.0
C188 C 0.61847 0.59964 0.10004 0.0
C189 C 0.58154 0.59923 0.08478 0.0
C190 C 0.5433 0.60132 0.09774 0.0
N191 N 0.65964 0.60217 0.14268 0.0
H192 H 0.23197 0.53582 0.13659 0.0
H193 H 0.52475 0.6663 0.16291 0.0
H194 H 0.31162 0.6772 0.17565 0.0
H195 H 0.4431 0.53892 0.11144 0.0
H196 H 0.44947 0.66874 0.17164 0.0
H197 H 0.30773 0.53482 0.13064 0.0
C198 C 0.26507 0.56688 0.14417 0.0
C199 C 0.26332 0.60659 0.1569 0.0
C200 C 0.44771 0.63985 0.15862 0.0
C201 C 0.35401 0.60536 0.15008 0.0
C202 C 0.49127 0.63803 0.15383 0.0
C203 C 0.49205 0.60174 0.13655 0.0
C204 C 0.40287 0.60503 0.14631 0.0
C205 C 0.44595 0.56754 0.12514 0.0
C206 C 0.30913 0.56623 0.14064 0.0
C207 C 0.30939 0.64534 0.16576 0.0
N208 N 0.40465 0.57002 0.13016 0.0
N209 N 0.3517 0.64358 0.16237 0.0
H210 H 0.67972 0.26574 0.4764 0.0
H211 H 0.97607 0.42523 0.49162 0.0
H212 H 0.76114 0.20466 0.50646 0.0
H213 H 0.88832 0.47066 0.45232 0.0
H214 H 0.9015 0.34821 0.50041 0.0
H215 H 0.75567 0.34138 0.47053 0.0
C216 C 0.71322 0.26771 0.48199 0.0
C217 C 0.71192 0.22685 0.49229 0.0
C218 C 0.89832 0.3752 0.49011 0.0
C219 C 0.80292 0.31719 0.4853 0.0
C220 C 0.94156 0.42013 0.48527 0.0
C221 C 0.9402 0.45688 0.47139 0.0
C222 C 0.8519 0.36552 0.48132 0.0
C223 C 0.89282 0.44511 0.46331 0.0
C224 C 0.75743 0.31172 0.47852 0.0
C225 C 0.75854 0.23398 0.49867 0.0
N226 N 0.85204 0.402 0.46835 0.0
N227 N 0.80095 0.27718 0.4952 0.0
H228 H 0.67377 0.77108 0.83025 0.0
H229 H 0.5159 0.89591 0.79274 0.0
H230 H 0.51993 0.69134 0.81853 0.0
H231 H 0.6631 0.9821 0.82026 0.0
H232 H 0.51868 0.82294 0.801 0.0
H233 H 0.67266 0.8465 0.82545 0.0
C234 C 0.63942 0.76882 0.82673 0.0
C235 C 0.5968 0.72283 0.82513 0.0
C236 C 0.55046 0.8575 0.80569 0.0
C237 C 0.59542 0.81259 0.81906 0.0
C238 C 0.54886 0.90008 0.80114 0.0
C239 C 0.58864 0.94721 0.80639 0.0
C240 C 0.59287 0.85971 0.81521 0.0
C241 C 0.63047 0.94788 0.81649 0.0
C242 C 0.63894 0.81275 0.82399 0.0
C243 C 0.55407 0.72461 0.8203 0.0
N244 N 0.63141 0.90565 0.82029 0.0
N245 N 0.55469 0.76765 0.81737 0.0
H246 H 1.01157 0.68351 0.1605 0.0
H247 H 0.71536 0.53808 0.15145 0.0
H248 H 0.92996 0.52903 0.15661 0.0
H249 H 0.80393 0.68588 0.13317 0.0
H250 H 0.78986 0.53394 0.15893 0.0
H251 H 0.93589 0.68504 0.15564 0.0
C252 C 0.97802 0.6496 0.15883 0.0
C253 C 0.97912 0.60603 0.15916 0.0
C254 C 0.79321 0.56763 0.15367 0.0
C255 C 0.88863 0.60764 0.15375 0.0
C256 C 0.75002 0.57024 0.14973 0.0
C257 C 0.75167 0.613 0.14222 0.0
C258 C 0.83989 0.60807 0.15042 0.0
C259 C 0.7993 0.6522 0.13942 0.0
C260 C 0.93406 0.65056 0.15595 0.0
C261 C 0.93263 0.56387 0.15657 0.0
N262 N 0.84015 0.64889 0.14358 0.0
N263 N 0.89039 0.5658 0.15422 0.0
H264 H 0.38303 0.96809 0.49188 0.0
H265 H 0.24592 0.67474 0.46536 0.0
H266 H 0.46019 0.89067 0.48571 0.0
H267 H 0.16945 0.75236 0.47375 0.0
H268 H 0.32259 0.75103 0.47384 0.0
H269 H 0.30656 0.89131 0.48605 0.0
C270 C 0.38454 0.93524 0.48942 0.0
C271 C 0.43021 0.9379 0.48964 0.0
C272 C 0.2892 0.75172 0.4744 0.0
C273 C 0.33888 0.84607 0.48258 0.0
C274 C 0.24458 0.70734 0.46989 0.0
C275 C 0.19906 0.70487 0.46992 0.0
C276 C 0.2904 0.79625 0.47868 0.0
C277 C 0.20218 0.7505 0.47449 0.0
C278 C 0.33996 0.89062 0.48602 0.0
C279 C 0.42725 0.89222 0.48599 0.0
N280 N 0.24592 0.79309 0.4786 0.0
N281 N 0.38345 0.8494 0.4827 0.0
H282 H 0.5278 0.3928 0.83797 0.0
H283 H 0.67391 0.25365 0.78987 0.0
H284 H 0.67365 0.46736 0.81103 0.0
H285 H 0.53123 0.1785 0.82097 0.0
H286 H 0.67469 0.33029 0.79835 0.0
H287 H 0.52811 0.31623 0.83232 0.0
C288 C 0.56032 0.39378 0.831 0.0
C289 C 0.60101 0.43886 0.82543 0.0
C290 C 0.64331 0.29741 0.80388 0.0
C291 C 0.60147 0.34739 0.81857 0.0
C292 C 0.64304 0.25288 0.79933 0.0
C293 C 0.6033 0.20773 0.80559 0.0
C294 C 0.60298 0.29897 0.81452 0.0
C295 C 0.56385 0.2112 0.81658 0.0
C296 C 0.56036 0.34915 0.82773 0.0
C297 C 0.64124 0.4351 0.81611 0.0
N298 N 0.56478 0.25491 0.82053 0.0
N299 N 0.64032 0.39134 0.81309 0.0
H300 H 0.58497 0.81347 0.54128 0.0
H301 H 0.77601 0.75864 0.48437 0.0
H302 H 0.60661 0.80459 0.45633 0.0
H303 H 0.72687 0.73718 0.56569 0.0
H304 H 0.70116 0.75582 0.4711 0.0
H305 H 0.61738 0.76131 0.54797 0.0
C306 C 0.59443 0.79874 0.52379 0.0
C307 C 0.59492 0.81489 0.4983 0.0
C308 C 0.70616 0.75018 0.49169 0.0
C309 C 0.6347 0.75721 0.50603 0.0
C310 C 0.74906 0.75233 0.49927 0.0
C311 C 0.75774 0.74832 0.52612 0.0
C312 C 0.67242 0.74499 0.5113 0.0
C313 C 0.72164 0.73979 0.54468 0.0
C314 C 0.61373 0.7693 0.52767 0.0
C315 C 0.60756 0.79437 0.47647 0.0
N316 N 0.68095 0.73907 0.53698 0.0
N317 N 0.62887 0.76804 0.48092 0.0
H318 H 0.77113 0.46299 0.80477 0.0
H319 H 0.97743 0.53217 0.90702 0.0
H320 H 0.8982 0.60376 0.8117 0.0
H321 H 0.92281 0.3952 0.86268 0.0
H322 H 0.93108 0.55213 0.8775 0.0
H323 H 0.81534 0.43049 0.82732 0.0
C324 C 0.809 0.48643 0.80982 0.0
C325 C 0.83114 0.53609 0.80685 0.0
C326 C 0.92873 0.51738 0.87454 0.0
C327 C 0.88016 0.50003 0.83319 0.0
C328 C 0.95405 0.50542 0.89178 0.0
C329 C 0.95369 0.4619 0.88723 0.0
C330 C 0.9026 0.48538 0.85291 0.0
C331 C 0.92366 0.42902 0.86675 0.0
C332 C 0.83379 0.46808 0.82294 0.0
C333 C 0.87996 0.5653 0.81375 0.0
N334 N 0.89936 0.44162 0.85 0.0
N335 N 0.90256 0.54707 0.82748 0.0
H336 H 0.3996 0.85637 0.15104 0.0
H337 H 0.54261 0.12713 0.19498 0.0
H338 H 0.33935 0.94982 0.15936 0.0
H339 H 0.60139 1.0322 0.18856 0.0
H340 H 0.47619 0.071 0.16495 0.0
H341 H 0.47933 0.92659 0.14681 0.0
C342 C 0.40317 0.8917 0.15124 0.0
C343 C 0.36357 0.89786 0.15637 0.0
C344 C 0.50437 0.0631 0.1695 0.0
C345 C 0.45399 0.97786 0.15216 0.0
C346 C 0.54201 0.09495 0.18677 0.0
C347 C 0.5765 0.0834 0.19488 0.0
C348 C 0.50089 1.01912 0.16089 0.0
C349 C 0.57512 1.04215 0.18311 0.0
C350 C 0.44852 0.93173 0.14873 0.0
C351 C 0.36937 0.94386 0.15582 0.0
N352 N 0.53716 1.01085 0.1672 0.0
N353 N 0.41413 0.98241 0.15455 0.0
H354 H 0.66211 0.34538 0.47207 0.0
H355 H 0.6438 0.57621 0.51615 0.0
H356 H 0.53799 0.35949 0.45541 0.0
H357 H 0.75674 0.55031 0.54081 0.0
H358 H 0.61347 0.5059 0.48413 0.0
H359 H 0.70711 0.43023 0.48625 0.0
C360 C 0.64476 0.3667 0.47061 0.0
C361 C 0.59611 0.34549 0.46288 0.0
C362 C 0.64527 0.51602 0.4963 0.0
C363 C 0.64677 0.44191 0.47998 0.0
C364 C 0.66223 0.55572 0.5145 0.0
C365 C 0.70208 0.5678 0.53098 0.0
C366 C 0.66847 0.48874 0.49499 0.0
C367 C 0.72554 0.54122 0.52836 0.0
C368 C 0.67033 0.41505 0.47898 0.0
C369 C 0.57523 0.37456 0.46175 0.0
N370 N 0.70805 0.50244 0.51082 0.0
N371 N 0.60048 0.4213 0.47074 0.0
H372 H 0.36568 0.64454 0.80081 0.0
H373 H 0.13082 0.45195 0.81899 0.0
H374 H 0.31942 0.50985 0.75581 0.0
H375 H 0.14739 0.59284 0.8151 0.0
H376 H 0.19373 0.47265 0.78613 0.0
H377 H 0.28579 0.63411 0.79452 0.0
C378 C 0.33933 0.61403 0.78839 0.0
C379 C 0.34801 0.57696 0.7798 0.0
C380 C 0.18271 0.4987 0.79171 0.0
C381 C 0.25682 0.56395 0.77332 0.0
C382 C 0.14736 0.48702 0.81076 0.0
C383 C 0.13572 0.52153 0.82021 0.0
C384 C 0.20775 0.54582 0.78313 0.0
C385 C 0.15671 0.56591 0.80857 0.0
C386 C 0.29365 0.60797 0.78475 0.0
C387 C 0.31337 0.53854 0.76341 0.0
N388 N 0.1932 0.5776 0.79122 0.0
N389 N 0.26831 0.53189 0.7616 0.0
H390 H 0.82443 0.4228 0.13775 0.0
H391 H 0.73912 0.16444 0.18068 0.0
H392 H 0.84173 0.31279 0.09456 0.0
H393 H 0.7829 0.29117 0.23286 0.0
H394 H 0.73036 0.20593 0.14364 0.0
H395 H 0.76071 0.36101 0.16348 0.0
C396 C 0.81307 0.38541 0.13259 0.0
C397 C 0.84125 0.37312 0.11587 0.0
C398 C 0.74019 0.2241 0.1634 0.0
C399 C 0.76807 0.30296 0.14426 0.0
C400 C 0.74508 0.20045 0.18452 0.0
C401 C 0.76149 0.22456 0.20971 0.0
C402 C 0.75351 0.27269 0.16735 0.0
C403 C 0.77075 0.2718 0.21351 0.0
C404 C 0.77681 0.35025 0.14739 0.0
C405 C 0.82303 0.3243 0.10854 0.0
N406 N 0.76741 0.29475 0.19237 0.0
N407 N 0.78869 0.29084 0.12364 0.0
H408 H 1.05451 0.57544 0.09706 0.0
H409 H 0.14337 0.56944 0.9481 0.0
H410 H 0.2029 0.6638 0.076 0.0
H411 H 1.01053 0.45742 0.97884 0.0
H412 H 0.16536 0.60899 -0.00685 0.0
H413 H 1.03592 0.53818 0.05163 0.0
C414 C 0.08324 0.58665 0.08277 0.0
C415 C 0.13047 0.62143 0.0903 0.0
C416 C 0.1316 0.57558 0.98998 0.0
C417 C 0.10957 0.57983 0.03817 0.0
C418 C 0.11921 0.55264 0.96435 0.0
C419 C 1.07499 0.50989 0.95965 0.0
C420 C 0.09929 0.55589 0.01092 0.0
C421 C 1.04469 0.49055 0.98142 0.0
C422 C 1.07265 0.56556 0.05685 0.0
C423 C 0.1661 0.63655 0.07088 0.0
N424 N 1.05724 0.51385 0.00599 0.0
N425 N 0.15501 0.61533 0.0456 0.0
H426 H 0.50877 1.04477 0.41634 0.0
H427 H 0.66155 0.21762 0.30206 0.0
H428 H 0.65713 0.15804 0.42398 0.0
H429 H 0.53869 0.076 0.28595 0.0
H430 H 0.64306 0.21133 0.34966 0.0
H431 H 0.50455 0.07033 0.37142 0.0
C432 C 0.54012 0.07539 0.40867 0.0
C433 C 0.58367 0.0988 0.4234 0.0
C434 C 0.61941 0.18218 0.33559 0.0
C435 C 0.57887 0.12859 0.37288 0.0
C436 C 0.62988 0.18579 0.30847 0.0
C437 C 0.60245 0.14671 0.29024 0.0
C438 C 0.58131 0.1392 0.34442 0.0
C439 C 0.56112 0.10676 0.29942 0.0
C440 C 0.53767 0.08999 0.38321 0.0
C441 C 0.62323 0.13846 0.41289 0.0
N442 N 0.55238 0.10351 0.32606 0.0
N443 N 0.61998 0.15194 0.38819 0.0
H444 H 0.63684 0.65393 0.76036 0.0
H445 H 0.69594 0.55349 0.6251 0.0
H446 H 0.57703 0.50212 0.74093 0.0
H447 H 0.70446 0.69185 0.63315 0.0
H448 H 0.66082 0.53592 0.66947 0.0
H449 H 0.67061 0.67051 0.71565 0.0
C450 C 0.6307 0.62407 0.74659 0.0
C451 C 0.60398 0.57657 0.75419 0.0
C452 C 0.67035 0.57006 0.66147 0.0
C453 C 0.64292 0.59531 0.70324 0.0
C454 C 0.69033 0.58015 0.63616 0.0
C455 C 0.70319 0.62429 0.62539 0.0
C456 C 0.66364 0.60453 0.67625 0.0
C457 C 0.69586 0.65775 0.64083 0.0
C458 C 0.64989 0.63356 0.72111 0.0
C459 C 0.59719 0.53921 0.7357 0.0
N460 N 0.67663 0.64721 0.66552 0.0
N461 N 0.61684 0.54939 0.71104 0.0
H462 H 0.52449 0.14151 0.5888 0.0
H463 H 0.63546 0.07903 0.71363 0.0
H464 H 0.60985 0.07289 0.57731 0.0
H465 H 0.5378 0.13451 0.71992 0.0
H466 H 0.62839 0.07607 0.6645 0.0
H467 H 0.532 0.14023 0.63702 0.0
C468 C 0.54498 0.12614 0.5964 0.0
C469 C 0.56648 0.10724 0.57873 0.0
C470 C 0.60855 0.08886 0.67668 0.0
C471 C 0.57537 0.10559 0.63483 0.0
C472 C 0.61231 0.09032 0.70482 0.0
C473 C 0.58758 0.10754 0.7213 0.0
C474 C 0.57986 0.10476 0.66473 0.0
C475 C 0.55851 0.12197 0.70839 0.0
C476 C 0.5492 0.12534 0.62413 0.0
C477 C 0.59261 0.08787 0.59009 0.0
N478 N 0.55569 0.1204 0.68116 0.0
N479 N 0.59637 0.08757 0.61738 0.0
H480 H 0.62448 0.6731 0.91879 0.0
H481 H 0.59396 0.53524 0.05145 0.0
H482 H 0.58376 0.52335 0.91457 0.0
H483 H 0.57243 0.65689 0.04952 0.0
H484 H 0.59806 0.53272 0.00225 0.0
H485 H 0.61338 0.67054 0.96725 0.0
C486 C 0.61301 0.63953 0.92806 0.0
C487 C 0.605 0.59838 0.91247 0.0
C488 C 0.59221 0.5598 0.01259 0.0
C489 C 0.59293 0.5954 0.96844 0.0
C490 C 0.59014 0.56145 0.04069 0.0
C491 C 0.58292 0.59641 0.05473 0.0
C492 C 0.58808 0.59401 -0.00169 0.0
C493 C 0.57781 0.62919 0.03962 0.0
C494 C 0.60657 0.6381 0.95579 0.0
C495 C 0.59014 0.5559 0.92573 0.0
N496 N 0.58099 0.6275 0.01239 0.0
N497 N 0.58511 0.55564 0.95295 0.0
H498 H 1.02832 0.51621 0.24841 0.0
H499 H 0.18523 0.65078 0.38009 0.0
H500 H 0.16447 0.64705 0.2438 0.0
H501 H 1.02966 0.57056 0.38057 0.0
H502 H 0.18165 0.64516 0.33115 0.0
H503 H 1.0312 0.53009 0.29718 0.0
C504 C 1.05878 0.54814 0.25765 0.0
C505 C 0.09605 0.5806 0.24181 0.0
C506 C 0.14835 0.62902 0.34203 0.0
C507 C 0.10023 0.59617 0.29821 0.0
C508 C 0.15018 0.63239 0.3702 0.0
C509 C 0.10762 0.61128 0.38522 0.0
C510 C 0.10374 0.60334 0.3283 0.0
C511 C 1.06369 0.58674 0.37046 0.0
C512 C 1.06035 0.55605 0.28557 0.0
C513 C 0.13466 0.6213 0.25509 0.0
N514 N 1.063 0.58314 0.34309 0.0
N515 N 0.13609 0.62758 0.28249 0.0
loop_
_geom_bond_atom_site_label_1
_geom_bond_atom_site_label_2
_geom_bond_distance
_geom_bond_site_symmetry_2
_ccdc_geom_bond_type
C0 Eu1 2.835 1_655 S
C0 C2 1.500 . S
C0 O20 1.257 . S
C0 O21 1.260 . S
Eu1 C0 2.835 1_455 S
Eu1 O20 2.473 1_455 S
Eu1 O21 2.480 1_455 S
Eu1 O22 2.430 . S
Eu1 O23 2.670 . S
Eu1 O24 2.394 1_455 S
Eu1 O29 2.355 . S
Eu1 O31 2.374 . S
C2 C0 1.500 . S
C2 C3 1.377 . S
C2 C7 1.377 . S
C3 C2 1.377 . S
C3 C4 1.395 . S
C3 H32 0.931 . S
C4 C3 1.395 . S
C4 C5 1.383 . S
C4 H33 0.931 . S
C5 C4 1.383 . S
C5 C6 1.394 . S
C6 C5 1.394 . S
C6 C7 1.378 . S
C6 H34 0.931 . S
C7 C2 1.377 . S
C7 C6 1.378 . S
C7 H35 0.931 . S
C8 O22 1.259 . S
C8 O23 1.270 . S
C9 O24 1.251 . S
C9 O25 1.251 . S
C10 Eu11 2.835 . S
C10 C12 1.500 . S
C10 O26 1.257 . S
C10 O27 1.260 . S
Eu11 C10 2.835 . S
Eu11 O23 2.355 . S
Eu11 O25 2.374 1_455 S
Eu11 O26 2.473 . S
Eu11 O27 2.480 . S
Eu11 O28 2.430 . S
Eu11 O29 2.670 . S
Eu11 O30 2.394 . S
C12 C10 1.500 . S
C12 C13 1.377 . S
C12 C17 1.377 . S
C13 C12 1.377 . S
C13 C14 1.395 . S
C13 H36 0.931 . S
C14 C13 1.395 . S
C14 C15 1.383 . S
C14 H37 0.931 . S
C15 C14 1.383 . S
C15 C16 1.394 . S
C16 C15 1.394 . S
C16 C17 1.378 . S
C16 H38 0.931 . S
C17 C12 1.377 . S
C17 C16 1.378 . S
C17 H39 0.931 . S
C18 O28 1.259 . S
C18 O29 1.270 . S
C19 O30 1.251 . S
C19 O31 1.251 . S
O20 C0 1.257 . S
O20 Eu1 2.473 1_655 S
O21 C0 1.260 . S
O21 Eu1 2.480 1_655 S
O22 Eu1 2.430 . S
O22 C8 1.259 . S
O23 Eu1 2.670 . S
O23 C8 1.270 . S
O23 Eu11 2.355 . S
O24 Eu1 2.394 1_655 S
O24 C9 1.251 . S
O25 C9 1.251 . S
O25 Eu11 2.374 1_655 S
O26 C10 1.257 . S
O26 Eu11 2.473 . S
O27 C10 1.260 . S
O27 Eu11 2.480 . S
O28 Eu11 2.430 . S
O28 C18 1.259 . S
O29 Eu1 2.355 . S
O29 Eu11 2.670 . S
O29 C18 1.270 . S
O30 Eu11 2.394 . S
O30 C19 1.251 . S
O31 Eu1 2.374 . S
O31 C19 1.251 . S
H32 C3 0.931 . S
H33 C4 0.931 . S
H34 C6 0.931 . S
H35 C7 0.931 . S
H36 C13 0.931 . S
H37 C14 0.931 . S
H38 C16 0.931 . S
H39 C17 0.931 . S
C40 Eu41 2.835 . S
C40 C42 1.500 . S
C40 O60 1.257 . S
C40 O61 1.260 . S
Eu41 C40 2.835 . S
Eu41 O60 2.473 . S
Eu41 O61 2.480 . S
Eu41 O62 2.430 . S
Eu41 O63 2.670 . S
Eu41 O64 2.394 . S
Eu41 O69 2.355 . S
Eu41 O71 2.379 . S
C42 C40 1.500 . S
C42 C43 1.377 . S
C42 C47 1.377 . S
C43 C42 1.377 . S
C43 C44 1.395 . S
C43 H72 0.931 . S
C44 C43 1.395 . S
C44 C45 1.383 . S
C44 H73 0.931 . S
C45 C44 1.383 . S
C45 C46 1.394 . S
C46 C45 1.394 . S
C46 C47 1.378 . S
C46 H74 0.931 . S
C47 C42 1.377 . S
C47 C46 1.378 . S
C47 H75 0.931 . S
C48 O62 1.259 . S
C48 O63 1.270 . S
C49 O64 1.251 . S
C49 O65 1.251 . S
C50 Eu51 2.835 1_565 S
C50 C52 1.500 . S
C50 O66 1.257 . S
C50 O67 1.260 . S
Eu51 C50 2.835 1_545 S
Eu51 O63 2.355 . S
Eu51 O65 2.374 . S
Eu51 O66 2.473 1_545 S
Eu51 O67 2.480 1_545 S
Eu51 O68 2.430 . S
Eu51 O69 2.670 . S
Eu51 O70 2.394 1_545 S
C52 C50 1.500 . S
C52 C53 1.377 . S
C52 C57 1.377 . S
C53 C52 1.377 . S
C53 C54 1.395 . S
C53 H76 0.931 . S
C54 C53 1.395 . S
C54 C55 1.383 . S
C54 H77 0.931 . S
C55 C54 1.383 . S
C55 C56 1.394 . S
C56 C55 1.394 . S
C56 C57 1.378 . S
C56 H78 0.931 . S
C57 C52 1.377 . S
C57 C56 1.378 . S
C57 H79 0.931 . S
C58 O68 1.259 . S
C58 O69 1.270 . S
C59 O70 1.251 . S
C59 O71 1.245 1_565 S
O60 C40 1.257 . S
O60 Eu41 2.473 . S
O61 C40 1.260 . S
O61 Eu41 2.480 . S
O62 Eu41 2.430 . S
O62 C48 1.259 . S
O63 Eu41 2.670 . S
O63 C48 1.270 . S
O63 Eu51 2.355 . S
O64 Eu41 2.394 . S
O64 C49 1.251 . S
O65 C49 1.251 . S
O65 Eu51 2.374 . S
O66 C50 1.257 . S
O66 Eu51 2.473 1_565 S
O67 C50 1.260 . S
O67 Eu51 2.480 1_565 S
O68 Eu51 2.430 . S
O68 C58 1.259 . S
O69 Eu41 2.355 . S
O69 Eu51 2.670 . S
O69 C58 1.270 . S
O70 Eu51 2.394 1_565 S
O70 C59 1.251 . S
O71 Eu41 2.379 . S
O71 C59 1.245 1_545 S
H72 C43 0.931 . S
H73 C44 0.931 . S
H74 C46 0.931 . S
H75 C47 0.931 . S
H76 C53 0.931 . S
H77 C54 0.931 . S
H78 C56 0.931 . S
H79 C57 0.931 . S
C80 Eu81 2.835 . S
C80 C82 1.500 . S
C80 O100 1.257 . S
C80 O101 1.260 . S
Eu81 C80 2.835 . S
Eu81 O100 2.473 . S
Eu81 O101 2.480 . S
Eu81 O102 2.430 . S
Eu81 O103 2.670 . S
Eu81 O104 2.394 . S
Eu81 O109 2.355 . S
Eu81 O111 2.374 . S
C82 C80 1.500 . S
C82 C83 1.377 . S
C82 C87 1.377 . S
C83 C82 1.377 . S
C83 C84 1.395 . S
C83 H112 0.931 . S
C84 C83 1.395 . S
C84 C85 1.383 . S
C84 H113 0.931 . S
C85 C84 1.383 . S
C85 C86 1.394 . S
C86 C85 1.394 . S
C86 C87 1.378 . S
C86 H114 0.931 . S
C87 C82 1.377 . S
C87 C86 1.378 . S
C87 H115 0.931 . S
C88 O102 1.259 . S
C88 O103 1.270 . S
C89 O104 1.251 . S
C89 O105 1.251 . S
C90 Eu91 2.835 . S
C90 C92 1.500 . S
C90 O106 1.257 . S
C90 O107 1.260 . S
Eu91 C90 2.835 . S
Eu91 O103 2.355 . S
Eu91 O105 2.374 . S
Eu91 O106 2.473 . S
Eu91 O107 2.480 . S
Eu91 O108 2.430 . S
Eu91 O109 2.670 . S
Eu91 O110 2.394 . S
C92 C90 1.500 . S
C92 C93 1.377 . S
C92 C97 1.377 . S
C93 C92 1.377 . S
C93 C94 1.395 . S
C93 H116 0.931 . S
C94 C93 1.395 . S
C94 C95 1.383 . S
C94 H117 0.931 . S
C95 C94 1.383 . S
C95 C96 1.394 . S
C96 C95 1.394 . S
C96 C97 1.378 . S
C96 H118 0.931 . S
C97 C92 1.377 . S
C97 C96 1.378 . S
C97 H119 0.931 . S
C98 O108 1.259 . S
C98 O109 1.270 . S
C99 O110 1.251 . S
C99 O111 1.251 . S
O100 C80 1.257 . S
O100 Eu81 2.473 . S
O101 C80 1.260 . S
O101 Eu81 2.480 . S
O102 Eu81 2.430 . S
O102 C88 1.259 . S
O103 Eu81 2.670 . S
O103 C88 1.270 . S
O103 Eu91 2.355 . S
O104 Eu81 2.394 . S
O104 C89 1.251 . S
O105 C89 1.251 . S
O105 Eu91 2.374 . S
O106 C90 1.257 . S
O106 Eu91 2.473 . S
O107 C90 1.260 . S
O107 Eu91 2.480 . S
O108 Eu91 2.430 . S
O108 C98 1.259 . S
O109 Eu81 2.355 . S
O109 Eu91 2.670 . S
O109 C98 1.270 . S
O110 Eu91 2.394 . S
O110 C99 1.251 . S
O111 Eu81 2.374 . S
O111 C99 1.251 . S
H112 C83 0.931 . S
H113 C84 0.931 . S
H114 C86 0.931 . S
H115 C87 0.931 . S
H116 C93 0.931 . S
H117 C94 0.931 . S
H118 C96 0.931 . S
H119 C97 0.931 . S
H120 C125 0.930 . S
H121 C128 0.930 . S
H122 C130 0.930 . S
H123 C124 1.016 . S
C124 H123 1.016 . S
C124 N131 1.286 . S
C125 H120 0.930 . S
C125 C126 1.397 . S
C125 C127 1.361 . S
C126 C125 1.397 . S
C126 C130 1.390 . S
C127 C125 1.361 . S
C127 C128 1.393 . S
C127 N131 1.413 . S
C128 H121 0.930 . S
C128 C127 1.393 . S
C128 C129 1.399 . S
C129 C128 1.399 . S
C129 C130 1.381 . S
C130 H122 0.930 . S
C130 C126 1.390 . S
C130 C129 1.381 . S
N131 C124 1.286 . S
N131 C127 1.413 . S
H132 C137 0.930 . S
H133 C140 0.930 . S
H134 C142 0.930 . S
H135 C136 1.016 . S
C136 H135 1.016 . S
C136 N143 1.286 . S
C137 H132 0.930 . S
C137 C138 1.397 . S
C137 C139 1.361 . S
C138 C137 1.397 . S
C138 C142 1.390 . S
C139 C137 1.361 . S
C139 C140 1.393 . S
C139 N143 1.413 . S
C140 H133 0.930 . S
C140 C139 1.393 . S
C140 C141 1.399 . S
C141 C140 1.399 . S
C141 C142 1.381 . S
C142 H134 0.930 . S
C142 C138 1.390 . S
C142 C141 1.381 . S
N143 C136 1.286 . S
N143 C139 1.413 . S
H144 C149 0.930 . S
H145 C152 0.930 . S
H146 C154 0.930 . S
H147 C148 1.016 . S
C148 H147 1.016 . S
C148 N155 1.286 . S
C149 H144 0.930 . S
C149 C150 1.397 . S
C149 C151 1.361 1_655 S
C150 C149 1.397 . S
C150 C154 1.390 . S
C151 C149 1.361 1_455 S
C151 C152 1.393 . S
C151 N155 1.413 . S
C152 H145 0.930 . S
C152 C151 1.393 . S
C152 C153 1.399 1_455 S
C153 C152 1.399 1_655 S
C153 C154 1.381 . S
C154 H146 0.930 . S
C154 C150 1.390 . S
C154 C153 1.381 . S
N155 C148 1.286 . S
N155 C151 1.413 . S
H156 C161 0.930 . S
H157 C164 0.930 1_655 S
H158 C166 0.930 . S
H159 C160 1.016 . S
C160 H159 1.016 . S
C160 N167 1.286 . S
C161 H156 0.930 . S
C161 C162 1.397 . S
C161 C163 1.361 . S
C162 C161 1.397 . S
C162 C166 1.390 . S
C163 C161 1.361 . S
C163 C164 1.393 . S
C163 N167 1.413 1_455 S
C164 H157 0.930 1_455 S
C164 C163 1.393 . S
C164 C165 1.399 . S
C165 C164 1.399 . S
C165 C166 1.381 . S
C166 H158 0.930 . S
C166 C162 1.390 . S
C166 C165 1.381 . S
N167 C160 1.286 . S
N167 C163 1.413 1_655 S
H168 C173 0.930 . S
H169 C176 0.930 . S
H170 C178 0.930 . S
H171 C172 1.016 . S
C172 H171 1.016 . S
C172 N179 1.286 . S
C173 H168 0.930 . S
C173 C174 1.397 . S
C173 C175 1.374 . S
C174 C173 1.397 . S
C174 C178 1.390 . S
C175 C173 1.374 . S
C175 C176 1.393 1_545 S
C175 N179 1.401 1_545 S
C176 H169 0.930 . S
C176 C175 1.393 1_565 S
C176 C177 1.399 1_565 S
C177 C176 1.399 1_545 S
C177 C178 1.381 . S
C178 H170 0.930 . S
C178 C174 1.390 . S
C178 C177 1.381 . S
N179 C172 1.286 . S
N179 C175 1.401 1_565 S
H180 C185 0.930 . S
H181 C188 0.930 . S
H182 C190 0.930 . S
H183 C184 1.016 . S
C184 H183 1.016 . S
C184 N191 1.286 . S
C185 H180 0.930 . S
C185 C186 1.397 . S
C185 C187 1.361 . S
C186 C185 1.397 . S
C186 C190 1.390 . S
C187 C185 1.361 . S
C187 C188 1.393 . S
C187 N191 1.413 . S
C188 H181 0.930 . S
C188 C187 1.393 . S
C188 C189 1.399 . S
C189 C188 1.399 . S
C189 C190 1.381 . S
C190 H182 0.930 . S
C190 C186 1.390 . S
C190 C189 1.381 . S
N191 C184 1.286 . S
N191 C187 1.413 . S
H192 C198 0.930 . S
H193 C202 0.930 . S
H194 C207 0.929 . S
H195 C205 0.929 . S
H196 C200 0.929 . S
H197 C206 0.929 . S
C198 H192 0.930 . S
C198 C199 1.367 . S
C198 C206 1.378 . S
C199 C198 1.367 . S
C199 C207 1.433 . S
C200 H196 0.929 . S
C200 C202 1.378 . S
C200 C204 1.350 . S
C201 C204 1.463 . S
C201 C206 1.350 . S
C201 N209 1.427 . S
C202 H193 0.930 . S
C202 C200 1.378 . S
C202 C203 1.367 . S
C203 C202 1.367 . S
C203 C205 1.433 . S
C204 C200 1.350 . S
C204 C201 1.463 . S
C204 N208 1.427 . S
C205 H195 0.929 . S
C205 C203 1.433 . S
C205 N208 1.384 . S
C206 H197 0.929 . S
C206 C198 1.378 . S
C206 C201 1.350 . S
C207 H194 0.929 . S
C207 C199 1.433 . S
C207 N209 1.384 . S
N208 C204 1.427 . S
N208 C205 1.384 . S
N209 C201 1.427 . S
N209 C207 1.384 . S
H210 C216 0.930 . S
H211 C220 0.930 . S
H212 C225 0.929 . S
H213 C223 0.929 . S
H214 C218 0.929 . S
H215 C224 0.929 . S
C216 H210 0.930 . S
C216 C217 1.367 . S
C216 C224 1.378 . S
C217 C216 1.367 . S
C217 C225 1.433 . S
C218 H214 0.929 . S
C218 C220 1.378 . S
C218 C222 1.350 . S
C219 C222 1.463 . S
C219 C224 1.350 . S
C219 N227 1.427 . S
C220 H211 0.930 . S
C220 C218 1.378 . S
C220 C221 1.367 . S
C221 C220 1.367 . S
C221 C223 1.433 . S
C222 C218 1.350 . S
C222 C219 1.463 . S
C222 N226 1.427 . S
C223 H213 0.929 . S
C223 C221 1.433 . S
C223 N226 1.384 . S
C224 H215 0.929 . S
C224 C216 1.378 . S
C224 C219 1.350 . S
C225 H212 0.929 . S
C225 C217 1.433 . S
C225 N227 1.384 . S
N226 C222 1.427 . S
N226 C223 1.384 . S
N227 C219 1.427 . S
N227 C225 1.384 . S
H228 C234 0.930 . S
H229 C238 0.930 . S
H230 C243 0.929 . S
H231 C241 0.929 . S
H232 C236 0.929 . S
H233 C242 0.929 . S
C234 H228 0.930 . S
C234 C235 1.367 . S
C234 C242 1.378 . S
C235 C234 1.367 . S
C235 C243 1.433 . S
C236 H232 0.929 . S
C236 C238 1.378 . S
C236 C240 1.350 . S
C237 C240 1.463 . S
C237 C242 1.350 . S
C237 N245 1.427 . S
C238 H229 0.930 . S
C238 C236 1.378 . S
C238 C239 1.367 . S
C239 C238 1.367 . S
C239 C241 1.433 . S
C240 C236 1.350 . S
C240 C237 1.463 . S
C240 N244 1.427 . S
C241 H231 0.929 . S
C241 C239 1.433 . S
C241 N244 1.384 . S
C242 H233 0.929 . S
C242 C234 1.378 . S
C242 C237 1.350 . S
C243 H230 0.929 . S
C243 C235 1.433 . S
C243 N245 1.384 . S
N244 C240 1.427 . S
N244 C241 1.384 . S
N245 C237 1.427 . S
N245 C243 1.384 . S
H246 C252 0.930 . S
H247 C256 0.930 . S
H248 C261 0.929 . S
H249 C259 0.929 . S
H250 C254 0.929 . S
H251 C260 0.929 . S
C252 H246 0.930 . S
C252 C253 1.367 . S
C252 C260 1.378 . S
C253 C252 1.367 . S
C253 C261 1.433 . S
C254 H250 0.929 . S
C254 C256 1.378 . S
C254 C258 1.350 . S
C255 C258 1.463 . S
C255 C260 1.350 . S
C255 N263 1.427 . S
C256 H247 0.930 . S
C256 C254 1.378 . S
C256 C257 1.367 . S
C257 C256 1.367 . S
C257 C259 1.433 . S
C258 C254 1.350 . S
C258 C255 1.463 . S
C258 N262 1.427 . S
C259 H249 0.929 . S
C259 C257 1.433 . S
C259 N262 1.384 . S
C260 H251 0.929 . S
C260 C252 1.378 . S
C260 C255 1.350 . S
C261 H248 0.929 . S
C261 C253 1.433 . S
C261 N263 1.384 . S
N262 C258 1.427 . S
N262 C259 1.384 . S
N263 C255 1.427 . S
N263 C261 1.384 . S
H264 C270 0.930 . S
H265 C274 0.930 . S
H266 C279 0.929 . S
H267 C277 0.929 . S
H268 C272 0.929 . S
H269 C278 0.929 . S
C270 H264 0.930 . S
C270 C271 1.367 . S
C270 C278 1.378 . S
C271 C270 1.367 . S
C271 C279 1.433 . S
C272 H268 0.929 . S
C272 C274 1.378 . S
C272 C276 1.350 . S
C273 C276 1.463 . S
C273 C278 1.350 . S
C273 N281 1.427 . S
C274 H265 0.930 . S
C274 C272 1.378 . S
C274 C275 1.367 . S
C275 C274 1.367 . S
C275 C277 1.433 . S
C276 C272 1.350 . S
C276 C273 1.463 . S
C276 N280 1.427 . S
C277 H267 0.929 . S
C277 C275 1.433 . S
C277 N280 1.384 . S
C278 H269 0.929 . S
C278 C270 1.378 . S
C278 C273 1.350 . S
C279 H266 0.929 . S
C279 C271 1.433 . S
C279 N281 1.384 . S
N280 C276 1.427 . S
N280 C277 1.384 . S
N281 C273 1.427 . S
N281 C279 1.384 . S
H282 C288 0.930 . S
H283 C292 0.930 . S
H284 C297 0.929 . S
H285 C295 0.929 . S
H286 C290 0.929 . S
H287 C296 0.929 . S
C288 H282 0.930 . S
C288 C289 1.367 . S
C288 C296 1.378 . S
C289 C288 1.367 . S
C289 C297 1.433 . S
C290 H286 0.929 . S
C290 C292 1.378 . S
C290 C294 1.350 . S
C291 C294 1.463 . S
C291 C296 1.350 . S
C291 N299 1.427 . S
C292 H283 0.930 . S
C292 C290 1.378 . S
C292 C293 1.367 . S
C293 C292 1.367 . S
C293 C295 1.433 . S
C294 C290 1.350 . S
C294 C291 1.463 . S
C294 N298 1.427 . S
C295 H285 0.929 . S
C295 C293 1.433 . S
C295 N298 1.384 . S
C296 H287 0.929 . S
C296 C288 1.378 . S
C296 C291 1.350 . S
C297 H284 0.929 . S
C297 C289 1.433 . S
C297 N299 1.384 . S
N298 C294 1.427 . S
N298 C295 1.384 . S
N299 C291 1.427 . S
N299 C297 1.384 . S
H300 C306 0.930 . S
H301 C310 0.930 . S
H302 C315 0.929 . S
H303 C313 0.929 . S
H304 C308 0.929 . S
H305 C314 0.929 . S
C306 H300 0.930 . S
C306 C307 1.367 . S
C306 C314 1.378 . S
C307 C306 1.367 . S
C307 C315 1.433 . S
C308 H304 0.929 . S
C308 C310 1.378 . S
C308 C312 1.350 . S
C309 C312 1.463 . S
C309 C314 1.350 . S
C309 N317 1.427 . S
C310 H301 0.930 . S
C310 C308 1.378 . S
C310 C311 1.367 . S
C311 C310 1.367 . S
C311 C313 1.433 . S
C312 C308 1.350 . S
C312 C309 1.463 . S
C312 N316 1.427 . S
C313 H303 0.929 . S
C313 C311 1.433 . S
C313 N316 1.384 . S
C314 H305 0.929 . S
C314 C306 1.378 . S
C314 C309 1.350 . S
C315 H302 0.929 . S
C315 C307 1.433 . S
C315 N317 1.384 . S
N316 C312 1.427 . S
N316 C313 1.384 . S
N317 C309 1.427 . S
N317 C315 1.384 . S
H318 C324 0.930 . S
H319 C328 0.930 . S
H320 C333 0.929 . S
H321 C331 0.929 . S
H322 C326 0.929 . S
H323 C332 0.929 . S
C324 H318 0.930 . S
C324 C325 1.367 . S
C324 C332 1.378 . S
C325 C324 1.367 . S
C325 C333 1.433 . S
C326 H322 0.929 . S
C326 C328 1.378 . S
C326 C330 1.350 . S
C327 C330 1.463 . S
C327 C332 1.350 . S
C327 N335 1.427 . S
C328 H319 0.930 . S
C328 C326 1.378 . S
C328 C329 1.367 . S
C329 C328 1.367 . S
C329 C331 1.433 . S
C330 C326 1.350 . S
C330 C327 1.463 . S
C330 N334 1.427 . S
C331 H321 0.929 . S
C331 C329 1.433 . S
C331 N334 1.384 . S
C332 H323 0.929 . S
C332 C324 1.378 . S
C332 C327 1.350 . S
C333 H320 0.929 . S
C333 C325 1.433 . S
C333 N335 1.384 . S
N334 C330 1.427 . S
N334 C331 1.384 . S
N335 C327 1.427 . S
N335 C333 1.384 . S
H336 C342 0.930 . S
H337 C346 0.930 . S
H338 C351 0.929 . S
H339 C349 0.929 . S
H340 C344 0.929 . S
H341 C350 0.929 . S
C342 H336 0.930 . S
C342 C343 1.367 . S
C342 C350 1.378 . S
C343 C342 1.367 . S
C343 C351 1.433 . S
C344 H340 0.929 . S
C344 C346 1.378 1_565 S
C344 C348 1.350 . S
C345 C348 1.463 . S
C345 C350 1.350 . S
C345 N353 1.427 . S
C346 H337 0.930 . S
C346 C344 1.378 1_545 S
C346 C347 1.367 . S
C347 C346 1.367 . S
C347 C349 1.433 1_545 S
C348 C344 1.350 . S
C348 C345 1.463 . S
C348 N352 1.427 . S
C349 H339 0.929 . S
C349 C347 1.433 1_565 S
C349 N352 1.384 . S
C350 H341 0.929 . S
C350 C342 1.378 . S
C350 C345 1.350 . S
C351 H338 0.929 . S
C351 C343 1.433 . S
C351 N353 1.384 . S
N352 C348 1.427 . S
N352 C349 1.384 . S
N353 C345 1.427 . S
N353 C351 1.384 . S
H354 C360 0.930 . S
H355 C364 0.930 . S
H356 C369 0.929 . S
H357 C367 0.929 . S
H358 C362 0.929 . S
H359 C368 0.929 . S
C360 H354 0.930 . S
C360 C361 1.367 . S
C360 C368 1.378 . S
C361 C360 1.367 . S
C361 C369 1.433 . S
C362 H358 0.929 . S
C362 C364 1.378 . S
C362 C366 1.350 . S
C363 C366 1.463 . S
C363 C368 1.350 . S
C363 N371 1.427 . S
C364 H355 0.930 . S
C364 C362 1.378 . S
C364 C365 1.367 . S
C365 C364 1.367 . S
C365 C367 1.433 . S
C366 C362 1.350 . S
C366 C363 1.463 . S
C366 N370 1.427 . S
C367 H357 0.929 . S
C367 C365 1.433 . S
C367 N370 1.384 . S
C368 H359 0.929 . S
C368 C360 1.378 . S
C368 C363 1.350 . S
C369 H356 0.929 . S
C369 C361 1.433 . S
C369 N371 1.384 . S
N370 C366 1.427 . S
N370 C367 1.384 . S
N371 C363 1.427 . S
N371 C369 1.384 . S
H372 C378 0.930 . S
H373 C382 0.930 . S
H374 C387 0.929 . S
H375 C385 0.929 . S
H376 C380 0.929 . S
H377 C386 0.929 . S
C378 H372 0.930 . S
C378 C379 1.367 . S
C378 C386 1.378 . S
C379 C378 1.367 . S
C379 C387 1.433 . S
C380 H376 0.929 . S
C380 C382 1.378 . S
C380 C384 1.350 . S
C381 C384 1.463 . S
C381 C386 1.350 . S
C381 N389 1.427 . S
C382 H373 0.930 . S
C382 C380 1.378 . S
C382 C383 1.367 . S
C383 C382 1.367 . S
C383 C385 1.433 . S
C384 C380 1.350 . S
C384 C381 1.463 . S
C384 N388 1.427 . S
C385 H375 0.929 . S
C385 C383 1.433 . S
C385 N388 1.384 . S
C386 H377 0.929 . S
C386 C378 1.378 . S
C386 C381 1.350 . S
C387 H374 0.929 . S
C387 C379 1.433 . S
C387 N389 1.384 . S
N388 C384 1.427 . S
N388 C385 1.384 . S
N389 C381 1.427 . S
N389 C387 1.384 . S
H390 C396 0.930 . S
H391 C400 0.930 . S
H392 C405 0.929 . S
H393 C403 0.929 . S
H394 C398 0.929 . S
H395 C404 0.929 . S
C396 H390 0.930 . S
C396 C397 1.367 . S
C396 C404 1.378 . S
C397 C396 1.367 . S
C397 C405 1.433 . S
C398 H394 0.929 . S
C398 C400 1.378 . S
C398 C402 1.350 . S
C399 C402 1.463 . S
C399 C404 1.350 . S
C399 N407 1.427 . S
C400 H391 0.930 . S
C400 C398 1.378 . S
C400 C401 1.367 . S
C401 C400 1.367 . S
C401 C403 1.433 . S
C402 C398 1.350 . S
C402 C399 1.463 . S
C402 N406 1.427 . S
C403 H393 0.929 . S
C403 C401 1.433 . S
C403 N406 1.384 . S
C404 H395 0.929 . S
C404 C396 1.378 . S
C404 C399 1.350 . S
C405 H392 0.929 . S
C405 C397 1.433 . S
C405 N407 1.384 . S
N406 C402 1.427 . S
N406 C403 1.384 . S
N407 C399 1.427 . S
N407 C405 1.384 . S
H408 C414 0.930 . S
H409 C418 0.930 . S
H410 C423 0.929 . S
H411 C421 0.929 . S
H412 C416 0.929 . S
H413 C422 0.929 . S
C414 H408 0.930 . S
C414 C415 1.367 1_655 S
C414 C422 1.378 . S
C415 C414 1.367 1_455 S
C415 C423 1.433 . S
C416 H412 0.929 . S
C416 C418 1.378 . S
C416 C420 1.350 1_556 S
C417 C420 1.463 . S
C417 C422 1.350 1_455 S
C417 N425 1.427 . S
C418 H409 0.930 . S
C418 C416 1.378 . S
C418 C419 1.367 . S
C419 C418 1.367 . S
C419 C421 1.433 1_455 S
C420 C416 1.350 1_554 S
C420 C417 1.463 . S
C420 N424 1.427 1_454 S
C421 H411 0.929 . S
C421 C419 1.433 1_655 S
C421 N424 1.384 . S
C422 H413 0.929 . S
C422 C414 1.378 . S
C422 C417 1.350 1_655 S
C423 H410 0.929 . S
C423 C415 1.433 . S
C423 N425 1.384 . S
N424 C420 1.427 1_656 S
N424 C421 1.384 . S
N425 C417 1.427 . S
N425 C423 1.384 . S
H426 C432 0.921 1_565 S
H427 C436 0.930 . S
H428 C441 0.929 . S
H429 C439 0.929 . S
H430 C434 0.929 . S
H431 C440 0.929 . S
C432 H426 0.921 1_545 S
C432 C433 1.367 . S
C432 C440 1.378 . S
C433 C432 1.367 . S
C433 C441 1.433 . S
C434 H430 0.929 . S
C434 C436 1.378 . S
C434 C438 1.350 . S
C435 C438 1.463 . S
C435 C440 1.350 . S
C435 N443 1.427 . S
C436 H427 0.930 . S
C436 C434 1.378 . S
C436 C437 1.367 . S
C437 C436 1.367 . S
C437 C439 1.433 . S
C438 C434 1.350 . S
C438 C435 1.463 . S
C438 N442 1.427 . S
C439 H429 0.929 . S
C439 C437 1.433 . S
C439 N442 1.384 . S
C440 H431 0.929 . S
C440 C432 1.378 . S
C440 C435 1.350 . S
C441 H428 0.929 . S
C441 C433 1.433 . S
C441 N443 1.384 . S
N442 C438 1.427 . S
N442 C439 1.384 . S
N443 C435 1.427 . S
N443 C441 1.384 . S
H444 C450 0.930 . S
H445 C454 0.930 . S
H446 C459 0.929 . S
H447 C457 0.929 . S
H448 C452 0.929 . S
H449 C458 0.929 . S
C450 H444 0.930 . S
C450 C451 1.367 . S
C450 C458 1.378 . S
C451 C450 1.367 . S
C451 C459 1.433 . S
C452 H448 0.929 . S
C452 C454 1.378 . S
C452 C456 1.350 . S
C453 C456 1.463 . S
C453 C458 1.350 . S
C453 N461 1.427 . S
C454 H445 0.930 . S
C454 C452 1.378 . S
C454 C455 1.367 . S
C455 C454 1.367 . S
C455 C457 1.433 . S
C456 C452 1.350 . S
C456 C453 1.463 . S
C456 N460 1.427 . S
C457 H447 0.929 . S
C457 C455 1.433 . S
C457 N460 1.384 . S
C458 H449 0.929 . S
C458 C450 1.378 . S
C458 C453 1.350 . S
C459 H446 0.929 . S
C459 C451 1.433 . S
C459 N461 1.384 . S
N460 C456 1.427 . S
N460 C457 1.384 . S
N461 C453 1.427 . S
N461 C459 1.384 . S
H462 C468 0.930 . S
H463 C472 0.930 . S
H464 C477 0.929 . S
H465 C475 0.929 1_565 S
H466 C470 0.929 . S
H467 C476 0.929 . S
C468 H462 0.930 . S
C468 C469 1.367 . S
C468 C476 1.378 . S
C469 C468 1.367 . S
C469 C477 1.433 . S
C470 H466 0.929 . S
C470 C472 1.378 . S
C470 C474 1.350 . S
C471 C474 1.463 . S
C471 C476 1.350 . S
C471 N479 1.427 . S
C472 H463 0.930 . S
C472 C470 1.378 . S
C472 C473 1.367 . S
C473 C472 1.367 . S
C473 C475 1.433 . S
C474 C470 1.350 . S
C474 C471 1.463 . S
C474 N478 1.427 . S
C475 H465 0.929 1_545 S
C475 C473 1.433 . S
C475 N478 1.384 . S
C476 H467 0.929 . S
C476 C468 1.378 . S
C476 C471 1.350 . S
C477 H464 0.929 . S
C477 C469 1.433 . S
C477 N479 1.384 . S
N478 C474 1.427 . S
N478 C475 1.384 . S
N479 C471 1.427 . S
N479 C477 1.384 . S
H480 C486 0.930 . S
H481 C490 0.930 . S
H482 C495 0.929 . S
H483 C493 0.929 . S
H484 C488 0.929 . S
H485 C494 0.929 . S
C486 H480 0.930 . S
C486 C487 1.367 . S
C486 C494 1.378 . S
C487 C486 1.367 . S
C487 C495 1.433 . S
C488 H484 0.929 . S
C488 C490 1.378 . S
C488 C492 1.375 . S
C489 C492 1.425 1_556 S
C489 C494 1.350 . S
C489 N497 1.427 . S
C490 H481 0.930 . S
C490 C488 1.378 . S
C490 C491 1.367 . S
C491 C490 1.367 . S
C491 C493 1.433 . S
C492 C488 1.375 . S
C492 C489 1.425 1_554 S
C492 N496 1.439 . S
C493 H483 0.929 . S
C493 C491 1.433 . S
C493 N496 1.384 . S
C494 H485 0.929 . S
C494 C486 1.378 . S
C494 C489 1.350 . S
C495 H482 0.929 . S
C495 C487 1.433 . S
C495 N497 1.384 . S
N496 C492 1.439 . S
N496 C493 1.384 . S
N497 C489 1.427 . S
N497 C495 1.384 . S
H498 C504 0.930 1_655 S
H499 C508 0.930 . S
H500 C513 0.929 . S
H501 C511 0.929 . S
H502 C506 0.929 . S
H503 C512 0.929 1_655 S
C504 H498 0.930 1_455 S
C504 C505 1.367 . S
C504 C512 1.378 . S
C505 C504 1.367 . S
C505 C513 1.433 . S
C506 H502 0.929 . S
C506 C508 1.378 . S
C506 C510 1.350 . S
C507 C510 1.463 . S
C507 C512 1.350 . S
C507 N515 1.427 . S
C508 H499 0.930 . S
C508 C506 1.378 . S
C508 C509 1.367 . S
C509 C508 1.367 . S
C509 C511 1.433 1_455 S
C510 C506 1.350 . S
C510 C507 1.463 . S
C510 N514 1.403 1_455 S
C511 H501 0.929 . S
C511 C509 1.433 1_655 S
C511 N514 1.384 . S
C512 H503 0.929 1_455 S
C512 C504 1.378 . S
C512 C507 1.350 . S
C513 H500 0.929 . S
C513 C505 1.433 . S
C513 N515 1.384 . S
N514 C510 1.403 1_655 S
N514 C511 1.384 . S
N515 C507 1.427 . S
N515 C513 1.384 . S
C199 C19 3.237 . S
C203 C186 3.248 . S
C217 C49 3.141 . S
C221 C160 3.052 . S
C235 C99 3.047 . S
C239 C172 2.981 . S
C253 C9 2.850 . S
C257 C184 2.740 . S
C275 C162 2.891 . S
C271 C59 2.918 . S
C293 C174 2.946 . S
C289 C89 2.986 . S
C307 C55 0.549 . S
C311 C136 0.580 . S
C325 C85 0.567 . S
C329 C150 0.511 . S
C343 C15 0.211 . S
C347 C126 0.273 . S
C365 C138 0.252 . S
C361 C45 0.360 . S
C383 C148 0.364 . S
C379 C95 0.174 . S
C397 C5 0.438 . S
C401 C124 0.369 . S
C419 C153 1.240 1_455 S
C415 C18 1.221 . S
C433 C58 1.173 . S
C437 C129 1.215 . S
C451 C98 1.236 . S
C455 C141 1.254 . S
C473 C177 1.739 . S
C469 C48 1.689 . S
C491 C189 1.827 . S
C487 C88 1.736 . S
C505 C8 1.684 . S
C509 C165 1.796 . S
