# Generated by pormake.
# Topology eea, (3,6)-cn, num edge types: 1
# Building blocks:
#     Node 0, Type 0, BuildingBlock: KAKCAD_clean_linker_0, # of connection points: 3
#     Node 1, Type 0, BuildingBlock: KAKCAD_clean_linker_0, # of connection points: 3
#     Node 2, Type 0, BuildingBlock: KAKCAD_clean_linker_0, # of connection points: 3
#     Node 3, Type 0, BuildingBlock: KAKCAD_clean_linker_0, # of connection points: 3
#     Node 4, Type 0, BuildingBlock: KAKCAD_clean_linker_0, # of connection points: 3
#     Node 5, Type 0, BuildingBlock: KAKCAD_clean_linker_0, # of connection points: 3
#     Node 6, Type 0, BuildingBlock: KAKCAD_clean_linker_0, # of connection points: 3
#     Node 7, Type 0, BuildingBlock: KAKCAD_clean_linker_0, # of connection points: 3
#     Node 8, Type 0, BuildingBlock: KAKCAD_clean_linker_0, # of connection points: 3
#     Node 9, Type 0, BuildingBlock: KAKCAD_clean_linker_0, # of connection points: 3
#     Node 10, Type 0, BuildingBlock: KAKCAD_clean_linker_0, # of connection points: 3
#     Node 11, Type 0, BuildingBlock: KAKCAD_clean_linker_0, # of connection points: 3
#     Node 12, Type 0, BuildingBlock: KAKCAD_clean_linker_0, # of connection points: 3
#     Node 13, Type 0, BuildingBlock: KAKCAD_clean_linker_0, # of connection points: 3
#     Node 14, Type 0, BuildingBlock: KAKCAD_clean_linker_0, # of connection points: 3
#     Node 15, Type 0, BuildingBlock: KAKCAD_clean_linker_0, # of connection points: 3
#     Node 16, Type 0, BuildingBlock: KAKCAD_clean_linker_0, # of connection points: 3
#     Node 17, Type 0, BuildingBlock: KAKCAD_clean_linker_0, # of connection points: 3
#     Node 18, Type 1, BuildingBlock: KUMBOL_clean_sbu_0, # of connection points: 6
#     Node 19, Type 1, BuildingBlock: KUMBOL_clean_sbu_0, # of connection points: 6
#     Node 20, Type 1, BuildingBlock: KUMBOL_clean_sbu_0, # of connection points: 6
#     Node 21, Type 1, BuildingBlock: KUMBOL_clean_sbu_0, # of connection points: 6
#     Node 22, Type 1, BuildingBlock: KUMBOL_clean_sbu_0, # of connection points: 6
#     Node 23, Type 1, BuildingBlock: KUMBOL_clean_sbu_0, # of connection points: 6
#     Node 24, Type 1, BuildingBlock: KUMBOL_clean_sbu_0, # of connection points: 6
#     Node 25, Type 1, BuildingBlock: KUMBOL_clean_sbu_0, # of connection points: 6
#     Node 26, Type 1, BuildingBlock: KUMBOL_clean_sbu_0, # of connection points: 6
#     Edge 27, Type (0, 1), BuildingBlock: MIFKUJ_clean_linker_0, # of connection points: 2
#     Edge 28, Type (0, 1), BuildingBlock: MIFKUJ_clean_linker_0, # of connection points: 2
#     Edge 29, Type (0, 1), BuildingBlock: MIFKUJ_clean_linker_0, # of connection points: 2
#     Edge 30, Type (0, 1), BuildingBlock: MIFKUJ_clean_linker_0, # of connection points: 2
#     Edge 31, Type (0, 1), BuildingBlock: MIFKUJ_clean_linker_0, # of connection points: 2
#     Edge 32, Type (0, 1), BuildingBlock: MIFKUJ_clean_linker_0, # of connection points: 2
#     Edge 33, Type (0, 1), BuildingBlock: MIFKUJ_clean_linker_0, # of connection points: 2
#     Edge 34, Type (0, 1), BuildingBlock: MIFKUJ_clean_linker_0, # of connection points: 2
#     Edge 35, Type (0, 1), BuildingBlock: MIFKUJ_clean_linker_0, # of connection points: 2
#     Edge 36, Type (0, 1), BuildingBlock: MIFKUJ_clean_linker_0, # of connection points: 2
#     Edge 37, Type (0, 1), BuildingBlock: MIFKUJ_clean_linker_0, # of connection points: 2
#     Edge 38, Type (0, 1), BuildingBlock: MIFKUJ_clean_linker_0, # of connection points: 2
#     Edge 39, Type (0, 1), BuildingBlock: MIFKUJ_clean_linker_0, # of connection points: 2
#     Edge 40, Type (0, 1), BuildingBlock: MIFKUJ_clean_linker_0, # of connection points: 2
#     Edge 41, Type (0, 1), BuildingBlock: MIFKUJ_clean_linker_0, # of connection points: 2
#     Edge 42, Type (0, 1), BuildingBlock: MIFKUJ_clean_linker_0, # of connection points: 2
#     Edge 43, Type (0, 1), BuildingBlock: MIFKUJ_clean_linker_0, # of connection points: 2
#     Edge 44, Type (0, 1), BuildingBlock: MIFKUJ_clean_linker_0, # of connection points: 2
#     Edge 45, Type (0, 1), BuildingBlock: MIFKUJ_clean_linker_0, # of connection points: 2
#     Edge 46, Type (0, 1), BuildingBlock: MIFKUJ_clean_linker_0, # of connection points: 2
#     Edge 47, Type (0, 1), BuildingBlock: MIFKUJ_clean_linker_0, # of connection points: 2
#     Edge 48, Type (0, 1), BuildingBlock: MIFKUJ_clean_linker_0, # of connection points: 2
#     Edge 49, Type (0, 1), BuildingBlock: MIFKUJ_clean_linker_0, # of connection points: 2
#     Edge 50, Type (0, 1), BuildingBlock: MIFKUJ_clean_linker_0, # of connection points: 2
#     Edge 51, Type (0, 1), BuildingBlock: MIFKUJ_clean_linker_0, # of connection points: 2
#     Edge 52, Type (0, 1), BuildingBlock: MIFKUJ_clean_linker_0, # of connection points: 2
#     Edge 53, Type (0, 1), BuildingBlock: MIFKUJ_clean_linker_0, # of connection points: 2
#     Edge 54, Type (0, 1), BuildingBlock: MIFKUJ_clean_linker_0, # of connection points: 2
#     Edge 55, Type (0, 1), BuildingBlock: MIFKUJ_clean_linker_0, # of connection points: 2
#     Edge 56, Type (0, 1), BuildingBlock: MIFKUJ_clean_linker_0, # of connection points: 2
#     Edge 57, Type (0, 1), BuildingBlock: MIFKUJ_clean_linker_0, # of connection points: 2
#     Edge 58, Type (0, 1), BuildingBlock: MIFKUJ_clean_linker_0, # of connection points: 2
#     Edge 59, Type (0, 1), BuildingBlock: MIFKUJ_clean_linker_0, # of connection points: 2
#     Edge 60, Type (0, 1), BuildingBlock: MIFKUJ_clean_linker_0, # of connection points: 2
#     Edge 61, Type (0, 1), BuildingBlock: MIFKUJ_clean_linker_0, # of connection points: 2
#     Edge 62, Type (0, 1), BuildingBlock: MIFKUJ_clean_linker_0, # of connection points: 2
#     Edge 63, Type (0, 1), BuildingBlock: MIFKUJ_clean_linker_0, # of connection points: 2
#     Edge 64, Type (0, 1), BuildingBlock: MIFKUJ_clean_linker_0, # of connection points: 2
#     Edge 65, Type (0, 1), BuildingBlock: MIFKUJ_clean_linker_0, # of connection points: 2
#     Edge 66, Type (0, 1), BuildingBlock: MIFKUJ_clean_linker_0, # of connection points: 2
#     Edge 67, Type (0, 1), BuildingBlock: MIFKUJ_clean_linker_0, # of connection points: 2
#     Edge 68, Type (0, 1), BuildingBlock: MIFKUJ_clean_linker_0, # of connection points: 2
#     Edge 69, Type (0, 1), BuildingBlock: MIFKUJ_clean_linker_0, # of connection points: 2
#     Edge 70, Type (0, 1), BuildingBlock: MIFKUJ_clean_linker_0, # of connection points: 2
#     Edge 71, Type (0, 1), BuildingBlock: MIFKUJ_clean_linker_0, # of connection points: 2
#     Edge 72, Type (0, 1), BuildingBlock: MIFKUJ_clean_linker_0, # of connection points: 2
#     Edge 73, Type (0, 1), BuildingBlock: MIFKUJ_clean_linker_0, # of connection points: 2
#     Edge 74, Type (0, 1), BuildingBlock: MIFKUJ_clean_linker_0, # of connection points: 2
#     Edge 75, Type (0, 1), BuildingBlock: MIFKUJ_clean_linker_0, # of connection points: 2
#     Edge 76, Type (0, 1), BuildingBlock: MIFKUJ_clean_linker_0, # of connection points: 2
#     Edge 77, Type (0, 1), BuildingBlock: MIFKUJ_clean_linker_0, # of connection points: 2
#     Edge 78, Type (0, 1), BuildingBlock: MIFKUJ_clean_linker_0, # of connection points: 2
#     Edge 79, Type (0, 1), BuildingBlock: MIFKUJ_clean_linker_0, # of connection points: 2
#     Edge 80, Type (0, 1), BuildingBlock: MIFKUJ_clean_linker_0, # of connection points: 2
# Relax obj value: 0.010
# Max RMSD: 0.098
# Mean RMSD: 0.055
data_MOF--net-eea--node1-KUMBOL_clean_sbu_0--node2-KAKCAD_clean_linker_0--edge1-MIFKUJ_clean_linker_0
_symmetry_space_group_name_H-M    P1
_symmetry_Int_Tables_number       1
_symmetry_cell_setting            triclinic
loop_
_symmetry_equiv_pos_as_xyz
'x, y, z'
_cell_length_a     78.567058
_cell_length_b     79.7741
_cell_length_c     107.3758
_cell_angle_alpha  90.427152
_cell_angle_beta   90.262236
_cell_angle_gamma 120.01859
loop_
_atom_site_label
_atom_site_type_symbol
_atom_site_fract_x
_atom_site_fract_y
_atom_site_fract_z
_atom_type_partial_charge
C0 C 0.25648 0.14059 0.47618 0.0
C1 C 0.26972 0.13464 0.48014 0.0
C2 C 0.24909 0.13689 0.46398 0.0
C3 C 0.2549 0.12733 0.45542 0.0
C4 C 0.26822 0.12151 0.45938 0.0
C5 C 0.27541 0.12498 0.47159 0.0
C6 C 0.24722 0.12344 0.44239 0.0
C7 C 0.24423 0.13702 0.43592 0.0
C8 C 0.2376 0.13357 0.42351 0.0
C9 C 0.23417 0.1165 0.41746 0.0
C10 C 0.23668 0.10255 0.42381 0.0
C11 C 0.24305 0.10611 0.4363 0.0
C12 C 0.23242 0.08417 0.41751 0.0
C13 C 0.21637 0.07462 0.40924 0.0
C14 C 0.24422 0.07586 0.41985 0.0
C15 C 0.23991 0.05832 0.41423 0.0
C16 C 0.22381 0.04873 0.406 0.0
C17 C 0.23379 0.14757 0.4169 0.0
C18 C 0.22165 0.15386 0.42226 0.0
C19 C 0.24166 0.15421 0.40504 0.0
C20 C 0.23741 0.16688 0.39864 0.0
C21 C 0.22493 0.17283 0.4039 0.0
C22 C 0.21713 0.16626 0.41578 0.0
C23 C 0.21219 0.05719 0.40351 0.0
H24 H 0.25195 0.14828 0.48245 0.0
H25 H 0.23869 0.1414 0.46132 0.0
H26 H 0.27329 0.11438 0.45301 0.0
H27 H 0.28533 0.11991 0.47433 0.0
H28 H 0.24746 0.15052 0.44041 0.0
H29 H 0.24437 0.09514 0.4414 0.0
H30 H 0.22932 0.11403 0.40781 0.0
H31 H 0.20681 0.08045 0.40733 0.0
H32 H 0.25688 0.08293 0.42603 0.0
H33 H 0.24905 0.05215 0.4165 0.0
H34 H 0.21531 0.14883 0.43136 0.0
H35 H 0.25111 0.1496 0.40075 0.0
H36 H 0.19985 0.05039 0.39708 0.0
H37 H 0.20759 0.17079 0.42005 0.0
H38 H 0.24355 0.17173 0.38948 0.0
C39 C 0.88387 0.14498 0.47037 0.0
C40 C 0.87999 0.13196 0.48014 0.0
C41 C 0.88811 0.14095 0.45846 0.0
C42 C 0.88815 0.12364 0.45605 0.0
C43 C 0.88426 0.11061 0.46581 0.0
C44 C 0.88042 0.11484 0.47779 0.0
C45 C 0.89182 0.11899 0.4433 0.0
C46 C 0.90853 0.13231 0.43676 0.0
C47 C 0.91205 0.12808 0.42462 0.0
C48 C 0.8984 0.11026 0.41905 0.0
C49 C 0.88145 0.09679 0.42542 0.0
C50 C 0.8784 0.10132 0.4376 0.0
C51 C 0.86673 0.07822 0.41931 0.0
C52 C 0.86223 0.07751 0.40654 0.0
C53 C 0.85678 0.06108 0.42623 0.0
C54 C 0.84255 0.04381 0.42058 0.0
C55 C 0.83813 0.04318 0.40784 0.0
C56 C 0.92988 0.14228 0.41774 0.0
C57 C 0.93668 0.16225 0.41866 0.0
C58 C 0.94022 0.136 0.41017 0.0
C59 C 0.95684 0.14932 0.40363 0.0
C60 C 0.96364 0.16929 0.40456 0.0
C61 C 0.95337 0.17557 0.41219 0.0
C62 C 0.8482 0.06017 0.40086 0.0
H63 H 0.8837 0.15832 0.47197 0.0
H64 H 0.89097 0.15116 0.45106 0.0
H65 H 0.88429 0.09721 0.46418 0.0
H66 H 0.87738 0.10454 0.48516 0.0
H67 H 0.91902 0.1458 0.44129 0.0
H68 H 0.86522 0.09137 0.44256 0.0
H69 H 0.90094 0.10692 0.40969 0.0
H70 H 0.86926 0.09043 0.40094 0.0
H71 H 0.86007 0.06093 0.43602 0.0
H72 H 0.83518 0.03086 0.42615 0.0
H73 H 0.92899 0.16763 0.42428 0.0
H74 H 0.93559 0.12077 0.40935 0.0
H75 H 0.84491 0.06014 0.39105 0.0
H76 H 0.95829 0.19084 0.41328 0.0
H77 H 0.96421 0.1439 0.39774 0.0
C78 C 0.89399 0.7691 0.4767 0.0
C79 C 0.87514 0.75414 0.48 0.0
C80 C 0.89793 0.77611 0.4645 0.0
C81 C 0.88311 0.76847 0.45527 0.0
C82 C 0.8643 0.75351 0.45855 0.0
C83 C 0.86039 0.7464 0.47071 0.0
C84 C 0.88718 0.7761 0.4423 0.0
C85 C 0.90462 0.77992 0.43627 0.0
C86 C 0.90851 0.78696 0.424 0.0
C87 C 0.89459 0.79023 0.4178 0.0
C88 C 0.87703 0.78655 0.42363 0.0
C89 C 0.87354 0.7795 0.4359 0.0
C90 C 0.86232 0.79005 0.41697 0.0
C91 C 0.86838 0.80616 0.40919 0.0
C92 C 0.84201 0.77731 0.41837 0.0
C93 C 0.8282 0.78064 0.41226 0.0
C94 C 0.83427 0.79676 0.40451 0.0
C95 C 0.927 0.79067 0.41763 0.0
C96 C 0.94496 0.79865 0.42423 0.0
C97 C 0.92685 0.78618 0.40491 0.0
C98 C 0.94412 0.78953 0.39897 0.0
C99 C 0.96203 0.7974 0.4056 0.0
C100 C 0.96221 0.80192 0.41831 0.0
C101 C 0.85456 0.80944 0.40302 0.0
H102 H 0.90568 0.77567 0.48359 0.0
H103 H 0.91252 0.7878 0.46235 0.0
H104 H 0.85261 0.74706 0.45164 0.0
H105 H 0.84581 0.73462 0.47277 0.0
H106 H 0.91491 0.77684 0.44104 0.0
H107 H 0.86036 0.77709 0.44062 0.0
H108 H 0.89742 0.79564 0.40837 0.0
H109 H 0.88385 0.81648 0.40801 0.0
H110 H 0.83672 0.76455 0.42407 0.0
H111 H 0.81272 0.77037 0.41346 0.0
H112 H 0.94578 0.80261 0.43397 0.0
H113 H 0.9133 0.7797 0.39955 0.0
H114 H 0.85978 0.82213 0.39725 0.0
H115 H 0.97576 0.80824 0.42367 0.0
H116 H 0.94334 0.78558 0.38923 0.0
C117 C 0.13168 0.23357 0.53591 0.0
C118 C 0.12582 0.24663 0.5318 0.0
C119 C 0.12797 0.22661 0.54811 0.0
C120 C 0.11841 0.23264 0.55658 0.0
C121 C 0.11239 0.24558 0.5524 0.0
C122 C 0.11598 0.25243 0.54017 0.0
C123 C 0.11512 0.22582 0.56976 0.0
C124 C 0.12948 0.22361 0.57623 0.0
C125 C 0.12677 0.21756 0.5887 0.0
C126 C 0.10951 0.21414 0.59481 0.0
C127 C 0.09478 0.21612 0.58856 0.0
C128 C 0.09774 0.22175 0.57597 0.0
C129 C 0.07638 0.21234 0.59514 0.0
C130 C 0.06816 0.19835 0.60458 0.0
C131 C 0.06683 0.22277 0.59207 0.0
C132 C 0.04953 0.21911 0.59807 0.0
C133 C 0.04158 0.2053 0.60752 0.0
C134 C 0.14195 0.21473 0.59528 0.0
C135 C 0.1514 0.20609 0.58908 0.0
C136 C 0.14702 0.22048 0.60781 0.0
C137 C 0.16111 0.21761 0.61396 0.0
C138 C 0.17054 0.20895 0.60775 0.0
C139 C 0.16551 0.20325 0.59522 0.0
C140 C 0.05112 0.19505 0.61079 0.0
H141 H 0.13904 0.22859 0.52965 0.0
H142 H 0.13251 0.2164 0.55087 0.0
H143 H 0.10528 0.25082 0.55868 0.0
H144 H 0.11151 0.26268 0.53738 0.0
H145 H 0.1431 0.22708 0.57165 0.0
H146 H 0.0863 0.22261 0.57086 0.0
H147 H 0.10758 0.20986 0.60447 0.0
H148 H 0.07468 0.18967 0.6071 0.0
H149 H 0.07279 0.23398 0.58511 0.0
H150 H 0.04253 0.22734 0.59547 0.0
H151 H 0.14766 0.20118 0.57951 0.0
H152 H 0.1403 0.22747 0.61283 0.0
H153 H 0.04516 0.1842 0.61799 0.0
H154 H 0.17222 0.19626 0.5902 0.0
H155 H 0.16483 0.22246 0.62355 0.0
C156 C 0.73593 0.85696 0.53835 0.0
C157 C 0.74453 0.87169 0.52944 0.0
C158 C 0.74301 0.86029 0.5506 0.0
C159 C 0.75871 0.87845 0.55422 0.0
C160 C 0.76743 0.89311 0.54532 0.0
C161 C 0.76048 0.88975 0.53305 0.0
C162 C 0.76593 0.88223 0.56726 0.0
C163 C 0.76964 0.86902 0.57354 0.0
C164 C 0.77708 0.87287 0.58578 0.0
C165 C 0.78074 0.89011 0.59174 0.0
C166 C 0.77679 0.90337 0.58565 0.0
C167 C 0.76933 0.89921 0.5734 0.0
C168 C 0.78032 0.92149 0.59203 0.0
C169 C 0.77658 0.92166 0.60483 0.0
C170 C 0.78719 0.93874 0.5853 0.0
C171 C 0.78988 0.95558 0.59114 0.0
C172 C 0.78612 0.95567 0.60388 0.0
C173 C 0.78123 0.85893 0.59225 0.0
C174 C 0.76764 0.83897 0.59165 0.0
C175 C 0.79886 0.86545 0.59897 0.0
C176 C 0.80287 0.85227 0.6049 0.0
C177 C 0.7893 0.83231 0.60428 0.0
C178 C 0.77161 0.8258 0.59763 0.0
C179 C 0.77961 0.93864 0.61071 0.0
H180 H 0.72343 0.84298 0.53594 0.0
H181 H 0.73593 0.84879 0.55732 0.0
H182 H 0.77975 0.90716 0.54783 0.0
H183 H 0.76769 0.90129 0.52639 0.0
H184 H 0.76729 0.85601 0.56875 0.0
H185 H 0.76573 0.909 0.56867 0.0
H186 H 0.78666 0.89317 0.60114 0.0
H187 H 0.77096 0.90861 0.61027 0.0
H188 H 0.79066 0.93931 0.57551 0.0
H189 H 0.79518 0.96865 0.58573 0.0
H190 H 0.75387 0.83355 0.58661 0.0
H191 H 0.80967 0.88073 0.59951 0.0
H192 H 0.77649 0.93836 0.62055 0.0
H193 H 0.76094 0.8105 0.59692 0.0
H194 H 0.81654 0.85771 0.61007 0.0
C195 C 0.1016 0.86599 0.53567 0.0
C196 C 0.1202 0.8694 0.53192 0.0
C197 C 0.09831 0.86913 0.54805 0.0
C198 C 0.11357 0.87583 0.55696 0.0
C199 C 0.13209 0.87906 0.55323 0.0
C200 C 0.13535 0.87586 0.54089 0.0
C201 C 0.11035 0.87969 0.57007 0.0
C202 C 0.09313 0.8667 0.57639 0.0
C203 C 0.09041 0.87011 0.58889 0.0
C204 C 0.10487 0.88691 0.595 0.0
C205 C 0.122 0.90019 0.58877 0.0
C206 C 0.12468 0.89639 0.57636 0.0
C207 C 0.13701 0.91816 0.59517 0.0
C208 C 0.13141 0.92984 0.6018 0.0
C209 C 0.15705 0.92393 0.59449 0.0
C210 C 0.17122 0.94106 0.60031 0.0
C211 C 0.1657 0.95295 0.60683 0.0
C212 C 0.07266 0.85594 0.5957 0.0
C213 C 0.05379 0.84932 0.59068 0.0
C214 C 0.07455 0.84896 0.6073 0.0
C215 C 0.05789 0.83544 0.61369 0.0
C216 C 0.039 0.82891 0.60872 0.0
C217 C 0.03709 0.83606 0.59719 0.0
C218 C 0.14558 0.94708 0.6075 0.0
H219 H 0.08965 0.86121 0.52899 0.0
H220 H 0.08393 0.8667 0.5506 0.0
H221 H 0.14405 0.88387 0.55991 0.0
H222 H 0.14973 0.87823 0.53841 0.0
H223 H 0.08213 0.85359 0.57173 0.0
H224 H 0.13775 0.90676 0.57148 0.0
H225 H 0.10279 0.88963 0.60462 0.0
H226 H 0.11608 0.92586 0.60234 0.0
H227 H 0.16176 0.91508 0.58955 0.0
H228 H 0.1865 0.94487 0.59978 0.0
H229 H 0.05195 0.85455 0.58178 0.0
H230 H 0.08895 0.85376 0.61134 0.0
H231 H 0.14075 0.95599 0.61222 0.0
H232 H 0.02269 0.83115 0.59313 0.0
H233 H 0.05975 0.83019 0.62259 0.0
C234 C 0.91571 0.46936 0.81244 0.0
C235 C 0.93181 0.46715 0.81575 0.0
C236 C 0.90859 0.46596 0.80019 0.0
C237 C 0.9174 0.46024 0.791 0.0
C238 C 0.93353 0.45812 0.79429 0.0
C239 C 0.94067 0.46155 0.80652 0.0
C240 C 0.90976 0.45644 0.77801 0.0
C241 C 0.90449 0.46893 0.77219 0.0
C242 C 0.89757 0.4655 0.75985 0.0
C243 C 0.89553 0.44928 0.75336 0.0
C244 C 0.90038 0.43647 0.75912 0.0
C245 C 0.90769 0.44024 0.77139 0.0
C246 C 0.89717 0.4188 0.75246 0.0
C247 C 0.87911 0.40666 0.7465 0.0
C248 C 0.91191 0.41376 0.75224 0.0
C249 C 0.90864 0.39685 0.74614 0.0
C250 C 0.89045 0.38451 0.74028 0.0
C251 C 0.89255 0.47893 0.75366 0.0
C252 C 0.8786 0.48293 0.75888 0.0
C253 C 0.90161 0.48771 0.74244 0.0
C254 C 0.89692 0.50046 0.73657 0.0
C255 C 0.8828 0.50428 0.74171 0.0
C256 C 0.8736 0.49536 0.75287 0.0
C257 C 0.87574 0.38965 0.74054 0.0
H258 H 0.9084 0.47341 0.81936 0.0
H259 H 0.89598 0.46748 0.79796 0.0
H260 H 0.94082 0.45403 0.78737 0.0
H261 H 0.95333 0.46007 0.80871 0.0
H262 H 0.90628 0.48162 0.77712 0.0
H263 H 0.91115 0.4302 0.77591 0.0
H264 H 0.89004 0.44656 0.74384 0.0
H265 H 0.86741 0.4101 0.74669 0.0
H266 H 0.92603 0.423 0.75669 0.0
H267 H 0.92043 0.39355 0.74595 0.0
H268 H 0.87141 0.47623 0.76751 0.0
H269 H 0.91246 0.48484 0.73829 0.0
H270 H 0.86143 0.38034 0.73636 0.0
H271 H 0.86272 0.4982 0.75699 0.0
H272 H 0.90413 0.50715 0.72794 0.0
C273 C 0.55697 0.48766 0.80514 0.0
C274 C 0.54716 0.47314 0.81401 0.0
C275 C 0.561 0.48302 0.79333 0.0
C276 C 0.55554 0.46378 0.7902 0.0
C277 C 0.54616 0.4494 0.79926 0.0
C278 C 0.54187 0.45399 0.81097 0.0
C279 C 0.55935 0.45858 0.77753 0.0
C280 C 0.57649 0.47118 0.77101 0.0
C281 C 0.5802 0.46604 0.7592 0.0
C282 C 0.56672 0.44793 0.75397 0.0
C283 C 0.54935 0.43519 0.76024 0.0
C284 C 0.54575 0.44081 0.77193 0.0
C285 C 0.53483 0.4161 0.75463 0.0
C286 C 0.5308 0.41413 0.74175 0.0
C287 C 0.52462 0.3997 0.76218 0.0
C288 C 0.51051 0.38193 0.75703 0.0
C289 C 0.50647 0.38004 0.74419 0.0
C290 C 0.59808 0.47971 0.75226 0.0
C291 C 0.60314 0.49918 0.75104 0.0
C292 C 0.61006 0.47337 0.74669 0.0
C293 C 0.62679 0.48627 0.74007 0.0
C294 C 0.63173 0.5057 0.73875 0.0
C295 C 0.61971 0.51201 0.74429 0.0
C296 C 0.51685 0.39628 0.73658 0.0
H297 H 0.56107 0.50252 0.80725 0.0
H298 H 0.56799 0.49446 0.78658 0.0
H299 H 0.54218 0.43452 0.79735 0.0
H300 H 0.53454 0.44258 0.81771 0.0
H301 H 0.58725 0.48484 0.77522 0.0
H302 H 0.53204 0.43144 0.77658 0.0
H303 H 0.56973 0.44385 0.74495 0.0
H304 H 0.53811 0.42646 0.73566 0.0
H305 H 0.52759 0.40052 0.77209 0.0
H306 H 0.50292 0.36959 0.76309 0.0
H307 H 0.5941 0.50443 0.75517 0.0
H308 H 0.60656 0.45846 0.74754 0.0
H309 H 0.51388 0.39527 0.72666 0.0
H310 H 0.62324 0.52694 0.7435 0.0
H311 H 0.63574 0.481 0.73584 0.0
C312 C 0.56082 0.09248 0.80731 0.0
C313 C 0.54258 0.07603 0.80996 0.0
C314 C 0.5647 0.10068 0.79543 0.0
C315 C 0.55039 0.09276 0.78591 0.0
C316 C 0.53219 0.07632 0.78852 0.0
C317 C 0.52836 0.06801 0.80035 0.0
C318 C 0.55434 0.10173 0.77334 0.0
C319 C 0.57241 0.10763 0.76743 0.0
C320 C 0.57615 0.11595 0.75551 0.0
C321 C 0.56176 0.11886 0.74969 0.0
C322 C 0.54368 0.11313 0.75547 0.0
C323 C 0.54001 0.10439 0.76721 0.0
C324 C 0.52861 0.11633 0.74926 0.0
C325 C 0.53333 0.13485 0.74523 0.0
C326 C 0.50938 0.10092 0.74743 0.0
C327 C 0.49517 0.10391 0.74156 0.0
C328 C 0.4997 0.12251 0.73762 0.0
C329 C 0.59482 0.12104 0.74899 0.0
C330 C 0.61302 0.13079 0.75528 0.0
C331 C 0.5945 0.11586 0.73641 0.0
C332 C 0.6119 0.1202 0.7303 0.0
C333 C 0.63019 0.13004 0.73654 0.0
C334 C 0.63049 0.13532 0.74913 0.0
C335 C 0.51903 0.13795 0.7396 0.0
H336 H 0.57204 0.09929 0.81447 0.0
H337 H 0.57878 0.11348 0.79377 0.0
H338 H 0.52095 0.06969 0.78134 0.0
H339 H 0.5143 0.05514 0.80191 0.0
H340 H 0.58331 0.10513 0.77192 0.0
H341 H 0.52614 0.10016 0.77173 0.0
H342 H 0.56456 0.12548 0.74059 0.0
H343 H 0.54803 0.14703 0.74665 0.0
H344 H 0.50541 0.08645 0.75035 0.0
H345 H 0.4807 0.0915 0.73999 0.0
H346 H 0.61379 0.13514 0.76494 0.0
H347 H 0.58069 0.10806 0.73135 0.0
H348 H 0.52315 0.15257 0.737 0.0
H349 H 0.64424 0.14318 0.75422 0.0
H350 H 0.61091 0.11547 0.72071 0.0
C351 C 0.79547 0.5669 0.86919 0.0
C352 C 0.79493 0.58379 0.86631 0.0
C353 C 0.79153 0.55949 0.88129 0.0
C354 C 0.78662 0.56861 0.89073 0.0
C355 C 0.78577 0.58532 0.8878 0.0
C356 C 0.79005 0.59293 0.87576 0.0
C357 C 0.78265 0.56084 0.90363 0.0
C358 C 0.79569 0.55615 0.90956 0.0
C359 C 0.7923 0.54893 0.92178 0.0
C360 C 0.77534 0.54626 0.92799 0.0
C361 C 0.76204 0.55085 0.92223 0.0
C362 C 0.76595 0.55823 0.91005 0.0
C363 C 0.74404 0.54789 0.92888 0.0
C364 C 0.73305 0.53146 0.93627 0.0
C365 C 0.73761 0.56143 0.92785 0.0
C366 C 0.72069 0.55862 0.93399 0.0
C367 C 0.70968 0.54218 0.94137 0.0
C368 C 0.80667 0.54453 0.92807 0.0
C369 C 0.81627 0.53653 0.92131 0.0
C370 C 0.81127 0.54869 0.94083 0.0
C371 C 0.8252 0.54514 0.94659 0.0
C372 C 0.83501 0.53747 0.93975 0.0
C373 C 0.83029 0.53313 0.92705 0.0
C374 C 0.71612 0.52865 0.94242 0.0
H375 H 0.7993 0.55961 0.86214 0.0
H376 H 0.79219 0.54653 0.88325 0.0
H377 H 0.78213 0.59272 0.89489 0.0
H378 H 0.78939 0.6059 0.8738 0.0
H379 H 0.80885 0.55873 0.90474 0.0
H380 H 0.7557 0.5615 0.90538 0.0
H381 H 0.77251 0.54064 0.93737 0.0
H382 H 0.73738 0.52059 0.9372 0.0
H383 H 0.74577 0.57436 0.92236 0.0
H384 H 0.71612 0.56926 0.93282 0.0
H385 H 0.81288 0.53276 0.91155 0.0
H386 H 0.80448 0.55514 0.94633 0.0
H387 H 0.7082 0.51592 0.94812 0.0
H388 H 0.83733 0.52693 0.92154 0.0
H389 H 0.82864 0.54888 0.95635 0.0
C390 C 0.39536 0.18414 0.87825 0.0
C391 C 0.4063 0.19905 0.86977 0.0
C392 C 0.40026 0.1866 0.89093 0.0
C393 C 0.41609 0.20407 0.89542 0.0
C394 C 0.42729 0.2188 0.88693 0.0
C395 C 0.42251 0.21629 0.87426 0.0
C396 C 0.42053 0.20731 0.90896 0.0
C397 C 0.42146 0.19326 0.91626 0.0
C398 C 0.4259 0.19647 0.92908 0.0
C399 C 0.42946 0.21408 0.93449 0.0
C400 C 0.42858 0.22833 0.92733 0.0
C401 C 0.4239 0.22465 0.91458 0.0
C402 C 0.43272 0.24711 0.93305 0.0
C403 C 0.42717 0.24805 0.94539 0.0
C404 C 0.44236 0.26436 0.9262 0.0
C405 C 0.44607 0.28195 0.93146 0.0
C406 C 0.44065 0.28278 0.94376 0.0
C407 C 0.42705 0.18158 0.93679 0.0
C408 C 0.41405 0.16171 0.93462 0.0
C409 C 0.4412 0.1871 0.94638 0.0
C410 C 0.44227 0.17317 0.95362 0.0
C411 C 0.42944 0.15338 0.95131 0.0
C412 C 0.41533 0.14777 0.94174 0.0
C413 C 0.43129 0.26575 0.95072 0.0
H414 H 0.38262 0.17077 0.87517 0.0
H415 H 0.39128 0.17507 0.89729 0.0
H416 H 0.43977 0.23231 0.89012 0.0
H417 H 0.43152 0.22791 0.86798 0.0
H418 H 0.41927 0.18006 0.91184 0.0
H419 H 0.42249 0.23515 0.909 0.0
H420 H 0.43301 0.21674 0.94432 0.0
H421 H 0.41941 0.2351 0.9509 0.0
H422 H 0.44731 0.26439 0.91681 0.0
H423 H 0.45352 0.29499 0.92598 0.0
H424 H 0.40274 0.15688 0.92748 0.0
H425 H 0.45175 0.20221 0.94819 0.0
H426 H 0.42689 0.2661 0.96022 0.0
H427 H 0.40518 0.13259 0.93983 0.0
H428 H 0.45348 0.17786 0.96083 0.0
C429 C 0.78041 0.19271 0.87072 0.0
C430 C 0.79887 0.19505 0.8676 0.0
C431 C 0.7765 0.196 0.88292 0.0
C432 C 0.79102 0.20193 0.89226 0.0
C433 C 0.80937 0.20408 0.88922 0.0
C434 C 0.8132 0.20055 0.87708 0.0
C435 C 0.78727 0.20641 0.90505 0.0
C436 C 0.76997 0.19351 0.91131 0.0
C437 C 0.76636 0.19777 0.92342 0.0
C438 C 0.78009 0.21544 0.9291 0.0
C439 C 0.79742 0.22849 0.92295 0.0
C440 C 0.80099 0.22376 0.91099 0.0
C441 C 0.81172 0.24719 0.92893 0.0
C442 C 0.8054 0.25932 0.93412 0.0
C443 C 0.83183 0.25314 0.92931 0.0
C444 C 0.84535 0.27087 0.93481 0.0
C445 C 0.83913 0.28322 0.9399 0.0
C446 C 0.74844 0.18369 0.93024 0.0
C447 C 0.7301 0.17369 0.92413 0.0
C448 C 0.7496 0.18008 0.94292 0.0
C449 C 0.73282 0.16687 0.94936 0.0
C450 C 0.71444 0.15693 0.94328 0.0
C451 C 0.7133 0.16049 0.93057 0.0
C452 C 0.81895 0.27718 0.93946 0.0
H453 H 0.76909 0.18879 0.86368 0.0
H454 H 0.76229 0.19441 0.88499 0.0
H455 H 0.82074 0.2084 0.89628 0.0
H456 H 0.82741 0.20207 0.87515 0.0
H457 H 0.75962 0.17989 0.90686 0.0
H458 H 0.8142 0.23392 0.90614 0.0
H459 H 0.77734 0.21906 0.93834 0.0
H460 H 0.79 0.25517 0.93381 0.0
H461 H 0.83707 0.24396 0.92548 0.0
H462 H 0.86067 0.27475 0.93519 0.0
H463 H 0.72865 0.17631 0.9144 0.0
H464 H 0.76356 0.18727 0.94786 0.0
H465 H 0.81358 0.28638 0.94305 0.0
H466 H 0.69934 0.15333 0.92565 0.0
H467 H 0.73431 0.16426 0.95908 0.0
C468 C 0.60073 0.81783 0.13561 0.0
C469 C 0.61536 0.81396 0.13991 0.0
C470 C 0.59521 0.81528 0.12302 0.0
C471 C 0.60403 0.80858 0.1145 0.0
C472 C 0.61881 0.80498 0.11872 0.0
C473 C 0.62452 0.80776 0.13124 0.0
C474 C 0.59743 0.80472 0.1013 0.0
C475 C 0.59561 0.81858 0.09433 0.0
C476 C 0.58942 0.8149 0.0818 0.0
C477 C 0.58497 0.79706 0.07633 0.0
C478 C 0.58648 0.78292 0.08322 0.0
C479 C 0.59278 0.78696 0.0957 0.0
C480 C 0.58109 0.76379 0.07748 0.0
C481 C 0.56518 0.75463 0.06907 0.0
C482 C 0.59162 0.75438 0.08053 0.0
C483 C 0.58621 0.73618 0.07545 0.0
C484 C 0.57028 0.72701 0.06704 0.0
C485 C 0.58711 0.82942 0.07446 0.0
C486 C 0.57895 0.83985 0.07991 0.0
C487 C 0.5924 0.83248 0.06183 0.0
C488 C 0.58909 0.84523 0.05474 0.0
C489 C 0.58048 0.8553 0.06013 0.0
C490 C 0.57573 0.85266 0.07285 0.0
C491 C 0.55994 0.73657 0.06385 0.0
H492 H 0.59316 0.82237 0.142 0.0
H493 H 0.58364 0.81801 0.12001 0.0
H494 H 0.62603 0.80005 0.1123 0.0
H495 H 0.63617 0.80509 0.13411 0.0
H496 H 0.59943 0.83237 0.09862 0.0
H497 H 0.59353 0.77606 0.10125 0.0
H498 H 0.58013 0.79411 0.0667 0.0
H499 H 0.55652 0.76126 0.06662 0.0
H500 H 0.60413 0.76106 0.08683 0.0
H501 H 0.59438 0.72922 0.07829 0.0
H502 H 0.57455 0.83776 0.08958 0.0
H503 H 0.59901 0.82493 0.05737 0.0
H504 H 0.54779 0.73015 0.05727 0.0
H505 H 0.56938 0.86042 0.07736 0.0
H506 H 0.5928 0.84678 0.04496 0.0
C507 C 0.21457 0.82114 0.13638 0.0
C508 C 0.21039 0.80725 0.14568 0.0
C509 C 0.21825 0.81781 0.12412 0.0
C510 C 0.21754 0.80041 0.12082 0.0
C511 C 0.21359 0.78662 0.13008 0.0
C512 C 0.21022 0.79005 0.14236 0.0
C513 C 0.22052 0.79636 0.10774 0.0
C514 C 0.2369 0.80989 0.10101 0.0
C515 C 0.24015 0.80566 0.0888 0.0
C516 C 0.22655 0.78777 0.08331 0.0
C517 C 0.20983 0.77416 0.0898 0.0
C518 C 0.20702 0.77867 0.10204 0.0
C519 C 0.19537 0.75528 0.08383 0.0
C520 C 0.19113 0.75403 0.07098 0.0
C521 C 0.18564 0.7383 0.09094 0.0
C522 C 0.17193 0.7207 0.0854 0.0
C523 C 0.16789 0.71953 0.07258 0.0
C524 C 0.25793 0.81969 0.08182 0.0
C525 C 0.26443 0.83963 0.08217 0.0
C526 C 0.2685 0.81317 0.07469 0.0
C527 C 0.28512 0.82623 0.06807 0.0
C528 C 0.29166 0.84617 0.06842 0.0
C529 C 0.28107 0.85271 0.07553 0.0
C530 C 0.17769 0.73632 0.0654 0.0
H531 H 0.21455 0.83442 0.13848 0.0
H532 H 0.22114 0.82863 0.11714 0.0
H533 H 0.21323 0.77318 0.12782 0.0
H534 H 0.20756 0.77919 0.14925 0.0
H535 H 0.24748 0.82341 0.10546 0.0
H536 H 0.19407 0.76859 0.10713 0.0
H537 H 0.22908 0.78442 0.07395 0.0
H538 H 0.19795 0.76677 0.06521 0.0
H539 H 0.18876 0.7385 0.10079 0.0
H540 H 0.16471 0.70788 0.0911 0.0
H541 H 0.25654 0.84512 0.08749 0.0
H542 H 0.26407 0.79795 0.07432 0.0
H543 H 0.17468 0.73582 0.05551 0.0
H544 H 0.28581 0.86799 0.0761 0.0
H545 H 0.29277 0.82064 0.0626 0.0
C546 C 0.22963 0.42825 0.14302 0.0
C547 C 0.21024 0.4159 0.14687 0.0
C548 C 0.2335 0.43565 0.13091 0.0
C549 C 0.21807 0.43059 0.12226 0.0
C550 C 0.19868 0.41789 0.12614 0.0
C551 C 0.19482 0.41083 0.13831 0.0
C552 C 0.2221 0.4386 0.10931 0.0
C553 C 0.23942 0.44244 0.10304 0.0
C554 C 0.24325 0.44997 0.09089 0.0
C555 C 0.22944 0.45368 0.08497 0.0
C556 C 0.21201 0.44978 0.09098 0.0
C557 C 0.20854 0.44238 0.10312 0.0
C558 C 0.19715 0.45311 0.08456 0.0
C559 C 0.20242 0.47116 0.07938 0.0
C560 C 0.17747 0.43821 0.08373 0.0
C561 C 0.16333 0.44125 0.07783 0.0
C562 C 0.16838 0.45944 0.07282 0.0
C563 C 0.26148 0.45364 0.0843 0.0
C564 C 0.27981 0.46271 0.09048 0.0
C565 C 0.26069 0.44801 0.07178 0.0
C566 C 0.27775 0.45131 0.0656 0.0
C567 C 0.29615 0.46049 0.07173 0.0
C568 C 0.29691 0.46617 0.08428 0.0
C569 C 0.18819 0.47435 0.07369 0.0
H570 H 0.2418 0.4325 0.14946 0.0
H571 H 0.24859 0.44561 0.12844 0.0
H572 H 0.18638 0.41317 0.11976 0.0
H573 H 0.17974 0.40109 0.14097 0.0
H574 H 0.24973 0.43903 0.10745 0.0
H575 H 0.19534 0.43999 0.1078 0.0
H576 H 0.23218 0.45947 0.07564 0.0
H577 H 0.21748 0.48295 0.07998 0.0
H578 H 0.17306 0.42408 0.08752 0.0
H579 H 0.14846 0.42918 0.07711 0.0
H580 H 0.28098 0.46743 0.10009 0.0
H581 H 0.24678 0.44072 0.06679 0.0
H582 H 0.19275 0.48866 0.07019 0.0
H583 H 0.31078 0.47357 0.08929 0.0
H584 H 0.2764 0.44634 0.05604 0.0
C585 C 0.45867 0.90257 0.20117 0.0
C586 C 0.45657 0.91865 0.19827 0.0
C587 C 0.45555 0.89532 0.2133 0.0
C588 C 0.44999 0.90377 0.2228 0.0
C589 C 0.44774 0.91971 0.21992 0.0
C590 C 0.45111 0.92713 0.20785 0.0
C591 C 0.44674 0.89621 0.23572 0.0
C592 C 0.46052 0.89249 0.24157 0.0
C593 C 0.45803 0.88621 0.25398 0.0
C594 C 0.44135 0.88355 0.26052 0.0
C595 C 0.42704 0.88673 0.25474 0.0
C596 C 0.43 0.89308 0.24231 0.0
C597 C 0.40895 0.88329 0.26156 0.0
C598 C 0.39997 0.86836 0.27034 0.0
C599 C 0.40022 0.89469 0.25916 0.0
C600 C 0.38289 0.89101 0.26513 0.0
C601 C 0.37403 0.87611 0.27386 0.0
C602 C 0.47301 0.88266 0.26009 0.0
C603 C 0.48076 0.87251 0.25375 0.0
C604 C 0.47991 0.88961 0.27222 0.0
C605 C 0.49434 0.88664 0.2778 0.0
C606 C 0.50208 0.87648 0.27145 0.0
C607 C 0.49503 0.86938 0.25937 0.0
C608 C 0.38284 0.86494 0.27649 0.0
H609 H 0.46251 0.89539 0.19405 0.0
H610 H 0.45722 0.8829 0.21522 0.0
H611 H 0.44374 0.92671 0.22709 0.0
H612 H 0.44975 0.93976 0.20612 0.0
H613 H 0.47356 0.8951 0.23657 0.0
H614 H 0.41906 0.89524 0.23757 0.0
H615 H 0.43954 0.87893 0.27012 0.0
H616 H 0.40591 0.85899 0.27232 0.0
H617 H 0.40682 0.90664 0.25274 0.0
H618 H 0.37656 0.90002 0.26305 0.0
H619 H 0.47567 0.86684 0.24443 0.0
H620 H 0.47438 0.89762 0.27733 0.0
H621 H 0.37624 0.85327 0.28312 0.0
H622 H 0.50077 0.86162 0.25418 0.0
H623 H 0.49931 0.89216 0.28716 0.0
C624 C 0.06123 0.52073 0.20697 0.0
C625 C 0.07005 0.53472 0.19762 0.0
C626 C 0.06948 0.5241 0.21891 0.0
C627 C 0.08656 0.54165 0.22183 0.0
C628 C 0.09549 0.55561 0.21255 0.0
C629 C 0.08743 0.55213 0.20054 0.0
C630 C 0.09461 0.54556 0.23467 0.0
C631 C 0.09787 0.53196 0.24086 0.0
C632 C 0.10484 0.53525 0.25324 0.0
C633 C 0.10804 0.55219 0.25945 0.0
C634 C 0.10508 0.56597 0.25329 0.0
C635 C 0.09858 0.5627 0.24087 0.0
C636 C 0.10867 0.58377 0.2599 0.0
C637 C 0.09959 0.58259 0.27135 0.0
C638 C 0.12127 0.60202 0.25483 0.0
C639 C 0.12495 0.61885 0.2612 0.0
C640 C 0.11578 0.61767 0.27261 0.0
C641 C 0.10911 0.52126 0.25961 0.0
C642 C 0.09691 0.5012 0.25777 0.0
C643 C 0.12561 0.52791 0.26752 0.0
C644 C 0.12974 0.51486 0.2735 0.0
C645 C 0.11761 0.4948 0.27162 0.0
C646 C 0.10115 0.48814 0.26366 0.0
C647 C 0.10296 0.59942 0.2776 0.0
H648 H 0.04765 0.50732 0.20518 0.0
H649 H 0.0622 0.51321 0.22597 0.0
H650 H 0.10879 0.56919 0.21457 0.0
H651 H 0.09488 0.56308 0.19355 0.0
H652 H 0.09541 0.51905 0.2359 0.0
H653 H 0.09596 0.57319 0.23617 0.0
H654 H 0.11297 0.55477 0.26908 0.0
H655 H 0.08973 0.56864 0.27539 0.0
H656 H 0.12848 0.60323 0.24603 0.0
H657 H 0.1348 0.6328 0.25716 0.0
H658 H 0.08397 0.49555 0.25185 0.0
H659 H 0.1355 0.54326 0.26902 0.0
H660 H 0.09579 0.5982 0.28641 0.0
H661 H 0.09161 0.4728 0.26188 0.0
H662 H 0.14237 0.52053 0.27969 0.0
C663 C 0.43921 0.52068 0.20289 0.0
C664 C 0.45865 0.52626 0.19961 0.0
C665 C 0.43492 0.52478 0.21478 0.0
C666 C 0.44994 0.53445 0.22373 0.0
C667 C 0.46931 0.53971 0.22052 0.0
C668 C 0.47362 0.53579 0.20861 0.0
C669 C 0.44556 0.53946 0.23626 0.0
C670 C 0.42822 0.52662 0.24253 0.0
C671 C 0.42397 0.53144 0.2543 0.0
C672 C 0.43738 0.54939 0.25979 0.0
C673 C 0.45489 0.56223 0.25377 0.0
C674 C 0.45879 0.55723 0.24201 0.0
C675 C 0.4693 0.58081 0.25981 0.0
C676 C 0.46321 0.59308 0.26509 0.0
C677 C 0.48931 0.58638 0.26031 0.0
C678 C 0.50297 0.60386 0.26598 0.0
C679 C 0.49698 0.61631 0.27117 0.0
C680 C 0.40572 0.51766 0.26096 0.0
C681 C 0.38782 0.5068 0.25445 0.0
C682 C 0.40607 0.51524 0.27391 0.0
C683 C 0.38896 0.50238 0.28019 0.0
C684 C 0.3711 0.49153 0.27368 0.0
C685 C 0.37072 0.49384 0.26074 0.0
C686 C 0.4769 0.61069 0.27065 0.0
H687 H 0.42725 0.51308 0.19628 0.0
H688 H 0.41986 0.52066 0.21686 0.0
H689 H 0.48123 0.54691 0.22721 0.0
H690 H 0.4888 0.54055 0.20642 0.0
H691 H 0.41826 0.51261 0.23839 0.0
H692 H 0.47203 0.56747 0.23721 0.0
H693 H 0.43429 0.55335 0.26883 0.0
H694 H 0.44788 0.58921 0.26472 0.0
H695 H 0.49436 0.57706 0.25645 0.0
H696 H 0.5182 0.60746 0.26643 0.0
H697 H 0.38694 0.5085 0.24451 0.0
H698 H 0.41965 0.52306 0.27919 0.0
H699 H 0.47177 0.62001 0.27435 0.0
H700 H 0.35713 0.48584 0.25548 0.0
H701 H 0.3898 0.50068 0.29014 0.0
Gd702 Gd 0.50716 0.00938 0.02103 0.0
Gd703 Gd 0.49724 0.994 0.98866 0.0
C704 C 0.43155 0.94869 0.98538 0.0
C705 C 0.43161 0.91854 0.98789 0.0
C706 C 0.4625 0.94925 0.98779 0.0
C707 C 0.4523 0.95906 0.98635 0.0
C708 C 0.45224 0.92879 0.98815 0.0
C709 C 0.42128 0.92848 0.98652 0.0
C710 C 0.42173 0.95891 0.9831 0.0
C711 C 0.43259 0.9788 0.98124 0.0
N712 N 0.46263 0.97867 0.98556 0.0
C713 C 0.45308 0.98839 0.98223 0.0
H714 H 0.46097 0.00352 0.97998 0.0
C715 C 0.4928 0.95004 0.98674 0.0
N716 N 0.48245 0.9596 0.98808 0.0
C717 C 0.48336 0.92986 0.98726 0.0
C718 C 0.463 0.91919 0.9883 0.0
H719 H 0.50839 0.95772 0.98505 0.0
H720 H 0.40537 0.92036 0.98602 0.0
H721 H 0.54467 0.00064 0.02771 0.0
H722 H 0.40584 0.9515 0.98231 0.0
H723 H 0.42523 0.98675 0.97888 0.0
H724 H 0.42353 0.90288 0.98837 0.0
H725 H 0.49427 0.04383 0.02674 0.0
H726 H 0.59833 0.05409 0.02807 0.0
H727 H 0.58034 0.01858 0.02916 0.0
H728 H 0.57838 0.10144 0.02484 0.0
H729 H 0.4918 0.92254 0.98662 0.0
H730 H 0.45568 0.90353 0.98859 0.0
H731 H 0.59758 0.08494 0.02617 0.0
H732 H 0.50956 0.07908 0.02658 0.0
N733 N 0.54178 0.02547 0.024 0.0
C734 C 0.58256 0.04629 0.02692 0.0
C735 C 0.57242 0.02621 0.02756 0.0
C736 C 0.57214 0.05607 0.02536 0.0
C737 C 0.55146 0.04514 0.02409 0.0
C738 C 0.55197 0.01602 0.02636 0.0
N739 N 0.52075 0.04353 0.02279 0.0
C740 C 0.54065 0.05444 0.02328 0.0
C741 C 0.5185 0.0724 0.02529 0.0
C742 C 0.53883 0.08381 0.02443 0.0
C743 C 0.50978 0.05226 0.02492 0.0
C744 C 0.55023 0.07488 0.02389 0.0
H745 H 0.54562 0.09944 0.02491 0.0
O746 O 0.48887 0.00983 0.03602 0.0
O747 O 0.4833 0.99056 0.00729 0.0
O748 O 0.49028 0.01777 0.99097 0.0
O749 O 0.48689 0.01913 0.01238 0.0
O750 O 0.48646 0.97769 0.02318 0.0
O751 O 0.51234 0.00392 0.04009 0.0
O752 O 0.51179 0.98867 0.97314 0.0
O753 O 0.52095 0.01274 0.00246 0.0
O754 O 0.51402 0.98545 0.01848 0.0
O755 O 0.51852 0.98541 0.99708 0.0
O756 O 0.51934 0.02546 0.98617 0.0
O757 O 0.49448 0.00237 0.96995 0.0
C758 C 0.47582 0.97498 0.0134 0.0
C759 C 0.57081 0.08576 0.02452 0.0
C760 C 0.58175 0.07636 0.02529 0.0
C761 C 0.49812 0.00593 0.04459 0.0
C762 C 0.50166 0.01593 0.0567 0.0
C763 C 0.50911 0.03596 0.05757 0.0
C764 C 0.49696 0.00496 0.06763 0.0
C765 C 0.4991 0.01376 0.07938 0.0
C766 C 0.51138 0.04482 0.0692 0.0
C767 C 0.50627 0.03381 0.08005 0.0
C768 C 0.48521 0.02404 1.00086 0.0
C769 C 0.52906 0.02832 0.99639 0.0
C770 C 0.50484 0.99563 0.96489 0.0
C771 C 0.49684 0.98466 0.95319 0.0
C772 C 0.48218 0.96509 0.95326 0.0
C773 C 0.503 0.99439 0.94178 0.0
C774 C 0.49436 0.98474 0.93047 0.0
C775 C 0.47372 0.95537 0.94207 0.0
C776 C 0.47966 0.96512 0.93075 0.0
C777 C 0.51938 0.97962 0.0085 0.0
H778 H 0.51308 0.04471 0.0493 0.0
H779 H 0.49126 0.98948 0.06697 0.0
H780 H 0.51707 0.06028 0.06982 0.0
H781 H 0.50819 0.04099 0.08897 0.0
H782 H 0.47709 0.95742 0.96194 0.0
H783 H 0.51408 0.00962 0.94175 0.0
H784 H 0.46238 0.94027 0.94217 0.0
H785 H 0.47282 0.95729 0.92219 0.0
Gd786 Gd 0.98638 0.49591 0.02057 0.0
Gd787 Gd 0.01883 0.50627 0.9935 0.0
C788 C 0.07592 0.5044 0.99244 0.0
C789 C 0.10038 0.53829 0.98971 0.0
C790 C 0.06571 0.52835 0.991 0.0
C791 C 0.06104 0.50937 0.99259 0.0
C792 C 0.08541 0.54302 0.98936 0.0
C793 C 0.09565 0.519 0.99122 0.0
C794 C 0.07048 0.48486 0.99318 0.0
C795 C 0.05061 0.47084 0.99383 0.0
N796 N 0.04184 0.49563 0.99374 0.0
C797 C 0.03641 0.47649 0.99402 0.0
H798 H 0.02114 0.46545 0.99453 0.0
C799 C 0.05457 0.55058 0.98781 0.0
N800 N 0.05086 0.53235 0.99055 0.0
C801 C 0.07388 0.56567 0.98625 0.0
C802 C 0.0894 0.56192 0.98714 0.0
H803 H 0.04268 0.55364 0.98716 0.0
H804 H 0.1073 0.51548 0.99119 0.0
H805 H 0.98457 0.53701 0.01886 0.0
H806 H 0.08145 0.48043 0.99297 0.0
H807 H 0.04615 0.45566 0.99413 0.0
H808 H 0.11562 0.54937 0.98855 0.0
H809 H 0.96156 0.44956 0.02908 0.0
H810 H 0.92443 0.52217 0.01457 0.0
H811 H 0.9597 0.54694 0.0161 0.0
H812 H 0.88927 0.45335 0.01993 0.0
H813 H 0.07677 0.58017 0.98437 0.0
H814 H 0.10433 0.57361 0.98588 0.0
H815 H 0.89822 0.4871 0.0158 0.0
H816 H 0.92703 0.42324 0.03088 0.0
N817 N 0.96368 0.50686 0.01861 0.0
C818 C 0.93529 0.51772 0.01581 0.0
C819 C 0.95517 0.53174 0.01671 0.0
C820 C 0.92962 0.49815 0.01698 0.0
C821 C 0.94436 0.49315 0.0185 0.0
C822 C 0.96924 0.52604 0.01829 0.0
N823 N 0.95397 0.47027 0.02292 0.0
C824 C 0.93933 0.47421 0.02075 0.0
C825 C 0.93028 0.43748 0.02795 0.0
C826 C 0.91502 0.44105 0.02508 0.0
C827 C 0.9498 0.45241 0.02695 0.0
C828 C 0.91943 0.45968 0.02162 0.0
H829 H 0.89992 0.42947 0.02588 0.0
O830 O 0.98905 0.48734 0.03926 0.0
O831 O 0.0136 0.49761 0.0133 0.0
O832 O 0.99589 0.47421 0.99491 0.0
O833 O 0.96979 0.47257 0.00619 0.0
O834 O 0.99717 0.47509 0.02513 0.0
O835 O 0.9905 0.51489 0.03631 0.0
O836 O 0.01655 0.51556 0.97492 0.0
O837 O 0.99165 0.50439 1.00081 0.0
O838 O 0.01024 0.52776 0.01949 0.0
O839 O 0.03601 0.52844 0.00839 0.0
O840 O 0.00813 0.52733 0.98942 0.0
O841 O 0.0114 0.48646 0.97787 0.0
C842 C 0.01309 0.48338 0.01873 0.0
C843 C 0.90466 0.46436 0.01945 0.0
C844 C 0.90975 0.48357 0.01711 0.0
C845 C 0.99008 0.50264 0.04444 0.0
C846 C 0.97763 0.49911 0.05535 0.0
C847 C 0.95716 0.49055 0.05416 0.0
C848 C 0.98636 0.50355 0.06722 0.0
C849 C 0.97472 0.49905 0.0779 0.0
C850 C 0.94551 0.48612 0.06477 0.0
C851 C 0.95421 0.49018 0.07662 0.0
C852 C 0.97709 0.46523 0.99814 0.0
C853 C 0.99206 0.51867 0.9956 0.0
C854 C 0.0129 0.49924 0.96978 0.0
C855 C 0.02362 0.5006 0.95837 0.0
C856 C 0.04242 0.50267 0.95872 0.0
C857 C 0.01452 0.49934 0.94689 0.0
C858 C 0.02394 0.4998 0.93572 0.0
C859 C 0.05194 0.50326 0.94763 0.0
C860 C 0.04272 0.50171 0.93617 0.0
C861 C 0.02911 0.53614 0.01647 0.0
H862 H 0.95019 0.48714 0.04509 0.0
H863 H 0.00218 0.51004 0.06815 0.0
H864 H 0.92971 0.4794 0.06381 0.0
H865 H 0.94498 0.48655 0.08476 0.0
H866 H 0.04965 0.50366 0.9675 0.0
H867 H 0.99988 0.49753 0.94666 0.0
H868 H 0.06643 0.5048 0.94792 0.0
H869 H 0.05028 0.50213 0.92766 0.0
Gd870 Gd 0.49512 0.51113 0.99178 0.0
Gd871 Gd 0.51208 0.49719 0.01993 0.0
C872 C 0.56978 0.49641 0.02058 0.0
C873 C 0.55842 0.46203 0.02227 0.0
C874 C 0.53494 0.47342 0.02183 0.0
C875 C 0.55011 0.49226 0.0207 0.0
C876 C 0.53891 0.45811 0.02293 0.0
C877 C 0.57383 0.48115 0.02107 0.0
C878 C 0.5848 0.51578 0.02035 0.0
C879 C 0.58001 0.53043 0.02073 0.0
N880 N 0.54566 0.50664 0.02038 0.0
C881 C 0.56025 0.52557 0.02093 0.0
H882 H 0.55674 0.53703 0.02113 0.0
C883 C 0.50105 0.45218 0.02517 0.0
N884 N 0.51631 0.47021 0.02252 0.0
C885 C 0.50424 0.43651 0.0263 0.0
C886 C 0.52322 0.43943 0.02501 0.0
H887 H 0.48632 0.44977 0.02611 0.0
H888 H 0.58884 0.48402 0.02087 0.0
H889 H 0.4511 0.47075 0.98957 0.0
H890 H 0.60011 0.51958 0.02019 0.0
H891 H 0.59151 0.54547 0.0208 0.0
H892 H 0.56177 0.45044 0.02296 0.0
H893 H 0.52073 0.55917 0.98798 0.0
H894 H 0.40704 0.487 0.98638 0.0
H895 H 0.41639 0.46159 0.98732 0.0
H896 H 0.44408 0.55624 0.98642 0.0
H897 H 0.49206 0.42219 0.02813 0.0
H898 H 0.52565 0.42726 0.0259 0.0
H899 H 0.41739 0.52226 0.98663 0.0
H900 H 0.51446 0.58645 0.98607 0.0
N901 N 0.4615 0.50104 0.9903 0.0
C902 C 0.42231 0.49106 0.9876 0.0
C903 C 0.42753 0.47672 0.98805 0.0
C904 C 0.43694 0.51055 0.98831 0.0
C905 C 0.45669 0.51514 0.9895 0.0
C906 C 0.44731 0.482 0.9893 0.0
N907 N 0.49047 0.53789 0.98949 0.0
C908 C 0.47166 0.53419 0.98916 0.0
C909 C 0.50229 0.57182 0.98695 0.0
C910 C 0.483 0.56831 0.98702 0.0
C911 C 0.50578 0.55633 0.98799 0.0
C912 C 0.46737 0.54928 0.98792 0.0
H913 H 0.48032 0.58031 0.98611 0.0
O914 O 0.50906 0.52263 0.97401 0.0
O915 O 0.5188 0.50786 1.00059 0.0
O916 O 0.52228 0.52946 0.0194 0.0
O917 O 0.49874 0.53163 0.00735 0.0
O918 O 0.52782 0.53191 0.9898 0.0
O919 O 0.48465 0.49317 0.97512 0.0
O920 O 0.49714 0.48777 0.0376 0.0
O921 O 0.48823 0.50036 0.01109 0.0
O922 O 0.4851 0.47889 0.99204 0.0
O923 O 0.50733 0.47561 0.00485 0.0
O924 O 0.47941 0.47637 0.02194 0.0
O925 O 0.52527 0.51426 0.03676 0.0
C926 C 0.53382 0.52241 0.99637 0.0
C927 C 0.44769 0.54485 0.98731 0.0
C928 C 0.4325 0.52551 0.98744 0.0
C929 C 0.49702 0.50689 0.96787 0.0
C930 C 0.48893 0.50945 0.95617 0.0
C931 C 0.47403 0.51425 0.95618 0.0
C932 C 0.49599 0.50667 0.94481 0.0
C933 C 0.48801 0.50838 0.93345 0.0
C934 C 0.46613 0.51609 0.94495 0.0
C935 C 0.47299 0.5131 0.93364 0.0
C936 C 0.51279 0.53855 0.01594 0.0
C937 C 0.47325 0.48564 0.01525 0.0
C938 C 0.51127 0.50195 0.0439 0.0
C939 C 0.51725 0.4965 0.05545 0.0
C940 C 0.52747 0.4863 0.05511 0.0
C941 C 0.51178 0.50074 0.06695 0.0
C942 C 0.516 0.49443 0.07818 0.0
C943 C 0.53184 0.48007 0.06615 0.0
C944 C 0.52604 0.48393 0.07759 0.0
C945 C 0.49398 0.46934 0.99581 0.0
H946 H 0.46846 0.51647 0.96484 0.0
H947 H 0.5074 0.50279 0.94482 0.0
H948 H 0.45463 0.51978 0.94501 0.0
H949 H 0.4667 0.51468 0.92504 0.0
H950 H 0.53186 0.48297 0.04636 0.0
H951 H 0.50422 0.50898 0.06708 0.0
H952 H 0.53954 0.472 0.06583 0.0
H953 H 0.52916 0.47838 0.08593 0.0
Gd954 Gd 0.17667 0.34563 0.35447 0.0
Gd955 Gd 0.15778 0.31864 0.3245 0.0
C956 C 0.09863 0.26256 0.32195 0.0
C957 C 0.10853 0.23861 0.31804 0.0
C958 C 0.13311 0.27273 0.31991 0.0
C959 C 0.11856 0.27724 0.32205 0.0
C960 C 0.12828 0.25342 0.31763 0.0
C961 C 0.09372 0.24317 0.3202 0.0
C962 C 0.08424 0.26786 0.3233 0.0
C963 C 0.08988 0.28744 0.32424 0.0
N964 N 0.12385 0.29611 0.32365 0.0
C965 C 0.10986 0.30146 0.32424 0.0
H966 H 0.114 0.31651 0.32509 0.0
C967 C 0.1667 0.28396 0.31608 0.0
N968 N 0.152 0.28741 0.31953 0.0
C969 C 0.16267 0.26503 0.31378 0.0
C970 C 0.14341 0.24965 0.31472 0.0
H971 H 0.18165 0.29575 0.31544 0.0
H972 H 0.0785 0.23166 0.32022 0.0
H973 H 0.22001 0.34682 0.35455 0.0
H974 H 0.06876 0.25703 0.32333 0.0
H975 H 0.07886 0.29173 0.32506 0.0
H976 H 0.10452 0.22364 0.31642 0.0
H977 H 0.1529 0.36918 0.36207 0.0
H978 H 0.26576 0.40547 0.35951 0.0
H979 H 0.2552 0.37086 0.35636 0.0
H980 H 0.23103 0.43996 0.36517 0.0
H981 H 0.17442 0.26234 0.31128 0.0
H982 H 0.14032 0.23501 0.3129 0.0
H983 H 0.25677 0.43126 0.3624 0.0
H984 H 0.16055 0.40264 0.36665 0.0
N985 N 0.21064 0.36757 0.35619 0.0
C986 C 0.25032 0.39498 0.35855 0.0
C987 C 0.24438 0.37545 0.35685 0.0
C988 C 0.23621 0.4007 0.35941 0.0
C989 C 0.21621 0.38643 0.35831 0.0
C990 C 0.22435 0.36184 0.35584 0.0
N991 N 0.18278 0.37696 0.35945 0.0
C992 C 0.20181 0.39129 0.35996 0.0
C993 C 0.1723 0.39966 0.36475 0.0
C994 C 0.19182 0.4147 0.36485 0.0
C995 C 0.16803 0.38072 0.3622 0.0
C996 C 0.2069 0.41059 0.36261 0.0
H997 H 0.19511 0.42935 0.3669 0.0
O998 O 0.16317 0.34112 0.3727 0.0
O999 O 0.15224 0.32097 0.34446 0.0
O1000 O 0.14867 0.34127 0.32779 0.0
O1001 O 0.17292 0.36477 0.34076 0.0
O1002 O 0.14429 0.33493 0.3573 0.0
O1003 O 0.18635 0.33441 0.36958 0.0
O1004 O 0.1725 0.32587 0.30665 0.0
O1005 O 0.1823 0.34344 0.33451 0.0
O1006 O 0.18589 0.32304 0.3512 0.0
O1007 O 0.16222 0.29957 0.33786 0.0
O1008 O 0.19012 0.32934 0.32161 0.0
O1009 O 0.14542 0.32639 0.30889 0.0
C1010 C 0.13767 0.32062 0.34954 0.0
C1011 C 0.22681 0.42502 0.36322 0.0
C1012 C 0.24145 0.42007 0.36164 0.0
C1013 C 0.17453 0.33538 0.37767 0.0
C1014 C 0.18311 0.34367 0.38994 0.0
C1015 C 0.19914 0.36254 0.391 0.0
C1016 C 0.17552 0.33239 0.40069 0.0
C1017 C 0.1842 0.3398 0.41244 0.0
C1018 C 0.20768 0.37002 0.40263 0.0
C1019 C 0.20036 0.35873 0.41328 0.0
C1020 C 0.15877 0.3592 0.33228 0.0
C1021 C 0.19682 0.34362 0.32943 0.0
C1022 C 0.1591 0.32836 0.30121 0.0
C1023 C 0.15269 0.31939 0.28879 0.0
C1024 C 0.14056 0.29929 0.28749 0.0
C1025 C 0.15965 0.33092 0.27809 0.0
C1026 C 0.15489 0.32234 0.26613 0.0
C1027 C 0.13563 0.29074 0.27565 0.0
C1028 C 0.14284 0.30214 0.26503 0.0
C1029 C 0.17623 0.30523 0.34643 0.0
H1030 H 0.20512 0.37142 0.38285 0.0
H1031 H 0.1632 0.31775 0.39986 0.0
H1032 H 0.22008 0.38459 0.4034 0.0
H1033 H 0.20723 0.36487 0.42221 0.0
H1034 H 0.1351 0.29021 0.29561 0.0
H1035 H 0.16921 0.34645 0.27907 0.0
H1036 H 0.12632 0.27521 0.2747 0.0
H1037 H 0.13891 0.29519 0.25594 0.0
Gd1038 Gd 0.6509 0.8261 0.35195 0.0
Gd1039 Gd 0.68059 0.83872 0.32346 0.0
C1040 C 0.7376 0.83664 0.32268 0.0
C1041 C 0.76221 0.87065 0.32065 0.0
C1042 C 0.72749 0.86067 0.32123 0.0
C1043 C 0.72272 0.84162 0.32257 0.0
C1044 C 0.74724 0.87539 0.31999 0.0
C1045 C 0.75739 0.85131 0.32201 0.0
C1046 C 0.7321 0.81704 0.32311 0.0
C1047 C 0.71219 0.80299 0.32293 0.0
N1048 N 0.70345 0.82783 0.32308 0.0
C1049 C 0.69798 0.80866 0.32273 0.0
H1050 H 0.68265 0.79764 0.32267 0.0
C1051 C 0.71643 0.88294 0.31785 0.0
N1052 N 0.71266 0.86468 0.32055 0.0
C1053 C 0.73581 0.89807 0.31661 0.0
C1054 C 0.75131 0.89432 0.31783 0.0
H1055 H 0.7045 0.88593 0.31703 0.0
H1056 H 0.76905 0.84779 0.32221 0.0
H1057 H 0.64597 0.8653 0.35205 0.0
H1058 H 0.74308 0.81261 0.32327 0.0
H1059 H 0.70777 0.78778 0.32301 0.0
H1060 H 0.7775 0.88177 0.31984 0.0
H1061 H 0.62988 0.77836 0.35707 0.0
H1062 H 0.58574 0.84758 0.3588 0.0
H1063 H 0.61984 0.87348 0.35488 0.0
H1064 H 0.55575 0.77897 0.36389 0.0
H1065 H 0.73877 0.91261 0.31478 0.0
H1066 H 0.7663 0.90606 0.31684 0.0
H1067 H 0.56226 0.81237 0.36294 0.0
H1068 H 0.59711 0.75084 0.3616 0.0
N1069 N 0.62659 0.83492 0.3532 0.0
C1070 C 0.59703 0.84383 0.35717 0.0
C1071 C 0.61628 0.8585 0.35501 0.0
C1072 C 0.59273 0.82457 0.35759 0.0
C1073 C 0.60798 0.82049 0.35541 0.0
C1074 C 0.63103 0.85379 0.35332 0.0
N1075 N 0.61995 0.7987 0.35548 0.0
C1076 C 0.60451 0.80176 0.35648 0.0
C1077 C 0.59898 0.76507 0.36017 0.0
C1078 C 0.5829 0.76794 0.36107 0.0
C1079 C 0.61756 0.78075 0.35759 0.0
C1080 C 0.58562 0.78651 0.35948 0.0
H1081 H 0.56859 0.75585 0.36332 0.0
O1082 O 0.65669 0.81735 0.3698 0.0
O1083 O 0.67763 0.82911 0.34299 0.0
O1084 O 0.65726 0.80663 0.32426 0.0
O1085 O 0.63246 0.80465 0.3371 0.0
O1086 O 0.66269 0.80555 0.35419 0.0
O1087 O 0.65672 0.84448 0.36828 0.0
O1088 O 0.67855 0.84942 0.30527 0.0
O1089 O 0.65408 0.8361 0.33248 0.0
O1090 O 0.6735 0.85835 0.35111 0.0
O1091 O 0.69845 0.86064 0.33832 0.0
O1092 O 0.66898 0.85951 0.32118 0.0
O1093 O 0.67249 0.81989 0.30723 0.0
C1094 C 0.67804 0.81473 0.3474 0.0
C1095 C 0.5703 0.79043 0.3614 0.0
C1096 C 0.57395 0.80946 0.36069 0.0
C1097 C 0.65811 0.83234 0.3757 0.0
C1098 C 0.64761 0.82836 0.38752 0.0
C1099 C 0.62701 0.81836 0.38788 0.0
C1100 C 0.65844 0.83402 0.39868 0.0
C1101 C 0.64876 0.82937 0.41017 0.0
C1102 C 0.61732 0.8138 0.39928 0.0
C1103 C 0.62812 0.81914 0.4104 0.0
C1104 C 0.63878 0.79765 0.32817 0.0
C1105 C 0.65377 0.85056 0.32813 0.0
C1106 C 0.67461 0.83338 0.29955 0.0
C1107 C 0.68584 0.83531 0.28823 0.0
C1108 C 0.70506 0.83847 0.28898 0.0
C1109 C 0.67702 0.83341 0.27652 0.0
C1110 C 0.6872 0.83432 0.26557 0.0
C1111 C 0.71529 0.83955 0.27815 0.0
C1112 C 0.70641 0.8374 0.2665 0.0
C1113 C 0.69206 0.86734 0.34739 0.0
H1114 H 0.61844 0.81394 0.37941 0.0
H1115 H 0.67438 0.84162 0.39843 0.0
H1116 H 0.60142 0.80601 0.39949 0.0
H1117 H 0.62039 0.81545 0.41917 0.0
H1118 H 0.71208 0.83995 0.29789 0.0
H1119 H 0.66209 0.83078 0.27595 0.0
H1120 H 0.7301 0.84196 0.27878 0.0
H1121 H 0.71462 0.8383 0.2582 0.0
Gd1122 Gd 0.15789 0.8371 0.32607 0.0
Gd1123 Gd 0.17499 0.82552 0.35511 0.0
C1124 C 0.23208 0.82516 0.3622 0.0
C1125 C 0.22021 0.79125 0.36663 0.0
C1126 C 0.19722 0.80202 0.36102 0.0
C1127 C 0.21261 0.82074 0.35974 0.0
C1128 C 0.20084 0.78702 0.36441 0.0
C1129 C 0.23574 0.81033 0.36573 0.0
C1130 C 0.24717 0.84446 0.36153 0.0
C1131 C 0.2426 0.85883 0.35881 0.0
N1132 N 0.20842 0.83486 0.35696 0.0
C1133 C 0.22301 0.85379 0.3568 0.0
H1134 H 0.21966 0.86513 0.35505 0.0
C1135 C 0.1629 0.78059 0.36145 0.0
N1136 N 0.17863 0.79864 0.35952 0.0
C1137 C 0.16576 0.76517 0.36452 0.0
C1138 C 0.18482 0.76837 0.36596 0.0
H1139 H 0.14809 0.77795 0.36047 0.0
H1140 H 0.25046 0.8135 0.3681 0.0
H1141 H 0.11354 0.79678 0.32539 0.0
H1142 H 0.26231 0.84847 0.36338 0.0
H1143 H 0.25412 0.87384 0.35847 0.0
H1144 H 0.22328 0.77999 0.36941 0.0
H1145 H 0.18309 0.88431 0.3193 0.0
H1146 H 0.06953 0.81341 0.32555 0.0
H1147 H 0.07863 0.78786 0.32561 0.0
H1148 H 0.10701 0.88249 0.32186 0.0
H1149 H 0.15325 0.75092 0.36596 0.0
H1150 H 0.18699 0.75646 0.36853 0.0
H1151 H 0.08028 0.84881 0.32427 0.0
H1152 H 0.17686 0.91158 0.31696 0.0
N1153 N 0.1242 0.82711 0.32543 0.0
C1154 C 0.0849 0.81741 0.32541 0.0
C1155 C 0.08997 0.80296 0.32541 0.0
C1156 C 0.0997 0.83685 0.32486 0.0
C1157 C 0.11947 0.84127 0.32478 0.0
C1158 C 0.1098 0.80808 0.32527 0.0
N1159 N 0.15318 0.86366 0.32286 0.0
C1160 C 0.13445 0.86017 0.32344 0.0
C1161 C 0.16481 0.89721 0.31884 0.0
C1162 C 0.14571 0.89401 0.32 0.0
C1163 C 0.16828 0.88173 0.32011 0.0
C1164 C 0.13018 0.87526 0.32214 0.0
H1165 H 0.14306 0.90601 0.31897 0.0
O1166 O 0.17289 0.84595 0.30839 0.0
O1167 O 0.18165 0.83437 0.33541 0.0
O1168 O 0.1857 0.85772 0.35322 0.0
O1169 O 0.16242 0.8594 0.34057 0.0
O1170 O 0.1906 0.85771 0.3239 0.0
O1171 O 0.14492 0.81933 0.30945 0.0
O1172 O 0.16111 0.81678 0.37319 0.0
O1173 O 0.15124 0.82789 0.34565 0.0
O1174 O 0.14808 0.80498 0.32768 0.0
O1175 O 0.17136 0.80362 0.34056 0.0
O1176 O 0.1423 0.80503 0.35743 0.0
O1177 O 0.18605 0.84567 0.3707 0.0
C1178 C 0.19664 0.84873 0.33099 0.0
C1179 C 0.11058 0.87107 0.32273 0.0
C1180 C 0.09537 0.8519 0.3241 0.0
C1181 C 0.15892 0.83143 0.30222 0.0
C1182 C 0.15297 0.83635 0.29043 0.0
C1183 C 0.14177 0.84558 0.29037 0.0
C1184 C 0.15956 0.83277 0.27911 0.0
C1185 C 0.15538 0.83879 0.26779 0.0
C1186 C 0.13747 0.85147 0.27915 0.0
C1187 C 0.14435 0.84824 0.26792 0.0
C1188 C 0.17628 0.86663 0.34928 0.0
C1189 C 0.13621 0.81378 0.35023 0.0
C1190 C 0.17347 0.83324 0.37851 0.0
C1191 C 0.18128 0.83228 0.39075 0.0
C1192 C 0.19743 0.82941 0.39186 0.0
C1193 C 0.17278 0.83494 0.40149 0.0
C1194 C 0.18056 0.83511 0.41333 0.0
C1195 C 0.20514 0.82942 0.4036 0.0
C1196 C 0.19685 0.83237 0.41429 0.0
C1197 C 0.15745 0.79613 0.33188 0.0
H1198 H 0.13653 0.84841 0.29898 0.0
H1199 H 0.16836 0.82577 0.27915 0.0
H1200 H 0.12889 0.85867 0.27917 0.0
H1201 H 0.14087 0.85295 0.25932 0.0
H1202 H 0.20418 0.82737 0.38369 0.0
H1203 H 0.16043 0.83738 0.40061 0.0
H1204 H 0.21764 0.82725 0.40442 0.0
H1205 H 0.20307 0.83236 0.42332 0.0
Gd1206 Gd 0.84368 0.68007 0.68781 0.0
Gd1207 Gd 0.82491 0.65349 0.65766 0.0
C1208 C 0.76399 0.59974 0.6535 0.0
C1209 C 0.77203 0.57454 0.64926 0.0
C1210 C 0.79802 0.60798 0.65209 0.0
C1211 C 0.78422 0.61354 0.65408 0.0
C1212 C 0.79213 0.58848 0.64943 0.0
C1213 C 0.75798 0.58016 0.6513 0.0
C1214 C 0.75042 0.60608 0.65491 0.0
C1215 C 0.75717 0.62582 0.65646 0.0
N1216 N 0.79059 0.63257 0.65618 0.0
C1217 C 0.77739 0.63895 0.6569 0.0
H1218 H 0.78226 0.6541 0.65816 0.0
C1219 C 0.83142 0.61738 0.64923 0.0
N1220 N 0.81726 0.62182 0.65232 0.0
C1221 C 0.82634 0.59823 0.64658 0.0
C1222 C 0.80661 0.58366 0.64681 0.0
H1223 H 0.8467 0.62856 0.64915 0.0
H1224 H 0.7425 0.56932 0.65093 0.0
H1225 H 0.88707 0.68135 0.68725 0.0
H1226 H 0.73475 0.59594 0.65459 0.0
H1227 H 0.74681 0.63093 0.65735 0.0
H1228 H 0.7672 0.55945 0.64734 0.0
H1229 H 0.82037 0.7034 0.69698 0.0
H1230 H 0.93304 0.74047 0.6897 0.0
H1231 H 0.92235 0.70567 0.68757 0.0
H1232 H 0.89826 0.7747 0.69705 0.0
H1233 H 0.83763 0.59471 0.6444 0.0
H1234 H 0.8027 0.56884 0.64474 0.0
H1235 H 0.92389 0.76619 0.69312 0.0
H1236 H 0.82818 0.7369 0.70164 0.0
N1237 N 0.87771 0.70211 0.68887 0.0
C1238 C 0.9175 0.72984 0.68959 0.0
C1239 C 0.91153 0.71021 0.68841 0.0
C1240 C 0.90335 0.73545 0.69098 0.0
C1241 C 0.88332 0.72103 0.69068 0.0
C1242 C 0.89147 0.69644 0.68825 0.0
N1243 N 0.84995 0.71138 0.69297 0.0
C1244 C 0.86896 0.72583 0.69282 0.0
C1245 C 0.83978 0.734 0.69912 0.0
C1246 C 0.8592 0.74917 0.69841 0.0
C1247 C 0.83542 0.71505 0.6965 0.0
C1248 C 0.87413 0.74516 0.69541 0.0
H1249 H 0.86255 0.76383 0.70046 0.0
O1250 O 0.82857 0.67274 0.70554 0.0
O1251 O 0.81927 0.65542 0.67766 0.0
O1252 O 0.81643 0.67654 0.66094 0.0
O1253 O 0.83981 0.69964 0.67454 0.0
O1254 O 0.81135 0.66964 0.69039 0.0
O1255 O 0.85562 0.67213 0.70358 0.0
O1256 O 0.83816 0.65744 0.63936 0.0
O1257 O 0.84946 0.67775 0.66788 0.0
O1258 O 0.85232 0.65709 0.68467 0.0
O1259 O 0.82884 0.63407 0.67106 0.0
O1260 O 0.85717 0.6635 0.65508 0.0
O1261 O 0.81656 0.66618 0.64275 0.0
C1262 C 0.80472 0.65527 0.68265 0.0
C1263 C 0.894 0.75972 0.69521 0.0
C1264 C 0.90859 0.75488 0.69298 0.0
C1265 C 0.84181 0.67018 0.71114 0.0
C1266 C 0.84805 0.67921 0.72357 0.0
C1267 C 0.85843 0.69939 0.72488 0.0
C1268 C 0.84288 0.66757 0.73426 0.0
C1269 C 0.84785 0.67606 0.74631 0.0
C1270 C 0.86329 0.70793 0.73669 0.0
C1271 C 0.85794 0.69644 0.7473 0.0
C1272 C 0.82637 0.69438 0.6656 0.0
C1273 C 0.86394 0.6778 0.66288 0.0
C1274 C 0.82789 0.66457 0.63458 0.0
C1275 C 0.81914 0.65733 0.62218 0.0
C1276 C 0.80237 0.639 0.62076 0.0
C1277 C 0.82716 0.66922 0.61171 0.0
C1278 C 0.8182 0.66299 0.59989 0.0
C1279 C 0.79354 0.63268 0.60905 0.0
C1280 C 0.80129 0.6446 0.5987 0.0
C1281 C 0.84239 0.6393 0.67992 0.0
H1282 H 0.86254 0.70855 0.71679 0.0
H1283 H 0.83506 0.65198 0.73312 0.0
H1284 H 0.87107 0.72355 0.73764 0.0
H1285 H 0.86149 0.70366 0.7563 0.0
H1286 H 0.79603 0.62969 0.62871 0.0
H1287 H 0.84006 0.68345 0.61283 0.0
H1288 H 0.78057 0.61853 0.608 0.0
H1289 H 0.79418 0.63934 0.58971 0.0
Gd1290 Gd 0.32026 0.16024 0.68962 0.0
Gd1291 Gd 0.34989 0.17496 0.66111 0.0
C1292 C 0.406 0.17197 0.6567 0.0
C1293 C 0.43102 0.20601 0.65585 0.0
C1294 C 0.39662 0.19656 0.65823 0.0
C1295 C 0.39148 0.17727 0.65818 0.0
C1296 C 0.41639 0.21115 0.65677 0.0
C1297 C 0.42584 0.18645 0.6558 0.0
C1298 C 0.40009 0.1523 0.65579 0.0
C1299 C 0.38012 0.13849 0.65619 0.0
N1300 N 0.37218 0.16365 0.65896 0.0
C1301 C 0.36628 0.14445 0.65766 0.0
H1302 H 0.3509 0.13362 0.65791 0.0
C1303 C 0.38609 0.21961 0.65727 0.0
N1304 N 0.38208 0.201 0.65888 0.0
C1305 C 0.4055 0.23461 0.65592 0.0
C1306 C 0.42075 0.23039 0.65583 0.0
H1307 H 0.37433 0.22291 0.65735 0.0
H1308 H 0.43722 0.18266 0.65477 0.0
H1309 H 0.31829 0.20117 0.69171 0.0
H1310 H 0.41078 0.14767 0.65445 0.0
H1311 H 0.37532 0.12325 0.65529 0.0
H1312 H 0.44632 0.21701 0.65483 0.0
H1313 H 0.29674 0.11241 0.69416 0.0
H1314 H 0.25847 0.18638 0.69681 0.0
H1315 H 0.29353 0.21112 0.69454 0.0
H1316 H 0.22462 0.11728 0.69995 0.0
H1317 H 0.40867 0.24939 0.65495 0.0
H1318 H 0.43576 0.24202 0.65471 0.0
H1319 H 0.23297 0.15137 0.69907 0.0
H1320 H 0.26304 0.08585 0.69802 0.0
N1321 N 0.29745 0.171 0.69165 0.0
C1322 C 0.26927 0.1819 0.69539 0.0
C1323 C 0.28904 0.1959 0.69415 0.0
C1324 C 0.26378 0.1623 0.69525 0.0
C1325 C 0.27839 0.15723 0.69329 0.0
C1326 C 0.30304 0.19016 0.69249 0.0
N1327 N 0.28845 0.134 0.69285 0.0
C1328 C 0.27373 0.13811 0.69389 0.0
C1329 C 0.26583 0.10047 0.69685 0.0
C1330 C 0.25042 0.10439 0.69763 0.0
C1331 C 0.28491 0.11557 0.69465 0.0
C1332 C 0.25432 0.12344 0.69638 0.0
H1333 H 0.2357 0.09271 0.69951 0.0
O1334 O 0.32531 0.14924 0.7068 0.0
O1335 O 0.34659 0.16313 0.68009 0.0
O1336 O 0.32598 0.14303 0.66064 0.0
O1337 O 0.30153 0.13972 0.67437 0.0
O1338 O 0.33063 0.13845 0.69025 0.0
O1339 O 0.32749 0.17743 0.70665 0.0
O1340 O 0.34656 0.18746 0.64406 0.0
O1341 O 0.32346 0.17158 0.67055 0.0
O1342 O 0.34356 0.19229 0.68971 0.0
O1343 O 0.36832 0.19502 0.67662 0.0
O1344 O 0.33861 0.19619 0.66041 0.0
O1345 O 0.34345 0.15885 0.64365 0.0
C1346 C 0.34614 0.14786 0.6836 0.0
C1347 C 0.23962 0.12834 0.69802 0.0
C1348 C 0.24437 0.14775 0.69752 0.0
C1349 C 0.32799 0.16416 0.71339 0.0
C1350 C 0.31783 0.15992 0.72537 0.0
C1351 C 0.29727 0.14898 0.72596 0.0
C1352 C 0.32898 0.16628 0.7364 0.0
C1353 C 0.31968 0.16129 0.74801 0.0
C1354 C 0.28795 0.14417 0.73749 0.0
C1355 C 0.29909 0.15014 0.74848 0.0
C1356 C 0.30762 0.13362 0.66479 0.0
C1357 C 0.32311 0.1864 0.66702 0.0
C1358 C 0.34415 0.17292 0.63714 0.0
C1359 C 0.35559 0.17789 0.62562 0.0
C1360 C 0.37614 0.18928 0.62589 0.0
C1361 C 0.34572 0.17161 0.61414 0.0
C1362 C 0.35621 0.17698 0.60289 0.0
C1363 C 0.38669 0.19452 0.61483 0.0
C1364 C 0.37684 0.18855 0.60339 0.0
C1365 C 0.36212 0.20129 0.68602 0.0
H1366 H 0.28845 0.14399 0.71757 0.0
H1367 H 0.3449 0.17463 0.73597 0.0
H1368 H 0.27208 0.13564 0.7379 0.0
H1369 H 0.29163 0.14614 0.75735 0.0
H1370 H 0.38402 0.19431 0.6346 0.0
H1371 H 0.32985 0.16255 0.61402 0.0
H1372 H 0.40255 0.20346 0.61511 0.0
H1373 H 0.38541 0.19331 0.59496 0.0
Gd1374 Gd 0.82872 0.17637 0.65764 0.0
Gd1375 Gd 0.84437 0.16242 0.68642 0.0
C1376 C 0.90245 0.1624 0.68802 0.0
C1377 C 0.89138 0.12808 0.6897 0.0
C1378 C 0.86765 0.13914 0.68892 0.0
C1379 C 0.8827 0.15805 0.68787 0.0
C1380 C 0.87179 0.12395 0.69012 0.0
C1381 C 0.90669 0.14728 0.68864 0.0
C1382 C 0.91732 0.18184 0.68789 0.0
C1383 C 0.91229 0.19634 0.68812 0.0
N1384 N 0.87804 0.17227 0.68738 0.0
C1385 C 0.89247 0.19126 0.68804 0.0
H1386 H 0.88882 0.20262 0.68813 0.0
C1387 C 0.8337 0.11759 0.69175 0.0
N1388 N 0.84895 0.13573 0.68935 0.0
C1389 C 0.83703 0.10201 0.69294 0.0
C1390 C 0.85614 0.10516 0.69197 0.0
H1391 H 0.81888 0.11505 0.69237 0.0
H1392 H 0.92177 0.15032 0.68862 0.0
H1393 H 0.78401 0.13682 0.65583 0.0
H1394 H 0.93267 0.18581 0.68794 0.0
H1395 H 0.92367 0.21142 0.68828 0.0
H1396 H 0.89487 0.11659 0.69047 0.0
H1397 H 0.85568 0.22393 0.65229 0.0
H1398 H 0.74145 0.1548 0.65137 0.0
H1399 H 0.74963 0.12867 0.65328 0.0
H1400 H 0.78049 0.22383 0.64952 0.0
H1401 H 0.82486 0.08759 0.69455 0.0
H1402 H 0.85869 0.09308 0.69291 0.0
H1403 H 0.75299 0.1903 0.65056 0.0
H1404 H 0.85062 0.25171 0.64897 0.0
N1405 N 0.79537 0.16728 0.6558 0.0
C1406 C 0.75658 0.15844 0.65273 0.0
C1407 C 0.76114 0.14368 0.65372 0.0
C1408 C 0.77169 0.17776 0.65304 0.0
C1409 C 0.79122 0.18176 0.65446 0.0
C1410 C 0.78072 0.14838 0.65514 0.0
N1411 N 0.82522 0.20362 0.65433 0.0
C1412 C 0.80664 0.20055 0.65378 0.0
C1413 C 0.83812 0.23741 0.65036 0.0
C1414 C 0.81909 0.23461 0.65028 0.0
C1415 C 0.84093 0.22163 0.65223 0.0
C1416 C 0.80303 0.21596 0.65179 0.0
H1417 H 0.81695 0.24684 0.64875 0.0
O1418 O 0.84455 0.18606 0.64026 0.0
O1419 O 0.85172 0.17253 0.66702 0.0
O1420 O 0.85464 0.19467 0.68576 0.0
O1421 O 0.83274 0.19787 0.67259 0.0
O1422 O 0.86154 0.19668 0.6562 0.0
O1423 O 0.81708 0.15882 0.64082 0.0
O1424 O 0.83065 0.15172 0.70437 0.0
O1425 O 0.82115 0.16587 0.67701 0.0
O1426 O 0.81778 0.14403 0.65839 0.0
O1427 O 0.83966 0.14067 0.67145 0.0
O1428 O 0.81154 0.14224 0.68829 0.0
O1429 O 0.85534 0.18091 0.70282 0.0
C1430 C 0.86703 0.18695 0.66297 0.0
C1431 C 0.78358 0.21217 0.65096 0.0
C1432 C 0.76792 0.19309 0.65155 0.0
C1433 C 0.83124 0.17135 0.63386 0.0
C1434 C 0.82552 0.17592 0.62189 0.0
C1435 C 0.81525 0.18607 0.62144 0.0
C1436 C 0.83094 0.17055 0.61077 0.0
C1437 C 0.82636 0.17547 0.59914 0.0
C1438 C 0.81063 0.19101 0.60999 0.0
C1439 C 0.81621 0.18586 0.59892 0.0
C1440 C 0.84586 0.2042 0.68177 0.0
C1441 C 0.80589 0.15157 0.68125 0.0
C1442 C 0.84309 0.16753 0.71029 0.0
C1443 C 0.85153 0.16511 0.72191 0.0
C1444 C 0.86655 0.16049 0.72167 0.0
C1445 C 0.84483 0.16798 0.73339 0.0
C1446 C 0.8533 0.16656 0.74463 0.0
C1447 C 0.87493 0.15893 0.73278 0.0
C1448 C 0.86843 0.16203 0.7442 0.0
C1449 C 0.82648 0.13441 0.66231 0.0
H1450 H 0.81095 0.1903 0.62989 0.0
H1451 H 0.83862 0.16245 0.61123 0.0
H1452 H 0.80285 0.199 0.60969 0.0
H1453 H 0.81279 0.19029 0.59019 0.0
H1454 H 0.87189 0.15823 0.71293 0.0
H1455 H 0.83332 0.17173 0.73356 0.0
H1456 H 0.88654 0.15538 0.73254 0.0
H1457 H 0.87511 0.16069 0.7527 0.0
H1458 H 0.29781 0.87788 0.05494 0.0
H1459 H 0.32752 0.90063 0.04376 0.0
H1460 H 0.35554 0.86831 0.05484 0.0
H1461 H 0.32624 0.84596 0.06634 0.0
H1462 H 0.37973 0.90603 0.05819 0.0
H1463 H 0.33706 0.86507 0.02513 0.0
H1464 H 0.30673 0.84943 0.01238 0.0
H1465 H 0.31575 0.90519 1.00205 0.0
H1466 H 0.34602 0.92116 0.01488 0.0
H1467 H 0.45951 0.93743 0.01907 0.0
H1468 H 0.42598 0.91611 0.02626 0.0
H1469 H 0.41125 0.96029 0.01834 0.0
H1470 H 0.44504 0.98182 0.0112 0.0
H1471 H 0.37981 0.91945 0.01311 0.0
H1472 H 0.42314 0.96035 0.04569 0.0
H1473 H 0.45353 0.97579 0.05838 0.0
H1474 H 0.44314 0.9199 0.06957 0.0
H1475 H 0.4128 0.90411 0.0568 0.0
C1476 C 0.31036 0.87571 0.05507 0.0
C1477 C 0.3096 0.86004 0.06152 0.0
C1478 C 0.32726 0.88861 0.04857 0.0
C1479 C 0.34371 0.88607 0.04834 0.0
C1480 C 0.34302 0.87054 0.05484 0.0
C1481 C 0.32617 0.85766 0.06133 0.0
C1482 C 0.36189 0.89976 0.04162 0.0
C1483 C 0.37971 0.9088 0.04831 0.0
C1484 C 0.36185 0.90388 0.0288 0.0
C1485 C 0.34367 0.8943 0.02108 0.0
C1486 C 0.33249 0.87399 0.02023 0.0
C1487 C 0.31532 0.86507 0.01297 0.0
C1488 C 0.30928 0.87631 0.00644 0.0
C1489 C 0.32043 0.8965 0.00713 0.0
C1490 C 0.33759 0.90549 0.01439 0.0
C1491 C 0.44892 0.94233 0.01851 0.0
C1492 C 0.45468 0.96109 0.01447 0.0
C1493 C 0.42983 0.93021 0.02264 0.0
C1494 C 0.41625 0.93673 0.02295 0.0
C1495 C 0.42154 0.95501 0.01814 0.0
C1496 C 0.44077 0.96724 0.01403 0.0
C1497 C 0.39751 0.92526 0.02966 0.0
C1498 C 0.37968 0.91674 0.023 0.0
C1499 C 0.39747 0.92159 0.04253 0.0
C1500 C 0.41577 0.93104 0.05019 0.0
C1501 C 0.42743 0.95135 0.05075 0.0
C1502 C 0.44463 0.96016 0.05798 0.0
C1503 C 0.45028 0.94883 0.06476 0.0
C1504 C 0.43876 0.92866 0.0643 0.0
C1505 C 0.42153 0.91977 0.05709 0.0
H1506 H 0.46353 0.95565 0.07041 0.0
H1507 H 0.29599 0.86937 1.00082 0.0
H1508 H 0.17255 0.48349 0.05321 0.0
H1509 H 0.14734 0.48859 0.04347 0.0
H1510 H 0.10392 0.44737 0.06829 0.0
H1511 H 0.12909 0.44301 0.07866 0.0
H1512 H 0.09462 0.44217 0.04087 0.0
H1513 H 0.11614 0.48937 0.07454 0.0
H1514 H 0.14096 0.51737 0.08673 0.0
H1515 H 0.15665 0.55275 0.05413 0.0
H1516 H 0.13211 0.52485 0.04171 0.0
H1517 H 0.01163 0.45123 0.0278 0.0
H1518 H 0.03841 0.44759 0.03608 0.0
H1519 H 0.07998 0.50594 0.02495 0.0
H1520 H 0.05271 0.51033 0.0183 0.0
H1521 H 0.09206 0.50284 0.04466 0.0
H1522 H 0.07472 0.45723 0.01017 0.0
H1523 H 0.05326 0.42944 0.99644 0.0
H1524 H 0.03262 0.39217 0.02813 0.0
H1525 H 0.05417 0.41965 0.04196 0.0
C1526 C 0.15776 0.47575 0.05682 0.0
C1527 C 0.15304 0.46275 0.06678 0.0
C1528 C 0.14332 0.4786 0.05114 0.0
C1529 C 0.12377 0.46833 0.05514 0.0
C1530 C 0.11892 0.45535 0.06501 0.0
C1531 C 0.13339 0.45276 0.07086 0.0
C1532 C 0.10823 0.47077 0.04889 0.0
C1533 C 0.09391 0.45537 0.04173 0.0
C1534 C 0.10774 0.4882 0.04969 0.0
C1535 C 0.12246 0.50496 0.05717 0.0
C1536 C 0.12503 0.50306 0.06994 0.0
C1537 C 0.13901 0.51893 0.0769 0.0
C1538 C 0.15042 0.53682 0.0712 0.0
C1539 C 0.14783 0.53888 0.05853 0.0
C1540 C 0.13388 0.52305 0.05153 0.0
C1541 C 0.02653 0.46321 0.02698 0.0
C1542 C 0.03007 0.48084 0.02193 0.0
C1543 C 0.042 0.46101 0.03155 0.0
C1544 C 0.06162 0.47617 0.0308 0.0
C1545 C 0.06514 0.49383 0.02563 0.0
C1546 C 0.04953 0.49628 0.02156 0.0
C1547 C 0.07814 0.47419 0.03634 0.0
C1548 C 0.09271 0.48966 0.04351 0.0
C1549 C 0.07915 0.45692 0.03529 0.0
C1550 C 0.06578 0.44053 0.02707 0.0
C1551 C 0.06541 0.44314 0.01418 0.0
C1552 C 0.05333 0.42744 0.00639 0.0
C1553 C 0.04144 0.40911 0.01143 0.0
C1554 C 0.04177 0.40639 0.02424 0.0
C1555 C 0.05399 0.42199 0.03205 0.0
H1556 H 0.03206 0.397 0.00538 0.0
H1557 H 0.16123 0.54909 0.0766 0.0
H1558 H 0.53299 0.69723 0.06172 0.0
H1559 H 0.52339 0.66548 0.05293 0.0
H1560 H 0.58419 0.68005 0.05234 0.0
H1561 H 0.59408 0.71242 0.06025 0.0
H1562 H 0.56759 0.66172 0.03214 0.0
H1563 H 0.55049 0.6499 0.07511 0.0
H1564 H 0.53498 0.65094 0.09479 0.0
H1565 H 0.47791 0.61907 0.07756 0.0
H1566 H 0.49311 0.61807 0.05772 0.0
H1567 H 0.54751 0.56371 0.02753 0.0
H1568 H 0.55713 0.59574 0.03629 0.0
H1569 H 0.50056 0.58821 0.02608 0.0
H1570 H 0.49091 0.55635 0.01711 0.0
H1571 H 0.51505 0.60233 0.05185 0.0
H1572 H 0.53403 0.61464 0.0086 0.0
H1573 H 0.5509 0.61255 0.98985 0.0
H1574 H 0.60643 0.64272 0.00908 0.0
H1575 H 0.58986 0.64472 0.02803 0.0
C1576 C 0.5444 0.69387 0.05955 0.0
C1577 C 0.56435 0.70749 0.06175 0.0
C1578 C 0.53883 0.67553 0.05469 0.0
C1579 C 0.55302 0.67017 0.0522 0.0
C1580 C 0.57294 0.68377 0.05426 0.0
C1581 C 0.57856 0.70224 0.05893 0.0
C1582 C 0.5471 0.65049 0.04732 0.0
C1583 C 0.55629 0.64877 0.03658 0.0
C1584 C 0.53215 0.63349 0.05298 0.0
C1585 C 0.52296 0.63408 0.06489 0.0
C1586 C 0.53465 0.64325 0.07549 0.0
C1587 C 0.5259 0.64381 0.08668 0.0
C1588 C 0.50547 0.63512 0.08742 0.0
C1589 C 0.49373 0.62582 0.07697 0.0
C1590 C 0.5024 0.62524 0.06576 0.0
C1591 C 0.53709 0.56884 0.0272 0.0
C1592 C 0.51848 0.55756 0.02161 0.0
C1593 C 0.54263 0.58712 0.03217 0.0
C1594 C 0.52954 0.59425 0.03179 0.0
C1595 C 0.51082 0.58288 0.02646 0.0
C1596 C 0.50539 0.56475 0.0213 0.0
C1597 C 0.53553 0.61376 0.03676 0.0
C1598 C 0.52636 0.61538 0.04749 0.0
C1599 C 0.55069 0.63062 0.03123 0.0
C1600 C 0.56068 0.62965 0.01978 0.0
C1601 C 0.54982 0.62068 0.00887 0.0
C1602 C 0.55932 0.61953 0.9982 0.0
C1603 C 0.57971 0.62744 0.99828 0.0
C1604 C 0.59064 0.63657 0.00903 0.0
C1605 C 0.5812 0.63773 0.01974 0.0
H1606 H 0.58704 0.62654 0.99001 0.0
H1607 H 0.49873 0.63557 0.09609 0.0
H1608 H 0.87707 0.3083 0.9326 0.0
H1609 H 0.90096 0.339 0.94238 0.0
H1610 H 0.85796 0.33274 0.96949 0.0
H1611 H 0.83418 0.30157 0.96021 0.0
H1612 H 0.87958 0.3707 0.95785 0.0
H1613 H 0.89046 0.32308 0.97871 0.0
H1614 H 0.89735 0.29614 0.97925 0.0
H1615 H 0.95191 0.33099 0.96041 0.0
H1616 H 0.9452 0.35806 0.9596 0.0
H1617 H 0.93734 0.44293 1.00125 0.0
H1618 H 0.91498 0.41176 0.99167 0.0
H1619 H 0.96319 0.41349 0.97147 0.0
H1620 H 0.98599 0.44419 0.98174 0.0
H1621 H 0.93958 0.37804 0.97859 0.0
H1622 H 0.93116 0.42599 0.95827 0.0
H1623 H 0.9263 0.45411 0.95768 0.0
H1624 H 0.86871 0.42011 0.97312 0.0
H1625 H 0.87358 0.39191 0.97435 0.0
C1626 C 0.87269 0.31324 0.94075 0.0
C1627 C 0.85362 0.30227 0.94562 0.0
C1628 C 0.88636 0.3309 0.94625 0.0
C1629 C 0.88121 0.33809 0.95665 0.0
C1630 C 0.86216 0.32746 0.96142 0.0
C1631 C 0.84855 0.30966 0.95604 0.0
C1632 C 0.89583 0.35653 0.96273 0.0
C1633 C 0.89259 0.37229 0.96251 0.0
C1634 C 0.91312 0.35873 0.9684 0.0
C1635 C 0.91723 0.34252 0.96898 0.0
C1636 C 0.90384 0.32494 0.97459 0.0
C1637 C 0.90773 0.30966 0.97497 0.0
C1638 C 0.92503 0.31183 0.96984 0.0
C1639 C 0.93851 0.32932 0.96436 0.0
C1640 C 0.93468 0.34464 0.96395 0.0
C1641 C 0.94335 0.43654 0.99502 0.0
C1642 C 0.96356 0.44606 0.99241 0.0
C1643 C 0.93044 0.41877 0.98938 0.0
C1644 C 0.93731 0.41039 0.98065 0.0
C1645 C 0.95752 0.41967 0.97816 0.0
C1646 C 0.97053 0.4373 0.984 0.0
C1647 C 0.92326 0.39228 0.97389 0.0
C1648 C 0.92662 0.37657 0.97391 0.0
C1649 C 0.90626 0.39026 0.9678 0.0
C1650 C 0.90281 0.40686 0.9665 0.0
C1651 C 0.91748 0.4245 0.96159 0.0
C1652 C 0.91473 0.44048 0.96115 0.0
C1653 C 0.89716 0.43891 0.96531 0.0
C1654 C 0.88231 0.42131 0.96991 0.0
C1655 C 0.88508 0.40532 0.97051 0.0
H1656 H 0.89508 0.45132 0.96498 0.0
H1657 H 0.92801 0.29999 0.97014 0.0
H1658 H 0.70344 0.56944 0.953 0.0
H1659 H 0.67381 0.56466 0.96342 0.0
H1660 H 0.64541 0.5034 0.95548 0.0
H1661 H 0.67477 0.50818 0.9446 0.0
H1662 H 0.62054 0.51607 0.95121 0.0
H1663 H 0.66314 0.52208 0.98496 0.0
H1664 H 0.69377 0.53703 0.99743 0.0
H1665 H 0.68876 0.58766 0.00344 0.0
H1666 H 0.65824 0.57312 0.99086 0.0
H1667 H 0.54056 0.49226 0.99215 0.0
H1668 H 0.57082 0.4943 0.98437 0.0
H1669 H 0.59945 0.55663 0.98536 0.0
H1670 H 0.56913 0.55463 0.99306 0.0
H1671 H 0.62363 0.54143 0.99401 0.0
H1672 H 0.58209 0.53592 0.95916 0.0
H1673 H 0.551 0.52056 0.94715 0.0
H1674 H 0.55381 0.46834 0.94365 0.0
H1675 H 0.58477 0.4833 0.95583 0.0
C1676 C 0.69086 0.55495 0.95335 0.0
C1677 C 0.69161 0.5392 0.94794 0.0
C1678 C 0.67395 0.5522 0.95946 0.0
C1679 C 0.65738 0.53361 0.96043 0.0
C1680 C 0.65799 0.51788 0.95494 0.0
C1681 C 0.6749 0.52062 0.9488 0.0
C1682 C 0.63938 0.53067 0.96701 0.0
C1683 C 0.62122 0.52135 0.96064 0.0
C1684 C 0.64016 0.5378 0.97927 0.0
C1685 C 0.6585 0.54658 0.98686 0.0
C1686 C 0.66865 0.53646 0.98886 0.0
C1687 C 0.68598 0.54485 0.99596 0.0
C1688 C 0.69323 0.5633 1.0012 0.0
C1689 C 0.68314 0.57338 0.99937 0.0
C1690 C 0.66582 0.56506 0.99226 0.0
C1691 C 0.55342 0.50638 0.99098 0.0
C1692 C 0.55261 0.52332 0.99337 0.0
C1693 C 0.57067 0.50753 0.98645 0.0
C1694 C 0.58737 0.52563 0.98423 0.0
C1695 C 0.58677 0.54254 0.98705 0.0
C1696 C 0.56947 0.54138 0.99141 0.0
C1697 C 0.60501 0.52701 0.97816 0.0
C1698 C 0.62303 0.53604 0.98462 0.0
C1699 C 0.6041 0.51959 0.96601 0.0
C1700 C 0.58564 0.51066 0.95852 0.0
C1701 C 0.576 0.52111 0.95591 0.0
C1702 C 0.55841 0.51249 0.94906 0.0
C1703 C 0.55041 0.49347 0.94467 0.0
C1704 C 0.56001 0.48306 0.94708 0.0
C1705 C 0.57758 0.49161 0.95395 0.0
H1706 H 0.5368 0.48683 0.93936 0.0
H1707 H 0.70665 0.56977 0.00669 0.0
H1708 H 0.43147 0.15111 0.97662 0.0
H1709 H 0.43609 0.12754 0.9885 0.0
H1710 H 0.43704 0.09951 0.95417 0.0
H1711 H 0.43167 0.12255 0.94237 0.0
H1712 H 0.41805 0.07322 0.97031 0.0
H1713 H 0.47999 0.13345 0.97094 0.0
H1714 H 0.50201 0.16826 0.97527 0.0
H1715 H 0.48849 0.15899 0.01419 0.0
H1716 H 0.46619 0.12414 0.01006 0.0
H1717 H 0.48673 0.0425 0.97942 0.0
H1718 H 0.47227 0.06252 0.97493 0.0
H1719 H 0.45022 0.05493 0.01236 0.0
H1720 H 0.46389 0.03377 0.01686 0.0
H1721 H 0.47522 0.09742 0.99919 0.0
H1722 H 0.41688 0.03425 0.99724 0.0
H1723 H 0.39832 0.99976 0.9911 0.0
H1724 H 0.4087 0.01529 0.95255 0.0
H1725 H 0.42763 0.04987 0.95847 0.0
C1726 C 0.43256 0.13982 0.97166 0.0
C1727 C 0.43129 0.13865 0.95859 0.0
C1728 C 0.43525 0.1264 0.97844 0.0
C1729 C 0.43722 0.11189 0.97224 0.0
C1730 C 0.4355 0.1105 0.95919 0.0
C1731 C 0.43246 0.12368 0.95244 0.0
C1732 C 0.44181 0.09852 0.97918 0.0
C1733 C 0.43051 0.07856 0.97666 0.0
C1734 C 0.45785 0.10535 0.98768 0.0
C1735 C 0.47124 0.12627 0.99017 0.0
C1736 C 0.4816 0.13887 0.9804 0.0
C1737 C 0.49415 0.15859 0.98282 0.0
C1738 C 0.49659 0.16584 0.99499 0.0
C1739 C 0.48654 0.15336 0.00477 0.0
C1740 C 0.47395 0.13363 0.00239 0.0
C1741 C 0.47872 0.04489 0.98675 0.0
C1742 C 0.4766 0.03657 0.99856 0.0
C1743 C 0.47053 0.05642 0.98414 0.0
C1744 C 0.46023 0.06015 0.99331 0.0
C1745 C 0.45823 0.05221 0.00519 0.0
C1746 C 0.46616 0.04027 0.00777 0.0
C1747 C 0.45168 0.07237 0.9901 0.0
C1748 C 0.46235 0.09211 0.99319 0.0
C1749 C 0.43535 0.06543 0.98193 0.0
C1750 C 0.42377 0.04465 0.97831 0.0
C1751 C 0.41534 0.03031 0.98746 0.0
C1752 C 0.40471 0.01074 0.98402 0.0
C1753 C 0.40231 0.00534 0.97144 0.0
C1754 C 0.41054 0.0195 0.96228 0.0
C1755 C 0.4212 0.03909 0.96568 0.0
H1756 H 0.3941 0.99019 0.9688 0.0
H1757 H 0.50632 0.18111 0.99684 0.0
H1758 H 0.68427 0.12172 0.93527 0.0
H1759 H 0.65438 0.09959 0.94645 0.0
H1760 H 0.67417 0.13849 0.97815 0.0
H1761 H 0.704 0.16078 0.967 0.0
H1762 H 0.65833 0.10098 0.98535 0.0
H1763 H 0.64058 0.13771 0.95799 0.0
H1764 H 0.6375 0.15039 0.93774 0.0
H1765 H 0.60127 0.09238 0.92378 0.0
H1766 H 0.60437 0.07936 0.9439 0.0
H1767 H 0.54607 0.06689 0.99385 0.0
H1768 H 0.5802 0.08933 0.98827 0.0
H1769 H 0.59339 0.04308 0.99113 0.0
H1770 H 0.5594 0.02086 0.99729 0.0
H1771 H 0.59351 0.08394 0.96707 0.0
H1772 H 0.63088 0.05407 0.99337 0.0
H1773 H 0.63789 0.04521 0.01399 0.0
H1774 H 0.63688 0.09379 0.0307 0.0
H1775 H 0.62932 0.10255 0.01021 0.0
C1776 C 0.68223 0.12563 0.94459 0.0
C1777 C 0.69651 0.1431 0.9502 0.0
C1778 C 0.66517 0.11292 0.95099 0.0
C1779 C 0.66196 0.11745 0.96311 0.0
C1780 C 0.67637 0.13465 0.96883 0.0
C1781 C 0.69344 0.14737 0.96245 0.0
C1782 C 0.64333 0.10463 0.96967 0.0
C1783 C 0.64414 0.09725 0.98135 0.0
C1784 C 0.6248 0.09975 0.96449 0.0
C1785 C 0.62287 0.10756 0.95241 0.0
C1786 C 0.63208 0.12766 0.95057 0.0
C1787 C 0.63032 0.13491 0.93912 0.0
C1788 C 0.61925 0.1222 0.92947 0.0
C1789 C 0.60987 0.10221 0.93126 0.0
C1790 C 0.61162 0.09489 0.94268 0.0
C1791 C 0.55652 0.06178 0.99379 0.0
C1792 C 0.55029 0.04232 0.9962 0.0
C1793 C 0.57599 0.07455 0.99056 0.0
C1794 C 0.58951 0.068 0.98932 0.0
C1795 C 0.58351 0.0487 0.99234 0.0
C1796 C 0.56403 0.03596 0.9958 0.0
C1797 C 0.60843 0.08038 0.98286 0.0
C1798 C 0.60766 0.08761 0.9711 0.0
C1799 C 0.62696 0.08517 0.98797 0.0
C1800 C 0.62918 0.0787 1.00038 0.0
C1801 C 0.63182 0.06262 1.00151 0.0
C1802 C 0.63595 0.05766 0.01315 0.0
C1803 C 0.6379 0.06897 0.02365 0.0
C1804 C 0.63541 0.08507 0.02256 0.0
C1805 C 0.63097 0.08989 0.01097 0.0
H1806 H 0.64124 0.0652 0.03263 0.0
H1807 H 0.61789 0.12784 0.92061 0.0
H1808 H 0.83399 0.52185 0.96264 0.0
H1809 H 0.85948 0.51729 0.97255 0.0
H1810 H 0.89645 0.54179 0.94049 0.0
H1811 H 0.87088 0.54605 0.93047 0.0
H1812 H 0.89942 0.51257 0.94778 0.0
H1813 H 0.90313 0.56776 0.96841 0.0
H1814 H 0.89083 0.58611 0.98022 0.0
H1815 H 0.87558 0.5466 0.01063 0.0
H1816 H 0.88755 0.52785 0.99892 0.0
H1817 H 0.99031 0.55085 0.99037 0.0
H1818 H 0.96257 0.55286 0.98149 0.0
H1819 H 0.92733 0.49056 0.98128 0.0
H1820 H 0.95494 0.48852 0.99045 0.0
H1821 H 0.92365 0.53847 0.99033 0.0
H1822 H 0.90178 0.48127 0.95019 0.0
H1823 H 0.91708 0.46727 0.93683 0.0
H1824 H 0.97392 0.51698 0.9437 0.0
H1825 H 0.95892 0.53167 0.95664 0.0
C1826 C 0.84758 0.52633 0.95772 0.0
C1827 C 0.85039 0.53437 0.94577 0.0
C1828 C 0.86218 0.52372 0.9634 0.0
C1829 C 0.88009 0.52941 0.95737 0.0
C1830 C 0.88279 0.53721 0.94536 0.0
C1831 C 0.86813 0.53964 0.93963 0.0
C1832 C 0.8961 0.52749 0.96356 0.0
C1833 C 0.9046 0.51812 0.95711 0.0
C1834 C 0.90323 0.53504 0.97568 0.0
C1835 C 0.89601 0.54628 0.98273 0.0
C1836 C 0.897 0.56289 0.97757 0.0
C1837 C 0.89012 0.57338 0.98425 0.0
C1838 C 0.88237 0.56748 0.99615 0.0
C1839 C 0.88154 0.55112 1.0014 0.0
C1840 C 0.88838 0.54056 0.99475 0.0
C1841 C 0.97653 0.53762 0.9886 0.0
C1842 C 0.97462 0.51958 0.99133 0.0
C1843 C 0.96072 0.53877 0.98355 0.0
C1844 C 0.94291 0.52187 0.9807 0.0
C1845 C 0.94094 0.50378 0.9834 0.0
C1846 C 0.95667 0.50264 0.98871 0.0
C1847 C 0.92668 0.52333 0.9746 0.0
C1848 C 0.91821 0.53265 0.98106 0.0
C1849 C 0.91996 0.51616 0.96238 0.0
C1850 C 0.92922 0.50738 0.95467 0.0
C1851 C 0.91754 0.48924 0.94884 0.0
C1852 C 0.92615 0.48125 0.94126 0.0
C1853 C 0.94648 0.49116 0.9395 0.0
C1854 C 0.9582 0.50923 0.94517 0.0
C1855 C 0.94963 0.51741 0.95262 0.0
H1856 H 0.95314 0.48489 0.9337 0.0
H1857 H 0.87705 0.57563 1.00131 0.0
H1858 H 0.42906 0.30751 0.93519 0.0
H1859 H 0.43696 0.339 0.94402 0.0
H1860 H 0.47078 0.33201 0.97327 0.0
H1861 H 0.4619 0.30003 0.96478 0.0
H1862 H 0.45247 0.34745 0.98289 0.0
H1863 H 0.49202 0.36151 0.94656 0.0
H1864 H 0.49924 0.35996 0.92439 0.0
H1865 H 0.46304 0.38401 0.91414 0.0
H1866 H 0.45539 0.38545 0.93625 0.0
H1867 H 0.51105 0.44708 0.99918 0.0
H1868 H 0.50084 0.41524 0.99023 0.0
H1869 H 0.45488 0.41731 0.96942 0.0
H1870 H 0.46455 0.44902 0.97866 0.0
H1871 H 0.47887 0.40488 0.95559 0.0
H1872 H 0.44114 0.39128 0.99347 0.0
H1873 H 0.43795 0.39483 0.01604 0.0
H1874 H 0.47585 0.3717 0.02364 0.0
H1875 H 0.4795 0.36828 1.0011 0.0
C1876 C 0.4381 0.31274 0.94353 0.0
C1877 C 0.44497 0.30151 0.94931 0.0
C1878 C 0.44273 0.33076 0.94854 0.0
C1879 C 0.45486 0.33814 0.95917 0.0
C1880 C 0.46143 0.3267 0.96505 0.0
C1881 C 0.45641 0.30847 0.96021 0.0
C1882 C 0.46076 0.35778 0.96413 0.0
C1883 C 0.45844 0.35999 0.9769 0.0
C1884 C 0.46839 0.37424 0.95636 0.0
C1885 C 0.47296 0.3734 0.94305 0.0
C1886 C 0.48548 0.36633 0.93957 0.0
C1887 C 0.48967 0.36549 0.92702 0.0
C1888 C 0.48156 0.37183 0.91786 0.0
C1889 C 0.46929 0.37907 0.92124 0.0
C1890 C 0.46503 0.37992 0.93378 0.0
C1891 C 0.49859 0.44072 0.99285 0.0
C1892 C 0.48833 0.45044 0.98988 0.0
C1893 C 0.49289 0.42257 0.98767 0.0
C1894 C 0.47701 0.41391 0.97928 0.0
C1895 C 0.46714 0.42379 0.97593 0.0
C1896 C 0.47268 0.44188 0.98124 0.0
C1897 C 0.47053 0.39434 0.97421 0.0
C1898 C 0.4728 0.39222 0.96147 0.0
C1899 C 0.46331 0.37808 0.98204 0.0
C1900 C 0.46069 0.37963 0.9956 0.0
C1901 C 0.44887 0.38704 0.99996 0.0
C1902 C 0.44697 0.38902 0.01274 0.0
C1903 C 0.45669 0.38349 0.02127 0.0
C1904 C 0.46831 0.37594 0.01702 0.0
C1905 C 0.47028 0.37396 0.00425 0.0
H1906 H 0.45523 0.38507 0.03116 0.0
H1907 H 0.48482 0.37118 0.90814 0.0
H1908 H 0.13017 0.69511 0.07965 0.0
H1909 H 0.10632 0.66419 0.07003 0.0
H1910 H 0.14958 0.67053 0.04296 0.0
H1911 H 0.1731 0.70194 0.05224 0.0
H1912 H 0.11687 0.65672 0.03164 0.0
H1913 H 0.13638 0.63927 0.06919 0.0
H1914 H 0.14267 0.63929 0.09171 0.0
H1915 H 0.08155 0.6177 0.09911 0.0
H1916 H 0.07493 0.6178 0.07663 0.0
H1917 H 0.06908 0.55697 0.01377 0.0
H1918 H 0.09215 0.58818 0.02323 0.0
H1919 H 0.04454 0.58886 0.04258 0.0
H1920 H 0.02114 0.55779 0.03289 0.0
H1921 H 0.07911 0.59853 0.05763 0.0
H1922 H 0.0612 0.61589 0.01854 0.0
H1923 H 0.05676 0.61337 0.99572 0.0
H1924 H 0.11813 0.63294 0.99111 0.0
H1925 H 0.12288 0.6353 0.01393 0.0
C1926 C 0.13454 0.68984 0.07165 0.0
C1927 C 0.15347 0.70081 0.06671 0.0
C1928 C 0.12095 0.67213 0.06619 0.0
C1929 C 0.12621 0.66473 0.05589 0.0
C1930 C 0.14511 0.67584 0.05088 0.0
C1931 C 0.15857 0.69376 0.05619 0.0
C1932 C 0.112 0.6455 0.05032 0.0
C1933 C 0.10883 0.644 0.03736 0.0
C1934 C 0.10128 0.62879 0.0577 0.0
C1935 C 0.1052 0.62874 0.07123 0.0
C1936 C 0.1243 0.63467 0.07563 0.0
C1937 C 0.12792 0.63464 0.08838 0.0
C1938 C 0.11253 0.62855 0.09684 0.0
C1939 C 0.09346 0.62244 0.09255 0.0
C1940 C 0.08977 0.62247 0.0798 0.0
C1941 C 0.06339 0.56381 0.01989 0.0
C1942 C 0.04315 0.55498 0.02237 0.0
C1943 C 0.07666 0.58162 0.02535 0.0
C1944 C 0.07001 0.59087 0.03352 0.0
C1945 C 0.04993 0.58194 0.03627 0.0
C1946 C 0.03658 0.56421 0.03069 0.0
C1947 C 0.08406 0.60996 0.0391 0.0
C1948 C 0.08718 0.61136 0.05201 0.0
C1949 C 0.09507 0.62643 0.03166 0.0
C1950 C 0.09236 0.62566 0.01794 0.0
C1951 C 0.07373 0.61958 0.01266 0.0
C1952 C 0.07116 0.61818 0.99973 0.0
C1953 C 0.08715 0.62297 0.99197 0.0
C1954 C 0.10576 0.62924 0.99713 0.0
C1955 C 0.10841 0.63064 0.01006 0.0
H1956 H 0.08512 0.62183 0.98196 0.0
H1957 H 0.11536 0.62853 0.10671 0.0
H1958 H 0.32805 0.45887 0.08109 0.0
H1959 H 0.35764 0.46457 0.07011 0.0
H1960 H 0.3352 0.47533 0.03625 0.0
H1961 H 0.30584 0.47027 0.04719 0.0
H1962 H 0.34946 0.45053 0.03244 0.0
H1963 H 0.37127 0.51247 0.05217 0.0
H1964 H 0.37702 0.53457 0.0699 0.0
H1965 H 0.41426 0.51636 0.0874 0.0
H1966 H 0.40851 0.49395 0.06984 0.0
H1967 H 0.46321 0.51413 0.01681 0.0
H1968 H 0.43196 0.51047 0.0239 0.0
H1969 H 0.40875 0.44903 0.0278 0.0
H1970 H 0.43951 0.45257 0.02005 0.0
H1971 H 0.41674 0.50055 0.04558 0.0
H1972 H 0.36443 0.42418 0.02859 0.0
H1973 H 0.35709 0.4027 0.01024 0.0
H1974 H 0.37917 0.45177 0.98614 0.0
H1975 H 0.38691 0.47354 0.00445 0.0
C1976 C 0.32947 0.46274 0.07135 0.0
C1977 C 0.3144 0.46408 0.06508 0.0
C1978 C 0.34642 0.46592 0.06507 0.0
C1979 C 0.34872 0.47047 0.05235 0.0
C1980 C 0.33374 0.47176 0.04604 0.0
C1981 C 0.31686 0.46874 0.05233 0.0
C1982 C 0.36655 0.47353 0.04555 0.0
C1983 C 0.36417 0.46151 0.03531 0.0
C1984 C 0.38578 0.48789 0.0492 0.0
C1985 C 0.38931 0.50141 0.05974 0.0
C1986 C 0.38056 0.51307 0.05984 0.0
C1987 C 0.38384 0.52567 0.06985 0.0
C1988 C 0.39596 0.52684 0.07978 0.0
C1989 C 0.40486 0.51543 0.07971 0.0
C1990 C 0.40161 0.50279 0.06973 0.0
C1991 C 0.45118 0.49977 0.0187 0.0
C1992 C 0.45368 0.48357 0.01757 0.0
C1993 C 0.43334 0.49768 0.02292 0.0
C1994 C 0.41771 0.47941 0.02629 0.0
C1995 C 0.42017 0.46321 0.02493 0.0
C1996 C 0.43788 0.46526 0.02059 0.0
C1997 C 0.39972 0.47754 0.03239 0.0
C1998 C 0.40206 0.48967 0.04262 0.0
C1999 C 0.38041 0.46331 0.02872 0.0
C2000 C 0.37654 0.45046 0.01781 0.0
C2001 C 0.36784 0.43036 0.01937 0.0
C2002 C 0.36366 0.41816 0.009 0.0
C2003 C 0.36783 0.4259 0.99704 0.0
C2004 C 0.37619 0.44585 0.99542 0.0
C2005 C 0.38063 0.45813 0.00578 0.0
H2006 H 0.36448 0.41644 0.98901 0.0
H2007 H 0.39849 0.5366 0.08752 0.0
H2008 H 0.54779 0.85906 0.06125 0.0
H2009 H 0.53993 0.87963 0.04874 0.0
H2010 H 0.594 0.90011 0.02855 0.0
H2011 H 0.60249 0.88015 0.04151 0.0
H2012 H 0.58825 0.92947 0.03416 0.0
H2013 H 0.54968 0.86772 0.01495 0.0
H2014 H 0.52675 0.83251 0.01387 0.0
H2015 H 0.48108 0.8405 0.0295 0.0
H2016 H 0.5038 0.87574 0.03086 0.0
H2017 H 0.54825 0.97684 0.99579 0.0
H2018 H 0.56106 0.95494 1.00054 0.0
H2019 H 0.51944 0.93012 0.0304 0.0
H2020 H 0.50693 0.9519 0.02587 0.0
H2021 H 0.52212 0.90238 0.01469 0.0
H2022 H 0.5641 0.96141 0.03954 0.0
H2023 H 0.58673 0.99661 0.04155 0.0
H2024 H 0.62491 0.9932 0.01441 0.0
H2025 H 0.60259 0.95785 0.01243 0.0
C2026 C 0.55817 0.86809 0.05426 0.0
C2027 C 0.57581 0.86794 0.05242 0.0
C2028 C 0.5535 0.87965 0.04697 0.0
C2029 C 0.56618 0.89113 0.03752 0.0
C2030 C 0.58391 0.89123 0.03571 0.0
C2031 C 0.58867 0.87971 0.04307 0.0
C2032 C 0.56096 0.90336 0.02984 0.0
C2033 C 0.57399 0.92344 0.02961 0.0
C2034 C 0.54232 0.89559 0.02394 0.0
C2035 C 0.5285 0.87439 0.02305 0.0
C2036 C 0.53478 0.86197 0.01822 0.0
C2037 C 0.52181 0.842 0.01756 0.0
C2038 C 0.50248 0.83428 0.02163 0.0
C2039 C 0.49606 0.84651 0.02635 0.0
C2040 C 0.50897 0.86649 0.02705 0.0
C2041 C 0.54182 0.96658 0.00329 0.0
C2042 C 0.52675 0.96611 0.01053 0.0
C2043 C 0.54913 0.95416 0.006 0.0
C2044 C 0.54116 0.94096 0.01582 0.0
C2045 C 0.52574 0.94016 0.02277 0.0
C2046 C 0.51871 0.9527 0.02022 0.0
C2047 C 0.54913 0.92834 0.01941 0.0
C2048 C 0.53661 0.90822 0.01889 0.0
C2049 C 0.5682 0.93601 0.02456 0.0
C2050 C 0.58166 0.95712 0.02577 0.0
C2051 C 0.5773 0.96821 0.03398 0.0
C2052 C 0.59007 0.98816 0.03513 0.0
C2053 C 0.60717 0.99718 0.02803 0.0
C2054 C 0.61164 0.98621 0.01988 0.0
C2055 C 0.59899 0.9662 0.01878 0.0
H2056 H 0.61699 0.01265 0.02888 0.0
H2057 H 0.49246 0.81881 0.02111 0.0
H2058 H 0.9698 0.20244 0.39302 0.0
H2059 H 0.999 0.22607 0.38203 0.0
H2060 H 0.02649 0.19172 0.38865 0.0
H2061 H 0.99771 0.16852 0.40028 0.0
H2062 H 0.05207 0.22813 0.3927 0.0
H2063 H 0.0073 0.19326 0.35953 0.0
H2064 H 0.9761 0.1787 0.34768 0.0
H2065 H 0.98231 0.2349 0.34297 0.0
H2066 H 0.01343 0.24978 0.35495 0.0
H2067 H 0.12993 0.28325 0.35082 0.0
H2068 H 0.09956 0.2552 0.35801 0.0
H2069 H 0.07254 0.29063 0.36119 0.0
H2070 H 0.10302 0.31879 0.3541 0.0
H2071 H 0.04737 0.25166 0.35087 0.0
H2072 H 0.09055 0.28542 0.38607 0.0
H2073 H 0.1221 0.29967 0.39756 0.0
H2074 H 0.11913 0.24445 0.39755 0.0
H2075 H 0.08761 0.2299 0.38598 0.0
C2076 C 0.98211 0.19997 0.39227 0.0
C2077 C 0.98133 0.18351 0.39756 0.0
C2078 C 0.99873 0.21339 0.38581 0.0
C2079 C 0.01486 0.21054 0.3843 0.0
C2080 C 0.01419 0.19419 0.38961 0.0
C2081 C 0.99762 0.18082 0.39616 0.0
C2082 C 0.0326 0.22492 0.37748 0.0
C2083 C 0.05103 0.23298 0.38347 0.0
C2084 C 0.03132 0.2315 0.36547 0.0
C2085 C 0.01262 0.22262 0.35824 0.0
C2086 C 0.00195 0.2025 0.35605 0.0
C2087 C 0.98429 0.19419 0.3493 0.0
C2088 C 0.97721 0.20586 0.3446 0.0
C2089 C 0.9878 0.22587 0.34662 0.0
C2090 C 0.00547 0.23426 0.35338 0.0
C2091 C 0.11736 0.28492 0.35272 0.0
C2092 C 0.11865 0.30308 0.35175 0.0
C2093 C 0.10007 0.26894 0.35691 0.0
C2094 C 0.08389 0.27092 0.36017 0.0
C2095 C 0.08487 0.28883 0.35866 0.0
C2096 C 0.10223 0.30486 0.35465 0.0
C2097 C 0.06654 0.25484 0.36617 0.0
C2098 C 0.04829 0.24655 0.36005 0.0
C2099 C 0.06798 0.24793 0.378 0.0
C2100 C 0.08683 0.25661 0.38506 0.0
C2101 C 0.0967 0.27635 0.38845 0.0
C2102 C 0.11455 0.28447 0.395 0.0
C2103 C 0.12263 0.27298 0.39827 0.0
C2104 C 0.11286 0.25333 0.395 0.0
C2105 C 0.09498 0.24513 0.38848 0.0
H2106 H 0.13642 0.27927 0.40337 0.0
H2107 H 0.96353 0.1994 0.33937 0.0
H2108 H 0.79998 0.7928 0.41379 0.0
H2109 H 0.77517 0.79734 0.40291 0.0
H2110 H 0.81033 0.81358 0.36971 0.0
H2111 H 0.83503 0.80868 0.38047 0.0
H2112 H 0.7756 0.82806 0.39206 0.0
H2113 H 0.77901 0.7958 0.34435 0.0
H2114 H 0.78722 0.77197 0.33573 0.0
H2115 H 0.77239 0.74184 0.3705 0.0
H2116 H 0.76384 0.76532 0.37925 0.0
H2117 H 0.71602 0.84497 0.35 0.0
H2118 H 0.74447 0.84341 0.3579 0.0
H2119 H 0.70864 0.78138 0.36093 0.0
H2120 H 0.68036 0.78287 0.35264 0.0
H2121 H 0.74446 0.79068 0.35328 0.0
H2122 H 0.71725 0.81133 0.38634 0.0
H2123 H 0.70608 0.83272 0.39532 0.0
H2124 H 0.76416 0.88166 0.39162 0.0
H2125 H 0.77561 0.86057 0.3825 0.0
C2126 C 0.8024 0.79724 0.40415 0.0
C2127 C 0.81947 0.80024 0.39799 0.0
C2128 C 0.78828 0.80002 0.39797 0.0
C2129 C 0.79077 0.80568 0.38545 0.0
C2130 C 0.80796 0.80905 0.37934 0.0
C2131 C 0.82215 0.80636 0.38553 0.0
C2132 C 0.7751 0.80748 0.37872 0.0
C2133 C 0.76889 0.81996 0.38355 0.0
C2134 C 0.76608 0.79676 0.36769 0.0
C2135 C 0.77104 0.78247 0.36249 0.0
C2136 C 0.77747 0.78407 0.35014 0.0
C2137 C 0.78217 0.77062 0.34523 0.0
C2138 C 0.7804 0.75545 0.35258 0.0
C2139 C 0.77384 0.75365 0.36484 0.0
C2140 C 0.76909 0.76704 0.36978 0.0
C2141 C 0.71435 0.83097 0.35201 0.0
C2142 C 0.69604 0.81398 0.3505 0.0
C2143 C 0.73058 0.8301 0.35667 0.0
C2144 C 0.72868 0.81229 0.36018 0.0
C2145 C 0.71054 0.79528 0.35828 0.0
C2146 C 0.69437 0.79614 0.35357 0.0
C2147 C 0.74508 0.81134 0.36656 0.0
C2148 C 0.75138 0.79898 0.3617 0.0
C2149 C 0.75389 0.82186 0.37769 0.0
C2150 C 0.74724 0.83442 0.38364 0.0
C2151 C 0.72762 0.82666 0.38742 0.0
C2152 C 0.72123 0.83873 0.39251 0.0
C2153 C 0.73437 0.85855 0.39396 0.0
C2154 C 0.75398 0.86631 0.39044 0.0
C2155 C 0.76044 0.85431 0.38533 0.0
H2156 H 0.7294 0.86788 0.39788 0.0
H2157 H 0.78406 0.74506 0.34877 0.0
H2158 H 0.18738 0.01732 0.40121 0.0
H2159 H 0.17964 0.9866 0.39148 0.0
H2160 H 0.24154 0.00613 0.3885 0.0
H2161 H 0.24944 0.03742 0.39745 0.0
H2162 H 0.22423 0.98851 0.36816 0.0
H2163 H 0.21152 0.97343 0.41122 0.0
H2164 H 0.19719 0.97184 0.43185 0.0
H2165 H 0.13915 0.93656 0.41655 0.0
H2166 H 0.15312 0.93818 0.39577 0.0
H2167 H 0.21063 0.89244 0.36089 0.0
H2168 H 0.21876 0.92362 0.37043 0.0
H2169 H 0.16148 0.91422 0.36022 0.0
H2170 H 0.15337 0.88329 0.35037 0.0
H2171 H 0.17676 0.92604 0.38739 0.0
H2172 H 0.19158 0.94288 0.3438 0.0
H2173 H 0.20769 0.94366 0.32399 0.0
H2174 H 0.2643 0.97482 0.34188 0.0
H2175 H 0.24849 0.97398 0.36186 0.0
C2176 C 0.19938 0.01524 0.39833 0.0
C2177 C 0.21906 0.0299 0.40015 0.0
C2178 C 0.19492 0.99751 0.39293 0.0
C2179 C 0.21 0.9939 0.38946 0.0
C2180 C 0.22964 0.00853 0.39117 0.0
C2181 C 0.23413 0.02636 0.39642 0.0
C2182 C 0.2053 0.97499 0.38385 0.0
C2183 C 0.21403 0.97489 0.37248 0.0
C2184 C 0.19184 0.95714 0.38939 0.0
C2185 C 0.18337 0.95614 0.40189 0.0
C2186 C 0.19569 0.96549 0.41222 0.0
C2187 C 0.18763 0.96458 0.42395 0.0
C2188 C 0.16727 0.95422 0.42549 0.0
C2189 C 0.15492 0.94467 0.41532 0.0
C2190 C 0.1629 0.94556 0.40357 0.0
C2191 C 0.1998 0.89704 0.36066 0.0
C2192 C 0.1814 0.88549 0.35488 0.0
C2193 C 0.20446 0.9148 0.3661 0.0
C2194 C 0.19067 0.92107 0.36601 0.0
C2195 C 0.17224 0.90952 0.36037 0.0
C2196 C 0.16771 0.89195 0.35471 0.0
C2197 C 0.19557 0.93978 0.37178 0.0
C2198 C 0.18692 0.93976 0.38316 0.0
C2199 C 0.20934 0.95749 0.36638 0.0
C2200 C 0.21884 0.95817 0.35435 0.0
C2201 C 0.20745 0.94973 0.34354 0.0
C2202 C 0.21653 0.95021 0.33227 0.0
C2203 C 0.237 0.95922 0.33169 0.0
C2204 C 0.24844 0.96782 0.34235 0.0
C2205 C 0.23943 0.96736 0.35365 0.0
H2206 H 0.244 0.95958 0.32295 0.0
H2207 H 0.16106 0.95348 0.43459 0.0
H2208 H 0.53476 0.64129 0.26376 0.0
H2209 H 0.55895 0.67169 0.2737 0.0
H2210 H 0.51661 0.66485 0.30151 0.0
H2211 H 0.49249 0.63402 0.29195 0.0
H2212 H 0.53686 0.70228 0.29081 0.0
H2213 H 0.55092 0.65581 0.3096 0.0
H2214 H 0.5586 0.62939 0.30946 0.0
H2215 H 0.61165 0.66507 0.28935 0.0
H2216 H 0.60414 0.69163 0.28922 0.0
H2217 H 0.59942 0.7756 0.33281 0.0
H2218 H 0.57592 0.74469 0.32338 0.0
H2219 H 0.62159 0.74669 0.30017 0.0
H2220 H 0.64556 0.77723 0.31011 0.0
H2221 H 0.59965 0.71153 0.30823 0.0
H2222 H 0.58656 0.75773 0.28893 0.0
H2223 H 0.57939 0.78446 0.288 0.0
H2224 H 0.52546 0.75016 0.3076 0.0
H2225 H 0.53243 0.72327 0.30878 0.0
C2226 C 0.53062 0.64605 0.2721 0.0
C2227 C 0.51163 0.63507 0.27707 0.0
C2228 C 0.54445 0.6635 0.27771 0.0
C2229 C 0.53958 0.67043 0.28836 0.0
C2230 C 0.52062 0.65974 0.29326 0.0
C2231 C 0.50682 0.64217 0.28773 0.0
C2232 C 0.55428 0.68887 0.29437 0.0
C2233 C 0.55048 0.70427 0.29478 0.0
C2234 C 0.57229 0.69156 0.29917 0.0
C2235 C 0.57686 0.67564 0.29929 0.0
C2236 C 0.56414 0.65797 0.30505 0.0
C2237 C 0.56847 0.64297 0.30504 0.0
C2238 C 0.58557 0.64553 0.29937 0.0
C2239 C 0.59839 0.6631 0.29373 0.0
C2240 C 0.59411 0.67813 0.2937 0.0
C2241 C 0.60461 0.7694 0.32584 0.0
C2242 C 0.62448 0.77888 0.32232 0.0
C2243 C 0.59105 0.75178 0.32032 0.0
C2244 C 0.59689 0.74348 0.3109 0.0
C2245 C 0.61672 0.75282 0.30741 0.0
C2246 C 0.6304 0.77034 0.31307 0.0
C2247 C 0.58227 0.72506 0.30472 0.0
C2248 C 0.58606 0.70963 0.30426 0.0
C2249 C 0.56435 0.72242 0.29972 0.0
C2250 C 0.56009 0.73853 0.29902 0.0
C2251 C 0.57324 0.75593 0.29311 0.0
C2252 C 0.5692 0.7711 0.29253 0.0
C2253 C 0.55198 0.76899 0.29773 0.0
C2254 C 0.53879 0.75174 0.30356 0.0
C2255 C 0.54276 0.73652 0.30418 0.0
H2256 H 0.54881 0.78068 0.29717 0.0
H2257 H 0.5889 0.6339 0.29937 0.0
H2258 H 0.33991 0.87063 0.26322 0.0
H2259 H 0.30968 0.86435 0.27369 0.0
H2260 H 0.33688 0.8676 0.30934 0.0
H2261 H 0.36671 0.87288 0.29881 0.0
H2262 H 0.30187 0.84027 0.3104 0.0
H2263 H 0.33019 0.90591 0.29613 0.0
H2264 H 0.34346 0.932 0.28063 0.0
H2265 H 0.2886 0.90376 0.26053 0.0
H2266 H 0.27508 0.87735 0.27582 0.0
H2267 H 0.23191 0.88142 0.32943 0.0
H2268 H 0.26266 0.88469 0.3218 0.0
H2269 H 0.2346 0.82251 0.31799 0.0
H2270 H 0.2044 0.81931 0.32657 0.0
H2271 H 0.26968 0.87848 0.30058 0.0
H2272 H 0.25799 0.80625 0.31357 0.0
H2273 H 0.25129 0.78339 0.33076 0.0
H2274 H 0.28088 0.83114 0.35646 0.0
H2275 H 0.28666 0.85412 0.33954 0.0
C2276 C 0.33938 0.87 0.2733 0.0
C2277 C 0.35567 0.87231 0.28021 0.0
C2278 C 0.32213 0.86651 0.27929 0.0
C2279 C 0.32098 0.86584 0.29237 0.0
C2280 C 0.33726 0.86801 0.29926 0.0
C2281 C 0.35435 0.87107 0.29325 0.0
C2282 C 0.30289 0.86279 0.29893 0.0
C2283 C 0.2949 0.84871 0.30824 0.0
C2284 C 0.29363 0.87372 0.29625 0.0
C2285 C 0.3017 0.88957 0.28706 0.0
C2286 C 0.321 0.9052 0.28836 0.0
C2287 C 0.32856 0.92005 0.27962 0.0
C2288 C 0.31689 0.9195 0.26959 0.0
C2289 C 0.29763 0.90413 0.26829 0.0
C2290 C 0.29 0.88923 0.277 0.0
C2291 C 0.2326 0.86845 0.32738 0.0
C2292 C 0.21588 0.85013 0.32875 0.0
C2293 C 0.25014 0.87029 0.32291 0.0
C2294 C 0.25125 0.85387 0.31926 0.0
C2295 C 0.23463 0.83546 0.32104 0.0
C2296 C 0.2172 0.8336 0.3259 0.0
C2297 C 0.26896 0.85636 0.3124 0.0
C2298 C 0.2767 0.87013 0.30283 0.0
C2299 C 0.27832 0.84553 0.31504 0.0
C2300 C 0.27236 0.83178 0.32541 0.0
C2301 C 0.2626 0.81177 0.32297 0.0
C2302 C 0.25892 0.79881 0.33265 0.0
C2303 C 0.26549 0.80579 0.34472 0.0
C2304 C 0.27549 0.82572 0.34715 0.0
C2305 C 0.27869 0.8387 0.33757 0.0
H2306 H 0.26293 0.79577 0.35218 0.0
H2307 H 0.32277 0.93101 0.26283 0.0
H2308 H 0.09157 0.45966 0.28161 0.0
H2309 H 0.09896 0.43711 0.29223 0.0
H2310 H 0.16102 0.47634 0.28741 0.0
H2311 H 0.15373 0.49845 0.27608 0.0
H2312 H 0.15338 0.44102 0.28319 0.0
H2313 H 0.13779 0.47224 0.31567 0.0
H2314 H 0.11817 0.48383 0.32678 0.0
H2315 H 0.07095 0.42529 0.33051 0.0
H2316 H 0.09019 0.41336 0.31926 0.0
H2317 H 0.18274 0.3984 0.33182 0.0
H2318 H 0.1758 0.42208 0.32206 0.0
H2319 H 0.11744 0.37644 0.31225 0.0
H2320 H 0.12437 0.3526 0.32165 0.0
H2321 H 0.12445 0.41572 0.32461 0.0
H2322 H 0.1401 0.38585 0.28973 0.0
H2323 H 0.16126 0.37503 0.27977 0.0
H2324 H 0.21051 0.43286 0.28234 0.0
H2325 H 0.18961 0.44399 0.29234 0.0
C2326 C 0.10679 0.46339 0.28263 0.0
C2327 C 0.12205 0.48095 0.27802 0.0
C2328 C 0.111 0.45058 0.28886 0.0
C2329 C 0.13056 0.45519 0.29083 0.0
C2330 C 0.14582 0.47253 0.28607 0.0
C2331 C 0.14162 0.48526 0.27971 0.0
C2332 C 0.13508 0.44191 0.29784 0.0
C2333 C 0.14721 0.43572 0.29231 0.0
C2334 C 0.12697 0.43482 0.30972 0.0
C2335 C 0.11536 0.44193 0.31651 0.0
C2336 C 0.12316 0.46185 0.31877 0.0
C2337 C 0.11212 0.46847 0.32511 0.0
C2338 C 0.0933 0.45531 0.32932 0.0
C2339 C 0.08551 0.43547 0.32723 0.0
C2340 C 0.09649 0.42877 0.32088 0.0
C2341 C 0.16838 0.39344 0.32768 0.0
C2342 C 0.15413 0.37366 0.32741 0.0
C2343 C 0.16447 0.40695 0.32212 0.0
C2344 C 0.14616 0.40088 0.31646 0.0
C2345 C 0.13165 0.38129 0.3166 0.0
C2346 C 0.13567 0.36773 0.32192 0.0
C2347 C 0.14243 0.41487 0.30987 0.0
C2348 C 0.13055 0.42116 0.3155 0.0
C2349 C 0.15091 0.42223 0.29818 0.0
C2350 C 0.16336 0.41571 0.29186 0.0
C2351 C 0.15547 0.39623 0.28821 0.0
C2352 C 0.16739 0.39006 0.28253 0.0
C2353 C 0.18722 0.40325 0.28043 0.0
C2354 C 0.19514 0.42267 0.28394 0.0
C2355 C 0.18325 0.42893 0.28959 0.0
H2356 H 0.19644 0.39842 0.27607 0.0
H2357 H 0.08478 0.46046 0.33423 0.0
H2358 H 0.3438 0.45459 0.26667 0.0
H2359 H 0.31463 0.43146 0.27803 0.0
H2360 H 0.32828 0.474 0.30716 0.0
H2361 H 0.35763 0.49712 0.29589 0.0
H2362 H 0.31884 0.44062 0.31704 0.0
H2363 H 0.28927 0.46131 0.28608 0.0
H2364 H 0.28238 0.46824 0.26488 0.0
H2365 H 0.25974 0.40877 0.25423 0.0
H2366 H 0.2665 0.40149 0.27537 0.0
H2367 H 0.20802 0.38218 0.33114 0.0
H2368 H 0.23966 0.40963 0.32492 0.0
H2369 H 0.26071 0.37043 0.31606 0.0
H2370 H 0.22967 0.34315 0.32302 0.0
H2371 H 0.25255 0.40426 0.29761 0.0
H2372 H 0.28873 0.38657 0.32885 0.0
H2373 H 0.2978 0.38227 0.35008 0.0
H2374 H 0.3095 0.43923 0.3603 0.0
H2375 H 0.29962 0.44349 0.33923 0.0
C2376 C 0.34045 0.45909 0.27542 0.0
C2377 C 0.353 0.47769 0.28038 0.0
C2378 C 0.32375 0.44587 0.28191 0.0
C2379 C 0.31909 0.45105 0.29339 0.0
C2380 C 0.33156 0.46966 0.29833 0.0
C2381 C 0.34835 0.48284 0.29189 0.0
C2382 C 0.30163 0.43683 0.30047 0.0
C2383 C 0.30431 0.43283 0.31281 0.0
C2384 C 0.28265 0.42658 0.29498 0.0
C2385 C 0.27852 0.4309 0.28228 0.0
C2386 C 0.28291 0.44974 0.2792 0.0
C2387 C 0.27898 0.45372 0.2672 0.0
C2388 C 0.27065 0.43896 0.25821 0.0
C2389 C 0.2662 0.42019 0.2612 0.0
C2390 C 0.27 0.41611 0.2732 0.0
C2391 C 0.21974 0.37954 0.32848 0.0
C2392 C 0.21661 0.36059 0.32791 0.0
C2393 C 0.23778 0.39522 0.32487 0.0
C2394 C 0.25278 0.39214 0.32043 0.0
C2395 C 0.24972 0.37326 0.32 0.0
C2396 C 0.23189 0.35766 0.32384 0.0
C2397 C 0.26991 0.40785 0.31404 0.0
C2398 C 0.26709 0.41217 0.30182 0.0
C2399 C 0.28872 0.41844 0.31965 0.0
C2400 C 0.29278 0.41507 0.33259 0.0
C2401 C 0.29254 0.39789 0.33573 0.0
C2402 C 0.29803 0.39554 0.34771 0.0
C2403 C 0.30416 0.41043 0.35656 0.0
C2404 C 0.30471 0.42768 0.35345 0.0
C2405 C 0.29899 0.42999 0.34153 0.0
H2406 H 0.30851 0.40863 0.3658 0.0
H2407 H 0.2676 0.44205 0.24893 0.0
H2408 H 0.53473 0.90252 0.28475 0.0
H2409 H 0.55966 0.89708 0.29468 0.0
H2410 H 0.52921 0.83789 0.28149 0.0
H2411 H 0.50412 0.84317 0.27164 0.0
H2412 H 0.53946 0.84066 0.30605 0.0
H2413 H 0.5712 0.87022 0.26797 0.0
H2414 H 0.58377 0.89516 0.25173 0.0
H2415 H 0.62209 0.93779 0.27852 0.0
H2416 H 0.60955 0.91315 0.29498 0.0
H2417 H 0.6165 0.82099 0.32276 0.0
H2418 H 0.5895 0.82402 0.31394 0.0
H2419 H 0.62364 0.8861 0.31883 0.0
H2420 H 0.6512 0.88304 0.32669 0.0
H2421 H 0.61065 0.88046 0.2974 0.0
H2422 H 0.56699 0.85336 0.33558 0.0
H2423 H 0.54863 0.82924 0.35173 0.0
H2424 H 0.53296 0.78316 0.32515 0.0
H2425 H 0.55014 0.80721 0.30868 0.0
C2426 C 0.5333 0.88832 0.28399 0.0
C2427 C 0.51741 0.87328 0.27739 0.0
C2428 C 0.54767 0.88528 0.28958 0.0
C2429 C 0.54643 0.86712 0.28874 0.0
C2430 C 0.53054 0.85205 0.28222 0.0
C2431 C 0.51626 0.85512 0.27654 0.0
C2432 C 0.56135 0.86367 0.29502 0.0
C2433 C 0.55504 0.84924 0.30406 0.0
C2434 C 0.58169 0.87503 0.29262 0.0
C2435 C 0.58929 0.88987 0.28274 0.0
C2436 C 0.58219 0.88495 0.27043 0.0
C2437 C 0.58933 0.89902 0.26117 0.0
C2438 C 0.60368 0.91806 0.2641 0.0
C2439 C 0.61096 0.92304 0.27627 0.0
C2440 C 0.60385 0.90902 0.28557 0.0
C2441 C 0.618 0.83522 0.32226 0.0
C2442 C 0.63589 0.85179 0.32552 0.0
C2443 C 0.60241 0.83697 0.31729 0.0
C2444 C 0.60416 0.85531 0.31578 0.0
C2445 C 0.62176 0.87175 0.31975 0.0
C2446 C 0.63751 0.87003 0.32434 0.0
C2447 C 0.5889 0.85775 0.30885 0.0
C2448 C 0.59513 0.87193 0.29953 0.0
C2449 C 0.56846 0.84625 0.31102 0.0
C2450 C 0.5603 0.83194 0.32106 0.0
C2451 C 0.55987 0.83807 0.33326 0.0
C2452 C 0.5494 0.82444 0.34241 0.0
C2453 C 0.53984 0.80465 0.33952 0.0
C2454 C 0.54047 0.79847 0.32741 0.0
C2455 C 0.55038 0.81208 0.31814 0.0
H2456 H 0.53187 0.79413 0.34665 0.0
H2457 H 0.6092 0.92893 0.25692 0.0
H2458 H 0.08884 0.62693 0.28102 0.0
H2459 H 0.09528 0.65687 0.29174 0.0
H2460 H 0.15762 0.67811 0.29018 0.0
H2461 H 0.15127 0.64837 0.27923 0.0
H2462 H 0.14064 0.68102 0.3148 0.0
H2463 H 0.14352 0.69622 0.27082 0.0
H2464 H 0.13022 0.6903 0.24938 0.0
H2465 H 0.08007 0.6934 0.262 0.0
H2466 H 0.09294 0.69904 0.28356 0.0
H2467 H 0.18011 0.77919 0.33138 0.0
H2468 H 0.17209 0.74819 0.32194 0.0
H2469 H 0.11465 0.73847 0.31152 0.0
H2470 H 0.12307 0.77005 0.32038 0.0
H2471 H 0.12783 0.7285 0.29327 0.0
H2472 H 0.12226 0.71258 0.33642 0.0
H2473 H 0.13233 0.71639 0.35851 0.0
H2474 H 0.18336 0.71282 0.34871 0.0
H2475 H 0.17348 0.70882 0.32653 0.0
C2476 C 0.10389 0.63799 0.28302 0.0
C2477 C 0.11959 0.63547 0.2793 0.0
C2478 C 0.10753 0.65502 0.2891 0.0
C2479 C 0.1269 0.6696 0.29171 0.0
C2480 C 0.14259 0.66695 0.28824 0.0
C2481 C 0.13896 0.65008 0.28195 0.0
C2482 C 0.13081 0.68782 0.29784 0.0
C2483 C 0.13806 0.69155 0.31009 0.0
C2484 C 0.12675 0.7011 0.29178 0.0
C2485 C 0.11908 0.69782 0.27882 0.0
C2486 C 0.12956 0.69544 0.26904 0.0
C2487 C 0.12212 0.69218 0.25687 0.0
C2488 C 0.10428 0.69141 0.25434 0.0
C2489 C 0.09387 0.69396 0.26398 0.0
C2490 C 0.10124 0.6972 0.27617 0.0
C2491 C 0.16574 0.7704 0.32712 0.0
C2492 C 0.15221 0.77702 0.3266 0.0
C2493 C 0.16109 0.75259 0.32181 0.0
C2494 C 0.1426 0.74075 0.3162 0.0
C2495 C 0.12901 0.74731 0.31579 0.0
C2496 C 0.13382 0.76534 0.32086 0.0
C2497 C 0.13777 0.72193 0.31035 0.0
C2498 C 0.13034 0.71802 0.29809 0.0
C2499 C 0.14124 0.70826 0.31652 0.0
C2500 C 0.14721 0.71055 0.32982 0.0
C2501 C 0.13567 0.71269 0.33897 0.0
C2502 C 0.14132 0.71483 0.35151 0.0
C2503 C 0.15853 0.71495 0.35501 0.0
C2504 C 0.17004 0.71275 0.34598 0.0
C2505 C 0.16437 0.71044 0.33343 0.0
H2506 H 0.16292 0.71671 0.36472 0.0
H2507 H 0.09855 0.68889 0.2449 0.0
H2508 H 0.80112 0.01839 0.41613 0.0
H2509 H 0.77587 0.98851 0.40614 0.0
H2510 H 0.81573 0.9966 0.37623 0.0
H2511 H 0.84078 0.02684 0.38602 0.0
H2512 H 0.78185 0.98544 0.3667 0.0
H2513 H 0.80439 0.96263 0.40025 0.0
H2514 H 0.81287 0.95938 0.42189 0.0
H2515 H 0.75291 0.93753 0.43268 0.0
H2516 H 0.74412 0.94093 0.41113 0.0
H2517 H 0.73173 0.88847 0.34368 0.0
H2518 H 0.75561 0.91829 0.35419 0.0
H2519 H 0.70969 0.91671 0.37685 0.0
H2520 H 0.68538 0.88702 0.36608 0.0
H2521 H 0.74573 0.9241 0.39003 0.0
H2522 H 0.7245 0.94699 0.35488 0.0
H2523 H 0.71764 0.94762 0.3325 0.0
H2524 H 0.77807 0.96706 0.32415 0.0
H2525 H 0.78522 0.9663 0.34648 0.0
C2526 C 0.8045 0.01371 0.40746 0.0
C2527 C 0.82292 0.02489 0.40187 0.0
C2528 C 0.79008 0.99659 0.40177 0.0
C2529 C 0.79394 0.99006 0.39051 0.0
C2530 C 0.81235 0.00129 0.3849 0.0
C2531 C 0.82666 0.01856 0.3905 0.0
C2532 C 0.77871 0.97174 0.38446 0.0
C2533 C 0.77415 0.97203 0.37181 0.0
C2534 C 0.7684 0.95416 0.3911 0.0
C2535 C 0.77365 0.95226 0.4041 0.0
C2536 C 0.79305 0.95731 0.40726 0.0
C2537 C 0.7979 0.95541 0.41951 0.0
C2538 C 0.78345 0.94831 0.42866 0.0
C2539 C 0.7641 0.94307 0.42558 0.0
C2540 C 0.75917 0.94497 0.41335 0.0
C2541 C 0.72654 0.89456 0.35073 0.0
C2542 C 0.7065 0.88552 0.35382 0.0
C2543 C 0.74029 0.91156 0.3568 0.0
C2544 C 0.73437 0.91974 0.36622 0.0
C2545 C 0.7145 0.91059 0.36957 0.0
C2546 C 0.70064 0.89368 0.36337 0.0
C2547 C 0.749 0.938 0.37242 0.0
C2548 C 0.75343 0.93763 0.38504 0.0
C2549 C 0.75949 0.95538 0.36571 0.0
C2550 C 0.75536 0.95646 0.35234 0.0
C2551 C 0.7363 0.95132 0.34826 0.0
C2552 C 0.73236 0.9517 0.33559 0.0
C2553 C 0.7474 0.95734 0.32691 0.0
C2554 C 0.76643 0.96269 0.33089 0.0
C2555 C 0.77044 0.96232 0.34355 0.0
H2556 H 0.74432 0.95758 0.3171 0.0
H2557 H 0.78723 0.94683 0.43814 0.0
H2558 H 0.9752 0.81193 0.38227 0.0
H2559 H 0.00477 0.8164 0.37182 0.0
H2560 H 0.01997 0.79464 0.40414 0.0
H2561 H 0.99051 0.79027 0.41466 0.0
H2562 H 0.05199 0.82431 0.39541 0.0
H2563 H 0.99842 0.76632 0.37762 0.0
H2564 H 0.96644 0.74649 0.36701 0.0
H2565 H 0.98759 0.78312 0.33503 0.0
H2566 H 0.01963 0.80333 0.34551 0.0
H2567 H 0.10091 0.78204 0.35424 0.0
H2568 H 0.07112 0.78077 0.36223 0.0
H2569 H 0.10004 0.84311 0.36148 0.0
H2570 H 0.12982 0.84439 0.35345 0.0
H2571 H 0.0463 0.79386 0.35398 0.0
H2572 H 0.087 0.85659 0.38952 0.0
H2573 H 0.11837 0.87286 0.40127 0.0
H2574 H 0.12198 0.82093 0.39953 0.0
H2575 H 0.09056 0.80432 0.38793 0.0
C2576 C 0.98478 0.80801 0.38714 0.0
C2577 C 0.98036 0.80063 0.3993 0.0
C2578 C 0.00174 0.81061 0.38115 0.0
C2579 C 0.01457 0.80566 0.3871 0.0
C2580 C 0.01039 0.79864 0.39933 0.0
C2581 C 0.9935 0.79615 0.40535 0.0
C2582 C 0.03211 0.80738 0.38054 0.0
C2583 C 0.05071 0.81775 0.38632 0.0
C2584 C 0.03056 0.7986 0.36873 0.0
C2585 C 0.01134 0.78645 0.3624 0.0
C2586 C 0.9962 0.77023 0.36836 0.0
C2587 C 0.97807 0.75891 0.36236 0.0
C2588 C 0.97496 0.76358 0.35037 0.0
C2589 C 0.99 0.77954 0.34433 0.0
C2590 C 0.00815 0.79093 0.35029 0.0
C2591 C 0.10073 0.79543 0.35553 0.0
C2592 C 0.11755 0.81327 0.35304 0.0
C2593 C 0.08372 0.7947 0.36009 0.0
C2594 C 0.08337 0.81184 0.36254 0.0
C2595 C 0.1 0.8297 0.35971 0.0
C2596 C 0.11696 0.83042 0.35501 0.0
C2597 C 0.06607 0.81093 0.3688 0.0
C2598 C 0.04756 0.80067 0.36298 0.0
C2599 C 0.06763 0.81943 0.38069 0.0
C2600 C 0.08654 0.8293 0.38771 0.0
C2601 C 0.09449 0.84865 0.39166 0.0
C2602 C 0.11228 0.85793 0.3983 0.0
C2603 C 0.12221 0.84796 0.40111 0.0
C2604 C 0.11434 0.82868 0.3973 0.0
C2605 C 0.09655 0.81934 0.39067 0.0
H2606 H 0.13596 0.85515 0.40626 0.0
H2607 H 0.96092 0.75479 0.34574 0.0
H2608 H 0.25012 0.20717 0.39303 0.0
H2609 H 0.24173 0.22908 0.38216 0.0
H2610 H 0.18014 0.18935 0.38821 0.0
H2611 H 0.18845 0.16752 0.39924 0.0
H2612 H 0.19149 0.20547 0.36272 0.0
H2613 H 0.19857 0.22447 0.40632 0.0
H2614 H 0.21623 0.23451 0.42646 0.0
H2615 H 0.26367 0.28443 0.40937 0.0
H2616 H 0.24641 0.27451 0.38907 0.0
H2617 H 0.15241 0.26622 0.34822 0.0
H2618 H 0.1607 0.24306 0.3571 0.0
H2619 H 0.22062 0.28904 0.36288 0.0
H2620 H 0.21201 0.31235 0.35475 0.0
H2621 H 0.21027 0.26907 0.38219 0.0
H2622 H 0.20537 0.25175 0.33894 0.0
H2623 H 0.18984 0.24254 0.31813 0.0
H2624 H 0.1414 0.19116 0.33315 0.0
H2625 H 0.15667 0.20007 0.35408 0.0
C2626 C 0.2348 0.2031 0.39195 0.0
C2627 C 0.21991 0.18576 0.39699 0.0
C2628 C 0.23005 0.21559 0.38578 0.0
C2629 C 0.21034 0.21077 0.38443 0.0
C2630 C 0.19542 0.19324 0.38917 0.0
C2631 C 0.20018 0.1809 0.39552 0.0
C2632 C 0.20535 0.22441 0.37848 0.0
C2633 C 0.1954 0.21932 0.36699 0.0
C2634 C 0.21097 0.24263 0.38394 0.0
C2635 C 0.2213 0.24863 0.39615 0.0
C2636 C 0.21285 0.23749 0.40683 0.0
C2637 C 0.22277 0.24318 0.41828 0.0
C2638 C 0.24109 0.26007 0.41919 0.0
C2639 C 0.2495 0.27133 0.40865 0.0
C2640 C 0.23965 0.26569 0.39717 0.0
C2641 C 0.16737 0.27131 0.35133 0.0
C2642 C 0.18157 0.29105 0.35087 0.0
C2643 C 0.17215 0.25805 0.35632 0.0
C2644 C 0.19139 0.2642 0.36052 0.0
C2645 C 0.20566 0.28391 0.35977 0.0
C2646 C 0.20075 0.29723 0.3551 0.0
C2647 C 0.19649 0.25036 0.36625 0.0
C2648 C 0.20642 0.25533 0.37778 0.0
C2649 C 0.19119 0.2322 0.36068 0.0
C2650 C 0.18209 0.22666 0.34809 0.0
C2651 C 0.19137 0.23853 0.33782 0.0
C2652 C 0.18262 0.23336 0.326 0.0
C2653 C 0.1646 0.21633 0.32433 0.0
C2654 C 0.15535 0.20436 0.33446 0.0
C2655 C 0.16408 0.20943 0.3463 0.0
H2656 H 0.15782 0.21239 0.31517 0.0
H2657 H 0.24874 0.26446 0.42806 0.0
H2658 H 0.63436 0.53115 0.72093 0.0
H2659 H 0.66362 0.5542 0.70948 0.0
H2660 H 0.69816 0.53436 0.72909 0.0
H2661 H 0.66891 0.51121 0.74054 0.0
H2662 H 0.71554 0.57495 0.7287 0.0
H2663 H 0.68675 0.52092 0.70022 0.0
H2664 H 0.6602 0.49543 0.68737 0.0
H2665 H 0.6557 0.53864 0.66635 0.0
H2666 H 0.68203 0.5644 0.6792 0.0
H2667 H 0.79484 0.61708 0.68089 0.0
H2668 H 0.76429 0.58903 0.68779 0.0
H2669 H 0.74128 0.62642 0.69734 0.0
H2670 H 0.77151 0.65445 0.68993 0.0
H2671 H 0.71963 0.57492 0.68255 0.0
H2672 H 0.73062 0.61482 0.72874 0.0
H2673 H 0.75763 0.64132 0.7408 0.0
H2674 H 0.79837 0.62544 0.72604 0.0
H2675 H 0.77154 0.59864 0.7141 0.0
C2676 C 0.6482 0.53172 0.7228 0.0
C2677 C 0.64937 0.51939 0.73163 0.0
C2678 C 0.66486 0.54479 0.7162 0.0
C2679 C 0.68302 0.5459 0.7184 0.0
C2680 C 0.68426 0.53368 0.72724 0.0
C2681 C 0.66754 0.52042 0.73372 0.0
C2682 C 0.70082 0.5602 0.71169 0.0
C2683 C 0.71645 0.57482 0.71863 0.0
C2684 C 0.70204 0.56004 0.69853 0.0
C2685 C 0.68625 0.54459 0.69076 0.0
C2686 C 0.67999 0.52499 0.69293 0.0
C2687 C 0.665 0.51049 0.68563 0.0
C2688 C 0.65624 0.51541 0.67607 0.0
C2689 C 0.66248 0.53485 0.67377 0.0
C2690 C 0.67745 0.54941 0.68105 0.0
C2691 C 0.783 0.61924 0.68396 0.0
C2692 C 0.78539 0.6379 0.68466 0.0
C2693 C 0.76558 0.6032 0.68795 0.0
C2694 C 0.75061 0.60572 0.69307 0.0
C2695 C 0.75267 0.62422 0.69335 0.0
C2696 C 0.76992 0.64018 0.68916 0.0
C2697 C 0.73403 0.58965 0.69959 0.0
C2698 C 0.71868 0.57483 0.69263 0.0
C2699 C 0.73306 0.58952 0.71273 0.0
C2700 C 0.7491 0.60487 0.72044 0.0
C2701 C 0.74531 0.61689 0.72816 0.0
C2702 C 0.76059 0.63198 0.73496 0.0
C2703 C 0.77972 0.63512 0.73414 0.0
C2704 C 0.78357 0.62305 0.72663 0.0
C2705 C 0.76833 0.60791 0.71984 0.0
H2706 H 0.79154 0.64692 0.73933 0.0
H2707 H 0.64463 0.50416 0.67043 0.0
H2708 H 0.50472 0.14904 0.71951 0.0
H2709 H 0.47971 0.1543 0.70969 0.0
H2710 H 0.43475 0.10802 0.73107 0.0
H2711 H 0.45965 0.10342 0.74165 0.0
H2712 H 0.4312 0.10923 0.70153 0.0
H2713 H 0.43874 0.14315 0.74084 0.0
H2714 H 0.45776 0.16702 0.75735 0.0
H2715 H 0.48022 0.21263 0.73051 0.0
H2716 H 0.46146 0.18896 0.7138 0.0
H2717 H 0.34582 0.1147 0.68888 0.0
H2718 H 0.37288 0.11091 0.69656 0.0
H2719 H 0.41287 0.17197 0.69138 0.0
H2720 H 0.3853 0.176 0.68483 0.0
H2721 H 0.42075 0.16405 0.71205 0.0
H2722 H 0.4148 0.13201 0.6727 0.0
H2723 H 0.39784 0.10915 0.65524 0.0
H2724 H 0.37458 0.06155 0.6806 0.0
H2725 H 0.39159 0.08413 0.69814 0.0
C2726 C 0.48961 0.14019 0.72239 0.0
C2727 C 0.4844 0.12576 0.73147 0.0
C2728 C 0.4753 0.14315 0.71664 0.0
C2729 C 0.45542 0.13155 0.71966 0.0
C2730 C 0.45004 0.11708 0.72859 0.0
C2731 C 0.46436 0.11437 0.73455 0.0
C2732 C 0.44019 0.13426 0.71328 0.0
C2733 C 0.42874 0.1211 0.70387 0.0
C2734 C 0.43747 0.15008 0.71608 0.0
C2735 C 0.44895 0.16426 0.72606 0.0
C2736 C 0.44794 0.15823 0.73843 0.0
C2737 C 0.4586 0.17173 0.74784 0.0
C2738 C 0.47026 0.19132 0.74497 0.0
C2739 C 0.47122 0.19745 0.73271 0.0
C2740 C 0.46057 0.184 0.72327 0.0
C2741 C 0.36047 0.12726 0.68917 0.0
C2742 C 0.36347 0.14557 0.68595 0.0
C2743 C 0.37606 0.12505 0.69344 0.0
C2744 C 0.39522 0.14104 0.69434 0.0
C2745 C 0.39833 0.15931 0.69077 0.0
C2746 C 0.38258 0.1616 0.68682 0.0
C2747 C 0.41148 0.13898 0.70011 0.0
C2748 C 0.42319 0.15225 0.70949 0.0
C2749 C 0.41464 0.12338 0.69715 0.0
C2750 C 0.40422 0.10977 0.6867 0.0
C2751 C 0.4059 0.11668 0.67452 0.0
C2752 C 0.39637 0.10378 0.66462 0.0
C2753 C 0.385 0.08393 0.66682 0.0
C2754 C 0.38333 0.07693 0.67891 0.0
C2755 C 0.393 0.08976 0.68882 0.0
H2756 H 0.37757 0.07398 0.65916 0.0
H2757 H 0.4785 0.20176 0.75226 0.0
H2758 H 0.90281 0.35945 0.74774 0.0
H2759 H 0.89608 0.32913 0.73769 0.0
H2760 H 0.86216 0.3372 0.70915 0.0
H2761 H 0.86946 0.36795 0.71879 0.0
H2762 H 0.84325 0.29956 0.72036 0.0
H2763 H 0.90492 0.34537 0.70161 0.0
H2764 H 0.93969 0.37125 0.70192 0.0
H2765 H 0.95531 0.33455 0.72211 0.0
H2766 H 0.92056 0.30854 0.72208 0.0
H2767 H 0.82968 0.22704 0.67743 0.0
H2768 H 0.83819 0.25778 0.68735 0.0
H2769 H 0.88113 0.25385 0.71046 0.0
H2770 H 0.87347 0.22352 0.70005 0.0
H2771 H 0.89565 0.28928 0.70273 0.0
H2772 H 0.83549 0.24339 0.72164 0.0
H2773 H 0.801 0.21694 0.72226 0.0
H2774 H 0.78258 0.25261 0.70349 0.0
H2775 H 0.81701 0.2792 0.7026 0.0
C2776 C 0.8942 0.35499 0.73921 0.0
C2777 C 0.88668 0.3662 0.73409 0.0
C2778 C 0.89026 0.33759 0.73354 0.0
C2779 C 0.87863 0.331 0.7227 0.0
C2780 C 0.87107 0.34205 0.71756 0.0
C2781 C 0.87519 0.35956 0.72313 0.0
C2782 C 0.87421 0.31246 0.71677 0.0
C2783 C 0.85463 0.29733 0.71636 0.0
C2784 C 0.88921 0.30948 0.71196 0.0
C2785 C 0.91011 0.32509 0.71196 0.0
C2786 C 0.91574 0.34289 0.70622 0.0
C2787 C 0.93545 0.35756 0.70632 0.0
C2788 C 0.94969 0.35457 0.71206 0.0
C2789 C 0.94425 0.33686 0.71768 0.0
C2790 C 0.92456 0.32215 0.71762 0.0
C2791 C 0.84115 0.2328 0.68447 0.0
C2792 C 0.85102 0.22286 0.68784 0.0
C2793 C 0.84583 0.2503 0.69027 0.0
C2794 C 0.86008 0.25798 0.6998 0.0
C2795 C 0.87005 0.24817 0.70314 0.0
C2796 C 0.86559 0.23078 0.69721 0.0
C2797 C 0.8646 0.27628 0.70622 0.0
C2798 C 0.88421 0.2914 0.70675 0.0
C2799 C 0.84964 0.27914 0.71133 0.0
C2800 C 0.82887 0.26325 0.71196 0.0
C2801 C 0.8241 0.24556 0.71757 0.0
C2802 C 0.80456 0.23054 0.71798 0.0
C2803 C 0.78961 0.23308 0.71289 0.0
C2804 C 0.79418 0.25066 0.70742 0.0
C2805 C 0.8137 0.26572 0.70697 0.0
H2806 H 0.77449 0.22143 0.71322 0.0
H2807 H 0.96494 0.36594 0.71213 0.0
H2808 H 0.16331 0.9692 0.62895 0.0
H2809 H 0.18768 0.00011 0.63824 0.0
H2810 H 0.22704 0.0094 0.60788 0.0
H2811 H 0.2025 0.97886 0.59822 0.0
H2812 H 0.24513 0.01702 0.63189 0.0
H2813 H 0.20349 0.03295 0.60765 0.0
H2814 H 0.1719 0.02963 0.6009 0.0
H2815 H 0.16156 0.0423 0.63811 0.0
H2816 H 0.19296 0.04539 0.64513 0.0
H2817 H 0.31398 0.11535 0.64513 0.0
H2818 H 0.29025 0.08511 0.63487 0.0
H2819 H 0.24518 0.07988 0.66001 0.0
H2820 H 0.26844 0.11065 0.66978 0.0
H2821 H 0.23013 0.06995 0.6382 0.0
H2822 H 0.27013 0.05318 0.66307 0.0
H2823 H 0.30116 0.05611 0.67072 0.0
H2824 H 0.31378 0.0441 0.63393 0.0
H2825 H 0.28295 0.04138 0.62602 0.0
C2826 C 0.17703 0.97787 0.62413 0.0
C2827 C 0.18082 0.97149 0.61277 0.0
C2828 C 0.19099 0.9955 0.62952 0.0
C2829 C 0.2091 0.00706 0.62371 0.0
C2830 C 0.21316 0.00063 0.61253 0.0
C2831 C 0.19912 0.9831 0.60706 0.0
C2832 C 0.22371 0.026 0.62925 0.0
C2833 C 0.24199 0.02871 0.63314 0.0
C2834 C 0.21935 0.04101 0.63116 0.0
C2835 C 0.20048 0.03919 0.62694 0.0
C2836 C 0.1944 0.03485 0.61442 0.0
C2837 C 0.17654 0.03304 0.61054 0.0
C2838 C 0.1647 0.0357 0.61907 0.0
C2839 C 0.17073 0.04021 0.63151 0.0
C2840 C 0.18856 0.042 0.63544 0.0
C2841 C 0.29902 0.1078 0.64849 0.0
C2842 C 0.29327 0.11529 0.65848 0.0
C2843 C 0.28547 0.0904 0.64265 0.0
C2844 C 0.26599 0.07991 0.64684 0.0
C2845 C 0.26014 0.08757 0.65665 0.0
C2846 C 0.27357 0.10512 0.66234 0.0
C2847 C 0.25164 0.06104 0.64098 0.0
C2848 C 0.23336 0.05831 0.63699 0.0
C2849 C 0.2559 0.0459 0.63916 0.0
C2850 C 0.27432 0.04726 0.64393 0.0
C2851 C 0.27958 0.05128 0.65659 0.0
C2852 C 0.29713 0.05289 0.66098 0.0
C2853 C 0.30946 0.05034 0.65281 0.0
C2854 C 0.30423 0.0461 0.64024 0.0
C2855 C 0.28671 0.0445 0.6358 0.0
H2856 H 0.32305 0.05162 0.65622 0.0
H2857 H 0.15089 0.0343 0.61605 0.0
H2858 H 0.03631 0.20825 0.63238 0.0
H2859 H 0.00654 0.20349 0.64278 0.0
H2860 H 0.97568 0.1882 0.60743 0.0
H2861 H 0.00584 0.1942 0.597 0.0
H2862 H 0.96524 0.2087 0.61827 0.0
H2863 H 0.96897 0.15419 0.63197 0.0
H2864 H 0.98364 0.13607 0.64121 0.0
H2865 H 0.9907 0.1653 0.67623 0.0
H2866 H 0.97632 0.1838 0.66715 0.0
H2867 H 0.87338 0.1563 0.65981 0.0
H2868 H 0.90308 0.15753 0.65172 0.0
H2869 H 0.93213 0.2199 0.65114 0.0
H2870 H 0.90239 0.21866 0.65911 0.0
H2871 H 0.94125 0.17278 0.65779 0.0
H2872 H 0.95665 0.23599 0.62435 0.0
H2873 H 0.93782 0.24861 0.61334 0.0
H2874 H 0.88596 0.19242 0.61436 0.0
H2875 H 0.90454 0.17941 0.62518 0.0
C2876 C 0.0231 0.20381 0.62688 0.0
C2877 C 0.02332 0.20158 0.61391 0.0
C2878 C 0.00602 0.20093 0.63283 0.0
C2879 C 0.98858 0.19514 0.62598 0.0
C2880 C 0.98884 0.19272 0.61299 0.0
C2881 C 0.00605 0.19608 0.60702 0.0
C2882 C 0.97032 0.19231 0.63221 0.0
C2883 C 0.96009 0.2008 0.6269 0.0
C2884 C 0.96305 0.18158 0.64334 0.0
C2885 C 0.97175 0.17053 0.64884 0.0
C2886 C 0.97379 0.15687 0.64162 0.0
C2887 C 0.98203 0.14651 0.64683 0.0
C2888 C 0.98815 0.14957 0.65929 0.0
C2889 C 0.98599 0.16296 0.66657 0.0
C2890 C 0.97778 0.17338 0.6614 0.0
C2891 C 0.88626 0.17027 0.65827 0.0
C2892 C 0.88567 0.18742 0.66019 0.0
C2893 C 0.90323 0.17096 0.6536 0.0
C2894 C 0.91976 0.1888 0.65063 0.0
C2895 C 0.91947 0.20595 0.65317 0.0
C2896 C 0.90252 0.20526 0.65777 0.0
C2897 C 0.93669 0.18953 0.64395 0.0
C2898 C 0.94657 0.18066 0.64917 0.0
C2899 C 0.94315 0.19912 0.63243 0.0
C2900 C 0.93197 0.20679 0.6257 0.0
C2901 C 0.94126 0.22632 0.62217 0.0
C2902 C 0.93062 0.23353 0.61597 0.0
C2903 C 0.91069 0.22134 0.61319 0.0
C2904 C 0.90138 0.20187 0.61655 0.0
C2905 C 0.91196 0.19458 0.62273 0.0
H2906 H 0.90248 0.22697 0.60841 0.0
H2907 H 0.99452 0.14153 0.66331 0.0
H2908 H 0.76444 0.8013 0.61836 0.0
H2909 H 0.77168 0.77848 0.62894 0.0
H2910 H 0.831 0.80903 0.61515 0.0
H2911 H 0.82377 0.83172 0.60436 0.0
H2912 H 0.81417 0.76933 0.61291 0.0
H2913 H 0.82271 0.81643 0.6444 0.0
H2914 H 0.8125 0.83583 0.65697 0.0
H2915 H 0.76391 0.78383 0.67126 0.0
H2916 H 0.77368 0.7641 0.65863 0.0
H2917 H 0.84563 0.73344 0.67051 0.0
H2918 H 0.84022 0.75783 0.66046 0.0
H2919 H 0.79323 0.7132 0.63833 0.0
H2920 H 0.79825 0.68873 0.64837 0.0
H2921 H 0.80667 0.76181 0.65876 0.0
H2922 H 0.79751 0.73061 0.609 0.0
H2923 H 0.8082 0.71127 0.59672 0.0
H2924 H 0.86036 0.73305 0.61934 0.0
H2925 H 0.85006 0.75259 0.63169 0.0
C2926 C 0.77897 0.80305 0.61749 0.0
C2927 C 0.79357 0.81834 0.61058 0.0
C2928 C 0.78311 0.79009 0.6236 0.0
C2929 C 0.80192 0.7922 0.6229 0.0
C2930 C 0.81642 0.80721 0.61582 0.0
C2931 C 0.81232 0.82023 0.60975 0.0
C2932 C 0.80655 0.77891 0.62972 0.0
C2933 C 0.81256 0.7677 0.62293 0.0
C2934 C 0.80461 0.77695 0.64281 0.0
C2935 C 0.79884 0.78879 0.65049 0.0
C2936 C 0.80977 0.80913 0.65016 0.0
C2937 C 0.80408 0.82019 0.6573 0.0
C2938 C 0.78755 0.81107 0.66489 0.0
C2939 C 0.77671 0.79087 0.66537 0.0
C2940 C 0.78232 0.77975 0.65823 0.0
C2941 C 0.83394 0.72876 0.66365 0.0
C2942 C 0.82238 0.70911 0.66026 0.0
C2943 C 0.83093 0.74273 0.65789 0.0
C2944 C 0.81649 0.73728 0.64857 0.0
C2945 C 0.80461 0.71768 0.6454 0.0
C2946 C 0.80751 0.70371 0.65118 0.0
C2947 C 0.81401 0.75208 0.64194 0.0
C2948 C 0.80834 0.76351 0.64875 0.0
C2949 C 0.81637 0.75431 0.62889 0.0
C2950 C 0.82292 0.74295 0.62132 0.0
C2951 C 0.81128 0.73131 0.61133 0.0
C2952 C 0.81723 0.72025 0.60439 0.0
C2953 C 0.83491 0.72091 0.60728 0.0
C2954 C 0.84665 0.73254 0.61713 0.0
C2955 C 0.84073 0.74356 0.62412 0.0
H2956 H 0.83961 0.71253 0.60182 0.0
H2957 H 0.78316 0.81965 0.67041 0.0
H2958 H 0.00621 0.83082 0.61464 0.0
H2959 H 0.97697 0.80661 0.62572 0.0
H2960 H 0.0027 0.77008 0.6288 0.0
H2961 H 0.03208 0.79437 0.61796 0.0
H2962 H 0.96189 0.75204 0.6188 0.0
H2963 H 0.00311 0.79148 0.65324 0.0
H2964 H 0.02291 0.82223 0.66473 0.0
H2965 H 0.97264 0.82983 0.66719 0.0
H2966 H 0.95261 0.79925 0.65554 0.0
H2967 H 0.89779 0.6785 0.65763 0.0
H2968 H 0.92842 0.70606 0.65033 0.0
H2969 H 0.90379 0.74335 0.65518 0.0
H2970 H 0.87315 0.71579 0.66254 0.0
H2971 H 0.94325 0.76226 0.66112 0.0
H2972 H 0.9019 0.7256 0.62735 0.0
H2973 H 0.88021 0.69616 0.61511 0.0
H2974 H 0.92796 0.6852 0.60995 0.0
H2975 H 0.94989 0.71446 0.62233 0.0
C2976 C 0.00559 0.81763 0.61771 0.0
C2977 C 0.02137 0.81443 0.61547 0.0
C2978 C 0.98897 0.80389 0.62407 0.0
C2979 C 0.98776 0.78663 0.62809 0.0
C2980 C 0.00342 0.78335 0.62578 0.0
C2981 C 0.02018 0.79723 0.61965 0.0
C2982 C 0.96993 0.7717 0.63442 0.0
C2983 C 0.95794 0.75416 0.62811 0.0
C2984 C 0.96439 0.77485 0.64635 0.0
C2985 C 0.97643 0.7932 0.65338 0.0
C2986 C 0.99633 0.7998 0.65611 0.0
C2987 C 0.00758 0.81718 0.66268 0.0
C2988 C 0.99906 0.82801 0.66665 0.0
C2989 C 0.97924 0.82145 0.66409 0.0
C2990 C 0.96793 0.80409 0.65751 0.0
C2991 C 0.89911 0.69268 0.65739 0.0
C2992 C 0.88324 0.69508 0.66076 0.0
C2993 C 0.91655 0.70838 0.65319 0.0
C2994 C 0.91826 0.72668 0.65203 0.0
C2995 C 0.90278 0.72936 0.65601 0.0
C2996 C 0.8853 0.71362 0.66025 0.0
C2997 C 0.93547 0.74241 0.64561 0.0
C2998 C 0.94722 0.76012 0.65182 0.0
C2999 C 0.94056 0.73965 0.63343 0.0
C3000 C 0.9275 0.72213 0.62587 0.0
C3001 C 0.90775 0.71684 0.62368 0.0
C3002 C 0.89541 0.7002 0.61671 0.0
C3003 C 0.90269 0.68879 0.61178 0.0
C3004 C 0.92234 0.69404 0.61379 0.0
C3005 C 0.93474 0.71067 0.62077 0.0
H3006 H 0.89312 0.67591 0.60638 0.0
H3007 H 0.00779 0.84145 0.67174 0.0
H3008 H 0.16963 0.1967 0.6317 0.0
H3009 H 0.19439 0.19196 0.64248 0.0
H3010 H 0.22981 0.2087 0.60939 0.0
H3011 H 0.20541 0.21399 0.59866 0.0
H3012 H 0.20851 0.16789 0.63797 0.0
H3013 H 0.27822 0.23235 0.61787 0.0
H3014 H 0.28924 0.26499 0.60966 0.0
H3015 H 0.24623 0.26929 0.63186 0.0
H3016 H 0.23514 0.2368 0.64031 0.0
H3017 H 0.29089 0.15765 0.65523 0.0
H3018 H 0.26426 0.16001 0.64543 0.0
H3019 H 0.28702 0.21725 0.66148 0.0
H3020 H 0.31531 0.21579 0.66961 0.0
H3021 H 0.27795 0.2205 0.64119 0.0
H3022 H 0.23312 0.16606 0.66966 0.0
H3023 H 0.21829 0.13294 0.67808 0.0
H3024 H 0.21062 0.10945 0.64111 0.0
H3025 H 0.22419 0.14221 0.63241 0.0
C3026 C 0.18278 0.19957 0.62674 0.0
C3027 C 0.18553 0.20583 0.61431 0.0
C3028 C 0.19685 0.19668 0.63289 0.0
C3029 C 0.21407 0.20011 0.6268 0.0
C3030 C 0.21677 0.20616 0.61435 0.0
C3031 C 0.2027 0.20902 0.60819 0.0
C3032 C 0.22921 0.19746 0.63351 0.0
C3033 C 0.22369 0.17945 0.6388 0.0
C3034 C 0.24903 0.21243 0.63454 0.0
C3035 C 0.25573 0.23207 0.62962 0.0
C3036 C 0.27117 0.2403 0.62103 0.0
C3037 C 0.27742 0.25876 0.61633 0.0
C3038 C 0.26839 0.26918 0.62021 0.0
C3039 C 0.25315 0.26118 0.62883 0.0
C3040 C 0.24686 0.24273 0.63356 0.0
C3041 C 0.28991 0.17054 0.65688 0.0
C3042 C 0.30486 0.18635 0.6635 0.0
C3043 C 0.27441 0.17184 0.65137 0.0
C3044 C 0.2729 0.18862 0.65287 0.0
C3045 C 0.2876 0.2041 0.65998 0.0
C3046 C 0.3037 0.20323 0.66483 0.0
C3047 C 0.2573 0.19098 0.64625 0.0
C3048 C 0.26276 0.20893 0.6407 0.0
C3049 C 0.23735 0.176 0.64513 0.0
C3050 C 0.22991 0.15654 0.65042 0.0
C3051 C 0.22838 0.15383 0.66336 0.0
C3052 C 0.22017 0.13515 0.66817 0.0
C3053 C 0.21396 0.1192 0.66018 0.0
C3054 C 0.21555 0.12182 0.64731 0.0
C3055 C 0.22326 0.14039 0.64242 0.0
H3056 H 0.20774 0.10479 0.66396 0.0
H3057 H 0.27324 0.28346 0.61655 0.0
H3058 H 0.77114 0.97837 0.59671 0.0
H3059 H 0.77636 0.00831 0.60665 0.0
H3060 H 0.81349 0.0035 0.63449 0.0
H3061 H 0.80753 0.97309 0.62485 0.0
H3062 H 0.79186 0.01466 0.64527 0.0
H3063 H 0.83202 0.0356 0.60874 0.0
H3064 H 0.83952 0.03704 0.58636 0.0
H3065 H 0.79838 0.05615 0.57839 0.0
H3066 H 0.79053 0.05471 0.60072 0.0
H3067 H 0.84388 0.11247 0.66566 0.0
H3068 H 0.8352 0.08166 0.65568 0.0
H3069 H 0.78944 0.08372 0.6346 0.0
H3070 H 0.79772 0.11448 0.64475 0.0
H3071 H 0.81398 0.0741 0.62038 0.0
H3072 H 0.776 0.05467 0.65804 0.0
H3073 H 0.77203 0.05572 0.68075 0.0
H3074 H 0.81279 0.03551 0.68679 0.0
H3075 H 0.81723 0.0346 0.6641 0.0
C3076 C 0.7804 0.98376 0.60496 0.0
C3077 C 0.78903 0.97357 0.61001 0.0
C3078 C 0.78346 0.00089 0.61059 0.0
C3079 C 0.79565 0.0084 0.62118 0.0
C3080 C 0.80406 0.99803 0.62633 0.0
C3081 C 0.80068 0.9807 0.62083 0.0
C3082 C 0.79963 0.02702 0.62693 0.0
C3083 C 0.79689 0.02767 0.63981 0.0
C3084 C 0.80588 0.044 0.61982 0.0
C3085 C 0.81052 0.04482 0.60638 0.0
C3086 C 0.82446 0.03997 0.6022 0.0
C3087 C 0.82881 0.04082 0.58953 0.0
C3088 C 0.81938 0.04661 0.58096 0.0
C3089 C 0.80561 0.0516 0.58504 0.0
C3090 C 0.80125 0.05082 0.5977 0.0
C3091 C 0.83177 0.10629 0.65906 0.0
C3092 C 0.82125 0.11578 0.65619 0.0
C3093 C 0.82692 0.08872 0.65331 0.0
C3094 C 0.81157 0.08038 0.64452 0.0
C3095 C 0.8013 0.08996 0.64141 0.0
C3096 C 0.80603 0.10749 0.64724 0.0
C3097 C 0.80632 0.06161 0.63861 0.0
C3098 C 0.80882 0.06098 0.62574 0.0
C3099 C 0.80018 0.04476 0.64574 0.0
C3100 C 0.79703 0.04468 0.65937 0.0
C3101 C 0.78418 0.05052 0.66421 0.0
C3102 C 0.78184 0.05109 0.67708 0.0
C3103 C 0.79217 0.0457 0.68521 0.0
C3104 C 0.8048 0.03967 0.68048 0.0
C3105 C 0.8072 0.03909 0.66762 0.0
H3106 H 0.79038 0.0462 0.69517 0.0
H3107 H 0.82279 0.0473 0.57115 0.0
H3108 H 0.50954 0.3616 0.72354 0.0
H3109 H 0.48448 0.3308 0.71442 0.0
H3110 H 0.44405 0.32538 0.7433 0.0
H3111 H 0.46933 0.35596 0.75265 0.0
H3112 H 0.4406 0.29155 0.73914 0.0
H3113 H 0.44109 0.34018 0.71325 0.0
H3114 H 0.45544 0.36917 0.70007 0.0
H3115 H 0.47521 0.34137 0.6742 0.0
H3116 H 0.4612 0.31229 0.68733 0.0
H3117 H 0.35528 0.22071 0.70476 0.0
H3118 H 0.37936 0.25056 0.71544 0.0
H3119 H 0.42552 0.25254 0.69284 0.0
H3120 H 0.40184 0.22245 0.68245 0.0
H3121 H 0.42447 0.28801 0.69411 0.0
H3122 H 0.4237 0.23928 0.72094 0.0
H3123 H 0.4076 0.21021 0.73403 0.0
H3124 H 0.38589 0.23843 0.75806 0.0
H3125 H 0.40169 0.26763 0.74501 0.0
C3126 C 0.49528 0.35385 0.72791 0.0
C3127 C 0.49134 0.36122 0.73875 0.0
C3128 C 0.48095 0.33626 0.72269 0.0
C3129 C 0.46221 0.3259 0.72804 0.0
C3130 C 0.45837 0.33309 0.739 0.0
C3131 C 0.47281 0.35057 0.74432 0.0
C3132 C 0.44663 0.30768 0.72211 0.0
C3133 C 0.4369 0.29088 0.72933 0.0
C3134 C 0.44185 0.30667 0.70928 0.0
C3135 C 0.45025 0.32412 0.70134 0.0
C3136 C 0.44862 0.3403 0.7048 0.0
C3137 C 0.45668 0.35674 0.69733 0.0
C3138 C 0.46627 0.35713 0.68632 0.0
C3139 C 0.46779 0.34105 0.68274 0.0
C3140 C 0.45978 0.32458 0.69019 0.0
C3141 C 0.37056 0.22744 0.70207 0.0
C3142 C 0.37654 0.21932 0.69257 0.0
C3143 C 0.38428 0.24448 0.7082 0.0
C3144 C 0.40417 0.25373 0.70489 0.0
C3145 C 0.4102 0.24566 0.69546 0.0
C3146 C 0.39658 0.22851 0.68947 0.0
C3147 C 0.41874 0.272 0.7111 0.0
C3148 C 0.4282 0.28879 0.70393 0.0
C3149 C 0.42303 0.27302 0.72398 0.0
C3150 C 0.41372 0.25558 0.73193 0.0
C3151 C 0.41537 0.23924 0.72896 0.0
C3152 C 0.40633 0.22275 0.73639 0.0
C3153 C 0.39569 0.22246 0.74685 0.0
C3154 C 0.39412 0.23868 0.74994 0.0
C3155 C 0.40314 0.25521 0.74254 0.0
H3156 H 0.38871 0.20968 0.75259 0.0
H3157 H 0.4725 0.36987 0.68055 0.0
H3158 H 0.66284 0.12996 0.74602 0.0
H3159 H 0.69261 0.13627 0.73502 0.0
H3160 H 0.66933 0.14581 0.70109 0.0
H3161 H 0.63983 0.14025 0.71206 0.0
H3162 H 0.68323 0.12062 0.69773 0.0
H3163 H 0.70551 0.18326 0.71584 0.0
H3164 H 0.71229 0.20712 0.73262 0.0
H3165 H 0.7509 0.19103 0.75054 0.0
H3166 H 0.7441 0.16684 0.73397 0.0
H3167 H 0.79724 0.18104 0.68189 0.0
H3168 H 0.76641 0.17885 0.68848 0.0
H3169 H 0.74119 0.11734 0.69367 0.0
H3170 H 0.77152 0.1194 0.68636 0.0
H3171 H 0.75101 0.17068 0.7099 0.0
H3172 H 0.69665 0.09351 0.69433 0.0
H3173 H 0.68871 0.07124 0.67635 0.0
H3174 H 0.71276 0.11951 0.65151 0.0
H3175 H 0.7211 0.14205 0.66944 0.0
C3176 C 0.66413 0.13376 0.73627 0.0
C3177 C 0.64875 0.1345 0.72997 0.0
C3178 C 0.68119 0.13729 0.72998 0.0
C3179 C 0.68324 0.14156 0.71723 0.0
C3180 C 0.66804 0.14246 0.71092 0.0
C3181 C 0.65109 0.13913 0.71721 0.0
C3182 C 0.70082 0.14425 0.71033 0.0
C3183 C 0.69805 0.13161 0.70039 0.0
C3184 C 0.72018 0.15871 0.71366 0.0
C3185 C 0.72411 0.17307 0.72373 0.0
C3186 C 0.71527 0.18465 0.72343 0.0
C3187 C 0.71916 0.19827 0.73289 0.0
C3188 C 0.73197 0.20055 0.74266 0.0
C3189 C 0.74095 0.18923 0.74298 0.0
C3190 C 0.73709 0.17556 0.73355 0.0
C3191 C 0.78485 0.16696 0.68395 0.0
C3192 C 0.78664 0.15031 0.68331 0.0
C3193 C 0.76726 0.16572 0.68787 0.0
C3194 C 0.75119 0.14786 0.69146 0.0
C3195 C 0.75296 0.13121 0.69061 0.0
C3196 C 0.77042 0.13241 0.68653 0.0
C3197 C 0.73348 0.14692 0.6973 0.0
C3198 C 0.73621 0.15978 0.70716 0.0
C3199 C 0.71404 0.13278 0.69384 0.0
C3200 C 0.70978 0.11942 0.68316 0.0
C3201 C 0.70037 0.09934 0.68503 0.0
C3202 C 0.69584 0.08669 0.67487 0.0
C3203 C 0.70039 0.09398 0.6628 0.0
C3204 C 0.70947 0.11392 0.66087 0.0
C3205 C 0.71425 0.12664 0.67102 0.0
H3206 H 0.69678 0.08417 0.65494 0.0
H3207 H 0.73498 0.21112 0.74997 0.0
H3208 H 0.84662 0.49676 0.73393 0.0
H3209 H 0.8384 0.5188 0.72299 0.0
H3210 H 0.89929 0.56377 0.72474 0.0
H3211 H 0.90764 0.54163 0.73536 0.0
H3212 H 0.86719 0.57293 0.73295 0.0
H3213 H 0.88822 0.54594 0.69943 0.0
H3214 H 0.88664 0.51882 0.68731 0.0
H3215 H 0.82582 0.49798 0.67872 0.0
H3216 H 0.82697 0.52484 0.69097 0.0
H3217 H 0.8742 0.64528 0.69369 0.0
H3218 H 0.87945 0.62104 0.70386 0.0
H3219 H 0.82444 0.57566 0.6887 0.0
H3220 H 0.81934 0.5999 0.67812 0.0
H3221 H 0.85067 0.56473 0.68781 0.0
H3222 H 0.82843 0.59107 0.71933 0.0
H3223 H 0.82716 0.6162 0.73213 0.0
H3224 H 0.88586 0.63594 0.74547 0.0
H3225 H 0.88756 0.61105 0.73263 0.0
C3226 C 0.85818 0.51137 0.73198 0.0
C3227 C 0.87773 0.51759 0.73542 0.0
C3228 C 0.85351 0.52387 0.72574 0.0
C3229 C 0.86828 0.54282 0.72309 0.0
C3230 C 0.88774 0.54917 0.72674 0.0
C3231 C 0.89249 0.53655 0.73273 0.0
C3232 C 0.86348 0.55603 0.71641 0.0
C3233 C 0.86377 0.57133 0.72306 0.0
C3234 C 0.85827 0.55332 0.70365 0.0
C3235 C 0.85761 0.53725 0.69625 0.0
C3236 C 0.87445 0.53546 0.69508 0.0
C3237 C 0.87365 0.52016 0.68816 0.0
C3238 C 0.85612 0.50664 0.68229 0.0
C3239 C 0.83937 0.50844 0.6833 0.0
C3240 C 0.8401 0.5237 0.69022 0.0
C3241 C 0.86326 0.63014 0.69244 0.0
C3242 C 0.84628 0.6245 0.68519 0.0
C3243 C 0.86623 0.6163 0.69833 0.0
C3244 C 0.8521 0.59657 0.69731 0.0
C3245 C 0.83546 0.59082 0.68969 0.0
C3246 C 0.83259 0.60468 0.68365 0.0
C3247 C 0.85476 0.58206 0.70428 0.0
C3248 C 0.85399 0.5664 0.69772 0.0
C3249 C 0.8591 0.5842 0.71722 0.0
C3250 C 0.85818 0.59927 0.72493 0.0
C3251 C 0.84113 0.60086 0.72491 0.0
C3252 C 0.84032 0.61505 0.73219 0.0
C3253 C 0.85644 0.62769 0.73959 0.0
C3254 C 0.87339 0.62614 0.73973 0.0
C3255 C 0.87427 0.61198 0.73247 0.0
H3256 H 0.85581 0.63864 0.74524 0.0
H3257 H 0.85553 0.49481 0.67693 0.0
H3258 H 0.48388 0.92088 0.18132 0.0
H3259 H 0.49002 0.93441 0.16046 0.0
H3260 H 0.44472 0.94935 0.16526 0.0
H3261 H 0.43749 0.9346 0.18577 0.0
H3262 H 0.44249 0.93707 0.14278 0.0
H3263 H 0.49582 0.98325 0.16846 0.0
H3264 H 0.52375 0.99471 0.18315 0.0
H3265 H 0.55438 0.97838 0.15714 0.0
H3266 H 0.5265 0.96658 0.14234 0.0
H3267 H 0.47609 0.01355 0.09841 0.0
H3268 H 0.46808 0.995 0.11773 0.0
H3269 H 0.50243 0.96941 0.10584 0.0
H3270 H 0.51024 0.98772 0.08638 0.0
H3271 H 0.51052 0.98585 0.13106 0.0
H3272 H 0.45667 0.94162 0.10483 0.0
H3273 H 0.42877 0.93207 0.09037 0.0
H3274 H 0.39924 0.9473 0.11789 0.0
H3275 H 0.42707 0.95716 0.1325 0.0
C3276 C 0.47494 0.92672 0.1779 0.0
C3277 C 0.46023 0.9267 0.18538 0.0
C3278 C 0.47869 0.93474 0.16599 0.0
C3279 C 0.46813 0.94332 0.16132 0.0
C3280 C 0.45318 0.94296 0.16863 0.0
C3281 C 0.44923 0.93471 0.18048 0.0
C3282 C 0.47276 0.95285 0.1489 0.0
C3283 C 0.45736 0.94787 0.1403 0.0
C3284 C 0.4922 0.96674 0.14548 0.0
C3285 C 0.50899 0.97384 0.15435 0.0
C3286 C 0.50845 0.98197 0.16591 0.0
C3287 C 0.52428 0.98855 0.17425 0.0
C3288 C 0.5408 0.98722 0.1711 0.0
C3289 C 0.54155 0.97936 0.15958 0.0
C3290 C 0.52575 0.97274 0.15121 0.0
C3291 C 0.48189 0.00394 0.09991 0.0
C3292 C 0.49382 0.0021 0.09092 0.0
C3293 C 0.47724 0.9933 0.11091 0.0
C3294 C 0.48464 0.98082 0.1132 0.0
C3295 C 0.49657 0.97896 0.10424 0.0
C3296 C 0.50094 0.98934 0.09313 0.0
C3297 C 0.48026 0.97012 0.12509 0.0
C3298 C 0.4957 0.97493 0.13357 0.0
C3299 C 0.46086 0.95632 0.12846 0.0
C3300 C 0.44405 0.95031 0.11972 0.0
C3301 C 0.44431 0.9431 0.10777 0.0
C3302 C 0.4285 0.9376 0.09954 0.0
C3303 C 0.41229 0.93915 0.10318 0.0
C3304 C 0.41183 0.94614 0.11508 0.0
C3305 C 0.4276 0.95166 0.12334 0.0
H3306 H 0.40006 0.93489 0.0968 0.0
H3307 H 0.55305 0.99233 0.17757 0.0
H3308 H 0.06858 0.56125 0.18215 0.0
H3309 H 0.05318 0.55557 0.16166 0.0
H3310 H 0.03404 0.49473 0.16427 0.0
H3311 H 0.05074 0.50051 0.18436 0.0
H3312 H 0.04543 0.50553 0.14195 0.0
H3313 H 0.00259 0.5138 0.16958 0.0
H3314 H 0.99331 0.52996 0.18563 0.0
H3315 H 0.01127 0.57886 0.16178 0.0
H3316 H 0.02091 0.56309 0.14565 0.0
H3317 H 0.9671 0.4736 0.09667 0.0
H3318 H 0.98394 0.48019 0.11697 0.0
H3319 H 0.01989 0.54035 0.10744 0.0
H3320 H 0.00346 0.53372 0.087 0.0
H3321 H 0.99964 0.52987 0.13292 0.0
H3322 H 0.04238 0.51971 0.10527 0.0
H3323 H 0.04941 0.50141 0.0895 0.0
H3324 H 0.0284 0.45307 0.11418 0.0
H3325 H 0.02094 0.47099 0.13003 0.0
C3326 C 0.06144 0.5467 0.1783 0.0
C3327 C 0.06088 0.53133 0.185 0.0
C3328 C 0.05234 0.54342 0.16663 0.0
C3329 C 0.04205 0.52464 0.16152 0.0
C3330 C 0.04175 0.50933 0.16805 0.0
C3331 C 0.05113 0.51264 0.17963 0.0
C3332 C 0.03161 0.52096 0.14936 0.0
C3333 C 0.03525 0.51067 0.14007 0.0
C3334 C 0.01846 0.52783 0.14679 0.0
C3335 C 0.01265 0.53734 0.15646 0.0
C3336 C 0.00469 0.52806 0.1678 0.0
C3337 C 0.99935 0.53714 0.1769 0.0
C3338 C 0.00175 0.55544 0.17474 0.0
C3339 C 0.00945 0.56469 0.16345 0.0
C3340 C 0.01484 0.55568 0.15432 0.0
C3341 C 0.97852 0.48823 0.09898 0.0
C3342 C 0.98405 0.50319 0.09036 0.0
C3343 C 0.98813 0.49195 0.1105 0.0
C3344 C 0.00312 0.51072 0.11362 0.0
C3345 C 0.00833 0.52578 0.10515 0.0
C3346 C 0.99902 0.52199 0.09352 0.0
C3347 C 0.01357 0.51456 0.12568 0.0
C3348 C 0.00987 0.52481 0.13489 0.0
C3349 C 0.02636 0.50737 0.12827 0.0
C3350 C 0.03088 0.4966 0.11877 0.0
C3351 C 0.03905 0.5051 0.10728 0.0
C3352 C 0.04317 0.49481 0.09834 0.0
C3353 C 0.0393 0.47606 0.10082 0.0
C3354 C 0.03135 0.46758 0.11226 0.0
C3355 C 0.02719 0.4778 0.12123 0.0
H3356 H 0.0425 0.46813 0.0939 0.0
H3357 H 0.99759 0.56245 0.1818 0.0
H3358 H 0.48581 0.51587 0.19288 0.0
H3359 H 0.4948 0.5114 0.17189 0.0
H3360 H 0.45096 0.52281 0.15637 0.0
H3361 H 0.44231 0.52806 0.17732 0.0
H3362 H 0.45125 0.49 0.14571 0.0
H3363 H 0.4959 0.5572 0.15507 0.0
H3364 H 0.52051 0.58455 0.1678 0.0
H3365 H 0.55984 0.56196 0.16532 0.0
H3366 H 0.53532 0.5343 0.15272 0.0
H3367 H 0.48277 0.49653 0.08341 0.0
H3368 H 0.47276 0.5032 0.10338 0.0
H3369 H 0.52386 0.50651 0.12097 0.0
H3370 H 0.53497 0.50168 0.10086 0.0
H3371 H 0.5189 0.53288 0.13042 0.0
H3372 H 0.4747 0.46503 0.12235 0.0
H3373 H 0.45025 0.43661 0.11028 0.0
H3374 H 0.41044 0.45876 0.11101 0.0
H3375 H 0.43476 0.48743 0.12297 0.0
C3376 C 0.47819 0.51766 0.18503 0.0
C3377 C 0.46341 0.52249 0.18684 0.0
C3378 C 0.48329 0.51497 0.17303 0.0
C3379 C 0.47364 0.51692 0.1626 0.0
C3380 C 0.45855 0.52122 0.16432 0.0
C3381 C 0.45356 0.52411 0.17632 0.0
C3382 C 0.47957 0.51472 0.14988 0.0
C3383 C 0.46595 0.49951 0.14226 0.0
C3384 C 0.49887 0.52689 0.14555 0.0
C3385 C 0.5137 0.54359 0.15305 0.0
C3386 C 0.50973 0.55798 0.15732 0.0
C3387 C 0.52367 0.57356 0.1645 0.0
C3388 C 0.54171 0.57497 0.1674 0.0
C3389 C 0.54585 0.56083 0.16308 0.0
C3390 C 0.53194 0.54522 0.15591 0.0
C3391 C 0.49215 0.49905 0.09145 0.0
C3392 C 0.50971 0.49845 0.09042 0.0
C3393 C 0.48618 0.50253 0.10296 0.0
C3394 C 0.49728 0.50492 0.1138 0.0
C3395 C 0.51492 0.50458 0.11279 0.0
C3396 C 0.52113 0.50153 0.10125 0.0
C3397 C 0.49068 0.50788 0.12619 0.0
C3398 C 0.50417 0.52331 0.13378 0.0
C3399 C 0.47131 0.49573 0.13056 0.0
C3400 C 0.45662 0.47845 0.12344 0.0
C3401 C 0.46078 0.46389 0.11987 0.0
C3402 C 0.44694 0.44773 0.11306 0.0
C3403 C 0.42882 0.44591 0.10985 0.0
C3404 C 0.42449 0.46021 0.11349 0.0
C3405 C 0.43828 0.4764 0.12029 0.0
H3406 H 0.41813 0.4334 0.10457 0.0
H3407 H 0.55249 0.58704 0.17295 0.0
H3408 H 0.93675 0.49622 0.83174 0.0
H3409 H 0.95006 0.50237 0.85298 0.0
H3410 H 0.95787 0.45265 0.85025 0.0
H3411 H 0.94391 0.44599 0.82921 0.0
H3412 H 0.94346 0.45431 0.87259 0.0
H3413 H 0.99627 0.49852 0.84611 0.0
H3414 H 0.01201 0.5244 0.8306 0.0
H3415 H 0.00431 0.56334 0.85462 0.0
H3416 H 0.98828 0.53758 0.87021 0.0
H3417 H 0.01913 0.47518 0.9166 0.0
H3418 H 1.00104 0.47052 0.89703 0.0
H3419 H 0.98773 0.51473 0.90818 0.0
H3420 H 0.00563 0.51931 0.92787 0.0
H3421 H 0.00285 0.51736 0.88272 0.0
H3422 H 0.95228 0.47387 0.90989 0.0
H3423 H 0.93736 0.4482 0.9256 0.0
H3424 H 0.94135 0.4082 0.90048 0.0
H3425 H 0.95656 0.43372 0.88467 0.0
C3426 C 0.94105 0.48644 0.83573 0.0
C3427 C 0.93939 0.47068 0.82876 0.0
C3428 C 0.9488 0.49008 0.84782 0.0
C3429 C 0.95517 0.47811 0.85313 0.0
C3430 C 0.9531 0.46211 0.84632 0.0
C3431 C 0.94531 0.45844 0.83425 0.0
C3432 C 0.96448 0.48245 0.86566 0.0
C3433 C 0.95652 0.46805 0.87477 0.0
C3434 C 0.98123 0.50057 0.86861 0.0
C3435 C 0.99088 0.51606 0.85925 0.0
C3436 C 0.99779 0.51255 0.84803 0.0
C3437 C 0.00679 0.52721 0.83924 0.0
C3438 C 0.0091 0.54549 0.8416 0.0
C3439 C 0.00247 0.54916 0.85279 0.0
C3440 C 0.99344 0.53455 0.86161 0.0
C3441 C 0.01248 0.484 0.91482 0.0
C3442 C 0.0138 0.49764 0.92369 0.0
C3443 C 0.00208 0.48125 0.90371 0.0
C3444 C 0.99304 0.49224 0.90125 0.0
C3445 C 0.99463 0.50613 0.90996 0.0
C3446 C 0.00477 0.50868 0.92118 0.0
C3447 C 0.98199 0.48913 0.88949 0.0
C3448 C 0.98965 0.50374 0.88055 0.0
C3449 C 0.96499 0.47122 0.8867 0.0
C3450 C 0.95574 0.45577 0.89614 0.0
C3451 C 0.95015 0.45965 0.90776 0.0
C3452 C 0.9416 0.44512 0.91667 0.0
C3453 C 0.93847 0.4266 0.91405 0.0
C3454 C 0.94381 0.42256 0.9025 0.0
C3455 C 0.95237 0.43705 0.89355 0.0
H3456 H 0.93185 0.41536 0.92097 0.0
H3457 H 0.01607 0.55681 0.83478 0.0
H3458 H 0.57129 0.50146 0.83056 0.0
H3459 H 0.56265 0.50851 0.85115 0.0
H3460 H 0.50282 0.4625 0.84564 0.0
H3461 H 0.51143 0.45523 0.82518 0.0
H3462 H 0.50755 0.49909 0.85444 0.0
H3463 H 0.52943 0.45342 0.86341 0.0
H3464 H 0.55318 0.44178 0.86306 0.0
H3465 H 0.59526 0.49274 0.88309 0.0
H3466 H 0.57184 0.50483 0.88339 0.0
H3467 H 0.46598 0.48652 0.91369 0.0
H3468 H 0.47751 0.48164 0.89365 0.0
H3469 H 0.53763 0.51804 0.90588 0.0
H3470 H 0.52609 0.5225 0.92613 0.0
H3471 H 0.53492 0.48871 0.89348 0.0
H3472 H 0.51427 0.5345 0.88559 0.0
H3473 H 0.49202 0.54793 0.88578 0.0
H3474 H 0.44993 0.49997 0.86349 0.0
H3475 H 0.47181 0.48609 0.8633 0.0
C3476 C 0.5563 0.49292 0.83376 0.0
C3477 C 0.54203 0.47777 0.82633 0.0
C3478 C 0.55141 0.4969 0.8455 0.0
C3479 C 0.53212 0.48596 0.8499 0.0
C3480 C 0.51779 0.47107 0.8424 0.0
C3481 C 0.52273 0.46688 0.83077 0.0
C3482 C 0.52677 0.48997 0.86233 0.0
C3483 C 0.51336 0.49666 0.863 0.0
C3484 C 0.53492 0.48742 0.87343 0.0
C3485 C 0.54897 0.48013 0.87329 0.0
C3486 C 0.54382 0.46224 0.86763 0.0
C3487 C 0.5572 0.45554 0.86747 0.0
C3488 C 0.57574 0.46655 0.87302 0.0
C3489 C 0.58091 0.48425 0.87877 0.0
C3490 C 0.56758 0.49103 0.87895 0.0
C3491 C 0.48165 0.49354 0.91208 0.0
C3492 C 0.49513 0.50506 0.92142 0.0
C3493 C 0.48825 0.49078 0.90061 0.0
C3494 C 0.50846 0.49984 0.89812 0.0
C3495 C 0.52197 0.51099 0.90754 0.0
C3496 C 0.51537 0.51353 0.91911 0.0
C3497 C 0.51539 0.49762 0.88566 0.0
C3498 C 0.52915 0.4913 0.88496 0.0
C3499 C 0.5078 0.50083 0.87449 0.0
C3500 C 0.49462 0.50917 0.87452 0.0
C3501 C 0.50021 0.52674 0.8808 0.0
C3502 C 0.48767 0.53445 0.8809 0.0
C3503 C 0.46955 0.52479 0.87468 0.0
C3504 C 0.46396 0.50742 0.86831 0.0
C3505 C 0.47644 0.49964 0.8682 0.0
H3506 H 0.45986 0.53077 0.87477 0.0
H3507 H 0.58608 0.46133 0.87289 0.0
H3508 H 0.56788 0.07261 0.82622 0.0
H3509 H 0.56091 0.05863 0.84698 0.0
H3510 H 0.50056 0.04476 0.84314 0.0
H3511 H 0.50767 0.05973 0.82267 0.0
H3512 H 0.51264 0.05783 0.86552 0.0
H3513 H 0.51556 0.01005 0.83976 0.0
H3514 H 0.53009 0.99736 0.82472 0.0
H3515 H 0.5786 0.01269 0.84975 0.0
H3516 H 0.56448 0.02571 0.86487 0.0
H3517 H 0.4704 0.98504 0.91207 0.0
H3518 H 0.47996 0.00192 0.89213 0.0
H3519 H 0.54107 0.02474 0.90162 0.0
H3520 H 0.53158 0.00802 0.92168 0.0
H3521 H 0.52989 0.00797 0.87697 0.0
H3522 H 0.525 0.05438 0.90316 0.0
H3523 H 0.50891 0.06559 0.91804 0.0
H3524 H 0.46201 0.05089 0.89177 0.0
H3525 H 0.47769 0.03931 0.8768 0.0
C3526 C 0.55317 0.06683 0.82982 0.0
C3527 C 0.53834 0.0673 0.82266 0.0
C3528 C 0.54913 0.05858 0.84168 0.0
C3529 C 0.5301 0.0503 0.84661 0.0
C3530 C 0.51534 0.05094 0.83956 0.0
C3531 C 0.5194 0.05934 0.82775 0.0
C3532 C 0.52556 0.04104 0.85912 0.0
C3533 C 0.51622 0.04676 0.86794 0.0
C3534 C 0.53054 0.02685 0.86246 0.0
C3535 C 0.53907 0.01904 0.85339 0.0
C3536 C 0.52941 0.01085 0.84201 0.0
C3537 C 0.53755 0.00358 0.83348 0.0
C3538 C 0.55528 0.00427 0.83627 0.0
C3539 C 0.56488 0.0122 0.8476 0.0
C3540 C 0.55681 0.01951 0.85616 0.0
C3541 C 0.48588 0.99363 0.9099 0.0
C3542 C 0.50025 0.99519 0.91843 0.0
C3543 C 0.49131 0.00334 0.89854 0.0
C3544 C 0.51123 0.01464 0.89541 0.0
C3545 C 0.52563 0.01611 0.90386 0.0
C3546 C 0.5202 0.00665 0.91533 0.0
C3547 C 0.51691 0.0247 0.88324 0.0
C3548 C 0.52642 0.0191 0.87452 0.0
C3549 C 0.51187 0.03881 0.87993 0.0
C3550 C 0.50243 0.04579 0.88891 0.0
C3551 C 0.51117 0.05337 0.9006 0.0
C3552 C 0.50214 0.05982 0.90904 0.0
C3553 C 0.48442 0.0589 0.90586 0.0
C3554 C 0.47572 0.05157 0.89422 0.0
C3555 C 0.48468 0.04507 0.88575 0.0
H3556 H 0.47746 0.06391 0.91241 0.0
H3557 H 0.56156 0.99863 0.82965 0.0
H3558 H 0.16018 0.25951 0.51906 0.0
H3559 H 0.1682 0.27359 0.49828 0.0
H3560 H 0.11017 0.26623 0.49466 0.0
H3561 H 0.10193 0.25187 0.51544 0.0
H3562 H 0.12251 0.25601 0.47285 0.0
H3563 H 0.14692 0.30953 0.50164 0.0
H3564 H 0.16557 0.32904 0.51995 0.0
H3565 H 0.21918 0.33699 0.50411 0.0
H3566 H 0.20079 0.31729 0.48578 0.0
H3567 H 0.14615 0.31914 0.42051 0.0
H3568 H 0.13449 0.30191 0.44022 0.0
H3569 H 0.19372 0.31599 0.44958 0.0
H3570 H 0.20543 0.33383 0.43018 0.0
H3571 H 0.17895 0.32266 0.46868 0.0
H3572 H 0.15469 0.26873 0.43987 0.0
H3573 H 0.13605 0.24908 0.42159 0.0
H3574 H 0.08249 0.24156 0.43722 0.0
H3575 H 0.10085 0.2614 0.45551 0.0
C3576 C 0.14903 0.26066 0.5138 0.0
C3577 C 0.13042 0.2546 0.51894 0.0
C3578 C 0.15368 0.26883 0.50194 0.0
C3579 C 0.13984 0.27112 0.49494 0.0
C3580 C 0.12109 0.26464 0.49989 0.0
C3581 C 0.11646 0.25658 0.51181 0.0
C3582 C 0.14526 0.28085 0.48263 0.0
C3583 C 0.13471 0.27066 0.47192 0.0
C3584 C 0.16135 0.29986 0.4814 0.0
C3585 C 0.17245 0.31178 0.49239 0.0
C3586 C 0.16266 0.31531 0.50211 0.0
C3587 C 0.17319 0.32642 0.51248 0.0
C3588 C 0.19354 0.33421 0.51321 0.0
C3589 C 0.20341 0.33093 0.50354 0.0
C3590 C 0.19295 0.3198 0.49315 0.0
C3591 C 0.1566 0.31837 0.42675 0.0
C3592 C 0.17671 0.32792 0.42385 0.0
C3593 C 0.14993 0.30845 0.438 0.0
C3594 C 0.16317 0.30745 0.44643 0.0
C3595 C 0.18318 0.3166 0.44334 0.0
C3596 C 0.18988 0.32678 0.43223 0.0
C3597 C 0.15653 0.29771 0.45873 0.0
C3598 C 0.16679 0.30796 0.46951 0.0
C3599 C 0.14024 0.27874 0.45998 0.0
C3600 C 0.12918 0.2667 0.44901 0.0
C3601 C 0.13896 0.26299 0.43937 0.0
C3602 C 0.12844 0.25181 0.42901 0.0
C3603 C 0.1081 0.24409 0.42824 0.0
C3604 C 0.09824 0.24755 0.43783 0.0
C3605 C 0.1087 0.25875 0.44819 0.0
H3606 H 0.09996 0.23539 0.42024 0.0
H3607 H 0.20166 0.34282 0.52124 0.0
H3608 H 0.74005 0.89702 0.51461 0.0
H3609 H 0.72627 0.89137 0.4936 0.0
H3610 H 0.71628 0.83304 0.49416 0.0
H3611 H 0.73105 0.83892 0.51496 0.0
H3612 H 0.72925 0.84851 0.47199 0.0
H3613 H 0.679 0.84269 0.49981 0.0
H3614 H 0.66467 0.85298 0.51653 0.0
H3615 H 0.67453 0.90222 0.49508 0.0
H3616 H 0.68916 0.89236 0.4783 0.0
H3617 H 0.64531 0.80586 0.42934 0.0
H3618 H 0.66436 0.81499 0.44887 0.0
H3619 H 0.69666 0.87436 0.43701 0.0
H3620 H 0.67799 0.86523 0.41729 0.0
H3621 H 0.67337 0.85964 0.46412 0.0
H3622 H 0.72569 0.86544 0.43678 0.0
H3623 H 0.73848 0.85341 0.42014 0.0
H3624 H 0.72194 0.80176 0.44087 0.0
H3625 H 0.70907 0.81353 0.45768 0.0
C3626 C 0.73526 0.88309 0.5102 0.0
C3627 C 0.73659 0.86839 0.51651 0.0
C3628 C 0.72717 0.87982 0.49823 0.0
C3629 C 0.71995 0.86168 0.49239 0.0
C3630 C 0.72168 0.84712 0.49852 0.0
C3631 C 0.72992 0.85044 0.51046 0.0
C3632 C 0.71012 0.85775 0.48005 0.0
C3633 C 0.71697 0.85086 0.47033 0.0
C3634 C 0.6942 0.86097 0.4778 0.0
C3635 C 0.68536 0.8669 0.48786 0.0
C3636 C 0.67825 0.8558 0.4987 0.0
C3637 C 0.67005 0.86153 0.50818 0.0
C3638 C 0.66874 0.87827 0.50688 0.0
C3639 C 0.67558 0.88927 0.49608 0.0
C3640 C 0.68381 0.88361 0.48658 0.0
C3641 C 0.6565 0.82084 0.43092 0.0
C3642 C 0.66022 0.83488 0.4219 0.0
C3643 C 0.66737 0.82599 0.442 0.0
C3644 C 0.68186 0.84528 0.44427 0.0
C3645 C 0.68556 0.85939 0.43533 0.0
C3646 C 0.67495 0.85417 0.42412 0.0
C3647 C 0.69267 0.85067 0.4562 0.0
C3648 C 0.68583 0.85759 0.46584 0.0
C3649 C 0.70844 0.84734 0.45841 0.0
C3650 C 0.71622 0.84025 0.44839 0.0
C3651 C 0.72462 0.85143 0.43773 0.0
C3652 C 0.73192 0.84469 0.42829 0.0
C3653 C 0.73089 0.82676 0.42939 0.0
C3654 C 0.72268 0.81561 0.44001 0.0
C3655 C 0.71544 0.82234 0.44951 0.0
H3656 H 0.73651 0.82155 0.42205 0.0
H3657 H 0.66239 0.88269 0.51423 0.0
H3658 H 0.09571 0.84002 0.5159 0.0
H3659 H 0.10245 0.83424 0.49457 0.0
H3660 H 0.15992 0.88527 0.4969 0.0
H3661 H 0.15299 0.89161 0.51802 0.0
H3662 H 0.14401 0.88274 0.47447 0.0
H3663 H 0.15318 0.83967 0.50137 0.0
H3664 H 0.1435 0.81416 0.51709 0.0
H3665 H 0.09615 0.77408 0.49338 0.0
H3666 H 0.1054 0.79945 0.47758 0.0
H3667 H 0.19986 0.86106 0.43209 0.0
H3668 H 0.18581 0.86656 0.45095 0.0
H3669 H 0.12793 0.82229 0.43906 0.0
H3670 H 0.1419 0.81695 0.42001 0.0
H3671 H 0.14027 0.81998 0.46499 0.0
H3672 H 0.1339 0.86279 0.43703 0.0
H3673 H 0.14588 0.88802 0.42099 0.0
H3674 H 0.18947 0.92861 0.44655 0.0
H3675 H 0.17798 0.9035 0.46271 0.0
C3676 C 0.10967 0.8502 0.51181 0.0
C3677 C 0.12387 0.8662 0.51874 0.0
C3678 C 0.11356 0.84677 0.49964 0.0
C3679 C 0.13181 0.85916 0.49418 0.0
C3680 C 0.14577 0.87546 0.50092 0.0
C3681 C 0.14186 0.87894 0.51306 0.0
C3682 C 0.13675 0.85478 0.48167 0.0
C3683 C 0.14327 0.86905 0.47244 0.0
C3684 C 0.13542 0.83677 0.47888 0.0
C3685 C 0.12983 0.82152 0.48837 0.0
C3686 C 0.1406 0.82546 0.49956 0.0
C3687 C 0.13521 0.81102 0.50847 0.0
C3688 C 0.11918 0.79253 0.50625 0.0
C3689 C 0.10853 0.78843 0.4951 0.0
C3690 C 0.11385 0.80282 0.48616 0.0
C3691 C 0.18415 0.85251 0.43351 0.0
C3692 C 0.17196 0.83853 0.42465 0.0
C3693 C 0.17615 0.85571 0.44423 0.0
C3694 C 0.15586 0.84483 0.44635 0.0
C3695 C 0.14362 0.83081 0.43755 0.0
C3696 C 0.15159 0.82784 0.42669 0.0
C3697 C 0.14767 0.84797 0.45795 0.0
C3698 C 0.14066 0.83352 0.467 0.0
C3699 C 0.14865 0.86581 0.46058 0.0
C3700 C 0.1552 0.88118 0.45105 0.0
C3701 C 0.14613 0.87705 0.43922 0.0
C3702 C 0.15282 0.89133 0.4301 0.0
C3703 C 0.16849 0.90986 0.43273 0.0
C3704 C 0.17736 0.91422 0.44452 0.0
C3705 C 0.17075 0.89997 0.45367 0.0
H3706 H 0.17378 0.92082 0.42562 0.0
H3707 H 0.11504 0.78137 0.51316 0.0
H3708 H 0.62517 0.79114 0.15367 0.0
H3709 H 0.6352 0.79501 0.17544 0.0
H3710 H 0.62685 0.84434 0.17885 0.0
H3711 H 0.61807 0.84139 0.15676 0.0
H3712 H 0.659 0.85216 0.1902 0.0
H3713 H 0.59377 0.79885 0.19134 0.0
H3714 H 0.56548 0.76722 0.1853 0.0
H3715 H 0.59757 0.73894 0.19589 0.0
H3716 H 0.62616 0.77045 0.20183 0.0
H3717 H 0.66757 0.85213 0.25683 0.0
H3718 H 0.65289 0.84867 0.23607 0.0
H3719 H 0.67078 0.80746 0.22573 0.0
H3720 H 0.68552 0.81091 0.24643 0.0
H3721 H 0.63124 0.79629 0.21885 0.0
H3722 H 0.69735 0.85141 0.21621 0.0
H3723 H 0.72445 0.88344 0.22281 0.0
H3724 H 0.68822 0.90862 0.21577 0.0
H3725 H 0.66079 0.87666 0.20929 0.0
C3726 C 0.62569 0.803 0.15896 0.0
C3727 C 0.62086 0.816 0.15337 0.0
C3728 C 0.63113 0.80499 0.17151 0.0
C3729 C 0.63144 0.81975 0.17889 0.0
C3730 C 0.62661 0.83276 0.17338 0.0
C3731 C 0.6214 0.83092 0.16075 0.0
C3732 C 0.63748 0.82193 0.19223 0.0
C3733 C 0.65263 0.84 0.19651 0.0
C3734 C 0.62936 0.80606 0.20048 0.0
C3735 C 0.61218 0.78705 0.19694 0.0
C3736 C 0.59485 0.78591 0.1923 0.0
C3737 C 0.57875 0.768 0.1889 0.0
C3738 C 0.57974 0.75109 0.19019 0.0
C3739 C 0.59683 0.75206 0.19489 0.0
C3740 C 0.61298 0.76994 0.19829 0.0
C3741 C 0.66823 0.84224 0.25014 0.0
C3742 C 0.67776 0.83186 0.25319 0.0
C3743 C 0.65992 0.84034 0.2383 0.0
C3744 C 0.66085 0.82788 0.22938 0.0
C3745 C 0.66993 0.81715 0.2325 0.0
C3746 C 0.67845 0.81923 0.24427 0.0
C3747 C 0.65285 0.82634 0.21664 0.0
C3748 C 0.63737 0.80842 0.21252 0.0
C3749 C 0.66043 0.84239 0.2086 0.0
C3750 C 0.67696 0.86162 0.2124 0.0
C3751 C 0.69511 0.86375 0.21617 0.0
C3752 C 0.71054 0.88189 0.21987 0.0
C3753 C 0.70804 0.89805 0.21974 0.0
C3754 C 0.69012 0.89609 0.21588 0.0
C3755 C 0.67463 0.87797 0.21218 0.0
H3756 H 0.72 0.91208 0.22261 0.0
H3757 H 0.56726 0.73724 0.18755 0.0
H3758 H 0.18428 0.78024 0.16194 0.0
H3759 H 0.17676 0.78534 0.18309 0.0
H3760 H 0.2173 0.84662 0.18 0.0
H3761 H 0.22606 0.84146 0.15911 0.0
H3762 H 0.22059 0.83592 0.20216 0.0
H3763 H 0.16583 0.82595 0.17701 0.0
H3764 H 0.13868 0.8092 0.16181 0.0
H3765 H 0.11113 0.7597 0.18558 0.0
H3766 H 0.13826 0.77607 0.20085 0.0
H3767 H 0.17651 0.8653 0.25006 0.0
H3768 H 0.18748 0.85951 0.22993 0.0
H3769 H 0.16103 0.79881 0.23831 0.0
H3770 H 0.15041 0.80462 0.2586 0.0
H3771 H 0.15077 0.80901 0.21396 0.0
H3772 H 0.20629 0.82098 0.23952 0.0
H3773 H 0.23322 0.83946 0.25458 0.0
H3774 H 0.25899 0.88762 0.22967 0.0
H3775 H 0.23202 0.86952 0.21453 0.0
C3776 C 0.19193 0.79479 0.16578 0.0
C3777 C 0.2058 0.81043 0.15869 0.0
C3778 C 0.18736 0.79772 0.17787 0.0
C3779 C 0.19613 0.81643 0.18311 0.0
C3780 C 0.21021 0.83205 0.17617 0.0
C3781 C 0.21503 0.82909 0.16412 0.0
C3782 C 0.19048 0.81968 0.19575 0.0
C3783 C 0.20532 0.83022 0.20466 0.0
C3784 C 0.17054 0.81204 0.19916 0.0
C3785 C 0.15418 0.80217 0.19001 0.0
C3786 C 0.15405 0.81144 0.17895 0.0
C3787 C 0.13866 0.80202 0.17033 0.0
C3788 C 0.12322 0.78338 0.17272 0.0
C3789 C 0.12312 0.77413 0.18374 0.0
C3790 C 0.13849 0.78348 0.19239 0.0
C3791 C 0.17315 0.85075 0.24761 0.0
C3792 C 0.16261 0.83539 0.25584 0.0
C3793 C 0.17947 0.84748 0.23617 0.0
C3794 C 0.17508 0.82875 0.23268 0.0
C3795 C 0.16457 0.81337 0.24087 0.0
C3796 C 0.15859 0.81671 0.25244 0.0
C3797 C 0.18084 0.82514 0.22025 0.0
C3798 C 0.16601 0.81461 0.21141 0.0
C3799 C 0.20075 0.83305 0.21686 0.0
C3800 C 0.217 0.84397 0.22595 0.0
C3801 C 0.21758 0.83559 0.23731 0.0
C3802 C 0.23288 0.84597 0.24585 0.0
C3803 C 0.24778 0.86472 0.2431 0.0
C3804 C 0.24743 0.8731 0.23179 0.0
C3805 C 0.23214 0.86278 0.22322 0.0
H3806 H 0.25962 0.87272 0.24972 0.0
H3807 H 0.11131 0.77611 0.16603 0.0
H3808 H 0.2267 0.39772 0.1594 0.0
H3809 H 0.21856 0.38361 0.18028 0.0
H3810 H 0.17642 0.40282 0.18437 0.0
H3811 H 0.1842 0.41658 0.16338 0.0
H3812 H 0.20366 0.40969 0.20622 0.0
H3813 H 0.15754 0.35982 0.1779 0.0
H3814 H 0.14863 0.3387 0.15929 0.0
H3815 H 0.18292 0.31436 0.17301 0.0
H3816 H 0.19229 0.33558 0.19162 0.0
H3817 H 0.15163 0.35352 0.25903 0.0
H3818 H 0.16224 0.37117 0.23938 0.0
H3819 H 0.18704 0.33584 0.2282 0.0
H3820 H 0.1755 0.31761 0.24751 0.0
H3821 H 0.16903 0.33818 0.20972 0.0
H3822 H 0.21431 0.38585 0.23845 0.0
H3823 H 0.22511 0.40741 0.25689 0.0
H3824 H 0.19624 0.43697 0.24266 0.0
H3825 H 0.18461 0.41513 0.22433 0.0
C3826 C 0.21582 0.39905 0.1648 0.0
C3827 C 0.20603 0.40818 0.15976 0.0
C3828 C 0.21116 0.39098 0.1767 0.0
C3829 C 0.1969 0.39219 0.18387 0.0
C3830 C 0.18752 0.40179 0.17901 0.0
C3831 C 0.19188 0.40952 0.16701 0.0
C3832 C 0.19112 0.38262 0.19619 0.0
C3833 C 0.1959 0.39405 0.20705 0.0
C3834 C 0.18149 0.36227 0.19723 0.0
C3835 C 0.17579 0.34944 0.18608 0.0
C3836 C 0.16333 0.3501 0.17689 0.0
C3837 C 0.15817 0.33808 0.16635 0.0
C3838 C 0.16525 0.32523 0.16495 0.0
C3839 C 0.17747 0.32434 0.1741 0.0
C3840 C 0.1827 0.33635 0.18465 0.0
C3841 C 0.15951 0.3497 0.25239 0.0
C3842 C 0.16272 0.3342 0.25475 0.0
C3843 C 0.16567 0.35985 0.24117 0.0
C3844 C 0.17569 0.35506 0.23225 0.0
C3845 C 0.17928 0.33983 0.23482 0.0
C3846 C 0.17274 0.32943 0.24588 0.0
C3847 C 0.18167 0.36518 0.22001 0.0
C3848 C 0.17687 0.35384 0.20906 0.0
C3849 C 0.19159 0.38566 0.21896 0.0
C3850 C 0.19844 0.39871 0.23004 0.0
C3851 C 0.21009 0.39681 0.2393 0.0
C3852 C 0.2164 0.40912 0.24972 0.0
C3853 C 0.21149 0.42363 0.2509 0.0
C3854 C 0.20007 0.42575 0.24172 0.0
C3855 C 0.19357 0.41337 0.23132 0.0
H3856 H 0.21656 0.43326 0.25891 0.0
H3857 H 0.16123 0.31594 0.15679 0.0
H3858 H 0.78074 0.56485 0.84399 0.0
H3859 H 0.78847 0.57849 0.82305 0.0
H3860 H 0.82821 0.63483 0.83888 0.0
H3861 H 0.81985 0.62133 0.85981 0.0
H3862 H 0.80941 0.63965 0.82144 0.0
H3863 H 0.84334 0.60384 0.82388 0.0
H3864 H 0.84702 0.57525 0.82722 0.0
H3865 H 0.80614 0.54509 0.79737 0.0
H3866 H 0.80202 0.57342 0.79396 0.0
H3867 H 0.86813 0.68436 0.76858 0.0
H3868 H 0.85755 0.66672 0.78804 0.0
H3869 H 0.80534 0.62196 0.76988 0.0
H3870 H 0.8152 0.63999 0.75041 0.0
H3871 H 0.82857 0.61002 0.78749 0.0
H3872 H 0.79652 0.64826 0.78518 0.0
H3873 H 0.79591 0.67851 0.78186 0.0
H3874 H 0.83715 0.70586 0.81198 0.0
H3875 H 0.83824 0.67585 0.81534 0.0
C3876 C 0.79117 0.58013 0.84298 0.0
C3877 C 0.79971 0.59201 0.85355 0.0
C3878 C 0.79568 0.58793 0.83099 0.0
C3879 C 0.80922 0.6077 0.82927 0.0
C3880 C 0.8177 0.61956 0.83987 0.0
C3881 C 0.81293 0.61184 0.85185 0.0
C3882 C 0.81437 0.61618 0.81652 0.0
C3883 C 0.81377 0.63319 0.81411 0.0
C3884 C 0.81976 0.60771 0.80674 0.0
C3885 C 0.82221 0.59067 0.80876 0.0
C3886 C 0.83502 0.59105 0.8181 0.0
C3887 C 0.83721 0.57491 0.81999 0.0
C3888 C 0.82678 0.55834 0.81254 0.0
C3889 C 0.81418 0.55791 0.80315 0.0
C3890 C 0.81192 0.57401 0.80123 0.0
C3891 C 0.85423 0.67092 0.76865 0.0
C3892 C 0.84231 0.664 0.75785 0.0
C3893 C 0.84834 0.66073 0.77981 0.0
C3894 C 0.83058 0.64314 0.78044 0.0
C3895 C 0.8191 0.63555 0.76959 0.0
C3896 C 0.82483 0.64592 0.75843 0.0
C3897 C 0.82371 0.63338 0.79262 0.0
C3898 C 0.82404 0.61626 0.79488 0.0
C3899 C 0.81841 0.64188 0.80234 0.0
C3900 C 0.8176 0.65987 0.80043 0.0
C3901 C 0.80559 0.66078 0.79102 0.0
C3902 C 0.80513 0.67787 0.78915 0.0
C3903 C 0.81652 0.69412 0.79669 0.0
C3904 C 0.82835 0.69328 0.80614 0.0
C3905 C 0.82888 0.67622 0.80804 0.0
H3906 H 0.81615 0.70734 0.79522 0.0
H3907 H 0.82849 0.54586 0.81402 0.0
H3908 H 0.40693 0.22664 0.85441 0.0
H3909 H 0.39618 0.22292 0.83272 0.0
H3910 H 0.3806 0.16284 0.83323 0.0
H3911 H 0.39227 0.16667 0.85477 0.0
H3912 H 0.39729 0.1788 0.81157 0.0
H3913 H 0.3459 0.17674 0.83701 0.0
H3914 H 0.33178 0.1888 0.85278 0.0
H3915 H 0.34855 0.23963 0.83107 0.0
H3916 H 0.363 0.22798 0.81525 0.0
H3917 H 0.31884 0.13792 0.76652 0.0
H3918 H 0.33791 0.14753 0.78603 0.0
H3919 H 0.36568 0.20744 0.77532 0.0
H3920 H 0.34701 0.19782 0.75557 0.0
H3921 H 0.3455 0.19479 0.80102 0.0
H3922 H 0.39455 0.19513 0.77467 0.0
H3923 H 0.40747 0.18207 0.75878 0.0
H3924 H 0.39391 0.13351 0.78208 0.0
H3925 H 0.38059 0.14613 0.79803 0.0
C3926 C 0.40158 0.2127 0.84987 0.0
C3927 C 0.4004 0.19692 0.85639 0.0
C3928 C 0.39523 0.21056 0.83748 0.0
C3929 C 0.38729 0.19252 0.8314 0.0
C3930 C 0.3866 0.17688 0.83775 0.0
C3931 C 0.39308 0.17904 0.85012 0.0
C3932 C 0.37903 0.18977 0.8186 0.0
C3933 C 0.38588 0.18218 0.8093 0.0
C3934 C 0.36444 0.19459 0.81553 0.0
C3935 C 0.35572 0.20159 0.82502 0.0
C3936 C 0.34671 0.19056 0.83565 0.0
C3937 C 0.33862 0.19731 0.84459 0.0
C3938 C 0.33932 0.215 0.84295 0.0
C3939 C 0.34805 0.22595 0.83234 0.0
C3940 C 0.35618 0.21928 0.82338 0.0
C3941 C 0.32908 0.15312 0.76833 0.0
C3942 C 0.33146 0.16717 0.75964 0.0
C3943 C 0.33998 0.15856 0.77941 0.0
C3944 C 0.35317 0.17815 0.78204 0.0
C3945 C 0.35558 0.19225 0.77339 0.0
C3946 C 0.34497 0.18676 0.76216 0.0
C3947 C 0.36367 0.18373 0.79413 0.0
C3948 C 0.35713 0.19171 0.80329 0.0
C3949 C 0.37843 0.17919 0.79707 0.0
C3950 C 0.38637 0.17148 0.7875 0.0
C3951 C 0.39411 0.18155 0.77635 0.0
C3952 C 0.40156 0.17425 0.76734 0.0
C3953 C 0.40147 0.15694 0.76941 0.0
C3954 C 0.39395 0.14691 0.78049 0.0
C3955 C 0.38646 0.15414 0.78952 0.0
H3956 H 0.40728 0.15133 0.76243 0.0
H3957 H 0.33305 0.2202 0.84988 0.0
H3958 H 0.83379 0.21521 0.85519 0.0
H3959 H 0.84125 0.21007 0.83402 0.0
H3960 H 0.78133 0.16405 0.82874 0.0
H3961 H 0.77407 0.16819 0.85026 0.0
H3962 H 0.8043 0.15344 0.81891 0.0
H3963 H 0.79957 0.21043 0.81584 0.0
H3964 H 0.80619 0.24325 0.8213 0.0
H3965 H 0.86732 0.26647 0.81309 0.0
H3966 H 0.86111 0.23374 0.80774 0.0
H3967 H 0.81549 0.15165 0.75267 0.0
H3968 H 0.80455 0.15661 0.77305 0.0
H3969 H 0.8649 0.19414 0.78431 0.0
H3970 H 0.87591 0.18921 0.764 0.0
H3971 H 0.83934 0.20868 0.79023 0.0
H3972 H 0.84271 0.14992 0.79427 0.0
H3973 H 0.83448 0.11682 0.78819 0.0
H3974 H 0.77319 0.0968 0.79373 0.0
H3975 H 0.78104 0.12987 0.79967 0.0
C3976 C 0.82222 0.20379 0.84963 0.0
C3977 C 0.8033 0.19211 0.85452 0.0
C3978 C 0.82644 0.20108 0.8374 0.0
C3979 C 0.81177 0.18692 0.82964 0.0
C3980 C 0.79289 0.17516 0.83449 0.0
C3981 C 0.78871 0.17769 0.84679 0.0
C3982 C 0.8163 0.18414 0.81659 0.0
C3983 C 0.81165 0.1655 0.81259 0.0
C3984 C 0.82609 0.19986 0.80831 0.0
C3985 C 0.82989 0.2196 0.81149 0.0
C3986 C 0.81445 0.22251 0.81528 0.0
C3987 C 0.81812 0.24111 0.81835 0.0
C3988 C 0.83717 0.25693 0.81757 0.0
C3989 C 0.85257 0.25419 0.81369 0.0
C3990 C 0.84898 0.23563 0.81063 0.0
C3991 C 0.82639 0.16106 0.75947 0.0
C3992 C 0.84655 0.16997 0.75679 0.0
C3993 C 0.82014 0.16381 0.77111 0.0
C3994 C 0.83394 0.17565 0.78019 0.0
C3995 C 0.85404 0.18493 0.77742 0.0
C3996 C 0.8603 0.182 0.76586 0.0
C3997 C 0.82752 0.17811 0.79271 0.0
C3998 C 0.83183 0.19667 0.79657 0.0
C3999 C 0.81715 0.1623 0.80078 0.0
C4000 C 0.81244 0.1424 0.79728 0.0
C4001 C 0.82746 0.13849 0.79409 0.0
C4002 C 0.82287 0.11973 0.79069 0.0
C4003 C 0.80332 0.10473 0.79054 0.0
C4004 C 0.78832 0.10844 0.79383 0.0
C4005 C 0.79284 0.12719 0.79722 0.0
H4006 H 0.79979 0.09021 0.7879 0.0
H4007 H 0.83998 0.27131 0.81994 0.0
H4008 H 0.25053 0.13352 0.50174 0.0
H4009 H 0.26373 0.13987 0.52301 0.0
H4010 H 0.31955 0.14997 0.50934 0.0
H4011 H 0.30687 0.14453 0.48802 0.0
H4012 H 0.30417 0.12407 0.5302 0.0
H4013 H 0.31673 0.18723 0.51697 0.0
H4014 H 0.30706 0.21003 0.50867 0.0
H4015 H 0.2671 0.1973 0.53898 0.0
H4016 H 0.27634 0.1742 0.54737 0.0
H4017 H 0.36792 0.16676 0.58148 0.0
H4018 H 0.35159 0.15858 0.56122 0.0
H4019 H 0.30375 0.16396 0.5764 0.0
H4020 H 0.32072 0.17362 0.59649 0.0
H4021 H 0.31248 0.18032 0.55516 0.0
H4022 H 0.29988 0.1188 0.56936 0.0
H4023 H 0.30752 0.09473 0.57798 0.0
H4024 H 0.34431 0.10199 0.54666 0.0
H4025 H 0.33711 0.12632 0.53793 0.0
C4026 C 0.2657 0.13737 0.50321 0.0
C4027 C 0.27761 0.13849 0.49312 0.0
C4028 C 0.27315 0.14085 0.51538 0.0
C4029 C 0.29257 0.14535 0.5177 0.0
C4030 C 0.30447 0.14637 0.50772 0.0
C4031 C 0.29713 0.14315 0.49554 0.0
C4032 C 0.30061 0.14911 0.53053 0.0
C4033 C 0.30619 0.13645 0.53566 0.0
C4034 C 0.30254 0.16488 0.53772 0.0
C4035 C 0.29706 0.17883 0.53272 0.0
C4036 C 0.30575 0.18916 0.5218 0.0
C4037 C 0.30038 0.20217 0.51709 0.0
C4038 C 0.28643 0.20507 0.52327 0.0
C4039 C 0.27787 0.19501 0.53419 0.0
C4040 C 0.28318 0.18197 0.53893 0.0
C4041 C 0.35403 0.16642 0.58052 0.0
C4042 C 0.3457 0.1709 0.59067 0.0
C4043 C 0.34453 0.16142 0.56894 0.0
C4044 C 0.32624 0.1603 0.56731 0.0
C4045 C 0.3178 0.16462 0.57743 0.0
C4046 C 0.32744 0.16993 0.58897 0.0
C4047 C 0.31633 0.15536 0.55492 0.0
C4048 C 0.31036 0.1678 0.54983 0.0
C4049 C 0.31373 0.13917 0.54784 0.0
C4050 C 0.31808 0.12451 0.55304 0.0
C4051 C 0.30972 0.11537 0.56435 0.0
C4052 C 0.31395 0.10166 0.56925 0.0
C4053 C 0.32642 0.09686 0.56289 0.0
C4054 C 0.33466 0.10574 0.55159 0.0
C4055 C 0.33049 0.11947 0.54665 0.0
H4056 H 0.32968 0.08625 0.5667 0.0
H4057 H 0.28229 0.21515 0.51961 0.0
H4058 H 0.85176 0.14079 0.48609 0.0
H4059 H 0.84344 0.14749 0.50673 0.0
H4060 H 0.88934 0.13978 0.52307 0.0
H4061 H 0.897 0.1321 0.50241 0.0
H4062 H 0.85994 0.12445 0.53758 0.0
H4063 H 0.89401 0.18598 0.51831 0.0
H4064 H 0.90199 0.21041 0.50204 0.0
H4065 H 0.84485 0.20452 0.50571 0.0
H4066 H 0.83642 0.17985 0.52189 0.0
H4067 H 0.86024 0.17447 0.59429 0.0
H4068 H 0.86991 0.16601 0.57465 0.0
H4069 H 0.81612 0.15644 0.55736 0.0
H4070 H 0.80585 0.16397 0.57703 0.0
H4071 H 0.85175 0.18164 0.54411 0.0
H4072 H 0.81918 0.11893 0.56417 0.0
H4073 H 0.81443 0.09676 0.58141 0.0
H4074 H 0.87358 0.10812 0.57723 0.0
H4075 H 0.87879 0.13059 0.56009 0.0
C4076 C 0.86007 0.14058 0.4941 0.0
C4077 C 0.8751 0.13609 0.49268 0.0
C4078 C 0.85539 0.1445 0.5059 0.0
C4079 C 0.86605 0.1446 0.51649 0.0
C4080 C 0.88093 0.13986 0.51508 0.0
C4081 C 0.88534 0.13552 0.50328 0.0
C4082 C 0.86155 0.14957 0.52899 0.0
C4083 C 0.85845 0.13713 0.53901 0.0
C4084 C 0.85952 0.16608 0.53096 0.0
C4085 C 0.86452 0.18094 0.52124 0.0
C4086 C 0.88309 0.18979 0.51559 0.0
C4087 C 0.8877 0.2037 0.50639 0.0
C4088 C 0.87392 0.20898 0.50283 0.0
C4089 C 0.85551 0.2004 0.50847 0.0
C4090 C 0.85081 0.18647 0.51767 0.0
C4091 C 0.85026 0.17022 0.5864 0.0
C4092 C 0.83224 0.16997 0.58729 0.0
C4093 C 0.85589 0.1655 0.57516 0.0
C4094 C 0.84372 0.16061 0.56458 0.0
C4095 C 0.82575 0.16028 0.56542 0.0
C4096 C 0.81999 0.16473 0.57667 0.0
C4097 C 0.84987 0.15638 0.5525 0.0
C4098 C 0.85334 0.16902 0.5426 0.0
C4099 C 0.85271 0.14036 0.55075 0.0
C4100 C 0.84945 0.12662 0.56094 0.0
C4101 C 0.83123 0.11683 0.567 0.0
C4102 C 0.82844 0.10419 0.57674 0.0
C4103 C 0.84372 0.10111 0.58045 0.0
C4104 C 0.86178 0.11056 0.57437 0.0
C4105 C 0.86465 0.12324 0.56464 0.0
H4106 H 0.84158 0.0914 0.58803 0.0
H4107 H 0.87752 0.21975 0.49571 0.0
H4108 H 0.89932 0.74908 0.49636 0.0
H4109 H 0.89215 0.73667 0.51755 0.0
H4110 H 0.83388 0.72887 0.51434 0.0
H4111 H 0.84127 0.74221 0.49339 0.0
H4112 H 0.8482 0.74275 0.5366 0.0
H4113 H 0.84357 0.69047 0.51131 0.0
H4114 H 0.85525 0.67485 0.49641 0.0
H4115 H 0.90311 0.68625 0.52109 0.0
H4116 H 0.89185 0.70218 0.53607 0.0
H4117 H 0.79804 0.67169 0.58281 0.0
H4118 H 0.81047 0.6903 0.56369 0.0
H4119 H 0.86876 0.7012 0.57258 0.0
H4120 H 0.85633 0.68255 0.59182 0.0
H4121 H 0.85707 0.68756 0.54835 0.0
H4122 H 0.86113 0.73885 0.57392 0.0
H4123 H 0.84948 0.75448 0.58884 0.0
H4124 H 0.80213 0.7439 0.56394 0.0
H4125 H 0.81363 0.72838 0.54881 0.0
C4126 C 0.88505 0.74499 0.50018 0.0
C4127 C 0.87086 0.74661 0.49304 0.0
C4128 C 0.88088 0.73765 0.5123 0.0
C4129 C 0.86233 0.73149 0.51754 0.0
C4130 C 0.84827 0.73341 0.51053 0.0
C4131 C 0.85246 0.74086 0.49845 0.0
C4132 C 0.85746 0.72289 0.53025 0.0
C4133 C 0.84997 0.73056 0.5391 0.0
C4134 C 0.86022 0.70729 0.53373 0.0
C4135 C 0.86699 0.6977 0.52474 0.0
C4136 C 0.85667 0.68978 0.51351 0.0
C4137 C 0.8632 0.68085 0.50506 0.0
C4138 C 0.87994 0.67961 0.50779 0.0
C4139 C 0.89016 0.68725 0.51898 0.0
C4140 C 0.88371 0.69622 0.52746 0.0
C4141 C 0.81353 0.67813 0.58072 0.0
C4142 C 0.82618 0.67553 0.58876 0.0
C4143 C 0.82065 0.68889 0.56983 0.0
C4144 C 0.84057 0.69722 0.56669 0.0
C4145 C 0.85334 0.69493 0.57481 0.0
C4146 C 0.84625 0.68434 0.58581 0.0
C4147 C 0.84767 0.70731 0.55459 0.0
C4148 C 0.8555 0.69988 0.54586 0.0
C4149 C 0.84518 0.72307 0.55121 0.0
C4150 C 0.83816 0.73234 0.56027 0.0
C4151 C 0.84818 0.73978 0.57165 0.0
C4152 C 0.84166 0.74869 0.58012 0.0
C4153 C 0.82502 0.7501 0.57737 0.0
C4154 C 0.815 0.74277 0.56607 0.0
C4155 C 0.82157 0.73401 0.55751 0.0
H4156 H 0.81992 0.75689 0.58398 0.0
H4157 H 0.88497 0.67268 0.50123 0.0
loop_
_geom_bond_atom_site_label_1
_geom_bond_atom_site_label_2
_geom_bond_distance
_geom_bond_site_symmetry_2
_ccdc_geom_bond_type
C0 C1 1.386 . S
C0 C2 1.397 . S
C0 H24 0.931 . S
C1 C0 1.386 . S
C1 C5 1.397 . S
C2 C0 1.397 . S
C2 C3 1.384 . S
C2 H25 0.930 . S
C3 C2 1.384 . S
C3 C4 1.377 . S
C3 C6 1.481 . S
C4 C3 1.377 . S
C4 C5 1.389 . S
C4 H26 0.929 . S
C5 C1 1.397 . S
C5 C4 1.389 . S
C5 H27 0.931 . S
C6 C3 1.481 . S
C6 C7 1.387 . S
C6 C11 1.390 . S
C7 C6 1.387 . S
C7 C8 1.401 . S
C7 H28 0.930 . S
C8 C7 1.401 . S
C8 C9 1.376 . S
C8 C17 1.511 . S
C9 C8 1.376 . S
C9 C10 1.392 . S
C9 H30 0.931 . S
C10 C9 1.392 . S
C10 C11 1.361 . S
C10 C12 1.500 . S
C11 C6 1.390 . S
C11 C10 1.361 . S
C11 H29 0.931 . S
C12 C10 1.500 . S
C12 C13 1.371 . S
C12 C14 1.365 . S
C13 C12 1.371 . S
C13 C23 1.386 . S
C13 H31 0.931 . S
C14 C12 1.365 . S
C14 C15 1.409 . S
C14 H32 0.929 . S
C15 C14 1.409 . S
C15 C16 1.380 . S
C15 H33 0.930 . S
C16 C15 1.380 . S
C16 C23 1.357 . S
C17 C8 1.511 . S
C17 C18 1.341 . S
C17 C19 1.371 . S
C18 C17 1.341 . S
C18 C22 1.394 . S
C18 H34 0.930 . S
C19 C17 1.371 . S
C19 C20 1.392 . S
C19 H35 0.931 . S
C20 C19 1.392 . S
C20 C21 1.331 . S
C20 H38 0.932 . S
C21 C20 1.331 . S
C21 C22 1.336 . S
C22 C18 1.394 . S
C22 C21 1.336 . S
C22 H37 0.929 . S
C23 C13 1.386 . S
C23 C16 1.357 . S
C23 H36 0.928 . S
H24 C0 0.931 . S
H25 C2 0.930 . S
H26 C4 0.929 . S
H27 C5 0.931 . S
H28 C7 0.930 . S
H29 C11 0.931 . S
H30 C9 0.931 . S
H31 C13 0.931 . S
H32 C14 0.929 . S
H33 C15 0.930 . S
H34 C18 0.930 . S
H35 C19 0.931 . S
H36 C23 0.928 . S
H37 C22 0.929 . S
H38 C20 0.932 . S
C39 C40 1.386 . S
C39 C41 1.397 . S
C39 H63 0.931 . S
C40 C39 1.386 . S
C40 C44 1.397 . S
C41 C39 1.397 . S
C41 C42 1.384 . S
C41 H64 0.930 . S
C42 C41 1.384 . S
C42 C43 1.377 . S
C42 C45 1.481 . S
C43 C42 1.377 . S
C43 C44 1.389 . S
C43 H65 0.929 . S
C44 C40 1.397 . S
C44 C43 1.389 . S
C44 H66 0.931 . S
C45 C42 1.481 . S
C45 C46 1.387 . S
C45 C50 1.390 . S
C46 C45 1.387 . S
C46 C47 1.401 . S
C46 H67 0.930 . S
C47 C46 1.401 . S
C47 C48 1.376 . S
C47 C56 1.511 . S
C48 C47 1.376 . S
C48 C49 1.392 . S
C48 H69 0.931 . S
C49 C48 1.392 . S
C49 C50 1.361 . S
C49 C51 1.500 . S
C50 C45 1.390 . S
C50 C49 1.361 . S
C50 H68 0.931 . S
C51 C49 1.500 . S
C51 C52 1.371 . S
C51 C53 1.365 . S
C52 C51 1.371 . S
C52 C62 1.386 . S
C52 H70 0.931 . S
C53 C51 1.365 . S
C53 C54 1.409 . S
C53 H71 0.929 . S
C54 C53 1.409 . S
C54 C55 1.380 . S
C54 H72 0.930 . S
C55 C54 1.380 . S
C55 C62 1.357 . S
C56 C47 1.511 . S
C56 C57 1.341 . S
C56 C58 1.371 . S
C57 C56 1.341 . S
C57 C61 1.394 . S
C57 H73 0.930 . S
C58 C56 1.371 . S
C58 C59 1.392 . S
C58 H74 0.931 . S
C59 C58 1.392 . S
C59 C60 1.331 . S
C59 H77 0.932 . S
C60 C59 1.331 . S
C60 C61 1.336 . S
C61 C57 1.394 . S
C61 C60 1.336 . S
C61 H76 0.929 . S
C62 C52 1.386 . S
C62 C55 1.357 . S
C62 H75 0.928 . S
H63 C39 0.931 . S
H64 C41 0.930 . S
H65 C43 0.929 . S
H66 C44 0.931 . S
H67 C46 0.930 . S
H68 C50 0.931 . S
H69 C48 0.931 . S
H70 C52 0.931 . S
H71 C53 0.929 . S
H72 C54 0.930 . S
H73 C57 0.930 . S
H74 C58 0.931 . S
H75 C62 0.928 . S
H76 C61 0.929 . S
H77 C59 0.932 . S
C78 C79 1.386 . S
C78 C80 1.397 . S
C78 H102 0.931 . S
C79 C78 1.386 . S
C79 C83 1.397 . S
C80 C78 1.397 . S
C80 C81 1.384 . S
C80 H103 0.930 . S
C81 C80 1.384 . S
C81 C82 1.377 . S
C81 C84 1.481 . S
C82 C81 1.377 . S
C82 C83 1.389 . S
C82 H104 0.929 . S
C83 C79 1.397 . S
C83 C82 1.389 . S
C83 H105 0.931 . S
C84 C81 1.481 . S
C84 C85 1.387 . S
C84 C89 1.390 . S
C85 C84 1.387 . S
C85 C86 1.401 . S
C85 H106 0.930 . S
C86 C85 1.401 . S
C86 C87 1.376 . S
C86 C95 1.511 . S
C87 C86 1.376 . S
C87 C88 1.392 . S
C87 H108 0.931 . S
C88 C87 1.392 . S
C88 C89 1.361 . S
C88 C90 1.500 . S
C89 C84 1.390 . S
C89 C88 1.361 . S
C89 H107 0.931 . S
C90 C88 1.500 . S
C90 C91 1.371 . S
C90 C92 1.365 . S
C91 C90 1.371 . S
C91 C101 1.386 . S
C91 H109 0.931 . S
C92 C90 1.365 . S
C92 C93 1.409 . S
C92 H110 0.929 . S
C93 C92 1.409 . S
C93 C94 1.380 . S
C93 H111 0.930 . S
C94 C93 1.380 . S
C94 C101 1.357 . S
C95 C86 1.511 . S
C95 C96 1.341 . S
C95 C97 1.371 . S
C96 C95 1.341 . S
C96 C100 1.394 . S
C96 H112 0.930 . S
C97 C95 1.371 . S
C97 C98 1.392 . S
C97 H113 0.931 . S
C98 C97 1.392 . S
C98 C99 1.331 . S
C98 H116 0.932 . S
C99 C98 1.331 . S
C99 C100 1.336 . S
C100 C96 1.394 . S
C100 C99 1.336 . S
C100 H115 0.929 . S
C101 C91 1.386 . S
C101 C94 1.357 . S
C101 H114 0.928 . S
H102 C78 0.931 . S
H103 C80 0.930 . S
H104 C82 0.929 . S
H105 C83 0.931 . S
H106 C85 0.930 . S
H107 C89 0.931 . S
H108 C87 0.931 . S
H109 C91 0.931 . S
H110 C92 0.929 . S
H111 C93 0.930 . S
H112 C96 0.930 . S
H113 C97 0.931 . S
H114 C101 0.928 . S
H115 C100 0.929 . S
H116 C98 0.932 . S
C117 C118 1.386 . S
C117 C119 1.397 . S
C117 H141 0.931 . S
C118 C117 1.386 . S
C118 C122 1.397 . S
C119 C117 1.397 . S
C119 C120 1.384 . S
C119 H142 0.930 . S
C120 C119 1.384 . S
C120 C121 1.377 . S
C120 C123 1.481 . S
C121 C120 1.377 . S
C121 C122 1.389 . S
C121 H143 0.929 . S
C122 C118 1.397 . S
C122 C121 1.389 . S
C122 H144 0.931 . S
C123 C120 1.481 . S
C123 C124 1.387 . S
C123 C128 1.390 . S
C124 C123 1.387 . S
C124 C125 1.401 . S
C124 H145 0.930 . S
C125 C124 1.401 . S
C125 C126 1.376 . S
C125 C134 1.511 . S
C126 C125 1.376 . S
C126 C127 1.392 . S
C126 H147 0.931 . S
C127 C126 1.392 . S
C127 C128 1.361 . S
C127 C129 1.500 . S
C128 C123 1.390 . S
C128 C127 1.361 . S
C128 H146 0.931 . S
C129 C127 1.500 . S
C129 C130 1.371 . S
C129 C131 1.365 . S
C130 C129 1.371 . S
C130 C140 1.386 . S
C130 H148 0.931 . S
C131 C129 1.365 . S
C131 C132 1.409 . S
C131 H149 0.929 . S
C132 C131 1.409 . S
C132 C133 1.380 . S
C132 H150 0.930 . S
C133 C132 1.380 . S
C133 C140 1.357 . S
C134 C125 1.511 . S
C134 C135 1.341 . S
C134 C136 1.371 . S
C135 C134 1.341 . S
C135 C139 1.394 . S
C135 H151 0.930 . S
C136 C134 1.371 . S
C136 C137 1.392 . S
C136 H152 0.931 . S
C137 C136 1.392 . S
C137 C138 1.331 . S
C137 H155 0.932 . S
C138 C137 1.331 . S
C138 C139 1.336 . S
C139 C135 1.394 . S
C139 C138 1.336 . S
C139 H154 0.929 . S
C140 C130 1.386 . S
C140 C133 1.357 . S
C140 H153 0.928 . S
H141 C117 0.931 . S
H142 C119 0.930 . S
H143 C121 0.929 . S
H144 C122 0.931 . S
H145 C124 0.930 . S
H146 C128 0.931 . S
H147 C126 0.931 . S
H148 C130 0.931 . S
H149 C131 0.929 . S
H150 C132 0.930 . S
H151 C135 0.930 . S
H152 C136 0.931 . S
H153 C140 0.928 . S
H154 C139 0.929 . S
H155 C137 0.932 . S
C156 C157 1.386 . S
C156 C158 1.397 . S
C156 H180 0.931 . S
C157 C156 1.386 . S
C157 C161 1.397 . S
C158 C156 1.397 . S
C158 C159 1.384 . S
C158 H181 0.930 . S
C159 C158 1.384 . S
C159 C160 1.377 . S
C159 C162 1.481 . S
C160 C159 1.377 . S
C160 C161 1.389 . S
C160 H182 0.929 . S
C161 C157 1.397 . S
C161 C160 1.389 . S
C161 H183 0.931 . S
C162 C159 1.481 . S
C162 C163 1.387 . S
C162 C167 1.390 . S
C163 C162 1.387 . S
C163 C164 1.401 . S
C163 H184 0.930 . S
C164 C163 1.401 . S
C164 C165 1.376 . S
C164 C173 1.511 . S
C165 C164 1.376 . S
C165 C166 1.392 . S
C165 H186 0.931 . S
C166 C165 1.392 . S
C166 C167 1.361 . S
C166 C168 1.500 . S
C167 C162 1.390 . S
C167 C166 1.361 . S
C167 H185 0.931 . S
C168 C166 1.500 . S
C168 C169 1.371 . S
C168 C170 1.365 . S
C169 C168 1.371 . S
C169 C179 1.386 . S
C169 H187 0.931 . S
C170 C168 1.365 . S
C170 C171 1.409 . S
C170 H188 0.929 . S
C171 C170 1.409 . S
C171 C172 1.380 . S
C171 H189 0.930 . S
C172 C171 1.380 . S
C172 C179 1.357 . S
C173 C164 1.511 . S
C173 C174 1.341 . S
C173 C175 1.371 . S
C174 C173 1.341 . S
C174 C178 1.394 . S
C174 H190 0.930 . S
C175 C173 1.371 . S
C175 C176 1.392 . S
C175 H191 0.931 . S
C176 C175 1.392 . S
C176 C177 1.331 . S
C176 H194 0.932 . S
C177 C176 1.331 . S
C177 C178 1.336 . S
C178 C174 1.394 . S
C178 C177 1.336 . S
C178 H193 0.929 . S
C179 C169 1.386 . S
C179 C172 1.357 . S
C179 H192 0.928 . S
H180 C156 0.931 . S
H181 C158 0.930 . S
H182 C160 0.929 . S
H183 C161 0.931 . S
H184 C163 0.930 . S
H185 C167 0.931 . S
H186 C165 0.931 . S
H187 C169 0.931 . S
H188 C170 0.929 . S
H189 C171 0.930 . S
H190 C174 0.930 . S
H191 C175 0.931 . S
H192 C179 0.928 . S
H193 C178 0.929 . S
H194 C176 0.932 . S
C195 C196 1.386 . S
C195 C197 1.397 . S
C195 H219 0.931 . S
C196 C195 1.386 . S
C196 C200 1.397 . S
C197 C195 1.397 . S
C197 C198 1.384 . S
C197 H220 0.930 . S
C198 C197 1.384 . S
C198 C199 1.377 . S
C198 C201 1.481 . S
C199 C198 1.377 . S
C199 C200 1.389 . S
C199 H221 0.929 . S
C200 C196 1.397 . S
C200 C199 1.389 . S
C200 H222 0.931 . S
C201 C198 1.481 . S
C201 C202 1.387 . S
C201 C206 1.390 . S
C202 C201 1.387 . S
C202 C203 1.401 . S
C202 H223 0.930 . S
C203 C202 1.401 . S
C203 C204 1.376 . S
C203 C212 1.511 . S
C204 C203 1.376 . S
C204 C205 1.392 . S
C204 H225 0.931 . S
C205 C204 1.392 . S
C205 C206 1.361 . S
C205 C207 1.500 . S
C206 C201 1.390 . S
C206 C205 1.361 . S
C206 H224 0.931 . S
C207 C205 1.500 . S
C207 C208 1.371 . S
C207 C209 1.365 . S
C208 C207 1.371 . S
C208 C218 1.386 . S
C208 H226 0.931 . S
C209 C207 1.365 . S
C209 C210 1.409 . S
C209 H227 0.929 . S
C210 C209 1.409 . S
C210 C211 1.380 . S
C210 H228 0.930 . S
C211 C210 1.380 . S
C211 C218 1.357 . S
C212 C203 1.511 . S
C212 C213 1.341 . S
C212 C214 1.371 . S
C213 C212 1.341 . S
C213 C217 1.394 . S
C213 H229 0.930 . S
C214 C212 1.371 . S
C214 C215 1.392 . S
C214 H230 0.931 . S
C215 C214 1.392 . S
C215 C216 1.331 . S
C215 H233 0.932 . S
C216 C215 1.331 . S
C216 C217 1.336 . S
C217 C213 1.394 . S
C217 C216 1.336 . S
C217 H232 0.929 . S
C218 C208 1.386 . S
C218 C211 1.357 . S
C218 H231 0.928 . S
H219 C195 0.931 . S
H220 C197 0.930 . S
H221 C199 0.929 . S
H222 C200 0.931 . S
H223 C202 0.930 . S
H224 C206 0.931 . S
H225 C204 0.931 . S
H226 C208 0.931 . S
H227 C209 0.929 . S
H228 C210 0.930 . S
H229 C213 0.930 . S
H230 C214 0.931 . S
H231 C218 0.928 . S
H232 C217 0.929 . S
H233 C215 0.932 . S
C234 C235 1.386 . S
C234 C236 1.397 . S
C234 H258 0.931 . S
C235 C234 1.386 . S
C235 C239 1.397 . S
C236 C234 1.397 . S
C236 C237 1.384 . S
C236 H259 0.930 . S
C237 C236 1.384 . S
C237 C238 1.377 . S
C237 C240 1.481 . S
C238 C237 1.377 . S
C238 C239 1.389 . S
C238 H260 0.929 . S
C239 C235 1.397 . S
C239 C238 1.389 . S
C239 H261 0.931 . S
C240 C237 1.481 . S
C240 C241 1.387 . S
C240 C245 1.390 . S
C241 C240 1.387 . S
C241 C242 1.401 . S
C241 H262 0.930 . S
C242 C241 1.401 . S
C242 C243 1.376 . S
C242 C251 1.511 . S
C243 C242 1.376 . S
C243 C244 1.392 . S
C243 H264 0.931 . S
C244 C243 1.392 . S
C244 C245 1.361 . S
C244 C246 1.500 . S
C245 C240 1.390 . S
C245 C244 1.361 . S
C245 H263 0.931 . S
C246 C244 1.500 . S
C246 C247 1.371 . S
C246 C248 1.365 . S
C247 C246 1.371 . S
C247 C257 1.386 . S
C247 H265 0.931 . S
C248 C246 1.365 . S
C248 C249 1.409 . S
C248 H266 0.929 . S
C249 C248 1.409 . S
C249 C250 1.380 . S
C249 H267 0.930 . S
C250 C249 1.380 . S
C250 C257 1.357 . S
C251 C242 1.511 . S
C251 C252 1.341 . S
C251 C253 1.371 . S
C252 C251 1.341 . S
C252 C256 1.394 . S
C252 H268 0.930 . S
C253 C251 1.371 . S
C253 C254 1.392 . S
C253 H269 0.931 . S
C254 C253 1.392 . S
C254 C255 1.331 . S
C254 H272 0.932 . S
C255 C254 1.331 . S
C255 C256 1.336 . S
C256 C252 1.394 . S
C256 C255 1.336 . S
C256 H271 0.929 . S
C257 C247 1.386 . S
C257 C250 1.357 . S
C257 H270 0.928 . S
H258 C234 0.931 . S
H259 C236 0.930 . S
H260 C238 0.929 . S
H261 C239 0.931 . S
H262 C241 0.930 . S
H263 C245 0.931 . S
H264 C243 0.931 . S
H265 C247 0.931 . S
H266 C248 0.929 . S
H267 C249 0.930 . S
H268 C252 0.930 . S
H269 C253 0.931 . S
H270 C257 0.928 . S
H271 C256 0.929 . S
H272 C254 0.932 . S
C273 C274 1.386 . S
C273 C275 1.397 . S
C273 H297 0.931 . S
C274 C273 1.386 . S
C274 C278 1.397 . S
C275 C273 1.397 . S
C275 C276 1.384 . S
C275 H298 0.930 . S
C276 C275 1.384 . S
C276 C277 1.377 . S
C276 C279 1.481 . S
C277 C276 1.377 . S
C277 C278 1.389 . S
C277 H299 0.929 . S
C278 C274 1.397 . S
C278 C277 1.389 . S
C278 H300 0.931 . S
C279 C276 1.481 . S
C279 C280 1.387 . S
C279 C284 1.390 . S
C280 C279 1.387 . S
C280 C281 1.401 . S
C280 H301 0.930 . S
C281 C280 1.401 . S
C281 C282 1.376 . S
C281 C290 1.511 . S
C282 C281 1.376 . S
C282 C283 1.392 . S
C282 H303 0.931 . S
C283 C282 1.392 . S
C283 C284 1.361 . S
C283 C285 1.500 . S
C284 C279 1.390 . S
C284 C283 1.361 . S
C284 H302 0.931 . S
C285 C283 1.500 . S
C285 C286 1.371 . S
C285 C287 1.365 . S
C286 C285 1.371 . S
C286 C296 1.386 . S
C286 H304 0.931 . S
C287 C285 1.365 . S
C287 C288 1.409 . S
C287 H305 0.929 . S
C288 C287 1.409 . S
C288 C289 1.380 . S
C288 H306 0.930 . S
C289 C288 1.380 . S
C289 C296 1.357 . S
C290 C281 1.511 . S
C290 C291 1.341 . S
C290 C292 1.371 . S
C291 C290 1.341 . S
C291 C295 1.394 . S
C291 H307 0.930 . S
C292 C290 1.371 . S
C292 C293 1.392 . S
C292 H308 0.931 . S
C293 C292 1.392 . S
C293 C294 1.331 . S
C293 H311 0.932 . S
C294 C293 1.331 . S
C294 C295 1.336 . S
C295 C291 1.394 . S
C295 C294 1.336 . S
C295 H310 0.929 . S
C296 C286 1.386 . S
C296 C289 1.357 . S
C296 H309 0.928 . S
H297 C273 0.931 . S
H298 C275 0.930 . S
H299 C277 0.929 . S
H300 C278 0.931 . S
H301 C280 0.930 . S
H302 C284 0.931 . S
H303 C282 0.931 . S
H304 C286 0.931 . S
H305 C287 0.929 . S
H306 C288 0.930 . S
H307 C291 0.930 . S
H308 C292 0.931 . S
H309 C296 0.928 . S
H310 C295 0.929 . S
H311 C293 0.932 . S
C312 C313 1.386 . S
C312 C314 1.397 . S
C312 H336 0.931 . S
C313 C312 1.386 . S
C313 C317 1.397 . S
C314 C312 1.397 . S
C314 C315 1.384 . S
C314 H337 0.930 . S
C315 C314 1.384 . S
C315 C316 1.377 . S
C315 C318 1.481 . S
C316 C315 1.377 . S
C316 C317 1.389 . S
C316 H338 0.929 . S
C317 C313 1.397 . S
C317 C316 1.389 . S
C317 H339 0.931 . S
C318 C315 1.481 . S
C318 C319 1.387 . S
C318 C323 1.390 . S
C319 C318 1.387 . S
C319 C320 1.401 . S
C319 H340 0.930 . S
C320 C319 1.401 . S
C320 C321 1.376 . S
C320 C329 1.511 . S
C321 C320 1.376 . S
C321 C322 1.392 . S
C321 H342 0.931 . S
C322 C321 1.392 . S
C322 C323 1.361 . S
C322 C324 1.500 . S
C323 C318 1.390 . S
C323 C322 1.361 . S
C323 H341 0.931 . S
C324 C322 1.500 . S
C324 C325 1.371 . S
C324 C326 1.365 . S
C325 C324 1.371 . S
C325 C335 1.386 . S
C325 H343 0.931 . S
C326 C324 1.365 . S
C326 C327 1.409 . S
C326 H344 0.929 . S
C327 C326 1.409 . S
C327 C328 1.380 . S
C327 H345 0.930 . S
C328 C327 1.380 . S
C328 C335 1.357 . S
C329 C320 1.511 . S
C329 C330 1.341 . S
C329 C331 1.371 . S
C330 C329 1.341 . S
C330 C334 1.394 . S
C330 H346 0.930 . S
C331 C329 1.371 . S
C331 C332 1.392 . S
C331 H347 0.931 . S
C332 C331 1.392 . S
C332 C333 1.331 . S
C332 H350 0.932 . S
C333 C332 1.331 . S
C333 C334 1.336 . S
C334 C330 1.394 . S
C334 C333 1.336 . S
C334 H349 0.929 . S
C335 C325 1.386 . S
C335 C328 1.357 . S
C335 H348 0.928 . S
H336 C312 0.931 . S
H337 C314 0.930 . S
H338 C316 0.929 . S
H339 C317 0.931 . S
H340 C319 0.930 . S
H341 C323 0.931 . S
H342 C321 0.931 . S
H343 C325 0.931 . S
H344 C326 0.929 . S
H345 C327 0.930 . S
H346 C330 0.930 . S
H347 C331 0.931 . S
H348 C335 0.928 . S
H349 C334 0.929 . S
H350 C332 0.932 . S
C351 C352 1.386 . S
C351 C353 1.397 . S
C351 H375 0.931 . S
C352 C351 1.386 . S
C352 C356 1.397 . S
C353 C351 1.397 . S
C353 C354 1.384 . S
C353 H376 0.930 . S
C354 C353 1.384 . S
C354 C355 1.377 . S
C354 C357 1.481 . S
C355 C354 1.377 . S
C355 C356 1.389 . S
C355 H377 0.929 . S
C356 C352 1.397 . S
C356 C355 1.389 . S
C356 H378 0.931 . S
C357 C354 1.481 . S
C357 C358 1.387 . S
C357 C362 1.390 . S
C358 C357 1.387 . S
C358 C359 1.401 . S
C358 H379 0.930 . S
C359 C358 1.401 . S
C359 C360 1.376 . S
C359 C368 1.511 . S
C360 C359 1.376 . S
C360 C361 1.392 . S
C360 H381 0.931 . S
C361 C360 1.392 . S
C361 C362 1.361 . S
C361 C363 1.500 . S
C362 C357 1.390 . S
C362 C361 1.361 . S
C362 H380 0.931 . S
C363 C361 1.500 . S
C363 C364 1.371 . S
C363 C365 1.365 . S
C364 C363 1.371 . S
C364 C374 1.386 . S
C364 H382 0.931 . S
C365 C363 1.365 . S
C365 C366 1.409 . S
C365 H383 0.929 . S
C366 C365 1.409 . S
C366 C367 1.380 . S
C366 H384 0.930 . S
C367 C366 1.380 . S
C367 C374 1.357 . S
C368 C359 1.511 . S
C368 C369 1.341 . S
C368 C370 1.371 . S
C369 C368 1.341 . S
C369 C373 1.394 . S
C369 H385 0.930 . S
C370 C368 1.371 . S
C370 C371 1.392 . S
C370 H386 0.931 . S
C371 C370 1.392 . S
C371 C372 1.331 . S
C371 H389 0.932 . S
C372 C371 1.331 . S
C372 C373 1.336 . S
C373 C369 1.394 . S
C373 C372 1.336 . S
C373 H388 0.929 . S
C374 C364 1.386 . S
C374 C367 1.357 . S
C374 H387 0.928 . S
H375 C351 0.931 . S
H376 C353 0.930 . S
H377 C355 0.929 . S
H378 C356 0.931 . S
H379 C358 0.930 . S
H380 C362 0.931 . S
H381 C360 0.931 . S
H382 C364 0.931 . S
H383 C365 0.929 . S
H384 C366 0.930 . S
H385 C369 0.930 . S
H386 C370 0.931 . S
H387 C374 0.928 . S
H388 C373 0.929 . S
H389 C371 0.932 . S
C390 C391 1.386 . S
C390 C392 1.397 . S
C390 H414 0.931 . S
C391 C390 1.386 . S
C391 C395 1.397 . S
C392 C390 1.397 . S
C392 C393 1.384 . S
C392 H415 0.930 . S
C393 C392 1.384 . S
C393 C394 1.377 . S
C393 C396 1.481 . S
C394 C393 1.377 . S
C394 C395 1.389 . S
C394 H416 0.929 . S
C395 C391 1.397 . S
C395 C394 1.389 . S
C395 H417 0.931 . S
C396 C393 1.481 . S
C396 C397 1.387 . S
C396 C401 1.390 . S
C397 C396 1.387 . S
C397 C398 1.401 . S
C397 H418 0.930 . S
C398 C397 1.401 . S
C398 C399 1.376 . S
C398 C407 1.511 . S
C399 C398 1.376 . S
C399 C400 1.392 . S
C399 H420 0.931 . S
C400 C399 1.392 . S
C400 C401 1.361 . S
C400 C402 1.500 . S
C401 C396 1.390 . S
C401 C400 1.361 . S
C401 H419 0.931 . S
C402 C400 1.500 . S
C402 C403 1.371 . S
C402 C404 1.365 . S
C403 C402 1.371 . S
C403 C413 1.386 . S
C403 H421 0.931 . S
C404 C402 1.365 . S
C404 C405 1.409 . S
C404 H422 0.929 . S
C405 C404 1.409 . S
C405 C406 1.380 . S
C405 H423 0.930 . S
C406 C405 1.380 . S
C406 C413 1.357 . S
C407 C398 1.511 . S
C407 C408 1.341 . S
C407 C409 1.371 . S
C408 C407 1.341 . S
C408 C412 1.394 . S
C408 H424 0.930 . S
C409 C407 1.371 . S
C409 C410 1.392 . S
C409 H425 0.931 . S
C410 C409 1.392 . S
C410 C411 1.331 . S
C410 H428 0.932 . S
C411 C410 1.331 . S
C411 C412 1.336 . S
C412 C408 1.394 . S
C412 C411 1.336 . S
C412 H427 0.929 . S
C413 C403 1.386 . S
C413 C406 1.357 . S
C413 H426 0.928 . S
H414 C390 0.931 . S
H415 C392 0.930 . S
H416 C394 0.929 . S
H417 C395 0.931 . S
H418 C397 0.930 . S
H419 C401 0.931 . S
H420 C399 0.931 . S
H421 C403 0.931 . S
H422 C404 0.929 . S
H423 C405 0.930 . S
H424 C408 0.930 . S
H425 C409 0.931 . S
H426 C413 0.928 . S
H427 C412 0.929 . S
H428 C410 0.932 . S
C429 C430 1.386 . S
C429 C431 1.397 . S
C429 H453 0.931 . S
C430 C429 1.386 . S
C430 C434 1.397 . S
C431 C429 1.397 . S
C431 C432 1.384 . S
C431 H454 0.930 . S
C432 C431 1.384 . S
C432 C433 1.377 . S
C432 C435 1.481 . S
C433 C432 1.377 . S
C433 C434 1.389 . S
C433 H455 0.929 . S
C434 C430 1.397 . S
C434 C433 1.389 . S
C434 H456 0.931 . S
C435 C432 1.481 . S
C435 C436 1.387 . S
C435 C440 1.390 . S
C436 C435 1.387 . S
C436 C437 1.401 . S
C436 H457 0.930 . S
C437 C436 1.401 . S
C437 C438 1.376 . S
C437 C446 1.511 . S
C438 C437 1.376 . S
C438 C439 1.392 . S
C438 H459 0.931 . S
C439 C438 1.392 . S
C439 C440 1.361 . S
C439 C441 1.500 . S
C440 C435 1.390 . S
C440 C439 1.361 . S
C440 H458 0.931 . S
C441 C439 1.500 . S
C441 C442 1.371 . S
C441 C443 1.365 . S
C442 C441 1.371 . S
C442 C452 1.386 . S
C442 H460 0.931 . S
C443 C441 1.365 . S
C443 C444 1.409 . S
C443 H461 0.929 . S
C444 C443 1.409 . S
C444 C445 1.380 . S
C444 H462 0.930 . S
C445 C444 1.380 . S
C445 C452 1.357 . S
C446 C437 1.511 . S
C446 C447 1.341 . S
C446 C448 1.371 . S
C447 C446 1.341 . S
C447 C451 1.394 . S
C447 H463 0.930 . S
C448 C446 1.371 . S
C448 C449 1.392 . S
C448 H464 0.931 . S
C449 C448 1.392 . S
C449 C450 1.331 . S
C449 H467 0.932 . S
C450 C449 1.331 . S
C450 C451 1.336 . S
C451 C447 1.394 . S
C451 C450 1.336 . S
C451 H466 0.929 . S
C452 C442 1.386 . S
C452 C445 1.357 . S
C452 H465 0.928 . S
H453 C429 0.931 . S
H454 C431 0.930 . S
H455 C433 0.929 . S
H456 C434 0.931 . S
H457 C436 0.930 . S
H458 C440 0.931 . S
H459 C438 0.931 . S
H460 C442 0.931 . S
H461 C443 0.929 . S
H462 C444 0.930 . S
H463 C447 0.930 . S
H464 C448 0.931 . S
H465 C452 0.928 . S
H466 C451 0.929 . S
H467 C449 0.932 . S
C468 C469 1.386 . S
C468 C470 1.397 . S
C468 H492 0.931 . S
C469 C468 1.386 . S
C469 C473 1.397 . S
C470 C468 1.397 . S
C470 C471 1.384 . S
C470 H493 0.930 . S
C471 C470 1.384 . S
C471 C472 1.377 . S
C471 C474 1.481 . S
C472 C471 1.377 . S
C472 C473 1.389 . S
C472 H494 0.929 . S
C473 C469 1.397 . S
C473 C472 1.389 . S
C473 H495 0.931 . S
C474 C471 1.481 . S
C474 C475 1.387 . S
C474 C479 1.390 . S
C475 C474 1.387 . S
C475 C476 1.401 . S
C475 H496 0.930 . S
C476 C475 1.401 . S
C476 C477 1.376 . S
C476 C485 1.511 . S
C477 C476 1.376 . S
C477 C478 1.392 . S
C477 H498 0.931 . S
C478 C477 1.392 . S
C478 C479 1.361 . S
C478 C480 1.500 . S
C479 C474 1.390 . S
C479 C478 1.361 . S
C479 H497 0.931 . S
C480 C478 1.500 . S
C480 C481 1.371 . S
C480 C482 1.365 . S
C481 C480 1.371 . S
C481 C491 1.386 . S
C481 H499 0.931 . S
C482 C480 1.365 . S
C482 C483 1.409 . S
C482 H500 0.929 . S
C483 C482 1.409 . S
C483 C484 1.380 . S
C483 H501 0.930 . S
C484 C483 1.380 . S
C484 C491 1.357 . S
C485 C476 1.511 . S
C485 C486 1.341 . S
C485 C487 1.371 . S
C486 C485 1.341 . S
C486 C490 1.394 . S
C486 H502 0.930 . S
C487 C485 1.371 . S
C487 C488 1.392 . S
C487 H503 0.931 . S
C488 C487 1.392 . S
C488 C489 1.331 . S
C488 H506 0.932 . S
C489 C488 1.331 . S
C489 C490 1.336 . S
C490 C486 1.394 . S
C490 C489 1.336 . S
C490 H505 0.929 . S
C491 C481 1.386 . S
C491 C484 1.357 . S
C491 H504 0.928 . S
H492 C468 0.931 . S
H493 C470 0.930 . S
H494 C472 0.929 . S
H495 C473 0.931 . S
H496 C475 0.930 . S
H497 C479 0.931 . S
H498 C477 0.931 . S
H499 C481 0.931 . S
H500 C482 0.929 . S
H501 C483 0.930 . S
H502 C486 0.930 . S
H503 C487 0.931 . S
H504 C491 0.928 . S
H505 C490 0.929 . S
H506 C488 0.932 . S
C507 C508 1.386 . S
C507 C509 1.397 . S
C507 H531 0.931 . S
C508 C507 1.386 . S
C508 C512 1.397 . S
C509 C507 1.397 . S
C509 C510 1.384 . S
C509 H532 0.930 . S
C510 C509 1.384 . S
C510 C511 1.377 . S
C510 C513 1.481 . S
C511 C510 1.377 . S
C511 C512 1.389 . S
C511 H533 0.929 . S
C512 C508 1.397 . S
C512 C511 1.389 . S
C512 H534 0.931 . S
C513 C510 1.481 . S
C513 C514 1.387 . S
C513 C518 1.390 . S
C514 C513 1.387 . S
C514 C515 1.401 . S
C514 H535 0.930 . S
C515 C514 1.401 . S
C515 C516 1.376 . S
C515 C524 1.511 . S
C516 C515 1.376 . S
C516 C517 1.392 . S
C516 H537 0.931 . S
C517 C516 1.392 . S
C517 C518 1.361 . S
C517 C519 1.500 . S
C518 C513 1.390 . S
C518 C517 1.361 . S
C518 H536 0.931 . S
C519 C517 1.500 . S
C519 C520 1.371 . S
C519 C521 1.365 . S
C520 C519 1.371 . S
C520 C530 1.386 . S
C520 H538 0.931 . S
C521 C519 1.365 . S
C521 C522 1.409 . S
C521 H539 0.929 . S
C522 C521 1.409 . S
C522 C523 1.380 . S
C522 H540 0.930 . S
C523 C522 1.380 . S
C523 C530 1.357 . S
C524 C515 1.511 . S
C524 C525 1.341 . S
C524 C526 1.371 . S
C525 C524 1.341 . S
C525 C529 1.394 . S
C525 H541 0.930 . S
C526 C524 1.371 . S
C526 C527 1.392 . S
C526 H542 0.931 . S
C527 C526 1.392 . S
C527 C528 1.331 . S
C527 H545 0.932 . S
C528 C527 1.331 . S
C528 C529 1.336 . S
C529 C525 1.394 . S
C529 C528 1.336 . S
C529 H544 0.929 . S
C530 C520 1.386 . S
C530 C523 1.357 . S
C530 H543 0.928 . S
H531 C507 0.931 . S
H532 C509 0.930 . S
H533 C511 0.929 . S
H534 C512 0.931 . S
H535 C514 0.930 . S
H536 C518 0.931 . S
H537 C516 0.931 . S
H538 C520 0.931 . S
H539 C521 0.929 . S
H540 C522 0.930 . S
H541 C525 0.930 . S
H542 C526 0.931 . S
H543 C530 0.928 . S
H544 C529 0.929 . S
H545 C527 0.932 . S
C546 C547 1.386 . S
C546 C548 1.397 . S
C546 H570 0.931 . S
C547 C546 1.386 . S
C547 C551 1.397 . S
C548 C546 1.397 . S
C548 C549 1.384 . S
C548 H571 0.930 . S
C549 C548 1.384 . S
C549 C550 1.377 . S
C549 C552 1.481 . S
C550 C549 1.377 . S
C550 C551 1.389 . S
C550 H572 0.929 . S
C551 C547 1.397 . S
C551 C550 1.389 . S
C551 H573 0.931 . S
C552 C549 1.481 . S
C552 C553 1.387 . S
C552 C557 1.390 . S
C553 C552 1.387 . S
C553 C554 1.401 . S
C553 H574 0.930 . S
C554 C553 1.401 . S
C554 C555 1.376 . S
C554 C563 1.511 . S
C555 C554 1.376 . S
C555 C556 1.392 . S
C555 H576 0.931 . S
C556 C555 1.392 . S
C556 C557 1.361 . S
C556 C558 1.500 . S
C557 C552 1.390 . S
C557 C556 1.361 . S
C557 H575 0.931 . S
C558 C556 1.500 . S
C558 C559 1.371 . S
C558 C560 1.365 . S
C559 C558 1.371 . S
C559 C569 1.386 . S
C559 H577 0.931 . S
C560 C558 1.365 . S
C560 C561 1.409 . S
C560 H578 0.929 . S
C561 C560 1.409 . S
C561 C562 1.380 . S
C561 H579 0.930 . S
C562 C561 1.380 . S
C562 C569 1.357 . S
C563 C554 1.511 . S
C563 C564 1.341 . S
C563 C565 1.371 . S
C564 C563 1.341 . S
C564 C568 1.394 . S
C564 H580 0.930 . S
C565 C563 1.371 . S
C565 C566 1.392 . S
C565 H581 0.931 . S
C566 C565 1.392 . S
C566 C567 1.331 . S
C566 H584 0.932 . S
C567 C566 1.331 . S
C567 C568 1.336 . S
C568 C564 1.394 . S
C568 C567 1.336 . S
C568 H583 0.929 . S
C569 C559 1.386 . S
C569 C562 1.357 . S
C569 H582 0.928 . S
H570 C546 0.931 . S
H571 C548 0.930 . S
H572 C550 0.929 . S
H573 C551 0.931 . S
H574 C553 0.930 . S
H575 C557 0.931 . S
H576 C555 0.931 . S
H577 C559 0.931 . S
H578 C560 0.929 . S
H579 C561 0.930 . S
H580 C564 0.930 . S
H581 C565 0.931 . S
H582 C569 0.928 . S
H583 C568 0.929 . S
H584 C566 0.932 . S
C585 C586 1.386 . S
C585 C587 1.397 . S
C585 H609 0.931 . S
C586 C585 1.386 . S
C586 C590 1.397 . S
C587 C585 1.397 . S
C587 C588 1.384 . S
C587 H610 0.930 . S
C588 C587 1.384 . S
C588 C589 1.377 . S
C588 C591 1.481 . S
C589 C588 1.377 . S
C589 C590 1.389 . S
C589 H611 0.929 . S
C590 C586 1.397 . S
C590 C589 1.389 . S
C590 H612 0.931 . S
C591 C588 1.481 . S
C591 C592 1.387 . S
C591 C596 1.390 . S
C592 C591 1.387 . S
C592 C593 1.401 . S
C592 H613 0.930 . S
C593 C592 1.401 . S
C593 C594 1.376 . S
C593 C602 1.511 . S
C594 C593 1.376 . S
C594 C595 1.392 . S
C594 H615 0.931 . S
C595 C594 1.392 . S
C595 C596 1.361 . S
C595 C597 1.500 . S
C596 C591 1.390 . S
C596 C595 1.361 . S
C596 H614 0.931 . S
C597 C595 1.500 . S
C597 C598 1.371 . S
C597 C599 1.365 . S
C598 C597 1.371 . S
C598 C608 1.386 . S
C598 H616 0.931 . S
C599 C597 1.365 . S
C599 C600 1.409 . S
C599 H617 0.929 . S
C600 C599 1.409 . S
C600 C601 1.380 . S
C600 H618 0.930 . S
C601 C600 1.380 . S
C601 C608 1.357 . S
C602 C593 1.511 . S
C602 C603 1.341 . S
C602 C604 1.371 . S
C603 C602 1.341 . S
C603 C607 1.394 . S
C603 H619 0.930 . S
C604 C602 1.371 . S
C604 C605 1.392 . S
C604 H620 0.931 . S
C605 C604 1.392 . S
C605 C606 1.331 . S
C605 H623 0.932 . S
C606 C605 1.331 . S
C606 C607 1.336 . S
C607 C603 1.394 . S
C607 C606 1.336 . S
C607 H622 0.929 . S
C608 C598 1.386 . S
C608 C601 1.357 . S
C608 H621 0.928 . S
H609 C585 0.931 . S
H610 C587 0.930 . S
H611 C589 0.929 . S
H612 C590 0.931 . S
H613 C592 0.930 . S
H614 C596 0.931 . S
H615 C594 0.931 . S
H616 C598 0.931 . S
H617 C599 0.929 . S
H618 C600 0.930 . S
H619 C603 0.930 . S
H620 C604 0.931 . S
H621 C608 0.928 . S
H622 C607 0.929 . S
H623 C605 0.932 . S
C624 C625 1.386 . S
C624 C626 1.397 . S
C624 H648 0.931 . S
C625 C624 1.386 . S
C625 C629 1.397 . S
C626 C624 1.397 . S
C626 C627 1.384 . S
C626 H649 0.930 . S
C627 C626 1.384 . S
C627 C628 1.377 . S
C627 C630 1.481 . S
C628 C627 1.377 . S
C628 C629 1.389 . S
C628 H650 0.929 . S
C629 C625 1.397 . S
C629 C628 1.389 . S
C629 H651 0.931 . S
C630 C627 1.481 . S
C630 C631 1.387 . S
C630 C635 1.390 . S
C631 C630 1.387 . S
C631 C632 1.401 . S
C631 H652 0.930 . S
C632 C631 1.401 . S
C632 C633 1.376 . S
C632 C641 1.511 . S
C633 C632 1.376 . S
C633 C634 1.392 . S
C633 H654 0.931 . S
C634 C633 1.392 . S
C634 C635 1.361 . S
C634 C636 1.500 . S
C635 C630 1.390 . S
C635 C634 1.361 . S
C635 H653 0.931 . S
C636 C634 1.500 . S
C636 C637 1.371 . S
C636 C638 1.365 . S
C637 C636 1.371 . S
C637 C647 1.386 . S
C637 H655 0.931 . S
C638 C636 1.365 . S
C638 C639 1.409 . S
C638 H656 0.929 . S
C639 C638 1.409 . S
C639 C640 1.380 . S
C639 H657 0.930 . S
C640 C639 1.380 . S
C640 C647 1.357 . S
C641 C632 1.511 . S
C641 C642 1.341 . S
C641 C643 1.371 . S
C642 C641 1.341 . S
C642 C646 1.394 . S
C642 H658 0.930 . S
C643 C641 1.371 . S
C643 C644 1.392 . S
C643 H659 0.931 . S
C644 C643 1.392 . S
C644 C645 1.331 . S
C644 H662 0.932 . S
C645 C644 1.331 . S
C645 C646 1.336 . S
C646 C642 1.394 . S
C646 C645 1.336 . S
C646 H661 0.929 . S
C647 C637 1.386 . S
C647 C640 1.357 . S
C647 H660 0.928 . S
H648 C624 0.931 . S
H649 C626 0.930 . S
H650 C628 0.929 . S
H651 C629 0.931 . S
H652 C631 0.930 . S
H653 C635 0.931 . S
H654 C633 0.931 . S
H655 C637 0.931 . S
H656 C638 0.929 . S
H657 C639 0.930 . S
H658 C642 0.930 . S
H659 C643 0.931 . S
H660 C647 0.928 . S
H661 C646 0.929 . S
H662 C644 0.932 . S
C663 C664 1.386 . S
C663 C665 1.397 . S
C663 H687 0.931 . S
C664 C663 1.386 . S
C664 C668 1.397 . S
C665 C663 1.397 . S
C665 C666 1.384 . S
C665 H688 0.930 . S
C666 C665 1.384 . S
C666 C667 1.377 . S
C666 C669 1.481 . S
C667 C666 1.377 . S
C667 C668 1.389 . S
C667 H689 0.929 . S
C668 C664 1.397 . S
C668 C667 1.389 . S
C668 H690 0.931 . S
C669 C666 1.481 . S
C669 C670 1.387 . S
C669 C674 1.390 . S
C670 C669 1.387 . S
C670 C671 1.401 . S
C670 H691 0.930 . S
C671 C670 1.401 . S
C671 C672 1.376 . S
C671 C680 1.511 . S
C672 C671 1.376 . S
C672 C673 1.392 . S
C672 H693 0.931 . S
C673 C672 1.392 . S
C673 C674 1.361 . S
C673 C675 1.500 . S
C674 C669 1.390 . S
C674 C673 1.361 . S
C674 H692 0.931 . S
C675 C673 1.500 . S
C675 C676 1.371 . S
C675 C677 1.365 . S
C676 C675 1.371 . S
C676 C686 1.386 . S
C676 H694 0.931 . S
C677 C675 1.365 . S
C677 C678 1.409 . S
C677 H695 0.929 . S
C678 C677 1.409 . S
C678 C679 1.380 . S
C678 H696 0.930 . S
C679 C678 1.380 . S
C679 C686 1.357 . S
C680 C671 1.511 . S
C680 C681 1.341 . S
C680 C682 1.371 . S
C681 C680 1.341 . S
C681 C685 1.394 . S
C681 H697 0.930 . S
C682 C680 1.371 . S
C682 C683 1.392 . S
C682 H698 0.931 . S
C683 C682 1.392 . S
C683 C684 1.331 . S
C683 H701 0.932 . S
C684 C683 1.331 . S
C684 C685 1.336 . S
C685 C681 1.394 . S
C685 C684 1.336 . S
C685 H700 0.929 . S
C686 C676 1.386 . S
C686 C679 1.357 . S
C686 H699 0.928 . S
H687 C663 0.931 . S
H688 C665 0.930 . S
H689 C667 0.929 . S
H690 C668 0.931 . S
H691 C670 0.930 . S
H692 C674 0.931 . S
H693 C672 0.931 . S
H694 C676 0.931 . S
H695 C677 0.929 . S
H696 C678 0.930 . S
H697 C681 0.930 . S
H698 C682 0.931 . S
H699 C686 0.928 . S
H700 C685 0.929 . S
H701 C683 0.932 . S
Gd702 N733 2.661 . S
Gd702 N739 2.601 . S
Gd702 O746 2.545 . S
Gd702 O747 2.606 1_545 S
Gd702 O749 2.429 . S
Gd702 O750 2.545 1_545 S
Gd702 O751 2.412 . S
Gd702 O753 2.423 . S
Gd702 O754 2.324 1_545 S
Gd702 C761 2.828 . S
Gd703 N712 2.661 . S
Gd703 N716 2.601 . S
Gd703 O747 2.362 1_556 S
Gd703 O748 2.324 1_565 S
Gd703 O752 2.545 . S
Gd703 O753 2.570 1_566 S
Gd703 O755 2.448 . S
Gd703 O756 2.545 1_565 S
Gd703 O757 2.412 . S
Gd703 C770 2.828 . S
C704 C707 1.417 . S
C704 C709 1.431 . S
C704 C710 1.412 . S
C705 C708 1.437 . S
C705 C709 1.317 . S
C705 H724 0.929 . S
C706 C707 1.426 . S
C706 C708 1.413 . S
C706 N716 1.359 . S
C707 C704 1.417 . S
C707 C706 1.426 . S
C707 N712 1.350 . S
C708 C705 1.437 . S
C708 C706 1.413 . S
C708 C718 1.391 . S
C709 C704 1.431 . S
C709 C705 1.317 . S
C709 H720 0.930 . S
C710 C704 1.412 . S
C710 C711 1.355 . S
C710 H722 0.930 . S
C711 C710 1.355 . S
C711 C713 1.402 . S
C711 H723 0.930 . S
N712 Gd703 2.661 . S
N712 C707 1.350 . S
N712 C713 1.307 . S
C713 C711 1.402 . S
C713 N712 1.307 . S
C713 H714 0.930 . S
H714 C713 0.930 . S
C715 N716 1.334 . S
C715 C717 1.394 . S
C715 H719 0.930 . S
N716 Gd703 2.601 . S
N716 C706 1.359 . S
N716 C715 1.334 . S
C717 C715 1.394 . S
C717 C718 1.359 . S
C717 H729 0.930 . S
C718 C708 1.391 . S
C718 C717 1.359 . S
C718 H730 0.929 . S
H719 C715 0.930 . S
H720 C709 0.930 . S
H721 C738 0.930 . S
H722 C710 0.930 . S
H723 C711 0.930 . S
H724 C705 0.929 . S
H725 C743 0.930 . S
H726 C734 0.930 . S
H727 C735 0.930 . S
H728 C759 0.929 . S
H729 C717 0.930 . S
H730 C718 0.929 . S
H731 C760 0.930 . S
H732 C741 0.930 . S
N733 Gd702 2.661 . S
N733 C737 1.350 . S
N733 C738 1.307 . S
C734 H726 0.930 . S
C734 C735 1.355 . S
C734 C736 1.412 . S
C735 H727 0.930 . S
C735 C734 1.355 . S
C735 C738 1.402 . S
C736 C734 1.412 . S
C736 C737 1.417 . S
C736 C760 1.431 . S
C737 N733 1.350 . S
C737 C736 1.417 . S
C737 C740 1.426 . S
C738 H721 0.930 . S
C738 N733 1.307 . S
C738 C735 1.402 . S
N739 Gd702 2.601 . S
N739 C740 1.359 . S
N739 C743 1.334 . S
C740 C737 1.426 . S
C740 N739 1.359 . S
C740 C744 1.413 . S
C741 H732 0.930 . S
C741 C742 1.359 . S
C741 C743 1.394 . S
C742 C741 1.359 . S
C742 C744 1.391 . S
C742 H745 0.929 . S
C743 H725 0.930 . S
C743 N739 1.334 . S
C743 C741 1.394 . S
C744 C740 1.413 . S
C744 C742 1.391 . S
C744 C759 1.437 . S
H745 C742 0.929 . S
O746 Gd702 2.545 . S
O746 C761 1.258 . S
O747 Gd702 2.606 1_565 S
O747 Gd703 2.362 1_554 S
O747 C758 1.284 . S
O748 Gd703 2.324 1_545 S
O748 C768 1.254 . S
O749 Gd702 2.429 . S
O749 C768 1.268 1_554 S
O750 Gd702 2.545 1_565 S
O750 C758 1.250 . S
O751 Gd702 2.412 . S
O751 C761 1.252 . S
O752 Gd703 2.545 . S
O752 C770 1.258 . S
O753 Gd702 2.423 . S
O753 Gd703 2.570 1_544 S
O753 C769 1.235 1_554 S
O754 Gd702 2.324 1_565 S
O754 C777 1.254 . S
O755 Gd703 2.448 . S
O755 C777 1.234 1_556 S
O756 Gd703 2.545 1_545 S
O756 C769 1.250 . S
O757 Gd703 2.412 . S
O757 C770 1.252 . S
C758 O747 1.284 . S
C758 O750 1.250 . S
C759 H728 0.929 . S
C759 C744 1.437 . S
C759 C760 1.317 . S
C760 H731 0.930 . S
C760 C736 1.431 . S
C760 C759 1.317 . S
C761 Gd702 2.828 . S
C761 O746 1.258 . S
C761 O751 1.252 . S
C761 C762 1.497 . S
C762 C761 1.497 . S
C762 C763 1.395 . S
C762 C764 1.380 1_545 S
C763 C762 1.395 . S
C763 C766 1.398 . S
C763 H778 0.930 . S
C764 C762 1.380 1_565 S
C764 C765 1.391 . S
C764 H779 0.930 . S
C765 C764 1.391 . S
C765 C767 1.387 1_565 S
C766 C763 1.398 . S
C766 C767 1.380 . S
C766 H780 0.930 . S
C767 C765 1.387 1_545 S
C767 C766 1.380 . S
C767 H781 0.930 . S
C768 O748 1.254 . S
C768 O749 1.268 1_556 S
C769 O753 1.235 1_556 S
C769 O756 1.250 . S
C770 Gd703 2.828 . S
C770 O752 1.258 . S
C770 O757 1.252 . S
C770 C771 1.497 . S
C771 C770 1.497 . S
C771 C772 1.395 . S
C771 C773 1.380 1_565 S
C772 C771 1.395 . S
C772 C775 1.398 . S
C772 H782 0.930 . S
C773 C771 1.380 1_545 S
C773 C774 1.391 . S
C773 H783 0.930 . S
C774 C773 1.391 . S
C774 C776 1.387 1_545 S
C775 C772 1.398 . S
C775 C776 1.380 . S
C775 H784 0.930 . S
C776 C774 1.387 1_565 S
C776 C775 1.380 . S
C776 H785 0.930 . S
C777 O754 1.254 . S
C777 O755 1.234 1_554 S
H778 C763 0.930 . S
H779 C764 0.930 . S
H780 C766 0.930 . S
H781 C767 0.930 . S
H782 C772 0.930 . S
H783 C773 0.930 . S
H784 C775 0.930 . S
H785 C776 0.930 . S
Gd786 N817 2.661 . S
Gd786 N823 2.601 . S
Gd786 O830 2.545 . S
Gd786 O831 2.606 1_655 S
Gd786 O833 2.429 . S
Gd786 O834 2.545 1_655 S
Gd786 O835 2.412 . S
Gd786 O837 2.406 . S
Gd786 O838 2.324 1_655 S
Gd786 C845 2.828 . S
Gd787 N796 2.661 . S
Gd787 N800 2.601 . S
Gd787 O831 2.362 1_556 S
Gd787 O832 2.324 1_455 S
Gd787 O836 2.545 . S
Gd787 O837 2.580 1_456 S
Gd787 O839 2.407 1_556 S
Gd787 O840 2.545 1_455 S
Gd787 O841 2.412 . S
Gd787 C854 2.828 . S
C788 C791 1.417 . S
C788 C793 1.431 . S
C788 C794 1.412 . S
C789 C792 1.437 . S
C789 C793 1.317 . S
C789 H808 0.929 . S
C790 C791 1.426 . S
C790 C792 1.413 . S
C790 N800 1.359 . S
C791 C788 1.417 . S
C791 C790 1.426 . S
C791 N796 1.350 . S
C792 C789 1.437 . S
C792 C790 1.413 . S
C792 C802 1.391 . S
C793 C788 1.431 . S
C793 C789 1.317 . S
C793 H804 0.930 . S
C794 C788 1.412 . S
C794 C795 1.355 . S
C794 H806 0.930 . S
C795 C794 1.355 . S
C795 C797 1.402 . S
C795 H807 0.930 . S
N796 Gd787 2.661 . S
N796 C791 1.350 . S
N796 C797 1.307 . S
C797 C795 1.402 . S
C797 N796 1.307 . S
C797 H798 0.930 . S
H798 C797 0.930 . S
C799 N800 1.334 . S
C799 C801 1.394 . S
C799 H803 0.930 . S
N800 Gd787 2.601 . S
N800 C790 1.359 . S
N800 C799 1.334 . S
C801 C799 1.394 . S
C801 C802 1.359 . S
C801 H813 0.930 . S
C802 C792 1.391 . S
C802 C801 1.359 . S
C802 H814 0.929 . S
H803 C799 0.930 . S
H804 C793 0.930 . S
H805 C822 0.930 . S
H806 C794 0.930 . S
H807 C795 0.930 . S
H808 C789 0.929 . S
H809 C827 0.930 . S
H810 C818 0.930 . S
H811 C819 0.930 . S
H812 C843 0.929 . S
H813 C801 0.930 . S
H814 C802 0.929 . S
H815 C844 0.930 . S
H816 C825 0.930 . S
N817 Gd786 2.661 . S
N817 C821 1.350 . S
N817 C822 1.307 . S
C818 H810 0.930 . S
C818 C819 1.355 . S
C818 C820 1.412 . S
C819 H811 0.930 . S
C819 C818 1.355 . S
C819 C822 1.402 . S
C820 C818 1.412 . S
C820 C821 1.417 . S
C820 C844 1.431 . S
C821 N817 1.350 . S
C821 C820 1.417 . S
C821 C824 1.426 . S
C822 H805 0.930 . S
C822 N817 1.307 . S
C822 C819 1.402 . S
N823 Gd786 2.601 . S
N823 C824 1.359 . S
N823 C827 1.334 . S
C824 C821 1.426 . S
C824 N823 1.359 . S
C824 C828 1.413 . S
C825 H816 0.930 . S
C825 C826 1.359 . S
C825 C827 1.394 . S
C826 C825 1.359 . S
C826 C828 1.391 . S
C826 H829 0.929 . S
C827 H809 0.930 . S
C827 N823 1.334 . S
C827 C825 1.394 . S
C828 C824 1.413 . S
C828 C826 1.391 . S
C828 C843 1.437 . S
H829 C826 0.929 . S
O830 Gd786 2.545 . S
O830 C845 1.258 . S
O831 Gd786 2.606 1_455 S
O831 Gd787 2.362 1_554 S
O831 C842 1.284 . S
O832 Gd787 2.324 1_655 S
O832 C852 1.254 . S
O833 Gd786 2.429 . S
O833 C852 1.268 1_554 S
O834 Gd786 2.545 1_455 S
O834 C842 1.250 . S
O835 Gd786 2.412 . S
O835 C845 1.252 . S
O836 Gd787 2.545 . S
O836 C854 1.258 . S
O837 Gd786 2.406 . S
O837 Gd787 2.580 1_654 S
O837 C853 1.249 1_554 S
O838 Gd786 2.324 1_455 S
O838 C861 1.254 . S
O839 Gd787 2.407 1_554 S
O839 C861 1.307 . S
O840 Gd787 2.545 1_655 S
O840 C853 1.250 . S
O841 Gd787 2.412 . S
O841 C854 1.252 . S
C842 O831 1.284 . S
C842 O834 1.250 . S
C843 H812 0.929 . S
C843 C828 1.437 . S
C843 C844 1.317 . S
C844 H815 0.930 . S
C844 C820 1.431 . S
C844 C843 1.317 . S
C845 Gd786 2.828 . S
C845 O830 1.258 . S
C845 O835 1.252 . S
C845 C846 1.497 . S
C846 C845 1.497 . S
C846 C847 1.395 . S
C846 C848 1.380 1_655 S
C847 C846 1.395 . S
C847 C850 1.398 . S
C847 H862 0.930 . S
C848 C846 1.380 1_455 S
C848 C849 1.391 . S
C848 H863 0.930 . S
C849 C848 1.391 . S
C849 C851 1.387 1_455 S
C850 C847 1.398 . S
C850 C851 1.380 . S
C850 H864 0.930 . S
C851 C849 1.387 1_655 S
C851 C850 1.380 . S
C851 H865 0.930 . S
C852 O832 1.254 . S
C852 O833 1.268 1_556 S
C853 O837 1.249 1_556 S
C853 O840 1.250 . S
C854 Gd787 2.828 . S
C854 O836 1.258 . S
C854 O841 1.252 . S
C854 C855 1.497 . S
C855 C854 1.497 . S
C855 C856 1.395 . S
C855 C857 1.380 1_455 S
C856 C855 1.395 . S
C856 C859 1.398 . S
C856 H866 0.930 . S
C857 C855 1.380 1_655 S
C857 C858 1.391 . S
C857 H867 0.930 . S
C858 C857 1.391 . S
C858 C860 1.387 1_655 S
C859 C856 1.398 . S
C859 C860 1.380 . S
C859 H868 0.930 . S
C860 C858 1.387 1_455 S
C860 C859 1.380 . S
C860 H869 0.930 . S
C861 O838 1.254 . S
C861 O839 1.307 . S
H862 C847 0.930 . S
H863 C848 0.930 . S
H864 C850 0.930 . S
H865 C851 0.930 . S
H866 C856 0.930 . S
H867 C857 0.930 . S
H868 C859 0.930 . S
H869 C860 0.930 . S
Gd870 N901 2.661 . S
Gd870 N907 2.601 . S
Gd870 O914 2.545 . S
Gd870 O915 2.595 1_556 S
Gd870 O917 2.440 . S
Gd870 O918 2.545 . S
Gd870 O919 2.412 . S
Gd870 O921 2.362 1_556 S
Gd870 O922 2.324 . S
Gd870 C929 2.828 . S
Gd871 N880 2.661 . S
Gd871 N884 2.601 . S
Gd871 O915 2.380 . S
Gd871 O916 2.324 . S
Gd871 O920 2.545 . S
Gd871 O921 2.606 . S
Gd871 O923 2.429 . S
Gd871 O924 2.545 . S
Gd871 O925 2.412 . S
Gd871 C938 2.828 . S
C872 C875 1.417 . S
C872 C877 1.431 . S
C872 C878 1.412 . S
C873 C876 1.437 . S
C873 C877 1.317 . S
C873 H892 0.929 . S
C874 C875 1.426 . S
C874 C876 1.413 . S
C874 N884 1.359 . S
C875 C872 1.417 . S
C875 C874 1.426 . S
C875 N880 1.350 . S
C876 C873 1.437 . S
C876 C874 1.413 . S
C876 C886 1.391 . S
C877 C872 1.431 . S
C877 C873 1.317 . S
C877 H888 0.930 . S
C878 C872 1.412 . S
C878 C879 1.355 . S
C878 H890 0.930 . S
C879 C878 1.355 . S
C879 C881 1.402 . S
C879 H891 0.930 . S
N880 Gd871 2.661 . S
N880 C875 1.350 . S
N880 C881 1.307 . S
C881 C879 1.402 . S
C881 N880 1.307 . S
C881 H882 0.930 . S
H882 C881 0.930 . S
C883 N884 1.334 . S
C883 C885 1.394 . S
C883 H887 0.930 . S
N884 Gd871 2.601 . S
N884 C874 1.359 . S
N884 C883 1.334 . S
C885 C883 1.394 . S
C885 C886 1.359 . S
C885 H897 0.930 . S
C886 C876 1.391 . S
C886 C885 1.359 . S
C886 H898 0.929 . S
H887 C883 0.930 . S
H888 C877 0.930 . S
H889 C906 0.930 . S
H890 C878 0.930 . S
H891 C879 0.930 . S
H892 C873 0.929 . S
H893 C911 0.930 . S
H894 C902 0.930 . S
H895 C903 0.930 . S
H896 C927 0.929 . S
H897 C885 0.930 . S
H898 C886 0.929 . S
H899 C928 0.930 . S
H900 C909 0.930 . S
N901 Gd870 2.661 . S
N901 C905 1.350 . S
N901 C906 1.307 . S
C902 H894 0.930 . S
C902 C903 1.355 . S
C902 C904 1.412 . S
C903 H895 0.930 . S
C903 C902 1.355 . S
C903 C906 1.402 . S
C904 C902 1.412 . S
C904 C905 1.417 . S
C904 C928 1.431 . S
C905 N901 1.350 . S
C905 C904 1.417 . S
C905 C908 1.426 . S
C906 H889 0.930 . S
C906 N901 1.307 . S
C906 C903 1.402 . S
N907 Gd870 2.601 . S
N907 C908 1.359 . S
N907 C911 1.334 . S
C908 C905 1.426 . S
C908 N907 1.359 . S
C908 C912 1.413 . S
C909 H900 0.930 . S
C909 C910 1.359 . S
C909 C911 1.394 . S
C910 C909 1.359 . S
C910 C912 1.391 . S
C910 H913 0.929 . S
C911 H893 0.930 . S
C911 N907 1.334 . S
C911 C909 1.394 . S
C912 C908 1.413 . S
C912 C910 1.391 . S
C912 C927 1.437 . S
H913 C910 0.929 . S
O914 Gd870 2.545 . S
O914 C929 1.258 . S
O915 Gd870 2.595 1_554 S
O915 Gd871 2.380 . S
O915 C926 1.270 1_554 S
O916 Gd871 2.324 . S
O916 C936 1.254 . S
O917 Gd870 2.440 . S
O917 C936 1.247 1_556 S
O918 Gd870 2.545 . S
O918 C926 1.250 . S
O919 Gd870 2.412 . S
O919 C929 1.252 . S
O920 Gd871 2.545 . S
O920 C938 1.258 . S
O921 Gd870 2.362 1_554 S
O921 Gd871 2.606 . S
O921 C937 1.284 . S
O922 Gd870 2.324 . S
O922 C945 1.254 . S
O923 Gd871 2.429 . S
O923 C945 1.268 1_554 S
O924 Gd871 2.545 . S
O924 C937 1.250 . S
O925 Gd871 2.412 . S
O925 C938 1.252 . S
C926 O915 1.270 1_556 S
C926 O918 1.250 . S
C927 H896 0.929 . S
C927 C912 1.437 . S
C927 C928 1.317 . S
C928 H899 0.930 . S
C928 C904 1.431 . S
C928 C927 1.317 . S
C929 Gd870 2.828 . S
C929 O914 1.258 . S
C929 O919 1.252 . S
C929 C930 1.497 . S
C930 C929 1.497 . S
C930 C931 1.395 . S
C930 C932 1.380 . S
C931 C930 1.395 . S
C931 C934 1.398 . S
C931 H946 0.930 . S
C932 C930 1.380 . S
C932 C933 1.391 . S
C932 H947 0.930 . S
C933 C932 1.391 . S
C933 C935 1.387 . S
C934 C931 1.398 . S
C934 C935 1.380 . S
C934 H948 0.930 . S
C935 C933 1.387 . S
C935 C934 1.380 . S
C935 H949 0.930 . S
C936 O916 1.254 . S
C936 O917 1.247 1_554 S
C937 O921 1.284 . S
C937 O924 1.250 . S
C938 Gd871 2.828 . S
C938 O920 1.258 . S
C938 O925 1.252 . S
C938 C939 1.497 . S
C939 C938 1.497 . S
C939 C940 1.395 . S
C939 C941 1.380 . S
C940 C939 1.395 . S
C940 C943 1.398 . S
C940 H950 0.930 . S
C941 C939 1.380 . S
C941 C942 1.391 . S
C941 H951 0.930 . S
C942 C941 1.391 . S
C942 C944 1.387 . S
C943 C940 1.398 . S
C943 C944 1.380 . S
C943 H952 0.930 . S
C944 C942 1.387 . S
C944 C943 1.380 . S
C944 H953 0.930 . S
C945 O922 1.254 . S
C945 O923 1.268 1_556 S
H946 C931 0.930 . S
H947 C932 0.930 . S
H948 C934 0.930 . S
H949 C935 0.930 . S
H950 C940 0.930 . S
H951 C941 0.930 . S
H952 C943 0.930 . S
H953 C944 0.930 . S
Gd954 N985 2.661 . S
Gd954 N991 2.601 . S
Gd954 O998 2.545 . S
Gd954 O999 2.606 . S
Gd954 O1001 2.429 . S
Gd954 O1002 2.545 . S
Gd954 O1003 2.412 . S
Gd954 O1005 2.362 . S
Gd954 O1006 2.324 . S
Gd954 C1013 2.828 . S
Gd955 N964 2.661 . S
Gd955 N968 2.601 . S
Gd955 O999 2.362 . S
Gd955 O1000 2.324 . S
Gd955 O1004 2.545 . S
Gd955 O1005 2.606 . S
Gd955 O1007 2.429 . S
Gd955 O1008 2.545 . S
Gd955 O1009 2.412 . S
Gd955 C1022 2.828 . S
C956 C959 1.417 . S
C956 C961 1.431 . S
C956 C962 1.412 . S
C957 C960 1.437 . S
C957 C961 1.317 . S
C957 H976 0.929 . S
C958 C959 1.426 . S
C958 C960 1.413 . S
C958 N968 1.359 . S
C959 C956 1.417 . S
C959 C958 1.426 . S
C959 N964 1.350 . S
C960 C957 1.437 . S
C960 C958 1.413 . S
C960 C970 1.391 . S
C961 C956 1.431 . S
C961 C957 1.317 . S
C961 H972 0.930 . S
C962 C956 1.412 . S
C962 C963 1.355 . S
C962 H974 0.930 . S
C963 C962 1.355 . S
C963 C965 1.402 . S
C963 H975 0.930 . S
N964 Gd955 2.661 . S
N964 C959 1.350 . S
N964 C965 1.307 . S
C965 C963 1.402 . S
C965 N964 1.307 . S
C965 H966 0.930 . S
H966 C965 0.930 . S
C967 N968 1.334 . S
C967 C969 1.394 . S
C967 H971 0.930 . S
N968 Gd955 2.601 . S
N968 C958 1.359 . S
N968 C967 1.334 . S
C969 C967 1.394 . S
C969 C970 1.359 . S
C969 H981 0.930 . S
C970 C960 1.391 . S
C970 C969 1.359 . S
C970 H982 0.929 . S
H971 C967 0.930 . S
H972 C961 0.930 . S
H973 C990 0.930 . S
H974 C962 0.930 . S
H975 C963 0.930 . S
H976 C957 0.929 . S
H977 C995 0.930 . S
H978 C986 0.930 . S
H979 C987 0.930 . S
H980 C1011 0.929 . S
H981 C969 0.930 . S
H982 C970 0.929 . S
H983 C1012 0.930 . S
H984 C993 0.930 . S
N985 Gd954 2.661 . S
N985 C989 1.350 . S
N985 C990 1.307 . S
C986 H978 0.930 . S
C986 C987 1.355 . S
C986 C988 1.412 . S
C987 H979 0.930 . S
C987 C986 1.355 . S
C987 C990 1.402 . S
C988 C986 1.412 . S
C988 C989 1.417 . S
C988 C1012 1.431 . S
C989 N985 1.350 . S
C989 C988 1.417 . S
C989 C992 1.426 . S
C990 H973 0.930 . S
C990 N985 1.307 . S
C990 C987 1.402 . S
N991 Gd954 2.601 . S
N991 C992 1.359 . S
N991 C995 1.334 . S
C992 C989 1.426 . S
C992 N991 1.359 . S
C992 C996 1.413 . S
C993 H984 0.930 . S
C993 C994 1.359 . S
C993 C995 1.394 . S
C994 C993 1.359 . S
C994 C996 1.391 . S
C994 H997 0.929 . S
C995 H977 0.930 . S
C995 N991 1.334 . S
C995 C993 1.394 . S
C996 C992 1.413 . S
C996 C994 1.391 . S
C996 C1011 1.437 . S
H997 C994 0.929 . S
O998 Gd954 2.545 . S
O998 C1013 1.258 . S
O999 Gd954 2.606 . S
O999 Gd955 2.362 . S
O999 C1010 1.284 . S
O1000 Gd955 2.324 . S
O1000 C1020 1.254 . S
O1001 Gd954 2.429 . S
O1001 C1020 1.268 . S
O1002 Gd954 2.545 . S
O1002 C1010 1.250 . S
O1003 Gd954 2.412 . S
O1003 C1013 1.252 . S
O1004 Gd955 2.545 . S
O1004 C1022 1.258 . S
O1005 Gd954 2.362 . S
O1005 Gd955 2.606 . S
O1005 C1021 1.284 . S
O1006 Gd954 2.324 . S
O1006 C1029 1.254 . S
O1007 Gd955 2.429 . S
O1007 C1029 1.268 . S
O1008 Gd955 2.545 . S
O1008 C1021 1.250 . S
O1009 Gd955 2.412 . S
O1009 C1022 1.252 . S
C1010 O999 1.284 . S
C1010 O1002 1.250 . S
C1011 H980 0.929 . S
C1011 C996 1.437 . S
C1011 C1012 1.317 . S
C1012 H983 0.930 . S
C1012 C988 1.431 . S
C1012 C1011 1.317 . S
C1013 Gd954 2.828 . S
C1013 O998 1.258 . S
C1013 O1003 1.252 . S
C1013 C1014 1.497 . S
C1014 C1013 1.497 . S
C1014 C1015 1.395 . S
C1014 C1016 1.380 . S
C1015 C1014 1.395 . S
C1015 C1018 1.398 . S
C1015 H1030 0.930 . S
C1016 C1014 1.380 . S
C1016 C1017 1.391 . S
C1016 H1031 0.930 . S
C1017 C1016 1.391 . S
C1017 C1019 1.387 . S
C1018 C1015 1.398 . S
C1018 C1019 1.380 . S
C1018 H1032 0.930 . S
C1019 C1017 1.387 . S
C1019 C1018 1.380 . S
C1019 H1033 0.930 . S
C1020 O1000 1.254 . S
C1020 O1001 1.268 . S
C1021 O1005 1.284 . S
C1021 O1008 1.250 . S
C1022 Gd955 2.828 . S
C1022 O1004 1.258 . S
C1022 O1009 1.252 . S
C1022 C1023 1.497 . S
C1023 C1022 1.497 . S
C1023 C1024 1.395 . S
C1023 C1025 1.380 . S
C1024 C1023 1.395 . S
C1024 C1027 1.398 . S
C1024 H1034 0.930 . S
C1025 C1023 1.380 . S
C1025 C1026 1.391 . S
C1025 H1035 0.930 . S
C1026 C1025 1.391 . S
C1026 C1028 1.387 . S
C1027 C1024 1.398 . S
C1027 C1028 1.380 . S
C1027 H1036 0.930 . S
C1028 C1026 1.387 . S
C1028 C1027 1.380 . S
C1028 H1037 0.930 . S
C1029 O1006 1.254 . S
C1029 O1007 1.268 . S
H1030 C1015 0.930 . S
H1031 C1016 0.930 . S
H1032 C1018 0.930 . S
H1033 C1019 0.930 . S
H1034 C1024 0.930 . S
H1035 C1025 0.930 . S
H1036 C1027 0.930 . S
H1037 C1028 0.930 . S
Gd1038 N1069 2.661 . S
Gd1038 N1075 2.601 . S
Gd1038 O1082 2.545 . S
Gd1038 O1083 2.606 . S
Gd1038 O1085 2.429 . S
Gd1038 O1086 2.545 . S
Gd1038 O1087 2.412 . S
Gd1038 O1089 2.362 . S
Gd1038 O1090 2.324 . S
Gd1038 C1097 2.828 . S
Gd1039 N1048 2.661 . S
Gd1039 N1052 2.601 . S
Gd1039 O1083 2.362 . S
Gd1039 O1084 2.324 . S
Gd1039 O1088 2.545 . S
Gd1039 O1089 2.606 . S
Gd1039 O1091 2.429 . S
Gd1039 O1092 2.545 . S
Gd1039 O1093 2.412 . S
Gd1039 C1106 2.828 . S
C1040 C1043 1.417 . S
C1040 C1045 1.431 . S
C1040 C1046 1.412 . S
C1041 C1044 1.437 . S
C1041 C1045 1.317 . S
C1041 H1060 0.929 . S
C1042 C1043 1.426 . S
C1042 C1044 1.413 . S
C1042 N1052 1.359 . S
C1043 C1040 1.417 . S
C1043 C1042 1.426 . S
C1043 N1048 1.350 . S
C1044 C1041 1.437 . S
C1044 C1042 1.413 . S
C1044 C1054 1.391 . S
C1045 C1040 1.431 . S
C1045 C1041 1.317 . S
C1045 H1056 0.930 . S
C1046 C1040 1.412 . S
C1046 C1047 1.355 . S
C1046 H1058 0.930 . S
C1047 C1046 1.355 . S
C1047 C1049 1.402 . S
C1047 H1059 0.930 . S
N1048 Gd1039 2.661 . S
N1048 C1043 1.350 . S
N1048 C1049 1.307 . S
C1049 C1047 1.402 . S
C1049 N1048 1.307 . S
C1049 H1050 0.930 . S
H1050 C1049 0.930 . S
C1051 N1052 1.334 . S
C1051 C1053 1.394 . S
C1051 H1055 0.930 . S
N1052 Gd1039 2.601 . S
N1052 C1042 1.359 . S
N1052 C1051 1.334 . S
C1053 C1051 1.394 . S
C1053 C1054 1.359 . S
C1053 H1065 0.930 . S
C1054 C1044 1.391 . S
C1054 C1053 1.359 . S
C1054 H1066 0.929 . S
H1055 C1051 0.930 . S
H1056 C1045 0.930 . S
H1057 C1074 0.930 . S
H1058 C1046 0.930 . S
H1059 C1047 0.930 . S
H1060 C1041 0.929 . S
H1061 C1079 0.930 . S
H1062 C1070 0.930 . S
H1063 C1071 0.930 . S
H1064 C1095 0.929 . S
H1065 C1053 0.930 . S
H1066 C1054 0.929 . S
H1067 C1096 0.930 . S
H1068 C1077 0.930 . S
N1069 Gd1038 2.661 . S
N1069 C1073 1.350 . S
N1069 C1074 1.307 . S
C1070 H1062 0.930 . S
C1070 C1071 1.355 . S
C1070 C1072 1.412 . S
C1071 H1063 0.930 . S
C1071 C1070 1.355 . S
C1071 C1074 1.402 . S
C1072 C1070 1.412 . S
C1072 C1073 1.417 . S
C1072 C1096 1.431 . S
C1073 N1069 1.350 . S
C1073 C1072 1.417 . S
C1073 C1076 1.426 . S
C1074 H1057 0.930 . S
C1074 N1069 1.307 . S
C1074 C1071 1.402 . S
N1075 Gd1038 2.601 . S
N1075 C1076 1.359 . S
N1075 C1079 1.334 . S
C1076 C1073 1.426 . S
C1076 N1075 1.359 . S
C1076 C1080 1.413 . S
C1077 H1068 0.930 . S
C1077 C1078 1.359 . S
C1077 C1079 1.394 . S
C1078 C1077 1.359 . S
C1078 C1080 1.391 . S
C1078 H1081 0.929 . S
C1079 H1061 0.930 . S
C1079 N1075 1.334 . S
C1079 C1077 1.394 . S
C1080 C1076 1.413 . S
C1080 C1078 1.391 . S
C1080 C1095 1.437 . S
H1081 C1078 0.929 . S
O1082 Gd1038 2.545 . S
O1082 C1097 1.258 . S
O1083 Gd1038 2.606 . S
O1083 Gd1039 2.362 . S
O1083 C1094 1.284 . S
O1084 Gd1039 2.324 . S
O1084 C1104 1.254 . S
O1085 Gd1038 2.429 . S
O1085 C1104 1.268 . S
O1086 Gd1038 2.545 . S
O1086 C1094 1.250 . S
O1087 Gd1038 2.412 . S
O1087 C1097 1.252 . S
O1088 Gd1039 2.545 . S
O1088 C1106 1.258 . S
O1089 Gd1038 2.362 . S
O1089 Gd1039 2.606 . S
O1089 C1105 1.284 . S
O1090 Gd1038 2.324 . S
O1090 C1113 1.254 . S
O1091 Gd1039 2.429 . S
O1091 C1113 1.268 . S
O1092 Gd1039 2.545 . S
O1092 C1105 1.250 . S
O1093 Gd1039 2.412 . S
O1093 C1106 1.252 . S
C1094 O1083 1.284 . S
C1094 O1086 1.250 . S
C1095 H1064 0.929 . S
C1095 C1080 1.437 . S
C1095 C1096 1.317 . S
C1096 H1067 0.930 . S
C1096 C1072 1.431 . S
C1096 C1095 1.317 . S
C1097 Gd1038 2.828 . S
C1097 O1082 1.258 . S
C1097 O1087 1.252 . S
C1097 C1098 1.497 . S
C1098 C1097 1.497 . S
C1098 C1099 1.395 . S
C1098 C1100 1.380 . S
C1099 C1098 1.395 . S
C1099 C1102 1.398 . S
C1099 H1114 0.930 . S
C1100 C1098 1.380 . S
C1100 C1101 1.391 . S
C1100 H1115 0.930 . S
C1101 C1100 1.391 . S
C1101 C1103 1.387 . S
C1102 C1099 1.398 . S
C1102 C1103 1.380 . S
C1102 H1116 0.930 . S
C1103 C1101 1.387 . S
C1103 C1102 1.380 . S
C1103 H1117 0.930 . S
C1104 O1084 1.254 . S
C1104 O1085 1.268 . S
C1105 O1089 1.284 . S
C1105 O1092 1.250 . S
C1106 Gd1039 2.828 . S
C1106 O1088 1.258 . S
C1106 O1093 1.252 . S
C1106 C1107 1.497 . S
C1107 C1106 1.497 . S
C1107 C1108 1.395 . S
C1107 C1109 1.380 . S
C1108 C1107 1.395 . S
C1108 C1111 1.398 . S
C1108 H1118 0.930 . S
C1109 C1107 1.380 . S
C1109 C1110 1.391 . S
C1109 H1119 0.930 . S
C1110 C1109 1.391 . S
C1110 C1112 1.387 . S
C1111 C1108 1.398 . S
C1111 C1112 1.380 . S
C1111 H1120 0.930 . S
C1112 C1110 1.387 . S
C1112 C1111 1.380 . S
C1112 H1121 0.930 . S
C1113 O1090 1.254 . S
C1113 O1091 1.268 . S
H1114 C1099 0.930 . S
H1115 C1100 0.930 . S
H1116 C1102 0.930 . S
H1117 C1103 0.930 . S
H1118 C1108 0.930 . S
H1119 C1109 0.930 . S
H1120 C1111 0.930 . S
H1121 C1112 0.930 . S
Gd1122 N1153 2.661 . S
Gd1122 N1159 2.601 . S
Gd1122 O1166 2.545 . S
Gd1122 O1167 2.606 . S
Gd1122 O1169 2.429 . S
Gd1122 O1170 2.545 . S
Gd1122 O1171 2.412 . S
Gd1122 O1173 2.362 . S
Gd1122 O1174 2.324 . S
Gd1122 C1181 2.828 . S
Gd1123 N1132 2.661 . S
Gd1123 N1136 2.601 . S
Gd1123 O1167 2.362 . S
Gd1123 O1168 2.324 . S
Gd1123 O1172 2.545 . S
Gd1123 O1173 2.606 . S
Gd1123 O1175 2.429 . S
Gd1123 O1176 2.545 . S
Gd1123 O1177 2.412 . S
Gd1123 C1190 2.828 . S
C1124 C1127 1.417 . S
C1124 C1129 1.431 . S
C1124 C1130 1.412 . S
C1125 C1128 1.437 . S
C1125 C1129 1.317 . S
C1125 H1144 0.929 . S
C1126 C1127 1.426 . S
C1126 C1128 1.413 . S
C1126 N1136 1.359 . S
C1127 C1124 1.417 . S
C1127 C1126 1.426 . S
C1127 N1132 1.350 . S
C1128 C1125 1.437 . S
C1128 C1126 1.413 . S
C1128 C1138 1.391 . S
C1129 C1124 1.431 . S
C1129 C1125 1.317 . S
C1129 H1140 0.930 . S
C1130 C1124 1.412 . S
C1130 C1131 1.355 . S
C1130 H1142 0.930 . S
C1131 C1130 1.355 . S
C1131 C1133 1.402 . S
C1131 H1143 0.930 . S
N1132 Gd1123 2.661 . S
N1132 C1127 1.350 . S
N1132 C1133 1.307 . S
C1133 C1131 1.402 . S
C1133 N1132 1.307 . S
C1133 H1134 0.930 . S
H1134 C1133 0.930 . S
C1135 N1136 1.334 . S
C1135 C1137 1.394 . S
C1135 H1139 0.930 . S
N1136 Gd1123 2.601 . S
N1136 C1126 1.359 . S
N1136 C1135 1.334 . S
C1137 C1135 1.394 . S
C1137 C1138 1.359 . S
C1137 H1149 0.930 . S
C1138 C1128 1.391 . S
C1138 C1137 1.359 . S
C1138 H1150 0.929 . S
H1139 C1135 0.930 . S
H1140 C1129 0.930 . S
H1141 C1158 0.930 . S
H1142 C1130 0.930 . S
H1143 C1131 0.930 . S
H1144 C1125 0.929 . S
H1145 C1163 0.930 . S
H1146 C1154 0.930 . S
H1147 C1155 0.930 . S
H1148 C1179 0.929 . S
H1149 C1137 0.930 . S
H1150 C1138 0.929 . S
H1151 C1180 0.930 . S
H1152 C1161 0.930 . S
N1153 Gd1122 2.661 . S
N1153 C1157 1.350 . S
N1153 C1158 1.307 . S
C1154 H1146 0.930 . S
C1154 C1155 1.355 . S
C1154 C1156 1.412 . S
C1155 H1147 0.930 . S
C1155 C1154 1.355 . S
C1155 C1158 1.402 . S
C1156 C1154 1.412 . S
C1156 C1157 1.417 . S
C1156 C1180 1.431 . S
C1157 N1153 1.350 . S
C1157 C1156 1.417 . S
C1157 C1160 1.426 . S
C1158 H1141 0.930 . S
C1158 N1153 1.307 . S
C1158 C1155 1.402 . S
N1159 Gd1122 2.601 . S
N1159 C1160 1.359 . S
N1159 C1163 1.334 . S
C1160 C1157 1.426 . S
C1160 N1159 1.359 . S
C1160 C1164 1.413 . S
C1161 H1152 0.930 . S
C1161 C1162 1.359 . S
C1161 C1163 1.394 . S
C1162 C1161 1.359 . S
C1162 C1164 1.391 . S
C1162 H1165 0.929 . S
C1163 H1145 0.930 . S
C1163 N1159 1.334 . S
C1163 C1161 1.394 . S
C1164 C1160 1.413 . S
C1164 C1162 1.391 . S
C1164 C1179 1.437 . S
H1165 C1162 0.929 . S
O1166 Gd1122 2.545 . S
O1166 C1181 1.258 . S
O1167 Gd1122 2.606 . S
O1167 Gd1123 2.362 . S
O1167 C1178 1.284 . S
O1168 Gd1123 2.324 . S
O1168 C1188 1.254 . S
O1169 Gd1122 2.429 . S
O1169 C1188 1.268 . S
O1170 Gd1122 2.545 . S
O1170 C1178 1.250 . S
O1171 Gd1122 2.412 . S
O1171 C1181 1.252 . S
O1172 Gd1123 2.545 . S
O1172 C1190 1.258 . S
O1173 Gd1122 2.362 . S
O1173 Gd1123 2.606 . S
O1173 C1189 1.284 . S
O1174 Gd1122 2.324 . S
O1174 C1197 1.254 . S
O1175 Gd1123 2.429 . S
O1175 C1197 1.268 . S
O1176 Gd1123 2.545 . S
O1176 C1189 1.250 . S
O1177 Gd1123 2.412 . S
O1177 C1190 1.252 . S
C1178 O1167 1.284 . S
C1178 O1170 1.250 . S
C1179 H1148 0.929 . S
C1179 C1164 1.437 . S
C1179 C1180 1.317 . S
C1180 H1151 0.930 . S
C1180 C1156 1.431 . S
C1180 C1179 1.317 . S
C1181 Gd1122 2.828 . S
C1181 O1166 1.258 . S
C1181 O1171 1.252 . S
C1181 C1182 1.497 . S
C1182 C1181 1.497 . S
C1182 C1183 1.395 . S
C1182 C1184 1.380 . S
C1183 C1182 1.395 . S
C1183 C1186 1.398 . S
C1183 H1198 0.930 . S
C1184 C1182 1.380 . S
C1184 C1185 1.391 . S
C1184 H1199 0.930 . S
C1185 C1184 1.391 . S
C1185 C1187 1.387 . S
C1186 C1183 1.398 . S
C1186 C1187 1.380 . S
C1186 H1200 0.930 . S
C1187 C1185 1.387 . S
C1187 C1186 1.380 . S
C1187 H1201 0.930 . S
C1188 O1168 1.254 . S
C1188 O1169 1.268 . S
C1189 O1173 1.284 . S
C1189 O1176 1.250 . S
C1190 Gd1123 2.828 . S
C1190 O1172 1.258 . S
C1190 O1177 1.252 . S
C1190 C1191 1.497 . S
C1191 C1190 1.497 . S
C1191 C1192 1.395 . S
C1191 C1193 1.380 . S
C1192 C1191 1.395 . S
C1192 C1195 1.398 . S
C1192 H1202 0.930 . S
C1193 C1191 1.380 . S
C1193 C1194 1.391 . S
C1193 H1203 0.930 . S
C1194 C1193 1.391 . S
C1194 C1196 1.387 . S
C1195 C1192 1.398 . S
C1195 C1196 1.380 . S
C1195 H1204 0.930 . S
C1196 C1194 1.387 . S
C1196 C1195 1.380 . S
C1196 H1205 0.930 . S
C1197 O1174 1.254 . S
C1197 O1175 1.268 . S
H1198 C1183 0.930 . S
H1199 C1184 0.930 . S
H1200 C1186 0.930 . S
H1201 C1187 0.930 . S
H1202 C1192 0.930 . S
H1203 C1193 0.930 . S
H1204 C1195 0.930 . S
H1205 C1196 0.930 . S
Gd1206 N1237 2.661 . S
Gd1206 N1243 2.601 . S
Gd1206 O1250 2.545 . S
Gd1206 O1251 2.606 . S
Gd1206 O1253 2.429 . S
Gd1206 O1254 2.545 . S
Gd1206 O1255 2.412 . S
Gd1206 O1257 2.362 . S
Gd1206 O1258 2.324 . S
Gd1206 C1265 2.828 . S
Gd1207 N1216 2.661 . S
Gd1207 N1220 2.601 . S
Gd1207 O1251 2.362 . S
Gd1207 O1252 2.324 . S
Gd1207 O1256 2.545 . S
Gd1207 O1257 2.606 . S
Gd1207 O1259 2.429 . S
Gd1207 O1260 2.545 . S
Gd1207 O1261 2.412 . S
Gd1207 C1274 2.828 . S
C1208 C1211 1.417 . S
C1208 C1213 1.431 . S
C1208 C1214 1.412 . S
C1209 C1212 1.437 . S
C1209 C1213 1.317 . S
C1209 H1228 0.929 . S
C1210 C1211 1.426 . S
C1210 C1212 1.413 . S
C1210 N1220 1.359 . S
C1211 C1208 1.417 . S
C1211 C1210 1.426 . S
C1211 N1216 1.350 . S
C1212 C1209 1.437 . S
C1212 C1210 1.413 . S
C1212 C1222 1.391 . S
C1213 C1208 1.431 . S
C1213 C1209 1.317 . S
C1213 H1224 0.930 . S
C1214 C1208 1.412 . S
C1214 C1215 1.355 . S
C1214 H1226 0.930 . S
C1215 C1214 1.355 . S
C1215 C1217 1.402 . S
C1215 H1227 0.930 . S
N1216 Gd1207 2.661 . S
N1216 C1211 1.350 . S
N1216 C1217 1.307 . S
C1217 C1215 1.402 . S
C1217 N1216 1.307 . S
C1217 H1218 0.930 . S
H1218 C1217 0.930 . S
C1219 N1220 1.334 . S
C1219 C1221 1.394 . S
C1219 H1223 0.930 . S
N1220 Gd1207 2.601 . S
N1220 C1210 1.359 . S
N1220 C1219 1.334 . S
C1221 C1219 1.394 . S
C1221 C1222 1.359 . S
C1221 H1233 0.930 . S
C1222 C1212 1.391 . S
C1222 C1221 1.359 . S
C1222 H1234 0.929 . S
H1223 C1219 0.930 . S
H1224 C1213 0.930 . S
H1225 C1242 0.930 . S
H1226 C1214 0.930 . S
H1227 C1215 0.930 . S
H1228 C1209 0.929 . S
H1229 C1247 0.930 . S
H1230 C1238 0.930 . S
H1231 C1239 0.930 . S
H1232 C1263 0.929 . S
H1233 C1221 0.930 . S
H1234 C1222 0.929 . S
H1235 C1264 0.930 . S
H1236 C1245 0.930 . S
N1237 Gd1206 2.661 . S
N1237 C1241 1.350 . S
N1237 C1242 1.307 . S
C1238 H1230 0.930 . S
C1238 C1239 1.355 . S
C1238 C1240 1.412 . S
C1239 H1231 0.930 . S
C1239 C1238 1.355 . S
C1239 C1242 1.402 . S
C1240 C1238 1.412 . S
C1240 C1241 1.417 . S
C1240 C1264 1.431 . S
C1241 N1237 1.350 . S
C1241 C1240 1.417 . S
C1241 C1244 1.426 . S
C1242 H1225 0.930 . S
C1242 N1237 1.307 . S
C1242 C1239 1.402 . S
N1243 Gd1206 2.601 . S
N1243 C1244 1.359 . S
N1243 C1247 1.334 . S
C1244 C1241 1.426 . S
C1244 N1243 1.359 . S
C1244 C1248 1.413 . S
C1245 H1236 0.930 . S
C1245 C1246 1.359 . S
C1245 C1247 1.394 . S
C1246 C1245 1.359 . S
C1246 C1248 1.391 . S
C1246 H1249 0.929 . S
C1247 H1229 0.930 . S
C1247 N1243 1.334 . S
C1247 C1245 1.394 . S
C1248 C1244 1.413 . S
C1248 C1246 1.391 . S
C1248 C1263 1.437 . S
H1249 C1246 0.929 . S
O1250 Gd1206 2.545 . S
O1250 C1265 1.258 . S
O1251 Gd1206 2.606 . S
O1251 Gd1207 2.362 . S
O1251 C1262 1.284 . S
O1252 Gd1207 2.324 . S
O1252 C1272 1.254 . S
O1253 Gd1206 2.429 . S
O1253 C1272 1.268 . S
O1254 Gd1206 2.545 . S
O1254 C1262 1.250 . S
O1255 Gd1206 2.412 . S
O1255 C1265 1.252 . S
O1256 Gd1207 2.545 . S
O1256 C1274 1.258 . S
O1257 Gd1206 2.362 . S
O1257 Gd1207 2.606 . S
O1257 C1273 1.284 . S
O1258 Gd1206 2.324 . S
O1258 C1281 1.254 . S
O1259 Gd1207 2.429 . S
O1259 C1281 1.268 . S
O1260 Gd1207 2.545 . S
O1260 C1273 1.250 . S
O1261 Gd1207 2.412 . S
O1261 C1274 1.252 . S
C1262 O1251 1.284 . S
C1262 O1254 1.250 . S
C1263 H1232 0.929 . S
C1263 C1248 1.437 . S
C1263 C1264 1.317 . S
C1264 H1235 0.930 . S
C1264 C1240 1.431 . S
C1264 C1263 1.317 . S
C1265 Gd1206 2.828 . S
C1265 O1250 1.258 . S
C1265 O1255 1.252 . S
C1265 C1266 1.497 . S
C1266 C1265 1.497 . S
C1266 C1267 1.395 . S
C1266 C1268 1.380 . S
C1267 C1266 1.395 . S
C1267 C1270 1.398 . S
C1267 H1282 0.930 . S
C1268 C1266 1.380 . S
C1268 C1269 1.391 . S
C1268 H1283 0.930 . S
C1269 C1268 1.391 . S
C1269 C1271 1.387 . S
C1270 C1267 1.398 . S
C1270 C1271 1.380 . S
C1270 H1284 0.930 . S
C1271 C1269 1.387 . S
C1271 C1270 1.380 . S
C1271 H1285 0.930 . S
C1272 O1252 1.254 . S
C1272 O1253 1.268 . S
C1273 O1257 1.284 . S
C1273 O1260 1.250 . S
C1274 Gd1207 2.828 . S
C1274 O1256 1.258 . S
C1274 O1261 1.252 . S
C1274 C1275 1.497 . S
C1275 C1274 1.497 . S
C1275 C1276 1.395 . S
C1275 C1277 1.380 . S
C1276 C1275 1.395 . S
C1276 C1279 1.398 . S
C1276 H1286 0.930 . S
C1277 C1275 1.380 . S
C1277 C1278 1.391 . S
C1277 H1287 0.930 . S
C1278 C1277 1.391 . S
C1278 C1280 1.387 . S
C1279 C1276 1.398 . S
C1279 C1280 1.380 . S
C1279 H1288 0.930 . S
C1280 C1278 1.387 . S
C1280 C1279 1.380 . S
C1280 H1289 0.930 . S
C1281 O1258 1.254 . S
C1281 O1259 1.268 . S
H1282 C1267 0.930 . S
H1283 C1268 0.930 . S
H1284 C1270 0.930 . S
H1285 C1271 0.930 . S
H1286 C1276 0.930 . S
H1287 C1277 0.930 . S
H1288 C1279 0.930 . S
H1289 C1280 0.930 . S
Gd1290 N1321 2.661 . S
Gd1290 N1327 2.601 . S
Gd1290 O1334 2.545 . S
Gd1290 O1335 2.606 . S
Gd1290 O1337 2.429 . S
Gd1290 O1338 2.545 . S
Gd1290 O1339 2.412 . S
Gd1290 O1341 2.362 . S
Gd1290 O1342 2.324 . S
Gd1290 C1349 2.828 . S
Gd1291 N1300 2.661 . S
Gd1291 N1304 2.601 . S
Gd1291 O1335 2.362 . S
Gd1291 O1336 2.324 . S
Gd1291 O1340 2.545 . S
Gd1291 O1341 2.606 . S
Gd1291 O1343 2.429 . S
Gd1291 O1344 2.545 . S
Gd1291 O1345 2.412 . S
Gd1291 C1358 2.828 . S
C1292 C1295 1.417 . S
C1292 C1297 1.431 . S
C1292 C1298 1.412 . S
C1293 C1296 1.437 . S
C1293 C1297 1.317 . S
C1293 H1312 0.929 . S
C1294 C1295 1.426 . S
C1294 C1296 1.413 . S
C1294 N1304 1.359 . S
C1295 C1292 1.417 . S
C1295 C1294 1.426 . S
C1295 N1300 1.350 . S
C1296 C1293 1.437 . S
C1296 C1294 1.413 . S
C1296 C1306 1.391 . S
C1297 C1292 1.431 . S
C1297 C1293 1.317 . S
C1297 H1308 0.930 . S
C1298 C1292 1.412 . S
C1298 C1299 1.355 . S
C1298 H1310 0.930 . S
C1299 C1298 1.355 . S
C1299 C1301 1.402 . S
C1299 H1311 0.930 . S
N1300 Gd1291 2.661 . S
N1300 C1295 1.350 . S
N1300 C1301 1.307 . S
C1301 C1299 1.402 . S
C1301 N1300 1.307 . S
C1301 H1302 0.930 . S
H1302 C1301 0.930 . S
C1303 N1304 1.334 . S
C1303 C1305 1.394 . S
C1303 H1307 0.930 . S
N1304 Gd1291 2.601 . S
N1304 C1294 1.359 . S
N1304 C1303 1.334 . S
C1305 C1303 1.394 . S
C1305 C1306 1.359 . S
C1305 H1317 0.930 . S
C1306 C1296 1.391 . S
C1306 C1305 1.359 . S
C1306 H1318 0.929 . S
H1307 C1303 0.930 . S
H1308 C1297 0.930 . S
H1309 C1326 0.930 . S
H1310 C1298 0.930 . S
H1311 C1299 0.930 . S
H1312 C1293 0.929 . S
H1313 C1331 0.930 . S
H1314 C1322 0.930 . S
H1315 C1323 0.930 . S
H1316 C1347 0.929 . S
H1317 C1305 0.930 . S
H1318 C1306 0.929 . S
H1319 C1348 0.930 . S
H1320 C1329 0.930 . S
N1321 Gd1290 2.661 . S
N1321 C1325 1.350 . S
N1321 C1326 1.307 . S
C1322 H1314 0.930 . S
C1322 C1323 1.355 . S
C1322 C1324 1.412 . S
C1323 H1315 0.930 . S
C1323 C1322 1.355 . S
C1323 C1326 1.402 . S
C1324 C1322 1.412 . S
C1324 C1325 1.417 . S
C1324 C1348 1.431 . S
C1325 N1321 1.350 . S
C1325 C1324 1.417 . S
C1325 C1328 1.426 . S
C1326 H1309 0.930 . S
C1326 N1321 1.307 . S
C1326 C1323 1.402 . S
N1327 Gd1290 2.601 . S
N1327 C1328 1.359 . S
N1327 C1331 1.334 . S
C1328 C1325 1.426 . S
C1328 N1327 1.359 . S
C1328 C1332 1.413 . S
C1329 H1320 0.930 . S
C1329 C1330 1.359 . S
C1329 C1331 1.394 . S
C1330 C1329 1.359 . S
C1330 C1332 1.391 . S
C1330 H1333 0.929 . S
C1331 H1313 0.930 . S
C1331 N1327 1.334 . S
C1331 C1329 1.394 . S
C1332 C1328 1.413 . S
C1332 C1330 1.391 . S
C1332 C1347 1.437 . S
H1333 C1330 0.929 . S
O1334 Gd1290 2.545 . S
O1334 C1349 1.258 . S
O1335 Gd1290 2.606 . S
O1335 Gd1291 2.362 . S
O1335 C1346 1.284 . S
O1336 Gd1291 2.324 . S
O1336 C1356 1.254 . S
O1337 Gd1290 2.429 . S
O1337 C1356 1.268 . S
O1338 Gd1290 2.545 . S
O1338 C1346 1.250 . S
O1339 Gd1290 2.412 . S
O1339 C1349 1.252 . S
O1340 Gd1291 2.545 . S
O1340 C1358 1.258 . S
O1341 Gd1290 2.362 . S
O1341 Gd1291 2.606 . S
O1341 C1357 1.284 . S
O1342 Gd1290 2.324 . S
O1342 C1365 1.254 . S
O1343 Gd1291 2.429 . S
O1343 C1365 1.268 . S
O1344 Gd1291 2.545 . S
O1344 C1357 1.250 . S
O1345 Gd1291 2.412 . S
O1345 C1358 1.252 . S
C1346 O1335 1.284 . S
C1346 O1338 1.250 . S
C1347 H1316 0.929 . S
C1347 C1332 1.437 . S
C1347 C1348 1.317 . S
C1348 H1319 0.930 . S
C1348 C1324 1.431 . S
C1348 C1347 1.317 . S
C1349 Gd1290 2.828 . S
C1349 O1334 1.258 . S
C1349 O1339 1.252 . S
C1349 C1350 1.497 . S
C1350 C1349 1.497 . S
C1350 C1351 1.395 . S
C1350 C1352 1.380 . S
C1351 C1350 1.395 . S
C1351 C1354 1.398 . S
C1351 H1366 0.930 . S
C1352 C1350 1.380 . S
C1352 C1353 1.391 . S
C1352 H1367 0.930 . S
C1353 C1352 1.391 . S
C1353 C1355 1.387 . S
C1354 C1351 1.398 . S
C1354 C1355 1.380 . S
C1354 H1368 0.930 . S
C1355 C1353 1.387 . S
C1355 C1354 1.380 . S
C1355 H1369 0.930 . S
C1356 O1336 1.254 . S
C1356 O1337 1.268 . S
C1357 O1341 1.284 . S
C1357 O1344 1.250 . S
C1358 Gd1291 2.828 . S
C1358 O1340 1.258 . S
C1358 O1345 1.252 . S
C1358 C1359 1.497 . S
C1359 C1358 1.497 . S
C1359 C1360 1.395 . S
C1359 C1361 1.380 . S
C1360 C1359 1.395 . S
C1360 C1363 1.398 . S
C1360 H1370 0.930 . S
C1361 C1359 1.380 . S
C1361 C1362 1.391 . S
C1361 H1371 0.930 . S
C1362 C1361 1.391 . S
C1362 C1364 1.387 . S
C1363 C1360 1.398 . S
C1363 C1364 1.380 . S
C1363 H1372 0.930 . S
C1364 C1362 1.387 . S
C1364 C1363 1.380 . S
C1364 H1373 0.930 . S
C1365 O1342 1.254 . S
C1365 O1343 1.268 . S
H1366 C1351 0.930 . S
H1367 C1352 0.930 . S
H1368 C1354 0.930 . S
H1369 C1355 0.930 . S
H1370 C1360 0.930 . S
H1371 C1361 0.930 . S
H1372 C1363 0.930 . S
H1373 C1364 0.930 . S
Gd1374 N1405 2.661 . S
Gd1374 N1411 2.601 . S
Gd1374 O1418 2.545 . S
Gd1374 O1419 2.606 . S
Gd1374 O1421 2.429 . S
Gd1374 O1422 2.545 . S
Gd1374 O1423 2.412 . S
Gd1374 O1425 2.362 . S
Gd1374 O1426 2.324 . S
Gd1374 C1433 2.828 . S
Gd1375 N1384 2.661 . S
Gd1375 N1388 2.601 . S
Gd1375 O1419 2.362 . S
Gd1375 O1420 2.324 . S
Gd1375 O1424 2.545 . S
Gd1375 O1425 2.606 . S
Gd1375 O1427 2.429 . S
Gd1375 O1428 2.545 . S
Gd1375 O1429 2.412 . S
Gd1375 C1442 2.828 . S
C1376 C1379 1.417 . S
C1376 C1381 1.431 . S
C1376 C1382 1.412 . S
C1377 C1380 1.437 . S
C1377 C1381 1.317 . S
C1377 H1396 0.929 . S
C1378 C1379 1.426 . S
C1378 C1380 1.413 . S
C1378 N1388 1.359 . S
C1379 C1376 1.417 . S
C1379 C1378 1.426 . S
C1379 N1384 1.350 . S
C1380 C1377 1.437 . S
C1380 C1378 1.413 . S
C1380 C1390 1.391 . S
C1381 C1376 1.431 . S
C1381 C1377 1.317 . S
C1381 H1392 0.930 . S
C1382 C1376 1.412 . S
C1382 C1383 1.355 . S
C1382 H1394 0.930 . S
C1383 C1382 1.355 . S
C1383 C1385 1.402 . S
C1383 H1395 0.930 . S
N1384 Gd1375 2.661 . S
N1384 C1379 1.350 . S
N1384 C1385 1.307 . S
C1385 C1383 1.402 . S
C1385 N1384 1.307 . S
C1385 H1386 0.930 . S
H1386 C1385 0.930 . S
C1387 N1388 1.334 . S
C1387 C1389 1.394 . S
C1387 H1391 0.930 . S
N1388 Gd1375 2.601 . S
N1388 C1378 1.359 . S
N1388 C1387 1.334 . S
C1389 C1387 1.394 . S
C1389 C1390 1.359 . S
C1389 H1401 0.930 . S
C1390 C1380 1.391 . S
C1390 C1389 1.359 . S
C1390 H1402 0.929 . S
H1391 C1387 0.930 . S
H1392 C1381 0.930 . S
H1393 C1410 0.930 . S
H1394 C1382 0.930 . S
H1395 C1383 0.930 . S
H1396 C1377 0.929 . S
H1397 C1415 0.930 . S
H1398 C1406 0.930 . S
H1399 C1407 0.930 . S
H1400 C1431 0.929 . S
H1401 C1389 0.930 . S
H1402 C1390 0.929 . S
H1403 C1432 0.930 . S
H1404 C1413 0.930 . S
N1405 Gd1374 2.661 . S
N1405 C1409 1.350 . S
N1405 C1410 1.307 . S
C1406 H1398 0.930 . S
C1406 C1407 1.355 . S
C1406 C1408 1.412 . S
C1407 H1399 0.930 . S
C1407 C1406 1.355 . S
C1407 C1410 1.402 . S
C1408 C1406 1.412 . S
C1408 C1409 1.417 . S
C1408 C1432 1.431 . S
C1409 N1405 1.350 . S
C1409 C1408 1.417 . S
C1409 C1412 1.426 . S
C1410 H1393 0.930 . S
C1410 N1405 1.307 . S
C1410 C1407 1.402 . S
N1411 Gd1374 2.601 . S
N1411 C1412 1.359 . S
N1411 C1415 1.334 . S
C1412 C1409 1.426 . S
C1412 N1411 1.359 . S
C1412 C1416 1.413 . S
C1413 H1404 0.930 . S
C1413 C1414 1.359 . S
C1413 C1415 1.394 . S
C1414 C1413 1.359 . S
C1414 C1416 1.391 . S
C1414 H1417 0.929 . S
C1415 H1397 0.930 . S
C1415 N1411 1.334 . S
C1415 C1413 1.394 . S
C1416 C1412 1.413 . S
C1416 C1414 1.391 . S
C1416 C1431 1.437 . S
H1417 C1414 0.929 . S
O1418 Gd1374 2.545 . S
O1418 C1433 1.258 . S
O1419 Gd1374 2.606 . S
O1419 Gd1375 2.362 . S
O1419 C1430 1.284 . S
O1420 Gd1375 2.324 . S
O1420 C1440 1.254 . S
O1421 Gd1374 2.429 . S
O1421 C1440 1.268 . S
O1422 Gd1374 2.545 . S
O1422 C1430 1.250 . S
O1423 Gd1374 2.412 . S
O1423 C1433 1.252 . S
O1424 Gd1375 2.545 . S
O1424 C1442 1.258 . S
O1425 Gd1374 2.362 . S
O1425 Gd1375 2.606 . S
O1425 C1441 1.284 . S
O1426 Gd1374 2.324 . S
O1426 C1449 1.254 . S
O1427 Gd1375 2.429 . S
O1427 C1449 1.268 . S
O1428 Gd1375 2.545 . S
O1428 C1441 1.250 . S
O1429 Gd1375 2.412 . S
O1429 C1442 1.252 . S
C1430 O1419 1.284 . S
C1430 O1422 1.250 . S
C1431 H1400 0.929 . S
C1431 C1416 1.437 . S
C1431 C1432 1.317 . S
C1432 H1403 0.930 . S
C1432 C1408 1.431 . S
C1432 C1431 1.317 . S
C1433 Gd1374 2.828 . S
C1433 O1418 1.258 . S
C1433 O1423 1.252 . S
C1433 C1434 1.497 . S
C1434 C1433 1.497 . S
C1434 C1435 1.395 . S
C1434 C1436 1.380 . S
C1435 C1434 1.395 . S
C1435 C1438 1.398 . S
C1435 H1450 0.930 . S
C1436 C1434 1.380 . S
C1436 C1437 1.391 . S
C1436 H1451 0.930 . S
C1437 C1436 1.391 . S
C1437 C1439 1.387 . S
C1438 C1435 1.398 . S
C1438 C1439 1.380 . S
C1438 H1452 0.930 . S
C1439 C1437 1.387 . S
C1439 C1438 1.380 . S
C1439 H1453 0.930 . S
C1440 O1420 1.254 . S
C1440 O1421 1.268 . S
C1441 O1425 1.284 . S
C1441 O1428 1.250 . S
C1442 Gd1375 2.828 . S
C1442 O1424 1.258 . S
C1442 O1429 1.252 . S
C1442 C1443 1.497 . S
C1443 C1442 1.497 . S
C1443 C1444 1.395 . S
C1443 C1445 1.380 . S
C1444 C1443 1.395 . S
C1444 C1447 1.398 . S
C1444 H1454 0.930 . S
C1445 C1443 1.380 . S
C1445 C1446 1.391 . S
C1445 H1455 0.930 . S
C1446 C1445 1.391 . S
C1446 C1448 1.387 . S
C1447 C1444 1.398 . S
C1447 C1448 1.380 . S
C1447 H1456 0.930 . S
C1448 C1446 1.387 . S
C1448 C1447 1.380 . S
C1448 H1457 0.930 . S
C1449 O1426 1.254 . S
C1449 O1427 1.268 . S
H1450 C1435 0.930 . S
H1451 C1436 0.930 . S
H1452 C1438 0.930 . S
H1453 C1439 0.930 . S
H1454 C1444 0.930 . S
H1455 C1445 0.930 . S
H1456 C1447 0.930 . S
H1457 C1448 0.930 . S
H1458 C1476 0.951 . S
H1459 C1478 0.951 . S
H1460 C1480 0.950 . S
H1461 C1481 0.950 . S
H1462 C1483 0.950 . S
H1463 C1486 0.950 . S
H1464 C1487 0.950 . S
H1465 C1489 0.950 . S
H1466 C1490 0.950 . S
H1467 C1491 0.951 . S
H1468 C1493 0.951 . S
H1469 C1495 0.950 . S
H1470 C1496 0.950 . S
H1471 C1498 0.950 . S
H1472 C1501 0.950 . S
H1473 C1502 0.950 . S
H1474 C1504 0.950 . S
H1475 C1505 0.950 . S
C1476 H1458 0.951 . S
C1476 C1477 1.366 . S
C1476 C1478 1.388 . S
C1477 C1476 1.366 . S
C1477 C1481 1.385 . S
C1478 H1459 0.951 . S
C1478 C1476 1.388 . S
C1478 C1479 1.366 . S
C1479 C1478 1.366 . S
C1479 C1480 1.414 . S
C1479 C1482 1.499 . S
C1480 H1460 0.950 . S
C1480 C1479 1.414 . S
C1480 C1481 1.374 . S
C1481 H1461 0.950 . S
C1481 C1477 1.385 . S
C1481 C1480 1.374 . S
C1482 C1479 1.499 . S
C1482 C1483 1.373 . S
C1482 C1484 1.389 . S
C1483 H1462 0.950 . S
C1483 C1482 1.373 . S
C1483 C1499 1.377 . S
C1484 C1482 1.389 . S
C1484 C1485 1.524 . S
C1484 C1498 1.377 . S
C1485 C1484 1.524 . S
C1485 C1486 1.397 . S
C1485 C1490 1.363 . S
C1486 H1463 0.950 . S
C1486 C1485 1.397 . S
C1486 C1487 1.334 . S
C1487 H1464 0.950 . S
C1487 C1486 1.334 . S
C1487 C1488 1.287 . S
C1488 C1487 1.287 . S
C1488 C1489 1.524 . S
C1488 H1507 0.913 . S
C1489 H1465 0.950 . S
C1489 C1488 1.524 . S
C1489 C1490 1.415 . S
C1490 H1466 0.950 . S
C1490 C1485 1.363 . S
C1490 C1489 1.415 . S
C1491 H1467 0.951 . S
C1491 C1492 1.366 . S
C1491 C1493 1.388 . S
C1492 C1491 1.366 . S
C1492 C1496 1.385 . S
C1493 H1468 0.951 . S
C1493 C1491 1.388 . S
C1493 C1494 1.366 . S
C1494 C1493 1.366 . S
C1494 C1495 1.414 . S
C1494 C1497 1.499 . S
C1495 H1469 0.950 . S
C1495 C1494 1.414 . S
C1495 C1496 1.374 . S
C1496 H1470 0.950 . S
C1496 C1492 1.385 . S
C1496 C1495 1.374 . S
C1497 C1494 1.499 . S
C1497 C1498 1.373 . S
C1497 C1499 1.389 . S
C1498 H1471 0.950 . S
C1498 C1484 1.377 . S
C1498 C1497 1.373 . S
C1499 C1483 1.377 . S
C1499 C1497 1.389 . S
C1499 C1500 1.524 . S
C1500 C1499 1.524 . S
C1500 C1501 1.397 . S
C1500 C1505 1.363 . S
C1501 H1472 0.950 . S
C1501 C1500 1.397 . S
C1501 C1502 1.334 . S
C1502 H1473 0.950 . S
C1502 C1501 1.334 . S
C1502 C1503 1.287 . S
C1503 C1502 1.287 . S
C1503 C1504 1.524 . S
C1503 H1506 0.999 . S
C1504 H1474 0.950 . S
C1504 C1503 1.524 . S
C1504 C1505 1.415 . S
C1505 H1475 0.950 . S
C1505 C1500 1.363 . S
C1505 C1504 1.415 . S
H1506 C1503 0.999 . S
H1507 C1488 0.913 . S
H1508 C1526 0.951 . S
H1509 C1528 0.951 . S
H1510 C1530 0.950 . S
H1511 C1531 0.950 . S
H1512 C1533 0.950 . S
H1513 C1536 0.950 . S
H1514 C1537 0.950 . S
H1515 C1539 0.950 . S
H1516 C1540 0.950 . S
H1517 C1541 0.951 . S
H1518 C1543 0.951 . S
H1519 C1545 0.950 . S
H1520 C1546 0.950 . S
H1521 C1548 0.950 . S
H1522 C1551 0.950 . S
H1523 C1552 0.950 . S
H1524 C1554 0.950 . S
H1525 C1555 0.950 . S
C1526 H1508 0.951 . S
C1526 C1527 1.366 . S
C1526 C1528 1.388 . S
C1527 C1526 1.366 . S
C1527 C1531 1.385 . S
C1528 H1509 0.951 . S
C1528 C1526 1.388 . S
C1528 C1529 1.366 . S
C1529 C1528 1.366 . S
C1529 C1530 1.414 . S
C1529 C1532 1.499 . S
C1530 H1510 0.950 . S
C1530 C1529 1.414 . S
C1530 C1531 1.374 . S
C1531 H1511 0.950 . S
C1531 C1527 1.385 . S
C1531 C1530 1.374 . S
C1532 C1529 1.499 . S
C1532 C1533 1.373 . S
C1532 C1534 1.389 . S
C1533 H1512 0.950 . S
C1533 C1532 1.373 . S
C1533 C1549 1.377 . S
C1534 C1532 1.389 . S
C1534 C1535 1.524 . S
C1534 C1548 1.377 . S
C1535 C1534 1.524 . S
C1535 C1536 1.397 . S
C1535 C1540 1.363 . S
C1536 H1513 0.950 . S
C1536 C1535 1.397 . S
C1536 C1537 1.334 . S
C1537 H1514 0.950 . S
C1537 C1536 1.334 . S
C1537 C1538 1.287 . S
C1538 C1537 1.287 . S
C1538 C1539 1.524 . S
C1538 H1557 0.913 . S
C1539 H1515 0.950 . S
C1539 C1538 1.524 . S
C1539 C1540 1.415 . S
C1540 H1516 0.950 . S
C1540 C1535 1.363 . S
C1540 C1539 1.415 . S
C1541 H1517 0.951 . S
C1541 C1542 1.366 . S
C1541 C1543 1.388 . S
C1542 C1541 1.366 . S
C1542 C1546 1.385 . S
C1543 H1518 0.951 . S
C1543 C1541 1.388 . S
C1543 C1544 1.366 . S
C1544 C1543 1.366 . S
C1544 C1545 1.414 . S
C1544 C1547 1.499 . S
C1545 H1519 0.950 . S
C1545 C1544 1.414 . S
C1545 C1546 1.374 . S
C1546 H1520 0.950 . S
C1546 C1542 1.385 . S
C1546 C1545 1.374 . S
C1547 C1544 1.499 . S
C1547 C1548 1.373 . S
C1547 C1549 1.389 . S
C1548 H1521 0.950 . S
C1548 C1534 1.377 . S
C1548 C1547 1.373 . S
C1549 C1533 1.377 . S
C1549 C1547 1.389 . S
C1549 C1550 1.524 . S
C1550 C1549 1.524 . S
C1550 C1551 1.397 . S
C1550 C1555 1.363 . S
C1551 H1522 0.950 . S
C1551 C1550 1.397 . S
C1551 C1552 1.334 . S
C1552 H1523 0.950 . S
C1552 C1551 1.334 . S
C1552 C1553 1.287 . S
C1553 C1552 1.287 . S
C1553 C1554 1.524 . S
C1553 H1556 0.999 . S
C1554 H1524 0.950 . S
C1554 C1553 1.524 . S
C1554 C1555 1.415 . S
C1555 H1525 0.950 . S
C1555 C1550 1.363 . S
C1555 C1554 1.415 . S
H1556 C1553 0.999 . S
H1557 C1538 0.913 . S
H1558 C1576 0.951 . S
H1559 C1578 0.951 . S
H1560 C1580 0.950 . S
H1561 C1581 0.950 . S
H1562 C1583 0.950 . S
H1563 C1586 0.950 . S
H1564 C1587 0.950 . S
H1565 C1589 0.950 . S
H1566 C1590 0.950 . S
H1567 C1591 0.951 . S
H1568 C1593 0.951 . S
H1569 C1595 0.950 . S
H1570 C1596 0.950 . S
H1571 C1598 0.950 . S
H1572 C1601 0.950 . S
H1573 C1602 0.950 . S
H1574 C1604 0.950 . S
H1575 C1605 0.950 . S
C1576 H1558 0.951 . S
C1576 C1577 1.366 . S
C1576 C1578 1.388 . S
C1577 C1576 1.366 . S
C1577 C1581 1.385 . S
C1578 H1559 0.951 . S
C1578 C1576 1.388 . S
C1578 C1579 1.366 . S
C1579 C1578 1.366 . S
C1579 C1580 1.414 . S
C1579 C1582 1.499 . S
C1580 H1560 0.950 . S
C1580 C1579 1.414 . S
C1580 C1581 1.374 . S
C1581 H1561 0.950 . S
C1581 C1577 1.385 . S
C1581 C1580 1.374 . S
C1582 C1579 1.499 . S
C1582 C1583 1.373 . S
C1582 C1584 1.389 . S
C1583 H1562 0.950 . S
C1583 C1582 1.373 . S
C1583 C1599 1.377 . S
C1584 C1582 1.389 . S
C1584 C1585 1.524 . S
C1584 C1598 1.377 . S
C1585 C1584 1.524 . S
C1585 C1586 1.397 . S
C1585 C1590 1.363 . S
C1586 H1563 0.950 . S
C1586 C1585 1.397 . S
C1586 C1587 1.334 . S
C1587 H1564 0.950 . S
C1587 C1586 1.334 . S
C1587 C1588 1.287 . S
C1588 C1587 1.287 . S
C1588 C1589 1.524 . S
C1588 H1607 0.913 . S
C1589 H1565 0.950 . S
C1589 C1588 1.524 . S
C1589 C1590 1.415 . S
C1590 H1566 0.950 . S
C1590 C1585 1.363 . S
C1590 C1589 1.415 . S
C1591 H1567 0.951 . S
C1591 C1592 1.366 . S
C1591 C1593 1.388 . S
C1592 C1591 1.366 . S
C1592 C1596 1.385 . S
C1593 H1568 0.951 . S
C1593 C1591 1.388 . S
C1593 C1594 1.366 . S
C1594 C1593 1.366 . S
C1594 C1595 1.414 . S
C1594 C1597 1.499 . S
C1595 H1569 0.950 . S
C1595 C1594 1.414 . S
C1595 C1596 1.374 . S
C1596 H1570 0.950 . S
C1596 C1592 1.385 . S
C1596 C1595 1.374 . S
C1597 C1594 1.499 . S
C1597 C1598 1.373 . S
C1597 C1599 1.389 . S
C1598 H1571 0.950 . S
C1598 C1584 1.377 . S
C1598 C1597 1.373 . S
C1599 C1583 1.377 . S
C1599 C1597 1.389 . S
C1599 C1600 1.524 . S
C1600 C1599 1.524 . S
C1600 C1601 1.397 . S
C1600 C1605 1.363 . S
C1601 H1572 0.950 . S
C1601 C1600 1.397 . S
C1601 C1602 1.334 1_554 S
C1602 H1573 0.950 . S
C1602 C1601 1.334 1_556 S
C1602 C1603 1.287 . S
C1603 C1602 1.287 . S
C1603 C1604 1.524 1_556 S
C1603 H1606 0.999 . S
C1604 H1574 0.950 . S
C1604 C1603 1.524 1_554 S
C1604 C1605 1.415 . S
C1605 H1575 0.950 . S
C1605 C1600 1.363 . S
C1605 C1604 1.415 . S
H1606 C1603 0.999 . S
H1607 C1588 0.913 . S
H1608 C1626 0.951 . S
H1609 C1628 0.951 . S
H1610 C1630 0.950 . S
H1611 C1631 0.950 . S
H1612 C1633 0.950 . S
H1613 C1636 0.950 . S
H1614 C1637 0.950 . S
H1615 C1639 0.950 . S
H1616 C1640 0.950 . S
H1617 C1641 0.951 1_554 S
H1618 C1643 0.951 . S
H1619 C1645 0.950 . S
H1620 C1646 0.950 . S
H1621 C1648 0.950 . S
H1622 C1651 0.950 . S
H1623 C1652 0.950 . S
H1624 C1654 0.950 . S
H1625 C1655 0.950 . S
C1626 H1608 0.951 . S
C1626 C1627 1.366 . S
C1626 C1628 1.388 . S
C1627 C1626 1.366 . S
C1627 C1631 1.385 . S
C1628 H1609 0.951 . S
C1628 C1626 1.388 . S
C1628 C1629 1.366 . S
C1629 C1628 1.366 . S
C1629 C1630 1.414 . S
C1629 C1632 1.499 . S
C1630 H1610 0.950 . S
C1630 C1629 1.414 . S
C1630 C1631 1.374 . S
C1631 H1611 0.950 . S
C1631 C1627 1.385 . S
C1631 C1630 1.374 . S
C1632 C1629 1.499 . S
C1632 C1633 1.373 . S
C1632 C1634 1.389 . S
C1633 H1612 0.950 . S
C1633 C1632 1.373 . S
C1633 C1649 1.377 . S
C1634 C1632 1.389 . S
C1634 C1635 1.524 . S
C1634 C1648 1.377 . S
C1635 C1634 1.524 . S
C1635 C1636 1.397 . S
C1635 C1640 1.363 . S
C1636 H1613 0.950 . S
C1636 C1635 1.397 . S
C1636 C1637 1.334 . S
C1637 H1614 0.950 . S
C1637 C1636 1.334 . S
C1637 C1638 1.287 . S
C1638 C1637 1.287 . S
C1638 C1639 1.524 . S
C1638 H1657 0.913 . S
C1639 H1615 0.950 . S
C1639 C1638 1.524 . S
C1639 C1640 1.415 . S
C1640 H1616 0.950 . S
C1640 C1635 1.363 . S
C1640 C1639 1.415 . S
C1641 H1617 0.951 1_556 S
C1641 C1642 1.366 . S
C1641 C1643 1.388 . S
C1642 C1641 1.366 . S
C1642 C1646 1.385 . S
C1643 H1618 0.951 . S
C1643 C1641 1.388 . S
C1643 C1644 1.366 . S
C1644 C1643 1.366 . S
C1644 C1645 1.414 . S
C1644 C1647 1.499 . S
C1645 H1619 0.950 . S
C1645 C1644 1.414 . S
C1645 C1646 1.374 . S
C1646 H1620 0.950 . S
C1646 C1642 1.385 . S
C1646 C1645 1.374 . S
C1647 C1644 1.499 . S
C1647 C1648 1.373 . S
C1647 C1649 1.389 . S
C1648 H1621 0.950 . S
C1648 C1634 1.377 . S
C1648 C1647 1.373 . S
C1649 C1633 1.377 . S
C1649 C1647 1.389 . S
C1649 C1650 1.524 . S
C1650 C1649 1.524 . S
C1650 C1651 1.397 . S
C1650 C1655 1.363 . S
C1651 H1622 0.950 . S
C1651 C1650 1.397 . S
C1651 C1652 1.334 . S
C1652 H1623 0.950 . S
C1652 C1651 1.334 . S
C1652 C1653 1.287 . S
C1653 C1652 1.287 . S
C1653 C1654 1.524 . S
C1653 H1656 0.999 . S
C1654 H1624 0.950 . S
C1654 C1653 1.524 . S
C1654 C1655 1.415 . S
C1655 H1625 0.950 . S
C1655 C1650 1.363 . S
C1655 C1654 1.415 . S
H1656 C1653 0.999 . S
H1657 C1638 0.913 . S
H1658 C1676 0.951 . S
H1659 C1678 0.951 . S
H1660 C1680 0.950 . S
H1661 C1681 0.950 . S
H1662 C1683 0.950 . S
H1663 C1686 0.950 . S
H1664 C1687 0.950 . S
H1665 C1689 0.950 . S
H1666 C1690 0.950 . S
H1667 C1691 0.951 . S
H1668 C1693 0.951 . S
H1669 C1695 0.950 . S
H1670 C1696 0.988 . S
H1671 C1698 0.950 . S
H1672 C1701 0.950 . S
H1673 C1702 0.950 . S
H1674 C1704 0.950 . S
H1675 C1705 0.950 . S
C1676 H1658 0.951 . S
C1676 C1677 1.366 . S
C1676 C1678 1.388 . S
C1677 C1676 1.366 . S
C1677 C1681 1.385 . S
C1678 H1659 0.951 . S
C1678 C1676 1.388 . S
C1678 C1679 1.366 . S
C1679 C1678 1.366 . S
C1679 C1680 1.414 . S
C1679 C1682 1.499 . S
C1680 H1660 0.950 . S
C1680 C1679 1.414 . S
C1680 C1681 1.374 . S
C1681 H1661 0.950 . S
C1681 C1677 1.385 . S
C1681 C1680 1.374 . S
C1682 C1679 1.499 . S
C1682 C1683 1.373 . S
C1682 C1684 1.389 . S
C1683 H1662 0.950 . S
C1683 C1682 1.373 . S
C1683 C1699 1.377 . S
C1684 C1682 1.389 . S
C1684 C1685 1.524 . S
C1684 C1698 1.377 . S
C1685 C1684 1.524 . S
C1685 C1686 1.397 . S
C1685 C1690 1.363 . S
C1686 H1663 0.950 . S
C1686 C1685 1.397 . S
C1686 C1687 1.334 . S
C1687 H1664 0.950 . S
C1687 C1686 1.334 . S
C1687 C1688 1.287 1_556 S
C1688 C1687 1.287 1_554 S
C1688 C1689 1.524 . S
C1688 H1707 0.913 . S
C1689 H1665 0.950 . S
C1689 C1688 1.524 . S
C1689 C1690 1.415 1_554 S
C1690 H1666 0.950 . S
C1690 C1685 1.363 . S
C1690 C1689 1.415 1_556 S
C1691 H1667 0.951 . S
C1691 C1692 1.366 . S
C1691 C1693 1.388 . S
C1692 C1691 1.366 . S
C1692 C1696 1.385 . S
C1693 H1668 0.951 . S
C1693 C1691 1.388 . S
C1693 C1694 1.366 . S
C1694 C1693 1.366 . S
C1694 C1695 1.414 . S
C1694 C1697 1.499 . S
C1695 H1669 0.950 . S
C1695 C1694 1.414 . S
C1695 C1696 1.374 . S
C1696 H1670 0.988 . S
C1696 C1692 1.385 . S
C1696 C1695 1.374 . S
C1697 C1694 1.499 . S
C1697 C1698 1.373 . S
C1697 C1699 1.389 . S
C1698 H1671 0.950 . S
C1698 C1684 1.377 . S
C1698 C1697 1.373 . S
C1699 C1683 1.377 . S
C1699 C1697 1.389 . S
C1699 C1700 1.524 . S
C1700 C1699 1.524 . S
C1700 C1701 1.397 . S
C1700 C1705 1.363 . S
C1701 H1672 0.950 . S
C1701 C1700 1.397 . S
C1701 C1702 1.334 . S
C1702 H1673 0.950 . S
C1702 C1701 1.334 . S
C1702 C1703 1.287 . S
C1703 C1702 1.287 . S
C1703 C1704 1.524 . S
C1703 H1706 0.999 . S
C1704 H1674 0.950 . S
C1704 C1703 1.524 . S
C1704 C1705 1.415 . S
C1705 H1675 0.950 . S
C1705 C1700 1.363 . S
C1705 C1704 1.415 . S
H1706 C1703 0.999 . S
H1707 C1688 0.913 . S
H1708 C1726 0.951 . S
H1709 C1728 0.951 . S
H1710 C1730 0.950 . S
H1711 C1731 0.950 . S
H1712 C1733 0.950 . S
H1713 C1736 0.950 . S
H1714 C1737 0.950 . S
H1715 C1739 0.950 . S
H1716 C1740 0.950 1_554 S
H1717 C1741 0.951 . S
H1718 C1743 0.951 . S
H1719 C1745 1.003 . S
H1720 C1746 0.950 1_554 S
H1721 C1748 0.950 . S
H1722 C1751 0.950 . S
H1723 C1752 0.950 . S
H1724 C1754 0.950 . S
H1725 C1755 0.950 . S
C1726 H1708 0.951 . S
C1726 C1727 1.366 . S
C1726 C1728 1.388 . S
C1727 C1726 1.366 . S
C1727 C1731 1.385 . S
C1728 H1709 0.951 . S
C1728 C1726 1.388 . S
C1728 C1729 1.366 . S
C1729 C1728 1.366 . S
C1729 C1730 1.414 . S
C1729 C1732 1.499 . S
C1730 H1710 0.950 . S
C1730 C1729 1.414 . S
C1730 C1731 1.374 . S
C1731 H1711 0.950 . S
C1731 C1727 1.385 . S
C1731 C1730 1.374 . S
C1732 C1729 1.499 . S
C1732 C1733 1.373 . S
C1732 C1734 1.389 . S
C1733 H1712 0.950 . S
C1733 C1732 1.373 . S
C1733 C1749 1.377 . S
C1734 C1732 1.389 . S
C1734 C1735 1.524 . S
C1734 C1748 1.377 . S
C1735 C1734 1.524 . S
C1735 C1736 1.397 . S
C1735 C1740 1.363 . S
C1736 H1713 0.950 . S
C1736 C1735 1.397 . S
C1736 C1737 1.334 . S
C1737 H1714 0.950 . S
C1737 C1736 1.334 . S
C1737 C1738 1.287 . S
C1738 C1737 1.287 . S
C1738 C1739 1.524 1_556 S
C1738 H1757 0.913 1_556 S
C1739 H1715 0.950 . S
C1739 C1738 1.524 1_554 S
C1739 C1740 1.415 1_554 S
C1740 H1716 0.950 1_556 S
C1740 C1735 1.363 . S
C1740 C1739 1.415 1_556 S
C1741 H1717 0.951 . S
C1741 C1742 1.366 . S
C1741 C1743 1.388 . S
C1742 C1741 1.366 . S
C1742 C1746 1.385 . S
C1743 H1718 0.951 . S
C1743 C1741 1.388 . S
C1743 C1744 1.366 . S
C1744 C1743 1.366 . S
C1744 C1745 1.414 . S
C1744 C1747 1.499 . S
C1745 H1719 1.003 . S
C1745 C1744 1.414 . S
C1745 C1746 1.374 . S
C1746 H1720 0.950 1_556 S
C1746 C1742 1.385 . S
C1746 C1745 1.374 . S
C1747 C1744 1.499 . S
C1747 C1748 1.373 . S
C1747 C1749 1.389 . S
C1748 H1721 0.950 . S
C1748 C1734 1.377 . S
C1748 C1747 1.373 . S
C1749 C1733 1.377 . S
C1749 C1747 1.389 . S
C1749 C1750 1.524 . S
C1750 C1749 1.524 . S
C1750 C1751 1.397 . S
C1750 C1755 1.363 . S
C1751 H1722 0.950 . S
C1751 C1750 1.397 . S
C1751 C1752 1.334 . S
C1752 H1723 0.950 . S
C1752 C1751 1.334 . S
C1752 C1753 1.287 . S
C1753 C1752 1.287 . S
C1753 C1754 1.524 . S
C1753 H1756 0.999 . S
C1754 H1724 0.950 . S
C1754 C1753 1.524 . S
C1754 C1755 1.415 . S
C1755 H1725 0.950 . S
C1755 C1750 1.363 . S
C1755 C1754 1.415 . S
H1756 C1753 0.999 . S
H1757 C1738 0.913 1_554 S
H1758 C1776 0.951 . S
H1759 C1778 0.951 . S
H1760 C1780 0.950 . S
H1761 C1781 0.950 . S
H1762 C1783 0.950 . S
H1763 C1786 0.950 . S
H1764 C1787 0.950 . S
H1765 C1789 0.950 . S
H1766 C1790 0.950 . S
H1767 C1791 0.951 . S
H1768 C1793 0.951 . S
H1769 C1795 0.950 . S
H1770 C1796 0.950 . S
H1771 C1798 0.950 . S
H1772 C1801 0.906 1_556 S
H1773 C1802 0.950 . S
H1774 C1804 0.950 . S
H1775 C1805 0.950 1_556 S
C1776 H1758 0.951 . S
C1776 C1777 1.366 . S
C1776 C1778 1.388 . S
C1777 C1776 1.366 . S
C1777 C1781 1.385 . S
C1778 H1759 0.951 . S
C1778 C1776 1.388 . S
C1778 C1779 1.366 . S
C1779 C1778 1.366 . S
C1779 C1780 1.414 . S
C1779 C1782 1.499 . S
C1780 H1760 0.950 . S
C1780 C1779 1.414 . S
C1780 C1781 1.374 . S
C1781 H1761 0.950 . S
C1781 C1777 1.385 . S
C1781 C1780 1.374 . S
C1782 C1779 1.499 . S
C1782 C1783 1.373 . S
C1782 C1784 1.389 . S
C1783 H1762 0.950 . S
C1783 C1782 1.373 . S
C1783 C1799 1.377 . S
C1784 C1782 1.389 . S
C1784 C1785 1.524 . S
C1784 C1798 1.377 . S
C1785 C1784 1.524 . S
C1785 C1786 1.397 . S
C1785 C1790 1.363 . S
C1786 H1763 0.950 . S
C1786 C1785 1.397 . S
C1786 C1787 1.334 . S
C1787 H1764 0.950 . S
C1787 C1786 1.334 . S
C1787 C1788 1.287 . S
C1788 C1787 1.287 . S
C1788 C1789 1.524 . S
C1788 H1807 0.913 . S
C1789 H1765 0.950 . S
C1789 C1788 1.524 . S
C1789 C1790 1.415 . S
C1790 H1766 0.950 . S
C1790 C1785 1.363 . S
C1790 C1789 1.415 . S
C1791 H1767 0.951 . S
C1791 C1792 1.366 . S
C1791 C1793 1.388 . S
C1792 C1791 1.366 . S
C1792 C1796 1.385 . S
C1793 H1768 0.951 . S
C1793 C1791 1.388 . S
C1793 C1794 1.366 . S
C1794 C1793 1.366 . S
C1794 C1795 1.414 . S
C1794 C1797 1.499 . S
C1795 H1769 0.950 . S
C1795 C1794 1.414 . S
C1795 C1796 1.374 . S
C1796 H1770 0.950 . S
C1796 C1792 1.385 . S
C1796 C1795 1.374 . S
C1797 C1794 1.499 . S
C1797 C1798 1.373 . S
C1797 C1799 1.389 . S
C1798 H1771 0.950 . S
C1798 C1784 1.377 . S
C1798 C1797 1.373 . S
C1799 C1783 1.377 . S
C1799 C1797 1.389 . S
C1799 C1800 1.524 . S
C1800 C1799 1.524 . S
C1800 C1801 1.397 1_556 S
C1800 C1805 1.363 1_556 S
C1801 H1772 0.906 1_554 S
C1801 C1800 1.397 1_554 S
C1801 C1802 1.334 . S
C1802 H1773 0.950 . S
C1802 C1801 1.334 . S
C1802 C1803 1.287 . S
C1803 C1802 1.287 . S
C1803 C1804 1.524 . S
C1803 H1806 0.999 . S
C1804 H1774 0.950 . S
C1804 C1803 1.524 . S
C1804 C1805 1.415 . S
C1805 H1775 0.950 1_554 S
C1805 C1800 1.363 1_554 S
C1805 C1804 1.415 . S
H1806 C1803 0.999 . S
H1807 C1788 0.913 . S
H1808 C1826 0.951 . S
H1809 C1828 0.951 . S
H1810 C1830 0.950 . S
H1811 C1831 0.950 . S
H1812 C1833 0.950 . S
H1813 C1836 0.950 . S
H1814 C1837 0.950 . S
H1815 C1839 0.950 . S
H1816 C1840 0.950 . S
H1817 C1841 0.951 . S
H1818 C1843 0.951 . S
H1819 C1845 0.950 . S
H1820 C1846 1.018 . S
H1821 C1848 0.950 . S
H1822 C1851 0.950 . S
H1823 C1852 0.950 . S
H1824 C1854 0.950 . S
H1825 C1855 0.950 . S
C1826 H1808 0.951 . S
C1826 C1827 1.366 . S
C1826 C1828 1.388 . S
C1827 C1826 1.366 . S
C1827 C1831 1.385 . S
C1828 H1809 0.951 . S
C1828 C1826 1.388 . S
C1828 C1829 1.366 . S
C1829 C1828 1.366 . S
C1829 C1830 1.414 . S
C1829 C1832 1.499 . S
C1830 H1810 0.950 . S
C1830 C1829 1.414 . S
C1830 C1831 1.374 . S
C1831 H1811 0.950 . S
C1831 C1827 1.385 . S
C1831 C1830 1.374 . S
C1832 C1829 1.499 . S
C1832 C1833 1.373 . S
C1832 C1834 1.389 . S
C1833 H1812 0.950 . S
C1833 C1832 1.373 . S
C1833 C1849 1.377 . S
C1834 C1832 1.389 . S
C1834 C1835 1.524 . S
C1834 C1848 1.377 . S
C1835 C1834 1.524 . S
C1835 C1836 1.397 . S
C1835 C1840 1.363 . S
C1836 H1813 0.950 . S
C1836 C1835 1.397 . S
C1836 C1837 1.334 . S
C1837 H1814 0.950 . S
C1837 C1836 1.334 . S
C1837 C1838 1.287 1_556 S
C1838 C1837 1.287 1_554 S
C1838 C1839 1.524 . S
C1838 H1857 0.913 . S
C1839 H1815 0.950 . S
C1839 C1838 1.524 . S
C1839 C1840 1.415 1_554 S
C1840 H1816 0.950 . S
C1840 C1835 1.363 . S
C1840 C1839 1.415 1_556 S
C1841 H1817 0.951 . S
C1841 C1842 1.366 . S
C1841 C1843 1.388 . S
C1842 C1841 1.366 . S
C1842 C1846 1.385 . S
C1843 H1818 0.951 . S
C1843 C1841 1.388 . S
C1843 C1844 1.366 . S
C1844 C1843 1.366 . S
C1844 C1845 1.414 . S
C1844 C1847 1.499 . S
C1845 H1819 0.950 . S
C1845 C1844 1.414 . S
C1845 C1846 1.374 . S
C1846 H1820 1.018 . S
C1846 C1842 1.385 . S
C1846 C1845 1.374 . S
C1847 C1844 1.499 . S
C1847 C1848 1.373 . S
C1847 C1849 1.389 . S
C1848 H1821 0.950 . S
C1848 C1834 1.377 . S
C1848 C1847 1.373 . S
C1849 C1833 1.377 . S
C1849 C1847 1.389 . S
C1849 C1850 1.524 . S
C1850 C1849 1.524 . S
C1850 C1851 1.397 . S
C1850 C1855 1.363 . S
C1851 H1822 0.950 . S
C1851 C1850 1.397 . S
C1851 C1852 1.334 . S
C1852 H1823 0.950 . S
C1852 C1851 1.334 . S
C1852 C1853 1.287 . S
C1853 C1852 1.287 . S
C1853 C1854 1.524 . S
C1853 H1856 0.999 . S
C1854 H1824 0.950 . S
C1854 C1853 1.524 . S
C1854 C1855 1.415 . S
C1855 H1825 0.950 . S
C1855 C1850 1.363 . S
C1855 C1854 1.415 . S
H1856 C1853 0.999 . S
H1857 C1838 0.913 . S
H1858 C1876 0.951 . S
H1859 C1878 0.951 . S
H1860 C1880 0.950 . S
H1861 C1881 0.950 . S
H1862 C1883 0.950 . S
H1863 C1886 0.950 . S
H1864 C1887 0.950 . S
H1865 C1889 0.950 . S
H1866 C1890 0.950 . S
H1867 C1891 0.951 . S
H1868 C1893 0.951 . S
H1869 C1895 0.950 . S
H1870 C1896 0.950 . S
H1871 C1898 0.950 . S
H1872 C1901 0.950 1_556 S
H1873 C1902 0.950 . S
H1874 C1904 0.950 . S
H1875 C1905 0.949 . S
C1876 H1858 0.951 . S
C1876 C1877 1.366 . S
C1876 C1878 1.388 . S
C1877 C1876 1.366 . S
C1877 C1881 1.385 . S
C1878 H1859 0.951 . S
C1878 C1876 1.388 . S
C1878 C1879 1.366 . S
C1879 C1878 1.366 . S
C1879 C1880 1.414 . S
C1879 C1882 1.499 . S
C1880 H1860 0.950 . S
C1880 C1879 1.414 . S
C1880 C1881 1.374 . S
C1881 H1861 0.950 . S
C1881 C1877 1.385 . S
C1881 C1880 1.374 . S
C1882 C1879 1.499 . S
C1882 C1883 1.373 . S
C1882 C1884 1.389 . S
C1883 H1862 0.950 . S
C1883 C1882 1.373 . S
C1883 C1899 1.377 . S
C1884 C1882 1.389 . S
C1884 C1885 1.524 . S
C1884 C1898 1.377 . S
C1885 C1884 1.524 . S
C1885 C1886 1.397 . S
C1885 C1890 1.363 . S
C1886 H1863 0.950 . S
C1886 C1885 1.397 . S
C1886 C1887 1.334 . S
C1887 H1864 0.950 . S
C1887 C1886 1.334 . S
C1887 C1888 1.287 . S
C1888 C1887 1.287 . S
C1888 C1889 1.524 . S
C1888 H1907 0.913 . S
C1889 H1865 0.950 . S
C1889 C1888 1.524 . S
C1889 C1890 1.415 . S
C1890 H1866 0.950 . S
C1890 C1885 1.363 . S
C1890 C1889 1.415 . S
C1891 H1867 0.951 . S
C1891 C1892 1.366 . S
C1891 C1893 1.388 . S
C1892 C1891 1.366 . S
C1892 C1896 1.385 . S
C1893 H1868 0.951 . S
C1893 C1891 1.388 . S
C1893 C1894 1.366 . S
C1894 C1893 1.366 . S
C1894 C1895 1.414 . S
C1894 C1897 1.499 . S
C1895 H1869 0.950 . S
C1895 C1894 1.414 . S
C1895 C1896 1.374 . S
C1896 H1870 0.950 . S
C1896 C1892 1.385 . S
C1896 C1895 1.374 . S
C1897 C1894 1.499 . S
C1897 C1898 1.373 . S
C1897 C1899 1.389 . S
C1898 H1871 0.950 . S
C1898 C1884 1.377 . S
C1898 C1897 1.373 . S
C1899 C1883 1.377 . S
C1899 C1897 1.389 . S
C1899 C1900 1.524 . S
C1900 C1899 1.524 . S
C1900 C1901 1.397 1_556 S
C1900 C1905 1.363 1_556 S
C1901 H1872 0.950 1_554 S
C1901 C1900 1.397 1_554 S
C1901 C1902 1.334 . S
C1902 H1873 0.950 . S
C1902 C1901 1.334 . S
C1902 C1903 1.287 . S
C1903 C1902 1.287 . S
C1903 C1904 1.524 . S
C1903 H1906 0.999 . S
C1904 H1874 0.950 . S
C1904 C1903 1.524 . S
C1904 C1905 1.415 . S
C1905 H1875 0.949 . S
C1905 C1900 1.363 1_554 S
C1905 C1904 1.415 . S
H1906 C1903 0.999 . S
H1907 C1888 0.913 . S
H1908 C1926 0.951 . S
H1909 C1928 0.951 . S
H1910 C1930 0.950 . S
H1911 C1931 0.950 . S
H1912 C1933 0.950 . S
H1913 C1936 0.950 . S
H1914 C1937 0.950 . S
H1915 C1939 0.950 . S
H1916 C1940 0.950 . S
H1917 C1941 0.951 . S
H1918 C1943 0.951 . S
H1919 C1945 0.950 . S
H1920 C1946 0.950 . S
H1921 C1948 0.950 . S
H1922 C1951 0.950 . S
H1923 C1952 0.950 . S
H1924 C1954 0.950 . S
H1925 C1955 0.950 . S
C1926 H1908 0.951 . S
C1926 C1927 1.366 . S
C1926 C1928 1.388 . S
C1927 C1926 1.366 . S
C1927 C1931 1.385 . S
C1928 H1909 0.951 . S
C1928 C1926 1.388 . S
C1928 C1929 1.366 . S
C1929 C1928 1.366 . S
C1929 C1930 1.414 . S
C1929 C1932 1.499 . S
C1930 H1910 0.950 . S
C1930 C1929 1.414 . S
C1930 C1931 1.374 . S
C1931 H1911 0.950 . S
C1931 C1927 1.385 . S
C1931 C1930 1.374 . S
C1932 C1929 1.499 . S
C1932 C1933 1.373 . S
C1932 C1934 1.389 . S
C1933 H1912 0.950 . S
C1933 C1932 1.373 . S
C1933 C1949 1.377 . S
C1934 C1932 1.389 . S
C1934 C1935 1.524 . S
C1934 C1948 1.377 . S
C1935 C1934 1.524 . S
C1935 C1936 1.397 . S
C1935 C1940 1.363 . S
C1936 H1913 0.950 . S
C1936 C1935 1.397 . S
C1936 C1937 1.334 . S
C1937 H1914 0.950 . S
C1937 C1936 1.334 . S
C1937 C1938 1.287 . S
C1938 C1937 1.287 . S
C1938 C1939 1.524 . S
C1938 H1957 0.913 . S
C1939 H1915 0.950 . S
C1939 C1938 1.524 . S
C1939 C1940 1.415 . S
C1940 H1916 0.950 . S
C1940 C1935 1.363 . S
C1940 C1939 1.415 . S
C1941 H1917 0.951 . S
C1941 C1942 1.366 . S
C1941 C1943 1.388 . S
C1942 C1941 1.366 . S
C1942 C1946 1.385 . S
C1943 H1918 0.951 . S
C1943 C1941 1.388 . S
C1943 C1944 1.366 . S
C1944 C1943 1.366 . S
C1944 C1945 1.414 . S
C1944 C1947 1.499 . S
C1945 H1919 0.950 . S
C1945 C1944 1.414 . S
C1945 C1946 1.374 . S
C1946 H1920 0.950 . S
C1946 C1942 1.385 . S
C1946 C1945 1.374 . S
C1947 C1944 1.499 . S
C1947 C1948 1.373 . S
C1947 C1949 1.389 . S
C1948 H1921 0.950 . S
C1948 C1934 1.377 . S
C1948 C1947 1.373 . S
C1949 C1933 1.377 . S
C1949 C1947 1.389 . S
C1949 C1950 1.524 . S
C1950 C1949 1.524 . S
C1950 C1951 1.397 . S
C1950 C1955 1.363 . S
C1951 H1922 0.950 . S
C1951 C1950 1.397 . S
C1951 C1952 1.334 . S
C1952 H1923 0.950 . S
C1952 C1951 1.334 . S
C1952 C1953 1.287 1_554 S
C1953 C1952 1.287 1_556 S
C1953 C1954 1.524 . S
C1953 H1956 0.999 . S
C1954 H1924 0.950 . S
C1954 C1953 1.524 . S
C1954 C1955 1.415 1_556 S
C1955 H1925 0.950 . S
C1955 C1950 1.363 . S
C1955 C1954 1.415 1_554 S
H1956 C1953 0.999 . S
H1957 C1938 0.913 . S
H1958 C1976 0.951 . S
H1959 C1978 0.951 . S
H1960 C1980 0.950 . S
H1961 C1981 0.950 . S
H1962 C1983 0.950 . S
H1963 C1986 0.950 . S
H1964 C1987 0.950 . S
H1965 C1989 0.950 . S
H1966 C1990 0.950 . S
H1967 C1991 0.951 . S
H1968 C1993 0.951 . S
H1969 C1995 0.950 . S
H1970 C1996 0.950 . S
H1971 C1998 0.950 . S
H1972 C2001 0.950 . S
H1973 C2002 0.950 . S
H1974 C2004 0.950 . S
H1975 C2005 0.950 . S
C1976 H1958 0.951 . S
C1976 C1977 1.366 . S
C1976 C1978 1.388 . S
C1977 C1976 1.366 . S
C1977 C1981 1.385 . S
C1978 H1959 0.951 . S
C1978 C1976 1.388 . S
C1978 C1979 1.366 . S
C1979 C1978 1.366 . S
C1979 C1980 1.414 . S
C1979 C1982 1.499 . S
C1980 H1960 0.950 . S
C1980 C1979 1.414 . S
C1980 C1981 1.374 . S
C1981 H1961 0.950 . S
C1981 C1977 1.385 . S
C1981 C1980 1.374 . S
C1982 C1979 1.499 . S
C1982 C1983 1.373 . S
C1982 C1984 1.389 . S
C1983 H1962 0.950 . S
C1983 C1982 1.373 . S
C1983 C1999 1.377 . S
C1984 C1982 1.389 . S
C1984 C1985 1.524 . S
C1984 C1998 1.377 . S
C1985 C1984 1.524 . S
C1985 C1986 1.397 . S
C1985 C1990 1.363 . S
C1986 H1963 0.950 . S
C1986 C1985 1.397 . S
C1986 C1987 1.334 . S
C1987 H1964 0.950 . S
C1987 C1986 1.334 . S
C1987 C1988 1.287 . S
C1988 C1987 1.287 . S
C1988 C1989 1.524 . S
C1988 H2007 0.913 . S
C1989 H1965 0.950 . S
C1989 C1988 1.524 . S
C1989 C1990 1.415 . S
C1990 H1966 0.950 . S
C1990 C1985 1.363 . S
C1990 C1989 1.415 . S
C1991 H1967 0.951 . S
C1991 C1992 1.366 . S
C1991 C1993 1.388 . S
C1992 C1991 1.366 . S
C1992 C1996 1.385 . S
C1993 H1968 0.951 . S
C1993 C1991 1.388 . S
C1993 C1994 1.366 . S
C1994 C1993 1.366 . S
C1994 C1995 1.414 . S
C1994 C1997 1.499 . S
C1995 H1969 0.950 . S
C1995 C1994 1.414 . S
C1995 C1996 1.374 . S
C1996 H1970 0.950 . S
C1996 C1992 1.385 . S
C1996 C1995 1.374 . S
C1997 C1994 1.499 . S
C1997 C1998 1.373 . S
C1997 C1999 1.389 . S
C1998 H1971 0.950 . S
C1998 C1984 1.377 . S
C1998 C1997 1.373 . S
C1999 C1983 1.377 . S
C1999 C1997 1.389 . S
C1999 C2000 1.524 . S
C2000 C1999 1.524 . S
C2000 C2001 1.397 . S
C2000 C2005 1.363 . S
C2001 H1972 0.950 . S
C2001 C2000 1.397 . S
C2001 C2002 1.334 . S
C2002 H1973 0.950 . S
C2002 C2001 1.334 . S
C2002 C2003 1.287 1_554 S
C2003 C2002 1.287 1_556 S
C2003 C2004 1.524 . S
C2003 H2006 0.999 . S
C2004 H1974 0.950 . S
C2004 C2003 1.524 . S
C2004 C2005 1.415 1_556 S
C2005 H1975 0.950 . S
C2005 C2000 1.363 . S
C2005 C2004 1.415 1_554 S
H2006 C2003 0.999 . S
H2007 C1988 0.913 . S
H2008 C2026 0.951 . S
H2009 C2028 0.951 . S
H2010 C2030 0.950 . S
H2011 C2031 0.950 . S
H2012 C2033 0.950 . S
H2013 C2036 0.950 . S
H2014 C2037 0.950 . S
H2015 C2039 0.950 . S
H2016 C2040 0.950 . S
H2017 C2041 0.986 . S
H2018 C2043 0.951 . S
H2019 C2045 0.950 . S
H2020 C2046 0.950 . S
H2021 C2048 0.950 . S
H2022 C2051 0.950 . S
H2023 C2052 0.950 . S
H2024 C2054 0.950 1_556 S
H2025 C2055 0.950 . S
C2026 H2008 0.951 . S
C2026 C2027 1.366 . S
C2026 C2028 1.388 . S
C2027 C2026 1.366 . S
C2027 C2031 1.385 . S
C2028 H2009 0.951 . S
C2028 C2026 1.388 . S
C2028 C2029 1.366 . S
C2029 C2028 1.366 . S
C2029 C2030 1.414 . S
C2029 C2032 1.499 . S
C2030 H2010 0.950 . S
C2030 C2029 1.414 . S
C2030 C2031 1.374 . S
C2031 H2011 0.950 . S
C2031 C2027 1.385 . S
C2031 C2030 1.374 . S
C2032 C2029 1.499 . S
C2032 C2033 1.373 . S
C2032 C2034 1.389 . S
C2033 H2012 0.950 . S
C2033 C2032 1.373 . S
C2033 C2049 1.377 . S
C2034 C2032 1.389 . S
C2034 C2035 1.524 . S
C2034 C2048 1.377 . S
C2035 C2034 1.524 . S
C2035 C2036 1.397 . S
C2035 C2040 1.363 . S
C2036 H2013 0.950 . S
C2036 C2035 1.397 . S
C2036 C2037 1.334 . S
C2037 H2014 0.950 . S
C2037 C2036 1.334 . S
C2037 C2038 1.287 . S
C2038 C2037 1.287 . S
C2038 C2039 1.524 . S
C2038 H2057 0.913 . S
C2039 H2015 0.950 . S
C2039 C2038 1.524 . S
C2039 C2040 1.415 . S
C2040 H2016 0.950 . S
C2040 C2035 1.363 . S
C2040 C2039 1.415 . S
C2041 H2017 0.986 . S
C2041 C2042 1.366 . S
C2041 C2043 1.388 . S
C2042 C2041 1.366 . S
C2042 C2046 1.385 . S
C2043 H2018 0.951 . S
C2043 C2041 1.388 . S
C2043 C2044 1.366 . S
C2044 C2043 1.366 . S
C2044 C2045 1.414 . S
C2044 C2047 1.499 . S
C2045 H2019 0.950 . S
C2045 C2044 1.414 . S
C2045 C2046 1.374 . S
C2046 H2020 0.950 . S
C2046 C2042 1.385 . S
C2046 C2045 1.374 . S
C2047 C2044 1.499 . S
C2047 C2048 1.373 . S
C2047 C2049 1.389 . S
C2048 H2021 0.950 . S
C2048 C2034 1.377 . S
C2048 C2047 1.373 . S
C2049 C2033 1.377 . S
C2049 C2047 1.389 . S
C2049 C2050 1.524 . S
C2050 C2049 1.524 . S
C2050 C2051 1.397 . S
C2050 C2055 1.363 . S
C2051 H2022 0.950 . S
C2051 C2050 1.397 . S
C2051 C2052 1.334 . S
C2052 H2023 0.950 . S
C2052 C2051 1.334 . S
C2052 C2053 1.287 . S
C2053 C2052 1.287 . S
C2053 C2054 1.524 . S
C2053 H2056 0.999 . S
C2054 H2024 0.950 1_554 S
C2054 C2053 1.524 . S
C2054 C2055 1.415 . S
C2055 H2025 0.950 . S
C2055 C2050 1.363 . S
C2055 C2054 1.415 . S
H2056 C2053 0.999 . S
H2057 C2038 0.913 . S
H2058 C2076 0.951 . S
H2059 C2078 0.951 . S
H2060 C2080 0.950 . S
H2061 C2081 0.950 . S
H2062 C2083 0.950 . S
H2063 C2086 0.952 1_455 S
H2064 C2087 0.950 . S
H2065 C2089 0.950 . S
H2066 C2090 0.950 . S
H2067 C2091 0.951 . S
H2068 C2093 0.951 . S
H2069 C2095 0.950 . S
H2070 C2096 0.950 . S
H2071 C2098 0.950 . S
H2072 C2101 0.950 . S
H2073 C2102 0.950 . S
H2074 C2104 0.950 . S
H2075 C2105 0.950 . S
C2076 H2058 0.951 . S
C2076 C2077 1.366 . S
C2076 C2078 1.388 . S
C2077 C2076 1.366 . S
C2077 C2081 1.385 . S
C2078 H2059 0.951 . S
C2078 C2076 1.388 . S
C2078 C2079 1.366 1_655 S
C2079 C2078 1.366 1_455 S
C2079 C2080 1.414 . S
C2079 C2082 1.499 . S
C2080 H2060 0.950 . S
C2080 C2079 1.414 . S
C2080 C2081 1.374 1_455 S
C2081 H2061 0.950 . S
C2081 C2077 1.385 . S
C2081 C2080 1.374 1_655 S
C2082 C2079 1.499 . S
C2082 C2083 1.373 . S
C2082 C2084 1.389 . S
C2083 H2062 0.950 . S
C2083 C2082 1.373 . S
C2083 C2099 1.377 . S
C2084 C2082 1.389 . S
C2084 C2085 1.524 . S
C2084 C2098 1.377 . S
C2085 C2084 1.524 . S
C2085 C2086 1.397 1_455 S
C2085 C2090 1.363 . S
C2086 H2063 0.952 1_655 S
C2086 C2085 1.397 1_655 S
C2086 C2087 1.332 . S
C2087 H2064 0.950 . S
C2087 C2086 1.332 . S
C2087 C2088 1.287 . S
C2088 C2087 1.287 . S
C2088 C2089 1.524 . S
C2088 H2107 0.913 . S
C2089 H2065 0.950 . S
C2089 C2088 1.524 . S
C2089 C2090 1.415 1_655 S
C2090 H2066 0.950 . S
C2090 C2085 1.363 . S
C2090 C2089 1.415 1_455 S
C2091 H2067 0.951 . S
C2091 C2092 1.366 . S
C2091 C2093 1.388 . S
C2092 C2091 1.366 . S
C2092 C2096 1.385 . S
C2093 H2068 0.951 . S
C2093 C2091 1.388 . S
C2093 C2094 1.366 . S
C2094 C2093 1.366 . S
C2094 C2095 1.414 . S
C2094 C2097 1.499 . S
C2095 H2069 0.950 . S
C2095 C2094 1.414 . S
C2095 C2096 1.374 . S
C2096 H2070 0.950 . S
C2096 C2092 1.385 . S
C2096 C2095 1.374 . S
C2097 C2094 1.499 . S
C2097 C2098 1.373 . S
C2097 C2099 1.389 . S
C2098 H2071 0.950 . S
C2098 C2084 1.377 . S
C2098 C2097 1.373 . S
C2099 C2083 1.377 . S
C2099 C2097 1.389 . S
C2099 C2100 1.524 . S
C2100 C2099 1.524 . S
C2100 C2101 1.397 . S
C2100 C2105 1.363 . S
C2101 H2072 0.950 . S
C2101 C2100 1.397 . S
C2101 C2102 1.334 . S
C2102 H2073 0.950 . S
C2102 C2101 1.334 . S
C2102 C2103 1.287 . S
C2103 C2102 1.287 . S
C2103 C2104 1.524 . S
C2103 H2106 0.999 . S
C2104 H2074 0.950 . S
C2104 C2103 1.524 . S
C2104 C2105 1.415 . S
C2105 H2075 0.950 . S
C2105 C2100 1.363 . S
C2105 C2104 1.415 . S
H2106 C2103 0.999 . S
H2107 C2088 0.913 . S
H2108 C2126 0.951 . S
H2109 C2128 0.951 . S
H2110 C2130 0.950 . S
H2111 C2131 0.950 . S
H2112 C2133 0.950 . S
H2113 C2136 0.950 . S
H2114 C2137 0.950 . S
H2115 C2139 0.950 . S
H2116 C2140 0.950 . S
H2117 C2141 0.951 . S
H2118 C2143 0.951 . S
H2119 C2145 0.950 . S
H2120 C2146 0.950 . S
H2121 C2148 0.950 . S
H2122 C2151 0.950 . S
H2123 C2152 0.950 . S
H2124 C2154 0.950 . S
H2125 C2155 0.950 . S
C2126 H2108 0.951 . S
C2126 C2127 1.366 . S
C2126 C2128 1.388 . S
C2127 C2126 1.366 . S
C2127 C2131 1.385 . S
C2128 H2109 0.951 . S
C2128 C2126 1.388 . S
C2128 C2129 1.366 . S
C2129 C2128 1.366 . S
C2129 C2130 1.414 . S
C2129 C2132 1.499 . S
C2130 H2110 0.950 . S
C2130 C2129 1.414 . S
C2130 C2131 1.374 . S
C2131 H2111 0.950 . S
C2131 C2127 1.385 . S
C2131 C2130 1.374 . S
C2132 C2129 1.499 . S
C2132 C2133 1.373 . S
C2132 C2134 1.389 . S
C2133 H2112 0.950 . S
C2133 C2132 1.373 . S
C2133 C2149 1.377 . S
C2134 C2132 1.389 . S
C2134 C2135 1.524 . S
C2134 C2148 1.377 . S
C2135 C2134 1.524 . S
C2135 C2136 1.397 . S
C2135 C2140 1.363 . S
C2136 H2113 0.950 . S
C2136 C2135 1.397 . S
C2136 C2137 1.334 . S
C2137 H2114 0.950 . S
C2137 C2136 1.334 . S
C2137 C2138 1.287 . S
C2138 C2137 1.287 . S
C2138 C2139 1.524 . S
C2138 H2157 0.913 . S
C2139 H2115 0.950 . S
C2139 C2138 1.524 . S
C2139 C2140 1.415 . S
C2140 H2116 0.950 . S
C2140 C2135 1.363 . S
C2140 C2139 1.415 . S
C2141 H2117 0.951 . S
C2141 C2142 1.366 . S
C2141 C2143 1.388 . S
C2142 C2141 1.366 . S
C2142 C2146 1.385 . S
C2143 H2118 0.951 . S
C2143 C2141 1.388 . S
C2143 C2144 1.366 . S
C2144 C2143 1.366 . S
C2144 C2145 1.414 . S
C2144 C2147 1.499 . S
C2145 H2119 0.950 . S
C2145 C2144 1.414 . S
C2145 C2146 1.374 . S
C2146 H2120 0.950 . S
C2146 C2142 1.385 . S
C2146 C2145 1.374 . S
C2147 C2144 1.499 . S
C2147 C2148 1.373 . S
C2147 C2149 1.389 . S
C2148 H2121 0.950 . S
C2148 C2134 1.377 . S
C2148 C2147 1.373 . S
C2149 C2133 1.377 . S
C2149 C2147 1.389 . S
C2149 C2150 1.524 . S
C2150 C2149 1.524 . S
C2150 C2151 1.397 . S
C2150 C2155 1.363 . S
C2151 H2122 0.950 . S
C2151 C2150 1.397 . S
C2151 C2152 1.334 . S
C2152 H2123 0.950 . S
C2152 C2151 1.334 . S
C2152 C2153 1.287 . S
C2153 C2152 1.287 . S
C2153 C2154 1.524 . S
C2153 H2156 0.999 . S
C2154 H2124 0.950 . S
C2154 C2153 1.524 . S
C2154 C2155 1.415 . S
C2155 H2125 0.950 . S
C2155 C2150 1.363 . S
C2155 C2154 1.415 . S
H2156 C2153 0.999 . S
H2157 C2138 0.913 . S
H2158 C2176 0.951 . S
H2159 C2178 0.951 . S
H2160 C2180 0.950 . S
H2161 C2181 0.950 . S
H2162 C2183 0.950 . S
H2163 C2186 0.950 . S
H2164 C2187 0.950 . S
H2165 C2189 0.950 . S
H2166 C2190 0.950 . S
H2167 C2191 0.951 . S
H2168 C2193 0.951 . S
H2169 C2195 0.950 . S
H2170 C2196 0.950 . S
H2171 C2198 0.950 . S
H2172 C2201 0.950 . S
H2173 C2202 0.950 . S
H2174 C2204 0.950 . S
H2175 C2205 0.950 . S
C2176 H2158 0.951 . S
C2176 C2177 1.366 . S
C2176 C2178 1.388 . S
C2177 C2176 1.366 . S
C2177 C2181 1.385 . S
C2178 H2159 0.951 . S
C2178 C2176 1.388 . S
C2178 C2179 1.366 . S
C2179 C2178 1.366 . S
C2179 C2180 1.414 . S
C2179 C2182 1.499 1_545 S
C2180 H2160 0.950 . S
C2180 C2179 1.414 . S
C2180 C2181 1.374 . S
C2181 H2161 0.950 . S
C2181 C2177 1.385 . S
C2181 C2180 1.374 . S
C2182 C2179 1.499 1_565 S
C2182 C2183 1.373 . S
C2182 C2184 1.389 . S
C2183 H2162 0.950 . S
C2183 C2182 1.373 . S
C2183 C2199 1.377 . S
C2184 C2182 1.389 . S
C2184 C2185 1.524 . S
C2184 C2198 1.377 . S
C2185 C2184 1.524 . S
C2185 C2186 1.397 . S
C2185 C2190 1.363 . S
C2186 H2163 0.950 . S
C2186 C2185 1.397 . S
C2186 C2187 1.334 . S
C2187 H2164 0.950 . S
C2187 C2186 1.334 . S
C2187 C2188 1.287 . S
C2188 C2187 1.287 . S
C2188 C2189 1.524 . S
C2188 H2207 0.913 . S
C2189 H2165 0.950 . S
C2189 C2188 1.524 . S
C2189 C2190 1.415 . S
C2190 H2166 0.950 . S
C2190 C2185 1.363 . S
C2190 C2189 1.415 . S
C2191 H2167 0.951 . S
C2191 C2192 1.366 . S
C2191 C2193 1.388 . S
C2192 C2191 1.366 . S
C2192 C2196 1.385 . S
C2193 H2168 0.951 . S
C2193 C2191 1.388 . S
C2193 C2194 1.366 . S
C2194 C2193 1.366 . S
C2194 C2195 1.414 . S
C2194 C2197 1.499 . S
C2195 H2169 0.950 . S
C2195 C2194 1.414 . S
C2195 C2196 1.374 . S
C2196 H2170 0.950 . S
C2196 C2192 1.385 . S
C2196 C2195 1.374 . S
C2197 C2194 1.499 . S
C2197 C2198 1.373 . S
C2197 C2199 1.389 . S
C2198 H2171 0.950 . S
C2198 C2184 1.377 . S
C2198 C2197 1.373 . S
C2199 C2183 1.377 . S
C2199 C2197 1.389 . S
C2199 C2200 1.524 . S
C2200 C2199 1.524 . S
C2200 C2201 1.397 . S
C2200 C2205 1.363 . S
C2201 H2172 0.950 . S
C2201 C2200 1.397 . S
C2201 C2202 1.334 . S
C2202 H2173 0.950 . S
C2202 C2201 1.334 . S
C2202 C2203 1.287 . S
C2203 C2202 1.287 . S
C2203 C2204 1.524 . S
C2203 H2206 0.999 . S
C2204 H2174 0.950 . S
C2204 C2203 1.524 . S
C2204 C2205 1.415 . S
C2205 H2175 0.950 . S
C2205 C2200 1.363 . S
C2205 C2204 1.415 . S
H2206 C2203 0.999 . S
H2207 C2188 0.913 . S
H2208 C2226 0.951 . S
H2209 C2228 0.951 . S
H2210 C2230 0.950 . S
H2211 C2231 0.950 . S
H2212 C2233 0.950 . S
H2213 C2236 0.950 . S
H2214 C2237 0.950 . S
H2215 C2239 0.950 . S
H2216 C2240 0.950 . S
H2217 C2241 0.951 . S
H2218 C2243 0.951 . S
H2219 C2245 0.950 . S
H2220 C2246 0.950 . S
H2221 C2248 0.950 . S
H2222 C2251 0.950 . S
H2223 C2252 0.950 . S
H2224 C2254 0.950 . S
H2225 C2255 0.950 . S
C2226 H2208 0.951 . S
C2226 C2227 1.366 . S
C2226 C2228 1.388 . S
C2227 C2226 1.366 . S
C2227 C2231 1.385 . S
C2228 H2209 0.951 . S
C2228 C2226 1.388 . S
C2228 C2229 1.366 . S
C2229 C2228 1.366 . S
C2229 C2230 1.414 . S
C2229 C2232 1.499 . S
C2230 H2210 0.950 . S
C2230 C2229 1.414 . S
C2230 C2231 1.374 . S
C2231 H2211 0.950 . S
C2231 C2227 1.385 . S
C2231 C2230 1.374 . S
C2232 C2229 1.499 . S
C2232 C2233 1.373 . S
C2232 C2234 1.389 . S
C2233 H2212 0.950 . S
C2233 C2232 1.373 . S
C2233 C2249 1.377 . S
C2234 C2232 1.389 . S
C2234 C2235 1.524 . S
C2234 C2248 1.377 . S
C2235 C2234 1.524 . S
C2235 C2236 1.397 . S
C2235 C2240 1.363 . S
C2236 H2213 0.950 . S
C2236 C2235 1.397 . S
C2236 C2237 1.334 . S
C2237 H2214 0.950 . S
C2237 C2236 1.334 . S
C2237 C2238 1.287 . S
C2238 C2237 1.287 . S
C2238 C2239 1.524 . S
C2238 H2257 0.913 . S
C2239 H2215 0.950 . S
C2239 C2238 1.524 . S
C2239 C2240 1.415 . S
C2240 H2216 0.950 . S
C2240 C2235 1.363 . S
C2240 C2239 1.415 . S
C2241 H2217 0.951 . S
C2241 C2242 1.366 . S
C2241 C2243 1.388 . S
C2242 C2241 1.366 . S
C2242 C2246 1.385 . S
C2243 H2218 0.951 . S
C2243 C2241 1.388 . S
C2243 C2244 1.366 . S
C2244 C2243 1.366 . S
C2244 C2245 1.414 . S
C2244 C2247 1.499 . S
C2245 H2219 0.950 . S
C2245 C2244 1.414 . S
C2245 C2246 1.374 . S
C2246 H2220 0.950 . S
C2246 C2242 1.385 . S
C2246 C2245 1.374 . S
C2247 C2244 1.499 . S
C2247 C2248 1.373 . S
C2247 C2249 1.389 . S
C2248 H2221 0.950 . S
C2248 C2234 1.377 . S
C2248 C2247 1.373 . S
C2249 C2233 1.377 . S
C2249 C2247 1.389 . S
C2249 C2250 1.524 . S
C2250 C2249 1.524 . S
C2250 C2251 1.397 . S
C2250 C2255 1.363 . S
C2251 H2222 0.950 . S
C2251 C2250 1.397 . S
C2251 C2252 1.334 . S
C2252 H2223 0.950 . S
C2252 C2251 1.334 . S
C2252 C2253 1.287 . S
C2253 C2252 1.287 . S
C2253 C2254 1.524 . S
C2253 H2256 0.999 . S
C2254 H2224 0.950 . S
C2254 C2253 1.524 . S
C2254 C2255 1.415 . S
C2255 H2225 0.950 . S
C2255 C2250 1.363 . S
C2255 C2254 1.415 . S
H2256 C2253 0.999 . S
H2257 C2238 0.913 . S
H2258 C2276 0.951 . S
H2259 C2278 0.951 . S
H2260 C2280 0.950 . S
H2261 C2281 0.950 . S
H2262 C2283 0.950 . S
H2263 C2286 0.950 . S
H2264 C2287 0.950 . S
H2265 C2289 0.950 . S
H2266 C2290 0.950 . S
H2267 C2291 0.951 . S
H2268 C2293 0.951 . S
H2269 C2295 0.950 . S
H2270 C2296 0.950 . S
H2271 C2298 0.950 . S
H2272 C2301 0.950 . S
H2273 C2302 0.950 . S
H2274 C2304 0.950 . S
H2275 C2305 0.950 . S
C2276 H2258 0.951 . S
C2276 C2277 1.366 . S
C2276 C2278 1.388 . S
C2277 C2276 1.366 . S
C2277 C2281 1.385 . S
C2278 H2259 0.951 . S
C2278 C2276 1.388 . S
C2278 C2279 1.366 . S
C2279 C2278 1.366 . S
C2279 C2280 1.414 . S
C2279 C2282 1.499 . S
C2280 H2260 0.950 . S
C2280 C2279 1.414 . S
C2280 C2281 1.374 . S
C2281 H2261 0.950 . S
C2281 C2277 1.385 . S
C2281 C2280 1.374 . S
C2282 C2279 1.499 . S
C2282 C2283 1.373 . S
C2282 C2284 1.389 . S
C2283 H2262 0.950 . S
C2283 C2282 1.373 . S
C2283 C2299 1.377 . S
C2284 C2282 1.389 . S
C2284 C2285 1.524 . S
C2284 C2298 1.377 . S
C2285 C2284 1.524 . S
C2285 C2286 1.397 . S
C2285 C2290 1.363 . S
C2286 H2263 0.950 . S
C2286 C2285 1.397 . S
C2286 C2287 1.334 . S
C2287 H2264 0.950 . S
C2287 C2286 1.334 . S
C2287 C2288 1.287 . S
C2288 C2287 1.287 . S
C2288 C2289 1.524 . S
C2288 H2307 0.913 . S
C2289 H2265 0.950 . S
C2289 C2288 1.524 . S
C2289 C2290 1.415 . S
C2290 H2266 0.950 . S
C2290 C2285 1.363 . S
C2290 C2289 1.415 . S
C2291 H2267 0.951 . S
C2291 C2292 1.366 . S
C2291 C2293 1.388 . S
C2292 C2291 1.366 . S
C2292 C2296 1.385 . S
C2293 H2268 0.951 . S
C2293 C2291 1.388 . S
C2293 C2294 1.366 . S
C2294 C2293 1.366 . S
C2294 C2295 1.414 . S
C2294 C2297 1.499 . S
C2295 H2269 0.950 . S
C2295 C2294 1.414 . S
C2295 C2296 1.374 . S
C2296 H2270 0.950 . S
C2296 C2292 1.385 . S
C2296 C2295 1.374 . S
C2297 C2294 1.499 . S
C2297 C2298 1.373 . S
C2297 C2299 1.389 . S
C2298 H2271 0.950 . S
C2298 C2284 1.377 . S
C2298 C2297 1.373 . S
C2299 C2283 1.377 . S
C2299 C2297 1.389 . S
C2299 C2300 1.524 . S
C2300 C2299 1.524 . S
C2300 C2301 1.397 . S
C2300 C2305 1.363 . S
C2301 H2272 0.950 . S
C2301 C2300 1.397 . S
C2301 C2302 1.334 . S
C2302 H2273 0.950 . S
C2302 C2301 1.334 . S
C2302 C2303 1.287 . S
C2303 C2302 1.287 . S
C2303 C2304 1.524 . S
C2303 H2306 0.999 . S
C2304 H2274 0.950 . S
C2304 C2303 1.524 . S
C2304 C2305 1.415 . S
C2305 H2275 0.950 . S
C2305 C2300 1.363 . S
C2305 C2304 1.415 . S
H2306 C2303 0.999 . S
H2307 C2288 0.913 . S
H2308 C2326 0.951 . S
H2309 C2328 0.951 . S
H2310 C2330 0.950 . S
H2311 C2331 0.950 . S
H2312 C2333 0.950 . S
H2313 C2336 0.950 . S
H2314 C2337 0.950 . S
H2315 C2339 0.950 . S
H2316 C2340 0.950 . S
H2317 C2341 0.951 . S
H2318 C2343 0.951 . S
H2319 C2345 0.950 . S
H2320 C2346 0.950 . S
H2321 C2348 0.950 . S
H2322 C2351 0.950 . S
H2323 C2352 0.950 . S
H2324 C2354 0.950 . S
H2325 C2355 0.950 . S
C2326 H2308 0.951 . S
C2326 C2327 1.366 . S
C2326 C2328 1.388 . S
C2327 C2326 1.366 . S
C2327 C2331 1.385 . S
C2328 H2309 0.951 . S
C2328 C2326 1.388 . S
C2328 C2329 1.366 . S
C2329 C2328 1.366 . S
C2329 C2330 1.414 . S
C2329 C2332 1.499 . S
C2330 H2310 0.950 . S
C2330 C2329 1.414 . S
C2330 C2331 1.374 . S
C2331 H2311 0.950 . S
C2331 C2327 1.385 . S
C2331 C2330 1.374 . S
C2332 C2329 1.499 . S
C2332 C2333 1.373 . S
C2332 C2334 1.389 . S
C2333 H2312 0.950 . S
C2333 C2332 1.373 . S
C2333 C2349 1.377 . S
C2334 C2332 1.389 . S
C2334 C2335 1.524 . S
C2334 C2348 1.377 . S
C2335 C2334 1.524 . S
C2335 C2336 1.397 . S
C2335 C2340 1.363 . S
C2336 H2313 0.950 . S
C2336 C2335 1.397 . S
C2336 C2337 1.334 . S
C2337 H2314 0.950 . S
C2337 C2336 1.334 . S
C2337 C2338 1.287 . S
C2338 C2337 1.287 . S
C2338 C2339 1.524 . S
C2338 H2357 0.913 . S
C2339 H2315 0.950 . S
C2339 C2338 1.524 . S
C2339 C2340 1.415 . S
C2340 H2316 0.950 . S
C2340 C2335 1.363 . S
C2340 C2339 1.415 . S
C2341 H2317 0.951 . S
C2341 C2342 1.366 . S
C2341 C2343 1.388 . S
C2342 C2341 1.366 . S
C2342 C2346 1.385 . S
C2343 H2318 0.951 . S
C2343 C2341 1.388 . S
C2343 C2344 1.366 . S
C2344 C2343 1.366 . S
C2344 C2345 1.414 . S
C2344 C2347 1.499 . S
C2345 H2319 0.950 . S
C2345 C2344 1.414 . S
C2345 C2346 1.374 . S
C2346 H2320 0.950 . S
C2346 C2342 1.385 . S
C2346 C2345 1.374 . S
C2347 C2344 1.499 . S
C2347 C2348 1.373 . S
C2347 C2349 1.389 . S
C2348 H2321 0.950 . S
C2348 C2334 1.377 . S
C2348 C2347 1.373 . S
C2349 C2333 1.377 . S
C2349 C2347 1.389 . S
C2349 C2350 1.524 . S
C2350 C2349 1.524 . S
C2350 C2351 1.397 . S
C2350 C2355 1.363 . S
C2351 H2322 0.950 . S
C2351 C2350 1.397 . S
C2351 C2352 1.334 . S
C2352 H2323 0.950 . S
C2352 C2351 1.334 . S
C2352 C2353 1.287 . S
C2353 C2352 1.287 . S
C2353 C2354 1.524 . S
C2353 H2356 0.999 . S
C2354 H2324 0.950 . S
C2354 C2353 1.524 . S
C2354 C2355 1.415 . S
C2355 H2325 0.950 . S
C2355 C2350 1.363 . S
C2355 C2354 1.415 . S
H2356 C2353 0.999 . S
H2357 C2338 0.913 . S
H2358 C2376 0.951 . S
H2359 C2378 0.951 . S
H2360 C2380 0.950 . S
H2361 C2381 0.950 . S
H2362 C2383 0.950 . S
H2363 C2386 0.950 . S
H2364 C2387 0.950 . S
H2365 C2389 0.950 . S
H2366 C2390 0.950 . S
H2367 C2391 0.951 . S
H2368 C2393 0.951 . S
H2369 C2395 0.950 . S
H2370 C2396 0.950 . S
H2371 C2398 0.950 . S
H2372 C2401 0.950 . S
H2373 C2402 0.950 . S
H2374 C2404 0.950 . S
H2375 C2405 0.950 . S
C2376 H2358 0.951 . S
C2376 C2377 1.366 . S
C2376 C2378 1.388 . S
C2377 C2376 1.366 . S
C2377 C2381 1.385 . S
C2378 H2359 0.951 . S
C2378 C2376 1.388 . S
C2378 C2379 1.366 . S
C2379 C2378 1.366 . S
C2379 C2380 1.414 . S
C2379 C2382 1.499 . S
C2380 H2360 0.950 . S
C2380 C2379 1.414 . S
C2380 C2381 1.374 . S
C2381 H2361 0.950 . S
C2381 C2377 1.385 . S
C2381 C2380 1.374 . S
C2382 C2379 1.499 . S
C2382 C2383 1.373 . S
C2382 C2384 1.389 . S
C2383 H2362 0.950 . S
C2383 C2382 1.373 . S
C2383 C2399 1.377 . S
C2384 C2382 1.389 . S
C2384 C2385 1.524 . S
C2384 C2398 1.377 . S
C2385 C2384 1.524 . S
C2385 C2386 1.397 . S
C2385 C2390 1.363 . S
C2386 H2363 0.950 . S
C2386 C2385 1.397 . S
C2386 C2387 1.334 . S
C2387 H2364 0.950 . S
C2387 C2386 1.334 . S
C2387 C2388 1.287 . S
C2388 C2387 1.287 . S
C2388 C2389 1.524 . S
C2388 H2407 0.913 . S
C2389 H2365 0.950 . S
C2389 C2388 1.524 . S
C2389 C2390 1.415 . S
C2390 H2366 0.950 . S
C2390 C2385 1.363 . S
C2390 C2389 1.415 . S
C2391 H2367 0.951 . S
C2391 C2392 1.366 . S
C2391 C2393 1.388 . S
C2392 C2391 1.366 . S
C2392 C2396 1.385 . S
C2393 H2368 0.951 . S
C2393 C2391 1.388 . S
C2393 C2394 1.366 . S
C2394 C2393 1.366 . S
C2394 C2395 1.414 . S
C2394 C2397 1.499 . S
C2395 H2369 0.950 . S
C2395 C2394 1.414 . S
C2395 C2396 1.374 . S
C2396 H2370 0.950 . S
C2396 C2392 1.385 . S
C2396 C2395 1.374 . S
C2397 C2394 1.499 . S
C2397 C2398 1.373 . S
C2397 C2399 1.389 . S
C2398 H2371 0.950 . S
C2398 C2384 1.377 . S
C2398 C2397 1.373 . S
C2399 C2383 1.377 . S
C2399 C2397 1.389 . S
C2399 C2400 1.524 . S
C2400 C2399 1.524 . S
C2400 C2401 1.397 . S
C2400 C2405 1.363 . S
C2401 H2372 0.950 . S
C2401 C2400 1.397 . S
C2401 C2402 1.334 . S
C2402 H2373 0.950 . S
C2402 C2401 1.334 . S
C2402 C2403 1.287 . S
C2403 C2402 1.287 . S
C2403 C2404 1.524 . S
C2403 H2406 0.999 . S
C2404 H2374 0.950 . S
C2404 C2403 1.524 . S
C2404 C2405 1.415 . S
C2405 H2375 0.950 . S
C2405 C2400 1.363 . S
C2405 C2404 1.415 . S
H2406 C2403 0.999 . S
H2407 C2388 0.913 . S
H2408 C2426 0.951 . S
H2409 C2428 0.951 . S
H2410 C2430 0.950 . S
H2411 C2431 0.950 . S
H2412 C2433 0.950 . S
H2413 C2436 0.950 . S
H2414 C2437 0.950 . S
H2415 C2439 0.950 . S
H2416 C2440 0.950 . S
H2417 C2441 0.951 . S
H2418 C2443 0.951 . S
H2419 C2445 0.950 . S
H2420 C2446 0.950 . S
H2421 C2448 0.950 . S
H2422 C2451 0.950 . S
H2423 C2452 0.950 . S
H2424 C2454 0.950 . S
H2425 C2455 0.950 . S
C2426 H2408 0.951 . S
C2426 C2427 1.366 . S
C2426 C2428 1.388 . S
C2427 C2426 1.366 . S
C2427 C2431 1.385 . S
C2428 H2409 0.951 . S
C2428 C2426 1.388 . S
C2428 C2429 1.366 . S
C2429 C2428 1.366 . S
C2429 C2430 1.414 . S
C2429 C2432 1.499 . S
C2430 H2410 0.950 . S
C2430 C2429 1.414 . S
C2430 C2431 1.374 . S
C2431 H2411 0.950 . S
C2431 C2427 1.385 . S
C2431 C2430 1.374 . S
C2432 C2429 1.499 . S
C2432 C2433 1.373 . S
C2432 C2434 1.389 . S
C2433 H2412 0.950 . S
C2433 C2432 1.373 . S
C2433 C2449 1.377 . S
C2434 C2432 1.389 . S
C2434 C2435 1.524 . S
C2434 C2448 1.377 . S
C2435 C2434 1.524 . S
C2435 C2436 1.397 . S
C2435 C2440 1.363 . S
C2436 H2413 0.950 . S
C2436 C2435 1.397 . S
C2436 C2437 1.334 . S
C2437 H2414 0.950 . S
C2437 C2436 1.334 . S
C2437 C2438 1.287 . S
C2438 C2437 1.287 . S
C2438 C2439 1.524 . S
C2438 H2457 0.913 . S
C2439 H2415 0.950 . S
C2439 C2438 1.524 . S
C2439 C2440 1.415 . S
C2440 H2416 0.950 . S
C2440 C2435 1.363 . S
C2440 C2439 1.415 . S
C2441 H2417 0.951 . S
C2441 C2442 1.366 . S
C2441 C2443 1.388 . S
C2442 C2441 1.366 . S
C2442 C2446 1.385 . S
C2443 H2418 0.951 . S
C2443 C2441 1.388 . S
C2443 C2444 1.366 . S
C2444 C2443 1.366 . S
C2444 C2445 1.414 . S
C2444 C2447 1.499 . S
C2445 H2419 0.950 . S
C2445 C2444 1.414 . S
C2445 C2446 1.374 . S
C2446 H2420 0.950 . S
C2446 C2442 1.385 . S
C2446 C2445 1.374 . S
C2447 C2444 1.499 . S
C2447 C2448 1.373 . S
C2447 C2449 1.389 . S
C2448 H2421 0.950 . S
C2448 C2434 1.377 . S
C2448 C2447 1.373 . S
C2449 C2433 1.377 . S
C2449 C2447 1.389 . S
C2449 C2450 1.524 . S
C2450 C2449 1.524 . S
C2450 C2451 1.397 . S
C2450 C2455 1.363 . S
C2451 H2422 0.950 . S
C2451 C2450 1.397 . S
C2451 C2452 1.334 . S
C2452 H2423 0.950 . S
C2452 C2451 1.334 . S
C2452 C2453 1.287 . S
C2453 C2452 1.287 . S
C2453 C2454 1.524 . S
C2453 H2456 0.999 . S
C2454 H2424 0.950 . S
C2454 C2453 1.524 . S
C2454 C2455 1.415 . S
C2455 H2425 0.950 . S
C2455 C2450 1.363 . S
C2455 C2454 1.415 . S
H2456 C2453 0.999 . S
H2457 C2438 0.913 . S
H2458 C2476 0.951 . S
H2459 C2478 0.951 . S
H2460 C2480 0.950 . S
H2461 C2481 0.950 . S
H2462 C2483 0.950 . S
H2463 C2486 0.950 . S
H2464 C2487 0.950 . S
H2465 C2489 0.950 . S
H2466 C2490 0.950 . S
H2467 C2491 0.951 . S
H2468 C2493 0.951 . S
H2469 C2495 0.950 . S
H2470 C2496 0.950 . S
H2471 C2498 0.950 . S
H2472 C2501 0.950 . S
H2473 C2502 0.950 . S
H2474 C2504 0.950 . S
H2475 C2505 0.950 . S
C2476 H2458 0.951 . S
C2476 C2477 1.366 . S
C2476 C2478 1.388 . S
C2477 C2476 1.366 . S
C2477 C2481 1.385 . S
C2478 H2459 0.951 . S
C2478 C2476 1.388 . S
C2478 C2479 1.366 . S
C2479 C2478 1.366 . S
C2479 C2480 1.414 . S
C2479 C2482 1.499 . S
C2480 H2460 0.950 . S
C2480 C2479 1.414 . S
C2480 C2481 1.374 . S
C2481 H2461 0.950 . S
C2481 C2477 1.385 . S
C2481 C2480 1.374 . S
C2482 C2479 1.499 . S
C2482 C2483 1.373 . S
C2482 C2484 1.389 . S
C2483 H2462 0.950 . S
C2483 C2482 1.373 . S
C2483 C2499 1.377 . S
C2484 C2482 1.389 . S
C2484 C2485 1.524 . S
C2484 C2498 1.377 . S
C2485 C2484 1.524 . S
C2485 C2486 1.397 . S
C2485 C2490 1.363 . S
C2486 H2463 0.950 . S
C2486 C2485 1.397 . S
C2486 C2487 1.334 . S
C2487 H2464 0.950 . S
C2487 C2486 1.334 . S
C2487 C2488 1.287 . S
C2488 C2487 1.287 . S
C2488 C2489 1.524 . S
C2488 H2507 0.913 . S
C2489 H2465 0.950 . S
C2489 C2488 1.524 . S
C2489 C2490 1.415 . S
C2490 H2466 0.950 . S
C2490 C2485 1.363 . S
C2490 C2489 1.415 . S
C2491 H2467 0.951 . S
C2491 C2492 1.366 . S
C2491 C2493 1.388 . S
C2492 C2491 1.366 . S
C2492 C2496 1.385 . S
C2493 H2468 0.951 . S
C2493 C2491 1.388 . S
C2493 C2494 1.366 . S
C2494 C2493 1.366 . S
C2494 C2495 1.414 . S
C2494 C2497 1.499 . S
C2495 H2469 0.950 . S
C2495 C2494 1.414 . S
C2495 C2496 1.374 . S
C2496 H2470 0.950 . S
C2496 C2492 1.385 . S
C2496 C2495 1.374 . S
C2497 C2494 1.499 . S
C2497 C2498 1.373 . S
C2497 C2499 1.389 . S
C2498 H2471 0.950 . S
C2498 C2484 1.377 . S
C2498 C2497 1.373 . S
C2499 C2483 1.377 . S
C2499 C2497 1.389 . S
C2499 C2500 1.524 . S
C2500 C2499 1.524 . S
C2500 C2501 1.397 . S
C2500 C2505 1.363 . S
C2501 H2472 0.950 . S
C2501 C2500 1.397 . S
C2501 C2502 1.334 . S
C2502 H2473 0.950 . S
C2502 C2501 1.334 . S
C2502 C2503 1.287 . S
C2503 C2502 1.287 . S
C2503 C2504 1.524 . S
C2503 H2506 0.999 . S
C2504 H2474 0.950 . S
C2504 C2503 1.524 . S
C2504 C2505 1.415 . S
C2505 H2475 0.950 . S
C2505 C2500 1.363 . S
C2505 C2504 1.415 . S
H2506 C2503 0.999 . S
H2507 C2488 0.913 . S
H2508 C2526 0.951 . S
H2509 C2528 0.951 1_565 S
H2510 C2530 0.950 . S
H2511 C2531 0.950 . S
H2512 C2533 0.950 . S
H2513 C2536 0.950 . S
H2514 C2537 0.950 . S
H2515 C2539 0.950 . S
H2516 C2540 0.950 . S
H2517 C2541 0.951 . S
H2518 C2543 0.951 . S
H2519 C2545 0.950 . S
H2520 C2546 0.950 . S
H2521 C2548 0.950 . S
H2522 C2551 0.950 . S
H2523 C2552 0.950 . S
H2524 C2554 0.950 . S
H2525 C2555 0.950 . S
C2526 H2508 0.951 . S
C2526 C2527 1.366 . S
C2526 C2528 1.388 . S
C2527 C2526 1.366 . S
C2527 C2531 1.385 . S
C2528 H2509 0.951 1_545 S
C2528 C2526 1.388 . S
C2528 C2529 1.366 1_545 S
C2529 C2528 1.366 1_565 S
C2529 C2530 1.414 1_565 S
C2529 C2532 1.499 . S
C2530 H2510 0.950 . S
C2530 C2529 1.414 1_545 S
C2530 C2531 1.374 . S
C2531 H2511 0.950 . S
C2531 C2527 1.385 . S
C2531 C2530 1.374 . S
C2532 C2529 1.499 . S
C2532 C2533 1.373 . S
C2532 C2534 1.389 . S
C2533 H2512 0.950 . S
C2533 C2532 1.373 . S
C2533 C2549 1.377 . S
C2534 C2532 1.389 . S
C2534 C2535 1.524 . S
C2534 C2548 1.377 . S
C2535 C2534 1.524 . S
C2535 C2536 1.397 . S
C2535 C2540 1.363 . S
C2536 H2513 0.950 . S
C2536 C2535 1.397 . S
C2536 C2537 1.334 . S
C2537 H2514 0.950 . S
C2537 C2536 1.334 . S
C2537 C2538 1.287 . S
C2538 C2537 1.287 . S
C2538 C2539 1.524 . S
C2538 H2557 0.913 . S
C2539 H2515 0.950 . S
C2539 C2538 1.524 . S
C2539 C2540 1.415 . S
C2540 H2516 0.950 . S
C2540 C2535 1.363 . S
C2540 C2539 1.415 . S
C2541 H2517 0.951 . S
C2541 C2542 1.366 . S
C2541 C2543 1.388 . S
C2542 C2541 1.366 . S
C2542 C2546 1.385 . S
C2543 H2518 0.951 . S
C2543 C2541 1.388 . S
C2543 C2544 1.366 . S
C2544 C2543 1.366 . S
C2544 C2545 1.414 . S
C2544 C2547 1.499 . S
C2545 H2519 0.950 . S
C2545 C2544 1.414 . S
C2545 C2546 1.374 . S
C2546 H2520 0.950 . S
C2546 C2542 1.385 . S
C2546 C2545 1.374 . S
C2547 C2544 1.499 . S
C2547 C2548 1.373 . S
C2547 C2549 1.389 . S
C2548 H2521 0.950 . S
C2548 C2534 1.377 . S
C2548 C2547 1.373 . S
C2549 C2533 1.377 . S
C2549 C2547 1.389 . S
C2549 C2550 1.524 . S
C2550 C2549 1.524 . S
C2550 C2551 1.397 . S
C2550 C2555 1.363 . S
C2551 H2522 0.950 . S
C2551 C2550 1.397 . S
C2551 C2552 1.334 . S
C2552 H2523 0.950 . S
C2552 C2551 1.334 . S
C2552 C2553 1.287 . S
C2553 C2552 1.287 . S
C2553 C2554 1.524 . S
C2553 H2556 0.999 . S
C2554 H2524 0.950 . S
C2554 C2553 1.524 . S
C2554 C2555 1.415 . S
C2555 H2525 0.950 . S
C2555 C2550 1.363 . S
C2555 C2554 1.415 . S
H2556 C2553 0.999 . S
H2557 C2538 0.913 . S
H2558 C2576 0.951 . S
H2559 C2578 0.951 1_455 S
H2560 C2580 0.950 . S
H2561 C2581 0.950 . S
H2562 C2583 0.950 . S
H2563 C2586 0.950 . S
H2564 C2587 0.950 . S
H2565 C2589 0.950 . S
H2566 C2590 0.950 . S
H2567 C2591 0.951 . S
H2568 C2593 0.951 . S
H2569 C2595 0.950 . S
H2570 C2596 0.950 . S
H2571 C2598 0.950 . S
H2572 C2601 0.950 . S
H2573 C2602 0.950 . S
H2574 C2604 0.950 . S
H2575 C2605 0.950 . S
C2576 H2558 0.951 . S
C2576 C2577 1.366 . S
C2576 C2578 1.388 . S
C2577 C2576 1.366 . S
C2577 C2581 1.385 . S
C2578 H2559 0.951 1_655 S
C2578 C2576 1.388 . S
C2578 C2579 1.366 1_655 S
C2579 C2578 1.366 1_455 S
C2579 C2580 1.414 . S
C2579 C2582 1.499 . S
C2580 H2560 0.950 . S
C2580 C2579 1.414 . S
C2580 C2581 1.374 1_455 S
C2581 H2561 0.950 . S
C2581 C2577 1.385 . S
C2581 C2580 1.374 1_655 S
C2582 C2579 1.499 . S
C2582 C2583 1.373 . S
C2582 C2584 1.389 . S
C2583 H2562 0.950 . S
C2583 C2582 1.373 . S
C2583 C2599 1.377 . S
C2584 C2582 1.389 . S
C2584 C2585 1.524 . S
C2584 C2598 1.377 . S
C2585 C2584 1.524 . S
C2585 C2586 1.397 1_455 S
C2585 C2590 1.363 . S
C2586 H2563 0.950 . S
C2586 C2585 1.397 1_655 S
C2586 C2587 1.334 . S
C2587 H2564 0.950 . S
C2587 C2586 1.334 . S
C2587 C2588 1.287 . S
C2588 C2587 1.287 . S
C2588 C2589 1.510 1_655 S
C2588 H2607 0.913 . S
C2589 H2565 0.950 . S
C2589 C2588 1.510 1_455 S
C2589 C2590 1.449 . S
C2590 H2566 0.950 . S
C2590 C2585 1.363 . S
C2590 C2589 1.449 . S
C2591 H2567 0.951 . S
C2591 C2592 1.366 . S
C2591 C2593 1.388 . S
C2592 C2591 1.366 . S
C2592 C2596 1.385 . S
C2593 H2568 0.951 . S
C2593 C2591 1.388 . S
C2593 C2594 1.366 . S
C2594 C2593 1.366 . S
C2594 C2595 1.414 . S
C2594 C2597 1.499 . S
C2595 H2569 0.950 . S
C2595 C2594 1.414 . S
C2595 C2596 1.374 . S
C2596 H2570 0.950 . S
C2596 C2592 1.385 . S
C2596 C2595 1.374 . S
C2597 C2594 1.499 . S
C2597 C2598 1.373 . S
C2597 C2599 1.389 . S
C2598 H2571 0.950 . S
C2598 C2584 1.377 . S
C2598 C2597 1.373 . S
C2599 C2583 1.377 . S
C2599 C2597 1.389 . S
C2599 C2600 1.524 . S
C2600 C2599 1.524 . S
C2600 C2601 1.397 . S
C2600 C2605 1.363 . S
C2601 H2572 0.950 . S
C2601 C2600 1.397 . S
C2601 C2602 1.334 . S
C2602 H2573 0.950 . S
C2602 C2601 1.334 . S
C2602 C2603 1.287 . S
C2603 C2602 1.287 . S
C2603 C2604 1.524 . S
C2603 H2606 0.999 . S
C2604 H2574 0.950 . S
C2604 C2603 1.524 . S
C2604 C2605 1.415 . S
C2605 H2575 0.950 . S
C2605 C2600 1.363 . S
C2605 C2604 1.415 . S
H2606 C2603 0.999 . S
H2607 C2588 0.913 . S
H2608 C2626 0.951 . S
H2609 C2628 0.951 . S
H2610 C2630 0.950 . S
H2611 C2631 0.950 . S
H2612 C2633 0.950 . S
H2613 C2636 0.950 . S
H2614 C2637 0.950 . S
H2615 C2639 0.950 . S
H2616 C2640 0.950 . S
H2617 C2641 0.951 . S
H2618 C2643 0.951 . S
H2619 C2645 0.950 . S
H2620 C2646 0.950 . S
H2621 C2648 0.950 . S
H2622 C2651 0.950 . S
H2623 C2652 0.950 . S
H2624 C2654 0.950 . S
H2625 C2655 0.950 . S
C2626 H2608 0.951 . S
C2626 C2627 1.366 . S
C2626 C2628 1.388 . S
C2627 C2626 1.366 . S
C2627 C2631 1.385 . S
C2628 H2609 0.951 . S
C2628 C2626 1.388 . S
C2628 C2629 1.366 . S
C2629 C2628 1.366 . S
C2629 C2630 1.414 . S
C2629 C2632 1.499 . S
C2630 H2610 0.950 . S
C2630 C2629 1.414 . S
C2630 C2631 1.374 . S
C2631 H2611 0.950 . S
C2631 C2627 1.385 . S
C2631 C2630 1.374 . S
C2632 C2629 1.499 . S
C2632 C2633 1.373 . S
C2632 C2634 1.389 . S
C2633 H2612 0.950 . S
C2633 C2632 1.373 . S
C2633 C2649 1.377 . S
C2634 C2632 1.389 . S
C2634 C2635 1.524 . S
C2634 C2648 1.377 . S
C2635 C2634 1.524 . S
C2635 C2636 1.397 . S
C2635 C2640 1.363 . S
C2636 H2613 0.950 . S
C2636 C2635 1.397 . S
C2636 C2637 1.334 . S
C2637 H2614 0.950 . S
C2637 C2636 1.334 . S
C2637 C2638 1.287 . S
C2638 C2637 1.287 . S
C2638 C2639 1.524 . S
C2638 H2657 0.913 . S
C2639 H2615 0.950 . S
C2639 C2638 1.524 . S
C2639 C2640 1.415 . S
C2640 H2616 0.950 . S
C2640 C2635 1.363 . S
C2640 C2639 1.415 . S
C2641 H2617 0.951 . S
C2641 C2642 1.366 . S
C2641 C2643 1.388 . S
C2642 C2641 1.366 . S
C2642 C2646 1.385 . S
C2643 H2618 0.951 . S
C2643 C2641 1.388 . S
C2643 C2644 1.366 . S
C2644 C2643 1.366 . S
C2644 C2645 1.414 . S
C2644 C2647 1.499 . S
C2645 H2619 0.950 . S
C2645 C2644 1.414 . S
C2645 C2646 1.374 . S
C2646 H2620 0.950 . S
C2646 C2642 1.385 . S
C2646 C2645 1.374 . S
C2647 C2644 1.499 . S
C2647 C2648 1.373 . S
C2647 C2649 1.389 . S
C2648 H2621 0.950 . S
C2648 C2634 1.377 . S
C2648 C2647 1.373 . S
C2649 C2633 1.377 . S
C2649 C2647 1.389 . S
C2649 C2650 1.524 . S
C2650 C2649 1.524 . S
C2650 C2651 1.397 . S
C2650 C2655 1.363 . S
C2651 H2622 0.950 . S
C2651 C2650 1.397 . S
C2651 C2652 1.334 . S
C2652 H2623 0.950 . S
C2652 C2651 1.334 . S
C2652 C2653 1.287 . S
C2653 C2652 1.287 . S
C2653 C2654 1.524 . S
C2653 H2656 0.999 . S
C2654 H2624 0.950 . S
C2654 C2653 1.524 . S
C2654 C2655 1.415 . S
C2655 H2625 0.950 . S
C2655 C2650 1.363 . S
C2655 C2654 1.415 . S
H2656 C2653 0.999 . S
H2657 C2638 0.913 . S
H2658 C2676 0.951 . S
H2659 C2678 0.951 . S
H2660 C2680 0.950 . S
H2661 C2681 0.950 . S
H2662 C2683 0.950 . S
H2663 C2686 0.950 . S
H2664 C2687 0.950 . S
H2665 C2689 0.950 . S
H2666 C2690 0.950 . S
H2667 C2691 0.951 . S
H2668 C2693 0.951 . S
H2669 C2695 0.950 . S
H2670 C2696 0.950 . S
H2671 C2698 0.950 . S
H2672 C2701 0.950 . S
H2673 C2702 0.950 . S
H2674 C2704 0.950 . S
H2675 C2705 0.950 . S
C2676 H2658 0.951 . S
C2676 C2677 1.366 . S
C2676 C2678 1.388 . S
C2677 C2676 1.366 . S
C2677 C2681 1.385 . S
C2678 H2659 0.951 . S
C2678 C2676 1.388 . S
C2678 C2679 1.366 . S
C2679 C2678 1.366 . S
C2679 C2680 1.414 . S
C2679 C2682 1.499 . S
C2680 H2660 0.950 . S
C2680 C2679 1.414 . S
C2680 C2681 1.374 . S
C2681 H2661 0.950 . S
C2681 C2677 1.385 . S
C2681 C2680 1.374 . S
C2682 C2679 1.499 . S
C2682 C2683 1.373 . S
C2682 C2684 1.389 . S
C2683 H2662 0.950 . S
C2683 C2682 1.373 . S
C2683 C2699 1.377 . S
C2684 C2682 1.389 . S
C2684 C2685 1.524 . S
C2684 C2698 1.377 . S
C2685 C2684 1.524 . S
C2685 C2686 1.397 . S
C2685 C2690 1.363 . S
C2686 H2663 0.950 . S
C2686 C2685 1.397 . S
C2686 C2687 1.334 . S
C2687 H2664 0.950 . S
C2687 C2686 1.334 . S
C2687 C2688 1.287 . S
C2688 C2687 1.287 . S
C2688 C2689 1.524 . S
C2688 H2707 0.913 . S
C2689 H2665 0.950 . S
C2689 C2688 1.524 . S
C2689 C2690 1.415 . S
C2690 H2666 0.950 . S
C2690 C2685 1.363 . S
C2690 C2689 1.415 . S
C2691 H2667 0.951 . S
C2691 C2692 1.366 . S
C2691 C2693 1.388 . S
C2692 C2691 1.366 . S
C2692 C2696 1.385 . S
C2693 H2668 0.951 . S
C2693 C2691 1.388 . S
C2693 C2694 1.366 . S
C2694 C2693 1.366 . S
C2694 C2695 1.414 . S
C2694 C2697 1.499 . S
C2695 H2669 0.950 . S
C2695 C2694 1.414 . S
C2695 C2696 1.374 . S
C2696 H2670 0.950 . S
C2696 C2692 1.385 . S
C2696 C2695 1.374 . S
C2697 C2694 1.499 . S
C2697 C2698 1.373 . S
C2697 C2699 1.389 . S
C2698 H2671 0.950 . S
C2698 C2684 1.377 . S
C2698 C2697 1.373 . S
C2699 C2683 1.377 . S
C2699 C2697 1.389 . S
C2699 C2700 1.524 . S
C2700 C2699 1.524 . S
C2700 C2701 1.397 . S
C2700 C2705 1.363 . S
C2701 H2672 0.950 . S
C2701 C2700 1.397 . S
C2701 C2702 1.334 . S
C2702 H2673 0.950 . S
C2702 C2701 1.334 . S
C2702 C2703 1.287 . S
C2703 C2702 1.287 . S
C2703 C2704 1.524 . S
C2703 H2706 0.999 . S
C2704 H2674 0.950 . S
C2704 C2703 1.524 . S
C2704 C2705 1.415 . S
C2705 H2675 0.950 . S
C2705 C2700 1.363 . S
C2705 C2704 1.415 . S
H2706 C2703 0.999 . S
H2707 C2688 0.913 . S
H2708 C2726 0.951 . S
H2709 C2728 0.951 . S
H2710 C2730 0.950 . S
H2711 C2731 0.950 . S
H2712 C2733 0.950 . S
H2713 C2736 0.950 . S
H2714 C2737 0.950 . S
H2715 C2739 0.950 . S
H2716 C2740 0.950 . S
H2717 C2741 0.951 . S
H2718 C2743 0.951 . S
H2719 C2745 0.950 . S
H2720 C2746 0.950 . S
H2721 C2748 0.950 . S
H2722 C2751 0.950 . S
H2723 C2752 0.950 . S
H2724 C2754 0.950 . S
H2725 C2755 0.950 . S
C2726 H2708 0.951 . S
C2726 C2727 1.366 . S
C2726 C2728 1.388 . S
C2727 C2726 1.366 . S
C2727 C2731 1.385 . S
C2728 H2709 0.951 . S
C2728 C2726 1.388 . S
C2728 C2729 1.366 . S
C2729 C2728 1.366 . S
C2729 C2730 1.414 . S
C2729 C2732 1.499 . S
C2730 H2710 0.950 . S
C2730 C2729 1.414 . S
C2730 C2731 1.374 . S
C2731 H2711 0.950 . S
C2731 C2727 1.385 . S
C2731 C2730 1.374 . S
C2732 C2729 1.499 . S
C2732 C2733 1.373 . S
C2732 C2734 1.389 . S
C2733 H2712 0.950 . S
C2733 C2732 1.373 . S
C2733 C2749 1.377 . S
C2734 C2732 1.389 . S
C2734 C2735 1.524 . S
C2734 C2748 1.377 . S
C2735 C2734 1.524 . S
C2735 C2736 1.397 . S
C2735 C2740 1.363 . S
C2736 H2713 0.950 . S
C2736 C2735 1.397 . S
C2736 C2737 1.334 . S
C2737 H2714 0.950 . S
C2737 C2736 1.334 . S
C2737 C2738 1.287 . S
C2738 C2737 1.287 . S
C2738 C2739 1.524 . S
C2738 H2757 0.913 . S
C2739 H2715 0.950 . S
C2739 C2738 1.524 . S
C2739 C2740 1.415 . S
C2740 H2716 0.950 . S
C2740 C2735 1.363 . S
C2740 C2739 1.415 . S
C2741 H2717 0.951 . S
C2741 C2742 1.366 . S
C2741 C2743 1.388 . S
C2742 C2741 1.366 . S
C2742 C2746 1.385 . S
C2743 H2718 0.951 . S
C2743 C2741 1.388 . S
C2743 C2744 1.366 . S
C2744 C2743 1.366 . S
C2744 C2745 1.414 . S
C2744 C2747 1.499 . S
C2745 H2719 0.950 . S
C2745 C2744 1.414 . S
C2745 C2746 1.374 . S
C2746 H2720 0.950 . S
C2746 C2742 1.385 . S
C2746 C2745 1.374 . S
C2747 C2744 1.499 . S
C2747 C2748 1.373 . S
C2747 C2749 1.389 . S
C2748 H2721 0.950 . S
C2748 C2734 1.377 . S
C2748 C2747 1.373 . S
C2749 C2733 1.377 . S
C2749 C2747 1.389 . S
C2749 C2750 1.524 . S
C2750 C2749 1.524 . S
C2750 C2751 1.397 . S
C2750 C2755 1.363 . S
C2751 H2722 0.950 . S
C2751 C2750 1.397 . S
C2751 C2752 1.334 . S
C2752 H2723 0.950 . S
C2752 C2751 1.334 . S
C2752 C2753 1.287 . S
C2753 C2752 1.287 . S
C2753 C2754 1.524 . S
C2753 H2756 0.999 . S
C2754 H2724 0.950 . S
C2754 C2753 1.524 . S
C2754 C2755 1.415 . S
C2755 H2725 0.950 . S
C2755 C2750 1.363 . S
C2755 C2754 1.415 . S
H2756 C2753 0.999 . S
H2757 C2738 0.913 . S
H2758 C2776 0.951 . S
H2759 C2778 0.951 . S
H2760 C2780 0.950 . S
H2761 C2781 0.950 . S
H2762 C2783 0.950 . S
H2763 C2786 0.950 . S
H2764 C2787 0.950 . S
H2765 C2789 0.950 . S
H2766 C2790 0.950 . S
H2767 C2791 0.951 . S
H2768 C2793 0.951 . S
H2769 C2795 0.950 . S
H2770 C2796 0.950 . S
H2771 C2798 0.950 . S
H2772 C2801 0.950 . S
H2773 C2802 0.950 . S
H2774 C2804 0.950 . S
H2775 C2805 0.950 . S
C2776 H2758 0.951 . S
C2776 C2777 1.366 . S
C2776 C2778 1.388 . S
C2777 C2776 1.366 . S
C2777 C2781 1.385 . S
C2778 H2759 0.951 . S
C2778 C2776 1.388 . S
C2778 C2779 1.366 . S
C2779 C2778 1.366 . S
C2779 C2780 1.414 . S
C2779 C2782 1.499 . S
C2780 H2760 0.950 . S
C2780 C2779 1.414 . S
C2780 C2781 1.374 . S
C2781 H2761 0.950 . S
C2781 C2777 1.385 . S
C2781 C2780 1.374 . S
C2782 C2779 1.499 . S
C2782 C2783 1.373 . S
C2782 C2784 1.389 . S
C2783 H2762 0.950 . S
C2783 C2782 1.373 . S
C2783 C2799 1.377 . S
C2784 C2782 1.389 . S
C2784 C2785 1.524 . S
C2784 C2798 1.377 . S
C2785 C2784 1.524 . S
C2785 C2786 1.397 . S
C2785 C2790 1.363 . S
C2786 H2763 0.950 . S
C2786 C2785 1.397 . S
C2786 C2787 1.334 . S
C2787 H2764 0.950 . S
C2787 C2786 1.334 . S
C2787 C2788 1.287 . S
C2788 C2787 1.287 . S
C2788 C2789 1.524 . S
C2788 H2807 0.913 . S
C2789 H2765 0.950 . S
C2789 C2788 1.524 . S
C2789 C2790 1.415 . S
C2790 H2766 0.950 . S
C2790 C2785 1.363 . S
C2790 C2789 1.415 . S
C2791 H2767 0.951 . S
C2791 C2792 1.366 . S
C2791 C2793 1.388 . S
C2792 C2791 1.366 . S
C2792 C2796 1.385 . S
C2793 H2768 0.951 . S
C2793 C2791 1.388 . S
C2793 C2794 1.366 . S
C2794 C2793 1.366 . S
C2794 C2795 1.414 . S
C2794 C2797 1.499 . S
C2795 H2769 0.950 . S
C2795 C2794 1.414 . S
C2795 C2796 1.374 . S
C2796 H2770 0.950 . S
C2796 C2792 1.385 . S
C2796 C2795 1.374 . S
C2797 C2794 1.499 . S
C2797 C2798 1.373 . S
C2797 C2799 1.389 . S
C2798 H2771 0.950 . S
C2798 C2784 1.377 . S
C2798 C2797 1.373 . S
C2799 C2783 1.377 . S
C2799 C2797 1.389 . S
C2799 C2800 1.524 . S
C2800 C2799 1.524 . S
C2800 C2801 1.397 . S
C2800 C2805 1.363 . S
C2801 H2772 0.950 . S
C2801 C2800 1.397 . S
C2801 C2802 1.334 . S
C2802 H2773 0.950 . S
C2802 C2801 1.334 . S
C2802 C2803 1.287 . S
C2803 C2802 1.287 . S
C2803 C2804 1.524 . S
C2803 H2806 0.999 . S
C2804 H2774 0.950 . S
C2804 C2803 1.524 . S
C2804 C2805 1.415 . S
C2805 H2775 0.950 . S
C2805 C2800 1.363 . S
C2805 C2804 1.415 . S
H2806 C2803 0.999 . S
H2807 C2788 0.913 . S
H2808 C2826 0.951 . S
H2809 C2828 0.951 . S
H2810 C2830 0.926 1_545 S
H2811 C2831 0.950 . S
H2812 C2833 0.950 . S
H2813 C2836 0.950 . S
H2814 C2837 0.950 . S
H2815 C2839 0.950 . S
H2816 C2840 0.950 . S
H2817 C2841 0.951 . S
H2818 C2843 0.951 . S
H2819 C2845 0.950 . S
H2820 C2846 0.950 . S
H2821 C2848 0.950 . S
H2822 C2851 0.950 . S
H2823 C2852 0.950 . S
H2824 C2854 0.950 . S
H2825 C2855 0.950 . S
C2826 H2808 0.951 . S
C2826 C2827 1.366 . S
C2826 C2828 1.388 . S
C2827 C2826 1.366 . S
C2827 C2831 1.385 . S
C2828 H2809 0.951 . S
C2828 C2826 1.388 . S
C2828 C2829 1.366 1_565 S
C2829 C2828 1.366 1_545 S
C2829 C2830 1.408 1_545 S
C2829 C2832 1.499 . S
C2830 H2810 0.926 1_565 S
C2830 C2829 1.408 1_565 S
C2830 C2831 1.407 . S
C2831 H2811 0.950 . S
C2831 C2827 1.385 . S
C2831 C2830 1.407 . S
C2832 C2829 1.499 . S
C2832 C2833 1.373 . S
C2832 C2834 1.389 . S
C2833 H2812 0.950 . S
C2833 C2832 1.373 . S
C2833 C2849 1.377 . S
C2834 C2832 1.389 . S
C2834 C2835 1.524 . S
C2834 C2848 1.377 . S
C2835 C2834 1.524 . S
C2835 C2836 1.397 . S
C2835 C2840 1.363 . S
C2836 H2813 0.950 . S
C2836 C2835 1.397 . S
C2836 C2837 1.334 . S
C2837 H2814 0.950 . S
C2837 C2836 1.334 . S
C2837 C2838 1.287 . S
C2838 C2837 1.287 . S
C2838 C2839 1.524 . S
C2838 H2857 0.913 . S
C2839 H2815 0.950 . S
C2839 C2838 1.524 . S
C2839 C2840 1.415 . S
C2840 H2816 0.950 . S
C2840 C2835 1.363 . S
C2840 C2839 1.415 . S
C2841 H2817 0.951 . S
C2841 C2842 1.366 . S
C2841 C2843 1.388 . S
C2842 C2841 1.366 . S
C2842 C2846 1.385 . S
C2843 H2818 0.951 . S
C2843 C2841 1.388 . S
C2843 C2844 1.366 . S
C2844 C2843 1.366 . S
C2844 C2845 1.414 . S
C2844 C2847 1.499 . S
C2845 H2819 0.950 . S
C2845 C2844 1.414 . S
C2845 C2846 1.374 . S
C2846 H2820 0.950 . S
C2846 C2842 1.385 . S
C2846 C2845 1.374 . S
C2847 C2844 1.499 . S
C2847 C2848 1.373 . S
C2847 C2849 1.389 . S
C2848 H2821 0.950 . S
C2848 C2834 1.377 . S
C2848 C2847 1.373 . S
C2849 C2833 1.377 . S
C2849 C2847 1.389 . S
C2849 C2850 1.524 . S
C2850 C2849 1.524 . S
C2850 C2851 1.397 . S
C2850 C2855 1.363 . S
C2851 H2822 0.950 . S
C2851 C2850 1.397 . S
C2851 C2852 1.334 . S
C2852 H2823 0.950 . S
C2852 C2851 1.334 . S
C2852 C2853 1.287 . S
C2853 C2852 1.287 . S
C2853 C2854 1.524 . S
C2853 H2856 0.999 . S
C2854 H2824 0.950 . S
C2854 C2853 1.524 . S
C2854 C2855 1.415 . S
C2855 H2825 0.950 . S
C2855 C2850 1.363 . S
C2855 C2854 1.415 . S
H2856 C2853 0.999 . S
H2857 C2838 0.913 . S
H2858 C2876 0.951 . S
H2859 C2878 0.951 . S
H2860 C2880 0.950 . S
H2861 C2881 0.950 . S
H2862 C2883 0.950 . S
H2863 C2886 0.950 . S
H2864 C2887 0.950 . S
H2865 C2889 0.950 . S
H2866 C2890 0.950 . S
H2867 C2891 0.951 . S
H2868 C2893 0.951 . S
H2869 C2895 0.950 . S
H2870 C2896 0.950 . S
H2871 C2898 0.950 . S
H2872 C2901 0.950 . S
H2873 C2902 0.950 . S
H2874 C2904 0.950 . S
H2875 C2905 0.950 . S
C2876 H2858 0.951 . S
C2876 C2877 1.366 . S
C2876 C2878 1.388 . S
C2877 C2876 1.366 . S
C2877 C2881 1.385 . S
C2878 H2859 0.951 . S
C2878 C2876 1.388 . S
C2878 C2879 1.366 1_455 S
C2879 C2878 1.366 1_655 S
C2879 C2880 1.414 . S
C2879 C2882 1.499 . S
C2880 H2860 0.950 . S
C2880 C2879 1.414 . S
C2880 C2881 1.374 1_655 S
C2881 H2861 0.950 . S
C2881 C2877 1.385 . S
C2881 C2880 1.374 1_455 S
C2882 C2879 1.499 . S
C2882 C2883 1.373 . S
C2882 C2884 1.389 . S
C2883 H2862 0.950 . S
C2883 C2882 1.373 . S
C2883 C2899 1.377 . S
C2884 C2882 1.389 . S
C2884 C2885 1.524 . S
C2884 C2898 1.377 . S
C2885 C2884 1.524 . S
C2885 C2886 1.397 . S
C2885 C2890 1.363 . S
C2886 H2863 0.950 . S
C2886 C2885 1.397 . S
C2886 C2887 1.334 . S
C2887 H2864 0.950 . S
C2887 C2886 1.334 . S
C2887 C2888 1.287 . S
C2888 C2887 1.287 . S
C2888 C2889 1.524 . S
C2888 H2907 0.913 . S
C2889 H2865 0.950 . S
C2889 C2888 1.524 . S
C2889 C2890 1.415 . S
C2890 H2866 0.950 . S
C2890 C2885 1.363 . S
C2890 C2889 1.415 . S
C2891 H2867 0.951 . S
C2891 C2892 1.366 . S
C2891 C2893 1.388 . S
C2892 C2891 1.366 . S
C2892 C2896 1.385 . S
C2893 H2868 0.951 . S
C2893 C2891 1.388 . S
C2893 C2894 1.366 . S
C2894 C2893 1.366 . S
C2894 C2895 1.414 . S
C2894 C2897 1.499 . S
C2895 H2869 0.950 . S
C2895 C2894 1.414 . S
C2895 C2896 1.374 . S
C2896 H2870 0.950 . S
C2896 C2892 1.385 . S
C2896 C2895 1.374 . S
C2897 C2894 1.499 . S
C2897 C2898 1.373 . S
C2897 C2899 1.389 . S
C2898 H2871 0.950 . S
C2898 C2884 1.377 . S
C2898 C2897 1.373 . S
C2899 C2883 1.377 . S
C2899 C2897 1.389 . S
C2899 C2900 1.524 . S
C2900 C2899 1.524 . S
C2900 C2901 1.397 . S
C2900 C2905 1.363 . S
C2901 H2872 0.950 . S
C2901 C2900 1.397 . S
C2901 C2902 1.334 . S
C2902 H2873 0.950 . S
C2902 C2901 1.334 . S
C2902 C2903 1.287 . S
C2903 C2902 1.287 . S
C2903 C2904 1.524 . S
C2903 H2906 0.999 . S
C2904 H2874 0.950 . S
C2904 C2903 1.524 . S
C2904 C2905 1.415 . S
C2905 H2875 0.950 . S
C2905 C2900 1.363 . S
C2905 C2904 1.415 . S
H2906 C2903 0.999 . S
H2907 C2888 0.913 . S
H2908 C2926 0.951 . S
H2909 C2928 0.951 . S
H2910 C2930 0.950 . S
H2911 C2931 0.950 . S
H2912 C2933 0.950 . S
H2913 C2936 0.950 . S
H2914 C2937 0.950 . S
H2915 C2939 0.950 . S
H2916 C2940 0.950 . S
H2917 C2941 0.951 . S
H2918 C2943 0.951 . S
H2919 C2945 0.950 . S
H2920 C2946 0.950 . S
H2921 C2948 0.950 . S
H2922 C2951 0.950 . S
H2923 C2952 0.950 . S
H2924 C2954 0.950 . S
H2925 C2955 0.950 . S
C2926 H2908 0.951 . S
C2926 C2927 1.366 . S
C2926 C2928 1.388 . S
C2927 C2926 1.366 . S
C2927 C2931 1.385 . S
C2928 H2909 0.951 . S
C2928 C2926 1.388 . S
C2928 C2929 1.366 . S
C2929 C2928 1.366 . S
C2929 C2930 1.414 . S
C2929 C2932 1.499 . S
C2930 H2910 0.950 . S
C2930 C2929 1.414 . S
C2930 C2931 1.374 . S
C2931 H2911 0.950 . S
C2931 C2927 1.385 . S
C2931 C2930 1.374 . S
C2932 C2929 1.499 . S
C2932 C2933 1.373 . S
C2932 C2934 1.389 . S
C2933 H2912 0.950 . S
C2933 C2932 1.373 . S
C2933 C2949 1.377 . S
C2934 C2932 1.389 . S
C2934 C2935 1.524 . S
C2934 C2948 1.377 . S
C2935 C2934 1.524 . S
C2935 C2936 1.397 . S
C2935 C2940 1.363 . S
C2936 H2913 0.950 . S
C2936 C2935 1.397 . S
C2936 C2937 1.334 . S
C2937 H2914 0.950 . S
C2937 C2936 1.334 . S
C2937 C2938 1.287 . S
C2938 C2937 1.287 . S
C2938 C2939 1.524 . S
C2938 H2957 0.913 . S
C2939 H2915 0.950 . S
C2939 C2938 1.524 . S
C2939 C2940 1.415 . S
C2940 H2916 0.950 . S
C2940 C2935 1.363 . S
C2940 C2939 1.415 . S
C2941 H2917 0.951 . S
C2941 C2942 1.366 . S
C2941 C2943 1.388 . S
C2942 C2941 1.366 . S
C2942 C2946 1.385 . S
C2943 H2918 0.951 . S
C2943 C2941 1.388 . S
C2943 C2944 1.366 . S
C2944 C2943 1.366 . S
C2944 C2945 1.414 . S
C2944 C2947 1.499 . S
C2945 H2919 0.950 . S
C2945 C2944 1.414 . S
C2945 C2946 1.374 . S
C2946 H2920 0.950 . S
C2946 C2942 1.385 . S
C2946 C2945 1.374 . S
C2947 C2944 1.499 . S
C2947 C2948 1.373 . S
C2947 C2949 1.389 . S
C2948 H2921 0.950 . S
C2948 C2934 1.377 . S
C2948 C2947 1.373 . S
C2949 C2933 1.377 . S
C2949 C2947 1.389 . S
C2949 C2950 1.524 . S
C2950 C2949 1.524 . S
C2950 C2951 1.397 . S
C2950 C2955 1.363 . S
C2951 H2922 0.950 . S
C2951 C2950 1.397 . S
C2951 C2952 1.334 . S
C2952 H2923 0.950 . S
C2952 C2951 1.334 . S
C2952 C2953 1.287 . S
C2953 C2952 1.287 . S
C2953 C2954 1.524 . S
C2953 H2956 0.999 . S
C2954 H2924 0.950 . S
C2954 C2953 1.524 . S
C2954 C2955 1.415 . S
C2955 H2925 0.950 . S
C2955 C2950 1.363 . S
C2955 C2954 1.415 . S
H2956 C2953 0.999 . S
H2957 C2938 0.913 . S
H2958 C2976 0.951 . S
H2959 C2978 0.951 . S
H2960 C2980 0.950 . S
H2961 C2981 0.950 . S
H2962 C2983 0.950 . S
H2963 C2986 0.950 . S
H2964 C2987 0.950 . S
H2965 C2989 0.950 . S
H2966 C2990 0.950 . S
H2967 C2991 0.951 . S
H2968 C2993 0.951 . S
H2969 C2995 0.950 . S
H2970 C2996 0.950 . S
H2971 C2998 0.950 . S
H2972 C3001 0.950 . S
H2973 C3002 0.950 . S
H2974 C3004 0.950 . S
H2975 C3005 0.950 . S
C2976 H2958 0.951 . S
C2976 C2977 1.366 . S
C2976 C2978 1.388 1_455 S
C2977 C2976 1.366 . S
C2977 C2981 1.385 . S
C2978 H2959 0.951 . S
C2978 C2976 1.388 1_655 S
C2978 C2979 1.366 . S
C2979 C2978 1.366 . S
C2979 C2980 1.414 1_655 S
C2979 C2982 1.499 . S
C2980 H2960 0.950 . S
C2980 C2979 1.414 1_455 S
C2980 C2981 1.374 . S
C2981 H2961 0.950 . S
C2981 C2977 1.385 . S
C2981 C2980 1.374 . S
C2982 C2979 1.499 . S
C2982 C2983 1.373 . S
C2982 C2984 1.389 . S
C2983 H2962 0.950 . S
C2983 C2982 1.373 . S
C2983 C2999 1.377 . S
C2984 C2982 1.389 . S
C2984 C2985 1.524 . S
C2984 C2998 1.377 . S
C2985 C2984 1.524 . S
C2985 C2986 1.397 . S
C2985 C2990 1.363 . S
C2986 H2963 0.950 . S
C2986 C2985 1.397 . S
C2986 C2987 1.334 . S
C2987 H2964 0.950 . S
C2987 C2986 1.334 . S
C2987 C2988 1.287 . S
C2988 C2987 1.287 . S
C2988 C2989 1.524 . S
C2988 H3007 0.913 . S
C2989 H2965 0.950 . S
C2989 C2988 1.524 . S
C2989 C2990 1.415 . S
C2990 H2966 0.950 . S
C2990 C2985 1.363 . S
C2990 C2989 1.415 . S
C2991 H2967 0.951 . S
C2991 C2992 1.366 . S
C2991 C2993 1.388 . S
C2992 C2991 1.366 . S
C2992 C2996 1.385 . S
C2993 H2968 0.951 . S
C2993 C2991 1.388 . S
C2993 C2994 1.366 . S
C2994 C2993 1.366 . S
C2994 C2995 1.414 . S
C2994 C2997 1.499 . S
C2995 H2969 0.950 . S
C2995 C2994 1.414 . S
C2995 C2996 1.374 . S
C2996 H2970 0.950 . S
C2996 C2992 1.385 . S
C2996 C2995 1.374 . S
C2997 C2994 1.499 . S
C2997 C2998 1.373 . S
C2997 C2999 1.389 . S
C2998 H2971 0.950 . S
C2998 C2984 1.377 . S
C2998 C2997 1.373 . S
C2999 C2983 1.377 . S
C2999 C2997 1.389 . S
C2999 C3000 1.524 . S
C3000 C2999 1.524 . S
C3000 C3001 1.397 . S
C3000 C3005 1.363 . S
C3001 H2972 0.950 . S
C3001 C3000 1.397 . S
C3001 C3002 1.334 . S
C3002 H2973 0.950 . S
C3002 C3001 1.334 . S
C3002 C3003 1.287 . S
C3003 C3002 1.287 . S
C3003 C3004 1.524 . S
C3003 H3006 0.999 . S
C3004 H2974 0.950 . S
C3004 C3003 1.524 . S
C3004 C3005 1.415 . S
C3005 H2975 0.950 . S
C3005 C3000 1.363 . S
C3005 C3004 1.415 . S
H3006 C3003 0.999 . S
H3007 C2988 0.913 . S
H3008 C3026 0.951 . S
H3009 C3028 0.951 . S
H3010 C3030 0.950 . S
H3011 C3031 0.950 . S
H3012 C3033 0.950 . S
H3013 C3036 0.950 . S
H3014 C3037 0.950 . S
H3015 C3039 0.950 . S
H3016 C3040 0.950 . S
H3017 C3041 0.951 . S
H3018 C3043 0.951 . S
H3019 C3045 0.950 . S
H3020 C3046 0.950 . S
H3021 C3048 0.950 . S
H3022 C3051 0.950 . S
H3023 C3052 0.950 . S
H3024 C3054 0.950 . S
H3025 C3055 0.950 . S
C3026 H3008 0.951 . S
C3026 C3027 1.366 . S
C3026 C3028 1.388 . S
C3027 C3026 1.366 . S
C3027 C3031 1.385 . S
C3028 H3009 0.951 . S
C3028 C3026 1.388 . S
C3028 C3029 1.366 . S
C3029 C3028 1.366 . S
C3029 C3030 1.414 . S
C3029 C3032 1.499 . S
C3030 H3010 0.950 . S
C3030 C3029 1.414 . S
C3030 C3031 1.374 . S
C3031 H3011 0.950 . S
C3031 C3027 1.385 . S
C3031 C3030 1.374 . S
C3032 C3029 1.499 . S
C3032 C3033 1.373 . S
C3032 C3034 1.389 . S
C3033 H3012 0.950 . S
C3033 C3032 1.373 . S
C3033 C3049 1.377 . S
C3034 C3032 1.389 . S
C3034 C3035 1.524 . S
C3034 C3048 1.377 . S
C3035 C3034 1.524 . S
C3035 C3036 1.397 . S
C3035 C3040 1.363 . S
C3036 H3013 0.950 . S
C3036 C3035 1.397 . S
C3036 C3037 1.334 . S
C3037 H3014 0.950 . S
C3037 C3036 1.334 . S
C3037 C3038 1.287 . S
C3038 C3037 1.287 . S
C3038 C3039 1.524 . S
C3038 H3057 0.913 . S
C3039 H3015 0.950 . S
C3039 C3038 1.524 . S
C3039 C3040 1.415 . S
C3040 H3016 0.950 . S
C3040 C3035 1.363 . S
C3040 C3039 1.415 . S
C3041 H3017 0.951 . S
C3041 C3042 1.366 . S
C3041 C3043 1.388 . S
C3042 C3041 1.366 . S
C3042 C3046 1.385 . S
C3043 H3018 0.951 . S
C3043 C3041 1.388 . S
C3043 C3044 1.366 . S
C3044 C3043 1.366 . S
C3044 C3045 1.414 . S
C3044 C3047 1.499 . S
C3045 H3019 0.950 . S
C3045 C3044 1.414 . S
C3045 C3046 1.374 . S
C3046 H3020 0.950 . S
C3046 C3042 1.385 . S
C3046 C3045 1.374 . S
C3047 C3044 1.499 . S
C3047 C3048 1.373 . S
C3047 C3049 1.389 . S
C3048 H3021 0.950 . S
C3048 C3034 1.377 . S
C3048 C3047 1.373 . S
C3049 C3033 1.377 . S
C3049 C3047 1.389 . S
C3049 C3050 1.524 . S
C3050 C3049 1.524 . S
C3050 C3051 1.397 . S
C3050 C3055 1.363 . S
C3051 H3022 0.950 . S
C3051 C3050 1.397 . S
C3051 C3052 1.334 . S
C3052 H3023 0.950 . S
C3052 C3051 1.334 . S
C3052 C3053 1.287 . S
C3053 C3052 1.287 . S
C3053 C3054 1.524 . S
C3053 H3056 0.999 . S
C3054 H3024 0.950 . S
C3054 C3053 1.524 . S
C3054 C3055 1.415 . S
C3055 H3025 0.950 . S
C3055 C3050 1.363 . S
C3055 C3054 1.415 . S
H3056 C3053 0.999 . S
H3057 C3038 0.913 . S
H3058 C3076 0.951 . S
H3059 C3078 0.951 1_545 S
H3060 C3080 0.950 . S
H3061 C3081 0.950 . S
H3062 C3083 0.950 . S
H3063 C3086 0.950 . S
H3064 C3087 0.950 . S
H3065 C3089 0.950 . S
H3066 C3090 0.950 . S
H3067 C3091 0.951 . S
H3068 C3093 0.951 . S
H3069 C3095 0.950 . S
H3070 C3096 0.950 . S
H3071 C3098 0.950 . S
H3072 C3101 0.950 . S
H3073 C3102 0.950 . S
H3074 C3104 0.950 . S
H3075 C3105 0.950 . S
C3076 H3058 0.951 . S
C3076 C3077 1.366 . S
C3076 C3078 1.388 . S
C3077 C3076 1.366 . S
C3077 C3081 1.385 . S
C3078 H3059 0.951 1_565 S
C3078 C3076 1.388 . S
C3078 C3079 1.357 1_565 S
C3079 C3078 1.357 1_545 S
C3079 C3080 1.366 1_545 S
C3079 C3082 1.557 . S
C3080 H3060 0.950 . S
C3080 C3079 1.366 1_565 S
C3080 C3081 1.374 . S
C3081 H3061 0.950 . S
C3081 C3077 1.385 . S
C3081 C3080 1.374 . S
C3082 C3079 1.557 . S
C3082 C3083 1.373 . S
C3082 C3084 1.389 . S
C3083 H3062 0.950 . S
C3083 C3082 1.373 . S
C3083 C3099 1.377 . S
C3084 C3082 1.389 . S
C3084 C3085 1.524 . S
C3084 C3098 1.377 . S
C3085 C3084 1.524 . S
C3085 C3086 1.397 . S
C3085 C3090 1.363 . S
C3086 H3063 0.950 . S
C3086 C3085 1.397 . S
C3086 C3087 1.334 . S
C3087 H3064 0.950 . S
C3087 C3086 1.334 . S
C3087 C3088 1.287 . S
C3088 C3087 1.287 . S
C3088 C3089 1.524 . S
C3088 H3107 0.913 . S
C3089 H3065 0.950 . S
C3089 C3088 1.524 . S
C3089 C3090 1.415 . S
C3090 H3066 0.950 . S
C3090 C3085 1.363 . S
C3090 C3089 1.415 . S
C3091 H3067 0.951 . S
C3091 C3092 1.366 . S
C3091 C3093 1.388 . S
C3092 C3091 1.366 . S
C3092 C3096 1.385 . S
C3093 H3068 0.951 . S
C3093 C3091 1.388 . S
C3093 C3094 1.366 . S
C3094 C3093 1.366 . S
C3094 C3095 1.414 . S
C3094 C3097 1.499 . S
C3095 H3069 0.950 . S
C3095 C3094 1.414 . S
C3095 C3096 1.374 . S
C3096 H3070 0.950 . S
C3096 C3092 1.385 . S
C3096 C3095 1.374 . S
C3097 C3094 1.499 . S
C3097 C3098 1.373 . S
C3097 C3099 1.389 . S
C3098 H3071 0.950 . S
C3098 C3084 1.377 . S
C3098 C3097 1.373 . S
C3099 C3083 1.377 . S
C3099 C3097 1.389 . S
C3099 C3100 1.524 . S
C3100 C3099 1.524 . S
C3100 C3101 1.397 . S
C3100 C3105 1.363 . S
C3101 H3072 0.950 . S
C3101 C3100 1.397 . S
C3101 C3102 1.334 . S
C3102 H3073 0.950 . S
C3102 C3101 1.334 . S
C3102 C3103 1.287 . S
C3103 C3102 1.287 . S
C3103 C3104 1.524 . S
C3103 H3106 0.999 . S
C3104 H3074 0.950 . S
C3104 C3103 1.524 . S
C3104 C3105 1.415 . S
C3105 H3075 0.950 . S
C3105 C3100 1.363 . S
C3105 C3104 1.415 . S
H3106 C3103 0.999 . S
H3107 C3088 0.913 . S
H3108 C3126 0.951 . S
H3109 C3128 0.951 . S
H3110 C3130 0.950 . S
H3111 C3131 0.950 . S
H3112 C3133 0.950 . S
H3113 C3136 0.950 . S
H3114 C3137 0.950 . S
H3115 C3139 0.950 . S
H3116 C3140 0.950 . S
H3117 C3141 0.951 . S
H3118 C3143 0.951 . S
H3119 C3145 0.950 . S
H3120 C3146 0.950 . S
H3121 C3148 0.950 . S
H3122 C3151 0.950 . S
H3123 C3152 0.950 . S
H3124 C3154 0.950 . S
H3125 C3155 0.950 . S
C3126 H3108 0.951 . S
C3126 C3127 1.366 . S
C3126 C3128 1.388 . S
C3127 C3126 1.366 . S
C3127 C3131 1.385 . S
C3128 H3109 0.951 . S
C3128 C3126 1.388 . S
C3128 C3129 1.366 . S
C3129 C3128 1.366 . S
C3129 C3130 1.414 . S
C3129 C3132 1.499 . S
C3130 H3110 0.950 . S
C3130 C3129 1.414 . S
C3130 C3131 1.374 . S
C3131 H3111 0.950 . S
C3131 C3127 1.385 . S
C3131 C3130 1.374 . S
C3132 C3129 1.499 . S
C3132 C3133 1.373 . S
C3132 C3134 1.389 . S
C3133 H3112 0.950 . S
C3133 C3132 1.373 . S
C3133 C3149 1.377 . S
C3134 C3132 1.389 . S
C3134 C3135 1.524 . S
C3134 C3148 1.377 . S
C3135 C3134 1.524 . S
C3135 C3136 1.397 . S
C3135 C3140 1.363 . S
C3136 H3113 0.950 . S
C3136 C3135 1.397 . S
C3136 C3137 1.334 . S
C3137 H3114 0.950 . S
C3137 C3136 1.334 . S
C3137 C3138 1.287 . S
C3138 C3137 1.287 . S
C3138 C3139 1.524 . S
C3138 H3157 0.913 . S
C3139 H3115 0.950 . S
C3139 C3138 1.524 . S
C3139 C3140 1.415 . S
C3140 H3116 0.950 . S
C3140 C3135 1.363 . S
C3140 C3139 1.415 . S
C3141 H3117 0.951 . S
C3141 C3142 1.366 . S
C3141 C3143 1.388 . S
C3142 C3141 1.366 . S
C3142 C3146 1.385 . S
C3143 H3118 0.951 . S
C3143 C3141 1.388 . S
C3143 C3144 1.366 . S
C3144 C3143 1.366 . S
C3144 C3145 1.414 . S
C3144 C3147 1.499 . S
C3145 H3119 0.950 . S
C3145 C3144 1.414 . S
C3145 C3146 1.374 . S
C3146 H3120 0.950 . S
C3146 C3142 1.385 . S
C3146 C3145 1.374 . S
C3147 C3144 1.499 . S
C3147 C3148 1.373 . S
C3147 C3149 1.389 . S
C3148 H3121 0.950 . S
C3148 C3134 1.377 . S
C3148 C3147 1.373 . S
C3149 C3133 1.377 . S
C3149 C3147 1.389 . S
C3149 C3150 1.524 . S
C3150 C3149 1.524 . S
C3150 C3151 1.397 . S
C3150 C3155 1.363 . S
C3151 H3122 0.950 . S
C3151 C3150 1.397 . S
C3151 C3152 1.334 . S
C3152 H3123 0.950 . S
C3152 C3151 1.334 . S
C3152 C3153 1.287 . S
C3153 C3152 1.287 . S
C3153 C3154 1.524 . S
C3153 H3156 0.999 . S
C3154 H3124 0.950 . S
C3154 C3153 1.524 . S
C3154 C3155 1.415 . S
C3155 H3125 0.950 . S
C3155 C3150 1.363 . S
C3155 C3154 1.415 . S
H3156 C3153 0.999 . S
H3157 C3138 0.913 . S
H3158 C3176 0.951 . S
H3159 C3178 0.951 . S
H3160 C3180 0.950 . S
H3161 C3181 0.950 . S
H3162 C3183 0.950 . S
H3163 C3186 0.950 . S
H3164 C3187 0.950 . S
H3165 C3189 0.950 . S
H3166 C3190 0.950 . S
H3167 C3191 0.951 . S
H3168 C3193 0.951 . S
H3169 C3195 0.950 . S
H3170 C3196 0.950 . S
H3171 C3198 0.950 . S
H3172 C3201 0.950 . S
H3173 C3202 0.950 . S
H3174 C3204 0.950 . S
H3175 C3205 0.950 . S
C3176 H3158 0.951 . S
C3176 C3177 1.366 . S
C3176 C3178 1.388 . S
C3177 C3176 1.366 . S
C3177 C3181 1.385 . S
C3178 H3159 0.951 . S
C3178 C3176 1.388 . S
C3178 C3179 1.366 . S
C3179 C3178 1.366 . S
C3179 C3180 1.414 . S
C3179 C3182 1.499 . S
C3180 H3160 0.950 . S
C3180 C3179 1.414 . S
C3180 C3181 1.374 . S
C3181 H3161 0.950 . S
C3181 C3177 1.385 . S
C3181 C3180 1.374 . S
C3182 C3179 1.499 . S
C3182 C3183 1.373 . S
C3182 C3184 1.389 . S
C3183 H3162 0.950 . S
C3183 C3182 1.373 . S
C3183 C3199 1.377 . S
C3184 C3182 1.389 . S
C3184 C3185 1.524 . S
C3184 C3198 1.377 . S
C3185 C3184 1.524 . S
C3185 C3186 1.397 . S
C3185 C3190 1.363 . S
C3186 H3163 0.950 . S
C3186 C3185 1.397 . S
C3186 C3187 1.334 . S
C3187 H3164 0.950 . S
C3187 C3186 1.334 . S
C3187 C3188 1.287 . S
C3188 C3187 1.287 . S
C3188 C3189 1.524 . S
C3188 H3207 0.913 . S
C3189 H3165 0.950 . S
C3189 C3188 1.524 . S
C3189 C3190 1.415 . S
C3190 H3166 0.950 . S
C3190 C3185 1.363 . S
C3190 C3189 1.415 . S
C3191 H3167 0.951 . S
C3191 C3192 1.366 . S
C3191 C3193 1.388 . S
C3192 C3191 1.366 . S
C3192 C3196 1.385 . S
C3193 H3168 0.951 . S
C3193 C3191 1.388 . S
C3193 C3194 1.366 . S
C3194 C3193 1.366 . S
C3194 C3195 1.414 . S
C3194 C3197 1.499 . S
C3195 H3169 0.950 . S
C3195 C3194 1.414 . S
C3195 C3196 1.374 . S
C3196 H3170 0.950 . S
C3196 C3192 1.385 . S
C3196 C3195 1.374 . S
C3197 C3194 1.499 . S
C3197 C3198 1.373 . S
C3197 C3199 1.389 . S
C3198 H3171 0.950 . S
C3198 C3184 1.377 . S
C3198 C3197 1.373 . S
C3199 C3183 1.377 . S
C3199 C3197 1.389 . S
C3199 C3200 1.524 . S
C3200 C3199 1.524 . S
C3200 C3201 1.397 . S
C3200 C3205 1.363 . S
C3201 H3172 0.950 . S
C3201 C3200 1.397 . S
C3201 C3202 1.334 . S
C3202 H3173 0.950 . S
C3202 C3201 1.334 . S
C3202 C3203 1.287 . S
C3203 C3202 1.287 . S
C3203 C3204 1.524 . S
C3203 H3206 0.999 . S
C3204 H3174 0.950 . S
C3204 C3203 1.524 . S
C3204 C3205 1.415 . S
C3205 H3175 0.950 . S
C3205 C3200 1.363 . S
C3205 C3204 1.415 . S
H3206 C3203 0.999 . S
H3207 C3188 0.913 . S
H3208 C3226 0.951 . S
H3209 C3228 0.951 . S
H3210 C3230 0.950 . S
H3211 C3231 0.950 . S
H3212 C3233 0.950 . S
H3213 C3236 0.950 . S
H3214 C3237 0.950 . S
H3215 C3239 0.950 . S
H3216 C3240 0.950 . S
H3217 C3241 0.951 . S
H3218 C3243 0.951 . S
H3219 C3245 0.950 . S
H3220 C3246 0.950 . S
H3221 C3248 0.950 . S
H3222 C3251 0.950 . S
H3223 C3252 0.950 . S
H3224 C3254 0.950 . S
H3225 C3255 0.950 . S
C3226 H3208 0.951 . S
C3226 C3227 1.366 . S
C3226 C3228 1.388 . S
C3227 C3226 1.366 . S
C3227 C3231 1.385 . S
C3228 H3209 0.951 . S
C3228 C3226 1.388 . S
C3228 C3229 1.366 . S
C3229 C3228 1.366 . S
C3229 C3230 1.414 . S
C3229 C3232 1.499 . S
C3230 H3210 0.950 . S
C3230 C3229 1.414 . S
C3230 C3231 1.374 . S
C3231 H3211 0.950 . S
C3231 C3227 1.385 . S
C3231 C3230 1.374 . S
C3232 C3229 1.499 . S
C3232 C3233 1.373 . S
C3232 C3234 1.389 . S
C3233 H3212 0.950 . S
C3233 C3232 1.373 . S
C3233 C3249 1.377 . S
C3234 C3232 1.389 . S
C3234 C3235 1.524 . S
C3234 C3248 1.377 . S
C3235 C3234 1.524 . S
C3235 C3236 1.397 . S
C3235 C3240 1.363 . S
C3236 H3213 0.950 . S
C3236 C3235 1.397 . S
C3236 C3237 1.334 . S
C3237 H3214 0.950 . S
C3237 C3236 1.334 . S
C3237 C3238 1.287 . S
C3238 C3237 1.287 . S
C3238 C3239 1.524 . S
C3238 H3257 0.913 . S
C3239 H3215 0.950 . S
C3239 C3238 1.524 . S
C3239 C3240 1.415 . S
C3240 H3216 0.950 . S
C3240 C3235 1.363 . S
C3240 C3239 1.415 . S
C3241 H3217 0.951 . S
C3241 C3242 1.366 . S
C3241 C3243 1.388 . S
C3242 C3241 1.366 . S
C3242 C3246 1.385 . S
C3243 H3218 0.951 . S
C3243 C3241 1.388 . S
C3243 C3244 1.366 . S
C3244 C3243 1.366 . S
C3244 C3245 1.414 . S
C3244 C3247 1.499 . S
C3245 H3219 0.950 . S
C3245 C3244 1.414 . S
C3245 C3246 1.374 . S
C3246 H3220 0.950 . S
C3246 C3242 1.385 . S
C3246 C3245 1.374 . S
C3247 C3244 1.499 . S
C3247 C3248 1.373 . S
C3247 C3249 1.389 . S
C3248 H3221 0.950 . S
C3248 C3234 1.377 . S
C3248 C3247 1.373 . S
C3249 C3233 1.377 . S
C3249 C3247 1.389 . S
C3249 C3250 1.524 . S
C3250 C3249 1.524 . S
C3250 C3251 1.397 . S
C3250 C3255 1.363 . S
C3251 H3222 0.950 . S
C3251 C3250 1.397 . S
C3251 C3252 1.334 . S
C3252 H3223 0.950 . S
C3252 C3251 1.334 . S
C3252 C3253 1.287 . S
C3253 C3252 1.287 . S
C3253 C3254 1.524 . S
C3253 H3256 0.999 . S
C3254 H3224 0.950 . S
C3254 C3253 1.524 . S
C3254 C3255 1.415 . S
C3255 H3225 0.950 . S
C3255 C3250 1.363 . S
C3255 C3254 1.415 . S
H3256 C3253 0.999 . S
H3257 C3238 0.913 . S
H3258 C3276 0.951 . S
H3259 C3278 0.951 . S
H3260 C3280 0.950 . S
H3261 C3281 0.950 . S
H3262 C3283 0.950 . S
H3263 C3286 0.950 . S
H3264 C3287 0.950 . S
H3265 C3289 0.950 . S
H3266 C3290 0.950 . S
H3267 C3291 0.951 . S
H3268 C3293 0.951 . S
H3269 C3295 0.950 . S
H3270 C3296 0.950 . S
H3271 C3298 0.950 . S
H3272 C3301 0.950 . S
H3273 C3302 0.950 . S
H3274 C3304 0.950 . S
H3275 C3305 0.950 . S
C3276 H3258 0.951 . S
C3276 C3277 1.366 . S
C3276 C3278 1.388 . S
C3277 C3276 1.366 . S
C3277 C3281 1.385 . S
C3278 H3259 0.951 . S
C3278 C3276 1.388 . S
C3278 C3279 1.366 . S
C3279 C3278 1.366 . S
C3279 C3280 1.414 . S
C3279 C3282 1.499 . S
C3280 H3260 0.950 . S
C3280 C3279 1.414 . S
C3280 C3281 1.374 . S
C3281 H3261 0.950 . S
C3281 C3277 1.385 . S
C3281 C3280 1.374 . S
C3282 C3279 1.499 . S
C3282 C3283 1.373 . S
C3282 C3284 1.389 . S
C3283 H3262 0.950 . S
C3283 C3282 1.373 . S
C3283 C3299 1.377 . S
C3284 C3282 1.389 . S
C3284 C3285 1.524 . S
C3284 C3298 1.377 . S
C3285 C3284 1.524 . S
C3285 C3286 1.397 . S
C3285 C3290 1.363 . S
C3286 H3263 0.950 . S
C3286 C3285 1.397 . S
C3286 C3287 1.334 . S
C3287 H3264 0.950 . S
C3287 C3286 1.334 . S
C3287 C3288 1.287 . S
C3288 C3287 1.287 . S
C3288 C3289 1.524 . S
C3288 H3307 0.913 . S
C3289 H3265 0.950 . S
C3289 C3288 1.524 . S
C3289 C3290 1.415 . S
C3290 H3266 0.950 . S
C3290 C3285 1.363 . S
C3290 C3289 1.415 . S
C3291 H3267 0.951 . S
C3291 C3292 1.366 . S
C3291 C3293 1.388 . S
C3292 C3291 1.366 . S
C3292 C3296 1.385 . S
C3293 H3268 0.951 . S
C3293 C3291 1.388 . S
C3293 C3294 1.366 . S
C3294 C3293 1.366 . S
C3294 C3295 1.414 . S
C3294 C3297 1.499 . S
C3295 H3269 0.950 . S
C3295 C3294 1.414 . S
C3295 C3296 1.374 . S
C3296 H3270 0.950 . S
C3296 C3292 1.385 . S
C3296 C3295 1.374 . S
C3297 C3294 1.499 . S
C3297 C3298 1.373 . S
C3297 C3299 1.389 . S
C3298 H3271 0.950 . S
C3298 C3284 1.377 . S
C3298 C3297 1.373 . S
C3299 C3283 1.377 . S
C3299 C3297 1.389 . S
C3299 C3300 1.524 . S
C3300 C3299 1.524 . S
C3300 C3301 1.397 . S
C3300 C3305 1.363 . S
C3301 H3272 0.950 . S
C3301 C3300 1.397 . S
C3301 C3302 1.334 . S
C3302 H3273 0.950 . S
C3302 C3301 1.334 . S
C3302 C3303 1.287 . S
C3303 C3302 1.287 . S
C3303 C3304 1.524 . S
C3303 H3306 0.999 . S
C3304 H3274 0.950 . S
C3304 C3303 1.524 . S
C3304 C3305 1.415 . S
C3305 H3275 0.950 . S
C3305 C3300 1.363 . S
C3305 C3304 1.415 . S
H3306 C3303 0.999 . S
H3307 C3288 0.913 . S
H3308 C3326 0.951 . S
H3309 C3328 0.951 . S
H3310 C3330 0.950 . S
H3311 C3331 0.950 . S
H3312 C3333 0.950 . S
H3313 C3336 0.950 . S
H3314 C3337 0.958 . S
H3315 C3339 0.950 . S
H3316 C3340 0.950 . S
H3317 C3341 0.951 . S
H3318 C3343 0.951 . S
H3319 C3345 0.950 . S
H3320 C3346 0.950 . S
H3321 C3348 0.950 . S
H3322 C3351 0.950 . S
H3323 C3352 0.950 . S
H3324 C3354 0.950 . S
H3325 C3355 0.950 . S
C3326 H3308 0.951 . S
C3326 C3327 1.366 . S
C3326 C3328 1.388 . S
C3327 C3326 1.366 . S
C3327 C3331 1.385 . S
C3328 H3309 0.951 . S
C3328 C3326 1.388 . S
C3328 C3329 1.366 . S
C3329 C3328 1.366 . S
C3329 C3330 1.414 . S
C3329 C3332 1.499 . S
C3330 H3310 0.950 . S
C3330 C3329 1.414 . S
C3330 C3331 1.374 . S
C3331 H3311 0.950 . S
C3331 C3327 1.385 . S
C3331 C3330 1.374 . S
C3332 C3329 1.499 . S
C3332 C3333 1.373 . S
C3332 C3334 1.389 . S
C3333 H3312 0.950 . S
C3333 C3332 1.373 . S
C3333 C3349 1.377 . S
C3334 C3332 1.389 . S
C3334 C3335 1.524 . S
C3334 C3348 1.377 . S
C3335 C3334 1.524 . S
C3335 C3336 1.397 . S
C3335 C3340 1.363 . S
C3336 H3313 0.950 . S
C3336 C3335 1.397 . S
C3336 C3337 1.318 1_455 S
C3337 H3314 0.958 . S
C3337 C3336 1.318 1_655 S
C3337 C3338 1.295 1_655 S
C3338 C3337 1.295 1_455 S
C3338 C3339 1.524 . S
C3338 H3357 0.913 1_455 S
C3339 H3315 0.950 . S
C3339 C3338 1.524 . S
C3339 C3340 1.415 . S
C3340 H3316 0.950 . S
C3340 C3335 1.363 . S
C3340 C3339 1.415 . S
C3341 H3317 0.951 . S
C3341 C3342 1.366 . S
C3341 C3343 1.388 . S
C3342 C3341 1.366 . S
C3342 C3346 1.385 . S
C3343 H3318 0.951 . S
C3343 C3341 1.388 . S
C3343 C3344 1.366 . S
C3344 C3343 1.366 . S
C3344 C3345 1.414 . S
C3344 C3347 1.499 . S
C3345 H3319 0.950 . S
C3345 C3344 1.414 . S
C3345 C3346 1.374 . S
C3346 H3320 0.950 . S
C3346 C3342 1.385 . S
C3346 C3345 1.374 . S
C3347 C3344 1.499 . S
C3347 C3348 1.373 . S
C3347 C3349 1.389 . S
C3348 H3321 0.950 . S
C3348 C3334 1.377 . S
C3348 C3347 1.373 . S
C3349 C3333 1.377 . S
C3349 C3347 1.389 . S
C3349 C3350 1.524 . S
C3350 C3349 1.524 . S
C3350 C3351 1.397 . S
C3350 C3355 1.363 . S
C3351 H3322 0.950 . S
C3351 C3350 1.397 . S
C3351 C3352 1.334 . S
C3352 H3323 0.950 . S
C3352 C3351 1.334 . S
C3352 C3353 1.287 . S
C3353 C3352 1.287 . S
C3353 C3354 1.524 . S
C3353 H3356 0.999 . S
C3354 H3324 0.950 . S
C3354 C3353 1.524 . S
C3354 C3355 1.415 . S
C3355 H3325 0.950 . S
C3355 C3350 1.363 . S
C3355 C3354 1.415 . S
H3356 C3353 0.999 . S
H3357 C3338 0.913 1_655 S
H3358 C3376 0.951 . S
H3359 C3378 0.951 . S
H3360 C3380 0.950 . S
H3361 C3381 0.950 . S
H3362 C3383 0.950 . S
H3363 C3386 0.950 . S
H3364 C3387 0.950 . S
H3365 C3389 0.950 . S
H3366 C3390 0.950 . S
H3367 C3391 0.951 . S
H3368 C3393 0.951 . S
H3369 C3395 0.950 . S
H3370 C3396 0.950 . S
H3371 C3398 0.950 . S
H3372 C3401 0.950 . S
H3373 C3402 0.950 . S
H3374 C3404 0.950 . S
H3375 C3405 0.950 . S
C3376 H3358 0.951 . S
C3376 C3377 1.366 . S
C3376 C3378 1.388 . S
C3377 C3376 1.366 . S
C3377 C3381 1.385 . S
C3378 H3359 0.951 . S
C3378 C3376 1.388 . S
C3378 C3379 1.366 . S
C3379 C3378 1.366 . S
C3379 C3380 1.414 . S
C3379 C3382 1.499 . S
C3380 H3360 0.950 . S
C3380 C3379 1.414 . S
C3380 C3381 1.374 . S
C3381 H3361 0.950 . S
C3381 C3377 1.385 . S
C3381 C3380 1.374 . S
C3382 C3379 1.499 . S
C3382 C3383 1.373 . S
C3382 C3384 1.389 . S
C3383 H3362 0.950 . S
C3383 C3382 1.373 . S
C3383 C3399 1.377 . S
C3384 C3382 1.389 . S
C3384 C3385 1.524 . S
C3384 C3398 1.377 . S
C3385 C3384 1.524 . S
C3385 C3386 1.397 . S
C3385 C3390 1.363 . S
C3386 H3363 0.950 . S
C3386 C3385 1.397 . S
C3386 C3387 1.334 . S
C3387 H3364 0.950 . S
C3387 C3386 1.334 . S
C3387 C3388 1.287 . S
C3388 C3387 1.287 . S
C3388 C3389 1.524 . S
C3388 H3407 0.913 . S
C3389 H3365 0.950 . S
C3389 C3388 1.524 . S
C3389 C3390 1.415 . S
C3390 H3366 0.950 . S
C3390 C3385 1.363 . S
C3390 C3389 1.415 . S
C3391 H3367 0.951 . S
C3391 C3392 1.366 . S
C3391 C3393 1.388 . S
C3392 C3391 1.366 . S
C3392 C3396 1.385 . S
C3393 H3368 0.951 . S
C3393 C3391 1.388 . S
C3393 C3394 1.366 . S
C3394 C3393 1.366 . S
C3394 C3395 1.414 . S
C3394 C3397 1.499 . S
C3395 H3369 0.950 . S
C3395 C3394 1.414 . S
C3395 C3396 1.374 . S
C3396 H3370 0.950 . S
C3396 C3392 1.385 . S
C3396 C3395 1.374 . S
C3397 C3394 1.499 . S
C3397 C3398 1.373 . S
C3397 C3399 1.389 . S
C3398 H3371 0.950 . S
C3398 C3384 1.377 . S
C3398 C3397 1.373 . S
C3399 C3383 1.377 . S
C3399 C3397 1.389 . S
C3399 C3400 1.524 . S
C3400 C3399 1.524 . S
C3400 C3401 1.397 . S
C3400 C3405 1.363 . S
C3401 H3372 0.950 . S
C3401 C3400 1.397 . S
C3401 C3402 1.334 . S
C3402 H3373 0.950 . S
C3402 C3401 1.334 . S
C3402 C3403 1.287 . S
C3403 C3402 1.287 . S
C3403 C3404 1.524 . S
C3403 H3406 0.999 . S
C3404 H3374 0.950 . S
C3404 C3403 1.524 . S
C3404 C3405 1.415 . S
C3405 H3375 0.950 . S
C3405 C3400 1.363 . S
C3405 C3404 1.415 . S
H3406 C3403 0.999 . S
H3407 C3388 0.913 . S
H3408 C3426 0.951 . S
H3409 C3428 0.951 . S
H3410 C3430 0.950 . S
H3411 C3431 0.950 . S
H3412 C3433 0.950 . S
H3413 C3436 0.950 . S
H3414 C3437 0.950 . S
H3415 C3439 0.950 . S
H3416 C3440 0.950 . S
H3417 C3441 0.951 . S
H3418 C3443 0.951 . S
H3419 C3445 0.950 . S
H3420 C3446 0.950 . S
H3421 C3448 0.950 . S
H3422 C3451 0.950 . S
H3423 C3452 0.950 . S
H3424 C3454 0.950 . S
H3425 C3455 0.950 . S
C3426 H3408 0.951 . S
C3426 C3427 1.366 . S
C3426 C3428 1.388 . S
C3427 C3426 1.366 . S
C3427 C3431 1.385 . S
C3428 H3409 0.951 . S
C3428 C3426 1.388 . S
C3428 C3429 1.366 . S
C3429 C3428 1.366 . S
C3429 C3430 1.414 . S
C3429 C3432 1.499 . S
C3430 H3410 0.950 . S
C3430 C3429 1.414 . S
C3430 C3431 1.374 . S
C3431 H3411 0.950 . S
C3431 C3427 1.385 . S
C3431 C3430 1.374 . S
C3432 C3429 1.499 . S
C3432 C3433 1.373 . S
C3432 C3434 1.389 . S
C3433 H3412 0.950 . S
C3433 C3432 1.373 . S
C3433 C3449 1.377 . S
C3434 C3432 1.389 . S
C3434 C3435 1.524 . S
C3434 C3448 1.377 . S
C3435 C3434 1.524 . S
C3435 C3436 1.397 . S
C3435 C3440 1.363 . S
C3436 H3413 0.950 . S
C3436 C3435 1.397 . S
C3436 C3437 1.334 . S
C3437 H3414 0.950 . S
C3437 C3436 1.334 . S
C3437 C3438 1.287 . S
C3438 C3437 1.287 . S
C3438 C3439 1.524 . S
C3438 H3457 0.913 . S
C3439 H3415 0.950 . S
C3439 C3438 1.524 . S
C3439 C3440 1.415 . S
C3440 H3416 0.950 . S
C3440 C3435 1.363 . S
C3440 C3439 1.415 . S
C3441 H3417 0.951 . S
C3441 C3442 1.366 . S
C3441 C3443 1.388 . S
C3442 C3441 1.366 . S
C3442 C3446 1.385 . S
C3443 H3418 0.951 . S
C3443 C3441 1.388 . S
C3443 C3444 1.366 . S
C3444 C3443 1.366 . S
C3444 C3445 1.414 . S
C3444 C3447 1.499 . S
C3445 H3419 0.950 . S
C3445 C3444 1.414 . S
C3445 C3446 1.374 . S
C3446 H3420 0.950 . S
C3446 C3442 1.385 . S
C3446 C3445 1.374 . S
C3447 C3444 1.499 . S
C3447 C3448 1.373 . S
C3447 C3449 1.389 . S
C3448 H3421 0.950 . S
C3448 C3434 1.377 . S
C3448 C3447 1.373 . S
C3449 C3433 1.377 . S
C3449 C3447 1.389 . S
C3449 C3450 1.524 . S
C3450 C3449 1.524 . S
C3450 C3451 1.397 . S
C3450 C3455 1.363 . S
C3451 H3422 0.950 . S
C3451 C3450 1.397 . S
C3451 C3452 1.334 . S
C3452 H3423 0.950 . S
C3452 C3451 1.334 . S
C3452 C3453 1.287 . S
C3453 C3452 1.287 . S
C3453 C3454 1.524 . S
C3453 H3456 0.999 . S
C3454 H3424 0.950 . S
C3454 C3453 1.524 . S
C3454 C3455 1.415 . S
C3455 H3425 0.950 . S
C3455 C3450 1.363 . S
C3455 C3454 1.415 . S
H3456 C3453 0.999 . S
H3457 C3438 0.913 . S
H3458 C3476 0.951 . S
H3459 C3478 0.951 . S
H3460 C3480 0.950 . S
H3461 C3481 0.950 . S
H3462 C3483 0.950 . S
H3463 C3486 0.950 . S
H3464 C3487 0.950 . S
H3465 C3489 0.950 . S
H3466 C3490 0.950 . S
H3467 C3491 0.951 . S
H3468 C3493 0.951 . S
H3469 C3495 0.950 . S
H3470 C3496 0.950 . S
H3471 C3498 0.950 . S
H3472 C3501 0.950 . S
H3473 C3502 0.950 . S
H3474 C3504 0.950 . S
H3475 C3505 0.950 . S
C3476 H3458 0.951 . S
C3476 C3477 1.366 . S
C3476 C3478 1.388 . S
C3477 C3476 1.366 . S
C3477 C3481 1.385 . S
C3478 H3459 0.951 . S
C3478 C3476 1.388 . S
C3478 C3479 1.366 . S
C3479 C3478 1.366 . S
C3479 C3480 1.414 . S
C3479 C3482 1.499 . S
C3480 H3460 0.950 . S
C3480 C3479 1.414 . S
C3480 C3481 1.374 . S
C3481 H3461 0.950 . S
C3481 C3477 1.385 . S
C3481 C3480 1.374 . S
C3482 C3479 1.499 . S
C3482 C3483 1.373 . S
C3482 C3484 1.389 . S
C3483 H3462 0.950 . S
C3483 C3482 1.373 . S
C3483 C3499 1.377 . S
C3484 C3482 1.389 . S
C3484 C3485 1.524 . S
C3484 C3498 1.377 . S
C3485 C3484 1.524 . S
C3485 C3486 1.397 . S
C3485 C3490 1.363 . S
C3486 H3463 0.950 . S
C3486 C3485 1.397 . S
C3486 C3487 1.334 . S
C3487 H3464 0.950 . S
C3487 C3486 1.334 . S
C3487 C3488 1.287 . S
C3488 C3487 1.287 . S
C3488 C3489 1.524 . S
C3488 H3507 0.913 . S
C3489 H3465 0.950 . S
C3489 C3488 1.524 . S
C3489 C3490 1.415 . S
C3490 H3466 0.950 . S
C3490 C3485 1.363 . S
C3490 C3489 1.415 . S
C3491 H3467 0.951 . S
C3491 C3492 1.366 . S
C3491 C3493 1.388 . S
C3492 C3491 1.366 . S
C3492 C3496 1.385 . S
C3493 H3468 0.951 . S
C3493 C3491 1.388 . S
C3493 C3494 1.366 . S
C3494 C3493 1.366 . S
C3494 C3495 1.414 . S
C3494 C3497 1.499 . S
C3495 H3469 0.950 . S
C3495 C3494 1.414 . S
C3495 C3496 1.374 . S
C3496 H3470 0.950 . S
C3496 C3492 1.385 . S
C3496 C3495 1.374 . S
C3497 C3494 1.499 . S
C3497 C3498 1.373 . S
C3497 C3499 1.389 . S
C3498 H3471 0.950 . S
C3498 C3484 1.377 . S
C3498 C3497 1.373 . S
C3499 C3483 1.377 . S
C3499 C3497 1.389 . S
C3499 C3500 1.524 . S
C3500 C3499 1.524 . S
C3500 C3501 1.397 . S
C3500 C3505 1.363 . S
C3501 H3472 0.950 . S
C3501 C3500 1.397 . S
C3501 C3502 1.334 . S
C3502 H3473 0.950 . S
C3502 C3501 1.334 . S
C3502 C3503 1.287 . S
C3503 C3502 1.287 . S
C3503 C3504 1.524 . S
C3503 H3506 0.999 . S
C3504 H3474 0.950 . S
C3504 C3503 1.524 . S
C3504 C3505 1.415 . S
C3505 H3475 0.950 . S
C3505 C3500 1.363 . S
C3505 C3504 1.415 . S
H3506 C3503 0.999 . S
H3507 C3488 0.913 . S
H3508 C3526 0.951 . S
H3509 C3528 0.951 . S
H3510 C3530 0.950 . S
H3511 C3531 0.950 . S
H3512 C3533 0.950 . S
H3513 C3536 0.950 . S
H3514 C3537 0.950 1_565 S
H3515 C3539 0.946 1_565 S
H3516 C3540 0.950 . S
H3517 C3541 0.951 . S
H3518 C3543 0.951 . S
H3519 C3545 0.950 . S
H3520 C3546 0.950 . S
H3521 C3548 0.950 . S
H3522 C3551 0.950 . S
H3523 C3552 0.950 . S
H3524 C3554 0.950 . S
H3525 C3555 0.950 . S
C3526 H3508 0.951 . S
C3526 C3527 1.366 . S
C3526 C3528 1.388 . S
C3527 C3526 1.366 . S
C3527 C3531 1.385 . S
C3528 H3509 0.951 . S
C3528 C3526 1.388 . S
C3528 C3529 1.366 . S
C3529 C3528 1.366 . S
C3529 C3530 1.414 . S
C3529 C3532 1.499 . S
C3530 H3510 0.950 . S
C3530 C3529 1.414 . S
C3530 C3531 1.374 . S
C3531 H3511 0.950 . S
C3531 C3527 1.385 . S
C3531 C3530 1.374 . S
C3532 C3529 1.499 . S
C3532 C3533 1.373 . S
C3532 C3534 1.389 . S
C3533 H3512 0.950 . S
C3533 C3532 1.373 . S
C3533 C3549 1.377 . S
C3534 C3532 1.389 . S
C3534 C3535 1.524 . S
C3534 C3548 1.377 . S
C3535 C3534 1.524 . S
C3535 C3536 1.397 . S
C3535 C3540 1.363 . S
C3536 H3513 0.950 . S
C3536 C3535 1.397 . S
C3536 C3537 1.334 . S
C3537 H3514 0.950 1_545 S
C3537 C3536 1.334 . S
C3537 C3538 1.287 1_545 S
C3538 C3537 1.287 1_565 S
C3538 C3539 1.524 1_565 S
C3538 H3557 0.913 . S
C3539 H3515 0.946 1_545 S
C3539 C3538 1.524 1_545 S
C3539 C3540 1.415 . S
C3540 H3516 0.950 . S
C3540 C3535 1.363 . S
C3540 C3539 1.415 . S
C3541 H3517 0.951 . S
C3541 C3542 1.366 . S
C3541 C3543 1.388 . S
C3542 C3541 1.366 . S
C3542 C3546 1.385 . S
C3543 H3518 0.951 . S
C3543 C3541 1.388 . S
C3543 C3544 1.366 . S
C3544 C3543 1.366 . S
C3544 C3545 1.414 . S
C3544 C3547 1.499 . S
C3545 H3519 0.950 . S
C3545 C3544 1.414 . S
C3545 C3546 1.374 . S
C3546 H3520 0.950 . S
C3546 C3542 1.385 . S
C3546 C3545 1.374 . S
C3547 C3544 1.499 . S
C3547 C3548 1.373 . S
C3547 C3549 1.389 . S
C3548 H3521 0.950 . S
C3548 C3534 1.377 . S
C3548 C3547 1.373 . S
C3549 C3533 1.377 . S
C3549 C3547 1.389 . S
C3549 C3550 1.524 . S
C3550 C3549 1.524 . S
C3550 C3551 1.397 . S
C3550 C3555 1.363 . S
C3551 H3522 0.950 . S
C3551 C3550 1.397 . S
C3551 C3552 1.334 . S
C3552 H3523 0.950 . S
C3552 C3551 1.334 . S
C3552 C3553 1.287 . S
C3553 C3552 1.287 . S
C3553 C3554 1.524 . S
C3553 H3556 0.999 . S
C3554 H3524 0.950 . S
C3554 C3553 1.524 . S
C3554 C3555 1.415 . S
C3555 H3525 0.950 . S
C3555 C3550 1.363 . S
C3555 C3554 1.415 . S
H3556 C3553 0.999 . S
H3557 C3538 0.913 . S
H3558 C3576 0.951 . S
H3559 C3578 0.951 . S
H3560 C3580 0.950 . S
H3561 C3581 0.950 . S
H3562 C3583 0.950 . S
H3563 C3586 0.950 . S
H3564 C3587 0.950 . S
H3565 C3589 0.950 . S
H3566 C3590 0.950 . S
H3567 C3591 0.951 . S
H3568 C3593 0.951 . S
H3569 C3595 0.950 . S
H3570 C3596 0.950 . S
H3571 C3598 0.950 . S
H3572 C3601 0.950 . S
H3573 C3602 0.950 . S
H3574 C3604 0.950 . S
H3575 C3605 0.950 . S
C3576 H3558 0.951 . S
C3576 C3577 1.366 . S
C3576 C3578 1.388 . S
C3577 C3576 1.366 . S
C3577 C3581 1.385 . S
C3578 H3559 0.951 . S
C3578 C3576 1.388 . S
C3578 C3579 1.366 . S
C3579 C3578 1.366 . S
C3579 C3580 1.414 . S
C3579 C3582 1.499 . S
C3580 H3560 0.950 . S
C3580 C3579 1.414 . S
C3580 C3581 1.374 . S
C3581 H3561 0.950 . S
C3581 C3577 1.385 . S
C3581 C3580 1.374 . S
C3582 C3579 1.499 . S
C3582 C3583 1.373 . S
C3582 C3584 1.389 . S
C3583 H3562 0.950 . S
C3583 C3582 1.373 . S
C3583 C3599 1.377 . S
C3584 C3582 1.389 . S
C3584 C3585 1.524 . S
C3584 C3598 1.377 . S
C3585 C3584 1.524 . S
C3585 C3586 1.397 . S
C3585 C3590 1.363 . S
C3586 H3563 0.950 . S
C3586 C3585 1.397 . S
C3586 C3587 1.334 . S
C3587 H3564 0.950 . S
C3587 C3586 1.334 . S
C3587 C3588 1.287 . S
C3588 C3587 1.287 . S
C3588 C3589 1.524 . S
C3588 H3607 0.913 . S
C3589 H3565 0.950 . S
C3589 C3588 1.524 . S
C3589 C3590 1.415 . S
C3590 H3566 0.950 . S
C3590 C3585 1.363 . S
C3590 C3589 1.415 . S
C3591 H3567 0.951 . S
C3591 C3592 1.366 . S
C3591 C3593 1.388 . S
C3592 C3591 1.366 . S
C3592 C3596 1.385 . S
C3593 H3568 0.951 . S
C3593 C3591 1.388 . S
C3593 C3594 1.366 . S
C3594 C3593 1.366 . S
C3594 C3595 1.414 . S
C3594 C3597 1.499 . S
C3595 H3569 0.950 . S
C3595 C3594 1.414 . S
C3595 C3596 1.374 . S
C3596 H3570 0.950 . S
C3596 C3592 1.385 . S
C3596 C3595 1.374 . S
C3597 C3594 1.499 . S
C3597 C3598 1.373 . S
C3597 C3599 1.389 . S
C3598 H3571 0.950 . S
C3598 C3584 1.377 . S
C3598 C3597 1.373 . S
C3599 C3583 1.377 . S
C3599 C3597 1.389 . S
C3599 C3600 1.524 . S
C3600 C3599 1.524 . S
C3600 C3601 1.397 . S
C3600 C3605 1.363 . S
C3601 H3572 0.950 . S
C3601 C3600 1.397 . S
C3601 C3602 1.334 . S
C3602 H3573 0.950 . S
C3602 C3601 1.334 . S
C3602 C3603 1.287 . S
C3603 C3602 1.287 . S
C3603 C3604 1.524 . S
C3603 H3606 0.999 . S
C3604 H3574 0.950 . S
C3604 C3603 1.524 . S
C3604 C3605 1.415 . S
C3605 H3575 0.950 . S
C3605 C3600 1.363 . S
C3605 C3604 1.415 . S
H3606 C3603 0.999 . S
H3607 C3588 0.913 . S
H3608 C3626 0.951 . S
H3609 C3628 0.951 . S
H3610 C3630 0.950 . S
H3611 C3631 0.950 . S
H3612 C3633 0.950 . S
H3613 C3636 0.950 . S
H3614 C3637 0.950 . S
H3615 C3639 0.950 . S
H3616 C3640 0.950 . S
H3617 C3641 0.951 . S
H3618 C3643 0.951 . S
H3619 C3645 0.950 . S
H3620 C3646 0.950 . S
H3621 C3648 0.950 . S
H3622 C3651 0.950 . S
H3623 C3652 0.950 . S
H3624 C3654 0.950 . S
H3625 C3655 0.950 . S
C3626 H3608 0.951 . S
C3626 C3627 1.366 . S
C3626 C3628 1.388 . S
C3627 C3626 1.366 . S
C3627 C3631 1.385 . S
C3628 H3609 0.951 . S
C3628 C3626 1.388 . S
C3628 C3629 1.366 . S
C3629 C3628 1.366 . S
C3629 C3630 1.414 . S
C3629 C3632 1.499 . S
C3630 H3610 0.950 . S
C3630 C3629 1.414 . S
C3630 C3631 1.374 . S
C3631 H3611 0.950 . S
C3631 C3627 1.385 . S
C3631 C3630 1.374 . S
C3632 C3629 1.499 . S
C3632 C3633 1.373 . S
C3632 C3634 1.389 . S
C3633 H3612 0.950 . S
C3633 C3632 1.373 . S
C3633 C3649 1.377 . S
C3634 C3632 1.389 . S
C3634 C3635 1.524 . S
C3634 C3648 1.377 . S
C3635 C3634 1.524 . S
C3635 C3636 1.397 . S
C3635 C3640 1.363 . S
C3636 H3613 0.950 . S
C3636 C3635 1.397 . S
C3636 C3637 1.334 . S
C3637 H3614 0.950 . S
C3637 C3636 1.334 . S
C3637 C3638 1.287 . S
C3638 C3637 1.287 . S
C3638 C3639 1.524 . S
C3638 H3657 0.913 . S
C3639 H3615 0.950 . S
C3639 C3638 1.524 . S
C3639 C3640 1.415 . S
C3640 H3616 0.950 . S
C3640 C3635 1.363 . S
C3640 C3639 1.415 . S
C3641 H3617 0.951 . S
C3641 C3642 1.366 . S
C3641 C3643 1.388 . S
C3642 C3641 1.366 . S
C3642 C3646 1.385 . S
C3643 H3618 0.951 . S
C3643 C3641 1.388 . S
C3643 C3644 1.366 . S
C3644 C3643 1.366 . S
C3644 C3645 1.414 . S
C3644 C3647 1.499 . S
C3645 H3619 0.950 . S
C3645 C3644 1.414 . S
C3645 C3646 1.374 . S
C3646 H3620 0.950 . S
C3646 C3642 1.385 . S
C3646 C3645 1.374 . S
C3647 C3644 1.499 . S
C3647 C3648 1.373 . S
C3647 C3649 1.389 . S
C3648 H3621 0.950 . S
C3648 C3634 1.377 . S
C3648 C3647 1.373 . S
C3649 C3633 1.377 . S
C3649 C3647 1.389 . S
C3649 C3650 1.524 . S
C3650 C3649 1.524 . S
C3650 C3651 1.397 . S
C3650 C3655 1.363 . S
C3651 H3622 0.950 . S
C3651 C3650 1.397 . S
C3651 C3652 1.334 . S
C3652 H3623 0.950 . S
C3652 C3651 1.334 . S
C3652 C3653 1.287 . S
C3653 C3652 1.287 . S
C3653 C3654 1.524 . S
C3653 H3656 0.999 . S
C3654 H3624 0.950 . S
C3654 C3653 1.524 . S
C3654 C3655 1.415 . S
C3655 H3625 0.950 . S
C3655 C3650 1.363 . S
C3655 C3654 1.415 . S
H3656 C3653 0.999 . S
H3657 C3638 0.913 . S
H3658 C3676 0.951 . S
H3659 C3678 0.951 . S
H3660 C3680 0.950 . S
H3661 C3681 0.950 . S
H3662 C3683 0.950 . S
H3663 C3686 0.950 . S
H3664 C3687 0.950 . S
H3665 C3689 0.950 . S
H3666 C3690 0.950 . S
H3667 C3691 0.951 . S
H3668 C3693 0.951 . S
H3669 C3695 0.950 . S
H3670 C3696 0.950 . S
H3671 C3698 0.950 . S
H3672 C3701 0.950 . S
H3673 C3702 0.950 . S
H3674 C3704 0.950 . S
H3675 C3705 0.950 . S
C3676 H3658 0.951 . S
C3676 C3677 1.366 . S
C3676 C3678 1.388 . S
C3677 C3676 1.366 . S
C3677 C3681 1.385 . S
C3678 H3659 0.951 . S
C3678 C3676 1.388 . S
C3678 C3679 1.366 . S
C3679 C3678 1.366 . S
C3679 C3680 1.414 . S
C3679 C3682 1.499 . S
C3680 H3660 0.950 . S
C3680 C3679 1.414 . S
C3680 C3681 1.374 . S
C3681 H3661 0.950 . S
C3681 C3677 1.385 . S
C3681 C3680 1.374 . S
C3682 C3679 1.499 . S
C3682 C3683 1.373 . S
C3682 C3684 1.389 . S
C3683 H3662 0.950 . S
C3683 C3682 1.373 . S
C3683 C3699 1.377 . S
C3684 C3682 1.389 . S
C3684 C3685 1.524 . S
C3684 C3698 1.377 . S
C3685 C3684 1.524 . S
C3685 C3686 1.397 . S
C3685 C3690 1.363 . S
C3686 H3663 0.950 . S
C3686 C3685 1.397 . S
C3686 C3687 1.334 . S
C3687 H3664 0.950 . S
C3687 C3686 1.334 . S
C3687 C3688 1.287 . S
C3688 C3687 1.287 . S
C3688 C3689 1.524 . S
C3688 H3707 0.913 . S
C3689 H3665 0.950 . S
C3689 C3688 1.524 . S
C3689 C3690 1.415 . S
C3690 H3666 0.950 . S
C3690 C3685 1.363 . S
C3690 C3689 1.415 . S
C3691 H3667 0.951 . S
C3691 C3692 1.366 . S
C3691 C3693 1.388 . S
C3692 C3691 1.366 . S
C3692 C3696 1.385 . S
C3693 H3668 0.951 . S
C3693 C3691 1.388 . S
C3693 C3694 1.366 . S
C3694 C3693 1.366 . S
C3694 C3695 1.414 . S
C3694 C3697 1.499 . S
C3695 H3669 0.950 . S
C3695 C3694 1.414 . S
C3695 C3696 1.374 . S
C3696 H3670 0.950 . S
C3696 C3692 1.385 . S
C3696 C3695 1.374 . S
C3697 C3694 1.499 . S
C3697 C3698 1.373 . S
C3697 C3699 1.389 . S
C3698 H3671 0.950 . S
C3698 C3684 1.377 . S
C3698 C3697 1.373 . S
C3699 C3683 1.377 . S
C3699 C3697 1.389 . S
C3699 C3700 1.524 . S
C3700 C3699 1.524 . S
C3700 C3701 1.397 . S
C3700 C3705 1.363 . S
C3701 H3672 0.950 . S
C3701 C3700 1.397 . S
C3701 C3702 1.334 . S
C3702 H3673 0.950 . S
C3702 C3701 1.334 . S
C3702 C3703 1.287 . S
C3703 C3702 1.287 . S
C3703 C3704 1.524 . S
C3703 H3706 0.999 . S
C3704 H3674 0.950 . S
C3704 C3703 1.524 . S
C3704 C3705 1.415 . S
C3705 H3675 0.950 . S
C3705 C3700 1.363 . S
C3705 C3704 1.415 . S
H3706 C3703 0.999 . S
H3707 C3688 0.913 . S
H3708 C3726 0.951 . S
H3709 C3728 0.951 . S
H3710 C3730 0.950 . S
H3711 C3731 0.950 . S
H3712 C3733 0.950 . S
H3713 C3736 0.950 . S
H3714 C3737 0.950 . S
H3715 C3739 0.950 . S
H3716 C3740 0.950 . S
H3717 C3741 0.951 . S
H3718 C3743 0.951 . S
H3719 C3745 0.950 . S
H3720 C3746 0.950 . S
H3721 C3748 0.950 . S
H3722 C3751 0.950 . S
H3723 C3752 0.950 . S
H3724 C3754 0.950 . S
H3725 C3755 0.950 . S
C3726 H3708 0.951 . S
C3726 C3727 1.366 . S
C3726 C3728 1.388 . S
C3727 C3726 1.366 . S
C3727 C3731 1.385 . S
C3728 H3709 0.951 . S
C3728 C3726 1.388 . S
C3728 C3729 1.366 . S
C3729 C3728 1.366 . S
C3729 C3730 1.414 . S
C3729 C3732 1.499 . S
C3730 H3710 0.950 . S
C3730 C3729 1.414 . S
C3730 C3731 1.374 . S
C3731 H3711 0.950 . S
C3731 C3727 1.385 . S
C3731 C3730 1.374 . S
C3732 C3729 1.499 . S
C3732 C3733 1.373 . S
C3732 C3734 1.389 . S
C3733 H3712 0.950 . S
C3733 C3732 1.373 . S
C3733 C3749 1.377 . S
C3734 C3732 1.389 . S
C3734 C3735 1.524 . S
C3734 C3748 1.377 . S
C3735 C3734 1.524 . S
C3735 C3736 1.397 . S
C3735 C3740 1.363 . S
C3736 H3713 0.950 . S
C3736 C3735 1.397 . S
C3736 C3737 1.334 . S
C3737 H3714 0.950 . S
C3737 C3736 1.334 . S
C3737 C3738 1.287 . S
C3738 C3737 1.287 . S
C3738 C3739 1.524 . S
C3738 H3757 0.913 . S
C3739 H3715 0.950 . S
C3739 C3738 1.524 . S
C3739 C3740 1.415 . S
C3740 H3716 0.950 . S
C3740 C3735 1.363 . S
C3740 C3739 1.415 . S
C3741 H3717 0.951 . S
C3741 C3742 1.366 . S
C3741 C3743 1.388 . S
C3742 C3741 1.366 . S
C3742 C3746 1.385 . S
C3743 H3718 0.951 . S
C3743 C3741 1.388 . S
C3743 C3744 1.366 . S
C3744 C3743 1.366 . S
C3744 C3745 1.414 . S
C3744 C3747 1.499 . S
C3745 H3719 0.950 . S
C3745 C3744 1.414 . S
C3745 C3746 1.374 . S
C3746 H3720 0.950 . S
C3746 C3742 1.385 . S
C3746 C3745 1.374 . S
C3747 C3744 1.499 . S
C3747 C3748 1.373 . S
C3747 C3749 1.389 . S
C3748 H3721 0.950 . S
C3748 C3734 1.377 . S
C3748 C3747 1.373 . S
C3749 C3733 1.377 . S
C3749 C3747 1.389 . S
C3749 C3750 1.524 . S
C3750 C3749 1.524 . S
C3750 C3751 1.397 . S
C3750 C3755 1.363 . S
C3751 H3722 0.950 . S
C3751 C3750 1.397 . S
C3751 C3752 1.334 . S
C3752 H3723 0.950 . S
C3752 C3751 1.334 . S
C3752 C3753 1.287 . S
C3753 C3752 1.287 . S
C3753 C3754 1.524 . S
C3753 H3756 0.999 . S
C3754 H3724 0.950 . S
C3754 C3753 1.524 . S
C3754 C3755 1.415 . S
C3755 H3725 0.950 . S
C3755 C3750 1.363 . S
C3755 C3754 1.415 . S
H3756 C3753 0.999 . S
H3757 C3738 0.913 . S
H3758 C3776 0.951 . S
H3759 C3778 0.951 . S
H3760 C3780 0.950 . S
H3761 C3781 0.950 . S
H3762 C3783 0.950 . S
H3763 C3786 0.950 . S
H3764 C3787 0.950 . S
H3765 C3789 0.950 . S
H3766 C3790 0.950 . S
H3767 C3791 0.951 . S
H3768 C3793 0.951 . S
H3769 C3795 0.950 . S
H3770 C3796 0.950 . S
H3771 C3798 0.950 . S
H3772 C3801 0.950 . S
H3773 C3802 0.950 . S
H3774 C3804 0.950 . S
H3775 C3805 0.950 . S
C3776 H3758 0.951 . S
C3776 C3777 1.366 . S
C3776 C3778 1.388 . S
C3777 C3776 1.366 . S
C3777 C3781 1.385 . S
C3778 H3759 0.951 . S
C3778 C3776 1.388 . S
C3778 C3779 1.366 . S
C3779 C3778 1.366 . S
C3779 C3780 1.414 . S
C3779 C3782 1.499 . S
C3780 H3760 0.950 . S
C3780 C3779 1.414 . S
C3780 C3781 1.374 . S
C3781 H3761 0.950 . S
C3781 C3777 1.385 . S
C3781 C3780 1.374 . S
C3782 C3779 1.499 . S
C3782 C3783 1.373 . S
C3782 C3784 1.389 . S
C3783 H3762 0.950 . S
C3783 C3782 1.373 . S
C3783 C3799 1.377 . S
C3784 C3782 1.389 . S
C3784 C3785 1.524 . S
C3784 C3798 1.377 . S
C3785 C3784 1.524 . S
C3785 C3786 1.397 . S
C3785 C3790 1.363 . S
C3786 H3763 0.950 . S
C3786 C3785 1.397 . S
C3786 C3787 1.334 . S
C3787 H3764 0.950 . S
C3787 C3786 1.334 . S
C3787 C3788 1.287 . S
C3788 C3787 1.287 . S
C3788 C3789 1.524 . S
C3788 H3807 0.913 . S
C3789 H3765 0.950 . S
C3789 C3788 1.524 . S
C3789 C3790 1.415 . S
C3790 H3766 0.950 . S
C3790 C3785 1.363 . S
C3790 C3789 1.415 . S
C3791 H3767 0.951 . S
C3791 C3792 1.366 . S
C3791 C3793 1.388 . S
C3792 C3791 1.366 . S
C3792 C3796 1.385 . S
C3793 H3768 0.951 . S
C3793 C3791 1.388 . S
C3793 C3794 1.366 . S
C3794 C3793 1.366 . S
C3794 C3795 1.414 . S
C3794 C3797 1.499 . S
C3795 H3769 0.950 . S
C3795 C3794 1.414 . S
C3795 C3796 1.374 . S
C3796 H3770 0.950 . S
C3796 C3792 1.385 . S
C3796 C3795 1.374 . S
C3797 C3794 1.499 . S
C3797 C3798 1.373 . S
C3797 C3799 1.389 . S
C3798 H3771 0.950 . S
C3798 C3784 1.377 . S
C3798 C3797 1.373 . S
C3799 C3783 1.377 . S
C3799 C3797 1.389 . S
C3799 C3800 1.524 . S
C3800 C3799 1.524 . S
C3800 C3801 1.397 . S
C3800 C3805 1.363 . S
C3801 H3772 0.950 . S
C3801 C3800 1.397 . S
C3801 C3802 1.334 . S
C3802 H3773 0.950 . S
C3802 C3801 1.334 . S
C3802 C3803 1.287 . S
C3803 C3802 1.287 . S
C3803 C3804 1.524 . S
C3803 H3806 0.999 . S
C3804 H3774 0.950 . S
C3804 C3803 1.524 . S
C3804 C3805 1.415 . S
C3805 H3775 0.950 . S
C3805 C3800 1.363 . S
C3805 C3804 1.415 . S
H3806 C3803 0.999 . S
H3807 C3788 0.913 . S
H3808 C3826 0.951 . S
H3809 C3828 0.951 . S
H3810 C3830 0.950 . S
H3811 C3831 0.950 . S
H3812 C3833 0.950 . S
H3813 C3836 0.950 . S
H3814 C3837 0.950 . S
H3815 C3839 0.950 . S
H3816 C3840 0.950 . S
H3817 C3841 0.951 . S
H3818 C3843 0.951 . S
H3819 C3845 0.950 . S
H3820 C3846 0.950 . S
H3821 C3848 0.950 . S
H3822 C3851 0.950 . S
H3823 C3852 0.950 . S
H3824 C3854 0.950 . S
H3825 C3855 0.950 . S
C3826 H3808 0.951 . S
C3826 C3827 1.366 . S
C3826 C3828 1.388 . S
C3827 C3826 1.366 . S
C3827 C3831 1.385 . S
C3828 H3809 0.951 . S
C3828 C3826 1.388 . S
C3828 C3829 1.366 . S
C3829 C3828 1.366 . S
C3829 C3830 1.414 . S
C3829 C3832 1.499 . S
C3830 H3810 0.950 . S
C3830 C3829 1.414 . S
C3830 C3831 1.374 . S
C3831 H3811 0.950 . S
C3831 C3827 1.385 . S
C3831 C3830 1.374 . S
C3832 C3829 1.499 . S
C3832 C3833 1.373 . S
C3832 C3834 1.389 . S
C3833 H3812 0.950 . S
C3833 C3832 1.373 . S
C3833 C3849 1.377 . S
C3834 C3832 1.389 . S
C3834 C3835 1.524 . S
C3834 C3848 1.377 . S
C3835 C3834 1.524 . S
C3835 C3836 1.397 . S
C3835 C3840 1.363 . S
C3836 H3813 0.950 . S
C3836 C3835 1.397 . S
C3836 C3837 1.334 . S
C3837 H3814 0.950 . S
C3837 C3836 1.334 . S
C3837 C3838 1.287 . S
C3838 C3837 1.287 . S
C3838 C3839 1.524 . S
C3838 H3857 0.913 . S
C3839 H3815 0.950 . S
C3839 C3838 1.524 . S
C3839 C3840 1.415 . S
C3840 H3816 0.950 . S
C3840 C3835 1.363 . S
C3840 C3839 1.415 . S
C3841 H3817 0.951 . S
C3841 C3842 1.366 . S
C3841 C3843 1.388 . S
C3842 C3841 1.366 . S
C3842 C3846 1.385 . S
C3843 H3818 0.951 . S
C3843 C3841 1.388 . S
C3843 C3844 1.366 . S
C3844 C3843 1.366 . S
C3844 C3845 1.414 . S
C3844 C3847 1.499 . S
C3845 H3819 0.950 . S
C3845 C3844 1.414 . S
C3845 C3846 1.374 . S
C3846 H3820 0.950 . S
C3846 C3842 1.385 . S
C3846 C3845 1.374 . S
C3847 C3844 1.499 . S
C3847 C3848 1.373 . S
C3847 C3849 1.389 . S
C3848 H3821 0.950 . S
C3848 C3834 1.377 . S
C3848 C3847 1.373 . S
C3849 C3833 1.377 . S
C3849 C3847 1.389 . S
C3849 C3850 1.524 . S
C3850 C3849 1.524 . S
C3850 C3851 1.397 . S
C3850 C3855 1.363 . S
C3851 H3822 0.950 . S
C3851 C3850 1.397 . S
C3851 C3852 1.334 . S
C3852 H3823 0.950 . S
C3852 C3851 1.334 . S
C3852 C3853 1.287 . S
C3853 C3852 1.287 . S
C3853 C3854 1.524 . S
C3853 H3856 0.999 . S
C3854 H3824 0.950 . S
C3854 C3853 1.524 . S
C3854 C3855 1.415 . S
C3855 H3825 0.950 . S
C3855 C3850 1.363 . S
C3855 C3854 1.415 . S
H3856 C3853 0.999 . S
H3857 C3838 0.913 . S
H3858 C3876 0.951 . S
H3859 C3878 0.951 . S
H3860 C3880 0.950 . S
H3861 C3881 0.950 . S
H3862 C3883 0.950 . S
H3863 C3886 0.950 . S
H3864 C3887 0.950 . S
H3865 C3889 0.950 . S
H3866 C3890 0.950 . S
H3867 C3891 0.951 . S
H3868 C3893 0.951 . S
H3869 C3895 0.950 . S
H3870 C3896 0.950 . S
H3871 C3898 0.950 . S
H3872 C3901 0.950 . S
H3873 C3902 0.950 . S
H3874 C3904 0.950 . S
H3875 C3905 0.950 . S
C3876 H3858 0.951 . S
C3876 C3877 1.366 . S
C3876 C3878 1.388 . S
C3877 C3876 1.366 . S
C3877 C3881 1.385 . S
C3878 H3859 0.951 . S
C3878 C3876 1.388 . S
C3878 C3879 1.366 . S
C3879 C3878 1.366 . S
C3879 C3880 1.414 . S
C3879 C3882 1.499 . S
C3880 H3860 0.950 . S
C3880 C3879 1.414 . S
C3880 C3881 1.374 . S
C3881 H3861 0.950 . S
C3881 C3877 1.385 . S
C3881 C3880 1.374 . S
C3882 C3879 1.499 . S
C3882 C3883 1.373 . S
C3882 C3884 1.389 . S
C3883 H3862 0.950 . S
C3883 C3882 1.373 . S
C3883 C3899 1.377 . S
C3884 C3882 1.389 . S
C3884 C3885 1.524 . S
C3884 C3898 1.377 . S
C3885 C3884 1.524 . S
C3885 C3886 1.397 . S
C3885 C3890 1.363 . S
C3886 H3863 0.950 . S
C3886 C3885 1.397 . S
C3886 C3887 1.334 . S
C3887 H3864 0.950 . S
C3887 C3886 1.334 . S
C3887 C3888 1.287 . S
C3888 C3887 1.287 . S
C3888 C3889 1.524 . S
C3888 H3907 0.913 . S
C3889 H3865 0.950 . S
C3889 C3888 1.524 . S
C3889 C3890 1.415 . S
C3890 H3866 0.950 . S
C3890 C3885 1.363 . S
C3890 C3889 1.415 . S
C3891 H3867 0.951 . S
C3891 C3892 1.366 . S
C3891 C3893 1.388 . S
C3892 C3891 1.366 . S
C3892 C3896 1.385 . S
C3893 H3868 0.951 . S
C3893 C3891 1.388 . S
C3893 C3894 1.366 . S
C3894 C3893 1.366 . S
C3894 C3895 1.414 . S
C3894 C3897 1.499 . S
C3895 H3869 0.950 . S
C3895 C3894 1.414 . S
C3895 C3896 1.374 . S
C3896 H3870 0.950 . S
C3896 C3892 1.385 . S
C3896 C3895 1.374 . S
C3897 C3894 1.499 . S
C3897 C3898 1.373 . S
C3897 C3899 1.389 . S
C3898 H3871 0.950 . S
C3898 C3884 1.377 . S
C3898 C3897 1.373 . S
C3899 C3883 1.377 . S
C3899 C3897 1.389 . S
C3899 C3900 1.524 . S
C3900 C3899 1.524 . S
C3900 C3901 1.397 . S
C3900 C3905 1.363 . S
C3901 H3872 0.950 . S
C3901 C3900 1.397 . S
C3901 C3902 1.334 . S
C3902 H3873 0.950 . S
C3902 C3901 1.334 . S
C3902 C3903 1.287 . S
C3903 C3902 1.287 . S
C3903 C3904 1.524 . S
C3903 H3906 0.999 . S
C3904 H3874 0.950 . S
C3904 C3903 1.524 . S
C3904 C3905 1.415 . S
C3905 H3875 0.950 . S
C3905 C3900 1.363 . S
C3905 C3904 1.415 . S
H3906 C3903 0.999 . S
H3907 C3888 0.913 . S
H3908 C3926 0.951 . S
H3909 C3928 0.951 . S
H3910 C3930 0.950 . S
H3911 C3931 0.950 . S
H3912 C3933 0.950 . S
H3913 C3936 0.950 . S
H3914 C3937 0.950 . S
H3915 C3939 0.950 . S
H3916 C3940 0.950 . S
H3917 C3941 0.951 . S
H3918 C3943 0.951 . S
H3919 C3945 0.950 . S
H3920 C3946 0.950 . S
H3921 C3948 0.950 . S
H3922 C3951 0.950 . S
H3923 C3952 0.950 . S
H3924 C3954 0.950 . S
H3925 C3955 0.950 . S
C3926 H3908 0.951 . S
C3926 C3927 1.366 . S
C3926 C3928 1.388 . S
C3927 C3926 1.366 . S
C3927 C3931 1.385 . S
C3928 H3909 0.951 . S
C3928 C3926 1.388 . S
C3928 C3929 1.366 . S
C3929 C3928 1.366 . S
C3929 C3930 1.414 . S
C3929 C3932 1.499 . S
C3930 H3910 0.950 . S
C3930 C3929 1.414 . S
C3930 C3931 1.374 . S
C3931 H3911 0.950 . S
C3931 C3927 1.385 . S
C3931 C3930 1.374 . S
C3932 C3929 1.499 . S
C3932 C3933 1.373 . S
C3932 C3934 1.389 . S
C3933 H3912 0.950 . S
C3933 C3932 1.373 . S
C3933 C3949 1.377 . S
C3934 C3932 1.389 . S
C3934 C3935 1.524 . S
C3934 C3948 1.377 . S
C3935 C3934 1.524 . S
C3935 C3936 1.397 . S
C3935 C3940 1.363 . S
C3936 H3913 0.950 . S
C3936 C3935 1.397 . S
C3936 C3937 1.334 . S
C3937 H3914 0.950 . S
C3937 C3936 1.334 . S
C3937 C3938 1.287 . S
C3938 C3937 1.287 . S
C3938 C3939 1.524 . S
C3938 H3957 0.913 . S
C3939 H3915 0.950 . S
C3939 C3938 1.524 . S
C3939 C3940 1.415 . S
C3940 H3916 0.950 . S
C3940 C3935 1.363 . S
C3940 C3939 1.415 . S
C3941 H3917 0.951 . S
C3941 C3942 1.366 . S
C3941 C3943 1.388 . S
C3942 C3941 1.366 . S
C3942 C3946 1.385 . S
C3943 H3918 0.951 . S
C3943 C3941 1.388 . S
C3943 C3944 1.366 . S
C3944 C3943 1.366 . S
C3944 C3945 1.414 . S
C3944 C3947 1.499 . S
C3945 H3919 0.950 . S
C3945 C3944 1.414 . S
C3945 C3946 1.374 . S
C3946 H3920 0.950 . S
C3946 C3942 1.385 . S
C3946 C3945 1.374 . S
C3947 C3944 1.499 . S
C3947 C3948 1.373 . S
C3947 C3949 1.389 . S
C3948 H3921 0.950 . S
C3948 C3934 1.377 . S
C3948 C3947 1.373 . S
C3949 C3933 1.377 . S
C3949 C3947 1.389 . S
C3949 C3950 1.524 . S
C3950 C3949 1.524 . S
C3950 C3951 1.397 . S
C3950 C3955 1.363 . S
C3951 H3922 0.950 . S
C3951 C3950 1.397 . S
C3951 C3952 1.334 . S
C3952 H3923 0.950 . S
C3952 C3951 1.334 . S
C3952 C3953 1.287 . S
C3953 C3952 1.287 . S
C3953 C3954 1.524 . S
C3953 H3956 0.999 . S
C3954 H3924 0.950 . S
C3954 C3953 1.524 . S
C3954 C3955 1.415 . S
C3955 H3925 0.950 . S
C3955 C3950 1.363 . S
C3955 C3954 1.415 . S
H3956 C3953 0.999 . S
H3957 C3938 0.913 . S
H3958 C3976 0.951 . S
H3959 C3978 0.951 . S
H3960 C3980 0.950 . S
H3961 C3981 0.950 . S
H3962 C3983 0.950 . S
H3963 C3986 0.950 . S
H3964 C3987 0.950 . S
H3965 C3989 0.950 . S
H3966 C3990 0.950 . S
H3967 C3991 0.951 . S
H3968 C3993 0.951 . S
H3969 C3995 0.950 . S
H3970 C3996 0.950 . S
H3971 C3998 0.950 . S
H3972 C4001 0.950 . S
H3973 C4002 0.950 . S
H3974 C4004 0.950 . S
H3975 C4005 0.950 . S
C3976 H3958 0.951 . S
C3976 C3977 1.366 . S
C3976 C3978 1.388 . S
C3977 C3976 1.366 . S
C3977 C3981 1.385 . S
C3978 H3959 0.951 . S
C3978 C3976 1.388 . S
C3978 C3979 1.366 . S
C3979 C3978 1.366 . S
C3979 C3980 1.414 . S
C3979 C3982 1.499 . S
C3980 H3960 0.950 . S
C3980 C3979 1.414 . S
C3980 C3981 1.374 . S
C3981 H3961 0.950 . S
C3981 C3977 1.385 . S
C3981 C3980 1.374 . S
C3982 C3979 1.499 . S
C3982 C3983 1.373 . S
C3982 C3984 1.389 . S
C3983 H3962 0.950 . S
C3983 C3982 1.373 . S
C3983 C3999 1.377 . S
C3984 C3982 1.389 . S
C3984 C3985 1.524 . S
C3984 C3998 1.377 . S
C3985 C3984 1.524 . S
C3985 C3986 1.397 . S
C3985 C3990 1.363 . S
C3986 H3963 0.950 . S
C3986 C3985 1.397 . S
C3986 C3987 1.334 . S
C3987 H3964 0.950 . S
C3987 C3986 1.334 . S
C3987 C3988 1.287 . S
C3988 C3987 1.287 . S
C3988 C3989 1.524 . S
C3988 H4007 0.913 . S
C3989 H3965 0.950 . S
C3989 C3988 1.524 . S
C3989 C3990 1.415 . S
C3990 H3966 0.950 . S
C3990 C3985 1.363 . S
C3990 C3989 1.415 . S
C3991 H3967 0.951 . S
C3991 C3992 1.366 . S
C3991 C3993 1.388 . S
C3992 C3991 1.366 . S
C3992 C3996 1.385 . S
C3993 H3968 0.951 . S
C3993 C3991 1.388 . S
C3993 C3994 1.366 . S
C3994 C3993 1.366 . S
C3994 C3995 1.414 . S
C3994 C3997 1.499 . S
C3995 H3969 0.950 . S
C3995 C3994 1.414 . S
C3995 C3996 1.374 . S
C3996 H3970 0.950 . S
C3996 C3992 1.385 . S
C3996 C3995 1.374 . S
C3997 C3994 1.499 . S
C3997 C3998 1.373 . S
C3997 C3999 1.389 . S
C3998 H3971 0.950 . S
C3998 C3984 1.377 . S
C3998 C3997 1.373 . S
C3999 C3983 1.377 . S
C3999 C3997 1.389 . S
C3999 C4000 1.524 . S
C4000 C3999 1.524 . S
C4000 C4001 1.397 . S
C4000 C4005 1.363 . S
C4001 H3972 0.950 . S
C4001 C4000 1.397 . S
C4001 C4002 1.334 . S
C4002 H3973 0.950 . S
C4002 C4001 1.334 . S
C4002 C4003 1.287 . S
C4003 C4002 1.287 . S
C4003 C4004 1.524 . S
C4003 H4006 0.999 . S
C4004 H3974 0.950 . S
C4004 C4003 1.524 . S
C4004 C4005 1.415 . S
C4005 H3975 0.950 . S
C4005 C4000 1.363 . S
C4005 C4004 1.415 . S
H4006 C4003 0.999 . S
H4007 C3988 0.913 . S
H4008 C4026 0.951 . S
H4009 C4028 0.951 . S
H4010 C4030 0.950 . S
H4011 C4031 0.950 . S
H4012 C4033 0.950 . S
H4013 C4036 0.950 . S
H4014 C4037 0.950 . S
H4015 C4039 0.950 . S
H4016 C4040 0.950 . S
H4017 C4041 0.951 . S
H4018 C4043 0.951 . S
H4019 C4045 0.950 . S
H4020 C4046 0.950 . S
H4021 C4048 0.950 . S
H4022 C4051 0.950 . S
H4023 C4052 0.950 . S
H4024 C4054 0.950 . S
H4025 C4055 0.950 . S
C4026 H4008 0.951 . S
C4026 C4027 1.366 . S
C4026 C4028 1.388 . S
C4027 C4026 1.366 . S
C4027 C4031 1.385 . S
C4028 H4009 0.951 . S
C4028 C4026 1.388 . S
C4028 C4029 1.366 . S
C4029 C4028 1.366 . S
C4029 C4030 1.414 . S
C4029 C4032 1.499 . S
C4030 H4010 0.950 . S
C4030 C4029 1.414 . S
C4030 C4031 1.374 . S
C4031 H4011 0.950 . S
C4031 C4027 1.385 . S
C4031 C4030 1.374 . S
C4032 C4029 1.499 . S
C4032 C4033 1.373 . S
C4032 C4034 1.389 . S
C4033 H4012 0.950 . S
C4033 C4032 1.373 . S
C4033 C4049 1.377 . S
C4034 C4032 1.389 . S
C4034 C4035 1.524 . S
C4034 C4048 1.377 . S
C4035 C4034 1.524 . S
C4035 C4036 1.397 . S
C4035 C4040 1.363 . S
C4036 H4013 0.950 . S
C4036 C4035 1.397 . S
C4036 C4037 1.334 . S
C4037 H4014 0.950 . S
C4037 C4036 1.334 . S
C4037 C4038 1.287 . S
C4038 C4037 1.287 . S
C4038 C4039 1.524 . S
C4038 H4057 0.913 . S
C4039 H4015 0.950 . S
C4039 C4038 1.524 . S
C4039 C4040 1.415 . S
C4040 H4016 0.950 . S
C4040 C4035 1.363 . S
C4040 C4039 1.415 . S
C4041 H4017 0.951 . S
C4041 C4042 1.366 . S
C4041 C4043 1.388 . S
C4042 C4041 1.366 . S
C4042 C4046 1.385 . S
C4043 H4018 0.951 . S
C4043 C4041 1.388 . S
C4043 C4044 1.366 . S
C4044 C4043 1.366 . S
C4044 C4045 1.414 . S
C4044 C4047 1.499 . S
C4045 H4019 0.950 . S
C4045 C4044 1.414 . S
C4045 C4046 1.374 . S
C4046 H4020 0.950 . S
C4046 C4042 1.385 . S
C4046 C4045 1.374 . S
C4047 C4044 1.499 . S
C4047 C4048 1.373 . S
C4047 C4049 1.389 . S
C4048 H4021 0.950 . S
C4048 C4034 1.377 . S
C4048 C4047 1.373 . S
C4049 C4033 1.377 . S
C4049 C4047 1.389 . S
C4049 C4050 1.524 . S
C4050 C4049 1.524 . S
C4050 C4051 1.397 . S
C4050 C4055 1.363 . S
C4051 H4022 0.950 . S
C4051 C4050 1.397 . S
C4051 C4052 1.334 . S
C4052 H4023 0.950 . S
C4052 C4051 1.334 . S
C4052 C4053 1.287 . S
C4053 C4052 1.287 . S
C4053 C4054 1.524 . S
C4053 H4056 0.999 . S
C4054 H4024 0.950 . S
C4054 C4053 1.524 . S
C4054 C4055 1.415 . S
C4055 H4025 0.950 . S
C4055 C4050 1.363 . S
C4055 C4054 1.415 . S
H4056 C4053 0.999 . S
H4057 C4038 0.913 . S
H4058 C4076 0.951 . S
H4059 C4078 0.951 . S
H4060 C4080 0.950 . S
H4061 C4081 0.950 . S
H4062 C4083 0.950 . S
H4063 C4086 0.950 . S
H4064 C4087 0.950 . S
H4065 C4089 0.950 . S
H4066 C4090 0.950 . S
H4067 C4091 0.951 . S
H4068 C4093 0.951 . S
H4069 C4095 0.950 . S
H4070 C4096 0.950 . S
H4071 C4098 0.950 . S
H4072 C4101 0.950 . S
H4073 C4102 0.950 . S
H4074 C4104 0.950 . S
H4075 C4105 0.950 . S
C4076 H4058 0.951 . S
C4076 C4077 1.366 . S
C4076 C4078 1.388 . S
C4077 C4076 1.366 . S
C4077 C4081 1.385 . S
C4078 H4059 0.951 . S
C4078 C4076 1.388 . S
C4078 C4079 1.366 . S
C4079 C4078 1.366 . S
C4079 C4080 1.414 . S
C4079 C4082 1.499 . S
C4080 H4060 0.950 . S
C4080 C4079 1.414 . S
C4080 C4081 1.374 . S
C4081 H4061 0.950 . S
C4081 C4077 1.385 . S
C4081 C4080 1.374 . S
C4082 C4079 1.499 . S
C4082 C4083 1.373 . S
C4082 C4084 1.389 . S
C4083 H4062 0.950 . S
C4083 C4082 1.373 . S
C4083 C4099 1.377 . S
C4084 C4082 1.389 . S
C4084 C4085 1.524 . S
C4084 C4098 1.377 . S
C4085 C4084 1.524 . S
C4085 C4086 1.397 . S
C4085 C4090 1.363 . S
C4086 H4063 0.950 . S
C4086 C4085 1.397 . S
C4086 C4087 1.334 . S
C4087 H4064 0.950 . S
C4087 C4086 1.334 . S
C4087 C4088 1.287 . S
C4088 C4087 1.287 . S
C4088 C4089 1.524 . S
C4088 H4107 0.913 . S
C4089 H4065 0.950 . S
C4089 C4088 1.524 . S
C4089 C4090 1.415 . S
C4090 H4066 0.950 . S
C4090 C4085 1.363 . S
C4090 C4089 1.415 . S
C4091 H4067 0.951 . S
C4091 C4092 1.366 . S
C4091 C4093 1.388 . S
C4092 C4091 1.366 . S
C4092 C4096 1.385 . S
C4093 H4068 0.951 . S
C4093 C4091 1.388 . S
C4093 C4094 1.366 . S
C4094 C4093 1.366 . S
C4094 C4095 1.414 . S
C4094 C4097 1.499 . S
C4095 H4069 0.950 . S
C4095 C4094 1.414 . S
C4095 C4096 1.374 . S
C4096 H4070 0.950 . S
C4096 C4092 1.385 . S
C4096 C4095 1.374 . S
C4097 C4094 1.499 . S
C4097 C4098 1.373 . S
C4097 C4099 1.389 . S
C4098 H4071 0.950 . S
C4098 C4084 1.377 . S
C4098 C4097 1.373 . S
C4099 C4083 1.377 . S
C4099 C4097 1.389 . S
C4099 C4100 1.524 . S
C4100 C4099 1.524 . S
C4100 C4101 1.397 . S
C4100 C4105 1.363 . S
C4101 H4072 0.950 . S
C4101 C4100 1.397 . S
C4101 C4102 1.334 . S
C4102 H4073 0.950 . S
C4102 C4101 1.334 . S
C4102 C4103 1.287 . S
C4103 C4102 1.287 . S
C4103 C4104 1.524 . S
C4103 H4106 0.999 . S
C4104 H4074 0.950 . S
C4104 C4103 1.524 . S
C4104 C4105 1.415 . S
C4105 H4075 0.950 . S
C4105 C4100 1.363 . S
C4105 C4104 1.415 . S
H4106 C4103 0.999 . S
H4107 C4088 0.913 . S
H4108 C4126 0.951 . S
H4109 C4128 0.951 . S
H4110 C4130 0.950 . S
H4111 C4131 0.950 . S
H4112 C4133 0.950 . S
H4113 C4136 0.950 . S
H4114 C4137 0.950 . S
H4115 C4139 0.950 . S
H4116 C4140 0.950 . S
H4117 C4141 0.951 . S
H4118 C4143 0.951 . S
H4119 C4145 0.950 . S
H4120 C4146 0.950 . S
H4121 C4148 0.950 . S
H4122 C4151 0.950 . S
H4123 C4152 0.950 . S
H4124 C4154 0.950 . S
H4125 C4155 0.950 . S
C4126 H4108 0.951 . S
C4126 C4127 1.366 . S
C4126 C4128 1.388 . S
C4127 C4126 1.366 . S
C4127 C4131 1.385 . S
C4128 H4109 0.951 . S
C4128 C4126 1.388 . S
C4128 C4129 1.366 . S
C4129 C4128 1.366 . S
C4129 C4130 1.414 . S
C4129 C4132 1.499 . S
C4130 H4110 0.950 . S
C4130 C4129 1.414 . S
C4130 C4131 1.374 . S
C4131 H4111 0.950 . S
C4131 C4127 1.385 . S
C4131 C4130 1.374 . S
C4132 C4129 1.499 . S
C4132 C4133 1.373 . S
C4132 C4134 1.389 . S
C4133 H4112 0.950 . S
C4133 C4132 1.373 . S
C4133 C4149 1.377 . S
C4134 C4132 1.389 . S
C4134 C4135 1.524 . S
C4134 C4148 1.377 . S
C4135 C4134 1.524 . S
C4135 C4136 1.397 . S
C4135 C4140 1.363 . S
C4136 H4113 0.950 . S
C4136 C4135 1.397 . S
C4136 C4137 1.334 . S
C4137 H4114 0.950 . S
C4137 C4136 1.334 . S
C4137 C4138 1.287 . S
C4138 C4137 1.287 . S
C4138 C4139 1.524 . S
C4138 H4157 0.913 . S
C4139 H4115 0.950 . S
C4139 C4138 1.524 . S
C4139 C4140 1.415 . S
C4140 H4116 0.950 . S
C4140 C4135 1.363 . S
C4140 C4139 1.415 . S
C4141 H4117 0.951 . S
C4141 C4142 1.366 . S
C4141 C4143 1.388 . S
C4142 C4141 1.366 . S
C4142 C4146 1.385 . S
C4143 H4118 0.951 . S
C4143 C4141 1.388 . S
C4143 C4144 1.366 . S
C4144 C4143 1.366 . S
C4144 C4145 1.414 . S
C4144 C4147 1.499 . S
C4145 H4119 0.950 . S
C4145 C4144 1.414 . S
C4145 C4146 1.374 . S
C4146 H4120 0.950 . S
C4146 C4142 1.385 . S
C4146 C4145 1.374 . S
C4147 C4144 1.499 . S
C4147 C4148 1.373 . S
C4147 C4149 1.389 . S
C4148 H4121 0.950 . S
C4148 C4134 1.377 . S
C4148 C4147 1.373 . S
C4149 C4133 1.377 . S
C4149 C4147 1.389 . S
C4149 C4150 1.524 . S
C4150 C4149 1.524 . S
C4150 C4151 1.397 . S
C4150 C4155 1.363 . S
C4151 H4122 0.950 . S
C4151 C4150 1.397 . S
C4151 C4152 1.334 . S
C4152 H4123 0.950 . S
C4152 C4151 1.334 . S
C4152 C4153 1.287 . S
C4153 C4152 1.287 . S
C4153 C4154 1.524 . S
C4153 H4156 0.999 . S
C4154 H4124 0.950 . S
C4154 C4153 1.524 . S
C4154 C4155 1.415 . S
C4155 H4125 0.950 . S
C4155 C4150 1.363 . S
C4155 C4154 1.415 . S
H4156 C4153 0.999 . S
H4157 C4138 0.913 . S
C1477 C528 1.387 . S
C1492 C758 1.312 . S
C1527 C562 1.469 . S
C1542 C842 1.395 . S
C1577 C484 1.445 . S
C1592 C936 1.406 . S
C1627 C445 1.400 . S
C1642 C852 1.363 . S
C1692 C926 1.324 . S
C1677 C367 1.399 . S
C1727 C411 1.354 . S
C1742 C768 1.316 . S
C1792 C769 1.333 . S
C1777 C450 1.406 . S
C1842 C853 1.377 . S
C1827 C372 1.448 . S
C1877 C406 1.443 . S
C1892 C945 1.405 . S
C1927 C523 1.399 . S
C1942 C861 1.364 . S
C1977 C567 1.378 . S
C1992 C937 1.305 . S
C2042 C777 1.337 . S
C2027 C489 1.371 . S
C2092 C1010 1.313 . S
C2077 C60 1.388 . S
C2127 C94 1.469 . S
C2142 C1094 1.395 . S
C2177 C16 1.444 . S
C2192 C1188 1.406 . S
C2227 C679 1.400 . S
C2242 C1104 1.363 . S
C2277 C601 1.399 . S
C2292 C1178 1.322 . S
C2327 C645 1.353 . S
C2342 C1020 1.315 . S
C2377 C684 1.407 . S
C2392 C1021 1.333 . S
C2427 C606 1.448 . S
C2442 C1105 1.376 . S
C2492 C1197 1.405 . S
C2477 C640 1.443 . S
C2527 C55 1.399 . S
C2542 C1113 1.364 . S
C2592 C1189 1.305 . S
C2577 C99 1.377 . S
C2627 C21 1.371 . S
C2642 C1029 1.336 . S
C2692 C1262 1.313 . S
C2677 C294 1.387 . S
C2727 C328 1.469 . S
C2742 C1346 1.395 . S
C2792 C1440 1.405 . S
C2777 C250 1.444 . S
C2842 C1356 1.365 . S
C2827 C211 1.400 . S
C2892 C1430 1.324 . S
C2877 C133 1.399 . S
C2927 C177 1.353 . S
C2942 C1272 1.316 . S
C2977 C216 1.406 . S
C2992 C1273 1.334 . S
C3027 C138 1.448 . S
C3042 C1357 1.376 . S
C3092 C1449 1.405 . S
C3077 C172 1.443 . S
C3127 C289 1.399 . S
C3142 C1365 1.363 . S
C3177 C333 1.378 . S
C3192 C1441 1.305 . S
C3227 C255 1.371 . S
C3242 C1281 1.337 . S
C3277 C586 1.435 . S
C3292 C765 1.316 . S
C3342 C849 1.338 . S
C3327 C625 1.480 . S
C3377 C664 1.456 . S
C3392 C942 1.323 . S
C3427 C235 1.496 . S
C3442 C858 1.352 . S
C3477 C274 1.440 . S
C3492 C933 1.310 . S
C3542 C774 1.315 . S
C3527 C313 1.434 . S
C3577 C118 1.435 . S
C3592 C1017 1.315 . S
C3627 C157 1.480 . S
C3642 C1101 1.338 . S
C3677 C196 1.456 . S
C3692 C1194 1.323 . S
C3727 C469 1.496 . S
C3742 C1110 1.353 . S
C3792 C1185 1.309 . S
C3777 C508 1.440 . S
C3827 C547 1.434 . S
C3842 C1026 1.315 . S
C3877 C352 1.435 . S
C3892 C1269 1.317 . S
C3927 C391 1.480 . S
C3942 C1353 1.338 . S
C3992 C1446 1.324 . S
C3977 C430 1.456 . S
C4027 C1 1.496 . S
C4042 C1362 1.353 . S
C4077 C40 1.440 . S
C4092 C1437 1.309 . S
C4127 C79 1.435 . S
C4142 C1278 1.315 . S
