# Generated by pormake.
# Topology nom, (4,4)-cn, num edge types: 1
# Building blocks:
#     Node 0, Type 0, BuildingBlock: NAWXER_clean_linker_0, # of connection points: 4
#     Node 1, Type 0, BuildingBlock: NAWXER_clean_linker_0, # of connection points: 4
#     Node 2, Type 0, BuildingBlock: NAWXER_clean_linker_0, # of connection points: 4
#     Node 3, Type 0, BuildingBlock: NAWXER_clean_linker_0, # of connection points: 4
#     Node 4, Type 0, BuildingBlock: NAWXER_clean_linker_0, # of connection points: 4
#     Node 5, Type 0, BuildingBlock: NAWXER_clean_linker_0, # of connection points: 4
#     Node 6, Type 1, BuildingBlock: CEKHIL_clean_sbu_0, # of connection points: 4
#     Node 7, Type 1, BuildingBlock: CEKHIL_clean_sbu_0, # of connection points: 4
#     Node 8, Type 1, BuildingBlock: CEKHIL_clean_sbu_0, # of connection points: 4
#     Node 9, Type 1, BuildingBlock: CEKHIL_clean_sbu_0, # of connection points: 4
#     Node 10, Type 1, BuildingBlock: CEKHIL_clean_sbu_0, # of connection points: 4
#     Node 11, Type 1, BuildingBlock: CEKHIL_clean_sbu_0, # of connection points: 4
#     Edge 12, Type (0, 1), BuildingBlock: XIVTED_clean_linker_0, # of connection points: 2
#     Edge 13, Type (0, 1), BuildingBlock: XIVTED_clean_linker_0, # of connection points: 2
#     Edge 14, Type (0, 1), BuildingBlock: XIVTED_clean_linker_0, # of connection points: 2
#     Edge 15, Type (0, 1), BuildingBlock: XIVTED_clean_linker_0, # of connection points: 2
#     Edge 16, Type (0, 1), BuildingBlock: XIVTED_clean_linker_0, # of connection points: 2
#     Edge 17, Type (0, 1), BuildingBlock: XIVTED_clean_linker_0, # of connection points: 2
#     Edge 18, Type (0, 1), BuildingBlock: XIVTED_clean_linker_0, # of connection points: 2
#     Edge 19, Type (0, 1), BuildingBlock: XIVTED_clean_linker_0, # of connection points: 2
#     Edge 20, Type (0, 1), BuildingBlock: XIVTED_clean_linker_0, # of connection points: 2
#     Edge 21, Type (0, 1), BuildingBlock: XIVTED_clean_linker_0, # of connection points: 2
#     Edge 22, Type (0, 1), BuildingBlock: XIVTED_clean_linker_0, # of connection points: 2
#     Edge 23, Type (0, 1), BuildingBlock: XIVTED_clean_linker_0, # of connection points: 2
#     Edge 24, Type (0, 1), BuildingBlock: XIVTED_clean_linker_0, # of connection points: 2
#     Edge 25, Type (0, 1), BuildingBlock: XIVTED_clean_linker_0, # of connection points: 2
#     Edge 26, Type (0, 1), BuildingBlock: XIVTED_clean_linker_0, # of connection points: 2
#     Edge 27, Type (0, 1), BuildingBlock: XIVTED_clean_linker_0, # of connection points: 2
#     Edge 28, Type (0, 1), BuildingBlock: XIVTED_clean_linker_0, # of connection points: 2
#     Edge 29, Type (0, 1), BuildingBlock: XIVTED_clean_linker_0, # of connection points: 2
#     Edge 30, Type (0, 1), BuildingBlock: XIVTED_clean_linker_0, # of connection points: 2
#     Edge 31, Type (0, 1), BuildingBlock: XIVTED_clean_linker_0, # of connection points: 2
#     Edge 32, Type (0, 1), BuildingBlock: XIVTED_clean_linker_0, # of connection points: 2
#     Edge 33, Type (0, 1), BuildingBlock: XIVTED_clean_linker_0, # of connection points: 2
#     Edge 34, Type (0, 1), BuildingBlock: XIVTED_clean_linker_0, # of connection points: 2
#     Edge 35, Type (0, 1), BuildingBlock: XIVTED_clean_linker_0, # of connection points: 2
# Relax obj value: 0.006
# Max RMSD: 0.109
# Mean RMSD: 0.075
data_MOF--net-nom--node1-CEKHIL_clean_sbu_0--node2-NAWXER_clean_linker_0--edge1-XIVTED_clean_linker_0
_symmetry_space_group_name_H-M    P1
_symmetry_Int_Tables_number       1
_symmetry_cell_setting            triclinic
loop_
_symmetry_equiv_pos_as_xyz
'x, y, z'
_cell_length_a     53.022286
_cell_length_b     52.402336
_cell_length_c     58.004051
_cell_angle_alpha  89.986637
_cell_angle_beta   90.017674
_cell_angle_gamma 121.14535
loop_
_atom_site_label
_atom_site_type_symbol
_atom_site_fract_x
_atom_site_fract_y
_atom_site_fract_z
_atom_type_partial_charge
C0 C 0.90411 0.52152 0.34548 0.0
C1 C 0.88808 0.50123 0.36316 0.0
C2 C 0.93307 0.52941 0.34091 0.0
C3 C 0.94638 0.51657 0.35351 0.0
C4 C 0.9019 0.48962 0.37663 0.0
C5 C 0.93087 0.49727 0.37185 0.0
C6 C 0.97661 0.52386 0.34776 0.0
C7 C 0.92084 0.47417 0.28639 0.0
C8 C 0.93015 0.48889 0.2651 0.0
C9 C 0.93882 0.48577 0.30587 0.0
C10 C 0.96597 0.51291 0.3046 0.0
C11 C 0.95739 0.51568 0.26367 0.0
C12 C 0.97504 0.52765 0.28324 0.0
C13 C 0.98612 0.52504 0.32478 0.0
C14 C 0.11629 0.57183 0.33067 0.0
C15 C 0.12554 0.59517 0.31461 0.0
C16 C 0.08718 0.55646 0.33876 0.0
C17 C 0.06708 0.56443 0.331 0.0
C18 C 0.10535 0.60326 0.30731 0.0
C19 C 0.07645 0.58793 0.31528 0.0
C20 C 0.0358 0.54801 0.33793 0.0
C21 C 0.08903 0.59226 0.40178 0.0
C22 C 0.08451 0.57187 0.41942 0.0
C23 C 0.07007 0.58343 0.38282 0.0
C24 C 0.0464 0.55393 0.38094 0.0
C25 C 0.0606 0.5424 0.41758 0.0
C26 C 0.04163 0.53359 0.39859 0.0
C27 C 0.02607 0.54427 0.36101 0.0
H28 H 0.89419 0.53126 0.33515 0.0
H29 H 0.94497 0.54534 0.32729 0.0
H30 H 0.88999 0.47391 0.39036 0.0
H31 H 0.94087 0.48751 0.38205 0.0
H32 H 0.90012 0.45317 0.28775 0.0
H33 H 0.93171 0.47313 0.32175 0.0
H34 H 0.96502 0.52734 0.24738 0.0
H35 H 0.99596 0.54841 0.28163 0.0
H36 H 0.1313 0.56496 0.3365 0.0
H37 H 0.08023 0.53808 0.35066 0.0
H38 H 0.11187 0.62155 0.29539 0.0
H39 H 0.06132 0.59451 0.30914 0.0
H40 H 0.10732 0.61508 0.40256 0.0
H41 H 0.07382 0.59973 0.36969 0.0
H42 H 0.0562 0.52627 0.43102 0.0
H43 H 0.02329 0.51079 0.3976 0.0
N44 N 0.99682 0.53265 0.36507 0.0
N45 N 0.01542 0.53778 0.32083 0.0
C46 C 0.41141 0.89488 0.49753 0.0
C47 C 0.42208 0.88076 0.51165 0.0
C48 C 0.43002 0.92429 0.49048 0.0
C49 C 0.45967 0.94014 0.4974 0.0
C50 C 0.45185 0.8965 0.51837 0.0
C51 C 0.47044 0.92612 0.51149 0.0
C52 C 0.47863 0.97191 0.4912 0.0
C53 C 0.46462 0.92037 0.42622 0.0
C54 C 0.44854 0.92479 0.40905 0.0
C55 C 0.47512 0.93901 0.44551 0.0
C56 C 0.46951 0.96229 0.44814 0.0
C57 C 0.44348 0.9485 0.41152 0.0
C58 C 0.45399 0.96713 0.4308 0.0
C59 C 0.4807 0.98236 0.46844 0.0
C60 C 0.55876 0.11576 0.47604 0.0
C61 C 0.5411 0.1241 0.46394 0.0
C62 C 0.54755 0.08596 0.48221 0.0
C63 C 0.51847 0.06412 0.47651 0.0
C64 C 0.51199 0.10205 0.45836 0.0
C65 C 0.50091 0.07239 0.46443 0.0
C66 C 0.50606 0.0324 0.48231 0.0
C67 C 0.52404 0.08253 0.54928 0.0
C68 C 0.54388 0.07974 0.56362 0.0
C69 C 0.51129 0.06371 0.53025 0.0
C70 C 0.51845 0.042 0.52505 0.0
C71 C 0.55021 0.05733 0.55874 0.0
C72 C 0.53754 0.03862 0.53971 0.0
C73 C 0.50555 0.02202 0.5049 0.0
H74 H 0.38858 0.88321 0.49206 0.0
H75 H 0.42106 0.93488 0.48003 0.0
H76 H 0.46051 0.88618 0.52946 0.0
H77 H 0.49316 0.93812 0.51723 0.0
H78 H 0.46881 0.90227 0.42491 0.0
H79 H 0.48779 0.93531 0.45829 0.0
H80 H 0.43164 0.95286 0.39841 0.0
H81 H 0.44972 0.98517 0.43228 0.0
H82 H 0.58139 0.13212 0.48032 0.0
H83 H 0.56167 0.07994 0.49115 0.0
H84 H 0.4976 0.10773 0.44944 0.0
H85 H 0.4784 0.05586 0.45988 0.0
H86 H 0.51871 0.09956 0.55251 0.0
H87 H 0.49589 0.06616 0.51961 0.0
H88 H 0.56488 0.05412 0.5697 0.0
H89 H 0.54297 0.02168 0.53627 0.0
N90 N 0.49165 0.99211 0.5085 0.0
N91 N 0.49383 0.01218 0.46495 0.0
C92 C 0.52229 0.43507 0.59462 0.0
C93 C 0.50385 0.42069 0.5756 0.0
C94 C 0.51138 0.44181 0.61416 0.0
C95 C 0.48174 0.43399 0.61517 0.0
C96 C 0.47441 0.41364 0.57646 0.0
C97 C 0.46353 0.42037 0.59599 0.0
C98 C 0.46984 0.4409 0.63578 0.0
C99 C 0.49282 0.37343 0.65813 0.0
C100 C 0.51273 0.38208 0.67659 0.0
C101 C 0.48023 0.39031 0.65227 0.0
C102 C 0.48807 0.41673 0.66428 0.0
C103 C 0.51994 0.40799 0.68902 0.0
C104 C 0.50777 0.42517 0.68289 0.0
C105 C 0.47456 0.4347 0.65858 0.0
C106 C 0.40888 0.47953 0.71556 0.0
C107 C 0.43058 0.49512 0.73236 0.0
C108 C 0.41472 0.46664 0.69675 0.0
C109 C 0.44282 0.47043 0.69395 0.0
C110 C 0.4579 0.49714 0.73042 0.0
C111 C 0.46401 0.485 0.71133 0.0
C112 C 0.45083 0.45967 0.67314 0.0
C113 C 0.4199 0.52069 0.64947 0.0
C114 C 0.39532 0.50664 0.63465 0.0
C115 C 0.43669 0.50768 0.65405 0.0
C116 C 0.42872 0.47987 0.64452 0.0
C117 C 0.38843 0.47953 0.62421 0.0
C118 C 0.40493 0.46632 0.62911 0.0
C119 C 0.44488 0.46461 0.65029 0.0
H120 H 0.54504 0.44073 0.59456 0.0
H121 H 0.52612 0.4531 0.62849 0.0
H122 H 0.45978 0.40311 0.56194 0.0
H123 H 0.44073 0.41458 0.59623 0.0
H124 H 0.48652 0.35326 0.64854 0.0
H125 H 0.46409 0.38242 0.63854 0.0
H126 H 0.53529 0.41516 0.70331 0.0
H127 H 0.51389 0.44519 0.69265 0.0
H128 H 0.38754 0.47748 0.71694 0.0
H129 H 0.39752 0.45438 0.68416 0.0
H130 H 0.4749 0.50908 0.74324 0.0
H131 H 0.48568 0.48781 0.70981 0.0
H132 H 0.4259 0.54146 0.65798 0.0
H133 H 0.45552 0.51906 0.66544 0.0
H134 H 0.37026 0.46843 0.61219 0.0
H135 H 0.39873 0.44515 0.62117 0.0
N136 N 0.45469 0.45505 0.63256 0.0
N137 N 0.46533 0.44484 0.6763 0.0
C138 C 0.90252 0.40309 0.83199 0.0
C139 C 0.89096 0.41579 0.81724 0.0
C140 C 0.93166 0.4198 0.83952 0.0
C141 C 0.94982 0.44954 0.83246 0.0
C142 C 0.90894 0.44574 0.81052 0.0
C143 C 0.93827 0.46239 0.81788 0.0
C144 C 0.98139 0.46621 0.83877 0.0
C145 C 0.93201 0.45768 0.90323 0.0
C146 C 0.93382 0.4399 0.92052 0.0
C147 C 0.95075 0.46665 0.88414 0.0
C148 C 0.97149 0.45775 0.88177 0.0
C149 C 0.95508 0.43161 0.91838 0.0
C150 C 0.97382 0.44058 0.89925 0.0
C151 C 0.99137 0.46716 0.86151 0.0
C152 C 0.12373 0.53881 0.85144 0.0
C153 C 0.13141 0.51934 0.86159 0.0
C154 C 0.09422 0.5295 0.84738 0.0
C155 C 0.07185 0.50047 0.85319 0.0
C156 C 0.10883 0.49067 0.8682 0.0
C157 C 0.07932 0.48139 0.86413 0.0
C158 C 0.04069 0.48954 0.84765 0.0
C159 C 0.09018 0.50763 0.78057 0.0
C160 C 0.08943 0.52971 0.7673 0.0
C161 C 0.07098 0.49443 0.79924 0.0
C162 C 0.05091 0.5033 0.8051 0.0
C163 C 0.06861 0.53775 0.77281 0.0
C164 C 0.04951 0.5246 0.79144 0.0
C165 C 0.03089 0.49036 0.82513 0.0
H166 H 0.8891 0.38009 0.83748 0.0
H167 H 0.94026 0.40917 0.85034 0.0
H168 H 0.90063 0.45594 0.79896 0.0
H169 H 0.95202 0.4852 0.81204 0.0
H170 H 0.91584 0.46437 0.90426 0.0
H171 H 0.94907 0.48067 0.87127 0.0
H172 H 0.95744 0.41838 0.93159 0.0
H173 H 0.98992 0.4338 0.89799 0.0
H174 H 0.14053 0.56128 0.84664 0.0
H175 H 0.0889 0.54486 0.83945 0.0
H176 H 0.11396 0.47507 0.87593 0.0
H177 H 0.06234 0.45896 0.86888 0.0
H178 H 0.10594 0.50095 0.7768 0.0
H179 H 0.07194 0.47744 0.80916 0.0
H180 H 0.06699 0.55419 0.76264 0.0
H181 H 0.0339 0.53144 0.79543 0.0
N182 N 0.00156 0.47843 0.82153 0.0
N183 N 0.02059 0.4782 0.86502 0.0
C184 C 0.50413 0.89951 0.97852 0.0
C185 C 0.48514 0.88717 0.95955 0.0
C186 C 0.51406 0.9287 0.98547 0.0
C187 C 0.5045 0.94584 0.974 0.0
C188 C 0.47627 0.90457 0.94762 0.0
C189 C 0.48589 0.93367 0.95479 0.0
C190 C 0.51536 0.97699 0.98106 0.0
C191 C 0.4642 0.92027 0.04171 0.0
C192 C 0.47941 0.92746 0.06276 0.0
C193 C 0.47645 0.93915 0.02267 0.0
C194 C 0.50466 0.96499 0.02411 0.0
C195 C 0.50723 0.95351 0.06441 0.0
C196 C 0.51981 0.972 0.04525 0.0
C197 C 0.51781 0.98598 0.00438 0.0
C198 C 0.57267 0.11937 0.00014 0.0
C199 C 0.59589 0.12755 0.01586 0.0
C200 C 0.55575 0.08993 0.9923 0.0
C201 C 0.5619 0.06831 -1e-05 0.0
C202 C 0.60189 0.10572 0.02338 0.0
C203 C 0.58492 0.07641 0.01568 0.0
C204 C 0.54432 0.03693 0.99248 0.0
C205 C 0.59251 0.0912 0.92983 0.0
C206 C 0.57369 0.08862 0.91169 0.0
C207 C 0.58171 0.07159 0.94854 0.0
C208 C 0.55178 0.04926 0.94969 0.0
C209 C 0.54378 0.066 0.9128 0.0
C210 C 0.533 0.04643 0.93155 0.0
C211 C 0.54009 0.02796 0.96917 0.0
H212 H 0.51177 0.88677 0.98772 0.0
H213 H 0.52943 0.93793 0.99972 0.0
H214 H 0.4616 0.89554 0.93293 0.0
H215 H 0.47861 0.94662 0.94544 0.0
H216 H 0.44244 0.90053 0.04022 0.0
H217 H 0.46358 0.93376 0.00701 0.0
H218 H 0.51928 0.95951 0.08054 0.0
H219 H 0.5414 0.99191 0.04699 0.0
H220 H 0.56724 0.13556 0.99423 0.0
H221 H 0.53771 0.08398 0.98048 0.0
H222 H 0.61994 0.11129 0.03508 0.0
H223 H 0.59005 0.06005 0.02178 0.0
H224 H 0.61562 0.10844 0.92961 0.0
H225 H 0.59684 0.07374 0.96201 0.0
H226 H 0.52879 0.06304 0.89895 0.0
H227 H 0.50991 0.02909 0.93193 0.0
N228 N 0.52595 0.99831 0.96437 0.0
N229 N 0.53275 0.01563 0.00909 0.0
C230 C 0.52289 0.6322 0.16184 0.0
C231 C 0.49751 0.6193 0.1757 0.0
C232 C 0.53606 0.61594 0.15584 0.0
C233 C 0.52412 0.58651 0.16362 0.0
C234 C 0.48568 0.58989 0.18356 0.0
C235 C 0.49905 0.57374 0.17776 0.0
C236 C 0.53857 0.56957 0.15797 0.0
C237 C 0.49806 0.57554 0.09222 0.0
C238 C 0.51782 0.59118 0.07417 0.0
C239 C 0.50766 0.56807 0.11212 0.0
C240 C 0.53736 0.57649 0.11464 0.0
C241 C 0.54746 0.59922 0.07659 0.0
C242 C 0.55708 0.59182 0.09657 0.0
C243 C 0.54738 0.56759 0.13538 0.0
C244 C 0.59675 0.48761 0.14603 0.0
C245 C 0.62494 0.50521 0.13622 0.0
C246 C 0.57904 0.49965 0.15028 0.0
C247 C 0.58924 0.52955 0.14492 0.0
C248 C 0.6347 0.53496 0.13034 0.0
C249 C 0.61692 0.54693 0.13452 0.0
C250 C 0.5713 0.54297 0.15008 0.0
C251 C 0.59735 0.52017 0.21746 0.0
C252 C 0.57284 0.49939 0.23047 0.0
C253 C 0.59375 0.53491 0.19877 0.0
C254 C 0.56554 0.52891 0.19264 0.0
C255 C 0.54483 0.49432 0.22474 0.0
C256 C 0.54126 0.50899 0.20609 0.0
C257 C 0.56078 0.54319 0.17243 0.0
H258 H 0.5324 0.65478 0.15547 0.0
H259 H 0.55578 0.62648 0.14532 0.0
H260 H 0.46632 0.57953 0.19448 0.0
H261 H 0.48969 0.55119 0.18416 0.0
H262 H 0.47514 0.56914 0.09104 0.0
H263 H 0.49169 0.55531 0.1254 0.0
H264 H 0.56317 0.6108 0.06287 0.0
H265 H 0.57997 0.59811 0.09792 0.0
H266 H 0.58823 0.46444 0.15029 0.0
H267 H 0.55744 0.48565 0.15783 0.0
H268 H 0.65635 0.54924 0.12296 0.0
H269 H 0.6251 0.57003 0.13015 0.0
H270 H 0.61922 0.52457 0.2214 0.0
H271 H 0.61296 0.55081 0.18903 0.0
H272 H 0.52558 0.47896 0.23469 0.0
H273 H 0.51936 0.50433 0.20189 0.0
N274 N 0.54502 0.55672 0.17553 0.0
N275 N 0.56401 0.55495 0.13238 0.0
Co276 Co 0.62549 0.3799 0.40142 0.0
O277 O 0.65688 0.38529 0.38161 0.0
O278 O 0.66032 0.41847 0.40709 0.0
C279 C 0.61206 0.33352 0.41294 0.0
O280 O 0.59837 0.38162 0.42553 0.0
Co281 Co 0.56079 0.33055 0.39163 0.0
O282 O 0.55369 0.33993 0.42319 0.0
C283 C 0.58948 0.38479 0.36276 0.0
C284 C 0.67298 0.41098 0.39153 0.0
C285 C 0.57218 0.36405 0.43336 0.0
O286 O 0.6115 0.39699 0.37676 0.0
O287 O 0.56827 0.35771 0.36476 0.0
O288 O 0.63395 0.35658 0.42285 0.0
O289 O 0.60071 0.33913 0.39538 0.0
Co290 Co 0.2586 0.6312 0.59117 0.0
O291 O 0.28755 0.63095 0.61087 0.0
O292 O 0.25575 0.59282 0.58941 0.0
C293 C 0.28967 0.67581 0.57503 0.0
O294 O 0.22677 0.62415 0.56771 0.0
Co295 Co 0.24235 0.67988 0.59713 0.0
O296 O 0.22318 0.66507 0.56676 0.0
C297 C 0.2203 0.63046 0.63059 0.0
C298 C 0.27795 0.60405 0.60363 0.0
C299 C 0.21701 0.63988 0.55864 0.0
O300 O 0.22951 0.61702 0.61758 0.0
O301 O 0.22541 0.65671 0.62633 0.0
O302 O 0.2885 0.65192 0.56741 0.0
O303 O 0.2741 0.67233 0.59317 0.0
Co304 Co 0.64411 0.25774 0.73553 0.0
O305 O 0.64176 0.28399 0.71356 0.0
O306 O 0.60601 0.25406 0.73753 0.0
C307 C 0.68891 0.29129 0.74958 0.0
O308 O 0.63869 0.22867 0.76123 0.0
Co309 Co 0.69234 0.24113 0.732 0.0
O310 O 0.67869 0.22441 0.76328 0.0
C311 C 0.6424 0.21494 0.69933 0.0
C312 C 0.6154 0.27425 0.72145 0.0
C313 C 0.65411 0.21932 0.77126 0.0
O314 O 0.62926 0.2253 0.71139 0.0
O315 O 0.66857 0.22087 0.70371 0.0
O316 O 0.66559 0.2909 0.75701 0.0
O317 O 0.6847 0.27344 0.73271 0.0
Co318 Co 0.39399 0.62945 0.89954 0.0
O319 O 0.36324 0.62643 0.88021 0.0
O320 O 0.35755 0.59217 0.90551 0.0
C321 C 0.41084 0.67656 0.9111 0.0
O322 O 0.42061 0.62587 0.92307 0.0
Co323 Co 0.45908 0.67511 0.88758 0.0
O324 O 0.46662 0.6652 0.9189 0.0
C325 C 0.42574 0.621 0.85948 0.0
C326 C 0.34588 0.60102 0.89007 0.0
C327 C 0.44753 0.64214 0.92989 0.0
O328 O 0.40521 0.61015 0.87476 0.0
O329 O 0.44782 0.64775 0.86022 0.0
O330 O 0.38835 0.65438 0.92124 0.0
O331 O 0.42064 0.66983 0.89312 0.0
Co332 Co 0.75984 0.37989 0.09111 0.0
O333 O 0.73239 0.38252 0.1111 0.0
O334 O 0.76313 0.41818 0.08728 0.0
C335 C 0.72762 0.33405 0.07756 0.0
O336 O 0.79021 0.38471 0.0671 0.0
Co337 Co 0.77648 0.33186 0.09848 0.0
O338 O 0.793 0.34337 0.067 0.0
C339 C 0.80249 0.38487 0.12862 0.0
C340 C 0.74213 0.40885 0.10248 0.0
C341 C 0.79905 0.36817 0.05815 0.0
O342 O 0.79035 0.39618 0.11644 0.0
O343 O 0.79852 0.35895 0.12497 0.0
O344 O 0.72868 0.35734 0.06868 0.0
O345 O 0.7442 0.33892 0.09535 0.0
Co346 Co 0.37372 0.75189 0.23496 0.0
O347 O 0.37362 0.72321 0.21431 0.0
O348 O 0.41121 0.75399 0.23652 0.0
C349 C 0.32918 0.72049 0.25037 0.0
O350 O 0.38136 0.7832 0.25936 0.0
Co351 Co 0.3275 0.77087 0.23072 0.0
O352 O 0.34151 0.78761 0.2619 0.0
C353 C 0.37756 0.79559 0.19832 0.0
C354 C 0.40015 0.73243 0.2215 0.0
C355 C 0.36633 0.79293 0.26948 0.0
O356 O 0.38875 0.78253 0.20945 0.0
O357 O 0.35268 0.79262 0.20337 0.0
O358 O 0.3524 0.72082 0.25795 0.0
O359 O 0.33323 0.73728 0.23273 0.0
H360 H 0.14198 0.61253 0.27005 0.0
H361 H 0.31503 0.6885 0.29063 0.0
H362 H 0.17812 0.6136 0.337 0.0
H363 H 0.27652 0.70937 0.23355 0.0
H364 H 0.26547 0.65606 0.30661 0.0
H365 H 0.19172 0.6424 0.25482 0.0
C366 C 0.16041 0.61913 0.2816 0.0
C367 C 0.15584 0.611 0.30497 0.0
C368 C 0.26798 0.66782 0.29062 0.0
C369 C 0.21304 0.64495 0.28747 0.0
C370 C 0.29617 0.68628 0.2815 0.0
C371 C 0.29981 0.70161 0.26075 0.0
C372 C 0.24338 0.66445 0.27871 0.0
C373 C 0.27472 0.69801 0.24961 0.0
C374 C 0.18882 0.63613 0.27286 0.0
C375 C 0.18062 0.61939 0.31889 0.0
N376 N 0.24758 0.6797 0.25867 0.0
N377 N 0.20824 0.63607 0.30995 0.0
H378 H 0.57738 0.17547 0.48826 0.0
H379 H 0.56949 0.28176 0.39322 0.0
H380 H 0.53168 0.14437 0.42327 0.0
H381 H 0.62971 0.31545 0.45079 0.0
H382 H 0.55268 0.23099 0.40579 0.0
H383 H 0.59495 0.22682 0.47627 0.0
C384 C 0.57119 0.17941 0.47143 0.0
C385 C 0.55285 0.1555 0.45682 0.0
C386 C 0.56958 0.24946 0.41569 0.0
C387 C 0.5725 0.21411 0.44318 0.0
C388 C 0.57911 0.27846 0.40856 0.0
C389 C 0.60107 0.30282 0.42095 0.0
C390 C 0.58197 0.24474 0.43545 0.0
C391 C 0.61277 0.29725 0.44071 0.0
C392 C 0.5811 0.20871 0.46466 0.0
C393 C 0.54527 0.16198 0.43532 0.0
N394 N 0.60305 0.26875 0.44738 0.0
N395 N 0.55503 0.1906 0.42921 0.0
H396 H 0.33524 0.47789 0.62775 0.0
H397 H 0.32994 0.62689 0.62661 0.0
H398 H 0.41296 0.56605 0.63156 0.0
H399 H 0.26172 0.54581 0.59483 0.0
H400 H 0.35776 0.60266 0.63451 0.0
H401 H 0.30556 0.50048 0.62065 0.0
C402 C 0.3462 0.50195 0.62694 0.0
C403 C 0.37684 0.52002 0.63026 0.0
C404 C 0.33667 0.59012 0.62587 0.0
C405 C 0.34264 0.54591 0.62278 0.0
C406 C 0.32065 0.60386 0.62145 0.0
C407 C 0.29346 0.58836 0.60996 0.0
C408 C 0.32536 0.56049 0.619 0.0
C409 C 0.28262 0.55858 0.60367 0.0
C410 C 0.32912 0.51478 0.62303 0.0
C411 C 0.38946 0.5511 0.62955 0.0
N412 N 0.29861 0.54555 0.60831 0.0
N413 N 0.37231 0.56301 0.626 0.0
H414 H 0.86627 0.36043 0.79828 0.0
H415 H 0.70652 0.33721 0.78029 0.0
H416 H 0.84722 0.42901 0.81477 0.0
H417 H 0.7378 0.28754 0.74322 0.0
H418 H 0.75569 0.36795 0.79738 0.0
H419 H 0.81667 0.32993 0.78245 0.0
C420 C 0.85152 0.36895 0.79869 0.0
C421 C 0.86077 0.39721 0.80788 0.0
C422 C 0.75171 0.35032 0.78548 0.0
C423 C 0.80403 0.36249 0.78976 0.0
C424 C 0.72369 0.33273 0.77581 0.0
C425 C 0.71814 0.30984 0.76032 0.0
C426 C 0.77408 0.34459 0.77985 0.0
C427 C 0.74114 0.30499 0.75504 0.0
C428 C 0.82331 0.35164 0.78953 0.0
C429 C 0.84093 0.40738 0.80771 0.0
N430 N 0.76805 0.32213 0.76487 0.0
N431 N 0.81337 0.38994 0.79888 0.0
H432 H 0.48435 0.86687 0.91595 0.0
H433 H 0.40075 0.69551 0.95193 0.0
H434 H 0.46256 0.83734 0.98646 0.0
H435 H 0.44917 0.72793 0.88823 0.0
H436 H 0.4196 0.747 0.96399 0.0
H437 H 0.46747 0.81551 0.90431 0.0
C438 C 0.47589 0.84951 0.92894 0.0
C439 C 0.47482 0.85625 0.95218 0.0
C440 C 0.42623 0.74285 0.94743 0.0
C441 C 0.45555 0.79768 0.93905 0.0
C442 C 0.41545 0.71349 0.94052 0.0
C443 C 0.42341 0.70752 0.91904 0.0
C444 C 0.44474 0.76636 0.9326 0.0
C445 C 0.44255 0.73162 0.90495 0.0
C446 C 0.46649 0.82031 0.92233 0.0
C447 C 0.46396 0.83306 0.96839 0.0
N448 N 0.4524 0.76003 0.9119 0.0
N449 N 0.45457 0.80475 0.9615 0.0
H450 H 0.63205 0.46705 0.16405 0.0
H451 H 0.74895 0.45907 0.0816 0.0
H452 H 0.66189 0.51488 0.09962 0.0
H453 H 0.70389 0.39804 0.13771 0.0
H454 H 0.72226 0.48455 0.09064 0.0
H455 H 0.6628 0.44578 0.15701 0.0
C456 C 0.64493 0.47298 0.14835 0.0
C457 C 0.64413 0.49264 0.13232 0.0
C458 C 0.71837 0.46568 0.10103 0.0
C459 C 0.6799 0.46871 0.12436 0.0
C460 C 0.73369 0.45124 0.09595 0.0
C461 C 0.7285 0.42632 0.10885 0.0
C462 C 0.69792 0.45522 0.11923 0.0
C463 C 0.70844 0.41706 0.12722 0.0
C464 C 0.66266 0.46097 0.14443 0.0
C465 C 0.66195 0.50005 0.11257 0.0
N466 N 0.69385 0.43145 0.13182 0.0
N467 N 0.67904 0.48803 0.10913 0.0
H468 H 0.36768 0.85873 0.53068 0.0
H469 H 0.3331 0.69189 0.54294 0.0
H470 H 0.4304 0.83332 0.51185 0.0
H471 H 0.28827 0.72648 0.58236 0.0
H472 H 0.36513 0.74164 0.52648 0.0
H473 H 0.33436 0.80816 0.54488 0.0
C474 C 0.37433 0.8424 0.52942 0.0
C475 C 0.40179 0.85012 0.52009 0.0
C476 C 0.34823 0.73826 0.5387 0.0
C477 C 0.36385 0.79234 0.53628 0.0
C478 C 0.32989 0.70991 0.548 0.0
C479 C 0.30811 0.70517 0.56407 0.0
C480 C 0.34444 0.76183 0.54531 0.0
C481 C 0.30489 0.72924 0.5701 0.0
C482 C 0.3554 0.81364 0.53763 0.0
C483 C 0.40949 0.82825 0.51909 0.0
N484 N 0.32283 0.75654 0.56067 0.0
N485 N 0.39054 0.80025 0.52702 0.0
H486 H 0.51562 0.36171 0.7193 0.0
H487 H 0.6227 0.30556 0.6819 0.0
H488 H 0.5397 0.36166 0.6483 0.0
H489 H 0.56844 0.27231 0.74281 0.0
H490 H 0.59581 0.32989 0.67024 0.0
H491 H 0.53848 0.3328 0.72955 0.0
C492 C 0.52576 0.3556 0.7059 0.0
C493 C 0.52587 0.36407 0.68294 0.0
C494 C 0.58964 0.31705 0.68605 0.0
C495 C 0.55211 0.33128 0.69452 0.0
C496 C 0.60499 0.30323 0.69274 0.0
C497 C 0.59777 0.28694 0.71336 0.0
C498 C 0.56732 0.31507 0.70033 0.0
C499 C 0.57462 0.28458 0.72674 0.0
C500 C 0.53859 0.33897 0.71172 0.0
C501 C 0.53905 0.3554 0.66618 0.0
N502 N 0.56042 0.29881 0.72013 0.0
N503 N 0.55191 0.33971 0.67233 0.0
H504 H 0.17726 0.55144 0.83186 0.0
H505 H 0.30042 0.55522 0.91441 0.0
H506 H 0.15727 0.50835 0.8984 0.0
H507 H 0.31905 0.60927 0.85341 0.0
H508 H 0.24746 0.53236 0.90668 0.0
H509 H 0.22901 0.56793 0.8376 0.0
C510 C 0.18377 0.54557 0.84776 0.0
C511 C 0.16288 0.52877 0.86479 0.0
C512 C 0.26321 0.54907 0.89493 0.0
C513 C 0.22225 0.54724 0.87134 0.0
C514 C 0.29338 0.56197 0.89926 0.0
C515 C 0.3141 0.5843 0.88462 0.0
C516 C 0.25387 0.55848 0.87575 0.0
C517 C 0.30384 0.59232 0.86527 0.0
C518 C 0.21333 0.55483 0.85096 0.0
C519 C 0.17257 0.52116 0.88476 0.0
N520 N 0.2745 0.57952 0.86146 0.0
N521 N 0.20159 0.53057 0.88754 0.0
H522 H 0.61569 0.18015 0.9922 0.0
H523 H 0.71635 0.2814 0.09612 0.0
H524 H 0.61709 0.14579 0.05957 0.0
H525 H 0.69539 0.31802 0.03762 0.0
H526 H 0.68349 0.23136 0.08101 0.0
H527 H 0.64745 0.23089 0.00691 0.0
C528 C 0.62243 0.18323 0.0101 0.0
C529 C 0.61388 0.15859 0.0246 0.0
C530 C 0.68602 0.25032 0.07147 0.0
C531 C 0.6506 0.21648 0.04136 0.0
C532 C 0.70488 0.2789 0.08004 0.0
C533 C 0.70851 0.30384 0.06812 0.0
C534 C 0.67087 0.24665 0.05071 0.0
C535 C 0.69311 0.29932 0.04738 0.0
C536 C 0.64069 0.21218 0.01843 0.0
C537 C 0.62363 0.164 0.04759 0.0
N538 N 0.67498 0.27122 0.03927 0.0
N539 N 0.64157 0.19229 0.05519 0.0
H540 H 0.439 0.6007 0.17417 0.0
H541 H 0.45746 0.74857 0.23044 0.0
H542 H 0.52394 0.67684 0.19137 0.0
H543 H 0.37885 0.68252 0.19508 0.0
H544 H 0.48197 0.72169 0.21876 0.0
H545 H 0.41595 0.62916 0.18468 0.0
C546 C 0.45276 0.6234 0.18025 0.0
C547 C 0.48339 0.63645 0.18192 0.0
C548 C 0.45941 0.71324 0.21348 0.0
C549 C 0.45724 0.6692 0.19394 0.0
C550 C 0.44543 0.72853 0.22014 0.0
C551 C 0.41608 0.71774 0.21374 0.0
C552 C 0.44376 0.68683 0.20057 0.0
C553 C 0.4015 0.69168 0.2004 0.0
C554 C 0.43965 0.6397 0.1861 0.0
C555 C 0.50026 0.66606 0.18965 0.0
N556 N 0.41542 0.67703 0.1944 0.0
N557 N 0.48694 0.68141 0.1955 0.0
H558 H 0.84511 0.48289 0.33059 0.0
H559 H 0.71688 0.45376 0.41862 0.0
H560 H 0.85971 0.49696 0.40385 0.0
H561 H 0.7012 0.40948 0.3529 0.0
H562 H 0.77017 0.47909 0.4114 0.0
H563 H 0.79292 0.46501 0.33665 0.0
C564 C 0.83733 0.48247 0.34794 0.0
C565 C 0.85667 0.49132 0.36677 0.0
C566 C 0.75497 0.46403 0.39852 0.0
C567 C 0.79707 0.47095 0.37381 0.0
C568 C 0.72464 0.44978 0.40254 0.0
C569 C 0.70471 0.42943 0.38637 0.0
C570 C 0.76524 0.45818 0.37805 0.0
C571 C 0.71586 0.42486 0.36588 0.0
C572 C 0.80757 0.47215 0.35139 0.0
C573 C 0.84541 0.49005 0.38892 0.0
N574 N 0.74538 0.4391 0.36231 0.0
N575 N 0.81629 0.48006 0.39185 0.0
H576 H 0.10708 0.62425 0.44328 0.0
H577 H 0.19609 0.58656 0.53539 0.0
H578 H 0.10666 0.54166 0.44249 0.0
H579 H 0.19343 0.66758 0.53477 0.0
H580 H 0.16385 0.56932 0.50139 0.0
H581 H 0.13945 0.64024 0.47672 0.0
C582 C 0.11397 0.60953 0.45003 0.0
C583 C 0.10421 0.58161 0.43993 0.0
C584 C 0.17037 0.59085 0.50876 0.0
C585 C 0.14116 0.59969 0.47864 0.0
C586 C 0.18878 0.60072 0.52817 0.0
C587 C 0.19753 0.62857 0.53807 0.0
C588 C 0.16071 0.609 0.4992 0.0
C589 C 0.18734 0.64593 0.52789 0.0
C590 C 0.13235 0.61861 0.46928 0.0
C591 C 0.11343 0.56327 0.44982 0.0
N592 N 0.16956 0.63587 0.50911 0.0
N593 N 0.13144 0.57264 0.46861 0.0
H594 H 0.60114 0.10538 0.57781 0.0
H595 H 0.58578 0.19432 0.68392 0.0
H596 H 0.51974 0.1012 0.59446 0.0
H597 H 0.66361 0.19048 0.66911 0.0
H598 H 0.56132 0.16179 0.65071 0.0
H599 H 0.62451 0.13813 0.61071 0.0
C600 C 0.58809 0.11119 0.58848 0.0
C601 C 0.55834 0.10029 0.58342 0.0
C602 C 0.58374 0.16811 0.6548 0.0
C603 C 0.58518 0.1383 0.62113 0.0
C604 C 0.59774 0.18668 0.67375 0.0
C605 C 0.62684 0.19519 0.67942 0.0
C606 C 0.59899 0.15807 0.64138 0.0
C607 C 0.64119 0.18458 0.66554 0.0
C608 C 0.60152 0.13008 0.60723 0.0
C609 C 0.54278 0.10924 0.5976 0.0
N610 N 0.62715 0.16666 0.64724 0.0
N611 N 0.55637 0.12768 0.61585 0.0
H612 H 0.42824 0.48425 0.77854 0.0
H613 H 0.44712 0.63762 0.81577 0.0
H614 H 0.42279 0.54224 0.72874 0.0
H615 H 0.4007 0.56036 0.85967 0.0
H616 H 0.44511 0.60527 0.78442 0.0
H617 H 0.42431 0.51386 0.80974 0.0
C618 C 0.42592 0.50306 0.77427 0.0
C619 C 0.42562 0.51087 0.75122 0.0
C620 C 0.43525 0.59545 0.8009 0.0
C621 C 0.42197 0.54502 0.78645 0.0
C622 C 0.43654 0.61385 0.8188 0.0
C623 C 0.42408 0.60161 0.84033 0.0
C624 C 0.4221 0.56471 0.80474 0.0
C625 C 0.41046 0.57065 0.84329 0.0
C626 C 0.42365 0.51985 0.79197 0.0
C627 C 0.42283 0.5355 0.74639 0.0
N628 N 0.41015 0.55325 0.82576 0.0
N629 N 0.42151 0.55201 0.76389 0.0
H630 H 0.91493 0.47165 0.94534 0.0
H631 H 0.81834 0.33761 0.03272 0.0
H632 H 0.90614 0.38514 0.94148 0.0
H633 H 0.82267 0.42216 0.0357 0.0
H634 H 0.85036 0.35499 0.99914 0.0
H635 H 0.88109 0.45426 0.97817 0.0
C636 C 0.90579 0.44896 0.9513 0.0
C637 C 0.91348 0.42985 0.94062 0.0
C638 C 0.84431 0.36978 0.00707 0.0
C639 C 0.87492 0.4099 0.97835 0.0
C640 C 0.82598 0.35987 0.02633 0.0
C641 C 0.81781 0.37848 0.03721 0.0
C642 C 0.85476 0.39861 0.99851 0.0
C643 C 0.82838 0.40703 0.02793 0.0
C644 C 0.88657 0.43909 0.97012 0.0
C645 C 0.90124 0.40082 0.94934 0.0
N646 N 0.84639 0.41626 0.00916 0.0
N647 N 0.88262 0.39177 0.96766 0.0
H648 H 0.46768 0.94379 0.10399 0.0
H649 H 0.41522 0.79083 0.16872 0.0
H650 H 0.46026 0.86831 0.06788 0.0
H651 H 0.37769 0.84504 0.1836 0.0
H652 H 0.44121 0.8232 0.13558 0.0
H653 H 0.44386 0.91182 0.13768 0.0
C654 C 0.46117 0.9205 0.10329 0.0
C655 C 0.46576 0.9085 0.08326 0.0
C656 C 0.42729 0.82791 0.14619 0.0
C657 C 0.43908 0.87216 0.12158 0.0
C658 C 0.41263 0.80963 0.1651 0.0
C659 C 0.39421 0.81524 0.17881 0.0
C660 C 0.42406 0.85233 0.14142 0.0
C661 C 0.39149 0.83981 0.17334 0.0
C662 C 0.44754 0.90233 0.12239 0.0
C663 C 0.45688 0.87822 0.08305 0.0
N664 N 0.40644 0.8576 0.15517 0.0
N665 N 0.44411 0.86104 0.10203 0.0
H666 H 0.53692 0.44038 0.24101 0.0
H667 H 0.62911 0.44352 0.3516 0.0
H668 H 0.61636 0.51977 0.26355 0.0
H669 H 0.54708 0.36669 0.32943 0.0
H670 H 0.62605 0.47183 0.3192 0.0
H671 H 0.54152 0.41304 0.27304 0.0
C672 C 0.55527 0.45214 0.25279 0.0
C673 C 0.57614 0.48252 0.24966 0.0
C674 C 0.60876 0.44877 0.32148 0.0
C675 C 0.58178 0.45112 0.2864 0.0
C676 C 0.61047 0.43258 0.33999 0.0
C677 C 0.58829 0.40262 0.34335 0.0
C678 C 0.58475 0.4349 0.30622 0.0
C679 C 0.56471 0.38968 0.32766 0.0
C680 C 0.55798 0.43644 0.27105 0.0
C681 C 0.59985 0.49634 0.26521 0.0
N682 N 0.5636 0.40586 0.30985 0.0
N683 N 0.60198 0.48056 0.28296 0.0
H684 H 0.47572 0.90159 0.38348 0.0
H685 H 0.34017 0.81582 0.29617 0.0
H686 H 0.39471 0.90205 0.38829 0.0
H687 H 0.41986 0.81282 0.29079 0.0
H688 H 0.36009 0.84712 0.33017 0.0
H689 H 0.45585 0.86866 0.34993 0.0
C690 C 0.4537 0.89465 0.37757 0.0
C691 C 0.43689 0.9047 0.38871 0.0
C692 C 0.37327 0.83964 0.3216 0.0
C693 C 0.41415 0.86723 0.3502 0.0
C694 C 0.3619 0.82171 0.3021 0.0
C695 C 0.37836 0.81165 0.29045 0.0
C696 C 0.40141 0.84774 0.32966 0.0
C697 C 0.40636 0.82004 0.29915 0.0
C698 C 0.44244 0.87598 0.35835 0.0
C699 C 0.40866 0.89528 0.38008 0.0
N700 N 0.41703 0.83765 0.31821 0.0
N701 N 0.39822 0.87712 0.36138 0.0
H702 H 0.55766 0.45384 0.55418 0.0
H703 H 0.51955 0.33174 0.45598 0.0
H704 H 0.47573 0.36936 0.55012 0.0
H705 H 0.60299 0.41488 0.45972 0.0
H706 H 0.50369 0.34542 0.49073 0.0
H707 H 0.57524 0.44012 0.52008 0.0
C708 C 0.54342 0.43235 0.54621 0.0
C709 C 0.5151 0.41277 0.55501 0.0
C710 C 0.52549 0.36071 0.484 0.0
C711 C 0.535 0.39706 0.51585 0.0
C712 C 0.53461 0.35292 0.46408 0.0
C713 C 0.56268 0.37221 0.45477 0.0
C714 C 0.54448 0.38807 0.49483 0.0
C715 C 0.58115 0.3993 0.46621 0.0
C716 C 0.55343 0.42461 0.52667 0.0
C717 C 0.49751 0.38538 0.54376 0.0
N718 N 0.5717 0.40645 0.48561 0.0
N719 N 0.50774 0.37838 0.52481 0.0
H720 H 0.11885 0.58887 0.75596 0.0
H721 H 0.19871 0.5724 0.64456 0.0
H722 H 0.10808 0.50488 0.73463 0.0
H723 H 0.20121 0.65324 0.66408 0.0
H724 H 0.16814 0.54759 0.67849 0.0
H725 H 0.15166 0.61311 0.72339 0.0
C726 C 0.12327 0.57546 0.74435 0.0
C727 C 0.1104 0.5447 0.74794 0.0
C728 C 0.17547 0.57077 0.67531 0.0
C729 C 0.14841 0.5725 0.71057 0.0
C730 C 0.19295 0.58498 0.65596 0.0
C731 C 0.2025 0.61497 0.65132 0.0
C732 C 0.16759 0.58671 0.69017 0.0
C733 C 0.19432 0.63009 0.66677 0.0
C734 C 0.14218 0.58937 0.72578 0.0
C735 C 0.1176 0.52866 0.7326 0.0
N736 N 0.17738 0.6158 0.68541 0.0
N737 N 0.13603 0.54273 0.71451 0.0
H738 H 0.54783 0.11458 0.88784 0.0
H739 H 0.68065 0.19645 0.79763 0.0
H740 H 0.62617 0.10887 0.88923 0.0
H741 H 0.60155 0.20071 0.79367 0.0
H742 H 0.66137 0.16569 0.83201 0.0
H743 H 0.56728 0.14708 0.85403 0.0
C744 C 0.56907 0.12007 0.88101 0.0
C745 C 0.58537 0.10893 0.89144 0.0
C746 C 0.64819 0.17335 0.82367 0.0
C747 C 0.60788 0.14636 0.85285 0.0
C748 C 0.65921 0.19098 0.80397 0.0
C749 C 0.64269 0.20119 0.79259 0.0
C750 C 0.62038 0.16572 0.8322 0.0
C751 C 0.61507 0.19335 0.8018 0.0
C752 C 0.58022 0.13876 0.86178 0.0
C753 C 0.61297 0.11721 0.88202 0.0
N754 N 0.60476 0.17603 0.82103 0.0
N755 N 0.62328 0.13533 0.86329 0.0
H756 H 0.54646 0.64278 0.0488 0.0
H757 H 0.4158 0.59245 0.95724 0.0
H758 H 0.46552 0.55719 0.05093 0.0
H759 H 0.50107 0.67317 0.95151 0.0
H760 H 0.43254 0.57984 0.99242 0.0
H761 H 0.52924 0.65488 0.01381 0.0
C762 C 0.52514 0.62643 0.04185 0.0
C763 C 0.50748 0.59888 0.05287 0.0
C764 C 0.44755 0.60028 0.98342 0.0
C765 C 0.48737 0.61279 0.01285 0.0
C766 C 0.43801 0.60753 0.96333 0.0
C767 C 0.45704 0.6339 0.95128 0.0
C768 C 0.47629 0.6196 0.9916 0.0
C769 C 0.48559 0.65255 0.96008 0.0
C770 C 0.51522 0.63343 0.02191 0.0
C771 C 0.47976 0.57885 0.04324 0.0
N772 N 0.49428 0.64505 0.97967 0.0
N773 N 0.47058 0.5862 0.0238 0.0
H774 H 0.94682 0.47484 0.22505 0.0
H775 H 0.79908 0.42564 0.15596 0.0
H776 H 0.87278 0.47269 0.25782 0.0
H777 H 0.85022 0.38404 0.145 0.0
H778 H 0.83074 0.45272 0.18906 0.0
H779 H 0.91626 0.45106 0.19084 0.0
C780 C 0.92418 0.46955 0.2249 0.0
C781 C 0.91215 0.47557 0.24417 0.0
C782 C 0.83497 0.4377 0.17929 0.0
C783 C 0.87741 0.44888 0.20523 0.0
C784 C 0.8171 0.42242 0.1604 0.0
C785 C 0.82201 0.4025 0.14784 0.0
C786 C 0.85828 0.43355 0.1852 0.0
C787 C 0.84555 0.39901 0.15435 0.0
C788 C 0.90679 0.45592 0.2055 0.0
C789 C 0.88269 0.46818 0.24328 0.0
N790 N 0.86294 0.41453 0.1725 0.0
N791 N 0.86629 0.45534 0.22402 0.0
loop_
_geom_bond_atom_site_label_1
_geom_bond_atom_site_label_2
_geom_bond_distance
_geom_bond_site_symmetry_2
_ccdc_geom_bond_type
C0 C1 1.384 . S
C0 C2 1.384 . S
C0 H28 0.931 . S
C1 C0 1.384 . S
C1 C4 1.382 . S
C2 C0 1.384 . S
C2 C3 1.381 . S
C2 H29 0.930 . S
C3 C2 1.381 . S
C3 C5 1.381 . S
C3 C6 1.487 . S
C4 C1 1.382 . S
C4 C5 1.387 . S
C4 H30 0.930 . S
C5 C3 1.381 . S
C5 C4 1.387 . S
C5 H31 0.931 . S
C6 C3 1.487 . S
C6 C13 1.399 . S
C6 N44 1.343 1_655 S
C7 C8 1.384 . S
C7 C9 1.384 . S
C7 H32 0.931 . S
C8 C7 1.384 . S
C8 C11 1.382 . S
C9 C7 1.384 . S
C9 C10 1.381 . S
C9 H33 0.930 . S
C10 C9 1.381 . S
C10 C12 1.381 . S
C10 C13 1.487 . S
C11 C8 1.382 . S
C11 C12 1.387 . S
C11 H34 0.930 . S
C12 C10 1.381 . S
C12 C11 1.387 . S
C12 H35 0.931 . S
C13 C6 1.399 . S
C13 C10 1.487 . S
C13 N45 1.343 1_655 S
C14 C15 1.384 . S
C14 C16 1.384 . S
C14 H36 0.931 . S
C15 C14 1.384 . S
C15 C18 1.382 . S
C16 C14 1.384 . S
C16 C17 1.381 . S
C16 H37 0.930 . S
C17 C16 1.381 . S
C17 C19 1.381 . S
C17 C20 1.487 . S
C18 C15 1.382 . S
C18 C19 1.387 . S
C18 H38 0.930 . S
C19 C17 1.381 . S
C19 C18 1.387 . S
C19 H39 0.931 . S
C20 C17 1.487 . S
C20 C27 1.399 . S
C20 N45 1.343 . S
C21 C22 1.384 . S
C21 C23 1.384 . S
C21 H40 0.931 . S
C22 C21 1.384 . S
C22 C25 1.382 . S
C23 C21 1.384 . S
C23 C24 1.381 . S
C23 H41 0.930 . S
C24 C23 1.381 . S
C24 C26 1.381 . S
C24 C27 1.487 . S
C25 C22 1.382 . S
C25 C26 1.387 . S
C25 H42 0.930 . S
C26 C24 1.381 . S
C26 C25 1.387 . S
C26 H43 0.931 . S
C27 C20 1.399 . S
C27 C24 1.487 . S
C27 N44 1.343 . S
H28 C0 0.931 . S
H29 C2 0.930 . S
H30 C4 0.930 . S
H31 C5 0.931 . S
H32 C7 0.931 . S
H33 C9 0.930 . S
H34 C11 0.930 . S
H35 C12 0.931 . S
H36 C14 0.931 . S
H37 C16 0.930 . S
H38 C18 0.930 . S
H39 C19 0.931 . S
H40 C21 0.931 . S
H41 C23 0.930 . S
H42 C25 0.930 . S
H43 C26 0.931 . S
N44 C6 1.343 1_455 S
N44 C27 1.343 . S
N45 C13 1.343 1_455 S
N45 C20 1.343 . S
C46 C47 1.384 . S
C46 C48 1.384 . S
C46 H74 0.931 . S
C47 C46 1.384 . S
C47 C50 1.382 . S
C48 C46 1.384 . S
C48 C49 1.381 . S
C48 H75 0.930 . S
C49 C48 1.381 . S
C49 C51 1.381 . S
C49 C52 1.487 . S
C50 C47 1.382 . S
C50 C51 1.387 . S
C50 H76 0.930 . S
C51 C49 1.381 . S
C51 C50 1.387 . S
C51 H77 0.931 . S
C52 C49 1.487 . S
C52 C59 1.399 . S
C52 N90 1.343 . S
C53 C54 1.384 . S
C53 C55 1.384 . S
C53 H78 0.931 . S
C54 C53 1.384 . S
C54 C57 1.382 . S
C55 C53 1.384 . S
C55 C56 1.381 . S
C55 H79 0.930 . S
C56 C55 1.381 . S
C56 C58 1.381 . S
C56 C59 1.487 . S
C57 C54 1.382 . S
C57 C58 1.387 . S
C57 H80 0.930 . S
C58 C56 1.381 . S
C58 C57 1.387 . S
C58 H81 0.931 . S
C59 C52 1.399 . S
C59 C56 1.487 . S
C59 N91 1.343 1_565 S
C60 C61 1.384 . S
C60 C62 1.384 . S
C60 H82 0.931 . S
C61 C60 1.384 . S
C61 C64 1.382 . S
C62 C60 1.384 . S
C62 C63 1.381 . S
C62 H83 0.930 . S
C63 C62 1.381 . S
C63 C65 1.381 . S
C63 C66 1.487 . S
C64 C61 1.382 . S
C64 C65 1.387 . S
C64 H84 0.930 . S
C65 C63 1.381 . S
C65 C64 1.387 . S
C65 H85 0.931 . S
C66 C63 1.487 . S
C66 C73 1.399 . S
C66 N91 1.343 . S
C67 C68 1.384 . S
C67 C69 1.384 . S
C67 H86 0.931 . S
C68 C67 1.384 . S
C68 C71 1.382 . S
C69 C67 1.384 . S
C69 C70 1.381 . S
C69 H87 0.930 . S
C70 C69 1.381 . S
C70 C72 1.381 . S
C70 C73 1.487 . S
C71 C68 1.382 . S
C71 C72 1.387 . S
C71 H88 0.930 . S
C72 C70 1.381 . S
C72 C71 1.387 . S
C72 H89 0.931 . S
C73 C66 1.399 . S
C73 C70 1.487 . S
C73 N90 1.343 1_545 S
H74 C46 0.931 . S
H75 C48 0.930 . S
H76 C50 0.930 . S
H77 C51 0.931 . S
H78 C53 0.931 . S
H79 C55 0.930 . S
H80 C57 0.930 . S
H81 C58 0.931 . S
H82 C60 0.931 . S
H83 C62 0.930 . S
H84 C64 0.930 . S
H85 C65 0.931 . S
H86 C67 0.931 . S
H87 C69 0.930 . S
H88 C71 0.930 . S
H89 C72 0.931 . S
N90 C52 1.343 . S
N90 C73 1.343 1_565 S
N91 C59 1.343 1_545 S
N91 C66 1.343 . S
C92 C93 1.384 . S
C92 C94 1.384 . S
C92 H120 0.931 . S
C93 C92 1.384 . S
C93 C96 1.382 . S
C94 C92 1.384 . S
C94 C95 1.381 . S
C94 H121 0.930 . S
C95 C94 1.381 . S
C95 C97 1.381 . S
C95 C98 1.487 . S
C96 C93 1.382 . S
C96 C97 1.387 . S
C96 H122 0.930 . S
C97 C95 1.381 . S
C97 C96 1.387 . S
C97 H123 0.931 . S
C98 C95 1.487 . S
C98 C105 1.399 . S
C98 N136 1.343 . S
C99 C100 1.384 . S
C99 C101 1.384 . S
C99 H124 0.931 . S
C100 C99 1.384 . S
C100 C103 1.382 . S
C101 C99 1.384 . S
C101 C102 1.381 . S
C101 H125 0.930 . S
C102 C101 1.381 . S
C102 C104 1.381 . S
C102 C105 1.487 . S
C103 C100 1.382 . S
C103 C104 1.387 . S
C103 H126 0.930 . S
C104 C102 1.381 . S
C104 C103 1.387 . S
C104 H127 0.931 . S
C105 C98 1.399 . S
C105 C102 1.487 . S
C105 N137 1.343 . S
C106 C107 1.384 . S
C106 C108 1.384 . S
C106 H128 0.931 . S
C107 C106 1.384 . S
C107 C110 1.382 . S
C108 C106 1.384 . S
C108 C109 1.381 . S
C108 H129 0.930 . S
C109 C108 1.381 . S
C109 C111 1.381 . S
C109 C112 1.487 . S
C110 C107 1.382 . S
C110 C111 1.387 . S
C110 H130 0.930 . S
C111 C109 1.381 . S
C111 C110 1.387 . S
C111 H131 0.931 . S
C112 C109 1.487 . S
C112 C119 1.399 . S
C112 N137 1.343 . S
C113 C114 1.384 . S
C113 C115 1.384 . S
C113 H132 0.931 . S
C114 C113 1.384 . S
C114 C117 1.382 . S
C115 C113 1.384 . S
C115 C116 1.381 . S
C115 H133 0.930 . S
C116 C115 1.381 . S
C116 C118 1.381 . S
C116 C119 1.487 . S
C117 C114 1.382 . S
C117 C118 1.387 . S
C117 H134 0.930 . S
C118 C116 1.381 . S
C118 C117 1.387 . S
C118 H135 0.931 . S
C119 C112 1.399 . S
C119 C116 1.487 . S
C119 N136 1.343 . S
H120 C92 0.931 . S
H121 C94 0.930 . S
H122 C96 0.930 . S
H123 C97 0.931 . S
H124 C99 0.931 . S
H125 C101 0.930 . S
H126 C103 0.930 . S
H127 C104 0.931 . S
H128 C106 0.931 . S
H129 C108 0.930 . S
H130 C110 0.930 . S
H131 C111 0.931 . S
H132 C113 0.931 . S
H133 C115 0.930 . S
H134 C117 0.930 . S
H135 C118 0.931 . S
N136 C98 1.343 . S
N136 C119 1.343 . S
N137 C105 1.343 . S
N137 C112 1.343 . S
C138 C139 1.384 . S
C138 C140 1.384 . S
C138 H166 0.931 . S
C139 C138 1.384 . S
C139 C142 1.382 . S
C140 C138 1.384 . S
C140 C141 1.381 . S
C140 H167 0.930 . S
C141 C140 1.381 . S
C141 C143 1.381 . S
C141 C144 1.487 . S
C142 C139 1.382 . S
C142 C143 1.387 . S
C142 H168 0.930 . S
C143 C141 1.381 . S
C143 C142 1.387 . S
C143 H169 0.931 . S
C144 C141 1.487 . S
C144 C151 1.399 . S
C144 N182 1.350 . S
C145 C146 1.384 . S
C145 C147 1.384 . S
C145 H170 0.931 . S
C146 C145 1.384 . S
C146 C149 1.382 . S
C147 C145 1.384 . S
C147 C148 1.381 . S
C147 H171 0.930 . S
C148 C147 1.381 . S
C148 C150 1.381 . S
C148 C151 1.487 . S
C149 C146 1.382 . S
C149 C150 1.387 . S
C149 H172 0.930 . S
C150 C148 1.381 . S
C150 C149 1.387 . S
C150 H173 0.931 . S
C151 C144 1.399 . S
C151 C148 1.487 . S
C151 N183 1.343 1_655 S
C152 C153 1.384 . S
C152 C154 1.384 . S
C152 H174 0.931 . S
C153 C152 1.384 . S
C153 C156 1.382 . S
C154 C152 1.384 . S
C154 C155 1.381 . S
C154 H175 0.930 . S
C155 C154 1.381 . S
C155 C157 1.381 . S
C155 C158 1.487 . S
C156 C153 1.382 . S
C156 C157 1.387 . S
C156 H176 0.930 . S
C157 C155 1.381 . S
C157 C156 1.387 . S
C157 H177 0.931 . S
C158 C155 1.487 . S
C158 C165 1.399 . S
C158 N183 1.343 . S
C159 C160 1.384 . S
C159 C161 1.384 . S
C159 H178 0.931 . S
C160 C159 1.384 . S
C160 C163 1.382 . S
C161 C159 1.384 . S
C161 C162 1.381 . S
C161 H179 0.930 . S
C162 C161 1.381 . S
C162 C164 1.381 . S
C162 C165 1.487 . S
C163 C160 1.382 . S
C163 C164 1.387 . S
C163 H180 0.930 . S
C164 C162 1.381 . S
C164 C163 1.387 . S
C164 H181 0.931 . S
C165 C158 1.399 . S
C165 C162 1.487 . S
C165 N182 1.332 1_455 S
H166 C138 0.931 . S
H167 C140 0.930 . S
H168 C142 0.930 . S
H169 C143 0.931 . S
H170 C145 0.931 . S
H171 C147 0.930 . S
H172 C149 0.930 . S
H173 C150 0.931 . S
H174 C152 0.931 . S
H175 C154 0.930 . S
H176 C156 0.930 . S
H177 C157 0.931 . S
H178 C159 0.931 . S
H179 C161 0.930 . S
H180 C163 0.930 . S
H181 C164 0.931 . S
N182 C144 1.350 . S
N182 C165 1.332 1_655 S
N183 C151 1.343 1_455 S
N183 C158 1.343 . S
C184 C185 1.384 . S
C184 C186 1.384 . S
C184 H212 0.931 . S
C185 C184 1.384 . S
C185 C188 1.382 . S
C186 C184 1.384 . S
C186 C187 1.381 . S
C186 H213 0.930 1_556 S
C187 C186 1.381 . S
C187 C189 1.381 . S
C187 C190 1.487 . S
C188 C185 1.382 . S
C188 C189 1.387 . S
C188 H214 0.930 . S
C189 C187 1.381 . S
C189 C188 1.387 . S
C189 H215 0.931 . S
C190 C187 1.487 . S
C190 C197 1.399 1_556 S
C190 N228 1.343 . S
C191 C192 1.384 . S
C191 C193 1.384 . S
C191 H216 0.931 . S
C192 C191 1.384 . S
C192 C195 1.382 . S
C193 C191 1.384 . S
C193 C194 1.381 . S
C193 H217 0.930 . S
C194 C193 1.381 . S
C194 C196 1.381 . S
C194 C197 1.487 . S
C195 C192 1.382 . S
C195 C196 1.387 . S
C195 H218 0.930 . S
C196 C194 1.381 . S
C196 C195 1.387 . S
C196 H219 0.931 . S
C197 C190 1.399 1_554 S
C197 C194 1.487 . S
C197 N229 1.343 1_565 S
C198 C199 1.384 . S
C198 C200 1.384 1_554 S
C198 H220 0.931 . S
C199 C198 1.384 . S
C199 C202 1.382 . S
C200 C198 1.384 1_556 S
C200 C201 1.381 1_556 S
C200 H221 0.930 . S
C201 C200 1.381 1_554 S
C201 C203 1.381 . S
C201 C204 1.491 . S
C202 C199 1.382 . S
C202 C203 1.387 . S
C202 H222 0.930 . S
C203 C201 1.381 . S
C203 C202 1.387 . S
C203 H223 0.931 . S
C204 C201 1.491 . S
C204 C211 1.386 1_554 S
C204 N229 1.353 . S
C205 C206 1.384 . S
C205 C207 1.384 . S
C205 H224 0.931 . S
C206 C205 1.384 . S
C206 C209 1.382 . S
C207 C205 1.384 . S
C207 C208 1.381 . S
C207 H225 0.930 . S
C208 C207 1.381 . S
C208 C210 1.381 . S
C208 C211 1.487 . S
C209 C206 1.382 . S
C209 C210 1.387 . S
C209 H226 0.930 . S
C210 C208 1.381 . S
C210 C209 1.387 . S
C210 H227 0.931 . S
C211 C204 1.386 1_556 S
C211 C208 1.487 . S
C211 N228 1.343 1_545 S
H212 C184 0.931 . S
H213 C186 0.930 1_554 S
H214 C188 0.930 . S
H215 C189 0.931 . S
H216 C191 0.931 . S
H217 C193 0.930 . S
H218 C195 0.930 . S
H219 C196 0.931 . S
H220 C198 0.931 . S
H221 C200 0.930 . S
H222 C202 0.930 . S
H223 C203 0.931 . S
H224 C205 0.931 . S
H225 C207 0.930 . S
H226 C209 0.930 . S
H227 C210 0.931 . S
N228 C190 1.343 . S
N228 C211 1.343 1_565 S
N229 C197 1.343 1_545 S
N229 C204 1.353 . S
C230 C231 1.384 . S
C230 C232 1.384 . S
C230 H258 0.931 . S
C231 C230 1.384 . S
C231 C234 1.382 . S
C232 C230 1.384 . S
C232 C233 1.381 . S
C232 H259 0.930 . S
C233 C232 1.381 . S
C233 C235 1.381 . S
C233 C236 1.487 . S
C234 C231 1.382 . S
C234 C235 1.387 . S
C234 H260 0.930 . S
C235 C233 1.381 . S
C235 C234 1.387 . S
C235 H261 0.931 . S
C236 C233 1.487 . S
C236 C243 1.399 . S
C236 N274 1.343 . S
C237 C238 1.384 . S
C237 C239 1.384 . S
C237 H262 0.931 . S
C238 C237 1.384 . S
C238 C241 1.382 . S
C239 C237 1.384 . S
C239 C240 1.381 . S
C239 H263 0.930 . S
C240 C239 1.381 . S
C240 C242 1.381 . S
C240 C243 1.487 . S
C241 C238 1.382 . S
C241 C242 1.387 . S
C241 H264 0.930 . S
C242 C240 1.381 . S
C242 C241 1.387 . S
C242 H265 0.931 . S
C243 C236 1.399 . S
C243 C240 1.487 . S
C243 N275 1.343 . S
C244 C245 1.384 . S
C244 C246 1.384 . S
C244 H266 0.931 . S
C245 C244 1.384 . S
C245 C248 1.382 . S
C246 C244 1.384 . S
C246 C247 1.381 . S
C246 H267 0.930 . S
C247 C246 1.381 . S
C247 C249 1.381 . S
C247 C250 1.487 . S
C248 C245 1.382 . S
C248 C249 1.387 . S
C248 H268 0.930 . S
C249 C247 1.381 . S
C249 C248 1.387 . S
C249 H269 0.931 . S
C250 C247 1.487 . S
C250 C257 1.399 . S
C250 N275 1.343 . S
C251 C252 1.384 . S
C251 C253 1.384 . S
C251 H270 0.931 . S
C252 C251 1.384 . S
C252 C255 1.382 . S
C253 C251 1.384 . S
C253 C254 1.381 . S
C253 H271 0.930 . S
C254 C253 1.381 . S
C254 C256 1.381 . S
C254 C257 1.487 . S
C255 C252 1.382 . S
C255 C256 1.387 . S
C255 H272 0.930 . S
C256 C254 1.381 . S
C256 C255 1.387 . S
C256 H273 0.931 . S
C257 C250 1.399 . S
C257 C254 1.487 . S
C257 N274 1.343 . S
H258 C230 0.931 . S
H259 C232 0.930 . S
H260 C234 0.930 . S
H261 C235 0.931 . S
H262 C237 0.931 . S
H263 C239 0.930 . S
H264 C241 0.930 . S
H265 C242 0.931 . S
H266 C244 0.931 . S
H267 C246 0.930 . S
H268 C248 0.930 . S
H269 C249 0.931 . S
H270 C251 0.931 . S
H271 C253 0.930 . S
H272 C255 0.930 . S
H273 C256 0.931 . S
N274 C236 1.343 . S
N274 C257 1.343 . S
N275 C243 1.343 . S
N275 C250 1.343 . S
Co276 O277 2.216 . S
Co276 O278 2.091 . S
Co276 O280 2.004 . S
Co276 O286 2.021 . S
Co276 O288 2.137 . S
Co276 O289 2.244 . S
O277 Co276 2.216 . S
O277 C284 1.247 . S
O278 Co276 2.091 . S
O278 C284 1.261 . S
C279 O288 1.247 . S
C279 O289 1.272 . S
O280 Co276 2.004 . S
O280 C285 1.259 . S
Co281 O282 2.061 . S
Co281 O287 2.052 . S
Co281 O289 2.135 . S
O282 Co281 2.061 . S
O282 C285 1.235 . S
C283 O286 1.238 . S
C283 O287 1.241 . S
C284 O277 1.247 . S
C284 O278 1.261 . S
C285 O280 1.259 . S
C285 O282 1.235 . S
O286 Co276 2.021 . S
O286 C283 1.238 . S
O287 Co281 2.052 . S
O287 C283 1.241 . S
O288 Co276 2.137 . S
O288 C279 1.247 . S
O289 Co276 2.244 . S
O289 C279 1.272 . S
O289 Co281 2.135 . S
Co290 O291 2.216 . S
Co290 O292 2.091 . S
Co290 O294 2.004 . S
Co290 O300 2.021 . S
Co290 O302 2.137 . S
Co290 O303 2.244 . S
O291 Co290 2.216 . S
O291 C298 1.247 . S
O292 Co290 2.091 . S
O292 C298 1.261 . S
C293 O302 1.247 . S
C293 O303 1.272 . S
O294 Co290 2.004 . S
O294 C299 1.259 . S
Co295 O296 2.061 . S
Co295 O301 2.052 . S
Co295 O303 2.135 . S
O296 Co295 2.061 . S
O296 C299 1.235 . S
C297 O300 1.238 . S
C297 O301 1.241 . S
C298 O291 1.247 . S
C298 O292 1.261 . S
C299 O294 1.259 . S
C299 O296 1.235 . S
O300 Co290 2.021 . S
O300 C297 1.238 . S
O301 Co295 2.052 . S
O301 C297 1.241 . S
O302 Co290 2.137 . S
O302 C293 1.247 . S
O303 Co290 2.244 . S
O303 C293 1.272 . S
O303 Co295 2.135 . S
Co304 O305 2.216 . S
Co304 O306 2.091 . S
Co304 O308 2.004 . S
Co304 O314 2.021 . S
Co304 O316 2.137 . S
Co304 O317 2.244 . S
O305 Co304 2.216 . S
O305 C312 1.247 . S
O306 Co304 2.091 . S
O306 C312 1.261 . S
C307 O316 1.247 . S
C307 O317 1.272 . S
O308 Co304 2.004 . S
O308 C313 1.259 . S
Co309 O310 2.061 . S
Co309 O315 2.052 . S
Co309 O317 2.135 . S
O310 Co309 2.061 . S
O310 C313 1.235 . S
C311 O314 1.238 . S
C311 O315 1.241 . S
C312 O305 1.247 . S
C312 O306 1.261 . S
C313 O308 1.259 . S
C313 O310 1.235 . S
O314 Co304 2.021 . S
O314 C311 1.238 . S
O315 Co309 2.052 . S
O315 C311 1.241 . S
O316 Co304 2.137 . S
O316 C307 1.247 . S
O317 Co304 2.244 . S
O317 C307 1.272 . S
O317 Co309 2.135 . S
Co318 O319 2.216 . S
Co318 O320 2.091 . S
Co318 O322 2.004 . S
Co318 O328 2.021 . S
Co318 O330 2.137 . S
Co318 O331 2.244 . S
O319 Co318 2.216 . S
O319 C326 1.247 . S
O320 Co318 2.091 . S
O320 C326 1.261 . S
C321 O330 1.247 . S
C321 O331 1.272 . S
O322 Co318 2.004 . S
O322 C327 1.259 . S
Co323 O324 2.061 . S
Co323 O329 2.052 . S
Co323 O331 2.135 . S
O324 Co323 2.061 . S
O324 C327 1.235 . S
C325 O328 1.238 . S
C325 O329 1.241 . S
C326 O319 1.247 . S
C326 O320 1.261 . S
C327 O322 1.259 . S
C327 O324 1.235 . S
O328 Co318 2.021 . S
O328 C325 1.238 . S
O329 Co323 2.052 . S
O329 C325 1.241 . S
O330 Co318 2.137 . S
O330 C321 1.247 . S
O331 Co318 2.244 . S
O331 C321 1.272 . S
O331 Co323 2.135 . S
Co332 O333 2.216 . S
Co332 O334 2.091 . S
Co332 O336 2.004 . S
Co332 O342 2.021 . S
Co332 O344 2.137 . S
Co332 O345 2.244 . S
O333 Co332 2.216 . S
O333 C340 1.247 . S
O334 Co332 2.091 . S
O334 C340 1.261 . S
C335 O344 1.247 . S
C335 O345 1.272 . S
O336 Co332 2.004 . S
O336 C341 1.259 . S
Co337 O338 2.061 . S
Co337 O343 2.052 . S
Co337 O345 2.135 . S
O338 Co337 2.061 . S
O338 C341 1.235 . S
C339 O342 1.238 . S
C339 O343 1.241 . S
C340 O333 1.247 . S
C340 O334 1.261 . S
C341 O336 1.259 . S
C341 O338 1.235 . S
O342 Co332 2.021 . S
O342 C339 1.238 . S
O343 Co337 2.052 . S
O343 C339 1.241 . S
O344 Co332 2.137 . S
O344 C335 1.247 . S
O345 Co332 2.244 . S
O345 C335 1.272 . S
O345 Co337 2.135 . S
Co346 O347 2.216 . S
Co346 O348 2.091 . S
Co346 O350 2.004 . S
Co346 O356 2.021 . S
Co346 O358 2.137 . S
Co346 O359 2.244 . S
O347 Co346 2.216 . S
O347 C354 1.247 . S
O348 Co346 2.091 . S
O348 C354 1.261 . S
C349 O358 1.247 . S
C349 O359 1.272 . S
O350 Co346 2.004 . S
O350 C355 1.259 . S
Co351 O352 2.061 . S
Co351 O357 2.052 . S
Co351 O359 2.135 . S
O352 Co351 2.061 . S
O352 C355 1.235 . S
C353 O356 1.238 . S
C353 O357 1.241 . S
C354 O347 1.247 . S
C354 O348 1.261 . S
C355 O350 1.259 . S
C355 O352 1.235 . S
O356 Co346 2.021 . S
O356 C353 1.238 . S
O357 Co351 2.052 . S
O357 C353 1.241 . S
O358 Co346 2.137 . S
O358 C349 1.247 . S
O359 Co346 2.244 . S
O359 C349 1.272 . S
O359 Co351 2.135 . S
H360 C366 0.930 . S
H361 C370 0.930 . S
H362 C375 0.929 . S
H363 C373 0.929 . S
H364 C368 0.929 . S
H365 C374 0.929 . S
C366 H360 0.930 . S
C366 C367 1.367 . S
C366 C374 1.378 . S
C367 C366 1.367 . S
C367 C375 1.433 . S
C368 H364 0.929 . S
C368 C370 1.378 . S
C368 C372 1.350 . S
C369 C372 1.463 . S
C369 C374 1.350 . S
C369 N377 1.427 . S
C370 H361 0.930 . S
C370 C368 1.378 . S
C370 C371 1.367 . S
C371 C370 1.367 . S
C371 C373 1.433 . S
C372 C368 1.350 . S
C372 C369 1.463 . S
C372 N376 1.427 . S
C373 H363 0.929 . S
C373 C371 1.433 . S
C373 N376 1.384 . S
C374 H365 0.929 . S
C374 C366 1.378 . S
C374 C369 1.350 . S
C375 H362 0.929 . S
C375 C367 1.433 . S
C375 N377 1.384 . S
N376 C372 1.427 . S
N376 C373 1.384 . S
N377 C369 1.427 . S
N377 C375 1.384 . S
H378 C384 0.930 . S
H379 C388 0.930 . S
H380 C393 0.929 . S
H381 C391 0.929 . S
H382 C386 0.929 . S
H383 C392 0.929 . S
C384 H378 0.930 . S
C384 C385 1.367 . S
C384 C392 1.378 . S
C385 C384 1.367 . S
C385 C393 1.433 . S
C386 H382 0.929 . S
C386 C388 1.378 . S
C386 C390 1.350 . S
C387 C390 1.463 . S
C387 C392 1.350 . S
C387 N395 1.427 . S
C388 H379 0.930 . S
C388 C386 1.378 . S
C388 C389 1.367 . S
C389 C388 1.367 . S
C389 C391 1.433 . S
C390 C386 1.350 . S
C390 C387 1.463 . S
C390 N394 1.427 . S
C391 H381 0.929 . S
C391 C389 1.433 . S
C391 N394 1.384 . S
C392 H383 0.929 . S
C392 C384 1.378 . S
C392 C387 1.350 . S
C393 H380 0.929 . S
C393 C385 1.433 . S
C393 N395 1.384 . S
N394 C390 1.427 . S
N394 C391 1.384 . S
N395 C387 1.427 . S
N395 C393 1.384 . S
H396 C402 0.930 . S
H397 C406 0.930 . S
H398 C411 0.929 . S
H399 C409 0.929 . S
H400 C404 0.929 . S
H401 C410 0.929 . S
C402 H396 0.930 . S
C402 C403 1.367 . S
C402 C410 1.378 . S
C403 C402 1.367 . S
C403 C411 1.433 . S
C404 H400 0.929 . S
C404 C406 1.378 . S
C404 C408 1.350 . S
C405 C408 1.463 . S
C405 C410 1.350 . S
C405 N413 1.427 . S
C406 H397 0.930 . S
C406 C404 1.378 . S
C406 C407 1.367 . S
C407 C406 1.367 . S
C407 C409 1.433 . S
C408 C404 1.350 . S
C408 C405 1.463 . S
C408 N412 1.427 . S
C409 H399 0.929 . S
C409 C407 1.433 . S
C409 N412 1.384 . S
C410 H401 0.929 . S
C410 C402 1.378 . S
C410 C405 1.350 . S
C411 H398 0.929 . S
C411 C403 1.433 . S
C411 N413 1.384 . S
N412 C408 1.427 . S
N412 C409 1.384 . S
N413 C405 1.427 . S
N413 C411 1.384 . S
H414 C420 0.930 . S
H415 C424 0.930 . S
H416 C429 0.929 . S
H417 C427 0.929 . S
H418 C422 0.929 . S
H419 C428 0.929 . S
C420 H414 0.930 . S
C420 C421 1.367 . S
C420 C428 1.378 . S
C421 C420 1.367 . S
C421 C429 1.433 . S
C422 H418 0.929 . S
C422 C424 1.378 . S
C422 C426 1.350 . S
C423 C426 1.463 . S
C423 C428 1.350 . S
C423 N431 1.427 . S
C424 H415 0.930 . S
C424 C422 1.378 . S
C424 C425 1.367 . S
C425 C424 1.367 . S
C425 C427 1.433 . S
C426 C422 1.350 . S
C426 C423 1.463 . S
C426 N430 1.427 . S
C427 H417 0.929 . S
C427 C425 1.433 . S
C427 N430 1.384 . S
C428 H419 0.929 . S
C428 C420 1.378 . S
C428 C423 1.350 . S
C429 H416 0.929 . S
C429 C421 1.433 . S
C429 N431 1.384 . S
N430 C426 1.427 . S
N430 C427 1.384 . S
N431 C423 1.427 . S
N431 C429 1.384 . S
H432 C438 0.930 . S
H433 C442 0.930 . S
H434 C447 0.929 . S
H435 C445 0.929 . S
H436 C440 0.929 . S
H437 C446 0.929 . S
C438 H432 0.930 . S
C438 C439 1.367 . S
C438 C446 1.378 . S
C439 C438 1.367 . S
C439 C447 1.433 . S
C440 H436 0.929 . S
C440 C442 1.378 . S
C440 C444 1.350 . S
C441 C444 1.463 . S
C441 C446 1.350 . S
C441 N449 1.427 . S
C442 H433 0.930 . S
C442 C440 1.378 . S
C442 C443 1.367 . S
C443 C442 1.367 . S
C443 C445 1.433 . S
C444 C440 1.350 . S
C444 C441 1.463 . S
C444 N448 1.427 . S
C445 H435 0.929 . S
C445 C443 1.433 . S
C445 N448 1.384 . S
C446 H437 0.929 . S
C446 C438 1.378 . S
C446 C441 1.350 . S
C447 H434 0.929 . S
C447 C439 1.433 . S
C447 N449 1.384 . S
N448 C444 1.427 . S
N448 C445 1.384 . S
N449 C441 1.427 . S
N449 C447 1.384 . S
H450 C456 0.930 . S
H451 C460 0.930 . S
H452 C465 0.929 . S
H453 C463 0.929 . S
H454 C458 0.929 . S
H455 C464 0.929 . S
C456 H450 0.930 . S
C456 C457 1.367 . S
C456 C464 1.378 . S
C457 C456 1.367 . S
C457 C465 1.433 . S
C458 H454 0.929 . S
C458 C460 1.378 . S
C458 C462 1.350 . S
C459 C462 1.463 . S
C459 C464 1.350 . S
C459 N467 1.427 . S
C460 H451 0.930 . S
C460 C458 1.378 . S
C460 C461 1.367 . S
C461 C460 1.367 . S
C461 C463 1.433 . S
C462 C458 1.350 . S
C462 C459 1.463 . S
C462 N466 1.427 . S
C463 H453 0.929 . S
C463 C461 1.433 . S
C463 N466 1.384 . S
C464 H455 0.929 . S
C464 C456 1.378 . S
C464 C459 1.350 . S
C465 H452 0.929 . S
C465 C457 1.433 . S
C465 N467 1.384 . S
N466 C462 1.427 . S
N466 C463 1.384 . S
N467 C459 1.427 . S
N467 C465 1.384 . S
H468 C474 0.930 . S
H469 C478 0.930 . S
H470 C483 0.929 . S
H471 C481 0.929 . S
H472 C476 0.929 . S
H473 C482 0.929 . S
C474 H468 0.930 . S
C474 C475 1.367 . S
C474 C482 1.378 . S
C475 C474 1.367 . S
C475 C483 1.433 . S
C476 H472 0.929 . S
C476 C478 1.378 . S
C476 C480 1.350 . S
C477 C480 1.463 . S
C477 C482 1.350 . S
C477 N485 1.427 . S
C478 H469 0.930 . S
C478 C476 1.378 . S
C478 C479 1.367 . S
C479 C478 1.367 . S
C479 C481 1.433 . S
C480 C476 1.350 . S
C480 C477 1.463 . S
C480 N484 1.427 . S
C481 H471 0.929 . S
C481 C479 1.433 . S
C481 N484 1.384 . S
C482 H473 0.929 . S
C482 C474 1.378 . S
C482 C477 1.350 . S
C483 H470 0.929 . S
C483 C475 1.433 . S
C483 N485 1.384 . S
N484 C480 1.427 . S
N484 C481 1.384 . S
N485 C477 1.427 . S
N485 C483 1.384 . S
H486 C492 0.930 . S
H487 C496 0.930 . S
H488 C501 0.929 . S
H489 C499 0.929 . S
H490 C494 0.929 . S
H491 C500 0.929 . S
C492 H486 0.930 . S
C492 C493 1.367 . S
C492 C500 1.378 . S
C493 C492 1.367 . S
C493 C501 1.433 . S
C494 H490 0.929 . S
C494 C496 1.378 . S
C494 C498 1.350 . S
C495 C498 1.463 . S
C495 C500 1.350 . S
C495 N503 1.427 . S
C496 H487 0.930 . S
C496 C494 1.378 . S
C496 C497 1.367 . S
C497 C496 1.367 . S
C497 C499 1.433 . S
C498 C494 1.350 . S
C498 C495 1.463 . S
C498 N502 1.427 . S
C499 H489 0.929 . S
C499 C497 1.433 . S
C499 N502 1.384 . S
C500 H491 0.929 . S
C500 C492 1.378 . S
C500 C495 1.350 . S
C501 H488 0.929 . S
C501 C493 1.433 . S
C501 N503 1.384 . S
N502 C498 1.427 . S
N502 C499 1.384 . S
N503 C495 1.427 . S
N503 C501 1.384 . S
H504 C510 0.930 . S
H505 C514 0.930 . S
H506 C519 0.929 . S
H507 C517 0.929 . S
H508 C512 0.929 . S
H509 C518 0.929 . S
C510 H504 0.930 . S
C510 C511 1.367 . S
C510 C518 1.378 . S
C511 C510 1.367 . S
C511 C519 1.433 . S
C512 H508 0.929 . S
C512 C514 1.378 . S
C512 C516 1.350 . S
C513 C516 1.463 . S
C513 C518 1.350 . S
C513 N521 1.427 . S
C514 H505 0.930 . S
C514 C512 1.378 . S
C514 C515 1.367 . S
C515 C514 1.367 . S
C515 C517 1.433 . S
C516 C512 1.350 . S
C516 C513 1.463 . S
C516 N520 1.427 . S
C517 H507 0.929 . S
C517 C515 1.433 . S
C517 N520 1.384 . S
C518 H509 0.929 . S
C518 C510 1.378 . S
C518 C513 1.350 . S
C519 H506 0.929 . S
C519 C511 1.433 . S
C519 N521 1.384 . S
N520 C516 1.427 . S
N520 C517 1.384 . S
N521 C513 1.427 . S
N521 C519 1.384 . S
H522 C528 0.930 1_556 S
H523 C532 0.930 . S
H524 C537 0.929 . S
H525 C535 0.929 . S
H526 C530 0.929 . S
H527 C536 0.929 . S
C528 H522 0.930 1_554 S
C528 C529 1.367 . S
C528 C536 1.378 . S
C529 C528 1.367 . S
C529 C537 1.433 . S
C530 H526 0.929 . S
C530 C532 1.378 . S
C530 C534 1.350 . S
C531 C534 1.463 . S
C531 C536 1.350 . S
C531 N539 1.427 . S
C532 H523 0.930 . S
C532 C530 1.378 . S
C532 C533 1.367 . S
C533 C532 1.367 . S
C533 C535 1.433 . S
C534 C530 1.350 . S
C534 C531 1.463 . S
C534 N538 1.427 . S
C535 H525 0.929 . S
C535 C533 1.433 . S
C535 N538 1.384 . S
C536 H527 0.929 . S
C536 C528 1.378 . S
C536 C531 1.350 . S
C537 H524 0.929 . S
C537 C529 1.433 . S
C537 N539 1.384 . S
N538 C534 1.427 . S
N538 C535 1.384 . S
N539 C531 1.427 . S
N539 C537 1.384 . S
H540 C546 0.930 . S
H541 C550 0.930 . S
H542 C555 0.929 . S
H543 C553 0.929 . S
H544 C548 0.929 . S
H545 C554 0.929 . S
C546 H540 0.930 . S
C546 C547 1.367 . S
C546 C554 1.378 . S
C547 C546 1.367 . S
C547 C555 1.433 . S
C548 H544 0.929 . S
C548 C550 1.378 . S
C548 C552 1.350 . S
C549 C552 1.463 . S
C549 C554 1.350 . S
C549 N557 1.427 . S
C550 H541 0.930 . S
C550 C548 1.378 . S
C550 C551 1.367 . S
C551 C550 1.367 . S
C551 C553 1.433 . S
C552 C548 1.350 . S
C552 C549 1.463 . S
C552 N556 1.427 . S
C553 H543 0.929 . S
C553 C551 1.433 . S
C553 N556 1.384 . S
C554 H545 0.929 . S
C554 C546 1.378 . S
C554 C549 1.350 . S
C555 H542 0.929 . S
C555 C547 1.433 . S
C555 N557 1.384 . S
N556 C552 1.427 . S
N556 C553 1.384 . S
N557 C549 1.427 . S
N557 C555 1.384 . S
H558 C564 0.930 . S
H559 C568 0.930 . S
H560 C573 0.929 . S
H561 C571 0.929 . S
H562 C566 0.929 . S
H563 C572 0.929 . S
C564 H558 0.930 . S
C564 C565 1.367 . S
C564 C572 1.378 . S
C565 C564 1.367 . S
C565 C573 1.433 . S
C566 H562 0.929 . S
C566 C568 1.378 . S
C566 C570 1.350 . S
C567 C570 1.463 . S
C567 C572 1.350 . S
C567 N575 1.427 . S
C568 H559 0.930 . S
C568 C566 1.378 . S
C568 C569 1.367 . S
C569 C568 1.367 . S
C569 C571 1.433 . S
C570 C566 1.350 . S
C570 C567 1.463 . S
C570 N574 1.427 . S
C571 H561 0.929 . S
C571 C569 1.433 . S
C571 N574 1.384 . S
C572 H563 0.929 . S
C572 C564 1.378 . S
C572 C567 1.350 . S
C573 H560 0.929 . S
C573 C565 1.433 . S
C573 N575 1.384 . S
N574 C570 1.427 . S
N574 C571 1.384 . S
N575 C567 1.427 . S
N575 C573 1.384 . S
H576 C582 0.930 . S
H577 C586 0.930 . S
H578 C591 0.929 . S
H579 C589 0.929 . S
H580 C584 0.929 . S
H581 C590 0.929 . S
C582 H576 0.930 . S
C582 C583 1.367 . S
C582 C590 1.378 . S
C583 C582 1.367 . S
C583 C591 1.433 . S
C584 H580 0.929 . S
C584 C586 1.378 . S
C584 C588 1.350 . S
C585 C588 1.463 . S
C585 C590 1.350 . S
C585 N593 1.427 . S
C586 H577 0.930 . S
C586 C584 1.378 . S
C586 C587 1.367 . S
C587 C586 1.367 . S
C587 C589 1.433 . S
C588 C584 1.350 . S
C588 C585 1.463 . S
C588 N592 1.427 . S
C589 H579 0.929 . S
C589 C587 1.433 . S
C589 N592 1.384 . S
C590 H581 0.929 . S
C590 C582 1.378 . S
C590 C585 1.350 . S
C591 H578 0.929 . S
C591 C583 1.433 . S
C591 N593 1.384 . S
N592 C588 1.427 . S
N592 C589 1.384 . S
N593 C585 1.427 . S
N593 C591 1.384 . S
H594 C600 0.930 . S
H595 C604 0.930 . S
H596 C609 0.929 . S
H597 C607 0.929 . S
H598 C602 0.929 . S
H599 C608 0.929 . S
C600 H594 0.930 . S
C600 C601 1.367 . S
C600 C608 1.378 . S
C601 C600 1.367 . S
C601 C609 1.433 . S
C602 H598 0.929 . S
C602 C604 1.378 . S
C602 C606 1.350 . S
C603 C606 1.463 . S
C603 C608 1.350 . S
C603 N611 1.427 . S
C604 H595 0.930 . S
C604 C602 1.378 . S
C604 C605 1.367 . S
C605 C604 1.367 . S
C605 C607 1.433 . S
C606 C602 1.350 . S
C606 C603 1.463 . S
C606 N610 1.427 . S
C607 H597 0.929 . S
C607 C605 1.433 . S
C607 N610 1.384 . S
C608 H599 0.929 . S
C608 C600 1.378 . S
C608 C603 1.350 . S
C609 H596 0.929 . S
C609 C601 1.433 . S
C609 N611 1.384 . S
N610 C606 1.427 . S
N610 C607 1.384 . S
N611 C603 1.427 . S
N611 C609 1.384 . S
H612 C618 0.930 . S
H613 C622 0.930 . S
H614 C627 0.929 . S
H615 C625 0.929 . S
H616 C620 0.929 . S
H617 C626 0.929 . S
C618 H612 0.930 . S
C618 C619 1.367 . S
C618 C626 1.378 . S
C619 C618 1.367 . S
C619 C627 1.433 . S
C620 H616 0.929 . S
C620 C622 1.378 . S
C620 C624 1.350 . S
C621 C624 1.463 . S
C621 C626 1.350 . S
C621 N629 1.427 . S
C622 H613 0.930 . S
C622 C620 1.378 . S
C622 C623 1.367 . S
C623 C622 1.367 . S
C623 C625 1.433 . S
C624 C620 1.350 . S
C624 C621 1.463 . S
C624 N628 1.427 . S
C625 H615 0.929 . S
C625 C623 1.433 . S
C625 N628 1.384 . S
C626 H617 0.929 . S
C626 C618 1.378 . S
C626 C621 1.350 . S
C627 H614 0.929 . S
C627 C619 1.433 . S
C627 N629 1.384 . S
N628 C624 1.427 . S
N628 C625 1.384 . S
N629 C621 1.427 . S
N629 C627 1.384 . S
H630 C636 0.930 . S
H631 C640 0.930 . S
H632 C645 0.929 . S
H633 C643 0.929 . S
H634 C638 0.929 . S
H635 C644 0.929 . S
C636 H630 0.930 . S
C636 C637 1.367 . S
C636 C644 1.378 . S
C637 C636 1.367 . S
C637 C645 1.433 . S
C638 H634 0.929 . S
C638 C640 1.378 1_556 S
C638 C642 1.350 . S
C639 C642 1.463 . S
C639 C644 1.350 . S
C639 N647 1.427 . S
C640 H631 0.930 . S
C640 C638 1.378 1_554 S
C640 C641 1.367 . S
C641 C640 1.367 . S
C641 C643 1.433 . S
C642 C638 1.350 . S
C642 C639 1.463 . S
C642 N646 1.427 . S
C643 H633 0.929 . S
C643 C641 1.433 . S
C643 N646 1.384 1_554 S
C644 H635 0.929 . S
C644 C636 1.378 . S
C644 C639 1.350 . S
C645 H632 0.929 . S
C645 C637 1.433 . S
C645 N647 1.384 . S
N646 C642 1.427 . S
N646 C643 1.384 1_556 S
N647 C639 1.427 . S
N647 C645 1.384 . S
H648 C654 0.930 . S
H649 C658 0.930 . S
H650 C663 0.929 . S
H651 C661 0.929 . S
H652 C656 0.929 . S
H653 C662 0.929 . S
C654 H648 0.930 . S
C654 C655 1.367 . S
C654 C662 1.378 . S
C655 C654 1.367 . S
C655 C663 1.433 . S
C656 H652 0.929 . S
C656 C658 1.378 . S
C656 C660 1.350 . S
C657 C660 1.463 . S
C657 C662 1.350 . S
C657 N665 1.427 . S
C658 H649 0.930 . S
C658 C656 1.378 . S
C658 C659 1.367 . S
C659 C658 1.367 . S
C659 C661 1.433 . S
C660 C656 1.350 . S
C660 C657 1.463 . S
C660 N664 1.427 . S
C661 H651 0.929 . S
C661 C659 1.433 . S
C661 N664 1.384 . S
C662 H653 0.929 . S
C662 C654 1.378 . S
C662 C657 1.350 . S
C663 H650 0.929 . S
C663 C655 1.433 . S
C663 N665 1.384 . S
N664 C660 1.427 . S
N664 C661 1.384 . S
N665 C657 1.427 . S
N665 C663 1.384 . S
H666 C672 0.930 . S
H667 C676 0.930 . S
H668 C681 0.929 . S
H669 C679 0.929 . S
H670 C674 0.929 . S
H671 C680 0.929 . S
C672 H666 0.930 . S
C672 C673 1.367 . S
C672 C680 1.378 . S
C673 C672 1.367 . S
C673 C681 1.433 . S
C674 H670 0.929 . S
C674 C676 1.378 . S
C674 C678 1.350 . S
C675 C678 1.463 . S
C675 C680 1.350 . S
C675 N683 1.427 . S
C676 H667 0.930 . S
C676 C674 1.378 . S
C676 C677 1.367 . S
C677 C676 1.367 . S
C677 C679 1.433 . S
C678 C674 1.350 . S
C678 C675 1.463 . S
C678 N682 1.427 . S
C679 H669 0.929 . S
C679 C677 1.433 . S
C679 N682 1.384 . S
C680 H671 0.929 . S
C680 C672 1.378 . S
C680 C675 1.350 . S
C681 H668 0.929 . S
C681 C673 1.433 . S
C681 N683 1.384 . S
N682 C678 1.427 . S
N682 C679 1.384 . S
N683 C675 1.427 . S
N683 C681 1.384 . S
H684 C690 0.930 . S
H685 C694 0.930 . S
H686 C699 0.929 . S
H687 C697 0.929 . S
H688 C692 0.929 . S
H689 C698 0.929 . S
C690 H684 0.930 . S
C690 C691 1.367 . S
C690 C698 1.378 . S
C691 C690 1.367 . S
C691 C699 1.433 . S
C692 H688 0.929 . S
C692 C694 1.378 . S
C692 C696 1.350 . S
C693 C696 1.463 . S
C693 C698 1.350 . S
C693 N701 1.427 . S
C694 H685 0.930 . S
C694 C692 1.378 . S
C694 C695 1.367 . S
C695 C694 1.367 . S
C695 C697 1.433 . S
C696 C692 1.350 . S
C696 C693 1.463 . S
C696 N700 1.427 . S
C697 H687 0.929 . S
C697 C695 1.433 . S
C697 N700 1.384 . S
C698 H689 0.929 . S
C698 C690 1.378 . S
C698 C693 1.350 . S
C699 H686 0.929 . S
C699 C691 1.433 . S
C699 N701 1.384 . S
N700 C696 1.427 . S
N700 C697 1.384 . S
N701 C693 1.427 . S
N701 C699 1.384 . S
H702 C708 0.930 . S
H703 C712 0.930 . S
H704 C717 0.929 . S
H705 C715 0.929 . S
H706 C710 0.929 . S
H707 C716 0.929 . S
C708 H702 0.930 . S
C708 C709 1.367 . S
C708 C716 1.378 . S
C709 C708 1.367 . S
C709 C717 1.433 . S
C710 H706 0.929 . S
C710 C712 1.378 . S
C710 C714 1.350 . S
C711 C714 1.463 . S
C711 C716 1.350 . S
C711 N719 1.427 . S
C712 H703 0.930 . S
C712 C710 1.378 . S
C712 C713 1.367 . S
C713 C712 1.367 . S
C713 C715 1.433 . S
C714 C710 1.350 . S
C714 C711 1.463 . S
C714 N718 1.427 . S
C715 H705 0.929 . S
C715 C713 1.433 . S
C715 N718 1.384 . S
C716 H707 0.929 . S
C716 C708 1.378 . S
C716 C711 1.350 . S
C717 H704 0.929 . S
C717 C709 1.433 . S
C717 N719 1.384 . S
N718 C714 1.427 . S
N718 C715 1.384 . S
N719 C711 1.427 . S
N719 C717 1.384 . S
H720 C726 0.930 . S
H721 C730 0.930 . S
H722 C735 0.929 . S
H723 C733 0.929 . S
H724 C728 0.929 . S
H725 C734 0.929 . S
C726 H720 0.930 . S
C726 C727 1.367 . S
C726 C734 1.378 . S
C727 C726 1.367 . S
C727 C735 1.433 . S
C728 H724 0.929 . S
C728 C730 1.378 . S
C728 C732 1.350 . S
C729 C732 1.463 . S
C729 C734 1.350 . S
C729 N737 1.427 . S
C730 H721 0.930 . S
C730 C728 1.378 . S
C730 C731 1.367 . S
C731 C730 1.367 . S
C731 C733 1.433 . S
C732 C728 1.350 . S
C732 C729 1.463 . S
C732 N736 1.427 . S
C733 H723 0.929 . S
C733 C731 1.433 . S
C733 N736 1.384 . S
C734 H725 0.929 . S
C734 C726 1.378 . S
C734 C729 1.350 . S
C735 H722 0.929 . S
C735 C727 1.433 . S
C735 N737 1.384 . S
N736 C732 1.427 . S
N736 C733 1.384 . S
N737 C729 1.427 . S
N737 C735 1.384 . S
H738 C744 0.930 . S
H739 C748 0.930 . S
H740 C753 0.929 . S
H741 C751 0.929 . S
H742 C746 0.929 . S
H743 C752 0.929 . S
C744 H738 0.930 . S
C744 C745 1.367 . S
C744 C752 1.378 . S
C745 C744 1.367 . S
C745 C753 1.433 . S
C746 H742 0.929 . S
C746 C748 1.378 . S
C746 C750 1.350 . S
C747 C750 1.463 . S
C747 C752 1.350 . S
C747 N755 1.427 . S
C748 H739 0.930 . S
C748 C746 1.378 . S
C748 C749 1.367 . S
C749 C748 1.367 . S
C749 C751 1.433 . S
C750 C746 1.350 . S
C750 C747 1.463 . S
C750 N754 1.427 . S
C751 H741 0.929 . S
C751 C749 1.433 . S
C751 N754 1.384 . S
C752 H743 0.929 . S
C752 C744 1.378 . S
C752 C747 1.350 . S
C753 H740 0.929 . S
C753 C745 1.433 . S
C753 N755 1.384 . S
N754 C750 1.427 . S
N754 C751 1.384 . S
N755 C747 1.427 . S
N755 C753 1.384 . S
H756 C762 0.930 . S
H757 C766 0.930 . S
H758 C771 0.929 . S
H759 C769 0.929 . S
H760 C764 0.929 . S
H761 C770 0.929 . S
C762 H756 0.930 . S
C762 C763 1.367 . S
C762 C770 1.378 . S
C763 C762 1.367 . S
C763 C771 1.433 . S
C764 H760 0.929 . S
C764 C766 1.378 . S
C764 C768 1.350 1_556 S
C765 C768 1.463 . S
C765 C770 1.350 . S
C765 N773 1.427 . S
C766 H757 0.930 . S
C766 C764 1.378 . S
C766 C767 1.367 . S
C767 C766 1.367 . S
C767 C769 1.433 . S
C768 C764 1.350 1_554 S
C768 C765 1.463 . S
C768 N772 1.427 . S
C769 H759 0.929 . S
C769 C767 1.433 . S
C769 N772 1.384 1_556 S
C770 H761 0.929 . S
C770 C762 1.378 . S
C770 C765 1.350 . S
C771 H758 0.929 . S
C771 C763 1.433 . S
C771 N773 1.384 . S
N772 C768 1.427 . S
N772 C769 1.384 1_554 S
N773 C765 1.427 . S
N773 C771 1.384 . S
H774 C780 0.930 . S
H775 C784 0.930 . S
H776 C789 0.929 . S
H777 C787 0.929 . S
H778 C782 0.929 . S
H779 C788 0.929 . S
C780 H774 0.930 . S
C780 C781 1.367 . S
C780 C788 1.378 . S
C781 C780 1.367 . S
C781 C789 1.433 . S
C782 H778 0.929 . S
C782 C784 1.378 . S
C782 C786 1.350 . S
C783 C786 1.463 . S
C783 C788 1.350 . S
C783 N791 1.427 . S
C784 H775 0.930 . S
C784 C782 1.378 . S
C784 C785 1.367 . S
C785 C784 1.367 . S
C785 C787 1.433 . S
C786 C782 1.350 . S
C786 C783 1.463 . S
C786 N790 1.427 . S
C787 H777 0.929 . S
C787 C785 1.433 . S
C787 N790 1.384 . S
C788 H779 0.929 . S
C788 C780 1.378 . S
C788 C783 1.350 . S
C789 H776 0.929 . S
C789 C781 1.433 . S
C789 N791 1.384 . S
N790 C786 1.427 . S
N790 C787 1.384 . S
N791 C783 1.427 . S
N791 C789 1.384 . S
C371 C349 1.607 . S
C367 C15 1.588 . S
C385 C61 1.589 . S
C389 C279 1.606 . S
C403 C114 1.601 . S
C407 C298 1.626 . S
C421 C139 1.598 . S
C425 C307 1.606 . S
C443 C321 1.602 . S
C439 C185 1.600 . S
C457 C245 1.603 . S
C461 C340 1.627 . S
C475 C47 1.572 . S
C479 C293 1.578 . S
C493 C100 1.597 . S
C497 C312 1.607 . S
C511 C153 1.579 . S
C515 C326 1.600 . S
C533 C335 1.581 . S
C529 C199 1.562 . S
C551 C354 1.607 . S
C547 C231 1.597 . S
C569 C284 1.600 . S
C565 C1 1.592 . S
C583 C22 1.490 . S
C587 C299 1.482 . S
C601 C68 1.482 . S
C605 C311 1.472 . S
C623 C325 1.467 . S
C619 C107 1.492 . S
C637 C146 1.490 . S
C641 C341 1.474 . S
C659 C353 1.471 . S
C655 C192 1.487 . S
C677 C283 1.472 . S
C673 C252 1.489 . S
C695 C355 1.483 . S
C691 C54 1.497 . S
C709 C93 1.504 . S
C713 C285 1.492 . S
C731 C297 1.474 . S
C727 C160 1.493 . S
C745 C206 1.494 . S
C749 C313 1.483 . S
C763 C238 1.503 . S
C767 C327 1.498 . S
C781 C8 1.498 . S
C785 C339 1.479 . S
