# Generated by pormake.
# Topology llj, (12,3)-cn, num edge types: 1
# Building blocks:
#     Node 0, Type 0, BuildingBlock: QEWDON_clean_sbu_0, # of connection points: 12
#     Node 1, Type 0, BuildingBlock: QEWDON_clean_sbu_0, # of connection points: 12
#     Node 2, Type 1, BuildingBlock: CUQRIR_clean_linker_1, # of connection points: 3
#     Node 3, Type 1, BuildingBlock: CUQRIR_clean_linker_1, # of connection points: 3
#     Node 4, Type 1, BuildingBlock: CUQRIR_clean_linker_1, # of connection points: 3
#     Node 5, Type 1, BuildingBlock: CUQRIR_clean_linker_1, # of connection points: 3
#     Node 6, Type 1, BuildingBlock: CUQRIR_clean_linker_1, # of connection points: 3
#     Node 7, Type 1, BuildingBlock: CUQRIR_clean_linker_1, # of connection points: 3
#     Node 8, Type 1, BuildingBlock: CUQRIR_clean_linker_1, # of connection points: 3
#     Node 9, Type 1, BuildingBlock: CUQRIR_clean_linker_1, # of connection points: 3
#     Edge 10, Type (0, 1), BuildingBlock: XIVTED_clean_linker_0, # of connection points: 2
#     Edge 11, Type (0, 1), BuildingBlock: XIVTED_clean_linker_0, # of connection points: 2
#     Edge 12, Type (0, 1), BuildingBlock: XIVTED_clean_linker_0, # of connection points: 2
#     Edge 13, Type (0, 1), BuildingBlock: XIVTED_clean_linker_0, # of connection points: 2
#     Edge 14, Type (0, 1), BuildingBlock: XIVTED_clean_linker_0, # of connection points: 2
#     Edge 15, Type (0, 1), BuildingBlock: XIVTED_clean_linker_0, # of connection points: 2
#     Edge 16, Type (0, 1), BuildingBlock: XIVTED_clean_linker_0, # of connection points: 2
#     Edge 17, Type (0, 1), BuildingBlock: XIVTED_clean_linker_0, # of connection points: 2
#     Edge 18, Type (0, 1), BuildingBlock: XIVTED_clean_linker_0, # of connection points: 2
#     Edge 19, Type (0, 1), BuildingBlock: XIVTED_clean_linker_0, # of connection points: 2
#     Edge 20, Type (0, 1), BuildingBlock: XIVTED_clean_linker_0, # of connection points: 2
#     Edge 21, Type (0, 1), BuildingBlock: XIVTED_clean_linker_0, # of connection points: 2
#     Edge 22, Type (0, 1), BuildingBlock: XIVTED_clean_linker_0, # of connection points: 2
#     Edge 23, Type (0, 1), BuildingBlock: XIVTED_clean_linker_0, # of connection points: 2
#     Edge 24, Type (0, 1), BuildingBlock: XIVTED_clean_linker_0, # of connection points: 2
#     Edge 25, Type (0, 1), BuildingBlock: XIVTED_clean_linker_0, # of connection points: 2
#     Edge 26, Type (0, 1), BuildingBlock: XIVTED_clean_linker_0, # of connection points: 2
#     Edge 27, Type (0, 1), BuildingBlock: XIVTED_clean_linker_0, # of connection points: 2
#     Edge 28, Type (0, 1), BuildingBlock: XIVTED_clean_linker_0, # of connection points: 2
#     Edge 29, Type (0, 1), BuildingBlock: XIVTED_clean_linker_0, # of connection points: 2
#     Edge 30, Type (0, 1), BuildingBlock: XIVTED_clean_linker_0, # of connection points: 2
#     Edge 31, Type (0, 1), BuildingBlock: XIVTED_clean_linker_0, # of connection points: 2
#     Edge 32, Type (0, 1), BuildingBlock: XIVTED_clean_linker_0, # of connection points: 2
#     Edge 33, Type (0, 1), BuildingBlock: XIVTED_clean_linker_0, # of connection points: 2
# Relax obj value: 0.011
# Max RMSD: 0.115
# Mean RMSD: 0.100
data_MOF--net-llj--node1-QEWDON_clean_sbu_0--node2-CUQRIR_clean_linker_1--edge1-XIVTED_clean_linker_0
_symmetry_space_group_name_H-M    P1
_symmetry_Int_Tables_number       1
_symmetry_cell_setting            triclinic
loop_
_symmetry_equiv_pos_as_xyz
'x, y, z'
_cell_length_a     37.308573
_cell_length_b     37.220245
_cell_length_c     22.740425
_cell_angle_alpha  90.079906
_cell_angle_beta   90.016989
_cell_angle_gamma 89.84576
loop_
_atom_site_label
_atom_site_type_symbol
_atom_site_fract_x
_atom_site_fract_y
_atom_site_fract_z
_atom_type_partial_charge
Zn0 Zn 0.94967 0.06469 0.95467 0.0
Zn1 Zn 0.95206 0.05812 0.09343 0.0
O2 O 0.98288 0.05273 0.02207 0.0
H3 H 0.00461 0.03881 0.01792 0.0
C4 C 0.90991 0.98386 0.83508 0.0
O5 O 0.93312 -0.00101 0.87076 0.0
Zn6 Zn 0.0497 0.94454 0.09663 0.0
Zn7 Zn 0.04753 0.94456 0.95524 0.0
O8 O 0.01995 0.95981 0.02781 0.0
H9 H -0.00068 0.9755 0.02875 0.0
Zn10 Zn 0.91385 0.93113 0.92868 0.0
O11 O 0.92487 0.96536 0.99616 0.0
Zn12 Zn 0.92005 0.93737 0.0708 0.0
H13 H 0.93324 0.98979 0.99239 0.0
Zn14 Zn 0.08943 0.06713 0.95624 0.0
O15 O 0.08863 0.03069 0.02203 0.0
H16 H 0.09805 0.00655 0.01901 0.0
Zn17 Zn 0.08426 0.06112 0.09389 0.0
C18 C 0.08368 0.0254 0.8476 0.0
O19 O 0.05167 0.01916 0.86934 0.0
O20 O 0.90671 0.09553 0.98097 0.0
O21 O 0.913 0.09564 0.0786 0.0
O22 O 0.08405 0.90461 0.97408 0.0
O23 O 0.08512 0.90514 0.07211 0.0
O24 O 0.89184 0.88324 0.95693 0.0
O25 O 0.8947 0.88979 0.0544 0.0
C26 C 0.01685 0.07213 0.15918 0.0
O27 O 0.1093 0.11643 0.98364 0.0
O28 O 0.1095 0.109 0.08099 0.0
O29 O 0.01963 0.94115 0.87624 0.0
C30 C 0.89702 0.10619 0.03189 0.0
O31 O 0.97445 0.0756 0.87494 0.0
C32 C 0.9834 0.92448 0.15485 0.0
O33 O 0.89709 0.9534 0.84881 0.0
C34 C 0.09568 0.89234 0.02283 0.0
O35 O 0.10492 0.0459 0.87559 0.0
C36 C 0.90337 -0.00133 0.13701 0.0
O37 O 0.98295 0.07074 0.16358 0.0
O38 O 0.0314 0.06769 0.10918 0.0
C39 C 0.88578 0.87176 0.00883 0.0
O40 O 0.01713 0.92714 0.16154 0.0
O41 O 0.97026 0.93062 0.10404 0.0
C42 C 0.0943 0.00133 0.16549 0.0
O43 O 0.89205 0.96695 0.129 0.0
O44 O 0.92887 0.00983 0.10481 0.0
C45 C 0.11651 0.12774 0.03534 0.0
O46 O 0.10444 0.03386 0.16294 0.0
O47 O 0.07537 0.9895 0.12311 0.0
C48 C 0.02695 0.91593 0.84045 0.0
O49 O 0.05267 0.89314 0.85365 0.0
C50 C 0.00368 0.09296 0.87698 0.0
O51 O 0.01572 0.10373 0.92837 0.0
Zn52 Zn 0.44195 0.56812 0.44787 0.0
Zn53 Zn 0.44416 0.55723 0.58884 0.0
O54 O 0.47266 0.54961 0.51522 0.0
H55 H 0.49429 0.53556 0.5108 0.0
C56 C 0.40942 0.48347 0.33916 0.0
O57 O 0.4364 0.49771 0.36806 0.0
Zn58 Zn 0.54714 0.44148 0.58752 0.0
Zn59 Zn 0.54195 0.43742 0.44613 0.0
O60 O 0.51601 0.45489 0.51893 0.0
H61 H 0.49658 0.47207 0.51934 0.0
Zn62 Zn 0.41284 0.43376 0.43757 0.0
O63 O 0.41628 0.46776 0.50633 0.0
Zn64 Zn 0.41754 0.43569 0.57708 0.0
H65 H 0.42499 0.49207 0.50287 0.0
Zn66 Zn 0.58859 0.55956 0.44221 0.0
O67 O 0.57809 0.52747 0.51073 0.0
H68 H 0.5665 0.50451 0.50577 0.0
Zn69 Zn 0.57707 0.55987 0.58133 0.0
C70 C 0.58382 0.51624 0.33407 0.0
O71 O 0.55034 0.51264 0.35094 0.0
O72 O 0.39929 0.59906 0.47603 0.0
O73 O 0.40463 0.59458 0.57351 0.0
O74 O 0.57875 0.39781 0.46521 0.0
O75 O 0.58305 0.40233 0.56284 0.0
O76 O 0.39227 0.38511 0.46179 0.0
O77 O 0.39277 0.38774 0.55968 0.0
C78 C 0.51094 0.57409 0.64909 0.0
O79 O 0.61379 0.6058 0.46815 0.0
O80 O 0.6048 0.60638 0.56508 0.0
O81 O 0.51436 0.43667 0.36633 0.0
C82 C 0.38919 0.60741 0.52788 0.0
O83 O 0.46724 0.58001 0.36826 0.0
C84 C 0.48244 0.42248 0.64772 0.0
O85 O 0.39472 0.45531 0.35921 0.0
C86 C 0.59217 0.38772 0.5141 0.0
O87 O 0.60512 0.53488 0.36519 0.0
C88 C 0.40308 0.49511 0.65042 0.0
O89 O 0.47713 0.57257 0.65517 0.0
O90 O 0.5247 0.56816 0.59891 0.0
C91 C 0.38534 0.37134 0.51176 0.0
O92 O 0.51607 0.42487 0.65514 0.0
O93 O 0.46945 0.42843 0.59705 0.0
C94 C 0.59012 0.5003 0.65354 0.0
O95 O 0.39511 0.46202 0.64565 0.0
O96 O 0.42234 0.50894 0.61008 0.0
C97 C 0.6178 0.62044 0.51843 0.0
O98 O 0.59848 0.53332 0.65071 0.0
O99 O 0.57135 0.48754 0.6118 0.0
C100 C 0.51711 0.41026 0.33109 0.0
O101 O 0.53819 0.38325 0.34505 0.0
C102 C 0.49988 0.5896 0.37052 0.0
O103 O 0.51545 0.59217 0.4222 0.0
C104 C 0.28972 0.34872 0.97547 0.0
N105 N 0.32095 0.36662 0.98348 0.0
N106 N 0.27405 0.3413 0.02785 0.0
C107 C 0.27561 0.33625 0.91681 0.0
C108 C 0.2967 0.35594 0.06784 0.0
N109 N 0.32499 0.37159 0.04094 0.0
C110 C 0.29296 0.35209 0.13338 0.0
H111 H 0.24611 0.33903 0.91473 0.0
H112 H 0.28232 0.30741 0.91083 0.0
H113 H 0.2872 0.35193 0.88006 0.0
H114 H 0.31212 0.33138 0.14913 0.0
H115 H 0.26534 0.34414 0.14577 0.0
H116 H 0.29972 0.37777 0.15549 0.0
C117 C 0.70182 0.31588 0.96645 0.0
N118 N 0.68199 0.34559 0.97824 0.0
N119 N 0.71505 0.30153 0.01683 0.0
C120 C 0.71145 0.30318 0.90556 0.0
C121 C 0.70271 0.32374 0.05952 0.0
N122 N 0.68294 0.35062 0.03602 0.0
C123 C 0.70805 0.31803 0.12445 0.0
H124 H 0.69134 0.28319 0.89085 0.0
H125 H 0.73827 0.29025 0.90509 0.0
H126 H 0.71143 0.32583 0.8739 0.0
H127 H 0.7122 0.28917 0.13453 0.0
H128 H 0.68458 0.3281 0.1496 0.0
H129 H 0.73201 0.33323 0.13903 0.0
C130 C 0.69558 0.65299 0.06484 0.0
N131 N 0.66601 0.6366 0.04291 0.0
N132 N 0.71444 0.66908 0.02138 0.0
C133 C 0.70469 0.65536 0.1293 0.0
C134 C 0.69518 0.66213 0.97223 0.0
N135 N 0.66547 0.64282 0.98536 0.0
C136 C 0.70446 0.67592 0.91185 0.0
H137 H 0.7284 0.67245 0.13776 0.0
H138 H 0.71071 0.62812 0.14635 0.0
H139 H 0.68132 0.66599 0.15408 0.0
H140 H 0.73381 0.67747 0.90549 0.0
H141 H 0.69329 0.70339 0.90668 0.0
H142 H 0.69319 0.65839 0.87701 0.0
C143 C 0.27318 0.65983 0.0559 0.0
N144 N 0.29525 0.6341 0.03439 0.0
N145 N 0.26202 0.6819 0.01219 0.0
C146 C 0.26267 0.66356 0.11949 0.0
C147 C 0.27831 0.66868 0.96339 0.0
N148 N 0.29875 0.63974 0.9771 0.0
C149 C 0.27313 0.68336 0.90227 0.0
H150 H 0.23558 0.67566 0.12366 0.0
H151 H 0.28219 0.6814 0.14182 0.0
H152 H 0.26301 0.63725 0.14223 0.0
H153 H 0.26704 0.71253 0.90359 0.0
H154 H 0.25028 0.66927 0.88131 0.0
H155 H 0.29703 0.67905 0.87436 0.0
C156 C 0.79987 0.84451 0.48364 0.0
N157 N 0.83007 0.86298 0.49711 0.0
N158 N 0.78709 0.82705 0.53153 0.0
C159 C 0.78485 0.84063 0.42241 0.0
C160 C 0.81061 0.83553 0.57462 0.0
N161 N 0.83678 0.85716 0.55372 0.0
C162 C 0.80992 0.81982 0.63554 0.0
H163 H 0.77673 0.86734 0.40552 0.0
H164 H 0.76096 0.82303 0.42106 0.0
H165 H 0.80582 0.82974 0.39265 0.0
H166 H 0.82304 0.79303 0.6346 0.0
H167 H 0.78199 0.81622 0.65095 0.0
H168 H 0.82443 0.83722 0.6672 0.0
C169 C 0.19352 0.82324 0.57816 0.0
N170 N 0.17405 0.85061 0.55535 0.0
N171 N 0.2048 0.80073 0.53504 0.0
C172 C 0.19972 0.81748 0.64284 0.0
C173 C 0.19134 0.81546 0.48513 0.0
N174 N 0.17228 0.84556 0.4976 0.0
C175 C 0.20034 0.80292 0.42386 0.0
H176 H 0.22415 0.83225 0.65644 0.0
H177 H 0.20353 0.78855 0.65278 0.0
H178 H 0.1768 0.828 0.66885 0.0
H179 H 0.17983 0.7833 0.40929 0.0
H180 H 0.22698 0.78964 0.4226 0.0
H181 H 0.20044 0.82569 0.39243 0.0
C182 C 0.20336 0.15082 0.56966 0.0
N183 N 0.17486 0.13097 0.55206 0.0
N184 N 0.22444 0.15925 0.52322 0.0
C185 C 0.20781 0.16631 0.63053 0.0
C186 C 0.20761 0.14375 0.47694 0.0
N187 N 0.17722 0.12702 0.49412 0.0
C188 C 0.22074 0.14501 0.41438 0.0
H189 H 0.21917 0.19379 0.62869 0.0
H190 H 0.22656 0.14905 0.65579 0.0
H191 H 0.1819 0.16761 0.65435 0.0
H192 H 0.25018 0.14906 0.41286 0.0
H193 H 0.20748 0.16752 0.39091 0.0
H194 H 0.21375 0.11973 0.39114 0.0
C195 C 0.78121 0.16374 0.54936 0.0
N196 N 0.80152 0.13685 0.52671 0.0
N197 N 0.76361 0.18145 0.50599 0.0
C198 C 0.77649 0.17089 0.61404 0.0
C199 C 0.77395 0.16425 0.4562 0.0
N200 N 0.79662 0.13688 0.46888 0.0
C201 C 0.76457 0.17623 0.39485 0.0
H202 H 0.74964 0.18244 0.6233 0.0
H203 H 0.79715 0.19037 0.62858 0.0
H204 H 0.77992 0.14585 0.6399 0.0
H205 H 0.75872 0.20546 0.39362 0.0
H206 H 0.74045 0.16147 0.37978 0.0
H207 H 0.78679 0.17029 0.36387 0.0
H208 H 0.15938 0.14954 0.12619 0.0
H209 H 0.20473 0.34214 0.99212 0.0
H210 H 0.1164 0.1849 0.95973 0.0
H211 H 0.2825 0.27911 0.08685 0.0
H212 H 0.16209 0.29189 0.99906 0.0
H213 H 0.19476 0.2049 0.13173 0.0
C214 C 0.15699 0.16916 0.09125 0.0
C215 C 0.13519 0.1625 0.04213 0.0
C216 C 0.18839 0.28933 0.01883 0.0
C217 C 0.17508 0.22584 0.04875 0.0
C218 C 0.21262 0.31779 0.01469 0.0
C219 C 0.24715 0.31437 0.03826 0.0
C220 C 0.19863 0.25771 0.04802 0.0
C221 C 0.25599 0.28272 0.06843 0.0
C222 C 0.17726 0.20059 0.09438 0.0
C223 C 0.13317 0.18882 0.99805 0.0
N224 N 0.23189 0.25554 0.07244 0.0
N225 N 0.15287 0.2194 0.00241 0.0
H226 H 0.88329 0.15479 0.11988 0.0
H227 H 0.70723 0.23537 0.96943 0.0
H228 H 0.84302 0.11693 0.95301 0.0
H229 H 0.777 0.29903 0.07848 0.0
H230 H 0.74956 0.18491 0.97739 0.0
H231 H 0.83636 0.20118 0.12063 0.0
C232 C 0.86435 0.15598 0.08381 0.0
C233 C 0.86721 0.13225 0.03604 0.0
C234 C 0.75542 0.20989 0.99986 0.0
C235 C 0.81357 0.18474 0.03697 0.0
C236 C 0.73144 0.23858 0.99511 0.0
C237 C 0.73882 0.27125 0.0232 0.0
C238 C 0.78664 0.21383 0.03373 0.0
C239 C 0.77021 0.27407 0.05684 0.0
C240 C 0.83778 0.1825 0.08414 0.0
C241 C 0.84201 0.13497 0.99037 0.0
N242 N 0.793 0.24568 0.0613 0.0
N243 N 0.81621 0.16074 0.99198 0.0
H244 H 0.88032 0.81568 0.93139 0.0
H245 H 0.71062 0.73173 0.08007 0.0
H246 H 0.84481 0.85128 0.10253 0.0
H247 H 0.78129 0.66607 0.97558 0.0
H248 H 0.75675 0.77862 0.08378 0.0
H249 H 0.84173 0.76279 0.94053 0.0
C250 C 0.86465 0.8122 0.97107 0.0
C251 C 0.86561 0.83796 0.01617 0.0
C252 C 0.76232 0.7538 0.06056 0.0
C253 C 0.82115 0.77805 0.0263 0.0
C254 C 0.73613 0.7272 0.05853 0.0
C255 C 0.74242 0.69531 0.02742 0.0
C256 C 0.79461 0.74875 0.02995 0.0
C257 C 0.77554 0.69059 0.99945 0.0
C258 C 0.8428 0.78199 0.97631 0.0
C259 C 0.84489 0.83206 0.06675 0.0
N260 N 0.80034 0.7173 1.0006 0.0
N261 N 0.82302 0.80299 0.07005 0.0
H262 H 0.1082 0.84592 0.93219 0.0
H263 H 0.26768 0.73921 0.08484 0.0
H264 H 0.14028 0.86848 0.11092 0.0
H265 H 0.20166 0.69301 0.9492 0.0
H266 H 0.22671 0.79101 0.08986 0.0
H267 H 0.14857 0.79426 0.93115 0.0
C268 C 0.12387 0.84013 0.97117 0.0
C269 C 0.12085 0.86157 0.02177 0.0
C270 C 0.22119 0.76946 0.05914 0.0
C271 C 0.16723 0.80247 0.02061 0.0
C272 C 0.24441 0.73999 0.05642 0.0
C273 C 0.23795 0.71208 0.01639 0.0
C274 C 0.19173 0.77114 0.02081 0.0
C275 C 0.20778 0.71436 0.9799 0.0
C276 C 0.14674 0.8105 0.9706 0.0
C277 C 0.1417 0.85258 0.07107 0.0
N278 N 0.1859 0.74353 0.98263 0.0
N279 N 0.16423 0.82378 0.06916 0.0
H280 H 0.62416 0.66846 0.61052 0.0
H281 H 0.7935 0.76531 0.47158 0.0
H282 H 0.66348 0.64624 0.43551 0.0
H283 H 0.7251 0.8218 0.59303 0.0
H284 H 0.75072 0.71551 0.46964 0.0
H285 H 0.66507 0.72019 0.61599 0.0
C286 C 0.6412 0.6745 0.57328 0.0
C287 C 0.64038 0.65298 0.52248 0.0
C288 C 0.74497 0.7388 0.4967 0.0
C289 C 0.68732 0.7113 0.52899 0.0
C290 C 0.7693 0.76704 0.49773 0.0
C291 C 0.76232 0.79756 0.53186 0.0
C292 C 0.71374 0.7408 0.53099 0.0
C293 C 0.73109 0.79856 0.56608 0.0
C294 C 0.6644 0.70397 0.57643 0.0
C295 C 0.66303 0.66205 0.4755 0.0
N296 N 0.7078 0.77044 0.56496 0.0
N297 N 0.68575 0.69025 0.48015 0.0
H298 H 0.37525 0.65187 0.62139 0.0
H299 H 0.19609 0.73502 0.48627 0.0
H300 H 0.33517 0.62168 0.45027 0.0
H301 H 0.26755 0.7972 0.59471 0.0
H302 H 0.23924 0.68503 0.48851 0.0
H303 H 0.32766 0.69741 0.6284 0.0
C304 C 0.35625 0.65457 0.58561 0.0
C305 C 0.35932 0.63323 0.53492 0.0
C306 C 0.24524 0.70954 0.51222 0.0
C307 C 0.30481 0.68464 0.54314 0.0
C308 C 0.22078 0.73797 0.51081 0.0
C309 C 0.22845 0.7702 0.5401 0.0
C310 C 0.27724 0.71322 0.54411 0.0
C311 C 0.26049 0.77261 0.5722 0.0
C312 C 0.32928 0.68059 0.58958 0.0
C313 C 0.334 0.63785 0.48984 0.0
N314 N 0.28376 0.74446 0.57341 0.0
N315 N 0.30773 0.66299 0.49507 0.0
H316 H 0.35336 0.33721 0.41988 0.0
H317 H 0.28416 0.16498 0.59085 0.0
H318 H 0.37326 0.32638 0.60626 0.0
H319 H 0.22485 0.2172 0.45252 0.0
H320 H 0.32749 0.2151 0.58962 0.0
H321 H 0.31756 0.28279 0.42252 0.0
C322 C 0.35054 0.32324 0.46137 0.0
C323 C 0.3661 0.33665 0.51312 0.0
C324 C 0.30512 0.21517 0.55926 0.0
C325 C 0.32513 0.27404 0.51602 0.0
C326 C 0.28061 0.18675 0.55986 0.0
C327 C 0.25141 0.18679 0.52096 0.0
C328 C 0.3005 0.24318 0.51867 0.0
C329 C 0.24763 0.21557 0.4818 0.0
C330 C 0.32996 0.29222 0.46275 0.0
C331 C 0.36145 0.31715 0.56547 0.0
N332 N 0.272 0.24247 0.48139 0.0
N333 N 0.34125 0.2867 0.56567 0.0
H334 H 0.6009 0.33657 0.42941 0.0
H335 H 0.7728 0.24343 0.56693 0.0
H336 H 0.64182 0.3697 0.59859 0.0
H337 H 0.69797 0.18656 0.45687 0.0
H338 H 0.7305 0.2942 0.57214 0.0
H339 H 0.6425 0.28586 0.43001 0.0
C340 C 0.61877 0.33329 0.4666 0.0
C341 C 0.61789 0.35741 0.51407 0.0
C342 C 0.72337 0.2705 0.54709 0.0
C343 C 0.66571 0.29948 0.51471 0.0
C344 C 0.74734 0.24161 0.5443 0.0
C345 C 0.73878 0.21098 0.51122 0.0
C346 C 0.69103 0.26885 0.51563 0.0
C347 C 0.70574 0.21 0.48195 0.0
C348 C 0.64233 0.30421 0.46702 0.0
C349 C 0.64154 0.35165 0.56122 0.0
N350 N 0.68319 0.23865 0.48436 0.0
N351 N 0.66475 0.32335 0.56019 0.0
H352 H 0.0148 0.03525 0.26293 0.0
H353 H 0.14153 0.17328 0.42644 0.0
H354 H 0.06816 0.12243 0.1748 0.0
H355 H 0.14797 0.06136 0.47244 0.0
H356 H 0.10024 0.1584 0.34647 0.0
H357 H 0.05153 0.04691 0.3513 0.0
C358 C 0.03425 0.05681 0.2624 0.0
C359 C 0.03886 0.0779 0.21186 0.0
C360 C 0.11037 0.13709 0.37435 0.0
C361 C 0.07968 0.09178 0.31201 0.0
C362 C 0.13362 0.14558 0.41992 0.0
C363 C 0.14821 0.11839 0.45505 0.0
C364 C 0.1012 0.10113 0.36428 0.0
C365 C 0.13714 0.08288 0.44581 0.0
C366 C 0.05512 0.06331 0.31245 0.0
C367 C 0.06428 0.10539 0.21278 0.0
N368 N 0.11423 0.07509 0.40078 0.0
N369 N 0.08351 0.11181 0.26232 0.0
H370 H 0.8327 0.00667 0.16263 0.0
H371 H 0.86748 0.12624 0.45102 0.0
H372 H 0.93794 0.03749 0.22094 0.0
H373 H 0.76289 0.0945 0.39093 0.0
H374 H 0.89455 0.09206 0.36956 0.0
H375 H 0.80676 0.03809 0.2472 0.0
C376 C 0.85027 0.02079 0.19272 0.0
C377 C 0.88739 0.02091 0.18371 0.0
C378 C 0.86568 0.0923 0.37442 0.0
C379 C 0.85821 0.05599 0.28141 0.0
C380 C 0.85039 0.11146 0.4211 0.0
C381 C 0.81309 0.11301 0.42708 0.0
C382 C 0.84334 0.07471 0.33372 0.0
C383 C 0.7918 0.09394 0.38715 0.0
C384 C 0.83554 0.03851 0.24115 0.0
C385 C 0.90914 0.03866 0.22462 0.0
N386 N 0.80719 0.07575 0.34193 0.0
N387 N 0.89426 0.0555 0.27182 0.0
H388 H 0.91224 0.9047 0.15925 0.0
H389 H 0.89918 0.84327 0.48051 0.0
H390 H 0.0036 0.92541 0.27032 0.0
H391 H 0.81707 0.91472 0.41621 0.0
H392 H 0.93824 0.86204 0.39942 0.0
H393 H 0.87542 0.89611 0.24711 0.0
C394 C 0.92441 0.90822 0.20179 0.0
C395 C 0.96072 0.91721 0.20705 0.0
C396 C 0.9118 0.87386 0.40368 0.0
C397 C 0.91941 0.90508 0.30755 0.0
C398 C 0.88972 0.86354 0.45016 0.0
C399 C 0.85493 0.8776 0.45499 0.0
C400 C 0.89843 0.89736 0.36083 0.0
C401 C 0.84349 0.90284 0.41321 0.0
C402 C 0.90347 0.90296 0.25188 0.0
C403 C 0.97558 0.91899 0.26391 0.0
N404 N 0.86492 0.91142 0.367 0.0
N405 N 0.95494 0.91263 0.312 0.0
H406 H 0.12434 0.02359 0.26875 0.0
H407 H 0.12338 0.82819 0.41542 0.0
H408 H 0.08571 0.92851 0.18081 0.0
H409 H 0.18478 0.91664 0.48371 0.0
H410 H 0.10117 0.86706 0.33623 0.0
H411 H 0.13937 0.98708 0.35445 0.0
C412 C 0.1189 0.99502 0.26737 0.0
C413 C 0.10349 0.97911 0.21734 0.0
C414 C 0.11925 0.87811 0.36879 0.0
C415 C 0.12058 0.93719 0.31561 0.0
C416 C 0.13176 0.856 0.41385 0.0
C417 C 0.15587 0.86939 0.45564 0.0
C418 C 0.13091 0.91391 0.36572 0.0
C419 C 0.16594 0.90556 0.45245 0.0
C420 C 0.12746 0.97423 0.31644 0.0
C421 C 0.09699 0.94204 0.2184 0.0
N422 N 0.15355 0.92659 0.40797 0.0
N423 N 0.10558 0.92233 0.26669 0.0
H424 H 0.15154 0.02249 0.80244 0.0
H425 H 0.1046 0.87092 0.56414 0.0
H426 H 0.04396 0.98479 0.77108 0.0
H427 H 0.21145 0.89844 0.61876 0.0
H428 H 0.08078 0.91931 0.62732 0.0
H429 H 0.17278 0.98477 0.72186 0.0
C430 C 0.1323 0.00645 0.77832 0.0
C431 C 0.09602 0.00615 0.79437 0.0
C432 C 0.10947 0.915 0.62503 0.0
C433 C 0.12026 0.96255 0.70226 0.0
C434 C 0.12291 0.88758 0.58902 0.0
C435 C 0.15982 0.88081 0.58725 0.0
C436 C 0.1333 0.93576 0.65883 0.0
C437 C 0.18277 0.9028 0.61992 0.0
C438 C 0.14448 0.98481 0.73238 0.0
C439 C 0.07229 0.98515 0.76102 0.0
N440 N 0.16915 0.9292 0.6546 0.0
N441 N 0.08486 0.96385 0.71691 0.0
H442 H 0.98591 0.0782 0.76178 0.0
H443 H 0.18374 0.08929 0.64667 0.0
H444 H 0.07174 0.11897 0.87026 0.0
H445 H 0.10301 0.14372 0.54454 0.0
H446 H 0.13906 0.07792 0.72349 0.0
H447 H 0.0254 0.08295 0.67538 0.0
C448 C 0.01289 0.08822 0.76749 0.0
C449 C 0.02562 0.09803 0.82346 0.0
C450 C 0.13101 0.09151 0.68352 0.0
C451 C 0.07065 0.10242 0.72572 0.0
C452 C 0.15629 0.09787 0.63988 0.0
C453 C 0.14694 0.11755 0.58969 0.0
C454 C 0.09593 0.10416 0.6762 0.0
C455 C 0.11109 0.12816 0.58243 0.0
C456 C 0.03525 0.09084 0.71829 0.0
C457 C 0.06077 0.11102 0.82815 0.0
N458 N 0.0867 0.12149 0.62564 0.0
N459 N 0.08224 0.1123 0.78008 0.0
H460 H 0.86355 0.96058 0.74849 0.0
H461 H 0.85836 0.15332 0.59352 0.0
H462 H 0.92952 0.05055 0.79846 0.0
H463 H 0.79337 0.06487 0.53555 0.0
H464 H 0.88969 0.11318 0.66157 0.0
H465 H 0.84179 0.99522 0.66382 0.0
C466 C 0.87361 0.98751 0.74157 0.0
C467 C 0.89814 0.00287 0.78114 0.0
C468 C 0.86891 0.10223 0.63361 0.0
C469 C 0.87342 0.04256 0.68451 0.0
C470 C 0.85123 0.12515 0.59479 0.0
C471 C 0.82342 0.11217 0.55954 0.0
C472 C 0.85831 0.06608 0.6378 0.0
C473 C 0.81486 0.07559 0.56225 0.0
C474 C 0.86124 0.00723 0.69316 0.0
C475 C 0.91055 0.03767 0.76951 0.0
N476 N 0.83194 0.05379 0.60142 0.0
N477 N 0.89789 0.05636 0.7227 0.0
H478 H 0.02469 0.85648 0.76994 0.0
H479 H 0.85691 0.92493 0.58009 0.0
H480 H 0.97828 0.96202 0.79051 0.0
H481 H 0.88809 0.81414 0.59779 0.0
H482 H 0.90832 0.94242 0.64205 0.0
H483 H 0.9823 0.84425 0.69071 0.0
C484 C 0.00575 0.87723 0.75749 0.0
C485 C 0.00438 0.91002 0.78785 0.0
C486 C 0.90403 0.91432 0.63201 0.0
C487 C 0.9557 0.89614 0.69719 0.0
C488 C 0.87494 0.90448 0.59668 0.0
C489 C 0.86842 0.86816 0.58494 0.0
C490 C 0.92672 0.88751 0.65489 0.0
C491 C 0.89225 0.84236 0.60689 0.0
C492 C 0.98146 0.87017 0.71236 0.0
C493 C 0.97952 0.93602 0.76929 0.0
N494 N 0.92029 0.85251 0.64101 0.0
N495 N 0.9559 0.92844 0.72543 0.0
H496 H 0.50993 0.54001 0.75507 0.0
H497 H 0.62787 0.68664 0.91407 0.0
H498 H 0.56247 0.62493 0.65992 0.0
H499 H 0.63995 0.57589 0.96475 0.0
H500 H 0.58946 0.66802 0.83208 0.0
H501 H 0.54565 0.55539 0.84285 0.0
C502 C 0.52909 0.56179 0.75282 0.0
C503 C 0.5336 0.58125 0.70057 0.0
C504 C 0.60031 0.64782 0.86142 0.0
C505 C 0.57311 0.59953 0.80022 0.0
C506 C 0.62202 0.6584 0.90806 0.0
C507 C 0.63764 0.63259 0.94485 0.0
C508 C 0.59339 0.61123 0.85254 0.0
C509 C 0.62852 0.5964 0.9367 0.0
C510 C 0.54935 0.57044 0.80259 0.0
C511 C 0.55862 0.60916 0.69937 0.0
N512 N 0.607 0.58662 0.89099 0.0
N513 N 0.57713 0.61784 0.7488 0.0
H514 H 0.41102 0.56727 0.67335 0.0
H515 H 0.28547 0.56997 0.95531 0.0
H516 H 0.36591 0.47058 0.74612 0.0
H517 H 0.35521 0.65725 0.90884 0.0
H518 H 0.31406 0.53251 0.87937 0.0
H519 H 0.38976 0.60075 0.75802 0.0
C520 C 0.3969 0.55294 0.70704 0.0
C521 C 0.39037 0.51603 0.702 0.0
C522 C 0.32331 0.55977 0.88599 0.0
C523 C 0.36532 0.55442 0.79982 0.0
C524 C 0.30709 0.58096 0.92924 0.0
C525 C 0.31771 0.61669 0.93695 0.0
C526 C 0.3501 0.5747 0.85017 0.0
C527 C 0.34589 0.62998 0.90283 0.0
C528 C 0.38469 0.57215 0.75575 0.0
C529 C 0.3714 0.49911 0.74765 0.0
N530 N 0.36085 0.60913 0.8603 0.0
N531 N 0.35933 0.51847 0.79445 0.0
H532 H 0.43022 0.37216 0.65431 0.0
H533 H 0.35209 0.43102 0.96382 0.0
H534 H 0.48193 0.45538 0.75493 0.0
H535 H 0.35003 0.32132 0.90366 0.0
H536 H 0.39312 0.44595 0.88234 0.0
H537 H 0.39183 0.35888 0.73901 0.0
C538 C 0.43311 0.38784 0.69413 0.0
C539 C 0.45892 0.41492 0.69795 0.0
C540 C 0.38371 0.41862 0.88729 0.0
C541 C 0.41553 0.39998 0.7946 0.0
C542 C 0.3605 0.41016 0.93356 0.0
C543 C 0.3472 0.37516 0.93922 0.0
C544 C 0.39314 0.39186 0.84646 0.0
C545 C 0.35892 0.34884 0.89947 0.0
C546 C 0.41155 0.38008 0.7425 0.0
C547 C 0.4623 0.43415 0.75075 0.0
N548 N 0.38081 0.35781 0.85422 0.0
N549 N 0.44058 0.42652 0.79712 0.0
H550 H 0.62025 0.52341 0.75653 0.0
H551 H 0.63451 0.32612 0.89504 0.0
H552 H 0.58594 0.42712 0.6674 0.0
H553 H 0.6909 0.41732 0.96532 0.0
H554 H 0.60928 0.36456 0.81786 0.0
H555 H 0.63972 0.48671 0.83986 0.0
C556 C 0.61672 0.49455 0.75438 0.0
C557 C 0.60134 0.4783 0.70461 0.0
C558 C 0.62699 0.37628 0.85032 0.0
C559 C 0.62337 0.43623 0.80009 0.0
C560 C 0.6413 0.35438 0.89418 0.0
C561 C 0.66477 0.36871 0.93606 0.0
C562 C 0.63617 0.41285 0.84855 0.0
C563 C 0.67261 0.40548 0.93392 0.0
C564 C 0.6278 0.47366 0.80206 0.0
C565 C 0.59722 0.44088 0.70469 0.0
N566 N 0.65844 0.42634 0.89064 0.0
N567 N 0.60819 0.42113 0.75156 0.0
H568 H 0.65183 0.51659 0.28981 0.0
H569 H 0.61258 0.36725 0.04459 0.0
H570 H 0.54629 0.47382 0.25691 0.0
H571 H 0.71783 0.40007 0.09958 0.0
H572 H 0.58624 0.41332 0.10969 0.0
H573 H 0.67485 0.4816 0.20751 0.0
C574 C 0.63342 0.4999 0.26516 0.0
C575 C 0.59719 0.49755 0.28105 0.0
C576 C 0.61511 0.41072 0.10699 0.0
C577 C 0.62349 0.45716 0.18669 0.0
C578 C 0.62998 0.38467 0.06984 0.0
C579 C 0.66719 0.38006 0.06771 0.0
C580 C 0.63784 0.43219 0.14163 0.0
C581 C 0.68896 0.40288 0.10091 0.0
C582 C 0.64661 0.4799 0.21808 0.0
C583 C 0.57453 0.47589 0.24682 0.0
N584 N 0.67399 0.42785 0.13682 0.0
N585 N 0.58812 0.4562 0.20154 0.0
H586 H 0.47624 0.59158 0.25541 0.0
H587 H 0.67046 0.58144 0.11916 0.0
H588 H 0.57161 0.60178 0.36152 0.0
H589 H 0.59682 0.65876 0.0465 0.0
H590 H 0.62647 0.56737 0.19604 0.0
H591 H 0.51346 0.59798 0.16652 0.0
C592 C 0.50491 0.59485 0.26012 0.0
C593 C 0.52094 0.59542 0.31611 0.0
C594 C 0.61972 0.58681 0.1624 0.0
C595 C 0.56323 0.6018 0.21519 0.0
C596 C 0.64466 0.59481 0.11881 0.0
C597 C 0.63734 0.62173 0.07751 0.0
C598 C 0.58693 0.60525 0.16369 0.0
C599 C 0.60329 0.63784 0.07777 0.0
C600 C 0.52598 0.5985 0.2095 0.0
C601 C 0.55813 0.60051 0.31949 0.0
N602 N 0.57926 0.6296 0.12077 0.0
N603 N 0.57807 0.60295 0.26978 0.0
H604 H 0.34917 0.46594 0.2765 0.0
H605 H 0.36551 0.6345 0.05961 0.0
H606 H 0.43781 0.54011 0.27889 0.0
H607 H 0.26845 0.57447 0.08461 0.0
H608 H 0.39698 0.59307 0.12638 0.0
H609 H 0.32386 0.49826 0.19264 0.0
C610 C 0.36339 0.48897 0.2593 0.0
C611 C 0.39525 0.50092 0.2856 0.0
C612 C 0.36888 0.5887 0.11689 0.0
C613 C 0.36645 0.53793 0.18961 0.0
C614 C 0.35114 0.61217 0.07884 0.0
C615 C 0.31457 0.60775 0.0678 0.0
C616 C 0.34973 0.56062 0.14359 0.0
C617 C 0.29669 0.57861 0.093 0.0
C618 C 0.3489 0.5074 0.21144 0.0
C619 C 0.41278 0.53055 0.26082 0.0
N620 N 0.31439 0.5562 0.1302 0.0
N621 N 0.39803 0.54822 0.21448 0.0
H622 H 0.47673 0.46394 0.28159 0.0
H623 H 0.38648 0.33405 0.04302 0.0
H624 H 0.50626 0.3527 0.25809 0.0
H625 H 0.33694 0.43134 0.10535 0.0
H626 H 0.43905 0.34662 0.1049 0.0
H627 H 0.43407 0.45823 0.20009 0.0
C628 C 0.47417 0.43831 0.25945 0.0
C629 C 0.49435 0.40848 0.27778 0.0
C630 C 0.41693 0.36552 0.10446 0.0
C631 C 0.4458 0.40191 0.18456 0.0
C632 C 0.38723 0.35844 0.06899 0.0
C633 C 0.35776 0.38175 0.06963 0.0
C634 C 0.41703 0.39621 0.14054 0.0
C635 C 0.35938 0.41287 0.10411 0.0
C636 C 0.44989 0.43514 0.21297 0.0
C637 C 0.4909 0.37628 0.24607 0.0
N638 N 0.38849 0.41916 0.13862 0.0
N639 N 0.4668 0.37375 0.20141 0.0
loop_
_geom_bond_atom_site_label_1
_geom_bond_atom_site_label_2
_geom_bond_distance
_geom_bond_site_symmetry_2
_ccdc_geom_bond_type
Zn0 O2 1.933 1_556 S
Zn0 O20 1.985 . S
Zn0 O31 1.955 . S
Zn1 O2 1.911 . S
Zn1 O21 1.970 . S
Zn1 O37 1.945 . S
Zn1 O44 1.981 . S
O2 Zn0 1.933 1_554 S
O2 Zn1 1.911 . S
O2 H3 0.841 1_655 S
H3 O2 0.841 1_455 S
C4 O5 1.246 . S
C4 O33 1.276 1_545 S
O5 C4 1.246 . S
Zn6 O8 1.911 . S
Zn6 O23 1.970 . S
Zn6 O40 1.945 . S
Zn6 O47 1.981 . S
Zn7 O8 1.933 1_556 S
Zn7 O22 1.985 . S
Zn7 O29 1.955 . S
O8 Zn6 1.911 . S
O8 Zn7 1.933 1_554 S
O8 H9 0.841 1_455 S
H9 O8 0.841 1_655 S
Zn10 O11 1.933 1_556 S
Zn10 O24 1.985 . S
Zn10 O33 1.955 . S
O11 Zn10 1.933 1_554 S
O11 Zn12 1.911 . S
O11 H13 0.841 1_565 S
Zn12 O11 1.911 . S
Zn12 O25 1.970 . S
Zn12 O41 1.981 . S
Zn12 O43 1.945 . S
H13 O11 0.841 1_545 S
Zn14 O15 1.933 1_556 S
Zn14 O27 1.985 . S
Zn14 O35 1.955 . S
O15 Zn14 1.933 1_554 S
O15 H16 0.841 1_545 S
O15 Zn17 1.911 . S
H16 O15 0.841 1_565 S
Zn17 O15 1.911 . S
Zn17 O28 1.970 . S
Zn17 O38 1.981 . S
Zn17 O46 1.945 . S
C18 O19 1.246 . S
C18 O35 1.276 1_565 S
O19 C18 1.246 . S
O20 Zn0 1.985 . S
O20 C30 1.245 1_556 S
O21 Zn1 1.970 . S
O21 C30 1.263 . S
O22 Zn7 1.985 . S
O22 C34 1.245 1_556 S
O23 Zn6 1.970 . S
O23 C34 1.263 . S
O24 Zn10 1.985 . S
O24 C39 1.245 1_556 S
O25 Zn12 1.970 . S
O25 C39 1.263 . S
C26 O37 1.262 1_455 S
C26 O38 1.245 . S
O27 Zn14 1.985 . S
O27 C45 1.245 1_556 S
O28 Zn17 1.970 . S
O28 C45 1.263 . S
O29 Zn7 1.955 . S
O29 C48 1.276 1_455 S
C30 O20 1.245 1_554 S
C30 O21 1.263 . S
O31 Zn0 1.955 . S
O31 C50 1.276 1_655 S
C32 O40 1.262 1_655 S
C32 O41 1.245 . S
O33 C4 1.276 1_565 S
O33 Zn10 1.955 . S
C34 O22 1.245 1_554 S
C34 O23 1.263 . S
O35 Zn14 1.955 . S
O35 C18 1.276 1_545 S
C36 O43 1.262 1_545 S
C36 O44 1.245 . S
O37 Zn1 1.945 . S
O37 C26 1.262 1_655 S
O38 Zn17 1.981 . S
O38 C26 1.245 . S
C39 O24 1.245 1_554 S
C39 O25 1.263 . S
O40 Zn6 1.945 . S
O40 C32 1.262 1_455 S
O41 Zn12 1.981 . S
O41 C32 1.245 . S
C42 O46 1.262 1_565 S
C42 O47 1.245 . S
O43 Zn12 1.945 . S
O43 C36 1.262 1_565 S
O44 Zn1 1.981 . S
O44 C36 1.245 . S
C45 O27 1.245 1_554 S
C45 O28 1.263 . S
O46 Zn17 1.945 . S
O46 C42 1.262 1_545 S
O47 Zn6 1.981 . S
O47 C42 1.245 . S
C48 O29 1.276 1_655 S
C48 O49 1.246 . S
O49 C48 1.246 . S
C50 O31 1.276 1_455 S
C50 O51 1.246 . S
O51 C50 1.246 . S
Zn52 O54 1.933 . S
Zn52 O72 1.985 . S
Zn52 O83 1.955 . S
Zn53 O54 1.911 . S
Zn53 O73 1.970 . S
Zn53 O89 1.945 . S
Zn53 O96 1.981 . S
O54 Zn52 1.933 . S
O54 Zn53 1.911 . S
O54 H55 0.841 . S
H55 O54 0.841 . S
C56 O57 1.246 . S
C56 O85 1.276 . S
O57 C56 1.246 . S
Zn58 O60 1.911 . S
Zn58 O75 1.970 . S
Zn58 O92 1.945 . S
Zn58 O99 1.981 . S
Zn59 O60 1.933 . S
Zn59 O74 1.985 . S
Zn59 O81 1.955 . S
O60 Zn58 1.911 . S
O60 Zn59 1.933 . S
O60 H61 0.841 . S
H61 O60 0.841 . S
Zn62 O63 1.933 . S
Zn62 O76 1.985 . S
Zn62 O85 1.955 . S
O63 Zn62 1.933 . S
O63 Zn64 1.911 . S
O63 H65 0.841 . S
Zn64 O63 1.911 . S
Zn64 O77 1.970 . S
Zn64 O93 1.981 . S
Zn64 O95 1.945 . S
H65 O63 0.841 . S
Zn66 O67 1.933 . S
Zn66 O79 1.985 . S
Zn66 O87 1.955 . S
O67 Zn66 1.933 . S
O67 H68 0.841 . S
O67 Zn69 1.911 . S
H68 O67 0.841 . S
Zn69 O67 1.911 . S
Zn69 O80 1.970 . S
Zn69 O90 1.981 . S
Zn69 O98 1.945 . S
C70 O71 1.246 . S
C70 O87 1.276 . S
O71 C70 1.246 . S
O72 Zn52 1.985 . S
O72 C82 1.245 . S
O73 Zn53 1.970 . S
O73 C82 1.263 . S
O74 Zn59 1.985 . S
O74 C86 1.245 . S
O75 Zn58 1.970 . S
O75 C86 1.263 . S
O76 Zn62 1.985 . S
O76 C91 1.245 . S
O77 Zn64 1.970 . S
O77 C91 1.263 . S
C78 O89 1.262 . S
C78 O90 1.245 . S
O79 Zn66 1.985 . S
O79 C97 1.245 . S
O80 Zn69 1.970 . S
O80 C97 1.263 . S
O81 Zn59 1.955 . S
O81 C100 1.276 . S
C82 O72 1.245 . S
C82 O73 1.263 . S
O83 Zn52 1.955 . S
O83 C102 1.276 . S
C84 O92 1.262 . S
C84 O93 1.245 . S
O85 C56 1.276 . S
O85 Zn62 1.955 . S
C86 O74 1.245 . S
C86 O75 1.263 . S
O87 Zn66 1.955 . S
O87 C70 1.276 . S
C88 O95 1.262 . S
C88 O96 1.245 . S
O89 Zn53 1.945 . S
O89 C78 1.262 . S
O90 Zn69 1.981 . S
O90 C78 1.245 . S
C91 O76 1.245 . S
C91 O77 1.263 . S
O92 Zn58 1.945 . S
O92 C84 1.262 . S
O93 Zn64 1.981 . S
O93 C84 1.245 . S
C94 O98 1.262 . S
C94 O99 1.245 . S
O95 Zn64 1.945 . S
O95 C88 1.262 . S
O96 Zn53 1.981 . S
O96 C88 1.245 . S
C97 O79 1.245 . S
C97 O80 1.263 . S
O98 Zn69 1.945 . S
O98 C94 1.262 . S
O99 Zn58 1.981 . S
O99 C94 1.245 . S
C100 O81 1.276 . S
C100 O101 1.246 . S
O101 C100 1.246 . S
C102 O83 1.276 . S
C102 O103 1.246 . S
O103 C102 1.246 . S
C104 N105 1.317 . S
C104 N106 1.348 1_556 S
C104 C107 1.485 . S
N105 C104 1.317 . S
N105 N109 1.370 1_556 S
N106 C104 1.348 1_554 S
N106 C108 1.346 . S
C107 C104 1.485 . S
C107 H111 0.960 . S
C107 H112 0.961 . S
C107 H113 0.960 . S
C108 N106 1.346 . S
C108 N109 1.307 . S
C108 C110 1.486 . S
N109 N105 1.370 1_554 S
N109 C108 1.307 . S
C110 C108 1.486 . S
C110 H114 0.960 . S
C110 H115 0.960 . S
C110 H116 0.959 . S
H111 C107 0.960 . S
H112 C107 0.961 . S
H113 C107 0.960 . S
H114 C110 0.960 . S
H115 C110 0.960 . S
H116 C110 0.959 . S
C117 N118 1.317 . S
C117 N119 1.348 1_556 S
C117 C120 1.485 . S
N118 C117 1.317 . S
N118 N122 1.370 1_556 S
N119 C117 1.348 1_554 S
N119 C121 1.346 . S
C120 C117 1.485 . S
C120 H124 0.960 . S
C120 H125 0.961 . S
C120 H126 0.960 . S
C121 N119 1.346 . S
C121 N122 1.307 . S
C121 C123 1.486 . S
N122 N118 1.370 1_554 S
N122 C121 1.307 . S
C123 C121 1.486 . S
C123 H127 0.960 . S
C123 H128 0.960 . S
C123 H129 0.959 . S
H124 C120 0.960 . S
H125 C120 0.961 . S
H126 C120 0.960 . S
H127 C123 0.960 . S
H128 C123 0.960 . S
H129 C123 0.959 . S
C130 N131 1.317 . S
C130 N132 1.348 . S
C130 C133 1.485 . S
N131 C130 1.317 . S
N131 N135 1.370 1_554 S
N132 C130 1.348 . S
N132 C134 1.346 1_554 S
C133 C130 1.485 . S
C133 H137 0.960 . S
C133 H138 0.961 . S
C133 H139 0.960 . S
C134 N132 1.346 1_556 S
C134 N135 1.307 . S
C134 C136 1.486 . S
N135 N131 1.370 1_556 S
N135 C134 1.307 . S
C136 C134 1.486 . S
C136 H140 0.960 . S
C136 H141 0.960 . S
C136 H142 0.959 . S
H137 C133 0.960 . S
H138 C133 0.961 . S
H139 C133 0.960 . S
H140 C136 0.960 . S
H141 C136 0.960 . S
H142 C136 0.959 . S
C143 N144 1.317 . S
C143 N145 1.348 . S
C143 C146 1.485 . S
N144 C143 1.317 . S
N144 N148 1.370 1_554 S
N145 C143 1.348 . S
N145 C147 1.346 1_554 S
C146 C143 1.485 . S
C146 H150 0.960 . S
C146 H151 0.961 . S
C146 H152 0.960 . S
C147 N145 1.346 1_556 S
C147 N148 1.307 . S
C147 C149 1.486 . S
N148 N144 1.370 1_556 S
N148 C147 1.307 . S
C149 C147 1.486 . S
C149 H153 0.960 . S
C149 H154 0.960 . S
C149 H155 0.959 . S
H150 C146 0.960 . S
H151 C146 0.961 . S
H152 C146 0.960 . S
H153 C149 0.960 . S
H154 C149 0.960 . S
H155 C149 0.959 . S
C156 N157 1.317 . S
C156 N158 1.348 . S
C156 C159 1.485 . S
N157 C156 1.317 . S
N157 N161 1.370 . S
N158 C156 1.348 . S
N158 C160 1.346 . S
C159 C156 1.485 . S
C159 H163 0.960 . S
C159 H164 0.961 . S
C159 H165 0.960 . S
C160 N158 1.346 . S
C160 N161 1.307 . S
C160 C162 1.486 . S
N161 N157 1.370 . S
N161 C160 1.307 . S
C162 C160 1.486 . S
C162 H166 0.960 . S
C162 H167 0.960 . S
C162 H168 0.959 . S
H163 C159 0.960 . S
H164 C159 0.961 . S
H165 C159 0.960 . S
H166 C162 0.960 . S
H167 C162 0.960 . S
H168 C162 0.959 . S
C169 N170 1.317 . S
C169 N171 1.348 . S
C169 C172 1.485 . S
N170 C169 1.317 . S
N170 N174 1.370 . S
N171 C169 1.348 . S
N171 C173 1.346 . S
C172 C169 1.485 . S
C172 H176 0.960 . S
C172 H177 0.961 . S
C172 H178 0.960 . S
C173 N171 1.346 . S
C173 N174 1.307 . S
C173 C175 1.486 . S
N174 N170 1.370 . S
N174 C173 1.307 . S
C175 C173 1.486 . S
C175 H179 0.960 . S
C175 H180 0.960 . S
C175 H181 0.959 . S
H176 C172 0.960 . S
H177 C172 0.961 . S
H178 C172 0.960 . S
H179 C175 0.960 . S
H180 C175 0.960 . S
H181 C175 0.959 . S
C182 N183 1.317 . S
C182 N184 1.348 . S
C182 C185 1.485 . S
N183 C182 1.317 . S
N183 N187 1.370 . S
N184 C182 1.348 . S
N184 C186 1.346 . S
C185 C182 1.485 . S
C185 H189 0.960 . S
C185 H190 0.961 . S
C185 H191 0.960 . S
C186 N184 1.346 . S
C186 N187 1.307 . S
C186 C188 1.486 . S
N187 N183 1.370 . S
N187 C186 1.307 . S
C188 C186 1.486 . S
C188 H192 0.960 . S
C188 H193 0.960 . S
C188 H194 0.959 . S
H189 C185 0.960 . S
H190 C185 0.961 . S
H191 C185 0.960 . S
H192 C188 0.960 . S
H193 C188 0.960 . S
H194 C188 0.959 . S
C195 N196 1.317 . S
C195 N197 1.348 . S
C195 C198 1.485 . S
N196 C195 1.317 . S
N196 N200 1.370 . S
N197 C195 1.348 . S
N197 C199 1.346 . S
C198 C195 1.485 . S
C198 H202 0.960 . S
C198 H203 0.961 . S
C198 H204 0.960 . S
C199 N197 1.346 . S
C199 N200 1.307 . S
C199 C201 1.486 . S
N200 N196 1.370 . S
N200 C199 1.307 . S
C201 C199 1.486 . S
C201 H205 0.960 . S
C201 H206 0.960 . S
C201 H207 0.959 . S
H202 C198 0.960 . S
H203 C198 0.961 . S
H204 C198 0.960 . S
H205 C201 0.960 . S
H206 C201 0.960 . S
H207 C201 0.959 . S
H208 C214 0.930 . S
H209 C218 0.930 . S
H210 C223 0.929 . S
H211 C221 0.929 . S
H212 C216 0.929 . S
H213 C222 0.929 . S
C214 H208 0.930 . S
C214 C215 1.367 . S
C214 C222 1.378 . S
C215 C214 1.367 . S
C215 C223 1.433 1_554 S
C216 H212 0.929 . S
C216 C218 1.378 . S
C216 C220 1.350 1_556 S
C217 C220 1.463 . S
C217 C222 1.350 . S
C217 N225 1.427 1_554 S
C218 H209 0.930 . S
C218 C216 1.378 . S
C218 C219 1.367 1_556 S
C219 C218 1.367 1_554 S
C219 C221 1.433 . S
C220 C216 1.350 1_554 S
C220 C217 1.463 . S
C220 N224 1.427 . S
C221 H211 0.929 . S
C221 C219 1.433 . S
C221 N224 1.384 . S
C222 H213 0.929 . S
C222 C214 1.378 . S
C222 C217 1.350 . S
C223 H210 0.929 . S
C223 C215 1.433 1_556 S
C223 N225 1.384 . S
N224 C220 1.427 . S
N224 C221 1.384 . S
N225 C217 1.427 1_556 S
N225 C223 1.384 . S
H226 C232 0.930 . S
H227 C236 0.930 . S
H228 C241 0.929 . S
H229 C239 0.929 . S
H230 C234 0.929 . S
H231 C240 0.929 . S
C232 H226 0.930 . S
C232 C233 1.367 . S
C232 C240 1.378 . S
C233 C232 1.367 . S
C233 C241 1.433 1_554 S
C234 H230 0.929 . S
C234 C236 1.378 . S
C234 C238 1.350 1_556 S
C235 C238 1.463 . S
C235 C240 1.350 . S
C235 N243 1.427 1_554 S
C236 H227 0.930 . S
C236 C234 1.378 . S
C236 C237 1.367 1_556 S
C237 C236 1.367 1_554 S
C237 C239 1.433 . S
C238 C234 1.350 1_554 S
C238 C235 1.463 . S
C238 N242 1.427 . S
C239 H229 0.929 . S
C239 C237 1.433 . S
C239 N242 1.384 . S
C240 H231 0.929 . S
C240 C232 1.378 . S
C240 C235 1.350 . S
C241 H228 0.929 . S
C241 C233 1.433 1_556 S
C241 N243 1.384 . S
N242 C238 1.427 . S
N242 C239 1.384 . S
N243 C235 1.427 1_556 S
N243 C241 1.384 . S
H244 C250 0.930 . S
H245 C254 0.930 . S
H246 C259 0.929 . S
H247 C257 0.930 . S
H248 C252 0.929 . S
H249 C258 0.929 . S
C250 H244 0.930 . S
C250 C251 1.367 . S
C250 C258 1.378 . S
C251 C250 1.367 . S
C251 C259 1.433 . S
C252 H248 0.929 . S
C252 C254 1.378 . S
C252 C256 1.350 . S
C253 C256 1.463 . S
C253 C258 1.350 . S
C253 N261 1.427 . S
C254 H245 0.930 . S
C254 C252 1.378 . S
C254 C255 1.367 . S
C255 C254 1.367 . S
C255 C257 1.433 . S
C256 C252 1.350 . S
C256 C253 1.463 . S
C256 N260 1.427 . S
C257 H247 0.930 . S
C257 C255 1.433 . S
C257 N260 1.384 . S
C258 H249 0.929 . S
C258 C250 1.378 . S
C258 C253 1.350 . S
C259 H246 0.929 . S
C259 C251 1.433 . S
C259 N261 1.384 . S
N260 C256 1.427 . S
N260 C257 1.384 . S
N261 C253 1.427 . S
N261 C259 1.384 . S
H262 C268 0.930 . S
H263 C272 0.930 . S
H264 C277 0.929 . S
H265 C275 0.929 . S
H266 C270 0.929 . S
H267 C276 0.929 . S
C268 H262 0.930 . S
C268 C269 1.367 1_556 S
C268 C276 1.378 . S
C269 C268 1.367 1_554 S
C269 C277 1.433 . S
C270 H266 0.929 . S
C270 C272 1.378 . S
C270 C274 1.350 . S
C271 C274 1.463 . S
C271 C276 1.350 1_554 S
C271 N279 1.427 . S
C272 H263 0.930 . S
C272 C270 1.378 . S
C272 C273 1.367 . S
C273 C272 1.367 . S
C273 C275 1.433 1_554 S
C274 C270 1.350 . S
C274 C271 1.463 . S
C274 N278 1.427 1_554 S
C275 H265 0.929 . S
C275 C273 1.433 1_556 S
C275 N278 1.384 . S
C276 H267 0.929 . S
C276 C268 1.378 . S
C276 C271 1.350 1_556 S
C277 H264 0.929 . S
C277 C269 1.433 . S
C277 N279 1.384 . S
N278 C274 1.427 1_556 S
N278 C275 1.384 . S
N279 C271 1.427 . S
N279 C277 1.384 . S
H280 C286 0.930 . S
H281 C290 0.930 . S
H282 C295 0.929 . S
H283 C293 0.929 . S
H284 C288 0.929 . S
H285 C294 0.929 . S
C286 H280 0.930 . S
C286 C287 1.367 . S
C286 C294 1.378 . S
C287 C286 1.367 . S
C287 C295 1.433 . S
C288 H284 0.929 . S
C288 C290 1.378 . S
C288 C292 1.350 . S
C289 C292 1.463 . S
C289 C294 1.350 . S
C289 N297 1.427 . S
C290 H281 0.930 . S
C290 C288 1.378 . S
C290 C291 1.367 . S
C291 C290 1.367 . S
C291 C293 1.433 . S
C292 C288 1.350 . S
C292 C289 1.463 . S
C292 N296 1.427 . S
C293 H283 0.929 . S
C293 C291 1.433 . S
C293 N296 1.384 . S
C294 H285 0.929 . S
C294 C286 1.378 . S
C294 C289 1.350 . S
C295 H282 0.929 . S
C295 C287 1.433 . S
C295 N297 1.384 . S
N296 C292 1.427 . S
N296 C293 1.384 . S
N297 C289 1.427 . S
N297 C295 1.384 . S
H298 C304 0.930 . S
H299 C308 0.930 . S
H300 C313 0.929 . S
H301 C311 0.929 . S
H302 C306 0.929 . S
H303 C312 0.929 . S
C304 H298 0.930 . S
C304 C305 1.367 . S
C304 C312 1.378 . S
C305 C304 1.367 . S
C305 C313 1.433 . S
C306 H302 0.929 . S
C306 C308 1.378 . S
C306 C310 1.350 . S
C307 C310 1.463 . S
C307 C312 1.350 . S
C307 N315 1.427 . S
C308 H299 0.930 . S
C308 C306 1.378 . S
C308 C309 1.367 . S
C309 C308 1.367 . S
C309 C311 1.433 . S
C310 C306 1.350 . S
C310 C307 1.463 . S
C310 N314 1.427 . S
C311 H301 0.929 . S
C311 C309 1.433 . S
C311 N314 1.384 . S
C312 H303 0.929 . S
C312 C304 1.378 . S
C312 C307 1.350 . S
C313 H300 0.929 . S
C313 C305 1.433 . S
C313 N315 1.384 . S
N314 C310 1.427 . S
N314 C311 1.384 . S
N315 C307 1.427 . S
N315 C313 1.384 . S
H316 C322 0.930 . S
H317 C326 0.930 . S
H318 C331 0.929 . S
H319 C329 0.929 . S
H320 C324 0.929 . S
H321 C330 0.929 . S
C322 H316 0.930 . S
C322 C323 1.367 . S
C322 C330 1.378 . S
C323 C322 1.367 . S
C323 C331 1.433 . S
C324 H320 0.929 . S
C324 C326 1.378 . S
C324 C328 1.350 . S
C325 C328 1.463 . S
C325 C330 1.350 . S
C325 N333 1.427 . S
C326 H317 0.930 . S
C326 C324 1.378 . S
C326 C327 1.367 . S
C327 C326 1.367 . S
C327 C329 1.433 . S
C328 C324 1.350 . S
C328 C325 1.463 . S
C328 N332 1.427 . S
C329 H319 0.929 . S
C329 C327 1.433 . S
C329 N332 1.384 . S
C330 H321 0.929 . S
C330 C322 1.378 . S
C330 C325 1.350 . S
C331 H318 0.929 . S
C331 C323 1.433 . S
C331 N333 1.384 . S
N332 C328 1.427 . S
N332 C329 1.384 . S
N333 C325 1.427 . S
N333 C331 1.384 . S
H334 C340 0.930 . S
H335 C344 0.930 . S
H336 C349 0.929 . S
H337 C347 0.929 . S
H338 C342 0.929 . S
H339 C348 0.929 . S
C340 H334 0.930 . S
C340 C341 1.367 . S
C340 C348 1.378 . S
C341 C340 1.367 . S
C341 C349 1.433 . S
C342 H338 0.929 . S
C342 C344 1.378 . S
C342 C346 1.350 . S
C343 C346 1.463 . S
C343 C348 1.350 . S
C343 N351 1.427 . S
C344 H335 0.930 . S
C344 C342 1.378 . S
C344 C345 1.367 . S
C345 C344 1.367 . S
C345 C347 1.433 . S
C346 C342 1.350 . S
C346 C343 1.463 . S
C346 N350 1.427 . S
C347 H337 0.929 . S
C347 C345 1.433 . S
C347 N350 1.384 . S
C348 H339 0.929 . S
C348 C340 1.378 . S
C348 C343 1.350 . S
C349 H336 0.929 . S
C349 C341 1.433 . S
C349 N351 1.384 . S
N350 C346 1.427 . S
N350 C347 1.384 . S
N351 C343 1.427 . S
N351 C349 1.384 . S
H352 C358 0.930 . S
H353 C362 0.930 . S
H354 C367 0.929 . S
H355 C365 0.929 . S
H356 C360 0.929 . S
H357 C366 0.929 . S
C358 H352 0.930 . S
C358 C359 1.367 . S
C358 C366 1.378 . S
C359 C358 1.367 . S
C359 C367 1.433 . S
C360 H356 0.929 . S
C360 C362 1.378 . S
C360 C364 1.350 . S
C361 C364 1.463 . S
C361 C366 1.350 . S
C361 N369 1.427 . S
C362 H353 0.930 . S
C362 C360 1.378 . S
C362 C363 1.367 . S
C363 C362 1.367 . S
C363 C365 1.433 . S
C364 C360 1.350 . S
C364 C361 1.463 . S
C364 N368 1.427 . S
C365 H355 0.929 . S
C365 C363 1.433 . S
C365 N368 1.384 . S
C366 H357 0.929 . S
C366 C358 1.378 . S
C366 C361 1.350 . S
C367 H354 0.929 . S
C367 C359 1.433 . S
C367 N369 1.384 . S
N368 C364 1.427 . S
N368 C365 1.384 . S
N369 C361 1.427 . S
N369 C367 1.384 . S
H370 C376 0.930 . S
H371 C380 0.930 . S
H372 C385 0.929 . S
H373 C383 0.929 . S
H374 C378 0.929 . S
H375 C384 0.929 . S
C376 H370 0.930 . S
C376 C377 1.367 . S
C376 C384 1.378 . S
C377 C376 1.367 . S
C377 C385 1.433 . S
C378 H374 0.929 . S
C378 C380 1.378 . S
C378 C382 1.350 . S
C379 C382 1.463 . S
C379 C384 1.350 . S
C379 N387 1.427 . S
C380 H371 0.930 . S
C380 C378 1.378 . S
C380 C381 1.367 . S
C381 C380 1.367 . S
C381 C383 1.433 . S
C382 C378 1.350 . S
C382 C379 1.463 . S
C382 N386 1.427 . S
C383 H373 0.929 . S
C383 C381 1.433 . S
C383 N386 1.384 . S
C384 H375 0.929 . S
C384 C376 1.378 . S
C384 C379 1.350 . S
C385 H372 0.929 . S
C385 C377 1.433 . S
C385 N387 1.384 . S
N386 C382 1.427 . S
N386 C383 1.384 . S
N387 C379 1.427 . S
N387 C385 1.384 . S
H388 C394 0.930 . S
H389 C398 0.930 . S
H390 C403 0.929 . S
H391 C401 0.929 . S
H392 C396 0.929 . S
H393 C402 0.929 . S
C394 H388 0.930 . S
C394 C395 1.367 . S
C394 C402 1.378 . S
C395 C394 1.367 . S
C395 C403 1.433 . S
C396 H392 0.929 . S
C396 C398 1.378 . S
C396 C400 1.350 . S
C397 C400 1.463 . S
C397 C402 1.350 . S
C397 N405 1.427 . S
C398 H389 0.930 . S
C398 C396 1.378 . S
C398 C399 1.367 . S
C399 C398 1.367 . S
C399 C401 1.433 . S
C400 C396 1.350 . S
C400 C397 1.463 . S
C400 N404 1.427 . S
C401 H391 0.929 . S
C401 C399 1.433 . S
C401 N404 1.384 . S
C402 H393 0.929 . S
C402 C394 1.378 . S
C402 C397 1.350 . S
C403 H390 0.929 . S
C403 C395 1.433 . S
C403 N405 1.384 . S
N404 C400 1.427 . S
N404 C401 1.384 . S
N405 C397 1.427 . S
N405 C403 1.384 . S
H406 C412 0.930 . S
H407 C416 0.930 . S
H408 C421 0.929 . S
H409 C419 0.929 . S
H410 C414 0.929 . S
H411 C420 0.929 . S
C412 H406 0.930 . S
C412 C413 1.367 . S
C412 C420 1.378 . S
C413 C412 1.367 . S
C413 C421 1.433 . S
C414 H410 0.929 . S
C414 C416 1.378 . S
C414 C418 1.350 . S
C415 C418 1.463 . S
C415 C420 1.350 . S
C415 N423 1.427 . S
C416 H407 0.930 . S
C416 C414 1.378 . S
C416 C417 1.367 . S
C417 C416 1.367 . S
C417 C419 1.433 . S
C418 C414 1.350 . S
C418 C415 1.463 . S
C418 N422 1.427 . S
C419 H409 0.929 . S
C419 C417 1.433 . S
C419 N422 1.384 . S
C420 H411 0.929 . S
C420 C412 1.378 . S
C420 C415 1.350 . S
C421 H408 0.929 . S
C421 C413 1.433 . S
C421 N423 1.384 . S
N422 C418 1.427 . S
N422 C419 1.384 . S
N423 C415 1.427 . S
N423 C421 1.384 . S
H424 C430 0.930 . S
H425 C434 0.930 . S
H426 C439 0.929 . S
H427 C437 0.929 . S
H428 C432 0.929 . S
H429 C438 0.929 . S
C430 H424 0.930 . S
C430 C431 1.367 . S
C430 C438 1.378 . S
C431 C430 1.367 . S
C431 C439 1.433 . S
C432 H428 0.929 . S
C432 C434 1.378 . S
C432 C436 1.350 . S
C433 C436 1.463 . S
C433 C438 1.350 . S
C433 N441 1.427 . S
C434 H425 0.930 . S
C434 C432 1.378 . S
C434 C435 1.367 . S
C435 C434 1.367 . S
C435 C437 1.433 . S
C436 C432 1.350 . S
C436 C433 1.463 . S
C436 N440 1.427 . S
C437 H427 0.929 . S
C437 C435 1.433 . S
C437 N440 1.384 . S
C438 H429 0.929 . S
C438 C430 1.378 . S
C438 C433 1.350 . S
C439 H426 0.929 . S
C439 C431 1.433 . S
C439 N441 1.384 . S
N440 C436 1.427 . S
N440 C437 1.384 . S
N441 C433 1.427 . S
N441 C439 1.384 . S
H442 C448 0.930 . S
H443 C452 0.930 . S
H444 C457 0.929 . S
H445 C455 0.929 . S
H446 C450 0.929 . S
H447 C456 0.929 . S
C448 H442 0.930 . S
C448 C449 1.367 . S
C448 C456 1.378 . S
C449 C448 1.367 . S
C449 C457 1.433 . S
C450 H446 0.929 . S
C450 C452 1.378 . S
C450 C454 1.350 . S
C451 C454 1.463 . S
C451 C456 1.350 . S
C451 N459 1.427 . S
C452 H443 0.930 . S
C452 C450 1.378 . S
C452 C453 1.367 . S
C453 C452 1.367 . S
C453 C455 1.433 . S
C454 C450 1.350 . S
C454 C451 1.463 . S
C454 N458 1.427 . S
C455 H445 0.929 . S
C455 C453 1.433 . S
C455 N458 1.384 . S
C456 H447 0.929 . S
C456 C448 1.378 . S
C456 C451 1.350 . S
C457 H444 0.929 . S
C457 C449 1.433 . S
C457 N459 1.384 . S
N458 C454 1.427 . S
N458 C455 1.384 . S
N459 C451 1.427 . S
N459 C457 1.384 . S
H460 C466 0.930 . S
H461 C470 0.930 . S
H462 C475 0.929 . S
H463 C473 0.929 . S
H464 C468 0.929 . S
H465 C474 0.929 . S
C466 H460 0.930 . S
C466 C467 1.367 . S
C466 C474 1.378 . S
C467 C466 1.367 . S
C467 C475 1.433 . S
C468 H464 0.929 . S
C468 C470 1.378 . S
C468 C472 1.350 . S
C469 C472 1.463 . S
C469 C474 1.350 . S
C469 N477 1.427 . S
C470 H461 0.930 . S
C470 C468 1.378 . S
C470 C471 1.367 . S
C471 C470 1.367 . S
C471 C473 1.433 . S
C472 C468 1.350 . S
C472 C469 1.463 . S
C472 N476 1.427 . S
C473 H463 0.929 . S
C473 C471 1.433 . S
C473 N476 1.384 . S
C474 H465 0.929 . S
C474 C466 1.378 . S
C474 C469 1.350 . S
C475 H462 0.929 . S
C475 C467 1.433 . S
C475 N477 1.384 . S
N476 C472 1.427 . S
N476 C473 1.384 . S
N477 C469 1.427 . S
N477 C475 1.384 . S
H478 C484 0.930 . S
H479 C488 0.930 . S
H480 C493 0.929 . S
H481 C491 0.929 . S
H482 C486 0.929 . S
H483 C492 0.929 . S
C484 H478 0.930 . S
C484 C485 1.367 . S
C484 C492 1.378 . S
C485 C484 1.367 . S
C485 C493 1.433 . S
C486 H482 0.929 . S
C486 C488 1.378 . S
C486 C490 1.350 . S
C487 C490 1.463 . S
C487 C492 1.350 . S
C487 N495 1.427 . S
C488 H479 0.930 . S
C488 C486 1.378 . S
C488 C489 1.367 . S
C489 C488 1.367 . S
C489 C491 1.433 . S
C490 C486 1.350 . S
C490 C487 1.463 . S
C490 N494 1.427 . S
C491 H481 0.929 . S
C491 C489 1.433 . S
C491 N494 1.384 . S
C492 H483 0.929 . S
C492 C484 1.378 . S
C492 C487 1.350 . S
C493 H480 0.929 . S
C493 C485 1.433 . S
C493 N495 1.384 . S
N494 C490 1.427 . S
N494 C491 1.384 . S
N495 C487 1.427 . S
N495 C493 1.384 . S
H496 C502 0.930 . S
H497 C506 0.930 . S
H498 C511 0.929 . S
H499 C509 0.929 . S
H500 C504 0.929 . S
H501 C510 0.929 . S
C502 H496 0.930 . S
C502 C503 1.367 . S
C502 C510 1.378 . S
C503 C502 1.367 . S
C503 C511 1.433 . S
C504 H500 0.929 . S
C504 C506 1.378 . S
C504 C508 1.350 . S
C505 C508 1.463 . S
C505 C510 1.350 . S
C505 N513 1.427 . S
C506 H497 0.930 . S
C506 C504 1.378 . S
C506 C507 1.367 . S
C507 C506 1.367 . S
C507 C509 1.433 . S
C508 C504 1.350 . S
C508 C505 1.463 . S
C508 N512 1.427 . S
C509 H499 0.929 . S
C509 C507 1.433 . S
C509 N512 1.384 . S
C510 H501 0.929 . S
C510 C502 1.378 . S
C510 C505 1.350 . S
C511 H498 0.929 . S
C511 C503 1.433 . S
C511 N513 1.384 . S
N512 C508 1.427 . S
N512 C509 1.384 . S
N513 C505 1.427 . S
N513 C511 1.384 . S
H514 C520 0.930 . S
H515 C524 0.930 . S
H516 C529 0.929 . S
H517 C527 0.929 . S
H518 C522 0.929 . S
H519 C528 0.929 . S
C520 H514 0.930 . S
C520 C521 1.367 . S
C520 C528 1.378 . S
C521 C520 1.367 . S
C521 C529 1.433 . S
C522 H518 0.929 . S
C522 C524 1.378 . S
C522 C526 1.350 . S
C523 C526 1.463 . S
C523 C528 1.350 . S
C523 N531 1.427 . S
C524 H515 0.930 . S
C524 C522 1.378 . S
C524 C525 1.367 . S
C525 C524 1.367 . S
C525 C527 1.433 . S
C526 C522 1.350 . S
C526 C523 1.463 . S
C526 N530 1.427 . S
C527 H517 0.929 . S
C527 C525 1.433 . S
C527 N530 1.384 . S
C528 H519 0.929 . S
C528 C520 1.378 . S
C528 C523 1.350 . S
C529 H516 0.929 . S
C529 C521 1.433 . S
C529 N531 1.384 . S
N530 C526 1.427 . S
N530 C527 1.384 . S
N531 C523 1.427 . S
N531 C529 1.384 . S
H532 C538 0.930 . S
H533 C542 0.930 . S
H534 C547 0.929 . S
H535 C545 0.929 . S
H536 C540 0.929 . S
H537 C546 0.929 . S
C538 H532 0.930 . S
C538 C539 1.367 . S
C538 C546 1.378 . S
C539 C538 1.367 . S
C539 C547 1.433 . S
C540 H536 0.929 . S
C540 C542 1.378 . S
C540 C544 1.350 . S
C541 C544 1.463 . S
C541 C546 1.350 . S
C541 N549 1.427 . S
C542 H533 0.930 . S
C542 C540 1.378 . S
C542 C543 1.367 . S
C543 C542 1.367 . S
C543 C545 1.433 . S
C544 C540 1.350 . S
C544 C541 1.463 . S
C544 N548 1.427 . S
C545 H535 0.929 . S
C545 C543 1.433 . S
C545 N548 1.384 . S
C546 H537 0.929 . S
C546 C538 1.378 . S
C546 C541 1.350 . S
C547 H534 0.929 . S
C547 C539 1.433 . S
C547 N549 1.384 . S
N548 C544 1.427 . S
N548 C545 1.384 . S
N549 C541 1.427 . S
N549 C547 1.384 . S
H550 C556 0.930 . S
H551 C560 0.930 . S
H552 C565 0.929 . S
H553 C563 0.929 . S
H554 C558 0.929 . S
H555 C564 0.929 . S
C556 H550 0.930 . S
C556 C557 1.367 . S
C556 C564 1.378 . S
C557 C556 1.367 . S
C557 C565 1.433 . S
C558 H554 0.929 . S
C558 C560 1.378 . S
C558 C562 1.350 . S
C559 C562 1.463 . S
C559 C564 1.350 . S
C559 N567 1.427 . S
C560 H551 0.930 . S
C560 C558 1.378 . S
C560 C561 1.367 . S
C561 C560 1.367 . S
C561 C563 1.433 . S
C562 C558 1.350 . S
C562 C559 1.463 . S
C562 N566 1.427 . S
C563 H553 0.929 . S
C563 C561 1.433 . S
C563 N566 1.384 . S
C564 H555 0.929 . S
C564 C556 1.378 . S
C564 C559 1.350 . S
C565 H552 0.929 . S
C565 C557 1.433 . S
C565 N567 1.384 . S
N566 C562 1.427 . S
N566 C563 1.384 . S
N567 C559 1.427 . S
N567 C565 1.384 . S
H568 C574 0.930 . S
H569 C578 0.930 . S
H570 C583 0.929 . S
H571 C581 0.929 . S
H572 C576 0.929 . S
H573 C582 0.929 . S
C574 H568 0.930 . S
C574 C575 1.367 . S
C574 C582 1.378 . S
C575 C574 1.367 . S
C575 C583 1.433 . S
C576 H572 0.929 . S
C576 C578 1.378 . S
C576 C580 1.350 . S
C577 C580 1.463 . S
C577 C582 1.350 . S
C577 N585 1.427 . S
C578 H569 0.930 . S
C578 C576 1.378 . S
C578 C579 1.367 . S
C579 C578 1.367 . S
C579 C581 1.433 . S
C580 C576 1.350 . S
C580 C577 1.463 . S
C580 N584 1.427 . S
C581 H571 0.929 . S
C581 C579 1.433 . S
C581 N584 1.384 . S
C582 H573 0.929 . S
C582 C574 1.378 . S
C582 C577 1.350 . S
C583 H570 0.929 . S
C583 C575 1.433 . S
C583 N585 1.384 . S
N584 C580 1.427 . S
N584 C581 1.384 . S
N585 C577 1.427 . S
N585 C583 1.384 . S
H586 C592 0.930 . S
H587 C596 0.930 . S
H588 C601 0.929 . S
H589 C599 0.929 . S
H590 C594 0.929 . S
H591 C600 0.929 . S
C592 H586 0.930 . S
C592 C593 1.367 . S
C592 C600 1.378 . S
C593 C592 1.367 . S
C593 C601 1.433 . S
C594 H590 0.929 . S
C594 C596 1.378 . S
C594 C598 1.350 . S
C595 C598 1.463 . S
C595 C600 1.350 . S
C595 N603 1.427 . S
C596 H587 0.930 . S
C596 C594 1.378 . S
C596 C597 1.367 . S
C597 C596 1.367 . S
C597 C599 1.433 . S
C598 C594 1.350 . S
C598 C595 1.463 . S
C598 N602 1.427 . S
C599 H589 0.929 . S
C599 C597 1.433 . S
C599 N602 1.384 . S
C600 H591 0.929 . S
C600 C592 1.378 . S
C600 C595 1.350 . S
C601 H588 0.929 . S
C601 C593 1.433 . S
C601 N603 1.384 . S
N602 C598 1.427 . S
N602 C599 1.384 . S
N603 C595 1.427 . S
N603 C601 1.384 . S
H604 C610 0.930 . S
H605 C614 0.930 . S
H606 C619 0.929 . S
H607 C617 0.929 . S
H608 C612 0.929 . S
H609 C618 0.929 . S
C610 H604 0.930 . S
C610 C611 1.367 . S
C610 C618 1.378 . S
C611 C610 1.367 . S
C611 C619 1.433 . S
C612 H608 0.929 . S
C612 C614 1.378 . S
C612 C616 1.350 . S
C613 C616 1.463 . S
C613 C618 1.350 . S
C613 N621 1.427 . S
C614 H605 0.930 . S
C614 C612 1.378 . S
C614 C615 1.367 . S
C615 C614 1.367 . S
C615 C617 1.433 . S
C616 C612 1.350 . S
C616 C613 1.463 . S
C616 N620 1.427 . S
C617 H607 0.929 . S
C617 C615 1.433 . S
C617 N620 1.384 . S
C618 H609 0.929 . S
C618 C610 1.378 . S
C618 C613 1.350 . S
C619 H606 0.929 . S
C619 C611 1.433 . S
C619 N621 1.384 . S
N620 C616 1.427 . S
N620 C617 1.384 . S
N621 C613 1.427 . S
N621 C619 1.384 . S
H622 C628 0.930 . S
H623 C632 0.930 . S
H624 C637 0.929 . S
H625 C635 0.929 . S
H626 C630 0.929 . S
H627 C636 0.929 . S
C628 H622 0.930 . S
C628 C629 1.367 . S
C628 C636 1.378 . S
C629 C628 1.367 . S
C629 C637 1.433 . S
C630 H626 0.929 . S
C630 C632 1.378 . S
C630 C634 1.350 . S
C631 C634 1.463 . S
C631 C636 1.350 . S
C631 N639 1.427 . S
C632 H623 0.930 . S
C632 C630 1.378 . S
C632 C633 1.367 . S
C633 C632 1.367 . S
C633 C635 1.433 . S
C634 C630 1.350 . S
C634 C631 1.463 . S
C634 N638 1.427 . S
C635 H625 0.929 . S
C635 C633 1.433 . S
C635 N638 1.384 . S
C636 H627 0.929 . S
C636 C628 1.378 . S
C636 C631 1.350 . S
C637 H624 0.929 . S
C637 C629 1.433 . S
C637 N639 1.384 . S
N638 C634 1.427 . S
N638 C635 1.384 . S
N639 C631 1.427 . S
N639 C637 1.384 . S
C215 C45 1.544 . S
C219 N106 1.555 . S
C233 C30 1.543 . S
C237 N119 1.554 . S
C251 C39 1.550 . S
C255 N132 1.551 . S
C273 N145 1.544 . S
C269 C34 1.543 . S
C287 C97 1.550 . S
C291 N158 1.559 . S
C309 N171 1.548 . S
C305 C82 1.546 . S
C327 N184 1.543 . S
C323 C91 1.542 . S
C345 N197 1.544 . S
C341 C86 1.543 . S
C363 N187 1.528 . S
C359 C26 1.501 . S
C381 N200 1.530 . S
C377 C36 1.489 . S
C399 N157 1.538 . S
C395 C32 1.501 . S
C417 N174 1.526 . S
C413 C42 1.499 . S
C431 C18 1.544 . S
C435 N170 1.588 . S
C453 N183 1.589 . S
C449 C50 1.554 . S
C467 C4 1.545 . S
C471 N196 1.588 . S
C485 C48 1.547 . S
C489 N161 1.609 . S
C507 N135 1.530 . S
C503 C78 1.502 . S
C521 C88 1.496 . S
C525 N148 1.534 . S
C543 N105 1.536 . S
C539 C84 1.487 . S
C561 N118 1.533 . S
C557 C94 1.497 . S
C579 N122 1.603 . S
C575 C70 1.548 . S
C597 N131 1.588 . S
C593 C102 1.545 . S
C611 C56 1.549 . S
C615 N144 1.587 . S
C629 C100 1.560 . S
C633 N109 1.606 . S
