# Generated by pormake.
# Topology hwx, (6,3)-cn, num edge types: 1
# Building blocks:
#     Node 0, Type 0, BuildingBlock: IZENUY_clean_sbu_0, # of connection points: 6
#     Node 1, Type 0, BuildingBlock: IZENUY_clean_sbu_0, # of connection points: 6
#     Node 2, Type 0, BuildingBlock: IZENUY_clean_sbu_0, # of connection points: 6
#     Node 3, Type 0, BuildingBlock: IZENUY_clean_sbu_0, # of connection points: 6
#     Node 4, Type 1, BuildingBlock: QEWDON_clean_linker_0, # of connection points: 3
#     Node 5, Type 1, BuildingBlock: QEWDON_clean_linker_0, # of connection points: 3
#     Node 6, Type 1, BuildingBlock: QEWDON_clean_linker_0, # of connection points: 3
#     Node 7, Type 1, BuildingBlock: QEWDON_clean_linker_0, # of connection points: 3
#     Node 8, Type 1, BuildingBlock: QEWDON_clean_linker_0, # of connection points: 3
#     Node 9, Type 1, BuildingBlock: QEWDON_clean_linker_0, # of connection points: 3
#     Node 10, Type 1, BuildingBlock: QEWDON_clean_linker_0, # of connection points: 3
#     Node 11, Type 1, BuildingBlock: QEWDON_clean_linker_0, # of connection points: 3
#     Edge 12, Type (0, 1), BuildingBlock: MIFKUJ_clean_linker_0, # of connection points: 2
#     Edge 13, Type (0, 1), BuildingBlock: MIFKUJ_clean_linker_0, # of connection points: 2
#     Edge 14, Type (0, 1), BuildingBlock: MIFKUJ_clean_linker_0, # of connection points: 2
#     Edge 15, Type (0, 1), BuildingBlock: MIFKUJ_clean_linker_0, # of connection points: 2
#     Edge 16, Type (0, 1), BuildingBlock: MIFKUJ_clean_linker_0, # of connection points: 2
#     Edge 17, Type (0, 1), BuildingBlock: MIFKUJ_clean_linker_0, # of connection points: 2
#     Edge 18, Type (0, 1), BuildingBlock: MIFKUJ_clean_linker_0, # of connection points: 2
#     Edge 19, Type (0, 1), BuildingBlock: MIFKUJ_clean_linker_0, # of connection points: 2
#     Edge 20, Type (0, 1), BuildingBlock: MIFKUJ_clean_linker_0, # of connection points: 2
#     Edge 21, Type (0, 1), BuildingBlock: MIFKUJ_clean_linker_0, # of connection points: 2
#     Edge 22, Type (0, 1), BuildingBlock: MIFKUJ_clean_linker_0, # of connection points: 2
#     Edge 23, Type (0, 1), BuildingBlock: MIFKUJ_clean_linker_0, # of connection points: 2
#     Edge 24, Type (0, 1), BuildingBlock: MIFKUJ_clean_linker_0, # of connection points: 2
#     Edge 25, Type (0, 1), BuildingBlock: MIFKUJ_clean_linker_0, # of connection points: 2
#     Edge 26, Type (0, 1), BuildingBlock: MIFKUJ_clean_linker_0, # of connection points: 2
#     Edge 27, Type (0, 1), BuildingBlock: MIFKUJ_clean_linker_0, # of connection points: 2
#     Edge 28, Type (0, 1), BuildingBlock: MIFKUJ_clean_linker_0, # of connection points: 2
#     Edge 29, Type (0, 1), BuildingBlock: MIFKUJ_clean_linker_0, # of connection points: 2
#     Edge 30, Type (0, 1), BuildingBlock: MIFKUJ_clean_linker_0, # of connection points: 2
#     Edge 31, Type (0, 1), BuildingBlock: MIFKUJ_clean_linker_0, # of connection points: 2
#     Edge 32, Type (0, 1), BuildingBlock: MIFKUJ_clean_linker_0, # of connection points: 2
#     Edge 33, Type (0, 1), BuildingBlock: MIFKUJ_clean_linker_0, # of connection points: 2
#     Edge 34, Type (0, 1), BuildingBlock: MIFKUJ_clean_linker_0, # of connection points: 2
#     Edge 35, Type (0, 1), BuildingBlock: MIFKUJ_clean_linker_0, # of connection points: 2
# Relax obj value: 0.005
# Max RMSD: 0.122
# Mean RMSD: 0.093
data_MOF--net-hwx--node1-IZENUY_clean_sbu_0--node2-QEWDON_clean_linker_0--edge1-MIFKUJ_clean_linker_0
_symmetry_space_group_name_H-M    P1
_symmetry_Int_Tables_number       1
_symmetry_cell_setting            triclinic
loop_
_symmetry_equiv_pos_as_xyz
'x, y, z'
_cell_length_a     69.808091
_cell_length_b     69.919812
_cell_length_c     26.239324
_cell_angle_alpha  91.951061
_cell_angle_beta   92.123951
_cell_angle_gamma 90.098313
loop_
_atom_site_label
_atom_site_type_symbol
_atom_site_fract_x
_atom_site_fract_y
_atom_site_fract_z
_atom_type_partial_charge
Fe0 Fe 0.23797 0.24477 0.06427 0.0
Fe1 Fe 0.23696 0.24421 0.94687 0.0
O2 O 0.22837 0.23573 0.00472 0.0
Fe3 Fe 0.21005 0.21811 0.00277 0.0
O4 O 0.19925 0.22643 0.06212 0.0
O5 O 0.21456 0.25303 0.08385 0.0
O6 O 0.24203 0.26916 0.04222 0.0
C7 C 0.23545 0.27781 0.0036 0.0
C8 C 0.23331 0.20482 0.07951 0.0
O9 O 0.23014 0.26861 0.96326 0.0
C10 C 0.23333 0.20611 0.92169 0.0
O11 O 0.2621 0.23727 0.04907 0.0
O12 O 0.26166 0.24836 0.97168 0.0
O13 O 0.22538 0.20144 0.03614 0.0
O14 O 0.23555 0.22191 0.09681 0.0
C15 C 0.19673 0.24087 0.92714 0.0
O16 O 0.2445 0.22032 0.92664 0.0
O17 O 0.21733 0.20635 0.94286 0.0
C18 C 0.27083 0.24212 0.01022 0.0
O19 O 0.21368 0.24174 0.91141 0.0
O20 O 0.19354 0.23375 0.96951 0.0
C21 C 0.19988 0.24256 0.0854 0.0
Fe22 Fe 0.27716 0.74765 0.57313 0.0
Fe23 Fe 0.30238 0.71885 0.51554 0.0
O24 O 0.28469 0.73701 0.51485 0.0
Fe25 Fe 0.27457 0.74453 0.4558 0.0
O26 O 0.27108 0.76961 0.47766 0.0
O27 O 0.28455 0.77123 0.55471 0.0
O28 O 0.30077 0.74581 0.60678 0.0
C29 C 0.31744 0.74322 0.59014 0.0
C30 C 0.24251 0.74381 0.51285 0.0
O31 O 0.31977 0.73456 0.54798 0.0
C32 C 0.27816 0.70417 0.44011 0.0
O33 O 0.26924 0.72475 0.59567 0.0
O34 O 0.29514 0.70881 0.57562 0.0
O35 O 0.25067 0.73774 0.47337 0.0
O36 O 0.25219 0.75146 0.55008 0.0
C37 C 0.31238 0.74114 0.43233 0.0
O38 O 0.28632 0.70176 0.48303 0.0
O39 O 0.27615 0.72083 0.42298 0.0
C40 C 0.27959 0.71003 0.59885 0.0
O41 O 0.31291 0.72558 0.45566 0.0
O42 O 0.29787 0.75185 0.43429 0.0
C43 C 0.27876 0.7793 0.51476 0.0
Fe44 Fe 0.77631 0.78178 0.96208 0.0
Fe45 Fe 0.7765 0.78361 0.07961 0.0
O46 O 0.78539 0.79156 0.02146 0.0
Fe47 Fe 0.80345 0.80947 0.02273 0.0
O48 O 0.78802 0.82551 0.98743 0.0
O49 O 0.77863 0.80426 0.92794 0.0
O50 O 0.75201 0.78917 0.97544 0.0
C51 C 0.74302 0.78491 0.01436 0.0
C52 C 0.81455 0.78424 0.94276 0.0
O53 O 0.75191 0.77923 0.05403 0.0
C54 C 0.81666 0.78759 0.1006 0.0
O55 O 0.77234 0.75761 0.98566 0.0
O56 O 0.78346 0.75909 0.0653 0.0
O57 O 0.81477 0.80064 0.9646 0.0
O58 O 0.79997 0.77362 0.94423 0.0
C59 C 0.77971 0.82201 0.10228 0.0
O60 O 0.79961 0.78641 0.11555 0.0
O61 O 0.82002 0.79456 0.05813 0.0
C62 C 0.77859 0.74945 0.02538 0.0
O63 O 0.76877 0.80761 0.09837 0.0
O64 O 0.79571 0.82176 0.08118 0.0
C65 C 0.7802 0.82152 0.94426 0.0
Fe66 Fe 0.70978 0.30842 0.50584 0.0
Fe67 Fe 0.73838 0.28244 0.56162 0.0
O68 O 0.72849 0.2914 0.50404 0.0
Fe69 Fe 0.73724 0.28336 0.44447 0.0
O70 O 0.74438 0.30752 0.42927 0.0
O71 O 0.71702 0.32078 0.44895 0.0
O72 O 0.72461 0.32538 0.54315 0.0
C73 C 0.73265 0.32198 0.58568 0.0
C74 C 0.69706 0.28598 0.42471 0.0
O75 O 0.73525 0.30489 0.59918 0.0
C76 C 0.73645 0.24961 0.49445 0.0
O77 O 0.69906 0.2993 0.56297 0.0
O78 O 0.71525 0.27321 0.57951 0.0
O79 O 0.71404 0.28556 0.40909 0.0
O80 O 0.6937 0.29254 0.46878 0.0
C81 C 0.77106 0.28625 0.50832 0.0
O82 O 0.74322 0.25843 0.53421 0.0
O83 O 0.73072 0.25871 0.45599 0.0
C84 C 0.70021 0.28311 0.58295 0.0
O85 O 0.76222 0.29094 0.54793 0.0
O86 O 0.76201 0.27966 0.46874 0.0
C87 C 0.73304 0.32158 0.42802 0.0
H88 H 0.2642 0.53221 0.07496 0.0
C89 C 0.2609 0.5404 0.04143 0.0
C90 C 0.2546 0.55949 0.04686 0.0
C91 C 0.26403 0.53222 0.99273 0.0
H92 H 0.2475 0.58508 0.00684 0.0
C93 C 0.25121 0.57008 0.00282 0.0
C94 C 0.25428 0.56216 0.95393 0.0
C95 C 0.26061 0.54314 0.9493 0.0
C96 C 0.27402 0.51366 0.987 0.0
H97 H 0.26352 0.53694 0.91195 0.0
C98 C 0.26471 0.49601 0.99353 0.0
C99 C 0.2744 0.47868 0.98309 0.0
C100 C 0.29309 0.51378 0.97179 0.0
H101 H 0.30045 0.52719 0.96658 0.0
C102 C 0.30277 0.49667 0.9627 0.0
H103 H 0.24992 0.49578 0.00462 0.0
C104 C 0.29348 0.47924 0.9679 0.0
H105 H 0.3012 0.4661 0.95996 0.0
H106 H 0.31747 0.49692 0.95093 0.0
H107 H 0.98315 0.73639 0.45395 0.0
C108 C 0.97684 0.73945 0.49047 0.0
C109 C 0.95815 0.74693 0.49206 0.0
C110 C 0.98669 0.73424 0.53576 0.0
H111 H 0.93548 0.75569 0.54136 0.0
C112 C 0.94982 0.74981 0.53955 0.0
C113 C 0.95927 0.74442 0.58473 0.0
C114 C 0.97783 0.7368 0.58288 0.0
C115 C 1.00409 0.72227 0.53268 0.0
H116 H 0.98486 0.73181 0.61746 0.0
C117 C 0.02252 0.73018 0.52762 0.0
C118 C 0.03858 0.71804 0.52298 0.0
C119 C 1.00191 0.70234 0.53375 0.0
H120 H 0.98786 0.69604 0.53761 0.0
C121 C 0.01773 0.69037 0.52932 0.0
H122 H 0.02429 0.74557 0.52674 0.0
C123 C 0.03591 0.69811 0.52381 0.0
H124 H 0.04799 0.68849 0.52083 0.0
H125 H 0.01589 0.67501 0.5301 0.0
H126 H 0.7771 0.48695 0.94606 0.0
C127 C 0.77307 0.48238 0.98327 0.0
C128 C 0.76358 0.4648 0.98761 0.0
C129 C 0.77864 0.49352 0.02706 0.0
H130 H 0.7518 0.44529 0.04028 0.0
C131 C 0.75909 0.45884 0.03628 0.0
C132 C 0.76498 0.46948 0.08029 0.0
C133 C 0.77478 0.48688 0.0757 0.0
C134 C 0.79115 0.51035 0.02147 0.0
H135 H 0.78002 0.4948 0.10965 0.0
C136 C 0.7842 0.52923 0.02671 0.0
C137 C 0.79611 0.54483 0.01606 0.0
C138 C 0.81011 0.50728 0.00722 0.0
H139 H 0.81565 0.49287 0.00288 0.0
C140 C 0.822 0.52271 0.99785 0.0
H141 H 0.7695 0.53171 0.03701 0.0
C142 C 0.81503 0.54135 0.00183 0.0
H143 H 0.82444 0.55313 0.99378 0.0
H144 H 0.83659 0.52019 0.98682 0.0
H145 H 0.02703 0.25272 0.56356 0.0
C146 C 0.03379 0.25783 0.53006 0.0
C147 C 0.053 0.26413 0.53352 0.0
C148 C 0.02388 0.25639 0.48233 0.0
H149 H 0.07642 0.27492 0.49141 0.0
C150 C 0.06167 0.27 0.48909 0.0
C151 C 0.05224 0.26807 0.4411 0.0
C152 C 0.03327 0.26131 0.43806 0.0
C153 C 1.00514 0.24644 0.47693 0.0
H154 H 0.02599 0.25923 0.40105 0.0
C155 C 0.98803 0.25499 0.49331 0.0
C156 C 0.97033 0.2452 0.48577 0.0
C157 C 1.0045 0.22811 0.45344 0.0
H158 H 0.01749 0.22134 0.44053 0.0
C159 C 0.98715 0.21837 0.44623 0.0
H160 H 0.9885 0.26916 0.51138 0.0
C161 C 0.97021 0.22682 0.46201 0.0
H162 H 0.95691 0.21905 0.45455 0.0
H163 H 0.9868 0.20427 0.42784 0.0
H164 H 0.76999 0.99775 0.45722 0.0
C165 C 0.76626 0.98936 0.4894 0.0
C166 C 0.76262 0.96966 0.48217 0.0
C167 C 0.76685 0.99775 0.539 0.0
H168 H 0.75711 0.94325 0.51823 0.0
C169 C 0.75904 0.95856 0.52431 0.0
C170 C 0.75915 0.96668 0.57397 0.0
C171 C 0.76289 0.9864 0.58077 0.0
C172 C 0.7749 0.01725 0.54888 0.0
H173 H 0.76341 0.99293 0.61885 0.0
C174 C 0.76678 0.03364 0.52669 0.0
C175 C 0.77505 0.05189 0.53741 0.0
C176 C 0.79129 0.0193 0.58138 0.0
H177 H 0.79786 1.00692 0.59853 0.0
C178 C 0.79949 0.03722 0.59177 0.0
H179 H 0.75414 0.0322 0.50162 0.0
C180 C 0.79147 0.05338 0.57013 0.0
H181 H 0.79796 0.06718 0.57978 0.0
H182 H 0.8121 0.0386 0.61694 0.0
H183 H 0.52655 0.24373 0.06241 0.0
C184 C 0.53467 0.24444 0.02814 0.0
C185 C 0.55341 0.25211 0.0307 0.0
C186 C 0.52675 0.23667 0.98176 0.0
H187 H 0.57856 0.2572 0.9872 0.0
C188 C 0.56388 0.25209 0.98591 0.0
C189 C 0.55602 0.24484 0.93936 0.0
C190 C 0.53742 0.23723 0.93729 0.0
C191 C 0.50893 0.22508 0.9813 0.0
H192 H 0.53158 0.23094 0.90168 0.0
C193 C 0.49105 0.23305 0.99372 0.0
C194 C 0.47462 0.22124 0.99436 0.0
C195 C 0.51014 0.2054 0.96931 0.0
H196 H 0.52373 0.19898 0.95987 0.0
C197 C 0.49397 0.19374 0.97026 0.0
H198 H 0.48994 0.24824 0.00275 0.0
C199 C 0.47635 0.20155 0.98283 0.0
H200 H 0.46392 0.19224 0.98268 0.0
H201 H 0.49509 0.17857 0.96116 0.0
H202 H 0.28178 0.03624 0.57432 0.0
C203 C 0.27658 0.04249 0.53918 0.0
C204 C 0.26582 0.05946 0.54111 0.0
C205 C 0.28144 0.03407 0.49198 0.0
H206 H 0.25197 0.08119 0.49677 0.0
C207 C 0.25966 0.06773 0.49538 0.0
C208 C 0.26495 0.05988 0.44804 0.0
C209 C 0.2759 0.04302 0.44656 0.0
C210 C 0.29485 0.01774 0.49058 0.0
H211 H 0.2805 0.03712 0.41028 0.0
C212 C 0.28854 0.99875 0.49585 0.0
C213 C 0.30189 0.9836 0.49654 0.0
C214 C 0.31441 0.02142 0.48526 0.0
H215 H 0.31949 0.03592 0.48117 0.0
C216 C 0.32761 1.00648 0.48584 0.0
H217 H 0.27343 0.99584 0.50002 0.0
C218 C 0.32144 0.98772 0.49167 0.0
H219 H 0.33196 0.97634 0.49174 0.0
H220 H 0.3427 0.00945 0.48188 0.0
H221 H 0.49146 0.76285 0.95152 0.0
C222 C 0.48221 0.7651 0.98343 0.0
C223 C 0.46323 0.77141 0.97477 0.0
C224 C 0.48884 0.76047 0.03285 0.0
H225 H 0.43644 0.77782 0.00979 0.0
C226 C 0.45117 0.77343 0.01633 0.0
C227 C 0.45734 0.76851 0.06562 0.0
C228 C 0.47634 0.7624 0.07369 0.0
C229 C 0.50766 0.75086 0.04114 0.0
H230 H 0.48113 0.7581 0.11135 0.0
C231 C 0.52499 0.75867 0.02472 0.0
C232 C 0.54257 0.74908 0.03381 0.0
C233 C 0.50811 0.73338 0.06605 0.0
H234 H 0.49503 0.72692 0.07842 0.0
C235 C 0.52536 0.72391 0.07499 0.0
H236 H 0.52478 0.77211 0.00531 0.0
C237 C 0.54244 0.73168 0.05926 0.0
H238 H 0.55565 0.72415 0.06784 0.0
H239 H 0.52551 0.7105 0.09445 0.0
H240 H 0.19607 0.27547 0.1448 0.0
H241 H 0.16936 0.2842 0.19896 0.0
H242 H 0.14053 0.23141 0.15336 0.0
H243 H 0.16685 0.22272 0.09887 0.0
H244 H 0.11565 0.26058 0.15479 0.0
H245 H 0.16604 0.23666 0.2663 0.0
H246 H 0.19878 0.23613 0.30496 0.0
H247 H 0.19171 0.29342 0.36527 0.0
H248 H 0.1591 0.2945 0.32585 0.0
H249 H 0.05371 0.24378 0.35764 0.0
H250 H 0.07693 0.24413 0.29034 0.0
H251 H 0.10011 0.29748 0.35315 0.0
H252 H 0.07688 0.29716 0.42077 0.0
H253 H 0.12779 0.27211 0.34073 0.0
H254 H 0.07606 0.29487 0.23567 0.0
H255 H 0.04336 0.29525 0.19685 0.0
H256 H 0.05256 0.24002 0.12548 0.0
H257 H 0.08523 0.23917 0.16446 0.0
C258 C 0.18402 0.26574 0.14623 0.0
C259 C 0.18372 0.24831 0.11776 0.0
C260 C 0.16877 0.27075 0.17724 0.0
C261 C 0.153 0.25838 0.18058 0.0
C262 C 0.15251 0.2412 0.15137 0.0
C263 C 0.16767 0.23621 0.12041 0.0
C264 C 0.13721 0.26287 0.21556 0.0
C265 C 0.11827 0.263 0.19551 0.0
C266 C 0.14067 0.26649 0.26851 0.0
C267 C 0.16021 0.26575 0.2926 0.0
C268 C 0.17152 0.24921 0.28743 0.0
C269 C 0.19004 0.24879 0.30954 0.0
C270 C 0.19731 0.26472 0.33753 0.0
C271 C 0.18607 0.2811 0.3435 0.0
C272 C 0.16758 0.28164 0.32124 0.0
C273 C 0.06332 0.25591 0.35616 0.0
C274 C 0.06346 0.27043 0.39459 0.0
C275 C 0.07666 0.25607 0.3177 0.0
C276 C 0.09031 0.27084 0.31658 0.0
C277 C 0.0898 0.28588 0.35334 0.0
C278 C 0.07649 0.28571 0.39187 0.0
C279 C 0.10613 0.26962 0.28012 0.0
C280 C 0.12511 0.27001 0.29992 0.0
C281 C 0.1027 0.26643 0.227 0.0
C282 C 0.08306 0.2669 0.20333 0.0
C283 C 0.07107 0.28274 0.21201 0.0
C284 C 0.05254 0.28305 0.18992 0.0
C285 C 0.04587 0.26765 0.1588 0.0
C286 C 0.05774 0.25193 0.14962 0.0
C287 C 0.07627 0.25154 0.17165 0.0
H288 H 0.03153 0.26792 0.14173 0.0
H289 H 0.21165 0.26436 0.35465 0.0
H290 H 0.29785 0.67591 0.61099 0.0
H291 H 0.28961 0.65017 0.66653 0.0
H292 H 0.24115 0.68252 0.71876 0.0
H293 H 0.24937 0.70859 0.66319 0.0
H294 H 0.26203 0.66682 0.79786 0.0
H295 H 0.2336 0.64532 0.63869 0.0
H296 H 0.23244 0.63816 0.5461 0.0
H297 H 0.27635 0.59581 0.56518 0.0
H298 H 0.27805 0.60298 0.65797 0.0
H299 H 0.22687 0.58899 0.93197 0.0
H300 H 0.22754 0.61297 0.86633 0.0
H301 H 0.279 0.58768 0.80844 0.0
H302 H 0.2787 0.56389 0.8746 0.0
H303 H 0.25318 0.60002 0.73066 0.0
H304 H 0.28353 0.62408 0.88835 0.0
H305 H 0.28482 0.63144 0.98097 0.0
H306 H 0.23675 0.66921 0.96373 0.0
H307 H 0.23497 0.6618 0.871 0.0
C308 C 0.28541 0.67763 0.63419 0.0
C309 C 0.27429 0.69439 0.63262 0.0
C310 C 0.28067 0.66281 0.66578 0.0
C311 C 0.26466 0.66432 0.69643 0.0
C312 C 0.25355 0.68104 0.69533 0.0
C313 C 0.25825 0.69591 0.66347 0.0
C314 C 0.25991 0.64849 0.73023 0.0
C315 C 0.2597 0.65229 0.78306 0.0
C316 C 0.25723 0.62945 0.711 0.0
C317 C 0.25605 0.6248 0.65531 0.0
C318 C 0.24311 0.63457 0.62314 0.0
C319 C 0.24234 0.6305 0.57059 0.0
C320 C 0.25433 0.61655 0.5497 0.0
C321 C 0.26708 0.60661 0.5814 0.0
C322 C 0.26794 0.61067 0.63401 0.0
C323 C 0.23825 0.58841 0.90499 0.0
C324 C 0.25285 0.57462 0.90896 0.0
C325 C 0.23856 0.60208 0.8674 0.0
C326 C 0.25345 0.60224 0.83294 0.0
C327 C 0.26736 0.58779 0.83464 0.0
C328 C 0.26712 0.57414 0.87242 0.0
C329 C 0.25547 0.61838 0.79815 0.0
C330 C 0.25524 0.61461 0.74527 0.0
C331 C 0.25772 0.63747 0.81727 0.0
C332 C 0.25898 0.64222 0.87284 0.0
C333 C 0.27314 0.63385 0.90436 0.0
C334 C 0.27398 0.63803 0.95687 0.0
C335 C 0.26084 0.65074 0.97826 0.0
C336 C 0.24689 0.65934 0.94712 0.0
C337 C 0.24597 0.65516 0.89458 0.0
H338 H 0.2615 0.65395 0.01893 0.0
H339 H 0.25372 0.61344 0.50897 0.0
H340 H 0.81528 0.77023 0.19223 0.0
H341 H 0.84186 0.76387 0.25222 0.0
H342 H 0.88154 0.78796 0.14961 0.0
H343 H 0.85504 0.79398 0.08866 0.0
H344 H 0.89684 0.7571 0.19185 0.0
H345 H 0.867 0.81395 0.25338 0.0
H346 H 0.84035 0.8348 0.2792 0.0
H347 H 0.82768 0.79695 0.39903 0.0
H348 H 0.85407 0.7757 0.37342 0.0
H349 H 0.96818 0.76452 0.40418 0.0
H350 H 0.94686 0.77193 0.33053 0.0
H351 H 0.90007 0.74378 0.40064 0.0
H352 H 0.92113 0.73605 0.47294 0.0
H353 H 0.89128 0.78077 0.37107 0.0
H354 H 0.92059 0.72285 0.30244 0.0
H355 H 0.94793 0.70313 0.27565 0.0
H356 H 0.96292 0.74535 0.16881 0.0
H357 H 0.9358 0.76546 0.19552 0.0
C358 C 0.82965 0.77413 0.18224 0.0
C359 C 0.83296 0.78281 0.13583 0.0
C360 C 0.84485 0.77054 0.2167 0.0
C361 C 0.86368 0.77579 0.20593 0.0
C362 C 0.86714 0.78388 0.1589 0.0
C363 C 0.85194 0.78735 0.12416 0.0
C364 C 0.87957 0.7732 0.24445 0.0
C365 C 0.89576 0.76254 0.23084 0.0
C366 C 0.87825 0.78033 0.29536 0.0
C367 C 0.86244 0.79315 0.3112 0.0
C368 C 0.85845 0.81 0.28502 0.0
C369 C 0.8434 0.8219 0.29964 0.0
C370 C 0.83231 0.81718 0.34067 0.0
C371 C 0.83628 0.80057 0.36723 0.0
C372 C 0.85129 0.7886 0.35271 0.0
C373 C 0.95342 0.7597 0.40336 0.0
C374 C 0.94625 0.75005 0.44483 0.0
C375 C 0.94126 0.76398 0.36143 0.0
C376 C 0.92182 0.75858 0.36047 0.0
C377 C 0.91493 0.74831 0.40091 0.0
C378 C 0.927 0.74397 0.44233 0.0
C379 C 0.90818 0.76414 0.31887 0.0
C380 C 0.89243 0.7755 0.33192 0.0
C381 C 0.91007 0.75787 0.26749 0.0
C382 C 0.92633 0.74576 0.25143 0.0
C383 C 0.92983 0.72801 0.27359 0.0
C384 C 0.94526 0.71675 0.25834 0.0
C385 C 0.9572 0.72301 0.22067 0.0
C386 C 0.95369 0.74053 0.19806 0.0
C387 C 0.93829 0.75186 0.21322 0.0
H388 H 0.96913 0.71426 0.20891 0.0
H389 H 0.82066 0.82641 0.35193 0.0
H390 H 0.74776 0.3201 0.68311 0.0
H391 H 0.75243 0.3463 0.74621 0.0
H392 H 0.73158 0.38649 0.63623 0.0
H393 H 0.72704 0.36037 0.57244 0.0
H394 H 0.76243 0.40078 0.69257 0.0
H395 H 0.7023 0.37185 0.72468 0.0
H396 H 0.68011 0.3453 0.7394 0.0
H397 H 0.71244 0.33179 0.8758 0.0
H398 H 0.73502 0.35808 0.86147 0.0
H399 H 0.75 0.47348 0.89117 0.0
H400 H 0.7441 0.45118 0.81782 0.0
H401 H 0.76354 0.4043 0.90888 0.0
H402 H 0.76962 0.42631 0.98152 0.0
H403 H 0.73039 0.39558 0.85723 0.0
H404 H 0.79176 0.42335 0.82077 0.0
H405 H 0.81382 0.44993 0.80522 0.0
H406 H 0.77841 0.46605 0.6765 0.0
H407 H 0.75598 0.4397 0.69174 0.0
C408 C 0.74427 0.33451 0.6721 0.0
C409 C 0.73683 0.33807 0.62279 0.0
C410 C 0.74689 0.34948 0.70832 0.0
C411 C 0.74204 0.36831 0.69618 0.0
C412 C 0.73532 0.37206 0.64647 0.0
C413 C 0.73269 0.35708 0.61013 0.0
C414 C 0.74347 0.3839 0.73601 0.0
C415 C 0.75519 0.39981 0.72827 0.0
C416 C 0.73411 0.38258 0.78271 0.0
C417 C 0.72045 0.36685 0.79176 0.0
C418 C 0.70476 0.36314 0.75762 0.0
C419 C 0.6921 0.34814 0.76592 0.0
C420 C 0.69488 0.33684 0.80845 0.0
C421 C 0.71031 0.34055 0.84285 0.0
C422 C 0.72304 0.35551 0.83468 0.0
C423 C 0.7531 0.45843 0.89535 0.0
C424 C 0.76004 0.45165 0.9424 0.0
C425 C 0.74971 0.44572 0.85348 0.0
C426 C 0.75336 0.42606 0.85792 0.0
C427 C 0.76043 0.41936 0.90469 0.0
C428 C 0.76382 0.43198 0.94631 0.0
C429 C 0.74975 0.41222 0.8144 0.0
C430 C 0.73751 0.39665 0.82137 0.0
C431 C 0.75857 0.41392 0.76703 0.0
C432 C 0.77208 0.4297 0.75776 0.0
C433 C 0.78859 0.43266 0.78942 0.0
C434 C 0.80118 0.44766 0.78061 0.0
C435 C 0.79749 0.45971 0.73999 0.0
C436 C 0.78123 0.45673 0.70801 0.0
C437 C 0.76858 0.44176 0.71669 0.0
H438 H 0.80725 0.47131 0.73323 0.0
H439 H 0.68506 0.32524 0.8148 0.0
H440 H 0.69586 0.28851 0.32104 0.0
H441 H 0.66802 0.28358 0.2623 0.0
H442 H 0.63361 0.26834 0.38788 0.0
H443 H 0.66126 0.27381 0.44726 0.0
H444 H 0.63346 0.24277 0.28512 0.0
H445 H 0.62441 0.30693 0.35915 0.0
H446 H 0.63565 0.33967 0.38206 0.0
H447 H 0.64535 0.34964 0.22451 0.0
H448 H 0.63469 0.31678 0.20086 0.0
H449 H 0.5503 0.23704 0.12601 0.0
H450 H 0.57042 0.24431 0.20228 0.0
H451 H 0.60004 0.28763 0.12188 0.0
H452 H 0.57869 0.28191 0.04786 0.0
H453 H 0.6007 0.29894 0.2114 0.0
H454 H 0.61571 0.23775 0.13406 0.0
H455 H 0.60933 0.20472 0.10177 0.0
H456 H 0.5938 0.18867 0.25132 0.0
H457 H 0.59987 0.22169 0.28434 0.0
C458 C 0.68241 0.28395 0.3361 0.0
C459 C 0.68071 0.28155 0.38873 0.0
C460 C 0.66654 0.28121 0.30256 0.0
C461 C 0.64882 0.27568 0.32092 0.0
C462 C 0.6472 0.27265 0.37314 0.0
C463 C 0.66296 0.2758 0.40691 0.0
C464 C 0.63192 0.27346 0.28545 0.0
C465 C 0.62601 0.25499 0.26957 0.0
C466 C 0.62275 0.28947 0.26407 0.0
C467 C 0.62894 0.30932 0.27832 0.0
C468 C 0.62916 0.31602 0.32947 0.0
C469 C 0.63542 0.33461 0.34259 0.0
C470 C 0.64132 0.3467 0.3048 0.0
C471 C 0.64089 0.34024 0.2538 0.0
C472 C 0.63474 0.32164 0.24052 0.0
C473 C 0.56064 0.24857 0.12505 0.0
C474 C 0.56313 0.25854 0.08005 0.0
C475 C 0.57243 0.25248 0.16856 0.0
C476 C 0.58737 0.266 0.16747 0.0
C477 C 0.58888 0.27692 0.12388 0.0
C478 C 0.57676 0.27343 0.08108 0.0
C479 C 0.60218 0.26809 0.20992 0.0
C480 C 0.60783 0.28659 0.22722 0.0
C481 C 0.61163 0.25208 0.23118 0.0
C482 C 0.60801 0.23222 0.2115 0.0
C483 C 0.61082 0.2272 0.15996 0.0
C484 C 0.60727 0.20848 0.14154 0.0
C485 C 0.6011 0.19462 0.17444 0.0
C486 C 0.59853 0.19944 0.22586 0.0
C487 C 0.60203 0.21814 0.24445 0.0
H488 H 0.59837 0.18014 0.16012 0.0
H489 H 0.64617 0.36108 0.31501 0.0
H490 H 0.26862 0.19477 0.88954 0.0
H491 H 0.27589 0.1675 0.83248 0.0
H492 H 0.21559 0.15383 0.81647 0.0
H493 H 0.20841 0.1804 0.87519 0.0
H494 H 0.23363 0.12251 0.8233 0.0
H495 H 0.2419 0.17781 0.72262 0.0
H496 H 0.25508 0.2092 0.70156 0.0
H497 H 0.31195 0.18587 0.70472 0.0
H498 H 0.29912 0.15437 0.72642 0.0
H499 H 0.2323 0.07321 0.5781 0.0
H500 H 0.22853 0.0955 0.65131 0.0
H501 H 0.28937 0.09324 0.68537 0.0
H502 H 0.29315 0.07069 0.61269 0.0
H503 H 0.27355 0.13109 0.67323 0.0
H504 H 0.26271 0.07414 0.76543 0.0
H505 H 0.24742 0.04318 0.78099 0.0
H506 H 0.19247 0.07052 0.78682 0.0
H507 H 0.2074 0.10162 0.77053 0.0
C508 C 0.25694 0.18593 0.87379 0.0
C509 C 0.23794 0.1898 0.88672 0.0
C510 C 0.26109 0.17037 0.84098 0.0
C511 C 0.24627 0.15869 0.81933 0.0
C512 C 0.22732 0.16252 0.83261 0.0
C513 C 0.22321 0.1778 0.86611 0.0
C514 C 0.25033 0.14256 0.78259 0.0
C515 C 0.24223 0.1245 0.79027 0.0
C516 C 0.26183 0.1449 0.7398 0.0
C517 C 0.26958 0.16381 0.72672 0.0
C518 C 0.25723 0.17942 0.71919 0.0
C519 C 0.26464 0.19722 0.70708 0.0
C520 C 0.28435 0.19954 0.70197 0.0
C521 C 0.29669 0.18405 0.7088 0.0
C522 C 0.28936 0.16622 0.72097 0.0
C523 C 0.24477 0.07714 0.60201 0.0
C524 C 0.26299 0.07016 0.59004 0.0
C525 C 0.24262 0.08986 0.6437 0.0
C526 C 0.25868 0.09602 0.67368 0.0
C527 C 0.2768 0.08862 0.66274 0.0
C528 C 0.27892 0.07563 0.62156 0.0
C529 C 0.25667 0.11128 0.71383 0.0
C530 C 0.26512 0.12915 0.70662 0.0
C531 C 0.24517 0.10887 0.75635 0.0
C532 C 0.23616 0.09019 0.76631 0.0
C533 C 0.24734 0.07353 0.76957 0.0
C534 C 0.23874 0.05596 0.77862 0.0
C535 C 0.21898 0.05487 0.78477 0.0
C536 C 0.20778 0.07137 0.782 0.0
C537 C 0.21631 0.08898 0.77292 0.0
H538 H 0.21235 0.04125 0.79179 0.0
H539 H 0.29005 0.21334 0.69258 0.0
H540 H 0.34666 0.72276 0.42585 0.0
H541 H 0.37286 0.72949 0.37038 0.0
H542 H 0.34097 0.77664 0.30811 0.0
H543 H 0.31471 0.77022 0.36457 0.0
H544 H 0.37371 0.72715 0.27234 0.0
H545 H 0.37189 0.81011 0.26664 0.0
H546 H 0.36482 0.83783 0.32354 0.0
H547 H 0.37844 0.8046 0.45459 0.0
H548 H 0.38577 0.77676 0.39852 0.0
H549 H 0.42033 0.7556 0.05747 0.0
H550 H 0.39732 0.75335 0.12428 0.0
H551 H 0.43937 0.77589 0.23515 0.0
H552 H 0.46243 0.77908 0.16748 0.0
H553 H 0.40421 0.79052 0.25307 0.0
H554 H 0.43073 0.72837 0.22573 0.0
H555 H 0.44068 0.69989 0.17545 0.0
H556 H 0.38231 0.68983 0.12394 0.0
H557 H 0.37205 0.71841 0.17335 0.0
C558 C 0.34518 0.73463 0.40056 0.0
C559 C 0.32846 0.74585 0.39943 0.0
C560 C 0.36023 0.73847 0.3688 0.0
C561 C 0.35897 0.7536 0.33507 0.0
C562 C 0.34242 0.76504 0.33427 0.0
C563 C 0.32735 0.76127 0.36636 0.0
C564 C 0.37459 0.75664 0.29905 0.0
C565 C 0.38036 0.74102 0.26828 0.0
C566 C 0.38362 0.77463 0.29431 0.0
C567 C 0.37924 0.79131 0.32833 0.0
C568 C 0.37345 0.80874 0.30759 0.0
C569 C 0.36941 0.82448 0.33969 0.0
C570 C 0.37123 0.82299 0.39262 0.0
C571 C 0.37703 0.80574 0.41358 0.0
C572 C 0.38109 0.78996 0.38166 0.0
C573 C 0.42466 0.76051 0.09577 0.0
C574 C 0.44326 0.76768 0.10692 0.0
C575 C 0.4115 0.75898 0.13414 0.0
C576 C 0.41666 0.76422 0.18489 0.0
C577 C 0.43507 0.77173 0.19625 0.0
C578 C 0.44829 0.77338 0.15764 0.0
C579 C 0.40295 0.76111 0.2259 0.0
C580 C 0.39754 0.77667 0.2574 0.0
C581 C 0.39457 0.74294 0.23239 0.0
C582 C 0.40065 0.72562 0.20295 0.0
C583 C 0.42003 0.72015 0.20342 0.0
C584 C 0.42573 0.70399 0.1751 0.0
C585 C 0.41214 0.69308 0.14643 0.0
C586 C 0.39282 0.6983 0.14613 0.0
C587 C 0.38706 0.71447 0.17434 0.0
H588 H 0.41658 0.68057 0.12452 0.0
H589 H 0.36807 0.83518 0.4174 0.0
H590 H 0.78568 0.8601 0.96147 0.0
H591 H 0.77879 0.88573 0.90269 0.0
H592 H 0.75525 0.84449 0.79125 0.0
H593 H 0.7625 0.81871 0.84937 0.0
H594 H 0.77849 0.86693 0.74722 0.0
H595 H 0.72674 0.87694 0.85764 0.0
H596 H 0.70991 0.88242 0.93776 0.0
H597 H 0.74093 0.93497 0.96676 0.0
H598 H 0.7582 0.92967 0.88717 0.0
H599 H 0.73651 0.93466 0.58059 0.0
H600 H 0.73772 0.91116 0.64733 0.0
H601 H 0.77799 0.94658 0.73605 0.0
H602 H 0.77792 0.96966 0.66823 0.0
H603 H 0.74524 0.9276 0.79124 0.0
H604 H 0.79718 0.91568 0.67711 0.0
H605 H 0.81102 0.90993 0.59293 0.0
H606 H 0.7765 0.85932 0.56877 0.0
H607 H 0.76197 0.86513 0.65209 0.0
C608 C 0.77891 0.85646 0.9246 0.0
C609 C 0.77478 0.83728 0.91005 0.0
C610 C 0.77485 0.87119 0.89109 0.0
C611 C 0.76637 0.86711 0.84254 0.0
C612 C 0.76184 0.84802 0.82841 0.0
C613 C 0.76598 0.83328 0.86176 0.0
C614 C 0.76331 0.88253 0.80534 0.0
C615 C 0.77094 0.88004 0.75678 0.0
C616 C 0.75377 0.89986 0.81786 0.0
C617 C 0.74389 0.90282 0.86661 0.0
C618 C 0.73015 0.88956 0.88137 0.0
C619 C 0.72048 0.89267 0.92661 0.0
C620 C 0.72432 0.90906 0.95724 0.0
C621 C 0.73793 0.92231 0.94289 0.0
C622 C 0.74768 0.91926 0.89774 0.0
C623 C 0.74568 0.93753 0.61416 0.0
C624 C 0.75734 0.95404 0.61837 0.0
C625 C 0.74619 0.92413 0.65249 0.0
C626 C 0.75803 0.92712 0.69635 0.0
C627 C 0.76871 0.94409 0.70245 0.0
C628 C 0.76854 0.95734 0.66364 0.0
C629 C 0.76039 0.91183 0.73374 0.0
C630 C 0.7527 0.9144 0.78208 0.0
C631 C 0.76961 0.89443 0.72088 0.0
C632 C 0.77826 0.89101 0.67056 0.0
C633 C 0.7923 0.9035 0.65352 0.0
C634 C 0.8003 0.90021 0.60596 0.0
C635 C 0.79458 0.88432 0.57539 0.0
C636 C 0.78087 0.87167 0.59237 0.0
C637 C 0.7727 0.87499 0.63969 0.0
H638 H 0.80083 0.88177 0.53866 0.0
H639 H 0.71676 0.91147 0.99214 0.0
H640 H 0.81697 0.75413 0.87299 0.0
H641 H 0.84422 0.7456 0.82073 0.0
H642 H 0.87709 0.79214 0.89231 0.0
H643 H 0.84984 0.80102 0.94344 0.0
H644 H 0.88113 0.79234 0.79463 0.0
H645 H 0.88577 0.74406 0.9193 0.0
H646 H 0.87421 0.71784 0.97078 0.0
H647 H 0.86216 0.68356 0.83444 0.0
H648 H 0.87341 0.70968 0.78206 0.0
H649 H 0.96682 0.76564 0.67302 0.0
H650 H 0.94517 0.77049 0.74435 0.0
H651 H 0.90538 0.72968 0.67261 0.0
H652 H 0.92689 0.72488 0.60185 0.0
H653 H 0.90726 0.72661 0.77685 0.0
H654 H 0.89976 0.77615 0.65314 0.0
H655 H 0.91113 0.80241 0.6015 0.0
H656 H 0.92868 0.83437 0.73799 0.0
H657 H 0.91766 0.80814 0.79043 0.0
C658 C 0.83003 0.76248 0.87775 0.0
C659 C 0.83116 0.77832 0.91222 0.0
C660 C 0.84566 0.75753 0.84804 0.0
C661 C 0.86284 0.76811 0.85286 0.0
C662 C 0.86402 0.78377 0.88773 0.0
C663 C 0.84839 0.78882 0.917 0.0
C664 C 0.87933 0.76343 0.82017 0.0
C665 C 0.88705 0.77803 0.79161 0.0
C666 C 0.88693 0.7447 0.81534 0.0
C667 C 0.88029 0.7289 0.84674 0.0
C668 C 0.88053 0.73098 0.90027 0.0
C669 C 0.87406 0.71613 0.92961 0.0
C670 C 0.86742 0.69907 0.90589 0.0
C671 C 0.86729 0.6968 0.85276 0.0
C672 C 0.87374 0.71161 0.82323 0.0
C673 C 0.95367 0.7574 0.67339 0.0
C674 C 0.94842 0.74495 0.63215 0.0
C675 C 0.94128 0.76023 0.71384 0.0
C676 C 0.92354 0.75059 0.71349 0.0
C677 C 0.91895 0.73725 0.67377 0.0
C678 C 0.93121 0.73455 0.63336 0.0
C679 C 0.90892 0.75551 0.75153 0.0
C680 C 0.90149 0.74096 0.78073 0.0
C681 C 0.90159 0.77429 0.75714 0.0
C682 C 0.9081 0.7901 0.72566 0.0
C683 C 0.90618 0.78871 0.67212 0.0
C684 C 0.91254 0.8036 0.64271 0.0
C685 C 0.92067 0.82003 0.66645 0.0
C686 C 0.92241 0.82162 0.71965 0.0
C687 C 0.91611 0.80675 0.74924 0.0
H688 H 0.92558 0.83154 0.64362 0.0
H689 H 0.8624 0.68759 0.92867 0.0
H690 H 0.70956 0.35166 0.40659 0.0
H691 H 0.7162 0.3792 0.35554 0.0
H692 H 0.77312 0.35794 0.33018 0.0
H693 H 0.76661 0.33012 0.38159 0.0
H694 H 0.77139 0.39834 0.35337 0.0
H695 H 0.74058 0.35099 0.2392 0.0
H696 H 0.7149 0.32795 0.21375 0.0
H697 H 0.67342 0.37322 0.21671 0.0
H698 H 0.69881 0.39647 0.24296 0.0
H699 H 0.79279 0.45255 0.13714 0.0
H700 H 0.78817 0.42999 0.20486 0.0
H701 H 0.72765 0.44285 0.20132 0.0
H702 H 0.73227 0.46467 0.1316 0.0
H703 H 0.73119 0.40697 0.196 0.0
H704 H 0.76039 0.45474 0.30743 0.0
H705 H 0.78467 0.47853 0.33792 0.0
H706 H 0.82735 0.43447 0.34554 0.0
H707 H 0.80339 0.41044 0.31442 0.0
C708 C 0.72354 0.35278 0.39039 0.0
C709 C 0.7375 0.33853 0.39789 0.0
C710 C 0.7273 0.36858 0.36117 0.0
C711 C 0.74509 0.37054 0.33873 0.0
C712 C 0.75928 0.35667 0.34717 0.0
C713 C 0.7555 0.34074 0.37628 0.0
C714 C 0.74844 0.3867 0.30481 0.0
C715 C 0.7628 0.40017 0.31858 0.0
C716 C 0.73679 0.38937 0.26038 0.0
C717 C 0.72158 0.37545 0.24345 0.0
C718 C 0.72596 0.35601 0.23471 0.0
C719 C 0.71146 0.34291 0.22013 0.0
C720 C 0.69253 0.3491 0.21374 0.0
C721 C 0.68808 0.36842 0.22173 0.0
C722 C 0.70252 0.38158 0.23641 0.0
C723 C 0.77865 0.45103 0.15226 0.0
C724 C 0.76293 0.46053 0.13 0.0
C725 C 0.77597 0.4381 0.19095 0.0
C726 C 0.75755 0.4347 0.20876 0.0
C727 C 0.742 0.44513 0.18835 0.0
C728 C 0.74464 0.45778 0.14899 0.0
C729 C 0.75417 0.41894 0.24441 0.0
C730 C 0.7398 0.40538 0.23087 0.0
C731 C 0.76565 0.4164 0.28942 0.0
C732 C 0.78012 0.43081 0.30814 0.0
C733 C 0.77499 0.45014 0.31521 0.0
C734 C 0.78869 0.46367 0.33269 0.0
C735 C 0.80755 0.45803 0.34354 0.0
C736 C 0.81274 0.43883 0.33706 0.0
C737 C 0.7991 0.42524 0.31957 0.0
H738 H 0.81814 0.46852 0.35706 0.0
H739 H 0.68133 0.33893 0.20248 0.0
H740 H 0.19678 0.24641 0.82456 0.0
H741 H 0.16949 0.25314 0.76747 0.0
H742 H 0.13208 0.25401 0.89484 0.0
H743 H 0.15934 0.24654 0.9521 0.0
H744 H 0.11514 0.2354 0.81923 0.0
H745 H 0.14543 0.296 0.83542 0.0
H746 H 0.17195 0.31937 0.83727 0.0
H747 H 0.18195 0.30581 0.67967 0.0
H748 H 0.15567 0.28214 0.67704 0.0
H749 H 0.04338 0.27252 0.63332 0.0
H750 H 0.06453 0.2711 0.71048 0.0
H751 H 0.1108 0.25117 0.61844 0.0
H752 H 0.08988 0.25161 0.54253 0.0
H753 H 0.11916 0.2845 0.68792 0.0
H754 H 0.09095 0.22018 0.68053 0.0
H755 H 0.06362 0.19781 0.68136 0.0
H756 H 0.0482 0.22124 0.82756 0.0
H757 H 0.07532 0.24395 0.8272 0.0
C758 C 0.18279 0.24818 0.84058 0.0
C759 C 0.18028 0.24598 0.89294 0.0
C760 C 0.16716 0.25213 0.80787 0.0
C761 C 0.1487 0.25446 0.82685 0.0
C762 C 0.14615 0.25235 0.87921 0.0
C763 C 0.16177 0.24812 0.91192 0.0
C764 C 0.1321 0.25842 0.79146 0.0
C765 C 0.11588 0.24644 0.7913 0.0
C766 C 0.13288 0.27285 0.75497 0.0
C767 C 0.14862 0.28721 0.75614 0.0
C768 C 0.15335 0.29792 0.80123 0.0
C769 C 0.16834 0.31123 0.80241 0.0
C770 C 0.17864 0.31406 0.75863 0.0
C771 C 0.17395 0.30361 0.71355 0.0
C772 C 0.15899 0.29026 0.71217 0.0
C773 C 0.058 0.26765 0.62972 0.0
C774 C 0.06502 0.26265 0.58145 0.0
C775 C 0.07006 0.26694 0.67371 0.0
C776 C 0.08929 0.26131 0.66986 0.0
C777 C 0.09611 0.25587 0.62207 0.0
C778 C 0.08411 0.25629 0.57859 0.0
C779 C 0.10273 0.2611 0.71488 0.0
C780 C 0.11833 0.2738 0.71677 0.0
C781 C 0.10121 0.24759 0.75336 0.0
C782 C 0.08497 0.23393 0.75351 0.0
C783 C 0.08161 0.2207 0.71259 0.0
C784 C 0.06619 0.20792 0.71303 0.0
C785 C 0.05414 0.20815 0.7544 0.0
C786 C 0.05752 0.22111 0.79548 0.0
C787 C 0.07291 0.23393 0.79518 0.0
H788 H 0.04221 0.19824 0.75469 0.0
H789 H 0.19025 0.32437 0.75963 0.0
H790 H 0.25314 0.70183 0.35713 0.0
H791 H 0.24695 0.67401 0.29912 0.0
H792 H 0.28673 0.64056 0.38828 0.0
H793 H 0.29262 0.66802 0.44713 0.0
H794 H 0.29192 0.64283 0.27338 0.0
H795 H 0.24645 0.6275 0.40081 0.0
H796 H 0.21945 0.63457 0.45633 0.0
H797 H 0.18304 0.64526 0.32499 0.0
H798 H 0.2099 0.63844 0.26861 0.0
H799 H 0.28006 0.55734 0.12875 0.0
H800 H 0.28189 0.57852 0.20487 0.0
H801 H 0.22985 0.60651 0.15467 0.0
H802 H 0.22742 0.58477 0.07989 0.0
H803 H 0.23105 0.60604 0.2546 0.0
H804 H 0.2744 0.62413 0.12747 0.0
H805 H 0.30038 0.61953 0.06716 0.0
H806 H 0.33978 0.60712 0.19116 0.0
H807 H 0.31393 0.61138 0.2522 0.0
C808 C 0.26042 0.68849 0.36465 0.0
C809 C 0.27339 0.68715 0.40667 0.0
C810 C 0.25684 0.67263 0.33159 0.0
C811 C 0.2664 0.65528 0.33952 0.0
C812 C 0.2792 0.65383 0.38163 0.0
C813 C 0.28249 0.66953 0.41526 0.0
C814 C 0.2638 0.63895 0.30236 0.0
C815 C 0.27876 0.63453 0.26981 0.0
C816 C 0.2464 0.62862 0.29676 0.0
C817 C 0.23023 0.63266 0.33054 0.0
C818 C 0.23274 0.63154 0.38378 0.0
C819 C 0.21745 0.63546 0.41541 0.0
C820 C 0.19956 0.64044 0.39424 0.0
C821 C 0.19691 0.64143 0.34134 0.0
C822 C 0.21215 0.63751 0.30953 0.0
C823 C 0.26865 0.56756 0.13472 0.0
C824 C 0.25373 0.56952 0.09779 0.0
C825 C 0.26985 0.57985 0.178 0.0
C826 C 0.2563 0.59449 0.18486 0.0
C827 C 0.24059 0.59548 0.1501 0.0
C828 C 0.23929 0.5831 0.10713 0.0
C829 C 0.25927 0.60972 0.22554 0.0
C830 C 0.24434 0.6141 0.25849 0.0
C831 C 0.27659 0.62034 0.23085 0.0
C832 C 0.29219 0.61786 0.19432 0.0
C833 C 0.28857 0.62028 0.14184 0.0
C834 C 0.30327 0.61775 0.10753 0.0
C835 C 0.32171 0.61298 0.1253 0.0
C836 C 0.32548 0.61078 0.17745 0.0
C837 C 0.31082 0.61325 0.21192 0.0
H838 H 0.33308 0.61103 0.09867 0.0
H839 H 0.18775 0.64348 0.4188 0.0
H840 H 0.32027 0.76958 0.66995 0.0
H841 H 0.34862 0.77695 0.72551 0.0
H842 H 0.38139 0.73537 0.64089 0.0
H843 H 0.35341 0.72825 0.58459 0.0
H844 H 0.38171 0.73235 0.75362 0.0
H845 H 0.39222 0.77693 0.62112 0.0
H846 H 0.38277 0.80298 0.56446 0.0
H847 H 0.37438 0.84045 0.69475 0.0
H848 H 0.3835 0.81451 0.75224 0.0
H849 H 0.46755 0.74726 0.89152 0.0
H850 H 0.44679 0.74526 0.81448 0.0
H851 H 0.41737 0.7964 0.86416 0.0
H852 H 0.43878 0.79907 0.93975 0.0
H853 H 0.41639 0.79447 0.76394 0.0
H854 H 0.40218 0.75155 0.89614 0.0
H855 H 0.40914 0.72635 0.95762 0.0
H856 H 0.42118 0.68669 0.83443 0.0
H857 H 0.4146 0.71178 0.77223 0.0
C858 C 0.33355 0.76211 0.66302 0.0
C859 C 0.33458 0.74832 0.62292 0.0
C860 C 0.34973 0.76637 0.69463 0.0
C861 C 0.36707 0.75671 0.68714 0.0
C862 C 0.36814 0.743 0.64716 0.0
C863 C 0.35213 0.739 0.61498 0.0
C864 C 0.38388 0.76028 0.72238 0.0
C865 C 0.38953 0.7458 0.75531 0.0
C866 C 0.39365 0.77804 0.72548 0.0
C867 C 0.38836 0.79372 0.691 0.0
C868 C 0.3882 0.79067 0.63771 0.0
C869 C 0.38293 0.80543 0.60543 0.0
C870 C 0.37793 0.82335 0.626 0.0
C871 C 0.37824 0.82656 0.67888 0.0
C872 C 0.38347 0.81184 0.71133 0.0
C873 C 0.45722 0.75853 0.88506 0.0
C874 C 0.45459 0.77313 0.92233 0.0
C875 C 0.44516 0.75724 0.84123 0.0
C876 C 0.43005 0.7703 0.83435 0.0
C877 C 0.42872 0.78599 0.86883 0.0
C878 C 0.44092 0.78743 0.91225 0.0
C879 C 0.41438 0.76645 0.79522 0.0
C880 C 0.40879 0.78091 0.76185 0.0
C881 C 0.40434 0.74877 0.79235 0.0
C882 C 0.40811 0.73359 0.82958 0.0
C883 C 0.40643 0.73749 0.88219 0.0
C884 C 0.4103 0.72323 0.91716 0.0
C885 C 0.41565 0.70495 0.89994 0.0
C886 C 0.41708 0.70088 0.8477 0.0
C887 C 0.41328 0.71511 0.81257 0.0
H888 H 0.41863 0.69392 0.92707 0.0
H889 H 0.37385 0.83475 0.60095 0.0
H890 H 0.74745 0.82793 0.15817 0.0
H891 H 0.74044 0.85562 0.21435 0.0
H892 H 0.79427 0.8814 0.17856 0.0
H893 H 0.8012 0.8542 0.12213 0.0
H894 H 0.75879 0.869 0.29876 0.0
H895 H 0.79064 0.9299 0.17993 0.0
H896 H 0.79437 0.93672 0.08925 0.0
H897 H 0.74658 0.90002 0.04739 0.0
H898 H 0.74207 0.89357 0.13774 0.0
H899 H 0.78984 0.94407 0.4573 0.0
H900 H 0.78936 0.92175 0.38352 0.0
H901 H 0.73878 0.94929 0.32186 0.0
H902 H 0.73934 0.97189 0.39616 0.0
H903 H 0.76502 0.93618 0.24584 0.0
H904 H 0.73177 0.91295 0.38643 0.0
H905 H 0.72765 0.90605 0.47686 0.0
H906 H 0.77467 0.86659 0.47247 0.0
H907 H 0.77951 0.87375 0.38257 0.0
C908 C 0.75772 0.83956 0.16203 0.0
C909 C 0.77489 0.83879 0.13557 0.0
C910 C 0.75371 0.85536 0.1942 0.0
C911 C 0.76671 0.87073 0.20021 0.0
C912 C 0.78382 0.86994 0.17382 0.0
C913 C 0.78781 0.85425 0.14172 0.0
C914 C 0.76299 0.88726 0.23566 0.0
C915 C 0.75998 0.88367 0.28701 0.0
C916 C 0.76415 0.90647 0.22019 0.0
C917 C 0.76612 0.91112 0.16577 0.0
C918 C 0.78075 0.92348 0.15146 0.0
C919 C 0.783 0.9273 0.10004 0.0
C920 C 0.77071 0.91883 0.06252 0.0
C921 C 0.75604 0.90666 0.07639 0.0
C922 C 0.75362 0.90293 0.12774 0.0
C923 C 0.77896 0.94571 0.42721 0.0
C924 C 0.76462 0.95962 0.43216 0.0
C925 C 0.77864 0.93292 0.38527 0.0
C926 C 0.76385 0.93367 0.3477 0.0
C927 C 0.75029 0.94847 0.35053 0.0
C928 C 0.75064 0.96138 0.39274 0.0
C929 C 0.76169 0.91777 0.30894 0.0
C930 C 0.76357 0.9215 0.25719 0.0
C931 C 0.75919 0.89866 0.32381 0.0
C932 C 0.75609 0.89401 0.37775 0.0
C933 C 0.74135 0.90294 0.40486 0.0
C934 C 0.7389 0.899 0.45609 0.0
C935 C 0.75092 0.88594 0.48049 0.0
C936 C 0.76541 0.87677 0.45366 0.0
C937 C 0.76802 0.88078 0.40255 0.0
H938 H 0.74896 0.88289 0.52011 0.0
H939 H 0.77257 0.92167 0.02271 0.0
H940 H 0.69929 0.25267 0.64687 0.0
H941 H 0.67311 0.24355 0.70086 0.0
H942 H 0.6386 0.28957 0.64214 0.0
H943 H 0.66472 0.299 0.58929 0.0
H944 H 0.6367 0.29008 0.74008 0.0
H945 H 0.62935 0.24135 0.60857 0.0
H946 H 0.63862 0.21462 0.55096 0.0
H947 H 0.6536 0.18079 0.67994 0.0
H948 H 0.64458 0.20739 0.7384 0.0
H949 H 0.54973 0.26332 0.85037 0.0
H950 H 0.57262 0.2672 0.78232 0.0
H951 H 0.61242 0.22988 0.85958 0.0
H952 H 0.58973 0.22624 0.92776 0.0
H953 H 0.61057 0.22435 0.75026 0.0
H954 H 0.6183 0.2746 0.88074 0.0
H955 H 0.60691 0.3011 0.93603 0.0
H956 H 0.58977 0.33236 0.80393 0.0
H957 H 0.60077 0.30586 0.74782 0.0
C958 C 0.68609 0.26078 0.64529 0.0
C959 C 0.6842 0.27667 0.61401 0.0
C960 C 0.67107 0.25548 0.67597 0.0
C961 C 0.65378 0.2658 0.67545 0.0
C962 C 0.65179 0.28142 0.64349 0.0
C963 C 0.66678 0.28679 0.6132 0.0
C964 C 0.63807 0.26105 0.7099 0.0
C965 C 0.63082 0.27574 0.74153 0.0
C966 C 0.63055 0.24229 0.7128 0.0
C967 C 0.63642 0.22642 0.67785 0.0
C968 C 0.63478 0.22827 0.62467 0.0
C969 C 0.63992 0.21312 0.59186 0.0
C970 C 0.64661 0.19599 0.61179 0.0
C971 C 0.64832 0.19403 0.66458 0.0
C972 C 0.64319 0.20914 0.69756 0.0
C973 C 0.56319 0.25562 0.852 0.0
C974 C 0.56805 0.24451 0.89407 0.0
C975 C 0.57625 0.25789 0.81339 0.0
C976 C 0.59426 0.24892 0.81616 0.0
C977 C 0.59861 0.23688 0.85666 0.0
C978 C 0.58569 0.23484 0.89554 0.0
C979 C 0.60925 0.25339 0.77966 0.0
C980 C 0.61642 0.23867 0.74816 0.0
C981 C 0.6166 0.27215 0.7764 0.0
C982 C 0.61014 0.28816 0.8101 0.0
C983 C 0.61194 0.28705 0.86348 0.0
C984 C 0.60558 0.30208 0.89497 0.0
C985 C 0.59757 0.31838 0.87351 0.0
C986 C 0.59595 0.31971 0.8205 0.0
C987 C 0.60224 0.30469 0.78884 0.0
H988 H 0.59267 0.33001 0.89795 0.0
H989 H 0.65054 0.18426 0.58632 0.0
H990 H 0.22627 0.16666 0.05949 0.0
H991 H 0.23108 0.14027 0.1171 0.0
H992 H 0.25541 0.17943 0.23262 0.0
H993 H 0.25024 0.20603 0.17563 0.0
H994 H 0.26037 0.12397 0.16232 0.0
H995 H 0.24272 0.1662 0.34985 0.0
H996 H 0.22246 0.19316 0.3779 0.0
H997 H 0.18497 0.18381 0.24594 0.0
H998 H 0.20482 0.15662 0.21751 0.0
H999 H 0.2903 0.07179 0.37916 0.0
H1000 H 0.28437 0.09429 0.31099 0.0
H1001 H 0.22421 0.09516 0.34384 0.0
H1002 H 0.23036 0.07329 0.41349 0.0
H1003 H 0.23481 0.12928 0.33607 0.0
H1004 H 0.24292 0.07335 0.23092 0.0
H1005 H 0.25854 0.04396 0.19884 0.0
H1006 H 0.3074 0.07675 0.15815 0.0
H1007 H 0.29217 0.10632 0.19062 0.0
C1008 C 0.23273 0.1697 0.09707 0.0
C1009 C 0.23769 0.18855 0.11305 0.0
C1010 C 0.23552 0.15454 0.12995 0.0
C1011 C 0.24334 0.15785 0.17953 0.0
C1012 C 0.24899 0.17654 0.19492 0.0
C1013 C 0.2461 0.19174 0.16216 0.0
C1014 C 0.24514 0.14187 0.2155 0.0
C1015 C 0.2548 0.12513 0.20035 0.0
C1016 C 0.23738 0.14308 0.26461 0.0
C1017 C 0.22539 0.15949 0.28132 0.0
C1018 C 0.23014 0.16987 0.32688 0.0
C1019 C 0.21871 0.18519 0.34285 0.0
C1020 C 0.20246 0.19021 0.31368 0.0
C1021 C 0.19759 0.17994 0.26843 0.0
C1022 C 0.20894 0.16459 0.25234 0.0
C1023 C 0.27575 0.07646 0.37096 0.0
C1024 C 0.26076 0.07075 0.40135 0.0
C1025 C 0.27235 0.08933 0.33195 0.0
C1026 C 0.25379 0.09641 0.32178 0.0
C1027 C 0.23867 0.09004 0.35093 0.0
C1028 C 0.24215 0.07745 0.3905 0.0
C1029 C 0.25034 0.1114 0.28334 0.0
C1030 C 0.24039 0.12803 0.29807 0.0
C1031 C 0.25725 0.10978 0.23325 0.0
C1032 C 0.26646 0.09204 0.21362 0.0
C1033 C 0.25705 0.07428 0.21548 0.0
C1034 C 0.26583 0.05759 0.19716 0.0
C1035 C 0.28397 0.05848 0.17658 0.0
C1036 C 0.29335 0.07608 0.17415 0.0
C1037 C 0.28465 0.09281 0.19245 0.0
H1038 H 0.29074 0.04554 0.16242 0.0
H1039 H 0.19357 0.20199 0.32626 0.0
H1040 H 0.23263 0.301 0.9216 0.0
H1041 H 0.23601 0.33581 0.92153 0.0
H1042 H 0.24266 0.33779 0.08558 0.0
H1043 H 0.23956 0.30284 0.08608 0.0
H1044 H 0.21784 0.3677 0.04144 0.0
H1045 H 0.28086 0.34037 0.02878 0.0
H1046 H 0.30475 0.3184 0.99237 0.0
H1047 H 0.29632 0.34352 0.84619 0.0
H1048 H 0.27212 0.36544 0.88157 0.0
H1049 H 0.26014 0.46194 0.06671 0.0
H1050 H 0.25018 0.42839 0.07294 0.0
H1051 H 0.25774 0.41933 0.91136 0.0
H1052 H 0.2683 0.45252 0.90576 0.0
H1053 H 0.27506 0.39256 0.95839 0.0
H1054 H 0.21234 0.42001 0.96876 0.0
H1055 H 0.18742 0.4414 0.00253 0.0
H1056 H 0.19407 0.41626 0.14915 0.0
H1057 H 0.21922 0.39488 0.11643 0.0
C1058 C 0.23463 0.3088 0.95777 0.0
C1059 C 0.23599 0.29907 0.00385 0.0
C1060 C 0.23656 0.32872 0.95763 0.0
C1061 C 0.23966 0.33937 0.00353 0.0
C1062 C 0.24024 0.32984 0.04976 0.0
C1063 C 0.23858 0.30986 0.04991 0.0
C1064 C 0.24356 0.36027 0.00271 0.0
C1065 C 0.23045 0.37321 0.02387 0.0
C1066 C 0.25982 0.3674 0.97892 0.0
C1067 C 0.27454 0.35441 0.95771 0.0
C1068 C 0.28398 0.3411 0.98877 0.0
C1069 C 0.2976 0.32867 0.96834 0.0
C1070 C 0.30201 0.32953 0.91696 0.0
C1071 C 0.29286 0.34286 0.88596 0.0
C1072 C 0.27921 0.35529 0.90619 0.0
C1073 C 0.25921 0.45283 0.03248 0.0
C1074 C 0.26492 0.45976 0.98575 0.0
C1075 C 0.25353 0.43366 0.03597 0.0
C1076 C 0.25316 0.4212 0.99257 0.0
C1077 C 0.25801 0.42851 0.94549 0.0
C1078 C 0.26392 0.44751 0.94219 0.0
C1079 C 0.24916 0.4003 0.99636 0.0
C1080 C 0.26237 0.38724 0.97594 0.0
C1081 C 0.23291 0.39314 0.02049 0.0
C1082 C 0.21781 0.40599 0.04028 0.0
C1083 C 0.20861 0.41915 0.00832 0.0
C1084 C 0.19442 0.43126 0.02725 0.0
C1085 C 0.18921 0.43023 0.078 0.0
C1086 C 0.19815 0.41706 0.10988 0.0
C1087 C 0.21236 0.40494 0.09115 0.0
H1088 H 0.17822 0.43961 0.09257 0.0
H1089 H 0.31255 0.3199 0.90121 0.0
H1090 H 0.21943 0.75963 0.58546 0.0
H1091 H 0.18445 0.75874 0.58694 0.0
H1092 H 0.18228 0.72559 0.44515 0.0
H1093 H 0.21722 0.72676 0.44282 0.0
H1094 H 0.15539 0.75213 0.44297 0.0
H1095 H 0.17617 0.70507 0.5617 0.0
H1096 H 0.19439 0.69307 0.63627 0.0
H1097 H 0.16578 0.73323 0.73461 0.0
H1098 H 0.1476 0.74568 0.66046 0.0
H1099 H 0.064 0.70782 0.45092 0.0
H1100 H 0.09797 0.71623 0.44934 0.0
H1101 H 0.09211 0.75313 0.58291 0.0
H1102 H 0.05789 0.74469 0.58453 0.0
H1103 H 0.12259 0.72777 0.59234 0.0
H1104 H 0.09965 0.77266 0.47107 0.0
H1105 H 0.0815 0.78338 0.39492 0.0
H1106 H 0.11408 0.7455 0.29958 0.0
H1107 H 0.13225 0.73434 0.37525 0.0
C1108 C 0.21154 0.75214 0.55455 0.0
C1109 C 0.22121 0.74324 0.51405 0.0
C1110 C 0.19149 0.75159 0.55554 0.0
C1111 C 0.18066 0.74192 0.51643 0.0
C1112 C 0.19027 0.73317 0.47575 0.0
C1113 C 0.2103 0.7338 0.47457 0.0
C1114 C 0.15933 0.74078 0.51791 0.0
C1115 C 0.14825 0.74664 0.47548 0.0
C1116 C 0.1499 0.73403 0.56075 0.0
C1117 C 0.16068 0.72645 0.60546 0.0
C1118 C 0.17387 0.71144 0.59918 0.0
C1119 C 0.18417 0.70454 0.64137 0.0
C1120 C 0.18128 0.71242 0.69013 0.0
C1121 C 0.16803 0.72717 0.69681 0.0
C1122 C 0.15771 0.73415 0.65471 0.0
C1123 C 0.06988 0.71798 0.47944 0.0
C1124 C 0.05831 0.72562 0.51783 0.0
C1125 C 0.0893 0.72282 0.47845 0.0
C1126 C 0.09763 0.73535 0.51593 0.0
C1127 C 0.08599 0.74345 0.55356 0.0
C1128 C 0.06643 0.73875 0.55423 0.0
C1129 C 0.1187 0.73895 0.51722 0.0
C1130 C 0.12974 0.73348 0.56011 0.0
C1131 C 0.1281 0.74585 0.47458 0.0
C1132 C 0.11722 0.75256 0.42893 0.0
C1133 C 0.10285 0.7665 0.43392 0.0
C1134 C 0.09257 0.77268 0.39082 0.0
C1135 C 0.09661 0.7651 0.34245 0.0
C1136 C 0.11096 0.75135 0.33707 0.0
C1137 C 0.12127 0.74511 0.38006 0.0
H1138 H 0.08864 0.7699 0.30913 0.0
H1139 H 0.18928 0.70706 0.72275 0.0
H1140 H 0.7769 0.72385 0.94402 0.0
H1141 H 0.77706 0.68893 0.94554 0.0
H1142 H 0.7802 0.69196 0.11018 0.0
H1143 H 0.78083 0.72688 0.1088 0.0
H1144 H 0.80277 0.66554 0.08053 0.0
H1145 H 0.73759 0.67976 0.03712 0.0
H1146 H 0.71067 0.69443 0.98925 0.0
H1147 H 0.72688 0.66428 0.85227 0.0
H1148 H 0.75406 0.64963 0.89917 0.0
H1149 H 0.78335 0.5655 0.09845 0.0
H1150 H 0.777 0.60014 0.10357 0.0
H1151 H 0.78732 0.60376 0.94315 0.0
H1152 H 0.79396 0.56935 0.93824 0.0
H1153 H 0.75563 0.62632 0.97634 0.0
H1154 H 0.82237 0.61416 0.02264 0.0
H1155 H 0.84836 0.59925 0.07352 0.0
H1156 H 0.82711 0.62559 0.21039 0.0
H1157 H 0.80081 0.64042 0.16033 0.0
C1158 C 0.77759 0.71708 0.98057 0.0
C1159 C 0.77876 0.7282 0.02628 0.0
C1160 C 0.77755 0.69707 0.98143 0.0
C1161 C 0.77823 0.68767 0.02803 0.0
C1162 C 0.77959 0.69877 0.0737 0.0
C1163 C 0.77994 0.71879 0.07285 0.0
C1164 C 0.77798 0.66631 0.0291 0.0
C1165 C 0.7922 0.65705 0.05842 0.0
C1166 C 0.76436 0.65502 0.99993 0.0
C1167 C 0.74797 0.66372 0.9716 0.0
C1168 C 0.73549 0.67635 0.99672 0.0
C1169 C 0.72017 0.68466 0.96976 0.0
C1170 C 0.71709 0.68032 0.91773 0.0
C1171 C 0.72929 0.66764 0.89257 0.0
C1172 C 0.74465 0.65931 0.91933 0.0
C1173 C 0.78384 0.57368 0.0642 0.0
C1174 C 0.78912 0.56484 0.01796 0.0
C1175 C 0.78032 0.59343 0.06715 0.0
C1176 C 0.78181 0.60455 0.02377 0.0
C1177 C 0.78606 0.59548 0.97703 0.0
C1178 C 0.78986 0.57586 0.97427 0.0
C1179 C 0.78042 0.62578 0.02743 0.0
C1180 C 0.76596 0.63494 0.99888 0.0
C1181 C 0.79362 0.637 0.05784 0.0
C1182 C 0.80951 0.62821 0.08784 0.0
C1183 C 0.82315 0.61664 0.06364 0.0
C1184 C 0.83795 0.60822 0.09231 0.0
C1185 C 0.83935 0.61142 0.14518 0.0
C1186 C 0.82599 0.62309 0.16945 0.0
C1187 C 0.81113 0.63151 0.14095 0.0
H1188 H 0.85083 0.6049 0.16731 0.0
H1189 H 0.70523 0.68677 0.89693 0.0
H1190 H 0.79582 0.3024 0.58173 0.0
H1191 H 0.83092 0.30136 0.5847 0.0
H1192 H 0.82959 0.26837 0.44263 0.0
H1193 H 0.79474 0.26989 0.43859 0.0
H1194 H 0.85509 0.27398 0.59323 0.0
H1195 H 0.86792 0.27537 0.37465 0.0
H1196 H 0.8537 0.29037 0.29844 0.0
H1197 H 0.8304 0.33529 0.39285 0.0
H1198 H 0.84471 0.32074 0.46956 0.0
H1199 H 0.94027 0.22787 0.52985 0.0
H1200 H 0.90815 0.24032 0.54117 0.0
H1201 H 0.9259 0.29508 0.48798 0.0
H1202 H 0.95804 0.28227 0.47396 0.0
H1203 H 0.89377 0.28609 0.44277 0.0
H1204 H 0.91444 0.2882 0.61605 0.0
H1205 H 0.92928 0.27695 0.69629 0.0
H1206 H 0.88712 0.23228 0.69986 0.0
H1207 H 0.87217 0.24308 0.61924 0.0
C1208 C 0.80302 0.29508 0.55088 0.0
C1209 C 0.7924 0.2863 0.50981 0.0
C1210 C 0.82312 0.29445 0.55269 0.0
C1211 C 0.83304 0.28501 0.51356 0.0
C1212 C 0.82241 0.27618 0.47271 0.0
C1213 C 0.80239 0.27697 0.47059 0.0
C1214 C 0.85442 0.28363 0.51611 0.0
C1215 C 0.86355 0.27675 0.56042 0.0
C1216 C 0.86568 0.28784 0.47402 0.0
C1217 C 0.85729 0.29687 0.42792 0.0
C1218 C 0.85986 0.28851 0.37915 0.0
C1219 C 0.85176 0.29693 0.33585 0.0
C1220 C 0.84112 0.31375 0.34081 0.0
C1221 C 0.8386 0.32223 0.38907 0.0
C1222 C 0.84669 0.3139 0.43248 0.0
C1223 C 0.93742 0.24261 0.52073 0.0
C1224 C 0.95175 0.25399 0.50045 0.0
C1225 C 0.91903 0.24982 0.52785 0.0
C1226 C 0.9145 0.26875 0.5159 0.0
C1227 C 0.92898 0.28043 0.49754 0.0
C1228 C 0.94743 0.27315 0.49002 0.0
C1229 C 0.89432 0.27567 0.51914 0.0
C1230 C 0.88538 0.28358 0.47587 0.0
C1231 C 0.88335 0.27296 0.56276 0.0
C1232 C 0.89224 0.2664 0.61138 0.0
C1233 C 0.9084 0.2759 0.63375 0.0
C1234 C 0.91682 0.26961 0.67934 0.0
C1235 C 0.90916 0.2539 0.70312 0.0
C1236 C 0.89304 0.24446 0.6814 0.0
C1237 C 0.88456 0.25067 0.63579 0.0
H1238 H 0.91571 0.24905 0.73841 0.0
H1239 H 0.83484 0.32022 0.30726 0.0
H1240 H 0.72119 0.22508 0.41921 0.0
H1241 H 0.72215 0.19 0.41622 0.0
H1242 H 0.75425 0.19103 0.55997 0.0
H1243 H 0.75296 0.22583 0.56386 0.0
H1244 H 0.75017 0.16505 0.41171 0.0
H1245 H 0.74295 0.1528 0.62991 0.0
H1246 H 0.72739 0.16852 0.70294 0.0
H1247 H 0.68696 0.19515 0.60077 0.0
H1248 H 0.70164 0.17892 0.52731 0.0
H1249 H 0.79393 0.08103 0.49439 0.0
H1250 H 0.78174 0.11272 0.47557 0.0
H1251 H 0.72499 0.09519 0.51469 0.0
H1252 H 0.73741 0.06339 0.5353 0.0
H1253 H 0.73334 0.12779 0.56137 0.0
H1254 H 0.73559 0.10571 0.38984 0.0
H1255 H 0.74887 0.09007 0.31333 0.0
H1256 H 0.79425 0.13166 0.3159 0.0
H1257 H 0.78142 0.1474 0.39287 0.0
C1258 C 0.72839 0.21782 0.45027 0.0
C1259 C 0.73691 0.22833 0.4919 0.0
C1260 C 0.72896 0.19775 0.44845 0.0
C1261 C 0.73803 0.18779 0.48821 0.0
C1262 C 0.74679 0.1983 0.52933 0.0
C1263 C 0.74611 0.21828 0.53138 0.0
C1264 C 0.73872 0.16646 0.48679 0.0
C1265 C 0.74638 0.15689 0.4443 0.0
C1266 C 0.73315 0.15566 0.52859 0.0
C1267 C 0.72355 0.16472 0.57293 0.0
C1268 C 0.73057 0.16178 0.623 0.0
C1269 C 0.72185 0.17076 0.66454 0.0
C1270 C 0.70613 0.18278 0.65653 0.0
C1271 C 0.69901 0.18572 0.60699 0.0
C1272 C 0.70751 0.1766 0.56538 0.0
C1273 C 0.77879 0.08381 0.4983 0.0
C1274 C 0.76666 0.06973 0.51668 0.0
C1275 C 0.77177 0.10194 0.4871 0.0
C1276 C 0.75238 0.10643 0.49335 0.0
C1277 C 0.74001 0.0921 0.5095 0.0
C1278 C 0.74706 0.07388 0.52081 0.0
C1279 C 0.74568 0.12651 0.4873 0.0
C1280 C 0.73686 0.13588 0.52843 0.0
C1281 C 0.74978 0.13705 0.44379 0.0
C1282 C 0.75757 0.12768 0.39735 0.0
C1283 C 0.74847 0.11145 0.37431 0.0
C1284 C 0.75591 0.10258 0.33081 0.0
C1285 C 0.77241 0.10985 0.3098 0.0
C1286 C 0.78147 0.12604 0.33221 0.0
C1287 C 0.7741 0.13497 0.37573 0.0
H1288 H 0.77814 0.10296 0.27613 0.0
H1289 H 0.69948 0.18983 0.68869 0.0
H1290 H 0.29576 0.22742 0.08234 0.0
H1291 H 0.3308 0.22738 0.08286 0.0
H1292 H 0.32933 0.25689 0.94105 0.0
H1293 H 0.29436 0.25658 0.93962 0.0
H1294 H 0.35459 0.2297 0.93636 0.0
H1295 H 0.34183 0.27988 0.0577 0.0
H1296 H 0.32752 0.29516 0.13328 0.0
H1297 H 0.3564 0.25514 0.22985 0.0
H1298 H 0.37069 0.23944 0.15472 0.0
H1299 H 0.45467 0.24865 0.94316 0.0
H1300 H 0.42042 0.25617 0.94958 0.0
H1301 H 0.41675 0.21808 0.07472 0.0
H1302 H 0.45082 0.2104 0.06794 0.0
H1303 H 0.39456 0.25215 0.08703 0.0
H1304 H 0.40536 0.20109 0.96206 0.0
H1305 H 0.41987 0.18686 0.88542 0.0
H1306 H 0.39448 0.23062 0.79416 0.0
H1307 H 0.38007 0.24531 0.87052 0.0
C1308 C 0.30288 0.23394 0.05129 0.0
C1309 C 0.29217 0.24202 0.01098 0.0
C1310 C 0.32296 0.23401 0.05178 0.0
C1311 C 0.33282 0.24238 0.01234 0.0
C1312 C 0.32214 0.25036 0.97197 0.0
C1313 C 0.30208 0.25018 0.97126 0.0
C1314 C 0.35422 0.24237 0.01237 0.0
C1315 C 0.36327 0.23494 0.96907 0.0
C1316 C 0.3657 0.24895 0.05517 0.0
C1317 C 0.35719 0.25837 0.1005 0.0
C1318 C 0.34502 0.27424 0.09501 0.0
C1319 C 0.33693 0.283 0.13777 0.0
C1320 C 0.34101 0.2761 0.18632 0.0
C1321 C 0.35324 0.26046 0.19221 0.0
C1322 C 0.36135 0.25163 0.14955 0.0
C1323 C 0.44664 0.24234 0.97292 0.0
C1324 C 0.45534 0.22897 0.00508 0.0
C1325 C 0.42708 0.24653 0.97637 0.0
C1326 C 0.41598 0.23754 0.01235 0.0
C1327 C 0.425 0.22519 0.04674 0.0
C1328 C 0.44445 0.22081 0.04283 0.0
C1329 C 0.39474 0.23948 0.01119 0.0
C1330 C 0.38578 0.24716 0.05427 0.0
C1331 C 0.38331 0.23332 0.96803 0.0
C1332 C 0.39183 0.22442 0.92208 0.0
C1333 C 0.40301 0.20778 0.92573 0.0
C1334 C 0.41119 0.19961 0.88234 0.0
C1335 C 0.40815 0.20786 0.83497 0.0
C1336 C 0.39686 0.22427 0.83089 0.0
C1337 C 0.38868 0.23252 0.87421 0.0
H1338 H 0.41449 0.20152 0.80141 0.0
H1339 H 0.33474 0.28289 0.21939 0.0
H1340 H 0.26344 0.80227 0.44098 0.0
H1341 H 0.26486 0.83716 0.43835 0.0
H1342 H 0.29778 0.83938 0.58084 0.0
H1343 H 0.29609 0.80454 0.58432 0.0
H1344 H 0.27164 0.86663 0.58147 0.0
H1345 H 0.31812 0.84399 0.46544 0.0
H1346 H 0.32986 0.82492 0.39246 0.0
H1347 H 0.29229 0.85518 0.2903 0.0
H1348 H 0.27971 0.87394 0.36298 0.0
H1349 H 0.31553 0.95846 0.56589 0.0
H1350 H 0.3086 0.92418 0.56903 0.0
H1351 H 0.26846 0.92852 0.44105 0.0
H1352 H 0.27521 0.96304 0.43828 0.0
H1353 H 0.29633 0.8984 0.43085 0.0
H1354 H 0.25077 0.92165 0.5506 0.0
H1355 H 0.24009 0.94026 0.62578 0.0
H1356 H 0.27888 0.90908 0.72267 0.0
H1357 H 0.29 0.89046 0.64793 0.0
C1358 C 0.27099 0.81016 0.47181 0.0
C1359 C 0.27968 0.80053 0.51283 0.0
C1360 C 0.27183 0.83014 0.47018 0.0
C1361 C 0.28159 0.84096 0.50914 0.0
C1362 C 0.29013 0.8314 0.55035 0.0
C1363 C 0.2892 0.81143 0.55217 0.0
C1364 C 0.28308 0.8622 0.50686 0.0
C1365 C 0.27721 0.87353 0.54868 0.0
C1366 C 0.29006 0.87132 0.46375 0.0
C1367 C 0.2978 0.86024 0.41982 0.0
C1368 C 0.31221 0.84648 0.4275 0.0
C1369 C 0.31905 0.83573 0.38616 0.0
C1370 C 0.31189 0.83888 0.33675 0.0
C1371 C 0.29783 0.85275 0.32861 0.0
C1372 C 0.29079 0.86341 0.3699 0.0
C1373 C 0.30503 0.95214 0.5389 0.0
C1374 C 0.29586 0.96339 0.50193 0.0
C1375 C 0.30107 0.93257 0.54073 0.0
C1376 C 0.28802 0.92378 0.50527 0.0
C1377 C 0.27858 0.93503 0.46877 0.0
C1378 C 0.28232 0.95473 0.46745 0.0
C1379 C 0.28491 0.90271 0.50542 0.0
C1380 C 0.29058 0.89144 0.46333 0.0
C1381 C 0.27802 0.89362 0.54853 0.0
C1382 C 0.27134 0.90478 0.59357 0.0
C1383 C 0.25715 0.91888 0.58787 0.0
C1384 C 0.25099 0.9294 0.63042 0.0
C1385 C 0.25883 0.92589 0.67896 0.0
C1386 C 0.27283 0.9118 0.68504 0.0
C1387 C 0.27905 0.90124 0.6426 0.0
H1388 H 0.25404 0.93405 0.71186 0.0
H1389 H 0.31725 0.83056 0.30479 0.0
H1390 H 0.71874 0.79957 0.9407 0.0
H1391 H 0.68363 0.799 0.93702 0.0
H1392 H 0.68394 0.76917 0.07829 0.0
H1393 H 0.71886 0.77018 0.08297 0.0
H1394 H 0.65882 0.7717 0.92773 0.0
H1395 H 0.64556 0.7791 0.14589 0.0
H1396 H 0.66014 0.79559 0.22241 0.0
H1397 H 0.68508 0.83744 0.12866 0.0
H1398 H 0.67042 0.82139 0.05165 0.0
H1399 H 0.57207 0.72976 0.99021 0.0
H1400 H 0.60457 0.74103 0.97909 0.0
H1401 H 0.58838 0.79776 0.03082 0.0
H1402 H 0.55578 0.78621 0.0444 0.0
H1403 H 0.62016 0.78894 0.07727 0.0
H1404 H 0.60003 0.78705 0.90346 0.0
H1405 H 0.58505 0.77408 0.82298 0.0
H1406 H 0.62571 0.72809 0.82071 0.0
H1407 H 0.64078 0.74061 0.90158 0.0
C1408 C 0.71132 0.793 0.97118 0.0
C1409 C 0.72168 0.78498 0.01223 0.0
C1410 C 0.69122 0.79265 0.96897 0.0
C1411 C 0.68102 0.78427 0.00769 0.0
C1412 C 0.69137 0.77614 0.04849 0.0
C1413 C 0.71141 0.77664 0.05098 0.0
C1414 C 0.65962 0.78334 0.00483 0.0
C1415 C 0.65037 0.77558 0.96035 0.0
C1416 C 0.64839 0.78899 0.04666 0.0
C1417 C 0.65699 0.79893 0.09294 0.0
C1418 C 0.65406 0.79189 0.14161 0.0
C1419 C 0.66236 0.80115 0.18507 0.0
C1420 C 0.67357 0.81752 0.18038 0.0
C1421 C 0.67644 0.82472 0.13223 0.0
C1422 C 0.66815 0.81553 0.08866 0.0
C1423 C 0.57534 0.74469 0.99891 0.0
C1424 C 0.56132 0.75703 0.01871 0.0
C1425 C 0.59395 0.75119 0.99197 0.0
C1426 C 0.59904 0.77033 0.00368 0.0
C1427 C 0.58486 0.78293 0.02147 0.0
C1428 C 0.56616 0.77636 0.02874 0.0
C1429 C 0.61946 0.77656 1.00089 0.0
C1430 C 0.62855 0.7853 0.04436 0.0
C1431 C 0.63045 0.77234 0.95757 0.0
C1432 C 0.62147 0.76473 0.9088 0.0
C1433 C 0.6057 0.7741 0.886 0.0
C1434 C 0.59721 0.76683 0.84027 0.0
C1435 C 0.60441 0.75026 0.81679 0.0
C1436 C 0.62015 0.74093 0.83894 0.0
C1437 C 0.6287 0.74812 0.88469 0.0
H1438 H 0.59781 0.74466 0.78138 0.0
H1439 H 0.68001 0.82465 0.21407 0.0
loop_
_geom_bond_atom_site_label_1
_geom_bond_atom_site_label_2
_geom_bond_distance
_geom_bond_site_symmetry_2
_ccdc_geom_bond_type
Fe0 O2 1.918 . S
Fe0 O5 1.997 . S
Fe0 O6 2.002 . S
Fe0 O11 1.976 . S
Fe0 O14 1.996 . S
Fe1 O2 1.918 1_556 S
Fe1 O9 1.997 . S
Fe1 O12 1.996 . S
Fe1 O16 1.976 . S
Fe1 O19 2.002 . S
O2 Fe0 1.918 . S
O2 Fe1 1.918 1_554 S
O2 Fe3 1.918 1_554 S
Fe3 O2 1.918 1_556 S
Fe3 O4 1.994 1_556 S
Fe3 O13 1.967 1_556 S
Fe3 O17 2.004 . S
Fe3 O20 2.005 . S
O4 Fe3 1.994 1_554 S
O4 C21 1.295 . S
O5 Fe0 1.997 . S
O5 C21 1.235 . S
O6 Fe0 2.002 . S
O6 C7 1.295 . S
C7 O6 1.295 . S
C7 O9 1.235 1_554 S
C8 O13 1.287 . S
C8 O14 1.255 . S
O9 Fe1 1.997 . S
O9 C7 1.235 1_556 S
C10 O16 1.287 . S
C10 O17 1.255 . S
O11 Fe0 1.976 . S
O11 C18 1.287 . S
O12 Fe1 1.996 . S
O12 C18 1.255 1_556 S
O13 Fe3 1.967 1_554 S
O13 C8 1.287 . S
O14 Fe0 1.996 . S
O14 C8 1.255 . S
C15 O19 1.295 . S
C15 O20 1.235 . S
O16 Fe1 1.976 . S
O16 C10 1.287 . S
O17 Fe3 2.004 . S
O17 C10 1.255 . S
C18 O11 1.287 . S
C18 O12 1.255 1_554 S
O19 Fe1 2.002 . S
O19 C15 1.295 . S
O20 Fe3 2.005 . S
O20 C15 1.235 . S
C21 O4 1.295 . S
C21 O5 1.235 . S
Fe22 O24 1.918 . S
Fe22 O27 1.997 . S
Fe22 O28 2.002 . S
Fe22 O33 1.976 . S
Fe22 O36 1.996 . S
Fe23 O24 1.918 . S
Fe23 O31 1.997 . S
Fe23 O34 1.996 . S
Fe23 O38 1.976 . S
Fe23 O41 2.002 . S
O24 Fe22 1.918 . S
O24 Fe23 1.918 . S
O24 Fe25 1.918 . S
Fe25 O24 1.918 . S
Fe25 O26 2.002 . S
Fe25 O35 1.976 . S
Fe25 O39 1.996 . S
Fe25 O42 1.997 . S
O26 Fe25 2.002 . S
O26 C43 1.295 . S
O27 Fe22 1.997 . S
O27 C43 1.235 . S
O28 Fe22 2.002 . S
O28 C29 1.295 . S
C29 O28 1.295 . S
C29 O31 1.235 . S
C30 O35 1.287 . S
C30 O36 1.255 . S
O31 Fe23 1.997 . S
O31 C29 1.235 . S
C32 O38 1.287 . S
C32 O39 1.255 . S
O33 Fe22 1.976 . S
O33 C40 1.287 . S
O34 Fe23 1.996 . S
O34 C40 1.255 . S
O35 Fe25 1.976 . S
O35 C30 1.287 . S
O36 Fe22 1.996 . S
O36 C30 1.255 . S
C37 O41 1.295 . S
C37 O42 1.235 . S
O38 Fe23 1.976 . S
O38 C32 1.287 . S
O39 Fe25 1.996 . S
O39 C32 1.255 . S
C40 O33 1.287 . S
C40 O34 1.255 . S
O41 Fe23 2.002 . S
O41 C37 1.295 . S
O42 Fe25 1.997 . S
O42 C37 1.235 . S
C43 O26 1.295 . S
C43 O27 1.235 . S
Fe44 O46 1.918 1_556 S
Fe44 O49 1.997 . S
Fe44 O50 2.002 . S
Fe44 O55 1.976 . S
Fe44 O58 1.996 . S
Fe45 O46 1.918 . S
Fe45 O53 1.997 . S
Fe45 O56 1.996 . S
Fe45 O60 1.976 . S
Fe45 O63 2.002 . S
O46 Fe44 1.918 1_554 S
O46 Fe45 1.918 . S
O46 Fe47 1.918 . S
Fe47 O46 1.918 . S
Fe47 O48 2.002 1_554 S
Fe47 O57 1.976 1_554 S
Fe47 O61 1.996 . S
Fe47 O64 1.997 . S
O48 Fe47 2.002 1_556 S
O48 C65 1.295 . S
O49 Fe44 1.997 . S
O49 C65 1.235 . S
O50 Fe44 2.002 . S
O50 C51 1.295 1_556 S
C51 O50 1.295 1_554 S
C51 O53 1.235 . S
C52 O57 1.287 . S
C52 O58 1.255 . S
O53 Fe45 1.997 . S
O53 C51 1.235 . S
C54 O60 1.287 . S
C54 O61 1.255 . S
O55 Fe44 1.976 . S
O55 C62 1.287 1_556 S
O56 Fe45 1.996 . S
O56 C62 1.255 . S
O57 Fe47 1.976 1_556 S
O57 C52 1.287 . S
O58 Fe44 1.996 . S
O58 C52 1.255 . S
C59 O63 1.295 . S
C59 O64 1.235 . S
O60 Fe45 1.976 . S
O60 C54 1.287 . S
O61 Fe47 1.996 . S
O61 C54 1.255 . S
C62 O55 1.287 1_554 S
C62 O56 1.255 . S
O63 Fe45 2.002 . S
O63 C59 1.295 . S
O64 Fe47 1.997 . S
O64 C59 1.235 . S
C65 O48 1.295 . S
C65 O49 1.235 . S
Fe66 O68 1.918 . S
Fe66 O71 1.997 . S
Fe66 O72 2.002 . S
Fe66 O77 1.976 . S
Fe66 O80 1.996 . S
Fe67 O68 1.918 . S
Fe67 O75 1.997 . S
Fe67 O78 1.996 . S
Fe67 O82 1.976 . S
Fe67 O85 2.002 . S
O68 Fe66 1.918 . S
O68 Fe67 1.918 . S
O68 Fe69 1.918 . S
Fe69 O68 1.918 . S
Fe69 O70 2.002 . S
Fe69 O79 1.976 . S
Fe69 O83 1.996 . S
Fe69 O86 1.997 . S
O70 Fe69 2.002 . S
O70 C87 1.295 . S
O71 Fe66 1.997 . S
O71 C87 1.235 . S
O72 Fe66 2.002 . S
O72 C73 1.295 . S
C73 O72 1.295 . S
C73 O75 1.235 . S
C74 O79 1.287 . S
C74 O80 1.255 . S
O75 Fe67 1.997 . S
O75 C73 1.235 . S
C76 O82 1.287 . S
C76 O83 1.255 . S
O77 Fe66 1.976 . S
O77 C84 1.287 . S
O78 Fe67 1.996 . S
O78 C84 1.255 . S
O79 Fe69 1.976 . S
O79 C74 1.287 . S
O80 Fe66 1.996 . S
O80 C74 1.255 . S
C81 O85 1.295 . S
C81 O86 1.235 . S
O82 Fe67 1.976 . S
O82 C76 1.287 . S
O83 Fe69 1.996 . S
O83 C76 1.255 . S
C84 O77 1.287 . S
C84 O78 1.255 . S
O85 Fe67 2.002 . S
O85 C81 1.295 . S
O86 Fe69 1.997 . S
O86 C81 1.235 . S
C87 O70 1.295 . S
C87 O71 1.235 . S
H88 C89 0.949 . S
C89 H88 0.949 . S
C89 C90 1.395 . S
C89 C91 1.391 1_554 S
C90 C89 1.395 . S
C90 C93 1.390 . S
C91 C89 1.391 1_556 S
C91 C95 1.387 . S
C91 C96 1.491 . S
H92 C93 0.950 . S
C93 C90 1.390 . S
C93 H92 0.950 . S
C93 C94 1.378 1_554 S
C94 C93 1.378 1_556 S
C94 C95 1.409 . S
C95 C91 1.387 . S
C95 C94 1.409 . S
C95 H97 0.951 . S
C96 C91 1.491 . S
C96 C98 1.382 1_556 S
C96 C100 1.404 . S
H97 C95 0.951 . S
C98 C96 1.382 1_554 S
C98 C99 1.390 1_554 S
C98 H103 0.949 . S
C99 C98 1.390 1_556 S
C99 C104 1.399 . S
C100 C96 1.404 . S
C100 H101 0.950 . S
C100 C102 1.375 . S
H101 C100 0.950 . S
C102 C100 1.375 . S
C102 C104 1.382 . S
C102 H106 0.950 . S
H103 C98 0.949 . S
C104 C99 1.399 . S
C104 C102 1.382 . S
C104 H105 0.952 . S
H105 C104 0.952 . S
H106 C102 0.950 . S
H107 C108 0.949 . S
C108 H107 0.949 . S
C108 C109 1.395 . S
C108 C110 1.391 . S
C109 C108 1.395 . S
C109 C112 1.390 . S
C110 C108 1.391 . S
C110 C114 1.387 . S
C110 C115 1.491 1_655 S
H111 C112 0.950 . S
C112 C109 1.390 . S
C112 H111 0.950 . S
C112 C113 1.378 . S
C113 C112 1.378 . S
C113 C114 1.409 . S
C114 C110 1.387 . S
C114 C113 1.409 . S
C114 H116 0.951 . S
C115 C110 1.491 1_455 S
C115 C117 1.382 . S
C115 C119 1.404 . S
H116 C114 0.951 . S
C117 C115 1.382 . S
C117 C118 1.390 . S
C117 H122 0.949 . S
C118 C117 1.390 . S
C118 C123 1.399 . S
C119 C115 1.404 . S
C119 H120 0.950 . S
C119 C121 1.375 . S
H120 C119 0.950 . S
C121 C119 1.375 . S
C121 C123 1.382 . S
C121 H125 0.950 . S
H122 C117 0.949 . S
C123 C118 1.399 . S
C123 C121 1.382 . S
C123 H124 0.952 . S
H124 C123 0.952 . S
H125 C121 0.950 . S
H126 C127 0.949 . S
C127 H126 0.949 . S
C127 C128 1.395 . S
C127 C129 1.391 1_556 S
C128 C127 1.395 . S
C128 C131 1.390 1_556 S
C129 C127 1.391 1_554 S
C129 C133 1.387 . S
C129 C134 1.491 . S
H130 C131 0.950 . S
C131 C128 1.390 1_554 S
C131 H130 0.950 . S
C131 C132 1.378 . S
C132 C131 1.378 . S
C132 C133 1.409 . S
C133 C129 1.387 . S
C133 C132 1.409 . S
C133 H135 0.951 . S
C134 C129 1.491 . S
C134 C136 1.382 . S
C134 C138 1.404 . S
H135 C133 0.951 . S
C136 C134 1.382 . S
C136 C137 1.390 . S
C136 H141 0.949 1_554 S
C137 C136 1.390 . S
C137 C142 1.399 . S
C138 C134 1.404 . S
C138 H139 0.950 . S
C138 C140 1.375 . S
H139 C138 0.950 . S
C140 C138 1.375 . S
C140 C142 1.382 . S
C140 H144 0.950 . S
H141 C136 0.949 1_556 S
C142 C137 1.399 . S
C142 C140 1.382 . S
C142 H143 0.952 . S
H143 C142 0.952 . S
H144 C140 0.950 . S
H145 C146 0.984 . S
C146 H145 0.984 . S
C146 C147 1.395 . S
C146 C148 1.391 . S
C147 C146 1.395 . S
C147 C150 1.390 . S
C148 C146 1.391 . S
C148 C152 1.387 . S
C148 C153 1.491 1_455 S
H149 C150 0.950 . S
C150 C147 1.390 . S
C150 H149 0.950 . S
C150 C151 1.378 . S
C151 C150 1.378 . S
C151 C152 1.409 . S
C152 C148 1.387 . S
C152 C151 1.409 . S
C152 H154 0.951 . S
C153 C148 1.491 1_655 S
C153 C155 1.382 . S
C153 C157 1.404 . S
H154 C152 0.951 . S
C155 C153 1.382 . S
C155 C156 1.390 . S
C155 H160 0.949 . S
C156 C155 1.390 . S
C156 C161 1.399 . S
C157 C153 1.404 . S
C157 H158 0.950 . S
C157 C159 1.375 . S
H158 C157 0.950 . S
C159 C157 1.375 . S
C159 C161 1.382 . S
C159 H163 0.950 . S
H160 C155 0.949 . S
C161 C156 1.399 . S
C161 C159 1.382 . S
C161 H162 0.952 . S
H162 C161 0.952 . S
H163 C159 0.950 . S
H164 C165 0.941 1_545 S
C165 H164 0.941 1_565 S
C165 C166 1.395 . S
C165 C167 1.394 . S
C166 C165 1.395 . S
C166 C169 1.390 . S
C167 C165 1.394 . S
C167 C171 1.393 . S
C167 C172 1.482 1_565 S
H168 C169 0.950 . S
C169 C166 1.390 . S
C169 H168 0.950 . S
C169 C170 1.378 . S
C170 C169 1.378 . S
C170 C171 1.409 . S
C171 C167 1.393 . S
C171 C170 1.409 . S
C171 H173 0.951 . S
C172 C167 1.482 1_545 S
C172 C174 1.382 . S
C172 C176 1.404 . S
H173 C171 0.951 . S
C174 C172 1.382 . S
C174 C175 1.390 . S
C174 H179 0.949 . S
C175 C174 1.390 . S
C175 C180 1.399 . S
C176 C172 1.404 . S
C176 H177 0.950 . S
C176 C178 1.375 . S
H177 C176 0.950 . S
C178 C176 1.375 . S
C178 C180 1.382 . S
C178 H182 0.950 . S
H179 C174 0.949 . S
C180 C175 1.399 . S
C180 C178 1.382 . S
C180 H181 0.952 . S
H181 C180 0.952 . S
H182 C178 0.950 . S
H183 C184 0.949 . S
C184 H183 0.949 . S
C184 C185 1.395 . S
C184 C186 1.391 1_554 S
C185 C184 1.395 . S
C185 C188 1.390 . S
C186 C184 1.391 1_556 S
C186 C190 1.387 . S
C186 C191 1.491 . S
H187 C188 0.950 . S
C188 C185 1.390 . S
C188 H187 0.950 . S
C188 C189 1.378 1_554 S
C189 C188 1.378 1_556 S
C189 C190 1.409 . S
C190 C186 1.387 . S
C190 C189 1.409 . S
C190 H192 0.951 . S
C191 C186 1.491 . S
C191 C193 1.382 1_556 S
C191 C195 1.404 . S
H192 C190 0.951 . S
C193 C191 1.382 1_554 S
C193 C194 1.390 1_554 S
C193 H198 0.949 . S
C194 C193 1.390 1_556 S
C194 C199 1.399 . S
C195 C191 1.404 . S
C195 H196 0.950 . S
C195 C197 1.375 . S
H196 C195 0.950 . S
C197 C195 1.375 . S
C197 C199 1.382 . S
C197 H201 0.950 . S
H198 C193 0.949 . S
C199 C194 1.399 . S
C199 C197 1.382 . S
C199 H200 0.952 . S
H200 C199 0.952 . S
H201 C197 0.950 . S
H202 C203 0.949 . S
C203 H202 0.949 . S
C203 C204 1.395 . S
C203 C205 1.391 . S
C204 C203 1.395 . S
C204 C207 1.390 . S
C205 C203 1.391 . S
C205 C209 1.387 . S
C205 C210 1.491 1_545 S
H206 C207 0.950 . S
C207 C204 1.390 . S
C207 H206 0.950 . S
C207 C208 1.378 . S
C208 C207 1.378 . S
C208 C209 1.409 . S
C209 C205 1.387 . S
C209 C208 1.409 . S
C209 H211 0.951 . S
C210 C205 1.491 1_565 S
C210 C212 1.382 . S
C210 C214 1.404 . S
H211 C209 0.951 . S
C212 C210 1.382 . S
C212 C213 1.390 . S
C212 H217 0.949 . S
C213 C212 1.390 . S
C213 C218 1.399 . S
C214 C210 1.404 . S
C214 H215 0.950 . S
C214 C216 1.375 . S
H215 C214 0.950 . S
C216 C214 1.375 . S
C216 C218 1.382 . S
C216 H220 0.950 . S
H217 C212 0.949 . S
C218 C213 1.399 . S
C218 C216 1.382 . S
C218 H219 0.952 . S
H219 C218 0.952 . S
H220 C216 0.950 . S
H221 C222 0.949 . S
C222 H221 0.949 . S
C222 C223 1.395 . S
C222 C224 1.391 1_556 S
C223 C222 1.395 . S
C223 C226 1.390 1_556 S
C224 C222 1.391 1_554 S
C224 C228 1.387 . S
C224 C229 1.491 . S
H225 C226 0.950 . S
C226 C223 1.390 1_554 S
C226 H225 0.950 . S
C226 C227 1.378 . S
C227 C226 1.378 . S
C227 C228 1.409 . S
C228 C224 1.387 . S
C228 C227 1.409 . S
C228 H230 0.951 . S
C229 C224 1.491 . S
C229 C231 1.382 . S
C229 C233 1.404 . S
H230 C228 0.951 . S
C231 C229 1.382 . S
C231 C232 1.390 . S
C231 H236 0.949 1_554 S
C232 C231 1.390 . S
C232 C237 1.399 . S
C233 C229 1.404 . S
C233 H234 0.950 . S
C233 C235 1.375 . S
H234 C233 0.950 . S
C235 C233 1.375 . S
C235 C237 1.382 . S
C235 H239 0.950 . S
H236 C231 0.949 1_556 S
C237 C232 1.399 . S
C237 C235 1.382 . S
C237 H238 0.952 . S
H238 C237 0.952 . S
H239 C235 0.950 . S
H240 C258 0.951 . S
H241 C260 0.951 . S
H242 C262 0.950 . S
H243 C263 0.950 . S
H244 C265 0.950 . S
H245 C268 0.950 . S
H246 C269 0.950 . S
H247 C271 0.950 . S
H248 C272 0.950 . S
H249 C273 0.951 . S
H250 C275 0.951 . S
H251 C277 0.950 . S
H252 C278 0.950 . S
H253 C280 0.950 . S
H254 C283 0.950 . S
H255 C284 0.950 . S
H256 C286 0.950 . S
H257 C287 0.950 . S
C258 H240 0.951 . S
C258 C259 1.366 . S
C258 C260 1.388 . S
C259 C258 1.366 . S
C259 C263 1.385 . S
C260 H241 0.951 . S
C260 C258 1.388 . S
C260 C261 1.366 . S
C261 C260 1.366 . S
C261 C262 1.414 . S
C261 C264 1.499 . S
C262 H242 0.950 . S
C262 C261 1.414 . S
C262 C263 1.374 . S
C263 H243 0.950 . S
C263 C259 1.385 . S
C263 C262 1.374 . S
C264 C261 1.499 . S
C264 C265 1.373 . S
C264 C266 1.389 . S
C265 H244 0.950 . S
C265 C264 1.373 . S
C265 C281 1.377 . S
C266 C264 1.389 . S
C266 C267 1.524 . S
C266 C280 1.377 . S
C267 C266 1.524 . S
C267 C268 1.397 . S
C267 C272 1.363 . S
C268 H245 0.950 . S
C268 C267 1.397 . S
C268 C269 1.334 . S
C269 H246 0.950 . S
C269 C268 1.334 . S
C269 C270 1.287 . S
C270 C269 1.287 . S
C270 C271 1.524 . S
C270 H289 0.913 . S
C271 H247 0.950 . S
C271 C270 1.524 . S
C271 C272 1.415 . S
C272 H248 0.950 . S
C272 C267 1.363 . S
C272 C271 1.415 . S
C273 H249 0.951 . S
C273 C274 1.366 . S
C273 C275 1.388 . S
C274 C273 1.366 . S
C274 C278 1.385 . S
C275 H250 0.951 . S
C275 C273 1.388 . S
C275 C276 1.366 . S
C276 C275 1.366 . S
C276 C277 1.414 . S
C276 C279 1.499 . S
C277 H251 0.950 . S
C277 C276 1.414 . S
C277 C278 1.374 . S
C278 H252 0.950 . S
C278 C274 1.385 . S
C278 C277 1.374 . S
C279 C276 1.499 . S
C279 C280 1.373 . S
C279 C281 1.389 . S
C280 H253 0.950 . S
C280 C266 1.377 . S
C280 C279 1.373 . S
C281 C265 1.377 . S
C281 C279 1.389 . S
C281 C282 1.524 . S
C282 C281 1.524 . S
C282 C283 1.397 . S
C282 C287 1.363 . S
C283 H254 0.950 . S
C283 C282 1.397 . S
C283 C284 1.334 . S
C284 H255 0.950 . S
C284 C283 1.334 . S
C284 C285 1.287 . S
C285 C284 1.287 . S
C285 C286 1.524 . S
C285 H288 0.999 . S
C286 H256 0.950 . S
C286 C285 1.524 . S
C286 C287 1.415 . S
C287 H257 0.950 . S
C287 C282 1.363 . S
C287 C286 1.415 . S
H288 C285 0.999 . S
H289 C270 0.913 . S
H290 C308 0.951 . S
H291 C310 0.951 . S
H292 C312 0.950 . S
H293 C313 0.950 . S
H294 C315 0.950 . S
H295 C318 0.950 . S
H296 C319 0.950 . S
H297 C321 0.950 . S
H298 C322 0.950 . S
H299 C323 0.951 . S
H300 C325 0.951 . S
H301 C327 0.950 . S
H302 C328 0.950 . S
H303 C330 0.950 . S
H304 C333 0.950 . S
H305 C334 0.950 . S
H306 C336 0.950 . S
H307 C337 0.950 . S
C308 H290 0.951 . S
C308 C309 1.366 . S
C308 C310 1.388 . S
C309 C308 1.366 . S
C309 C313 1.385 . S
C310 H291 0.951 . S
C310 C308 1.388 . S
C310 C311 1.366 . S
C311 C310 1.366 . S
C311 C312 1.414 . S
C311 C314 1.499 . S
C312 H292 0.950 . S
C312 C311 1.414 . S
C312 C313 1.374 . S
C313 H293 0.950 . S
C313 C309 1.385 . S
C313 C312 1.374 . S
C314 C311 1.499 . S
C314 C315 1.373 . S
C314 C316 1.389 . S
C315 H294 0.950 . S
C315 C314 1.373 . S
C315 C331 1.377 . S
C316 C314 1.389 . S
C316 C317 1.524 . S
C316 C330 1.377 . S
C317 C316 1.524 . S
C317 C318 1.397 . S
C317 C322 1.363 . S
C318 H295 0.950 . S
C318 C317 1.397 . S
C318 C319 1.334 . S
C319 H296 0.950 . S
C319 C318 1.334 . S
C319 C320 1.287 . S
C320 C319 1.287 . S
C320 C321 1.524 . S
C320 H339 0.913 . S
C321 H297 0.950 . S
C321 C320 1.524 . S
C321 C322 1.415 . S
C322 H298 0.950 . S
C322 C317 1.363 . S
C322 C321 1.415 . S
C323 H299 0.951 . S
C323 C324 1.366 . S
C323 C325 1.388 . S
C324 C323 1.366 . S
C324 C328 1.385 . S
C325 H300 0.951 . S
C325 C323 1.388 . S
C325 C326 1.366 . S
C326 C325 1.366 . S
C326 C327 1.414 . S
C326 C329 1.499 . S
C327 H301 0.950 . S
C327 C326 1.414 . S
C327 C328 1.374 . S
C328 H302 0.950 . S
C328 C324 1.385 . S
C328 C327 1.374 . S
C329 C326 1.499 . S
C329 C330 1.373 . S
C329 C331 1.389 . S
C330 H303 0.950 . S
C330 C316 1.377 . S
C330 C329 1.373 . S
C331 C315 1.377 . S
C331 C329 1.389 . S
C331 C332 1.524 . S
C332 C331 1.524 . S
C332 C333 1.397 . S
C332 C337 1.363 . S
C333 H304 0.950 . S
C333 C332 1.397 . S
C333 C334 1.334 . S
C334 H305 0.950 . S
C334 C333 1.334 . S
C334 C335 1.287 . S
C335 C334 1.287 . S
C335 C336 1.524 . S
C335 H338 0.999 . S
C336 H306 0.950 . S
C336 C335 1.524 . S
C336 C337 1.415 . S
C337 H307 0.950 . S
C337 C332 1.363 . S
C337 C336 1.415 . S
H338 C335 0.999 . S
H339 C320 0.913 . S
H340 C358 0.951 . S
H341 C360 0.951 . S
H342 C362 0.950 . S
H343 C363 0.950 . S
H344 C365 0.950 . S
H345 C368 0.950 . S
H346 C369 0.950 . S
H347 C371 0.950 . S
H348 C372 0.950 . S
H349 C373 0.951 . S
H350 C375 0.951 . S
H351 C377 0.950 . S
H352 C378 0.950 . S
H353 C380 0.950 . S
H354 C383 0.950 . S
H355 C384 0.950 . S
H356 C386 0.950 . S
H357 C387 0.950 . S
C358 H340 0.951 . S
C358 C359 1.366 . S
C358 C360 1.388 . S
C359 C358 1.366 . S
C359 C363 1.385 . S
C360 H341 0.951 . S
C360 C358 1.388 . S
C360 C361 1.366 . S
C361 C360 1.366 . S
C361 C362 1.414 . S
C361 C364 1.499 . S
C362 H342 0.950 . S
C362 C361 1.414 . S
C362 C363 1.374 . S
C363 H343 0.950 . S
C363 C359 1.385 . S
C363 C362 1.374 . S
C364 C361 1.499 . S
C364 C365 1.373 . S
C364 C366 1.389 . S
C365 H344 0.950 . S
C365 C364 1.373 . S
C365 C381 1.377 . S
C366 C364 1.389 . S
C366 C367 1.524 . S
C366 C380 1.377 . S
C367 C366 1.524 . S
C367 C368 1.397 . S
C367 C372 1.363 . S
C368 H345 0.950 . S
C368 C367 1.397 . S
C368 C369 1.334 . S
C369 H346 0.950 . S
C369 C368 1.334 . S
C369 C370 1.287 . S
C370 C369 1.287 . S
C370 C371 1.524 . S
C370 H389 0.913 . S
C371 H347 0.950 . S
C371 C370 1.524 . S
C371 C372 1.415 . S
C372 H348 0.950 . S
C372 C367 1.363 . S
C372 C371 1.415 . S
C373 H349 0.951 . S
C373 C374 1.366 . S
C373 C375 1.388 . S
C374 C373 1.366 . S
C374 C378 1.385 . S
C375 H350 0.951 . S
C375 C373 1.388 . S
C375 C376 1.366 . S
C376 C375 1.366 . S
C376 C377 1.414 . S
C376 C379 1.499 . S
C377 H351 0.950 . S
C377 C376 1.414 . S
C377 C378 1.374 . S
C378 H352 0.950 . S
C378 C374 1.385 . S
C378 C377 1.374 . S
C379 C376 1.499 . S
C379 C380 1.373 . S
C379 C381 1.389 . S
C380 H353 0.950 . S
C380 C366 1.377 . S
C380 C379 1.373 . S
C381 C365 1.377 . S
C381 C379 1.389 . S
C381 C382 1.524 . S
C382 C381 1.524 . S
C382 C383 1.397 . S
C382 C387 1.363 . S
C383 H354 0.950 . S
C383 C382 1.397 . S
C383 C384 1.334 . S
C384 H355 0.950 . S
C384 C383 1.334 . S
C384 C385 1.287 . S
C385 C384 1.287 . S
C385 C386 1.524 . S
C385 H388 0.999 . S
C386 H356 0.950 . S
C386 C385 1.524 . S
C386 C387 1.415 . S
C387 H357 0.950 . S
C387 C382 1.363 . S
C387 C386 1.415 . S
H388 C385 0.999 . S
H389 C370 0.913 . S
H390 C408 0.951 . S
H391 C410 0.951 . S
H392 C412 0.950 . S
H393 C413 0.950 . S
H394 C415 0.950 . S
H395 C418 0.950 . S
H396 C419 0.950 . S
H397 C421 0.950 . S
H398 C422 0.950 . S
H399 C423 0.951 . S
H400 C425 0.951 . S
H401 C427 0.950 . S
H402 C428 0.950 . S
H403 C430 0.950 . S
H404 C433 0.950 . S
H405 C434 0.950 . S
H406 C436 0.950 . S
H407 C437 0.950 . S
C408 H390 0.951 . S
C408 C409 1.366 . S
C408 C410 1.388 . S
C409 C408 1.366 . S
C409 C413 1.385 . S
C410 H391 0.951 . S
C410 C408 1.388 . S
C410 C411 1.366 . S
C411 C410 1.366 . S
C411 C412 1.414 . S
C411 C414 1.499 . S
C412 H392 0.950 . S
C412 C411 1.414 . S
C412 C413 1.374 . S
C413 H393 0.950 . S
C413 C409 1.385 . S
C413 C412 1.374 . S
C414 C411 1.499 . S
C414 C415 1.373 . S
C414 C416 1.389 . S
C415 H394 0.950 . S
C415 C414 1.373 . S
C415 C431 1.377 . S
C416 C414 1.389 . S
C416 C417 1.524 . S
C416 C430 1.377 . S
C417 C416 1.524 . S
C417 C418 1.397 . S
C417 C422 1.363 . S
C418 H395 0.950 . S
C418 C417 1.397 . S
C418 C419 1.334 . S
C419 H396 0.950 . S
C419 C418 1.334 . S
C419 C420 1.287 . S
C420 C419 1.287 . S
C420 C421 1.524 . S
C420 H439 0.913 . S
C421 H397 0.950 . S
C421 C420 1.524 . S
C421 C422 1.415 . S
C422 H398 0.950 . S
C422 C417 1.363 . S
C422 C421 1.415 . S
C423 H399 0.951 . S
C423 C424 1.366 . S
C423 C425 1.388 . S
C424 C423 1.366 . S
C424 C428 1.385 . S
C425 H400 0.951 . S
C425 C423 1.388 . S
C425 C426 1.366 . S
C426 C425 1.366 . S
C426 C427 1.414 . S
C426 C429 1.499 . S
C427 H401 0.950 . S
C427 C426 1.414 . S
C427 C428 1.374 . S
C428 H402 0.950 . S
C428 C424 1.385 . S
C428 C427 1.374 . S
C429 C426 1.499 . S
C429 C430 1.373 . S
C429 C431 1.389 . S
C430 H403 0.950 . S
C430 C416 1.377 . S
C430 C429 1.373 . S
C431 C415 1.377 . S
C431 C429 1.389 . S
C431 C432 1.524 . S
C432 C431 1.524 . S
C432 C433 1.397 . S
C432 C437 1.363 . S
C433 H404 0.950 . S
C433 C432 1.397 . S
C433 C434 1.334 . S
C434 H405 0.950 . S
C434 C433 1.334 . S
C434 C435 1.287 . S
C435 C434 1.287 . S
C435 C436 1.524 . S
C435 H438 0.999 . S
C436 H406 0.950 . S
C436 C435 1.524 . S
C436 C437 1.415 . S
C437 H407 0.950 . S
C437 C432 1.363 . S
C437 C436 1.415 . S
H438 C435 0.999 . S
H439 C420 0.913 . S
H440 C458 0.951 . S
H441 C460 0.951 . S
H442 C462 0.950 . S
H443 C463 0.950 . S
H444 C465 0.950 . S
H445 C468 0.950 . S
H446 C469 0.950 . S
H447 C471 0.950 . S
H448 C472 0.950 . S
H449 C473 0.951 . S
H450 C475 0.951 . S
H451 C477 0.950 . S
H452 C478 0.950 . S
H453 C480 0.950 . S
H454 C483 0.950 . S
H455 C484 0.950 . S
H456 C486 0.950 . S
H457 C487 0.950 . S
C458 H440 0.951 . S
C458 C459 1.366 . S
C458 C460 1.388 . S
C459 C458 1.366 . S
C459 C463 1.385 . S
C460 H441 0.951 . S
C460 C458 1.388 . S
C460 C461 1.366 . S
C461 C460 1.366 . S
C461 C462 1.414 . S
C461 C464 1.499 . S
C462 H442 0.950 . S
C462 C461 1.414 . S
C462 C463 1.374 . S
C463 H443 0.950 . S
C463 C459 1.385 . S
C463 C462 1.374 . S
C464 C461 1.499 . S
C464 C465 1.373 . S
C464 C466 1.389 . S
C465 H444 0.950 . S
C465 C464 1.373 . S
C465 C481 1.377 . S
C466 C464 1.389 . S
C466 C467 1.524 . S
C466 C480 1.377 . S
C467 C466 1.524 . S
C467 C468 1.397 . S
C467 C472 1.363 . S
C468 H445 0.950 . S
C468 C467 1.397 . S
C468 C469 1.334 . S
C469 H446 0.950 . S
C469 C468 1.334 . S
C469 C470 1.287 . S
C470 C469 1.287 . S
C470 C471 1.524 . S
C470 H489 0.913 . S
C471 H447 0.950 . S
C471 C470 1.524 . S
C471 C472 1.415 . S
C472 H448 0.950 . S
C472 C467 1.363 . S
C472 C471 1.415 . S
C473 H449 0.951 . S
C473 C474 1.366 . S
C473 C475 1.388 . S
C474 C473 1.366 . S
C474 C478 1.385 . S
C475 H450 0.951 . S
C475 C473 1.388 . S
C475 C476 1.366 . S
C476 C475 1.366 . S
C476 C477 1.414 . S
C476 C479 1.499 . S
C477 H451 0.950 . S
C477 C476 1.414 . S
C477 C478 1.374 . S
C478 H452 0.950 . S
C478 C474 1.385 . S
C478 C477 1.374 . S
C479 C476 1.499 . S
C479 C480 1.373 . S
C479 C481 1.389 . S
C480 H453 0.950 . S
C480 C466 1.377 . S
C480 C479 1.373 . S
C481 C465 1.377 . S
C481 C479 1.389 . S
C481 C482 1.524 . S
C482 C481 1.524 . S
C482 C483 1.397 . S
C482 C487 1.363 . S
C483 H454 0.950 . S
C483 C482 1.397 . S
C483 C484 1.334 . S
C484 H455 0.950 . S
C484 C483 1.334 . S
C484 C485 1.287 . S
C485 C484 1.287 . S
C485 C486 1.524 . S
C485 H488 0.999 . S
C486 H456 0.950 . S
C486 C485 1.524 . S
C486 C487 1.415 . S
C487 H457 0.950 . S
C487 C482 1.363 . S
C487 C486 1.415 . S
H488 C485 0.999 . S
H489 C470 0.913 . S
H490 C508 0.951 . S
H491 C510 0.951 . S
H492 C512 0.950 . S
H493 C513 0.950 . S
H494 C515 0.950 . S
H495 C518 0.950 . S
H496 C519 0.950 . S
H497 C521 0.950 . S
H498 C522 0.950 . S
H499 C523 0.951 . S
H500 C525 0.951 . S
H501 C527 0.950 . S
H502 C528 0.950 . S
H503 C530 0.950 . S
H504 C533 0.950 . S
H505 C534 0.950 . S
H506 C536 0.950 . S
H507 C537 0.950 . S
C508 H490 0.951 . S
C508 C509 1.366 . S
C508 C510 1.388 . S
C509 C508 1.366 . S
C509 C513 1.385 . S
C510 H491 0.951 . S
C510 C508 1.388 . S
C510 C511 1.366 . S
C511 C510 1.366 . S
C511 C512 1.414 . S
C511 C514 1.499 . S
C512 H492 0.950 . S
C512 C511 1.414 . S
C512 C513 1.374 . S
C513 H493 0.950 . S
C513 C509 1.385 . S
C513 C512 1.374 . S
C514 C511 1.499 . S
C514 C515 1.373 . S
C514 C516 1.389 . S
C515 H494 0.950 . S
C515 C514 1.373 . S
C515 C531 1.377 . S
C516 C514 1.389 . S
C516 C517 1.524 . S
C516 C530 1.377 . S
C517 C516 1.524 . S
C517 C518 1.397 . S
C517 C522 1.363 . S
C518 H495 0.950 . S
C518 C517 1.397 . S
C518 C519 1.334 . S
C519 H496 0.950 . S
C519 C518 1.334 . S
C519 C520 1.287 . S
C520 C519 1.287 . S
C520 C521 1.524 . S
C520 H539 0.913 . S
C521 H497 0.950 . S
C521 C520 1.524 . S
C521 C522 1.415 . S
C522 H498 0.950 . S
C522 C517 1.363 . S
C522 C521 1.415 . S
C523 H499 0.951 . S
C523 C524 1.366 . S
C523 C525 1.388 . S
C524 C523 1.366 . S
C524 C528 1.385 . S
C525 H500 0.951 . S
C525 C523 1.388 . S
C525 C526 1.366 . S
C526 C525 1.366 . S
C526 C527 1.414 . S
C526 C529 1.499 . S
C527 H501 0.950 . S
C527 C526 1.414 . S
C527 C528 1.374 . S
C528 H502 0.950 . S
C528 C524 1.385 . S
C528 C527 1.374 . S
C529 C526 1.499 . S
C529 C530 1.373 . S
C529 C531 1.389 . S
C530 H503 0.950 . S
C530 C516 1.377 . S
C530 C529 1.373 . S
C531 C515 1.377 . S
C531 C529 1.389 . S
C531 C532 1.524 . S
C532 C531 1.524 . S
C532 C533 1.397 . S
C532 C537 1.363 . S
C533 H504 0.950 . S
C533 C532 1.397 . S
C533 C534 1.334 . S
C534 H505 0.950 . S
C534 C533 1.334 . S
C534 C535 1.287 . S
C535 C534 1.287 . S
C535 C536 1.524 . S
C535 H538 0.999 . S
C536 H506 0.950 . S
C536 C535 1.524 . S
C536 C537 1.415 . S
C537 H507 0.950 . S
C537 C532 1.363 . S
C537 C536 1.415 . S
H538 C535 0.999 . S
H539 C520 0.913 . S
H540 C558 0.951 . S
H541 C560 0.951 . S
H542 C562 0.950 . S
H543 C563 0.950 . S
H544 C565 0.950 . S
H545 C568 0.950 . S
H546 C569 0.950 . S
H547 C571 0.950 . S
H548 C572 0.950 . S
H549 C573 0.951 . S
H550 C575 0.951 . S
H551 C577 0.950 . S
H552 C578 0.950 . S
H553 C580 0.950 . S
H554 C583 0.950 . S
H555 C584 0.950 . S
H556 C586 0.950 . S
H557 C587 0.950 . S
C558 H540 0.951 . S
C558 C559 1.366 . S
C558 C560 1.388 . S
C559 C558 1.366 . S
C559 C563 1.385 . S
C560 H541 0.951 . S
C560 C558 1.388 . S
C560 C561 1.366 . S
C561 C560 1.366 . S
C561 C562 1.414 . S
C561 C564 1.499 . S
C562 H542 0.950 . S
C562 C561 1.414 . S
C562 C563 1.374 . S
C563 H543 0.950 . S
C563 C559 1.385 . S
C563 C562 1.374 . S
C564 C561 1.499 . S
C564 C565 1.373 . S
C564 C566 1.389 . S
C565 H544 0.950 . S
C565 C564 1.373 . S
C565 C581 1.377 . S
C566 C564 1.389 . S
C566 C567 1.524 . S
C566 C580 1.377 . S
C567 C566 1.524 . S
C567 C568 1.397 . S
C567 C572 1.363 . S
C568 H545 0.950 . S
C568 C567 1.397 . S
C568 C569 1.334 . S
C569 H546 0.950 . S
C569 C568 1.334 . S
C569 C570 1.287 . S
C570 C569 1.287 . S
C570 C571 1.524 . S
C570 H589 0.913 . S
C571 H547 0.950 . S
C571 C570 1.524 . S
C571 C572 1.415 . S
C572 H548 0.950 . S
C572 C567 1.363 . S
C572 C571 1.415 . S
C573 H549 0.951 . S
C573 C574 1.366 . S
C573 C575 1.388 . S
C574 C573 1.366 . S
C574 C578 1.385 . S
C575 H550 0.951 . S
C575 C573 1.388 . S
C575 C576 1.366 . S
C576 C575 1.366 . S
C576 C577 1.414 . S
C576 C579 1.499 . S
C577 H551 0.950 . S
C577 C576 1.414 . S
C577 C578 1.374 . S
C578 H552 0.950 . S
C578 C574 1.385 . S
C578 C577 1.374 . S
C579 C576 1.499 . S
C579 C580 1.373 . S
C579 C581 1.389 . S
C580 H553 0.950 . S
C580 C566 1.377 . S
C580 C579 1.373 . S
C581 C565 1.377 . S
C581 C579 1.389 . S
C581 C582 1.524 . S
C582 C581 1.524 . S
C582 C583 1.397 . S
C582 C587 1.363 . S
C583 H554 0.950 . S
C583 C582 1.397 . S
C583 C584 1.334 . S
C584 H555 0.950 . S
C584 C583 1.334 . S
C584 C585 1.287 . S
C585 C584 1.287 . S
C585 C586 1.524 . S
C585 H588 0.999 . S
C586 H556 0.950 . S
C586 C585 1.524 . S
C586 C587 1.415 . S
C587 H557 0.950 . S
C587 C582 1.363 . S
C587 C586 1.415 . S
H588 C585 0.999 . S
H589 C570 0.913 . S
H590 C608 0.951 . S
H591 C610 0.951 . S
H592 C612 0.950 . S
H593 C613 0.950 . S
H594 C615 0.950 . S
H595 C618 0.950 . S
H596 C619 0.950 . S
H597 C621 0.950 . S
H598 C622 0.950 . S
H599 C623 0.951 . S
H600 C625 0.951 . S
H601 C627 0.950 . S
H602 C628 0.950 . S
H603 C630 0.950 . S
H604 C633 0.950 . S
H605 C634 0.950 . S
H606 C636 0.950 . S
H607 C637 0.950 . S
C608 H590 0.951 . S
C608 C609 1.366 . S
C608 C610 1.388 . S
C609 C608 1.366 . S
C609 C613 1.385 . S
C610 H591 0.951 . S
C610 C608 1.388 . S
C610 C611 1.366 . S
C611 C610 1.366 . S
C611 C612 1.414 . S
C611 C614 1.499 . S
C612 H592 0.950 . S
C612 C611 1.414 . S
C612 C613 1.374 . S
C613 H593 0.950 . S
C613 C609 1.385 . S
C613 C612 1.374 . S
C614 C611 1.499 . S
C614 C615 1.373 . S
C614 C616 1.389 . S
C615 H594 0.950 . S
C615 C614 1.373 . S
C615 C631 1.377 . S
C616 C614 1.389 . S
C616 C617 1.524 . S
C616 C630 1.377 . S
C617 C616 1.524 . S
C617 C618 1.397 . S
C617 C622 1.363 . S
C618 H595 0.950 . S
C618 C617 1.397 . S
C618 C619 1.334 . S
C619 H596 0.950 . S
C619 C618 1.334 . S
C619 C620 1.287 . S
C620 C619 1.287 . S
C620 C621 1.524 . S
C620 H639 0.913 . S
C621 H597 0.950 . S
C621 C620 1.524 . S
C621 C622 1.415 . S
C622 H598 0.950 . S
C622 C617 1.363 . S
C622 C621 1.415 . S
C623 H599 0.951 . S
C623 C624 1.366 . S
C623 C625 1.388 . S
C624 C623 1.366 . S
C624 C628 1.385 . S
C625 H600 0.951 . S
C625 C623 1.388 . S
C625 C626 1.366 . S
C626 C625 1.366 . S
C626 C627 1.414 . S
C626 C629 1.499 . S
C627 H601 0.950 . S
C627 C626 1.414 . S
C627 C628 1.374 . S
C628 H602 0.950 . S
C628 C624 1.385 . S
C628 C627 1.374 . S
C629 C626 1.499 . S
C629 C630 1.373 . S
C629 C631 1.389 . S
C630 H603 0.950 . S
C630 C616 1.377 . S
C630 C629 1.373 . S
C631 C615 1.377 . S
C631 C629 1.389 . S
C631 C632 1.524 . S
C632 C631 1.524 . S
C632 C633 1.397 . S
C632 C637 1.363 . S
C633 H604 0.950 . S
C633 C632 1.397 . S
C633 C634 1.334 . S
C634 H605 0.950 . S
C634 C633 1.334 . S
C634 C635 1.287 . S
C635 C634 1.287 . S
C635 C636 1.524 . S
C635 H638 0.999 . S
C636 H606 0.950 . S
C636 C635 1.524 . S
C636 C637 1.415 . S
C637 H607 0.950 . S
C637 C632 1.363 . S
C637 C636 1.415 . S
H638 C635 0.999 . S
H639 C620 0.913 . S
H640 C658 0.951 . S
H641 C660 0.951 . S
H642 C662 0.950 . S
H643 C663 0.950 . S
H644 C665 0.950 . S
H645 C668 0.950 . S
H646 C669 0.950 . S
H647 C671 0.950 . S
H648 C672 0.950 . S
H649 C673 0.951 . S
H650 C675 0.951 . S
H651 C677 0.950 . S
H652 C678 0.950 . S
H653 C680 0.950 . S
H654 C683 0.950 . S
H655 C684 0.950 . S
H656 C686 0.950 . S
H657 C687 0.950 . S
C658 H640 0.951 . S
C658 C659 1.366 . S
C658 C660 1.388 . S
C659 C658 1.366 . S
C659 C663 1.385 . S
C660 H641 0.951 . S
C660 C658 1.388 . S
C660 C661 1.366 . S
C661 C660 1.366 . S
C661 C662 1.414 . S
C661 C664 1.499 . S
C662 H642 0.950 . S
C662 C661 1.414 . S
C662 C663 1.374 . S
C663 H643 0.950 . S
C663 C659 1.385 . S
C663 C662 1.374 . S
C664 C661 1.499 . S
C664 C665 1.373 . S
C664 C666 1.389 . S
C665 H644 0.950 . S
C665 C664 1.373 . S
C665 C681 1.377 . S
C666 C664 1.389 . S
C666 C667 1.524 . S
C666 C680 1.377 . S
C667 C666 1.524 . S
C667 C668 1.397 . S
C667 C672 1.363 . S
C668 H645 0.950 . S
C668 C667 1.397 . S
C668 C669 1.334 . S
C669 H646 0.950 . S
C669 C668 1.334 . S
C669 C670 1.287 . S
C670 C669 1.287 . S
C670 C671 1.524 . S
C670 H689 0.913 . S
C671 H647 0.950 . S
C671 C670 1.524 . S
C671 C672 1.415 . S
C672 H648 0.950 . S
C672 C667 1.363 . S
C672 C671 1.415 . S
C673 H649 0.951 . S
C673 C674 1.366 . S
C673 C675 1.388 . S
C674 C673 1.366 . S
C674 C678 1.385 . S
C675 H650 0.951 . S
C675 C673 1.388 . S
C675 C676 1.366 . S
C676 C675 1.366 . S
C676 C677 1.414 . S
C676 C679 1.499 . S
C677 H651 0.950 . S
C677 C676 1.414 . S
C677 C678 1.374 . S
C678 H652 0.950 . S
C678 C674 1.385 . S
C678 C677 1.374 . S
C679 C676 1.499 . S
C679 C680 1.373 . S
C679 C681 1.389 . S
C680 H653 0.950 . S
C680 C666 1.377 . S
C680 C679 1.373 . S
C681 C665 1.377 . S
C681 C679 1.389 . S
C681 C682 1.524 . S
C682 C681 1.524 . S
C682 C683 1.397 . S
C682 C687 1.363 . S
C683 H654 0.950 . S
C683 C682 1.397 . S
C683 C684 1.334 . S
C684 H655 0.950 . S
C684 C683 1.334 . S
C684 C685 1.287 . S
C685 C684 1.287 . S
C685 C686 1.524 . S
C685 H688 0.999 . S
C686 H656 0.950 . S
C686 C685 1.524 . S
C686 C687 1.415 . S
C687 H657 0.950 . S
C687 C682 1.363 . S
C687 C686 1.415 . S
H688 C685 0.999 . S
H689 C670 0.913 . S
H690 C708 0.951 . S
H691 C710 0.951 . S
H692 C712 0.950 . S
H693 C713 0.950 . S
H694 C715 0.950 . S
H695 C718 0.950 . S
H696 C719 0.950 . S
H697 C721 0.950 . S
H698 C722 0.950 . S
H699 C723 0.951 . S
H700 C725 0.951 . S
H701 C727 0.950 . S
H702 C728 0.950 . S
H703 C730 0.950 . S
H704 C733 0.950 . S
H705 C734 0.950 . S
H706 C736 0.950 . S
H707 C737 0.950 . S
C708 H690 0.951 . S
C708 C709 1.366 . S
C708 C710 1.388 . S
C709 C708 1.366 . S
C709 C713 1.385 . S
C710 H691 0.951 . S
C710 C708 1.388 . S
C710 C711 1.366 . S
C711 C710 1.366 . S
C711 C712 1.414 . S
C711 C714 1.499 . S
C712 H692 0.950 . S
C712 C711 1.414 . S
C712 C713 1.374 . S
C713 H693 0.950 . S
C713 C709 1.385 . S
C713 C712 1.374 . S
C714 C711 1.499 . S
C714 C715 1.373 . S
C714 C716 1.389 . S
C715 H694 0.950 . S
C715 C714 1.373 . S
C715 C731 1.377 . S
C716 C714 1.389 . S
C716 C717 1.524 . S
C716 C730 1.377 . S
C717 C716 1.524 . S
C717 C718 1.397 . S
C717 C722 1.363 . S
C718 H695 0.950 . S
C718 C717 1.397 . S
C718 C719 1.334 . S
C719 H696 0.950 . S
C719 C718 1.334 . S
C719 C720 1.287 . S
C720 C719 1.287 . S
C720 C721 1.524 . S
C720 H739 0.913 . S
C721 H697 0.950 . S
C721 C720 1.524 . S
C721 C722 1.415 . S
C722 H698 0.950 . S
C722 C717 1.363 . S
C722 C721 1.415 . S
C723 H699 0.951 . S
C723 C724 1.366 . S
C723 C725 1.388 . S
C724 C723 1.366 . S
C724 C728 1.385 . S
C725 H700 0.951 . S
C725 C723 1.388 . S
C725 C726 1.366 . S
C726 C725 1.366 . S
C726 C727 1.414 . S
C726 C729 1.499 . S
C727 H701 0.950 . S
C727 C726 1.414 . S
C727 C728 1.374 . S
C728 H702 0.950 . S
C728 C724 1.385 . S
C728 C727 1.374 . S
C729 C726 1.499 . S
C729 C730 1.373 . S
C729 C731 1.389 . S
C730 H703 0.950 . S
C730 C716 1.377 . S
C730 C729 1.373 . S
C731 C715 1.377 . S
C731 C729 1.389 . S
C731 C732 1.524 . S
C732 C731 1.524 . S
C732 C733 1.397 . S
C732 C737 1.363 . S
C733 H704 0.950 . S
C733 C732 1.397 . S
C733 C734 1.334 . S
C734 H705 0.950 . S
C734 C733 1.334 . S
C734 C735 1.287 . S
C735 C734 1.287 . S
C735 C736 1.524 . S
C735 H738 0.999 . S
C736 H706 0.950 . S
C736 C735 1.524 . S
C736 C737 1.415 . S
C737 H707 0.950 . S
C737 C732 1.363 . S
C737 C736 1.415 . S
H738 C735 0.999 . S
H739 C720 0.913 . S
H740 C758 0.951 . S
H741 C760 0.951 . S
H742 C762 0.950 . S
H743 C763 0.950 . S
H744 C765 0.950 . S
H745 C768 0.950 . S
H746 C769 0.950 . S
H747 C771 0.950 . S
H748 C772 0.950 . S
H749 C773 0.951 . S
H750 C775 0.951 . S
H751 C777 0.950 . S
H752 C778 0.950 . S
H753 C780 0.950 . S
H754 C783 0.950 . S
H755 C784 0.950 . S
H756 C786 0.950 . S
H757 C787 0.950 . S
C758 H740 0.951 . S
C758 C759 1.366 . S
C758 C760 1.388 . S
C759 C758 1.366 . S
C759 C763 1.385 . S
C760 H741 0.951 . S
C760 C758 1.388 . S
C760 C761 1.366 . S
C761 C760 1.366 . S
C761 C762 1.414 . S
C761 C764 1.499 . S
C762 H742 0.950 . S
C762 C761 1.414 . S
C762 C763 1.374 . S
C763 H743 0.950 . S
C763 C759 1.385 . S
C763 C762 1.374 . S
C764 C761 1.499 . S
C764 C765 1.373 . S
C764 C766 1.389 . S
C765 H744 0.950 . S
C765 C764 1.373 . S
C765 C781 1.377 . S
C766 C764 1.389 . S
C766 C767 1.524 . S
C766 C780 1.377 . S
C767 C766 1.524 . S
C767 C768 1.397 . S
C767 C772 1.363 . S
C768 H745 0.950 . S
C768 C767 1.397 . S
C768 C769 1.334 . S
C769 H746 0.950 . S
C769 C768 1.334 . S
C769 C770 1.287 . S
C770 C769 1.287 . S
C770 C771 1.524 . S
C770 H789 0.913 . S
C771 H747 0.950 . S
C771 C770 1.524 . S
C771 C772 1.415 . S
C772 H748 0.950 . S
C772 C767 1.363 . S
C772 C771 1.415 . S
C773 H749 0.951 . S
C773 C774 1.366 . S
C773 C775 1.388 . S
C774 C773 1.366 . S
C774 C778 1.385 . S
C775 H750 0.951 . S
C775 C773 1.388 . S
C775 C776 1.366 . S
C776 C775 1.366 . S
C776 C777 1.414 . S
C776 C779 1.499 . S
C777 H751 0.950 . S
C777 C776 1.414 . S
C777 C778 1.374 . S
C778 H752 0.950 . S
C778 C774 1.385 . S
C778 C777 1.374 . S
C779 C776 1.499 . S
C779 C780 1.373 . S
C779 C781 1.389 . S
C780 H753 0.950 . S
C780 C766 1.377 . S
C780 C779 1.373 . S
C781 C765 1.377 . S
C781 C779 1.389 . S
C781 C782 1.524 . S
C782 C781 1.524 . S
C782 C783 1.397 . S
C782 C787 1.363 . S
C783 H754 0.950 . S
C783 C782 1.397 . S
C783 C784 1.334 . S
C784 H755 0.950 . S
C784 C783 1.334 . S
C784 C785 1.287 . S
C785 C784 1.287 . S
C785 C786 1.524 . S
C785 H788 0.999 . S
C786 H756 0.950 . S
C786 C785 1.524 . S
C786 C787 1.415 . S
C787 H757 0.950 . S
C787 C782 1.363 . S
C787 C786 1.415 . S
H788 C785 0.999 . S
H789 C770 0.913 . S
H790 C808 0.951 . S
H791 C810 0.951 . S
H792 C812 0.950 . S
H793 C813 0.950 . S
H794 C815 0.950 . S
H795 C818 0.950 . S
H796 C819 0.950 . S
H797 C821 0.950 . S
H798 C822 0.950 . S
H799 C823 0.951 . S
H800 C825 0.951 . S
H801 C827 0.950 . S
H802 C828 0.950 . S
H803 C830 0.950 . S
H804 C833 0.950 . S
H805 C834 0.950 . S
H806 C836 0.950 . S
H807 C837 0.950 . S
C808 H790 0.951 . S
C808 C809 1.366 . S
C808 C810 1.388 . S
C809 C808 1.366 . S
C809 C813 1.385 . S
C810 H791 0.951 . S
C810 C808 1.388 . S
C810 C811 1.366 . S
C811 C810 1.366 . S
C811 C812 1.414 . S
C811 C814 1.499 . S
C812 H792 0.950 . S
C812 C811 1.414 . S
C812 C813 1.374 . S
C813 H793 0.950 . S
C813 C809 1.385 . S
C813 C812 1.374 . S
C814 C811 1.499 . S
C814 C815 1.373 . S
C814 C816 1.389 . S
C815 H794 0.950 . S
C815 C814 1.373 . S
C815 C831 1.377 . S
C816 C814 1.389 . S
C816 C817 1.524 . S
C816 C830 1.377 . S
C817 C816 1.524 . S
C817 C818 1.397 . S
C817 C822 1.363 . S
C818 H795 0.950 . S
C818 C817 1.397 . S
C818 C819 1.334 . S
C819 H796 0.950 . S
C819 C818 1.334 . S
C819 C820 1.287 . S
C820 C819 1.287 . S
C820 C821 1.524 . S
C820 H839 0.913 . S
C821 H797 0.950 . S
C821 C820 1.524 . S
C821 C822 1.415 . S
C822 H798 0.950 . S
C822 C817 1.363 . S
C822 C821 1.415 . S
C823 H799 0.951 . S
C823 C824 1.366 . S
C823 C825 1.388 . S
C824 C823 1.366 . S
C824 C828 1.385 . S
C825 H800 0.951 . S
C825 C823 1.388 . S
C825 C826 1.366 . S
C826 C825 1.366 . S
C826 C827 1.414 . S
C826 C829 1.499 . S
C827 H801 0.950 . S
C827 C826 1.414 . S
C827 C828 1.374 . S
C828 H802 0.950 . S
C828 C824 1.385 . S
C828 C827 1.374 . S
C829 C826 1.499 . S
C829 C830 1.373 . S
C829 C831 1.389 . S
C830 H803 0.950 . S
C830 C816 1.377 . S
C830 C829 1.373 . S
C831 C815 1.377 . S
C831 C829 1.389 . S
C831 C832 1.524 . S
C832 C831 1.524 . S
C832 C833 1.397 . S
C832 C837 1.363 . S
C833 H804 0.950 . S
C833 C832 1.397 . S
C833 C834 1.334 . S
C834 H805 0.950 . S
C834 C833 1.334 . S
C834 C835 1.287 . S
C835 C834 1.287 . S
C835 C836 1.524 . S
C835 H838 0.999 . S
C836 H806 0.950 . S
C836 C835 1.524 . S
C836 C837 1.415 . S
C837 H807 0.950 . S
C837 C832 1.363 . S
C837 C836 1.415 . S
H838 C835 0.999 . S
H839 C820 0.913 . S
H840 C858 0.951 . S
H841 C860 0.951 . S
H842 C862 0.950 . S
H843 C863 0.950 . S
H844 C865 0.950 . S
H845 C868 0.950 . S
H846 C869 0.950 . S
H847 C871 0.950 . S
H848 C872 0.950 . S
H849 C873 0.951 . S
H850 C875 0.951 . S
H851 C877 0.950 . S
H852 C878 0.950 . S
H853 C880 0.950 . S
H854 C883 0.950 . S
H855 C884 0.950 . S
H856 C886 0.950 . S
H857 C887 0.950 . S
C858 H840 0.951 . S
C858 C859 1.366 . S
C858 C860 1.388 . S
C859 C858 1.366 . S
C859 C863 1.385 . S
C860 H841 0.951 . S
C860 C858 1.388 . S
C860 C861 1.366 . S
C861 C860 1.366 . S
C861 C862 1.414 . S
C861 C864 1.499 . S
C862 H842 0.950 . S
C862 C861 1.414 . S
C862 C863 1.374 . S
C863 H843 0.950 . S
C863 C859 1.385 . S
C863 C862 1.374 . S
C864 C861 1.499 . S
C864 C865 1.373 . S
C864 C866 1.389 . S
C865 H844 0.950 . S
C865 C864 1.373 . S
C865 C881 1.377 . S
C866 C864 1.389 . S
C866 C867 1.524 . S
C866 C880 1.377 . S
C867 C866 1.524 . S
C867 C868 1.397 . S
C867 C872 1.363 . S
C868 H845 0.950 . S
C868 C867 1.397 . S
C868 C869 1.334 . S
C869 H846 0.950 . S
C869 C868 1.334 . S
C869 C870 1.287 . S
C870 C869 1.287 . S
C870 C871 1.524 . S
C870 H889 0.913 . S
C871 H847 0.950 . S
C871 C870 1.524 . S
C871 C872 1.415 . S
C872 H848 0.950 . S
C872 C867 1.363 . S
C872 C871 1.415 . S
C873 H849 0.951 . S
C873 C874 1.366 . S
C873 C875 1.388 . S
C874 C873 1.366 . S
C874 C878 1.385 . S
C875 H850 0.951 . S
C875 C873 1.388 . S
C875 C876 1.366 . S
C876 C875 1.366 . S
C876 C877 1.414 . S
C876 C879 1.499 . S
C877 H851 0.950 . S
C877 C876 1.414 . S
C877 C878 1.374 . S
C878 H852 0.950 . S
C878 C874 1.385 . S
C878 C877 1.374 . S
C879 C876 1.499 . S
C879 C880 1.373 . S
C879 C881 1.389 . S
C880 H853 0.950 . S
C880 C866 1.377 . S
C880 C879 1.373 . S
C881 C865 1.377 . S
C881 C879 1.389 . S
C881 C882 1.524 . S
C882 C881 1.524 . S
C882 C883 1.397 . S
C882 C887 1.363 . S
C883 H854 0.950 . S
C883 C882 1.397 . S
C883 C884 1.334 . S
C884 H855 0.950 . S
C884 C883 1.334 . S
C884 C885 1.287 . S
C885 C884 1.287 . S
C885 C886 1.524 . S
C885 H888 0.999 . S
C886 H856 0.950 . S
C886 C885 1.524 . S
C886 C887 1.415 . S
C887 H857 0.950 . S
C887 C882 1.363 . S
C887 C886 1.415 . S
H888 C885 0.999 . S
H889 C870 0.913 . S
H890 C908 0.951 . S
H891 C910 0.951 . S
H892 C912 0.950 . S
H893 C913 0.950 . S
H894 C915 0.950 . S
H895 C918 0.950 . S
H896 C919 0.950 . S
H897 C921 0.950 . S
H898 C922 0.950 . S
H899 C923 0.951 . S
H900 C925 0.951 . S
H901 C927 0.950 . S
H902 C928 0.950 . S
H903 C930 0.950 . S
H904 C933 0.950 . S
H905 C934 0.950 . S
H906 C936 0.950 . S
H907 C937 0.950 . S
C908 H890 0.951 . S
C908 C909 1.366 . S
C908 C910 1.388 . S
C909 C908 1.366 . S
C909 C913 1.385 . S
C910 H891 0.951 . S
C910 C908 1.388 . S
C910 C911 1.366 . S
C911 C910 1.366 . S
C911 C912 1.414 . S
C911 C914 1.499 . S
C912 H892 0.950 . S
C912 C911 1.414 . S
C912 C913 1.374 . S
C913 H893 0.950 . S
C913 C909 1.385 . S
C913 C912 1.374 . S
C914 C911 1.499 . S
C914 C915 1.373 . S
C914 C916 1.389 . S
C915 H894 0.950 . S
C915 C914 1.373 . S
C915 C931 1.377 . S
C916 C914 1.389 . S
C916 C917 1.524 . S
C916 C930 1.377 . S
C917 C916 1.524 . S
C917 C918 1.397 . S
C917 C922 1.363 . S
C918 H895 0.950 . S
C918 C917 1.397 . S
C918 C919 1.334 . S
C919 H896 0.950 . S
C919 C918 1.334 . S
C919 C920 1.287 . S
C920 C919 1.287 . S
C920 C921 1.524 . S
C920 H939 0.913 . S
C921 H897 0.950 . S
C921 C920 1.524 . S
C921 C922 1.415 . S
C922 H898 0.950 . S
C922 C917 1.363 . S
C922 C921 1.415 . S
C923 H899 0.951 . S
C923 C924 1.366 . S
C923 C925 1.388 . S
C924 C923 1.366 . S
C924 C928 1.385 . S
C925 H900 0.951 . S
C925 C923 1.388 . S
C925 C926 1.366 . S
C926 C925 1.366 . S
C926 C927 1.414 . S
C926 C929 1.499 . S
C927 H901 0.950 . S
C927 C926 1.414 . S
C927 C928 1.374 . S
C928 H902 0.950 . S
C928 C924 1.385 . S
C928 C927 1.374 . S
C929 C926 1.499 . S
C929 C930 1.373 . S
C929 C931 1.389 . S
C930 H903 0.950 . S
C930 C916 1.377 . S
C930 C929 1.373 . S
C931 C915 1.377 . S
C931 C929 1.389 . S
C931 C932 1.524 . S
C932 C931 1.524 . S
C932 C933 1.397 . S
C932 C937 1.363 . S
C933 H904 0.950 . S
C933 C932 1.397 . S
C933 C934 1.334 . S
C934 H905 0.950 . S
C934 C933 1.334 . S
C934 C935 1.287 . S
C935 C934 1.287 . S
C935 C936 1.524 . S
C935 H938 0.999 . S
C936 H906 0.950 . S
C936 C935 1.524 . S
C936 C937 1.415 . S
C937 H907 0.950 . S
C937 C932 1.363 . S
C937 C936 1.415 . S
H938 C935 0.999 . S
H939 C920 0.913 . S
H940 C958 0.951 . S
H941 C960 0.951 . S
H942 C962 0.950 . S
H943 C963 0.950 . S
H944 C965 0.950 . S
H945 C968 0.950 . S
H946 C969 0.950 . S
H947 C971 0.950 . S
H948 C972 0.950 . S
H949 C973 0.951 . S
H950 C975 0.951 . S
H951 C977 0.950 . S
H952 C978 0.950 . S
H953 C980 0.950 . S
H954 C983 0.950 . S
H955 C984 0.950 . S
H956 C986 0.950 . S
H957 C987 0.950 . S
C958 H940 0.951 . S
C958 C959 1.366 . S
C958 C960 1.388 . S
C959 C958 1.366 . S
C959 C963 1.385 . S
C960 H941 0.951 . S
C960 C958 1.388 . S
C960 C961 1.366 . S
C961 C960 1.366 . S
C961 C962 1.414 . S
C961 C964 1.499 . S
C962 H942 0.950 . S
C962 C961 1.414 . S
C962 C963 1.374 . S
C963 H943 0.950 . S
C963 C959 1.385 . S
C963 C962 1.374 . S
C964 C961 1.499 . S
C964 C965 1.373 . S
C964 C966 1.389 . S
C965 H944 0.950 . S
C965 C964 1.373 . S
C965 C981 1.377 . S
C966 C964 1.389 . S
C966 C967 1.524 . S
C966 C980 1.377 . S
C967 C966 1.524 . S
C967 C968 1.397 . S
C967 C972 1.363 . S
C968 H945 0.950 . S
C968 C967 1.397 . S
C968 C969 1.334 . S
C969 H946 0.950 . S
C969 C968 1.334 . S
C969 C970 1.287 . S
C970 C969 1.287 . S
C970 C971 1.524 . S
C970 H989 0.913 . S
C971 H947 0.950 . S
C971 C970 1.524 . S
C971 C972 1.415 . S
C972 H948 0.950 . S
C972 C967 1.363 . S
C972 C971 1.415 . S
C973 H949 0.951 . S
C973 C974 1.366 . S
C973 C975 1.388 . S
C974 C973 1.366 . S
C974 C978 1.385 . S
C975 H950 0.951 . S
C975 C973 1.388 . S
C975 C976 1.366 . S
C976 C975 1.366 . S
C976 C977 1.414 . S
C976 C979 1.499 . S
C977 H951 0.950 . S
C977 C976 1.414 . S
C977 C978 1.374 . S
C978 H952 0.950 . S
C978 C974 1.385 . S
C978 C977 1.374 . S
C979 C976 1.499 . S
C979 C980 1.373 . S
C979 C981 1.389 . S
C980 H953 0.950 . S
C980 C966 1.377 . S
C980 C979 1.373 . S
C981 C965 1.377 . S
C981 C979 1.389 . S
C981 C982 1.524 . S
C982 C981 1.524 . S
C982 C983 1.397 . S
C982 C987 1.363 . S
C983 H954 0.950 . S
C983 C982 1.397 . S
C983 C984 1.334 . S
C984 H955 0.950 . S
C984 C983 1.334 . S
C984 C985 1.287 . S
C985 C984 1.287 . S
C985 C986 1.524 . S
C985 H988 0.999 . S
C986 H956 0.950 . S
C986 C985 1.524 . S
C986 C987 1.415 . S
C987 H957 0.950 . S
C987 C982 1.363 . S
C987 C986 1.415 . S
H988 C985 0.999 . S
H989 C970 0.913 . S
H990 C1008 0.951 . S
H991 C1010 0.951 . S
H992 C1012 0.950 . S
H993 C1013 0.950 . S
H994 C1015 0.950 . S
H995 C1018 0.950 . S
H996 C1019 0.950 . S
H997 C1021 0.950 . S
H998 C1022 0.950 . S
H999 C1023 0.951 . S
H1000 C1025 0.951 . S
H1001 C1027 0.950 . S
H1002 C1028 0.950 . S
H1003 C1030 0.950 . S
H1004 C1033 0.950 . S
H1005 C1034 0.950 . S
H1006 C1036 0.950 . S
H1007 C1037 0.950 . S
C1008 H990 0.951 . S
C1008 C1009 1.366 . S
C1008 C1010 1.388 . S
C1009 C1008 1.366 . S
C1009 C1013 1.385 . S
C1010 H991 0.951 . S
C1010 C1008 1.388 . S
C1010 C1011 1.366 . S
C1011 C1010 1.366 . S
C1011 C1012 1.414 . S
C1011 C1014 1.499 . S
C1012 H992 0.950 . S
C1012 C1011 1.414 . S
C1012 C1013 1.374 . S
C1013 H993 0.950 . S
C1013 C1009 1.385 . S
C1013 C1012 1.374 . S
C1014 C1011 1.499 . S
C1014 C1015 1.373 . S
C1014 C1016 1.389 . S
C1015 H994 0.950 . S
C1015 C1014 1.373 . S
C1015 C1031 1.377 . S
C1016 C1014 1.389 . S
C1016 C1017 1.524 . S
C1016 C1030 1.377 . S
C1017 C1016 1.524 . S
C1017 C1018 1.397 . S
C1017 C1022 1.363 . S
C1018 H995 0.950 . S
C1018 C1017 1.397 . S
C1018 C1019 1.334 . S
C1019 H996 0.950 . S
C1019 C1018 1.334 . S
C1019 C1020 1.287 . S
C1020 C1019 1.287 . S
C1020 C1021 1.524 . S
C1020 H1039 0.913 . S
C1021 H997 0.950 . S
C1021 C1020 1.524 . S
C1021 C1022 1.415 . S
C1022 H998 0.950 . S
C1022 C1017 1.363 . S
C1022 C1021 1.415 . S
C1023 H999 0.951 . S
C1023 C1024 1.366 . S
C1023 C1025 1.388 . S
C1024 C1023 1.366 . S
C1024 C1028 1.385 . S
C1025 H1000 0.951 . S
C1025 C1023 1.388 . S
C1025 C1026 1.366 . S
C1026 C1025 1.366 . S
C1026 C1027 1.414 . S
C1026 C1029 1.499 . S
C1027 H1001 0.950 . S
C1027 C1026 1.414 . S
C1027 C1028 1.374 . S
C1028 H1002 0.950 . S
C1028 C1024 1.385 . S
C1028 C1027 1.374 . S
C1029 C1026 1.499 . S
C1029 C1030 1.373 . S
C1029 C1031 1.389 . S
C1030 H1003 0.950 . S
C1030 C1016 1.377 . S
C1030 C1029 1.373 . S
C1031 C1015 1.377 . S
C1031 C1029 1.389 . S
C1031 C1032 1.524 . S
C1032 C1031 1.524 . S
C1032 C1033 1.397 . S
C1032 C1037 1.363 . S
C1033 H1004 0.950 . S
C1033 C1032 1.397 . S
C1033 C1034 1.334 . S
C1034 H1005 0.950 . S
C1034 C1033 1.334 . S
C1034 C1035 1.287 . S
C1035 C1034 1.287 . S
C1035 C1036 1.524 . S
C1035 H1038 0.999 . S
C1036 H1006 0.950 . S
C1036 C1035 1.524 . S
C1036 C1037 1.415 . S
C1037 H1007 0.950 . S
C1037 C1032 1.363 . S
C1037 C1036 1.415 . S
H1038 C1035 0.999 . S
H1039 C1020 0.913 . S
H1040 C1058 0.951 . S
H1041 C1060 0.951 . S
H1042 C1062 0.950 . S
H1043 C1063 0.950 . S
H1044 C1065 0.950 . S
H1045 C1068 0.950 . S
H1046 C1069 0.950 . S
H1047 C1071 0.950 . S
H1048 C1072 0.950 . S
H1049 C1073 0.951 . S
H1050 C1075 0.951 . S
H1051 C1077 0.950 . S
H1052 C1078 0.950 . S
H1053 C1080 0.950 . S
H1054 C1083 0.950 . S
H1055 C1084 0.950 1_556 S
H1056 C1086 0.950 . S
H1057 C1087 0.950 . S
C1058 H1040 0.951 . S
C1058 C1059 1.366 1_556 S
C1058 C1060 1.388 . S
C1059 C1058 1.366 1_554 S
C1059 C1063 1.385 . S
C1060 H1041 0.951 . S
C1060 C1058 1.388 . S
C1060 C1061 1.366 1_556 S
C1061 C1060 1.366 1_554 S
C1061 C1062 1.414 . S
C1061 C1064 1.499 . S
C1062 H1042 0.950 . S
C1062 C1061 1.414 . S
C1062 C1063 1.374 . S
C1063 H1043 0.950 . S
C1063 C1059 1.385 . S
C1063 C1062 1.374 . S
C1064 C1061 1.499 . S
C1064 C1065 1.373 . S
C1064 C1066 1.389 1_554 S
C1065 H1044 0.950 . S
C1065 C1064 1.373 . S
C1065 C1081 1.377 . S
C1066 C1064 1.389 1_556 S
C1066 C1067 1.524 . S
C1066 C1080 1.377 . S
C1067 C1066 1.524 . S
C1067 C1068 1.397 1_556 S
C1067 C1072 1.363 . S
C1068 H1045 0.950 . S
C1068 C1067 1.397 1_554 S
C1068 C1069 1.334 . S
C1069 H1046 0.950 . S
C1069 C1068 1.334 . S
C1069 C1070 1.287 1_554 S
C1070 C1069 1.287 1_556 S
C1070 C1071 1.524 . S
C1070 H1089 0.913 . S
C1071 H1047 0.950 . S
C1071 C1070 1.524 . S
C1071 C1072 1.415 . S
C1072 H1048 0.950 . S
C1072 C1067 1.363 . S
C1072 C1071 1.415 . S
C1073 H1049 0.951 . S
C1073 C1074 1.366 . S
C1073 C1075 1.388 . S
C1074 C1073 1.366 . S
C1074 C1078 1.385 1_554 S
C1075 H1050 0.951 . S
C1075 C1073 1.388 . S
C1075 C1076 1.366 . S
C1076 C1075 1.366 . S
C1076 C1077 1.414 1_554 S
C1076 C1079 1.499 . S
C1077 H1051 0.950 . S
C1077 C1076 1.414 1_556 S
C1077 C1078 1.374 . S
C1078 H1052 0.950 . S
C1078 C1074 1.385 1_556 S
C1078 C1077 1.374 . S
C1079 C1076 1.499 . S
C1079 C1080 1.373 1_554 S
C1079 C1081 1.389 . S
C1080 H1053 0.950 . S
C1080 C1066 1.377 . S
C1080 C1079 1.373 1_556 S
C1081 C1065 1.377 . S
C1081 C1079 1.389 . S
C1081 C1082 1.524 . S
C1082 C1081 1.524 . S
C1082 C1083 1.397 1_554 S
C1082 C1087 1.363 . S
C1083 H1054 0.950 . S
C1083 C1082 1.397 1_556 S
C1083 C1084 1.334 1_556 S
C1084 H1055 0.950 1_554 S
C1084 C1083 1.334 1_554 S
C1084 C1085 1.287 . S
C1085 C1084 1.287 . S
C1085 C1086 1.524 . S
C1085 H1088 0.999 . S
C1086 H1056 0.950 . S
C1086 C1085 1.524 . S
C1086 C1087 1.415 . S
C1087 H1057 0.950 . S
C1087 C1082 1.363 . S
C1087 C1086 1.415 . S
H1088 C1085 0.999 . S
H1089 C1070 0.913 . S
H1090 C1108 0.951 . S
H1091 C1110 0.951 . S
H1092 C1112 0.950 . S
H1093 C1113 0.950 . S
H1094 C1115 0.950 . S
H1095 C1118 0.950 . S
H1096 C1119 0.950 . S
H1097 C1121 0.950 . S
H1098 C1122 0.950 . S
H1099 C1123 0.951 . S
H1100 C1125 0.951 . S
H1101 C1127 0.950 . S
H1102 C1128 0.950 . S
H1103 C1130 0.950 . S
H1104 C1133 0.950 . S
H1105 C1134 0.950 . S
H1106 C1136 0.950 . S
H1107 C1137 0.950 . S
C1108 H1090 0.951 . S
C1108 C1109 1.366 . S
C1108 C1110 1.388 . S
C1109 C1108 1.366 . S
C1109 C1113 1.385 . S
C1110 H1091 0.951 . S
C1110 C1108 1.388 . S
C1110 C1111 1.366 . S
C1111 C1110 1.366 . S
C1111 C1112 1.414 . S
C1111 C1114 1.499 . S
C1112 H1092 0.950 . S
C1112 C1111 1.414 . S
C1112 C1113 1.374 . S
C1113 H1093 0.950 . S
C1113 C1109 1.385 . S
C1113 C1112 1.374 . S
C1114 C1111 1.499 . S
C1114 C1115 1.373 . S
C1114 C1116 1.389 . S
C1115 H1094 0.950 . S
C1115 C1114 1.373 . S
C1115 C1131 1.377 . S
C1116 C1114 1.389 . S
C1116 C1117 1.524 . S
C1116 C1130 1.377 . S
C1117 C1116 1.524 . S
C1117 C1118 1.397 . S
C1117 C1122 1.363 . S
C1118 H1095 0.950 . S
C1118 C1117 1.397 . S
C1118 C1119 1.334 . S
C1119 H1096 0.950 . S
C1119 C1118 1.334 . S
C1119 C1120 1.287 . S
C1120 C1119 1.287 . S
C1120 C1121 1.524 . S
C1120 H1139 0.913 . S
C1121 H1097 0.950 . S
C1121 C1120 1.524 . S
C1121 C1122 1.415 . S
C1122 H1098 0.950 . S
C1122 C1117 1.363 . S
C1122 C1121 1.415 . S
C1123 H1099 0.951 . S
C1123 C1124 1.366 . S
C1123 C1125 1.388 . S
C1124 C1123 1.366 . S
C1124 C1128 1.385 . S
C1125 H1100 0.951 . S
C1125 C1123 1.388 . S
C1125 C1126 1.366 . S
C1126 C1125 1.366 . S
C1126 C1127 1.414 . S
C1126 C1129 1.499 . S
C1127 H1101 0.950 . S
C1127 C1126 1.414 . S
C1127 C1128 1.374 . S
C1128 H1102 0.950 . S
C1128 C1124 1.385 . S
C1128 C1127 1.374 . S
C1129 C1126 1.499 . S
C1129 C1130 1.373 . S
C1129 C1131 1.389 . S
C1130 H1103 0.950 . S
C1130 C1116 1.377 . S
C1130 C1129 1.373 . S
C1131 C1115 1.377 . S
C1131 C1129 1.389 . S
C1131 C1132 1.524 . S
C1132 C1131 1.524 . S
C1132 C1133 1.397 . S
C1132 C1137 1.363 . S
C1133 H1104 0.950 . S
C1133 C1132 1.397 . S
C1133 C1134 1.334 . S
C1134 H1105 0.950 . S
C1134 C1133 1.334 . S
C1134 C1135 1.287 . S
C1135 C1134 1.287 . S
C1135 C1136 1.524 . S
C1135 H1138 0.999 . S
C1136 H1106 0.950 . S
C1136 C1135 1.524 . S
C1136 C1137 1.415 . S
C1137 H1107 0.950 . S
C1137 C1132 1.363 . S
C1137 C1136 1.415 . S
H1138 C1135 0.999 . S
H1139 C1120 0.913 . S
H1140 C1158 0.951 . S
H1141 C1160 0.951 . S
H1142 C1162 0.950 . S
H1143 C1163 0.950 . S
H1144 C1165 0.950 . S
H1145 C1168 0.950 . S
H1146 C1169 0.950 . S
H1147 C1171 0.950 . S
H1148 C1172 0.950 . S
H1149 C1173 0.951 . S
H1150 C1175 0.951 . S
H1151 C1177 0.950 . S
H1152 C1178 0.950 . S
H1153 C1180 0.950 . S
H1154 C1183 0.950 . S
H1155 C1184 0.950 . S
H1156 C1186 0.950 . S
H1157 C1187 0.950 . S
C1158 H1140 0.951 . S
C1158 C1159 1.366 1_556 S
C1158 C1160 1.388 . S
C1159 C1158 1.366 1_554 S
C1159 C1163 1.385 . S
C1160 H1141 0.951 . S
C1160 C1158 1.388 . S
C1160 C1161 1.366 1_556 S
C1161 C1160 1.366 1_554 S
C1161 C1162 1.414 . S
C1161 C1164 1.499 . S
C1162 H1142 0.950 . S
C1162 C1161 1.414 . S
C1162 C1163 1.374 . S
C1163 H1143 0.950 . S
C1163 C1159 1.385 . S
C1163 C1162 1.374 . S
C1164 C1161 1.499 . S
C1164 C1165 1.373 . S
C1164 C1166 1.389 1_554 S
C1165 H1144 0.950 . S
C1165 C1164 1.373 . S
C1165 C1181 1.377 . S
C1166 C1164 1.389 1_556 S
C1166 C1167 1.524 . S
C1166 C1180 1.377 . S
C1167 C1166 1.524 . S
C1167 C1168 1.397 . S
C1167 C1172 1.363 . S
C1168 H1145 0.950 . S
C1168 C1167 1.397 . S
C1168 C1169 1.334 . S
C1169 H1146 0.950 . S
C1169 C1168 1.334 . S
C1169 C1170 1.287 . S
C1170 C1169 1.287 . S
C1170 C1171 1.524 . S
C1170 H1189 0.913 . S
C1171 H1147 0.950 . S
C1171 C1170 1.524 . S
C1171 C1172 1.415 . S
C1172 H1148 0.950 . S
C1172 C1167 1.363 . S
C1172 C1171 1.415 . S
C1173 H1149 0.951 . S
C1173 C1174 1.366 . S
C1173 C1175 1.388 . S
C1174 C1173 1.366 . S
C1174 C1178 1.385 1_554 S
C1175 H1150 0.951 . S
C1175 C1173 1.388 . S
C1175 C1176 1.366 . S
C1176 C1175 1.366 . S
C1176 C1177 1.414 1_554 S
C1176 C1179 1.499 . S
C1177 H1151 0.950 . S
C1177 C1176 1.414 1_556 S
C1177 C1178 1.374 . S
C1178 H1152 0.950 . S
C1178 C1174 1.385 1_556 S
C1178 C1177 1.374 . S
C1179 C1176 1.499 . S
C1179 C1180 1.373 1_554 S
C1179 C1181 1.389 . S
C1180 H1153 0.950 . S
C1180 C1166 1.377 . S
C1180 C1179 1.373 1_556 S
C1181 C1165 1.377 . S
C1181 C1179 1.389 . S
C1181 C1182 1.524 . S
C1182 C1181 1.524 . S
C1182 C1183 1.397 . S
C1182 C1187 1.363 . S
C1183 H1154 0.950 . S
C1183 C1182 1.397 . S
C1183 C1184 1.334 . S
C1184 H1155 0.950 . S
C1184 C1183 1.334 . S
C1184 C1185 1.287 . S
C1185 C1184 1.287 . S
C1185 C1186 1.524 . S
C1185 H1188 0.999 . S
C1186 H1156 0.950 . S
C1186 C1185 1.524 . S
C1186 C1187 1.415 . S
C1187 H1157 0.950 . S
C1187 C1182 1.363 . S
C1187 C1186 1.415 . S
H1188 C1185 0.999 . S
H1189 C1170 0.913 . S
H1190 C1208 0.951 . S
H1191 C1210 0.951 . S
H1192 C1212 0.950 . S
H1193 C1213 0.950 . S
H1194 C1215 0.950 . S
H1195 C1218 0.950 . S
H1196 C1219 0.950 . S
H1197 C1221 0.950 . S
H1198 C1222 0.950 . S
H1199 C1223 0.951 . S
H1200 C1225 0.951 . S
H1201 C1227 0.950 . S
H1202 C1228 0.950 . S
H1203 C1230 0.950 . S
H1204 C1233 0.950 . S
H1205 C1234 0.950 . S
H1206 C1236 0.950 . S
H1207 C1237 0.950 . S
C1208 H1190 0.951 . S
C1208 C1209 1.366 . S
C1208 C1210 1.388 . S
C1209 C1208 1.366 . S
C1209 C1213 1.385 . S
C1210 H1191 0.951 . S
C1210 C1208 1.388 . S
C1210 C1211 1.366 . S
C1211 C1210 1.366 . S
C1211 C1212 1.414 . S
C1211 C1214 1.499 . S
C1212 H1192 0.950 . S
C1212 C1211 1.414 . S
C1212 C1213 1.374 . S
C1213 H1193 0.950 . S
C1213 C1209 1.385 . S
C1213 C1212 1.374 . S
C1214 C1211 1.499 . S
C1214 C1215 1.373 . S
C1214 C1216 1.389 . S
C1215 H1194 0.950 . S
C1215 C1214 1.373 . S
C1215 C1231 1.377 . S
C1216 C1214 1.389 . S
C1216 C1217 1.524 . S
C1216 C1230 1.377 . S
C1217 C1216 1.524 . S
C1217 C1218 1.397 . S
C1217 C1222 1.363 . S
C1218 H1195 0.950 . S
C1218 C1217 1.397 . S
C1218 C1219 1.334 . S
C1219 H1196 0.950 . S
C1219 C1218 1.334 . S
C1219 C1220 1.287 . S
C1220 C1219 1.287 . S
C1220 C1221 1.524 . S
C1220 H1239 0.913 . S
C1221 H1197 0.950 . S
C1221 C1220 1.524 . S
C1221 C1222 1.415 . S
C1222 H1198 0.950 . S
C1222 C1217 1.363 . S
C1222 C1221 1.415 . S
C1223 H1199 0.951 . S
C1223 C1224 1.366 . S
C1223 C1225 1.388 . S
C1224 C1223 1.366 . S
C1224 C1228 1.385 . S
C1225 H1200 0.951 . S
C1225 C1223 1.388 . S
C1225 C1226 1.366 . S
C1226 C1225 1.366 . S
C1226 C1227 1.414 . S
C1226 C1229 1.499 . S
C1227 H1201 0.950 . S
C1227 C1226 1.414 . S
C1227 C1228 1.374 . S
C1228 H1202 0.950 . S
C1228 C1224 1.385 . S
C1228 C1227 1.374 . S
C1229 C1226 1.499 . S
C1229 C1230 1.373 . S
C1229 C1231 1.389 . S
C1230 H1203 0.950 . S
C1230 C1216 1.377 . S
C1230 C1229 1.373 . S
C1231 C1215 1.377 . S
C1231 C1229 1.389 . S
C1231 C1232 1.524 . S
C1232 C1231 1.524 . S
C1232 C1233 1.397 . S
C1232 C1237 1.363 . S
C1233 H1204 0.950 . S
C1233 C1232 1.397 . S
C1233 C1234 1.334 . S
C1234 H1205 0.950 . S
C1234 C1233 1.334 . S
C1234 C1235 1.287 . S
C1235 C1234 1.287 . S
C1235 C1236 1.524 . S
C1235 H1238 0.999 . S
C1236 H1206 0.950 . S
C1236 C1235 1.524 . S
C1236 C1237 1.415 . S
C1237 H1207 0.950 . S
C1237 C1232 1.363 . S
C1237 C1236 1.415 . S
H1238 C1235 0.999 . S
H1239 C1220 0.913 . S
H1240 C1258 0.951 . S
H1241 C1260 0.951 . S
H1242 C1262 0.950 . S
H1243 C1263 0.950 . S
H1244 C1265 0.950 . S
H1245 C1268 0.950 . S
H1246 C1269 0.950 . S
H1247 C1271 0.950 . S
H1248 C1272 0.950 . S
H1249 C1273 0.951 . S
H1250 C1275 0.951 . S
H1251 C1277 0.950 . S
H1252 C1278 0.950 . S
H1253 C1280 0.950 . S
H1254 C1283 0.950 . S
H1255 C1284 0.950 . S
H1256 C1286 0.950 . S
H1257 C1287 0.950 . S
C1258 H1240 0.951 . S
C1258 C1259 1.366 . S
C1258 C1260 1.388 . S
C1259 C1258 1.366 . S
C1259 C1263 1.385 . S
C1260 H1241 0.951 . S
C1260 C1258 1.388 . S
C1260 C1261 1.366 . S
C1261 C1260 1.366 . S
C1261 C1262 1.414 . S
C1261 C1264 1.499 . S
C1262 H1242 0.950 . S
C1262 C1261 1.414 . S
C1262 C1263 1.374 . S
C1263 H1243 0.950 . S
C1263 C1259 1.385 . S
C1263 C1262 1.374 . S
C1264 C1261 1.499 . S
C1264 C1265 1.373 . S
C1264 C1266 1.389 . S
C1265 H1244 0.950 . S
C1265 C1264 1.373 . S
C1265 C1281 1.377 . S
C1266 C1264 1.389 . S
C1266 C1267 1.524 . S
C1266 C1280 1.377 . S
C1267 C1266 1.524 . S
C1267 C1268 1.397 . S
C1267 C1272 1.363 . S
C1268 H1245 0.950 . S
C1268 C1267 1.397 . S
C1268 C1269 1.334 . S
C1269 H1246 0.950 . S
C1269 C1268 1.334 . S
C1269 C1270 1.287 . S
C1270 C1269 1.287 . S
C1270 C1271 1.524 . S
C1270 H1289 0.913 . S
C1271 H1247 0.950 . S
C1271 C1270 1.524 . S
C1271 C1272 1.415 . S
C1272 H1248 0.950 . S
C1272 C1267 1.363 . S
C1272 C1271 1.415 . S
C1273 H1249 0.951 . S
C1273 C1274 1.366 . S
C1273 C1275 1.388 . S
C1274 C1273 1.366 . S
C1274 C1278 1.385 . S
C1275 H1250 0.951 . S
C1275 C1273 1.388 . S
C1275 C1276 1.366 . S
C1276 C1275 1.366 . S
C1276 C1277 1.414 . S
C1276 C1279 1.499 . S
C1277 H1251 0.950 . S
C1277 C1276 1.414 . S
C1277 C1278 1.374 . S
C1278 H1252 0.950 . S
C1278 C1274 1.385 . S
C1278 C1277 1.374 . S
C1279 C1276 1.499 . S
C1279 C1280 1.373 . S
C1279 C1281 1.389 . S
C1280 H1253 0.950 . S
C1280 C1266 1.377 . S
C1280 C1279 1.373 . S
C1281 C1265 1.377 . S
C1281 C1279 1.389 . S
C1281 C1282 1.524 . S
C1282 C1281 1.524 . S
C1282 C1283 1.397 . S
C1282 C1287 1.363 . S
C1283 H1254 0.950 . S
C1283 C1282 1.397 . S
C1283 C1284 1.334 . S
C1284 H1255 0.950 . S
C1284 C1283 1.334 . S
C1284 C1285 1.287 . S
C1285 C1284 1.287 . S
C1285 C1286 1.524 . S
C1285 H1288 0.999 . S
C1286 H1256 0.950 . S
C1286 C1285 1.524 . S
C1286 C1287 1.415 . S
C1287 H1257 0.950 . S
C1287 C1282 1.363 . S
C1287 C1286 1.415 . S
H1288 C1285 0.999 . S
H1289 C1270 0.913 . S
H1290 C1308 0.951 . S
H1291 C1310 0.951 . S
H1292 C1312 0.950 . S
H1293 C1313 0.950 . S
H1294 C1315 0.950 . S
H1295 C1318 0.950 . S
H1296 C1319 0.950 . S
H1297 C1321 0.950 . S
H1298 C1322 0.950 . S
H1299 C1323 0.951 . S
H1300 C1325 0.951 . S
H1301 C1327 0.950 . S
H1302 C1328 0.950 . S
H1303 C1330 0.950 . S
H1304 C1333 0.950 . S
H1305 C1334 0.950 . S
H1306 C1336 0.950 . S
H1307 C1337 0.950 . S
C1308 H1290 0.951 . S
C1308 C1309 1.366 . S
C1308 C1310 1.388 . S
C1309 C1308 1.366 . S
C1309 C1313 1.385 1_554 S
C1310 H1291 0.951 . S
C1310 C1308 1.388 . S
C1310 C1311 1.366 . S
C1311 C1310 1.366 . S
C1311 C1312 1.414 1_554 S
C1311 C1314 1.499 . S
C1312 H1292 0.950 . S
C1312 C1311 1.414 1_556 S
C1312 C1313 1.374 . S
C1313 H1293 0.950 . S
C1313 C1309 1.385 1_556 S
C1313 C1312 1.374 . S
C1314 C1311 1.499 . S
C1314 C1315 1.373 1_554 S
C1314 C1316 1.389 . S
C1315 H1294 0.950 . S
C1315 C1314 1.373 1_556 S
C1315 C1331 1.377 . S
C1316 C1314 1.389 . S
C1316 C1317 1.524 . S
C1316 C1330 1.377 . S
C1317 C1316 1.524 . S
C1317 C1318 1.397 . S
C1317 C1322 1.363 . S
C1318 H1295 0.950 . S
C1318 C1317 1.397 . S
C1318 C1319 1.334 . S
C1319 H1296 0.950 . S
C1319 C1318 1.334 . S
C1319 C1320 1.287 . S
C1320 C1319 1.287 . S
C1320 C1321 1.524 . S
C1320 H1339 0.913 . S
C1321 H1297 0.950 . S
C1321 C1320 1.524 . S
C1321 C1322 1.415 . S
C1322 H1298 0.950 . S
C1322 C1317 1.363 . S
C1322 C1321 1.415 . S
C1323 H1299 0.951 . S
C1323 C1324 1.366 1_556 S
C1323 C1325 1.388 . S
C1324 C1323 1.366 1_554 S
C1324 C1328 1.385 . S
C1325 H1300 0.951 . S
C1325 C1323 1.388 . S
C1325 C1326 1.366 1_556 S
C1326 C1325 1.366 1_554 S
C1326 C1327 1.414 . S
C1326 C1329 1.499 . S
C1327 H1301 0.950 . S
C1327 C1326 1.414 . S
C1327 C1328 1.374 . S
C1328 H1302 0.950 . S
C1328 C1324 1.385 . S
C1328 C1327 1.374 . S
C1329 C1326 1.499 . S
C1329 C1330 1.373 . S
C1329 C1331 1.389 1_554 S
C1330 H1303 0.950 . S
C1330 C1316 1.377 . S
C1330 C1329 1.373 . S
C1331 C1315 1.377 . S
C1331 C1329 1.389 1_556 S
C1331 C1332 1.524 . S
C1332 C1331 1.524 . S
C1332 C1333 1.397 . S
C1332 C1337 1.363 . S
C1333 H1304 0.950 . S
C1333 C1332 1.397 . S
C1333 C1334 1.334 . S
C1334 H1305 0.950 . S
C1334 C1333 1.334 . S
C1334 C1335 1.287 . S
C1335 C1334 1.287 . S
C1335 C1336 1.524 . S
C1335 H1338 0.999 . S
C1336 H1306 0.950 . S
C1336 C1335 1.524 . S
C1336 C1337 1.415 . S
C1337 H1307 0.950 . S
C1337 C1332 1.363 . S
C1337 C1336 1.415 . S
H1338 C1335 0.999 . S
H1339 C1320 0.913 . S
H1340 C1358 0.951 . S
H1341 C1360 0.951 . S
H1342 C1362 0.950 . S
H1343 C1363 0.950 . S
H1344 C1365 0.950 . S
H1345 C1368 0.950 . S
H1346 C1369 0.950 . S
H1347 C1371 0.950 . S
H1348 C1372 0.950 . S
H1349 C1373 0.951 . S
H1350 C1375 0.951 . S
H1351 C1377 0.950 . S
H1352 C1378 0.950 . S
H1353 C1380 0.950 . S
H1354 C1383 0.950 . S
H1355 C1384 0.950 . S
H1356 C1386 0.950 . S
H1357 C1387 0.950 . S
C1358 H1340 0.951 . S
C1358 C1359 1.366 . S
C1358 C1360 1.388 . S
C1359 C1358 1.366 . S
C1359 C1363 1.385 . S
C1360 H1341 0.951 . S
C1360 C1358 1.388 . S
C1360 C1361 1.366 . S
C1361 C1360 1.366 . S
C1361 C1362 1.414 . S
C1361 C1364 1.499 . S
C1362 H1342 0.950 . S
C1362 C1361 1.414 . S
C1362 C1363 1.374 . S
C1363 H1343 0.950 . S
C1363 C1359 1.385 . S
C1363 C1362 1.374 . S
C1364 C1361 1.499 . S
C1364 C1365 1.373 . S
C1364 C1366 1.389 . S
C1365 H1344 0.950 . S
C1365 C1364 1.373 . S
C1365 C1381 1.377 . S
C1366 C1364 1.389 . S
C1366 C1367 1.524 . S
C1366 C1380 1.377 . S
C1367 C1366 1.524 . S
C1367 C1368 1.397 . S
C1367 C1372 1.363 . S
C1368 H1345 0.950 . S
C1368 C1367 1.397 . S
C1368 C1369 1.334 . S
C1369 H1346 0.950 . S
C1369 C1368 1.334 . S
C1369 C1370 1.287 . S
C1370 C1369 1.287 . S
C1370 C1371 1.524 . S
C1370 H1389 0.913 . S
C1371 H1347 0.950 . S
C1371 C1370 1.524 . S
C1371 C1372 1.415 . S
C1372 H1348 0.950 . S
C1372 C1367 1.363 . S
C1372 C1371 1.415 . S
C1373 H1349 0.951 . S
C1373 C1374 1.366 . S
C1373 C1375 1.388 . S
C1374 C1373 1.366 . S
C1374 C1378 1.385 . S
C1375 H1350 0.951 . S
C1375 C1373 1.388 . S
C1375 C1376 1.366 . S
C1376 C1375 1.366 . S
C1376 C1377 1.414 . S
C1376 C1379 1.499 . S
C1377 H1351 0.950 . S
C1377 C1376 1.414 . S
C1377 C1378 1.374 . S
C1378 H1352 0.950 . S
C1378 C1374 1.385 . S
C1378 C1377 1.374 . S
C1379 C1376 1.499 . S
C1379 C1380 1.373 . S
C1379 C1381 1.389 . S
C1380 H1353 0.950 . S
C1380 C1366 1.377 . S
C1380 C1379 1.373 . S
C1381 C1365 1.377 . S
C1381 C1379 1.389 . S
C1381 C1382 1.524 . S
C1382 C1381 1.524 . S
C1382 C1383 1.397 . S
C1382 C1387 1.363 . S
C1383 H1354 0.950 . S
C1383 C1382 1.397 . S
C1383 C1384 1.334 . S
C1384 H1355 0.950 . S
C1384 C1383 1.334 . S
C1384 C1385 1.287 . S
C1385 C1384 1.287 . S
C1385 C1386 1.524 . S
C1385 H1388 0.999 . S
C1386 H1356 0.950 . S
C1386 C1385 1.524 . S
C1386 C1387 1.415 . S
C1387 H1357 0.950 . S
C1387 C1382 1.363 . S
C1387 C1386 1.415 . S
H1388 C1385 0.999 . S
H1389 C1370 0.913 . S
H1390 C1408 0.951 . S
H1391 C1410 0.951 . S
H1392 C1412 0.950 . S
H1393 C1413 0.950 . S
H1394 C1415 0.950 . S
H1395 C1418 0.950 . S
H1396 C1419 0.950 . S
H1397 C1421 0.950 . S
H1398 C1422 0.950 . S
H1399 C1423 0.951 . S
H1400 C1425 0.951 . S
H1401 C1427 0.950 . S
H1402 C1428 0.950 . S
H1403 C1430 0.950 . S
H1404 C1433 0.950 . S
H1405 C1434 0.950 . S
H1406 C1436 0.950 . S
H1407 C1437 0.950 1_554 S
C1408 H1390 0.951 . S
C1408 C1409 1.366 1_556 S
C1408 C1410 1.388 . S
C1409 C1408 1.366 1_554 S
C1409 C1413 1.385 . S
C1410 H1391 0.951 . S
C1410 C1408 1.388 . S
C1410 C1411 1.366 1_556 S
C1411 C1410 1.366 1_554 S
C1411 C1412 1.414 . S
C1411 C1414 1.499 . S
C1412 H1392 0.950 . S
C1412 C1411 1.414 . S
C1412 C1413 1.374 . S
C1413 H1393 0.950 . S
C1413 C1409 1.385 . S
C1413 C1412 1.374 . S
C1414 C1411 1.499 . S
C1414 C1415 1.373 1_554 S
C1414 C1416 1.389 . S
C1415 H1394 0.950 . S
C1415 C1414 1.373 1_556 S
C1415 C1431 1.377 . S
C1416 C1414 1.389 . S
C1416 C1417 1.524 . S
C1416 C1430 1.377 . S
C1417 C1416 1.524 . S
C1417 C1418 1.397 . S
C1417 C1422 1.363 . S
C1418 H1395 0.950 . S
C1418 C1417 1.397 . S
C1418 C1419 1.334 . S
C1419 H1396 0.950 . S
C1419 C1418 1.334 . S
C1419 C1420 1.287 . S
C1420 C1419 1.287 . S
C1420 C1421 1.524 . S
C1420 H1439 0.913 . S
C1421 H1397 0.950 . S
C1421 C1420 1.524 . S
C1421 C1422 1.415 . S
C1422 H1398 0.950 . S
C1422 C1417 1.363 . S
C1422 C1421 1.415 . S
C1423 H1399 0.951 . S
C1423 C1424 1.366 . S
C1423 C1425 1.388 . S
C1424 C1423 1.366 . S
C1424 C1428 1.385 1_554 S
C1425 H1400 0.951 . S
C1425 C1423 1.388 . S
C1425 C1426 1.366 . S
C1426 C1425 1.366 . S
C1426 C1427 1.414 1_554 S
C1426 C1429 1.499 . S
C1427 H1401 0.950 . S
C1427 C1426 1.414 1_556 S
C1427 C1428 1.374 . S
C1428 H1402 0.950 . S
C1428 C1424 1.385 1_556 S
C1428 C1427 1.374 . S
C1429 C1426 1.499 . S
C1429 C1430 1.373 . S
C1429 C1431 1.389 1_554 S
C1430 H1403 0.950 . S
C1430 C1416 1.377 . S
C1430 C1429 1.373 . S
C1431 C1415 1.377 . S
C1431 C1429 1.389 1_556 S
C1431 C1432 1.524 . S
C1432 C1431 1.524 . S
C1432 C1433 1.397 . S
C1432 C1437 1.363 . S
C1433 H1404 0.950 . S
C1433 C1432 1.397 . S
C1433 C1434 1.334 . S
C1434 H1405 0.950 . S
C1434 C1433 1.334 . S
C1434 C1435 1.287 . S
C1435 C1434 1.287 . S
C1435 C1436 1.524 . S
C1435 H1438 0.999 . S
C1436 H1406 0.950 . S
C1436 C1435 1.524 . S
C1436 C1437 1.415 . S
C1437 H1407 0.950 1_556 S
C1437 C1432 1.363 . S
C1437 C1436 1.415 . S
H1438 C1435 0.999 . S
H1439 C1420 0.913 . S
C259 C21 1.536 . S
C274 C151 1.542 . S
C309 C40 1.509 . S
C324 C94 1.504 . S
C374 C109 1.479 . S
C359 C54 1.521 . S
C409 C73 1.550 . S
C424 C128 1.519 . S
C474 C185 1.466 . S
C459 C74 1.506 . S
C524 C204 1.497 . S
C509 C10 1.540 . S
C574 C227 1.556 . S
C559 C37 1.553 . S
C624 C170 1.525 . S
C609 C65 1.518 . S
C659 C52 1.475 . S
C674 C113 1.472 . S
C709 C87 1.533 . S
C724 C132 1.537 . S
C759 C15 1.584 . S
C774 C147 1.548 . S
C824 C90 1.482 . S
C809 C32 1.524 . S
C859 C29 1.567 . S
C874 C223 1.534 . S
C924 C166 1.531 . S
C909 C59 1.564 . S
C974 C189 1.485 . S
C959 C84 1.489 . S
C1009 C8 1.493 . S
C1024 C208 1.489 . S
C1074 C99 1.393 1_554 S
C1059 C7 1.509 . S
C1124 C118 1.372 . S
C1109 C30 1.483 . S
C1159 C62 1.497 . S
C1174 C137 1.389 . S
C1209 C81 1.524 . S
C1224 C156 1.403 . S
C1274 C175 1.371 . S
C1259 C76 1.497 . S
C1309 C18 1.483 . S
C1324 C194 1.373 1_554 S
C1359 C43 1.508 . S
C1374 C213 1.406 . S
C1409 C51 1.523 . S
C1424 C232 1.402 . S
