# Generated by pormake.
# Topology ctn, (3,4)-cn, num edge types: 1
# Building blocks:
#     Node 0, Type 0, BuildingBlock: BELTOD_clean_linker_0, # of connection points: 3
#     Node 1, Type 0, BuildingBlock: BELTOD_clean_linker_0, # of connection points: 3
#     Node 2, Type 0, BuildingBlock: BELTOD_clean_linker_0, # of connection points: 3
#     Node 3, Type 0, BuildingBlock: BELTOD_clean_linker_0, # of connection points: 3
#     Node 4, Type 0, BuildingBlock: BELTOD_clean_linker_0, # of connection points: 3
#     Node 5, Type 0, BuildingBlock: BELTOD_clean_linker_0, # of connection points: 3
#     Node 6, Type 0, BuildingBlock: BELTOD_clean_linker_0, # of connection points: 3
#     Node 7, Type 0, BuildingBlock: BELTOD_clean_linker_0, # of connection points: 3
#     Node 8, Type 0, BuildingBlock: BELTOD_clean_linker_0, # of connection points: 3
#     Node 9, Type 0, BuildingBlock: BELTOD_clean_linker_0, # of connection points: 3
#     Node 10, Type 0, BuildingBlock: BELTOD_clean_linker_0, # of connection points: 3
#     Node 11, Type 0, BuildingBlock: BELTOD_clean_linker_0, # of connection points: 3
#     Node 12, Type 0, BuildingBlock: BELTOD_clean_linker_0, # of connection points: 3
#     Node 13, Type 0, BuildingBlock: BELTOD_clean_linker_0, # of connection points: 3
#     Node 14, Type 0, BuildingBlock: BELTOD_clean_linker_0, # of connection points: 3
#     Node 15, Type 0, BuildingBlock: BELTOD_clean_linker_0, # of connection points: 3
#     Node 16, Type 1, BuildingBlock: QUQFOY_clean_sbu_1, # of connection points: 4
#     Node 17, Type 1, BuildingBlock: QUQFOY_clean_sbu_1, # of connection points: 4
#     Node 18, Type 1, BuildingBlock: QUQFOY_clean_sbu_1, # of connection points: 4
#     Node 19, Type 1, BuildingBlock: QUQFOY_clean_sbu_1, # of connection points: 4
#     Node 20, Type 1, BuildingBlock: QUQFOY_clean_sbu_1, # of connection points: 4
#     Node 21, Type 1, BuildingBlock: QUQFOY_clean_sbu_1, # of connection points: 4
#     Node 22, Type 1, BuildingBlock: QUQFOY_clean_sbu_1, # of connection points: 4
#     Node 23, Type 1, BuildingBlock: QUQFOY_clean_sbu_1, # of connection points: 4
#     Node 24, Type 1, BuildingBlock: QUQFOY_clean_sbu_1, # of connection points: 4
#     Node 25, Type 1, BuildingBlock: QUQFOY_clean_sbu_1, # of connection points: 4
#     Node 26, Type 1, BuildingBlock: QUQFOY_clean_sbu_1, # of connection points: 4
#     Node 27, Type 1, BuildingBlock: QUQFOY_clean_sbu_1, # of connection points: 4
#     Edge 28, Type (0, 1), BuildingBlock: ZUJKAS_clean_linker_0, # of connection points: 2
#     Edge 29, Type (0, 1), BuildingBlock: ZUJKAS_clean_linker_0, # of connection points: 2
#     Edge 30, Type (0, 1), BuildingBlock: ZUJKAS_clean_linker_0, # of connection points: 2
#     Edge 31, Type (0, 1), BuildingBlock: ZUJKAS_clean_linker_0, # of connection points: 2
#     Edge 32, Type (0, 1), BuildingBlock: ZUJKAS_clean_linker_0, # of connection points: 2
#     Edge 33, Type (0, 1), BuildingBlock: ZUJKAS_clean_linker_0, # of connection points: 2
#     Edge 34, Type (0, 1), BuildingBlock: ZUJKAS_clean_linker_0, # of connection points: 2
#     Edge 35, Type (0, 1), BuildingBlock: ZUJKAS_clean_linker_0, # of connection points: 2
#     Edge 36, Type (0, 1), BuildingBlock: ZUJKAS_clean_linker_0, # of connection points: 2
#     Edge 37, Type (0, 1), BuildingBlock: ZUJKAS_clean_linker_0, # of connection points: 2
#     Edge 38, Type (0, 1), BuildingBlock: ZUJKAS_clean_linker_0, # of connection points: 2
#     Edge 39, Type (0, 1), BuildingBlock: ZUJKAS_clean_linker_0, # of connection points: 2
#     Edge 40, Type (0, 1), BuildingBlock: ZUJKAS_clean_linker_0, # of connection points: 2
#     Edge 41, Type (0, 1), BuildingBlock: ZUJKAS_clean_linker_0, # of connection points: 2
#     Edge 42, Type (0, 1), BuildingBlock: ZUJKAS_clean_linker_0, # of connection points: 2
#     Edge 43, Type (0, 1), BuildingBlock: ZUJKAS_clean_linker_0, # of connection points: 2
#     Edge 44, Type (0, 1), BuildingBlock: ZUJKAS_clean_linker_0, # of connection points: 2
#     Edge 45, Type (0, 1), BuildingBlock: ZUJKAS_clean_linker_0, # of connection points: 2
#     Edge 46, Type (0, 1), BuildingBlock: ZUJKAS_clean_linker_0, # of connection points: 2
#     Edge 47, Type (0, 1), BuildingBlock: ZUJKAS_clean_linker_0, # of connection points: 2
#     Edge 48, Type (0, 1), BuildingBlock: ZUJKAS_clean_linker_0, # of connection points: 2
#     Edge 49, Type (0, 1), BuildingBlock: ZUJKAS_clean_linker_0, # of connection points: 2
#     Edge 50, Type (0, 1), BuildingBlock: ZUJKAS_clean_linker_0, # of connection points: 2
#     Edge 51, Type (0, 1), BuildingBlock: ZUJKAS_clean_linker_0, # of connection points: 2
#     Edge 52, Type (0, 1), BuildingBlock: ZUJKAS_clean_linker_0, # of connection points: 2
#     Edge 53, Type (0, 1), BuildingBlock: ZUJKAS_clean_linker_0, # of connection points: 2
#     Edge 54, Type (0, 1), BuildingBlock: ZUJKAS_clean_linker_0, # of connection points: 2
#     Edge 55, Type (0, 1), BuildingBlock: ZUJKAS_clean_linker_0, # of connection points: 2
#     Edge 56, Type (0, 1), BuildingBlock: ZUJKAS_clean_linker_0, # of connection points: 2
#     Edge 57, Type (0, 1), BuildingBlock: ZUJKAS_clean_linker_0, # of connection points: 2
#     Edge 58, Type (0, 1), BuildingBlock: ZUJKAS_clean_linker_0, # of connection points: 2
#     Edge 59, Type (0, 1), BuildingBlock: ZUJKAS_clean_linker_0, # of connection points: 2
#     Edge 60, Type (0, 1), BuildingBlock: ZUJKAS_clean_linker_0, # of connection points: 2
#     Edge 61, Type (0, 1), BuildingBlock: ZUJKAS_clean_linker_0, # of connection points: 2
#     Edge 62, Type (0, 1), BuildingBlock: ZUJKAS_clean_linker_0, # of connection points: 2
#     Edge 63, Type (0, 1), BuildingBlock: ZUJKAS_clean_linker_0, # of connection points: 2
#     Edge 64, Type (0, 1), BuildingBlock: ZUJKAS_clean_linker_0, # of connection points: 2
#     Edge 65, Type (0, 1), BuildingBlock: ZUJKAS_clean_linker_0, # of connection points: 2
#     Edge 66, Type (0, 1), BuildingBlock: ZUJKAS_clean_linker_0, # of connection points: 2
#     Edge 67, Type (0, 1), BuildingBlock: ZUJKAS_clean_linker_0, # of connection points: 2
#     Edge 68, Type (0, 1), BuildingBlock: ZUJKAS_clean_linker_0, # of connection points: 2
#     Edge 69, Type (0, 1), BuildingBlock: ZUJKAS_clean_linker_0, # of connection points: 2
#     Edge 70, Type (0, 1), BuildingBlock: ZUJKAS_clean_linker_0, # of connection points: 2
#     Edge 71, Type (0, 1), BuildingBlock: ZUJKAS_clean_linker_0, # of connection points: 2
#     Edge 72, Type (0, 1), BuildingBlock: ZUJKAS_clean_linker_0, # of connection points: 2
#     Edge 73, Type (0, 1), BuildingBlock: ZUJKAS_clean_linker_0, # of connection points: 2
#     Edge 74, Type (0, 1), BuildingBlock: ZUJKAS_clean_linker_0, # of connection points: 2
#     Edge 75, Type (0, 1), BuildingBlock: ZUJKAS_clean_linker_0, # of connection points: 2
# Relax obj value: 0.036
# Max RMSD: 0.149
# Mean RMSD: 0.068
data_MOF--net-ctn--node1-QUQFOY_clean_sbu_1--node2-BELTOD_clean_linker_0--edge1-ZUJKAS_clean_linker_0
_symmetry_space_group_name_H-M    P1
_symmetry_Int_Tables_number       1
_symmetry_cell_setting            triclinic
loop_
_symmetry_equiv_pos_as_xyz
'x, y, z'
_cell_length_a     78.404265
_cell_length_b     78.908616
_cell_length_c     78.392997
_cell_angle_alpha  92.015006
_cell_angle_beta   90.131189
_cell_angle_gamma 95.160048
loop_
_atom_site_label
_atom_site_type_symbol
_atom_site_fract_x
_atom_site_fract_y
_atom_site_fract_z
_atom_type_partial_charge
P0 P 0.09171 0.12034 0.11081 0.0
H1 H 0.08456 0.11583 0.14683 0.0
H2 H 0.05795 0.11149 0.16296 0.0
H3 H 0.02887 0.11573 0.11663 0.0
H4 H 0.05544 0.11963 0.10059 0.0
H5 H 0.12647 0.11043 0.10703 0.0
H6 H 0.138 0.0829 0.10227 0.0
H7 H 0.08665 0.05788 0.10297 0.0
H8 H 0.07529 0.08543 0.10811 0.0
H9 H 0.0922 0.15522 0.09959 0.0
H10 H 0.08276 0.10456 0.07712 0.0
O11 O 0.10587 0.13353 0.12182 0.0
H12 H 0.08486 0.16724 0.07248 0.0
H13 H 0.07563 0.11646 0.04994 0.0
C14 C 0.072 0.1183 0.12259 0.0
C15 C 0.07244 0.11599 0.14021 0.0
C16 C 0.05721 0.11359 0.14941 0.0
C17 C 0.04126 0.11335 0.1411 0.0
C18 C 0.04092 0.11571 0.1234 0.0
C19 C 0.05615 0.11808 0.11422 0.0
C20 C 0.10008 0.09992 0.10823 0.0
C21 C 0.11773 0.09899 0.10637 0.0
C22 C 0.12428 0.08325 0.10351 0.0
C23 C 0.11325 0.06816 0.10227 0.0
C24 C 0.09553 0.0692 0.10416 0.0
C25 C 0.08901 0.08496 0.10705 0.0
C26 C 0.08832 0.12903 0.09028 0.0
C27 C 0.08889 0.1467 0.08872 0.0
C28 C 0.08474 0.15355 0.0732 0.0
C29 C 0.07971 0.14279 0.05904 0.0
C30 C 0.07935 0.12507 0.06064 0.0
C31 C 0.08357 0.11825 0.07614 0.0
P32 P 0.3098 0.71712 0.19612 0.0
H33 H 0.32103 0.74268 0.17173 0.0
H34 H 0.30839 0.76768 0.16171 0.0
H35 H 0.26733 0.75958 0.19806 0.0
H36 H 0.27997 0.73432 0.2078 0.0
H37 H 0.33546 0.69614 0.20825 0.0
H38 H 0.35645 0.69986 0.2315 0.0
H39 H 0.33974 0.74949 0.24403 0.0
H40 H 0.31884 0.74571 0.22067 0.0
H41 H 0.28282 0.69678 0.17729 0.0
H42 H 0.29906 0.70471 0.22979 0.0
O43 O 0.31892 0.70872 0.17897 0.0
H44 H 0.25984 0.67585 0.18592 0.0
H45 H 0.2766 0.68342 0.23845 0.0
C46 C 0.30121 0.73645 0.19017 0.0
C47 C 0.30936 0.74634 0.1776 0.0
C48 C 0.30219 0.76074 0.172 0.0
C49 C 0.28677 0.7656 0.17902 0.0
C50 C 0.27905 0.75603 0.19221 0.0
C51 C 0.28627 0.74161 0.19779 0.0
C52 C 0.32584 0.72075 0.21258 0.0
C53 C 0.33645 0.70789 0.2159 0.0
C54 C 0.34832 0.70997 0.22928 0.0
C55 C 0.34974 0.72497 0.23958 0.0
C56 C 0.33908 0.73788 0.23617 0.0
C57 C 0.32713 0.73574 0.22282 0.0
C58 C 0.29283 0.70201 0.20282 0.0
C59 C 0.2815 0.6939 0.19065 0.0
C60 C 0.26844 0.6819 0.19561 0.0
C61 C 0.26647 0.67782 0.21287 0.0
C62 C 0.27765 0.68633 0.22508 0.0
C63 C 0.29065 0.6984 0.2201 0.0
P64 P 0.94528 0.4731 0.0548 0.0
H65 H 0.93447 0.4606 0.02072 0.0
H66 H 0.93122 0.43197 0.00744 0.0
H67 H 0.93943 0.41058 0.05645 0.0
H68 H 0.94261 0.43919 0.06965 0.0
H69 H 0.94353 0.50658 0.07056 0.0
H70 H 0.92033 0.52498 0.07405 0.0
H71 H 0.88444 0.4843 0.05398 0.0
H72 H 0.90789 0.4661 0.05013 0.0
H73 H 0.9819 0.47063 0.05776 0.0
H74 H 0.93865 0.47124 0.09157 0.0
O75 O 0.95657 0.48384 0.04001 0.0
H76 H 0.00076 0.46752 0.08202 0.0
H77 H 0.95739 0.46771 0.11598 0.0
C78 C 0.93922 0.45203 0.04605 0.0
C79 C 0.93524 0.44972 0.02865 0.0
C80 C 0.93328 0.43336 0.0211 0.0
C81 C 0.93532 0.41907 0.03089 0.0
C82 C 0.93807 0.42139 0.04857 0.0
C83 C 0.9399 0.43776 0.05612 0.0
C84 C 0.92743 0.48502 0.06011 0.0
C85 C 0.93061 0.50153 0.06721 0.0
C86 C 0.91728 0.51201 0.06929 0.0
C87 C 0.90049 0.50615 0.06424 0.0
C88 C 0.89725 0.48928 0.05778 0.0
C89 C 0.91064 0.47882 0.05567 0.0
C90 C 0.95901 0.47164 0.07297 0.0
C91 C 0.97649 0.4702 0.07046 0.0
C92 C 0.98722 0.46818 0.08433 0.0
C93 C 0.98059 0.46735 0.10096 0.0
C94 C 0.96294 0.46855 0.10337 0.0
C95 C 0.95222 0.4706 0.08945 0.0
P96 P 0.68755 0.82462 0.21107 0.0
H97 H 0.70336 0.85077 0.18948 0.0
H98 H 0.72502 0.87465 0.19491 0.0
H99 H 0.7308 0.85873 0.24664 0.0
H100 H 0.709 0.83498 0.24115 0.0
H101 H 0.67073 0.79871 0.18804 0.0
H102 H 0.68112 0.77547 0.17084 0.0
H103 H 0.73197 0.78788 0.19175 0.0
H104 H 0.72146 0.81141 0.20871 0.0
H105 H 0.66671 0.84215 0.23512 0.0
H106 H 0.6867 0.79305 0.23039 0.0
O107 O 0.67263 0.83242 0.19915 0.0
H108 H 0.65173 0.83357 0.26113 0.0
H109 H 0.67191 0.78442 0.25658 0.0
C110 C 0.70433 0.84138 0.21501 0.0
C111 C 0.70932 0.85243 0.20198 0.0
C112 C 0.72179 0.86599 0.20507 0.0
C113 C 0.72951 0.86867 0.22126 0.0
C114 C 0.72484 0.85719 0.23414 0.0
C115 C 0.71241 0.84359 0.231 0.0
C116 C 0.6954 0.80699 0.19931 0.0
C117 C 0.68412 0.79642 0.18892 0.0
C118 C 0.69006 0.78301 0.17922 0.0
C119 C 0.70741 0.77983 0.17986 0.0
C120 C 0.71859 0.79015 0.19076 0.0
C121 C 0.7126 0.80359 0.20048 0.0
C122 C 0.67757 0.81817 0.23073 0.0
C123 C 0.66795 0.82955 0.23978 0.0
C124 C 0.65953 0.82467 0.25473 0.0
C125 C 0.66061 0.80829 0.26093 0.0
C126 C 0.67066 0.79705 0.25202 0.0
C127 C 0.67914 0.80198 0.23705 0.0
P128 P 0.07105 0.93916 0.42279 0.0
H129 H 0.10361 0.95288 0.40825 0.0
H130 H 0.12459 0.97625 0.41746 0.0
H131 H 0.09421 0.9853 0.46227 0.0
H132 H 0.07313 0.9623 0.45273 0.0
H133 H 0.08521 0.91004 0.43753 0.0
H134 H 0.07818 0.894 0.4631 0.0
H135 H 0.03707 0.92568 0.47406 0.0
H136 H 0.04402 0.94143 0.44834 0.0
H137 H 0.06606 0.97348 0.41133 0.0
H138 H 0.03657 0.92474 0.41351 0.0
O139 O 0.07931 0.92675 0.40787 0.0
H140 H 0.04191 0.98544 0.39814 0.0
H141 H 0.01212 0.93676 0.40052 0.0
C142 C 0.08701 0.95567 0.42998 0.0
C143 C 0.10156 0.95981 0.42012 0.0
C144 C 0.11356 0.97315 0.42543 0.0
C145 C 0.11111 0.98261 0.44064 0.0
C146 C 0.09642 0.9784 0.45042 0.0
C147 C 0.08444 0.96511 0.44508 0.0
C148 C 0.06485 0.9266 0.44082 0.0
C149 C 0.07453 0.91335 0.44532 0.0
C150 C 0.07061 0.90432 0.46004 0.0
C151 C 0.05703 0.90853 0.4706 0.0
C152 C 0.04741 0.92192 0.46605 0.0
C153 C 0.05135 0.93092 0.45133 0.0
C154 C 0.05301 0.94826 0.41368 0.0
C155 C 0.05431 0.96537 0.4092 0.0
C156 C 0.04044 0.97225 0.4017 0.0
C157 C 0.02503 0.9621 0.3984 0.0
C158 C 0.02383 0.9449 0.4028 0.0
C159 C 0.03775 0.93804 0.41032 0.0
P160 P 0.24094 0.77032 0.78948 0.0
H161 H 0.25996 0.77572 0.8213 0.0
H162 H 0.25185 0.78409 0.85028 0.0
H163 H 0.19911 0.78347 0.83391 0.0
H164 H 0.20735 0.77547 0.80498 0.0
H165 H 0.26989 0.7591 0.77016 0.0
H166 H 0.2844 0.73301 0.76993 0.0
H167 H 0.24754 0.71159 0.80601 0.0
H168 H 0.23347 0.73805 0.80658 0.0
H169 H 0.22816 0.79622 0.76849 0.0
H170 H 0.21396 0.74362 0.77921 0.0
O171 O 0.25554 0.78589 0.78408 0.0
H172 H 0.20266 0.79664 0.75067 0.0
H173 H 0.18815 0.74403 0.76172 0.0
C174 C 0.23433 0.77506 0.81097 0.0
C175 C 0.24664 0.77728 0.82401 0.0
C176 C 0.24195 0.78195 0.84059 0.0
C177 C 0.22482 0.78449 0.84441 0.0
C178 C 0.21244 0.78184 0.83135 0.0
C179 C 0.21715 0.77717 0.81477 0.0
C180 C 0.2508 0.75058 0.7886 0.0
C181 C 0.26495 0.74879 0.77803 0.0
C182 C 0.27315 0.73378 0.77781 0.0
C183 C 0.26721 0.72017 0.78802 0.0
C184 C 0.25267 0.7219 0.79824 0.0
C185 C 0.24454 0.73698 0.79851 0.0
C186 C 0.22314 0.76979 0.77487 0.0
C187 C 0.21966 0.78468 0.76681 0.0
C188 C 0.20496 0.78496 0.75677 0.0
C189 C 0.19332 0.77038 0.75477 0.0
C190 C 0.19697 0.7554 0.76276 0.0
C191 C 0.21173 0.75514 0.77278 0.0
P192 P 0.96272 0.54618 0.49307 0.0
H193 H 0.99813 0.54722 0.48227 0.0
H194 H 0.01172 0.5474 0.45429 0.0
H195 H 0.96208 0.54767 0.43021 0.0
H196 H 0.94856 0.54715 0.4583 0.0
H197 H 0.96395 0.55771 0.52867 0.0
H198 H 0.96536 0.58589 0.54272 0.0
H199 H 0.96447 0.60878 0.49345 0.0
H200 H 0.96346 0.58047 0.47949 0.0
H201 H 0.94678 0.51156 0.49531 0.0
H202 H 0.93047 0.5615 0.4877 0.0
O203 O 0.9736 0.53376 0.50509 0.0
H204 H 0.917 0.49956 0.49496 0.0
H205 H 0.90059 0.54955 0.48689 0.0
C206 C 0.97236 0.54679 0.47231 0.0
C207 C 0.99019 0.54728 0.47095 0.0
C208 C 0.99793 0.54755 0.45495 0.0
C209 C 0.98797 0.5475 0.44 0.0
C210 C 0.97008 0.54745 0.44147 0.0
C211 C 0.96234 0.54717 0.45752 0.0
C212 C 0.964 0.56707 0.50308 0.0
C213 C 0.96419 0.56881 0.5209 0.0
C214 C 0.96481 0.58493 0.52891 0.0
C215 C 0.96505 0.5996 0.5192 0.0
C216 C 0.96458 0.59775 0.50128 0.0
C217 C 0.96399 0.58159 0.49329 0.0
C218 C 0.94077 0.53744 0.49193 0.0
C219 C 0.93677 0.51993 0.4935 0.0
C220 C 0.91972 0.51307 0.49312 0.0
C221 C 0.90638 0.52361 0.49096 0.0
C222 C 0.91054 0.54113 0.48887 0.0
C223 C 0.92761 0.54798 0.4893 0.0
P224 P 0.80686 0.84693 0.82685 0.0
H225 H 0.83009 0.86678 0.80478 0.0
H226 H 0.84963 0.85885 0.78219 0.0
H227 H 0.83206 0.80584 0.78775 0.0
H228 H 0.81268 0.81387 0.81043 0.0
H229 H 0.78296 0.8685 0.84278 0.0
H230 H 0.75726 0.88026 0.83253 0.0
H231 H 0.76184 0.85331 0.78401 0.0
H232 H 0.7878 0.8418 0.79434 0.0
H233 H 0.82785 0.83191 0.85173 0.0
H234 H 0.77633 0.82306 0.83194 0.0
O235 O 0.81762 0.86274 0.83818 0.0
H236 H 0.82234 0.80819 0.8708 0.0
H237 H 0.77075 0.7992 0.85085 0.0
C238 C 0.82027 0.8409 0.80951 0.0
C239 C 0.83044 0.85346 0.80109 0.0
C240 C 0.8415 0.84891 0.78811 0.0
C241 C 0.8425 0.83169 0.78329 0.0
C242 C 0.83181 0.81918 0.79139 0.0
C243 C 0.82071 0.82376 0.80434 0.0
C244 C 0.78746 0.85463 0.8192 0.0
C245 C 0.77841 0.86511 0.82995 0.0
C246 C 0.76361 0.87168 0.82411 0.0
C247 C 0.75749 0.86775 0.80742 0.0
C248 C 0.76635 0.85676 0.79685 0.0
C249 C 0.78118 0.85017 0.80273 0.0
C250 C 0.80241 0.82943 0.84071 0.0
C251 C 0.81534 0.82486 0.85154 0.0
C252 C 0.81221 0.81122 0.86231 0.0
C253 C 0.79608 0.80186 0.86238 0.0
C254 C 0.78322 0.80634 0.85128 0.0
C255 C 0.7864 0.81996 0.84045 0.0
P256 P 0.31413 0.35004 0.33091 0.0
H257 H 0.34181 0.37039 0.31447 0.0
H258 H 0.36112 0.3642 0.29108 0.0
H259 H 0.33549 0.31351 0.28492 0.0
H260 H 0.31607 0.31992 0.30821 0.0
H261 H 0.29545 0.37772 0.34456 0.0
H262 H 0.2705 0.39089 0.33448 0.0
H263 H 0.26649 0.3557 0.29086 0.0
H264 H 0.29147 0.34239 0.3012 0.0
H265 H 0.3351 0.32702 0.3475 0.0
H266 H 0.28119 0.33146 0.34001 0.0
O267 O 0.32506 0.36402 0.34422 0.0
H268 H 0.32836 0.30218 0.36481 0.0
H269 H 0.27433 0.30641 0.35698 0.0
C270 C 0.3278 0.34549 0.31328 0.0
C271 C 0.34038 0.35795 0.30809 0.0
C272 C 0.35143 0.35437 0.29476 0.0
C273 C 0.34995 0.33831 0.28627 0.0
C274 C 0.33691 0.32603 0.29116 0.0
C275 C 0.3259 0.32962 0.30455 0.0
C276 C 0.29553 0.35936 0.32341 0.0
C277 C 0.28927 0.37287 0.33279 0.0
C278 C 0.27503 0.38042 0.32698 0.0
C279 C 0.26667 0.37449 0.31174 0.0
C280 C 0.27266 0.36054 0.30264 0.0
C281 C 0.28699 0.35302 0.30846 0.0
C282 C 0.30868 0.33107 0.3425 0.0
C283 C 0.32181 0.32251 0.34944 0.0
C284 C 0.31793 0.30825 0.35924 0.0
C285 C 0.30079 0.3023 0.36229 0.0
C286 C 0.28765 0.31079 0.35505 0.0
C287 C 0.29156 0.32508 0.34524 0.0
P288 P 0.44822 0.97501 0.55326 0.0
H289 H 0.43698 0.96236 0.51936 0.0
H290 H 0.43286 0.93362 0.50639 0.0
H291 H 0.44121 0.91252 0.55551 0.0
H292 H 0.44528 0.94123 0.56839 0.0
H293 H 0.44695 0.00905 0.5678 0.0
H294 H 0.42384 0.02756 0.57143 0.0
H295 H 0.38738 0.98634 0.5536 0.0
H296 H 0.41071 0.96802 0.54963 0.0
H297 H 0.48484 0.97258 0.55658 0.0
H298 H 0.44125 0.97321 0.58994 0.0
O299 O 0.45969 0.98544 0.53839 0.0
H300 H 0.50348 0.96961 0.58106 0.0
H301 H 0.45974 0.96979 0.61456 0.0
C302 C 0.44186 0.95393 0.54471 0.0
C303 C 0.43763 0.95153 0.52738 0.0
C304 C 0.43517 0.93511 0.52001 0.0
C305 C 0.43694 0.92085 0.52991 0.0
C306 C 0.44005 0.9233 0.54753 0.0
C307 C 0.44237 0.93972 0.5549 0.0
C308 C 0.43054 0.98722 0.55842 0.0
C309 C 0.43393 0.00393 0.56494 0.0
C310 C 0.42067 0.01447 0.56711 0.0
C311 C 0.40373 0.00847 0.56275 0.0
C312 C 0.40031 0.99143 0.55686 0.0
C313 C 0.41363 0.9809 0.55466 0.0
C314 C 0.4618 0.97358 0.57154 0.0
C315 C 0.47931 0.97217 0.56922 0.0
C316 C 0.48991 0.97023 0.58322 0.0
C317 C 0.48311 0.96946 0.59979 0.0
C318 C 0.46543 0.97061 0.602 0.0
C319 C 0.45485 0.97259 0.58797 0.0
P320 P 0.18887 0.32609 0.71145 0.0
H321 H 0.20387 0.35402 0.6915 0.0
H322 H 0.22577 0.37745 0.69795 0.0
H323 H 0.2335 0.35731 0.74767 0.0
H324 H 0.21146 0.33401 0.74116 0.0
H325 H 0.17077 0.29538 0.69677 0.0
H326 H 0.17962 0.27227 0.67819 0.0
H327 H 0.23187 0.29498 0.68059 0.0
H328 H 0.22297 0.31784 0.69947 0.0
H329 H 0.16548 0.34234 0.73394 0.0
H330 H 0.19038 0.29577 0.73222 0.0
O331 O 0.17421 0.33432 0.69955 0.0
H332 H 0.15072 0.33367 0.76003 0.0
H333 H 0.17571 0.287 0.75847 0.0
C334 C 0.2058 0.34255 0.716 0.0
C335 C 0.21031 0.35466 0.70378 0.0
C336 C 0.22291 0.36797 0.70744 0.0
C337 C 0.23126 0.36932 0.72339 0.0
C338 C 0.22707 0.35679 0.73539 0.0
C339 C 0.21451 0.34344 0.73168 0.0
C340 C 0.19616 0.30835 0.69939 0.0
C341 C 0.18416 0.29526 0.69344 0.0
C342 C 0.18923 0.28212 0.68276 0.0
C343 C 0.20643 0.28188 0.67777 0.0
C344 C 0.21855 0.29472 0.68429 0.0
C345 C 0.21345 0.30788 0.69501 0.0
C346 C 0.17868 0.31953 0.73097 0.0
C347 C 0.16778 0.33024 0.73922 0.0
C348 C 0.15948 0.32534 0.75423 0.0
C349 C 0.16202 0.30962 0.76131 0.0
C350 C 0.17334 0.29908 0.75321 0.0
C351 C 0.18171 0.30407 0.7382 0.0
P352 P 0.80954 0.21942 0.69716 0.0
H353 H 0.81915 0.24332 0.67062 0.0
H354 H 0.80681 0.26866 0.66106 0.0
H355 H 0.76992 0.26447 0.70193 0.0
H356 H 0.78225 0.2389 0.71128 0.0
H357 H 0.82653 0.19536 0.7167 0.0
H358 H 0.8483 0.1986 0.73914 0.0
H359 H 0.85048 0.25331 0.73559 0.0
H360 H 0.82826 0.24993 0.71349 0.0
H361 H 0.78654 0.1938 0.67888 0.0
H362 H 0.79414 0.21337 0.73066 0.0
O363 O 0.81843 0.21077 0.68001 0.0
H364 H 0.7637 0.17316 0.68837 0.0
H365 H 0.77117 0.19292 0.74024 0.0
C366 C 0.80135 0.23901 0.69137 0.0
C367 C 0.80846 0.24789 0.67757 0.0
C368 C 0.80148 0.26249 0.67222 0.0
C369 C 0.7873 0.26855 0.68068 0.0
C370 C 0.78067 0.25998 0.69499 0.0
C371 C 0.78771 0.24538 0.70036 0.0
C372 C 0.82565 0.22238 0.7136 0.0
C373 C 0.83166 0.20805 0.72082 0.0
C374 C 0.84421 0.20993 0.73355 0.0
C375 C 0.85118 0.22622 0.73916 0.0
C376 C 0.84522 0.24059 0.73174 0.0
C377 C 0.83256 0.23868 0.71904 0.0
C378 C 0.79227 0.20479 0.70413 0.0
C379 C 0.78327 0.19365 0.69229 0.0
C380 C 0.77013 0.18196 0.69772 0.0
C381 C 0.76573 0.18132 0.71509 0.0
C382 C 0.77448 0.19288 0.72683 0.0
C383 C 0.78759 0.20459 0.72137 0.0
P384 P 0.59099 0.62143 0.61214 0.0
H385 H 0.58449 0.61976 0.64867 0.0
H386 H 0.55819 0.61548 0.6653 0.0
H387 H 0.5284 0.61225 0.61863 0.0
H388 H 0.55472 0.61681 0.60217 0.0
H389 H 0.62559 0.61176 0.60658 0.0
H390 H 0.63704 0.58444 0.60025 0.0
H391 H 0.58583 0.5592 0.60185 0.0
H392 H 0.57455 0.58652 0.60849 0.0
H393 H 0.58651 0.65645 0.6042 0.0
H394 H 0.58594 0.60807 0.57675 0.0
O395 O 0.60543 0.6341 0.62336 0.0
H396 H 0.57927 0.67001 0.57789 0.0
H397 H 0.5785 0.62147 0.55046 0.0
C398 C 0.57152 0.61894 0.62425 0.0
C399 C 0.57228 0.61831 0.64206 0.0
C400 C 0.55724 0.61574 0.65152 0.0
C401 C 0.54118 0.6136 0.64329 0.0
C402 C 0.54053 0.61417 0.62539 0.0
C403 C 0.55558 0.61674 0.61595 0.0
C404 C 0.59929 0.60111 0.60833 0.0
C405 C 0.61687 0.60031 0.60576 0.0
C406 C 0.62337 0.5847 0.602 0.0
C407 C 0.61235 0.56961 0.60058 0.0
C408 C 0.5947 0.57052 0.60315 0.0
C409 C 0.58822 0.58615 0.60691 0.0
C410 C 0.58704 0.63134 0.59237 0.0
C411 C 0.585 0.64879 0.59246 0.0
C412 C 0.58074 0.65649 0.57745 0.0
C413 C 0.57832 0.64682 0.56208 0.0
C414 C 0.58053 0.62932 0.56203 0.0
C415 C 0.58475 0.62163 0.57708 0.0
P416 P 0.57509 0.43642 0.92063 0.0
H417 H 0.61177 0.43937 0.92743 0.0
H418 H 0.63209 0.46337 0.93644 0.0
H419 H 0.59153 0.49696 0.93474 0.0
H420 H 0.57127 0.47286 0.92627 0.0
H421 H 0.57074 0.40039 0.92888 0.0
H422 H 0.56478 0.38595 0.95557 0.0
H423 H 0.56105 0.43464 0.9817 0.0
H424 H 0.56739 0.44897 0.95502 0.0
H425 H 0.57074 0.45035 0.88739 0.0
H426 H 0.53911 0.4385 0.93107 0.0
O427 O 0.58441 0.42324 0.9072 0.0
H428 H 0.54667 0.46188 0.87338 0.0
H429 H 0.51485 0.44967 0.91702 0.0
C430 C 0.59013 0.45441 0.92582 0.0
C431 C 0.60733 0.45195 0.92882 0.0
C432 C 0.61893 0.46569 0.93392 0.0
C433 C 0.61345 0.48211 0.93624 0.0
C434 C 0.59615 0.48447 0.93322 0.0
C435 C 0.58457 0.47071 0.92817 0.0
C436 C 0.56975 0.42574 0.94006 0.0
C437 C 0.56865 0.40795 0.94036 0.0
C438 C 0.56514 0.39971 0.95562 0.0
C439 C 0.56255 0.40915 0.97082 0.0
C440 C 0.56331 0.42701 0.97032 0.0
C441 C 0.56685 0.43522 0.95506 0.0
C442 C 0.55667 0.44341 0.91015 0.0
C443 C 0.55852 0.45 0.89384 0.0
C444 C 0.54473 0.45655 0.88585 0.0
C445 C 0.5288 0.45665 0.89406 0.0
C446 C 0.52699 0.44994 0.91042 0.0
C447 C 0.54083 0.44341 0.91842 0.0
P448 P 0.74221 0.27251 0.28808 0.0
H449 H 0.76205 0.28064 0.31907 0.0
H450 H 0.75427 0.28904 0.34814 0.0
H451 H 0.70078 0.28325 0.33369 0.0
H452 H 0.70866 0.27501 0.30465 0.0
H453 H 0.76877 0.26021 0.26616 0.0
H454 H 0.78308 0.23392 0.26519 0.0
H455 H 0.75134 0.21494 0.3066 0.0
H456 H 0.73691 0.24121 0.30729 0.0
H457 H 0.72629 0.29939 0.2714 0.0
H458 H 0.71784 0.24483 0.27429 0.0
O459 O 0.75671 0.288 0.28228 0.0
H460 H 0.7005 0.29961 0.25394 0.0
H461 H 0.6922 0.24485 0.25645 0.0
C462 C 0.73599 0.27743 0.30966 0.0
C463 C 0.74865 0.28109 0.32221 0.0
C464 C 0.74416 0.28578 0.33884 0.0
C465 C 0.72689 0.28687 0.3432 0.0
C466 C 0.7142 0.28274 0.33066 0.0
C467 C 0.71871 0.278 0.31404 0.0
C468 C 0.75205 0.25277 0.28702 0.0
C469 C 0.7649 0.25039 0.27503 0.0
C470 C 0.77312 0.23538 0.27453 0.0
C471 C 0.76849 0.22241 0.28594 0.0
C472 C 0.75517 0.22465 0.2976 0.0
C473 C 0.74699 0.2397 0.29809 0.0
C474 C 0.72415 0.27207 0.27382 0.0
C475 C 0.71905 0.28741 0.26797 0.0
C476 C 0.70431 0.28751 0.25795 0.0
C477 C 0.69432 0.27223 0.25369 0.0
C478 C 0.69953 0.25685 0.25959 0.0
C479 C 0.71429 0.25679 0.26965 0.0
P480 P 0.45806 0.04743 0.99168 0.0
H481 H 0.49328 0.04402 0.98188 0.0
H482 H 0.50795 0.04462 0.95444 0.0
H483 H 0.46079 0.05424 0.92939 0.0
H484 H 0.44614 0.05349 0.95698 0.0
H485 H 0.46588 0.05753 0.02716 0.0
H486 H 0.46936 0.08516 0.04234 0.0
H487 H 0.45981 0.10998 0.99541 0.0
H488 H 0.45664 0.0822 0.98023 0.0
H489 H 0.43969 0.01908 0.97276 0.0
H490 H 0.42709 0.06055 0.00638 0.0
O491 O 0.46685 0.03307 0.00321 0.0
H492 H 0.40959 0.00783 0.97206 0.0
H493 H 0.39703 0.04953 0.00553 0.0
C494 C 0.46857 0.04827 0.97135 0.0
C495 C 0.48609 0.04621 0.97047 0.0
C496 C 0.49449 0.04671 0.9548 0.0
C497 C 0.4855 0.04941 0.93974 0.0
C498 C 0.46798 0.05188 0.94074 0.0
C499 C 0.45961 0.05145 0.95648 0.0
C500 C 0.46136 0.06789 0.00253 0.0
C501 C 0.46471 0.06892 0.0201 0.0
C502 C 0.46652 0.08472 0.0288 0.0
C503 C 0.46486 0.09976 0.02008 0.0
C504 C 0.46141 0.09864 0.00244 0.0
C505 C 0.45958 0.0828 0.99375 0.0
C506 C 0.43562 0.04071 0.98947 0.0
C507 C 0.43039 0.02594 0.97971 0.0
C508 C 0.41318 0.01958 0.97926 0.0
C509 C 0.40094 0.0278 0.98875 0.0
C510 C 0.40619 0.04284 0.99821 0.0
C511 C 0.4234 0.04921 0.99861 0.0
O512 O 0.22153 0.87588 0.01237 0.0
Cd513 Cd 0.23001 0.89216 0.03246 0.0
Cd514 Cd 0.20832 0.91188 0.0172 0.0
O515 O 0.20223 0.89093 0.0012 0.0
O516 O 0.24476 0.8777 0.04519 0.0
O517 O 0.22177 0.88765 0.05652 0.0
C518 C 0.23469 0.87875 0.05804 0.0
C519 C 0.18808 0.92498 0.03329 0.0
C520 C 0.21005 0.87751 0.00122 0.0
C521 C 0.24493 0.92527 0.01801 0.0
O522 O 0.23024 0.92704 0.01182 0.0
O523 O 0.24715 0.91273 0.02724 0.0
O524 O 0.18925 0.92678 0.01702 0.0
O525 O 0.198 0.91497 0.04036 0.0
O526 O 0.14487 0.53511 0.27616 0.0
Cd527 Cd 0.12956 0.51419 0.28391 0.0
Cd528 Cd 0.10781 0.52361 0.26 0.0
O529 O 0.128 0.54134 0.25522 0.0
O530 O 0.14497 0.50044 0.29664 0.0
O531 O 0.13213 0.49134 0.27242 0.0
C532 C 0.14236 0.48871 0.28482 0.0
C533 C 0.09445 0.50913 0.23654 0.0
C534 C 0.14187 0.54421 0.26365 0.0
C535 C 0.09545 0.52381 0.29618 0.0
O536 O 0.09244 0.52739 0.28085 0.0
O537 O 0.10945 0.51792 0.30007 0.0
O538 O 0.09245 0.5249 0.24007 0.0
O539 O 0.10425 0.50144 0.24638 0.0
O540 O 0.74995 0.67178 0.99375 0.0
Cd541 Cd 0.74204 0.65512 0.01249 0.0
Cd542 Cd 0.76772 0.63834 0.00024 0.0
O543 O 0.77341 0.65995 0.98653 0.0
O544 O 0.72738 0.66811 0.02781 0.0
O545 O 0.75195 0.65923 0.03615 0.0
C546 C 0.73872 0.66737 0.03963 0.0
C547 C 0.78884 0.62651 0.01564 0.0
C548 C 0.76362 0.6718 0.98507 0.0
C549 C 0.73236 0.62096 0.99598 0.0
O550 O 0.74797 0.62117 0.99164 0.0
O551 O 0.72733 0.63301 0.00532 0.0
O552 O 0.78836 0.62551 0.99919 0.0
O553 O 0.77759 0.63491 0.02345 0.0
O554 O 0.89822 0.02562 0.28032 0.0
Cd555 Cd 0.88373 0.03257 0.26016 0.0
Cd556 Cd 0.86356 0.0414 0.28599 0.0
O557 O 0.88328 0.03554 0.30162 0.0
O558 O 0.89969 0.03127 0.24056 0.0
O559 O 0.89007 0.05536 0.2499 0.0
C560 C 0.89975 0.04753 0.23955 0.0
C561 C 0.85368 0.06835 0.28694 0.0
C562 C 0.89623 0.0284 0.29622 0.0
C563 C 0.84903 0.01346 0.26193 0.0
O564 O 0.84724 0.0215 0.27606 0.0
O565 O 0.86235 0.01669 0.25299 0.0
O566 O 0.84943 0.05748 0.29847 0.0
O567 O 0.86395 0.06399 0.27502 0.0
O568 O 0.25112 0.17193 0.49221 0.0
Cd569 Cd 0.24271 0.15577 0.51115 0.0
Cd570 Cd 0.26831 0.13814 0.49943 0.0
O571 O 0.27385 0.15903 0.48463 0.0
O572 O 0.22807 0.16939 0.52585 0.0
O573 O 0.25219 0.16017 0.53496 0.0
C574 C 0.23911 0.16868 0.53795 0.0
C575 C 0.28987 0.1268 0.51466 0.0
C576 C 0.26448 0.17123 0.48316 0.0
C577 C 0.23264 0.12113 0.49574 0.0
O578 O 0.24834 0.12073 0.49192 0.0
O579 O 0.22766 0.13381 0.50417 0.0
O580 O 0.28882 0.12514 0.49826 0.0
O581 O 0.27893 0.13555 0.5225 0.0
O582 O 0.4002 0.52508 0.78101 0.0
Cd583 Cd 0.38504 0.53293 0.76181 0.0
Cd584 Cd 0.36632 0.54176 0.7886 0.0
O585 O 0.38678 0.53558 0.80309 0.0
O586 O 0.39991 0.53231 0.74129 0.0
O587 O 0.39096 0.5561 0.75228 0.0
C588 C 0.39995 0.54863 0.74099 0.0
C589 C 0.35663 0.56879 0.79004 0.0
C590 C 0.39912 0.52791 0.79701 0.0
C591 C 0.35032 0.51423 0.76493 0.0
O592 O 0.3494 0.522 0.77934 0.0
O593 O 0.36313 0.51757 0.75531 0.0
O594 O 0.35304 0.55806 0.80186 0.0
O595 O 0.3662 0.56427 0.77758 0.0
O596 O 0.72384 0.37648 0.51239 0.0
Cd597 Cd 0.73242 0.39224 0.53279 0.0
Cd598 Cd 0.71123 0.41289 0.51783 0.0
O599 O 0.70531 0.39238 0.50117 0.0
O600 O 0.74603 0.37704 0.5459 0.0
O601 O 0.72337 0.38816 0.55662 0.0
C602 C 0.73573 0.37861 0.55849 0.0
C603 C 0.69039 0.42657 0.53254 0.0
C604 C 0.71272 0.37869 0.50105 0.0
C605 C 0.74824 0.42546 0.51956 0.0
O606 O 0.7336 0.42787 0.51365 0.0
O607 O 0.75024 0.41237 0.52808 0.0
O608 O 0.6927 0.42835 0.51639 0.0
O609 O 0.69946 0.41624 0.54027 0.0
O610 O 0.64414 0.03825 0.77705 0.0
Cd611 Cd 0.62888 0.01716 0.78455 0.0
Cd612 Cd 0.60721 0.02683 0.76085 0.0
O613 O 0.62719 0.04485 0.75634 0.0
O614 O 0.64445 0.00312 0.79672 0.0
O615 O 0.63129 0.99457 0.77251 0.0
C616 C 0.64172 0.99167 0.78464 0.0
C617 C 0.59427 0.01224 0.73724 0.0
C618 C 0.64107 0.04761 0.76476 0.0
C619 C 0.59472 0.02648 0.79696 0.0
O620 O 0.59177 0.03026 0.78168 0.0
O621 O 0.60873 0.02056 0.80081 0.0
O622 O 0.59194 0.02792 0.74083 0.0
O623 O 0.60415 0.00469 0.74713 0.0
O624 O 0.97808 0.26522 0.92546 0.0
Cd625 Cd 0.98708 0.24598 0.91049 0.0
Cd626 Cd 0.00311 0.27149 0.894 0.0
O627 O 0.99577 0.28551 0.91501 0.0
O628 O 0.98655 0.22541 0.92446 0.0
O629 O 0.01057 0.2394 0.91574 0.0
C630 C 0.00308 0.22719 0.92433 0.0
C631 C 0.03065 0.27692 0.883 0.0
C632 C 0.98439 0.28063 0.92574 0.0
C633 C 0.975 0.24971 0.87525 0.0
O634 O 0.98471 0.26351 0.87586 0.0
O635 O 0.9748 0.23968 0.88759 0.0
O636 O 0.01919 0.2875 0.88147 0.0
O637 O 0.02666 0.26335 0.89139 0.0
O638 O 0.47669 0.76569 0.42595 0.0
Cd639 Cd 0.48548 0.74613 0.41128 0.0
Cd640 Cd 0.50135 0.77134 0.39419 0.0
O641 O 0.49404 0.78586 0.41487 0.0
O642 O 0.48534 0.72608 0.42593 0.0
O643 O 0.50909 0.73964 0.41607 0.0
C644 C 0.50186 0.7278 0.42532 0.0
C645 C 0.52877 0.77678 0.38288 0.0
C646 C 0.48282 0.78114 0.4258 0.0
C647 C 0.47292 0.74916 0.37616 0.0
O648 O 0.48279 0.76286 0.37638 0.0
O649 O 0.47273 0.73939 0.38871 0.0
O650 O 0.51717 0.78718 0.38119 0.0
O651 O 0.52499 0.76337 0.39157 0.0
O652 O 0.98458 0.77879 0.67059 0.0
Cd653 Cd 0.00402 0.76981 0.65612 0.0
Cd654 Cd 0.99149 0.79008 0.63201 0.0
O655 O 0.97577 0.79637 0.65187 0.0
O656 O 0.01928 0.75973 0.67251 0.0
O657 O 0.02774 0.78192 0.65717 0.0
C658 C 0.03126 0.77109 0.66837 0.0
C659 C 0.00334 0.81164 0.61489 0.0
C660 C 0.97467 0.7899 0.66649 0.0
C661 C 0.99053 0.75244 0.62357 0.0
O662 O 0.98652 0.76691 0.61917 0.0
O663 O 0.99791 0.75087 0.63779 0.0
O664 O 0.98726 0.80659 0.61429 0.0
O665 O 0.01279 0.80478 0.62576 0.0
O666 O 0.48644 0.28265 0.16868 0.0
Cd667 Cd 0.50571 0.27313 0.15435 0.0
Cd668 Cd 0.49273 0.29209 0.12972 0.0
O669 O 0.47648 0.29855 0.14904 0.0
O670 O 0.52087 0.26355 0.1712 0.0
O671 O 0.52956 0.28498 0.15496 0.0
C672 C 0.53296 0.2746 0.16664 0.0
C673 C 0.5061 0.31356 0.11349 0.0
C674 C 0.47594 0.29299 0.16406 0.0
C675 C 0.49213 0.25446 0.12235 0.0
O676 O 0.4881 0.2687 0.11729 0.0
O677 O 0.49943 0.25351 0.13672 0.0
O678 O 0.49 0.30882 0.11181 0.0
O679 O 0.51467 0.3063 0.12481 0.0
H680 H 0.23609 0.77457 0.87535 0.0
H681 H 0.23021 0.78673 0.90365 0.0
H682 H 0.1972 0.82068 0.88098 0.0
H683 H 0.2031 0.80873 0.85268 0.0
H684 H 0.23806 0.82058 0.91326 0.0
H685 H 0.16859 0.80268 0.92112 0.0
H686 H 0.18136 0.79239 0.90539 0.0
H687 H 0.17388 0.81277 0.90141 0.0
C688 C 0.22749 0.78454 0.8764 0.0
C689 C 0.22008 0.79069 0.86174 0.0
C690 C 0.22405 0.79139 0.89258 0.0
C691 C 0.21308 0.80443 0.89444 0.0
C692 C 0.20536 0.81033 0.87989 0.0
H693 H 0.19149 0.87933 0.97176 0.0
H694 H 0.19104 0.85987 0.94673 0.0
C695 C 0.20878 0.80349 0.86371 0.0
C696 C 0.21104 0.81303 0.91133 0.0
H697 H 0.18139 0.82429 0.9405 0.0
C698 C 0.2257 0.8212 0.91934 0.0
C699 C 0.19487 0.81392 0.91914 0.0
C700 C 0.17878 0.80484 0.91141 0.0
C701 C 0.22461 0.8307 0.93468 0.0
C702 C 0.20843 0.83176 0.94242 0.0
C703 C 0.19376 0.82341 0.93455 0.0
C704 C 0.20658 0.84207 0.95835 0.0
C705 C 0.24073 0.84004 0.94214 0.0
C706 C 0.21486 0.83811 0.97338 0.0
C707 C 0.21523 0.84923 0.98766 0.0
C708 C 0.20719 0.86446 0.98721 0.0
C709 C 0.19787 0.86776 0.97252 0.0
C710 C 0.19759 0.85666 0.9582 0.0
H711 H 0.25127 0.84113 0.93268 0.0
H712 H 0.23832 0.85304 0.94686 0.0
H713 H 0.24511 0.83299 0.95309 0.0
H714 H 0.22158 0.82673 0.97385 0.0
H715 H 0.22235 0.84619 0.99883 0.0
H716 H 0.01781 0.56499 0.43007 0.0
H717 H 0.03291 0.5617 0.40313 0.0
H718 H 0.9919 0.52572 0.38436 0.0
H719 H 0.97699 0.52845 0.41157 0.0
H720 H 0.023 0.51372 0.38047 0.0
H721 H 0.02501 0.57872 0.35584 0.0
H722 H 0.03296 0.57871 0.37731 0.0
H723 H 0.01087 0.57166 0.37284 0.0
C724 C 0.01196 0.55643 0.42019 0.0
C725 C 0.99624 0.54692 0.423 0.0
C726 C 0.0205 0.55474 0.4047 0.0
C727 C 0.01341 0.54365 0.39165 0.0
C728 C 0.99751 0.53446 0.39423 0.0
H729 H 0.06376 0.53533 0.29239 0.0
H730 H 0.04251 0.5395 0.31461 0.0
C731 C 0.98897 0.53611 0.40974 0.0
C732 C 0.02334 0.54053 0.37599 0.0
H733 H 0.04531 0.56059 0.3438 0.0
C734 C 0.02768 0.52393 0.37232 0.0
C735 C 0.02926 0.55381 0.36523 0.0
C736 C 0.02413 0.57169 0.36789 0.0
C737 C 0.0384 0.52037 0.35861 0.0
C738 C 0.04522 0.53385 0.34854 0.0
C739 C 0.04026 0.55032 0.35171 0.0
C740 C 0.05799 0.53121 0.33506 0.0
C741 C 0.0424 0.50223 0.3551 0.0
C742 C 0.07381 0.5254 0.33928 0.0
C743 C 0.08595 0.52298 0.32665 0.0
C744 C 0.08257 0.52645 0.30956 0.0
C745 C 0.06677 0.53249 0.30542 0.0
C746 C 0.05461 0.53489 0.31808 0.0
H747 H 0.03243 0.49301 0.36043 0.0
H748 H 0.04347 0.4994 0.34119 0.0
H749 H 0.0548 0.50023 0.36123 0.0
H750 H 0.07681 0.52286 0.35238 0.0
H751 H 0.09802 0.51843 0.33031 0.0
H752 H 0.81695 0.77709 0.86986 0.0
H753 H 0.81165 0.75434 0.89014 0.0
H754 H 0.76239 0.77193 0.902 0.0
H755 H 0.76757 0.79469 0.88176 0.0
H756 H 0.80581 0.75752 0.92481 0.0
H757 H 0.75048 0.72121 0.89219 0.0
H758 H 0.7642 0.73721 0.88171 0.0
H759 H 0.74767 0.74336 0.89589 0.0
C760 C 0.80498 0.7761 0.87679 0.0
C761 C 0.79265 0.78766 0.87418 0.0
C762 C 0.80196 0.76307 0.88831 0.0
C763 C 0.78653 0.7613 0.89738 0.0
C764 C 0.7742 0.77281 0.89482 0.0
H765 H 0.74469 0.69805 0.97749 0.0
H766 H 0.75101 0.71979 0.95641 0.0
C767 C 0.77719 0.78582 0.88326 0.0
C768 C 0.78363 0.74785 0.91004 0.0
H769 H 0.75628 0.71376 0.92067 0.0
C770 C 0.79506 0.74786 0.92385 0.0
C771 C 0.76959 0.73528 0.90873 0.0
C772 C 0.75737 0.73411 0.89375 0.0
C773 C 0.79259 0.73589 0.93663 0.0
C774 C 0.77843 0.72348 0.93544 0.0
C775 C 0.76708 0.72336 0.92156 0.0
C776 C 0.77504 0.71058 0.94854 0.0
C777 C 0.80489 0.73685 0.95155 0.0
C778 C 0.78646 0.69818 0.95105 0.0
C779 C 0.7829 0.68571 0.96309 0.0
C780 C 0.7678 0.6854 0.97279 0.0
C781 C 0.75645 0.69793 0.97028 0.0
C782 C 0.76001 0.71035 0.95822 0.0
H783 H 0.81278 0.74928 0.95249 0.0
H784 H 0.79788 0.7349 0.96372 0.0
H785 H 0.81366 0.72665 0.94993 0.0
H786 H 0.798 0.698 0.9435 0.0
H787 H 0.79188 0.67622 0.96464 0.0
H788 H 0.00394 0.94728 0.37315 0.0
H789 H 0.98102 0.95987 0.35821 0.0
H790 H 0.99038 0.00592 0.38933 0.0
H791 H 0.01324 0.99338 0.40449 0.0
H792 H 0.95083 0.97361 0.37088 0.0
H793 H 0.99529 0.02195 0.33977 0.0
H794 H 0.00263 0.00368 0.34984 0.0
H795 H 0.99689 0.02161 0.36263 0.0
C796 C 0.00098 0.96 0.37699 0.0
C797 C 0.01049 0.96937 0.38994 0.0
C798 C 0.98792 0.96719 0.36839 0.0
C799 C 0.98419 0.98389 0.37252 0.0
C800 C 0.9933 0.99312 0.38575 0.0
H801 H 0.89554 0.03009 0.3313 0.0
H802 H 0.91651 0.02013 0.35101 0.0
C803 C 0.00636 0.98595 0.39436 0.0
C804 C 0.97103 0.99173 0.36265 0.0
H805 H 0.96578 0.0229 0.33448 0.0
C806 C 0.95404 0.98445 0.36299 0.0
C807 C 0.97535 0.00577 0.35227 0.0
C808 C 0.99354 0.01367 0.35093 0.0
C809 C 0.94123 0.99077 0.3531 0.0
C810 C 0.94555 0.00484 0.34276 0.0
C811 C 0.96251 0.01221 0.34255 0.0
C812 C 0.93296 0.0113 0.33109 0.0
C813 C 0.92332 0.98202 0.35333 0.0
C814 C 0.9355 0.00997 0.31342 0.0
C815 C 0.92363 0.01567 0.30217 0.0
C816 C 0.909 0.02292 0.30836 0.0
C817 C 0.90663 0.02452 0.32611 0.0
C818 C 0.91854 0.01876 0.33739 0.0
H819 H 0.92286 0.96948 0.35942 0.0
H820 H 0.91487 0.99015 0.36063 0.0
H821 H 0.91809 0.98006 0.34016 0.0
H822 H 0.94658 0.0043 0.30832 0.0
H823 H 0.92592 0.01429 0.28859 0.0
H824 H 0.23511 0.2642 0.67767 0.0
H825 H 0.24375 0.24391 0.65553 0.0
H826 H 0.19768 0.24993 0.62711 0.0
H827 H 0.18915 0.27037 0.64882 0.0
H828 H 0.22505 0.21235 0.642 0.0
H829 H 0.23749 0.26112 0.59323 0.0
H830 H 0.23615 0.2665 0.61574 0.0
H831 H 0.21696 0.26153 0.60327 0.0
C832 C 0.22686 0.26122 0.66666 0.0
C833 C 0.21145 0.26891 0.66499 0.0
C834 C 0.23177 0.24958 0.65411 0.0
C835 C 0.22144 0.24561 0.63963 0.0
C836 C 0.20592 0.25299 0.63811 0.0
H837 H 0.21246 0.1866 0.54757 0.0
H838 H 0.20994 0.20423 0.57344 0.0
C839 C 0.20099 0.26454 0.65062 0.0
C840 C 0.22678 0.23395 0.62586 0.0
H841 H 0.23481 0.2321 0.58312 0.0
C842 C 0.22747 0.21665 0.62916 0.0
C843 C 0.23001 0.23968 0.6092 0.0
C844 C 0.23029 0.25825 0.60513 0.0
C845 C 0.23036 0.20475 0.61594 0.0
C846 C 0.23278 0.21041 0.59914 0.0
C847 C 0.23283 0.22781 0.59603 0.0
C848 C 0.23403 0.19847 0.5843 0.0
C849 C 0.23003 0.18614 0.61984 0.0
C850 C 0.24838 0.18922 0.58194 0.0
C851 C 0.24988 0.17906 0.56708 0.0
C852 C 0.23708 0.17809 0.55438 0.0
C853 C 0.22257 0.18707 0.55706 0.0
C854 C 0.22109 0.19717 0.57184 0.0
H855 H 0.2256 0.18357 0.63302 0.0
H856 H 0.22151 0.17834 0.61068 0.0
H857 H 0.24311 0.18198 0.61841 0.0
H858 H 0.2586 0.19023 0.59133 0.0
H859 H 0.26124 0.17234 0.56536 0.0
H860 H 0.51027 0.62663 0.63873 0.0
H861 H 0.48376 0.62023 0.65469 0.0
H862 H 0.50945 0.58658 0.68617 0.0
H863 H 0.53588 0.5928 0.67029 0.0
H864 H 0.4654 0.58914 0.65797 0.0
H865 H 0.4865 0.61595 0.72148 0.0
H866 H 0.4982 0.62093 0.7022 0.0
H867 H 0.50089 0.60148 0.71281 0.0
C868 C 0.51026 0.61788 0.64907 0.0
C869 C 0.52521 0.61028 0.65329 0.0
C870 C 0.49514 0.61431 0.65822 0.0
C871 C 0.49473 0.60318 0.67181 0.0
C872 C 0.50961 0.59558 0.67603 0.0
H873 H 0.41869 0.53598 0.71509 0.0
H874 H 0.43951 0.55161 0.69717 0.0
C875 C 0.52471 0.59914 0.66693 0.0
C876 C 0.47855 0.59865 0.681 0.0
H877 H 0.46178 0.59548 0.72101 0.0
C878 C 0.46449 0.59077 0.67172 0.0
C879 C 0.47724 0.60108 0.69889 0.0
C880 C 0.49146 0.61049 0.70941 0.0
C881 C 0.44956 0.58433 0.68 0.0
C882 C 0.44881 0.58555 0.69802 0.0
C883 C 0.46243 0.59437 0.7072 0.0
C884 C 0.43479 0.57647 0.70771 0.0
C885 C 0.43485 0.576 0.66937 0.0
C886 C 0.42527 0.58523 0.71972 0.0
C887 C 0.41335 0.57628 0.73011 0.0
C888 C 0.41094 0.5584 0.72877 0.0
C889 C 0.42019 0.54974 0.71642 0.0
C890 C 0.43203 0.55868 0.70605 0.0
H891 H 0.43493 0.58111 0.65634 0.0
H892 H 0.43611 0.56212 0.66805 0.0
H893 H 0.42234 0.5779 0.67542 0.0
H894 H 0.42731 0.59896 0.72128 0.0
H895 H 0.40647 0.58331 0.73955 0.0
H896 H 0.80257 0.29808 0.66808 0.0
H897 H 0.78885 0.31952 0.65263 0.0
H898 H 0.73927 0.29346 0.66235 0.0
H899 H 0.75297 0.27158 0.67731 0.0
H900 H 0.74419 0.29841 0.62904 0.0
H901 H 0.76146 0.35924 0.66455 0.0
H902 H 0.77999 0.34803 0.66032 0.0
H903 H 0.76331 0.33883 0.67382 0.0
C904 C 0.78873 0.29702 0.66712 0.0
C905 C 0.77888 0.28304 0.67381 0.0
C906 C 0.78087 0.30944 0.6585 0.0
C907 C 0.763 0.30824 0.65652 0.0
C908 C 0.75307 0.29472 0.66386 0.0
H909 H 0.71735 0.37976 0.58835 0.0
H910 H 0.72122 0.36334 0.614 0.0
C911 C 0.76093 0.28227 0.67248 0.0
C912 C 0.75506 0.31964 0.64478 0.0
H913 H 0.75499 0.36131 0.63432 0.0
C914 C 0.74619 0.31217 0.63044 0.0
C915 C 0.75751 0.33761 0.64664 0.0
C916 C 0.76593 0.34639 0.66228 0.0
C917 C 0.74082 0.32213 0.61734 0.0
C918 C 0.74454 0.33998 0.61855 0.0
C919 C 0.75231 0.34758 0.63339 0.0
C920 C 0.74235 0.35053 0.60364 0.0
C921 C 0.73186 0.31345 0.60192 0.0
C922 C 0.75313 0.3489 0.58958 0.0
C923 C 0.75103 0.3582 0.57508 0.0
C924 C 0.73806 0.36936 0.5743 0.0
C925 C 0.72741 0.37122 0.58855 0.0
C926 C 0.72961 0.36191 0.60319 0.0
H927 H 0.72619 0.30043 0.60471 0.0
H928 H 0.72158 0.32099 0.59732 0.0
H929 H 0.74126 0.31235 0.59146 0.0
H930 H 0.76313 0.34028 0.58979 0.0
H931 H 0.7595 0.35648 0.56438 0.0
H932 H 0.51015 0.94987 0.60227 0.0
H933 H 0.53063 0.94982 0.62589 0.0
H934 H 0.50248 0.98565 0.6545 0.0
H935 H 0.48217 0.98602 0.63094 0.0
H936 H 0.55073 0.97846 0.63786 0.0
H937 H 0.51135 0.95065 0.6901 0.0
H938 H 0.50491 0.94812 0.66793 0.0
H939 H 0.50136 0.9673 0.68 0.0
C940 C 0.50827 0.95767 0.61364 0.0
C941 C 0.49456 0.96802 0.61469 0.0
C942 C 0.5199 0.95751 0.62716 0.0
C943 C 0.51792 0.96752 0.64203 0.0
C944 C 0.504 0.97748 0.64331 0.0
H945 H 0.57911 0.02661 0.71091 0.0
H946 H 0.5629 0.01227 0.68719 0.0
C947 C 0.4924 0.9777 0.6298 0.0
C948 C 0.5313 0.96913 0.65547 0.0
H949 H 0.53673 0.96882 0.69865 0.0
C950 C 0.5478 0.97597 0.65111 0.0
C951 C 0.52753 0.96566 0.67269 0.0
C952 C 0.51037 0.95735 0.67795 0.0
C953 C 0.5602 0.98068 0.66371 0.0
C954 C 0.55591 0.9786 0.68105 0.0
C955 C 0.5399 0.97053 0.68532 0.0
C956 C 0.56687 0.98685 0.69486 0.0
C957 C 0.57755 0.98855 0.65846 0.0
C958 C 0.57441 0.97724 0.70707 0.0
C959 C 0.58383 0.98544 0.72068 0.0
C960 C 0.5855 0.00333 0.72236 0.0
C961 C 0.57803 0.01282 0.70999 0.0
C962 C 0.56884 0.00466 0.69637 0.0
H963 H 0.58054 0.98482 0.64507 0.0
H964 H 0.57765 0.00263 0.65936 0.0
H965 H 0.58777 0.98475 0.66698 0.0
H966 H 0.57287 0.96346 0.70615 0.0
H967 H 0.58939 0.97782 0.73008 0.0
H968 H 0.87817 0.20696 0.74331 0.0
H969 H 0.89938 0.20929 0.76634 0.0
H970 H 0.87631 0.25256 0.78829 0.0
H971 H 0.85456 0.24985 0.76574 0.0
H972 H 0.92315 0.23519 0.77546 0.0
H973 H 0.87813 0.22214 0.82879 0.0
H974 H 0.87191 0.21836 0.80671 0.0
H975 H 0.87277 0.23951 0.81622 0.0
C976 C 0.87744 0.21683 0.75316 0.0
C977 C 0.86454 0.22812 0.75276 0.0
C978 C 0.88966 0.21822 0.76624 0.0
C979 C 0.88923 0.23089 0.77919 0.0
C980 C 0.87664 0.24244 0.77863 0.0
H981 H 0.97015 0.26976 0.84827 0.0
H982 H 0.94993 0.26405 0.82466 0.0
C983 C 0.86436 0.24102 0.76559 0.0
C984 C 0.90216 0.23221 0.7931 0.0
H985 H 0.90665 0.23279 0.83644 0.0
C986 C 0.91956 0.23456 0.78879 0.0
C987 C 0.89746 0.23106 0.81046 0.0
C988 C 0.87906 0.22745 0.81585 0.0
C989 C 0.93238 0.23627 0.80141 0.0
C990 C 0.92763 0.23598 0.81881 0.0
C991 C 0.91026 0.23316 0.82309 0.0
C992 C 0.9404 0.23905 0.83279 0.0
C993 C 0.95088 0.23819 0.79597 0.0
C994 C 0.94153 0.22702 0.84542 0.0
C995 C 0.95297 0.23031 0.8591 0.0
C996 C 0.96346 0.24574 0.86039 0.0
C997 C 0.96237 0.25769 0.84762 0.0
C998 C 0.95088 0.25441 0.83402 0.0
H999 H 0.95248 0.23292 0.7828 0.0
H1000 H 0.95546 0.25192 0.79612 0.0
H1001 H 0.9591 0.23171 0.80476 0.0
H1002 H 0.93347 0.21511 0.84475 0.0
H1003 H 0.95346 0.22085 0.86872 0.0
H1004 H 0.41514 0.9054 0.50548 0.0
H1005 H 0.41836 0.87867 0.48939 0.0
H1006 H 0.46364 0.8717 0.51878 0.0
H1007 H 0.46027 0.89805 0.53505 0.0
H1008 H 0.44387 0.87277 0.46917 0.0
H1009 H 0.44076 0.82442 0.51847 0.0
H1010 H 0.43408 0.84548 0.52254 0.0
H1011 H 0.45635 0.8417 0.52419 0.0
C1012 C 0.42558 0.89795 0.50869 0.0
C1013 C 0.4374 0.90374 0.52157 0.0
C1014 C 0.42739 0.88269 0.49953 0.0
C1015 C 0.44109 0.87301 0.50305 0.0
C1016 C 0.45266 0.87861 0.51618 0.0
H1017 H 0.49619 0.81388 0.43244 0.0
H1018 H 0.48466 0.83532 0.45123 0.0
C1019 C 0.45075 0.89374 0.52544 0.0
C1020 C 0.44448 0.85815 0.49184 0.0
H1021 H 0.45566 0.81735 0.49247 0.0
C1022 C 0.44616 0.86057 0.47425 0.0
C1023 C 0.44723 0.84212 0.49838 0.0
C1024 C 0.44432 0.83823 0.51691 0.0
C1025 C 0.4513 0.84769 0.46316 0.0
C1026 C 0.45539 0.83215 0.46991 0.0
C1027 C 0.45287 0.82939 0.48736 0.0
C1028 C 0.46274 0.81884 0.45914 0.0
C1029 C 0.45233 0.85092 0.4443 0.0
C1030 C 0.4547 0.80222 0.45797 0.0
C1031 C 0.46144 0.78983 0.44744 0.0
C1032 C 0.47632 0.79387 0.43787 0.0
C1033 C 0.4846 0.81041 0.43947 0.0
C1034 C 0.47795 0.82272 0.45011 0.0
H1035 H 0.44366 0.8606 0.44067 0.0
H1036 H 0.46559 0.85586 0.44112 0.0
H1037 H 0.44894 0.83906 0.43652 0.0
H1038 H 0.44303 0.79892 0.46496 0.0
H1039 H 0.45476 0.7772 0.44652 0.0
H1040 H 0.146 0.27807 0.76694 0.0
H1041 H 0.12688 0.2699 0.79049 0.0
H1042 H 0.1362 0.32034 0.81345 0.0
H1043 H 0.15565 0.32853 0.79016 0.0
H1044 H 0.13432 0.29225 0.8373 0.0
H1045 H 0.07947 0.29018 0.79179 0.0
H1046 H 0.09651 0.27738 0.78589 0.0
H1047 H 0.10041 0.30017 0.78687 0.0
C1048 C 0.1443 0.28731 0.7772 0.0
C1049 C 0.15218 0.30401 0.7766 0.0
C1050 C 0.1333 0.28264 0.79058 0.0
C1051 C 0.12999 0.29459 0.80356 0.0
C1052 C 0.13856 0.31097 0.80351 0.0
H1053 H 0.04247 0.30487 0.86573 0.0
H1054 H 0.06799 0.30836 0.84803 0.0
C1055 C 0.14954 0.31565 0.79013 0.0
C1056 C 0.11645 0.29061 0.81629 0.0
H1057 H 0.07306 0.28398 0.82027 0.0
C1058 C 0.12093 0.29028 0.83362 0.0
C1059 C 0.099 0.28827 0.81139 0.0
C1060 C 0.09345 0.28912 0.793 0.0
C1061 C 0.10831 0.28776 0.84623 0.0
C1062 C 0.09089 0.28552 0.8413 0.0
C1063 C 0.08647 0.28565 0.82396 0.0
C1064 C 0.07683 0.28403 0.85385 0.0
C1065 C 0.11357 0.28803 0.86475 0.0
C1066 C 0.07355 0.26928 0.86325 0.0
C1067 C 0.05889 0.26721 0.87343 0.0
C1068 C 0.0473 0.27984 0.87425 0.0
C1069 C 0.05108 0.29487 0.86535 0.0
C1070 C 0.06566 0.2969 0.85522 0.0
H1071 H 0.12739 0.29219 0.86662 0.0
H1072 H 0.10591 0.29668 0.87241 0.0
H1073 H 0.11102 0.27506 0.86974 0.0
H1074 H 0.08194 0.25912 0.86219 0.0
H1075 H 0.0563 0.25548 0.8801 0.0
H1076 H 0.55428 0.66952 0.55915 0.0
H1077 H 0.54468 0.6822 0.53324 0.0
H1078 H 0.58023 0.65495 0.50345 0.0
H1079 H 0.58994 0.64215 0.5294 0.0
H1080 H 0.563 0.70238 0.51014 0.0
H1081 H 0.53452 0.64198 0.4789 0.0
H1082 H 0.54059 0.64356 0.50116 0.0
H1083 H 0.55666 0.64231 0.48498 0.0
C1084 C 0.56019 0.66633 0.54712 0.0
C1085 C 0.57286 0.65481 0.54633 0.0
C1086 C 0.55463 0.67353 0.53231 0.0
C1087 C 0.56159 0.66935 0.51641 0.0
C1088 C 0.57445 0.65808 0.51556 0.0
H1089 H 0.53684 0.72914 0.42824 0.0
H1090 H 0.55335 0.71406 0.44848 0.0
C1091 C 0.57998 0.6508 0.53039 0.0
C1092 C 0.55522 0.67688 0.50082 0.0
H1093 H 0.53295 0.66707 0.46376 0.0
C1094 C 0.55657 0.69468 0.4999 0.0
C1095 C 0.54674 0.66676 0.48757 0.0
C1096 C 0.54437 0.6476 0.48817 0.0
C1097 C 0.54927 0.70268 0.48632 0.0
C1098 C 0.54067 0.69257 0.47313 0.0
C1099 C 0.53969 0.67476 0.47382 0.0
C1100 C 0.53115 0.70027 0.45945 0.0
C1101 C 0.55012 0.72188 0.48666 0.0
C1102 C 0.51331 0.69692 0.45838 0.0
C1103 C 0.50388 0.70536 0.44676 0.0
C1104 C 0.51212 0.71734 0.43596 0.0
C1105 C 0.5301 0.72007 0.43647 0.0
C1106 C 0.53955 0.71155 0.44809 0.0
H1107 H 0.5541 0.72759 0.49937 0.0
H1108 H 0.5596 0.72679 0.47714 0.0
H1109 H 0.5375 0.72624 0.48328 0.0
H1110 H 0.50658 0.68821 0.46698 0.0
H1111 H 0.49006 0.70289 0.44667 0.0
H1112 H 0.8504 0.84674 0.75299 0.0
H1113 H 0.87225 0.83945 0.7324 0.0
H1114 H 0.88511 0.79863 0.76385 0.0
H1115 H 0.86332 0.80582 0.78445 0.0
H1116 H 0.90702 0.83943 0.73805 0.0
H1117 H 0.87918 0.77498 0.71698 0.0
H1118 H 0.86701 0.78988 0.72864 0.0
H1119 H 0.88156 0.77767 0.73971 0.0
C1120 C 0.85785 0.83618 0.75548 0.0
C1121 C 0.85509 0.8268 0.77031 0.0
C1122 C 0.87028 0.832 0.74369 0.0
C1123 C 0.88012 0.81834 0.74647 0.0
C1124 C 0.87737 0.80894 0.76124 0.0
H1125 H 0.96676 0.7768 0.69767 0.0
H1126 H 0.94401 0.78436 0.71704 0.0
C1127 C 0.86492 0.81307 0.773 0.0
C1128 C 0.89382 0.81443 0.73437 0.0
H1129 H 0.90802 0.78273 0.70884 0.0
C1130 C 0.90718 0.82709 0.73155 0.0
C1131 C 0.89399 0.79829 0.72593 0.0
C1132 C 0.87959 0.78447 0.72782 0.0
C1133 C 0.92092 0.82392 0.72082 0.0
C1134 C 0.92118 0.80773 0.71257 0.0
C1135 C 0.90779 0.7951 0.71527 0.0
C1136 C 0.93524 0.80362 0.70102 0.0
C1137 C 0.93526 0.83776 0.71869 0.0
C1138 C 0.93778 0.81194 0.6856 0.0
C1139 C 0.95074 0.80765 0.67448 0.0
C1140 C 0.96138 0.79493 0.67858 0.0
C1141 C 0.95884 0.7867 0.69413 0.0
C1142 C 0.94583 0.79096 0.7052 0.0
H1143 H 0.93503 0.84802 0.72874 0.0
H1144 H 0.9479 0.83246 0.71905 0.0
H1145 H 0.93391 0.84352 0.7061 0.0
H1146 H 0.92955 0.82158 0.68204 0.0
H1147 H 0.95229 0.81421 0.6626 0.0
H1148 H 0.07939 0.89799 0.49411 0.0
H1149 H 0.07247 0.8819 0.51974 0.0
H1150 H 0.01861 0.88216 0.50861 0.0
H1151 H 0.02538 0.89775 0.48275 0.0
H1152 H 0.0524 0.89045 0.54833 0.0
H1153 H 0.02495 0.83155 0.51406 0.0
H1154 H 0.03787 0.84814 0.50357 0.0
H1155 H 0.01562 0.85035 0.50777 0.0
C1156 C 0.06607 0.89445 0.49702 0.0
C1157 C 0.05293 0.89905 0.48632 0.0
C1158 C 0.06216 0.88539 0.51173 0.0
C1159 C 0.04505 0.88066 0.51592 0.0
C1160 C 0.03191 0.88546 0.50544 0.0
H1161 H 0.98596 0.82931 0.59247 0.0
H1162 H 0.99773 0.84693 0.56964 0.0
C1163 C 0.0358 0.89452 0.49076 0.0
C1164 C 0.04083 0.87071 0.53124 0.0
H1165 H 0.01957 0.8337 0.54393 0.0
C1166 C 0.04539 0.87796 0.54742 0.0
C1167 C 0.0318 0.85438 0.52995 0.0
C1168 C 0.02741 0.84555 0.5129 0.0
C1169 C 0.04045 0.86958 0.56239 0.0
C1170 C 0.03088 0.85353 0.56106 0.0
C1171 C 0.0268 0.84608 0.54488 0.0
C1172 C 0.02418 0.84448 0.57619 0.0
C1173 C 0.04492 0.87816 0.57952 0.0
C1174 C 0.03521 0.83752 0.58763 0.0
C1175 C 0.0285 0.82739 0.60078 0.0
C1176 C 0.01068 0.82403 0.60257 0.0
C1177 C 0.99974 0.83158 0.59143 0.0
C1178 C 0.00643 0.84166 0.57836 0.0
H1179 H 0.04993 0.89169 0.57834 0.0
H1180 H 0.03352 0.87758 0.58792 0.0
H1181 H 0.05488 0.87137 0.5858 0.0
H1182 H 0.04896 0.83939 0.58601 0.0
H1183 H 0.03724 0.82169 0.60912 0.0
H1184 H 0.1722 0.79617 0.75473 0.0
H1185 H 0.14538 0.79706 0.73901 0.0
H1186 H 0.15059 0.74682 0.71734 0.0
H1187 H 0.1778 0.74604 0.73258 0.0
H1188 H 0.14057 0.7699 0.6935 0.0
H1189 H 0.10028 0.77026 0.75165 0.0
H1190 H 0.11751 0.78687 0.7516 0.0
H1191 H 0.1222 0.765 0.752 0.0
C1192 C 0.16778 0.78538 0.74646 0.0
C1193 C 0.17715 0.77101 0.74494 0.0
C1194 C 0.15234 0.78584 0.73763 0.0
C1195 C 0.14588 0.77191 0.72722 0.0
C1196 C 0.15532 0.75767 0.7254 0.0
H1197 H 0.04229 0.74893 0.69094 0.0
H1198 H 0.07044 0.7495 0.70435 0.0
C1199 C 0.17079 0.75719 0.73422 0.0
C1200 C 0.12919 0.77213 0.71835 0.0
H1201 H 0.08652 0.77453 0.72542 0.0
C1202 C 0.12873 0.7709 0.70045 0.0
C1203 C 0.11377 0.77325 0.72749 0.0
C1204 C 0.11336 0.77376 0.74675 0.0
C1205 C 0.11324 0.7709 0.6914 0.0
C1206 C 0.09787 0.77241 0.70054 0.0
C1207 C 0.09835 0.77354 0.71844 0.0
C1208 C 0.08101 0.77208 0.69187 0.0
C1209 C 0.11339 0.76886 0.6722 0.0
C1210 C 0.07755 0.78466 0.68043 0.0
C1211 C 0.06142 0.78435 0.67265 0.0
C1212 C 0.04845 0.77152 0.67631 0.0
C1213 C 0.05198 0.759 0.68783 0.0
C1214 C 0.06807 0.7593 0.69553 0.0
H1215 H 0.12536 0.7638 0.6675 0.0
H1216 H 0.10229 0.76019 0.66752 0.0
H1217 H 0.11248 0.78146 0.66658 0.0
H1218 H 0.08726 0.79484 0.67768 0.0
H1219 H 0.05908 0.79422 0.66391 0.0
H1220 H 0.94823 0.60937 0.54795 0.0
H1221 H 0.95168 0.63688 0.56339 0.0
H1222 H 0.98714 0.65626 0.52525 0.0
H1223 H 0.98429 0.62852 0.51006 0.0
H1224 H 0.99946 0.66259 0.55745 0.0
H1225 H 0.9335 0.68197 0.55327 0.0
H1226 H 0.93411 0.66114 0.56158 0.0
H1227 H 0.94085 0.66496 0.54001 0.0
C1228 C 0.95676 0.61948 0.54283 0.0
C1229 C 0.96604 0.61673 0.5278 0.0
C1230 C 0.95853 0.63527 0.55155 0.0
C1231 C 0.96946 0.64869 0.54533 0.0
C1232 C 0.97853 0.6461 0.53018 0.0
H1233 H 0.97707 0.75156 0.59126 0.0
H1234 H 0.9723 0.72692 0.57149 0.0
C1235 C 0.9768 0.63028 0.52147 0.0
C1236 C 0.97238 0.66496 0.55533 0.0
H1237 H 0.95184 0.69684 0.57449 0.0
C1238 C 0.98908 0.67018 0.56102 0.0
C1239 C 0.95886 0.67496 0.5598 0.0
C1240 C 0.94086 0.67058 0.5532 0.0
C1241 C 0.99253 0.68482 0.57156 0.0
C1242 C 0.97885 0.69426 0.57683 0.0
C1243 C 0.96226 0.68941 0.57063 0.0
C1244 C 0.9815 0.7091 0.58892 0.0
C1245 C 0.01081 0.69005 0.5769 0.0
C1246 C 0.98795 0.70715 0.60538 0.0
C1247 C 0.99075 0.7212 0.6167 0.0
C1248 C 0.98699 0.73744 0.61181 0.0
C1249 C 0.98014 0.73925 0.59543 0.0
C1250 C 0.9774 0.72519 0.58411 0.0
H1251 H 0.02006 0.68458 0.56802 0.0
H1252 H 0.01345 0.70413 0.57743 0.0
H1253 H 0.01306 0.68531 0.58979 0.0
H1254 H 0.99082 0.69475 0.60948 0.0
H1255 H 0.99591 0.71932 0.62925 0.0
H1256 H 0.73152 0.88991 0.24963 0.0
H1257 H 0.75165 0.91501 0.25527 0.0
H1258 H 0.77555 0.90678 0.20656 0.0
H1259 H 0.75568 0.88139 0.20096 0.0
H1260 H 0.79874 0.91349 0.23465 0.0
H1261 H 0.75093 0.96119 0.23205 0.0
H1262 H 0.74551 0.94406 0.24612 0.0
H1263 H 0.7467 0.93965 0.22354 0.0
C1264 C 0.74115 0.89335 0.24018 0.0
C1265 C 0.74199 0.88368 0.22483 0.0
C1266 C 0.75251 0.9078 0.24333 0.0
C1267 C 0.76488 0.91288 0.2312 0.0
C1268 C 0.76597 0.90313 0.216 0.0
H1269 H 0.8482 0.99416 0.23215 0.0
H1270 H 0.82765 0.97013 0.22383 0.0
C1271 C 0.75458 0.88869 0.2128 0.0
C1272 C 0.77691 0.92819 0.23457 0.0
H1273 H 0.77875 0.97119 0.24214 0.0
C1274 C 0.79442 0.92614 0.23616 0.0
C1275 C 0.77118 0.94462 0.23656 0.0
C1276 C 0.75258 0.94761 0.23434 0.0
C1277 C 0.80634 0.94006 0.24017 0.0
C1278 C 0.8006 0.95651 0.24228 0.0
C1279 C 0.7831 0.95857 0.24051 0.0
C1280 C 0.81251 0.97166 0.24679 0.0
C1281 C 0.82489 0.93696 0.24265 0.0
C1282 C 0.81042 0.9809 0.26215 0.0
C1283 C 0.82204 0.99474 0.26688 0.0
C1284 C 0.83597 0.99963 0.25631 0.0
C1285 C 0.8377 0.99066 0.24066 0.0
C1286 C 0.82603 0.97685 0.23592 0.0
H1287 H 0.82645 0.92334 0.24477 0.0
H1288 H 0.83219 0.94066 0.23104 0.0
H1289 H 0.83061 0.94472 0.25367 0.0
H1290 H 0.79999 0.97715 0.27066 0.0
H1291 H 0.82028 0.00138 0.27899 0.0
H1292 H 0.75496 0.18936 0.28874 0.0
H1293 H 0.7704 0.16373 0.28912 0.0
H1294 H 0.81823 0.19435 0.28298 0.0
H1295 H 0.80297 0.22006 0.28299 0.0
H1296 H 0.79218 0.15111 0.26357 0.0
H1297 H 0.82642 0.16609 0.32515 0.0
H1298 H 0.80813 0.17679 0.31881 0.0
H1299 H 0.82883 0.1826 0.30989 0.0
C1300 C 0.76878 0.19065 0.28764 0.0
C1301 C 0.77774 0.20676 0.28589 0.0
C1302 C 0.77756 0.176 0.28775 0.0
C1303 C 0.79546 0.17718 0.28628 0.0
C1304 C 0.80443 0.19319 0.28438 0.0
H1305 H 0.85802 0.09313 0.2633 0.0
H1306 H 0.84447 0.11993 0.26293 0.0
C1307 C 0.79567 0.20784 0.28421 0.0
C1308 C 0.80472 0.16162 0.28652 0.0
H1309 H 0.83417 0.142 0.30905 0.0
C1310 C 0.80137 0.1491 0.27349 0.0
C1311 C 0.81657 0.159 0.29958 0.0
C1312 C 0.82014 0.17174 0.31425 0.0
C1313 C 0.80967 0.13405 0.27311 0.0
C1314 C 0.82177 0.13157 0.286 0.0
C1315 C 0.82502 0.14404 0.2991 0.0
C1316 C 0.83064 0.11579 0.2865 0.0
C1317 C 0.80516 0.12074 0.25914 0.0
C1318 C 0.82774 0.10485 0.30011 0.0
C1319 C 0.83549 0.08959 0.30039 0.0
C1320 C 0.84638 0.08503 0.2871 0.0
C1321 C 0.84965 0.09625 0.2737 0.0
C1322 C 0.84185 0.11151 0.27341 0.0
H1323 H 0.79306 0.12293 0.25249 0.0
H1324 H 0.81558 0.12116 0.24957 0.0
H1325 H 0.80381 0.10779 0.26437 0.0
H1326 H 0.8192 0.10797 0.31037 0.0
H1327 H 0.83273 0.08128 0.31093 0.0
H1328 H 0.3811 0.02446 0.01717 0.0
H1329 H 0.35275 0.0092 0.01953 0.0
H1330 H 0.35197 0.99803 0.96527 0.0
H1331 H 0.38045 0.0133 0.96278 0.0
H1332 H 0.32101 0.01274 0.00432 0.0
H1333 H 0.34596 0.9509 0.98591 0.0
H1334 H 0.35988 0.96981 0.99122 0.0
H1335 H 0.34957 0.96731 0.97068 0.0
C1336 C 0.37478 0.01904 0.00567 0.0
C1337 C 0.38305 0.01999 0.98979 0.0
C1338 C 0.35861 0.01027 0.00706 0.0
C1339 C 0.3504 0.00228 0.99262 0.0
C1340 C 0.35826 0.00384 0.97662 0.0
H1341 H 0.24588 0.95198 0.99644 0.0
H1342 H 0.27074 0.97142 0.98933 0.0
C1343 C 0.3745 0.01255 0.97522 0.0
C1344 C 0.33409 0.99159 0.99463 0.0
H1345 H 0.31653 0.95041 0.99189 0.0
C1346 C 0.31994 0.99913 0.00149 0.0
C1347 C 0.33287 0.97382 0.99111 0.0
C1348 C 0.34789 0.9649 0.98446 0.0
C1349 C 0.30465 0.9893 0.00515 0.0
C1350 C 0.30346 0.97153 0.00163 0.0
C1351 C 0.3175 0.96406 0.9945 0.0
C1352 C 0.28818 0.96022 0.00616 0.0
C1353 C 0.29015 0.99789 0.01335 0.0
C1354 C 0.28981 0.94736 0.0178 0.0
C1355 C 0.27571 0.93617 0.02179 0.0
C1356 C 0.25967 0.93759 0.01418 0.0
C1357 C 0.25803 0.95059 0.0026 0.0
C1358 C 0.2722 0.96177 0.99857 0.0
H1359 H 0.29443 0.01085 0.01857 0.0
H1360 H 0.28004 0.9991 0.00365 0.0
H1361 H 0.28437 0.99022 0.02382 0.0
H1362 H 0.30205 0.94595 0.02378 0.0
H1363 H 0.27744 0.92633 0.03077 0.0
H1364 H 0.26407 0.4086 0.31056 0.0
H1365 H 0.23944 0.42305 0.30175 0.0
H1366 H 0.21157 0.37459 0.28911 0.0
H1367 H 0.23617 0.35992 0.29833 0.0
H1368 H 0.22161 0.42137 0.26972 0.0
H1369 H 0.18046 0.39845 0.3236 0.0
H1370 H 0.20333 0.39719 0.32363 0.0
H1371 H 0.18979 0.38273 0.31028 0.0
C1372 C 0.25268 0.40099 0.30599 0.0
C1373 C 0.25198 0.38312 0.30535 0.0
C1374 C 0.23867 0.40927 0.30082 0.0
C1375 C 0.22365 0.39988 0.29494 0.0
C1376 C 0.22301 0.38204 0.2938 0.0
H1377 H 0.14331 0.46318 0.26015 0.0
H1378 H 0.16058 0.4387 0.26051 0.0
C1379 C 0.23709 0.37371 0.29895 0.0
C1380 C 0.20862 0.40905 0.29069 0.0
H1381 H 0.17008 0.41902 0.30645 0.0
C1382 C 0.21016 0.42064 0.27749 0.0
C1383 C 0.19378 0.40806 0.30094 0.0
C1384 C 0.19165 0.39603 0.31549 0.0
C1385 C 0.19764 0.43194 0.27484 0.0
C1386 C 0.18315 0.43146 0.28558 0.0
C1387 C 0.18118 0.41925 0.29819 0.0
C1388 C 0.17133 0.44508 0.28561 0.0
C1389 C 0.20055 0.44504 0.26133 0.0
C1390 C 0.17129 0.4564 0.29979 0.0
C1391 C 0.1615 0.47029 0.29964 0.0
C1392 C 0.15146 0.47311 0.28531 0.0
C1393 C 0.15097 0.46137 0.27134 0.0
C1394 C 0.16086 0.44744 0.27149 0.0
H1395 H 0.21351 0.44508 0.25561 0.0
H1396 H 0.19092 0.44226 0.25098 0.0
H1397 H 0.19895 0.45797 0.2668 0.0
H1398 H 0.17928 0.45479 0.31081 0.0
H1399 H 0.1621 0.47901 0.31065 0.0
H1400 H 0.14613 0.98398 0.43936 0.0
H1401 H 0.16678 0.00759 0.44883 0.0
H1402 H 0.12532 0.03704 0.46414 0.0
H1403 H 0.10458 0.01367 0.45446 0.0
H1404 H 0.1692 0.04226 0.4377 0.0
H1405 H 0.15643 0.03764 0.50719 0.0
H1406 H 0.1501 0.02051 0.49195 0.0
H1407 H 0.13784 0.03864 0.49392 0.0
C1408 C 0.1414 0.99553 0.44462 0.0
C1409 C 0.1237 0.99691 0.44625 0.0
C1410 C 0.15321 0.00895 0.4501 0.0
C1411 C 0.14754 0.02391 0.45739 0.0
C1412 C 0.12992 0.02544 0.45885 0.0
H1413 H 0.19777 0.11864 0.49935 0.0
H1414 H 0.17721 0.09511 0.48962 0.0
C1415 C 0.11811 0.01206 0.45335 0.0
C1416 C 0.16005 0.03807 0.4632 0.0
H1417 H 0.17469 0.06133 0.49862 0.0
C1418 C 0.17048 0.04641 0.45102 0.0
C1419 C 0.16157 0.04344 0.48058 0.0
C1420 C 0.15101 0.03454 0.49423 0.0
C1421 C 0.18226 0.06024 0.45572 0.0
C1422 C 0.18386 0.06558 0.47312 0.0
C1423 C 0.17341 0.05721 0.4853 0.0
C1424 C 0.19637 0.07977 0.47897 0.0
C1425 C 0.19259 0.06925 0.44197 0.0
C1426 C 0.21395 0.0788 0.47643 0.0
C1427 C 0.22573 0.09223 0.4819 0.0
C1428 C 0.22014 0.10682 0.49018 0.0
C1429 C 0.20251 0.10761 0.49298 0.0
C1430 C 0.19074 0.09418 0.48744 0.0
H1431 H 0.18659 0.0667 0.42917 0.0
H1432 H 0.19407 0.08322 0.44461 0.0
H1433 H 0.20554 0.06462 0.44154 0.0
H1434 H 0.21859 0.06761 0.47028 0.0
H1435 H 0.23922 0.09113 0.47966 0.0
H1436 H 0.73472 0.17123 0.70009 0.0
H1437 H 0.71319 0.14908 0.70932 0.0
H1438 H 0.74497 0.13989 0.75239 0.0
H1439 H 0.76658 0.16195 0.74324 0.0
H1440 H 0.71753 0.11481 0.71333 0.0
H1441 H 0.69847 0.14529 0.77442 0.0
H1442 H 0.71038 0.15696 0.75825 0.0
H1443 H 0.7211 0.14384 0.77235 0.0
C1444 C 0.73712 0.16449 0.71153 0.0
C1445 C 0.75233 0.16837 0.72097 0.0
C1446 C 0.72478 0.15191 0.71682 0.0
C1447 C 0.72739 0.14303 0.73166 0.0
C1448 C 0.74254 0.14687 0.74112 0.0
H1449 H 0.67176 0.05789 0.78037 0.0
H1450 H 0.6928 0.08097 0.77219 0.0
C1451 C 0.75486 0.15947 0.73587 0.0
C1452 C 0.71461 0.12923 0.73681 0.0
H1453 H 0.68797 0.11637 0.76919 0.0
C1454 C 0.71098 0.11518 0.7255 0.0
C1455 C 0.70618 0.12975 0.75273 0.0
C1456 C 0.70908 0.14483 0.7651 0.0
C1457 C 0.69931 0.10149 0.72978 0.0
C1458 C 0.69088 0.10202 0.74568 0.0
C1459 C 0.69451 0.11603 0.75702 0.0
C1460 C 0.67807 0.0882 0.75068 0.0
C1461 C 0.69633 0.08643 0.71739 0.0
C1462 C 0.66276 0.08482 0.74142 0.0
C1463 C 0.65072 0.07168 0.74604 0.0
C1464 C 0.65375 0.06171 0.76007 0.0
C1465 C 0.66904 0.06529 0.76947 0.0
C1466 C 0.68107 0.07847 0.76484 0.0
H1467 H 0.70671 0.08613 0.70779 0.0
H1468 H 0.69538 0.07429 0.72422 0.0
H1469 H 0.68408 0.08725 0.71047 0.0
H1470 H 0.66009 0.0924 0.73063 0.0
H1471 H 0.63905 0.06934 0.73857 0.0
H1472 H 0.37841 0.0104 0.53907 0.0
H1473 H 0.35825 0.0321 0.53736 0.0
H1474 H 0.37821 0.05573 0.58457 0.0
H1475 H 0.39833 0.03382 0.58659 0.0
H1476 H 0.33277 0.04351 0.56093 0.0
H1477 H 0.38602 0.09307 0.54826 0.0
H1478 H 0.38878 0.07061 0.54664 0.0
H1479 H 0.38754 0.08108 0.56722 0.0
C1480 C 0.37827 0.01993 0.54934 0.0
C1481 C 0.39008 0.02041 0.56292 0.0
C1482 C 0.36678 0.03239 0.54829 0.0
C1483 C 0.36692 0.04561 0.56072 0.0
C1484 C 0.3781 0.04574 0.57472 0.0
H1485 H 0.29111 0.12113 0.54898 0.0
H1486 H 0.31014 0.10305 0.56347 0.0
C1487 C 0.3896 0.03324 0.57582 0.0
C1488 C 0.35608 0.05975 0.55824 0.0
H1489 H 0.358 0.10096 0.54593 0.0
C1490 C 0.33822 0.05618 0.55797 0.0
C1491 C 0.36332 0.0762 0.55426 0.0
C1492 C 0.38246 0.08056 0.55397 0.0
C1493 C 0.32741 0.06846 0.55318 0.0
C1494 C 0.33469 0.08473 0.54864 0.0
C1495 C 0.3525 0.08851 0.54956 0.0
C1496 C 0.32427 0.09707 0.5407 0.0
C1497 C 0.30836 0.06369 0.55204 0.0
C1498 C 0.32633 0.10009 0.52328 0.0
C1499 C 0.31555 0.11032 0.51501 0.0
C1500 C 0.30255 0.11785 0.52404 0.0
C1501 C 0.30102 0.11549 0.54169 0.0
C1502 C 0.31179 0.10511 0.54997 0.0
H1503 H 0.30497 0.04995 0.55415 0.0
H1504 H 0.30177 0.07121 0.56183 0.0
H1505 H 0.30341 0.06676 0.53933 0.0
H1506 H 0.33592 0.09402 0.51593 0.0
H1507 H 0.31712 0.11195 0.50143 0.0
H1508 H 0.63677 0.56355 0.57687 0.0
H1509 H 0.64784 0.53643 0.56896 0.0
H1510 H 0.61452 0.51111 0.60565 0.0
H1511 H 0.60341 0.5383 0.61378 0.0
H1512 H 0.66408 0.51417 0.58979 0.0
H1513 H 0.60378 0.48332 0.56067 0.0
H1514 H 0.60708 0.50598 0.56516 0.0
H1515 H 0.60231 0.49171 0.58219 0.0
C1516 C 0.63189 0.55226 0.58339 0.0
C1517 C 0.61919 0.5531 0.59596 0.0
C1518 C 0.63818 0.53676 0.5788 0.0
C1519 C 0.63187 0.52175 0.58659 0.0
C1520 C 0.61933 0.52251 0.59927 0.0
H1521 H 0.68613 0.42987 0.56721 0.0
H1522 H 0.67029 0.45101 0.58261 0.0
C1523 C 0.61301 0.53804 0.60389 0.0
C1524 C 0.63858 0.50541 0.58134 0.0
H1525 H 0.62775 0.46736 0.56021 0.0
C1526 C 0.65613 0.50383 0.5835 0.0
C1527 C 0.62814 0.49202 0.57306 0.0
C1528 C 0.6093 0.49329 0.56998 0.0
C1529 C 0.66365 0.48943 0.57715 0.0
C1530 C 0.65326 0.47614 0.56864 0.0
C1531 C 0.63562 0.4775 0.56689 0.0
C1532 C 0.66083 0.46173 0.55977 0.0
C1533 C 0.68278 0.48894 0.57885 0.0
C1534 C 0.66008 0.46025 0.54191 0.0
C1535 C 0.669 0.44819 0.53312 0.0
C1536 C 0.67883 0.43731 0.54203 0.0
C1537 C 0.67874 0.43811 0.55998 0.0
C1538 C 0.66979 0.45024 0.56879 0.0
H1539 H 0.68927 0.5015 0.58304 0.0
H1540 H 0.68552 0.47954 0.58845 0.0
H1541 H 0.68839 0.48494 0.56652 0.0
H1542 H 0.65318 0.46896 0.53471 0.0
H1543 H 0.6687 0.44785 0.51929 0.0
H1544 H 0.73987 0.27842 0.37392 0.0
H1545 H 0.73406 0.29064 0.40222 0.0
H1546 H 0.69799 0.32177 0.37996 0.0
H1547 H 0.70371 0.30961 0.35168 0.0
H1548 H 0.74021 0.32432 0.41136 0.0
H1549 H 0.67158 0.30355 0.42101 0.0
H1550 H 0.68435 0.29389 0.40486 0.0
H1551 H 0.67576 0.31384 0.4012 0.0
C1552 C 0.73059 0.28776 0.37508 0.0
C1553 C 0.72226 0.29306 0.36056 0.0
C1554 C 0.72722 0.29466 0.39126 0.0
C1555 C 0.71541 0.30694 0.39323 0.0
C1556 C 0.70681 0.31199 0.37881 0.0
H1557 H 0.69398 0.38119 0.47179 0.0
H1558 H 0.69336 0.36224 0.44633 0.0
C1559 C 0.71013 0.30506 0.36263 0.0
C1560 C 0.71338 0.31567 0.41007 0.0
H1561 H 0.68395 0.32576 0.43999 0.0
C1562 C 0.72794 0.32445 0.41772 0.0
C1563 C 0.69734 0.31594 0.41827 0.0
C1564 C 0.68139 0.30617 0.41101 0.0
C1565 C 0.72685 0.33385 0.43312 0.0
C1566 C 0.7108 0.33425 0.44125 0.0
C1567 C 0.69623 0.32538 0.43371 0.0
C1568 C 0.70903 0.34423 0.45739 0.0
C1569 C 0.74282 0.3437 0.44031 0.0
C1570 C 0.71747 0.33997 0.47222 0.0
C1571 C 0.7179 0.35076 0.48674 0.0
C1572 C 0.70982 0.36598 0.48673 0.0
C1573 C 0.70039 0.36961 0.47221 0.0
C1574 C 0.70001 0.3588 0.45765 0.0
H1575 H 0.7532 0.34507 0.4307 0.0
H1576 H 0.74004 0.35659 0.44503 0.0
H1577 H 0.7476 0.33687 0.45124 0.0
H1578 H 0.72426 0.32862 0.47233 0.0
H1579 H 0.72512 0.34747 0.49776 0.0
H1580 H 0.51731 0.0642 0.93214 0.0
H1581 H 0.53303 0.06132 0.90547 0.0
H1582 H 0.48954 0.03128 0.8829 0.0
H1583 H 0.47385 0.03373 0.90973 0.0
H1584 H 0.51988 0.01615 0.87937 0.0
H1585 H 0.52825 0.08299 0.85931 0.0
H1586 H 0.53481 0.08062 0.88098 0.0
H1587 H 0.51269 0.07579 0.87504 0.0
C1588 C 0.51105 0.05707 0.92146 0.0
C1589 C 0.49437 0.04914 0.92305 0.0
C1590 C 0.51998 0.0556 0.90618 0.0
C1591 C 0.51236 0.04627 0.89215 0.0
C1592 C 0.49557 0.03865 0.89355 0.0
H1593 H 0.56384 0.03972 0.79349 0.0
H1594 H 0.54258 0.04396 0.81568 0.0
C1595 C 0.48661 0.04014 0.90884 0.0
C1596 C 0.52248 0.04333 0.87659 0.0
H1597 H 0.54681 0.06378 0.84622 0.0
C1598 C 0.5256 0.02654 0.87198 0.0
C1599 C 0.52976 0.05689 0.86688 0.0
C1600 C 0.52608 0.07507 0.87068 0.0
C1601 C 0.53639 0.02301 0.85833 0.0
C1602 C 0.54446 0.03665 0.84924 0.0
C1603 C 0.54076 0.05337 0.85337 0.0
C1604 C 0.55719 0.03385 0.83578 0.0
C1605 C 0.53915 0.00472 0.85379 0.0
C1606 C 0.57251 0.02694 0.83982 0.0
C1607 C 0.58468 0.02451 0.82721 0.0
C1608 C 0.58179 0.02902 0.81032 0.0
C1609 C 0.56645 0.03606 0.80635 0.0
C1610 C 0.5543 0.03851 0.819 0.0
H1611 H 0.52863 0.99581 0.85864 0.0
H1612 H 0.5401 0.00261 0.83976 0.0
H1613 H 0.5513 0.00157 0.85968 0.0
H1614 H 0.57512 0.02357 0.85279 0.0
H1615 H 0.59638 0.01913 0.83073 0.0
H1616 H 0.27587 0.2989 0.38663 0.0
H1617 H 0.27011 0.27551 0.40606 0.0
H1618 H 0.31079 0.24947 0.38307 0.0
H1619 H 0.31653 0.2727 0.3634 0.0
H1620 H 0.26182 0.23985 0.39837 0.0
H1621 H 0.32291 0.25301 0.43466 0.0
H1622 H 0.3148 0.26831 0.42085 0.0
H1623 H 0.32492 0.25054 0.41189 0.0
C1624 C 0.28346 0.2881 0.38554 0.0
C1625 C 0.29672 0.28771 0.37351 0.0
C1626 C 0.2802 0.2748 0.39671 0.0
C1627 C 0.2902 0.26093 0.39615 0.0
C1628 C 0.30316 0.26025 0.38392 0.0
H1629 H 0.29066 0.17269 0.45997 0.0
H1630 H 0.29684 0.19393 0.43829 0.0
C1631 C 0.30642 0.27354 0.37271 0.0
C1632 C 0.28705 0.24722 0.40846 0.0
H1633 H 0.30486 0.22889 0.4422 0.0
C1634 C 0.27121 0.23742 0.40796 0.0
C1635 C 0.29939 0.24409 0.42088 0.0
C1636 C 0.31643 0.2546 0.42228 0.0
C1637 C 0.26738 0.22448 0.41954 0.0
C1638 C 0.27959 0.22155 0.43217 0.0
C1639 C 0.29553 0.23119 0.43252 0.0
C1640 C 0.27592 0.20879 0.44539 0.0
C1641 C 0.25038 0.21392 0.418 0.0
C1642 C 0.26233 0.21032 0.45678 0.0
C1643 C 0.25873 0.19821 0.46915 0.0
C1644 C 0.26877 0.18441 0.47047 0.0
C1645 C 0.28265 0.18313 0.45929 0.0
C1646 C 0.2862 0.19524 0.44688 0.0
H1647 H 0.24472 0.21444 0.40504 0.0
H1648 H 0.25172 0.20041 0.42082 0.0
H1649 H 0.24128 0.21896 0.4273 0.0
H1650 H 0.25449 0.22091 0.45612 0.0
H1651 H 0.24803 0.19967 0.47763 0.0
H1652 H 0.51914 0.45311 0.86047 0.0
H1653 H 0.49603 0.46611 0.84633 0.0
H1654 H 0.48197 0.48912 0.89437 0.0
H1655 H 0.50549 0.47667 0.90855 0.0
H1656 H 0.46107 0.46219 0.85252 0.0
H1657 H 0.4871 0.52968 0.86313 0.0
H1658 H 0.49984 0.51207 0.86621 0.0
H1659 H 0.48453 0.51752 0.88205 0.0
C1660 C 0.51127 0.46109 0.86801 0.0
C1661 C 0.51426 0.46396 0.88562 0.0
C1662 C 0.49799 0.46841 0.85993 0.0
C1663 C 0.48746 0.47878 0.86925 0.0
C1664 C 0.49016 0.48141 0.88689 0.0
H1665 H 0.40174 0.53201 0.83193 0.0
H1666 H 0.42245 0.52021 0.8507 0.0
C1667 C 0.50347 0.47411 0.895 0.0
C1668 C 0.47359 0.48663 0.86042 0.0
H1669 H 0.46018 0.52481 0.84937 0.0
C1670 C 0.46084 0.47588 0.85189 0.0
C1671 C 0.47329 0.50451 0.85968 0.0
C1672 C 0.48698 0.51666 0.86812 0.0
C1673 C 0.44792 0.48251 0.84246 0.0
C1674 C 0.44787 0.50035 0.84137 0.0
C1675 C 0.46029 0.51114 0.85028 0.0
C1676 C 0.43564 0.50795 0.83016 0.0
C1677 C 0.43445 0.47039 0.83364 0.0
C1678 C 0.4365 0.50523 0.81243 0.0
C1679 C 0.42481 0.51198 0.80171 0.0
C1680 C 0.41199 0.5216 0.8085 0.0
C1681 C 0.4114 0.52461 0.82629 0.0
C1682 C 0.4232 0.51789 0.83703 0.0
H1683 H 0.43369 0.45757 0.83916 0.0
H1684 H 0.42166 0.47535 0.83453 0.0
H1685 H 0.43772 0.46898 0.81993 0.0
H1686 H 0.4462 0.49782 0.80689 0.0
H1687 H 0.42572 0.50945 0.78809 0.0
H1688 H 0.73736 0.7812 0.1618 0.0
H1689 H 0.74622 0.76031 0.14059 0.0
H1690 H 0.70064 0.72742 0.15042 0.0
H1691 H 0.69198 0.74792 0.17211 0.0
H1692 H 0.73021 0.70976 0.14518 0.0
H1693 H 0.72115 0.75567 0.09439 0.0
H1694 H 0.73596 0.76326 0.11105 0.0
H1695 H 0.71366 0.75881 0.1159 0.0
C1696 C 0.72941 0.76936 0.15976 0.0
C1697 C 0.71384 0.76633 0.1685 0.0
C1698 C 0.73442 0.7575 0.14751 0.0
C1699 C 0.72392 0.74249 0.14372 0.0
C1700 C 0.70887 0.73899 0.15308 0.0
H1701 H 0.71116 0.68304 0.05096 0.0
H1702 H 0.70875 0.70014 0.0772 0.0
C1703 C 0.70387 0.7508 0.16536 0.0
C1704 C 0.72783 0.73103 0.12915 0.0
H1705 H 0.73037 0.7292 0.08568 0.0
C1706 C 0.73038 0.714 0.13217 0.0
C1707 C 0.72782 0.73659 0.11219 0.0
C1708 C 0.72436 0.75453 0.10809 0.0
C1709 C 0.73277 0.70232 0.11861 0.0
C1710 C 0.73275 0.70791 0.10167 0.0
C1711 C 0.73045 0.72499 0.09871 0.0
C1712 C 0.73397 0.69615 0.08666 0.0
C1713 C 0.7347 0.68399 0.12243 0.0
C1714 C 0.7489 0.68803 0.08337 0.0
C1715 C 0.75031 0.67814 0.06833 0.0
C1716 C 0.73685 0.67636 0.05632 0.0
C1717 C 0.72178 0.68418 0.05991 0.0
C1718 C 0.72038 0.69398 0.0749 0.0
H1719 H 0.73111 0.68106 0.13578 0.0
H1720 H 0.72667 0.67529 0.11361 0.0
H1721 H 0.74825 0.68136 0.12055 0.0
H1722 H 0.75964 0.68976 0.09217 0.0
H1723 H 0.76211 0.67233 0.06589 0.0
H1724 H 0.01246 0.09321 0.1312 0.0
H1725 H 0.98652 0.08646 0.14771 0.0
H1726 H 0.00751 0.11886 0.18948 0.0
H1727 H 0.0335 0.12584 0.17296 0.0
H1728 H 0.99582 0.08665 0.19912 0.0
H1729 H 0.94641 0.11404 0.16064 0.0
H1730 H 0.95934 0.10056 0.14828 0.0
H1731 H 0.96905 0.11998 0.15821 0.0
C1732 C 0.01143 0.09922 0.14375 0.0
C1733 C 0.02507 0.11008 0.15076 0.0
C1734 C 0.99656 0.09537 0.15316 0.0
C1735 C 0.99497 0.10237 0.16972 0.0
C1736 C 0.00844 0.1134 0.17667 0.0
H1737 H 0.90562 0.08211 0.23621 0.0
H1738 H 0.92809 0.09716 0.21919 0.0
C1739 C 0.02332 0.11728 0.16727 0.0
C1740 C 0.97996 0.0969 0.18028 0.0
H1741 H 0.9362 0.09342 0.18097 0.0
C1742 C 0.98281 0.08835 0.19527 0.0
C1743 C 0.96299 0.09925 0.17532 0.0
C1744 C 0.95923 0.10911 0.15982 0.0
C1745 C 0.96911 0.08142 0.20502 0.0
C1746 C 0.95215 0.08295 0.19955 0.0
C1747 C 0.94925 0.09215 0.185 0.0
C1748 C 0.93742 0.07418 0.20837 0.0
C1749 C 0.97286 0.0722 0.22097 0.0
C1750 C 0.93498 0.05637 0.20743 0.0
C1751 C 0.92221 0.04778 0.21703 0.0
C1752 C 0.91163 0.05685 0.22778 0.0
C1753 C 0.91358 0.07477 0.22808 0.0
C1754 C 0.92639 0.08338 0.21839 0.0
H1755 H 0.98625 0.07538 0.22547 0.0
H1756 H 0.96399 0.07538 0.23139 0.0
H1757 H 0.97096 0.05826 0.21823 0.0
H1758 H 0.94328 0.04908 0.19962 0.0
H1759 H 0.92101 0.03399 0.21642 0.0
H1760 H 0.25261 0.76707 0.17245 0.0
H1761 H 0.23934 0.78862 0.15661 0.0
H1762 H 0.28844 0.81745 0.15244 0.0
H1763 H 0.30173 0.79631 0.16882 0.0
H1764 H 0.26045 0.83797 0.15749 0.0
H1765 H 0.2487 0.78888 0.10496 0.0
H1766 H 0.2395 0.78354 0.12526 0.0
H1767 H 0.26237 0.78593 0.12294 0.0
C1768 C 0.26052 0.77822 0.16859 0.0
C1769 C 0.2783 0.77984 0.17169 0.0
C1770 C 0.25292 0.79046 0.15941 0.0
C1771 C 0.26297 0.80444 0.15309 0.0
C1772 C 0.28048 0.80669 0.15713 0.0
H1773 H 0.26172 0.86067 0.06447 0.0
H1774 H 0.26643 0.84379 0.08915 0.0
C1775 C 0.28808 0.79451 0.16635 0.0
C1776 C 0.25577 0.81577 0.14081 0.0
H1777 H 0.24143 0.81637 0.09971 0.0
C1778 C 0.25604 0.83326 0.14493 0.0
C1779 C 0.2502 0.80955 0.12438 0.0
C1780 C 0.25025 0.79099 0.11899 0.0
C1781 C 0.25129 0.84476 0.13286 0.0
C1782 C 0.24612 0.83855 0.11636 0.0
C1783 C 0.24531 0.82102 0.11245 0.0
C1784 C 0.24347 0.85004 0.10228 0.0
C1785 C 0.25259 0.86355 0.13748 0.0
C1786 C 0.22903 0.85929 0.10158 0.0
C1787 C 0.22624 0.86903 0.08737 0.0
C1788 C 0.23785 0.86954 0.0737 0.0
C1789 C 0.25247 0.86053 0.07472 0.0
C1790 C 0.25522 0.85086 0.08883 0.0
H1791 H 0.2582 0.86645 0.15039 0.0
H1792 H 0.26058 0.8707 0.12798 0.0
H1793 H 0.23964 0.86816 0.13717 0.0
H1794 H 0.21974 0.85866 0.1118 0.0
H1795 H 0.21485 0.87582 0.08693 0.0
H1796 H 0.00745 0.44752 0.10306 0.0
H1797 H 0.02824 0.4473 0.12639 0.0
H1798 H 0.00081 0.48341 0.15542 0.0
H1799 H 0.98016 0.48391 0.13215 0.0
H1800 H 0.04875 0.47564 0.13796 0.0
H1801 H 0.00998 0.44858 0.19097 0.0
H1802 H 0.00309 0.44608 0.16893 0.0
H1803 H 5e-05 0.46537 0.18106 0.0
C1804 C 0.00579 0.45533 0.11447 0.0
C1805 C 0.99219 0.4658 0.11572 0.0
C1806 C 0.0176 0.45508 0.12782 0.0
C1807 C 0.01592 0.46514 0.14272 0.0
C1808 C 0.00209 0.47521 0.14421 0.0
H1809 H 0.07931 0.52367 0.2103 0.0
H1810 H 0.06249 0.5095 0.1869 0.0
C1811 C 0.99031 0.47551 0.13087 0.0
C1812 C 0.02952 0.46667 0.15594 0.0
H1813 H 0.0357 0.46647 0.19903 0.0
C1814 C 0.04601 0.47325 0.15127 0.0
C1815 C 0.02602 0.46333 0.17324 0.0
C1816 C 0.00886 0.45527 0.17883 0.0
C1817 C 0.05869 0.47783 0.16363 0.0
C1818 C 0.05469 0.47589 0.18105 0.0
C1819 C 0.03866 0.46808 0.18564 0.0
C1820 C 0.06602 0.48401 0.19465 0.0
C1821 C 0.07604 0.4854 0.15804 0.0
C1822 C 0.07351 0.47431 0.20681 0.0
C1823 C 0.08329 0.48241 0.22024 0.0
C1824 C 0.08536 0.50029 0.2218 0.0
C1825 C 0.07793 0.50988 0.20947 0.0
C1826 C 0.06839 0.50181 0.19603 0.0
H1827 H 0.07874 0.48151 0.14462 0.0
H1828 H 0.07636 0.4995 0.15884 0.0
H1829 H 0.08634 0.48151 0.16642 0.0
H1830 H 0.07167 0.46053 0.206 0.0
H1831 H 0.0888 0.47471 0.22962 0.0
H1832 H 0.35629 0.70153 0.26303 0.0
H1833 H 0.37702 0.70485 0.28657 0.0
H1834 H 0.39222 0.75618 0.27194 0.0
H1835 H 0.37142 0.75299 0.24846 0.0
H1836 H 0.41189 0.71171 0.28569 0.0
H1837 H 0.38247 0.76279 0.32241 0.0
H1838 H 0.3714 0.75055 0.3052 0.0
H1839 H 0.38694 0.76799 0.30068 0.0
C1840 C 0.36407 0.71351 0.26482 0.0
C1841 C 0.3622 0.72703 0.25394 0.0
C1842 C 0.37586 0.7154 0.27829 0.0
C1843 C 0.38596 0.73084 0.28116 0.0
C1844 C 0.38425 0.7443 0.27021 0.0
H1845 H 0.46838 0.76862 0.34867 0.0
H1846 H 0.44749 0.76307 0.32556 0.0
C1847 C 0.37239 0.74245 0.25679 0.0
C1848 C 0.39858 0.73273 0.29535 0.0
H1849 H 0.41052 0.7571 0.33095 0.0
C1850 C 0.41153 0.72154 0.29567 0.0
C1851 C 0.39801 0.74552 0.30839 0.0
C1852 C 0.38386 0.75729 0.3093 0.0
C1853 C 0.42421 0.72312 0.30843 0.0
C1854 C 0.42383 0.73614 0.32122 0.0
C1855 C 0.41078 0.74719 0.32104 0.0
C1856 C 0.43705 0.7388 0.33475 0.0
C1857 C 0.43819 0.71117 0.30795 0.0
C1858 C 0.43809 0.72692 0.34753 0.0
C1859 C 0.45 0.73007 0.36084 0.0
C1860 C 0.46104 0.74516 0.36156 0.0
C1861 C 0.46011 0.75686 0.34852 0.0
C1862 C 0.44817 0.75374 0.3353 0.0
H1863 H 0.43838 0.70379 0.29563 0.0
H1864 H 0.45091 0.71835 0.31005 0.0
H1865 H 0.43613 0.70204 0.31836 0.0
H1866 H 0.42945 0.71541 0.3474 0.0
H1867 H 0.45035 0.72081 0.37069 0.0
H1868 H 0.95943 0.39713 0.03627 0.0
H1869 H 0.96431 0.37138 0.01953 0.0
H1870 H 0.91915 0.37698 0.98944 0.0
H1871 H 0.9144 0.40309 0.00598 0.0
H1872 H 0.94665 0.34089 0.0124 0.0
H1873 H 0.95598 0.37771 0.95348 0.0
H1874 H 0.95422 0.38786 0.97428 0.0
H1875 H 0.93534 0.3787 0.96311 0.0
C1876 C 0.95034 0.3927 0.02631 0.0
C1877 C 0.9366 0.40218 0.02235 0.0
C1878 C 0.95318 0.37801 0.01672 0.0
C1879 C 0.94231 0.37246 0.00301 0.0
C1880 C 0.92795 0.38129 0.99968 0.0
H1881 H 0.9556 0.27698 0.94545 0.0
H1882 H 0.94432 0.29845 0.96453 0.0
C1883 C 0.92521 0.39614 0.00917 0.0
C1884 C 0.94678 0.3581 0.99168 0.0
H1885 H 0.95825 0.34821 0.95081 0.0
C1886 C 0.9491 0.34243 0.99891 0.0
C1887 C 0.95023 0.36026 0.97413 0.0
C1888 C 0.94898 0.37706 0.96578 0.0
C1889 C 0.95503 0.32892 0.98912 0.0
C1890 C 0.9583 0.33105 0.97155 0.0
C1891 C 0.95567 0.34661 0.96428 0.0
C1892 C 0.96528 0.31768 0.96055 0.0
C1893 C 0.95836 0.31279 0.99786 0.0
C1894 C 0.98065 0.32143 0.95174 0.0
C1895 C 0.98697 0.30931 0.94063 0.0
C1896 C 0.97809 0.29313 0.93817 0.0
C1897 C 0.96282 0.28928 0.94719 0.0
C1898 C 0.9564 0.30151 0.95818 0.0
H1899 H 0.95955 0.31487 0.01192 0.0
H1900 H 0.9475 0.30303 0.99526 0.0
H1901 H 0.97024 0.30769 0.993 0.0
H1902 H 0.98771 0.33383 0.95336 0.0
H1903 H 0.99878 0.31267 0.93391 0.0
H1904 H 0.64219 0.77764 0.26538 0.0
H1905 H 0.6228 0.76988 0.28881 0.0
H1906 H 0.6362 0.8188 0.31386 0.0
H1907 H 0.656 0.82651 0.29071 0.0
H1908 H 0.63227 0.79019 0.33646 0.0
H1909 H 0.57741 0.79324 0.29183 0.0
H1910 H 0.5932 0.77925 0.28518 0.0
H1911 H 0.59886 0.80181 0.28685 0.0
C1912 C 0.64134 0.7866 0.27606 0.0
C1913 C 0.6505 0.80277 0.27609 0.0
C1914 C 0.63016 0.78219 0.28937 0.0
C1915 C 0.62791 0.79387 0.30291 0.0
C1916 C 0.63772 0.80964 0.30347 0.0
H1917 H 0.54058 0.80486 0.36581 0.0
H1918 H 0.566 0.80843 0.34798 0.0
C1919 C 0.6489 0.81407 0.29017 0.0
C1920 C 0.6143 0.79032 0.31568 0.0
H1921 H 0.57085 0.78574 0.31998 0.0
C1922 C 0.61883 0.7891 0.3329 0.0
C1923 C 0.5968 0.78913 0.31095 0.0
C1924 C 0.59118 0.79105 0.29274 0.0
C1925 C 0.60624 0.78674 0.34557 0.0
C1926 C 0.58877 0.78553 0.34079 0.0
C1927 C 0.58429 0.78662 0.32356 0.0
C1928 C 0.57476 0.78397 0.35343 0.0
C1929 C 0.61166 0.78606 0.36398 0.0
C1930 C 0.57145 0.76912 0.36268 0.0
C1931 C 0.55687 0.76702 0.37296 0.0
C1932 C 0.54535 0.7797 0.37401 0.0
C1933 C 0.54913 0.79481 0.36524 0.0
C1934 C 0.56366 0.79689 0.35504 0.0
H1935 H 0.62547 0.79021 0.36587 0.0
H1936 H 0.60403 0.79424 0.37223 0.0
H1937 H 0.60928 0.7728 0.36824 0.0
H1938 H 0.57975 0.7589 0.36142 0.0
H1939 H 0.55427 0.75522 0.37951 0.0
H1940 H 0.09422 0.17057 0.04255 0.0
H1941 H 0.08304 0.18371 0.01742 0.0
H1942 H 0.04102 0.14455 0.01426 0.0
H1943 H 0.05189 0.13149 0.03945 0.0
H1944 H 0.07321 0.16758 0.98226 0.0
H1945 H 0.02003 0.19223 0.01986 0.0
H1946 H 0.03925 0.18604 0.02974 0.0
H1947 H 0.02308 0.17007 0.02198 0.0
C1948 C 0.08263 0.16474 0.03646 0.0
C1949 C 0.07389 0.15003 0.04303 0.0
C1950 C 0.07635 0.17218 0.02206 0.0
C1951 C 0.06118 0.16512 0.01411 0.0
C1952 C 0.05272 0.15019 0.0203 0.0
H1953 H 0.9913 0.19818 0.94 0.0
H1954 H 0.00663 0.18221 0.96025 0.0
C1955 C 0.05901 0.1427 0.03462 0.0
C1956 C 0.0536 0.17384 -5e-05 0.0
H1957 H 0.01961 0.19584 0.99016 0.0
C1958 C 0.06152 0.17382 0.98393 0.0
C1959 C 0.03839 0.18195 0.00227 0.0
C1960 C 0.02969 0.18275 0.0194 0.0
C1961 C 0.05433 0.18138 0.96995 0.0
C1962 C 0.03902 0.18942 0.97225 0.0
C1963 C 0.03127 0.18957 0.98838 0.0
C1964 C 0.03066 0.1978 0.95824 0.0
C1965 C 0.0629 0.18031 0.95279 0.0
C1966 C 0.03916 0.21169 0.9501 0.0
C1967 C 0.03045 0.22078 0.93837 0.0
C1968 C 0.01301 0.21628 0.93479 0.0
C1969 C 0.00471 0.20202 0.94253 0.0
C1970 C 0.01345 0.19287 0.95411 0.0
H1971 H 0.07154 0.16989 0.95208 0.0
H1972 H 0.05329 0.1782 0.94234 0.0
H1973 H 0.07074 0.19246 0.95067 0.0
H1974 H 0.05232 0.21595 0.95335 0.0
H1975 H 0.03716 0.23178 0.93271 0.0
H1976 H 0.38461 0.3459 0.28642 0.0
H1977 H 0.40501 0.33888 0.26435 0.0
H1978 H 0.3637 0.31436 0.23347 0.0
H1979 H 0.34315 0.32133 0.25556 0.0
H1980 H 0.39096 0.29498 0.23581 0.0
H1981 H 0.41341 0.36071 0.21851 0.0
H1982 H 0.41514 0.35733 0.24094 0.0
H1983 H 0.39435 0.35587 0.23095 0.0
C1984 C 0.37983 0.33923 0.27483 0.0
C1985 C 0.36225 0.33427 0.27268 0.0
C1986 C 0.3915 0.33525 0.26222 0.0
C1987 C 0.38584 0.32637 0.24714 0.0
C1988 C 0.36832 0.3213 0.24498 0.0
H1989 H 0.4501 0.31316 0.15792 0.0
H1990 H 0.42767 0.32092 0.17756 0.0
C1991 C 0.35662 0.32523 0.25763 0.0
C1992 C 0.39831 0.32181 0.23397 0.0
H1993 H 0.43023 0.33867 0.20843 0.0
C1994 C 0.39946 0.30453 0.22972 0.0
C1995 C 0.40922 0.33431 0.22587 0.0
C1996 C 0.40789 0.3531 0.22915 0.0
C1997 C 0.41158 0.29937 0.21794 0.0
C1998 C 0.42306 0.31183 0.21048 0.0
C1999 C 0.42156 0.32914 0.21434 0.0
C2000 C 0.43674 0.30718 0.19868 0.0
C2001 C 0.41189 0.28064 0.21349 0.0
C2002 C 0.44944 0.29713 0.20414 0.0
C2003 C 0.46225 0.29262 0.19295 0.0
C2004 C 0.46269 0.29822 0.1761 0.0
C2005 C 0.45013 0.30859 0.17079 0.0
C2006 C 0.4373 0.31305 0.18199 0.0
H2007 H 0.39949 0.27339 0.21642 0.0
H2008 H 0.41476 0.27849 0.19976 0.0
H2009 H 0.42202 0.27543 0.22112 0.0
H2010 H 0.44948 0.2928 0.2171 0.0
H2011 H 0.47179 0.28473 0.19751 0.0
H2012 H 0.57519 0.41879 0.00268 0.0
H2013 H 0.56935 0.40441 0.0295 0.0
H2014 H 0.53654 0.36544 0.00268 0.0
H2015 H 0.54209 0.37981 0.97589 0.0
H2016 H 0.53764 0.39685 0.04529 0.0
H2017 H 0.56913 0.3382 0.02964 0.0
H2018 H 0.57298 0.35735 0.01774 0.0
H2019 H 0.55411 0.34306 0.0136 0.0
C2020 C 0.56665 0.40721 0.0025 0.0
C2021 C 0.55914 0.40042 0.98712 0.0
C2022 C 0.56343 0.39896 0.01781 0.0
C2023 C 0.55276 0.38372 0.018 0.0
C2024 C 0.54515 0.37698 0.00273 0.0
H2025 H 0.49053 0.33309 0.09134 0.0
H2026 H 0.50401 0.35191 0.07031 0.0
C2027 C 0.54833 0.38521 0.98743 0.0
C2028 C 0.54896 0.37516 0.03424 0.0
H2029 H 0.54954 0.3369 0.0531 0.0
C2030 C 0.54045 0.38382 0.04712 0.0
C2031 C 0.55293 0.35828 0.03673 0.0
C2032 C 0.56295 0.34872 0.02377 0.0
C2033 C 0.53493 0.3757 0.06204 0.0
C2034 C 0.53783 0.35844 0.06397 0.0
C2035 C 0.5472 0.3501 0.05153 0.0
C2036 C 0.52995 0.34835 0.07794 0.0
C2037 C 0.52579 0.38558 0.07546 0.0
C2038 C 0.54007 0.33999 0.08918 0.0
C2039 C 0.53237 0.32914 0.10125 0.0
C2040 C 0.51443 0.32631 0.10209 0.0
C2041 C 0.50438 0.335 0.09105 0.0
C2042 C 0.51206 0.34588 0.07909 0.0
H2043 H 0.52936 0.39949 0.07478 0.0
H2044 H 0.51177 0.3833 0.07332 0.0
H2045 H 0.52872 0.38151 0.08848 0.0
H2046 H 0.55391 0.34164 0.08838 0.0
H2047 H 0.54045 0.32257 0.10954 0.0
H2048 H 0.68861 0.29136 0.22605 0.0
H2049 H 0.66163 0.29299 0.21067 0.0
H2050 H 0.63685 0.255 0.24276 0.0
H2051 H 0.66356 0.25373 0.25859 0.0
H2052 H 0.64109 0.2679 0.19252 0.0
H2053 H 0.60595 0.29384 0.24743 0.0
H2054 H 0.62892 0.29335 0.24746 0.0
H2055 H 0.61525 0.27447 0.25181 0.0
C2056 C 0.67738 0.28346 0.22993 0.0
C2057 C 0.67822 0.27251 0.24365 0.0
C2058 C 0.66201 0.28433 0.22106 0.0
C2059 C 0.64718 0.27435 0.22577 0.0
C2060 C 0.64807 0.26307 0.23913 0.0
H2061 H 0.54295 0.25504 0.19214 0.0
H2062 H 0.57111 0.25582 0.2056 0.0
C2063 C 0.66342 0.2622 0.24803 0.0
C2064 C 0.63077 0.27565 0.2167 0.0
H2065 H 0.58929 0.28425 0.22295 0.0
C2066 C 0.62979 0.27162 0.19911 0.0
C2067 C 0.61609 0.2806 0.22534 0.0
C2068 C 0.61659 0.28598 0.24401 0.0
C2069 C 0.61432 0.27181 0.19006 0.0
C2070 C 0.59957 0.27637 0.1988 0.0
C2071 C 0.60064 0.28071 0.2163 0.0
C2072 C 0.58267 0.27597 0.19025 0.0
C2073 C 0.61373 0.26661 0.17135 0.0
C2074 C 0.5798 0.28715 0.17721 0.0
C2075 C 0.56365 0.28677 0.16946 0.0
C2076 C 0.55012 0.2752 0.17467 0.0
C2077 C 0.55308 0.26408 0.18778 0.0
C2078 C 0.56917 0.26451 0.19552 0.0
H2079 H 0.62526 0.2603 0.16733 0.0
H2080 H 0.60216 0.25782 0.16837 0.0
H2081 H 0.61307 0.27809 0.16368 0.0
H2082 H 0.59 0.29628 0.17315 0.0
H2083 H 0.56176 0.29553 0.15944 0.0
H2084 H 0.4818 0.12958 0.00993 0.0
H2085 H 0.48562 0.15685 0.02601 0.0
H2086 H 0.45626 0.13494 0.06753 0.0
H2087 H 0.45194 0.10782 0.05137 0.0
H2088 H 0.44762 0.1675 0.0592 0.0
H2089 H 0.51785 0.16555 0.06756 0.0
H2090 H 0.51031 0.16348 0.04586 0.0
H2091 H 0.50395 0.14714 0.06054 0.0
C2092 C 0.47599 0.13063 0.0224 0.0
C2093 C 0.46669 0.1165 0.02945 0.0
C2094 C 0.47833 0.14616 0.03162 0.0
C2095 C 0.47145 0.14779 0.04805 0.0
C2096 C 0.46177 0.13387 0.05491 0.0
H2097 H 0.49856 0.22186 0.12915 0.0
H2098 H 0.49298 0.19635 0.1107 0.0
C2099 C 0.45943 0.11837 0.04572 0.0
C2100 C 0.4745 0.1639 0.05826 0.0
H2101 H 0.50593 0.1903 0.07805 0.0
C2102 C 0.46036 0.17255 0.06329 0.0
C2103 C 0.49113 0.17027 0.06372 0.0
C2104 C 0.5067 0.16109 0.0593 0.0
C2105 C 0.46241 0.18746 0.07366 0.0
C2106 C 0.47906 0.19395 0.07892 0.0
C2107 C 0.49319 0.18531 0.07389 0.0
C2108 C 0.48209 0.20945 0.09008 0.0
C2109 C 0.44671 0.19588 0.07926 0.0
C2110 C 0.4779 0.22527 0.08453 0.0
C2111 C 0.48103 0.23988 0.09506 0.0
C2112 C 0.48851 0.23894 0.1113 0.0
C2113 C 0.49276 0.22305 0.11677 0.0
C2114 C 0.4896 0.20846 0.10623 0.0
H2115 H 0.43483 0.18718 0.07752 0.0
H2116 H 0.44779 0.20021 0.09288 0.0
H2117 H 0.44546 0.2072 0.07151 0.0
H2118 H 0.47238 0.22634 0.07198 0.0
H2119 H 0.4777 0.25193 0.09041 0.0
H2120 H 0.2566 0.38375 0.70311 0.0
H2121 H 0.27672 0.40864 0.70997 0.0
H2122 H 0.25432 0.41321 0.75993 0.0
H2123 H 0.23421 0.38837 0.7532 0.0
H2124 H 0.26961 0.44159 0.71881 0.0
H2125 H 0.30519 0.41417 0.77088 0.0
H2126 H 0.29122 0.40122 0.75632 0.0
H2127 H 0.28244 0.41269 0.77397 0.0
C2128 C 0.25598 0.39006 0.71556 0.0
C2129 C 0.24389 0.38403 0.72766 0.0
C2130 C 0.2675 0.40424 0.71947 0.0
C2131 C 0.26717 0.41261 0.73554 0.0
C2132 C 0.25507 0.40669 0.7476 0.0
H2133 H 0.3227 0.50172 0.78342 0.0
H2134 H 0.30192 0.47769 0.77564 0.0
C2135 C 0.24359 0.39249 0.74373 0.0
C2136 C 0.27916 0.42785 0.73952 0.0
H2137 H 0.31054 0.44397 0.76737 0.0
C2138 C 0.27863 0.4421 0.72936 0.0
C2139 C 0.2909 0.42845 0.75331 0.0
C2140 C 0.29263 0.41327 0.76416 0.0
C2141 C 0.28932 0.45707 0.73282 0.0
C2142 C 0.30095 0.4577 0.74669 0.0
C2143 C 0.30151 0.44345 0.75681 0.0
C2144 C 0.31285 0.47293 0.75081 0.0
C2145 C 0.28788 0.47221 0.72185 0.0
C2146 C 0.32583 0.47822 0.73938 0.0
C2147 C 0.33775 0.49193 0.74378 0.0
C2148 C 0.33693 0.50057 0.75973 0.0
C2149 C 0.32369 0.4954 0.77102 0.0
C2150 C 0.31182 0.48165 0.76662 0.0
H2151 H 0.27573 0.47108 0.71441 0.0
H2152 H 0.28861 0.4842 0.72978 0.0
H2153 H 0.29867 0.47312 0.7127 0.0
H2154 H 0.32699 0.47148 0.72722 0.0
H2155 H 0.34779 0.49553 0.7348 0.0
H2156 H 0.2819 0.70373 0.76111 0.0
H2157 H 0.29784 0.6785 0.76182 0.0
H2158 H 0.28906 0.67552 0.81592 0.0
H2159 H 0.27351 0.70101 0.81549 0.0
H2160 H 0.32805 0.67427 0.78388 0.0
H2161 H 0.2722 0.6272 0.79439 0.0
H2162 H 0.26997 0.64785 0.78582 0.0
H2163 H 0.2739 0.64598 0.80821 0.0
C2164 C 0.28345 0.69782 0.7732 0.0
C2165 C 0.27637 0.70444 0.78825 0.0
C2166 C 0.29249 0.68335 0.77355 0.0
C2167 C 0.29448 0.67511 0.78888 0.0
C2168 C 0.28744 0.68159 0.80391 0.0
H2169 H 0.33903 0.5831 0.81601 0.0
H2170 H 0.32512 0.60959 0.81593 0.0
C2171 C 0.27848 0.69612 0.80361 0.0
C2172 C 0.30416 0.65986 0.78923 0.0
H2173 H 0.2996 0.6171 0.79529 0.0
C2174 C 0.32187 0.66174 0.78632 0.0
C2175 C 0.29603 0.64361 0.7925 0.0
C2176 C 0.27696 0.6409 0.7953 0.0
C2177 C 0.33176 0.64777 0.7869 0.0
C2178 C 0.3236 0.63144 0.79004 0.0
C2179 C 0.30585 0.62961 0.79291 0.0
C2180 C 0.33313 0.61601 0.79038 0.0
C2181 C 0.35088 0.65074 0.78459 0.0
C2182 C 0.34234 0.61083 0.77606 0.0
C2183 C 0.35046 0.59575 0.77613 0.0
C2184 C 0.34929 0.58544 0.79043 0.0
C2185 C 0.34019 0.59074 0.80479 0.0
C2186 C 0.3322 0.60588 0.80476 0.0
H2187 H 0.3556 0.66425 0.78739 0.0
H2188 H 0.3578 0.64256 0.79297 0.0
H2189 H 0.35409 0.6476 0.77114 0.0
H2190 H 0.3429 0.61821 0.76466 0.0
H2191 H 0.35724 0.59194 0.76481 0.0
H2192 H 0.89231 0.49326 0.47691 0.0
H2193 H 0.86323 0.4801 0.48055 0.0
H2194 H 0.85015 0.52451 0.50958 0.0
H2195 H 0.87946 0.53748 0.50665 0.0
H2196 H 0.84108 0.49574 0.52581 0.0
H2197 H 0.818 0.48824 0.45905 0.0
H2198 H 0.83801 0.47927 0.46175 0.0
H2199 H 0.83694 0.50184 0.46517 0.0
C2200 C 0.88324 0.50027 0.48402 0.0
C2201 C 0.88824 0.51639 0.49156 0.0
C2202 C 0.86654 0.49283 0.48588 0.0
C2203 C 0.85445 0.50144 0.49511 0.0
C2204 C 0.85926 0.51771 0.50227 0.0
H2205 H 0.74869 0.45549 0.50291 0.0
H2206 H 0.77352 0.47567 0.49752 0.0
C2207 C 0.87599 0.52515 0.50049 0.0
C2208 C 0.83732 0.49277 0.49859 0.0
H2209 H 0.80276 0.47042 0.47941 0.0
C2210 C 0.83259 0.49042 0.51566 0.0
C2211 C 0.82612 0.48605 0.48536 0.0
C2212 C 0.82994 0.48913 0.46681 0.0
C2213 C 0.81734 0.48085 0.51985 0.0
C2214 C 0.80675 0.47311 0.50661 0.0
C2215 C 0.81104 0.47616 0.48954 0.0
C2216 C 0.79164 0.46117 0.5102 0.0
C2217 C 0.81279 0.47901 0.53843 0.0
C2218 C 0.79366 0.44626 0.51894 0.0
C2219 C 0.77955 0.43475 0.52208 0.0
C2220 C 0.76313 0.43784 0.51639 0.0
C2221 C 0.76116 0.45274 0.50751 0.0
C2222 C 0.77531 0.46428 0.5044 0.0
H2223 H 0.81902 0.48971 0.54646 0.0
H2224 H 0.79872 0.47848 0.54034 0.0
H2225 H 0.81735 0.46703 0.54296 0.0
H2226 H 0.80623 0.44342 0.52316 0.0
H2227 H 0.78156 0.42336 0.52885 0.0
H2228 H 0.72777 0.8732 0.8242 0.0
H2229 H 0.70532 0.89048 0.81515 0.0
H2230 H 0.73058 0.89783 0.76681 0.0
H2231 H 0.75348 0.8811 0.77605 0.0
H2232 H 0.72456 0.92742 0.78226 0.0
H2233 H 0.66494 0.88441 0.78276 0.0
H2234 H 0.6766 0.88396 0.80242 0.0
H2235 H 0.68591 0.87661 0.78284 0.0
C2236 C 0.72846 0.87834 0.81157 0.0
C2237 C 0.74251 0.8759 0.80091 0.0
C2238 C 0.71546 0.88801 0.8063 0.0
C2239 C 0.71613 0.89528 0.79021 0.0
C2240 C 0.72973 0.89222 0.77923 0.0
H2241 H 0.64034 0.9655 0.76043 0.0
H2242 H 0.65763 0.941 0.75958 0.0
C2243 C 0.74277 0.88258 0.7845 0.0
C2244 C 0.70399 0.90787 0.78589 0.0
H2245 H 0.66155 0.91465 0.78573 0.0
C2246 C 0.71078 0.92452 0.78268 0.0
C2247 C 0.686 0.90408 0.78627 0.0
C2248 C 0.67794 0.88624 0.78858 0.0
C2249 C 0.70012 0.93767 0.78085 0.0
C2250 C 0.68222 0.93414 0.78252 0.0
C2251 C 0.67531 0.91733 0.78469 0.0
C2252 C 0.67079 0.94805 0.7834 0.0
C2253 C 0.70811 0.95538 0.77764 0.0
C2254 C 0.6722 0.95978 0.79728 0.0
C2255 C 0.6624 0.97368 0.79783 0.0
C2256 C 0.65095 0.97611 0.7845 0.0
C2257 C 0.64909 0.964 0.77086 0.0
C2258 C 0.65893 0.95001 0.77035 0.0
H2259 H 0.7212 0.95516 0.77228 0.0
H2260 H 0.70013 0.96197 0.76872 0.0
H2261 H 0.70911 0.9629 0.78988 0.0
H2262 H 0.68114 0.95833 0.80758 0.0
H2263 H 0.66408 0.98268 0.80858 0.0
H2264 H 0.60785 0.50759 0.95959 0.0
H2265 H 0.6279 0.53156 0.96917 0.0
H2266 H 0.66689 0.51307 0.93652 0.0
H2267 H 0.64672 0.48942 0.92634 0.0
H2268 H 0.65899 0.5307 0.98556 0.0
H2269 H 0.6675 0.56276 0.92386 0.0
H2270 H 0.65042 0.54638 0.92741 0.0
H2271 H 0.6717 0.54076 0.92285 0.0
C2272 C 0.6206 0.50877 0.95422 0.0
C2273 C 0.62565 0.49665 0.94209 0.0
C2274 C 0.63208 0.5224 0.95981 0.0
C2275 C 0.64878 0.52422 0.95336 0.0
C2276 C 0.65394 0.51208 0.9414 0.0
H2277 H 0.73835 0.59415 0.97444 0.0
H2278 H 0.71792 0.57062 0.96455 0.0
C2279 C 0.64246 0.49846 0.93576 0.0
C2280 C 0.66095 0.53856 0.95955 0.0
H2281 H 0.68628 0.57311 0.94648 0.0
C2282 C 0.66489 0.54004 0.97705 0.0
C2283 C 0.66861 0.5507 0.94839 0.0
C2284 C 0.66425 0.55021 0.92961 0.0
C2285 C 0.67655 0.55318 0.98365 0.0
C2286 C 0.68428 0.56523 0.97247 0.0
C2287 C 0.68033 0.56379 0.95499 0.0
C2288 C 0.69656 0.57943 0.97866 0.0
C2289 C 0.68079 0.55388 0.00246 0.0
C2290 C 0.69122 0.59224 0.98974 0.0
C2291 C 0.70284 0.60574 0.99541 0.0
C2292 C 0.72001 0.60666 0.99005 0.0
C2293 C 0.72525 0.59381 0.97887 0.0
C2294 C 0.71361 0.58037 0.97317 0.0
H2295 H 0.67675 0.54167 0.00855 0.0
H2296 H 0.69476 0.55693 0.00459 0.0
H2297 H 0.67403 0.56406 0.00891 0.0
H2298 H 0.67803 0.59185 0.9939 0.0
H2299 H 0.69836 0.61544 0.00397 0.0
H2300 H 0.25653 0.64744 0.19625 0.0
H2301 H 0.23473 0.6254 0.20491 0.0
H2302 H 0.22501 0.65537 0.25033 0.0
H2303 H 0.24624 0.67787 0.24139 0.0
H2304 H 0.23396 0.60671 0.23344 0.0
H2305 H 0.17709 0.64365 0.23125 0.0
H2306 H 0.19733 0.65096 0.22191 0.0
H2307 H 0.19412 0.65351 0.24453 0.0
C2308 C 0.24954 0.64952 0.20792 0.0
C2309 C 0.25306 0.6645 0.21806 0.0
C2310 C 0.23718 0.63683 0.21292 0.0
C2311 C 0.22809 0.63885 0.22814 0.0
C2312 C 0.23164 0.6537 0.23837 0.0
H2313 H 0.17131 0.55631 0.28059 0.0
H2314 H 0.1923 0.57932 0.27228 0.0
C2315 C 0.24394 0.66645 0.23334 0.0
C2316 C 0.21529 0.62514 0.23351 0.0
H2317 H 0.17318 0.61658 0.24375 0.0
C2318 C 0.22065 0.60884 0.23565 0.0
C2319 C 0.19791 0.62792 0.2362 0.0
C2320 C 0.1912 0.64491 0.2332 0.0
C2321 C 0.20913 0.59526 0.24054 0.0
C2322 C 0.19187 0.59817 0.24374 0.0
C2323 C 0.18647 0.61443 0.24146 0.0
C2324 C 0.17907 0.58441 0.249 0.0
C2325 C 0.21548 0.57785 0.24184 0.0
C2326 C 0.16442 0.57999 0.23894 0.0
C2327 C 0.15231 0.56699 0.24375 0.0
C2328 C 0.15462 0.55816 0.25873 0.0
C2329 C 0.16922 0.56275 0.2689 0.0
C2330 C 0.18128 0.57584 0.26413 0.0
H2331 H 0.22754 0.5768 0.23462 0.0
H2332 H 0.2181 0.57549 0.25543 0.0
H2333 H 0.20574 0.56774 0.23695 0.0
H2334 H 0.16244 0.5865 0.22725 0.0
H2335 H 0.14121 0.5638 0.23562 0.0
H2336 H 0.87605 0.50877 0.03979 0.0
H2337 H 0.85608 0.53061 0.03788 0.0
H2338 H 0.8744 0.553 0.0862 0.0
H2339 H 0.89431 0.53094 0.08843 0.0
H2340 H 0.82981 0.54156 0.06082 0.0
H2341 H 0.88372 0.59122 0.05096 0.0
H2342 H 0.88641 0.56876 0.04894 0.0
H2343 H 0.88452 0.57875 0.06967 0.0
C2344 C 0.87558 0.51804 0.05025 0.0
C2345 C 0.88688 0.51813 0.06423 0.0
C2346 C 0.8642 0.53059 0.04908 0.0
C2347 C 0.86395 0.54352 0.06178 0.0
C2348 C 0.8746 0.54325 0.07614 0.0
H2349 H 0.789 0.61974 0.04975 0.0
H2350 H 0.80748 0.60111 0.0642 0.0
C2351 C 0.88598 0.53066 0.07736 0.0
C2352 C 0.85328 0.55778 0.05924 0.0
H2353 H 0.85584 0.59934 0.04796 0.0
C2354 C 0.83543 0.55429 0.05831 0.0
C2355 C 0.86074 0.57431 0.05586 0.0
C2356 C 0.8799 0.57858 0.05628 0.0
C2357 C 0.82486 0.56677 0.05348 0.0
C2358 C 0.83238 0.58313 0.04957 0.0
C2359 C 0.85016 0.5868 0.05111 0.0
C2360 C 0.82228 0.59579 0.0417 0.0
C2361 C 0.80583 0.56212 0.05164 0.0
C2362 C 0.8249 0.59936 0.02446 0.0
C2363 C 0.81443 0.60991 0.01621 0.0
C2364 C 0.80119 0.61721 0.02508 0.0
C2365 C 0.7991 0.61429 0.04258 0.0
C2366 C 0.80956 0.6036 0.05083 0.0
H2367 H 0.80231 0.54831 0.05323 0.0
H2368 H 0.79898 0.56935 0.06144 0.0
H2369 H 0.80132 0.56562 0.03891 0.0
H2370 H 0.83469 0.59347 0.01722 0.0
H2371 H 0.81643 0.61197 0.00275 0.0
H2372 H 0.10342 0.03722 0.11591 0.0
H2373 H 0.11441 0.00972 0.10885 0.0
H2374 H 0.1495 0.03392 0.07297 0.0
H2375 H 0.13851 0.06131 0.07976 0.0
H2376 H 0.11447 0.9925 0.07716 0.0
H2377 H 0.18057 0.00704 0.10172 0.0
H2378 H 0.16336 0.01984 0.10751 0.0
H2379 H 0.17437 0.02282 0.08757 0.0
C2380 C 0.11347 0.03667 0.1065 0.0
C2381 C 0.12016 0.0515 0.09847 0.0
C2382 C 0.11978 0.02098 0.10256 0.0
C2383 C 0.13298 0.01985 0.09063 0.0
C2384 C 0.13962 0.03459 0.08255 0.0
H2385 H 0.16456 0.94525 0.02164 0.0
H2386 H 0.14929 0.96575 0.03814 0.0
C2387 C 0.13332 0.05025 0.08646 0.0
C2388 C 0.13934 0.00321 0.08588 0.0
H2389 H 0.17613 0.98351 0.08136 0.0
C2390 C 0.1279 0.9904 0.07833 0.0
C2391 C 0.15678 0.00034 0.08773 0.0
C2392 C 0.16945 0.01318 0.09674 0.0
C2393 C 0.13366 0.97522 0.07157 0.0
C2394 C 0.15135 0.97297 0.07219 0.0
C2395 C 0.16259 0.98531 0.08073 0.0
C2396 C 0.15876 0.95883 0.06267 0.0
C2397 C 0.12081 0.96191 0.06356 0.0
C2398 C 0.16918 0.94807 0.07095 0.0
C2399 C 0.17805 0.93633 0.0615 0.0
C2400 C 0.17677 0.93532 0.04358 0.0
C2401 C 0.1658 0.94566 0.03542 0.0
C2402 C 0.15694 0.95733 0.04486 0.0
H2403 H 0.10789 0.96269 0.06917 0.0
H2404 H 0.11982 0.96409 0.0497 0.0
H2405 H 0.12472 0.94887 0.06517 0.0
H2406 H 0.17086 0.94911 0.08468 0.0
H2407 H 0.18645 0.92858 0.06816 0.0
loop_
_geom_bond_atom_site_label_1
_geom_bond_atom_site_label_2
_geom_bond_distance
_geom_bond_site_symmetry_2
_ccdc_geom_bond_type
P0 O11 1.490 . S
P0 C14 1.812 . S
P0 C20 1.803 . S
P0 C26 1.819 . S
H1 C15 0.941 . S
H2 C16 0.939 . S
H3 C18 0.940 . S
H4 C19 0.940 . S
H5 C21 0.939 . S
H6 C22 0.942 . S
H7 C24 0.940 . S
H8 C25 0.939 . S
H9 C27 0.941 . S
H10 C31 0.939 . S
O11 P0 1.490 . S
H12 C28 0.939 . S
H13 C30 0.940 . S
C14 P0 1.812 . S
C14 C15 1.389 . S
C14 C19 1.391 . S
C15 H1 0.941 . S
C15 C14 1.389 . S
C15 C16 1.397 . S
C16 H2 0.939 . S
C16 C15 1.397 . S
C16 C17 1.378 . S
C17 C16 1.378 . S
C17 C18 1.378 . S
C18 H3 0.940 . S
C18 C17 1.378 . S
C18 C19 1.396 . S
C19 H4 0.940 . S
C19 C14 1.391 . S
C19 C18 1.396 . S
C20 P0 1.803 . S
C20 C21 1.378 . S
C20 C25 1.400 . S
C21 H5 0.939 . S
C21 C20 1.378 . S
C21 C22 1.361 . S
C22 H6 0.942 . S
C22 C21 1.361 . S
C22 C23 1.369 . S
C23 C22 1.369 . S
C23 C24 1.404 . S
C24 H7 0.940 . S
C24 C23 1.404 . S
C24 C25 1.389 . S
C25 H8 0.939 . S
C25 C20 1.400 . S
C25 C24 1.389 . S
C26 P0 1.819 . S
C26 C27 1.391 . S
C26 C31 1.391 . S
C27 H9 0.941 . S
C27 C26 1.391 . S
C27 C28 1.396 . S
C28 H12 0.939 . S
C28 C27 1.396 . S
C28 C29 1.397 . S
C29 C28 1.397 . S
C29 C30 1.385 . S
C30 H13 0.940 . S
C30 C29 1.385 . S
C30 C31 1.388 . S
C31 H10 0.939 . S
C31 C26 1.391 . S
C31 C30 1.388 . S
P32 O43 1.490 . S
P32 C46 1.812 . S
P32 C52 1.803 . S
P32 C58 1.819 . S
H33 C47 0.941 . S
H34 C48 0.939 . S
H35 C50 0.940 . S
H36 C51 0.940 . S
H37 C53 0.939 . S
H38 C54 0.942 . S
H39 C56 0.940 . S
H40 C57 0.939 . S
H41 C59 0.941 . S
H42 C63 0.939 . S
O43 P32 1.490 . S
H44 C60 0.939 . S
H45 C62 0.940 . S
C46 P32 1.812 . S
C46 C47 1.389 . S
C46 C51 1.391 . S
C47 H33 0.941 . S
C47 C46 1.389 . S
C47 C48 1.397 . S
C48 H34 0.939 . S
C48 C47 1.397 . S
C48 C49 1.378 . S
C49 C48 1.378 . S
C49 C50 1.378 . S
C50 H35 0.940 . S
C50 C49 1.378 . S
C50 C51 1.396 . S
C51 H36 0.940 . S
C51 C46 1.391 . S
C51 C50 1.396 . S
C52 P32 1.803 . S
C52 C53 1.378 . S
C52 C57 1.400 . S
C53 H37 0.939 . S
C53 C52 1.378 . S
C53 C54 1.361 . S
C54 H38 0.942 . S
C54 C53 1.361 . S
C54 C55 1.369 . S
C55 C54 1.369 . S
C55 C56 1.404 . S
C56 H39 0.940 . S
C56 C55 1.404 . S
C56 C57 1.389 . S
C57 H40 0.939 . S
C57 C52 1.400 . S
C57 C56 1.389 . S
C58 P32 1.819 . S
C58 C59 1.391 . S
C58 C63 1.391 . S
C59 H41 0.941 . S
C59 C58 1.391 . S
C59 C60 1.396 . S
C60 H44 0.939 . S
C60 C59 1.396 . S
C60 C61 1.397 . S
C61 C60 1.397 . S
C61 C62 1.385 . S
C62 H45 0.940 . S
C62 C61 1.385 . S
C62 C63 1.388 . S
C63 H42 0.939 . S
C63 C58 1.391 . S
C63 C62 1.388 . S
P64 O75 1.490 . S
P64 C78 1.812 . S
P64 C84 1.803 . S
P64 C90 1.819 . S
H65 C79 0.941 . S
H66 C80 0.939 . S
H67 C82 0.940 . S
H68 C83 0.940 . S
H69 C85 0.939 . S
H70 C86 0.942 . S
H71 C88 0.940 . S
H72 C89 0.939 . S
H73 C91 0.941 . S
H74 C95 0.939 . S
O75 P64 1.490 . S
H76 C92 0.939 . S
H77 C94 0.940 . S
C78 P64 1.812 . S
C78 C79 1.389 . S
C78 C83 1.391 . S
C79 H65 0.941 . S
C79 C78 1.389 . S
C79 C80 1.397 . S
C80 H66 0.939 . S
C80 C79 1.397 . S
C80 C81 1.378 . S
C81 C80 1.378 . S
C81 C82 1.378 . S
C82 H67 0.940 . S
C82 C81 1.378 . S
C82 C83 1.396 . S
C83 H68 0.940 . S
C83 C78 1.391 . S
C83 C82 1.396 . S
C84 P64 1.803 . S
C84 C85 1.378 . S
C84 C89 1.400 . S
C85 H69 0.939 . S
C85 C84 1.378 . S
C85 C86 1.361 . S
C86 H70 0.942 . S
C86 C85 1.361 . S
C86 C87 1.369 . S
C87 C86 1.369 . S
C87 C88 1.404 . S
C88 H71 0.940 . S
C88 C87 1.404 . S
C88 C89 1.389 . S
C89 H72 0.939 . S
C89 C84 1.400 . S
C89 C88 1.389 . S
C90 P64 1.819 . S
C90 C91 1.391 . S
C90 C95 1.391 . S
C91 H73 0.941 . S
C91 C90 1.391 . S
C91 C92 1.396 . S
C92 H76 0.939 . S
C92 C91 1.396 . S
C92 C93 1.397 . S
C93 C92 1.397 . S
C93 C94 1.385 . S
C94 H77 0.940 . S
C94 C93 1.385 . S
C94 C95 1.388 . S
C95 H74 0.939 . S
C95 C90 1.391 . S
C95 C94 1.388 . S
P96 O107 1.490 . S
P96 C110 1.812 . S
P96 C116 1.803 . S
P96 C122 1.819 . S
H97 C111 0.941 . S
H98 C112 0.939 . S
H99 C114 0.940 . S
H100 C115 0.940 . S
H101 C117 0.939 . S
H102 C118 0.942 . S
H103 C120 0.940 . S
H104 C121 0.939 . S
H105 C123 0.941 . S
H106 C127 0.939 . S
O107 P96 1.490 . S
H108 C124 0.939 . S
H109 C126 0.940 . S
C110 P96 1.812 . S
C110 C111 1.389 . S
C110 C115 1.391 . S
C111 H97 0.941 . S
C111 C110 1.389 . S
C111 C112 1.397 . S
C112 H98 0.939 . S
C112 C111 1.397 . S
C112 C113 1.378 . S
C113 C112 1.378 . S
C113 C114 1.378 . S
C114 H99 0.940 . S
C114 C113 1.378 . S
C114 C115 1.396 . S
C115 H100 0.940 . S
C115 C110 1.391 . S
C115 C114 1.396 . S
C116 P96 1.803 . S
C116 C117 1.378 . S
C116 C121 1.400 . S
C117 H101 0.939 . S
C117 C116 1.378 . S
C117 C118 1.361 . S
C118 H102 0.942 . S
C118 C117 1.361 . S
C118 C119 1.369 . S
C119 C118 1.369 . S
C119 C120 1.404 . S
C120 H103 0.940 . S
C120 C119 1.404 . S
C120 C121 1.389 . S
C121 H104 0.939 . S
C121 C116 1.400 . S
C121 C120 1.389 . S
C122 P96 1.819 . S
C122 C123 1.391 . S
C122 C127 1.391 . S
C123 H105 0.941 . S
C123 C122 1.391 . S
C123 C124 1.396 . S
C124 H108 0.939 . S
C124 C123 1.396 . S
C124 C125 1.397 . S
C125 C124 1.397 . S
C125 C126 1.385 . S
C126 H109 0.940 . S
C126 C125 1.385 . S
C126 C127 1.388 . S
C127 H106 0.939 . S
C127 C122 1.391 . S
C127 C126 1.388 . S
P128 O139 1.490 . S
P128 C142 1.812 . S
P128 C148 1.803 . S
P128 C154 1.819 . S
H129 C143 0.941 . S
H130 C144 0.939 . S
H131 C146 0.940 . S
H132 C147 0.940 . S
H133 C149 0.939 . S
H134 C150 0.942 . S
H135 C152 0.940 . S
H136 C153 0.939 . S
H137 C155 0.941 . S
H138 C159 0.939 . S
O139 P128 1.490 . S
H140 C156 0.939 . S
H141 C158 0.940 . S
C142 P128 1.812 . S
C142 C143 1.389 . S
C142 C147 1.391 . S
C143 H129 0.941 . S
C143 C142 1.389 . S
C143 C144 1.397 . S
C144 H130 0.939 . S
C144 C143 1.397 . S
C144 C145 1.378 . S
C145 C144 1.378 . S
C145 C146 1.378 . S
C146 H131 0.940 . S
C146 C145 1.378 . S
C146 C147 1.396 . S
C147 H132 0.940 . S
C147 C142 1.391 . S
C147 C146 1.396 . S
C148 P128 1.803 . S
C148 C149 1.378 . S
C148 C153 1.400 . S
C149 H133 0.939 . S
C149 C148 1.378 . S
C149 C150 1.361 . S
C150 H134 0.942 . S
C150 C149 1.361 . S
C150 C151 1.369 . S
C151 C150 1.369 . S
C151 C152 1.404 . S
C152 H135 0.940 . S
C152 C151 1.404 . S
C152 C153 1.389 . S
C153 H136 0.939 . S
C153 C148 1.400 . S
C153 C152 1.389 . S
C154 P128 1.819 . S
C154 C155 1.391 . S
C154 C159 1.391 . S
C155 H137 0.941 . S
C155 C154 1.391 . S
C155 C156 1.396 . S
C156 H140 0.939 . S
C156 C155 1.396 . S
C156 C157 1.397 . S
C157 C156 1.397 . S
C157 C158 1.385 . S
C158 H141 0.940 . S
C158 C157 1.385 . S
C158 C159 1.388 . S
C159 H138 0.939 . S
C159 C154 1.391 . S
C159 C158 1.388 . S
P160 O171 1.490 . S
P160 C174 1.812 . S
P160 C180 1.803 . S
P160 C186 1.819 . S
H161 C175 0.941 . S
H162 C176 0.939 . S
H163 C178 0.940 . S
H164 C179 0.940 . S
H165 C181 0.939 . S
H166 C182 0.942 . S
H167 C184 0.940 . S
H168 C185 0.939 . S
H169 C187 0.941 . S
H170 C191 0.939 . S
O171 P160 1.490 . S
H172 C188 0.939 . S
H173 C190 0.940 . S
C174 P160 1.812 . S
C174 C175 1.389 . S
C174 C179 1.391 . S
C175 H161 0.941 . S
C175 C174 1.389 . S
C175 C176 1.397 . S
C176 H162 0.939 . S
C176 C175 1.397 . S
C176 C177 1.378 . S
C177 C176 1.378 . S
C177 C178 1.378 . S
C178 H163 0.940 . S
C178 C177 1.378 . S
C178 C179 1.396 . S
C179 H164 0.940 . S
C179 C174 1.391 . S
C179 C178 1.396 . S
C180 P160 1.803 . S
C180 C181 1.378 . S
C180 C185 1.400 . S
C181 H165 0.939 . S
C181 C180 1.378 . S
C181 C182 1.361 . S
C182 H166 0.942 . S
C182 C181 1.361 . S
C182 C183 1.369 . S
C183 C182 1.369 . S
C183 C184 1.404 . S
C184 H167 0.940 . S
C184 C183 1.404 . S
C184 C185 1.389 . S
C185 H168 0.939 . S
C185 C180 1.400 . S
C185 C184 1.389 . S
C186 P160 1.819 . S
C186 C187 1.391 . S
C186 C191 1.391 . S
C187 H169 0.941 . S
C187 C186 1.391 . S
C187 C188 1.396 . S
C188 H172 0.939 . S
C188 C187 1.396 . S
C188 C189 1.397 . S
C189 C188 1.397 . S
C189 C190 1.385 . S
C190 H173 0.940 . S
C190 C189 1.385 . S
C190 C191 1.388 . S
C191 H170 0.939 . S
C191 C186 1.391 . S
C191 C190 1.388 . S
P192 O203 1.490 . S
P192 C206 1.812 . S
P192 C212 1.803 . S
P192 C218 1.819 . S
H193 C207 0.941 . S
H194 C208 0.939 . S
H195 C210 0.940 . S
H196 C211 0.940 . S
H197 C213 0.939 . S
H198 C214 0.942 . S
H199 C216 0.940 . S
H200 C217 0.939 . S
H201 C219 0.941 . S
H202 C223 0.939 . S
O203 P192 1.490 . S
H204 C220 0.939 . S
H205 C222 0.940 . S
C206 P192 1.812 . S
C206 C207 1.389 . S
C206 C211 1.391 . S
C207 H193 0.941 . S
C207 C206 1.389 . S
C207 C208 1.397 . S
C208 H194 0.939 . S
C208 C207 1.397 . S
C208 C209 1.378 . S
C209 C208 1.378 . S
C209 C210 1.378 . S
C210 H195 0.940 . S
C210 C209 1.378 . S
C210 C211 1.396 . S
C211 H196 0.940 . S
C211 C206 1.391 . S
C211 C210 1.396 . S
C212 P192 1.803 . S
C212 C213 1.378 . S
C212 C217 1.400 . S
C213 H197 0.939 . S
C213 C212 1.378 . S
C213 C214 1.361 . S
C214 H198 0.942 . S
C214 C213 1.361 . S
C214 C215 1.369 . S
C215 C214 1.369 . S
C215 C216 1.404 . S
C216 H199 0.940 . S
C216 C215 1.404 . S
C216 C217 1.389 . S
C217 H200 0.939 . S
C217 C212 1.400 . S
C217 C216 1.389 . S
C218 P192 1.819 . S
C218 C219 1.391 . S
C218 C223 1.391 . S
C219 H201 0.941 . S
C219 C218 1.391 . S
C219 C220 1.396 . S
C220 H204 0.939 . S
C220 C219 1.396 . S
C220 C221 1.397 . S
C221 C220 1.397 . S
C221 C222 1.385 . S
C222 H205 0.940 . S
C222 C221 1.385 . S
C222 C223 1.388 . S
C223 H202 0.939 . S
C223 C218 1.391 . S
C223 C222 1.388 . S
P224 O235 1.490 . S
P224 C238 1.812 . S
P224 C244 1.803 . S
P224 C250 1.819 . S
H225 C239 0.941 . S
H226 C240 0.939 . S
H227 C242 0.940 . S
H228 C243 0.940 . S
H229 C245 0.939 . S
H230 C246 0.942 . S
H231 C248 0.940 . S
H232 C249 0.939 . S
H233 C251 0.941 . S
H234 C255 0.939 . S
O235 P224 1.490 . S
H236 C252 0.939 . S
H237 C254 0.940 . S
C238 P224 1.812 . S
C238 C239 1.389 . S
C238 C243 1.391 . S
C239 H225 0.941 . S
C239 C238 1.389 . S
C239 C240 1.397 . S
C240 H226 0.939 . S
C240 C239 1.397 . S
C240 C241 1.378 . S
C241 C240 1.378 . S
C241 C242 1.378 . S
C242 H227 0.940 . S
C242 C241 1.378 . S
C242 C243 1.396 . S
C243 H228 0.940 . S
C243 C238 1.391 . S
C243 C242 1.396 . S
C244 P224 1.803 . S
C244 C245 1.378 . S
C244 C249 1.400 . S
C245 H229 0.939 . S
C245 C244 1.378 . S
C245 C246 1.361 . S
C246 H230 0.942 . S
C246 C245 1.361 . S
C246 C247 1.369 . S
C247 C246 1.369 . S
C247 C248 1.404 . S
C248 H231 0.940 . S
C248 C247 1.404 . S
C248 C249 1.389 . S
C249 H232 0.939 . S
C249 C244 1.400 . S
C249 C248 1.389 . S
C250 P224 1.819 . S
C250 C251 1.391 . S
C250 C255 1.391 . S
C251 H233 0.941 . S
C251 C250 1.391 . S
C251 C252 1.396 . S
C252 H236 0.939 . S
C252 C251 1.396 . S
C252 C253 1.397 . S
C253 C252 1.397 . S
C253 C254 1.385 . S
C254 H237 0.940 . S
C254 C253 1.385 . S
C254 C255 1.388 . S
C255 H234 0.939 . S
C255 C250 1.391 . S
C255 C254 1.388 . S
P256 O267 1.490 . S
P256 C270 1.812 . S
P256 C276 1.803 . S
P256 C282 1.819 . S
H257 C271 0.941 . S
H258 C272 0.939 . S
H259 C274 0.940 . S
H260 C275 0.940 . S
H261 C277 0.939 . S
H262 C278 0.942 . S
H263 C280 0.940 . S
H264 C281 0.939 . S
H265 C283 0.941 . S
H266 C287 0.939 . S
O267 P256 1.490 . S
H268 C284 0.939 . S
H269 C286 0.940 . S
C270 P256 1.812 . S
C270 C271 1.389 . S
C270 C275 1.391 . S
C271 H257 0.941 . S
C271 C270 1.389 . S
C271 C272 1.397 . S
C272 H258 0.939 . S
C272 C271 1.397 . S
C272 C273 1.378 . S
C273 C272 1.378 . S
C273 C274 1.378 . S
C274 H259 0.940 . S
C274 C273 1.378 . S
C274 C275 1.396 . S
C275 H260 0.940 . S
C275 C270 1.391 . S
C275 C274 1.396 . S
C276 P256 1.803 . S
C276 C277 1.378 . S
C276 C281 1.400 . S
C277 H261 0.939 . S
C277 C276 1.378 . S
C277 C278 1.361 . S
C278 H262 0.942 . S
C278 C277 1.361 . S
C278 C279 1.369 . S
C279 C278 1.369 . S
C279 C280 1.404 . S
C280 H263 0.940 . S
C280 C279 1.404 . S
C280 C281 1.389 . S
C281 H264 0.939 . S
C281 C276 1.400 . S
C281 C280 1.389 . S
C282 P256 1.819 . S
C282 C283 1.391 . S
C282 C287 1.391 . S
C283 H265 0.941 . S
C283 C282 1.391 . S
C283 C284 1.396 . S
C284 H268 0.939 . S
C284 C283 1.396 . S
C284 C285 1.397 . S
C285 C284 1.397 . S
C285 C286 1.385 . S
C286 H269 0.940 . S
C286 C285 1.385 . S
C286 C287 1.388 . S
C287 H266 0.939 . S
C287 C282 1.391 . S
C287 C286 1.388 . S
P288 O299 1.490 . S
P288 C302 1.812 . S
P288 C308 1.803 . S
P288 C314 1.819 . S
H289 C303 0.941 . S
H290 C304 0.939 . S
H291 C306 0.940 . S
H292 C307 0.940 . S
H293 C309 0.939 . S
H294 C310 0.942 . S
H295 C312 0.940 . S
H296 C313 0.939 . S
H297 C315 0.941 . S
H298 C319 0.939 . S
O299 P288 1.490 . S
H300 C316 0.939 . S
H301 C318 0.940 . S
C302 P288 1.812 . S
C302 C303 1.389 . S
C302 C307 1.391 . S
C303 H289 0.941 . S
C303 C302 1.389 . S
C303 C304 1.397 . S
C304 H290 0.939 . S
C304 C303 1.397 . S
C304 C305 1.378 . S
C305 C304 1.378 . S
C305 C306 1.378 . S
C306 H291 0.940 . S
C306 C305 1.378 . S
C306 C307 1.396 . S
C307 H292 0.940 . S
C307 C302 1.391 . S
C307 C306 1.396 . S
C308 P288 1.803 . S
C308 C309 1.378 . S
C308 C313 1.400 . S
C309 H293 0.939 . S
C309 C308 1.378 . S
C309 C310 1.361 . S
C310 H294 0.942 . S
C310 C309 1.361 . S
C310 C311 1.369 . S
C311 C310 1.369 . S
C311 C312 1.404 . S
C312 H295 0.940 . S
C312 C311 1.404 . S
C312 C313 1.389 . S
C313 H296 0.939 . S
C313 C308 1.400 . S
C313 C312 1.389 . S
C314 P288 1.819 . S
C314 C315 1.391 . S
C314 C319 1.391 . S
C315 H297 0.941 . S
C315 C314 1.391 . S
C315 C316 1.396 . S
C316 H300 0.939 . S
C316 C315 1.396 . S
C316 C317 1.397 . S
C317 C316 1.397 . S
C317 C318 1.385 . S
C318 H301 0.940 . S
C318 C317 1.385 . S
C318 C319 1.388 . S
C319 H298 0.939 . S
C319 C314 1.391 . S
C319 C318 1.388 . S
P320 O331 1.490 . S
P320 C334 1.812 . S
P320 C340 1.803 . S
P320 C346 1.819 . S
H321 C335 0.941 . S
H322 C336 0.939 . S
H323 C338 0.940 . S
H324 C339 0.940 . S
H325 C341 0.939 . S
H326 C342 0.942 . S
H327 C344 0.940 . S
H328 C345 0.939 . S
H329 C347 0.941 . S
H330 C351 0.939 . S
O331 P320 1.490 . S
H332 C348 0.939 . S
H333 C350 0.940 . S
C334 P320 1.812 . S
C334 C335 1.389 . S
C334 C339 1.391 . S
C335 H321 0.941 . S
C335 C334 1.389 . S
C335 C336 1.397 . S
C336 H322 0.939 . S
C336 C335 1.397 . S
C336 C337 1.378 . S
C337 C336 1.378 . S
C337 C338 1.378 . S
C338 H323 0.940 . S
C338 C337 1.378 . S
C338 C339 1.396 . S
C339 H324 0.940 . S
C339 C334 1.391 . S
C339 C338 1.396 . S
C340 P320 1.803 . S
C340 C341 1.378 . S
C340 C345 1.400 . S
C341 H325 0.939 . S
C341 C340 1.378 . S
C341 C342 1.361 . S
C342 H326 0.942 . S
C342 C341 1.361 . S
C342 C343 1.369 . S
C343 C342 1.369 . S
C343 C344 1.404 . S
C344 H327 0.940 . S
C344 C343 1.404 . S
C344 C345 1.389 . S
C345 H328 0.939 . S
C345 C340 1.400 . S
C345 C344 1.389 . S
C346 P320 1.819 . S
C346 C347 1.391 . S
C346 C351 1.391 . S
C347 H329 0.941 . S
C347 C346 1.391 . S
C347 C348 1.396 . S
C348 H332 0.939 . S
C348 C347 1.396 . S
C348 C349 1.397 . S
C349 C348 1.397 . S
C349 C350 1.385 . S
C350 H333 0.940 . S
C350 C349 1.385 . S
C350 C351 1.388 . S
C351 H330 0.939 . S
C351 C346 1.391 . S
C351 C350 1.388 . S
P352 O363 1.490 . S
P352 C366 1.812 . S
P352 C372 1.803 . S
P352 C378 1.819 . S
H353 C367 0.941 . S
H354 C368 0.939 . S
H355 C370 0.940 . S
H356 C371 0.940 . S
H357 C373 0.939 . S
H358 C374 0.942 . S
H359 C376 0.940 . S
H360 C377 0.939 . S
H361 C379 0.941 . S
H362 C383 0.939 . S
O363 P352 1.490 . S
H364 C380 0.939 . S
H365 C382 0.940 . S
C366 P352 1.812 . S
C366 C367 1.389 . S
C366 C371 1.391 . S
C367 H353 0.941 . S
C367 C366 1.389 . S
C367 C368 1.397 . S
C368 H354 0.939 . S
C368 C367 1.397 . S
C368 C369 1.378 . S
C369 C368 1.378 . S
C369 C370 1.378 . S
C370 H355 0.940 . S
C370 C369 1.378 . S
C370 C371 1.396 . S
C371 H356 0.940 . S
C371 C366 1.391 . S
C371 C370 1.396 . S
C372 P352 1.803 . S
C372 C373 1.378 . S
C372 C377 1.400 . S
C373 H357 0.939 . S
C373 C372 1.378 . S
C373 C374 1.361 . S
C374 H358 0.942 . S
C374 C373 1.361 . S
C374 C375 1.369 . S
C375 C374 1.369 . S
C375 C376 1.404 . S
C376 H359 0.940 . S
C376 C375 1.404 . S
C376 C377 1.389 . S
C377 H360 0.939 . S
C377 C372 1.400 . S
C377 C376 1.389 . S
C378 P352 1.819 . S
C378 C379 1.391 . S
C378 C383 1.391 . S
C379 H361 0.941 . S
C379 C378 1.391 . S
C379 C380 1.396 . S
C380 H364 0.939 . S
C380 C379 1.396 . S
C380 C381 1.397 . S
C381 C380 1.397 . S
C381 C382 1.385 . S
C382 H365 0.940 . S
C382 C381 1.385 . S
C382 C383 1.388 . S
C383 H362 0.939 . S
C383 C378 1.391 . S
C383 C382 1.388 . S
P384 O395 1.490 . S
P384 C398 1.812 . S
P384 C404 1.803 . S
P384 C410 1.819 . S
H385 C399 0.941 . S
H386 C400 0.939 . S
H387 C402 0.940 . S
H388 C403 0.940 . S
H389 C405 0.939 . S
H390 C406 0.942 . S
H391 C408 0.940 . S
H392 C409 0.939 . S
H393 C411 0.941 . S
H394 C415 0.939 . S
O395 P384 1.490 . S
H396 C412 0.939 . S
H397 C414 0.940 . S
C398 P384 1.812 . S
C398 C399 1.389 . S
C398 C403 1.391 . S
C399 H385 0.941 . S
C399 C398 1.389 . S
C399 C400 1.397 . S
C400 H386 0.939 . S
C400 C399 1.397 . S
C400 C401 1.378 . S
C401 C400 1.378 . S
C401 C402 1.378 . S
C402 H387 0.940 . S
C402 C401 1.378 . S
C402 C403 1.396 . S
C403 H388 0.940 . S
C403 C398 1.391 . S
C403 C402 1.396 . S
C404 P384 1.803 . S
C404 C405 1.378 . S
C404 C409 1.400 . S
C405 H389 0.939 . S
C405 C404 1.378 . S
C405 C406 1.361 . S
C406 H390 0.942 . S
C406 C405 1.361 . S
C406 C407 1.369 . S
C407 C406 1.369 . S
C407 C408 1.404 . S
C408 H391 0.940 . S
C408 C407 1.404 . S
C408 C409 1.389 . S
C409 H392 0.939 . S
C409 C404 1.400 . S
C409 C408 1.389 . S
C410 P384 1.819 . S
C410 C411 1.391 . S
C410 C415 1.391 . S
C411 H393 0.941 . S
C411 C410 1.391 . S
C411 C412 1.396 . S
C412 H396 0.939 . S
C412 C411 1.396 . S
C412 C413 1.397 . S
C413 C412 1.397 . S
C413 C414 1.385 . S
C414 H397 0.940 . S
C414 C413 1.385 . S
C414 C415 1.388 . S
C415 H394 0.939 . S
C415 C410 1.391 . S
C415 C414 1.388 . S
P416 O427 1.490 . S
P416 C430 1.812 . S
P416 C436 1.803 . S
P416 C442 1.819 . S
H417 C431 0.941 . S
H418 C432 0.939 . S
H419 C434 0.940 . S
H420 C435 0.940 . S
H421 C437 0.939 . S
H422 C438 0.942 . S
H423 C440 0.940 . S
H424 C441 0.939 . S
H425 C443 0.941 . S
H426 C447 0.939 . S
O427 P416 1.490 . S
H428 C444 0.939 . S
H429 C446 0.940 . S
C430 P416 1.812 . S
C430 C431 1.389 . S
C430 C435 1.391 . S
C431 H417 0.941 . S
C431 C430 1.389 . S
C431 C432 1.397 . S
C432 H418 0.939 . S
C432 C431 1.397 . S
C432 C433 1.378 . S
C433 C432 1.378 . S
C433 C434 1.378 . S
C434 H419 0.940 . S
C434 C433 1.378 . S
C434 C435 1.396 . S
C435 H420 0.940 . S
C435 C430 1.391 . S
C435 C434 1.396 . S
C436 P416 1.803 . S
C436 C437 1.378 . S
C436 C441 1.400 . S
C437 H421 0.939 . S
C437 C436 1.378 . S
C437 C438 1.361 . S
C438 H422 0.942 . S
C438 C437 1.361 . S
C438 C439 1.369 . S
C439 C438 1.369 . S
C439 C440 1.404 . S
C440 H423 0.940 . S
C440 C439 1.404 . S
C440 C441 1.389 . S
C441 H424 0.939 . S
C441 C436 1.400 . S
C441 C440 1.389 . S
C442 P416 1.819 . S
C442 C443 1.391 . S
C442 C447 1.391 . S
C443 H425 0.941 . S
C443 C442 1.391 . S
C443 C444 1.396 . S
C444 H428 0.939 . S
C444 C443 1.396 . S
C444 C445 1.397 . S
C445 C444 1.397 . S
C445 C446 1.385 . S
C446 H429 0.940 . S
C446 C445 1.385 . S
C446 C447 1.388 . S
C447 H426 0.939 . S
C447 C442 1.391 . S
C447 C446 1.388 . S
P448 O459 1.490 . S
P448 C462 1.812 . S
P448 C468 1.803 . S
P448 C474 1.819 . S
H449 C463 0.941 . S
H450 C464 0.939 . S
H451 C466 0.940 . S
H452 C467 0.940 . S
H453 C469 0.939 . S
H454 C470 0.942 . S
H455 C472 0.940 . S
H456 C473 0.939 . S
H457 C475 0.941 . S
H458 C479 0.939 . S
O459 P448 1.490 . S
H460 C476 0.939 . S
H461 C478 0.940 . S
C462 P448 1.812 . S
C462 C463 1.389 . S
C462 C467 1.391 . S
C463 H449 0.941 . S
C463 C462 1.389 . S
C463 C464 1.397 . S
C464 H450 0.939 . S
C464 C463 1.397 . S
C464 C465 1.378 . S
C465 C464 1.378 . S
C465 C466 1.378 . S
C466 H451 0.940 . S
C466 C465 1.378 . S
C466 C467 1.396 . S
C467 H452 0.940 . S
C467 C462 1.391 . S
C467 C466 1.396 . S
C468 P448 1.803 . S
C468 C469 1.378 . S
C468 C473 1.400 . S
C469 H453 0.939 . S
C469 C468 1.378 . S
C469 C470 1.361 . S
C470 H454 0.942 . S
C470 C469 1.361 . S
C470 C471 1.369 . S
C471 C470 1.369 . S
C471 C472 1.404 . S
C472 H455 0.940 . S
C472 C471 1.404 . S
C472 C473 1.389 . S
C473 H456 0.939 . S
C473 C468 1.400 . S
C473 C472 1.389 . S
C474 P448 1.819 . S
C474 C475 1.391 . S
C474 C479 1.391 . S
C475 H457 0.941 . S
C475 C474 1.391 . S
C475 C476 1.396 . S
C476 H460 0.939 . S
C476 C475 1.396 . S
C476 C477 1.397 . S
C477 C476 1.397 . S
C477 C478 1.385 . S
C478 H461 0.940 . S
C478 C477 1.385 . S
C478 C479 1.388 . S
C479 H458 0.939 . S
C479 C474 1.391 . S
C479 C478 1.388 . S
P480 O491 1.490 . S
P480 C494 1.812 . S
P480 C500 1.803 . S
P480 C506 1.819 . S
H481 C495 0.941 . S
H482 C496 0.939 . S
H483 C498 0.940 . S
H484 C499 0.940 . S
H485 C501 0.939 . S
H486 C502 0.942 . S
H487 C504 0.940 . S
H488 C505 0.939 . S
H489 C507 0.941 . S
H490 C511 0.939 . S
O491 P480 1.490 . S
H492 C508 0.939 . S
H493 C510 0.940 . S
C494 P480 1.812 . S
C494 C495 1.389 . S
C494 C499 1.391 . S
C495 H481 0.941 . S
C495 C494 1.389 . S
C495 C496 1.397 . S
C496 H482 0.939 . S
C496 C495 1.397 . S
C496 C497 1.378 . S
C497 C496 1.378 . S
C497 C498 1.378 . S
C498 H483 0.940 . S
C498 C497 1.378 . S
C498 C499 1.396 . S
C499 H484 0.940 . S
C499 C494 1.391 . S
C499 C498 1.396 . S
C500 P480 1.803 . S
C500 C501 1.378 . S
C500 C505 1.400 . S
C501 H485 0.939 . S
C501 C500 1.378 . S
C501 C502 1.361 . S
C502 H486 0.942 . S
C502 C501 1.361 . S
C502 C503 1.369 . S
C503 C502 1.369 . S
C503 C504 1.404 . S
C504 H487 0.940 . S
C504 C503 1.404 . S
C504 C505 1.389 . S
C505 H488 0.939 . S
C505 C500 1.400 . S
C505 C504 1.389 . S
C506 P480 1.819 . S
C506 C507 1.391 . S
C506 C511 1.391 . S
C507 H489 0.941 . S
C507 C506 1.391 . S
C507 C508 1.396 . S
C508 H492 0.939 . S
C508 C507 1.396 . S
C508 C509 1.397 . S
C509 C508 1.397 . S
C509 C510 1.385 . S
C510 H493 0.940 . S
C510 C509 1.385 . S
C510 C511 1.388 . S
C511 H490 0.939 . S
C511 C506 1.391 . S
C511 C510 1.388 . S
O512 Cd513 2.223 . S
O512 C520 1.315 . S
Cd513 O512 2.223 . S
Cd513 O516 2.297 . S
Cd513 O517 2.439 . S
Cd513 O523 2.240 . S
Cd514 O515 2.240 . S
Cd514 O522 2.223 . S
Cd514 O524 2.297 . S
Cd514 O525 2.439 . S
O515 Cd514 2.240 . S
O515 C520 1.279 . S
O516 Cd513 2.297 . S
O516 C518 1.247 . S
O517 Cd513 2.439 . S
O517 C518 1.208 . S
C518 O516 1.247 . S
C518 O517 1.208 . S
C519 O524 1.247 . S
C519 O525 1.208 . S
C520 O512 1.315 . S
C520 O515 1.279 . S
C521 O522 1.315 . S
C521 O523 1.279 . S
O522 Cd514 2.223 . S
O522 C521 1.315 . S
O523 Cd513 2.240 . S
O523 C521 1.279 . S
O524 Cd514 2.297 . S
O524 C519 1.247 . S
O525 Cd514 2.439 . S
O525 C519 1.208 . S
O526 Cd527 2.223 . S
O526 C534 1.315 . S
Cd527 O526 2.223 . S
Cd527 O530 2.297 . S
Cd527 O531 2.439 . S
Cd527 O537 2.240 . S
Cd528 O529 2.240 . S
Cd528 O536 2.223 . S
Cd528 O538 2.297 . S
Cd528 O539 2.439 . S
O529 Cd528 2.240 . S
O529 C534 1.279 . S
O530 Cd527 2.297 . S
O530 C532 1.247 . S
O531 Cd527 2.439 . S
O531 C532 1.208 . S
C532 O530 1.247 . S
C532 O531 1.208 . S
C533 O538 1.247 . S
C533 O539 1.208 . S
C534 O526 1.315 . S
C534 O529 1.279 . S
C535 O536 1.315 . S
C535 O537 1.279 . S
O536 Cd528 2.223 . S
O536 C535 1.315 . S
O537 Cd527 2.240 . S
O537 C535 1.279 . S
O538 Cd528 2.297 . S
O538 C533 1.247 . S
O539 Cd528 2.439 . S
O539 C533 1.208 . S
O540 Cd541 2.223 1_556 S
O540 C548 1.315 . S
Cd541 O540 2.223 1_554 S
Cd541 O544 2.297 . S
Cd541 O545 2.439 . S
Cd541 O551 2.240 . S
Cd542 O543 2.240 . S
Cd542 O550 2.223 . S
Cd542 O552 2.297 1_556 S
Cd542 O553 2.439 1_556 S
O543 Cd542 2.240 . S
O543 C548 1.279 . S
O544 Cd541 2.297 . S
O544 C546 1.247 . S
O545 Cd541 2.439 . S
O545 C546 1.208 . S
C546 O544 1.247 . S
C546 O545 1.208 . S
C547 O552 1.247 . S
C547 O553 1.208 . S
C548 O540 1.315 . S
C548 O543 1.279 . S
C549 O550 1.315 . S
C549 O551 1.279 1_556 S
O550 Cd542 2.223 . S
O550 C549 1.315 . S
O551 Cd541 2.240 . S
O551 C549 1.279 1_554 S
O552 Cd542 2.297 1_554 S
O552 C547 1.247 . S
O553 Cd542 2.439 1_554 S
O553 C547 1.208 . S
O554 Cd555 2.223 . S
O554 C562 1.315 . S
Cd555 O554 2.223 . S
Cd555 O558 2.297 . S
Cd555 O559 2.439 . S
Cd555 O565 2.240 . S
Cd556 O557 2.240 . S
Cd556 O564 2.223 . S
Cd556 O566 2.297 . S
Cd556 O567 2.439 . S
O557 Cd556 2.240 . S
O557 C562 1.279 . S
O558 Cd555 2.297 . S
O558 C560 1.247 . S
O559 Cd555 2.439 . S
O559 C560 1.208 . S
C560 O558 1.247 . S
C560 O559 1.208 . S
C561 O566 1.247 . S
C561 O567 1.208 . S
C562 O554 1.315 . S
C562 O557 1.279 . S
C563 O564 1.315 . S
C563 O565 1.279 . S
O564 Cd556 2.223 . S
O564 C563 1.315 . S
O565 Cd555 2.240 . S
O565 C563 1.279 . S
O566 Cd556 2.297 . S
O566 C561 1.247 . S
O567 Cd556 2.439 . S
O567 C561 1.208 . S
O568 Cd569 2.223 . S
O568 C576 1.315 . S
Cd569 O568 2.223 . S
Cd569 O572 2.297 . S
Cd569 O573 2.439 . S
Cd569 O579 2.240 . S
Cd570 O571 2.240 . S
Cd570 O578 2.223 . S
Cd570 O580 2.297 . S
Cd570 O581 2.439 . S
O571 Cd570 2.240 . S
O571 C576 1.279 . S
O572 Cd569 2.297 . S
O572 C574 1.247 . S
O573 Cd569 2.439 . S
O573 C574 1.208 . S
C574 O572 1.247 . S
C574 O573 1.208 . S
C575 O580 1.247 . S
C575 O581 1.208 . S
C576 O568 1.315 . S
C576 O571 1.279 . S
C577 O578 1.315 . S
C577 O579 1.279 . S
O578 Cd570 2.223 . S
O578 C577 1.315 . S
O579 Cd569 2.240 . S
O579 C577 1.279 . S
O580 Cd570 2.297 . S
O580 C575 1.247 . S
O581 Cd570 2.439 . S
O581 C575 1.208 . S
O582 Cd583 2.223 . S
O582 C590 1.315 . S
Cd583 O582 2.223 . S
Cd583 O586 2.297 . S
Cd583 O587 2.439 . S
Cd583 O593 2.240 . S
Cd584 O585 2.240 . S
Cd584 O592 2.223 . S
Cd584 O594 2.297 . S
Cd584 O595 2.439 . S
O585 Cd584 2.240 . S
O585 C590 1.279 . S
O586 Cd583 2.297 . S
O586 C588 1.247 . S
O587 Cd583 2.439 . S
O587 C588 1.208 . S
C588 O586 1.247 . S
C588 O587 1.208 . S
C589 O594 1.247 . S
C589 O595 1.208 . S
C590 O582 1.315 . S
C590 O585 1.279 . S
C591 O592 1.315 . S
C591 O593 1.279 . S
O592 Cd584 2.223 . S
O592 C591 1.315 . S
O593 Cd583 2.240 . S
O593 C591 1.279 . S
O594 Cd584 2.297 . S
O594 C589 1.247 . S
O595 Cd584 2.439 . S
O595 C589 1.208 . S
O596 Cd597 2.223 . S
O596 C604 1.315 . S
Cd597 O596 2.223 . S
Cd597 O600 2.297 . S
Cd597 O601 2.439 . S
Cd597 O607 2.240 . S
Cd598 O599 2.240 . S
Cd598 O606 2.223 . S
Cd598 O608 2.297 . S
Cd598 O609 2.439 . S
O599 Cd598 2.240 . S
O599 C604 1.279 . S
O600 Cd597 2.297 . S
O600 C602 1.247 . S
O601 Cd597 2.439 . S
O601 C602 1.208 . S
C602 O600 1.247 . S
C602 O601 1.208 . S
C603 O608 1.247 . S
C603 O609 1.208 . S
C604 O596 1.315 . S
C604 O599 1.279 . S
C605 O606 1.315 . S
C605 O607 1.279 . S
O606 Cd598 2.223 . S
O606 C605 1.315 . S
O607 Cd597 2.240 . S
O607 C605 1.279 . S
O608 Cd598 2.297 . S
O608 C603 1.247 . S
O609 Cd598 2.439 . S
O609 C603 1.208 . S
O610 Cd611 2.223 1_545 S
O610 C618 1.315 . S
Cd611 O610 2.223 1_565 S
Cd611 O614 2.297 . S
Cd611 O615 2.439 . S
Cd611 O621 2.240 1_565 S
Cd612 O613 2.240 . S
Cd612 O620 2.223 . S
Cd612 O622 2.297 . S
Cd612 O623 2.439 1_545 S
O613 Cd612 2.240 . S
O613 C618 1.279 . S
O614 Cd611 2.297 . S
O614 C616 1.247 . S
O615 Cd611 2.439 . S
O615 C616 1.208 . S
C616 O614 1.247 . S
C616 O615 1.208 . S
C617 O622 1.247 1_565 S
C617 O623 1.208 . S
C618 O610 1.315 . S
C618 O613 1.279 . S
C619 O620 1.315 . S
C619 O621 1.279 . S
O620 Cd612 2.223 . S
O620 C619 1.315 . S
O621 Cd611 2.240 1_545 S
O621 C619 1.279 . S
O622 Cd612 2.297 . S
O622 C617 1.247 1_545 S
O623 Cd612 2.439 1_565 S
O623 C617 1.208 . S
O624 Cd625 2.223 . S
O624 C632 1.315 . S
Cd625 O624 2.223 . S
Cd625 O628 2.297 1_655 S
Cd625 O629 2.439 1_655 S
Cd625 O635 2.240 . S
Cd626 O627 2.240 . S
Cd626 O634 2.223 1_455 S
Cd626 O636 2.297 . S
Cd626 O637 2.439 . S
O627 Cd626 2.240 . S
O627 C632 1.279 1_455 S
O628 Cd625 2.297 1_455 S
O628 C630 1.247 . S
O629 Cd625 2.439 1_455 S
O629 C630 1.208 . S
C630 O628 1.247 . S
C630 O629 1.208 . S
C631 O636 1.247 . S
C631 O637 1.208 . S
C632 O624 1.315 . S
C632 O627 1.279 1_655 S
C633 O634 1.315 . S
C633 O635 1.279 . S
O634 Cd626 2.223 1_655 S
O634 C633 1.315 . S
O635 Cd625 2.240 . S
O635 C633 1.279 . S
O636 Cd626 2.297 . S
O636 C631 1.247 . S
O637 Cd626 2.439 . S
O637 C631 1.208 . S
O638 Cd639 2.223 . S
O638 C646 1.315 . S
Cd639 O638 2.223 . S
Cd639 O642 2.297 . S
Cd639 O643 2.439 . S
Cd639 O649 2.240 . S
Cd640 O641 2.240 . S
Cd640 O648 2.223 . S
Cd640 O650 2.297 . S
Cd640 O651 2.439 . S
O641 Cd640 2.240 . S
O641 C646 1.279 . S
O642 Cd639 2.297 . S
O642 C644 1.247 . S
O643 Cd639 2.439 . S
O643 C644 1.208 . S
C644 O642 1.247 . S
C644 O643 1.208 . S
C645 O650 1.247 . S
C645 O651 1.208 . S
C646 O638 1.315 . S
C646 O641 1.279 . S
C647 O648 1.315 . S
C647 O649 1.279 . S
O648 Cd640 2.223 . S
O648 C647 1.315 . S
O649 Cd639 2.240 . S
O649 C647 1.279 . S
O650 Cd640 2.297 . S
O650 C645 1.247 . S
O651 Cd640 2.439 . S
O651 C645 1.208 . S
O652 Cd653 2.223 1_655 S
O652 C660 1.315 . S
Cd653 O652 2.223 1_455 S
Cd653 O656 2.297 . S
Cd653 O657 2.439 . S
Cd653 O663 2.240 . S
Cd654 O655 2.240 . S
Cd654 O662 2.223 . S
Cd654 O664 2.297 1_655 S
Cd654 O665 2.439 1_655 S
O655 Cd654 2.240 . S
O655 C660 1.279 . S
O656 Cd653 2.297 . S
O656 C658 1.247 . S
O657 Cd653 2.439 . S
O657 C658 1.208 . S
C658 O656 1.247 . S
C658 O657 1.208 . S
C659 O664 1.247 . S
C659 O665 1.208 . S
C660 O652 1.315 . S
C660 O655 1.279 . S
C661 O662 1.315 . S
C661 O663 1.279 1_655 S
O662 Cd654 2.223 . S
O662 C661 1.315 . S
O663 Cd653 2.240 . S
O663 C661 1.279 1_455 S
O664 Cd654 2.297 1_455 S
O664 C659 1.247 . S
O665 Cd654 2.439 1_455 S
O665 C659 1.208 . S
O666 Cd667 2.223 . S
O666 C674 1.315 . S
Cd667 O666 2.223 . S
Cd667 O670 2.297 . S
Cd667 O671 2.439 . S
Cd667 O677 2.240 . S
Cd668 O669 2.240 . S
Cd668 O676 2.223 . S
Cd668 O678 2.297 . S
Cd668 O679 2.439 . S
O669 Cd668 2.240 . S
O669 C674 1.279 . S
O670 Cd667 2.297 . S
O670 C672 1.247 . S
O671 Cd667 2.439 . S
O671 C672 1.208 . S
C672 O670 1.247 . S
C672 O671 1.208 . S
C673 O678 1.247 . S
C673 O679 1.208 . S
C674 O666 1.315 . S
C674 O669 1.279 . S
C675 O676 1.315 . S
C675 O677 1.279 . S
O676 Cd668 2.223 . S
O676 C675 1.315 . S
O677 Cd667 2.240 . S
O677 C675 1.279 . S
O678 Cd668 2.297 . S
O678 C673 1.247 . S
O679 Cd668 2.439 . S
O679 C673 1.208 . S
H680 C688 0.929 . S
H681 C690 0.930 . S
H682 C692 0.930 . S
H683 C695 0.929 . S
H684 C698 0.930 . S
H685 C700 0.960 . S
H686 C700 0.960 . S
H687 C700 0.960 . S
C688 H680 0.929 . S
C688 C689 1.377 . S
C688 C690 1.384 . S
C689 C688 1.377 . S
C689 C695 1.390 . S
C690 H681 0.930 . S
C690 C688 1.384 . S
C690 C691 1.372 . S
C691 C690 1.372 . S
C691 C692 1.400 . S
C691 C696 1.490 . S
C692 H682 0.930 . S
C692 C691 1.400 . S
C692 C695 1.386 . S
H693 C709 0.930 . S
H694 C710 0.931 . S
C695 H683 0.929 . S
C695 C689 1.390 . S
C695 C692 1.386 . S
C696 C691 1.490 . S
C696 C698 1.395 . S
C696 C699 1.403 . S
H697 C703 0.930 . S
C698 H684 0.930 . S
C698 C696 1.395 . S
C698 C701 1.403 . S
C699 C696 1.403 . S
C699 C700 1.524 . S
C699 C703 1.400 . S
C700 H685 0.960 . S
C700 H686 0.960 . S
C700 H687 0.960 . S
C700 C699 1.524 . S
C701 C698 1.403 . S
C701 C702 1.392 . S
C701 C705 1.495 . S
C702 C701 1.392 . S
C702 C703 1.385 . S
C702 C704 1.478 . S
C703 H697 0.930 . S
C703 C699 1.400 . S
C703 C702 1.385 . S
C704 C702 1.478 . S
C704 C706 1.381 . S
C704 C710 1.383 . S
C705 C701 1.495 . S
C705 H711 0.959 . S
C705 H712 0.961 . S
C705 H713 0.960 . S
C706 C704 1.381 . S
C706 C707 1.447 . S
C706 H714 0.930 . S
C707 C706 1.447 . S
C707 C708 1.378 1_556 S
C707 H715 0.885 1_556 S
C708 C707 1.378 1_554 S
C708 C709 1.377 1_554 S
C709 H693 0.930 . S
C709 C708 1.377 1_556 S
C709 C710 1.379 . S
C710 H694 0.931 . S
C710 C704 1.383 . S
C710 C709 1.379 . S
H711 C705 0.959 . S
H712 C705 0.961 . S
H713 C705 0.960 . S
H714 C706 0.930 . S
H715 C707 0.885 1_554 S
H716 C724 0.929 . S
H717 C726 0.930 1_455 S
H718 C728 0.930 . S
H719 C731 0.929 . S
H720 C734 0.930 . S
H721 C736 0.960 . S
H722 C736 0.960 . S
H723 C736 0.960 . S
C724 H716 0.929 . S
C724 C725 1.377 . S
C724 C726 1.384 . S
C725 C724 1.377 . S
C725 C731 1.390 . S
C726 H717 0.930 1_655 S
C726 C724 1.384 . S
C726 C727 1.372 . S
C727 C726 1.372 . S
C727 C728 1.400 . S
C727 C732 1.490 1_655 S
C728 H718 0.930 . S
C728 C727 1.400 . S
C728 C731 1.386 . S
H729 C745 0.930 . S
H730 C746 0.931 . S
C731 H719 0.929 . S
C731 C725 1.390 . S
C731 C728 1.386 . S
C732 C727 1.490 1_455 S
C732 C734 1.395 . S
C732 C735 1.403 . S
H733 C739 0.930 . S
C734 H720 0.930 . S
C734 C732 1.395 . S
C734 C737 1.403 . S
C735 C732 1.403 . S
C735 C736 1.524 1_455 S
C735 C739 1.400 . S
C736 H721 0.960 . S
C736 H722 0.960 . S
C736 H723 0.960 . S
C736 C735 1.524 1_655 S
C737 C734 1.403 . S
C737 C738 1.392 . S
C737 C741 1.495 . S
C738 C737 1.392 . S
C738 C739 1.385 . S
C738 C740 1.478 . S
C739 H733 0.930 . S
C739 C735 1.400 . S
C739 C738 1.385 . S
C740 C738 1.478 . S
C740 C742 1.381 . S
C740 C746 1.383 . S
C741 C737 1.495 . S
C741 H747 0.959 . S
C741 H748 0.961 . S
C741 H749 0.960 . S
C742 C740 1.381 . S
C742 C743 1.394 . S
C742 H750 0.930 . S
C743 C742 1.394 . S
C743 C744 1.383 . S
C743 H751 0.929 . S
C744 C743 1.383 . S
C744 C745 1.377 . S
C745 H729 0.930 . S
C745 C744 1.377 . S
C745 C746 1.379 . S
C746 H730 0.931 . S
C746 C740 1.383 . S
C746 C745 1.379 . S
H747 C741 0.959 . S
H748 C741 0.961 . S
H749 C741 0.960 . S
H750 C742 0.930 . S
H751 C743 0.929 . S
H752 C760 0.929 . S
H753 C762 0.930 . S
H754 C764 0.930 . S
H755 C767 0.929 . S
H756 C770 0.930 . S
H757 C772 0.960 . S
H758 C772 0.960 . S
H759 C772 0.960 . S
C760 H752 0.929 . S
C760 C761 1.377 . S
C760 C762 1.384 . S
C761 C760 1.377 . S
C761 C767 1.390 . S
C762 H753 0.930 . S
C762 C760 1.384 . S
C762 C763 1.372 . S
C763 C762 1.372 . S
C763 C764 1.400 . S
C763 C768 1.490 . S
C764 H754 0.930 . S
C764 C763 1.400 . S
C764 C767 1.386 . S
H765 C781 0.930 . S
H766 C782 0.931 . S
C767 H755 0.929 . S
C767 C761 1.390 . S
C767 C764 1.386 . S
C768 C763 1.490 . S
C768 C770 1.395 . S
C768 C771 1.403 . S
H769 C775 0.930 . S
C770 H756 0.930 . S
C770 C768 1.395 . S
C770 C773 1.403 . S
C771 C768 1.403 . S
C771 C772 1.524 . S
C771 C775 1.400 . S
C772 H757 0.960 . S
C772 H758 0.960 . S
C772 H759 0.960 . S
C772 C771 1.524 . S
C773 C770 1.403 . S
C773 C774 1.392 . S
C773 C777 1.495 . S
C774 C773 1.392 . S
C774 C775 1.385 . S
C774 C776 1.478 . S
C775 H769 0.930 . S
C775 C771 1.400 . S
C775 C774 1.385 . S
C776 C774 1.478 . S
C776 C778 1.381 . S
C776 C782 1.383 . S
C777 C773 1.495 . S
C777 H783 0.959 . S
C777 H784 0.961 . S
C777 H785 0.960 . S
C778 C776 1.381 . S
C778 C779 1.394 . S
C778 H786 0.930 . S
C779 C778 1.394 . S
C779 C780 1.383 . S
C779 H787 0.929 . S
C780 C779 1.383 . S
C780 C781 1.377 . S
C781 H765 0.930 . S
C781 C780 1.377 . S
C781 C782 1.379 . S
C782 H766 0.931 . S
C782 C776 1.383 . S
C782 C781 1.379 . S
H783 C777 0.959 . S
H784 C777 0.961 . S
H785 C777 0.960 . S
H786 C778 0.930 . S
H787 C779 0.929 . S
H788 C796 0.929 . S
H789 C798 0.930 1_655 S
H790 C800 0.930 1_545 S
H791 C803 0.929 . S
H792 C806 0.930 . S
H793 C808 0.960 . S
H794 C808 0.960 1_565 S
H795 C808 0.960 . S
C796 H788 0.929 . S
C796 C797 1.377 . S
C796 C798 1.384 . S
C797 C796 1.377 . S
C797 C803 1.390 . S
C798 H789 0.930 1_455 S
C798 C796 1.384 . S
C798 C799 1.372 . S
C799 C798 1.372 . S
C799 C800 1.400 . S
C799 C804 1.490 1_455 S
C800 H790 0.930 1_565 S
C800 C799 1.400 . S
C800 C803 1.386 . S
H801 C817 0.930 . S
H802 C818 0.931 . S
C803 H791 0.929 . S
C803 C797 1.390 . S
C803 C800 1.386 . S
C804 C799 1.490 1_655 S
C804 C806 1.395 . S
C804 C807 1.393 1_565 S
H805 C811 0.930 . S
C806 H792 0.930 . S
C806 C804 1.395 . S
C806 C809 1.403 . S
C807 C804 1.393 1_545 S
C807 C808 1.526 1_655 S
C807 C811 1.407 . S
C808 H793 0.960 . S
C808 H794 0.960 1_545 S
C808 H795 0.960 . S
C808 C807 1.526 1_455 S
C809 C806 1.403 . S
C809 C810 1.392 1_565 S
C809 C813 1.495 . S
C810 C809 1.392 1_545 S
C810 C811 1.385 . S
C810 C812 1.478 . S
C811 H805 0.930 . S
C811 C807 1.407 . S
C811 C810 1.385 . S
C812 C810 1.478 . S
C812 C814 1.381 . S
C812 C818 1.383 . S
C813 C809 1.495 . S
C813 H819 0.959 . S
C813 H820 0.961 . S
C813 H821 0.960 . S
C814 C812 1.381 . S
C814 C815 1.394 . S
C814 H822 0.930 1_545 S
C815 C814 1.394 . S
C815 C816 1.383 . S
C815 H823 0.929 . S
C816 C815 1.383 . S
C816 C817 1.377 . S
C817 H801 0.930 . S
C817 C816 1.377 . S
C817 C818 1.379 . S
C818 H802 0.931 . S
C818 C812 1.383 . S
C818 C817 1.379 . S
H819 C813 0.959 . S
H820 C813 0.961 . S
H821 C813 0.960 . S
H822 C814 0.930 1_565 S
H823 C815 0.929 . S
H824 C832 0.929 . S
H825 C834 0.930 . S
H826 C836 0.930 . S
H827 C839 0.929 . S
H828 C842 0.930 . S
H829 C844 0.960 . S
H830 C844 0.960 . S
H831 C844 0.960 . S
C832 H824 0.929 . S
C832 C833 1.377 . S
C832 C834 1.384 . S
C833 C832 1.377 . S
C833 C839 1.390 . S
C834 H825 0.930 . S
C834 C832 1.384 . S
C834 C835 1.372 . S
C835 C834 1.372 . S
C835 C836 1.400 . S
C835 C840 1.490 . S
C836 H826 0.930 . S
C836 C835 1.400 . S
C836 C839 1.386 . S
H837 C853 0.930 . S
H838 C854 0.931 . S
C839 H827 0.929 . S
C839 C833 1.390 . S
C839 C836 1.386 . S
C840 C835 1.490 . S
C840 C842 1.395 . S
C840 C843 1.403 . S
H841 C847 0.930 . S
C842 H828 0.930 . S
C842 C840 1.395 . S
C842 C845 1.403 . S
C843 C840 1.403 . S
C843 C844 1.524 . S
C843 C847 1.400 . S
C844 H829 0.960 . S
C844 H830 0.960 . S
C844 H831 0.960 . S
C844 C843 1.524 . S
C845 C842 1.403 . S
C845 C846 1.392 . S
C845 C849 1.495 . S
C846 C845 1.392 . S
C846 C847 1.385 . S
C846 C848 1.478 . S
C847 H841 0.930 . S
C847 C843 1.400 . S
C847 C846 1.385 . S
C848 C846 1.478 . S
C848 C850 1.381 . S
C848 C854 1.383 . S
C849 C845 1.495 . S
C849 H855 0.959 . S
C849 H856 0.961 . S
C849 H857 0.960 . S
C850 C848 1.381 . S
C850 C851 1.394 . S
C850 H858 0.930 . S
C851 C850 1.394 . S
C851 C852 1.383 . S
C851 H859 0.929 . S
C852 C851 1.383 . S
C852 C853 1.377 . S
C853 H837 0.930 . S
C853 C852 1.377 . S
C853 C854 1.379 . S
C854 H838 0.931 . S
C854 C848 1.383 . S
C854 C853 1.379 . S
H855 C849 0.959 . S
H856 C849 0.961 . S
H857 C849 0.960 . S
H858 C850 0.930 . S
H859 C851 0.929 . S
H860 C868 0.929 . S
H861 C870 0.930 . S
H862 C872 0.930 . S
H863 C875 0.929 . S
H864 C878 0.930 . S
H865 C880 0.960 . S
H866 C880 0.960 . S
H867 C880 0.960 . S
C868 H860 0.929 . S
C868 C869 1.377 . S
C868 C870 1.384 . S
C869 C868 1.377 . S
C869 C875 1.390 . S
C870 H861 0.930 . S
C870 C868 1.384 . S
C870 C871 1.372 . S
C871 C870 1.372 . S
C871 C872 1.400 . S
C871 C876 1.490 . S
C872 H862 0.930 . S
C872 C871 1.400 . S
C872 C875 1.386 . S
H873 C889 0.930 . S
H874 C890 0.931 . S
C875 H863 0.929 . S
C875 C869 1.390 . S
C875 C872 1.386 . S
C876 C871 1.490 . S
C876 C878 1.395 . S
C876 C879 1.403 . S
H877 C883 0.930 . S
C878 H864 0.930 . S
C878 C876 1.395 . S
C878 C881 1.403 . S
C879 C876 1.403 . S
C879 C880 1.524 . S
C879 C883 1.400 . S
C880 H865 0.960 . S
C880 H866 0.960 . S
C880 H867 0.960 . S
C880 C879 1.524 . S
C881 C878 1.403 . S
C881 C882 1.392 . S
C881 C885 1.495 . S
C882 C881 1.392 . S
C882 C883 1.385 . S
C882 C884 1.478 . S
C883 H877 0.930 . S
C883 C879 1.400 . S
C883 C882 1.385 . S
C884 C882 1.478 . S
C884 C886 1.381 . S
C884 C890 1.383 . S
C885 C881 1.495 . S
C885 H891 0.959 . S
C885 H892 0.961 . S
C885 H893 0.960 . S
C886 C884 1.381 . S
C886 C887 1.394 . S
C886 H894 0.930 . S
C887 C886 1.394 . S
C887 C888 1.383 . S
C887 H895 0.929 . S
C888 C887 1.383 . S
C888 C889 1.377 . S
C889 H873 0.930 . S
C889 C888 1.377 . S
C889 C890 1.379 . S
C890 H874 0.931 . S
C890 C884 1.383 . S
C890 C889 1.379 . S
H891 C885 0.959 . S
H892 C885 0.961 . S
H893 C885 0.960 . S
H894 C886 0.930 . S
H895 C887 0.929 . S
H896 C904 0.929 . S
H897 C906 0.930 . S
H898 C908 0.930 . S
H899 C911 0.929 . S
H900 C914 0.930 . S
H901 C916 0.960 . S
H902 C916 0.960 . S
H903 C916 0.960 . S
C904 H896 0.929 . S
C904 C905 1.377 . S
C904 C906 1.384 . S
C905 C904 1.377 . S
C905 C911 1.390 . S
C906 H897 0.930 . S
C906 C904 1.384 . S
C906 C907 1.372 . S
C907 C906 1.372 . S
C907 C908 1.400 . S
C907 C912 1.490 . S
C908 H898 0.930 . S
C908 C907 1.400 . S
C908 C911 1.386 . S
H909 C925 0.930 . S
H910 C926 0.931 . S
C911 H899 0.929 . S
C911 C905 1.390 . S
C911 C908 1.386 . S
C912 C907 1.490 . S
C912 C914 1.395 . S
C912 C915 1.403 . S
H913 C919 0.930 . S
C914 H900 0.930 . S
C914 C912 1.395 . S
C914 C917 1.403 . S
C915 C912 1.403 . S
C915 C916 1.524 . S
C915 C919 1.400 . S
C916 H901 0.960 . S
C916 H902 0.960 . S
C916 H903 0.960 . S
C916 C915 1.524 . S
C917 C914 1.403 . S
C917 C918 1.392 . S
C917 C921 1.495 . S
C918 C917 1.392 . S
C918 C919 1.385 . S
C918 C920 1.478 . S
C919 H913 0.930 . S
C919 C915 1.400 . S
C919 C918 1.385 . S
C920 C918 1.478 . S
C920 C922 1.381 . S
C920 C926 1.383 . S
C921 C917 1.495 . S
C921 H927 0.959 . S
C921 H928 0.961 . S
C921 H929 0.960 . S
C922 C920 1.381 . S
C922 C923 1.394 . S
C922 H930 0.930 . S
C923 C922 1.394 . S
C923 C924 1.383 . S
C923 H931 0.929 . S
C924 C923 1.383 . S
C924 C925 1.377 . S
C925 H909 0.930 . S
C925 C924 1.377 . S
C925 C926 1.379 . S
C926 H910 0.931 . S
C926 C920 1.383 . S
C926 C925 1.379 . S
H927 C921 0.959 . S
H928 C921 0.961 . S
H929 C921 0.960 . S
H930 C922 0.930 . S
H931 C923 0.929 . S
H932 C940 0.929 . S
H933 C942 0.930 . S
H934 C944 0.930 . S
H935 C947 0.929 . S
H936 C950 0.930 . S
H937 C952 0.960 . S
H938 C952 0.960 . S
H939 C952 0.960 . S
C940 H932 0.929 . S
C940 C941 1.377 . S
C940 C942 1.384 . S
C941 C940 1.377 . S
C941 C947 1.390 . S
C942 H933 0.930 . S
C942 C940 1.384 . S
C942 C943 1.372 . S
C943 C942 1.372 . S
C943 C944 1.400 . S
C943 C948 1.490 . S
C944 H934 0.930 . S
C944 C943 1.400 . S
C944 C947 1.386 . S
H945 C961 0.930 1_545 S
H946 C962 0.931 . S
C947 H935 0.929 . S
C947 C941 1.390 . S
C947 C944 1.386 . S
C948 C943 1.490 . S
C948 C950 1.395 . S
C948 C951 1.403 . S
H949 C955 0.930 . S
C950 H936 0.930 . S
C950 C948 1.395 . S
C950 C953 1.403 . S
C951 C948 1.403 . S
C951 C952 1.524 . S
C951 C955 1.400 . S
C952 H937 0.960 . S
C952 H938 0.960 . S
C952 H939 0.960 . S
C952 C951 1.524 . S
C953 C950 1.403 . S
C953 C954 1.392 . S
C953 C957 1.495 . S
C954 C953 1.392 . S
C954 C955 1.385 . S
C954 C956 1.478 . S
C955 H949 0.930 . S
C955 C951 1.400 . S
C955 C954 1.385 . S
C956 C954 1.478 . S
C956 C958 1.381 . S
C956 C962 1.383 . S
C957 C953 1.495 . S
C957 H963 0.959 . S
C957 H964 0.961 . S
C957 H965 0.960 . S
C958 C956 1.381 . S
C958 C959 1.394 . S
C958 H966 0.930 . S
C959 C958 1.394 . S
C959 C960 1.383 . S
C959 H967 0.929 . S
C960 C959 1.383 . S
C960 C961 1.377 . S
C961 H945 0.930 1_565 S
C961 C960 1.377 . S
C961 C962 1.379 . S
C962 H946 0.931 . S
C962 C956 1.383 . S
C962 C961 1.379 . S
H963 C957 0.959 . S
H964 C957 0.961 . S
H965 C957 0.960 . S
H966 C958 0.930 . S
H967 C959 0.929 . S
H968 C976 0.929 . S
H969 C978 0.930 . S
H970 C980 0.930 . S
H971 C983 0.929 . S
H972 C986 0.930 . S
H973 C988 0.960 . S
H974 C988 0.960 . S
H975 C988 0.960 . S
C976 H968 0.929 . S
C976 C977 1.377 . S
C976 C978 1.384 . S
C977 C976 1.377 . S
C977 C983 1.390 . S
C978 H969 0.930 . S
C978 C976 1.384 . S
C978 C979 1.372 . S
C979 C978 1.372 . S
C979 C980 1.400 . S
C979 C984 1.490 . S
C980 H970 0.930 . S
C980 C979 1.400 . S
C980 C983 1.386 . S
H981 C997 0.930 . S
H982 C998 0.931 . S
C983 H971 0.929 . S
C983 C977 1.390 . S
C983 C980 1.386 . S
C984 C979 1.490 . S
C984 C986 1.395 . S
C984 C987 1.403 . S
H985 C991 0.930 . S
C986 H972 0.930 . S
C986 C984 1.395 . S
C986 C989 1.403 . S
C987 C984 1.403 . S
C987 C988 1.524 . S
C987 C991 1.400 . S
C988 H973 0.960 . S
C988 H974 0.960 . S
C988 H975 0.960 . S
C988 C987 1.524 . S
C989 C986 1.403 . S
C989 C990 1.392 . S
C989 C993 1.495 . S
C990 C989 1.392 . S
C990 C991 1.385 . S
C990 C992 1.478 . S
C991 H985 0.930 . S
C991 C987 1.400 . S
C991 C990 1.385 . S
C992 C990 1.478 . S
C992 C994 1.381 . S
C992 C998 1.383 . S
C993 C989 1.495 . S
C993 H999 0.959 . S
C993 H1000 0.961 . S
C993 H1001 0.960 . S
C994 C992 1.381 . S
C994 C995 1.394 . S
C994 H1002 0.930 . S
C995 C994 1.394 . S
C995 C996 1.383 . S
C995 H1003 0.929 . S
C996 C995 1.383 . S
C996 C997 1.377 . S
C997 H981 0.930 . S
C997 C996 1.377 . S
C997 C998 1.379 . S
C998 H982 0.931 . S
C998 C992 1.383 . S
C998 C997 1.379 . S
H999 C993 0.959 . S
H1000 C993 0.961 . S
H1001 C993 0.960 . S
H1002 C994 0.930 . S
H1003 C995 0.929 . S
H1004 C1012 0.929 . S
H1005 C1014 0.930 . S
H1006 C1016 0.930 . S
H1007 C1019 0.929 . S
H1008 C1022 0.930 . S
H1009 C1024 0.960 . S
H1010 C1024 0.960 . S
H1011 C1024 0.960 . S
C1012 H1004 0.929 . S
C1012 C1013 1.377 . S
C1012 C1014 1.384 . S
C1013 C1012 1.377 . S
C1013 C1019 1.390 . S
C1014 H1005 0.930 . S
C1014 C1012 1.384 . S
C1014 C1015 1.372 . S
C1015 C1014 1.372 . S
C1015 C1016 1.400 . S
C1015 C1020 1.490 . S
C1016 H1006 0.930 . S
C1016 C1015 1.400 . S
C1016 C1019 1.386 . S
H1017 C1033 0.930 . S
H1018 C1034 0.931 . S
C1019 H1007 0.929 . S
C1019 C1013 1.390 . S
C1019 C1016 1.386 . S
C1020 C1015 1.490 . S
C1020 C1022 1.395 . S
C1020 C1023 1.403 . S
H1021 C1027 0.930 . S
C1022 H1008 0.930 . S
C1022 C1020 1.395 . S
C1022 C1025 1.403 . S
C1023 C1020 1.403 . S
C1023 C1024 1.524 . S
C1023 C1027 1.400 . S
C1024 H1009 0.960 . S
C1024 H1010 0.960 . S
C1024 H1011 0.960 . S
C1024 C1023 1.524 . S
C1025 C1022 1.403 . S
C1025 C1026 1.392 . S
C1025 C1029 1.495 . S
C1026 C1025 1.392 . S
C1026 C1027 1.385 . S
C1026 C1028 1.478 . S
C1027 H1021 0.930 . S
C1027 C1023 1.400 . S
C1027 C1026 1.385 . S
C1028 C1026 1.478 . S
C1028 C1030 1.381 . S
C1028 C1034 1.383 . S
C1029 C1025 1.495 . S
C1029 H1035 0.959 . S
C1029 H1036 0.961 . S
C1029 H1037 0.960 . S
C1030 C1028 1.381 . S
C1030 C1031 1.394 . S
C1030 H1038 0.930 . S
C1031 C1030 1.394 . S
C1031 C1032 1.383 . S
C1031 H1039 0.929 . S
C1032 C1031 1.383 . S
C1032 C1033 1.377 . S
C1033 H1017 0.930 . S
C1033 C1032 1.377 . S
C1033 C1034 1.379 . S
C1034 H1018 0.931 . S
C1034 C1028 1.383 . S
C1034 C1033 1.379 . S
H1035 C1029 0.959 . S
H1036 C1029 0.961 . S
H1037 C1029 0.960 . S
H1038 C1030 0.930 . S
H1039 C1031 0.929 . S
H1040 C1048 0.929 . S
H1041 C1050 0.930 . S
H1042 C1052 0.930 . S
H1043 C1055 0.929 . S
H1044 C1058 0.930 . S
H1045 C1060 0.960 . S
H1046 C1060 0.960 . S
H1047 C1060 0.960 . S
C1048 H1040 0.929 . S
C1048 C1049 1.377 . S
C1048 C1050 1.384 . S
C1049 C1048 1.377 . S
C1049 C1055 1.390 . S
C1050 H1041 0.930 . S
C1050 C1048 1.384 . S
C1050 C1051 1.372 . S
C1051 C1050 1.372 . S
C1051 C1052 1.400 . S
C1051 C1056 1.490 . S
C1052 H1042 0.930 . S
C1052 C1051 1.400 . S
C1052 C1055 1.386 . S
H1053 C1069 0.930 . S
H1054 C1070 0.931 . S
C1055 H1043 0.929 . S
C1055 C1049 1.390 . S
C1055 C1052 1.386 . S
C1056 C1051 1.490 . S
C1056 C1058 1.395 . S
C1056 C1059 1.403 . S
H1057 C1063 0.930 . S
C1058 H1044 0.930 . S
C1058 C1056 1.395 . S
C1058 C1061 1.403 . S
C1059 C1056 1.403 . S
C1059 C1060 1.524 . S
C1059 C1063 1.400 . S
C1060 H1045 0.960 . S
C1060 H1046 0.960 . S
C1060 H1047 0.960 . S
C1060 C1059 1.524 . S
C1061 C1058 1.403 . S
C1061 C1062 1.392 . S
C1061 C1065 1.495 . S
C1062 C1061 1.392 . S
C1062 C1063 1.385 . S
C1062 C1064 1.478 . S
C1063 H1057 0.930 . S
C1063 C1059 1.400 . S
C1063 C1062 1.385 . S
C1064 C1062 1.478 . S
C1064 C1066 1.381 . S
C1064 C1070 1.383 . S
C1065 C1061 1.495 . S
C1065 H1071 0.959 . S
C1065 H1072 0.961 . S
C1065 H1073 0.960 . S
C1066 C1064 1.381 . S
C1066 C1067 1.394 . S
C1066 H1074 0.930 . S
C1067 C1066 1.394 . S
C1067 C1068 1.383 . S
C1067 H1075 0.929 . S
C1068 C1067 1.383 . S
C1068 C1069 1.377 . S
C1069 H1053 0.930 . S
C1069 C1068 1.377 . S
C1069 C1070 1.379 . S
C1070 H1054 0.931 . S
C1070 C1064 1.383 . S
C1070 C1069 1.379 . S
H1071 C1065 0.959 . S
H1072 C1065 0.961 . S
H1073 C1065 0.960 . S
H1074 C1066 0.930 . S
H1075 C1067 0.929 . S
H1076 C1084 0.929 . S
H1077 C1086 0.930 . S
H1078 C1088 0.930 . S
H1079 C1091 0.929 . S
H1080 C1094 0.930 . S
H1081 C1096 0.960 . S
H1082 C1096 0.960 . S
H1083 C1096 0.960 . S
C1084 H1076 0.929 . S
C1084 C1085 1.377 . S
C1084 C1086 1.384 . S
C1085 C1084 1.377 . S
C1085 C1091 1.390 . S
C1086 H1077 0.930 . S
C1086 C1084 1.384 . S
C1086 C1087 1.372 . S
C1087 C1086 1.372 . S
C1087 C1088 1.400 . S
C1087 C1092 1.490 . S
C1088 H1078 0.930 . S
C1088 C1087 1.400 . S
C1088 C1091 1.386 . S
H1089 C1105 0.930 . S
H1090 C1106 0.931 . S
C1091 H1079 0.929 . S
C1091 C1085 1.390 . S
C1091 C1088 1.386 . S
C1092 C1087 1.490 . S
C1092 C1094 1.395 . S
C1092 C1095 1.403 . S
H1093 C1099 0.930 . S
C1094 H1080 0.930 . S
C1094 C1092 1.395 . S
C1094 C1097 1.403 . S
C1095 C1092 1.403 . S
C1095 C1096 1.524 . S
C1095 C1099 1.400 . S
C1096 H1081 0.960 . S
C1096 H1082 0.960 . S
C1096 H1083 0.960 . S
C1096 C1095 1.524 . S
C1097 C1094 1.403 . S
C1097 C1098 1.392 . S
C1097 C1101 1.495 . S
C1098 C1097 1.392 . S
C1098 C1099 1.385 . S
C1098 C1100 1.478 . S
C1099 H1093 0.930 . S
C1099 C1095 1.400 . S
C1099 C1098 1.385 . S
C1100 C1098 1.478 . S
C1100 C1102 1.381 . S
C1100 C1106 1.383 . S
C1101 C1097 1.495 . S
C1101 H1107 0.959 . S
C1101 H1108 0.961 . S
C1101 H1109 0.960 . S
C1102 C1100 1.381 . S
C1102 C1103 1.394 . S
C1102 H1110 0.930 . S
C1103 C1102 1.394 . S
C1103 C1104 1.383 . S
C1103 H1111 0.929 . S
C1104 C1103 1.383 . S
C1104 C1105 1.377 . S
C1105 H1089 0.930 . S
C1105 C1104 1.377 . S
C1105 C1106 1.379 . S
C1106 H1090 0.931 . S
C1106 C1100 1.383 . S
C1106 C1105 1.379 . S
H1107 C1101 0.959 . S
H1108 C1101 0.961 . S
H1109 C1101 0.960 . S
H1110 C1102 0.930 . S
H1111 C1103 0.929 . S
H1112 C1120 0.929 . S
H1113 C1122 0.930 . S
H1114 C1124 0.930 . S
H1115 C1127 0.929 . S
H1116 C1130 0.930 . S
H1117 C1132 0.960 . S
H1118 C1132 0.960 . S
H1119 C1132 0.960 . S
C1120 H1112 0.929 . S
C1120 C1121 1.377 . S
C1120 C1122 1.384 . S
C1121 C1120 1.377 . S
C1121 C1127 1.390 . S
C1122 H1113 0.930 . S
C1122 C1120 1.384 . S
C1122 C1123 1.372 . S
C1123 C1122 1.372 . S
C1123 C1124 1.400 . S
C1123 C1128 1.490 . S
C1124 H1114 0.930 . S
C1124 C1123 1.400 . S
C1124 C1127 1.386 . S
H1125 C1141 0.930 . S
H1126 C1142 0.931 . S
C1127 H1115 0.929 . S
C1127 C1121 1.390 . S
C1127 C1124 1.386 . S
C1128 C1123 1.490 . S
C1128 C1130 1.395 . S
C1128 C1131 1.403 . S
H1129 C1135 0.930 . S
C1130 H1116 0.930 . S
C1130 C1128 1.395 . S
C1130 C1133 1.403 . S
C1131 C1128 1.403 . S
C1131 C1132 1.524 . S
C1131 C1135 1.400 . S
C1132 H1117 0.960 . S
C1132 H1118 0.960 . S
C1132 H1119 0.960 . S
C1132 C1131 1.524 . S
C1133 C1130 1.403 . S
C1133 C1134 1.392 . S
C1133 C1137 1.495 . S
C1134 C1133 1.392 . S
C1134 C1135 1.385 . S
C1134 C1136 1.478 . S
C1135 H1129 0.930 . S
C1135 C1131 1.400 . S
C1135 C1134 1.385 . S
C1136 C1134 1.478 . S
C1136 C1138 1.381 . S
C1136 C1142 1.383 . S
C1137 C1133 1.495 . S
C1137 H1143 0.959 . S
C1137 H1144 0.961 . S
C1137 H1145 0.960 . S
C1138 C1136 1.381 . S
C1138 C1139 1.394 . S
C1138 H1146 0.930 . S
C1139 C1138 1.394 . S
C1139 C1140 1.383 . S
C1139 H1147 0.929 . S
C1140 C1139 1.383 . S
C1140 C1141 1.377 . S
C1141 H1125 0.930 . S
C1141 C1140 1.377 . S
C1141 C1142 1.379 . S
C1142 H1126 0.931 . S
C1142 C1136 1.383 . S
C1142 C1141 1.379 . S
H1143 C1137 0.959 . S
H1144 C1137 0.961 . S
H1145 C1137 0.960 . S
H1146 C1138 0.930 . S
H1147 C1139 0.929 . S
H1148 C1156 0.929 . S
H1149 C1158 0.930 . S
H1150 C1160 0.930 . S
H1151 C1163 0.929 . S
H1152 C1166 0.930 . S
H1153 C1168 0.960 . S
H1154 C1168 0.960 . S
H1155 C1168 0.960 . S
C1156 H1148 0.929 . S
C1156 C1157 1.377 . S
C1156 C1158 1.384 . S
C1157 C1156 1.377 . S
C1157 C1163 1.390 . S
C1158 H1149 0.930 . S
C1158 C1156 1.384 . S
C1158 C1159 1.372 . S
C1159 C1158 1.372 . S
C1159 C1160 1.400 . S
C1159 C1164 1.490 . S
C1160 H1150 0.930 . S
C1160 C1159 1.400 . S
C1160 C1163 1.386 . S
H1161 C1177 0.930 . S
H1162 C1178 0.931 . S
C1163 H1151 0.929 . S
C1163 C1157 1.390 . S
C1163 C1160 1.386 . S
C1164 C1159 1.490 . S
C1164 C1166 1.395 . S
C1164 C1167 1.403 . S
H1165 C1171 0.930 . S
C1166 H1152 0.930 . S
C1166 C1164 1.395 . S
C1166 C1169 1.403 . S
C1167 C1164 1.403 . S
C1167 C1168 1.524 . S
C1167 C1171 1.400 . S
C1168 H1153 0.960 . S
C1168 H1154 0.960 . S
C1168 H1155 0.960 . S
C1168 C1167 1.524 . S
C1169 C1166 1.403 . S
C1169 C1170 1.392 . S
C1169 C1173 1.495 . S
C1170 C1169 1.392 . S
C1170 C1171 1.385 . S
C1170 C1172 1.478 . S
C1171 H1165 0.930 . S
C1171 C1167 1.400 . S
C1171 C1170 1.385 . S
C1172 C1170 1.478 . S
C1172 C1174 1.381 . S
C1172 C1178 1.383 . S
C1173 C1169 1.495 . S
C1173 H1179 0.959 . S
C1173 H1180 0.961 . S
C1173 H1181 0.960 . S
C1174 C1172 1.381 . S
C1174 C1175 1.394 . S
C1174 H1182 0.930 . S
C1175 C1174 1.394 . S
C1175 C1176 1.383 . S
C1175 H1183 0.929 . S
C1176 C1175 1.383 . S
C1176 C1177 1.377 . S
C1177 H1161 0.930 . S
C1177 C1176 1.377 . S
C1177 C1178 1.379 . S
C1178 H1162 0.931 . S
C1178 C1172 1.383 . S
C1178 C1177 1.379 . S
H1179 C1173 0.959 . S
H1180 C1173 0.961 . S
H1181 C1173 0.960 . S
H1182 C1174 0.930 . S
H1183 C1175 0.929 . S
H1184 C1192 0.929 . S
H1185 C1194 0.930 . S
H1186 C1196 0.930 . S
H1187 C1199 0.929 . S
H1188 C1202 0.930 . S
H1189 C1204 0.960 . S
H1190 C1204 0.960 . S
H1191 C1204 0.960 . S
C1192 H1184 0.929 . S
C1192 C1193 1.377 . S
C1192 C1194 1.384 . S
C1193 C1192 1.377 . S
C1193 C1199 1.390 . S
C1194 H1185 0.930 . S
C1194 C1192 1.384 . S
C1194 C1195 1.372 . S
C1195 C1194 1.372 . S
C1195 C1196 1.400 . S
C1195 C1200 1.490 . S
C1196 H1186 0.930 . S
C1196 C1195 1.400 . S
C1196 C1199 1.386 . S
H1197 C1213 0.930 . S
H1198 C1214 0.931 . S
C1199 H1187 0.929 . S
C1199 C1193 1.390 . S
C1199 C1196 1.386 . S
C1200 C1195 1.490 . S
C1200 C1202 1.395 . S
C1200 C1203 1.403 . S
H1201 C1207 0.930 . S
C1202 H1188 0.930 . S
C1202 C1200 1.395 . S
C1202 C1205 1.403 . S
C1203 C1200 1.403 . S
C1203 C1204 1.524 . S
C1203 C1207 1.400 . S
C1204 H1189 0.960 . S
C1204 H1190 0.960 . S
C1204 H1191 0.960 . S
C1204 C1203 1.524 . S
C1205 C1202 1.403 . S
C1205 C1206 1.392 . S
C1205 C1209 1.495 . S
C1206 C1205 1.392 . S
C1206 C1207 1.385 . S
C1206 C1208 1.478 . S
C1207 H1201 0.930 . S
C1207 C1203 1.400 . S
C1207 C1206 1.385 . S
C1208 C1206 1.478 . S
C1208 C1210 1.381 . S
C1208 C1214 1.383 . S
C1209 C1205 1.495 . S
C1209 H1215 0.959 . S
C1209 H1216 0.961 . S
C1209 H1217 0.960 . S
C1210 C1208 1.381 . S
C1210 C1211 1.394 . S
C1210 H1218 0.930 . S
C1211 C1210 1.394 . S
C1211 C1212 1.383 . S
C1211 H1219 0.929 . S
C1212 C1211 1.383 . S
C1212 C1213 1.377 . S
C1213 H1197 0.930 . S
C1213 C1212 1.377 . S
C1213 C1214 1.379 . S
C1214 H1198 0.931 . S
C1214 C1208 1.383 . S
C1214 C1213 1.379 . S
H1215 C1209 0.959 . S
H1216 C1209 0.961 . S
H1217 C1209 0.960 . S
H1218 C1210 0.930 . S
H1219 C1211 0.929 . S
H1220 C1228 0.929 . S
H1221 C1230 0.930 . S
H1222 C1232 0.930 . S
H1223 C1235 0.929 . S
H1224 C1238 0.930 . S
H1225 C1240 0.960 . S
H1226 C1240 0.960 . S
H1227 C1240 0.960 . S
C1228 H1220 0.929 . S
C1228 C1229 1.377 . S
C1228 C1230 1.384 . S
C1229 C1228 1.377 . S
C1229 C1235 1.390 . S
C1230 H1221 0.930 . S
C1230 C1228 1.384 . S
C1230 C1231 1.372 . S
C1231 C1230 1.372 . S
C1231 C1232 1.400 . S
C1231 C1236 1.490 . S
C1232 H1222 0.930 . S
C1232 C1231 1.400 . S
C1232 C1235 1.386 . S
H1233 C1249 0.930 . S
H1234 C1250 0.931 . S
C1235 H1223 0.929 . S
C1235 C1229 1.390 . S
C1235 C1232 1.386 . S
C1236 C1231 1.490 . S
C1236 C1238 1.395 . S
C1236 C1239 1.403 . S
H1237 C1243 0.930 . S
C1238 H1224 0.930 . S
C1238 C1236 1.395 . S
C1238 C1241 1.403 . S
C1239 C1236 1.403 . S
C1239 C1240 1.524 . S
C1239 C1243 1.400 . S
C1240 H1225 0.960 . S
C1240 H1226 0.960 . S
C1240 H1227 0.960 . S
C1240 C1239 1.524 . S
C1241 C1238 1.403 . S
C1241 C1242 1.392 . S
C1241 C1245 1.495 . S
C1242 C1241 1.392 . S
C1242 C1243 1.385 . S
C1242 C1244 1.478 . S
C1243 H1237 0.930 . S
C1243 C1239 1.400 . S
C1243 C1242 1.385 . S
C1244 C1242 1.478 . S
C1244 C1246 1.381 . S
C1244 C1250 1.383 . S
C1245 C1241 1.495 . S
C1245 H1251 0.959 . S
C1245 H1252 0.961 1_655 S
C1245 H1253 0.960 . S
C1246 C1244 1.381 . S
C1246 C1247 1.394 . S
C1246 H1254 0.930 . S
C1247 C1246 1.394 . S
C1247 C1248 1.383 . S
C1247 H1255 0.929 . S
C1248 C1247 1.383 . S
C1248 C1249 1.377 . S
C1249 H1233 0.930 . S
C1249 C1248 1.377 . S
C1249 C1250 1.379 . S
C1250 H1234 0.931 . S
C1250 C1244 1.383 . S
C1250 C1249 1.379 . S
H1251 C1245 0.959 . S
H1252 C1245 0.961 1_455 S
H1253 C1245 0.960 . S
H1254 C1246 0.930 . S
H1255 C1247 0.929 . S
H1256 C1264 0.929 . S
H1257 C1266 0.930 . S
H1258 C1268 0.930 . S
H1259 C1271 0.929 . S
H1260 C1274 0.930 . S
H1261 C1276 0.960 . S
H1262 C1276 0.960 . S
H1263 C1276 0.960 . S
C1264 H1256 0.929 . S
C1264 C1265 1.377 . S
C1264 C1266 1.384 . S
C1265 C1264 1.377 . S
C1265 C1271 1.390 . S
C1266 H1257 0.930 . S
C1266 C1264 1.384 . S
C1266 C1267 1.372 . S
C1267 C1266 1.372 . S
C1267 C1268 1.400 . S
C1267 C1272 1.490 . S
C1268 H1258 0.930 . S
C1268 C1267 1.400 . S
C1268 C1271 1.386 . S
H1269 C1285 0.930 . S
H1270 C1286 0.931 . S
C1271 H1259 0.929 . S
C1271 C1265 1.390 . S
C1271 C1268 1.386 . S
C1272 C1267 1.490 . S
C1272 C1274 1.395 . S
C1272 C1275 1.403 . S
H1273 C1279 0.930 . S
C1274 H1260 0.930 . S
C1274 C1272 1.395 . S
C1274 C1277 1.403 . S
C1275 C1272 1.403 . S
C1275 C1276 1.524 . S
C1275 C1279 1.400 . S
C1276 H1261 0.960 . S
C1276 H1262 0.960 . S
C1276 H1263 0.960 . S
C1276 C1275 1.524 . S
C1277 C1274 1.403 . S
C1277 C1278 1.392 . S
C1277 C1281 1.495 . S
C1278 C1277 1.392 . S
C1278 C1279 1.385 . S
C1278 C1280 1.478 . S
C1279 H1273 0.930 . S
C1279 C1275 1.400 . S
C1279 C1278 1.385 . S
C1280 C1278 1.478 . S
C1280 C1282 1.381 . S
C1280 C1286 1.383 . S
C1281 C1277 1.495 . S
C1281 H1287 0.959 . S
C1281 H1288 0.961 . S
C1281 H1289 0.960 . S
C1282 C1280 1.381 . S
C1282 C1283 1.394 . S
C1282 H1290 0.930 . S
C1283 C1282 1.394 . S
C1283 C1284 1.383 1_565 S
C1283 H1291 0.929 . S
C1284 C1283 1.383 1_545 S
C1284 C1285 1.377 . S
C1285 H1269 0.930 . S
C1285 C1284 1.377 . S
C1285 C1286 1.379 1_545 S
C1286 H1270 0.931 . S
C1286 C1280 1.383 . S
C1286 C1285 1.379 1_565 S
H1287 C1281 0.959 . S
H1288 C1281 0.961 . S
H1289 C1281 0.960 . S
H1290 C1282 0.930 . S
H1291 C1283 0.929 . S
H1292 C1300 0.929 . S
H1293 C1302 0.930 . S
H1294 C1304 0.930 . S
H1295 C1307 0.929 . S
H1296 C1310 0.930 . S
H1297 C1312 0.960 . S
H1298 C1312 0.960 . S
H1299 C1312 0.960 . S
C1300 H1292 0.929 . S
C1300 C1301 1.377 . S
C1300 C1302 1.384 . S
C1301 C1300 1.377 . S
C1301 C1307 1.390 . S
C1302 H1293 0.930 . S
C1302 C1300 1.384 . S
C1302 C1303 1.372 . S
C1303 C1302 1.372 . S
C1303 C1304 1.400 . S
C1303 C1308 1.490 . S
C1304 H1294 0.930 . S
C1304 C1303 1.400 . S
C1304 C1307 1.386 . S
H1305 C1321 0.930 . S
H1306 C1322 0.931 . S
C1307 H1295 0.929 . S
C1307 C1301 1.390 . S
C1307 C1304 1.386 . S
C1308 C1303 1.490 . S
C1308 C1310 1.395 . S
C1308 C1311 1.403 . S
H1309 C1315 0.930 . S
C1310 H1296 0.930 . S
C1310 C1308 1.395 . S
C1310 C1313 1.403 . S
C1311 C1308 1.403 . S
C1311 C1312 1.524 . S
C1311 C1315 1.400 . S
C1312 H1297 0.960 . S
C1312 H1298 0.960 . S
C1312 H1299 0.960 . S
C1312 C1311 1.524 . S
C1313 C1310 1.403 . S
C1313 C1314 1.392 . S
C1313 C1317 1.495 . S
C1314 C1313 1.392 . S
C1314 C1315 1.385 . S
C1314 C1316 1.478 . S
C1315 H1309 0.930 . S
C1315 C1311 1.400 . S
C1315 C1314 1.385 . S
C1316 C1314 1.478 . S
C1316 C1318 1.381 . S
C1316 C1322 1.383 . S
C1317 C1313 1.495 . S
C1317 H1323 0.959 . S
C1317 H1324 0.961 . S
C1317 H1325 0.960 . S
C1318 C1316 1.381 . S
C1318 C1319 1.394 . S
C1318 H1326 0.930 . S
C1319 C1318 1.394 . S
C1319 C1320 1.383 . S
C1319 H1327 0.929 . S
C1320 C1319 1.383 . S
C1320 C1321 1.377 . S
C1321 H1305 0.930 . S
C1321 C1320 1.377 . S
C1321 C1322 1.379 . S
C1322 H1306 0.931 . S
C1322 C1316 1.383 . S
C1322 C1321 1.379 . S
H1323 C1317 0.959 . S
H1324 C1317 0.961 . S
H1325 C1317 0.960 . S
H1326 C1318 0.930 . S
H1327 C1319 0.929 . S
H1328 C1336 0.929 . S
H1329 C1338 0.930 . S
H1330 C1340 0.930 . S
H1331 C1343 0.929 . S
H1332 C1346 0.930 1_554 S
H1333 C1348 0.960 . S
H1334 C1348 0.960 . S
H1335 C1348 0.960 . S
C1336 H1328 0.929 . S
C1336 C1337 1.377 . S
C1336 C1338 1.384 . S
C1337 C1336 1.377 . S
C1337 C1343 1.390 . S
C1338 H1329 0.930 . S
C1338 C1336 1.384 . S
C1338 C1339 1.372 . S
C1339 C1338 1.372 . S
C1339 C1340 1.400 . S
C1339 C1344 1.490 . S
C1340 H1330 0.930 . S
C1340 C1339 1.400 . S
C1340 C1343 1.386 . S
H1341 C1357 0.930 1_556 S
H1342 C1358 0.931 . S
C1343 H1331 0.929 . S
C1343 C1337 1.390 . S
C1343 C1340 1.386 . S
C1344 C1339 1.490 . S
C1344 C1346 1.395 . S
C1344 C1347 1.403 1_545 S
H1345 C1351 0.930 . S
C1346 H1332 0.930 1_556 S
C1346 C1344 1.395 . S
C1346 C1349 1.403 1_556 S
C1347 C1344 1.403 1_565 S
C1347 C1348 1.524 . S
C1347 C1351 1.400 . S
C1348 H1333 0.960 . S
C1348 H1334 0.960 . S
C1348 H1335 0.960 . S
C1348 C1347 1.524 . S
C1349 C1346 1.403 1_554 S
C1349 C1350 1.392 1_544 S
C1349 C1353 1.495 . S
C1350 C1349 1.392 1_566 S
C1350 C1351 1.385 . S
C1350 C1352 1.478 1_556 S
C1351 H1345 0.930 . S
C1351 C1347 1.400 . S
C1351 C1350 1.385 . S
C1352 C1350 1.478 1_554 S
C1352 C1354 1.381 . S
C1352 C1358 1.383 1_554 S
C1353 C1349 1.495 . S
C1353 H1359 0.959 . S
C1353 H1360 0.961 . S
C1353 H1361 0.960 . S
C1354 C1352 1.381 . S
C1354 C1355 1.394 . S
C1354 H1362 0.930 . S
C1355 C1354 1.394 . S
C1355 C1356 1.383 . S
C1355 H1363 0.929 . S
C1356 C1355 1.383 . S
C1356 C1357 1.377 . S
C1357 H1341 0.930 1_554 S
C1357 C1356 1.377 . S
C1357 C1358 1.379 1_554 S
C1358 H1342 0.931 . S
C1358 C1352 1.383 1_556 S
C1358 C1357 1.379 1_556 S
H1359 C1353 0.959 . S
H1360 C1353 0.961 . S
H1361 C1353 0.960 . S
H1362 C1354 0.930 . S
H1363 C1355 0.929 . S
H1364 C1372 0.929 . S
H1365 C1374 0.930 . S
H1366 C1376 0.930 . S
H1367 C1379 0.929 . S
H1368 C1382 0.930 . S
H1369 C1384 0.960 . S
H1370 C1384 0.960 . S
H1371 C1384 0.960 . S
C1372 H1364 0.929 . S
C1372 C1373 1.377 . S
C1372 C1374 1.384 . S
C1373 C1372 1.377 . S
C1373 C1379 1.390 . S
C1374 H1365 0.930 . S
C1374 C1372 1.384 . S
C1374 C1375 1.372 . S
C1375 C1374 1.372 . S
C1375 C1376 1.400 . S
C1375 C1380 1.490 . S
C1376 H1366 0.930 . S
C1376 C1375 1.400 . S
C1376 C1379 1.386 . S
H1377 C1393 0.930 . S
H1378 C1394 0.931 . S
C1379 H1367 0.929 . S
C1379 C1373 1.390 . S
C1379 C1376 1.386 . S
C1380 C1375 1.490 . S
C1380 C1382 1.395 . S
C1380 C1383 1.403 . S
H1381 C1387 0.930 . S
C1382 H1368 0.930 . S
C1382 C1380 1.395 . S
C1382 C1385 1.403 . S
C1383 C1380 1.403 . S
C1383 C1384 1.524 . S
C1383 C1387 1.400 . S
C1384 H1369 0.960 . S
C1384 H1370 0.960 . S
C1384 H1371 0.960 . S
C1384 C1383 1.524 . S
C1385 C1382 1.403 . S
C1385 C1386 1.392 . S
C1385 C1389 1.495 . S
C1386 C1385 1.392 . S
C1386 C1387 1.385 . S
C1386 C1388 1.478 . S
C1387 H1381 0.930 . S
C1387 C1383 1.400 . S
C1387 C1386 1.385 . S
C1388 C1386 1.478 . S
C1388 C1390 1.381 . S
C1388 C1394 1.383 . S
C1389 C1385 1.495 . S
C1389 H1395 0.959 . S
C1389 H1396 0.961 . S
C1389 H1397 0.960 . S
C1390 C1388 1.381 . S
C1390 C1391 1.394 . S
C1390 H1398 0.930 . S
C1391 C1390 1.394 . S
C1391 C1392 1.383 . S
C1391 H1399 0.929 . S
C1392 C1391 1.383 . S
C1392 C1393 1.377 . S
C1393 H1377 0.930 . S
C1393 C1392 1.377 . S
C1393 C1394 1.379 . S
C1394 H1378 0.931 . S
C1394 C1388 1.383 . S
C1394 C1393 1.379 . S
H1395 C1389 0.959 . S
H1396 C1389 0.961 . S
H1397 C1389 0.960 . S
H1398 C1390 0.930 . S
H1399 C1391 0.929 . S
H1400 C1408 0.929 . S
H1401 C1410 0.930 . S
H1402 C1412 0.930 . S
H1403 C1415 0.929 . S
H1404 C1418 0.930 . S
H1405 C1420 0.960 . S
H1406 C1420 0.960 . S
H1407 C1420 0.960 . S
C1408 H1400 0.929 . S
C1408 C1409 1.377 . S
C1408 C1410 1.384 1_565 S
C1409 C1408 1.377 . S
C1409 C1415 1.390 1_565 S
C1410 H1401 0.930 . S
C1410 C1408 1.384 1_545 S
C1410 C1411 1.372 . S
C1411 C1410 1.372 . S
C1411 C1412 1.400 . S
C1411 C1416 1.490 . S
C1412 H1402 0.930 . S
C1412 C1411 1.400 . S
C1412 C1415 1.386 . S
H1413 C1429 0.930 . S
H1414 C1430 0.931 . S
C1415 H1403 0.929 . S
C1415 C1409 1.390 1_545 S
C1415 C1412 1.386 . S
C1416 C1411 1.490 . S
C1416 C1418 1.395 . S
C1416 C1419 1.403 . S
H1417 C1423 0.930 . S
C1418 H1404 0.930 . S
C1418 C1416 1.395 . S
C1418 C1421 1.403 . S
C1419 C1416 1.403 . S
C1419 C1420 1.524 . S
C1419 C1423 1.400 . S
C1420 H1405 0.960 . S
C1420 H1406 0.960 . S
C1420 H1407 0.960 . S
C1420 C1419 1.524 . S
C1421 C1418 1.403 . S
C1421 C1422 1.392 . S
C1421 C1425 1.495 . S
C1422 C1421 1.392 . S
C1422 C1423 1.385 . S
C1422 C1424 1.478 . S
C1423 H1417 0.930 . S
C1423 C1419 1.400 . S
C1423 C1422 1.385 . S
C1424 C1422 1.478 . S
C1424 C1426 1.381 . S
C1424 C1430 1.383 . S
C1425 C1421 1.495 . S
C1425 H1431 0.959 . S
C1425 H1432 0.961 . S
C1425 H1433 0.960 . S
C1426 C1424 1.381 . S
C1426 C1427 1.394 . S
C1426 H1434 0.930 . S
C1427 C1426 1.394 . S
C1427 C1428 1.383 . S
C1427 H1435 0.929 . S
C1428 C1427 1.383 . S
C1428 C1429 1.377 . S
C1429 H1413 0.930 . S
C1429 C1428 1.377 . S
C1429 C1430 1.379 . S
C1430 H1414 0.931 . S
C1430 C1424 1.383 . S
C1430 C1429 1.379 . S
H1431 C1425 0.959 . S
H1432 C1425 0.961 . S
H1433 C1425 0.960 . S
H1434 C1426 0.930 . S
H1435 C1427 0.929 . S
H1436 C1444 0.929 . S
H1437 C1446 0.930 . S
H1438 C1448 0.930 . S
H1439 C1451 0.929 . S
H1440 C1454 0.930 . S
H1441 C1456 0.960 . S
H1442 C1456 0.960 . S
H1443 C1456 0.960 . S
C1444 H1436 0.929 . S
C1444 C1445 1.377 . S
C1444 C1446 1.384 . S
C1445 C1444 1.377 . S
C1445 C1451 1.390 . S
C1446 H1437 0.930 . S
C1446 C1444 1.384 . S
C1446 C1447 1.372 . S
C1447 C1446 1.372 . S
C1447 C1448 1.400 . S
C1447 C1452 1.490 . S
C1448 H1438 0.930 . S
C1448 C1447 1.400 . S
C1448 C1451 1.386 . S
H1449 C1465 0.930 . S
H1450 C1466 0.931 . S
C1451 H1439 0.929 . S
C1451 C1445 1.390 . S
C1451 C1448 1.386 . S
C1452 C1447 1.490 . S
C1452 C1454 1.395 . S
C1452 C1455 1.403 . S
H1453 C1459 0.930 . S
C1454 H1440 0.930 . S
C1454 C1452 1.395 . S
C1454 C1457 1.403 . S
C1455 C1452 1.403 . S
C1455 C1456 1.524 . S
C1455 C1459 1.400 . S
C1456 H1441 0.960 . S
C1456 H1442 0.960 . S
C1456 H1443 0.960 . S
C1456 C1455 1.524 . S
C1457 C1454 1.403 . S
C1457 C1458 1.392 . S
C1457 C1461 1.495 . S
C1458 C1457 1.392 . S
C1458 C1459 1.385 . S
C1458 C1460 1.478 . S
C1459 H1453 0.930 . S
C1459 C1455 1.400 . S
C1459 C1458 1.385 . S
C1460 C1458 1.478 . S
C1460 C1462 1.381 . S
C1460 C1466 1.383 . S
C1461 C1457 1.495 . S
C1461 H1467 0.959 . S
C1461 H1468 0.961 . S
C1461 H1469 0.960 . S
C1462 C1460 1.381 . S
C1462 C1463 1.394 . S
C1462 H1470 0.930 . S
C1463 C1462 1.394 . S
C1463 C1464 1.383 . S
C1463 H1471 0.929 . S
C1464 C1463 1.383 . S
C1464 C1465 1.377 . S
C1465 H1449 0.930 . S
C1465 C1464 1.377 . S
C1465 C1466 1.379 . S
C1466 H1450 0.931 . S
C1466 C1460 1.383 . S
C1466 C1465 1.379 . S
H1467 C1461 0.959 . S
H1468 C1461 0.961 . S
H1469 C1461 0.960 . S
H1470 C1462 0.930 . S
H1471 C1463 0.929 . S
H1472 C1480 0.929 . S
H1473 C1482 0.930 . S
H1474 C1484 0.930 . S
H1475 C1487 0.929 . S
H1476 C1490 0.930 . S
H1477 C1492 0.960 . S
H1478 C1492 0.960 . S
H1479 C1492 0.960 . S
C1480 H1472 0.929 . S
C1480 C1481 1.377 . S
C1480 C1482 1.384 . S
C1481 C1480 1.377 . S
C1481 C1487 1.390 . S
C1482 H1473 0.930 . S
C1482 C1480 1.384 . S
C1482 C1483 1.372 1_565 S
C1483 C1482 1.372 1_545 S
C1483 C1484 1.400 . S
C1483 C1488 1.490 . S
C1484 H1474 0.930 . S
C1484 C1483 1.400 . S
C1484 C1487 1.386 1_545 S
H1485 C1501 0.930 . S
H1486 C1502 0.931 . S
C1487 H1475 0.929 . S
C1487 C1481 1.390 . S
C1487 C1484 1.386 1_565 S
C1488 C1483 1.490 . S
C1488 C1490 1.395 . S
C1488 C1491 1.403 . S
H1489 C1495 0.930 . S
C1490 H1476 0.930 . S
C1490 C1488 1.395 . S
C1490 C1493 1.403 . S
C1491 C1488 1.403 . S
C1491 C1492 1.524 . S
C1491 C1495 1.400 . S
C1492 H1477 0.960 . S
C1492 H1478 0.960 . S
C1492 H1479 0.960 . S
C1492 C1491 1.524 . S
C1493 C1490 1.403 . S
C1493 C1494 1.392 . S
C1493 C1497 1.495 . S
C1494 C1493 1.392 . S
C1494 C1495 1.385 . S
C1494 C1496 1.478 . S
C1495 H1489 0.930 . S
C1495 C1491 1.400 . S
C1495 C1494 1.385 . S
C1496 C1494 1.478 . S
C1496 C1498 1.381 . S
C1496 C1502 1.383 . S
C1497 C1493 1.495 . S
C1497 H1503 0.959 . S
C1497 H1504 0.961 . S
C1497 H1505 0.960 . S
C1498 C1496 1.381 . S
C1498 C1499 1.394 . S
C1498 H1506 0.930 . S
C1499 C1498 1.394 . S
C1499 C1500 1.383 . S
C1499 H1507 0.929 . S
C1500 C1499 1.383 . S
C1500 C1501 1.377 . S
C1501 H1485 0.930 . S
C1501 C1500 1.377 . S
C1501 C1502 1.379 . S
C1502 H1486 0.931 . S
C1502 C1496 1.383 . S
C1502 C1501 1.379 . S
H1503 C1497 0.959 . S
H1504 C1497 0.961 . S
H1505 C1497 0.960 . S
H1506 C1498 0.930 . S
H1507 C1499 0.929 . S
H1508 C1516 0.929 . S
H1509 C1518 0.930 . S
H1510 C1520 0.930 . S
H1511 C1523 0.929 . S
H1512 C1526 0.930 . S
H1513 C1528 0.960 . S
H1514 C1528 0.960 . S
H1515 C1528 0.960 . S
C1516 H1508 0.929 . S
C1516 C1517 1.377 . S
C1516 C1518 1.384 . S
C1517 C1516 1.377 . S
C1517 C1523 1.390 . S
C1518 H1509 0.930 . S
C1518 C1516 1.384 . S
C1518 C1519 1.372 . S
C1519 C1518 1.372 . S
C1519 C1520 1.400 . S
C1519 C1524 1.490 . S
C1520 H1510 0.930 . S
C1520 C1519 1.400 . S
C1520 C1523 1.386 . S
H1521 C1537 0.930 . S
H1522 C1538 0.931 . S
C1523 H1511 0.929 . S
C1523 C1517 1.390 . S
C1523 C1520 1.386 . S
C1524 C1519 1.490 . S
C1524 C1526 1.395 . S
C1524 C1527 1.403 . S
H1525 C1531 0.930 . S
C1526 H1512 0.930 . S
C1526 C1524 1.395 . S
C1526 C1529 1.403 . S
C1527 C1524 1.403 . S
C1527 C1528 1.524 . S
C1527 C1531 1.400 . S
C1528 H1513 0.960 . S
C1528 H1514 0.960 . S
C1528 H1515 0.960 . S
C1528 C1527 1.524 . S
C1529 C1526 1.403 . S
C1529 C1530 1.392 . S
C1529 C1533 1.495 . S
C1530 C1529 1.392 . S
C1530 C1531 1.385 . S
C1530 C1532 1.478 . S
C1531 H1525 0.930 . S
C1531 C1527 1.400 . S
C1531 C1530 1.385 . S
C1532 C1530 1.478 . S
C1532 C1534 1.381 . S
C1532 C1538 1.383 . S
C1533 C1529 1.495 . S
C1533 H1539 0.959 . S
C1533 H1540 0.961 . S
C1533 H1541 0.960 . S
C1534 C1532 1.381 . S
C1534 C1535 1.394 . S
C1534 H1542 0.930 . S
C1535 C1534 1.394 . S
C1535 C1536 1.383 . S
C1535 H1543 0.929 . S
C1536 C1535 1.383 . S
C1536 C1537 1.377 . S
C1537 H1521 0.930 . S
C1537 C1536 1.377 . S
C1537 C1538 1.379 . S
C1538 H1522 0.931 . S
C1538 C1532 1.383 . S
C1538 C1537 1.379 . S
H1539 C1533 0.959 . S
H1540 C1533 0.961 . S
H1541 C1533 0.960 . S
H1542 C1534 0.930 . S
H1543 C1535 0.929 . S
H1544 C1552 0.929 . S
H1545 C1554 0.930 . S
H1546 C1556 0.930 . S
H1547 C1559 0.929 . S
H1548 C1562 0.930 . S
H1549 C1564 0.960 . S
H1550 C1564 0.960 . S
H1551 C1564 0.960 . S
C1552 H1544 0.929 . S
C1552 C1553 1.377 . S
C1552 C1554 1.384 . S
C1553 C1552 1.377 . S
C1553 C1559 1.390 . S
C1554 H1545 0.930 . S
C1554 C1552 1.384 . S
C1554 C1555 1.372 . S
C1555 C1554 1.372 . S
C1555 C1556 1.400 . S
C1555 C1560 1.490 . S
C1556 H1546 0.930 . S
C1556 C1555 1.400 . S
C1556 C1559 1.386 . S
H1557 C1573 0.930 . S
H1558 C1574 0.931 . S
C1559 H1547 0.929 . S
C1559 C1553 1.390 . S
C1559 C1556 1.386 . S
C1560 C1555 1.490 . S
C1560 C1562 1.395 . S
C1560 C1563 1.403 . S
H1561 C1567 0.930 . S
C1562 H1548 0.930 . S
C1562 C1560 1.395 . S
C1562 C1565 1.403 . S
C1563 C1560 1.403 . S
C1563 C1564 1.524 . S
C1563 C1567 1.400 . S
C1564 H1549 0.960 . S
C1564 H1550 0.960 . S
C1564 H1551 0.960 . S
C1564 C1563 1.524 . S
C1565 C1562 1.403 . S
C1565 C1566 1.392 . S
C1565 C1569 1.495 . S
C1566 C1565 1.392 . S
C1566 C1567 1.385 . S
C1566 C1568 1.478 . S
C1567 H1561 0.930 . S
C1567 C1563 1.400 . S
C1567 C1566 1.385 . S
C1568 C1566 1.478 . S
C1568 C1570 1.381 . S
C1568 C1574 1.383 . S
C1569 C1565 1.495 . S
C1569 H1575 0.959 . S
C1569 H1576 0.961 . S
C1569 H1577 0.960 . S
C1570 C1568 1.381 . S
C1570 C1571 1.394 . S
C1570 H1578 0.930 . S
C1571 C1570 1.394 . S
C1571 C1572 1.383 . S
C1571 H1579 0.929 . S
C1572 C1571 1.383 . S
C1572 C1573 1.377 . S
C1573 H1557 0.930 . S
C1573 C1572 1.377 . S
C1573 C1574 1.379 . S
C1574 H1558 0.931 . S
C1574 C1568 1.383 . S
C1574 C1573 1.379 . S
H1575 C1569 0.959 . S
H1576 C1569 0.961 . S
H1577 C1569 0.960 . S
H1578 C1570 0.930 . S
H1579 C1571 0.929 . S
H1580 C1588 0.929 . S
H1581 C1590 0.930 . S
H1582 C1592 0.930 . S
H1583 C1595 0.929 . S
H1584 C1598 0.930 . S
H1585 C1600 0.960 . S
H1586 C1600 0.960 . S
H1587 C1600 0.960 . S
C1588 H1580 0.929 . S
C1588 C1589 1.377 . S
C1588 C1590 1.384 . S
C1589 C1588 1.377 . S
C1589 C1595 1.390 . S
C1590 H1581 0.930 . S
C1590 C1588 1.384 . S
C1590 C1591 1.372 . S
C1591 C1590 1.372 . S
C1591 C1592 1.400 . S
C1591 C1596 1.490 . S
C1592 H1582 0.930 . S
C1592 C1591 1.400 . S
C1592 C1595 1.386 . S
H1593 C1609 0.930 . S
H1594 C1610 0.931 . S
C1595 H1583 0.929 . S
C1595 C1589 1.390 . S
C1595 C1592 1.386 . S
C1596 C1591 1.490 . S
C1596 C1598 1.395 . S
C1596 C1599 1.403 . S
H1597 C1603 0.930 . S
C1598 H1584 0.930 . S
C1598 C1596 1.395 . S
C1598 C1601 1.403 . S
C1599 C1596 1.403 . S
C1599 C1600 1.524 . S
C1599 C1603 1.400 . S
C1600 H1585 0.960 . S
C1600 H1586 0.960 . S
C1600 H1587 0.960 . S
C1600 C1599 1.524 . S
C1601 C1598 1.403 . S
C1601 C1602 1.392 . S
C1601 C1605 1.495 . S
C1602 C1601 1.392 . S
C1602 C1603 1.385 . S
C1602 C1604 1.478 . S
C1603 H1597 0.930 . S
C1603 C1599 1.400 . S
C1603 C1602 1.385 . S
C1604 C1602 1.478 . S
C1604 C1606 1.381 . S
C1604 C1610 1.383 . S
C1605 C1601 1.495 . S
C1605 H1611 0.959 . S
C1605 H1612 0.961 . S
C1605 H1613 0.960 . S
C1606 C1604 1.381 . S
C1606 C1607 1.394 . S
C1606 H1614 0.930 . S
C1607 C1606 1.394 . S
C1607 C1608 1.383 . S
C1607 H1615 0.929 . S
C1608 C1607 1.383 . S
C1608 C1609 1.377 . S
C1609 H1593 0.930 . S
C1609 C1608 1.377 . S
C1609 C1610 1.379 . S
C1610 H1594 0.931 . S
C1610 C1604 1.383 . S
C1610 C1609 1.379 . S
H1611 C1605 0.959 . S
H1612 C1605 0.961 . S
H1613 C1605 0.960 . S
H1614 C1606 0.930 . S
H1615 C1607 0.929 . S
H1616 C1624 0.929 . S
H1617 C1626 0.930 . S
H1618 C1628 0.930 . S
H1619 C1631 0.929 . S
H1620 C1634 0.930 . S
H1621 C1636 0.960 . S
H1622 C1636 0.960 . S
H1623 C1636 0.960 . S
C1624 H1616 0.929 . S
C1624 C1625 1.377 . S
C1624 C1626 1.384 . S
C1625 C1624 1.377 . S
C1625 C1631 1.390 . S
C1626 H1617 0.930 . S
C1626 C1624 1.384 . S
C1626 C1627 1.372 . S
C1627 C1626 1.372 . S
C1627 C1628 1.400 . S
C1627 C1632 1.490 . S
C1628 H1618 0.930 . S
C1628 C1627 1.400 . S
C1628 C1631 1.386 . S
H1629 C1645 0.930 . S
H1630 C1646 0.931 . S
C1631 H1619 0.929 . S
C1631 C1625 1.390 . S
C1631 C1628 1.386 . S
C1632 C1627 1.490 . S
C1632 C1634 1.395 . S
C1632 C1635 1.403 . S
H1633 C1639 0.930 . S
C1634 H1620 0.930 . S
C1634 C1632 1.395 . S
C1634 C1637 1.403 . S
C1635 C1632 1.403 . S
C1635 C1636 1.524 . S
C1635 C1639 1.400 . S
C1636 H1621 0.960 . S
C1636 H1622 0.960 . S
C1636 H1623 0.960 . S
C1636 C1635 1.524 . S
C1637 C1634 1.403 . S
C1637 C1638 1.392 . S
C1637 C1641 1.495 . S
C1638 C1637 1.392 . S
C1638 C1639 1.385 . S
C1638 C1640 1.478 . S
C1639 H1633 0.930 . S
C1639 C1635 1.400 . S
C1639 C1638 1.385 . S
C1640 C1638 1.478 . S
C1640 C1642 1.381 . S
C1640 C1646 1.383 . S
C1641 C1637 1.495 . S
C1641 H1647 0.959 . S
C1641 H1648 0.961 . S
C1641 H1649 0.960 . S
C1642 C1640 1.381 . S
C1642 C1643 1.394 . S
C1642 H1650 0.930 . S
C1643 C1642 1.394 . S
C1643 C1644 1.383 . S
C1643 H1651 0.929 . S
C1644 C1643 1.383 . S
C1644 C1645 1.377 . S
C1645 H1629 0.930 . S
C1645 C1644 1.377 . S
C1645 C1646 1.379 . S
C1646 H1630 0.931 . S
C1646 C1640 1.383 . S
C1646 C1645 1.379 . S
H1647 C1641 0.959 . S
H1648 C1641 0.961 . S
H1649 C1641 0.960 . S
H1650 C1642 0.930 . S
H1651 C1643 0.929 . S
H1652 C1660 0.929 . S
H1653 C1662 0.930 . S
H1654 C1664 0.930 . S
H1655 C1667 0.929 . S
H1656 C1670 0.930 . S
H1657 C1672 0.960 . S
H1658 C1672 0.960 . S
H1659 C1672 0.960 . S
C1660 H1652 0.929 . S
C1660 C1661 1.377 . S
C1660 C1662 1.384 . S
C1661 C1660 1.377 . S
C1661 C1667 1.390 . S
C1662 H1653 0.930 . S
C1662 C1660 1.384 . S
C1662 C1663 1.372 . S
C1663 C1662 1.372 . S
C1663 C1664 1.400 . S
C1663 C1668 1.490 . S
C1664 H1654 0.930 . S
C1664 C1663 1.400 . S
C1664 C1667 1.386 . S
H1665 C1681 0.930 . S
H1666 C1682 0.931 . S
C1667 H1655 0.929 . S
C1667 C1661 1.390 . S
C1667 C1664 1.386 . S
C1668 C1663 1.490 . S
C1668 C1670 1.395 . S
C1668 C1671 1.403 . S
H1669 C1675 0.930 . S
C1670 H1656 0.930 . S
C1670 C1668 1.395 . S
C1670 C1673 1.403 . S
C1671 C1668 1.403 . S
C1671 C1672 1.524 . S
C1671 C1675 1.400 . S
C1672 H1657 0.960 . S
C1672 H1658 0.960 . S
C1672 H1659 0.960 . S
C1672 C1671 1.524 . S
C1673 C1670 1.403 . S
C1673 C1674 1.392 . S
C1673 C1677 1.495 . S
C1674 C1673 1.392 . S
C1674 C1675 1.385 . S
C1674 C1676 1.478 . S
C1675 H1669 0.930 . S
C1675 C1671 1.400 . S
C1675 C1674 1.385 . S
C1676 C1674 1.478 . S
C1676 C1678 1.381 . S
C1676 C1682 1.383 . S
C1677 C1673 1.495 . S
C1677 H1683 0.959 . S
C1677 H1684 0.961 . S
C1677 H1685 0.960 . S
C1678 C1676 1.381 . S
C1678 C1679 1.394 . S
C1678 H1686 0.930 . S
C1679 C1678 1.394 . S
C1679 C1680 1.383 . S
C1679 H1687 0.929 . S
C1680 C1679 1.383 . S
C1680 C1681 1.377 . S
C1681 H1665 0.930 . S
C1681 C1680 1.377 . S
C1681 C1682 1.379 . S
C1682 H1666 0.931 . S
C1682 C1676 1.383 . S
C1682 C1681 1.379 . S
H1683 C1677 0.959 . S
H1684 C1677 0.961 . S
H1685 C1677 0.960 . S
H1686 C1678 0.930 . S
H1687 C1679 0.929 . S
H1688 C1696 0.929 . S
H1689 C1698 0.930 . S
H1690 C1700 0.930 . S
H1691 C1703 0.929 . S
H1692 C1706 0.930 . S
H1693 C1708 0.960 . S
H1694 C1708 0.960 . S
H1695 C1708 0.960 . S
C1696 H1688 0.929 . S
C1696 C1697 1.377 . S
C1696 C1698 1.384 . S
C1697 C1696 1.377 . S
C1697 C1703 1.390 . S
C1698 H1689 0.930 . S
C1698 C1696 1.384 . S
C1698 C1699 1.372 . S
C1699 C1698 1.372 . S
C1699 C1700 1.400 . S
C1699 C1704 1.490 . S
C1700 H1690 0.930 . S
C1700 C1699 1.400 . S
C1700 C1703 1.386 . S
H1701 C1717 0.930 . S
H1702 C1718 0.931 . S
C1703 H1691 0.929 . S
C1703 C1697 1.390 . S
C1703 C1700 1.386 . S
C1704 C1699 1.490 . S
C1704 C1706 1.395 . S
C1704 C1707 1.403 . S
H1705 C1711 0.930 . S
C1706 H1692 0.930 . S
C1706 C1704 1.395 . S
C1706 C1709 1.403 . S
C1707 C1704 1.403 . S
C1707 C1708 1.524 . S
C1707 C1711 1.400 . S
C1708 H1693 0.960 . S
C1708 H1694 0.960 . S
C1708 H1695 0.960 . S
C1708 C1707 1.524 . S
C1709 C1706 1.403 . S
C1709 C1710 1.392 . S
C1709 C1713 1.495 . S
C1710 C1709 1.392 . S
C1710 C1711 1.385 . S
C1710 C1712 1.478 . S
C1711 H1705 0.930 . S
C1711 C1707 1.400 . S
C1711 C1710 1.385 . S
C1712 C1710 1.478 . S
C1712 C1714 1.381 . S
C1712 C1718 1.383 . S
C1713 C1709 1.495 . S
C1713 H1719 0.959 . S
C1713 H1720 0.961 . S
C1713 H1721 0.960 . S
C1714 C1712 1.381 . S
C1714 C1715 1.394 . S
C1714 H1722 0.930 . S
C1715 C1714 1.394 . S
C1715 C1716 1.383 . S
C1715 H1723 0.929 . S
C1716 C1715 1.383 . S
C1716 C1717 1.377 . S
C1717 H1701 0.930 . S
C1717 C1716 1.377 . S
C1717 C1718 1.379 . S
C1718 H1702 0.931 . S
C1718 C1712 1.383 . S
C1718 C1717 1.379 . S
H1719 C1713 0.959 . S
H1720 C1713 0.961 . S
H1721 C1713 0.960 . S
H1722 C1714 0.930 . S
H1723 C1715 0.929 . S
H1724 C1732 0.929 . S
H1725 C1734 0.930 . S
H1726 C1736 0.930 . S
H1727 C1739 0.929 . S
H1728 C1742 0.930 . S
H1729 C1744 0.960 . S
H1730 C1744 0.960 . S
H1731 C1744 0.960 . S
C1732 H1724 0.929 . S
C1732 C1733 1.377 . S
C1732 C1734 1.384 . S
C1733 C1732 1.377 . S
C1733 C1739 1.390 . S
C1734 H1725 0.930 . S
C1734 C1732 1.384 . S
C1734 C1735 1.372 . S
C1735 C1734 1.372 . S
C1735 C1736 1.400 . S
C1735 C1740 1.490 . S
C1736 H1726 0.930 . S
C1736 C1735 1.400 . S
C1736 C1739 1.386 . S
H1737 C1753 0.930 . S
H1738 C1754 0.931 . S
C1739 H1727 0.929 . S
C1739 C1733 1.390 . S
C1739 C1736 1.386 . S
C1740 C1735 1.490 . S
C1740 C1742 1.395 . S
C1740 C1743 1.403 1_455 S
H1741 C1747 0.930 . S
C1742 H1728 0.930 . S
C1742 C1740 1.395 . S
C1742 C1745 1.403 1_455 S
C1743 C1740 1.403 1_655 S
C1743 C1744 1.524 . S
C1743 C1747 1.400 . S
C1744 H1729 0.960 . S
C1744 H1730 0.960 . S
C1744 H1731 0.960 . S
C1744 C1743 1.524 . S
C1745 C1742 1.403 1_655 S
C1745 C1746 1.392 . S
C1745 C1749 1.487 1_655 S
C1746 C1745 1.392 . S
C1746 C1747 1.385 . S
C1746 C1748 1.478 . S
C1747 H1741 0.930 . S
C1747 C1743 1.400 . S
C1747 C1746 1.385 . S
C1748 C1746 1.478 . S
C1748 C1750 1.381 . S
C1748 C1754 1.383 . S
C1749 C1745 1.487 1_455 S
C1749 H1755 0.999 . S
C1749 H1756 0.953 1_455 S
C1749 H1757 0.938 1_455 S
C1750 C1748 1.381 . S
C1750 C1751 1.394 . S
C1750 H1758 0.930 . S
C1751 C1750 1.394 . S
C1751 C1752 1.383 . S
C1751 H1759 0.929 . S
C1752 C1751 1.383 . S
C1752 C1753 1.377 . S
C1753 H1737 0.930 . S
C1753 C1752 1.377 . S
C1753 C1754 1.379 . S
C1754 H1738 0.931 . S
C1754 C1748 1.383 . S
C1754 C1753 1.379 . S
H1755 C1749 0.999 . S
H1756 C1749 0.953 1_655 S
H1757 C1749 0.938 1_655 S
H1758 C1750 0.930 . S
H1759 C1751 0.929 . S
H1760 C1768 0.929 . S
H1761 C1770 0.930 . S
H1762 C1772 0.930 . S
H1763 C1775 0.929 . S
H1764 C1778 0.930 . S
H1765 C1780 0.960 . S
H1766 C1780 0.960 . S
H1767 C1780 0.960 . S
C1768 H1760 0.929 . S
C1768 C1769 1.377 . S
C1768 C1770 1.384 . S
C1769 C1768 1.377 . S
C1769 C1775 1.390 . S
C1770 H1761 0.930 . S
C1770 C1768 1.384 . S
C1770 C1771 1.372 . S
C1771 C1770 1.372 . S
C1771 C1772 1.400 . S
C1771 C1776 1.490 . S
C1772 H1762 0.930 . S
C1772 C1771 1.400 . S
C1772 C1775 1.386 . S
H1773 C1789 0.930 . S
H1774 C1790 0.931 . S
C1775 H1763 0.929 . S
C1775 C1769 1.390 . S
C1775 C1772 1.386 . S
C1776 C1771 1.490 . S
C1776 C1778 1.395 . S
C1776 C1779 1.403 . S
H1777 C1783 0.930 . S
C1778 H1764 0.930 . S
C1778 C1776 1.395 . S
C1778 C1781 1.403 . S
C1779 C1776 1.403 . S
C1779 C1780 1.524 . S
C1779 C1783 1.400 . S
C1780 H1765 0.960 . S
C1780 H1766 0.960 . S
C1780 H1767 0.960 . S
C1780 C1779 1.524 . S
C1781 C1778 1.403 . S
C1781 C1782 1.392 . S
C1781 C1785 1.495 . S
C1782 C1781 1.392 . S
C1782 C1783 1.385 . S
C1782 C1784 1.478 . S
C1783 H1777 0.930 . S
C1783 C1779 1.400 . S
C1783 C1782 1.385 . S
C1784 C1782 1.478 . S
C1784 C1786 1.381 . S
C1784 C1790 1.383 . S
C1785 C1781 1.495 . S
C1785 H1791 0.959 . S
C1785 H1792 0.961 . S
C1785 H1793 0.960 . S
C1786 C1784 1.381 . S
C1786 C1787 1.394 . S
C1786 H1794 0.930 . S
C1787 C1786 1.394 . S
C1787 C1788 1.383 . S
C1787 H1795 0.929 . S
C1788 C1787 1.383 . S
C1788 C1789 1.377 . S
C1789 H1773 0.930 . S
C1789 C1788 1.377 . S
C1789 C1790 1.379 . S
C1790 H1774 0.931 . S
C1790 C1784 1.383 . S
C1790 C1789 1.379 . S
H1791 C1785 0.959 . S
H1792 C1785 0.961 . S
H1793 C1785 0.960 . S
H1794 C1786 0.930 . S
H1795 C1787 0.929 . S
H1796 C1804 0.929 . S
H1797 C1806 0.930 . S
H1798 C1808 0.930 . S
H1799 C1811 0.929 . S
H1800 C1814 0.930 . S
H1801 C1816 0.960 . S
H1802 C1816 0.960 . S
H1803 C1816 0.960 . S
C1804 H1796 0.929 . S
C1804 C1805 1.377 . S
C1804 C1806 1.384 . S
C1805 C1804 1.377 . S
C1805 C1811 1.390 . S
C1806 H1797 0.930 . S
C1806 C1804 1.384 . S
C1806 C1807 1.372 . S
C1807 C1806 1.372 . S
C1807 C1808 1.400 . S
C1807 C1812 1.490 . S
C1808 H1798 0.930 . S
C1808 C1807 1.400 . S
C1808 C1811 1.386 . S
H1809 C1825 0.930 . S
H1810 C1826 0.931 . S
C1811 H1799 0.929 . S
C1811 C1805 1.390 . S
C1811 C1808 1.386 . S
C1812 C1807 1.490 . S
C1812 C1814 1.395 1_655 S
C1812 C1815 1.403 . S
H1813 C1819 0.930 . S
C1814 H1800 0.930 . S
C1814 C1812 1.395 1_455 S
C1814 C1817 1.403 . S
C1815 C1812 1.403 . S
C1815 C1816 1.524 . S
C1815 C1819 1.400 1_655 S
C1816 H1801 0.960 . S
C1816 H1802 0.960 . S
C1816 H1803 0.960 . S
C1816 C1815 1.524 . S
C1817 C1814 1.403 . S
C1817 C1818 1.392 . S
C1817 C1821 1.495 . S
C1818 C1817 1.392 . S
C1818 C1819 1.385 . S
C1818 C1820 1.478 . S
C1819 H1813 0.930 . S
C1819 C1815 1.400 1_455 S
C1819 C1818 1.385 . S
C1820 C1818 1.478 . S
C1820 C1822 1.381 . S
C1820 C1826 1.383 . S
C1821 C1817 1.495 . S
C1821 H1827 0.959 . S
C1821 H1828 0.961 . S
C1821 H1829 0.960 . S
C1822 C1820 1.381 . S
C1822 C1823 1.394 . S
C1822 H1830 0.930 . S
C1823 C1822 1.394 . S
C1823 C1824 1.383 . S
C1823 H1831 0.929 . S
C1824 C1823 1.383 . S
C1824 C1825 1.377 . S
C1825 H1809 0.930 . S
C1825 C1824 1.377 . S
C1825 C1826 1.379 . S
C1826 H1810 0.931 . S
C1826 C1820 1.383 . S
C1826 C1825 1.379 . S
H1827 C1821 0.959 . S
H1828 C1821 0.961 . S
H1829 C1821 0.960 . S
H1830 C1822 0.930 . S
H1831 C1823 0.929 . S
H1832 C1840 0.929 . S
H1833 C1842 0.930 . S
H1834 C1844 0.930 . S
H1835 C1847 0.929 . S
H1836 C1850 0.930 . S
H1837 C1852 0.960 . S
H1838 C1852 0.960 . S
H1839 C1852 0.960 . S
C1840 H1832 0.929 . S
C1840 C1841 1.377 . S
C1840 C1842 1.384 . S
C1841 C1840 1.377 . S
C1841 C1847 1.390 . S
C1842 H1833 0.930 . S
C1842 C1840 1.384 . S
C1842 C1843 1.372 . S
C1843 C1842 1.372 . S
C1843 C1844 1.400 . S
C1843 C1848 1.490 . S
C1844 H1834 0.930 . S
C1844 C1843 1.400 . S
C1844 C1847 1.386 . S
H1845 C1861 0.930 . S
H1846 C1862 0.931 . S
C1847 H1835 0.929 . S
C1847 C1841 1.390 . S
C1847 C1844 1.386 . S
C1848 C1843 1.490 . S
C1848 C1850 1.395 . S
C1848 C1851 1.403 . S
H1849 C1855 0.930 . S
C1850 H1836 0.930 . S
C1850 C1848 1.395 . S
C1850 C1853 1.403 . S
C1851 C1848 1.403 . S
C1851 C1852 1.524 . S
C1851 C1855 1.400 . S
C1852 H1837 0.960 . S
C1852 H1838 0.960 . S
C1852 H1839 0.960 . S
C1852 C1851 1.524 . S
C1853 C1850 1.403 . S
C1853 C1854 1.392 . S
C1853 C1857 1.495 . S
C1854 C1853 1.392 . S
C1854 C1855 1.385 . S
C1854 C1856 1.478 . S
C1855 H1849 0.930 . S
C1855 C1851 1.400 . S
C1855 C1854 1.385 . S
C1856 C1854 1.478 . S
C1856 C1858 1.381 . S
C1856 C1862 1.383 . S
C1857 C1853 1.495 . S
C1857 H1863 0.959 . S
C1857 H1864 0.961 . S
C1857 H1865 0.960 . S
C1858 C1856 1.381 . S
C1858 C1859 1.394 . S
C1858 H1866 0.930 . S
C1859 C1858 1.394 . S
C1859 C1860 1.383 . S
C1859 H1867 0.929 . S
C1860 C1859 1.383 . S
C1860 C1861 1.377 . S
C1861 H1845 0.930 . S
C1861 C1860 1.377 . S
C1861 C1862 1.379 . S
C1862 H1846 0.931 . S
C1862 C1856 1.383 . S
C1862 C1861 1.379 . S
H1863 C1857 0.959 . S
H1864 C1857 0.961 . S
H1865 C1857 0.960 . S
H1866 C1858 0.930 . S
H1867 C1859 0.929 . S
H1868 C1876 0.929 . S
H1869 C1878 0.930 . S
H1870 C1880 0.930 . S
H1871 C1883 0.929 . S
H1872 C1886 0.930 . S
H1873 C1888 0.960 . S
H1874 C1888 0.960 . S
H1875 C1888 0.960 . S
C1876 H1868 0.929 . S
C1876 C1877 1.377 . S
C1876 C1878 1.384 . S
C1877 C1876 1.377 . S
C1877 C1883 1.390 . S
C1878 H1869 0.930 . S
C1878 C1876 1.384 . S
C1878 C1879 1.372 . S
C1879 C1878 1.372 . S
C1879 C1880 1.400 . S
C1879 C1884 1.490 . S
C1880 H1870 0.930 . S
C1880 C1879 1.400 . S
C1880 C1883 1.386 . S
H1881 C1897 0.930 . S
H1882 C1898 0.931 . S
C1883 H1871 0.929 . S
C1883 C1877 1.390 . S
C1883 C1880 1.386 . S
C1884 C1879 1.490 . S
C1884 C1886 1.395 . S
C1884 C1887 1.403 1_554 S
H1885 C1891 0.930 . S
C1886 H1872 0.930 . S
C1886 C1884 1.395 . S
C1886 C1889 1.403 1_554 S
C1887 C1884 1.403 1_556 S
C1887 C1888 1.524 . S
C1887 C1891 1.400 . S
C1888 H1873 0.960 . S
C1888 H1874 0.960 . S
C1888 H1875 0.960 . S
C1888 C1887 1.524 . S
C1889 C1886 1.403 1_556 S
C1889 C1890 1.392 . S
C1889 C1893 1.495 1_556 S
C1890 C1889 1.392 . S
C1890 C1891 1.385 . S
C1890 C1892 1.478 . S
C1891 H1885 0.930 . S
C1891 C1887 1.400 . S
C1891 C1890 1.385 . S
C1892 C1890 1.478 . S
C1892 C1894 1.381 . S
C1892 C1898 1.383 . S
C1893 C1889 1.495 1_554 S
C1893 H1899 0.959 . S
C1893 H1900 0.961 1_554 S
C1893 H1901 0.960 1_554 S
C1894 C1892 1.381 . S
C1894 C1895 1.394 . S
C1894 H1902 0.930 . S
C1895 C1894 1.394 . S
C1895 C1896 1.383 . S
C1895 H1903 0.929 1_655 S
C1896 C1895 1.383 . S
C1896 C1897 1.377 . S
C1897 H1881 0.930 . S
C1897 C1896 1.377 . S
C1897 C1898 1.379 . S
C1898 H1882 0.931 . S
C1898 C1892 1.383 . S
C1898 C1897 1.379 . S
H1899 C1893 0.959 . S
H1900 C1893 0.961 1_556 S
H1901 C1893 0.960 1_556 S
H1902 C1894 0.930 . S
H1903 C1895 0.929 1_455 S
H1904 C1912 0.929 . S
H1905 C1914 0.930 . S
H1906 C1916 0.930 . S
H1907 C1919 0.929 . S
H1908 C1922 0.930 . S
H1909 C1924 0.960 . S
H1910 C1924 0.960 . S
H1911 C1924 0.960 . S
C1912 H1904 0.929 . S
C1912 C1913 1.377 . S
C1912 C1914 1.384 . S
C1913 C1912 1.377 . S
C1913 C1919 1.390 . S
C1914 H1905 0.930 . S
C1914 C1912 1.384 . S
C1914 C1915 1.372 . S
C1915 C1914 1.372 . S
C1915 C1916 1.400 . S
C1915 C1920 1.490 . S
C1916 H1906 0.930 . S
C1916 C1915 1.400 . S
C1916 C1919 1.386 . S
H1917 C1933 0.930 . S
H1918 C1934 0.931 . S
C1919 H1907 0.929 . S
C1919 C1913 1.390 . S
C1919 C1916 1.386 . S
C1920 C1915 1.490 . S
C1920 C1922 1.395 . S
C1920 C1923 1.403 . S
H1921 C1927 0.930 . S
C1922 H1908 0.930 . S
C1922 C1920 1.395 . S
C1922 C1925 1.403 . S
C1923 C1920 1.403 . S
C1923 C1924 1.524 . S
C1923 C1927 1.400 . S
C1924 H1909 0.960 . S
C1924 H1910 0.960 . S
C1924 H1911 0.960 . S
C1924 C1923 1.524 . S
C1925 C1922 1.403 . S
C1925 C1926 1.392 . S
C1925 C1929 1.495 . S
C1926 C1925 1.392 . S
C1926 C1927 1.385 . S
C1926 C1928 1.478 . S
C1927 H1921 0.930 . S
C1927 C1923 1.400 . S
C1927 C1926 1.385 . S
C1928 C1926 1.478 . S
C1928 C1930 1.381 . S
C1928 C1934 1.383 . S
C1929 C1925 1.495 . S
C1929 H1935 0.959 . S
C1929 H1936 0.961 . S
C1929 H1937 0.960 . S
C1930 C1928 1.381 . S
C1930 C1931 1.394 . S
C1930 H1938 0.930 . S
C1931 C1930 1.394 . S
C1931 C1932 1.383 . S
C1931 H1939 0.929 . S
C1932 C1931 1.383 . S
C1932 C1933 1.377 . S
C1933 H1917 0.930 . S
C1933 C1932 1.377 . S
C1933 C1934 1.379 . S
C1934 H1918 0.931 . S
C1934 C1928 1.383 . S
C1934 C1933 1.379 . S
H1935 C1929 0.959 . S
H1936 C1929 0.961 . S
H1937 C1929 0.960 . S
H1938 C1930 0.930 . S
H1939 C1931 0.929 . S
H1940 C1948 0.929 . S
H1941 C1950 0.930 . S
H1942 C1952 0.930 . S
H1943 C1955 0.929 . S
H1944 C1958 0.930 . S
H1945 C1960 0.960 . S
H1946 C1960 0.960 . S
H1947 C1960 0.960 . S
C1948 H1940 0.929 . S
C1948 C1949 1.377 . S
C1948 C1950 1.384 . S
C1949 C1948 1.377 . S
C1949 C1955 1.390 . S
C1950 H1941 0.930 . S
C1950 C1948 1.384 . S
C1950 C1951 1.372 . S
C1951 C1950 1.372 . S
C1951 C1952 1.400 . S
C1951 C1956 1.490 . S
C1952 H1942 0.930 . S
C1952 C1951 1.400 . S
C1952 C1955 1.386 . S
H1953 C1969 0.930 . S
H1954 C1970 0.931 . S
C1955 H1943 0.929 . S
C1955 C1949 1.390 . S
C1955 C1952 1.386 . S
C1956 C1951 1.490 . S
C1956 C1958 1.395 . S
C1956 C1959 1.403 . S
H1957 C1963 0.930 . S
C1958 H1944 0.930 . S
C1958 C1956 1.395 . S
C1958 C1961 1.403 1_554 S
C1959 C1956 1.403 . S
C1959 C1960 1.524 . S
C1959 C1963 1.400 . S
C1960 H1945 0.960 . S
C1960 H1946 0.960 . S
C1960 H1947 0.960 . S
C1960 C1959 1.524 . S
C1961 C1958 1.403 1_556 S
C1961 C1962 1.392 . S
C1961 C1965 1.495 . S
C1962 C1961 1.392 . S
C1962 C1963 1.385 1_556 S
C1962 C1964 1.478 . S
C1963 H1957 0.930 . S
C1963 C1959 1.400 . S
C1963 C1962 1.385 1_554 S
C1964 C1962 1.478 . S
C1964 C1966 1.381 . S
C1964 C1970 1.383 . S
C1965 C1961 1.495 . S
C1965 H1971 0.959 . S
C1965 H1972 0.961 . S
C1965 H1973 0.960 . S
C1966 C1964 1.381 . S
C1966 C1967 1.394 . S
C1966 H1974 0.930 . S
C1967 C1966 1.394 . S
C1967 C1968 1.383 . S
C1967 H1975 0.929 . S
C1968 C1967 1.383 . S
C1968 C1969 1.377 . S
C1969 H1953 0.930 . S
C1969 C1968 1.377 . S
C1969 C1970 1.379 . S
C1970 H1954 0.931 . S
C1970 C1964 1.383 . S
C1970 C1969 1.379 . S
H1971 C1965 0.959 . S
H1972 C1965 0.961 . S
H1973 C1965 0.960 . S
H1974 C1966 0.930 . S
H1975 C1967 0.929 . S
H1976 C1984 0.929 . S
H1977 C1986 0.930 . S
H1978 C1988 0.930 . S
H1979 C1991 0.929 . S
H1980 C1994 0.930 . S
H1981 C1996 0.960 . S
H1982 C1996 0.960 . S
H1983 C1996 0.960 . S
C1984 H1976 0.929 . S
C1984 C1985 1.377 . S
C1984 C1986 1.384 . S
C1985 C1984 1.377 . S
C1985 C1991 1.390 . S
C1986 H1977 0.930 . S
C1986 C1984 1.384 . S
C1986 C1987 1.372 . S
C1987 C1986 1.372 . S
C1987 C1988 1.400 . S
C1987 C1992 1.490 . S
C1988 H1978 0.930 . S
C1988 C1987 1.400 . S
C1988 C1991 1.386 . S
H1989 C2005 0.930 . S
H1990 C2006 0.931 . S
C1991 H1979 0.929 . S
C1991 C1985 1.390 . S
C1991 C1988 1.386 . S
C1992 C1987 1.490 . S
C1992 C1994 1.395 . S
C1992 C1995 1.403 . S
H1993 C1999 0.930 . S
C1994 H1980 0.930 . S
C1994 C1992 1.395 . S
C1994 C1997 1.403 . S
C1995 C1992 1.403 . S
C1995 C1996 1.524 . S
C1995 C1999 1.400 . S
C1996 H1981 0.960 . S
C1996 H1982 0.960 . S
C1996 H1983 0.960 . S
C1996 C1995 1.524 . S
C1997 C1994 1.403 . S
C1997 C1998 1.392 . S
C1997 C2001 1.495 . S
C1998 C1997 1.392 . S
C1998 C1999 1.385 . S
C1998 C2000 1.478 . S
C1999 H1993 0.930 . S
C1999 C1995 1.400 . S
C1999 C1998 1.385 . S
C2000 C1998 1.478 . S
C2000 C2002 1.381 . S
C2000 C2006 1.383 . S
C2001 C1997 1.495 . S
C2001 H2007 0.959 . S
C2001 H2008 0.961 . S
C2001 H2009 0.960 . S
C2002 C2000 1.381 . S
C2002 C2003 1.394 . S
C2002 H2010 0.930 . S
C2003 C2002 1.394 . S
C2003 C2004 1.383 . S
C2003 H2011 0.929 . S
C2004 C2003 1.383 . S
C2004 C2005 1.377 . S
C2005 H1989 0.930 . S
C2005 C2004 1.377 . S
C2005 C2006 1.379 . S
C2006 H1990 0.931 . S
C2006 C2000 1.383 . S
C2006 C2005 1.379 . S
H2007 C2001 0.959 . S
H2008 C2001 0.961 . S
H2009 C2001 0.960 . S
H2010 C2002 0.930 . S
H2011 C2003 0.929 . S
H2012 C2020 0.929 . S
H2013 C2022 0.919 1_554 S
H2014 C2024 0.930 . S
H2015 C2027 0.929 . S
H2016 C2030 0.930 . S
H2017 C2032 0.960 . S
H2018 C2032 0.960 . S
H2019 C2032 0.960 . S
C2020 H2012 0.929 . S
C2020 C2021 1.377 . S
C2020 C2022 1.384 . S
C2021 C2020 1.377 . S
C2021 C2027 1.390 . S
C2022 H2013 0.919 1_556 S
C2022 C2020 1.384 . S
C2022 C2023 1.372 . S
C2023 C2022 1.372 . S
C2023 C2024 1.400 . S
C2023 C2028 1.490 1_556 S
C2024 H2014 0.930 . S
C2024 C2023 1.400 . S
C2024 C2027 1.386 . S
H2025 C2041 0.930 . S
H2026 C2042 0.931 . S
C2027 H2015 0.929 . S
C2027 C2021 1.390 . S
C2027 C2024 1.386 . S
C2028 C2023 1.490 1_554 S
C2028 C2030 1.395 . S
C2028 C2031 1.403 . S
H2029 C2035 0.930 . S
C2030 H2016 0.930 . S
C2030 C2028 1.395 . S
C2030 C2033 1.403 . S
C2031 C2028 1.403 . S
C2031 C2032 1.524 1_554 S
C2031 C2035 1.400 . S
C2032 H2017 0.960 . S
C2032 H2018 0.960 . S
C2032 H2019 0.960 . S
C2032 C2031 1.524 1_556 S
C2033 C2030 1.403 . S
C2033 C2034 1.392 . S
C2033 C2037 1.495 . S
C2034 C2033 1.392 . S
C2034 C2035 1.385 . S
C2034 C2036 1.478 . S
C2035 H2029 0.930 . S
C2035 C2031 1.400 . S
C2035 C2034 1.385 . S
C2036 C2034 1.478 . S
C2036 C2038 1.381 . S
C2036 C2042 1.383 . S
C2037 C2033 1.495 . S
C2037 H2043 0.959 . S
C2037 H2044 0.961 . S
C2037 H2045 0.960 . S
C2038 C2036 1.381 . S
C2038 C2039 1.394 . S
C2038 H2046 0.930 . S
C2039 C2038 1.394 . S
C2039 C2040 1.383 . S
C2039 H2047 0.929 . S
C2040 C2039 1.383 . S
C2040 C2041 1.377 . S
C2041 H2025 0.930 . S
C2041 C2040 1.377 . S
C2041 C2042 1.379 . S
C2042 H2026 0.931 . S
C2042 C2036 1.383 . S
C2042 C2041 1.379 . S
H2043 C2037 0.959 . S
H2044 C2037 0.961 . S
H2045 C2037 0.960 . S
H2046 C2038 0.930 . S
H2047 C2039 0.929 . S
H2048 C2056 0.929 . S
H2049 C2058 0.930 . S
H2050 C2060 0.930 . S
H2051 C2063 0.929 . S
H2052 C2066 0.930 . S
H2053 C2068 0.960 . S
H2054 C2068 0.960 . S
H2055 C2068 0.960 . S
C2056 H2048 0.929 . S
C2056 C2057 1.377 . S
C2056 C2058 1.384 . S
C2057 C2056 1.377 . S
C2057 C2063 1.390 . S
C2058 H2049 0.930 . S
C2058 C2056 1.384 . S
C2058 C2059 1.372 . S
C2059 C2058 1.372 . S
C2059 C2060 1.400 . S
C2059 C2064 1.490 . S
C2060 H2050 0.930 . S
C2060 C2059 1.400 . S
C2060 C2063 1.386 . S
H2061 C2077 0.930 . S
H2062 C2078 0.931 . S
C2063 H2051 0.929 . S
C2063 C2057 1.390 . S
C2063 C2060 1.386 . S
C2064 C2059 1.490 . S
C2064 C2066 1.395 . S
C2064 C2067 1.403 . S
H2065 C2071 0.930 . S
C2066 H2052 0.930 . S
C2066 C2064 1.395 . S
C2066 C2069 1.403 . S
C2067 C2064 1.403 . S
C2067 C2068 1.524 . S
C2067 C2071 1.400 . S
C2068 H2053 0.960 . S
C2068 H2054 0.960 . S
C2068 H2055 0.960 . S
C2068 C2067 1.524 . S
C2069 C2066 1.403 . S
C2069 C2070 1.392 . S
C2069 C2073 1.495 . S
C2070 C2069 1.392 . S
C2070 C2071 1.385 . S
C2070 C2072 1.478 . S
C2071 H2065 0.930 . S
C2071 C2067 1.400 . S
C2071 C2070 1.385 . S
C2072 C2070 1.478 . S
C2072 C2074 1.381 . S
C2072 C2078 1.383 . S
C2073 C2069 1.495 . S
C2073 H2079 0.959 . S
C2073 H2080 0.961 . S
C2073 H2081 0.960 . S
C2074 C2072 1.381 . S
C2074 C2075 1.394 . S
C2074 H2082 0.930 . S
C2075 C2074 1.394 . S
C2075 C2076 1.383 . S
C2075 H2083 0.929 . S
C2076 C2075 1.383 . S
C2076 C2077 1.377 . S
C2077 H2061 0.930 . S
C2077 C2076 1.377 . S
C2077 C2078 1.379 . S
C2078 H2062 0.931 . S
C2078 C2072 1.383 . S
C2078 C2077 1.379 . S
H2079 C2073 0.959 . S
H2080 C2073 0.961 . S
H2081 C2073 0.960 . S
H2082 C2074 0.930 . S
H2083 C2075 0.929 . S
H2084 C2092 0.929 . S
H2085 C2094 0.930 . S
H2086 C2096 0.930 . S
H2087 C2099 0.929 . S
H2088 C2102 0.930 . S
H2089 C2104 0.960 . S
H2090 C2104 0.960 . S
H2091 C2104 0.960 . S
C2092 H2084 0.929 . S
C2092 C2093 1.377 . S
C2092 C2094 1.384 . S
C2093 C2092 1.377 . S
C2093 C2099 1.393 1_556 S
C2094 H2085 0.930 . S
C2094 C2092 1.384 . S
C2094 C2095 1.372 1_556 S
C2095 C2094 1.372 1_554 S
C2095 C2096 1.400 . S
C2095 C2100 1.490 . S
C2096 H2086 0.930 . S
C2096 C2095 1.400 . S
C2096 C2099 1.383 . S
H2097 C2113 0.930 . S
H2098 C2114 0.931 . S
C2099 H2087 0.929 . S
C2099 C2093 1.393 1_554 S
C2099 C2096 1.383 . S
C2100 C2095 1.490 . S
C2100 C2102 1.395 . S
C2100 C2103 1.403 . S
H2101 C2107 0.930 . S
C2102 H2088 0.930 . S
C2102 C2100 1.395 . S
C2102 C2105 1.403 . S
C2103 C2100 1.403 . S
C2103 C2104 1.524 . S
C2103 C2107 1.400 . S
C2104 H2089 0.960 . S
C2104 H2090 0.960 . S
C2104 H2091 0.960 . S
C2104 C2103 1.524 . S
C2105 C2102 1.403 . S
C2105 C2106 1.392 . S
C2105 C2109 1.495 . S
C2106 C2105 1.392 . S
C2106 C2107 1.385 . S
C2106 C2108 1.478 . S
C2107 H2101 0.930 . S
C2107 C2103 1.400 . S
C2107 C2106 1.385 . S
C2108 C2106 1.478 . S
C2108 C2110 1.381 . S
C2108 C2114 1.383 . S
C2109 C2105 1.495 . S
C2109 H2115 0.959 . S
C2109 H2116 0.961 . S
C2109 H2117 0.960 . S
C2110 C2108 1.381 . S
C2110 C2111 1.394 . S
C2110 H2118 0.930 . S
C2111 C2110 1.394 . S
C2111 C2112 1.383 . S
C2111 H2119 0.929 . S
C2112 C2111 1.383 . S
C2112 C2113 1.377 . S
C2113 H2097 0.930 . S
C2113 C2112 1.377 . S
C2113 C2114 1.379 . S
C2114 H2098 0.931 . S
C2114 C2108 1.383 . S
C2114 C2113 1.379 . S
H2115 C2109 0.959 . S
H2116 C2109 0.961 . S
H2117 C2109 0.960 . S
H2118 C2110 0.930 . S
H2119 C2111 0.929 . S
H2120 C2128 0.929 . S
H2121 C2130 0.930 . S
H2122 C2132 0.930 . S
H2123 C2135 0.929 . S
H2124 C2138 0.930 . S
H2125 C2140 0.960 . S
H2126 C2140 0.960 . S
H2127 C2140 0.960 . S
C2128 H2120 0.929 . S
C2128 C2129 1.377 . S
C2128 C2130 1.384 . S
C2129 C2128 1.377 . S
C2129 C2135 1.390 . S
C2130 H2121 0.930 . S
C2130 C2128 1.384 . S
C2130 C2131 1.372 . S
C2131 C2130 1.372 . S
C2131 C2132 1.400 . S
C2131 C2136 1.490 . S
C2132 H2122 0.930 . S
C2132 C2131 1.400 . S
C2132 C2135 1.386 . S
H2133 C2149 0.930 . S
H2134 C2150 0.931 . S
C2135 H2123 0.929 . S
C2135 C2129 1.390 . S
C2135 C2132 1.386 . S
C2136 C2131 1.490 . S
C2136 C2138 1.395 . S
C2136 C2139 1.403 . S
H2137 C2143 0.930 . S
C2138 H2124 0.930 . S
C2138 C2136 1.395 . S
C2138 C2141 1.403 . S
C2139 C2136 1.403 . S
C2139 C2140 1.524 . S
C2139 C2143 1.400 . S
C2140 H2125 0.960 . S
C2140 H2126 0.960 . S
C2140 H2127 0.960 . S
C2140 C2139 1.524 . S
C2141 C2138 1.403 . S
C2141 C2142 1.392 . S
C2141 C2145 1.495 . S
C2142 C2141 1.392 . S
C2142 C2143 1.385 . S
C2142 C2144 1.478 . S
C2143 H2137 0.930 . S
C2143 C2139 1.400 . S
C2143 C2142 1.385 . S
C2144 C2142 1.478 . S
C2144 C2146 1.381 . S
C2144 C2150 1.383 . S
C2145 C2141 1.495 . S
C2145 H2151 0.959 . S
C2145 H2152 0.961 . S
C2145 H2153 0.960 . S
C2146 C2144 1.381 . S
C2146 C2147 1.394 . S
C2146 H2154 0.930 . S
C2147 C2146 1.394 . S
C2147 C2148 1.383 . S
C2147 H2155 0.929 . S
C2148 C2147 1.383 . S
C2148 C2149 1.377 . S
C2149 H2133 0.930 . S
C2149 C2148 1.377 . S
C2149 C2150 1.379 . S
C2150 H2134 0.931 . S
C2150 C2144 1.383 . S
C2150 C2149 1.379 . S
H2151 C2145 0.959 . S
H2152 C2145 0.961 . S
H2153 C2145 0.960 . S
H2154 C2146 0.930 . S
H2155 C2147 0.929 . S
H2156 C2164 0.929 . S
H2157 C2166 0.930 . S
H2158 C2168 0.930 . S
H2159 C2171 0.929 . S
H2160 C2174 0.930 . S
H2161 C2176 0.960 . S
H2162 C2176 0.960 . S
H2163 C2176 0.960 . S
C2164 H2156 0.929 . S
C2164 C2165 1.377 . S
C2164 C2166 1.384 . S
C2165 C2164 1.377 . S
C2165 C2171 1.390 . S
C2166 H2157 0.930 . S
C2166 C2164 1.384 . S
C2166 C2167 1.372 . S
C2167 C2166 1.372 . S
C2167 C2168 1.400 . S
C2167 C2172 1.490 . S
C2168 H2158 0.930 . S
C2168 C2167 1.400 . S
C2168 C2171 1.386 . S
H2169 C2185 0.930 . S
H2170 C2186 0.931 . S
C2171 H2159 0.929 . S
C2171 C2165 1.390 . S
C2171 C2168 1.386 . S
C2172 C2167 1.490 . S
C2172 C2174 1.395 . S
C2172 C2175 1.403 . S
H2173 C2179 0.930 . S
C2174 H2160 0.930 . S
C2174 C2172 1.395 . S
C2174 C2177 1.403 . S
C2175 C2172 1.403 . S
C2175 C2176 1.524 . S
C2175 C2179 1.400 . S
C2176 H2161 0.960 . S
C2176 H2162 0.960 . S
C2176 H2163 0.960 . S
C2176 C2175 1.524 . S
C2177 C2174 1.403 . S
C2177 C2178 1.392 . S
C2177 C2181 1.495 . S
C2178 C2177 1.392 . S
C2178 C2179 1.385 . S
C2178 C2180 1.478 . S
C2179 H2173 0.930 . S
C2179 C2175 1.400 . S
C2179 C2178 1.385 . S
C2180 C2178 1.478 . S
C2180 C2182 1.381 . S
C2180 C2186 1.383 . S
C2181 C2177 1.495 . S
C2181 H2187 0.959 . S
C2181 H2188 0.961 . S
C2181 H2189 0.960 . S
C2182 C2180 1.381 . S
C2182 C2183 1.394 . S
C2182 H2190 0.930 . S
C2183 C2182 1.394 . S
C2183 C2184 1.383 . S
C2183 H2191 0.929 . S
C2184 C2183 1.383 . S
C2184 C2185 1.377 . S
C2185 H2169 0.930 . S
C2185 C2184 1.377 . S
C2185 C2186 1.379 . S
C2186 H2170 0.931 . S
C2186 C2180 1.383 . S
C2186 C2185 1.379 . S
H2187 C2181 0.959 . S
H2188 C2181 0.961 . S
H2189 C2181 0.960 . S
H2190 C2182 0.930 . S
H2191 C2183 0.929 . S
H2192 C2200 0.929 . S
H2193 C2202 0.930 . S
H2194 C2204 0.930 . S
H2195 C2207 0.929 . S
H2196 C2210 0.930 . S
H2197 C2212 0.960 . S
H2198 C2212 0.960 . S
H2199 C2212 0.960 . S
C2200 H2192 0.929 . S
C2200 C2201 1.377 . S
C2200 C2202 1.384 . S
C2201 C2200 1.377 . S
C2201 C2207 1.390 . S
C2202 H2193 0.930 . S
C2202 C2200 1.384 . S
C2202 C2203 1.372 . S
C2203 C2202 1.372 . S
C2203 C2204 1.400 . S
C2203 C2208 1.490 . S
C2204 H2194 0.930 . S
C2204 C2203 1.400 . S
C2204 C2207 1.386 . S
H2205 C2221 0.930 . S
H2206 C2222 0.931 . S
C2207 H2195 0.929 . S
C2207 C2201 1.390 . S
C2207 C2204 1.386 . S
C2208 C2203 1.490 . S
C2208 C2210 1.395 . S
C2208 C2211 1.403 . S
H2209 C2215 0.930 . S
C2210 H2196 0.930 . S
C2210 C2208 1.395 . S
C2210 C2213 1.403 . S
C2211 C2208 1.403 . S
C2211 C2212 1.524 . S
C2211 C2215 1.400 . S
C2212 H2197 0.960 . S
C2212 H2198 0.960 . S
C2212 H2199 0.960 . S
C2212 C2211 1.524 . S
C2213 C2210 1.403 . S
C2213 C2214 1.392 . S
C2213 C2217 1.495 . S
C2214 C2213 1.392 . S
C2214 C2215 1.385 . S
C2214 C2216 1.478 . S
C2215 H2209 0.930 . S
C2215 C2211 1.400 . S
C2215 C2214 1.385 . S
C2216 C2214 1.478 . S
C2216 C2218 1.381 . S
C2216 C2222 1.383 . S
C2217 C2213 1.495 . S
C2217 H2223 0.959 . S
C2217 H2224 0.961 . S
C2217 H2225 0.960 . S
C2218 C2216 1.381 . S
C2218 C2219 1.394 . S
C2218 H2226 0.930 . S
C2219 C2218 1.394 . S
C2219 C2220 1.383 . S
C2219 H2227 0.929 . S
C2220 C2219 1.383 . S
C2220 C2221 1.377 . S
C2221 H2205 0.930 . S
C2221 C2220 1.377 . S
C2221 C2222 1.379 . S
C2222 H2206 0.931 . S
C2222 C2216 1.383 . S
C2222 C2221 1.379 . S
H2223 C2217 0.959 . S
H2224 C2217 0.961 . S
H2225 C2217 0.960 . S
H2226 C2218 0.930 . S
H2227 C2219 0.929 . S
H2228 C2236 0.929 . S
H2229 C2238 0.930 . S
H2230 C2240 0.930 . S
H2231 C2243 0.929 . S
H2232 C2246 0.930 . S
H2233 C2248 0.960 . S
H2234 C2248 0.960 . S
H2235 C2248 0.960 . S
C2236 H2228 0.929 . S
C2236 C2237 1.377 . S
C2236 C2238 1.384 . S
C2237 C2236 1.377 . S
C2237 C2243 1.390 . S
C2238 H2229 0.930 . S
C2238 C2236 1.384 . S
C2238 C2239 1.372 . S
C2239 C2238 1.372 . S
C2239 C2240 1.400 . S
C2239 C2244 1.490 . S
C2240 H2230 0.930 . S
C2240 C2239 1.400 . S
C2240 C2243 1.386 . S
H2241 C2257 0.930 . S
H2242 C2258 0.931 . S
C2243 H2231 0.929 . S
C2243 C2237 1.390 . S
C2243 C2240 1.386 . S
C2244 C2239 1.490 . S
C2244 C2246 1.395 . S
C2244 C2247 1.403 . S
H2245 C2251 0.930 . S
C2246 H2232 0.930 . S
C2246 C2244 1.395 . S
C2246 C2249 1.403 . S
C2247 C2244 1.403 . S
C2247 C2248 1.524 . S
C2247 C2251 1.400 . S
C2248 H2233 0.960 . S
C2248 H2234 0.960 . S
C2248 H2235 0.960 . S
C2248 C2247 1.524 . S
C2249 C2246 1.403 . S
C2249 C2250 1.392 . S
C2249 C2253 1.495 . S
C2250 C2249 1.392 . S
C2250 C2251 1.385 . S
C2250 C2252 1.478 . S
C2251 H2245 0.930 . S
C2251 C2247 1.400 . S
C2251 C2250 1.385 . S
C2252 C2250 1.478 . S
C2252 C2254 1.381 . S
C2252 C2258 1.383 . S
C2253 C2249 1.495 . S
C2253 H2259 0.959 . S
C2253 H2260 0.961 . S
C2253 H2261 0.960 . S
C2254 C2252 1.381 . S
C2254 C2255 1.394 . S
C2254 H2262 0.930 . S
C2255 C2254 1.394 . S
C2255 C2256 1.383 . S
C2255 H2263 0.929 . S
C2256 C2255 1.383 . S
C2256 C2257 1.377 . S
C2257 H2241 0.930 . S
C2257 C2256 1.377 . S
C2257 C2258 1.379 . S
C2258 H2242 0.931 . S
C2258 C2252 1.383 . S
C2258 C2257 1.379 . S
H2259 C2253 0.959 . S
H2260 C2253 0.961 . S
H2261 C2253 0.960 . S
H2262 C2254 0.930 . S
H2263 C2255 0.929 . S
H2264 C2272 0.929 . S
H2265 C2274 0.930 . S
H2266 C2276 0.930 . S
H2267 C2279 0.929 . S
H2268 C2282 0.930 . S
H2269 C2284 0.960 . S
H2270 C2284 0.960 . S
H2271 C2284 0.960 . S
C2272 H2264 0.929 . S
C2272 C2273 1.377 . S
C2272 C2274 1.384 . S
C2273 C2272 1.377 . S
C2273 C2279 1.390 . S
C2274 H2265 0.930 . S
C2274 C2272 1.384 . S
C2274 C2275 1.372 . S
C2275 C2274 1.372 . S
C2275 C2276 1.400 . S
C2275 C2280 1.490 . S
C2276 H2266 0.930 . S
C2276 C2275 1.400 . S
C2276 C2279 1.386 . S
H2277 C2293 0.930 . S
H2278 C2294 0.931 . S
C2279 H2267 0.929 . S
C2279 C2273 1.390 . S
C2279 C2276 1.386 . S
C2280 C2275 1.490 . S
C2280 C2282 1.395 . S
C2280 C2283 1.403 . S
H2281 C2287 0.930 . S
C2282 H2268 0.930 . S
C2282 C2280 1.395 . S
C2282 C2285 1.403 . S
C2283 C2280 1.403 . S
C2283 C2284 1.524 . S
C2283 C2287 1.400 . S
C2284 H2269 0.960 . S
C2284 H2270 0.960 . S
C2284 H2271 0.960 . S
C2284 C2283 1.524 . S
C2285 C2282 1.403 . S
C2285 C2286 1.392 . S
C2285 C2289 1.495 . S
C2286 C2285 1.392 . S
C2286 C2287 1.385 . S
C2286 C2288 1.478 . S
C2287 H2281 0.930 . S
C2287 C2283 1.400 . S
C2287 C2286 1.385 . S
C2288 C2286 1.478 . S
C2288 C2290 1.381 . S
C2288 C2294 1.383 . S
C2289 C2285 1.495 . S
C2289 H2295 0.959 . S
C2289 H2296 0.961 . S
C2289 H2297 0.960 . S
C2290 C2288 1.381 . S
C2290 C2291 1.394 . S
C2290 H2298 0.930 . S
C2291 C2290 1.394 . S
C2291 C2292 1.383 . S
C2291 H2299 0.929 1_556 S
C2292 C2291 1.383 . S
C2292 C2293 1.377 . S
C2293 H2277 0.930 . S
C2293 C2292 1.377 . S
C2293 C2294 1.379 . S
C2294 H2278 0.931 . S
C2294 C2288 1.383 . S
C2294 C2293 1.379 . S
H2295 C2289 0.959 . S
H2296 C2289 0.961 . S
H2297 C2289 0.960 . S
H2298 C2290 0.930 . S
H2299 C2291 0.929 1_554 S
H2300 C2308 0.929 . S
H2301 C2310 0.930 . S
H2302 C2312 0.930 . S
H2303 C2315 0.929 . S
H2304 C2318 0.930 . S
H2305 C2320 0.960 . S
H2306 C2320 0.960 . S
H2307 C2320 0.960 . S
C2308 H2300 0.929 . S
C2308 C2309 1.377 . S
C2308 C2310 1.384 . S
C2309 C2308 1.377 . S
C2309 C2315 1.390 . S
C2310 H2301 0.930 . S
C2310 C2308 1.384 . S
C2310 C2311 1.372 . S
C2311 C2310 1.372 . S
C2311 C2312 1.400 . S
C2311 C2316 1.490 . S
C2312 H2302 0.930 . S
C2312 C2311 1.400 . S
C2312 C2315 1.386 . S
H2313 C2329 0.930 . S
H2314 C2330 0.931 . S
C2315 H2303 0.929 . S
C2315 C2309 1.390 . S
C2315 C2312 1.386 . S
C2316 C2311 1.490 . S
C2316 C2318 1.395 . S
C2316 C2319 1.403 . S
H2317 C2323 0.930 . S
C2318 H2304 0.930 . S
C2318 C2316 1.395 . S
C2318 C2321 1.403 . S
C2319 C2316 1.403 . S
C2319 C2320 1.524 . S
C2319 C2323 1.400 . S
C2320 H2305 0.960 . S
C2320 H2306 0.960 . S
C2320 H2307 0.960 . S
C2320 C2319 1.524 . S
C2321 C2318 1.403 . S
C2321 C2322 1.392 . S
C2321 C2325 1.495 . S
C2322 C2321 1.392 . S
C2322 C2323 1.385 . S
C2322 C2324 1.478 . S
C2323 H2317 0.930 . S
C2323 C2319 1.400 . S
C2323 C2322 1.385 . S
C2324 C2322 1.478 . S
C2324 C2326 1.381 . S
C2324 C2330 1.383 . S
C2325 C2321 1.495 . S
C2325 H2331 0.959 . S
C2325 H2332 0.961 . S
C2325 H2333 0.960 . S
C2326 C2324 1.381 . S
C2326 C2327 1.394 . S
C2326 H2334 0.930 . S
C2327 C2326 1.394 . S
C2327 C2328 1.383 . S
C2327 H2335 0.929 . S
C2328 C2327 1.383 . S
C2328 C2329 1.377 . S
C2329 H2313 0.930 . S
C2329 C2328 1.377 . S
C2329 C2330 1.379 . S
C2330 H2314 0.931 . S
C2330 C2324 1.383 . S
C2330 C2329 1.379 . S
H2331 C2325 0.959 . S
H2332 C2325 0.961 . S
H2333 C2325 0.960 . S
H2334 C2326 0.930 . S
H2335 C2327 0.929 . S
H2336 C2344 0.929 . S
H2337 C2346 0.930 . S
H2338 C2348 0.930 . S
H2339 C2351 0.929 . S
H2340 C2354 0.930 . S
H2341 C2356 0.960 . S
H2342 C2356 0.960 . S
H2343 C2356 0.960 . S
C2344 H2336 0.929 . S
C2344 C2345 1.377 . S
C2344 C2346 1.384 . S
C2345 C2344 1.377 . S
C2345 C2351 1.390 . S
C2346 H2337 0.930 . S
C2346 C2344 1.384 . S
C2346 C2347 1.372 . S
C2347 C2346 1.372 . S
C2347 C2348 1.400 . S
C2347 C2352 1.490 . S
C2348 H2338 0.930 . S
C2348 C2347 1.400 . S
C2348 C2351 1.386 . S
H2349 C2365 0.930 . S
H2350 C2366 0.931 . S
C2351 H2339 0.929 . S
C2351 C2345 1.390 . S
C2351 C2348 1.386 . S
C2352 C2347 1.490 . S
C2352 C2354 1.395 . S
C2352 C2355 1.403 . S
H2353 C2359 0.930 . S
C2354 H2340 0.930 . S
C2354 C2352 1.395 . S
C2354 C2357 1.403 . S
C2355 C2352 1.403 . S
C2355 C2356 1.524 . S
C2355 C2359 1.400 . S
C2356 H2341 0.960 . S
C2356 H2342 0.960 . S
C2356 H2343 0.960 . S
C2356 C2355 1.524 . S
C2357 C2354 1.403 . S
C2357 C2358 1.392 . S
C2357 C2361 1.495 . S
C2358 C2357 1.392 . S
C2358 C2359 1.385 . S
C2358 C2360 1.478 . S
C2359 H2353 0.930 . S
C2359 C2355 1.400 . S
C2359 C2358 1.385 . S
C2360 C2358 1.478 . S
C2360 C2362 1.381 . S
C2360 C2366 1.383 . S
C2361 C2357 1.495 . S
C2361 H2367 0.959 . S
C2361 H2368 0.961 . S
C2361 H2369 0.960 . S
C2362 C2360 1.381 . S
C2362 C2363 1.394 . S
C2362 H2370 0.930 . S
C2363 C2362 1.394 . S
C2363 C2364 1.383 . S
C2363 H2371 0.929 . S
C2364 C2363 1.383 . S
C2364 C2365 1.377 . S
C2365 H2349 0.930 . S
C2365 C2364 1.377 . S
C2365 C2366 1.379 . S
C2366 H2350 0.931 . S
C2366 C2360 1.383 . S
C2366 C2365 1.379 . S
H2367 C2361 0.959 . S
H2368 C2361 0.961 . S
H2369 C2361 0.960 . S
H2370 C2362 0.930 . S
H2371 C2363 0.929 . S
H2372 C2380 0.929 . S
H2373 C2382 0.930 . S
H2374 C2384 0.930 . S
H2375 C2387 0.929 . S
H2376 C2390 0.930 . S
H2377 C2392 0.960 . S
H2378 C2392 0.960 . S
H2379 C2392 0.960 . S
C2380 H2372 0.929 . S
C2380 C2381 1.377 . S
C2380 C2382 1.384 . S
C2381 C2380 1.377 . S
C2381 C2387 1.390 . S
C2382 H2373 0.930 . S
C2382 C2380 1.384 . S
C2382 C2383 1.372 . S
C2383 C2382 1.372 . S
C2383 C2384 1.400 . S
C2383 C2388 1.490 . S
C2384 H2374 0.930 . S
C2384 C2383 1.400 . S
C2384 C2387 1.386 . S
H2385 C2401 0.930 . S
H2386 C2402 0.931 . S
C2387 H2375 0.929 . S
C2387 C2381 1.390 . S
C2387 C2384 1.386 . S
C2388 C2383 1.490 . S
C2388 C2390 1.395 . S
C2388 C2391 1.403 . S
H2389 C2395 0.930 . S
C2390 H2376 0.930 . S
C2390 C2388 1.395 . S
C2390 C2393 1.403 . S
C2391 C2388 1.403 . S
C2391 C2392 1.524 . S
C2391 C2395 1.400 . S
C2392 H2377 0.960 . S
C2392 H2378 0.960 . S
C2392 H2379 0.960 . S
C2392 C2391 1.524 . S
C2393 C2390 1.403 . S
C2393 C2394 1.392 . S
C2393 C2397 1.495 1_545 S
C2394 C2393 1.392 . S
C2394 C2395 1.385 . S
C2394 C2396 1.478 1_545 S
C2395 H2389 0.930 . S
C2395 C2391 1.400 . S
C2395 C2394 1.385 . S
C2396 C2394 1.478 1_565 S
C2396 C2398 1.381 . S
C2396 C2402 1.383 . S
C2397 C2393 1.495 1_565 S
C2397 H2403 0.959 . S
C2397 H2404 0.961 . S
C2397 H2405 0.960 . S
C2398 C2396 1.381 . S
C2398 C2399 1.394 . S
C2398 H2406 0.930 . S
C2399 C2398 1.394 . S
C2399 C2400 1.383 . S
C2399 H2407 0.929 . S
C2400 C2399 1.383 . S
C2400 C2401 1.377 . S
C2401 H2385 0.930 . S
C2401 C2400 1.377 . S
C2401 C2402 1.379 . S
C2402 H2386 0.931 . S
C2402 C2396 1.383 . S
C2402 C2401 1.379 . S
H2403 C2397 0.959 . S
H2404 C2397 0.961 . S
H2405 C2397 0.960 . S
H2406 C2398 0.930 . S
H2407 C2399 0.929 . S
C708 C520 1.592 . S
C689 C177 1.574 . S
C744 C535 1.756 . S
C725 C209 1.695 . S
C761 C253 1.641 . S
C780 C548 1.689 . S
C816 C562 1.551 . S
C797 C157 1.587 . S
C852 C574 1.675 . S
C833 C343 1.723 . S
C888 C588 1.250 . S
C869 C401 1.278 . S
C905 C369 1.790 . S
C924 C602 1.778 . S
C960 C617 1.409 . S
C941 C317 1.354 . S
C977 C375 1.664 . S
C996 C633 1.685 . S
C1032 C646 1.537 . S
C1013 C305 1.473 . S
C1049 C349 1.613 . S
C1068 C631 1.612 . S
C1104 C644 1.453 . S
C1085 C413 1.489 . S
C1121 C241 1.833 . S
C1140 C660 1.862 . S
C1157 C151 1.545 . S
C1176 C659 1.525 . S
C1193 C189 1.761 . S
C1212 C658 1.760 . S
C1229 C215 1.544 . S
C1248 C661 1.600 . S
C1265 C113 1.708 . S
C1284 C563 1.717 . S
C1301 C471 1.477 . S
C1320 C561 1.488 . S
C1356 C521 1.519 . S
C1337 C509 1.467 . S
C1392 C532 1.778 . S
C1373 C279 1.734 . S
C1409 C145 1.567 . S
C1428 C577 1.515 . S
C1464 C618 1.968 . S
C1445 C381 1.932 . S
C1500 C575 1.463 . S
C1481 C311 1.396 . S
C1536 C603 1.461 . S
C1517 C407 1.494 . S
C1572 C604 1.587 . S
C1553 C465 1.575 . S
C1589 C497 1.694 . S
C1608 C619 1.755 . S
C1625 C285 1.633 . S
C1644 C576 1.667 . S
C1680 C590 1.542 . S
C1661 C445 1.587 . S
C1697 C119 1.720 . S
C1716 C546 1.700 . S
C1752 C560 1.234 . S
C1733 C17 1.277 . S
C1788 C518 1.786 . S
C1769 C49 1.790 . S
C1824 C533 1.412 . S
C1805 C93 1.355 . S
C1841 C55 1.667 . S
C1860 C647 1.691 . S
C1877 C81 1.459 . S
C1896 C632 1.503 . S
C1913 C125 1.615 . S
C1932 C645 1.603 . S
C1949 C29 1.490 . S
C1968 C630 1.480 . S
C2004 C674 1.853 . S
C1985 C273 1.826 . S
C2040 C673 1.503 . S
C2021 C439 1.543 . S
C2076 C672 1.733 . S
C2057 C477 1.756 . S
C2093 C503 1.539 . S
C2112 C675 1.572 . S
C2129 C337 1.708 . S
C2148 C591 1.700 . S
C2184 C589 1.472 . S
C2165 C183 1.474 . S
C2220 C605 1.547 . S
C2201 C221 1.476 . S
C2256 C616 1.766 . S
C2237 C247 1.739 . S
C2273 C433 1.568 . S
C2292 C549 1.519 . S
C2328 C534 1.962 . S
C2309 C61 1.929 . S
C2345 C87 1.401 . S
C2364 C547 1.479 . S
C2400 C519 1.456 . S
C2381 C23 1.492 . S
