# Generated by pormake.
# Topology zzz, (3,6)-cn, num edge types: 1
# Building blocks:
#     Node 0, Type 0, BuildingBlock: BELTOD_clean_linker_0, # of connection points: 3
#     Node 1, Type 0, BuildingBlock: BELTOD_clean_linker_0, # of connection points: 3
#     Node 2, Type 0, BuildingBlock: BELTOD_clean_linker_0, # of connection points: 3
#     Node 3, Type 0, BuildingBlock: BELTOD_clean_linker_0, # of connection points: 3
#     Node 4, Type 0, BuildingBlock: BELTOD_clean_linker_0, # of connection points: 3
#     Node 5, Type 0, BuildingBlock: BELTOD_clean_linker_0, # of connection points: 3
#     Node 6, Type 0, BuildingBlock: BELTOD_clean_linker_0, # of connection points: 3
#     Node 7, Type 0, BuildingBlock: BELTOD_clean_linker_0, # of connection points: 3
#     Node 8, Type 1, BuildingBlock: BETGAK_clean_sbu_0, # of connection points: 6
#     Node 9, Type 1, BuildingBlock: BETGAK_clean_sbu_0, # of connection points: 6
#     Node 10, Type 1, BuildingBlock: BETGAK_clean_sbu_0, # of connection points: 6
#     Node 11, Type 1, BuildingBlock: BETGAK_clean_sbu_0, # of connection points: 6
#     Edge 12, Type (0, 1), BuildingBlock: XUDNAN_clean_linker_2, # of connection points: 2
#     Edge 13, Type (0, 1), BuildingBlock: XUDNAN_clean_linker_2, # of connection points: 2
#     Edge 14, Type (0, 1), BuildingBlock: XUDNAN_clean_linker_2, # of connection points: 2
#     Edge 15, Type (0, 1), BuildingBlock: XUDNAN_clean_linker_2, # of connection points: 2
#     Edge 16, Type (0, 1), BuildingBlock: XUDNAN_clean_linker_2, # of connection points: 2
#     Edge 17, Type (0, 1), BuildingBlock: XUDNAN_clean_linker_2, # of connection points: 2
#     Edge 18, Type (0, 1), BuildingBlock: XUDNAN_clean_linker_2, # of connection points: 2
#     Edge 19, Type (0, 1), BuildingBlock: XUDNAN_clean_linker_2, # of connection points: 2
#     Edge 20, Type (0, 1), BuildingBlock: XUDNAN_clean_linker_2, # of connection points: 2
#     Edge 21, Type (0, 1), BuildingBlock: XUDNAN_clean_linker_2, # of connection points: 2
#     Edge 22, Type (0, 1), BuildingBlock: XUDNAN_clean_linker_2, # of connection points: 2
#     Edge 23, Type (0, 1), BuildingBlock: XUDNAN_clean_linker_2, # of connection points: 2
#     Edge 24, Type (0, 1), BuildingBlock: XUDNAN_clean_linker_2, # of connection points: 2
#     Edge 25, Type (0, 1), BuildingBlock: XUDNAN_clean_linker_2, # of connection points: 2
#     Edge 26, Type (0, 1), BuildingBlock: XUDNAN_clean_linker_2, # of connection points: 2
#     Edge 27, Type (0, 1), BuildingBlock: XUDNAN_clean_linker_2, # of connection points: 2
#     Edge 28, Type (0, 1), BuildingBlock: XUDNAN_clean_linker_2, # of connection points: 2
#     Edge 29, Type (0, 1), BuildingBlock: XUDNAN_clean_linker_2, # of connection points: 2
#     Edge 30, Type (0, 1), BuildingBlock: XUDNAN_clean_linker_2, # of connection points: 2
#     Edge 31, Type (0, 1), BuildingBlock: XUDNAN_clean_linker_2, # of connection points: 2
#     Edge 32, Type (0, 1), BuildingBlock: XUDNAN_clean_linker_2, # of connection points: 2
#     Edge 33, Type (0, 1), BuildingBlock: XUDNAN_clean_linker_2, # of connection points: 2
#     Edge 34, Type (0, 1), BuildingBlock: XUDNAN_clean_linker_2, # of connection points: 2
#     Edge 35, Type (0, 1), BuildingBlock: XUDNAN_clean_linker_2, # of connection points: 2
# Relax obj value: 0.441
# Max RMSD: 0.255
# Mean RMSD: 0.244
data_MOF--net-zzz--node1-BETGAK_clean_sbu_0--node2-BELTOD_clean_linker_0--edge1-XUDNAN_clean_linker_2
_symmetry_space_group_name_H-M    P1
_symmetry_Int_Tables_number       1
_symmetry_cell_setting            triclinic
loop_
_symmetry_equiv_pos_as_xyz
'x, y, z'
_cell_length_a     55.922429
_cell_length_b     55.937469
_cell_length_c     17.127574
_cell_angle_alpha  89.873507
_cell_angle_beta   89.740964
_cell_angle_gamma 90.065017
loop_
_atom_site_label
_atom_site_type_symbol
_atom_site_fract_x
_atom_site_fract_y
_atom_site_fract_z
_atom_type_partial_charge
P0 P 0.72249 0.47518 0.34921 0.0
H1 H 0.7289 0.50538 0.48737 0.0
H2 H 0.76526 0.51844 0.55287 0.0
H3 H 0.80683 0.49789 0.3505 0.0
H4 H 0.77024 0.48647 0.28381 0.0
H5 H 0.67169 0.48227 0.38181 0.0
H6 H 0.63784 0.49147 0.29985 0.0
H7 H 0.6857 0.50517 0.10578 0.0
H8 H 0.71992 0.49822 0.19184 0.0
H9 H 0.75398 0.43875 0.40902 0.0
H10 H 0.72364 0.45645 0.18505 0.0
O11 O 0.71012 0.46388 0.4302 0.0
H12 H 0.78409 0.41421 0.34438 0.0
H13 H 0.75422 0.43295 0.12041 0.0
C14 C 0.74674 0.49439 0.38124 0.0
C15 C 0.74571 0.50461 0.45582 0.0
C16 C 0.76671 0.51165 0.4939 0.0
C17 C 0.78932 0.50833 0.45862 0.0
C18 C 0.78995 0.50061 0.38034 0.0
C19 C 0.76886 0.494 0.34183 0.0
C20 C 0.69848 0.48846 0.29234 0.0
C21 C 0.6751 0.48772 0.32213 0.0
C22 C 0.65554 0.49267 0.27431 0.0
C23 C 0.65868 0.49786 0.19435 0.0
C24 C 0.6823 0.50087 0.16645 0.0
C25 C 0.70201 0.49667 0.21556 0.0
C26 C 0.73697 0.4502 0.30207 0.0
C27 C 0.75324 0.43678 0.34616 0.0
C28 C 0.77058 0.42288 0.30915 0.0
C29 C 0.77192 0.4222 0.22727 0.0
C30 C 0.75378 0.43324 0.18363 0.0
C31 C 0.73639 0.44712 0.22084 0.0
P32 P 0.05335 0.7285 0.34669 0.0
H33 H 0.04999 0.73992 0.51268 0.0
H34 H 0.03851 0.77598 0.58023 0.0
H35 H 1.00821 0.80396 0.36691 0.0
H36 H 0.02119 0.76774 0.29823 0.0
H37 H 0.07219 0.68711 0.26832 0.0
H38 H 0.05566 0.65795 0.17923 0.0
H39 H 0.98537 0.68864 0.21345 0.0
H40 H 1.0028 0.71905 0.29913 0.0
H41 H 0.08888 0.76487 0.37793 0.0
H42 H 0.05873 0.73103 0.17465 0.0
O43 O 0.07128 0.71453 0.40965 0.0
H44 H 0.10947 0.79355 0.29441 0.0
H45 H 0.08065 0.75839 0.09062 0.0
C46 C 0.03624 0.75076 0.40023 0.0
C47 C 0.04023 0.7534 0.48051 0.0
C48 C 0.03356 0.77433 0.5195 0.0
C49 C 0.02238 0.79336 0.47968 0.0
C50 C 0.01711 0.79007 0.39983 0.0
C51 C 0.02406 0.76906 0.36056 0.0
C52 C 0.03876 0.70524 0.29067 0.0
C53 C 0.05313 0.6874 0.25734 0.0
C54 C 0.04351 0.67048 0.20641 0.0
C55 C 0.01899 0.67056 0.18814 0.0
C56 C 1.0044 0.68809 0.22422 0.0
C57 C 0.01425 0.70542 0.27425 0.0
C58 C 0.07226 0.74581 0.28286 0.0
C59 C 0.08735 0.76311 0.31517 0.0
C60 C 0.09933 0.77939 0.26707 0.0
C61 C 0.09666 0.77844 0.18545 0.0
C62 C 0.08278 0.75996 0.15321 0.0
C63 C 0.07037 0.74405 0.20148 0.0
P64 P 0.78343 0.04716 0.34281 0.0
H65 H 0.77459 0.0361 0.50742 0.0
H66 H 0.73906 0.02293 0.57648 0.0
H67 H 0.70536 1.00605 0.35675 0.0
H68 H 0.74119 0.02019 0.28743 0.0
H69 H 0.81556 0.06893 0.23114 0.0
H70 H 0.84638 0.05401 0.14395 0.0
H71 H 0.83296 0.98216 0.22708 0.0
H72 H 0.80101 0.99748 0.3126 0.0
H73 H 0.76004 0.09171 0.3884 0.0
H74 H 0.7679 0.04913 0.18024 0.0
O75 O 0.7989 0.06188 0.41058 0.0
H76 H 0.73232 0.11825 0.31948 0.0
H77 H 0.74054 0.07548 0.11136 0.0
C78 C 0.76086 0.02904 0.39188 0.0
C79 C 0.75993 0.02892 0.47373 0.0
C80 C 0.73933 0.02133 0.51353 0.0
C81 C 0.71893 0.01346 0.47275 0.0
C82 C 0.72041 0.01232 0.39054 0.0
C83 C 0.74114 0.02002 0.35064 0.0
C84 C 0.8055 0.03429 0.27714 0.0
C85 C 0.81899 0.04988 0.23007 0.0
C86 C 0.83701 0.04131 0.18077 0.0
C87 C 0.84252 0.0168 0.17807 0.0
C88 C 0.82912 1.00112 0.22638 0.0
C89 C 0.81081 0.00981 0.2756 0.0
C90 C 0.76647 0.06883 0.28883 0.0
C91 C 0.75635 0.08849 0.32731 0.0
C92 C 0.74049 0.10357 0.28805 0.0
C93 C 0.73454 0.09914 0.20976 0.0
C94 C 0.74527 0.07977 0.17097 0.0
C95 C 0.76089 0.06462 0.21042 0.0
P96 P 0.4741 0.7871 0.3659 0.0
H97 H 0.48173 0.77524 0.53008 0.0
H98 H 0.49334 0.73835 0.59259 0.0
H99 H 0.51761 0.71073 0.37022 0.0
H100 H 0.50438 0.74771 0.30705 0.0
H101 H 0.46253 0.83759 0.36411 0.0
H102 H 0.47612 0.87119 0.28677 0.0
H103 H 0.52955 0.82659 0.17733 0.0
H104 H 0.51556 0.79234 0.25653 0.0
H105 H 0.43746 0.75158 0.39189 0.0
H106 H 0.4707 0.78579 0.19307 0.0
O107 O 0.45562 0.7982 0.43353 0.0
H108 H 0.41754 0.72348 0.30539 0.0
H109 H 0.45038 0.75811 0.10602 0.0
C110 C 0.49213 0.76444 0.41358 0.0
C111 C 0.49017 0.76161 0.4947 0.0
C112 C 0.49694 0.74021 0.53077 0.0
C113 C 0.50627 0.72101 0.48693 0.0
C114 C 0.50999 0.72469 0.40616 0.0
C115 C 0.50291 0.74613 0.36992 0.0
C116 C 0.48829 0.8124 0.31773 0.0
C117 C 0.47759 0.83494 0.32523 0.0
C118 C 0.48542 0.85432 0.28051 0.0
C119 C 0.5041 0.85178 0.22598 0.0
C120 C 0.5151 0.8292 0.21873 0.0
C121 C 0.50733 0.80968 0.2646 0.0
C122 C 0.45561 0.77073 0.29915 0.0
C123 C 0.43989 0.75351 0.32939 0.0
C124 C 0.4284 0.73751 0.27974 0.0
C125 C 0.43245 0.73849 0.19875 0.0
C126 C 0.44713 0.75673 0.16827 0.0
C127 C 0.45873 0.77265 0.21814 0.0
P128 P 0.28179 0.46009 0.05289 0.0
H129 H 0.27031 0.46273 0.88624 0.0
H130 H 0.23469 0.47622 0.81854 0.0
H131 H 0.20957 0.51001 0.03015 0.0
H132 H 0.24533 0.49584 0.09824 0.0
H133 H 0.32637 0.43763 0.09427 0.0
H134 H 0.36006 0.45014 0.17394 0.0
H135 H 0.33144 0.52166 0.18389 0.0
H136 H 0.29707 0.50879 0.10416 0.0
H137 H 0.23981 0.42974 0.06059 0.0
H138 H 0.28547 0.4664 0.22413 0.0
O139 O 0.28915 0.43665 0.99763 0.0
H140 H 0.21003 0.42397 0.16329 0.0
H141 H 0.25618 0.46004 0.32697 0.0
C142 C 0.26074 0.47822 0.99761 0.0
C143 C 0.25759 0.47369 0.91776 0.0
C144 C 0.23696 0.48142 0.87888 0.0
C145 C 0.2188 0.49403 0.91868 0.0
C146 C 0.22279 0.49996 0.9976 0.0
C147 C 0.24354 0.49222 0.03644 0.0
C148 C 0.30939 0.47238 0.09128 0.0
C149 C 0.32758 0.45623 0.1113 0.0
C150 C 0.34674 0.4633 0.15796 0.0
C151 C 0.34836 0.48682 0.18585 0.0
C152 C 0.33074 0.50342 0.16291 0.0
C153 C 0.31121 0.49617 0.11677 0.0
C154 C 0.26469 0.44878 0.13407 0.0
C155 C 0.24389 0.43563 0.11926 0.0
C156 C 0.22694 0.43219 0.17827 0.0
C157 C 0.23068 0.44186 0.25293 0.0
C158 C 0.25274 0.45268 0.26963 0.0
C159 C 0.26954 0.45633 0.21046 0.0
P160 P 0.04699 0.28025 0.12929 0.0
H161 H 0.05516 0.26931 0.96356 0.0
H162 H 0.0428 0.23552 0.88277 0.0
H163 H 0.99349 0.21307 0.06306 0.0
H164 H 1.00545 0.24735 0.1429 0.0
H165 H 0.07385 0.32394 0.15532 0.0
H166 H 0.06315 0.36088 0.22138 0.0
H167 H 0.98864 0.34109 0.21193 0.0
H168 H 0.99957 0.30358 0.14593 0.0
H169 H 0.05682 0.23152 0.17885 0.0
H170 H 0.03535 0.2974 0.29004 0.0
O171 O 0.07571 0.28068 0.10241 0.0
H172 H 0.04685 0.20972 0.29749 0.0
H173 H 0.02588 0.27579 0.40885 0.0
C174 C 0.03151 0.26093 0.06003 0.0
C175 C 0.0411 0.25764 0.98487 0.0
C176 C 0.03411 0.23811 0.93874 0.0
C177 C 0.01748 0.22118 0.96692 0.0
C178 C 1.00668 0.22544 0.04005 0.0
C179 C 0.01335 0.24527 0.08549 0.0
C180 C 0.03752 0.31099 0.14392 0.0
C181 C 0.05508 0.32783 0.16423 0.0
C182 C 0.04899 0.34888 0.20351 0.0
C183 C 0.0251 0.35379 0.22329 0.0
C184 C 1.00723 0.33787 0.19747 0.0
C185 C 0.01341 0.31654 0.15866 0.0
C186 C 0.04576 0.26589 0.22366 0.0
C187 C 0.05048 0.24139 0.22919 0.0
C188 C 0.04501 0.22899 0.29765 0.0
C189 C 0.03514 0.24102 0.36235 0.0
C190 C 0.03291 0.26598 0.35937 0.0
C191 C 0.03823 0.27833 0.29065 0.0
P192 P 0.2202 0.05435 0.04363 0.0
H193 H 0.24435 0.05853 0.89135 0.0
H194 H 0.28401 0.04569 0.85032 0.0
H195 H 0.28669 0.99721 0.04638 0.0
H196 H 0.24758 0.01126 0.08988 0.0
H197 H 0.17139 0.07206 0.04578 0.0
H198 H 0.13857 0.06582 0.13641 0.0
H199 H 0.17539 1.00553 0.2367 0.0
H200 H 0.20848 0.01153 0.14345 0.0
H201 H 0.26212 0.08485 0.03716 0.0
H202 H 0.21792 0.0539 0.21831 0.0
O203 O 0.2123 0.07603 0.98178 0.0
H204 H 0.29606 0.08449 0.12561 0.0
H205 H 0.25194 0.05311 0.30544 0.0
C206 C 0.24244 0.0358 0.99385 0.0
C207 C 0.25291 0.0444 0.92415 0.0
C208 C 0.27588 0.03706 0.90049 0.0
C209 C 0.28909 0.02082 0.94582 0.0
C210 C 0.27745 0.01024 0.01074 0.0
C211 C 0.25463 0.01787 0.03502 0.0
C212 C 0.19277 0.04241 0.08724 0.0
C213 C 0.17223 0.05681 0.08463 0.0
C214 C 0.15339 0.05336 0.13735 0.0
C215 C 0.15453 0.03553 0.19517 0.0
C216 C 0.17391 0.01945 0.19293 0.0
C217 C 0.19286 0.02281 0.13911 0.0
C218 C 0.23784 0.06804 0.11924 0.0
C219 C 0.25925 0.07927 0.09708 0.0
C220 C 0.27865 0.07928 0.14795 0.0
C221 C 0.2766 0.06817 0.22124 0.0
C222 C 0.25392 0.06157 0.24879 0.0
C223 C 0.23453 0.0615 0.1978 0.0
P224 P 0.48877 0.23971 0.16187 0.0
H225 H 0.46565 0.24469 0.00818 0.0
H226 H 0.4695 0.27593 0.90746 0.0
H227 H 0.53251 0.30283 0.02175 0.0
H228 H 0.5292 0.27168 0.1197 0.0
H229 H 0.45917 0.2092 0.25789 0.0
H230 H 0.46605 0.17016 0.3132 0.0
H231 H 0.52463 0.15937 0.15141 0.0
H232 H 0.518 0.19955 0.09803 0.0
H233 H 0.48452 0.27514 0.28662 0.0
H234 H 0.53765 0.22551 0.20221 0.0
O235 O 0.46148 0.24973 0.18425 0.0
H236 H 0.51336 0.29133 0.37832 0.0
H237 H 0.5665 0.2413 0.29534 0.0
C238 C 0.49708 0.25544 0.07227 0.0
C239 C 0.4809 0.25662 0.00972 0.0
C240 C 0.48298 0.27468 0.95251 0.0
C241 C 0.50106 0.29216 0.95755 0.0
C242 C 0.51816 0.28989 0.01685 0.0
C243 C 0.51631 0.27172 0.07296 0.0
C244 C 0.48788 0.20744 0.17292 0.0
C245 C 0.4729 0.19816 0.23165 0.0
C246 C 0.47695 0.17555 0.26384 0.0
C247 C 0.4962 0.16137 0.23823 0.0
C248 C 0.50995 0.16986 0.17434 0.0
C249 C 0.50593 0.19274 0.14241 0.0
C250 C 0.5088 0.24896 0.23805 0.0
C251 C 0.50216 0.26722 0.28934 0.0
C252 C 0.51866 0.27631 0.34238 0.0
C253 C 0.54219 0.26739 0.34466 0.0
C254 C 0.54851 0.24843 0.29516 0.0
C255 C 0.53194 0.23932 0.24221 0.0
La256 La 0.02301 1.00616 0.7786 0.0
La257 La 0.99094 0.01066 0.65198 0.0
C258 C 0.04701 0.99337 0.896 0.0
C259 C 0.06271 0.97301 0.91155 0.0
C260 C 0.06732 0.95615 0.85291 0.0
C261 C 0.08064 0.93573 0.86959 0.0
C262 C 0.08976 0.93204 0.94491 0.0
C263 C 0.08613 0.94958 1.00243 0.0
C264 C 0.07257 0.96992 0.98585 0.0
C265 C 0.04413 0.02042 0.64744 0.0
C266 C 0.01054 0.96002 0.67445 0.0
C267 C 0.96731 0.0258 0.53767 0.0
C268 C 0.95895 0.05031 0.5239 0.0
C269 C 0.94961 0.06385 0.58623 0.0
C270 C 0.94964 0.08876 0.58241 0.0
C271 C 0.95922 0.10025 0.51673 0.0
C272 C 0.96592 0.08676 0.45115 0.0
C273 C 0.96568 0.06187 0.4546 0.0
C274 C 0.96979 0.9963 0.78264 0.0
C275 C 1.0034 0.05659 0.75661 0.0
O276 O 0.05473 1.00832 0.84312 0.0
O277 O 0.02443 0.98816 0.88626 0.0
O278 O 0.04842 0.02896 0.71583 0.0
O279 O 0.02858 1.00418 0.6534 0.0
O280 O 0.01748 0.96845 0.74302 0.0
O281 O 1.00196 0.97463 0.6211 0.0
O282 O 0.95767 0.01456 0.5968 0.0
O283 O 0.99058 0.0235 0.53676 0.0
O284 O 0.96601 0.98743 0.71416 0.0
O285 O 0.98532 0.01267 0.77701 0.0
O286 O 0.99785 0.04843 0.6863 0.0
O287 O 0.01019 0.04143 0.81099 0.0
H288 H 0.06017 0.95848 0.79479 0.0
H289 H 0.08327 0.92249 0.82428 0.0
H290 H 0.09272 0.94698 0.06122 0.0
H291 H 0.06924 0.98287 0.03156 0.0
H292 H 0.94446 0.0554 0.64074 0.0
H293 H 0.94458 0.09892 0.63367 0.0
H294 H 0.97331 0.09546 0.39985 0.0
H295 H 0.97301 0.05178 0.40616 0.0
La296 La 0.51667 0.02786 0.80757 0.0
La297 La 0.50168 0.99518 0.68268 0.0
C298 C 0.52533 0.05171 0.92843 0.0
C299 C 0.54363 0.06884 0.9541 0.0
C300 C 0.55024 0.08868 0.90831 0.0
C301 C 0.56905 0.1035 0.93161 0.0
C302 C 0.58175 0.09857 1.00054 0.0
C303 C 0.57445 0.0791 0.04724 0.0
C304 C 0.55552 0.06452 0.02443 0.0
C305 C 0.51743 0.04723 0.66633 0.0
C306 C 0.55639 1.00467 0.70482 0.0
C307 C 0.48343 0.97633 0.56475 0.0
C308 C 0.46146 0.9824 0.52338 0.0
C309 C 0.44706 0.96426 0.49285 0.0
C310 C 0.42518 0.96991 0.45867 0.0
C311 C 0.4175 0.99384 0.45429 0.0
C312 C 0.43204 0.01193 0.48536 0.0
C313 C 0.45374 1.00624 0.52008 0.0
C314 C 0.5165 0.97316 0.81166 0.0
C315 C 0.46115 0.01623 0.79134 0.0
O316 O 0.51069 0.05881 0.87351 0.0
O317 O 0.53282 0.02975 0.91759 0.0
O318 O 0.53296 0.0513 0.72017 0.0
O319 O 0.50154 0.03333 0.69284 0.0
O320 O 0.55088 0.01112 0.77707 0.0
O321 O 0.53944 1.00097 0.65256 0.0
O322 O 0.48014 0.96817 0.63563 0.0
O323 O 0.50053 0.99237 0.56093 0.0
O324 O 0.51971 0.96515 0.74159 0.0
O325 O 0.50428 0.99195 0.80715 0.0
O326 O 0.46584 1.0059 0.72364 0.0
O327 O 0.47861 0.02454 0.83547 0.0
H328 H 0.5413 0.09243 0.85368 0.0
H329 H 0.574 0.11846 0.89468 0.0
H330 H 0.58405 0.07431 0.09973 0.0
H331 H 0.55071 0.0493 0.06052 0.0
H332 H 0.45258 0.94573 0.49649 0.0
H333 H 0.41419 0.95553 0.4364 0.0
H334 H 0.42683 0.03054 0.48206 0.0
H335 H 0.46442 0.02049 0.54479 0.0
La336 La 0.48513 0.50634 0.74997 0.0
La337 La 0.52122 0.49993 0.63076 0.0
C338 C 0.46001 0.51968 0.86474 0.0
C339 C 0.4483 0.54208 0.88682 0.0
C340 C 0.43708 0.544 0.95977 0.0
C341 C 0.42747 0.56586 0.98371 0.0
C342 C 0.4292 0.58607 0.93509 0.0
C343 C 0.43976 0.58382 0.8609 0.0
C344 C 0.44913 0.56194 0.83676 0.0
C345 C 0.46739 0.49811 0.60884 0.0
C346 C 0.50676 0.55205 0.66043 0.0
C347 C 0.54613 0.48451 0.51939 0.0
C348 C 0.55623 0.46045 0.50746 0.0
C349 C 0.58114 0.45708 0.50676 0.0
C350 C 0.59077 0.43399 0.50696 0.0
C351 C 0.57558 0.41397 0.50834 0.0
C352 C 0.5507 0.41746 0.50609 0.0
C353 C 0.54114 0.44038 0.50575 0.0
C354 C 0.53887 0.50806 0.77195 0.0
C355 C 0.5008 0.45413 0.72361 0.0
O356 O 0.45137 0.50901 0.80333 0.0
O357 O 0.48338 0.52028 0.86352 0.0
O358 O 0.45905 0.48918 0.67309 0.0
O359 O 0.48486 0.51144 0.62509 0.0
O360 O 0.49708 0.54344 0.72549 0.0
O361 O 0.51471 0.53747 0.60582 0.0
O362 O 0.55504 0.4963 0.57821 0.0
O363 O 0.52279 0.48628 0.51686 0.0
O364 O 0.54764 0.51672 0.70783 0.0
O365 O 0.52135 0.49493 0.75502 0.0
O366 O 0.51021 0.46249 0.65767 0.0
O367 O 0.49254 0.46909 0.77663 0.0
H368 H 0.43628 0.52879 0.99896 0.0
H369 H 0.41964 0.56719 0.04151 0.0
H370 H 0.44116 0.59911 0.82218 0.0
H371 H 0.45742 0.56067 0.77974 0.0
H372 H 0.59312 0.47231 0.50838 0.0
H373 H 0.61001 0.43179 0.50782 0.0
H374 H 0.53851 0.4024 0.50445 0.0
H375 H 0.52187 0.44226 0.50608 0.0
La376 La 0.99947 0.49801 0.77239 0.0
La377 La 1.00605 0.52966 0.63934 0.0
C378 C 0.98648 0.47779 0.89752 0.0
C379 C 0.96605 0.46326 0.92299 0.0
C380 C 0.96597 0.45321 0.99789 0.0
C381 C 0.94606 0.44044 0.02461 0.0
C382 C 0.92581 0.43769 0.9769 0.0
C383 C 0.92635 0.44717 0.90071 0.0
C384 C 0.94637 0.45975 0.8739 0.0
C385 C 0.00899 0.47555 0.63858 0.0
C386 C 0.95351 0.51496 0.6728 0.0
C387 C 0.02149 0.547 0.51357 0.0
C388 C 0.04361 0.5405 0.47138 0.0
C389 C 0.06606 0.54703 0.50116 0.0
C390 C 0.08657 0.53475 0.47793 0.0
C391 C 0.08493 0.5157 0.42489 0.0
C392 C 0.06297 0.5112 0.38821 0.0
C393 C 0.0425 0.5236 0.41095 0.0
C394 C 0.9943 0.55258 0.7685 0.0
C395 C 0.05119 0.51177 0.73687 0.0
O396 O 1.00059 0.46795 0.84589 0.0
O397 O 0.98177 0.5001 0.88045 0.0
O398 O 0.01667 0.46872 0.70614 0.0
O399 O 0.99572 0.49333 0.64894 0.0
O400 O 0.96199 0.50489 0.73733 0.0
O401 O 0.96801 0.52475 0.62083 0.0
O402 O 0.02413 0.55752 0.58125 0.0
O403 O 1.00549 0.52996 0.51715 0.0
O404 O 0.98706 0.55811 0.69905 0.0
O405 O 1.00877 0.53522 0.76386 0.0
O406 O 0.04256 0.51661 0.66656 0.0
O407 O 0.03635 0.50776 0.79528 0.0
H408 H 0.98116 0.45556 0.03619 0.0
H409 H 0.94638 0.43305 0.08309 0.0
H410 H 0.911 0.44567 0.86272 0.0
H411 H 0.94626 0.46716 0.81549 0.0
H412 H 0.06762 0.56022 0.54709 0.0
H413 H 0.10329 0.53888 0.50663 0.0
H414 H 0.06135 0.49725 0.3448 0.0
H415 H 0.02549 0.51853 0.3858 0.0
H416 H 0.12714 0.99917 0.26541 0.0
H417 H 0.14413 0.07474 0.2808 0.0
H418 H 0.11664 0.07881 0.39232 0.0
H419 H 0.06368 1.0055 0.31544 0.0
H420 H 0.06229 0.97844 0.37261 0.0
H421 H 0.08333 0.98091 0.29294 0.0
H422 H 0.11807 0.97084 0.38673 0.0
H423 H 0.0971 0.96824 0.46649 0.0
H424 H 0.12211 0.98846 0.4737 0.0
H425 H 0.08909 0.07514 0.50469 0.0
H426 H 0.06199 0.06377 0.61253 0.0
H427 H 0.05979 0.991 0.52604 0.0
C428 C 0.125 0.01652 0.29242 0.0
C429 C 0.1377 0.03672 0.26346 0.0
C430 C 0.13439 0.0591 0.30071 0.0
C431 C 0.11884 0.0616 0.36446 0.0
C432 C 0.1064 0.04159 0.39091 0.0
C433 C 0.10913 0.01945 0.3563 0.0
C434 C 0.09333 1.00101 0.39745 0.0
C435 C 0.07454 0.99086 0.34124 0.0
C436 C 0.10857 0.98095 0.43322 0.0
C437 C 0.08163 0.01626 0.46077 0.0
C438 C 0.08962 0.0396 0.45555 0.0
C439 C 0.08252 0.05698 0.50896 0.0
C440 C 0.06711 0.05036 0.57006 0.0
C441 C 0.05855 0.02665 0.57717 0.0
C442 C 0.06567 0.00939 0.52106 0.0
H443 H 0.46742 0.12919 0.32107 0.0
H444 H 0.54174 0.14467 0.265 0.0
H445 H 0.5544 0.11319 0.35583 0.0
H446 H 0.47585 0.12282 0.52075 0.0
H447 H 0.45461 0.0989 0.53477 0.0
H448 H 0.45086 0.11966 0.45542 0.0
H449 H 0.45026 0.08454 0.35718 0.0
H450 H 0.45398 0.06369 0.43657 0.0
H451 H 0.47471 0.06355 0.35573 0.0
H452 H 0.55966 0.08455 0.46615 0.0
H453 H 0.55691 0.06003 0.58574 0.0
H454 H 0.47954 0.06263 0.57483 0.0
C455 C 0.48638 0.12582 0.32678 0.0
C456 C 0.50347 0.13963 0.28448 0.0
C457 C 0.52808 0.13424 0.29437 0.0
C458 C 0.53554 0.11639 0.34667 0.0
C459 C 0.51828 0.10382 0.38907 0.0
C460 C 0.49417 0.10811 0.37933 0.0
C461 C 0.47942 0.09341 0.43701 0.0
C462 C 0.4643 0.10967 0.49012 0.0
C463 C 0.46366 0.07522 0.39401 0.0
C464 C 0.49905 0.08091 0.48268 0.0
C465 C 0.52132 0.08701 0.45317 0.0
C466 C 0.54232 0.07933 0.48877 0.0
C467 C 0.54058 0.06544 0.55684 0.0
C468 C 0.51805 0.05915 0.58886 0.0
C469 C 0.49698 0.06662 0.55037 0.0
H470 H 0.36108 0.46305 0.31933 0.0
H471 H 0.37943 0.52503 0.17905 0.0
H472 H 0.4129 0.53413 0.26908 0.0
H473 H 0.37299 0.49041 0.50591 0.0
H474 H 0.38448 0.46329 0.54858 0.0
H475 H 0.3625 0.46176 0.47222 0.0
H476 H 0.39088 0.43482 0.39114 0.0
H477 H 0.41302 0.43642 0.46701 0.0
H478 H 0.42068 0.44515 0.36866 0.0
H479 H 0.44569 0.53525 0.37387 0.0
H480 H 0.4718 0.53077 0.48957 0.0
H481 H 0.43044 0.46915 0.56391 0.0
C482 C 0.37218 0.47853 0.30745 0.0
C483 C 0.36776 0.49326 0.24174 0.0
C484 C 0.38245 0.51355 0.22904 0.0
C485 C 0.40157 0.51875 0.27967 0.0
C486 C 0.4056 0.50367 0.34345 0.0
C487 C 0.39106 0.48414 0.35794 0.0
C488 C 0.39855 0.47115 0.43171 0.0
C489 C 0.37843 0.4717 0.49324 0.0
C490 C 0.40624 0.44536 0.41351 0.0
C491 C 0.4197 0.48626 0.45658 0.0
C492 C 0.4237 0.50481 0.40457 0.0
C493 C 0.44256 0.52086 0.41502 0.0
C494 C 0.45739 0.51812 0.48075 0.0
C495 C 0.45312 0.49966 0.53589 0.0
C496 C 0.43411 0.48348 0.52294 0.0
H497 H 0.04726 0.36671 0.35982 0.0
H498 H 0.98965 0.38747 0.20535 0.0
H499 H 0.98043 0.42181 0.29167 0.0
H500 H 0.01685 0.38045 0.53859 0.0
H501 H 0.0433 0.39115 0.58718 0.0
H502 H 0.04584 0.36902 0.51144 0.0
H503 H 0.07558 0.39629 0.43766 0.0
H504 H 0.07283 0.41911 0.51128 0.0
H505 H 0.06672 0.4261 0.41052 0.0
H506 H 0.97805 0.45445 0.39494 0.0
H507 H 0.98013 0.48035 0.51146 0.0
H508 H 0.03804 0.43717 0.60255 0.0
C509 C 0.03284 0.37862 0.34371 0.0
C510 C 0.01931 0.37451 0.27517 0.0
C511 C 1.00025 0.39023 0.25733 0.0
C512 C 0.99498 0.40985 0.3059 0.0
C513 C 1.00875 0.41342 0.37278 0.0
C514 C 0.02714 0.39807 0.3921 0.0
C515 C 0.03862 0.40526 0.46884 0.0
C516 C 0.03599 0.38528 0.53013 0.0
C517 C 0.065 0.4121 0.45636 0.0
C518 C 0.02369 0.42695 0.49032 0.0
C519 C 1.0068 0.43157 0.43349 0.0
C520 C 0.99113 0.45086 0.43983 0.0
C521 C 0.99248 0.46553 0.50628 0.0
C522 C 0.00911 0.4607 0.56649 0.0
C523 C 0.02503 0.44123 0.5578 0.0
H524 H 0.88508 0.03904 0.13452 0.0
H525 H 0.84353 0.97451 0.09565 0.0
H526 H 0.87359 0.96097 0.99987 0.0
H527 H 0.90079 0.0485 0.93599 0.0
H528 H 0.9304 0.0596 0.9561 0.0
H529 H 0.90691 0.06323 0.02728 0.0
H530 H 0.93285 0.04176 0.13078 0.0
H531 H 0.95641 0.03802 0.05968 0.0
H532 H 0.94445 0.01236 0.11041 0.0
H533 H 0.90638 0.95572 0.9005 0.0
H534 H 0.93925 0.95928 0.80447 0.0
H535 H 0.95966 0.02742 0.90452 0.0
C536 C 0.8822 0.02202 0.10615 0.0
C537 C 0.86171 1.00787 0.12359 0.0
C538 C 0.8591 0.98559 0.08513 0.0
C539 C 0.87608 0.97777 0.03002 0.0
C540 C 0.89575 0.99233 0.01359 0.0
C541 C 0.89894 0.01398 0.0506 0.0
C542 C 0.92106 0.02677 0.01937 0.0
C543 C 0.91438 0.05095 0.98249 0.0
C544 C 0.9398 0.02991 0.08392 0.0
C545 C 0.92956 0.00913 0.9579 0.0
C546 C 0.91476 0.9893 0.95609 0.0
C547 C 0.9182 0.97104 0.902 0.0
C548 C 0.93694 0.97323 0.84762 0.0
C549 C 0.95215 0.9935 0.84728 0.0
C550 C 0.9486 0.01151 0.90415 0.0
H551 H 0.51413 0.85288 0.06709 0.0
H552 H 0.50928 0.89833 0.2716 0.0
H553 H 0.51461 0.93393 0.18848 0.0
H554 H 0.55968 0.8902 0.9622 0.0
H555 H 0.54647 0.88455 0.86822 0.0
H556 H 0.54444 0.86234 0.94441 0.0
H557 H 0.49835 0.862 0.93076 0.0
H558 H 0.50021 0.88431 0.85509 0.0
H559 H 0.48201 0.88961 0.9404 0.0
H560 H 0.51506 0.9648 0.08279 0.0
H561 H 0.51424 0.98881 0.96175 0.0
H562 H 0.5219 0.92424 0.82444 0.0
C563 C 0.51487 0.87027 0.09461 0.0
C564 C 0.51108 0.87271 0.17614 0.0
C565 C 0.51176 0.89592 0.20937 0.0
C566 C 0.51491 0.9163 0.16261 0.0
C567 C 0.51774 0.91335 0.0824 0.0
C568 C 0.51818 0.89094 0.04859 0.0
C569 C 0.52058 0.89297 0.96031 0.0
C570 C 0.5442 0.88185 0.93213 0.0
C571 C 0.499 0.88155 0.91926 0.0
C572 C 0.52076 0.91998 0.94988 0.0
C573 C 0.51909 0.93135 0.02124 0.0
C574 C 0.51697 0.95613 0.0267 0.0
C575 C 0.51655 0.96966 0.95759 0.0
C576 C 0.51858 0.95852 0.88378 0.0
C577 C 0.52093 0.93333 0.88012 0.0
H578 H 0.65156 0.52413 0.05679 0.0
H579 H 0.61758 0.47107 0.20669 0.0
H580 H 0.58273 0.47059 0.12092 0.0
H581 H 0.59761 0.55601 1.00027 0.0
H582 H 0.60702 0.56015 0.90035 0.0
H583 H 0.629 0.55806 0.97668 0.0
H584 H 0.64962 0.5231 0.904 0.0
H585 H 0.62778 0.52516 0.82736 0.0
H586 H 0.6323 0.49718 0.87752 0.0
H587 H 0.55154 0.47462 0.01816 0.0
H588 H 0.52737 0.48127 0.89984 0.0
H589 H 0.58163 0.52971 0.81013 0.0
C590 C 0.63684 0.51241 0.07191 0.0
C591 C 0.63743 0.49814 0.14062 0.0
C592 C 0.61757 0.48299 0.15687 0.0
C593 C 0.59759 0.48236 0.10781 0.0
C594 C 0.59757 0.49669 0.04141 0.0
C595 C 0.61672 0.51129 0.02277 0.0
C596 C 0.61248 0.5239 0.94527 0.0
C597 C 0.61147 0.55115 0.95634 0.0
C598 C 0.63169 0.51691 0.88498 0.0
C599 C 0.58811 0.51392 0.92334 0.0
C600 C 0.57978 0.49844 0.98023 0.0
C601 C 0.55786 0.48674 0.97323 0.0
C602 C 0.54422 0.49066 0.90582 0.0
C603 C 0.55258 0.50599 0.84573 0.0
C604 C 0.57473 0.51795 0.85521 0.0
H605 H 0.03459 0.62443 0.15133 0.0
H606 H 0.98162 0.67764 0.08582 0.0
H607 H 0.96733 0.65105 0.98223 0.0
H608 H 0.05046 0.60929 0.95727 0.0
H609 H 0.05517 0.57799 0.97711 0.0
H610 H 0.0594 0.59967 0.05334 0.0
H611 H 0.0291 0.57691 0.14088 0.0
H612 H 0.02473 0.55516 0.06471 0.0
H613 H 0.99945 0.57096 0.10484 0.0
H614 H 0.96042 0.62043 0.87931 0.0
H615 H 0.96244 0.5886 0.78046 0.0
H616 H 0.02131 0.55563 0.90468 0.0
C617 C 0.01996 0.63066 0.11559 0.0
C618 C 0.00922 0.65339 0.12846 0.0
C619 C 0.98991 0.66027 0.0798 0.0
C620 C 0.98171 0.64529 0.01992 0.0
C621 C 0.99299 0.62336 0.00833 0.0
C622 C 0.01175 0.61604 0.05453 0.0
C623 C 0.02185 0.59234 0.02579 0.0
C624 C 0.04828 0.59499 1.00195 0.0
C625 C 0.01858 0.57268 0.08776 0.0
C626 C 1.00612 0.58775 0.95518 0.0
C627 C 0.98939 0.60579 0.94715 0.0
C628 C 0.97334 0.60617 0.8853 0.0
C629 C 0.97466 0.58797 0.82932 0.0
C630 C 0.992 0.5696 0.83471 0.0
C631 C 1.0077 0.56928 0.89941 0.0
H632 H 0.05183 0.20046 0.4322 0.0
H633 H 0.99183 0.24941 0.43143 0.0
H634 H 0.9676 0.22008 0.50348 0.0
H635 H 0.02271 0.15481 0.37382 0.0
H636 H 0.03683 0.13159 0.43032 0.0
H637 H 0.05273 0.15869 0.40984 0.0
H638 H 0.05931 0.16586 0.55742 0.0
H639 H 0.04366 0.1384 0.57916 0.0
H640 H 0.03408 0.16601 0.62324 0.0
H641 H 0.94664 0.18247 0.53947 0.0
H642 H 0.932 0.14051 0.54029 0.0
H643 H 1.00455 0.11548 0.50751 0.0
C644 C 0.03394 0.20535 0.45048 0.0
C645 C 0.02374 0.22713 0.42615 0.0
C646 C 1.00023 0.23299 0.45052 0.0
C647 C 0.98624 0.21636 0.49146 0.0
C648 C 0.9961 0.19409 0.50825 0.0
C649 C 0.01968 0.18874 0.48999 0.0
C650 C 0.02469 0.16235 0.49951 0.0
C651 C 0.0348 0.15124 0.42387 0.0
C652 C 0.04142 0.1579 0.56898 0.0
C653 C 0.99978 0.15344 0.51722 0.0
C654 C 0.98369 0.17199 0.52579 0.0
C655 C 0.95918 0.16782 0.53495 0.0
C656 C 0.95097 0.14409 0.53457 0.0
C657 C 0.96723 0.12516 0.52271 0.0
C658 C 0.99186 0.12988 0.51582 0.0
H659 H 0.30322 0.07448 0.35654 0.0
H660 H 0.29488 0.03028 0.15124 0.0
H661 H 0.32835 1.00477 0.19334 0.0
H662 H 0.36722 0.07311 0.36138 0.0
H663 H 0.36941 0.07116 0.46617 0.0
H664 H 0.344 0.08556 0.42228 0.0
H665 H 0.3156 0.05708 0.49828 0.0
H666 H 0.34099 0.04252 0.54201 0.0
H667 H 0.31931 0.0252 0.4889 0.0
H668 H 0.36359 0.98612 0.24959 0.0
H669 H 0.39953 0.974 0.32142 0.0
H670 H 0.38482 0.02842 0.49602 0.0
C671 C 0.30868 0.0595 0.32076 0.0
C672 C 0.29717 0.05449 0.24958 0.0
C673 C 0.30422 0.03457 0.20455 0.0
C674 C 0.32295 0.01995 0.22826 0.0
C675 C 0.33435 0.02545 0.29765 0.0
C676 C 0.32757 0.04459 0.34376 0.0
C677 C 0.34344 0.04646 0.415 0.0
C678 C 0.35681 0.0705 0.41623 0.0
C679 C 0.32896 0.04258 0.49051 0.0
C680 C 0.36038 0.02579 0.40002 0.0
C681 C 0.3546 0.01388 0.33226 0.0
C682 C 0.36816 0.99496 0.30364 0.0
C683 C 0.38845 0.98811 0.34516 0.0
C684 C 0.39492 1.00011 0.41463 0.0
C685 C 0.38043 0.01898 0.44284 0.0
H686 H 0.53837 0.28494 0.49248 0.0
H687 H 0.58669 0.28061 0.29498 0.0
H688 H 0.61083 0.31312 0.34933 0.0
H689 H 0.53022 0.34 0.48724 0.0
H690 H 0.52926 0.34733 0.58964 0.0
H691 H 0.52257 0.3176 0.55922 0.0
H692 H 0.55557 0.30092 0.64928 0.0
H693 H 0.56208 0.33091 0.68134 0.0
H694 H 0.58562 0.31244 0.64211 0.0
H695 H 0.61942 0.35356 0.39127 0.0
H696 H 0.61212 0.39607 0.41916 0.0
H697 H 0.55946 0.37622 0.59369 0.0
C698 C 0.55478 0.29011 0.4632 0.0
C699 C 0.56061 0.28041 0.38968 0.0
C700 C 0.58202 0.28755 0.35202 0.0
C701 C 0.5959 0.3061 0.38266 0.0
C702 C 0.58833 0.31709 0.45148 0.0
C703 C 0.56856 0.30888 0.49278 0.0
C704 C 0.56089 0.32668 0.55447 0.0
C705 C 0.53418 0.33329 0.54694 0.0
C706 C 0.56639 0.31717 0.63666 0.0
C707 C 0.57712 0.34745 0.53381 0.0
C708 C 0.59363 0.34121 0.47694 0.0
C709 C 0.60729 0.35847 0.43795 0.0
C710 C 0.60303 0.38265 0.45404 0.0
C711 C 0.58511 0.38929 0.50816 0.0
C712 C 0.57326 0.37145 0.55203 0.0
H713 H 0.21866 0.48292 0.32601 0.0
H714 H 0.1952 0.40978 0.29247 0.0
H715 H 0.15605 0.4199 0.35152 0.0
H716 H 0.18257 0.49553 0.5113 0.0
H717 H 0.17699 0.52562 0.47836 0.0
H718 H 0.20475 0.51106 0.45367 0.0
H719 H 0.19667 0.51959 0.30733 0.0
H720 H 0.16868 0.5335 0.33095 0.0
H721 H 0.16944 0.50875 0.2638 0.0
H722 H 0.11774 0.43965 0.39097 0.0
H723 H 0.08375 0.46696 0.41239 0.0
H724 H 0.13242 0.52744 0.41238 0.0
C725 C 0.20581 0.46867 0.335 0.0
C726 C 0.21004 0.44547 0.30581 0.0
C727 C 0.19232 0.42761 0.31514 0.0
C728 C 0.17011 0.43319 0.34878 0.0
C729 C 0.16608 0.45665 0.373 0.0
C730 C 0.18361 0.47402 0.36762 0.0
C731 C 0.17392 0.49856 0.38679 0.0
C732 C 0.18523 0.50826 0.46201 0.0
C733 C 0.17738 0.5161 0.31811 0.0
C734 C 0.14788 0.49253 0.39924 0.0
C735 C 0.14378 0.46823 0.39298 0.0
C736 C 0.12082 0.45866 0.39704 0.0
C737 C 0.1016 0.47435 0.4079 0.0
C738 C 0.10543 0.49936 0.41315 0.0
C739 C 0.12894 0.50842 0.40953 0.0
H740 H 0.07422 0.79834 0.0599 0.0
H741 H 0.13819 0.80482 0.20091 0.0
H742 H 0.14743 0.84324 0.13639 0.0
H743 H 0.09989 0.82869 0.87811 0.0
H744 H 0.07129 0.84222 0.85845 0.0
H745 H 0.07272 0.81308 0.90346 0.0
H746 H 0.04644 0.82846 0.01776 0.0
H747 H 0.04522 0.85758 0.97405 0.0
H748 H 0.0561 0.85423 0.07238 0.0
H749 H 0.14452 0.8844 0.0789 0.0
H750 H 0.13117 0.92338 0.02587 0.0
H751 H 0.07076 0.88848 0.91689 0.0
C752 C 0.09085 0.80709 0.07469 0.0
C753 C 0.10543 0.79847 0.13572 0.0
C754 C 0.12654 0.81116 0.15501 0.0
C755 C 0.13208 0.8329 0.11812 0.0
C756 C 0.11664 0.84141 0.06077 0.0
C757 C 0.09674 0.82858 0.03789 0.0
C758 C 0.08146 0.84269 0.98168 0.0
C759 C 0.08135 0.83097 0.90061 0.0
C760 C 0.05582 0.84593 0.01344 0.0
C761 C 0.09503 0.86604 0.98038 0.0
C762 C 0.11548 0.86493 0.02538 0.0
C763 C 0.12903 0.88529 0.04138 0.0
C764 C 0.12127 0.90733 0.01155 0.0
C765 C 0.10023 0.90872 0.96624 0.0
C766 C 0.08738 0.88772 0.94905 0.0
H767 H 0.69087 0.10931 0.27104 0.0
H768 H 0.73339 0.11674 0.06041 0.0
H769 H 0.69733 0.12846 0.98746 0.0
H770 H 0.64694 0.08014 0.19501 0.0
H771 H 0.62234 0.09325 0.24806 0.0
H772 H 0.65169 0.09355 0.28937 0.0
H773 H 0.65003 0.13963 0.30254 0.0
H774 H 0.62031 0.13949 0.262 0.0
H775 H 0.64334 0.15777 0.2183 0.0
H776 H 0.65694 0.12761 0.93187 0.0
H777 H 0.61617 0.115 0.89903 0.0
H778 H 0.59859 0.11052 0.14568 0.0
C779 C 0.69277 0.11477 0.21065 0.0
C780 C 0.71486 0.11231 0.17137 0.0
C781 C 0.71659 0.11859 0.0915 0.0
C782 C 0.69622 0.12544 0.04979 0.0
C783 C 0.67433 0.12624 0.08908 0.0
C784 C 0.67255 0.12153 0.1683 0.0
C785 C 0.64666 0.11943 0.19391 0.0
C786 C 0.64164 0.09516 0.23382 0.0
C787 C 0.63968 0.14033 0.24734 0.0
C788 C 0.63433 0.12136 0.11571 0.0
C789 C 0.6505 0.12606 0.0563 0.0
C790 C 0.64394 0.12484 0.978 0.0
C791 C 0.6206 0.11768 0.95985 0.0
C792 C 0.60408 0.11172 0.0198 0.0
C793 C 0.6108 0.11487 0.09852 0.0
H794 H 0.45749 0.71605 0.08351 0.0
H795 H 0.38894 0.7154 0.20313 0.0
H796 H 0.37831 0.67795 0.13523 0.0
H797 H 0.43622 0.68942 0.89506 0.0
H798 H 0.46357 0.67271 0.88407 0.0
H799 H 0.4639 0.70135 0.93207 0.0
H800 H 0.48354 0.68184 0.05325 0.0
H801 H 0.48302 0.65317 0.00626 0.0
H802 H 0.46894 0.65689 0.10033 0.0
H803 H 0.3781 0.63752 0.07103 0.0
H804 H 0.38755 0.5985 0.01005 0.0
H805 H 0.45562 0.62676 0.93018 0.0
C806 C 0.43981 0.70866 0.09301 0.0
C807 C 0.42398 0.71875 0.14822 0.0
C808 C 0.40138 0.70792 0.16119 0.0
C809 C 0.39514 0.68674 0.12258 0.0
C810 C 0.41157 0.67681 0.07054 0.0
C811 C 0.43331 0.68764 0.05489 0.0
C812 C 0.4488 0.6723 1.00264 0.0
C813 C 0.45338 0.68469 0.92377 0.0
C814 C 0.47245 0.66566 0.04308 0.0
C815 C 0.43275 0.65077 0.99352 0.0
C816 C 0.41126 0.65372 0.03253 0.0
C817 C 0.3946 0.63522 0.03866 0.0
C818 C 0.40014 0.61314 1.00437 0.0
C819 C 0.42212 0.60985 0.96453 0.0
C820 C 0.43838 0.62904 0.95826 0.0
H821 H 0.81718 0.43305 0.27048 0.0
H822 H 0.77695 0.39571 0.09249 0.0
H823 H 0.81418 0.39031 0.01565 0.0
H824 H 0.85041 0.46627 0.14746 0.0
H825 H 0.87758 0.46592 0.20369 0.0
H826 H 0.84925 0.46221 0.25189 0.0
H827 H 0.86344 0.42212 0.31172 0.0
H828 H 0.89206 0.4258 0.26428 0.0
H829 H 0.87487 0.39897 0.24875 0.0
H830 H 0.85452 0.39449 0.95023 0.0
H831 H 0.89402 0.40794 0.90185 0.0
H832 H 0.90668 0.44366 0.12251 0.0
C833 C 0.81633 0.42271 0.21717 0.0
C834 C 0.79426 0.41439 0.18809 0.0
C835 C 0.79374 0.40201 0.1161 0.0
C836 C 0.8148 0.3988 0.07232 0.0
C837 C 0.83615 0.40801 0.10158 0.0
C838 C 0.83704 0.41955 0.17281 0.0
C839 C 0.86134 0.43056 0.18707 0.0
C840 C 0.85951 0.45784 0.1981 0.0
C841 C 0.87365 0.41864 0.2571 0.0
C842 C 0.87376 0.42427 0.11137 0.0
C843 C 0.85917 0.41089 0.06331 0.0
C844 C 0.86622 0.40462 0.98791 0.0
C845 C 0.8886 0.41252 0.96071 0.0
C846 C 0.90354 0.42677 0.0085 0.0
C847 C 0.89605 0.43227 0.08521 0.0
H848 H 0.01516 0.17469 0.02179 0.0
H849 H 0.00913 0.21655 0.8094 0.0
H850 H 1.00318 0.17941 0.73362 0.0
H851 H 0.04857 0.12698 0.93789 0.0
H852 H 0.03436 0.10381 0.99492 0.0
H853 H 0.03649 0.1337 0.03311 0.0
H854 H 0.99057 0.13477 0.05294 0.0
H855 H 0.9883 0.10484 0.01492 0.0
H856 H 0.97123 0.12867 0.97143 0.0
H857 H 0.99881 0.1372 0.68042 0.0
H858 H 0.9981 0.09376 0.65287 0.0
H859 H 1.00781 0.07912 0.89953 0.0
C860 C 0.01218 0.17609 0.95952 0.0
C861 C 0.01244 0.19871 0.92181 0.0
C862 C 0.00906 0.19955 0.8398 0.0
C863 C 1.00559 0.1785 0.79623 0.0
C864 C 1.00569 0.15653 0.83512 0.0
C865 C 0.00896 0.15518 0.91497 0.0
C866 C 0.00943 0.12926 0.94206 0.0
C867 C 0.03365 0.12308 0.97917 0.0
C868 C 0.98864 0.12408 0.99869 0.0
C869 C 1.00607 0.11623 0.86507 0.0
C870 C 1.00372 0.13228 0.80418 0.0
C871 C 1.00061 0.12447 0.72756 0.0
C872 C 1.0001 0.09971 0.71257 0.0
C873 C 1.00276 0.08284 0.77382 0.0
C874 C 1.00569 0.09141 0.85115 0.0
H875 H 0.31567 0.01813 0.80549 0.0
H876 H 0.32344 0.01755 0.05745 0.0
H877 H 0.36689 0.0158 0.04321 0.0
H878 H 0.36595 0.97703 0.76613 0.0
H879 H 0.3756 0.99255 0.67913 0.0
H880 H 0.34453 0.99304 0.7076 0.0
H881 H 0.34522 0.03927 0.70599 0.0
H882 H 0.37628 0.03881 0.67767 0.0
H883 H 0.36707 0.05495 0.76368 0.0
H884 H 0.40929 0.01697 1.005 0.0
H885 H 0.4491 0.01741 0.9444 0.0
H886 H 0.41675 0.01529 0.71435 0.0
C887 C 0.32651 0.01745 0.85763 0.0
C888 C 0.31567 0.01772 0.93319 0.0
C889 C 0.33081 0.01683 0.9993 0.0
C890 C 0.35574 0.01605 0.99173 0.0
C891 C 0.36575 0.01599 0.91725 0.0
C892 C 0.35177 0.01635 0.85102 0.0
C893 C 0.36766 0.016 0.77804 0.0
C894 C 0.36316 0.9933 0.72989 0.0
C895 C 0.36383 0.03861 0.72843 0.0
C896 C 0.39261 0.01573 0.81418 0.0
C897 C 0.39082 0.01592 0.89467 0.0
C898 C 0.41095 0.01662 0.94204 0.0
C899 C 0.43359 0.017 0.90677 0.0
C900 C 0.4363 0.01639 0.82443 0.0
C901 C 0.41538 0.01562 0.77743 0.0
H902 H 0.50275 0.33905 1.00253 0.0
H903 H 0.49911 0.29438 0.79661 0.0
H904 H 0.49958 0.33072 0.71282 0.0
H905 H 0.4634 0.38483 0.93202 0.0
H906 H 0.4796 0.40881 0.97799 0.0
H907 H 0.48001 0.37931 0.02021 0.0
H908 H 0.52632 0.37935 0.01528 0.0
H909 H 0.52605 0.40885 0.97294 0.0
H910 H 0.54139 0.38486 0.92371 0.0
H911 H 0.50098 0.3731 0.65172 0.0
H912 H 0.50135 0.4164 0.6204 0.0
H913 H 0.50138 0.43273 0.8677 0.0
C914 C 0.5022 0.3369 0.93973 0.0
C915 C 0.50112 0.31383 0.90605 0.0
C916 C 0.49996 0.31184 0.82367 0.0
C917 C 0.50029 0.3324 0.7757 0.0
C918 C 0.50136 0.35491 0.81096 0.0
C919 C 0.50207 0.35719 0.8913 0.0
C920 C 0.50229 0.38328 0.91536 0.0
C921 C 0.48 0.38941 0.96427 0.0
C922 C 0.52539 0.38944 0.95942 0.0
C923 C 0.50163 0.39545 0.83621 0.0
C924 C 0.50137 0.37887 0.77646 0.0
C925 C 0.50127 0.38611 0.69827 0.0
C926 C 0.50145 0.41078 0.68094 0.0
C927 C 0.50118 0.42802 0.74144 0.0
C928 C 0.50127 0.42006 0.81997 0.0
H929 H 0.17273 0.49389 0.98094 0.0
H930 H 0.21161 0.50689 0.76488 0.0
H931 H 0.17345 0.51271 0.69607 0.0
H932 H 0.12406 0.46193 0.89897 0.0
H933 H 0.10159 0.47488 0.96163 0.0
H934 H 0.13196 0.47229 0.99507 0.0
H935 H 0.13323 0.51775 0.02267 0.0
H936 H 0.10278 0.52047 0.98981 0.0
H937 H 0.12593 0.53852 0.94575 0.0
H938 H 0.13065 0.5153 0.64839 0.0
H939 H 0.08697 0.51656 0.62827 0.0
H940 H 0.07552 0.50385 0.87534 0.0
C941 C 0.17334 0.4984 0.91948 0.0
C942 C 0.19551 0.49972 0.8787 0.0
C943 C 0.19511 0.50529 0.79775 0.0
C944 C 0.17343 0.50879 0.75799 0.0
C945 C 0.15202 0.50693 0.79964 0.0
C946 C 0.1518 0.50211 0.8788 0.0
C947 C 0.12625 0.50093 0.90964 0.0
C948 C 0.12065 0.47602 0.94331 0.0
C949 C 0.12179 0.52059 0.97057 0.0
C950 C 0.11217 0.50561 0.83538 0.0
C951 C 0.1274 0.50899 0.77256 0.0
C952 C 0.11862 0.51297 0.69751 0.0
C953 C 0.09371 0.51373 0.68652 0.0
C954 C 0.07763 0.51067 0.74994 0.0
C955 C 0.08718 0.50646 0.82541 0.0
H956 H 0.02267 0.83986 0.41931 0.0
H957 H 0.01086 0.80036 0.63502 0.0
H958 H 1.00772 0.83821 0.70663 0.0
H959 H 0.05658 0.88771 0.49735 0.0
H960 H 0.04287 0.91071 0.43885 0.0
H961 H 0.04441 0.8805 0.40298 0.0
H962 H 0.9985 0.87993 0.38438 0.0
H963 H 0.99685 0.91024 0.4194 0.0
H964 H 0.97924 0.88715 0.46564 0.0
H965 H 0.00895 0.88036 0.7578 0.0
H966 H 1.00874 0.92391 0.78156 0.0
H967 H 0.01519 0.93681 0.53249 0.0
C968 C 0.01897 0.839 0.48131 0.0
C969 C 0.01758 0.81668 0.52107 0.0
C970 C 0.01287 0.81689 0.60271 0.0
C971 C 0.01085 0.83842 0.64423 0.0
C972 C 0.01298 0.85992 0.60363 0.0
C973 C 0.0164 0.86043 0.52374 0.0
C974 C 0.01741 0.88612 0.49423 0.0
C975 C 0.04177 0.89157 0.4561 0.0
C976 C 0.99677 0.89115 0.43756 0.0
C977 C 0.01427 0.89987 0.57014 0.0
C978 C 0.01209 0.88435 0.63263 0.0
C979 C 0.01026 0.89268 0.70914 0.0
C980 C 0.01028 0.91748 0.72213 0.0
C981 C 0.01168 0.93383 0.65899 0.0
C982 C 0.01373 0.92479 0.58194 0.0
H983 H 0.67168 0.02117 0.42748 0.0
H984 H 0.71408 0.99255 0.61792 0.0
H985 H 0.67747 0.98697 0.69598 0.0
H986 H 0.62916 0.05248 0.54205 0.0
H987 H 0.60377 0.04519 0.48218 0.0
H988 H 0.63321 0.04664 0.43935 0.0
H989 H 0.62863 1.00341 0.38792 0.0
H990 H 0.59906 1.00189 0.42998 0.0
H991 H 0.62109 0.9797 0.45514 0.0
H992 H 0.63655 0.98751 0.75859 0.0
H993 H 0.59381 0.99034 0.79545 0.0
H994 H 0.57697 0.015 0.56193 0.0
C995 C 0.67333 0.01328 0.48494 0.0
C996 C 0.69615 1.00767 0.51635 0.0
C997 C 0.69714 0.99764 0.59256 0.0
C998 C 0.67633 0.99422 0.63749 0.0
C999 C 0.65433 1.00047 0.60552 0.0
C1000 C 0.65261 0.00941 0.5305 0.0
C1001 C 0.62663 0.0146 0.51025 0.0
C1002 C 0.62299 0.04131 0.49241 0.0
C1003 C 0.61837 0.99896 0.44176 0.0
C1004 C 0.61414 1.00743 0.58587 0.0
C1005 C 0.63052 0.99954 0.64029 0.0
C1006 C 0.62353 0.99329 0.71599 0.0
C1007 C 0.59922 0.99502 0.73655 0.0
C1008 C 0.58199 1.00254 0.68142 0.0
C1009 C 0.58964 0.00871 0.60492 0.0
H1010 H 0.50198 0.67554 0.42208 0.0
H1011 H 0.51995 0.71147 0.63894 0.0
H1012 H 0.52138 0.67261 0.70589 0.0
H1013 H 0.46587 0.62978 0.50072 0.0
H1014 H 0.47684 0.60652 0.43734 0.0
H1015 H 0.47727 0.63718 0.40504 0.0
H1016 H 0.52278 0.63437 0.37811 0.0
H1017 H 0.52244 0.6036 0.40945 0.0
H1018 H 0.54247 0.6246 0.45487 0.0
H1019 H 0.51713 0.62995 0.7529 0.0
H1020 H 0.51345 0.58621 0.77166 0.0
H1021 H 0.50316 0.57728 0.52265 0.0
C1022 C 0.50677 0.6754 0.4832 0.0
C1023 C 0.51035 0.69704 0.52492 0.0
C1024 C 0.5163 0.69552 0.6054 0.0
C1025 C 0.51737 0.6734 0.64419 0.0
C1026 C 0.51305 0.65264 0.60179 0.0
C1027 C 0.50845 0.65337 0.52267 0.0
C1028 C 0.50495 0.62829 0.49055 0.0
C1029 C 0.47973 0.62528 0.45641 0.0
C1030 C 0.52432 0.62237 0.42964 0.0
C1031 C 0.50799 0.61342 0.56419 0.0
C1032 C 0.51232 0.62787 0.62793 0.0
C1033 C 0.51421 0.61843 0.70315 0.0
C1034 C 0.51199 0.59358 0.71334 0.0
C1035 C 0.50839 0.57833 0.6486 0.0
C1036 C 0.50638 0.58847 0.57306 0.0
H1037 H 0.83483 0.52317 0.41104 0.0
H1038 H 0.79555 0.49683 0.61322 0.0
H1039 H 0.83251 0.49733 0.69004 0.0
H1040 H 0.8871 0.48772 0.44386 0.0
H1041 H 0.9078 0.51039 0.41125 0.0
H1042 H 0.87791 0.50958 0.37262 0.0
H1043 H 0.87136 0.55348 0.41556 0.0
H1044 H 0.90126 0.55442 0.45422 0.0
H1045 H 0.87613 0.56165 0.51606 0.0
H1046 H 0.87419 0.49857 0.74456 0.0
H1047 H 0.91737 0.50135 0.77244 0.0
H1048 H 0.93025 0.52608 0.53544 0.0
C1049 C 0.83388 0.51758 0.47151 0.0
C1050 C 0.81186 0.51032 0.50577 0.0
C1051 C 0.81178 0.50318 0.58545 0.0
C1052 C 0.83284 0.50315 0.62975 0.0
C1053 C 0.85412 0.5102 0.59404 0.0
C1054 C 0.85484 0.51734 0.51678 0.0
C1055 C 0.88029 0.52338 0.49207 0.0
C1056 C 0.88877 0.50678 0.42605 0.0
C1057 C 0.88237 0.54981 0.46807 0.0
C1058 C 0.89369 0.51845 0.56743 0.0
C1059 C 0.87823 0.51084 0.62548 0.0
C1060 C 0.88644 0.50464 0.69962 0.0
C1061 C 0.91107 0.50624 0.7149 0.0
C1062 C 0.92734 0.51402 0.65646 0.0
C1063 C 0.91836 0.52028 0.58181 0.0
loop_
_geom_bond_atom_site_label_1
_geom_bond_atom_site_label_2
_geom_bond_distance
_geom_bond_site_symmetry_2
_ccdc_geom_bond_type
P0 O11 1.490 . S
P0 C14 1.812 . S
P0 C20 1.803 . S
P0 C26 1.819 . S
H1 C15 0.941 . S
H2 C16 0.939 . S
H3 C18 0.940 . S
H4 C19 0.940 . S
H5 C21 0.939 . S
H6 C22 0.942 . S
H7 C24 0.940 . S
H8 C25 0.939 . S
H9 C27 0.941 . S
H10 C31 0.939 . S
O11 P0 1.490 . S
H12 C28 0.939 . S
H13 C30 0.940 . S
C14 P0 1.812 . S
C14 C15 1.389 . S
C14 C19 1.391 . S
C15 H1 0.941 . S
C15 C14 1.389 . S
C15 C16 1.397 . S
C16 H2 0.939 . S
C16 C15 1.397 . S
C16 C17 1.378 . S
C17 C16 1.378 . S
C17 C18 1.378 . S
C18 H3 0.940 . S
C18 C17 1.378 . S
C18 C19 1.396 . S
C19 H4 0.940 . S
C19 C14 1.391 . S
C19 C18 1.396 . S
C20 P0 1.803 . S
C20 C21 1.378 . S
C20 C25 1.400 . S
C21 H5 0.939 . S
C21 C20 1.378 . S
C21 C22 1.361 . S
C22 H6 0.942 . S
C22 C21 1.361 . S
C22 C23 1.369 . S
C23 C22 1.369 . S
C23 C24 1.404 . S
C24 H7 0.940 . S
C24 C23 1.404 . S
C24 C25 1.389 . S
C25 H8 0.939 . S
C25 C20 1.400 . S
C25 C24 1.389 . S
C26 P0 1.819 . S
C26 C27 1.391 . S
C26 C31 1.391 . S
C27 H9 0.941 . S
C27 C26 1.391 . S
C27 C28 1.396 . S
C28 H12 0.939 . S
C28 C27 1.396 . S
C28 C29 1.397 . S
C29 C28 1.397 . S
C29 C30 1.385 . S
C30 H13 0.940 . S
C30 C29 1.385 . S
C30 C31 1.388 . S
C31 H10 0.939 . S
C31 C26 1.391 . S
C31 C30 1.388 . S
P32 O43 1.490 . S
P32 C46 1.812 . S
P32 C52 1.803 . S
P32 C58 1.819 . S
H33 C47 0.941 . S
H34 C48 0.939 . S
H35 C50 0.940 . S
H36 C51 0.950 . S
H37 C53 0.939 . S
H38 C54 0.942 . S
H39 C56 0.940 . S
H40 C57 0.959 . S
H41 C59 0.941 . S
H42 C63 0.929 1_655 S
O43 P32 1.490 . S
H44 C60 0.939 . S
H45 C62 0.940 . S
C46 P32 1.812 . S
C46 C47 1.389 . S
C46 C51 1.375 1_455 S
C47 H33 0.941 . S
C47 C46 1.389 . S
C47 C48 1.397 . S
C48 H34 0.939 . S
C48 C47 1.397 . S
C48 C49 1.378 . S
C49 C48 1.378 . S
C49 C50 1.378 1_455 S
C50 H35 0.940 . S
C50 C49 1.378 1_655 S
C50 C51 1.403 . S
C51 H36 0.950 . S
C51 C46 1.375 1_655 S
C51 C50 1.403 . S
C52 P32 1.803 . S
C52 C53 1.378 . S
C52 C57 1.368 1_455 S
C53 H37 0.939 . S
C53 C52 1.378 . S
C53 C54 1.361 . S
C54 H38 0.942 . S
C54 C53 1.361 . S
C54 C55 1.369 . S
C55 C54 1.369 . S
C55 C56 1.404 1_455 S
C56 H39 0.940 . S
C56 C55 1.404 1_655 S
C56 C57 1.402 . S
C57 H40 0.959 . S
C57 C52 1.368 1_655 S
C57 C56 1.402 . S
C58 P32 1.819 . S
C58 C59 1.391 . S
C58 C63 1.391 . S
C59 H41 0.941 . S
C59 C58 1.391 . S
C59 C60 1.396 . S
C60 H44 0.939 . S
C60 C59 1.396 . S
C60 C61 1.397 . S
C61 C60 1.397 . S
C61 C62 1.385 1_455 S
C62 H45 0.940 . S
C62 C61 1.385 1_655 S
C62 C63 1.388 1_655 S
C63 H42 0.929 1_455 S
C63 C58 1.391 . S
C63 C62 1.388 1_455 S
P64 O75 1.490 . S
P64 C78 1.812 . S
P64 C84 1.803 . S
P64 C90 1.819 . S
H65 C79 0.941 . S
H66 C80 0.939 . S
H67 C82 0.940 . S
H68 C83 0.950 . S
H69 C85 0.939 . S
H70 C86 0.942 . S
H71 C88 0.940 . S
H72 C89 0.959 . S
H73 C91 0.941 . S
H74 C95 0.929 1_565 S
O75 P64 1.490 . S
H76 C92 0.939 . S
H77 C94 0.940 . S
C78 P64 1.812 . S
C78 C79 1.389 . S
C78 C83 1.375 1_545 S
C79 H65 0.941 . S
C79 C78 1.389 . S
C79 C80 1.397 . S
C80 H66 0.939 . S
C80 C79 1.397 . S
C80 C81 1.378 . S
C81 C80 1.378 . S
C81 C82 1.378 1_545 S
C82 H67 0.940 . S
C82 C81 1.378 1_565 S
C82 C83 1.403 . S
C83 H68 0.950 . S
C83 C78 1.375 1_565 S
C83 C82 1.403 . S
C84 P64 1.803 . S
C84 C85 1.378 . S
C84 C89 1.368 1_545 S
C85 H69 0.939 . S
C85 C84 1.378 . S
C85 C86 1.361 . S
C86 H70 0.942 . S
C86 C85 1.361 . S
C86 C87 1.369 . S
C87 C86 1.369 . S
C87 C88 1.404 1_545 S
C88 H71 0.940 . S
C88 C87 1.404 1_565 S
C88 C89 1.402 . S
C89 H72 0.959 . S
C89 C84 1.368 1_565 S
C89 C88 1.402 . S
C90 P64 1.819 . S
C90 C91 1.391 . S
C90 C95 1.391 . S
C91 H73 0.941 . S
C91 C90 1.391 . S
C91 C92 1.396 . S
C92 H76 0.939 . S
C92 C91 1.396 . S
C92 C93 1.397 . S
C93 C92 1.397 . S
C93 C94 1.385 1_545 S
C94 H77 0.940 . S
C94 C93 1.385 1_565 S
C94 C95 1.388 1_565 S
C95 H74 0.929 1_545 S
C95 C90 1.391 . S
C95 C94 1.388 1_545 S
P96 O107 1.490 . S
P96 C110 1.812 . S
P96 C116 1.803 . S
P96 C122 1.819 . S
H97 C111 0.941 . S
H98 C112 0.939 . S
H99 C114 0.940 . S
H100 C115 0.940 . S
H101 C117 0.939 . S
H102 C118 0.942 . S
H103 C120 0.940 . S
H104 C121 0.939 . S
H105 C123 0.941 . S
H106 C127 0.939 . S
O107 P96 1.490 . S
H108 C124 0.939 . S
H109 C126 0.940 . S
C110 P96 1.812 . S
C110 C111 1.389 . S
C110 C115 1.391 . S
C111 H97 0.941 . S
C111 C110 1.389 . S
C111 C112 1.397 . S
C112 H98 0.939 . S
C112 C111 1.397 . S
C112 C113 1.378 . S
C113 C112 1.378 . S
C113 C114 1.378 . S
C114 H99 0.940 . S
C114 C113 1.378 . S
C114 C115 1.396 . S
C115 H100 0.940 . S
C115 C110 1.391 . S
C115 C114 1.396 . S
C116 P96 1.803 . S
C116 C117 1.378 . S
C116 C121 1.400 . S
C117 H101 0.939 . S
C117 C116 1.378 . S
C117 C118 1.361 . S
C118 H102 0.942 . S
C118 C117 1.361 . S
C118 C119 1.369 . S
C119 C118 1.369 . S
C119 C120 1.404 . S
C120 H103 0.940 . S
C120 C119 1.404 . S
C120 C121 1.389 . S
C121 H104 0.939 . S
C121 C116 1.400 . S
C121 C120 1.389 . S
C122 P96 1.819 . S
C122 C123 1.391 . S
C122 C127 1.391 . S
C123 H105 0.941 . S
C123 C122 1.391 . S
C123 C124 1.396 . S
C124 H108 0.939 . S
C124 C123 1.396 . S
C124 C125 1.397 . S
C125 C124 1.397 . S
C125 C126 1.385 . S
C126 H109 0.940 . S
C126 C125 1.385 . S
C126 C127 1.388 . S
C127 H106 0.939 . S
C127 C122 1.391 . S
C127 C126 1.388 . S
P128 O139 1.490 . S
P128 C142 1.812 1_554 S
P128 C148 1.803 . S
P128 C154 1.819 . S
H129 C143 0.941 . S
H130 C144 0.939 . S
H131 C146 0.940 . S
H132 C147 0.940 . S
H133 C149 0.939 . S
H134 C150 0.942 . S
H135 C152 0.940 . S
H136 C153 0.939 . S
H137 C155 0.941 . S
H138 C159 0.939 . S
O139 P128 1.490 . S
H140 C156 0.939 . S
H141 C158 0.940 . S
C142 P128 1.812 1_556 S
C142 C143 1.389 . S
C142 C147 1.391 . S
C143 H129 0.941 . S
C143 C142 1.389 . S
C143 C144 1.397 . S
C144 H130 0.939 . S
C144 C143 1.397 . S
C144 C145 1.378 . S
C145 C144 1.378 . S
C145 C146 1.378 . S
C146 H131 0.940 . S
C146 C145 1.378 . S
C146 C147 1.396 . S
C147 H132 0.940 . S
C147 C142 1.391 . S
C147 C146 1.396 . S
C148 P128 1.803 . S
C148 C149 1.378 . S
C148 C153 1.400 . S
C149 H133 0.939 . S
C149 C148 1.378 . S
C149 C150 1.361 . S
C150 H134 0.942 . S
C150 C149 1.361 . S
C150 C151 1.369 . S
C151 C150 1.369 . S
C151 C152 1.404 . S
C152 H135 0.940 . S
C152 C151 1.404 . S
C152 C153 1.389 . S
C153 H136 0.939 . S
C153 C148 1.400 . S
C153 C152 1.389 . S
C154 P128 1.819 . S
C154 C155 1.391 . S
C154 C159 1.391 . S
C155 H137 0.941 . S
C155 C154 1.391 . S
C155 C156 1.396 . S
C156 H140 0.939 . S
C156 C155 1.396 . S
C156 C157 1.397 . S
C157 C156 1.397 . S
C157 C158 1.385 . S
C158 H141 0.940 . S
C158 C157 1.385 . S
C158 C159 1.388 . S
C159 H138 0.939 . S
C159 C154 1.391 . S
C159 C158 1.388 . S
P160 O171 1.490 . S
P160 C174 1.812 1_554 S
P160 C180 1.803 . S
P160 C186 1.819 . S
H161 C175 0.941 . S
H162 C176 0.939 . S
H163 C178 0.940 . S
H164 C179 0.944 . S
H165 C181 0.939 . S
H166 C182 0.942 . S
H167 C184 0.940 . S
H168 C185 0.953 . S
H169 C187 0.941 . S
H170 C191 0.933 1_655 S
O171 P160 1.490 . S
H172 C188 0.939 . S
H173 C190 0.940 . S
C174 P160 1.812 1_556 S
C174 C175 1.389 . S
C174 C179 1.385 1_455 S
C175 H161 0.941 . S
C175 C174 1.389 . S
C175 C176 1.397 . S
C176 H162 0.939 . S
C176 C175 1.397 . S
C176 C177 1.378 . S
C177 C176 1.378 . S
C177 C178 1.378 1_455 S
C178 H163 0.940 . S
C178 C177 1.378 1_655 S
C178 C179 1.399 . S
C179 H164 0.944 . S
C179 C174 1.385 1_655 S
C179 C178 1.399 . S
C180 P160 1.803 . S
C180 C181 1.378 . S
C180 C185 1.379 1_455 S
C181 H165 0.939 . S
C181 C180 1.378 . S
C181 C182 1.361 . S
C182 H166 0.942 . S
C182 C181 1.361 . S
C182 C183 1.369 . S
C183 C182 1.369 . S
C183 C184 1.404 1_455 S
C184 H167 0.940 . S
C184 C183 1.404 1_655 S
C184 C185 1.398 . S
C185 H168 0.953 . S
C185 C180 1.379 1_655 S
C185 C184 1.398 . S
C186 P160 1.819 . S
C186 C187 1.391 . S
C186 C191 1.391 . S
C187 H169 0.941 . S
C187 C186 1.391 . S
C187 C188 1.396 . S
C188 H172 0.939 . S
C188 C187 1.396 . S
C188 C189 1.397 . S
C189 C188 1.397 . S
C189 C190 1.385 1_455 S
C190 H173 0.940 . S
C190 C189 1.385 1_655 S
C190 C191 1.388 1_655 S
C191 H170 0.933 1_455 S
C191 C186 1.391 . S
C191 C190 1.388 1_455 S
P192 O203 1.490 . S
P192 C206 1.812 1_554 S
P192 C212 1.803 . S
P192 C218 1.819 . S
H193 C207 0.941 . S
H194 C208 0.939 . S
H195 C210 0.940 . S
H196 C211 0.944 . S
H197 C213 0.939 . S
H198 C214 0.942 . S
H199 C216 0.940 . S
H200 C217 0.953 . S
H201 C219 0.941 . S
H202 C223 0.933 1_565 S
O203 P192 1.490 . S
H204 C220 0.939 . S
H205 C222 0.940 . S
C206 P192 1.812 1_556 S
C206 C207 1.389 . S
C206 C211 1.385 1_545 S
C207 H193 0.941 . S
C207 C206 1.389 . S
C207 C208 1.397 . S
C208 H194 0.939 . S
C208 C207 1.397 . S
C208 C209 1.378 . S
C209 C208 1.378 . S
C209 C210 1.378 1_545 S
C210 H195 0.940 . S
C210 C209 1.378 1_565 S
C210 C211 1.399 . S
C211 H196 0.944 . S
C211 C206 1.385 1_565 S
C211 C210 1.399 . S
C212 P192 1.803 . S
C212 C213 1.378 . S
C212 C217 1.379 1_545 S
C213 H197 0.939 . S
C213 C212 1.378 . S
C213 C214 1.361 . S
C214 H198 0.942 . S
C214 C213 1.361 . S
C214 C215 1.369 . S
C215 C214 1.369 . S
C215 C216 1.404 1_545 S
C216 H199 0.940 . S
C216 C215 1.404 1_565 S
C216 C217 1.398 . S
C217 H200 0.953 . S
C217 C212 1.379 1_565 S
C217 C216 1.398 . S
C218 P192 1.819 . S
C218 C219 1.391 . S
C218 C223 1.391 . S
C219 H201 0.941 . S
C219 C218 1.391 . S
C219 C220 1.396 . S
C220 H204 0.939 . S
C220 C219 1.396 . S
C220 C221 1.397 . S
C221 C220 1.397 . S
C221 C222 1.385 1_545 S
C222 H205 0.940 . S
C222 C221 1.385 1_565 S
C222 C223 1.388 1_565 S
C223 H202 0.933 1_545 S
C223 C218 1.391 . S
C223 C222 1.388 1_545 S
P224 O235 1.490 . S
P224 C238 1.812 1_554 S
P224 C244 1.803 . S
P224 C250 1.819 . S
H225 C239 0.941 . S
H226 C240 0.939 . S
H227 C242 0.940 . S
H228 C243 0.940 . S
H229 C245 0.939 . S
H230 C246 0.942 . S
H231 C248 0.940 . S
H232 C249 0.939 . S
H233 C251 0.941 . S
H234 C255 0.939 . S
O235 P224 1.490 . S
H236 C252 0.939 . S
H237 C254 0.940 . S
C238 P224 1.812 1_556 S
C238 C239 1.389 . S
C238 C243 1.391 . S
C239 H225 0.941 . S
C239 C238 1.389 . S
C239 C240 1.397 . S
C240 H226 0.939 . S
C240 C239 1.397 . S
C240 C241 1.378 . S
C241 C240 1.378 . S
C241 C242 1.378 . S
C242 H227 0.940 . S
C242 C241 1.378 . S
C242 C243 1.396 . S
C243 H228 0.940 . S
C243 C238 1.391 . S
C243 C242 1.396 . S
C244 P224 1.803 . S
C244 C245 1.378 . S
C244 C249 1.400 . S
C245 H229 0.939 . S
C245 C244 1.378 . S
C245 C246 1.361 . S
C246 H230 0.942 . S
C246 C245 1.361 . S
C246 C247 1.369 . S
C247 C246 1.369 . S
C247 C248 1.404 . S
C248 H231 0.940 . S
C248 C247 1.404 . S
C248 C249 1.389 . S
C249 H232 0.939 . S
C249 C244 1.400 . S
C249 C248 1.389 . S
C250 P224 1.819 . S
C250 C251 1.391 . S
C250 C255 1.391 . S
C251 H233 0.941 . S
C251 C250 1.391 . S
C251 C252 1.396 . S
C252 H236 0.939 . S
C252 C251 1.396 . S
C252 C253 1.397 . S
C253 C252 1.397 . S
C253 C254 1.385 . S
C254 H237 0.940 . S
C254 C253 1.385 . S
C254 C255 1.388 . S
C255 H234 0.939 . S
C255 C250 1.391 . S
C255 C254 1.388 . S
La256 C258 2.928 . S
La256 O276 2.521 . S
La256 O277 2.628 . S
La256 O278 2.554 . S
La256 O279 2.757 1_565 S
La256 O280 2.470 . S
La256 O285 2.482 1_455 S
La256 O287 2.503 1_565 S
La257 C267 2.928 . S
La257 O279 2.482 1_655 S
La257 O281 2.503 1_545 S
La257 O282 2.521 . S
La257 O283 2.628 . S
La257 O284 2.554 . S
La257 O285 2.757 1_545 S
La257 O286 2.470 . S
C258 La256 2.928 . S
C258 C259 1.503 . S
C258 O276 1.261 . S
C258 O277 1.243 . S
C259 C258 1.503 . S
C259 C260 1.394 . S
C259 C264 1.373 . S
C260 C259 1.394 . S
C260 C261 1.380 . S
C260 H288 0.930 . S
C261 C260 1.380 . S
C261 C262 1.376 . S
C261 H289 0.930 . S
C262 C261 1.376 . S
C262 C263 1.370 . S
C263 C262 1.370 . S
C263 C264 1.396 . S
C263 H290 0.952 . S
C264 C259 1.373 . S
C264 C263 1.396 . S
C264 H291 0.929 1_455 S
C265 O278 1.240 . S
C265 O279 1.289 1_565 S
C266 O280 1.258 1_655 S
C266 O281 1.256 . S
C267 La257 2.928 . S
C267 C268 1.503 . S
C267 O282 1.261 . S
C267 O283 1.243 . S
C268 C267 1.503 . S
C268 C269 1.394 . S
C268 C273 1.373 . S
C269 C268 1.394 . S
C269 C270 1.380 . S
C269 H292 0.930 . S
C270 C269 1.380 . S
C270 C271 1.376 . S
C270 H293 0.930 . S
C271 C270 1.376 . S
C271 C272 1.370 . S
C272 C271 1.370 . S
C272 C273 1.396 . S
C272 H294 0.943 . S
C273 C268 1.373 . S
C273 C272 1.396 . S
C273 H295 0.929 1_655 S
C274 O284 1.240 . S
C274 O285 1.289 1_545 S
C275 O286 1.258 1_455 S
C275 O287 1.256 . S
O276 La256 2.521 . S
O276 C258 1.261 . S
O277 La256 2.628 . S
O277 C258 1.243 . S
O278 La256 2.554 . S
O278 C265 1.240 . S
O279 La256 2.757 1_545 S
O279 La257 2.482 1_455 S
O279 C265 1.289 1_545 S
O280 La256 2.470 . S
O280 C266 1.258 1_455 S
O281 La257 2.503 1_565 S
O281 C266 1.256 . S
O282 La257 2.521 . S
O282 C267 1.261 . S
O283 La257 2.628 . S
O283 C267 1.243 . S
O284 La257 2.554 . S
O284 C274 1.240 . S
O285 La256 2.482 1_655 S
O285 La257 2.757 1_565 S
O285 C274 1.289 1_565 S
O286 La257 2.470 . S
O286 C275 1.258 1_655 S
O287 La256 2.503 1_545 S
O287 C275 1.256 . S
H288 C260 0.930 . S
H289 C261 0.930 . S
H290 C263 0.952 . S
H291 C264 0.929 1_655 S
H292 C269 0.930 . S
H293 C270 0.930 . S
H294 C272 0.943 . S
H295 C273 0.929 1_455 S
La296 C298 2.928 . S
La296 O316 2.521 . S
La296 O317 2.628 . S
La296 O318 2.554 . S
La296 O319 2.757 . S
La296 O320 2.470 . S
La296 O325 2.482 1_545 S
La296 O327 2.503 . S
La297 C307 2.928 . S
La297 O319 2.482 1_565 S
La297 O321 2.503 . S
La297 O322 2.521 . S
La297 O323 2.628 . S
La297 O324 2.554 . S
La297 O325 2.757 . S
La297 O326 2.470 . S
C298 La296 2.928 . S
C298 C299 1.503 . S
C298 O316 1.261 . S
C298 O317 1.243 . S
C299 C298 1.503 . S
C299 C300 1.394 . S
C299 C304 1.373 . S
C300 C299 1.394 . S
C300 C301 1.380 . S
C300 H328 0.930 . S
C301 C300 1.380 . S
C301 C302 1.376 . S
C301 H329 0.930 . S
C302 C301 1.376 . S
C302 C303 1.370 . S
C303 C302 1.370 . S
C303 C304 1.396 . S
C303 H330 0.932 1_545 S
C304 C299 1.373 . S
C304 C303 1.396 . S
C304 H331 0.929 1_545 S
C305 O318 1.240 . S
C305 O319 1.289 . S
C306 O320 1.258 1_565 S
C306 O321 1.256 . S
C307 La297 2.928 . S
C307 C308 1.503 . S
C307 O322 1.261 . S
C307 O323 1.243 . S
C308 C307 1.503 . S
C308 C309 1.394 . S
C308 C313 1.373 . S
C309 C308 1.394 . S
C309 C310 1.380 . S
C309 H332 0.930 . S
C310 C309 1.380 . S
C310 C311 1.376 . S
C310 H333 0.930 . S
C311 C310 1.376 . S
C311 C312 1.370 . S
C312 C311 1.370 . S
C312 C313 1.396 . S
C312 H334 0.923 1_565 S
C313 C308 1.373 . S
C313 C312 1.396 . S
C313 H335 0.929 1_565 S
C314 O324 1.240 . S
C314 O325 1.289 . S
C315 O326 1.258 1_545 S
C315 O327 1.256 . S
O316 La296 2.521 . S
O316 C298 1.261 . S
O317 La296 2.628 . S
O317 C298 1.243 . S
O318 La296 2.554 . S
O318 C305 1.240 . S
O319 La296 2.757 . S
O319 La297 2.482 1_545 S
O319 C305 1.289 . S
O320 La296 2.470 . S
O320 C306 1.258 1_545 S
O321 La297 2.503 . S
O321 C306 1.256 . S
O322 La297 2.521 . S
O322 C307 1.261 . S
O323 La297 2.628 . S
O323 C307 1.243 . S
O324 La297 2.554 . S
O324 C314 1.240 . S
O325 La296 2.482 1_565 S
O325 La297 2.757 . S
O325 C314 1.289 . S
O326 La297 2.470 . S
O326 C315 1.258 1_565 S
O327 La296 2.503 . S
O327 C315 1.256 . S
H328 C300 0.930 . S
H329 C301 0.930 . S
H330 C303 0.932 1_565 S
H331 C304 0.929 1_565 S
H332 C309 0.930 . S
H333 C310 0.930 . S
H334 C312 0.923 1_545 S
H335 C313 0.929 1_545 S
La336 C338 2.928 . S
La336 O356 2.521 . S
La336 O357 2.628 . S
La336 O358 2.554 . S
La336 O359 2.757 . S
La336 O360 2.470 . S
La336 O365 2.482 . S
La336 O367 2.503 . S
La337 C347 2.928 . S
La337 O359 2.482 . S
La337 O361 2.503 . S
La337 O362 2.521 . S
La337 O363 2.628 . S
La337 O364 2.554 . S
La337 O365 2.757 . S
La337 O366 2.470 . S
C338 La336 2.928 . S
C338 C339 1.503 . S
C338 O356 1.261 . S
C338 O357 1.243 . S
C339 C338 1.503 . S
C339 C340 1.394 . S
C339 C344 1.373 . S
C340 C339 1.394 . S
C340 C341 1.380 . S
C340 H368 0.930 . S
C341 C340 1.380 . S
C341 C342 1.376 . S
C341 H369 0.930 . S
C342 C341 1.376 . S
C342 C343 1.370 . S
C343 C342 1.370 . S
C343 C344 1.396 . S
C343 H370 0.929 . S
C344 C339 1.373 . S
C344 C343 1.396 . S
C344 H371 0.929 . S
C345 O358 1.240 . S
C345 O359 1.289 . S
C346 O360 1.258 . S
C346 O361 1.256 . S
C347 La337 2.928 . S
C347 C348 1.503 . S
C347 O362 1.261 . S
C347 O363 1.243 . S
C348 C347 1.503 . S
C348 C349 1.394 . S
C348 C353 1.373 . S
C349 C348 1.394 . S
C349 C350 1.380 . S
C349 H372 0.930 . S
C350 C349 1.380 . S
C350 C351 1.376 . S
C350 H373 0.930 . S
C351 C350 1.376 . S
C351 C352 1.370 . S
C352 C351 1.370 . S
C352 C353 1.396 . S
C352 H374 0.929 . S
C353 C348 1.373 . S
C353 C352 1.396 . S
C353 H375 0.929 . S
C354 O364 1.240 . S
C354 O365 1.289 . S
C355 O366 1.258 . S
C355 O367 1.256 . S
O356 La336 2.521 . S
O356 C338 1.261 . S
O357 La336 2.628 . S
O357 C338 1.243 . S
O358 La336 2.554 . S
O358 C345 1.240 . S
O359 La336 2.757 . S
O359 La337 2.482 . S
O359 C345 1.289 . S
O360 La336 2.470 . S
O360 C346 1.258 . S
O361 La337 2.503 . S
O361 C346 1.256 . S
O362 La337 2.521 . S
O362 C347 1.261 . S
O363 La337 2.628 . S
O363 C347 1.243 . S
O364 La337 2.554 . S
O364 C354 1.240 . S
O365 La336 2.482 . S
O365 La337 2.757 . S
O365 C354 1.289 . S
O366 La337 2.470 . S
O366 C355 1.258 . S
O367 La336 2.503 . S
O367 C355 1.256 . S
H368 C340 0.930 . S
H369 C341 0.930 . S
H370 C343 0.929 . S
H371 C344 0.929 . S
H372 C349 0.930 . S
H373 C350 0.930 . S
H374 C352 0.929 . S
H375 C353 0.929 . S
La376 C378 2.928 . S
La376 O396 2.521 . S
La376 O397 2.628 . S
La376 O398 2.554 . S
La376 O399 2.757 1_655 S
La376 O400 2.470 . S
La376 O405 2.482 . S
La376 O407 2.503 1_655 S
La377 C387 2.928 . S
La377 O399 2.482 . S
La377 O401 2.503 1_455 S
La377 O402 2.521 . S
La377 O403 2.628 . S
La377 O404 2.554 . S
La377 O405 2.757 1_455 S
La377 O406 2.470 . S
C378 La376 2.928 . S
C378 C379 1.503 . S
C378 O396 1.261 . S
C378 O397 1.243 . S
C379 C378 1.503 . S
C379 C380 1.394 . S
C379 C384 1.373 . S
C380 C379 1.394 . S
C380 C381 1.380 . S
C380 H408 0.930 . S
C381 C380 1.380 . S
C381 C382 1.376 . S
C381 H409 0.930 . S
C382 C381 1.376 . S
C382 C383 1.370 . S
C383 C382 1.370 . S
C383 C384 1.396 . S
C383 H410 0.929 . S
C384 C379 1.373 . S
C384 C383 1.396 . S
C384 H411 0.929 . S
C385 O398 1.255 . S
C385 O399 1.281 1_655 S
C386 O400 1.258 . S
C386 O401 1.256 . S
C387 La377 2.928 . S
C387 C388 1.503 . S
C387 O402 1.261 . S
C387 O403 1.243 . S
C388 C387 1.503 . S
C388 C389 1.394 . S
C388 C393 1.373 . S
C389 C388 1.394 . S
C389 C390 1.380 . S
C389 H412 0.930 . S
C390 C389 1.380 . S
C390 C391 1.376 . S
C390 H413 0.930 . S
C391 C390 1.376 . S
C391 C392 1.370 . S
C392 C391 1.370 . S
C392 C393 1.396 . S
C392 H414 0.929 . S
C393 C388 1.373 . S
C393 C392 1.396 . S
C393 H415 0.929 . S
C394 O404 1.261 . S
C394 O405 1.277 1_455 S
C395 O406 1.258 . S
C395 O407 1.256 . S
O396 La376 2.521 . S
O396 C378 1.261 . S
O397 La376 2.628 . S
O397 C378 1.243 . S
O398 La376 2.554 . S
O398 C385 1.255 . S
O399 La376 2.757 1_455 S
O399 La377 2.482 . S
O399 C385 1.281 1_455 S
O400 La376 2.470 . S
O400 C386 1.258 . S
O401 La377 2.503 1_655 S
O401 C386 1.256 . S
O402 La377 2.521 . S
O402 C387 1.261 . S
O403 La377 2.628 . S
O403 C387 1.243 . S
O404 La377 2.554 . S
O404 C394 1.261 . S
O405 La376 2.482 . S
O405 La377 2.757 1_655 S
O405 C394 1.277 1_655 S
O406 La377 2.470 . S
O406 C395 1.258 . S
O407 La376 2.503 1_455 S
O407 C395 1.256 . S
H408 C380 0.930 . S
H409 C381 0.930 . S
H410 C383 0.929 . S
H411 C384 0.929 . S
H412 C389 0.930 . S
H413 C390 0.930 . S
H414 C392 0.929 . S
H415 C393 0.929 . S
H416 C428 0.930 . S
H417 C430 0.930 . S
H418 C431 0.930 . S
H419 C435 0.959 . S
H420 C435 0.959 . S
H421 C435 0.961 . S
H422 C436 0.960 . S
H423 C436 0.961 . S
H424 C436 0.959 . S
H425 C439 0.929 . S
H426 C440 0.931 . S
H427 C442 0.930 . S
C428 H416 0.930 . S
C428 C429 1.399 1_565 S
C428 C433 1.399 . S
C429 C428 1.399 1_545 S
C429 C430 1.376 . S
C430 H417 0.930 . S
C430 C429 1.376 . S
C430 C431 1.388 . S
C431 H418 0.930 . S
C431 C430 1.388 . S
C431 C432 1.390 . S
C432 C431 1.390 . S
C432 C433 1.394 1_545 S
C432 C438 1.465 . S
C433 C428 1.399 . S
C433 C432 1.394 1_565 S
C433 C434 1.516 . S
C434 C433 1.516 . S
C434 C435 1.502 . S
C434 C436 1.561 . S
C434 C437 1.526 . S
C435 H419 0.959 . S
C435 H420 0.959 . S
C435 H421 0.961 . S
C435 C434 1.502 . S
C436 H422 0.960 . S
C436 H423 0.961 . S
C436 H424 0.959 . S
C436 C434 1.561 . S
C437 C434 1.526 . S
C437 C438 1.396 1_565 S
C437 C442 1.390 . S
C438 C432 1.465 . S
C438 C437 1.396 1_545 S
C438 C439 1.399 . S
C439 H425 0.929 . S
C439 C438 1.399 . S
C439 C440 1.385 . S
C440 H426 0.931 . S
C440 C439 1.385 . S
C440 C441 1.389 . S
C441 C440 1.389 . S
C441 C442 1.387 1_545 S
C442 H427 0.930 . S
C442 C437 1.390 . S
C442 C441 1.387 1_565 S
H443 C455 0.930 . S
H444 C457 0.930 . S
H445 C458 0.930 . S
H446 C462 0.959 . S
H447 C462 0.959 . S
H448 C462 0.961 . S
H449 C463 0.960 . S
H450 C463 0.961 . S
H451 C463 0.959 . S
H452 C466 0.929 . S
H453 C467 0.931 . S
H454 C469 0.930 . S
C455 H443 0.930 . S
C455 C456 1.399 . S
C455 C460 1.399 . S
C456 C455 1.399 . S
C456 C457 1.376 . S
C457 H444 0.930 . S
C457 C456 1.376 . S
C457 C458 1.388 . S
C458 H445 0.930 . S
C458 C457 1.388 . S
C458 C459 1.390 . S
C459 C458 1.390 . S
C459 C460 1.394 . S
C459 C465 1.465 . S
C460 C455 1.399 . S
C460 C459 1.394 . S
C460 C461 1.516 . S
C461 C460 1.516 . S
C461 C462 1.502 . S
C461 C463 1.561 . S
C461 C464 1.526 . S
C462 H446 0.959 . S
C462 H447 0.959 . S
C462 H448 0.961 . S
C462 C461 1.502 . S
C463 H449 0.960 . S
C463 H450 0.961 . S
C463 H451 0.959 . S
C463 C461 1.561 . S
C464 C461 1.526 . S
C464 C465 1.396 . S
C464 C469 1.390 . S
C465 C459 1.465 . S
C465 C464 1.396 . S
C465 C466 1.399 . S
C466 H452 0.929 . S
C466 C465 1.399 . S
C466 C467 1.385 . S
C467 H453 0.931 . S
C467 C466 1.385 . S
C467 C468 1.389 . S
C468 C467 1.389 . S
C468 C469 1.387 . S
C469 H454 0.930 . S
C469 C464 1.390 . S
C469 C468 1.387 . S
H470 C482 0.930 . S
H471 C484 0.930 . S
H472 C485 0.930 . S
H473 C489 0.959 . S
H474 C489 0.959 . S
H475 C489 0.961 . S
H476 C490 0.960 . S
H477 C490 0.961 . S
H478 C490 0.959 . S
H479 C493 0.929 . S
H480 C494 0.931 . S
H481 C496 0.930 . S
C482 H470 0.930 . S
C482 C483 1.399 . S
C482 C487 1.399 . S
C483 C482 1.399 . S
C483 C484 1.376 . S
C484 H471 0.930 . S
C484 C483 1.376 . S
C484 C485 1.388 . S
C485 H472 0.930 . S
C485 C484 1.388 . S
C485 C486 1.390 . S
C486 C485 1.390 . S
C486 C487 1.394 . S
C486 C492 1.465 . S
C487 C482 1.399 . S
C487 C486 1.394 . S
C487 C488 1.516 . S
C488 C487 1.516 . S
C488 C489 1.502 . S
C488 C490 1.561 . S
C488 C491 1.526 . S
C489 H473 0.959 . S
C489 H474 0.959 . S
C489 H475 0.961 . S
C489 C488 1.502 . S
C490 H476 0.960 . S
C490 H477 0.961 . S
C490 H478 0.959 . S
C490 C488 1.561 . S
C491 C488 1.526 . S
C491 C492 1.396 . S
C491 C496 1.390 . S
C492 C486 1.465 . S
C492 C491 1.396 . S
C492 C493 1.399 . S
C493 H479 0.929 . S
C493 C492 1.399 . S
C493 C494 1.385 . S
C494 H480 0.931 . S
C494 C493 1.385 . S
C494 C495 1.389 . S
C495 C494 1.389 . S
C495 C496 1.387 . S
C496 H481 0.930 . S
C496 C491 1.390 . S
C496 C495 1.387 . S
H497 C509 0.930 . S
H498 C511 0.930 . S
H499 C512 0.930 . S
H500 C516 0.959 . S
H501 C516 0.959 . S
H502 C516 0.961 . S
H503 C517 0.960 . S
H504 C517 0.961 . S
H505 C517 0.959 . S
H506 C520 0.929 . S
H507 C521 0.931 . S
H508 C523 0.930 . S
C509 H497 0.930 . S
C509 C510 1.372 1_455 S
C509 C514 1.399 . S
C510 C509 1.372 1_655 S
C510 C511 1.409 . S
C511 H498 0.930 . S
C511 C510 1.409 . S
C511 C512 1.388 . S
C512 H499 0.930 . S
C512 C511 1.388 . S
C512 C513 1.390 . S
C513 C512 1.390 . S
C513 C514 1.394 1_655 S
C513 C519 1.465 . S
C514 C509 1.399 . S
C514 C513 1.394 1_455 S
C514 C515 1.516 . S
C515 C514 1.516 . S
C515 C516 1.502 . S
C515 C517 1.561 . S
C515 C518 1.526 . S
C516 H500 0.959 . S
C516 H501 0.959 . S
C516 H502 0.961 . S
C516 C515 1.502 . S
C517 H503 0.960 . S
C517 H504 0.961 . S
C517 H505 0.959 . S
C517 C515 1.561 . S
C518 C515 1.526 . S
C518 C519 1.396 1_455 S
C518 C523 1.390 . S
C519 C513 1.465 . S
C519 C518 1.396 1_655 S
C519 C520 1.399 . S
C520 H506 0.929 . S
C520 C519 1.399 . S
C520 C521 1.385 . S
C521 H507 0.931 . S
C521 C520 1.385 . S
C521 C522 1.391 . S
C522 C521 1.391 . S
C522 C523 1.385 1_655 S
C523 H508 0.930 . S
C523 C518 1.390 . S
C523 C522 1.385 1_455 S
H524 C536 0.930 . S
H525 C538 0.930 . S
H526 C539 0.930 . S
H527 C543 0.959 . S
H528 C543 0.959 . S
H529 C543 0.961 . S
H530 C544 0.960 . S
H531 C544 0.961 . S
H532 C544 0.959 . S
H533 C547 0.929 . S
H534 C548 0.931 . S
H535 C550 0.930 . S
C536 H524 0.930 . S
C536 C537 1.399 1_545 S
C536 C541 1.399 . S
C537 C536 1.399 1_565 S
C537 C538 1.376 . S
C538 H525 0.930 . S
C538 C537 1.376 . S
C538 C539 1.388 . S
C539 H526 0.930 . S
C539 C538 1.388 . S
C539 C540 1.390 . S
C540 C539 1.390 . S
C540 C541 1.394 1_565 S
C540 C546 1.465 . S
C541 C536 1.399 . S
C541 C540 1.394 1_545 S
C541 C542 1.516 . S
C542 C541 1.516 . S
C542 C543 1.502 . S
C542 C544 1.561 . S
C542 C545 1.526 . S
C543 H527 0.959 . S
C543 H528 0.959 . S
C543 H529 0.961 . S
C543 C542 1.502 . S
C544 H530 0.960 . S
C544 H531 0.961 . S
C544 H532 0.959 . S
C544 C542 1.561 . S
C545 C542 1.526 . S
C545 C546 1.396 1_545 S
C545 C550 1.390 1_554 S
C546 C540 1.465 . S
C546 C545 1.396 1_565 S
C546 C547 1.399 1_554 S
C547 H533 0.929 . S
C547 C546 1.399 1_556 S
C547 C548 1.385 . S
C548 H534 0.931 . S
C548 C547 1.385 . S
C548 C549 1.389 . S
C549 C548 1.389 . S
C549 C550 1.387 1_565 S
C550 H535 0.930 . S
C550 C545 1.390 1_556 S
C550 C549 1.387 1_545 S
H551 C563 0.930 . S
H552 C565 0.930 . S
H553 C566 0.930 . S
H554 C570 0.959 . S
H555 C570 0.959 1_556 S
H556 C570 0.961 . S
H557 C571 0.960 1_554 S
H558 C571 0.961 . S
H559 C571 0.959 . S
H560 C574 0.929 . S
H561 C575 0.931 . S
H562 C577 0.930 . S
C563 H551 0.930 . S
C563 C564 1.399 . S
C563 C568 1.399 . S
C564 C563 1.399 . S
C564 C565 1.376 . S
C565 H552 0.930 . S
C565 C564 1.376 . S
C565 C566 1.388 . S
C566 H553 0.930 . S
C566 C565 1.388 . S
C566 C567 1.390 . S
C567 C566 1.390 . S
C567 C568 1.394 . S
C567 C573 1.465 . S
C568 C563 1.399 . S
C568 C567 1.394 . S
C568 C569 1.516 . S
C569 C568 1.516 . S
C569 C570 1.502 . S
C569 C571 1.561 1_554 S
C569 C572 1.526 1_554 S
C570 H554 0.959 . S
C570 H555 0.959 1_554 S
C570 H556 0.961 . S
C570 C569 1.502 . S
C571 H557 0.960 1_556 S
C571 H558 0.961 . S
C571 H559 0.959 . S
C571 C569 1.561 1_556 S
C572 C569 1.526 1_556 S
C572 C573 1.396 1_556 S
C572 C577 1.390 . S
C573 C567 1.465 . S
C573 C572 1.396 1_554 S
C573 C574 1.399 . S
C574 H560 0.929 . S
C574 C573 1.399 . S
C574 C575 1.385 1_554 S
C575 H561 0.931 . S
C575 C574 1.385 1_556 S
C575 C576 1.389 . S
C576 C575 1.389 . S
C576 C577 1.387 . S
C577 H562 0.930 . S
C577 C572 1.390 . S
C577 C576 1.387 . S
H578 C590 0.930 . S
H579 C592 0.930 . S
H580 C593 0.930 . S
H581 C597 0.959 . S
H582 C597 0.959 . S
H583 C597 0.961 . S
H584 C598 0.960 . S
H585 C598 0.961 . S
H586 C598 0.959 . S
H587 C601 0.929 . S
H588 C602 0.931 . S
H589 C604 0.930 . S
C590 H578 0.930 . S
C590 C591 1.399 . S
C590 C595 1.399 . S
C591 C590 1.399 . S
C591 C592 1.376 . S
C592 H579 0.930 . S
C592 C591 1.376 . S
C592 C593 1.388 . S
C593 H580 0.930 . S
C593 C592 1.388 . S
C593 C594 1.390 . S
C594 C593 1.390 . S
C594 C595 1.394 . S
C594 C600 1.465 . S
C595 C590 1.399 . S
C595 C594 1.394 . S
C595 C596 1.516 . S
C596 C595 1.516 . S
C596 C597 1.502 . S
C596 C598 1.561 . S
C596 C599 1.526 . S
C597 H581 0.959 . S
C597 H582 0.959 . S
C597 H583 0.961 . S
C597 C596 1.502 . S
C598 H584 0.960 . S
C598 H585 0.961 . S
C598 H586 0.959 . S
C598 C596 1.561 . S
C599 C596 1.526 . S
C599 C600 1.396 . S
C599 C604 1.390 1_554 S
C600 C594 1.465 . S
C600 C599 1.396 . S
C600 C601 1.399 1_554 S
C601 H587 0.929 . S
C601 C600 1.399 1_556 S
C601 C602 1.385 . S
C602 H588 0.931 . S
C602 C601 1.385 . S
C602 C603 1.389 . S
C603 C602 1.389 . S
C603 C604 1.387 . S
C604 H589 0.930 . S
C604 C599 1.390 1_556 S
C604 C603 1.387 . S
H605 C617 0.930 . S
H606 C619 0.930 . S
H607 C620 0.930 . S
H608 C624 0.959 . S
H609 C624 0.959 . S
H610 C624 0.961 . S
H611 C625 0.960 . S
H612 C625 0.961 . S
H613 C625 0.947 1_655 S
H614 C628 0.929 . S
H615 C629 0.931 . S
H616 C631 0.930 . S
C617 H605 0.930 . S
C617 C618 1.399 1_455 S
C617 C622 1.399 . S
C618 C617 1.399 1_655 S
C618 C619 1.376 . S
C619 H606 0.930 . S
C619 C618 1.376 . S
C619 C620 1.388 . S
C620 H607 0.930 . S
C620 C619 1.388 . S
C620 C621 1.390 . S
C621 C620 1.390 . S
C621 C622 1.394 1_655 S
C621 C627 1.465 . S
C622 C617 1.399 . S
C622 C621 1.394 1_455 S
C622 C623 1.516 . S
C623 C622 1.516 . S
C623 C624 1.502 . S
C623 C625 1.561 . S
C623 C626 1.526 . S
C624 H608 0.959 . S
C624 H609 0.959 . S
C624 H610 0.961 . S
C624 C623 1.502 . S
C625 H611 0.960 . S
C625 H612 0.961 . S
C625 H613 0.947 1_455 S
C625 C623 1.561 . S
C626 C623 1.526 . S
C626 C627 1.396 1_455 S
C626 C631 1.390 1_554 S
C627 C621 1.465 . S
C627 C626 1.396 1_655 S
C627 C628 1.399 1_554 S
C628 H614 0.929 . S
C628 C627 1.399 1_556 S
C628 C629 1.385 . S
C629 H615 0.931 . S
C629 C628 1.385 . S
C629 C630 1.389 . S
C630 C629 1.389 . S
C630 C631 1.387 1_655 S
C631 H616 0.930 . S
C631 C626 1.390 1_556 S
C631 C630 1.387 1_455 S
H632 C644 0.930 . S
H633 C646 0.930 . S
H634 C647 0.930 . S
H635 C651 0.959 . S
H636 C651 0.959 . S
H637 C651 0.961 . S
H638 C652 0.960 . S
H639 C652 0.961 . S
H640 C652 0.959 . S
H641 C655 0.929 . S
H642 C656 0.931 . S
H643 C658 0.930 . S
C644 H632 0.930 . S
C644 C645 1.401 . S
C644 C649 1.399 1_455 S
C645 C644 1.401 . S
C645 C646 1.370 1_455 S
C646 H633 0.930 . S
C646 C645 1.370 1_655 S
C646 C647 1.388 . S
C647 H634 0.930 . S
C647 C646 1.388 . S
C647 C648 1.390 . S
C648 C647 1.390 . S
C648 C649 1.394 . S
C648 C654 1.465 . S
C649 C644 1.399 1_655 S
C649 C648 1.394 . S
C649 C650 1.516 . S
C650 C649 1.516 . S
C650 C651 1.502 1_655 S
C650 C652 1.561 . S
C650 C653 1.526 . S
C651 H635 0.959 . S
C651 H636 0.959 . S
C651 H637 0.961 . S
C651 C650 1.502 1_455 S
C652 H638 0.960 . S
C652 H639 0.961 . S
C652 H640 0.959 . S
C652 C650 1.561 . S
C653 C650 1.526 . S
C653 C654 1.396 . S
C653 C658 1.390 . S
C654 C648 1.465 . S
C654 C653 1.396 . S
C654 C655 1.399 . S
C655 H641 0.929 . S
C655 C654 1.399 . S
C655 C656 1.385 . S
C656 H642 0.931 . S
C656 C655 1.385 . S
C656 C657 1.389 . S
C657 C656 1.389 . S
C657 C658 1.387 . S
C658 H643 0.930 . S
C658 C653 1.390 . S
C658 C657 1.387 . S
H659 C671 0.930 . S
H660 C673 0.930 . S
H661 C674 0.930 . S
H662 C678 0.959 . S
H663 C678 0.959 . S
H664 C678 0.961 . S
H665 C679 0.960 . S
H666 C679 0.961 . S
H667 C679 0.959 . S
H668 C682 0.929 . S
H669 C683 0.931 . S
H670 C685 0.930 . S
C671 H659 0.930 . S
C671 C672 1.400 . S
C671 C676 1.399 1_545 S
C672 C671 1.400 . S
C672 C673 1.373 1_545 S
C673 H660 0.930 . S
C673 C672 1.373 1_565 S
C673 C674 1.388 . S
C674 H661 0.930 . S
C674 C673 1.388 . S
C674 C675 1.390 . S
C675 C674 1.390 . S
C675 C676 1.394 . S
C675 C681 1.465 . S
C676 C671 1.399 1_565 S
C676 C675 1.394 . S
C676 C677 1.516 . S
C677 C676 1.516 . S
C677 C678 1.502 1_565 S
C677 C679 1.561 . S
C677 C680 1.526 . S
C678 H662 0.959 . S
C678 H663 0.959 . S
C678 H664 0.961 . S
C678 C677 1.502 1_545 S
C679 H665 0.960 . S
C679 H666 0.961 . S
C679 H667 0.959 . S
C679 C677 1.561 . S
C680 C677 1.526 . S
C680 C681 1.396 . S
C680 C685 1.390 . S
C681 C675 1.465 . S
C681 C680 1.396 . S
C681 C682 1.399 . S
C682 H668 0.929 . S
C682 C681 1.399 . S
C682 C683 1.385 . S
C683 H669 0.931 . S
C683 C682 1.385 . S
C683 C684 1.389 . S
C684 C683 1.389 . S
C684 C685 1.387 . S
C685 H670 0.930 . S
C685 C680 1.390 . S
C685 C684 1.387 . S
H686 C698 0.930 . S
H687 C700 0.930 . S
H688 C701 0.930 . S
H689 C705 0.959 . S
H690 C705 0.959 . S
H691 C705 0.961 . S
H692 C706 0.960 . S
H693 C706 0.961 . S
H694 C706 0.959 . S
H695 C709 0.929 . S
H696 C710 0.931 . S
H697 C712 0.930 . S
C698 H686 0.930 . S
C698 C699 1.399 . S
C698 C703 1.399 . S
C699 C698 1.399 . S
C699 C700 1.376 . S
C700 H687 0.930 . S
C700 C699 1.376 . S
C700 C701 1.388 . S
C701 H688 0.930 . S
C701 C700 1.388 . S
C701 C702 1.390 . S
C702 C701 1.390 . S
C702 C703 1.394 . S
C702 C708 1.465 . S
C703 C698 1.399 . S
C703 C702 1.394 . S
C703 C704 1.516 . S
C704 C703 1.516 . S
C704 C705 1.502 . S
C704 C706 1.561 . S
C704 C707 1.526 . S
C705 H689 0.959 . S
C705 H690 0.959 . S
C705 H691 0.961 . S
C705 C704 1.502 . S
C706 H692 0.960 . S
C706 H693 0.961 . S
C706 H694 0.959 . S
C706 C704 1.561 . S
C707 C704 1.526 . S
C707 C708 1.396 . S
C707 C712 1.390 . S
C708 C702 1.465 . S
C708 C707 1.396 . S
C708 C709 1.399 . S
C709 H695 0.929 . S
C709 C708 1.399 . S
C709 C710 1.385 . S
C710 H696 0.931 . S
C710 C709 1.385 . S
C710 C711 1.389 . S
C711 C710 1.389 . S
C711 C712 1.387 . S
C712 H697 0.930 . S
C712 C707 1.390 . S
C712 C711 1.387 . S
H713 C725 0.930 . S
H714 C727 0.930 . S
H715 C728 0.930 . S
H716 C732 0.959 . S
H717 C732 0.959 . S
H718 C732 0.961 . S
H719 C733 0.960 . S
H720 C733 0.961 . S
H721 C733 0.959 . S
H722 C736 0.929 . S
H723 C737 0.931 . S
H724 C739 0.930 . S
C725 H713 0.930 . S
C725 C726 1.399 . S
C725 C730 1.399 . S
C726 C725 1.399 . S
C726 C727 1.376 . S
C727 H714 0.930 . S
C727 C726 1.376 . S
C727 C728 1.388 . S
C728 H715 0.930 . S
C728 C727 1.388 . S
C728 C729 1.390 . S
C729 C728 1.390 . S
C729 C730 1.394 . S
C729 C735 1.465 . S
C730 C725 1.399 . S
C730 C729 1.394 . S
C730 C731 1.516 . S
C731 C730 1.516 . S
C731 C732 1.502 . S
C731 C733 1.561 . S
C731 C734 1.526 . S
C732 H716 0.959 . S
C732 H717 0.959 . S
C732 H718 0.961 . S
C732 C731 1.502 . S
C733 H719 0.960 . S
C733 H720 0.961 . S
C733 H721 0.959 . S
C733 C731 1.561 . S
C734 C731 1.526 . S
C734 C735 1.396 . S
C734 C739 1.390 . S
C735 C729 1.465 . S
C735 C734 1.396 . S
C735 C736 1.399 . S
C736 H722 0.929 . S
C736 C735 1.399 . S
C736 C737 1.385 . S
C737 H723 0.931 . S
C737 C736 1.385 . S
C737 C738 1.389 . S
C738 C737 1.389 . S
C738 C739 1.387 . S
C739 H724 0.930 . S
C739 C734 1.390 . S
C739 C738 1.387 . S
H740 C752 0.930 . S
H741 C754 0.930 . S
H742 C755 0.930 . S
H743 C759 0.959 1_455 S
H744 C759 0.959 . S
H745 C759 0.961 . S
H746 C760 0.960 . S
H747 C760 0.961 . S
H748 C760 0.959 . S
H749 C763 0.929 . S
H750 C764 0.931 . S
H751 C766 0.930 . S
C752 H740 0.930 . S
C752 C753 1.399 . S
C752 C757 1.399 1_655 S
C753 C752 1.399 . S
C753 C754 1.376 1_655 S
C754 H741 0.930 . S
C754 C753 1.376 1_455 S
C754 C755 1.388 . S
C755 H742 0.930 . S
C755 C754 1.388 . S
C755 C756 1.390 . S
C756 C755 1.390 . S
C756 C757 1.394 . S
C756 C762 1.465 . S
C757 C752 1.399 1_455 S
C757 C756 1.394 . S
C757 C758 1.516 1_455 S
C758 C757 1.516 1_655 S
C758 C759 1.502 1_554 S
C758 C760 1.561 . S
C758 C761 1.526 1_655 S
C759 H743 0.959 1_655 S
C759 H744 0.959 . S
C759 H745 0.961 . S
C759 C758 1.502 1_556 S
C760 H746 0.960 . S
C760 H747 0.961 . S
C760 H748 0.959 . S
C760 C758 1.561 . S
C761 C758 1.526 1_455 S
C761 C762 1.396 . S
C761 C766 1.390 1_554 S
C762 C756 1.465 . S
C762 C761 1.396 . S
C762 C763 1.399 . S
C763 H749 0.929 . S
C763 C762 1.399 . S
C763 C764 1.385 . S
C764 H750 0.931 . S
C764 C763 1.385 . S
C764 C765 1.389 1_554 S
C765 C764 1.389 1_556 S
C765 C766 1.387 . S
C766 H751 0.930 . S
C766 C761 1.390 1_556 S
C766 C765 1.387 . S
H767 C779 0.930 . S
H768 C781 0.930 . S
H769 C782 0.930 1_556 S
H770 C786 0.959 1_565 S
H771 C786 0.959 . S
H772 C786 0.961 . S
H773 C787 0.960 . S
H774 C787 0.961 . S
H775 C787 0.959 . S
H776 C790 0.929 . S
H777 C791 0.931 . S
H778 C793 0.930 . S
C779 H767 0.930 . S
C779 C780 1.399 1_545 S
C779 C784 1.399 . S
C780 C779 1.399 1_565 S
C780 C781 1.376 . S
C781 H768 0.930 . S
C781 C780 1.376 . S
C781 C782 1.388 1_565 S
C782 H769 0.930 1_554 S
C782 C781 1.388 1_545 S
C782 C783 1.390 . S
C783 C782 1.390 . S
C783 C784 1.394 . S
C783 C789 1.465 . S
C784 C779 1.399 . S
C784 C783 1.394 . S
C784 C785 1.516 . S
C785 C784 1.516 . S
C785 C786 1.502 . S
C785 C787 1.561 . S
C785 C788 1.526 . S
C786 H770 0.959 1_545 S
C786 H771 0.959 . S
C786 H772 0.961 . S
C786 C785 1.502 . S
C787 H773 0.960 . S
C787 H774 0.961 . S
C787 H775 0.959 . S
C787 C785 1.561 . S
C788 C785 1.526 . S
C788 C789 1.396 . S
C788 C793 1.390 . S
C789 C783 1.465 . S
C789 C788 1.396 . S
C789 C790 1.399 1_554 S
C790 H776 0.929 . S
C790 C789 1.399 1_556 S
C790 C791 1.385 . S
C791 H777 0.931 . S
C791 C790 1.385 . S
C791 C792 1.389 . S
C792 C791 1.389 . S
C792 C793 1.387 1_556 S
C793 H778 0.930 . S
C793 C788 1.390 . S
C793 C792 1.387 1_554 S
H794 C806 0.930 . S
H795 C808 0.930 . S
H796 C809 0.930 . S
H797 C813 0.959 1_556 S
H798 C813 0.959 . S
H799 C813 0.961 . S
H800 C814 0.960 . S
H801 C814 0.961 . S
H802 C814 0.959 . S
H803 C817 0.929 . S
H804 C818 0.931 . S
H805 C820 0.930 . S
C806 H794 0.930 . S
C806 C807 1.399 . S
C806 C811 1.399 . S
C807 C806 1.399 . S
C807 C808 1.376 . S
C808 H795 0.930 . S
C808 C807 1.376 . S
C808 C809 1.388 . S
C809 H796 0.930 . S
C809 C808 1.388 . S
C809 C810 1.390 . S
C810 C809 1.390 . S
C810 C811 1.394 . S
C810 C816 1.465 . S
C811 C806 1.399 . S
C811 C810 1.394 . S
C811 C812 1.516 . S
C812 C811 1.516 . S
C812 C813 1.502 . S
C812 C814 1.561 . S
C812 C815 1.526 . S
C813 H797 0.959 1_554 S
C813 H798 0.959 . S
C813 H799 0.961 . S
C813 C812 1.502 . S
C814 H800 0.960 . S
C814 H801 0.961 . S
C814 H802 0.959 . S
C814 C812 1.561 . S
C815 C812 1.526 . S
C815 C816 1.396 . S
C815 C820 1.390 . S
C816 C810 1.465 . S
C816 C815 1.396 . S
C816 C817 1.399 . S
C817 H803 0.929 . S
C817 C816 1.399 . S
C817 C818 1.385 . S
C818 H804 0.931 . S
C818 C817 1.385 . S
C818 C819 1.389 1_554 S
C819 C818 1.389 1_556 S
C819 C820 1.387 1_556 S
C820 H805 0.930 . S
C820 C815 1.390 . S
C820 C819 1.387 1_554 S
H821 C833 0.930 . S
H822 C835 0.930 . S
H823 C836 0.930 . S
H824 C840 0.959 . S
H825 C840 0.959 . S
H826 C840 0.961 . S
H827 C841 0.960 . S
H828 C841 0.961 . S
H829 C841 0.959 . S
H830 C844 0.929 . S
H831 C845 0.931 . S
H832 C847 0.930 . S
C833 H821 0.930 . S
C833 C834 1.399 . S
C833 C838 1.399 . S
C834 C833 1.399 . S
C834 C835 1.376 . S
C835 H822 0.930 . S
C835 C834 1.376 . S
C835 C836 1.388 . S
C836 H823 0.930 . S
C836 C835 1.388 . S
C836 C837 1.390 . S
C837 C836 1.390 . S
C837 C838 1.394 . S
C837 C843 1.465 . S
C838 C833 1.399 . S
C838 C837 1.394 . S
C838 C839 1.516 . S
C839 C838 1.516 . S
C839 C840 1.502 . S
C839 C841 1.561 . S
C839 C842 1.526 . S
C840 H824 0.959 . S
C840 H825 0.959 . S
C840 H826 0.961 . S
C840 C839 1.502 . S
C841 H827 0.960 . S
C841 H828 0.961 . S
C841 H829 0.959 . S
C841 C839 1.561 . S
C842 C839 1.526 . S
C842 C843 1.396 . S
C842 C847 1.390 . S
C843 C837 1.465 . S
C843 C842 1.396 . S
C843 C844 1.399 1_554 S
C844 H830 0.929 . S
C844 C843 1.399 1_556 S
C844 C845 1.385 . S
C845 H831 0.931 . S
C845 C844 1.385 . S
C845 C846 1.389 . S
C846 C845 1.389 . S
C846 C847 1.387 1_556 S
C847 H832 0.930 . S
C847 C842 1.390 . S
C847 C846 1.387 1_554 S
H848 C860 0.930 . S
H849 C862 0.930 . S
H850 C863 0.930 . S
H851 C867 0.959 . S
H852 C867 0.959 . S
H853 C867 0.961 . S
H854 C868 0.961 . S
H855 C868 0.961 1_455 S
H856 C868 0.959 . S
H857 C871 0.929 . S
H858 C872 0.931 . S
H859 C874 0.930 . S
C860 H848 0.930 . S
C860 C861 1.411 . S
C860 C865 1.399 . S
C861 C860 1.411 . S
C861 C862 1.363 1_455 S
C862 H849 0.930 . S
C862 C861 1.363 1_655 S
C862 C863 1.388 . S
C863 H850 0.930 . S
C863 C862 1.388 . S
C863 C864 1.390 . S
C864 C863 1.390 . S
C864 C865 1.394 1_655 S
C864 C870 1.463 1_655 S
C865 C860 1.399 . S
C865 C864 1.394 1_455 S
C865 C866 1.516 . S
C866 C865 1.516 . S
C866 C867 1.502 . S
C866 C868 1.561 1_455 S
C866 C869 1.526 . S
C867 H851 0.959 . S
C867 H852 0.959 . S
C867 H853 0.961 . S
C867 C866 1.502 . S
C868 H854 0.961 . S
C868 H855 0.961 1_655 S
C868 H856 0.959 . S
C868 C866 1.561 1_655 S
C869 C866 1.526 . S
C869 C870 1.409 . S
C869 C874 1.390 . S
C870 C864 1.463 1_455 S
C870 C869 1.409 . S
C870 C871 1.391 1_455 S
C871 H857 0.929 . S
C871 C870 1.391 1_655 S
C871 C872 1.385 . S
C872 H858 0.931 . S
C872 C871 1.385 . S
C872 C873 1.389 1_655 S
C873 C872 1.389 1_455 S
C873 C874 1.387 . S
C874 H859 0.930 . S
C874 C869 1.390 . S
C874 C873 1.387 . S
H875 C887 0.930 1_565 S
H876 C889 0.930 . S
H877 C890 0.930 . S
H878 C894 0.959 . S
H879 C894 0.959 . S
H880 C894 0.961 . S
H881 C895 0.960 . S
H882 C895 0.961 . S
H883 C895 0.959 . S
H884 C898 0.929 . S
H885 C899 0.931 . S
H886 C901 0.930 . S
C887 H875 0.930 1_545 S
C887 C888 1.399 . S
C887 C892 1.399 . S
C888 C887 1.399 . S
C888 C889 1.376 . S
C889 H876 0.930 . S
C889 C888 1.376 . S
C889 C890 1.388 . S
C890 H877 0.930 . S
C890 C889 1.388 . S
C890 C891 1.390 . S
C891 C890 1.390 . S
C891 C892 1.394 . S
C891 C897 1.465 . S
C892 C887 1.399 . S
C892 C891 1.394 . S
C892 C893 1.516 . S
C893 C892 1.516 . S
C893 C894 1.502 1_545 S
C893 C895 1.561 . S
C893 C896 1.526 . S
C894 H878 0.959 . S
C894 H879 0.959 . S
C894 H880 0.961 . S
C894 C893 1.502 1_565 S
C895 H881 0.960 . S
C895 H882 0.961 . S
C895 H883 0.959 . S
C895 C893 1.561 . S
C896 C893 1.526 . S
C896 C897 1.396 . S
C896 C901 1.390 . S
C897 C891 1.465 . S
C897 C896 1.396 . S
C897 C898 1.399 . S
C898 H884 0.929 . S
C898 C897 1.399 . S
C898 C899 1.385 . S
C899 H885 0.931 . S
C899 C898 1.385 . S
C899 C900 1.389 . S
C900 C899 1.389 . S
C900 C901 1.387 . S
C901 H886 0.930 . S
C901 C896 1.390 . S
C901 C900 1.387 . S
H902 C914 0.930 . S
H903 C916 0.930 . S
H904 C917 0.930 . S
H905 C921 0.959 . S
H906 C921 0.959 . S
H907 C921 0.961 . S
H908 C922 0.960 . S
H909 C922 0.961 . S
H910 C922 0.959 . S
H911 C925 0.929 . S
H912 C926 0.931 . S
H913 C928 0.930 . S
C914 H902 0.930 . S
C914 C915 1.399 . S
C914 C919 1.399 . S
C915 C914 1.399 . S
C915 C916 1.376 . S
C916 H903 0.930 . S
C916 C915 1.376 . S
C916 C917 1.388 . S
C917 H904 0.930 . S
C917 C916 1.388 . S
C917 C918 1.390 . S
C918 C917 1.390 . S
C918 C919 1.394 . S
C918 C924 1.465 . S
C919 C914 1.399 . S
C919 C918 1.394 . S
C919 C920 1.516 . S
C920 C919 1.516 . S
C920 C921 1.502 . S
C920 C922 1.561 . S
C920 C923 1.526 . S
C921 H905 0.959 . S
C921 H906 0.959 . S
C921 H907 0.961 . S
C921 C920 1.502 . S
C922 H908 0.960 . S
C922 H909 0.961 . S
C922 H910 0.959 . S
C922 C920 1.561 . S
C923 C920 1.526 . S
C923 C924 1.396 . S
C923 C928 1.390 . S
C924 C918 1.465 . S
C924 C923 1.396 . S
C924 C925 1.399 . S
C925 H911 0.929 . S
C925 C924 1.399 . S
C925 C926 1.385 . S
C926 H912 0.931 . S
C926 C925 1.385 . S
C926 C927 1.389 . S
C927 C926 1.389 . S
C927 C928 1.387 . S
C928 H913 0.930 . S
C928 C923 1.390 . S
C928 C927 1.387 . S
H929 C941 0.930 . S
H930 C943 0.930 . S
H931 C944 0.930 . S
H932 C948 0.959 . S
H933 C948 0.959 . S
H934 C948 0.961 . S
H935 C949 0.960 . S
H936 C949 0.961 . S
H937 C949 0.959 . S
H938 C952 0.929 . S
H939 C953 0.931 . S
H940 C955 0.930 . S
C941 H929 0.930 . S
C941 C942 1.399 . S
C941 C946 1.399 . S
C942 C941 1.399 . S
C942 C943 1.376 . S
C943 H930 0.930 . S
C943 C942 1.376 . S
C943 C944 1.388 . S
C944 H931 0.930 . S
C944 C943 1.388 . S
C944 C945 1.390 . S
C945 C944 1.390 . S
C945 C946 1.394 . S
C945 C951 1.465 . S
C946 C941 1.399 . S
C946 C945 1.394 . S
C946 C947 1.516 . S
C947 C946 1.516 . S
C947 C948 1.502 . S
C947 C949 1.561 . S
C947 C950 1.526 . S
C948 H932 0.959 . S
C948 H933 0.959 . S
C948 H934 0.961 . S
C948 C947 1.502 . S
C949 H935 0.960 . S
C949 H936 0.961 . S
C949 H937 0.959 . S
C949 C947 1.561 . S
C950 C947 1.526 . S
C950 C951 1.396 . S
C950 C955 1.390 . S
C951 C945 1.465 . S
C951 C950 1.396 . S
C951 C952 1.399 . S
C952 H938 0.929 . S
C952 C951 1.399 . S
C952 C953 1.385 . S
C953 H939 0.931 . S
C953 C952 1.385 . S
C953 C954 1.389 . S
C954 C953 1.389 . S
C954 C955 1.387 . S
C955 H940 0.930 . S
C955 C950 1.390 . S
C955 C954 1.387 . S
H956 C968 0.930 . S
H957 C970 0.930 . S
H958 C971 0.930 . S
H959 C975 0.959 . S
H960 C975 0.959 . S
H961 C975 0.961 . S
H962 C976 0.960 . S
H963 C976 0.961 . S
H964 C976 0.959 . S
H965 C979 0.929 . S
H966 C980 0.931 . S
H967 C982 0.930 1_455 S
C968 H956 0.930 . S
C968 C969 1.399 1_455 S
C968 C973 1.399 1_455 S
C969 C968 1.399 1_655 S
C969 C970 1.376 . S
C970 H957 0.930 . S
C970 C969 1.376 . S
C970 C971 1.388 . S
C971 H958 0.930 . S
C971 C970 1.388 . S
C971 C972 1.390 . S
C972 C971 1.390 . S
C972 C973 1.394 . S
C972 C978 1.465 . S
C973 C968 1.399 1_655 S
C973 C972 1.394 . S
C973 C974 1.516 1_655 S
C974 C973 1.516 1_455 S
C974 C975 1.502 . S
C974 C976 1.561 1_455 S
C974 C977 1.526 1_455 S
C975 H959 0.959 . S
C975 H960 0.959 . S
C975 H961 0.961 . S
C975 C974 1.502 . S
C976 H962 0.960 . S
C976 H963 0.961 . S
C976 H964 0.959 . S
C976 C974 1.561 1_655 S
C977 C974 1.526 1_655 S
C977 C978 1.396 . S
C977 C982 1.390 . S
C978 C972 1.465 . S
C978 C977 1.396 . S
C978 C979 1.399 . S
C979 H965 0.929 . S
C979 C978 1.399 . S
C979 C980 1.385 . S
C980 H966 0.931 . S
C980 C979 1.385 . S
C980 C981 1.389 . S
C981 C980 1.389 . S
C981 C982 1.387 . S
C982 H967 0.930 1_655 S
C982 C977 1.390 . S
C982 C981 1.387 . S
H983 C995 0.930 . S
H984 C997 0.930 . S
H985 C998 0.930 . S
H986 C1002 0.959 1_545 S
H987 C1002 0.959 . S
H988 C1002 0.961 . S
H989 C1003 0.960 . S
H990 C1003 0.961 . S
H991 C1003 0.959 . S
H992 C1006 0.929 1_545 S
H993 C1007 0.933 . S
H994 C1009 0.930 . S
C995 H983 0.930 . S
C995 C996 1.399 . S
C995 C1000 1.399 . S
C996 C995 1.399 . S
C996 C997 1.376 1_565 S
C997 H984 0.930 . S
C997 C996 1.376 1_545 S
C997 C998 1.388 . S
C998 H985 0.930 . S
C998 C997 1.388 . S
C998 C999 1.390 1_545 S
C999 C998 1.390 1_565 S
C999 C1000 1.394 . S
C999 C1005 1.465 . S
C1000 C995 1.399 . S
C1000 C999 1.394 . S
C1000 C1001 1.516 . S
C1001 C1000 1.516 . S
C1001 C1002 1.502 . S
C1001 C1003 1.561 . S
C1001 C1004 1.526 . S
C1002 H986 0.959 1_565 S
C1002 H987 0.959 . S
C1002 H988 0.961 . S
C1002 C1001 1.502 . S
C1003 H989 0.960 . S
C1003 H990 0.961 . S
C1003 H991 0.959 . S
C1003 C1001 1.561 . S
C1004 C1001 1.526 . S
C1004 C1005 1.396 . S
C1004 C1009 1.390 . S
C1005 C999 1.465 . S
C1005 C1004 1.396 . S
C1005 C1006 1.399 . S
C1006 H992 0.929 1_565 S
C1006 C1005 1.399 . S
C1006 C1007 1.385 . S
C1007 H993 0.933 . S
C1007 C1006 1.385 . S
C1007 C1008 1.389 . S
C1008 C1007 1.389 . S
C1008 C1009 1.387 . S
C1009 H994 0.930 . S
C1009 C1004 1.390 . S
C1009 C1008 1.387 . S
H1010 C1022 0.930 . S
H1011 C1024 0.930 . S
H1012 C1025 0.930 . S
H1013 C1029 0.959 . S
H1014 C1029 0.959 . S
H1015 C1029 0.961 . S
H1016 C1030 0.960 . S
H1017 C1030 0.961 . S
H1018 C1030 0.959 . S
H1019 C1033 0.929 . S
H1020 C1034 0.931 . S
H1021 C1036 0.930 . S
C1022 H1010 0.930 . S
C1022 C1023 1.399 . S
C1022 C1027 1.399 . S
C1023 C1022 1.399 . S
C1023 C1024 1.376 . S
C1024 H1011 0.930 . S
C1024 C1023 1.376 . S
C1024 C1025 1.388 . S
C1025 H1012 0.930 . S
C1025 C1024 1.388 . S
C1025 C1026 1.390 . S
C1026 C1025 1.390 . S
C1026 C1027 1.394 . S
C1026 C1032 1.465 . S
C1027 C1022 1.399 . S
C1027 C1026 1.394 . S
C1027 C1028 1.516 . S
C1028 C1027 1.516 . S
C1028 C1029 1.502 . S
C1028 C1030 1.561 . S
C1028 C1031 1.526 . S
C1029 H1013 0.959 . S
C1029 H1014 0.959 . S
C1029 H1015 0.961 . S
C1029 C1028 1.502 . S
C1030 H1016 0.960 . S
C1030 H1017 0.961 . S
C1030 H1018 0.959 . S
C1030 C1028 1.561 . S
C1031 C1028 1.526 . S
C1031 C1032 1.396 . S
C1031 C1036 1.390 . S
C1032 C1026 1.465 . S
C1032 C1031 1.396 . S
C1032 C1033 1.399 . S
C1033 H1019 0.929 . S
C1033 C1032 1.399 . S
C1033 C1034 1.385 . S
C1034 H1020 0.931 . S
C1034 C1033 1.385 . S
C1034 C1035 1.389 . S
C1035 C1034 1.389 . S
C1035 C1036 1.387 . S
C1036 H1021 0.930 . S
C1036 C1031 1.390 . S
C1036 C1035 1.387 . S
H1037 C1049 0.930 . S
H1038 C1051 0.930 . S
H1039 C1052 0.930 . S
H1040 C1056 0.959 . S
H1041 C1056 0.959 . S
H1042 C1056 0.961 . S
H1043 C1057 0.960 . S
H1044 C1057 0.961 . S
H1045 C1057 0.959 . S
H1046 C1060 0.929 . S
H1047 C1061 0.931 . S
H1048 C1063 0.930 . S
C1049 H1037 0.930 . S
C1049 C1050 1.399 . S
C1049 C1054 1.399 . S
C1050 C1049 1.399 . S
C1050 C1051 1.376 . S
C1051 H1038 0.930 . S
C1051 C1050 1.376 . S
C1051 C1052 1.388 . S
C1052 H1039 0.930 . S
C1052 C1051 1.388 . S
C1052 C1053 1.390 . S
C1053 C1052 1.390 . S
C1053 C1054 1.394 . S
C1053 C1059 1.465 . S
C1054 C1049 1.399 . S
C1054 C1053 1.394 . S
C1054 C1055 1.516 . S
C1055 C1054 1.516 . S
C1055 C1056 1.502 . S
C1055 C1057 1.561 . S
C1055 C1058 1.526 . S
C1056 H1040 0.959 . S
C1056 H1041 0.959 . S
C1056 H1042 0.961 . S
C1056 C1055 1.502 . S
C1057 H1043 0.960 . S
C1057 H1044 0.961 . S
C1057 H1045 0.959 . S
C1057 C1055 1.561 . S
C1058 C1055 1.526 . S
C1058 C1059 1.396 . S
C1058 C1063 1.390 . S
C1059 C1053 1.465 . S
C1059 C1058 1.396 . S
C1059 C1060 1.399 . S
C1060 H1046 0.929 . S
C1060 C1059 1.399 . S
C1060 C1061 1.385 . S
C1061 H1047 0.931 . S
C1061 C1060 1.385 . S
C1061 C1062 1.389 . S
C1062 C1061 1.389 . S
C1062 C1063 1.387 . S
C1063 H1048 0.930 . S
C1063 C1058 1.390 . S
C1063 C1062 1.387 . S
C429 C215 1.972 . S
C441 C265 2.191 1_545 S
C468 C305 2.186 . S
C456 C247 2.018 . S
C495 C345 2.188 . S
C483 C151 2.062 . S
C522 C385 2.178 . S
C510 C183 2.051 1_655 S
C549 C274 2.193 1_565 S
C537 C87 2.049 1_565 S
C564 C119 2.039 . S
C576 C314 2.187 . S
C591 C23 1.996 . S
C603 C354 2.189 . S
C618 C55 2.033 1_655 S
C630 C394 2.194 1_655 S
C657 C271 0.572 . S
C645 C189 0.405 . S
C684 C311 0.569 . S
C672 C221 0.412 . S
C711 C351 0.556 . S
C699 C253 0.411 . S
C726 C157 0.384 . S
C738 C391 0.356 . S
C753 C61 0.452 1_655 S
C765 C262 0.572 . S
C792 C302 0.485 . S
C780 C93 0.565 1_565 S
C819 C342 0.586 . S
C807 C125 0.405 . S
C834 C29 0.638 . S
C846 C382 0.410 . S
C861 C177 2.549 . S
C873 C275 2.803 . S
C888 C209 2.448 . S
C900 C315 2.801 . S
C927 C355 2.777 . S
C915 C241 2.511 . S
C954 C395 2.801 . S
C942 C145 2.529 . S
C969 C49 2.572 1_655 S
C981 C266 2.834 . S
C1008 C306 2.793 . S
C996 C81 2.555 1_565 S
C1035 C346 2.790 . S
C1023 C113 2.553 . S
C1050 C17 2.547 . S
C1062 C386 2.798 . S
