# Generated by pormake.
# Topology pyr, (3,6)-cn, num edge types: 1
# Building blocks:
#     Node 0, Type 0, BuildingBlock: KAKCAD_clean_linker_0, # of connection points: 3
#     Node 1, Type 0, BuildingBlock: KAKCAD_clean_linker_0, # of connection points: 3
#     Node 2, Type 0, BuildingBlock: KAKCAD_clean_linker_0, # of connection points: 3
#     Node 3, Type 0, BuildingBlock: KAKCAD_clean_linker_0, # of connection points: 3
#     Node 4, Type 0, BuildingBlock: KAKCAD_clean_linker_0, # of connection points: 3
#     Node 5, Type 0, BuildingBlock: KAKCAD_clean_linker_0, # of connection points: 3
#     Node 6, Type 0, BuildingBlock: KAKCAD_clean_linker_0, # of connection points: 3
#     Node 7, Type 0, BuildingBlock: KAKCAD_clean_linker_0, # of connection points: 3
#     Node 8, Type 1, BuildingBlock: BETDEL_clean_sbu_0, # of connection points: 6
#     Node 9, Type 1, BuildingBlock: BETDEL_clean_sbu_0, # of connection points: 6
#     Node 10, Type 1, BuildingBlock: BETDEL_clean_sbu_0, # of connection points: 6
#     Node 11, Type 1, BuildingBlock: BETDEL_clean_sbu_0, # of connection points: 6
#     Edge 12, Type (0, 1), BuildingBlock: AJUNOK_clean_linker_0, # of connection points: 2
#     Edge 13, Type (0, 1), BuildingBlock: AJUNOK_clean_linker_0, # of connection points: 2
#     Edge 14, Type (0, 1), BuildingBlock: AJUNOK_clean_linker_0, # of connection points: 2
#     Edge 15, Type (0, 1), BuildingBlock: AJUNOK_clean_linker_0, # of connection points: 2
#     Edge 16, Type (0, 1), BuildingBlock: AJUNOK_clean_linker_0, # of connection points: 2
#     Edge 17, Type (0, 1), BuildingBlock: AJUNOK_clean_linker_0, # of connection points: 2
#     Edge 18, Type (0, 1), BuildingBlock: AJUNOK_clean_linker_0, # of connection points: 2
#     Edge 19, Type (0, 1), BuildingBlock: AJUNOK_clean_linker_0, # of connection points: 2
#     Edge 20, Type (0, 1), BuildingBlock: AJUNOK_clean_linker_0, # of connection points: 2
#     Edge 21, Type (0, 1), BuildingBlock: AJUNOK_clean_linker_0, # of connection points: 2
#     Edge 22, Type (0, 1), BuildingBlock: AJUNOK_clean_linker_0, # of connection points: 2
#     Edge 23, Type (0, 1), BuildingBlock: AJUNOK_clean_linker_0, # of connection points: 2
#     Edge 24, Type (0, 1), BuildingBlock: AJUNOK_clean_linker_0, # of connection points: 2
#     Edge 25, Type (0, 1), BuildingBlock: AJUNOK_clean_linker_0, # of connection points: 2
#     Edge 26, Type (0, 1), BuildingBlock: AJUNOK_clean_linker_0, # of connection points: 2
#     Edge 27, Type (0, 1), BuildingBlock: AJUNOK_clean_linker_0, # of connection points: 2
#     Edge 28, Type (0, 1), BuildingBlock: AJUNOK_clean_linker_0, # of connection points: 2
#     Edge 29, Type (0, 1), BuildingBlock: AJUNOK_clean_linker_0, # of connection points: 2
#     Edge 30, Type (0, 1), BuildingBlock: AJUNOK_clean_linker_0, # of connection points: 2
#     Edge 31, Type (0, 1), BuildingBlock: AJUNOK_clean_linker_0, # of connection points: 2
#     Edge 32, Type (0, 1), BuildingBlock: AJUNOK_clean_linker_0, # of connection points: 2
#     Edge 33, Type (0, 1), BuildingBlock: AJUNOK_clean_linker_0, # of connection points: 2
#     Edge 34, Type (0, 1), BuildingBlock: AJUNOK_clean_linker_0, # of connection points: 2
#     Edge 35, Type (0, 1), BuildingBlock: AJUNOK_clean_linker_0, # of connection points: 2
# Relax obj value: 0.031
# Max RMSD: 0.091
# Mean RMSD: 0.039
data_MOF--net-pyr--node1-BETDEL_clean_sbu_0--node2-KAKCAD_clean_linker_0--edge1-AJUNOK_clean_linker_0
_symmetry_space_group_name_H-M    P1
_symmetry_Int_Tables_number       1
_symmetry_cell_setting            triclinic
loop_
_symmetry_equiv_pos_as_xyz
'x, y, z'
_cell_length_a     35.336384
_cell_length_b     36.818222
_cell_length_c     33.952361
_cell_angle_alpha  91.702593
_cell_angle_beta   89.066833
_cell_angle_gamma 96.019473
loop_
_atom_site_label
_atom_site_type_symbol
_atom_site_fract_x
_atom_site_fract_y
_atom_site_fract_z
_atom_type_partial_charge
C0 C 0.12791 0.1673 0.26493 0.0
C1 C 0.1431 0.15086 0.29695 0.0
C2 C 0.15166 0.1892 0.24014 0.0
C3 C 0.19101 0.19494 0.24693 0.0
C4 C 0.20616 0.1787 0.27916 0.0
C5 C 0.18235 0.15684 0.30402 0.0
C6 C 0.21621 0.21585 0.2187 0.0
C7 C 0.20526 0.24795 0.20337 0.0
C8 C 0.22493 0.2643 0.17125 0.0
C9 C 0.25691 0.24929 0.15558 0.0
C10 C 0.26844 0.21737 0.17097 0.0
C11 C 0.24831 0.20106 0.20294 0.0
C12 C 0.29774 0.19802 0.15031 0.0
C13 C 0.29646 0.19277 0.10915 0.0
C14 C 0.32507 0.18212 0.17169 0.0
C15 C 0.35011 0.16058 0.15233 0.0
C16 C 0.34796 0.15444 0.11139 0.0
C17 C 0.20745 0.29241 0.15001 0.0
C18 C 0.2007 0.28729 0.10945 0.0
C19 C 0.19187 0.32087 0.17092 0.0
C20 C 0.16766 0.34215 0.15219 0.0
C21 C 0.15862 0.33509 0.11241 0.0
C22 C 0.17645 0.30854 0.09076 0.0
C23 C 0.32142 0.17115 0.08984 0.0
H24 H 0.09785 0.16245 0.25847 0.0
H25 H 0.13936 0.20067 0.2149 0.0
H26 H 0.23638 0.18277 0.28496 0.0
H27 H 0.19459 0.14449 0.32874 0.0
H28 H 0.17966 0.25868 0.21465 0.0
H29 H 0.25571 0.1752 0.21338 0.0
H30 H 0.27172 0.26151 0.13024 0.0
H31 H 0.27529 0.2043 0.09203 0.0
H32 H 0.32664 0.1859 0.20341 0.0
H33 H 0.3705 0.14793 0.16944 0.0
H34 H 0.21199 0.26521 0.09277 0.0
H35 H 0.197 0.32546 0.20213 0.0
H36 H 0.31975 0.16718 0.05814 0.0
H37 H 0.16995 0.30285 0.05998 0.0
H38 H 0.15493 0.36326 0.16908 0.0
C39 C 0.28646 0.87009 0.81469 0.0
C40 C 0.32636 0.87495 0.81684 0.0
C41 C 0.26876 0.85073 0.78257 0.0
C42 C 0.29082 0.83591 0.75243 0.0
C43 C 0.3307 0.8405 0.75536 0.0
C44 C 0.34814 0.85943 0.78722 0.0
C45 C 0.27349 0.81731 0.71665 0.0
C46 C 0.24446 0.83195 0.69656 0.0
C47 C 0.234 0.8188 0.65846 0.0
C48 C 0.25317 0.79081 0.64044 0.0
C49 C 0.28198 0.77583 0.6606 0.0
C50 C 0.2904 0.78797 0.69922 0.0
C51 C 0.30695 0.75079 0.64079 0.0
C52 C 0.29209 0.7186 0.6209 0.0
C53 C 0.34662 0.75835 0.64417 0.0
C54 C 0.37091 0.73359 0.62964 0.0
C55 C 0.35624 0.70083 0.61082 0.0
C56 C 0.20621 0.83742 0.63622 0.0
C57 C 0.17185 0.84562 0.6541 0.0
C58 C 0.21512 0.84951 0.598 0.0
C59 C 0.19081 0.87044 0.5786 0.0
C60 C 0.15695 0.87958 0.59689 0.0
C61 C 0.14731 0.86622 0.63451 0.0
C62 C 0.3166 0.69365 0.6062 0.0
H63 H 0.26912 0.88216 0.83709 0.0
H64 H 0.238 0.84765 0.78111 0.0
H65 H 0.34877 0.83041 0.73233 0.0
H66 H 0.37895 0.8627 0.78824 0.0
H67 H 0.23192 0.85533 0.70925 0.0
H68 H 0.31221 0.77589 0.71495 0.0
H69 H 0.24674 0.78175 0.6104 0.0
H70 H 0.26163 0.71217 0.61797 0.0
H71 H 0.35889 0.7832 0.65897 0.0
H72 H 0.4012 0.73962 0.63433 0.0
H73 H 0.16414 0.83632 0.68341 0.0
H74 H 0.24163 0.84403 0.58369 0.0
H75 H 0.3046 0.66856 0.59169 0.0
H76 H 0.12092 0.87188 0.64892 0.0
H77 H 0.19913 0.88046 0.54972 0.0
C78 C 0.76124 0.42621 0.90982 0.0
C79 C 0.79356 0.4071 0.91288 0.0
C80 C 0.72783 0.40953 0.89252 0.0
C81 C 0.72551 0.37301 0.8788 0.0
C82 C 0.75732 0.35353 0.88278 0.0
C83 C 0.79098 0.37041 0.89937 0.0
C84 C 0.69007 0.35518 0.86037 0.0
C85 C 0.67284 0.37198 0.82964 0.0
C86 C 0.64047 0.35444 0.81083 0.0
C87 C 0.62455 0.32011 0.82398 0.0
C88 C 0.64062 0.30329 0.85573 0.0
C89 C 0.67372 0.32103 0.87323 0.0
C90 C 0.62272 0.26771 0.87134 0.0
C91 C 0.58291 0.2606 0.87493 0.0
C92 C 0.64527 0.24097 0.88398 0.0
C93 C 0.62853 0.20821 0.89979 0.0
C94 C 0.58876 0.20123 0.90351 0.0
C95 C 0.62413 0.37178 0.77674 0.0
C96 C 0.60929 0.4056 0.78142 0.0
C97 C 0.62494 0.35542 0.73891 0.0
C98 C 0.61155 0.37268 0.70634 0.0
C99 C 0.59584 0.40628 0.71087 0.0
C100 C 0.59497 0.42244 0.74903 0.0
C101 C 0.56621 0.22786 0.89074 0.0
H102 H 0.76155 0.45405 0.92112 0.0
H103 H 0.70356 0.42503 0.89042 0.0
H104 H 0.7564 0.32537 0.87231 0.0
H105 H 0.81524 0.35484 0.901 0.0
H106 H 0.68544 0.39819 0.81936 0.0
H107 H 0.68635 0.30877 0.89778 0.0
H108 H 0.59966 0.30657 0.80942 0.0
H109 H 0.56457 0.28063 0.86615 0.0
H110 H 0.67597 0.2451 0.88115 0.0
H111 H 0.64677 0.18798 0.90828 0.0
H112 H 0.60852 0.4189 0.81028 0.0
H113 H 0.63693 0.3297 0.73436 0.0
H114 H 0.53548 0.22348 0.89325 0.0
H115 H 0.58301 0.44811 0.75401 0.0
H116 H 0.61434 0.35989 0.67748 0.0
C117 C 0.86455 0.59899 0.20736 0.0
C118 C 0.90402 0.59871 0.20156 0.0
C119 C 0.85001 0.61736 0.24006 0.0
C120 C 0.8745 0.63622 0.26786 0.0
C121 C 0.91405 0.63673 0.26153 0.0
C122 C 0.9286 0.61824 0.22879 0.0
C123 C 0.85859 0.65505 0.30322 0.0
C124 C 0.8264 0.63844 0.32342 0.0
C125 C 0.80969 0.65626 0.35564 0.0
C126 C 0.82602 0.69144 0.36739 0.0
C127 C 0.85895 0.70804 0.34873 0.0
C128 C 0.87509 0.68962 0.31673 0.0
C129 C 0.87654 0.74449 0.36335 0.0
C130 C 0.85407 0.77342 0.37062 0.0
C131 C 0.91554 0.75009 0.37201 0.0
C132 C 0.93149 0.78353 0.38845 0.0
C133 C 0.90896 0.81235 0.39584 0.0
C134 C 0.77556 0.63817 0.37723 0.0
C135 C 0.74827 0.61366 0.35764 0.0
C136 C 0.76973 0.64542 0.41776 0.0
C137 C 0.73752 0.6294 0.43774 0.0
C138 C 0.71059 0.60455 0.4183 0.0
C139 C 0.71652 0.59691 0.37792 0.0
C140 C 0.87015 0.80703 0.38642 0.0
H141 H 0.84479 0.5851 0.18645 0.0
H142 H 0.81945 0.61704 0.24336 0.0
H143 H 0.93382 0.65073 0.28235 0.0
H144 H 0.95915 0.61853 0.22525 0.0
H145 H 0.81496 0.61108 0.31444 0.0
H146 H 0.89986 0.70279 0.30165 0.0
H147 H 0.81336 0.70611 0.39145 0.0
H148 H 0.82397 0.76998 0.36417 0.0
H149 H 0.9335 0.72824 0.36707 0.0
H150 H 0.96148 0.7869 0.39543 0.0
H151 H 0.75095 0.60767 0.32639 0.0
H152 H 0.79008 0.66347 0.43444 0.0
H153 H 0.85205 0.82865 0.39212 0.0
H154 H 0.69654 0.57794 0.36181 0.0
H155 H 0.73355 0.63713 0.46841 0.0
C156 C 0.8795 0.85086 0.73288 0.0
C157 C 0.89077 0.8879 0.74141 0.0
C158 C 0.85375 0.83101 0.75764 0.0
C159 C 0.8388 0.848 0.79113 0.0
C160 C 0.85066 0.8849 0.79998 0.0
C161 C 0.87641 0.9047 0.77526 0.0
C162 C 0.81175 0.82709 0.81755 0.0
C163 C 0.81954 0.79292 0.83002 0.0
C164 C 0.79621 0.77411 0.85822 0.0
C165 C 0.76457 0.78994 0.87386 0.0
C166 C 0.75676 0.82447 0.86174 0.0
C167 C 0.77995 0.84244 0.83291 0.0
C168 C 0.72691 0.84367 0.88168 0.0
C169 C 0.69068 0.82566 0.88954 0.0
C170 C 0.73493 0.88063 0.89307 0.0
C171 C 0.70712 0.89947 0.91127 0.0
C172 C 0.67087 0.88164 0.919 0.0
C173 C 0.80888 0.7408 0.87473 0.0
C174 C 0.82656 0.71628 0.84994 0.0
C175 C 0.80954 0.73672 0.91572 0.0
C176 C 0.83073 0.71092 0.93161 0.0
C177 C 0.85232 0.6896 0.90678 0.0
C178 C 0.84857 0.69134 0.86577 0.0
C179 C 0.66273 0.84461 0.90797 0.0
H180 H 0.88955 0.83761 0.70638 0.0
H181 H 0.84488 0.80261 0.75017 0.0
H182 H 0.84013 0.89839 0.82611 0.0
H183 H 0.88478 0.93329 0.78229 0.0
H184 H 0.84541 0.78216 0.8196 0.0
H185 H 0.77378 0.86892 0.82308 0.0
H186 H 0.74718 0.77626 0.89668 0.0
H187 H 0.68383 0.7972 0.88091 0.0
H188 H 0.76283 0.89505 0.88796 0.0
H189 H 0.71382 0.92821 0.91879 0.0
H190 H 0.82568 0.71818 0.81819 0.0
H191 H 0.79603 0.75507 0.93565 0.0
H192 H 0.63483 0.83041 0.91361 0.0
H193 H 0.86449 0.67507 0.84572 0.0
H194 H 0.83163 0.70894 0.96332 0.0
C195 C 0.70417 0.12313 0.22777 0.0
C196 C 0.6944 0.14517 0.19729 0.0
C197 C 0.72078 0.13891 0.26199 0.0
C198 C 0.72803 0.1771 0.26641 0.0
C199 C 0.71989 0.19903 0.23505 0.0
C200 C 0.70303 0.1832 0.20086 0.0
C201 C 0.74074 0.19379 0.30491 0.0
C202 C 0.76694 0.17768 0.32749 0.0
C203 C 0.7754 0.19033 0.36613 0.0
C204 C 0.75808 0.22046 0.38181 0.0
C205 C 0.73251 0.23751 0.35901 0.0
C206 C 0.72405 0.22398 0.32075 0.0
C207 C 0.71218 0.26797 0.37517 0.0
C208 C 0.69098 0.26422 0.41043 0.0
C209 C 0.71039 0.29934 0.35296 0.0
C210 C 0.68686 0.32587 0.36502 0.0
C211 C 0.66428 0.32132 0.39925 0.0
C212 C 0.80149 0.17088 0.3898 0.0
C213 C 0.79842 0.13246 0.38846 0.0
C214 C 0.83068 0.19011 0.41204 0.0
C215 C 0.85712 0.17124 0.43125 0.0
C216 C 0.85484 0.1329 0.42836 0.0
C217 C 0.82479 0.11372 0.40747 0.0
C218 C 0.66705 0.29063 0.42228 0.0
H219 H 0.69701 0.09379 0.2261 0.0
H220 H 0.72603 0.12123 0.2858 0.0
H221 H 0.72562 0.22849 0.23736 0.0
H222 H 0.69572 0.2007 0.17767 0.0
H223 H 0.78063 0.15491 0.31498 0.0
H224 H 0.7028 0.23591 0.30406 0.0
H225 H 0.76398 0.23024 0.41173 0.0
H226 H 0.69163 0.24013 0.42787 0.0
H227 H 0.72651 0.30284 0.32567 0.0
H228 H 0.6853 0.34936 0.34686 0.0
H229 H 0.77568 0.11681 0.37238 0.0
H230 H 0.83378 0.2197 0.41354 0.0
H231 H 0.65031 0.28684 0.44914 0.0
H232 H 0.82169 0.08412 0.40582 0.0
H233 H 0.87991 0.1866 0.4475 0.0
C234 C 0.22031 0.61807 0.1518 0.0
C235 C 0.21404 0.62015 0.11117 0.0
C236 C 0.25395 0.63469 0.16869 0.0
C237 C 0.2823 0.65376 0.14536 0.0
C238 C 0.27568 0.65614 0.10472 0.0
C239 C 0.24192 0.63972 0.08792 0.0
C240 C 0.31881 0.67073 0.16305 0.0
C241 C 0.33655 0.65324 0.19287 0.0
C242 C 0.37116 0.66857 0.20926 0.0
C243 C 0.38905 0.70143 0.19388 0.0
C244 C 0.37173 0.72002 0.16405 0.0
C245 C 0.33609 0.70443 0.14988 0.0
C246 C 0.3899 0.75578 0.14793 0.0
C247 C 0.41582 0.77955 0.17017 0.0
C248 C 0.38072 0.76712 0.11014 0.0
C249 C 0.39534 0.80124 0.09602 0.0
C250 C 0.42147 0.82477 0.11807 0.0
C251 C 0.38767 0.65025 0.24304 0.0
C252 C 0.36369 0.63537 0.27336 0.0
C253 C 0.42694 0.64687 0.24529 0.0
C254 C 0.44161 0.62892 0.27682 0.0
C255 C 0.4175 0.61433 0.30717 0.0
C256 C 0.37833 0.61767 0.30482 0.0
C257 C 0.4317 0.81305 0.15528 0.0
H258 H 0.19902 0.60375 0.17062 0.0
H259 H 0.25754 0.63283 0.20015 0.0
H260 H 0.29695 0.67009 0.08561 0.0
H261 H 0.23796 0.64163 0.0565 0.0
H262 H 0.32368 0.6271 0.20298 0.0
H263 H 0.32087 0.71884 0.12899 0.0
H264 H 0.41621 0.71252 0.20566 0.0
H265 H 0.42364 0.77287 0.19953 0.0
H266 H 0.362 0.74985 0.09095 0.0
H267 H 0.38535 0.8092 0.06794 0.0
H268 H 0.33339 0.63765 0.27301 0.0
H269 H 0.44627 0.65762 0.22238 0.0
H270 H 0.45204 0.82987 0.17328 0.0
H271 H 0.35882 0.60629 0.32726 0.0
H272 H 0.47193 0.62681 0.27771 0.0
C273 C 0.15413 0.22209 0.62213 0.0
C274 C 0.11456 0.21296 0.62226 0.0
C275 C 0.16997 0.25578 0.63784 0.0
C276 C 0.14662 0.28161 0.65354 0.0
C277 C 0.10691 0.27225 0.65376 0.0
C278 C 0.09111 0.23832 0.63844 0.0
C279 C 0.16363 0.3184 0.66846 0.0
C280 C 0.19602 0.33605 0.64969 0.0
C281 C 0.21233 0.37061 0.66284 0.0
C282 C 0.19579 0.388 0.69525 0.0
C283 C 0.16356 0.37091 0.715 0.0
C284 C 0.1477 0.33615 0.70122 0.0
C285 C 0.1468 0.3892 0.75022 0.0
C286 C 0.17043 0.40783 0.77889 0.0
C287 C 0.1071 0.38829 0.7555 0.0
C288 C 0.09152 0.40613 0.78809 0.0
C289 C 0.1152 0.42538 0.81628 0.0
C290 C 0.24696 0.38808 0.64257 0.0
C291 C 0.27909 0.36888 0.63708 0.0
C292 C 0.24778 0.4233 0.6274 0.0
C293 C 0.2798 0.4386 0.60634 0.0
C294 C 0.31181 0.41926 0.60087 0.0
C295 C 0.31131 0.38447 0.61682 0.0
C296 C 0.15486 0.42551 0.81152 0.0
H297 H 0.17289 0.20296 0.61013 0.0
H298 H 0.20066 0.26145 0.6378 0.0
H299 H 0.08787 0.29146 0.66492 0.0
H300 H 0.06045 0.23221 0.63844 0.0
H301 H 0.20826 0.32334 0.62398 0.0
H302 H 0.12352 0.32246 0.71675 0.0
H303 H 0.20823 0.4148 0.70518 0.0
H304 H 0.20108 0.40846 0.77635 0.0
H305 H 0.08798 0.37444 0.73396 0.0
H306 H 0.06088 0.40556 0.79074 0.0
H307 H 0.27927 0.34176 0.64857 0.0
H308 H 0.22333 0.4386 0.63103 0.0
H309 H 0.17396 0.43917 0.83318 0.0
H310 H 0.33567 0.36906 0.61296 0.0
H311 H 0.27963 0.46554 0.59439 0.0
Dy312 Dy 0.03074 0.02206 0.47233 0.0
C313 C 0.96847 0.96812 0.61603 0.0
C314 C 0.0564 0.05787 0.40675 0.0
Dy315 Dy 0.99435 1.00071 0.5488 0.0
O316 O 0.06883 0.02839 0.4191 0.0
O317 O 0.02958 0.06757 0.43003 0.0
O318 O 0.0666 0.9755 0.47456 0.0
O319 O 0.05246 1.0029 0.52704 0.0
C320 C 0.0683 0.97629 0.51271 0.0
C321 C 0.95719 0.04707 0.50864 0.0
O322 O 0.03334 0.04776 0.57212 0.0
O323 O 0.04886 0.07178 0.51111 0.0
O324 O 0.95259 0.99332 0.59866 0.0
O325 O 0.99858 0.96036 0.59651 0.0
O326 O 0.95936 0.04786 0.54674 0.0
O327 O 0.97256 0.02019 0.49419 0.0
O328 O 0.9896 0.97627 0.44943 0.0
O329 O 0.97802 0.9504 0.51026 0.0
C330 C 0.04866 0.07473 0.5502 0.0
C331 C 0.97583 0.94855 0.47122 0.0
Dy332 Dy 0.53405 0.03001 0.04478 0.0
C333 C 0.42248 0.95643 0.93153 0.0
C334 C 0.58966 0.07061 0.08577 0.0
Dy335 Dy 0.47391 0.99692 0.97745 0.0
O336 O 0.59459 0.04163 0.06432 0.0
O337 O 0.55437 0.07749 0.08457 0.0
O338 O 0.51628 0.98667 0.09017 0.0
O339 O 0.49212 0.98397 0.03546 0.0
C340 C 0.49207 0.96754 0.06734 0.0
C341 C 0.51399 0.06071 0.95563 0.0
O342 O 0.43826 0.03066 0.01553 0.0
O343 O 0.48677 0.06536 0.05046 0.0
O344 O 0.45581 0.97073 0.92 0.0
O345 O 0.41713 0.96355 0.96893 0.0
O346 O 0.4873 0.04292 0.93471 0.0
O347 O 0.51678 0.04283 0.98633 0.0
O348 O 0.56955 1.00148 1.0017 0.0
O349 O 0.52177 0.96202 0.9717 0.0
C350 C 0.45072 0.05823 0.03973 0.0
C351 C 0.55793 0.97176 0.98043 0.0
Dy352 Dy 0.51913 0.47865 0.48078 0.0
C353 C 0.46021 0.59343 0.56834 0.0
C354 C 0.56211 0.42947 0.44493 0.0
Dy355 Dy 0.5009 0.54201 0.53341 0.0
O356 O 0.52537 0.42446 0.4499 0.0
O357 O 0.57492 0.46166 0.45845 0.0
O358 O 0.45693 0.45791 0.47804 0.0
O359 O 0.47918 0.48464 0.52939 0.0
C360 C 0.44903 0.47089 0.51299 0.0
C361 C 0.57106 0.54925 0.50149 0.0
O362 O 0.52283 0.5101 0.58169 0.0
O363 O 0.5441 0.46548 0.5394 0.0
O364 O 0.49377 0.59994 0.55231 0.0
O365 O 0.44976 0.55857 0.56696 0.0
O366 O 0.56322 0.56153 0.53674 0.0
O367 O 0.54085 0.53614 0.48468 0.0
O368 O 0.49966 0.51312 0.43305 0.0
O369 O 0.47076 0.55122 0.47675 0.0
C370 C 0.54063 0.48045 0.57529 0.0
C371 C 0.47752 0.53962 0.44015 0.0
Dy372 Dy 0.01305 0.4773 0.02469 0.0
C373 C 0.96593 0.60171 0.96152 0.0
C374 C 0.04934 0.41908 0.04403 0.0
Dy375 Dy 0.99974 0.54511 0.98968 0.0
O376 O 0.01938 0.42916 0.06215 0.0
O377 O 0.05865 0.44024 0.0149 0.0
O378 O 0.96529 0.48104 0.06832 0.0
O379 O 0.99775 0.52906 0.05106 0.0
C380 C 0.96917 0.5165 0.07121 0.0
C381 C 0.04472 0.50581 0.94469 0.0
O382 O 0.05135 0.56928 0.02208 0.0
O383 O 0.06668 0.51307 0.04101 0.0
O384 O 0.97654 0.5746 0.94054 0.0
O385 O 0.97505 0.59877 0.99805 0.0
O386 O 0.04962 0.54116 0.94892 0.0
O387 O 0.01513 0.49336 0.9634 0.0
O388 O 0.96308 0.4544 0.98923 0.0
O389 O 0.94289 0.5113 0.98374 0.0
C390 C 0.07484 0.54893 0.03901 0.0
C391 C 0.93677 0.47532 0.97947 0.0
C392 C 0.12873 0.09168 0.3302 0.0
C393 C 0.11837 0.12653 0.32242 0.0
C394 C 0.10724 0.06884 0.35615 0.0
C395 C 0.07477 0.08017 0.37529 0.0
H396 H 0.15397 0.08221 0.31653 0.0
H397 H 0.11687 0.0426 0.36216 0.0
S398 S 0.03448 0.16815 0.36322 0.0
N399 N 0.07278 0.17084 0.3345 0.0
N400 N 0.03201 0.12763 0.38324 0.0
C401 C 0.06318 0.11436 0.36659 0.0
C402 C 0.08511 0.13765 0.34012 0.0
C403 C 0.37514 0.92525 0.83635 0.0
C404 C 0.34643 0.89816 0.84786 0.0
C405 C 0.39889 0.94428 0.86401 0.0
C406 C 0.39457 0.9374 0.90436 0.0
H407 H 0.38001 0.93106 0.80547 0.0
H408 H 0.42121 0.96426 0.85353 0.0
S409 S 0.32244 0.87076 0.95019 0.0
N410 N 0.31396 0.86624 0.90246 0.0
N411 N 0.35841 0.90304 0.95499 0.0
C412 C 0.36487 0.91171 0.91669 0.0
C413 C 0.34075 0.89188 0.88827 0.0
C414 C 0.58721 0.46316 0.67286 0.0
C415 C 0.58108 0.42478 0.67604 0.0
C416 C 0.57384 0.48109 0.64053 0.0
C417 C 0.55449 0.46138 0.60951 0.0
H418 H 0.60293 0.47962 0.69531 0.0
H419 H 0.57933 0.51055 0.63946 0.0
S420 S 0.52746 0.36128 0.60449 0.0
N421 N 0.5509 0.36831 0.64616 0.0
N422 N 0.52785 0.40179 0.58485 0.0
C423 C 0.5478 0.42322 0.61228 0.0
C424 C 0.56058 0.405 0.64556 0.0
C425 C 0.94921 0.59382 0.14364 0.0
C426 C 0.9195 0.57767 0.1676 0.0
C427 C 0.96449 0.57423 0.11196 0.0
C428 C 0.95098 0.53755 0.10319 0.0
H429 H 0.96067 0.6219 0.14932 0.0
H430 H 0.98747 0.58782 0.0946 0.0
S431 S 0.87384 0.48242 0.15702 0.0
N432 N 0.87744 0.52259 0.18035 0.0
N433 N 0.90579 0.48606 0.12095 0.0
C434 C 0.92108 0.52121 0.12669 0.0
C435 C 0.90547 0.54115 0.15881 0.0
C436 C 0.41261 0.13639 0.09733 0.0
C437 C 0.3733 0.13027 0.0914 0.0
C438 C 0.43725 0.11321 0.07996 0.0
C439 C 0.4235 0.0828 0.05613 0.0
H440 H 0.42442 0.15933 0.11558 0.0
H441 H 0.46736 0.11924 0.08565 0.0
S442 S 0.32219 0.05496 0.0321 0.0
N443 N 0.3212 0.09198 0.06058 0.0
N444 N 0.3675 0.04808 0.02757 0.0
C445 C 0.38404 0.0766 0.04971 0.0
C446 C 0.35894 0.10042 0.06742 0.0
C447 C 0.1242 0.89757 0.53662 0.0
C448 C 0.13244 0.90365 0.57684 0.0
C449 C 0.10308 0.92102 0.51636 0.0
C450 C 0.08931 0.95147 0.5355 0.0
H451 H 0.13426 0.87449 0.52059 0.0
H452 H 0.09767 0.91529 0.48536 0.0
S453 S 0.10315 0.97989 0.64047 0.0
N454 N 0.12535 0.94274 0.635 0.0
N455 N 0.08518 0.98647 0.59699 0.0
C456 C 0.0968 0.95767 0.57582 0.0
C457 C 0.11844 0.93383 0.59647 0.0
C458 C 0.85132 0.40635 0.9557 0.0
C459 C 0.82989 0.42522 0.92989 0.0
C460 C 0.88579 0.42261 0.97155 0.0
C461 C 0.90008 0.4586 0.96269 0.0
H462 H 0.84124 0.37881 0.96404 0.0
H463 H 0.90111 0.40695 0.99126 0.0
S464 S 0.85677 0.51904 0.89447 0.0
N465 N 0.82719 0.48125 0.89432 0.0
N466 N 0.89092 0.51211 0.92509 0.0
C467 C 0.87911 0.47775 0.93684 0.0
C468 C 0.84434 0.46104 0.92026 0.0
C469 C 0.6401 0.58413 0.42073 0.0
C470 C 0.67569 0.58788 0.43954 0.0
C471 C 0.6066 0.57041 0.44051 0.0
C472 C 0.60712 0.56057 0.48018 0.0
H473 H 0.63779 0.59278 0.39074 0.0
H474 H 0.57989 0.56873 0.42498 0.0
S475 S 0.6926 0.56059 0.54186 0.0
N476 N 0.70933 0.57648 0.49932 0.0
N477 N 0.64603 0.55283 0.53684 0.0
C478 C 0.64231 0.56319 0.49913 0.0
C479 C 0.67662 0.57633 0.47879 0.0
C480 C 0.13702 0.37149 0.05812 0.0
C481 C 0.12919 0.35407 0.09397 0.0
C482 C 0.10998 0.39095 0.04101 0.0
C483 C 0.07429 0.3935 0.05922 0.0
H484 H 0.16461 0.37098 0.04383 0.0
H485 H 0.11767 0.40515 0.01408 0.0
S486 S 0.0384 0.34876 0.15086 0.0
N487 N 0.0822 0.33747 0.14524 0.0
N488 N 0.03134 0.37453 0.11322 0.0
C489 C 0.06544 0.37471 0.09408 0.0
C490 C 0.09298 0.35492 0.1115 0.0
C491 C 0.5401 0.14663 0.8977 0.0
C492 C 0.57047 0.16561 0.91851 0.0
C493 C 0.52241 0.11303 0.91035 0.0
C494 C 0.53401 0.09673 0.94457 0.0
H495 H 0.53017 0.15758 0.87093 0.0
H496 H 0.49932 0.09967 0.89288 0.0
S497 S 0.6116 0.13531 0.01048 0.0
N498 N 0.61101 0.16578 0.9758 0.0
N499 N 0.57775 0.10234 0.99929 0.0
C500 C 0.56421 0.11533 0.9659 0.0
C501 C 0.58245 0.14972 0.95292 0.0
C502 C 0.94402 0.84766 0.45092 0.0
C503 C 0.92569 0.84749 0.41441 0.0
C504 C 0.95948 0.88048 0.46936 0.0
C505 C 0.95795 0.91441 0.45162 0.0
H506 H 0.94605 0.8222 0.46556 0.0
H507 H 0.97331 0.87916 0.49744 0.0
S508 S 0.91314 0.92879 0.35595 0.0
N509 N 0.90664 0.88411 0.3613 0.0
N510 N 0.93633 0.94564 0.39538 0.0
C511 C 0.93985 0.91456 0.41499 0.0
C512 C 0.92352 0.88119 0.39658 0.0
C513 C 0.37491 0.63704 0.60944 0.0
C514 C 0.38243 0.67359 0.5982 0.0
C515 C 0.40064 0.61141 0.60032 0.0
C516 C 0.4349 0.62148 0.57991 0.0
H517 H 0.34927 0.62832 0.62602 0.0
H518 H 0.39366 0.58351 0.60941 0.0
S519 S 0.46651 0.713 0.54109 0.0
N520 N 0.42544 0.71797 0.5634 0.0
N521 N 0.47413 0.67003 0.54699 0.0
C522 C 0.44256 0.6578 0.56808 0.0
C523 C 0.41623 0.68379 0.57702 0.0
C524 C 0.90037 0.94156 0.69881 0.0
C525 C 0.91405 0.90996 0.71276 0.0
C526 C 0.91915 0.9609 0.66833 0.0
C527 C 0.95227 0.94933 0.65084 0.0
H528 H 0.87407 0.95058 0.71044 0.0
H529 H 0.90691 0.98448 0.65767 0.0
S530 S 1.00198 0.87062 0.6798 0.0
N531 N 0.96424 0.86952 0.70929 0.0
N532 N 0.99984 0.90611 0.65157 0.0
C533 C 0.96737 0.91882 0.66573 0.0
C534 C 0.94809 0.89897 0.69679 0.0
C535 C 0.63585 0.14173 0.1571 0.0
C536 C 0.67099 0.12869 0.16441 0.0
C537 C 0.61023 0.12335 0.13049 0.0
C538 C 0.61896 0.09145 0.11012 0.0
H539 H 0.62731 0.16532 0.17344 0.0
H540 H 0.58293 0.13365 0.12676 0.0
S541 S 0.70908 0.04855 0.11557 0.0
N542 N 0.71459 0.08381 0.14694 0.0
N543 N 0.66643 0.04922 0.09658 0.0
C544 C 0.65483 0.07922 0.11555 0.0
C545 C 0.68084 0.09783 0.14287 0.0
C546 C 0.45719 0.56809 0.33528 0.0
C547 C 0.4329 0.59581 0.34136 0.0
C548 C 0.47097 0.54973 0.36713 0.0
C549 C 0.46134 0.55847 0.40655 0.0
H550 H 0.46524 0.56016 0.30559 0.0
H551 H 0.48952 0.52864 0.36067 0.0
S552 S 0.40015 0.63066 0.43844 0.0
N553 N 0.40101 0.63209 0.3899 0.0
N554 N 0.42639 0.59794 0.44942 0.0
C555 C 0.43729 0.58652 0.41292 0.0
C556 C 0.42325 0.60503 0.38051 0.0
C557 C 0.06777 0.42937 0.87244 0.0
C558 C 0.09854 0.44583 0.85004 0.0
C559 C 0.05111 0.44853 0.9036 0.0
C560 C 0.06428 0.48507 0.91343 0.0
H561 H 0.0565 0.40139 0.86588 0.0
H562 H 0.02734 0.43475 0.9197 0.0
S563 S 0.14388 0.54089 0.86395 0.0
N564 N 0.14121 0.50107 0.83996 0.0
N565 N 0.11039 0.53674 0.89846 0.0
C566 C 0.09528 0.50168 0.89158 0.0
C567 C 0.11225 0.48219 0.85997 0.0
C568 C 0.60592 0.90211 0.9189 0.0
C569 C 0.64136 0.90243 0.9371 0.0
C570 C 0.57888 0.92442 0.93336 0.0
C571 C 0.58654 0.94793 0.96634 0.0
H572 H 0.59949 0.88533 0.89262 0.0
H573 H 0.55217 0.92384 0.91801 0.0
S574 S 0.67356 0.95545 0.02716 0.0
N575 N 0.68155 0.92549 0.99165 0.0
N576 N 0.63096 0.96788 0.01872 0.0
C577 C 0.62144 0.94753 0.98559 0.0
C578 C 0.64881 0.92464 0.97099 0.0
C579 C 0.89109 0.11866 0.48767 0.0
C580 C 0.88333 0.11261 0.44743 0.0
C581 C 0.91562 0.0977 0.50698 0.0
C582 C 0.93339 0.07006 0.48669 0.0
H583 H 0.87725 0.13901 0.50462 0.0
H584 H 0.92016 0.10283 0.53821 0.0
S585 S 0.92524 0.04592 0.38009 0.0
N586 N 0.89738 0.0789 0.38722 0.0
N587 N 0.94329 0.03934 0.42353 0.0
C588 C 0.92691 0.06463 0.44611 0.0
C589 C 0.90188 0.08592 0.42649 0.0
C590 C 0.15621 0.62078 0.06883 0.0
C591 C 0.17877 0.60151 0.09293 0.0
C592 C 0.12273 0.60369 0.05163 0.0
C593 C 0.11065 0.56648 0.05739 0.0
H594 H 0.16427 0.64946 0.06362 0.0
H595 H 0.10629 0.61986 0.03357 0.0
S596 S 0.16099 0.50345 0.11666 0.0
N597 N 0.18747 0.54302 0.12071 0.0
N598 N 0.125 0.51078 0.08861 0.0
C599 C 0.1334 0.54682 0.08111 0.0
C600 C 0.16726 0.56435 0.09882 0.0
C601 C 0.38087 0.44298 0.59724 0.0
C602 C 0.34576 0.43491 0.57831 0.0
C603 C 0.41385 0.45581 0.57607 0.0
C604 C 0.41315 0.46011 0.535 0.0
H605 H 0.38285 0.43911 0.62862 0.0
H606 H 0.44033 0.46131 0.59186 0.0
S607 S 0.32811 0.44352 0.47186 0.0
N608 N 0.31192 0.43325 0.51654 0.0
N609 N 0.37412 0.45623 0.47649 0.0
C610 C 0.37813 0.45249 0.51584 0.0
C611 C 0.34438 0.44019 0.53756 0.0
C612 C 0.8853 0.63299 0.90536 0.0
C613 C 0.8807 0.66735 0.92286 0.0
C614 C 0.91412 0.6128 0.91719 0.0
C615 C 0.93861 0.62559 0.94784 0.0
H616 H 0.86657 0.62156 0.88218 0.0
H617 H 0.91666 0.58654 0.90273 0.0
S618 S 0.93997 0.71406 1.0026 0.0
N619 N 0.90483 0.71421 0.97113 0.0
N620 N 0.95731 0.67444 0.99528 0.0
C621 C 0.93433 0.65952 0.96605 0.0
C622 C 0.90567 0.6808 0.9532 0.0
C623 C 0.44474 0.89151 0.13005 0.0
C624 C 0.43736 0.86164 0.10322 0.0
C625 C 0.46133 0.92576 0.11782 0.0
C626 C 0.47028 0.93233 0.07801 0.0
H627 H 0.43786 0.88853 0.16104 0.0
H628 H 0.46743 0.94732 0.13992 0.0
S629 S 0.45701 0.8647 0.99511 0.0
N630 N 0.4416 0.84163 0.03421 0.0
N631 N 0.4701 0.90674 0.01143 0.0
C632 C 0.46194 0.90352 0.05047 0.0
C633 C 0.44613 0.86811 0.06298 0.0
C634 C 0.10737 0.16695 0.56599 0.0
C635 C 0.09787 0.17731 0.60485 0.0
C636 C 0.09146 0.13379 0.54865 0.0
C637 C 0.06589 0.10928 0.56969 0.0
H638 H 0.12683 0.18492 0.54861 0.0
H639 H 0.09941 0.12732 0.51851 0.0
S640 S 0.03274 0.12326 0.67298 0.0
N641 N 0.06185 0.16028 0.66414 0.0
N642 N 0.03222 0.0979 0.63201 0.0
C643 C 0.0566 0.11918 0.60885 0.0
C644 C 0.07245 0.15317 0.62627 0.0
C645 C 0.65057 0.38567 0.4137 0.0
C646 C 0.6374 0.34836 0.41025 0.0
C647 C 0.62574 0.41176 0.42413 0.0
C648 C 0.58673 0.40156 0.43091 0.0
H649 H 0.68043 0.39468 0.40894 0.0
H650 H 0.63731 0.44012 0.42724 0.0
S651 S 0.53771 0.3075 0.4235 0.0
N652 N 0.58271 0.30257 0.41297 0.0
N653 N 0.5359 0.35166 0.43229 0.0
C654 C 0.57303 0.36443 0.42667 0.0
C655 C 0.59842 0.3378 0.41648 0.0
loop_
_geom_bond_atom_site_label_1
_geom_bond_atom_site_label_2
_geom_bond_distance
_geom_bond_site_symmetry_2
_ccdc_geom_bond_type
C0 C1 1.386 . S
C0 C2 1.397 . S
C0 H24 0.931 . S
C1 C0 1.386 . S
C1 C5 1.397 . S
C2 C0 1.397 . S
C2 C3 1.384 . S
C2 H25 0.930 . S
C3 C2 1.384 . S
C3 C4 1.377 . S
C3 C6 1.481 . S
C4 C3 1.377 . S
C4 C5 1.389 . S
C4 H26 0.929 . S
C5 C1 1.397 . S
C5 C4 1.389 . S
C5 H27 0.931 . S
C6 C3 1.481 . S
C6 C7 1.387 . S
C6 C11 1.390 . S
C7 C6 1.387 . S
C7 C8 1.401 . S
C7 H28 0.930 . S
C8 C7 1.401 . S
C8 C9 1.376 . S
C8 C17 1.511 . S
C9 C8 1.376 . S
C9 C10 1.392 . S
C9 H30 0.931 . S
C10 C9 1.392 . S
C10 C11 1.361 . S
C10 C12 1.500 . S
C11 C6 1.390 . S
C11 C10 1.361 . S
C11 H29 0.931 . S
C12 C10 1.500 . S
C12 C13 1.371 . S
C12 C14 1.365 . S
C13 C12 1.371 . S
C13 C23 1.386 . S
C13 H31 0.931 . S
C14 C12 1.365 . S
C14 C15 1.409 . S
C14 H32 0.929 . S
C15 C14 1.409 . S
C15 C16 1.380 . S
C15 H33 0.930 . S
C16 C15 1.380 . S
C16 C23 1.357 . S
C17 C8 1.511 . S
C17 C18 1.341 . S
C17 C19 1.371 . S
C18 C17 1.341 . S
C18 C22 1.394 . S
C18 H34 0.930 . S
C19 C17 1.371 . S
C19 C20 1.392 . S
C19 H35 0.931 . S
C20 C19 1.392 . S
C20 C21 1.331 . S
C20 H38 0.932 . S
C21 C20 1.331 . S
C21 C22 1.336 . S
C22 C18 1.394 . S
C22 C21 1.336 . S
C22 H37 0.929 . S
C23 C13 1.386 . S
C23 C16 1.357 . S
C23 H36 0.928 . S
H24 C0 0.931 . S
H25 C2 0.930 . S
H26 C4 0.929 . S
H27 C5 0.931 . S
H28 C7 0.930 . S
H29 C11 0.931 . S
H30 C9 0.931 . S
H31 C13 0.931 . S
H32 C14 0.929 . S
H33 C15 0.930 . S
H34 C18 0.930 . S
H35 C19 0.931 . S
H36 C23 0.928 . S
H37 C22 0.929 . S
H38 C20 0.932 . S
C39 C40 1.386 . S
C39 C41 1.397 . S
C39 H63 0.931 . S
C40 C39 1.386 . S
C40 C44 1.397 . S
C41 C39 1.397 . S
C41 C42 1.384 . S
C41 H64 0.930 . S
C42 C41 1.384 . S
C42 C43 1.377 . S
C42 C45 1.481 . S
C43 C42 1.377 . S
C43 C44 1.389 . S
C43 H65 0.929 . S
C44 C40 1.397 . S
C44 C43 1.389 . S
C44 H66 0.931 . S
C45 C42 1.481 . S
C45 C46 1.387 . S
C45 C50 1.390 . S
C46 C45 1.387 . S
C46 C47 1.401 . S
C46 H67 0.930 . S
C47 C46 1.401 . S
C47 C48 1.376 . S
C47 C56 1.511 . S
C48 C47 1.376 . S
C48 C49 1.392 . S
C48 H69 0.931 . S
C49 C48 1.392 . S
C49 C50 1.361 . S
C49 C51 1.500 . S
C50 C45 1.390 . S
C50 C49 1.361 . S
C50 H68 0.931 . S
C51 C49 1.500 . S
C51 C52 1.371 . S
C51 C53 1.365 . S
C52 C51 1.371 . S
C52 C62 1.386 . S
C52 H70 0.931 . S
C53 C51 1.365 . S
C53 C54 1.409 . S
C53 H71 0.929 . S
C54 C53 1.409 . S
C54 C55 1.380 . S
C54 H72 0.930 . S
C55 C54 1.380 . S
C55 C62 1.357 . S
C56 C47 1.511 . S
C56 C57 1.341 . S
C56 C58 1.371 . S
C57 C56 1.341 . S
C57 C61 1.394 . S
C57 H73 0.930 . S
C58 C56 1.371 . S
C58 C59 1.392 . S
C58 H74 0.931 . S
C59 C58 1.392 . S
C59 C60 1.331 . S
C59 H77 0.932 . S
C60 C59 1.331 . S
C60 C61 1.336 . S
C61 C57 1.394 . S
C61 C60 1.336 . S
C61 H76 0.929 . S
C62 C52 1.386 . S
C62 C55 1.357 . S
C62 H75 0.928 . S
H63 C39 0.931 . S
H64 C41 0.930 . S
H65 C43 0.929 . S
H66 C44 0.931 . S
H67 C46 0.930 . S
H68 C50 0.931 . S
H69 C48 0.931 . S
H70 C52 0.931 . S
H71 C53 0.929 . S
H72 C54 0.930 . S
H73 C57 0.930 . S
H74 C58 0.931 . S
H75 C62 0.928 . S
H76 C61 0.929 . S
H77 C59 0.932 . S
C78 C79 1.386 . S
C78 C80 1.397 . S
C78 H102 0.931 . S
C79 C78 1.386 . S
C79 C83 1.397 . S
C80 C78 1.397 . S
C80 C81 1.384 . S
C80 H103 0.930 . S
C81 C80 1.384 . S
C81 C82 1.377 . S
C81 C84 1.481 . S
C82 C81 1.377 . S
C82 C83 1.389 . S
C82 H104 0.929 . S
C83 C79 1.397 . S
C83 C82 1.389 . S
C83 H105 0.931 . S
C84 C81 1.481 . S
C84 C85 1.387 . S
C84 C89 1.390 . S
C85 C84 1.387 . S
C85 C86 1.401 . S
C85 H106 0.930 . S
C86 C85 1.401 . S
C86 C87 1.376 . S
C86 C95 1.511 . S
C87 C86 1.376 . S
C87 C88 1.392 . S
C87 H108 0.931 . S
C88 C87 1.392 . S
C88 C89 1.361 . S
C88 C90 1.500 . S
C89 C84 1.390 . S
C89 C88 1.361 . S
C89 H107 0.931 . S
C90 C88 1.500 . S
C90 C91 1.371 . S
C90 C92 1.365 . S
C91 C90 1.371 . S
C91 C101 1.386 . S
C91 H109 0.931 . S
C92 C90 1.365 . S
C92 C93 1.409 . S
C92 H110 0.929 . S
C93 C92 1.409 . S
C93 C94 1.380 . S
C93 H111 0.930 . S
C94 C93 1.380 . S
C94 C101 1.357 . S
C95 C86 1.511 . S
C95 C96 1.341 . S
C95 C97 1.371 . S
C96 C95 1.341 . S
C96 C100 1.394 . S
C96 H112 0.930 . S
C97 C95 1.371 . S
C97 C98 1.392 . S
C97 H113 0.931 . S
C98 C97 1.392 . S
C98 C99 1.331 . S
C98 H116 0.932 . S
C99 C98 1.331 . S
C99 C100 1.336 . S
C100 C96 1.394 . S
C100 C99 1.336 . S
C100 H115 0.929 . S
C101 C91 1.386 . S
C101 C94 1.357 . S
C101 H114 0.928 . S
H102 C78 0.931 . S
H103 C80 0.930 . S
H104 C82 0.929 . S
H105 C83 0.931 . S
H106 C85 0.930 . S
H107 C89 0.931 . S
H108 C87 0.931 . S
H109 C91 0.931 . S
H110 C92 0.929 . S
H111 C93 0.930 . S
H112 C96 0.930 . S
H113 C97 0.931 . S
H114 C101 0.928 . S
H115 C100 0.929 . S
H116 C98 0.932 . S
C117 C118 1.386 . S
C117 C119 1.397 . S
C117 H141 0.931 . S
C118 C117 1.386 . S
C118 C122 1.397 . S
C119 C117 1.397 . S
C119 C120 1.384 . S
C119 H142 0.930 . S
C120 C119 1.384 . S
C120 C121 1.377 . S
C120 C123 1.481 . S
C121 C120 1.377 . S
C121 C122 1.389 . S
C121 H143 0.929 . S
C122 C118 1.397 . S
C122 C121 1.389 . S
C122 H144 0.931 . S
C123 C120 1.481 . S
C123 C124 1.387 . S
C123 C128 1.390 . S
C124 C123 1.387 . S
C124 C125 1.401 . S
C124 H145 0.930 . S
C125 C124 1.401 . S
C125 C126 1.376 . S
C125 C134 1.511 . S
C126 C125 1.376 . S
C126 C127 1.392 . S
C126 H147 0.931 . S
C127 C126 1.392 . S
C127 C128 1.361 . S
C127 C129 1.500 . S
C128 C123 1.390 . S
C128 C127 1.361 . S
C128 H146 0.931 . S
C129 C127 1.500 . S
C129 C130 1.371 . S
C129 C131 1.365 . S
C130 C129 1.371 . S
C130 C140 1.386 . S
C130 H148 0.931 . S
C131 C129 1.365 . S
C131 C132 1.409 . S
C131 H149 0.929 . S
C132 C131 1.409 . S
C132 C133 1.380 . S
C132 H150 0.930 . S
C133 C132 1.380 . S
C133 C140 1.357 . S
C134 C125 1.511 . S
C134 C135 1.341 . S
C134 C136 1.371 . S
C135 C134 1.341 . S
C135 C139 1.394 . S
C135 H151 0.930 . S
C136 C134 1.371 . S
C136 C137 1.392 . S
C136 H152 0.931 . S
C137 C136 1.392 . S
C137 C138 1.331 . S
C137 H155 0.932 . S
C138 C137 1.331 . S
C138 C139 1.336 . S
C139 C135 1.394 . S
C139 C138 1.336 . S
C139 H154 0.929 . S
C140 C130 1.386 . S
C140 C133 1.357 . S
C140 H153 0.928 . S
H141 C117 0.931 . S
H142 C119 0.930 . S
H143 C121 0.929 . S
H144 C122 0.931 . S
H145 C124 0.930 . S
H146 C128 0.931 . S
H147 C126 0.931 . S
H148 C130 0.931 . S
H149 C131 0.929 . S
H150 C132 0.930 . S
H151 C135 0.930 . S
H152 C136 0.931 . S
H153 C140 0.928 . S
H154 C139 0.929 . S
H155 C137 0.932 . S
C156 C157 1.386 . S
C156 C158 1.397 . S
C156 H180 0.931 . S
C157 C156 1.386 . S
C157 C161 1.397 . S
C158 C156 1.397 . S
C158 C159 1.384 . S
C158 H181 0.930 . S
C159 C158 1.384 . S
C159 C160 1.377 . S
C159 C162 1.481 . S
C160 C159 1.377 . S
C160 C161 1.389 . S
C160 H182 0.929 . S
C161 C157 1.397 . S
C161 C160 1.389 . S
C161 H183 0.931 . S
C162 C159 1.481 . S
C162 C163 1.387 . S
C162 C167 1.390 . S
C163 C162 1.387 . S
C163 C164 1.401 . S
C163 H184 0.930 . S
C164 C163 1.401 . S
C164 C165 1.376 . S
C164 C173 1.511 . S
C165 C164 1.376 . S
C165 C166 1.392 . S
C165 H186 0.931 . S
C166 C165 1.392 . S
C166 C167 1.361 . S
C166 C168 1.500 . S
C167 C162 1.390 . S
C167 C166 1.361 . S
C167 H185 0.931 . S
C168 C166 1.500 . S
C168 C169 1.371 . S
C168 C170 1.365 . S
C169 C168 1.371 . S
C169 C179 1.386 . S
C169 H187 0.931 . S
C170 C168 1.365 . S
C170 C171 1.409 . S
C170 H188 0.929 . S
C171 C170 1.409 . S
C171 C172 1.380 . S
C171 H189 0.930 . S
C172 C171 1.380 . S
C172 C179 1.357 . S
C173 C164 1.511 . S
C173 C174 1.341 . S
C173 C175 1.371 . S
C174 C173 1.341 . S
C174 C178 1.394 . S
C174 H190 0.930 . S
C175 C173 1.371 . S
C175 C176 1.392 . S
C175 H191 0.931 . S
C176 C175 1.392 . S
C176 C177 1.331 . S
C176 H194 0.932 . S
C177 C176 1.331 . S
C177 C178 1.336 . S
C178 C174 1.394 . S
C178 C177 1.336 . S
C178 H193 0.929 . S
C179 C169 1.386 . S
C179 C172 1.357 . S
C179 H192 0.928 . S
H180 C156 0.931 . S
H181 C158 0.930 . S
H182 C160 0.929 . S
H183 C161 0.931 . S
H184 C163 0.930 . S
H185 C167 0.931 . S
H186 C165 0.931 . S
H187 C169 0.931 . S
H188 C170 0.929 . S
H189 C171 0.930 . S
H190 C174 0.930 . S
H191 C175 0.931 . S
H192 C179 0.928 . S
H193 C178 0.929 . S
H194 C176 0.932 . S
C195 C196 1.386 . S
C195 C197 1.397 . S
C195 H219 0.931 . S
C196 C195 1.386 . S
C196 C200 1.397 . S
C197 C195 1.397 . S
C197 C198 1.384 . S
C197 H220 0.930 . S
C198 C197 1.384 . S
C198 C199 1.377 . S
C198 C201 1.481 . S
C199 C198 1.377 . S
C199 C200 1.389 . S
C199 H221 0.929 . S
C200 C196 1.397 . S
C200 C199 1.389 . S
C200 H222 0.931 . S
C201 C198 1.481 . S
C201 C202 1.387 . S
C201 C206 1.390 . S
C202 C201 1.387 . S
C202 C203 1.401 . S
C202 H223 0.930 . S
C203 C202 1.401 . S
C203 C204 1.376 . S
C203 C212 1.511 . S
C204 C203 1.376 . S
C204 C205 1.392 . S
C204 H225 0.931 . S
C205 C204 1.392 . S
C205 C206 1.361 . S
C205 C207 1.500 . S
C206 C201 1.390 . S
C206 C205 1.361 . S
C206 H224 0.931 . S
C207 C205 1.500 . S
C207 C208 1.371 . S
C207 C209 1.365 . S
C208 C207 1.371 . S
C208 C218 1.386 . S
C208 H226 0.931 . S
C209 C207 1.365 . S
C209 C210 1.409 . S
C209 H227 0.929 . S
C210 C209 1.409 . S
C210 C211 1.380 . S
C210 H228 0.930 . S
C211 C210 1.380 . S
C211 C218 1.357 . S
C212 C203 1.511 . S
C212 C213 1.341 . S
C212 C214 1.371 . S
C213 C212 1.341 . S
C213 C217 1.394 . S
C213 H229 0.930 . S
C214 C212 1.371 . S
C214 C215 1.392 . S
C214 H230 0.931 . S
C215 C214 1.392 . S
C215 C216 1.331 . S
C215 H233 0.932 . S
C216 C215 1.331 . S
C216 C217 1.336 . S
C217 C213 1.394 . S
C217 C216 1.336 . S
C217 H232 0.929 . S
C218 C208 1.386 . S
C218 C211 1.357 . S
C218 H231 0.928 . S
H219 C195 0.931 . S
H220 C197 0.930 . S
H221 C199 0.929 . S
H222 C200 0.931 . S
H223 C202 0.930 . S
H224 C206 0.931 . S
H225 C204 0.931 . S
H226 C208 0.931 . S
H227 C209 0.929 . S
H228 C210 0.930 . S
H229 C213 0.930 . S
H230 C214 0.931 . S
H231 C218 0.928 . S
H232 C217 0.929 . S
H233 C215 0.932 . S
C234 C235 1.386 . S
C234 C236 1.397 . S
C234 H258 0.931 . S
C235 C234 1.386 . S
C235 C239 1.397 . S
C236 C234 1.397 . S
C236 C237 1.384 . S
C236 H259 0.930 . S
C237 C236 1.384 . S
C237 C238 1.377 . S
C237 C240 1.481 . S
C238 C237 1.377 . S
C238 C239 1.389 . S
C238 H260 0.929 . S
C239 C235 1.397 . S
C239 C238 1.389 . S
C239 H261 0.931 . S
C240 C237 1.481 . S
C240 C241 1.387 . S
C240 C245 1.390 . S
C241 C240 1.387 . S
C241 C242 1.401 . S
C241 H262 0.930 . S
C242 C241 1.401 . S
C242 C243 1.376 . S
C242 C251 1.511 . S
C243 C242 1.376 . S
C243 C244 1.392 . S
C243 H264 0.931 . S
C244 C243 1.392 . S
C244 C245 1.361 . S
C244 C246 1.500 . S
C245 C240 1.390 . S
C245 C244 1.361 . S
C245 H263 0.931 . S
C246 C244 1.500 . S
C246 C247 1.371 . S
C246 C248 1.365 . S
C247 C246 1.371 . S
C247 C257 1.386 . S
C247 H265 0.931 . S
C248 C246 1.365 . S
C248 C249 1.409 . S
C248 H266 0.929 . S
C249 C248 1.409 . S
C249 C250 1.380 . S
C249 H267 0.930 . S
C250 C249 1.380 . S
C250 C257 1.357 . S
C251 C242 1.511 . S
C251 C252 1.341 . S
C251 C253 1.371 . S
C252 C251 1.341 . S
C252 C256 1.394 . S
C252 H268 0.930 . S
C253 C251 1.371 . S
C253 C254 1.392 . S
C253 H269 0.931 . S
C254 C253 1.392 . S
C254 C255 1.331 . S
C254 H272 0.932 . S
C255 C254 1.331 . S
C255 C256 1.336 . S
C256 C252 1.394 . S
C256 C255 1.336 . S
C256 H271 0.929 . S
C257 C247 1.386 . S
C257 C250 1.357 . S
C257 H270 0.928 . S
H258 C234 0.931 . S
H259 C236 0.930 . S
H260 C238 0.929 . S
H261 C239 0.931 . S
H262 C241 0.930 . S
H263 C245 0.931 . S
H264 C243 0.931 . S
H265 C247 0.931 . S
H266 C248 0.929 . S
H267 C249 0.930 . S
H268 C252 0.930 . S
H269 C253 0.931 . S
H270 C257 0.928 . S
H271 C256 0.929 . S
H272 C254 0.932 . S
C273 C274 1.386 . S
C273 C275 1.397 . S
C273 H297 0.931 . S
C274 C273 1.386 . S
C274 C278 1.397 . S
C275 C273 1.397 . S
C275 C276 1.384 . S
C275 H298 0.930 . S
C276 C275 1.384 . S
C276 C277 1.377 . S
C276 C279 1.481 . S
C277 C276 1.377 . S
C277 C278 1.389 . S
C277 H299 0.929 . S
C278 C274 1.397 . S
C278 C277 1.389 . S
C278 H300 0.931 . S
C279 C276 1.481 . S
C279 C280 1.387 . S
C279 C284 1.390 . S
C280 C279 1.387 . S
C280 C281 1.401 . S
C280 H301 0.930 . S
C281 C280 1.401 . S
C281 C282 1.376 . S
C281 C290 1.511 . S
C282 C281 1.376 . S
C282 C283 1.392 . S
C282 H303 0.931 . S
C283 C282 1.392 . S
C283 C284 1.361 . S
C283 C285 1.500 . S
C284 C279 1.390 . S
C284 C283 1.361 . S
C284 H302 0.931 . S
C285 C283 1.500 . S
C285 C286 1.371 . S
C285 C287 1.365 . S
C286 C285 1.371 . S
C286 C296 1.386 . S
C286 H304 0.931 . S
C287 C285 1.365 . S
C287 C288 1.409 . S
C287 H305 0.929 . S
C288 C287 1.409 . S
C288 C289 1.380 . S
C288 H306 0.930 . S
C289 C288 1.380 . S
C289 C296 1.357 . S
C290 C281 1.511 . S
C290 C291 1.341 . S
C290 C292 1.371 . S
C291 C290 1.341 . S
C291 C295 1.394 . S
C291 H307 0.930 . S
C292 C290 1.371 . S
C292 C293 1.392 . S
C292 H308 0.931 . S
C293 C292 1.392 . S
C293 C294 1.331 . S
C293 H311 0.932 . S
C294 C293 1.331 . S
C294 C295 1.336 . S
C295 C291 1.394 . S
C295 C294 1.336 . S
C295 H310 0.929 . S
C296 C286 1.386 . S
C296 C289 1.357 . S
C296 H309 0.928 . S
H297 C273 0.931 . S
H298 C275 0.930 . S
H299 C277 0.929 . S
H300 C278 0.931 . S
H301 C280 0.930 . S
H302 C284 0.931 . S
H303 C282 0.931 . S
H304 C286 0.931 . S
H305 C287 0.929 . S
H306 C288 0.930 . S
H307 C291 0.930 . S
H308 C292 0.931 . S
H309 C296 0.928 . S
H310 C295 0.929 . S
H311 C293 0.932 . S
Dy312 O316 2.398 . S
Dy312 O317 2.491 . S
Dy312 O318 2.403 1_545 S
Dy312 O319 2.664 1_545 S
Dy312 O323 2.326 . S
Dy312 O327 2.310 1_455 S
Dy312 O328 2.351 1_445 S
C313 O324 1.185 . S
C313 O325 1.355 . S
C314 O316 1.185 . S
C314 O317 1.355 . S
Dy315 O319 2.310 1_655 S
Dy315 O322 2.351 1_665 S
Dy315 O324 2.398 . S
Dy315 O325 2.491 . S
Dy315 O326 2.403 1_565 S
Dy315 O327 2.664 1_565 S
Dy315 O329 2.326 . S
O316 Dy312 2.398 . S
O316 C314 1.185 . S
O317 Dy312 2.491 . S
O317 C314 1.355 . S
O318 Dy312 2.403 1_565 S
O318 C320 1.254 . S
O319 Dy312 2.664 1_565 S
O319 Dy315 2.310 1_455 S
O319 C320 1.268 . S
C320 O318 1.254 . S
C320 O319 1.268 . S
C321 O326 1.254 . S
C321 O327 1.268 . S
O322 Dy315 2.351 1_445 S
O322 C330 1.249 . S
O323 Dy312 2.326 . S
O323 C330 1.267 . S
O324 C313 1.185 . S
O324 Dy315 2.398 . S
O325 C313 1.355 . S
O325 Dy315 2.491 . S
O326 Dy315 2.403 1_545 S
O326 C321 1.254 . S
O327 Dy312 2.310 1_655 S
O327 Dy315 2.664 1_545 S
O327 C321 1.268 . S
O328 Dy312 2.351 1_665 S
O328 C331 1.249 . S
O329 Dy315 2.326 . S
O329 C331 1.267 . S
C330 O322 1.249 . S
C330 O323 1.267 . S
C331 O328 1.249 . S
C331 O329 1.267 . S
Dy332 O336 2.398 . S
Dy332 O337 2.491 . S
Dy332 O338 2.403 1_545 S
Dy332 O339 2.664 1_545 S
Dy332 O343 2.326 . S
Dy332 O347 2.310 1_554 S
Dy332 O348 2.351 1_544 S
C333 O344 1.185 . S
C333 O345 1.355 . S
C334 O336 1.185 . S
C334 O337 1.355 . S
Dy335 O339 2.310 1_546 S
Dy335 O342 2.351 1_556 S
Dy335 O344 2.398 1_545 S
Dy335 O345 2.491 1_545 S
Dy335 O346 2.403 . S
Dy335 O347 2.664 . S
Dy335 O349 2.326 1_545 S
O336 Dy332 2.398 . S
O336 C334 1.185 . S
O337 Dy332 2.491 . S
O337 C334 1.355 . S
O338 Dy332 2.403 1_565 S
O338 C340 1.254 . S
O339 Dy332 2.664 1_565 S
O339 Dy335 2.310 1_564 S
O339 C340 1.268 . S
C340 O338 1.254 . S
C340 O339 1.268 . S
C341 O346 1.254 . S
C341 O347 1.268 . S
O342 Dy335 2.351 1_554 S
O342 C350 1.249 . S
O343 Dy332 2.326 . S
O343 C350 1.267 . S
O344 C333 1.185 . S
O344 Dy335 2.398 1_565 S
O345 C333 1.355 . S
O345 Dy335 2.491 1_565 S
O346 Dy335 2.403 . S
O346 C341 1.254 . S
O347 Dy332 2.310 1_556 S
O347 Dy335 2.664 . S
O347 C341 1.268 . S
O348 Dy332 2.351 1_566 S
O348 C351 1.249 . S
O349 Dy335 2.326 1_565 S
O349 C351 1.267 . S
C350 O342 1.249 . S
C350 O343 1.267 . S
C351 O348 1.249 . S
C351 O349 1.267 . S
Dy352 O356 2.398 . S
Dy352 O357 2.491 . S
Dy352 O358 2.403 . S
Dy352 O359 2.664 . S
Dy352 O363 2.326 . S
Dy352 O367 2.310 . S
Dy352 O368 2.351 . S
C353 O364 1.185 . S
C353 O365 1.355 . S
C354 O356 1.185 . S
C354 O357 1.355 . S
Dy355 O359 2.310 . S
Dy355 O362 2.351 . S
Dy355 O364 2.398 . S
Dy355 O365 2.491 . S
Dy355 O366 2.403 . S
Dy355 O367 2.664 . S
Dy355 O369 2.326 . S
O356 Dy352 2.398 . S
O356 C354 1.185 . S
O357 Dy352 2.491 . S
O357 C354 1.355 . S
O358 Dy352 2.403 . S
O358 C360 1.254 . S
O359 Dy352 2.664 . S
O359 Dy355 2.310 . S
O359 C360 1.268 . S
C360 O358 1.254 . S
C360 O359 1.268 . S
C361 O366 1.254 . S
C361 O367 1.268 . S
O362 Dy355 2.351 . S
O362 C370 1.249 . S
O363 Dy352 2.326 . S
O363 C370 1.267 . S
O364 C353 1.185 . S
O364 Dy355 2.398 . S
O365 C353 1.355 . S
O365 Dy355 2.491 . S
O366 Dy355 2.403 . S
O366 C361 1.254 . S
O367 Dy352 2.310 . S
O367 Dy355 2.664 . S
O367 C361 1.268 . S
O368 Dy352 2.351 . S
O368 C371 1.249 . S
O369 Dy355 2.326 . S
O369 C371 1.267 . S
C370 O362 1.249 . S
C370 O363 1.267 . S
C371 O368 1.249 . S
C371 O369 1.267 . S
Dy372 O376 2.398 . S
Dy372 O377 2.491 . S
Dy372 O378 2.403 1_455 S
Dy372 O379 2.664 1_455 S
Dy372 O383 2.326 . S
Dy372 O387 2.310 1_554 S
Dy372 O388 2.351 1_454 S
C373 O384 1.185 . S
C373 O385 1.355 . S
C374 O376 1.185 . S
C374 O377 1.355 . S
Dy375 O379 2.310 1_556 S
Dy375 O382 2.351 1_656 S
Dy375 O384 2.398 . S
Dy375 O385 2.491 . S
Dy375 O386 2.403 1_655 S
Dy375 O387 2.664 1_655 S
Dy375 O389 2.326 . S
O376 Dy372 2.398 . S
O376 C374 1.185 . S
O377 Dy372 2.491 . S
O377 C374 1.355 . S
O378 Dy372 2.403 1_655 S
O378 C380 1.254 . S
O379 Dy372 2.664 1_655 S
O379 Dy375 2.310 1_554 S
O379 C380 1.268 . S
C380 O378 1.254 . S
C380 O379 1.268 . S
C381 O386 1.254 . S
C381 O387 1.268 . S
O382 Dy375 2.351 1_454 S
O382 C390 1.249 . S
O383 Dy372 2.326 . S
O383 C390 1.267 . S
O384 C373 1.185 . S
O384 Dy375 2.398 . S
O385 C373 1.355 . S
O385 Dy375 2.491 . S
O386 Dy375 2.403 1_455 S
O386 C381 1.254 . S
O387 Dy372 2.310 1_556 S
O387 Dy375 2.664 1_455 S
O387 C381 1.268 . S
O388 Dy372 2.351 1_656 S
O388 C391 1.249 . S
O389 Dy375 2.326 . S
O389 C391 1.267 . S
C390 O382 1.249 . S
C390 O383 1.267 . S
C391 O388 1.249 . S
C391 O389 1.267 . S
C392 C393 1.369 . S
C392 C394 1.419 . S
C392 H396 0.930 . S
C393 C392 1.369 . S
C393 C402 1.429 . S
C394 C392 1.419 . S
C394 C395 1.363 . S
C394 H397 0.929 . S
C395 C394 1.363 . S
C395 C401 1.428 . S
H396 C392 0.930 . S
H397 C394 0.929 . S
S398 N399 1.613 . S
S398 N400 1.610 . S
N399 S398 1.613 . S
N399 C402 1.350 . S
N400 S398 1.610 . S
N400 C401 1.351 . S
C401 C395 1.428 . S
C401 N400 1.351 . S
C401 C402 1.434 . S
C402 C393 1.429 . S
C402 N399 1.350 . S
C402 C401 1.434 . S
C403 C404 1.369 . S
C403 C405 1.419 . S
C403 H407 0.930 . S
C404 C403 1.369 . S
C404 C413 1.429 . S
C405 C403 1.419 . S
C405 C406 1.363 . S
C405 H408 0.929 . S
C406 C405 1.363 . S
C406 C412 1.428 . S
H407 C403 0.930 . S
H408 C405 0.929 . S
S409 N410 1.613 . S
S409 N411 1.610 . S
N410 S409 1.613 . S
N410 C413 1.350 . S
N411 S409 1.610 . S
N411 C412 1.351 . S
C412 C406 1.428 . S
C412 N411 1.351 . S
C412 C413 1.434 . S
C413 C404 1.429 . S
C413 N410 1.350 . S
C413 C412 1.434 . S
C414 C415 1.369 . S
C414 C416 1.419 . S
C414 H418 0.930 . S
C415 C414 1.369 . S
C415 C424 1.429 . S
C416 C414 1.419 . S
C416 C417 1.363 . S
C416 H419 0.929 . S
C417 C416 1.363 . S
C417 C423 1.428 . S
H418 C414 0.930 . S
H419 C416 0.929 . S
S420 N421 1.613 . S
S420 N422 1.610 . S
N421 S420 1.613 . S
N421 C424 1.350 . S
N422 S420 1.610 . S
N422 C423 1.351 . S
C423 C417 1.428 . S
C423 N422 1.351 . S
C423 C424 1.434 . S
C424 C415 1.429 . S
C424 N421 1.350 . S
C424 C423 1.434 . S
C425 C426 1.369 . S
C425 C427 1.419 . S
C425 H429 0.930 . S
C426 C425 1.369 . S
C426 C435 1.429 . S
C427 C425 1.419 . S
C427 C428 1.363 . S
C427 H430 0.929 . S
C428 C427 1.363 . S
C428 C434 1.428 . S
H429 C425 0.930 . S
H430 C427 0.929 . S
S431 N432 1.613 . S
S431 N433 1.610 . S
N432 S431 1.613 . S
N432 C435 1.350 . S
N433 S431 1.610 . S
N433 C434 1.351 . S
C434 C428 1.428 . S
C434 N433 1.351 . S
C434 C435 1.434 . S
C435 C426 1.429 . S
C435 N432 1.350 . S
C435 C434 1.434 . S
C436 C437 1.369 . S
C436 C438 1.419 . S
C436 H440 0.930 . S
C437 C436 1.369 . S
C437 C446 1.429 . S
C438 C436 1.419 . S
C438 C439 1.363 . S
C438 H441 0.929 . S
C439 C438 1.363 . S
C439 C445 1.428 . S
H440 C436 0.930 . S
H441 C438 0.929 . S
S442 N443 1.613 . S
S442 N444 1.610 . S
N443 S442 1.613 . S
N443 C446 1.350 . S
N444 S442 1.610 . S
N444 C445 1.351 . S
C445 C439 1.428 . S
C445 N444 1.351 . S
C445 C446 1.434 . S
C446 C437 1.429 . S
C446 N443 1.350 . S
C446 C445 1.434 . S
C447 C448 1.369 . S
C447 C449 1.419 . S
C447 H451 0.930 . S
C448 C447 1.369 . S
C448 C457 1.429 . S
C449 C447 1.419 . S
C449 C450 1.363 . S
C449 H452 0.929 . S
C450 C449 1.363 . S
C450 C456 1.428 . S
H451 C447 0.930 . S
H452 C449 0.929 . S
S453 N454 1.613 1_545 S
S453 N455 1.610 . S
N454 S453 1.613 1_565 S
N454 C457 1.350 . S
N455 S453 1.610 . S
N455 C456 1.351 1_545 S
C456 C450 1.428 . S
C456 N455 1.351 1_565 S
C456 C457 1.434 . S
C457 C448 1.429 . S
C457 N454 1.350 . S
C457 C456 1.434 . S
C458 C459 1.369 . S
C458 C460 1.419 . S
C458 H462 0.930 . S
C459 C458 1.369 . S
C459 C468 1.429 . S
C460 C458 1.419 . S
C460 C461 1.363 . S
C460 H463 0.929 . S
C461 C460 1.363 . S
C461 C467 1.428 . S
H462 C458 0.930 . S
H463 C460 0.929 . S
S464 N465 1.613 . S
S464 N466 1.610 . S
N465 S464 1.613 . S
N465 C468 1.350 . S
N466 S464 1.610 . S
N466 C467 1.351 . S
C467 C461 1.428 . S
C467 N466 1.351 . S
C467 C468 1.434 . S
C468 C459 1.429 . S
C468 N465 1.350 . S
C468 C467 1.434 . S
C469 C470 1.369 . S
C469 C471 1.419 . S
C469 H473 0.930 . S
C470 C469 1.369 . S
C470 C479 1.429 . S
C471 C469 1.419 . S
C471 C472 1.363 . S
C471 H474 0.929 . S
C472 C471 1.363 . S
C472 C478 1.428 . S
H473 C469 0.930 . S
H474 C471 0.929 . S
S475 N476 1.613 . S
S475 N477 1.610 . S
N476 S475 1.613 . S
N476 C479 1.350 . S
N477 S475 1.610 . S
N477 C478 1.351 . S
C478 C472 1.428 . S
C478 N477 1.351 . S
C478 C479 1.434 . S
C479 C470 1.429 . S
C479 N476 1.350 . S
C479 C478 1.434 . S
C480 C481 1.369 . S
C480 C482 1.419 . S
C480 H484 0.930 . S
C481 C480 1.369 . S
C481 C490 1.429 . S
C482 C480 1.419 . S
C482 C483 1.363 . S
C482 H485 0.929 . S
C483 C482 1.363 . S
C483 C489 1.428 . S
H484 C480 0.930 . S
H485 C482 0.929 . S
S486 N487 1.613 . S
S486 N488 1.610 . S
N487 S486 1.613 . S
N487 C490 1.350 . S
N488 S486 1.610 . S
N488 C489 1.351 . S
C489 C483 1.428 . S
C489 N488 1.351 . S
C489 C490 1.434 . S
C490 C481 1.429 . S
C490 N487 1.350 . S
C490 C489 1.434 . S
C491 C492 1.369 . S
C491 C493 1.419 . S
C491 H495 0.930 . S
C492 C491 1.369 . S
C492 C501 1.429 . S
C493 C491 1.419 . S
C493 C494 1.363 . S
C493 H496 0.929 . S
C494 C493 1.363 . S
C494 C500 1.428 . S
H495 C491 0.930 . S
H496 C493 0.929 . S
S497 N498 1.613 . S
S497 N499 1.610 . S
N498 S497 1.613 . S
N498 C501 1.350 . S
N499 S497 1.610 . S
N499 C500 1.351 . S
C500 C494 1.428 . S
C500 N499 1.351 . S
C500 C501 1.434 . S
C501 C492 1.429 . S
C501 N498 1.350 . S
C501 C500 1.434 . S
C502 C503 1.369 . S
C502 C504 1.419 . S
C502 H506 0.930 . S
C503 C502 1.369 . S
C503 C512 1.429 . S
C504 C502 1.419 . S
C504 C505 1.363 . S
C504 H507 0.929 . S
C505 C504 1.363 . S
C505 C511 1.428 . S
H506 C502 0.930 . S
H507 C504 0.929 . S
S508 N509 1.613 . S
S508 N510 1.610 . S
N509 S508 1.613 . S
N509 C512 1.350 . S
N510 S508 1.610 . S
N510 C511 1.351 . S
C511 C505 1.428 . S
C511 N510 1.351 . S
C511 C512 1.434 . S
C512 C503 1.429 . S
C512 N509 1.350 . S
C512 C511 1.434 . S
C513 C514 1.369 . S
C513 C515 1.419 . S
C513 H517 0.930 . S
C514 C513 1.369 . S
C514 C523 1.429 . S
C515 C513 1.419 . S
C515 C516 1.363 . S
C515 H518 0.929 . S
C516 C515 1.363 . S
C516 C522 1.428 . S
H517 C513 0.930 . S
H518 C515 0.929 . S
S519 N520 1.613 . S
S519 N521 1.610 . S
N520 S519 1.613 . S
N520 C523 1.350 . S
N521 S519 1.610 . S
N521 C522 1.351 . S
C522 C516 1.428 . S
C522 N521 1.351 . S
C522 C523 1.434 . S
C523 C514 1.429 . S
C523 N520 1.350 . S
C523 C522 1.434 . S
C524 C525 1.369 . S
C524 C526 1.419 . S
C524 H528 0.930 . S
C525 C524 1.369 . S
C525 C534 1.429 . S
C526 C524 1.419 . S
C526 C527 1.363 . S
C526 H529 0.929 . S
C527 C526 1.363 . S
C527 C533 1.428 . S
H528 C524 0.930 . S
H529 C526 0.929 . S
S530 N531 1.613 . S
S530 N532 1.610 . S
N531 S530 1.613 . S
N531 C534 1.350 . S
N532 S530 1.610 . S
N532 C533 1.351 . S
C533 C527 1.428 . S
C533 N532 1.351 . S
C533 C534 1.434 . S
C534 C525 1.429 . S
C534 N531 1.350 . S
C534 C533 1.434 . S
C535 C536 1.369 . S
C535 C537 1.419 . S
C535 H539 0.930 . S
C536 C535 1.369 . S
C536 C545 1.429 . S
C537 C535 1.419 . S
C537 C538 1.363 . S
C537 H540 0.929 . S
C538 C537 1.363 . S
C538 C544 1.428 . S
H539 C535 0.930 . S
H540 C537 0.929 . S
S541 N542 1.613 1_565 S
S541 N543 1.610 1_565 S
N542 S541 1.613 1_545 S
N542 C545 1.350 . S
N543 S541 1.610 1_545 S
N543 C544 1.351 . S
C544 C538 1.428 . S
C544 N543 1.351 . S
C544 C545 1.434 . S
C545 C536 1.429 . S
C545 N542 1.350 . S
C545 C544 1.434 . S
C546 C547 1.369 . S
C546 C548 1.419 . S
C546 H550 0.930 . S
C547 C546 1.369 . S
C547 C556 1.429 . S
C548 C546 1.419 . S
C548 C549 1.363 . S
C548 H551 0.929 . S
C549 C548 1.363 . S
C549 C555 1.428 . S
H550 C546 0.930 . S
H551 C548 0.929 . S
S552 N553 1.613 . S
S552 N554 1.610 . S
N553 S552 1.613 . S
N553 C556 1.350 . S
N554 S552 1.610 . S
N554 C555 1.351 . S
C555 C549 1.428 . S
C555 N554 1.351 . S
C555 C556 1.434 . S
C556 C547 1.429 . S
C556 N553 1.350 . S
C556 C555 1.434 . S
C557 C558 1.369 . S
C557 C559 1.419 . S
C557 H561 0.930 . S
C558 C557 1.369 . S
C558 C567 1.429 . S
C559 C557 1.419 . S
C559 C560 1.363 . S
C559 H562 0.929 . S
C560 C559 1.363 . S
C560 C566 1.428 . S
H561 C557 0.930 . S
H562 C559 0.929 . S
S563 N564 1.613 . S
S563 N565 1.610 . S
N564 S563 1.613 . S
N564 C567 1.350 . S
N565 S563 1.610 . S
N565 C566 1.351 . S
C566 C560 1.428 . S
C566 N565 1.351 . S
C566 C567 1.434 . S
C567 C558 1.429 . S
C567 N564 1.350 . S
C567 C566 1.434 . S
C568 C569 1.369 . S
C568 C570 1.419 . S
C568 H572 0.930 . S
C569 C568 1.369 . S
C569 C578 1.429 . S
C570 C568 1.419 . S
C570 C571 1.363 . S
C570 H573 0.929 . S
C571 C570 1.363 . S
C571 C577 1.428 . S
H572 C568 0.930 . S
H573 C570 0.929 . S
S574 N575 1.613 . S
S574 N576 1.610 . S
N575 S574 1.613 . S
N575 C578 1.350 . S
N576 S574 1.610 . S
N576 C577 1.351 . S
C577 C571 1.428 . S
C577 N576 1.351 . S
C577 C578 1.434 . S
C578 C569 1.429 . S
C578 N575 1.350 . S
C578 C577 1.434 . S
C579 C580 1.369 . S
C579 C581 1.419 . S
C579 H583 0.930 . S
C580 C579 1.369 . S
C580 C589 1.429 . S
C581 C579 1.419 . S
C581 C582 1.363 . S
C581 H584 0.929 . S
C582 C581 1.363 . S
C582 C588 1.428 . S
H583 C579 0.930 . S
H584 C581 0.929 . S
S585 N586 1.613 . S
S585 N587 1.610 . S
N586 S585 1.613 . S
N586 C589 1.350 . S
N587 S585 1.610 . S
N587 C588 1.351 . S
C588 C582 1.428 . S
C588 N587 1.351 . S
C588 C589 1.434 . S
C589 C580 1.429 . S
C589 N586 1.350 . S
C589 C588 1.434 . S
C590 C591 1.369 . S
C590 C592 1.419 . S
C590 H594 0.930 . S
C591 C590 1.369 . S
C591 C600 1.429 . S
C592 C590 1.419 . S
C592 C593 1.363 . S
C592 H595 0.929 1_554 S
C593 C592 1.363 . S
C593 C599 1.428 . S
H594 C590 0.930 . S
H595 C592 0.929 1_556 S
S596 N597 1.613 . S
S596 N598 1.610 . S
N597 S596 1.613 . S
N597 C600 1.350 . S
N598 S596 1.610 . S
N598 C599 1.351 . S
C599 C593 1.428 . S
C599 N598 1.351 . S
C599 C600 1.434 . S
C600 C591 1.429 . S
C600 N597 1.350 . S
C600 C599 1.434 . S
C601 C602 1.369 . S
C601 C603 1.419 . S
C601 H605 0.930 . S
C602 C601 1.369 . S
C602 C611 1.429 . S
C603 C601 1.419 . S
C603 C604 1.363 . S
C603 H606 0.929 . S
C604 C603 1.363 . S
C604 C610 1.428 . S
H605 C601 0.930 . S
H606 C603 0.929 . S
S607 N608 1.613 . S
S607 N609 1.610 . S
N608 S607 1.613 . S
N608 C611 1.350 . S
N609 S607 1.610 . S
N609 C610 1.351 . S
C610 C604 1.428 . S
C610 N609 1.351 . S
C610 C611 1.434 . S
C611 C602 1.429 . S
C611 N608 1.350 . S
C611 C610 1.434 . S
C612 C613 1.369 . S
C612 C614 1.419 . S
C612 H616 0.930 . S
C613 C612 1.369 . S
C613 C622 1.429 . S
C614 C612 1.419 . S
C614 C615 1.363 . S
C614 H617 0.929 . S
C615 C614 1.363 . S
C615 C621 1.428 . S
H616 C612 0.930 . S
H617 C614 0.929 . S
S618 N619 1.613 . S
S618 N620 1.610 . S
N619 S618 1.613 . S
N619 C622 1.350 . S
N620 S618 1.610 . S
N620 C621 1.351 . S
C621 C615 1.428 . S
C621 N620 1.351 . S
C621 C622 1.434 . S
C622 C613 1.429 . S
C622 N619 1.350 . S
C622 C621 1.434 . S
C623 C624 1.369 . S
C623 C625 1.419 . S
C623 H627 0.930 . S
C624 C623 1.369 . S
C624 C633 1.429 . S
C625 C623 1.419 . S
C625 C626 1.363 . S
C625 H628 0.929 . S
C626 C625 1.363 . S
C626 C632 1.428 . S
H627 C623 0.930 . S
H628 C625 0.929 . S
S629 N630 1.613 1_556 S
S629 N631 1.610 . S
N630 S629 1.613 1_554 S
N630 C633 1.350 . S
N631 S629 1.610 . S
N631 C632 1.351 1_556 S
C632 C626 1.428 . S
C632 N631 1.351 1_554 S
C632 C633 1.434 . S
C633 C624 1.429 . S
C633 N630 1.350 . S
C633 C632 1.434 . S
C634 C635 1.369 . S
C634 C636 1.419 . S
C634 H638 0.930 . S
C635 C634 1.369 . S
C635 C644 1.429 . S
C636 C634 1.419 . S
C636 C637 1.363 . S
C636 H639 0.929 . S
C637 C636 1.363 . S
C637 C643 1.428 . S
H638 C634 0.930 . S
H639 C636 0.929 . S
S640 N641 1.613 1_655 S
S640 N642 1.610 . S
N641 S640 1.613 1_455 S
N641 C644 1.350 . S
N642 S640 1.610 . S
N642 C643 1.351 1_655 S
C643 C637 1.428 . S
C643 N642 1.351 1_455 S
C643 C644 1.434 . S
C644 C635 1.429 . S
C644 N641 1.350 . S
C644 C643 1.434 . S
C645 C646 1.369 . S
C645 C647 1.419 . S
C645 H649 0.930 . S
C646 C645 1.369 . S
C646 C655 1.429 . S
C647 C645 1.419 . S
C647 C648 1.363 . S
C647 H650 0.929 . S
C648 C647 1.363 . S
C648 C654 1.428 . S
H649 C645 0.930 . S
H650 C647 0.929 . S
S651 N652 1.613 . S
S651 N653 1.610 . S
N652 S651 1.613 . S
N652 C655 1.350 . S
N653 S651 1.610 . S
N653 C654 1.351 . S
C654 C648 1.428 . S
C654 N653 1.351 . S
C654 C655 1.434 . S
C655 C646 1.429 . S
C655 N652 1.350 . S
C655 C654 1.434 . S
C393 C1 1.552 . S
C395 C314 1.611 . S
C404 C40 1.358 . S
C406 C333 1.321 . S
C417 C370 1.757 . S
C415 C99 1.794 . S
C426 C118 1.745 . S
C428 C380 1.684 . S
C439 C350 2.032 . S
C437 C16 1.941 . S
C450 C320 1.395 . S
C448 C60 1.477 . S
C461 C391 1.536 . S
C459 C79 1.566 . S
C472 C361 1.445 . S
C470 C138 1.460 . S
C481 C21 1.714 . S
C483 C374 1.792 . S
C494 C341 1.714 . S
C492 C94 1.775 . S
C503 C133 1.738 . S
C505 C331 1.742 . S
C514 C55 1.274 . S
C516 C353 1.289 . S
C527 C313 1.616 . S
C525 C157 1.555 . S
C536 C196 1.362 . S
C538 C334 1.320 . S
C547 C255 1.790 . S
C549 C371 1.754 . S
C558 C289 1.742 . S
C560 C381 1.683 . S
C569 C172 1.938 . S
C571 C351 2.029 . S
C582 C321 1.399 . S
C580 C216 1.485 . S
C593 C390 1.535 . S
C591 C235 1.567 . S
C604 C360 1.446 . S
C602 C294 1.461 . S
C613 C177 1.727 . S
C615 C373 1.792 . S
C626 C340 1.716 . S
C624 C250 1.777 . S
C637 C330 1.746 . S
C635 C274 1.740 . S
C646 C211 1.266 . S
C648 C354 1.286 . S
