# Generated by pormake.
# Topology anh, (6,3)-cn, num edge types: 1
# Building blocks:
#     Node 0, Type 0, BuildingBlock: CUKXOW_clean_sbu_0, # of connection points: 6
#     Node 1, Type 0, BuildingBlock: CUKXOW_clean_sbu_0, # of connection points: 6
#     Node 2, Type 0, BuildingBlock: CUKXOW_clean_sbu_0, # of connection points: 6
#     Node 3, Type 1, BuildingBlock: CUQRIR_clean_linker_1, # of connection points: 3
#     Node 4, Type 1, BuildingBlock: CUQRIR_clean_linker_1, # of connection points: 3
#     Node 5, Type 1, BuildingBlock: CUQRIR_clean_linker_1, # of connection points: 3
#     Node 6, Type 1, BuildingBlock: CUQRIR_clean_linker_1, # of connection points: 3
#     Node 7, Type 1, BuildingBlock: CUQRIR_clean_linker_1, # of connection points: 3
#     Node 8, Type 1, BuildingBlock: CUQRIR_clean_linker_1, # of connection points: 3
#     Edge 9, Type (0, 1), BuildingBlock: TEMPAE_clean_linker_10, # of connection points: 2
#     Edge 10, Type (0, 1), BuildingBlock: TEMPAE_clean_linker_10, # of connection points: 2
#     Edge 11, Type (0, 1), BuildingBlock: TEMPAE_clean_linker_10, # of connection points: 2
#     Edge 12, Type (0, 1), BuildingBlock: TEMPAE_clean_linker_10, # of connection points: 2
#     Edge 13, Type (0, 1), BuildingBlock: TEMPAE_clean_linker_10, # of connection points: 2
#     Edge 14, Type (0, 1), BuildingBlock: TEMPAE_clean_linker_10, # of connection points: 2
#     Edge 15, Type (0, 1), BuildingBlock: TEMPAE_clean_linker_10, # of connection points: 2
#     Edge 16, Type (0, 1), BuildingBlock: TEMPAE_clean_linker_10, # of connection points: 2
#     Edge 17, Type (0, 1), BuildingBlock: TEMPAE_clean_linker_10, # of connection points: 2
#     Edge 18, Type (0, 1), BuildingBlock: TEMPAE_clean_linker_10, # of connection points: 2
#     Edge 19, Type (0, 1), BuildingBlock: TEMPAE_clean_linker_10, # of connection points: 2
#     Edge 20, Type (0, 1), BuildingBlock: TEMPAE_clean_linker_10, # of connection points: 2
#     Edge 21, Type (0, 1), BuildingBlock: TEMPAE_clean_linker_10, # of connection points: 2
#     Edge 22, Type (0, 1), BuildingBlock: TEMPAE_clean_linker_10, # of connection points: 2
#     Edge 23, Type (0, 1), BuildingBlock: TEMPAE_clean_linker_10, # of connection points: 2
#     Edge 24, Type (0, 1), BuildingBlock: TEMPAE_clean_linker_10, # of connection points: 2
#     Edge 25, Type (0, 1), BuildingBlock: TEMPAE_clean_linker_10, # of connection points: 2
#     Edge 26, Type (0, 1), BuildingBlock: TEMPAE_clean_linker_10, # of connection points: 2
# Relax obj value: 0.140
# Max RMSD: 0.197
# Mean RMSD: 0.165
data_MOF--net-anh--node1-CUKXOW_clean_sbu_0--node2-CUQRIR_clean_linker_1--edge1-TEMPAE_clean_linker_10
_symmetry_space_group_name_H-M    P1
_symmetry_Int_Tables_number       1
_symmetry_cell_setting            triclinic
loop_
_symmetry_equiv_pos_as_xyz
'x, y, z'
_cell_length_a     26.837027
_cell_length_b     26.195631
_cell_length_c     45.863304
_cell_angle_alpha  90.595923
_cell_angle_beta   89.637519
_cell_angle_gamma 112.3258
loop_
_atom_site_label
_atom_site_type_symbol
_atom_site_fract_x
_atom_site_fract_y
_atom_site_fract_z
_atom_type_partial_charge
Tb0 Tb 0.03308 0.51337 0.14888 0.0
C1 C 1.00443 0.4687 0.21311 0.0
Tb2 Tb 0.96313 0.38976 0.15918 0.0
O3 O 0.96595 0.52537 0.12713 0.0
O4 O 0.95012 0.46551 0.15893 0.0
O5 O 0.03985 0.50537 0.19589 0.0
C6 C 0.8768 0.2977 0.16673 0.0
O7 O 0.96527 0.42405 0.20277 0.0
C8 C 0.06798 0.40695 0.15876 0.0
C9 C 1.00692 0.43076 0.09598 0.0
O10 O 0.91876 0.31502 0.18355 0.0
O11 O 0.88379 0.33179 0.14528 0.0
O12 O 1.02963 0.35885 0.16256 0.0
O13 O 0.04471 0.44011 0.15563 0.0
O14 O 0.96816 0.39385 0.11158 0.0
O15 O 0.0414 0.47766 0.10719 0.0
C16 C 0.11057 0.61376 0.14858 0.0
O17 O 0.11031 0.57205 0.13304 0.0
O18 O 0.06677 0.59915 0.16406 0.0
C19 C 0.92815 0.48474 0.13987 0.0
Tb20 Tb 0.57063 0.99513 0.51356 0.0
C21 C 0.61275 0.02935 0.4485 0.0
Tb22 Tb 0.69171 0.07587 0.50268 0.0
O23 O 0.55143 0.06461 0.53013 0.0
O24 O 0.61363 0.07766 0.50038 0.0
O25 O 0.57342 0.99801 0.46596 0.0
C26 C 0.77405 0.17116 0.49516 0.0
O27 O 0.65983 0.06506 0.45829 0.0
C28 C 0.68091 0.97149 0.50762 0.0
C29 C 0.64909 0.03503 0.56656 0.0
O30 O 0.76466 0.12683 0.47952 0.0
O31 O 0.73805 0.16124 0.51567 0.0
O32 O 0.72701 0.01134 0.50224 0.0
O33 O 0.64713 0.99349 0.51002 0.0
O34 O 0.68292 0.07567 0.55036 0.0
O35 O 0.60745 0.99341 0.5554 0.0
C36 C 0.47821 0.90765 0.51249 0.0
O37 O 0.48721 0.9521 0.52792 0.0
O38 O 0.52141 0.91228 0.49805 0.0
C39 C 0.59168 0.10167 0.51682 0.0
Tb40 Tb 0.53863 0.60675 0.84235 0.0
C41 C 0.61038 0.6137 0.89684 0.0
Tb42 Tb 0.65289 0.61608 0.83157 0.0
O43 O 0.51914 0.52239 0.85926 0.0
O44 O 0.57649 0.55391 0.82726 0.0
O45 O 0.56735 0.62139 0.88702 0.0
C46 C 0.73297 0.58017 0.82756 0.0
O47 O 0.64742 0.6083 0.8791 0.0
C48 C 0.64253 0.71128 0.82893 0.0
C49 C 0.58047 0.61267 0.77891 0.0
O50 O 0.69946 0.57128 0.84911 0.0
O51 O 0.72322 0.61183 0.80873 0.0
O52 O 0.68245 0.70161 0.81727 0.0
O53 O 0.61623 0.67162 0.84539 0.0
O54 O 0.61461 0.59198 0.78936 0.0
O55 O 0.55188 0.63155 0.79648 0.0
C56 C 0.43831 0.60419 0.84481 0.0
O57 O 0.45703 0.58016 0.82527 0.0
O58 O 0.47675 0.63137 0.86272 0.0
C59 C 0.55582 0.51388 0.84389 0.0
C60 C 0.48991 0.95997 0.19337 0.0
N61 N 0.52675 0.99099 0.21299 0.0
N62 N 0.4465 0.92342 0.20725 0.0
C63 C 0.4956 0.96545 0.16077 0.0
C64 C 0.45829 0.93342 0.23592 0.0
N65 N 0.50685 0.97462 0.23934 0.0
C66 C 0.42233 0.90338 0.26063 0.0
H67 H 0.47369 0.99118 0.15317 0.0
H68 H 0.47736 0.92433 0.15008 0.0
H69 H 0.53817 0.98552 0.15383 0.0
H70 H 0.43266 0.86773 0.26678 0.0
H71 H 0.37933 0.88781 0.25413 0.0
H72 H 0.42844 0.93069 0.28005 0.0
C73 C 0.64942 0.54268 0.52823 0.0
N74 N 0.64261 0.58124 0.54617 0.0
N75 N 0.64522 0.497 0.54345 0.0
C76 C 0.66389 0.55079 0.49646 0.0
C77 C 0.63513 0.50887 0.5711 0.0
N78 N 0.63393 0.55986 0.57276 0.0
C79 C 0.62397 0.46966 0.59632 0.0
H80 H 0.62634 0.53814 0.48346 0.0
H81 H 0.68653 0.52501 0.4895 0.0
H82 H 0.68835 0.59478 0.49192 0.0
H83 H 0.66269 0.47493 0.60692 0.0
H84 H 0.60453 0.4262 0.58875 0.0
H85 H 0.59772 0.47823 0.61285 0.0
C86 C 1.02438 0.3938 0.83442 0.0
N87 N 0.04842 0.39422 0.86029 0.0
N88 N 0.97037 0.37823 0.83757 0.0
C89 C 0.05457 0.41722 0.80678 0.0
C90 C 0.96242 0.36587 0.86629 0.0
N91 N 1.00971 0.37673 0.88019 0.0
C92 C 0.9092 0.35261 0.88165 0.0
H93 H 0.07007 0.46295 0.80773 0.0
H94 H 1.02781 0.40272 0.78755 0.0
H95 H 0.0897 0.40493 0.80445 0.0
H96 H 0.87617 0.32308 0.8684 0.0
H97 H 0.90119 0.39096 0.88436 0.0
H98 H 0.90923 0.33453 0.90342 0.0
C99 C 0.08431 0.57887 0.46998 0.0
N100 N 0.05124 0.54469 0.44982 0.0
N101 N 0.12174 0.6233 0.45703 0.0
C102 C 0.07807 0.57069 0.50242 0.0
C103 C 0.10993 0.61511 0.42824 0.0
N104 N 0.06671 0.56772 0.42394 0.0
C105 C 0.14404 0.65005 0.40413 0.0
H106 H 0.03513 0.54818 0.50832 0.0
H107 H 0.09375 0.61097 0.51411 0.0
H108 H 0.10121 0.54592 0.50966 0.0
H109 H 0.18723 0.66714 0.41028 0.0
H110 H 0.13127 0.68498 0.40013 0.0
H111 H 0.13937 0.62611 0.38354 0.0
C112 C 0.6178 0.12098 0.82295 0.0
N113 N 0.62246 0.08406 0.80311 0.0
N114 N 0.62008 0.16778 0.80958 0.0
C115 C 0.60662 0.10981 0.85488 0.0
C116 C 0.62639 0.15815 0.78106 0.0
N117 N 0.62732 0.10734 0.77705 0.0
C118 C 0.63368 0.19953 0.75722 0.0
H119 H 0.58419 0.13425 0.86399 0.0
H120 H 0.64552 0.122 0.8666 0.0
H121 H 0.58332 0.06527 0.85866 0.0
H122 H 0.65184 0.24233 0.76593 0.0
H123 H 0.59377 0.19335 0.74785 0.0
H124 H 0.65967 0.19411 0.73951 0.0
C125 C 0.49994 0.45214 0.13941 0.0
N126 N 0.54407 0.46499 0.12164 0.0
N127 N 0.45864 0.4605 0.12564 0.0
C128 C 0.49601 0.4284 0.16934 0.0
C129 C 0.47976 0.47959 0.09917 0.0
N130 N 0.53069 0.48164 0.09667 0.0
C131 C 0.45165 0.49916 0.07603 0.0
H132 H 0.45372 0.40179 0.17461 0.0
H133 H 0.50996 0.46275 0.18548 0.0
H134 H 0.52202 0.40426 0.17116 0.0
H135 H 0.42115 0.51338 0.08576 0.0
H136 H 0.43121 0.46461 0.06066 0.0
H137 H 0.48099 0.53346 0.06337 0.0
C138 C 0.14606 0.37935 0.16894 0.0
C139 C 0.12699 0.4181 0.15758 0.0
C140 C 0.20086 0.38667 0.16686 0.0
C141 C 0.23799 0.4334 0.1524 0.0
C142 C 0.21906 0.47325 0.1413 0.0
C143 C 0.16405 0.46534 0.14423 0.0
C144 C 0.21879 0.34358 0.17962 0.0
C145 C 0.2565 0.5233 0.12532 0.0
C146 C 0.39127 0.47249 0.15998 0.0
C147 C 0.40327 0.44843 0.1348 0.0
C148 C 0.33777 0.46727 0.16636 0.0
C149 C 0.29519 0.43804 0.14687 0.0
C150 C 0.30724 0.41256 0.12184 0.0
C151 C 0.36059 0.41739 0.11642 0.0
C152 C 0.32697 0.49403 0.19365 0.0
C153 C 0.26394 0.38137 0.1002 0.0
H154 H 0.11785 0.3428 0.17943 0.0
H155 H 0.14972 0.49517 0.13512 0.0
H156 H 0.23107 0.32176 0.16184 0.0
H157 H 0.2544 0.36343 0.19383 0.0
H158 H 0.18645 0.31256 0.19257 0.0
H159 H 0.23668 0.55217 0.11962 0.0
H160 H 0.29251 0.54579 0.13879 0.0
H161 H 0.2708 0.51002 0.10494 0.0
H162 H 0.42397 0.49685 0.17417 0.0
H163 H 0.36949 0.39823 0.0971 0.0
H164 H 0.29421 0.46343 0.20652 0.0
H165 H 0.31319 0.52747 0.18772 0.0
H166 H 0.3633 0.51181 0.2076 0.0
H167 H 0.2319 0.34656 0.11111 0.0
H168 H 0.27992 0.3647 0.08157 0.0
H169 H 0.24488 0.40899 0.09155 0.0
C170 C 0.82026 0.27148 0.50608 0.0
C171 C 0.81486 0.22587 0.48834 0.0
C172 C 0.85761 0.32423 0.49917 0.0
C173 C 0.88965 0.33137 0.47371 0.0
C174 C 0.88368 0.28547 0.45551 0.0
C175 C 0.8465 0.23311 0.46316 0.0
C176 C 0.8629 0.37221 0.51913 0.0
C177 C 0.9167 0.29164 0.42802 0.0
C178 C 0.95852 0.47647 0.44409 0.0
C179 C 1.01076 0.49074 0.45487 0.0
C180 C 0.91852 0.42439 0.44979 0.0
C181 C 0.93134 0.38631 0.46688 0.0
C182 C 0.98435 0.40056 0.47749 0.0
C183 C 1.02355 0.45241 0.47104 0.0
C184 C 0.86262 0.41019 0.4377 0.0
C185 C 0.99955 0.36129 0.49594 0.0
H186 H 0.79521 0.26595 0.52536 0.0
H187 H 0.84183 0.19789 0.44924 0.0
H188 H 0.90551 0.394 0.52578 0.0
H189 H 0.85052 0.40228 0.5074 0.0
H190 H 0.83772 0.359 0.53908 0.0
H191 H 0.90531 0.2523 0.41553 0.0
H192 H 0.91157 0.32326 0.41377 0.0
H193 H 0.96008 0.30609 0.43358 0.0
H194 H 0.94894 0.50641 0.43159 0.0
H195 H 0.06442 0.46327 0.4787 0.0
H196 H 0.83308 0.40186 0.45582 0.0
H197 H 0.85087 0.37202 0.42423 0.0
H198 H 0.85969 0.44383 0.42414 0.0
H199 H 0.97376 0.35023 0.51573 0.0
H200 H 0.0424 0.37915 0.50283 0.0
H201 H 0.9925 0.32251 0.48361 0.0
C202 C 0.59766 0.77666 0.84315 0.0
C203 C 0.63475 0.76403 0.82585 0.0
C204 C 0.59199 0.82778 0.84048 0.0
C205 C 0.62381 0.86679 0.81986 0.0
C206 C 0.66041 0.85348 0.80196 0.0
C207 C 0.66552 0.80247 0.80525 0.0
C208 C 0.55255 0.84039 0.85997 0.0
C209 C 0.69468 0.89341 0.77946 0.0
C210 C 0.58449 0.98364 0.79312 0.0
C211 C 0.62038 0.02904 0.80855 0.0
C212 C 0.58412 0.93033 0.79709 0.0
C213 C 0.62015 0.92212 0.81725 0.0
C214 C 0.65542 0.96776 0.83349 0.0
C215 C 0.65525 0.02066 0.82883 0.0
C216 C 0.54619 0.88307 0.77915 0.0
C217 C 0.69447 0.96099 0.85519 0.0
H218 H 0.57364 0.74695 0.85901 0.0
H219 H 0.6939 0.79269 0.79161 0.0
H220 H 0.57437 0.87694 0.87385 0.0
H221 H 0.52349 0.85081 0.84659 0.0
H222 H 0.52975 0.80522 0.8743 0.0
H223 H 0.7199 0.87608 0.76662 0.0
H224 H 0.66873 0.90477 0.7642 0.0
H225 H 0.72156 0.93198 0.79035 0.0
H226 H 0.55692 0.99004 0.77779 0.0
H227 H 0.68325 0.05589 0.84056 0.0
H228 H 0.5216 0.84895 0.79357 0.0
H229 H 0.56969 0.86654 0.76452 0.0
H230 H 0.51875 0.89572 0.76559 0.0
H231 H 0.6728 0.92802 0.87092 0.0
H232 H 0.71645 0.99972 0.86752 0.0
H233 H 0.72434 0.94819 0.84363 0.0
C234 C 0.85362 0.51126 0.12105 0.0
C235 C 0.86959 0.47615 0.13833 0.0
C236 C 0.79948 0.50641 0.11977 0.0
C237 C 0.7592 0.46471 0.13581 0.0
C238 C 0.77483 0.42831 0.15293 0.0
C239 C 0.82973 0.43478 0.15422 0.0
C240 C 0.78546 0.54646 0.1013 0.0
C241 C 0.73355 0.38251 0.16995 0.0
C242 C 0.62854 0.48932 0.15031 0.0
C243 C 0.5955 0.46025 0.12725 0.0
C244 C 0.681 0.48958 0.154 0.0
C245 C 0.70112 0.45968 0.1343 0.0
C246 C 0.66686 0.42859 0.11162 0.0
C247 C 0.61488 0.4295 0.10832 0.0
C248 C 0.71574 0.52377 0.17833 0.0
C249 C 0.6857 0.39558 0.0902 0.0
H250 H 0.88382 0.54341 0.10866 0.0
H251 H 0.84141 0.40745 0.16768 0.0
H252 H 0.75591 0.52371 0.08431 0.0
H253 H 0.76628 0.56905 0.11503 0.0
H254 H 0.82136 0.57703 0.09042 0.0
H255 H 0.7514 0.35582 0.18089 0.0
H256 H 0.71478 0.40032 0.18674 0.0
H257 H 0.70091 0.35645 0.15525 0.0
H258 H 0.614 0.51353 0.16483 0.0
H259 H 0.58935 0.40656 0.09062 0.0
H260 H 0.7507 0.55799 0.16898 0.0
H261 H 0.73191 0.49829 0.1915 0.0
H262 H 0.69331 0.54164 0.19296 0.0
H263 H 0.71894 0.42393 0.07668 0.0
H264 H 0.65289 0.36979 0.07547 0.0
H265 H 0.70179 0.36837 0.10198 0.0
C266 C 0.38267 0.85724 0.52754 0.0
C267 C 0.42535 0.86277 0.50849 0.0
C268 C 0.33102 0.81719 0.52239 0.0
C269 C 0.32195 0.78316 0.49721 0.0
C270 C 0.36527 0.78824 0.47815 0.0
C271 C 0.41666 0.82758 0.48425 0.0
C272 C 0.28607 0.81183 0.54357 0.0
C273 C 0.35703 0.75335 0.4508 0.0
C274 C 0.20232 0.64843 0.48789 0.0
C275 C 0.1687 0.6644 0.47005 0.0
C276 C 0.251 0.68732 0.49841 0.0
C277 C 0.26703 0.74316 0.49009 0.0
C278 C 0.23241 0.75977 0.47278 0.0
C279 C 0.18322 0.72016 0.46329 0.0
C280 C 0.28629 0.66821 0.51732 0.0
C281 C 0.2485 0.81877 0.46304 0.0
H282 H 0.38958 0.88447 0.54634 0.0
H283 H 0.44968 0.83215 0.46942 0.0
H284 H 0.2549 0.82304 0.53268 0.0
H285 H 0.26632 0.76839 0.55075 0.0
H286 H 0.30061 0.83872 0.56311 0.0
H287 H 0.39497 0.76261 0.43826 0.0
H288 H 0.34066 0.70894 0.45644 0.0
H289 H 0.32711 0.76051 0.43653 0.0
H290 H 0.19147 0.60516 0.4927 0.0
H291 H 0.15676 0.73231 0.44973 0.0
H292 H 0.30037 0.6957 0.53665 0.0
H293 H 0.32251 0.6702 0.50484 0.0
H294 H 0.26494 0.62518 0.52489 0.0
H295 H 0.2597 0.8472 0.48211 0.0
H296 H 0.21578 0.82542 0.45093 0.0
H297 H 0.28446 0.83006 0.44868 0.0
C298 C 0.60618 0.45889 0.82356 0.0
C299 C 0.56961 0.46432 0.84414 0.0
C300 C 0.61763 0.41094 0.82201 0.0
C301 C 0.59174 0.36713 0.84151 0.0
C302 C 0.55684 0.37357 0.86332 0.0
C303 C 0.54596 0.42207 0.86429 0.0
C304 C 0.65563 0.40628 0.79863 0.0
C305 C 0.52937 0.32837 0.88489 0.0
C306 C 0.56585 0.22473 0.81038 0.0
C307 C 0.60927 0.21375 0.8213 0.0
C308 C 0.55886 0.27367 0.81759 0.0
C309 C 0.59601 0.31254 0.83654 0.0
C310 C 0.63872 0.30048 0.84875 0.0
C311 C 0.64488 0.251 0.84092 0.0
C312 C 0.51326 0.285 0.80368 0.0
C313 C 0.67861 0.34047 0.86936 0.0
H314 H 0.62488 0.49165 0.80806 0.0
H315 H 0.5182 0.42648 0.88046 0.0
H316 H 0.68844 0.3964 0.80853 0.0
H317 H 0.63363 0.37208 0.78336 0.0
H318 H 0.67403 0.44489 0.78594 0.0
H319 H 0.50951 0.34252 0.9028 0.0
H320 H 0.49836 0.29306 0.87352 0.0
H321 H 0.55885 0.313 0.89448 0.0
H322 H 0.53848 0.19558 0.79523 0.0
H323 H 0.67858 0.24234 0.84915 0.0
H324 H 0.52991 0.32167 0.78944 0.0
H325 H 0.48838 0.29447 0.82067 0.0
H326 H 0.48676 0.24957 0.79033 0.0
H327 H 0.69866 0.38106 0.85874 0.0
H328 H 0.71001 0.32542 0.87658 0.0
H329 H 0.65717 0.34737 0.88883 0.0
C330 C 0.70786 0.89153 0.49873 0.0
C331 C 0.67109 0.91234 0.51055 0.0
C332 C 0.7008 0.83603 0.50245 0.0
C333 C 0.65687 0.80099 0.51926 0.0
C334 C 0.61922 0.82177 0.53097 0.0
C335 C 0.62636 0.87704 0.52607 0.0
C336 C 0.74094 0.81518 0.48884 0.0
C337 C 0.57271 0.78637 0.5497 0.0
C338 C 0.61772 0.64497 0.5154 0.0
C339 C 0.64651 0.63623 0.53893 0.0
C340 C 0.621 0.6984 0.50848 0.0
C341 C 0.65247 0.74384 0.52612 0.0
C342 C 0.68099 0.73495 0.55015 0.0
C343 C 0.6786 0.68153 0.5558 0.0
C344 C 0.59118 0.70628 0.48221 0.0
C345 C 0.71407 0.78184 0.56996 0.0
H346 H 0.74227 0.91875 0.48652 0.0
H347 H 0.59799 0.89312 0.53533 0.0
H348 H 0.76428 0.80512 0.50617 0.0
H349 H 0.71964 0.77668 0.47625 0.0
H350 H 0.76963 0.84599 0.4741 0.0
H351 H 0.54575 0.80797 0.55612 0.0
H352 H 0.54857 0.7477 0.53798 0.0
H353 H 0.58843 0.77451 0.56977 0.0
H354 H 0.59247 0.60993 0.5025 0.0
H355 H 0.70218 0.6752 0.57342 0.0
H356 H 0.61983 0.73611 0.46708 0.0
H357 H 0.5613 0.72391 0.48904 0.0
H358 H 0.56985 0.66698 0.47023 0.0
H359 H 0.74819 0.81169 0.5576 0.0
H360 H 0.73049 0.76731 0.58892 0.0
H361 H 0.68912 0.80437 0.5782 0.0
C362 C 0.7775 0.51996 0.84599 0.0
C363 C 0.76818 0.54958 0.82289 0.0
C364 C 0.80847 0.48794 0.84197 0.0
C365 C 0.82987 0.48486 0.81399 0.0
C366 C 0.81881 0.51301 0.79028 0.0
C367 C 0.78844 0.54571 0.79509 0.0
C368 C 0.81992 0.45911 0.86797 0.0
C369 C 0.83971 0.50921 0.76005 0.0
C370 C 0.95821 0.46198 0.82313 0.0
C371 C 0.93955 0.40426 0.82261 0.0
C372 C 0.9238 0.48925 0.81727 0.0
C373 C 0.86911 0.45784 0.81095 0.0
C374 C 0.85121 0.39978 0.80747 0.0
C375 C 0.88689 0.37349 0.81349 0.0
C376 C 0.9446 0.55114 0.8215 0.0
C377 C 0.79331 0.36501 0.8003 0.0
H378 H 0.76099 0.5223 0.86738 0.0
H379 H 0.77991 0.56755 0.77706 0.0
H380 H 0.80904 0.41464 0.86307 0.0
H381 H 0.86366 0.47705 0.87292 0.0
H382 H 0.79744 0.46294 0.88775 0.0
H383 H 0.82264 0.5285 0.74343 0.0
H384 H 0.88422 0.53017 0.75966 0.0
H385 H 0.82988 0.46538 0.75388 0.0
H386 H 0.99853 0.48565 0.83093 0.0
H387 H 0.87263 0.32884 0.81327 0.0
H388 H 0.92862 0.56085 0.84231 0.0
H389 H 0.93072 0.57078 0.80369 0.0
H390 H 0.9893 0.56988 0.82232 0.0
H391 H 0.7686 0.35818 0.82044 0.0
H392 H 0.78906 0.32402 0.7913 0.0
H393 H 0.77676 0.38604 0.7844 0.0
C394 C 0.15863 0.70209 0.17488 0.0
C395 C 0.15728 0.66592 0.15196 0.0
C396 C 0.20595 0.74749 0.18127 0.0
C397 C 0.25254 0.75711 0.16402 0.0
C398 C 0.2503 0.72256 0.13972 0.0
C399 C 0.20265 0.67695 0.13411 0.0
C400 C 0.207 0.78308 0.20757 0.0
C401 C 0.29893 0.73205 0.12058 0.0
C402 C 0.36746 0.89549 0.17507 0.0
C403 C 0.39982 0.88147 0.19468 0.0
C404 C 0.3201 0.85507 0.164 0.0
C405 C 0.30473 0.79978 0.17324 0.0
C406 C 0.3381 0.7854 0.1926 0.0
C407 C 0.38554 0.82648 0.20288 0.0
C408 C 0.28592 0.87167 0.14303 0.0
C409 C 0.32296 0.72693 0.2031 0.0
H410 H 0.12351 0.6934 0.18871 0.0
H411 H 0.20147 0.64894 0.11631 0.0
H412 H 0.23409 0.77759 0.22437 0.0
H413 H 0.22326 0.82731 0.20156 0.0
H414 H 0.16639 0.77263 0.21737 0.0
H415 H 0.28857 0.70613 0.10049 0.0
H416 H 0.31772 0.77607 0.11426 0.0
H417 H 0.32949 0.72204 0.13285 0.0
H418 H 0.37864 0.93827 0.169 0.0
H419 H 0.41132 0.81596 0.21775 0.0
H420 H 0.24685 0.86625 0.15346 0.0
H421 H 0.27695 0.8447 0.12336 0.0
H422 H 0.30584 0.91532 0.13613 0.0
H423 H 0.28411 0.71366 0.21509 0.0
H424 H 0.35393 0.72258 0.21773 0.0
H425 H 0.3173 0.69842 0.18426 0.0
C426 C 0.58001 0.18383 0.53882 0.0
C427 C 0.60543 0.16197 0.51828 0.0
C428 C 0.59148 0.24075 0.54028 0.0
C429 C 0.62936 0.27681 0.52068 0.0
C430 C 0.65569 0.25498 0.50006 0.0
C431 C 0.6431 0.1977 0.49897 0.0
C432 C 0.56292 0.26229 0.56284 0.0
C433 C 0.69687 0.29202 0.47908 0.0
C434 C 0.61192 0.41335 0.51259 0.0
C435 C 0.64857 0.44617 0.53325 0.0
C436 C 0.60767 0.35902 0.50675 0.0
C437 C 0.6408 0.3372 0.52206 0.0
C438 C 0.68057 0.37179 0.54138 0.0
C439 C 0.68392 0.42587 0.54673 0.0
C440 C 0.5653 0.32385 0.48567 0.0
C441 C 0.71697 0.35058 0.55807 0.0
H442 H 0.55094 0.15634 0.55379 0.0
H443 H 0.66243 0.18083 0.48284 0.0
H444 H 0.59285 0.29314 0.57715 0.0
H445 H 0.53943 0.28346 0.55192 0.0
H446 H 0.5351 0.22892 0.57668 0.0
H447 H 0.71526 0.26885 0.46517 0.0
H448 H 0.67762 0.31316 0.46481 0.0
H449 H 0.72944 0.32454 0.49124 0.0
H450 H 0.58451 0.42916 0.50232 0.0
H451 H 0.71249 0.45167 0.56255 0.0
H452 H 0.53249 0.29199 0.4979 0.0
H453 H 0.58266 0.30202 0.4703 0.0
H454 H 0.54755 0.34862 0.47294 0.0
H455 H 0.69362 0.32345 0.57587 0.0
H456 H 0.75167 0.38472 0.5679 0.0
H457 H 0.73252 0.32557 0.54375 0.0
C458 C 0.3443 0.56621 0.82718 0.0
C459 C 0.38036 0.58879 0.8501 0.0
C460 C 0.28901 0.5396 0.8325 0.0
C461 C 0.2696 0.5346 0.86154 0.0
C462 C 0.3055 0.56017 0.88462 0.0
C463 C 0.36069 0.58748 0.87857 0.0
C464 C 0.25185 0.51408 0.80717 0.0
C465 C 0.28632 0.55546 0.91585 0.0
C466 C 0.11804 0.48658 0.86623 0.0
C467 C 0.10315 0.42928 0.86649 0.0
C468 C 0.1724 0.52202 0.86653 0.0
C469 C 0.21244 0.49924 0.86748 0.0
C470 C 0.19714 0.44133 0.87018 0.0
C471 C 0.14234 0.40686 0.86944 0.0
C472 C 0.18682 0.5833 0.86349 0.0
C473 C 0.23867 0.41556 0.87184 0.0
H474 H 0.35967 0.56729 0.80517 0.0
H475 H 0.38876 0.60445 0.89634 0.0
H476 H 0.23608 0.46843 0.8088 0.0
H477 H 0.21677 0.52667 0.80776 0.0
H478 H 0.27252 0.52602 0.78579 0.0
H479 H 0.31753 0.58364 0.93065 0.0
H480 H 0.24937 0.56471 0.91775 0.0
H481 H 0.2759 0.51247 0.92332 0.0
H482 H 0.08697 0.50326 0.86406 0.0
H483 H 0.1301 0.36239 0.86973 0.0
H484 H 0.20223 0.59606 0.84113 0.0
H485 H 0.21925 0.60677 0.87895 0.0
H486 H 0.15155 0.59489 0.86733 0.0
H487 H 0.25897 0.41907 0.85037 0.0
H488 H 0.2204 0.37122 0.87772 0.0
H489 H 0.27003 0.43766 0.88813 0.0
C490 C 0.8216 0.2212 0.19899 0.0
C491 C 0.827 0.2499 0.17281 0.0
C492 C 0.77321 0.17782 0.20609 0.0
C493 C 0.72957 0.1626 0.18634 0.0
C494 C 0.73522 0.19085 0.15959 0.0
C495 C 0.78392 0.23449 0.15321 0.0
C496 C 0.76841 0.14904 0.23495 0.0
C497 C 0.68962 0.17542 0.13792 0.0
C498 C 0.61854 0.0208 0.19328 0.0
C499 C 0.57815 0.03363 0.20709 0.0
C500 C 0.66821 0.06243 0.18635 0.0
C501 C 0.6776 0.11786 0.19393 0.0
C502 C 0.63714 0.13065 0.20861 0.0
C503 C 0.58766 0.08818 0.21493 0.0
C504 C 0.7103 0.04726 0.17062 0.0
C505 C 0.64592 0.18916 0.21736 0.0
H506 H 0.85488 0.23337 0.21423 0.0
H507 H 0.78811 0.25687 0.13299 0.0
H508 H 0.73578 0.15406 0.24819 0.0
H509 H 0.75735 0.10414 0.23134 0.0
H510 H 0.8064 0.16542 0.24768 0.0
H511 H 0.70127 0.20007 0.11765 0.0
H512 H 0.67617 0.13102 0.13206 0.0
H513 H 0.65466 0.18189 0.14786 0.0
H514 H 0.61072 0.97816 0.18764 0.0
H515 H 0.55592 0.09748 0.22558 0.0
H516 H 0.74785 0.06066 0.18365 0.0
H517 H 0.72045 0.0691 0.14948 0.0
H518 H 0.69661 1.00217 0.16639 0.0
H519 H 0.6822 0.20669 0.23132 0.0
H520 H 0.61091 0.19179 0.22941 0.0
H521 H 0.65321 0.21532 0.19768 0.0
C522 C 0.05999 0.44972 0.0496 0.0
C523 C 1.01228 0.41961 0.06466 0.0
C524 C 0.06495 0.44182 0.0196 0.0
C525 C 1.02092 0.40335 0.00423 0.0
C526 C 0.97321 0.3717 0.01942 0.0
C527 C 0.96957 0.37999 0.04953 0.0
C528 C 0.11669 0.47586 0.0042 0.0
C529 C 0.92523 0.33059 0.00369 0.0
C530 C 1.00373 0.42748 0.92436 0.0
C531 C 1.01792 0.38671 0.91097 0.0
C532 C 1.00558 0.43401 0.95469 0.0
C533 C 1.02294 0.3994 0.97193 0.0
C534 C 0.04009 0.36003 0.95829 0.0
C535 C 0.03729 0.35411 0.92778 0.0
C536 C 0.98714 0.47661 0.96831 0.0
C537 C 0.05969 0.3231 0.97594 0.0
H538 H 0.09351 0.47991 0.06122 0.0
H539 H 0.93262 0.35656 0.06101 0.0
H540 H 0.1315 0.44884 0.99094 0.0
H541 H 0.10919 0.50488 0.98905 0.0
H542 H 0.14881 0.50011 0.0197 0.0
H543 H 0.89229 0.30709 0.01889 0.0
H544 H 0.90931 0.3525 0.98795 0.0
H545 H 0.93746 0.30094 0.99101 0.0
H546 H 0.98973 0.45315 0.91095 0.0
H547 H 0.0486 0.32304 0.91705 0.0
H548 H 1.01924 0.50516 0.98246 0.0
H549 H 0.9514 0.45589 0.98233 0.0
H550 H 0.97636 0.50124 0.95171 0.0
H551 H 0.09181 0.34812 0.9912 0.0
H552 H 0.07559 0.29785 0.96193 0.0
H553 H 1.02608 0.29492 0.98931 0.0
C554 C 0.64249 0.05779 0.39709 0.0
C555 C 0.60254 0.0259 0.41664 0.0
C556 C 0.63309 0.05451 0.36689 0.0
C557 C 0.58259 0.01855 0.35602 0.0
C558 C 0.54212 0.98639 0.3756 0.0
C559 C 0.55259 0.99041 0.40562 0.0
C560 C 0.67716 0.08933 0.34661 0.0
C561 C 0.48766 0.94752 0.36484 0.0
C562 C 0.52782 0.0352 0.28233 0.0
C563 C 0.53457 0.99253 0.26644 0.0
C564 C 0.54643 0.04661 0.31111 0.0
C565 C 0.57158 0.01382 0.32418 0.0
C566 C 0.58078 0.97239 0.30751 0.0
C567 C 0.56199 0.96221 0.27873 0.0
C568 C 0.53613 0.09133 0.32806 0.0
C569 C 0.60731 0.93649 0.32061 0.0
H570 H 0.68126 0.08532 0.40532 0.0
H571 H 0.52139 0.96555 0.42044 0.0
H572 H 0.68802 0.06236 0.33114 0.0
H573 H 0.66267 0.1162 0.33345 0.0
H574 H 0.71399 0.11572 0.35855 0.0
H575 H 0.46052 0.92554 0.38293 0.0
H576 H 0.46791 0.97076 0.35245 0.0
H577 H 0.49259 0.9164 0.34973 0.0
H578 H 0.50572 0.05775 0.27262 0.0
H579 H 0.56629 0.92882 0.26619 0.0
H580 H 0.57311 0.1182 0.33963 0.0
H581 H 0.50467 0.07226 0.3448 0.0
H582 H 0.52238 0.11737 0.31377 0.0
H583 H 0.64504 0.9622 0.33194 0.0
H584 H 0.61682 0.91049 0.30391 0.0
H585 H 0.58005 0.90896 0.33711 0.0
C586 C 0.58003 0.65866 0.73157 0.0
C587 C 0.57294 0.61077 0.7472 0.0
C588 C 0.58482 0.65907 0.70098 0.0
C589 C 0.58151 0.61021 0.68605 0.0
C590 C 0.56983 0.56076 0.70181 0.0
C591 C 0.56645 0.56191 0.73223 0.0
C592 C 0.59765 0.71262 0.68499 0.0
C593 C 0.56489 0.50742 0.6868 0.0
C594 C 0.57191 0.58363 0.60457 0.0
C595 C 0.62366 0.5852 0.59877 0.0
C596 C 0.5582 0.59636 0.63258 0.0
C597 C 0.59757 0.61135 0.65491 0.0
C598 C 0.65119 0.61763 0.64816 0.0
C599 C 0.66329 0.60351 0.62024 0.0
C600 C 0.50062 0.58883 0.63887 0.0
C601 C 0.69473 0.63449 0.67109 0.0
H602 H 0.58559 0.69655 0.74334 0.0
H603 H 0.56082 0.52491 0.7445 0.0
H604 H 0.64107 0.72984 0.67919 0.0
H605 H 0.5745 0.70587 0.66439 0.0
H606 H 0.5889 0.74365 0.69854 0.0
H607 H 0.54926 0.47156 0.70167 0.0
H608 H 0.53769 0.49932 0.66771 0.0
H609 H 0.60501 0.51068 0.67866 0.0
H610 H 0.54144 0.56877 0.58776 0.0
H611 H 0.70312 0.60417 0.61543 0.0
H612 H 0.49874 0.62219 0.65338 0.0
H613 H 0.48018 0.54911 0.65028 0.0
H614 H 0.47805 0.58808 0.61854 0.0
H615 H 0.69378 0.67006 0.68408 0.0
H616 H 0.73549 0.64578 0.66134 0.0
H617 H 0.68774 0.59972 0.68628 0.0
C618 C 0.6299 0.99037 0.61557 0.0
C619 C 0.6556 0.03759 0.59866 0.0
C620 C 0.62911 0.99372 0.64614 0.0
C621 C 0.6538 0.04567 0.66007 0.0
C622 C 0.68262 0.09284 0.64321 0.0
C623 C 0.68349 0.08815 0.6127 0.0
C624 C 0.59905 0.94227 0.66336 0.0
C625 C 0.70933 0.14907 0.65722 0.0
C626 C 0.59132 0.07912 0.72805 0.0
C627 C 0.62963 0.0824 0.74924 0.0
C628 C 0.59762 0.06482 0.69918 0.0
C629 C 0.64306 0.05256 0.69146 0.0
C630 C 0.67978 0.05163 0.71336 0.0
C631 C 0.67278 0.06702 0.74212 0.0
C632 C 0.55727 0.06611 0.67666 0.0
C633 C 0.72789 0.03737 0.70618 0.0
H634 H 0.60894 0.95092 0.60489 0.0
H635 H 0.7035 0.12479 0.59982 0.0
H636 H 0.62237 0.94011 0.68287 0.0
H637 H 0.5602 0.94331 0.67111 0.0
H638 H 0.5904 0.9042 0.65004 0.0
H639 H 0.73417 0.18052 0.64146 0.0
H640 H 0.67804 0.16278 0.66638 0.0
H641 H 0.73536 0.14716 0.67552 0.0
H642 H 0.55762 0.09033 0.73396 0.0
H643 H 0.70219 0.06952 0.75873 0.0
H644 H 0.5415 0.02655 0.66434 0.0
H645 H 0.57732 0.09935 0.66076 0.0
H646 H 0.52274 0.07357 0.68658 0.0
H647 H 0.71644 1.00114 0.69126 0.0
H648 H 0.74634 0.02835 0.72611 0.0
H649 H 0.75873 0.07262 0.69487 0.0
C650 C 0.5751 0.60924 0.9478 0.0
C651 C 0.6145 0.6055 0.92861 0.0
C652 C 0.57281 0.59249 0.9769 0.0
C653 C 0.61097 0.5716 0.98719 0.0
C654 C 0.65303 0.5712 0.96855 0.0
C655 C 0.65426 0.58806 0.93945 0.0
C656 C 0.52739 0.59393 0.99611 0.0
C657 C 0.69479 0.54982 0.97876 0.0
C658 C 0.602 0.55258 0.06921 0.0
C659 C 0.5635 0.4988 0.07099 0.0
C660 C 0.62193 0.57589 0.04197 0.0
C661 C 0.60238 0.54443 0.0162 0.0
C662 C 0.56737 0.48828 0.01834 0.0
C663 C 0.54825 0.46626 0.04578 0.0
C664 C 0.6599 0.63552 0.0407 0.0
C665 C 0.54584 0.45294 0.99154 0.0
H666 H 0.54443 0.62302 0.93981 0.0
H667 H 0.68507 0.58515 0.9249 0.0
H668 H 0.49972 0.55114 0.00113 0.0
H669 H 0.54341 0.61489 0.01712 0.0
H670 H 0.50377 0.61551 0.98563 0.0
H671 H 0.72972 0.5611 0.96362 0.0
H672 H 0.70952 0.56606 0.00084 0.0
H673 H 0.67636 0.50417 0.98019 0.0
H674 H 0.61308 0.57762 0.08887 0.0
H675 H 0.51801 0.42481 0.04747 0.0
H676 H 0.63701 0.66131 0.03468 0.0
H677 H 0.69142 0.64154 0.02385 0.0
H678 H 0.67965 0.65045 0.06206 0.0
H679 H 0.51696 0.46709 0.98028 0.0
H680 H 0.52473 0.40866 0.99702 0.0
H681 H 0.57893 0.45696 0.97601 0.0
C682 C 0.96614 0.4484 0.26368 0.0
C683 C 1.0089 0.47809 0.24508 0.0
C684 C 0.96982 0.45768 0.29397 0.0
C685 C 1.01762 0.49705 0.30595 0.0
C686 C 0.06118 0.52647 0.28734 0.0
C687 C 0.05616 0.5169 0.25715 0.0
C688 C 0.92231 0.42609 0.3131 0.0
C689 C 0.1131 0.5684 0.2993 0.0
C690 C 1.02193 0.57052 0.37802 0.0
C691 C 0.04575 0.54374 0.39614 0.0
C692 C 1.00939 0.55348 0.34898 0.0
C693 C 1.02199 0.50917 0.33782 0.0
C694 C 0.04367 0.48024 0.35662 0.0
C695 C 0.05513 0.49786 0.38571 0.0
C696 C 0.98551 0.58487 0.32986 0.0
C697 C 0.05799 0.43308 0.34555 0.0
H698 H 0.92939 0.41844 0.25454 0.0
H699 H 0.08956 0.53971 0.24301 0.0
H700 H 0.93473 0.40379 0.33024 0.0
H701 H 0.90744 0.45527 0.32436 0.0
H702 H 0.88859 0.39579 0.3005 0.0
H703 H 0.14385 0.58625 0.28202 0.0
H704 H 0.10517 0.6025 0.31029 0.0
H705 H 0.13001 0.54899 0.3159 0.0
H706 H 1.01509 0.60615 0.38641 0.0
H707 H 0.07411 0.47783 0.39994 0.0
H708 H 0.95045 0.55588 0.31764 0.0
H709 H 1.0159 0.60898 0.3136 0.0
H710 H 0.97236 0.6138 0.34265 0.0
H711 H 1.02395 0.40298 0.33315 0.0
H712 H 0.06881 0.41118 0.36355 0.0
H713 H 0.09279 0.44919 0.3304 0.0
loop_
_geom_bond_atom_site_label_1
_geom_bond_atom_site_label_2
_geom_bond_distance
_geom_bond_site_symmetry_2
_ccdc_geom_bond_type
Tb0 O3 2.453 1_455 S
Tb0 O4 2.596 1_455 S
Tb0 O5 2.374 . S
Tb0 O13 2.343 . S
Tb0 O15 2.353 . S
Tb0 O17 2.427 . S
Tb0 O18 2.513 . S
C1 O5 1.251 1_655 S
C1 O7 1.263 . S
Tb2 O4 2.343 . S
Tb2 O7 2.353 . S
Tb2 O10 2.427 . S
Tb2 O11 2.513 . S
Tb2 O12 2.453 1_655 S
Tb2 O13 2.596 1_655 S
Tb2 O14 2.374 . S
O3 Tb0 2.453 1_655 S
O3 C19 1.245 . S
O4 Tb0 2.596 1_655 S
O4 Tb2 2.343 . S
O4 C19 1.259 . S
O5 Tb0 2.374 . S
O5 C1 1.251 1_455 S
C6 O10 1.275 . S
C6 O11 1.246 . S
O7 C1 1.263 . S
O7 Tb2 2.353 . S
C8 O12 1.245 . S
C8 O13 1.259 . S
C9 O14 1.250 1_455 S
C9 O15 1.263 . S
O10 Tb2 2.427 . S
O10 C6 1.275 . S
O11 Tb2 2.513 . S
O11 C6 1.246 . S
O12 Tb2 2.453 1_455 S
O12 C8 1.245 . S
O13 Tb0 2.343 . S
O13 Tb2 2.596 1_455 S
O13 C8 1.259 . S
O14 Tb2 2.374 . S
O14 C9 1.250 1_655 S
O15 Tb0 2.353 . S
O15 C9 1.263 . S
C16 O17 1.275 . S
C16 O18 1.246 . S
O17 Tb0 2.427 . S
O17 C16 1.275 . S
O18 Tb0 2.513 . S
O18 C16 1.246 . S
C19 O3 1.245 . S
C19 O4 1.259 . S
Tb20 O23 2.452 1_565 S
Tb20 O24 2.595 1_565 S
Tb20 O25 2.374 1_565 S
Tb20 O33 2.344 . S
Tb20 O35 2.353 1_565 S
Tb20 O37 2.428 . S
Tb20 O38 2.514 . S
C21 O25 1.251 . S
C21 O27 1.263 . S
Tb22 O24 2.343 . S
Tb22 O27 2.353 . S
Tb22 O30 2.427 . S
Tb22 O31 2.513 . S
Tb22 O32 2.453 1_545 S
Tb22 O33 2.596 1_545 S
Tb22 O34 2.374 . S
O23 Tb20 2.452 1_545 S
O23 C39 1.245 . S
O24 Tb20 2.595 1_545 S
O24 Tb22 2.343 . S
O24 C39 1.259 . S
O25 Tb20 2.374 1_545 S
O25 C21 1.251 . S
C26 O30 1.275 . S
C26 O31 1.246 . S
O27 C21 1.263 . S
O27 Tb22 2.353 . S
C28 O32 1.245 . S
C28 O33 1.259 . S
C29 O34 1.250 . S
C29 O35 1.263 . S
O30 Tb22 2.427 . S
O30 C26 1.275 . S
O31 Tb22 2.513 . S
O31 C26 1.246 . S
O32 Tb22 2.453 1_565 S
O32 C28 1.245 . S
O33 Tb20 2.344 . S
O33 Tb22 2.596 1_565 S
O33 C28 1.259 . S
O34 Tb22 2.374 . S
O34 C29 1.250 . S
O35 Tb20 2.353 1_545 S
O35 C29 1.263 . S
C36 O37 1.275 . S
C36 O38 1.246 . S
O37 Tb20 2.428 . S
O37 C36 1.275 . S
O38 Tb20 2.514 . S
O38 C36 1.246 . S
C39 O23 1.245 . S
C39 O24 1.259 . S
Tb40 O43 2.453 . S
Tb40 O44 2.596 . S
Tb40 O45 2.374 . S
Tb40 O53 2.343 . S
Tb40 O55 2.353 . S
Tb40 O57 2.427 . S
Tb40 O58 2.513 . S
C41 O45 1.251 . S
C41 O47 1.263 . S
Tb42 O44 2.343 . S
Tb42 O47 2.353 . S
Tb42 O50 2.427 . S
Tb42 O51 2.513 . S
Tb42 O52 2.453 . S
Tb42 O53 2.596 . S
Tb42 O54 2.374 . S
O43 Tb40 2.453 . S
O43 C59 1.245 . S
O44 Tb40 2.596 . S
O44 Tb42 2.343 . S
O44 C59 1.259 . S
O45 Tb40 2.374 . S
O45 C41 1.251 . S
C46 O50 1.275 . S
C46 O51 1.246 . S
O47 C41 1.263 . S
O47 Tb42 2.353 . S
C48 O52 1.245 . S
C48 O53 1.259 . S
C49 O54 1.250 . S
C49 O55 1.263 . S
O50 Tb42 2.427 . S
O50 C46 1.275 . S
O51 Tb42 2.513 . S
O51 C46 1.246 . S
O52 Tb42 2.453 . S
O52 C48 1.245 . S
O53 Tb40 2.343 . S
O53 Tb42 2.596 . S
O53 C48 1.259 . S
O54 Tb42 2.374 . S
O54 C49 1.250 . S
O55 Tb40 2.353 . S
O55 C49 1.263 . S
C56 O57 1.275 . S
C56 O58 1.246 . S
O57 Tb40 2.427 . S
O57 C56 1.275 . S
O58 Tb40 2.513 . S
O58 C56 1.246 . S
C59 O43 1.245 . S
C59 O44 1.259 . S
C60 N61 1.317 1_565 S
C60 N62 1.348 . S
C60 C63 1.485 . S
N61 C60 1.317 1_545 S
N61 N65 1.370 . S
N62 C60 1.348 . S
N62 C64 1.346 . S
C63 C60 1.485 . S
C63 H67 0.960 1_565 S
C63 H68 0.961 . S
C63 H69 0.960 1_565 S
C64 N62 1.346 . S
C64 N65 1.307 1_565 S
C64 C66 1.486 . S
N65 N61 1.370 . S
N65 C64 1.307 1_545 S
C66 C64 1.486 . S
C66 H70 0.960 . S
C66 H71 0.960 . S
C66 H72 0.959 . S
H67 C63 0.960 1_545 S
H68 C63 0.961 . S
H69 C63 0.960 1_545 S
H70 C66 0.960 . S
H71 C66 0.960 . S
H72 C66 0.959 . S
C73 N74 1.317 . S
C73 N75 1.348 . S
C73 C76 1.485 . S
N74 C73 1.317 . S
N74 N78 1.370 . S
N75 C73 1.348 . S
N75 C77 1.346 . S
C76 C73 1.485 . S
C76 H80 0.960 . S
C76 H81 0.961 . S
C76 H82 0.960 . S
C77 N75 1.346 . S
C77 N78 1.307 . S
C77 C79 1.486 . S
N78 N74 1.370 . S
N78 C77 1.307 . S
C79 C77 1.486 . S
C79 H83 0.960 . S
C79 H84 0.960 . S
C79 H85 0.959 . S
H80 C76 0.960 . S
H81 C76 0.961 . S
H82 C76 0.960 . S
H83 C79 0.960 . S
H84 C79 0.960 . S
H85 C79 0.959 . S
C86 N87 1.317 . S
C86 N88 1.348 . S
C86 C89 1.485 . S
N87 C86 1.317 . S
N87 N91 1.370 . S
N88 C86 1.348 . S
N88 C90 1.346 . S
C89 C86 1.485 . S
C89 H93 0.960 . S
C89 H94 0.961 . S
C89 H95 0.960 . S
C90 N88 1.346 . S
C90 N91 1.307 . S
C90 C92 1.486 1_455 S
N91 N87 1.370 . S
N91 C90 1.307 . S
C92 C90 1.486 1_655 S
C92 H96 0.960 . S
C92 H97 0.960 . S
C92 H98 0.959 . S
H93 C89 0.960 . S
H94 C89 0.961 . S
H95 C89 0.960 . S
H96 C92 0.960 . S
H97 C92 0.960 . S
H98 C92 0.959 . S
C99 N100 1.317 1_455 S
C99 N101 1.348 . S
C99 C102 1.485 . S
N100 C99 1.317 1_655 S
N100 N104 1.370 1_655 S
N101 C99 1.348 . S
N101 C103 1.346 . S
C102 C99 1.485 . S
C102 H106 0.960 . S
C102 H107 0.961 . S
C102 H108 0.960 1_455 S
C103 N101 1.346 . S
C103 N104 1.307 . S
C103 C105 1.486 . S
N104 N100 1.370 1_455 S
N104 C103 1.307 . S
C105 C103 1.486 . S
C105 H109 0.960 . S
C105 H110 0.960 . S
C105 H111 0.959 . S
H106 C102 0.960 . S
H107 C102 0.961 . S
H108 C102 0.960 1_655 S
H109 C105 0.960 . S
H110 C105 0.960 . S
H111 C105 0.959 . S
C112 N113 1.317 . S
C112 N114 1.348 . S
C112 C115 1.485 . S
N113 C112 1.317 . S
N113 N117 1.370 . S
N114 C112 1.348 . S
N114 C116 1.346 . S
C115 C112 1.485 . S
C115 H119 0.960 . S
C115 H120 0.961 . S
C115 H121 0.960 . S
C116 N114 1.346 . S
C116 N117 1.307 . S
C116 C118 1.486 . S
N117 N113 1.370 . S
N117 C116 1.307 . S
C118 C116 1.486 . S
C118 H122 0.960 . S
C118 H123 0.960 . S
C118 H124 0.959 . S
H119 C115 0.960 . S
H120 C115 0.961 . S
H121 C115 0.960 . S
H122 C118 0.960 . S
H123 C118 0.960 . S
H124 C118 0.959 . S
C125 N126 1.317 . S
C125 N127 1.348 . S
C125 C128 1.485 . S
N126 C125 1.317 . S
N126 N130 1.370 . S
N127 C125 1.348 . S
N127 C129 1.346 . S
C128 C125 1.485 . S
C128 H132 0.960 . S
C128 H133 0.961 . S
C128 H134 0.960 . S
C129 N127 1.346 . S
C129 N130 1.307 . S
C129 C131 1.486 . S
N130 N126 1.370 . S
N130 C129 1.307 . S
C131 C129 1.486 . S
C131 H135 0.960 . S
C131 H136 0.960 . S
C131 H137 0.959 . S
H132 C128 0.960 . S
H133 C128 0.961 . S
H134 C128 0.960 . S
H135 C131 0.960 . S
H136 C131 0.960 . S
H137 C131 0.959 . S
C138 C139 1.391 . S
C138 C140 1.394 . S
C138 H154 0.931 . S
C139 C138 1.391 . S
C139 C143 1.376 . S
C140 C138 1.394 . S
C140 C141 1.369 . S
C140 C144 1.531 . S
C141 C140 1.369 . S
C141 C142 1.410 . S
C141 C149 1.503 . S
C142 C141 1.410 . S
C142 C143 1.392 . S
C142 C145 1.511 . S
C143 C139 1.376 . S
C143 C142 1.392 . S
C143 H155 0.929 . S
C144 C140 1.531 . S
C144 H156 0.960 . S
C144 H157 0.962 . S
C144 H158 0.960 . S
C145 C142 1.511 . S
C145 H159 0.961 . S
C145 H160 0.961 . S
C145 H161 0.961 . S
C146 C147 1.370 . S
C146 C148 1.363 . S
C146 H162 0.931 . S
C147 C146 1.370 . S
C147 C151 1.408 . S
C148 C146 1.363 . S
C148 C149 1.370 . S
C148 C152 1.524 . S
C149 C141 1.503 . S
C149 C148 1.370 . S
C149 C150 1.403 . S
C150 C149 1.403 . S
C150 C151 1.404 . S
C150 C153 1.539 . S
C151 C147 1.408 . S
C151 C150 1.404 . S
C151 H163 0.930 . S
C152 C148 1.524 . S
C152 H164 0.956 . S
C152 H165 0.961 . S
C152 H166 0.961 . S
C153 C150 1.539 . S
C153 H167 0.958 . S
C153 H168 0.961 . S
C153 H169 0.960 . S
H154 C138 0.931 . S
H155 C143 0.929 . S
H156 C144 0.960 . S
H157 C144 0.962 . S
H158 C144 0.960 . S
H159 C145 0.961 . S
H160 C145 0.961 . S
H161 C145 0.961 . S
H162 C146 0.931 . S
H163 C151 0.930 . S
H164 C152 0.956 . S
H165 C152 0.961 . S
H166 C152 0.961 . S
H167 C153 0.958 . S
H168 C153 0.961 . S
H169 C153 0.960 . S
C170 C171 1.391 . S
C170 C172 1.394 . S
C170 H186 0.931 . S
C171 C170 1.391 . S
C171 C175 1.376 . S
C172 C170 1.394 . S
C172 C173 1.369 . S
C172 C176 1.531 . S
C173 C172 1.369 . S
C173 C174 1.410 . S
C173 C181 1.503 . S
C174 C173 1.410 . S
C174 C175 1.392 . S
C174 C177 1.511 . S
C175 C171 1.376 . S
C175 C174 1.392 . S
C175 H187 0.929 . S
C176 C172 1.531 . S
C176 H188 0.960 . S
C176 H189 0.962 . S
C176 H190 0.960 . S
C177 C174 1.511 . S
C177 H191 0.961 . S
C177 H192 0.961 . S
C177 H193 0.961 . S
C178 C179 1.370 . S
C178 C180 1.363 . S
C178 H194 0.931 . S
C179 C178 1.370 . S
C179 C183 1.408 . S
C180 C178 1.363 . S
C180 C181 1.370 . S
C180 C184 1.524 . S
C181 C173 1.503 . S
C181 C180 1.370 . S
C181 C182 1.403 . S
C182 C181 1.403 . S
C182 C183 1.404 . S
C182 C185 1.539 . S
C183 C179 1.408 . S
C183 C182 1.404 . S
C183 H195 0.930 . S
C184 C180 1.524 . S
C184 H196 0.956 . S
C184 H197 0.961 . S
C184 H198 0.961 . S
C185 C182 1.539 . S
C185 H199 0.958 . S
C185 H200 0.961 . S
C185 H201 0.960 . S
H186 C170 0.931 . S
H187 C175 0.929 . S
H188 C176 0.960 . S
H189 C176 0.962 . S
H190 C176 0.960 . S
H191 C177 0.961 . S
H192 C177 0.961 . S
H193 C177 0.961 . S
H194 C178 0.931 . S
H195 C183 0.930 . S
H196 C184 0.956 . S
H197 C184 0.961 . S
H198 C184 0.961 . S
H199 C185 0.958 . S
H200 C185 0.961 . S
H201 C185 0.960 . S
C202 C203 1.391 . S
C202 C204 1.394 . S
C202 H218 0.931 . S
C203 C202 1.391 . S
C203 C207 1.376 . S
C204 C202 1.394 . S
C204 C205 1.369 . S
C204 C208 1.531 . S
C205 C204 1.369 . S
C205 C206 1.410 . S
C205 C213 1.503 . S
C206 C205 1.410 . S
C206 C207 1.392 . S
C206 C209 1.511 . S
C207 C203 1.376 . S
C207 C206 1.392 . S
C207 H219 0.929 . S
C208 C204 1.531 . S
C208 H220 0.960 . S
C208 H221 0.962 . S
C208 H222 0.960 . S
C209 C206 1.511 . S
C209 H223 0.961 . S
C209 H224 0.961 . S
C209 H225 0.961 . S
C210 C211 1.370 . S
C210 C212 1.363 . S
C210 H226 0.931 . S
C211 C210 1.370 . S
C211 C215 1.408 . S
C212 C210 1.363 . S
C212 C213 1.370 . S
C212 C216 1.524 . S
C213 C205 1.503 . S
C213 C212 1.370 . S
C213 C214 1.403 . S
C214 C213 1.403 . S
C214 C215 1.404 . S
C214 C217 1.539 . S
C215 C211 1.408 . S
C215 C214 1.404 . S
C215 H227 0.930 . S
C216 C212 1.524 . S
C216 H228 0.956 . S
C216 H229 0.961 . S
C216 H230 0.961 . S
C217 C214 1.539 . S
C217 H231 0.958 . S
C217 H232 0.961 . S
C217 H233 0.960 . S
H218 C202 0.931 . S
H219 C207 0.929 . S
H220 C208 0.960 . S
H221 C208 0.962 . S
H222 C208 0.960 . S
H223 C209 0.961 . S
H224 C209 0.961 . S
H225 C209 0.961 . S
H226 C210 0.931 . S
H227 C215 0.930 . S
H228 C216 0.956 . S
H229 C216 0.961 . S
H230 C216 0.961 . S
H231 C217 0.958 . S
H232 C217 0.961 . S
H233 C217 0.960 . S
C234 C235 1.391 . S
C234 C236 1.394 . S
C234 H250 0.931 . S
C235 C234 1.391 . S
C235 C239 1.376 . S
C236 C234 1.394 . S
C236 C237 1.369 . S
C236 C240 1.531 . S
C237 C236 1.369 . S
C237 C238 1.410 . S
C237 C245 1.503 . S
C238 C237 1.410 . S
C238 C239 1.392 . S
C238 C241 1.511 . S
C239 C235 1.376 . S
C239 C238 1.392 . S
C239 H251 0.929 . S
C240 C236 1.531 . S
C240 H252 0.960 . S
C240 H253 0.962 . S
C240 H254 0.960 . S
C241 C238 1.511 . S
C241 H255 0.961 . S
C241 H256 0.961 . S
C241 H257 0.961 . S
C242 C243 1.370 . S
C242 C244 1.363 . S
C242 H258 0.931 . S
C243 C242 1.370 . S
C243 C247 1.408 . S
C244 C242 1.363 . S
C244 C245 1.370 . S
C244 C248 1.524 . S
C245 C237 1.503 . S
C245 C244 1.370 . S
C245 C246 1.403 . S
C246 C245 1.403 . S
C246 C247 1.404 . S
C246 C249 1.539 . S
C247 C243 1.408 . S
C247 C246 1.404 . S
C247 H259 0.930 . S
C248 C244 1.524 . S
C248 H260 0.956 . S
C248 H261 0.961 . S
C248 H262 0.961 . S
C249 C246 1.539 . S
C249 H263 0.958 . S
C249 H264 0.961 . S
C249 H265 0.960 . S
H250 C234 0.931 . S
H251 C239 0.929 . S
H252 C240 0.960 . S
H253 C240 0.962 . S
H254 C240 0.960 . S
H255 C241 0.961 . S
H256 C241 0.961 . S
H257 C241 0.961 . S
H258 C242 0.931 . S
H259 C247 0.930 . S
H260 C248 0.956 . S
H261 C248 0.961 . S
H262 C248 0.961 . S
H263 C249 0.958 . S
H264 C249 0.961 . S
H265 C249 0.960 . S
C266 C267 1.391 . S
C266 C268 1.394 . S
C266 H282 0.931 . S
C267 C266 1.391 . S
C267 C271 1.376 . S
C268 C266 1.394 . S
C268 C269 1.369 . S
C268 C272 1.531 . S
C269 C268 1.369 . S
C269 C270 1.410 . S
C269 C277 1.503 . S
C270 C269 1.410 . S
C270 C271 1.392 . S
C270 C273 1.511 . S
C271 C267 1.376 . S
C271 C270 1.392 . S
C271 H283 0.929 . S
C272 C268 1.531 . S
C272 H284 0.960 . S
C272 H285 0.962 . S
C272 H286 0.960 . S
C273 C270 1.511 . S
C273 H287 0.961 . S
C273 H288 0.961 . S
C273 H289 0.961 . S
C274 C275 1.370 . S
C274 C276 1.363 . S
C274 H290 0.931 . S
C275 C274 1.370 . S
C275 C279 1.408 . S
C276 C274 1.363 . S
C276 C277 1.370 . S
C276 C280 1.524 . S
C277 C269 1.503 . S
C277 C276 1.370 . S
C277 C278 1.403 . S
C278 C277 1.403 . S
C278 C279 1.404 . S
C278 C281 1.539 . S
C279 C275 1.408 . S
C279 C278 1.404 . S
C279 H291 0.930 . S
C280 C276 1.524 . S
C280 H292 0.956 . S
C280 H293 0.961 . S
C280 H294 0.961 . S
C281 C278 1.539 . S
C281 H295 0.958 . S
C281 H296 0.961 . S
C281 H297 0.960 . S
H282 C266 0.931 . S
H283 C271 0.929 . S
H284 C272 0.960 . S
H285 C272 0.962 . S
H286 C272 0.960 . S
H287 C273 0.961 . S
H288 C273 0.961 . S
H289 C273 0.961 . S
H290 C274 0.931 . S
H291 C279 0.930 . S
H292 C280 0.956 . S
H293 C280 0.961 . S
H294 C280 0.961 . S
H295 C281 0.958 . S
H296 C281 0.961 . S
H297 C281 0.960 . S
C298 C299 1.391 . S
C298 C300 1.394 . S
C298 H314 0.931 . S
C299 C298 1.391 . S
C299 C303 1.376 . S
C300 C298 1.394 . S
C300 C301 1.369 . S
C300 C304 1.531 . S
C301 C300 1.369 . S
C301 C302 1.410 . S
C301 C309 1.503 . S
C302 C301 1.410 . S
C302 C303 1.392 . S
C302 C305 1.511 . S
C303 C299 1.376 . S
C303 C302 1.392 . S
C303 H315 0.929 . S
C304 C300 1.531 . S
C304 H316 0.960 . S
C304 H317 0.962 . S
C304 H318 0.960 . S
C305 C302 1.511 . S
C305 H319 0.961 . S
C305 H320 0.961 . S
C305 H321 0.961 . S
C306 C307 1.370 . S
C306 C308 1.363 . S
C306 H322 0.931 . S
C307 C306 1.370 . S
C307 C311 1.408 . S
C308 C306 1.363 . S
C308 C309 1.370 . S
C308 C312 1.524 . S
C309 C301 1.503 . S
C309 C308 1.370 . S
C309 C310 1.403 . S
C310 C309 1.403 . S
C310 C311 1.404 . S
C310 C313 1.539 . S
C311 C307 1.408 . S
C311 C310 1.404 . S
C311 H323 0.930 . S
C312 C308 1.524 . S
C312 H324 0.956 . S
C312 H325 0.961 . S
C312 H326 0.961 . S
C313 C310 1.539 . S
C313 H327 0.958 . S
C313 H328 0.961 . S
C313 H329 0.960 . S
H314 C298 0.931 . S
H315 C303 0.929 . S
H316 C304 0.960 . S
H317 C304 0.962 . S
H318 C304 0.960 . S
H319 C305 0.961 . S
H320 C305 0.961 . S
H321 C305 0.961 . S
H322 C306 0.931 . S
H323 C311 0.930 . S
H324 C312 0.956 . S
H325 C312 0.961 . S
H326 C312 0.961 . S
H327 C313 0.958 . S
H328 C313 0.961 . S
H329 C313 0.960 . S
C330 C331 1.391 . S
C330 C332 1.394 . S
C330 H346 0.931 . S
C331 C330 1.391 . S
C331 C335 1.376 . S
C332 C330 1.394 . S
C332 C333 1.369 . S
C332 C336 1.531 . S
C333 C332 1.369 . S
C333 C334 1.410 . S
C333 C341 1.503 . S
C334 C333 1.410 . S
C334 C335 1.392 . S
C334 C337 1.511 . S
C335 C331 1.376 . S
C335 C334 1.392 . S
C335 H347 0.929 . S
C336 C332 1.531 . S
C336 H348 0.960 . S
C336 H349 0.962 . S
C336 H350 0.960 . S
C337 C334 1.511 . S
C337 H351 0.961 . S
C337 H352 0.961 . S
C337 H353 0.961 . S
C338 C339 1.370 . S
C338 C340 1.363 . S
C338 H354 0.931 . S
C339 C338 1.370 . S
C339 C343 1.408 . S
C340 C338 1.363 . S
C340 C341 1.370 . S
C340 C344 1.524 . S
C341 C333 1.503 . S
C341 C340 1.370 . S
C341 C342 1.403 . S
C342 C341 1.403 . S
C342 C343 1.404 . S
C342 C345 1.539 . S
C343 C339 1.408 . S
C343 C342 1.404 . S
C343 H355 0.930 . S
C344 C340 1.524 . S
C344 H356 0.956 . S
C344 H357 0.961 . S
C344 H358 0.961 . S
C345 C342 1.539 . S
C345 H359 0.958 . S
C345 H360 0.961 . S
C345 H361 0.960 . S
H346 C330 0.931 . S
H347 C335 0.929 . S
H348 C336 0.960 . S
H349 C336 0.962 . S
H350 C336 0.960 . S
H351 C337 0.961 . S
H352 C337 0.961 . S
H353 C337 0.961 . S
H354 C338 0.931 . S
H355 C343 0.930 . S
H356 C344 0.956 . S
H357 C344 0.961 . S
H358 C344 0.961 . S
H359 C345 0.958 . S
H360 C345 0.961 . S
H361 C345 0.960 . S
C362 C363 1.391 . S
C362 C364 1.394 . S
C362 H378 0.931 . S
C363 C362 1.391 . S
C363 C367 1.376 . S
C364 C362 1.394 . S
C364 C365 1.369 . S
C364 C368 1.531 . S
C365 C364 1.369 . S
C365 C366 1.410 . S
C365 C373 1.503 . S
C366 C365 1.410 . S
C366 C367 1.392 . S
C366 C369 1.511 . S
C367 C363 1.376 . S
C367 C366 1.392 . S
C367 H379 0.929 . S
C368 C364 1.531 . S
C368 H380 0.960 . S
C368 H381 0.962 . S
C368 H382 0.960 . S
C369 C366 1.511 . S
C369 H383 0.961 . S
C369 H384 0.961 . S
C369 H385 0.961 . S
C370 C371 1.370 . S
C370 C372 1.363 . S
C370 H386 0.931 . S
C371 C370 1.370 . S
C371 C375 1.408 . S
C372 C370 1.363 . S
C372 C373 1.370 . S
C372 C376 1.524 . S
C373 C365 1.503 . S
C373 C372 1.370 . S
C373 C374 1.403 . S
C374 C373 1.403 . S
C374 C375 1.404 . S
C374 C377 1.539 . S
C375 C371 1.408 . S
C375 C374 1.404 . S
C375 H387 0.930 . S
C376 C372 1.524 . S
C376 H388 0.956 . S
C376 H389 0.961 . S
C376 H390 0.961 . S
C377 C374 1.539 . S
C377 H391 0.958 . S
C377 H392 0.961 . S
C377 H393 0.960 . S
H378 C362 0.931 . S
H379 C367 0.929 . S
H380 C368 0.960 . S
H381 C368 0.962 . S
H382 C368 0.960 . S
H383 C369 0.961 . S
H384 C369 0.961 . S
H385 C369 0.961 . S
H386 C370 0.931 . S
H387 C375 0.930 . S
H388 C376 0.956 . S
H389 C376 0.961 . S
H390 C376 0.961 . S
H391 C377 0.958 . S
H392 C377 0.961 . S
H393 C377 0.960 . S
C394 C395 1.391 . S
C394 C396 1.394 . S
C394 H410 0.931 . S
C395 C394 1.391 . S
C395 C399 1.376 . S
C396 C394 1.394 . S
C396 C397 1.369 . S
C396 C400 1.531 . S
C397 C396 1.369 . S
C397 C398 1.410 . S
C397 C405 1.503 . S
C398 C397 1.410 . S
C398 C399 1.392 . S
C398 C401 1.511 . S
C399 C395 1.376 . S
C399 C398 1.392 . S
C399 H411 0.929 . S
C400 C396 1.531 . S
C400 H412 0.960 . S
C400 H413 0.962 . S
C400 H414 0.960 . S
C401 C398 1.511 . S
C401 H415 0.961 . S
C401 H416 0.961 . S
C401 H417 0.961 . S
C402 C403 1.370 . S
C402 C404 1.363 . S
C402 H418 0.931 . S
C403 C402 1.370 . S
C403 C407 1.408 . S
C404 C402 1.363 . S
C404 C405 1.370 . S
C404 C408 1.524 . S
C405 C397 1.503 . S
C405 C404 1.370 . S
C405 C406 1.403 . S
C406 C405 1.403 . S
C406 C407 1.404 . S
C406 C409 1.539 . S
C407 C403 1.408 . S
C407 C406 1.404 . S
C407 H419 0.930 . S
C408 C404 1.524 . S
C408 H420 0.956 . S
C408 H421 0.961 . S
C408 H422 0.961 . S
C409 C406 1.539 . S
C409 H423 0.958 . S
C409 H424 0.961 . S
C409 H425 0.960 . S
H410 C394 0.931 . S
H411 C399 0.929 . S
H412 C400 0.960 . S
H413 C400 0.962 . S
H414 C400 0.960 . S
H415 C401 0.961 . S
H416 C401 0.961 . S
H417 C401 0.961 . S
H418 C402 0.931 . S
H419 C407 0.930 . S
H420 C408 0.956 . S
H421 C408 0.961 . S
H422 C408 0.961 . S
H423 C409 0.958 . S
H424 C409 0.961 . S
H425 C409 0.960 . S
C426 C427 1.391 . S
C426 C428 1.394 . S
C426 H442 0.931 . S
C427 C426 1.391 . S
C427 C431 1.376 . S
C428 C426 1.394 . S
C428 C429 1.369 . S
C428 C432 1.531 . S
C429 C428 1.369 . S
C429 C430 1.410 . S
C429 C437 1.503 . S
C430 C429 1.410 . S
C430 C431 1.392 . S
C430 C433 1.511 . S
C431 C427 1.376 . S
C431 C430 1.392 . S
C431 H443 0.929 . S
C432 C428 1.531 . S
C432 H444 0.960 . S
C432 H445 0.962 . S
C432 H446 0.960 . S
C433 C430 1.511 . S
C433 H447 0.961 . S
C433 H448 0.961 . S
C433 H449 0.961 . S
C434 C435 1.370 . S
C434 C436 1.363 . S
C434 H450 0.931 . S
C435 C434 1.370 . S
C435 C439 1.408 . S
C436 C434 1.363 . S
C436 C437 1.370 . S
C436 C440 1.524 . S
C437 C429 1.503 . S
C437 C436 1.370 . S
C437 C438 1.403 . S
C438 C437 1.403 . S
C438 C439 1.404 . S
C438 C441 1.539 . S
C439 C435 1.408 . S
C439 C438 1.404 . S
C439 H451 0.930 . S
C440 C436 1.524 . S
C440 H452 0.956 . S
C440 H453 0.961 . S
C440 H454 0.961 . S
C441 C438 1.539 . S
C441 H455 0.958 . S
C441 H456 0.961 . S
C441 H457 0.960 . S
H442 C426 0.931 . S
H443 C431 0.929 . S
H444 C432 0.960 . S
H445 C432 0.962 . S
H446 C432 0.960 . S
H447 C433 0.961 . S
H448 C433 0.961 . S
H449 C433 0.961 . S
H450 C434 0.931 . S
H451 C439 0.930 . S
H452 C440 0.956 . S
H453 C440 0.961 . S
H454 C440 0.961 . S
H455 C441 0.958 . S
H456 C441 0.961 . S
H457 C441 0.960 . S
C458 C459 1.391 . S
C458 C460 1.394 . S
C458 H474 0.931 . S
C459 C458 1.391 . S
C459 C463 1.376 . S
C460 C458 1.394 . S
C460 C461 1.369 . S
C460 C464 1.531 . S
C461 C460 1.369 . S
C461 C462 1.410 . S
C461 C469 1.503 . S
C462 C461 1.410 . S
C462 C463 1.392 . S
C462 C465 1.511 . S
C463 C459 1.376 . S
C463 C462 1.392 . S
C463 H475 0.929 . S
C464 C460 1.531 . S
C464 H476 0.960 . S
C464 H477 0.962 . S
C464 H478 0.960 . S
C465 C462 1.511 . S
C465 H479 0.961 . S
C465 H480 0.961 . S
C465 H481 0.961 . S
C466 C467 1.370 . S
C466 C468 1.363 . S
C466 H482 0.931 . S
C467 C466 1.370 . S
C467 C471 1.408 . S
C468 C466 1.363 . S
C468 C469 1.370 . S
C468 C472 1.524 . S
C469 C461 1.503 . S
C469 C468 1.370 . S
C469 C470 1.403 . S
C470 C469 1.403 . S
C470 C471 1.404 . S
C470 C473 1.539 . S
C471 C467 1.408 . S
C471 C470 1.404 . S
C471 H483 0.930 . S
C472 C468 1.524 . S
C472 H484 0.956 . S
C472 H485 0.961 . S
C472 H486 0.961 . S
C473 C470 1.539 . S
C473 H487 0.958 . S
C473 H488 0.961 . S
C473 H489 0.960 . S
H474 C458 0.931 . S
H475 C463 0.929 . S
H476 C464 0.960 . S
H477 C464 0.962 . S
H478 C464 0.960 . S
H479 C465 0.961 . S
H480 C465 0.961 . S
H481 C465 0.961 . S
H482 C466 0.931 . S
H483 C471 0.930 . S
H484 C472 0.956 . S
H485 C472 0.961 . S
H486 C472 0.961 . S
H487 C473 0.958 . S
H488 C473 0.961 . S
H489 C473 0.960 . S
C490 C491 1.391 . S
C490 C492 1.394 . S
C490 H506 0.931 . S
C491 C490 1.391 . S
C491 C495 1.376 . S
C492 C490 1.394 . S
C492 C493 1.369 . S
C492 C496 1.531 . S
C493 C492 1.369 . S
C493 C494 1.410 . S
C493 C501 1.503 . S
C494 C493 1.410 . S
C494 C495 1.392 . S
C494 C497 1.511 . S
C495 C491 1.376 . S
C495 C494 1.392 . S
C495 H507 0.929 . S
C496 C492 1.531 . S
C496 H508 0.960 . S
C496 H509 0.962 . S
C496 H510 0.960 . S
C497 C494 1.511 . S
C497 H511 0.961 . S
C497 H512 0.961 . S
C497 H513 0.961 . S
C498 C499 1.370 . S
C498 C500 1.363 . S
C498 H514 0.931 . S
C499 C498 1.370 . S
C499 C503 1.408 . S
C500 C498 1.363 . S
C500 C501 1.370 . S
C500 C504 1.524 . S
C501 C493 1.503 . S
C501 C500 1.370 . S
C501 C502 1.403 . S
C502 C501 1.403 . S
C502 C503 1.404 . S
C502 C505 1.539 . S
C503 C499 1.408 . S
C503 C502 1.404 . S
C503 H515 0.930 . S
C504 C500 1.524 . S
C504 H516 0.956 . S
C504 H517 0.961 . S
C504 H518 0.961 . S
C505 C502 1.539 . S
C505 H519 0.958 . S
C505 H520 0.961 . S
C505 H521 0.960 . S
H506 C490 0.931 . S
H507 C495 0.929 . S
H508 C496 0.960 . S
H509 C496 0.962 . S
H510 C496 0.960 . S
H511 C497 0.961 . S
H512 C497 0.961 . S
H513 C497 0.961 . S
H514 C498 0.931 . S
H515 C503 0.930 . S
H516 C504 0.956 . S
H517 C504 0.961 . S
H518 C504 0.961 . S
H519 C505 0.958 . S
H520 C505 0.961 . S
H521 C505 0.960 . S
C522 C523 1.391 . S
C522 C524 1.394 . S
C522 H538 0.931 . S
C523 C522 1.391 . S
C523 C527 1.376 1_455 S
C524 C522 1.394 . S
C524 C525 1.369 . S
C524 C528 1.531 . S
C525 C524 1.369 . S
C525 C526 1.410 1_455 S
C525 C533 1.503 1_554 S
C526 C525 1.410 1_655 S
C526 C527 1.392 . S
C526 C529 1.526 . S
C527 C523 1.376 1_655 S
C527 C526 1.392 . S
C527 H539 0.929 . S
C528 C524 1.531 . S
C528 H540 0.960 1_554 S
C528 H541 0.962 . S
C528 H542 0.960 . S
C529 C526 1.526 . S
C529 H543 0.973 . S
C529 H544 0.942 1_554 S
C529 H545 0.953 1_554 S
C530 C531 1.370 . S
C530 C532 1.363 . S
C530 H546 0.931 . S
C531 C530 1.370 . S
C531 C535 1.408 . S
C532 C530 1.363 . S
C532 C533 1.370 . S
C532 C536 1.524 . S
C533 C525 1.503 1_556 S
C533 C532 1.370 . S
C533 C534 1.403 . S
C534 C533 1.403 . S
C534 C535 1.404 . S
C534 C537 1.539 . S
C535 C531 1.408 . S
C535 C534 1.404 . S
C535 H547 0.930 . S
C536 C532 1.524 . S
C536 H548 0.956 1_556 S
C536 H549 0.961 1_456 S
C536 H550 0.961 . S
C537 C534 1.539 . S
C537 H551 0.958 . S
C537 H552 0.961 . S
C537 H553 0.960 . S
H538 C522 0.931 . S
H539 C527 0.929 . S
H540 C528 0.960 1_556 S
H541 C528 0.962 . S
H542 C528 0.960 . S
H543 C529 0.973 . S
H544 C529 0.942 1_556 S
H545 C529 0.953 1_556 S
H546 C530 0.931 . S
H547 C535 0.930 . S
H548 C536 0.956 1_554 S
H549 C536 0.961 1_654 S
H550 C536 0.961 . S
H551 C537 0.958 . S
H552 C537 0.961 . S
H553 C537 0.960 . S
C554 C555 1.391 . S
C554 C556 1.394 . S
C554 H570 0.921 1_545 S
C555 C554 1.391 . S
C555 C559 1.376 . S
C556 C554 1.394 . S
C556 C557 1.369 . S
C556 C560 1.531 1_545 S
C557 C556 1.369 . S
C557 C558 1.410 . S
C557 C565 1.503 . S
C558 C557 1.410 . S
C558 C559 1.392 . S
C558 C561 1.511 . S
C559 C555 1.376 . S
C559 C558 1.392 . S
C559 H571 0.929 . S
C560 C556 1.531 1_565 S
C560 H572 0.960 . S
C560 H573 0.962 1_565 S
C560 H574 0.960 . S
C561 C558 1.511 . S
C561 H575 0.961 . S
C561 H576 0.961 . S
C561 H577 0.961 . S
C562 C563 1.370 . S
C562 C564 1.363 . S
C562 H578 0.931 . S
C563 C562 1.370 . S
C563 C567 1.408 1_545 S
C564 C562 1.363 . S
C564 C565 1.370 . S
C564 C568 1.524 . S
C565 C557 1.503 . S
C565 C564 1.370 . S
C565 C566 1.403 1_545 S
C566 C565 1.403 1_565 S
C566 C567 1.404 . S
C566 C569 1.539 . S
C567 C563 1.408 1_565 S
C567 C566 1.404 . S
C567 H579 0.930 . S
C568 C564 1.524 . S
C568 H580 0.956 . S
C568 H581 0.961 . S
C568 H582 0.961 . S
C569 C566 1.539 . S
C569 H583 0.958 . S
C569 H584 0.961 . S
C569 H585 0.960 . S
H570 C554 0.921 1_565 S
H571 C559 0.929 . S
H572 C560 0.960 . S
H573 C560 0.962 1_545 S
H574 C560 0.960 . S
H575 C561 0.961 . S
H576 C561 0.961 . S
H577 C561 0.961 . S
H578 C562 0.931 . S
H579 C567 0.930 . S
H580 C568 0.956 . S
H581 C568 0.961 . S
H582 C568 0.961 . S
H583 C569 0.958 . S
H584 C569 0.961 . S
H585 C569 0.960 . S
C586 C587 1.391 . S
C586 C588 1.394 . S
C586 H602 0.931 . S
C587 C586 1.391 . S
C587 C591 1.376 . S
C588 C586 1.394 . S
C588 C589 1.369 . S
C588 C592 1.531 . S
C589 C588 1.369 . S
C589 C590 1.410 . S
C589 C597 1.503 . S
C590 C589 1.410 . S
C590 C591 1.392 . S
C590 C593 1.511 . S
C591 C587 1.376 . S
C591 C590 1.392 . S
C591 H603 0.929 . S
C592 C588 1.531 . S
C592 H604 0.960 . S
C592 H605 0.962 . S
C592 H606 0.960 . S
C593 C590 1.511 . S
C593 H607 0.961 . S
C593 H608 0.961 . S
C593 H609 0.961 . S
C594 C595 1.370 . S
C594 C596 1.363 . S
C594 H610 0.931 . S
C595 C594 1.370 . S
C595 C599 1.408 . S
C596 C594 1.363 . S
C596 C597 1.370 . S
C596 C600 1.524 . S
C597 C589 1.503 . S
C597 C596 1.370 . S
C597 C598 1.403 . S
C598 C597 1.403 . S
C598 C599 1.404 . S
C598 C601 1.539 . S
C599 C595 1.408 . S
C599 C598 1.404 . S
C599 H611 0.930 . S
C600 C596 1.524 . S
C600 H612 0.956 . S
C600 H613 0.961 . S
C600 H614 0.961 . S
C601 C598 1.539 . S
C601 H615 0.958 . S
C601 H616 0.961 . S
C601 H617 0.960 . S
H602 C586 0.931 . S
H603 C591 0.929 . S
H604 C592 0.960 . S
H605 C592 0.962 . S
H606 C592 0.960 . S
H607 C593 0.961 . S
H608 C593 0.961 . S
H609 C593 0.961 . S
H610 C594 0.931 . S
H611 C599 0.930 . S
H612 C600 0.956 . S
H613 C600 0.961 . S
H614 C600 0.961 . S
H615 C601 0.958 . S
H616 C601 0.961 . S
H617 C601 0.960 . S
C618 C619 1.391 1_565 S
C618 C620 1.394 . S
C618 H634 0.931 . S
C619 C618 1.391 1_545 S
C619 C623 1.376 . S
C620 C618 1.394 . S
C620 C621 1.369 1_565 S
C620 C624 1.531 . S
C621 C620 1.369 1_545 S
C621 C622 1.410 . S
C621 C629 1.503 . S
C622 C621 1.410 . S
C622 C623 1.392 . S
C622 C625 1.511 . S
C623 C619 1.376 . S
C623 C622 1.392 . S
C623 H635 0.929 . S
C624 C620 1.531 . S
C624 H636 0.960 . S
C624 H637 0.962 . S
C624 H638 0.960 . S
C625 C622 1.511 . S
C625 H639 0.961 . S
C625 H640 0.961 . S
C625 H641 0.961 . S
C626 C627 1.370 . S
C626 C628 1.363 . S
C626 H642 0.931 . S
C627 C626 1.370 . S
C627 C631 1.408 1_545 S
C628 C626 1.363 . S
C628 C629 1.370 . S
C628 C632 1.524 . S
C629 C621 1.503 . S
C629 C628 1.370 . S
C629 C630 1.403 1_545 S
C630 C629 1.403 1_565 S
C630 C631 1.404 . S
C630 C633 1.539 . S
C631 C627 1.408 1_565 S
C631 C630 1.404 . S
C631 H643 0.930 . S
C632 C628 1.524 . S
C632 H644 0.956 . S
C632 H645 0.961 . S
C632 H646 0.961 . S
C633 C630 1.539 . S
C633 H647 0.958 . S
C633 H648 0.961 . S
C633 H649 0.960 . S
H634 C618 0.931 . S
H635 C623 0.929 . S
H636 C624 0.960 . S
H637 C624 0.962 . S
H638 C624 0.960 . S
H639 C625 0.961 . S
H640 C625 0.961 . S
H641 C625 0.961 . S
H642 C626 0.931 . S
H643 C631 0.930 . S
H644 C632 0.956 . S
H645 C632 0.961 . S
H646 C632 0.961 . S
H647 C633 0.958 . S
H648 C633 0.961 . S
H649 C633 0.960 . S
C650 C651 1.391 . S
C650 C652 1.394 . S
C650 H666 0.931 . S
C651 C650 1.391 . S
C651 C655 1.376 . S
C652 C650 1.394 . S
C652 C653 1.369 . S
C652 C656 1.531 . S
C653 C652 1.369 . S
C653 C654 1.410 . S
C653 C661 1.503 1_556 S
C654 C653 1.410 . S
C654 C655 1.392 . S
C654 C657 1.511 . S
C655 C651 1.376 . S
C655 C654 1.392 . S
C655 H667 0.929 . S
C656 C652 1.531 . S
C656 H668 0.960 . S
C656 H669 0.962 . S
C656 H670 0.960 . S
C657 C654 1.511 . S
C657 H671 0.961 . S
C657 H672 0.961 1_556 S
C657 H673 0.961 . S
C658 C659 1.370 . S
C658 C660 1.363 . S
C658 H674 0.931 . S
C659 C658 1.370 . S
C659 C663 1.408 . S
C660 C658 1.363 . S
C660 C661 1.370 . S
C660 C664 1.524 . S
C661 C653 1.503 1_554 S
C661 C660 1.370 . S
C661 C662 1.403 . S
C662 C661 1.403 . S
C662 C663 1.404 . S
C662 C665 1.538 1_554 S
C663 C659 1.408 . S
C663 C662 1.404 . S
C663 H675 0.930 . S
C664 C660 1.524 . S
C664 H676 0.956 . S
C664 H677 0.961 . S
C664 H678 0.961 . S
C665 C662 1.538 1_556 S
C665 H679 0.959 . S
C665 H680 0.960 1_556 S
C665 H681 0.961 . S
H666 C650 0.931 . S
H667 C655 0.929 . S
H668 C656 0.960 . S
H669 C656 0.962 . S
H670 C656 0.960 . S
H671 C657 0.961 . S
H672 C657 0.961 1_554 S
H673 C657 0.961 . S
H674 C658 0.931 . S
H675 C663 0.930 . S
H676 C664 0.956 . S
H677 C664 0.961 . S
H678 C664 0.961 . S
H679 C665 0.959 . S
H680 C665 0.960 1_554 S
H681 C665 0.961 . S
C682 C683 1.391 . S
C682 C684 1.394 . S
C682 H698 0.931 . S
C683 C682 1.391 . S
C683 C687 1.376 1_655 S
C684 C682 1.394 . S
C684 C685 1.369 . S
C684 C688 1.531 . S
C685 C684 1.369 . S
C685 C686 1.410 1_655 S
C685 C693 1.503 . S
C686 C685 1.410 1_455 S
C686 C687 1.392 . S
C686 C689 1.511 . S
C687 C683 1.376 1_455 S
C687 C686 1.392 . S
C687 H699 0.929 . S
C688 C684 1.531 . S
C688 H700 0.960 . S
C688 H701 0.962 . S
C688 H702 0.960 . S
C689 C686 1.511 . S
C689 H703 0.961 . S
C689 H704 0.961 . S
C689 H705 0.961 . S
C690 C691 1.370 1_455 S
C690 C692 1.363 . S
C690 H706 0.931 . S
C691 C690 1.370 1_655 S
C691 C695 1.409 . S
C692 C690 1.363 . S
C692 C693 1.370 1_455 S
C692 C696 1.524 . S
C693 C685 1.503 . S
C693 C692 1.370 1_655 S
C693 C694 1.403 . S
C694 C693 1.403 . S
C694 C695 1.404 . S
C694 C697 1.539 . S
C695 C691 1.409 . S
C695 C694 1.404 . S
C695 H707 0.930 . S
C696 C692 1.524 . S
C696 H708 0.956 . S
C696 H709 0.961 . S
C696 H710 0.961 . S
C697 C694 1.539 . S
C697 H711 0.958 . S
C697 H712 0.961 . S
C697 H713 0.960 . S
H698 C682 0.931 . S
H699 C687 0.929 . S
H700 C688 0.960 . S
H701 C688 0.962 . S
H702 C688 0.960 . S
H703 C689 0.961 . S
H704 C689 0.961 . S
H705 C689 0.961 . S
H706 C690 0.931 . S
H707 C695 0.930 . S
H708 C696 0.956 . S
H709 C696 0.961 . S
H710 C696 0.961 . S
H711 C697 0.958 . S
H712 C697 0.961 . S
H713 C697 0.960 . S
C139 C8 1.705 . S
C147 N127 1.714 . S
C171 C26 1.270 . S
C179 N100 1.269 . S
C203 C48 1.399 . S
C211 N113 1.485 1_565 S
C235 C19 1.982 . S
C243 N126 2.107 . S
C275 N101 1.545 . S
C267 C36 1.468 . S
C307 N114 1.706 . S
C299 C59 1.631 . S
C331 C28 1.433 . S
C339 N74 1.488 . S
C363 C46 0.955 . S
C371 N88 0.917 1_655 S
C395 C16 1.513 . S
C403 N62 1.521 . S
C435 N75 1.694 . S
C427 C39 1.599 . S
C467 N87 1.321 . S
C459 C56 1.215 . S
C491 C6 1.319 . S
C499 N61 1.306 . S
C531 N91 1.525 . S
C523 C9 1.536 . S
C555 C21 1.504 . S
C563 N65 1.525 . S
C587 C49 1.555 . S
C595 N78 1.569 . S
C627 N117 1.541 . S
C619 C29 1.544 . S
C659 N130 1.588 . S
C651 C41 1.612 . S
C683 C1 1.576 . S
C691 N104 1.580 1_655 S
