# Generated by pormake.
# Topology anh, (6,3)-cn, num edge types: 1
# Building blocks:
#     Node 0, Type 0, BuildingBlock: BETFEN_clean_sbu_0, # of connection points: 6
#     Node 1, Type 0, BuildingBlock: BETFEN_clean_sbu_0, # of connection points: 6
#     Node 2, Type 0, BuildingBlock: BETFEN_clean_sbu_0, # of connection points: 6
#     Node 3, Type 1, BuildingBlock: QEWDON_clean_linker_0, # of connection points: 3
#     Node 4, Type 1, BuildingBlock: QEWDON_clean_linker_0, # of connection points: 3
#     Node 5, Type 1, BuildingBlock: QEWDON_clean_linker_0, # of connection points: 3
#     Node 6, Type 1, BuildingBlock: QEWDON_clean_linker_0, # of connection points: 3
#     Node 7, Type 1, BuildingBlock: QEWDON_clean_linker_0, # of connection points: 3
#     Node 8, Type 1, BuildingBlock: QEWDON_clean_linker_0, # of connection points: 3
#     Edge 9, Type (0, 1), BuildingBlock: MIFKUJ_clean_linker_0, # of connection points: 2
#     Edge 10, Type (0, 1), BuildingBlock: MIFKUJ_clean_linker_0, # of connection points: 2
#     Edge 11, Type (0, 1), BuildingBlock: MIFKUJ_clean_linker_0, # of connection points: 2
#     Edge 12, Type (0, 1), BuildingBlock: MIFKUJ_clean_linker_0, # of connection points: 2
#     Edge 13, Type (0, 1), BuildingBlock: MIFKUJ_clean_linker_0, # of connection points: 2
#     Edge 14, Type (0, 1), BuildingBlock: MIFKUJ_clean_linker_0, # of connection points: 2
#     Edge 15, Type (0, 1), BuildingBlock: MIFKUJ_clean_linker_0, # of connection points: 2
#     Edge 16, Type (0, 1), BuildingBlock: MIFKUJ_clean_linker_0, # of connection points: 2
#     Edge 17, Type (0, 1), BuildingBlock: MIFKUJ_clean_linker_0, # of connection points: 2
#     Edge 18, Type (0, 1), BuildingBlock: MIFKUJ_clean_linker_0, # of connection points: 2
#     Edge 19, Type (0, 1), BuildingBlock: MIFKUJ_clean_linker_0, # of connection points: 2
#     Edge 20, Type (0, 1), BuildingBlock: MIFKUJ_clean_linker_0, # of connection points: 2
#     Edge 21, Type (0, 1), BuildingBlock: MIFKUJ_clean_linker_0, # of connection points: 2
#     Edge 22, Type (0, 1), BuildingBlock: MIFKUJ_clean_linker_0, # of connection points: 2
#     Edge 23, Type (0, 1), BuildingBlock: MIFKUJ_clean_linker_0, # of connection points: 2
#     Edge 24, Type (0, 1), BuildingBlock: MIFKUJ_clean_linker_0, # of connection points: 2
#     Edge 25, Type (0, 1), BuildingBlock: MIFKUJ_clean_linker_0, # of connection points: 2
#     Edge 26, Type (0, 1), BuildingBlock: MIFKUJ_clean_linker_0, # of connection points: 2
# Relax obj value: 0.112
# Max RMSD: 0.164
# Mean RMSD: 0.127
data_MOF--net-anh--node1-BETFEN_clean_sbu_0--node2-QEWDON_clean_linker_0--edge1-MIFKUJ_clean_linker_0
_symmetry_space_group_name_H-M    P1
_symmetry_Int_Tables_number       1
_symmetry_cell_setting            triclinic
loop_
_symmetry_equiv_pos_as_xyz
'x, y, z'
_cell_length_a     40.687583
_cell_length_b     43.735016
_cell_length_c     62.833339
_cell_angle_alpha  94.63691
_cell_angle_beta   96.613875
_cell_angle_gamma 108.93494
loop_
_atom_site_label
_atom_site_type_symbol
_atom_site_fract_x
_atom_site_fract_y
_atom_site_fract_z
_atom_type_partial_charge
Pr0 Pr 0.04825 0.55396 0.15636 0.0
Pr1 Pr 0.0707 0.62426 0.1472 0.0
C2 C 1.0196 0.49612 0.17082 0.0
C3 C 0.985 0.4737 0.1739 0.0
C4 C 0.97713 0.44013 0.16856 0.0
C5 C 0.94475 0.41818 0.17142 0.0
C6 C 0.9195 0.42928 0.17992 0.0
C7 C 0.92737 0.46312 0.18502 0.0
C8 C 0.95976 0.48512 0.18197 0.0
C9 C 0.05187 0.5618 0.11301 0.0
C10 C 0.98708 0.58948 0.14755 0.0
C11 C 0.0994 0.68261 0.13339 0.0
C12 C 0.1328 0.71007 0.13819 0.0
C13 C 0.15494 0.71498 0.15792 0.0
C14 C 0.1861 0.74173 0.16258 0.0
C15 C 0.19584 0.76401 0.14753 0.0
C16 C 0.17376 0.75854 0.12761 0.0
C17 C 0.14254 0.73184 0.12301 0.0
C18 C 0.06824 0.61689 0.19075 0.0
C19 C 0.13187 0.58734 0.15389 0.0
O20 O 0.03253 0.52383 0.18349 0.0
O21 O 0.02526 0.4988 0.1509 0.0
O22 O 0.03874 0.57715 0.12547 0.0
O23 O 0.06239 0.54066 0.12256 0.0
O24 O 1.00973 0.61112 0.13812 0.0
O25 O 0.99695 0.56808 0.15799 0.0
O26 O 0.10058 0.65538 0.12381 0.0
O27 O 0.07953 0.67816 0.14859 0.0
O28 O 0.08073 0.60118 0.17813 0.0
O29 O 0.05848 0.63849 0.18133 0.0
O30 O 0.10892 0.5634 0.16152 0.0
O31 O 0.12278 0.6113 0.1463 0.0
H32 H 0.9961 0.43083 0.1621 0.0
H33 H 0.93944 0.39247 0.16675 0.0
H34 H 0.90884 0.47267 0.19178 0.0
H35 H 0.96515 0.51098 0.18609 0.0
H36 H 0.14792 0.69832 0.16983 0.0
H37 H 0.20216 0.74531 0.17817 0.0
H38 H 0.18067 0.7748 0.11548 0.0
H39 H 0.12589 0.72829 0.10763 0.0
Pr40 Pr 0.59255 0.10159 0.51213 0.0
Pr41 Pr 0.51022 0.07591 0.51372 0.0
C42 C 0.65818 0.13023 0.50334 0.0
C43 C 0.6801 0.16119 0.497 0.0
C44 C 0.71664 0.16886 0.49956 0.0
C45 C 0.73821 0.19873 0.49463 0.0
C46 C 0.72366 0.22166 0.487 0.0
C47 C 0.68683 0.21368 0.48427 0.0
C48 C 0.66525 0.18373 0.48925 0.0
C49 C 0.57215 0.09221 0.55234 0.0
C50 C 0.54919 0.15943 0.51415 0.0
C51 C 0.44775 0.04989 0.52713 0.0
C52 C 0.41842 1.01879 0.52113 0.0
C53 C 0.41447 1.00001 0.50121 0.0
C54 C 0.38775 0.96971 0.49599 0.0
C55 C 0.36457 0.9573 0.51068 0.0
C56 C 0.36864 0.97636 0.53063 0.0
C57 C 0.39527 1.00682 0.53577 0.0
C58 C 0.52173 0.07174 0.47053 0.0
C59 C 0.55425 1.01848 0.51249 0.0
O60 O 0.63233 0.11112 0.48886 0.0
O61 O 0.64982 0.13163 0.5228 0.0
O62 O 0.55853 0.10488 0.53803 0.0
O63 O 0.59857 0.08483 0.54646 0.0
O64 O 0.52037 0.13489 0.5169 0.0
O65 O 0.57827 0.15237 0.51098 0.0
O66 O 0.47703 0.04764 0.53684 0.0
O67 O 0.45274 0.07024 0.5126 0.0
O68 O 0.54432 0.08159 0.48716 0.0
O69 O 0.49052 0.06272 0.476 0.0
O70 O 0.58269 0.04269 0.50888 0.0
O71 O 0.52541 0.02578 0.51582 0.0
H72 H 0.72859 0.15187 0.50569 0.0
H73 H 0.7664 0.20413 0.49729 0.0
H74 H 0.67463 0.23052 0.47822 0.0
H75 H 0.63705 0.17828 0.4872 0.0
H76 H 0.43224 1.00869 0.48972 0.0
H77 H 0.38518 0.95609 0.48035 0.0
H78 H 0.35175 0.96749 0.54251 0.0
H79 H 0.3982 1.02075 0.55135 0.0
Pr80 Pr 0.55844 0.53346 0.81544 0.0
Pr81 Pr 0.58792 0.60114 0.84009 0.0
C82 C 0.54606 0.48031 0.78701 0.0
C83 C 0.56274 0.45533 0.78574 0.0
C84 C 0.58425 0.45205 0.80389 0.0
C85 C 0.59861 0.42711 0.80323 0.0
C86 C 0.59208 0.40526 0.78429 0.0
C87 C 0.57191 0.4098 0.76579 0.0
C88 C 0.5571 0.4345 0.76659 0.0
C89 C 0.56618 0.53351 0.86008 0.0
C90 C 0.64604 0.56779 0.82976 0.0
C91 C 0.60289 0.65589 0.86764 0.0
C92 C 0.58769 0.68184 0.86952 0.0
C93 C 0.56041 0.68185 0.85373 0.0
C94 C 0.54657 0.70708 0.85498 0.0
C95 C 0.55973 0.73264 0.87208 0.0
C96 C 0.58642 0.73206 0.88822 0.0
C97 C 0.60041 0.70679 0.8869 0.0
C98 C 0.57996 0.59962 0.79508 0.0
C99 C 0.50011 0.56558 0.82836 0.0
O100 O 0.56554 0.50941 0.78384 0.0
O101 O 0.52874 0.48054 0.8033 0.0
O102 O 0.58797 0.55211 0.85006 0.0
O103 O 0.54061 0.51214 0.84694 0.0
O104 O 0.63977 0.58852 0.84382 0.0
O105 O 0.62006 0.54718 0.81565 0.0
O106 O 0.58288 0.62736 0.8714 0.0
O107 O 0.61846 0.65445 0.85068 0.0
O108 O 0.55793 0.58229 0.80553 0.0
O109 O 0.6066 0.62012 0.80796 0.0
O110 O 0.50534 0.54418 0.81423 0.0
O111 O 0.52691 0.58735 0.84127 0.0
H112 H 0.58913 0.46825 0.81878 0.0
H113 H 0.61354 0.4242 0.81787 0.0
H114 H 0.56694 0.39387 0.75079 0.0
H115 H 0.54088 0.43705 0.75237 0.0
H116 H 0.55012 0.6625 0.84032 0.0
H117 H 0.52567 0.70671 0.8425 0.0
H118 H 0.59713 0.75158 0.90149 0.0
H119 H 0.62139 0.70694 0.89924 0.0
H120 H 0.56233 0.13776 0.24191 0.0
C121 C 0.54474 0.11445 0.23371 0.0
C122 C 0.5339 0.08785 0.24553 0.0
C123 C 0.53187 0.11136 0.21156 0.0
H124 H 0.5001 0.03805 0.24425 0.0
C125 C 0.51003 0.05803 0.23496 0.0
C126 C 0.49684 0.05438 0.21293 0.0
C127 C 0.50828 0.08103 0.20131 0.0
C128 C 0.54082 0.14017 0.19938 0.0
H129 H 0.49851 0.07817 0.18422 0.0
C130 C 0.5751 0.16331 0.20234 0.0
C131 C 0.58287 0.19054 0.19074 0.0
C132 C 0.51444 0.14485 0.1848 0.0
H133 H 0.48767 0.12809 0.18249 0.0
C134 C 0.52203 0.17147 0.17319 0.0
H135 H 0.59562 0.16016 0.21363 0.0
C136 C 0.55591 0.19406 0.17603 0.0
H137 H 0.56104 0.21417 0.16648 0.0
H138 H 0.50152 0.17463 0.16192 0.0
H139 H 0.5549 0.602 0.55789 0.0
C140 C 0.55395 0.57886 0.54989 0.0
C141 C 0.55351 0.55374 0.56273 0.0
C142 C 0.55308 0.57479 0.52737 0.0
H143 H 0.55236 0.50446 0.56388 0.0
C144 C 0.55199 0.52283 0.55334 0.0
C145 C 0.55108 0.51499 0.53111 0.0
C146 C 0.55193 0.54181 0.51808 0.0
C147 C 0.5541 0.60543 0.51468 0.0
H148 H 0.55102 0.53647 0.50091 0.0
C149 C 0.55288 0.6379 0.52343 0.0
C150 C 0.55535 0.66498 0.51024 0.0
C151 C 0.55729 0.60233 0.49266 0.0
H152 H 0.55865 0.58009 0.48467 0.0
C153 C 0.55937 0.62769 0.4801 0.0
H154 H 0.55041 0.64247 0.54021 0.0
C155 C 0.5586 0.65795 0.48858 0.0
H156 H 0.56053 0.67637 0.47778 0.0
H157 H 0.5619 0.62382 0.46322 0.0
H158 H 0.10394 0.58939 0.87996 0.0
C159 C 0.07653 0.58375 0.87347 0.0
C160 C 0.05257 0.5836 0.88791 0.0
C161 C 0.06548 0.5782 0.85092 0.0
H162 H 0.99899 0.57802 0.89116 0.0
C163 C 1.0172 0.57773 0.87988 0.0
C164 C 1.00501 0.57174 0.85766 0.0
C165 C 0.02924 0.57176 0.84328 0.0
C166 C 0.09172 0.58054 0.83542 0.0
H167 H 1.01947 0.56628 0.82616 0.0
C168 C 0.12361 0.57402 0.8408 0.0
C169 C 0.14766 0.5768 0.82586 0.0
C170 C 0.08534 0.59041 0.81497 0.0
H171 H 0.06244 0.59714 0.81031 0.0
C172 C 0.10882 0.59263 0.80019 0.0
H173 H 0.12969 0.56635 0.85628 0.0
C174 C 0.13961 0.58575 0.80551 0.0
H175 H 0.15764 0.58806 0.79383 0.0
H176 H 0.1033 0.60015 0.78456 0.0
H177 H 1.00157 0.57581 0.42137 0.0
C178 C 0.02557 0.59496 0.42878 0.0
C179 C 0.05004 0.61036 0.41563 0.0
C180 C 0.03131 0.60549 0.45113 0.0
H181 H 0.09802 0.64918 0.41414 0.0
C182 C 0.0802 0.63657 0.42466 0.0
C183 C 0.08656 0.64762 0.44681 0.0
C184 C 0.06242 0.63145 0.45997 0.0
C185 C 1.004 0.5914 0.46507 0.0
H186 H 0.06788 0.63944 0.47717 0.0
C187 C 0.98225 0.55818 0.46152 0.0
C188 C 0.95631 0.5458 0.47478 0.0
C189 C 0.99901 0.61185 0.482 0.0
H190 H 1.014 0.63764 0.48484 0.0
C191 C 0.9742 0.59959 0.49541 0.0
H192 H 0.98529 0.5421 0.44844 0.0
C193 C 0.95323 0.56692 0.49198 0.0
H194 H 0.93456 0.5582 0.50294 0.0
H195 H 0.97107 0.61559 0.5085 0.0
H196 H 0.43049 1.01482 0.76508 0.0
C197 C 0.45208 0.03683 0.77179 0.0
C198 C 0.47466 0.05416 0.75838 0.0
C199 C 0.45731 0.04821 0.7939 0.0
H200 H 0.51975 0.09579 0.75653 0.0
C201 C 0.50279 0.08224 0.76715 0.0
C202 C 0.5085 0.09364 0.78921 0.0
C203 C 0.48534 0.07668 0.80254 0.0
C204 C 0.43515 0.02912 0.80835 0.0
H205 H 0.48946 0.08521 0.81965 0.0
C206 C 0.44244 1.00229 0.81557 0.0
C207 C 0.4227 0.98412 0.83005 0.0
C208 C 0.40791 0.03813 0.81561 0.0
H209 H 0.40219 0.05904 0.81025 0.0
C210 C 0.38798 1.02011 0.82993 0.0
H211 H 0.46428 0.99622 0.81031 0.0
C212 C 0.39533 0.99327 0.83719 0.0
H213 H 0.37956 0.97962 0.84825 0.0
H214 H 0.36687 0.02703 0.83548 0.0
H215 H 0.53407 0.58816 0.09698 0.0
C216 C 0.55911 0.58637 0.1035 0.0
C217 C 0.58032 0.57939 0.08909 0.0
C218 C 0.57106 0.59294 0.12593 0.0
H219 H 0.62998 0.5741 0.08536 0.0
C220 C 0.6138 0.57912 0.09683 0.0
C221 C 0.627 0.58587 0.11893 0.0
C222 C 0.60507 0.59184 0.1335 0.0
C223 C 0.54975 0.60435 0.14094 0.0
H224 H 0.61513 0.59671 0.15058 0.0
C225 C 0.51234 0.59465 0.13663 0.0
C226 C 0.49359 0.6087 0.14979 0.0
C227 C 0.56729 0.62751 0.15905 0.0
H228 H 0.59566 0.63659 0.16273 0.0
C229 C 0.54871 0.6406 0.17231 0.0
H230 H 0.49781 0.57687 0.12293 0.0
C231 C 0.5123 0.63154 0.16766 0.0
H232 H 0.49862 0.64258 0.17803 0.0
H233 H 0.56276 0.65849 0.18606 0.0
H234 H 0.15987 0.53966 0.16373 0.0
H235 H 0.21919 0.53905 0.16093 0.0
H236 H 0.24653 0.63422 0.13961 0.0
H237 H 0.18718 0.63463 0.14185 0.0
H238 H 0.27215 0.59888 0.11607 0.0
H239 H 0.27483 0.62001 0.19249 0.0
H240 H 0.25509 0.60994 0.22773 0.0
H241 H 0.27208 0.51788 0.22259 0.0
H242 H 0.2915 0.52723 0.18716 0.0
H243 H 0.4593 0.65043 0.139 0.0
H244 H 0.3965 0.64211 0.13724 0.0
H245 H 0.37732 0.54285 0.14989 0.0
H246 H 0.44052 0.55119 0.15145 0.0
H247 H 0.34634 0.57547 0.17655 0.0
H248 H 0.34894 0.55816 0.1008 0.0
H249 H 0.36982 0.57054 0.06613 0.0
H250 H 0.3442 0.65842 0.07077 0.0
H251 H 0.32367 0.64685 0.10565 0.0
C252 C 0.17853 0.56056 0.15855 0.0
C253 C 0.16852 0.58725 0.15313 0.0
C254 C 0.21264 0.56024 0.15702 0.0
C255 C 0.23788 0.58677 0.15028 0.0
C256 C 0.22784 0.61338 0.14483 0.0
C257 C 0.19374 0.61363 0.14623 0.0
C258 C 0.27454 0.58685 0.14865 0.0
C259 C 0.28842 0.59411 0.12943 0.0
C260 C 0.29586 0.57982 0.16578 0.0
C261 C 0.28423 0.57415 0.18707 0.0
C262 C 0.27409 0.5975 0.1988 0.0
C263 C 0.263 0.59195 0.21882 0.0
C264 C 0.26222 0.56324 0.22737 0.0
C265 C 0.27263 0.54008 0.21593 0.0
C266 C 0.2837 0.5455 0.19589 0.0
C267 C 0.44154 0.62659 0.14087 0.0
C268 C 0.45478 0.60133 0.14506 0.0
C269 C 0.4056 0.62185 0.13992 0.0
C270 C 0.38187 0.59178 0.14335 0.0
C271 C 0.39495 0.56625 0.14713 0.0
C272 C 0.431 0.57089 0.14781 0.0
C273 C 0.34397 0.58788 0.14409 0.0
C274 C 0.32992 0.57998 0.16315 0.0
C275 C 0.32262 0.59467 0.12691 0.0
C276 C 0.33507 0.60178 0.10596 0.0
C277 C 0.34806 0.58029 0.09454 0.0
C278 C 0.35978 0.58713 0.07482 0.0
C279 C 0.35842 0.61529 0.06628 0.0
C280 C 0.34528 0.63664 0.07742 0.0
C281 C 0.33357 0.62994 0.09716 0.0
H282 H 0.36748 0.62053 0.05101 0.0
H283 H 0.25364 0.55899 0.24287 0.0
H284 H 0.71669 0.28168 0.49554 0.0
H285 H 0.75607 0.33464 0.48929 0.0
H286 H 0.82334 0.2882 0.4624 0.0
H287 H 0.78383 0.23503 0.46831 0.0
H288 H 0.86087 0.34131 0.49139 0.0
H289 H 0.77071 0.31737 0.42961 0.0
H290 H 0.70962 0.30175 0.41126 0.0
H291 H 0.69773 0.38532 0.44593 0.0
H292 H 0.75863 0.40125 0.46466 0.0
H293 H 0.97077 0.49 0.46215 0.0
H294 H 0.93166 0.43339 0.45938 0.0
H295 H 0.84874 0.46667 0.47762 0.0
H296 H 0.88654 0.52282 0.47881 0.0
H297 H 0.82037 0.41741 0.4498 0.0
H298 H 0.90527 0.43902 0.51425 0.0
H299 H 0.96461 0.45505 0.53528 0.0
H300 H 0.98463 0.37713 0.49902 0.0
H301 H 0.92552 0.36089 0.47758 0.0
C302 C 0.73953 0.28259 0.48797 0.0
C303 C 0.74696 0.25394 0.48242 0.0
C304 C 0.76212 0.31297 0.48446 0.0
C305 C 0.79259 0.31545 0.47521 0.0
C306 C 0.80006 0.28695 0.4696 0.0
C307 C 0.77746 0.25654 0.47307 0.0
C308 C 0.81709 0.34785 0.47194 0.0
C309 C 0.85219 0.35777 0.48198 0.0
C310 C 0.80562 0.36966 0.46011 0.0
C311 C 0.76916 0.36038 0.44863 0.0
C312 C 0.75501 0.33233 0.43339 0.0
C313 C 0.72042 0.32343 0.42292 0.0
C314 C 0.69979 0.34251 0.42745 0.0
C315 C 0.71374 0.37057 0.44243 0.0
C316 C 0.74831 0.37957 0.45295 0.0
C317 C 0.944 0.48527 0.46514 0.0
C318 C 0.93216 0.51115 0.47112 0.0
C319 C 0.92173 0.4528 0.46385 0.0
C320 C 0.88736 0.44552 0.46885 0.0
C321 C 0.87512 0.47138 0.47385 0.0
C322 C 0.89706 0.50365 0.4748 0.0
C323 C 0.86419 0.41129 0.46958 0.0
C324 C 0.82928 0.40094 0.45904 0.0
C325 C 0.87566 0.38928 0.48129 0.0
C326 C 0.91117 0.399 0.49415 0.0
C327 C 0.92243 0.42547 0.51066 0.0
C328 C 0.956 0.43456 0.52267 0.0
C329 C 0.97842 0.41719 0.51844 0.0
C330 C 0.96727 0.39061 0.50224 0.0
C331 C 0.93374 0.38145 0.49016 0.0
H332 H 1.00439 0.42426 0.52776 0.0
H333 H 0.67302 0.33556 0.41934 0.0
H334 H 0.55011 0.76584 0.83863 0.0
H335 H 0.5277 0.8112 0.83846 0.0
H336 H 0.51785 0.80823 0.90597 0.0
H337 H 0.54003 0.76218 0.90617 0.0
H338 H 0.45853 0.81299 0.88093 0.0
H339 H 0.58121 0.8688 0.89403 0.0
H340 H 0.6433 0.88087 0.8894 0.0
H341 H 0.62022 0.90111 0.8247 0.0
H342 H 0.55785 0.88866 0.8288 0.0
H343 H 0.42619 0.96775 0.87134 0.0
H344 H 0.44862 0.926 0.88477 0.0
H345 H 0.46362 0.89748 0.82028 0.0
H346 H 0.44026 0.93807 0.80665 0.0
H347 H 0.52476 0.91452 0.85305 0.0
H348 H 0.40033 0.84928 0.83908 0.0
H349 H 0.33833 0.83692 0.84408 0.0
H350 H 0.36617 0.83586 0.91198 0.0
H351 H 0.42848 0.84869 0.90741 0.0
C352 C 0.54302 0.77472 0.85342 0.0
C353 C 0.54664 0.76047 0.87239 0.0
C354 C 0.53052 0.80079 0.85335 0.0
C355 C 0.5215 0.81322 0.87226 0.0
C356 C 0.52486 0.799 0.89126 0.0
C357 C 0.53766 0.77292 0.89138 0.0
C358 C 0.50789 0.84065 0.87162 0.0
C359 C 0.47328 0.83558 0.87537 0.0
C360 C 0.52718 0.86998 0.86429 0.0
C361 C 0.56475 0.87762 0.8617 0.0
C362 C 0.5893 0.87559 0.87875 0.0
C363 C 0.62457 0.88254 0.87623 0.0
C364 C 0.63569 0.89172 0.85676 0.0
C365 C 0.61157 0.89401 0.83978 0.0
C366 C 0.57625 0.88705 0.84221 0.0
C367 C 0.4335 0.95205 0.85997 0.0
C368 C 0.43189 0.95647 0.83798 0.0
C369 C 0.44648 0.92842 0.86769 0.0
C370 C 0.45808 0.90907 0.85351 0.0
C371 C 0.45514 0.91253 0.83147 0.0
C372 C 0.4419 0.93578 0.82374 0.0
C373 C 0.47502 0.8862 0.86146 0.0
C374 C 0.51035 0.89229 0.85914 0.0
C375 C 0.45648 0.85801 0.87024 0.0
C376 C 0.4191 0.8504 0.87296 0.0
C377 C 0.39329 0.84677 0.85512 0.0
C378 C 0.35808 0.83959 0.85786 0.0
C379 C 0.34833 0.83574 0.87835 0.0
C380 C 0.37377 0.83895 0.89613 0.0
C381 C 0.40903 0.84616 0.89347 0.0
H382 H 0.32106 0.83015 0.88044 0.0
H383 H 0.66302 0.89709 0.85484 0.0
H384 H 0.93668 0.55648 0.17088 0.0
H385 H 0.87641 0.55641 0.16966 0.0
H386 H 0.89248 0.62057 0.12029 0.0
H387 H 0.95324 0.6217 0.12205 0.0
H388 H 0.85788 0.64003 0.14706 0.0
H389 H 0.84372 0.53359 0.11087 0.0
H390 H 0.85138 0.47979 0.10796 0.0
H391 H 0.79796 0.456 0.16263 0.0
H392 H 0.79037 0.50985 0.16603 0.0
H393 H 0.68449 0.61762 0.10091 0.0
H394 H 0.74456 0.61801 0.10924 0.0
H395 H 0.71565 0.56088 0.16122 0.0
H396 H 0.65459 0.5598 0.15252 0.0
H397 H 0.75606 0.53736 0.13731 0.0
H398 H 0.76602 0.6416 0.17183 0.0
H399 H 0.75838 0.69536 0.17514 0.0
H400 H 0.81976 0.72327 0.12427 0.0
H401 H 0.82737 0.66949 0.12043 0.0
C402 C 0.92742 0.57054 0.1597 0.0
C403 C 0.94999 0.58901 0.14649 0.0
C404 C 0.8927 0.57034 0.15893 0.0
C405 C 0.87926 0.58803 0.1446 0.0
C406 C 0.90189 0.60663 0.13149 0.0
C407 C 0.93675 0.60719 0.13247 0.0
C408 C 0.84196 0.58765 0.14336 0.0
C409 C 0.83569 0.6175 0.14466 0.0
C410 C 0.81265 0.5584 0.14105 0.0
C411 C 0.81679 0.52587 0.13883 0.0
C412 C 0.83378 0.51695 0.12234 0.0
C413 C 0.8381 0.48644 0.1206 0.0
C414 C 0.82525 0.46453 0.13514 0.0
C415 C 0.80794 0.47302 0.1514 0.0
C416 C 0.8036 0.50352 0.15323 0.0
C417 C 0.69077 0.60514 0.11418 0.0
C418 C 0.66447 0.5885 0.12596 0.0
C419 C 0.72537 0.60559 0.11904 0.0
C420 C 0.73504 0.58969 0.13599 0.0
C421 C 0.70901 0.57338 0.14806 0.0
C422 C 0.67415 0.57301 0.14322 0.0
C423 C 0.77211 0.5897 0.14049 0.0
C424 C 0.77832 0.55985 0.13984 0.0
C425 C 0.80141 0.61894 0.14342 0.0
C426 C 0.79705 0.6514 0.14574 0.0
C427 C 0.77769 0.65911 0.16124 0.0
C428 C 0.77339 0.6896 0.16323 0.0
C429 C 0.78852 0.71269 0.1499 0.0
C430 C 0.80804 0.70535 0.13458 0.0
C431 C 0.8124 0.67488 0.13251 0.0
H432 H 0.78516 0.73629 0.15147 0.0
H433 H 0.82864 0.44093 0.13378 0.0
H434 H 0.36841 0.90182 0.48881 0.0
H435 H 0.32215 0.84883 0.47906 0.0
H436 H 0.2512 0.88482 0.51089 0.0
H437 H 0.29706 0.93826 0.52029 0.0
H438 H 0.24832 0.8235 0.5206 0.0
H439 H 0.24343 0.87728 0.45717 0.0
H440 H 0.26733 0.90677 0.42749 0.0
H441 H 0.29758 0.82637 0.40405 0.0
H442 H 0.2743 0.79657 0.4338 0.0
H443 H 0.08755 0.69856 0.47556 0.0
H444 H 0.13586 0.7496 0.48781 0.0
H445 H 0.20259 0.71597 0.45026 0.0
H446 H 0.15421 0.66486 0.43782 0.0
H447 H 0.20854 0.77591 0.44383 0.0
H448 H 0.21313 0.72144 0.50651 0.0
H449 H 0.18998 0.69156 0.53622 0.0
H450 H 0.16148 0.77222 0.56124 0.0
H451 H 0.18403 0.80243 0.53149 0.0
C452 C 0.34288 0.8987 0.49355 0.0
C453 C 0.33653 0.92459 0.50523 0.0
C454 C 0.31647 0.86826 0.48804 0.0
C455 C 0.28307 0.86289 0.49407 0.0
C456 C 0.27678 0.88837 0.50609 0.0
C457 C 0.30313 0.91891 0.51152 0.0
C458 C 0.25465 0.83079 0.48765 0.0
C459 C 0.23929 0.81325 0.50381 0.0
C460 C 0.24349 0.817 0.46576 0.0
C461 C 0.25746 0.83485 0.44785 0.0
C462 C 0.25545 0.86601 0.4458 0.0
C463 C 0.26883 0.88276 0.42894 0.0
C464 C 0.28405 0.86849 0.41393 0.0
C465 C 0.28584 0.83741 0.41571 0.0
C466 C 0.27253 0.82057 0.43256 0.0
C467 C 0.1127 0.70173 0.47023 0.0
C468 C 0.117 0.6775 0.45576 0.0
C469 C 0.14035 0.73102 0.47723 0.0
C470 C 0.1731 0.73665 0.47014 0.0
C471 C 0.17761 0.7123 0.45594 0.0
C472 C 0.14991 0.68307 0.44884 0.0
C473 C 0.20213 0.76843 0.4768 0.0
C474 C 0.21759 0.786 0.46066 0.0
C475 C 0.2135 0.78214 0.49871 0.0
C476 C 0.19997 0.76407 0.51665 0.0
C477 C 0.20168 0.73271 0.51825 0.0
C478 C 0.18871 0.71573 0.53511 0.0
C479 C 0.17419 0.72995 0.55057 0.0
C480 C 0.1727 0.76122 0.54923 0.0
C481 C 0.1856 0.77829 0.53238 0.0
H482 H 0.16417 0.71677 0.56362 0.0
H483 H 0.29438 0.88149 0.40089 0.0
H484 H 0.65312 0.4002 0.8054 0.0
H485 H 0.66603 0.34994 0.81015 0.0
H486 H 0.56923 0.29446 0.76868 0.0
H487 H 0.55557 0.34375 0.76445 0.0
H488 H 0.62612 0.29914 0.82865 0.0
H489 H 0.57521 0.23344 0.74043 0.0
H490 H 0.58209 0.24596 0.70332 0.0
H491 H 0.67997 0.3224 0.72697 0.0
H492 H 0.67406 0.30986 0.7642 0.0
H493 H 0.50453 0.1455 0.81443 0.0
H494 H 0.54669 0.20064 0.82011 0.0
H495 H 0.61935 0.16716 0.78804 0.0
H496 H 0.57671 0.11185 0.78199 0.0
H497 H 0.60748 0.21159 0.76862 0.0
H498 H 0.64431 0.20841 0.84099 0.0
H499 H 0.64133 0.19592 0.87841 0.0
H500 H 0.57966 0.25773 0.8877 0.0
H501 H 0.58174 0.27022 0.85025 0.0
C502 C 0.63473 0.37729 0.79715 0.0
C503 C 0.6032 0.37608 0.78458 0.0
C504 C 0.64231 0.34869 0.79979 0.0
C505 C 0.61881 0.31858 0.78958 0.0
C506 C 0.58817 0.31753 0.77631 0.0
C507 C 0.58043 0.34589 0.77385 0.0
C508 C 0.62333 0.28752 0.79438 0.0
C509 C 0.62271 0.27998 0.81566 0.0
C510 C 0.62057 0.26301 0.77754 0.0
C511 C 0.62429 0.27052 0.75511 0.0
C512 C 0.59844 0.25261 0.7377 0.0
C513 C 0.6021 0.2598 0.71664 0.0
C514 C 0.63147 0.28494 0.71278 0.0
C515 C 0.65723 0.30294 0.72998 0.0
C516 C 0.65373 0.2958 0.75107 0.0
C517 C 0.53002 0.14966 0.80935 0.0
C518 C 0.5372 0.12459 0.79752 0.0
C519 C 0.5543 0.18123 0.8127 0.0
C520 C 0.58635 0.18816 0.80453 0.0
C521 C 0.59482 0.16246 0.79445 0.0
C522 C 0.57042 0.13093 0.79095 0.0
C523 C 0.6069 0.22247 0.80267 0.0
C524 C 0.61229 0.2307 0.78189 0.0
C525 C 0.61469 0.24759 0.82007 0.0
C526 C 0.61324 0.24029 0.84272 0.0
C527 C 0.62994 0.21922 0.85095 0.0
C528 C 0.62842 0.21215 0.8722 0.0
C529 C 0.61034 0.22604 0.88543 0.0
C530 C 0.59373 0.24705 0.87744 0.0
C531 C 0.59516 0.25421 0.85621 0.0
H532 H 0.60918 0.22052 0.90187 0.0
H533 H 0.63424 0.29049 0.69647 0.0
H534 H 0.60884 0.99148 0.50894 0.0
H535 H 0.60944 0.93583 0.51053 0.0
H536 H 0.50051 0.90391 0.5187 0.0
H537 H 0.50038 0.96002 0.51788 0.0
H538 H 0.52055 0.86473 0.53882 0.0
H539 H 0.54683 0.88582 0.46792 0.0
H540 H 0.57905 0.91509 0.4406 0.0
H541 H 0.67415 0.90374 0.47034 0.0
H542 H 0.64256 0.8747 0.49797 0.0
H543 H 0.50119 0.6901 0.52023 0.0
H544 H 0.4998 0.74602 0.52113 0.0
H545 H 0.60859 0.7806 0.51278 0.0
H546 H 0.60941 0.72466 0.51126 0.0
H547 H 0.58762 0.8182 0.4927 0.0
H548 H 0.56033 0.7965 0.5637 0.0
H549 H 0.52715 0.76677 0.5905 0.0
H550 H 0.4328 0.77854 0.55989 0.0
H551 H 0.46537 0.80804 0.53277 0.0
C552 C 0.58467 0.97289 0.51097 0.0
C553 C 0.5545 0.9821 0.51305 0.0
C554 C 0.58485 0.93992 0.51168 0.0
C555 C 0.55473 0.913 0.5142 0.0
C556 C 0.52469 0.92242 0.5166 0.0
C557 C 0.52456 0.95545 0.51601 0.0
C558 C 0.55449 0.87616 0.5146 0.0
C559 C 0.5351 0.85497 0.52835 0.0
C560 C 0.57339 0.86103 0.50167 0.0
C561 C 0.59242 0.87841 0.48513 0.0
C562 C 0.57466 0.88974 0.46869 0.0
C563 C 0.5928 0.90626 0.45314 0.0
C564 C 0.62864 0.91135 0.45377 0.0
C565 C 0.6464 0.89984 0.4699 0.0
C566 C 0.62839 0.88333 0.4855 0.0
C567 C 0.52542 0.70954 0.51942 0.0
C568 C 0.55595 0.70121 0.51672 0.0
C569 C 0.52464 0.74256 0.51981 0.0
C570 C 0.55432 0.77016 0.51747 0.0
C571 C 0.58472 0.76161 0.51479 0.0
C572 C 0.58541 0.72873 0.51431 0.0
C573 C 0.55392 0.8068 0.51704 0.0
C574 C 0.57316 0.82797 0.50323 0.0
C575 C 0.53478 0.82182 0.52985 0.0
C576 C 0.5152 0.80415 0.54609 0.0
C577 C 0.53247 0.79257 0.56262 0.0
C578 C 0.51378 0.77579 0.57788 0.0
C579 C 0.47787 0.77069 0.57686 0.0
C580 C 0.4606 0.78245 0.56063 0.0
C581 C 0.47916 0.79922 0.54532 0.0
H582 H 0.46345 0.75768 0.58868 0.0
H583 H 0.64264 0.92416 0.44173 0.0
H584 H 0.70385 0.59964 0.86014 0.0
H585 H 0.76343 0.59808 0.86123 0.0
H586 H 0.73123 0.53297 0.80156 0.0
H587 H 0.67112 0.53361 0.80075 0.0
H588 H 0.77279 0.51328 0.82677 0.0
H589 H 0.7811 0.61697 0.80461 0.0
H590 H 0.77386 0.67092 0.80649 0.0
H591 H 0.84031 0.69999 0.86801 0.0
H592 H 0.84757 0.64605 0.86664 0.0
H593 H 0.97687 0.59839 0.82502 0.0
H594 H 0.9154 0.59518 0.81588 0.0
H595 H 0.88623 0.53165 0.86466 0.0
H596 H 0.94712 0.53411 0.87341 0.0
H597 H 0.87534 0.61558 0.8396 0.0
H598 H 0.80177 0.48131 0.85195 0.0
H599 H 0.80869 0.4274 0.84617 0.0
H600 H 0.87276 0.45964 0.79715 0.0
H601 H 0.86582 0.51356 0.8024 0.0
C602 C 0.70936 0.58501 0.84719 0.0
C603 C 0.68254 0.56691 0.83028 0.0
C604 C 0.74365 0.58427 0.84777 0.0
C605 C 0.75234 0.56588 0.83127 0.0
C606 C 0.72548 0.54746 0.81449 0.0
C607 C 0.69103 0.54793 0.814 0.0
C608 C 0.78926 0.56569 0.83169 0.0
C609 C 0.79515 0.53569 0.82956 0.0
C610 C 0.81875 0.59483 0.83477 0.0
C611 C 0.81466 0.62738 0.83558 0.0
C612 C 0.794 0.63481 0.8186 0.0
C613 C 0.78991 0.66539 0.81956 0.0
C614 C 0.80656 0.68885 0.83737 0.0
C615 C 0.82741 0.68179 0.85423 0.0
C616 C 0.83156 0.65123 0.85335 0.0
C617 C 0.95721 0.58314 0.83344 0.0
C618 C 0.96708 0.56658 0.84999 0.0
C619 C 0.92207 0.58157 0.82835 0.0
C620 C 0.89588 0.5631 0.83951 0.0
C621 C 0.9056 0.54577 0.85557 0.0
C622 C 0.94061 0.5474 0.86068 0.0
C623 C 0.85887 0.56318 0.83527 0.0
C624 C 0.85297 0.59317 0.83672 0.0
C625 C 0.82939 0.53405 0.83109 0.0
C626 C 0.83353 0.50159 0.82773 0.0
C627 C 0.81723 0.47686 0.83988 0.0
C628 C 0.82117 0.4463 0.8367 0.0
C629 C 0.84124 0.44013 0.82135 0.0
C630 C 0.85733 0.46448 0.8091 0.0
C631 C 0.85345 0.49507 0.81219 0.0
H632 H 0.84427 0.41646 0.81892 0.0
H633 H 0.80335 0.71251 0.8381 0.0
H634 H 0.20571 0.82614 0.13784 0.0
H635 H 0.25894 0.8739 0.14678 0.0
H636 H 0.313 0.81616 0.17848 0.0
H637 H 0.26003 0.76802 0.16925 0.0
H638 H 0.32377 0.874 0.20294 0.0
H639 H 0.33051 0.83844 0.12986 0.0
H640 H 0.30891 0.82161 0.09097 0.0
H641 H 0.29695 0.9146 0.08462 0.0
H642 H 0.31801 0.93183 0.12356 0.0
H643 H 0.49358 0.99178 0.21775 0.0
H644 H 0.4445 0.94152 0.20455 0.0
H645 H 0.38792 0.99662 0.17202 0.0
H646 H 0.43681 0.04703 0.18527 0.0
H647 H 0.3795 0.9393 0.14755 0.0
H648 H 0.37033 0.97437 0.22026 0.0
H649 H 0.39183 0.99209 0.25909 0.0
H650 H 0.4073 0.90067 0.26617 0.0
H651 H 0.38644 0.8826 0.22728 0.0
C652 C 0.22904 0.8234 0.14643 0.0
C653 C 0.22851 0.7931 0.15274 0.0
C654 C 0.25945 0.85081 0.15159 0.0
C655 C 0.29007 0.84857 0.16315 0.0
C656 C 0.28966 0.81847 0.16958 0.0
C657 C 0.25927 0.79099 0.16435 0.0
C658 C 0.32227 0.87782 0.16891 0.0
C659 C 0.33628 0.88796 0.1908 0.0
C660 C 0.33808 0.89655 0.15311 0.0
C661 C 0.32553 0.88631 0.12967 0.0
C662 C 0.32301 0.85521 0.12021 0.0
C663 C 0.31091 0.84561 0.09815 0.0
C664 C 0.30148 0.86699 0.08535 0.0
C665 C 0.30422 0.89805 0.09457 0.0
C666 C 0.31627 0.90775 0.11663 0.0
C667 C 0.47077 0.99319 0.20769 0.0
C668 C 0.46902 1.02347 0.20272 0.0
C669 C 0.44275 0.96444 0.20014 0.0
C670 C 0.4123 0.96536 0.18758 0.0
C671 C 0.41115 0.99533 0.1817 0.0
C672 C 0.43919 0.02413 0.18924 0.0
C673 C 0.381 0.93538 0.18155 0.0
C674 C 0.36709 0.92519 0.15966 0.0
C675 C 0.36512 0.91667 0.19735 0.0
C676 C 0.37717 0.92726 0.22081 0.0
C677 C 0.37855 0.95813 0.23006 0.0
C678 C 0.3906 0.96823 0.25208 0.0
C679 C 0.40101 0.94755 0.26507 0.0
C680 C 0.39928 0.91668 0.25608 0.0
C681 C 0.38733 0.90649 0.23405 0.0
H682 H 0.41034 0.95542 0.28212 0.0
H683 H 0.29212 0.85952 0.06827 0.0
H684 H 0.50027 0.18833 0.52755 0.0
H685 H 0.50065 0.24455 0.5294 0.0
H686 H 0.59779 0.27278 0.50328 0.0
H687 H 0.59829 0.21664 0.50266 0.0
H688 H 0.60477 0.32496 0.52342 0.0
H689 H 0.49701 0.26515 0.47733 0.0
H690 H 0.43864 0.2231 0.46616 0.0
H691 H 0.40097 0.25903 0.52064 0.0
H692 H 0.45924 0.3011 0.53225 0.0
H693 H 0.59422 0.48743 0.50761 0.0
H694 H 0.59448 0.43088 0.50319 0.0
H695 H 0.50445 0.40051 0.53604 0.0
H696 H 0.50385 0.4564 0.53998 0.0
H697 H 0.4944 0.34983 0.51104 0.0
H698 H 0.60481 0.41124 0.55591 0.0
H699 H 0.66333 0.45376 0.56471 0.0
H700 H 0.69586 0.41506 0.50898 0.0
H701 H 0.63741 0.37253 0.49973 0.0
C702 C 0.5219 0.20617 0.52203 0.0
C703 C 0.5491 0.19598 0.51479 0.0
C704 C 0.52194 0.23936 0.52283 0.0
C705 C 0.5487 0.26531 0.51586 0.0
C706 C 0.57612 0.25506 0.50882 0.0
C707 C 0.57637 0.22193 0.50836 0.0
C708 C 0.54855 0.30216 0.51622 0.0
C709 C 0.58022 0.32968 0.52035 0.0
C710 C 0.5175 0.31125 0.51262 0.0
C711 C 0.48256 0.286 0.50578 0.0
C712 C 0.47632 0.26394 0.48699 0.0
C713 C 0.44326 0.24013 0.48057 0.0
C714 C 0.41615 0.23833 0.49272 0.0
C715 C 0.42202 0.26041 0.51128 0.0
C716 C 0.45504 0.28425 0.51778 0.0
C717 C 0.57378 0.46883 0.51351 0.0
C718 C 0.54853 0.47827 0.52389 0.0
C719 C 0.57433 0.43562 0.51137 0.0
C720 C 0.54989 0.40916 0.5196 0.0
C721 C 0.52417 0.41865 0.52931 0.0
C722 C 0.52373 0.4516 0.53152 0.0
C723 C 0.55051 0.37248 0.51837 0.0
C724 C 0.5189 0.34501 0.5141 0.0
C725 C 0.58162 0.36347 0.52149 0.0
C726 C 0.61666 0.38895 0.52702 0.0
C727 C 0.6244 0.41194 0.54547 0.0
C728 C 0.65755 0.43602 0.55055 0.0
C729 C 0.68326 0.43717 0.53738 0.0
C730 C 0.6759 0.41418 0.51914 0.0
C731 C 0.64278 0.39008 0.51398 0.0
H732 H 0.70891 0.45582 0.54134 0.0
H733 H 0.39057 0.21988 0.48773 0.0
H734 H 0.48022 0.61171 0.85063 0.0
H735 H 0.42098 0.61265 0.85245 0.0
H736 H 0.37762 0.52041 0.81178 0.0
H737 H 0.43707 0.51993 0.80924 0.0
H738 H 0.34491 0.55915 0.79862 0.0
H739 H 0.35757 0.52497 0.87367 0.0
H740 H 0.38831 0.53069 0.91079 0.0
H741 H 0.41064 0.63413 0.91673 0.0
H742 H 0.37809 0.62872 0.88011 0.0
H743 H 0.16682 0.52684 0.80908 0.0
H744 H 0.22605 0.52338 0.81187 0.0
H745 H 0.26601 0.61356 0.85496 0.0
H746 H 0.20628 0.61605 0.85289 0.0
H747 H 0.30111 0.57736 0.86734 0.0
H748 H 0.27155 0.60774 0.79837 0.0
H749 H 0.23602 0.60309 0.76294 0.0
H750 H 0.2486 0.51141 0.74412 0.0
H751 H 0.28378 0.51528 0.77957 0.0
C752 C 0.45813 0.59145 0.84216 0.0
C753 C 0.46366 0.5657 0.82978 0.0
C754 C 0.42402 0.59183 0.84344 0.0
C755 C 0.39433 0.56621 0.83272 0.0
C756 C 0.39984 0.54046 0.82035 0.0
C757 C 0.43398 0.54021 0.81888 0.0
C758 C 0.35776 0.56707 0.83329 0.0
C759 C 0.33524 0.56264 0.8137 0.0
C760 C 0.34507 0.57292 0.85277 0.0
C761 C 0.36616 0.57653 0.87412 0.0
C762 C 0.36936 0.54893 0.88286 0.0
C763 C 0.3869 0.55209 0.90382 0.0
C764 C 0.4021 0.5828 0.91594 0.0
C765 C 0.39912 0.61039 0.90727 0.0
C766 C 0.3808 0.60726 0.88652 0.0
C767 C 0.18816 0.54541 0.8196 0.0
C768 C 0.18191 0.57149 0.83098 0.0
C769 C 0.22218 0.54374 0.82095 0.0
C770 C 0.25105 0.5687 0.83315 0.0
C771 C 0.24447 0.59402 0.84532 0.0
C772 C 0.21027 0.59538 0.84426 0.0
C773 C 0.28801 0.56891 0.83268 0.0
C774 C 0.31065 0.57373 0.85224 0.0
C775 C 0.30096 0.56397 0.81309 0.0
C776 C 0.28002 0.56166 0.7917 0.0
C777 C 0.26655 0.58648 0.78672 0.0
C778 C 0.24649 0.584 0.76663 0.0
C779 C 0.23999 0.55694 0.75131 0.0
C780 C 0.25361 0.53234 0.75602 0.0
C781 C 0.27363 0.53467 0.7761 0.0
H782 H 0.22446 0.55506 0.73576 0.0
H783 H 0.41587 0.58516 0.93211 0.0
H784 H 0.90715 0.36872 0.19316 0.0
H785 H 0.85091 0.32867 0.1969 0.0
H786 H 0.79795 0.39589 0.17946 0.0
H787 H 0.85401 0.43584 0.17482 0.0
H788 H 0.77651 0.36314 0.21626 0.0
H789 H 0.79244 0.33866 0.14282 0.0
H790 H 0.82481 0.32646 0.11429 0.0
H791 H 0.82858 0.2406 0.14166 0.0
H792 H 0.79667 0.25257 0.17057 0.0
H793 H 0.60073 0.25673 0.19225 0.0
H794 H 0.65873 0.29677 0.1929 0.0
H795 H 0.70509 0.22123 0.19711 0.0
H796 H 0.64659 0.18054 0.1953 0.0
H797 H 0.73159 0.25791 0.16831 0.0
H798 H 0.71427 0.28005 0.24091 0.0
H799 H 0.68321 0.29187 0.27029 0.0
H800 H 0.6836 0.38109 0.2462 0.0
H801 H 0.71423 0.36959 0.21648 0.0
C802 C 0.88359 0.37499 0.18982 0.0
C803 C 0.88527 0.40553 0.18338 0.0
C804 C 0.85145 0.35209 0.19215 0.0
C805 C 0.82025 0.35922 0.18832 0.0
C806 C 0.82177 0.38994 0.18254 0.0
C807 C 0.85391 0.41279 0.17997 0.0
C808 C 0.78601 0.33424 0.18985 0.0
C809 C 0.7664 0.34026 0.20564 0.0
C810 C 0.77347 0.30403 0.17642 0.0
C811 C 0.7925 0.2967 0.15899 0.0
C812 C 0.80045 0.31733 0.14287 0.0
C813 C 0.81866 0.31043 0.12661 0.0
C814 C 0.82884 0.28282 0.1262 0.0
C815 C 0.82073 0.26201 0.14202 0.0
C816 C 0.80256 0.26883 0.15834 0.0
C817 C 0.6232 0.24851 0.19326 0.0
C818 C 0.61885 0.21527 0.19354 0.0
C819 C 0.65651 0.27159 0.19391 0.0
C820 C 0.68649 0.2622 0.19529 0.0
C821 C 0.6824 0.22914 0.19609 0.0
C822 C 0.64894 0.20592 0.19527 0.0
C823 C 0.72172 0.28667 0.19476 0.0
C824 C 0.74162 0.28063 0.1791 0.0
C825 C 0.73465 0.31675 0.20847 0.0
C826 C 0.71629 0.32381 0.22635 0.0
C827 C 0.7075 0.30208 0.24178 0.0
C828 C 0.69001 0.30874 0.25851 0.0
C829 C 0.68137 0.33718 0.26008 0.0
C830 C 0.69028 0.35905 0.24495 0.0
C831 C 0.70775 0.35249 0.22817 0.0
H832 H 0.66782 0.34229 0.27305 0.0
H833 H 0.84293 0.27751 0.11359 0.0
H834 H 0.08102 0.53167 0.08484 0.0
H835 H 0.08718 0.54076 0.0474 0.0
H836 H 0.03749 0.61392 0.05275 0.0
H837 H 0.03097 0.60467 0.09026 0.0
H838 H 1.01073 0.57235 0.01591 0.0
H839 H 0.1252 0.6356 0.05291 0.0
H840 H 0.1802 0.64559 0.07771 0.0
H841 H 0.20408 0.57293 0.03838 0.0
H842 H 0.14888 0.56208 0.01353 0.0
H843 H 0.04154 0.62763 0.91682 0.0
H844 H 0.049 0.62976 0.95615 0.0
H845 H 0.0947 0.55361 0.9519 0.0
H846 H 0.08773 0.5518 0.91239 0.0
H847 H 0.1252 0.59908 0.98855 0.0
H848 H 1.00932 0.53378 0.95299 0.0
H849 H 0.95438 0.52366 0.92809 0.0
H850 H 0.93319 0.60013 0.9652 0.0
H851 H 0.9884 0.61114 0.9901 0.0
C852 C 0.07143 0.54971 0.07804 0.0
C853 C 0.05544 0.56742 0.09041 0.0
C854 C 0.07516 0.55502 0.05668 0.0
C855 C 0.06316 0.57829 0.04734 0.0
C856 C 0.04701 0.59591 0.05966 0.0
C857 C 0.04331 0.59062 0.08105 0.0
C858 C 0.06651 0.58343 0.02449 0.0
C859 C 0.03585 0.57874 0.01003 0.0
C860 C 0.0992 0.59101 0.01671 0.0
C861 C 0.13271 0.59782 0.03145 0.0
C862 C 0.14204 0.62157 0.04962 0.0
C863 C 0.17327 0.62741 0.06368 0.0
C864 C 0.19558 0.60985 0.05965 0.0
C865 C 0.18675 0.58649 0.0415 0.0
C866 C 0.1555 0.5805 0.02741 0.0
C867 C 0.05387 0.61185 0.92433 0.0
C868 C 0.06367 0.58926 0.91162 0.0
C869 C 0.0581 0.61306 0.94677 0.0
C870 C 0.0717 0.59136 0.95691 0.0
C871 C 0.08402 0.57049 0.94439 0.0
C872 C 0.08006 0.56947 0.92186 0.0
C873 C 0.06945 0.5881 0.98008 0.0
C874 C 0.10019 0.59295 0.99454 0.0
C875 C 0.03681 0.58061 0.98793 0.0
C876 C 1.00316 0.57349 0.97329 0.0
C877 C 0.99305 0.54856 0.95577 0.0
C878 C 0.96187 0.54267 0.94165 0.0
C879 C 0.94035 0.56129 0.94503 0.0
C880 C 0.94991 0.58576 0.96258 0.0
C881 C 0.98114 0.59184 0.97671 0.0
H882 H 0.91623 0.55671 0.93408 0.0
H883 H 0.21974 0.61439 0.07056 0.0
H884 H 0.47816 0.03768 0.43442 0.0
H885 H 0.48762 0.04189 0.39692 0.0
H886 H 0.58968 0.11475 0.41848 0.0
H887 H 0.58074 0.1094 0.4561 0.0
H888 H 0.49316 0.08817 0.37459 0.0
H889 H 0.64355 0.11711 0.38079 0.0
H890 H 0.69117 0.10511 0.40272 0.0
H891 H 0.61696 1.01649 0.4165 0.0
H892 H 0.56899 0.02777 0.39446 0.0
H893 H 0.53674 0.13792 0.27564 0.0
H894 H 0.54373 0.13886 0.3149 0.0
H895 H 0.55992 0.04605 0.30844 0.0
H896 H 0.55407 0.04546 0.26923 0.0
H897 H 0.59938 0.08361 0.34468 0.0
H898 H 0.47924 0.0479 0.31102 0.0
H899 H 0.428 0.05178 0.28775 0.0
H900 H 0.43522 0.13929 0.3272 0.0
H901 H 0.48687 0.13615 0.35054 0.0
C902 C 0.50281 0.05424 0.43112 0.0
C903 C 0.52885 0.07302 0.44809 0.0
C904 C 0.50816 0.05678 0.40969 0.0
C905 C 0.53945 0.07853 0.40475 0.0
C906 C 0.56562 0.09728 0.42178 0.0
C907 C 0.56051 0.09426 0.44329 0.0
C908 C 0.54376 0.08232 0.38177 0.0
C909 C 0.5165 0.08725 0.36817 0.0
C910 C 0.57395 0.08076 0.37313 0.0
C911 C 0.60266 0.07349 0.38616 0.0
C912 C 0.63743 0.09501 0.38844 0.0
C913 C 0.66447 0.08834 0.4009 0.0
C914 C 0.65707 0.06011 0.41106 0.0
C915 C 0.62263 0.03841 0.4087 0.0
C916 C 0.59551 0.04495 0.39624 0.0
C917 C 0.54289 0.11821 0.2826 0.0
C918 C 0.54443 0.09142 0.26931 0.0
C919 C 0.54661 0.11866 0.30505 0.0
C920 C 0.55171 0.09224 0.31457 0.0
C921 C 0.55586 0.06663 0.30146 0.0
C922 C 0.55222 0.06621 0.27904 0.0
C923 C 0.54887 0.08952 0.33776 0.0
C924 C 0.5763 0.08483 0.35131 0.0
C925 C 0.51832 0.09013 0.34625 0.0
C926 C 0.48712 0.09199 0.33237 0.0
C927 C 0.47004 0.0681 0.31464 0.0
C928 C 0.44091 0.07014 0.30145 0.0
C929 C 0.42842 0.09583 0.30596 0.0
C930 C 0.44497 0.11945 0.32371 0.0
C931 C 0.47416 0.11754 0.33693 0.0
H932 H 0.40586 0.09738 0.29574 0.0
H933 H 0.67803 0.05502 0.42072 0.0
H934 H 0.53009 0.55285 0.7662 0.0
H935 H 0.52553 0.54614 0.72675 0.0
H936 H 0.61669 0.63232 0.73056 0.0
H937 H 0.62165 0.63892 0.77008 0.0
H938 H 0.56191 0.63006 0.69832 0.0
H939 H 0.62663 0.56199 0.72158 0.0
H940 H 0.63878 0.51916 0.74102 0.0
H941 H 0.54507 0.44783 0.70558 0.0
H942 H 0.53202 0.49038 0.68615 0.0
H943 H 0.59717 0.60634 0.59079 0.0
H944 H 0.60091 0.61519 0.63009 0.0
H945 H 0.51719 0.52367 0.62804 0.0
H946 H 0.51346 0.51465 0.58877 0.0
H947 H 0.56866 0.52924 0.65969 0.0
H948 H 0.50398 0.5979 0.63634 0.0
H949 H 0.49283 0.64103 0.61675 0.0
H950 H 0.58695 0.71154 0.65241 0.0
H951 H 0.59893 0.66872 0.67201 0.0
C952 C 0.5491 0.57041 0.75862 0.0
C953 C 0.5763 0.59636 0.77121 0.0
C954 C 0.54652 0.56651 0.73609 0.0
C955 C 0.5709 0.58862 0.7257 0.0
C956 C 0.59759 0.61499 0.73823 0.0
C957 C 0.60044 0.61868 0.76079 0.0
C958 C 0.56884 0.58389 0.70181 0.0
C959 C 0.56381 0.6082 0.68987 0.0
C960 C 0.57064 0.55509 0.69076 0.0
C961 C 0.57818 0.52945 0.70254 0.0
C962 C 0.60841 0.53724 0.71808 0.0
C963 C 0.6155 0.51301 0.72907 0.0
C964 C 0.59273 0.48081 0.72451 0.0
C965 C 0.56271 0.47279 0.70905 0.0
C966 C 0.55545 0.49696 0.69805 0.0
C967 C 0.57928 0.58829 0.59869 0.0
C968 C 0.55498 0.55981 0.58661 0.0
C969 C 0.58145 0.59336 0.62118 0.0
C970 C 0.55911 0.57025 0.6321 0.0
C971 C 0.53478 0.54184 0.62006 0.0
C972 C 0.53269 0.5367 0.59759 0.0
C973 C 0.56148 0.57534 0.65607 0.0
C974 C 0.56663 0.55108 0.66808 0.0
C975 C 0.55978 0.60421 0.66717 0.0
C976 C 0.55253 0.63004 0.65549 0.0
C977 C 0.52244 0.62256 0.63989 0.0
C978 C 0.51594 0.64696 0.6288 0.0
C979 C 0.53921 0.67899 0.63329 0.0
C980 C 0.56897 0.68671 0.64893 0.0
C981 C 0.57561 0.66239 0.66004 0.0
H982 H 0.53414 0.69784 0.62468 0.0
H983 H 0.59847 0.46205 0.7329 0.0
H984 H 0.58582 0.05082 0.57945 0.0
H985 H 0.56111 0.03717 0.61269 0.0
H986 H 0.50173 0.10204 0.60363 0.0
H987 H 0.52576 0.11527 0.57019 0.0
H988 H 0.54371 0.10997 0.64627 0.0
H989 H 0.45909 0.02787 0.59289 0.0
H990 H 0.44205 0.98316 0.56291 0.0
H991 H 0.48286 0.92535 0.60341 0.0
H992 H 0.50101 0.97003 0.63352 0.0
H993 H 0.4433 0.07946 0.72779 0.0
H994 H 0.45117 0.07746 0.68972 0.0
H995 H 0.50466 1.00785 0.69856 0.0
H996 H 0.49665 1.00985 0.73677 0.0
H997 H 0.4646 0.99996 0.65553 0.0
H998 H 0.55424 0.07904 0.70643 0.0
H999 H 0.57699 0.1224 0.73735 0.0
H1000 H 0.53335 0.18421 0.70251 0.0
H1001 H 0.50982 0.14094 0.67145 0.0
C1002 C 0.56749 0.06212 0.58458 0.0
C1003 C 0.55775 0.08418 0.57239 0.0
C1004 C 0.55332 0.05421 0.60345 0.0
C1005 C 0.52958 0.06855 0.61047 0.0
C1006 C 0.52001 0.09074 0.59839 0.0
C1007 C 0.53372 0.09825 0.57935 0.0
C1008 C 0.51548 0.06116 0.63079 0.0
C1009 C 0.52597 0.08609 0.64818 0.0
C1010 C 0.4934 0.02962 0.63341 0.0
C1011 C 0.48175 1.00247 0.61543 0.0
C1012 C 0.46473 1.00575 0.59538 0.0
C1013 C 0.45482 0.9804 0.57836 0.0
C1014 C 0.46139 0.95147 0.58125 0.0
C1015 C 0.47782 0.94779 0.60119 0.0
C1016 C 0.48794 0.97313 0.61824 0.0
C1017 C 0.45524 0.06262 0.7213 0.0
C1018 C 0.46916 0.0446 0.73494 0.0
C1019 C 0.45987 0.06159 0.69964 0.0
C1020 C 0.47883 0.04278 0.69147 0.0
C1021 C 0.48982 1.02236 0.70459 0.0
C1022 C 0.4852 1.02344 0.72633 0.0
C1023 C 0.49233 0.04897 0.6708 0.0
C1024 C 0.48205 1.02389 0.65348 0.0
C1025 C 0.51529 0.08021 0.66829 0.0
C1026 C 0.52987 0.10659 0.68673 0.0
C1027 C 0.54923 0.10177 0.70542 0.0
C1028 C 0.56232 0.12634 0.72295 0.0
C1029 C 0.55646 0.15596 0.72193 0.0
C1030 C 0.53774 0.16119 0.7033 0.0
C1031 C 0.52455 0.13666 0.68571 0.0
H1032 H 0.56649 0.17483 0.73557 0.0
H1033 H 0.4537 0.93188 0.56804 0.0
H1034 H 0.53272 0.487 0.88396 0.0
H1035 H 0.53464 0.49194 0.92316 0.0
H1036 H 0.60694 0.59049 0.92869 0.0
H1037 H 0.60739 0.58447 0.88969 0.0
H1038 H 0.62363 0.56414 0.96147 0.0
H1039 H 0.51241 0.56857 0.92679 0.0
H1040 H 0.45896 0.54469 0.89981 0.0
H1041 H 0.42721 0.4599 0.93273 0.0
H1042 H 0.48089 0.48297 0.95963 0.0
H1043 H 0.59867 0.62497 0.06211 0.0
H1044 H 0.59222 0.61564 0.02262 0.0
H1045 H 0.53372 0.5141 0.02374 0.0
H1046 H 0.53989 0.52365 0.06337 0.0
H1047 H 0.50869 0.53955 0.98811 0.0
H1048 H 0.61796 0.53519 0.0232 0.0
H1049 H 0.67317 0.55618 0.04887 0.0
H1050 H 0.70892 0.63944 0.01498 0.0
H1051 H 0.65354 0.61929 0.98936 0.0
C1052 C 0.54932 0.50956 0.89361 0.0
C1053 C 0.56935 0.53562 0.88381 0.0
C1054 C 0.55022 0.51247 0.916 0.0
C1055 C 0.56992 0.54203 0.92889 0.0
C1056 C 0.59118 0.56756 0.91914 0.0
C1057 C 0.59122 0.56423 0.89683 0.0
C1058 C 0.56738 0.54691 0.95231 0.0
C1059 C 0.59849 0.55914 0.96721 0.0
C1060 C 0.53456 0.53971 0.96 0.0
C1061 C 0.50078 0.52736 0.94509 0.0
C1062 C 0.49394 0.54489 0.92831 0.0
C1063 C 0.46373 0.53142 0.91297 0.0
C1064 C 0.43988 0.50067 0.91446 0.0
C1065 C 0.44583 0.48362 0.93153 0.0
C1066 C 0.47613 0.49689 0.94684 0.0
C1067 C 0.58351 0.60094 0.0538 0.0
C1068 C 0.56952 0.57503 0.06554 0.0
C1069 C 0.58002 0.59556 0.03132 0.0
C1070 C 0.56295 0.56407 0.0203 0.0
C1071 C 0.54697 0.53856 0.03195 0.0
C1072 C 0.55041 0.54399 0.0545 0.0
C1073 C 0.56492 0.55732 -0.00295 0.0
C1074 C 0.53377 0.54468 0.98228 0.0
C1075 C 0.59769 0.56415 0.98945 0.0
C1076 C 0.63145 0.57587 0.00447 0.0
C1077 C 0.6375 0.55808 0.02129 0.0
C1078 C 0.66882 0.56983 0.03584 0.0
C1079 C 0.69451 0.59916 0.03358 0.0
C1080 C 0.68897 0.61674 0.01672 0.0
C1081 C 0.65762 0.60517 0.00218 0.0
H1082 H 0.71873 0.60823 0.04487 0.0
H1083 H 0.41671 0.49007 0.90242 0.0
H1084 H 0.08608 0.57227 0.21364 0.0
H1085 H 0.08064 0.56499 0.25161 0.0
H1086 H 0.03909 0.64389 0.25713 0.0
H1087 H 0.04438 0.65117 0.21942 0.0
H1088 H 0.08997 0.64965 0.29064 0.0
H1089 H 0.98511 0.56584 0.253 0.0
H1090 H 0.95212 0.5173 0.2269 0.0
H1091 H 1.00695 0.46153 0.25962 0.0
H1092 H 0.04047 0.50987 0.28586 0.0
H1093 H 1.01976 0.63862 0.38629 0.0
H1094 H 1.01967 0.63277 0.34715 0.0
H1095 H 0.06727 0.5583 0.35284 0.0
H1096 H 0.06718 0.56413 0.39216 0.0
H1097 H 1.01682 0.54689 0.31416 0.0
H1098 H 0.11934 0.62991 0.35297 0.0
H1099 H 0.15099 0.67806 0.37966 0.0
H1100 H 0.10139 0.73543 0.34437 0.0
H1101 H 0.06881 0.68739 0.31771 0.0
C1102 C 0.07575 0.58797 0.22299 0.0
C1103 C 0.06566 0.61229 0.21361 0.0
C1104 C 0.07253 0.58373 0.24463 0.0
C1105 C 0.05927 0.6038 0.25717 0.0
C1106 C 0.04942 0.62817 0.24778 0.0
C1107 C 0.05244 0.63228 0.22622 0.0
C1108 C 0.05613 0.60015 0.28022 0.0
C1109 C 0.07374 0.62725 0.29572 0.0
C1110 C 0.03576 0.57064 0.28695 0.0
C1111 C 1.01556 0.54155 0.27124 0.0
C1112 C 0.99033 0.54329 0.25452 0.0
C1113 C 0.9715 0.5158 0.23973 0.0
C1114 C 0.97755 0.48637 0.24154 0.0
C1115 C 1.00235 0.48436 0.25821 0.0
C1116 C 0.02122 0.51177 0.27307 0.0
C1117 C 0.02917 0.62034 0.37903 0.0
C1118 C 0.04325 0.60165 0.392 0.0
C1119 C 0.02926 0.61708 0.35676 0.0
C1120 C 0.04381 0.59534 0.34715 0.0
C1121 C 0.05585 0.57512 0.35994 0.0
C1122 C 0.05579 0.57843 0.38231 0.0
C1123 C 0.04999 0.59664 0.32438 0.0
C1124 C 0.0332 0.56917 0.30902 0.0
C1125 C 0.07123 0.6258 0.3177 0.0
C1126 C 0.09139 0.65496 0.33344 0.0
C1127 C 0.11498 0.65273 0.35098 0.0
C1128 C 0.1331 0.68 0.3661 0.0
C1129 C 0.12816 0.70977 0.36373 0.0
C1130 C 0.10516 0.71234 0.3462 0.0
C1131 C 0.08686 0.68509 0.33107 0.0
H1132 H 0.14221 0.73086 0.37546 0.0
H1133 H 0.96294 0.46509 0.23009 0.0
loop_
_geom_bond_atom_site_label_1
_geom_bond_atom_site_label_2
_geom_bond_distance
_geom_bond_site_symmetry_2
_ccdc_geom_bond_type
Pr0 C2 2.880 1_455 S
Pr0 O20 2.562 1_455 S
Pr0 O21 2.490 1_455 S
Pr0 O22 2.695 . S
Pr0 O23 2.512 . S
Pr0 O25 2.437 1_455 S
Pr0 O28 2.436 . S
Pr0 O30 2.438 . S
Pr1 C11 2.880 . S
Pr1 O22 2.436 . S
Pr1 O24 2.438 1_455 S
Pr1 O26 2.562 . S
Pr1 O27 2.490 . S
Pr1 O28 2.695 . S
Pr1 O29 2.512 . S
Pr1 O31 2.437 . S
C2 Pr0 2.880 1_655 S
C2 C3 1.491 . S
C2 O20 1.254 . S
C2 O21 1.225 . S
C3 C2 1.491 . S
C3 C4 1.392 . S
C3 C8 1.356 . S
C4 C3 1.392 . S
C4 C5 1.368 . S
C4 H32 0.929 . S
C5 C4 1.368 . S
C5 C6 1.386 . S
C5 H33 0.929 . S
C6 C5 1.386 . S
C6 C7 1.373 . S
C7 C6 1.373 . S
C7 C8 1.409 . S
C7 H34 0.931 . S
C8 C3 1.356 . S
C8 C7 1.409 . S
C8 H35 0.930 . S
C9 O22 1.270 . S
C9 O23 1.248 . S
C10 O24 1.267 . S
C10 O25 1.278 . S
C11 Pr1 2.880 . S
C11 C12 1.491 . S
C11 O26 1.254 . S
C11 O27 1.225 . S
C12 C11 1.491 . S
C12 C13 1.392 . S
C12 C17 1.356 . S
C13 C12 1.392 . S
C13 C14 1.368 . S
C13 H36 0.929 . S
C14 C13 1.368 . S
C14 C15 1.386 . S
C14 H37 0.929 . S
C15 C14 1.386 . S
C15 C16 1.373 . S
C16 C15 1.373 . S
C16 C17 1.409 . S
C16 H38 0.931 . S
C17 C12 1.356 . S
C17 C16 1.409 . S
C17 H39 0.930 . S
C18 O28 1.270 . S
C18 O29 1.248 . S
C19 O30 1.267 . S
C19 O31 1.278 . S
O20 Pr0 2.562 1_655 S
O20 C2 1.254 . S
O21 Pr0 2.490 1_655 S
O21 C2 1.225 . S
O22 Pr0 2.695 . S
O22 Pr1 2.436 . S
O22 C9 1.270 . S
O23 Pr0 2.512 . S
O23 C9 1.248 . S
O24 Pr1 2.438 1_655 S
O24 C10 1.267 . S
O25 Pr0 2.437 1_655 S
O25 C10 1.278 . S
O26 Pr1 2.562 . S
O26 C11 1.254 . S
O27 Pr1 2.490 . S
O27 C11 1.225 . S
O28 Pr0 2.436 . S
O28 Pr1 2.695 . S
O28 C18 1.270 . S
O29 Pr1 2.512 . S
O29 C18 1.248 . S
O30 Pr0 2.438 . S
O30 C19 1.267 . S
O31 Pr1 2.437 . S
O31 C19 1.278 . S
H32 C4 0.929 . S
H33 C5 0.929 . S
H34 C7 0.931 . S
H35 C8 0.930 . S
H36 C13 0.929 . S
H37 C14 0.929 . S
H38 C16 0.931 . S
H39 C17 0.930 . S
Pr40 C42 2.880 . S
Pr40 O60 2.562 . S
Pr40 O61 2.490 . S
Pr40 O62 2.695 . S
Pr40 O63 2.512 . S
Pr40 O65 2.437 . S
Pr40 O68 2.436 . S
Pr40 O70 2.438 . S
Pr41 C51 2.880 1_545 S
Pr41 O62 2.436 . S
Pr41 O64 2.438 . S
Pr41 O66 2.562 1_545 S
Pr41 O67 2.490 1_545 S
Pr41 O68 2.695 . S
Pr41 O69 2.512 . S
Pr41 O71 2.437 . S
C42 Pr40 2.880 . S
C42 C43 1.491 . S
C42 O60 1.254 . S
C42 O61 1.225 . S
C43 C42 1.491 . S
C43 C44 1.392 . S
C43 C48 1.356 . S
C44 C43 1.392 . S
C44 C45 1.368 . S
C44 H72 0.929 . S
C45 C44 1.368 . S
C45 C46 1.386 . S
C45 H73 0.929 . S
C46 C45 1.386 . S
C46 C47 1.373 . S
C47 C46 1.373 . S
C47 C48 1.409 . S
C47 H74 0.931 . S
C48 C43 1.356 . S
C48 C47 1.409 . S
C48 H75 0.930 . S
C49 O62 1.270 . S
C49 O63 1.248 . S
C50 O64 1.267 . S
C50 O65 1.278 . S
C51 Pr41 2.880 1_565 S
C51 C52 1.491 . S
C51 O66 1.254 . S
C51 O67 1.225 . S
C52 C51 1.491 . S
C52 C53 1.392 . S
C52 C57 1.356 . S
C53 C52 1.392 . S
C53 C54 1.368 . S
C53 H76 0.929 . S
C54 C53 1.368 . S
C54 C55 1.386 . S
C54 H77 0.929 . S
C55 C54 1.386 . S
C55 C56 1.373 . S
C56 C55 1.373 . S
C56 C57 1.409 . S
C56 H78 0.931 . S
C57 C52 1.356 . S
C57 C56 1.409 . S
C57 H79 0.930 . S
C58 O68 1.270 . S
C58 O69 1.248 . S
C59 O70 1.267 1_565 S
C59 O71 1.278 1_565 S
O60 Pr40 2.562 . S
O60 C42 1.254 . S
O61 Pr40 2.490 . S
O61 C42 1.225 . S
O62 Pr40 2.695 . S
O62 Pr41 2.436 . S
O62 C49 1.270 . S
O63 Pr40 2.512 . S
O63 C49 1.248 . S
O64 Pr41 2.438 . S
O64 C50 1.267 . S
O65 Pr40 2.437 . S
O65 C50 1.278 . S
O66 Pr41 2.562 1_565 S
O66 C51 1.254 . S
O67 Pr41 2.490 1_565 S
O67 C51 1.225 . S
O68 Pr40 2.436 . S
O68 Pr41 2.695 . S
O68 C58 1.270 . S
O69 Pr41 2.512 . S
O69 C58 1.248 . S
O70 Pr40 2.438 . S
O70 C59 1.267 1_545 S
O71 Pr41 2.437 . S
O71 C59 1.278 1_545 S
H72 C44 0.929 . S
H73 C45 0.929 . S
H74 C47 0.931 . S
H75 C48 0.930 . S
H76 C53 0.929 . S
H77 C54 0.929 . S
H78 C56 0.931 . S
H79 C57 0.930 . S
Pr80 C82 2.880 . S
Pr80 O100 2.562 . S
Pr80 O101 2.490 . S
Pr80 O102 2.695 . S
Pr80 O103 2.512 . S
Pr80 O105 2.437 . S
Pr80 O108 2.436 . S
Pr80 O110 2.438 . S
Pr81 C91 2.880 . S
Pr81 O102 2.436 . S
Pr81 O104 2.438 . S
Pr81 O106 2.562 . S
Pr81 O107 2.490 . S
Pr81 O108 2.695 . S
Pr81 O109 2.512 . S
Pr81 O111 2.437 . S
C82 Pr80 2.880 . S
C82 C83 1.491 . S
C82 O100 1.254 . S
C82 O101 1.225 . S
C83 C82 1.491 . S
C83 C84 1.392 . S
C83 C88 1.356 . S
C84 C83 1.392 . S
C84 C85 1.368 . S
C84 H112 0.929 . S
C85 C84 1.368 . S
C85 C86 1.386 . S
C85 H113 0.929 . S
C86 C85 1.386 . S
C86 C87 1.373 . S
C87 C86 1.373 . S
C87 C88 1.409 . S
C87 H114 0.931 . S
C88 C83 1.356 . S
C88 C87 1.409 . S
C88 H115 0.930 . S
C89 O102 1.270 . S
C89 O103 1.248 . S
C90 O104 1.267 . S
C90 O105 1.278 . S
C91 Pr81 2.880 . S
C91 C92 1.491 . S
C91 O106 1.254 . S
C91 O107 1.225 . S
C92 C91 1.491 . S
C92 C93 1.392 . S
C92 C97 1.356 . S
C93 C92 1.392 . S
C93 C94 1.368 . S
C93 H116 0.929 . S
C94 C93 1.368 . S
C94 C95 1.386 . S
C94 H117 0.929 . S
C95 C94 1.386 . S
C95 C96 1.373 . S
C96 C95 1.373 . S
C96 C97 1.409 . S
C96 H118 0.931 . S
C97 C92 1.356 . S
C97 C96 1.409 . S
C97 H119 0.930 . S
C98 O108 1.270 . S
C98 O109 1.248 . S
C99 O110 1.267 . S
C99 O111 1.278 . S
O100 Pr80 2.562 . S
O100 C82 1.254 . S
O101 Pr80 2.490 . S
O101 C82 1.225 . S
O102 Pr80 2.695 . S
O102 Pr81 2.436 . S
O102 C89 1.270 . S
O103 Pr80 2.512 . S
O103 C89 1.248 . S
O104 Pr81 2.438 . S
O104 C90 1.267 . S
O105 Pr80 2.437 . S
O105 C90 1.278 . S
O106 Pr81 2.562 . S
O106 C91 1.254 . S
O107 Pr81 2.490 . S
O107 C91 1.225 . S
O108 Pr80 2.436 . S
O108 Pr81 2.695 . S
O108 C98 1.270 . S
O109 Pr81 2.512 . S
O109 C98 1.248 . S
O110 Pr80 2.438 . S
O110 C99 1.267 . S
O111 Pr81 2.437 . S
O111 C99 1.278 . S
H112 C84 0.929 . S
H113 C85 0.929 . S
H114 C87 0.931 . S
H115 C88 0.930 . S
H116 C93 0.929 . S
H117 C94 0.929 . S
H118 C96 0.931 . S
H119 C97 0.930 . S
H120 C121 0.949 . S
C121 H120 0.949 . S
C121 C122 1.395 . S
C121 C123 1.391 . S
C122 C121 1.395 . S
C122 C125 1.390 . S
C123 C121 1.391 . S
C123 C127 1.387 . S
C123 C128 1.491 . S
H124 C125 0.950 . S
C125 C122 1.390 . S
C125 H124 0.950 . S
C125 C126 1.378 . S
C126 C125 1.378 . S
C126 C127 1.409 . S
C127 C123 1.387 . S
C127 C126 1.409 . S
C127 H129 0.951 . S
C128 C123 1.491 . S
C128 C130 1.382 . S
C128 C132 1.404 . S
H129 C127 0.951 . S
C130 C128 1.382 . S
C130 C131 1.390 . S
C130 H135 0.949 . S
C131 C130 1.390 . S
C131 C136 1.399 . S
C132 C128 1.404 . S
C132 H133 0.950 . S
C132 C134 1.375 . S
H133 C132 0.950 . S
C134 C132 1.375 . S
C134 C136 1.382 . S
C134 H138 0.950 . S
H135 C130 0.949 . S
C136 C131 1.399 . S
C136 C134 1.382 . S
C136 H137 0.952 . S
H137 C136 0.952 . S
H138 C134 0.950 . S
H139 C140 0.949 . S
C140 H139 0.949 . S
C140 C141 1.395 . S
C140 C142 1.391 . S
C141 C140 1.395 . S
C141 C144 1.390 . S
C142 C140 1.391 . S
C142 C146 1.387 . S
C142 C147 1.491 . S
H143 C144 0.950 . S
C144 C141 1.390 . S
C144 H143 0.950 . S
C144 C145 1.378 . S
C145 C144 1.378 . S
C145 C146 1.409 . S
C146 C142 1.387 . S
C146 C145 1.409 . S
C146 H148 0.951 . S
C147 C142 1.491 . S
C147 C149 1.382 . S
C147 C151 1.404 . S
H148 C146 0.951 . S
C149 C147 1.382 . S
C149 C150 1.390 . S
C149 H154 0.949 . S
C150 C149 1.390 . S
C150 C155 1.399 . S
C151 C147 1.404 . S
C151 H152 0.950 . S
C151 C153 1.375 . S
H152 C151 0.950 . S
C153 C151 1.375 . S
C153 C155 1.382 . S
C153 H157 0.950 . S
H154 C149 0.949 . S
C155 C150 1.399 . S
C155 C153 1.382 . S
C155 H156 0.952 . S
H156 C155 0.952 . S
H157 C153 0.950 . S
H158 C159 0.949 . S
C159 H158 0.949 . S
C159 C160 1.395 . S
C159 C161 1.391 . S
C160 C159 1.395 . S
C160 C163 1.390 . S
C161 C159 1.391 . S
C161 C165 1.387 . S
C161 C166 1.491 . S
H162 C163 0.950 1_655 S
C163 C160 1.390 . S
C163 H162 0.950 1_455 S
C163 C164 1.378 1_455 S
C164 C163 1.378 1_655 S
C164 C165 1.409 1_655 S
C165 C161 1.387 . S
C165 C164 1.409 1_455 S
C165 H167 0.951 . S
C166 C161 1.491 . S
C166 C168 1.382 . S
C166 C170 1.404 . S
H167 C165 0.951 . S
C168 C166 1.382 . S
C168 C169 1.390 . S
C168 H173 0.949 . S
C169 C168 1.390 . S
C169 C174 1.399 . S
C170 C166 1.404 . S
C170 H171 0.950 . S
C170 C172 1.375 . S
H171 C170 0.950 . S
C172 C170 1.375 . S
C172 C174 1.382 . S
C172 H176 0.950 . S
H173 C168 0.949 . S
C174 C169 1.399 . S
C174 C172 1.382 . S
C174 H175 0.952 . S
H175 C174 0.952 . S
H176 C172 0.950 . S
H177 C178 0.938 1_655 S
C178 H177 0.938 1_455 S
C178 C179 1.408 . S
C178 C180 1.389 . S
C179 C178 1.408 . S
C179 C182 1.390 . S
C180 C178 1.389 . S
C180 C184 1.387 . S
C180 C185 1.491 1_455 S
H181 C182 0.950 . S
C182 C179 1.390 . S
C182 H181 0.950 . S
C182 C183 1.378 . S
C183 C182 1.378 . S
C183 C184 1.409 . S
C184 C180 1.387 . S
C184 C183 1.409 . S
C184 H186 0.951 . S
C185 C180 1.491 1_655 S
C185 C187 1.382 . S
C185 C189 1.404 . S
H186 C184 0.951 . S
C187 C185 1.382 . S
C187 C188 1.390 . S
C187 H192 0.949 . S
C188 C187 1.390 . S
C188 C193 1.399 . S
C189 C185 1.404 . S
C189 H190 0.950 . S
C189 C191 1.375 . S
H190 C189 0.950 . S
C191 C189 1.375 . S
C191 C193 1.382 . S
C191 H195 0.950 . S
H192 C187 0.949 . S
C193 C188 1.399 . S
C193 C191 1.382 . S
C193 H194 0.952 . S
H194 C193 0.952 . S
H195 C191 0.950 . S
H196 C197 0.953 . S
C197 H196 0.953 . S
C197 C198 1.395 . S
C197 C199 1.391 . S
C198 C197 1.395 . S
C198 C201 1.390 . S
C199 C197 1.391 . S
C199 C203 1.387 . S
C199 C204 1.491 1_545 S
H200 C201 0.950 . S
C201 C198 1.390 . S
C201 H200 0.950 . S
C201 C202 1.378 . S
C202 C201 1.378 . S
C202 C203 1.409 . S
C203 C199 1.387 . S
C203 C202 1.409 . S
C203 H205 0.951 . S
C204 C199 1.491 1_565 S
C204 C206 1.382 . S
C204 C208 1.404 . S
H205 C203 0.951 . S
C206 C204 1.382 . S
C206 C207 1.390 . S
C206 H211 0.949 . S
C207 C206 1.390 . S
C207 C212 1.399 . S
C208 C204 1.404 . S
C208 H209 0.950 1_565 S
C208 C210 1.375 . S
H209 C208 0.950 1_545 S
C210 C208 1.375 . S
C210 C212 1.382 . S
C210 H214 0.950 . S
H211 C206 0.949 . S
C212 C207 1.399 . S
C212 C210 1.382 . S
C212 H213 0.952 . S
H213 C212 0.952 . S
H214 C210 0.950 . S
H215 C216 0.949 . S
C216 H215 0.949 . S
C216 C217 1.395 . S
C216 C218 1.391 . S
C217 C216 1.395 . S
C217 C220 1.390 . S
C218 C216 1.391 . S
C218 C222 1.387 . S
C218 C223 1.491 . S
H219 C220 0.950 . S
C220 C217 1.390 . S
C220 H219 0.950 . S
C220 C221 1.378 . S
C221 C220 1.378 . S
C221 C222 1.409 . S
C222 C218 1.387 . S
C222 C221 1.409 . S
C222 H224 0.951 . S
C223 C218 1.491 . S
C223 C225 1.382 . S
C223 C227 1.404 . S
H224 C222 0.951 . S
C225 C223 1.382 . S
C225 C226 1.390 . S
C225 H230 0.949 . S
C226 C225 1.390 . S
C226 C231 1.399 . S
C227 C223 1.404 . S
C227 H228 0.950 . S
C227 C229 1.375 . S
H228 C227 0.950 . S
C229 C227 1.375 . S
C229 C231 1.382 . S
C229 H233 0.950 . S
H230 C225 0.949 . S
C231 C226 1.399 . S
C231 C229 1.382 . S
C231 H232 0.952 . S
H232 C231 0.952 . S
H233 C229 0.950 . S
H234 C252 0.951 . S
H235 C254 0.951 . S
H236 C256 0.950 . S
H237 C257 0.950 . S
H238 C259 0.950 . S
H239 C262 0.950 . S
H240 C263 0.950 . S
H241 C265 0.950 . S
H242 C266 0.950 . S
H243 C267 0.951 . S
H244 C269 0.951 . S
H245 C271 0.950 . S
H246 C272 0.950 . S
H247 C274 0.950 . S
H248 C277 0.950 . S
H249 C278 0.950 . S
H250 C280 0.950 . S
H251 C281 0.950 . S
C252 H234 0.951 . S
C252 C253 1.366 . S
C252 C254 1.388 . S
C253 C252 1.366 . S
C253 C257 1.385 . S
C254 H235 0.951 . S
C254 C252 1.388 . S
C254 C255 1.366 . S
C255 C254 1.366 . S
C255 C256 1.414 . S
C255 C258 1.499 . S
C256 H236 0.950 . S
C256 C255 1.414 . S
C256 C257 1.374 . S
C257 H237 0.950 . S
C257 C253 1.385 . S
C257 C256 1.374 . S
C258 C255 1.499 . S
C258 C259 1.373 . S
C258 C260 1.389 . S
C259 H238 0.950 . S
C259 C258 1.373 . S
C259 C275 1.377 . S
C260 C258 1.389 . S
C260 C261 1.524 . S
C260 C274 1.377 . S
C261 C260 1.524 . S
C261 C262 1.397 . S
C261 C266 1.363 . S
C262 H239 0.950 . S
C262 C261 1.397 . S
C262 C263 1.334 . S
C263 H240 0.950 . S
C263 C262 1.334 . S
C263 C264 1.287 . S
C264 C263 1.287 . S
C264 C265 1.524 . S
C264 H283 0.913 . S
C265 H241 0.950 . S
C265 C264 1.524 . S
C265 C266 1.415 . S
C266 H242 0.950 . S
C266 C261 1.363 . S
C266 C265 1.415 . S
C267 H243 0.951 . S
C267 C268 1.366 . S
C267 C269 1.388 . S
C268 C267 1.366 . S
C268 C272 1.385 . S
C269 H244 0.951 . S
C269 C267 1.388 . S
C269 C270 1.366 . S
C270 C269 1.366 . S
C270 C271 1.414 . S
C270 C273 1.499 . S
C271 H245 0.950 . S
C271 C270 1.414 . S
C271 C272 1.374 . S
C272 H246 0.950 . S
C272 C268 1.385 . S
C272 C271 1.374 . S
C273 C270 1.499 . S
C273 C274 1.373 . S
C273 C275 1.389 . S
C274 H247 0.950 . S
C274 C260 1.377 . S
C274 C273 1.373 . S
C275 C259 1.377 . S
C275 C273 1.389 . S
C275 C276 1.524 . S
C276 C275 1.524 . S
C276 C277 1.397 . S
C276 C281 1.363 . S
C277 H248 0.950 . S
C277 C276 1.397 . S
C277 C278 1.334 . S
C278 H249 0.950 . S
C278 C277 1.334 . S
C278 C279 1.287 . S
C279 C278 1.287 . S
C279 C280 1.524 . S
C279 H282 0.999 . S
C280 H250 0.950 . S
C280 C279 1.524 . S
C280 C281 1.415 . S
C281 H251 0.950 . S
C281 C276 1.363 . S
C281 C280 1.415 . S
H282 C279 0.999 . S
H283 C264 0.913 . S
H284 C302 0.951 . S
H285 C304 0.951 . S
H286 C306 0.950 . S
H287 C307 0.950 . S
H288 C309 0.950 . S
H289 C312 0.950 . S
H290 C313 0.950 . S
H291 C315 0.950 . S
H292 C316 0.950 . S
H293 C317 0.951 . S
H294 C319 0.951 . S
H295 C321 0.950 . S
H296 C322 0.950 . S
H297 C324 0.950 . S
H298 C327 0.950 . S
H299 C328 0.950 . S
H300 C330 0.950 . S
H301 C331 0.950 . S
C302 H284 0.951 . S
C302 C303 1.366 . S
C302 C304 1.388 . S
C303 C302 1.366 . S
C303 C307 1.385 . S
C304 H285 0.951 . S
C304 C302 1.388 . S
C304 C305 1.366 . S
C305 C304 1.366 . S
C305 C306 1.414 . S
C305 C308 1.499 . S
C306 H286 0.950 . S
C306 C305 1.414 . S
C306 C307 1.374 . S
C307 H287 0.950 . S
C307 C303 1.385 . S
C307 C306 1.374 . S
C308 C305 1.499 . S
C308 C309 1.373 . S
C308 C310 1.389 . S
C309 H288 0.950 . S
C309 C308 1.373 . S
C309 C325 1.377 . S
C310 C308 1.389 . S
C310 C311 1.524 . S
C310 C324 1.377 . S
C311 C310 1.524 . S
C311 C312 1.397 . S
C311 C316 1.363 . S
C312 H289 0.950 . S
C312 C311 1.397 . S
C312 C313 1.334 . S
C313 H290 0.950 . S
C313 C312 1.334 . S
C313 C314 1.287 . S
C314 C313 1.287 . S
C314 C315 1.524 . S
C314 H333 0.913 . S
C315 H291 0.950 . S
C315 C314 1.524 . S
C315 C316 1.415 . S
C316 H292 0.950 . S
C316 C311 1.363 . S
C316 C315 1.415 . S
C317 H293 0.951 . S
C317 C318 1.366 . S
C317 C319 1.388 . S
C318 C317 1.366 . S
C318 C322 1.385 . S
C319 H294 0.951 . S
C319 C317 1.388 . S
C319 C320 1.366 . S
C320 C319 1.366 . S
C320 C321 1.414 . S
C320 C323 1.499 . S
C321 H295 0.950 . S
C321 C320 1.414 . S
C321 C322 1.374 . S
C322 H296 0.950 . S
C322 C318 1.385 . S
C322 C321 1.374 . S
C323 C320 1.499 . S
C323 C324 1.373 . S
C323 C325 1.389 . S
C324 H297 0.950 . S
C324 C310 1.377 . S
C324 C323 1.373 . S
C325 C309 1.377 . S
C325 C323 1.389 . S
C325 C326 1.524 . S
C326 C325 1.524 . S
C326 C327 1.397 . S
C326 C331 1.363 . S
C327 H298 0.950 . S
C327 C326 1.397 . S
C327 C328 1.334 . S
C328 H299 0.950 . S
C328 C327 1.334 . S
C328 C329 1.287 . S
C329 C328 1.287 . S
C329 C330 1.524 . S
C329 H332 0.999 . S
C330 H300 0.950 . S
C330 C329 1.524 . S
C330 C331 1.415 . S
C331 H301 0.950 . S
C331 C326 1.363 . S
C331 C330 1.415 . S
H332 C329 0.999 . S
H333 C314 0.913 . S
H334 C352 0.951 . S
H335 C354 0.951 . S
H336 C356 0.950 . S
H337 C357 0.950 . S
H338 C359 0.950 . S
H339 C362 0.950 . S
H340 C363 0.950 . S
H341 C365 0.950 . S
H342 C366 0.950 . S
H343 C367 0.951 . S
H344 C369 0.951 . S
H345 C371 0.950 . S
H346 C372 0.950 . S
H347 C374 0.950 . S
H348 C377 0.950 . S
H349 C378 0.950 . S
H350 C380 0.950 . S
H351 C381 0.950 . S
C352 H334 0.951 . S
C352 C353 1.366 . S
C352 C354 1.388 . S
C353 C352 1.366 . S
C353 C357 1.385 . S
C354 H335 0.951 . S
C354 C352 1.388 . S
C354 C355 1.366 . S
C355 C354 1.366 . S
C355 C356 1.414 . S
C355 C358 1.499 . S
C356 H336 0.950 . S
C356 C355 1.414 . S
C356 C357 1.374 . S
C357 H337 0.950 . S
C357 C353 1.385 . S
C357 C356 1.374 . S
C358 C355 1.499 . S
C358 C359 1.373 . S
C358 C360 1.389 . S
C359 H338 0.950 . S
C359 C358 1.373 . S
C359 C375 1.377 . S
C360 C358 1.389 . S
C360 C361 1.524 . S
C360 C374 1.377 . S
C361 C360 1.524 . S
C361 C362 1.397 . S
C361 C366 1.363 . S
C362 H339 0.950 . S
C362 C361 1.397 . S
C362 C363 1.334 . S
C363 H340 0.950 . S
C363 C362 1.334 . S
C363 C364 1.287 . S
C364 C363 1.287 . S
C364 C365 1.524 . S
C364 H383 0.913 . S
C365 H341 0.950 . S
C365 C364 1.524 . S
C365 C366 1.415 . S
C366 H342 0.950 . S
C366 C361 1.363 . S
C366 C365 1.415 . S
C367 H343 0.951 . S
C367 C368 1.366 . S
C367 C369 1.388 . S
C368 C367 1.366 . S
C368 C372 1.385 . S
C369 H344 0.951 . S
C369 C367 1.388 . S
C369 C370 1.366 . S
C370 C369 1.366 . S
C370 C371 1.414 . S
C370 C373 1.499 . S
C371 H345 0.950 . S
C371 C370 1.414 . S
C371 C372 1.374 . S
C372 H346 0.950 . S
C372 C368 1.385 . S
C372 C371 1.374 . S
C373 C370 1.499 . S
C373 C374 1.373 . S
C373 C375 1.389 . S
C374 H347 0.950 . S
C374 C360 1.377 . S
C374 C373 1.373 . S
C375 C359 1.377 . S
C375 C373 1.389 . S
C375 C376 1.524 . S
C376 C375 1.524 . S
C376 C377 1.397 . S
C376 C381 1.363 . S
C377 H348 0.950 . S
C377 C376 1.397 . S
C377 C378 1.334 . S
C378 H349 0.950 . S
C378 C377 1.334 . S
C378 C379 1.287 . S
C379 C378 1.287 . S
C379 C380 1.524 . S
C379 H382 0.999 . S
C380 H350 0.950 . S
C380 C379 1.524 . S
C380 C381 1.415 . S
C381 H351 0.950 . S
C381 C376 1.363 . S
C381 C380 1.415 . S
H382 C379 0.999 . S
H383 C364 0.913 . S
H384 C402 0.951 . S
H385 C404 0.951 . S
H386 C406 0.950 . S
H387 C407 0.950 . S
H388 C409 0.950 . S
H389 C412 0.950 . S
H390 C413 0.950 . S
H391 C415 0.950 . S
H392 C416 0.950 . S
H393 C417 0.951 . S
H394 C419 0.951 . S
H395 C421 0.950 . S
H396 C422 0.950 . S
H397 C424 0.950 . S
H398 C427 0.950 . S
H399 C428 0.950 . S
H400 C430 0.950 . S
H401 C431 0.950 . S
C402 H384 0.951 . S
C402 C403 1.366 . S
C402 C404 1.388 . S
C403 C402 1.366 . S
C403 C407 1.385 . S
C404 H385 0.951 . S
C404 C402 1.388 . S
C404 C405 1.366 . S
C405 C404 1.366 . S
C405 C406 1.414 . S
C405 C408 1.499 . S
C406 H386 0.950 . S
C406 C405 1.414 . S
C406 C407 1.374 . S
C407 H387 0.950 . S
C407 C403 1.385 . S
C407 C406 1.374 . S
C408 C405 1.499 . S
C408 C409 1.373 . S
C408 C410 1.389 . S
C409 H388 0.950 . S
C409 C408 1.373 . S
C409 C425 1.377 . S
C410 C408 1.389 . S
C410 C411 1.524 . S
C410 C424 1.377 . S
C411 C410 1.524 . S
C411 C412 1.397 . S
C411 C416 1.363 . S
C412 H389 0.950 . S
C412 C411 1.397 . S
C412 C413 1.334 . S
C413 H390 0.950 . S
C413 C412 1.334 . S
C413 C414 1.287 . S
C414 C413 1.287 . S
C414 C415 1.524 . S
C414 H433 0.913 . S
C415 H391 0.950 . S
C415 C414 1.524 . S
C415 C416 1.415 . S
C416 H392 0.950 . S
C416 C411 1.363 . S
C416 C415 1.415 . S
C417 H393 0.951 . S
C417 C418 1.366 . S
C417 C419 1.388 . S
C418 C417 1.366 . S
C418 C422 1.385 . S
C419 H394 0.951 . S
C419 C417 1.388 . S
C419 C420 1.366 . S
C420 C419 1.366 . S
C420 C421 1.414 . S
C420 C423 1.499 . S
C421 H395 0.950 . S
C421 C420 1.414 . S
C421 C422 1.374 . S
C422 H396 0.950 . S
C422 C418 1.385 . S
C422 C421 1.374 . S
C423 C420 1.499 . S
C423 C424 1.373 . S
C423 C425 1.389 . S
C424 H397 0.950 . S
C424 C410 1.377 . S
C424 C423 1.373 . S
C425 C409 1.377 . S
C425 C423 1.389 . S
C425 C426 1.524 . S
C426 C425 1.524 . S
C426 C427 1.397 . S
C426 C431 1.363 . S
C427 H398 0.950 . S
C427 C426 1.397 . S
C427 C428 1.334 . S
C428 H399 0.950 . S
C428 C427 1.334 . S
C428 C429 1.287 . S
C429 C428 1.287 . S
C429 C430 1.524 . S
C429 H432 0.999 . S
C430 H400 0.950 . S
C430 C429 1.524 . S
C430 C431 1.415 . S
C431 H401 0.950 . S
C431 C426 1.363 . S
C431 C430 1.415 . S
H432 C429 0.999 . S
H433 C414 0.913 . S
H434 C452 0.951 . S
H435 C454 0.951 . S
H436 C456 0.950 . S
H437 C457 0.950 . S
H438 C459 0.950 . S
H439 C462 0.950 . S
H440 C463 0.950 . S
H441 C465 0.950 . S
H442 C466 0.950 . S
H443 C467 0.951 . S
H444 C469 0.951 . S
H445 C471 0.950 . S
H446 C472 0.950 . S
H447 C474 0.950 . S
H448 C477 0.950 . S
H449 C478 0.950 . S
H450 C480 0.950 . S
H451 C481 0.950 . S
C452 H434 0.951 . S
C452 C453 1.366 . S
C452 C454 1.388 . S
C453 C452 1.366 . S
C453 C457 1.385 . S
C454 H435 0.951 . S
C454 C452 1.388 . S
C454 C455 1.366 . S
C455 C454 1.366 . S
C455 C456 1.414 . S
C455 C458 1.499 . S
C456 H436 0.950 . S
C456 C455 1.414 . S
C456 C457 1.374 . S
C457 H437 0.950 . S
C457 C453 1.385 . S
C457 C456 1.374 . S
C458 C455 1.499 . S
C458 C459 1.373 . S
C458 C460 1.389 . S
C459 H438 0.950 . S
C459 C458 1.373 . S
C459 C475 1.377 . S
C460 C458 1.389 . S
C460 C461 1.524 . S
C460 C474 1.377 . S
C461 C460 1.524 . S
C461 C462 1.397 . S
C461 C466 1.363 . S
C462 H439 0.950 . S
C462 C461 1.397 . S
C462 C463 1.334 . S
C463 H440 0.950 . S
C463 C462 1.334 . S
C463 C464 1.287 . S
C464 C463 1.287 . S
C464 C465 1.524 . S
C464 H483 0.913 . S
C465 H441 0.950 . S
C465 C464 1.524 . S
C465 C466 1.415 . S
C466 H442 0.950 . S
C466 C461 1.363 . S
C466 C465 1.415 . S
C467 H443 0.951 . S
C467 C468 1.366 . S
C467 C469 1.388 . S
C468 C467 1.366 . S
C468 C472 1.385 . S
C469 H444 0.951 . S
C469 C467 1.388 . S
C469 C470 1.366 . S
C470 C469 1.366 . S
C470 C471 1.414 . S
C470 C473 1.499 . S
C471 H445 0.950 . S
C471 C470 1.414 . S
C471 C472 1.374 . S
C472 H446 0.950 . S
C472 C468 1.385 . S
C472 C471 1.374 . S
C473 C470 1.499 . S
C473 C474 1.373 . S
C473 C475 1.389 . S
C474 H447 0.950 . S
C474 C460 1.377 . S
C474 C473 1.373 . S
C475 C459 1.377 . S
C475 C473 1.389 . S
C475 C476 1.524 . S
C476 C475 1.524 . S
C476 C477 1.397 . S
C476 C481 1.363 . S
C477 H448 0.950 . S
C477 C476 1.397 . S
C477 C478 1.334 . S
C478 H449 0.950 . S
C478 C477 1.334 . S
C478 C479 1.287 . S
C479 C478 1.287 . S
C479 C480 1.524 . S
C479 H482 0.999 . S
C480 H450 0.950 . S
C480 C479 1.524 . S
C480 C481 1.415 . S
C481 H451 0.950 . S
C481 C476 1.363 . S
C481 C480 1.415 . S
H482 C479 0.999 . S
H483 C464 0.913 . S
H484 C502 0.951 . S
H485 C504 0.951 . S
H486 C506 0.950 . S
H487 C507 0.950 . S
H488 C509 0.950 . S
H489 C512 0.950 . S
H490 C513 0.950 . S
H491 C515 0.950 . S
H492 C516 0.950 . S
H493 C517 0.951 . S
H494 C519 0.951 . S
H495 C521 0.950 . S
H496 C522 0.950 . S
H497 C524 0.950 . S
H498 C527 0.950 . S
H499 C528 0.950 . S
H500 C530 0.950 . S
H501 C531 0.950 . S
C502 H484 0.951 . S
C502 C503 1.366 . S
C502 C504 1.388 . S
C503 C502 1.366 . S
C503 C507 1.385 . S
C504 H485 0.951 . S
C504 C502 1.388 . S
C504 C505 1.366 . S
C505 C504 1.366 . S
C505 C506 1.414 . S
C505 C508 1.499 . S
C506 H486 0.950 . S
C506 C505 1.414 . S
C506 C507 1.374 . S
C507 H487 0.950 . S
C507 C503 1.385 . S
C507 C506 1.374 . S
C508 C505 1.499 . S
C508 C509 1.373 . S
C508 C510 1.389 . S
C509 H488 0.950 . S
C509 C508 1.373 . S
C509 C525 1.377 . S
C510 C508 1.389 . S
C510 C511 1.524 . S
C510 C524 1.377 . S
C511 C510 1.524 . S
C511 C512 1.397 . S
C511 C516 1.363 . S
C512 H489 0.950 . S
C512 C511 1.397 . S
C512 C513 1.334 . S
C513 H490 0.950 . S
C513 C512 1.334 . S
C513 C514 1.287 . S
C514 C513 1.287 . S
C514 C515 1.524 . S
C514 H533 0.913 . S
C515 H491 0.950 . S
C515 C514 1.524 . S
C515 C516 1.415 . S
C516 H492 0.950 . S
C516 C511 1.363 . S
C516 C515 1.415 . S
C517 H493 0.951 . S
C517 C518 1.366 . S
C517 C519 1.388 . S
C518 C517 1.366 . S
C518 C522 1.385 . S
C519 H494 0.951 . S
C519 C517 1.388 . S
C519 C520 1.366 . S
C520 C519 1.366 . S
C520 C521 1.414 . S
C520 C523 1.499 . S
C521 H495 0.950 . S
C521 C520 1.414 . S
C521 C522 1.374 . S
C522 H496 0.950 . S
C522 C518 1.385 . S
C522 C521 1.374 . S
C523 C520 1.499 . S
C523 C524 1.373 . S
C523 C525 1.389 . S
C524 H497 0.950 . S
C524 C510 1.377 . S
C524 C523 1.373 . S
C525 C509 1.377 . S
C525 C523 1.389 . S
C525 C526 1.524 . S
C526 C525 1.524 . S
C526 C527 1.397 . S
C526 C531 1.363 . S
C527 H498 0.950 . S
C527 C526 1.397 . S
C527 C528 1.334 . S
C528 H499 0.950 . S
C528 C527 1.334 . S
C528 C529 1.287 . S
C529 C528 1.287 . S
C529 C530 1.524 . S
C529 H532 0.999 . S
C530 H500 0.950 . S
C530 C529 1.524 . S
C530 C531 1.415 . S
C531 H501 0.950 . S
C531 C526 1.363 . S
C531 C530 1.415 . S
H532 C529 0.999 . S
H533 C514 0.913 . S
H534 C552 0.951 . S
H535 C554 0.951 . S
H536 C556 0.950 . S
H537 C557 0.950 . S
H538 C559 0.950 . S
H539 C562 0.950 . S
H540 C563 0.950 . S
H541 C565 0.950 . S
H542 C566 0.950 . S
H543 C567 0.951 . S
H544 C569 0.951 . S
H545 C571 0.950 . S
H546 C572 0.950 . S
H547 C574 0.950 . S
H548 C577 0.950 . S
H549 C578 0.950 . S
H550 C580 0.950 . S
H551 C581 0.950 . S
C552 H534 0.951 . S
C552 C553 1.366 . S
C552 C554 1.388 . S
C553 C552 1.366 . S
C553 C557 1.385 . S
C554 H535 0.951 . S
C554 C552 1.388 . S
C554 C555 1.366 . S
C555 C554 1.366 . S
C555 C556 1.414 . S
C555 C558 1.499 . S
C556 H536 0.950 . S
C556 C555 1.414 . S
C556 C557 1.374 . S
C557 H537 0.950 . S
C557 C553 1.385 . S
C557 C556 1.374 . S
C558 C555 1.499 . S
C558 C559 1.373 . S
C558 C560 1.389 . S
C559 H538 0.950 . S
C559 C558 1.373 . S
C559 C575 1.377 . S
C560 C558 1.389 . S
C560 C561 1.524 . S
C560 C574 1.377 . S
C561 C560 1.524 . S
C561 C562 1.397 . S
C561 C566 1.363 . S
C562 H539 0.950 . S
C562 C561 1.397 . S
C562 C563 1.334 . S
C563 H540 0.950 . S
C563 C562 1.334 . S
C563 C564 1.287 . S
C564 C563 1.287 . S
C564 C565 1.524 . S
C564 H583 0.913 . S
C565 H541 0.950 . S
C565 C564 1.524 . S
C565 C566 1.415 . S
C566 H542 0.950 . S
C566 C561 1.363 . S
C566 C565 1.415 . S
C567 H543 0.951 . S
C567 C568 1.366 . S
C567 C569 1.388 . S
C568 C567 1.366 . S
C568 C572 1.385 . S
C569 H544 0.951 . S
C569 C567 1.388 . S
C569 C570 1.366 . S
C570 C569 1.366 . S
C570 C571 1.414 . S
C570 C573 1.499 . S
C571 H545 0.950 . S
C571 C570 1.414 . S
C571 C572 1.374 . S
C572 H546 0.950 . S
C572 C568 1.385 . S
C572 C571 1.374 . S
C573 C570 1.499 . S
C573 C574 1.373 . S
C573 C575 1.389 . S
C574 H547 0.950 . S
C574 C560 1.377 . S
C574 C573 1.373 . S
C575 C559 1.377 . S
C575 C573 1.389 . S
C575 C576 1.524 . S
C576 C575 1.524 . S
C576 C577 1.397 . S
C576 C581 1.363 . S
C577 H548 0.950 . S
C577 C576 1.397 . S
C577 C578 1.334 . S
C578 H549 0.950 . S
C578 C577 1.334 . S
C578 C579 1.287 . S
C579 C578 1.287 . S
C579 C580 1.524 . S
C579 H582 0.999 . S
C580 H550 0.950 . S
C580 C579 1.524 . S
C580 C581 1.415 . S
C581 H551 0.950 . S
C581 C576 1.363 . S
C581 C580 1.415 . S
H582 C579 0.999 . S
H583 C564 0.913 . S
H584 C602 0.951 . S
H585 C604 0.951 . S
H586 C606 0.950 . S
H587 C607 0.950 . S
H588 C609 0.950 . S
H589 C612 0.950 . S
H590 C613 0.950 . S
H591 C615 0.950 . S
H592 C616 0.950 . S
H593 C617 0.951 . S
H594 C619 0.951 . S
H595 C621 0.950 . S
H596 C622 0.950 . S
H597 C624 0.950 . S
H598 C627 0.950 . S
H599 C628 0.950 . S
H600 C630 0.950 . S
H601 C631 0.950 . S
C602 H584 0.951 . S
C602 C603 1.366 . S
C602 C604 1.388 . S
C603 C602 1.366 . S
C603 C607 1.385 . S
C604 H585 0.951 . S
C604 C602 1.388 . S
C604 C605 1.366 . S
C605 C604 1.366 . S
C605 C606 1.414 . S
C605 C608 1.499 . S
C606 H586 0.950 . S
C606 C605 1.414 . S
C606 C607 1.374 . S
C607 H587 0.950 . S
C607 C603 1.385 . S
C607 C606 1.374 . S
C608 C605 1.499 . S
C608 C609 1.373 . S
C608 C610 1.389 . S
C609 H588 0.950 . S
C609 C608 1.373 . S
C609 C625 1.377 . S
C610 C608 1.389 . S
C610 C611 1.524 . S
C610 C624 1.377 . S
C611 C610 1.524 . S
C611 C612 1.397 . S
C611 C616 1.363 . S
C612 H589 0.950 . S
C612 C611 1.397 . S
C612 C613 1.334 . S
C613 H590 0.950 . S
C613 C612 1.334 . S
C613 C614 1.287 . S
C614 C613 1.287 . S
C614 C615 1.524 . S
C614 H633 0.913 . S
C615 H591 0.950 . S
C615 C614 1.524 . S
C615 C616 1.415 . S
C616 H592 0.950 . S
C616 C611 1.363 . S
C616 C615 1.415 . S
C617 H593 0.951 . S
C617 C618 1.366 . S
C617 C619 1.388 . S
C618 C617 1.366 . S
C618 C622 1.385 . S
C619 H594 0.951 . S
C619 C617 1.388 . S
C619 C620 1.366 . S
C620 C619 1.366 . S
C620 C621 1.414 . S
C620 C623 1.499 . S
C621 H595 0.950 . S
C621 C620 1.414 . S
C621 C622 1.374 . S
C622 H596 0.950 . S
C622 C618 1.385 . S
C622 C621 1.374 . S
C623 C620 1.499 . S
C623 C624 1.373 . S
C623 C625 1.389 . S
C624 H597 0.950 . S
C624 C610 1.377 . S
C624 C623 1.373 . S
C625 C609 1.377 . S
C625 C623 1.389 . S
C625 C626 1.524 . S
C626 C625 1.524 . S
C626 C627 1.397 . S
C626 C631 1.363 . S
C627 H598 0.950 . S
C627 C626 1.397 . S
C627 C628 1.334 . S
C628 H599 0.950 . S
C628 C627 1.334 . S
C628 C629 1.287 . S
C629 C628 1.287 . S
C629 C630 1.524 . S
C629 H632 0.999 . S
C630 H600 0.950 . S
C630 C629 1.524 . S
C630 C631 1.415 . S
C631 H601 0.950 . S
C631 C626 1.363 . S
C631 C630 1.415 . S
H632 C629 0.999 . S
H633 C614 0.913 . S
H634 C652 0.951 . S
H635 C654 0.951 . S
H636 C656 0.950 . S
H637 C657 0.950 . S
H638 C659 0.950 . S
H639 C662 0.950 . S
H640 C663 0.950 . S
H641 C665 0.950 . S
H642 C666 0.950 . S
H643 C667 0.951 . S
H644 C669 0.951 . S
H645 C671 0.950 . S
H646 C672 0.950 . S
H647 C674 0.950 . S
H648 C677 0.950 . S
H649 C678 0.950 . S
H650 C680 0.950 . S
H651 C681 0.950 . S
C652 H634 0.951 . S
C652 C653 1.366 . S
C652 C654 1.388 . S
C653 C652 1.366 . S
C653 C657 1.385 . S
C654 H635 0.951 . S
C654 C652 1.388 . S
C654 C655 1.366 . S
C655 C654 1.366 . S
C655 C656 1.414 . S
C655 C658 1.499 . S
C656 H636 0.950 . S
C656 C655 1.414 . S
C656 C657 1.374 . S
C657 H637 0.950 . S
C657 C653 1.385 . S
C657 C656 1.374 . S
C658 C655 1.499 . S
C658 C659 1.373 . S
C658 C660 1.389 . S
C659 H638 0.950 . S
C659 C658 1.373 . S
C659 C675 1.377 . S
C660 C658 1.389 . S
C660 C661 1.524 . S
C660 C674 1.377 . S
C661 C660 1.524 . S
C661 C662 1.397 . S
C661 C666 1.363 . S
C662 H639 0.950 . S
C662 C661 1.397 . S
C662 C663 1.334 . S
C663 H640 0.950 . S
C663 C662 1.334 . S
C663 C664 1.287 . S
C664 C663 1.287 . S
C664 C665 1.524 . S
C664 H683 0.913 . S
C665 H641 0.950 . S
C665 C664 1.524 . S
C665 C666 1.415 . S
C666 H642 0.950 . S
C666 C661 1.363 . S
C666 C665 1.415 . S
C667 H643 0.951 . S
C667 C668 1.366 1_565 S
C667 C669 1.388 . S
C668 C667 1.366 1_545 S
C668 C672 1.385 . S
C669 H644 0.951 . S
C669 C667 1.388 . S
C669 C670 1.366 . S
C670 C669 1.366 . S
C670 C671 1.414 . S
C670 C673 1.499 . S
C671 H645 0.950 . S
C671 C670 1.414 . S
C671 C672 1.374 1_565 S
C672 H646 0.950 . S
C672 C668 1.385 . S
C672 C671 1.374 1_545 S
C673 C670 1.499 . S
C673 C674 1.373 . S
C673 C675 1.389 . S
C674 H647 0.950 . S
C674 C660 1.377 . S
C674 C673 1.373 . S
C675 C659 1.377 . S
C675 C673 1.389 . S
C675 C676 1.524 . S
C676 C675 1.524 . S
C676 C677 1.397 . S
C676 C681 1.363 . S
C677 H648 0.950 . S
C677 C676 1.397 . S
C677 C678 1.334 . S
C678 H649 0.950 . S
C678 C677 1.334 . S
C678 C679 1.287 . S
C679 C678 1.287 . S
C679 C680 1.524 . S
C679 H682 0.999 . S
C680 H650 0.950 . S
C680 C679 1.524 . S
C680 C681 1.415 . S
C681 H651 0.950 . S
C681 C676 1.363 . S
C681 C680 1.415 . S
H682 C679 0.999 . S
H683 C664 0.913 . S
H684 C702 0.951 . S
H685 C704 0.951 . S
H686 C706 0.950 . S
H687 C707 0.950 . S
H688 C709 0.950 . S
H689 C712 0.950 . S
H690 C713 0.950 . S
H691 C715 0.950 . S
H692 C716 0.950 . S
H693 C717 0.951 . S
H694 C719 0.951 . S
H695 C721 0.950 . S
H696 C722 0.950 . S
H697 C724 0.950 . S
H698 C727 0.950 . S
H699 C728 0.950 . S
H700 C730 0.950 . S
H701 C731 0.950 . S
C702 H684 0.951 . S
C702 C703 1.366 . S
C702 C704 1.388 . S
C703 C702 1.366 . S
C703 C707 1.385 . S
C704 H685 0.951 . S
C704 C702 1.388 . S
C704 C705 1.366 . S
C705 C704 1.366 . S
C705 C706 1.414 . S
C705 C708 1.499 . S
C706 H686 0.950 . S
C706 C705 1.414 . S
C706 C707 1.374 . S
C707 H687 0.950 . S
C707 C703 1.385 . S
C707 C706 1.374 . S
C708 C705 1.499 . S
C708 C709 1.373 . S
C708 C710 1.389 . S
C709 H688 0.950 . S
C709 C708 1.373 . S
C709 C725 1.377 . S
C710 C708 1.389 . S
C710 C711 1.524 . S
C710 C724 1.377 . S
C711 C710 1.524 . S
C711 C712 1.397 . S
C711 C716 1.363 . S
C712 H689 0.950 . S
C712 C711 1.397 . S
C712 C713 1.334 . S
C713 H690 0.950 . S
C713 C712 1.334 . S
C713 C714 1.287 . S
C714 C713 1.287 . S
C714 C715 1.524 . S
C714 H733 0.913 . S
C715 H691 0.950 . S
C715 C714 1.524 . S
C715 C716 1.415 . S
C716 H692 0.950 . S
C716 C711 1.363 . S
C716 C715 1.415 . S
C717 H693 0.951 . S
C717 C718 1.366 . S
C717 C719 1.388 . S
C718 C717 1.366 . S
C718 C722 1.385 . S
C719 H694 0.951 . S
C719 C717 1.388 . S
C719 C720 1.366 . S
C720 C719 1.366 . S
C720 C721 1.414 . S
C720 C723 1.499 . S
C721 H695 0.950 . S
C721 C720 1.414 . S
C721 C722 1.374 . S
C722 H696 0.950 . S
C722 C718 1.385 . S
C722 C721 1.374 . S
C723 C720 1.499 . S
C723 C724 1.373 . S
C723 C725 1.389 . S
C724 H697 0.950 . S
C724 C710 1.377 . S
C724 C723 1.373 . S
C725 C709 1.377 . S
C725 C723 1.389 . S
C725 C726 1.524 . S
C726 C725 1.524 . S
C726 C727 1.397 . S
C726 C731 1.363 . S
C727 H698 0.950 . S
C727 C726 1.397 . S
C727 C728 1.334 . S
C728 H699 0.950 . S
C728 C727 1.334 . S
C728 C729 1.287 . S
C729 C728 1.287 . S
C729 C730 1.524 . S
C729 H732 0.999 . S
C730 H700 0.950 . S
C730 C729 1.524 . S
C730 C731 1.415 . S
C731 H701 0.950 . S
C731 C726 1.363 . S
C731 C730 1.415 . S
H732 C729 0.999 . S
H733 C714 0.913 . S
H734 C752 0.951 . S
H735 C754 0.951 . S
H736 C756 0.950 . S
H737 C757 0.950 . S
H738 C759 0.950 . S
H739 C762 0.950 . S
H740 C763 0.950 . S
H741 C765 0.950 . S
H742 C766 0.950 . S
H743 C767 0.951 . S
H744 C769 0.951 . S
H745 C771 0.950 . S
H746 C772 0.950 . S
H747 C774 0.950 . S
H748 C777 0.950 . S
H749 C778 0.950 . S
H750 C780 0.950 . S
H751 C781 0.950 . S
C752 H734 0.951 . S
C752 C753 1.366 . S
C752 C754 1.388 . S
C753 C752 1.366 . S
C753 C757 1.385 . S
C754 H735 0.951 . S
C754 C752 1.388 . S
C754 C755 1.366 . S
C755 C754 1.366 . S
C755 C756 1.414 . S
C755 C758 1.499 . S
C756 H736 0.950 . S
C756 C755 1.414 . S
C756 C757 1.374 . S
C757 H737 0.950 . S
C757 C753 1.385 . S
C757 C756 1.374 . S
C758 C755 1.499 . S
C758 C759 1.373 . S
C758 C760 1.389 . S
C759 H738 0.950 . S
C759 C758 1.373 . S
C759 C775 1.377 . S
C760 C758 1.389 . S
C760 C761 1.524 . S
C760 C774 1.377 . S
C761 C760 1.524 . S
C761 C762 1.397 . S
C761 C766 1.363 . S
C762 H739 0.950 . S
C762 C761 1.397 . S
C762 C763 1.334 . S
C763 H740 0.950 . S
C763 C762 1.334 . S
C763 C764 1.287 . S
C764 C763 1.287 . S
C764 C765 1.524 . S
C764 H783 0.913 . S
C765 H741 0.950 . S
C765 C764 1.524 . S
C765 C766 1.415 . S
C766 H742 0.950 . S
C766 C761 1.363 . S
C766 C765 1.415 . S
C767 H743 0.951 . S
C767 C768 1.366 . S
C767 C769 1.388 . S
C768 C767 1.366 . S
C768 C772 1.385 . S
C769 H744 0.951 . S
C769 C767 1.388 . S
C769 C770 1.366 . S
C770 C769 1.366 . S
C770 C771 1.414 . S
C770 C773 1.499 . S
C771 H745 0.950 . S
C771 C770 1.414 . S
C771 C772 1.374 . S
C772 H746 0.950 . S
C772 C768 1.385 . S
C772 C771 1.374 . S
C773 C770 1.499 . S
C773 C774 1.373 . S
C773 C775 1.389 . S
C774 H747 0.950 . S
C774 C760 1.377 . S
C774 C773 1.373 . S
C775 C759 1.377 . S
C775 C773 1.389 . S
C775 C776 1.524 . S
C776 C775 1.524 . S
C776 C777 1.397 . S
C776 C781 1.363 . S
C777 H748 0.950 . S
C777 C776 1.397 . S
C777 C778 1.334 . S
C778 H749 0.950 . S
C778 C777 1.334 . S
C778 C779 1.287 . S
C779 C778 1.287 . S
C779 C780 1.524 . S
C779 H782 0.999 . S
C780 H750 0.950 . S
C780 C779 1.524 . S
C780 C781 1.415 . S
C781 H751 0.950 . S
C781 C776 1.363 . S
C781 C780 1.415 . S
H782 C779 0.999 . S
H783 C764 0.913 . S
H784 C802 0.951 . S
H785 C804 0.951 . S
H786 C806 0.950 . S
H787 C807 0.950 . S
H788 C809 0.950 . S
H789 C812 0.950 . S
H790 C813 0.950 . S
H791 C815 0.950 . S
H792 C816 0.950 . S
H793 C817 0.951 . S
H794 C819 0.951 . S
H795 C821 0.950 . S
H796 C822 0.950 . S
H797 C824 0.950 . S
H798 C827 0.950 . S
H799 C828 0.950 . S
H800 C830 0.950 . S
H801 C831 0.950 . S
C802 H784 0.951 . S
C802 C803 1.366 . S
C802 C804 1.388 . S
C803 C802 1.366 . S
C803 C807 1.385 . S
C804 H785 0.951 . S
C804 C802 1.388 . S
C804 C805 1.366 . S
C805 C804 1.366 . S
C805 C806 1.414 . S
C805 C808 1.499 . S
C806 H786 0.950 . S
C806 C805 1.414 . S
C806 C807 1.374 . S
C807 H787 0.950 . S
C807 C803 1.385 . S
C807 C806 1.374 . S
C808 C805 1.499 . S
C808 C809 1.373 . S
C808 C810 1.389 . S
C809 H788 0.950 . S
C809 C808 1.373 . S
C809 C825 1.377 . S
C810 C808 1.389 . S
C810 C811 1.524 . S
C810 C824 1.377 . S
C811 C810 1.524 . S
C811 C812 1.397 . S
C811 C816 1.363 . S
C812 H789 0.950 . S
C812 C811 1.397 . S
C812 C813 1.334 . S
C813 H790 0.950 . S
C813 C812 1.334 . S
C813 C814 1.287 . S
C814 C813 1.287 . S
C814 C815 1.524 . S
C814 H833 0.913 . S
C815 H791 0.950 . S
C815 C814 1.524 . S
C815 C816 1.415 . S
C816 H792 0.950 . S
C816 C811 1.363 . S
C816 C815 1.415 . S
C817 H793 0.951 . S
C817 C818 1.366 . S
C817 C819 1.388 . S
C818 C817 1.366 . S
C818 C822 1.385 . S
C819 H794 0.951 . S
C819 C817 1.388 . S
C819 C820 1.366 . S
C820 C819 1.366 . S
C820 C821 1.414 . S
C820 C823 1.499 . S
C821 H795 0.950 . S
C821 C820 1.414 . S
C821 C822 1.374 . S
C822 H796 0.950 . S
C822 C818 1.385 . S
C822 C821 1.374 . S
C823 C820 1.499 . S
C823 C824 1.373 . S
C823 C825 1.389 . S
C824 H797 0.950 . S
C824 C810 1.377 . S
C824 C823 1.373 . S
C825 C809 1.377 . S
C825 C823 1.389 . S
C825 C826 1.524 . S
C826 C825 1.524 . S
C826 C827 1.397 . S
C826 C831 1.363 . S
C827 H798 0.950 . S
C827 C826 1.397 . S
C827 C828 1.334 . S
C828 H799 0.950 . S
C828 C827 1.334 . S
C828 C829 1.287 . S
C829 C828 1.287 . S
C829 C830 1.524 . S
C829 H832 0.999 . S
C830 H800 0.950 . S
C830 C829 1.524 . S
C830 C831 1.415 . S
C831 H801 0.950 . S
C831 C826 1.363 . S
C831 C830 1.415 . S
H832 C829 0.999 . S
H833 C814 0.913 . S
H834 C852 0.951 . S
H835 C854 0.951 . S
H836 C856 0.950 . S
H837 C857 0.950 . S
H838 C859 0.950 . S
H839 C862 0.950 . S
H840 C863 0.950 . S
H841 C865 0.950 . S
H842 C866 0.950 . S
H843 C867 0.951 . S
H844 C869 0.951 . S
H845 C871 0.950 . S
H846 C872 0.950 . S
H847 C874 0.942 1_556 S
H848 C877 0.950 . S
H849 C878 0.950 . S
H850 C880 0.950 . S
H851 C881 0.950 . S
C852 H834 0.951 . S
C852 C853 1.366 . S
C852 C854 1.388 . S
C853 C852 1.366 . S
C853 C857 1.385 . S
C854 H835 0.951 . S
C854 C852 1.388 . S
C854 C855 1.366 . S
C855 C854 1.366 . S
C855 C856 1.414 . S
C855 C858 1.499 . S
C856 H836 0.950 . S
C856 C855 1.414 . S
C856 C857 1.374 . S
C857 H837 0.950 . S
C857 C853 1.385 . S
C857 C856 1.374 . S
C858 C855 1.499 . S
C858 C859 1.373 . S
C858 C860 1.389 . S
C859 H838 0.950 . S
C859 C858 1.373 . S
C859 C875 1.377 1_554 S
C860 C858 1.389 . S
C860 C861 1.524 . S
C860 C874 1.404 . S
C861 C860 1.524 . S
C861 C862 1.397 . S
C861 C866 1.363 . S
C862 H839 0.950 . S
C862 C861 1.397 . S
C862 C863 1.334 . S
C863 H840 0.950 . S
C863 C862 1.334 . S
C863 C864 1.287 . S
C864 C863 1.287 . S
C864 C865 1.524 . S
C864 H883 0.913 . S
C865 H841 0.950 . S
C865 C864 1.524 . S
C865 C866 1.415 . S
C866 H842 0.950 . S
C866 C861 1.363 . S
C866 C865 1.415 . S
C867 H843 0.951 . S
C867 C868 1.366 . S
C867 C869 1.388 . S
C868 C867 1.366 . S
C868 C872 1.385 . S
C869 H844 0.951 . S
C869 C867 1.388 . S
C869 C870 1.366 . S
C870 C869 1.366 . S
C870 C871 1.414 . S
C870 C873 1.499 . S
C871 H845 0.950 . S
C871 C870 1.414 . S
C871 C872 1.374 . S
C872 H846 0.950 . S
C872 C868 1.385 . S
C872 C871 1.374 . S
C873 C870 1.499 . S
C873 C874 1.355 1_556 S
C873 C875 1.389 . S
C874 H847 0.942 1_554 S
C874 C860 1.404 . S
C874 C873 1.355 1_554 S
C875 C859 1.377 1_556 S
C875 C873 1.389 . S
C875 C876 1.541 . S
C876 C875 1.541 . S
C876 C877 1.384 1_455 S
C876 C881 1.359 . S
C877 H848 0.950 . S
C877 C876 1.384 1_655 S
C877 C878 1.334 . S
C878 H849 0.950 . S
C878 C877 1.334 . S
C878 C879 1.287 . S
C879 C878 1.287 . S
C879 C880 1.524 . S
C879 H882 0.999 . S
C880 H850 0.950 . S
C880 C879 1.524 . S
C880 C881 1.415 1_655 S
C881 H851 0.950 . S
C881 C876 1.359 . S
C881 C880 1.415 1_455 S
H882 C879 0.999 . S
H883 C864 0.913 . S
H884 C902 0.951 . S
H885 C904 0.951 . S
H886 C906 0.950 . S
H887 C907 0.950 . S
H888 C909 0.950 . S
H889 C912 0.950 . S
H890 C913 0.951 1_545 S
H891 C915 0.950 . S
H892 C916 0.950 . S
H893 C917 0.951 . S
H894 C919 0.951 . S
H895 C921 0.950 . S
H896 C922 0.950 . S
H897 C924 0.950 . S
H898 C927 0.950 . S
H899 C928 0.950 . S
H900 C930 0.950 . S
H901 C931 0.950 . S
C902 H884 0.951 . S
C902 C903 1.366 . S
C902 C904 1.388 . S
C903 C902 1.366 . S
C903 C907 1.385 . S
C904 H885 0.951 . S
C904 C902 1.388 . S
C904 C905 1.366 . S
C905 C904 1.366 . S
C905 C906 1.414 . S
C905 C908 1.499 . S
C906 H886 0.950 . S
C906 C905 1.414 . S
C906 C907 1.374 . S
C907 H887 0.950 . S
C907 C903 1.385 . S
C907 C906 1.374 . S
C908 C905 1.499 . S
C908 C909 1.373 . S
C908 C910 1.389 . S
C909 H888 0.950 . S
C909 C908 1.373 . S
C909 C925 1.377 . S
C910 C908 1.389 . S
C910 C911 1.524 . S
C910 C924 1.377 . S
C911 C910 1.524 . S
C911 C912 1.397 . S
C911 C916 1.363 1_545 S
C912 H889 0.950 . S
C912 C911 1.397 . S
C912 C913 1.326 1_545 S
C913 H890 0.951 1_565 S
C913 C912 1.326 1_565 S
C913 C914 1.294 . S
C914 C913 1.294 . S
C914 C915 1.524 . S
C914 H933 0.913 . S
C915 H891 0.950 . S
C915 C914 1.524 . S
C915 C916 1.415 . S
C916 H892 0.950 . S
C916 C911 1.363 1_565 S
C916 C915 1.415 . S
C917 H893 0.951 . S
C917 C918 1.366 . S
C917 C919 1.388 . S
C918 C917 1.366 . S
C918 C922 1.385 . S
C919 H894 0.951 . S
C919 C917 1.388 . S
C919 C920 1.366 . S
C920 C919 1.366 . S
C920 C921 1.414 . S
C920 C923 1.499 . S
C921 H895 0.950 . S
C921 C920 1.414 . S
C921 C922 1.374 . S
C922 H896 0.950 . S
C922 C918 1.385 . S
C922 C921 1.374 . S
C923 C920 1.499 . S
C923 C924 1.373 . S
C923 C925 1.389 . S
C924 H897 0.950 . S
C924 C910 1.377 . S
C924 C923 1.373 . S
C925 C909 1.377 . S
C925 C923 1.389 . S
C925 C926 1.524 . S
C926 C925 1.524 . S
C926 C927 1.397 . S
C926 C931 1.363 . S
C927 H898 0.950 . S
C927 C926 1.397 . S
C927 C928 1.334 . S
C928 H899 0.950 . S
C928 C927 1.334 . S
C928 C929 1.287 . S
C929 C928 1.287 . S
C929 C930 1.524 . S
C929 H932 0.999 . S
C930 H900 0.950 . S
C930 C929 1.524 . S
C930 C931 1.415 . S
C931 H901 0.950 . S
C931 C926 1.363 . S
C931 C930 1.415 . S
H932 C929 0.999 . S
H933 C914 0.913 . S
H934 C952 0.951 . S
H935 C954 0.951 . S
H936 C956 0.950 . S
H937 C957 0.950 . S
H938 C959 0.950 . S
H939 C962 0.950 . S
H940 C963 0.950 . S
H941 C965 0.950 . S
H942 C966 0.950 . S
H943 C967 0.951 . S
H944 C969 0.951 . S
H945 C971 0.950 . S
H946 C972 0.950 . S
H947 C974 0.950 . S
H948 C977 0.950 . S
H949 C978 0.950 . S
H950 C980 0.950 . S
H951 C981 0.950 . S
C952 H934 0.951 . S
C952 C953 1.366 . S
C952 C954 1.388 . S
C953 C952 1.366 . S
C953 C957 1.385 . S
C954 H935 0.951 . S
C954 C952 1.388 . S
C954 C955 1.366 . S
C955 C954 1.366 . S
C955 C956 1.414 . S
C955 C958 1.499 . S
C956 H936 0.950 . S
C956 C955 1.414 . S
C956 C957 1.374 . S
C957 H937 0.950 . S
C957 C953 1.385 . S
C957 C956 1.374 . S
C958 C955 1.499 . S
C958 C959 1.373 . S
C958 C960 1.389 . S
C959 H938 0.950 . S
C959 C958 1.373 . S
C959 C975 1.377 . S
C960 C958 1.389 . S
C960 C961 1.524 . S
C960 C974 1.377 . S
C961 C960 1.524 . S
C961 C962 1.397 . S
C961 C966 1.363 . S
C962 H939 0.950 . S
C962 C961 1.397 . S
C962 C963 1.334 . S
C963 H940 0.950 . S
C963 C962 1.334 . S
C963 C964 1.287 . S
C964 C963 1.287 . S
C964 C965 1.524 . S
C964 H983 0.913 . S
C965 H941 0.950 . S
C965 C964 1.524 . S
C965 C966 1.415 . S
C966 H942 0.950 . S
C966 C961 1.363 . S
C966 C965 1.415 . S
C967 H943 0.951 . S
C967 C968 1.366 . S
C967 C969 1.388 . S
C968 C967 1.366 . S
C968 C972 1.385 . S
C969 H944 0.951 . S
C969 C967 1.388 . S
C969 C970 1.366 . S
C970 C969 1.366 . S
C970 C971 1.414 . S
C970 C973 1.499 . S
C971 H945 0.950 . S
C971 C970 1.414 . S
C971 C972 1.374 . S
C972 H946 0.950 . S
C972 C968 1.385 . S
C972 C971 1.374 . S
C973 C970 1.499 . S
C973 C974 1.373 . S
C973 C975 1.389 . S
C974 H947 0.950 . S
C974 C960 1.377 . S
C974 C973 1.373 . S
C975 C959 1.377 . S
C975 C973 1.389 . S
C975 C976 1.524 . S
C976 C975 1.524 . S
C976 C977 1.397 . S
C976 C981 1.363 . S
C977 H948 0.950 . S
C977 C976 1.397 . S
C977 C978 1.334 . S
C978 H949 0.950 . S
C978 C977 1.334 . S
C978 C979 1.287 . S
C979 C978 1.287 . S
C979 C980 1.524 . S
C979 H982 0.999 . S
C980 H950 0.950 . S
C980 C979 1.524 . S
C980 C981 1.415 . S
C981 H951 0.950 . S
C981 C976 1.363 . S
C981 C980 1.415 . S
H982 C979 0.999 . S
H983 C964 0.913 . S
H984 C1002 0.951 . S
H985 C1004 0.951 . S
H986 C1006 0.950 . S
H987 C1007 0.950 . S
H988 C1009 0.950 . S
H989 C1012 0.950 . S
H990 C1013 0.950 . S
H991 C1015 0.950 . S
H992 C1016 0.950 . S
H993 C1017 0.951 . S
H994 C1019 0.951 . S
H995 C1021 0.964 . S
H996 C1022 0.950 1_565 S
H997 C1024 0.950 . S
H998 C1027 0.950 . S
H999 C1028 0.950 . S
H1000 C1030 0.950 . S
H1001 C1031 0.950 . S
C1002 H984 0.951 . S
C1002 C1003 1.366 . S
C1002 C1004 1.388 . S
C1003 C1002 1.366 . S
C1003 C1007 1.385 . S
C1004 H985 0.951 . S
C1004 C1002 1.388 . S
C1004 C1005 1.366 . S
C1005 C1004 1.366 . S
C1005 C1006 1.414 . S
C1005 C1008 1.499 . S
C1006 H986 0.950 . S
C1006 C1005 1.414 . S
C1006 C1007 1.374 . S
C1007 H987 0.950 . S
C1007 C1003 1.385 . S
C1007 C1006 1.374 . S
C1008 C1005 1.499 . S
C1008 C1009 1.373 . S
C1008 C1010 1.389 . S
C1009 H988 0.950 . S
C1009 C1008 1.373 . S
C1009 C1025 1.377 . S
C1010 C1008 1.389 . S
C1010 C1011 1.524 . S
C1010 C1024 1.377 . S
C1011 C1010 1.524 . S
C1011 C1012 1.397 . S
C1011 C1016 1.363 1_545 S
C1012 H989 0.950 . S
C1012 C1011 1.397 . S
C1012 C1013 1.334 1_545 S
C1013 H990 0.950 . S
C1013 C1012 1.334 1_565 S
C1013 C1014 1.287 . S
C1014 C1013 1.287 . S
C1014 C1015 1.524 . S
C1014 H1033 0.913 . S
C1015 H991 0.950 . S
C1015 C1014 1.524 . S
C1015 C1016 1.415 . S
C1016 H992 0.950 . S
C1016 C1011 1.363 1_565 S
C1016 C1015 1.415 . S
C1017 H993 0.951 . S
C1017 C1018 1.366 . S
C1017 C1019 1.388 . S
C1018 C1017 1.366 . S
C1018 C1022 1.385 . S
C1019 H994 0.951 . S
C1019 C1017 1.388 . S
C1019 C1020 1.366 . S
C1020 C1019 1.366 . S
C1020 C1021 1.414 . S
C1020 C1023 1.499 . S
C1021 H995 0.964 . S
C1021 C1020 1.414 . S
C1021 C1022 1.374 . S
C1022 H996 0.950 1_545 S
C1022 C1018 1.385 . S
C1022 C1021 1.374 . S
C1023 C1020 1.499 . S
C1023 C1024 1.373 . S
C1023 C1025 1.389 . S
C1024 H997 0.950 . S
C1024 C1010 1.377 . S
C1024 C1023 1.373 . S
C1025 C1009 1.377 . S
C1025 C1023 1.389 . S
C1025 C1026 1.524 . S
C1026 C1025 1.524 . S
C1026 C1027 1.397 . S
C1026 C1031 1.363 . S
C1027 H998 0.950 . S
C1027 C1026 1.397 . S
C1027 C1028 1.334 . S
C1028 H999 0.950 . S
C1028 C1027 1.334 . S
C1028 C1029 1.287 . S
C1029 C1028 1.287 . S
C1029 C1030 1.524 . S
C1029 H1032 0.999 . S
C1030 H1000 0.950 . S
C1030 C1029 1.524 . S
C1030 C1031 1.415 . S
C1031 H1001 0.950 . S
C1031 C1026 1.363 . S
C1031 C1030 1.415 . S
H1032 C1029 0.999 . S
H1033 C1014 0.913 . S
H1034 C1052 0.951 . S
H1035 C1054 0.951 . S
H1036 C1056 0.950 . S
H1037 C1057 0.950 . S
H1038 C1059 0.950 . S
H1039 C1062 0.950 . S
H1040 C1063 0.950 . S
H1041 C1065 0.950 . S
H1042 C1066 0.950 . S
H1043 C1067 0.951 . S
H1044 C1069 0.951 . S
H1045 C1071 0.950 . S
H1046 C1072 0.950 . S
H1047 C1074 0.950 . S
H1048 C1077 0.950 . S
H1049 C1078 0.950 . S
H1050 C1080 0.950 . S
H1051 C1081 0.950 . S
C1052 H1034 0.951 . S
C1052 C1053 1.366 . S
C1052 C1054 1.388 . S
C1053 C1052 1.366 . S
C1053 C1057 1.385 . S
C1054 H1035 0.951 . S
C1054 C1052 1.388 . S
C1054 C1055 1.366 . S
C1055 C1054 1.366 . S
C1055 C1056 1.414 . S
C1055 C1058 1.499 . S
C1056 H1036 0.950 . S
C1056 C1055 1.414 . S
C1056 C1057 1.374 . S
C1057 H1037 0.950 . S
C1057 C1053 1.385 . S
C1057 C1056 1.374 . S
C1058 C1055 1.499 . S
C1058 C1059 1.373 . S
C1058 C1060 1.389 . S
C1059 H1038 0.950 . S
C1059 C1058 1.373 . S
C1059 C1075 1.377 1_556 S
C1060 C1058 1.389 . S
C1060 C1061 1.524 . S
C1060 C1074 1.377 1_556 S
C1061 C1060 1.524 . S
C1061 C1062 1.397 . S
C1061 C1066 1.363 . S
C1062 H1039 0.950 . S
C1062 C1061 1.397 . S
C1062 C1063 1.334 . S
C1063 H1040 0.950 . S
C1063 C1062 1.334 . S
C1063 C1064 1.287 . S
C1064 C1063 1.287 . S
C1064 C1065 1.524 . S
C1064 H1083 0.913 . S
C1065 H1041 0.950 . S
C1065 C1064 1.524 . S
C1065 C1066 1.415 . S
C1066 H1042 0.950 . S
C1066 C1061 1.363 . S
C1066 C1065 1.415 . S
C1067 H1043 0.951 . S
C1067 C1068 1.366 . S
C1067 C1069 1.388 . S
C1068 C1067 1.366 . S
C1068 C1072 1.385 . S
C1069 H1044 0.951 . S
C1069 C1067 1.388 . S
C1069 C1070 1.366 . S
C1070 C1069 1.366 . S
C1070 C1071 1.414 . S
C1070 C1073 1.499 . S
C1071 H1045 0.950 . S
C1071 C1070 1.414 . S
C1071 C1072 1.374 . S
C1072 H1046 0.950 . S
C1072 C1068 1.385 . S
C1072 C1071 1.374 . S
C1073 C1070 1.499 . S
C1073 C1074 1.373 . S
C1073 C1075 1.389 . S
C1074 H1047 0.950 . S
C1074 C1060 1.377 1_554 S
C1074 C1073 1.373 . S
C1075 C1059 1.377 1_554 S
C1075 C1073 1.389 . S
C1075 C1076 1.524 . S
C1076 C1075 1.524 . S
C1076 C1077 1.397 . S
C1076 C1081 1.363 . S
C1077 H1048 0.950 . S
C1077 C1076 1.397 . S
C1077 C1078 1.334 . S
C1078 H1049 0.950 . S
C1078 C1077 1.334 . S
C1078 C1079 1.287 . S
C1079 C1078 1.287 . S
C1079 C1080 1.524 . S
C1079 H1082 0.999 . S
C1080 H1050 0.950 . S
C1080 C1079 1.524 . S
C1080 C1081 1.415 . S
C1081 H1051 0.950 . S
C1081 C1076 1.363 . S
C1081 C1080 1.415 . S
H1082 C1079 0.999 . S
H1083 C1064 0.913 . S
H1084 C1102 0.951 . S
H1085 C1104 0.951 . S
H1086 C1106 0.950 . S
H1087 C1107 0.950 . S
H1088 C1109 0.950 . S
H1089 C1112 0.950 . S
H1090 C1113 0.950 . S
H1091 C1115 0.950 . S
H1092 C1116 0.950 . S
H1093 C1117 0.951 . S
H1094 C1119 0.951 . S
H1095 C1121 0.950 . S
H1096 C1122 0.950 . S
H1097 C1124 0.950 . S
H1098 C1127 0.950 . S
H1099 C1128 0.950 . S
H1100 C1130 0.950 . S
H1101 C1131 0.950 . S
C1102 H1084 0.951 . S
C1102 C1103 1.366 . S
C1102 C1104 1.388 . S
C1103 C1102 1.366 . S
C1103 C1107 1.385 . S
C1104 H1085 0.951 . S
C1104 C1102 1.388 . S
C1104 C1105 1.366 . S
C1105 C1104 1.366 . S
C1105 C1106 1.414 . S
C1105 C1108 1.499 . S
C1106 H1086 0.950 . S
C1106 C1105 1.414 . S
C1106 C1107 1.374 . S
C1107 H1087 0.950 . S
C1107 C1103 1.385 . S
C1107 C1106 1.374 . S
C1108 C1105 1.499 . S
C1108 C1109 1.373 . S
C1108 C1110 1.389 1_455 S
C1109 H1088 0.950 . S
C1109 C1108 1.373 . S
C1109 C1125 1.377 . S
C1110 C1108 1.389 1_655 S
C1110 C1111 1.524 . S
C1110 C1124 1.377 . S
C1111 C1110 1.524 . S
C1111 C1112 1.397 . S
C1111 C1116 1.363 . S
C1112 H1089 0.950 . S
C1112 C1111 1.397 . S
C1112 C1113 1.334 . S
C1113 H1090 0.950 . S
C1113 C1112 1.334 . S
C1113 C1114 1.287 . S
C1114 C1113 1.287 . S
C1114 C1115 1.524 . S
C1114 H1133 0.913 . S
C1115 H1091 0.950 . S
C1115 C1114 1.524 . S
C1115 C1116 1.415 . S
C1116 H1092 0.950 . S
C1116 C1111 1.363 . S
C1116 C1115 1.415 . S
C1117 H1093 0.951 . S
C1117 C1118 1.366 . S
C1117 C1119 1.388 . S
C1118 C1117 1.366 . S
C1118 C1122 1.385 . S
C1119 H1094 0.951 . S
C1119 C1117 1.388 . S
C1119 C1120 1.366 . S
C1120 C1119 1.366 . S
C1120 C1121 1.414 . S
C1120 C1123 1.499 . S
C1121 H1095 0.950 . S
C1121 C1120 1.414 . S
C1121 C1122 1.374 . S
C1122 H1096 0.950 . S
C1122 C1118 1.385 . S
C1122 C1121 1.374 . S
C1123 C1120 1.499 . S
C1123 C1124 1.373 1_455 S
C1123 C1125 1.389 . S
C1124 H1097 0.950 . S
C1124 C1110 1.377 . S
C1124 C1123 1.373 1_655 S
C1125 C1109 1.377 . S
C1125 C1123 1.389 . S
C1125 C1126 1.524 . S
C1126 C1125 1.524 . S
C1126 C1127 1.397 . S
C1126 C1131 1.363 . S
C1127 H1098 0.950 . S
C1127 C1126 1.397 . S
C1127 C1128 1.334 . S
C1128 H1099 0.950 . S
C1128 C1127 1.334 . S
C1128 C1129 1.287 . S
C1129 C1128 1.287 . S
C1129 C1130 1.524 . S
C1129 H1132 0.999 . S
C1130 H1100 0.950 . S
C1130 C1129 1.524 . S
C1130 C1131 1.415 . S
C1131 H1101 0.950 . S
C1131 C1126 1.363 . S
C1131 C1130 1.415 . S
H1132 C1129 0.999 . S
H1133 C1114 0.913 . S
C253 C19 1.997 . S
C268 C226 1.931 . S
C303 C46 1.298 . S
C318 C188 1.236 . S
C353 C95 0.379 . S
C368 C207 0.510 . S
C403 C10 1.854 . S
C418 C221 1.829 . S
C468 C183 1.082 . S
C453 C55 1.096 . S
C518 C202 0.294 . S
C503 C86 0.290 . S
C553 C59 3.241 . S
C568 C150 3.155 . S
C603 C90 1.875 . S
C618 C164 1.866 . S
C653 C15 1.080 . S
C668 C126 1.070 . S
C718 C145 2.874 . S
C703 C50 2.901 . S
C768 C169 1.930 . S
C753 C99 1.987 . S
C803 C6 1.315 . S
C818 C131 1.247 . S
C868 C160 1.550 . S
C853 C9 1.482 . S
C903 C58 1.574 . S
C918 C122 1.573 . S
C953 C98 1.668 . S
C968 C141 1.755 . S
C1018 C198 1.389 . S
C1003 C49 1.334 . S
C1068 C217 1.542 . S
C1053 C89 1.513 . S
C1103 C18 1.571 . S
C1118 C179 1.570 . S
