# Generated by pormake.
# Topology nom, (4,4)-cn, num edge types: 1
# Building blocks:
#     Node 0, Type 0, BuildingBlock: AZAVOO_clean_linker_0, # of connection points: 4
#     Node 1, Type 0, BuildingBlock: AZAVOO_clean_linker_0, # of connection points: 4
#     Node 2, Type 0, BuildingBlock: AZAVOO_clean_linker_0, # of connection points: 4
#     Node 3, Type 0, BuildingBlock: AZAVOO_clean_linker_0, # of connection points: 4
#     Node 4, Type 0, BuildingBlock: AZAVOO_clean_linker_0, # of connection points: 4
#     Node 5, Type 0, BuildingBlock: AZAVOO_clean_linker_0, # of connection points: 4
#     Node 6, Type 1, BuildingBlock: AZAVOO_clean_sbu_0, # of connection points: 4
#     Node 7, Type 1, BuildingBlock: AZAVOO_clean_sbu_0, # of connection points: 4
#     Node 8, Type 1, BuildingBlock: AZAVOO_clean_sbu_0, # of connection points: 4
#     Node 9, Type 1, BuildingBlock: AZAVOO_clean_sbu_0, # of connection points: 4
#     Node 10, Type 1, BuildingBlock: AZAVOO_clean_sbu_0, # of connection points: 4
#     Node 11, Type 1, BuildingBlock: AZAVOO_clean_sbu_0, # of connection points: 4
#     Edge 12, Type (0, 1), BuildingBlock: XIVTED_clean_linker_0, # of connection points: 2
#     Edge 13, Type (0, 1), BuildingBlock: XIVTED_clean_linker_0, # of connection points: 2
#     Edge 14, Type (0, 1), BuildingBlock: XIVTED_clean_linker_0, # of connection points: 2
#     Edge 15, Type (0, 1), BuildingBlock: XIVTED_clean_linker_0, # of connection points: 2
#     Edge 16, Type (0, 1), BuildingBlock: XIVTED_clean_linker_0, # of connection points: 2
#     Edge 17, Type (0, 1), BuildingBlock: XIVTED_clean_linker_0, # of connection points: 2
#     Edge 18, Type (0, 1), BuildingBlock: XIVTED_clean_linker_0, # of connection points: 2
#     Edge 19, Type (0, 1), BuildingBlock: XIVTED_clean_linker_0, # of connection points: 2
#     Edge 20, Type (0, 1), BuildingBlock: XIVTED_clean_linker_0, # of connection points: 2
#     Edge 21, Type (0, 1), BuildingBlock: XIVTED_clean_linker_0, # of connection points: 2
#     Edge 22, Type (0, 1), BuildingBlock: XIVTED_clean_linker_0, # of connection points: 2
#     Edge 23, Type (0, 1), BuildingBlock: XIVTED_clean_linker_0, # of connection points: 2
#     Edge 24, Type (0, 1), BuildingBlock: XIVTED_clean_linker_0, # of connection points: 2
#     Edge 25, Type (0, 1), BuildingBlock: XIVTED_clean_linker_0, # of connection points: 2
#     Edge 26, Type (0, 1), BuildingBlock: XIVTED_clean_linker_0, # of connection points: 2
#     Edge 27, Type (0, 1), BuildingBlock: XIVTED_clean_linker_0, # of connection points: 2
#     Edge 28, Type (0, 1), BuildingBlock: XIVTED_clean_linker_0, # of connection points: 2
#     Edge 29, Type (0, 1), BuildingBlock: XIVTED_clean_linker_0, # of connection points: 2
#     Edge 30, Type (0, 1), BuildingBlock: XIVTED_clean_linker_0, # of connection points: 2
#     Edge 31, Type (0, 1), BuildingBlock: XIVTED_clean_linker_0, # of connection points: 2
#     Edge 32, Type (0, 1), BuildingBlock: XIVTED_clean_linker_0, # of connection points: 2
#     Edge 33, Type (0, 1), BuildingBlock: XIVTED_clean_linker_0, # of connection points: 2
#     Edge 34, Type (0, 1), BuildingBlock: XIVTED_clean_linker_0, # of connection points: 2
#     Edge 35, Type (0, 1), BuildingBlock: XIVTED_clean_linker_0, # of connection points: 2
# Relax obj value: 0.192
# Max RMSD: 0.231
# Mean RMSD: 0.192
data_MOF--net-nom--node1-AZAVOO_clean_sbu_0--node2-AZAVOO_clean_linker_0--edge1-XIVTED_clean_linker_0
_symmetry_space_group_name_H-M    P1
_symmetry_Int_Tables_number       1
_symmetry_cell_setting            triclinic
loop_
_symmetry_equiv_pos_as_xyz
'x, y, z'
_cell_length_a     48.082715
_cell_length_b     49.901497
_cell_length_c     58.475381
_cell_angle_alpha  90.874816
_cell_angle_beta   90.848391
_cell_angle_gamma 120.99954
loop_
_atom_site_label
_atom_site_type_symbol
_atom_site_fract_x
_atom_site_fract_y
_atom_site_fract_z
_atom_type_partial_charge
H0 H 0.0603 0.41302 0.17095 0.0
H1 H 0.24625 0.63243 0.37737 0.0
H2 H -0.00118 0.41034 0.28624 0.0
H3 H 0.95725 0.38249 0.25624 0.0
H4 H 0.95115 0.46506 0.24648 0.0
H5 H 0.99193 0.49225 0.27718 0.0
H6 H 0.07416 0.44011 0.26957 0.0
H7 H 0.07177 0.42296 0.22976 0.0
H8 H 0.04005 0.48576 0.20831 0.0
H9 H 0.04301 0.50299 0.24812 0.0
H10 H 0.1417 0.49443 0.30306 0.0
H11 H 0.19598 0.52915 0.28806 0.0
H12 H 0.15826 0.5768 0.249 0.0
H13 H 0.10481 0.54327 0.26474 0.0
H14 H 0.11842 0.49058 0.35276 0.0
H15 H 0.16882 0.52403 0.37478 0.0
H16 H 0.18069 0.60468 0.33949 0.0
H17 H 0.12996 0.57104 0.3179 0.0
H18 H 0.04758 0.45839 0.36713 0.0
H19 H 0.0667 0.47298 0.40679 0.0
H20 H 0.09583 0.56887 0.39349 0.0
H21 H 0.07764 0.55408 0.35362 0.0
H22 H 0.97148 0.42683 0.3274 0.0
H23 H 0.92094 0.42248 0.33988 0.0
H24 H 0.97171 0.52289 0.35079 0.0
H25 H 0.02054 0.52714 0.33604 0.0
O26 O 0.06143 0.42038 0.18655 0.0
O27 O 0.04487 0.45282 0.17646 0.0
O28 O 0.21886 0.5765 0.38672 0.0
O29 O 0.22638 0.61864 0.36879 0.0
C30 C 0.02924 0.47213 0.29721 0.0
C31 C 0.05878 0.48187 0.28602 0.0
C32 C 0.08866 0.50092 0.29778 0.0
C33 C 0.08915 0.50828 0.32122 0.0
C34 C 0.05972 0.49811 0.33258 0.0
C35 C 0.0297 0.48127 0.32034 0.0
C36 C -0.00162 0.45329 0.28384 0.0
C37 C 0.9876 0.42199 0.27817 0.0
C38 C 0.96421 0.4063 0.26078 0.0
C39 C 0.95138 0.42175 0.24852 0.0
C40 C 0.96036 0.45236 0.25556 0.0
C41 C 0.98362 0.46796 0.27315 0.0
C42 C 0.05846 0.47253 0.26172 0.0
C43 C 0.06686 0.45022 0.25621 0.0
C44 C 0.06538 0.44042 0.23348 0.0
C45 C 0.05555 0.45287 0.21585 0.0
C46 C 0.04758 0.47559 0.22146 0.0
C47 C 0.04915 0.48541 0.24418 0.0
C48 C 0.11933 0.5164 0.28504 0.0
C49 C 0.14508 0.51195 0.29089 0.0
C50 C 0.17596 0.53172 0.28237 0.0
C51 C 0.18116 0.55557 0.26742 0.0
C52 C 0.15478 0.55834 0.26026 0.0
C53 C 0.1242 0.53912 0.26917 0.0
C54 C 0.1206 0.5284 0.33375 0.0
C55 C 0.13198 0.51547 0.34981 0.0
C56 C 0.16076 0.53463 0.36235 0.0
C57 C 0.17877 0.56706 0.35891 0.0
C58 C 0.16742 0.57984 0.34257 0.0
C59 C 0.13854 0.56068 0.33015 0.0
C60 C 0.06121 0.50513 0.3575 0.0
C61 C 0.05694 0.48229 0.37303 0.0
C62 C 0.06805 0.49078 0.39572 0.0
C63 C 0.08342 0.52228 0.40329 0.0
C64 C 0.08485 0.54456 0.38813 0.0
C65 C 0.07394 0.53607 0.36542 0.0
C66 C -0.0002 0.47733 0.33068 0.0
C67 C 0.97153 0.44784 0.33241 0.0
C68 C 0.94274 0.44538 0.33983 0.0
C69 C 0.94195 0.47238 0.34605 0.0
C70 C 0.97093 0.50161 0.34552 0.0
C71 C -0.00078 0.50408 0.33751 0.0
C72 C 0.0536 0.44212 0.19175 0.0
C73 C 0.20918 0.58756 0.37234 0.0
H74 H 0.53965 0.06537 0.34693 0.0
H75 H 0.4968 0.20848 0.56645 0.0
H76 H 0.51594 0.00204 0.47322 0.0
H77 H 0.51798 0.96572 0.44583 0.0
H78 H 0.41976 0.93477 0.42299 0.0
H79 H 0.4176 0.97029 0.45131 0.0
H80 H 0.53697 0.06582 0.44696 0.0
H81 H 0.54791 0.06958 0.40599 0.0
H82 H 0.44569 0.0306 0.39067 0.0
H83 H 0.43518 0.02704 0.4317 0.0
H84 H 0.54541 0.12057 0.48178 0.0
H85 H 0.56542 0.17019 0.4625 0.0
H86 H 0.46928 0.13614 0.43359 0.0
H87 H 0.44972 0.08643 0.45271 0.0
H88 H 0.53151 0.10053 0.53348 0.0
H89 H 0.54461 0.14675 0.55698 0.0
H90 H 0.46049 0.14537 0.52819 0.0
H91 H 0.44742 0.09887 0.50503 0.0
H92 H 0.50663 0.02834 0.54326 0.0
H93 H 0.51452 0.03918 0.58442 0.0
H94 H 0.43699 0.05903 0.58389 0.0
H95 H 0.42917 0.04795 0.54256 0.0
H96 H 0.48788 0.97572 0.51148 0.0
H97 H 0.45925 0.92256 0.52618 0.0
H98 H 0.37125 0.92575 0.52953 0.0
H99 H 0.40001 0.97869 0.51477 0.0
O100 O 0.53482 0.06381 0.36304 0.0
O101 O 0.48208 0.04395 0.35609 0.0
O102 O 0.53495 0.18969 0.57179 0.0
O103 O 0.49221 0.19023 0.55733 0.0
C104 C 0.46819 0.01473 0.47774 0.0
C105 C 0.47878 0.04344 0.467 0.0
C106 C 0.48432 0.06983 0.47997 0.0
C107 C 0.48016 0.0678 0.50383 0.0
C108 C 0.46884 0.03882 0.51457 0.0
C109 C 0.46204 0.01207 0.50136 0.0
C110 C 0.46657 0.98857 0.46429 0.0
C111 C 0.49453 0.98665 0.46279 0.0
C112 C 0.49576 0.96617 0.44693 0.0
C113 C 0.46921 0.94764 0.43196 0.0
C114 C 0.44053 0.94844 0.43439 0.0
C115 C 0.43922 0.96876 0.4505 0.0
C116 C 0.48533 0.04615 0.44218 0.0
C117 C 0.51704 0.0582 0.43469 0.0
C118 C 0.52318 0.06027 0.4113 0.0
C119 C 0.49767 0.05036 0.39505 0.0
C120 C 0.46589 0.03841 0.40272 0.0
C121 C 0.4598 0.03635 0.42611 0.0
C122 C 0.49617 0.10005 0.46862 0.0
C123 C 0.52872 0.12397 0.47134 0.0
C124 C 0.54002 0.15229 0.4604 0.0
C125 C 0.51892 0.15714 0.44653 0.0
C126 C 0.48624 0.13302 0.44391 0.0
C127 C 0.47498 0.10471 0.45488 0.0
C128 C 0.48846 0.09632 0.51764 0.0
C129 C 0.51592 0.11022 0.53232 0.0
C130 C 0.52336 0.13663 0.5457 0.0
C131 C 0.50356 0.14974 0.54449 0.0
C132 C 0.47622 0.13587 0.52956 0.0
C133 C 0.46874 0.10937 0.51627 0.0
C134 C 0.46751 0.03759 0.5399 0.0
C135 C 0.49055 0.0339 0.55216 0.0
C136 C 0.49507 0.04019 0.57569 0.0
C137 C 0.47666 0.05038 0.58735 0.0
C138 C 0.45187 0.0517 0.5753 0.0
C139 C 0.44721 0.04517 0.55176 0.0
C140 C 0.44589 0.98088 0.51182 0.0
C141 C 0.46241 0.96486 0.51535 0.0
C142 C 0.44602 0.93453 0.52371 0.0
C143 C 0.41294 0.91989 0.5289 0.0
C144 C 0.39678 0.93645 0.52591 0.0
C145 C 0.41313 0.96664 0.51742 0.0
C146 C 0.50425 0.05247 0.37021 0.0
C147 C 0.51129 0.17774 0.55871 0.0
H148 H 0.64586 0.5883 0.77747 0.0
H149 H 0.60837 0.39719 0.56068 0.0
H150 H 0.62065 0.62169 0.65831 0.0
H151 H 0.61369 0.65065 0.68968 0.0
H152 H 0.51083 0.58301 0.68837 0.0
H153 H 0.51795 0.55422 0.65694 0.0
H154 H 0.6456 0.57632 0.67774 0.0
H155 H 0.6556 0.58569 0.71909 0.0
H156 H 0.55209 0.53748 0.72921 0.0
H157 H 0.54247 0.52781 0.68791 0.0
H158 H 0.64848 0.52212 0.64416 0.0
H159 H 0.65687 0.48396 0.66453 0.0
H160 H 0.56065 0.44289 0.69159 0.0
H161 H 0.55212 0.48023 0.67081 0.0
H162 H 0.64117 0.54016 0.59147 0.0
H163 H 0.65495 0.50655 0.56963 0.0
H164 H 0.57147 0.42487 0.59642 0.0
H165 H 0.5577 0.45874 0.6179 0.0
H166 H 0.61019 0.58558 0.57747 0.0
H167 H 0.61798 0.5802 0.5369 0.0
H168 H 0.54914 0.48071 0.5394 0.0
H169 H 0.53968 0.48695 0.57939 0.0
H170 H 0.58245 0.61784 0.61065 0.0
H171 H 0.54528 0.63305 0.59442 0.0
H172 H 0.47094 0.53535 0.58607 0.0
H173 H 0.50812 0.52065 0.60177 0.0
O174 O 0.64137 0.58407 0.7612 0.0
O175 O 0.58796 0.55961 0.7654 0.0
O176 O 0.64606 0.45376 0.55582 0.0
O177 O 0.60357 0.41102 0.56922 0.0
C178 C 0.5757 0.56361 0.64257 0.0
C179 C 0.58752 0.54699 0.65466 0.0
C180 C 0.59319 0.52544 0.64295 0.0
C181 C 0.58968 0.52243 0.61889 0.0
C182 C 0.57725 0.53863 0.60685 0.0
C183 C 0.56866 0.55798 0.61887 0.0
C184 C 0.56981 0.58585 0.6555 0.0
C185 C 0.59642 0.61395 0.66413 0.0
C186 C 0.59245 0.63038 0.68205 0.0
C187 C 0.56183 0.61869 0.69159 0.0
C188 C 0.53473 0.59223 0.68139 0.0
C189 C 0.53868 0.57598 0.66334 0.0
C190 C 0.59336 0.55169 0.67984 0.0
C191 C 0.62515 0.56769 0.68895 0.0
C192 C 0.63077 0.57307 0.71256 0.0
C193 C 0.60464 0.56247 0.72745 0.0
C194 C 0.57276 0.54607 0.71823 0.0
C195 C 0.5672 0.54061 0.69465 0.0
C196 C 0.59975 0.50401 0.65612 0.0
C197 C 0.62931 0.50489 0.65453 0.0
C198 C 0.63403 0.48314 0.66609 0.0
C199 C 0.60945 0.46067 0.67969 0.0
C200 C 0.58015 0.46025 0.68149 0.0
C201 C 0.57527 0.48156 0.66967 0.0
C202 C 0.59853 0.50188 0.60632 0.0
C203 C 0.62595 0.515 0.59263 0.0
C204 C 0.63375 0.49575 0.58017 0.0
C205 C 0.61431 0.463 0.58129 0.0
C206 C 0.58696 0.44997 0.59518 0.0
C207 C 0.57911 0.46925 0.60754 0.0
C208 C 0.57504 0.53651 0.58148 0.0
C209 C 0.59589 0.56286 0.56899 0.0
C210 C 0.60068 0.55961 0.54588 0.0
C211 C 0.58511 0.52984 0.53501 0.0
C212 C 0.56169 0.50402 0.54708 0.0
C213 C 0.55638 0.50745 0.57005 0.0
C214 C 0.54799 0.56813 0.60736 0.0
C215 C 0.55823 0.59984 0.60504 0.0
C216 C 0.53693 0.60844 0.59584 0.0
C217 C 0.50509 0.58544 0.58882 0.0
C218 C 0.4954 0.55375 0.59076 0.0
C219 C 0.51661 0.54525 0.59987 0.0
C220 C 0.61068 0.56856 0.7525 0.0
C221 C 0.62238 0.44244 0.56799 0.0
H222 H 0.03427 0.43787 0.96959 0.0
H223 H 0.19318 0.5299 0.71715 0.0
H224 H 0.96535 0.43736 0.84143 0.0
H225 H 0.9318 0.42155 0.8752 0.0
H226 H 0.95399 0.34911 0.88661 0.0
H227 H 0.98657 0.36442 0.85226 0.0
H228 H 0.02326 0.46449 0.87397 0.0
H229 H 0.02507 0.45965 0.91544 0.0
H230 H 0.06308 0.39843 0.90597 0.0
H231 H 0.06053 0.40302 0.86445 0.0
H232 H 0.0933 0.50197 0.85843 0.0
H233 H 0.14724 0.52664 0.87689 0.0
H234 H 0.16622 0.46225 0.83981 0.0
H235 H 0.11184 0.43694 0.82242 0.0
H236 H 0.0999 0.51855 0.8043 0.0
H237 H 0.1443 0.55109 0.77889 0.0
H238 H 0.13495 0.46773 0.74744 0.0
H239 H 0.09108 0.43556 0.77324 0.0
H240 H 0.03487 0.48986 0.77488 0.0
H241 H 0.05155 0.50772 0.73625 0.0
H242 H 0.04073 0.41849 0.71788 0.0
H243 H 0.02531 0.40136 0.75705 0.0
H244 H 0.95645 0.43312 0.7976 0.0
H245 H 0.90295 0.39796 0.77976 0.0
H246 H 0.92929 0.32789 0.76923 0.0
H247 H 0.98191 0.36269 0.7881 0.0
O248 O 0.03415 0.43977 0.95314 0.0
O249 O 0.05487 0.40941 0.94743 0.0
O250 O 0.18262 0.55995 0.74612 0.0
O251 O 0.17669 0.51768 0.72808 0.0
C252 C 0.00734 0.41895 0.8301 0.0
C253 C 0.03838 0.43533 0.84103 0.0
C254 C 0.06625 0.45264 0.82796 0.0
C255 C 0.06308 0.45507 0.80421 0.0
C256 C 0.03198 0.43932 0.79338 0.0
C257 C 0.00428 0.42035 0.80618 0.0
C258 C 0.97842 0.40208 0.84443 0.0
C259 C 0.96156 0.41702 0.8505 0.0
C260 C 0.94296 0.40836 0.87008 0.0
C261 C 0.94106 0.38469 0.88392 0.0
C262 C 0.95502 0.36746 0.87635 0.0
C263 C 0.97349 0.37604 0.85664 0.0
C264 C 0.04162 0.43399 0.86625 0.0
C265 C 0.032 0.45008 0.8809 0.0
C266 C 0.03308 0.44728 0.90458 0.0
C267 C 0.04415 0.42859 0.91403 0.0
C268 C 0.05438 0.41298 0.89925 0.0
C269 C 0.05309 0.41565 0.87556 0.0
C270 C 0.09884 0.46778 0.83909 0.0
C271 C 0.10909 0.49307 0.85455 0.0
C272 C 0.1399 0.50718 0.86497 0.0
C273 C 0.16101 0.49636 0.85988 0.0
C274 C 0.15039 0.47078 0.84449 0.0
C275 C 0.11952 0.45656 0.83427 0.0
C276 C 0.09224 0.47474 0.79052 0.0
C277 C 0.10786 0.50742 0.79215 0.0
C278 C 0.13305 0.52592 0.77753 0.0
C279 C 0.14299 0.51198 0.76099 0.0
C280 C 0.12782 0.47922 0.75988 0.0
C281 C 0.10279 0.46078 0.77461 0.0
C282 C 0.02918 0.44446 0.76878 0.0
C283 C 0.03469 0.47367 0.76222 0.0
C284 C 0.04428 0.48385 0.74006 0.0
C285 C 0.04822 0.46478 0.72407 0.0
C286 C 0.03865 0.43399 0.72996 0.0
C287 C 0.02931 0.42393 0.75223 0.0
C288 C 0.97267 0.40016 0.79435 0.0
C289 C 0.95049 0.41014 0.79143 0.0
C290 C 0.92015 0.39014 0.78099 0.0
C291 C 0.91174 0.35999 0.77311 0.0
C292 C 0.93468 0.35066 0.77545 0.0
C293 C 0.96479 0.37052 0.78611 0.0
C294 C 0.04479 0.42529 0.93918 0.0
C295 C 0.16869 0.53142 0.7447 0.0
H296 H 0.33221 0.95071 0.85769 0.0
H297 H 0.34848 0.79361 0.07271 0.0
H298 H 0.40111 0.03225 0.96778 0.0
H299 H 0.42676 0.07155 0.93835 0.0
H300 H 0.51218 0.06374 0.94385 0.0
H301 H 0.48685 0.0257 0.97362 0.0
H302 H 0.3451 0.95254 0.95741 0.0
H303 H 0.33023 0.94891 0.91679 0.0
H304 H 0.42838 0.97664 0.89921 0.0
H305 H 0.44276 0.97968 0.93982 0.0
H306 H 0.33427 0.88487 0.98484 0.0
H307 H 0.32609 0.83603 0.96673 0.0
H308 H 0.42614 0.88517 0.94685 0.0
H309 H 0.43434 0.93311 0.96489 0.0
H310 H 0.34648 0.92064 0.0411 0.0
H311 H 0.32374 0.87315 0.06352 0.0
H312 H 0.39518 0.85397 0.03653 0.0
H313 H 0.41788 0.90164 0.01447 0.0
H314 H 0.40073 0.00013 0.05721 0.0
H315 H 0.41389 0.00411 0.09838 0.0
H316 H 0.46465 0.95479 0.08647 0.0
H317 H 0.45181 0.9513 0.04567 0.0
H318 H 0.44425 0.0597 0.01789 0.0
H319 H 0.49485 0.10594 0.03215 0.0
H320 H 0.53752 0.04854 0.04071 0.0
H321 H 0.48857 0.00388 0.02468 0.0
O322 O 0.33857 0.95215 0.87364 0.0
O323 O 0.38944 0.96678 0.86552 0.0
O324 O 0.32089 0.82351 0.07757 0.0
O325 O 0.35697 0.81249 0.06405 0.0
C326 C 0.42491 -0.00144 0.9872 0.0
C327 C 0.40371 0.96923 0.97636 0.0
C328 C 0.39248 0.94158 0.98867 0.0
C329 C 0.39732 0.94336 0.01264 0.0
C330 C 0.41727 0.9728 0.0237 0.0
C331 C 0.43317 0.00011 0.01066 0.0
C332 C 0.44227 0.02641 0.9729 0.0
C333 C 0.42575 0.03987 0.96304 0.0
C334 C 0.4403 0.06198 0.94605 0.0
C335 C 0.47147 0.07067 0.93854 0.0
C336 C 0.48844 0.05815 0.9494 0.0
C337 C 0.47402 0.03634 0.96647 0.0
C338 C 0.39511 0.9669 0.95158 0.0
C339 C 0.36334 0.95783 0.94475 0.0
C340 C 0.35493 0.9558 0.92154 0.0
C341 C 0.37817 0.96268 0.90475 0.0
C342 C 0.40994 0.97138 0.91169 0.0
C343 C 0.41827 0.97331 0.9349 0.0
C344 C 0.38479 0.91258 0.97591 0.0
C345 C 0.35414 0.88506 0.97621 0.0
C346 C 0.34953 0.85738 0.96597 0.0
C347 C 0.37558 0.85726 0.95551 0.0
C348 C 0.40579 0.88494 0.95479 0.0
C349 C 0.41037 0.91228 0.96492 0.0
C350 C 0.38352 0.91434 0.02596 0.0
C351 C 0.3571 0.90608 0.04003 0.0
C352 C 0.34419 0.87897 0.05281 0.0
C353 C 0.35758 0.85969 0.05175 0.0
C354 C 0.38421 0.8682 0.03769 0.0
C355 C 0.39713 0.89534 0.02498 0.0
C356 C 0.42474 0.97485 0.04859 0.0
C357 C 0.41468 0.99021 0.0636 0.0
C358 C 0.42229 0.99257 0.087 0.0
C359 C 0.4405 0.97999 0.09559 0.0
C360 C 0.45105 0.96518 0.08035 0.0
C361 C 0.44323 0.96263 0.05709 0.0
C362 C 0.46255 0.0283 0.02052 0.0
C363 C 0.46466 0.05733 0.02284 0.0
C364 C 0.49349 0.08362 0.03118 0.0
C365 C 0.52049 0.08114 0.03748 0.0
C366 C 0.5177 0.05172 0.03557 0.0
C367 C 0.48939 0.02588 0.0268 0.0
C368 C 0.3692 0.96069 0.88012 0.0
C369 C 0.34396 0.83086 0.06526 0.0
H370 H 0.61356 0.53379 0.98355 0.0
H371 H 0.664 0.52126 0.25053 0.0
H372 H 0.53637 0.56362 0.08688 0.0
H373 H 0.51882 0.58012 0.05356 0.0
H374 H 0.60284 0.6734 0.0624 0.0
H375 H 0.62125 0.6557 0.09495 0.0
H376 H 0.57308 0.52623 0.07824 0.0
H377 H 0.58289 0.52019 0.03806 0.0
H378 H 0.66121 0.61677 0.03861 0.0
H379 H 0.65132 0.62236 0.07887 0.0
H380 H 0.58554 0.50013 0.11843 0.0
H381 H 0.61256 0.47127 0.1088 0.0
H382 H 0.70363 0.55871 0.1039 0.0
H383 H 0.67631 0.5873 0.11352 0.0
H384 H 0.57101 0.50506 0.15926 0.0
H385 H 0.58196 0.48231 0.19247 0.0
H386 H 0.67014 0.57067 0.20745 0.0
H387 H 0.65902 0.59299 0.17404 0.0
H388 H 0.54066 0.53788 0.17385 0.0
H389 H 0.53901 0.52997 0.21472 0.0
H390 H 0.62193 0.62358 0.225 0.0
H391 H 0.62454 0.63026 0.18361 0.0
H392 H 0.52651 0.58467 0.15077 0.0
H393 H 0.51188 0.6201 0.16867 0.0
H394 H 0.60599 0.69884 0.15245 0.0
H395 H 0.62102 0.66292 0.13622 0.0
O396 O 0.61018 0.53666 -0.00054 0.0
O397 O 0.65021 0.58644 0.00063 0.0
O398 O 0.61365 0.48467 0.22875 0.0
O399 O 0.65963 0.52936 0.23687 0.0
C400 C 0.59171 0.59654 0.11177 0.0
C401 C 0.60537 0.57827 0.10574 0.0
C402 C 0.61287 0.56315 0.12283 0.0
C403 C 0.60576 0.56543 0.14578 0.0
C404 C 0.59167 0.58332 0.15172 0.0
C405 C 0.58573 0.59978 0.13489 0.0
C406 C 0.57978 0.60856 0.09348 0.0
C407 C 0.55071 0.58773 0.08178 0.0
C408 C 0.54062 0.59738 0.0628 0.0
C409 C 0.55922 0.62829 0.05527 0.0
C410 C 0.58802 0.64939 0.06753 0.0
C411 C 0.59837 0.63949 0.08636 0.0
C412 C 0.61153 0.5747 0.08141 0.0
C413 C 0.59243 0.54599 0.06966 0.0
C414 C 0.59804 0.54264 0.04671 0.0
C415 C 0.62283 0.56801 0.03511 0.0
C416 C 0.64192 0.59678 0.04702 0.0
C417 C 0.63631 0.60006 0.06998 0.0
C418 C 0.62909 0.54571 0.11681 0.0
C419 C 0.61136 0.51296 0.11543 0.0
C420 C 0.62683 0.49657 0.10999 0.0
C421 C 0.66023 0.51274 0.10568 0.0
C422 C 0.67782 0.54563 0.10694 0.0
C423 C 0.66235 0.56197 0.11249 0.0
C424 C 0.61447 0.55051 0.16408 0.0
C425 C 0.59306 0.51922 0.16942 0.0
C426 C 0.59922 0.50639 0.18853 0.0
C427 C 0.62691 0.52471 0.20266 0.0
C428 C 0.64864 0.5559 0.19693 0.0
C429 C 0.64247 0.56866 0.17779 0.0
C430 C 0.58328 0.58421 0.17586 0.0
C431 C 0.55767 0.55711 0.18503 0.0
C432 C 0.55669 0.55275 0.20854 0.0
C433 C 0.58112 0.57575 0.22318 0.0
C434 C 0.60347 0.60496 0.21411 0.0
C435 C 0.60483 0.60901 0.1905 0.0
C436 C 0.57464 0.62129 0.14193 0.0
C437 C 0.5437 0.60963 0.15083 0.0
C438 C 0.53541 0.62999 0.16099 0.0
C439 C 0.55782 0.66244 0.16217 0.0
C440 C 0.58833 0.67401 0.15231 0.0
C441 C 0.59676 0.65358 0.14254 0.0
C442 C 0.62867 0.56439 0.01071 0.0
C443 C 0.6329 0.51158 0.2235 0.0
Mg444 Mg 0.65399 0.42803 0.35212 0.0
O445 O 0.65098 0.45397 0.38374 0.0
O446 O 0.68269 0.50536 0.37867 0.0
Mg447 Mg 0.70592 0.51227 0.3439 0.0
C448 C 0.66286 0.48232 0.39055 0.0
C449 C 0.60776 0.35776 0.36238 0.0
O450 O 0.59795 0.35829 0.34139 0.0
O451 O 0.70463 0.43858 0.36293 0.0
O452 O 0.73429 0.48959 0.35603 0.0
O453 O 0.61305 0.43089 0.33616 0.0
O454 O 0.66497 0.46634 0.33245 0.0
C455 C 0.73195 0.46415 0.36237 0.0
C456 C 0.63504 0.45788 0.32886 0.0
O457 O 0.63049 0.3829 0.37168 0.0
Mg458 Mg 0.26555 0.62976 0.58918 0.0
O459 O 0.23419 0.60538 0.55663 0.0
O460 O 0.21294 0.55396 0.56043 0.0
Mg461 Mg 0.23225 0.54556 0.59371 0.0
C462 C 0.21603 0.57713 0.54931 0.0
C463 C 0.28751 0.69929 0.58342 0.0
O464 O 0.2726 0.69326 0.60299 0.0
O465 O 0.30624 0.62283 0.5768 0.0
O466 O 0.28456 0.57137 0.5807 0.0
O467 O 0.22141 0.62311 0.60677 0.0
O468 O 0.23815 0.58941 0.6076 0.0
C469 C 0.30809 0.59824 0.5754 0.0
C470 C 0.2167 0.59631 0.613 0.0
O471 O 0.28829 0.67737 0.57266 0.0
Mg472 Mg 0.61208 0.22579 0.76806 0.0
O473 O 0.58464 0.18698 0.74076 0.0
O474 O 0.58921 0.14634 0.75071 0.0
Mg475 Mg 0.61781 0.15857 0.78477 0.0
C476 C 0.57894 0.15928 0.73706 0.0
C477 C 0.6126 0.28441 0.75655 0.0
O478 O 0.61274 0.2838 0.77901 0.0
O479 O 0.66026 0.23586 0.7544 0.0
O480 O 0.66417 0.196 0.76743 0.0
O481 O 0.56757 0.20748 0.78876 0.0
O482 O 0.60408 0.19342 0.79252 0.0
C483 C 0.676 0.22186 0.75702 0.0
C484 C 0.5772 0.1906 0.7988 0.0
O485 O 0.61173 0.26199 0.74533 0.0
Mg486 Mg 0.46338 0.68135 0.86115 0.0
O487 O 0.48651 0.67259 0.89264 0.0
O488 O 0.48011 0.62528 0.88621 0.0
Mg489 Mg 0.46065 0.60776 0.84981 0.0
C490 C 0.4889 0.64945 0.89901 0.0
C491 C 0.43122 0.71753 0.87337 0.0
O492 O 0.41564 0.70124 0.85477 0.0
O493 O 0.41416 0.64313 0.87218 0.0
O494 O 0.41124 0.59844 0.86188 0.0
O495 O 0.51084 0.70736 0.84311 0.0
O496 O 0.47695 0.65628 0.8411 0.0
C497 C 0.39857 0.61341 0.87021 0.0
C498 C 0.50399 0.6801 0.83535 0.0
O499 O 0.45546 0.71623 0.88085 0.0
Mg500 Mg 0.78344 0.34118 0.05694 0.0
O501 O 0.81334 0.3483 0.08981 0.0
O502 O 0.83268 0.31622 0.08743 0.0
Mg503 Mg 0.81653 0.28989 0.05274 0.0
C504 C 0.82959 0.33694 0.09823 0.0
C505 C 0.76365 0.38975 0.06105 0.0
O506 O 0.77793 0.39532 0.04125 0.0
O507 O 0.74232 0.2945 0.06886 0.0
O508 O 0.76289 0.2638 0.06293 0.0
O509 O 0.82714 0.37732 0.03905 0.0
O510 O 0.81042 0.32702 0.0383 0.0
C511 C 0.73948 0.2676 0.06849 0.0
C512 C 0.831 0.35478 0.03189 0.0
O513 O 0.76169 0.36779 0.07295 0.0
Mg514 Mg 0.43711 0.82134 0.23554 0.0
O515 O 0.4559 0.8403 0.27178 0.0
O516 O 0.50701 0.87991 0.26909 0.0
Mg517 Mg 0.51997 0.88661 0.23119 0.0
C518 C 0.48237 0.86211 0.28096 0.0
C519 C 0.38324 0.75437 0.23369 0.0
O520 O 0.39472 0.76021 0.21293 0.0
O521 O 0.46762 0.79935 0.23367 0.0
O522 O 0.51785 0.83916 0.2283 0.0
O523 O 0.41885 0.85381 0.23237 0.0
O524 O 0.46774 0.86484 0.22227 0.0
C525 C 0.49747 0.80989 0.22994 0.0
C526 C 0.44701 0.87371 0.22447 0.0
O527 O 0.3957 0.77626 0.2488 0.0
H528 H 0.20388 0.57789 0.22512 0.0
H529 H 0.35928 0.73123 0.27575 0.0
H530 H 0.23301 0.58965 0.29642 0.0
H531 H 0.34545 0.70605 0.20375 0.0
H532 H 0.31295 0.67953 0.2838 0.0
H533 H 0.25595 0.62452 0.21672 0.0
C534 C 0.22155 0.59005 0.23891 0.0
C535 C 0.21431 0.58003 0.26145 0.0
C536 C 0.32025 0.68526 0.26626 0.0
C537 C 0.27342 0.63356 0.25215 0.0
C538 C 0.34655 0.7148 0.26165 0.0
C539 C 0.35605 0.72301 0.23904 0.0
C540 C 0.30313 0.66397 0.2481 0.0
C541 C 0.33887 0.70075 0.22144 0.0
C542 C 0.25119 0.61662 0.23415 0.0
C543 C 0.23788 0.59651 0.27877 0.0
N544 N 0.31305 0.67235 0.22632 0.0
N545 N 0.26625 0.62278 0.27381 0.0
H546 H 0.56121 0.21654 0.46322 0.0
H547 H 0.56025 0.29934 0.34718 0.0
H548 H 0.50432 0.16611 0.40283 0.0
H549 H 0.62197 0.34874 0.40607 0.0
H550 H 0.53747 0.25057 0.36789 0.0
H551 H 0.582 0.26548 0.44306 0.0
C552 C 0.55317 0.21574 0.44568 0.0
C553 C 0.53106 0.18713 0.43468 0.0
C554 C 0.55597 0.27209 0.37629 0.0
C555 C 0.55453 0.24317 0.41155 0.0
C556 C 0.56897 0.29996 0.36448 0.0
C557 C 0.59314 0.32817 0.37487 0.0
C558 C 0.56717 0.27242 0.39868 0.0
C559 C 0.60345 0.32755 0.39735 0.0
C560 C 0.56493 0.24372 0.43422 0.0
C561 C 0.52105 0.18761 0.41208 0.0
N562 N 0.59045 0.30012 0.40847 0.0
N563 N 0.53292 0.21517 0.40125 0.0
H564 H 0.49707 0.63311 0.6049 0.0
H565 H 0.31822 0.55373 0.55651 0.0
H566 H 0.45785 0.55694 0.55496 0.0
H567 H 0.3693 0.64878 0.58311 0.0
H568 H 0.36981 0.55544 0.55448 0.0
H569 H 0.45207 0.64108 0.59594 0.0
C570 C 0.47944 0.61846 0.59172 0.0
C571 C 0.48104 0.59392 0.58097 0.0
C572 C 0.36986 0.57614 0.56038 0.0
C573 C 0.42903 0.60253 0.57105 0.0
C574 C 0.34039 0.57515 0.56156 0.0
C575 C 0.33946 0.60106 0.57014 0.0
C576 C 0.39854 0.60298 0.56836 0.0
C577 C 0.36895 0.62828 0.57637 0.0
C578 C 0.45363 0.62295 0.58669 0.0
C579 C 0.45718 0.57555 0.56418 0.0
N580 N 0.39726 0.62833 0.57579 0.0
N581 N 0.43191 0.57988 0.56003 0.0
H582 H 0.87261 0.37182 0.74544 0.0
H583 H 0.71877 0.20131 0.76153 0.0
H584 H 0.87478 0.29705 0.78007 0.0
H585 H 0.71235 0.27989 0.73857 0.0
H586 H 0.77763 0.23284 0.7591 0.0
H587 H 0.81567 0.33547 0.73459 0.0
C588 C 0.86124 0.34776 0.75064 0.0
C589 C 0.87848 0.33764 0.76396 0.0
C590 C 0.76331 0.24304 0.75428 0.0
C591 C 0.81353 0.29588 0.75131 0.0
C592 C 0.72963 0.22501 0.75559 0.0
C593 C 0.71056 0.23818 0.75078 0.0
C594 C 0.77805 0.2745 0.74821 0.0
C595 C 0.72608 0.26889 0.74284 0.0
C596 C 0.82881 0.32699 0.74429 0.0
C597 C 0.86267 0.30597 0.76969 0.0
N598 N 0.75898 0.28619 0.74216 0.0
N599 N 0.83105 0.28635 0.76353 0.0
H600 H 0.39711 0.82282 0.97565 0.0
H601 H 0.38489 0.73038 0.85944 0.0
H602 H 0.35092 0.82879 0.9139 0.0
H603 H 0.44931 0.74397 0.91647 0.0
H604 H 0.36419 0.7585 0.88108 0.0
H605 H 0.40664 0.78437 0.95654 0.0
C606 C 0.3881 0.81516 0.95824 0.0
C607 C 0.37299 0.82851 0.94628 0.0
C608 C 0.38278 0.75523 0.88885 0.0
C609 C 0.38473 0.78565 0.92409 0.0
C610 C 0.39469 0.73928 0.87651 0.0
C611 C 0.4191 0.7351 0.8861 0.0
C612 C 0.39516 0.76683 0.91102 0.0
C613 C 0.43076 0.74696 0.90832 0.0
C614 C 0.39387 0.79359 0.94726 0.0
C615 C 0.36227 0.81855 0.92366 0.0
N616 N 0.41868 0.7623 0.92002 0.0
N617 N 0.36866 0.79787 0.91315 0.0
H618 H 0.7045 0.52597 0.07236 0.0
H619 H 0.72692 0.38109 0.09882 0.0
H620 H 0.65316 0.46002 0.12516 0.0
H621 H 0.76798 0.44072 0.04098 0.0
H622 H 0.70246 0.41157 0.11045 0.0
H623 H 0.73095 0.49691 0.06237 0.0
C624 C 0.69896 0.50547 0.08195 0.0
C625 C 0.6766 0.49539 0.09961 0.0
C626 C 0.71686 0.41797 0.09523 0.0
C627 C 0.70657 0.46182 0.08815 0.0
C628 C 0.73088 0.40064 0.08861 0.0
C629 C 0.74944 0.40832 0.06886 0.0
C630 C 0.72158 0.44323 0.08205 0.0
C631 C 0.75377 0.43387 0.05628 0.0
C632 C 0.71391 0.48877 0.07616 0.0
C633 C 0.66998 0.4684 0.11126 0.0
N634 N 0.73994 0.45038 0.06309 0.0
N635 N 0.68493 0.45255 0.10534 0.0
H636 H 0.41612 0.86961 0.51294 0.0
H637 H 0.28765 0.75042 0.60108 0.0
H638 H 0.36877 0.89578 0.56306 0.0
H639 H 0.32689 0.7218 0.54639 0.0
H640 H 0.31814 0.804 0.58786 0.0
H641 H 0.38522 0.81571 0.52577 0.0
C642 C 0.3994 0.86407 0.52676 0.0
C643 C 0.39504 0.88726 0.53695 0.0
C644 C 0.32002 0.78601 0.5787 0.0
C645 C 0.35933 0.82553 0.55157 0.0
C646 C 0.3026 0.75537 0.58624 0.0
C647 C 0.30473 0.73155 0.57485 0.0
C648 C 0.33992 0.79302 0.55969 0.0
C649 C 0.32448 0.7394 0.55569 0.0
C650 C 0.38158 0.83324 0.53396 0.0
C651 C 0.37266 0.87861 0.55456 0.0
N652 N 0.34141 0.76948 0.54876 0.0
N653 N 0.35571 0.84848 0.56132 0.0
H654 H 0.59697 0.44405 0.72419 0.0
H655 H 0.62032 0.29744 0.71081 0.0
H656 H 0.63093 0.42346 0.66232 0.0
H657 H 0.60801 0.33211 0.77566 0.0
H658 H 0.62245 0.34208 0.69216 0.0
H659 H 0.59941 0.40193 0.74299 0.0
C660 C 0.6051 0.43069 0.71463 0.0
C661 C 0.61367 0.43709 0.6917 0.0
C662 C 0.61941 0.33992 0.71048 0.0
C663 C 0.61634 0.38874 0.71299 0.0
C664 C 0.61804 0.3144 0.72111 0.0
C665 C 0.61388 0.311 0.74481 0.0
C666 C 0.6163 0.36198 0.72364 0.0
C667 C 0.61122 0.33375 0.75734 0.0
C668 C 0.60657 0.40671 0.72535 0.0
C669 C 0.62432 0.41932 0.68009 0.0
N670 N 0.61233 0.35816 0.74659 0.0
N671 N 0.62508 0.39571 0.69081 0.0
H672 H 0.19693 0.47106 0.87453 0.0
H673 H 0.36088 0.63728 0.88294 0.0
H674 H 0.20228 0.55946 0.86625 0.0
H675 H 0.35739 0.54986 0.87125 0.0
H676 H 0.30225 0.6083 0.88752 0.0
H677 H 0.25513 0.4993 0.88372 0.0
C678 C 0.21025 0.49639 0.87485 0.0
C679 C 0.19481 0.51291 0.86917 0.0
C680 C 0.31441 0.59548 0.88423 0.0
C681 C 0.26114 0.54523 0.87997 0.0
C682 C 0.3479 0.61197 0.88163 0.0
C683 C 0.364 0.59599 0.87622 0.0
C684 C 0.29694 0.56281 0.88147 0.0
C685 C 0.3459 0.56318 0.875 0.0
C686 C 0.24339 0.51245 0.8802 0.0
C687 C 0.21308 0.54571 0.87052 0.0
N688 N 0.31324 0.54766 0.87735 0.0
N689 N 0.24538 0.56079 0.87553 0.0
H690 H 0.53151 0.13255 0.06373 0.0
H691 H 0.72348 0.20648 0.06736 0.0
H692 H 0.58176 0.09368 0.02855 0.0
H693 H 0.68103 0.26412 0.075 0.0
H694 H 0.66924 0.16054 0.0633 0.0
H695 H 0.58433 0.17759 0.07608 0.0
C696 C 0.55347 0.13337 0.05859 0.0
C697 C 0.55198 0.10897 0.04521 0.0
C698 C 0.67181 0.18322 0.06612 0.0
C699 C 0.61216 0.15984 0.05986 0.0
C700 C 0.7028 0.20951 0.06858 0.0
C701 C 0.70694 0.23939 0.07107 0.0
C702 C 0.64465 0.18668 0.06624 0.0
C703 C 0.67904 0.24161 0.07282 0.0
C704 C 0.58353 0.15895 0.06581 0.0
C705 C 0.58138 0.11129 0.03934 0.0
N706 N 0.64899 0.21559 0.07009 0.0
N707 N 0.61011 0.13611 0.04677 0.0
H708 H 0.59857 0.71537 0.18817 0.0
H709 H 0.45867 0.74645 0.22486 0.0
H710 H 0.49882 0.65876 0.16412 0.0
H711 H 0.55895 0.82107 0.22235 0.0
H712 H 0.47395 0.70991 0.21047 0.0
H713 H 0.58496 0.75076 0.20745 0.0
C714 C 0.57387 0.71041 0.18676 0.0
C715 C 0.54987 0.68403 0.17425 0.0
C716 C 0.49262 0.73424 0.21324 0.0
C717 C 0.5341 0.72398 0.197 0.0
C718 C 0.48401 0.75516 0.22161 0.0
C719 C 0.50754 0.78707 0.22459 0.0
C720 C 0.52502 0.74512 0.20803 0.0
C721 C 0.53998 0.79678 0.22013 0.0
C722 C 0.56614 0.73053 0.19796 0.0
C723 C 0.5181 0.67846 0.17373 0.0
N724 N 0.54777 0.77587 0.21195 0.0
N725 N 0.51115 0.69823 0.18496 0.0
H726 H 0.92372 0.51451 0.33559 0.0
H727 H 0.74038 0.41382 0.36772 0.0
H728 H 0.88872 0.42615 0.3685 0.0
H729 H 0.79333 0.51473 0.36612 0.0
H730 H 0.79224 0.41525 0.36718 0.0
H731 H 0.87378 0.51248 0.34463 0.0
C732 C 0.90584 0.49485 0.34509 0.0
C733 C 0.91097 0.47073 0.35163 0.0
C734 C 0.79233 0.437 0.36734 0.0
C735 C 0.85266 0.46781 0.36136 0.0
C736 C 0.76281 0.43625 0.36769 0.0
C737 C 0.76243 0.46418 0.36653 0.0
C738 C 0.8214 0.46583 0.36556 0.0
C739 C 0.79228 0.49255 0.3666 0.0
C740 C 0.8771 0.49365 0.35012 0.0
C741 C 0.88589 0.44523 0.36299 0.0
N742 N 0.82043 0.49259 0.36574 0.0
N743 N 0.85765 0.44431 0.36737 0.0
H744 H 0.06504 0.49158 0.44404 0.0
H745 H 0.22344 0.61793 0.51548 0.0
H746 H 0.14185 0.57533 0.41423 0.0
H747 H 0.16371 0.5215 0.5344 0.0
H748 H 0.18979 0.60609 0.48054 0.0
H749 H 0.09685 0.50584 0.47987 0.0
C750 C 0.08848 0.51302 0.44501 0.0
C751 C 0.10071 0.53219 0.42598 0.0
C752 C 0.18415 0.58758 0.49238 0.0
C753 C 0.13713 0.54881 0.46709 0.0
C754 C 0.20331 0.59431 0.51231 0.0
C755 C 0.19655 0.57064 0.52785 0.0
C756 C 0.15777 0.55711 0.48815 0.0
C757 C 0.17007 0.54045 0.52285 0.0
C758 C 0.1066 0.52117 0.4655 0.0
C759 C 0.13108 0.56002 0.42848 0.0
N760 N 0.15162 0.53461 0.50352 0.0
N761 N 0.14826 0.56745 0.44862 0.0
H762 H 0.49367 0.02636 0.62326 0.0
H763 H 0.55178 0.17793 0.70401 0.0
H764 H 0.48171 0.10354 0.60553 0.0
H765 H 0.56324 0.10053 0.72227 0.0
H766 H 0.52267 0.14933 0.66901 0.0
H767 H 0.51552 0.05129 0.66086 0.0
C768 C 0.49536 0.0484 0.62737 0.0
C769 C 0.48588 0.06289 0.61122 0.0
C770 C 0.53142 0.13853 0.68072 0.0
C771 C 0.51101 0.09165 0.65415 0.0
C772 C 0.54812 0.15489 0.70073 0.0
C773 C 0.56022 0.14175 0.71611 0.0
C774 C 0.52681 0.10881 0.67595 0.0
C775 C 0.55453 0.11171 0.71092 0.0
C776 C 0.5078 0.06261 0.64883 0.0
C777 C 0.48832 0.09131 0.61753 0.0
N778 N 0.53839 0.09635 0.69124 0.0
N779 N 0.50088 0.10486 0.63841 0.0
H780 H 0.58454 0.67981 0.70492 0.0
H781 H 0.5117 0.63016 0.82956 0.0
H782 H 0.53396 0.58556 0.72933 0.0
H783 H 0.54137 0.7207 0.80256 0.0
H784 H 0.53243 0.61779 0.79582 0.0
H785 H 0.57943 0.69876 0.74286 0.0
C786 C 0.57238 0.6632 0.71828 0.0
C787 C 0.55895 0.63107 0.71396 0.0
C788 C 0.53481 0.64054 0.79734 0.0
C789 C 0.55374 0.65241 0.75718 0.0
C790 C 0.52303 0.64762 0.81664 0.0
C791 C 0.52417 0.67617 0.81854 0.0
C792 C 0.5475 0.66205 0.77966 0.0
C793 C 0.53989 0.69832 0.80161 0.0
C794 C 0.56957 0.67397 0.73986 0.0
C795 C 0.54383 0.61044 0.73181 0.0
N796 N 0.55044 0.69057 0.78257 0.0
N797 N 0.54158 0.62146 0.75259 0.0
H798 H 0.95119 0.43029 0.91507 0.0
H799 H 0.83907 0.3108 0.00949 0.0
H800 H 0.9024 0.32993 0.9063 0.0
H801 H 0.87587 0.41005 0.01316 0.0
H802 H 0.86972 0.31818 0.97485 0.0
H803 H 0.93008 0.42378 0.95352 0.0
C804 C 0.9357 0.40683 0.92115 0.0
C805 C 0.92793 0.38057 0.90724 0.0
C806 C 0.87142 0.33839 0.9834 0.0
C807 C 0.90433 0.37299 0.95157 0.0
C808 C 0.85412 0.33425 0.0033 0.0
C809 C 0.85462 0.35983 0.01411 0.0
C810 C 0.88936 0.36832 0.97427 0.0
C811 C 0.87457 0.38965 0.0053 0.0
C812 C 0.92395 0.40316 0.94322 0.0
C813 C 0.90881 0.3508 0.91638 0.0
N814 N 0.89087 0.39302 0.98575 0.0
N815 N 0.89748 0.34781 0.93793 0.0
H816 H 0.3973 0.96553 0.12978 0.0
H817 H 0.40903 0.89979 0.2271 0.0
H818 H 0.49671 0.99296 0.11793 0.0
H819 H 0.49869 0.91507 0.19958 0.0
H820 H 0.41172 0.93976 0.20237 0.0
H821 H 0.40305 0.95236 0.16855 0.0
C822 C 0.42073 0.96973 0.13564 0.0
C823 C 0.44631 0.9796 0.12048 0.0
C824 C 0.43088 0.93454 0.20161 0.0
C825 C 0.45333 0.9643 0.1651 0.0
C826 C 0.42955 0.91191 0.21604 0.0
C827 C 0.45303 0.90329 0.21476 0.0
C828 C 0.45551 0.94802 0.18544 0.0
C829 C 0.47956 0.92038 0.20068 0.0
C830 C 0.42411 0.96214 0.15796 0.0
C831 C 0.47609 0.98455 0.12894 0.0
N832 N 0.47966 0.94139 0.18618 0.0
N833 N 0.47857 0.97626 0.15052 0.0
H834 H 0.53752 0.53525 0.25445 0.0
H835 H 0.67639 0.51454 0.31091 0.0
H836 H 0.64025 0.59404 0.243 0.0
H837 H 0.57453 0.45003 0.32148 0.0
H838 H 0.66295 0.54922 0.29188 0.0
H839 H 0.55007 0.50961 0.28487 0.0
C840 C 0.56269 0.54329 0.2586 0.0
C841 C 0.58777 0.56655 0.24574 0.0
C842 C 0.64343 0.52765 0.29852 0.0
C843 C 0.60219 0.53741 0.28052 0.0
C844 C 0.65114 0.50778 0.30954 0.0
C845 C 0.62657 0.47929 0.3179 0.0
C846 C 0.61081 0.51882 0.29531 0.0
C847 C 0.59423 0.47171 0.31516 0.0
C848 C 0.56979 0.52862 0.27597 0.0
C849 C 0.61993 0.57645 0.25233 0.0
N850 N 0.58721 0.49124 0.30384 0.0
N851 N 0.62611 0.56153 0.26898 0.0
H852 H 0.42401 0.88962 0.41368 0.0
H853 H 0.53375 0.90687 0.30707 0.0
H854 H 0.52212 0.96621 0.4054 0.0
H855 H 0.43301 0.83408 0.31141 0.0
H856 H 0.53232 0.92368 0.34615 0.0
H857 H 0.42902 0.86438 0.37903 0.0
C858 C 0.44666 0.90102 0.40471 0.0
C859 C 0.47263 0.93015 0.41247 0.0
C860 C 0.5106 0.90383 0.33865 0.0
C861 C 0.47859 0.90134 0.37293 0.0
C862 C 0.51142 0.89413 0.3163 0.0
C863 C 0.48332 0.8693 0.30574 0.0
C864 C 0.48145 0.8887 0.35054 0.0
C865 C 0.45519 0.85354 0.31873 0.0
C866 C 0.44955 0.88653 0.385 0.0
C867 C 0.50157 0.94359 0.40032 0.0
N868 N 0.45487 0.86376 0.34035 0.0
N869 N 0.50365 0.9292 0.3811 0.0
H870 H 0.64679 0.56065 0.51858 0.0
H871 H 0.60787 0.44312 0.41362 0.0
H872 H 0.54885 0.48755 0.50007 0.0
H873 H 0.69198 0.53653 0.41644 0.0
H874 H 0.58802 0.45571 0.44804 0.0
H875 H 0.66551 0.54965 0.48326 0.0
C876 C 0.62902 0.54268 0.50696 0.0
C877 C 0.59602 0.52515 0.51241 0.0
C878 C 0.6108 0.4734 0.44107 0.0
C879 C 0.61781 0.51168 0.47221 0.0
C880 C 0.6223 0.46618 0.42158 0.0
C881 C 0.65166 0.48883 0.41217 0.0
C882 C 0.62904 0.50329 0.45141 0.0
C883 C 0.66919 0.5184 0.42308 0.0
C884 C 0.63989 0.53622 0.48686 0.0
C885 C 0.57454 0.50143 0.49684 0.0
N886 N 0.65769 0.52473 0.4422 0.0
N887 N 0.58585 0.49521 0.47753 0.0
H888 H 0.09442 0.45509 0.70598 0.0
H889 H 0.16432 0.60136 0.62458 0.0
H890 H 0.04685 0.50756 0.69536 0.0
H891 H 0.20344 0.5409 0.63087 0.0
H892 H 0.1189 0.56574 0.64827 0.0
H893 H 0.13164 0.4839 0.67589 0.0
C894 C 0.09119 0.47211 0.69693 0.0
C895 C 0.06727 0.47877 0.70324 0.0
C896 C 0.13727 0.56014 0.64422 0.0
C897 C 0.11087 0.51283 0.66906 0.0
C898 C 0.16321 0.58048 0.63074 0.0
C899 C 0.18777 0.57415 0.62576 0.0
C900 C 0.13606 0.53344 0.65287 0.0
C901 C 0.18508 0.54674 0.63416 0.0
C902 C 0.11279 0.48887 0.67985 0.0
C903 C 0.0651 0.50185 0.69124 0.0
N904 N 0.15987 0.52758 0.6474 0.0
N905 N 0.08684 0.51829 0.67488 0.0
H906 H 0.43951 0.0718 0.89945 0.0
H907 H 0.59966 0.16564 0.8297 0.0
H908 H 0.53525 0.11469 0.93115 0.0
H909 H 0.51505 0.17076 0.81198 0.0
H910 H 0.57292 0.13753 0.86399 0.0
H911 H 0.46383 0.10084 0.8648 0.0
C912 C 0.46553 0.08763 0.89934 0.0
C913 C 0.48535 0.09061 0.91831 0.0
C914 C 0.56019 0.14473 0.85254 0.0
C915 C 0.51316 0.12281 0.87843 0.0
C916 C 0.57527 0.16049 0.83286 0.0
C917 C 0.55954 0.1706 0.81802 0.0
C918 C 0.52896 0.13855 0.85724 0.0
C919 C 0.52801 0.16344 0.82306 0.0
C920 C 0.47934 0.10395 0.87947 0.0
C921 C 0.51901 0.11103 0.91685 0.0
N922 N 0.51362 0.14769 0.84229 0.0
N923 N 0.53187 0.12604 0.89716 0.0
H924 H 0.59837 0.66887 0.02245 0.0
H925 H 0.46499 0.59978 0.92662 0.0
H926 H 0.49752 0.60868 0.03899 0.0
H927 H 0.53653 0.69831 0.92516 0.0
H928 H 0.4817 0.59883 0.96614 0.0
H929 H 0.58113 0.67804 0.98526 0.0
C930 C 0.57266 0.658 0.01856 0.0
C931 C 0.5494 0.6375 0.0339 0.0
C932 C 0.49365 0.62065 0.95717 0.0
C933 C 0.52987 0.6472 0.99112 0.0
C934 C 0.48437 0.62118 0.93462 0.0
C935 C 0.49955 0.64915 0.92269 0.0
C936 C 0.51888 0.64808 0.96765 0.0
C937 C 0.52428 0.67632 0.93389 0.0
C938 C 0.56294 0.66317 0.99726 0.0
C939 C 0.51643 0.62382 0.02755 0.0
N940 N 0.5336 0.67505 0.95576 0.0
N941 N 0.50768 0.62842 0.00649 0.0
H942 H 0.95907 0.38638 0.21584 0.0
H943 H 0.82415 0.37632 0.12883 0.0
H944 H 0.89877 0.42455 0.23207 0.0
H945 H 0.87206 0.32382 0.11985 0.0
H946 H 0.85211 0.39567 0.16605 0.0
H947 H 0.9281 0.36445 0.18021 0.0
C948 C 0.93897 0.38976 0.21214 0.0
C949 C 0.93137 0.40713 0.22723 0.0
C950 C 0.85638 0.37983 0.15595 0.0
C951 C 0.8962 0.38263 0.18586 0.0
C952 C 0.84049 0.3688 0.13465 0.0
C953 C 0.84577 0.34842 0.12108 0.0
C954 C 0.87793 0.37062 0.1637 0.0
C955 C 0.86716 0.33947 0.12964 0.0
C956 C 0.92143 0.37741 0.19162 0.0
C957 C 0.90568 0.41152 0.22096 0.0
N958 N 0.88252 0.35072 0.1503 0.0
N959 N 0.88908 0.39943 0.20073 0.0
loop_
_geom_bond_atom_site_label_1
_geom_bond_atom_site_label_2
_geom_bond_distance
_geom_bond_site_symmetry_2
_ccdc_geom_bond_type
H0 O26 0.856 . S
H1 O29 0.854 . S
H2 C37 0.930 1_455 S
H3 C38 0.930 . S
H4 C40 0.930 . S
H5 C41 0.930 . S
H6 C43 0.931 . S
H7 C44 0.930 . S
H8 C46 0.930 . S
H9 C47 0.929 . S
H10 C49 0.930 . S
H11 C50 0.931 . S
H12 C52 0.930 . S
H13 C53 0.929 . S
H14 C55 0.931 . S
H15 C56 0.930 . S
H16 C58 0.930 . S
H17 C59 0.932 . S
H18 C61 0.930 . S
H19 C62 0.929 . S
H20 C64 0.931 . S
H21 C65 0.930 . S
H22 C67 0.929 . S
H23 C68 0.931 . S
H24 C70 0.930 . S
H25 C71 0.929 . S
O26 H0 0.856 . S
O26 C72 1.300 . S
O27 C72 1.209 . S
O28 C73 1.199 . S
O29 H1 0.854 . S
O29 C73 1.297 . S
C30 C31 1.404 . S
C30 C35 1.397 . S
C30 C36 1.492 . S
C31 C30 1.404 . S
C31 C32 1.396 . S
C31 C42 1.492 . S
C32 C31 1.396 . S
C32 C33 1.397 . S
C32 C48 1.509 . S
C33 C32 1.397 . S
C33 C34 1.412 . S
C33 C54 1.485 . S
C34 C33 1.412 . S
C34 C35 1.388 . S
C34 C60 1.490 . S
C35 C30 1.397 . S
C35 C34 1.388 . S
C35 C66 1.519 1_455 S
C36 C30 1.492 . S
C36 C37 1.363 1_455 S
C36 C41 1.390 1_455 S
C37 H2 0.930 1_655 S
C37 C36 1.363 1_655 S
C37 C38 1.372 . S
C38 H3 0.930 . S
C38 C37 1.372 . S
C38 C39 1.383 . S
C39 C38 1.383 . S
C39 C40 1.395 . S
C40 H4 0.930 . S
C40 C39 1.395 . S
C40 C41 1.362 . S
C41 H5 0.930 . S
C41 C36 1.390 1_655 S
C41 C40 1.362 . S
C42 C31 1.492 . S
C42 C43 1.377 . S
C42 C47 1.397 . S
C43 H6 0.931 . S
C43 C42 1.377 . S
C43 C44 1.376 . S
C44 H7 0.930 . S
C44 C43 1.376 . S
C44 C45 1.376 . S
C45 C44 1.376 . S
C45 C46 1.378 . S
C45 C72 1.486 . S
C46 H8 0.930 . S
C46 C45 1.378 . S
C46 C47 1.376 . S
C47 H9 0.929 . S
C47 C42 1.397 . S
C47 C46 1.376 . S
C48 C32 1.509 . S
C48 C49 1.391 . S
C48 C53 1.386 . S
C49 H10 0.930 . S
C49 C48 1.391 . S
C49 C50 1.375 . S
C50 H11 0.931 . S
C50 C49 1.375 . S
C50 C51 1.375 . S
C51 C50 1.375 . S
C51 C52 1.361 . S
C52 H12 0.930 . S
C52 C51 1.361 . S
C52 C53 1.399 . S
C53 H13 0.929 . S
C53 C48 1.386 . S
C53 C52 1.399 . S
C54 C33 1.485 . S
C54 C55 1.394 . S
C54 C59 1.360 . S
C55 H14 0.931 . S
C55 C54 1.394 . S
C55 C56 1.372 . S
C56 H15 0.930 . S
C56 C55 1.372 . S
C56 C57 1.397 . S
C57 C56 1.397 . S
C57 C58 1.390 . S
C57 C73 1.476 . S
C58 H16 0.930 . S
C58 C57 1.390 . S
C58 C59 1.366 . S
C59 H17 0.932 . S
C59 C54 1.360 . S
C59 C58 1.366 . S
C60 C34 1.490 . S
C60 C61 1.380 . S
C60 C65 1.386 . S
C61 H18 0.930 . S
C61 C60 1.380 . S
C61 C62 1.381 . S
C62 H19 0.929 . S
C62 C61 1.381 . S
C62 C63 1.371 . S
C63 C62 1.371 . S
C63 C64 1.380 . S
C64 H20 0.931 . S
C64 C63 1.380 . S
C64 C65 1.387 . S
C65 H21 0.930 . S
C65 C60 1.386 . S
C65 C64 1.387 . S
C66 C35 1.519 1_655 S
C66 C67 1.377 . S
C66 C71 1.361 . S
C67 H22 0.929 . S
C67 C66 1.377 . S
C67 C68 1.386 . S
C68 H23 0.931 . S
C68 C67 1.386 . S
C68 C69 1.363 . S
C69 C68 1.363 . S
C69 C70 1.385 . S
C70 H24 0.930 . S
C70 C69 1.385 . S
C70 C71 1.396 . S
C71 H25 0.929 . S
C71 C66 1.361 . S
C71 C70 1.396 . S
C72 O26 1.300 . S
C72 O27 1.209 . S
C72 C45 1.486 . S
C73 O28 1.199 . S
C73 O29 1.297 . S
C73 C57 1.476 . S
H74 O100 0.856 . S
H75 O103 0.854 . S
H76 C111 0.930 . S
H77 C112 0.930 . S
H78 C114 0.930 . S
H79 C115 0.930 . S
H80 C117 0.931 . S
H81 C118 0.930 . S
H82 C120 0.930 . S
H83 C121 0.929 . S
H84 C123 0.930 . S
H85 C124 0.931 . S
H86 C126 0.930 . S
H87 C127 0.929 . S
H88 C129 0.931 . S
H89 C130 0.930 . S
H90 C132 0.930 . S
H91 C133 0.932 . S
H92 C135 0.930 . S
H93 C136 0.929 . S
H94 C138 0.931 . S
H95 C139 0.930 . S
H96 C141 0.929 . S
H97 C142 0.931 . S
H98 C144 0.930 . S
H99 C145 0.929 . S
O100 H74 0.856 . S
O100 C146 1.300 . S
O101 C146 1.209 . S
O102 C147 1.199 . S
O103 H75 0.854 . S
O103 C147 1.297 . S
C104 C105 1.404 . S
C104 C109 1.397 . S
C104 C110 1.492 . S
C105 C104 1.404 . S
C105 C106 1.396 . S
C105 C116 1.492 . S
C106 C105 1.396 . S
C106 C107 1.397 . S
C106 C122 1.509 . S
C107 C106 1.397 . S
C107 C108 1.412 . S
C107 C128 1.485 . S
C108 C107 1.412 . S
C108 C109 1.388 . S
C108 C134 1.490 . S
C109 C104 1.397 . S
C109 C108 1.388 . S
C109 C140 1.519 1_545 S
C110 C104 1.492 . S
C110 C111 1.363 . S
C110 C115 1.390 1_545 S
C111 H76 0.930 . S
C111 C110 1.363 . S
C111 C112 1.372 1_545 S
C112 H77 0.930 . S
C112 C111 1.372 1_565 S
C112 C113 1.383 . S
C113 C112 1.383 . S
C113 C114 1.395 . S
C114 H78 0.930 . S
C114 C113 1.395 . S
C114 C115 1.362 . S
C115 H79 0.930 . S
C115 C110 1.390 1_565 S
C115 C114 1.362 . S
C116 C105 1.492 . S
C116 C117 1.377 . S
C116 C121 1.397 . S
C117 H80 0.931 . S
C117 C116 1.377 . S
C117 C118 1.376 . S
C118 H81 0.930 . S
C118 C117 1.376 . S
C118 C119 1.376 . S
C119 C118 1.376 . S
C119 C120 1.378 . S
C119 C146 1.486 . S
C120 H82 0.930 . S
C120 C119 1.378 . S
C120 C121 1.376 . S
C121 H83 0.929 . S
C121 C116 1.397 . S
C121 C120 1.376 . S
C122 C106 1.509 . S
C122 C123 1.391 . S
C122 C127 1.386 . S
C123 H84 0.930 . S
C123 C122 1.391 . S
C123 C124 1.375 . S
C124 H85 0.931 . S
C124 C123 1.375 . S
C124 C125 1.375 . S
C125 C124 1.375 . S
C125 C126 1.361 . S
C126 H86 0.930 . S
C126 C125 1.361 . S
C126 C127 1.399 . S
C127 H87 0.929 . S
C127 C122 1.386 . S
C127 C126 1.399 . S
C128 C107 1.485 . S
C128 C129 1.394 . S
C128 C133 1.360 . S
C129 H88 0.931 . S
C129 C128 1.394 . S
C129 C130 1.372 . S
C130 H89 0.930 . S
C130 C129 1.372 . S
C130 C131 1.397 . S
C131 C130 1.397 . S
C131 C132 1.390 . S
C131 C147 1.476 . S
C132 H90 0.930 . S
C132 C131 1.390 . S
C132 C133 1.366 . S
C133 H91 0.932 . S
C133 C128 1.360 . S
C133 C132 1.366 . S
C134 C108 1.490 . S
C134 C135 1.380 . S
C134 C139 1.386 . S
C135 H92 0.930 . S
C135 C134 1.380 . S
C135 C136 1.381 . S
C136 H93 0.929 . S
C136 C135 1.381 . S
C136 C137 1.371 . S
C137 C136 1.371 . S
C137 C138 1.380 . S
C138 H94 0.931 . S
C138 C137 1.380 . S
C138 C139 1.387 . S
C139 H95 0.930 . S
C139 C134 1.386 . S
C139 C138 1.387 . S
C140 C109 1.519 1_565 S
C140 C141 1.377 . S
C140 C145 1.361 . S
C141 H96 0.929 . S
C141 C140 1.377 . S
C141 C142 1.386 . S
C142 H97 0.931 . S
C142 C141 1.386 . S
C142 C143 1.363 . S
C143 C142 1.363 . S
C143 C144 1.385 . S
C144 H98 0.930 . S
C144 C143 1.385 . S
C144 C145 1.396 . S
C145 H99 0.929 . S
C145 C140 1.361 . S
C145 C144 1.396 . S
C146 O100 1.300 . S
C146 O101 1.209 . S
C146 C119 1.486 . S
C147 O102 1.199 . S
C147 O103 1.297 . S
C147 C131 1.476 . S
H148 O174 0.856 . S
H149 O177 0.854 . S
H150 C185 0.930 . S
H151 C186 0.930 . S
H152 C188 0.930 . S
H153 C189 0.930 . S
H154 C191 0.931 . S
H155 C192 0.930 . S
H156 C194 0.930 . S
H157 C195 0.929 . S
H158 C197 0.930 . S
H159 C198 0.931 . S
H160 C200 0.930 . S
H161 C201 0.929 . S
H162 C203 0.931 . S
H163 C204 0.930 . S
H164 C206 0.930 . S
H165 C207 0.932 . S
H166 C209 0.930 . S
H167 C210 0.929 . S
H168 C212 0.931 . S
H169 C213 0.930 . S
H170 C215 0.929 . S
H171 C216 0.931 . S
H172 C218 0.930 . S
H173 C219 0.929 . S
O174 H148 0.856 . S
O174 C220 1.300 . S
O175 C220 1.209 . S
O176 C221 1.199 . S
O177 H149 0.854 . S
O177 C221 1.297 . S
C178 C179 1.404 . S
C178 C183 1.397 . S
C178 C184 1.492 . S
C179 C178 1.404 . S
C179 C180 1.396 . S
C179 C190 1.492 . S
C180 C179 1.396 . S
C180 C181 1.397 . S
C180 C196 1.509 . S
C181 C180 1.397 . S
C181 C182 1.412 . S
C181 C202 1.485 . S
C182 C181 1.412 . S
C182 C183 1.388 . S
C182 C208 1.490 . S
C183 C178 1.397 . S
C183 C182 1.388 . S
C183 C214 1.519 . S
C184 C178 1.492 . S
C184 C185 1.363 . S
C184 C189 1.390 . S
C185 H150 0.930 . S
C185 C184 1.363 . S
C185 C186 1.372 . S
C186 H151 0.930 . S
C186 C185 1.372 . S
C186 C187 1.383 . S
C187 C186 1.383 . S
C187 C188 1.395 . S
C188 H152 0.930 . S
C188 C187 1.395 . S
C188 C189 1.362 . S
C189 H153 0.930 . S
C189 C184 1.390 . S
C189 C188 1.362 . S
C190 C179 1.492 . S
C190 C191 1.377 . S
C190 C195 1.397 . S
C191 H154 0.931 . S
C191 C190 1.377 . S
C191 C192 1.376 . S
C192 H155 0.930 . S
C192 C191 1.376 . S
C192 C193 1.376 . S
C193 C192 1.376 . S
C193 C194 1.378 . S
C193 C220 1.486 . S
C194 H156 0.930 . S
C194 C193 1.378 . S
C194 C195 1.376 . S
C195 H157 0.929 . S
C195 C190 1.397 . S
C195 C194 1.376 . S
C196 C180 1.509 . S
C196 C197 1.391 . S
C196 C201 1.386 . S
C197 H158 0.930 . S
C197 C196 1.391 . S
C197 C198 1.375 . S
C198 H159 0.931 . S
C198 C197 1.375 . S
C198 C199 1.375 . S
C199 C198 1.375 . S
C199 C200 1.361 . S
C200 H160 0.930 . S
C200 C199 1.361 . S
C200 C201 1.399 . S
C201 H161 0.929 . S
C201 C196 1.386 . S
C201 C200 1.399 . S
C202 C181 1.485 . S
C202 C203 1.394 . S
C202 C207 1.360 . S
C203 H162 0.931 . S
C203 C202 1.394 . S
C203 C204 1.372 . S
C204 H163 0.930 . S
C204 C203 1.372 . S
C204 C205 1.397 . S
C205 C204 1.397 . S
C205 C206 1.390 . S
C205 C221 1.476 . S
C206 H164 0.930 . S
C206 C205 1.390 . S
C206 C207 1.366 . S
C207 H165 0.932 . S
C207 C202 1.360 . S
C207 C206 1.366 . S
C208 C182 1.490 . S
C208 C209 1.380 . S
C208 C213 1.386 . S
C209 H166 0.930 . S
C209 C208 1.380 . S
C209 C210 1.381 . S
C210 H167 0.929 . S
C210 C209 1.381 . S
C210 C211 1.371 . S
C211 C210 1.371 . S
C211 C212 1.380 . S
C212 H168 0.931 . S
C212 C211 1.380 . S
C212 C213 1.387 . S
C213 H169 0.930 . S
C213 C208 1.386 . S
C213 C212 1.387 . S
C214 C183 1.519 . S
C214 C215 1.377 . S
C214 C219 1.361 . S
C215 H170 0.929 . S
C215 C214 1.377 . S
C215 C216 1.386 . S
C216 H171 0.931 . S
C216 C215 1.386 . S
C216 C217 1.363 . S
C217 C216 1.363 . S
C217 C218 1.385 . S
C218 H172 0.930 . S
C218 C217 1.385 . S
C218 C219 1.396 . S
C219 H173 0.929 . S
C219 C214 1.361 . S
C219 C218 1.396 . S
C220 O174 1.300 . S
C220 O175 1.209 . S
C220 C193 1.486 . S
C221 O176 1.199 . S
C221 O177 1.297 . S
C221 C205 1.476 . S
H222 O248 0.856 . S
H223 O251 0.854 . S
H224 C259 0.930 1_455 S
H225 C260 0.930 . S
H226 C262 0.930 . S
H227 C263 0.930 . S
H228 C265 0.931 . S
H229 C266 0.930 . S
H230 C268 0.930 . S
H231 C269 0.929 . S
H232 C271 0.930 . S
H233 C272 0.931 . S
H234 C274 0.930 . S
H235 C275 0.929 . S
H236 C277 0.931 . S
H237 C278 0.930 . S
H238 C280 0.930 . S
H239 C281 0.932 . S
H240 C283 0.930 . S
H241 C284 0.929 . S
H242 C286 0.931 . S
H243 C287 0.930 . S
H244 C289 0.929 . S
H245 C290 0.931 . S
H246 C292 0.930 . S
H247 C293 0.929 . S
O248 H222 0.856 . S
O248 C294 1.300 . S
O249 C294 1.209 . S
O250 C295 1.199 . S
O251 H223 0.854 . S
O251 C295 1.297 . S
C252 C253 1.404 . S
C252 C257 1.397 . S
C252 C258 1.467 1_455 S
C253 C252 1.404 . S
C253 C254 1.396 . S
C253 C264 1.492 . S
C254 C253 1.396 . S
C254 C255 1.397 . S
C254 C270 1.509 . S
C255 C254 1.397 . S
C255 C256 1.412 . S
C255 C276 1.485 . S
C256 C255 1.412 . S
C256 C257 1.388 . S
C256 C282 1.490 . S
C257 C252 1.397 . S
C257 C256 1.388 . S
C257 C288 1.519 1_455 S
C258 C252 1.467 1_655 S
C258 C259 1.385 . S
C258 C263 1.396 . S
C259 H224 0.930 1_655 S
C259 C258 1.385 . S
C259 C260 1.372 . S
C260 H225 0.930 . S
C260 C259 1.372 . S
C260 C261 1.383 . S
C261 C260 1.383 . S
C261 C262 1.395 . S
C262 H226 0.930 . S
C262 C261 1.395 . S
C262 C263 1.362 . S
C263 H227 0.930 . S
C263 C258 1.396 . S
C263 C262 1.362 . S
C264 C253 1.492 . S
C264 C265 1.377 . S
C264 C269 1.397 . S
C265 H228 0.931 . S
C265 C264 1.377 . S
C265 C266 1.376 . S
C266 H229 0.930 . S
C266 C265 1.376 . S
C266 C267 1.376 . S
C267 C266 1.376 . S
C267 C268 1.378 . S
C267 C294 1.486 . S
C268 H230 0.930 . S
C268 C267 1.378 . S
C268 C269 1.376 . S
C269 H231 0.929 . S
C269 C264 1.397 . S
C269 C268 1.376 . S
C270 C254 1.509 . S
C270 C271 1.391 . S
C270 C275 1.386 . S
C271 H232 0.930 . S
C271 C270 1.391 . S
C271 C272 1.375 . S
C272 H233 0.931 . S
C272 C271 1.375 . S
C272 C273 1.375 . S
C273 C272 1.375 . S
C273 C274 1.361 . S
C274 H234 0.930 . S
C274 C273 1.361 . S
C274 C275 1.399 . S
C275 H235 0.929 . S
C275 C270 1.386 . S
C275 C274 1.399 . S
C276 C255 1.485 . S
C276 C277 1.394 . S
C276 C281 1.360 . S
C277 H236 0.931 . S
C277 C276 1.394 . S
C277 C278 1.372 . S
C278 H237 0.930 . S
C278 C277 1.372 . S
C278 C279 1.397 . S
C279 C278 1.397 . S
C279 C280 1.390 . S
C279 C295 1.476 . S
C280 H238 0.930 . S
C280 C279 1.390 . S
C280 C281 1.366 . S
C281 H239 0.932 . S
C281 C276 1.360 . S
C281 C280 1.366 . S
C282 C256 1.490 . S
C282 C283 1.380 . S
C282 C287 1.386 . S
C283 H240 0.930 . S
C283 C282 1.380 . S
C283 C284 1.381 . S
C284 H241 0.929 . S
C284 C283 1.381 . S
C284 C285 1.371 . S
C285 C284 1.371 . S
C285 C286 1.380 . S
C286 H242 0.931 . S
C286 C285 1.380 . S
C286 C287 1.387 . S
C287 H243 0.930 . S
C287 C282 1.386 . S
C287 C286 1.387 . S
C288 C257 1.519 1_655 S
C288 C289 1.377 . S
C288 C293 1.361 . S
C289 H244 0.929 . S
C289 C288 1.377 . S
C289 C290 1.386 . S
C290 H245 0.931 . S
C290 C289 1.386 . S
C290 C291 1.363 . S
C291 C290 1.363 . S
C291 C292 1.385 . S
C292 H246 0.930 . S
C292 C291 1.385 . S
C292 C293 1.396 . S
C293 H247 0.929 . S
C293 C288 1.361 . S
C293 C292 1.396 . S
C294 O248 1.300 . S
C294 O249 1.209 . S
C294 C267 1.486 . S
C295 O250 1.199 . S
C295 O251 1.297 . S
C295 C279 1.476 . S
H296 O322 0.856 . S
H297 O325 0.854 . S
H298 C333 0.930 . S
H299 C334 0.930 . S
H300 C336 0.930 . S
H301 C337 0.930 . S
H302 C339 0.931 . S
H303 C340 0.930 . S
H304 C342 0.930 . S
H305 C343 0.929 . S
H306 C345 0.930 . S
H307 C346 0.931 . S
H308 C348 0.930 . S
H309 C349 0.929 . S
H310 C351 0.931 . S
H311 C352 0.930 . S
H312 C354 0.930 . S
H313 C355 0.932 . S
H314 C357 0.930 . S
H315 C358 0.929 1_545 S
H316 C360 0.931 . S
H317 C361 0.930 . S
H318 C363 0.929 1_556 S
H319 C364 0.931 . S
H320 C366 0.930 . S
H321 C367 0.929 . S
O322 H296 0.856 . S
O322 C368 1.300 . S
O323 C368 1.209 . S
O324 C369 1.199 . S
O325 H297 0.854 . S
O325 C369 1.297 . S
C326 C327 1.402 1_545 S
C326 C331 1.397 . S
C326 C332 1.493 . S
C327 C326 1.402 1_565 S
C327 C328 1.396 . S
C327 C338 1.492 . S
C328 C327 1.396 . S
C328 C329 1.397 . S
C328 C344 1.509 . S
C329 C328 1.397 . S
C329 C330 1.412 1_556 S
C329 C350 1.485 1_556 S
C330 C329 1.412 1_554 S
C330 C331 1.388 1_564 S
C330 C356 1.490 . S
C331 C326 1.397 . S
C331 C330 1.388 1_546 S
C331 C362 1.519 1_556 S
C332 C326 1.493 . S
C332 C333 1.363 . S
C332 C337 1.390 . S
C333 H298 0.930 . S
C333 C332 1.363 . S
C333 C334 1.372 . S
C334 H299 0.930 . S
C334 C333 1.372 . S
C334 C335 1.383 . S
C335 C334 1.383 . S
C335 C336 1.395 . S
C336 H300 0.930 . S
C336 C335 1.395 . S
C336 C337 1.362 . S
C337 H301 0.930 . S
C337 C332 1.390 . S
C337 C336 1.362 . S
C338 C327 1.492 . S
C338 C339 1.377 . S
C338 C343 1.397 . S
C339 H302 0.931 . S
C339 C338 1.377 . S
C339 C340 1.376 . S
C340 H303 0.930 . S
C340 C339 1.376 . S
C340 C341 1.376 . S
C341 C340 1.376 . S
C341 C342 1.378 . S
C341 C368 1.486 . S
C342 H304 0.930 . S
C342 C341 1.378 . S
C342 C343 1.376 . S
C343 H305 0.929 . S
C343 C338 1.397 . S
C343 C342 1.376 . S
C344 C328 1.509 . S
C344 C345 1.391 . S
C344 C349 1.386 . S
C345 H306 0.930 . S
C345 C344 1.391 . S
C345 C346 1.375 . S
C346 H307 0.931 . S
C346 C345 1.375 . S
C346 C347 1.375 . S
C347 C346 1.375 . S
C347 C348 1.361 . S
C348 H308 0.930 . S
C348 C347 1.361 . S
C348 C349 1.399 . S
C349 H309 0.929 . S
C349 C344 1.386 . S
C349 C348 1.399 . S
C350 C329 1.485 1_554 S
C350 C351 1.394 . S
C350 C355 1.360 . S
C351 H310 0.931 . S
C351 C350 1.394 . S
C351 C352 1.372 . S
C352 H311 0.930 . S
C352 C351 1.372 . S
C352 C353 1.397 . S
C353 C352 1.397 . S
C353 C354 1.390 . S
C353 C369 1.476 . S
C354 H312 0.930 . S
C354 C353 1.390 . S
C354 C355 1.366 . S
C355 H313 0.932 . S
C355 C350 1.360 . S
C355 C354 1.366 . S
C356 C330 1.490 . S
C356 C357 1.380 . S
C356 C361 1.386 . S
C357 H314 0.930 . S
C357 C356 1.380 . S
C357 C358 1.381 . S
C358 H315 0.929 1_565 S
C358 C357 1.381 . S
C358 C359 1.371 . S
C359 C358 1.371 . S
C359 C360 1.380 . S
C360 H316 0.931 . S
C360 C359 1.380 . S
C360 C361 1.387 . S
C361 H317 0.930 . S
C361 C356 1.386 . S
C361 C360 1.387 . S
C362 C331 1.519 1_554 S
C362 C363 1.377 . S
C362 C367 1.361 . S
C363 H318 0.929 1_554 S
C363 C362 1.377 . S
C363 C364 1.386 . S
C364 H319 0.931 . S
C364 C363 1.386 . S
C364 C365 1.363 . S
C365 C364 1.363 . S
C365 C366 1.385 . S
C366 H320 0.930 . S
C366 C365 1.385 . S
C366 C367 1.396 . S
C367 H321 0.929 . S
C367 C362 1.361 . S
C367 C366 1.396 . S
C368 O322 1.300 . S
C368 O323 1.209 . S
C368 C341 1.486 . S
C369 O324 1.199 . S
C369 O325 1.297 . S
C369 C353 1.476 . S
H370 O396 0.856 1_556 S
H371 O399 0.854 . S
H372 C407 0.930 . S
H373 C408 0.930 . S
H374 C410 0.930 . S
H375 C411 0.930 . S
H376 C413 0.931 . S
H377 C414 0.930 . S
H378 C416 0.930 . S
H379 C417 0.929 . S
H380 C419 0.930 . S
H381 C420 0.931 . S
H382 C422 0.930 . S
H383 C423 0.929 . S
H384 C425 0.931 . S
H385 C426 0.930 . S
H386 C428 0.930 . S
H387 C429 0.932 . S
H388 C431 0.930 . S
H389 C432 0.929 . S
H390 C434 0.931 . S
H391 C435 0.930 . S
H392 C437 0.929 . S
H393 C438 0.931 . S
H394 C440 0.930 . S
H395 C441 0.929 . S
O396 H370 0.856 1_554 S
O396 C442 1.300 . S
O397 C442 1.209 . S
O398 C443 1.199 . S
O399 H371 0.854 . S
O399 C443 1.297 . S
C400 C401 1.404 . S
C400 C405 1.397 . S
C400 C406 1.492 . S
C401 C400 1.404 . S
C401 C402 1.396 . S
C401 C412 1.492 . S
C402 C401 1.396 . S
C402 C403 1.397 . S
C402 C418 1.509 . S
C403 C402 1.397 . S
C403 C404 1.412 . S
C403 C424 1.485 . S
C404 C403 1.412 . S
C404 C405 1.388 . S
C404 C430 1.490 . S
C405 C400 1.397 . S
C405 C404 1.388 . S
C405 C436 1.519 . S
C406 C400 1.492 . S
C406 C407 1.363 . S
C406 C411 1.390 . S
C407 H372 0.930 . S
C407 C406 1.363 . S
C407 C408 1.372 . S
C408 H373 0.930 . S
C408 C407 1.372 . S
C408 C409 1.383 . S
C409 C408 1.383 . S
C409 C410 1.395 . S
C410 H374 0.930 . S
C410 C409 1.395 . S
C410 C411 1.362 . S
C411 H375 0.930 . S
C411 C406 1.390 . S
C411 C410 1.362 . S
C412 C401 1.492 . S
C412 C413 1.377 . S
C412 C417 1.397 . S
C413 H376 0.931 . S
C413 C412 1.377 . S
C413 C414 1.376 . S
C414 H377 0.930 . S
C414 C413 1.376 . S
C414 C415 1.376 . S
C415 C414 1.376 . S
C415 C416 1.378 . S
C415 C442 1.486 . S
C416 H378 0.930 . S
C416 C415 1.378 . S
C416 C417 1.376 . S
C417 H379 0.929 . S
C417 C412 1.397 . S
C417 C416 1.376 . S
C418 C402 1.509 . S
C418 C419 1.391 . S
C418 C423 1.386 . S
C419 H380 0.930 . S
C419 C418 1.391 . S
C419 C420 1.375 . S
C420 H381 0.931 . S
C420 C419 1.375 . S
C420 C421 1.375 . S
C421 C420 1.375 . S
C421 C422 1.361 . S
C422 H382 0.930 . S
C422 C421 1.361 . S
C422 C423 1.399 . S
C423 H383 0.929 . S
C423 C418 1.386 . S
C423 C422 1.399 . S
C424 C403 1.485 . S
C424 C425 1.394 . S
C424 C429 1.360 . S
C425 H384 0.931 . S
C425 C424 1.394 . S
C425 C426 1.372 . S
C426 H385 0.930 . S
C426 C425 1.372 . S
C426 C427 1.397 . S
C427 C426 1.397 . S
C427 C428 1.390 . S
C427 C443 1.476 . S
C428 H386 0.930 . S
C428 C427 1.390 . S
C428 C429 1.366 . S
C429 H387 0.932 . S
C429 C424 1.360 . S
C429 C428 1.366 . S
C430 C404 1.490 . S
C430 C431 1.380 . S
C430 C435 1.386 . S
C431 H388 0.930 . S
C431 C430 1.380 . S
C431 C432 1.381 . S
C432 H389 0.929 . S
C432 C431 1.381 . S
C432 C433 1.371 . S
C433 C432 1.371 . S
C433 C434 1.380 . S
C434 H390 0.931 . S
C434 C433 1.380 . S
C434 C435 1.387 . S
C435 H391 0.930 . S
C435 C430 1.386 . S
C435 C434 1.387 . S
C436 C405 1.519 . S
C436 C437 1.377 . S
C436 C441 1.361 . S
C437 H392 0.929 . S
C437 C436 1.377 . S
C437 C438 1.386 . S
C438 H393 0.931 . S
C438 C437 1.386 . S
C438 C439 1.363 . S
C439 C438 1.363 . S
C439 C440 1.385 . S
C440 H394 0.930 . S
C440 C439 1.385 . S
C440 C441 1.396 . S
C441 H395 0.929 . S
C441 C436 1.361 . S
C441 C440 1.396 . S
C442 O396 1.300 . S
C442 O397 1.209 . S
C442 C415 1.486 . S
C443 O398 1.199 . S
C443 O399 1.297 . S
C443 C427 1.476 . S
Mg444 O445 2.028 . S
Mg444 O451 1.986 . S
Mg444 O453 2.114 . S
Mg444 O454 2.251 . S
Mg444 O457 2.010 . S
O445 Mg444 2.028 . S
O445 C448 1.250 . S
O446 Mg447 2.028 . S
O446 C448 1.248 . S
Mg447 O446 2.028 . S
Mg447 O452 2.032 . S
Mg447 O454 2.079 . S
C448 O445 1.250 . S
C448 O446 1.248 . S
C449 O450 1.264 . S
C449 O457 1.249 . S
O450 C449 1.264 . S
O451 Mg444 1.986 . S
O451 C455 1.246 . S
O452 Mg447 2.032 . S
O452 C455 1.259 . S
O453 Mg444 2.114 . S
O453 C456 1.252 . S
O454 Mg444 2.251 . S
O454 Mg447 2.079 . S
O454 C456 1.273 . S
C455 O451 1.246 . S
C455 O452 1.259 . S
C456 O453 1.252 . S
C456 O454 1.273 . S
O457 Mg444 2.010 . S
O457 C449 1.249 . S
Mg458 O459 2.028 . S
Mg458 O465 1.986 . S
Mg458 O467 2.114 . S
Mg458 O468 2.251 . S
Mg458 O471 2.010 . S
O459 Mg458 2.028 . S
O459 C462 1.250 . S
O460 Mg461 2.028 . S
O460 C462 1.248 . S
Mg461 O460 2.028 . S
Mg461 O466 2.032 . S
Mg461 O468 2.079 . S
C462 O459 1.250 . S
C462 O460 1.248 . S
C463 O464 1.264 . S
C463 O471 1.249 . S
O464 C463 1.264 . S
O465 Mg458 1.986 . S
O465 C469 1.246 . S
O466 Mg461 2.032 . S
O466 C469 1.259 . S
O467 Mg458 2.114 . S
O467 C470 1.252 . S
O468 Mg458 2.251 . S
O468 Mg461 2.079 . S
O468 C470 1.273 . S
C469 O465 1.246 . S
C469 O466 1.259 . S
C470 O467 1.252 . S
C470 O468 1.273 . S
O471 Mg458 2.010 . S
O471 C463 1.249 . S
Mg472 O473 2.028 . S
Mg472 O479 1.986 . S
Mg472 O481 2.114 . S
Mg472 O482 2.251 . S
Mg472 O485 2.010 . S
O473 Mg472 2.028 . S
O473 C476 1.250 . S
O474 Mg475 2.028 . S
O474 C476 1.248 . S
Mg475 O474 2.028 . S
Mg475 O480 2.032 . S
Mg475 O482 2.079 . S
C476 O473 1.250 . S
C476 O474 1.248 . S
C477 O478 1.264 . S
C477 O485 1.249 . S
O478 C477 1.264 . S
O479 Mg472 1.986 . S
O479 C483 1.246 . S
O480 Mg475 2.032 . S
O480 C483 1.259 . S
O481 Mg472 2.114 . S
O481 C484 1.252 . S
O482 Mg472 2.251 . S
O482 Mg475 2.079 . S
O482 C484 1.273 . S
C483 O479 1.246 . S
C483 O480 1.259 . S
C484 O481 1.252 . S
C484 O482 1.273 . S
O485 Mg472 2.010 . S
O485 C477 1.249 . S
Mg486 O487 2.028 . S
Mg486 O493 1.986 . S
Mg486 O495 2.114 . S
Mg486 O496 2.251 . S
Mg486 O499 2.010 . S
O487 Mg486 2.028 . S
O487 C490 1.250 . S
O488 Mg489 2.028 . S
O488 C490 1.248 . S
Mg489 O488 2.028 . S
Mg489 O494 2.032 . S
Mg489 O496 2.079 . S
C490 O487 1.250 . S
C490 O488 1.248 . S
C491 O492 1.264 . S
C491 O499 1.249 . S
O492 C491 1.264 . S
O493 Mg486 1.986 . S
O493 C497 1.246 . S
O494 Mg489 2.032 . S
O494 C497 1.259 . S
O495 Mg486 2.114 . S
O495 C498 1.252 . S
O496 Mg486 2.251 . S
O496 Mg489 2.079 . S
O496 C498 1.273 . S
C497 O493 1.246 . S
C497 O494 1.259 . S
C498 O495 1.252 . S
C498 O496 1.273 . S
O499 Mg486 2.010 . S
O499 C491 1.249 . S
Mg500 O501 2.028 . S
Mg500 O507 1.986 . S
Mg500 O509 2.114 . S
Mg500 O510 2.251 . S
Mg500 O513 2.010 . S
O501 Mg500 2.028 . S
O501 C504 1.250 . S
O502 Mg503 2.028 . S
O502 C504 1.248 . S
Mg503 O502 2.028 . S
Mg503 O508 2.032 . S
Mg503 O510 2.079 . S
C504 O501 1.250 . S
C504 O502 1.248 . S
C505 O506 1.264 . S
C505 O513 1.249 . S
O506 C505 1.264 . S
O507 Mg500 1.986 . S
O507 C511 1.246 . S
O508 Mg503 2.032 . S
O508 C511 1.259 . S
O509 Mg500 2.114 . S
O509 C512 1.252 . S
O510 Mg500 2.251 . S
O510 Mg503 2.079 . S
O510 C512 1.273 . S
C511 O507 1.246 . S
C511 O508 1.259 . S
C512 O509 1.252 . S
C512 O510 1.273 . S
O513 Mg500 2.010 . S
O513 C505 1.249 . S
Mg514 O515 2.028 . S
Mg514 O521 1.986 . S
Mg514 O523 2.114 . S
Mg514 O524 2.251 . S
Mg514 O527 2.010 . S
O515 Mg514 2.028 . S
O515 C518 1.250 . S
O516 Mg517 2.028 . S
O516 C518 1.248 . S
Mg517 O516 2.028 . S
Mg517 O522 2.032 . S
Mg517 O524 2.079 . S
C518 O515 1.250 . S
C518 O516 1.248 . S
C519 O520 1.264 . S
C519 O527 1.249 . S
O520 C519 1.264 . S
O521 Mg514 1.986 . S
O521 C525 1.246 . S
O522 Mg517 2.032 . S
O522 C525 1.259 . S
O523 Mg514 2.114 . S
O523 C526 1.252 . S
O524 Mg514 2.251 . S
O524 Mg517 2.079 . S
O524 C526 1.273 . S
C525 O521 1.246 . S
C525 O522 1.259 . S
C526 O523 1.252 . S
C526 O524 1.273 . S
O527 Mg514 2.010 . S
O527 C519 1.249 . S
H528 C534 0.930 . S
H529 C538 0.930 . S
H530 C543 0.929 . S
H531 C541 0.929 . S
H532 C536 0.929 . S
H533 C542 0.929 . S
C534 H528 0.930 . S
C534 C535 1.367 . S
C534 C542 1.378 . S
C535 C534 1.367 . S
C535 C543 1.433 . S
C536 H532 0.929 . S
C536 C538 1.378 . S
C536 C540 1.350 . S
C537 C540 1.463 . S
C537 C542 1.350 . S
C537 N545 1.427 . S
C538 H529 0.930 . S
C538 C536 1.378 . S
C538 C539 1.367 . S
C539 C538 1.367 . S
C539 C541 1.433 . S
C540 C536 1.350 . S
C540 C537 1.463 . S
C540 N544 1.427 . S
C541 H531 0.929 . S
C541 C539 1.433 . S
C541 N544 1.384 . S
C542 H533 0.929 . S
C542 C534 1.378 . S
C542 C537 1.350 . S
C543 H530 0.929 . S
C543 C535 1.433 . S
C543 N545 1.384 . S
N544 C540 1.427 . S
N544 C541 1.384 . S
N545 C537 1.427 . S
N545 C543 1.384 . S
H546 C552 0.930 . S
H547 C556 0.930 . S
H548 C561 0.929 . S
H549 C559 0.929 . S
H550 C554 0.929 . S
H551 C560 0.929 . S
C552 H546 0.930 . S
C552 C553 1.367 . S
C552 C560 1.378 . S
C553 C552 1.367 . S
C553 C561 1.433 . S
C554 H550 0.929 . S
C554 C556 1.378 . S
C554 C558 1.350 . S
C555 C558 1.463 . S
C555 C560 1.350 . S
C555 N563 1.427 . S
C556 H547 0.930 . S
C556 C554 1.378 . S
C556 C557 1.367 . S
C557 C556 1.367 . S
C557 C559 1.433 . S
C558 C554 1.350 . S
C558 C555 1.463 . S
C558 N562 1.427 . S
C559 H549 0.929 . S
C559 C557 1.433 . S
C559 N562 1.384 . S
C560 H551 0.929 . S
C560 C552 1.378 . S
C560 C555 1.350 . S
C561 H548 0.929 . S
C561 C553 1.433 . S
C561 N563 1.384 . S
N562 C558 1.427 . S
N562 C559 1.384 . S
N563 C555 1.427 . S
N563 C561 1.384 . S
H564 C570 0.930 . S
H565 C574 0.930 . S
H566 C579 0.929 . S
H567 C577 0.929 . S
H568 C572 0.929 . S
H569 C578 0.929 . S
C570 H564 0.930 . S
C570 C571 1.367 . S
C570 C578 1.378 . S
C571 C570 1.367 . S
C571 C579 1.433 . S
C572 H568 0.929 . S
C572 C574 1.378 . S
C572 C576 1.350 . S
C573 C576 1.463 . S
C573 C578 1.350 . S
C573 N581 1.427 . S
C574 H565 0.930 . S
C574 C572 1.378 . S
C574 C575 1.367 . S
C575 C574 1.367 . S
C575 C577 1.433 . S
C576 C572 1.350 . S
C576 C573 1.463 . S
C576 N580 1.427 . S
C577 H567 0.929 . S
C577 C575 1.433 . S
C577 N580 1.384 . S
C578 H569 0.929 . S
C578 C570 1.378 . S
C578 C573 1.350 . S
C579 H566 0.929 . S
C579 C571 1.433 . S
C579 N581 1.384 . S
N580 C576 1.427 . S
N580 C577 1.384 . S
N581 C573 1.427 . S
N581 C579 1.384 . S
H582 C588 0.930 . S
H583 C592 0.930 . S
H584 C597 0.929 . S
H585 C595 0.929 . S
H586 C590 0.929 . S
H587 C596 0.929 . S
C588 H582 0.930 . S
C588 C589 1.367 . S
C588 C596 1.378 . S
C589 C588 1.367 . S
C589 C597 1.433 . S
C590 H586 0.929 . S
C590 C592 1.378 . S
C590 C594 1.350 . S
C591 C594 1.463 . S
C591 C596 1.350 . S
C591 N599 1.427 . S
C592 H583 0.930 . S
C592 C590 1.378 . S
C592 C593 1.367 . S
C593 C592 1.367 . S
C593 C595 1.433 . S
C594 C590 1.350 . S
C594 C591 1.463 . S
C594 N598 1.427 . S
C595 H585 0.929 . S
C595 C593 1.433 . S
C595 N598 1.384 . S
C596 H587 0.929 . S
C596 C588 1.378 . S
C596 C591 1.350 . S
C597 H584 0.929 . S
C597 C589 1.433 . S
C597 N599 1.384 . S
N598 C594 1.427 . S
N598 C595 1.384 . S
N599 C591 1.427 . S
N599 C597 1.384 . S
H600 C606 0.930 . S
H601 C610 0.930 . S
H602 C615 0.929 . S
H603 C613 0.929 . S
H604 C608 0.929 . S
H605 C614 0.929 . S
C606 H600 0.930 . S
C606 C607 1.367 . S
C606 C614 1.378 . S
C607 C606 1.367 . S
C607 C615 1.433 . S
C608 H604 0.929 . S
C608 C610 1.378 . S
C608 C612 1.350 . S
C609 C612 1.463 . S
C609 C614 1.350 . S
C609 N617 1.427 . S
C610 H601 0.930 . S
C610 C608 1.378 . S
C610 C611 1.367 . S
C611 C610 1.367 . S
C611 C613 1.433 . S
C612 C608 1.350 . S
C612 C609 1.463 . S
C612 N616 1.427 . S
C613 H603 0.929 . S
C613 C611 1.433 . S
C613 N616 1.384 . S
C614 H605 0.929 . S
C614 C606 1.378 . S
C614 C609 1.350 . S
C615 H602 0.929 . S
C615 C607 1.433 . S
C615 N617 1.384 . S
N616 C612 1.427 . S
N616 C613 1.384 . S
N617 C609 1.427 . S
N617 C615 1.384 . S
H618 C624 0.930 . S
H619 C628 0.930 . S
H620 C633 0.929 . S
H621 C631 0.929 . S
H622 C626 0.929 . S
H623 C632 0.929 . S
C624 H618 0.930 . S
C624 C625 1.367 . S
C624 C632 1.378 . S
C625 C624 1.367 . S
C625 C633 1.433 . S
C626 H622 0.929 . S
C626 C628 1.378 . S
C626 C630 1.350 . S
C627 C630 1.463 . S
C627 C632 1.350 . S
C627 N635 1.427 . S
C628 H619 0.930 . S
C628 C626 1.378 . S
C628 C629 1.367 . S
C629 C628 1.367 . S
C629 C631 1.433 . S
C630 C626 1.350 . S
C630 C627 1.463 . S
C630 N634 1.427 . S
C631 H621 0.929 . S
C631 C629 1.433 . S
C631 N634 1.384 . S
C632 H623 0.929 . S
C632 C624 1.378 . S
C632 C627 1.350 . S
C633 H620 0.929 . S
C633 C625 1.433 . S
C633 N635 1.384 . S
N634 C630 1.427 . S
N634 C631 1.384 . S
N635 C627 1.427 . S
N635 C633 1.384 . S
H636 C642 0.930 . S
H637 C646 0.930 . S
H638 C651 0.929 . S
H639 C649 0.929 . S
H640 C644 0.929 . S
H641 C650 0.929 . S
C642 H636 0.930 . S
C642 C643 1.367 . S
C642 C650 1.378 . S
C643 C642 1.367 . S
C643 C651 1.433 . S
C644 H640 0.929 . S
C644 C646 1.378 . S
C644 C648 1.350 . S
C645 C648 1.463 . S
C645 C650 1.350 . S
C645 N653 1.427 . S
C646 H637 0.930 . S
C646 C644 1.378 . S
C646 C647 1.367 . S
C647 C646 1.367 . S
C647 C649 1.433 . S
C648 C644 1.350 . S
C648 C645 1.463 . S
C648 N652 1.427 . S
C649 H639 0.929 . S
C649 C647 1.433 . S
C649 N652 1.384 . S
C650 H641 0.929 . S
C650 C642 1.378 . S
C650 C645 1.350 . S
C651 H638 0.929 . S
C651 C643 1.433 . S
C651 N653 1.384 . S
N652 C648 1.427 . S
N652 C649 1.384 . S
N653 C645 1.427 . S
N653 C651 1.384 . S
H654 C660 0.930 . S
H655 C664 0.930 . S
H656 C669 0.929 . S
H657 C667 0.929 . S
H658 C662 0.929 . S
H659 C668 0.929 . S
C660 H654 0.930 . S
C660 C661 1.367 . S
C660 C668 1.378 . S
C661 C660 1.367 . S
C661 C669 1.433 . S
C662 H658 0.929 . S
C662 C664 1.378 . S
C662 C666 1.350 . S
C663 C666 1.463 . S
C663 C668 1.350 . S
C663 N671 1.427 . S
C664 H655 0.930 . S
C664 C662 1.378 . S
C664 C665 1.367 . S
C665 C664 1.367 . S
C665 C667 1.433 . S
C666 C662 1.350 . S
C666 C663 1.463 . S
C666 N670 1.427 . S
C667 H657 0.929 . S
C667 C665 1.433 . S
C667 N670 1.384 . S
C668 H659 0.929 . S
C668 C660 1.378 . S
C668 C663 1.350 . S
C669 H656 0.929 . S
C669 C661 1.433 . S
C669 N671 1.384 . S
N670 C666 1.427 . S
N670 C667 1.384 . S
N671 C663 1.427 . S
N671 C669 1.384 . S
H672 C678 0.930 . S
H673 C682 0.930 . S
H674 C687 0.929 . S
H675 C685 0.929 . S
H676 C680 0.929 . S
H677 C686 0.929 . S
C678 H672 0.930 . S
C678 C679 1.367 . S
C678 C686 1.378 . S
C679 C678 1.367 . S
C679 C687 1.433 . S
C680 H676 0.929 . S
C680 C682 1.378 . S
C680 C684 1.350 . S
C681 C684 1.463 . S
C681 C686 1.350 . S
C681 N689 1.427 . S
C682 H673 0.930 . S
C682 C680 1.378 . S
C682 C683 1.367 . S
C683 C682 1.367 . S
C683 C685 1.433 . S
C684 C680 1.350 . S
C684 C681 1.463 . S
C684 N688 1.427 . S
C685 H675 0.929 . S
C685 C683 1.433 . S
C685 N688 1.384 . S
C686 H677 0.929 . S
C686 C678 1.378 . S
C686 C681 1.350 . S
C687 H674 0.929 . S
C687 C679 1.433 . S
C687 N689 1.384 . S
N688 C684 1.427 . S
N688 C685 1.384 . S
N689 C681 1.427 . S
N689 C687 1.384 . S
H690 C696 0.930 . S
H691 C700 0.930 . S
H692 C705 0.929 1_556 S
H693 C703 0.929 . S
H694 C698 0.929 . S
H695 C704 0.929 . S
C696 H690 0.930 . S
C696 C697 1.367 . S
C696 C704 1.378 . S
C697 C696 1.367 . S
C697 C705 1.433 . S
C698 H694 0.929 . S
C698 C700 1.378 . S
C698 C702 1.350 . S
C699 C702 1.463 . S
C699 C704 1.350 . S
C699 N707 1.427 . S
C700 H691 0.930 . S
C700 C698 1.378 . S
C700 C701 1.367 . S
C701 C700 1.367 . S
C701 C703 1.433 . S
C702 C698 1.350 . S
C702 C699 1.463 . S
C702 N706 1.427 . S
C703 H693 0.929 . S
C703 C701 1.433 . S
C703 N706 1.384 . S
C704 H695 0.929 . S
C704 C696 1.378 . S
C704 C699 1.350 . S
C705 H692 0.929 1_554 S
C705 C697 1.433 . S
C705 N707 1.384 . S
N706 C702 1.427 . S
N706 C703 1.384 . S
N707 C699 1.427 . S
N707 C705 1.384 . S
H708 C714 0.930 . S
H709 C718 0.930 . S
H710 C723 0.929 . S
H711 C721 0.929 . S
H712 C716 0.929 . S
H713 C722 0.929 . S
C714 H708 0.930 . S
C714 C715 1.367 . S
C714 C722 1.378 . S
C715 C714 1.367 . S
C715 C723 1.433 . S
C716 H712 0.929 . S
C716 C718 1.378 . S
C716 C720 1.350 . S
C717 C720 1.463 . S
C717 C722 1.350 . S
C717 N725 1.427 . S
C718 H709 0.930 . S
C718 C716 1.378 . S
C718 C719 1.367 . S
C719 C718 1.367 . S
C719 C721 1.433 . S
C720 C716 1.350 . S
C720 C717 1.463 . S
C720 N724 1.427 . S
C721 H711 0.929 . S
C721 C719 1.433 . S
C721 N724 1.384 . S
C722 H713 0.929 . S
C722 C714 1.378 . S
C722 C717 1.350 . S
C723 H710 0.929 . S
C723 C715 1.433 . S
C723 N725 1.384 . S
N724 C720 1.427 . S
N724 C721 1.384 . S
N725 C717 1.427 . S
N725 C723 1.384 . S
H726 C732 0.930 . S
H727 C736 0.930 . S
H728 C741 0.929 . S
H729 C739 0.929 . S
H730 C734 0.929 . S
H731 C740 0.929 . S
C732 H726 0.930 . S
C732 C733 1.367 . S
C732 C740 1.378 . S
C733 C732 1.367 . S
C733 C741 1.433 . S
C734 H730 0.929 . S
C734 C736 1.378 . S
C734 C738 1.350 . S
C735 C738 1.463 . S
C735 C740 1.350 . S
C735 N743 1.427 . S
C736 H727 0.930 . S
C736 C734 1.378 . S
C736 C737 1.367 . S
C737 C736 1.367 . S
C737 C739 1.433 . S
C738 C734 1.350 . S
C738 C735 1.463 . S
C738 N742 1.427 . S
C739 H729 0.929 . S
C739 C737 1.433 . S
C739 N742 1.384 . S
C740 H731 0.929 . S
C740 C732 1.378 . S
C740 C735 1.350 . S
C741 H728 0.929 . S
C741 C733 1.433 . S
C741 N743 1.384 . S
N742 C738 1.427 . S
N742 C739 1.384 . S
N743 C735 1.427 . S
N743 C741 1.384 . S
H744 C750 0.930 . S
H745 C754 0.930 . S
H746 C759 0.929 . S
H747 C757 0.929 . S
H748 C752 0.929 . S
H749 C758 0.929 . S
C750 H744 0.930 . S
C750 C751 1.367 . S
C750 C758 1.378 . S
C751 C750 1.367 . S
C751 C759 1.433 . S
C752 H748 0.929 . S
C752 C754 1.378 . S
C752 C756 1.350 . S
C753 C756 1.463 . S
C753 C758 1.350 . S
C753 N761 1.427 . S
C754 H745 0.930 . S
C754 C752 1.378 . S
C754 C755 1.367 . S
C755 C754 1.367 . S
C755 C757 1.433 . S
C756 C752 1.350 . S
C756 C753 1.463 . S
C756 N760 1.427 . S
C757 H747 0.929 . S
C757 C755 1.433 . S
C757 N760 1.384 . S
C758 H749 0.929 . S
C758 C750 1.378 . S
C758 C753 1.350 . S
C759 H746 0.929 . S
C759 C751 1.433 . S
C759 N761 1.384 . S
N760 C756 1.427 . S
N760 C757 1.384 . S
N761 C753 1.427 . S
N761 C759 1.384 . S
H762 C768 0.930 . S
H763 C772 0.930 . S
H764 C777 0.929 . S
H765 C775 0.929 . S
H766 C770 0.929 . S
H767 C776 0.929 . S
C768 H762 0.930 . S
C768 C769 1.367 . S
C768 C776 1.378 . S
C769 C768 1.367 . S
C769 C777 1.433 . S
C770 H766 0.929 . S
C770 C772 1.378 . S
C770 C774 1.350 . S
C771 C774 1.463 . S
C771 C776 1.350 . S
C771 N779 1.427 . S
C772 H763 0.930 . S
C772 C770 1.378 . S
C772 C773 1.367 . S
C773 C772 1.367 . S
C773 C775 1.433 . S
C774 C770 1.350 . S
C774 C771 1.463 . S
C774 N778 1.427 . S
C775 H765 0.929 . S
C775 C773 1.433 . S
C775 N778 1.384 . S
C776 H767 0.929 . S
C776 C768 1.378 . S
C776 C771 1.350 . S
C777 H764 0.929 . S
C777 C769 1.433 . S
C777 N779 1.384 . S
N778 C774 1.427 . S
N778 C775 1.384 . S
N779 C771 1.427 . S
N779 C777 1.384 . S
H780 C786 0.930 . S
H781 C790 0.930 . S
H782 C795 0.929 . S
H783 C793 0.929 . S
H784 C788 0.929 . S
H785 C794 0.929 . S
C786 H780 0.930 . S
C786 C787 1.367 . S
C786 C794 1.378 . S
C787 C786 1.367 . S
C787 C795 1.433 . S
C788 H784 0.929 . S
C788 C790 1.378 . S
C788 C792 1.350 . S
C789 C792 1.463 . S
C789 C794 1.350 . S
C789 N797 1.427 . S
C790 H781 0.930 . S
C790 C788 1.378 . S
C790 C791 1.367 . S
C791 C790 1.367 . S
C791 C793 1.433 . S
C792 C788 1.350 . S
C792 C789 1.463 . S
C792 N796 1.427 . S
C793 H783 0.929 . S
C793 C791 1.433 . S
C793 N796 1.384 . S
C794 H785 0.929 . S
C794 C786 1.378 . S
C794 C789 1.350 . S
C795 H782 0.929 . S
C795 C787 1.433 . S
C795 N797 1.384 . S
N796 C792 1.427 . S
N796 C793 1.384 . S
N797 C789 1.427 . S
N797 C795 1.384 . S
H798 C804 0.930 . S
H799 C808 0.930 . S
H800 C813 0.929 . S
H801 C811 0.929 . S
H802 C806 0.929 . S
H803 C812 0.929 . S
C804 H798 0.930 . S
C804 C805 1.367 . S
C804 C812 1.378 . S
C805 C804 1.367 . S
C805 C813 1.433 . S
C806 H802 0.929 . S
C806 C808 1.378 . S
C806 C810 1.350 . S
C807 C810 1.463 . S
C807 C812 1.350 . S
C807 N815 1.427 . S
C808 H799 0.930 . S
C808 C806 1.378 . S
C808 C809 1.367 1_556 S
C809 C808 1.367 1_554 S
C809 C811 1.433 . S
C810 C806 1.350 . S
C810 C807 1.463 . S
C810 N814 1.427 . S
C811 H801 0.929 . S
C811 C809 1.433 . S
C811 N814 1.384 1_554 S
C812 H803 0.929 . S
C812 C804 1.378 . S
C812 C807 1.350 . S
C813 H800 0.929 . S
C813 C805 1.433 . S
C813 N815 1.384 . S
N814 C810 1.427 . S
N814 C811 1.384 1_556 S
N815 C807 1.427 . S
N815 C813 1.384 . S
H816 C822 0.930 . S
H817 C826 0.930 . S
H818 C831 0.929 1_545 S
H819 C829 0.929 . S
H820 C824 0.929 . S
H821 C830 0.929 . S
C822 H816 0.930 . S
C822 C823 1.367 . S
C822 C830 1.378 . S
C823 C822 1.367 . S
C823 C831 1.433 . S
C824 H820 0.929 . S
C824 C826 1.378 . S
C824 C828 1.350 . S
C825 C828 1.463 . S
C825 C830 1.350 . S
C825 N833 1.427 . S
C826 H817 0.930 . S
C826 C824 1.378 . S
C826 C827 1.367 . S
C827 C826 1.367 . S
C827 C829 1.433 . S
C828 C824 1.350 . S
C828 C825 1.463 . S
C828 N832 1.427 . S
C829 H819 0.929 . S
C829 C827 1.433 . S
C829 N832 1.384 . S
C830 H821 0.929 . S
C830 C822 1.378 . S
C830 C825 1.350 . S
C831 H818 0.929 1_565 S
C831 C823 1.433 . S
C831 N833 1.384 . S
N832 C828 1.427 . S
N832 C829 1.384 . S
N833 C825 1.427 . S
N833 C831 1.384 . S
H834 C840 0.930 . S
H835 C844 0.930 . S
H836 C849 0.929 . S
H837 C847 0.929 . S
H838 C842 0.929 . S
H839 C848 0.929 . S
C840 H834 0.930 . S
C840 C841 1.367 . S
C840 C848 1.378 . S
C841 C840 1.367 . S
C841 C849 1.433 . S
C842 H838 0.929 . S
C842 C844 1.378 . S
C842 C846 1.350 . S
C843 C846 1.463 . S
C843 C848 1.350 . S
C843 N851 1.427 . S
C844 H835 0.930 . S
C844 C842 1.378 . S
C844 C845 1.367 . S
C845 C844 1.367 . S
C845 C847 1.433 . S
C846 C842 1.350 . S
C846 C843 1.463 . S
C846 N850 1.427 . S
C847 H837 0.929 . S
C847 C845 1.433 . S
C847 N850 1.384 . S
C848 H839 0.929 . S
C848 C840 1.378 . S
C848 C843 1.350 . S
C849 H836 0.929 . S
C849 C841 1.433 . S
C849 N851 1.384 . S
N850 C846 1.427 . S
N850 C847 1.384 . S
N851 C843 1.427 . S
N851 C849 1.384 . S
H852 C858 0.930 . S
H853 C862 0.930 . S
H854 C867 0.929 . S
H855 C865 0.929 . S
H856 C860 0.929 . S
H857 C866 0.929 . S
C858 H852 0.930 . S
C858 C859 1.367 . S
C858 C866 1.378 . S
C859 C858 1.367 . S
C859 C867 1.433 . S
C860 H856 0.929 . S
C860 C862 1.378 . S
C860 C864 1.350 . S
C861 C864 1.463 . S
C861 C866 1.350 . S
C861 N869 1.427 . S
C862 H853 0.930 . S
C862 C860 1.378 . S
C862 C863 1.367 . S
C863 C862 1.367 . S
C863 C865 1.433 . S
C864 C860 1.350 . S
C864 C861 1.463 . S
C864 N868 1.427 . S
C865 H855 0.929 . S
C865 C863 1.433 . S
C865 N868 1.384 . S
C866 H857 0.929 . S
C866 C858 1.378 . S
C866 C861 1.350 . S
C867 H854 0.929 . S
C867 C859 1.433 . S
C867 N869 1.384 . S
N868 C864 1.427 . S
N868 C865 1.384 . S
N869 C861 1.427 . S
N869 C867 1.384 . S
H870 C876 0.930 . S
H871 C880 0.930 . S
H872 C885 0.929 . S
H873 C883 0.929 . S
H874 C878 0.929 . S
H875 C884 0.929 . S
C876 H870 0.930 . S
C876 C877 1.367 . S
C876 C884 1.378 . S
C877 C876 1.367 . S
C877 C885 1.433 . S
C878 H874 0.929 . S
C878 C880 1.378 . S
C878 C882 1.350 . S
C879 C882 1.463 . S
C879 C884 1.350 . S
C879 N887 1.427 . S
C880 H871 0.930 . S
C880 C878 1.378 . S
C880 C881 1.367 . S
C881 C880 1.367 . S
C881 C883 1.433 . S
C882 C878 1.350 . S
C882 C879 1.463 . S
C882 N886 1.427 . S
C883 H873 0.929 . S
C883 C881 1.433 . S
C883 N886 1.384 . S
C884 H875 0.929 . S
C884 C876 1.378 . S
C884 C879 1.350 . S
C885 H872 0.929 . S
C885 C877 1.433 . S
C885 N887 1.384 . S
N886 C882 1.427 . S
N886 C883 1.384 . S
N887 C879 1.427 . S
N887 C885 1.384 . S
H888 C894 0.930 . S
H889 C898 0.930 . S
H890 C903 0.929 . S
H891 C901 0.929 . S
H892 C896 0.929 . S
H893 C902 0.929 . S
C894 H888 0.930 . S
C894 C895 1.367 . S
C894 C902 1.378 . S
C895 C894 1.367 . S
C895 C903 1.433 . S
C896 H892 0.929 . S
C896 C898 1.378 . S
C896 C900 1.350 . S
C897 C900 1.463 . S
C897 C902 1.350 . S
C897 N905 1.427 . S
C898 H889 0.930 . S
C898 C896 1.378 . S
C898 C899 1.367 . S
C899 C898 1.367 . S
C899 C901 1.433 . S
C900 C896 1.350 . S
C900 C897 1.463 . S
C900 N904 1.427 . S
C901 H891 0.929 . S
C901 C899 1.433 . S
C901 N904 1.384 . S
C902 H893 0.929 . S
C902 C894 1.378 . S
C902 C897 1.350 . S
C903 H890 0.929 . S
C903 C895 1.433 . S
C903 N905 1.384 . S
N904 C900 1.427 . S
N904 C901 1.384 . S
N905 C897 1.427 . S
N905 C903 1.384 . S
H906 C912 0.930 . S
H907 C916 0.930 . S
H908 C921 0.929 . S
H909 C919 0.929 . S
H910 C914 0.929 . S
H911 C920 0.929 . S
C912 H906 0.930 . S
C912 C913 1.367 . S
C912 C920 1.378 . S
C913 C912 1.367 . S
C913 C921 1.433 . S
C914 H910 0.929 . S
C914 C916 1.378 . S
C914 C918 1.350 . S
C915 C918 1.463 . S
C915 C920 1.350 . S
C915 N923 1.427 . S
C916 H907 0.930 . S
C916 C914 1.378 . S
C916 C917 1.367 . S
C917 C916 1.367 . S
C917 C919 1.433 . S
C918 C914 1.350 . S
C918 C915 1.463 . S
C918 N922 1.427 . S
C919 H909 0.929 . S
C919 C917 1.433 . S
C919 N922 1.384 . S
C920 H911 0.929 . S
C920 C912 1.378 . S
C920 C915 1.350 . S
C921 H908 0.929 . S
C921 C913 1.433 . S
C921 N923 1.384 . S
N922 C918 1.427 . S
N922 C919 1.384 . S
N923 C915 1.427 . S
N923 C921 1.384 . S
H924 C930 0.930 . S
H925 C934 0.930 . S
H926 C939 0.929 . S
H927 C937 0.929 . S
H928 C932 0.929 . S
H929 C938 0.929 . S
C930 H924 0.930 . S
C930 C931 1.367 . S
C930 C938 1.378 . S
C931 C930 1.367 . S
C931 C939 1.433 . S
C932 H928 0.929 . S
C932 C934 1.378 . S
C932 C936 1.350 . S
C933 C936 1.463 1_554 S
C933 C938 1.350 . S
C933 N941 1.427 . S
C934 H925 0.930 . S
C934 C932 1.378 . S
C934 C935 1.367 . S
C935 C934 1.367 . S
C935 C937 1.433 . S
C936 C932 1.350 . S
C936 C933 1.463 1_556 S
C936 N940 1.427 . S
C937 H927 0.929 . S
C937 C935 1.433 . S
C937 N940 1.384 . S
C938 H929 0.929 . S
C938 C930 1.378 . S
C938 C933 1.350 . S
C939 H926 0.929 . S
C939 C931 1.433 . S
C939 N941 1.384 . S
N940 C936 1.427 . S
N940 C937 1.384 . S
N941 C933 1.427 . S
N941 C939 1.384 . S
H942 C948 0.930 . S
H943 C952 0.930 . S
H944 C957 0.929 . S
H945 C955 0.929 . S
H946 C950 0.929 . S
H947 C956 0.929 . S
C948 H942 0.930 . S
C948 C949 1.367 . S
C948 C956 1.378 . S
C949 C948 1.367 . S
C949 C957 1.433 . S
C950 H946 0.929 . S
C950 C952 1.378 . S
C950 C954 1.350 . S
C951 C954 1.463 . S
C951 C956 1.350 . S
C951 N959 1.427 . S
C952 H943 0.930 . S
C952 C950 1.378 . S
C952 C953 1.367 . S
C953 C952 1.367 . S
C953 C955 1.433 . S
C954 C950 1.350 . S
C954 C951 1.463 . S
C954 N958 1.427 . S
C955 H945 0.929 . S
C955 C953 1.433 . S
C955 N958 1.384 . S
C956 H947 0.929 . S
C956 C948 1.378 . S
C956 C951 1.350 . S
C957 H944 0.929 . S
C957 C949 1.433 . S
C957 N959 1.384 . S
N958 C954 1.427 . S
N958 C955 1.384 . S
N959 C951 1.427 . S
N959 C957 1.384 . S
C539 C519 1.049 . S
C535 C51 1.292 . S
C553 C125 1.439 . S
C557 C449 1.148 . S
C571 C217 2.569 . S
C575 C469 2.610 . S
C589 C291 1.410 . S
C593 C483 1.407 . S
C611 C491 0.764 . S
C607 C347 0.862 . S
C625 C421 0.802 . S
C629 C505 0.776 . S
C643 C143 2.278 . S
C647 C463 1.944 . S
C661 C199 1.488 . S
C665 C477 1.242 . S
C679 C273 0.409 . S
C683 C497 0.402 . S
C701 C511 1.627 . S
C697 C365 1.590 . S
C719 C525 1.783 . S
C715 C439 1.799 . S
C737 C455 2.459 . S
C733 C69 2.403 . S
C751 C63 1.403 . S
C755 C462 1.483 . S
C769 C137 1.534 . S
C773 C476 1.611 . S
C791 C498 1.282 . S
C787 C187 1.252 . S
C805 C261 1.425 . S
C809 C512 1.452 . S
C827 C526 1.491 . S
C823 C359 1.340 . S
C845 C456 1.090 . S
C841 C433 1.046 . S
C863 C518 1.637 . S
C859 C113 1.590 . S
C877 C211 1.280 . S
C881 C448 1.360 . S
C899 C470 1.629 . S
C895 C285 1.520 . S
C913 C335 1.305 . S
C917 C484 1.362 . S
C931 C409 1.278 . S
C935 C490 1.325 . S
C949 C39 1.616 . S
C953 C504 1.665 . S
