# Generated by pormake.
# Topology pyr, (3,6)-cn, num edge types: 1
# Building blocks:
#     Node 0, Type 0, BuildingBlock: MIDCAF_clean_linker_0, # of connection points: 3
#     Node 1, Type 0, BuildingBlock: MIDCAF_clean_linker_0, # of connection points: 3
#     Node 2, Type 0, BuildingBlock: MIDCAF_clean_linker_0, # of connection points: 3
#     Node 3, Type 0, BuildingBlock: MIDCAF_clean_linker_0, # of connection points: 3
#     Node 4, Type 0, BuildingBlock: MIDCAF_clean_linker_0, # of connection points: 3
#     Node 5, Type 0, BuildingBlock: MIDCAF_clean_linker_0, # of connection points: 3
#     Node 6, Type 0, BuildingBlock: MIDCAF_clean_linker_0, # of connection points: 3
#     Node 7, Type 0, BuildingBlock: MIDCAF_clean_linker_0, # of connection points: 3
#     Node 8, Type 1, BuildingBlock: BETFAJ_clean_sbu_0, # of connection points: 6
#     Node 9, Type 1, BuildingBlock: BETFAJ_clean_sbu_0, # of connection points: 6
#     Node 10, Type 1, BuildingBlock: BETFAJ_clean_sbu_0, # of connection points: 6
#     Node 11, Type 1, BuildingBlock: BETFAJ_clean_sbu_0, # of connection points: 6
#     Edge 12, Type (0, 1), BuildingBlock: MIFKUJ_clean_linker_0, # of connection points: 2
#     Edge 13, Type (0, 1), BuildingBlock: MIFKUJ_clean_linker_0, # of connection points: 2
#     Edge 14, Type (0, 1), BuildingBlock: MIFKUJ_clean_linker_0, # of connection points: 2
#     Edge 15, Type (0, 1), BuildingBlock: MIFKUJ_clean_linker_0, # of connection points: 2
#     Edge 16, Type (0, 1), BuildingBlock: MIFKUJ_clean_linker_0, # of connection points: 2
#     Edge 17, Type (0, 1), BuildingBlock: MIFKUJ_clean_linker_0, # of connection points: 2
#     Edge 18, Type (0, 1), BuildingBlock: MIFKUJ_clean_linker_0, # of connection points: 2
#     Edge 19, Type (0, 1), BuildingBlock: MIFKUJ_clean_linker_0, # of connection points: 2
#     Edge 20, Type (0, 1), BuildingBlock: MIFKUJ_clean_linker_0, # of connection points: 2
#     Edge 21, Type (0, 1), BuildingBlock: MIFKUJ_clean_linker_0, # of connection points: 2
#     Edge 22, Type (0, 1), BuildingBlock: MIFKUJ_clean_linker_0, # of connection points: 2
#     Edge 23, Type (0, 1), BuildingBlock: MIFKUJ_clean_linker_0, # of connection points: 2
#     Edge 24, Type (0, 1), BuildingBlock: MIFKUJ_clean_linker_0, # of connection points: 2
#     Edge 25, Type (0, 1), BuildingBlock: MIFKUJ_clean_linker_0, # of connection points: 2
#     Edge 26, Type (0, 1), BuildingBlock: MIFKUJ_clean_linker_0, # of connection points: 2
#     Edge 27, Type (0, 1), BuildingBlock: MIFKUJ_clean_linker_0, # of connection points: 2
#     Edge 28, Type (0, 1), BuildingBlock: MIFKUJ_clean_linker_0, # of connection points: 2
#     Edge 29, Type (0, 1), BuildingBlock: MIFKUJ_clean_linker_0, # of connection points: 2
#     Edge 30, Type (0, 1), BuildingBlock: MIFKUJ_clean_linker_0, # of connection points: 2
#     Edge 31, Type (0, 1), BuildingBlock: MIFKUJ_clean_linker_0, # of connection points: 2
#     Edge 32, Type (0, 1), BuildingBlock: MIFKUJ_clean_linker_0, # of connection points: 2
#     Edge 33, Type (0, 1), BuildingBlock: MIFKUJ_clean_linker_0, # of connection points: 2
#     Edge 34, Type (0, 1), BuildingBlock: MIFKUJ_clean_linker_0, # of connection points: 2
#     Edge 35, Type (0, 1), BuildingBlock: MIFKUJ_clean_linker_0, # of connection points: 2
# Relax obj value: 0.073
# Max RMSD: 0.117
# Mean RMSD: 0.054
data_MOF--net-pyr--node1-BETFAJ_clean_sbu_0--node2-MIDCAF_clean_linker_0--edge1-MIFKUJ_clean_linker_0
_symmetry_space_group_name_H-M    P1
_symmetry_Int_Tables_number       1
_symmetry_cell_setting            triclinic
loop_
_symmetry_equiv_pos_as_xyz
'x, y, z'
_cell_length_a     57.081231
_cell_length_b     60.551631
_cell_length_c     54.923667
_cell_angle_alpha  91.023959
_cell_angle_beta   88.887936
_cell_angle_gamma 99.306624
loop_
_atom_site_label
_atom_site_type_symbol
_atom_site_fract_x
_atom_site_fract_y
_atom_site_fract_z
_atom_type_partial_charge
C0 C 0.26687 0.26271 0.30449 0.0
C1 C 0.26867 0.24197 0.31465 0.0
C2 C 0.28656 0.23025 0.30602 0.0
C3 C 0.30125 0.23839 0.28638 0.0
H4 H 0.3589 0.22808 0.24122 0.0
H5 H 0.38394 0.20336 0.22269 0.0
H6 H 0.37385 0.23025 0.15199 0.0
H7 H 0.34931 0.25552 0.17065 0.0
H8 H 0.31168 0.29177 0.16658 0.0
H9 H 0.28927 0.31611 0.14456 0.0
H10 H 0.27019 0.34555 0.21281 0.0
H11 H 0.29209 0.32123 0.23471 0.0
H12 H 0.27899 0.28656 0.27709 0.0
H13 H 0.25348 0.27226 0.31109 0.0
H14 H 0.2883 0.21418 0.31352 0.0
H15 H 0.31405 0.2284 0.27933 0.0
N16 N 0.32639 0.25311 0.24143 0.0
N17 N 0.32841 0.27466 0.20601 0.0
N18 N 0.30408 0.28211 0.23901 0.0
C19 C 0.33554 0.25783 0.21869 0.0
C20 C 0.31283 0.28704 0.21628 0.0
C21 C 0.31064 0.2652 0.25172 0.0
C22 C 0.35192 0.24374 0.20743 0.0
C23 C 0.36208 0.22885 0.22173 0.0
C24 C 0.37637 0.21454 0.21107 0.0
C25 C 0.38076 0.21462 0.18579 0.0
C26 C 0.37107 0.22988 0.17155 0.0
C27 C 0.35688 0.24433 0.18225 0.0
C28 C 0.30331 0.30429 0.20241 0.0
C29 C 0.3031 0.30377 0.17681 0.0
C30 C 0.29029 0.31771 0.1642 0.0
C31 C 0.27759 0.33241 0.17701 0.0
C32 C 0.2793 0.33401 0.20247 0.0
C33 C 0.29194 0.3201 0.21501 0.0
C34 C 0.29832 0.25843 0.2751 0.0
C35 C 0.28156 0.27089 0.28501 0.0
C36 C 0.24756 0.89535 0.60708 0.0
C37 C 0.2307 0.88401 0.5911 0.0
C38 C 0.23429 0.86356 0.58053 0.0
C39 C 0.25501 0.85494 0.58523 0.0
H40 H 0.30927 0.82747 0.54506 0.0
H41 H 0.32759 0.80568 0.51426 0.0
H42 H 0.37947 0.79362 0.56661 0.0
H43 H 0.36176 0.81552 0.5969 0.0
H44 H 0.3687 0.84342 0.64437 0.0
H45 H 0.39213 0.8561 0.68002 0.0
H46 H 0.34332 0.90137 0.69929 0.0
H47 H 0.31993 0.88896 0.66352 0.0
H48 H 0.28086 0.89586 0.62431 0.0
H49 H 0.245 0.91115 0.61543 0.0
H50 H 0.22145 0.85466 0.56808 0.0
H51 H 0.25767 0.83934 0.57649 0.0
N52 N 0.30309 0.84447 0.58846 0.0
N53 N 0.3366 0.84408 0.61234 0.0
N54 N 0.30733 0.86474 0.62539 0.0
C55 C 0.32417 0.83743 0.59194 0.0
C56 C 0.32833 0.85769 0.62916 0.0
C57 C 0.29455 0.85808 0.60519 0.0
C58 C 0.33417 0.8234 0.57341 0.0
C59 C 0.32459 0.82014 0.54994 0.0
C60 C 0.33507 0.8077 0.53229 0.0
C61 C 0.35526 0.79833 0.53784 0.0
C62 C 0.36439 0.80121 0.56147 0.0
C63 C 0.35407 0.81364 0.57896 0.0
C64 C 0.34239 0.86517 0.65103 0.0
C65 C 0.36292 0.8561 0.65615 0.0
C66 C 0.37633 0.86328 0.67664 0.0
C67 C 0.36959 0.87976 0.69236 0.0
C68 C 0.34911 0.88885 0.68728 0.0
C69 C 0.33561 0.88159 0.66687 0.0
C70 C 0.27213 0.86646 0.60096 0.0
C71 C 0.26799 0.88655 0.61216 0.0
C72 C 0.64954 0.27376 0.88686 0.0
C73 C 0.62472 0.26688 0.88764 0.0
C74 C 0.6105 0.28115 0.87714 0.0
C75 C 0.62074 0.3015 0.86646 0.0
H76 H 0.61081 0.35371 0.81384 0.0
H77 H 0.59387 0.3714 0.77997 0.0
H78 H 0.66307 0.40823 0.76232 0.0
H79 H 0.67995 0.39097 0.79629 0.0
H80 H 0.71589 0.40121 0.84423 0.0
H81 H 0.75247 0.41984 0.86287 0.0
H82 H 0.74899 0.36569 0.9136 0.0
H83 H 0.71288 0.34688 0.89473 0.0
H84 H 0.67882 0.2989 0.87677 0.0
H85 H 0.6614 0.26326 0.8939 0.0
H86 H 0.59135 0.27692 0.87754 0.0
H87 H 0.60922 0.31206 0.85884 0.0
N88 N 0.64645 0.34045 0.83809 0.0
N89 N 0.67839 0.37042 0.83823 0.0
N90 N 0.67763 0.341 0.86555 0.0
C91 C 0.65737 0.36033 0.8287 0.0
C92 C 0.68858 0.36099 0.85682 0.0
C93 C 0.65665 0.33057 0.85642 0.0
C94 C 0.6468 0.37088 0.80795 0.0
C95 C 0.62244 0.36558 0.80276 0.0
C96 C 0.61268 0.3758 0.78339 0.0
C97 C 0.6271 0.39123 0.76834 0.0
C98 C 0.65147 0.39632 0.77338 0.0
C99 C 0.66112 0.38648 0.79301 0.0
C100 C 0.71124 0.37243 0.86785 0.0
C101 C 0.72293 0.3932 0.8593 0.0
C102 C 0.74391 0.404 0.87014 0.0
C103 C 0.75387 0.39436 0.88983 0.0
C104 C 0.7422 0.37356 0.89827 0.0
C105 C 0.72127 0.36278 0.88747 0.0
C106 C 0.64546 0.30847 0.86643 0.0
C107 C 0.65967 0.29427 0.87674 0.0
C108 C 0.78492 0.66221 0.40446 0.0
C109 C 0.77217 0.64234 0.39457 0.0
C110 C 0.78167 0.63283 0.37377 0.0
C111 C 0.80322 0.64296 0.36314 0.0
H112 H 0.85112 0.63602 0.3076 0.0
H113 H 0.86809 0.61807 0.27318 0.0
H114 H 0.93099 0.66837 0.27589 0.0
H115 H 0.91366 0.6868 0.31009 0.0
H116 H 0.91788 0.72379 0.35921 0.0
H117 H 0.93591 0.75971 0.37748 0.0
H118 H 0.867 0.77051 0.40407 0.0
H119 H 0.84907 0.73474 0.3863 0.0
H120 H 0.81554 0.68761 0.40213 0.0
H121 H 0.7785 0.66986 0.4207 0.0
H122 H 0.77229 0.61769 0.36544 0.0
H123 H 0.80988 0.63518 0.34709 0.0
N124 N 0.84909 0.6641 0.34289 0.0
N125 N 0.881 0.69403 0.34226 0.0
N126 N 0.84972 0.69396 0.37069 0.0
C127 C 0.87017 0.67398 0.33291 0.0
C128 C 0.87076 0.70418 0.36111 0.0
C129 C 0.83877 0.6739 0.36185 0.0
C130 C 0.88095 0.66295 0.31184 0.0
C131 C 0.8686 0.64334 0.30097 0.0
C132 C 0.87844 0.63289 0.28119 0.0
C133 C 0.90105 0.6416 0.27164 0.0
C134 C 0.91343 0.66126 0.28246 0.0
C135 C 0.90352 0.67179 0.30224 0.0
C136 C 0.88201 0.72629 0.37129 0.0
C137 C 0.90658 0.73387 0.36888 0.0
C138 C 0.91693 0.75437 0.37946 0.0
C139 C 0.90287 0.76796 0.39221 0.0
C140 C 0.8783 0.76053 0.39424 0.0
C141 C 0.86805 0.73993 0.38412 0.0
C142 C 0.81585 0.66293 0.37299 0.0
C143 C 0.80636 0.67236 0.39382 0.0
C144 C 0.65164 0.82943 0.83631 0.0
C145 C 0.65439 0.83575 0.86092 0.0
C146 C 0.67044 0.82636 0.87498 0.0
C147 C 0.68387 0.81119 0.86451 0.0
H148 H 0.7153 0.75133 0.87879 0.0
H149 H 0.73946 0.73043 0.90347 0.0
H150 H 0.78786 0.72777 0.84258 0.0
H151 H 0.76403 0.74815 0.81796 0.0
H152 H 0.74164 0.75432 0.76405 0.0
H153 H 0.76479 0.76493 0.7272 0.0
H154 H 0.74143 0.82932 0.72933 0.0
H155 H 0.71783 0.81856 0.76599 0.0
H156 H 0.66342 0.81045 0.80649 0.0
H157 H 0.6394 0.83652 0.82512 0.0
H158 H 0.67274 0.83092 0.89405 0.0
H159 H 0.6964 0.80456 0.87575 0.0
N160 N 0.70845 0.77724 0.84179 0.0
N161 N 0.72957 0.76751 0.80736 0.0
N162 N 0.70352 0.79338 0.80394 0.0
C163 C 0.72431 0.76524 0.83145 0.0
C164 C 0.71933 0.78143 0.79345 0.0
C165 C 0.6978 0.79119 0.82806 0.0
C166 C 0.73771 0.75152 0.8464 0.0
C167 C 0.73101 0.74615 0.87066 0.0
C168 C 0.74476 0.73418 0.88476 0.0
C169 C 0.76561 0.72776 0.87495 0.0
C170 C 0.77203 0.73279 0.85066 0.0
C171 C 0.75822 0.74438 0.83653 0.0
C172 C 0.72828 0.78578 0.76823 0.0
C173 C 0.74094 0.77054 0.75633 0.0
C174 C 0.75425 0.77662 0.73524 0.0
C175 C 0.75532 0.79811 0.72565 0.0
C176 C 0.74091 0.81259 0.73622 0.0
C177 C 0.72742 0.80645 0.7573 0.0
C178 C 0.68186 0.80548 0.83963 0.0
C179 C 0.66544 0.8146 0.82568 0.0
C180 C 0.67717 0.15241 0.37182 0.0
C181 C 0.65927 0.16436 0.36503 0.0
C182 C 0.65678 0.18426 0.3776 0.0
C183 C 0.67182 0.19194 0.39682 0.0
H184 H 0.68656 0.24192 0.45141 0.0
H185 H 0.67523 0.26926 0.48059 0.0
H186 H 0.71581 0.24395 0.53615 0.0
H187 H 0.72765 0.2166 0.50677 0.0
H188 H 0.77044 0.19222 0.48463 0.0
H189 H 0.80522 0.17489 0.49119 0.0
H190 H 0.79502 0.14037 0.42172 0.0
H191 H 0.75976 0.15729 0.41532 0.0
H192 H 0.70597 0.15053 0.3955 0.0
H193 H 0.67972 0.1372 0.36215 0.0
H194 H 0.64311 0.19378 0.37267 0.0
H195 H 0.66943 0.2073 0.40625 0.0
N196 N 0.70021 0.20368 0.43996 0.0
N197 N 0.73435 0.20131 0.4622 0.0
N198 N 0.72589 0.1791 0.42711 0.0
C199 C 0.71439 0.21036 0.45918 0.0
C200 C 0.74033 0.18579 0.44612 0.0
C201 C 0.70578 0.18794 0.42392 0.0
C202 C 0.708 0.22715 0.4768 0.0
C203 C 0.6932 0.24221 0.46978 0.0
C204 C 0.68688 0.25795 0.48638 0.0
C205 C 0.69494 0.25875 0.51041 0.0
C206 C 0.70959 0.24366 0.51762 0.0
C207 C 0.71633 0.22813 0.50082 0.0
C208 C 0.76216 0.17603 0.44952 0.0
C209 C 0.77563 0.18105 0.47065 0.0
C210 C 0.79573 0.17124 0.47434 0.0
C211 C 0.8029 0.15629 0.45695 0.0
C212 C 0.78977 0.15164 0.43558 0.0
C213 C 0.76959 0.16138 0.43191 0.0
C214 C 0.68983 0.18001 0.40356 0.0
C215 C 0.69235 0.16018 0.39079 0.0
C216 C 0.28799 0.64076 0.18127 0.0
C217 C 0.27898 0.64922 0.16026 0.0
C218 C 0.29164 0.66903 0.15034 0.0
C219 C 0.31245 0.6801 0.16115 0.0
H220 H 0.35604 0.74066 0.16213 0.0
H221 H 0.37378 0.77658 0.14556 0.0
H222 H 0.43493 0.77721 0.19073 0.0
H223 H 0.41722 0.74094 0.20729 0.0
H224 H 0.4078 0.70451 0.25557 0.0
H225 H 0.42443 0.68681 0.28954 0.0
H226 H 0.3803 0.62405 0.27171 0.0
H227 H 0.36366 0.64159 0.23795 0.0
H228 H 0.31508 0.64475 0.20822 0.0
H229 H 0.27868 0.62577 0.18972 0.0
H230 H 0.28566 0.67594 0.13397 0.0
H231 H 0.32157 0.69526 0.15285 0.0
N232 N 0.35399 0.70403 0.18555 0.0
N233 N 0.38386 0.70573 0.2147 0.0
N234 N 0.35359 0.6744 0.21251 0.0
C235 C 0.3741 0.71526 0.19581 0.0
C236 C 0.3737 0.68524 0.22318 0.0
C237 C 0.34357 0.68364 0.19371 0.0
C238 C 0.38511 0.73766 0.18615 0.0
C239 C 0.37327 0.74835 0.16866 0.0
C240 C 0.38341 0.76915 0.1592 0.0
C241 C 0.40583 0.77999 0.16677 0.0
C242 C 0.41774 0.76934 0.18425 0.0
C243 C 0.40749 0.74854 0.19389 0.0
C244 C 0.38431 0.67458 0.24385 0.0
C245 C 0.40165 0.68693 0.25883 0.0
C246 C 0.41111 0.67679 0.27844 0.0
C247 C 0.40378 0.65394 0.28343 0.0
C248 C 0.3866 0.64159 0.26833 0.0
C249 C 0.37692 0.65176 0.24898 0.0
C250 C 0.32142 0.67167 0.18217 0.0
C251 C 0.30889 0.65178 0.19202 0.0
C252 C 0.14969 0.29146 0.65236 0.0
C253 C 0.1305 0.27819 0.66424 0.0
C254 C 0.1219 0.28626 0.68633 0.0
C255 C 0.1322 0.30706 0.6962 0.0
H256 H 0.12112 0.35777 0.74745 0.0
H257 H 0.1032 0.37612 0.7813 0.0
H258 H 0.16446 0.42832 0.78275 0.0
H259 H 0.18208 0.41038 0.74868 0.0
H260 H 0.22573 0.40871 0.71219 0.0
H261 H 0.26347 0.42635 0.69446 0.0
H262 H 0.2532 0.3802 0.63323 0.0
H263 H 0.21599 0.36215 0.65131 0.0
H264 H 0.17491 0.32167 0.65255 0.0
H265 H 0.157 0.28571 0.6355 0.0
H266 H 0.10701 0.27659 0.69588 0.0
H267 H 0.12509 0.3127 0.71322 0.0
N268 N 0.15323 0.35178 0.71441 0.0
N269 N 0.18484 0.38195 0.71382 0.0
N270 N 0.1838 0.3528 0.68503 0.0
C271 C 0.16399 0.37174 0.72397 0.0
C272 C 0.19488 0.37264 0.69434 0.0
C273 C 0.16306 0.34217 0.6949 0.0
C274 C 0.15309 0.38254 0.74511 0.0
C275 C 0.1308 0.37316 0.75496 0.0
C276 C 0.12054 0.38366 0.77453 0.0
C277 C 0.13226 0.40383 0.78484 0.0
C278 C 0.15462 0.41307 0.7751 0.0
C279 C 0.16485 0.40262 0.75555 0.0
C280 C 0.21773 0.38388 0.6833 0.0
C281 C 0.2315 0.40231 0.69494 0.0
C282 C 0.25316 0.41254 0.68466 0.0
C283 C 0.26161 0.40474 0.66237 0.0
C284 C 0.24765 0.38647 0.65064 0.0
C285 C 0.22612 0.37615 0.66098 0.0
C286 C 0.15153 0.32025 0.68437 0.0
C287 C 0.16009 0.31211 0.66229 0.0
Sm288 Sm 0.01963 0.03235 0.50551 0.0
Sm289 Sm 0.01336 1.01112 0.55588 0.0
C290 C 0.02216 0.05875 0.46747 0.0
C291 C 0.04107 0.07632 0.45872 0.0
C292 C 0.03569 0.0938 0.44461 0.0
C293 C 0.0538 0.1107 0.43672 0.0
C294 C 0.07765 0.11018 0.44256 0.0
C295 C 0.08281 0.0925 0.45675 0.0
C296 C 0.0647 0.0759 0.46494 0.0
C297 C 0.05699 1.01264 0.52014 0.0
C298 C 0.03693 0.06293 0.55491 0.0
C299 C 1.01033 0.98385 0.59312 0.0
C300 C 0.99102 0.96612 0.60085 0.0
C301 C 0.99608 0.94576 0.60936 0.0
C302 C 0.97759 0.92849 0.61542 0.0
C303 C 0.95375 0.93138 0.61308 0.0
C304 C 0.94886 0.95185 0.60445 0.0
C305 C 0.96728 0.96894 0.59823 0.0
C306 C 0.97582 0.0306 0.54136 0.0
C307 C 0.99652 0.98058 0.50665 0.0
O308 O 1.01182 0.06318 0.48805 0.0
O309 O 0.0271 0.03839 0.46629 0.0
O310 O 0.04537 0.02423 0.53333 0.0
O311 O 0.05041 1.01255 0.49769 0.0
O312 O 0.02885 0.06256 0.53241 0.0
O313 O 0.03672 0.04418 0.56696 0.0
O314 O 0.02105 0.97992 0.57261 0.0
O315 O 1.00586 1.00434 0.595 0.0
O316 O 0.98754 1.01918 0.52806 0.0
O317 O 0.98223 0.03042 0.56383 0.0
O318 O 1.00553 0.981 0.5287 0.0
O319 O 0.99563 0.99938 0.49507 0.0
H320 H 0.01751 0.0944 0.43976 0.0
H321 H 0.04905 0.1242 0.42618 0.0
H322 H 0.10092 0.09117 0.46122 0.0
H323 H 0.0692 0.06259 0.47599 0.0
H324 H 0.01431 0.94314 0.61107 0.0
H325 H 0.98198 0.91283 0.62169 0.0
H326 H 0.93077 0.95484 0.6028 0.0
H327 H 0.96289 0.98439 0.5913 0.0
Sm328 Sm 0.53964 0.02859 0.03826 0.0
Sm329 Sm 0.49401 1.01686 1.01535 0.0
C330 C 0.57797 0.04859 0.06096 0.0
C331 C 0.58224 0.05975 0.08488 0.0
C332 C 0.57043 0.0775 0.09216 0.0
C333 C 0.57302 0.0865 0.11572 0.0
C334 C 0.58742 0.07788 0.13241 0.0
C335 C 0.5997 0.06054 0.12488 0.0
C336 C 0.59715 0.0516 0.10131 0.0
C337 C 0.51456 0.98831 0.05444 0.0
C338 C 0.49335 0.04824 0.06175 0.0
C339 C 0.45706 0.99552 0.99169 0.0
C340 C 0.45578 0.98537 0.96719 0.0
C341 C 0.43873 0.9666 0.96206 0.0
C342 C 0.43835 0.95625 0.93908 0.0
C343 C 0.45498 0.96464 0.92093 0.0
C344 C 0.47217 0.98333 0.92621 0.0
C345 C 0.47268 0.99352 0.94922 0.0
C346 C 0.51859 0.05714 0.99905 0.0
C347 C 0.54031 0.99745 0.99178 0.0
O348 O 0.56675 0.05859 0.04502 0.0
O349 O 0.57079 0.02701 0.06143 0.0
O350 O 0.5058 1.00599 0.05157 0.0
O351 O 0.53702 0.99165 0.04897 0.0
O352 O 0.51661 0.05136 0.05853 0.0
O353 O 0.47966 0.03255 0.04939 0.0
O354 O 0.46873 0.98574 1.00738 0.0
O355 O 0.46233 1.01733 0.99269 0.0
O356 O 0.52774 0.03969 1.00217 0.0
O357 O 0.49598 0.05333 1.00371 0.0
O358 O 0.51714 0.99411 0.99528 0.0
O359 O 0.5539 1.0133 1.00395 0.0
H360 H 0.55881 0.08415 0.07986 0.0
H361 H 0.56325 0.09977 0.12107 0.0
H362 H 0.61123 0.05384 0.13725 0.0
H363 H 0.60648 0.03798 0.09605 0.0
H364 H 0.42579 0.95991 0.97584 0.0
H365 H 0.42481 0.94194 0.93535 0.0
H366 H 0.48531 0.98995 0.91259 0.0
H367 H 0.48636 1.00771 0.95303 0.0
Sm368 Sm 0.52155 0.50249 0.50807 0.0
Sm369 Sm 0.50934 0.54378 0.54458 0.0
C370 C 0.54433 0.47457 0.48385 0.0
C371 C 0.55262 0.45437 0.49275 0.0
C372 C 0.56808 0.45592 0.51257 0.0
C373 C 0.57376 0.4367 0.52293 0.0
C374 C 0.56416 0.41547 0.51373 0.0
C375 C 0.54907 0.41386 0.4936 0.0
C376 C 0.54333 0.43318 0.48322 0.0
C377 C 0.47938 0.49085 0.53458 0.0
C378 C 0.53438 0.50344 0.56752 0.0
C379 C 0.48639 0.57198 0.56803 0.0
C380 C 0.48251 0.59372 0.55911 0.0
C381 C 0.46634 0.60565 0.57075 0.0
C382 C 0.45999 0.62436 0.55957 0.0
C383 C 0.46942 0.63093 0.53647 0.0
C384 C 0.48619 0.6194 0.5253 0.0
C385 C 0.49286 0.60106 0.53665 0.0
C386 C 0.55198 0.55559 0.51902 0.0
C387 C 0.49592 0.54233 0.48502 0.0
O388 O 0.55496 0.49364 0.49292 0.0
O389 O 0.52124 0.47346 0.48257 0.0
O390 O 0.49364 0.50896 0.5348 0.0
O391 O 0.4873 0.47755 0.51875 0.0
O392 O 0.53836 0.49616 0.54503 0.0
O393 O 0.52204 0.51995 0.57221 0.0
O394 O 0.47558 0.55503 0.55518 0.0
O395 O 0.50849 0.57034 0.57285 0.0
O396 O 0.53779 0.53737 0.51826 0.0
O397 O 0.54363 0.56877 0.53466 0.0
O398 O 0.49326 0.55044 0.50738 0.0
O399 O 0.50716 0.52508 0.48034 0.0
H400 H 0.57557 0.47197 0.52044 0.0
H401 H 0.58589 0.43851 0.53804 0.0
H402 H 0.54143 0.39768 0.48614 0.0
H403 H 0.53122 0.43156 0.4681 0.0
H404 H 0.45801 0.60003 0.58793 0.0
H405 H 0.44688 0.63305 0.56836 0.0
H406 H 0.49369 0.62426 0.50754 0.0
H407 H 0.50531 0.59196 0.52735 0.0
Sm408 Sm 0.01861 0.49952 0.03659 0.0
Sm409 Sm 1.0111 0.54465 1.01881 0.0
C410 C 0.03572 0.4622 0.04457 0.0
C411 C 0.05678 0.45484 0.055 0.0
C412 C 0.07138 0.44377 0.03984 0.0
C413 C 0.09123 0.43627 0.04914 0.0
C414 C 0.09679 0.4395 0.07389 0.0
C415 C 0.08224 0.45067 0.08908 0.0
C416 C 0.06244 0.45835 0.07971 0.0
C417 C 0.99547 0.5235 0.06975 0.0
C418 C 0.06081 0.54352 0.04576 0.0
C419 C 0.99435 0.5822 1.01092 0.0
C420 C 0.97405 0.59046 0.99982 0.0
C421 C 0.95179 0.58835 1.0118 0.0
C422 C 0.93335 0.59786 1.00204 0.0
C423 C 0.93676 0.60976 0.98016 0.0
C424 C 0.95886 0.61142 0.96797 0.0
C425 C 0.97731 0.60198 0.97774 0.0
C426 C 0.03451 0.52081 0.98573 0.0
C427 C 0.96911 0.50046 1.00921 0.0
O428 O 0.0393 0.47329 0.02428 0.0
O429 O 0.02069 0.46998 0.05944 0.0
O430 O 0.01306 0.53137 0.05651 0.0
O431 O 0.99005 0.50196 0.06651 0.0
O432 O 0.0553 0.52145 0.04392 0.0
O433 O 0.04559 0.55659 0.03946 0.0
O434 O 0.99015 0.57069 0.03091 0.0
O435 O 1.00966 0.57457 0.99628 0.0
O436 O 0.01684 0.51289 0.99885 0.0
O437 O 0.03973 0.54236 0.98894 0.0
O438 O 0.97449 0.52255 1.01109 0.0
O439 O 0.98432 0.48747 1.01574 0.0
H440 H 0.06731 0.44076 1.02076 0.0
H441 H 0.10191 0.42745 0.03707 0.0
H442 H 0.08622 0.45355 0.10818 0.0
H443 H 0.05157 0.46692 0.09183 0.0
H444 H 0.94871 0.57977 0.02898 0.0
H445 H 0.91665 0.59646 1.01206 0.0
H446 H 0.96199 0.62015 0.95088 0.0
H447 H 0.99429 0.604 0.96819 0.0
H448 H 0.22096 0.23851 0.31087 0.0
H449 H 0.19027 0.21963 0.33807 0.0
H450 H 0.24406 0.203 0.38552 0.0
H451 H 0.27506 0.22146 0.35768 0.0
H452 H 0.2122 0.16826 0.37966 0.0
H453 H 0.20811 0.24334 0.40175 0.0
H454 H 0.20615 0.28329 0.39613 0.0
H455 H 0.13869 0.2659 0.3616 0.0
H456 H 0.14038 0.22581 0.36668 0.0
H457 H 0.11892 0.1282 0.46556 0.0
H458 H 0.15274 0.15348 0.44855 0.0
H459 H 0.11444 0.15771 0.38241 0.0
H460 H 0.08101 0.13145 0.39854 0.0
H461 H 0.14071 0.20076 0.40425 0.0
H462 H 0.1497 0.12476 0.37876 0.0
H463 H 0.15249 0.08538 0.38699 0.0
H464 H 0.2126 0.10649 0.43246 0.0
H465 H 0.20991 0.14604 0.42477 0.0
C466 C 0.22627 0.23117 0.32732 0.0
C467 C 0.25038 0.23164 0.33232 0.0
C468 C 0.20869 0.22042 0.34292 0.0
C469 C 0.21478 0.21029 0.36418 0.0
C470 C 0.23891 0.21082 0.36931 0.0
C471 C 0.25659 0.22135 0.35345 0.0
C472 C 0.19582 0.19798 0.38 0.0
C473 C 0.19685 0.1756 0.38548 0.0
C474 C 0.17563 0.20741 0.38754 0.0
C475 C 0.17445 0.23153 0.38447 0.0
C476 C 0.19293 0.24802 0.3928 0.0
C477 C 0.19185 0.2707 0.38973 0.0
C478 C 0.17233 0.27713 0.37848 0.0
C479 C 0.15381 0.26089 0.37031 0.0
C480 C 0.1548 0.23818 0.37332 0.0
C481 C 0.11766 0.13432 0.4473 0.0
C482 C 0.09723 0.12747 0.43334 0.0
C483 C 0.13695 0.14895 0.43775 0.0
C484 C 0.13601 0.15733 0.41426 0.0
C485 C 0.11536 0.15145 0.40066 0.0
C486 C 0.09621 0.1365 0.41 0.0
C487 C 0.15707 0.17117 0.40321 0.0
C488 C 0.15634 0.19374 0.39871 0.0
C489 C 0.17772 0.16209 0.39698 0.0
C490 C 0.17942 0.13833 0.40144 0.0
C491 C 0.16336 0.121 0.3907 0.0
C492 C 0.16495 0.09865 0.39523 0.0
C493 C 0.18266 0.09343 0.41031 0.0
C494 C 0.19886 0.11055 0.42083 0.0
C495 C 0.19732 0.13294 0.41638 0.0
H496 H 0.18387 0.07612 0.41379 0.0
H497 H 0.17153 0.2947 0.37611 0.0
H498 H 0.38767 0.85383 0.7251 0.0
H499 H 0.40903 0.86617 0.76242 0.0
H500 H 0.40428 0.93478 0.74646 0.0
H501 H 0.38326 0.92261 0.70891 0.0
H502 H 0.44869 0.92934 0.76426 0.0
H503 H 0.36519 0.90747 0.78434 0.0
H504 H 0.32726 0.88136 0.78538 0.0
H505 H 0.35983 0.83435 0.82522 0.0
H506 H 0.39807 0.86009 0.82411 0.0
H507 H 0.455 0.98601 0.87783 0.0
H508 H 0.44811 0.9691 0.83742 0.0
H509 H 0.44555 0.90346 0.86783 0.0
H510 H 0.45176 0.92042 0.90851 0.0
H511 H 0.40869 0.90374 0.84211 0.0
H512 H 0.49163 0.92606 0.82497 0.0
H513 H 0.53023 0.95117 0.82288 0.0
H514 H 0.49992 0.99645 0.77836 0.0
H515 H 0.46122 0.97149 0.77993 0.0
C516 C 0.39151 0.87157 0.72937 0.0
C517 C 0.38366 0.88727 0.71422 0.0
C518 C 0.40361 0.87857 0.7507 0.0
C519 C 0.40805 0.90135 0.75722 0.0
C520 C 0.40101 0.91712 0.7417 0.0
C521 C 0.38881 0.91014 0.72043 0.0
C522 C 0.41864 0.90868 0.78095 0.0
C523 C 0.43997 0.92385 0.78134 0.0
C524 C 0.40753 0.90099 0.80312 0.0
C525 C 0.38453 0.88558 0.80389 0.0
C526 C 0.3643 0.89149 0.79315 0.0
C527 C 0.34275 0.87677 0.79378 0.0
C528 C 0.34115 0.85618 0.8053 0.0
C529 C 0.3611 0.85029 0.81627 0.0
C530 C 0.38272 0.86493 0.81565 0.0
C531 C 0.45343 0.96801 0.87578 0.0
C532 C 0.4537 0.95447 0.89623 0.0
C533 C 0.44968 0.95834 0.85265 0.0
C534 C 0.44654 0.93498 0.84948 0.0
C535 C 0.44789 0.92151 0.86982 0.0
C536 C 0.45134 0.93117 0.89302 0.0
C537 C 0.43885 0.92463 0.82566 0.0
C538 C 0.41785 0.90894 0.82516 0.0
C539 C 0.45038 0.93177 0.80344 0.0
C540 C 0.47351 0.94699 0.80273 0.0
C541 C 0.49317 0.94144 0.81486 0.0
C542 C 0.51508 0.9556 0.81369 0.0
C543 C 0.51748 0.97545 0.80063 0.0
C544 C 0.49803 0.98109 0.78851 0.0
C545 C 0.47614 0.96688 0.78942 0.0
H546 H 0.53443 0.98643 0.79984 0.0
H547 H 0.32444 0.84481 0.80578 0.0
H548 H 0.58722 0.41128 0.76827 0.0
H549 H 0.5714 0.43009 0.73468 0.0
H550 H 0.62758 0.4138 0.68732 0.0
H551 H 0.64401 0.39597 0.72128 0.0
H552 H 0.62256 0.45271 0.67703 0.0
H553 H 0.56539 0.3865 0.68596 0.0
H554 H 0.5363 0.35831 0.70695 0.0
H555 H 0.49335 0.40848 0.72511 0.0
H556 H 0.52236 0.43705 0.7045 0.0
H557 H 0.56756 0.47517 0.566 0.0
H558 H 0.5827 0.45609 0.59973 0.0
H559 H 0.53793 0.48626 0.65009 0.0
H560 H 0.52271 0.50556 0.61637 0.0
H561 H 0.53679 0.44032 0.65816 0.0
H562 H 0.59586 0.5061 0.64681 0.0
H563 H 0.62493 0.53208 0.62302 0.0
H564 H 0.66445 0.47902 0.60608 0.0
H565 H 0.63536 0.4526 0.62943 0.0
C566 C 0.5961 0.41159 0.75065 0.0
C567 C 0.61687 0.40203 0.74752 0.0
C568 C 0.58696 0.42229 0.7313 0.0
C569 C 0.5979 0.42317 0.70801 0.0
C570 C 0.61865 0.41353 0.70493 0.0
C571 C 0.62807 0.40325 0.7244 0.0
C572 C 0.58817 0.43455 0.68711 0.0
C573 C 0.60383 0.44963 0.67281 0.0
C574 C 0.56364 0.43107 0.68143 0.0
C575 C 0.54619 0.41396 0.69391 0.0
C576 C 0.54984 0.39156 0.6946 0.0
C577 C 0.53335 0.37551 0.7064 0.0
C578 C 0.51302 0.38162 0.71742 0.0
C579 C 0.50912 0.40378 0.7166 0.0
C580 C 0.52558 0.41991 0.70485 0.0
C581 C 0.5609 0.47785 0.58422 0.0
C582 C 0.54394 0.4921 0.58833 0.0
C583 C 0.56967 0.46691 0.60357 0.0
C584 C 0.56164 0.46979 0.62761 0.0
C585 C 0.54448 0.48376 0.63177 0.0
C586 C 0.53588 0.49491 0.61243 0.0
C587 C 0.57119 0.4583 0.64834 0.0
C588 C 0.5555 0.44325 0.66252 0.0
C589 C 0.59573 0.46143 0.65358 0.0
C590 C 0.61329 0.47732 0.63966 0.0
C591 C 0.61063 0.49992 0.63784 0.0
C592 C 0.62712 0.51473 0.62445 0.0
C593 C 0.64647 0.50718 0.61298 0.0
C594 C 0.64941 0.48481 0.61492 0.0
C595 C 0.63293 0.46992 0.62823 0.0
H596 H 0.65923 0.51867 0.60263 0.0
H597 H 0.50027 0.36916 0.72654 0.0
H598 H 0.89761 0.59639 0.26223 0.0
H599 H 0.91373 0.57769 0.22761 0.0
H600 H 0.94545 0.64163 0.19893 0.0
H601 H 0.92836 0.6606 0.23303 0.0
H602 H 0.92733 0.61585 0.16285 0.0
H603 H 0.97878 0.60654 0.22764 0.0
H604 H 0.99005 0.59648 0.2686 0.0
H605 H 0.95864 0.52809 0.25535 0.0
H606 H 0.94688 0.53779 0.2144 0.0
H607 H 1.00546 0.5685 0.07962 0.0
H608 H 0.98971 0.58939 0.11314 0.0
H609 H 0.94782 0.52833 0.1389 0.0
H610 H 0.96326 0.50741 0.10524 0.0
H611 H 0.97262 0.55384 0.176 0.0
H612 H 0.92175 0.56499 0.1097 0.0
H613 H 0.91346 0.57644 0.06829 0.0
H614 H 0.94753 0.64352 0.08425 0.0
H615 H 0.9564 0.63238 0.12564 0.0
C616 C 0.90778 0.60659 0.24848 0.0
C617 C 0.91158 0.63012 0.25061 0.0
C618 C 0.91728 0.59579 0.22874 0.0
C619 C 0.93117 0.60814 0.21067 0.0
C620 C 0.9349 0.63164 0.2126 0.0
C621 C 0.92529 0.64249 0.23232 0.0
C622 C 0.94162 0.59649 0.18979 0.0
C623 C 0.93752 0.60251 0.1658 0.0
C624 C 0.95477 0.57887 0.1934 0.0
C625 C 0.96174 0.57294 0.21803 0.0
C626 C 0.9741 0.58938 0.23353 0.0
C627 C 0.9806 0.58374 0.25674 0.0
C628 C 0.975 0.56167 0.2646 0.0
C629 C 0.96293 0.54518 0.24924 0.0
C630 C 0.95636 0.55074 0.22603 0.0
C631 C 0.99275 0.55956 0.09231 0.0
C632 C 0.98553 0.5363 0.0897 0.0
C633 C 0.98375 0.57152 0.11148 0.0
C634 C 0.96747 0.56048 0.12854 0.0
C635 C 0.96035 0.53724 0.126 0.0
C636 C 0.96913 0.52531 0.1067 0.0
C637 C 0.95807 0.57304 0.14921 0.0
C638 C 0.96244 0.5672 0.17313 0.0
C639 C 0.94551 0.59103 0.14552 0.0
C640 C 0.93995 0.59779 0.12071 0.0
C641 C 0.92765 0.58214 0.10433 0.0
C642 C 0.92282 0.58858 0.08086 0.0
C643 C 0.93001 0.61068 0.07363 0.0
C644 C 0.942 0.62639 0.08987 0.0
C645 C 0.94692 0.62003 0.11334 0.0
H646 H 0.92623 0.61565 0.05548 0.0
H647 H 0.98007 0.55733 0.28257 0.0
H648 H 0.37971 0.17064 0.19733 0.0
H649 H 0.40199 0.1437 0.17811 0.0
H650 H 0.43517 0.19427 0.12854 0.0
H651 H 0.4133 0.22156 0.14804 0.0
H652 H 0.419 0.15579 0.1048 0.0
H653 H 0.46582 0.17833 0.17373 0.0
H654 H 0.4752 0.18626 0.21692 0.0
H655 H 0.45356 0.11686 0.23348 0.0
H656 H 0.44341 0.10857 0.1905 0.0
H657 H 0.51643 0.0811 0.09136 0.0
H658 H 0.49947 0.10989 0.11402 0.0
H659 H 0.42931 0.07955 0.09199 0.0
H660 H 0.4462 0.05084 0.06885 0.0
H661 H 0.46828 0.111 0.15076 0.0
H662 H 0.3981 0.12171 0.07837 0.0
H663 H 0.39252 0.11576 0.03418 0.0
H664 H 0.468 0.12314 1.0229 0.0
H665 H 0.4741 0.12992 0.06688 0.0
C666 C 0.39204 0.1762 0.18262 0.0
C667 C 0.39475 0.19835 0.17431 0.0
C668 C 0.40471 0.16072 0.17159 0.0
C669 C 0.42037 0.16702 0.15202 0.0
C670 C 0.42314 0.18906 0.14362 0.0
C671 C 0.41054 0.20461 0.15472 0.0
C672 C 0.4332 0.15032 0.13984 0.0
C673 C 0.42978 0.14602 0.11485 0.0
C674 C 0.44773 0.13792 0.15287 0.0
C675 C 0.45355 0.14287 0.17887 0.0
C676 C 0.46272 0.16479 0.18662 0.0
C677 C 0.46819 0.16936 0.21108 0.0
C678 C 0.46487 0.1521 0.22796 0.0
C679 C 0.45605 0.13023 0.2204 0.0
C680 C 0.45041 0.12559 0.19599 0.0
C681 C 0.49737 0.0804 0.09146 0.0
C682 C 0.4827 0.06382 0.07801 0.0
C683 C 0.4877 0.09684 0.10454 0.0
C684 C 0.46319 0.09709 0.10436 0.0
C685 C 0.44834 0.07988 0.09203 0.0
C686 C 0.45801 0.06342 0.0789 0.0
C687 C 0.45332 0.11596 0.11599 0.0
C688 C 0.45741 0.12075 0.14079 0.0
C689 C 0.43991 0.12921 0.10268 0.0
C690 C 0.43651 0.12606 0.07601 0.0
C691 C 0.41352 0.12227 0.06644 0.0
C692 C 0.41027 0.11879 0.04142 0.0
C693 C 0.4299 0.11906 0.02575 0.0
C694 C 0.45282 0.12297 0.03506 0.0
C695 C 0.45618 0.12667 0.06004 0.0
H696 H 0.42734 0.11625 1.0064 0.0
H697 H 0.46924 0.15564 0.24686 0.0
H698 H 0.23179 0.92381 0.56954 0.0
H699 H 0.19822 0.94251 0.56048 0.0
H700 H 0.14987 0.88663 0.58976 0.0
H701 H 0.18368 0.86739 0.59782 0.0
H702 H 0.1309 0.90153 0.55179 0.0
H703 H 0.16509 0.93503 0.62368 0.0
H704 H 0.19677 0.95234 0.65113 0.0
H705 H 0.21402 1.00787 0.60291 0.0
H706 H 0.18268 0.99074 0.57497 0.0
H707 H 0.06778 1.00765 0.56746 0.0
H708 H 0.09255 0.98216 0.58364 0.0
H709 H 0.10716 0.96013 0.51051 0.0
H710 H 0.08175 0.98507 0.49433 0.0
H711 H 0.13712 0.98091 0.57881 0.0
H712 H 0.1139 0.90615 0.50932 0.0
H713 H 0.0788 0.88801 0.4868 0.0
H714 H 0.03285 0.9125 0.54004 0.0
H715 H 0.06761 0.93046 0.56309 0.0
C716 C 0.21396 0.91552 0.57387 0.0
C717 C 0.21015 0.89437 0.58455 0.0
C718 C 0.19483 0.92621 0.56884 0.0
C719 C 0.17159 0.91623 0.57506 0.0
C720 C 0.16767 0.89469 0.58498 0.0
C721 C 0.18689 0.88376 0.58961 0.0
C722 C 0.15169 0.92872 0.57154 0.0
C723 C 0.13215 0.91884 0.5578 0.0
C724 C 0.1528 0.951 0.58031 0.0
C725 C 0.17158 0.96152 0.59716 0.0
C726 C 0.17572 0.95087 0.61885 0.0
C727 C 0.19362 0.96066 0.63451 0.0
C728 C 0.20742 0.98118 0.62875 0.0
C729 C 0.20331 0.99198 0.60735 0.0
C730 C 0.18546 0.98225 0.59161 0.0
C731 C 0.07626 0.99731 0.55487 0.0
C732 C 0.07288 0.99821 0.52968 0.0
C733 C 0.09037 0.98277 0.56413 0.0
C734 C 0.1014 0.96902 0.54831 0.0
C735 C 0.09837 0.97023 0.52308 0.0
C736 C 0.08407 0.98462 0.51384 0.0
C737 C 0.11699 0.95411 0.55802 0.0
C738 C 0.13567 0.96352 0.57304 0.0
C739 C 0.11447 0.93118 0.55131 0.0
C740 C 0.09343 0.91982 0.53784 0.0
C741 C 0.09632 0.90754 0.51633 0.0
C742 C 0.07646 0.89731 0.50344 0.0
C743 C 0.05361 0.89917 0.51194 0.0
C744 C 0.05055 0.91114 0.53342 0.0
C745 C 0.07033 0.92136 0.54639 0.0
H746 H 0.03827 0.8913 0.5019 0.0
H747 H 0.22127 0.98872 0.64089 0.0
H748 H 0.76772 0.43945 0.8992 0.0
H749 H 0.80366 0.45797 0.91927 0.0
H750 H 0.82652 0.39414 0.92783 0.0
H751 H 0.79078 0.37552 0.90759 0.0
H752 H 0.83292 0.41794 0.96904 0.0
H753 H 0.852 0.4322 0.8847 0.0
H754 H 0.84603 0.44551 0.84346 0.0
H755 H 0.84664 0.51214 0.87183 0.0
H756 H 0.8523 0.49916 0.91332 0.0
H757 H 0.95302 0.45592 1.00015 0.0
H758 H 0.91641 0.43896 0.98036 0.0
H759 H 0.89635 0.50414 0.97299 0.0
H760 H 0.93324 0.52135 0.99248 0.0
H761 H 0.8879 0.48055 0.93173 0.0
H762 H 0.86963 0.46642 1.01601 0.0
H763 H 0.8758 0.4531 0.0572 0.0
H764 H 0.87366 0.38623 0.02896 0.0
H765 H 0.86781 0.39921 0.98753 0.0
C766 C 0.7805 0.42932 0.90504 0.0
C767 C 0.77617 0.40589 0.90166 0.0
C768 C 0.8011 0.43998 0.91661 0.0
C769 C 0.81805 0.42754 0.92499 0.0
C770 C 0.81377 0.40418 0.92167 0.0
C771 C 0.7932 0.39351 0.91012 0.0
C772 C 0.84003 0.43876 0.93752 0.0
C773 C 0.84507 0.43144 0.9607 0.0
C774 C 0.85571 0.45681 0.92707 0.0
C775 C 0.85232 0.46466 0.90215 0.0
C776 C 0.85066 0.44965 0.88218 0.0
C777 C 0.84737 0.45714 0.85875 0.0
C778 C 0.84589 0.47964 0.85504 0.0
C779 C 0.84775 0.49471 0.87474 0.0
C780 C 0.85102 0.4873 0.89821 0.0
C781 C 0.9408 0.46672 0.99449 0.0
C782 C 0.94616 0.49007 0.9981 0.0
C783 C 0.91975 0.45693 0.9832 0.0
C784 C 0.90332 0.47016 0.97536 0.0
C785 C 0.90863 0.4935 0.97886 0.0
C786 C 0.92974 0.50333 0.99015 0.0
C787 C 0.88085 0.45966 0.9632 0.0
C788 C 0.87571 0.4671 0.9401 0.0
C789 C 0.86506 0.44172 0.97372 0.0
C790 C 0.8685 0.43384 0.99863 0.0
C791 C 0.87066 0.44891 1.01855 0.0
C792 C 0.87407 0.44141 0.04195 0.0
C793 C 0.87518 0.41884 0.04568 0.0
C794 C 0.87283 0.40371 0.02604 0.0
C795 C 0.86944 0.41112 1.00259 0.0
H796 H 0.87782 0.41307 0.06381 0.0
H797 H 0.84335 0.48541 0.83689 0.0
H798 H 0.75501 0.59746 0.4005 0.0
H799 H 0.71778 0.5805 0.42027 0.0
H800 H 0.70003 0.64609 0.4347 0.0
H801 H 0.73689 0.66315 0.41465 0.0
H802 H 0.69322 0.62043 0.47477 0.0
H803 H 0.67266 0.61194 0.38995 0.0
H804 H 0.67732 0.59951 0.34738 0.0
H805 H 0.66934 0.53121 0.3702 0.0
H806 H 0.66495 0.54327 0.41298 0.0
H807 H 0.57287 0.59767 0.50861 0.0
H808 H 0.61015 0.60988 0.48664 0.0
H809 H 0.61915 0.54107 0.47525 0.0
H810 H 0.58167 0.52887 0.49745 0.0
H811 H 0.6317 0.56531 0.43446 0.0
H812 H 0.65053 0.57292 0.51863 0.0
H813 H 0.64616 0.58468 0.56146 0.0
H814 H 0.65829 0.65362 0.54049 0.0
H815 H 0.6624 0.64226 0.49746 0.0
C816 C 0.74306 0.6083 0.40756 0.0
C817 C 0.74913 0.63175 0.40598 0.0
C818 C 0.72176 0.59855 0.41894 0.0
C819 C 0.70599 0.61198 0.42894 0.0
C820 C 0.71193 0.63534 0.42727 0.0
C821 C 0.73313 0.64509 0.41586 0.0
C822 C 0.68355 0.60191 0.44167 0.0
C823 C 0.67967 0.60857 0.46583 0.0
C824 C 0.66616 0.58581 0.43038 0.0
C825 C 0.66874 0.57854 0.40468 0.0
C826 C 0.6721 0.59429 0.38591 0.0
C827 C 0.67466 0.58731 0.36174 0.0
C828 C 0.6737 0.56459 0.3561 0.0
C829 C 0.67012 0.5488 0.37461 0.0
C830 C 0.66758 0.5557 0.39881 0.0
C831 C 0.58271 0.58509 0.50133 0.0
C832 C 0.57412 0.56221 0.5045 0.0
C833 C 0.6041 0.59211 0.48881 0.0
C834 C 0.6177 0.57644 0.47947 0.0
C835 C 0.60896 0.55351 0.48218 0.0
C836 C 0.58741 0.54648 0.49469 0.0
C837 C 0.64119 0.58421 0.46739 0.0
C838 C 0.64531 0.57708 0.44343 0.0
C839 C 0.65893 0.59979 0.4789 0.0
C840 C 0.65658 0.60672 0.50478 0.0
C841 C 0.6521 0.59058 0.52312 0.0
C842 C 0.64969 0.59718 0.54744 0.0
C843 C 0.6519 0.61988 0.55368 0.0
C844 C 0.65657 0.63604 0.53562 0.0
C845 C 0.65896 0.62953 0.51126 0.0
H846 H 0.65003 0.62495 0.57252 0.0
H847 H 0.67568 0.55922 0.33738 0.0
H848 H 0.2326 0.33641 0.19126 0.0
H849 H 0.2045 0.35578 0.17085 0.0
H850 H 0.25598 0.37484 0.11339 0.0
H851 H 0.28462 0.35563 0.13412 0.0
H852 H 0.23214 0.40997 0.12945 0.0
H853 H 0.21261 0.33425 0.10183 0.0
H854 H 0.20355 0.29325 0.10568 0.0
H855 H 0.14167 0.2996 0.14928 0.0
H856 H 0.15055 0.34069 0.146 0.0
H857 H 0.14161 0.44208 0.05429 0.0
H858 H 0.17449 0.42511 0.06965 0.0
H859 H 0.13102 0.39963 0.13124 0.0
H860 H 0.09802 0.41628 0.11585 0.0
H861 H 0.15304 0.36756 0.10862 0.0
H862 H 0.17419 0.44323 0.13857 0.0
H863 H 0.18312 0.48427 0.13491 0.0
H864 H 0.24182 0.47798 0.08663 0.0
H865 H 0.23302 0.43683 0.08974 0.0
C866 C 0.23812 0.34494 0.17444 0.0
C867 C 0.2609 0.34461 0.16437 0.0
C868 C 0.22194 0.35584 0.16269 0.0
C869 C 0.22808 0.36657 0.14052 0.0
C870 C 0.25091 0.3666 0.13048 0.0
C871 C 0.26716 0.35553 0.14223 0.0
C872 C 0.21031 0.37746 0.12799 0.0
C873 C 0.21501 0.40066 0.12443 0.0
C874 C 0.18783 0.36532 0.12185 0.0
C875 C 0.18236 0.34059 0.12382 0.0
C876 C 0.19717 0.32693 0.1124 0.0
C877 C 0.19205 0.30366 0.11446 0.0
C878 C 0.17208 0.29383 0.12776 0.0
C879 C 0.15715 0.30724 0.13899 0.0
C880 C 0.1622 0.33052 0.13702 0.0
C881 C 0.1391 0.43288 0.07113 0.0
C882 C 0.11724 0.4305 0.08388 0.0
C883 C 0.15793 0.42333 0.07994 0.0
C884 C 0.1552 0.41119 0.10162 0.0
C885 C 0.13348 0.40896 0.11448 0.0
C886 C 0.11472 0.41862 0.10578 0.0
C887 C 0.17466 0.40014 0.11056 0.0
C888 C 0.17026 0.37685 0.11339 0.0
C889 C 0.19737 0.41221 0.11597 0.0
C890 C 0.20277 0.43694 0.11416 0.0
C891 C 0.18887 0.45058 0.127 0.0
C892 C 0.19393 0.47386 0.12506 0.0
C893 C 0.21297 0.48372 0.11049 0.0
C894 C 0.22704 0.47031 0.09788 0.0
C895 C 0.22204 0.44701 0.09973 0.0
H896 H 0.21686 0.50175 0.10903 0.0
H897 H 0.16814 0.27581 0.12932 0.0
H898 H 0.642 0.245 0.92572 0.0
H899 H 0.62524 0.20933 0.94382 0.0
H900 H 0.56526 0.20385 0.89655 0.0
H901 H 0.58255 0.23877 0.87693 0.0
H902 H 0.55731 0.19691 0.95306 0.0
H903 H 0.59752 0.17257 0.88062 0.0
H904 H 0.63261 0.17249 0.85372 0.0
H905 H 0.67097 0.15072 0.91285 0.0
H906 H 0.6362 0.15102 0.9402 0.0
H907 H 0.49773 0.08855 0.97695 0.0
H908 H 0.51641 0.12337 0.95844 0.0
H909 H 0.58539 0.10916 0.97754 0.0
H910 H 0.56655 0.0733 0.99482 0.0
H911 H 0.59063 0.12725 0.9367 0.0
H912 H 0.55406 0.14952 1.00921 0.0
H913 H 0.52272 0.15214 0.04017 0.0
H914 H 0.48191 0.18039 0.98756 0.0
H915 H 0.51282 0.17761 0.95614 0.0
C916 C 0.6255 0.23617 0.91861 0.0
C917 C 0.61393 0.24512 0.89946 0.0
C918 C 0.6158 0.21575 0.92929 0.0
C919 C 0.594 0.20385 0.92156 0.0
C920 C 0.58208 0.21277 0.90289 0.0
C921 C 0.59201 0.23296 0.89179 0.0
C922 C 0.58368 0.18215 0.93303 0.0
C923 C 0.56431 0.18157 0.94926 0.0
C924 C 0.59355 0.16239 0.92899 0.0
C925 C 0.61436 0.16207 0.91251 0.0
C926 C 0.61352 0.16799 0.88794 0.0
C927 C 0.63333 0.16786 0.8726 0.0
C928 C 0.65403 0.16167 0.88159 0.0
C929 C 0.65494 0.15555 0.90592 0.0
C930 C 0.63518 0.15568 0.92134 0.0
C931 C 0.51691 0.09277 0.97717 0.0
C932 C 0.53064 0.07815 0.9875 0.0
C933 C 0.52763 0.11292 0.96675 0.0
C934 C 0.55242 0.11953 0.96706 0.0
C935 C 0.56624 0.10472 0.97708 0.0
C936 C 0.55548 0.0842 0.98704 0.0
C937 C 0.5637 0.14165 0.95663 0.0
C938 C 0.58341 0.14245 0.94066 0.0
C939 C 0.55455 0.16182 0.9615 0.0
C940 C 0.53571 0.1632 0.98025 0.0
C941 C 0.53832 0.15612 1.00417 0.0
C942 C 0.52065 0.15768 1.02182 0.0
C943 C 0.50038 0.16648 1.01584 0.0
C944 C 0.49766 0.17362 0.99217 0.0
C945 C 0.51525 0.17207 0.97443 0.0
H946 H 0.48678 0.16778 0.02956 0.0
H947 H 0.66935 0.16157 0.86968 0.0
H948 H 0.88804 0.80853 0.38869 0.0
H949 H 0.90474 0.84414 0.40832 0.0
H950 H 0.95817 0.81233 0.44153 0.0
H951 H 0.94171 0.77665 0.42161 0.0
H952 H 0.93371 0.84035 0.47431 0.0
H953 H 0.97562 0.84365 0.39701 0.0
H954 H 0.97861 0.84154 0.35221 0.0
H955 H 0.9379 0.89494 0.34666 0.0
H956 H 0.93437 0.89713 0.39146 0.0
H957 H 1.00549 0.93917 0.51885 0.0
H958 H 0.99033 0.90307 0.49981 0.0
H959 H 0.95022 0.93586 0.44983 0.0
H960 H 0.96621 0.97216 0.4682 0.0
H961 H 0.96813 0.9064 0.42576 0.0
H962 H 0.92462 0.90372 0.50124 0.0
H963 H 0.91856 0.90585 0.54575 0.0
H964 H 0.95806 0.85206 0.555 0.0
H965 H 0.9646 0.84977 0.51054 0.0
C966 C 0.90337 0.80912 0.40015 0.0
C967 C 0.91358 0.78977 0.40355 0.0
C968 C 0.91292 0.82949 0.41132 0.0
C969 C 0.93271 0.83093 0.42642 0.0
C970 C 0.94288 0.81162 0.43 0.0
C971 C 0.93357 0.7913 0.41846 0.0
C972 C 0.94279 0.85266 0.43829 0.0
C973 C 0.94157 0.85474 0.46377 0.0
C974 C 0.95233 0.87162 0.4245 0.0
C975 C 0.95453 0.8704 0.39758 0.0
C976 C 0.96713 0.85481 0.38623 0.0
C977 C 0.96896 0.85362 0.36084 0.0
C978 C 0.9584 0.86806 0.34659 0.0
C979 C 0.94604 0.88375 0.35772 0.0
C980 C 0.94414 0.88498 0.38311 0.0
C981 C 0.99337 0.9387 0.50385 0.0
C982 C 0.98699 0.9586 0.49513 0.0
C983 C 0.98456 0.91796 0.49303 0.0
C984 C 0.96866 0.91648 0.47357 0.0
C985 C 0.96239 0.9364 0.46479 0.0
C986 C 0.97152 0.9572 0.47535 0.0
C987 C 0.95905 0.89434 0.46199 0.0
C988 C 0.96032 0.89212 0.43647 0.0
C989 C 0.94916 0.87536 0.47578 0.0
C990 C 0.94533 0.87674 0.50255 0.0
C991 C 0.93219 0.89247 0.51278 0.0
C992 C 0.92864 0.89368 0.538 0.0
C993 C 0.93801 0.87917 0.5532 0.0
C994 C 0.95088 0.86334 0.5432 0.0
C995 C 0.95448 0.86206 0.51799 0.0
H996 H 0.93524 0.8801 0.57271 0.0
H997 H 0.95984 0.86712 0.32694 0.0
H998 H 0.40253 0.7992 0.52959 0.0
H999 H 0.42102 0.77091 0.50871 0.0
H1000 H 0.35269 0.7393 0.48237 0.0
H1001 H 0.33375 0.76686 0.50523 0.0
H1002 H 0.36975 0.71016 0.50294 0.0
H1003 H 0.40372 0.75775 0.44216 0.0
H1004 H 0.42276 0.79209 0.42172 0.0
H1005 H 0.48606 0.79198 0.46262 0.0
H1006 H 0.46734 0.75787 0.48363 0.0
H1007 H 0.44842 0.62762 0.49234 0.0
H1008 H 0.4294 0.65612 0.47261 0.0
H1009 H 0.45197 0.70269 0.53112 0.0
H1010 H 0.47027 0.67407 0.55126 0.0
H1011 H 0.45361 0.71845 0.47421 0.0
H1012 H 0.40354 0.68135 0.54502 0.0
H1013 H 0.38433 0.64593 0.56346 0.0
H1014 H 0.35093 0.62523 0.49555 0.0
H1015 H 0.37021 0.66047 0.47672 0.0
C1016 C 0.39144 0.78642 0.51906 0.0
C1017 C 0.36662 0.78484 0.5197 0.0
C1018 C 0.40213 0.77043 0.50657 0.0
C1019 C 0.38835 0.75282 0.49375 0.0
C1020 C 0.36374 0.75262 0.4922 0.0
C1021 C 0.35292 0.76847 0.50517 0.0
C1022 C 0.39904 0.73272 0.48685 0.0
C1023 C 0.38774 0.71195 0.49562 0.0
C1024 C 0.42246 0.73457 0.47708 0.0
C1025 C 0.43407 0.75512 0.46446 0.0
C1026 C 0.42166 0.76508 0.4469 0.0
C1027 C 0.43242 0.78453 0.4352 0.0
C1028 C 0.45561 0.7942 0.44085 0.0
C1029 C 0.46812 0.78443 0.4582 0.0
C1030 C 0.45746 0.76498 0.46996 0.0
C1031 C 0.44965 0.64412 0.50067 0.0
C1032 C 0.46058 0.64879 0.52332 0.0
C1033 C 0.43897 0.66033 0.48934 0.0
C1034 C 0.43962 0.68146 0.50034 0.0
C1035 C 0.45167 0.68651 0.52227 0.0
C1036 C 0.46186 0.67018 0.53385 0.0
C1037 C 0.4246 0.69715 0.4916 0.0
C1038 C 0.43517 0.71678 0.48007 0.0
C1039 C 0.40031 0.69418 0.49806 0.0
C1040 C 0.38832 0.67337 0.5095 0.0
C1041 C 0.39213 0.66919 0.53407 0.0
C1042 C 0.38126 0.64917 0.54456 0.0
C1043 C 0.36643 0.63333 0.53068 0.0
C1044 C 0.36242 0.6375 0.50628 0.0
C1045 C 0.3733 0.65748 0.49569 0.0
H1046 H 0.35804 0.61783 0.53883 0.0
H1047 H 0.46389 0.80926 0.43178 0.0
H1048 H 0.80147 0.79213 0.72521 0.0
H1049 H 0.83392 0.81093 0.69993 0.0
H1050 H 0.78465 0.84286 0.66014 0.0
H1051 H 0.75171 0.82393 0.68551 0.0
H1052 H 0.82823 0.82564 0.63229 0.0
H1053 H 0.80513 0.87376 0.69762 0.0
H1054 H 0.79401 0.88109 0.74026 0.0
H1055 H 0.86049 0.8653 0.76411 0.0
H1056 H 0.8718 0.85748 0.72159 0.0
H1057 H 0.91098 0.91911 0.59068 0.0
H1058 H 0.87679 0.89299 0.60529 0.0
H1059 H 0.91752 0.87638 0.66577 0.0
H1060 H 0.95141 0.90339 0.652 0.0
H1061 H 0.87664 0.88527 0.68139 0.0
H1062 H 0.90157 0.83905 0.61752 0.0
H1063 H 0.91397 0.83072 0.57556 0.0
H1064 H 0.84649 0.84155 0.5492 0.0
H1065 H 0.83372 0.85012 0.59103 0.0
C1066 C 0.79731 0.80253 0.71057 0.0
C1067 C 0.77398 0.80656 0.70737 0.0
C1068 C 0.81592 0.8133 0.69619 0.0
C1069 C 0.81161 0.82822 0.67825 0.0
C1070 C 0.78822 0.83124 0.67384 0.0
C1071 C 0.7695 0.82059 0.68844 0.0
C1072 C 0.83192 0.84291 0.66694 0.0
C1073 C 0.83868 0.83892 0.64278 0.0
C1074 C 0.84578 0.85977 0.68097 0.0
C1075 C 0.83918 0.8648 0.70648 0.0
C1076 C 0.81727 0.87165 0.71198 0.0
C1077 C 0.81095 0.87593 0.73612 0.0
C1078 C 0.8265 0.8736 0.75489 0.0
C1079 C 0.84844 0.86706 0.74955 0.0
C1080 C 0.85482 0.86271 0.72544 0.0
C1081 C 0.91269 0.90993 0.60712 0.0
C1082 C 0.93391 0.91353 0.62029 0.0
C1083 C 0.89319 0.89476 0.61527 0.0
C1084 C 0.89461 0.88261 0.63656 0.0
C1085 C 0.91602 0.88558 0.64928 0.0
C1086 C 0.93548 0.90088 0.64125 0.0
C1087 C 0.87332 0.86808 0.64658 0.0
C1088 C 0.86629 0.87208 0.67066 0.0
C1089 C 0.85943 0.85118 0.63247 0.0
C1090 C 0.86676 0.84541 0.60739 0.0
C1091 C 0.8894 0.83974 0.60276 0.0
C1092 C 0.89649 0.83496 0.57901 0.0
C1093 C 0.88107 0.8357 0.55971 0.0
C1094 C 0.85843 0.84103 0.56416 0.0
C1095 C 0.85123 0.84578 0.58791 0.0
H1096 H 0.88665 0.83211 0.54131 0.0
H1097 H 0.82158 0.87693 0.77357 0.0
H1098 H 0.63593 0.12209 0.35671 0.0
H1099 H 0.61613 0.10739 0.31934 0.0
H1100 H 0.62871 0.17353 0.2889 0.0
H1101 H 0.64831 0.18839 0.32644 0.0
H1102 H 0.58541 0.14854 0.27433 0.0
H1103 H 0.66811 0.14032 0.27818 0.0
H1104 H 0.70279 0.1285 0.29715 0.0
H1105 H 0.66786 0.06014 0.29558 0.0
H1106 H 0.6328 0.07163 0.27695 0.0
H1107 H 0.59369 0.12161 0.14778 0.0
H1108 H 0.59893 0.13598 0.18957 0.0
H1109 H 0.59067 0.06838 0.21588 0.0
H1110 H 0.58554 0.05394 0.17415 0.0
H1111 H 0.62911 0.0932 0.23372 0.0
H1112 H 0.54746 0.10092 0.22631 0.0
H1113 H 0.51337 0.11282 0.20625 0.0
H1114 H 0.546 0.18159 0.21345 0.0
H1115 H 0.58044 0.17011 0.23331 0.0
C1116 C 0.6341 0.13354 0.34219 0.0
C1117 C 0.64396 0.15629 0.34424 0.0
C1118 C 0.62272 0.12516 0.32094 0.0
C1119 C 0.62135 0.13933 0.30125 0.0
C1120 C 0.62961 0.16235 0.30391 0.0
C1121 C 0.64083 0.17079 0.3253 0.0
C1122 C 0.61418 0.12972 0.27706 0.0
C1123 C 0.59498 0.13653 0.26533 0.0
C1124 C 0.62654 0.11383 0.26555 0.0
C1125 C 0.64775 0.10686 0.27641 0.0
C1126 C 0.66777 0.12279 0.28203 0.0
C1127 C 0.6875 0.11615 0.29271 0.0
C1128 C 0.68751 0.09359 0.29762 0.0
C1129 C 0.66781 0.07762 0.2918 0.0
C1130 C 0.64801 0.08418 0.28117 0.0
C1131 C 0.59266 0.10984 0.16253 0.0
C1132 C 0.5894 0.08667 0.15773 0.0
C1133 C 0.59558 0.11805 0.18638 0.0
C1134 C 0.595 0.10323 0.20584 0.0
C1135 C 0.59121 0.0801 0.20111 0.0
C1136 C 0.58842 0.07189 0.17729 0.0
C1137 C 0.60017 0.11183 0.23088 0.0
C1138 C 0.61922 0.10495 0.24276 0.0
C1139 C 0.58765 0.1276 0.2424 0.0
C1140 C 0.56665 0.13463 0.2311 0.0
C1141 C 0.54743 0.11858 0.22351 0.0
C1142 C 0.52804 0.12525 0.2122 0.0
C1143 C 0.5276 0.14793 0.20847 0.0
C1144 C 0.54641 0.16402 0.2163 0.0
C1145 C 0.56586 0.15744 0.22763 0.0
H1146 H 0.5127 0.15303 0.19947 0.0
H1147 H 0.70279 0.08848 0.30589 0.0
H1148 H 0.41198 0.66996 0.33025 0.0
H1149 H 0.42725 0.65145 0.3644 0.0
H1150 H 0.43412 0.59459 0.31791 0.0
H1151 H 0.41821 0.6128 0.28396 0.0
H1152 H 0.41746 0.57951 0.35896 0.0
H1153 H 0.4833 0.63623 0.33762 0.0
H1154 H 0.50377 0.67452 0.32943 0.0
H1155 H 0.48703 0.69519 0.40203 0.0
H1156 H 0.46621 0.65708 0.41057 0.0
H1157 H 0.49251 0.52913 0.43666 0.0
H1158 H 0.47687 0.5481 0.403 0.0
H1159 H 0.46164 0.60019 0.45248 0.0
H1160 H 0.47712 0.58137 0.48616 0.0
H1161 H 0.4825 0.61779 0.41059 0.0
H1162 H 0.41728 0.56078 0.43183 0.0
H1163 H 0.39736 0.52232 0.44006 0.0
H1164 H 0.41379 0.50204 0.36723 0.0
H1165 H 0.43411 0.54033 0.35867 0.0
C1166 C 0.41693 0.65359 0.32723 0.0
C1167 C 0.41387 0.64295 0.30424 0.0
C1168 C 0.42577 0.64298 0.34683 0.0
C1169 C 0.43231 0.62161 0.34389 0.0
C1170 C 0.42925 0.61099 0.3209 0.0
C1171 C 0.42011 0.62146 0.3014 0.0
C1172 C 0.44193 0.61012 0.36472 0.0
C1173 C 0.43194 0.58786 0.36994 0.0
C1174 C 0.46046 0.62095 0.37972 0.0
C1175 C 0.473 0.64386 0.37464 0.0
C1176 C 0.48384 0.64898 0.35178 0.0
C1177 C 0.49553 0.67065 0.34709 0.0
C1178 C 0.49665 0.68729 0.36518 0.0
C1179 C 0.48613 0.68229 0.38803 0.0
C1180 C 0.4744 0.66066 0.39281 0.0
C1181 C 0.48579 0.54459 0.44045 0.0
C1182 C 0.4861 0.55358 0.4643 0.0
C1183 C 0.47676 0.55542 0.42113 0.0
C1184 C 0.46786 0.57559 0.4251 0.0
C1185 C 0.46836 0.5847 0.44883 0.0
C1186 C 0.47718 0.5738 0.46816 0.0
C1187 C 0.45816 0.58723 0.40456 0.0
C1188 C 0.46808 0.60949 0.39948 0.0
C1189 C 0.43966 0.57638 0.38963 0.0
C1190 C 0.42743 0.55336 0.3947 0.0
C1191 C 0.41682 0.54807 0.41764 0.0
C1192 C 0.40543 0.52632 0.42235 0.0
C1193 C 0.40437 0.50973 0.4042 0.0
C1194 C 0.41465 0.51489 0.38128 0.0
C1195 C 0.4261 0.53662 0.37649 0.0
H1196 H 0.39553 0.4929 0.40788 0.0
H1197 H 0.50571 0.70405 0.36151 0.0
H1198 H 0.13332 0.44898 0.79269 0.0
H1199 H 0.11665 0.46773 0.82705 0.0
H1200 H 0.08917 0.40376 0.8583 0.0
H1201 H 0.10611 0.38479 0.82409 0.0
H1202 H 0.05654 0.43218 0.86135 0.0
H1203 H 0.13895 0.43575 0.88075 0.0
H1204 H 0.18213 0.44447 0.87293 0.0
H1205 H 0.17701 0.51395 0.86505 0.0
H1206 H 0.13375 0.50559 0.8725 0.0
H1207 H 0.02653 0.47556 0.97693 0.0
H1208 H 0.0432 0.45484 0.94401 0.0
H1209 H 0.08084 0.51688 0.91559 0.0
H1210 H 0.06533 0.53742 0.94936 0.0
H1211 H 0.10844 0.48821 0.91149 0.0
H1212 H 0.02672 0.48563 0.89043 0.0
H1213 H 0.98333 0.47788 0.89716 0.0
H1214 H 0.98649 0.40818 0.90648 0.0
H1215 H 0.02995 0.41556 0.90012 0.0
C1216 C 0.12396 0.43882 0.80695 0.0
C1217 C 0.12132 0.41528 0.80557 0.0
C1218 C 0.11433 0.44962 0.82661 0.0
C1219 C 0.10187 0.43722 0.84552 0.0
C1220 C 0.09871 0.41373 0.84398 0.0
C1221 C 0.10837 0.4029 0.82431 0.0
C1222 C 0.09234 0.44879 0.86694 0.0
C1223 C 0.06793 0.44422 0.87252 0.0
C1224 C 0.10704 0.46493 0.88123 0.0
C1225 C 0.13308 0.47001 0.87697 0.0
C1226 C 0.14701 0.45286 0.87719 0.0
C1227 C 0.17151 0.45775 0.87284 0.0
C1228 C 0.1823 0.47975 0.86844 0.0
C1229 C 0.16863 0.49692 0.86844 0.0
C1230 C 0.14413 0.49212 0.87274 0.0
C1231 C 0.03853 0.48474 0.96377 0.0
C1232 C 0.04465 0.50814 0.9658 0.0
C1233 C 0.04788 0.47289 0.94473 0.0
C1234 C 0.063 0.48422 0.92681 0.0
C1235 C 0.06924 0.50762 0.92903 0.0
C1236 C 0.06028 0.5194 0.94834 0.0
C1237 C 0.07249 0.47184 0.90588 0.0
C1238 C 0.09695 0.4762 0.90038 0.0
C1239 C 0.05777 0.45571 0.8915 0.0
C1240 C 0.03161 0.45119 0.89503 0.0
C1241 C 0.01817 0.46867 0.89405 0.0
C1242 C 0.99357 0.46434 0.89779 0.0
C1243 C 0.98217 0.44256 0.90231 0.0
C1244 C 0.99535 0.42505 0.90301 0.0
C1245 C 0.01996 0.42929 0.89932 0.0
H1246 H 0.96313 0.43925 0.90522 0.0
H1247 H 0.20126 0.48349 0.86507 0.0
H1248 H 0.6733 0.87457 0.88339 0.0
H1249 H 0.65232 0.90258 0.90258 0.0
H1250 H 0.58522 0.86321 0.88283 0.0
H1251 H 0.60644 0.83563 0.86246 0.0
H1252 H 0.58179 0.90513 0.87867 0.0
H1253 H 0.60794 0.86266 0.94146 0.0
H1254 H 0.63588 0.84447 0.96467 0.0
H1255 H 0.67783 0.90851 0.97996 0.0
H1256 H 0.65032 0.92708 0.95653 0.0
H1257 H 0.51766 0.96034 0.96796 0.0
H1258 H 0.53555 0.9331 0.94377 0.0
H1259 H 0.60484 0.97253 0.95363 0.0
H1260 H 0.58713 0.9996 0.97855 0.0
H1261 H 0.60464 0.92903 0.96299 0.0
H1262 H 0.57411 0.97038 0.89849 0.0
H1263 H 0.54093 0.98562 0.88045 0.0
H1264 H 0.50162 0.91925 0.87276 0.0
H1265 H 0.53442 0.90362 0.89105 0.0
C1266 C 0.65407 0.87197 0.88311 0.0
C1267 C 0.64142 0.85288 0.87178 0.0
C1268 C 0.64207 0.88793 0.89412 0.0
C1269 C 0.61712 0.88477 0.89473 0.0
C1270 C 0.60445 0.86599 0.88272 0.0
C1271 C 0.61653 0.85022 0.8712 0.0
C1272 C 0.60448 0.90076 0.9086 0.0
C1273 C 0.58666 0.91019 0.89717 0.0
C1274 C 0.6106 0.90732 0.93286 0.0
C1275 C 0.62718 0.89624 0.94704 0.0
C1276 C 0.62322 0.87285 0.94962 0.0
C1277 C 0.63897 0.86247 0.96284 0.0
C1278 C 0.65865 0.87532 0.97373 0.0
C1279 C 0.66259 0.89858 0.97148 0.0
C1280 C 0.64692 0.90905 0.95825 0.0
C1281 C 0.5367 0.96337 0.96483 0.0
C1282 C 0.551 0.98215 0.97524 0.0
C1283 C 0.54688 0.94779 0.95088 0.0
C1284 C 0.57151 0.95088 0.94667 0.0
C1285 C 0.58578 0.96983 0.95664 0.0
C1286 C 0.57563 0.98533 0.9708 0.0
C1287 C 0.58261 0.93388 0.93283 0.0
C1288 C 0.59997 0.92409 0.94439 0.0
C1289 C 0.57555 0.9266 0.90904 0.0
C1290 C 0.55666 0.93585 0.8963 0.0
C1291 C 0.5584 0.95904 0.89292 0.0
C1292 C 0.53963 0.96775 0.88274 0.0
C1293 C 0.5191 0.95343 0.8757 0.0
C1294 C 0.51747 0.93033 0.87839 0.0
C1295 C 0.53618 0.92153 0.88859 0.0
H1296 H 0.50453 0.96023 0.868 0.0
H1297 H 0.67082 0.86725 0.98396 0.0
H1298 H 0.80604 0.11232 0.44811 0.0
H1299 H 0.83751 0.09218 0.46036 0.0
H1300 H 0.87649 0.1533 0.4903 0.0
H1301 H 0.84549 0.17381 0.47719 0.0
H1302 H 0.90614 0.12795 0.46889 0.0
H1303 H 0.84168 0.11815 0.52693 0.0
H1304 H 0.79989 0.10856 0.5405 0.0
H1305 H 0.79804 0.04119 0.51393 0.0
H1306 H 0.83974 0.05047 0.49987 0.0
H1307 H 0.94751 0.05411 0.56819 0.0
H1308 H 0.91932 0.07689 0.55295 0.0
H1309 H 0.9367 0.05918 0.47909 0.0
H1310 H 0.96474 0.03623 0.49421 0.0
H1311 H 0.8798 0.06474 0.52461 0.0
H1312 H 0.9381 0.10756 0.44523 0.0
H1313 H 0.98056 0.11979 0.43545 0.0
H1314 H 0.99618 0.12538 0.51167 0.0
H1315 H 0.95382 0.11364 0.52191 0.0
C1316 C 0.82157 0.12161 0.45674 0.0
C1317 C 0.82317 0.14462 0.46192 0.0
C1318 C 0.83944 0.11004 0.46391 0.0
C1319 C 0.85907 0.12121 0.47661 0.0
C1320 C 0.86138 0.14438 0.48064 0.0
C1321 C 0.84357 0.15601 0.47336 0.0
C1322 C 0.87625 0.10843 0.48721 0.0
C1323 C 0.90041 0.11408 0.48098 0.0
C1324 C 0.86878 0.09075 0.50354 0.0
C1325 C 0.84376 0.08506 0.51215 0.0
C1326 C 0.83231 0.10133 0.52383 0.0
C1327 C 0.80865 0.09595 0.53163 0.0
C1328 C 0.7963 0.07429 0.52803 0.0
C1329 C 0.80761 0.05796 0.51668 0.0
C1330 C 0.83127 0.06327 0.5088 0.0
C1331 C 0.9452 0.05501 0.54872 0.0
C1332 C 0.95823 0.0435 0.53233 0.0
C1333 C 0.92913 0.06797 0.54007 0.0
C1334 C 0.92616 0.06979 0.51494 0.0
C1335 C 0.93898 0.05811 0.49855 0.0
C1336 C 0.95488 0.04498 0.5072 0.0
C1337 C 0.90957 0.0839 0.50582 0.0
C1338 C 0.88552 0.07853 0.51239 0.0
C1339 C 0.91726 0.10215 0.49034 0.0
C1340 C 0.94278 0.10948 0.48431 0.0
C1341 C 0.95058 0.11149 0.4599 0.0
C1342 C 0.97463 0.11835 0.45428 0.0
C1343 C 0.99105 0.12334 0.47293 0.0
C1344 C 0.98346 0.12147 0.49724 0.0
C1345 C 0.95943 0.11469 0.50296 0.0
H1346 H 1.00964 0.12871 0.46856 0.0
H1347 H 0.77798 0.07016 0.53408 0.0
H1348 H 0.26259 0.60384 0.15599 0.0
H1349 H 0.22596 0.58514 0.13745 0.0
H1350 H 0.20803 0.64919 0.11894 0.0
H1351 H 0.24397 0.66805 0.13851 0.0
H1352 H 0.16989 0.62348 0.13521 0.0
H1353 H 0.23115 0.613 0.07629 0.0
H1354 H 0.26828 0.60074 0.06198 0.0
H1355 H 0.24025 0.53307 0.08124 0.0
H1356 H 0.20307 0.54498 0.09599 0.0
H1357 H 0.07968 0.58807 0.05004 0.0
H1358 H 0.11667 0.60483 0.06933 0.0
H1359 H 0.13128 0.53911 0.08598 0.0
H1360 H 0.09452 0.52218 0.06617 0.0
H1361 H 0.17088 0.56427 0.07179 0.0
H1362 H 0.10977 0.57369 0.12982 0.0
H1363 H 0.07237 0.58507 0.1446 0.0
H1364 H 0.09978 0.65355 0.12821 0.0
H1365 H 0.13725 0.64254 0.11299 0.0
C1366 C 0.25078 0.61403 0.14824 0.0
C1367 C 0.25652 0.63758 0.14877 0.0
C1368 C 0.22988 0.60324 0.13731 0.0
C1369 C 0.21423 0.61565 0.12633 0.0
C1370 C 0.21976 0.63913 0.12711 0.0
C1371 C 0.24056 0.64993 0.13813 0.0
C1372 C 0.19203 0.60432 0.11425 0.0
C1373 C 0.17021 0.61075 0.12111 0.0
C1374 C 0.1921 0.58712 0.09636 0.0
C1375 C 0.21443 0.57993 0.08747 0.0
C1376 C 0.23298 0.59554 0.07764 0.0
C1377 C 0.25402 0.58864 0.06943 0.0
C1378 C 0.25664 0.56615 0.07077 0.0
C1379 C 0.23821 0.55049 0.08027 0.0
C1380 C 0.21714 0.5573 0.08854 0.0
C1381 C 0.09076 0.57712 0.0577 0.0
C1382 C 0.08394 0.55372 0.05658 0.0
C1383 C 0.11192 0.58677 0.06891 0.0
C1384 C 0.12672 0.57332 0.0796 0.0
C1385 C 0.12023 0.54993 0.07799 0.0
C1386 C 0.09912 0.54025 0.06665 0.0
C1387 C 0.14882 0.58367 0.09252 0.0
C1388 C 0.17057 0.577 0.08589 0.0
C1389 C 0.14868 0.60054 0.11076 0.0
C1390 C 0.12624 0.60725 0.12006 0.0
C1391 C 0.10777 0.59116 0.12921 0.0
C1392 C 0.08656 0.59754 0.13768 0.0
C1393 C 0.08368 0.62001 0.13729 0.0
C1394 C 0.10203 0.63615 0.12848 0.0
C1395 C 0.12326 0.62985 0.11994 0.0
H1396 H 0.06725 0.62492 0.14385 0.0
H1397 H 0.27294 0.56085 0.06439 0.0
H1398 H 0.28169 0.44939 0.66267 0.0
H1399 H 0.31956 0.46656 0.64455 0.0
H1400 H 0.33177 0.40183 0.61809 0.0
H1401 H 0.29467 0.3844 0.63728 0.0
H1402 H 0.37138 0.42361 0.63441 0.0
H1403 H 0.31168 0.44206 0.58098 0.0
H1404 H 0.27609 0.45783 0.57021 0.0
H1405 H 0.30939 0.52294 0.59462 0.0
H1406 H 0.34509 0.50748 0.60584 0.0
H1407 H 0.44991 0.45108 0.5344 0.0
H1408 H 0.41438 0.43961 0.55948 0.0
H1409 H 0.42366 0.50476 0.59422 0.0
H1410 H 0.45998 0.51609 0.56961 0.0
H1411 H 0.37488 0.48652 0.57709 0.0
H1412 H 0.43648 0.46761 0.62661 0.0
H1413 H 0.47219 0.4511 0.63503 0.0
H1414 H 0.43505 0.38586 0.61587 0.0
H1415 H 0.39922 0.40204 0.60691 0.0
C1416 C 0.29254 0.43871 0.65329 0.0
C1417 C 0.28487 0.41543 0.6514 0.0
C1418 C 0.31414 0.44864 0.64264 0.0
C1419 C 0.32849 0.43561 0.62954 0.0
C1420 C 0.32107 0.41235 0.62797 0.0
C1421 C 0.29961 0.4024 0.63875 0.0
C1422 C 0.35117 0.44602 0.61734 0.0
C1423 C 0.37202 0.43725 0.62176 0.0
C1424 C 0.35236 0.46426 0.60123 0.0
C1425 C 0.33093 0.47357 0.59451 0.0
C1426 C 0.31134 0.45971 0.58423 0.0
C1427 C 0.29116 0.46859 0.57802 0.0
C1428 C 0.29045 0.49136 0.5818 0.0
C1429 C 0.30995 0.5053 0.59175 0.0
C1430 C 0.33016 0.49649 0.59803 0.0
C1431 C 0.44444 0.46303 0.54735 0.0
C1432 C 0.45763 0.48465 0.5498 0.0
C1433 C 0.42411 0.45641 0.56169 0.0
C1434 C 0.41634 0.47131 0.5787 0.0
C1435 C 0.42928 0.49303 0.58109 0.0
C1436 C 0.44995 0.49955 0.56695 0.0
C1437 C 0.39477 0.46382 0.59394 0.0
C1438 C 0.37419 0.47308 0.59002 0.0
C1439 C 0.39375 0.44592 0.61034 0.0
C1440 C 0.41521 0.43608 0.61589 0.0
C1441 C 0.43598 0.44977 0.62398 0.0
C1442 C 0.45624 0.44047 0.62889 0.0
C1443 C 0.4559 0.41745 0.62594 0.0
C1444 C 0.43529 0.40369 0.61813 0.0
C1445 C 0.41499 0.41292 0.61315 0.0
H1446 H 0.4716 0.41028 0.62976 0.0
H1447 H 0.27482 0.49821 0.57697 0.0
H1448 H 0.81298 0.73971 0.88129 0.0
H1449 H 0.83984 0.7187 0.90161 0.0
H1450 H 0.78049 0.66833 0.92166 0.0
H1451 H 0.75335 0.68979 0.90177 0.0
H1452 H 0.81235 0.67533 0.95775 0.0
H1453 H 0.81524 0.66047 0.87208 0.0
H1454 H 0.81928 0.66999 0.82858 0.0
H1455 H 0.89019 0.70432 0.84015 0.0
H1456 H 0.88644 0.6953 0.88382 0.0
H1457 H 0.88876 0.5943 0.97918 0.0
H1458 H 0.85761 0.61339 0.96349 0.0
H1459 H 0.9104 0.66972 0.9435 0.0
H1460 H 0.94151 0.65101 0.95946 0.0
H1461 H 0.87946 0.65662 0.90689 0.0
H1462 H 0.87546 0.67239 0.99322 0.0
H1463 H 0.87108 0.66233 0.03657 0.0
H1464 H 0.80183 0.62497 1.02326 0.0
H1465 H 0.80595 0.63454 0.97973 0.0
C1466 C 0.80565 0.72426 0.89025 0.0
C1467 C 0.78118 0.71619 0.88975 0.0
C1468 C 0.821 0.71223 0.90178 0.0
C1469 C 0.81225 0.69165 0.91261 0.0
C1470 C 0.78764 0.6841 0.91326 0.0
C1471 C 0.77217 0.69634 0.90194 0.0
C1472 C 0.82905 0.6777 0.92217 0.0
C1473 C 0.82681 0.67093 0.94654 0.0
C1474 C 0.84806 0.67211 0.9076 0.0
C1475 C 0.85048 0.67735 0.88127 0.0
C1476 C 0.83164 0.67017 0.86538 0.0
C1477 C 0.83389 0.67546 0.84069 0.0
C1478 C 0.85496 0.68778 0.83161 0.0
C1479 C 0.87387 0.69479 0.84721 0.0
C1480 C 0.8717 0.68957 0.87193 0.0
C1481 C 0.89372 0.61084 0.97165 0.0
C1482 C 0.91767 0.62108 0.97051 0.0
C1483 C 0.8759 0.6217 0.96266 0.0
C1484 C 0.8817 0.64302 0.95244 0.0
C1485 C 0.90556 0.65323 0.95122 0.0
C1486 C 0.92333 0.64244 0.96024 0.0
C1487 C 0.86307 0.65467 0.94258 0.0
C1488 C 0.86492 0.66091 0.91807 0.0
C1489 C 0.84368 0.6596 0.95699 0.0
C1490 C 0.84112 0.65398 0.98317 0.0
C1491 C 0.85938 0.66187 0.9995 0.0
C1492 C 0.85693 0.65629 0.02411 0.0
C1493 C 0.83621 0.64297 0.03265 0.0
C1494 C 0.81788 0.63526 1.01661 0.0
C1495 C 0.82026 0.64077 0.99197 0.0
H1496 H 0.83435 0.63866 0.05171 0.0
H1497 H 0.85666 0.69187 0.81249 0.0
H1498 H 0.3839 0.81597 0.15659 0.0
H1499 H 0.40119 0.85153 0.13831 0.0
H1500 H 0.4696 0.83003 0.13449 0.0
H1501 H 0.45242 0.79447 0.15305 0.0
H1502 H 0.47547 0.87196 0.14846 0.0
H1503 H 0.43273 0.83078 0.08328 0.0
H1504 H 0.39786 0.80921 0.06315 0.0
H1505 H 0.36045 0.86501 0.07176 0.0
H1506 H 0.39499 0.88682 0.09224 0.0
H1507 H 0.53309 0.95084 0.0644 0.0
H1508 H 0.51368 0.91659 0.08388 0.0
H1509 H 0.44848 0.94377 0.09016 0.0
H1510 H 0.46792 0.97824 0.07031 0.0
H1511 H 0.4399 0.90004 0.07581 0.0
H1512 H 0.48367 0.94159 0.13981 0.0
H1513 H 0.519 0.963 0.15927 0.0
H1514 H 0.55498 0.90613 0.15221 0.0
H1515 H 0.51997 0.88445 0.13238 0.0
C1516 C 0.40261 0.8187 0.15174 0.0
C1517 C 0.41667 0.80213 0.15623 0.0
C1518 C 0.41251 0.83913 0.1412 0.0
C1519 C 0.43672 0.84353 0.1345 0.0
C1520 C 0.4509 0.82719 0.13939 0.0
C1521 C 0.44103 0.8068 0.1501 0.0
C1522 C 0.44729 0.86511 0.12255 0.0
C1523 C 0.46781 0.87789 0.13239 0.0
C1524 C 0.43712 0.8734 0.10189 0.0
C1525 C 0.41636 0.86035 0.08952 0.0
C1526 C 0.417 0.83839 0.08104 0.0
C1527 C 0.39731 0.82613 0.06955 0.0
C1528 C 0.37693 0.83571 0.06624 0.0
C1529 C 0.37623 0.8576 0.07437 0.0
C1530 C 0.39587 0.86992 0.0859 0.0
C1531 C 0.51461 0.94959 0.06993 0.0
C1532 C 0.50213 0.9674 0.06595 0.0
C1533 C 0.50352 0.92996 0.08119 0.0
C1534 C 0.47964 0.92757 0.08895 0.0
C1535 C 0.46693 0.94515 0.08451 0.0
C1536 C 0.47808 0.9649 0.07322 0.0
C1537 C 0.46814 0.90671 0.10162 0.0
C1538 C 0.44748 0.89411 0.09193 0.0
C1539 C 0.47823 0.89852 0.12237 0.0
C1540 C 0.49926 0.91146 0.13442 0.0
C1541 C 0.49917 0.93369 0.14225 0.0
C1542 C 0.51914 0.94587 0.15337 0.0
C1543 C 0.53924 0.93595 0.15693 0.0
C1544 C 0.5394 0.9138 0.14942 0.0
C1545 C 0.51949 0.90155 0.13826 0.0
H1546 H 0.55468 0.9454 0.16554 0.0
H1547 H 0.3617 0.82619 0.05734 0.0
H1548 H 0.1204 0.26751 0.61639 0.0
H1549 H 0.10414 0.231 0.59876 0.0
H1550 H 0.09974 0.20201 0.67016 0.0
H1551 H 0.11639 0.23849 0.68791 0.0
H1552 H 0.11873 0.17577 0.63632 0.0
H1553 H 0.05016 0.21238 0.64275 0.0
H1554 H 0.02706 0.24281 0.63646 0.0
H1555 H 0.03428 0.23485 0.55898 0.0
H1556 H 0.05772 0.20456 0.5648 0.0
H1557 H 0.0495 0.0716 0.60258 0.0
H1558 H 0.06463 0.10775 0.62165 0.0
H1559 H 0.06203 0.14011 0.55263 0.0
H1560 H 0.0462 0.10414 0.53364 0.0
H1561 H 0.04631 0.16469 0.58616 0.0
H1562 H 0.11547 0.12946 0.5786 0.0
H1563 H 0.13957 0.09958 0.58367 0.0
H1564 H 0.13275 0.10553 0.66141 0.0
H1565 H 0.10833 0.13526 0.6568 0.0
C1566 C 0.11606 0.25337 0.62837 0.0
C1567 C 0.11974 0.25601 0.65362 0.0
C1568 C 0.10657 0.2325 0.61827 0.0
C1569 C 0.1005 0.2137 0.63312 0.0
C1570 C 0.10421 0.21624 0.65831 0.0
C1571 C 0.11356 0.23717 0.66846 0.0
C1572 C 0.0906 0.1914 0.62229 0.0
C1573 C 0.10269 0.17326 0.62565 0.0
C1574 C 0.07005 0.18819 0.60777 0.0
C1575 C 0.05589 0.20634 0.60422 0.0
C1576 C 0.04698 0.21723 0.62437 0.0
C1577 C 0.0338 0.23444 0.62089 0.0
C1578 C 0.02926 0.2408 0.59734 0.0
C1579 C 0.03784 0.22993 0.57721 0.0
C1580 C 0.05105 0.21273 0.58059 0.0
C1581 C 0.05222 0.08638 0.59141 0.0
C1582 C 0.0467 0.08486 0.56651 0.0
C1583 C 0.06101 0.10711 0.60234 0.0
C1584 C 0.06489 0.12679 0.58858 0.0
C1585 C 0.05926 0.12528 0.56373 0.0
C1586 C 0.05026 0.10461 0.55285 0.0
C1587 C 0.07448 0.14896 0.60007 0.0
C1588 C 0.06234 0.16712 0.59684 0.0
C1589 C 0.09513 0.15224 0.61451 0.0
C1590 C 0.10987 0.13442 0.61734 0.0
C1591 C 0.11896 0.12428 0.59677 0.0
C1592 C 0.1327 0.10739 0.59956 0.0
C1593 C 0.13763 0.10062 0.62284 0.0
C1594 C 0.12889 0.11077 0.64339 0.0
C1595 C 0.11511 0.12765 0.6407 0.0
H1596 H 0.14828 0.08754 0.62497 0.0
H1597 H 0.01905 0.25412 0.59468 0.0
H1598 H 0.66981 0.24943 0.55264 0.0
H1599 H 0.64598 0.27438 0.57381 0.0
H1600 H 0.6772 0.32855 0.52753 0.0
H1601 H 0.70088 0.30376 0.50656 0.0
H1602 H 0.66269 0.34416 0.57234 0.0
H1603 H 0.63231 0.29149 0.5055 0.0
H1604 H 0.62264 0.25307 0.48873 0.0
H1605 H 0.57731 0.23395 0.5507 0.0
H1606 H 0.58704 0.27224 0.56796 0.0
H1607 H 0.57646 0.37929 0.48963 0.0
H1608 H 0.59396 0.34905 0.50672 0.0
H1609 H 0.58538 0.37572 0.57916 0.0
H1610 H 0.56772 0.40621 0.56206 0.0
H1611 H 0.58301 0.31582 0.5391 0.0
H1612 H 0.63606 0.37095 0.60888 0.0
H1613 H 0.64779 0.41101 0.61946 0.0
H1614 H 0.64986 0.4275 0.54363 0.0
H1615 H 0.63835 0.38755 0.53267 0.0
C1616 C 0.67232 0.26694 0.54786 0.0
C1617 C 0.68676 0.27474 0.52781 0.0
C1618 C 0.65876 0.28116 0.55994 0.0
C1619 C 0.65958 0.30319 0.55196 0.0
C1620 C 0.67631 0.31163 0.53401 0.0
C1621 C 0.6897 0.29745 0.52189 0.0
C1622 C 0.63979 0.31563 0.55726 0.0
C1623 C 0.64499 0.33778 0.56592 0.0
C1624 C 0.61677 0.30737 0.54863 0.0
C1625 C 0.61055 0.28456 0.53809 0.0
C1626 C 0.62033 0.27904 0.51554 0.0
C1627 C 0.61487 0.25731 0.50597 0.0
C1628 C 0.5994 0.24107 0.51867 0.0
C1629 C 0.58932 0.24654 0.54093 0.0
C1630 C 0.59482 0.26824 0.55062 0.0
C1631 C 0.57765 0.37839 0.50923 0.0
C1632 C 0.57103 0.39526 0.52447 0.0
C1633 C 0.58763 0.36107 0.51902 0.0
C1634 C 0.59117 0.36029 0.54419 0.0
C1635 C 0.58301 0.37618 0.55967 0.0
C1636 C 0.57307 0.39361 0.54986 0.0
C1637 C 0.60622 0.34459 0.55324 0.0
C1638 C 0.60012 0.32185 0.54715 0.0
C1639 C 0.62855 0.35246 0.56372 0.0
C1640 C 0.63617 0.37638 0.57003 0.0
C1641 C 0.63913 0.38315 0.59451 0.0
C1642 C 0.64571 0.40582 0.60056 0.0
C1643 C 0.64951 0.42178 0.58223 0.0
C1644 C 0.64687 0.41512 0.55781 0.0
C1645 C 0.64033 0.39249 0.55167 0.0
H1646 H 0.65457 0.43931 0.58693 0.0
H1647 H 0.59518 0.22424 0.51124 0.0
loop_
_geom_bond_atom_site_label_1
_geom_bond_atom_site_label_2
_geom_bond_distance
_geom_bond_site_symmetry_2
_ccdc_geom_bond_type
C0 C1 1.384 . S
C0 H13 0.947 . S
C0 C35 1.382 . S
C1 C0 1.384 . S
C1 C2 1.378 . S
C2 C1 1.378 . S
C2 C3 1.378 . S
C2 H14 0.952 . S
C3 C2 1.378 . S
C3 H15 0.950 . S
C3 C34 1.383 . S
H4 C23 0.947 . S
H5 C24 0.946 . S
H6 C26 0.953 . S
H7 C27 0.945 . S
H8 C29 0.952 . S
H9 C30 0.949 . S
H10 C32 0.950 . S
H11 C33 0.948 . S
H12 C35 0.951 . S
H13 C0 0.947 . S
H14 C2 0.952 . S
H15 C3 0.950 . S
N16 C19 1.382 . S
N16 C21 1.363 . S
N17 C19 1.371 . S
N17 C20 1.372 . S
N18 C20 1.361 . S
N18 C21 1.377 . S
C19 N16 1.382 . S
C19 N17 1.371 . S
C19 C22 1.480 . S
C20 N17 1.372 . S
C20 N18 1.361 . S
C20 C28 1.457 . S
C21 N16 1.363 . S
C21 N18 1.377 . S
C21 C34 1.479 . S
C22 C19 1.480 . S
C22 C23 1.383 . S
C22 C27 1.385 . S
C23 H4 0.947 . S
C23 C22 1.383 . S
C23 C24 1.388 . S
C24 H5 0.946 . S
C24 C23 1.388 . S
C24 C25 1.384 . S
C25 C24 1.384 . S
C25 C26 1.377 . S
C26 H6 0.953 . S
C26 C25 1.377 . S
C26 C27 1.369 . S
C27 H7 0.945 . S
C27 C22 1.385 . S
C27 C26 1.369 . S
C28 C20 1.457 . S
C28 C29 1.372 . S
C28 C33 1.364 . S
C29 H8 0.952 . S
C29 C28 1.372 . S
C29 C30 1.389 . S
C30 H9 0.949 . S
C30 C29 1.389 . S
C30 C31 1.387 . S
C31 C30 1.387 . S
C31 C32 1.372 . S
C32 H10 0.950 . S
C32 C31 1.372 . S
C32 C33 1.379 . S
C33 H11 0.948 . S
C33 C28 1.364 . S
C33 C32 1.379 . S
C34 C3 1.383 . S
C34 C21 1.479 . S
C34 C35 1.398 . S
C35 C0 1.382 . S
C35 H12 0.951 . S
C35 C34 1.398 . S
C36 C37 1.384 . S
C36 H49 0.947 . S
C36 C71 1.382 . S
C37 C36 1.384 . S
C37 C38 1.378 . S
C38 C37 1.378 . S
C38 C39 1.378 . S
C38 H50 0.952 . S
C39 C38 1.378 . S
C39 H51 0.950 . S
C39 C70 1.383 . S
H40 C59 0.947 . S
H41 C60 0.946 . S
H42 C62 0.953 . S
H43 C63 0.945 . S
H44 C65 0.952 . S
H45 C66 0.949 . S
H46 C68 0.950 . S
H47 C69 0.948 . S
H48 C71 0.951 . S
H49 C36 0.947 . S
H50 C38 0.952 . S
H51 C39 0.950 . S
N52 C55 1.382 . S
N52 C57 1.363 . S
N53 C55 1.371 . S
N53 C56 1.372 . S
N54 C56 1.361 . S
N54 C57 1.377 . S
C55 N52 1.382 . S
C55 N53 1.371 . S
C55 C58 1.480 . S
C56 N53 1.372 . S
C56 N54 1.361 . S
C56 C64 1.457 . S
C57 N52 1.363 . S
C57 N54 1.377 . S
C57 C70 1.479 . S
C58 C55 1.480 . S
C58 C59 1.383 . S
C58 C63 1.385 . S
C59 H40 0.947 . S
C59 C58 1.383 . S
C59 C60 1.388 . S
C60 H41 0.946 . S
C60 C59 1.388 . S
C60 C61 1.384 . S
C61 C60 1.384 . S
C61 C62 1.377 . S
C62 H42 0.953 . S
C62 C61 1.377 . S
C62 C63 1.369 . S
C63 H43 0.945 . S
C63 C58 1.385 . S
C63 C62 1.369 . S
C64 C56 1.457 . S
C64 C65 1.372 . S
C64 C69 1.364 . S
C65 H44 0.952 . S
C65 C64 1.372 . S
C65 C66 1.389 . S
C66 H45 0.949 . S
C66 C65 1.389 . S
C66 C67 1.387 . S
C67 C66 1.387 . S
C67 C68 1.372 . S
C68 H46 0.950 . S
C68 C67 1.372 . S
C68 C69 1.379 . S
C69 H47 0.948 . S
C69 C64 1.364 . S
C69 C68 1.379 . S
C70 C39 1.383 . S
C70 C57 1.479 . S
C70 C71 1.398 . S
C71 C36 1.382 . S
C71 H48 0.951 . S
C71 C70 1.398 . S
C72 C73 1.384 . S
C72 H85 0.947 . S
C72 C107 1.382 . S
C73 C72 1.384 . S
C73 C74 1.378 . S
C74 C73 1.378 . S
C74 C75 1.378 . S
C74 H86 0.952 . S
C75 C74 1.378 . S
C75 H87 0.950 . S
C75 C106 1.383 . S
H76 C95 0.947 . S
H77 C96 0.946 . S
H78 C98 0.953 . S
H79 C99 0.945 . S
H80 C101 0.952 . S
H81 C102 0.949 . S
H82 C104 0.950 . S
H83 C105 0.948 . S
H84 C107 0.951 . S
H85 C72 0.947 . S
H86 C74 0.952 . S
H87 C75 0.950 . S
N88 C91 1.382 . S
N88 C93 1.363 . S
N89 C91 1.371 . S
N89 C92 1.372 . S
N90 C92 1.361 . S
N90 C93 1.377 . S
C91 N88 1.382 . S
C91 N89 1.371 . S
C91 C94 1.480 . S
C92 N89 1.372 . S
C92 N90 1.361 . S
C92 C100 1.457 . S
C93 N88 1.363 . S
C93 N90 1.377 . S
C93 C106 1.479 . S
C94 C91 1.480 . S
C94 C95 1.383 . S
C94 C99 1.385 . S
C95 H76 0.947 . S
C95 C94 1.383 . S
C95 C96 1.388 . S
C96 H77 0.946 . S
C96 C95 1.388 . S
C96 C97 1.384 . S
C97 C96 1.384 . S
C97 C98 1.377 . S
C98 H78 0.953 . S
C98 C97 1.377 . S
C98 C99 1.369 . S
C99 H79 0.945 . S
C99 C94 1.385 . S
C99 C98 1.369 . S
C100 C92 1.457 . S
C100 C101 1.372 . S
C100 C105 1.364 . S
C101 H80 0.952 . S
C101 C100 1.372 . S
C101 C102 1.389 . S
C102 H81 0.949 . S
C102 C101 1.389 . S
C102 C103 1.387 . S
C103 C102 1.387 . S
C103 C104 1.372 . S
C104 H82 0.950 . S
C104 C103 1.372 . S
C104 C105 1.379 . S
C105 H83 0.948 . S
C105 C100 1.364 . S
C105 C104 1.379 . S
C106 C75 1.383 . S
C106 C93 1.479 . S
C106 C107 1.398 . S
C107 C72 1.382 . S
C107 H84 0.951 . S
C107 C106 1.398 . S
C108 C109 1.384 . S
C108 H121 0.947 . S
C108 C143 1.382 . S
C109 C108 1.384 . S
C109 C110 1.378 . S
C110 C109 1.378 . S
C110 C111 1.378 . S
C110 H122 0.952 . S
C111 C110 1.378 . S
C111 H123 0.950 . S
C111 C142 1.383 . S
H112 C131 0.947 . S
H113 C132 0.946 . S
H114 C134 0.953 . S
H115 C135 0.945 . S
H116 C137 0.952 . S
H117 C138 0.949 . S
H118 C140 0.950 . S
H119 C141 0.948 . S
H120 C143 0.951 . S
H121 C108 0.947 . S
H122 C110 0.952 . S
H123 C111 0.950 . S
N124 C127 1.382 . S
N124 C129 1.363 . S
N125 C127 1.371 . S
N125 C128 1.372 . S
N126 C128 1.361 . S
N126 C129 1.377 . S
C127 N124 1.382 . S
C127 N125 1.371 . S
C127 C130 1.480 . S
C128 N125 1.372 . S
C128 N126 1.361 . S
C128 C136 1.457 . S
C129 N124 1.363 . S
C129 N126 1.377 . S
C129 C142 1.479 . S
C130 C127 1.480 . S
C130 C131 1.383 . S
C130 C135 1.385 . S
C131 H112 0.947 . S
C131 C130 1.383 . S
C131 C132 1.388 . S
C132 H113 0.946 . S
C132 C131 1.388 . S
C132 C133 1.384 . S
C133 C132 1.384 . S
C133 C134 1.377 . S
C134 H114 0.953 . S
C134 C133 1.377 . S
C134 C135 1.369 . S
C135 H115 0.945 . S
C135 C130 1.385 . S
C135 C134 1.369 . S
C136 C128 1.457 . S
C136 C137 1.372 . S
C136 C141 1.364 . S
C137 H116 0.952 . S
C137 C136 1.372 . S
C137 C138 1.389 . S
C138 H117 0.949 . S
C138 C137 1.389 . S
C138 C139 1.387 . S
C139 C138 1.387 . S
C139 C140 1.372 . S
C140 H118 0.950 . S
C140 C139 1.372 . S
C140 C141 1.379 . S
C141 H119 0.948 . S
C141 C136 1.364 . S
C141 C140 1.379 . S
C142 C111 1.383 . S
C142 C129 1.479 . S
C142 C143 1.398 . S
C143 C108 1.382 . S
C143 H120 0.951 . S
C143 C142 1.398 . S
C144 C145 1.384 . S
C144 H157 0.947 . S
C144 C179 1.382 . S
C145 C144 1.384 . S
C145 C146 1.378 . S
C146 C145 1.378 . S
C146 C147 1.378 . S
C146 H158 0.952 . S
C147 C146 1.378 . S
C147 H159 0.950 . S
C147 C178 1.383 . S
H148 C167 0.947 . S
H149 C168 0.946 . S
H150 C170 0.953 . S
H151 C171 0.945 . S
H152 C173 0.952 . S
H153 C174 0.949 . S
H154 C176 0.950 . S
H155 C177 0.948 . S
H156 C179 0.951 . S
H157 C144 0.947 . S
H158 C146 0.952 . S
H159 C147 0.950 . S
N160 C163 1.382 . S
N160 C165 1.363 . S
N161 C163 1.371 . S
N161 C164 1.372 . S
N162 C164 1.361 . S
N162 C165 1.377 . S
C163 N160 1.382 . S
C163 N161 1.371 . S
C163 C166 1.480 . S
C164 N161 1.372 . S
C164 N162 1.361 . S
C164 C172 1.457 . S
C165 N160 1.363 . S
C165 N162 1.377 . S
C165 C178 1.479 . S
C166 C163 1.480 . S
C166 C167 1.383 . S
C166 C171 1.385 . S
C167 H148 0.947 . S
C167 C166 1.383 . S
C167 C168 1.388 . S
C168 H149 0.946 . S
C168 C167 1.388 . S
C168 C169 1.384 . S
C169 C168 1.384 . S
C169 C170 1.377 . S
C170 H150 0.953 . S
C170 C169 1.377 . S
C170 C171 1.369 . S
C171 H151 0.945 . S
C171 C166 1.385 . S
C171 C170 1.369 . S
C172 C164 1.457 . S
C172 C173 1.372 . S
C172 C177 1.364 . S
C173 H152 0.952 . S
C173 C172 1.372 . S
C173 C174 1.389 . S
C174 H153 0.949 . S
C174 C173 1.389 . S
C174 C175 1.387 . S
C175 C174 1.387 . S
C175 C176 1.372 . S
C176 H154 0.950 . S
C176 C175 1.372 . S
C176 C177 1.379 . S
C177 H155 0.948 . S
C177 C172 1.364 . S
C177 C176 1.379 . S
C178 C147 1.383 . S
C178 C165 1.479 . S
C178 C179 1.398 . S
C179 C144 1.382 . S
C179 H156 0.951 . S
C179 C178 1.398 . S
C180 C181 1.384 . S
C180 H193 0.947 . S
C180 C215 1.382 . S
C181 C180 1.384 . S
C181 C182 1.378 . S
C182 C181 1.378 . S
C182 C183 1.378 . S
C182 H194 0.952 . S
C183 C182 1.378 . S
C183 H195 0.950 . S
C183 C214 1.383 . S
H184 C203 0.947 . S
H185 C204 0.946 . S
H186 C206 0.953 . S
H187 C207 0.945 . S
H188 C209 0.952 . S
H189 C210 0.949 . S
H190 C212 0.950 . S
H191 C213 0.948 . S
H192 C215 0.951 . S
H193 C180 0.947 . S
H194 C182 0.952 . S
H195 C183 0.950 . S
N196 C199 1.382 . S
N196 C201 1.363 . S
N197 C199 1.371 . S
N197 C200 1.372 . S
N198 C200 1.361 . S
N198 C201 1.377 . S
C199 N196 1.382 . S
C199 N197 1.371 . S
C199 C202 1.480 . S
C200 N197 1.372 . S
C200 N198 1.361 . S
C200 C208 1.457 . S
C201 N196 1.363 . S
C201 N198 1.377 . S
C201 C214 1.479 . S
C202 C199 1.480 . S
C202 C203 1.383 . S
C202 C207 1.385 . S
C203 H184 0.947 . S
C203 C202 1.383 . S
C203 C204 1.388 . S
C204 H185 0.946 . S
C204 C203 1.388 . S
C204 C205 1.384 . S
C205 C204 1.384 . S
C205 C206 1.377 . S
C206 H186 0.953 . S
C206 C205 1.377 . S
C206 C207 1.369 . S
C207 H187 0.945 . S
C207 C202 1.385 . S
C207 C206 1.369 . S
C208 C200 1.457 . S
C208 C209 1.372 . S
C208 C213 1.364 . S
C209 H188 0.952 . S
C209 C208 1.372 . S
C209 C210 1.389 . S
C210 H189 0.949 . S
C210 C209 1.389 . S
C210 C211 1.387 . S
C211 C210 1.387 . S
C211 C212 1.372 . S
C212 H190 0.950 . S
C212 C211 1.372 . S
C212 C213 1.379 . S
C213 H191 0.948 . S
C213 C208 1.364 . S
C213 C212 1.379 . S
C214 C183 1.383 . S
C214 C201 1.479 . S
C214 C215 1.398 . S
C215 C180 1.382 . S
C215 H192 0.951 . S
C215 C214 1.398 . S
C216 C217 1.384 . S
C216 H229 0.947 . S
C216 C251 1.382 . S
C217 C216 1.384 . S
C217 C218 1.378 . S
C218 C217 1.378 . S
C218 C219 1.378 . S
C218 H230 0.952 . S
C219 C218 1.378 . S
C219 H231 0.950 . S
C219 C250 1.383 . S
H220 C239 0.947 . S
H221 C240 0.946 . S
H222 C242 0.953 . S
H223 C243 0.945 . S
H224 C245 0.952 . S
H225 C246 0.949 . S
H226 C248 0.950 . S
H227 C249 0.948 . S
H228 C251 0.951 . S
H229 C216 0.947 . S
H230 C218 0.952 . S
H231 C219 0.950 . S
N232 C235 1.382 . S
N232 C237 1.363 . S
N233 C235 1.371 . S
N233 C236 1.372 . S
N234 C236 1.361 . S
N234 C237 1.377 . S
C235 N232 1.382 . S
C235 N233 1.371 . S
C235 C238 1.480 . S
C236 N233 1.372 . S
C236 N234 1.361 . S
C236 C244 1.457 . S
C237 N232 1.363 . S
C237 N234 1.377 . S
C237 C250 1.479 . S
C238 C235 1.480 . S
C238 C239 1.383 . S
C238 C243 1.385 . S
C239 H220 0.947 . S
C239 C238 1.383 . S
C239 C240 1.388 . S
C240 H221 0.946 . S
C240 C239 1.388 . S
C240 C241 1.384 . S
C241 C240 1.384 . S
C241 C242 1.377 . S
C242 H222 0.953 . S
C242 C241 1.377 . S
C242 C243 1.369 . S
C243 H223 0.945 . S
C243 C238 1.385 . S
C243 C242 1.369 . S
C244 C236 1.457 . S
C244 C245 1.372 . S
C244 C249 1.364 . S
C245 H224 0.952 . S
C245 C244 1.372 . S
C245 C246 1.389 . S
C246 H225 0.949 . S
C246 C245 1.389 . S
C246 C247 1.387 . S
C247 C246 1.387 . S
C247 C248 1.372 . S
C248 H226 0.950 . S
C248 C247 1.372 . S
C248 C249 1.379 . S
C249 H227 0.948 . S
C249 C244 1.364 . S
C249 C248 1.379 . S
C250 C219 1.383 . S
C250 C237 1.479 . S
C250 C251 1.398 . S
C251 C216 1.382 . S
C251 H228 0.951 . S
C251 C250 1.398 . S
C252 C253 1.384 . S
C252 H265 0.947 . S
C252 C287 1.382 . S
C253 C252 1.384 . S
C253 C254 1.378 . S
C254 C253 1.378 . S
C254 C255 1.378 . S
C254 H266 0.952 . S
C255 C254 1.378 . S
C255 H267 0.950 . S
C255 C286 1.383 . S
H256 C275 0.947 . S
H257 C276 0.946 . S
H258 C278 0.953 . S
H259 C279 0.945 . S
H260 C281 0.952 . S
H261 C282 0.949 . S
H262 C284 0.950 . S
H263 C285 0.948 . S
H264 C287 0.951 . S
H265 C252 0.947 . S
H266 C254 0.952 . S
H267 C255 0.950 . S
N268 C271 1.382 . S
N268 C273 1.363 . S
N269 C271 1.371 . S
N269 C272 1.372 . S
N270 C272 1.361 . S
N270 C273 1.377 . S
C271 N268 1.382 . S
C271 N269 1.371 . S
C271 C274 1.480 . S
C272 N269 1.372 . S
C272 N270 1.361 . S
C272 C280 1.457 . S
C273 N268 1.363 . S
C273 N270 1.377 . S
C273 C286 1.479 . S
C274 C271 1.480 . S
C274 C275 1.383 . S
C274 C279 1.385 . S
C275 H256 0.947 . S
C275 C274 1.383 . S
C275 C276 1.388 . S
C276 H257 0.946 . S
C276 C275 1.388 . S
C276 C277 1.384 . S
C277 C276 1.384 . S
C277 C278 1.377 . S
C278 H258 0.953 . S
C278 C277 1.377 . S
C278 C279 1.369 . S
C279 H259 0.945 . S
C279 C274 1.385 . S
C279 C278 1.369 . S
C280 C272 1.457 . S
C280 C281 1.372 . S
C280 C285 1.364 . S
C281 H260 0.952 . S
C281 C280 1.372 . S
C281 C282 1.389 . S
C282 H261 0.949 . S
C282 C281 1.389 . S
C282 C283 1.387 . S
C283 C282 1.387 . S
C283 C284 1.372 . S
C284 H262 0.950 . S
C284 C283 1.372 . S
C284 C285 1.379 . S
C285 H263 0.948 . S
C285 C280 1.364 . S
C285 C284 1.379 . S
C286 C255 1.383 . S
C286 C273 1.479 . S
C286 C287 1.398 . S
C287 C252 1.382 . S
C287 H264 0.951 . S
C287 C286 1.398 . S
Sm288 C290 2.846 . S
Sm288 O308 2.543 . S
Sm288 O309 2.450 . S
Sm288 O310 2.681 1_545 S
Sm288 O311 2.464 1_545 S
Sm288 O312 2.396 . S
Sm288 O316 2.386 1_455 S
Sm288 O319 2.408 1_445 S
Sm289 C299 2.846 . S
Sm289 O310 2.386 1_655 S
Sm289 O313 2.408 1_665 S
Sm289 O314 2.543 . S
Sm289 O315 2.450 . S
Sm289 O316 2.681 1_565 S
Sm289 O317 2.464 1_565 S
Sm289 O318 2.396 . S
C290 Sm288 2.846 . S
C290 C291 1.506 . S
C290 O308 1.261 . S
C290 O309 1.242 . S
C291 C290 1.506 . S
C291 C292 1.358 . S
C291 C296 1.382 . S
C292 C291 1.358 . S
C292 C293 1.385 . S
C292 H320 0.930 . S
C293 C292 1.385 . S
C293 C294 1.395 . S
C293 H321 0.929 . S
C294 C293 1.395 . S
C294 C295 1.335 . S
C295 C294 1.335 . S
C295 C296 1.398 . S
C295 H322 0.930 . S
C296 C291 1.382 . S
C296 C295 1.398 . S
C296 H323 0.929 . S
C297 O310 1.271 . S
C297 O311 1.251 . S
C298 O312 1.252 . S
C298 O313 1.272 . S
C299 Sm289 2.846 . S
C299 C300 1.506 . S
C299 O314 1.261 . S
C299 O315 1.242 . S
C300 C299 1.506 . S
C300 C301 1.358 . S
C300 C305 1.382 . S
C301 C300 1.358 . S
C301 C302 1.385 . S
C301 H324 0.930 . S
C302 C301 1.385 . S
C302 C303 1.395 . S
C302 H325 0.929 . S
C303 C302 1.395 . S
C303 C304 1.335 . S
C304 C303 1.335 . S
C304 C305 1.398 . S
C304 H326 0.930 . S
C305 C300 1.382 . S
C305 C304 1.398 . S
C305 H327 0.929 . S
C306 O316 1.271 . S
C306 O317 1.251 . S
C307 O318 1.252 . S
C307 O319 1.272 . S
O308 Sm288 2.543 . S
O308 C290 1.261 . S
O309 Sm288 2.450 . S
O309 C290 1.242 . S
O310 Sm288 2.681 1_565 S
O310 Sm289 2.386 1_455 S
O310 C297 1.271 . S
O311 Sm288 2.464 1_565 S
O311 C297 1.251 . S
O312 Sm288 2.396 . S
O312 C298 1.252 . S
O313 Sm289 2.408 1_445 S
O313 C298 1.272 . S
O314 Sm289 2.543 . S
O314 C299 1.261 . S
O315 Sm289 2.450 . S
O315 C299 1.242 . S
O316 Sm288 2.386 1_655 S
O316 Sm289 2.681 1_545 S
O316 C306 1.271 . S
O317 Sm289 2.464 1_545 S
O317 C306 1.251 . S
O318 Sm289 2.396 . S
O318 C307 1.252 . S
O319 Sm288 2.408 1_665 S
O319 C307 1.272 . S
H320 C292 0.930 . S
H321 C293 0.929 . S
H322 C295 0.930 . S
H323 C296 0.929 . S
H324 C301 0.930 . S
H325 C302 0.929 . S
H326 C304 0.930 . S
H327 C305 0.929 . S
Sm328 C330 2.840 1_565 S
Sm328 O348 2.532 1_565 S
Sm328 O349 2.449 1_565 S
Sm328 O350 2.686 . S
Sm328 O351 2.473 . S
Sm328 O352 2.389 1_565 S
Sm328 O356 2.377 1_564 S
Sm328 O359 2.415 1_554 S
Sm329 C339 2.846 1_545 S
Sm329 O350 2.386 1_546 S
Sm329 O353 2.408 1_556 S
Sm329 O354 2.543 1_545 S
Sm329 O355 2.450 1_545 S
Sm329 O356 2.681 . S
Sm329 O357 2.464 . S
Sm329 O358 2.396 1_545 S
C330 Sm328 2.840 1_545 S
C330 C331 1.506 . S
C330 O348 1.261 . S
C330 O349 1.242 . S
C331 C330 1.506 . S
C331 C332 1.358 . S
C331 C336 1.382 . S
C332 C331 1.358 . S
C332 C333 1.385 . S
C332 H360 0.930 . S
C333 C332 1.385 . S
C333 C334 1.395 . S
C333 H361 0.929 . S
C334 C333 1.395 . S
C334 C335 1.335 . S
C335 C334 1.335 . S
C335 C336 1.398 . S
C335 H362 0.930 . S
C336 C331 1.382 . S
C336 C335 1.398 . S
C336 H363 0.929 . S
C337 O350 1.271 . S
C337 O351 1.251 . S
C338 O352 1.252 . S
C338 O353 1.272 . S
C339 Sm329 2.846 1_565 S
C339 C340 1.506 . S
C339 O354 1.261 . S
C339 O355 1.242 . S
C340 C339 1.506 . S
C340 C341 1.358 . S
C340 C345 1.382 . S
C341 C340 1.358 . S
C341 C342 1.385 . S
C341 H364 0.930 . S
C342 C341 1.385 . S
C342 C343 1.395 . S
C342 H365 0.929 . S
C343 C342 1.395 . S
C343 C344 1.335 . S
C344 C343 1.335 . S
C344 C345 1.398 . S
C344 H366 0.930 . S
C345 C340 1.382 . S
C345 C344 1.398 . S
C345 H367 0.929 . S
C346 O356 1.271 . S
C346 O357 1.251 . S
C347 O358 1.252 . S
C347 O359 1.272 . S
O348 Sm328 2.532 1_545 S
O348 C330 1.261 . S
O349 Sm328 2.449 1_545 S
O349 C330 1.242 . S
O350 Sm328 2.686 . S
O350 Sm329 2.386 1_564 S
O350 C337 1.271 . S
O351 Sm328 2.473 . S
O351 C337 1.251 . S
O352 Sm328 2.389 1_545 S
O352 C338 1.252 . S
O353 Sm329 2.408 1_554 S
O353 C338 1.272 . S
O354 Sm329 2.543 1_565 S
O354 C339 1.261 . S
O355 Sm329 2.450 1_565 S
O355 C339 1.242 . S
O356 Sm328 2.377 1_546 S
O356 Sm329 2.681 . S
O356 C346 1.271 . S
O357 Sm329 2.464 . S
O357 C346 1.251 . S
O358 Sm329 2.396 1_565 S
O358 C347 1.252 . S
O359 Sm328 2.415 1_556 S
O359 C347 1.272 . S
H360 C332 0.930 . S
H361 C333 0.929 . S
H362 C335 0.930 . S
H363 C336 0.929 . S
H364 C341 0.930 . S
H365 C342 0.929 . S
H366 C344 0.930 . S
H367 C345 0.929 . S
Sm368 C370 2.846 . S
Sm368 O388 2.543 . S
Sm368 O389 2.450 . S
Sm368 O390 2.681 . S
Sm368 O391 2.464 . S
Sm368 O392 2.396 . S
Sm368 O396 2.386 . S
Sm368 O399 2.408 . S
Sm369 C379 2.846 . S
Sm369 O390 2.386 . S
Sm369 O393 2.408 . S
Sm369 O394 2.543 . S
Sm369 O395 2.450 . S
Sm369 O396 2.681 . S
Sm369 O397 2.464 . S
Sm369 O398 2.396 . S
C370 Sm368 2.846 . S
C370 C371 1.506 . S
C370 O388 1.261 . S
C370 O389 1.242 . S
C371 C370 1.506 . S
C371 C372 1.358 . S
C371 C376 1.382 . S
C372 C371 1.358 . S
C372 C373 1.385 . S
C372 H400 0.930 . S
C373 C372 1.385 . S
C373 C374 1.395 . S
C373 H401 0.929 . S
C374 C373 1.395 . S
C374 C375 1.335 . S
C375 C374 1.335 . S
C375 C376 1.398 . S
C375 H402 0.930 . S
C376 C371 1.382 . S
C376 C375 1.398 . S
C376 H403 0.929 . S
C377 O390 1.271 . S
C377 O391 1.251 . S
C378 O392 1.252 . S
C378 O393 1.272 . S
C379 Sm369 2.846 . S
C379 C380 1.506 . S
C379 O394 1.261 . S
C379 O395 1.242 . S
C380 C379 1.506 . S
C380 C381 1.358 . S
C380 C385 1.382 . S
C381 C380 1.358 . S
C381 C382 1.385 . S
C381 H404 0.930 . S
C382 C381 1.385 . S
C382 C383 1.395 . S
C382 H405 0.929 . S
C383 C382 1.395 . S
C383 C384 1.335 . S
C384 C383 1.335 . S
C384 C385 1.398 . S
C384 H406 0.930 . S
C385 C380 1.382 . S
C385 C384 1.398 . S
C385 H407 0.929 . S
C386 O396 1.271 . S
C386 O397 1.251 . S
C387 O398 1.252 . S
C387 O399 1.272 . S
O388 Sm368 2.543 . S
O388 C370 1.261 . S
O389 Sm368 2.450 . S
O389 C370 1.242 . S
O390 Sm368 2.681 . S
O390 Sm369 2.386 . S
O390 C377 1.271 . S
O391 Sm368 2.464 . S
O391 C377 1.251 . S
O392 Sm368 2.396 . S
O392 C378 1.252 . S
O393 Sm369 2.408 . S
O393 C378 1.272 . S
O394 Sm369 2.543 . S
O394 C379 1.261 . S
O395 Sm369 2.450 . S
O395 C379 1.242 . S
O396 Sm368 2.386 . S
O396 Sm369 2.681 . S
O396 C386 1.271 . S
O397 Sm369 2.464 . S
O397 C386 1.251 . S
O398 Sm369 2.396 . S
O398 C387 1.252 . S
O399 Sm368 2.408 . S
O399 C387 1.272 . S
H400 C372 0.930 . S
H401 C373 0.929 . S
H402 C375 0.930 . S
H403 C376 0.929 . S
H404 C381 0.930 . S
H405 C382 0.929 . S
H406 C384 0.930 . S
H407 C385 0.929 . S
Sm408 C410 2.846 . S
Sm408 O428 2.543 . S
Sm408 O429 2.450 . S
Sm408 O430 2.681 1_455 S
Sm408 O431 2.464 1_455 S
Sm408 O432 2.396 . S
Sm408 O436 2.386 1_554 S
Sm408 O439 2.402 1_454 S
Sm409 C419 2.846 1_455 S
Sm409 O430 2.386 1_456 S
Sm409 O433 2.408 1_556 S
Sm409 O434 2.543 1_455 S
Sm409 O435 2.450 1_455 S
Sm409 O436 2.681 . S
Sm409 O437 2.464 . S
Sm409 O438 2.396 1_455 S
C410 Sm408 2.846 . S
C410 C411 1.506 . S
C410 O428 1.261 . S
C410 O429 1.242 . S
C411 C410 1.506 . S
C411 C412 1.358 . S
C411 C416 1.382 . S
C412 C411 1.358 . S
C412 C413 1.385 . S
C412 H440 0.930 . S
C413 C412 1.385 . S
C413 C414 1.395 . S
C413 H441 0.929 . S
C414 C413 1.395 . S
C414 C415 1.335 . S
C415 C414 1.335 . S
C415 C416 1.398 . S
C415 H442 0.930 . S
C416 C411 1.382 . S
C416 C415 1.398 . S
C416 H443 0.929 . S
C417 O430 1.271 . S
C417 O431 1.251 . S
C418 O432 1.252 . S
C418 O433 1.272 . S
C419 Sm409 2.846 1_655 S
C419 C420 1.506 . S
C419 O434 1.261 . S
C419 O435 1.242 . S
C420 C419 1.506 . S
C420 C421 1.358 . S
C420 C425 1.382 . S
C421 C420 1.358 . S
C421 C422 1.385 . S
C421 H444 0.930 . S
C422 C421 1.385 . S
C422 C423 1.395 . S
C422 H445 0.929 . S
C423 C422 1.395 . S
C423 C424 1.335 . S
C424 C423 1.335 . S
C424 C425 1.398 . S
C424 H446 0.930 . S
C425 C420 1.382 . S
C425 C424 1.398 . S
C425 H447 0.929 . S
C426 O436 1.271 . S
C426 O437 1.251 . S
C427 O438 1.252 . S
C427 O439 1.280 . S
O428 Sm408 2.543 . S
O428 C410 1.261 . S
O429 Sm408 2.450 . S
O429 C410 1.242 . S
O430 Sm408 2.681 1_655 S
O430 Sm409 2.386 1_654 S
O430 C417 1.271 . S
O431 Sm408 2.464 1_655 S
O431 C417 1.251 . S
O432 Sm408 2.396 . S
O432 C418 1.252 . S
O433 Sm409 2.408 1_554 S
O433 C418 1.272 . S
O434 Sm409 2.543 1_655 S
O434 C419 1.261 . S
O435 Sm409 2.450 1_655 S
O435 C419 1.242 . S
O436 Sm408 2.386 1_556 S
O436 Sm409 2.681 . S
O436 C426 1.271 . S
O437 Sm409 2.464 . S
O437 C426 1.251 . S
O438 Sm409 2.396 1_655 S
O438 C427 1.252 . S
O439 Sm408 2.402 1_656 S
O439 C427 1.280 . S
H440 C412 0.930 . S
H441 C413 0.929 . S
H442 C415 0.930 . S
H443 C416 0.929 . S
H444 C421 0.930 . S
H445 C422 0.929 . S
H446 C424 0.930 . S
H447 C425 0.929 . S
H448 C466 0.951 . S
H449 C468 0.951 . S
H450 C470 0.950 . S
H451 C471 0.950 . S
H452 C473 0.950 . S
H453 C476 0.950 . S
H454 C477 0.950 . S
H455 C479 0.950 . S
H456 C480 0.950 . S
H457 C481 0.951 . S
H458 C483 0.951 . S
H459 C485 0.950 . S
H460 C486 0.950 . S
H461 C488 0.950 . S
H462 C491 0.950 . S
H463 C492 0.950 . S
H464 C494 0.950 . S
H465 C495 0.950 . S
C466 H448 0.951 . S
C466 C467 1.366 . S
C466 C468 1.388 . S
C467 C466 1.366 . S
C467 C471 1.385 . S
C468 H449 0.951 . S
C468 C466 1.388 . S
C468 C469 1.366 . S
C469 C468 1.366 . S
C469 C470 1.414 . S
C469 C472 1.499 . S
C470 H450 0.950 . S
C470 C469 1.414 . S
C470 C471 1.374 . S
C471 H451 0.950 . S
C471 C467 1.385 . S
C471 C470 1.374 . S
C472 C469 1.499 . S
C472 C473 1.373 . S
C472 C474 1.389 . S
C473 H452 0.950 . S
C473 C472 1.373 . S
C473 C489 1.377 . S
C474 C472 1.389 . S
C474 C475 1.524 . S
C474 C488 1.377 . S
C475 C474 1.524 . S
C475 C476 1.397 . S
C475 C480 1.363 . S
C476 H453 0.950 . S
C476 C475 1.397 . S
C476 C477 1.334 . S
C477 H454 0.950 . S
C477 C476 1.334 . S
C477 C478 1.287 . S
C478 C477 1.287 . S
C478 C479 1.524 . S
C478 H497 0.913 . S
C479 H455 0.950 . S
C479 C478 1.524 . S
C479 C480 1.415 . S
C480 H456 0.950 . S
C480 C475 1.363 . S
C480 C479 1.415 . S
C481 H457 0.951 . S
C481 C482 1.366 . S
C481 C483 1.388 . S
C482 C481 1.366 . S
C482 C486 1.385 . S
C483 H458 0.951 . S
C483 C481 1.388 . S
C483 C484 1.366 . S
C484 C483 1.366 . S
C484 C485 1.414 . S
C484 C487 1.499 . S
C485 H459 0.950 . S
C485 C484 1.414 . S
C485 C486 1.374 . S
C486 H460 0.950 . S
C486 C482 1.385 . S
C486 C485 1.374 . S
C487 C484 1.499 . S
C487 C488 1.373 . S
C487 C489 1.389 . S
C488 H461 0.950 . S
C488 C474 1.377 . S
C488 C487 1.373 . S
C489 C473 1.377 . S
C489 C487 1.389 . S
C489 C490 1.524 . S
C490 C489 1.524 . S
C490 C491 1.397 . S
C490 C495 1.363 . S
C491 H462 0.950 . S
C491 C490 1.397 . S
C491 C492 1.334 . S
C492 H463 0.950 . S
C492 C491 1.334 . S
C492 C493 1.287 . S
C493 C492 1.287 . S
C493 C494 1.524 . S
C493 H496 0.999 . S
C494 H464 0.950 . S
C494 C493 1.524 . S
C494 C495 1.415 . S
C495 H465 0.950 . S
C495 C490 1.363 . S
C495 C494 1.415 . S
H496 C493 0.999 . S
H497 C478 0.913 . S
H498 C516 0.951 . S
H499 C518 0.951 . S
H500 C520 0.950 . S
H501 C521 0.950 . S
H502 C523 0.950 . S
H503 C526 0.950 . S
H504 C527 0.950 . S
H505 C529 0.950 . S
H506 C530 0.950 . S
H507 C531 0.951 . S
H508 C533 0.951 . S
H509 C535 0.950 . S
H510 C536 0.950 . S
H511 C538 0.950 . S
H512 C541 0.950 . S
H513 C542 0.950 . S
H514 C544 0.950 1_545 S
H515 C545 0.950 . S
C516 H498 0.951 . S
C516 C517 1.366 . S
C516 C518 1.388 . S
C517 C516 1.366 . S
C517 C521 1.385 . S
C518 H499 0.951 . S
C518 C516 1.388 . S
C518 C519 1.366 . S
C519 C518 1.366 . S
C519 C520 1.414 . S
C519 C522 1.499 . S
C520 H500 0.950 . S
C520 C519 1.414 . S
C520 C521 1.374 . S
C521 H501 0.950 . S
C521 C517 1.385 . S
C521 C520 1.374 . S
C522 C519 1.499 . S
C522 C523 1.373 . S
C522 C524 1.389 . S
C523 H502 0.950 . S
C523 C522 1.373 . S
C523 C539 1.377 . S
C524 C522 1.389 . S
C524 C525 1.524 . S
C524 C538 1.377 . S
C525 C524 1.524 . S
C525 C526 1.397 . S
C525 C530 1.363 . S
C526 H503 0.950 . S
C526 C525 1.397 . S
C526 C527 1.334 . S
C527 H504 0.950 . S
C527 C526 1.334 . S
C527 C528 1.287 . S
C528 C527 1.287 . S
C528 C529 1.524 . S
C528 H547 0.913 . S
C529 H505 0.950 . S
C529 C528 1.524 . S
C529 C530 1.415 . S
C530 H506 0.950 . S
C530 C525 1.363 . S
C530 C529 1.415 . S
C531 H507 0.951 . S
C531 C532 1.366 . S
C531 C533 1.388 . S
C532 C531 1.366 . S
C532 C536 1.385 . S
C533 H508 0.951 . S
C533 C531 1.388 . S
C533 C534 1.366 . S
C534 C533 1.366 . S
C534 C535 1.414 . S
C534 C537 1.499 . S
C535 H509 0.950 . S
C535 C534 1.414 . S
C535 C536 1.374 . S
C536 H510 0.950 . S
C536 C532 1.385 . S
C536 C535 1.374 . S
C537 C534 1.499 . S
C537 C538 1.373 . S
C537 C539 1.389 . S
C538 H511 0.950 . S
C538 C524 1.377 . S
C538 C537 1.373 . S
C539 C523 1.377 . S
C539 C537 1.389 . S
C539 C540 1.524 . S
C540 C539 1.524 . S
C540 C541 1.397 . S
C540 C545 1.363 . S
C541 H512 0.950 . S
C541 C540 1.397 . S
C541 C542 1.334 . S
C542 H513 0.950 . S
C542 C541 1.334 . S
C542 C543 1.287 . S
C543 C542 1.287 . S
C543 C544 1.524 . S
C543 H546 0.999 1_565 S
C544 H514 0.950 1_565 S
C544 C543 1.524 . S
C544 C545 1.415 . S
C545 H515 0.950 . S
C545 C540 1.363 . S
C545 C544 1.415 . S
H546 C543 0.999 1_545 S
H547 C528 0.913 . S
H548 C566 0.951 . S
H549 C568 0.951 . S
H550 C570 0.950 . S
H551 C571 0.950 . S
H552 C573 0.950 . S
H553 C576 0.950 . S
H554 C577 0.950 . S
H555 C579 0.950 . S
H556 C580 0.950 . S
H557 C581 0.951 . S
H558 C583 0.951 . S
H559 C585 0.950 . S
H560 C586 0.950 . S
H561 C588 0.950 . S
H562 C591 0.950 . S
H563 C592 0.950 . S
H564 C594 0.950 . S
H565 C595 0.950 . S
C566 H548 0.951 . S
C566 C567 1.366 . S
C566 C568 1.388 . S
C567 C566 1.366 . S
C567 C571 1.385 . S
C568 H549 0.951 . S
C568 C566 1.388 . S
C568 C569 1.366 . S
C569 C568 1.366 . S
C569 C570 1.414 . S
C569 C572 1.499 . S
C570 H550 0.950 . S
C570 C569 1.414 . S
C570 C571 1.374 . S
C571 H551 0.950 . S
C571 C567 1.385 . S
C571 C570 1.374 . S
C572 C569 1.499 . S
C572 C573 1.373 . S
C572 C574 1.389 . S
C573 H552 0.950 . S
C573 C572 1.373 . S
C573 C589 1.377 . S
C574 C572 1.389 . S
C574 C575 1.524 . S
C574 C588 1.377 . S
C575 C574 1.524 . S
C575 C576 1.397 . S
C575 C580 1.363 . S
C576 H553 0.950 . S
C576 C575 1.397 . S
C576 C577 1.334 . S
C577 H554 0.950 . S
C577 C576 1.334 . S
C577 C578 1.287 . S
C578 C577 1.287 . S
C578 C579 1.524 . S
C578 H597 0.913 . S
C579 H555 0.950 . S
C579 C578 1.524 . S
C579 C580 1.415 . S
C580 H556 0.950 . S
C580 C575 1.363 . S
C580 C579 1.415 . S
C581 H557 0.951 . S
C581 C582 1.366 . S
C581 C583 1.388 . S
C582 C581 1.366 . S
C582 C586 1.385 . S
C583 H558 0.951 . S
C583 C581 1.388 . S
C583 C584 1.366 . S
C584 C583 1.366 . S
C584 C585 1.414 . S
C584 C587 1.499 . S
C585 H559 0.950 . S
C585 C584 1.414 . S
C585 C586 1.374 . S
C586 H560 0.950 . S
C586 C582 1.385 . S
C586 C585 1.374 . S
C587 C584 1.499 . S
C587 C588 1.373 . S
C587 C589 1.389 . S
C588 H561 0.950 . S
C588 C574 1.377 . S
C588 C587 1.373 . S
C589 C573 1.377 . S
C589 C587 1.389 . S
C589 C590 1.524 . S
C590 C589 1.524 . S
C590 C591 1.397 . S
C590 C595 1.363 . S
C591 H562 0.950 . S
C591 C590 1.397 . S
C591 C592 1.334 . S
C592 H563 0.950 . S
C592 C591 1.334 . S
C592 C593 1.287 . S
C593 C592 1.287 . S
C593 C594 1.524 . S
C593 H596 0.999 . S
C594 H564 0.950 . S
C594 C593 1.524 . S
C594 C595 1.415 . S
C595 H565 0.950 . S
C595 C590 1.363 . S
C595 C594 1.415 . S
H596 C593 0.999 . S
H597 C578 0.913 . S
H598 C616 0.951 . S
H599 C618 0.951 . S
H600 C620 0.950 . S
H601 C621 0.950 . S
H602 C623 0.950 . S
H603 C626 0.950 . S
H604 C627 0.950 . S
H605 C629 0.950 . S
H606 C630 0.950 . S
H607 C631 0.951 . S
H608 C633 0.951 . S
H609 C635 0.950 . S
H610 C636 0.950 . S
H611 C638 0.950 . S
H612 C641 0.950 . S
H613 C642 0.950 . S
H614 C644 0.950 . S
H615 C645 0.950 . S
C616 H598 0.951 . S
C616 C617 1.366 . S
C616 C618 1.388 . S
C617 C616 1.366 . S
C617 C621 1.385 . S
C618 H599 0.951 . S
C618 C616 1.388 . S
C618 C619 1.366 . S
C619 C618 1.366 . S
C619 C620 1.414 . S
C619 C622 1.499 . S
C620 H600 0.950 . S
C620 C619 1.414 . S
C620 C621 1.374 . S
C621 H601 0.950 . S
C621 C617 1.385 . S
C621 C620 1.374 . S
C622 C619 1.499 . S
C622 C623 1.373 . S
C622 C624 1.389 . S
C623 H602 0.950 . S
C623 C622 1.373 . S
C623 C639 1.377 . S
C624 C622 1.389 . S
C624 C625 1.524 . S
C624 C638 1.377 . S
C625 C624 1.524 . S
C625 C626 1.397 . S
C625 C630 1.363 . S
C626 H603 0.950 . S
C626 C625 1.397 . S
C626 C627 1.334 . S
C627 H604 0.950 . S
C627 C626 1.334 . S
C627 C628 1.287 . S
C628 C627 1.287 . S
C628 C629 1.524 . S
C628 H647 0.913 . S
C629 H605 0.950 . S
C629 C628 1.524 . S
C629 C630 1.415 . S
C630 H606 0.950 . S
C630 C625 1.363 . S
C630 C629 1.415 . S
C631 H607 0.951 . S
C631 C632 1.366 . S
C631 C633 1.388 . S
C632 C631 1.366 . S
C632 C636 1.385 . S
C633 H608 0.951 . S
C633 C631 1.388 . S
C633 C634 1.366 . S
C634 C633 1.366 . S
C634 C635 1.414 . S
C634 C637 1.499 . S
C635 H609 0.950 . S
C635 C634 1.414 . S
C635 C636 1.374 . S
C636 H610 0.950 . S
C636 C632 1.385 . S
C636 C635 1.374 . S
C637 C634 1.499 . S
C637 C638 1.373 . S
C637 C639 1.389 . S
C638 H611 0.950 . S
C638 C624 1.377 . S
C638 C637 1.373 . S
C639 C623 1.377 . S
C639 C637 1.389 . S
C639 C640 1.524 . S
C640 C639 1.524 . S
C640 C641 1.397 . S
C640 C645 1.363 . S
C641 H612 0.950 . S
C641 C640 1.397 . S
C641 C642 1.334 . S
C642 H613 0.950 . S
C642 C641 1.334 . S
C642 C643 1.287 . S
C643 C642 1.287 . S
C643 C644 1.524 . S
C643 H646 0.999 . S
C644 H614 0.950 . S
C644 C643 1.524 . S
C644 C645 1.415 . S
C645 H615 0.950 . S
C645 C640 1.363 . S
C645 C644 1.415 . S
H646 C643 0.999 . S
H647 C628 0.913 . S
H648 C666 0.951 . S
H649 C668 0.951 . S
H650 C670 0.950 . S
H651 C671 0.950 . S
H652 C673 0.950 . S
H653 C676 0.950 . S
H654 C677 0.950 . S
H655 C679 0.950 . S
H656 C680 0.950 . S
H657 C681 0.951 . S
H658 C683 0.951 . S
H659 C685 0.950 . S
H660 C686 0.950 . S
H661 C688 0.950 . S
H662 C691 0.950 . S
H663 C692 0.950 . S
H664 C694 0.950 . S
H665 C695 0.950 . S
C666 H648 0.951 . S
C666 C667 1.366 . S
C666 C668 1.388 . S
C667 C666 1.366 . S
C667 C671 1.385 . S
C668 H649 0.951 . S
C668 C666 1.388 . S
C668 C669 1.366 . S
C669 C668 1.366 . S
C669 C670 1.414 . S
C669 C672 1.499 . S
C670 H650 0.950 . S
C670 C669 1.414 . S
C670 C671 1.374 . S
C671 H651 0.950 . S
C671 C667 1.385 . S
C671 C670 1.374 . S
C672 C669 1.499 . S
C672 C673 1.373 . S
C672 C674 1.389 . S
C673 H652 0.950 . S
C673 C672 1.373 . S
C673 C689 1.377 . S
C674 C672 1.389 . S
C674 C675 1.524 . S
C674 C688 1.377 . S
C675 C674 1.524 . S
C675 C676 1.397 . S
C675 C680 1.363 . S
C676 H653 0.950 . S
C676 C675 1.397 . S
C676 C677 1.334 . S
C677 H654 0.950 . S
C677 C676 1.334 . S
C677 C678 1.287 . S
C678 C677 1.287 . S
C678 C679 1.524 . S
C678 H697 0.913 . S
C679 H655 0.950 . S
C679 C678 1.524 . S
C679 C680 1.415 . S
C680 H656 0.950 . S
C680 C675 1.363 . S
C680 C679 1.415 . S
C681 H657 0.951 . S
C681 C682 1.366 . S
C681 C683 1.388 . S
C682 C681 1.366 . S
C682 C686 1.385 . S
C683 H658 0.951 . S
C683 C681 1.388 . S
C683 C684 1.366 . S
C684 C683 1.366 . S
C684 C685 1.414 . S
C684 C687 1.499 . S
C685 H659 0.950 . S
C685 C684 1.414 . S
C685 C686 1.374 . S
C686 H660 0.950 . S
C686 C682 1.385 . S
C686 C685 1.374 . S
C687 C684 1.499 . S
C687 C688 1.373 . S
C687 C689 1.389 . S
C688 H661 0.950 . S
C688 C674 1.377 . S
C688 C687 1.373 . S
C689 C673 1.377 . S
C689 C687 1.389 . S
C689 C690 1.524 . S
C690 C689 1.524 . S
C690 C691 1.397 . S
C690 C695 1.363 . S
C691 H662 0.950 . S
C691 C690 1.397 . S
C691 C692 1.334 . S
C692 H663 0.950 . S
C692 C691 1.334 . S
C692 C693 1.287 . S
C693 C692 1.287 . S
C693 C694 1.524 . S
C693 H696 0.999 . S
C694 H664 0.950 . S
C694 C693 1.524 . S
C694 C695 1.415 . S
C695 H665 0.950 . S
C695 C690 1.363 . S
C695 C694 1.415 . S
H696 C693 0.999 . S
H697 C678 0.913 . S
H698 C716 0.951 . S
H699 C718 0.951 . S
H700 C720 0.950 . S
H701 C721 0.950 . S
H702 C723 0.950 . S
H703 C726 0.950 . S
H704 C727 0.950 . S
H705 C729 0.950 . S
H706 C730 0.950 . S
H707 C731 0.951 . S
H708 C733 0.951 . S
H709 C735 0.950 . S
H710 C736 0.950 . S
H711 C738 0.950 . S
H712 C741 0.950 . S
H713 C742 0.950 . S
H714 C744 0.950 . S
H715 C745 0.950 . S
C716 H698 0.951 . S
C716 C717 1.366 . S
C716 C718 1.388 . S
C717 C716 1.366 . S
C717 C721 1.385 . S
C718 H699 0.951 . S
C718 C716 1.388 . S
C718 C719 1.366 . S
C719 C718 1.366 . S
C719 C720 1.414 . S
C719 C722 1.499 . S
C720 H700 0.950 . S
C720 C719 1.414 . S
C720 C721 1.374 . S
C721 H701 0.950 . S
C721 C717 1.385 . S
C721 C720 1.374 . S
C722 C719 1.499 . S
C722 C723 1.373 . S
C722 C724 1.389 . S
C723 H702 0.950 . S
C723 C722 1.373 . S
C723 C739 1.377 . S
C724 C722 1.389 . S
C724 C725 1.524 . S
C724 C738 1.377 . S
C725 C724 1.524 . S
C725 C726 1.397 . S
C725 C730 1.363 . S
C726 H703 0.950 . S
C726 C725 1.397 . S
C726 C727 1.334 . S
C727 H704 0.950 . S
C727 C726 1.334 . S
C727 C728 1.287 . S
C728 C727 1.287 . S
C728 C729 1.524 . S
C728 H747 0.913 . S
C729 H705 0.950 . S
C729 C728 1.524 . S
C729 C730 1.415 . S
C730 H706 0.950 . S
C730 C725 1.363 . S
C730 C729 1.415 . S
C731 H707 0.951 . S
C731 C732 1.366 . S
C731 C733 1.388 . S
C732 C731 1.366 . S
C732 C736 1.385 . S
C733 H708 0.951 . S
C733 C731 1.388 . S
C733 C734 1.366 . S
C734 C733 1.366 . S
C734 C735 1.414 . S
C734 C737 1.499 . S
C735 H709 0.950 . S
C735 C734 1.414 . S
C735 C736 1.374 . S
C736 H710 0.950 . S
C736 C732 1.385 . S
C736 C735 1.374 . S
C737 C734 1.499 . S
C737 C738 1.373 . S
C737 C739 1.389 . S
C738 H711 0.950 . S
C738 C724 1.377 . S
C738 C737 1.373 . S
C739 C723 1.377 . S
C739 C737 1.389 . S
C739 C740 1.524 . S
C740 C739 1.524 . S
C740 C741 1.397 . S
C740 C745 1.363 . S
C741 H712 0.950 . S
C741 C740 1.397 . S
C741 C742 1.334 . S
C742 H713 0.950 . S
C742 C741 1.334 . S
C742 C743 1.287 . S
C743 C742 1.287 . S
C743 C744 1.524 . S
C743 H746 0.999 . S
C744 H714 0.950 . S
C744 C743 1.524 . S
C744 C745 1.415 . S
C745 H715 0.950 . S
C745 C740 1.363 . S
C745 C744 1.415 . S
H746 C743 0.999 . S
H747 C728 0.913 . S
H748 C766 0.951 . S
H749 C768 0.951 . S
H750 C770 0.950 . S
H751 C771 0.950 . S
H752 C773 0.950 . S
H753 C776 0.950 . S
H754 C777 0.950 . S
H755 C779 0.950 . S
H756 C780 0.950 . S
H757 C781 0.951 . S
H758 C783 0.951 . S
H759 C785 0.950 . S
H760 C786 0.950 . S
H761 C788 0.950 . S
H762 C791 0.950 . S
H763 C792 0.950 . S
H764 C794 0.950 . S
H765 C795 0.950 . S
C766 H748 0.951 . S
C766 C767 1.366 . S
C766 C768 1.388 . S
C767 C766 1.366 . S
C767 C771 1.385 . S
C768 H749 0.951 . S
C768 C766 1.388 . S
C768 C769 1.366 . S
C769 C768 1.366 . S
C769 C770 1.414 . S
C769 C772 1.499 . S
C770 H750 0.950 . S
C770 C769 1.414 . S
C770 C771 1.374 . S
C771 H751 0.950 . S
C771 C767 1.385 . S
C771 C770 1.374 . S
C772 C769 1.499 . S
C772 C773 1.373 . S
C772 C774 1.389 . S
C773 H752 0.950 . S
C773 C772 1.373 . S
C773 C789 1.377 . S
C774 C772 1.389 . S
C774 C775 1.524 . S
C774 C788 1.377 . S
C775 C774 1.524 . S
C775 C776 1.397 . S
C775 C780 1.363 . S
C776 H753 0.950 . S
C776 C775 1.397 . S
C776 C777 1.334 . S
C777 H754 0.950 . S
C777 C776 1.334 . S
C777 C778 1.287 . S
C778 C777 1.287 . S
C778 C779 1.524 . S
C778 H797 0.913 . S
C779 H755 0.950 . S
C779 C778 1.524 . S
C779 C780 1.415 . S
C780 H756 0.950 . S
C780 C775 1.363 . S
C780 C779 1.415 . S
C781 H757 0.951 . S
C781 C782 1.366 . S
C781 C783 1.388 . S
C782 C781 1.366 . S
C782 C786 1.385 . S
C783 H758 0.951 . S
C783 C781 1.388 . S
C783 C784 1.366 . S
C784 C783 1.366 . S
C784 C785 1.414 . S
C784 C787 1.499 . S
C785 H759 0.950 . S
C785 C784 1.414 . S
C785 C786 1.374 . S
C786 H760 0.950 . S
C786 C782 1.385 . S
C786 C785 1.374 . S
C787 C784 1.499 . S
C787 C788 1.373 . S
C787 C789 1.389 . S
C788 H761 0.950 . S
C788 C774 1.377 . S
C788 C787 1.373 . S
C789 C773 1.377 . S
C789 C787 1.389 . S
C789 C790 1.524 . S
C790 C789 1.524 . S
C790 C791 1.397 . S
C790 C795 1.363 . S
C791 H762 0.950 . S
C791 C790 1.397 . S
C791 C792 1.334 1_556 S
C792 H763 0.950 . S
C792 C791 1.334 1_554 S
C792 C793 1.287 . S
C793 C792 1.287 . S
C793 C794 1.524 . S
C793 H796 0.999 . S
C794 H764 0.950 . S
C794 C793 1.524 . S
C794 C795 1.415 1_554 S
C795 H765 0.950 . S
C795 C790 1.363 . S
C795 C794 1.415 1_556 S
H796 C793 0.999 . S
H797 C778 0.913 . S
H798 C816 0.951 . S
H799 C818 0.951 . S
H800 C820 0.950 . S
H801 C821 0.950 . S
H802 C823 0.950 . S
H803 C826 0.950 . S
H804 C827 0.950 . S
H805 C829 0.950 . S
H806 C830 0.950 . S
H807 C831 0.951 . S
H808 C833 0.951 . S
H809 C835 0.950 . S
H810 C836 0.950 . S
H811 C838 0.950 . S
H812 C841 0.950 . S
H813 C842 0.950 . S
H814 C844 0.950 . S
H815 C845 0.950 . S
C816 H798 0.951 . S
C816 C817 1.366 . S
C816 C818 1.388 . S
C817 C816 1.366 . S
C817 C821 1.385 . S
C818 H799 0.951 . S
C818 C816 1.388 . S
C818 C819 1.366 . S
C819 C818 1.366 . S
C819 C820 1.414 . S
C819 C822 1.499 . S
C820 H800 0.950 . S
C820 C819 1.414 . S
C820 C821 1.374 . S
C821 H801 0.950 . S
C821 C817 1.385 . S
C821 C820 1.374 . S
C822 C819 1.499 . S
C822 C823 1.373 . S
C822 C824 1.389 . S
C823 H802 0.950 . S
C823 C822 1.373 . S
C823 C839 1.377 . S
C824 C822 1.389 . S
C824 C825 1.524 . S
C824 C838 1.377 . S
C825 C824 1.524 . S
C825 C826 1.397 . S
C825 C830 1.363 . S
C826 H803 0.950 . S
C826 C825 1.397 . S
C826 C827 1.334 . S
C827 H804 0.950 . S
C827 C826 1.334 . S
C827 C828 1.287 . S
C828 C827 1.287 . S
C828 C829 1.524 . S
C828 H847 0.913 . S
C829 H805 0.950 . S
C829 C828 1.524 . S
C829 C830 1.415 . S
C830 H806 0.950 . S
C830 C825 1.363 . S
C830 C829 1.415 . S
C831 H807 0.951 . S
C831 C832 1.366 . S
C831 C833 1.388 . S
C832 C831 1.366 . S
C832 C836 1.385 . S
C833 H808 0.951 . S
C833 C831 1.388 . S
C833 C834 1.366 . S
C834 C833 1.366 . S
C834 C835 1.414 . S
C834 C837 1.499 . S
C835 H809 0.950 . S
C835 C834 1.414 . S
C835 C836 1.374 . S
C836 H810 0.950 . S
C836 C832 1.385 . S
C836 C835 1.374 . S
C837 C834 1.499 . S
C837 C838 1.373 . S
C837 C839 1.389 . S
C838 H811 0.950 . S
C838 C824 1.377 . S
C838 C837 1.373 . S
C839 C823 1.377 . S
C839 C837 1.389 . S
C839 C840 1.524 . S
C840 C839 1.524 . S
C840 C841 1.397 . S
C840 C845 1.363 . S
C841 H812 0.950 . S
C841 C840 1.397 . S
C841 C842 1.334 . S
C842 H813 0.950 . S
C842 C841 1.334 . S
C842 C843 1.287 . S
C843 C842 1.287 . S
C843 C844 1.524 . S
C843 H846 0.999 . S
C844 H814 0.950 . S
C844 C843 1.524 . S
C844 C845 1.415 . S
C845 H815 0.950 . S
C845 C840 1.363 . S
C845 C844 1.415 . S
H846 C843 0.999 . S
H847 C828 0.913 . S
H848 C866 0.951 . S
H849 C868 0.951 . S
H850 C870 0.950 . S
H851 C871 0.950 . S
H852 C873 0.950 . S
H853 C876 0.950 . S
H854 C877 0.950 . S
H855 C879 0.950 . S
H856 C880 0.950 . S
H857 C881 0.951 . S
H858 C883 0.951 . S
H859 C885 0.950 . S
H860 C886 0.950 . S
H861 C888 0.950 . S
H862 C891 0.950 . S
H863 C892 0.950 . S
H864 C894 0.950 . S
H865 C895 0.950 . S
C866 H848 0.951 . S
C866 C867 1.366 . S
C866 C868 1.388 . S
C867 C866 1.366 . S
C867 C871 1.385 . S
C868 H849 0.951 . S
C868 C866 1.388 . S
C868 C869 1.366 . S
C869 C868 1.366 . S
C869 C870 1.414 . S
C869 C872 1.499 . S
C870 H850 0.950 . S
C870 C869 1.414 . S
C870 C871 1.374 . S
C871 H851 0.950 . S
C871 C867 1.385 . S
C871 C870 1.374 . S
C872 C869 1.499 . S
C872 C873 1.373 . S
C872 C874 1.389 . S
C873 H852 0.950 . S
C873 C872 1.373 . S
C873 C889 1.377 . S
C874 C872 1.389 . S
C874 C875 1.524 . S
C874 C888 1.377 . S
C875 C874 1.524 . S
C875 C876 1.397 . S
C875 C880 1.363 . S
C876 H853 0.950 . S
C876 C875 1.397 . S
C876 C877 1.334 . S
C877 H854 0.950 . S
C877 C876 1.334 . S
C877 C878 1.287 . S
C878 C877 1.287 . S
C878 C879 1.524 . S
C878 H897 0.913 . S
C879 H855 0.950 . S
C879 C878 1.524 . S
C879 C880 1.415 . S
C880 H856 0.950 . S
C880 C875 1.363 . S
C880 C879 1.415 . S
C881 H857 0.951 . S
C881 C882 1.366 . S
C881 C883 1.388 . S
C882 C881 1.366 . S
C882 C886 1.385 . S
C883 H858 0.951 . S
C883 C881 1.388 . S
C883 C884 1.366 . S
C884 C883 1.366 . S
C884 C885 1.414 . S
C884 C887 1.499 . S
C885 H859 0.950 . S
C885 C884 1.414 . S
C885 C886 1.374 . S
C886 H860 0.950 . S
C886 C882 1.385 . S
C886 C885 1.374 . S
C887 C884 1.499 . S
C887 C888 1.373 . S
C887 C889 1.389 . S
C888 H861 0.950 . S
C888 C874 1.377 . S
C888 C887 1.373 . S
C889 C873 1.377 . S
C889 C887 1.389 . S
C889 C890 1.524 . S
C890 C889 1.524 . S
C890 C891 1.397 . S
C890 C895 1.363 . S
C891 H862 0.950 . S
C891 C890 1.397 . S
C891 C892 1.334 . S
C892 H863 0.950 . S
C892 C891 1.334 . S
C892 C893 1.287 . S
C893 C892 1.287 . S
C893 C894 1.524 . S
C893 H896 0.999 . S
C894 H864 0.950 . S
C894 C893 1.524 . S
C894 C895 1.415 . S
C895 H865 0.950 . S
C895 C890 1.363 . S
C895 C894 1.415 . S
H896 C893 0.999 . S
H897 C878 0.913 . S
H898 C916 0.951 . S
H899 C918 0.951 . S
H900 C920 0.950 . S
H901 C921 0.950 . S
H902 C923 0.950 . S
H903 C926 0.950 . S
H904 C927 0.950 . S
H905 C929 0.950 . S
H906 C930 0.950 . S
H907 C931 0.951 . S
H908 C933 0.951 . S
H909 C935 0.950 . S
H910 C936 0.950 . S
H911 C938 0.950 . S
H912 C941 0.950 . S
H913 C942 0.950 . S
H914 C944 0.950 . S
H915 C945 0.950 . S
C916 H898 0.951 . S
C916 C917 1.366 . S
C916 C918 1.388 . S
C917 C916 1.366 . S
C917 C921 1.385 . S
C918 H899 0.951 . S
C918 C916 1.388 . S
C918 C919 1.366 . S
C919 C918 1.366 . S
C919 C920 1.414 . S
C919 C922 1.499 . S
C920 H900 0.950 . S
C920 C919 1.414 . S
C920 C921 1.374 . S
C921 H901 0.950 . S
C921 C917 1.385 . S
C921 C920 1.374 . S
C922 C919 1.499 . S
C922 C923 1.373 . S
C922 C924 1.389 . S
C923 H902 0.950 . S
C923 C922 1.373 . S
C923 C939 1.377 . S
C924 C922 1.389 . S
C924 C925 1.524 . S
C924 C938 1.377 . S
C925 C924 1.524 . S
C925 C926 1.397 . S
C925 C930 1.363 . S
C926 H903 0.950 . S
C926 C925 1.397 . S
C926 C927 1.334 . S
C927 H904 0.950 . S
C927 C926 1.334 . S
C927 C928 1.287 . S
C928 C927 1.287 . S
C928 C929 1.524 . S
C928 H947 0.913 . S
C929 H905 0.950 . S
C929 C928 1.524 . S
C929 C930 1.415 . S
C930 H906 0.950 . S
C930 C925 1.363 . S
C930 C929 1.415 . S
C931 H907 0.951 . S
C931 C932 1.366 . S
C931 C933 1.388 . S
C932 C931 1.366 . S
C932 C936 1.385 . S
C933 H908 0.951 . S
C933 C931 1.388 . S
C933 C934 1.366 . S
C934 C933 1.366 . S
C934 C935 1.414 . S
C934 C937 1.499 . S
C935 H909 0.950 . S
C935 C934 1.414 . S
C935 C936 1.374 . S
C936 H910 0.950 . S
C936 C932 1.385 . S
C936 C935 1.374 . S
C937 C934 1.499 . S
C937 C938 1.373 . S
C937 C939 1.389 . S
C938 H911 0.950 . S
C938 C924 1.377 . S
C938 C937 1.373 . S
C939 C923 1.377 . S
C939 C937 1.389 . S
C939 C940 1.524 . S
C940 C939 1.524 . S
C940 C941 1.397 . S
C940 C945 1.363 . S
C941 H912 0.950 . S
C941 C940 1.397 . S
C941 C942 1.334 . S
C942 H913 0.950 . S
C942 C941 1.334 . S
C942 C943 1.287 . S
C943 C942 1.287 . S
C943 C944 1.524 . S
C943 H946 0.999 . S
C944 H914 0.950 . S
C944 C943 1.524 . S
C944 C945 1.415 . S
C945 H915 0.950 . S
C945 C940 1.363 . S
C945 C944 1.415 . S
H946 C943 0.999 . S
H947 C928 0.913 . S
H948 C966 0.951 . S
H949 C968 0.951 . S
H950 C970 0.950 . S
H951 C971 0.950 . S
H952 C973 0.950 . S
H953 C976 0.950 . S
H954 C977 0.950 . S
H955 C979 0.950 . S
H956 C980 0.950 . S
H957 C981 0.951 . S
H958 C983 0.951 . S
H959 C985 0.950 . S
H960 C986 0.950 . S
H961 C988 0.950 . S
H962 C991 0.950 . S
H963 C992 0.950 . S
H964 C994 0.950 . S
H965 C995 0.950 . S
C966 H948 0.951 . S
C966 C967 1.366 . S
C966 C968 1.388 . S
C967 C966 1.366 . S
C967 C971 1.385 . S
C968 H949 0.951 . S
C968 C966 1.388 . S
C968 C969 1.366 . S
C969 C968 1.366 . S
C969 C970 1.414 . S
C969 C972 1.499 . S
C970 H950 0.950 . S
C970 C969 1.414 . S
C970 C971 1.374 . S
C971 H951 0.950 . S
C971 C967 1.385 . S
C971 C970 1.374 . S
C972 C969 1.499 . S
C972 C973 1.373 . S
C972 C974 1.389 . S
C973 H952 0.950 . S
C973 C972 1.373 . S
C973 C989 1.377 . S
C974 C972 1.389 . S
C974 C975 1.524 . S
C974 C988 1.377 . S
C975 C974 1.524 . S
C975 C976 1.397 . S
C975 C980 1.363 . S
C976 H953 0.950 . S
C976 C975 1.397 . S
C976 C977 1.334 . S
C977 H954 0.950 . S
C977 C976 1.334 . S
C977 C978 1.287 . S
C978 C977 1.287 . S
C978 C979 1.524 . S
C978 H997 0.913 . S
C979 H955 0.950 . S
C979 C978 1.524 . S
C979 C980 1.415 . S
C980 H956 0.950 . S
C980 C975 1.363 . S
C980 C979 1.415 . S
C981 H957 0.951 . S
C981 C982 1.366 . S
C981 C983 1.388 . S
C982 C981 1.366 . S
C982 C986 1.385 . S
C983 H958 0.951 . S
C983 C981 1.388 . S
C983 C984 1.366 . S
C984 C983 1.366 . S
C984 C985 1.414 . S
C984 C987 1.499 . S
C985 H959 0.950 . S
C985 C984 1.414 . S
C985 C986 1.374 . S
C986 H960 0.950 . S
C986 C982 1.385 . S
C986 C985 1.374 . S
C987 C984 1.499 . S
C987 C988 1.373 . S
C987 C989 1.389 . S
C988 H961 0.950 . S
C988 C974 1.377 . S
C988 C987 1.373 . S
C989 C973 1.377 . S
C989 C987 1.389 . S
C989 C990 1.524 . S
C990 C989 1.524 . S
C990 C991 1.397 . S
C990 C995 1.363 . S
C991 H962 0.950 . S
C991 C990 1.397 . S
C991 C992 1.334 . S
C992 H963 0.950 . S
C992 C991 1.334 . S
C992 C993 1.287 . S
C993 C992 1.287 . S
C993 C994 1.524 . S
C993 H996 0.999 . S
C994 H964 0.950 . S
C994 C993 1.524 . S
C994 C995 1.415 . S
C995 H965 0.950 . S
C995 C990 1.363 . S
C995 C994 1.415 . S
H996 C993 0.999 . S
H997 C978 0.913 . S
H998 C1016 0.951 . S
H999 C1018 0.951 . S
H1000 C1020 0.950 . S
H1001 C1021 0.950 . S
H1002 C1023 0.950 . S
H1003 C1026 0.950 . S
H1004 C1027 0.950 . S
H1005 C1029 0.950 . S
H1006 C1030 0.950 . S
H1007 C1031 0.951 . S
H1008 C1033 0.951 . S
H1009 C1035 0.950 . S
H1010 C1036 0.950 . S
H1011 C1038 0.950 . S
H1012 C1041 0.950 . S
H1013 C1042 0.950 . S
H1014 C1044 0.950 . S
H1015 C1045 0.950 . S
C1016 H998 0.951 . S
C1016 C1017 1.366 . S
C1016 C1018 1.388 . S
C1017 C1016 1.366 . S
C1017 C1021 1.385 . S
C1018 H999 0.951 . S
C1018 C1016 1.388 . S
C1018 C1019 1.366 . S
C1019 C1018 1.366 . S
C1019 C1020 1.414 . S
C1019 C1022 1.499 . S
C1020 H1000 0.950 . S
C1020 C1019 1.414 . S
C1020 C1021 1.374 . S
C1021 H1001 0.950 . S
C1021 C1017 1.385 . S
C1021 C1020 1.374 . S
C1022 C1019 1.499 . S
C1022 C1023 1.373 . S
C1022 C1024 1.389 . S
C1023 H1002 0.950 . S
C1023 C1022 1.373 . S
C1023 C1039 1.377 . S
C1024 C1022 1.389 . S
C1024 C1025 1.524 . S
C1024 C1038 1.377 . S
C1025 C1024 1.524 . S
C1025 C1026 1.397 . S
C1025 C1030 1.363 . S
C1026 H1003 0.950 . S
C1026 C1025 1.397 . S
C1026 C1027 1.334 . S
C1027 H1004 0.950 . S
C1027 C1026 1.334 . S
C1027 C1028 1.287 . S
C1028 C1027 1.287 . S
C1028 C1029 1.524 . S
C1028 H1047 0.913 . S
C1029 H1005 0.950 . S
C1029 C1028 1.524 . S
C1029 C1030 1.415 . S
C1030 H1006 0.950 . S
C1030 C1025 1.363 . S
C1030 C1029 1.415 . S
C1031 H1007 0.951 . S
C1031 C1032 1.366 . S
C1031 C1033 1.388 . S
C1032 C1031 1.366 . S
C1032 C1036 1.385 . S
C1033 H1008 0.951 . S
C1033 C1031 1.388 . S
C1033 C1034 1.366 . S
C1034 C1033 1.366 . S
C1034 C1035 1.414 . S
C1034 C1037 1.499 . S
C1035 H1009 0.950 . S
C1035 C1034 1.414 . S
C1035 C1036 1.374 . S
C1036 H1010 0.950 . S
C1036 C1032 1.385 . S
C1036 C1035 1.374 . S
C1037 C1034 1.499 . S
C1037 C1038 1.373 . S
C1037 C1039 1.389 . S
C1038 H1011 0.950 . S
C1038 C1024 1.377 . S
C1038 C1037 1.373 . S
C1039 C1023 1.377 . S
C1039 C1037 1.389 . S
C1039 C1040 1.524 . S
C1040 C1039 1.524 . S
C1040 C1041 1.397 . S
C1040 C1045 1.363 . S
C1041 H1012 0.950 . S
C1041 C1040 1.397 . S
C1041 C1042 1.334 . S
C1042 H1013 0.950 . S
C1042 C1041 1.334 . S
C1042 C1043 1.287 . S
C1043 C1042 1.287 . S
C1043 C1044 1.524 . S
C1043 H1046 0.999 . S
C1044 H1014 0.950 . S
C1044 C1043 1.524 . S
C1044 C1045 1.415 . S
C1045 H1015 0.950 . S
C1045 C1040 1.363 . S
C1045 C1044 1.415 . S
H1046 C1043 0.999 . S
H1047 C1028 0.913 . S
H1048 C1066 0.951 . S
H1049 C1068 0.951 . S
H1050 C1070 0.950 . S
H1051 C1071 0.950 . S
H1052 C1073 0.950 . S
H1053 C1076 0.950 . S
H1054 C1077 0.950 . S
H1055 C1079 0.950 . S
H1056 C1080 0.950 . S
H1057 C1081 0.951 . S
H1058 C1083 0.951 . S
H1059 C1085 0.950 . S
H1060 C1086 0.950 . S
H1061 C1088 0.950 . S
H1062 C1091 0.950 . S
H1063 C1092 0.950 . S
H1064 C1094 0.950 . S
H1065 C1095 0.950 . S
C1066 H1048 0.951 . S
C1066 C1067 1.366 . S
C1066 C1068 1.388 . S
C1067 C1066 1.366 . S
C1067 C1071 1.385 . S
C1068 H1049 0.951 . S
C1068 C1066 1.388 . S
C1068 C1069 1.366 . S
C1069 C1068 1.366 . S
C1069 C1070 1.414 . S
C1069 C1072 1.499 . S
C1070 H1050 0.950 . S
C1070 C1069 1.414 . S
C1070 C1071 1.374 . S
C1071 H1051 0.950 . S
C1071 C1067 1.385 . S
C1071 C1070 1.374 . S
C1072 C1069 1.499 . S
C1072 C1073 1.373 . S
C1072 C1074 1.389 . S
C1073 H1052 0.950 . S
C1073 C1072 1.373 . S
C1073 C1089 1.377 . S
C1074 C1072 1.389 . S
C1074 C1075 1.524 . S
C1074 C1088 1.377 . S
C1075 C1074 1.524 . S
C1075 C1076 1.397 . S
C1075 C1080 1.363 . S
C1076 H1053 0.950 . S
C1076 C1075 1.397 . S
C1076 C1077 1.334 . S
C1077 H1054 0.950 . S
C1077 C1076 1.334 . S
C1077 C1078 1.287 . S
C1078 C1077 1.287 . S
C1078 C1079 1.524 . S
C1078 H1097 0.913 . S
C1079 H1055 0.950 . S
C1079 C1078 1.524 . S
C1079 C1080 1.415 . S
C1080 H1056 0.950 . S
C1080 C1075 1.363 . S
C1080 C1079 1.415 . S
C1081 H1057 0.951 . S
C1081 C1082 1.366 . S
C1081 C1083 1.388 . S
C1082 C1081 1.366 . S
C1082 C1086 1.385 . S
C1083 H1058 0.951 . S
C1083 C1081 1.388 . S
C1083 C1084 1.366 . S
C1084 C1083 1.366 . S
C1084 C1085 1.414 . S
C1084 C1087 1.499 . S
C1085 H1059 0.950 . S
C1085 C1084 1.414 . S
C1085 C1086 1.374 . S
C1086 H1060 0.950 . S
C1086 C1082 1.385 . S
C1086 C1085 1.374 . S
C1087 C1084 1.499 . S
C1087 C1088 1.373 . S
C1087 C1089 1.389 . S
C1088 H1061 0.950 . S
C1088 C1074 1.377 . S
C1088 C1087 1.373 . S
C1089 C1073 1.377 . S
C1089 C1087 1.389 . S
C1089 C1090 1.524 . S
C1090 C1089 1.524 . S
C1090 C1091 1.397 . S
C1090 C1095 1.363 . S
C1091 H1062 0.950 . S
C1091 C1090 1.397 . S
C1091 C1092 1.334 . S
C1092 H1063 0.950 . S
C1092 C1091 1.334 . S
C1092 C1093 1.287 . S
C1093 C1092 1.287 . S
C1093 C1094 1.524 . S
C1093 H1096 0.999 . S
C1094 H1064 0.950 . S
C1094 C1093 1.524 . S
C1094 C1095 1.415 . S
C1095 H1065 0.950 . S
C1095 C1090 1.363 . S
C1095 C1094 1.415 . S
H1096 C1093 0.999 . S
H1097 C1078 0.913 . S
H1098 C1116 0.951 . S
H1099 C1118 0.951 . S
H1100 C1120 0.950 . S
H1101 C1121 0.950 . S
H1102 C1123 0.950 . S
H1103 C1126 0.950 . S
H1104 C1127 0.950 . S
H1105 C1129 0.950 . S
H1106 C1130 0.950 . S
H1107 C1131 0.951 . S
H1108 C1133 0.951 . S
H1109 C1135 0.950 . S
H1110 C1136 0.950 . S
H1111 C1138 0.950 . S
H1112 C1141 0.950 . S
H1113 C1142 0.950 . S
H1114 C1144 0.950 . S
H1115 C1145 0.950 . S
C1116 H1098 0.951 . S
C1116 C1117 1.366 . S
C1116 C1118 1.388 . S
C1117 C1116 1.366 . S
C1117 C1121 1.385 . S
C1118 H1099 0.951 . S
C1118 C1116 1.388 . S
C1118 C1119 1.366 . S
C1119 C1118 1.366 . S
C1119 C1120 1.414 . S
C1119 C1122 1.499 . S
C1120 H1100 0.950 . S
C1120 C1119 1.414 . S
C1120 C1121 1.374 . S
C1121 H1101 0.950 . S
C1121 C1117 1.385 . S
C1121 C1120 1.374 . S
C1122 C1119 1.499 . S
C1122 C1123 1.373 . S
C1122 C1124 1.389 . S
C1123 H1102 0.950 . S
C1123 C1122 1.373 . S
C1123 C1139 1.377 . S
C1124 C1122 1.389 . S
C1124 C1125 1.524 . S
C1124 C1138 1.377 . S
C1125 C1124 1.524 . S
C1125 C1126 1.397 . S
C1125 C1130 1.363 . S
C1126 H1103 0.950 . S
C1126 C1125 1.397 . S
C1126 C1127 1.334 . S
C1127 H1104 0.950 . S
C1127 C1126 1.334 . S
C1127 C1128 1.287 . S
C1128 C1127 1.287 . S
C1128 C1129 1.524 . S
C1128 H1147 0.913 . S
C1129 H1105 0.950 . S
C1129 C1128 1.524 . S
C1129 C1130 1.415 . S
C1130 H1106 0.950 . S
C1130 C1125 1.363 . S
C1130 C1129 1.415 . S
C1131 H1107 0.951 . S
C1131 C1132 1.366 . S
C1131 C1133 1.388 . S
C1132 C1131 1.366 . S
C1132 C1136 1.385 . S
C1133 H1108 0.951 . S
C1133 C1131 1.388 . S
C1133 C1134 1.366 . S
C1134 C1133 1.366 . S
C1134 C1135 1.414 . S
C1134 C1137 1.499 . S
C1135 H1109 0.950 . S
C1135 C1134 1.414 . S
C1135 C1136 1.374 . S
C1136 H1110 0.950 . S
C1136 C1132 1.385 . S
C1136 C1135 1.374 . S
C1137 C1134 1.499 . S
C1137 C1138 1.373 . S
C1137 C1139 1.389 . S
C1138 H1111 0.950 . S
C1138 C1124 1.377 . S
C1138 C1137 1.373 . S
C1139 C1123 1.377 . S
C1139 C1137 1.389 . S
C1139 C1140 1.524 . S
C1140 C1139 1.524 . S
C1140 C1141 1.397 . S
C1140 C1145 1.363 . S
C1141 H1112 0.950 . S
C1141 C1140 1.397 . S
C1141 C1142 1.334 . S
C1142 H1113 0.950 . S
C1142 C1141 1.334 . S
C1142 C1143 1.287 . S
C1143 C1142 1.287 . S
C1143 C1144 1.524 . S
C1143 H1146 0.999 . S
C1144 H1114 0.950 . S
C1144 C1143 1.524 . S
C1144 C1145 1.415 . S
C1145 H1115 0.950 . S
C1145 C1140 1.363 . S
C1145 C1144 1.415 . S
H1146 C1143 0.999 . S
H1147 C1128 0.913 . S
H1148 C1166 0.951 . S
H1149 C1168 0.951 . S
H1150 C1170 0.950 . S
H1151 C1171 0.950 . S
H1152 C1173 0.950 . S
H1153 C1176 0.950 . S
H1154 C1177 0.950 . S
H1155 C1179 0.950 . S
H1156 C1180 0.950 . S
H1157 C1181 0.951 . S
H1158 C1183 0.951 . S
H1159 C1185 0.950 . S
H1160 C1186 0.950 . S
H1161 C1188 0.950 . S
H1162 C1191 0.950 . S
H1163 C1192 0.950 . S
H1164 C1194 0.950 . S
H1165 C1195 0.950 . S
C1166 H1148 0.951 . S
C1166 C1167 1.366 . S
C1166 C1168 1.388 . S
C1167 C1166 1.366 . S
C1167 C1171 1.385 . S
C1168 H1149 0.951 . S
C1168 C1166 1.388 . S
C1168 C1169 1.366 . S
C1169 C1168 1.366 . S
C1169 C1170 1.414 . S
C1169 C1172 1.499 . S
C1170 H1150 0.950 . S
C1170 C1169 1.414 . S
C1170 C1171 1.374 . S
C1171 H1151 0.950 . S
C1171 C1167 1.385 . S
C1171 C1170 1.374 . S
C1172 C1169 1.499 . S
C1172 C1173 1.373 . S
C1172 C1174 1.389 . S
C1173 H1152 0.950 . S
C1173 C1172 1.373 . S
C1173 C1189 1.377 . S
C1174 C1172 1.389 . S
C1174 C1175 1.524 . S
C1174 C1188 1.377 . S
C1175 C1174 1.524 . S
C1175 C1176 1.397 . S
C1175 C1180 1.363 . S
C1176 H1153 0.950 . S
C1176 C1175 1.397 . S
C1176 C1177 1.334 . S
C1177 H1154 0.950 . S
C1177 C1176 1.334 . S
C1177 C1178 1.287 . S
C1178 C1177 1.287 . S
C1178 C1179 1.524 . S
C1178 H1197 0.913 . S
C1179 H1155 0.950 . S
C1179 C1178 1.524 . S
C1179 C1180 1.415 . S
C1180 H1156 0.950 . S
C1180 C1175 1.363 . S
C1180 C1179 1.415 . S
C1181 H1157 0.951 . S
C1181 C1182 1.366 . S
C1181 C1183 1.388 . S
C1182 C1181 1.366 . S
C1182 C1186 1.385 . S
C1183 H1158 0.951 . S
C1183 C1181 1.388 . S
C1183 C1184 1.366 . S
C1184 C1183 1.366 . S
C1184 C1185 1.414 . S
C1184 C1187 1.499 . S
C1185 H1159 0.950 . S
C1185 C1184 1.414 . S
C1185 C1186 1.374 . S
C1186 H1160 0.950 . S
C1186 C1182 1.385 . S
C1186 C1185 1.374 . S
C1187 C1184 1.499 . S
C1187 C1188 1.373 . S
C1187 C1189 1.389 . S
C1188 H1161 0.950 . S
C1188 C1174 1.377 . S
C1188 C1187 1.373 . S
C1189 C1173 1.377 . S
C1189 C1187 1.389 . S
C1189 C1190 1.524 . S
C1190 C1189 1.524 . S
C1190 C1191 1.397 . S
C1190 C1195 1.363 . S
C1191 H1162 0.950 . S
C1191 C1190 1.397 . S
C1191 C1192 1.334 . S
C1192 H1163 0.950 . S
C1192 C1191 1.334 . S
C1192 C1193 1.287 . S
C1193 C1192 1.287 . S
C1193 C1194 1.524 . S
C1193 H1196 0.999 . S
C1194 H1164 0.950 . S
C1194 C1193 1.524 . S
C1194 C1195 1.415 . S
C1195 H1165 0.950 . S
C1195 C1190 1.363 . S
C1195 C1194 1.415 . S
H1196 C1193 0.999 . S
H1197 C1178 0.913 . S
H1198 C1216 0.951 . S
H1199 C1218 0.951 . S
H1200 C1220 0.950 . S
H1201 C1221 0.950 . S
H1202 C1223 0.950 . S
H1203 C1226 0.950 . S
H1204 C1227 0.950 . S
H1205 C1229 0.950 . S
H1206 C1230 0.950 . S
H1207 C1231 0.951 . S
H1208 C1233 0.951 . S
H1209 C1235 0.950 . S
H1210 C1236 0.950 . S
H1211 C1238 0.950 . S
H1212 C1241 0.950 . S
H1213 C1242 0.950 . S
H1214 C1244 0.950 . S
H1215 C1245 0.950 . S
C1216 H1198 0.951 . S
C1216 C1217 1.366 . S
C1216 C1218 1.388 . S
C1217 C1216 1.366 . S
C1217 C1221 1.385 . S
C1218 H1199 0.951 . S
C1218 C1216 1.388 . S
C1218 C1219 1.366 . S
C1219 C1218 1.366 . S
C1219 C1220 1.414 . S
C1219 C1222 1.499 . S
C1220 H1200 0.950 . S
C1220 C1219 1.414 . S
C1220 C1221 1.374 . S
C1221 H1201 0.950 . S
C1221 C1217 1.385 . S
C1221 C1220 1.374 . S
C1222 C1219 1.499 . S
C1222 C1223 1.373 . S
C1222 C1224 1.389 . S
C1223 H1202 0.950 . S
C1223 C1222 1.373 . S
C1223 C1239 1.377 . S
C1224 C1222 1.389 . S
C1224 C1225 1.524 . S
C1224 C1238 1.377 . S
C1225 C1224 1.524 . S
C1225 C1226 1.397 . S
C1225 C1230 1.363 . S
C1226 H1203 0.950 . S
C1226 C1225 1.397 . S
C1226 C1227 1.334 . S
C1227 H1204 0.950 . S
C1227 C1226 1.334 . S
C1227 C1228 1.287 . S
C1228 C1227 1.287 . S
C1228 C1229 1.524 . S
C1228 H1247 0.913 . S
C1229 H1205 0.950 . S
C1229 C1228 1.524 . S
C1229 C1230 1.415 . S
C1230 H1206 0.950 . S
C1230 C1225 1.363 . S
C1230 C1229 1.415 . S
C1231 H1207 0.951 . S
C1231 C1232 1.366 . S
C1231 C1233 1.388 . S
C1232 C1231 1.366 . S
C1232 C1236 1.385 . S
C1233 H1208 0.951 . S
C1233 C1231 1.388 . S
C1233 C1234 1.366 . S
C1234 C1233 1.366 . S
C1234 C1235 1.414 . S
C1234 C1237 1.499 . S
C1235 H1209 0.950 . S
C1235 C1234 1.414 . S
C1235 C1236 1.374 . S
C1236 H1210 0.950 . S
C1236 C1232 1.385 . S
C1236 C1235 1.374 . S
C1237 C1234 1.499 . S
C1237 C1238 1.373 . S
C1237 C1239 1.389 . S
C1238 H1211 0.950 . S
C1238 C1224 1.377 . S
C1238 C1237 1.373 . S
C1239 C1223 1.377 . S
C1239 C1237 1.389 . S
C1239 C1240 1.524 . S
C1240 C1239 1.524 . S
C1240 C1241 1.397 . S
C1240 C1245 1.363 . S
C1241 H1212 0.950 . S
C1241 C1240 1.397 . S
C1241 C1242 1.334 1_455 S
C1242 H1213 0.950 . S
C1242 C1241 1.334 1_655 S
C1242 C1243 1.287 . S
C1243 C1242 1.287 . S
C1243 C1244 1.524 . S
C1243 H1246 0.999 . S
C1244 H1214 0.950 . S
C1244 C1243 1.524 . S
C1244 C1245 1.415 1_655 S
C1245 H1215 0.950 . S
C1245 C1240 1.363 . S
C1245 C1244 1.415 1_455 S
H1246 C1243 0.999 . S
H1247 C1228 0.913 . S
H1248 C1266 0.951 . S
H1249 C1268 0.951 . S
H1250 C1270 0.950 . S
H1251 C1271 0.950 . S
H1252 C1273 0.950 . S
H1253 C1276 0.950 . S
H1254 C1277 0.950 . S
H1255 C1279 0.950 . S
H1256 C1280 0.950 . S
H1257 C1281 0.951 . S
H1258 C1283 0.951 . S
H1259 C1285 0.950 . S
H1260 C1286 0.950 . S
H1261 C1288 0.950 . S
H1262 C1291 0.950 . S
H1263 C1292 0.950 . S
H1264 C1294 0.950 . S
H1265 C1295 0.950 . S
C1266 H1248 0.951 . S
C1266 C1267 1.366 . S
C1266 C1268 1.388 . S
C1267 C1266 1.366 . S
C1267 C1271 1.385 . S
C1268 H1249 0.951 . S
C1268 C1266 1.388 . S
C1268 C1269 1.366 . S
C1269 C1268 1.366 . S
C1269 C1270 1.414 . S
C1269 C1272 1.499 . S
C1270 H1250 0.950 . S
C1270 C1269 1.414 . S
C1270 C1271 1.374 . S
C1271 H1251 0.950 . S
C1271 C1267 1.385 . S
C1271 C1270 1.374 . S
C1272 C1269 1.499 . S
C1272 C1273 1.373 . S
C1272 C1274 1.389 . S
C1273 H1252 0.950 . S
C1273 C1272 1.373 . S
C1273 C1289 1.377 . S
C1274 C1272 1.389 . S
C1274 C1275 1.524 . S
C1274 C1288 1.377 . S
C1275 C1274 1.524 . S
C1275 C1276 1.397 . S
C1275 C1280 1.363 . S
C1276 H1253 0.950 . S
C1276 C1275 1.397 . S
C1276 C1277 1.334 . S
C1277 H1254 0.950 . S
C1277 C1276 1.334 . S
C1277 C1278 1.287 . S
C1278 C1277 1.287 . S
C1278 C1279 1.524 . S
C1278 H1297 0.913 . S
C1279 H1255 0.950 . S
C1279 C1278 1.524 . S
C1279 C1280 1.415 . S
C1280 H1256 0.950 . S
C1280 C1275 1.363 . S
C1280 C1279 1.415 . S
C1281 H1257 0.951 . S
C1281 C1282 1.366 . S
C1281 C1283 1.388 . S
C1282 C1281 1.366 . S
C1282 C1286 1.385 . S
C1283 H1258 0.951 . S
C1283 C1281 1.388 . S
C1283 C1284 1.366 . S
C1284 C1283 1.366 . S
C1284 C1285 1.414 . S
C1284 C1287 1.499 . S
C1285 H1259 0.950 . S
C1285 C1284 1.414 . S
C1285 C1286 1.374 . S
C1286 H1260 0.950 . S
C1286 C1282 1.385 . S
C1286 C1285 1.374 . S
C1287 C1284 1.499 . S
C1287 C1288 1.373 . S
C1287 C1289 1.389 . S
C1288 H1261 0.950 . S
C1288 C1274 1.377 . S
C1288 C1287 1.373 . S
C1289 C1273 1.377 . S
C1289 C1287 1.389 . S
C1289 C1290 1.524 . S
C1290 C1289 1.524 . S
C1290 C1291 1.397 . S
C1290 C1295 1.363 . S
C1291 H1262 0.950 . S
C1291 C1290 1.397 . S
C1291 C1292 1.334 . S
C1292 H1263 0.950 . S
C1292 C1291 1.334 . S
C1292 C1293 1.287 . S
C1293 C1292 1.287 . S
C1293 C1294 1.524 . S
C1293 H1296 0.999 . S
C1294 H1264 0.950 . S
C1294 C1293 1.524 . S
C1294 C1295 1.415 . S
C1295 H1265 0.950 . S
C1295 C1290 1.363 . S
C1295 C1294 1.415 . S
H1296 C1293 0.999 . S
H1297 C1278 0.913 . S
H1298 C1316 0.951 . S
H1299 C1318 0.951 . S
H1300 C1320 0.950 . S
H1301 C1321 0.950 . S
H1302 C1323 0.950 . S
H1303 C1326 0.950 . S
H1304 C1327 0.950 . S
H1305 C1329 0.950 . S
H1306 C1330 0.950 . S
H1307 C1331 0.951 . S
H1308 C1333 0.951 . S
H1309 C1335 0.950 . S
H1310 C1336 0.986 . S
H1311 C1338 0.950 . S
H1312 C1341 0.950 . S
H1313 C1342 0.950 . S
H1314 C1344 0.950 . S
H1315 C1345 0.950 . S
C1316 H1298 0.951 . S
C1316 C1317 1.366 . S
C1316 C1318 1.388 . S
C1317 C1316 1.366 . S
C1317 C1321 1.385 . S
C1318 H1299 0.951 . S
C1318 C1316 1.388 . S
C1318 C1319 1.366 . S
C1319 C1318 1.366 . S
C1319 C1320 1.414 . S
C1319 C1322 1.499 . S
C1320 H1300 0.950 . S
C1320 C1319 1.414 . S
C1320 C1321 1.374 . S
C1321 H1301 0.950 . S
C1321 C1317 1.385 . S
C1321 C1320 1.374 . S
C1322 C1319 1.499 . S
C1322 C1323 1.373 . S
C1322 C1324 1.389 . S
C1323 H1302 0.950 . S
C1323 C1322 1.373 . S
C1323 C1339 1.377 . S
C1324 C1322 1.389 . S
C1324 C1325 1.524 . S
C1324 C1338 1.377 . S
C1325 C1324 1.524 . S
C1325 C1326 1.397 . S
C1325 C1330 1.363 . S
C1326 H1303 0.950 . S
C1326 C1325 1.397 . S
C1326 C1327 1.334 . S
C1327 H1304 0.950 . S
C1327 C1326 1.334 . S
C1327 C1328 1.287 . S
C1328 C1327 1.287 . S
C1328 C1329 1.524 . S
C1328 H1347 0.913 . S
C1329 H1305 0.950 . S
C1329 C1328 1.524 . S
C1329 C1330 1.415 . S
C1330 H1306 0.950 . S
C1330 C1325 1.363 . S
C1330 C1329 1.415 . S
C1331 H1307 0.951 . S
C1331 C1332 1.366 . S
C1331 C1333 1.388 . S
C1332 C1331 1.366 . S
C1332 C1336 1.385 . S
C1333 H1308 0.951 . S
C1333 C1331 1.388 . S
C1333 C1334 1.366 . S
C1334 C1333 1.366 . S
C1334 C1335 1.414 . S
C1334 C1337 1.499 . S
C1335 H1309 0.950 . S
C1335 C1334 1.414 . S
C1335 C1336 1.374 . S
C1336 H1310 0.986 . S
C1336 C1332 1.385 . S
C1336 C1335 1.374 . S
C1337 C1334 1.499 . S
C1337 C1338 1.373 . S
C1337 C1339 1.389 . S
C1338 H1311 0.950 . S
C1338 C1324 1.377 . S
C1338 C1337 1.373 . S
C1339 C1323 1.377 . S
C1339 C1337 1.389 . S
C1339 C1340 1.524 . S
C1340 C1339 1.524 . S
C1340 C1341 1.397 . S
C1340 C1345 1.363 . S
C1341 H1312 0.950 . S
C1341 C1340 1.397 . S
C1341 C1342 1.334 . S
C1342 H1313 0.950 . S
C1342 C1341 1.334 . S
C1342 C1343 1.287 . S
C1343 C1342 1.287 . S
C1343 C1344 1.524 . S
C1343 H1346 0.999 . S
C1344 H1314 0.950 . S
C1344 C1343 1.524 . S
C1344 C1345 1.415 . S
C1345 H1315 0.950 . S
C1345 C1340 1.363 . S
C1345 C1344 1.415 . S
H1346 C1343 0.999 . S
H1347 C1328 0.913 . S
H1348 C1366 0.951 . S
H1349 C1368 0.951 . S
H1350 C1370 0.950 . S
H1351 C1371 0.950 . S
H1352 C1373 0.950 . S
H1353 C1376 0.950 . S
H1354 C1377 0.950 . S
H1355 C1379 0.950 . S
H1356 C1380 0.950 . S
H1357 C1381 0.951 . S
H1358 C1383 0.951 . S
H1359 C1385 0.950 . S
H1360 C1386 0.950 . S
H1361 C1388 0.950 . S
H1362 C1391 0.950 . S
H1363 C1392 0.950 . S
H1364 C1394 0.950 . S
H1365 C1395 0.950 . S
C1366 H1348 0.951 . S
C1366 C1367 1.366 . S
C1366 C1368 1.388 . S
C1367 C1366 1.366 . S
C1367 C1371 1.385 . S
C1368 H1349 0.951 . S
C1368 C1366 1.388 . S
C1368 C1369 1.366 . S
C1369 C1368 1.366 . S
C1369 C1370 1.414 . S
C1369 C1372 1.499 . S
C1370 H1350 0.950 . S
C1370 C1369 1.414 . S
C1370 C1371 1.374 . S
C1371 H1351 0.950 . S
C1371 C1367 1.385 . S
C1371 C1370 1.374 . S
C1372 C1369 1.499 . S
C1372 C1373 1.373 . S
C1372 C1374 1.389 . S
C1373 H1352 0.950 . S
C1373 C1372 1.373 . S
C1373 C1389 1.377 . S
C1374 C1372 1.389 . S
C1374 C1375 1.524 . S
C1374 C1388 1.377 . S
C1375 C1374 1.524 . S
C1375 C1376 1.397 . S
C1375 C1380 1.363 . S
C1376 H1353 0.950 . S
C1376 C1375 1.397 . S
C1376 C1377 1.334 . S
C1377 H1354 0.950 . S
C1377 C1376 1.334 . S
C1377 C1378 1.287 . S
C1378 C1377 1.287 . S
C1378 C1379 1.524 . S
C1378 H1397 0.913 . S
C1379 H1355 0.950 . S
C1379 C1378 1.524 . S
C1379 C1380 1.415 . S
C1380 H1356 0.950 . S
C1380 C1375 1.363 . S
C1380 C1379 1.415 . S
C1381 H1357 0.951 . S
C1381 C1382 1.366 . S
C1381 C1383 1.388 . S
C1382 C1381 1.366 . S
C1382 C1386 1.385 . S
C1383 H1358 0.951 . S
C1383 C1381 1.388 . S
C1383 C1384 1.366 . S
C1384 C1383 1.366 . S
C1384 C1385 1.414 . S
C1384 C1387 1.499 . S
C1385 H1359 0.950 . S
C1385 C1384 1.414 . S
C1385 C1386 1.374 . S
C1386 H1360 0.950 . S
C1386 C1382 1.385 . S
C1386 C1385 1.374 . S
C1387 C1384 1.499 . S
C1387 C1388 1.373 . S
C1387 C1389 1.389 . S
C1388 H1361 0.950 . S
C1388 C1374 1.377 . S
C1388 C1387 1.373 . S
C1389 C1373 1.377 . S
C1389 C1387 1.389 . S
C1389 C1390 1.524 . S
C1390 C1389 1.524 . S
C1390 C1391 1.397 . S
C1390 C1395 1.363 . S
C1391 H1362 0.950 . S
C1391 C1390 1.397 . S
C1391 C1392 1.334 . S
C1392 H1363 0.950 . S
C1392 C1391 1.334 . S
C1392 C1393 1.287 . S
C1393 C1392 1.287 . S
C1393 C1394 1.524 . S
C1393 H1396 0.999 . S
C1394 H1364 0.950 . S
C1394 C1393 1.524 . S
C1394 C1395 1.415 . S
C1395 H1365 0.950 . S
C1395 C1390 1.363 . S
C1395 C1394 1.415 . S
H1396 C1393 0.999 . S
H1397 C1378 0.913 . S
H1398 C1416 0.951 . S
H1399 C1418 0.951 . S
H1400 C1420 0.950 . S
H1401 C1421 0.950 . S
H1402 C1423 0.950 . S
H1403 C1426 0.950 . S
H1404 C1427 0.950 . S
H1405 C1429 0.950 . S
H1406 C1430 0.950 . S
H1407 C1431 0.951 . S
H1408 C1433 0.951 . S
H1409 C1435 0.950 . S
H1410 C1436 0.950 . S
H1411 C1438 0.950 . S
H1412 C1441 0.950 . S
H1413 C1442 0.950 . S
H1414 C1444 0.950 . S
H1415 C1445 0.950 . S
C1416 H1398 0.951 . S
C1416 C1417 1.366 . S
C1416 C1418 1.388 . S
C1417 C1416 1.366 . S
C1417 C1421 1.385 . S
C1418 H1399 0.951 . S
C1418 C1416 1.388 . S
C1418 C1419 1.366 . S
C1419 C1418 1.366 . S
C1419 C1420 1.414 . S
C1419 C1422 1.499 . S
C1420 H1400 0.950 . S
C1420 C1419 1.414 . S
C1420 C1421 1.374 . S
C1421 H1401 0.950 . S
C1421 C1417 1.385 . S
C1421 C1420 1.374 . S
C1422 C1419 1.499 . S
C1422 C1423 1.373 . S
C1422 C1424 1.389 . S
C1423 H1402 0.950 . S
C1423 C1422 1.373 . S
C1423 C1439 1.377 . S
C1424 C1422 1.389 . S
C1424 C1425 1.524 . S
C1424 C1438 1.377 . S
C1425 C1424 1.524 . S
C1425 C1426 1.397 . S
C1425 C1430 1.363 . S
C1426 H1403 0.950 . S
C1426 C1425 1.397 . S
C1426 C1427 1.334 . S
C1427 H1404 0.950 . S
C1427 C1426 1.334 . S
C1427 C1428 1.287 . S
C1428 C1427 1.287 . S
C1428 C1429 1.524 . S
C1428 H1447 0.913 . S
C1429 H1405 0.950 . S
C1429 C1428 1.524 . S
C1429 C1430 1.415 . S
C1430 H1406 0.950 . S
C1430 C1425 1.363 . S
C1430 C1429 1.415 . S
C1431 H1407 0.951 . S
C1431 C1432 1.366 . S
C1431 C1433 1.388 . S
C1432 C1431 1.366 . S
C1432 C1436 1.385 . S
C1433 H1408 0.951 . S
C1433 C1431 1.388 . S
C1433 C1434 1.366 . S
C1434 C1433 1.366 . S
C1434 C1435 1.414 . S
C1434 C1437 1.499 . S
C1435 H1409 0.950 . S
C1435 C1434 1.414 . S
C1435 C1436 1.374 . S
C1436 H1410 0.950 . S
C1436 C1432 1.385 . S
C1436 C1435 1.374 . S
C1437 C1434 1.499 . S
C1437 C1438 1.373 . S
C1437 C1439 1.389 . S
C1438 H1411 0.950 . S
C1438 C1424 1.377 . S
C1438 C1437 1.373 . S
C1439 C1423 1.377 . S
C1439 C1437 1.389 . S
C1439 C1440 1.524 . S
C1440 C1439 1.524 . S
C1440 C1441 1.397 . S
C1440 C1445 1.363 . S
C1441 H1412 0.950 . S
C1441 C1440 1.397 . S
C1441 C1442 1.334 . S
C1442 H1413 0.950 . S
C1442 C1441 1.334 . S
C1442 C1443 1.287 . S
C1443 C1442 1.287 . S
C1443 C1444 1.524 . S
C1443 H1446 0.999 . S
C1444 H1414 0.950 . S
C1444 C1443 1.524 . S
C1444 C1445 1.415 . S
C1445 H1415 0.950 . S
C1445 C1440 1.363 . S
C1445 C1444 1.415 . S
H1446 C1443 0.999 . S
H1447 C1428 0.913 . S
H1448 C1466 0.951 . S
H1449 C1468 0.951 . S
H1450 C1470 0.950 . S
H1451 C1471 0.950 . S
H1452 C1473 0.950 . S
H1453 C1476 0.950 . S
H1454 C1477 0.950 . S
H1455 C1479 0.950 . S
H1456 C1480 0.950 . S
H1457 C1481 0.951 . S
H1458 C1483 0.951 . S
H1459 C1485 0.950 . S
H1460 C1486 0.950 . S
H1461 C1488 0.950 . S
H1462 C1491 0.950 . S
H1463 C1492 0.950 . S
H1464 C1494 0.950 . S
H1465 C1495 0.950 . S
C1466 H1448 0.951 . S
C1466 C1467 1.366 . S
C1466 C1468 1.388 . S
C1467 C1466 1.366 . S
C1467 C1471 1.385 . S
C1468 H1449 0.951 . S
C1468 C1466 1.388 . S
C1468 C1469 1.366 . S
C1469 C1468 1.366 . S
C1469 C1470 1.414 . S
C1469 C1472 1.499 . S
C1470 H1450 0.950 . S
C1470 C1469 1.414 . S
C1470 C1471 1.374 . S
C1471 H1451 0.950 . S
C1471 C1467 1.385 . S
C1471 C1470 1.374 . S
C1472 C1469 1.499 . S
C1472 C1473 1.373 . S
C1472 C1474 1.389 . S
C1473 H1452 0.950 . S
C1473 C1472 1.373 . S
C1473 C1489 1.377 . S
C1474 C1472 1.389 . S
C1474 C1475 1.524 . S
C1474 C1488 1.377 . S
C1475 C1474 1.524 . S
C1475 C1476 1.397 . S
C1475 C1480 1.363 . S
C1476 H1453 0.950 . S
C1476 C1475 1.397 . S
C1476 C1477 1.334 . S
C1477 H1454 0.950 . S
C1477 C1476 1.334 . S
C1477 C1478 1.287 . S
C1478 C1477 1.287 . S
C1478 C1479 1.524 . S
C1478 H1497 0.913 . S
C1479 H1455 0.950 . S
C1479 C1478 1.524 . S
C1479 C1480 1.415 . S
C1480 H1456 0.950 . S
C1480 C1475 1.363 . S
C1480 C1479 1.415 . S
C1481 H1457 0.951 . S
C1481 C1482 1.366 . S
C1481 C1483 1.388 . S
C1482 C1481 1.366 . S
C1482 C1486 1.385 . S
C1483 H1458 0.951 . S
C1483 C1481 1.388 . S
C1483 C1484 1.366 . S
C1484 C1483 1.366 . S
C1484 C1485 1.414 . S
C1484 C1487 1.499 . S
C1485 H1459 0.950 . S
C1485 C1484 1.414 . S
C1485 C1486 1.374 . S
C1486 H1460 0.950 . S
C1486 C1482 1.385 . S
C1486 C1485 1.374 . S
C1487 C1484 1.499 . S
C1487 C1488 1.373 . S
C1487 C1489 1.389 . S
C1488 H1461 0.950 . S
C1488 C1474 1.377 . S
C1488 C1487 1.373 . S
C1489 C1473 1.377 . S
C1489 C1487 1.389 . S
C1489 C1490 1.524 . S
C1490 C1489 1.524 . S
C1490 C1491 1.397 . S
C1490 C1495 1.363 . S
C1491 H1462 0.950 . S
C1491 C1490 1.397 . S
C1491 C1492 1.334 . S
C1492 H1463 0.950 . S
C1492 C1491 1.334 . S
C1492 C1493 1.287 . S
C1493 C1492 1.287 . S
C1493 C1494 1.524 . S
C1493 H1496 0.999 . S
C1494 H1464 0.950 . S
C1494 C1493 1.524 . S
C1494 C1495 1.415 . S
C1495 H1465 0.950 . S
C1495 C1490 1.363 . S
C1495 C1494 1.415 . S
H1496 C1493 0.999 . S
H1497 C1478 0.913 . S
H1498 C1516 0.951 . S
H1499 C1518 0.951 . S
H1500 C1520 0.950 . S
H1501 C1521 0.950 . S
H1502 C1523 0.950 . S
H1503 C1526 0.950 . S
H1504 C1527 0.950 . S
H1505 C1529 0.950 . S
H1506 C1530 0.950 . S
H1507 C1531 0.951 . S
H1508 C1533 0.951 . S
H1509 C1535 0.950 . S
H1510 C1536 0.950 . S
H1511 C1538 0.950 . S
H1512 C1541 0.950 . S
H1513 C1542 0.950 . S
H1514 C1544 0.950 . S
H1515 C1545 0.950 . S
C1516 H1498 0.951 . S
C1516 C1517 1.366 . S
C1516 C1518 1.388 . S
C1517 C1516 1.366 . S
C1517 C1521 1.385 . S
C1518 H1499 0.951 . S
C1518 C1516 1.388 . S
C1518 C1519 1.366 . S
C1519 C1518 1.366 . S
C1519 C1520 1.414 . S
C1519 C1522 1.499 . S
C1520 H1500 0.950 . S
C1520 C1519 1.414 . S
C1520 C1521 1.374 . S
C1521 H1501 0.950 . S
C1521 C1517 1.385 . S
C1521 C1520 1.374 . S
C1522 C1519 1.499 . S
C1522 C1523 1.373 . S
C1522 C1524 1.389 . S
C1523 H1502 0.950 . S
C1523 C1522 1.373 . S
C1523 C1539 1.377 . S
C1524 C1522 1.389 . S
C1524 C1525 1.524 . S
C1524 C1538 1.377 . S
C1525 C1524 1.524 . S
C1525 C1526 1.397 . S
C1525 C1530 1.363 . S
C1526 H1503 0.950 . S
C1526 C1525 1.397 . S
C1526 C1527 1.334 . S
C1527 H1504 0.950 . S
C1527 C1526 1.334 . S
C1527 C1528 1.287 . S
C1528 C1527 1.287 . S
C1528 C1529 1.524 . S
C1528 H1547 0.913 . S
C1529 H1505 0.950 . S
C1529 C1528 1.524 . S
C1529 C1530 1.415 . S
C1530 H1506 0.950 . S
C1530 C1525 1.363 . S
C1530 C1529 1.415 . S
C1531 H1507 0.951 . S
C1531 C1532 1.366 . S
C1531 C1533 1.388 . S
C1532 C1531 1.366 . S
C1532 C1536 1.385 . S
C1533 H1508 0.951 . S
C1533 C1531 1.388 . S
C1533 C1534 1.366 . S
C1534 C1533 1.366 . S
C1534 C1535 1.414 . S
C1534 C1537 1.499 . S
C1535 H1509 0.950 . S
C1535 C1534 1.414 . S
C1535 C1536 1.374 . S
C1536 H1510 0.950 . S
C1536 C1532 1.385 . S
C1536 C1535 1.374 . S
C1537 C1534 1.499 . S
C1537 C1538 1.373 . S
C1537 C1539 1.389 . S
C1538 H1511 0.950 . S
C1538 C1524 1.377 . S
C1538 C1537 1.373 . S
C1539 C1523 1.377 . S
C1539 C1537 1.389 . S
C1539 C1540 1.524 . S
C1540 C1539 1.524 . S
C1540 C1541 1.397 . S
C1540 C1545 1.363 . S
C1541 H1512 0.950 . S
C1541 C1540 1.397 . S
C1541 C1542 1.334 . S
C1542 H1513 0.950 . S
C1542 C1541 1.334 . S
C1542 C1543 1.287 . S
C1543 C1542 1.287 . S
C1543 C1544 1.524 . S
C1543 H1546 0.999 . S
C1544 H1514 0.950 . S
C1544 C1543 1.524 . S
C1544 C1545 1.415 . S
C1545 H1515 0.950 . S
C1545 C1540 1.363 . S
C1545 C1544 1.415 . S
H1546 C1543 0.999 . S
H1547 C1528 0.913 . S
H1548 C1566 0.951 . S
H1549 C1568 0.951 . S
H1550 C1570 0.950 . S
H1551 C1571 0.950 . S
H1552 C1573 0.950 . S
H1553 C1576 0.950 . S
H1554 C1577 0.950 . S
H1555 C1579 0.950 . S
H1556 C1580 0.950 . S
H1557 C1581 0.951 . S
H1558 C1583 0.951 . S
H1559 C1585 0.950 . S
H1560 C1586 0.950 . S
H1561 C1588 0.950 . S
H1562 C1591 0.950 . S
H1563 C1592 0.950 . S
H1564 C1594 0.950 . S
H1565 C1595 0.950 . S
C1566 H1548 0.951 . S
C1566 C1567 1.366 . S
C1566 C1568 1.388 . S
C1567 C1566 1.366 . S
C1567 C1571 1.385 . S
C1568 H1549 0.951 . S
C1568 C1566 1.388 . S
C1568 C1569 1.366 . S
C1569 C1568 1.366 . S
C1569 C1570 1.414 . S
C1569 C1572 1.499 . S
C1570 H1550 0.950 . S
C1570 C1569 1.414 . S
C1570 C1571 1.374 . S
C1571 H1551 0.950 . S
C1571 C1567 1.385 . S
C1571 C1570 1.374 . S
C1572 C1569 1.499 . S
C1572 C1573 1.373 . S
C1572 C1574 1.389 . S
C1573 H1552 0.950 . S
C1573 C1572 1.373 . S
C1573 C1589 1.377 . S
C1574 C1572 1.389 . S
C1574 C1575 1.524 . S
C1574 C1588 1.377 . S
C1575 C1574 1.524 . S
C1575 C1576 1.397 . S
C1575 C1580 1.363 . S
C1576 H1553 0.950 . S
C1576 C1575 1.397 . S
C1576 C1577 1.334 . S
C1577 H1554 0.950 . S
C1577 C1576 1.334 . S
C1577 C1578 1.287 . S
C1578 C1577 1.287 . S
C1578 C1579 1.524 . S
C1578 H1597 0.913 . S
C1579 H1555 0.950 . S
C1579 C1578 1.524 . S
C1579 C1580 1.415 . S
C1580 H1556 0.950 . S
C1580 C1575 1.363 . S
C1580 C1579 1.415 . S
C1581 H1557 0.951 . S
C1581 C1582 1.366 . S
C1581 C1583 1.388 . S
C1582 C1581 1.366 . S
C1582 C1586 1.385 . S
C1583 H1558 0.951 . S
C1583 C1581 1.388 . S
C1583 C1584 1.366 . S
C1584 C1583 1.366 . S
C1584 C1585 1.414 . S
C1584 C1587 1.499 . S
C1585 H1559 0.950 . S
C1585 C1584 1.414 . S
C1585 C1586 1.374 . S
C1586 H1560 0.950 . S
C1586 C1582 1.385 . S
C1586 C1585 1.374 . S
C1587 C1584 1.499 . S
C1587 C1588 1.373 . S
C1587 C1589 1.389 . S
C1588 H1561 0.950 . S
C1588 C1574 1.377 . S
C1588 C1587 1.373 . S
C1589 C1573 1.377 . S
C1589 C1587 1.389 . S
C1589 C1590 1.524 . S
C1590 C1589 1.524 . S
C1590 C1591 1.397 . S
C1590 C1595 1.363 . S
C1591 H1562 0.950 . S
C1591 C1590 1.397 . S
C1591 C1592 1.334 . S
C1592 H1563 0.950 . S
C1592 C1591 1.334 . S
C1592 C1593 1.287 . S
C1593 C1592 1.287 . S
C1593 C1594 1.524 . S
C1593 H1596 0.999 . S
C1594 H1564 0.950 . S
C1594 C1593 1.524 . S
C1594 C1595 1.415 . S
C1595 H1565 0.950 . S
C1595 C1590 1.363 . S
C1595 C1594 1.415 . S
H1596 C1593 0.999 . S
H1597 C1578 0.913 . S
H1598 C1616 0.951 . S
H1599 C1618 0.951 . S
H1600 C1620 0.950 . S
H1601 C1621 0.950 . S
H1602 C1623 0.950 . S
H1603 C1626 0.950 . S
H1604 C1627 0.950 . S
H1605 C1629 0.950 . S
H1606 C1630 0.950 . S
H1607 C1631 0.951 . S
H1608 C1633 0.951 . S
H1609 C1635 0.950 . S
H1610 C1636 0.950 . S
H1611 C1638 0.950 . S
H1612 C1641 0.950 . S
H1613 C1642 0.950 . S
H1614 C1644 0.950 . S
H1615 C1645 0.950 . S
C1616 H1598 0.951 . S
C1616 C1617 1.366 . S
C1616 C1618 1.388 . S
C1617 C1616 1.366 . S
C1617 C1621 1.385 . S
C1618 H1599 0.951 . S
C1618 C1616 1.388 . S
C1618 C1619 1.366 . S
C1619 C1618 1.366 . S
C1619 C1620 1.414 . S
C1619 C1622 1.499 . S
C1620 H1600 0.950 . S
C1620 C1619 1.414 . S
C1620 C1621 1.374 . S
C1621 H1601 0.950 . S
C1621 C1617 1.385 . S
C1621 C1620 1.374 . S
C1622 C1619 1.499 . S
C1622 C1623 1.373 . S
C1622 C1624 1.389 . S
C1623 H1602 0.950 . S
C1623 C1622 1.373 . S
C1623 C1639 1.377 . S
C1624 C1622 1.389 . S
C1624 C1625 1.524 . S
C1624 C1638 1.377 . S
C1625 C1624 1.524 . S
C1625 C1626 1.397 . S
C1625 C1630 1.363 . S
C1626 H1603 0.950 . S
C1626 C1625 1.397 . S
C1626 C1627 1.334 . S
C1627 H1604 0.950 . S
C1627 C1626 1.334 . S
C1627 C1628 1.287 . S
C1628 C1627 1.287 . S
C1628 C1629 1.524 . S
C1628 H1647 0.913 . S
C1629 H1605 0.950 . S
C1629 C1628 1.524 . S
C1629 C1630 1.415 . S
C1630 H1606 0.950 . S
C1630 C1625 1.363 . S
C1630 C1629 1.415 . S
C1631 H1607 0.951 . S
C1631 C1632 1.366 . S
C1631 C1633 1.388 . S
C1632 C1631 1.366 . S
C1632 C1636 1.385 . S
C1633 H1608 0.951 . S
C1633 C1631 1.388 . S
C1633 C1634 1.366 . S
C1634 C1633 1.366 . S
C1634 C1635 1.414 . S
C1634 C1637 1.499 . S
C1635 H1609 0.950 . S
C1635 C1634 1.414 . S
C1635 C1636 1.374 . S
C1636 H1610 0.950 . S
C1636 C1632 1.385 . S
C1636 C1635 1.374 . S
C1637 C1634 1.499 . S
C1637 C1638 1.373 . S
C1637 C1639 1.389 . S
C1638 H1611 0.950 . S
C1638 C1624 1.377 . S
C1638 C1637 1.373 . S
C1639 C1623 1.377 . S
C1639 C1637 1.389 . S
C1639 C1640 1.524 . S
C1640 C1639 1.524 . S
C1640 C1641 1.397 . S
C1640 C1645 1.363 . S
C1641 H1612 0.950 . S
C1641 C1640 1.397 . S
C1641 C1642 1.334 . S
C1642 H1613 0.950 . S
C1642 C1641 1.334 . S
C1642 C1643 1.287 . S
C1643 C1642 1.287 . S
C1643 C1644 1.524 . S
C1643 H1646 0.999 . S
C1644 H1614 0.950 . S
C1644 C1643 1.524 . S
C1644 C1645 1.415 . S
C1645 H1615 0.950 . S
C1645 C1640 1.363 . S
C1645 C1644 1.415 . S
H1646 C1643 0.999 . S
H1647 C1628 0.913 . S
C467 C1 1.232 . S
C482 C294 1.247 . S
C517 C67 0.944 . S
C532 C343 0.942 . S
C582 C378 2.428 . S
C567 C97 2.459 . S
C617 C133 2.341 . S
C632 C417 2.279 . S
C682 C338 2.498 . S
C667 C25 2.451 . S
C732 C297 0.885 . S
C717 C37 0.908 . S
C782 C427 1.873 . S
C767 C103 1.913 . S
C832 C386 1.517 . S
C817 C109 1.549 . S
C867 C31 1.729 . S
C882 C414 1.762 . S
C932 C346 2.298 . S
C917 C73 2.375 . S
C967 C139 2.355 . S
C982 C307 2.344 . S
C1017 C61 0.714 . S
C1032 C383 0.712 . S
C1082 C303 1.248 . S
C1067 C175 1.197 . S
C1117 C181 0.920 . S
C1132 C334 0.922 . S
C1167 C247 2.484 . S
C1182 C387 2.452 . S
C1217 C277 2.328 . S
C1232 C426 2.267 . S
C1267 C145 2.373 . S
C1282 C347 2.487 . S
C1332 C306 0.889 . S
C1317 C211 0.908 . S
C1382 C418 1.861 . S
C1367 C217 1.893 . S
C1432 C377 1.536 . S
C1417 C283 1.568 . S
C1467 C169 1.667 . S
C1482 C423 1.755 . S
C1532 C337 2.306 . S
C1517 C241 2.379 . S
C1582 C298 2.329 . S
C1567 C253 2.341 . S
C1617 C205 0.723 . S
C1632 C374 0.723 . S
