# Generated by pormake.
# Topology pyr, (3,6)-cn, num edge types: 1
# Building blocks:
#     Node 0, Type 0, BuildingBlock: ESEHIV_clean_linker_0, # of connection points: 3
#     Node 1, Type 0, BuildingBlock: ESEHIV_clean_linker_0, # of connection points: 3
#     Node 2, Type 0, BuildingBlock: ESEHIV_clean_linker_0, # of connection points: 3
#     Node 3, Type 0, BuildingBlock: ESEHIV_clean_linker_0, # of connection points: 3
#     Node 4, Type 0, BuildingBlock: ESEHIV_clean_linker_0, # of connection points: 3
#     Node 5, Type 0, BuildingBlock: ESEHIV_clean_linker_0, # of connection points: 3
#     Node 6, Type 0, BuildingBlock: ESEHIV_clean_linker_0, # of connection points: 3
#     Node 7, Type 0, BuildingBlock: ESEHIV_clean_linker_0, # of connection points: 3
#     Node 8, Type 1, BuildingBlock: MIDCAF_clean_sbu_0, # of connection points: 6
#     Node 9, Type 1, BuildingBlock: MIDCAF_clean_sbu_0, # of connection points: 6
#     Node 10, Type 1, BuildingBlock: MIDCAF_clean_sbu_0, # of connection points: 6
#     Node 11, Type 1, BuildingBlock: MIDCAF_clean_sbu_0, # of connection points: 6
#     Edge 12, Type (0, 1), BuildingBlock: KIFKEQ_clean_linker_1, # of connection points: 2
#     Edge 13, Type (0, 1), BuildingBlock: KIFKEQ_clean_linker_1, # of connection points: 2
#     Edge 14, Type (0, 1), BuildingBlock: KIFKEQ_clean_linker_1, # of connection points: 2
#     Edge 15, Type (0, 1), BuildingBlock: KIFKEQ_clean_linker_1, # of connection points: 2
#     Edge 16, Type (0, 1), BuildingBlock: KIFKEQ_clean_linker_1, # of connection points: 2
#     Edge 17, Type (0, 1), BuildingBlock: KIFKEQ_clean_linker_1, # of connection points: 2
#     Edge 18, Type (0, 1), BuildingBlock: KIFKEQ_clean_linker_1, # of connection points: 2
#     Edge 19, Type (0, 1), BuildingBlock: KIFKEQ_clean_linker_1, # of connection points: 2
#     Edge 20, Type (0, 1), BuildingBlock: KIFKEQ_clean_linker_1, # of connection points: 2
#     Edge 21, Type (0, 1), BuildingBlock: KIFKEQ_clean_linker_1, # of connection points: 2
#     Edge 22, Type (0, 1), BuildingBlock: KIFKEQ_clean_linker_1, # of connection points: 2
#     Edge 23, Type (0, 1), BuildingBlock: KIFKEQ_clean_linker_1, # of connection points: 2
#     Edge 24, Type (0, 1), BuildingBlock: KIFKEQ_clean_linker_1, # of connection points: 2
#     Edge 25, Type (0, 1), BuildingBlock: KIFKEQ_clean_linker_1, # of connection points: 2
#     Edge 26, Type (0, 1), BuildingBlock: KIFKEQ_clean_linker_1, # of connection points: 2
#     Edge 27, Type (0, 1), BuildingBlock: KIFKEQ_clean_linker_1, # of connection points: 2
#     Edge 28, Type (0, 1), BuildingBlock: KIFKEQ_clean_linker_1, # of connection points: 2
#     Edge 29, Type (0, 1), BuildingBlock: KIFKEQ_clean_linker_1, # of connection points: 2
#     Edge 30, Type (0, 1), BuildingBlock: KIFKEQ_clean_linker_1, # of connection points: 2
#     Edge 31, Type (0, 1), BuildingBlock: KIFKEQ_clean_linker_1, # of connection points: 2
#     Edge 32, Type (0, 1), BuildingBlock: KIFKEQ_clean_linker_1, # of connection points: 2
#     Edge 33, Type (0, 1), BuildingBlock: KIFKEQ_clean_linker_1, # of connection points: 2
#     Edge 34, Type (0, 1), BuildingBlock: KIFKEQ_clean_linker_1, # of connection points: 2
#     Edge 35, Type (0, 1), BuildingBlock: KIFKEQ_clean_linker_1, # of connection points: 2
# Relax obj value: 0.019
# Max RMSD: 0.062
# Mean RMSD: 0.024
data_MOF--net-pry--node1-MIDCAF_clean_sbu_0--node2-ESEHIV_clean_linker_0--edge1-KIFKEQ_clean_linker_1
_symmetry_space_group_name_H-M    P1
_symmetry_Int_Tables_number       1
_symmetry_cell_setting            triclinic
loop_
_symmetry_equiv_pos_as_xyz
'x, y, z'
_cell_length_a     34.217764
_cell_length_b     34.232797
_cell_length_c     34.290446
_cell_angle_alpha  89.963334
_cell_angle_beta   90.104276
_cell_angle_gamma 90.260563
loop_
_atom_site_label
_atom_site_type_symbol
_atom_site_fract_x
_atom_site_fract_y
_atom_site_fract_z
_atom_type_partial_charge
H0 H 0.18162 0.27885 0.2757 0.0
H1 H 0.27103 0.19196 0.28469 0.0
H2 H 0.26538 0.26646 0.18343 0.0
C3 C 0.20711 0.26462 0.26363 0.0
C4 C 0.222 0.27697 0.22746 0.0
C5 C 0.22416 0.23355 0.2841 0.0
C6 C 0.25781 0.21587 0.26885 0.0
C7 C 0.27326 0.22741 0.23252 0.0
C8 C 0.25514 0.2583 0.21218 0.0
H9 H 0.26029 0.85082 0.77308 0.0
H10 H 0.35112 0.76476 0.7649 0.0
H11 H 0.26049 0.76903 0.67797 0.0
C12 C 0.27303 0.8258 0.75861 0.0
C13 C 0.25576 0.81149 0.7242 0.0
C14 C 0.30741 0.80908 0.7736 0.0
C15 C 0.3242 0.77728 0.75396 0.0
C16 C 0.30752 0.76263 0.71941 0.0
C17 C 0.27309 0.7797 0.70498 0.0
H18 H 0.76997 0.25735 0.8536 0.0
H19 H 0.77259 0.35161 0.77095 0.0
H20 H 0.67921 0.26707 0.76737 0.0
C21 C 0.75767 0.27206 0.82844 0.0
C22 C 0.72281 0.25782 0.81196 0.0
C23 C 0.77553 0.30629 0.8144 0.0
C24 C 0.75942 0.32482 0.7816 0.0
C25 C 0.72485 0.31072 0.76408 0.0
C26 C 0.70697 0.27684 0.7792 0.0
H27 H 0.7669 0.77866 0.34687 0.0
H28 H 0.8476 0.79312 0.25207 0.0
H29 H 0.76852 0.6953 0.25315 0.0
C30 C 0.77774 0.76962 0.31863 0.0
C31 C 0.76239 0.73572 0.30089 0.0
C32 C 0.8093 0.78985 0.30169 0.0
C33 C 0.82409 0.77688 0.26577 0.0
C34 C 0.81055 0.74222 0.24843 0.0
C35 C 0.77906 0.72231 0.26586 0.0
H36 H 0.87279 0.95723 0.85604 0.0
H37 H 0.94515 0.85703 0.87593 0.0
H38 H 0.85133 0.88216 0.95499 0.0
C39 C 0.88002 0.9319 0.87357 0.0
C40 C 0.85821 0.92318 0.90724 0.0
C41 C 0.91154 0.90834 0.86247 0.0
C42 C 0.92125 0.87566 0.88494 0.0
C43 C 0.8996 0.86625 0.91835 0.0
C44 C 0.86851 0.89025 0.92969 0.0
H45 H 0.58639 0.18991 0.3717 0.0
H46 H 0.6557 0.08687 0.35396 0.0
H47 H 0.68538 0.16732 0.44588 0.0
C48 C 0.61068 0.17151 0.38017 0.0
C49 C 0.63456 0.18224 0.41181 0.0
C50 C 0.6179 0.13686 0.35967 0.0
C51 C 0.64952 0.11317 0.37041 0.0
C52 C 0.67426 0.12435 0.40111 0.0
C53 C 0.66635 0.15863 0.42205 0.0
H54 H 0.36102 0.65004 0.07714 0.0
H55 H 0.38186 0.5774 0.17678 0.0
H56 H 0.46025 0.67277 0.15152 0.0
C57 C 0.37877 0.64305 0.10239 0.0
C58 C 0.41206 0.6656 0.11126 0.0
C59 C 0.36815 0.61127 0.12593 0.0
C60 C 0.39094 0.60154 0.15838 0.0
C61 C 0.42453 0.62346 0.16774 0.0
C62 C 0.43473 0.65549 0.14409 0.0
H63 H 0.08411 0.36663 0.65599 0.0
H64 H 0.18149 0.38528 0.57842 0.0
H65 H 0.16763 0.45752 0.67982 0.0
C66 C 0.10975 0.38313 0.64728 0.0
C67 C 0.12288 0.41369 0.67123 0.0
C68 C 0.13066 0.37235 0.61365 0.0
C69 C 0.16506 0.39293 0.60429 0.0
C70 C 0.17841 0.42371 0.62798 0.0
C71 C 0.15709 0.43411 0.66123 0.0
Zn72 Zn 0.96882 0.06894 0.56691 0.0
Zn73 Zn 0.059 0.98196 0.47687 0.0
Zn74 Zn 0.01372 0.02552 0.52262 0.0
C75 C 0.08602 0.05877 0.47018 0.0
C76 C 0.98222 0.9736 0.4496 0.0
O77 O 0.01717 0.00302 0.58314 0.0
O78 O 0.98465 0.04671 0.61769 0.0
C79 C 0.02113 0.11965 0.53206 0.0
O80 O 0.05702 0.06443 0.49348 0.0
O81 O 0.09437 0.02462 0.45918 0.0
O82 O 0.01676 0.96388 0.44118 0.0
O83 O 0.97566 0.99609 0.47898 0.0
O84 O 0.9901 0.12055 0.55183 0.0
O85 O 0.0348 0.08687 0.51973 0.0
O86 O 0.95256 0.02186 0.50087 0.0
O87 O 0.91759 0.05318 0.54504 0.0
C88 C 0.9193 0.03368 0.51388 0.0
O89 O 0.04403 0.98188 0.56011 0.0
O90 O 0.07773 0.9461 0.51842 0.0
C91 C 0.00464 0.01587 0.61615 0.0
C92 C 0.06756 0.95341 0.55304 0.0
Zn93 Zn 0.46214 0.06175 0.98147 0.0
Zn94 Zn 0.5599 0.97196 0.05933 0.0
Zn95 Zn 0.51264 0.01611 0.01965 0.0
C96 C 0.60628 0.01162 0.00645 0.0
C97 C 0.50775 0.92143 0.02431 0.0
O98 O 0.48264 0.05519 0.06211 0.0
O99 O 0.43766 0.08619 0.02746 0.0
C100 C 0.53804 0.0796 0.95487 0.0
O101 O 0.57244 0.02354 0.99499 0.0
O102 O 0.60938 0.99008 0.03612 0.0
O103 O 0.53951 0.92049 0.04298 0.0
O104 O 0.49283 0.95438 0.01393 0.0
O105 O 0.50326 0.09169 0.95323 0.0
O106 O 0.54695 0.05021 0.97662 0.0
O107 O 0.47015 0.9777 0.98879 0.0
O108 O 0.43337 0.01869 0.95505 0.0
C109 C 0.44229 0.98411 0.96424 0.0
O110 O 0.512 0.03458 0.08214 0.0
O111 O 0.54772 0.99019 0.11243 0.0
C112 C 0.45372 0.07915 0.05981 0.0
C113 C 0.52692 0.02048 0.11375 0.0
Zn114 Zn 0.57104 0.56883 0.55838 0.0
Zn115 Zn 0.47948 0.47944 0.4741 0.0
Zn116 Zn 0.52507 0.52377 0.51683 0.0
C117 C 0.53271 0.42961 0.50884 0.0
C118 C 0.51478 0.53064 0.4228 0.0
O119 O 0.48745 0.55651 0.55794 0.0
O120 O 0.5284 0.60098 0.58123 0.0
C121 C 0.59063 0.49209 0.57698 0.0
O122 O 0.54621 0.46261 0.52123 0.0
O123 O 0.50155 0.42835 0.48915 0.0
O124 O 0.49353 0.50045 0.42239 0.0
O125 O 0.52846 0.54407 0.45523 0.0
O126 O 0.59616 0.52659 0.58888 0.0
O127 O 0.56645 0.48537 0.54887 0.0
O128 O 0.55679 0.56454 0.4767 0.0
O129 O 0.60189 0.59084 0.51497 0.0
C130 C 0.5874 0.58618 0.48145 0.0
O131 O 0.46418 0.5278 0.53943 0.0
O132 O 0.42874 0.49449 0.49666 0.0
C133 C 0.49413 0.58742 0.57839 0.0
C134 C 0.43085 0.51492 0.52718 0.0
Zn135 Zn 0.06298 0.56806 0.96932 0.0
Zn136 Zn 0.97567 0.48542 0.06373 0.0
Zn137 Zn 0.02057 0.52363 0.01474 0.0
C138 C 0.05251 0.46692 0.08341 0.0
C139 C 0.95678 0.46059 0.98751 0.0
O140 O 1.00035 0.58559 0.01669 0.0
O141 O 0.04306 0.62033 0.98267 0.0
C142 C 0.11462 0.53172 0.02041 0.0
O143 O 0.05947 0.49253 0.05667 0.0
O144 O 0.01776 0.45715 0.09119 0.0
O145 O 0.94471 0.45918 0.02227 0.0
O146 O 0.98713 0.48121 0.97879 0.0
O147 O 0.11446 0.55282 0.99023 0.0
O148 O 0.08222 0.51858 0.03456 0.0
O149 O 0.01531 0.50003 0.9547 0.0
O150 O 0.04632 0.54451 0.9193 0.0
C151 C 0.02702 0.51309 0.92141 0.0
O152 O 0.98016 0.56456 0.04537 0.0
O153 O 0.95144 0.52944 0.09147 0.0
C154 C 0.0127 0.61872 0.00338 0.0
C155 C 0.95711 0.56188 0.07501 0.0
H156 H 0.25741 0.20788 0.35255 0.0
H157 H 0.14616 0.22028 0.29424 0.0
H158 H 0.22526 0.17269 0.40571 0.0
H159 H 0.11423 0.18517 0.34688 0.0
H160 H 0.05956 0.13165 0.45105 0.0
H161 H 0.09436 0.18199 0.4142 0.0
H162 H 0.19669 0.10849 0.41111 0.0
H163 H 0.16246 0.05935 0.44946 0.0
C164 C 0.22608 0.20343 0.35125 0.0
C165 C 0.20443 0.21674 0.31903 0.0
C166 C 0.20764 0.18329 0.3817 0.0
C167 C 0.16714 0.17589 0.38055 0.0
C168 C 0.14531 0.19085 0.34918 0.0
C169 C 0.1637 0.21099 0.31885 0.0
C170 C 0.08998 0.12708 0.44394 0.0
C171 C 0.10844 0.09182 0.45356 0.0
C172 C 0.10976 0.1556 0.42221 0.0
C173 C 0.14829 0.14922 0.40936 0.0
C174 C 0.16728 0.11472 0.42083 0.0
C175 C 0.14755 0.08636 0.44257 0.0
H176 H 0.38544 0.82429 0.78277 0.0
H177 H 0.27455 0.83491 0.84168 0.0
H178 H 0.41729 0.86007 0.83535 0.0
H179 H 0.30651 0.87065 0.89457 0.0
H180 H 0.36694 0.98378 0.93997 0.0
H181 H 0.33422 0.93544 0.89941 0.0
H182 H 0.43707 0.86272 0.90361 0.0
H183 H 0.47037 0.91224 0.94317 0.0
C184 C 0.36799 0.83345 0.80742 0.0
C185 C 0.32737 0.82698 0.80787 0.0
C186 C 0.38631 0.85394 0.83767 0.0
C187 C 0.36446 0.86847 0.86913 0.0
C188 C 0.32411 0.86042 0.87046 0.0
C189 C 0.30578 0.83998 0.84016 0.0
C190 C 0.38235 0.95717 0.93275 0.0
C191 C 0.42112 0.95164 0.945 0.0
C192 C 0.36348 0.92926 0.90974 0.0
C193 C 0.38298 0.89514 0.89816 0.0
C194 C 0.4213 0.88881 0.91179 0.0
C195 C 0.4402 0.91685 0.93497 0.0
H196 H 0.71476 0.38949 0.76276 0.0
H197 H 0.689 0.2852 0.69652 0.0
H198 H 0.6837 0.42899 0.71306 0.0
H199 H 0.65737 0.32529 0.64614 0.0
H200 H 0.56601 0.41711 0.59333 0.0
H201 H 0.59933 0.3695 0.63531 0.0
H202 H 0.69739 0.44868 0.64637 0.0
H203 H 0.66409 0.4959 0.6053 0.0
C204 C 0.70299 0.37499 0.73721 0.0
C205 C 0.70517 0.33422 0.73325 0.0
C206 C 0.68507 0.3977 0.70867 0.0
C207 C 0.66868 0.38039 0.67522 0.0
C208 C 0.6698 0.33948 0.67155 0.0
C209 C 0.68792 0.31658 0.70032 0.0
C210 C 0.59509 0.42374 0.60397 0.0
C211 C 0.61237 0.46027 0.59635 0.0
C212 C 0.61412 0.39659 0.62809 0.0
C213 C 0.65066 0.40569 0.64485 0.0
C214 C 0.66884 0.44117 0.63482 0.0
C215 C 0.64984 0.46817 0.61113 0.0
H216 H 0.78205 0.69897 0.18642 0.0
H217 H 0.88965 0.74396 0.23572 0.0
H218 H 0.81971 0.66141 0.13939 0.0
H219 H 0.92666 0.70924 0.18699 0.0
H220 H 0.97727 0.59314 0.14375 0.0
H221 H 0.94261 0.64286 0.18037 0.0
H222 H 0.86243 0.65792 0.08388 0.0
H223 H 0.89664 0.60629 0.04809 0.0
C224 C 0.8136 0.70147 0.1869 0.0
C225 C 0.83258 0.72431 0.2154 0.0
C226 C 0.83523 0.68035 0.15946 0.0
C227 C 0.87635 0.68185 0.15965 0.0
C228 C 0.89511 0.7067 0.18643 0.0
C229 C 0.87363 0.72726 0.21413 0.0
C230 C 0.95277 0.60782 0.13014 0.0
C231 C 0.94003 0.59675 0.09294 0.0
C232 C 0.93294 0.63648 0.15097 0.0
C233 C 0.89971 0.65471 0.13508 0.0
C234 C 0.88773 0.64437 0.09711 0.0
C235 C 0.90762 0.61537 0.07631 0.0
H236 H 0.28826 0.14863 0.23777 0.0
H237 H 0.3326 0.25489 0.18545 0.0
H238 H 0.33873 0.11161 0.20553 0.0
H239 H 0.38082 0.2171 0.15003 0.0
H240 H 0.47588 0.145 0.0988 0.0
H241 H 0.43783 0.17979 0.1481 0.0
H242 H 0.3501 0.0884 0.14347 0.0
H243 H 0.38952 0.05315 0.09645 0.0
C244 C 0.30896 0.16436 0.21976 0.0
C245 C 0.30598 0.20504 0.21434 0.0
C246 C 0.33766 0.14283 0.20057 0.0
C247 C 0.36374 0.16104 0.17455 0.0
C248 C 0.36164 0.20188 0.17005 0.0
C249 C 0.33336 0.22359 0.18989 0.0
C250 C 0.44923 0.13184 0.10977 0.0
C251 C 0.43595 0.09607 0.09483 0.0
C252 C 0.427 0.15202 0.13744 0.0
C253 C 0.39053 0.13724 0.14979 0.0
C254 C 0.37823 0.10058 0.13554 0.0
C255 C 0.40074 0.08026 0.10845 0.0
H256 H 0.2446 0.89003 0.71523 0.0
H257 H 0.1898 0.77844 0.69275 0.0
H258 H 0.19228 0.92279 0.68008 0.0
H259 H 0.1369 0.81124 0.65803 0.0
H260 H 0.09157 0.87817 0.54955 0.0
H261 H 0.13144 0.84318 0.59651 0.0
H262 H 0.12459 0.94118 0.6756 0.0
H263 H 0.08597 0.97695 0.62738 0.0
C264 C 0.22085 0.87255 0.70356 0.0
C265 C 0.22152 0.83158 0.70654 0.0
C266 C 0.1907 0.89137 0.68347 0.0
C267 C 0.16036 0.86971 0.66594 0.0
C268 C 0.16013 0.82883 0.67052 0.0
C269 C 0.19041 0.81 0.69043 0.0
C270 C 0.098 0.89201 0.57725 0.0
C271 C 0.08539 0.93024 0.58486 0.0
C272 C 0.12067 0.8718 0.6044 0.0
C273 C 0.13146 0.88932 0.63992 0.0
C274 C 0.11719 0.92693 0.64837 0.0
C275 C 0.09448 0.94723 0.62104 0.0
H276 H 0.84108 0.34558 0.78781 0.0
H277 H 0.7808 0.31215 0.89347 0.0
H278 H 0.88766 0.38403 0.82669 0.0
H279 H 0.82779 0.34871 0.93176 0.0
H280 H 0.87843 0.45678 0.98401 0.0
H281 H 0.83792 0.41899 0.93958 0.0
H282 H 0.94113 0.37976 0.879 0.0
H283 H 0.98195 0.41804 0.92427 0.0
C284 C 0.83803 0.34598 0.81923 0.0
C285 C 0.80709 0.32573 0.83742 0.0
C286 C 0.86487 0.36773 0.84146 0.0
C287 C 0.86104 0.36983 0.88221 0.0
C288 C 0.83114 0.34826 0.90035 0.0
C289 C 0.80448 0.32672 0.87833 0.0
C290 C 0.89252 0.44033 0.96103 0.0
C291 C 0.93335 0.44043 0.95739 0.0
C292 C 0.86933 0.41853 0.93567 0.0
C293 C 0.88634 0.39584 0.90618 0.0
C294 C 0.92719 0.3971 0.90138 0.0
C295 C 0.95055 0.4192 0.92696 0.0
H296 H 0.69611 0.76102 0.33815 0.0
H297 H 0.76025 0.65639 0.30993 0.0
H298 H 0.6496 0.72183 0.37602 0.0
H299 H 0.7134 0.61745 0.3466 0.0
H300 H 0.66391 0.57914 0.4665 0.0
H301 H 0.70244 0.61347 0.41764 0.0
H302 H 0.5977 0.66791 0.37328 0.0
H303 H 0.559 0.63332 0.42313 0.0
C304 C 0.7 0.72967 0.33962 0.0
C305 C 0.73197 0.71191 0.32108 0.0
C306 C 0.67312 0.7072 0.36091 0.0
C307 C 0.67789 0.66656 0.36435 0.0
C308 C 0.70907 0.64872 0.34469 0.0
C309 C 0.73576 0.67107 0.32339 0.0
C310 C 0.64904 0.59789 0.44582 0.0
C311 C 0.60851 0.60326 0.4481 0.0
C312 C 0.67105 0.61744 0.41773 0.0
C313 C 0.65313 0.64332 0.39147 0.0
C314 C 0.6123 0.64815 0.39317 0.0
C315 C 0.59008 0.62804 0.42121 0.0
H316 H 0.14341 0.28341 0.21721 0.0
H317 H 0.25254 0.33845 0.18503 0.0
H318 H 0.10767 0.33386 0.18282 0.0
H319 H 0.21626 0.38939 0.1499 0.0
H320 H 0.1244 0.44261 0.05697 0.0
H321 H 0.16985 0.39909 0.09155 0.0
H322 H 0.09635 0.40409 0.19367 0.0
H323 H 0.05128 0.44667 0.15928 0.0
C324 C 0.15982 0.30656 0.20311 0.0
C325 C 0.20084 0.3073 0.2046 0.0
C326 C 0.13929 0.33551 0.18331 0.0
C327 C 0.15912 0.36607 0.16427 0.0
C328 C 0.20021 0.36625 0.16441 0.0
C329 C 0.22092 0.33712 0.18448 0.0
C330 C 0.11868 0.43512 0.08712 0.0
C331 C 0.0842 0.44763 0.10538 0.0
C332 C 0.14457 0.41018 0.10687 0.0
C333 C 0.13614 0.39746 0.14502 0.0
C334 C 0.10313 0.41252 0.16397 0.0
C335 C 0.07742 0.43708 0.14434 0.0
H336 H 0.70888 0.25308 0.88978 0.0
H337 H 0.68483 0.19364 0.7812 0.0
H338 H 0.66805 0.20625 0.92438 0.0
H339 H 0.64328 0.14652 0.8163 0.0
H340 H 0.59792 0.05279 0.90899 0.0
H341 H 0.64674 0.09259 0.87386 0.0
H342 H 0.5933 0.19728 0.91883 0.0
H343 H 0.54528 0.15779 0.95363 0.0
C344 C 0.69548 0.22953 0.87337 0.0
C345 C 0.70023 0.22697 0.83271 0.0
C346 C 0.67188 0.20288 0.89321 0.0
C347 C 0.6525 0.17288 0.873 0.0
C348 C 0.65818 0.16927 0.83256 0.0
C349 C 0.68162 0.19634 0.8125 0.0
C350 C 0.59734 0.08423 0.9118 0.0
C351 C 0.56845 0.10228 0.93443 0.0
C352 C 0.62477 0.10696 0.89137 0.0
C353 C 0.62385 0.14796 0.89389 0.0
C354 C 0.59495 0.16575 0.91672 0.0
C355 C 0.56741 0.14318 0.93649 0.0
H356 H 0.77898 0.85061 0.34538 0.0
H357 H 0.88788 0.79922 0.30835 0.0
H358 H 0.81577 0.9017 0.38035 0.0
H359 H 0.92392 0.84974 0.34226 0.0
H360 H 0.98213 0.95951 0.37208 0.0
H361 H 0.9354 0.92036 0.33523 0.0
H362 H 0.86334 0.90856 0.43788 0.0
H363 H 0.91027 0.94849 0.47481 0.0
C364 C 0.81061 0.85025 0.34458 0.0
C365 C 0.83043 0.82131 0.32329 0.0
C366 C 0.83162 0.87946 0.36454 0.0
C367 C 0.87272 0.88024 0.36334 0.0
C368 C 0.89228 0.85078 0.34277 0.0
C369 C 0.87151 0.82176 0.32319 0.0
C370 C 0.95589 0.94927 0.38657 0.0
C371 C 0.94991 0.95681 0.4263 0.0
C372 C 0.9292 0.92673 0.36553 0.0
C373 C 0.8961 0.91067 0.38386 0.0
C374 C 0.88854 0.92057 0.42295 0.0
C375 C 0.91534 0.94346 0.44406 0.0
H376 H 0.32115 0.76129 0.641 0.0
H377 H 0.34125 0.6952 0.74642 0.0
H378 H 0.36106 0.71523 0.60452 0.0
H379 H 0.38191 0.64938 0.70988 0.0
H380 H 0.43389 0.56002 0.62353 0.0
H381 H 0.38266 0.59876 0.65534 0.0
H382 H 0.433 0.7039 0.60659 0.0
H383 H 0.4832 0.66517 0.57464 0.0
C384 C 0.33347 0.73651 0.65627 0.0
C385 C 0.32816 0.732 0.69667 0.0
C386 C 0.35661 0.71031 0.63541 0.0
C387 C 0.37486 0.67886 0.65438 0.0
C388 C 0.36806 0.67321 0.69441 0.0
C389 C 0.3451 0.69963 0.71538 0.0
C390 C 0.4331 0.59123 0.61889 0.0
C391 C 0.46188 0.60958 0.59618 0.0
C392 C 0.40425 0.61346 0.63746 0.0
C393 C 0.40364 0.65437 0.63322 0.0
C394 C 0.43224 0.67244 0.60994 0.0
C395 C 0.46115 0.65032 0.59188 0.0
H396 H 0.88336 0.90809 0.7887 0.0
H397 H 0.98846 0.92801 0.85554 0.0
H398 H 0.9181 0.92583 0.72885 0.0
H399 H 0.02319 0.94694 0.79559 0.0
H400 H 0.02052 0.04273 0.68875 0.0
H401 H 0.00688 0.00869 0.7499 0.0
H402 H 0.97974 0.90357 0.68574 0.0
H403 H 0.99447 0.93748 0.62441 0.0
C404 C 0.91402 0.91598 0.79036 0.0
C405 C 0.93333 0.91702 0.82642 0.0
C406 C 0.93397 0.9257 0.75623 0.0
C407 C 0.97337 0.93735 0.75771 0.0
C408 C 0.99291 0.93773 0.79377 0.0
C409 C 0.97312 0.9271 0.82789 0.0
C410 C 0.01323 0.0119 0.6879 0.0
C411 C 0.0083 0.99268 0.65207 0.0
C412 C 0.00549 0.99244 0.72282 0.0
C413 C 0.99187 0.95372 0.72234 0.0
C414 C 0.9901 0.9335 0.68671 0.0
C415 C 0.99871 0.95278 0.65175 0.0
H416 H 0.55673 0.08607 0.35738 0.0
H417 H 0.62591 0.16315 0.28575 0.0
H418 H 0.52167 0.06286 0.29943 0.0
H419 H 0.59237 0.13919 0.22752 0.0
H420 H 0.52439 0.09914 0.12621 0.0
H421 H 0.53515 0.13289 0.18816 0.0
H422 H 0.53901 0.02134 0.24726 0.0
H423 H 0.52615 0.98832 0.18595 0.0
C424 C 0.56397 0.09827 0.32913 0.0
C425 C 0.59385 0.12616 0.32563 0.0
C426 C 0.54415 0.08495 0.29595 0.0
C427 C 0.5543 0.09891 0.25863 0.0
C428 C 0.58322 0.12818 0.25568 0.0
C429 C 0.60273 0.14171 0.28891 0.0
C430 C 0.52554 0.08216 0.1528 0.0
C431 C 0.52406 0.04123 0.15136 0.0
C432 C 0.53252 0.10136 0.18822 0.0
C433 C 0.53857 0.07987 0.22276 0.0
C434 C 0.53418 0.03902 0.22152 0.0
C435 C 0.52703 0.01997 0.18625 0.0
H436 H 0.45886 0.67318 0.22081 0.0
H437 H 0.44405 0.5507 0.19392 0.0
H438 H 0.49416 0.65598 0.28016 0.0
H439 H 0.47688 0.53352 0.25414 0.0
H440 H 0.54583 0.50365 0.35558 0.0
H441 H 0.53487 0.5307 0.2906 0.0
H442 H 0.47792 0.63057 0.34233 0.0
H443 H 0.49085 0.60409 0.40706 0.0
C444 C 0.46347 0.64258 0.2273 0.0
C445 C 0.44827 0.6133 0.2027 0.0
C446 C 0.48339 0.63272 0.26158 0.0
C447 C 0.48839 0.59335 0.27219 0.0
C448 C 0.4743 0.56417 0.24683 0.0
C449 C 0.45473 0.57401 0.2125 0.0
C450 C 0.53251 0.53219 0.35285 0.0
C451 C 0.51942 0.55206 0.38603 0.0
C452 C 0.52568 0.54746 0.31571 0.0
C453 C 0.50454 0.58235 0.31106 0.0
C454 C 0.49445 0.60378 0.3446 0.0
C455 C 0.50191 0.58873 0.3818 0.0
H456 H 0.15414 0.41926 0.74383 0.0
H457 H 0.04494 0.4279 0.68129 0.0
H458 H 0.12078 0.43528 0.80455 0.0
H459 H 0.01135 0.44435 0.74236 0.0
H460 H 1.00082 0.53554 0.85021 0.0
H461 H 0.0174 0.50454 0.78817 0.0
H462 H 0.06844 0.40773 0.85055 0.0
H463 H 0.05177 0.43885 0.9125 0.0
C464 C 0.12295 0.42456 0.74319 0.0
C465 C 0.10213 0.42271 0.70795 0.0
C466 C 0.10376 0.43321 0.77795 0.0
C467 C 0.06341 0.44067 0.77817 0.0
C468 C 0.04244 0.43855 0.74296 0.0
C469 C 0.06159 0.4292 0.70816 0.0
C470 C 0.01395 0.50679 0.85049 0.0
C471 C 0.02453 0.4892 0.88593 0.0
C472 C 0.02352 0.4891 0.81507 0.0
C473 C 0.04457 0.45397 0.81465 0.0
C474 C 0.0524 0.43494 0.85013 0.0
C475 C 0.04244 0.45245 0.88552 0.0
H476 H 0.83476 0.94522 0.98025 0.0
H477 H 0.80329 0.95557 0.8586 0.0
H478 H 0.77494 0.97832 0.99841 0.0
H479 H 0.74437 0.99085 0.87668 0.0
H480 H 0.61931 0.98561 0.93339 0.0
H481 H 0.68331 0.97344 0.90501 0.0
H482 H 0.73775 0.03643 1.0001 0.0
H483 H 0.67346 0.04708 0.02896 0.0
C484 C 0.8153 0.95499 0.95732 0.0
C485 C 0.8237 0.94723 0.91801 0.0
C486 C 0.78121 0.97466 0.96769 0.0
C487 C 0.75466 0.98741 0.939 0.0
C488 C 0.7639 0.98115 0.89956 0.0
C489 C 0.79795 0.96123 0.88919 0.0
C490 C 0.64489 0.99837 0.94712 0.0
C491 C 0.64163 0.01762 0.98301 0.0
C492 C 0.6817 0.99127 0.93102 0.0
C493 C 0.71589 0.00325 0.95068 0.0
C494 C 0.71213 0.02595 0.98467 0.0
C495 C 0.67535 0.03263 0.00092 0.0
H496 H 0.74903 0.14936 0.39565 0.0
H497 H 0.67916 0.04891 0.42663 0.0
H498 H 0.8082 0.11473 0.41525 0.0
H499 H 0.73859 0.01421 0.44723 0.0
H500 H 0.84599 0.02009 0.54068 0.0
H501 H 0.78512 0.03219 0.50555 0.0
H502 H 0.85042 0.05314 0.39994 0.0
H503 H 0.91147 0.04044 0.43511 0.0
C504 C 0.74656 0.11963 0.40626 0.0
C505 C 0.70981 0.10176 0.40998 0.0
C506 C 0.78034 0.09968 0.41708 0.0
C507 C 0.77794 0.0617 0.43248 0.0
C508 C 0.74117 0.04339 0.43524 0.0
C509 C 0.70733 0.06315 0.42359 0.0
C510 C 0.84717 0.02581 0.50962 0.0
C511 C 0.8833 0.02958 0.49059 0.0
C512 C 0.81236 0.0326 0.48949 0.0
C513 C 0.81318 0.04401 0.45018 0.0
C514 C 0.84911 0.04456 0.43032 0.0
C515 C 0.88395 0.03708 0.45035 0.0
H516 H 0.29498 0.62735 0.15053 0.0
H517 H 0.36111 0.54588 0.08164 0.0
H518 H 0.2342 0.5952 0.13062 0.0
H519 H 0.30039 0.51291 0.06195 0.0
H520 H 0.18571 0.52474 0.98705 0.0
H521 H 0.24867 0.53402 0.01848 0.0
H522 H 0.19206 0.53682 0.131 0.0
H523 H 0.12848 0.52815 0.09903 0.0
C524 C 0.29632 0.60199 0.13169 0.0
C525 C 0.33226 0.58908 0.11723 0.0
C526 C 0.26167 0.5833 0.12059 0.0
C527 C 0.26242 0.55145 0.09467 0.0
C528 C 0.29881 0.53752 0.08171 0.0
C529 C 0.33348 0.55625 0.0929 0.0
C530 C 0.18682 0.52617 0.01861 0.0
C531 C 0.15227 0.52612 0.04061 0.0
C532 C 0.22298 0.53128 0.0367 0.0
C533 C 0.22537 0.53672 0.07723 0.0
C534 C 0.19105 0.53328 0.09963 0.0
C535 C 0.15473 0.52791 0.08143 0.0
H536 H 0.19136 0.50194 0.6178 0.0
H537 H 0.24931 0.39025 0.61827 0.0
H538 H 0.2534 0.5342 0.60062 0.0
H539 H 0.31112 0.42232 0.60199 0.0
H540 H 0.42187 0.48956 0.60112 0.0
H541 H 0.35959 0.4737 0.63257 0.0
H542 H 0.29757 0.52708 0.53682 0.0
H543 H 0.35993 0.54249 0.50525 0.0
C544 C 0.21748 0.48447 0.61463 0.0
C545 C 0.21573 0.44368 0.61901 0.0
C546 C 0.2528 0.50285 0.60489 0.0
C547 C 0.287 0.48075 0.60044 0.0
C548 C 0.28529 0.44009 0.60586 0.0
C549 C 0.24995 0.42171 0.61474 0.0
C550 C 0.39494 0.49949 0.58779 0.0
C551 C 0.39549 0.51772 0.55117 0.0
C552 C 0.35939 0.49008 0.60552 0.0
C553 C 0.3239 0.49893 0.58691 0.0
C554 C 0.32453 0.52023 0.5519 0.0
C555 C 0.36011 0.52913 0.53391 0.0
H556 H 0.92329 0.85813 0.99406 0.0
H557 H 0.89558 0.79273 0.8901 0.0
H558 H 0.94421 0.79752 0.02649 0.0
H559 H 0.9156 0.73243 0.92235 0.0
H560 H 0.93493 0.62599 0.99124 0.0
H561 H 0.8995 0.68694 0.98 0.0
H562 H 0.00334 0.75273 0.0095 0.0
H563 H 0.03854 0.69174 0.02088 0.0
C564 C 0.92101 0.83065 0.97856 0.0
C565 C 0.90818 0.82981 0.93966 0.0
C566 C 0.93292 0.79614 0.99699 0.0
C567 C 0.93125 0.76031 0.977 0.0
C568 C 0.91663 0.75949 0.93868 0.0
C569 C 0.90551 0.79395 0.92011 0.0
C570 C 0.9495 0.65352 0.99713 0.0
C571 C 0.9892 0.65435 0.00732 0.0
C572 C 0.92943 0.68833 0.99027 0.0
C573 C 0.9488 0.72449 0.99363 0.0
C574 C 0.98761 0.72531 0.00704 0.0
C575 C 0.00777 0.69048 0.01344 0.0
H576 H 0.48527 0.69076 0.09078 0.0
H577 H 0.36312 0.71914 0.07673 0.0
H578 H 0.50329 0.75111 0.0589 0.0
H579 H 0.38114 0.77835 0.04162 0.0
H580 H 0.43255 0.90531 0.04382 0.0
H581 H 0.4056 0.84036 0.05567 0.0
H582 H 0.50844 0.78899 0.0037 0.0
H583 H 0.53622 0.85403 0.99487 0.0
C584 C 0.46217 0.70967 0.08045 0.0
C585 C 0.42274 0.70027 0.08711 0.0
C586 C 0.47251 0.74413 0.06129 0.0
C587 C 0.44372 0.77001 0.04748 0.0
C588 C 0.40419 0.75959 0.0523 0.0
C589 C 0.39383 0.72527 0.07206 0.0
C590 C 0.4487 0.88003 0.03394 0.0
C591 C 0.48656 0.88437 0.01901 0.0
C592 C 0.43331 0.84267 0.04066 0.0
C593 C 0.45534 0.8091 0.03182 0.0
C594 C 0.49127 0.81398 0.0124 0.0
C595 C 0.50702 0.85122 0.00675 0.0
H596 H 0.05558 0.35094 0.59583 0.0
H597 H 0.1755 0.31673 0.57706 0.0
H598 H 0.03334 0.2912 0.56553 0.0
H599 H 0.15317 0.25822 0.54335 0.0
H600 H 0.09734 0.13367 0.54928 0.0
H601 H 0.12707 0.19769 0.55938 0.0
H602 H 0.0235 0.25238 0.51197 0.0
H603 H 0.99306 0.18829 0.50504 0.0
C604 C 0.07728 0.33092 0.5847 0.0
C605 C 0.11736 0.33845 0.58972 0.0
C606 C 0.06448 0.29677 0.56646 0.0
C607 C 0.09138 0.26941 0.55188 0.0
C608 C 0.13152 0.27811 0.55477 0.0
C609 C 0.14436 0.31207 0.57368 0.0
C610 C 0.08151 0.15948 0.54019 0.0
C611 C 0.04285 0.15639 0.52699 0.0
C612 C 0.09852 0.1963 0.54581 0.0
C613 C 0.07732 0.23059 0.53759 0.0
C614 C 0.04019 0.22686 0.52016 0.0
C615 C 0.02286 0.19017 0.51564 0.0
H616 H 0.63379 0.25634 0.38363 0.0
H617 H 0.6178 0.18941 0.48907 0.0
H618 H 0.61759 0.31629 0.41898 0.0
H619 H 0.6004 0.24939 0.52435 0.0
H620 H 0.50518 0.35702 0.52471 0.0
H621 H 0.53783 0.29559 0.50943 0.0
H622 H 0.64323 0.35908 0.48101 0.0
H623 H 0.61082 0.42067 0.49762 0.0
C624 C 0.62707 0.25465 0.41446 0.0
C625 C 0.62677 0.2185 0.43371 0.0
C626 C 0.61823 0.28885 0.43474 0.0
C627 C 0.60816 0.28737 0.47443 0.0
C628 C 0.60842 0.25124 0.49385 0.0
C629 C 0.6182 0.21709 0.47373 0.0
C630 C 0.53584 0.35764 0.51686 0.0
C631 C 0.55551 0.39341 0.51213 0.0
C632 C 0.55449 0.32255 0.50811 0.0
C633 C 0.59281 0.3228 0.49361 0.0
C634 C 0.61358 0.35829 0.49202 0.0
C635 C 0.59518 0.39339 0.50176 0.0
loop_
_geom_bond_atom_site_label_1
_geom_bond_atom_site_label_2
_geom_bond_distance
_geom_bond_site_symmetry_2
_ccdc_geom_bond_type
H0 C3 0.931 . S
H1 C6 0.928 . S
H2 C8 0.930 . S
C3 H0 0.931 . S
C3 C4 1.413 . S
C3 C5 1.360 . S
C4 C3 1.413 . S
C4 C8 1.429 . S
C5 C3 1.360 . S
C5 C6 1.372 . S
C6 H1 0.928 . S
C6 C5 1.372 . S
C6 C7 1.404 . S
C7 C6 1.404 . S
C7 C8 1.391 . S
C8 H2 0.930 . S
C8 C4 1.429 . S
C8 C7 1.391 . S
H9 C12 0.931 . S
H10 C15 0.928 . S
H11 C17 0.930 . S
C12 H9 0.931 . S
C12 C13 1.413 . S
C12 C14 1.360 . S
C13 C12 1.413 . S
C13 C17 1.429 . S
C14 C12 1.360 . S
C14 C15 1.372 . S
C15 H10 0.928 . S
C15 C14 1.372 . S
C15 C16 1.404 . S
C16 C15 1.404 . S
C16 C17 1.391 . S
C17 H11 0.930 . S
C17 C13 1.429 . S
C17 C16 1.391 . S
H18 C21 0.931 . S
H19 C24 0.928 . S
H20 C26 0.930 . S
C21 H18 0.931 . S
C21 C22 1.413 . S
C21 C23 1.360 . S
C22 C21 1.413 . S
C22 C26 1.429 . S
C23 C21 1.360 . S
C23 C24 1.372 . S
C24 H19 0.928 . S
C24 C23 1.372 . S
C24 C25 1.404 . S
C25 C24 1.404 . S
C25 C26 1.391 . S
C26 H20 0.930 . S
C26 C22 1.429 . S
C26 C25 1.391 . S
H27 C30 0.931 . S
H28 C33 0.928 . S
H29 C35 0.930 . S
C30 H27 0.931 . S
C30 C31 1.413 . S
C30 C32 1.360 . S
C31 C30 1.413 . S
C31 C35 1.429 . S
C32 C30 1.360 . S
C32 C33 1.372 . S
C33 H28 0.928 . S
C33 C32 1.372 . S
C33 C34 1.404 . S
C34 C33 1.404 . S
C34 C35 1.391 . S
C35 H29 0.930 . S
C35 C31 1.429 . S
C35 C34 1.391 . S
H36 C39 0.931 . S
H37 C42 0.928 . S
H38 C44 0.930 . S
C39 H36 0.931 . S
C39 C40 1.413 . S
C39 C41 1.360 . S
C40 C39 1.413 . S
C40 C44 1.429 . S
C41 C39 1.360 . S
C41 C42 1.372 . S
C42 H37 0.928 . S
C42 C41 1.372 . S
C42 C43 1.404 . S
C43 C42 1.404 . S
C43 C44 1.391 . S
C44 H38 0.930 . S
C44 C40 1.429 . S
C44 C43 1.391 . S
H45 C48 0.931 . S
H46 C51 0.928 . S
H47 C53 0.930 . S
C48 H45 0.931 . S
C48 C49 1.413 . S
C48 C50 1.360 . S
C49 C48 1.413 . S
C49 C53 1.429 . S
C50 C48 1.360 . S
C50 C51 1.372 . S
C51 H46 0.928 . S
C51 C50 1.372 . S
C51 C52 1.404 . S
C52 C51 1.404 . S
C52 C53 1.391 . S
C53 H47 0.930 . S
C53 C49 1.429 . S
C53 C52 1.391 . S
H54 C57 0.931 . S
H55 C60 0.928 . S
H56 C62 0.930 . S
C57 H54 0.931 . S
C57 C58 1.413 . S
C57 C59 1.360 . S
C58 C57 1.413 . S
C58 C62 1.429 . S
C59 C57 1.360 . S
C59 C60 1.372 . S
C60 H55 0.928 . S
C60 C59 1.372 . S
C60 C61 1.404 . S
C61 C60 1.404 . S
C61 C62 1.391 . S
C62 H56 0.930 . S
C62 C58 1.429 . S
C62 C61 1.391 . S
H63 C66 0.931 . S
H64 C69 0.928 . S
H65 C71 0.930 . S
C66 H63 0.931 . S
C66 C67 1.413 . S
C66 C68 1.360 . S
C67 C66 1.413 . S
C67 C71 1.429 . S
C68 C66 1.360 . S
C68 C69 1.372 . S
C69 H64 0.928 . S
C69 C68 1.372 . S
C69 C70 1.404 . S
C70 C69 1.404 . S
C70 C71 1.391 . S
C71 H65 0.930 . S
C71 C67 1.429 . S
C71 C70 1.391 . S
Zn72 O78 1.920 . S
Zn72 O84 1.898 . S
Zn72 O87 1.905 . S
Zn73 O81 1.905 1_565 S
Zn73 O82 1.898 . S
Zn73 O90 1.920 . S
Zn74 O77 2.080 1_455 S
Zn74 O80 2.114 . S
Zn74 O83 2.120 1_445 S
Zn74 O85 2.120 . S
Zn74 O86 2.114 1_455 S
Zn74 O89 2.080 . S
C75 O80 1.166 . S
C75 O81 1.182 . S
C76 O82 1.167 1_655 S
C76 O83 1.299 . S
O77 Zn74 2.080 1_655 S
O77 C91 1.305 . S
O78 Zn72 1.920 . S
O78 C91 1.234 . S
C79 O84 1.167 1_455 S
C79 O85 1.299 . S
O80 Zn74 2.114 . S
O80 C75 1.166 . S
O81 Zn73 1.905 1_545 S
O81 C75 1.182 . S
O82 Zn73 1.898 . S
O82 C76 1.167 1_455 S
O83 Zn74 2.120 1_665 S
O83 C76 1.299 . S
O84 Zn72 1.898 . S
O84 C79 1.167 1_655 S
O85 Zn74 2.120 . S
O85 C79 1.299 . S
O86 Zn74 2.114 1_655 S
O86 C88 1.166 . S
O87 Zn72 1.905 . S
O87 C88 1.182 . S
C88 O86 1.166 . S
C88 O87 1.182 . S
O89 Zn74 2.080 . S
O89 C92 1.305 1_545 S
O90 Zn73 1.920 . S
O90 C92 1.234 . S
C91 O77 1.305 . S
C91 O78 1.234 . S
C92 O89 1.305 1_565 S
C92 O90 1.234 . S
Zn93 O99 1.920 1_556 S
Zn93 O105 1.898 . S
Zn93 O108 1.905 . S
Zn94 O102 1.905 . S
Zn94 O103 1.898 . S
Zn94 O111 1.920 . S
Zn95 O98 2.080 . S
Zn95 O101 2.114 1_545 S
Zn95 O104 2.120 1_545 S
Zn95 O106 2.120 . S
Zn95 O107 2.114 1_544 S
Zn95 O110 2.080 . S
C96 O101 1.166 . S
C96 O102 1.182 . S
C97 O103 1.167 . S
C97 O104 1.299 . S
O98 Zn95 2.080 . S
O98 C112 1.305 . S
O99 Zn93 1.920 1_554 S
O99 C112 1.234 . S
C100 O105 1.167 . S
C100 O106 1.299 1_556 S
O101 Zn95 2.114 1_565 S
O101 C96 1.166 . S
O102 Zn94 1.905 . S
O102 C96 1.182 . S
O103 Zn94 1.898 . S
O103 C97 1.167 . S
O104 Zn95 2.120 1_565 S
O104 C97 1.299 . S
O105 Zn93 1.898 . S
O105 C100 1.167 . S
O106 Zn95 2.120 . S
O106 C100 1.299 1_554 S
O107 Zn95 2.114 1_566 S
O107 C109 1.166 . S
O108 Zn93 1.905 . S
O108 C109 1.182 1_545 S
C109 O107 1.166 . S
C109 O108 1.182 1_565 S
O110 Zn95 2.080 . S
O110 C113 1.305 . S
O111 Zn94 1.920 . S
O111 C113 1.234 1_565 S
C112 O98 1.305 . S
C112 O99 1.234 . S
C113 O110 1.305 . S
C113 O111 1.234 1_545 S
Zn114 O120 1.920 . S
Zn114 O126 1.898 . S
Zn114 O129 1.905 . S
Zn115 O123 1.905 . S
Zn115 O124 1.898 . S
Zn115 O132 1.920 . S
Zn116 O119 2.080 . S
Zn116 O122 2.114 . S
Zn116 O125 2.120 . S
Zn116 O127 2.120 . S
Zn116 O128 2.114 . S
Zn116 O131 2.080 . S
C117 O122 1.166 . S
C117 O123 1.182 . S
C118 O124 1.167 . S
C118 O125 1.299 . S
O119 Zn116 2.080 . S
O119 C133 1.305 . S
O120 Zn114 1.920 . S
O120 C133 1.234 . S
C121 O126 1.167 . S
C121 O127 1.299 . S
O122 Zn116 2.114 . S
O122 C117 1.166 . S
O123 Zn115 1.905 . S
O123 C117 1.182 . S
O124 Zn115 1.898 . S
O124 C118 1.167 . S
O125 Zn116 2.120 . S
O125 C118 1.299 . S
O126 Zn114 1.898 . S
O126 C121 1.167 . S
O127 Zn116 2.120 . S
O127 C121 1.299 . S
O128 Zn116 2.114 . S
O128 C130 1.166 . S
O129 Zn114 1.905 . S
O129 C130 1.182 . S
C130 O128 1.166 . S
C130 O129 1.182 . S
O131 Zn116 2.080 . S
O131 C134 1.305 . S
O132 Zn115 1.920 . S
O132 C134 1.234 . S
C133 O119 1.305 . S
C133 O120 1.234 . S
C134 O131 1.305 . S
C134 O132 1.234 . S
Zn135 O141 1.920 . S
Zn135 O147 1.898 . S
Zn135 O150 1.905 . S
Zn136 O144 1.905 1_655 S
Zn136 O145 1.898 . S
Zn136 O153 1.920 . S
Zn137 O140 2.080 1_554 S
Zn137 O143 2.114 . S
Zn137 O146 2.120 1_454 S
Zn137 O148 2.120 . S
Zn137 O149 2.114 1_554 S
Zn137 O152 2.080 . S
C138 O143 1.166 . S
C138 O144 1.182 . S
C139 O145 1.167 1_556 S
C139 O146 1.299 . S
O140 Zn137 2.080 1_556 S
O140 C154 1.305 . S
O141 Zn135 1.920 . S
O141 C154 1.234 . S
C142 O147 1.167 1_554 S
C142 O148 1.299 . S
O143 Zn137 2.114 . S
O143 C138 1.166 . S
O144 Zn136 1.905 1_455 S
O144 C138 1.182 . S
O145 Zn136 1.898 . S
O145 C139 1.167 1_554 S
O146 Zn137 2.120 1_656 S
O146 C139 1.299 . S
O147 Zn135 1.898 . S
O147 C142 1.167 1_556 S
O148 Zn137 2.120 . S
O148 C142 1.299 . S
O149 Zn137 2.114 1_556 S
O149 C151 1.166 . S
O150 Zn135 1.905 . S
O150 C151 1.182 . S
C151 O149 1.166 . S
C151 O150 1.182 . S
O152 Zn137 2.080 . S
O152 C155 1.305 1_455 S
O153 Zn136 1.920 . S
O153 C155 1.234 . S
C154 O140 1.305 . S
C154 O141 1.234 . S
C155 O152 1.305 1_655 S
C155 O153 1.234 . S
H156 C164 0.950 . S
H157 C169 0.950 . S
H158 C166 0.950 . S
H159 C168 0.950 . S
H160 C170 0.950 . S
H161 C172 0.950 . S
H162 C174 0.950 . S
H163 C175 0.950 . S
C164 H156 0.950 . S
C164 C165 1.386 . S
C164 C166 1.391 . S
C165 C164 1.386 . S
C165 C169 1.393 . S
C166 H158 0.950 . S
C166 C164 1.391 . S
C166 C167 1.400 . S
C167 C166 1.400 . S
C167 C168 1.398 . S
C167 C173 1.491 . S
C168 H159 0.950 . S
C168 C167 1.398 . S
C168 C169 1.391 . S
C169 H157 0.950 . S
C169 C165 1.393 . S
C169 C168 1.391 . S
C170 H160 0.950 . S
C170 C171 1.386 . S
C170 C172 1.391 . S
C171 C170 1.386 . S
C171 C175 1.393 . S
C172 H161 0.950 . S
C172 C170 1.391 . S
C172 C173 1.400 . S
C173 C167 1.491 . S
C173 C172 1.400 . S
C173 C174 1.398 . S
C174 H162 0.950 . S
C174 C173 1.398 . S
C174 C175 1.391 . S
C175 H163 0.950 . S
C175 C171 1.393 . S
C175 C174 1.391 . S
H176 C184 0.950 . S
H177 C189 0.950 . S
H178 C186 0.950 . S
H179 C188 0.950 . S
H180 C190 0.950 . S
H181 C192 0.950 . S
H182 C194 0.950 . S
H183 C195 0.950 . S
C184 H176 0.950 . S
C184 C185 1.386 . S
C184 C186 1.391 . S
C185 C184 1.386 . S
C185 C189 1.393 . S
C186 H178 0.950 . S
C186 C184 1.391 . S
C186 C187 1.400 . S
C187 C186 1.400 . S
C187 C188 1.398 . S
C187 C193 1.491 . S
C188 H179 0.950 . S
C188 C187 1.398 . S
C188 C189 1.391 . S
C189 H177 0.950 . S
C189 C185 1.393 . S
C189 C188 1.391 . S
C190 H180 0.950 . S
C190 C191 1.386 . S
C190 C192 1.391 . S
C191 C190 1.386 . S
C191 C195 1.393 . S
C192 H181 0.950 . S
C192 C190 1.391 . S
C192 C193 1.400 . S
C193 C187 1.491 . S
C193 C192 1.400 . S
C193 C194 1.398 . S
C194 H182 0.950 . S
C194 C193 1.398 . S
C194 C195 1.391 . S
C195 H183 0.950 . S
C195 C191 1.393 . S
C195 C194 1.391 . S
H196 C204 0.950 . S
H197 C209 0.950 . S
H198 C206 0.950 . S
H199 C208 0.950 . S
H200 C210 0.950 . S
H201 C212 0.950 . S
H202 C214 0.950 . S
H203 C215 0.950 . S
C204 H196 0.950 . S
C204 C205 1.386 . S
C204 C206 1.391 . S
C205 C204 1.386 . S
C205 C209 1.393 . S
C206 H198 0.950 . S
C206 C204 1.391 . S
C206 C207 1.400 . S
C207 C206 1.400 . S
C207 C208 1.398 . S
C207 C213 1.491 . S
C208 H199 0.950 . S
C208 C207 1.398 . S
C208 C209 1.391 . S
C209 H197 0.950 . S
C209 C205 1.393 . S
C209 C208 1.391 . S
C210 H200 0.950 . S
C210 C211 1.386 . S
C210 C212 1.391 . S
C211 C210 1.386 . S
C211 C215 1.393 . S
C212 H201 0.950 . S
C212 C210 1.391 . S
C212 C213 1.400 . S
C213 C207 1.491 . S
C213 C212 1.400 . S
C213 C214 1.398 . S
C214 H202 0.950 . S
C214 C213 1.398 . S
C214 C215 1.391 . S
C215 H203 0.950 . S
C215 C211 1.393 . S
C215 C214 1.391 . S
H216 C224 0.950 . S
H217 C229 0.950 . S
H218 C226 0.950 . S
H219 C228 0.950 . S
H220 C230 0.950 1_455 S
H221 C232 0.950 . S
H222 C234 0.950 . S
H223 C235 0.950 . S
C224 H216 0.950 . S
C224 C225 1.386 . S
C224 C226 1.391 . S
C225 C224 1.386 . S
C225 C229 1.393 . S
C226 H218 0.950 . S
C226 C224 1.391 . S
C226 C227 1.400 . S
C227 C226 1.400 . S
C227 C228 1.398 . S
C227 C233 1.491 . S
C228 H219 0.950 . S
C228 C227 1.398 . S
C228 C229 1.391 . S
C229 H217 0.950 . S
C229 C225 1.393 . S
C229 C228 1.391 . S
C230 H220 0.950 1_655 S
C230 C231 1.386 . S
C230 C232 1.391 . S
C231 C230 1.386 . S
C231 C235 1.393 . S
C232 H221 0.950 . S
C232 C230 1.391 . S
C232 C233 1.400 . S
C233 C227 1.491 . S
C233 C232 1.400 . S
C233 C234 1.398 . S
C234 H222 0.950 . S
C234 C233 1.398 . S
C234 C235 1.391 . S
C235 H223 0.950 . S
C235 C231 1.393 . S
C235 C234 1.391 . S
H236 C244 0.950 . S
H237 C249 0.950 . S
H238 C246 0.950 . S
H239 C248 0.950 . S
H240 C250 0.950 . S
H241 C252 0.950 . S
H242 C254 0.950 . S
H243 C255 0.950 . S
C244 H236 0.950 . S
C244 C245 1.386 . S
C244 C246 1.391 . S
C245 C244 1.386 . S
C245 C249 1.393 . S
C246 H238 0.950 . S
C246 C244 1.391 . S
C246 C247 1.400 . S
C247 C246 1.400 . S
C247 C248 1.398 . S
C247 C253 1.491 . S
C248 H239 0.950 . S
C248 C247 1.398 . S
C248 C249 1.391 . S
C249 H237 0.950 . S
C249 C245 1.393 . S
C249 C248 1.391 . S
C250 H240 0.950 . S
C250 C251 1.386 . S
C250 C252 1.391 . S
C251 C250 1.386 . S
C251 C255 1.393 . S
C252 H241 0.950 . S
C252 C250 1.391 . S
C252 C253 1.400 . S
C253 C247 1.491 . S
C253 C252 1.400 . S
C253 C254 1.398 . S
C254 H242 0.950 . S
C254 C253 1.398 . S
C254 C255 1.391 . S
C255 H243 0.950 . S
C255 C251 1.393 . S
C255 C254 1.391 . S
H256 C264 0.950 . S
H257 C269 0.950 . S
H258 C266 0.950 . S
H259 C268 0.950 . S
H260 C270 0.950 . S
H261 C272 0.950 . S
H262 C274 0.950 . S
H263 C275 0.950 1_545 S
C264 H256 0.950 . S
C264 C265 1.386 . S
C264 C266 1.391 . S
C265 C264 1.386 . S
C265 C269 1.393 . S
C266 H258 0.950 . S
C266 C264 1.391 . S
C266 C267 1.400 . S
C267 C266 1.400 . S
C267 C268 1.398 . S
C267 C273 1.491 . S
C268 H259 0.950 . S
C268 C267 1.398 . S
C268 C269 1.391 . S
C269 H257 0.950 . S
C269 C265 1.393 . S
C269 C268 1.391 . S
C270 H260 0.950 . S
C270 C271 1.386 . S
C270 C272 1.391 . S
C271 C270 1.386 . S
C271 C275 1.393 . S
C272 H261 0.950 . S
C272 C270 1.391 . S
C272 C273 1.400 . S
C273 C267 1.491 . S
C273 C272 1.400 . S
C273 C274 1.398 . S
C274 H262 0.950 . S
C274 C273 1.398 . S
C274 C275 1.391 . S
C275 H263 0.950 1_565 S
C275 C271 1.393 . S
C275 C274 1.391 . S
H276 C284 0.950 . S
H277 C289 0.950 . S
H278 C286 0.950 . S
H279 C288 0.950 . S
H280 C290 0.950 . S
H281 C292 0.950 . S
H282 C294 0.950 . S
H283 C295 0.950 . S
C284 H276 0.950 . S
C284 C285 1.386 . S
C284 C286 1.391 . S
C285 C284 1.386 . S
C285 C289 1.393 . S
C286 H278 0.950 . S
C286 C284 1.391 . S
C286 C287 1.400 . S
C287 C286 1.400 . S
C287 C288 1.398 . S
C287 C293 1.491 . S
C288 H279 0.950 . S
C288 C287 1.398 . S
C288 C289 1.391 . S
C289 H277 0.950 . S
C289 C285 1.393 . S
C289 C288 1.391 . S
C290 H280 0.950 . S
C290 C291 1.386 . S
C290 C292 1.391 . S
C291 C290 1.386 . S
C291 C295 1.393 . S
C292 H281 0.950 . S
C292 C290 1.391 . S
C292 C293 1.400 . S
C293 C287 1.491 . S
C293 C292 1.400 . S
C293 C294 1.398 . S
C294 H282 0.950 . S
C294 C293 1.398 . S
C294 C295 1.391 . S
C295 H283 0.950 . S
C295 C291 1.393 . S
C295 C294 1.391 . S
H296 C304 0.950 . S
H297 C309 0.950 . S
H298 C306 0.950 . S
H299 C308 0.950 . S
H300 C310 0.950 . S
H301 C312 0.950 . S
H302 C314 0.950 . S
H303 C315 0.950 . S
C304 H296 0.950 . S
C304 C305 1.386 . S
C304 C306 1.391 . S
C305 C304 1.386 . S
C305 C309 1.393 . S
C306 H298 0.950 . S
C306 C304 1.391 . S
C306 C307 1.400 . S
C307 C306 1.400 . S
C307 C308 1.398 . S
C307 C313 1.491 . S
C308 H299 0.950 . S
C308 C307 1.398 . S
C308 C309 1.391 . S
C309 H297 0.950 . S
C309 C305 1.393 . S
C309 C308 1.391 . S
C310 H300 0.950 . S
C310 C311 1.386 . S
C310 C312 1.391 . S
C311 C310 1.386 . S
C311 C315 1.393 . S
C312 H301 0.950 . S
C312 C310 1.391 . S
C312 C313 1.400 . S
C313 C307 1.491 . S
C313 C312 1.400 . S
C313 C314 1.398 . S
C314 H302 0.950 . S
C314 C313 1.398 . S
C314 C315 1.391 . S
C315 H303 0.950 . S
C315 C311 1.393 . S
C315 C314 1.391 . S
H316 C324 0.950 . S
H317 C329 0.950 . S
H318 C326 0.950 . S
H319 C328 0.950 . S
H320 C330 0.950 . S
H321 C332 0.950 . S
H322 C334 0.950 . S
H323 C335 0.950 . S
C324 H316 0.950 . S
C324 C325 1.386 . S
C324 C326 1.391 . S
C325 C324 1.386 . S
C325 C329 1.393 . S
C326 H318 0.950 . S
C326 C324 1.391 . S
C326 C327 1.400 . S
C327 C326 1.400 . S
C327 C328 1.398 . S
C327 C333 1.491 . S
C328 H319 0.950 . S
C328 C327 1.398 . S
C328 C329 1.391 . S
C329 H317 0.950 . S
C329 C325 1.393 . S
C329 C328 1.391 . S
C330 H320 0.950 . S
C330 C331 1.386 . S
C330 C332 1.391 . S
C331 C330 1.386 . S
C331 C335 1.393 . S
C332 H321 0.950 . S
C332 C330 1.391 . S
C332 C333 1.400 . S
C333 C327 1.491 . S
C333 C332 1.400 . S
C333 C334 1.398 . S
C334 H322 0.950 . S
C334 C333 1.398 . S
C334 C335 1.391 . S
C335 H323 0.950 . S
C335 C331 1.393 . S
C335 C334 1.391 . S
H336 C344 0.950 . S
H337 C349 0.950 . S
H338 C346 0.950 . S
H339 C348 0.950 . S
H340 C350 0.950 . S
H341 C352 0.950 . S
H342 C354 0.950 . S
H343 C355 0.950 1_554 S
C344 H336 0.950 . S
C344 C345 1.386 . S
C344 C346 1.391 . S
C345 C344 1.386 . S
C345 C349 1.393 . S
C346 H338 0.950 . S
C346 C344 1.391 . S
C346 C347 1.400 . S
C347 C346 1.400 . S
C347 C348 1.398 . S
C347 C353 1.491 . S
C348 H339 0.950 . S
C348 C347 1.398 . S
C348 C349 1.391 . S
C349 H337 0.950 . S
C349 C345 1.393 . S
C349 C348 1.391 . S
C350 H340 0.950 . S
C350 C351 1.386 . S
C350 C352 1.391 . S
C351 C350 1.386 . S
C351 C355 1.393 . S
C352 H341 0.950 . S
C352 C350 1.391 . S
C352 C353 1.400 . S
C353 C347 1.491 . S
C353 C352 1.400 . S
C353 C354 1.398 . S
C354 H342 0.950 . S
C354 C353 1.398 . S
C354 C355 1.391 . S
C355 H343 0.950 1_556 S
C355 C351 1.393 . S
C355 C354 1.391 . S
H356 C364 0.950 . S
H357 C369 0.950 . S
H358 C366 0.950 . S
H359 C368 0.950 . S
H360 C370 0.950 . S
H361 C372 0.950 . S
H362 C374 0.950 . S
H363 C375 0.950 . S
C364 H356 0.950 . S
C364 C365 1.386 . S
C364 C366 1.391 . S
C365 C364 1.386 . S
C365 C369 1.393 . S
C366 H358 0.950 . S
C366 C364 1.391 . S
C366 C367 1.400 . S
C367 C366 1.400 . S
C367 C368 1.398 . S
C367 C373 1.491 . S
C368 H359 0.950 . S
C368 C367 1.398 . S
C368 C369 1.391 . S
C369 H357 0.950 . S
C369 C365 1.393 . S
C369 C368 1.391 . S
C370 H360 0.950 . S
C370 C371 1.386 . S
C370 C372 1.391 . S
C371 C370 1.386 . S
C371 C375 1.393 . S
C372 H361 0.950 . S
C372 C370 1.391 . S
C372 C373 1.400 . S
C373 C367 1.491 . S
C373 C372 1.400 . S
C373 C374 1.398 . S
C374 H362 0.950 . S
C374 C373 1.398 . S
C374 C375 1.391 . S
C375 H363 0.950 . S
C375 C371 1.393 . S
C375 C374 1.391 . S
H376 C384 0.950 . S
H377 C389 0.950 . S
H378 C386 0.950 . S
H379 C388 0.950 . S
H380 C390 0.950 . S
H381 C392 0.950 . S
H382 C394 0.950 . S
H383 C395 0.950 . S
C384 H376 0.950 . S
C384 C385 1.386 . S
C384 C386 1.391 . S
C385 C384 1.386 . S
C385 C389 1.393 . S
C386 H378 0.950 . S
C386 C384 1.391 . S
C386 C387 1.400 . S
C387 C386 1.400 . S
C387 C388 1.398 . S
C387 C393 1.491 . S
C388 H379 0.950 . S
C388 C387 1.398 . S
C388 C389 1.391 . S
C389 H377 0.950 . S
C389 C385 1.393 . S
C389 C388 1.391 . S
C390 H380 0.950 . S
C390 C391 1.386 . S
C390 C392 1.391 . S
C391 C390 1.386 . S
C391 C395 1.393 . S
C392 H381 0.950 . S
C392 C390 1.391 . S
C392 C393 1.400 . S
C393 C387 1.491 . S
C393 C392 1.400 . S
C393 C394 1.398 . S
C394 H382 0.950 . S
C394 C393 1.398 . S
C394 C395 1.391 . S
C395 H383 0.950 . S
C395 C391 1.393 . S
C395 C394 1.391 . S
H396 C404 0.950 . S
H397 C409 0.968 1_545 S
H398 C406 0.950 . S
H399 C408 0.962 1_455 S
H400 C410 0.950 . S
H401 C412 0.950 . S
H402 C414 0.950 . S
H403 C415 0.950 . S
C404 H396 0.950 . S
C404 C405 1.386 . S
C404 C406 1.391 . S
C405 C404 1.386 . S
C405 C409 1.393 . S
C406 H398 0.950 . S
C406 C404 1.391 . S
C406 C407 1.400 . S
C407 C406 1.400 . S
C407 C408 1.390 1_565 S
C407 C413 1.491 . S
C408 H399 0.962 1_655 S
C408 C407 1.390 1_545 S
C408 C409 1.387 1_545 S
C409 H397 0.968 1_565 S
C409 C405 1.393 . S
C409 C408 1.387 1_565 S
C410 H400 0.950 . S
C410 C411 1.386 1_455 S
C410 C412 1.391 . S
C411 C410 1.386 1_655 S
C411 C415 1.393 1_545 S
C412 H401 0.950 . S
C412 C410 1.391 . S
C412 C413 1.400 1_445 S
C413 C407 1.491 . S
C413 C412 1.400 1_665 S
C413 C414 1.398 . S
C414 H402 0.950 . S
C414 C413 1.398 . S
C414 C415 1.391 . S
C415 H403 0.950 . S
C415 C411 1.393 1_565 S
C415 C414 1.391 . S
H416 C424 0.950 . S
H417 C429 0.950 . S
H418 C426 0.950 . S
H419 C428 0.950 . S
H420 C430 0.950 . S
H421 C432 0.950 . S
H422 C434 0.950 . S
H423 C435 0.950 . S
C424 H416 0.950 . S
C424 C425 1.386 . S
C424 C426 1.391 . S
C425 C424 1.386 . S
C425 C429 1.393 . S
C426 H418 0.950 . S
C426 C424 1.391 . S
C426 C427 1.400 . S
C427 C426 1.400 . S
C427 C428 1.398 . S
C427 C433 1.491 . S
C428 H419 0.950 . S
C428 C427 1.398 . S
C428 C429 1.391 . S
C429 H417 0.950 . S
C429 C425 1.393 . S
C429 C428 1.391 . S
C430 H420 0.950 . S
C430 C431 1.386 . S
C430 C432 1.391 . S
C431 C430 1.386 . S
C431 C435 1.393 . S
C432 H421 0.950 . S
C432 C430 1.391 . S
C432 C433 1.400 . S
C433 C427 1.491 . S
C433 C432 1.400 . S
C433 C434 1.398 . S
C434 H422 0.950 . S
C434 C433 1.398 . S
C434 C435 1.391 . S
C435 H423 0.950 . S
C435 C431 1.393 . S
C435 C434 1.391 . S
H436 C444 0.950 . S
H437 C449 0.950 . S
H438 C446 0.950 . S
H439 C448 0.950 . S
H440 C450 0.950 . S
H441 C452 0.950 . S
H442 C454 0.950 . S
H443 C455 0.950 . S
C444 H436 0.950 . S
C444 C445 1.386 . S
C444 C446 1.391 . S
C445 C444 1.386 . S
C445 C449 1.393 . S
C446 H438 0.950 . S
C446 C444 1.391 . S
C446 C447 1.400 . S
C447 C446 1.400 . S
C447 C448 1.398 . S
C447 C453 1.491 . S
C448 H439 0.950 . S
C448 C447 1.398 . S
C448 C449 1.391 . S
C449 H437 0.950 . S
C449 C445 1.393 . S
C449 C448 1.391 . S
C450 H440 0.950 . S
C450 C451 1.386 . S
C450 C452 1.391 . S
C451 C450 1.386 . S
C451 C455 1.393 . S
C452 H441 0.950 . S
C452 C450 1.391 . S
C452 C453 1.400 . S
C453 C447 1.491 . S
C453 C452 1.400 . S
C453 C454 1.398 . S
C454 H442 0.950 . S
C454 C453 1.398 . S
C454 C455 1.391 . S
C455 H443 0.950 . S
C455 C451 1.393 . S
C455 C454 1.391 . S
H456 C464 0.950 . S
H457 C469 0.950 . S
H458 C466 0.950 . S
H459 C468 0.950 . S
H460 C470 0.950 1_655 S
H461 C472 0.950 . S
H462 C474 0.950 . S
H463 C475 0.950 . S
C464 H456 0.950 . S
C464 C465 1.386 . S
C464 C466 1.391 . S
C465 C464 1.386 . S
C465 C469 1.393 . S
C466 H458 0.950 . S
C466 C464 1.391 . S
C466 C467 1.400 . S
C467 C466 1.400 . S
C467 C468 1.398 . S
C467 C473 1.491 . S
C468 H459 0.950 . S
C468 C467 1.398 . S
C468 C469 1.391 . S
C469 H457 0.950 . S
C469 C465 1.393 . S
C469 C468 1.391 . S
C470 H460 0.950 1_455 S
C470 C471 1.386 . S
C470 C472 1.391 . S
C471 C470 1.386 . S
C471 C475 1.393 . S
C472 H461 0.950 . S
C472 C470 1.391 . S
C472 C473 1.400 . S
C473 C467 1.491 . S
C473 C472 1.400 . S
C473 C474 1.398 . S
C474 H462 0.950 . S
C474 C473 1.398 . S
C474 C475 1.391 . S
C475 H463 0.950 . S
C475 C471 1.393 . S
C475 C474 1.391 . S
H476 C484 0.950 1_554 S
H477 C489 0.950 . S
H478 C486 0.950 1_545 S
H479 C488 0.950 . S
H480 C490 0.950 . S
H481 C492 0.950 . S
H482 C494 0.950 1_545 S
H483 C495 0.950 . S
C484 H476 0.950 1_556 S
C484 C485 1.386 . S
C484 C486 1.391 1_556 S
C485 C484 1.386 . S
C485 C489 1.393 . S
C486 H478 0.950 1_565 S
C486 C484 1.391 1_554 S
C486 C487 1.400 1_554 S
C487 C486 1.400 1_556 S
C487 C488 1.398 . S
C487 C493 1.491 . S
C488 H479 0.950 . S
C488 C487 1.398 . S
C488 C489 1.391 . S
C489 H477 0.950 . S
C489 C485 1.393 . S
C489 C488 1.391 . S
C490 H480 0.950 . S
C490 C491 1.386 1_556 S
C490 C492 1.391 . S
C491 C490 1.386 1_554 S
C491 C495 1.393 1_565 S
C492 H481 0.950 . S
C492 C490 1.391 . S
C492 C493 1.400 . S
C493 C487 1.491 . S
C493 C492 1.400 . S
C493 C494 1.398 1_556 S
C494 H482 0.950 1_565 S
C494 C493 1.398 1_554 S
C494 C495 1.391 1_565 S
C495 H483 0.950 . S
C495 C491 1.393 1_545 S
C495 C494 1.391 1_545 S
H496 C504 0.950 . S
H497 C509 0.950 . S
H498 C506 0.950 . S
H499 C508 0.950 . S
H500 C510 0.950 . S
H501 C512 0.950 . S
H502 C514 0.950 . S
H503 C515 0.950 . S
C504 H496 0.950 . S
C504 C505 1.386 . S
C504 C506 1.391 . S
C505 C504 1.386 . S
C505 C509 1.393 . S
C506 H498 0.950 . S
C506 C504 1.391 . S
C506 C507 1.400 . S
C507 C506 1.400 . S
C507 C508 1.398 . S
C507 C513 1.491 . S
C508 H499 0.950 . S
C508 C507 1.398 . S
C508 C509 1.391 . S
C509 H497 0.950 . S
C509 C505 1.393 . S
C509 C508 1.391 . S
C510 H500 0.950 . S
C510 C511 1.386 . S
C510 C512 1.391 . S
C511 C510 1.386 . S
C511 C515 1.393 . S
C512 H501 0.950 . S
C512 C510 1.391 . S
C512 C513 1.400 . S
C513 C507 1.491 . S
C513 C512 1.400 . S
C513 C514 1.398 . S
C514 H502 0.950 . S
C514 C513 1.398 . S
C514 C515 1.391 . S
C515 H503 0.950 . S
C515 C511 1.393 . S
C515 C514 1.391 . S
H516 C524 0.950 . S
H517 C529 0.950 . S
H518 C526 0.950 . S
H519 C528 0.950 . S
H520 C530 0.950 1_556 S
H521 C532 0.950 1_556 S
H522 C534 0.950 . S
H523 C535 0.950 . S
C524 H516 0.950 . S
C524 C525 1.386 . S
C524 C526 1.391 . S
C525 C524 1.386 . S
C525 C529 1.393 . S
C526 H518 0.950 . S
C526 C524 1.391 . S
C526 C527 1.400 . S
C527 C526 1.400 . S
C527 C528 1.398 . S
C527 C533 1.491 . S
C528 H519 0.950 . S
C528 C527 1.398 . S
C528 C529 1.391 . S
C529 H517 0.950 . S
C529 C525 1.393 . S
C529 C528 1.391 . S
C530 H520 0.950 1_554 S
C530 C531 1.386 . S
C530 C532 1.391 . S
C531 C530 1.386 . S
C531 C535 1.393 . S
C532 H521 0.950 1_554 S
C532 C530 1.391 . S
C532 C533 1.400 . S
C533 C527 1.491 . S
C533 C532 1.400 . S
C533 C534 1.398 . S
C534 H522 0.950 . S
C534 C533 1.398 . S
C534 C535 1.391 . S
C535 H523 0.950 . S
C535 C531 1.393 . S
C535 C534 1.391 . S
H536 C544 0.950 . S
H537 C549 0.950 . S
H538 C546 0.950 . S
H539 C548 0.950 . S
H540 C550 0.950 . S
H541 C552 0.950 . S
H542 C554 0.950 . S
H543 C555 0.950 . S
C544 H536 0.950 . S
C544 C545 1.386 . S
C544 C546 1.391 . S
C545 C544 1.386 . S
C545 C549 1.393 . S
C546 H538 0.950 . S
C546 C544 1.391 . S
C546 C547 1.400 . S
C547 C546 1.400 . S
C547 C548 1.398 . S
C547 C553 1.491 . S
C548 H539 0.950 . S
C548 C547 1.398 . S
C548 C549 1.391 . S
C549 H537 0.950 . S
C549 C545 1.393 . S
C549 C548 1.391 . S
C550 H540 0.950 . S
C550 C551 1.386 . S
C550 C552 1.391 . S
C551 C550 1.386 . S
C551 C555 1.393 . S
C552 H541 0.950 . S
C552 C550 1.391 . S
C552 C553 1.400 . S
C553 C547 1.491 . S
C553 C552 1.400 . S
C553 C554 1.398 . S
C554 H542 0.950 . S
C554 C553 1.398 . S
C554 C555 1.391 . S
C555 H543 0.950 . S
C555 C551 1.393 . S
C555 C554 1.391 . S
H556 C564 0.950 1_554 S
H557 C569 0.950 . S
H558 C566 0.942 1_554 S
H559 C568 0.950 . S
H560 C570 0.949 1_455 S
H561 C572 0.950 . S
H562 C574 0.950 . S
H563 C575 0.950 . S
C564 H556 0.950 1_556 S
C564 C565 1.386 . S
C564 C566 1.392 . S
C565 C564 1.386 . S
C565 C569 1.393 . S
C566 H558 0.942 1_556 S
C566 C564 1.392 . S
C566 C567 1.406 . S
C567 C566 1.406 . S
C567 C568 1.398 . S
C567 C573 1.491 . S
C568 H559 0.950 . S
C568 C567 1.398 . S
C568 C569 1.391 . S
C569 H557 0.950 . S
C569 C565 1.393 . S
C569 C568 1.391 . S
C570 H560 0.949 1_655 S
C570 C571 1.384 1_655 S
C570 C572 1.394 . S
C571 C570 1.384 1_455 S
C571 C575 1.393 1_556 S
C572 H561 0.950 . S
C572 C570 1.394 . S
C572 C573 1.400 . S
C573 C567 1.491 . S
C573 C572 1.400 . S
C573 C574 1.398 1_556 S
C574 H562 0.950 . S
C574 C573 1.398 1_554 S
C574 C575 1.391 1_655 S
C575 H563 0.950 . S
C575 C571 1.393 1_554 S
C575 C574 1.391 1_455 S
H576 C584 0.950 . S
H577 C589 0.950 . S
H578 C586 0.950 . S
H579 C588 0.950 . S
H580 C590 0.950 . S
H581 C592 0.950 . S
H582 C594 0.950 . S
H583 C595 0.950 . S
C584 H576 0.950 . S
C584 C585 1.386 . S
C584 C586 1.391 . S
C585 C584 1.386 . S
C585 C589 1.393 . S
C586 H578 0.950 . S
C586 C584 1.391 . S
C586 C587 1.400 . S
C587 C586 1.400 . S
C587 C588 1.398 . S
C587 C593 1.491 . S
C588 H579 0.950 . S
C588 C587 1.398 . S
C588 C589 1.391 . S
C589 H577 0.950 . S
C589 C585 1.393 . S
C589 C588 1.391 . S
C590 H580 0.950 . S
C590 C591 1.386 . S
C590 C592 1.391 . S
C591 C590 1.386 . S
C591 C595 1.393 . S
C592 H581 0.950 . S
C592 C590 1.391 . S
C592 C593 1.400 . S
C593 C587 1.491 . S
C593 C592 1.400 . S
C593 C594 1.398 . S
C594 H582 0.950 . S
C594 C593 1.398 . S
C594 C595 1.391 . S
C595 H583 0.950 . S
C595 C591 1.393 . S
C595 C594 1.391 . S
H596 C604 0.950 . S
H597 C609 0.950 . S
H598 C606 0.950 1_655 S
H599 C608 0.950 . S
H600 C610 0.950 . S
H601 C612 0.950 . S
H602 C614 0.950 1_655 S
H603 C615 0.950 . S
C604 H596 0.950 . S
C604 C605 1.386 . S
C604 C606 1.391 . S
C605 C604 1.386 . S
C605 C609 1.393 . S
C606 H598 0.950 1_455 S
C606 C604 1.391 . S
C606 C607 1.400 . S
C607 C606 1.400 . S
C607 C608 1.398 . S
C607 C613 1.491 . S
C608 H599 0.950 . S
C608 C607 1.398 . S
C608 C609 1.391 . S
C609 H597 0.950 . S
C609 C605 1.393 . S
C609 C608 1.391 . S
C610 H600 0.950 . S
C610 C611 1.386 . S
C610 C612 1.391 . S
C611 C610 1.386 . S
C611 C615 1.393 1_455 S
C612 H601 0.950 . S
C612 C610 1.391 . S
C612 C613 1.400 . S
C613 C607 1.491 . S
C613 C612 1.400 . S
C613 C614 1.398 . S
C614 H602 0.950 1_455 S
C614 C613 1.398 . S
C614 C615 1.391 1_455 S
C615 H603 0.950 . S
C615 C611 1.393 1_655 S
C615 C614 1.391 1_655 S
H616 C624 0.950 . S
H617 C629 0.950 . S
H618 C626 0.950 . S
H619 C628 0.950 . S
H620 C630 0.950 . S
H621 C632 0.950 . S
H622 C634 0.950 . S
H623 C635 0.950 . S
C624 H616 0.950 . S
C624 C625 1.386 . S
C624 C626 1.391 . S
C625 C624 1.386 . S
C625 C629 1.393 . S
C626 H618 0.950 . S
C626 C624 1.391 . S
C626 C627 1.400 . S
C627 C626 1.400 . S
C627 C628 1.398 . S
C627 C633 1.491 . S
C628 H619 0.950 . S
C628 C627 1.398 . S
C628 C629 1.391 . S
C629 H617 0.950 . S
C629 C625 1.393 . S
C629 C628 1.391 . S
C630 H620 0.950 . S
C630 C631 1.386 . S
C630 C632 1.391 . S
C631 C630 1.386 . S
C631 C635 1.393 . S
C632 H621 0.950 . S
C632 C630 1.391 . S
C632 C633 1.400 . S
C633 C627 1.491 . S
C633 C632 1.400 . S
C633 C634 1.398 . S
C634 H622 0.950 . S
C634 C633 1.398 . S
C634 C635 1.391 . S
C635 H623 0.950 . S
C635 C631 1.393 . S
C635 C634 1.391 . S
C165 C5 1.547 . S
C171 C75 1.424 . S
C185 C14 1.512 . S
C191 C109 1.421 . S
C211 C121 1.385 . S
C205 C25 1.495 . S
C225 C34 1.501 . S
C231 C155 1.379 . S
C251 C112 1.430 . S
C245 C7 1.520 . S
C271 C92 1.430 . S
C265 C13 1.522 . S
C291 C139 1.370 . S
C285 C23 1.491 . S
C311 C130 1.387 . S
C305 C31 1.508 . S
C325 C4 1.532 . S
C331 C138 1.415 . S
C351 C100 1.409 . S
C345 C22 1.497 . S
C365 C32 1.515 . S
C371 C76 1.411 . S
C385 C16 1.508 . S
C391 C133 1.417 . S
C411 C91 1.474 . S
C405 C41 1.550 . S
C425 C50 1.551 . S
C431 C113 1.449 . S
C445 C61 1.541 . S
C451 C118 1.465 . S
C465 C67 1.573 . S
C471 C151 1.492 . S
C485 C40 1.568 . S
C491 C96 1.460 . S
C511 C88 1.480 . S
C505 C52 1.574 . S
C531 C142 1.463 . S
C525 C59 1.547 . S
C551 C134 1.428 . S
C545 C70 1.530 . S
C565 C43 1.533 . S
C571 C154 1.437 . S
C591 C97 1.445 . S
C585 C58 1.561 . S
C611 C79 1.428 . S
C605 C68 1.543 . S
C625 C49 1.568 . S
C631 C117 1.476 . S
