# Generated by pormake.
# Topology rtl, (3,6)-cn, num edge types: 1
# Building blocks:
#     Node 0, Type 0, BuildingBlock: ESEHIV_clean_linker_0, # of connection points: 3
#     Node 1, Type 0, BuildingBlock: ESEHIV_clean_linker_0, # of connection points: 3
#     Node 2, Type 0, BuildingBlock: ESEHIV_clean_linker_0, # of connection points: 3
#     Node 3, Type 0, BuildingBlock: ESEHIV_clean_linker_0, # of connection points: 3
#     Node 4, Type 1, BuildingBlock: KUMJIN_clean_sbu_1, # of connection points: 6
#     Node 5, Type 1, BuildingBlock: KUMJIN_clean_sbu_1, # of connection points: 6
#     Edge 6, Type (0, 1), BuildingBlock: XIVTED_clean_linker_0, # of connection points: 2
#     Edge 7, Type (0, 1), BuildingBlock: XIVTED_clean_linker_0, # of connection points: 2
#     Edge 8, Type (0, 1), BuildingBlock: XIVTED_clean_linker_0, # of connection points: 2
#     Edge 9, Type (0, 1), BuildingBlock: XIVTED_clean_linker_0, # of connection points: 2
#     Edge 10, Type (0, 1), BuildingBlock: XIVTED_clean_linker_0, # of connection points: 2
#     Edge 11, Type (0, 1), BuildingBlock: XIVTED_clean_linker_0, # of connection points: 2
#     Edge 12, Type (0, 1), BuildingBlock: XIVTED_clean_linker_0, # of connection points: 2
#     Edge 13, Type (0, 1), BuildingBlock: XIVTED_clean_linker_0, # of connection points: 2
#     Edge 14, Type (0, 1), BuildingBlock: XIVTED_clean_linker_0, # of connection points: 2
#     Edge 15, Type (0, 1), BuildingBlock: XIVTED_clean_linker_0, # of connection points: 2
#     Edge 16, Type (0, 1), BuildingBlock: XIVTED_clean_linker_0, # of connection points: 2
#     Edge 17, Type (0, 1), BuildingBlock: XIVTED_clean_linker_0, # of connection points: 2
# Relax obj value: 0.018
# Max RMSD: 0.117
# Mean RMSD: 0.069
data_MOF--net-rtl--node1-KUMJIN_clean_sbu_1--node2-ESEHIV_clean_linker_0--edge1-XIVTED_clean_linker_0
_symmetry_space_group_name_H-M    P1
_symmetry_Int_Tables_number       1
_symmetry_cell_setting            triclinic
loop_
_symmetry_equiv_pos_as_xyz
'x, y, z'
_cell_length_a     30.792258
_cell_length_b     31.595285
_cell_length_c     28.212267
_cell_angle_alpha  77.681393
_cell_angle_beta   99.925559
_cell_angle_gamma 90.350252
loop_
_atom_site_label
_atom_site_type_symbol
_atom_site_fract_x
_atom_site_fract_y
_atom_site_fract_z
_atom_type_partial_charge
H0 H 0.19634 0.93662 0.99722 0.0
H1 H 0.2867 0.84058 0.09665 0.0
H2 H 0.26252 0.84505 0.94072 0.0
C3 C 0.21903 0.90907 0.00406 0.0
C4 C 0.22715 0.89291 0.96385 0.0
C5 C 0.23934 0.88989 0.05253 0.0
C6 C 0.27063 0.8556 0.05972 0.0
C7 C 0.28038 0.83987 0.01936 0.0
C8 C 0.25779 0.85851 0.97178 0.0
H9 H 0.59477 0.67689 0.61693 0.0
H10 H 0.68114 0.76219 0.54115 0.0
H11 H 0.69457 0.74312 0.69838 0.0
C12 C 0.62209 0.69857 0.6184 0.0
C13 C 0.64285 0.70693 0.66383 0.0
C14 C 0.63641 0.71733 0.57431 0.0
C15 C 0.66957 0.74773 0.57499 0.0
C16 C 0.69 0.75757 0.61962 0.0
C17 C 0.67731 0.73653 0.66402 0.0
H18 H 0.81654 0.0736 0.08256 0.0
H19 H 0.73715 0.14994 0.14619 0.0
H20 H 0.72336 0.16981 0.98888 0.0
C21 C 0.79007 0.09727 0.07837 0.0
C22 C 0.76882 0.11807 0.03079 0.0
C23 C 0.77998 0.11017 0.12011 0.0
C24 C 0.7463 0.14156 0.11385 0.0
C25 C 0.72684 0.1646 0.0669 0.0
C26 C 0.73763 0.152 0.02546 0.0
H27 H 0.41818 0.32752 0.47011 0.0
H28 H 0.32708 0.24712 0.54379 0.0
H29 H 0.3188 0.26188 0.38734 0.0
C30 C 0.39069 0.30603 0.46824 0.0
C31 C 0.37059 0.29752 0.4227 0.0
C32 C 0.37482 0.28867 0.51168 0.0
C33 C 0.34021 0.2598 0.51046 0.0
C34 C 0.32053 0.24935 0.4658 0.0
C35 C 0.33572 0.26824 0.42196 0.0
Eu36 Eu 0.03745 0.95769 0.51709 0.0
C37 C 0.93188 0.14103 0.49971 0.0
N38 N 0.97012 0.12535 0.53003 0.0
C39 C 1.0004 0.19606 0.51567 0.0
C40 C 0.92728 0.18476 0.47406 0.0
C41 C 0.00311 0.15256 0.54047 0.0
C42 C 0.96265 0.21204 0.48146 0.0
C43 C 0.85493 0.13049 0.46917 0.0
C44 C 0.89615 0.11419 0.49739 0.0
C45 C 0.85091 0.17325 0.44134 0.0
C46 C 0.88702 0.20035 0.44378 0.0
Eu47 Eu 0.97332 0.05124 0.56903 0.0
N48 N 0.90089 0.07321 0.52556 0.0
C49 C 0.81848 0.10401 0.47154 0.0
C50 C 0.86463 0.04875 0.53089 0.0
C51 C 0.8232 0.06331 0.50334 0.0
H52 H 0.03079 0.14096 0.56916 0.0
H53 H 0.79474 0.04346 0.50743 0.0
H54 H 0.97454 0.86786 0.52506 0.0
H55 H 0.21503 0.96481 0.57685 0.0
H56 H 0.86688 0.01869 0.55769 0.0
H57 H 0.78621 0.11544 0.45074 0.0
H58 H 0.14073 0.99175 0.53185 0.0
H59 H 0.02703 0.21739 0.52363 0.0
H60 H 0.8196 0.18616 0.41919 0.0
H61 H 0.883 0.23372 0.42351 0.0
H62 H 0.97976 0.79207 0.56997 0.0
H63 H 0.96035 0.24587 0.46271 0.0
H64 H 0.22491 0.89082 0.62917 0.0
N65 N 0.03845 0.88351 0.55902 0.0
C66 C 0.07761 0.86709 0.58695 0.0
C67 C 0.0073 0.81293 0.5758 0.0
C68 C 0.08254 0.82302 0.61168 0.0
C69 C 0.00422 0.85642 0.55123 0.0
C70 C 0.04643 0.79627 0.60673 0.0
N71 N 0.10899 0.93474 0.56073 0.0
C72 C 0.14488 0.95971 0.55508 0.0
C73 C 0.15578 0.8763 0.61318 0.0
C74 C 0.11392 0.89334 0.58758 0.0
C75 C 0.19227 0.90274 0.61003 0.0
C76 C 0.18685 0.94448 0.58042 0.0
H77 H 0.04899 0.7623 0.62498 0.0
H78 H 0.12805 0.77279 0.65788 0.0
H79 H 0.19216 0.81945 0.65934 0.0
O80 O 0.06661 0.9734 0.44823 0.0
O81 O 0.0701 0.97565 0.58769 0.0
O82 O 0.00719 0.98838 0.61438 0.0
O83 O 0.03512 0.91212 0.47015 0.0
O84 O 0.05314 0.02893 0.49436 0.0
O85 O 0.04468 0.06368 0.55733 0.0
O86 O 0.931 0.06059 0.62131 0.0
O87 O 0.96774 0.05809 0.48617 0.0
O88 O 0.96971 0.9866 0.48129 0.0
O89 O 1.0004 0.07824 0.63286 0.0
O90 O 0.9388 0.98765 0.5762 0.0
O91 O 0.97226 0.93788 0.5417 0.0
C92 C 0.04998 0.98166 0.62301 0.0
C93 C 0.06293 0.9201 0.3947 0.0
C94 C 0.09968 0.92162 0.32456 0.0
C95 C 0.07669 0.88497 0.31508 0.0
C96 C 0.04029 0.88337 0.38428 0.0
C97 C 0.04719 0.86602 0.34478 0.0
C98 C 0.09285 0.93943 0.36448 0.0
C99 C 0.06554 0.05734 0.52184 0.0
C100 C 0.05571 0.93589 0.4384 0.0
C101 C 0.12377 0.80648 0.63869 0.0
C102 C 0.16029 0.83304 0.63947 0.0
C103 C 0.96057 0.02754 0.46068 0.0
C104 C 0.95717 0.08938 0.69443 0.0
C105 C 0.91617 0.09077 0.76099 0.0
C106 C 0.94966 0.11488 0.78204 0.0
C107 C 0.99003 0.11371 0.71623 0.0
C108 C 0.91985 0.07791 0.71698 0.0
C109 C 0.98622 0.12633 0.75974 0.0
C110 C 0.94155 0.95005 0.56378 0.0
C111 C 0.963 0.07556 0.64903 0.0
H112 H 0.08172 0.87096 0.28448 0.0
H113 H 0.01719 0.86771 0.40685 0.0
H114 H 0.0297 0.8377 0.33724 0.0
H115 H 0.11077 0.96756 0.37207 0.0
H116 H 0.94718 0.12533 0.8157 0.0
H117 H 0.0188 0.1231 0.69961 0.0
H118 H 0.894 0.05934 0.70056 0.0
H119 H 0.01165 0.1452 0.77618 0.0
Eu120 Eu 0.45613 0.48455 0.99416 0.0
C121 C 0.64716 0.55595 0.06417 0.0
N122 N 0.62812 0.51786 0.08039 0.0
C123 C 0.69682 0.47916 0.08941 0.0
C124 C 0.69201 0.55684 0.05923 0.0
C125 C 0.65238 0.47988 0.09401 0.0
C126 C 0.71668 0.51776 0.07166 0.0
C127 C 0.64115 0.63438 0.03713 0.0
C128 C 0.62185 0.59434 0.05288 0.0
C129 C 0.68568 0.63524 0.03184 0.0
C130 C 0.71098 0.5966 0.04271 0.0
Eu131 Eu 0.55408 0.52365 0.09047 0.0
N132 N 0.57829 0.59255 0.05661 0.0
C133 C 0.6149 0.67239 0.02659 0.0
C134 C 0.55301 0.62953 0.04796 0.0
C135 C 0.5707 0.66994 0.03224 0.0
H136 H 0.63805 0.45033 0.1101 0.0
H137 H 0.55039 0.69921 0.02507 0.0
H138 H 0.37415 0.56034 0.97509 0.0
H139 H 0.45486 0.30912 0.05723 0.0
H140 H 0.51963 0.62816 0.05447 0.0
H141 H 0.62846 0.70375 0.01434 0.0
H142 H 0.48754 0.37946 0.02887 0.0
H143 H 0.7159 0.44892 0.10031 0.0
H144 H 0.7009 0.66566 0.01936 0.0
H145 H 0.74534 0.59784 0.03859 0.0
H146 H 0.29659 0.5636 0.98539 0.0
H147 H 0.75123 0.51712 0.06848 0.0
H148 H 0.37685 0.30661 0.06843 0.0
N149 N 0.38232 0.4924 0.00423 0.0
C150 C 0.3623 0.45483 0.02032 0.0
C151 C 0.31482 0.53289 0.99588 0.0
C152 C 0.31754 0.45513 0.02547 0.0
C153 C 0.35912 0.53102 0.99096 0.0
C154 C 0.29399 0.49484 0.01347 0.0
N155 N 0.42995 0.41641 0.0272 0.0
C156 C 0.45416 0.37883 0.03527 0.0
C157 C 0.36615 0.37628 0.04668 0.0
C158 C 0.38647 0.41578 0.0312 0.0
C159 C 0.39125 0.33759 0.05646 0.0
C160 C 0.43539 0.33889 0.0505 0.0
H161 H 0.25955 0.49639 0.01687 0.0
H162 H 0.26322 0.41557 0.04605 0.0
H163 H 0.30569 0.34661 0.06446 0.0
O164 O 0.46304 0.45009 0.93474 0.0
O165 O 0.44954 0.46694 0.07559 0.0
O166 O 0.51957 0.46412 0.12271 0.0
O167 O 0.40891 0.49727 0.92634 0.0
O168 O 0.52535 0.45565 0.00492 0.0
O169 O 0.55739 0.45313 0.08572 0.0
O170 O 0.54835 0.55912 0.1494 0.0
O171 O 0.56162 0.53901 0.00933 0.0
O172 O 0.49104 0.54441 0.96367 0.0
O173 O 0.60113 0.51037 0.15835 0.0
O174 O 0.48421 0.55105 0.0806 0.0
O175 O 0.45415 0.55497 0.99913 0.0
C176 C 0.47723 0.45664 0.11779 0.0
C177 C 0.4079 0.46258 0.85789 0.0
C178 C 0.40879 0.43048 0.78671 0.0
C179 C 0.36771 0.45097 0.76472 0.0
C180 C 0.3667 0.48263 0.83491 0.0
C181 C 0.34683 0.47676 0.78874 0.0
C182 C 0.42892 0.43594 0.83371 0.0
C183 C 0.55132 0.43683 0.04592 0.0
C184 C 0.42716 0.46944 0.90728 0.0
C185 C 0.29753 0.4159 0.04179 0.0
C186 C 0.32171 0.37661 0.05221 0.0
C187 C 0.53364 0.54998 0.96745 0.0
C188 C 0.60366 0.54604 0.22617 0.0
C189 C 0.60364 0.57813 0.29749 0.0
C190 C 0.64504 0.55807 0.31875 0.0
C191 C 0.64519 0.52639 0.24841 0.0
C192 C 0.58287 0.57242 0.25082 0.0
C193 C 0.66565 0.53246 0.2943 0.0
C194 C 0.45796 0.56973 0.03977 0.0
C195 C 0.5838 0.53904 0.17703 0.0
H196 H 0.35166 0.44686 0.72872 0.0
H197 H 0.3495 0.50284 0.85271 0.0
H198 H 0.31512 0.49229 0.77149 0.0
H199 H 0.46056 0.42007 0.85086 0.0
H200 H 0.66147 0.56228 0.35457 0.0
H201 H 0.66219 0.50635 0.23023 0.0
H202 H 0.55093 0.58792 0.23428 0.0
H203 H 0.6976 0.51721 0.311 0.0
H204 H 0.24101 0.27105 0.48344 0.0
H205 H 0.12265 0.0499 0.45836 0.0
H206 H 0.31031 0.16744 0.44742 0.0
H207 H 0.09691 0.12741 0.55976 0.0
H208 H 0.18441 0.09627 0.43974 0.0
H209 H 0.17782 0.22447 0.49276 0.0
C210 C 0.24262 0.23848 0.47715 0.0
C211 C 0.28076 0.2228 0.46502 0.0
C212 C 0.16451 0.1034 0.46538 0.0
C213 C 0.20905 0.16917 0.47624 0.0
C214 C 0.12923 0.07698 0.47619 0.0
C215 C 0.10322 0.08523 0.50995 0.0
C216 C 0.17287 0.13934 0.48703 0.0
C217 C 0.11419 0.12051 0.53215 0.0
C218 C 0.20678 0.21189 0.48269 0.0
C219 C 0.28127 0.18057 0.45672 0.0
N220 N 0.14759 0.1465 0.51981 0.0
N221 N 0.24594 0.15494 0.46281 0.0
H222 H 0.33639 0.8259 0.95772 0.0
H223 H 0.43443 0.59688 0.11788 0.0
H224 H 0.29709 0.76802 0.09649 0.0
H225 H 0.42567 0.63385 0.9601 0.0
H226 H 0.3945 0.66439 0.11573 0.0
H227 H 0.38031 0.76062 0.96354 0.0
C228 C 0.33685 0.79958 0.98948 0.0
C229 C 0.31193 0.80244 0.02614 0.0
C230 C 0.40129 0.65759 0.08165 0.0
C231 C 0.36366 0.72786 0.0336 0.0
C232 C 0.42406 0.61919 0.08282 0.0
C233 C 0.43299 0.60967 0.03904 0.0
C234 C 0.38815 0.68695 0.03651 0.0
C235 C 0.41898 0.6397 0.99463 0.0
C236 C 0.36221 0.76236 0.9928 0.0
C237 C 0.3156 0.76767 0.06729 0.0
N238 N 0.39743 0.67711 0.99453 0.0
N239 N 0.34085 0.73178 0.06983 0.0
H240 H 0.68645 0.84063 0.56797 0.0
H241 H 0.94717 0.87165 0.62776 0.0
H242 H 0.77518 0.74414 0.66882 0.0
H243 H 0.85601 0.96058 0.51984 0.0
H244 H 0.88527 0.82532 0.64726 0.0
H245 H 0.74831 0.88819 0.55687 0.0
C246 C 0.71908 0.82977 0.58812 0.0
C247 C 0.72603 0.78852 0.619 0.0
C248 C 0.8788 0.85519 0.61965 0.0
C249 C 0.79716 0.84208 0.60577 0.0
C250 C 0.91402 0.8813 0.60836 0.0
C251 C 0.90605 0.92024 0.57318 0.0
C252 C 0.83568 0.86845 0.59538 0.0
C253 C 0.86299 0.93155 0.54856 0.0
C254 C 0.75441 0.85674 0.58166 0.0
C255 C 0.7687 0.77587 0.64472 0.0
N256 N 0.82934 0.90589 0.5603 0.0
N257 N 0.80291 0.80243 0.6371 0.0
H258 H 0.7389 0.22379 0.12563 0.0
H259 H 0.55415 0.3958 0.9697 0.0
H260 H 0.6543 0.19881 0.99608 0.0
H261 H 0.60216 0.38379 0.12532 0.0
H262 H 0.59506 0.32857 0.97311 0.0
H263 H 0.6945 0.28814 0.11999 0.0
C264 C 0.71053 0.23127 0.09634 0.0
C265 C 0.69972 0.20473 0.06212 0.0
C266 C 0.59667 0.34093 0.00632 0.0
C267 C 0.64952 0.28022 0.05441 0.0
C268 C 0.57354 0.37934 0.00447 0.0
C269 C 0.57556 0.39617 0.04709 0.0
C270 C 0.62251 0.31968 0.05089 0.0
C271 C 0.60055 0.37294 0.09121 0.0
C272 C 0.68539 0.26846 0.09296 0.0
C273 C 0.66382 0.21798 0.0235 0.0
N274 N 0.62336 0.3362 0.09181 0.0
N275 N 0.63995 0.25491 0.02064 0.0
H276 H 0.28824 0.89141 0.14498 0.0
H277 H 0.0786 0.97481 0.23496 0.0
H278 H 0.15746 0.92009 0.05842 0.0
H279 H 0.18812 0.90513 0.33683 0.0
H280 H 0.11978 0.97744 0.16779 0.0
H281 H 0.26182 0.91305 0.21389 0.0
C282 C 0.25424 0.90249 0.14002 0.0
C283 C 0.22536 0.90424 0.09504 0.0
C284 C 0.13547 0.96269 0.20503 0.0
C285 C 0.19566 0.93058 0.17329 0.0
C286 C 0.11224 0.96191 0.2434 0.0
C287 C 0.13015 0.93974 0.29117 0.0
C288 C 0.17662 0.94067 0.21455 0.0
C289 C 0.17345 0.92263 0.30028 0.0
C290 C 0.23941 0.91528 0.17929 0.0
C291 C 0.18173 0.91935 0.09124 0.0
N292 N 0.19505 0.92261 0.26203 0.0
N293 N 0.16843 0.93192 0.12959 0.0
H294 H 0.64346 0.73538 0.75028 0.0
H295 H 0.51536 0.53319 0.87564 0.0
H296 H 0.61075 0.62463 0.68503 0.0
H297 H 0.58671 0.61959 0.95732 0.0
H298 H 0.54284 0.57122 0.80175 0.0
H299 H 0.61801 0.69697 0.82469 0.0
C300 C 0.63116 0.7031 0.75133 0.0
C301 C 0.62884 0.68377 0.71047 0.0
C302 C 0.55286 0.5816 0.8361 0.0
C303 C 0.59828 0.64021 0.79531 0.0
C304 C 0.53711 0.56003 0.87808 0.0
C305 C 0.54999 0.57267 0.92298 0.0
C306 C 0.58093 0.61658 0.839 0.0
C307 C 0.57766 0.60785 0.92418 0.0
C308 C 0.61628 0.68133 0.79382 0.0
C309 C 0.61195 0.64185 0.71446 0.0
N310 N 0.59215 0.62875 0.88283 0.0
N311 N 0.597 0.62176 0.75579 0.0
H312 H 0.81117 0.16194 0.18306 0.0
H313 H 0.93588 0.973 0.39769 0.0
H314 H 0.8143 0.02853 0.16947 0.0
H315 H 0.92978 0.10766 0.40615 0.0
H316 H 0.89314 0.99177 0.31415 0.0
H317 H 0.85538 0.14151 0.26466 0.0
C318 C 0.82087 0.1281 0.19745 0.0
C319 C 0.80824 0.09674 0.16954 0.0
C320 C 0.90114 0.01714 0.33435 0.0
C321 C 0.86027 0.07315 0.26344 0.0
C322 C 0.92555 0.00652 0.38211 0.0
C323 C 0.93607 0.03875 0.4094 0.0
C324 C 0.88717 0.06032 0.31363 0.0
C325 C 0.92212 0.08161 0.38696 0.0
C326 C 0.84652 0.11652 0.2441 0.0
C327 C 0.82316 0.05371 0.18972 0.0
N328 N 0.89832 0.09105 0.34056 0.0
N329 N 0.84829 0.04309 0.23565 0.0
H330 H 0.3766 0.37286 0.51684 0.0
H331 H 0.41579 0.34203 0.80217 0.0
H332 H 0.40674 0.24463 0.60708 0.0
H333 H 0.44332 0.45983 0.70464 0.0
H334 H 0.41847 0.30253 0.73629 0.0
H335 H 0.4012 0.40359 0.58848 0.0
C336 C 0.3892 0.35122 0.5518 0.0
C337 C 0.39027 0.30626 0.55605 0.0
C338 C 0.42539 0.33673 0.72993 0.0
C339 C 0.41865 0.34123 0.63866 0.0
C340 C 0.42438 0.35911 0.76763 0.0
C341 C 0.42895 0.40419 0.75836 0.0
C342 C 0.43006 0.36009 0.68287 0.0
C343 C 0.43949 0.42507 0.71299 0.0
C344 C 0.40344 0.36875 0.59271 0.0
C345 C 0.40551 0.27953 0.60252 0.0
N346 N 0.4386 0.40308 0.67652 0.0
N347 N 0.41899 0.29745 0.64234 0.0
H348 H 0.61108 0.76439 0.47889 0.0
H349 H 0.56729 0.54748 0.37784 0.0
H350 H 0.62552 0.63378 0.56645 0.0
H351 H 0.59906 0.66636 0.28524 0.0
H352 H 0.56362 0.58603 0.4434 0.0
H353 H 0.58683 0.73494 0.40474 0.0
C354 C 0.60883 0.72965 0.48252 0.0
C355 C 0.61978 0.70145 0.52892 0.0
C356 C 0.57014 0.60409 0.40828 0.0
C357 C 0.59178 0.66793 0.44501 0.0
C358 C 0.57152 0.58221 0.37067 0.0
C359 C 0.58361 0.60387 0.32641 0.0
C360 C 0.58134 0.64786 0.4017 0.0
C361 C 0.58959 0.6487 0.31903 0.0
C362 C 0.59483 0.71297 0.44039 0.0
C363 C 0.61633 0.65677 0.53168 0.0
N364 N 0.58928 0.66925 0.35682 0.0
N365 N 0.60276 0.64148 0.49041 0.0
H366 H 0.79456 0.17631 0.95627 0.0
H367 H 0.89969 0.01889 0.82861 0.0
H368 H 0.77696 0.03935 0.00473 0.0
H369 H 0.84704 0.14563 0.75172 0.0
H370 H 0.85381 0.02028 0.89175 0.0
H371 H 0.81755 0.16281 0.8824 0.0
C372 C 0.79488 0.14338 0.95088 0.0
C373 C 0.78324 0.10899 0.98627 0.0
C374 C 0.85123 0.04711 0.86017 0.0
C375 C 0.80973 0.09314 0.90145 0.0
C376 C 0.87699 0.04613 0.82394 0.0
C377 C 0.87716 0.08237 0.78523 0.0
C378 C 0.82676 0.08509 0.85793 0.0
C379 C 0.84776 0.11712 0.78105 0.0
C380 C 0.80785 0.13567 0.90859 0.0
C381 C 0.78574 0.06672 0.97819 0.0
N382 N 0.82461 0.11812 0.81762 0.0
N383 N 0.79898 0.05985 0.93659 0.0
H384 H 0.39983 0.38103 0.40275 0.0
H385 H 0.42634 0.38544 0.12647 0.0
H386 H 0.37246 0.27055 0.33579 0.0
H387 H 0.49247 0.47317 0.21001 0.0
H388 H 0.3986 0.34703 0.19926 0.0
H389 H 0.42684 0.41871 0.32975 0.0
C390 C 0.39987 0.36424 0.37309 0.0
C391 C 0.38466 0.32171 0.37645 0.0
C392 C 0.419 0.37479 0.20173 0.0
C393 C 0.41409 0.36619 0.29118 0.0
C394 C 0.43423 0.39707 0.15985 0.0
C395 C 0.46069 0.433 0.16179 0.0
C396 C 0.43012 0.38885 0.24604 0.0
C397 C 0.47185 0.44564 0.20694 0.0
C398 C 0.41503 0.38618 0.33108 0.0
C399 C 0.38376 0.3031 0.33527 0.0
N400 N 0.45623 0.42379 0.24728 0.0
N401 N 0.39824 0.32547 0.29437 0.0
H402 H 0.25796 0.91396 0.87664 0.0
H403 H 0.01807 0.96931 0.71017 0.0
H404 H 0.13823 0.91021 0.93724 0.0
H405 H 0.13922 0.97298 0.65218 0.0
H406 H 0.06107 0.94996 0.79383 0.0
H407 H 0.21463 0.93782 0.79401 0.0
C408 C 0.22252 0.91826 0.87248 0.0
C409 C 0.20165 0.9101 0.91379 0.0
C410 C 0.07818 0.9551 0.76272 0.0
C411 C 0.15171 0.93736 0.81934 0.0
C412 C 0.05366 0.96622 0.71497 0.0
C413 C 0.07503 0.97232 0.67402 0.0
C414 C 0.12437 0.95033 0.76947 0.0
C415 C 0.12123 0.96796 0.68249 0.0
C416 C 0.19777 0.93197 0.82534 0.0
C417 C 0.15567 0.91662 0.90638 0.0
N418 N 0.14427 0.95713 0.72913 0.0
N419 N 0.1322 0.92965 0.86005 0.0
loop_
_geom_bond_atom_site_label_1
_geom_bond_atom_site_label_2
_geom_bond_distance
_geom_bond_site_symmetry_2
_ccdc_geom_bond_type
H0 C3 0.931 . S
H1 C6 0.928 . S
H2 C8 0.930 . S
C3 H0 0.931 . S
C3 C4 1.413 1_554 S
C3 C5 1.360 . S
C4 C3 1.413 1_556 S
C4 C8 1.429 . S
C5 C3 1.360 . S
C5 C6 1.372 . S
C6 H1 0.928 . S
C6 C5 1.372 . S
C6 C7 1.404 . S
C7 C6 1.404 . S
C7 C8 1.391 1_554 S
C8 H2 0.930 . S
C8 C4 1.429 . S
C8 C7 1.391 1_556 S
H9 C12 0.931 . S
H10 C15 0.928 . S
H11 C17 0.930 . S
C12 H9 0.931 . S
C12 C13 1.413 . S
C12 C14 1.360 . S
C13 C12 1.413 . S
C13 C17 1.429 . S
C14 C12 1.360 . S
C14 C15 1.372 . S
C15 H10 0.928 . S
C15 C14 1.372 . S
C15 C16 1.404 . S
C16 C15 1.404 . S
C16 C17 1.391 . S
C17 H11 0.930 . S
C17 C13 1.429 . S
C17 C16 1.391 . S
H18 C21 0.931 . S
H19 C24 0.928 . S
H20 C26 0.930 1_556 S
C21 H18 0.931 . S
C21 C22 1.413 . S
C21 C23 1.360 . S
C22 C21 1.413 . S
C22 C26 1.429 . S
C23 C21 1.360 . S
C23 C24 1.372 . S
C24 H19 0.928 . S
C24 C23 1.372 . S
C24 C25 1.404 . S
C25 C24 1.404 . S
C25 C26 1.391 . S
C26 H20 0.930 1_554 S
C26 C22 1.429 . S
C26 C25 1.391 . S
H27 C30 0.931 . S
H28 C33 0.928 . S
H29 C35 0.930 . S
C30 H27 0.931 . S
C30 C31 1.413 . S
C30 C32 1.360 . S
C31 C30 1.413 . S
C31 C35 1.429 . S
C32 C30 1.360 . S
C32 C33 1.372 . S
C33 H28 0.928 . S
C33 C32 1.372 . S
C33 C34 1.404 . S
C34 C33 1.404 . S
C34 C35 1.391 . S
C35 H29 0.930 . S
C35 C31 1.429 . S
C35 C34 1.391 . S
Eu36 N65 2.600 . S
Eu36 N71 2.562 . S
Eu36 O80 2.462 . S
Eu36 O81 2.373 . S
Eu36 O83 2.432 . S
Eu36 O84 2.291 1_565 S
Eu36 O88 2.334 1_455 S
Eu36 O91 2.372 1_455 S
Eu36 C100 2.787 . S
C37 N38 1.365 . S
C37 C40 1.405 . S
C37 C44 1.448 . S
N38 C37 1.365 . S
N38 C41 1.319 . S
N38 Eu47 2.600 . S
C39 C41 1.397 . S
C39 C42 1.367 . S
C39 H59 0.931 1_655 S
C40 C37 1.405 . S
C40 C42 1.403 . S
C40 C46 1.439 . S
C41 N38 1.319 . S
C41 C39 1.397 . S
C41 H52 0.930 1_655 S
C42 C39 1.367 . S
C42 C40 1.403 . S
C42 H63 0.929 . S
C43 C44 1.430 . S
C43 C45 1.387 . S
C43 C49 1.404 . S
C44 C37 1.448 . S
C44 C43 1.430 . S
C44 N48 1.351 . S
C45 C43 1.387 . S
C45 C46 1.374 . S
C45 H60 0.931 . S
C46 C40 1.439 . S
C46 C45 1.374 . S
C46 H61 0.931 . S
Eu47 N38 2.600 . S
Eu47 N48 2.562 . S
Eu47 O82 2.335 1_655 S
Eu47 O85 2.372 1_655 S
Eu47 O86 2.462 . S
Eu47 O87 2.373 . S
Eu47 O89 2.432 . S
Eu47 O90 2.291 1_545 S
Eu47 C111 2.787 . S
N48 C44 1.351 . S
N48 Eu47 2.562 . S
N48 C50 1.325 . S
C49 C43 1.404 . S
C49 C51 1.366 . S
C49 H57 0.930 . S
C50 N48 1.325 . S
C50 C51 1.416 . S
C50 H56 0.929 . S
C51 C49 1.366 . S
C51 C50 1.416 . S
C51 H53 0.930 . S
H52 C41 0.930 1_455 S
H53 C51 0.930 . S
H54 C69 0.930 1_655 S
H55 C76 0.930 . S
H56 C50 0.929 . S
H57 C49 0.930 . S
H58 C72 0.929 . S
H59 C39 0.931 1_455 S
H60 C45 0.931 . S
H61 C46 0.931 . S
H62 C67 0.931 1_655 S
H63 C42 0.929 . S
H64 C75 0.930 . S
N65 Eu36 2.600 . S
N65 C66 1.365 . S
N65 C69 1.319 . S
C66 N65 1.365 . S
C66 C68 1.405 . S
C66 C74 1.448 . S
C67 H62 0.931 1_455 S
C67 C69 1.397 . S
C67 C70 1.367 . S
C68 C66 1.405 . S
C68 C70 1.403 . S
C68 C101 1.439 . S
C69 H54 0.930 1_455 S
C69 N65 1.319 . S
C69 C67 1.397 . S
C70 C67 1.367 . S
C70 C68 1.403 . S
C70 H77 0.929 . S
N71 Eu36 2.562 . S
N71 C72 1.325 . S
N71 C74 1.351 . S
C72 H58 0.929 . S
C72 N71 1.325 . S
C72 C76 1.416 . S
C73 C74 1.430 . S
C73 C75 1.404 . S
C73 C102 1.387 . S
C74 C66 1.448 . S
C74 N71 1.351 . S
C74 C73 1.430 . S
C75 H64 0.930 . S
C75 C73 1.404 . S
C75 C76 1.366 . S
C76 H55 0.930 . S
C76 C72 1.416 . S
C76 C75 1.366 . S
H77 C70 0.929 . S
H78 C101 0.931 . S
H79 C102 0.931 . S
O80 Eu36 2.462 . S
O80 C100 1.252 . S
O81 Eu36 2.373 . S
O81 C92 1.249 . S
O82 Eu47 2.335 1_455 S
O82 C92 1.264 1_545 S
O83 Eu36 2.432 . S
O83 C100 1.268 . S
O84 Eu36 2.291 1_545 S
O84 C99 1.255 . S
O85 Eu47 2.372 1_455 S
O85 C99 1.257 . S
O86 Eu47 2.462 . S
O86 C111 1.252 . S
O87 Eu47 2.373 . S
O87 C103 1.249 . S
O88 Eu36 2.334 1_655 S
O88 C103 1.266 1_565 S
O89 Eu47 2.432 . S
O89 C111 1.268 . S
O90 Eu47 2.291 1_565 S
O90 C110 1.255 . S
O91 Eu36 2.372 1_655 S
O91 C110 1.257 . S
C92 O81 1.249 . S
C92 O82 1.264 1_565 S
C93 C96 1.382 . S
C93 C98 1.390 . S
C93 C100 1.506 . S
C94 C95 1.398 . S
C94 C98 1.392 . S
C95 C94 1.398 . S
C95 C97 1.372 . S
C95 H112 0.931 . S
C96 C93 1.382 . S
C96 C97 1.390 . S
C96 H113 0.931 . S
C97 C95 1.372 . S
C97 C96 1.390 . S
C97 H114 0.929 . S
C98 C93 1.390 . S
C98 C94 1.392 . S
C98 H115 0.930 . S
C99 O84 1.255 . S
C99 O85 1.257 . S
C100 Eu36 2.787 . S
C100 O80 1.252 . S
C100 O83 1.268 . S
C100 C93 1.506 . S
C101 C68 1.439 . S
C101 H78 0.931 . S
C101 C102 1.374 . S
C102 C73 1.387 . S
C102 H79 0.931 . S
C102 C101 1.374 . S
C103 O87 1.249 . S
C103 O88 1.266 1_545 S
C104 C107 1.382 . S
C104 C108 1.390 . S
C104 C111 1.506 . S
C105 C106 1.398 . S
C105 C108 1.392 . S
C106 C105 1.398 . S
C106 C109 1.372 . S
C106 H116 0.931 . S
C107 C104 1.382 . S
C107 C109 1.390 . S
C107 H117 0.931 . S
C108 C104 1.390 . S
C108 C105 1.392 . S
C108 H118 0.930 . S
C109 C106 1.372 . S
C109 C107 1.390 . S
C109 H119 0.929 . S
C110 O90 1.255 . S
C110 O91 1.257 . S
C111 Eu47 2.787 . S
C111 O86 1.252 . S
C111 O89 1.268 . S
C111 C104 1.506 . S
H112 C95 0.931 . S
H113 C96 0.931 . S
H114 C97 0.929 . S
H115 C98 0.930 . S
H116 C106 0.931 . S
H117 C107 0.931 . S
H118 C108 0.930 . S
H119 C109 0.929 . S
Eu120 N149 2.600 . S
Eu120 N155 2.562 1_556 S
Eu120 O164 2.462 . S
Eu120 O165 2.373 1_556 S
Eu120 O167 2.432 . S
Eu120 O168 2.291 1_556 S
Eu120 O172 2.335 . S
Eu120 O175 2.372 1_556 S
Eu120 C184 2.787 . S
C121 N122 1.365 . S
C121 C124 1.405 . S
C121 C128 1.448 . S
N122 C121 1.365 . S
N122 C125 1.319 . S
N122 Eu131 2.600 . S
C123 C125 1.397 . S
C123 C126 1.367 . S
C123 H143 0.931 . S
C124 C121 1.405 . S
C124 C126 1.403 . S
C124 C130 1.439 . S
C125 N122 1.319 . S
C125 C123 1.397 . S
C125 H136 0.930 . S
C126 C123 1.367 . S
C126 C124 1.403 . S
C126 H147 0.929 . S
C127 C128 1.430 . S
C127 C129 1.387 . S
C127 C133 1.404 . S
C128 C121 1.448 . S
C128 C127 1.430 . S
C128 N132 1.351 . S
C129 C127 1.387 . S
C129 C130 1.374 . S
C129 H144 0.931 . S
C130 C124 1.439 . S
C130 C129 1.374 . S
C130 H145 0.931 . S
Eu131 N122 2.600 . S
Eu131 N132 2.562 . S
Eu131 O166 2.335 . S
Eu131 O169 2.372 . S
Eu131 O170 2.462 . S
Eu131 O171 2.373 . S
Eu131 O173 2.432 . S
Eu131 O174 2.291 . S
Eu131 C195 2.787 . S
N132 C128 1.351 . S
N132 Eu131 2.562 . S
N132 C134 1.325 . S
C133 C127 1.404 . S
C133 C135 1.366 . S
C133 H141 0.930 . S
C134 N132 1.325 . S
C134 C135 1.416 . S
C134 H140 0.929 . S
C135 C133 1.366 . S
C135 C134 1.416 . S
C135 H137 0.930 . S
H136 C125 0.930 . S
H137 C135 0.930 . S
H138 C153 0.930 . S
H139 C160 0.930 . S
H140 C134 0.929 . S
H141 C133 0.930 . S
H142 C156 0.929 . S
H143 C123 0.931 . S
H144 C129 0.931 . S
H145 C130 0.931 . S
H146 C151 0.931 . S
H147 C126 0.929 . S
H148 C159 0.930 . S
N149 Eu120 2.600 . S
N149 C150 1.366 1_556 S
N149 C153 1.319 . S
C150 N149 1.366 1_554 S
C150 C152 1.405 . S
C150 C158 1.448 . S
C151 H146 0.931 . S
C151 C153 1.397 . S
C151 C154 1.367 1_556 S
C152 C150 1.405 . S
C152 C154 1.403 . S
C152 C185 1.439 . S
C153 H138 0.930 . S
C153 N149 1.319 . S
C153 C151 1.397 . S
C154 C151 1.367 1_554 S
C154 C152 1.403 . S
C154 H161 0.929 . S
N155 Eu120 2.562 1_554 S
N155 C156 1.325 . S
N155 C158 1.351 . S
C156 H142 0.929 . S
C156 N155 1.325 . S
C156 C160 1.416 . S
C157 C158 1.430 . S
C157 C159 1.404 . S
C157 C186 1.387 . S
C158 C150 1.448 . S
C158 N155 1.351 . S
C158 C157 1.430 . S
C159 H148 0.930 . S
C159 C157 1.404 . S
C159 C160 1.366 . S
C160 H139 0.930 . S
C160 C156 1.416 . S
C160 C159 1.366 . S
H161 C154 0.929 . S
H162 C185 0.931 . S
H163 C186 0.931 . S
O164 Eu120 2.462 . S
O164 C184 1.252 . S
O165 Eu120 2.373 1_554 S
O165 C176 1.249 . S
O166 Eu131 2.335 . S
O166 C176 1.264 . S
O167 Eu120 2.432 . S
O167 C184 1.268 . S
O168 Eu120 2.291 1_554 S
O168 C183 1.255 . S
O169 Eu131 2.372 . S
O169 C183 1.257 . S
O170 Eu131 2.462 . S
O170 C195 1.252 . S
O171 Eu131 2.373 . S
O171 C187 1.249 1_554 S
O172 Eu120 2.335 . S
O172 C187 1.264 . S
O173 Eu131 2.432 . S
O173 C195 1.268 . S
O174 Eu131 2.291 . S
O174 C194 1.255 . S
O175 Eu120 2.372 1_554 S
O175 C194 1.257 . S
C176 O165 1.249 . S
C176 O166 1.264 . S
C177 C180 1.382 . S
C177 C182 1.390 . S
C177 C184 1.506 . S
C178 C179 1.398 . S
C178 C182 1.392 . S
C179 C178 1.398 . S
C179 C181 1.372 . S
C179 H196 0.931 . S
C180 C177 1.382 . S
C180 C181 1.390 . S
C180 H197 0.931 . S
C181 C179 1.372 . S
C181 C180 1.390 . S
C181 H198 0.929 . S
C182 C177 1.390 . S
C182 C178 1.392 . S
C182 H199 0.930 . S
C183 O168 1.255 . S
C183 O169 1.257 . S
C184 Eu120 2.787 . S
C184 O164 1.252 . S
C184 O167 1.268 . S
C184 C177 1.506 . S
C185 C152 1.439 . S
C185 H162 0.931 . S
C185 C186 1.374 . S
C186 C157 1.387 . S
C186 H163 0.931 . S
C186 C185 1.374 . S
C187 O171 1.249 1_556 S
C187 O172 1.264 . S
C188 C191 1.382 . S
C188 C192 1.390 . S
C188 C195 1.506 . S
C189 C190 1.398 . S
C189 C192 1.392 . S
C190 C189 1.398 . S
C190 C193 1.372 . S
C190 H200 0.931 . S
C191 C188 1.382 . S
C191 C193 1.390 . S
C191 H201 0.931 . S
C192 C188 1.390 . S
C192 C189 1.392 . S
C192 H202 0.930 . S
C193 C190 1.372 . S
C193 C191 1.390 . S
C193 H203 0.929 . S
C194 O174 1.255 . S
C194 O175 1.257 . S
C195 Eu131 2.787 . S
C195 O170 1.252 . S
C195 O173 1.268 . S
C195 C188 1.506 . S
H196 C179 0.931 . S
H197 C180 0.931 . S
H198 C181 0.929 . S
H199 C182 0.930 . S
H200 C190 0.931 . S
H201 C191 0.931 . S
H202 C192 0.930 . S
H203 C193 0.929 . S
H204 C210 0.930 . S
H205 C214 0.930 . S
H206 C219 0.929 . S
H207 C217 0.929 . S
H208 C212 0.929 . S
H209 C218 0.929 . S
C210 H204 0.930 . S
C210 C211 1.367 . S
C210 C218 1.378 . S
C211 C210 1.367 . S
C211 C219 1.433 . S
C212 H208 0.929 . S
C212 C214 1.378 . S
C212 C216 1.350 . S
C213 C216 1.463 . S
C213 C218 1.350 . S
C213 N221 1.427 . S
C214 H205 0.930 . S
C214 C212 1.378 . S
C214 C215 1.367 . S
C215 C214 1.367 . S
C215 C217 1.433 . S
C216 C212 1.350 . S
C216 C213 1.463 . S
C216 N220 1.427 . S
C217 H207 0.929 . S
C217 C215 1.433 . S
C217 N220 1.384 . S
C218 H209 0.929 . S
C218 C210 1.378 . S
C218 C213 1.350 . S
C219 H206 0.929 . S
C219 C211 1.433 . S
C219 N221 1.384 . S
N220 C216 1.427 . S
N220 C217 1.384 . S
N221 C213 1.427 . S
N221 C219 1.384 . S
H222 C228 0.930 . S
H223 C232 0.930 . S
H224 C237 0.929 . S
H225 C235 0.929 . S
H226 C230 0.929 . S
H227 C236 0.929 . S
C228 H222 0.930 . S
C228 C229 1.367 1_556 S
C228 C236 1.378 . S
C229 C228 1.367 1_554 S
C229 C237 1.433 . S
C230 H226 0.929 . S
C230 C232 1.378 . S
C230 C234 1.350 . S
C231 C234 1.463 . S
C231 C236 1.350 1_554 S
C231 N239 1.427 . S
C232 H223 0.930 . S
C232 C230 1.378 . S
C232 C233 1.367 . S
C233 C232 1.367 . S
C233 C235 1.433 1_554 S
C234 C230 1.350 . S
C234 C231 1.463 . S
C234 N238 1.427 1_554 S
C235 H225 0.929 . S
C235 C233 1.433 1_556 S
C235 N238 1.384 . S
C236 H227 0.929 . S
C236 C228 1.378 . S
C236 C231 1.350 1_556 S
C237 H224 0.929 . S
C237 C229 1.433 . S
C237 N239 1.384 . S
N238 C234 1.427 1_556 S
N238 C235 1.384 . S
N239 C231 1.427 . S
N239 C237 1.384 . S
H240 C246 0.930 . S
H241 C250 0.930 . S
H242 C255 0.929 . S
H243 C253 0.929 . S
H244 C248 0.929 . S
H245 C254 0.929 . S
C246 H240 0.930 . S
C246 C247 1.367 . S
C246 C254 1.378 . S
C247 C246 1.367 . S
C247 C255 1.433 . S
C248 H244 0.929 . S
C248 C250 1.378 . S
C248 C252 1.350 . S
C249 C252 1.463 . S
C249 C254 1.350 . S
C249 N257 1.427 . S
C250 H241 0.930 . S
C250 C248 1.378 . S
C250 C251 1.367 . S
C251 C250 1.367 . S
C251 C253 1.433 . S
C252 C248 1.350 . S
C252 C249 1.463 . S
C252 N256 1.427 . S
C253 H243 0.929 . S
C253 C251 1.433 . S
C253 N256 1.384 . S
C254 H245 0.929 . S
C254 C246 1.378 . S
C254 C249 1.350 . S
C255 H242 0.929 . S
C255 C247 1.433 . S
C255 N257 1.384 . S
N256 C252 1.427 . S
N256 C253 1.384 . S
N257 C249 1.427 . S
N257 C255 1.384 . S
H258 C264 0.930 . S
H259 C268 0.930 1_556 S
H260 C273 0.929 1_556 S
H261 C271 0.929 . S
H262 C266 0.929 1_556 S
H263 C272 0.929 . S
C264 H258 0.930 . S
C264 C265 1.367 . S
C264 C272 1.378 . S
C265 C264 1.367 . S
C265 C273 1.433 . S
C266 H262 0.929 1_554 S
C266 C268 1.378 . S
C266 C270 1.350 . S
C267 C270 1.463 . S
C267 C272 1.350 . S
C267 N275 1.427 . S
C268 H259 0.930 1_554 S
C268 C266 1.378 . S
C268 C269 1.367 . S
C269 C268 1.367 . S
C269 C271 1.433 . S
C270 C266 1.350 . S
C270 C267 1.463 . S
C270 N274 1.427 . S
C271 H261 0.929 . S
C271 C269 1.433 . S
C271 N274 1.384 . S
C272 H263 0.929 . S
C272 C264 1.378 . S
C272 C267 1.350 . S
C273 H260 0.929 1_554 S
C273 C265 1.433 . S
C273 N275 1.384 . S
N274 C270 1.427 . S
N274 C271 1.384 . S
N275 C267 1.427 . S
N275 C273 1.384 . S
H276 C282 0.930 . S
H277 C286 0.930 . S
H278 C291 0.929 . S
H279 C289 0.929 . S
H280 C284 0.929 . S
H281 C290 0.929 . S
C282 H276 0.930 . S
C282 C283 1.367 . S
C282 C290 1.378 . S
C283 C282 1.367 . S
C283 C291 1.433 . S
C284 H280 0.929 . S
C284 C286 1.378 . S
C284 C288 1.350 . S
C285 C288 1.463 . S
C285 C290 1.350 . S
C285 N293 1.427 . S
C286 H277 0.930 . S
C286 C284 1.378 . S
C286 C287 1.367 . S
C287 C286 1.367 . S
C287 C289 1.433 . S
C288 C284 1.350 . S
C288 C285 1.463 . S
C288 N292 1.427 . S
C289 H279 0.929 . S
C289 C287 1.433 . S
C289 N292 1.384 . S
C290 H281 0.929 . S
C290 C282 1.378 . S
C290 C285 1.350 . S
C291 H278 0.929 . S
C291 C283 1.433 . S
C291 N293 1.384 . S
N292 C288 1.427 . S
N292 C289 1.384 . S
N293 C285 1.427 . S
N293 C291 1.384 . S
H294 C300 0.930 . S
H295 C304 0.930 . S
H296 C309 0.929 . S
H297 C307 0.929 . S
H298 C302 0.929 . S
H299 C308 0.929 . S
C300 H294 0.930 . S
C300 C301 1.367 . S
C300 C308 1.378 . S
C301 C300 1.367 . S
C301 C309 1.433 . S
C302 H298 0.929 . S
C302 C304 1.378 . S
C302 C306 1.350 . S
C303 C306 1.463 . S
C303 C308 1.350 . S
C303 N311 1.427 . S
C304 H295 0.930 . S
C304 C302 1.378 . S
C304 C305 1.367 . S
C305 C304 1.367 . S
C305 C307 1.433 . S
C306 C302 1.350 . S
C306 C303 1.463 . S
C306 N310 1.427 . S
C307 H297 0.929 . S
C307 C305 1.433 . S
C307 N310 1.384 . S
C308 H299 0.929 . S
C308 C300 1.378 . S
C308 C303 1.350 . S
C309 H296 0.929 . S
C309 C301 1.433 . S
C309 N311 1.384 . S
N310 C306 1.427 . S
N310 C307 1.384 . S
N311 C303 1.427 . S
N311 C309 1.384 . S
H312 C318 0.930 . S
H313 C322 0.930 1_565 S
H314 C327 0.929 . S
H315 C325 0.929 . S
H316 C320 0.929 . S
H317 C326 0.929 . S
C318 H312 0.930 . S
C318 C319 1.367 . S
C318 C326 1.378 . S
C319 C318 1.367 . S
C319 C327 1.433 . S
C320 H316 0.929 . S
C320 C322 1.378 . S
C320 C324 1.350 . S
C321 C324 1.463 . S
C321 C326 1.350 . S
C321 N329 1.427 . S
C322 H313 0.930 1_545 S
C322 C320 1.378 . S
C322 C323 1.367 . S
C323 C322 1.367 . S
C323 C325 1.433 . S
C324 C320 1.350 . S
C324 C321 1.463 . S
C324 N328 1.427 . S
C325 H315 0.929 . S
C325 C323 1.433 . S
C325 N328 1.384 . S
C326 H317 0.929 . S
C326 C318 1.378 . S
C326 C321 1.350 . S
C327 H314 0.929 . S
C327 C319 1.433 . S
C327 N329 1.384 . S
N328 C324 1.427 . S
N328 C325 1.384 . S
N329 C321 1.427 . S
N329 C327 1.384 . S
H330 C336 0.930 . S
H331 C340 0.930 . S
H332 C345 0.929 . S
H333 C343 0.929 . S
H334 C338 0.929 . S
H335 C344 0.929 . S
C336 H330 0.930 . S
C336 C337 1.367 . S
C336 C344 1.378 . S
C337 C336 1.367 . S
C337 C345 1.433 . S
C338 H334 0.929 . S
C338 C340 1.378 . S
C338 C342 1.350 . S
C339 C342 1.463 . S
C339 C344 1.350 . S
C339 N347 1.427 . S
C340 H331 0.930 . S
C340 C338 1.378 . S
C340 C341 1.367 . S
C341 C340 1.367 . S
C341 C343 1.433 . S
C342 C338 1.350 . S
C342 C339 1.463 . S
C342 N346 1.427 . S
C343 H333 0.929 . S
C343 C341 1.433 . S
C343 N346 1.384 . S
C344 H335 0.929 . S
C344 C336 1.378 . S
C344 C339 1.350 . S
C345 H332 0.929 . S
C345 C337 1.433 . S
C345 N347 1.384 . S
N346 C342 1.427 . S
N346 C343 1.384 . S
N347 C339 1.427 . S
N347 C345 1.384 . S
H348 C354 0.930 . S
H349 C358 0.930 . S
H350 C363 0.929 . S
H351 C361 0.929 . S
H352 C356 0.929 . S
H353 C362 0.929 . S
C354 H348 0.930 . S
C354 C355 1.367 . S
C354 C362 1.378 . S
C355 C354 1.367 . S
C355 C363 1.433 . S
C356 H352 0.929 . S
C356 C358 1.378 . S
C356 C360 1.350 . S
C357 C360 1.463 . S
C357 C362 1.350 . S
C357 N365 1.427 . S
C358 H349 0.930 . S
C358 C356 1.378 . S
C358 C359 1.367 . S
C359 C358 1.367 . S
C359 C361 1.433 . S
C360 C356 1.350 . S
C360 C357 1.463 . S
C360 N364 1.427 . S
C361 H351 0.929 . S
C361 C359 1.433 . S
C361 N364 1.384 . S
C362 H353 0.929 . S
C362 C354 1.378 . S
C362 C357 1.350 . S
C363 H350 0.929 . S
C363 C355 1.433 . S
C363 N365 1.384 . S
N364 C360 1.427 . S
N364 C361 1.384 . S
N365 C357 1.427 . S
N365 C363 1.384 . S
H366 C372 0.930 . S
H367 C376 0.956 . S
H368 C381 0.929 . S
H369 C379 0.929 . S
H370 C374 0.929 . S
H371 C380 0.929 . S
C372 H366 0.930 . S
C372 C373 1.367 . S
C372 C380 1.378 . S
C373 C372 1.367 . S
C373 C381 1.433 . S
C374 H370 0.929 . S
C374 C376 1.378 . S
C374 C378 1.350 . S
C375 C378 1.463 . S
C375 C380 1.350 . S
C375 N383 1.427 . S
C376 H367 0.956 . S
C376 C374 1.378 . S
C376 C377 1.367 . S
C377 C376 1.367 . S
C377 C379 1.433 . S
C378 C374 1.350 . S
C378 C375 1.463 . S
C378 N382 1.427 . S
C379 H369 0.929 . S
C379 C377 1.433 . S
C379 N382 1.384 . S
C380 H371 0.929 . S
C380 C372 1.378 . S
C380 C375 1.350 . S
C381 H368 0.929 . S
C381 C373 1.433 . S
C381 N383 1.384 . S
N382 C378 1.427 . S
N382 C379 1.384 . S
N383 C375 1.427 . S
N383 C381 1.384 . S
H384 C390 0.930 . S
H385 C394 0.930 . S
H386 C399 0.929 . S
H387 C397 0.929 . S
H388 C392 0.929 . S
H389 C398 0.929 . S
C390 H384 0.930 . S
C390 C391 1.367 . S
C390 C398 1.378 . S
C391 C390 1.367 . S
C391 C399 1.433 . S
C392 H388 0.929 . S
C392 C394 1.378 . S
C392 C396 1.350 . S
C393 C396 1.463 . S
C393 C398 1.350 . S
C393 N401 1.427 . S
C394 H385 0.930 . S
C394 C392 1.378 . S
C394 C395 1.367 . S
C395 C394 1.367 . S
C395 C397 1.433 . S
C396 C392 1.350 . S
C396 C393 1.463 . S
C396 N400 1.427 . S
C397 H387 0.929 . S
C397 C395 1.433 . S
C397 N400 1.384 . S
C398 H389 0.929 . S
C398 C390 1.378 . S
C398 C393 1.350 . S
C399 H386 0.929 . S
C399 C391 1.433 . S
C399 N401 1.384 . S
N400 C396 1.427 . S
N400 C397 1.384 . S
N401 C393 1.427 . S
N401 C399 1.384 . S
H402 C408 0.930 . S
H403 C412 0.930 . S
H404 C417 0.929 . S
H405 C415 0.929 . S
H406 C410 0.929 . S
H407 C416 0.929 . S
C408 H402 0.930 . S
C408 C409 1.367 . S
C408 C416 1.378 . S
C409 C408 1.367 . S
C409 C417 1.433 . S
C410 H406 0.929 . S
C410 C412 1.378 . S
C410 C414 1.350 . S
C411 C414 1.463 . S
C411 C416 1.350 . S
C411 N419 1.427 . S
C412 H403 0.930 . S
C412 C410 1.378 . S
C412 C413 1.367 . S
C413 C412 1.367 . S
C413 C415 1.433 . S
C414 C410 1.350 . S
C414 C411 1.463 . S
C414 N418 1.427 . S
C415 H405 0.929 . S
C415 C413 1.433 . S
C415 N418 1.384 . S
C416 H407 0.929 . S
C416 C408 1.378 . S
C416 C411 1.350 . S
C417 H404 0.929 . S
C417 C409 1.433 . S
C417 N419 1.384 . S
N418 C414 1.427 . S
N418 C415 1.384 . S
N419 C411 1.427 . S
N419 C417 1.384 . S
C215 C99 1.553 . S
C211 C34 1.567 . S
C229 C7 1.549 . S
C233 C194 1.541 . S
C247 C16 1.568 . S
C251 C110 1.553 . S
C265 C25 1.545 . S
C269 C183 1.540 . S
C287 C94 1.365 . S
C283 C5 1.528 . S
C305 C187 1.565 . S
C301 C13 1.562 . S
C319 C23 1.539 . S
C323 C103 1.551 . S
C337 C32 1.519 . S
C341 C178 1.379 . S
C359 C189 1.358 . S
C355 C14 1.517 . S
C377 C105 1.377 . S
C373 C22 1.523 1_556 S
C395 C176 1.564 . S
C391 C31 1.558 . S
C409 C4 1.539 . S
C413 C92 1.548 . S
