# Generated by pormake.
# Topology zzz, (3,6)-cn, num edge types: 1
# Building blocks:
#     Node 0, Type 0, BuildingBlock: KAKCAD_clean_linker_0, # of connection points: 3
#     Node 1, Type 0, BuildingBlock: KAKCAD_clean_linker_0, # of connection points: 3
#     Node 2, Type 0, BuildingBlock: KAKCAD_clean_linker_0, # of connection points: 3
#     Node 3, Type 0, BuildingBlock: KAKCAD_clean_linker_0, # of connection points: 3
#     Node 4, Type 0, BuildingBlock: KAKCAD_clean_linker_0, # of connection points: 3
#     Node 5, Type 0, BuildingBlock: KAKCAD_clean_linker_0, # of connection points: 3
#     Node 6, Type 0, BuildingBlock: KAKCAD_clean_linker_0, # of connection points: 3
#     Node 7, Type 0, BuildingBlock: KAKCAD_clean_linker_0, # of connection points: 3
#     Node 8, Type 1, BuildingBlock: HISSIN_clean_sbu_0, # of connection points: 6
#     Node 9, Type 1, BuildingBlock: HISSIN_clean_sbu_0, # of connection points: 6
#     Node 10, Type 1, BuildingBlock: HISSIN_clean_sbu_0, # of connection points: 6
#     Node 11, Type 1, BuildingBlock: HISSIN_clean_sbu_0, # of connection points: 6
#     Edge 12, Type (0, 1), BuildingBlock: MIFKUJ_clean_linker_0, # of connection points: 2
#     Edge 13, Type (0, 1), BuildingBlock: MIFKUJ_clean_linker_0, # of connection points: 2
#     Edge 14, Type (0, 1), BuildingBlock: MIFKUJ_clean_linker_0, # of connection points: 2
#     Edge 15, Type (0, 1), BuildingBlock: MIFKUJ_clean_linker_0, # of connection points: 2
#     Edge 16, Type (0, 1), BuildingBlock: MIFKUJ_clean_linker_0, # of connection points: 2
#     Edge 17, Type (0, 1), BuildingBlock: MIFKUJ_clean_linker_0, # of connection points: 2
#     Edge 18, Type (0, 1), BuildingBlock: MIFKUJ_clean_linker_0, # of connection points: 2
#     Edge 19, Type (0, 1), BuildingBlock: MIFKUJ_clean_linker_0, # of connection points: 2
#     Edge 20, Type (0, 1), BuildingBlock: MIFKUJ_clean_linker_0, # of connection points: 2
#     Edge 21, Type (0, 1), BuildingBlock: MIFKUJ_clean_linker_0, # of connection points: 2
#     Edge 22, Type (0, 1), BuildingBlock: MIFKUJ_clean_linker_0, # of connection points: 2
#     Edge 23, Type (0, 1), BuildingBlock: MIFKUJ_clean_linker_0, # of connection points: 2
#     Edge 24, Type (0, 1), BuildingBlock: MIFKUJ_clean_linker_0, # of connection points: 2
#     Edge 25, Type (0, 1), BuildingBlock: MIFKUJ_clean_linker_0, # of connection points: 2
#     Edge 26, Type (0, 1), BuildingBlock: MIFKUJ_clean_linker_0, # of connection points: 2
#     Edge 27, Type (0, 1), BuildingBlock: MIFKUJ_clean_linker_0, # of connection points: 2
#     Edge 28, Type (0, 1), BuildingBlock: MIFKUJ_clean_linker_0, # of connection points: 2
#     Edge 29, Type (0, 1), BuildingBlock: MIFKUJ_clean_linker_0, # of connection points: 2
#     Edge 30, Type (0, 1), BuildingBlock: MIFKUJ_clean_linker_0, # of connection points: 2
#     Edge 31, Type (0, 1), BuildingBlock: MIFKUJ_clean_linker_0, # of connection points: 2
#     Edge 32, Type (0, 1), BuildingBlock: MIFKUJ_clean_linker_0, # of connection points: 2
#     Edge 33, Type (0, 1), BuildingBlock: MIFKUJ_clean_linker_0, # of connection points: 2
#     Edge 34, Type (0, 1), BuildingBlock: MIFKUJ_clean_linker_0, # of connection points: 2
#     Edge 35, Type (0, 1), BuildingBlock: MIFKUJ_clean_linker_0, # of connection points: 2
# Relax obj value: 0.354
# Max RMSD: 0.209
# Mean RMSD: 0.187
data_MOF--net-zzz--node1-HISSIN_clean_sbu_0--node2-KAKCAD_clean_linker_0--edge1-MIFKUJ_clean_linker_0
_symmetry_space_group_name_H-M    P1
_symmetry_Int_Tables_number       1
_symmetry_cell_setting            triclinic
loop_
_symmetry_equiv_pos_as_xyz
'x, y, z'
_cell_length_a     70.172004
_cell_length_b     70.803678
_cell_length_c     26.926157
_cell_angle_alpha  89.447409
_cell_angle_beta   92.104512
_cell_angle_gamma 91.752076
loop_
_atom_site_label
_atom_site_type_symbol
_atom_site_fract_x
_atom_site_fract_y
_atom_site_fract_z
_atom_type_partial_charge
C0 C 0.77773 0.58686 0.03315 0.0
C1 C 0.79603 0.57934 0.03567 0.0
C2 C 0.76622 0.58588 0.07455 0.0
C3 C 0.77268 0.57703 0.11888 0.0
C4 C 0.79123 0.56999 0.12138 0.0
C5 C 0.80277 0.57126 0.08048 0.0
C6 C 0.75983 0.57367 0.1611 0.0
C7 C 0.74049 0.56882 0.15232 0.0
C8 C 0.72887 0.56313 0.19137 0.0
C9 C 0.73679 0.56183 0.24015 0.0
C10 C 0.75611 0.56716 0.24964 0.0
C11 C 0.76726 0.57343 0.21017 0.0
C12 C 0.76591 0.56492 0.29902 0.0
C13 C 0.77584 0.58051 0.32049 0.0
C14 C 0.76935 0.54677 0.3182 0.0
C15 C 0.78368 0.54413 0.35519 0.0
C16 C 0.7948 0.55962 0.37355 0.0
C17 C 0.70874 0.55791 0.17854 0.0
C18 C 0.69545 0.57219 0.1713 0.0
C19 C 0.70406 0.53966 0.16136 0.0
C20 C 0.68685 0.53601 0.13465 0.0
C21 C 0.67405 0.5506 0.12433 0.0
C22 C 0.67821 0.56855 0.14474 0.0
C23 C 0.79005 0.5779 0.35745 0.0
H24 H 0.77223 0.59318 0.99895 0.0
H25 H 0.75215 0.59173 0.07146 0.0
H26 H 0.79661 0.56263 0.15416 0.0
H27 H 0.81666 0.56496 0.08317 0.0
H28 H 0.73449 0.56867 0.11464 0.0
H29 H 0.78213 0.57739 0.21767 0.0
H30 H 0.72808 0.55677 0.27019 0.0
H31 H 0.77353 0.59463 0.30609 0.0
H32 H 0.76213 0.53451 0.30165 0.0
H33 H 0.78698 0.52986 0.36655 0.0
H34 H 0.69901 0.58649 0.18314 0.0
H35 H 0.71428 0.52854 0.16562 0.0
H36 H 0.79805 0.59017 0.3715 0.0
H37 H 0.6688 0.58015 0.13715 0.0
H38 H 0.68399 0.52197 0.12003 0.0
C39 C 0.93502 0.77397 1.00143 0.0
C40 C 0.93708 0.79371 0.9995 0.0
C41 C 0.94144 0.764 0.04364 0.0
C42 C 0.95068 0.7736 0.08389 0.0
C43 C 0.9517 0.79348 0.08252 0.0
C44 C 0.94477 0.80339 0.04112 0.0
C45 C 0.96102 0.76311 0.12444 0.0
C46 C 0.97016 0.74634 0.11414 0.0
C47 C 0.98188 0.73749 0.15001 0.0
C48 C 0.98503 0.74587 0.19718 0.0
C49 C 0.97579 0.76274 0.20848 0.0
C50 C 0.96352 0.7708 0.17216 0.0
C51 C 0.97954 0.77339 0.25578 0.0
C52 C 0.96432 0.78171 0.27919 0.0
C53 C 0.99824 0.77826 0.27253 0.0
C54 C 1.0016 0.79214 0.30917 0.0
C55 C 0.98633 0.80161 0.32974 0.0
C56 C 0.99083 0.71979 0.13494 0.0
C57 C 0.98126 0.70234 0.14244 0.0
C58 C 1.00554 0.72083 0.10094 0.0
C59 C 0.00977 0.70508 0.07268 0.0
C60 C 0.99929 0.68791 0.07742 0.0
C61 C 0.98551 0.68653 0.11419 0.0
C62 C 0.96763 0.79568 0.31511 0.0
H63 H 0.92918 0.76623 0.96955 0.0
H64 H 0.93988 0.74875 0.04372 0.0
H65 H 0.959 0.80153 0.11181 0.0
H66 H 0.94689 0.81862 0.04009 0.0
H67 H 0.96879 0.74032 0.07729 0.0
H68 H 0.95645 0.7837 0.18059 0.0
H69 H 0.99456 0.73942 0.22451 0.0
H70 H 0.94971 0.77819 0.26752 0.0
H71 H 0.01031 0.7722 0.25522 0.0
H72 H 0.01622 0.79583 0.32015 0.0
H73 H 0.96949 0.70131 0.16734 0.0
H74 H 0.01282 0.73423 0.09363 0.0
H75 H 0.95538 0.80252 0.32916 0.0
H76 H 0.97704 0.67363 0.11873 0.0
H77 H 0.0207 0.70661 0.04543 0.0
C78 C 0.7474 0.92572 0.02226 0.0
C79 C 0.72801 0.92963 0.01418 0.0
C80 C 0.75779 0.93371 0.06264 0.0
C81 C 0.74901 0.94593 0.09525 0.0
C82 C 0.72923 0.94825 0.08968 0.0
C83 C 0.71888 0.94014 0.04991 0.0
C84 C 0.76052 0.95854 0.12953 0.0
C85 C 0.77767 0.96691 0.11386 0.0
C86 C 0.78696 0.98159 0.14069 0.0
C87 C 0.77871 0.98828 0.18413 0.0
C88 C 0.76156 0.97974 0.2008 0.0
C89 C 0.75302 0.96462 0.17406 0.0
C90 C 0.75057 0.98737 0.24196 0.0
C91 C 0.74905 0.97714 0.28671 0.0
C92 C 0.7377 1.00183 0.23164 0.0
C93 C 0.72298 0.00529 0.26398 0.0
C94 C 0.72084 0.99444 0.30766 0.0
C95 C 0.80455 0.9901 0.11942 0.0
C96 C 0.82262 0.98472 0.13756 0.0
C97 C 0.80319 0.99973 0.0736 0.0
C98 C 0.81935 1.0031 0.04534 0.0
C99 C 0.83735 0.99677 0.06192 0.0
C100 C 0.83884 0.98803 0.10919 0.0
C101 C 0.7345 0.98078 0.31951 0.0
H102 H 0.7548 0.91751 0.9957 0.0
H103 H 0.77292 0.93122 0.06656 0.0
H104 H 0.72191 0.95773 0.11328 0.0
H105 H 0.70407 0.94381 0.04468 0.0
H106 H 0.78346 0.9627 0.079 0.0
H107 H 0.73977 0.95829 0.1867 0.0
H108 H 0.78527 1.00019 0.2039 0.0
H109 H 0.75842 0.96554 0.29486 0.0
H110 H 0.73821 0.00958 0.19678 0.0
H111 H 0.71282 0.01601 0.25388 0.0
H112 H 0.82401 0.97688 0.17219 0.0
H113 H 0.78936 1.0036 0.05814 0.0
H114 H 0.73322 0.97206 0.35255 0.0
H115 H 0.85246 0.98318 0.12361 0.0
H116 H 0.81746 0.00964 0.00905 0.0
C117 C 0.49655 0.73495 0.33635 0.0
C118 C 0.5131 0.72419 0.33711 0.0
C119 C 0.49351 0.74881 0.29981 0.0
C120 C 0.50702 0.75245 0.26345 0.0
C121 C 0.52427 0.74289 0.26651 0.0
C122 C 0.52729 0.72888 0.30299 0.0
C123 C 0.50117 0.76248 0.21693 0.0
C124 C 0.5113 0.77843 0.19838 0.0
C125 C 0.50591 0.78619 0.15165 0.0
C126 C 0.49079 0.77772 0.1236 0.0
C127 C 0.48096 0.76165 0.14108 0.0
C128 C 0.48591 0.75446 0.18831 0.0
C129 C 0.46767 0.75087 0.10698 0.0
C130 C 0.45506 0.76017 0.07374 0.0
C131 C 0.46932 0.73121 0.1033 0.0
C132 C 0.45966 0.7213 0.06523 0.0
C133 C 0.44817 0.73079 0.02996 0.0
C134 C 0.51626 0.80235 0.12855 0.0
C135 C 0.51204 0.82095 0.14083 0.0
C136 C 0.52651 0.79921 0.08573 0.0
C137 C 0.53125 0.81418 0.05385 0.0
C138 C 0.52579 0.83266 0.06396 0.0
C139 C 0.51685 0.83602 0.10891 0.0
C140 C 0.44531 0.75017 0.03552 0.0
H141 H 0.48552 0.73209 0.36273 0.0
H142 H 0.48003 0.75591 0.29809 0.0
H143 H 0.53476 0.74519 0.23837 0.0
H144 H 0.54018 0.72088 0.30225 0.0
H145 H 0.52337 0.78451 0.21956 0.0
H146 H 0.47846 0.74191 0.20192 0.0
H147 H 0.48736 0.78319 0.08668 0.0
H148 H 0.45335 0.77528 0.07604 0.0
H149 H 0.47904 0.72361 0.12782 0.0
H150 H 0.46192 0.7063 0.06188 0.0
H151 H 0.50376 0.82365 0.17305 0.0
H152 H 0.52966 0.78494 0.07514 0.0
H153 H 0.43649 0.75775 0.0087 0.0
H154 H 0.51237 0.85006 0.11767 0.0
H155 H 0.53841 0.81116 0.01998 0.0
C156 C 0.2468 0.43954 0.2432 0.0
C157 C 0.22799 0.43323 0.23166 0.0
C158 C 0.26024 0.44097 0.20636 0.0
C159 C 0.25539 0.43555 0.15723 0.0
C160 C 0.23721 0.42719 0.14714 0.0
C161 C 0.2236 0.42625 0.18373 0.0
C162 C 0.26832 0.44069 0.11614 0.0
C163 C 0.28818 0.44165 0.12436 0.0
C164 C 0.30027 0.44954 0.08865 0.0
C165 C 0.29234 0.45588 0.04273 0.0
C166 C 0.2725 0.45394 0.03295 0.0
C167 C 0.26072 0.44664 0.06988 0.0
C168 C 0.2631 0.45969 0.98532 0.0
C169 C 0.25692 0.47825 0.97881 0.0
C170 C 0.25587 0.44563 0.95279 0.0
C171 C 0.24181 0.44975 0.91644 0.0
C172 C 0.23453 0.46802 0.9121 0.0
C173 C 0.32082 0.45215 0.10291 0.0
C174 C 0.32913 0.47039 0.10726 0.0
C175 C 0.33089 0.43675 0.12248 0.0
C176 C 0.3481 0.43964 0.14949 0.0
C177 C 0.35564 0.45802 0.15779 0.0
C178 C 0.34641 0.47331 0.13448 0.0
C179 C 0.24282 0.48241 0.94236 0.0
H180 H 0.25089 0.44449 0.28012 0.0
H181 H 0.274 0.44751 0.21604 0.0
H182 H 0.23312 0.42223 0.11025 0.0
H183 H 0.2093 0.42124 0.17327 0.0
H184 H 0.29433 0.43691 0.15965 0.0
H185 H 0.24541 0.44638 0.06278 0.0
H186 H 0.30147 0.46208 0.01496 0.0
H187 H 0.26192 0.48921 1.00435 0.0
H188 H 0.26016 0.43114 0.95778 0.0
H189 H 0.23599 0.43839 0.89327 0.0
H190 H 0.32154 0.48252 0.09311 0.0
H191 H 0.32479 0.42254 0.11962 0.0
H192 H 0.23747 0.49659 0.94036 0.0
H193 H 0.35179 0.48765 0.14023 0.0
H194 H 0.35504 0.42752 0.16601 0.0
C195 C 0.08816 0.23927 0.22026 0.0
C196 C 0.09956 0.22634 0.19663 0.0
C197 C 0.0796 0.25381 0.19325 0.0
C198 C 0.08234 0.25585 0.14201 0.0
C199 C 0.09545 0.24423 0.11965 0.0
C200 C 0.10391 0.22954 0.14667 0.0
C201 C 0.06917 0.26765 0.1113 0.0
C202 C 0.0624 0.28453 0.12974 0.0
C203 C 0.04701 0.29366 0.10606 0.0
C204 C 0.03858 0.28593 0.06186 0.0
C205 C 0.04575 0.26923 0.04207 0.0
C206 C 0.06102 0.26042 0.06691 0.0
C207 C 0.03673 0.25898 0.99894 0.0
C208 C 0.02069 0.24704 1.00607 0.0
C209 C 0.04721 0.25672 0.956 0.0
C210 C 0.0425 0.2421 0.92253 0.0
C211 C 0.02735 0.22917 0.93161 0.0
C212 C 0.03938 0.31029 0.13143 0.0
C213 C 0.03369 0.30828 0.18076 0.0
C214 C 0.04073 0.32853 0.11063 0.0
C215 C 0.03738 0.34448 0.13955 0.0
C216 C 0.0325 0.34249 0.18979 0.0
C217 C 0.03028 0.3241 0.20946 0.0
C218 C 0.01606 0.23228 0.97283 0.0
H219 H 0.08431 0.23714 0.25854 0.0
H220 H 0.06949 0.26232 0.2118 0.0
H221 H 0.09822 0.24573 0.08048 0.0
H222 H 0.11286 0.21995 0.12768 0.0
H223 H 0.06871 0.29031 0.1639 0.0
H224 H 0.0656 0.247 0.0532 0.0
H225 H 0.02635 0.29247 0.04399 0.0
H226 H 0.01266 0.24814 0.03947 0.0
H227 H 0.05995 0.26539 0.95034 0.0
H228 H 0.05163 0.24011 0.89157 0.0
H229 H 0.03274 0.29439 0.19793 0.0
H230 H 0.04533 0.3305 0.07292 0.0
H231 H 1.00417 0.22275 0.98071 0.0
H232 H 0.02681 0.32186 0.24797 0.0
H233 H 0.03899 0.35838 0.12284 0.0
C234 C 0.29864 0.10134 0.22093 0.0
C235 C 0.31073 0.11253 0.19109 0.0
C236 C 0.28375 0.09042 0.1995 0.0
C237 C 0.28066 0.09033 0.14781 0.0
C238 C 0.29096 0.10331 0.11863 0.0
C239 C 0.30573 0.11452 0.14021 0.0
C240 C 0.26984 0.07423 0.12467 0.0
C241 C 0.25235 0.06792 0.14297 0.0
C242 C 0.24374 0.05057 0.12786 0.0
C243 C 0.2533 0.03928 0.09387 0.0
C244 C 0.27089 0.04579 0.07471 0.0
C245 C 0.27875 0.06328 0.08996 0.0
C246 C 0.28263 0.03461 0.04152 0.0
C247 C 0.29928 0.02648 0.06157 0.0
C248 C 0.28075 0.03703 0.98974 0.0
C249 C 0.29567 0.03243 0.95898 0.0
C250 C 0.31294 0.02561 0.97947 0.0
C251 C 0.22545 0.04454 0.1512 0.0
C252 C 0.22314 0.02673 0.17429 0.0
C253 C 0.21129 0.05792 0.15729 0.0
C254 C 0.19613 0.05425 0.18862 0.0
C255 C 0.19445 0.03697 0.21432 0.0
C256 C 0.20773 0.02295 0.20541 0.0
C257 C 0.31423 0.02204 0.031 0.0
H258 H 0.30185 0.09919 0.26015 0.0
H259 H 0.27606 0.08051 0.22294 0.0
H260 H 0.28857 0.10374 0.07867 0.0
H261 H 0.31426 0.12346 0.11625 0.0
H262 H 0.24581 0.07627 0.17089 0.0
H263 H 0.29262 0.06783 0.0769 0.0
H264 H 0.24725 0.02564 0.08278 0.0
H265 H 0.30134 0.02495 0.10148 0.0
H266 H 0.26836 0.04383 0.97347 0.0
H267 H 0.29418 0.0355 0.91957 0.0
H268 H 0.23383 0.01616 0.17075 0.0
H269 H 0.21244 0.07168 0.13951 0.0
H270 H 0.32717 0.01658 0.04809 0.0
H271 H 0.20678 0.00946 0.2246 0.0
H272 H 0.18595 0.0652 0.1938 0.0
C273 C 0.49821 0.28084 0.9368 0.0
C274 C 0.51259 0.2882 0.90615 0.0
C275 C 0.50202 0.26619 0.97099 0.0
C276 C 0.52028 0.25865 0.97522 0.0
C277 C 0.53424 0.26514 0.94253 0.0
C278 C 0.53046 0.27967 0.90842 0.0
C279 C 0.52626 0.24735 0.01957 0.0
C280 C 0.51846 0.22922 0.03043 0.0
C281 C 0.52553 0.21905 0.07226 0.0
C282 C 0.53987 0.22741 0.10334 0.0
C283 C 0.54683 0.24586 0.09477 0.0
C284 C 0.5401 0.25555 0.05231 0.0
C285 C 0.55954 0.25571 0.13249 0.0
C286 C 0.55719 0.25231 0.18352 0.0
C287 C 0.5727 0.26999 0.1183 0.0
C288 C 0.58159 0.28186 0.15385 0.0
C289 C 0.57787 0.27944 0.20452 0.0
C290 C 0.51781 0.20012 0.08714 0.0
C291 C 0.49864 0.19756 0.09957 0.0
C292 C 0.5306 0.18579 0.09951 0.0
C293 C 0.52485 0.17011 0.12767 0.0
C294 C 0.50603 0.16814 0.14387 0.0
C295 C 0.49279 0.1817 0.12755 0.0
C296 C 0.56648 0.26383 0.21904 0.0
H297 H 0.48419 0.28686 0.93562 0.0
H298 H 0.4911 0.26162 0.99625 0.0
H299 H 0.54852 0.25973 0.94552 0.0
H300 H 0.542 0.285 0.88608 0.0
H301 H 0.50738 0.22297 1.0062 0.0
H302 H 0.545 0.26996 0.04538 0.0
H303 H 0.54517 0.21962 0.13555 0.0
H304 H 0.54721 0.24154 0.19637 0.0
H305 H 0.57543 0.27265 0.0795 0.0
H306 H 0.59032 0.29367 0.14107 0.0
H307 H 0.48851 0.20846 0.09083 0.0
H308 H 0.54549 0.18743 0.09054 0.0
H309 H 0.56375 0.26116 0.25786 0.0
H310 H 0.47807 0.18052 0.13816 0.0
H311 H 0.53564 0.16027 0.13955 0.0
Eu312 Eu 1.00065 0.02226 0.59404 0.0
Eu313 Eu 0.03053 0.0057 0.67556 0.0
C314 C 0.02175 0.04974 0.67522 0.0
C315 C 0.98845 0.05435 0.49202 0.0
C316 C 0.99878 0.06944 0.51489 0.0
C317 C 1.00018 0.06479 0.41211 0.0
C318 C 0.01026 0.08156 0.48706 0.0
C319 C 0.98876 0.05248 0.44016 0.0
C320 C 0.01155 0.07894 0.43579 0.0
C321 C 0.98119 0.0386 0.52286 0.0
O322 O 1.00121 0.99684 0.70273 0.0
O323 O 0.98352 0.01944 0.66303 0.0
C324 C 0.98567 0.00681 0.69867 0.0
O325 O 0.994 0.9907 0.59387 0.0
O326 O 0.03891 0.99743 0.75143 0.0
O327 O 0.05769 0.99222 0.69156 0.0
O328 O 0.02421 0.98295 0.61834 0.0
C329 C 0.00758 0.97832 0.59729 0.0
O330 O 0.02811 0.01678 0.55593 0.0
O331 O 0.04867 0.0224 0.62152 0.0
O332 O 0.02529 0.03491 0.70327 0.0
O333 O 0.98973 0.02273 0.51702 0.0
O334 O 0.97903 0.04225 0.56972 0.0
O335 O 0.01661 0.04778 0.62797 0.0
C336 C 0.05105 0.96718 0.7472 0.0
C337 C 0.04724 0.95458 0.70768 0.0
C338 C 0.03974 0.94312 0.80471 0.0
C339 C 0.03872 0.9369 0.71632 0.0
C340 C 0.04813 0.96095 0.79601 0.0
C341 C 0.03406 0.93139 0.76462 0.0
C342 C 0.053 0.98757 0.73658 0.0
C343 C 0.04536 0.02099 0.57339 0.0
H344 H 0.999 0.07124 0.5548 0.0
H345 H 1.00099 0.06257 0.3725 0.0
H346 H 0.01869 0.09258 0.50592 0.0
H347 H 0.98114 0.04081 0.42185 0.0
H348 H 0.04927 0.95891 0.66952 0.0
H349 H 0.03621 0.93923 0.84236 0.0
H350 H 0.03466 0.92807 0.68485 0.0
H351 H 0.05076 0.97047 0.82695 0.0
Eu352 Eu 0.5246 0.02537 0.66372 0.0
Eu353 Eu 0.50138 0.99604 0.58899 0.0
C354 C 0.52148 0.98008 0.68937 0.0
C355 C 0.56307 0.04324 0.75044 0.0
C356 C 0.56403 0.02677 0.77982 0.0
C357 C 0.59756 0.04723 0.759 0.0
C358 C 0.58158 0.02033 0.79741 0.0
C359 C 0.57991 0.05374 0.74149 0.0
C360 C 0.59858 0.03016 0.78593 0.0
C361 C 0.54535 0.04748 0.72205 0.0
O362 O 0.48115 1.00164 0.65017 0.0
O363 O 0.49351 0.03003 0.67871 0.0
C364 C 0.47967 0.01706 0.67634 0.0
O365 O 0.52008 0.04072 0.59044 0.0
O366 O 0.47883 0.97497 0.57049 0.0
O367 O 0.49677 0.98609 0.51291 0.0
O368 O 0.49251 0.02529 0.56647 0.0
C369 C 0.50466 0.0395 0.56156 0.0
O370 O 0.54738 0.0081 0.63035 0.0
O371 O 0.53088 1.00072 0.55826 0.0
O372 O 0.51601 0.97622 0.64317 0.0
O373 O 0.54681 0.04738 0.67395 0.0
O374 O 0.52979 0.03867 0.73596 0.0
O375 O 0.52334 0.99756 0.70562 0.0
C376 C 0.4641 0.9859 0.49609 0.0
C377 C 0.45455 1.00046 0.51883 0.0
C378 C 0.44869 0.9943 0.41714 0.0
C379 C 0.44284 0.01232 0.49076 0.0
C380 C 0.46069 0.98254 0.44533 0.0
C381 C 0.44023 0.00983 0.4392 0.0
C382 C 0.48055 0.9777 0.52283 0.0
C383 C 0.54714 1.00297 0.58363 0.0
H384 H 0.55135 0.01819 0.78683 0.0
H385 H 0.61043 0.05516 0.74995 0.0
H386 H 0.58185 0.00697 0.8173 0.0
H387 H 0.5795 0.0664 0.71857 0.0
H388 H 0.45725 1.00362 0.5578 0.0
H389 H 0.44666 0.99164 0.37775 0.0
H390 H 0.43696 0.02421 0.50922 0.0
H391 H 0.46814 0.97156 0.42696 0.0
Eu392 Eu 0.49519 0.51423 0.66828 0.0
Eu393 Eu 0.53382 0.5055 0.61003 0.0
C394 C 0.53646 0.52136 0.72171 0.0
C395 C 0.4564 0.54223 0.7203 0.0
C396 C 0.466 0.55849 0.70286 0.0
C397 C 0.43319 0.56186 0.75763 0.0
C398 C 0.45936 0.57631 0.71306 0.0
C399 C 0.43986 0.54394 0.74725 0.0
C400 C 0.44306 0.57821 0.7412 0.0
C401 C 0.46389 0.52365 0.7101 0.0
O402 O 0.52149 0.47672 0.63198 0.0
O403 O 0.50402 0.48579 0.69762 0.0
C404 C 0.51242 0.47265 0.67294 0.0
O405 O 0.48607 0.49508 0.60464 0.0
O406 O 0.56152 0.49249 0.60761 0.0
O407 O 0.55133 0.50932 0.54521 0.0
O408 O 0.50955 0.50432 0.55262 0.0
C409 C 0.49245 0.49702 0.55964 0.0
O410 O 0.5004 0.5386 0.61528 0.0
O411 O 0.53277 0.53734 0.61325 0.0
O412 O 0.54332 0.50978 0.68966 0.0
O413 O 0.46481 0.5197 0.66313 0.0
O414 O 0.47947 0.51941 0.73512 0.0
O415 O 0.51922 0.52796 0.71527 0.0
C416 C 0.56875 0.4824 0.52847 0.0
C417 C 0.55403 0.47196 0.50387 0.0
C418 C 0.59188 0.46117 0.49714 0.0
C419 C 0.55819 0.45611 0.47645 0.0
C420 C 0.5877 0.47711 0.52448 0.0
C421 C 0.57711 0.45031 0.47368 0.0
C422 C 0.5642 0.49769 0.5618 0.0
C423 C 0.51699 0.54662 0.60588 0.0
H424 H 0.47876 0.55739 0.68173 0.0
H425 H 0.42069 0.56293 0.77976 0.0
H426 H 0.46711 0.58864 0.69933 0.0
H427 H 0.43229 0.53147 0.76079 0.0
H428 H 0.53928 0.47578 0.50686 0.0
H429 H 0.60656 0.45695 0.49592 0.0
H430 H 0.54654 0.44822 0.45802 0.0
H431 H 0.59918 0.48496 0.54371 0.0
Eu432 Eu 0.02525 0.53124 0.59654 0.0
Eu433 Eu 1.00719 0.49887 0.66983 0.0
C434 C 0.05255 0.50566 0.66895 0.0
C435 C 0.05625 0.55068 0.49903 0.0
C436 C 0.07504 0.5485 0.51761 0.0
C437 C 0.06487 0.53675 0.42109 0.0
C438 C 0.08833 0.53973 0.48903 0.0
C439 C 0.05162 0.54569 0.4495 0.0
C440 C 0.08307 0.53298 0.44143 0.0
C441 C 0.04079 0.55441 0.53312 0.0
O442 O 0.01362 0.52462 0.71773 0.0
O443 O 0.01302 0.54794 0.65819 0.0
C444 C 0.01241 0.54255 0.70496 0.0
O445 O 0.99429 0.52734 0.57181 0.0
O446 O 1.00186 0.48714 0.74366 0.0
O447 O 0.98998 0.47295 0.67847 0.0
O448 O 0.98232 0.51636 0.64464 0.0
C449 C 0.9798 0.52381 0.60026 0.0
O450 O 0.03259 0.50348 0.56255 0.0
O451 O 0.008 0.48576 0.59352 0.0
O452 O 0.03859 0.49304 0.67376 0.0
O453 O 0.02489 0.54489 0.52376 0.0
O454 O 0.04532 0.55455 0.58062 0.0
O455 O 0.04966 0.52225 0.64793 0.0
C456 C 0.96968 0.477 0.74535 0.0
C457 C 0.95414 0.48029 0.71218 0.0
C458 C 0.95028 0.48581 0.81379 0.0
C459 C 0.93717 0.48706 0.72941 0.0
C460 C 0.96732 0.47907 0.79649 0.0
C461 C 0.93533 0.49064 0.78017 0.0
C462 C 0.98898 0.47501 0.72636 0.0
C463 C 0.02137 0.48833 0.56101 0.0
H464 H 0.07916 0.55228 0.55548 0.0
H465 H 0.06059 0.53196 0.38414 0.0
H466 H 0.10227 0.53697 0.50569 0.0
H467 H 0.0373 0.54739 0.43399 0.0
H468 H 0.95544 0.47887 0.67244 0.0
H469 H 0.94912 0.48802 0.85329 0.0
H470 H 0.92601 0.49069 0.70246 0.0
H471 H 0.97905 0.4766 0.82279 0.0
H472 H 0.18642 0.06093 0.28894 0.0
H473 H 0.16173 0.05737 0.35058 0.0
H474 H 0.14385 1.0037 0.28757 0.0
H475 H 0.16888 0.00705 0.22602 0.0
H476 H 0.1132 0.03008 0.30496 0.0
H477 H 0.16682 1.00197 0.39105 0.0
H478 H 0.20006 1.00117 0.42386 0.0
H479 H 0.19111 0.04987 0.51293 0.0
H480 H 0.15788 0.05112 0.48008 0.0
H481 H 0.04824 1.00193 0.48709 0.0
H482 H 0.07376 1.00385 0.42816 0.0
H483 H 0.10345 0.04608 0.51889 0.0
H484 H 0.07836 0.04309 0.58004 0.0
H485 H 0.1285 0.02569 0.48594 0.0
H486 H 0.07574 0.05517 0.40112 0.0
H487 H 0.04276 0.05772 0.3671 0.0
H488 H 0.05003 0.00975 0.27441 0.0
H489 H 0.08294 0.00666 0.30824 0.0
C490 C 0.17724 0.04835 0.28816 0.0
C491 C 0.17958 0.0343 0.25239 0.0
C492 C 0.16317 0.04631 0.32359 0.0
C493 C 0.15091 0.03027 0.32384 0.0
C494 C 0.15313 0.0162 0.28812 0.0
C495 C 0.16749 0.01808 0.25313 0.0
C496 C 0.13567 0.02842 0.36109 0.0
C497 C 0.11649 0.02884 0.34452 0.0
C498 C 0.13996 0.02752 0.41282 0.0
C499 C 0.15992 0.02675 0.43271 0.0
C500 C 0.17199 0.01261 0.41728 0.0
C501 C 0.19082 0.01205 0.43596 0.0
C502 C 0.19771 0.02549 0.47036 0.0
C503 C 0.18576 0.03948 0.48624 0.0
C504 C 0.16692 0.04012 0.46763 0.0
C505 C 0.06021 0.01165 0.49451 0.0
C506 C 0.06119 0.02247 0.53811 0.0
C507 C 0.07479 0.01289 0.46039 0.0
C508 C 0.09046 0.02556 0.46775 0.0
C509 C 0.09156 0.03624 0.51179 0.0
C510 C 0.07719 0.03458 0.5468 0.0
C511 C 0.10576 0.02732 0.4301 0.0
C512 C 0.12503 0.02695 0.44649 0.0
C513 C 0.10154 0.02864 0.37812 0.0
C514 C 0.08177 0.03058 0.35756 0.0
C515 C 0.07028 0.04509 0.37371 0.0
C516 C 0.0516 0.04665 0.35445 0.0
C517 C 0.04431 0.03392 0.31877 0.0
C518 C 0.05569 0.0196 0.30211 0.0
C519 C 0.07436 0.01794 0.32126 0.0
H520 H 0.02985 0.03517 0.30399 0.0
H521 H 0.21229 0.02503 0.48479 0.0
H522 H 0.4811 0.17004 0.22053 0.0
H523 H 0.47651 0.14743 0.2881 0.0
H524 H 0.51639 0.11043 0.22356 0.0
H525 H 0.51969 0.13209 0.15355 0.0
H526 H 0.49188 0.08965 0.26402 0.0
H527 H 0.52856 0.14419 0.3214 0.0
H528 H 0.535 0.1781 0.3372 0.0
H529 H 0.48624 0.17944 0.4288 0.0
H530 H 0.47939 0.14558 0.41302 0.0
H531 H 0.52799 0.06952 0.53671 0.0
H532 H 0.52504 0.09033 0.46434 0.0
H533 H 0.47206 0.06173 0.41965 0.0
H534 H 0.47514 0.04058 0.49165 0.0
H535 H 0.50159 0.11528 0.43407 0.0
H536 H 0.46778 0.06287 0.28669 0.0
H537 H 0.46727 0.02892 0.2671 0.0
H538 H 0.51902 0.02217 0.35465 0.0
H539 H 0.52039 0.05623 0.37272 0.0
C540 C 0.48847 0.15686 0.21965 0.0
C541 C 0.50106 0.15319 0.18151 0.0
C542 C 0.48607 0.14402 0.25905 0.0
C543 C 0.49658 0.12742 0.26216 0.0
C544 C 0.50825 0.12319 0.22269 0.0
C545 C 0.51033 0.1358 0.18275 0.0
C546 C 0.49627 0.11491 0.30729 0.0
C547 C 0.49386 0.09528 0.30123 0.0
C548 C 0.49925 0.1221 0.35604 0.0
C549 C 0.50335 0.14243 0.36559 0.0
C550 C 0.51915 0.15176 0.34464 0.0
C551 C 0.52288 0.17096 0.35362 0.0
C552 C 0.51101 0.18093 0.38386 0.0
C553 C 0.4954 0.17171 0.4053 0.0
C554 C 0.49159 0.15252 0.39637 0.0
C555 C 0.51562 0.06771 0.51177 0.0
C556 C 0.50183 0.0533 0.5201 0.0
C557 C 0.51393 0.07967 0.47028 0.0
C558 C 0.49845 0.07755 0.43596 0.0
C559 C 0.48433 0.06352 0.44496 0.0
C560 C 0.48604 0.0515 0.48646 0.0
C561 C 0.49734 0.08997 0.39081 0.0
C562 C 0.4994 0.10962 0.39693 0.0
C563 C 0.4947 0.0827 0.34205 0.0
C564 C 0.49395 0.0621 0.33191 0.0
C565 C 0.47908 0.05417 0.30166 0.0
C566 C 0.47872 0.03492 0.29055 0.0
C567 C 0.49299 0.02336 0.31004 0.0
C568 C 0.50786 0.0311 0.33995 0.0
C569 C 0.50849 0.05041 0.35046 0.0
H570 H 0.49257 0.00842 0.30174 0.0
H571 H 0.51392 0.19579 0.39078 0.0
H572 H 0.36032 0.44124 0.24878 0.0
H573 H 0.38513 0.44764 0.31272 0.0
H574 H 0.41182 0.48888 0.21682 0.0
H575 H 0.38693 0.48243 0.15195 0.0
H576 H 0.43816 0.4644 0.27003 0.0
H577 H 0.38637 0.50492 0.30218 0.0
H578 H 0.35277 0.51223 0.31479 0.0
H579 H 0.35182 0.47483 0.44121 0.0
H580 H 0.38536 0.46707 0.42888 0.0
H581 H 0.49672 0.50724 0.46234 0.0
H582 H 0.47493 0.50046 0.39156 0.0
H583 H 0.43808 0.46788 0.48703 0.0
H584 H 0.45946 0.47529 0.55839 0.0
H585 H 0.41735 0.48897 0.43063 0.0
H586 H 0.4685 0.44759 0.39902 0.0
H587 H 0.5021 0.43984 0.38776 0.0
H588 H 0.50437 0.47749 0.26203 0.0
H589 H 0.47085 0.48564 0.27289 0.0
C590 C 0.37163 0.45144 0.24075 0.0
C591 C 0.37166 0.46126 0.19503 0.0
C592 C 0.38574 0.45518 0.27758 0.0
C593 C 0.40027 0.46881 0.2697 0.0
C594 C 0.40073 0.4783 0.22366 0.0
C595 C 0.38645 0.47468 0.18677 0.0
C596 C 0.41435 0.47362 0.31067 0.0
C597 C 0.4337 0.47002 0.30495 0.0
C598 C 0.40845 0.48054 0.3566 0.0
C599 C 0.38832 0.48528 0.36432 0.0
C600 C 0.37895 0.49814 0.33243 0.0
C601 C 0.35993 0.50238 0.33956 0.0
C602 C 0.35015 0.49396 0.37871 0.0
C603 C 0.35941 0.48132 0.41087 0.0
C604 C 0.37843 0.47701 0.40385 0.0
C605 C 0.48405 0.49849 0.46824 0.0
C606 C 0.47986 0.49178 0.51608 0.0
C607 C 0.47161 0.49454 0.42757 0.0
C608 C 0.4549 0.4834 0.43354 0.0
C609 C 0.45083 0.47651 0.48127 0.0
C610 C 0.46312 0.48071 0.52209 0.0
C611 C 0.44129 0.47952 0.39061 0.0
C612 C 0.42194 0.48334 0.39586 0.0
C613 C 0.44722 0.47265 0.34448 0.0
C614 C 0.46722 0.46737 0.33709 0.0
C615 C 0.47619 0.45428 0.36911 0.0
C616 C 0.49522 0.44982 0.36282 0.0
C617 C 0.50539 0.45825 0.32439 0.0
C618 C 0.49649 0.47102 0.29188 0.0
C619 C 0.47747 0.47555 0.29804 0.0
H620 H 0.52014 0.45486 0.31972 0.0
H621 H 0.33542 0.49727 0.38418 0.0
H622 H 1.00701 0.34748 0.2635 0.0
H623 H 1.00613 0.37337 0.32233 0.0
H624 H 0.05274 0.40194 0.24977 0.0
H625 H 0.05427 0.37559 0.19192 0.0
H626 H 0.05868 0.40397 0.34689 0.0
H627 H 1.00582 0.4171 0.23693 0.0
H628 H 0.97591 0.41044 0.18848 0.0
H629 H 0.94699 0.39748 0.32298 0.0
H630 H 0.9768 0.40382 0.37222 0.0
H631 H 0.04656 0.48917 0.4848 0.0
H632 H 0.04928 0.46602 0.41864 0.0
H633 H 1.00393 0.43196 0.48095 0.0
H634 H 1.00095 0.45509 0.54664 0.0
H635 H 0.99834 0.43478 0.38379 0.0
H636 H 0.05203 0.42065 0.49315 0.0
H637 H 0.08218 0.42725 0.54065 0.0
H638 H 0.1098 0.44265 0.40584 0.0
H639 H 0.07971 0.43652 0.3576 0.0
C640 C 0.01714 0.35922 0.25994 0.0
C641 C 0.03074 0.35931 0.2227 0.0
C642 C 0.01649 0.37418 0.29347 0.0
C643 C 0.02924 0.38984 0.29046 0.0
C644 C 0.0427 0.3901 0.25301 0.0
C645 C 0.04341 0.37507 0.21947 0.0
C646 C 0.02873 0.4056 0.32717 0.0
C647 C 0.04553 0.41093 0.3543 0.0
C648 C 0.01158 0.41459 0.33771 0.0
C649 C 0.9936 0.41079 0.30823 0.0
C650 C 0.99312 0.4127 0.25615 0.0
C651 C 0.97618 0.409 0.22856 0.0
C652 C 0.95957 0.4035 0.25263 0.0
C653 C 0.95987 0.40173 0.30438 0.0
C654 C 0.97678 0.40539 0.33216 0.0
C655 C 0.0372 0.47672 0.4846 0.0
C656 C 0.02352 0.47405 0.5213 0.0
C657 C 0.03883 0.46342 0.44673 0.0
C658 C 0.02691 0.44707 0.44477 0.0
C659 C 0.01329 0.44442 0.48141 0.0
C660 C 0.01164 0.45768 0.51918 0.0
C661 C 0.02818 0.43289 0.40418 0.0
C662 C 0.01151 0.4279 0.37618 0.0
C663 C 0.04549 0.42433 0.39275 0.0
C664 C 0.06354 0.4283 0.4218 0.0
C665 C 0.06447 0.42564 0.47367 0.0
C666 C 0.08156 0.42927 0.50073 0.0
C667 C 0.09788 0.43538 0.47628 0.0
C668 C 0.09714 0.43793 0.42473 0.0
C669 C 0.08006 0.4344 0.39751 0.0
H670 H 0.11112 0.43806 0.49728 0.0
H671 H 0.94647 0.40065 0.2312 0.0
H672 H 0.84752 0.02564 0.99768 0.0
H673 H 0.8729 0.02629 0.93783 0.0
H674 H 0.89042 0.97144 0.98933 0.0
H675 H 0.86497 0.9706 0.04906 0.0
H676 H 0.92117 0.994 0.97305 0.0
H677 H 0.86354 0.97671 0.8809 0.0
H678 H 0.83021 0.98025 0.85081 0.0
H679 H 0.84527 0.03349 0.7829 0.0
H680 H 0.87865 0.0304 0.81321 0.0
H681 H 0.98085 0.97831 0.76825 0.0
H682 H 0.95619 0.97524 0.83024 0.0
H683 H 0.93193 0.02721 0.77671 0.0
H684 H 0.95595 0.02991 0.71375 0.0
H685 H 0.90437 1.00434 0.79457 0.0
H686 H 0.96175 0.02234 0.88826 0.0
H687 H 0.99502 0.01928 0.91933 0.0
H688 H 0.98055 0.9656 0.9856 0.0
H689 H 0.94731 0.96809 0.95383 0.0
C690 C 0.85672 0.01367 0.99635 0.0
C691 C 0.854 0.99802 0.02833 0.0
C692 C 0.87129 0.01407 0.96197 0.0
C693 C 0.88348 0.99878 0.95826 0.0
C694 C 0.88125 0.98343 0.99124 0.0
C695 C 0.86668 0.98302 0.02569 0.0
C696 C 0.89826 0.99863 0.9194 0.0
C697 C 0.91745 0.99602 0.93394 0.0
C698 C 0.89359 1.00157 0.86829 0.0
C699 C 0.87356 1.0034 0.84972 0.0
C700 C 0.85972 0.98923 0.85985 0.0
C701 C 0.84082 0.99115 0.84271 0.0
C702 C 0.83562 0.0071 0.81506 0.0
C703 C 0.84932 0.02115 0.80437 0.0
C704 C 0.86823 0.01932 0.82148 0.0
C705 C 0.97021 0.98904 0.76955 0.0
C706 C 0.97045 1.00436 0.73581 0.0
C707 C 0.95614 0.98735 0.80537 0.0
C708 C 0.94222 1.00116 0.8091 0.0
C709 C 0.94238 0.01631 0.77495 0.0
C710 C 0.95622 0.01785 0.7388 0.0
C711 C 0.92743 1.00002 0.84814 0.0
C712 C 0.90817 1.00232 0.83363 0.0
C713 C 0.93207 0.99687 0.89928 0.0
C714 C 0.95208 0.99531 0.9182 0.0
C715 C 0.96571 0.00979 0.90903 0.0
C716 C 0.98457 0.00815 0.92674 0.0
C717 C 0.98993 0.99219 0.95416 0.0
C718 C 0.97642 0.97787 0.96405 0.0
C719 C 0.95757 0.97939 0.94618 0.0
H720 H 1.00453 0.99096 0.96793 0.0
H721 H 0.82098 0.00856 0.80184 0.0
H722 H 0.53811 0.86971 0.07594 0.0
H723 H 0.53971 0.89459 0.0121 0.0
H724 H 0.51833 0.85485 0.90144 0.0
H725 H 0.51718 0.82997 0.96463 0.0
H726 H 0.5446 0.87551 0.86253 0.0
H727 H 0.48974 0.88892 0.95536 0.0
H728 H 0.47183 0.8954 0.03013 0.0
H729 H 0.50699 0.94514 0.05809 0.0
H730 H 0.52528 0.93881 0.98381 0.0
H731 H 0.51268 0.94221 0.67783 0.0
H732 H 0.51567 0.91706 0.74036 0.0
H733 H 0.54088 0.9571 0.84512 0.0
H734 H 0.53764 0.98232 0.78329 0.0
H735 H 0.51363 0.93655 0.8872 0.0
H736 H 0.56702 0.9229 0.78744 0.0
H737 H 0.58338 0.91548 0.71061 0.0
H738 H 0.54817 0.86522 0.69231 0.0
H739 H 0.53157 0.87239 0.76875 0.0
C740 C 0.53381 0.8663 0.03796 0.0
C741 C 0.52761 0.84783 0.0254 0.0
C742 C 0.53465 0.88055 1.00145 0.0
C743 C 0.52889 0.87674 0.9518 0.0
C744 C 0.52294 0.85822 0.93925 0.0
C745 C 0.52233 0.84396 0.97551 0.0
C746 C 0.5288 0.89195 0.91288 0.0
C747 C 0.53764 0.88878 0.8678 0.0
C748 C 0.51998 0.90944 0.91967 0.0
C749 C 0.50901 0.91327 0.96435 0.0
C750 C 0.49375 0.90116 0.97768 0.0
C751 C 0.48351 0.90482 0.01993 0.0
C752 C 0.4883 0.92064 0.04892 0.0
C753 C 0.50332 0.93287 0.03565 0.0
C754 C 0.51362 0.92926 0.99347 0.0
C755 C 0.51906 0.94564 0.71397 0.0
C756 C 0.52483 0.96436 0.72546 0.0
C757 C 0.52082 0.9312 0.74974 0.0
C758 C 0.52859 0.93511 0.79757 0.0
C759 C 0.53477 0.9537 0.80865 0.0
C760 C 0.53293 0.96813 0.77309 0.0
C761 C 0.52945 0.92012 0.83691 0.0
C762 C 0.52069 0.92333 0.88205 0.0
C763 C 0.53806 0.90255 0.82978 0.0
C764 C 0.54798 0.89828 0.78363 0.0
C765 C 0.56272 0.91034 0.76684 0.0
C766 C 0.57204 0.90617 0.72343 0.0
C767 C 0.56677 0.88993 0.69656 0.0
C768 C 0.55222 0.8778 0.71313 0.0
C769 C 0.54288 0.8819 0.75654 0.0
H770 H 0.574 0.88673 0.66296 0.0
H771 H 0.48036 0.92345 0.08161 0.0
H772 H 0.63738 0.56329 0.12897 0.0
H773 H 0.61165 0.56064 0.06485 0.0
H774 H 0.64817 0.52915 0.97288 0.0
H775 H 0.67387 0.53193 0.0361 0.0
H776 H 0.63099 0.55781 0.92145 0.0
H777 H 0.61238 0.50719 0.03303 0.0
H778 H 0.60346 0.49345 0.11371 0.0
H779 H 0.5557 0.52987 0.11698 0.0
H780 H 0.56451 0.54401 0.03655 0.0
H781 H 0.57362 0.51268 0.73987 0.0
H782 H 0.59408 0.52043 0.81187 0.0
H783 H 0.5483 0.54985 0.87664 0.0
H784 H 0.52736 0.54193 0.80397 0.0
H785 H 0.56752 0.52692 0.94535 0.0
H786 H 0.58408 0.57518 0.82947 0.0
H787 H 0.59277 0.58869 0.74838 0.0
H788 H 0.64425 0.55736 0.75339 0.0
H789 H 0.63573 0.54343 0.83419 0.0
C790 C 0.63987 0.55571 0.09519 0.0
C791 C 0.65768 0.54772 0.0879 0.0
C792 C 0.62513 0.55414 0.05866 0.0
C793 C 0.62795 0.54466 0.01402 0.0
C794 C 0.64563 0.53652 1.00697 0.0
C795 C 0.66027 0.53796 0.04348 0.0
C796 C 0.61285 0.54361 0.97367 0.0
C797 C 0.61716 0.55094 0.92664 0.0
C798 C 0.59453 0.53529 0.98079 0.0
C799 C 0.58924 0.52682 0.02911 0.0
C800 C 0.60008 0.5124 0.05118 0.0
C801 C 0.59502 0.50451 0.09681 0.0
C802 C 0.57906 0.51083 0.12054 0.0
C803 C 0.56809 0.52501 0.09861 0.0
C804 C 0.5731 0.53296 0.05299 0.0
C805 C 0.56777 0.52084 0.76918 0.0
C806 C 0.54878 0.52673 0.76583 0.0
C807 C 0.57959 0.52533 0.81042 0.0
C808 C 0.57285 0.53592 0.8495 0.0
C809 C 0.55384 0.54171 0.84682 0.0
C810 C 0.54193 0.53725 0.80518 0.0
C811 C 0.5859 0.54064 0.89282 0.0
C812 C 0.58123 0.53405 0.94036 0.0
C813 C 0.60392 0.54972 0.88631 0.0
C814 C 0.60919 0.55816 0.83781 0.0
C815 C 0.59719 0.57106 0.81314 0.0
C816 C 0.6021 0.57882 0.76724 0.0
C817 C 0.61904 0.57387 0.74571 0.0
C818 C 0.63113 0.56118 0.77011 0.0
C819 C 0.62628 0.55337 0.816 0.0
H820 H 0.62281 0.57988 0.71017 0.0
H821 H 0.57516 0.5047 0.15586 0.0
H822 H 0.99925 0.6494 0.09504 0.0
H823 H 1.00106 0.62405 0.03407 0.0
H824 H 1.00577 0.66554 0.91658 0.0
H825 H 1.00361 0.69084 0.9769 0.0
H826 H 0.98019 0.63741 0.89087 0.0
H827 H 0.04463 0.64166 0.96037 0.0
H828 H 0.06926 0.64148 0.02809 0.0
H829 H 0.05141 0.58509 0.06915 0.0
H830 H 0.0265 0.58503 1.00204 0.0
H831 H 0.01055 0.5811 0.69408 0.0
H832 H 0.00788 0.60468 0.75893 0.0
H833 H 1.00722 0.56052 0.87031 0.0
H834 H 0.01016 0.53684 0.80571 0.0
H835 H 0.02971 0.58889 0.90185 0.0
H836 H 0.96614 0.58343 0.83439 0.0
H837 H 0.94049 0.58265 0.76927 0.0
H838 H 0.95509 0.63982 0.72757 0.0
H839 H 0.98097 0.64087 0.79213 0.0
C840 C 1.00068 0.65314 0.05624 0.0
C841 C 1.00144 0.67225 0.04114 0.0
C842 C 1.00183 0.63861 0.02138 0.0
C843 C 1.00368 0.64283 0.97057 0.0
C844 C 1.00438 0.66186 0.95546 0.0
C845 C 1.00336 0.67636 0.99022 0.0
C846 C 1.00466 0.62751 0.9329 0.0
C847 C 0.99117 0.62694 0.89299 0.0
C848 C 0.01856 0.61341 0.9363 0.0
C849 C 0.03357 0.61342 0.97653 0.0
C850 C 0.04586 0.62928 0.98409 0.0
C851 C 0.05989 0.62921 0.02232 0.0
C852 C 0.06186 0.61331 0.05299 0.0
C853 C 0.04985 0.59742 0.04541 0.0
C854 C 0.03578 0.59742 1.00727 0.0
C855 C 0.00979 0.57634 0.73232 0.0
C856 C 0.01055 0.55698 0.74444 0.0
C857 C 0.00817 0.58989 0.76948 0.0
C858 C 1.00712 0.58445 0.81973 0.0
C859 C 0.00799 0.56514 0.83195 0.0
C860 C 0.00963 0.55158 0.79482 0.0
C861 C 1.00537 0.59891 0.85942 0.0
C862 C 0.01869 0.59931 0.89974 0.0
C863 C 0.99115 0.61272 0.85674 0.0
C864 C 0.97561 0.61217 0.81781 0.0
C865 C 0.96398 0.59579 0.81108 0.0
C866 C 0.94937 0.59531 0.77432 0.0
C867 C 0.94619 0.61116 0.74421 0.0
C868 C 0.95758 0.62755 0.75089 0.0
C869 C 0.9722 0.6281 0.78761 0.0
H870 H 0.93488 0.61077 0.71578 0.0
H871 H 0.07274 0.61328 0.08256 0.0
H872 H 0.11126 0.21967 0.29341 0.0
H873 H 0.106 0.19004 0.33897 0.0
H874 H 0.09021 0.16189 0.20151 0.0
H875 H 0.09525 0.19133 0.15602 0.0
H876 H 0.06967 0.17739 0.33639 0.0
H877 H 0.09217 0.11382 0.21807 0.0
H878 H 0.11946 0.10458 0.16954 0.0
H879 H 0.15664 0.14213 0.25505 0.0
H880 H 0.12966 0.1514 0.30461 0.0
H881 H 1.00552 0.0999 0.35146 0.0
H882 H 0.02865 0.12131 0.31148 0.0
H883 H 0.07253 0.1044 0.41765 0.0
H884 H 0.04941 0.0833 0.45829 0.0
H885 H 0.08368 0.11003 0.30991 0.0
H886 H 0.0553 0.14001 0.44953 0.0
H887 H 0.02787 0.14868 0.49836 0.0
H888 H 1.00423 0.17879 0.37254 0.0
H889 H 0.03138 0.17001 0.3227 0.0
C890 C 0.10736 0.207 0.27276 0.0
C891 C 0.1033 0.20793 0.22129 0.0
C892 C 0.1044 0.19007 0.29879 0.0
C893 C 0.0975 0.17383 0.27368 0.0
C894 C 0.09569 0.1742 0.22164 0.0
C895 C 0.09863 0.19111 0.19559 0.0
C896 C 0.08828 0.15816 0.30161 0.0
C897 C 0.07301 0.1627 0.33111 0.0
C898 C 0.09246 0.13896 0.29437 0.0
C899 C 0.10882 0.13341 0.26486 0.0
C900 C 0.10618 0.12005 0.22671 0.0
C901 C 0.1216 0.11481 0.19898 0.0
C902 C 0.13976 0.12279 0.20913 0.0
C903 C 0.14255 0.13601 0.2471 0.0
C904 C 0.12718 0.14129 0.27496 0.0
C905 C 0.02017 0.10059 0.36566 0.0
C906 C 0.02569 0.09029 0.40826 0.0
C907 C 0.03333 0.1127 0.34282 0.0
C908 C 0.05221 0.11437 0.36185 0.0
C909 C 0.05803 0.10321 0.40249 0.0
C910 C 0.0448 0.09139 0.4259 0.0
C911 C 0.06508 0.12947 0.34334 0.0
C912 C 0.08076 0.12479 0.31559 0.0
C913 C 0.06141 0.14861 0.35215 0.0
C914 C 0.04527 0.15422 0.3823 0.0
C915 C 0.04418 0.14836 0.43219 0.0
C916 C 0.02869 0.15331 0.46005 0.0
C917 C 0.0143 0.16425 0.43854 0.0
C918 C 0.01538 0.17031 0.38914 0.0
C919 C 0.03082 0.16536 0.36108 0.0
H920 H 1.00232 0.16806 0.46016 0.0
H921 H 0.15168 0.11872 0.18762 0.0
H922 H 0.34407 0.11334 0.14019 0.0
H923 H 0.37485 0.10597 0.17742 0.0
H924 H 0.35322 0.11375 0.32333 0.0
H925 H 0.3227 0.12298 0.28627 0.0
H926 H 0.39135 0.11518 0.32811 0.0
H927 H 0.34159 0.07302 0.25952 0.0
H928 H 0.31942 0.06172 0.19217 0.0
H929 H 0.36681 0.05032 0.10172 0.0
H930 H 0.38926 0.06188 0.1683 0.0
H931 H 0.40965 0.03089 0.46394 0.0
H932 H 0.39541 0.0567 0.41653 0.0
H933 H 0.43295 0.04725 0.29673 0.0
H934 H 0.448 0.02195 0.34487 0.0
H935 H 0.39263 0.04882 0.2705 0.0
H936 H 0.44221 0.08579 0.35695 0.0
H937 H 0.46115 0.09727 0.43019 0.0
H938 H 0.41046 0.11624 0.49578 0.0
H939 H 0.39112 0.10497 0.42304 0.0
C940 C 0.34599 0.11476 0.18004 0.0
C941 C 0.3304 0.11759 0.21044 0.0
C942 C 0.36373 0.11033 0.20136 0.0
C943 C 0.36588 0.10816 0.25306 0.0
C944 C 0.35165 0.11473 0.28321 0.0
C945 C 0.33408 0.11977 0.26187 0.0
C946 C 0.38006 0.09501 0.27457 0.0
C947 C 0.39176 0.10072 0.31535 0.0
C948 C 0.38049 0.07605 0.25802 0.0
C949 C 0.36708 0.0685 0.2186 0.0
C950 C 0.34727 0.06814 0.22521 0.0
C951 C 0.33466 0.06172 0.18718 0.0
C952 C 0.34171 0.05536 0.14266 0.0
C953 C 0.36138 0.0553 0.13619 0.0
C954 C 0.37406 0.0618 0.17403 0.0
C955 C 0.41518 0.03443 0.42791 0.0
C956 C 0.43019 0.02436 0.40853 0.0
C957 C 0.40699 0.04922 0.40088 0.0
C958 C 0.41343 0.05408 0.35366 0.0
C959 C 0.42798 0.04382 0.33346 0.0
C960 C 0.4364 0.02921 0.3608 0.0
C961 C 0.40385 0.06897 0.3242 0.0
C962 C 0.39277 0.06345 0.28221 0.0
C963 C 0.40359 0.08787 0.34063 0.0
C964 C 0.4152 0.09444 0.38464 0.0
C965 C 0.43507 0.09228 0.38713 0.0
C966 C 0.44589 0.09879 0.42848 0.0
C967 C 0.43703 0.10738 0.46762 0.0
C968 C 0.41731 0.10957 0.46545 0.0
C969 C 0.40641 0.1032 0.4241 0.0
H970 H 0.44547 0.11237 0.49957 0.0
H971 H 0.33193 0.05046 0.11319 0.0
H972 H 0.61053 0.30233 0.20952 0.0
H973 H 0.61539 0.33129 0.25805 0.0
H974 H 0.56236 0.31968 0.33007 0.0
H975 H 0.55684 0.2916 0.28048 0.0
H976 H 0.56301 0.35362 0.28637 0.0
H977 H 0.60511 0.31733 0.39318 0.0
H978 H 0.63272 0.2975 0.41279 0.0
H979 H 0.67062 0.34138 0.35991 0.0
H980 H 0.64319 0.36138 0.33935 0.0
H981 H 0.55737 0.41679 0.47975 0.0
H982 H 0.5626 0.38782 0.43472 0.0
H983 H 0.61148 0.41411 0.3666 0.0
H984 H 0.60617 0.44347 0.41128 0.0
H985 H 0.6164 0.37527 0.39981 0.0
H986 H 0.5735 0.41229 0.29887 0.0
H987 H 0.54538 0.43168 0.28153 0.0
H988 H 0.50844 0.38552 0.32551 0.0
H989 H 0.53635 0.36593 0.34377 0.0
C990 C 0.6 0.30585 0.23608 0.0
C991 C 0.58321 0.29464 0.24062 0.0
C992 C 0.60291 0.3223 0.2641 0.0
C993 C 0.58916 0.32765 0.29735 0.0
C994 C 0.5731 0.31582 0.30441 0.0
C995 C 0.5701 0.29957 0.27628 0.0
C996 C 0.59009 0.34646 0.32081 0.0
C997 C 0.57464 0.35826 0.31148 0.0
C998 C 0.6056 0.35279 0.35199 0.0
C999 C 0.62208 0.34075 0.36413 0.0
C1000 C 0.61931 0.32267 0.38525 0.0
C1001 C 0.63493 0.31142 0.39665 0.0
C1002 C 0.65341 0.31815 0.38744 0.0
C1003 C 0.6563 0.33617 0.36693 0.0
C1004 C 0.64072 0.34747 0.35542 0.0
C1005 C 0.56918 0.41648 0.45501 0.0
C1006 C 0.58116 0.4325 0.44831 0.0
C1007 C 0.57223 0.39989 0.42966 0.0
C1008 C 0.58728 0.39898 0.39705 0.0
C1009 C 0.5998 0.41462 0.3917 0.0
C1010 C 0.59673 0.43133 0.41713 0.0
C1011 C 0.589 0.38194 0.36667 0.0
C1012 C 0.60494 0.37062 0.37425 0.0
C1013 C 0.57388 0.3759 0.33394 0.0
C1014 C 0.55704 0.38767 0.32295 0.0
C1015 C 0.55939 0.40632 0.30522 0.0
C1016 C 0.54348 0.41734 0.29516 0.0
C1017 C 0.52514 0.40984 0.30245 0.0
C1018 C 0.52266 0.39131 0.31986 0.0
C1019 C 0.53852 0.38023 0.32999 0.0
H1020 H 0.51283 0.41834 0.29443 0.0
H1021 H 0.66548 0.30942 0.39632 0.0
H1022 H 0.19535 0.41149 0.24792 0.0
H1023 H 0.16743 0.42107 0.29257 0.0
H1024 H 0.19774 0.47222 0.33857 0.0
H1025 H 0.22515 0.46327 0.29335 0.0
H1026 H 0.1749 0.45776 0.41171 0.0
H1027 H 0.17112 0.47114 0.2317 0.0
H1028 H 0.16971 0.46117 0.14405 0.0
H1029 H 0.12002 0.42619 0.171 0.0
H1030 H 0.12132 0.43578 0.25905 0.0
H1031 H 0.12135 0.53751 0.42892 0.0
H1032 H 0.14285 0.51398 0.39879 0.0
H1033 H 0.09489 0.47574 0.36818 0.0
H1034 H 0.0733 0.49921 0.39838 0.0
H1035 H 0.12125 0.47476 0.29619 0.0
H1036 H 0.12005 0.47199 0.47063 0.0
H1037 H 0.12137 0.48469 0.55526 0.0
H1038 H 0.18065 0.49984 0.54164 0.0
H1039 H 0.17945 0.48825 0.4556 0.0
C1040 C 0.19614 0.42466 0.26809 0.0
C1041 C 0.21251 0.43665 0.26654 0.0
C1042 C 0.18023 0.43003 0.29383 0.0
C1043 C 0.18051 0.44742 0.31847 0.0
C1044 C 0.19728 0.45867 0.32008 0.0
C1045 C 0.21305 0.45343 0.29422 0.0
C1046 C 0.16295 0.45541 0.33724 0.0
C1047 C 0.16308 0.46142 0.38673 0.0
C1048 C 0.14729 0.4596 0.30482 0.0
C1049 C 0.14646 0.45396 0.25196 0.0
C1050 C 0.15998 0.46122 0.21896 0.0
C1051 C 0.1592 0.45565 0.16924 0.0
C1052 C 0.14482 0.443 0.15201 0.0
C1053 C 0.13117 0.43594 0.18444 0.0
C1054 C 0.13193 0.44142 0.23424 0.0
C1055 C 0.1154 0.52417 0.41523 0.0
C1056 C 0.09571 0.52014 0.41614 0.0
C1057 C 0.12765 0.51074 0.39818 0.0
C1058 C 0.12046 0.49298 0.38242 0.0
C1059 C 0.10071 0.4893 0.3806 0.0
C1060 C 0.08841 0.50277 0.39753 0.0
C1061 C 0.13377 0.47812 0.36993 0.0
C1062 C 0.13273 0.4707 0.32182 0.0
C1063 C 0.14862 0.47271 0.40373 0.0
C1064 C 0.14963 0.4792 0.45628 0.0
C1065 C 0.13337 0.47808 0.48542 0.0
C1066 C 0.13409 0.48514 0.53373 0.0
C1067 C 0.15113 0.49289 0.55408 0.0
C1068 C 0.16746 0.49376 0.5259 0.0
C1069 C 0.16674 0.48702 0.47719 0.0
H1070 H 0.15166 0.49829 0.5916 0.0
H1071 H 0.14423 0.43872 0.11349 0.0
H1072 H 0.91569 0.82461 0.97951 0.0
H1073 H 0.92196 0.84799 0.91415 0.0
H1074 H 0.96202 0.81063 0.85127 0.0
H1075 H 0.95498 0.78707 0.91471 0.0
H1076 H 0.95412 0.86395 0.91894 0.0
H1077 H 0.97718 0.82391 0.7415 0.0
H1078 H 0.96429 0.79879 0.68597 0.0
H1079 H 0.90752 0.80945 0.73053 0.0
H1080 H 0.92 0.83485 0.78577 0.0
H1081 H 0.03748 0.9034 0.83453 0.0
H1082 H 0.01336 0.87908 0.85476 0.0
H1083 H 0.97684 0.89849 0.73362 0.0
H1084 H 1.00089 0.92281 0.71315 0.0
H1085 H 0.97489 0.85919 0.7455 0.0
H1086 H 0.96827 0.91451 0.84198 0.0
H1087 H 0.98002 0.94101 0.89469 0.0
H1088 H 0.99913 0.90183 1.00722 0.0
H1089 H 0.98771 0.87509 0.95491 0.0
C1090 C 0.92501 0.82107 0.94999 0.0
C1091 C 0.93498 0.80419 0.95213 0.0
C1092 C 0.92868 0.83444 0.91281 0.0
C1093 C 0.94268 0.83125 0.87805 0.0
C1094 C 0.95095 0.81343 0.87697 0.0
C1095 C 0.94697 0.79992 0.91348 0.0
C1096 C 0.95187 0.84745 0.85174 0.0
C1097 C 0.95825 0.86297 0.88065 0.0
C1098 C 0.95721 0.84647 0.80159 0.0
C1099 C 0.94957 0.83128 0.76802 0.0
C1100 C 0.96193 0.82102 0.73923 0.0
C1101 C 0.95469 0.80669 0.70785 0.0
C1102 C 0.9351 0.80251 0.70479 0.0
C1103 C 0.9227 0.81267 0.73305 0.0
C1104 C 0.92986 0.82701 0.76448 0.0
C1105 C 0.02443 0.90227 0.81183 0.0
C1106 C 0.02099 0.91498 0.77252 0.0
C1107 C 0.01071 0.8884 0.82327 0.0
C1108 C 0.99325 0.88723 0.79603 0.0
C1109 C 0.99022 0.8992 0.75499 0.0
C1110 C 1.00396 0.91305 0.74344 0.0
C1111 C 0.97762 0.87476 0.81373 0.0
C1112 C 0.97016 0.86016 0.78327 0.0
C1113 C 0.97086 0.87674 0.8621 0.0
C1114 C 0.97721 0.8928 0.89441 0.0
C1115 C 0.97503 0.91155 0.87791 0.0
C1116 C 0.98163 0.92661 0.90771 0.0
C1117 C 0.99036 0.92309 0.95422 0.0
C1118 C 0.99237 0.90452 0.97117 0.0
C1119 C 0.9858 0.88941 0.94151 0.0
H1120 H 0.99559 0.93473 0.97715 0.0
H1121 H 0.92953 0.7914 0.68048 0.0
H1122 H 0.7431 0.93498 0.92262 0.0
H1123 H 0.72481 0.94594 0.85011 0.0
H1124 H 0.67252 0.9309 0.92207 0.0
H1125 H 0.69073 0.91869 0.9933 0.0
H1126 H 0.66515 0.93542 0.82538 0.0
H1127 H 0.69828 0.97157 0.95861 0.0
H1128 H 0.72716 0.98119 0.00831 0.0
H1129 H 0.754 1.00099 0.87598 0.0
H1130 H 0.72529 0.99131 0.82549 0.0
H1131 H 0.60966 0.01211 0.87169 0.0
H1132 H 0.6369 0.9917 0.88381 0.0
H1133 H 0.65678 0.0078 0.73943 0.0
H1134 H 0.62909 0.0278 0.72598 0.0
H1135 H 0.68459 1.00308 0.84512 0.0
H1136 H 0.64174 0.97324 0.71955 0.0
H1137 H 0.60853 0.96705 0.68942 0.0
H1138 H 0.59673 0.93693 0.8246 0.0
H1139 H 0.62973 0.94331 0.85587 0.0
C1140 C 0.72775 0.93278 0.92184 0.0
C1141 C 0.71828 0.92685 0.96475 0.0
C1142 C 0.71727 0.93923 0.88028 0.0
C1143 C 0.69735 0.94021 0.88197 0.0
C1144 C 0.68792 0.93075 0.92045 0.0
C1145 C 0.69837 0.92389 0.96147 0.0
C1146 C 0.68706 0.95497 0.85332 0.0
C1147 C 0.66967 0.95016 0.82844 0.0
C1148 C 0.69273 0.97433 0.85805 0.0
C1149 C 0.70979 0.98056 0.88831 0.0
C1150 C 0.71037 0.97796 0.94018 0.0
C1151 C 0.7267 0.98339 0.96846 0.0
C1152 C 0.74243 0.99163 0.94529 0.0
C1153 C 0.74182 0.99456 0.89384 0.0
C1154 C 0.72553 0.98911 0.86537 0.0
C1155 C 0.61995 0.01153 0.84275 0.0
C1156 C 0.6171 0.02135 0.79764 0.0
C1157 C 0.63551 0.99996 0.84984 0.0
C1158 C 0.64859 0.99818 0.81223 0.0
C1159 C 0.64673 0.00907 0.76873 0.0
C1160 C 0.63099 0.02054 0.76132 0.0
C1161 C 0.6629 0.98344 0.81738 0.0
C1162 C 0.68076 0.9883 0.83892 0.0
C1163 C 0.65745 0.96422 0.81071 0.0
C1164 C 0.63819 0.95878 0.79004 0.0
C1165 C 0.63206 0.96524 0.74274 0.0
C1166 C 0.61326 0.96175 0.72551 0.0
C1167 C 0.60051 0.95162 0.75506 0.0
C1168 C 0.6066 0.94475 0.80164 0.0
C1169 C 0.62537 0.94828 0.81912 0.0
H1170 H 0.5859 0.94917 0.74191 0.0
H1171 H 0.75507 0.9958 0.96723 0.0
H1172 H 0.41162 0.72792 0.9894 0.0
H1173 H 0.40068 0.70836 0.91793 0.0
H1174 H 0.45865 0.69189 0.89835 0.0
H1175 H 0.46944 0.71129 0.96843 0.0
H1176 H 0.44023 0.69738 0.80966 0.0
H1177 H 0.42785 0.66548 0.9709 0.0
H1178 H 0.41146 0.66307 0.05037 0.0
H1179 H 0.35712 0.66462 0.97188 0.0
H1180 H 0.37326 0.66722 0.89197 0.0
H1181 H 0.46621 0.60681 0.77599 0.0
H1182 H 0.45736 0.6379 0.80255 0.0
H1183 H 0.3981 0.62395 0.76786 0.0
H1184 H 0.40698 0.59236 0.74116 0.0
H1185 H 0.40344 0.6397 0.8589 0.0
H1186 H 0.4215 0.6569 0.69584 0.0
H1187 H 0.44186 0.65564 0.62326 0.0
H1188 H 0.48891 0.68021 0.70902 0.0
H1189 H 0.46902 0.6813 0.78233 0.0
C1190 C 0.42195 0.72031 0.96908 0.0
C1191 C 0.44128 0.72075 0.9847 0.0
C1192 C 0.41572 0.70921 0.92842 0.0
C1193 C 0.42885 0.69863 0.90298 0.0
C1194 C 0.44827 0.69999 0.91718 0.0
C1195 C 0.45441 0.71089 0.9576 0.0
C1196 C 0.42279 0.68438 0.86531 0.0
C1197 C 0.43189 0.68486 0.81976 0.0
C1198 C 0.41137 0.66836 0.87786 0.0
C1199 C 0.40172 0.66679 0.92571 0.0
C1200 C 0.41241 0.66542 0.97071 0.0
C1201 C 0.40317 0.66401 0.01577 0.0
C1202 C 0.38326 0.66376 0.01619 0.0
C1203 C 0.37254 0.66487 0.97151 0.0
C1204 C 0.38172 0.66632 0.92634 0.0
C1205 C 0.45132 0.61043 0.77304 0.0
C1206 C 0.43731 0.59724 0.75595 0.0
C1207 C 0.44627 0.62826 0.78808 0.0
C1208 C 0.42712 0.63345 0.78583 0.0
C1209 C 0.41298 0.6203 0.76915 0.0
C1210 C 0.41806 0.60229 0.75422 0.0
C1211 C 0.42221 0.65211 0.80517 0.0
C1212 C 0.4109 0.65251 0.84702 0.0
C1213 C 0.43194 0.66883 0.78962 0.0
C1214 C 0.44369 0.66922 0.74468 0.0
C1215 C 0.43618 0.66207 0.69923 0.0
C1216 C 0.44766 0.66135 0.65796 0.0
C1217 C 0.46667 0.66781 0.6616 0.0
C1218 C 0.47418 0.67522 0.70628 0.0
C1219 C 0.46278 0.67595 0.74767 0.0
H1220 H 0.47564 0.667 0.62993 0.0
H1221 H 0.37613 0.66266 0.05111 0.0
H1222 H 0.83378 0.58832 0.02681 0.0
H1223 H 0.85416 0.57793 0.96153 0.0
H1224 H 0.80465 0.55598 0.87873 0.0
H1225 H 0.7842 0.56613 0.9446 0.0
H1226 H 0.82949 0.52917 0.89951 0.0
H1227 H 0.83333 0.59035 0.82796 0.0
H1228 H 0.83746 0.62502 0.82434 0.0
H1229 H 0.895 0.62104 0.88253 0.0
H1230 H 0.89114 0.58637 0.88736 0.0
H1231 H 0.89771 0.48656 0.74903 0.0
H1232 H 0.87109 0.50559 0.77311 0.0
H1233 H 0.90895 0.53734 0.87334 0.0
H1234 H 0.93569 0.51903 0.84791 0.0
H1235 H 0.88581 0.56038 0.82433 0.0
H1236 H 0.87895 0.50098 0.91405 0.0
H1237 H 0.87521 0.46632 0.92148 0.0
H1238 H 0.82347 0.4675 0.8314 0.0
H1239 H 0.82704 0.50217 0.82298 0.0
C1240 C 0.82721 0.5818 0.99395 0.0
C1241 C 0.80747 0.57784 0.99092 0.0
C1242 C 0.83884 0.57599 0.95645 0.0
C1243 C 0.83092 0.56616 0.91522 0.0
C1244 C 0.81103 0.56358 0.91019 0.0
C1245 C 0.79936 0.56947 0.94768 0.0
C1246 C 0.84361 0.55584 0.88288 0.0
C1247 C 0.84148 0.53607 0.88166 0.0
C1248 C 0.8595 0.56479 0.86069 0.0
C1249 C 0.86189 0.5857 0.85827 0.0
C1250 C 0.84681 0.59685 0.84042 0.0
C1251 C 0.84912 0.61652 0.83808 0.0
C1252 C 0.86647 0.62523 0.85326 0.0
C1253 C 0.88156 0.61428 0.87079 0.0
C1254 C 0.87933 0.59461 0.87327 0.0
C1255 C 0.90036 0.49764 0.77608 0.0
C1256 C 0.91879 0.50111 0.79704 0.0
C1257 C 0.88513 0.50844 0.78995 0.0
C1258 C 0.88802 0.52279 0.82531 0.0
C1259 C 0.9064 0.52635 0.84596 0.0
C1260 C 0.92162 0.51564 0.83199 0.0
C1261 C 0.87191 0.5338 0.84232 0.0
C1262 C 0.87346 0.55361 0.84073 0.0
C1263 C 0.85554 0.52492 0.86231 0.0
C1264 C 0.85339 0.50411 0.86735 0.0
C1265 C 0.86686 0.49382 0.89551 0.0
C1266 C 0.86476 0.47418 0.89996 0.0
C1267 C 0.84915 0.46471 0.87678 0.0
C1268 C 0.83557 0.47486 0.84922 0.0
C1269 C 0.83763 0.49449 0.84461 0.0
H1270 H 0.84754 0.44951 0.88028 0.0
H1271 H 0.86823 0.64045 0.85138 0.0
H1272 H 0.02013 0.19306 0.96489 0.0
H1273 H 0.01882 0.16381 0.9173 0.0
H1274 H 0.02798 0.19562 0.78257 0.0
H1275 H 0.02914 0.2251 0.83004 0.0
H1276 H 1.00035 0.16599 0.76981 0.0
H1277 H 0.06446 0.17446 0.83647 0.0
H1278 H 0.08911 0.18018 0.90269 0.0
H1279 H 0.07033 0.12986 0.97914 0.0
H1280 H 0.04536 0.12399 0.91371 0.0
H1281 H 0.02178 0.08464 0.62861 0.0
H1282 H 0.02288 0.11583 0.66747 0.0
H1283 H 0.02473 0.08935 0.8125 0.0
H1284 H 0.02439 0.05834 0.77401 0.0
H1285 H 0.04776 0.11772 0.81599 0.0
H1286 H 0.9828 0.10968 0.7545 0.0
H1287 H 0.95719 0.10365 0.69092 0.0
H1288 H 0.97619 0.15233 0.60792 0.0
H1289 H 1.00207 0.15851 0.67077 0.0
C1290 C 0.02151 0.19394 0.92501 0.0
C1291 C 0.02473 0.21153 0.90142 0.0
C1292 C 0.02093 0.17713 0.89785 0.0
C1293 C 0.02351 0.17742 0.84632 0.0
C1294 C 0.02601 0.19498 0.82226 0.0
C1295 C 0.02676 0.21183 0.84953 0.0
C1296 C 0.02433 0.15934 0.81823 0.0
C1297 C 0.01088 0.15553 0.77942 0.0
C1298 C 0.03781 0.14548 0.83124 0.0
C1299 C 0.05293 0.14888 0.8704 0.0
C1300 C 0.06549 0.16469 0.86758 0.0
C1301 C 0.07953 0.16795 0.90495 0.0
C1302 C 0.08125 0.15542 0.94515 0.0
C1303 C 0.06897 0.13957 0.948 0.0
C1304 C 0.05488 0.13626 0.91076 0.0
C1305 C 0.0225 0.08547 0.66878 0.0
C1306 C 0.023 0.06889 0.69807 0.0
C1307 C 0.02299 0.10336 0.69107 0.0
C1308 C 0.02358 0.10512 0.74321 0.0
C1309 C 0.0243 0.08855 0.77231 0.0
C1310 C 0.02409 0.07073 0.75012 0.0
C1311 C 0.02353 0.12407 0.76788 0.0
C1312 C 0.03721 0.12812 0.8061 0.0
C1313 C 0.01011 0.13803 0.75464 0.0
C1314 C 0.99448 0.13444 0.71706 0.0
C1315 C 0.98158 0.11902 0.72253 0.0
C1316 C 0.96701 0.11559 0.68665 0.0
C1317 C 0.9651 0.12757 0.64534 0.0
C1318 C 0.97771 0.14305 0.63991 0.0
C1319 C 0.99232 0.14653 0.67566 0.0
H1320 H 0.95382 0.12488 0.61759 0.0
H1321 H 0.09213 0.15797 0.97405 0.0
H1322 H 0.35002 0.03649 1.00261 0.0
H1323 H 0.37781 0.03506 0.95076 0.0
H1324 H 0.34271 0.00981 0.83307 0.0
H1325 H 0.31474 0.01108 0.88504 0.0
H1326 H 0.37794 0.99214 0.84829 0.0
H1327 H 0.35531 0.05546 0.82547 0.0
H1328 H 0.34543 0.0865 0.85436 0.0
H1329 H 0.40069 0.09633 0.92483 0.0
H1330 H 0.41082 0.06522 0.89692 0.0
H1331 H 0.4442 1.00103 0.6578 0.0
H1332 H 0.4159 1.00294 0.70736 0.0
H1333 H 0.44722 0.03913 0.81163 0.0
H1334 H 0.47535 0.038 0.76049 0.0
H1335 H 0.41361 0.05114 0.80421 0.0
H1336 H 0.4369 0.98913 0.83194 0.0
H1337 H 0.44787 0.95769 0.80943 0.0
H1338 H 0.39335 0.9446 0.73835 0.0
H1339 H 0.38213 0.97607 0.75988 0.0
C1340 C 0.34819 0.03039 0.96594 0.0
C1341 C 0.33005 0.02383 0.94819 0.0
C1342 C 0.36412 0.02975 0.9361 0.0
C1343 C 0.36241 0.02248 0.8877 0.0
C1344 C 0.34443 0.01553 0.87019 0.0
C1345 C 0.32841 0.01635 0.89988 0.0
C1346 C 0.37932 0.02237 0.85531 0.0
C1347 C 0.38558 1.00506 0.83804 0.0
C1348 C 0.38976 0.03914 0.84322 0.0
C1349 C 0.38376 0.05794 0.85946 0.0
C1350 C 0.36531 0.06418 0.8474 0.0
C1351 C 0.35968 0.0818 0.86356 0.0
C1352 C 0.37241 0.09336 0.89151 0.0
C1353 C 0.39083 0.08735 0.90322 0.0
C1354 C 0.39654 0.06974 0.88719 0.0
C1355 C 0.44506 0.00949 0.69116 0.0
C1356 C 0.46213 0.01928 0.70524 0.0
C1357 C 0.42884 0.01045 0.71985 0.0
C1358 C 0.42936 0.02076 0.76436 0.0
C1359 C 0.4463 0.03098 0.77776 0.0
C1360 C 0.46244 0.03033 0.74843 0.0
C1361 C 0.41235 0.02083 0.79683 0.0
C1362 C 0.40604 0.03816 0.81426 0.0
C1363 C 0.40208 1.00401 0.80991 0.0
C1364 C 0.40874 0.98503 0.79711 0.0
C1365 C 0.42729 0.9796 0.81123 0.0
C1366 C 0.43355 0.96176 0.79868 0.0
C1367 C 0.42133 0.94917 0.77237 0.0
C1368 C 0.40281 0.95437 0.75867 0.0
C1369 C 0.39648 0.9722 0.77108 0.0
H1370 H 0.4262 0.93537 0.76268 0.0
H1371 H 0.36802 0.10699 0.90401 0.0
H1372 H 0.49331 0.31992 0.92956 0.0
H1373 H 0.49173 0.34974 0.8835 0.0
H1374 H 0.52456 0.32651 0.76775 0.0
H1375 H 0.52595 0.29648 0.8132 0.0
H1376 H 0.53885 0.36076 0.79543 0.0
H1377 H 0.47724 0.33469 0.74825 0.0
H1378 H 0.44552 0.31998 0.76153 0.0
H1379 H 0.43021 0.36793 0.84627 0.0
H1380 H 0.46196 0.38282 0.83409 0.0
H1381 H 0.52852 0.44111 0.63492 0.0
H1382 H 0.52725 0.40878 0.66825 0.0
H1383 H 0.49316 0.427 0.78788 0.0
H1384 H 0.49412 0.45915 0.75462 0.0
H1385 H 0.47929 0.39421 0.75265 0.0
H1386 H 0.54118 0.41925 0.80512 0.0
H1387 H 0.57295 0.43414 0.79357 0.0
H1388 H 0.58773 0.38827 0.70065 0.0
H1389 H 0.55592 0.37322 0.71112 0.0
C1390 C 0.49981 0.32093 0.89374 0.0
C1391 C 0.50976 0.30567 0.87526 0.0
C1392 C 0.49897 0.33809 0.86748 0.0
C1393 C 0.50799 0.34043 0.82197 0.0
C1394 C 0.51757 0.32512 0.80286 0.0
C1395 C 0.51837 0.30793 0.82901 0.0
C1396 C 0.50815 0.35909 0.79558 0.0
C1397 C 0.5258 0.36791 0.78528 0.0
C1398 C 0.49118 0.36869 0.78328 0.0
C1399 C 0.47205 0.3598 0.79062 0.0
C1400 C 0.46717 0.34204 0.77006 0.0
C1401 C 0.44917 0.33367 0.77733 0.0
C1402 C 0.43588 0.34299 0.80483 0.0
C1403 C 0.44054 0.36072 0.82502 0.0
C1404 C 0.45853 0.36914 0.8179 0.0
C1405 C 0.5207 0.43824 0.66824 0.0
C1406 C 0.51148 0.45283 0.69209 0.0
C1407 C 0.52005 0.41973 0.6874 0.0
C1408 C 0.51026 0.41542 0.73096 0.0
C1409 C 0.5008 0.4299 0.75426 0.0
C1410 C 0.50143 0.44836 0.73519 0.0
C1411 C 0.50999 0.39594 0.75286 0.0
C1412 C 0.49233 0.38698 0.76241 0.0
C1413 C 0.52696 0.38624 0.76467 0.0
C1414 C 0.5461 0.39522 0.75844 0.0
C1415 C 0.55115 0.41241 0.7819 0.0
C1416 C 0.56917 0.42087 0.77561 0.0
C1417 C 0.58233 0.41218 0.74627 0.0
C1418 C 0.57751 0.39499 0.72328 0.0
C1419 C 0.55949 0.38649 0.7294 0.0
H1420 H 0.59628 0.41875 0.74145 0.0
H1421 H 0.42195 0.3365 0.8104 0.0
H1422 H 0.22688 0.49873 0.8517 0.0
H1423 H 0.19725 0.50502 0.80417 0.0
H1424 H 0.17293 0.45178 0.85414 0.0
H1425 H 0.20245 0.44535 0.90099 0.0
H1426 H 0.16288 0.45686 0.76078 0.0
H1427 H 0.16251 0.49496 0.90738 0.0
H1428 H 0.17507 0.51874 0.96743 0.0
H1429 H 0.17494 0.56115 0.85233 0.0
H1430 H 0.16262 0.53754 0.79143 0.0
H1431 H 0.0639 0.47431 0.72172 0.0
H1432 H 0.0957 0.46785 0.75662 0.0
H1433 H 0.1173 0.52049 0.69575 0.0
H1434 H 0.08549 0.52722 0.66134 0.0
H1435 H 0.12956 0.5163 0.79002 0.0
H1436 H 0.12643 0.47735 0.64523 0.0
H1437 H 0.11275 0.45285 0.5885 0.0
H1438 H 0.11833 0.41109 0.70422 0.0
H1439 H 0.13166 0.43536 0.76186 0.0
C1440 C 0.21524 0.48834 0.85238 0.0
C1441 C 0.21711 0.47152 0.88014 0.0
C1442 C 0.19827 0.49196 0.82526 0.0
C1443 C 0.18267 0.47899 0.82598 0.0
C1444 C 0.18471 0.46201 0.85271 0.0
C1445 C 0.20168 0.45832 0.87944 0.0
C1446 C 0.16403 0.48322 0.80021 0.0
C1447 C 0.15552 0.46979 0.76755 0.0
C1448 C 0.15448 0.50022 0.8082 0.0
C1449 C 0.16185 0.51444 0.84475 0.0
C1450 C 0.1653 0.50933 0.89481 0.0
C1451 C 0.17235 0.52278 0.929 0.0
C1452 C 0.17585 0.54143 0.91367 0.0
C1453 C 0.17226 0.54669 0.86413 0.0
C1454 C 0.16523 0.53328 0.82976 0.0
C1455 C 0.07541 0.4845 0.71548 0.0
C1456 C 0.07204 0.50132 0.68872 0.0
C1457 C 0.09365 0.48073 0.73533 0.0
C1458 C 0.10901 0.49359 0.72851 0.0
C1459 C 0.10571 0.51034 0.70159 0.0
C1460 C 0.08747 0.51415 0.68184 0.0
C1461 C 0.12835 0.4899 0.7508 0.0
C1462 C 0.13698 0.50343 0.78291 0.0
C1463 C 0.13786 0.47288 0.74271 0.0
C1464 C 0.12992 0.45823 0.70795 0.0
C1465 C 0.12462 0.46297 0.65862 0.0
C1466 C 0.11695 0.44913 0.62631 0.0
C1467 C 0.11468 0.43046 0.64274 0.0
C1468 C 0.12009 0.42557 0.69153 0.0
C1469 C 0.1277 0.43936 0.72404 0.0
H1470 H 0.10875 0.41978 0.61766 0.0
H1471 H 0.18131 0.55183 0.94021 0.0
H1472 H 0.96412 0.81361 0.40574 0.0
H1473 H 0.9676 0.84285 0.45287 0.0
H1474 H 0.01996 0.85679 0.38056 0.0
H1475 H 0.01607 0.82823 0.33054 0.0
H1476 H 0.01885 0.86089 0.49458 0.0
H1477 H 0.98757 0.87921 0.33836 0.0
H1478 H 0.96235 0.87625 0.27244 0.0
H1479 H 0.91968 0.88542 0.3792 0.0
H1480 H 0.94466 0.88814 0.44593 0.0
H1481 H 0.03526 0.95576 0.56515 0.0
H1482 H 0.03169 0.9253 0.5245 0.0
H1483 H 0.97065 0.9265 0.53864 0.0
H1484 H 0.97419 0.95787 0.5765 0.0
H1485 H 0.97539 0.91342 0.45572 0.0
H1486 H 1.00339 0.89227 0.61254 0.0
H1487 H 0.02642 0.89093 0.68397 0.0
H1488 H 0.07238 0.88533 0.58494 0.0
H1489 H 0.04957 0.8859 0.51294 0.0
C1490 C 0.97631 0.82289 0.3991 0.0
C1491 C 0.98967 0.81838 0.36339 0.0
C1492 C 0.97834 0.8396 0.4266 0.0
C1493 C 0.99397 0.85208 0.42005 0.0
C1494 C 0.00778 0.84734 0.38628 0.0
C1495 C 1.00558 0.83082 0.35794 0.0
C1496 C 0.99558 0.87029 0.44749 0.0
C1497 C 0.0095 0.87249 0.48582 0.0
C1498 C 0.98295 0.88515 0.43731 0.0
C1499 C 0.96796 0.88366 0.3972 0.0
C1500 C 0.9728 0.88041 0.34786 0.0
C1501 C 0.95855 0.87882 0.31033 0.0
C1502 C 0.93942 0.88059 0.32165 0.0
C1503 C 0.9345 0.88402 0.3705 0.0
C1504 C 0.9487 0.8856 0.40818 0.0
C1505 C 0.02105 0.94952 0.5599 0.0
C1506 C 1.005 0.9593 0.57422 0.0
C1507 C 0.01902 0.93186 0.53706 0.0
C1508 C 1.00092 0.92304 0.52934 0.0
C1509 C 0.98484 0.93279 0.54402 0.0
C1510 C 0.98684 0.95076 0.5658 0.0
C1511 C 0.99878 0.90428 0.50352 0.0
C1512 C 0.98474 0.9019 0.46515 0.0
C1513 C 0.01103 0.88905 0.51449 0.0
C1514 C 0.02483 0.88936 0.55744 0.0
C1515 C 0.01842 0.89089 0.60603 0.0
C1516 C 0.03141 0.89017 0.64659 0.0
C1517 C 0.05084 0.88831 0.639 0.0
C1518 C 0.05733 0.88686 0.59078 0.0
C1519 C 0.04437 0.88721 0.55011 0.0
H1520 H 0.06086 0.88789 0.6705 0.0
H1521 H 0.92841 0.87936 0.29254 0.0
H1522 H 0.68355 0.99611 0.27515 0.0
H1523 H 0.65512 0.99751 0.32432 0.0
H1524 H 0.69038 0.99836 0.45901 0.0
H1525 H 0.71892 0.99618 0.40962 0.0
H1526 H 0.66139 0.97696 0.47522 0.0
H1527 H 0.66678 0.03918 0.40648 0.0
H1528 H 0.67015 0.06358 0.34115 0.0
H1529 H 0.61757 0.04388 0.27012 0.0
H1530 H 0.614 0.0192 0.33467 0.0
H1531 H 0.58382 0.00512 0.62405 0.0
H1532 H 0.61381 1.00367 0.58065 0.0
H1533 H 0.58229 0.99499 0.44187 0.0
H1534 H 0.55231 0.9965 0.48481 0.0
H1535 H 0.61015 0.02156 0.43175 0.0
H1536 H 0.60553 0.95907 0.50406 0.0
H1537 H 0.60278 0.93571 0.57217 0.0
H1538 H 0.65493 0.95774 0.64065 0.0
H1539 H 0.65777 0.98151 0.57356 0.0
C1540 C 0.6853 0.99682 0.31524 0.0
C1541 C 0.7036 0.99625 0.33833 0.0
C1542 C 0.66895 0.99768 0.34349 0.0
C1543 C 0.6704 0.99847 0.39573 0.0
C1544 C 0.68871 0.99782 0.4189 0.0
C1545 C 0.70507 0.99663 0.3906 0.0
C1546 C 0.65284 0.99957 0.42591 0.0
C1547 C 0.65037 0.98696 0.46609 0.0
C1548 C 0.63813 0.01238 0.41407 0.0
C1549 C 0.64022 0.02723 0.37519 0.0
C1550 C 0.656 0.03997 0.37674 0.0
C1551 C 0.65794 0.05386 0.33987 0.0
C1552 C 0.64411 0.05525 0.30145 0.0
C1553 C 0.62828 0.04278 0.29987 0.0
C1554 C 0.62629 0.02884 0.33662 0.0
C1555 C 0.58323 1.00275 0.58434 0.0
C1556 C 0.56553 1.0009 0.55807 0.0
C1557 C 0.60046 1.00188 0.55952 0.0
C1558 C 0.60044 0.99912 0.50782 0.0
C1559 C 0.58278 0.99714 0.48168 0.0
C1560 C 0.56559 0.99792 0.50644 0.0
C1561 C 0.61867 0.99884 0.48049 0.0
C1562 C 0.62125 0.01164 0.44092 0.0
C1563 C 0.63356 0.9864 0.4934 0.0
C1564 C 0.63176 0.9722 0.534 0.0
C1565 C 0.61631 0.95907 0.53391 0.0
C1566 C 0.61475 0.94573 0.57231 0.0
C1567 C 0.62866 0.94526 0.61073 0.0
C1568 C 0.64415 0.95814 0.61089 0.0
C1569 C 0.64573 0.97156 0.57272 0.0
H1570 H 0.62744 0.93491 0.64039 0.0
H1571 H 0.64563 0.06602 0.27294 0.0
H1572 H 0.48489 0.69825 0.35898 0.0
H1573 H 0.48716 0.66977 0.40992 0.0
H1574 H 0.547 0.68217 0.43987 0.0
H1575 H 0.54483 0.71095 0.38869 0.0
H1576 H 0.54042 0.64522 0.416 0.0
H1577 H 0.51404 0.68823 0.53204 0.0
H1578 H 0.49108 0.71182 0.55665 0.0
H1579 H 0.44471 0.67191 0.52867 0.0
H1580 H 0.46741 0.64808 0.50393 0.0
H1581 H 0.54836 0.57008 0.59201 0.0
H1582 H 0.54919 0.60145 0.55296 0.0
H1583 H 0.48802 0.5981 0.52946 0.0
H1584 H 0.48704 0.56719 0.57015 0.0
H1585 H 0.49714 0.63193 0.55455 0.0
H1586 H 0.52106 0.58976 0.43488 0.0
H1587 H 0.54215 0.5657 0.40341 0.0
H1588 H 0.59083 0.60296 0.4297 0.0
H1589 H 0.57004 0.62716 0.46195 0.0
C1590 C 0.4985 0.6952 0.37711 0.0
C1591 C 0.51463 0.70714 0.37013 0.0
C1592 C 0.49978 0.6788 0.40622 0.0
C1593 C 0.51718 0.67391 0.42956 0.0
C1594 C 0.53338 0.68566 0.42245 0.0
C1595 C 0.53213 0.70212 0.39311 0.0
C1596 C 0.51841 0.65624 0.46011 0.0
C1597 C 0.53123 0.64245 0.44695 0.0
C1598 C 0.50601 0.65233 0.49952 0.0
C1599 C 0.49241 0.66642 0.51592 0.0
C1600 C 0.49894 0.6845 0.5311 0.0
C1601 C 0.48598 0.69791 0.54507 0.0
C1602 C 0.46644 0.69339 0.54404 0.0
C1603 C 0.45984 0.67541 0.52931 0.0
C1604 C 0.47276 0.66191 0.51558 0.0
C1605 C 0.53508 0.57607 0.57874 0.0
C1606 C 0.51765 0.56601 0.58398 0.0
C1607 C 0.53557 0.594 0.55609 0.0
C1608 C 0.5187 0.60212 0.53721 0.0
C1609 C 0.50127 0.59224 0.54351 0.0
C1610 C 0.50074 0.57447 0.56673 0.0
C1611 C 0.5191 0.62072 0.51028 0.0
C1612 C 0.50654 0.63471 0.52404 0.0
C1613 C 0.53151 0.62468 0.4708 0.0
C1614 C 0.54403 0.61018 0.45136 0.0
C1615 C 0.53628 0.59276 0.43429 0.0
C1616 C 0.54818 0.57911 0.41627 0.0
C1617 C 0.56782 0.58278 0.41471 0.0
C1618 C 0.57561 0.60013 0.43103 0.0
C1619 C 0.56378 0.61382 0.44917 0.0
H1620 H 0.57701 0.57219 0.40073 0.0
H1621 H 0.45643 0.70379 0.55485 0.0
H1622 H 0.82952 0.57739 0.36364 0.0
H1623 H 0.8595 0.5711 0.40841 0.0
H1624 H 0.83114 0.5284 0.49657 0.0
H1625 H 0.80075 0.53479 0.45199 0.0
H1626 H 0.85872 0.55269 0.55184 0.0
H1627 H 0.8546 0.51367 0.40595 0.0
H1628 H 0.84936 0.50757 0.3164 0.0
H1629 H 0.89585 0.54595 0.28349 0.0
H1630 H 0.90118 0.5525 0.37284 0.0
H1631 H 0.94583 0.5119 0.63884 0.0
H1632 H 0.91363 0.51744 0.60553 0.0
H1633 H 0.93704 0.55118 0.48676 0.0
H1634 H 0.96927 0.54494 0.5187 0.0
H1635 H 0.91052 0.52967 0.44966 0.0
H1636 H 0.9149 0.56984 0.59196 0.0
H1637 H 0.92083 0.57733 0.68048 0.0
H1638 H 0.87465 0.53961 0.71985 0.0
H1639 H 0.86876 0.53147 0.6316 0.0
C1640 C 0.82947 0.56693 0.39325 0.0
C1641 C 0.81263 0.55665 0.4043 0.0
C1642 C 0.84671 0.56325 0.41859 0.0
C1643 C 0.84761 0.54921 0.45562 0.0
C1644 C 0.83076 0.53932 0.46811 0.0
C1645 C 0.81345 0.54289 0.4424 0.0
C1646 C 0.8664 0.54426 0.47884 0.0
C1647 C 0.87 0.54737 0.5298 0.0
C1648 C 0.88123 0.53776 0.44979 0.0
C1649 C 0.87818 0.53369 0.39607 0.0
C1650 C 0.86361 0.52091 0.3796 0.0
C1651 C 0.86064 0.51736 0.32888 0.0
C1652 C 0.87224 0.5264 0.29427 0.0
C1653 C 0.88686 0.53897 0.31034 0.0
C1654 C 0.88988 0.5426 0.36102 0.0
C1655 C 0.94413 0.52052 0.60568 0.0
C1656 C 0.96017 0.52792 0.58141 0.0
C1657 C 0.92565 0.5238 0.58678 0.0
C1658 C 0.92276 0.53495 0.54381 0.0
C1659 C 0.9388 0.54249 0.51985 0.0
C1660 C 0.95727 0.53896 0.53827 0.0
C1661 C 0.90315 0.53838 0.52282 0.0
C1662 C 0.89933 0.53492 0.47208 0.0
C1663 C 0.88824 0.5448 0.55207 0.0
C1664 C 0.89154 0.54987 0.60515 0.0
C1665 C 0.90611 0.563 0.61951 0.0
C1666 C 0.90949 0.56735 0.66966 0.0
C1667 C 0.89822 0.55884 0.70581 0.0
C1668 C 0.88347 0.54606 0.69185 0.0
C1669 C 0.8801 0.54157 0.64175 0.0
H1670 H 0.90091 0.56221 0.74457 0.0
H1671 H 0.86991 0.52363 0.25502 0.0
loop_
_geom_bond_atom_site_label_1
_geom_bond_atom_site_label_2
_geom_bond_distance
_geom_bond_site_symmetry_2
_ccdc_geom_bond_type
C0 C1 1.386 . S
C0 C2 1.397 1_556 S
C0 H24 0.931 . S
C1 C0 1.386 . S
C1 C5 1.397 1_556 S
C2 C0 1.397 1_554 S
C2 C3 1.384 . S
C2 H25 0.930 . S
C3 C2 1.384 . S
C3 C4 1.377 . S
C3 C6 1.481 . S
C4 C3 1.377 . S
C4 C5 1.389 . S
C4 H26 0.929 . S
C5 C1 1.397 1_554 S
C5 C4 1.389 . S
C5 H27 0.931 . S
C6 C3 1.481 . S
C6 C7 1.387 . S
C6 C11 1.390 . S
C7 C6 1.387 . S
C7 C8 1.401 . S
C7 H28 0.930 . S
C8 C7 1.401 . S
C8 C9 1.376 . S
C8 C17 1.511 . S
C9 C8 1.376 . S
C9 C10 1.392 . S
C9 H30 0.931 . S
C10 C9 1.392 . S
C10 C11 1.361 . S
C10 C12 1.500 . S
C11 C6 1.390 . S
C11 C10 1.361 . S
C11 H29 0.931 . S
C12 C10 1.500 . S
C12 C13 1.371 . S
C12 C14 1.365 . S
C13 C12 1.371 . S
C13 C23 1.386 . S
C13 H31 0.931 . S
C14 C12 1.365 . S
C14 C15 1.409 . S
C14 H32 0.929 . S
C15 C14 1.409 . S
C15 C16 1.380 . S
C15 H33 0.930 . S
C16 C15 1.380 . S
C16 C23 1.357 . S
C17 C8 1.511 . S
C17 C18 1.341 . S
C17 C19 1.371 . S
C18 C17 1.341 . S
C18 C22 1.394 . S
C18 H34 0.930 . S
C19 C17 1.371 . S
C19 C20 1.392 . S
C19 H35 0.931 . S
C20 C19 1.392 . S
C20 C21 1.331 . S
C20 H38 0.932 . S
C21 C20 1.331 . S
C21 C22 1.336 . S
C22 C18 1.394 . S
C22 C21 1.336 . S
C22 H37 0.929 . S
C23 C13 1.386 . S
C23 C16 1.357 . S
C23 H36 0.928 . S
H24 C0 0.931 . S
H25 C2 0.930 . S
H26 C4 0.929 . S
H27 C5 0.931 . S
H28 C7 0.930 . S
H29 C11 0.931 . S
H30 C9 0.931 . S
H31 C13 0.931 . S
H32 C14 0.929 . S
H33 C15 0.930 . S
H34 C18 0.930 . S
H35 C19 0.931 . S
H36 C23 0.928 . S
H37 C22 0.929 . S
H38 C20 0.932 . S
C39 C40 1.386 . S
C39 C41 1.397 . S
C39 H63 0.931 . S
C40 C39 1.386 . S
C40 C44 1.397 . S
C41 C39 1.397 . S
C41 C42 1.384 . S
C41 H64 0.930 . S
C42 C41 1.384 . S
C42 C43 1.377 . S
C42 C45 1.481 . S
C43 C42 1.377 . S
C43 C44 1.389 . S
C43 H65 0.929 . S
C44 C40 1.397 . S
C44 C43 1.389 . S
C44 H66 0.931 . S
C45 C42 1.481 . S
C45 C46 1.387 . S
C45 C50 1.390 . S
C46 C45 1.387 . S
C46 C47 1.401 . S
C46 H67 0.930 . S
C47 C46 1.401 . S
C47 C48 1.376 . S
C47 C56 1.511 . S
C48 C47 1.376 . S
C48 C49 1.392 . S
C48 H69 0.931 . S
C49 C48 1.392 . S
C49 C50 1.361 . S
C49 C51 1.500 . S
C50 C45 1.390 . S
C50 C49 1.361 . S
C50 H68 0.931 . S
C51 C49 1.500 . S
C51 C52 1.371 . S
C51 C53 1.365 . S
C52 C51 1.371 . S
C52 C62 1.386 . S
C52 H70 0.931 . S
C53 C51 1.365 . S
C53 C54 1.409 . S
C53 H71 0.929 . S
C54 C53 1.409 . S
C54 C55 1.380 . S
C54 H72 0.930 . S
C55 C54 1.380 . S
C55 C62 1.357 . S
C56 C47 1.511 . S
C56 C57 1.341 . S
C56 C58 1.371 . S
C57 C56 1.341 . S
C57 C61 1.394 . S
C57 H73 0.930 . S
C58 C56 1.371 . S
C58 C59 1.392 . S
C58 H74 0.931 . S
C59 C58 1.392 . S
C59 C60 1.331 . S
C59 H77 0.932 . S
C60 C59 1.331 . S
C60 C61 1.336 . S
C61 C57 1.394 . S
C61 C60 1.336 . S
C61 H76 0.929 . S
C62 C52 1.386 . S
C62 C55 1.357 . S
C62 H75 0.928 . S
H63 C39 0.931 . S
H64 C41 0.930 . S
H65 C43 0.929 . S
H66 C44 0.931 . S
H67 C46 0.930 . S
H68 C50 0.931 . S
H69 C48 0.931 . S
H70 C52 0.931 . S
H71 C53 0.929 . S
H72 C54 0.930 . S
H73 C57 0.930 . S
H74 C58 0.931 . S
H75 C62 0.928 . S
H76 C61 0.929 . S
H77 C59 0.932 . S
C78 C79 1.386 . S
C78 C80 1.397 . S
C78 H102 0.931 . S
C79 C78 1.386 . S
C79 C83 1.397 . S
C80 C78 1.397 . S
C80 C81 1.384 . S
C80 H103 0.930 . S
C81 C80 1.384 . S
C81 C82 1.377 . S
C81 C84 1.481 . S
C82 C81 1.377 . S
C82 C83 1.389 . S
C82 H104 0.929 . S
C83 C79 1.397 . S
C83 C82 1.389 . S
C83 H105 0.931 . S
C84 C81 1.481 . S
C84 C85 1.387 . S
C84 C89 1.390 . S
C85 C84 1.387 . S
C85 C86 1.401 . S
C85 H106 0.930 . S
C86 C85 1.401 . S
C86 C87 1.376 . S
C86 C95 1.511 . S
C87 C86 1.376 . S
C87 C88 1.392 . S
C87 H108 0.931 . S
C88 C87 1.392 . S
C88 C89 1.361 . S
C88 C90 1.500 . S
C89 C84 1.390 . S
C89 C88 1.361 . S
C89 H107 0.931 . S
C90 C88 1.500 . S
C90 C91 1.371 . S
C90 C92 1.365 . S
C91 C90 1.371 . S
C91 C101 1.386 . S
C91 H109 0.931 . S
C92 C90 1.365 . S
C92 C93 1.409 . S
C92 H110 0.929 . S
C93 C92 1.409 . S
C93 C94 1.380 . S
C93 H111 0.930 . S
C94 C93 1.380 . S
C94 C101 1.357 . S
C95 C86 1.511 . S
C95 C96 1.341 . S
C95 C97 1.371 . S
C96 C95 1.341 . S
C96 C100 1.394 . S
C96 H112 0.930 . S
C97 C95 1.371 . S
C97 C98 1.392 . S
C97 H113 0.931 . S
C98 C97 1.392 . S
C98 C99 1.331 . S
C98 H116 0.932 . S
C99 C98 1.331 . S
C99 C100 1.336 . S
C100 C96 1.394 . S
C100 C99 1.336 . S
C100 H115 0.929 . S
C101 C91 1.386 . S
C101 C94 1.357 . S
C101 H114 0.928 . S
H102 C78 0.931 . S
H103 C80 0.930 . S
H104 C82 0.929 . S
H105 C83 0.931 . S
H106 C85 0.930 . S
H107 C89 0.931 . S
H108 C87 0.931 . S
H109 C91 0.931 . S
H110 C92 0.929 . S
H111 C93 0.930 . S
H112 C96 0.930 . S
H113 C97 0.931 . S
H114 C101 0.928 . S
H115 C100 0.929 . S
H116 C98 0.932 . S
C117 C118 1.386 . S
C117 C119 1.397 . S
C117 H141 0.931 . S
C118 C117 1.386 . S
C118 C122 1.397 . S
C119 C117 1.397 . S
C119 C120 1.384 . S
C119 H142 0.930 . S
C120 C119 1.384 . S
C120 C121 1.377 . S
C120 C123 1.481 . S
C121 C120 1.377 . S
C121 C122 1.389 . S
C121 H143 0.929 . S
C122 C118 1.397 . S
C122 C121 1.389 . S
C122 H144 0.931 . S
C123 C120 1.481 . S
C123 C124 1.387 . S
C123 C128 1.390 . S
C124 C123 1.387 . S
C124 C125 1.401 . S
C124 H145 0.930 . S
C125 C124 1.401 . S
C125 C126 1.376 . S
C125 C134 1.511 . S
C126 C125 1.376 . S
C126 C127 1.392 . S
C126 H147 0.931 . S
C127 C126 1.392 . S
C127 C128 1.361 . S
C127 C129 1.500 . S
C128 C123 1.390 . S
C128 C127 1.361 . S
C128 H146 0.931 . S
C129 C127 1.500 . S
C129 C130 1.371 . S
C129 C131 1.365 . S
C130 C129 1.371 . S
C130 C140 1.386 . S
C130 H148 0.931 . S
C131 C129 1.365 . S
C131 C132 1.409 . S
C131 H149 0.929 . S
C132 C131 1.409 . S
C132 C133 1.380 . S
C132 H150 0.930 . S
C133 C132 1.380 . S
C133 C140 1.357 . S
C134 C125 1.511 . S
C134 C135 1.341 . S
C134 C136 1.371 . S
C135 C134 1.341 . S
C135 C139 1.394 . S
C135 H151 0.930 . S
C136 C134 1.371 . S
C136 C137 1.392 . S
C136 H152 0.931 . S
C137 C136 1.392 . S
C137 C138 1.331 . S
C137 H155 0.932 . S
C138 C137 1.331 . S
C138 C139 1.336 . S
C139 C135 1.394 . S
C139 C138 1.336 . S
C139 H154 0.929 . S
C140 C130 1.386 . S
C140 C133 1.357 . S
C140 H153 0.928 1_554 S
H141 C117 0.931 . S
H142 C119 0.930 . S
H143 C121 0.929 . S
H144 C122 0.931 . S
H145 C124 0.930 . S
H146 C128 0.931 . S
H147 C126 0.931 . S
H148 C130 0.931 . S
H149 C131 0.929 . S
H150 C132 0.930 . S
H151 C135 0.930 . S
H152 C136 0.931 . S
H153 C140 0.928 1_556 S
H154 C139 0.929 . S
H155 C137 0.932 . S
C156 C157 1.386 . S
C156 C158 1.397 . S
C156 H180 0.931 . S
C157 C156 1.386 . S
C157 C161 1.397 . S
C158 C156 1.397 . S
C158 C159 1.384 . S
C158 H181 0.930 . S
C159 C158 1.384 . S
C159 C160 1.377 . S
C159 C162 1.481 . S
C160 C159 1.377 . S
C160 C161 1.389 . S
C160 H182 0.929 . S
C161 C157 1.397 . S
C161 C160 1.389 . S
C161 H183 0.931 . S
C162 C159 1.481 . S
C162 C163 1.387 . S
C162 C167 1.390 . S
C163 C162 1.387 . S
C163 C164 1.401 . S
C163 H184 0.930 . S
C164 C163 1.401 . S
C164 C165 1.376 . S
C164 C173 1.511 . S
C165 C164 1.376 . S
C165 C166 1.392 . S
C165 H186 0.931 . S
C166 C165 1.392 . S
C166 C167 1.361 . S
C166 C168 1.500 1_554 S
C167 C162 1.390 . S
C167 C166 1.361 . S
C167 H185 0.931 . S
C168 C166 1.500 1_556 S
C168 C169 1.371 . S
C168 C170 1.365 . S
C169 C168 1.371 . S
C169 C179 1.386 . S
C169 H187 0.931 . S
C170 C168 1.365 . S
C170 C171 1.409 . S
C170 H188 0.929 . S
C171 C170 1.409 . S
C171 C172 1.380 . S
C171 H189 0.930 . S
C172 C171 1.380 . S
C172 C179 1.357 . S
C173 C164 1.511 . S
C173 C174 1.341 . S
C173 C175 1.371 . S
C174 C173 1.341 . S
C174 C178 1.394 . S
C174 H190 0.930 . S
C175 C173 1.371 . S
C175 C176 1.392 . S
C175 H191 0.931 . S
C176 C175 1.392 . S
C176 C177 1.331 . S
C176 H194 0.932 . S
C177 C176 1.331 . S
C177 C178 1.336 . S
C178 C174 1.394 . S
C178 C177 1.336 . S
C178 H193 0.929 . S
C179 C169 1.386 . S
C179 C172 1.357 . S
C179 H192 0.928 . S
H180 C156 0.931 . S
H181 C158 0.930 . S
H182 C160 0.929 . S
H183 C161 0.931 . S
H184 C163 0.930 . S
H185 C167 0.931 . S
H186 C165 0.931 . S
H187 C169 0.931 . S
H188 C170 0.929 . S
H189 C171 0.930 . S
H190 C174 0.930 . S
H191 C175 0.931 . S
H192 C179 0.928 . S
H193 C178 0.929 . S
H194 C176 0.932 . S
C195 C196 1.386 . S
C195 C197 1.397 . S
C195 H219 0.931 . S
C196 C195 1.386 . S
C196 C200 1.397 . S
C197 C195 1.397 . S
C197 C198 1.384 . S
C197 H220 0.930 . S
C198 C197 1.384 . S
C198 C199 1.377 . S
C198 C201 1.481 . S
C199 C198 1.377 . S
C199 C200 1.389 . S
C199 H221 0.929 . S
C200 C196 1.397 . S
C200 C199 1.389 . S
C200 H222 0.931 . S
C201 C198 1.481 . S
C201 C202 1.387 . S
C201 C206 1.390 . S
C202 C201 1.387 . S
C202 C203 1.401 . S
C202 H223 0.930 . S
C203 C202 1.401 . S
C203 C204 1.376 1_554 S
C203 C212 1.511 . S
C204 C203 1.376 1_556 S
C204 C205 1.392 . S
C204 H225 0.931 . S
C205 C204 1.392 . S
C205 C206 1.361 1_556 S
C205 C207 1.500 . S
C206 C201 1.390 . S
C206 C205 1.361 1_554 S
C206 H224 0.931 . S
C207 C205 1.500 . S
C207 C208 1.371 . S
C207 C209 1.365 . S
C208 C207 1.371 . S
C208 C218 1.386 . S
C208 H226 0.931 . S
C209 C207 1.365 . S
C209 C210 1.409 . S
C209 H227 0.929 . S
C210 C209 1.409 . S
C210 C211 1.380 . S
C210 H228 0.930 . S
C211 C210 1.380 . S
C211 C218 1.357 . S
C212 C203 1.511 . S
C212 C213 1.341 . S
C212 C214 1.371 . S
C213 C212 1.341 . S
C213 C217 1.394 . S
C213 H229 0.930 . S
C214 C212 1.371 . S
C214 C215 1.392 . S
C214 H230 0.931 1_554 S
C215 C214 1.392 . S
C215 C216 1.331 . S
C215 H233 0.932 . S
C216 C215 1.331 . S
C216 C217 1.336 . S
C217 C213 1.394 . S
C217 C216 1.336 . S
C217 H232 0.929 . S
C218 C208 1.386 . S
C218 C211 1.357 . S
C218 H231 0.928 . S
H219 C195 0.931 . S
H220 C197 0.930 . S
H221 C199 0.929 . S
H222 C200 0.931 . S
H223 C202 0.930 . S
H224 C206 0.931 . S
H225 C204 0.931 . S
H226 C208 0.931 . S
H227 C209 0.929 . S
H228 C210 0.930 . S
H229 C213 0.930 . S
H230 C214 0.931 1_556 S
H231 C218 0.928 . S
H232 C217 0.929 . S
H233 C215 0.932 . S
C234 C235 1.386 . S
C234 C236 1.397 . S
C234 H258 0.931 . S
C235 C234 1.386 . S
C235 C239 1.397 . S
C236 C234 1.397 . S
C236 C237 1.384 . S
C236 H259 0.930 . S
C237 C236 1.384 . S
C237 C238 1.377 . S
C237 C240 1.481 . S
C238 C237 1.377 . S
C238 C239 1.389 . S
C238 H260 0.929 . S
C239 C235 1.397 . S
C239 C238 1.389 . S
C239 H261 0.931 . S
C240 C237 1.481 . S
C240 C241 1.387 . S
C240 C245 1.390 1_554 S
C241 C240 1.387 . S
C241 C242 1.401 . S
C241 H262 0.930 . S
C242 C241 1.401 . S
C242 C243 1.376 1_554 S
C242 C251 1.511 . S
C243 C242 1.376 1_556 S
C243 C244 1.392 . S
C243 H264 0.931 . S
C244 C243 1.392 . S
C244 C245 1.361 . S
C244 C246 1.500 . S
C245 C240 1.390 1_556 S
C245 C244 1.361 . S
C245 H263 0.931 . S
C246 C244 1.500 . S
C246 C247 1.371 . S
C246 C248 1.365 . S
C247 C246 1.371 . S
C247 C257 1.386 . S
C247 H265 0.931 . S
C248 C246 1.365 . S
C248 C249 1.409 . S
C248 H266 0.929 . S
C249 C248 1.409 . S
C249 C250 1.380 . S
C249 H267 0.930 . S
C250 C249 1.380 . S
C250 C257 1.357 . S
C251 C242 1.511 . S
C251 C252 1.341 . S
C251 C253 1.371 1_554 S
C252 C251 1.341 . S
C252 C256 1.394 . S
C252 H268 0.930 . S
C253 C251 1.371 1_556 S
C253 C254 1.392 1_556 S
C253 H269 0.931 . S
C254 C253 1.392 1_554 S
C254 C255 1.331 . S
C254 H272 0.932 1_554 S
C255 C254 1.331 . S
C255 C256 1.336 . S
C256 C252 1.394 . S
C256 C255 1.336 . S
C256 H271 0.929 . S
C257 C247 1.386 . S
C257 C250 1.357 . S
C257 H270 0.928 . S
H258 C234 0.931 . S
H259 C236 0.930 . S
H260 C238 0.929 . S
H261 C239 0.931 . S
H262 C241 0.930 . S
H263 C245 0.931 . S
H264 C243 0.931 . S
H265 C247 0.931 . S
H266 C248 0.929 . S
H267 C249 0.930 . S
H268 C252 0.930 . S
H269 C253 0.931 . S
H270 C257 0.928 . S
H271 C256 0.929 . S
H272 C254 0.932 1_556 S
C273 C274 1.386 . S
C273 C275 1.397 . S
C273 H297 0.931 . S
C274 C273 1.386 . S
C274 C278 1.397 . S
C275 C273 1.397 . S
C275 C276 1.384 . S
C275 H298 0.930 . S
C276 C275 1.384 . S
C276 C277 1.377 . S
C276 C279 1.481 1_556 S
C277 C276 1.377 . S
C277 C278 1.389 . S
C277 H299 0.929 . S
C278 C274 1.397 . S
C278 C277 1.389 . S
C278 H300 0.931 . S
C279 C276 1.481 1_554 S
C279 C280 1.387 . S
C279 C284 1.390 . S
C280 C279 1.387 . S
C280 C281 1.401 . S
C280 H301 0.930 . S
C281 C280 1.401 . S
C281 C282 1.376 . S
C281 C290 1.511 . S
C282 C281 1.376 . S
C282 C283 1.392 . S
C282 H303 0.931 . S
C283 C282 1.392 . S
C283 C284 1.361 . S
C283 C285 1.500 . S
C284 C279 1.390 . S
C284 C283 1.361 . S
C284 H302 0.931 . S
C285 C283 1.500 . S
C285 C286 1.371 . S
C285 C287 1.365 . S
C286 C285 1.371 . S
C286 C296 1.386 . S
C286 H304 0.931 . S
C287 C285 1.365 . S
C287 C288 1.409 . S
C287 H305 0.929 . S
C288 C287 1.409 . S
C288 C289 1.380 . S
C288 H306 0.930 . S
C289 C288 1.380 . S
C289 C296 1.357 . S
C290 C281 1.511 . S
C290 C291 1.341 . S
C290 C292 1.371 . S
C291 C290 1.341 . S
C291 C295 1.394 . S
C291 H307 0.930 . S
C292 C290 1.371 . S
C292 C293 1.392 . S
C292 H308 0.931 . S
C293 C292 1.392 . S
C293 C294 1.331 . S
C293 H311 0.932 . S
C294 C293 1.331 . S
C294 C295 1.336 . S
C295 C291 1.394 . S
C295 C294 1.336 . S
C295 H310 0.929 . S
C296 C286 1.386 . S
C296 C289 1.357 . S
C296 H309 0.928 . S
H297 C273 0.931 . S
H298 C275 0.930 . S
H299 C277 0.929 . S
H300 C278 0.931 . S
H301 C280 0.930 . S
H302 C284 0.931 . S
H303 C282 0.931 . S
H304 C286 0.931 . S
H305 C287 0.929 . S
H306 C288 0.930 . S
H307 C291 0.930 . S
H308 C292 0.931 . S
H309 C296 0.928 . S
H310 C295 0.929 . S
H311 C293 0.932 . S
Eu312 C321 2.828 . S
Eu312 O323 2.392 . S
Eu312 O325 2.418 1_545 S
Eu312 O330 2.373 1_655 S
Eu312 O333 2.488 . S
Eu312 O334 2.471 . S
Eu312 O335 2.349 1_655 S
Eu313 O322 2.373 1_455 S
Eu313 O326 2.488 . S
Eu313 O327 2.471 . S
Eu313 O328 2.349 . S
Eu313 O331 2.392 1_565 S
Eu313 O332 2.418 1_565 S
Eu313 C342 2.828 . S
C314 O332 1.244 . S
C314 O335 1.265 . S
C315 C316 1.379 1_655 S
C315 C319 1.373 . S
C315 C321 1.505 . S
C316 C315 1.379 1_455 S
C316 C318 1.369 . S
C316 H344 0.930 . S
C317 C319 1.383 . S
C317 C320 1.382 1_655 S
C317 H345 0.930 . S
C318 C316 1.369 . S
C318 C320 1.392 . S
C318 H346 0.930 . S
C319 C315 1.373 . S
C319 C317 1.383 . S
C319 H347 0.931 . S
C320 C317 1.382 1_455 S
C320 C318 1.392 . S
C321 Eu312 2.828 . S
C321 C315 1.505 . S
C321 O333 1.249 . S
C321 O334 1.244 . S
O322 Eu313 2.373 1_655 S
O322 C324 1.258 . S
O323 Eu312 2.392 . S
O323 C324 1.242 1_545 S
C324 O322 1.258 . S
C324 O323 1.242 1_565 S
O325 Eu312 2.418 1_565 S
O325 C329 1.244 . S
O326 Eu313 2.488 . S
O326 C342 1.249 . S
O327 Eu313 2.471 . S
O327 C342 1.244 . S
O328 Eu313 2.349 . S
O328 C329 1.265 1_455 S
C329 O325 1.244 . S
C329 O328 1.265 1_655 S
O330 Eu312 2.373 1_455 S
O330 C343 1.258 . S
O331 Eu313 2.392 1_545 S
O331 C343 1.242 . S
O332 Eu313 2.418 1_545 S
O332 C314 1.244 . S
O333 Eu312 2.488 . S
O333 C321 1.249 . S
O334 Eu312 2.471 . S
O334 C321 1.244 . S
O335 Eu312 2.349 1_455 S
O335 C314 1.265 . S
C336 C337 1.379 . S
C336 C340 1.373 . S
C336 C342 1.505 . S
C337 C336 1.379 . S
C337 C339 1.369 . S
C337 H348 0.916 1_455 S
C338 C340 1.383 . S
C338 C341 1.382 . S
C338 H349 0.930 . S
C339 C337 1.369 . S
C339 C341 1.392 . S
C339 H350 0.930 1_455 S
C340 C336 1.373 . S
C340 C338 1.383 . S
C340 H351 0.931 . S
C341 C338 1.382 . S
C341 C339 1.392 . S
C342 Eu313 2.828 . S
C342 O326 1.249 . S
C342 O327 1.244 . S
C342 C336 1.505 . S
C343 O330 1.258 . S
C343 O331 1.242 . S
H344 C316 0.930 . S
H345 C317 0.930 . S
H346 C318 0.930 . S
H347 C319 0.931 . S
H348 C337 0.916 1_655 S
H349 C338 0.930 . S
H350 C339 0.930 1_655 S
H351 C340 0.931 . S
Eu352 C361 2.828 . S
Eu352 O363 2.392 . S
Eu352 O365 2.418 . S
Eu352 O370 2.373 . S
Eu352 O373 2.488 . S
Eu352 O374 2.471 . S
Eu352 O375 2.349 1_545 S
Eu353 O362 2.373 1_565 S
Eu353 O366 2.488 . S
Eu353 O367 2.471 1_565 S
Eu353 O368 2.349 1_565 S
Eu353 O371 2.392 . S
Eu353 O372 2.418 . S
Eu353 C382 2.828 . S
C354 O372 1.244 . S
C354 O375 1.265 . S
C355 C356 1.379 1_545 S
C355 C359 1.373 . S
C355 C361 1.505 . S
C356 C355 1.379 1_565 S
C356 C358 1.369 . S
C356 H384 0.930 . S
C357 C359 1.383 . S
C357 C360 1.382 . S
C357 H385 0.930 . S
C358 C356 1.369 . S
C358 C360 1.392 1_565 S
C358 H386 0.930 . S
C359 C355 1.373 . S
C359 C357 1.383 . S
C359 H387 0.931 . S
C360 C357 1.382 . S
C360 C358 1.392 1_545 S
C361 Eu352 2.828 . S
C361 C355 1.505 . S
C361 O373 1.249 . S
C361 O374 1.244 . S
O362 Eu353 2.373 1_545 S
O362 C364 1.258 . S
O363 Eu352 2.392 . S
O363 C364 1.242 . S
C364 O362 1.258 . S
C364 O363 1.242 . S
O365 Eu352 2.418 . S
O365 C369 1.244 . S
O366 Eu353 2.488 . S
O366 C382 1.249 . S
O367 Eu353 2.471 1_545 S
O367 C382 1.244 1_545 S
O368 Eu353 2.349 1_545 S
O368 C369 1.265 . S
C369 O365 1.244 . S
C369 O368 1.265 . S
O370 Eu352 2.373 . S
O370 C383 1.258 1_545 S
O371 Eu353 2.392 . S
O371 C383 1.242 . S
O372 Eu353 2.418 . S
O372 C354 1.244 . S
O373 Eu352 2.488 . S
O373 C361 1.249 . S
O374 Eu352 2.471 . S
O374 C361 1.244 . S
O375 Eu352 2.349 1_565 S
O375 C354 1.265 . S
C376 C377 1.379 . S
C376 C380 1.373 1_545 S
C376 C382 1.505 1_545 S
C377 C376 1.379 . S
C377 C379 1.369 . S
C377 H388 0.930 . S
C378 C380 1.383 . S
C378 C381 1.382 1_565 S
C378 H389 0.930 . S
C379 C377 1.369 . S
C379 C381 1.392 . S
C379 H390 0.930 . S
C380 C376 1.373 1_565 S
C380 C378 1.383 . S
C380 H391 0.931 . S
C381 C378 1.382 1_545 S
C381 C379 1.392 . S
C382 Eu353 2.828 . S
C382 O366 1.249 . S
C382 O367 1.244 1_565 S
C382 C376 1.505 1_565 S
C383 O370 1.258 1_565 S
C383 O371 1.242 . S
H384 C356 0.930 . S
H385 C357 0.930 . S
H386 C358 0.930 . S
H387 C359 0.931 . S
H388 C377 0.930 . S
H389 C378 0.930 . S
H390 C379 0.930 . S
H391 C380 0.931 . S
Eu392 C401 2.828 . S
Eu392 O403 2.392 . S
Eu392 O405 2.418 . S
Eu392 O410 2.373 . S
Eu392 O413 2.488 . S
Eu392 O414 2.471 . S
Eu392 O415 2.349 . S
Eu393 O402 2.373 . S
Eu393 O406 2.488 . S
Eu393 O407 2.471 . S
Eu393 O408 2.349 . S
Eu393 O411 2.392 . S
Eu393 O412 2.418 . S
Eu393 C422 2.828 . S
C394 O412 1.244 . S
C394 O415 1.265 . S
C395 C396 1.379 . S
C395 C399 1.373 . S
C395 C401 1.505 . S
C396 C395 1.379 . S
C396 C398 1.369 . S
C396 H424 0.930 . S
C397 C399 1.383 . S
C397 C400 1.382 . S
C397 H425 0.930 . S
C398 C396 1.369 . S
C398 C400 1.392 . S
C398 H426 0.930 . S
C399 C395 1.373 . S
C399 C397 1.383 . S
C399 H427 0.931 . S
C400 C397 1.382 . S
C400 C398 1.392 . S
C401 Eu392 2.828 . S
C401 C395 1.505 . S
C401 O413 1.249 . S
C401 O414 1.244 . S
O402 Eu393 2.373 . S
O402 C404 1.258 . S
O403 Eu392 2.392 . S
O403 C404 1.242 . S
C404 O402 1.258 . S
C404 O403 1.242 . S
O405 Eu392 2.418 . S
O405 C409 1.244 . S
O406 Eu393 2.488 . S
O406 C422 1.249 . S
O407 Eu393 2.471 . S
O407 C422 1.244 . S
O408 Eu393 2.349 . S
O408 C409 1.265 . S
C409 O405 1.244 . S
C409 O408 1.265 . S
O410 Eu392 2.373 . S
O410 C423 1.258 . S
O411 Eu393 2.392 . S
O411 C423 1.242 . S
O412 Eu393 2.418 . S
O412 C394 1.244 . S
O413 Eu392 2.488 . S
O413 C401 1.249 . S
O414 Eu392 2.471 . S
O414 C401 1.244 . S
O415 Eu392 2.349 . S
O415 C394 1.265 . S
C416 C417 1.379 . S
C416 C420 1.373 . S
C416 C422 1.505 . S
C417 C416 1.379 . S
C417 C419 1.369 . S
C417 H428 0.930 . S
C418 C420 1.383 . S
C418 C421 1.382 . S
C418 H429 0.930 . S
C419 C417 1.369 . S
C419 C421 1.392 . S
C419 H430 0.930 . S
C420 C416 1.373 . S
C420 C418 1.383 . S
C420 H431 0.931 . S
C421 C418 1.382 . S
C421 C419 1.392 . S
C422 Eu393 2.828 . S
C422 O406 1.249 . S
C422 O407 1.244 . S
C422 C416 1.505 . S
C423 O410 1.258 . S
C423 O411 1.242 . S
H424 C396 0.930 . S
H425 C397 0.930 . S
H426 C398 0.930 . S
H427 C399 0.931 . S
H428 C417 0.930 . S
H429 C418 0.930 . S
H430 C419 0.930 . S
H431 C420 0.931 . S
Eu432 C441 2.828 . S
Eu432 O443 2.392 . S
Eu432 O445 2.418 1_455 S
Eu432 O450 2.373 . S
Eu432 O453 2.488 . S
Eu432 O454 2.471 . S
Eu432 O455 2.349 . S
Eu433 O442 2.373 . S
Eu433 O446 2.488 . S
Eu433 O447 2.471 . S
Eu433 O448 2.349 . S
Eu433 O451 2.392 1_655 S
Eu433 O452 2.418 1_655 S
Eu433 C462 2.828 . S
C434 O452 1.244 . S
C434 O455 1.265 . S
C435 C436 1.379 . S
C435 C439 1.373 . S
C435 C441 1.505 . S
C436 C435 1.379 . S
C436 C438 1.369 . S
C436 H464 0.930 . S
C437 C439 1.383 . S
C437 C440 1.382 . S
C437 H465 0.930 . S
C438 C436 1.369 . S
C438 C440 1.392 . S
C438 H466 0.930 . S
C439 C435 1.373 . S
C439 C437 1.383 . S
C439 H467 0.931 . S
C440 C437 1.382 . S
C440 C438 1.392 . S
C441 Eu432 2.828 . S
C441 C435 1.505 . S
C441 O453 1.249 . S
C441 O454 1.244 . S
O442 Eu433 2.373 . S
O442 C444 1.258 1_655 S
O443 Eu432 2.392 . S
O443 C444 1.242 . S
C444 O442 1.258 1_455 S
C444 O443 1.242 . S
O445 Eu432 2.418 1_655 S
O445 C449 1.244 . S
O446 Eu433 2.488 . S
O446 C462 1.249 . S
O447 Eu433 2.471 . S
O447 C462 1.244 . S
O448 Eu433 2.349 . S
O448 C449 1.265 . S
C449 O445 1.244 . S
C449 O448 1.265 . S
O450 Eu432 2.373 . S
O450 C463 1.258 . S
O451 Eu433 2.392 1_455 S
O451 C463 1.242 . S
O452 Eu433 2.418 1_455 S
O452 C434 1.244 . S
O453 Eu432 2.488 . S
O453 C441 1.249 . S
O454 Eu432 2.471 . S
O454 C441 1.244 . S
O455 Eu432 2.349 . S
O455 C434 1.265 . S
C456 C457 1.379 . S
C456 C460 1.373 . S
C456 C462 1.505 . S
C457 C456 1.379 . S
C457 C459 1.369 . S
C457 H468 0.930 . S
C458 C460 1.383 . S
C458 C461 1.382 . S
C458 H469 0.930 . S
C459 C457 1.369 . S
C459 C461 1.392 . S
C459 H470 0.930 . S
C460 C456 1.373 . S
C460 C458 1.383 . S
C460 H471 0.931 . S
C461 C458 1.382 . S
C461 C459 1.392 . S
C462 Eu433 2.828 . S
C462 O446 1.249 . S
C462 O447 1.244 . S
C462 C456 1.505 . S
C463 O450 1.258 . S
C463 O451 1.242 . S
H464 C436 0.930 . S
H465 C437 0.930 . S
H466 C438 0.930 . S
H467 C439 0.931 . S
H468 C457 0.930 . S
H469 C458 0.930 . S
H470 C459 0.930 . S
H471 C460 0.931 . S
H472 C490 0.951 . S
H473 C492 0.951 . S
H474 C494 0.950 . S
H475 C495 0.950 . S
H476 C497 0.950 . S
H477 C500 0.950 . S
H478 C501 0.950 . S
H479 C503 0.950 . S
H480 C504 0.950 . S
H481 C505 0.951 1_565 S
H482 C507 0.951 . S
H483 C509 0.950 . S
H484 C510 0.950 . S
H485 C512 0.950 . S
H486 C515 0.950 . S
H487 C516 0.950 . S
H488 C518 0.950 1_565 S
H489 C519 0.950 . S
C490 H472 0.951 . S
C490 C491 1.366 . S
C490 C492 1.388 . S
C491 C490 1.366 . S
C491 C495 1.385 . S
C492 H473 0.951 . S
C492 C490 1.388 . S
C492 C493 1.366 . S
C493 C492 1.366 . S
C493 C494 1.414 . S
C493 C496 1.499 . S
C494 H474 0.950 . S
C494 C493 1.414 . S
C494 C495 1.374 . S
C495 H475 0.950 . S
C495 C491 1.385 . S
C495 C494 1.374 . S
C496 C493 1.499 . S
C496 C497 1.373 . S
C496 C498 1.389 . S
C497 H476 0.950 . S
C497 C496 1.373 . S
C497 C513 1.377 . S
C498 C496 1.389 . S
C498 C499 1.524 . S
C498 C512 1.377 . S
C499 C498 1.524 . S
C499 C500 1.397 . S
C499 C504 1.363 . S
C500 H477 0.950 . S
C500 C499 1.397 . S
C500 C501 1.334 . S
C501 H478 0.950 . S
C501 C500 1.334 . S
C501 C502 1.287 . S
C502 C501 1.287 . S
C502 C503 1.524 . S
C502 H521 0.913 . S
C503 H479 0.950 . S
C503 C502 1.524 . S
C503 C504 1.415 . S
C504 H480 0.950 . S
C504 C499 1.363 . S
C504 C503 1.415 . S
C505 H481 0.951 1_545 S
C505 C506 1.366 . S
C505 C507 1.388 . S
C506 C505 1.366 . S
C506 C510 1.385 . S
C507 H482 0.951 . S
C507 C505 1.388 . S
C507 C508 1.366 . S
C508 C507 1.366 . S
C508 C509 1.414 . S
C508 C511 1.499 . S
C509 H483 0.950 . S
C509 C508 1.414 . S
C509 C510 1.374 . S
C510 H484 0.950 . S
C510 C506 1.385 . S
C510 C509 1.374 . S
C511 C508 1.499 . S
C511 C512 1.373 . S
C511 C513 1.389 . S
C512 H485 0.950 . S
C512 C498 1.377 . S
C512 C511 1.373 . S
C513 C497 1.377 . S
C513 C511 1.389 . S
C513 C514 1.524 . S
C514 C513 1.524 . S
C514 C515 1.397 . S
C514 C519 1.363 . S
C515 H486 0.950 . S
C515 C514 1.397 . S
C515 C516 1.334 . S
C516 H487 0.950 . S
C516 C515 1.334 . S
C516 C517 1.287 . S
C517 C516 1.287 . S
C517 C518 1.524 . S
C517 H520 0.999 . S
C518 H488 0.950 1_545 S
C518 C517 1.524 . S
C518 C519 1.415 . S
C519 H489 0.950 . S
C519 C514 1.363 . S
C519 C518 1.415 . S
H520 C517 0.999 . S
H521 C502 0.913 . S
H522 C540 0.951 . S
H523 C542 0.951 . S
H524 C544 0.950 . S
H525 C545 0.950 . S
H526 C547 0.950 . S
H527 C550 0.950 . S
H528 C551 0.950 . S
H529 C553 0.950 . S
H530 C554 0.950 . S
H531 C555 0.951 . S
H532 C557 0.951 . S
H533 C559 0.950 . S
H534 C560 0.950 . S
H535 C562 0.950 . S
H536 C565 0.950 . S
H537 C566 0.950 . S
H538 C568 0.950 . S
H539 C569 0.950 . S
C540 H522 0.951 . S
C540 C541 1.366 . S
C540 C542 1.388 . S
C541 C540 1.366 . S
C541 C545 1.385 . S
C542 H523 0.951 . S
C542 C540 1.388 . S
C542 C543 1.366 . S
C543 C542 1.366 . S
C543 C544 1.414 . S
C543 C546 1.499 . S
C544 H524 0.950 . S
C544 C543 1.414 . S
C544 C545 1.374 . S
C545 H525 0.950 . S
C545 C541 1.385 . S
C545 C544 1.374 . S
C546 C543 1.499 . S
C546 C547 1.373 . S
C546 C548 1.389 . S
C547 H526 0.950 . S
C547 C546 1.373 . S
C547 C563 1.377 . S
C548 C546 1.389 . S
C548 C549 1.524 . S
C548 C562 1.377 . S
C549 C548 1.524 . S
C549 C550 1.397 . S
C549 C554 1.363 . S
C550 H527 0.950 . S
C550 C549 1.397 . S
C550 C551 1.334 . S
C551 H528 0.950 . S
C551 C550 1.334 . S
C551 C552 1.287 . S
C552 C551 1.287 . S
C552 C553 1.524 . S
C552 H571 0.913 . S
C553 H529 0.950 . S
C553 C552 1.524 . S
C553 C554 1.415 . S
C554 H530 0.950 . S
C554 C549 1.363 . S
C554 C553 1.415 . S
C555 H531 0.951 . S
C555 C556 1.366 . S
C555 C557 1.388 . S
C556 C555 1.366 . S
C556 C560 1.385 . S
C557 H532 0.951 . S
C557 C555 1.388 . S
C557 C558 1.366 . S
C558 C557 1.366 . S
C558 C559 1.414 . S
C558 C561 1.499 . S
C559 H533 0.950 . S
C559 C558 1.414 . S
C559 C560 1.374 . S
C560 H534 0.950 . S
C560 C556 1.385 . S
C560 C559 1.374 . S
C561 C558 1.499 . S
C561 C562 1.373 . S
C561 C563 1.389 . S
C562 H535 0.950 . S
C562 C548 1.377 . S
C562 C561 1.373 . S
C563 C547 1.377 . S
C563 C561 1.389 . S
C563 C564 1.524 . S
C564 C563 1.524 . S
C564 C565 1.397 . S
C564 C569 1.363 . S
C565 H536 0.950 . S
C565 C564 1.397 . S
C565 C566 1.334 . S
C566 H537 0.950 . S
C566 C565 1.334 . S
C566 C567 1.287 . S
C567 C566 1.287 . S
C567 C568 1.524 . S
C567 H570 0.999 . S
C568 H538 0.950 . S
C568 C567 1.524 . S
C568 C569 1.415 . S
C569 H539 0.950 . S
C569 C564 1.363 . S
C569 C568 1.415 . S
H570 C567 0.999 . S
H571 C552 0.913 . S
H572 C590 0.951 . S
H573 C592 0.951 . S
H574 C594 0.950 . S
H575 C595 0.950 . S
H576 C597 0.950 . S
H577 C600 0.950 . S
H578 C601 0.950 . S
H579 C603 0.950 . S
H580 C604 0.950 . S
H581 C605 0.951 . S
H582 C607 0.951 . S
H583 C609 0.950 . S
H584 C610 0.950 . S
H585 C612 0.950 . S
H586 C615 0.950 . S
H587 C616 0.950 . S
H588 C618 0.950 . S
H589 C619 0.950 . S
C590 H572 0.951 . S
C590 C591 1.366 . S
C590 C592 1.388 . S
C591 C590 1.366 . S
C591 C595 1.385 . S
C592 H573 0.951 . S
C592 C590 1.388 . S
C592 C593 1.366 . S
C593 C592 1.366 . S
C593 C594 1.414 . S
C593 C596 1.499 . S
C594 H574 0.950 . S
C594 C593 1.414 . S
C594 C595 1.374 . S
C595 H575 0.950 . S
C595 C591 1.385 . S
C595 C594 1.374 . S
C596 C593 1.499 . S
C596 C597 1.373 . S
C596 C598 1.389 . S
C597 H576 0.950 . S
C597 C596 1.373 . S
C597 C613 1.377 . S
C598 C596 1.389 . S
C598 C599 1.524 . S
C598 C612 1.377 . S
C599 C598 1.524 . S
C599 C600 1.397 . S
C599 C604 1.363 . S
C600 H577 0.950 . S
C600 C599 1.397 . S
C600 C601 1.334 . S
C601 H578 0.950 . S
C601 C600 1.334 . S
C601 C602 1.287 . S
C602 C601 1.287 . S
C602 C603 1.524 . S
C602 H621 0.913 . S
C603 H579 0.950 . S
C603 C602 1.524 . S
C603 C604 1.415 . S
C604 H580 0.950 . S
C604 C599 1.363 . S
C604 C603 1.415 . S
C605 H581 0.951 . S
C605 C606 1.366 . S
C605 C607 1.388 . S
C606 C605 1.366 . S
C606 C610 1.385 . S
C607 H582 0.951 . S
C607 C605 1.388 . S
C607 C608 1.366 . S
C608 C607 1.366 . S
C608 C609 1.414 . S
C608 C611 1.499 . S
C609 H583 0.950 . S
C609 C608 1.414 . S
C609 C610 1.374 . S
C610 H584 0.950 . S
C610 C606 1.385 . S
C610 C609 1.374 . S
C611 C608 1.499 . S
C611 C612 1.373 . S
C611 C613 1.389 . S
C612 H585 0.950 . S
C612 C598 1.377 . S
C612 C611 1.373 . S
C613 C597 1.377 . S
C613 C611 1.389 . S
C613 C614 1.524 . S
C614 C613 1.524 . S
C614 C615 1.397 . S
C614 C619 1.363 . S
C615 H586 0.950 . S
C615 C614 1.397 . S
C615 C616 1.334 . S
C616 H587 0.950 . S
C616 C615 1.334 . S
C616 C617 1.287 . S
C617 C616 1.287 . S
C617 C618 1.524 . S
C617 H620 0.999 . S
C618 H588 0.950 . S
C618 C617 1.524 . S
C618 C619 1.415 . S
C619 H589 0.950 . S
C619 C614 1.363 . S
C619 C618 1.415 . S
H620 C617 0.999 . S
H621 C602 0.913 . S
H622 C640 0.951 . S
H623 C642 0.951 . S
H624 C644 0.950 . S
H625 C645 0.950 . S
H626 C647 0.950 . S
H627 C650 0.950 . S
H628 C651 0.950 1_455 S
H629 C653 0.950 . S
H630 C654 0.950 . S
H631 C655 0.951 . S
H632 C657 0.951 . S
H633 C659 0.950 1_655 S
H634 C660 0.950 1_655 S
H635 C662 0.950 . S
H636 C665 0.950 . S
H637 C666 0.950 . S
H638 C668 0.950 . S
H639 C669 0.950 . S
C640 H622 0.951 . S
C640 C641 1.366 . S
C640 C642 1.388 . S
C641 C640 1.366 . S
C641 C645 1.385 . S
C642 H623 0.951 . S
C642 C640 1.388 . S
C642 C643 1.366 . S
C643 C642 1.366 . S
C643 C644 1.414 . S
C643 C646 1.499 . S
C644 H624 0.950 . S
C644 C643 1.414 . S
C644 C645 1.374 . S
C645 H625 0.950 . S
C645 C641 1.385 . S
C645 C644 1.374 . S
C646 C643 1.499 . S
C646 C647 1.373 . S
C646 C648 1.389 . S
C647 H626 0.950 . S
C647 C646 1.373 . S
C647 C663 1.377 . S
C648 C646 1.389 . S
C648 C649 1.524 . S
C648 C662 1.377 . S
C649 C648 1.524 . S
C649 C650 1.397 . S
C649 C654 1.363 1_455 S
C650 H627 0.950 . S
C650 C649 1.397 . S
C650 C651 1.334 1_455 S
C651 H628 0.950 1_655 S
C651 C650 1.334 1_655 S
C651 C652 1.287 . S
C652 C651 1.287 . S
C652 C653 1.524 . S
C652 H671 0.913 . S
C653 H629 0.950 . S
C653 C652 1.524 . S
C653 C654 1.415 . S
C654 H630 0.950 . S
C654 C649 1.363 1_655 S
C654 C653 1.415 . S
C655 H631 0.951 . S
C655 C656 1.366 . S
C655 C657 1.388 . S
C656 C655 1.366 . S
C656 C660 1.385 . S
C657 H632 0.951 . S
C657 C655 1.388 . S
C657 C658 1.366 . S
C658 C657 1.366 . S
C658 C659 1.414 . S
C658 C661 1.499 . S
C659 H633 0.950 1_455 S
C659 C658 1.414 . S
C659 C660 1.374 . S
C660 H634 0.950 1_455 S
C660 C656 1.385 . S
C660 C659 1.374 . S
C661 C658 1.499 . S
C661 C662 1.373 . S
C661 C663 1.389 . S
C662 H635 0.950 . S
C662 C648 1.377 . S
C662 C661 1.373 . S
C663 C647 1.377 . S
C663 C661 1.389 . S
C663 C664 1.524 . S
C664 C663 1.524 . S
C664 C665 1.397 . S
C664 C669 1.363 . S
C665 H636 0.950 . S
C665 C664 1.397 . S
C665 C666 1.334 . S
C666 H637 0.950 . S
C666 C665 1.334 . S
C666 C667 1.287 . S
C667 C666 1.287 . S
C667 C668 1.524 . S
C667 H670 0.999 . S
C668 H638 0.950 . S
C668 C667 1.524 . S
C668 C669 1.415 . S
C669 H639 0.950 . S
C669 C664 1.363 . S
C669 C668 1.415 . S
H670 C667 0.999 . S
H671 C652 0.913 . S
H672 C690 0.951 . S
H673 C692 0.951 . S
H674 C694 0.950 . S
H675 C695 0.950 . S
H676 C697 0.950 . S
H677 C700 0.950 . S
H678 C701 0.950 . S
H679 C703 0.950 . S
H680 C704 0.950 . S
H681 C705 0.951 . S
H682 C707 0.951 . S
H683 C709 0.950 1_545 S
H684 C710 0.950 . S
H685 C712 0.950 . S
H686 C715 0.950 . S
H687 C716 0.950 . S
H688 C718 0.950 . S
H689 C719 0.950 . S
C690 H672 0.951 . S
C690 C691 1.366 . S
C690 C692 1.388 . S
C691 C690 1.366 . S
C691 C695 1.385 . S
C692 H673 0.951 . S
C692 C690 1.388 . S
C692 C693 1.366 . S
C693 C692 1.366 . S
C693 C694 1.414 . S
C693 C696 1.499 1_554 S
C694 H674 0.950 . S
C694 C693 1.414 . S
C694 C695 1.374 . S
C695 H675 0.950 . S
C695 C691 1.385 . S
C695 C694 1.374 . S
C696 C693 1.499 1_556 S
C696 C697 1.373 . S
C696 C698 1.389 . S
C697 H676 0.950 . S
C697 C696 1.373 . S
C697 C713 1.377 . S
C698 C696 1.389 . S
C698 C699 1.524 . S
C698 C712 1.377 . S
C699 C698 1.524 . S
C699 C700 1.397 . S
C699 C704 1.363 1_565 S
C700 H677 0.950 . S
C700 C699 1.397 . S
C700 C701 1.334 . S
C701 H678 0.950 . S
C701 C700 1.334 . S
C701 C702 1.287 1_565 S
C702 C701 1.287 1_545 S
C702 C703 1.524 . S
C702 H721 0.913 . S
C703 H679 0.950 . S
C703 C702 1.524 . S
C703 C704 1.415 . S
C704 H680 0.950 . S
C704 C699 1.363 1_545 S
C704 C703 1.415 . S
C705 H681 0.951 . S
C705 C706 1.366 . S
C705 C707 1.388 . S
C706 C705 1.366 . S
C706 C710 1.385 1_565 S
C707 H682 0.951 . S
C707 C705 1.388 . S
C707 C708 1.366 . S
C708 C707 1.366 . S
C708 C709 1.414 . S
C708 C711 1.499 . S
C709 H683 0.950 1_565 S
C709 C708 1.414 . S
C709 C710 1.374 1_565 S
C710 H684 0.950 . S
C710 C706 1.385 1_545 S
C710 C709 1.374 1_545 S
C711 C708 1.499 . S
C711 C712 1.373 . S
C711 C713 1.389 . S
C712 H685 0.950 . S
C712 C698 1.377 . S
C712 C711 1.373 . S
C713 C697 1.377 . S
C713 C711 1.389 . S
C713 C714 1.524 . S
C714 C713 1.524 . S
C714 C715 1.397 . S
C714 C719 1.363 . S
C715 H686 0.950 . S
C715 C714 1.397 . S
C715 C716 1.334 . S
C716 H687 0.950 . S
C716 C715 1.334 . S
C716 C717 1.287 . S
C717 C716 1.287 . S
C717 C718 1.524 . S
C717 H720 0.999 . S
C718 H688 0.950 . S
C718 C717 1.524 . S
C718 C719 1.415 . S
C719 H689 0.950 . S
C719 C714 1.363 . S
C719 C718 1.415 . S
H720 C717 0.999 . S
H721 C702 0.913 . S
H722 C740 0.951 . S
H723 C742 0.951 . S
H724 C744 0.950 . S
H725 C745 0.950 . S
H726 C747 0.950 . S
H727 C750 0.950 . S
H728 C751 0.950 1_554 S
H729 C753 0.959 . S
H730 C754 0.950 . S
H731 C755 0.951 . S
H732 C757 0.951 . S
H733 C759 0.950 . S
H734 C760 0.950 . S
H735 C762 0.950 . S
H736 C765 0.950 . S
H737 C766 0.950 . S
H738 C768 0.950 . S
H739 C769 0.950 . S
C740 H722 0.951 . S
C740 C741 1.366 . S
C740 C742 1.388 . S
C741 C740 1.366 . S
C741 C745 1.385 . S
C742 H723 0.951 . S
C742 C740 1.388 . S
C742 C743 1.366 1_554 S
C743 C742 1.366 1_556 S
C743 C744 1.414 . S
C743 C746 1.499 . S
C744 H724 0.950 . S
C744 C743 1.414 . S
C744 C745 1.374 1_556 S
C745 H725 0.950 . S
C745 C741 1.385 . S
C745 C744 1.374 1_554 S
C746 C743 1.499 . S
C746 C747 1.373 . S
C746 C748 1.389 . S
C747 H726 0.950 . S
C747 C746 1.373 . S
C747 C763 1.377 . S
C748 C746 1.389 . S
C748 C749 1.524 . S
C748 C762 1.377 . S
C749 C748 1.524 . S
C749 C750 1.397 . S
C749 C754 1.363 . S
C750 H727 0.950 . S
C750 C749 1.397 . S
C750 C751 1.334 . S
C751 H728 0.950 1_556 S
C751 C750 1.334 . S
C751 C752 1.287 1_556 S
C752 C751 1.287 1_554 S
C752 C753 1.528 . S
C752 H771 0.913 . S
C753 H729 0.959 . S
C753 C752 1.528 . S
C753 C754 1.401 1_554 S
C754 H730 0.950 . S
C754 C749 1.363 . S
C754 C753 1.401 1_556 S
C755 H731 0.951 . S
C755 C756 1.366 . S
C755 C757 1.388 . S
C756 C755 1.366 . S
C756 C760 1.385 . S
C757 H732 0.951 . S
C757 C755 1.388 . S
C757 C758 1.366 . S
C758 C757 1.366 . S
C758 C759 1.414 . S
C758 C761 1.499 . S
C759 H733 0.950 . S
C759 C758 1.414 . S
C759 C760 1.374 . S
C760 H734 0.950 . S
C760 C756 1.385 . S
C760 C759 1.374 . S
C761 C758 1.499 . S
C761 C762 1.373 . S
C761 C763 1.389 . S
C762 H735 0.950 . S
C762 C748 1.377 . S
C762 C761 1.373 . S
C763 C747 1.377 . S
C763 C761 1.389 . S
C763 C764 1.524 . S
C764 C763 1.524 . S
C764 C765 1.397 . S
C764 C769 1.363 . S
C765 H736 0.950 . S
C765 C764 1.397 . S
C765 C766 1.334 . S
C766 H737 0.950 . S
C766 C765 1.334 . S
C766 C767 1.287 . S
C767 C766 1.287 . S
C767 C768 1.524 . S
C767 H770 0.999 . S
C768 H738 0.950 . S
C768 C767 1.524 . S
C768 C769 1.415 . S
C769 H739 0.950 . S
C769 C764 1.363 . S
C769 C768 1.415 . S
H770 C767 0.999 . S
H771 C752 0.913 . S
H772 C790 0.951 . S
H773 C792 0.951 . S
H774 C794 0.950 . S
H775 C795 0.949 1_556 S
H776 C797 0.950 . S
H777 C800 0.950 . S
H778 C801 0.950 . S
H779 C803 0.950 . S
H780 C804 0.950 . S
H781 C805 0.951 . S
H782 C807 0.951 . S
H783 C809 0.950 . S
H784 C810 0.950 . S
H785 C812 0.950 . S
H786 C815 0.950 . S
H787 C816 0.950 . S
H788 C818 0.950 . S
H789 C819 0.950 . S
C790 H772 0.951 . S
C790 C791 1.366 . S
C790 C792 1.388 . S
C791 C790 1.366 . S
C791 C795 1.396 . S
C792 H773 0.951 . S
C792 C790 1.388 . S
C792 C793 1.366 1_554 S
C793 C792 1.366 1_556 S
C793 C794 1.414 . S
C793 C796 1.499 . S
C794 H774 0.950 . S
C794 C793 1.414 . S
C794 C795 1.364 1_556 S
C795 H775 0.949 1_554 S
C795 C791 1.396 . S
C795 C794 1.364 1_554 S
C796 C793 1.499 . S
C796 C797 1.373 . S
C796 C798 1.389 . S
C797 H776 0.950 . S
C797 C796 1.373 . S
C797 C813 1.377 . S
C798 C796 1.389 . S
C798 C799 1.524 . S
C798 C812 1.377 . S
C799 C798 1.524 . S
C799 C800 1.397 . S
C799 C804 1.363 . S
C800 H777 0.950 . S
C800 C799 1.397 . S
C800 C801 1.334 1_556 S
C801 H778 0.950 . S
C801 C800 1.334 1_554 S
C801 C802 1.287 . S
C802 C801 1.287 . S
C802 C803 1.524 . S
C802 H821 0.913 . S
C803 H779 0.950 . S
C803 C802 1.524 . S
C803 C804 1.415 1_554 S
C804 H780 0.950 . S
C804 C799 1.363 . S
C804 C803 1.415 1_556 S
C805 H781 0.951 . S
C805 C806 1.366 . S
C805 C807 1.388 . S
C806 C805 1.366 . S
C806 C810 1.385 . S
C807 H782 0.951 . S
C807 C805 1.388 . S
C807 C808 1.366 . S
C808 C807 1.366 . S
C808 C809 1.414 . S
C808 C811 1.499 . S
C809 H783 0.950 . S
C809 C808 1.414 . S
C809 C810 1.374 . S
C810 H784 0.950 . S
C810 C806 1.385 . S
C810 C809 1.374 . S
C811 C808 1.499 . S
C811 C812 1.373 . S
C811 C813 1.389 . S
C812 H785 0.950 . S
C812 C798 1.377 . S
C812 C811 1.373 . S
C813 C797 1.377 . S
C813 C811 1.389 . S
C813 C814 1.524 . S
C814 C813 1.524 . S
C814 C815 1.397 . S
C814 C819 1.363 . S
C815 H786 0.950 . S
C815 C814 1.397 . S
C815 C816 1.334 . S
C816 H787 0.950 . S
C816 C815 1.334 . S
C816 C817 1.287 . S
C817 C816 1.287 . S
C817 C818 1.524 . S
C817 H820 0.999 . S
C818 H788 0.950 . S
C818 C817 1.524 . S
C818 C819 1.415 . S
C819 H789 0.950 . S
C819 C814 1.363 . S
C819 C818 1.415 . S
H820 C817 0.999 . S
H821 C802 0.913 . S
H822 C840 0.951 . S
H823 C842 0.951 . S
H824 C844 0.950 1_556 S
H825 C845 0.950 . S
H826 C847 0.950 . S
H827 C850 0.950 . S
H828 C851 0.950 . S
H829 C853 0.950 . S
H830 C854 0.950 1_556 S
H831 C855 0.951 . S
H832 C857 0.951 . S
H833 C859 0.950 . S
H834 C860 0.950 . S
H835 C862 0.950 . S
H836 C865 0.950 . S
H837 C866 0.950 . S
H838 C868 0.950 . S
H839 C869 0.950 . S
C840 H822 0.951 . S
C840 C841 1.366 . S
C840 C842 1.388 . S
C841 C840 1.366 . S
C841 C845 1.385 . S
C842 H823 0.951 . S
C842 C840 1.388 . S
C842 C843 1.366 . S
C843 C842 1.366 . S
C843 C844 1.414 . S
C843 C846 1.499 1_554 S
C844 H824 0.950 1_554 S
C844 C843 1.414 . S
C844 C845 1.374 . S
C845 H825 0.950 . S
C845 C841 1.385 . S
C845 C844 1.374 . S
C846 C843 1.499 1_556 S
C846 C847 1.373 . S
C846 C848 1.389 . S
C847 H826 0.950 . S
C847 C846 1.373 . S
C847 C863 1.377 . S
C848 C846 1.389 . S
C848 C849 1.524 1_556 S
C848 C862 1.377 . S
C849 C848 1.524 1_554 S
C849 C850 1.397 1_655 S
C849 C854 1.363 . S
C850 H827 0.950 . S
C850 C849 1.397 1_455 S
C850 C851 1.334 . S
C851 H828 0.950 . S
C851 C850 1.334 . S
C851 C852 1.287 1_455 S
C852 C851 1.287 1_655 S
C852 C853 1.524 . S
C852 H871 0.921 . S
C853 H829 0.950 . S
C853 C852 1.524 . S
C853 C854 1.415 . S
C854 H830 0.950 1_554 S
C854 C849 1.363 . S
C854 C853 1.415 . S
C855 H831 0.951 . S
C855 C856 1.366 1_455 S
C855 C857 1.388 . S
C856 C855 1.366 1_655 S
C856 C860 1.385 . S
C857 H832 0.951 . S
C857 C855 1.388 . S
C857 C858 1.366 1_455 S
C858 C857 1.366 1_655 S
C858 C859 1.414 . S
C858 C861 1.499 . S
C859 H833 0.950 . S
C859 C858 1.414 . S
C859 C860 1.374 . S
C860 H834 0.950 . S
C860 C856 1.385 . S
C860 C859 1.374 . S
C861 C858 1.499 . S
C861 C862 1.373 . S
C861 C863 1.389 . S
C862 H835 0.950 . S
C862 C848 1.377 . S
C862 C861 1.373 . S
C863 C847 1.377 . S
C863 C861 1.389 . S
C863 C864 1.524 . S
C864 C863 1.524 . S
C864 C865 1.397 . S
C864 C869 1.363 . S
C865 H836 0.950 . S
C865 C864 1.397 . S
C865 C866 1.334 . S
C866 H837 0.950 . S
C866 C865 1.334 . S
C866 C867 1.287 . S
C867 C866 1.287 . S
C867 C868 1.524 . S
C867 H870 0.999 . S
C868 H838 0.950 . S
C868 C867 1.524 . S
C868 C869 1.415 . S
C869 H839 0.950 . S
C869 C864 1.363 . S
C869 C868 1.415 . S
H870 C867 0.999 . S
H871 C852 0.921 . S
H872 C890 0.951 . S
H873 C892 0.951 . S
H874 C894 0.950 . S
H875 C895 0.950 . S
H876 C897 0.950 . S
H877 C900 0.950 . S
H878 C901 0.950 . S
H879 C903 0.950 . S
H880 C904 0.950 . S
H881 C905 0.951 . S
H882 C907 0.951 . S
H883 C909 0.950 . S
H884 C910 0.950 . S
H885 C912 0.950 . S
H886 C915 0.950 1_455 S
H887 C916 0.950 . S
H888 C918 0.950 . S
H889 C919 0.950 . S
C890 H872 0.951 . S
C890 C891 1.366 . S
C890 C892 1.388 . S
C891 C890 1.366 . S
C891 C895 1.385 . S
C892 H873 0.951 . S
C892 C890 1.388 . S
C892 C893 1.366 . S
C893 C892 1.366 . S
C893 C894 1.414 . S
C893 C896 1.499 . S
C894 H874 0.950 . S
C894 C893 1.414 . S
C894 C895 1.374 . S
C895 H875 0.950 . S
C895 C891 1.385 . S
C895 C894 1.374 . S
C896 C893 1.499 . S
C896 C897 1.373 . S
C896 C898 1.389 . S
C897 H876 0.950 . S
C897 C896 1.373 . S
C897 C913 1.377 . S
C898 C896 1.389 . S
C898 C899 1.524 . S
C898 C912 1.377 . S
C899 C898 1.524 . S
C899 C900 1.397 . S
C899 C904 1.363 . S
C900 H877 0.950 . S
C900 C899 1.397 . S
C900 C901 1.334 . S
C901 H878 0.950 . S
C901 C900 1.334 . S
C901 C902 1.287 . S
C902 C901 1.287 . S
C902 C903 1.524 . S
C902 H921 0.913 . S
C903 H879 0.950 . S
C903 C902 1.524 . S
C903 C904 1.415 . S
C904 H880 0.950 . S
C904 C899 1.363 . S
C904 C903 1.415 . S
C905 H881 0.951 . S
C905 C906 1.334 1_655 S
C905 C907 1.388 . S
C906 C905 1.334 1_455 S
C906 C910 1.436 . S
C907 H882 0.951 . S
C907 C905 1.388 . S
C907 C908 1.366 1_655 S
C908 C907 1.366 1_455 S
C908 C909 1.414 . S
C908 C911 1.499 . S
C909 H883 0.950 . S
C909 C908 1.414 . S
C909 C910 1.374 . S
C910 H884 0.950 . S
C910 C906 1.436 . S
C910 C909 1.374 . S
C911 C908 1.499 . S
C911 C912 1.373 . S
C911 C913 1.389 . S
C912 H885 0.950 . S
C912 C898 1.377 . S
C912 C911 1.373 . S
C913 C897 1.377 . S
C913 C911 1.389 . S
C913 C914 1.524 1_455 S
C914 C913 1.524 1_655 S
C914 C915 1.397 . S
C914 C919 1.363 . S
C915 H886 0.950 1_655 S
C915 C914 1.397 . S
C915 C916 1.334 . S
C916 H887 0.950 . S
C916 C915 1.334 . S
C916 C917 1.287 . S
C917 C916 1.287 . S
C917 C918 1.524 . S
C917 H920 0.999 . S
C918 H888 0.950 . S
C918 C917 1.524 . S
C918 C919 1.415 . S
C919 H889 0.950 . S
C919 C914 1.363 . S
C919 C918 1.415 . S
H920 C917 0.999 . S
H921 C902 0.913 . S
H922 C940 0.951 . S
H923 C942 0.951 . S
H924 C944 0.950 . S
H925 C945 0.950 . S
H926 C947 0.950 . S
H927 C950 0.950 . S
H928 C951 0.950 . S
H929 C953 0.950 . S
H930 C954 0.951 . S
H931 C955 0.951 . S
H932 C957 0.951 . S
H933 C959 0.950 . S
H934 C960 0.950 1_565 S
H935 C962 0.950 . S
H936 C965 0.950 . S
H937 C966 0.950 . S
H938 C968 0.950 . S
H939 C969 0.950 . S
C940 H922 0.951 . S
C940 C941 1.366 . S
C940 C942 1.388 . S
C941 C940 1.366 . S
C941 C945 1.385 . S
C942 H923 0.951 . S
C942 C940 1.388 . S
C942 C943 1.366 . S
C943 C942 1.366 . S
C943 C944 1.414 . S
C943 C946 1.499 . S
C944 H924 0.950 . S
C944 C943 1.414 . S
C944 C945 1.374 . S
C945 H925 0.950 . S
C945 C941 1.385 . S
C945 C944 1.374 . S
C946 C943 1.499 . S
C946 C947 1.373 . S
C946 C948 1.389 . S
C947 H926 0.950 . S
C947 C946 1.373 . S
C947 C963 1.377 . S
C948 C946 1.389 . S
C948 C949 1.524 . S
C948 C962 1.377 . S
C949 C948 1.524 . S
C949 C950 1.397 . S
C949 C954 1.393 . S
C950 H927 0.950 . S
C950 C949 1.397 . S
C950 C951 1.334 . S
C951 H928 0.950 . S
C951 C950 1.334 . S
C951 C952 1.287 1_545 S
C952 C951 1.287 1_565 S
C952 C953 1.524 . S
C952 H971 0.913 . S
C953 H929 0.950 . S
C953 C952 1.524 . S
C953 C954 1.386 1_565 S
C954 H930 0.951 . S
C954 C949 1.393 . S
C954 C953 1.386 1_545 S
C955 H931 0.951 . S
C955 C956 1.366 . S
C955 C957 1.388 . S
C956 C955 1.366 . S
C956 C960 1.385 . S
C957 H932 0.951 . S
C957 C955 1.388 . S
C957 C958 1.366 . S
C958 C957 1.366 . S
C958 C959 1.414 . S
C958 C961 1.499 . S
C959 H933 0.950 . S
C959 C958 1.414 . S
C959 C960 1.374 . S
C960 H934 0.950 1_545 S
C960 C956 1.385 . S
C960 C959 1.374 . S
C961 C958 1.499 . S
C961 C962 1.373 . S
C961 C963 1.389 . S
C962 H935 0.950 . S
C962 C948 1.377 . S
C962 C961 1.373 . S
C963 C947 1.377 . S
C963 C961 1.389 . S
C963 C964 1.524 . S
C964 C963 1.524 . S
C964 C965 1.397 . S
C964 C969 1.363 . S
C965 H936 0.950 . S
C965 C964 1.397 . S
C965 C966 1.334 . S
C966 H937 0.950 . S
C966 C965 1.334 . S
C966 C967 1.287 . S
C967 C966 1.287 . S
C967 C968 1.524 . S
C967 H970 0.999 . S
C968 H938 0.950 . S
C968 C967 1.524 . S
C968 C969 1.415 . S
C969 H939 0.950 . S
C969 C964 1.363 . S
C969 C968 1.415 . S
H970 C967 0.999 . S
H971 C952 0.913 . S
H972 C990 0.951 . S
H973 C992 0.951 . S
H974 C994 0.950 . S
H975 C995 0.950 . S
H976 C997 0.950 . S
H977 C1000 0.950 . S
H978 C1001 0.950 . S
H979 C1003 0.950 . S
H980 C1004 0.950 . S
H981 C1005 0.951 . S
H982 C1007 0.951 . S
H983 C1009 0.950 . S
H984 C1010 0.950 . S
H985 C1012 0.950 . S
H986 C1015 0.950 . S
H987 C1016 0.950 . S
H988 C1018 0.950 . S
H989 C1019 0.950 . S
C990 H972 0.951 . S
C990 C991 1.366 . S
C990 C992 1.388 . S
C991 C990 1.366 . S
C991 C995 1.385 . S
C992 H973 0.951 . S
C992 C990 1.388 . S
C992 C993 1.366 . S
C993 C992 1.366 . S
C993 C994 1.414 . S
C993 C996 1.499 . S
C994 H974 0.950 . S
C994 C993 1.414 . S
C994 C995 1.374 . S
C995 H975 0.950 . S
C995 C991 1.385 . S
C995 C994 1.374 . S
C996 C993 1.499 . S
C996 C997 1.373 . S
C996 C998 1.389 . S
C997 H976 0.950 . S
C997 C996 1.373 . S
C997 C1013 1.377 . S
C998 C996 1.389 . S
C998 C999 1.524 . S
C998 C1012 1.377 . S
C999 C998 1.524 . S
C999 C1000 1.397 . S
C999 C1004 1.363 . S
C1000 H977 0.950 . S
C1000 C999 1.397 . S
C1000 C1001 1.334 . S
C1001 H978 0.950 . S
C1001 C1000 1.334 . S
C1001 C1002 1.287 . S
C1002 C1001 1.287 . S
C1002 C1003 1.524 . S
C1002 H1021 0.913 . S
C1003 H979 0.950 . S
C1003 C1002 1.524 . S
C1003 C1004 1.415 . S
C1004 H980 0.950 . S
C1004 C999 1.363 . S
C1004 C1003 1.415 . S
C1005 H981 0.951 . S
C1005 C1006 1.366 . S
C1005 C1007 1.388 . S
C1006 C1005 1.366 . S
C1006 C1010 1.385 . S
C1007 H982 0.951 . S
C1007 C1005 1.388 . S
C1007 C1008 1.366 . S
C1008 C1007 1.366 . S
C1008 C1009 1.414 . S
C1008 C1011 1.499 . S
C1009 H983 0.950 . S
C1009 C1008 1.414 . S
C1009 C1010 1.374 . S
C1010 H984 0.950 . S
C1010 C1006 1.385 . S
C1010 C1009 1.374 . S
C1011 C1008 1.499 . S
C1011 C1012 1.373 . S
C1011 C1013 1.389 . S
C1012 H985 0.950 . S
C1012 C998 1.377 . S
C1012 C1011 1.373 . S
C1013 C997 1.377 . S
C1013 C1011 1.389 . S
C1013 C1014 1.524 . S
C1014 C1013 1.524 . S
C1014 C1015 1.397 . S
C1014 C1019 1.363 . S
C1015 H986 0.950 . S
C1015 C1014 1.397 . S
C1015 C1016 1.334 . S
C1016 H987 0.950 . S
C1016 C1015 1.334 . S
C1016 C1017 1.287 . S
C1017 C1016 1.287 . S
C1017 C1018 1.524 . S
C1017 H1020 0.999 . S
C1018 H988 0.950 . S
C1018 C1017 1.524 . S
C1018 C1019 1.415 . S
C1019 H989 0.950 . S
C1019 C1014 1.363 . S
C1019 C1018 1.415 . S
H1020 C1017 0.999 . S
H1021 C1002 0.913 . S
H1022 C1040 0.951 . S
H1023 C1042 0.951 . S
H1024 C1044 0.950 . S
H1025 C1045 0.950 . S
H1026 C1047 0.950 . S
H1027 C1050 0.950 . S
H1028 C1051 0.950 . S
H1029 C1053 0.950 . S
H1030 C1054 0.950 . S
H1031 C1055 0.951 . S
H1032 C1057 0.951 . S
H1033 C1059 0.950 . S
H1034 C1060 0.950 . S
H1035 C1062 0.950 . S
H1036 C1065 0.950 . S
H1037 C1066 0.950 . S
H1038 C1068 0.950 . S
H1039 C1069 0.950 . S
C1040 H1022 0.951 . S
C1040 C1041 1.366 . S
C1040 C1042 1.388 . S
C1041 C1040 1.366 . S
C1041 C1045 1.385 . S
C1042 H1023 0.951 . S
C1042 C1040 1.388 . S
C1042 C1043 1.366 . S
C1043 C1042 1.366 . S
C1043 C1044 1.414 . S
C1043 C1046 1.499 . S
C1044 H1024 0.950 . S
C1044 C1043 1.414 . S
C1044 C1045 1.374 . S
C1045 H1025 0.950 . S
C1045 C1041 1.385 . S
C1045 C1044 1.374 . S
C1046 C1043 1.499 . S
C1046 C1047 1.373 . S
C1046 C1048 1.389 . S
C1047 H1026 0.950 . S
C1047 C1046 1.373 . S
C1047 C1063 1.377 . S
C1048 C1046 1.389 . S
C1048 C1049 1.524 . S
C1048 C1062 1.377 . S
C1049 C1048 1.524 . S
C1049 C1050 1.397 . S
C1049 C1054 1.363 . S
C1050 H1027 0.950 . S
C1050 C1049 1.397 . S
C1050 C1051 1.334 . S
C1051 H1028 0.950 . S
C1051 C1050 1.334 . S
C1051 C1052 1.287 . S
C1052 C1051 1.287 . S
C1052 C1053 1.524 . S
C1052 H1071 0.913 . S
C1053 H1029 0.950 . S
C1053 C1052 1.524 . S
C1053 C1054 1.415 . S
C1054 H1030 0.950 . S
C1054 C1049 1.363 . S
C1054 C1053 1.415 . S
C1055 H1031 0.951 . S
C1055 C1056 1.366 . S
C1055 C1057 1.388 . S
C1056 C1055 1.366 . S
C1056 C1060 1.385 . S
C1057 H1032 0.951 . S
C1057 C1055 1.388 . S
C1057 C1058 1.366 . S
C1058 C1057 1.366 . S
C1058 C1059 1.414 . S
C1058 C1061 1.499 . S
C1059 H1033 0.950 . S
C1059 C1058 1.414 . S
C1059 C1060 1.374 . S
C1060 H1034 0.950 . S
C1060 C1056 1.385 . S
C1060 C1059 1.374 . S
C1061 C1058 1.499 . S
C1061 C1062 1.373 . S
C1061 C1063 1.389 . S
C1062 H1035 0.950 . S
C1062 C1048 1.377 . S
C1062 C1061 1.373 . S
C1063 C1047 1.377 . S
C1063 C1061 1.389 . S
C1063 C1064 1.524 . S
C1064 C1063 1.524 . S
C1064 C1065 1.397 . S
C1064 C1069 1.363 . S
C1065 H1036 0.950 . S
C1065 C1064 1.397 . S
C1065 C1066 1.334 . S
C1066 H1037 0.950 . S
C1066 C1065 1.334 . S
C1066 C1067 1.287 . S
C1067 C1066 1.287 . S
C1067 C1068 1.524 . S
C1067 H1070 0.999 . S
C1068 H1038 0.950 . S
C1068 C1067 1.524 . S
C1068 C1069 1.415 . S
C1069 H1039 0.950 . S
C1069 C1064 1.363 . S
C1069 C1068 1.415 . S
H1070 C1067 0.999 . S
H1071 C1052 0.913 . S
H1072 C1090 0.951 . S
H1073 C1092 0.951 1_556 S
H1074 C1094 1.013 . S
H1075 C1095 0.950 . S
H1076 C1097 0.950 1_454 S
H1077 C1100 0.950 . S
H1078 C1101 0.950 . S
H1079 C1103 0.950 . S
H1080 C1104 0.950 . S
H1081 C1105 0.951 . S
H1082 C1107 0.951 . S
H1083 C1109 0.950 . S
H1084 C1110 0.950 . S
H1085 C1112 0.950 . S
H1086 C1115 0.950 1_556 S
H1087 C1116 0.950 . S
H1088 C1118 0.950 . S
H1089 C1119 0.950 . S
C1090 H1072 0.951 . S
C1090 C1091 1.366 . S
C1090 C1092 1.388 . S
C1091 C1090 1.366 . S
C1091 C1095 1.385 . S
C1092 H1073 0.951 1_554 S
C1092 C1090 1.388 . S
C1092 C1093 1.366 1_554 S
C1093 C1092 1.366 1_556 S
C1093 C1094 1.414 1_556 S
C1093 C1096 1.499 . S
C1094 H1074 1.013 . S
C1094 C1093 1.414 1_554 S
C1094 C1095 1.374 . S
C1095 H1075 0.950 . S
C1095 C1091 1.385 . S
C1095 C1094 1.374 . S
C1096 C1093 1.499 . S
C1096 C1097 1.373 . S
C1096 C1098 1.389 . S
C1097 H1076 0.950 1_656 S
C1097 C1096 1.373 . S
C1097 C1113 1.377 1_655 S
C1098 C1096 1.389 . S
C1098 C1099 1.524 . S
C1098 C1112 1.377 . S
C1099 C1098 1.524 . S
C1099 C1100 1.397 . S
C1099 C1104 1.363 . S
C1100 H1077 0.950 . S
C1100 C1099 1.397 . S
C1100 C1101 1.334 . S
C1101 H1078 0.950 . S
C1101 C1100 1.334 . S
C1101 C1102 1.287 . S
C1102 C1101 1.287 . S
C1102 C1103 1.524 . S
C1102 H1121 0.913 . S
C1103 H1079 0.950 . S
C1103 C1102 1.524 . S
C1103 C1104 1.415 . S
C1104 H1080 0.950 . S
C1104 C1099 1.363 . S
C1104 C1103 1.415 . S
C1105 H1081 0.951 . S
C1105 C1106 1.366 . S
C1105 C1107 1.388 . S
C1106 C1105 1.366 . S
C1106 C1110 1.385 1_455 S
C1107 H1082 0.951 . S
C1107 C1105 1.388 . S
C1107 C1108 1.422 . S
C1108 C1107 1.422 . S
C1108 C1109 1.378 1_455 S
C1108 C1111 1.479 1_455 S
C1109 H1083 0.950 . S
C1109 C1108 1.378 1_655 S
C1109 C1110 1.374 . S
C1110 H1084 0.950 . S
C1110 C1106 1.385 1_655 S
C1110 C1109 1.374 . S
C1111 C1108 1.479 1_655 S
C1111 C1112 1.373 . S
C1111 C1113 1.389 1_655 S
C1112 H1085 0.950 . S
C1112 C1098 1.377 . S
C1112 C1111 1.373 . S
C1113 C1097 1.377 1_455 S
C1113 C1111 1.389 1_455 S
C1113 C1114 1.524 . S
C1114 C1113 1.524 . S
C1114 C1115 1.397 1_556 S
C1114 C1119 1.363 1_556 S
C1115 H1086 0.950 1_554 S
C1115 C1114 1.397 1_554 S
C1115 C1116 1.334 . S
C1116 H1087 0.950 . S
C1116 C1115 1.334 . S
C1116 C1117 1.287 . S
C1117 C1116 1.287 . S
C1117 C1118 1.524 . S
C1117 H1120 0.999 . S
C1118 H1088 0.950 . S
C1118 C1117 1.524 . S
C1118 C1119 1.415 . S
C1119 H1089 0.950 . S
C1119 C1114 1.363 1_554 S
C1119 C1118 1.415 . S
H1120 C1117 0.999 . S
H1121 C1102 0.913 . S
H1122 C1140 0.951 . S
H1123 C1142 0.951 . S
H1124 C1144 0.950 . S
H1125 C1145 0.950 . S
H1126 C1147 0.950 . S
H1127 C1150 0.927 1_565 S
H1128 C1151 0.950 . S
H1129 C1153 0.950 . S
H1130 C1154 0.950 . S
H1131 C1155 0.951 . S
H1132 C1157 0.951 . S
H1133 C1159 0.953 . S
H1134 C1160 0.950 . S
H1135 C1162 0.950 1_545 S
H1136 C1165 0.950 . S
H1137 C1166 0.950 . S
H1138 C1168 0.950 . S
H1139 C1169 0.950 . S
C1140 H1122 0.951 . S
C1140 C1141 1.366 . S
C1140 C1142 1.388 1_554 S
C1141 C1140 1.366 . S
C1141 C1145 1.385 . S
C1142 H1123 0.951 . S
C1142 C1140 1.388 1_556 S
C1142 C1143 1.366 . S
C1143 C1142 1.366 . S
C1143 C1144 1.414 1_556 S
C1143 C1146 1.499 . S
C1144 H1124 0.950 . S
C1144 C1143 1.414 1_554 S
C1144 C1145 1.374 . S
C1145 H1125 0.950 . S
C1145 C1141 1.385 . S
C1145 C1144 1.374 . S
C1146 C1143 1.499 . S
C1146 C1147 1.373 . S
C1146 C1148 1.389 . S
C1147 H1126 0.950 . S
C1147 C1146 1.373 . S
C1147 C1163 1.377 . S
C1148 C1146 1.389 . S
C1148 C1149 1.524 . S
C1148 C1162 1.377 . S
C1149 C1148 1.524 . S
C1149 C1150 1.388 1_566 S
C1149 C1154 1.363 1_565 S
C1150 H1127 0.927 1_545 S
C1150 C1149 1.388 1_544 S
C1150 C1151 1.367 . S
C1151 H1128 0.950 . S
C1151 C1150 1.367 . S
C1151 C1152 1.287 1_554 S
C1152 C1151 1.287 1_556 S
C1152 C1153 1.524 . S
C1152 H1171 0.913 1_556 S
C1153 H1129 0.950 . S
C1153 C1152 1.524 . S
C1153 C1154 1.415 . S
C1154 H1130 0.950 . S
C1154 C1149 1.363 1_545 S
C1154 C1153 1.415 . S
C1155 H1131 0.951 . S
C1155 C1156 1.366 1_565 S
C1155 C1157 1.388 . S
C1156 C1155 1.366 1_545 S
C1156 C1160 1.385 . S
C1157 H1132 0.951 . S
C1157 C1155 1.388 . S
C1157 C1158 1.366 . S
C1158 C1157 1.366 . S
C1158 C1159 1.414 . S
C1158 C1161 1.499 . S
C1159 H1133 0.953 . S
C1159 C1158 1.414 . S
C1159 C1160 1.374 1_565 S
C1160 H1134 0.950 . S
C1160 C1156 1.385 . S
C1160 C1159 1.374 1_545 S
C1161 C1158 1.499 . S
C1161 C1162 1.373 . S
C1161 C1163 1.389 . S
C1162 H1135 0.950 1_565 S
C1162 C1148 1.377 . S
C1162 C1161 1.373 . S
C1163 C1147 1.377 . S
C1163 C1161 1.389 . S
C1163 C1164 1.524 . S
C1164 C1163 1.524 . S
C1164 C1165 1.397 . S
C1164 C1169 1.363 . S
C1165 H1136 0.950 . S
C1165 C1164 1.397 . S
C1165 C1166 1.334 . S
C1166 H1137 0.950 . S
C1166 C1165 1.334 . S
C1166 C1167 1.287 . S
C1167 C1166 1.287 . S
C1167 C1168 1.524 . S
C1167 H1170 0.999 . S
C1168 H1138 0.950 . S
C1168 C1167 1.524 . S
C1168 C1169 1.415 . S
C1169 H1139 0.950 . S
C1169 C1164 1.363 . S
C1169 C1168 1.415 . S
H1170 C1167 0.999 . S
H1171 C1152 0.913 1_554 S
H1172 C1190 0.951 . S
H1173 C1192 0.951 . S
H1174 C1194 0.950 . S
H1175 C1195 0.950 . S
H1176 C1197 0.950 . S
H1177 C1200 0.950 1_554 S
H1178 C1201 0.950 . S
H1179 C1203 0.950 . S
H1180 C1204 0.950 . S
H1181 C1205 0.951 . S
H1182 C1207 0.951 . S
H1183 C1209 0.950 . S
H1184 C1210 0.950 . S
H1185 C1212 0.950 . S
H1186 C1215 0.950 . S
H1187 C1216 0.950 . S
H1188 C1218 0.950 . S
H1189 C1219 0.950 . S
C1190 H1172 0.951 . S
C1190 C1191 1.366 1_556 S
C1190 C1192 1.388 . S
C1191 C1190 1.366 1_554 S
C1191 C1195 1.385 . S
C1192 H1173 0.951 . S
C1192 C1190 1.388 . S
C1192 C1193 1.366 . S
C1193 C1192 1.366 . S
C1193 C1194 1.414 . S
C1193 C1196 1.499 . S
C1194 H1174 0.950 . S
C1194 C1193 1.414 . S
C1194 C1195 1.374 1_556 S
C1195 H1175 0.950 . S
C1195 C1191 1.385 . S
C1195 C1194 1.374 1_554 S
C1196 C1193 1.499 . S
C1196 C1197 1.373 . S
C1196 C1198 1.389 . S
C1197 H1176 0.950 . S
C1197 C1196 1.373 . S
C1197 C1213 1.377 . S
C1198 C1196 1.389 . S
C1198 C1199 1.524 . S
C1198 C1212 1.377 . S
C1199 C1198 1.524 . S
C1199 C1200 1.397 . S
C1199 C1204 1.363 . S
C1200 H1177 0.950 1_556 S
C1200 C1199 1.397 . S
C1200 C1201 1.334 1_556 S
C1201 H1178 0.950 . S
C1201 C1200 1.334 1_554 S
C1201 C1202 1.287 1_554 S
C1202 C1201 1.287 1_556 S
C1202 C1203 1.524 . S
C1202 H1221 0.913 1_556 S
C1203 H1179 0.950 . S
C1203 C1202 1.524 . S
C1203 C1204 1.415 . S
C1204 H1180 0.950 . S
C1204 C1199 1.363 . S
C1204 C1203 1.415 . S
C1205 H1181 0.951 . S
C1205 C1206 1.366 . S
C1205 C1207 1.388 . S
C1206 C1205 1.366 . S
C1206 C1210 1.385 . S
C1207 H1182 0.951 . S
C1207 C1205 1.388 . S
C1207 C1208 1.366 . S
C1208 C1207 1.366 . S
C1208 C1209 1.414 . S
C1208 C1211 1.499 . S
C1209 H1183 0.950 . S
C1209 C1208 1.414 . S
C1209 C1210 1.374 . S
C1210 H1184 0.950 . S
C1210 C1206 1.385 . S
C1210 C1209 1.374 . S
C1211 C1208 1.499 . S
C1211 C1212 1.373 . S
C1211 C1213 1.389 . S
C1212 H1185 0.950 . S
C1212 C1198 1.377 . S
C1212 C1211 1.373 . S
C1213 C1197 1.377 . S
C1213 C1211 1.389 . S
C1213 C1214 1.524 . S
C1214 C1213 1.524 . S
C1214 C1215 1.397 . S
C1214 C1219 1.363 . S
C1215 H1186 0.950 . S
C1215 C1214 1.397 . S
C1215 C1216 1.334 . S
C1216 H1187 0.950 . S
C1216 C1215 1.334 . S
C1216 C1217 1.287 . S
C1217 C1216 1.287 . S
C1217 C1218 1.524 . S
C1217 H1220 0.999 . S
C1218 H1188 0.950 . S
C1218 C1217 1.524 . S
C1218 C1219 1.415 . S
C1219 H1189 0.950 . S
C1219 C1214 1.363 . S
C1219 C1218 1.415 . S
H1220 C1217 0.999 . S
H1221 C1202 0.913 1_554 S
H1222 C1240 0.951 . S
H1223 C1242 0.951 1_554 S
H1224 C1244 0.950 . S
H1225 C1245 0.950 . S
H1226 C1247 0.950 . S
H1227 C1250 0.950 . S
H1228 C1251 0.950 . S
H1229 C1253 0.950 . S
H1230 C1254 0.950 . S
H1231 C1255 0.951 . S
H1232 C1257 0.951 . S
H1233 C1259 0.950 . S
H1234 C1260 0.950 . S
H1235 C1262 0.950 . S
H1236 C1265 0.950 . S
H1237 C1266 0.950 . S
H1238 C1268 0.950 . S
H1239 C1269 0.950 . S
C1240 H1222 0.951 . S
C1240 C1241 1.366 1_554 S
C1240 C1242 1.388 1_554 S
C1241 C1240 1.366 1_556 S
C1241 C1245 1.385 . S
C1242 H1223 0.951 1_556 S
C1242 C1240 1.388 1_556 S
C1242 C1243 1.366 . S
C1243 C1242 1.366 . S
C1243 C1244 1.414 . S
C1243 C1246 1.499 . S
C1244 H1224 0.950 . S
C1244 C1243 1.414 . S
C1244 C1245 1.374 . S
C1245 H1225 0.950 . S
C1245 C1241 1.385 . S
C1245 C1244 1.374 . S
C1246 C1243 1.499 . S
C1246 C1247 1.373 . S
C1246 C1248 1.389 . S
C1247 H1226 0.950 . S
C1247 C1246 1.373 . S
C1247 C1263 1.377 . S
C1248 C1246 1.389 . S
C1248 C1249 1.524 . S
C1248 C1262 1.377 . S
C1249 C1248 1.524 . S
C1249 C1250 1.397 . S
C1249 C1254 1.363 . S
C1250 H1227 0.950 . S
C1250 C1249 1.397 . S
C1250 C1251 1.334 . S
C1251 H1228 0.950 . S
C1251 C1250 1.334 . S
C1251 C1252 1.287 . S
C1252 C1251 1.287 . S
C1252 C1253 1.524 . S
C1252 H1271 0.913 . S
C1253 H1229 0.950 . S
C1253 C1252 1.524 . S
C1253 C1254 1.415 . S
C1254 H1230 0.950 . S
C1254 C1249 1.363 . S
C1254 C1253 1.415 . S
C1255 H1231 0.951 . S
C1255 C1256 1.366 . S
C1255 C1257 1.388 . S
C1256 C1255 1.366 . S
C1256 C1260 1.385 . S
C1257 H1232 0.951 . S
C1257 C1255 1.388 . S
C1257 C1258 1.366 . S
C1258 C1257 1.366 . S
C1258 C1259 1.414 . S
C1258 C1261 1.499 . S
C1259 H1233 0.950 . S
C1259 C1258 1.414 . S
C1259 C1260 1.374 . S
C1260 H1234 0.950 . S
C1260 C1256 1.385 . S
C1260 C1259 1.374 . S
C1261 C1258 1.499 . S
C1261 C1262 1.373 . S
C1261 C1263 1.389 . S
C1262 H1235 0.950 . S
C1262 C1248 1.377 . S
C1262 C1261 1.373 . S
C1263 C1247 1.377 . S
C1263 C1261 1.389 . S
C1263 C1264 1.524 . S
C1264 C1263 1.524 . S
C1264 C1265 1.397 . S
C1264 C1269 1.363 . S
C1265 H1236 0.950 . S
C1265 C1264 1.397 . S
C1265 C1266 1.334 . S
C1266 H1237 0.950 . S
C1266 C1265 1.334 . S
C1266 C1267 1.287 . S
C1267 C1266 1.287 . S
C1267 C1268 1.524 . S
C1267 H1270 0.999 . S
C1268 H1238 0.950 . S
C1268 C1267 1.524 . S
C1268 C1269 1.415 . S
C1269 H1239 0.950 . S
C1269 C1264 1.363 . S
C1269 C1268 1.415 . S
H1270 C1267 0.999 . S
H1271 C1252 0.913 . S
H1272 C1290 0.951 . S
H1273 C1292 0.951 . S
H1274 C1294 0.950 . S
H1275 C1295 0.950 . S
H1276 C1297 0.950 . S
H1277 C1300 0.950 . S
H1278 C1301 0.950 . S
H1279 C1303 0.950 . S
H1280 C1304 0.950 . S
H1281 C1305 0.951 . S
H1282 C1307 0.951 . S
H1283 C1309 0.950 . S
H1284 C1310 0.950 . S
H1285 C1312 0.950 . S
H1286 C1315 0.950 . S
H1287 C1316 0.950 . S
H1288 C1318 0.950 . S
H1289 C1319 0.950 . S
C1290 H1272 0.951 . S
C1290 C1291 1.366 . S
C1290 C1292 1.388 . S
C1291 C1290 1.366 . S
C1291 C1295 1.385 . S
C1292 H1273 0.951 . S
C1292 C1290 1.388 . S
C1292 C1293 1.366 . S
C1293 C1292 1.366 . S
C1293 C1294 1.414 . S
C1293 C1296 1.499 . S
C1294 H1274 0.950 . S
C1294 C1293 1.414 . S
C1294 C1295 1.374 . S
C1295 H1275 0.950 . S
C1295 C1291 1.385 . S
C1295 C1294 1.374 . S
C1296 C1293 1.499 . S
C1296 C1297 1.373 . S
C1296 C1298 1.389 . S
C1297 H1276 0.950 . S
C1297 C1296 1.373 . S
C1297 C1313 1.377 . S
C1298 C1296 1.389 . S
C1298 C1299 1.524 . S
C1298 C1312 1.377 . S
C1299 C1298 1.524 . S
C1299 C1300 1.397 . S
C1299 C1304 1.363 . S
C1300 H1277 0.950 . S
C1300 C1299 1.397 . S
C1300 C1301 1.334 . S
C1301 H1278 0.950 . S
C1301 C1300 1.334 . S
C1301 C1302 1.287 . S
C1302 C1301 1.287 . S
C1302 C1303 1.524 . S
C1302 H1321 0.913 . S
C1303 H1279 0.950 . S
C1303 C1302 1.524 . S
C1303 C1304 1.415 . S
C1304 H1280 0.950 . S
C1304 C1299 1.363 . S
C1304 C1303 1.415 . S
C1305 H1281 0.951 . S
C1305 C1306 1.366 . S
C1305 C1307 1.388 . S
C1306 C1305 1.366 . S
C1306 C1310 1.385 . S
C1307 H1282 0.951 . S
C1307 C1305 1.388 . S
C1307 C1308 1.366 . S
C1308 C1307 1.366 . S
C1308 C1309 1.414 . S
C1308 C1311 1.499 . S
C1309 H1283 0.950 . S
C1309 C1308 1.414 . S
C1309 C1310 1.374 . S
C1310 H1284 0.950 . S
C1310 C1306 1.385 . S
C1310 C1309 1.374 . S
C1311 C1308 1.499 . S
C1311 C1312 1.373 . S
C1311 C1313 1.389 . S
C1312 H1285 0.950 . S
C1312 C1298 1.377 . S
C1312 C1311 1.373 . S
C1313 C1297 1.377 . S
C1313 C1311 1.389 . S
C1313 C1314 1.524 . S
C1314 C1313 1.524 . S
C1314 C1315 1.397 1_455 S
C1314 C1319 1.363 . S
C1315 H1286 0.950 . S
C1315 C1314 1.397 1_655 S
C1315 C1316 1.334 . S
C1316 H1287 0.950 . S
C1316 C1315 1.334 . S
C1316 C1317 1.287 . S
C1317 C1316 1.287 . S
C1317 C1318 1.524 . S
C1317 H1320 0.999 . S
C1318 H1288 0.950 . S
C1318 C1317 1.524 . S
C1318 C1319 1.415 1_655 S
C1319 H1289 0.950 . S
C1319 C1314 1.363 . S
C1319 C1318 1.415 1_455 S
H1320 C1317 0.999 . S
H1321 C1302 0.913 . S
H1322 C1340 0.951 . S
H1323 C1342 0.951 . S
H1324 C1344 0.950 . S
H1325 C1345 0.950 . S
H1326 C1347 0.950 . S
H1327 C1350 0.950 . S
H1328 C1351 0.950 . S
H1329 C1353 0.950 . S
H1330 C1354 0.950 . S
H1331 C1355 0.951 . S
H1332 C1357 0.951 . S
H1333 C1359 0.950 . S
H1334 C1360 0.950 . S
H1335 C1362 0.950 . S
H1336 C1365 0.950 . S
H1337 C1366 0.950 1_565 S
H1338 C1368 0.950 . S
H1339 C1369 0.950 . S
C1340 H1322 0.951 . S
C1340 C1341 1.366 . S
C1340 C1342 1.388 . S
C1341 C1340 1.366 . S
C1341 C1345 1.385 . S
C1342 H1323 0.951 . S
C1342 C1340 1.388 . S
C1342 C1343 1.366 . S
C1343 C1342 1.366 . S
C1343 C1344 1.414 . S
C1343 C1346 1.499 . S
C1344 H1324 0.950 . S
C1344 C1343 1.414 . S
C1344 C1345 1.374 . S
C1345 H1325 0.950 . S
C1345 C1341 1.385 . S
C1345 C1344 1.374 . S
C1346 C1343 1.499 . S
C1346 C1347 1.373 . S
C1346 C1348 1.389 . S
C1347 H1326 0.950 . S
C1347 C1346 1.373 . S
C1347 C1363 1.377 . S
C1348 C1346 1.389 . S
C1348 C1349 1.524 . S
C1348 C1362 1.377 . S
C1349 C1348 1.524 . S
C1349 C1350 1.397 . S
C1349 C1354 1.363 . S
C1350 H1327 0.950 . S
C1350 C1349 1.397 . S
C1350 C1351 1.334 . S
C1351 H1328 0.950 . S
C1351 C1350 1.334 . S
C1351 C1352 1.287 . S
C1352 C1351 1.287 . S
C1352 C1353 1.524 . S
C1352 H1371 0.913 . S
C1353 H1329 0.950 . S
C1353 C1352 1.524 . S
C1353 C1354 1.415 . S
C1354 H1330 0.950 . S
C1354 C1349 1.363 . S
C1354 C1353 1.415 . S
C1355 H1331 0.951 . S
C1355 C1356 1.366 . S
C1355 C1357 1.388 . S
C1356 C1355 1.366 . S
C1356 C1360 1.385 . S
C1357 H1332 0.951 . S
C1357 C1355 1.388 . S
C1357 C1358 1.366 . S
C1358 C1357 1.366 . S
C1358 C1359 1.414 . S
C1358 C1361 1.499 . S
C1359 H1333 0.950 . S
C1359 C1358 1.414 . S
C1359 C1360 1.374 . S
C1360 H1334 0.950 . S
C1360 C1356 1.385 . S
C1360 C1359 1.374 . S
C1361 C1358 1.499 . S
C1361 C1362 1.373 . S
C1361 C1363 1.389 . S
C1362 H1335 0.950 . S
C1362 C1348 1.377 . S
C1362 C1361 1.373 . S
C1363 C1347 1.377 . S
C1363 C1361 1.389 . S
C1363 C1364 1.524 . S
C1364 C1363 1.524 . S
C1364 C1365 1.397 . S
C1364 C1369 1.363 . S
C1365 H1336 0.950 . S
C1365 C1364 1.397 . S
C1365 C1366 1.334 . S
C1366 H1337 0.950 1_545 S
C1366 C1365 1.334 . S
C1366 C1367 1.287 . S
C1367 C1366 1.287 . S
C1367 C1368 1.524 . S
C1367 H1370 0.999 . S
C1368 H1338 0.950 . S
C1368 C1367 1.524 . S
C1368 C1369 1.415 . S
C1369 H1339 0.950 . S
C1369 C1364 1.363 . S
C1369 C1368 1.415 . S
H1370 C1367 0.999 . S
H1371 C1352 0.913 . S
H1372 C1390 0.951 . S
H1373 C1392 0.951 . S
H1374 C1394 0.950 . S
H1375 C1395 0.950 . S
H1376 C1397 0.950 . S
H1377 C1400 0.950 . S
H1378 C1401 0.950 . S
H1379 C1403 0.950 . S
H1380 C1404 0.950 . S
H1381 C1405 0.951 . S
H1382 C1407 0.951 . S
H1383 C1409 0.950 . S
H1384 C1410 0.950 . S
H1385 C1412 0.950 . S
H1386 C1415 0.950 . S
H1387 C1416 0.950 . S
H1388 C1418 0.950 . S
H1389 C1419 0.950 . S
C1390 H1372 0.951 . S
C1390 C1391 1.366 . S
C1390 C1392 1.388 . S
C1391 C1390 1.366 . S
C1391 C1395 1.385 . S
C1392 H1373 0.951 . S
C1392 C1390 1.388 . S
C1392 C1393 1.366 . S
C1393 C1392 1.366 . S
C1393 C1394 1.414 . S
C1393 C1396 1.499 . S
C1394 H1374 0.950 . S
C1394 C1393 1.414 . S
C1394 C1395 1.374 . S
C1395 H1375 0.950 . S
C1395 C1391 1.385 . S
C1395 C1394 1.374 . S
C1396 C1393 1.499 . S
C1396 C1397 1.373 . S
C1396 C1398 1.389 . S
C1397 H1376 0.950 . S
C1397 C1396 1.373 . S
C1397 C1413 1.377 . S
C1398 C1396 1.389 . S
C1398 C1399 1.524 . S
C1398 C1412 1.377 . S
C1399 C1398 1.524 . S
C1399 C1400 1.397 . S
C1399 C1404 1.363 . S
C1400 H1377 0.950 . S
C1400 C1399 1.397 . S
C1400 C1401 1.334 . S
C1401 H1378 0.950 . S
C1401 C1400 1.334 . S
C1401 C1402 1.287 . S
C1402 C1401 1.287 . S
C1402 C1403 1.524 . S
C1402 H1421 0.913 . S
C1403 H1379 0.950 . S
C1403 C1402 1.524 . S
C1403 C1404 1.415 . S
C1404 H1380 0.950 . S
C1404 C1399 1.363 . S
C1404 C1403 1.415 . S
C1405 H1381 0.951 . S
C1405 C1406 1.366 . S
C1405 C1407 1.388 . S
C1406 C1405 1.366 . S
C1406 C1410 1.385 . S
C1407 H1382 0.951 . S
C1407 C1405 1.388 . S
C1407 C1408 1.366 . S
C1408 C1407 1.366 . S
C1408 C1409 1.414 . S
C1408 C1411 1.499 . S
C1409 H1383 0.950 . S
C1409 C1408 1.414 . S
C1409 C1410 1.374 . S
C1410 H1384 0.950 . S
C1410 C1406 1.385 . S
C1410 C1409 1.374 . S
C1411 C1408 1.499 . S
C1411 C1412 1.373 . S
C1411 C1413 1.389 . S
C1412 H1385 0.950 . S
C1412 C1398 1.377 . S
C1412 C1411 1.373 . S
C1413 C1397 1.377 . S
C1413 C1411 1.389 . S
C1413 C1414 1.524 . S
C1414 C1413 1.524 . S
C1414 C1415 1.397 . S
C1414 C1419 1.363 . S
C1415 H1386 0.950 . S
C1415 C1414 1.397 . S
C1415 C1416 1.334 . S
C1416 H1387 0.950 . S
C1416 C1415 1.334 . S
C1416 C1417 1.287 . S
C1417 C1416 1.287 . S
C1417 C1418 1.524 . S
C1417 H1420 0.999 . S
C1418 H1388 0.950 . S
C1418 C1417 1.524 . S
C1418 C1419 1.415 . S
C1419 H1389 0.950 . S
C1419 C1414 1.363 . S
C1419 C1418 1.415 . S
H1420 C1417 0.999 . S
H1421 C1402 0.913 . S
H1422 C1440 0.951 . S
H1423 C1442 0.951 . S
H1424 C1444 0.950 . S
H1425 C1445 0.950 . S
H1426 C1447 0.950 . S
H1427 C1450 0.950 . S
H1428 C1451 0.950 . S
H1429 C1453 0.950 . S
H1430 C1454 0.950 . S
H1431 C1455 0.951 . S
H1432 C1457 0.951 . S
H1433 C1459 0.950 . S
H1434 C1460 0.950 . S
H1435 C1462 0.950 . S
H1436 C1465 0.950 . S
H1437 C1466 0.950 . S
H1438 C1468 0.950 . S
H1439 C1469 0.950 . S
C1440 H1422 0.951 . S
C1440 C1441 1.366 . S
C1440 C1442 1.388 . S
C1441 C1440 1.366 . S
C1441 C1445 1.385 . S
C1442 H1423 0.951 . S
C1442 C1440 1.388 . S
C1442 C1443 1.366 . S
C1443 C1442 1.366 . S
C1443 C1444 1.414 . S
C1443 C1446 1.499 . S
C1444 H1424 0.950 . S
C1444 C1443 1.414 . S
C1444 C1445 1.374 . S
C1445 H1425 0.950 . S
C1445 C1441 1.385 . S
C1445 C1444 1.374 . S
C1446 C1443 1.499 . S
C1446 C1447 1.373 . S
C1446 C1448 1.389 . S
C1447 H1426 0.950 . S
C1447 C1446 1.373 . S
C1447 C1463 1.377 . S
C1448 C1446 1.389 . S
C1448 C1449 1.524 . S
C1448 C1462 1.377 . S
C1449 C1448 1.524 . S
C1449 C1450 1.397 . S
C1449 C1454 1.363 . S
C1450 H1427 0.950 . S
C1450 C1449 1.397 . S
C1450 C1451 1.334 . S
C1451 H1428 0.950 . S
C1451 C1450 1.334 . S
C1451 C1452 1.287 . S
C1452 C1451 1.287 . S
C1452 C1453 1.524 . S
C1452 H1471 0.913 . S
C1453 H1429 0.950 . S
C1453 C1452 1.524 . S
C1453 C1454 1.415 . S
C1454 H1430 0.950 . S
C1454 C1449 1.363 . S
C1454 C1453 1.415 . S
C1455 H1431 0.951 . S
C1455 C1456 1.366 . S
C1455 C1457 1.388 . S
C1456 C1455 1.366 . S
C1456 C1460 1.385 . S
C1457 H1432 0.951 . S
C1457 C1455 1.388 . S
C1457 C1458 1.366 . S
C1458 C1457 1.366 . S
C1458 C1459 1.414 . S
C1458 C1461 1.499 . S
C1459 H1433 0.950 . S
C1459 C1458 1.414 . S
C1459 C1460 1.374 . S
C1460 H1434 0.950 . S
C1460 C1456 1.385 . S
C1460 C1459 1.374 . S
C1461 C1458 1.499 . S
C1461 C1462 1.373 . S
C1461 C1463 1.389 . S
C1462 H1435 0.950 . S
C1462 C1448 1.377 . S
C1462 C1461 1.373 . S
C1463 C1447 1.377 . S
C1463 C1461 1.389 . S
C1463 C1464 1.524 . S
C1464 C1463 1.524 . S
C1464 C1465 1.397 . S
C1464 C1469 1.363 . S
C1465 H1436 0.950 . S
C1465 C1464 1.397 . S
C1465 C1466 1.334 . S
C1466 H1437 0.950 . S
C1466 C1465 1.334 . S
C1466 C1467 1.287 . S
C1467 C1466 1.287 . S
C1467 C1468 1.524 . S
C1467 H1470 0.999 . S
C1468 H1438 0.950 . S
C1468 C1467 1.524 . S
C1468 C1469 1.415 . S
C1469 H1439 0.950 . S
C1469 C1464 1.363 . S
C1469 C1468 1.415 . S
H1470 C1467 0.999 . S
H1471 C1452 0.913 . S
H1472 C1490 0.951 . S
H1473 C1492 0.951 . S
H1474 C1494 0.950 . S
H1475 C1495 0.950 . S
H1476 C1497 0.950 1_455 S
H1477 C1500 0.950 . S
H1478 C1501 0.950 . S
H1479 C1503 0.950 . S
H1480 C1504 0.950 . S
H1481 C1505 0.951 1_455 S
H1482 C1507 0.946 1_455 S
H1483 C1509 0.950 . S
H1484 C1510 0.950 . S
H1485 C1512 0.950 . S
H1486 C1515 0.950 . S
H1487 C1516 0.950 . S
H1488 C1518 0.950 . S
H1489 C1519 0.950 . S
C1490 H1472 0.951 . S
C1490 C1491 1.366 . S
C1490 C1492 1.388 . S
C1491 C1490 1.366 . S
C1491 C1495 1.385 . S
C1492 H1473 0.951 . S
C1492 C1490 1.388 . S
C1492 C1493 1.366 . S
C1493 C1492 1.366 . S
C1493 C1494 1.414 . S
C1493 C1496 1.499 . S
C1494 H1474 0.950 . S
C1494 C1493 1.414 . S
C1494 C1495 1.374 . S
C1495 H1475 0.950 . S
C1495 C1491 1.385 . S
C1495 C1494 1.374 . S
C1496 C1493 1.499 . S
C1496 C1497 1.373 . S
C1496 C1498 1.389 . S
C1497 H1476 0.950 1_655 S
C1497 C1496 1.373 . S
C1497 C1513 1.377 . S
C1498 C1496 1.389 . S
C1498 C1499 1.524 . S
C1498 C1512 1.377 . S
C1499 C1498 1.524 . S
C1499 C1500 1.397 . S
C1499 C1504 1.363 . S
C1500 H1477 0.950 . S
C1500 C1499 1.397 . S
C1500 C1501 1.334 . S
C1501 H1478 0.950 . S
C1501 C1500 1.334 . S
C1501 C1502 1.287 . S
C1502 C1501 1.287 . S
C1502 C1503 1.524 . S
C1502 H1521 0.913 . S
C1503 H1479 0.950 . S
C1503 C1502 1.524 . S
C1503 C1504 1.415 . S
C1504 H1480 0.950 . S
C1504 C1499 1.363 . S
C1504 C1503 1.415 . S
C1505 H1481 0.951 1_655 S
C1505 C1506 1.366 . S
C1505 C1507 1.388 . S
C1506 C1505 1.366 . S
C1506 C1510 1.385 . S
C1507 H1482 0.946 1_655 S
C1507 C1505 1.388 . S
C1507 C1508 1.366 . S
C1508 C1507 1.366 . S
C1508 C1509 1.414 . S
C1508 C1511 1.499 . S
C1509 H1483 0.950 . S
C1509 C1508 1.414 . S
C1509 C1510 1.374 . S
C1510 H1484 0.950 . S
C1510 C1506 1.385 . S
C1510 C1509 1.374 . S
C1511 C1508 1.499 . S
C1511 C1512 1.373 . S
C1511 C1513 1.389 . S
C1512 H1485 0.950 . S
C1512 C1498 1.377 . S
C1512 C1511 1.373 . S
C1513 C1497 1.377 . S
C1513 C1511 1.389 . S
C1513 C1514 1.524 1_655 S
C1514 C1513 1.524 1_455 S
C1514 C1515 1.397 . S
C1514 C1519 1.363 . S
C1515 H1486 0.950 . S
C1515 C1514 1.397 . S
C1515 C1516 1.334 . S
C1516 H1487 0.950 . S
C1516 C1515 1.334 . S
C1516 C1517 1.287 . S
C1517 C1516 1.287 . S
C1517 C1518 1.524 . S
C1517 H1520 0.999 . S
C1518 H1488 0.950 . S
C1518 C1517 1.524 . S
C1518 C1519 1.415 . S
C1519 H1489 0.950 . S
C1519 C1514 1.363 . S
C1519 C1518 1.415 . S
H1520 C1517 0.999 . S
H1521 C1502 0.913 . S
H1522 C1540 0.951 . S
H1523 C1542 0.951 . S
H1524 C1544 0.950 . S
H1525 C1545 0.950 . S
H1526 C1547 0.950 . S
H1527 C1550 0.950 . S
H1528 C1551 0.950 1_545 S
H1529 C1553 0.950 . S
H1530 C1554 0.950 . S
H1531 C1555 0.951 . S
H1532 C1557 0.951 . S
H1533 C1559 0.950 . S
H1534 C1560 0.950 . S
H1535 C1562 0.950 . S
H1536 C1565 0.950 . S
H1537 C1566 0.950 . S
H1538 C1568 0.950 . S
H1539 C1569 0.950 . S
C1540 H1522 0.951 . S
C1540 C1541 1.366 . S
C1540 C1542 1.388 . S
C1541 C1540 1.366 . S
C1541 C1545 1.385 . S
C1542 H1523 0.951 . S
C1542 C1540 1.388 . S
C1542 C1543 1.366 . S
C1543 C1542 1.366 . S
C1543 C1544 1.414 . S
C1543 C1546 1.499 . S
C1544 H1524 0.950 . S
C1544 C1543 1.414 . S
C1544 C1545 1.374 . S
C1545 H1525 0.950 . S
C1545 C1541 1.385 . S
C1545 C1544 1.374 . S
C1546 C1543 1.499 . S
C1546 C1547 1.373 . S
C1546 C1548 1.389 . S
C1547 H1526 0.950 . S
C1547 C1546 1.373 . S
C1547 C1563 1.377 . S
C1548 C1546 1.389 . S
C1548 C1549 1.524 . S
C1548 C1562 1.377 . S
C1549 C1548 1.524 . S
C1549 C1550 1.397 . S
C1549 C1554 1.363 . S
C1550 H1527 0.950 . S
C1550 C1549 1.397 . S
C1550 C1551 1.334 . S
C1551 H1528 0.950 1_565 S
C1551 C1550 1.334 . S
C1551 C1552 1.287 . S
C1552 C1551 1.287 . S
C1552 C1553 1.524 . S
C1552 H1571 0.913 . S
C1553 H1529 0.950 . S
C1553 C1552 1.524 . S
C1553 C1554 1.415 . S
C1554 H1530 0.950 . S
C1554 C1549 1.363 . S
C1554 C1553 1.415 . S
C1555 H1531 0.951 . S
C1555 C1556 1.366 . S
C1555 C1557 1.388 . S
C1556 C1555 1.366 . S
C1556 C1560 1.385 . S
C1557 H1532 0.951 . S
C1557 C1555 1.388 . S
C1557 C1558 1.366 . S
C1558 C1557 1.366 . S
C1558 C1559 1.414 . S
C1558 C1561 1.499 . S
C1559 H1533 0.950 . S
C1559 C1558 1.414 . S
C1559 C1560 1.374 . S
C1560 H1534 0.950 . S
C1560 C1556 1.385 . S
C1560 C1559 1.374 . S
C1561 C1558 1.499 . S
C1561 C1562 1.373 . S
C1561 C1563 1.389 . S
C1562 H1535 0.950 . S
C1562 C1548 1.377 . S
C1562 C1561 1.373 . S
C1563 C1547 1.377 . S
C1563 C1561 1.389 . S
C1563 C1564 1.524 . S
C1564 C1563 1.524 . S
C1564 C1565 1.397 . S
C1564 C1569 1.363 . S
C1565 H1536 0.950 . S
C1565 C1564 1.397 . S
C1565 C1566 1.334 . S
C1566 H1537 0.950 . S
C1566 C1565 1.334 . S
C1566 C1567 1.287 . S
C1567 C1566 1.287 . S
C1567 C1568 1.524 . S
C1567 H1570 0.999 . S
C1568 H1538 0.950 . S
C1568 C1567 1.524 . S
C1568 C1569 1.415 . S
C1569 H1539 0.950 . S
C1569 C1564 1.363 . S
C1569 C1568 1.415 . S
H1570 C1567 0.999 . S
H1571 C1552 0.913 . S
H1572 C1590 0.951 . S
H1573 C1592 0.951 . S
H1574 C1594 0.950 . S
H1575 C1595 0.950 . S
H1576 C1597 0.950 . S
H1577 C1600 0.950 . S
H1578 C1601 0.950 . S
H1579 C1603 0.950 . S
H1580 C1604 0.950 . S
H1581 C1605 0.951 . S
H1582 C1607 0.951 . S
H1583 C1609 0.950 . S
H1584 C1610 0.950 . S
H1585 C1612 0.950 . S
H1586 C1615 0.950 . S
H1587 C1616 0.950 . S
H1588 C1618 0.950 . S
H1589 C1619 0.950 . S
C1590 H1572 0.951 . S
C1590 C1591 1.366 . S
C1590 C1592 1.388 . S
C1591 C1590 1.366 . S
C1591 C1595 1.385 . S
C1592 H1573 0.951 . S
C1592 C1590 1.388 . S
C1592 C1593 1.366 . S
C1593 C1592 1.366 . S
C1593 C1594 1.414 . S
C1593 C1596 1.499 . S
C1594 H1574 0.950 . S
C1594 C1593 1.414 . S
C1594 C1595 1.374 . S
C1595 H1575 0.950 . S
C1595 C1591 1.385 . S
C1595 C1594 1.374 . S
C1596 C1593 1.499 . S
C1596 C1597 1.373 . S
C1596 C1598 1.389 . S
C1597 H1576 0.950 . S
C1597 C1596 1.373 . S
C1597 C1613 1.377 . S
C1598 C1596 1.389 . S
C1598 C1599 1.524 . S
C1598 C1612 1.377 . S
C1599 C1598 1.524 . S
C1599 C1600 1.397 . S
C1599 C1604 1.363 . S
C1600 H1577 0.950 . S
C1600 C1599 1.397 . S
C1600 C1601 1.334 . S
C1601 H1578 0.950 . S
C1601 C1600 1.334 . S
C1601 C1602 1.287 . S
C1602 C1601 1.287 . S
C1602 C1603 1.524 . S
C1602 H1621 0.913 . S
C1603 H1579 0.950 . S
C1603 C1602 1.524 . S
C1603 C1604 1.415 . S
C1604 H1580 0.950 . S
C1604 C1599 1.363 . S
C1604 C1603 1.415 . S
C1605 H1581 0.951 . S
C1605 C1606 1.366 . S
C1605 C1607 1.388 . S
C1606 C1605 1.366 . S
C1606 C1610 1.385 . S
C1607 H1582 0.951 . S
C1607 C1605 1.388 . S
C1607 C1608 1.366 . S
C1608 C1607 1.366 . S
C1608 C1609 1.414 . S
C1608 C1611 1.499 . S
C1609 H1583 0.950 . S
C1609 C1608 1.414 . S
C1609 C1610 1.374 . S
C1610 H1584 0.950 . S
C1610 C1606 1.385 . S
C1610 C1609 1.374 . S
C1611 C1608 1.499 . S
C1611 C1612 1.373 . S
C1611 C1613 1.389 . S
C1612 H1585 0.950 . S
C1612 C1598 1.377 . S
C1612 C1611 1.373 . S
C1613 C1597 1.377 . S
C1613 C1611 1.389 . S
C1613 C1614 1.524 . S
C1614 C1613 1.524 . S
C1614 C1615 1.397 . S
C1614 C1619 1.363 . S
C1615 H1586 0.950 . S
C1615 C1614 1.397 . S
C1615 C1616 1.334 . S
C1616 H1587 0.950 . S
C1616 C1615 1.334 . S
C1616 C1617 1.287 . S
C1617 C1616 1.287 . S
C1617 C1618 1.524 . S
C1617 H1620 0.999 . S
C1618 H1588 0.950 . S
C1618 C1617 1.524 . S
C1618 C1619 1.415 . S
C1619 H1589 0.950 . S
C1619 C1614 1.363 . S
C1619 C1618 1.415 . S
H1620 C1617 0.999 . S
H1621 C1602 0.913 . S
H1622 C1640 0.951 . S
H1623 C1642 0.951 . S
H1624 C1644 0.950 . S
H1625 C1645 0.950 . S
H1626 C1647 0.950 . S
H1627 C1650 0.950 . S
H1628 C1651 0.950 . S
H1629 C1653 0.950 . S
H1630 C1654 0.950 . S
H1631 C1655 0.951 . S
H1632 C1657 0.951 . S
H1633 C1659 0.950 . S
H1634 C1660 0.950 . S
H1635 C1662 0.950 . S
H1636 C1665 0.950 . S
H1637 C1666 0.950 . S
H1638 C1668 0.950 . S
H1639 C1669 0.950 . S
C1640 H1622 0.951 . S
C1640 C1641 1.366 . S
C1640 C1642 1.388 . S
C1641 C1640 1.366 . S
C1641 C1645 1.385 . S
C1642 H1623 0.951 . S
C1642 C1640 1.388 . S
C1642 C1643 1.366 . S
C1643 C1642 1.366 . S
C1643 C1644 1.414 . S
C1643 C1646 1.499 . S
C1644 H1624 0.950 . S
C1644 C1643 1.414 . S
C1644 C1645 1.374 . S
C1645 H1625 0.950 . S
C1645 C1641 1.385 . S
C1645 C1644 1.374 . S
C1646 C1643 1.499 . S
C1646 C1647 1.373 . S
C1646 C1648 1.389 . S
C1647 H1626 0.950 . S
C1647 C1646 1.373 . S
C1647 C1663 1.377 . S
C1648 C1646 1.389 . S
C1648 C1649 1.524 . S
C1648 C1662 1.377 . S
C1649 C1648 1.524 . S
C1649 C1650 1.397 . S
C1649 C1654 1.363 . S
C1650 H1627 0.950 . S
C1650 C1649 1.397 . S
C1650 C1651 1.334 . S
C1651 H1628 0.950 . S
C1651 C1650 1.334 . S
C1651 C1652 1.287 . S
C1652 C1651 1.287 . S
C1652 C1653 1.524 . S
C1652 H1671 0.913 . S
C1653 H1629 0.950 . S
C1653 C1652 1.524 . S
C1653 C1654 1.415 . S
C1654 H1630 0.950 . S
C1654 C1649 1.363 . S
C1654 C1653 1.415 . S
C1655 H1631 0.951 . S
C1655 C1656 1.366 . S
C1655 C1657 1.388 . S
C1656 C1655 1.366 . S
C1656 C1660 1.385 . S
C1657 H1632 0.951 . S
C1657 C1655 1.388 . S
C1657 C1658 1.366 . S
C1658 C1657 1.366 . S
C1658 C1659 1.414 . S
C1658 C1661 1.499 . S
C1659 H1633 0.950 . S
C1659 C1658 1.414 . S
C1659 C1660 1.374 . S
C1660 H1634 0.950 . S
C1660 C1656 1.385 . S
C1660 C1659 1.374 . S
C1661 C1658 1.499 . S
C1661 C1662 1.373 . S
C1661 C1663 1.389 . S
C1662 H1635 0.950 . S
C1662 C1648 1.377 . S
C1662 C1661 1.373 . S
C1663 C1647 1.377 . S
C1663 C1661 1.389 . S
C1663 C1664 1.524 . S
C1664 C1663 1.524 . S
C1664 C1665 1.397 . S
C1664 C1669 1.363 . S
C1665 H1636 0.950 . S
C1665 C1664 1.397 . S
C1665 C1666 1.334 . S
C1666 H1637 0.950 . S
C1666 C1665 1.334 . S
C1666 C1667 1.287 . S
C1667 C1666 1.287 . S
C1667 C1668 1.524 . S
C1667 H1670 0.999 . S
C1668 H1638 0.950 . S
C1668 C1667 1.524 . S
C1668 C1669 1.415 . S
C1669 H1639 0.950 . S
C1669 C1664 1.363 . S
C1669 C1668 1.415 . S
H1670 C1667 0.999 . S
H1671 C1652 0.913 . S
C491 C255 2.600 . S
C506 C343 2.759 . S
C556 C369 2.002 . S
C541 C294 1.845 . S
C606 C409 2.112 . S
C591 C177 1.983 . S
C656 C463 2.698 . S
C641 C216 2.573 . S
C706 C324 2.759 . S
C691 C99 2.612 . S
C741 C138 1.853 . S
C756 C354 2.002 . S
C791 C21 1.993 . S
C806 C394 2.112 . S
C841 C60 2.582 . S
C856 C444 2.699 1_655 S
C906 C320 0.318 . S
C891 C196 0.376 . S
C956 C381 0.466 . S
C941 C235 0.474 . S
C1006 C421 0.252 . S
C991 C289 0.187 . S
C1041 C157 0.539 . S
C1056 C440 0.383 . S
C1091 C40 0.350 . S
C1106 C341 0.282 . S
C1156 C360 0.466 . S
C1141 C79 0.466 . S
C1206 C400 0.249 . S
C1191 C133 0.194 . S
C1241 C1 0.513 . S
C1256 C461 0.381 . S
C1291 C211 2.259 . S
C1306 C314 2.527 . S
C1341 C250 3.052 . S
C1356 C364 3.334 . S
C1406 C404 2.999 . S
C1391 C274 2.748 . S
C1456 C434 2.259 . S
C1441 C172 2.036 . S
C1491 C55 2.257 . S
C1506 C329 2.528 . S
C1556 C383 3.334 . S
C1541 C94 3.049 . S
C1606 C423 2.998 . S
C1591 C118 2.754 . S
C1641 C16 2.033 . S
C1656 C449 2.260 . S
