# Generated by pormake.
# Topology wbl, (4,4)-cn, num edge types: 1
# Building blocks:
#     Node 0, Type 0, BuildingBlock: MIFKUJ_clean_linker_1, # of connection points: 4
#     Node 1, Type 0, BuildingBlock: MIFKUJ_clean_linker_1, # of connection points: 4
#     Node 2, Type 0, BuildingBlock: MIFKUJ_clean_linker_1, # of connection points: 4
#     Node 3, Type 0, BuildingBlock: MIFKUJ_clean_linker_1, # of connection points: 4
#     Node 4, Type 0, BuildingBlock: MIFKUJ_clean_linker_1, # of connection points: 4
#     Node 5, Type 0, BuildingBlock: MIFKUJ_clean_linker_1, # of connection points: 4
#     Node 6, Type 0, BuildingBlock: MIFKUJ_clean_linker_1, # of connection points: 4
#     Node 7, Type 0, BuildingBlock: MIFKUJ_clean_linker_1, # of connection points: 4
#     Node 8, Type 1, BuildingBlock: QUQFOY_clean_sbu_3, # of connection points: 4
#     Node 9, Type 1, BuildingBlock: QUQFOY_clean_sbu_3, # of connection points: 4
#     Node 10, Type 1, BuildingBlock: QUQFOY_clean_sbu_3, # of connection points: 4
#     Node 11, Type 1, BuildingBlock: QUQFOY_clean_sbu_3, # of connection points: 4
#     Node 12, Type 1, BuildingBlock: QUQFOY_clean_sbu_3, # of connection points: 4
#     Node 13, Type 1, BuildingBlock: QUQFOY_clean_sbu_3, # of connection points: 4
#     Node 14, Type 1, BuildingBlock: QUQFOY_clean_sbu_3, # of connection points: 4
#     Node 15, Type 1, BuildingBlock: QUQFOY_clean_sbu_3, # of connection points: 4
#     Edge 16, Type (0, 1), BuildingBlock: CIFDUS_clean_linker_0, # of connection points: 2
#     Edge 17, Type (0, 1), BuildingBlock: CIFDUS_clean_linker_0, # of connection points: 2
#     Edge 18, Type (0, 1), BuildingBlock: CIFDUS_clean_linker_0, # of connection points: 2
#     Edge 19, Type (0, 1), BuildingBlock: CIFDUS_clean_linker_0, # of connection points: 2
#     Edge 20, Type (0, 1), BuildingBlock: CIFDUS_clean_linker_0, # of connection points: 2
#     Edge 21, Type (0, 1), BuildingBlock: CIFDUS_clean_linker_0, # of connection points: 2
#     Edge 22, Type (0, 1), BuildingBlock: CIFDUS_clean_linker_0, # of connection points: 2
#     Edge 23, Type (0, 1), BuildingBlock: CIFDUS_clean_linker_0, # of connection points: 2
#     Edge 24, Type (0, 1), BuildingBlock: CIFDUS_clean_linker_0, # of connection points: 2
#     Edge 25, Type (0, 1), BuildingBlock: CIFDUS_clean_linker_0, # of connection points: 2
#     Edge 26, Type (0, 1), BuildingBlock: CIFDUS_clean_linker_0, # of connection points: 2
#     Edge 27, Type (0, 1), BuildingBlock: CIFDUS_clean_linker_0, # of connection points: 2
#     Edge 28, Type (0, 1), BuildingBlock: CIFDUS_clean_linker_0, # of connection points: 2
#     Edge 29, Type (0, 1), BuildingBlock: CIFDUS_clean_linker_0, # of connection points: 2
#     Edge 30, Type (0, 1), BuildingBlock: CIFDUS_clean_linker_0, # of connection points: 2
#     Edge 31, Type (0, 1), BuildingBlock: CIFDUS_clean_linker_0, # of connection points: 2
#     Edge 32, Type (0, 1), BuildingBlock: CIFDUS_clean_linker_0, # of connection points: 2
#     Edge 33, Type (0, 1), BuildingBlock: CIFDUS_clean_linker_0, # of connection points: 2
#     Edge 34, Type (0, 1), BuildingBlock: CIFDUS_clean_linker_0, # of connection points: 2
#     Edge 35, Type (0, 1), BuildingBlock: CIFDUS_clean_linker_0, # of connection points: 2
#     Edge 36, Type (0, 1), BuildingBlock: CIFDUS_clean_linker_0, # of connection points: 2
#     Edge 37, Type (0, 1), BuildingBlock: CIFDUS_clean_linker_0, # of connection points: 2
#     Edge 38, Type (0, 1), BuildingBlock: CIFDUS_clean_linker_0, # of connection points: 2
#     Edge 39, Type (0, 1), BuildingBlock: CIFDUS_clean_linker_0, # of connection points: 2
#     Edge 40, Type (0, 1), BuildingBlock: CIFDUS_clean_linker_0, # of connection points: 2
#     Edge 41, Type (0, 1), BuildingBlock: CIFDUS_clean_linker_0, # of connection points: 2
#     Edge 42, Type (0, 1), BuildingBlock: CIFDUS_clean_linker_0, # of connection points: 2
#     Edge 43, Type (0, 1), BuildingBlock: CIFDUS_clean_linker_0, # of connection points: 2
#     Edge 44, Type (0, 1), BuildingBlock: CIFDUS_clean_linker_0, # of connection points: 2
#     Edge 45, Type (0, 1), BuildingBlock: CIFDUS_clean_linker_0, # of connection points: 2
#     Edge 46, Type (0, 1), BuildingBlock: CIFDUS_clean_linker_0, # of connection points: 2
#     Edge 47, Type (0, 1), BuildingBlock: CIFDUS_clean_linker_0, # of connection points: 2
# Relax obj value: 0.160
# Max RMSD: 0.160
# Mean RMSD: 0.137
data_MOF--net-wbl--node1-QUQFOY_clean_sbu_3--node2-MIFKUJ_clean_linker_1--edge1-CIFDUS_clean_linker_0
_symmetry_space_group_name_H-M    P1
_symmetry_Int_Tables_number       1
_symmetry_cell_setting            triclinic
loop_
_symmetry_equiv_pos_as_xyz
'x, y, z'
_cell_length_a     41.710965
_cell_length_b     42.200043
_cell_length_c     67.608393
_cell_angle_alpha  90.951462
_cell_angle_beta   90.253486
_cell_angle_gamma 89.909018
loop_
_atom_site_label
_atom_site_type_symbol
_atom_site_fract_x
_atom_site_fract_y
_atom_site_fract_z
_atom_type_partial_charge
H0 H 0.02472 0.11054 0.34759 0.0
H1 H 0.9918 0.14006 0.37128 0.0
H2 H 0.91297 0.07598 0.35963 0.0
H3 H 0.94641 0.04629 0.33586 0.0
H4 H 0.03444 0.04293 0.35491 0.0
H5 H 0.98494 0.11317 0.30794 0.0
H6 H 0.936 0.13246 0.29275 0.0
H7 H 0.9246 0.04219 0.26219 0.0
H8 H 0.97105 0.02185 0.27956 0.0
H9 H 0.0506 0.96664 0.28326 0.0
H10 H 0.09447 0.93862 0.26607 0.0
H11 H 0.16255 0.00384 0.29251 0.0
H12 H 0.11898 0.03146 0.30957 0.0
H13 H 0.0303 0.02984 0.28197 0.0
H14 H 0.06994 0.95726 0.32851 0.0
H15 H 0.10008 0.9273 0.3529 0.0
H16 H 0.12119 0.0146 0.38482 0.0
H17 H 0.09361 0.04432 0.35956 0.0
C18 C 0.9879 0.07637 0.33997 0.0
C19 C 0.00011 0.10328 0.34983 0.0
C20 C 0.98121 0.1202 0.36329 0.0
C21 C 0.94981 0.11031 0.36735 0.0
C22 C 0.93717 0.08401 0.35688 0.0
C23 C 0.9561 0.06717 0.34323 0.0
C24 C 0.01002 0.05609 0.32832 0.0
C25 C 0.03399 0.04045 0.33891 0.0
C26 C 0.00776 0.05161 0.30754 0.0
C27 C 0.98105 0.06547 0.29574 0.0
C28 C 0.97148 0.09722 0.29837 0.0
C29 C 0.94368 0.10854 0.28921 0.0
C30 C 0.92547 0.08876 0.2765 0.0
C31 C 0.93693 0.05787 0.2725 0.0
C32 C 0.96402 0.04627 0.28221 0.0
C33 C 0.08161 0.00101 0.29774 0.0
C34 C 0.07499 0.9749 0.28523 0.0
C35 C 0.1 0.95887 0.27553 0.0
C36 C 0.13184 0.96919 0.2779 0.0
C37 C 0.13821 -0.0044 0.29022 0.0
C38 C 0.11338 0.01127 0.30008 0.0
C39 C 0.05566 0.01767 0.30863 0.0
C40 C 0.03096 0.03252 0.29795 0.0
C41 C 0.0566 0.02095 0.32947 0.0
C42 C 0.07942 0.00315 0.34213 0.0
C43 C 0.08216 0.97004 0.34033 0.0
C44 C 0.09896 0.95283 0.35456 0.0
C45 C 0.11278 0.9683 0.37114 0.0
C46 C 0.11139 0.00163 0.37225 0.0
C47 C 0.0952 0.01879 0.35785 0.0
H48 H -0.00181 0.47701 0.51601 0.0
H49 H 0.98083 0.42618 0.50195 0.0
H50 H 0.88947 0.43714 0.53137 0.0
H51 H 0.90613 0.48878 0.54406 0.0
H52 H 0.98262 0.53673 0.51508 0.0
H53 H 0.98624 0.4592 0.56694 0.0
H54 H 0.97193 0.42134 0.59253 0.0
H55 H 0.8986 0.48572 0.61378 0.0
H56 H 0.9126 0.52299 0.58802 0.0
H57 H 0.96159 0.61749 0.58259 0.0
H58 H 0.98676 0.64865 0.60917 0.0
H59 H 0.07874 0.60795 0.59384 0.0
H60 H 0.0535 0.57808 0.56676 0.0
H61 H 0.97291 0.54891 0.5879 0.0
H62 H 0.97606 0.62888 0.53949 0.0
H63 H 0.00363 0.67144 0.52264 0.0
H64 H 0.07015 0.60346 0.49742 0.0
H65 H 0.04281 0.56087 0.5149 0.0
C66 C 0.95373 0.4864 0.53145 0.0
C67 C 0.97414 0.46877 0.51901 0.0
C68 C 0.96429 0.43951 0.51117 0.0
C69 C 0.93392 0.42719 0.51576 0.0
C70 C 0.91291 0.44582 0.52733 0.0
C71 C 0.92259 0.47525 0.53488 0.0
C72 C 0.96564 0.51528 0.54187 0.0
C73 C 0.98059 0.53928 0.53102 0.0
C74 C 0.96261 0.51906 0.56262 0.0
C75 C 0.9504 0.49384 0.57557 0.0
C76 C 0.96648 0.46468 0.57676 0.0
C77 C 0.95847 0.44323 0.59149 0.0
C78 C 0.93427 0.45062 0.60526 0.0
C79 C 0.91709 0.47911 0.60329 0.0
C80 C 0.92517 0.50053 0.58864 0.0
C81 C 0.00571 0.5955 0.57281 0.0
C82 C 0.98737 0.61636 0.58448 0.0
C83 C 0.00178 0.63386 0.59979 0.0
C84 C 0.03465 0.63017 0.60398 0.0
C85 C 0.05343 0.6115 0.59103 0.0
C86 C 0.03903 0.59435 0.57552 0.0
C87 C 0.98964 0.5701 0.56121 0.0
C88 C 0.9742 0.54659 0.5719 0.0
C89 C 0.99264 0.56671 0.54051 0.0
C90 C 0.0077 0.59181 0.52869 0.0
C91 C -0.00349 0.6231 0.53027 0.0
C92 C 0.01207 0.64737 0.52042 0.0
C93 C 0.0391 0.64084 0.50867 0.0
C94 C 0.04955 0.60926 0.50649 0.0
C95 C 0.03388 0.58491 0.51637 0.0
H96 H 0.48042 0.58027 0.84391 0.0
H97 H 0.44672 0.6027 0.87013 0.0
H98 H 0.38259 0.5228 0.86426 0.0
H99 H 0.41635 0.5006 0.83775 0.0
H100 H 0.50613 0.51733 0.85114 0.0
H101 H 0.44375 0.57495 0.80553 0.0
H102 H 0.39328 0.59157 0.79107 0.0
H103 H 0.38019 0.49745 0.76594 0.0
H104 H 0.42924 0.48019 0.78227 0.0
H105 H 0.51362 0.43092 0.78505 0.0
H106 H 0.55533 0.40037 0.76764 0.0
H107 H 0.62389 0.47427 0.78133 0.0
H108 H 0.58228 0.50458 0.79852 0.0
H109 H 0.48875 0.49202 0.78004 0.0
H110 H 0.54771 0.4335 0.82809 0.0
H111 H 0.58708 0.41354 0.85158 0.0
H112 H 0.60315 0.50928 0.87331 0.0
H113 H 0.56603 0.52905 0.84876 0.0
C114 C 0.45076 0.53888 0.83893 0.0
C115 C 0.45857 0.56811 0.84787 0.0
C116 C 0.43925 0.58092 0.86277 0.0
C117 C 0.41215 0.56439 0.86924 0.0
C118 C 0.40343 0.53592 0.85955 0.0
C119 C 0.42254 0.52334 0.84439 0.0
C120 C 0.47459 0.52254 0.82627 0.0
C121 C 0.50276 0.51236 0.83546 0.0
C122 C 0.46918 0.51515 0.80606 0.0
C123 C 0.43989 0.52602 0.79558 0.0
C124 C 0.42971 0.55768 0.79726 0.0
C125 C 0.40103 0.56736 0.78855 0.0
C126 C 0.38228 0.54587 0.77735 0.0
C127 C 0.39344 0.51454 0.77484 0.0
C128 C 0.42178 0.50468 0.78398 0.0
C129 C 0.54501 0.46984 0.79317 0.0
C130 C 0.53757 0.44063 0.78404 0.0
C131 C 0.56137 0.42318 0.77421 0.0
C132 C 0.59278 0.435 0.77311 0.0
C133 C 0.5998 0.46476 0.78172 0.0
C134 C 0.57614 0.48199 0.79167 0.0
C135 C 0.52069 0.48716 0.80495 0.0
C136 C 0.49237 0.49736 0.79564 0.0
C137 C 0.52588 0.49464 0.82517 0.0
C138 C 0.55382 0.48283 0.83663 0.0
C139 C 0.56072 0.45029 0.83736 0.0
C140 C 0.58289 0.43883 0.8511 0.0
C141 C 0.59802 0.45962 0.86472 0.0
C142 C 0.59245 0.49239 0.86304 0.0
C143 C 0.57084 0.50382 0.84908 0.0
H144 H 0.50146 0.94973 0.02484 0.0
H145 H 0.47593 0.90299 0.01044 0.0
H146 H 0.38446 0.93435 0.03348 0.0
H147 H 0.41054 0.98121 0.04821 0.0
H148 H 0.49447 0.01323 0.02112 0.0
H149 H 0.47573 0.93389 0.07309 0.0
H150 H 0.45076 0.90351 0.09963 0.0
H151 H 0.40439 0.98858 0.12132 0.0
H152 H 0.42858 0.01867 0.09466 0.0
H153 H 0.51307 0.1051 0.07335 0.0
H154 H 0.54571 0.13533 0.09763 0.0
H155 H 0.59773 0.04997 0.11154 0.0
H156 H 0.56521 0.02012 0.08766 0.0
H157 H 0.49406 0.02284 0.09426 0.0
H158 H 0.49062 0.0726 0.01576 0.0
H159 H 0.51668 0.11539 -0.00148 0.0
H160 H 0.6025 0.10083 0.03349 0.0
H161 H 0.5777 0.05533 0.04854 0.0
C162 C 0.45797 0.9688 0.03771 0.0
C163 C 0.4758 0.94687 0.0265 0.0
C164 C 0.46108 0.92017 0.0182 0.0
C165 C 0.42809 0.91489 0.02078 0.0
C166 C 0.40997 0.93754 0.03142 0.0
C167 C 0.4248 0.96433 0.03979 0.0
C168 C 0.47491 -0.00501 0.04813 0.0
C169 C 0.49425 0.01554 0.03713 0.0
C170 C 0.4739 -0.00146 0.06893 0.0
C171 C 0.45398 0.97857 0.08189 0.0
C172 C 0.4592 0.94573 0.08308 0.0
C173 C 0.44499 0.92841 0.09823 0.0
C174 C 0.42585 0.94386 0.11247 0.0
C175 C 0.41909 0.97622 0.11049 0.0
C176 C 0.43291 0.99338 0.0953 0.0
C177 C 0.5367 0.06043 0.0789 0.0
C178 C 0.53206 0.09322 0.08132 0.0
C179 C 0.55073 0.11041 0.09506 0.0
C180 C 0.57393 0.0948 0.10651 0.0
C181 C 0.5798 0.06244 0.103 0.0
C182 C 0.56127 0.04541 0.0894 0.0
C183 C 0.51407 0.04048 0.06739 0.0
C184 C 0.49373 0.02103 0.07822 0.0
C185 C 0.51367 0.03863 0.04648 0.0
C186 C 0.53159 0.06152 0.0342 0.0
C187 C 0.51537 0.07803 0.01933 0.0
C188 C 0.53024 0.10299 0.00967 0.0
C189 C 0.5614 0.11276 0.01509 0.0
C190 C 0.57847 0.09447 0.02886 0.0
C191 C 0.56394 0.06872 0.03796 0.0
H192 H -0.00184 0.59731 0.90759 0.0
H193 H 0.02861 0.62381 0.88187 0.0
H194 H 0.10764 0.5596 0.89097 0.0
H195 H 0.0768 0.53248 0.91654 0.0
H196 H 0.98317 0.53619 0.89944 0.0
H197 H 0.04119 0.59336 0.94976 0.0
H198 H 0.09091 0.61038 0.96548 0.0
H199 H 0.10846 0.51423 0.98408 0.0
H200 H 0.06048 0.4969 0.96652 0.0
H201 H 0.97964 0.43848 0.95595 0.0
H202 H 0.93925 0.4046 0.97166 0.0
H203 H 0.87051 0.48099 0.96866 0.0
H204 H 0.9104 0.51423 0.95266 0.0
H205 H 0.00131 0.50414 0.96878 0.0
H206 H 0.95856 0.44558 0.91418 0.0
H207 H 0.92716 0.42307 0.88684 0.0
H208 H 0.88719 0.51553 0.87541 0.0
H209 H 0.9189 0.53796 0.90272 0.0
C210 C 0.03514 0.56283 0.91391 0.0
C211 C 0.02243 0.58954 0.90453 0.0
C212 C 0.0398 0.60469 0.88989 0.0
C213 C 0.0703 0.5936 0.88452 0.0
C214 C 0.08425 0.56869 0.89508 0.0
C215 C 0.06668 0.55324 0.90965 0.0
C216 C 0.01333 0.54207 0.92512 0.0
C217 C 0.9868 0.52985 0.91479 0.0
C218 C 0.01919 0.53237 0.94478 0.0
C219 C 0.04749 0.54363 0.95633 0.0
C220 C 0.056 0.57582 0.95693 0.0
C221 C 0.08425 0.58567 0.96634 0.0
C222 C 0.10415 0.56366 0.97592 0.0
C223 C 0.09437 0.53177 0.97639 0.0
C224 C 0.06659 0.52184 0.96655 0.0
C225 C 0.94785 0.47876 0.95321 0.0
C226 C 0.95588 0.44784 0.95881 0.0
C227 C 0.9329 0.42857 0.96767 0.0
C228 C 0.902 0.44039 0.97146 0.0
C229 C 0.89432 0.47151 0.9661 0.0
C230 C 0.91697 0.49044 0.95692 0.0
C231 C 0.97119 0.49897 0.94303 0.0
C232 C -0.00228 0.51103 0.95354 0.0
C233 C 0.96596 0.50817 0.92335 0.0
C234 C 0.94108 0.49346 0.91048 0.0
C235 C 0.9421 0.46078 0.9063 0.0
C236 C 0.92418 0.44794 0.8906 0.0
C237 C 0.90508 0.46764 0.87879 0.0
C238 C 0.90214 0.49989 0.88404 0.0
C239 C 0.92006 0.51269 0.89971 0.0
H240 H 0.53009 0.55613 0.23033 0.0
H241 H 0.51476 0.60863 0.2426 0.0
H242 H 0.41856 0.59345 0.22004 0.0
H243 H 0.43331 0.53991 0.21015 0.0
H244 H 0.5116 0.49391 0.23569 0.0
H245 H 0.52319 0.55503 0.16901 0.0
H246 H 0.50388 0.58931 0.14292 0.0
H247 H 0.40731 0.55517 0.1523 0.0
H248 H 0.42781 0.51861 0.17686 0.0
H249 H 0.48951 0.41681 0.1644 0.0
H250 H 0.51675 0.38397 0.13951 0.0
H251 H 0.60836 0.41228 0.16401 0.0
H252 H 0.58097 0.4448 0.18896 0.0
H253 H 0.4998 0.4801 0.16298 0.0
H254 H 0.49833 0.40324 0.21371 0.0
H255 H 0.52361 0.35881 0.23037 0.0
H256 H 0.60019 0.42029 0.25056 0.0
H257 H 0.57452 0.46499 0.23371 0.0
C258 C 0.48314 0.5445 0.21865 0.0
C259 C 0.50551 0.56392 0.2285 0.0
C260 C 0.49675 0.59425 0.23521 0.0
C261 C 0.46557 0.60607 0.23184 0.0
C262 C 0.44278 0.58561 0.22303 0.0
C263 C 0.45135 0.555 0.2169 0.0
C264 C 0.49362 0.5146 0.20878 0.0
C265 C 0.50897 0.49086 0.21981 0.0
C266 C 0.48986 0.51014 0.18812 0.0
C267 C 0.47681 0.53482 0.17508 0.0
C268 C 0.49779 0.55538 0.16556 0.0
C269 C 0.48654 0.57518 0.15069 0.0
C270 C 0.45385 0.5752 0.14524 0.0
C271 C 0.43271 0.55545 0.15559 0.0
C272 C 0.44424 0.53491 0.16998 0.0
C273 C 0.5332 0.43333 0.17848 0.0
C274 C 0.51543 0.41512 0.1648 0.0
C275 C 0.53102 0.39653 0.15053 0.0
C276 C 0.56469 0.39602 0.1496 0.0
C277 C 0.5824 0.41205 0.1644 0.0
C278 C 0.56676 0.43063 0.17871 0.0
C279 C 0.51737 0.4593 0.18979 0.0
C280 C 0.50162 0.48263 0.17896 0.0
C281 C 0.52057 0.46305 0.21051 0.0
C282 C 0.53458 0.43735 0.22246 0.0
C283 C 0.52032 0.40728 0.22196 0.0
C284 C 0.53473 0.38195 0.23158 0.0
C285 C 0.56386 0.38607 0.24183 0.0
C286 C 0.5778 0.41642 0.24272 0.0
C287 C 0.56309 0.44196 0.23324 0.0
H288 H 0.51809 0.87727 0.41768 0.0
H289 H 0.47744 0.85323 0.39596 0.0
H290 H 0.41132 0.92826 0.41164 0.0
H291 H 0.45201 0.95203 0.43355 0.0
H292 H 0.535 0.9426 0.40739 0.0
H293 H 0.5008 0.88136 0.46411 0.0
H294 H 0.45659 0.86238 0.48442 0.0
H295 H 0.43212 0.95935 0.49971 0.0
H296 H 0.47664 0.97792 0.47982 0.0
H297 H 0.55772 0.0296 0.47371 0.0
H298 H 0.60175 0.06182 0.48732 0.0
H299 H 0.67014 -0.00023 0.45836 0.0
H300 H 0.62632 0.96738 0.44532 0.0
H301 H 0.5416 0.96906 0.47905 0.0
H302 H 0.56027 0.03178 0.42158 0.0
H303 H 0.58278 0.05652 0.39225 0.0
H304 H 0.62684 0.96728 0.37551 0.0
H305 H 0.60311 0.94255 0.40436 0.0
C306 C 0.48798 0.91636 0.42716 0.0
C307 C 0.49444 0.88784 0.41699 0.0
C308 C 0.47118 0.8741 0.40467 0.0
C309 C 0.44136 0.88903 0.4021 0.0
C310 C 0.43416 0.91635 0.4134 0.0
C311 C 0.45729 0.92985 0.42593 0.0
C312 C 0.51459 0.93482 0.43605 0.0
C313 C 0.53701 0.94771 0.42314 0.0
C314 C 0.51594 0.94286 0.45639 0.0
C315 C 0.49171 0.93104 0.47033 0.0
C316 C 0.48609 0.89843 0.47207 0.0
C317 C 0.46081 0.88765 0.48365 0.0
C318 C 0.44068 0.90933 0.49362 0.0
C319 C 0.4474 0.94193 0.49252 0.0
C320 C 0.47275 0.95265 0.48105 0.0
C321 C 0.58879 -0.00371 0.45838 0.0
C322 C 0.58223 0.02297 0.47037 0.0
C323 C 0.60734 0.04142 0.47802 0.0
C324 C 0.63934 0.03322 0.47394 0.0
C325 C 0.64574 0.00644 0.46197 0.0
C326 C 0.62072 0.98812 0.45432 0.0
C327 C 0.5625 0.97639 0.45035 0.0
C328 C 0.54009 0.96339 0.46337 0.0
C329 C 0.56043 0.96897 0.42995 0.0
C330 C 0.57988 0.98531 0.415 0.0
C331 C 0.57546 0.01782 0.41182 0.0
C332 C 0.58841 0.03194 0.39506 0.0
C333 C 0.6061 0.01373 0.38132 0.0
C334 C 0.61263 0.98178 0.38552 0.0
C335 C 0.59933 0.96764 0.40208 0.0
H336 H 0.00601 0.0716 0.72408 0.0
H337 H 0.98245 0.1191 0.73897 0.0
H338 H 0.88818 0.08719 0.72062 0.0
H339 H 0.91238 0.04029 0.70499 0.0
H340 H -0.00453 0.00486 0.72853 0.0
H341 H 0.98877 0.08614 0.67786 0.0
H342 H 0.96679 0.12343 0.65387 0.0
H343 H 0.89962 0.05202 0.63361 0.0
H344 H 0.9216 0.01499 0.65763 0.0
H345 H 0.99155 0.93181 0.65437 0.0
H346 H 0.02677 0.90727 0.62941 0.0
H347 H 0.10821 0.95471 0.65589 0.0
H348 H 0.07322 0.97856 0.68109 0.0
H349 H 0.9888 -0.00132 0.65525 0.0
H350 H 0.99311 0.91759 0.70265 0.0
H351 H 0.01911 0.87444 0.72025 0.0
H352 H 0.08914 0.94003 0.74421 0.0
H353 H 0.06245 0.98362 0.72667 0.0
C354 C 0.96094 0.05266 0.71337 0.0
C355 C 0.98022 0.07467 0.72355 0.0
C356 C 0.96661 0.10175 0.73215 0.0
C357 C 0.93333 0.10713 0.73098 0.0
C358 C 0.91392 0.08415 0.72151 0.0
C359 C 0.92764 0.05724 0.71269 0.0
C360 C 0.97605 0.02623 0.70226 0.0
C361 C 0.99412 0.00361 0.71251 0.0
C362 C 0.97337 0.02383 0.68145 0.0
C363 C 0.95667 0.04791 0.66953 0.0
C364 C 0.96875 0.07886 0.6686 0.0
C365 C 0.95635 0.10002 0.65482 0.0
C366 C 0.93159 0.09057 0.64184 0.0
C367 C 0.91845 0.06008 0.64356 0.0
C368 C 0.93105 0.03887 0.6572 0.0
C369 C 0.02985 0.95684 0.6696 0.0
C370 C 0.01715 0.93593 0.65524 0.0
C371 C 0.03721 0.92194 0.64105 0.0
C372 C 0.07001 0.92926 0.64086 0.0
C373 C 0.08297 0.94866 0.65591 0.0
C374 C 0.06305 0.96214 0.6703 0.0
C375 C 0.00844 0.97761 0.68142 0.0
C376 C 0.98947 -0.00053 0.67131 0.0
C377 C 0.01003 0.97909 0.70225 0.0
C378 C 0.02592 0.95367 0.71339 0.0
C379 C 0.01392 0.92274 0.7118 0.0
C380 C 0.02865 0.8982 0.72195 0.0
C381 C 0.05592 0.90405 0.7337 0.0
C382 C 0.06807 0.93504 0.73528 0.0
C383 C 0.05288 0.95983 0.72535 0.0
C384 C 0.38672 0.64235 0.04342 0.0
O385 O 0.41017 0.65043 0.03275 0.0
Cd386 Cd 0.4036 0.66748 -0.00073 0.0
O387 O 0.35805 0.64496 0.0371 0.0
Cd388 Cd 0.33248 0.66669 0.00698 0.0
C389 C 0.36802 0.73804 0.00838 0.0
O390 O 0.3633 0.63623 0.9827 0.0
O391 O 0.336 0.67524 0.97106 0.0
O392 O 0.29059 0.62746 0.00986 0.0
C393 C 0.35197 0.65014 0.96775 0.0
O394 O 0.39147 0.72367 0.00027 0.0
C395 C 0.26728 0.64671 0.00913 0.0
O396 O 0.344 0.72268 0.01468 0.0
O397 O 0.27417 0.67597 0.00833 0.0
C398 C 0.40295 0.87971 0.22174 0.0
O399 O 0.42526 0.8802 0.23455 0.0
Cd400 Cd 0.42191 0.85536 0.26565 0.0
O401 O 0.37575 0.8675 0.22563 0.0
Cd402 Cd 0.34902 0.8453 0.2558 0.0
C403 C 0.3951 0.78016 0.25247 0.0
O404 O 0.37563 0.87821 0.2807 0.0
O405 O 0.35199 0.8369 0.29189 0.0
O406 O 0.30662 0.88256 0.24855 0.0
C407 C 0.36613 0.86293 0.2955 0.0
O408 O 0.41731 0.79853 0.25866 0.0
C409 C 0.28334 0.86405 0.25167 0.0
O410 O 0.36694 0.79074 0.24924 0.0
O411 O 0.2904 0.83554 0.25569 0.0
C412 C 0.17885 0.90894 0.4749 0.0
O413 O 0.18747 0.92794 0.4887 0.0
Cd414 Cd 0.19603 0.91461 0.52274 0.0
O415 O 0.17496 0.87953 0.47822 0.0
Cd416 Cd 0.18312 0.84454 0.50712 0.0
C417 C 0.26058 0.86765 0.51467 0.0
O418 O 0.15456 0.87823 0.53086 0.0
O419 O 0.17686 0.83655 0.54289 0.0
O420 O 0.14109 0.81014 0.49374 0.0
C421 C 0.15899 0.86051 0.54556 0.0
O422 O 0.2496 0.89229 0.52337 0.0
C423 C 0.15684 0.7846 0.49581 0.0
O424 O 0.24174 0.84781 0.50629 0.0
O425 O 0.18544 0.78724 0.50214 0.0
C426 C 0.12172 0.62628 0.77351 0.0
O427 O 0.11797 0.60571 0.7598 0.0
Cd428 Cd 0.14205 0.61028 0.72824 0.0
O429 O 0.13638 0.65221 0.77034 0.0
Cd430 Cd 0.1593 0.67996 0.74097 0.0
C431 C 0.22019 0.62817 0.74159 0.0
O432 O 0.12164 0.65946 0.7165 0.0
O433 O 0.16327 0.68214 0.70445 0.0
O434 O 0.12822 0.72447 0.75315 0.0
C435 C 0.13576 0.67021 0.70151 0.0
O436 O 0.19975 0.60826 0.73493 0.0
C437 C 0.14923 0.74549 0.75008 0.0
O438 O 0.21209 0.65665 0.74556 0.0
O439 O 0.17617 0.73588 0.74362 0.0
C440 C 0.86716 0.16393 0.46863 0.0
O441 O 0.87027 0.19302 0.47273 0.0
Cd442 Cd 0.8419 0.18787 0.50544 0.0
O443 O 0.85288 0.14777 0.48137 0.0
Cd444 Cd 0.83749 0.19051 0.50763 0.0
C445 C 0.77732 0.15651 0.50097 0.0
O446 O 0.87408 0.17313 0.53355 0.0
O447 O 0.82489 0.17674 0.54269 0.0
O448 O 0.87692 0.2343 0.50242 0.0
C449 C 0.85376 0.17036 0.54726 0.0
O450 O 0.80334 0.14224 0.50427 0.0
C451 C 0.85625 0.25633 0.50212 0.0
O452 O 0.7788 0.18636 0.50025 0.0
O453 O 0.82716 0.24816 0.50394 0.0
C454 C 0.8801 0.37373 0.70651 0.0
O455 O 0.90411 0.37107 0.71797 0.0
Cd456 Cd 0.89887 0.35512 0.75174 0.0
O457 O 0.85199 0.36798 0.71276 0.0
Cd458 Cd 0.82634 0.35117 0.74387 0.0
C459 C 0.8659 0.28197 0.74413 0.0
O460 O 0.85648 0.38537 0.76673 0.0
O461 O 0.82893 0.34828 0.78014 0.0
O462 O 0.78495 0.38834 0.7345 0.0
C463 C 0.84533 0.37337 0.78232 0.0
O464 O 0.88921 0.29821 0.75103 0.0
C465 C 0.76142 0.37076 0.73875 0.0
O466 O 0.84021 0.29541 0.73841 0.0
O467 O 0.76799 0.34307 0.74469 0.0
C468 C 0.65055 0.39252 0.96887 0.0
O469 O 0.65196 0.41633 0.98056 0.0
Cd470 Cd 0.66061 0.41256 0.01552 0.0
O471 O 0.65503 0.36457 0.97518 0.0
Cd472 Cd 0.66976 0.33986 0.0071 0.0
C473 C 0.73689 0.38415 0.01299 0.0
O474 O 0.63027 0.36849 0.02677 0.0
O475 O 0.66456 0.34148 0.04351 0.0
O476 O 0.63514 0.29725 0.99622 0.0
C477 C 0.63894 0.3577 0.04333 0.0
O478 O 0.71794 0.40591 0.01896 0.0
C479 C 0.65426 0.27477 5e-05 0.0
O480 O 0.72598 0.35797 0.00612 0.0
O481 O 0.68194 0.28246 0.00645 0.0
C482 C 0.65246 0.10307 0.28199 0.0
O483 O 0.65116 0.08255 0.26804 0.0
Cd484 Cd 0.66536 0.08834 0.23463 0.0
O485 O 0.66101 0.13163 0.27867 0.0
Cd486 Cd 0.67658 0.16313 0.24847 0.0
C487 C 0.74239 0.1156 0.24467 0.0
O488 O 0.63868 0.13608 0.22797 0.0
O489 O 0.66995 0.16562 0.21136 0.0
O490 O 0.64372 0.20617 0.26182 0.0
C491 C 0.64595 0.14725 0.21142 0.0
O492 O 0.72302 0.09438 0.23838 0.0
C493 C 0.66264 0.22834 0.25714 0.0
O494 O 0.73233 0.14312 0.24974 0.0
O495 O 0.68931 0.22007 0.24961 0.0
H496 H 0.14427 0.90571 0.27692 0.0
H497 H 0.17999 -0.00458 0.25683 0.0
H498 H 0.22852 0.96963 0.24448 0.0
H499 H 0.26317 0.92307 0.24279 0.0
H500 H 0.22922 0.83337 0.26405 0.0
H501 H 0.17734 0.85745 0.2721 0.0
C502 C 0.16243 0.91941 0.26947 0.0
C503 C 0.15878 0.95246 0.26798 0.0
C504 C 0.19062 0.90447 0.26271 0.0
C505 C 0.18253 0.97003 0.2584 0.0
C506 C 0.21023 0.9553 0.25132 0.0
C507 C 0.24427 0.90859 0.24889 0.0
C508 C 0.25019 0.87655 0.25301 0.0
C509 C 0.21493 0.92274 0.25393 0.0
C510 C 0.22533 0.85812 0.26077 0.0
C511 C 0.19572 0.87193 0.26549 0.0
H512 H 0.10384 0.64781 0.50813 0.0
H513 H 0.01593 0.69375 0.4906 0.0
H514 H 0.04567 0.74157 0.48248 0.0
H515 H 0.09546 0.77231 0.48452 0.0
H516 H 0.18318 0.72653 0.50262 0.0
H517 H 0.1548 0.67637 0.50577 0.0
C518 C 0.09127 0.66794 0.50201 0.0
C519 C 0.05765 0.66738 0.50026 0.0
C520 C 0.10846 0.69547 0.49759 0.0
C521 C 0.04173 0.69382 0.49247 0.0
C522 C 0.05872 0.72114 0.48778 0.0
C523 C 0.10852 0.75122 0.48876 0.0
C524 C 0.14127 0.75328 0.49362 0.0
C525 C 0.09193 0.7226 0.49094 0.0
C526 C 0.15789 0.72567 0.49895 0.0
C527 C 0.14165 0.69698 0.50085 0.0
H528 H 0.36525 0.60395 0.76301 0.0
H529 H 0.32763 0.51023 0.7732 0.0
H530 H 0.27534 0.52683 0.7612 0.0
H531 H 0.23919 0.56861 0.74998 0.0
H532 H 0.27485 0.66373 0.74335 0.0
H533 H 0.32884 0.64605 0.7523 0.0
C534 C 0.34562 0.58714 0.76285 0.0
C535 C 0.3507 0.55579 0.76906 0.0
C536 C 0.31511 0.59717 0.75672 0.0
C537 C 0.3249 0.53432 0.76819 0.0
C538 C 0.29476 0.54387 0.76152 0.0
C539 C 0.25885 0.58542 0.7503 0.0
C540 C 0.25312 0.61739 0.74595 0.0
C541 C 0.2895 0.5753 0.75599 0.0
C542 C 0.2787 0.639 0.74669 0.0
C543 C 0.30953 0.62889 0.75179 0.0
H544 H 0.38428 0.87805 0.03949 0.0
H545 H 0.43942 0.88372 0.98575 0.0
H546 H 0.42352 0.82993 0.97648 0.0
H547 H 0.39882 0.77958 0.98533 0.0
H548 H 0.34211 0.77391 0.03832 0.0
H549 H 0.3531 0.82982 0.04596 0.0
C550 C 0.39215 0.86788 0.0255 0.0
C551 C 0.41358 0.88471 0.01354 0.0
C552 C 0.38282 0.8369 0.0202 0.0
C553 C 0.42361 0.87101 0.99549 0.0
C554 C 0.41445 0.84028 0.99013 0.0
C555 C 0.38854 0.79073 0.99843 0.0
C556 C 0.37014 0.77266 0.01142 0.0
C557 C 0.39493 0.8227 0.00268 0.0
C558 C 0.35644 0.78741 0.02814 0.0
C559 C 0.36286 0.81929 0.03255 0.0
H560 H 0.12055 0.6203 0.99386 0.0
H561 H 0.15983 0.52923 0.97631 0.0
H562 H 0.21252 0.54581 0.98763 0.0
H563 H 0.24858 0.58731 -0.00046 0.0
H564 H 0.21147 0.68042 0.01359 0.0
H565 H 0.15692 0.662 0.00634 0.0
C566 C 0.1406 0.60408 0.99237 0.0
C567 C 0.13587 0.57346 0.98421 0.0
C568 C 0.17138 0.6142 0.99816 0.0
C569 C 0.16226 0.55268 0.98287 0.0
C570 C 0.19265 0.56225 0.98916 0.0
C571 C 0.22853 0.6035 0.00131 0.0
C572 C 0.23401 0.63516 0.0071 0.0
C573 C 0.19757 0.59309 0.99647 0.0
C574 C 0.20782 0.65592 0.00912 0.0
C575 C 0.17668 0.64541 0.00493 0.0
H576 H 0.40729 0.6316 0.24283 0.0
H577 H 0.50533 0.6578 0.23047 0.0
H578 H 0.4923 0.7131 0.23661 0.0
H579 H 0.45306 0.75454 0.24428 0.0
H580 H 0.35394 0.72969 0.25308 0.0
H581 H 0.36728 0.67344 0.24874 0.0
C582 C 0.42584 0.64927 0.24118 0.0
C583 C 0.45743 0.63998 0.23633 0.0
C584 C 0.41792 0.68146 0.24385 0.0
C585 C 0.48103 0.66366 0.23473 0.0
C586 C 0.47353 0.69554 0.23797 0.0
C587 C 0.43435 0.73682 0.24527 0.0
C588 C 0.40259 0.74623 0.24909 0.0
C589 C 0.44207 0.70471 0.24242 0.0
C590 C 0.37855 0.72303 0.25008 0.0
C591 C 0.38621 0.69089 0.24769 0.0
H592 H 0.39961 0.86324 0.48091 0.0
H593 H 0.41454 0.93156 0.5283 0.0
H594 H 0.36068 0.92148 0.54063 0.0
H595 H 0.3073 0.89865 0.53521 0.0
H596 H 0.29253 0.83025 0.48787 0.0
H597 H 0.3489 0.83416 0.47872 0.0
C598 C 0.39154 0.87525 0.49429 0.0
C599 C 0.41091 0.89859 0.50343 0.0
C600 C 0.36051 0.86946 0.50126 0.0
C601 C 0.39983 0.91406 0.52068 0.0
C602 C 0.36908 0.90824 0.52779 0.0
C603 C 0.31653 0.88416 0.52311 0.0
C604 C 0.29561 0.86468 0.512 0.0
C605 C 0.34882 0.88688 0.51774 0.0
C606 C 0.30806 0.84562 0.49659 0.0
C607 C 0.34026 0.84799 0.49126 0.0
H608 H 0.11866 0.88719 0.73134 0.0
H609 H 0.0287 0.8604 0.75734 0.0
H610 H 0.05195 0.81021 0.76781 0.0
H611 H 0.09492 0.77113 0.76505 0.0
H612 H 0.1842 0.79612 0.73739 0.0
H613 H 0.16453 0.8501 0.73254 0.0
C614 C 0.10452 0.87067 0.73976 0.0
C615 C 0.07199 0.87717 0.74341 0.0
C616 C 0.11782 0.84146 0.74526 0.0
C617 C 0.05371 0.8556 0.75421 0.0
C618 C 0.06697 0.82694 0.76016 0.0
C619 C 0.11036 0.78854 0.75832 0.0
C620 C 0.14075 0.7795 0.75129 0.0
C621 C 0.09857 0.81913 0.75506 0.0
C622 C 0.16061 0.80244 0.74282 0.0
C623 C 0.14929 0.83325 0.73992 0.0
H624 H 0.63815 0.45456 0.7475 0.0
H625 H 0.60605 0.3725 0.77896 0.0
H626 H 0.65396 0.3433 0.76857 0.0
H627 H 0.70814 0.34375 0.7543 0.0
H628 H 0.74087 0.42693 0.72409 0.0
H629 H 0.68951 0.4529 0.73007 0.0
C630 C 0.64153 0.43016 0.75188 0.0
C631 C 0.61889 0.41582 0.76416 0.0
C632 C 0.66936 0.4138 0.7462 0.0
C633 C 0.62316 0.38402 0.76946 0.0
C634 C 0.65065 0.3674 0.76365 0.0
C635 C 0.70378 0.36729 0.74868 0.0
C636 C 0.72843 0.38355 0.73901 0.0
C637 C 0.67438 0.38241 0.75255 0.0
C638 C 0.7224 0.41402 0.73175 0.0
C639 C 0.69306 0.42895 0.73521 0.0
H640 H 0.62455 0.12934 0.00886 0.0
H641 H 0.52791 0.16655 0.0059 0.0
H642 H 0.54856 0.21823 0.99795 0.0
H643 H 0.59338 0.2546 0.9957 0.0
H644 H 0.69015 0.22036 0.00294 0.0
H645 H 0.67005 0.16605 0.00573 0.0
C646 C 0.60789 0.14867 0.00659 0.0
C647 C 0.57455 0.14351 0.00805 0.0
C648 C 0.61996 0.17915 0.00302 0.0
C649 C 0.5536 0.16907 0.0045 0.0
C650 C 0.5654 0.199 0.00018 0.0
C651 C 0.6102 0.23524 0.99759 0.0
C652 C 0.6432 0.2415 -0.00084 0.0
C653 C 0.59845 0.20448 -9e-05 0.0
C654 C 0.6646 0.21614 0.00174 0.0
C655 C 0.6531 0.18513 0.00339 0.0
H656 H 0.87277 0.05239 0.26859 0.0
H657 H 0.90583 0.14929 0.2666 0.0
H658 H 0.85234 0.16643 0.25663 0.0
H659 H 0.79527 0.15391 0.24941 0.0
H660 H 0.76529 0.05595 0.2486 0.0
H661 H 0.81888 0.03935 0.25795 0.0
C662 C 0.86891 0.0772 0.26546 0.0
C663 C 0.89372 0.09936 0.26854 0.0
C664 C 0.83844 0.08683 0.25912 0.0
C665 C 0.88728 0.13156 0.26486 0.0
C666 C 0.85666 0.14144 0.25897 0.0
C667 C 0.80061 0.12894 0.2511 0.0
C668 C 0.77614 0.1063 0.24839 0.0
C669 C 0.83189 0.1193 0.25627 0.0
C670 C 0.78355 0.07398 0.2505 0.0
C671 C 0.81423 0.06438 0.25596 0.0
H672 H 0.87502 0.40438 0.50464 0.0
H673 H 0.97307 0.37514 0.51443 0.0
H674 H 0.95802 0.32009 0.50881 0.0
H675 H 0.91647 0.27981 0.50447 0.0
H676 H 0.81765 0.30818 0.49759 0.0
H677 H 0.83353 0.36395 0.49904 0.0
C678 C 0.89312 0.386 0.50559 0.0
C679 C 0.92513 0.3941 0.51005 0.0
C680 C 0.88412 0.35414 0.50309 0.0
C681 C 0.94834 0.36988 0.51074 0.0
C682 C 0.93971 0.33825 0.50774 0.0
C683 C 0.89841 0.29818 0.50306 0.0
C684 C 0.86592 0.2899 0.50104 0.0
C685 C 0.90759 0.33007 0.50437 0.0
C686 C 0.84282 0.31396 0.49926 0.0
C687 C 0.85188 0.34584 0.50011 0.0
H688 H 0.64456 0.09753 0.47502 0.0
H689 H 0.69441 0.01184 0.49084 0.0
H690 H 0.74088 0.04278 0.50151 0.0
H691 H 0.76832 0.0936 0.50465 0.0
H692 H 0.7192 0.17971 0.4889 0.0
H693 H 0.67115 0.14919 0.4802 0.0
C694 C 0.66542 0.08573 0.48109 0.0
C695 C 0.66621 0.05246 0.48196 0.0
C696 C 0.69214 0.10367 0.48714 0.0
C697 C 0.69348 0.0374 0.48971 0.0
C698 C 0.71999 0.05506 0.49588 0.0
C699 C 0.74704 0.10576 0.49944 0.0
C700 C 0.74736 0.1388 0.49727 0.0
C701 C 0.71976 0.08812 0.49435 0.0
C702 C 0.71955 0.15424 0.49064 0.0
C703 C 0.69212 0.13681 0.48563 0.0
H704 H 0.8852 0.14173 0.71435 0.0
H705 H 0.95046 0.14143 0.76416 0.0
H706 H 0.93377 0.19505 0.7733 0.0
H707 H 0.90422 0.24356 0.76545 0.0
H708 H 0.8371 0.24313 0.71672 0.0
H709 H 0.85026 0.18772 0.70923 0.0
C710 C 0.89522 0.15295 0.72752 0.0
C711 C 0.91954 0.13764 0.73831 0.0
C712 C 0.88526 0.18369 0.73286 0.0
C713 C 0.93236 0.1529 0.75523 0.0
C714 C 0.92271 0.18353 0.76055 0.0
C715 C 0.89221 0.23119 0.75333 0.0
C716 C 0.87009 0.24745 0.74147 0.0
C717 C 0.89983 0.19942 0.74916 0.0
C718 C 0.85427 0.23108 0.72603 0.0
C719 C 0.86192 0.19948 0.72169 0.0
H720 H 0.86751 0.45415 0.00405 0.0
H721 H 0.88043 0.38259 0.95862 0.0
H722 H 0.83207 0.35515 0.96967 0.0
H723 H 0.78195 0.35654 0.98905 0.0
H724 H 0.76913 0.4296 0.03379 0.0
H725 H 0.82182 0.45107 0.02651 0.0
C726 C 0.85998 0.4322 0.99686 0.0
C727 C 0.87704 0.42052 0.98046 0.0
C728 C 0.83206 0.41698 0.00309 0.0
C729 C 0.86751 0.39192 0.97131 0.0
C730 C 0.83979 0.3764 0.97754 0.0
C731 C 0.79107 0.37662 0.99755 0.0
C732 C 0.77141 0.39178 0.01169 0.0
C733 C 0.82123 0.38938 0.99297 0.0
C734 C 0.78358 0.41778 0.02261 0.0
C735 C 0.81369 0.43016 0.01843 0.0
H736 H 0.6268 0.36948 0.23862 0.0
H737 H 0.53733 0.33964 0.26402 0.0
H738 H 0.56158 0.28934 0.2734 0.0
H739 H 0.60605 0.25159 0.2708 0.0
H740 H 0.69517 0.28045 0.24445 0.0
H741 H 0.67351 0.3336 0.2395 0.0
C742 C 0.61287 0.35227 0.24663 0.0
C743 C 0.58021 0.35812 0.25041 0.0
C744 C 0.62685 0.32313 0.2517 0.0
C745 C 0.56237 0.33547 0.26066 0.0
C746 C 0.57623 0.30673 0.26605 0.0
C747 C 0.62099 0.26965 0.26432 0.0
C748 C 0.65207 0.26191 0.25781 0.0
C749 C 0.60813 0.29991 0.26109 0.0
C750 C 0.67112 0.2857 0.24953 0.0
C751 C 0.65867 0.31608 0.24658 0.0
H752 H 0.16266 0.98416 0.39585 0.0
H753 H 0.09191 0.91111 0.38511 0.0
H754 H 0.10859 0.88456 0.41511 0.0
H755 H 0.13937 0.8848 0.44627 0.0
H756 H 0.20536 0.96127 0.45874 0.0
H757 H 0.19376 0.98411 0.42655 0.0
C758 C 0.15065 0.96255 0.40005 0.0
C759 C 0.12582 0.94999 0.38812 0.0
C760 C 0.1592 0.94816 0.41789 0.0
C761 C 0.1114 0.92132 0.39368 0.0
C762 C 0.12064 0.90623 0.41105 0.0
C763 C 0.15141 0.90629 0.44183 0.0
C764 C 0.17305 0.92141 0.45489 0.0
C765 C 0.14395 0.91983 0.42352 0.0
C766 C 0.18835 0.94935 0.44902 0.0
C767 C 0.18181 0.96238 0.4306 0.0
H768 H 0.09418 0.65532 0.61181 0.0
H769 H 0.00549 0.62894 0.63988 0.0
H770 H 0.02854 0.64065 0.67219 0.0
H771 H 0.07468 0.65437 0.69275 0.0
H772 H 0.16421 0.67974 0.66558 0.0
H773 H 0.14016 0.67203 0.63271 0.0
C774 C 0.07987 0.65231 0.62499 0.0
C775 C 0.04806 0.64137 0.62329 0.0
C776 C 0.09353 0.65846 0.64373 0.0
C777 C 0.02978 0.63792 0.64058 0.0
C778 C 0.04306 0.64424 0.65916 0.0
C779 C 0.08897 0.6583 0.67965 0.0
C780 C 0.12126 0.66723 0.68158 0.0
C781 C 0.07503 0.65391 0.66092 0.0
C782 C 0.13931 0.67267 0.66447 0.0
C783 C 0.12557 0.66826 0.64568 0.0
H784 H 0.3905 0.62354 0.87892 0.0
H785 H 0.39842 0.52853 0.90101 0.0
H786 H 0.37947 0.54659 0.93339 0.0
H787 H 0.36479 0.59006 0.95612 0.0
H788 H 0.35489 0.68489 0.93411 0.0
H789 H 0.37056 0.66636 0.901 0.0
C790 C 0.38764 0.60681 0.8908 0.0
C791 C 0.39588 0.57481 0.88765 0.0
C792 C 0.3768 0.61739 0.90941 0.0
C793 C 0.3919 0.55323 0.90304 0.0
C794 C 0.38136 0.56358 0.9216 0.0
C795 C 0.36596 0.6066 0.94403 0.0
C796 C 0.35922 0.63881 0.94752 0.0
C797 C 0.37444 0.5957 0.92506 0.0
C798 C 0.36016 0.65998 0.93173 0.0
C799 C 0.36914 0.64941 0.91284 0.0
H800 H 0.44363 0.96135 0.14905 0.0
H801 H 0.3894 0.89034 0.11706 0.0
H802 H 0.37575 0.86465 0.14835 0.0
H803 H 0.38022 0.86245 0.18504 0.0
H804 H 0.43848 0.93196 0.21586 0.0
H805 H 0.44944 0.95837 0.18486 0.0
C806 C 0.42863 0.94035 0.14899 0.0
C807 C 0.41712 0.92787 0.13097 0.0
C808 C 0.42167 0.92552 0.16682 0.0
C809 C 0.39831 0.90033 0.13088 0.0
C810 C 0.39054 0.88574 0.14873 0.0
C811 C 0.39515 0.88347 0.18488 0.0
C812 C 0.40846 0.89533 0.20268 0.0
C813 C 0.40215 0.89813 0.16682 0.0
C814 C 0.42811 0.92232 0.20232 0.0
C815 C 0.43436 0.93748 0.18463 0.0
H816 H 0.04474 0.58539 0.8486 0.0
H817 H 0.12765 0.62377 0.87855 0.0
H818 H 0.15041 0.63945 0.84663 0.0
H819 H 0.14676 0.64078 0.80993 0.0
H820 H 0.06529 0.59767 0.78065 0.0
H821 H 0.04166 0.58544 0.81256 0.0
C822 C 0.06769 0.59744 0.84808 0.0
C823 C 0.08442 0.60388 0.86572 0.0
C824 C 0.08077 0.60544 0.82982 0.0
C825 C 0.1144 0.61884 0.86504 0.0
C826 C 0.12731 0.62775 0.84684 0.0
C827 C 0.12375 0.62892 0.81064 0.0
C828 C 0.10765 0.62022 0.79305 0.0
C829 C 0.11073 0.62103 0.8291 0.0
C830 C 0.0781 0.60446 0.79404 0.0
C831 C 0.06457 0.5975 0.81225 0.0
H832 H 0.40517 0.56057 0.11926 0.0
H833 H 0.47668 0.63231 0.13187 0.0
H834 H 0.46253 0.65903 0.10143 0.0
H835 H 0.43139 0.66084 0.07037 0.0
H836 H 0.35589 0.59288 0.05997 0.0
H837 H 0.36943 0.56644 0.09086 0.0
C838 C 0.41722 0.5825 0.11582 0.0
C839 C 0.44248 0.59386 0.12793 0.0
C840 C 0.40822 0.59849 0.09862 0.0
C841 C 0.45789 0.62219 0.12268 0.0
C842 C 0.44963 0.63775 0.1053 0.0
C843 C 0.41781 0.64038 0.07501 0.0
C844 C 0.39297 0.62851 0.06291 0.0
C845 C 0.42521 0.62581 0.09299 0.0
C846 C 0.37513 0.60235 0.06911 0.0
C847 C 0.38294 0.5872 0.0867 0.0
H848 H 0.41928 0.92667 0.37346 0.0
H849 H 0.41882 0.82974 0.39252 0.0
H850 H 0.39202 0.8133 0.36164 0.0
H851 H 0.37366 0.82611 0.32791 0.0
H852 H 0.37903 0.9227 0.30825 0.0
H853 H 0.39867 0.93982 0.34075 0.0
C854 C 0.41255 0.90207 0.37105 0.0
C855 C 0.42065 0.87945 0.38523 0.0
C856 C 0.3984 0.89275 0.35306 0.0
C857 C 0.41262 0.84752 0.38177 0.0
C858 C 0.39747 0.83815 0.36412 0.0
C859 C 0.37873 0.85094 0.33088 0.0
C860 C 0.37507 0.87313 0.31574 0.0
C861 C 0.39099 0.86047 0.34944 0.0
C862 C 0.38194 0.90519 0.31967 0.0
C863 C 0.39312 0.91499 0.33823 0.0
H864 H 0.08796 0.87051 0.62777 0.0
H865 H 0.09477 0.9699 0.61483 0.0
H866 H 0.12316 0.95749 0.5841 0.0
H867 H 0.14415 0.91834 0.56034 0.0
H868 H 0.14108 0.81897 0.57394 0.0
H869 H 0.11334 0.8312 0.60505 0.0
C870 C 0.096 0.88929 0.61823 0.0
C871 C 0.08943 0.92099 0.62336 0.0
C872 C 0.11281 0.88197 0.60075 0.0
C873 C 0.09988 0.94534 0.61108 0.0
C874 C 0.11594 0.93827 0.59352 0.0
C875 C 0.13747 0.89941 0.57017 0.0
C876 C 0.14424 0.86784 0.56486 0.0
C877 C 0.12223 0.90668 0.58812 0.0
C878 C 0.13602 0.84349 0.5778 0.0
C879 C 0.12011 0.85046 0.59552 0.0
H880 H 0.58714 0.40534 0.88521 0.0
H881 H 0.65038 0.4863 0.8835 0.0
H882 H 0.67282 0.47213 0.91548 0.0
H883 H 0.67084 0.4396 0.94537 0.0
H884 H 0.6113 0.35623 0.94572 0.0
H885 H 0.59163 0.36809 0.91247 0.0
C886 C 0.60651 0.41947 0.89141 0.0
C887 C 0.61636 0.44738 0.88201 0.0
C888 C 0.61983 0.41087 0.90966 0.0
C889 C 0.64143 0.4653 0.8906 0.0
C890 C 0.65446 0.45714 0.90889 0.0
C891 C 0.65384 0.42389 0.93802 0.0
C892 C 0.64208 0.39741 0.94797 0.0
C893 C 0.64312 0.43055 0.91882 0.0
C894 C 0.62055 0.37682 0.93828 0.0
C895 C 0.60924 0.38366 0.91933 0.0
H896 H 0.57227 0.07418 0.14357 0.0
H897 H 0.60825 0.15051 0.10852 0.0
H898 H 0.63446 0.17393 0.13802 0.0
H899 H 0.64784 0.17146 0.17395 0.0
H900 H 0.6092 0.09485 0.20809 0.0
H901 H 0.58358 0.07264 0.17874 0.0
C902 C 0.586 0.09589 0.14238 0.0
C903 C 0.58884 0.11042 0.12398 0.0
C904 C 0.60058 0.10906 0.15923 0.0
C905 C 0.60595 0.13892 0.12262 0.0
C906 C 0.62095 0.15218 0.13943 0.0
C907 C 0.63383 0.14991 0.17488 0.0
C908 C 0.63058 0.13479 0.19318 0.0
C909 C 0.61861 0.13729 0.15784 0.0
C910 C 0.61209 0.10704 0.19424 0.0
C911 C 0.59741 0.09423 0.17745 0.0
H912 H 0.91651 0.08146 0.39631 0.0
H913 H 0.94359 0.17371 0.37557 0.0
H914 H 0.91997 0.19861 0.40501 0.0
H915 H 0.89409 0.19386 0.43746 0.0
H916 H 0.86715 0.10139 0.45804 0.0
H917 H 0.88806 0.07694 0.42779 0.0
C918 C 0.91664 0.10706 0.39802 0.0
C919 C 0.9318 0.1257 0.38379 0.0
C920 C 0.90335 0.12116 0.41506 0.0
C921 C 0.93228 0.15882 0.38641 0.0
C922 C 0.91881 0.17307 0.40323 0.0
C923 C 0.89275 0.16837 0.43529 0.0
C924 C 0.87932 0.14947 0.45005 0.0
C925 C 0.90479 0.15442 0.41783 0.0
C926 C 0.87752 0.11649 0.44696 0.0
C927 C 0.88943 0.10246 0.42965 0.0
H928 H 0.87736 0.43348 0.62159 0.0
H929 H 0.97974 0.4235 0.62866 0.0
H930 H 0.97192 0.39692 0.66003 0.0
H931 H 0.93634 0.38073 0.6868 0.0
H932 H 0.83393 0.39158 0.68011 0.0
H933 H 0.84149 0.41377 0.64736 0.0
C934 C 0.89793 0.4253 0.62995 0.0
C935 C 0.92907 0.43062 0.62282 0.0
C936 C 0.89331 0.41052 0.64817 0.0
C937 C 0.95548 0.41944 0.63368 0.0
C938 C 0.95106 0.4045 0.65173 0.0
C939 C 0.91564 0.38777 0.67815 0.0
C940 C 0.88465 0.38482 0.68603 0.0
C941 C 0.92013 0.40058 0.65933 0.0
C942 C 0.85808 0.39371 0.67448 0.0
C943 C 0.86237 0.40645 0.65574 0.0
H944 H 0.62835 0.07325 0.37241 0.0
H945 H 0.60121 0.98339 0.34575 0.0
H946 H 0.61297 0.0034 0.31318 0.0
H947 H 0.63025 0.0457 0.29217 0.0
H948 H 0.65689 0.13659 0.3174 0.0
H949 H 0.64533 0.11701 0.35062 0.0
C950 C 0.62497 0.05812 0.35946 0.0
C951 C 0.61442 0.02662 0.36165 0.0
C952 C 0.6314 0.06997 0.34051 0.0
C953 C 0.61017 0.00736 0.34466 0.0
C954 C 0.61655 0.01889 0.32595 0.0
C955 C 0.6336 0.06144 0.30486 0.0
C956 C 0.64453 0.0926 0.30224 0.0
C957 C 0.62715 0.05005 0.32372 0.0
C958 C 0.64847 0.1125 0.31896 0.0
C959 C 0.64196 0.10127 0.33795 0.0
H960 H 0.87091 0.10413 0.62955 0.0
H961 H 0.97036 0.12205 0.61662 0.0
H962 H 0.95497 0.15001 0.58671 0.0
H963 H 0.91355 0.1656 0.56286 0.0
H964 H 0.81397 0.1482 0.57577 0.0
H965 H 0.82907 0.1238 0.60701 0.0
C966 C 0.88914 0.11442 0.62024 0.0
C967 C 0.9217 0.11094 0.62523 0.0
C968 C 0.88012 0.13029 0.60298 0.0
C969 C 0.94511 0.12467 0.61319 0.0
C970 C 0.93635 0.14043 0.596 0.0
C971 C 0.89515 0.15668 0.57259 0.0
C972 C 0.86275 0.15838 0.56693 0.0
C973 C 0.90398 0.14281 0.59054 0.0
C974 C 0.83912 0.14708 0.57978 0.0
C975 C 0.84773 0.13306 0.59762 0.0
H976 H 0.87455 0.41135 0.87137 0.0
H977 H 0.90686 0.49653 0.84318 0.0
H978 H 0.89042 0.47522 0.81104 0.0
H979 H 0.8697 0.43143 0.79063 0.0
H980 H 0.83703 0.34605 0.81834 0.0
H981 H 0.85103 0.36825 0.85091 0.0
C982 C 0.87781 0.42526 0.85818 0.0
C983 C 0.89182 0.45552 0.85971 0.0
C984 C 0.86857 0.41272 0.83963 0.0
C985 C 0.89566 0.4734 0.84251 0.0
C986 C 0.88656 0.46111 0.82406 0.0
C987 C 0.86561 0.41768 0.8038 0.0
C988 C 0.85267 0.38705 0.80208 0.0
C989 C 0.87344 0.43066 0.82242 0.0
C990 C 0.84709 0.36968 0.81928 0.0
C991 C 0.8551 0.38235 0.8379 0.0
H992 H 0.54745 0.40447 0.11157 0.0
H993 H 0.61928 0.35949 0.14765 0.0
H994 H 0.64845 0.34279 0.11782 0.0
H995 H 0.65436 0.34296 0.08144 0.0
H996 H 0.58237 0.38934 0.04602 0.0
H997 H 0.55227 0.40321 0.07569 0.0
C998 C 0.56913 0.39041 0.11294 0.0
C999 C 0.58102 0.38295 0.13178 0.0
C1000 C 0.58586 0.38137 0.09584 0.0
C1001 C 0.60965 0.36552 0.13329 0.0
C1002 C 0.62631 0.35601 0.11625 0.0
C1003 C 0.63203 0.356 0.08023 0.0
C1004 C 0.62073 0.36522 0.06153 0.0
C1005 C 0.61483 0.36415 0.09744 0.0
C1006 C 0.59173 0.38208 0.06022 0.0
C1007 C 0.57444 0.39 0.07718 0.0
loop_
_geom_bond_atom_site_label_1
_geom_bond_atom_site_label_2
_geom_bond_distance
_geom_bond_site_symmetry_2
_ccdc_geom_bond_type
H0 C19 0.943 1_455 S
H1 C20 0.950 . S
H2 C22 0.950 . S
H3 C23 0.950 . S
H4 C25 0.950 . S
H5 C28 0.950 . S
H6 C29 0.950 . S
H7 C31 0.951 . S
H8 C32 0.949 . S
H9 C34 0.949 . S
H10 C35 0.950 . S
H11 C37 0.950 . S
H12 C38 0.950 . S
H13 C40 0.950 . S
H14 C43 0.950 . S
H15 C44 0.950 . S
H16 C46 0.951 . S
H17 C47 0.949 1_545 S
C18 C19 1.376 . S
C18 C23 1.386 . S
C18 C24 1.483 . S
C19 H0 0.943 1_655 S
C19 C18 1.376 . S
C19 C20 1.397 . S
C20 H1 0.950 . S
C20 C19 1.397 . S
C20 C21 1.391 . S
C21 C20 1.391 . S
C21 C22 1.405 . S
C22 H2 0.950 . S
C22 C21 1.405 . S
C22 C23 1.367 . S
C23 H3 0.950 . S
C23 C18 1.386 . S
C23 C22 1.367 . S
C24 C18 1.483 . S
C24 C25 1.382 1_655 S
C24 C26 1.403 . S
C25 H4 0.950 . S
C25 C24 1.382 1_455 S
C25 C41 1.411 1_545 S
C26 C24 1.403 . S
C26 C27 1.489 . S
C26 C40 1.411 1_655 S
C27 C26 1.489 . S
C27 C28 1.383 . S
C27 C32 1.382 . S
C28 H5 0.950 . S
C28 C27 1.383 . S
C28 C29 1.395 . S
C29 H6 0.950 . S
C29 C28 1.395 . S
C29 C30 1.288 . S
C30 C29 1.288 . S
C30 C31 1.392 . S
C31 H7 0.951 . S
C31 C30 1.392 . S
C31 C32 1.392 . S
C32 H8 0.949 . S
C32 C27 1.382 . S
C32 C31 1.392 . S
C33 C34 1.376 . S
C33 C38 1.386 . S
C33 C39 1.483 . S
C34 H9 0.949 . S
C34 C33 1.376 . S
C34 C35 1.397 . S
C35 H10 0.950 . S
C35 C34 1.397 . S
C35 C36 1.391 . S
C36 C35 1.391 . S
C36 C37 1.405 . S
C37 H11 0.950 . S
C37 C36 1.405 . S
C37 C38 1.367 . S
C38 H12 0.950 . S
C38 C33 1.386 . S
C38 C37 1.367 . S
C39 C33 1.483 . S
C39 C40 1.382 1_565 S
C39 C41 1.403 . S
C40 H13 0.950 . S
C40 C26 1.411 1_455 S
C40 C39 1.382 1_545 S
C41 C25 1.411 1_565 S
C41 C39 1.403 . S
C41 C42 1.489 . S
C42 C41 1.489 . S
C42 C43 1.383 . S
C42 C47 1.382 . S
C43 H14 0.950 . S
C43 C42 1.383 . S
C43 C44 1.395 . S
C44 H15 0.950 . S
C44 C43 1.395 . S
C44 C45 1.288 . S
C45 C44 1.288 . S
C45 C46 1.392 . S
C46 H16 0.951 . S
C46 C45 1.392 . S
C46 C47 1.392 . S
C47 H17 0.949 1_565 S
C47 C42 1.382 . S
C47 C46 1.392 . S
H48 C67 0.949 1_455 S
H49 C68 0.950 . S
H50 C70 0.950 . S
H51 C71 0.950 . S
H52 C73 0.950 . S
H53 C76 0.950 . S
H54 C77 0.950 . S
H55 C79 0.951 . S
H56 C80 0.949 . S
H57 C82 0.949 . S
H58 C83 0.950 . S
H59 C85 0.950 . S
H60 C86 0.950 . S
H61 C88 0.950 . S
H62 C91 0.950 . S
H63 C92 0.950 . S
H64 C94 0.951 . S
H65 C95 0.949 . S
C66 C67 1.376 . S
C66 C71 1.386 . S
C66 C72 1.483 . S
C67 H48 0.949 1_655 S
C67 C66 1.376 . S
C67 C68 1.397 . S
C68 H49 0.950 . S
C68 C67 1.397 . S
C68 C69 1.391 . S
C69 C68 1.391 . S
C69 C70 1.405 . S
C70 H50 0.950 . S
C70 C69 1.405 . S
C70 C71 1.367 . S
C71 H51 0.950 . S
C71 C66 1.386 . S
C71 C70 1.367 . S
C72 C66 1.483 . S
C72 C73 1.382 1_655 S
C72 C74 1.403 . S
C73 H52 0.950 . S
C73 C72 1.382 1_455 S
C73 C89 1.411 . S
C74 C72 1.403 . S
C74 C75 1.489 . S
C74 C88 1.411 1_655 S
C75 C74 1.489 . S
C75 C76 1.383 . S
C75 C80 1.382 . S
C76 H53 0.950 . S
C76 C75 1.383 . S
C76 C77 1.395 . S
C77 H54 0.950 . S
C77 C76 1.395 . S
C77 C78 1.288 . S
C78 C77 1.288 . S
C78 C79 1.392 . S
C79 H55 0.951 . S
C79 C78 1.392 . S
C79 C80 1.392 . S
C80 H56 0.949 . S
C80 C75 1.382 . S
C80 C79 1.392 . S
C81 C82 1.376 . S
C81 C86 1.386 . S
C81 C87 1.483 . S
C82 H57 0.949 . S
C82 C81 1.376 . S
C82 C83 1.397 . S
C83 H58 0.950 . S
C83 C82 1.397 . S
C83 C84 1.391 . S
C84 C83 1.391 . S
C84 C85 1.405 . S
C85 H59 0.950 . S
C85 C84 1.405 . S
C85 C86 1.367 . S
C86 H60 0.950 . S
C86 C81 1.386 . S
C86 C85 1.367 . S
C87 C81 1.483 . S
C87 C88 1.382 . S
C87 C89 1.403 . S
C88 H61 0.950 . S
C88 C74 1.411 1_455 S
C88 C87 1.382 . S
C89 C73 1.411 . S
C89 C87 1.403 . S
C89 C90 1.489 . S
C90 C89 1.489 . S
C90 C91 1.383 . S
C90 C95 1.382 . S
C91 H62 0.950 . S
C91 C90 1.383 . S
C91 C92 1.395 . S
C92 H63 0.950 . S
C92 C91 1.395 . S
C92 C93 1.288 . S
C93 C92 1.288 . S
C93 C94 1.392 . S
C94 H64 0.951 . S
C94 C93 1.392 . S
C94 C95 1.392 . S
C95 H65 0.949 . S
C95 C90 1.382 . S
C95 C94 1.392 . S
H96 C115 0.949 . S
H97 C116 0.950 . S
H98 C118 0.950 . S
H99 C119 0.950 . S
H100 C121 0.950 . S
H101 C124 0.950 . S
H102 C125 0.950 . S
H103 C127 0.951 . S
H104 C128 0.949 . S
H105 C130 0.949 . S
H106 C131 0.950 . S
H107 C133 0.950 . S
H108 C134 0.950 . S
H109 C136 0.950 . S
H110 C139 0.950 . S
H111 C140 0.950 . S
H112 C142 0.951 . S
H113 C143 0.949 . S
C114 C115 1.376 . S
C114 C119 1.386 . S
C114 C120 1.483 . S
C115 H96 0.949 . S
C115 C114 1.376 . S
C115 C116 1.397 . S
C116 H97 0.950 . S
C116 C115 1.397 . S
C116 C117 1.391 . S
C117 C116 1.391 . S
C117 C118 1.405 . S
C118 H98 0.950 . S
C118 C117 1.405 . S
C118 C119 1.367 . S
C119 H99 0.950 . S
C119 C114 1.386 . S
C119 C118 1.367 . S
C120 C114 1.483 . S
C120 C121 1.382 . S
C120 C122 1.403 . S
C121 H100 0.950 . S
C121 C120 1.382 . S
C121 C137 1.411 . S
C122 C120 1.403 . S
C122 C123 1.489 . S
C122 C136 1.411 . S
C123 C122 1.489 . S
C123 C124 1.383 . S
C123 C128 1.382 . S
C124 H101 0.950 . S
C124 C123 1.383 . S
C124 C125 1.395 . S
C125 H102 0.950 . S
C125 C124 1.395 . S
C125 C126 1.288 . S
C126 C125 1.288 . S
C126 C127 1.392 . S
C127 H103 0.951 . S
C127 C126 1.392 . S
C127 C128 1.392 . S
C128 H104 0.949 . S
C128 C123 1.382 . S
C128 C127 1.392 . S
C129 C130 1.376 . S
C129 C134 1.386 . S
C129 C135 1.483 . S
C130 H105 0.949 . S
C130 C129 1.376 . S
C130 C131 1.397 . S
C131 H106 0.950 . S
C131 C130 1.397 . S
C131 C132 1.391 . S
C132 C131 1.391 . S
C132 C133 1.405 . S
C133 H107 0.950 . S
C133 C132 1.405 . S
C133 C134 1.367 . S
C134 H108 0.950 . S
C134 C129 1.386 . S
C134 C133 1.367 . S
C135 C129 1.483 . S
C135 C136 1.382 . S
C135 C137 1.403 . S
C136 H109 0.950 . S
C136 C122 1.411 . S
C136 C135 1.382 . S
C137 C121 1.411 . S
C137 C135 1.403 . S
C137 C138 1.489 . S
C138 C137 1.489 . S
C138 C139 1.383 . S
C138 C143 1.382 . S
C139 H110 0.950 . S
C139 C138 1.383 . S
C139 C140 1.395 . S
C140 H111 0.950 . S
C140 C139 1.395 . S
C140 C141 1.288 . S
C141 C140 1.288 . S
C141 C142 1.392 . S
C142 H112 0.951 . S
C142 C141 1.392 . S
C142 C143 1.392 . S
C143 H113 0.949 . S
C143 C138 1.382 . S
C143 C142 1.392 . S
H144 C163 0.949 . S
H145 C164 0.950 . S
H146 C166 0.950 . S
H147 C167 0.950 . S
H148 C169 0.950 . S
H149 C172 0.950 . S
H150 C173 0.950 . S
H151 C175 0.951 . S
H152 C176 0.949 . S
H153 C178 0.949 . S
H154 C179 0.950 . S
H155 C181 0.950 . S
H156 C182 0.950 . S
H157 C184 0.950 . S
H158 C187 0.950 . S
H159 C188 0.950 . S
H160 C190 0.951 . S
H161 C191 0.949 . S
C162 C163 1.376 . S
C162 C167 1.386 . S
C162 C168 1.483 . S
C163 H144 0.949 . S
C163 C162 1.376 . S
C163 C164 1.397 . S
C164 H145 0.950 . S
C164 C163 1.397 . S
C164 C165 1.391 . S
C165 C164 1.391 . S
C165 C166 1.405 . S
C166 H146 0.950 . S
C166 C165 1.405 . S
C166 C167 1.367 . S
C167 H147 0.950 . S
C167 C162 1.386 . S
C167 C166 1.367 . S
C168 C162 1.483 . S
C168 C169 1.382 . S
C168 C170 1.403 . S
C169 H148 0.950 . S
C169 C168 1.382 . S
C169 C185 1.411 1_565 S
C170 C168 1.403 . S
C170 C171 1.489 . S
C170 C184 1.411 1_565 S
C171 C170 1.489 . S
C171 C172 1.383 . S
C171 C176 1.382 . S
C172 H149 0.950 . S
C172 C171 1.383 . S
C172 C173 1.395 . S
C173 H150 0.950 . S
C173 C172 1.395 . S
C173 C174 1.288 . S
C174 C173 1.288 . S
C174 C175 1.392 . S
C175 H151 0.951 . S
C175 C174 1.392 . S
C175 C176 1.392 . S
C176 H152 0.949 . S
C176 C171 1.382 . S
C176 C175 1.392 . S
C177 C178 1.376 . S
C177 C182 1.386 . S
C177 C183 1.483 . S
C178 H153 0.949 . S
C178 C177 1.376 . S
C178 C179 1.397 . S
C179 H154 0.950 . S
C179 C178 1.397 . S
C179 C180 1.391 . S
C180 C179 1.391 . S
C180 C181 1.405 . S
C181 H155 0.950 . S
C181 C180 1.405 . S
C181 C182 1.367 . S
C182 H156 0.950 . S
C182 C177 1.386 . S
C182 C181 1.367 . S
C183 C177 1.483 . S
C183 C184 1.382 . S
C183 C185 1.403 . S
C184 H157 0.950 . S
C184 C170 1.411 1_545 S
C184 C183 1.382 . S
C185 C169 1.411 1_545 S
C185 C183 1.403 . S
C185 C186 1.489 . S
C186 C185 1.489 . S
C186 C187 1.383 . S
C186 C191 1.382 . S
C187 H158 0.950 . S
C187 C186 1.383 . S
C187 C188 1.395 . S
C188 H159 0.950 . S
C188 C187 1.395 . S
C188 C189 1.288 . S
C189 C188 1.288 . S
C189 C190 1.392 . S
C190 H160 0.951 . S
C190 C189 1.392 . S
C190 C191 1.392 . S
C191 H161 0.949 . S
C191 C186 1.382 . S
C191 C190 1.392 . S
H192 C211 0.949 . S
H193 C212 0.950 . S
H194 C214 0.950 . S
H195 C215 0.950 . S
H196 C217 0.950 . S
H197 C220 0.950 . S
H198 C221 0.950 . S
H199 C223 0.951 . S
H200 C224 0.949 . S
H201 C226 0.949 . S
H202 C227 0.950 . S
H203 C229 0.950 . S
H204 C230 0.950 . S
H205 C232 0.950 . S
H206 C235 0.950 . S
H207 C236 0.950 . S
H208 C238 0.951 . S
H209 C239 0.949 . S
C210 C211 1.376 . S
C210 C215 1.386 . S
C210 C216 1.483 . S
C211 H192 0.949 . S
C211 C210 1.376 . S
C211 C212 1.397 . S
C212 H193 0.950 . S
C212 C211 1.397 . S
C212 C213 1.391 . S
C213 C212 1.391 . S
C213 C214 1.405 . S
C214 H194 0.950 . S
C214 C213 1.405 . S
C214 C215 1.367 . S
C215 H195 0.950 . S
C215 C210 1.386 . S
C215 C214 1.367 . S
C216 C210 1.483 . S
C216 C217 1.382 1_455 S
C216 C218 1.403 . S
C217 H196 0.950 . S
C217 C216 1.382 1_655 S
C217 C233 1.411 . S
C218 C216 1.403 . S
C218 C219 1.489 . S
C218 C232 1.411 . S
C219 C218 1.489 . S
C219 C220 1.383 . S
C219 C224 1.382 . S
C220 H197 0.950 . S
C220 C219 1.383 . S
C220 C221 1.395 . S
C221 H198 0.950 . S
C221 C220 1.395 . S
C221 C222 1.288 . S
C222 C221 1.288 . S
C222 C223 1.392 . S
C223 H199 0.951 . S
C223 C222 1.392 . S
C223 C224 1.392 . S
C224 H200 0.949 . S
C224 C219 1.382 . S
C224 C223 1.392 . S
C225 C226 1.376 . S
C225 C230 1.386 . S
C225 C231 1.483 . S
C226 H201 0.949 . S
C226 C225 1.376 . S
C226 C227 1.397 . S
C227 H202 0.950 . S
C227 C226 1.397 . S
C227 C228 1.391 . S
C228 C227 1.391 . S
C228 C229 1.405 . S
C229 H203 0.950 . S
C229 C228 1.405 . S
C229 C230 1.367 . S
C230 H204 0.950 . S
C230 C225 1.386 . S
C230 C229 1.367 . S
C231 C225 1.483 . S
C231 C232 1.382 1_655 S
C231 C233 1.403 . S
C232 H205 0.950 . S
C232 C218 1.411 . S
C232 C231 1.382 1_455 S
C233 C217 1.411 . S
C233 C231 1.403 . S
C233 C234 1.489 . S
C234 C233 1.489 . S
C234 C235 1.383 . S
C234 C239 1.382 . S
C235 H206 0.950 . S
C235 C234 1.383 . S
C235 C236 1.395 . S
C236 H207 0.950 . S
C236 C235 1.395 . S
C236 C237 1.288 . S
C237 C236 1.288 . S
C237 C238 1.392 . S
C238 H208 0.951 . S
C238 C237 1.392 . S
C238 C239 1.392 . S
C239 H209 0.949 . S
C239 C234 1.382 . S
C239 C238 1.392 . S
H240 C259 0.949 . S
H241 C260 0.950 . S
H242 C262 0.950 . S
H243 C263 0.950 . S
H244 C265 0.950 . S
H245 C268 0.950 . S
H246 C269 0.950 . S
H247 C271 0.951 . S
H248 C272 0.949 . S
H249 C274 0.949 . S
H250 C275 0.950 . S
H251 C277 0.950 . S
H252 C278 0.950 . S
H253 C280 0.950 . S
H254 C283 0.950 . S
H255 C284 0.950 . S
H256 C286 0.951 . S
H257 C287 0.949 . S
C258 C259 1.376 . S
C258 C263 1.386 . S
C258 C264 1.483 . S
C259 H240 0.949 . S
C259 C258 1.376 . S
C259 C260 1.397 . S
C260 H241 0.950 . S
C260 C259 1.397 . S
C260 C261 1.391 . S
C261 C260 1.391 . S
C261 C262 1.405 . S
C262 H242 0.950 . S
C262 C261 1.405 . S
C262 C263 1.367 . S
C263 H243 0.950 . S
C263 C258 1.386 . S
C263 C262 1.367 . S
C264 C258 1.483 . S
C264 C265 1.382 . S
C264 C266 1.403 . S
C265 H244 0.950 . S
C265 C264 1.382 . S
C265 C281 1.411 . S
C266 C264 1.403 . S
C266 C267 1.489 . S
C266 C280 1.411 . S
C267 C266 1.489 . S
C267 C268 1.383 . S
C267 C272 1.382 . S
C268 H245 0.950 . S
C268 C267 1.383 . S
C268 C269 1.395 . S
C269 H246 0.950 . S
C269 C268 1.395 . S
C269 C270 1.288 . S
C270 C269 1.288 . S
C270 C271 1.392 . S
C271 H247 0.951 . S
C271 C270 1.392 . S
C271 C272 1.392 . S
C272 H248 0.949 . S
C272 C267 1.382 . S
C272 C271 1.392 . S
C273 C274 1.376 . S
C273 C278 1.386 . S
C273 C279 1.483 . S
C274 H249 0.949 . S
C274 C273 1.376 . S
C274 C275 1.397 . S
C275 H250 0.950 . S
C275 C274 1.397 . S
C275 C276 1.391 . S
C276 C275 1.391 . S
C276 C277 1.405 . S
C277 H251 0.950 . S
C277 C276 1.405 . S
C277 C278 1.367 . S
C278 H252 0.950 . S
C278 C273 1.386 . S
C278 C277 1.367 . S
C279 C273 1.483 . S
C279 C280 1.382 . S
C279 C281 1.403 . S
C280 H253 0.950 . S
C280 C266 1.411 . S
C280 C279 1.382 . S
C281 C265 1.411 . S
C281 C279 1.403 . S
C281 C282 1.489 . S
C282 C281 1.489 . S
C282 C283 1.383 . S
C282 C287 1.382 . S
C283 H254 0.950 . S
C283 C282 1.383 . S
C283 C284 1.395 . S
C284 H255 0.950 . S
C284 C283 1.395 . S
C284 C285 1.288 . S
C285 C284 1.288 . S
C285 C286 1.392 . S
C286 H256 0.951 . S
C286 C285 1.392 . S
C286 C287 1.392 . S
C287 H257 0.949 . S
C287 C282 1.382 . S
C287 C286 1.392 . S
H288 C307 0.949 . S
H289 C308 0.950 . S
H290 C310 0.950 . S
H291 C311 0.950 . S
H292 C313 0.948 1_565 S
H293 C316 0.950 . S
H294 C317 0.950 . S
H295 C319 0.951 . S
H296 C320 0.949 1_545 S
H297 C322 0.949 . S
H298 C323 0.950 . S
H299 C325 0.950 . S
H300 C326 0.950 . S
H301 C328 0.950 . S
H302 C331 0.950 . S
H303 C332 0.950 . S
H304 C334 0.951 . S
H305 C335 0.949 . S
C306 C307 1.376 . S
C306 C311 1.386 . S
C306 C312 1.483 . S
C307 H288 0.949 . S
C307 C306 1.376 . S
C307 C308 1.397 . S
C308 H289 0.950 . S
C308 C307 1.397 . S
C308 C309 1.391 . S
C309 C308 1.391 . S
C309 C310 1.405 . S
C310 H290 0.950 . S
C310 C309 1.405 . S
C310 C311 1.367 . S
C311 H291 0.950 . S
C311 C306 1.386 . S
C311 C310 1.367 . S
C312 C306 1.483 . S
C312 C313 1.382 1_565 S
C312 C314 1.403 . S
C313 H292 0.948 1_545 S
C313 C312 1.382 1_545 S
C313 C329 1.411 . S
C314 C312 1.403 . S
C314 C315 1.489 . S
C314 C328 1.411 1_565 S
C315 C314 1.489 . S
C315 C316 1.383 . S
C315 C320 1.382 . S
C316 H293 0.950 . S
C316 C315 1.383 . S
C316 C317 1.395 . S
C317 H294 0.950 . S
C317 C316 1.395 . S
C317 C318 1.288 . S
C318 C317 1.288 . S
C318 C319 1.392 . S
C319 H295 0.951 . S
C319 C318 1.392 . S
C319 C320 1.392 . S
C320 H296 0.949 1_565 S
C320 C315 1.382 . S
C320 C319 1.392 . S
C321 C322 1.376 . S
C321 C326 1.386 . S
C321 C327 1.483 . S
C322 H297 0.949 . S
C322 C321 1.376 . S
C322 C323 1.397 . S
C323 H298 0.950 . S
C323 C322 1.397 . S
C323 C324 1.391 . S
C324 C323 1.391 . S
C324 C325 1.405 . S
C325 H299 0.950 . S
C325 C324 1.405 . S
C325 C326 1.367 . S
C326 H300 0.950 . S
C326 C321 1.386 . S
C326 C325 1.367 . S
C327 C321 1.483 . S
C327 C328 1.382 . S
C327 C329 1.403 . S
C328 H301 0.950 . S
C328 C314 1.411 1_545 S
C328 C327 1.382 . S
C329 C313 1.411 . S
C329 C327 1.403 . S
C329 C330 1.489 . S
C330 C329 1.489 . S
C330 C331 1.383 . S
C330 C335 1.382 . S
C331 H302 0.950 . S
C331 C330 1.383 . S
C331 C332 1.395 . S
C332 H303 0.950 . S
C332 C331 1.395 . S
C332 C333 1.288 . S
C333 C332 1.288 . S
C333 C334 1.392 . S
C334 H304 0.951 . S
C334 C333 1.392 . S
C334 C335 1.392 . S
C335 H305 0.949 . S
C335 C330 1.382 . S
C335 C334 1.392 . S
H336 C355 0.949 1_455 S
H337 C356 0.950 . S
H338 C358 0.950 . S
H339 C359 0.950 . S
H340 C361 0.950 . S
H341 C364 0.950 . S
H342 C365 0.950 . S
H343 C367 0.951 . S
H344 C368 0.949 . S
H345 C370 0.949 . S
H346 C371 0.950 . S
H347 C373 0.950 . S
H348 C374 0.950 . S
H349 C376 0.950 . S
H350 C379 0.950 . S
H351 C380 0.950 . S
H352 C382 0.951 . S
H353 C383 0.949 1_545 S
C354 C355 1.376 . S
C354 C359 1.386 . S
C354 C360 1.483 1_655 S
C355 H336 0.949 1_655 S
C355 C354 1.376 . S
C355 C356 1.397 . S
C356 H337 0.950 . S
C356 C355 1.397 . S
C356 C357 1.391 . S
C357 C356 1.391 . S
C357 C358 1.405 . S
C358 H338 0.950 . S
C358 C357 1.405 . S
C358 C359 1.367 . S
C359 H339 0.950 . S
C359 C354 1.386 . S
C359 C358 1.367 . S
C360 C354 1.483 1_455 S
C360 C361 1.382 . S
C360 C362 1.401 1_455 S
C361 H340 0.950 . S
C361 C360 1.382 . S
C361 C377 1.411 . S
C362 C360 1.401 1_655 S
C362 C363 1.500 . S
C362 C376 1.401 1_655 S
C363 C362 1.500 . S
C363 C364 1.383 . S
C363 C368 1.382 . S
C364 H341 0.950 . S
C364 C363 1.383 . S
C364 C365 1.395 . S
C365 H342 0.950 . S
C365 C364 1.395 . S
C365 C366 1.288 . S
C366 C365 1.288 . S
C366 C367 1.392 . S
C367 H343 0.951 . S
C367 C366 1.392 . S
C367 C368 1.392 . S
C368 H344 0.949 . S
C368 C363 1.382 . S
C368 C367 1.392 . S
C369 C370 1.376 . S
C369 C374 1.386 . S
C369 C375 1.483 1_565 S
C370 H345 0.949 . S
C370 C369 1.376 . S
C370 C371 1.397 . S
C371 H346 0.950 . S
C371 C370 1.397 . S
C371 C372 1.391 . S
C372 C371 1.391 . S
C372 C373 1.405 . S
C373 H347 0.950 . S
C373 C372 1.405 . S
C373 C374 1.367 . S
C374 H348 0.950 . S
C374 C369 1.386 . S
C374 C373 1.367 . S
C375 C369 1.483 1_545 S
C375 C376 1.382 . S
C375 C377 1.403 . S
C376 H349 0.950 . S
C376 C362 1.401 1_455 S
C376 C375 1.382 . S
C377 C361 1.411 . S
C377 C375 1.403 . S
C377 C378 1.489 1_545 S
C378 C377 1.489 1_565 S
C378 C379 1.383 . S
C378 C383 1.382 . S
C379 H350 0.950 . S
C379 C378 1.383 . S
C379 C380 1.395 . S
C380 H351 0.950 . S
C380 C379 1.395 . S
C380 C381 1.288 . S
C381 C380 1.288 . S
C381 C382 1.392 . S
C382 H352 0.951 . S
C382 C381 1.392 . S
C382 C383 1.392 . S
C383 H353 0.949 1_565 S
C383 C378 1.382 . S
C383 C382 1.392 . S
C384 O385 1.306 . S
C384 O387 1.160 . S
O385 C384 1.306 . S
O385 Cd386 2.228 . S
Cd386 O385 2.228 . S
Cd386 O390 2.273 1_554 S
Cd386 O394 2.277 . S
O387 C384 1.160 . S
O387 Cd388 2.203 . S
Cd388 O387 2.203 . S
Cd388 O390 2.411 1_554 S
Cd388 O391 2.333 1_554 S
Cd388 O392 2.357 . S
Cd388 O396 2.277 . S
Cd388 O397 2.356 1_554 S
C389 O394 1.209 . S
C389 O396 1.226 . S
O390 Cd386 2.273 1_556 S
O390 Cd388 2.411 1_556 S
O390 C393 1.320 . S
O391 Cd388 2.333 1_556 S
O391 C393 1.214 . S
O392 Cd388 2.357 . S
O392 C395 1.254 1_554 S
C393 O390 1.320 . S
C393 O391 1.214 . S
O394 Cd386 2.277 . S
O394 C389 1.209 . S
C395 O392 1.254 1_556 S
C395 O397 1.282 . S
O396 Cd388 2.277 . S
O396 C389 1.226 . S
O397 Cd388 2.356 1_556 S
O397 C395 1.282 . S
C398 O399 1.306 . S
C398 O401 1.160 . S
O399 C398 1.306 . S
O399 Cd400 2.228 . S
Cd400 O399 2.228 . S
Cd400 O404 2.273 . S
Cd400 O408 2.277 . S
O401 C398 1.160 . S
O401 Cd402 2.203 . S
Cd402 O401 2.203 . S
Cd402 O404 2.411 . S
Cd402 O405 2.333 . S
Cd402 O406 2.352 . S
Cd402 O410 2.277 . S
Cd402 O411 2.356 . S
C403 O408 1.209 . S
C403 O410 1.226 . S
O404 Cd400 2.273 . S
O404 Cd402 2.411 . S
O404 C407 1.320 . S
O405 Cd402 2.333 . S
O405 C407 1.214 . S
O406 Cd402 2.352 . S
O406 C409 1.258 . S
C407 O404 1.320 . S
C407 O405 1.214 . S
O408 Cd400 2.277 . S
O408 C403 1.209 . S
C409 O406 1.258 . S
C409 O411 1.282 . S
O410 Cd402 2.277 . S
O410 C403 1.226 . S
O411 Cd402 2.356 . S
O411 C409 1.282 . S
C412 O413 1.306 . S
C412 O415 1.160 . S
O413 C412 1.306 . S
O413 Cd414 2.228 . S
Cd414 O413 2.228 . S
Cd414 O418 2.273 . S
Cd414 O422 2.277 . S
O415 C412 1.160 . S
O415 Cd416 2.203 . S
Cd416 O415 2.203 . S
Cd416 O418 2.411 . S
Cd416 O419 2.333 . S
Cd416 O420 2.352 . S
Cd416 O424 2.277 . S
Cd416 O425 2.356 . S
C417 O422 1.209 . S
C417 O424 1.226 . S
O418 Cd414 2.273 . S
O418 Cd416 2.411 . S
O418 C421 1.320 . S
O419 Cd416 2.333 . S
O419 C421 1.214 . S
O420 Cd416 2.352 . S
O420 C423 1.258 . S
C421 O418 1.320 . S
C421 O419 1.214 . S
O422 Cd414 2.277 . S
O422 C417 1.209 . S
C423 O420 1.258 . S
C423 O425 1.282 . S
O424 Cd416 2.277 . S
O424 C417 1.226 . S
O425 Cd416 2.356 . S
O425 C423 1.282 . S
C426 O427 1.306 . S
C426 O429 1.160 . S
O427 C426 1.306 . S
O427 Cd428 2.228 . S
Cd428 O427 2.228 . S
Cd428 O432 2.273 . S
Cd428 O436 2.277 . S
O429 C426 1.160 . S
O429 Cd430 2.203 . S
Cd430 O429 2.203 . S
Cd430 O432 2.411 . S
Cd430 O433 2.333 . S
Cd430 O434 2.352 . S
Cd430 O438 2.277 . S
Cd430 O439 2.356 . S
C431 O436 1.209 . S
C431 O438 1.226 . S
O432 Cd428 2.273 . S
O432 Cd430 2.411 . S
O432 C435 1.320 . S
O433 Cd430 2.333 . S
O433 C435 1.214 . S
O434 Cd430 2.352 . S
O434 C437 1.258 . S
C435 O432 1.320 . S
C435 O433 1.214 . S
O436 Cd428 2.277 . S
O436 C431 1.209 . S
C437 O434 1.258 . S
C437 O439 1.282 . S
O438 Cd430 2.277 . S
O438 C431 1.226 . S
O439 Cd430 2.356 . S
O439 C437 1.282 . S
C440 O441 1.306 . S
C440 O443 1.160 . S
O441 C440 1.306 . S
O441 Cd442 2.228 . S
Cd442 O441 2.228 . S
Cd442 O446 2.273 . S
Cd442 O450 2.277 . S
O443 C440 1.160 . S
O443 Cd444 2.203 . S
Cd444 O443 2.203 . S
Cd444 O446 2.411 . S
Cd444 O447 2.333 . S
Cd444 O448 2.352 . S
Cd444 O452 2.277 . S
Cd444 O453 2.356 . S
C445 O450 1.209 . S
C445 O452 1.226 . S
O446 Cd442 2.273 . S
O446 Cd444 2.411 . S
O446 C449 1.320 . S
O447 Cd444 2.333 . S
O447 C449 1.214 . S
O448 Cd444 2.352 . S
O448 C451 1.258 . S
C449 O446 1.320 . S
C449 O447 1.214 . S
O450 Cd442 2.277 . S
O450 C445 1.209 . S
C451 O448 1.258 . S
C451 O453 1.282 . S
O452 Cd444 2.277 . S
O452 C445 1.226 . S
O453 Cd444 2.356 . S
O453 C451 1.282 . S
C454 O455 1.306 . S
C454 O457 1.160 . S
O455 C454 1.306 . S
O455 Cd456 2.228 . S
Cd456 O455 2.228 . S
Cd456 O460 2.273 . S
Cd456 O464 2.277 . S
O457 C454 1.160 . S
O457 Cd458 2.203 . S
Cd458 O457 2.203 . S
Cd458 O460 2.411 . S
Cd458 O461 2.333 . S
Cd458 O462 2.352 . S
Cd458 O466 2.277 . S
Cd458 O467 2.356 . S
C459 O464 1.209 . S
C459 O466 1.226 . S
O460 Cd456 2.273 . S
O460 Cd458 2.411 . S
O460 C463 1.320 . S
O461 Cd458 2.333 . S
O461 C463 1.214 . S
O462 Cd458 2.352 . S
O462 C465 1.258 . S
C463 O460 1.320 . S
C463 O461 1.214 . S
O464 Cd456 2.277 . S
O464 C459 1.209 . S
C465 O462 1.258 . S
C465 O467 1.282 . S
O466 Cd458 2.277 . S
O466 C459 1.226 . S
O467 Cd458 2.356 . S
O467 C465 1.282 . S
C468 O469 1.306 . S
C468 O471 1.160 . S
O469 C468 1.306 . S
O469 Cd470 2.265 . S
Cd470 O469 2.265 . S
Cd470 O474 2.243 1_556 S
Cd470 O478 2.282 . S
O471 C468 1.160 . S
O471 Cd472 2.203 1_556 S
Cd472 O471 2.203 1_554 S
Cd472 O474 2.411 . S
Cd472 O475 2.333 . S
Cd472 O476 2.352 . S
Cd472 O480 2.277 1_554 S
Cd472 O481 2.356 . S
C473 O478 1.209 . S
C473 O480 1.226 . S
O474 Cd470 2.243 1_554 S
O474 Cd472 2.411 . S
O474 C477 1.320 . S
O475 Cd472 2.333 . S
O475 C477 1.214 . S
O476 Cd472 2.352 . S
O476 C479 1.258 . S
C477 O474 1.320 . S
C477 O475 1.214 . S
O478 Cd470 2.282 . S
O478 C473 1.209 . S
C479 O476 1.258 . S
C479 O481 1.282 . S
O480 Cd472 2.277 1_556 S
O480 C473 1.226 . S
O481 Cd472 2.356 . S
O481 C479 1.282 . S
C482 O483 1.306 . S
C482 O485 1.160 . S
O483 C482 1.306 . S
O483 Cd484 2.228 . S
Cd484 O483 2.228 . S
Cd484 O488 2.273 . S
Cd484 O492 2.277 . S
O485 C482 1.160 . S
O485 Cd486 2.203 . S
Cd486 O485 2.203 . S
Cd486 O488 2.411 . S
Cd486 O489 2.333 . S
Cd486 O490 2.352 . S
Cd486 O494 2.277 . S
Cd486 O495 2.356 . S
C487 O492 1.209 . S
C487 O494 1.226 . S
O488 Cd484 2.273 . S
O488 Cd486 2.411 . S
O488 C491 1.320 . S
O489 Cd486 2.333 . S
O489 C491 1.214 . S
O490 Cd486 2.352 . S
O490 C493 1.258 . S
C491 O488 1.320 . S
C491 O489 1.214 . S
O492 Cd484 2.277 . S
O492 C487 1.209 . S
C493 O490 1.258 . S
C493 O495 1.282 . S
O494 Cd486 2.277 . S
O494 C487 1.226 . S
O495 Cd486 2.356 . S
O495 C493 1.282 . S
H496 C502 0.930 . S
H497 C505 0.930 . S
H498 C506 0.930 . S
H499 C507 0.930 . S
H500 C510 0.930 . S
H501 C511 0.930 . S
C502 H496 0.930 . S
C502 C503 1.355 . S
C502 C504 1.415 . S
C503 C502 1.355 . S
C503 C505 1.419 . S
C504 C502 1.415 . S
C504 C509 1.425 . S
C504 C511 1.409 . S
C505 H497 0.930 . S
C505 C503 1.419 . S
C505 C506 1.362 . S
C506 H498 0.930 . S
C506 C505 1.362 . S
C506 C509 1.409 . S
C507 H499 0.930 . S
C507 C508 1.355 . S
C507 C509 1.415 . S
C508 C507 1.355 . S
C508 C510 1.419 . S
C509 C504 1.425 . S
C509 C506 1.409 . S
C509 C507 1.415 . S
C510 H500 0.930 . S
C510 C508 1.419 . S
C510 C511 1.362 . S
C511 H501 0.930 . S
C511 C504 1.409 . S
C511 C510 1.362 . S
H512 C518 0.930 . S
H513 C521 0.930 . S
H514 C522 0.930 . S
H515 C523 0.930 . S
H516 C526 0.930 . S
H517 C527 0.930 . S
C518 H512 0.930 . S
C518 C519 1.355 . S
C518 C520 1.415 . S
C519 C518 1.355 . S
C519 C521 1.419 . S
C520 C518 1.415 . S
C520 C525 1.425 . S
C520 C527 1.409 . S
C521 H513 0.930 . S
C521 C519 1.419 . S
C521 C522 1.362 . S
C522 H514 0.930 . S
C522 C521 1.362 . S
C522 C525 1.409 . S
C523 H515 0.930 . S
C523 C524 1.355 . S
C523 C525 1.415 . S
C524 C523 1.355 . S
C524 C526 1.419 . S
C525 C520 1.425 . S
C525 C522 1.409 . S
C525 C523 1.415 . S
C526 H516 0.930 . S
C526 C524 1.419 . S
C526 C527 1.362 . S
C527 H517 0.930 . S
C527 C520 1.409 . S
C527 C526 1.362 . S
H528 C534 0.930 . S
H529 C537 0.930 . S
H530 C538 0.930 . S
H531 C539 0.930 . S
H532 C542 0.930 . S
H533 C543 0.930 . S
C534 H528 0.930 . S
C534 C535 1.355 . S
C534 C536 1.415 . S
C535 C534 1.355 . S
C535 C537 1.419 . S
C536 C534 1.415 . S
C536 C541 1.425 . S
C536 C543 1.409 . S
C537 H529 0.930 . S
C537 C535 1.419 . S
C537 C538 1.362 . S
C538 H530 0.930 . S
C538 C537 1.362 . S
C538 C541 1.409 . S
C539 H531 0.930 . S
C539 C540 1.355 . S
C539 C541 1.415 . S
C540 C539 1.355 . S
C540 C542 1.419 . S
C541 C536 1.425 . S
C541 C538 1.409 . S
C541 C539 1.415 . S
C542 H532 0.930 . S
C542 C540 1.419 . S
C542 C543 1.362 . S
C543 H533 0.930 . S
C543 C536 1.409 . S
C543 C542 1.362 . S
H544 C550 0.930 . S
H545 C553 0.942 . S
H546 C554 0.930 1_556 S
H547 C555 0.930 1_556 S
H548 C558 0.930 . S
H549 C559 0.930 . S
C550 H544 0.930 . S
C550 C551 1.355 . S
C550 C552 1.415 . S
C551 C550 1.355 . S
C551 C553 1.419 . S
C552 C550 1.415 . S
C552 C557 1.425 . S
C552 C559 1.409 . S
C553 H545 0.942 . S
C553 C551 1.419 . S
C553 C554 1.362 . S
C554 H546 0.930 1_554 S
C554 C553 1.362 . S
C554 C557 1.409 . S
C555 H547 0.930 1_554 S
C555 C556 1.355 . S
C555 C557 1.415 . S
C556 C555 1.355 . S
C556 C558 1.419 . S
C557 C552 1.425 . S
C557 C554 1.409 . S
C557 C555 1.415 . S
C558 H548 0.930 . S
C558 C556 1.419 . S
C558 C559 1.362 . S
C559 H549 0.930 . S
C559 C552 1.409 . S
C559 C558 1.362 . S
H560 C566 0.930 1_554 S
H561 C569 0.930 . S
H562 C570 0.930 . S
H563 C571 0.930 . S
H564 C574 0.930 . S
H565 C575 0.930 . S
C566 H560 0.930 1_556 S
C566 C567 1.355 . S
C566 C568 1.415 . S
C567 C566 1.355 . S
C567 C569 1.419 . S
C568 C566 1.415 . S
C568 C573 1.425 . S
C568 C575 1.409 1_556 S
C569 H561 0.930 . S
C569 C567 1.419 . S
C569 C570 1.362 . S
C570 H562 0.930 . S
C570 C569 1.362 . S
C570 C573 1.409 . S
C571 H563 0.930 . S
C571 C572 1.355 . S
C571 C573 1.415 . S
C572 C571 1.355 . S
C572 C574 1.419 1_556 S
C573 C568 1.425 . S
C573 C570 1.409 . S
C573 C571 1.415 . S
C574 H564 0.930 . S
C574 C572 1.419 1_554 S
C574 C575 1.362 . S
C575 H565 0.930 . S
C575 C568 1.409 1_554 S
C575 C574 1.362 . S
H576 C582 0.930 . S
H577 C585 0.930 . S
H578 C586 0.930 . S
H579 C587 0.930 . S
H580 C590 0.930 . S
H581 C591 0.930 . S
C582 H576 0.930 . S
C582 C583 1.355 . S
C582 C584 1.415 . S
C583 C582 1.355 . S
C583 C585 1.419 . S
C584 C582 1.415 . S
C584 C589 1.425 . S
C584 C591 1.409 . S
C585 H577 0.930 . S
C585 C583 1.419 . S
C585 C586 1.362 . S
C586 H578 0.930 . S
C586 C585 1.362 . S
C586 C589 1.409 . S
C587 H579 0.930 . S
C587 C588 1.355 . S
C587 C589 1.415 . S
C588 C587 1.355 . S
C588 C590 1.419 . S
C589 C584 1.425 . S
C589 C586 1.409 . S
C589 C587 1.415 . S
C590 H580 0.930 . S
C590 C588 1.419 . S
C590 C591 1.362 . S
C591 H581 0.930 . S
C591 C584 1.409 . S
C591 C590 1.362 . S
H592 C598 0.930 . S
H593 C601 0.930 . S
H594 C602 0.930 . S
H595 C603 0.930 . S
H596 C606 0.930 . S
H597 C607 0.930 . S
C598 H592 0.930 . S
C598 C599 1.355 . S
C598 C600 1.415 . S
C599 C598 1.355 . S
C599 C601 1.419 . S
C600 C598 1.415 . S
C600 C605 1.425 . S
C600 C607 1.409 . S
C601 H593 0.930 . S
C601 C599 1.419 . S
C601 C602 1.362 . S
C602 H594 0.930 . S
C602 C601 1.362 . S
C602 C605 1.409 . S
C603 H595 0.930 . S
C603 C604 1.355 . S
C603 C605 1.415 . S
C604 C603 1.355 . S
C604 C606 1.419 . S
C605 C600 1.425 . S
C605 C602 1.409 . S
C605 C603 1.415 . S
C606 H596 0.930 . S
C606 C604 1.419 . S
C606 C607 1.362 . S
C607 H597 0.930 . S
C607 C600 1.409 . S
C607 C606 1.362 . S
H608 C614 0.930 . S
H609 C617 0.930 . S
H610 C618 0.930 . S
H611 C619 0.930 . S
H612 C622 0.930 . S
H613 C623 0.930 . S
C614 H608 0.930 . S
C614 C615 1.355 . S
C614 C616 1.415 . S
C615 C614 1.355 . S
C615 C617 1.419 . S
C616 C614 1.415 . S
C616 C621 1.425 . S
C616 C623 1.409 . S
C617 H609 0.930 . S
C617 C615 1.419 . S
C617 C618 1.362 . S
C618 H610 0.930 . S
C618 C617 1.362 . S
C618 C621 1.409 . S
C619 H611 0.930 . S
C619 C620 1.355 . S
C619 C621 1.415 . S
C620 C619 1.355 . S
C620 C622 1.419 . S
C621 C616 1.425 . S
C621 C618 1.409 . S
C621 C619 1.415 . S
C622 H612 0.930 . S
C622 C620 1.419 . S
C622 C623 1.362 . S
C623 H613 0.930 . S
C623 C616 1.409 . S
C623 C622 1.362 . S
H624 C630 0.930 . S
H625 C633 0.930 . S
H626 C634 0.930 . S
H627 C635 0.930 . S
H628 C638 0.930 . S
H629 C639 0.930 . S
C630 H624 0.930 . S
C630 C631 1.355 . S
C630 C632 1.415 . S
C631 C630 1.355 . S
C631 C633 1.419 . S
C632 C630 1.415 . S
C632 C637 1.425 . S
C632 C639 1.409 . S
C633 H625 0.930 . S
C633 C631 1.419 . S
C633 C634 1.362 . S
C634 H626 0.930 . S
C634 C633 1.362 . S
C634 C637 1.409 . S
C635 H627 0.930 . S
C635 C636 1.355 . S
C635 C637 1.415 . S
C636 C635 1.355 . S
C636 C638 1.419 . S
C637 C632 1.425 . S
C637 C634 1.409 . S
C637 C635 1.415 . S
C638 H628 0.930 . S
C638 C636 1.419 . S
C638 C639 1.362 . S
C639 H629 0.930 . S
C639 C632 1.409 . S
C639 C638 1.362 . S
H640 C646 0.930 . S
H641 C649 0.930 . S
H642 C650 0.930 . S
H643 C651 0.930 . S
H644 C654 0.930 . S
H645 C655 0.930 . S
C646 H640 0.930 . S
C646 C647 1.355 . S
C646 C648 1.415 . S
C647 C646 1.355 . S
C647 C649 1.419 . S
C648 C646 1.415 . S
C648 C653 1.425 . S
C648 C655 1.409 1_554 S
C649 H641 0.930 . S
C649 C647 1.419 . S
C649 C650 1.362 . S
C650 H642 0.930 . S
C650 C649 1.362 . S
C650 C653 1.409 . S
C651 H643 0.930 . S
C651 C652 1.355 . S
C651 C653 1.415 . S
C652 C651 1.355 . S
C652 C654 1.419 1_554 S
C653 C648 1.425 . S
C653 C650 1.409 . S
C653 C651 1.415 . S
C654 H644 0.930 . S
C654 C652 1.419 1_556 S
C654 C655 1.362 . S
C655 H645 0.930 . S
C655 C648 1.409 1_556 S
C655 C654 1.362 . S
H656 C662 0.930 . S
H657 C665 0.930 . S
H658 C666 0.930 . S
H659 C667 0.930 . S
H660 C670 0.930 . S
H661 C671 0.930 . S
C662 H656 0.930 . S
C662 C663 1.355 . S
C662 C664 1.415 . S
C663 C662 1.355 . S
C663 C665 1.419 . S
C664 C662 1.415 . S
C664 C669 1.425 . S
C664 C671 1.409 . S
C665 H657 0.930 . S
C665 C663 1.419 . S
C665 C666 1.362 . S
C666 H658 0.930 . S
C666 C665 1.362 . S
C666 C669 1.409 . S
C667 H659 0.930 . S
C667 C668 1.355 . S
C667 C669 1.415 . S
C668 C667 1.355 . S
C668 C670 1.419 . S
C669 C664 1.425 . S
C669 C666 1.409 . S
C669 C667 1.415 . S
C670 H660 0.930 . S
C670 C668 1.419 . S
C670 C671 1.362 . S
C671 H661 0.930 . S
C671 C664 1.409 . S
C671 C670 1.362 . S
H672 C678 0.930 . S
H673 C681 0.930 . S
H674 C682 0.930 . S
H675 C683 0.930 . S
H676 C686 0.930 . S
H677 C687 0.930 . S
C678 H672 0.930 . S
C678 C679 1.355 . S
C678 C680 1.415 . S
C679 C678 1.355 . S
C679 C681 1.419 . S
C680 C678 1.415 . S
C680 C685 1.425 . S
C680 C687 1.409 . S
C681 H673 0.930 . S
C681 C679 1.419 . S
C681 C682 1.362 . S
C682 H674 0.930 . S
C682 C681 1.362 . S
C682 C685 1.409 . S
C683 H675 0.930 . S
C683 C684 1.355 . S
C683 C685 1.415 . S
C684 C683 1.355 . S
C684 C686 1.419 . S
C685 C680 1.425 . S
C685 C682 1.409 . S
C685 C683 1.415 . S
C686 H676 0.930 . S
C686 C684 1.419 . S
C686 C687 1.362 . S
C687 H677 0.930 . S
C687 C680 1.409 . S
C687 C686 1.362 . S
H688 C694 0.930 . S
H689 C697 0.930 . S
H690 C698 0.930 . S
H691 C699 0.930 . S
H692 C702 0.930 . S
H693 C703 0.930 . S
C694 H688 0.930 . S
C694 C695 1.355 . S
C694 C696 1.415 . S
C695 C694 1.355 . S
C695 C697 1.419 . S
C696 C694 1.415 . S
C696 C701 1.425 . S
C696 C703 1.409 . S
C697 H689 0.930 . S
C697 C695 1.419 . S
C697 C698 1.362 . S
C698 H690 0.930 . S
C698 C697 1.362 . S
C698 C701 1.409 . S
C699 H691 0.930 . S
C699 C700 1.355 . S
C699 C701 1.415 . S
C700 C699 1.355 . S
C700 C702 1.419 . S
C701 C696 1.425 . S
C701 C698 1.409 . S
C701 C699 1.415 . S
C702 H692 0.930 . S
C702 C700 1.419 . S
C702 C703 1.362 . S
C703 H693 0.930 . S
C703 C696 1.409 . S
C703 C702 1.362 . S
H704 C710 0.930 . S
H705 C713 0.930 . S
H706 C714 0.930 . S
H707 C715 0.930 . S
H708 C718 0.930 . S
H709 C719 0.930 . S
C710 H704 0.930 . S
C710 C711 1.355 . S
C710 C712 1.415 . S
C711 C710 1.355 . S
C711 C713 1.419 . S
C712 C710 1.415 . S
C712 C717 1.425 . S
C712 C719 1.409 . S
C713 H705 0.930 . S
C713 C711 1.419 . S
C713 C714 1.362 . S
C714 H706 0.930 . S
C714 C713 1.362 . S
C714 C717 1.409 . S
C715 H707 0.930 . S
C715 C716 1.355 . S
C715 C717 1.415 . S
C716 C715 1.355 . S
C716 C718 1.419 . S
C717 C712 1.425 . S
C717 C714 1.409 . S
C717 C715 1.415 . S
C718 H708 0.930 . S
C718 C716 1.419 . S
C718 C719 1.362 . S
C719 H709 0.930 . S
C719 C712 1.409 . S
C719 C718 1.362 . S
H720 C726 0.930 1_554 S
H721 C729 0.930 . S
H722 C730 0.930 . S
H723 C731 0.930 . S
H724 C734 0.930 . S
H725 C735 0.930 . S
C726 H720 0.930 1_556 S
C726 C727 1.355 . S
C726 C728 1.415 . S
C727 C726 1.355 . S
C727 C729 1.419 . S
C728 C726 1.415 . S
C728 C733 1.425 . S
C728 C735 1.409 1_556 S
C729 H721 0.930 . S
C729 C727 1.419 . S
C729 C730 1.362 . S
C730 H722 0.930 . S
C730 C729 1.362 . S
C730 C733 1.409 . S
C731 H723 0.930 . S
C731 C732 1.355 . S
C731 C733 1.415 . S
C732 C731 1.355 . S
C732 C734 1.419 1_556 S
C733 C728 1.425 . S
C733 C730 1.409 . S
C733 C731 1.415 . S
C734 H724 0.930 . S
C734 C732 1.419 1_554 S
C734 C735 1.362 . S
C735 H725 0.930 . S
C735 C728 1.409 1_554 S
C735 C734 1.362 . S
H736 C742 0.930 . S
H737 C745 0.930 . S
H738 C746 0.930 . S
H739 C747 0.930 . S
H740 C750 0.930 . S
H741 C751 0.930 . S
C742 H736 0.930 . S
C742 C743 1.355 . S
C742 C744 1.415 . S
C743 C742 1.355 . S
C743 C745 1.419 . S
C744 C742 1.415 . S
C744 C749 1.425 . S
C744 C751 1.409 . S
C745 H737 0.930 . S
C745 C743 1.419 . S
C745 C746 1.362 . S
C746 H738 0.930 . S
C746 C745 1.362 . S
C746 C749 1.409 . S
C747 H739 0.930 . S
C747 C748 1.355 . S
C747 C749 1.415 . S
C748 C747 1.355 . S
C748 C750 1.419 . S
C749 C744 1.425 . S
C749 C746 1.409 . S
C749 C747 1.415 . S
C750 H740 0.930 . S
C750 C748 1.419 . S
C750 C751 1.362 . S
C751 H741 0.930 . S
C751 C744 1.409 . S
C751 C750 1.362 . S
H752 C758 0.930 . S
H753 C761 0.930 . S
H754 C762 0.930 . S
H755 C763 0.930 . S
H756 C766 0.930 . S
H757 C767 0.930 . S
C758 H752 0.930 . S
C758 C759 1.355 . S
C758 C760 1.415 . S
C759 C758 1.355 . S
C759 C761 1.419 . S
C760 C758 1.415 . S
C760 C765 1.425 . S
C760 C767 1.409 . S
C761 H753 0.930 . S
C761 C759 1.419 . S
C761 C762 1.362 . S
C762 H754 0.930 . S
C762 C761 1.362 . S
C762 C765 1.409 . S
C763 H755 0.930 . S
C763 C764 1.355 . S
C763 C765 1.415 . S
C764 C763 1.355 . S
C764 C766 1.419 . S
C765 C760 1.425 . S
C765 C762 1.409 . S
C765 C763 1.415 . S
C766 H756 0.930 . S
C766 C764 1.419 . S
C766 C767 1.362 . S
C767 H757 0.930 . S
C767 C760 1.409 . S
C767 C766 1.362 . S
H768 C774 0.930 . S
H769 C777 0.930 . S
H770 C778 0.930 . S
H771 C779 0.930 . S
H772 C782 0.930 . S
H773 C783 0.930 . S
C774 H768 0.930 . S
C774 C775 1.355 . S
C774 C776 1.415 . S
C775 C774 1.355 . S
C775 C777 1.419 . S
C776 C774 1.415 . S
C776 C781 1.425 . S
C776 C783 1.409 . S
C777 H769 0.930 . S
C777 C775 1.419 . S
C777 C778 1.362 . S
C778 H770 0.930 . S
C778 C777 1.362 . S
C778 C781 1.409 . S
C779 H771 0.930 . S
C779 C780 1.355 . S
C779 C781 1.415 . S
C780 C779 1.355 . S
C780 C782 1.419 . S
C781 C776 1.425 . S
C781 C778 1.409 . S
C781 C779 1.415 . S
C782 H772 0.930 . S
C782 C780 1.419 . S
C782 C783 1.362 . S
C783 H773 0.930 . S
C783 C776 1.409 . S
C783 C782 1.362 . S
H784 C790 0.930 . S
H785 C793 0.930 . S
H786 C794 0.930 . S
H787 C795 0.930 . S
H788 C798 0.930 . S
H789 C799 0.930 . S
C790 H784 0.930 . S
C790 C791 1.355 . S
C790 C792 1.415 . S
C791 C790 1.355 . S
C791 C793 1.419 . S
C792 C790 1.415 . S
C792 C797 1.425 . S
C792 C799 1.409 . S
C793 H785 0.930 . S
C793 C791 1.419 . S
C793 C794 1.362 . S
C794 H786 0.930 . S
C794 C793 1.362 . S
C794 C797 1.409 . S
C795 H787 0.930 . S
C795 C796 1.355 . S
C795 C797 1.415 . S
C796 C795 1.355 . S
C796 C798 1.419 . S
C797 C792 1.425 . S
C797 C794 1.409 . S
C797 C795 1.415 . S
C798 H788 0.930 . S
C798 C796 1.419 . S
C798 C799 1.362 . S
C799 H789 0.930 . S
C799 C792 1.409 . S
C799 C798 1.362 . S
H800 C806 0.930 . S
H801 C809 0.930 . S
H802 C810 0.930 . S
H803 C811 0.930 . S
H804 C814 0.930 . S
H805 C815 0.930 . S
C806 H800 0.930 . S
C806 C807 1.355 . S
C806 C808 1.415 . S
C807 C806 1.355 . S
C807 C809 1.419 . S
C808 C806 1.415 . S
C808 C813 1.425 . S
C808 C815 1.409 . S
C809 H801 0.930 . S
C809 C807 1.419 . S
C809 C810 1.362 . S
C810 H802 0.930 . S
C810 C809 1.362 . S
C810 C813 1.409 . S
C811 H803 0.930 . S
C811 C812 1.355 . S
C811 C813 1.415 . S
C812 C811 1.355 . S
C812 C814 1.419 . S
C813 C808 1.425 . S
C813 C810 1.409 . S
C813 C811 1.415 . S
C814 H804 0.930 . S
C814 C812 1.419 . S
C814 C815 1.362 . S
C815 H805 0.930 . S
C815 C808 1.409 . S
C815 C814 1.362 . S
H816 C822 0.930 . S
H817 C825 0.930 . S
H818 C826 0.930 . S
H819 C827 0.930 . S
H820 C830 0.930 . S
H821 C831 0.930 . S
C822 H816 0.930 . S
C822 C823 1.355 . S
C822 C824 1.415 . S
C823 C822 1.355 . S
C823 C825 1.419 . S
C824 C822 1.415 . S
C824 C829 1.425 . S
C824 C831 1.409 . S
C825 H817 0.930 . S
C825 C823 1.419 . S
C825 C826 1.362 . S
C826 H818 0.930 . S
C826 C825 1.362 . S
C826 C829 1.409 . S
C827 H819 0.930 . S
C827 C828 1.355 . S
C827 C829 1.415 . S
C828 C827 1.355 . S
C828 C830 1.419 . S
C829 C824 1.425 . S
C829 C826 1.409 . S
C829 C827 1.415 . S
C830 H820 0.930 . S
C830 C828 1.419 . S
C830 C831 1.362 . S
C831 H821 0.930 . S
C831 C824 1.409 . S
C831 C830 1.362 . S
H832 C838 0.930 . S
H833 C841 0.930 . S
H834 C842 0.930 . S
H835 C843 0.930 . S
H836 C846 0.930 . S
H837 C847 0.930 . S
C838 H832 0.930 . S
C838 C839 1.355 . S
C838 C840 1.415 . S
C839 C838 1.355 . S
C839 C841 1.419 . S
C840 C838 1.415 . S
C840 C845 1.425 . S
C840 C847 1.409 . S
C841 H833 0.930 . S
C841 C839 1.419 . S
C841 C842 1.362 . S
C842 H834 0.930 . S
C842 C841 1.362 . S
C842 C845 1.409 . S
C843 H835 0.930 . S
C843 C844 1.355 . S
C843 C845 1.415 . S
C844 C843 1.355 . S
C844 C846 1.419 . S
C845 C840 1.425 . S
C845 C842 1.409 . S
C845 C843 1.415 . S
C846 H836 0.930 . S
C846 C844 1.419 . S
C846 C847 1.362 . S
C847 H837 0.930 . S
C847 C840 1.409 . S
C847 C846 1.362 . S
H848 C854 0.930 . S
H849 C857 0.930 . S
H850 C858 0.930 . S
H851 C859 0.930 . S
H852 C862 0.930 . S
H853 C863 0.930 . S
C854 H848 0.930 . S
C854 C855 1.355 . S
C854 C856 1.415 . S
C855 C854 1.355 . S
C855 C857 1.419 . S
C856 C854 1.415 . S
C856 C861 1.425 . S
C856 C863 1.409 . S
C857 H849 0.930 . S
C857 C855 1.419 . S
C857 C858 1.362 . S
C858 H850 0.930 . S
C858 C857 1.362 . S
C858 C861 1.409 . S
C859 H851 0.930 . S
C859 C860 1.355 . S
C859 C861 1.415 . S
C860 C859 1.355 . S
C860 C862 1.419 . S
C861 C856 1.425 . S
C861 C858 1.409 . S
C861 C859 1.415 . S
C862 H852 0.930 . S
C862 C860 1.419 . S
C862 C863 1.362 . S
C863 H853 0.930 . S
C863 C856 1.409 . S
C863 C862 1.362 . S
H864 C870 0.930 . S
H865 C873 0.930 . S
H866 C874 0.930 . S
H867 C875 0.930 . S
H868 C878 0.930 . S
H869 C879 0.930 . S
C870 H864 0.930 . S
C870 C871 1.355 . S
C870 C872 1.415 . S
C871 C870 1.355 . S
C871 C873 1.419 . S
C872 C870 1.415 . S
C872 C877 1.425 . S
C872 C879 1.409 . S
C873 H865 0.930 . S
C873 C871 1.419 . S
C873 C874 1.362 . S
C874 H866 0.930 . S
C874 C873 1.362 . S
C874 C877 1.409 . S
C875 H867 0.930 . S
C875 C876 1.355 . S
C875 C877 1.415 . S
C876 C875 1.355 . S
C876 C878 1.419 . S
C877 C872 1.425 . S
C877 C874 1.409 . S
C877 C875 1.415 . S
C878 H868 0.930 . S
C878 C876 1.419 . S
C878 C879 1.362 . S
C879 H869 0.930 . S
C879 C872 1.409 . S
C879 C878 1.362 . S
H880 C886 0.930 . S
H881 C889 0.930 . S
H882 C890 0.930 . S
H883 C891 0.930 . S
H884 C894 0.930 . S
H885 C895 0.930 . S
C886 H880 0.930 . S
C886 C887 1.355 . S
C886 C888 1.415 . S
C887 C886 1.355 . S
C887 C889 1.419 . S
C888 C886 1.415 . S
C888 C893 1.425 . S
C888 C895 1.409 . S
C889 H881 0.930 . S
C889 C887 1.419 . S
C889 C890 1.362 . S
C890 H882 0.930 . S
C890 C889 1.362 . S
C890 C893 1.409 . S
C891 H883 0.930 . S
C891 C892 1.355 . S
C891 C893 1.415 . S
C892 C891 1.355 . S
C892 C894 1.419 . S
C893 C888 1.425 . S
C893 C890 1.409 . S
C893 C891 1.415 . S
C894 H884 0.930 . S
C894 C892 1.419 . S
C894 C895 1.362 . S
C895 H885 0.930 . S
C895 C888 1.409 . S
C895 C894 1.362 . S
H896 C902 0.930 . S
H897 C905 0.930 . S
H898 C906 0.930 . S
H899 C907 0.930 . S
H900 C910 0.930 . S
H901 C911 0.930 . S
C902 H896 0.930 . S
C902 C903 1.355 . S
C902 C904 1.415 . S
C903 C902 1.355 . S
C903 C905 1.419 . S
C904 C902 1.415 . S
C904 C909 1.425 . S
C904 C911 1.409 . S
C905 H897 0.930 . S
C905 C903 1.419 . S
C905 C906 1.362 . S
C906 H898 0.930 . S
C906 C905 1.362 . S
C906 C909 1.409 . S
C907 H899 0.930 . S
C907 C908 1.355 . S
C907 C909 1.415 . S
C908 C907 1.355 . S
C908 C910 1.419 . S
C909 C904 1.425 . S
C909 C906 1.409 . S
C909 C907 1.415 . S
C910 H900 0.930 . S
C910 C908 1.419 . S
C910 C911 1.362 . S
C911 H901 0.930 . S
C911 C904 1.409 . S
C911 C910 1.362 . S
H912 C918 0.930 . S
H913 C921 0.930 . S
H914 C922 0.930 . S
H915 C923 0.930 . S
H916 C926 0.930 . S
H917 C927 0.930 . S
C918 H912 0.930 . S
C918 C919 1.355 . S
C918 C920 1.415 . S
C919 C918 1.355 . S
C919 C921 1.419 . S
C920 C918 1.415 . S
C920 C925 1.425 . S
C920 C927 1.409 . S
C921 H913 0.930 . S
C921 C919 1.419 . S
C921 C922 1.362 . S
C922 H914 0.930 . S
C922 C921 1.362 . S
C922 C925 1.409 . S
C923 H915 0.930 . S
C923 C924 1.355 . S
C923 C925 1.415 . S
C924 C923 1.355 . S
C924 C926 1.419 . S
C925 C920 1.425 . S
C925 C922 1.409 . S
C925 C923 1.415 . S
C926 H916 0.930 . S
C926 C924 1.419 . S
C926 C927 1.362 . S
C927 H917 0.930 . S
C927 C920 1.409 . S
C927 C926 1.362 . S
H928 C934 0.930 . S
H929 C937 0.930 . S
H930 C938 0.930 . S
H931 C939 0.930 . S
H932 C942 0.930 . S
H933 C943 0.930 . S
C934 H928 0.930 . S
C934 C935 1.355 . S
C934 C936 1.415 . S
C935 C934 1.355 . S
C935 C937 1.419 . S
C936 C934 1.415 . S
C936 C941 1.425 . S
C936 C943 1.409 . S
C937 H929 0.930 . S
C937 C935 1.419 . S
C937 C938 1.362 . S
C938 H930 0.930 . S
C938 C937 1.362 . S
C938 C941 1.409 . S
C939 H931 0.930 . S
C939 C940 1.355 . S
C939 C941 1.415 . S
C940 C939 1.355 . S
C940 C942 1.419 . S
C941 C936 1.425 . S
C941 C938 1.409 . S
C941 C939 1.415 . S
C942 H932 0.930 . S
C942 C940 1.419 . S
C942 C943 1.362 . S
C943 H933 0.930 . S
C943 C936 1.409 . S
C943 C942 1.362 . S
H944 C950 0.930 . S
H945 C953 0.930 . S
H946 C954 0.930 . S
H947 C955 0.930 . S
H948 C958 0.930 . S
H949 C959 0.930 . S
C950 H944 0.930 . S
C950 C951 1.355 . S
C950 C952 1.415 . S
C951 C950 1.355 . S
C951 C953 1.419 . S
C952 C950 1.415 . S
C952 C957 1.425 . S
C952 C959 1.409 . S
C953 H945 0.930 . S
C953 C951 1.419 . S
C953 C954 1.362 . S
C954 H946 0.930 . S
C954 C953 1.362 . S
C954 C957 1.409 . S
C955 H947 0.930 . S
C955 C956 1.355 . S
C955 C957 1.415 . S
C956 C955 1.355 . S
C956 C958 1.419 . S
C957 C952 1.425 . S
C957 C954 1.409 . S
C957 C955 1.415 . S
C958 H948 0.930 . S
C958 C956 1.419 . S
C958 C959 1.362 . S
C959 H949 0.930 . S
C959 C952 1.409 . S
C959 C958 1.362 . S
H960 C966 0.930 . S
H961 C969 0.930 . S
H962 C970 0.930 . S
H963 C971 0.930 . S
H964 C974 0.930 . S
H965 C975 0.930 . S
C966 H960 0.930 . S
C966 C967 1.355 . S
C966 C968 1.415 . S
C967 C966 1.355 . S
C967 C969 1.419 . S
C968 C966 1.415 . S
C968 C973 1.425 . S
C968 C975 1.409 . S
C969 H961 0.930 . S
C969 C967 1.419 . S
C969 C970 1.362 . S
C970 H962 0.930 . S
C970 C969 1.362 . S
C970 C973 1.409 . S
C971 H963 0.930 . S
C971 C972 1.355 . S
C971 C973 1.415 . S
C972 C971 1.355 . S
C972 C974 1.419 . S
C973 C968 1.425 . S
C973 C970 1.409 . S
C973 C971 1.415 . S
C974 H964 0.930 . S
C974 C972 1.419 . S
C974 C975 1.362 . S
C975 H965 0.930 . S
C975 C968 1.409 . S
C975 C974 1.362 . S
H976 C982 0.930 . S
H977 C985 0.930 . S
H978 C986 0.930 . S
H979 C987 0.930 . S
H980 C990 0.930 . S
H981 C991 0.930 . S
C982 H976 0.930 . S
C982 C983 1.355 . S
C982 C984 1.415 . S
C983 C982 1.355 . S
C983 C985 1.419 . S
C984 C982 1.415 . S
C984 C989 1.425 . S
C984 C991 1.409 . S
C985 H977 0.930 . S
C985 C983 1.419 . S
C985 C986 1.362 . S
C986 H978 0.930 . S
C986 C985 1.362 . S
C986 C989 1.409 . S
C987 H979 0.930 . S
C987 C988 1.355 . S
C987 C989 1.415 . S
C988 C987 1.355 . S
C988 C990 1.419 . S
C989 C984 1.425 . S
C989 C986 1.409 . S
C989 C987 1.415 . S
C990 H980 0.930 . S
C990 C988 1.419 . S
C990 C991 1.362 . S
C991 H981 0.930 . S
C991 C984 1.409 . S
C991 C990 1.362 . S
H992 C998 0.930 . S
H993 C1001 0.930 . S
H994 C1002 0.930 . S
H995 C1003 0.930 . S
H996 C1006 0.930 . S
H997 C1007 0.930 . S
C998 H992 0.930 . S
C998 C999 1.355 . S
C998 C1000 1.415 . S
C999 C998 1.355 . S
C999 C1001 1.419 . S
C1000 C998 1.415 . S
C1000 C1005 1.425 . S
C1000 C1007 1.409 . S
C1001 H993 0.930 . S
C1001 C999 1.419 . S
C1001 C1002 1.362 . S
C1002 H994 0.930 . S
C1002 C1001 1.362 . S
C1002 C1005 1.409 . S
C1003 H995 0.930 . S
C1003 C1004 1.355 . S
C1003 C1005 1.415 . S
C1004 C1003 1.355 . S
C1004 C1006 1.419 . S
C1005 C1000 1.425 . S
C1005 C1002 1.409 . S
C1005 C1003 1.415 . S
C1006 H996 0.930 . S
C1006 C1004 1.419 . S
C1006 C1007 1.362 . S
C1007 H997 0.930 . S
C1007 C1000 1.409 . S
C1007 C1006 1.362 . S
C508 C409 1.401 . S
C503 C36 1.373 . S
C524 C423 1.397 . S
C519 C93 1.357 . S
C540 C431 1.417 . S
C535 C126 1.349 . S
C551 C165 1.354 . S
C556 C389 1.406 . S
C567 C222 1.284 . S
C572 C395 1.368 . S
C583 C261 1.286 . S
C588 C403 1.376 . S
C604 C417 1.471 . S
C599 C318 1.416 . S
C620 C437 1.416 . S
C615 C381 1.421 . S
C631 C132 1.304 . S
C636 C465 1.365 . S
C652 C479 1.450 . S
C647 C189 1.388 . S
C663 C30 1.367 . S
C668 C487 1.359 . S
C684 C451 1.340 . S
C679 C69 1.256 . S
C695 C324 1.343 . S
C700 C445 1.421 . S
C711 C357 1.405 . S
C716 C459 1.414 . S
C732 C473 1.404 . S
C727 C228 1.333 . S
C743 C285 1.418 . S
C748 C493 1.444 . S
C764 C412 1.661 . S
C759 C45 1.712 . S
C780 C435 1.735 . S
C775 C84 1.729 . S
C791 C117 1.720 . S
C796 C393 1.734 . S
C807 C174 1.731 . S
C812 C398 1.698 . S
C823 C213 1.721 . S
C828 C426 1.647 . S
C844 C384 1.688 . S
C839 C270 1.724 . S
C860 C407 1.698 . S
C855 C309 1.721 . S
C876 C421 1.695 . S
C871 C372 1.727 . S
C892 C468 1.689 . S
C887 C141 1.716 . S
C908 C491 1.724 . S
C903 C180 1.712 . S
C919 C21 1.714 . S
C924 C440 1.647 . S
C940 C454 1.691 . S
C935 C78 1.674 . S
C956 C482 1.735 . S
C951 C333 1.739 . S
C967 C366 1.743 . S
C972 C449 1.777 . S
C988 C463 1.715 . S
C983 C237 1.746 . S
C1004 C477 1.720 . S
C999 C276 1.752 . S
