# Generated by pormake.
# Topology tsx, (6,3)-cn, num edge types: 1
# Building blocks:
#     Node 0, Type 0, BuildingBlock: LEVNOQ01_clean_sbu_1, # of connection points: 6
#     Node 1, Type 0, BuildingBlock: LEVNOQ01_clean_sbu_1, # of connection points: 6
#     Node 2, Type 1, BuildingBlock: KAKCAD_clean_linker_0, # of connection points: 3
#     Node 3, Type 1, BuildingBlock: KAKCAD_clean_linker_0, # of connection points: 3
#     Node 4, Type 1, BuildingBlock: KAKCAD_clean_linker_0, # of connection points: 3
#     Node 5, Type 1, BuildingBlock: KAKCAD_clean_linker_0, # of connection points: 3
#     Edge 6, Type (0, 1), BuildingBlock: AJUNOK_clean_linker_0, # of connection points: 2
#     Edge 7, Type (0, 1), BuildingBlock: AJUNOK_clean_linker_0, # of connection points: 2
#     Edge 8, Type (0, 1), BuildingBlock: AJUNOK_clean_linker_0, # of connection points: 2
#     Edge 9, Type (0, 1), BuildingBlock: AJUNOK_clean_linker_0, # of connection points: 2
#     Edge 10, Type (0, 1), BuildingBlock: AJUNOK_clean_linker_0, # of connection points: 2
#     Edge 11, Type (0, 1), BuildingBlock: AJUNOK_clean_linker_0, # of connection points: 2
#     Edge 12, Type (0, 1), BuildingBlock: AJUNOK_clean_linker_0, # of connection points: 2
#     Edge 13, Type (0, 1), BuildingBlock: AJUNOK_clean_linker_0, # of connection points: 2
#     Edge 14, Type (0, 1), BuildingBlock: AJUNOK_clean_linker_0, # of connection points: 2
#     Edge 15, Type (0, 1), BuildingBlock: AJUNOK_clean_linker_0, # of connection points: 2
#     Edge 16, Type (0, 1), BuildingBlock: AJUNOK_clean_linker_0, # of connection points: 2
#     Edge 17, Type (0, 1), BuildingBlock: AJUNOK_clean_linker_0, # of connection points: 2
# Relax obj value: 0.130
# Max RMSD: 0.158
# Mean RMSD: 0.120
data_MOF--net-tsx--node1-LEVNOQ01_clean_sbu_1--node2-KAKCAD_clean_linker_0--edge1-AJUNOK_clean_linker_0
_symmetry_space_group_name_H-M    P1
_symmetry_Int_Tables_number       1
_symmetry_cell_setting            triclinic
loop_
_symmetry_equiv_pos_as_xyz
'x, y, z'
_cell_length_a     17.289194
_cell_length_b     21.44755
_cell_length_c     35.401285
_cell_angle_alpha  97.967865
_cell_angle_beta   92.436258
_cell_angle_gamma 90.220304
loop_
_atom_site_label
_atom_site_type_symbol
_atom_site_fract_x
_atom_site_fract_y
_atom_site_fract_z
_atom_type_partial_charge
O0 O 0.21991 0.0749 0.09687 0.0
Mg1 Mg 0.26943 0.06764 0.04274 0.0
O2 O 0.10028 0.05498 0.07277 0.0
Mg3 Mg 0.09784 0.04571 0.00672 0.0
O4 O 0.20091 0.11401 0.00741 0.0
O5 O 0.32251 0.14333 0.0245 0.0
O6 O 0.09372 0.03656 0.94069 0.0
O7 O 0.03077 0.14433 0.00991 0.0
Mg8 Mg 0.95664 0.04941 0.99267 0.0
O9 O 0.99643 0.96742 0.0079 0.0
O10 O 0.97321 0.0679 0.93637 0.0
O11 O 0.92503 0.12124 0.03582 0.0
O12 O 0.87445 0.98295 0.98627 0.0
C13 C 0.24324 0.93603 0.00707 0.0
C14 C 0.14842 0.06591 0.10131 0.0
C15 C 0.25757 0.15376 0.00728 0.0
C16 C 0.0359 0.05214 0.92069 0.0
C17 C 0.96887 0.1627 0.02625 0.0
C18 C 0.92581 0.94703 -0.00088 0.0
O19 O 0.29572 0.97585 0.0194 0.0
O20 O 0.17293 0.95284 0.00223 0.0
O21 O 0.59064 0.56072 0.60869 0.0
Mg22 Mg 0.67103 0.56454 0.56652 0.0
O23 O 0.5097 0.50663 0.56608 0.0
Mg24 Mg 0.5424 0.52221 0.50397 0.0
O25 O 0.62584 0.60632 0.52202 0.0
O26 O 0.7206 0.64944 0.56238 0.0
O27 O 0.57851 0.54487 0.44257 0.0
O28 O 0.44471 0.59435 0.50333 0.0
Mg29 Mg 0.46588 0.47618 0.44298 0.0
O30 O 0.45503 0.43388 0.48985 0.0
O31 O 0.56207 0.4527 0.4096 0.0
O32 O 0.403 0.56172 0.44407 0.0
O33 O 0.3912 0.40416 0.43352 0.0
C34 C 0.7029 0.43897 0.52175 0.0
C35 C 0.53015 0.52738 0.60065 0.0
C36 C 0.67388 0.65243 0.5333 0.0
C37 C 0.59036 0.50718 0.41231 0.0
C38 C 0.40069 0.60069 0.47441 0.0
C39 C 0.40633 0.39629 0.46848 0.0
O40 O 0.73 0.48021 0.54817 0.0
O41 O 0.6394 0.44797 0.50365 0.0
C42 C 0.04286 0.9723 0.26027 0.0
C43 C 0.05112 0.03378 0.25176 0.0
C44 C 0.02764 0.96195 0.29733 0.0
C45 C 0.02185 0.01299 0.32665 0.0
C46 C 0.02932 0.07467 0.31767 0.0
C47 C 0.04331 0.08492 0.28047 0.0
C48 C 0.01091 0.00208 0.36666 0.0
C49 C 0.04851 0.95231 0.38157 0.0
C50 C 0.04152 0.94346 0.41997 0.0
C51 C 0.99753 0.98606 0.4438 0.0
C52 C 0.96101 0.03633 0.4293 0.0
C53 C 0.96636 0.04342 0.39081 0.0
C54 C 0.92337 0.08609 0.45438 0.0
C55 C 0.84254 0.08779 0.45524 0.0
C56 C 0.96768 0.13808 0.47145 0.0
C57 C 0.93137 0.19271 0.4875 0.0
C58 C 0.85017 0.19604 0.48651 0.0
C59 C 0.08369 0.89145 0.4351 0.0
C60 C 0.08945 0.83287 0.41221 0.0
C61 C 0.12249 0.90084 0.47124 0.0
C62 C 0.16924 0.85359 0.48326 0.0
C63 C 0.17843 0.79642 0.45923 0.0
C64 C 0.13662 0.78615 0.42399 0.0
C65 C 0.80608 0.14245 0.47136 0.0
H66 H 0.04902 0.93233 0.23829 0.0
H67 H 0.02099 0.91394 0.30303 0.0
H68 H 0.02684 0.11512 0.33956 0.0
H69 H 0.05063 0.13266 0.27435 0.0
H70 H 0.08603 0.92185 0.36365 0.0
H71 H 0.93701 0.08237 0.38005 0.0
H72 H 0.99204 0.98042 0.47347 0.0
H73 H 0.80774 0.04816 0.44164 0.0
H74 H 0.03024 0.13768 0.4703 0.0
H75 H 0.9668 0.23356 0.49837 0.0
H76 H 0.05888 0.82355 0.38463 0.0
H77 H 0.11918 0.94544 0.48963 0.0
H78 H 0.74341 0.14385 0.47047 0.0
H79 H 0.1424 0.74265 0.40478 0.0
H80 H 0.19924 0.86223 0.51099 0.0
C81 C 0.03952 0.10667 0.74332 0.0
C82 C 0.0362 0.04852 0.75701 0.0
C83 C 0.03155 0.10953 0.70418 0.0
C84 C 0.02115 0.05413 0.67799 0.0
C85 C 0.01931 -0.00418 0.69191 0.0
C86 C 0.02638 -0.00689 0.73108 0.0
C87 C 0.01405 0.05706 0.63629 0.0
C88 C 0.05977 0.09974 0.62009 0.0
C89 C 0.05669 0.10065 0.58056 0.0
C90 C 1.00676 0.05922 0.55693 0.0
C91 C 0.96058 0.01674 0.57261 0.0
C92 C 0.96416 0.01573 0.6122 0.0
C93 C 0.91277 0.96973 0.54773 0.0
C94 C 0.84103 0.98592 0.53196 0.0
C95 C 0.93605 0.90685 0.5428 0.0
C96 C 0.88575 0.85987 0.52503 0.0
C97 C 0.81086 0.87493 0.51225 0.0
C98 C 0.10992 0.1419 0.5639 0.0
C99 C 0.11497 0.20636 0.57781 0.0
C100 C 0.15845 0.11627 0.53511 0.0
C101 C 0.21156 0.15457 0.52046 0.0
C102 C 0.21587 0.21934 0.53384 0.0
C103 C 0.16741 0.24489 0.56277 0.0
C104 C 0.7901 0.93864 0.51434 0.0
H105 H 0.04615 0.14999 0.76298 0.0
H106 H 0.03227 0.15527 0.69452 0.0
H107 H 0.01313 0.95216 0.67257 0.0
H108 H 0.02406 0.94773 0.74118 0.0
H109 H 0.10072 0.13034 0.63795 0.0
H110 H 0.92813 0.98248 0.62406 0.0
H111 H 1.00526 0.05909 0.52639 0.0
H112 H 0.82271 0.03455 0.53528 0.0
H113 H 0.99163 0.89379 0.55452 0.0
H114 H 0.90333 0.81127 0.52412 0.0
H115 H 0.07784 0.22693 0.60002 0.0
H116 H 0.15628 0.06639 0.52447 0.0
H117 H 0.73303 0.95152 0.50441 0.0
H118 H 0.16924 0.29479 0.57331 0.0
H119 H 0.24945 0.13348 0.49875 0.0
C120 C 0.4066 0.45024 0.7657 0.0
C121 C 0.4711 0.4464 0.74289 0.0
C122 C 0.41589 0.44655 0.80477 0.0
C123 C 0.49021 0.44076 0.82189 0.0
C124 C 0.55389 0.4327 0.79826 0.0
C125 C 0.54425 0.43515 0.7591 0.0
C126 C 0.5026 0.45169 0.86428 0.0
C127 C 0.56199 0.42123 0.88293 0.0
C128 C 0.58028 0.43832 0.92228 0.0
C129 C 0.53787 0.48665 0.94279 0.0
C130 C 0.47758 0.51644 0.92474 0.0
C131 C 0.46007 0.49852 0.88579 0.0
C132 C 0.4378 0.57123 0.94498 0.0
C133 C 0.35658 0.57406 0.94369 0.0
C134 C 0.48109 0.62417 0.96152 0.0
C135 C 0.44394 0.67979 0.97535 0.0
C136 C 0.36263 0.68344 0.9732 0.0
C137 C 0.64498 0.40699 0.94148 0.0
C138 C 0.65946 0.34259 0.93074 0.0
C139 C 0.69326 0.44099 0.97042 0.0
C140 C 0.75415 0.41126 0.98805 0.0
C141 C 0.76865 0.34735 0.97663 0.0
C142 C 0.72095 0.31332 0.9479 0.0
C143 C 0.31926 0.62969 0.95774 0.0
H144 H 0.34969 0.459 0.75364 0.0
H145 H 0.36524 0.45136 0.82187 0.0
H146 H 0.61207 0.42893 0.81022 0.0
H147 H 0.59489 0.4328 0.74196 0.0
H148 H 0.59555 0.38548 0.86649 0.0
H149 H 0.41652 0.5246 0.87177 0.0
H150 H 0.55145 0.50138 0.97283 0.0
H151 H 0.32215 0.5337 0.93087 0.0
H152 H 0.54381 0.62345 0.96213 0.0
H153 H 0.47915 0.72076 0.9862 0.0
H154 H 0.6228 0.31438 0.90932 0.0
H155 H 0.68492 0.49081 0.9791 0.0
H156 H 0.25661 0.63111 0.95586 0.0
H157 H 0.73072 0.26365 0.9391 0.0
H158 H 0.79035 0.4382 0.01027 0.0
C159 C 0.58284 0.62474 0.24708 0.0
C160 C 0.57767 0.56526 0.25915 0.0
C161 C 0.56588 0.63187 0.20893 0.0
C162 C 0.54383 0.5796 0.1819 0.0
C163 C 0.53589 0.5206 0.1944 0.0
C164 C 0.55194 0.51367 0.23259 0.0
C165 C 0.53571 0.58544 0.14046 0.0
C166 C 0.5884 0.62321 0.12451 0.0
C167 C 0.58782 0.62483 0.085 0.0
C168 C 0.53445 0.5869 0.06099 0.0
C169 C 0.48066 0.54944 0.07638 0.0
C170 C 0.48071 0.54952 0.11609 0.0
C171 C 0.43138 0.50377 0.05097 0.0
C172 C 0.35038 0.50762 0.0506 0.0
C173 C 0.46594 0.45182 0.03012 0.0
C174 C 0.42052 0.40238 0.01113 0.0
C175 C 0.33911 0.40408 0.01211 0.0
C176 C 0.6453 0.66478 0.06933 0.0
C177 C 0.66299 0.72537 0.08843 0.0
C178 C 0.68494 0.64228 0.03637 0.0
C179 C 0.74165 0.67955 0.02306 0.0
C180 C 0.75953 0.73986 0.04252 0.0
C181 C 0.71965 0.76232 0.07527 0.0
C182 C 0.30455 0.45845 0.031 0.0
H183 H 0.60141 0.66557 0.26696 0.0
H184 H 0.57115 0.6783 0.2005 0.0
H185 H 0.51963 0.47917 0.17452 0.0
H186 H 0.54444 0.46762 0.24126 0.0
H187 H 0.63293 0.6492 0.14272 0.0
H188 H 0.43993 0.51954 0.12772 0.0
H189 H 0.53484 0.5861 0.03039 0.0
H190 H 0.32272 0.5475 0.06662 0.0
H191 H 0.52841 0.44756 0.03057 0.0
H192 H 0.44997 0.36085 -0.00173 0.0
H193 H 0.63252 0.74452 0.11349 0.0
H194 H 0.67316 0.59555 0.02128 0.0
H195 H 0.2422 0.46152 0.0323 0.0
H196 H 0.73113 0.8092 0.09029 0.0
H197 H 0.77171 0.66122 -0.00228 0.0
C198 C 0.21564 0.26291 0.02285 0.0
C199 C 0.24673 0.21653 0.99596 0.0
C200 C 0.23881 0.32611 0.02514 0.0
C201 C 0.29312 0.34496 0.0002 0.0
H202 H 0.18128 0.24928 0.04534 0.0
H203 H 0.22067 0.35855 0.04928 0.0
S204 S 0.37101 0.24366 0.91715 0.0
N205 N 0.32104 0.1948 0.9392 0.0
N206 N 0.36053 0.31433 0.94158 0.0
C207 C 0.31415 0.30036 0.96936 0.0
C208 C 0.29203 0.23582 0.96773 0.0
C209 C 0.23858 0.82869 0.96823 0.0
C210 C 0.26513 0.869 0.00092 0.0
C211 C 0.268 0.76746 0.96013 0.0
C212 C 0.3241 0.74453 0.98473 0.0
H213 H 0.19786 0.84554 0.94793 0.0
H214 H 0.24924 0.73897 0.93362 0.0
S215 S 0.40122 0.82804 0.07749 0.0
N216 N 0.34353 0.87942 0.06021 0.0
N217 N 0.39677 0.76417 0.04554 0.0
C218 C 0.34671 0.78306 0.01879 0.0
C219 C 0.31769 0.84532 0.02675 0.0
C220 C 0.91527 0.86427 0.04159 0.0
C221 C 0.9002 0.88418 0.00589 0.0
C222 C 0.87294 0.81418 0.05246 0.0
C223 C 0.81529 0.78209 0.02773 0.0
H224 H 0.95526 0.89061 0.06231 0.0
H225 H 0.88238 0.80264 0.08113 0.0
S226 S 0.76255 0.81105 0.92913 0.0
N227 N 0.83039 0.86411 0.94434 0.0
N228 N 0.75124 0.76989 0.96466 0.0
C229 C 0.80474 0.79824 0.99079 0.0
C230 C 0.84716 0.84943 0.97991 0.0
C231 C 0.94678 0.24885 0.98671 0.0
C232 C 0.93425 0.22398 0.02076 0.0
C233 C 0.8957 0.29276 0.97376 0.0
C234 C 0.83181 0.3144 0.9949 0.0
H235 H 0.99176 0.22999 0.96811 0.0
H236 H 0.9034 0.30692 0.94593 0.0
S237 S 0.78139 0.2726 0.08888 0.0
N238 N 0.8588 0.23026 0.07754 0.0
N239 N 0.7641 0.31409 0.05349 0.0
C240 C 0.82318 0.29488 0.03069 0.0
C241 C 0.87433 0.24945 0.04363 0.0
C242 C 0.73534 0.70976 0.48683 0.0
C243 C 0.67879 0.70837 0.514 0.0
C244 C 0.77147 0.76662 0.48198 0.0
C245 C 0.75226 0.82348 0.50441 0.0
H246 H 0.75829 0.66611 0.47267 0.0
H247 H 0.82049 0.76504 0.4638 0.0
S248 S 0.5968 0.84503 0.57397 0.0
N249 N 0.59648 0.76863 0.55892 0.0
N250 N 0.66391 0.8757 0.55007 0.0
C251 C 0.68834 0.82341 0.52773 0.0
C252 C 0.65178 0.76554 0.53257 0.0
C253 C 0.72263 0.33746 0.47955 0.0
C254 C 0.74267 0.37789 0.51336 0.0
C255 C 0.75672 0.27834 0.47154 0.0
C256 C 0.81191 0.25717 0.49708 0.0
H257 H 0.68055 0.35164 0.45891 0.0
H258 H 0.74071 0.24942 0.44475 0.0
S259 S 0.88163 0.34279 0.59054 0.0
N260 N 0.8199 0.39134 0.57327 0.0
N261 N 0.88311 0.27967 0.55809 0.0
C262 C 0.83205 0.29658 0.53114 0.0
C263 C 0.79766 0.35703 0.53931 0.0
C264 C 0.36362 0.34685 0.52426 0.0
C265 C 0.36376 0.34675 0.4845 0.0
C266 C 0.31666 0.30469 0.54008 0.0
C267 C 0.26869 0.2608 0.51669 0.0
H268 H 0.39821 0.38085 0.5434 0.0
H269 H 0.31727 0.30688 0.57085 0.0
S270 S 0.24995 0.23913 0.41094 0.0
N271 N 0.31416 0.29655 0.42203 0.0
N272 N 0.2248 0.21889 0.45202 0.0
C273 C 0.2698 0.259 0.47695 0.0
C274 C 0.31764 0.30157 0.4608 0.0
C275 C 0.26651 0.63664 0.4648 0.0
C276 C 0.34389 0.6515 0.47611 0.0
C277 C 0.21223 0.68403 0.46189 0.0
C278 C 0.23384 0.74804 0.46929 0.0
H279 H 0.24814 0.58794 0.45746 0.0
H280 H 0.15336 0.67038 0.45252 0.0
S281 S 0.4304 0.81086 0.50008 0.0
N282 N 0.43971 0.73363 0.49614 0.0
N283 N 0.33854 0.82347 0.489 0.0
C284 C 0.31091 0.76341 0.48185 0.0
C285 C 0.36585 0.71487 0.48557 0.0
C286 C 0.17415 0.04009 0.167 0.0
C287 C 0.12239 0.06182 0.14005 0.0
C288 C 0.1502 0.03098 0.20308 0.0
C289 C 0.07417 0.04433 0.21365 0.0
H290 H 0.23315 0.02836 0.15985 0.0
H291 H 0.19137 0.01331 0.22287 0.0
S292 S 0.9172 0.10501 0.15475 0.0
N293 N 0.99192 0.09784 0.12692 0.0
N294 N 0.94769 0.08204 0.19546 0.0
C295 C 0.0222 0.06741 0.18756 0.0
C296 C 0.04612 0.07574 0.1505 0.0
C297 C 0.10257 0.07022 0.86168 0.0
C298 C 0.03829 0.04777 0.87892 0.0
C299 C 0.10197 0.07017 0.82198 0.0
C300 C 0.03796 0.04612 0.79848 0.0
H301 H 0.15239 0.08961 0.87904 0.0
H302 H 0.1516 0.08912 0.80957 0.0
S303 S 0.8577 0.97871 0.82967 0.0
N304 N 0.91035 -0.00093 0.86951 0.0
N305 N 0.91012 -0.0021 0.79503 0.0
C306 C 0.97453 0.02197 0.81535 0.0
C307 C 0.97449 0.02306 0.85559 0.0
C308 C 0.49441 0.44099 0.6367 0.0
C309 C 0.49167 0.50528 0.63263 0.0
C310 C 0.48251 0.42095 0.67216 0.0
C311 C 0.46553 0.4645 0.70412 0.0
H312 H 0.5125 0.40682 0.61334 0.0
H313 H 0.4908 0.3718 0.67516 0.0
S314 S 0.44376 0.6368 0.70692 0.0
N315 N 0.46567 0.61143 0.66248 0.0
N316 N 0.44031 0.57358 0.72868 0.0
C317 C 0.45653 0.52804 0.69949 0.0
C318 C 0.47032 0.54852 0.66377 0.0
C319 C 0.57249 0.586 0.3674 0.0
C320 C 0.60819 0.53078 0.37643 0.0
C321 C 0.56641 0.59876 0.32956 0.0
C322 C 0.5964 0.55699 0.29958 0.0
H323 H 0.54324 0.61674 0.38907 0.0
H324 H 0.53357 0.6394 0.3235 0.0
S325 S 0.70983 0.4133 0.30993 0.0
N326 N 0.68319 0.43891 0.35357 0.0
N327 N 0.67474 0.46406 0.28271 0.0
C328 C 0.63891 0.50502 0.30898 0.0
C329 C 0.64417 0.49169 0.34736 0.0
loop_
_geom_bond_atom_site_label_1
_geom_bond_atom_site_label_2
_geom_bond_distance
_geom_bond_site_symmetry_2
_ccdc_geom_bond_type
O0 Mg1 1.990 . S
O0 C14 1.253 . S
Mg1 O0 1.990 . S
Mg1 O4 2.180 . S
Mg1 O5 2.117 . S
Mg1 O19 2.030 1_545 S
O2 Mg3 2.072 1_554 S
O2 C14 1.260 . S
Mg3 O2 2.072 1_556 S
Mg3 O4 2.099 1_556 S
Mg3 O6 2.079 . S
Mg3 O7 2.072 1_456 S
Mg3 O9 2.099 1_445 S
Mg3 O20 2.079 1_545 S
O4 Mg1 2.180 . S
O4 Mg3 2.099 1_554 S
O4 C15 1.279 . S
O5 Mg1 2.117 . S
O5 C15 1.250 . S
O6 Mg3 2.079 . S
O6 C16 1.264 . S
O7 Mg3 2.072 1_654 S
O7 C17 1.260 1_554 S
Mg8 O9 2.180 1_545 S
Mg8 O10 2.030 . S
Mg8 O11 1.990 . S
Mg8 O12 2.117 1_545 S
O9 Mg3 2.099 1_665 S
O9 Mg8 2.180 1_565 S
O9 C18 1.281 . S
O10 Mg8 2.030 . S
O10 C16 1.248 1_655 S
O11 Mg8 1.990 . S
O11 C17 1.253 . S
O12 Mg8 2.117 1_565 S
O12 C18 1.251 . S
C13 O19 1.248 . S
C13 O20 1.264 1_554 S
C14 O0 1.253 . S
C14 O2 1.260 . S
C15 O4 1.279 . S
C15 O5 1.250 . S
C16 O6 1.264 . S
C16 O10 1.248 1_455 S
C17 O7 1.260 1_556 S
C17 O11 1.253 . S
C18 O9 1.281 . S
C18 O12 1.251 . S
O19 Mg1 2.030 1_565 S
O19 C13 1.248 . S
O20 Mg3 2.079 1_565 S
O20 C13 1.264 1_556 S
O21 Mg22 1.990 . S
O21 C35 1.253 . S
Mg22 O21 1.990 . S
Mg22 O25 2.180 . S
Mg22 O26 2.117 . S
Mg22 O40 2.030 . S
O23 Mg24 2.072 . S
O23 C35 1.260 . S
Mg24 O23 2.072 . S
Mg24 O25 2.099 . S
Mg24 O27 2.079 . S
Mg24 O28 2.072 . S
Mg24 O30 2.099 . S
Mg24 O41 2.079 . S
O25 Mg22 2.180 . S
O25 Mg24 2.099 . S
O25 C36 1.279 . S
O26 Mg22 2.117 . S
O26 C36 1.250 . S
O27 Mg24 2.079 . S
O27 C37 1.264 . S
O28 Mg24 2.072 . S
O28 C38 1.260 . S
Mg29 O30 2.180 . S
Mg29 O31 2.030 . S
Mg29 O32 1.990 . S
Mg29 O33 2.117 . S
O30 Mg24 2.099 . S
O30 Mg29 2.180 . S
O30 C39 1.279 . S
O31 Mg29 2.030 . S
O31 C37 1.248 . S
O32 Mg29 1.990 . S
O32 C38 1.253 . S
O33 Mg29 2.117 . S
O33 C39 1.250 . S
C34 O40 1.248 . S
C34 O41 1.264 . S
C35 O21 1.253 . S
C35 O23 1.260 . S
C36 O25 1.279 . S
C36 O26 1.250 . S
C37 O27 1.264 . S
C37 O31 1.248 . S
C38 O28 1.260 . S
C38 O32 1.253 . S
C39 O30 1.279 . S
C39 O33 1.250 . S
O40 Mg22 2.030 . S
O40 C34 1.248 . S
O41 Mg24 2.079 . S
O41 C34 1.264 . S
C42 C43 1.386 . S
C42 C44 1.397 . S
C42 H66 0.931 . S
C43 C42 1.386 . S
C43 C47 1.397 1_565 S
C44 C42 1.397 . S
C44 C45 1.384 . S
C44 H67 0.930 . S
C45 C44 1.384 . S
C45 C46 1.377 1_565 S
C45 C48 1.481 . S
C46 C45 1.377 1_545 S
C46 C47 1.389 . S
C46 H68 0.929 . S
C47 C43 1.397 1_545 S
C47 C46 1.389 . S
C47 H69 0.931 . S
C48 C45 1.481 . S
C48 C49 1.387 . S
C48 C53 1.390 1_565 S
C49 C48 1.387 . S
C49 C50 1.401 . S
C49 H70 0.930 . S
C50 C49 1.401 . S
C50 C51 1.376 1_565 S
C50 C59 1.511 . S
C51 C50 1.376 1_545 S
C51 C52 1.392 . S
C51 H72 0.931 . S
C52 C51 1.392 . S
C52 C53 1.361 . S
C52 C54 1.500 1_455 S
C53 C48 1.390 1_545 S
C53 C52 1.361 . S
C53 H71 0.931 1_455 S
C54 C52 1.500 1_655 S
C54 C55 1.371 . S
C54 C56 1.365 . S
C55 C54 1.371 . S
C55 C65 1.386 . S
C55 H73 0.931 . S
C56 C54 1.365 . S
C56 C57 1.409 . S
C56 H74 0.929 . S
C57 C56 1.409 . S
C57 C58 1.380 . S
C57 H75 0.930 . S
C58 C57 1.380 . S
C58 C65 1.357 . S
C59 C50 1.511 . S
C59 C60 1.341 . S
C59 C61 1.371 . S
C60 C59 1.341 . S
C60 C64 1.394 . S
C60 H76 0.930 . S
C61 C59 1.371 . S
C61 C62 1.392 . S
C61 H77 0.931 . S
C62 C61 1.392 . S
C62 C63 1.331 . S
C62 H80 0.932 . S
C63 C62 1.331 . S
C63 C64 1.336 . S
C64 C60 1.394 . S
C64 C63 1.336 . S
C64 H79 0.929 . S
C65 C55 1.386 . S
C65 C58 1.357 . S
C65 H78 0.928 . S
H66 C42 0.931 . S
H67 C44 0.930 . S
H68 C46 0.929 . S
H69 C47 0.931 . S
H70 C49 0.930 . S
H71 C53 0.931 1_655 S
H72 C51 0.931 . S
H73 C55 0.931 . S
H74 C56 0.929 . S
H75 C57 0.930 . S
H76 C60 0.930 . S
H77 C61 0.931 . S
H78 C65 0.928 . S
H79 C64 0.929 . S
H80 C62 0.932 . S
C81 C82 1.386 . S
C81 C83 1.397 . S
C81 H105 0.931 . S
C82 C81 1.386 . S
C82 C86 1.397 . S
C83 C81 1.397 . S
C83 C84 1.384 . S
C83 H106 0.930 . S
C84 C83 1.384 . S
C84 C85 1.377 . S
C84 C87 1.481 . S
C85 C84 1.377 . S
C85 C86 1.389 . S
C85 H107 0.929 1_545 S
C86 C82 1.397 . S
C86 C85 1.389 . S
C86 H108 0.931 1_545 S
C87 C84 1.481 . S
C87 C88 1.387 . S
C87 C92 1.390 1_455 S
C88 C87 1.387 . S
C88 C89 1.401 . S
C88 H109 0.930 . S
C89 C88 1.401 . S
C89 C90 1.376 1_455 S
C89 C98 1.511 . S
C90 C89 1.376 1_655 S
C90 C91 1.392 . S
C90 H111 0.931 . S
C91 C90 1.392 . S
C91 C92 1.361 . S
C91 C93 1.500 1_545 S
C92 C87 1.390 1_655 S
C92 C91 1.361 . S
C92 H110 0.931 . S
C93 C91 1.500 1_565 S
C93 C94 1.371 . S
C93 C95 1.365 . S
C94 C93 1.371 . S
C94 C104 1.386 . S
C94 H112 0.931 1_565 S
C95 C93 1.365 . S
C95 C96 1.409 . S
C95 H113 0.929 . S
C96 C95 1.409 . S
C96 C97 1.380 . S
C96 H114 0.930 . S
C97 C96 1.380 . S
C97 C104 1.357 . S
C98 C89 1.511 . S
C98 C99 1.341 . S
C98 C100 1.371 . S
C99 C98 1.341 . S
C99 C103 1.394 . S
C99 H115 0.930 . S
C100 C98 1.371 . S
C100 C101 1.392 . S
C100 H116 0.931 . S
C101 C100 1.392 . S
C101 C102 1.331 . S
C101 H119 0.932 . S
C102 C101 1.331 . S
C102 C103 1.336 . S
C103 C99 1.394 . S
C103 C102 1.336 . S
C103 H118 0.929 . S
C104 C94 1.386 . S
C104 C97 1.357 . S
C104 H117 0.928 . S
H105 C81 0.931 . S
H106 C83 0.930 . S
H107 C85 0.929 1_565 S
H108 C86 0.931 1_565 S
H109 C88 0.930 . S
H110 C92 0.931 . S
H111 C90 0.931 . S
H112 C94 0.931 1_545 S
H113 C95 0.929 . S
H114 C96 0.930 . S
H115 C99 0.930 . S
H116 C100 0.931 . S
H117 C104 0.928 . S
H118 C103 0.929 . S
H119 C101 0.932 . S
C120 C121 1.386 . S
C120 C122 1.397 . S
C120 H144 0.931 . S
C121 C120 1.386 . S
C121 C125 1.397 . S
C122 C120 1.397 . S
C122 C123 1.384 . S
C122 H145 0.930 . S
C123 C122 1.384 . S
C123 C124 1.377 . S
C123 C126 1.481 . S
C124 C123 1.377 . S
C124 C125 1.389 . S
C124 H146 0.929 . S
C125 C121 1.397 . S
C125 C124 1.389 . S
C125 H147 0.931 . S
C126 C123 1.481 . S
C126 C127 1.387 . S
C126 C131 1.390 . S
C127 C126 1.387 . S
C127 C128 1.401 . S
C127 H148 0.930 . S
C128 C127 1.401 . S
C128 C129 1.376 . S
C128 C137 1.511 . S
C129 C128 1.376 . S
C129 C130 1.392 . S
C129 H150 0.931 . S
C130 C129 1.392 . S
C130 C131 1.361 . S
C130 C132 1.500 . S
C131 C126 1.390 . S
C131 C130 1.361 . S
C131 H149 0.931 . S
C132 C130 1.500 . S
C132 C133 1.371 . S
C132 C134 1.365 . S
C133 C132 1.371 . S
C133 C143 1.386 1_556 S
C133 H151 0.932 1_556 S
C134 C132 1.365 . S
C134 C135 1.409 . S
C134 H152 0.929 . S
C135 C134 1.409 . S
C135 C136 1.380 . S
C135 H153 0.930 . S
C136 C135 1.380 . S
C136 C143 1.357 1_556 S
C137 C128 1.511 . S
C137 C138 1.341 . S
C137 C139 1.371 . S
C138 C137 1.341 . S
C138 C142 1.394 . S
C138 H154 0.930 . S
C139 C137 1.371 . S
C139 C140 1.392 1_556 S
C139 H155 0.931 1_556 S
C140 C139 1.392 1_554 S
C140 C141 1.331 1_554 S
C140 H158 0.932 . S
C141 C140 1.331 1_556 S
C141 C142 1.336 . S
C142 C138 1.394 . S
C142 C141 1.336 . S
C142 H157 0.929 . S
C143 C133 1.386 1_554 S
C143 C136 1.357 1_554 S
C143 H156 0.928 . S
H144 C120 0.931 . S
H145 C122 0.930 . S
H146 C124 0.929 . S
H147 C125 0.931 . S
H148 C127 0.930 . S
H149 C131 0.931 . S
H150 C129 0.931 . S
H151 C133 0.932 1_554 S
H152 C134 0.929 . S
H153 C135 0.930 . S
H154 C138 0.930 . S
H155 C139 0.931 1_554 S
H156 C143 0.928 . S
H157 C142 0.929 . S
H158 C140 0.932 . S
C159 C160 1.386 . S
C159 C161 1.397 . S
C159 H183 0.931 . S
C160 C159 1.386 . S
C160 C164 1.397 . S
C161 C159 1.397 . S
C161 C162 1.384 . S
C161 H184 0.930 . S
C162 C161 1.384 . S
C162 C163 1.377 . S
C162 C165 1.481 . S
C163 C162 1.377 . S
C163 C164 1.389 . S
C163 H185 0.929 . S
C164 C160 1.397 . S
C164 C163 1.389 . S
C164 H186 0.931 . S
C165 C162 1.481 . S
C165 C166 1.387 . S
C165 C170 1.390 . S
C166 C165 1.387 . S
C166 C167 1.401 . S
C166 H187 0.930 . S
C167 C166 1.401 . S
C167 C168 1.376 . S
C167 C176 1.511 . S
C168 C167 1.376 . S
C168 C169 1.392 . S
C168 H189 0.931 . S
C169 C168 1.392 . S
C169 C170 1.361 . S
C169 C171 1.500 . S
C170 C165 1.390 . S
C170 C169 1.361 . S
C170 H188 0.931 . S
C171 C169 1.500 . S
C171 C172 1.371 . S
C171 C173 1.365 . S
C172 C171 1.371 . S
C172 C182 1.386 1_554 S
C172 H190 0.931 . S
C173 C171 1.365 . S
C173 C174 1.409 . S
C173 H191 0.929 . S
C174 C173 1.409 . S
C174 C175 1.380 . S
C174 H192 0.930 . S
C175 C174 1.380 . S
C175 C182 1.357 1_554 S
C176 C167 1.511 . S
C176 C177 1.341 . S
C176 C178 1.371 . S
C177 C176 1.341 . S
C177 C181 1.394 . S
C177 H193 0.930 . S
C178 C176 1.371 . S
C178 C179 1.394 . S
C178 H194 0.931 . S
C179 C178 1.394 . S
C179 C180 1.332 . S
C179 H197 0.929 1_554 S
C180 C179 1.332 . S
C180 C181 1.336 . S
C181 C177 1.394 . S
C181 C180 1.336 . S
C181 H196 0.929 . S
C182 C172 1.386 1_556 S
C182 C175 1.357 1_556 S
C182 H195 0.928 . S
H183 C159 0.931 . S
H184 C161 0.930 . S
H185 C163 0.929 . S
H186 C164 0.931 . S
H187 C166 0.930 . S
H188 C170 0.931 . S
H189 C168 0.931 . S
H190 C172 0.931 . S
H191 C173 0.929 . S
H192 C174 0.930 . S
H193 C177 0.930 . S
H194 C178 0.931 . S
H195 C182 0.928 . S
H196 C181 0.929 . S
H197 C179 0.929 1_556 S
C198 C199 1.369 1_556 S
C198 C200 1.419 . S
C198 H202 0.930 . S
C199 C198 1.369 1_554 S
C199 C208 1.429 . S
C200 C198 1.419 . S
C200 C201 1.358 1_556 S
C200 H203 0.929 . S
C201 C200 1.358 1_554 S
C201 C207 1.440 . S
H202 C198 0.930 . S
H203 C200 0.929 . S
S204 N205 1.613 . S
S204 N206 1.610 . S
N205 S204 1.613 . S
N205 C208 1.350 . S
N206 S204 1.610 . S
N206 C207 1.351 . S
C207 C201 1.440 . S
C207 N206 1.351 . S
C207 C208 1.434 . S
C208 C199 1.429 . S
C208 N205 1.350 . S
C208 C207 1.434 . S
C209 C210 1.369 . S
C209 C211 1.419 . S
C209 H213 0.930 . S
C210 C209 1.369 . S
C210 C219 1.429 1_554 S
C211 C209 1.419 . S
C211 C212 1.363 . S
C211 H214 0.929 . S
C212 C211 1.363 . S
C212 C218 1.428 1_554 S
H213 C209 0.930 . S
H214 C211 0.929 . S
S215 N216 1.613 . S
S215 N217 1.610 . S
N216 S215 1.613 . S
N216 C219 1.350 . S
N217 S215 1.610 . S
N217 C218 1.351 . S
C218 C212 1.428 1_556 S
C218 N217 1.351 . S
C218 C219 1.434 . S
C219 C210 1.429 1_556 S
C219 N216 1.350 . S
C219 C218 1.434 . S
C220 C221 1.369 1_556 S
C220 C222 1.419 . S
C220 H224 0.930 . S
C221 C220 1.369 1_554 S
C221 C230 1.429 . S
C222 C220 1.419 . S
C222 C223 1.363 1_556 S
C222 H225 0.929 . S
C223 C222 1.363 1_554 S
C223 C229 1.428 . S
H224 C220 0.930 . S
H225 C222 0.929 . S
S226 N227 1.613 . S
S226 N228 1.610 . S
N227 S226 1.613 . S
N227 C230 1.350 . S
N228 S226 1.610 . S
N228 C229 1.351 . S
C229 C223 1.428 . S
C229 N228 1.351 . S
C229 C230 1.434 . S
C230 C221 1.429 . S
C230 N227 1.350 . S
C230 C229 1.434 . S
C231 C232 1.372 1_556 S
C231 C233 1.419 . S
C231 H235 0.930 . S
C232 C231 1.372 1_554 S
C232 C241 1.426 . S
C233 C231 1.419 . S
C233 C234 1.387 . S
C233 H236 0.929 . S
C234 C233 1.387 . S
C234 C240 1.400 1_556 S
H235 C231 0.930 . S
H236 C233 0.929 . S
S237 N238 1.613 . S
S237 N239 1.610 . S
N238 S237 1.613 . S
N238 C241 1.350 . S
N239 S237 1.610 . S
N239 C240 1.351 . S
C240 C234 1.400 1_554 S
C240 N239 1.351 . S
C240 C241 1.434 . S
C241 C232 1.426 . S
C241 N238 1.350 . S
C241 C240 1.434 . S
C242 C243 1.369 . S
C242 C244 1.419 . S
C242 H246 0.930 . S
C243 C242 1.369 . S
C243 C252 1.429 . S
C244 C242 1.419 . S
C244 C245 1.363 . S
C244 H247 0.929 . S
C245 C244 1.363 . S
C245 C251 1.428 . S
H246 C242 0.930 . S
H247 C244 0.929 . S
S248 N249 1.613 . S
S248 N250 1.610 . S
N249 S248 1.613 . S
N249 C252 1.350 . S
N250 S248 1.610 . S
N250 C251 1.351 . S
C251 C245 1.428 . S
C251 N250 1.351 . S
C251 C252 1.434 . S
C252 C243 1.429 . S
C252 N249 1.350 . S
C252 C251 1.434 . S
C253 C254 1.369 . S
C253 C255 1.419 . S
C253 H257 0.930 . S
C254 C253 1.369 . S
C254 C263 1.429 . S
C255 C253 1.419 . S
C255 C256 1.363 . S
C255 H258 0.929 . S
C256 C255 1.363 . S
C256 C262 1.428 . S
H257 C253 0.930 . S
H258 C255 0.929 . S
S259 N260 1.613 . S
S259 N261 1.610 . S
N260 S259 1.613 . S
N260 C263 1.350 . S
N261 S259 1.610 . S
N261 C262 1.351 . S
C262 C256 1.428 . S
C262 N261 1.351 . S
C262 C263 1.434 . S
C263 C254 1.429 . S
C263 N260 1.350 . S
C263 C262 1.434 . S
C264 C265 1.369 . S
C264 C266 1.419 . S
C264 H268 0.930 . S
C265 C264 1.369 . S
C265 C274 1.429 . S
C266 C264 1.419 . S
C266 C267 1.363 . S
C266 H269 0.929 . S
C267 C266 1.363 . S
C267 C273 1.428 . S
H268 C264 0.930 . S
H269 C266 0.929 . S
S270 N271 1.613 . S
S270 N272 1.610 . S
N271 S270 1.613 . S
N271 C274 1.350 . S
N272 S270 1.610 . S
N272 C273 1.351 . S
C273 C267 1.428 . S
C273 N272 1.351 . S
C273 C274 1.434 . S
C274 C265 1.429 . S
C274 N271 1.350 . S
C274 C273 1.434 . S
C275 C276 1.369 . S
C275 C277 1.419 . S
C275 H279 0.930 . S
C276 C275 1.369 . S
C276 C285 1.429 . S
C277 C275 1.419 . S
C277 C278 1.363 . S
C277 H280 0.929 . S
C278 C277 1.363 . S
C278 C284 1.428 . S
H279 C275 0.930 . S
H280 C277 0.929 . S
S281 N282 1.613 . S
S281 N283 1.610 . S
N282 S281 1.613 . S
N282 C285 1.350 . S
N283 S281 1.610 . S
N283 C284 1.351 . S
C284 C278 1.428 . S
C284 N283 1.351 . S
C284 C285 1.434 . S
C285 C276 1.429 . S
C285 N282 1.350 . S
C285 C284 1.434 . S
C286 C287 1.369 1_565 S
C286 C288 1.419 . S
C286 H290 0.930 . S
C287 C286 1.369 1_545 S
C287 C296 1.429 . S
C288 C286 1.419 . S
C288 C289 1.363 . S
C288 H291 0.929 . S
C289 C288 1.363 . S
C289 C295 1.428 1_565 S
H290 C286 0.930 . S
H291 C288 0.929 . S
S292 N293 1.613 . S
S292 N294 1.610 . S
N293 S292 1.613 . S
N293 C296 1.350 . S
N294 S292 1.610 . S
N294 C295 1.351 . S
C295 C289 1.428 1_545 S
C295 N294 1.351 . S
C295 C296 1.434 . S
C296 C287 1.429 . S
C296 N293 1.350 . S
C296 C295 1.434 . S
C297 C298 1.369 . S
C297 C299 1.419 . S
C297 H301 0.930 . S
C298 C297 1.369 . S
C298 C307 1.429 1_455 S
C299 C297 1.419 . S
C299 C300 1.363 . S
C299 H302 0.929 . S
C300 C299 1.363 . S
C300 C306 1.428 1_455 S
H301 C297 0.930 . S
H302 C299 0.929 . S
S303 N304 1.613 . S
S303 N305 1.610 1_565 S
N304 S303 1.613 . S
N304 C307 1.350 1_565 S
N305 S303 1.610 1_545 S
N305 C306 1.351 . S
C306 C300 1.428 1_655 S
C306 N305 1.351 . S
C306 C307 1.434 . S
C307 C298 1.429 1_655 S
C307 N304 1.350 1_545 S
C307 C306 1.434 . S
C308 C309 1.369 . S
C308 C310 1.419 . S
C308 H312 0.930 . S
C309 C308 1.369 . S
C309 C318 1.429 . S
C310 C308 1.419 . S
C310 C311 1.363 . S
C310 H313 0.929 . S
C311 C310 1.363 . S
C311 C317 1.428 . S
H312 C308 0.930 . S
H313 C310 0.929 . S
S314 N315 1.613 . S
S314 N316 1.610 . S
N315 S314 1.613 . S
N315 C318 1.350 . S
N316 S314 1.610 . S
N316 C317 1.351 . S
C317 C311 1.428 . S
C317 N316 1.351 . S
C317 C318 1.434 . S
C318 C309 1.429 . S
C318 N315 1.350 . S
C318 C317 1.434 . S
C319 C320 1.369 . S
C319 C321 1.419 . S
C319 H323 0.930 . S
C320 C319 1.369 . S
C320 C329 1.429 . S
C321 C319 1.419 . S
C321 C322 1.363 . S
C321 H324 0.929 . S
C322 C321 1.363 . S
C322 C328 1.428 . S
H323 C319 0.930 . S
H324 C321 0.929 . S
S325 N326 1.613 . S
S325 N327 1.610 . S
N326 S325 1.613 . S
N326 C329 1.350 . S
N327 S325 1.610 . S
N327 C328 1.351 . S
C328 C322 1.428 . S
C328 N327 1.351 . S
C328 C329 1.434 . S
C329 C320 1.429 . S
C329 N326 1.350 . S
C329 C328 1.434 . S
C201 C175 1.553 . S
C199 C15 1.509 . S
C210 C13 1.614 . S
C212 C136 1.572 1_554 S
C221 C18 1.312 1_554 S
C223 C180 1.548 . S
C232 C17 1.424 1_554 S
C234 C141 1.472 . S
C243 C36 1.522 . S
C245 C97 1.559 . S
C254 C34 1.610 . S
C256 C58 1.579 . S
C267 C102 1.553 . S
C265 C39 1.302 . S
C278 C63 1.460 . S
C276 C38 1.429 . S
C287 C14 1.512 . S
C289 C43 1.561 . S
C298 C16 1.399 . S
C300 C82 1.456 . S
C311 C121 1.561 . S
C309 C35 1.513 . S
C320 C37 1.406 . S
C322 C160 1.457 . S
