# Generated by pormake.
# Topology tbo, (3,4)-cn, num edge types: 1
# Building blocks:
#     Node 0, Type 0, BuildingBlock: PAMTOO_clean_linker_0, # of connection points: 3
#     Node 1, Type 0, BuildingBlock: PAMTOO_clean_linker_0, # of connection points: 3
#     Node 2, Type 0, BuildingBlock: PAMTOO_clean_linker_0, # of connection points: 3
#     Node 3, Type 0, BuildingBlock: PAMTOO_clean_linker_0, # of connection points: 3
#     Node 4, Type 0, BuildingBlock: PAMTOO_clean_linker_0, # of connection points: 3
#     Node 5, Type 0, BuildingBlock: PAMTOO_clean_linker_0, # of connection points: 3
#     Node 6, Type 0, BuildingBlock: PAMTOO_clean_linker_0, # of connection points: 3
#     Node 7, Type 0, BuildingBlock: PAMTOO_clean_linker_0, # of connection points: 3
#     Node 8, Type 0, BuildingBlock: PAMTOO_clean_linker_0, # of connection points: 3
#     Node 9, Type 0, BuildingBlock: PAMTOO_clean_linker_0, # of connection points: 3
#     Node 10, Type 0, BuildingBlock: PAMTOO_clean_linker_0, # of connection points: 3
#     Node 11, Type 0, BuildingBlock: PAMTOO_clean_linker_0, # of connection points: 3
#     Node 12, Type 0, BuildingBlock: PAMTOO_clean_linker_0, # of connection points: 3
#     Node 13, Type 0, BuildingBlock: PAMTOO_clean_linker_0, # of connection points: 3
#     Node 14, Type 0, BuildingBlock: PAMTOO_clean_linker_0, # of connection points: 3
#     Node 15, Type 0, BuildingBlock: PAMTOO_clean_linker_0, # of connection points: 3
#     Node 16, Type 0, BuildingBlock: PAMTOO_clean_linker_0, # of connection points: 3
#     Node 17, Type 0, BuildingBlock: PAMTOO_clean_linker_0, # of connection points: 3
#     Node 18, Type 0, BuildingBlock: PAMTOO_clean_linker_0, # of connection points: 3
#     Node 19, Type 0, BuildingBlock: PAMTOO_clean_linker_0, # of connection points: 3
#     Node 20, Type 0, BuildingBlock: PAMTOO_clean_linker_0, # of connection points: 3
#     Node 21, Type 0, BuildingBlock: PAMTOO_clean_linker_0, # of connection points: 3
#     Node 22, Type 0, BuildingBlock: PAMTOO_clean_linker_0, # of connection points: 3
#     Node 23, Type 0, BuildingBlock: PAMTOO_clean_linker_0, # of connection points: 3
#     Node 24, Type 0, BuildingBlock: PAMTOO_clean_linker_0, # of connection points: 3
#     Node 25, Type 0, BuildingBlock: PAMTOO_clean_linker_0, # of connection points: 3
#     Node 26, Type 0, BuildingBlock: PAMTOO_clean_linker_0, # of connection points: 3
#     Node 27, Type 0, BuildingBlock: PAMTOO_clean_linker_0, # of connection points: 3
#     Node 28, Type 0, BuildingBlock: PAMTOO_clean_linker_0, # of connection points: 3
#     Node 29, Type 0, BuildingBlock: PAMTOO_clean_linker_0, # of connection points: 3
#     Node 30, Type 0, BuildingBlock: PAMTOO_clean_linker_0, # of connection points: 3
#     Node 31, Type 0, BuildingBlock: PAMTOO_clean_linker_0, # of connection points: 3
#     Node 32, Type 1, BuildingBlock: ESEHIV_clean_sbu_0, # of connection points: 4
#     Node 33, Type 1, BuildingBlock: ESEHIV_clean_sbu_0, # of connection points: 4
#     Node 34, Type 1, BuildingBlock: ESEHIV_clean_sbu_0, # of connection points: 4
#     Node 35, Type 1, BuildingBlock: ESEHIV_clean_sbu_0, # of connection points: 4
#     Node 36, Type 1, BuildingBlock: ESEHIV_clean_sbu_0, # of connection points: 4
#     Node 37, Type 1, BuildingBlock: ESEHIV_clean_sbu_0, # of connection points: 4
#     Node 38, Type 1, BuildingBlock: ESEHIV_clean_sbu_0, # of connection points: 4
#     Node 39, Type 1, BuildingBlock: ESEHIV_clean_sbu_0, # of connection points: 4
#     Node 40, Type 1, BuildingBlock: ESEHIV_clean_sbu_0, # of connection points: 4
#     Node 41, Type 1, BuildingBlock: ESEHIV_clean_sbu_0, # of connection points: 4
#     Node 42, Type 1, BuildingBlock: ESEHIV_clean_sbu_0, # of connection points: 4
#     Node 43, Type 1, BuildingBlock: ESEHIV_clean_sbu_0, # of connection points: 4
#     Node 44, Type 1, BuildingBlock: ESEHIV_clean_sbu_0, # of connection points: 4
#     Node 45, Type 1, BuildingBlock: ESEHIV_clean_sbu_0, # of connection points: 4
#     Node 46, Type 1, BuildingBlock: ESEHIV_clean_sbu_0, # of connection points: 4
#     Node 47, Type 1, BuildingBlock: ESEHIV_clean_sbu_0, # of connection points: 4
#     Node 48, Type 1, BuildingBlock: ESEHIV_clean_sbu_0, # of connection points: 4
#     Node 49, Type 1, BuildingBlock: ESEHIV_clean_sbu_0, # of connection points: 4
#     Node 50, Type 1, BuildingBlock: ESEHIV_clean_sbu_0, # of connection points: 4
#     Node 51, Type 1, BuildingBlock: ESEHIV_clean_sbu_0, # of connection points: 4
#     Node 52, Type 1, BuildingBlock: ESEHIV_clean_sbu_0, # of connection points: 4
#     Node 53, Type 1, BuildingBlock: ESEHIV_clean_sbu_0, # of connection points: 4
#     Node 54, Type 1, BuildingBlock: ESEHIV_clean_sbu_0, # of connection points: 4
#     Node 55, Type 1, BuildingBlock: ESEHIV_clean_sbu_0, # of connection points: 4
#     Edge 56, Type (0, 1), BuildingBlock: EZIPEK_clean_linker_0, # of connection points: 2
#     Edge 57, Type (0, 1), BuildingBlock: EZIPEK_clean_linker_0, # of connection points: 2
#     Edge 58, Type (0, 1), BuildingBlock: EZIPEK_clean_linker_0, # of connection points: 2
#     Edge 59, Type (0, 1), BuildingBlock: EZIPEK_clean_linker_0, # of connection points: 2
#     Edge 60, Type (0, 1), BuildingBlock: EZIPEK_clean_linker_0, # of connection points: 2
#     Edge 61, Type (0, 1), BuildingBlock: EZIPEK_clean_linker_0, # of connection points: 2
#     Edge 62, Type (0, 1), BuildingBlock: EZIPEK_clean_linker_0, # of connection points: 2
#     Edge 63, Type (0, 1), BuildingBlock: EZIPEK_clean_linker_0, # of connection points: 2
#     Edge 64, Type (0, 1), BuildingBlock: EZIPEK_clean_linker_0, # of connection points: 2
#     Edge 65, Type (0, 1), BuildingBlock: EZIPEK_clean_linker_0, # of connection points: 2
#     Edge 66, Type (0, 1), BuildingBlock: EZIPEK_clean_linker_0, # of connection points: 2
#     Edge 67, Type (0, 1), BuildingBlock: EZIPEK_clean_linker_0, # of connection points: 2
#     Edge 68, Type (0, 1), BuildingBlock: EZIPEK_clean_linker_0, # of connection points: 2
#     Edge 69, Type (0, 1), BuildingBlock: EZIPEK_clean_linker_0, # of connection points: 2
#     Edge 70, Type (0, 1), BuildingBlock: EZIPEK_clean_linker_0, # of connection points: 2
#     Edge 71, Type (0, 1), BuildingBlock: EZIPEK_clean_linker_0, # of connection points: 2
#     Edge 72, Type (0, 1), BuildingBlock: EZIPEK_clean_linker_0, # of connection points: 2
#     Edge 73, Type (0, 1), BuildingBlock: EZIPEK_clean_linker_0, # of connection points: 2
#     Edge 74, Type (0, 1), BuildingBlock: EZIPEK_clean_linker_0, # of connection points: 2
#     Edge 75, Type (0, 1), BuildingBlock: EZIPEK_clean_linker_0, # of connection points: 2
#     Edge 76, Type (0, 1), BuildingBlock: EZIPEK_clean_linker_0, # of connection points: 2
#     Edge 77, Type (0, 1), BuildingBlock: EZIPEK_clean_linker_0, # of connection points: 2
#     Edge 78, Type (0, 1), BuildingBlock: EZIPEK_clean_linker_0, # of connection points: 2
#     Edge 79, Type (0, 1), BuildingBlock: EZIPEK_clean_linker_0, # of connection points: 2
#     Edge 80, Type (0, 1), BuildingBlock: EZIPEK_clean_linker_0, # of connection points: 2
#     Edge 81, Type (0, 1), BuildingBlock: EZIPEK_clean_linker_0, # of connection points: 2
#     Edge 82, Type (0, 1), BuildingBlock: EZIPEK_clean_linker_0, # of connection points: 2
#     Edge 83, Type (0, 1), BuildingBlock: EZIPEK_clean_linker_0, # of connection points: 2
#     Edge 84, Type (0, 1), BuildingBlock: EZIPEK_clean_linker_0, # of connection points: 2
#     Edge 85, Type (0, 1), BuildingBlock: EZIPEK_clean_linker_0, # of connection points: 2
#     Edge 86, Type (0, 1), BuildingBlock: EZIPEK_clean_linker_0, # of connection points: 2
#     Edge 87, Type (0, 1), BuildingBlock: EZIPEK_clean_linker_0, # of connection points: 2
#     Edge 88, Type (0, 1), BuildingBlock: EZIPEK_clean_linker_0, # of connection points: 2
#     Edge 89, Type (0, 1), BuildingBlock: EZIPEK_clean_linker_0, # of connection points: 2
#     Edge 90, Type (0, 1), BuildingBlock: EZIPEK_clean_linker_0, # of connection points: 2
#     Edge 91, Type (0, 1), BuildingBlock: EZIPEK_clean_linker_0, # of connection points: 2
#     Edge 92, Type (0, 1), BuildingBlock: EZIPEK_clean_linker_0, # of connection points: 2
#     Edge 93, Type (0, 1), BuildingBlock: EZIPEK_clean_linker_0, # of connection points: 2
#     Edge 94, Type (0, 1), BuildingBlock: EZIPEK_clean_linker_0, # of connection points: 2
#     Edge 95, Type (0, 1), BuildingBlock: EZIPEK_clean_linker_0, # of connection points: 2
#     Edge 96, Type (0, 1), BuildingBlock: EZIPEK_clean_linker_0, # of connection points: 2
#     Edge 97, Type (0, 1), BuildingBlock: EZIPEK_clean_linker_0, # of connection points: 2
#     Edge 98, Type (0, 1), BuildingBlock: EZIPEK_clean_linker_0, # of connection points: 2
#     Edge 99, Type (0, 1), BuildingBlock: EZIPEK_clean_linker_0, # of connection points: 2
#     Edge 100, Type (0, 1), BuildingBlock: EZIPEK_clean_linker_0, # of connection points: 2
#     Edge 101, Type (0, 1), BuildingBlock: EZIPEK_clean_linker_0, # of connection points: 2
#     Edge 102, Type (0, 1), BuildingBlock: EZIPEK_clean_linker_0, # of connection points: 2
#     Edge 103, Type (0, 1), BuildingBlock: EZIPEK_clean_linker_0, # of connection points: 2
#     Edge 104, Type (0, 1), BuildingBlock: EZIPEK_clean_linker_0, # of connection points: 2
#     Edge 105, Type (0, 1), BuildingBlock: EZIPEK_clean_linker_0, # of connection points: 2
#     Edge 106, Type (0, 1), BuildingBlock: EZIPEK_clean_linker_0, # of connection points: 2
#     Edge 107, Type (0, 1), BuildingBlock: EZIPEK_clean_linker_0, # of connection points: 2
#     Edge 108, Type (0, 1), BuildingBlock: EZIPEK_clean_linker_0, # of connection points: 2
#     Edge 109, Type (0, 1), BuildingBlock: EZIPEK_clean_linker_0, # of connection points: 2
#     Edge 110, Type (0, 1), BuildingBlock: EZIPEK_clean_linker_0, # of connection points: 2
#     Edge 111, Type (0, 1), BuildingBlock: EZIPEK_clean_linker_0, # of connection points: 2
#     Edge 112, Type (0, 1), BuildingBlock: EZIPEK_clean_linker_0, # of connection points: 2
#     Edge 113, Type (0, 1), BuildingBlock: EZIPEK_clean_linker_0, # of connection points: 2
#     Edge 114, Type (0, 1), BuildingBlock: EZIPEK_clean_linker_0, # of connection points: 2
#     Edge 115, Type (0, 1), BuildingBlock: EZIPEK_clean_linker_0, # of connection points: 2
#     Edge 116, Type (0, 1), BuildingBlock: EZIPEK_clean_linker_0, # of connection points: 2
#     Edge 117, Type (0, 1), BuildingBlock: EZIPEK_clean_linker_0, # of connection points: 2
#     Edge 118, Type (0, 1), BuildingBlock: EZIPEK_clean_linker_0, # of connection points: 2
#     Edge 119, Type (0, 1), BuildingBlock: EZIPEK_clean_linker_0, # of connection points: 2
#     Edge 120, Type (0, 1), BuildingBlock: EZIPEK_clean_linker_0, # of connection points: 2
#     Edge 121, Type (0, 1), BuildingBlock: EZIPEK_clean_linker_0, # of connection points: 2
#     Edge 122, Type (0, 1), BuildingBlock: EZIPEK_clean_linker_0, # of connection points: 2
#     Edge 123, Type (0, 1), BuildingBlock: EZIPEK_clean_linker_0, # of connection points: 2
#     Edge 124, Type (0, 1), BuildingBlock: EZIPEK_clean_linker_0, # of connection points: 2
#     Edge 125, Type (0, 1), BuildingBlock: EZIPEK_clean_linker_0, # of connection points: 2
#     Edge 126, Type (0, 1), BuildingBlock: EZIPEK_clean_linker_0, # of connection points: 2
#     Edge 127, Type (0, 1), BuildingBlock: EZIPEK_clean_linker_0, # of connection points: 2
#     Edge 128, Type (0, 1), BuildingBlock: EZIPEK_clean_linker_0, # of connection points: 2
#     Edge 129, Type (0, 1), BuildingBlock: EZIPEK_clean_linker_0, # of connection points: 2
#     Edge 130, Type (0, 1), BuildingBlock: EZIPEK_clean_linker_0, # of connection points: 2
#     Edge 131, Type (0, 1), BuildingBlock: EZIPEK_clean_linker_0, # of connection points: 2
#     Edge 132, Type (0, 1), BuildingBlock: EZIPEK_clean_linker_0, # of connection points: 2
#     Edge 133, Type (0, 1), BuildingBlock: EZIPEK_clean_linker_0, # of connection points: 2
#     Edge 134, Type (0, 1), BuildingBlock: EZIPEK_clean_linker_0, # of connection points: 2
#     Edge 135, Type (0, 1), BuildingBlock: EZIPEK_clean_linker_0, # of connection points: 2
#     Edge 136, Type (0, 1), BuildingBlock: EZIPEK_clean_linker_0, # of connection points: 2
#     Edge 137, Type (0, 1), BuildingBlock: EZIPEK_clean_linker_0, # of connection points: 2
#     Edge 138, Type (0, 1), BuildingBlock: EZIPEK_clean_linker_0, # of connection points: 2
#     Edge 139, Type (0, 1), BuildingBlock: EZIPEK_clean_linker_0, # of connection points: 2
#     Edge 140, Type (0, 1), BuildingBlock: EZIPEK_clean_linker_0, # of connection points: 2
#     Edge 141, Type (0, 1), BuildingBlock: EZIPEK_clean_linker_0, # of connection points: 2
#     Edge 142, Type (0, 1), BuildingBlock: EZIPEK_clean_linker_0, # of connection points: 2
#     Edge 143, Type (0, 1), BuildingBlock: EZIPEK_clean_linker_0, # of connection points: 2
#     Edge 144, Type (0, 1), BuildingBlock: EZIPEK_clean_linker_0, # of connection points: 2
#     Edge 145, Type (0, 1), BuildingBlock: EZIPEK_clean_linker_0, # of connection points: 2
#     Edge 146, Type (0, 1), BuildingBlock: EZIPEK_clean_linker_0, # of connection points: 2
#     Edge 147, Type (0, 1), BuildingBlock: EZIPEK_clean_linker_0, # of connection points: 2
#     Edge 148, Type (0, 1), BuildingBlock: EZIPEK_clean_linker_0, # of connection points: 2
#     Edge 149, Type (0, 1), BuildingBlock: EZIPEK_clean_linker_0, # of connection points: 2
#     Edge 150, Type (0, 1), BuildingBlock: EZIPEK_clean_linker_0, # of connection points: 2
#     Edge 151, Type (0, 1), BuildingBlock: EZIPEK_clean_linker_0, # of connection points: 2
# Relax obj value: 0.022
# Max RMSD: 0.193
# Mean RMSD: 0.111
data_MOF--net-tbo--node1-ESEHIV_clean_sbu_0--node2-PAMTOO_clean_linker_0--edge1-EZIPEK_clean_linker_0
_symmetry_space_group_name_H-M    P1
_symmetry_Int_Tables_number       1
_symmetry_cell_setting            triclinic
loop_
_symmetry_equiv_pos_as_xyz
'x, y, z'
_cell_length_a     51.722488
_cell_length_b     53.605763
_cell_length_c     53.435099
_cell_angle_alpha  90.21363
_cell_angle_beta   94.492294
_cell_angle_gamma 97.85494
loop_
_atom_site_label
_atom_site_type_symbol
_atom_site_fract_x
_atom_site_fract_y
_atom_site_fract_z
_atom_type_partial_charge
H0 H 0.1587 0.24422 0.20098 0.0
H1 H 0.15929 0.18448 0.2542 0.0
H2 H 0.19919 0.18103 0.18666 0.0
H3 H 0.17635 0.13108 0.20537 0.0
C4 C 0.17782 0.13524 0.22587 0.0
O5 O 0.191 0.15939 0.2306 0.0
H6 H 0.1578 0.13549 0.23189 0.0
C7 C 0.1651 0.22648 0.20665 0.0
C8 C 0.17977 0.21414 0.1907 0.0
C9 C 0.15665 0.21552 0.2288 0.0
C10 C 0.16533 0.19284 0.2368 0.0
C11 C 0.18144 0.18064 0.22203 0.0
C12 C 0.18787 0.19097 0.19858 0.0
H13 H 0.90114 0.173 0.27982 0.0
H14 H 0.83286 0.17155 0.22832 0.0
H15 H 0.89824 0.22979 0.22321 0.0
H16 H 0.83255 0.18428 0.17813 0.0
C17 C 0.84864 0.20033 0.17928 0.0
O18 O 0.85129 0.21108 0.20307 0.0
H19 H 0.86605 0.19122 0.17556 0.0
C20 C 0.891 0.18094 0.26385 0.0
C21 C 0.90274 0.20277 0.25277 0.0
C22 C 0.86585 0.16989 0.25534 0.0
C23 C 0.85246 0.18005 0.23486 0.0
C24 C 0.86438 0.2013 0.22281 0.0
C25 C 0.88942 0.21287 0.23197 0.0
H26 H 0.88719 0.84534 0.19178 0.0
H27 H 0.82167 0.88685 0.1873 0.0
H28 H 0.87742 0.89685 0.25165 0.0
H29 H 0.81355 0.89442 0.25347 0.0
C30 C 0.81367 0.91037 0.24022 0.0
O31 O 0.83672 0.91384 0.22837 0.0
H32 H 0.79694 0.90403 0.22632 0.0
C33 C 0.87648 0.85892 0.2 0.0
C34 C 0.88569 0.87045 0.2234 0.0
C35 C 0.85283 0.86379 0.18758 0.0
C36 C 0.83947 0.88232 0.19726 0.0
C37 C 0.8486 0.89461 0.22012 0.0
C38 C 0.87098 0.88784 0.23364 0.0
H39 H 0.14136 0.86024 0.22815 0.0
H40 H 0.14496 0.80597 0.16941 0.0
H41 H 0.20393 0.87085 0.179 0.0
H42 H 0.20062 0.84901 0.12326 0.0
C43 C 0.18464 0.83426 0.12817 0.0
O44 O 0.18844 0.82869 0.15331 0.0
H45 H 0.16676 0.84333 0.12407 0.0
C46 C 0.15076 0.85412 0.2122 0.0
C47 C 0.1736 0.86848 0.20489 0.0
C48 C 0.14032 0.83162 0.19946 0.0
C49 C 0.15263 0.82358 0.17902 0.0
C50 C 0.17547 0.83776 0.17157 0.0
C51 C 0.18597 0.86021 0.18449 0.0
H52 H 0.17933 0.9533 0.83091 0.0
H53 H 0.16523 0.88477 0.87257 0.0
H54 H 0.23105 0.93995 0.89527 0.0
H55 H 0.24353 0.8896 0.90105 0.0
C56 C 0.22367 0.87918 0.90283 0.0
O57 O 0.20587 0.89587 0.9051 0.0
H58 H 0.21921 0.86802 0.88505 0.0
C59 C 0.18475 0.94144 0.84629 0.0
C60 C 0.20704 0.94935 0.86267 0.0
C61 C 0.1696 0.91803 0.84977 0.0
C62 C 0.17686 0.90276 0.86968 0.0
C63 C 0.19899 0.91065 0.88599 0.0
C64 C 0.2139 0.93398 0.8826 0.0
H65 H 0.14907 0.26533 0.91812 0.0
H66 H 0.14852 0.22344 0.84882 0.0
H67 H 0.20692 0.21616 0.90888 0.0
H68 H 0.22695 0.21403 0.86465 0.0
C69 C 0.21059 0.20517 0.85137 0.0
O70 O 0.18801 0.20008 0.86372 0.0
H71 H 0.20816 0.21956 0.83685 0.0
C72 C 0.1574 0.25224 0.90664 0.0
C73 C 0.18005 0.24219 0.91609 0.0
C74 C 0.14566 0.24553 0.88226 0.0
C75 C 0.15709 0.22878 0.86756 0.0
C76 C 0.1787 0.2178 0.87729 0.0
C77 C 0.18999 0.22444 0.90151 0.0
H78 H 0.87101 0.1922 0.93076 0.0
H79 H 0.89543 0.26905 0.90981 0.0
H80 H 0.88238 0.21071 0.8536 0.0
H81 H 0.9187 0.26223 0.83222 0.0
C82 C 0.92143 0.26262 0.85306 0.0
O83 O 0.89705 0.25881 0.86238 0.0
H84 H 0.93255 0.24655 0.85709 0.0
C85 C 0.87651 0.20598 0.91666 0.0
C86 C 0.87568 0.19833 0.89131 0.0
C87 C 0.88335 0.23164 0.92358 0.0
C88 C 0.89031 0.24924 0.90498 0.0
C89 C 0.89052 0.24159 0.88002 0.0
C90 C 0.8829 0.21631 0.87317 0.0
H91 H 0.81712 0.91828 0.91881 0.0
H92 H 0.8769 0.87181 0.93542 0.0
H93 H 0.8832 0.92299 0.87429 0.0
H94 H 0.88605 0.86975 0.86377 0.0
C95 C 0.8994 0.86496 0.8797 0.0
O96 O 0.90278 0.88564 0.89594 0.0
H97 H 0.88947 0.84827 0.88912 0.0
C98 C 0.83645 0.91423 0.91572 0.0
C99 C 0.85187 0.92793 0.89819 0.0
C100 C 0.84579 0.89506 0.93044 0.0
C101 C 0.86919 0.88651 0.9245 0.0
C102 C 0.88196 0.89599 0.90355 0.0
C103 C 0.87315 0.91638 0.8905 0.0
H104 H 0.17401 0.77391 0.67755 0.0
H105 H 0.18207 0.72224 0.73863 0.0
H106 H 0.22529 0.71717 0.67416 0.0
H107 H 0.24177 0.71028 0.74231 0.0
C108 C 0.2359 0.69396 0.72928 0.0
O109 O 0.21213 0.69573 0.7162 0.0
H110 H 0.25155 0.69556 0.71604 0.0
C111 C 0.18296 0.75861 0.6862 0.0
C112 C 0.20182 0.74765 0.67354 0.0
C113 C 0.17533 0.74942 0.70978 0.0
C114 C 0.18754 0.72966 0.72067 0.0
C115 C 0.20473 0.71759 0.70752 0.0
C116 C 0.2119 0.72664 0.68415 0.0
H117 H 0.8989 0.72949 0.75005 0.0
H118 H 0.82701 0.71307 0.70317 0.0
H119 H 0.88115 0.77894 0.6896 0.0
H120 H 0.81198 0.73051 0.6501 0.0
C121 C 0.83181 0.74164 0.65174 0.0
O122 O 0.83587 0.75313 0.67516 0.0
H123 H 0.84522 0.72735 0.64958 0.0
C124 C 0.88616 0.73398 0.73409 0.0
C125 C 0.89304 0.75591 0.72036 0.0
C126 C 0.86246 0.71834 0.72795 0.0
C127 C 0.84561 0.72471 0.7078 0.0
C128 C 0.85265 0.7463 0.6937 0.0
C129 C 0.87631 0.76182 0.69998 0.0
H130 H 0.86206 0.36495 0.67834 0.0
H131 H 0.79923 0.40879 0.68681 0.0
H132 H 0.86371 0.41353 0.74301 0.0
H133 H 0.80463 0.45507 0.70183 0.0
C134 C 0.82013 0.45604 0.71756 0.0
O135 O 0.82061 0.43231 0.72766 0.0
H136 H 0.83839 0.46229 0.70833 0.0
C137 C 0.85311 0.37837 0.68883 0.0
C138 C 0.86496 0.3872 0.71244 0.0
C139 C 0.82931 0.38612 0.67918 0.0
C140 C 0.81778 0.40301 0.69355 0.0
C141 C 0.83082 0.41399 0.71569 0.0
C142 C 0.85429 0.4059 0.72526 0.0
H143 H 0.16839 0.4236 0.75663 0.0
H144 H 0.13891 0.35311 0.71867 0.0
H145 H 0.20863 0.39717 0.69637 0.0
H146 H 0.17286 0.37786 0.65419 0.0
C147 C 0.16319 0.3602 0.66222 0.0
O148 O 0.1742 0.35694 0.6862 0.0
H149 H 0.14232 0.36194 0.66407 0.0
C150 C 0.16976 0.40954 0.74234 0.0
C151 C 0.19102 0.41249 0.72734 0.0
C152 C 0.15094 0.38796 0.73969 0.0
C153 C 0.15315 0.36993 0.72104 0.0
C154 C 0.17329 0.37372 0.70491 0.0
C155 C 0.19248 0.39478 0.70829 0.0
H156 H 0.14558 0.38263 0.34842 0.0
H157 H 0.16971 0.35843 0.42239 0.0
H158 H 0.20841 0.42692 0.3931 0.0
H159 H 0.24672 0.40687 0.43645 0.0
C160 C 0.23228 0.38968 0.43287 0.0
O161 O 0.20729 0.39634 0.43126 0.0
H162 H 0.23767 0.3829 0.41455 0.0
C163 C 0.15797 0.38573 0.36579 0.0
C164 C 0.17709 0.40701 0.36857 0.0
C165 C 0.15508 0.36823 0.38523 0.0
C166 C 0.17159 0.37199 0.40743 0.0
C167 C 0.19092 0.39306 0.41016 0.0
C168 C 0.19335 0.41072 0.39092 0.0
H169 H 0.18039 0.74864 0.38963 0.0
H170 H 0.16708 0.67956 0.34617 0.0
H171 H 0.23499 0.69525 0.39875 0.0
H172 H 0.24491 0.67735 0.34542 0.0
C173 C 0.22709 0.66315 0.3426 0.0
O174 O 0.21178 0.66405 0.36272 0.0
H175 H 0.21639 0.66916 0.32528 0.0
C176 C 0.18664 0.73105 0.38402 0.0
C177 C 0.2087 0.72345 0.39683 0.0
C178 C 0.1707 0.71517 0.36646 0.0
C179 C 0.17916 0.69231 0.35948 0.0
C180 C 0.20323 0.68573 0.37002 0.0
C181 C 0.21758 0.70109 0.38926 0.0
H182 H 0.81109 0.64341 0.40541 0.0
H183 H 0.86398 0.71258 0.41851 0.0
H184 H 0.87037 0.66604 0.35469 0.0
H185 H 0.9194 0.69546 0.38839 0.0
C186 C 0.91224 0.71308 0.38179 0.0
O187 O 0.88556 0.70961 0.37624 0.0
H188 H 0.91719 0.72641 0.39798 0.0
C189 C 0.82769 0.65651 0.40039 0.0
C190 C 0.84061 0.65161 0.37906 0.0
C191 C 0.8363 0.67829 0.41523 0.0
C192 C 0.85742 0.69534 0.40783 0.0
C193 C 0.869 0.69116 0.38571 0.0
C194 C 0.86113 0.6691 0.37177 0.0
H195 H 0.79185 0.36367 0.43205 0.0
H196 H 0.86034 0.32676 0.42815 0.0
H197 H 0.8503 0.38997 0.38122 0.0
H198 H 0.86481 0.34086 0.35698 0.0
C199 C 0.88076 0.33881 0.37169 0.0
O200 O 0.87968 0.35489 0.39182 0.0
H201 H 0.87641 0.31896 0.37772 0.0
C202 C 0.80995 0.36195 0.42367 0.0
C203 C 0.81889 0.37936 0.40537 0.0
C204 C 0.82519 0.34349 0.43262 0.0
C205 C 0.84845 0.34089 0.42146 0.0
C206 C 0.85699 0.35715 0.40231 0.0
C207 C 0.84268 0.37671 0.39499 0.0
H208 H 0.67129 0.24733 0.68787 0.0
H209 H 0.6791 0.19711 0.74987 0.0
H210 H 0.72981 0.1969 0.69009 0.0
H211 H 0.72719 0.18482 0.76796 0.0
C212 C 0.73491 0.17717 0.75111 0.0
O213 O 0.71573 0.17474 0.73139 0.0
H214 H 0.75145 0.1916 0.7469 0.0
C215 C 0.68093 0.23273 0.69707 0.0
C216 C 0.70155 0.22321 0.68574 0.0
C217 C 0.6733 0.22401 0.72065 0.0
C218 C 0.68528 0.2045 0.73212 0.0
C219 C 0.70544 0.19461 0.72098 0.0
C220 C 0.71397 0.20446 0.69831 0.0
H221 H 0.42259 0.24141 0.74495 0.0
H222 H 0.34844 0.23397 0.70121 0.0
H223 H 0.41015 0.29223 0.68434 0.0
H224 H 0.34848 0.24144 0.6496 0.0
C225 C 0.35749 0.26141 0.64834 0.0
O226 O 0.36174 0.27228 0.67201 0.0
H227 H 0.37634 0.26031 0.64013 0.0
C228 C 0.41008 0.24754 0.7296 0.0
C229 C 0.41929 0.2683 0.71532 0.0
C230 C 0.38463 0.235 0.72454 0.0
C231 C 0.36829 0.24335 0.70503 0.0
C232 C 0.37765 0.26378 0.69032 0.0
C233 C 0.40317 0.27616 0.6954 0.0
H234 H 0.39307 0.88776 0.68577 0.0
H235 H 0.32629 0.92799 0.68589 0.0
H236 H 0.38409 0.93607 0.74831 0.0
H237 H 0.32737 0.97384 0.69906 0.0
C238 C 0.34168 0.9759 0.71582 0.0
O239 O 0.34196 0.95281 0.72731 0.0
H240 H 0.36062 0.98221 0.70776 0.0
C241 C 0.382 0.90051 0.69477 0.0
C242 C 0.39051 0.90987 0.71923 0.0
C243 C 0.35877 0.90713 0.68232 0.0
C244 C 0.34442 0.92307 0.69482 0.0
C245 C 0.35431 0.93468 0.71768 0.0
C246 C 0.37716 0.92788 0.73003 0.0
H247 H 0.66269 0.89475 0.75732 0.0
H248 H 0.65206 0.82921 0.70907 0.0
H249 H 0.71919 0.88523 0.70404 0.0
H250 H 0.68445 0.86026 0.65403 0.0
C251 C 0.68239 0.84106 0.66204 0.0
O252 O 0.69448 0.84172 0.68606 0.0
H253 H 0.66087 0.83572 0.66243 0.0
C254 C 0.66957 0.88375 0.74278 0.0
C255 C 0.69302 0.89261 0.73209 0.0
C256 C 0.65459 0.86108 0.7342 0.0
C257 C 0.66356 0.84676 0.71562 0.0
C258 C 0.6867 0.85546 0.70464 0.0
C259 C 0.70135 0.87847 0.71271 0.0
H260 H 0.63872 0.89592 0.34035 0.0
H261 H 0.62278 0.82476 0.37733 0.0
H262 H 0.68809 0.87853 0.40475 0.0
H263 H 0.69393 0.82238 0.3945 0.0
C264 C 0.67942 0.81627 0.40828 0.0
O265 O 0.66266 0.83384 0.41126 0.0
H266 H 0.66828 0.79883 0.39948 0.0
C267 C 0.64344 0.88313 0.35515 0.0
C268 C 0.66527 0.88982 0.37232 0.0
C269 C 0.62796 0.85967 0.35696 0.0
C270 C 0.63455 0.84296 0.37586 0.0
C271 C 0.65634 0.84973 0.39295 0.0
C272 C 0.67138 0.87326 0.39137 0.0
H273 H 0.63676 0.24612 0.37701 0.0
H274 H 0.63259 0.18135 0.32847 0.0
H275 H 0.67964 0.18494 0.39869 0.0
H276 H 0.69951 0.1732 0.34022 0.0
C277 C 0.68366 0.15688 0.3387 0.0
O278 O 0.666 0.15879 0.3566 0.0
H279 H 0.67392 0.15875 0.31965 0.0
C280 C 0.64272 0.22797 0.37312 0.0
C281 C 0.6591 0.21714 0.39107 0.0
C282 C 0.63261 0.21491 0.3509 0.0
C283 C 0.64021 0.19144 0.34568 0.0
C284 C 0.65802 0.18109 0.36239 0.0
C285 C 0.66695 0.19365 0.3853 0.0
H286 H 0.29412 0.16285 0.41422 0.0
H287 H 0.3444 0.23297 0.42949 0.0
H288 H 0.36397 0.18067 0.37522 0.0
H289 H 0.40777 0.20838 0.41433 0.0
C290 C 0.40149 0.22721 0.4112 0.0
O291 O 0.37787 0.22512 0.39689 0.0
H292 H 0.39919 0.23407 0.43044 0.0
C293 C 0.31173 0.17549 0.41096 0.0
C294 C 0.32844 0.16894 0.39335 0.0
C295 C 0.31753 0.19844 0.4242 0.0
C296 C 0.34005 0.21501 0.41961 0.0
C297 C 0.35688 0.20856 0.40208 0.0
C298 C 0.35115 0.18545 0.38905 0.0
H299 H 0.29232 0.89021 0.42765 0.0
H300 H 0.35475 0.84574 0.42432 0.0
H301 H 0.34161 0.89667 0.36556 0.0
H302 H 0.36091 0.85427 0.3445 0.0
C303 C 0.3652 0.84496 0.36261 0.0
O304 O 0.36962 0.86291 0.38168 0.0
H305 H 0.34708 0.83169 0.36482 0.0
C306 C 0.30951 0.88675 0.41879 0.0
C307 C 0.31793 0.90054 0.39719 0.0
C308 C 0.32316 0.86738 0.42914 0.0
C309 C 0.34396 0.86035 0.41671 0.0
C310 C 0.35014 0.87087 0.39385 0.0
C311 C 0.33688 0.89017 0.38397 0.0
H312 H 0.64006 0.73958 0.19732 0.0
H313 H 0.63905 0.67317 0.24242 0.0
H314 H 0.69494 0.68729 0.18695 0.0
H315 H 0.6994 0.67 0.25469 0.0
C316 C 0.69776 0.65433 0.24071 0.0
O317 O 0.67763 0.65601 0.22232 0.0
H318 H 0.71677 0.65755 0.2321 0.0
C319 C 0.64811 0.72251 0.20249 0.0
C320 C 0.66886 0.71542 0.18971 0.0
C321 C 0.63733 0.70732 0.22156 0.0
C322 C 0.64758 0.6851 0.22805 0.0
C323 C 0.66857 0.67799 0.216 0.0
C324 C 0.67907 0.69306 0.19666 0.0
H325 H 0.36083 0.67362 0.2176 0.0
H326 H 0.31499 0.66855 0.14648 0.0
H327 H 0.381 0.72632 0.15926 0.0
H328 H 0.34334 0.7458 0.12592 0.0
C329 C 0.32941 0.72817 0.12288 0.0
O330 O 0.3425 0.70759 0.12706 0.0
H331 H 0.315 0.72963 0.13704 0.0
C332 C 0.35715 0.68044 0.19876 0.0
C333 C 0.37346 0.70132 0.19024 0.0
C334 C 0.33591 0.66856 0.18304 0.0
C335 C 0.33118 0.67771 0.15876 0.0
C336 C 0.34733 0.69859 0.15029 0.0
C337 C 0.36856 0.71018 0.16593 0.0
H338 H 0.30615 0.40487 0.18378 0.0
H339 H 0.36144 0.35169 0.19314 0.0
H340 H 0.35995 0.40789 0.25011 0.0
H341 H 0.41317 0.39785 0.24359 0.0
C342 C 0.40887 0.37862 0.23507 0.0
O343 O 0.3827 0.36961 0.23641 0.0
H344 H 0.4135 0.38128 0.21523 0.0
C345 C 0.32227 0.39799 0.19457 0.0
C346 C 0.33196 0.40952 0.21801 0.0
C347 C 0.33256 0.37678 0.18567 0.0
C348 C 0.3534 0.36794 0.19972 0.0
C349 C 0.3634 0.37928 0.22268 0.0
C350 C 0.3525 0.39973 0.23194 0.0
H351 H 0.69231 0.41586 0.26143 0.0
H352 H 0.67188 0.35327 0.20946 0.0
H353 H 0.7448 0.40192 0.2063 0.0
H354 H 0.70765 0.39308 0.16038 0.0
C355 C 0.71004 0.37284 0.16038 0.0
O356 O 0.71418 0.36398 0.18447 0.0
H357 H 0.69065 0.36408 0.15198 0.0
C358 C 0.69702 0.40458 0.24596 0.0
C359 C 0.72012 0.41167 0.23421 0.0
C360 C 0.67982 0.38314 0.23757 0.0
C361 C 0.68539 0.36943 0.21657 0.0
C362 C 0.70874 0.37647 0.20503 0.0
C363 C 0.72649 0.39689 0.21465 0.0
H364 H 0.6987 0.43125 0.85987 0.0
H365 H 0.68345 0.36335 0.90206 0.0
H366 H 0.75203 0.41636 0.92248 0.0
H367 H 0.74451 0.35019 0.91292 0.0
C368 C 0.73344 0.35005 0.92994 0.0
O369 O 0.72485 0.37302 0.93366 0.0
H370 H 0.71637 0.33541 0.92529 0.0
C371 C 0.70421 0.4193 0.87515 0.0
C372 C 0.72701 0.42677 0.89093 0.0
C373 C 0.68873 0.39622 0.87885 0.0
C374 C 0.69559 0.38102 0.8989 0.0
C375 C 0.71852 0.38803 0.91444 0.0
C376 C 0.7344 0.41082 0.91031 0.0
H377 H 0.66362 0.76859 0.92372 0.0
H378 H 0.644 0.71321 0.86385 0.0
H379 H 0.70698 0.70613 0.91951 0.0
H380 H 0.72157 0.699 0.87277 0.0
C381 C 0.70365 0.68927 0.86209 0.0
O382 O 0.68271 0.68755 0.87697 0.0
H383 H 0.70015 0.70172 0.84599 0.0
C384 C 0.66705 0.75162 0.91415 0.0
C385 C 0.6867 0.73806 0.92434 0.0
C386 C 0.65083 0.74266 0.89259 0.0
C387 C 0.65608 0.72062 0.8804 0.0
C388 C 0.67691 0.70796 0.88949 0.0
C389 C 0.6916 0.71636 0.91185 0.0
H390 H 0.29037 0.64309 0.85352 0.0
H391 H 0.32121 0.72154 0.86481 0.0
H392 H 0.35443 0.67686 0.81245 0.0
H393 H 0.38613 0.71615 0.85688 0.0
C394 C 0.37851 0.73103 0.84513 0.0
O395 O 0.35558 0.72185 0.83124 0.0
H396 H 0.37436 0.74525 0.85892 0.0
C397 C 0.30418 0.65931 0.84928 0.0
C398 C 0.32253 0.65713 0.83153 0.0
C399 C 0.30399 0.68246 0.86178 0.0
C400 C 0.32154 0.7035 0.85571 0.0
C401 C 0.33958 0.70137 0.83792 0.0
C402 C 0.34039 0.67822 0.82627 0.0
H403 H 0.31795 0.41114 0.91426 0.0
H404 H 0.37588 0.36286 0.93615 0.0
H405 H 0.38507 0.41047 0.87194 0.0
H406 H 0.39809 0.36484 0.86035 0.0
C407 C 0.40469 0.35694 0.8786 0.0
O408 O 0.40439 0.37453 0.89771 0.0
H409 H 0.38973 0.3404 0.88107 0.0
C410 C 0.33595 0.40367 0.91128 0.0
C411 C 0.35072 0.41329 0.89174 0.0
C412 C 0.34497 0.38605 0.92813 0.0
C413 C 0.36833 0.37634 0.92347 0.0
C414 C 0.38227 0.38431 0.90255 0.0
C415 C 0.37374 0.40335 0.88724 0.0
Cu416 Cu 0.24891 0.30753 0.05486 0.0
N417 N 0.25423 0.33864 0.0376 0.0
N418 N 0.27998 0.36181 1.01143 0.0
C419 C 0.26444 0.33987 1.01494 0.0
C420 C 0.27876 0.37547 0.03244 0.0
C421 C 0.26272 0.36146 0.0482 0.0
O422 O 0.24529 0.28149 0.02776 0.0
C423 C 0.27676 0.32624 0.09905 0.0
O424 O 0.25485 0.33585 0.1001 0.0
H425 H 0.26314 0.32393 1.00237 0.0
H426 H 0.26017 0.3668 0.06721 0.0
N427 N 0.21876 0.29816 0.07295 0.0
N428 N 0.19781 0.27223 0.1005 0.0
C429 C 0.22011 0.28721 0.09579 0.0
C430 C 0.19415 0.29017 0.06324 0.0
C431 C 0.18148 0.27405 0.07984 0.0
C432 C 0.22742 0.28404 1.01021 0.0
O433 O 0.21471 0.30356 1.01099 0.0
H434 H 0.2379 0.28825 0.10786 0.0
H435 H 0.18638 0.29378 0.0445 0.0
O436 O 0.27898 0.31125 0.08076 0.0
H437 H 0.29022 0.3936 0.03696 0.0
H438 H 0.16214 0.26345 0.07638 0.0
Cu439 Cu 0.81993 0.30016 0.05901 0.0
N440 N 0.81765 0.32855 0.0788 0.0
N441 N 0.79481 0.35128 0.10182 0.0
C442 C 0.79965 0.32803 0.09572 0.0
C443 C 0.81105 0.36721 0.08875 0.0
C444 C 0.82535 0.35314 0.07475 0.0
O445 O 0.81605 0.27102 0.08108 0.0
C446 C 0.79706 0.31977 0.01673 0.0
O447 O 0.81805 0.33624 0.02181 0.0
H448 H 0.78838 0.31081 0.10154 0.0
H449 H 0.83873 0.36033 0.0611 0.0
N450 N 0.85146 0.29925 0.04433 0.0
N451 N 0.87447 0.28122 0.01726 0.0
C452 C 0.8515 0.28918 0.02124 0.0
C453 C 0.87564 0.29818 0.05529 0.0
C454 C 0.88982 0.28683 0.03868 0.0
C455 C 0.83099 0.27332 0.10139 0.0
O456 O 0.84645 0.29461 0.10618 0.0
H457 H 0.83401 0.28491 1.00867 0.0
H458 H 0.88178 0.30295 0.0747 0.0
O459 O 0.79322 0.30064 0.03087 0.0
H460 H 0.81141 0.38744 0.08824 0.0
H461 H 0.90916 0.28153 0.04265 0.0
Cu462 Cu 0.76009 0.80375 0.06033 0.0
N463 N 0.76679 0.8353 0.04437 0.0
N464 N 0.78866 0.85982 0.01643 0.0
C465 C 0.77266 0.83812 0.02013 0.0
C466 C 0.79231 0.87143 0.03913 0.0
C467 C 0.77872 0.85658 0.05605 0.0
O468 O 0.75422 0.77838 0.0333 0.0
C469 C 0.7898 0.81642 0.10469 0.0
O470 O 0.76878 0.8268 0.10812 0.0
H471 H 0.76751 0.8235 1.00597 0.0
H472 H 0.78007 0.86001 0.07604 0.0
N473 N 0.73069 0.79766 0.07959 0.0
N474 N 0.70588 0.77942 0.10894 0.0
C475 C 0.72756 0.77896 0.09651 0.0
C476 C 0.7101 0.8103 0.08135 0.0
C477 C 0.69474 0.79905 0.09945 0.0
C478 C 0.73405 0.7805 0.01846 0.0
O479 O 0.71967 0.79809 0.02318 0.0
H480 H 0.74131 0.76563 0.10008 0.0
H481 H 0.70677 0.82679 0.07061 0.0
O482 O 0.79058 0.80345 0.08466 0.0
H483 H 0.80535 0.88872 0.04357 0.0
H484 H 0.67704 0.80504 0.10549 0.0
Cu485 Cu 0.2374 0.75602 0.99496 0.0
N486 N 0.2097 0.75567 0.01541 0.0
N487 N 0.19032 0.76337 0.05046 0.0
C488 C 0.21312 0.76166 0.04001 0.0
C489 C 0.17204 0.75948 0.03064 0.0
C490 C 0.18393 0.75432 1.00933 0.0
O491 O 0.26794 0.75401 0.01799 0.0
C492 C 0.23307 0.80695 0.98252 0.0
O493 O 0.22544 0.8091 1.00519 0.0
H494 H 0.23243 0.76694 0.0492 0.0
H495 H 0.17473 0.75169 0.99044 0.0
N496 N 0.23268 0.72921 0.97191 0.0
N497 N 0.24119 0.70521 0.94026 0.0
C498 C 0.24832 0.72691 0.95331 0.0
C499 C 0.21495 0.70825 0.97051 0.0
C500 C 0.22026 0.69326 0.95092 0.0
C501 C 0.27437 0.73267 0.02423 0.0
O502 O 0.26298 0.71225 1.01211 0.0
H503 H 0.265 0.7406 0.94977 0.0
H504 H 0.19966 0.70394 0.98316 0.0
O505 O 0.24029 0.78649 0.97546 0.0
H506 H 0.15173 0.76222 0.03064 0.0
H507 H 0.20993 0.67495 0.94519 0.0
Cu508 Cu 0.03068 0.29292 0.31244 0.0
N509 N 0.05089 0.28892 0.28528 0.0
N510 N 0.08032 0.27311 0.26347 0.0
C511 C 0.07017 0.27424 0.28583 0.0
C512 C 0.06711 0.28775 0.24812 0.0
C513 C 0.04897 0.29759 0.26168 0.0
O514 O 0.05546 0.30362 0.3407 0.0
C515 C 1.00423 0.24355 0.30115 0.0
O516 O 0.02575 0.23686 0.29335 0.0
H517 H 0.07579 0.26352 0.30194 0.0
H518 H 0.03486 0.30953 0.25464 0.0
N519 N 1.00896 0.31824 0.30947 0.0
N520 N 0.97618 0.33739 0.32219 0.0
C521 C 0.98483 0.31522 0.31799 0.0
C522 C 1.01576 0.34333 0.30807 0.0
C523 C 0.99552 0.3552 0.31585 0.0
C524 C 0.0716 0.29136 0.35274 0.0
O525 O 0.06934 0.26676 0.35026 0.0
H526 H 0.97494 0.29725 0.32364 0.0
H527 H 0.03499 0.35238 0.30415 0.0
O528 O 1.0055 0.26297 0.31517 0.0
H529 H 0.06986 0.2905 0.2284 0.0
H530 H 0.99585 0.37526 0.31858 0.0
Cu531 Cu 0.76602 0.03228 0.32105 0.0
N532 N 0.79652 0.05505 0.32503 0.0
N533 N 0.82494 0.08735 0.31437 0.0
C534 C 0.80214 0.07282 0.30796 0.0
C535 C 0.83424 0.07861 0.33641 0.0
C536 C 0.8164 0.05863 0.34314 0.0
O537 O 0.73844 0.0541 0.31686 0.0
C538 C 0.79166 0.99932 0.29489 0.0
O539 O 0.81062 1.00889 0.31137 0.0
H540 H 0.78971 0.07507 0.29108 0.0
H541 H 0.81783 0.04777 0.36003 0.0
N542 N 0.76001 1.01214 0.34872 0.0
N543 N 0.73879 0.97919 0.36712 0.0
C544 C 0.73678 0.99801 0.35086 0.0
C545 C 0.7773 1.00203 0.36441 0.0
C546 C 0.76416 0.98161 0.37587 0.0
C547 C 0.73474 0.066 0.3368 0.0
O548 O 0.7468 0.06036 0.35816 0.0
H549 H 0.71955 0.9995 0.33837 0.0
H550 H 0.79829 1.00702 0.36517 0.0
O551 O 0.76982 1.00817 0.29407 0.0
H552 H 0.85232 0.08634 0.34692 0.0
H553 H 0.77294 0.96805 0.38754 0.0
Cu554 Cu 0.02261 0.786 0.29208 0.0
N555 N 1.01074 0.81795 0.28859 0.0
N556 N 0.98252 0.84294 0.27152 0.0
C557 C 0.98558 0.82017 0.28116 0.0
C558 C 1.0069 0.85584 0.27306 0.0
C559 C 0.02413 0.8406 0.2838 0.0
O560 O 0.99147 0.76176 0.29606 0.0
C561 C 0.06111 0.79562 0.25972 0.0
O562 O 0.07025 0.81133 0.27819 0.0
H563 H 0.97003 0.80454 0.28056 0.0
H564 H 0.04513 0.84537 0.28612 0.0
N565 N 0.04583 0.78008 0.32024 0.0
N566 N 0.07646 0.75938 0.34021 0.0
C567 C 0.06978 0.77247 0.31958 0.0
C568 C 0.03768 0.77176 0.34249 0.0
C569 C 0.05604 0.75882 0.35443 0.0
C570 C 0.97783 0.76709 0.31373 0.0
O571 O 0.98381 0.78907 0.32526 0.0
H572 H 0.08126 0.77456 0.30352 0.0
H573 H 0.01872 0.77276 0.34902 0.0
O574 O 0.03978 0.78101 0.2616 0.0
H575 H 1.01214 0.8745 0.26575 0.0
H576 H 0.05401 0.74878 0.37187 0.0
Cu577 Cu 0.25249 0.0157 0.30426 0.0
N578 N 0.28003 0.04269 0.3163 0.0
N579 N 0.30113 0.07737 0.33549 0.0
C580 C 0.27995 0.05954 0.33507 0.0
C581 C 0.31501 0.07151 0.31653 0.0
C582 C 0.30194 0.05003 0.30472 0.0
O583 O 0.23642 0.04098 0.28012 0.0
C584 C 0.25994 0.97025 0.33842 0.0
O585 O 0.23504 0.96175 0.33341 0.0
H586 H 0.26425 0.05949 0.34733 0.0
H587 H 0.3074 0.04094 0.2882 0.0
N588 N 0.22539 0.98882 0.29079 0.0
N589 N 0.20503 0.9559 0.26807 0.0
C590 C 0.22821 0.97007 0.27473 0.0
C591 C 0.19965 0.98661 0.29409 0.0
C592 C 0.18701 0.96618 0.28012 0.0
C593 C 0.22517 0.05927 0.28749 0.0
O594 O 0.22247 0.06205 0.31153 0.0
H595 H 0.24669 0.96702 0.26789 0.0
H596 H 0.19072 0.99916 0.30558 0.0
O597 O 0.2698 0.9909 0.32855 0.0
H598 H 0.33282 0.0825 0.31117 0.0
H599 H 0.16622 0.95951 0.27865 0.0
Cu600 Cu 0.03843 0.82493 0.78657 0.0
N601 N 0.05608 0.79822 0.77534 0.0
N602 N 0.08683 0.77984 0.75701 0.0
C603 C 0.08217 0.79767 0.7737 0.0
C604 C 0.06298 0.76883 0.74802 0.0
C605 C 0.04443 0.78 0.75907 0.0
O606 O 0.06295 0.85605 0.78698 0.0
C607 C 0.98945 0.80448 0.76722 0.0
O608 O 0.99506 0.78774 0.7839 0.0
H609 H 0.09737 0.81104 0.78317 0.0
H610 H 0.02385 0.77629 0.75339 0.0
N611 N 0.02464 0.82363 0.81854 0.0
N612 N 0.99419 0.83389 0.84331 0.0
C613 C 1.01133 0.842 0.8262 0.0
C614 C 1.01684 0.80356 0.8325 0.0
C615 C 0.99802 0.80978 0.84758 0.0
C616 C 0.08038 0.85777 0.8054 0.0
O617 O 0.08026 0.83932 0.82149 0.0
H618 H 1.01244 0.8603 0.81756 0.0
H619 H 0.02206 0.78493 0.8298 0.0
O620 O 1.0064 0.82373 0.76408 0.0
H621 H 0.05926 0.75442 0.73342 0.0
H622 H 0.98655 0.79695 0.85937 0.0
Cu623 Cu 0.29472 0.09449 0.79968 0.0
N624 N 0.32484 0.11806 0.79961 0.0
N625 N 0.35076 0.15103 0.78603 0.0
C626 C 0.32709 0.137 0.78313 0.0
C627 C 0.36415 0.14065 0.805 0.0
C628 C 0.34805 0.12013 0.81335 0.0
O629 O 0.26505 0.11331 0.79837 0.0
C630 C 0.31498 0.05694 0.77754 0.0
O631 O 0.3301 0.06119 0.79846 0.0
H632 H 0.31173 0.14027 0.76907 0.0
H633 H 0.35314 0.10742 0.828 0.0
N634 N 0.29125 0.075 0.8283 0.0
N635 N 0.27405 0.04206 0.84962 0.0
C636 C 0.27182 0.05567 0.82873 0.0
C637 C 0.30621 0.07384 0.84997 0.0
C638 C 0.29562 0.05325 0.8632 0.0
C639 C 0.26725 0.12931 0.81641 0.0
O640 O 0.28837 0.13139 0.83205 0.0
H641 H 0.25701 0.05091 0.81337 0.0
H642 H 0.32397 0.08637 0.85538 0.0
O643 O 0.29661 0.07033 0.77285 0.0
H644 H 0.38416 0.14719 0.81193 0.0
H645 H 0.30352 0.04652 0.88087 0.0
Cu646 Cu 1.01329 0.33701 0.80773 0.0
N647 N 0.98584 0.33204 0.78227 0.0
N648 N 0.95152 0.34033 0.75699 0.0
C649 C 0.96685 0.3469 0.77825 0.0
C650 C 0.96109 0.32057 0.74722 0.0
C651 C 0.98231 0.31551 0.76285 0.0
O652 O 0.99854 0.35256 0.83509 0.0
C653 C 0.06499 0.36246 0.80311 0.0
O654 O 0.07048 0.35495 0.82603 0.0
H655 H 0.96479 0.36271 0.79024 0.0
H656 H 0.99476 0.30129 0.7599 0.0
N657 N 0.02453 0.30631 0.81902 0.0
N658 N 0.05126 0.28118 0.83819 0.0
C659 C 0.04922 0.30035 0.82202 0.0
C660 C 1.01032 0.28921 0.83265 0.0
C661 C 0.02671 0.27402 0.84473 0.0
C662 C 1.00004 0.34358 0.85706 0.0
O663 O 0.02244 0.33636 0.86522 0.0
H664 H 0.06581 0.31068 0.81383 0.0
H665 H 0.98983 0.28917 0.83535 0.0
O666 O 0.04137 0.35907 0.79392 0.0
H667 H 0.95355 0.31086 0.72982 0.0
H668 H 0.02129 0.25973 0.85834 0.0
Cu669 Cu 0.80387 0.04449 0.79958 0.0
N670 N 0.82955 0.06808 0.8201 0.0
N671 N 0.84783 0.10165 0.84331 0.0
C672 C 0.82582 0.08519 0.83765 0.0
C673 C 0.86603 0.09426 0.82927 0.0
C674 C 0.85473 0.07362 0.81502 0.0
O675 O 0.79011 0.07435 0.78148 0.0
C676 C 0.81597 1.01164 0.84107 0.0
O677 O 0.80532 0.02823 0.85356 0.0
H678 H 0.8072 0.08655 0.84506 0.0
H679 H 0.86379 0.06416 0.80082 0.0
N680 N 0.7798 0.02137 0.7772 0.0
N681 N 0.75405 0.98781 0.76018 0.0
C682 C 0.76571 0.99893 0.78174 0.0
C683 C 0.77682 0.02434 0.75219 0.0
C684 C 0.76091 1.00375 0.74167 0.0
C685 C 0.77424 0.08707 0.7912 0.0
O686 O 0.76644 0.08079 0.81341 0.0
H687 H 0.76464 0.99061 0.80012 0.0
H688 H 0.78623 0.04014 0.74221 0.0
O689 O 0.81747 0.01439 0.81752 0.0
H690 H 0.88578 0.10388 0.82856 0.0
H691 H 0.75517 1.00041 0.72188 0.0
Cu692 Cu 0.27391 0.81457 0.54575 0.0
N693 N 0.284 0.84765 0.5573 0.0
N694 N 0.30799 0.87452 0.58513 0.0
C695 C 0.29251 0.85221 0.58158 0.0
C696 C 0.30843 0.88488 0.56211 0.0
C697 C 0.29319 0.86844 0.54506 0.0
O698 O 0.25899 0.79793 0.57541 0.0
C699 C 0.32023 0.80529 0.51802 0.0
O700 O 0.34064 0.79318 0.5179 0.0
H701 H 0.28959 0.83825 0.59605 0.0
H702 H 0.29102 0.87055 0.52493 0.0
N703 N 0.25008 0.80962 0.5175 0.0
N704 N 0.23131 0.7904 0.48214 0.0
C705 C 0.24926 0.78988 0.5017 0.0
C706 C 0.23155 0.82303 0.50789 0.0
C707 C 0.21976 0.81106 0.48603 0.0
C708 C 0.24196 0.7785 0.57696 0.0
O709 O 0.23312 0.76527 0.55658 0.0
H710 H 0.26146 0.77517 0.50469 0.0
H711 H 0.22715 0.84032 0.516 0.0
O712 O 0.30586 0.80183 0.53664 0.0
H713 H 0.32016 0.90236 0.55765 0.0
H714 H 0.20443 0.81732 0.47365 0.0
Cu715 Cu 0.75931 0.7612 0.53703 0.0
N716 N 0.77026 0.7306 0.529 0.0
N717 N 0.7892 0.70625 0.50395 0.0
C718 C 0.77173 0.72268 0.50529 0.0
C719 C 0.79823 0.70292 0.52792 0.0
C720 C 0.78629 0.71776 0.54338 0.0
O721 O 0.74732 0.77626 0.5058 0.0
C722 C 0.8117 0.7795 0.55801 0.0
O723 O 0.82023 0.76571 0.54091 0.0
H724 H 0.7627 0.73115 0.48908 0.0
H725 H 0.79142 0.7213 0.56322 0.0
N726 N 0.73274 0.75743 0.55902 0.0
N727 N 0.71075 0.77196 0.58904 0.0
C728 C 0.73435 0.77128 0.58029 0.0
C729 C 0.70727 0.74802 0.55473 0.0
C730 C 0.69358 0.75713 0.57321 0.0
C731 C 0.72952 0.7905 0.50453 0.0
O732 O 0.71942 0.79672 0.52501 0.0
H733 H 0.75199 0.78283 0.58777 0.0
H734 H 0.69896 0.73712 0.53828 0.0
O735 O 0.78766 0.78255 0.55593 0.0
H736 H 0.81399 0.69228 0.53362 0.0
H737 H 0.67253 0.75448 0.57403 0.0
Cu738 Cu 0.73921 0.28943 0.54442 0.0
N739 N 0.70846 0.28552 0.52284 0.0
N740 N 0.68593 0.26709 0.48836 0.0
C741 C 0.70784 0.2821 0.49766 0.0
C742 C 0.67193 0.26159 0.50838 0.0
C743 C 0.68572 0.27299 0.52944 0.0
O744 O 0.76537 0.28487 0.52075 0.0
C745 C 0.74326 0.26208 0.5927 0.0
O746 O 0.7681 0.27144 0.59606 0.0
H747 H 0.72444 0.28792 0.48687 0.0
H748 H 0.68103 0.26958 0.54861 0.0
N749 N 0.74924 0.32221 0.55789 0.0
N750 N 0.77299 0.35038 0.58483 0.0
C751 C 0.75791 0.32776 0.58201 0.0
C752 C 0.75867 0.34253 0.54498 0.0
C753 C 0.7734 0.35985 0.56148 0.0
C754 C 0.78964 0.29355 0.52326 0.0
O755 O 0.80162 0.29588 0.54589 0.0
H756 H 0.75599 0.3145 0.59695 0.0
H757 H 0.75749 0.34349 0.52471 0.0
O758 O 0.7302 0.26592 0.57214 0.0
H759 H 0.65395 0.24857 0.50812 0.0
H760 H 0.7852 0.37708 0.55643 0.0
Cu761 Cu 0.23567 0.27957 0.54521 0.0
N762 N 0.20515 0.27638 0.56191 0.0
N763 N 0.17894 0.28395 0.59198 0.0
C764 C 0.20385 0.284 0.58566 0.0
C765 C 0.16417 0.27676 0.57036 0.0
C766 C 0.18029 0.27182 0.55214 0.0
O767 O 0.26536 0.28036 0.57006 0.0
C768 C 0.25375 0.31849 0.51142 0.0
O769 O 0.27632 0.30977 0.5133 0.0
H770 H 0.22106 0.29203 0.59701 0.0
H771 H 0.17444 0.26741 0.53257 0.0
N772 N 0.23601 0.25186 0.52417 0.0
N773 N 0.24989 0.22722 0.49595 0.0
C774 C 0.25535 0.2487 0.50954 0.0
C775 C 0.2178 0.23149 0.5198 0.0
C776 C 0.22637 0.21616 0.50225 0.0
C777 C 0.28218 0.29894 0.57761 0.0
O778 O 0.28064 0.32153 0.56871 0.0
H779 H 0.27307 0.26185 0.50874 0.0
H780 H 0.19955 0.22809 0.52859 0.0
O781 O 0.23534 0.30906 0.52435 0.0
H782 H 0.14347 0.27724 0.5666 0.0
H783 H 0.21613 0.19852 0.4945 0.0
Cu784 Cu 0.78373 0.57432 0.81064 0.0
N785 N 0.81247 0.59871 0.80591 0.0
N786 N 0.83559 0.63185 0.78917 0.0
C787 C 0.81177 0.61832 0.79026 0.0
C788 C 0.85203 0.62043 0.80462 0.0
C789 C 0.83767 0.59989 0.81495 0.0
O790 O 0.75336 0.59214 0.81311 0.0
C791 C 0.801 0.53579 0.78577 0.0
O792 O 0.81853 0.53991 0.80501 0.0
H793 H 0.79423 0.62232 0.77949 0.0
H794 H 0.84519 0.58647 0.82766 0.0
N795 N 0.78687 0.55622 0.84034 0.0
N796 N 0.77914 0.52377 0.86598 0.0
C797 C 0.77272 0.53363 0.84361 0.0
C798 C 0.80273 0.56091 0.86155 0.0
C799 C 0.79801 0.54075 0.87748 0.0
C800 C 0.757 0.60963 0.82984 0.0
O801 O 0.7798 0.61373 0.84293 0.0
H802 H 0.75826 0.52436 0.82965 0.0
H803 H 0.8169 0.57759 0.86505 0.0
O804 O 0.7824 0.5493 0.7836 0.0
H805 H 0.87291 0.6263 0.80783 0.0
H806 H 0.80778 0.53856 0.89584 0.0
Cu807 Cu 0.28472 0.53937 0.78835 0.0
N808 N 0.29414 0.5254 0.81926 0.0
N809 N 0.30969 0.49818 0.84613 0.0
C810 C 0.30674 0.50502 0.82194 0.0
C811 C 0.29881 0.51494 0.85932 0.0
C812 C 0.2892 0.53176 0.84266 0.0
O813 O 0.26194 0.51286 0.76984 0.0
C814 C 0.33278 0.56858 0.77271 0.0
O815 O 0.35358 0.57009 0.75989 0.0
H816 H 0.31342 0.49525 0.80647 0.0
H817 H 0.2793 0.54744 0.84734 0.0
N818 N 0.26531 0.56622 0.79101 0.0
N819 N 0.24646 0.60034 0.78057 0.0
C820 C 0.26437 0.5855 0.775 0.0
C821 C 0.24654 0.56839 0.80666 0.0
C822 C 0.23484 0.58938 0.80025 0.0
C823 C 0.27039 0.49567 0.75767 0.0
O824 O 0.29565 0.49631 0.75583 0.0
H825 H 0.27567 0.58793 0.75881 0.0
H826 H 0.24102 0.5551 0.82112 0.0
O827 O 0.3164 0.54846 0.77096 0.0
H828 H 0.29768 0.51481 0.87946 0.0
H829 H 0.21894 0.59602 0.8092 0.0
Cu830 Cu 0.25832 0.53162 0.27109 0.0
N831 N 0.22772 0.50909 0.27406 0.0
N832 N 0.20091 0.47919 0.29168 0.0
C833 C 0.22209 0.4968 0.29532 0.0
C834 C 0.1924 0.48067 0.26729 0.0
C835 C 0.20907 0.4992 0.25641 0.0
O836 O 0.28607 0.51103 0.26314 0.0
C837 C 0.26719 0.57752 0.30171 0.0
O838 O 0.28077 0.58785 0.28383 0.0
H839 H 0.23433 0.49955 0.31277 0.0
H840 H 0.20848 0.50411 0.23678 0.0
N841 N 0.25495 0.55275 0.24355 0.0
N842 N 0.26727 0.58439 0.21812 0.0
C843 C 0.27526 0.5671 0.23409 0.0
C844 C 0.23331 0.56087 0.23266 0.0
C845 C 0.24088 0.58043 0.21685 0.0
C846 C 0.28577 0.48781 0.26889 0.0
O847 O 0.27023 0.47825 0.28571 0.0
H848 H 0.29553 0.56637 0.24049 0.0
H849 H 0.21355 0.55431 0.23725 0.0
O850 O 0.2605 0.5536 0.30152 0.0
H851 H 0.17634 0.46825 0.25779 0.0
H852 H 0.22816 0.592 0.20666 0.0
Cu853 Cu 0.758 0.52097 0.32707 0.0
N854 N 0.7565 0.50033 0.35539 0.0
N855 N 0.77044 0.46819 0.37729 0.0
C856 C 0.75843 0.47537 0.35549 0.0
C857 C 0.7755 0.4894 0.39154 0.0
C858 C 0.76682 0.50895 0.37818 0.0
O859 O 0.76777 0.50071 0.30042 0.0
C860 C 0.79931 0.56209 0.32264 0.0
O861 O 0.80017 0.55552 0.29905 0.0
H862 H 0.75387 0.46338 0.33894 0.0
H863 H 0.77094 0.52867 0.38349 0.0
N864 N 0.72768 0.53524 0.31654 0.0
N865 N 0.70462 0.56266 0.29639 0.0
C866 C 0.72843 0.55808 0.30581 0.0
C867 C 0.7023 0.52502 0.31387 0.0
C868 C 0.68799 0.54198 0.30145 0.0
C869 C 0.76275 0.50447 0.27721 0.0
O870 O 0.75208 0.52456 0.27073 0.0
H871 H 0.7463 0.5706 0.30373 0.0
H872 H 0.69494 0.50617 0.31944 0.0
O873 O 0.78418 0.54906 0.33664 0.0
H874 H 0.78665 0.49109 0.40963 0.0
H875 H 0.66727 0.53896 0.29564 0.0
Cu876 Cu 0.55469 0.31478 0.80339 0.0
N877 N 0.53291 0.31219 0.83047 0.0
N878 N 0.50098 0.32075 0.85418 0.0
C879 C 0.51006 0.32182 0.83106 0.0
C880 C 0.51882 0.31004 0.86874 0.0
C881 C 0.53837 0.30473 0.85412 0.0
O882 O 0.53221 0.31876 0.77347 0.0
C883 C 0.59927 0.33994 0.8277 0.0
O884 O 0.59843 0.318 0.83865 0.0
H885 H 0.50082 0.33049 0.81513 0.0
H886 H 0.55585 0.2969 0.86056 0.0
N887 N 0.57178 0.28655 0.79743 0.0
N888 N 0.59773 0.26251 0.77954 0.0
C889 C 0.58911 0.2852 0.77992 0.0
C890 C 0.56941 0.26388 0.80845 0.0
C891 C 0.58541 0.24902 0.79744 0.0
C892 C 0.51497 0.29973 0.76866 0.0
O893 O 0.51485 0.28002 0.78321 0.0
H894 H 0.59525 0.30053 0.76765 0.0
H895 H 0.55685 0.2585 0.82333 0.0
O896 O 0.58169 0.34331 0.8105 0.0
H897 H 0.51806 0.30687 0.88868 0.0
H898 H 0.58785 0.22982 0.80219 0.0
Cu899 Cu 0.51399 0.81572 0.80132 0.0
N900 N 0.53106 0.80893 0.83281 0.0
N901 N 0.56055 0.79093 0.85752 0.0
C902 C 0.55649 0.80536 0.83714 0.0
C903 C 0.53685 0.78563 0.86659 0.0
C904 C 0.51893 0.79675 0.85158 0.0
O905 O 0.53955 0.81655 0.77667 0.0
C906 C 0.4651 0.79149 0.80812 0.0
O907 O 0.46573 0.81184 0.82204 0.0
H908 H 0.5713 0.81115 0.82437 0.0
H909 H 0.49804 0.7938 0.85297 0.0
N910 N 0.49948 0.8461 0.79804 0.0
N911 N 0.47349 0.87291 0.78129 0.0
C912 C 0.4815 0.85014 0.77929 0.0
C913 C 0.50299 0.86718 0.81241 0.0
C914 C 0.4869 0.88379 0.80209 0.0
C915 C 0.55773 0.83515 0.77927 0.0
O916 O 0.55719 0.85191 0.79714 0.0
H917 H 0.47395 0.83635 0.76475 0.0
H918 H 0.51596 0.8701 0.82935 0.0
O919 O 0.48459 0.78902 0.79556 0.0
H920 H 0.53246 0.77317 0.88205 0.0
H921 H 0.48473 0.90213 0.80955 0.0
Cu922 Cu 0.49696 0.77342 0.28916 0.0
N923 N 0.47754 0.77444 0.31734 0.0
N924 N 0.44894 0.78857 0.34144 0.0
C925 C 0.45708 0.78749 0.31812 0.0
C926 C 0.46487 0.77569 0.356 0.0
C927 C 0.48246 0.76691 0.34107 0.0
O928 O 0.47198 0.76759 0.26004 0.0
C929 C 0.53811 0.80592 0.30847 0.0
O930 O 0.53724 0.78743 0.32454 0.0
H931 H 0.44924 0.79724 0.30217 0.0
H932 H 0.4985 0.75691 0.34736 0.0
N933 N 0.51832 0.7479 0.28848 0.0
N934 N 0.5506 0.7284 0.2758 0.0
C935 C 0.53635 0.7474 0.27166 0.0
C936 C 0.52114 0.72833 0.30373 0.0
C937 C 0.5412 0.71624 0.29593 0.0
C938 C 0.45648 0.74702 0.26081 0.0
O939 O 0.45873 0.73235 0.28027 0.0
H940 H 0.53935 0.76107 0.25695 0.0
H941 H 0.50982 0.72347 0.31961 0.0
O942 O 0.5211 0.80461 0.28975 0.0
H943 H 0.46442 0.77365 0.37612 0.0
H944 H 0.54859 0.7001 0.30453 0.0
Cu945 Cu 0.52879 0.30963 0.3131 0.0
N946 N 0.51358 0.30939 0.34357 0.0
N947 N 0.4856 0.29371 0.3711 0.0
C948 C 0.49003 0.29617 0.34669 0.0
C949 C 0.50711 0.30588 0.384 0.0
C950 C 0.52449 0.3155 0.36689 0.0
O951 O 0.50029 0.31273 0.28759 0.0
C952 C 0.55758 0.26949 0.29777 0.0
O953 O 0.5556 0.27687 0.27437 0.0
H954 H 0.47728 0.28679 0.33146 0.0
H955 H 0.54435 0.32452 0.37123 0.0
N956 N 0.55561 0.33639 0.31007 0.0
N957 N 0.59065 0.35834 0.29498 0.0
C958 C 0.57215 0.33813 0.29171 0.0
C959 C 0.56387 0.35643 0.32536 0.0
C960 C 0.58563 0.37005 0.31606 0.0
C961 C 0.49159 0.33385 0.28871 0.0
O962 O 0.50326 0.35089 0.3051 0.0
H963 H 0.57101 0.32465 0.27646 0.0
H964 H 0.55504 0.36057 0.34231 0.0
O965 O 0.54544 0.27923 0.31424 0.0
H966 H 0.51064 0.30632 0.40425 0.0
H967 H 0.59728 0.38675 0.32441 0.0
C968 C 0.21007 0.23087 0.1567 0.0
C969 C 0.1846 0.22563 0.16538 0.0
C970 C 0.16867 0.25295 0.13251 0.0
C971 C 0.19323 0.25583 0.12195 0.0
N972 N 0.234 0.23878 0.1198 0.0
N973 N 0.13817 0.22462 0.15448 0.0
C974 C 0.21304 0.2422 0.13276 0.0
C975 C 0.1634 0.23428 0.15089 0.0
N976 N 0.23161 0.22631 0.17145 0.0
N977 N 0.1509 0.26899 0.12646 0.0
H978 H 0.13354 0.20985 0.16674 0.0
H979 H 0.12225 0.22931 0.14314 0.0
H980 H 0.15506 0.28476 0.11537 0.0
H981 H 0.13352 0.26847 0.13522 0.0
H982 H 0.25061 0.23196 0.16649 0.0
H983 H 0.23065 0.21943 0.1896 0.0
H984 H 0.24797 0.22759 0.1264 0.0
H985 H 0.23536 0.24415 0.10117 0.0
C986 C 0.81756 0.22597 0.15375 0.0
C987 C 0.84338 0.2199 0.15952 0.0
C988 C 0.8585 0.24453 0.1237 0.0
C989 C 0.83344 0.25215 0.11891 0.0
N990 N 0.78971 0.25286 0.13107 0.0
N991 N 0.88967 0.23105 0.15496 0.0
C992 C 0.813 0.24345 0.13427 0.0
C993 C 0.86424 0.23142 0.14597 0.0
N994 N 0.79744 0.2153 0.16701 0.0
N995 N 0.87676 0.24939 0.10659 0.0
H996 H 0.89492 0.22357 0.17231 0.0
H997 H 0.90548 0.24107 0.14679 0.0
H998 H 0.87274 0.258 0.08953 0.0
H999 H 0.89458 0.24227 0.10802 0.0
H1000 H 0.77781 0.21608 0.16155 0.0
H1001 H 0.80021 0.20498 0.18325 0.0
H1002 H 0.7751 0.24981 0.14348 0.0
H1003 H 0.78552 0.26506 0.11663 0.0
C1004 C 0.82199 0.82663 0.16945 0.0
C1005 C 0.84082 0.84791 0.16556 0.0
C1006 C 0.83233 0.84206 0.11987 0.0
C1007 C 0.8122 0.82203 0.12388 0.0
N1008 N 0.79234 0.79089 0.15106 0.0
N1009 N 0.8683 0.87254 0.13781 0.0
C1010 C 0.80867 0.81284 0.14833 0.0
C1011 C 0.84753 0.85444 0.14094 0.0
N1012 N 0.81619 0.82027 0.19334 0.0
N1013 N 0.8358 0.85007 0.09597 0.0
H1014 H 0.87927 0.88235 0.15285 0.0
H1015 H 0.87582 0.87677 0.1206 0.0
H1016 H 0.82617 0.84029 0.08026 0.0
H1017 H 0.84762 0.86652 0.09161 0.0
H1018 H 0.8007 0.80684 0.19755 0.0
H1019 H 0.82627 0.82926 0.20928 0.0
H1020 H 0.78992 0.78182 0.16807 0.0
H1021 H 0.78272 0.78055 0.13564 0.0
C1022 C 0.16118 0.79684 0.10104 0.0
C1023 C 0.18487 0.81058 0.1123 0.0
C1024 C 0.20939 0.78091 0.0925 0.0
C1025 C 0.18734 0.77336 0.07549 0.0
N1026 N 0.1413 0.76002 0.07628 0.0
N1027 N 0.23183 0.81268 0.12152 0.0
C1028 C 0.16261 0.77724 0.08322 0.0
C1029 C 0.20906 0.80154 0.10909 0.0
N1030 N 0.13747 0.80238 0.10724 0.0
N1031 N 0.22893 0.76624 0.09519 0.0
H1032 H 0.23262 0.82666 0.13526 0.0
H1033 H 0.25016 0.80863 0.11726 0.0
H1034 H 0.22705 0.74868 0.08625 0.0
H1035 H 0.24461 0.76953 0.10881 0.0
H1036 H 0.11987 0.7958 0.09702 0.0
H1037 H 0.13528 0.81367 0.12263 0.0
H1038 H 0.12281 0.76041 0.08255 0.0
H1039 H 0.1432 0.74328 0.067 0.0
C1040 C 0.24075 0.86871 0.94708 0.0
C1041 C 0.22352 0.86191 0.92534 0.0
C1042 C 0.20912 0.82089 0.94369 0.0
C1043 C 0.22884 0.8265 0.96373 0.0
N1044 N 0.2644 0.8548 0.98431 0.0
N1045 N 0.18492 0.83567 0.90723 0.0
C1046 C 0.24469 0.85029 0.96558 0.0
C1047 C 0.20581 0.83913 0.92485 0.0
N1048 N 0.25228 0.89312 0.95064 0.0
N1049 N 0.19384 0.79789 0.9425 0.0
H1050 H 0.18101 0.84913 0.89398 0.0
H1051 H 0.16986 0.82066 0.90705 0.0
H1052 H 0.19393 0.78492 0.95698 0.0
H1053 H 0.18176 0.79103 0.9268 0.0
H1054 H 0.26305 0.89984 0.96714 0.0
H1055 H 0.24868 0.90747 0.93828 0.0
H1056 H 0.27875 0.87047 0.98494 0.0
H1057 H 0.26763 0.84191 0.9984 0.0
C1058 C 0.18307 0.24143 0.96367 0.0
C1059 C 0.19394 0.25018 0.94117 0.0
C1060 C 0.23292 0.27129 0.96623 0.0
C1061 C 0.22005 0.26632 0.98842 0.0
N1062 N 0.18358 0.24574 1.00906 0.0
N1063 N 0.22875 0.27486 0.92089 0.0
C1064 C 0.19542 0.25083 0.98734 0.0
C1065 C 0.21893 0.26526 0.94241 0.0
N1066 N 0.16127 0.22376 0.9624 0.0
N1067 N 0.2586 0.28172 0.9681 0.0
H1068 H 0.21898 0.27128 0.90315 0.0
H1069 H 0.24551 0.28804 0.92073 0.0
H1070 H 0.26923 0.28513 0.98548 0.0
H1071 H 0.26999 0.28428 0.95285 0.0
H1072 H 0.15375 0.21478 0.97803 0.0
H1073 H 0.15172 0.21661 0.94544 0.0
H1074 H 0.16422 0.2375 1.00968 0.0
H1075 H 0.19327 0.25051 0.02664 0.0
C1076 C 0.90472 0.25672 0.96153 0.0
C1077 C 0.88269 0.24083 0.94999 0.0
C1078 C 0.8599 0.24544 0.98778 0.0
C1079 C 0.87911 0.2658 0.99622 0.0
N1080 N 0.91873 0.2931 0.98853 0.0
N1081 N 0.83677 0.22414 0.95121 0.0
C1082 C 0.90145 0.27197 0.98254 0.0
C1083 C 0.85957 0.23604 0.96292 0.0
N1084 N 0.92878 0.25697 0.95265 0.0
N1085 N 0.84225 0.2348 1.00365 0.0
H1086 H 0.83479 0.21861 0.93237 0.0
H1087 H 0.81906 0.22237 0.95954 0.0
H1088 H 0.8432 0.24018 0.02253 0.0
H1089 H 0.82899 0.21874 0.99883 0.0
H1090 H 0.94578 0.26693 0.9615 0.0
H1091 H 0.93203 0.24485 0.93826 0.0
H1092 H 0.934 0.29953 0.97754 0.0
H1093 H 0.91629 0.30554 1.0029 0.0
C1094 C 0.8235 0.90248 0.97004 0.0
C1095 C 0.83134 0.88524 0.95275 0.0
C1096 C 0.81416 0.85084 0.97984 0.0
C1097 C 0.80218 0.86787 0.99424 0.0
N1098 N 0.7899 0.90957 0.99708 0.0
N1099 N 0.82739 0.8418 0.9387 0.0
C1100 C 0.80514 0.89361 0.9875 0.0
C1101 C 0.82464 0.85901 0.95684 0.0
N1102 N 0.83448 0.92714 0.97085 0.0
N1103 N 0.81733 0.82754 0.98869 0.0
H1104 H 0.83345 0.84696 0.92107 0.0
H1105 H 0.82075 0.82265 0.94029 0.0
H1106 H 0.81305 0.82188 1.0067 0.0
H1107 H 0.82756 0.81529 0.97947 0.0
H1108 H 0.83052 0.93985 0.98441 0.0
H1109 H 0.84989 0.934 0.96019 0.0
H1110 H 0.79024 0.92815 0.99123 0.0
H1111 H 0.77478 0.90335 1.00832 0.0
C1112 C 0.1449 0.24886 0.25703 0.0
C1113 C 0.13659 0.22737 0.24161 0.0
C1114 C 0.09077 0.23424 0.24369 0.0
C1115 C 0.09932 0.25726 0.25686 0.0
N1116 N 0.13396 0.28732 0.27584 0.0
N1117 N 0.10195 0.20006 0.21848 0.0
C1118 C 0.12633 0.2647 0.26377 0.0
C1119 C 0.10955 0.22 0.23465 0.0
N1120 N 0.17088 0.25346 0.26467 0.0
N1121 N 0.06459 0.22583 0.24036 0.0
H1122 H 0.11503 0.1887 0.2122 0.0
H1123 H 0.08299 0.19554 0.21018 0.0
H1124 H 0.05054 0.23602 0.24667 0.0
H1125 H 0.05686 0.20805 0.23319 0.0
H1126 H 0.17945 0.26795 0.27693 0.0
H1127 H 0.17945 0.26795 0.27693 0.0
H1128 H 0.15331 0.29534 0.27979 0.0
H1129 H 0.12054 0.29895 0.28088 0.0
C1130 C 0.85816 0.12359 0.26311 0.0
C1131 C 0.85349 0.14827 0.26924 0.0
C1132 C 0.83261 0.13286 0.30685 0.0
C1133 C 0.83625 0.1081 0.30015 0.0
N1134 N 0.85018 0.07882 0.27169 0.0
N1135 N 0.83409 0.17666 0.29485 0.0
C1136 C 0.84838 0.10318 0.27816 0.0
C1137 C 0.84003 0.15298 0.29054 0.0
N1138 N 0.87256 0.11991 0.24334 0.0
N1139 N 0.82233 0.13697 0.32904 0.0
H1140 H 0.8396 0.19191 0.28345 0.0
H1141 H 0.82226 0.18105 0.30864 0.0
H1142 H 0.81638 0.12243 0.34107 0.0
H1143 H 0.82117 0.15471 0.33646 0.0
H1144 H 0.87915 0.10295 0.23939 0.0
H1145 H 0.87904 0.13432 0.23132 0.0
H1146 H 0.85611 0.07336 0.25458 0.0
H1147 H 0.84461 0.06371 0.28325 0.0
C1148 C 0.93048 0.88257 0.24768 0.0
C1149 C 0.91047 0.86377 0.23697 0.0
C1150 C 0.94071 0.83278 0.24451 0.0
C1151 C 0.95859 0.85039 0.25936 0.0
N1152 N 0.96549 0.891 0.28054 0.0
N1153 N 0.89489 0.819 0.23398 0.0
C1154 C 0.95206 0.87505 0.26261 0.0
C1155 C 0.91501 0.83822 0.23814 0.0
N1156 N 0.92992 0.90745 0.24271 0.0
N1157 N 0.94848 0.81161 0.23501 0.0
H1158 H 0.87536 0.82203 0.23147 0.0
H1159 H 0.89756 0.80017 0.2362 0.0
H1160 H 0.96802 0.80857 0.23627 0.0
H1161 H 0.93612 0.79914 0.22291 0.0
H1162 H 0.94524 0.92138 0.24883 0.0
H1163 H 0.91598 0.91376 0.23002 0.0
H1164 H 0.96001 0.90851 0.28455 0.0
H1165 H 0.97976 0.88548 0.29339 0.0
C1166 C 0.17926 0.9156 0.21131 0.0
C1167 C 0.18485 0.89164 0.21963 0.0
C1168 C 0.20513 0.91055 0.25963 0.0
C1169 C 0.20001 0.93449 0.25111 0.0
N1170 N 0.18682 0.96104 0.21784 0.0
N1171 N 0.2072 0.8667 0.24942 0.0
C1172 C 0.1885 0.93736 0.22656 0.0
C1173 C 0.19915 0.88927 0.24311 0.0
N1174 N 0.16427 0.91739 0.18932 0.0
N1175 N 0.21468 0.9081 0.28393 0.0
H1176 H 0.203 0.85074 0.23779 0.0
H1177 H 0.21977 0.86423 0.26512 0.0
H1178 H 0.21941 0.92345 0.29628 0.0
H1179 H 0.21628 0.89086 0.29237 0.0
H1180 H 0.15701 0.93378 0.1835 0.0
H1181 H 0.15771 0.90197 0.17743 0.0
H1182 H 0.18091 0.96488 0.19936 0.0
H1183 H 0.19342 0.97716 0.22879 0.0
C1184 C 0.12068 0.91117 0.8418 0.0
C1185 C 0.14559 0.90912 0.83317 0.0
C1186 C 0.12503 0.88024 0.79931 0.0
C1187 C 0.1007 0.88002 0.80982 0.0
N1188 N 0.07335 0.89945 0.836 0.0
N1189 N 0.17149 0.89658 0.80104 0.0
C1190 C 0.09791 0.89709 0.82937 0.0
C1191 C 0.1477 0.8954 0.81081 0.0
N1192 N 0.11914 0.92574 0.86255 0.0
N1193 N 0.12641 0.86501 0.77905 0.0
H1194 H 0.18837 0.90727 0.80932 0.0
H1195 H 0.17451 0.8882 0.78413 0.0
H1196 H 0.10965 0.85522 0.76958 0.0
H1197 H 0.14367 0.86193 0.77155 0.0
H1198 H 0.10214 0.92628 0.87161 0.0
H1199 H 0.13536 0.93715 0.87122 0.0
H1200 H 0.06929 0.91242 0.84915 0.0
H1201 H 0.05658 0.88944 0.82671 0.0
C1202 C 0.219 0.17727 0.81466 0.0
C1203 C 0.21842 0.18093 0.84099 0.0
C1204 C 0.23873 0.14251 0.84773 0.0
C1205 C 0.24572 0.14337 0.82263 0.0
N1206 N 0.24269 0.16206 0.78168 0.0
N1207 N 0.22751 0.16585 0.88304 0.0
C1208 C 0.23555 0.16059 0.80574 0.0
C1209 C 0.22782 0.16294 0.85767 0.0
N1210 N 0.20336 0.18913 0.79823 0.0
N1211 N 0.24245 0.12199 0.86199 0.0
H1212 H 0.21896 0.17989 0.89137 0.0
H1213 H 0.2372 0.15512 0.89596 0.0
H1214 H 0.24978 0.10644 0.85483 0.0
H1215 H 0.23563 0.1192 0.87974 0.0
H1216 H 0.20179 0.18571 0.77893 0.0
H1217 H 0.18939 0.19968 0.80413 0.0
H1218 H 0.23822 0.17631 0.76955 0.0
H1219 H 0.25457 0.15007 0.7744 0.0
C1220 C 0.95743 0.28888 0.8814 0.0
C1221 C 0.93673 0.28782 0.86203 0.0
C1222 C 0.95105 0.33202 0.85244 0.0
C1223 C 0.97522 0.33012 0.86614 0.0
N1224 N 0.99467 0.31443 0.904 0.0
N1225 N 0.90996 0.31025 0.8334 0.0
C1226 C 0.97625 0.31094 0.88412 0.0
C1227 C 0.93196 0.31024 0.84932 0.0
N1228 N 0.95972 0.26855 0.89632 0.0
N1229 N 0.94652 0.35481 0.84305 0.0
H1230 H 0.89482 0.2952 0.83192 0.0
H1231 H 0.90679 0.32489 0.82133 0.0
H1232 H 0.95996 0.37102 0.84685 0.0
H1233 H 0.92887 0.35823 0.83392 0.0
H1234 H 0.97604 0.26684 0.90854 0.0
H1235 H 0.94524 0.25301 0.89628 0.0
H1236 H 0.99587 0.30196 0.91878 0.0
H1237 H 1.00697 0.3315 0.90696 0.0
C1238 C 0.86233 0.96828 0.87191 0.0
C1239 C 0.84491 0.95272 0.88664 0.0
C1240 C 0.80981 0.97692 0.87221 0.0
C1241 C 0.82584 0.99013 0.85491 0.0
N1242 N 0.86831 0.99833 0.83828 0.0
N1243 N 0.81234 0.9618 0.91409 0.0
C1244 C 0.85236 0.98569 0.8546 0.0
C1245 C 0.82111 0.96202 0.8907 0.0
N1246 N 0.88869 0.96991 0.87782 0.0
N1247 N 0.78365 0.97853 0.87132 0.0
H1248 H 0.82413 0.95762 0.92983 0.0
H1249 H 0.79604 0.97011 0.91823 0.0
H1250 H 0.77411 0.98834 0.85741 0.0
H1251 H 0.77126 0.96783 0.88295 0.0
H1252 H 0.90256 0.98247 0.86955 0.0
H1253 H 0.89636 0.9615 0.89381 0.0
H1254 H 0.88654 0.99339 0.83494 0.0
H1255 H 0.86288 1.01282 0.82697 0.0
C1256 C 0.17476 0.09273 0.24868 0.0
C1257 C 0.19082 0.11421 0.23986 0.0
C1258 C 0.22994 0.09611 0.25742 0.0
C1259 C 0.2136 0.07681 0.26916 0.0
N1260 N 0.17025 0.05752 0.27716 0.0
N1261 N 0.23365 0.12989 0.22705 0.0
C1262 C 0.18598 0.07538 0.26508 0.0
C1263 C 0.21849 0.11413 0.24177 0.0
N1264 N 0.14909 0.08749 0.23962 0.0
N1265 N 0.25649 0.09777 0.26199 0.0
H1266 H 0.22584 0.14156 0.21376 0.0
H1267 H 0.25353 0.12944 0.22572 0.0
H1268 H 0.2655 0.08429 0.27211 0.0
H1269 H 0.26958 0.11315 0.25708 0.0
H1270 H 0.1371 0.07094 0.24341 0.0
H1271 H 0.14055 0.09778 0.22551 0.0
H1272 H 0.15022 0.05773 0.27797 0.0
H1273 H 0.17743 0.04329 0.28775 0.0
C1274 C 0.24639 0.97341 0.84504 0.0
C1275 C 0.22401 0.97347 0.85883 0.0
C1276 C 0.23663 0.01844 0.86886 0.0
C1277 C 0.25826 0.01857 0.8542 0.0
N1278 N 0.2832 0.9977 0.82665 0.0
N1279 N 0.19624 0.99568 0.88239 0.0
C1280 C 0.26301 0.99641 0.84186 0.0
C1281 C 0.21869 0.99593 0.87039 0.0
N1282 N 0.25198 0.95121 0.83549 0.0
N1283 N 0.23354 0.04001 0.88133 0.0
H1284 H 0.18296 0.97941 0.88416 0.0
H1285 H 0.18986 1.01165 0.88951 0.0
H1286 H 0.24614 0.0568 0.87985 0.0
H1287 H 0.21955 0.04119 0.89407 0.0
H1288 H 0.26937 0.94921 0.82763 0.0
H1289 H 0.23966 0.93419 0.83649 0.0
H1290 H 0.28617 0.98322 0.81465 0.0
H1291 H 0.29653 1.01398 0.82513 0.0
C1292 C 0.09861 0.23772 0.8635 0.0
C1293 C 0.12094 0.25511 0.87197 0.0
C1294 C 0.09555 0.28975 0.86136 0.0
C1295 C 0.07497 0.27251 0.84931 0.0
N1296 N 0.05963 0.23014 0.8348 0.0
N1297 N 0.14195 0.2983 0.87381 0.0
C1298 C 0.07729 0.24647 0.84923 0.0
C1299 C 0.1198 0.28135 0.86944 0.0
N1300 N 0.09722 0.21294 0.86989 0.0
N1301 N 0.09153 0.31382 0.86642 0.0
H1302 H 0.16028 0.29298 0.87883 0.0
H1303 H 0.14251 0.3174 0.8699 0.0
H1304 H 0.0734 0.32001 0.86277 0.0
H1305 H 0.10517 0.32654 0.87702 0.0
H1306 H 0.08041 0.19998 0.86606 0.0
H1307 H 0.11172 0.20599 0.88143 0.0
H1308 H 0.06174 0.21126 0.83222 0.0
H1309 H 0.04448 0.2361 0.8233 0.0
C1310 C 0.88056 0.15195 0.88874 0.0
C1311 C 0.86574 0.17189 0.88291 0.0
C1312 C 0.83707 0.14453 0.85236 0.0
C1313 C 0.85137 0.12433 0.85868 0.0
N1314 N 0.88202 0.10687 0.88725 0.0
N1315 N 0.82552 0.18478 0.86496 0.0
C1316 C 0.87159 0.12748 0.87839 0.0
C1317 C 0.84249 0.16732 0.86665 0.0
N1318 N 0.90386 0.1566 0.90297 0.0
N1319 N 0.81964 0.14272 0.83168 0.0
H1320 H 0.82872 0.2015 0.87551 0.0
H1321 H 0.80712 0.18149 0.85518 0.0
H1322 H 0.81571 0.12678 0.82016 0.0
H1323 H 0.81087 0.15789 0.82461 0.0
H1324 H 0.91685 0.14342 0.90551 0.0
H1325 H 0.9112 0.17425 0.91074 0.0
H1326 H 0.89524 0.1074 0.90305 0.0
H1327 H 0.87533 0.08875 0.88021 0.0
C1328 C 0.94739 0.85557 0.88769 0.0
C1329 C 0.92529 0.85819 0.87056 0.0
C1330 C 0.95157 0.85094 0.83534 0.0
C1331 C 0.97284 0.84595 0.8522 0.0
N1332 N 0.99149 0.84402 0.89449 0.0
N1333 N 0.90469 0.8468 0.82893 0.0
C1334 C 0.97084 0.8486 0.87844 0.0
C1335 C 0.9269 0.85279 0.84463 0.0
N1336 N 0.94572 0.85888 0.91285 0.0
N1337 N 0.95433 0.85374 0.81028 0.0
H1338 H 0.88589 0.84396 0.83502 0.0
H1339 H 0.90507 0.8406 0.81046 0.0
H1340 H 0.97124 0.85157 0.80177 0.0
H1341 H 0.94008 0.86026 0.79807 0.0
H1342 H 0.9617 0.86055 0.92612 0.0
H1343 H 0.92814 0.86005 0.92075 0.0
H1344 H 0.99099 0.84263 0.91385 0.0
H1345 H 1.00942 0.84107 0.88813 0.0
C1346 C 0.81599 0.9377 0.27971 0.0
C1347 C 0.80942 0.93472 0.25351 0.0
C1348 C 0.79253 0.97578 0.25354 0.0
C1349 C 0.79547 0.97644 0.28021 0.0
N1350 N 0.8049 0.95468 0.31871 0.0
N1351 N 0.79203 0.95166 0.21487 0.0
C1352 C 0.80571 0.95641 0.29326 0.0
C1353 C 0.79781 0.954 0.24023 0.0
N1354 N 0.83303 0.92344 0.29165 0.0
N1355 N 0.78613 0.99647 0.24088 0.0
H1356 H 0.79829 0.93784 0.20394 0.0
H1357 H 0.78031 0.963 0.20469 0.0
H1358 H 0.78228 1.01268 0.24991 0.0
H1359 H 0.78656 0.99843 0.22154 0.0
H1360 H 0.84021 0.9265 0.31034 0.0
H1361 H 0.84267 0.91087 0.28219 0.0
H1362 H 0.80962 0.93906 0.32873 0.0
H1363 H 0.79676 0.96742 0.32944 0.0
C1364 C 0.12009 0.79581 0.22492 0.0
C1365 C 0.11695 0.81623 0.20861 0.0
C1366 C 0.07167 0.81555 0.21923 0.0
C1367 C 0.07564 0.79667 0.23701 0.0
N1368 N 0.09923 0.76331 0.25126 0.0
N1369 N 0.08832 0.84064 0.18466 0.0
C1370 C 0.09841 0.78479 0.23776 0.0
C1371 C 0.09209 0.82434 0.20378 0.0
N1372 N 0.14414 0.78811 0.22935 0.0
N1373 N 0.04897 0.82603 0.21833 0.0
H1374 H 0.10311 0.84727 0.17317 0.0
H1375 H 0.07019 0.84593 0.17886 0.0
H1376 H 0.03335 0.819 0.2287 0.0
H1377 H 0.04588 0.84196 0.20806 0.0
H1378 H 0.14841 0.77531 0.24316 0.0
H1379 H 0.16038 0.79551 0.22004 0.0
H1380 H 0.11451 0.75251 0.25146 0.0
H1381 H 0.08312 0.75505 0.26035 0.0
C1382 C 0.93088 0.22251 0.29003 0.0
C1383 C 0.92849 0.21515 0.26427 0.0
C1384 C 0.97499 0.23014 0.26192 0.0
C1385 C 0.97829 0.23308 0.28855 0.0
N1386 N 0.95927 0.22792 0.32839 0.0
N1387 N 0.94986 0.20751 0.2269 0.0
C1388 C 0.95617 0.22812 0.30277 0.0
C1389 C 0.951 0.21763 0.25052 0.0
N1390 N 0.90901 0.22478 0.30218 0.0
N1391 N 0.99385 0.24078 0.24722 0.0
H1392 H 0.93282 0.19771 0.21796 0.0
H1393 H 0.9665 0.20678 0.21724 0.0
H1394 H 1.01052 0.25252 0.25436 0.0
H1395 H 0.99122 0.24077 0.22768 0.0
H1396 H 0.9098 0.23225 0.3203 0.0
H1397 H 0.89018 0.2218 0.29319 0.0
H1398 H 0.94393 0.2221 0.33949 0.0
H1399 H 0.97757 0.23099 0.33843 0.0
C1400 C 0.19429 0.756 0.62672 0.0
C1401 C 0.21134 0.75756 0.64903 0.0
C1402 C 0.24871 0.77063 0.62382 0.0
C1403 C 0.2314 0.77141 0.60186 0.0
N1404 N 0.18676 0.77105 0.58445 0.0
N1405 N 0.25403 0.77231 0.66931 0.0
C1406 C 0.2039 0.76584 0.60388 0.0
C1407 C 0.23832 0.76674 0.64769 0.0
N1408 N 0.16916 0.74426 0.62698 0.0
N1409 N 0.27507 0.77223 0.62188 0.0
H1410 H 0.24706 0.77027 0.68709 0.0
H1411 H 0.27319 0.7814 0.66951 0.0
H1412 H 0.28352 0.77378 0.60477 0.0
H1413 H 0.28829 0.76925 0.63694 0.0
H1414 H 0.15679 0.74018 0.61072 0.0
H1415 H 0.16143 0.73651 0.64312 0.0
H1416 H 0.16664 0.76967 0.58586 0.0
H1417 H 0.19277 0.77947 0.56793 0.0
C1418 C 0.85363 0.76241 0.61438 0.0
C1419 C 0.83331 0.76104 0.63098 0.0
C1420 C 0.81188 0.78982 0.6037 0.0
C1421 C 0.82579 0.78266 0.58374 0.0
N1422 N 0.86636 0.77075 0.57194 0.0
N1423 N 0.79429 0.77701 0.64288 0.0
C1424 C 0.84902 0.77189 0.58973 0.0
C1425 C 0.81309 0.77634 0.62641 0.0
N1426 N 0.8772 0.75527 0.62241 0.0
N1427 N 0.79774 0.80943 0.60078 0.0
H1428 H 0.79462 0.76787 0.66005 0.0
H1429 H 0.7776 0.78563 0.63876 0.0
H1430 H 0.79785 0.82004 0.58441 0.0
H1431 H 0.78848 0.8166 0.61532 0.0
H1432 H 0.89329 0.75691 0.6117 0.0
H1433 H 0.88151 0.75025 0.64097 0.0
H1434 H 0.88202 0.76042 0.57384 0.0
H1435 H 0.86493 0.78064 0.55521 0.0
C1436 C 0.80752 0.39449 0.63629 0.0
C1437 C 0.81632 0.37703 0.65398 0.0
C1438 C 0.80262 0.34354 0.62253 0.0
C1439 C 0.78886 0.35993 0.60738 0.0
N1440 N 0.77421 0.40072 0.60349 0.0
N1441 N 0.81551 0.33314 0.6651 0.0
C1442 C 0.79021 0.38541 0.61522 0.0
C1443 C 0.812 0.35098 0.64747 0.0
N1444 N 0.8163 0.41963 0.63897 0.0
N1445 N 0.80793 0.32141 0.61283 0.0
H1446 H 0.82024 0.33749 0.68408 0.0
H1447 H 0.8106 0.31391 0.66122 0.0
H1448 H 0.80393 0.31665 0.59385 0.0
H1449 H 0.8194 0.30969 0.62284 0.0
H1450 H 0.81183 0.43269 0.62545 0.0
H1451 H 0.83049 0.42692 0.65302 0.0
H1452 H 0.77312 0.41888 0.61001 0.0
H1453 H 0.75998 0.39435 0.58917 0.0
C1454 C 0.14513 0.32754 0.62767 0.0
C1455 C 0.16619 0.33811 0.64505 0.0
C1456 C 0.19074 0.3042 0.63401 0.0
C1457 C 0.17154 0.29618 0.61434 0.0
N1458 N 0.12483 0.28921 0.60633 0.0
N1459 N 0.21221 0.33952 0.65897 0.0
C1460 C 0.1469 0.30461 0.61496 0.0
C1461 C 0.18985 0.32717 0.64684 0.0
N1462 N 0.12419 0.34002 0.62176 0.0
N1463 N 0.20865 0.28884 0.64167 0.0
H1464 H 0.21357 0.35781 0.66613 0.0
H1465 H 0.23024 0.33288 0.65888 0.0
H1466 H 0.20802 0.27087 0.6338 0.0
H1467 H 0.22152 0.29265 0.65766 0.0
H1468 H 0.10964 0.33368 0.60767 0.0
H1469 H 0.12298 0.35815 0.62819 0.0
H1470 H 0.10603 0.29363 0.60809 0.0
H1471 H 0.12547 0.27042 0.60155 0.0
C1472 C 0.24006 0.37925 0.47926 0.0
C1473 C 0.23535 0.37077 0.45377 0.0
C1474 C 0.24335 0.32831 0.46634 0.0
C1475 C 0.24812 0.33675 0.49169 0.0
N1476 N 0.24708 0.36865 0.52327 0.0
N1477 N 0.22372 0.33542 0.42488 0.0
C1478 C 0.24524 0.36176 0.49844 0.0
C1479 C 0.23441 0.34476 0.44781 0.0
N1480 N 0.23983 0.40408 0.4851 0.0
N1481 N 0.24738 0.30451 0.45987 0.0
H1482 H 0.21567 0.34636 0.41108 0.0
H1483 H 0.21999 0.31626 0.42048 0.0
H1484 H 0.25246 0.29127 0.47294 0.0
H1485 H 0.24752 0.29841 0.44136 0.0
H1486 H 0.24674 0.41226 0.50246 0.0
H1487 H 0.23331 0.41697 0.47237 0.0
H1488 H 0.24218 0.38555 0.52984 0.0
H1489 H 0.25217 0.35675 0.5377 0.0
C1490 C 0.21106 0.73054 0.44362 0.0
C1491 C 0.21967 0.73833 0.41987 0.0
C1492 C 0.2346 0.78093 0.43707 0.0
C1493 C 0.22687 0.77296 0.46099 0.0
N1494 N 0.21013 0.7399 0.48804 0.0
N1495 N 0.24369 0.76919 0.39498 0.0
C1496 C 0.21608 0.74756 0.46457 0.0
C1497 C 0.23274 0.76305 0.41698 0.0
N1498 N 0.19656 0.70743 0.44574 0.0
N1499 N 0.24336 0.80574 0.43347 0.0
H1500 H 0.24286 0.75625 0.38018 0.0
H1501 H 0.25544 0.78614 0.39212 0.0
H1502 H 0.24723 0.81896 0.44809 0.0
H1503 H 0.24569 0.81352 0.41583 0.0
H1504 H 0.18677 0.70176 0.46148 0.0
H1505 H 0.19301 0.69417 0.43113 0.0
H1506 H 0.20541 0.72112 0.49282 0.0
H1507 H 0.21099 0.75239 0.50318 0.0
C1508 C 0.8186 0.66711 0.45756 0.0
C1509 C 0.82247 0.68439 0.43759 0.0
C1510 C 0.80805 0.71684 0.4633 0.0
C1511 C 0.80042 0.69875 0.48157 0.0
N1512 N 0.79313 0.65499 0.4928 0.0
N1513 N 0.81222 0.72341 0.41917 0.0
C1514 C 0.80408 0.67331 0.47772 0.0
C1515 C 0.81441 0.70854 0.4397 0.0
N1516 N 0.82979 0.64545 0.4581 0.0
N1517 N 0.81102 0.74198 0.46886 0.0
H1518 H 0.81501 0.71737 0.40112 0.0
H1519 H 0.80461 0.74043 0.41978 0.0
H1520 H 0.8097 0.74893 0.48689 0.0
H1521 H 0.81835 0.75564 0.45644 0.0
H1522 H 0.82931 0.63347 0.47343 0.0
H1523 H 0.84191 0.64086 0.4446 0.0
H1524 H 0.79341 0.63587 0.48942 0.0
H1525 H 0.78139 0.65878 0.50697 0.0
C1526 C 0.82697 0.3406 0.47968 0.0
C1527 C 0.81849 0.32928 0.45591 0.0
C1528 C 0.7975 0.29199 0.47706 0.0
C1529 C 0.80249 0.30486 0.50072 0.0
N1530 N 0.81923 0.344 0.52333 0.0
N1531 N 0.79387 0.29497 0.43154 0.0
C1532 C 0.81678 0.32973 0.5018 0.0
C1533 C 0.80329 0.30514 0.45448 0.0
N1534 N 0.84499 0.36187 0.48125 0.0
N1535 N 0.78807 0.26689 0.47625 0.0
H1536 H 0.7984 0.30373 0.41472 0.0
H1537 H 0.78015 0.27883 0.42922 0.0
H1538 H 0.78476 0.25643 0.4924 0.0
H1539 H 0.78615 0.25588 0.45994 0.0
H1540 H 0.85443 0.36919 0.49816 0.0
H1541 H 0.85237 0.37094 0.46555 0.0
H1542 H 0.82597 0.36324 0.52389 0.0
H1543 H 0.81258 0.33773 0.5403 0.0
C1544 C 0.15225 0.78432 0.72769 0.0
C1545 C 0.153 0.75836 0.72241 0.0
C1546 C 0.11463 0.74793 0.74666 0.0
C1547 C 0.11116 0.77362 0.7482 0.0
N1548 N 0.12414 0.81598 0.73438 0.0
N1549 N 0.12894 0.71622 0.72101 0.0
C1550 C 0.12936 0.79187 0.73725 0.0
C1551 C 0.1325 0.74034 0.73029 0.0
N1552 N 0.17348 0.80174 0.72433 0.0
N1553 N 0.10078 0.73068 0.76094 0.0
H1554 H 0.1399 0.71032 0.7071 0.0
H1555 H 0.11297 0.70309 0.72481 0.0
H1556 H 0.08834 0.73589 0.77391 0.0
H1557 H 0.10402 0.71192 0.7619 0.0
H1558 H 0.17459 0.82053 0.72994 0.0
H1559 H 0.19091 0.7969 0.71845 0.0
H1560 H 0.13573 0.82941 0.72457 0.0
H1561 H 0.10676 0.8217 0.73929 0.0
C1562 C 0.84306 0.6987 0.7662 0.0
C1563 C 0.85491 0.69581 0.74343 0.0
C1564 C 0.85232 0.65025 0.75027 0.0
C1565 C 0.84219 0.65345 0.77375 0.0
N1566 N 0.83018 0.68022 0.80566 0.0
N1567 N 0.8735 0.66969 0.7148 0.0
C1568 C 0.83814 0.67758 0.78212 0.0
C1569 C 0.86025 0.67177 0.7357 0.0
N1570 N 0.83603 0.72152 0.77226 0.0
N1571 N 0.85367 0.62644 0.74174 0.0
H1572 H 0.87908 0.68494 0.70341 0.0
H1573 H 0.88049 0.65329 0.70955 0.0
H1574 H 0.8483 0.61048 0.75226 0.0
H1575 H 0.85832 0.6223 0.72373 0.0
H1576 H 0.82502 0.7244 0.78723 0.0
H1577 H 0.8397 0.73744 0.76125 0.0
H1578 H 0.82926 0.6975 0.81421 0.0
H1579 H 0.82611 0.66492 0.81742 0.0
C1580 C 0.88276 0.35521 0.74118 0.0
C1581 C 0.88758 0.37561 0.72441 0.0
C1582 C 0.93498 0.37361 0.7306 0.0
C1583 C 0.92999 0.35251 0.7463 0.0
N1584 N 0.89992 0.32179 0.76541 0.0
N1585 N 0.91765 0.40331 0.70156 0.0
C1586 C 0.90404 0.34297 0.7513 0.0
C1587 C 0.91358 0.3846 0.71872 0.0
N1588 N 0.85782 0.3478 0.74764 0.0
N1589 N 0.96035 0.38322 0.72743 0.0
H1590 H 0.90255 0.41225 0.69321 0.0
H1591 H 0.93564 0.40925 0.69456 0.0
H1592 H 0.97618 0.37496 0.73526 0.0
H1593 H 0.96594 0.39994 0.71827 0.0
H1594 H 0.85308 0.33488 0.76158 0.0
H1595 H 0.84165 0.35559 0.7399 0.0
H1596 H 0.88156 0.31202 0.76804 0.0
H1597 H 0.91527 0.31311 0.77366 0.0
C1598 C 0.23459 0.42889 0.74914 0.0
C1599 C 0.21269 0.43333 0.73291 0.0
C1600 C 0.23139 0.47761 0.72936 0.0
C1601 C 0.25174 0.4738 0.74776 0.0
N1602 N 0.27127 0.44666 0.77755 0.0
N1603 N 0.18885 0.4617 0.70857 0.0
C1604 C 0.25317 0.4496 0.75809 0.0
C1605 C 0.21073 0.45764 0.72321 0.0
N1606 N 0.23759 0.40484 0.75605 0.0
N1607 N 0.23229 0.50013 0.71728 0.0
H1608 H 0.17392 0.44725 0.7028 0.0
H1609 H 0.1847 0.47949 0.70332 0.0
H1610 H 0.2473 0.51503 0.72117 0.0
H1611 H 0.21952 0.5034 0.70198 0.0
H1612 H 0.25464 0.39998 0.76527 0.0
H1613 H 0.22378 0.38925 0.75096 0.0
H1614 H 0.27129 0.43024 0.78788 0.0
H1615 H 0.2852 0.46125 0.78485 0.0
C1616 C 0.14105 0.32456 0.36803 0.0
C1617 C 0.13518 0.34548 0.38171 0.0
C1618 C 0.09024 0.32468 0.38426 0.0
C1619 C 0.09474 0.30618 0.36666 0.0
N1620 N 0.12458 0.28893 0.34074 0.0
N1621 N 0.10442 0.36607 0.40304 0.0
C1622 C 0.12033 0.30585 0.35865 0.0
C1623 C 0.10991 0.34556 0.39022 0.0
N1624 N 0.16648 0.32268 0.36394 0.0
N1625 N 0.06707 0.32207 0.39529 0.0
H1626 H 0.11856 0.38137 0.40831 0.0
H1627 H 0.08563 0.36864 0.40719 0.0
H1628 H 0.05257 0.30669 0.39146 0.0
H1629 H 0.06323 0.33365 0.40984 0.0
H1630 H 0.17243 0.30663 0.35644 0.0
H1631 H 0.18204 0.33633 0.37017 0.0
H1632 H 0.14181 0.29012 0.3317 0.0
H1633 H 0.11048 0.27441 0.3337 0.0
C1634 C 0.25957 0.63079 0.34743 0.0
C1635 C 0.23465 0.63674 0.33816 0.0
C1636 C 0.22804 0.59836 0.31152 0.0
C1637 C 0.25451 0.59458 0.31788 0.0
N1638 N 0.29534 0.60643 0.34241 0.0
N1639 N 0.1918 0.62132 0.31909 0.0
C1640 C 0.27008 0.61039 0.33632 0.0
C1641 C 0.21779 0.61888 0.32266 0.0
N1642 N 0.27268 0.64418 0.36744 0.0
N1643 N 0.21323 0.58343 0.29345 0.0
H1644 H 0.18374 0.63573 0.3275 0.0
H1645 H 0.17775 0.60787 0.31001 0.0
H1646 H 0.21943 0.56771 0.28553 0.0
H1647 H 0.19527 0.58719 0.28529 0.0
H1648 H 0.29004 0.6399 0.3765 0.0
H1649 H 0.26468 0.6581 0.37674 0.0
H1650 H 0.30898 0.61885 0.35327 0.0
H1651 H 0.303 0.59092 0.33564 0.0
C1652 C 0.94202 0.71086 0.34602 0.0
C1653 C 0.92526 0.72428 0.35911 0.0
C1654 C 0.93452 0.75946 0.33073 0.0
C1655 C 0.95659 0.74917 0.32338 0.0
N1656 N 0.98217 0.71439 0.32536 0.0
N1657 N 0.9055 0.76247 0.36344 0.0
C1658 C 0.96043 0.72447 0.33097 0.0
C1659 C 0.92119 0.74882 0.35112 0.0
N1660 N 0.94006 0.68525 0.34734 0.0
N1661 N 0.92644 0.77954 0.31822 0.0
H1662 H 0.89488 0.75561 0.37832 0.0
H1663 H 0.90452 0.78145 0.35999 0.0
H1664 H 0.93545 0.78704 0.30261 0.0
H1665 H 0.90919 0.78662 0.32144 0.0
H1666 H 0.95074 0.67467 0.33664 0.0
H1667 H 0.92529 0.67438 0.35624 0.0
H1668 H 0.98707 0.69774 0.33326 0.0
H1669 H 0.99624 0.72324 0.31428 0.0
C1670 C 0.795 0.4164 0.41606 0.0
C1671 C 0.8042 0.40105 0.39778 0.0
C1672 C 0.793 0.43146 0.36576 0.0
C1673 C 0.78019 0.44446 0.38334 0.0
N1674 N 0.76241 0.44319 0.42379 0.0
N1675 N 0.80312 0.39071 0.35351 0.0
C1676 C 0.77901 0.43491 0.40803 0.0
C1677 C 0.80033 0.40747 0.37205 0.0
N1678 N 0.80282 0.41482 0.44094 0.0
N1679 N 0.80032 0.44252 0.34401 0.0
H1680 H 0.8067 0.37235 0.35724 0.0
H1681 H 0.79874 0.39423 0.33456 0.0
H1682 H 0.79875 0.46127 0.34003 0.0
H1683 H 0.81145 0.4341 0.33182 0.0
H1684 H 0.79791 0.42708 0.45444 0.0
H1685 H 0.81682 0.40372 0.44762 0.0
H1686 H 0.75968 0.43544 0.44142 0.0
H1687 H 0.74919 0.45546 0.41796 0.0
C1688 C 0.23507 0.64603 0.7286 0.0
C1689 C 0.23479 0.66868 0.74259 0.0
C1690 C 0.24141 0.64581 0.78171 0.0
C1691 C 0.24095 0.6231 0.7679 0.0
N1692 N 0.22916 0.60034 0.72893 0.0
N1693 N 0.22688 0.68677 0.78237 0.0
C1694 C 0.2354 0.62284 0.7415 0.0
C1695 C 0.2345 0.66756 0.76914 0.0
N1696 N 0.23521 0.64656 0.70305 0.0
N1697 N 0.24989 0.64715 0.80657 0.0
H1698 H 0.21942 0.70198 0.77377 0.0
H1699 H 0.22456 0.68585 0.80157 0.0
H1700 H 0.25709 0.6323 0.81606 0.0
H1701 H 0.25268 0.6639 0.81694 0.0
H1702 H 0.23883 0.63132 0.69235 0.0
H1703 H 0.23303 0.66257 0.69252 0.0
H1704 H 0.22256 0.59878 0.70999 0.0
H1705 H 0.22771 0.58312 0.73811 0.0
C1706 C 0.1689 0.44672 0.34608 0.0
C1707 C 0.18137 0.42469 0.34742 0.0
C1708 C 0.20324 0.43694 0.30932 0.0
C1709 C 0.19264 0.45997 0.30929 0.0
N1710 N 0.1669 0.48798 0.32771 0.0
N1711 N 0.21164 0.39916 0.33171 0.0
C1712 C 0.17575 0.46512 0.32766 0.0
C1713 C 0.19875 0.41979 0.32928 0.0
N1714 N 0.1503 0.4498 0.36223 0.0
N1715 N 0.21753 0.43156 0.29005 0.0
H1716 H 0.20828 0.38578 0.34563 0.0
H1717 H 0.22675 0.39587 0.32092 0.0
H1718 H 0.22166 0.44414 0.27566 0.0
H1719 H 0.22378 0.4142 0.28727 0.0
H1720 H 0.13868 0.46419 0.36092 0.0
H1721 H 0.14519 0.43685 0.37614 0.0
H1722 H 0.15673 0.49435 0.34195 0.0
H1723 H 0.17097 0.50128 0.31383 0.0
C1724 C 0.13502 0.7247 0.33293 0.0
C1725 C 0.14416 0.72231 0.35849 0.0
C1726 C 0.11086 0.74707 0.3709 0.0
C1727 C 0.09951 0.74694 0.34588 0.0
N1728 N 0.09642 0.72699 0.30483 0.0
N1729 N 0.13286 0.72284 0.40158 0.0
C1730 C 0.11026 0.73324 0.32725 0.0
C1731 C 0.12929 0.73056 0.37739 0.0
N1732 N 0.15002 0.71991 0.31406 0.0
N1733 N 0.1055 0.76398 0.38824 0.0
H1734 H 0.14527 0.70961 0.40678 0.0
H1735 H 0.12125 0.72745 0.41555 0.0
H1736 H 0.0946 0.77852 0.38356 0.0
H1737 H 0.11486 0.76555 0.40631 0.0
H1738 H 0.14485 0.72359 0.29532 0.0
H1739 H 0.16862 0.71462 0.31733 0.0
H1740 H 0.10293 0.71562 0.29144 0.0
H1741 H 0.0771 0.73023 0.30114 0.0
C1742 C 0.83906 0.60513 0.37122 0.0
C1743 C 0.83205 0.62868 0.36339 0.0
C1744 C 0.80783 0.60926 0.32538 0.0
C1745 C 0.81444 0.58554 0.33344 0.0
N1746 N 0.84077 0.56137 0.36032 0.0
N1747 N 0.81486 0.65489 0.33251 0.0
C1748 C 0.83148 0.58367 0.35529 0.0
C1749 C 0.81795 0.63114 0.34004 0.0
N1750 N 0.85264 0.60331 0.39401 0.0
N1751 N 0.79086 0.61063 0.30463 0.0
H1752 H 0.80637 0.65942 0.31508 0.0
H1753 H 0.80637 0.65942 0.31508 0.0
H1754 H 0.78452 0.59543 0.29248 0.0
H1755 H 0.78206 0.62645 0.29984 0.0
H1756 H 0.85586 0.58632 0.40219 0.0
H1757 H 0.85966 0.61892 0.40551 0.0
H1758 H 0.85492 0.55902 0.37474 0.0
H1759 H 0.83594 0.54557 0.34854 0.0
C1760 C 0.92915 0.3323 0.37321 0.0
C1761 C 0.90775 0.34294 0.36114 0.0
C1762 C 0.93289 0.35218 0.32424 0.0
C1763 C 0.9539 0.34105 0.33597 0.0
N1764 N 0.97531 0.32756 0.37406 0.0
N1765 N 0.89411 0.37175 0.32975 0.0
C1766 C 0.95299 0.3332 0.36125 0.0
C1767 C 0.91113 0.35567 0.33806 0.0
N1768 N 0.92661 0.32101 0.39595 0.0
N1769 N 0.93327 0.35853 0.29955 0.0
H1770 H 0.87923 0.37627 0.34032 0.0
H1771 H 0.89676 0.38298 0.31404 0.0
H1772 H 0.94887 0.35607 0.28897 0.0
H1773 H 0.91728 0.36424 0.28914 0.0
H1774 H 0.93999 0.30998 0.40407 0.0
H1775 H 0.91056 0.32189 0.40641 0.0
H1776 H 0.97682 0.32392 0.3932 0.0
H1777 H 0.99318 0.32903 0.36602 0.0
C1778 C 0.78909 0.47589 0.74451 0.0
C1779 C 0.81492 0.47509 0.73726 0.0
C1780 C 0.82946 0.5158 0.75826 0.0
C1781 C 0.80428 0.51601 0.76703 0.0
N1782 N 0.76152 0.49347 0.77278 0.0
N1783 N 0.86103 0.48986 0.74582 0.0
C1784 C 0.78436 0.49534 0.76126 0.0
C1785 C 0.83555 0.49369 0.74675 0.0
N1786 N 0.76902 0.45811 0.73545 0.0
N1787 N 0.84746 0.53705 0.76026 0.0
H1788 H 0.86634 0.47292 0.73967 0.0
H1789 H 0.87669 0.50209 0.75432 0.0
H1790 H 0.84337 0.55406 0.76751 0.0
H1791 H 0.86526 0.5385 0.75212 0.0
H1792 H 0.74939 0.45963 0.73724 0.0
H1793 H 0.77185 0.44228 0.72517 0.0
H1794 H 0.74759 0.47745 0.77167 0.0
H1795 H 0.75732 0.50713 0.78519 0.0
C1796 C 0.13301 0.38551 0.78275 0.0
C1797 C 0.12872 0.38403 0.75615 0.0
C1798 C 0.0834 0.36613 0.76033 0.0
C1799 C 0.08649 0.37117 0.78672 0.0
N1800 N 0.11348 0.39367 0.82098 0.0
N1801 N 0.0968 0.38129 0.72031 0.0
C1802 C 0.11105 0.38339 0.79737 0.0
C1803 C 0.10289 0.37723 0.74515 0.0
N1804 N 0.15772 0.38753 0.79431 0.0
N1805 N 0.0634 0.34915 0.74969 0.0
H1806 H 0.11028 0.39063 0.70881 0.0
H1807 H 0.07762 0.37799 0.71215 0.0
H1808 H 0.05089 0.33712 0.76 0.0
H1809 H 0.06192 0.34424 0.73067 0.0
H1810 H 0.16126 0.3866 0.81374 0.0
H1811 H 0.17433 0.38711 0.78455 0.0
H1812 H 0.1308 0.40418 0.82859 0.0
H1813 H 0.0975 0.39459 0.83152 0.0
C1814 C 0.93927 0.77719 0.71594 0.0
C1815 C 0.91645 0.77387 0.72938 0.0
C1816 C 0.9407 0.79566 0.76589 0.0
C1817 C 0.96367 0.79938 0.7526 0.0
N1818 N 0.98344 0.79871 0.71322 0.0
N1819 N 0.89341 0.78734 0.76335 0.0
C1820 C 0.96238 0.79213 0.72688 0.0
C1821 C 0.91652 0.78573 0.75305 0.0
N1822 N 0.93938 0.76481 0.69355 0.0
N1823 N 0.94217 0.79999 0.79122 0.0
H1824 H 0.87525 0.78039 0.75423 0.0
H1825 H 0.89217 0.79785 0.77955 0.0
H1826 H 0.95948 0.80707 0.80163 0.0
H1827 H 0.92662 0.79472 0.80223 0.0
H1828 H 0.9562 0.76407 0.68424 0.0
H1829 H 0.92287 0.75375 0.68502 0.0
H1830 H 0.98288 0.79592 0.69388 0.0
H1831 H 1.00085 0.80899 0.72081 0.0
C1832 C 0.71723 0.25916 0.65722 0.0
C1833 C 0.71048 0.23291 0.66088 0.0
C1834 C 0.72492 0.22513 0.61883 0.0
C1835 C 0.72935 0.25141 0.6147 0.0
N1836 N 0.71861 0.29194 0.6264 0.0
N1837 N 0.70118 0.19143 0.64152 0.0
C1838 C 0.7222 0.26802 0.63283 0.0
C1839 C 0.7124 0.21596 0.6406 0.0
N1840 N 0.72008 0.27572 0.67705 0.0
N1841 N 0.73271 0.20892 0.60211 0.0
H1842 H 0.69042 0.1844 0.65627 0.0
H1843 H 0.70007 0.17886 0.62643 0.0
H1844 H 0.74099 0.21502 0.58562 0.0
H1845 H 0.73251 0.18976 0.60548 0.0
H1846 H 0.72705 0.29478 0.67528 0.0
H1847 H 0.71849 0.27004 0.69556 0.0
H1848 H 0.71195 0.30439 0.63865 0.0
H1849 H 0.71807 0.29759 0.60776 0.0
C1850 C 0.348 0.29013 0.61146 0.0
C1851 C 0.33902 0.2756 0.6321 0.0
C1852 C 0.29495 0.28611 0.62113 0.0
C1853 C 0.3027 0.29473 0.59753 0.0
N1854 N 0.33688 0.3042 0.56942 0.0
N1855 N 0.30297 0.25995 0.65677 0.0
C1856 C 0.32938 0.29678 0.59249 0.0
C1857 C 0.31221 0.27377 0.6371 0.0
N1858 N 0.37405 0.29846 0.61037 0.0
N1859 N 0.27153 0.29085 0.62876 0.0
H1860 H 0.31486 0.25155 0.66991 0.0
H1861 H 0.28306 0.25556 0.65917 0.0
H1862 H 0.25974 0.30186 0.61822 0.0
H1863 H 0.26577 0.28701 0.64675 0.0
H1864 H 0.38123 0.31061 0.59658 0.0
H1865 H 0.38804 0.29613 0.62499 0.0
H1866 H 0.35561 0.30326 0.5639 0.0
H1867 H 0.32386 0.30958 0.5552 0.0
C1868 C 0.34527 0.87286 0.64853 0.0
C1869 C 0.34927 0.89869 0.6559 0.0
C1870 C 0.32524 0.90861 0.61652 0.0
C1871 C 0.32355 0.88328 0.60812 0.0
N1872 N 0.34159 0.84415 0.61309 0.0
N1873 N 0.35105 0.94175 0.64194 0.0
C1874 C 0.33656 0.86623 0.62317 0.0
C1875 C 0.3419 0.91679 0.63824 0.0
N1876 N 0.34825 0.85447 0.66569 0.0
N1877 N 0.30989 0.92457 0.60491 0.0
H1878 H 0.36454 0.94832 0.65685 0.0
H1879 H 0.3476 0.95532 0.62862 0.0
H1880 H 0.29573 0.91882 0.59034 0.0
H1881 H 0.30909 0.94265 0.61183 0.0
H1882 H 0.34333 0.83537 0.6612 0.0
H1883 H 0.35273 0.85818 0.6848 0.0
H1884 H 0.35257 0.83196 0.62301 0.0
H1885 H 0.33785 0.83982 0.59399 0.0
C1886 C 0.71043 0.831 0.62745 0.0
C1887 C 0.69307 0.82218 0.64568 0.0
C1888 C 0.69214 0.77901 0.62941 0.0
C1889 C 0.70487 0.78882 0.60834 0.0
N1890 N 0.72178 0.82527 0.58518 0.0
N1891 N 0.66817 0.78704 0.66514 0.0
C1892 C 0.71299 0.81512 0.60682 0.0
C1893 C 0.68423 0.79589 0.6471 0.0
N1894 N 0.72502 0.85423 0.63007 0.0
N1895 N 0.68858 0.7536 0.63298 0.0
H1896 H 0.6638 0.79827 0.67975 0.0
H1897 H 0.65838 0.76872 0.66509 0.0
H1898 H 0.6948 0.74096 0.62062 0.0
H1899 H 0.68174 0.74524 0.64919 0.0
H1900 H 0.73947 0.8606 0.61815 0.0
H1901 H 0.72518 0.86565 0.64595 0.0
H1902 H 0.72569 0.84462 0.58246 0.0
H1903 H 0.72216 0.81457 0.56898 0.0
C1904 C 0.67858 0.79326 0.44976 0.0
C1905 C 0.69243 0.8106 0.4338 0.0
C1906 C 0.73076 0.81533 0.46477 0.0
C1907 C 0.71732 0.79698 0.47984 0.0
N1908 N 0.68057 0.76511 0.48494 0.0
N1909 N 0.72858 0.8438 0.4298 0.0
C1910 C 0.69176 0.78514 0.47193 0.0
C1911 C 0.71774 0.82319 0.44225 0.0
N1912 N 0.65234 0.78562 0.44455 0.0
N1913 N 0.75621 0.82487 0.47179 0.0
H1914 H 0.71939 0.8512 0.41408 0.0
H1915 H 0.74557 0.85537 0.4364 0.0
H1916 H 0.76594 0.82036 0.48866 0.0
H1917 H 0.76837 0.83581 0.46024 0.0
H1918 H 0.64058 0.77545 0.45697 0.0
H1919 H 0.64144 0.79161 0.42905 0.0
H1920 H 0.66348 0.75357 0.47848 0.0
H1921 H 0.68966 0.75842 0.50115 0.0
C1922 C 0.69315 0.2348 0.42622 0.0
C1923 C 0.66659 0.23002 0.41626 0.0
C1924 C 0.65447 0.25431 0.45157 0.0
C1925 C 0.68008 0.25555 0.46348 0.0
N1926 N 0.72178 0.23966 0.46437 0.0
N1927 N 0.6211 0.22943 0.42448 0.0
C1928 C 0.69899 0.24383 0.45145 0.0
C1929 C 0.64694 0.23811 0.43038 0.0
N1930 N 0.71293 0.23156 0.41157 0.0
N1931 N 0.63743 0.26911 0.46003 0.0
H1932 H 0.61471 0.21591 0.41047 0.0
H1933 H 0.60638 0.23336 0.43556 0.0
H1934 H 0.64282 0.28233 0.47452 0.0
H1935 H 0.61917 0.27028 0.45069 0.0
H1936 H 0.73261 0.23689 0.41753 0.0
H1937 H 0.70965 0.22628 0.39267 0.0
H1938 H 0.73513 0.22946 0.45677 0.0
H1939 H 0.7257 0.24336 0.48354 0.0
C1940 C 0.27993 0.22043 0.43493 0.0
C1941 C 0.29958 0.20532 0.44261 0.0
C1942 C 0.28586 0.20435 0.48555 0.0
C1943 C 0.2658 0.21873 0.47769 0.0
N1944 N 0.24156 0.23879 0.44542 0.0
N1945 N 0.31995 0.18052 0.47402 0.0
C1946 C 0.26221 0.22626 0.45245 0.0
C1947 C 0.30215 0.19655 0.46761 0.0
N1948 N 0.27862 0.22948 0.41102 0.0
N1949 N 0.2896 0.19885 0.51041 0.0
H1950 H 0.33287 0.17517 0.46162 0.0
H1951 H 0.3211 0.17136 0.49111 0.0
H1952 H 0.27731 0.20371 0.52368 0.0
H1953 H 0.30545 0.19073 0.51822 0.0
H1954 H 0.26657 0.24256 0.40475 0.0
H1955 H 0.29065 0.22479 0.39745 0.0
H1956 H 0.2361 0.24315 0.42698 0.0
H1957 H 0.22877 0.24377 0.45814 0.0
C1958 C 0.32377 0.86393 0.47658 0.0
C1959 C 0.31598 0.85295 0.45245 0.0
C1960 C 0.3064 0.81131 0.47226 0.0
C1961 C 0.31547 0.82224 0.49625 0.0
N1962 N 0.33993 0.85743 0.51956 0.0
N1963 N 0.30064 0.8161 0.42687 0.0
C1964 C 0.32585 0.84819 0.49799 0.0
C1965 C 0.30717 0.8266 0.45028 0.0
N1966 N 0.32976 0.88948 0.47909 0.0
N1967 N 0.29801 0.78599 0.47041 0.0
H1968 H 0.29865 0.82691 0.41081 0.0
H1969 H 0.29746 0.79687 0.42298 0.0
H1970 H 0.29922 0.77394 0.4856 0.0
H1971 H 0.28911 0.77671 0.45423 0.0
H1972 H 0.3327 0.89878 0.49644 0.0
H1973 H 0.32961 0.90158 0.46389 0.0
H1974 H 0.35105 0.87517 0.52099 0.0
H1975 H 0.34178 0.84677 0.53574 0.0
C1976 C 0.62623 0.22754 0.72889 0.0
C1977 C 0.65345 0.23574 0.73415 0.0
C1978 C 0.64366 0.26184 0.7694 0.0
C1979 C 0.6165 0.25431 0.76361 0.0
N1980 N 0.58145 0.2335 0.73586 0.0
N1981 N 0.68794 0.26393 0.7565 0.0
C1982 C 0.60768 0.23817 0.7427 0.0
C1983 C 0.6621 0.25393 0.75354 0.0
N1984 N 0.61819 0.20901 0.71124 0.0
N1985 N 0.65176 0.27579 0.79072 0.0
H1986 H 0.70195 0.25846 0.74538 0.0
H1987 H 0.6952 0.27901 0.76852 0.0
H1988 H 0.63865 0.2818 0.80254 0.0
H1989 H 0.67124 0.27988 0.79769 0.0
H1990 H 0.59898 0.20018 0.7083 0.0
H1991 H 0.63114 0.20132 0.70041 0.0
H1992 H 0.57351 0.22393 0.71945 0.0
H1993 H 0.56764 0.24096 0.74581 0.0
C1994 C 0.37899 0.18856 0.73279 0.0
C1995 C 0.37521 0.21322 0.74012 0.0
C1996 C 0.35474 0.19649 0.77763 0.0
C1997 C 0.35983 0.17216 0.77101 0.0
N1998 N 0.37822 0.14453 0.74411 0.0
N1999 N 0.362 0.24152 0.77035 0.0
C2000 C 0.37239 0.16807 0.74905 0.0
C2001 C 0.36373 0.21743 0.7628 0.0
N2002 N 0.38844 0.18478 0.71007 0.0
N2003 N 0.34076 0.19927 0.79788 0.0
H2004 H 0.36756 0.25723 0.75955 0.0
H2005 H 0.35646 0.24621 0.78788 0.0
H2006 H 0.33476 0.1843 0.80945 0.0
H2007 H 0.3338 0.21589 0.80246 0.0
H2008 H 0.38941 0.16712 0.70238 0.0
H2009 H 0.39399 0.19944 0.69798 0.0
H2010 H 0.38954 0.14035 0.72981 0.0
H2011 H 0.37287 0.12915 0.75542 0.0
C2012 C 0.40604 0.88235 0.75387 0.0
C2013 C 0.41226 0.89974 0.73447 0.0
C2014 C 0.45921 0.89806 0.74516 0.0
C2015 C 0.45291 0.88238 0.76572 0.0
N2016 N 0.42101 0.86222 0.79198 0.0
N2017 N 0.44467 0.92633 0.71311 0.0
C2018 C 0.42647 0.87526 0.77069 0.0
C2019 C 0.43888 0.90815 0.73045 0.0
N2020 N 0.3806 0.87195 0.75568 0.0
N2021 N 0.4847 0.90283 0.73952 0.0
H2022 H 0.43029 0.93381 0.70187 0.0
H2023 H 0.46354 0.93518 0.71094 0.0
H2024 H 0.49984 0.89605 0.75038 0.0
H2025 H 0.49066 0.91197 0.72338 0.0
H2026 H 0.37504 0.85723 0.76762 0.0
H2027 H 0.36512 0.87655 0.74368 0.0
H2028 H 0.40236 0.85866 0.79835 0.0
H2029 H 0.4356 0.85649 0.80437 0.0
C2030 C 0.73352 0.91755 0.75391 0.0
C2031 C 0.70843 0.91709 0.74086 0.0
C2032 C 0.71173 0.96288 0.74659 0.0
C2033 C 0.73801 0.96367 0.75648 0.0
N2034 N 0.77541 0.9423 0.76645 0.0
N2035 N 0.67518 0.93988 0.72138 0.0
C2036 C 0.7493 0.94112 0.75949 0.0
C2037 C 0.69784 0.93992 0.73639 0.0
N2038 N 0.74201 0.89554 0.76151 0.0
N2039 N 0.70006 0.9842 0.74727 0.0
H2040 H 0.66482 0.92359 0.71289 0.0
H2041 H 0.66795 0.95625 0.71544 0.0
H2042 H 0.70985 1.00113 0.755 0.0
H2043 H 0.68019 0.98448 0.74252 0.0
H2044 H 0.75894 0.89486 0.77324 0.0
H2045 H 0.7309 0.87795 0.75798 0.0
H2046 H 0.78542 0.92672 0.7663 0.0
H2047 H 0.78754 0.95925 0.77043 0.0
C2048 C 0.5797 0.85713 0.34543 0.0
C2049 C 0.60469 0.8522 0.33913 0.0
C2050 C 0.5844 0.82424 0.30458 0.0
C2051 C 0.55954 0.82704 0.31271 0.0
N2052 N 0.53255 0.85089 0.33491 0.0
N2053 N 0.6316 0.83671 0.30945 0.0
C2054 C 0.55695 0.84533 0.3311 0.0
C2055 C 0.60727 0.83774 0.31739 0.0
N2056 N 0.57781 0.87204 0.36584 0.0
N2057 N 0.58593 0.80765 0.28546 0.0
H2058 H 0.64859 0.84629 0.31871 0.0
H2059 H 0.635 0.82785 0.29292 0.0
H2060 H 0.56926 0.79868 0.27515 0.0
H2061 H 0.60331 0.8025 0.27992 0.0
H2062 H 0.56023 0.87438 0.37316 0.0
H2063 H 0.59418 0.8816 0.37615 0.0
H2064 H 0.52891 0.86506 0.34697 0.0
H2065 H 0.51594 0.84248 0.32408 0.0
C2066 C 0.72026 0.13155 0.35259 0.0
C2067 C 0.69494 0.13191 0.34053 0.0
C2068 C 0.69412 0.08743 0.32759 0.0
C2069 C 0.72099 0.08881 0.33615 0.0
N2070 N 0.76102 0.11448 0.35204 0.0
N2071 N 0.6567 0.10954 0.31742 0.0
C2072 C 0.73441 0.11153 0.34734 0.0
C2073 C 0.68151 0.10959 0.32831 0.0
N2074 N 0.73056 0.14991 0.36977 0.0
N2075 N 0.68038 0.06474 0.3199 0.0
H2076 H 0.64574 0.12418 0.31991 0.0
H2077 H 0.64719 0.09531 0.30535 0.0
H2078 H 0.68899 0.04829 0.31911 0.0
H2079 H 0.66015 0.06173 0.31601 0.0
H2080 H 0.74808 0.14929 0.38066 0.0
H2081 H 0.72006 0.16392 0.37547 0.0
H2082 H 0.77197 0.13155 0.35796 0.0
H2083 H 0.77242 0.10084 0.34729 0.0
C2084 C 0.42354 0.27167 0.40205 0.0
C2085 C 0.42199 0.24508 0.3987 0.0
C2086 C 0.46298 0.25102 0.37799 0.0
C2087 C 0.46442 0.27741 0.38101 0.0
N2088 N 0.44439 0.31342 0.39143 0.0
N2089 N 0.43499 0.21099 0.37499 0.0
C2090 C 0.44421 0.28791 0.39185 0.0
C2091 C 0.44013 0.23517 0.3841 0.0
N2092 N 0.40528 0.28141 0.41488 0.0
N2093 N 0.48385 0.24107 0.36991 0.0
H2094 H 0.41747 0.19936 0.37723 0.0
H2095 H 0.44655 0.20358 0.36251 0.0
H2096 H 0.5011 0.2522 0.36574 0.0
H2097 H 0.485 0.22181 0.3697 0.0
H2098 H 0.40718 0.30011 0.42088 0.0
H2099 H 0.38826 0.27067 0.42014 0.0
H2100 H 0.42903 0.32247 0.39662 0.0
H2101 H 0.45939 0.32554 0.38411 0.0
C2102 C 0.28434 0.93325 0.39582 0.0
C2103 C 0.30622 0.92384 0.38649 0.0
C2104 C 0.30142 0.95033 0.34915 0.0
C2105 C 0.27661 0.95554 0.3558 0.0
N2106 N 0.24533 0.95331 0.38744 0.0
N2107 N 0.34401 0.94246 0.36605 0.0
C2108 C 0.26825 0.94726 0.37966 0.0
C2109 C 0.31745 0.93784 0.36645 0.0
N2110 N 0.28216 0.93359 0.42108 0.0
N2111 N 0.30955 0.95609 0.32591 0.0
H2112 H 0.35649 0.93716 0.3808 0.0
H2113 H 0.35326 0.95444 0.35314 0.0
H2114 H 0.29815 0.96396 0.31193 0.0
H2115 H 0.3266 0.95053 0.31982 0.0
H2116 H 0.26781 0.94174 0.42951 0.0
H2117 H 0.29762 0.9301 0.43372 0.0
H2118 H 0.23655 0.94487 0.40276 0.0
H2119 H 0.23466 0.96614 0.37818 0.0
C2120 C 0.72715 0.13315 0.77007 0.0
C2121 C 0.74363 0.15159 0.75742 0.0
C2122 C 0.78005 0.12687 0.76504 0.0
C2123 C 0.76355 0.10824 0.77745 0.0
N2124 N 0.71922 0.08979 0.78329 0.0
N2125 N 0.78189 0.15964 0.73394 0.0
C2126 C 0.73642 0.11024 0.77746 0.0
C2127 C 0.76887 0.14646 0.75204 0.0
N2128 N 0.7027 0.13751 0.77532 0.0
N2129 N 0.80655 0.12687 0.76658 0.0
H2130 H 0.77347 0.17256 0.7225 0.0
H2131 H 0.79946 0.15521 0.728 0.0
H2132 H 0.81599 0.11357 0.77645 0.0
H2133 H 0.81943 0.14167 0.76011 0.0
H2134 H 0.69134 0.12627 0.78734 0.0
H2135 H 0.69422 0.15305 0.76881 0.0
H2136 H 0.69897 0.08941 0.78135 0.0
H2137 H 0.72497 0.0722 0.78712 0.0
C2138 C 0.70291 0.91437 0.35283 0.0
C2139 C 0.683 0.91356 0.36974 0.0
C2140 C 0.70097 0.95577 0.38578 0.0
C2141 C 0.72002 0.95697 0.36811 0.0
N2142 N 0.73689 0.93994 0.33198 0.0
N2143 N 0.66046 0.93408 0.39994 0.0
C2144 C 0.72032 0.93697 0.35077 0.0
C2145 C 0.68124 0.93449 0.38556 0.0
N2146 N 0.70573 0.89324 0.33943 0.0
N2147 N 0.70224 0.97489 0.40298 0.0
H2148 H 0.64576 0.91869 0.40019 0.0
H2149 H 0.65669 0.9495 0.41025 0.0
H2150 H 0.71631 0.99083 0.40301 0.0
H2151 H 0.69058 0.9744 0.41802 0.0
H2152 H 0.7217 0.89173 0.32908 0.0
H2153 H 0.693 0.87642 0.33997 0.0
H2154 H 0.73618 0.92725 0.31707 0.0
H2155 H 0.75014 0.95617 0.33017 0.0
C2156 C 0.62192 0.24407 0.31611 0.0
C2157 C 0.61313 0.22572 0.33366 0.0
C2158 C 0.56758 0.23105 0.32097 0.0
C2159 C 0.57654 0.2522 0.30653 0.0
N2160 N 0.61284 0.2806 0.29233 0.0
N2161 N 0.57778 0.20227 0.35409 0.0
C2162 C 0.60386 0.25897 0.30423 0.0
C2163 C 0.58596 0.21915 0.33627 0.0
N2164 N 0.64762 0.24732 0.31091 0.0
N2165 N 0.54144 0.22218 0.31974 0.0
H2166 H 0.59058 0.19264 0.36515 0.0
H2167 H 0.55856 0.19898 0.35907 0.0
H2168 H 0.5276 0.23027 0.30834 0.0
H2169 H 0.53376 0.20551 0.32799 0.0
H2170 H 0.65475 0.25847 0.29638 0.0
H2171 H 0.66139 0.23701 0.31965 0.0
H2172 H 0.63256 0.28799 0.29273 0.0
H2173 H 0.60066 0.29241 0.28358 0.0
C2174 C 0.30373 0.14469 0.35673 0.0
C2175 C 0.32128 0.14514 0.37859 0.0
C2176 C 0.32504 0.10047 0.3721 0.0
C2177 C 0.30671 0.0998 0.35094 0.0
N2178 N 0.276 0.11956 0.3245 0.0
N2179 N 0.34629 0.12333 0.40918 0.0
C2180 C 0.29523 0.12145 0.34372 0.0
C2181 C 0.33131 0.12296 0.38689 0.0
N2182 N 0.2958 0.16664 0.34809 0.0
N2183 N 0.33672 0.07958 0.37765 0.0
H2184 H 0.35169 0.13961 0.42017 0.0
H2185 H 0.3521 0.10733 0.41764 0.0
H2186 H 0.33154 0.06262 0.36769 0.0
H2187 H 0.35232 0.07928 0.39112 0.0
H2188 H 0.28522 0.1682 0.33092 0.0
H2189 H 0.30128 0.18394 0.35736 0.0
H2190 H 0.26481 0.13378 0.31964 0.0
H2191 H 0.26993 0.10289 0.31435 0.0
C2192 C 0.38851 0.80598 0.36885 0.0
C2193 C 0.38916 0.83135 0.36093 0.0
C2194 C 0.43294 0.82967 0.3465 0.0
C2195 C 0.42947 0.8032 0.34947 0.0
N2196 N 0.40257 0.76553 0.36117 0.0
N2197 N 0.41304 0.868 0.34286 0.0
C2198 C 0.40695 0.79118 0.36019 0.0
C2199 C 0.41179 0.84345 0.35007 0.0
N2200 N 0.37101 0.79625 0.38532 0.0
N2201 N 0.45689 0.8417 0.34133 0.0
H2202 H 0.39913 0.87948 0.34684 0.0
H2203 H 0.42736 0.8767 0.3319 0.0
H2204 H 0.47294 0.8321 0.33981 0.0
H2205 H 0.46161 0.86121 0.3412 0.0
H2206 H 0.37113 0.77847 0.3931 0.0
H2207 H 0.35872 0.80706 0.39376 0.0
H2208 H 0.38513 0.75562 0.36646 0.0
H2209 H 0.41539 0.75413 0.35447 0.0
C2210 C 0.35398 0.01467 0.74398 0.0
C2211 C 0.33439 0.99547 0.73376 0.0
C2212 C 0.3012 0.01573 0.7539 0.0
C2213 C 0.32034 0.03688 0.76024 0.0
N2214 N 0.36399 0.05843 0.75666 0.0
N2215 N 0.28875 0.97743 0.72904 0.0
C2216 C 0.34644 0.03691 0.75385 0.0
C2217 C 0.30777 0.99591 0.73873 0.0
N2218 N 0.37976 1.01129 0.74539 0.0
N2219 N 0.27729 1.01382 0.76351 0.0
H2220 H 0.29279 0.96133 0.71996 0.0
H2221 H 0.26882 0.97857 0.72911 0.0
H2222 H 0.27174 0.02777 0.77477 0.0
H2223 H 0.26372 0.99753 0.7621 0.0
H2224 H 0.39455 0.02402 0.75454 0.0
H2225 H 0.38596 0.99433 0.74053 0.0
H2226 H 0.38261 0.06003 0.75012 0.0
H2227 H 0.35896 0.07545 0.76296 0.0
C2228 C 0.60731 0.86606 0.73651 0.0
C2229 C 0.62864 0.85283 0.74366 0.0
C2230 C 0.59974 0.82271 0.76664 0.0
C2231 C 0.57985 0.83839 0.76314 0.0
N2232 N 0.5641 0.87507 0.74493 0.0
N2233 N 0.64614 0.81993 0.76748 0.0
C2234 C 0.58344 0.86006 0.748 0.0
C2235 C 0.62508 0.83135 0.75907 0.0
N2236 N 0.60966 0.88379 0.71818 0.0
N2237 N 0.59442 0.79956 0.77709 0.0
H2238 H 0.6651 0.82588 0.76256 0.0
H2239 H 0.64525 0.80598 0.78102 0.0
H2240 H 0.57593 0.79251 0.78242 0.0
H2241 H 0.60745 0.78634 0.77792 0.0
H2242 H 0.59406 0.89234 0.71042 0.0
H2243 H 0.62673 0.88836 0.70905 0.0
H2244 H 0.56671 0.89281 0.73687 0.0
H2245 H 0.54561 0.87018 0.75146 0.0
C2246 C 0.46792 0.27165 0.71586 0.0
C2247 C 0.44564 0.28216 0.72236 0.0
C2248 C 0.47354 0.31314 0.74987 0.0
C2249 C 0.49447 0.29901 0.7477 0.0
N2250 N 0.51358 0.26716 0.72669 0.0
N2251 N 0.42659 0.3134 0.74468 0.0
C2252 C 0.49237 0.27924 0.72966 0.0
C2253 C 0.44833 0.30348 0.73866 0.0
N2254 N 0.46541 0.25423 0.69677 0.0
N2255 N 0.47772 0.33542 0.76298 0.0
H2256 H 0.40788 0.30719 0.73639 0.0
H2257 H 0.42678 0.32684 0.75883 0.0
H2258 H 0.49613 0.34304 0.77097 0.0
H2259 H 0.46374 0.3476 0.76372 0.0
H2260 H 0.4811 0.24695 0.68981 0.0
H2261 H 0.44757 0.24848 0.68649 0.0
H2262 H 0.51291 0.25073 0.71609 0.0
H2263 H 0.53204 0.27352 0.73554 0.0
C2264 C 0.70113 0.75032 0.17334 0.0
C2265 C 0.67928 0.73125 0.16856 0.0
C2266 C 0.6766 0.74285 0.12385 0.0
C2267 C 0.69711 0.763 0.12903 0.0
N2268 N 0.72743 0.78781 0.15858 0.0
N2269 N 0.64465 0.71051 0.13984 0.0
C2270 C 0.70906 0.76715 0.15377 0.0
C2271 C 0.6666 0.72783 0.14392 0.0
N2272 N 0.71445 0.75212 0.19655 0.0
N2273 N 0.66728 0.73775 0.09948 0.0
H2274 H 0.6374 0.6985 0.15375 0.0
H2275 H 0.63271 0.7089 0.12316 0.0
H2276 H 0.67419 0.74861 0.08461 0.0
H2277 H 0.65419 0.72191 0.09372 0.0
H2278 H 0.73207 0.76376 0.20074 0.0
H2279 H 0.70871 0.74067 0.21143 0.0
H2280 H 0.73538 0.79364 0.17648 0.0
H2281 H 0.73357 0.80024 0.14458 0.0
C2282 C 0.28992 0.71476 0.09194 0.0
C2283 C 0.31612 0.72679 0.0964 0.0
C2284 C 0.31604 0.74005 0.05234 0.0
C2285 C 0.28916 0.73013 0.04872 0.0
N2286 N 0.2493 0.71092 0.06562 0.0
N2287 N 0.35662 0.74309 0.07898 0.0
C2288 C 0.27584 0.71798 0.06856 0.0
C2289 C 0.32996 0.73726 0.07604 0.0
N2290 N 0.2788 0.69932 0.10964 0.0
N2291 N 0.32807 0.75261 0.03325 0.0
H2292 H 0.36769 0.73985 0.09551 0.0
H2293 H 0.36824 0.74868 0.06444 0.0
H2294 H 0.31884 0.75383 0.01531 0.0
H2295 H 0.34661 0.76306 0.0354 0.0
H2296 H 0.26104 0.68765 0.10635 0.0
H2297 H 0.28845 0.69591 0.12684 0.0
H2298 H 0.238 0.70471 0.08023 0.0
H2299 H 0.23788 0.71348 0.04913 0.0
C2300 C 0.32703 0.37086 0.13834 0.0
C2301 C 0.32064 0.36234 0.16255 0.0
C2302 C 0.29519 0.32397 0.14321 0.0
C2303 C 0.29792 0.33439 0.11915 0.0
N2304 N 0.31741 0.36687 0.09304 0.0
N2305 N 0.29723 0.33135 0.18817 0.0
C2306 C 0.31446 0.35747 0.11651 0.0
C2307 C 0.30453 0.33888 0.16503 0.0
N2308 N 0.34541 0.39149 0.13629 0.0
N2309 N 0.28386 0.29957 0.14498 0.0
H2310 H 0.30342 0.3418 0.20457 0.0
H2311 H 0.28338 0.3158 0.19093 0.0
H2312 H 0.27828 0.2882 0.12904 0.0
H2313 H 0.2828 0.28988 0.1618 0.0
H2314 H 0.35286 0.39739 0.11944 0.0
H2315 H 0.35457 0.40189 0.15185 0.0
H2316 H 0.32623 0.38501 0.08954 0.0
H2317 H 0.31034 0.3563 0.0769 0.0
C2318 C 0.72928 0.34609 0.12878 0.0
C2319 C 0.73234 0.36771 0.14481 0.0
C2320 C 0.77839 0.37617 0.13505 0.0
C2321 C 0.77369 0.35735 0.11598 0.0
N2322 N 0.74136 0.33027 0.08972 0.0
N2323 N 0.75967 0.40681 0.15839 0.0
C2324 C 0.74814 0.344 0.11134 0.0
C2325 C 0.75683 0.38387 0.14655 0.0
N2326 N 0.70904 0.32709 0.13046 0.0
N2327 N 0.80344 0.38599 0.14299 0.0
H2328 H 0.74455 0.41424 0.16617 0.0
H2329 H 0.77658 0.4198 0.15798 0.0
H2330 H 0.81972 0.37978 0.13595 0.0
H2331 H 0.80796 0.39811 0.15849 0.0
H2332 H 0.70752 0.31036 0.12008 0.0
H2333 H 0.69582 0.32646 0.14426 0.0
H2334 H 0.72228 0.32169 0.08482 0.0
H2335 H 0.75385 0.33038 0.07534 0.0
C2336 C 0.77701 0.34535 0.95367 0.0
C2337 C 0.74936 0.34273 0.95333 0.0
C2338 C 0.75216 0.32464 0.99573 0.0
C2339 C 0.77941 0.32405 0.99415 0.0
N2340 N 0.81592 0.32789 0.96819 0.0
N2341 N 0.71007 0.32935 0.97422 0.0
C2342 C 0.7912 0.33253 0.97203 0.0
C2343 C 0.73675 0.33211 0.97439 0.0
N2344 N 0.79003 0.36106 0.93733 0.0
N2345 N 0.74123 0.3196 0.01794 0.0
H2346 H 0.69813 0.33699 0.96051 0.0
H2347 H 0.69963 0.31857 0.98722 0.0
H2348 H 0.75151 0.31377 0.03386 0.0
H2349 H 0.7224 0.32291 0.0212 0.0
H2350 H 0.81038 0.36507 0.93836 0.0
H2351 H 0.7807 0.37271 0.92507 0.0
H2352 H 0.82442 0.33171 0.95131 0.0
H2353 H 0.82667 0.31762 0.98066 0.0
C2354 C 0.68881 0.73884 0.97151 0.0
C2355 C 0.70101 0.74563 0.94916 0.0
C2356 C 0.73965 0.76699 0.97431 0.0
C2357 C 0.72565 0.76381 0.99614 0.0
N2358 N 0.6875 0.746 0.01629 0.0
N2359 N 0.7377 0.76648 0.92869 0.0
C2360 C 0.70048 0.74925 0.99495 0.0
C2361 C 0.72652 0.75952 0.95041 0.0
N2362 N 0.66625 0.7221 0.9703 0.0
N2363 N 0.76543 0.77715 0.97649 0.0
H2364 H 0.72884 0.76098 0.91095 0.0
H2365 H 0.7549 0.77897 0.92806 0.0
H2366 H 0.77558 0.78223 0.99376 0.0
H2367 H 0.77745 0.77829 0.96168 0.0
H2368 H 0.65766 0.7144 0.986 0.0
H2369 H 0.65708 0.71427 0.95345 0.0
H2370 H 0.66784 0.73858 0.01644 0.0
H2371 H 0.69633 0.75163 0.03403 0.0
C2372 C 0.26349 0.69791 0.87572 0.0
C2373 C 0.28555 0.68513 0.88138 0.0
C2374 C 0.27658 0.6836 0.92588 0.0
C2375 C 0.25466 0.6963 0.92015 0.0
N2376 N 0.22447 0.71234 0.89014 0.0
N2377 N 0.31152 0.66293 0.91089 0.0
C2378 C 0.24721 0.70234 0.89512 0.0
C2379 C 0.29149 0.67692 0.90619 0.0
N2380 N 0.25871 0.70654 0.85197 0.0
N2381 N 0.2836 0.67891 0.95043 0.0
H2382 H 0.32375 0.65882 0.89729 0.0
H2383 H 0.31528 0.65416 0.92786 0.0
H2384 H 0.27242 0.68286 0.965 0.0
H2385 H 0.30092 0.67226 0.95664 0.0
H2386 H 0.24469 0.7182 0.84703 0.0
H2387 H 0.26975 0.70304 0.83716 0.0
H2388 H 0.21629 0.71521 0.87215 0.0
H2389 H 0.2127 0.71627 0.90424 0.0
C2390 C 0.32146 0.39882 0.96517 0.0
C2391 C 0.3302 0.37939 0.95108 0.0
C2392 C 0.31106 0.34922 0.98127 0.0
C2393 C 0.29738 0.36779 0.9914 0.0
N2394 N 0.28537 0.40967 0.98696 0.0
N2395 N 0.32692 0.33443 0.94338 0.0
C2396 C 0.3014 0.39249 0.98166 0.0
C2397 C 0.32321 0.35404 0.95842 0.0
N2398 N 0.33275 0.42325 0.96355 0.0
N2399 N 0.31404 0.3277 0.99404 0.0
H2400 H 0.33382 0.33691 0.92563 0.0
H2401 H 0.32017 0.31576 0.94745 0.0
H2402 H 0.30858 0.32489 1.01229 0.0
H2403 H 0.32525 0.31447 0.98786 0.0
H2404 H 0.32798 0.4376 0.97483 0.0
H2405 H 0.34898 0.42848 0.95335 0.0
H2406 H 0.28671 0.42736 0.97871 0.0
H2407 H 0.26881 0.40512 0.99683 0.0
C2408 C 0.58883 0.70577 0.22496 0.0
C2409 C 0.6149 0.71421 0.23482 0.0
C2410 C 0.59819 0.73329 0.27115 0.0
C2411 C 0.57235 0.72329 0.26218 0.0
N2412 N 0.54252 0.69851 0.23226 0.0
N2413 N 0.64494 0.73427 0.26799 0.0
C2414 C 0.56753 0.70917 0.23947 0.0
C2415 C 0.61973 0.72757 0.25812 0.0
N2416 N 0.58451 0.69478 0.20159 0.0
N2417 N 0.60189 0.74877 0.29186 0.0
H2418 H 0.66116 0.73133 0.25849 0.0
H2419 H 0.64992 0.74154 0.28607 0.0
H2420 H 0.58644 0.75284 0.3019 0.0
H2421 H 0.61984 0.75892 0.29817 0.0
H2422 H 0.56607 0.69033 0.19217 0.0
H2423 H 0.59965 0.69149 0.19074 0.0
H2424 H 0.53753 0.68596 0.21721 0.0
H2425 H 0.5267 0.70102 0.24253 0.0
C2426 C 0.29989 0.65091 0.20971 0.0
C2427 C 0.31812 0.6468 0.1921 0.0
C2428 C 0.30038 0.60186 0.18971 0.0
C2429 C 0.28377 0.60565 0.20878 0.0
N2430 N 0.2709 0.63262 0.24031 0.0
N2431 N 0.3385 0.61796 0.16791 0.0
C2432 C 0.28435 0.6299 0.21969 0.0
C2433 C 0.31912 0.62213 0.18275 0.0
N2434 N 0.29685 0.67495 0.21631 0.0
N2435 N 0.29769 0.57891 0.1779 0.0
H2436 H 0.35261 0.63233 0.16254 0.0
H2437 H 0.34194 0.60009 0.16255 0.0
H2438 H 0.28409 0.56384 0.18277 0.0
H2439 H 0.30729 0.57536 0.16213 0.0
H2440 H 0.28193 0.67921 0.22692 0.0
H2441 H 0.30787 0.69084 0.20945 0.0
H2442 H 0.27281 0.64924 0.25086 0.0
H2443 H 0.2595 0.61762 0.24823 0.0
C2444 C 0.44095 0.34616 0.23563 0.0
C2445 C 0.42607 0.36135 0.24905 0.0
C2446 C 0.44764 0.34821 0.28841 0.0
C2447 C 0.46681 0.33888 0.2747 0.0
N2448 N 0.48213 0.32953 0.23463 0.0
N2449 N 0.414 0.37541 0.28903 0.0
C2450 C 0.4634 0.33759 0.24811 0.0
C2451 C 0.42881 0.36168 0.27573 0.0
N2452 N 0.4333 0.33936 0.21124 0.0
N2453 N 0.4471 0.34361 0.31353 0.0
H2454 H 0.39879 0.38423 0.28078 0.0
H2455 H 0.41765 0.37909 0.30823 0.0
H2456 H 0.46006 0.33301 0.32314 0.0
H2457 H 0.43219 0.34783 0.32417 0.0
H2458 H 0.44236 0.32678 0.20119 0.0
H2459 H 0.41587 0.34362 0.20218 0.0
H2460 H 0.48198 0.331 0.21518 0.0
H2461 H 0.49882 0.32309 0.24298 0.0
C2462 C 0.75755 0.43677 0.25981 0.0
C2463 C 0.73661 0.43586 0.24091 0.0
C2464 C 0.74497 0.48169 0.23689 0.0
C2465 C 0.76137 0.48271 0.25941 0.0
N2466 N 0.79395 0.46264 0.28291 0.0
N2467 N 0.71135 0.45684 0.20964 0.0
C2468 C 0.77114 0.46058 0.26792 0.0
C2469 C 0.73093 0.45813 0.22853 0.0
N2470 N 0.76342 0.41508 0.27089 0.0
N2471 N 0.74407 0.50289 0.22296 0.0
H2472 H 0.7012 0.43985 0.20244 0.0
H2473 H 0.70418 0.47262 0.20199 0.0
H2474 H 0.75667 0.51949 0.22744 0.0
H2475 H 0.73374 0.50316 0.20547 0.0
H2476 H 0.77639 0.41479 0.28677 0.0
H2477 H 0.75421 0.39728 0.26491 0.0
H2478 H 0.80357 0.44737 0.28799 0.0
H2479 H 0.80477 0.48016 0.28765 0.0
C2480 C 0.64019 0.3909 0.86769 0.0
C2481 C 0.66554 0.38712 0.86142 0.0
C2482 C 0.64652 0.35729 0.8279 0.0
C2483 C 0.62126 0.35977 0.8353 0.0
N2484 N 0.59305 0.38247 0.85764 0.0
N2485 N 0.69329 0.37178 0.8324 0.0
C2486 C 0.61779 0.37796 0.85361 0.0
C2487 C 0.66882 0.37204 0.84033 0.0
N2488 N 0.63769 0.40598 0.88781 0.0
N2489 N 0.64908 0.34001 0.80968 0.0
H2490 H 0.71004 0.38206 0.84142 0.0
H2491 H 0.69697 0.36295 0.81594 0.0
H2492 H 0.63298 0.33013 0.79923 0.0
H2493 H 0.66687 0.3348 0.80533 0.0
H2494 H 0.62001 0.40752 0.8953 0.0
H2495 H 0.65374 0.4165 0.89775 0.0
H2496 H 0.58896 0.39675 0.86932 0.0
H2497 H 0.5764 0.373 0.8477 0.0
C2498 C 0.70728 0.65654 0.82797 0.0
C2499 C 0.70958 0.66333 0.85388 0.0
C2500 C 0.73204 0.62639 0.86266 0.0
C2501 C 0.736 0.62425 0.83683 0.0
N2502 N 0.72734 0.63785 0.79433 0.0
N2503 N 0.72328 0.65324 0.89653 0.0
C2504 C 0.72319 0.63912 0.81919 0.0
C2505 C 0.72128 0.64753 0.87148 0.0
N2506 N 0.68963 0.66634 0.81186 0.0
N2507 N 0.73841 0.60799 0.87872 0.0
H2508 H 0.71456 0.66763 0.90404 0.0
H2509 H 0.73471 0.64445 0.90977 0.0
H2510 H 0.74562 0.59196 0.87256 0.0
H2511 H 0.73389 0.60724 0.89738 0.0
H2512 H 0.68585 0.66068 0.7931 0.0
H2513 H 0.67637 0.67756 0.81808 0.0
H2514 H 0.72092 0.65043 0.7812 0.0
H2515 H 0.73873 0.62537 0.7871 0.0
C2516 C 0.42121 0.73201 0.82421 0.0
C2517 C 0.39852 0.74329 0.82799 0.0
C2518 C 0.41699 0.7803 0.80536 0.0
C2519 C 0.44187 0.77206 0.80852 0.0
N2520 N 0.468 0.73939 0.82106 0.0
N2521 N 0.37348 0.77774 0.81965 0.0
C2522 C 0.44408 0.74747 0.81742 0.0
C2523 C 0.39578 0.76715 0.81737 0.0
N2524 N 0.42082 0.70664 0.82675 0.0
N2525 N 0.41387 0.80079 0.79089 0.0
H2526 H 0.35696 0.76836 0.82723 0.0
H2527 H 0.37181 0.79636 0.8151 0.0
H2528 H 0.4292 0.81025 0.78152 0.0
H2529 H 0.39577 0.80667 0.78609 0.0
H2530 H 0.43631 0.69727 0.82241 0.0
H2531 H 0.40381 0.69463 0.83 0.0
H2532 H 0.47082 0.72286 0.83046 0.0
H2533 H 0.48527 0.74984 0.81613 0.0
C2534 C 0.31925 0.43101 0.8606 0.0
C2535 C 0.34229 0.43493 0.8772 0.0
C2536 C 0.34575 0.48047 0.8698 0.0
C2537 C 0.32113 0.47673 0.85581 0.0
N2538 N 0.28262 0.44912 0.84035 0.0
N2539 N 0.37597 0.46373 0.90014 0.0
C2540 C 0.30745 0.45213 0.8517 0.0
C2541 C 0.35531 0.45976 0.88235 0.0
N2542 N 0.30887 0.40707 0.85315 0.0
N2543 N 0.36013 0.50384 0.87066 0.0
H2544 H 0.38365 0.44916 0.90975 0.0
H2545 H 0.38432 0.48154 0.90675 0.0
H2546 H 0.35345 0.51923 0.8616 0.0
H2547 H 0.37939 0.50747 0.87842 0.0
H2548 H 0.29357 0.40304 0.83927 0.0
H2549 H 0.31717 0.39126 0.85928 0.0
H2550 H 0.27043 0.43195 0.83908 0.0
H2551 H 0.2734 0.46429 0.83394 0.0
C2552 C 0.68535 0.62601 0.27785 0.0
C2553 C 0.69465 0.62852 0.25345 0.0
C2554 C 0.70393 0.58454 0.25559 0.0
C2555 C 0.69913 0.584 0.28133 0.0
N2556 N 0.68651 0.60421 0.31764 0.0
N2557 N 0.71031 0.60903 0.21782 0.0
C2558 C 0.68996 0.60468 0.29257 0.0
C2559 C 0.70296 0.60729 0.24184 0.0
N2560 N 0.67131 0.64352 0.28664 0.0
N2561 N 0.70895 0.56298 0.24432 0.0
H2562 H 0.70755 0.62428 0.20635 0.0
H2563 H 0.7197 0.59569 0.20929 0.0
H2564 H 0.70955 0.54623 0.25407 0.0
H2565 H 0.71053 0.56099 0.22515 0.0
H2566 H 0.66216 0.6416 0.30334 0.0
H2567 H 0.66617 0.65854 0.27593 0.0
H2568 H 0.68281 0.61978 0.32779 0.0
H2569 H 0.68921 0.58859 0.32865 0.0
C2570 C 0.73694 0.47343 0.89911 0.0
C2571 C 0.74291 0.45155 0.88694 0.0
C2572 C 0.77634 0.47751 0.86458 0.0
C2573 C 0.76847 0.49943 0.87477 0.0
N2574 N 0.74029 0.51913 0.89983 0.0
N2575 N 0.76713 0.43228 0.85724 0.0
C2576 C 0.74867 0.49762 0.89176 0.0
C2577 C 0.76246 0.45343 0.86954 0.0
N2578 N 0.72012 0.471 0.91774 0.0
N2579 N 0.79738 0.47993 0.8504 0.0
H2580 H 0.75801 0.41427 0.86111 0.0
H2581 H 0.77895 0.43254 0.84234 0.0
H2582 H 0.8077 0.49743 0.84654 0.0
H2583 H 0.80583 0.46482 0.84401 0.0
H2584 H 0.71686 0.4859 0.92907 0.0
H2585 H 0.71073 0.45362 0.92316 0.0
H2586 H 0.72401 0.51935 0.91007 0.0
H2587 H 0.74875 0.53703 0.89485 0.0
C2588 C 0.62291 0.76088 0.85745 0.0
C2589 C 0.6279 0.75587 0.8834 0.0
C2590 C 0.5916 0.77905 0.89203 0.0
C2591 C 0.58393 0.77998 0.86601 0.0
N2592 N 0.58841 0.76306 0.82484 0.0
N2593 N 0.61039 0.7541 0.92428 0.0
C2594 C 0.59851 0.76853 0.84885 0.0
C2595 C 0.6104 0.76326 0.90048 0.0
N2596 N 0.6415 0.75919 0.84101 0.0
N2597 N 0.58144 0.79358 0.90872 0.0
H2598 H 0.62178 0.74044 0.93057 0.0
H2599 H 0.59658 0.75768 0.93656 0.0
H2600 H 0.56894 0.80655 0.90304 0.0
H2601 H 0.58795 0.79481 0.92772 0.0
H2602 H 0.63901 0.76441 0.82227 0.0
H2603 H 0.66036 0.75559 0.84673 0.0
H2604 H 0.59775 0.75297 0.81237 0.0
H2605 H 0.5693 0.76541 0.81864 0.0
C2606 C 0.31695 0.63311 0.79082 0.0
C2607 C 0.32277 0.63329 0.81722 0.0
C2608 C 0.3332 0.58997 0.81479 0.0
C2609 C 0.32883 0.59053 0.78824 0.0
N2610 N 0.32186 0.61432 0.75057 0.0
N2611 N 0.33991 0.61359 0.85425 0.0
C2612 C 0.32255 0.61271 0.77616 0.0
C2613 C 0.33159 0.61206 0.82928 0.0
N2614 N 0.30519 0.65213 0.77983 0.0
N2615 N 0.33982 0.56861 0.82601 0.0
H2616 H 0.3394 0.62953 0.86533 0.0
H2617 H 0.34901 0.5999 0.86381 0.0
H2618 H 0.3434 0.55296 0.81585 0.0
H2619 H 0.34066 0.56579 0.84529 0.0
H2620 H 0.29787 0.65173 0.7611 0.0
H2621 H 0.30028 0.66723 0.78998 0.0
H2622 H 0.32069 0.63105 0.74098 0.0
H2623 H 0.32397 0.59924 0.73886 0.0
C2624 C 0.4372 0.3248 0.88351 0.0
C2625 C 0.43212 0.34933 0.87648 0.0
C2626 C 0.47572 0.3566 0.85978 0.0
C2627 C 0.47806 0.33062 0.86222 0.0
N2628 N 0.45891 0.28915 0.87353 0.0
N2629 N 0.4474 0.38923 0.85812 0.0
C2630 C 0.45828 0.31452 0.87346 0.0
C2631 C 0.45174 0.36549 0.86479 0.0
N2632 N 0.42249 0.31157 0.90043 0.0
N2633 N 0.49688 0.37297 0.85378 0.0
H2634 H 0.43124 0.39721 0.86314 0.0
H2635 H 0.45928 0.40062 0.84666 0.0
H2636 H 0.51492 0.36718 0.85111 0.0
H2637 H 0.4974 0.39246 0.854 0.0
H2638 H 0.42666 0.2944 0.90763 0.0
H2639 H 0.4084 0.31927 0.90976 0.0
H2640 H 0.44365 0.27624 0.87925 0.0
H2641 H 0.47343 0.28088 0.86544 0.0
C2642 C 0.29296 0.42776 0.23331 0.0
C2643 C 0.31994 0.43095 0.22887 0.0
C2644 C 0.32518 0.47267 0.25021 0.0
C2645 C 0.29787 0.46994 0.25301 0.0
N2646 N 0.25515 0.44861 0.23869 0.0
N2647 N 0.36026 0.45942 0.22785 0.0
C2648 C 0.2816 0.4486 0.24194 0.0
C2649 C 0.33563 0.45435 0.23576 0.0
N2650 N 0.27829 0.40456 0.23064 0.0
N2651 N 0.3413 0.49219 0.26203 0.0
H2652 H 0.36818 0.44692 0.21662 0.0
H2653 H 0.37172 0.47694 0.23026 0.0
H2654 H 0.33431 0.50595 0.27248 0.0
H2655 H 0.36165 0.49366 0.263 0.0
H2656 H 0.25922 0.40093 0.23606 0.0
H2657 H 0.28593 0.38839 0.22569 0.0
H2658 H 0.24258 0.43445 0.2288 0.0
H2659 H 0.2463 0.46422 0.24316 0.0
C2660 C 0.63293 0.38639 0.24505 0.0
C2661 C 0.65604 0.37534 0.25113 0.0
C2662 C 0.63612 0.35398 0.28692 0.0
C2663 C 0.61281 0.36433 0.28031 0.0
N2664 N 0.58717 0.38756 0.25207 0.0
N2665 N 0.67896 0.34631 0.27559 0.0
C2666 C 0.6107 0.37973 0.25902 0.0
C2667 C 0.65741 0.3584 0.27142 0.0
N2668 N 0.63256 0.40369 0.22632 0.0
N2669 N 0.63792 0.3404 0.30842 0.0
H2670 H 0.69516 0.34955 0.26499 0.0
H2671 H 0.68025 0.33186 0.28838 0.0
H2672 H 0.62229 0.33626 0.31961 0.0
H2673 H 0.6551 0.33436 0.31601 0.0
H2674 H 0.61749 0.4145 0.2226 0.0
H2675 H 0.64811 0.40824 0.2151 0.0
H2676 H 0.58317 0.39676 0.23539 0.0
H2677 H 0.57092 0.38346 0.2625 0.0
C2678 C 0.39142 0.73514 0.22204 0.0
C2679 C 0.39552 0.7144 0.20693 0.0
C2680 C 0.44103 0.7175 0.22476 0.0
C2681 C 0.43696 0.73831 0.23978 0.0
N2682 N 0.41045 0.76995 0.24987 0.0
N2683 N 0.42477 0.6883 0.19041 0.0
C2684 C 0.41282 0.74815 0.23741 0.0
C2685 C 0.42055 0.70635 0.20721 0.0
N2686 N 0.36682 0.74178 0.2223 0.0
N2687 N 0.46437 0.7081 0.22778 0.0
H2688 H 0.41001 0.67923 0.1778 0.0
H2689 H 0.44313 0.68337 0.18772 0.0
H2690 H 0.48038 0.71686 0.23917 0.0
H2691 H 0.46768 0.69117 0.21987 0.0
H2692 H 0.36173 0.7548 0.23487 0.0
H2693 H 0.35083 0.73305 0.21088 0.0
H2694 H 0.3943 0.77955 0.24722 0.0
H2695 H 0.42565 0.77965 0.26155 0.0
loop_
_geom_bond_atom_site_label_1
_geom_bond_atom_site_label_2
_geom_bond_distance
_geom_bond_site_symmetry_2
_ccdc_geom_bond_type
H0 C7 0.929 . S
H1 C10 0.930 . S
H2 C12 0.929 . S
H3 C4 0.969 . S
C4 H3 0.969 . S
C4 O5 1.550 . S
C4 H6 0.973 . S
O5 C4 1.550 . S
O5 C11 1.412 . S
H6 C4 0.973 . S
C7 H0 0.929 . S
C7 C8 1.400 . S
C7 C9 1.364 . S
C8 C7 1.400 . S
C8 C12 1.377 . S
C9 C7 1.364 . S
C9 C10 1.374 . S
C10 H1 0.930 . S
C10 C9 1.374 . S
C10 C11 1.383 . S
C11 O5 1.412 . S
C11 C10 1.383 . S
C11 C12 1.394 . S
C12 H2 0.929 . S
C12 C8 1.377 . S
C12 C11 1.394 . S
H13 C20 0.929 . S
H14 C23 0.930 . S
H15 C25 0.929 . S
H16 C17 0.969 . S
C17 H16 0.969 . S
C17 O18 1.550 . S
C17 H19 0.973 . S
O18 C17 1.550 . S
O18 C24 1.412 . S
H19 C17 0.973 . S
C20 H13 0.929 . S
C20 C21 1.400 . S
C20 C22 1.364 . S
C21 C20 1.400 . S
C21 C25 1.377 . S
C22 C20 1.364 . S
C22 C23 1.374 . S
C23 H14 0.930 . S
C23 C22 1.374 . S
C23 C24 1.383 . S
C24 O18 1.412 . S
C24 C23 1.383 . S
C24 C25 1.394 . S
C25 H15 0.929 . S
C25 C21 1.377 . S
C25 C24 1.394 . S
H26 C33 0.929 . S
H27 C36 0.930 . S
H28 C38 0.929 . S
H29 C30 0.969 . S
C30 H29 0.969 . S
C30 O31 1.550 . S
C30 H32 0.973 . S
O31 C30 1.550 . S
O31 C37 1.412 . S
H32 C30 0.973 . S
C33 H26 0.929 . S
C33 C34 1.400 . S
C33 C35 1.364 . S
C34 C33 1.400 . S
C34 C38 1.377 . S
C35 C33 1.364 . S
C35 C36 1.374 . S
C36 H27 0.930 . S
C36 C35 1.374 . S
C36 C37 1.383 . S
C37 O31 1.412 . S
C37 C36 1.383 . S
C37 C38 1.394 . S
C38 H28 0.929 . S
C38 C34 1.377 . S
C38 C37 1.394 . S
H39 C46 0.929 . S
H40 C49 0.930 . S
H41 C51 0.929 . S
H42 C43 0.969 . S
C43 H42 0.969 . S
C43 O44 1.550 . S
C43 H45 0.973 . S
O44 C43 1.550 . S
O44 C50 1.412 . S
H45 C43 0.973 . S
C46 H39 0.929 . S
C46 C47 1.400 . S
C46 C48 1.364 . S
C47 C46 1.400 . S
C47 C51 1.377 . S
C48 C46 1.364 . S
C48 C49 1.374 . S
C49 H40 0.930 . S
C49 C48 1.374 . S
C49 C50 1.383 . S
C50 O44 1.412 . S
C50 C49 1.383 . S
C50 C51 1.394 . S
C51 H41 0.929 . S
C51 C47 1.377 . S
C51 C50 1.394 . S
H52 C59 0.929 . S
H53 C62 0.930 . S
H54 C64 0.929 . S
H55 C56 0.969 . S
C56 H55 0.969 . S
C56 O57 1.550 . S
C56 H58 0.973 . S
O57 C56 1.550 . S
O57 C63 1.412 . S
H58 C56 0.973 . S
C59 H52 0.929 . S
C59 C60 1.400 . S
C59 C61 1.364 . S
C60 C59 1.400 . S
C60 C64 1.377 . S
C61 C59 1.364 . S
C61 C62 1.374 . S
C62 H53 0.930 . S
C62 C61 1.374 . S
C62 C63 1.383 . S
C63 O57 1.412 . S
C63 C62 1.383 . S
C63 C64 1.394 . S
C64 H54 0.929 . S
C64 C60 1.377 . S
C64 C63 1.394 . S
H65 C72 0.929 . S
H66 C75 0.930 . S
H67 C77 0.929 . S
H68 C69 0.969 . S
C69 H68 0.969 . S
C69 O70 1.550 . S
C69 H71 0.973 . S
O70 C69 1.550 . S
O70 C76 1.412 . S
H71 C69 0.973 . S
C72 H65 0.929 . S
C72 C73 1.400 . S
C72 C74 1.364 . S
C73 C72 1.400 . S
C73 C77 1.377 . S
C74 C72 1.364 . S
C74 C75 1.374 . S
C75 H66 0.930 . S
C75 C74 1.374 . S
C75 C76 1.383 . S
C76 O70 1.412 . S
C76 C75 1.383 . S
C76 C77 1.394 . S
C77 H67 0.929 . S
C77 C73 1.377 . S
C77 C76 1.394 . S
H78 C85 0.929 . S
H79 C88 0.930 . S
H80 C90 0.929 . S
H81 C82 0.969 . S
C82 H81 0.969 . S
C82 O83 1.550 . S
C82 H84 0.973 . S
O83 C82 1.550 . S
O83 C89 1.412 . S
H84 C82 0.973 . S
C85 H78 0.929 . S
C85 C86 1.400 . S
C85 C87 1.364 . S
C86 C85 1.400 . S
C86 C90 1.377 . S
C87 C85 1.364 . S
C87 C88 1.374 . S
C88 H79 0.930 . S
C88 C87 1.374 . S
C88 C89 1.383 . S
C89 O83 1.412 . S
C89 C88 1.383 . S
C89 C90 1.394 . S
C90 H80 0.929 . S
C90 C86 1.377 . S
C90 C89 1.394 . S
H91 C98 0.929 . S
H92 C101 0.930 . S
H93 C103 0.929 . S
H94 C95 0.969 . S
C95 H94 0.969 . S
C95 O96 1.550 . S
C95 H97 0.973 . S
O96 C95 1.550 . S
O96 C102 1.412 . S
H97 C95 0.973 . S
C98 H91 0.929 . S
C98 C99 1.400 . S
C98 C100 1.364 . S
C99 C98 1.400 . S
C99 C103 1.377 . S
C100 C98 1.364 . S
C100 C101 1.374 . S
C101 H92 0.930 . S
C101 C100 1.374 . S
C101 C102 1.383 . S
C102 O96 1.412 . S
C102 C101 1.383 . S
C102 C103 1.394 . S
C103 H93 0.929 . S
C103 C99 1.377 . S
C103 C102 1.394 . S
H104 C111 0.929 . S
H105 C114 0.930 . S
H106 C116 0.929 . S
H107 C108 0.969 . S
C108 H107 0.969 . S
C108 O109 1.550 . S
C108 H110 0.973 . S
O109 C108 1.550 . S
O109 C115 1.412 . S
H110 C108 0.973 . S
C111 H104 0.929 . S
C111 C112 1.400 . S
C111 C113 1.364 . S
C112 C111 1.400 . S
C112 C116 1.377 . S
C113 C111 1.364 . S
C113 C114 1.374 . S
C114 H105 0.930 . S
C114 C113 1.374 . S
C114 C115 1.383 . S
C115 O109 1.412 . S
C115 C114 1.383 . S
C115 C116 1.394 . S
C116 H106 0.929 . S
C116 C112 1.377 . S
C116 C115 1.394 . S
H117 C124 0.929 . S
H118 C127 0.930 . S
H119 C129 0.929 . S
H120 C121 0.969 . S
C121 H120 0.969 . S
C121 O122 1.550 . S
C121 H123 0.973 . S
O122 C121 1.550 . S
O122 C128 1.412 . S
H123 C121 0.973 . S
C124 H117 0.929 . S
C124 C125 1.400 . S
C124 C126 1.364 . S
C125 C124 1.400 . S
C125 C129 1.377 . S
C126 C124 1.364 . S
C126 C127 1.374 . S
C127 H118 0.930 . S
C127 C126 1.374 . S
C127 C128 1.383 . S
C128 O122 1.412 . S
C128 C127 1.383 . S
C128 C129 1.394 . S
C129 H119 0.929 . S
C129 C125 1.377 . S
C129 C128 1.394 . S
H130 C137 0.929 . S
H131 C140 0.930 . S
H132 C142 0.929 . S
H133 C134 0.969 . S
C134 H133 0.969 . S
C134 O135 1.550 . S
C134 H136 0.973 . S
O135 C134 1.550 . S
O135 C141 1.412 . S
H136 C134 0.973 . S
C137 H130 0.929 . S
C137 C138 1.400 . S
C137 C139 1.364 . S
C138 C137 1.400 . S
C138 C142 1.377 . S
C139 C137 1.364 . S
C139 C140 1.374 . S
C140 H131 0.930 . S
C140 C139 1.374 . S
C140 C141 1.383 . S
C141 O135 1.412 . S
C141 C140 1.383 . S
C141 C142 1.394 . S
C142 H132 0.929 . S
C142 C138 1.377 . S
C142 C141 1.394 . S
H143 C150 0.929 . S
H144 C153 0.930 . S
H145 C155 0.929 . S
H146 C147 0.969 . S
C147 H146 0.969 . S
C147 O148 1.550 . S
C147 H149 0.973 . S
O148 C147 1.550 . S
O148 C154 1.412 . S
H149 C147 0.973 . S
C150 H143 0.929 . S
C150 C151 1.400 . S
C150 C152 1.364 . S
C151 C150 1.400 . S
C151 C155 1.377 . S
C152 C150 1.364 . S
C152 C153 1.374 . S
C153 H144 0.930 . S
C153 C152 1.374 . S
C153 C154 1.383 . S
C154 O148 1.412 . S
C154 C153 1.383 . S
C154 C155 1.394 . S
C155 H145 0.929 . S
C155 C151 1.377 . S
C155 C154 1.394 . S
H156 C163 0.929 . S
H157 C166 0.930 . S
H158 C168 0.929 . S
H159 C160 0.969 . S
C160 H159 0.969 . S
C160 O161 1.550 . S
C160 H162 0.973 . S
O161 C160 1.550 . S
O161 C167 1.412 . S
H162 C160 0.973 . S
C163 H156 0.929 . S
C163 C164 1.400 . S
C163 C165 1.364 . S
C164 C163 1.400 . S
C164 C168 1.377 . S
C165 C163 1.364 . S
C165 C166 1.374 . S
C166 H157 0.930 . S
C166 C165 1.374 . S
C166 C167 1.383 . S
C167 O161 1.412 . S
C167 C166 1.383 . S
C167 C168 1.394 . S
C168 H158 0.929 . S
C168 C164 1.377 . S
C168 C167 1.394 . S
H169 C176 0.929 . S
H170 C179 0.930 . S
H171 C181 0.929 . S
H172 C173 0.969 . S
C173 H172 0.969 . S
C173 O174 1.550 . S
C173 H175 0.973 . S
O174 C173 1.550 . S
O174 C180 1.412 . S
H175 C173 0.973 . S
C176 H169 0.929 . S
C176 C177 1.400 . S
C176 C178 1.364 . S
C177 C176 1.400 . S
C177 C181 1.377 . S
C178 C176 1.364 . S
C178 C179 1.374 . S
C179 H170 0.930 . S
C179 C178 1.374 . S
C179 C180 1.383 . S
C180 O174 1.412 . S
C180 C179 1.383 . S
C180 C181 1.394 . S
C181 H171 0.929 . S
C181 C177 1.377 . S
C181 C180 1.394 . S
H182 C189 0.929 . S
H183 C192 0.930 . S
H184 C194 0.929 . S
H185 C186 0.969 . S
C186 H185 0.969 . S
C186 O187 1.550 . S
C186 H188 0.973 . S
O187 C186 1.550 . S
O187 C193 1.412 . S
H188 C186 0.973 . S
C189 H182 0.929 . S
C189 C190 1.400 . S
C189 C191 1.364 . S
C190 C189 1.400 . S
C190 C194 1.377 . S
C191 C189 1.364 . S
C191 C192 1.374 . S
C192 H183 0.930 . S
C192 C191 1.374 . S
C192 C193 1.383 . S
C193 O187 1.412 . S
C193 C192 1.383 . S
C193 C194 1.394 . S
C194 H184 0.929 . S
C194 C190 1.377 . S
C194 C193 1.394 . S
H195 C202 0.929 . S
H196 C205 0.930 . S
H197 C207 0.929 . S
H198 C199 0.969 . S
C199 H198 0.969 . S
C199 O200 1.550 . S
C199 H201 0.973 . S
O200 C199 1.550 . S
O200 C206 1.412 . S
H201 C199 0.973 . S
C202 H195 0.929 . S
C202 C203 1.400 . S
C202 C204 1.364 . S
C203 C202 1.400 . S
C203 C207 1.377 . S
C204 C202 1.364 . S
C204 C205 1.374 . S
C205 H196 0.930 . S
C205 C204 1.374 . S
C205 C206 1.383 . S
C206 O200 1.412 . S
C206 C205 1.383 . S
C206 C207 1.394 . S
C207 H197 0.929 . S
C207 C203 1.377 . S
C207 C206 1.394 . S
H208 C215 0.929 . S
H209 C218 0.930 . S
H210 C220 0.929 . S
H211 C212 0.969 . S
C212 H211 0.969 . S
C212 O213 1.550 . S
C212 H214 0.973 . S
O213 C212 1.550 . S
O213 C219 1.412 . S
H214 C212 0.973 . S
C215 H208 0.929 . S
C215 C216 1.400 . S
C215 C217 1.364 . S
C216 C215 1.400 . S
C216 C220 1.377 . S
C217 C215 1.364 . S
C217 C218 1.374 . S
C218 H209 0.930 . S
C218 C217 1.374 . S
C218 C219 1.383 . S
C219 O213 1.412 . S
C219 C218 1.383 . S
C219 C220 1.394 . S
C220 H210 0.929 . S
C220 C216 1.377 . S
C220 C219 1.394 . S
H221 C228 0.929 . S
H222 C231 0.930 . S
H223 C233 0.929 . S
H224 C225 0.969 . S
C225 H224 0.969 . S
C225 O226 1.550 . S
C225 H227 0.973 . S
O226 C225 1.550 . S
O226 C232 1.412 . S
H227 C225 0.973 . S
C228 H221 0.929 . S
C228 C229 1.400 . S
C228 C230 1.364 . S
C229 C228 1.400 . S
C229 C233 1.377 . S
C230 C228 1.364 . S
C230 C231 1.374 . S
C231 H222 0.930 . S
C231 C230 1.374 . S
C231 C232 1.383 . S
C232 O226 1.412 . S
C232 C231 1.383 . S
C232 C233 1.394 . S
C233 H223 0.929 . S
C233 C229 1.377 . S
C233 C232 1.394 . S
H234 C241 0.929 . S
H235 C244 0.930 . S
H236 C246 0.929 . S
H237 C238 0.969 . S
C238 H237 0.969 . S
C238 O239 1.550 . S
C238 H240 0.973 . S
O239 C238 1.550 . S
O239 C245 1.412 . S
H240 C238 0.973 . S
C241 H234 0.929 . S
C241 C242 1.400 . S
C241 C243 1.364 . S
C242 C241 1.400 . S
C242 C246 1.377 . S
C243 C241 1.364 . S
C243 C244 1.374 . S
C244 H235 0.930 . S
C244 C243 1.374 . S
C244 C245 1.383 . S
C245 O239 1.412 . S
C245 C244 1.383 . S
C245 C246 1.394 . S
C246 H236 0.929 . S
C246 C242 1.377 . S
C246 C245 1.394 . S
H247 C254 0.929 . S
H248 C257 0.930 . S
H249 C259 0.929 . S
H250 C251 0.969 . S
C251 H250 0.969 . S
C251 O252 1.550 . S
C251 H253 0.973 . S
O252 C251 1.550 . S
O252 C258 1.412 . S
H253 C251 0.973 . S
C254 H247 0.929 . S
C254 C255 1.400 . S
C254 C256 1.364 . S
C255 C254 1.400 . S
C255 C259 1.377 . S
C256 C254 1.364 . S
C256 C257 1.374 . S
C257 H248 0.930 . S
C257 C256 1.374 . S
C257 C258 1.383 . S
C258 O252 1.412 . S
C258 C257 1.383 . S
C258 C259 1.394 . S
C259 H249 0.929 . S
C259 C255 1.377 . S
C259 C258 1.394 . S
H260 C267 0.929 . S
H261 C270 0.930 . S
H262 C272 0.929 . S
H263 C264 0.969 . S
C264 H263 0.969 . S
C264 O265 1.550 . S
C264 H266 0.973 . S
O265 C264 1.550 . S
O265 C271 1.412 . S
H266 C264 0.973 . S
C267 H260 0.929 . S
C267 C268 1.400 . S
C267 C269 1.364 . S
C268 C267 1.400 . S
C268 C272 1.377 . S
C269 C267 1.364 . S
C269 C270 1.374 . S
C270 H261 0.930 . S
C270 C269 1.374 . S
C270 C271 1.383 . S
C271 O265 1.412 . S
C271 C270 1.383 . S
C271 C272 1.394 . S
C272 H262 0.929 . S
C272 C268 1.377 . S
C272 C271 1.394 . S
H273 C280 0.929 . S
H274 C283 0.930 . S
H275 C285 0.929 . S
H276 C277 0.969 . S
C277 H276 0.969 . S
C277 O278 1.550 . S
C277 H279 0.973 . S
O278 C277 1.550 . S
O278 C284 1.412 . S
H279 C277 0.973 . S
C280 H273 0.929 . S
C280 C281 1.400 . S
C280 C282 1.364 . S
C281 C280 1.400 . S
C281 C285 1.377 . S
C282 C280 1.364 . S
C282 C283 1.374 . S
C283 H274 0.930 . S
C283 C282 1.374 . S
C283 C284 1.383 . S
C284 O278 1.412 . S
C284 C283 1.383 . S
C284 C285 1.394 . S
C285 H275 0.929 . S
C285 C281 1.377 . S
C285 C284 1.394 . S
H286 C293 0.929 . S
H287 C296 0.930 . S
H288 C298 0.929 . S
H289 C290 0.969 . S
C290 H289 0.969 . S
C290 O291 1.550 . S
C290 H292 0.973 . S
O291 C290 1.550 . S
O291 C297 1.412 . S
H292 C290 0.973 . S
C293 H286 0.929 . S
C293 C294 1.400 . S
C293 C295 1.364 . S
C294 C293 1.400 . S
C294 C298 1.377 . S
C295 C293 1.364 . S
C295 C296 1.374 . S
C296 H287 0.930 . S
C296 C295 1.374 . S
C296 C297 1.383 . S
C297 O291 1.412 . S
C297 C296 1.383 . S
C297 C298 1.394 . S
C298 H288 0.929 . S
C298 C294 1.377 . S
C298 C297 1.394 . S
H299 C306 0.929 . S
H300 C309 0.930 . S
H301 C311 0.929 . S
H302 C303 0.969 . S
C303 H302 0.969 . S
C303 O304 1.550 . S
C303 H305 0.973 . S
O304 C303 1.550 . S
O304 C310 1.412 . S
H305 C303 0.973 . S
C306 H299 0.929 . S
C306 C307 1.400 . S
C306 C308 1.364 . S
C307 C306 1.400 . S
C307 C311 1.377 . S
C308 C306 1.364 . S
C308 C309 1.374 . S
C309 H300 0.930 . S
C309 C308 1.374 . S
C309 C310 1.383 . S
C310 O304 1.412 . S
C310 C309 1.383 . S
C310 C311 1.394 . S
C311 H301 0.929 . S
C311 C307 1.377 . S
C311 C310 1.394 . S
H312 C319 0.929 . S
H313 C322 0.930 . S
H314 C324 0.929 . S
H315 C316 0.969 . S
C316 H315 0.969 . S
C316 O317 1.550 . S
C316 H318 0.973 . S
O317 C316 1.550 . S
O317 C323 1.412 . S
H318 C316 0.973 . S
C319 H312 0.929 . S
C319 C320 1.400 . S
C319 C321 1.364 . S
C320 C319 1.400 . S
C320 C324 1.377 . S
C321 C319 1.364 . S
C321 C322 1.374 . S
C322 H313 0.930 . S
C322 C321 1.374 . S
C322 C323 1.383 . S
C323 O317 1.412 . S
C323 C322 1.383 . S
C323 C324 1.394 . S
C324 H314 0.929 . S
C324 C320 1.377 . S
C324 C323 1.394 . S
H325 C332 0.929 . S
H326 C335 0.930 . S
H327 C337 0.929 . S
H328 C329 0.969 . S
C329 H328 0.969 . S
C329 O330 1.550 . S
C329 H331 0.973 . S
O330 C329 1.550 . S
O330 C336 1.412 . S
H331 C329 0.973 . S
C332 H325 0.929 . S
C332 C333 1.400 . S
C332 C334 1.364 . S
C333 C332 1.400 . S
C333 C337 1.377 . S
C334 C332 1.364 . S
C334 C335 1.374 . S
C335 H326 0.930 . S
C335 C334 1.374 . S
C335 C336 1.383 . S
C336 O330 1.412 . S
C336 C335 1.383 . S
C336 C337 1.394 . S
C337 H327 0.929 . S
C337 C333 1.377 . S
C337 C336 1.394 . S
H338 C345 0.929 . S
H339 C348 0.930 . S
H340 C350 0.929 . S
H341 C342 0.969 . S
C342 H341 0.969 . S
C342 O343 1.550 . S
C342 H344 0.973 . S
O343 C342 1.550 . S
O343 C349 1.412 . S
H344 C342 0.973 . S
C345 H338 0.929 . S
C345 C346 1.400 . S
C345 C347 1.364 . S
C346 C345 1.400 . S
C346 C350 1.377 . S
C347 C345 1.364 . S
C347 C348 1.374 . S
C348 H339 0.930 . S
C348 C347 1.374 . S
C348 C349 1.383 . S
C349 O343 1.412 . S
C349 C348 1.383 . S
C349 C350 1.394 . S
C350 H340 0.929 . S
C350 C346 1.377 . S
C350 C349 1.394 . S
H351 C358 0.929 . S
H352 C361 0.930 . S
H353 C363 0.929 . S
H354 C355 0.969 . S
C355 H354 0.969 . S
C355 O356 1.550 . S
C355 H357 0.973 . S
O356 C355 1.550 . S
O356 C362 1.412 . S
H357 C355 0.973 . S
C358 H351 0.929 . S
C358 C359 1.400 . S
C358 C360 1.364 . S
C359 C358 1.400 . S
C359 C363 1.377 . S
C360 C358 1.364 . S
C360 C361 1.374 . S
C361 H352 0.930 . S
C361 C360 1.374 . S
C361 C362 1.383 . S
C362 O356 1.412 . S
C362 C361 1.383 . S
C362 C363 1.394 . S
C363 H353 0.929 . S
C363 C359 1.377 . S
C363 C362 1.394 . S
H364 C371 0.929 . S
H365 C374 0.930 . S
H366 C376 0.929 . S
H367 C368 0.969 . S
C368 H367 0.969 . S
C368 O369 1.550 . S
C368 H370 0.973 . S
O369 C368 1.550 . S
O369 C375 1.412 . S
H370 C368 0.973 . S
C371 H364 0.929 . S
C371 C372 1.400 . S
C371 C373 1.364 . S
C372 C371 1.400 . S
C372 C376 1.377 . S
C373 C371 1.364 . S
C373 C374 1.374 . S
C374 H365 0.930 . S
C374 C373 1.374 . S
C374 C375 1.383 . S
C375 O369 1.412 . S
C375 C374 1.383 . S
C375 C376 1.394 . S
C376 H366 0.929 . S
C376 C372 1.377 . S
C376 C375 1.394 . S
H377 C384 0.929 . S
H378 C387 0.930 . S
H379 C389 0.929 . S
H380 C381 0.969 . S
C381 H380 0.969 . S
C381 O382 1.550 . S
C381 H383 0.973 . S
O382 C381 1.550 . S
O382 C388 1.412 . S
H383 C381 0.973 . S
C384 H377 0.929 . S
C384 C385 1.400 . S
C384 C386 1.364 . S
C385 C384 1.400 . S
C385 C389 1.377 . S
C386 C384 1.364 . S
C386 C387 1.374 . S
C387 H378 0.930 . S
C387 C386 1.374 . S
C387 C388 1.383 . S
C388 O382 1.412 . S
C388 C387 1.383 . S
C388 C389 1.394 . S
C389 H379 0.929 . S
C389 C385 1.377 . S
C389 C388 1.394 . S
H390 C397 0.929 . S
H391 C400 0.930 . S
H392 C402 0.929 . S
H393 C394 0.969 . S
C394 H393 0.969 . S
C394 O395 1.550 . S
C394 H396 0.973 . S
O395 C394 1.550 . S
O395 C401 1.412 . S
H396 C394 0.973 . S
C397 H390 0.929 . S
C397 C398 1.400 . S
C397 C399 1.364 . S
C398 C397 1.400 . S
C398 C402 1.377 . S
C399 C397 1.364 . S
C399 C400 1.374 . S
C400 H391 0.930 . S
C400 C399 1.374 . S
C400 C401 1.383 . S
C401 O395 1.412 . S
C401 C400 1.383 . S
C401 C402 1.394 . S
C402 H392 0.929 . S
C402 C398 1.377 . S
C402 C401 1.394 . S
H403 C410 0.929 . S
H404 C413 0.930 . S
H405 C415 0.929 . S
H406 C407 0.969 . S
C407 H406 0.969 . S
C407 O408 1.550 . S
C407 H409 0.973 . S
O408 C407 1.550 . S
O408 C414 1.412 . S
H409 C407 0.973 . S
C410 H403 0.929 . S
C410 C411 1.400 . S
C410 C412 1.364 . S
C411 C410 1.400 . S
C411 C415 1.377 . S
C412 C410 1.364 . S
C412 C413 1.374 . S
C413 H404 0.930 . S
C413 C412 1.374 . S
C413 C414 1.383 . S
C414 O408 1.412 . S
C414 C413 1.383 . S
C414 C415 1.394 . S
C415 H405 0.929 . S
C415 C411 1.377 . S
C415 C414 1.394 . S
Cu416 N417 1.999 . S
Cu416 O422 1.974 . S
Cu416 N427 1.985 . S
Cu416 O436 1.959 . S
N417 Cu416 1.999 . S
N417 C419 1.263 . S
N417 C421 1.389 . S
N418 C419 1.358 . S
N418 C420 1.400 . S
C419 N417 1.263 . S
C419 N418 1.358 . S
C419 H425 0.930 . S
C420 N418 1.400 . S
C420 C421 1.351 . S
C420 H437 0.930 . S
C421 N417 1.389 . S
C421 C420 1.351 . S
C421 H426 0.930 . S
O422 Cu416 1.974 . S
O422 C432 1.282 . S
C423 O424 1.261 . S
C423 O436 1.251 . S
O424 C423 1.261 . S
H425 C419 0.930 . S
H426 C421 0.930 . S
N427 Cu416 1.985 . S
N427 C429 1.335 . S
N427 C430 1.390 . S
N428 C429 1.345 . S
N428 C431 1.336 . S
C429 N427 1.335 . S
C429 N428 1.345 . S
C429 H434 0.930 . S
C430 N427 1.390 . S
C430 C431 1.346 . S
C430 H435 0.930 . S
C431 N428 1.336 . S
C431 C430 1.346 . S
C431 H438 0.929 . S
C432 O422 1.282 . S
C432 O433 1.216 . S
O433 C432 1.216 . S
H434 C429 0.930 . S
H435 C430 0.930 . S
O436 Cu416 1.959 . S
O436 C423 1.251 . S
H437 C420 0.930 . S
H438 C431 0.929 . S
Cu439 N440 1.999 . S
Cu439 O445 1.974 . S
Cu439 N450 1.985 1_554 S
Cu439 O459 1.959 1_554 S
N440 Cu439 1.999 . S
N440 C442 1.263 . S
N440 C444 1.389 . S
N441 C442 1.358 . S
N441 C443 1.400 . S
C442 N440 1.263 . S
C442 N441 1.358 . S
C442 H448 0.930 . S
C443 N441 1.400 . S
C443 C444 1.351 . S
C443 H460 0.930 . S
C444 N440 1.389 . S
C444 C443 1.351 . S
C444 H449 0.930 . S
O445 Cu439 1.974 . S
O445 C455 1.282 . S
C446 O447 1.284 . S
C446 O459 1.251 . S
O447 C446 1.284 . S
H448 C442 0.930 . S
H449 C444 0.930 . S
N450 Cu439 1.985 1_556 S
N450 C452 1.335 . S
N450 C453 1.390 1_556 S
N451 C452 1.345 . S
N451 C454 1.336 . S
C452 N450 1.335 . S
C452 N451 1.345 . S
C452 H457 0.930 . S
C453 N450 1.390 1_554 S
C453 C454 1.346 1_554 S
C453 H458 0.930 . S
C454 N451 1.336 . S
C454 C453 1.346 1_556 S
C454 H461 0.929 . S
C455 O445 1.282 . S
C455 O456 1.216 . S
O456 C455 1.216 . S
H457 C452 0.930 . S
H458 C453 0.930 . S
O459 Cu439 1.959 1_556 S
O459 C446 1.251 . S
H460 C443 0.930 . S
H461 C454 0.929 . S
Cu462 N463 1.999 . S
Cu462 O468 1.974 . S
Cu462 N473 1.985 . S
Cu462 O482 1.959 . S
N463 Cu462 1.999 . S
N463 C465 1.263 1_554 S
N463 C467 1.389 . S
N464 C465 1.358 . S
N464 C466 1.372 1_556 S
C465 N463 1.263 1_556 S
C465 N464 1.358 . S
C465 H471 0.930 . S
C466 N464 1.372 1_554 S
C466 C467 1.387 . S
C466 H483 0.926 . S
C467 N463 1.389 . S
C467 C466 1.387 . S
C467 H472 0.930 . S
O468 Cu462 1.974 . S
O468 C478 1.282 1_554 S
C469 O470 1.261 . S
C469 O482 1.251 . S
O470 C469 1.261 . S
H471 C465 0.930 . S
H472 C467 0.930 . S
N473 Cu462 1.985 . S
N473 C475 1.335 . S
N473 C476 1.390 . S
N474 C475 1.345 . S
N474 C477 1.336 . S
C475 N473 1.335 . S
C475 N474 1.345 . S
C475 H480 0.930 . S
C476 N473 1.390 . S
C476 C477 1.346 . S
C476 H481 0.930 . S
C477 N474 1.336 . S
C477 C476 1.346 . S
C477 H484 0.929 . S
C478 O468 1.282 1_556 S
C478 O479 1.216 . S
O479 C478 1.216 . S
H480 C475 0.930 . S
H481 C476 0.930 . S
O482 Cu462 1.959 . S
O482 C469 1.251 . S
H483 C466 0.926 . S
H484 C477 0.929 . S
Cu485 N486 1.999 1_556 S
Cu485 O491 1.974 1_556 S
Cu485 N496 1.985 . S
Cu485 O505 1.959 . S
N486 Cu485 1.999 1_554 S
N486 C488 1.263 . S
N486 C490 1.389 . S
N487 C488 1.358 . S
N487 C489 1.400 . S
C488 N486 1.263 . S
C488 N487 1.358 . S
C488 H494 0.930 . S
C489 N487 1.400 . S
C489 C490 1.351 . S
C489 H506 0.930 . S
C490 N486 1.389 . S
C490 C489 1.351 . S
C490 H495 0.898 1_554 S
O491 Cu485 1.974 1_554 S
O491 C501 1.282 . S
C492 O493 1.261 . S
C492 O505 1.251 . S
O493 C492 1.261 . S
H494 C488 0.930 . S
H495 C490 0.898 1_556 S
N496 Cu485 1.985 . S
N496 C498 1.335 . S
N496 C499 1.390 . S
N497 C498 1.345 . S
N497 C500 1.336 . S
C498 N496 1.335 . S
C498 N497 1.345 . S
C498 H503 0.930 . S
C499 N496 1.390 . S
C499 C500 1.346 . S
C499 H504 0.945 . S
C500 N497 1.336 . S
C500 C499 1.346 . S
C500 H507 0.929 . S
C501 O491 1.282 . S
C501 O502 1.216 . S
O502 C501 1.216 . S
H503 C498 0.930 . S
H504 C499 0.945 . S
O505 Cu485 1.959 . S
O505 C492 1.251 . S
H506 C489 0.930 . S
H507 C500 0.929 . S
Cu508 N509 1.999 . S
Cu508 O514 1.974 . S
Cu508 N519 1.985 1_455 S
Cu508 O528 1.959 1_455 S
N509 Cu508 1.999 . S
N509 C511 1.263 . S
N509 C513 1.389 . S
N510 C511 1.358 . S
N510 C512 1.400 . S
C511 N509 1.263 . S
C511 N510 1.358 . S
C511 H517 0.930 . S
C512 N510 1.400 . S
C512 C513 1.351 . S
C512 H529 0.930 . S
C513 N509 1.389 . S
C513 C512 1.351 . S
C513 H518 0.930 . S
O514 Cu508 1.974 . S
O514 C524 1.282 . S
C515 O516 1.261 . S
C515 O528 1.251 . S
O516 C515 1.261 . S
H517 C511 0.930 . S
H518 C513 0.930 . S
N519 Cu508 1.985 1_655 S
N519 C521 1.335 . S
N519 C522 1.390 1_655 S
N520 C521 1.345 . S
N520 C523 1.336 . S
C521 N519 1.335 . S
C521 N520 1.345 . S
C521 H526 0.930 . S
C522 N519 1.390 1_455 S
C522 C523 1.346 1_455 S
C522 H527 0.930 . S
C523 N520 1.336 . S
C523 C522 1.346 1_655 S
C523 H530 0.929 . S
C524 O514 1.282 . S
C524 O525 1.216 . S
O525 C524 1.216 . S
H526 C521 0.930 . S
H527 C522 0.930 . S
O528 Cu508 1.959 1_655 S
O528 C515 1.251 . S
H529 C512 0.930 . S
H530 C523 0.929 . S
Cu531 N532 1.999 . S
Cu531 O537 1.974 . S
Cu531 N542 1.985 . S
Cu531 O551 1.959 . S
N532 Cu531 1.999 . S
N532 C534 1.263 . S
N532 C536 1.389 . S
N533 C534 1.358 . S
N533 C535 1.400 . S
C534 N532 1.263 . S
C534 N533 1.358 . S
C534 H540 0.930 . S
C535 N533 1.400 . S
C535 C536 1.351 . S
C535 H552 0.930 . S
C536 N532 1.389 . S
C536 C535 1.351 . S
C536 H541 0.930 . S
O537 Cu531 1.974 . S
O537 C547 1.282 . S
C538 O539 1.261 . S
C538 O551 1.251 . S
O539 C538 1.261 . S
H540 C534 0.930 . S
H541 C536 0.930 . S
N542 Cu531 1.985 . S
N542 C544 1.335 1_545 S
N542 C545 1.390 . S
N543 C544 1.345 . S
N543 C546 1.336 . S
C544 N542 1.335 1_565 S
C544 N543 1.345 . S
C544 H549 0.930 . S
C545 N542 1.390 . S
C545 C546 1.346 1_545 S
C545 H550 0.930 . S
C546 N543 1.336 . S
C546 C545 1.346 1_565 S
C546 H553 0.929 . S
C547 O537 1.282 . S
C547 O548 1.216 . S
O548 C547 1.216 . S
H549 C544 0.930 . S
H550 C545 0.930 . S
O551 Cu531 1.959 . S
O551 C538 1.251 . S
H552 C535 0.930 . S
H553 C546 0.929 . S
Cu554 N555 1.999 . S
Cu554 O560 1.974 . S
Cu554 N565 1.985 1_655 S
Cu554 O574 1.959 1_655 S
N555 Cu554 1.999 . S
N555 C557 1.263 . S
N555 C559 1.389 . S
N556 C557 1.358 . S
N556 C558 1.400 . S
C557 N555 1.263 . S
C557 N556 1.358 . S
C557 H563 0.930 . S
C558 N556 1.400 . S
C558 C559 1.351 . S
C558 H575 0.930 . S
C559 N555 1.389 . S
C559 C558 1.351 . S
C559 H564 0.930 . S
O560 Cu554 1.974 . S
O560 C570 1.282 . S
C561 O562 1.261 . S
C561 O574 1.251 . S
O562 C561 1.261 . S
H563 C557 0.930 . S
H564 C559 0.930 . S
N565 Cu554 1.985 1_455 S
N565 C567 1.335 . S
N565 C568 1.390 . S
N566 C567 1.345 . S
N566 C569 1.336 . S
C567 N565 1.335 . S
C567 N566 1.345 . S
C567 H572 0.930 . S
C568 N565 1.390 . S
C568 C569 1.346 . S
C568 H573 0.930 . S
C569 N566 1.336 . S
C569 C568 1.346 . S
C569 H576 0.929 . S
C570 O560 1.282 . S
C570 O571 1.216 . S
O571 C570 1.216 . S
H572 C567 0.930 . S
H573 C568 0.930 . S
O574 Cu554 1.959 1_455 S
O574 C561 1.251 . S
H575 C558 0.930 . S
H576 C569 0.929 . S
Cu577 N578 1.999 . S
Cu577 O583 1.974 . S
Cu577 N588 1.985 1_545 S
Cu577 O597 1.959 1_545 S
N578 Cu577 1.999 . S
N578 C580 1.263 . S
N578 C582 1.389 . S
N579 C580 1.358 . S
N579 C581 1.400 . S
C580 N578 1.263 . S
C580 N579 1.358 . S
C580 H586 0.930 . S
C581 N579 1.400 . S
C581 C582 1.351 . S
C581 H598 0.930 . S
C582 N578 1.389 . S
C582 C581 1.351 . S
C582 H587 0.930 . S
O583 Cu577 1.974 . S
O583 C593 1.282 . S
C584 O585 1.261 . S
C584 O597 1.251 . S
O585 C584 1.261 . S
H586 C580 0.930 . S
H587 C582 0.930 . S
N588 Cu577 1.985 1_565 S
N588 C590 1.335 . S
N588 C591 1.390 . S
N589 C590 1.345 . S
N589 C592 1.336 . S
C590 N588 1.335 . S
C590 N589 1.345 . S
C590 H595 0.930 . S
C591 N588 1.390 . S
C591 C592 1.346 . S
C591 H596 0.930 . S
C592 N589 1.336 . S
C592 C591 1.346 . S
C592 H599 0.929 . S
C593 O583 1.282 . S
C593 O594 1.216 . S
O594 C593 1.216 . S
H595 C590 0.930 . S
H596 C591 0.930 . S
O597 Cu577 1.959 1_565 S
O597 C584 1.251 . S
H598 C581 0.930 . S
H599 C592 0.929 . S
Cu600 N601 1.999 . S
Cu600 O606 1.974 . S
Cu600 N611 1.966 1_455 S
Cu600 O620 1.959 1_455 S
N601 Cu600 1.999 . S
N601 C603 1.263 . S
N601 C605 1.389 . S
N602 C603 1.358 . S
N602 C604 1.400 . S
C603 N601 1.263 . S
C603 N602 1.358 . S
C603 H609 0.930 . S
C604 N602 1.400 . S
C604 C605 1.351 . S
C604 H621 0.930 . S
C605 N601 1.389 . S
C605 C604 1.351 . S
C605 H610 0.930 . S
O606 Cu600 1.974 . S
O606 C616 1.282 . S
C607 O608 1.261 . S
C607 O620 1.251 . S
O608 C607 1.261 . S
H609 C603 0.930 . S
H610 C605 0.930 . S
N611 Cu600 1.966 1_655 S
N611 C613 1.363 . S
N611 C614 1.385 1_655 S
N612 C613 1.345 . S
N612 C615 1.336 . S
C613 N611 1.363 . S
C613 N612 1.345 . S
C613 H618 0.930 . S
C614 N611 1.385 1_455 S
C614 C615 1.346 1_455 S
C614 H619 0.930 . S
C615 N612 1.336 . S
C615 C614 1.346 1_655 S
C615 H622 0.929 . S
C616 O606 1.282 . S
C616 O617 1.216 . S
O617 C616 1.216 . S
H618 C613 0.930 . S
H619 C614 0.930 . S
O620 Cu600 1.959 1_655 S
O620 C607 1.251 . S
H621 C604 0.930 . S
H622 C615 0.929 . S
Cu623 N624 1.999 . S
Cu623 O629 1.974 . S
Cu623 N634 1.985 . S
Cu623 O643 1.959 . S
N624 Cu623 1.999 . S
N624 C626 1.263 . S
N624 C628 1.389 . S
N625 C626 1.358 . S
N625 C627 1.400 . S
C626 N624 1.263 . S
C626 N625 1.358 . S
C626 H632 0.930 . S
C627 N625 1.400 . S
C627 C628 1.351 . S
C627 H644 0.930 . S
C628 N624 1.389 . S
C628 C627 1.351 . S
C628 H633 0.930 . S
O629 Cu623 1.974 . S
O629 C639 1.282 . S
C630 O631 1.261 . S
C630 O643 1.251 . S
O631 C630 1.261 . S
H632 C626 0.930 . S
H633 C628 0.930 . S
N634 Cu623 1.985 . S
N634 C636 1.335 . S
N634 C637 1.390 . S
N635 C636 1.345 1_565 S
N635 C638 1.336 1_565 S
C636 N634 1.335 . S
C636 N635 1.345 1_545 S
C636 H641 0.930 1_545 S
C637 N634 1.390 . S
C637 C638 1.346 . S
C637 H642 0.930 . S
C638 N635 1.336 1_545 S
C638 C637 1.346 . S
C638 H645 0.929 . S
C639 O629 1.282 . S
C639 O640 1.216 . S
O640 C639 1.216 . S
H641 C636 0.930 1_565 S
H642 C637 0.930 . S
O643 Cu623 1.959 . S
O643 C630 1.251 . S
H644 C627 0.930 . S
H645 C638 0.929 . S
Cu646 N647 1.999 . S
Cu646 O652 1.981 . S
Cu646 N657 1.985 . S
Cu646 O666 1.959 . S
N647 Cu646 1.999 . S
N647 C649 1.263 1_455 S
N647 C651 1.389 . S
N648 C649 1.358 . S
N648 C650 1.400 . S
C649 N647 1.263 1_655 S
C649 N648 1.358 . S
C649 H655 0.930 . S
C650 N648 1.400 . S
C650 C651 1.351 1_655 S
C650 H667 0.930 . S
C651 N647 1.389 . S
C651 C650 1.351 1_455 S
C651 H656 0.930 . S
O652 Cu646 1.981 . S
O652 C662 1.278 1_455 S
C653 O654 1.261 . S
C653 O666 1.251 . S
O654 C653 1.261 . S
H655 C649 0.930 . S
H656 C651 0.930 . S
N657 Cu646 1.985 . S
N657 C659 1.335 . S
N657 C660 1.390 . S
N658 C659 1.345 . S
N658 C661 1.336 . S
C659 N657 1.335 . S
C659 N658 1.345 . S
C659 H664 0.930 . S
C660 N657 1.390 . S
C660 C661 1.346 . S
C660 H665 0.930 . S
C661 N658 1.336 . S
C661 C660 1.346 . S
C661 H668 0.929 . S
C662 O652 1.278 1_655 S
C662 O663 1.216 1_655 S
O663 C662 1.216 1_455 S
H664 C659 0.930 . S
H665 C660 0.930 . S
O666 Cu646 1.959 . S
O666 C653 1.251 . S
H667 C650 0.930 . S
H668 C661 0.929 . S
Cu669 N670 1.999 . S
Cu669 O675 1.974 . S
Cu669 N680 1.961 1_545 S
Cu669 O689 1.959 . S
N670 Cu669 1.999 . S
N670 C672 1.263 . S
N670 C674 1.389 . S
N671 C672 1.358 . S
N671 C673 1.400 . S
C672 N670 1.263 . S
C672 N671 1.358 . S
C672 H678 0.930 . S
C673 N671 1.400 . S
C673 C674 1.351 . S
C673 H690 0.930 . S
C674 N670 1.389 . S
C674 C673 1.351 . S
C674 H679 0.930 . S
O675 Cu669 1.974 . S
O675 C685 1.282 . S
C676 O677 1.248 1_565 S
C676 O689 1.251 1_565 S
O677 C676 1.248 1_545 S
H678 C672 0.930 . S
H679 C674 0.930 . S
N680 Cu669 1.961 1_565 S
N680 C682 1.373 . S
N680 C683 1.375 1_565 S
N681 C682 1.345 . S
N681 C684 1.336 . S
C682 N680 1.373 . S
C682 N681 1.345 . S
C682 H687 0.930 . S
C683 N680 1.375 1_545 S
C683 C684 1.319 1_545 S
C683 H688 0.960 . S
C684 N681 1.336 . S
C684 C683 1.319 1_565 S
C684 H691 0.929 . S
C685 O675 1.282 . S
C685 O686 1.216 . S
O686 C685 1.216 . S
H687 C682 0.930 . S
H688 C683 0.960 . S
O689 Cu669 1.959 . S
O689 C676 1.251 1_545 S
H690 C673 0.930 . S
H691 C684 0.929 . S
Cu692 N693 1.999 . S
Cu692 O698 1.974 . S
Cu692 N703 1.985 . S
Cu692 O712 1.959 . S
N693 Cu692 1.999 . S
N693 C695 1.263 . S
N693 C697 1.389 . S
N694 C695 1.358 . S
N694 C696 1.400 . S
C695 N693 1.263 . S
C695 N694 1.358 . S
C695 H701 0.930 . S
C696 N694 1.400 . S
C696 C697 1.351 . S
C696 H713 0.930 . S
C697 N693 1.389 . S
C697 C696 1.351 . S
C697 H702 0.930 . S
O698 Cu692 1.974 . S
O698 C708 1.282 . S
C699 O700 1.261 . S
C699 O712 1.251 . S
O700 C699 1.261 . S
H701 C695 0.930 . S
H702 C697 0.930 . S
N703 Cu692 1.985 . S
N703 C705 1.335 . S
N703 C706 1.390 . S
N704 C705 1.345 . S
N704 C707 1.336 . S
C705 N703 1.335 . S
C705 N704 1.345 . S
C705 H710 0.930 . S
C706 N703 1.390 . S
C706 C707 1.346 . S
C706 H711 0.930 . S
C707 N704 1.336 . S
C707 C706 1.346 . S
C707 H714 0.929 . S
C708 O698 1.282 . S
C708 O709 1.216 . S
O709 C708 1.216 . S
H710 C705 0.930 . S
H711 C706 0.930 . S
O712 Cu692 1.959 . S
O712 C699 1.251 . S
H713 C696 0.930 . S
H714 C707 0.929 . S
Cu715 N716 1.999 . S
Cu715 O721 1.974 . S
Cu715 N726 1.985 . S
Cu715 O735 1.959 . S
N716 Cu715 1.999 . S
N716 C718 1.263 . S
N716 C720 1.389 . S
N717 C718 1.358 . S
N717 C719 1.400 . S
C718 N716 1.263 . S
C718 N717 1.358 . S
C718 H724 0.930 . S
C719 N717 1.400 . S
C719 C720 1.351 . S
C719 H736 0.930 . S
C720 N716 1.389 . S
C720 C719 1.351 . S
C720 H725 0.930 . S
O721 Cu715 1.974 . S
O721 C731 1.282 . S
C722 O723 1.261 . S
C722 O735 1.251 . S
O723 C722 1.261 . S
H724 C718 0.930 . S
H725 C720 0.930 . S
N726 Cu715 1.985 . S
N726 C728 1.335 . S
N726 C729 1.390 . S
N727 C728 1.345 . S
N727 C730 1.336 . S
C728 N726 1.335 . S
C728 N727 1.345 . S
C728 H733 0.930 . S
C729 N726 1.390 . S
C729 C730 1.346 . S
C729 H734 0.930 . S
C730 N727 1.336 . S
C730 C729 1.346 . S
C730 H737 0.929 . S
C731 O721 1.282 . S
C731 O732 1.216 . S
O732 C731 1.216 . S
H733 C728 0.930 . S
H734 C729 0.930 . S
O735 Cu715 1.959 . S
O735 C722 1.251 . S
H736 C719 0.930 . S
H737 C730 0.929 . S
Cu738 N739 1.999 . S
Cu738 O744 1.974 . S
Cu738 N749 1.985 . S
Cu738 O758 1.959 . S
N739 Cu738 1.999 . S
N739 C741 1.263 . S
N739 C743 1.389 . S
N740 C741 1.358 . S
N740 C742 1.400 . S
C741 N739 1.263 . S
C741 N740 1.358 . S
C741 H747 0.930 . S
C742 N740 1.400 . S
C742 C743 1.351 . S
C742 H759 0.930 . S
C743 N739 1.389 . S
C743 C742 1.351 . S
C743 H748 0.930 . S
O744 Cu738 1.974 . S
O744 C754 1.282 . S
C745 O746 1.261 . S
C745 O758 1.251 . S
O746 C745 1.261 . S
H747 C741 0.930 . S
H748 C743 0.930 . S
N749 Cu738 1.985 . S
N749 C751 1.335 . S
N749 C752 1.390 . S
N750 C751 1.345 . S
N750 C753 1.336 . S
C751 N749 1.335 . S
C751 N750 1.345 . S
C751 H756 0.930 . S
C752 N749 1.390 . S
C752 C753 1.346 . S
C752 H757 0.930 . S
C753 N750 1.336 . S
C753 C752 1.346 . S
C753 H760 0.929 . S
C754 O744 1.282 . S
C754 O755 1.216 . S
O755 C754 1.216 . S
H756 C751 0.930 . S
H757 C752 0.930 . S
O758 Cu738 1.959 . S
O758 C745 1.251 . S
H759 C742 0.930 . S
H760 C753 0.929 . S
Cu761 N762 1.999 . S
Cu761 O767 1.974 . S
Cu761 N772 1.985 . S
Cu761 O781 1.959 . S
N762 Cu761 1.999 . S
N762 C764 1.263 . S
N762 C766 1.389 . S
N763 C764 1.358 . S
N763 C765 1.400 . S
C764 N762 1.263 . S
C764 N763 1.358 . S
C764 H770 0.930 . S
C765 N763 1.400 . S
C765 C766 1.351 . S
C765 H782 0.930 . S
C766 N762 1.389 . S
C766 C765 1.351 . S
C766 H771 0.930 . S
O767 Cu761 1.974 . S
O767 C777 1.282 . S
C768 O769 1.261 . S
C768 O781 1.251 . S
O769 C768 1.261 . S
H770 C764 0.930 . S
H771 C766 0.930 . S
N772 Cu761 1.985 . S
N772 C774 1.335 . S
N772 C775 1.390 . S
N773 C774 1.345 . S
N773 C776 1.336 . S
C774 N772 1.335 . S
C774 N773 1.345 . S
C774 H779 0.930 . S
C775 N772 1.390 . S
C775 C776 1.346 . S
C775 H780 0.930 . S
C776 N773 1.336 . S
C776 C775 1.346 . S
C776 H783 0.929 . S
C777 O767 1.282 . S
C777 O778 1.216 . S
O778 C777 1.216 . S
H779 C774 0.930 . S
H780 C775 0.930 . S
O781 Cu761 1.959 . S
O781 C768 1.251 . S
H782 C765 0.930 . S
H783 C776 0.929 . S
Cu784 N785 1.999 . S
Cu784 O790 1.974 . S
Cu784 N795 1.985 . S
Cu784 O804 1.959 . S
N785 Cu784 1.999 . S
N785 C787 1.263 . S
N785 C789 1.389 . S
N786 C787 1.358 . S
N786 C788 1.400 . S
C787 N785 1.263 . S
C787 N786 1.358 . S
C787 H793 0.930 . S
C788 N786 1.400 . S
C788 C789 1.351 . S
C788 H805 0.930 . S
C789 N785 1.389 . S
C789 C788 1.351 . S
C789 H794 0.930 . S
O790 Cu784 1.974 . S
O790 C800 1.282 . S
C791 O792 1.261 . S
C791 O804 1.251 . S
O792 C791 1.261 . S
H793 C787 0.930 . S
H794 C789 0.930 . S
N795 Cu784 1.985 . S
N795 C797 1.335 . S
N795 C798 1.390 . S
N796 C797 1.345 . S
N796 C799 1.336 . S
C797 N795 1.335 . S
C797 N796 1.345 . S
C797 H802 0.930 . S
C798 N795 1.390 . S
C798 C799 1.346 . S
C798 H803 0.930 . S
C799 N796 1.336 . S
C799 C798 1.346 . S
C799 H806 0.929 . S
C800 O790 1.282 . S
C800 O801 1.216 . S
O801 C800 1.216 . S
H802 C797 0.930 . S
H803 C798 0.930 . S
O804 Cu784 1.959 . S
O804 C791 1.251 . S
H805 C788 0.930 . S
H806 C799 0.929 . S
Cu807 N808 1.999 . S
Cu807 O813 1.974 . S
Cu807 N818 1.985 . S
Cu807 O827 1.959 . S
N808 Cu807 1.999 . S
N808 C810 1.263 . S
N808 C812 1.389 . S
N809 C810 1.358 . S
N809 C811 1.400 . S
C810 N808 1.263 . S
C810 N809 1.358 . S
C810 H816 0.930 . S
C811 N809 1.400 . S
C811 C812 1.351 . S
C811 H828 0.930 . S
C812 N808 1.389 . S
C812 C811 1.351 . S
C812 H817 0.930 . S
O813 Cu807 1.974 . S
O813 C823 1.282 . S
C814 O815 1.261 . S
C814 O827 1.251 . S
O815 C814 1.261 . S
H816 C810 0.930 . S
H817 C812 0.930 . S
N818 Cu807 1.985 . S
N818 C820 1.335 . S
N818 C821 1.390 . S
N819 C820 1.345 . S
N819 C822 1.336 . S
C820 N818 1.335 . S
C820 N819 1.345 . S
C820 H825 0.930 . S
C821 N818 1.390 . S
C821 C822 1.346 . S
C821 H826 0.930 . S
C822 N819 1.336 . S
C822 C821 1.346 . S
C822 H829 0.929 . S
C823 O813 1.282 . S
C823 O824 1.216 . S
O824 C823 1.216 . S
H825 C820 0.930 . S
H826 C821 0.930 . S
O827 Cu807 1.959 . S
O827 C814 1.251 . S
H828 C811 0.930 . S
H829 C822 0.929 . S
Cu830 N831 1.999 . S
Cu830 O836 1.974 . S
Cu830 N841 1.985 . S
Cu830 O850 1.959 . S
N831 Cu830 1.999 . S
N831 C833 1.263 . S
N831 C835 1.389 . S
N832 C833 1.358 . S
N832 C834 1.400 . S
C833 N831 1.263 . S
C833 N832 1.358 . S
C833 H839 0.930 . S
C834 N832 1.400 . S
C834 C835 1.351 . S
C834 H851 0.930 . S
C835 N831 1.389 . S
C835 C834 1.351 . S
C835 H840 0.930 . S
O836 Cu830 1.974 . S
O836 C846 1.282 . S
C837 O838 1.261 . S
C837 O850 1.251 . S
O838 C837 1.261 . S
H839 C833 0.930 . S
H840 C835 0.930 . S
N841 Cu830 1.985 . S
N841 C843 1.335 . S
N841 C844 1.390 . S
N842 C843 1.345 . S
N842 C845 1.336 . S
C843 N841 1.335 . S
C843 N842 1.345 . S
C843 H848 0.930 . S
C844 N841 1.390 . S
C844 C845 1.346 . S
C844 H849 0.930 . S
C845 N842 1.336 . S
C845 C844 1.346 . S
C845 H852 0.929 . S
C846 O836 1.282 . S
C846 O847 1.216 . S
O847 C846 1.216 . S
H848 C843 0.930 . S
H849 C844 0.930 . S
O850 Cu830 1.959 . S
O850 C837 1.251 . S
H851 C834 0.930 . S
H852 C845 0.929 . S
Cu853 N854 1.999 . S
Cu853 O859 1.974 . S
Cu853 N864 1.985 . S
Cu853 O873 1.959 . S
N854 Cu853 1.999 . S
N854 C856 1.263 . S
N854 C858 1.389 . S
N855 C856 1.358 . S
N855 C857 1.400 . S
C856 N854 1.263 . S
C856 N855 1.358 . S
C856 H862 0.930 . S
C857 N855 1.400 . S
C857 C858 1.351 . S
C857 H874 0.930 . S
C858 N854 1.389 . S
C858 C857 1.351 . S
C858 H863 0.930 . S
O859 Cu853 1.974 . S
O859 C869 1.282 . S
C860 O861 1.261 . S
C860 O873 1.251 . S
O861 C860 1.261 . S
H862 C856 0.930 . S
H863 C858 0.930 . S
N864 Cu853 1.985 . S
N864 C866 1.335 . S
N864 C867 1.390 . S
N865 C866 1.345 . S
N865 C868 1.336 . S
C866 N864 1.335 . S
C866 N865 1.345 . S
C866 H871 0.930 . S
C867 N864 1.390 . S
C867 C868 1.346 . S
C867 H872 0.930 . S
C868 N865 1.336 . S
C868 C867 1.346 . S
C868 H875 0.929 . S
C869 O859 1.282 . S
C869 O870 1.216 . S
O870 C869 1.216 . S
H871 C866 0.930 . S
H872 C867 0.930 . S
O873 Cu853 1.959 . S
O873 C860 1.251 . S
H874 C857 0.930 . S
H875 C868 0.929 . S
Cu876 N877 1.999 . S
Cu876 O882 1.974 . S
Cu876 N887 1.985 . S
Cu876 O896 1.959 . S
N877 Cu876 1.999 . S
N877 C879 1.263 . S
N877 C881 1.389 . S
N878 C879 1.358 . S
N878 C880 1.400 . S
C879 N877 1.263 . S
C879 N878 1.358 . S
C879 H885 0.930 . S
C880 N878 1.400 . S
C880 C881 1.351 . S
C880 H897 0.930 . S
C881 N877 1.389 . S
C881 C880 1.351 . S
C881 H886 0.930 . S
O882 Cu876 1.974 . S
O882 C892 1.282 . S
C883 O884 1.261 . S
C883 O896 1.251 . S
O884 C883 1.261 . S
H885 C879 0.930 . S
H886 C881 0.930 . S
N887 Cu876 1.985 . S
N887 C889 1.335 . S
N887 C890 1.390 . S
N888 C889 1.345 . S
N888 C891 1.336 . S
C889 N887 1.335 . S
C889 N888 1.345 . S
C889 H894 0.930 . S
C890 N887 1.390 . S
C890 C891 1.346 . S
C890 H895 0.930 . S
C891 N888 1.336 . S
C891 C890 1.346 . S
C891 H898 0.929 . S
C892 O882 1.282 . S
C892 O893 1.216 . S
O893 C892 1.216 . S
H894 C889 0.930 . S
H895 C890 0.930 . S
O896 Cu876 1.959 . S
O896 C883 1.251 . S
H897 C880 0.930 . S
H898 C891 0.929 . S
Cu899 N900 1.999 . S
Cu899 O905 1.974 . S
Cu899 N910 1.985 . S
Cu899 O919 1.959 . S
N900 Cu899 1.999 . S
N900 C902 1.263 . S
N900 C904 1.389 . S
N901 C902 1.358 . S
N901 C903 1.400 . S
C902 N900 1.263 . S
C902 N901 1.358 . S
C902 H908 0.930 . S
C903 N901 1.400 . S
C903 C904 1.351 . S
C903 H920 0.930 . S
C904 N900 1.389 . S
C904 C903 1.351 . S
C904 H909 0.930 . S
O905 Cu899 1.974 . S
O905 C915 1.282 . S
C906 O907 1.261 . S
C906 O919 1.251 . S
O907 C906 1.261 . S
H908 C902 0.930 . S
H909 C904 0.930 . S
N910 Cu899 1.985 . S
N910 C912 1.335 . S
N910 C913 1.390 . S
N911 C912 1.345 . S
N911 C914 1.336 . S
C912 N910 1.335 . S
C912 N911 1.345 . S
C912 H917 0.930 . S
C913 N910 1.390 . S
C913 C914 1.346 . S
C913 H918 0.930 . S
C914 N911 1.336 . S
C914 C913 1.346 . S
C914 H921 0.929 . S
C915 O905 1.282 . S
C915 O916 1.216 . S
O916 C915 1.216 . S
H917 C912 0.930 . S
H918 C913 0.930 . S
O919 Cu899 1.959 . S
O919 C906 1.251 . S
H920 C903 0.930 . S
H921 C914 0.929 . S
Cu922 N923 1.999 . S
Cu922 O928 1.974 . S
Cu922 N933 1.985 . S
Cu922 O942 1.959 . S
N923 Cu922 1.999 . S
N923 C925 1.263 . S
N923 C927 1.389 . S
N924 C925 1.358 . S
N924 C926 1.400 . S
C925 N923 1.263 . S
C925 N924 1.358 . S
C925 H931 0.930 . S
C926 N924 1.400 . S
C926 C927 1.351 . S
C926 H943 0.930 . S
C927 N923 1.389 . S
C927 C926 1.351 . S
C927 H932 0.930 . S
O928 Cu922 1.974 . S
O928 C938 1.282 . S
C929 O930 1.261 . S
C929 O942 1.251 . S
O930 C929 1.261 . S
H931 C925 0.930 . S
H932 C927 0.930 . S
N933 Cu922 1.985 . S
N933 C935 1.335 . S
N933 C936 1.390 . S
N934 C935 1.345 . S
N934 C937 1.336 . S
C935 N933 1.335 . S
C935 N934 1.345 . S
C935 H940 0.930 . S
C936 N933 1.390 . S
C936 C937 1.346 . S
C936 H941 0.930 . S
C937 N934 1.336 . S
C937 C936 1.346 . S
C937 H944 0.929 . S
C938 O928 1.282 . S
C938 O939 1.216 . S
O939 C938 1.216 . S
H940 C935 0.930 . S
H941 C936 0.930 . S
O942 Cu922 1.959 . S
O942 C929 1.251 . S
H943 C926 0.930 . S
H944 C937 0.929 . S
Cu945 N946 1.999 . S
Cu945 O951 1.974 . S
Cu945 N956 1.985 . S
Cu945 O965 1.959 . S
N946 Cu945 1.999 . S
N946 C948 1.263 . S
N946 C950 1.389 . S
N947 C948 1.358 . S
N947 C949 1.400 . S
C948 N946 1.263 . S
C948 N947 1.358 . S
C948 H954 0.930 . S
C949 N947 1.400 . S
C949 C950 1.351 . S
C949 H966 0.930 . S
C950 N946 1.389 . S
C950 C949 1.351 . S
C950 H955 0.930 . S
O951 Cu945 1.974 . S
O951 C961 1.282 . S
C952 O953 1.261 . S
C952 O965 1.251 . S
O953 C952 1.261 . S
H954 C948 0.930 . S
H955 C950 0.930 . S
N956 Cu945 1.985 . S
N956 C958 1.335 . S
N956 C959 1.390 . S
N957 C958 1.345 . S
N957 C960 1.336 . S
C958 N956 1.335 . S
C958 N957 1.345 . S
C958 H963 0.930 . S
C959 N956 1.390 . S
C959 C960 1.346 . S
C959 H964 0.930 . S
C960 N957 1.336 . S
C960 C959 1.346 . S
C960 H967 0.929 . S
C961 O951 1.282 . S
C961 O962 1.216 . S
O962 C961 1.216 . S
H963 C958 0.930 . S
H964 C959 0.930 . S
O965 Cu945 1.959 . S
O965 C952 1.251 . S
H966 C949 0.930 . S
H967 C960 0.929 . S
C968 C969 1.363 . S
C968 C974 1.379 . S
C968 N976 1.356 . S
C969 C968 1.363 . S
C969 C975 1.363 . S
C970 C971 1.363 . S
C970 C975 1.379 . S
C970 N977 1.356 . S
C971 C970 1.363 . S
C971 C974 1.363 . S
N972 C974 1.356 . S
N972 H984 0.984 . S
N972 H985 0.985 . S
N973 C975 1.356 . S
N973 H978 0.984 . S
N973 H979 0.985 . S
C974 C968 1.379 . S
C974 C971 1.363 . S
C974 N972 1.356 . S
C975 C969 1.363 . S
C975 C970 1.379 . S
C975 N973 1.356 . S
N976 C968 1.356 . S
N976 H982 0.984 . S
N976 H983 0.984 . S
N977 C970 1.356 . S
N977 H980 0.984 . S
N977 H981 0.985 . S
H978 N973 0.984 . S
H979 N973 0.985 . S
H980 N977 0.984 . S
H981 N977 0.985 . S
H982 N976 0.984 . S
H983 N976 0.984 . S
H984 N972 0.984 . S
H985 N972 0.985 . S
C986 C987 1.363 . S
C986 C992 1.379 . S
C986 N994 1.356 . S
C987 C986 1.363 . S
C987 C993 1.363 . S
C988 C989 1.363 . S
C988 C993 1.379 . S
C988 N995 1.356 . S
C989 C988 1.363 . S
C989 C992 1.363 . S
N990 C992 1.356 . S
N990 H1002 0.984 . S
N990 H1003 0.985 . S
N991 C993 1.356 . S
N991 H996 0.984 . S
N991 H997 0.985 . S
C992 C986 1.379 . S
C992 C989 1.363 . S
C992 N990 1.356 . S
C993 C987 1.363 . S
C993 C988 1.379 . S
C993 N991 1.356 . S
N994 C986 1.356 . S
N994 H1000 0.984 . S
N994 H1001 0.984 . S
N995 C988 1.356 . S
N995 H998 0.984 . S
N995 H999 0.985 . S
H996 N991 0.984 . S
H997 N991 0.985 . S
H998 N995 0.984 . S
H999 N995 0.985 . S
H1000 N994 0.984 . S
H1001 N994 0.984 . S
H1002 N990 0.984 . S
H1003 N990 0.985 . S
C1004 C1005 1.363 . S
C1004 C1010 1.379 . S
C1004 N1012 1.356 . S
C1005 C1004 1.363 . S
C1005 C1011 1.363 . S
C1006 C1007 1.363 . S
C1006 C1011 1.379 . S
C1006 N1013 1.356 . S
C1007 C1006 1.363 . S
C1007 C1010 1.363 . S
N1008 C1010 1.356 . S
N1008 H1020 0.984 . S
N1008 H1021 0.985 . S
N1009 C1011 1.356 . S
N1009 H1014 0.984 . S
N1009 H1015 0.985 . S
C1010 C1004 1.379 . S
C1010 C1007 1.363 . S
C1010 N1008 1.356 . S
C1011 C1005 1.363 . S
C1011 C1006 1.379 . S
C1011 N1009 1.356 . S
N1012 C1004 1.356 . S
N1012 H1018 0.984 . S
N1012 H1019 0.984 . S
N1013 C1006 1.356 . S
N1013 H1016 0.984 . S
N1013 H1017 0.985 . S
H1014 N1009 0.984 . S
H1015 N1009 0.985 . S
H1016 N1013 0.984 . S
H1017 N1013 0.985 . S
H1018 N1012 0.984 . S
H1019 N1012 0.984 . S
H1020 N1008 0.984 . S
H1021 N1008 0.985 . S
C1022 C1023 1.363 . S
C1022 C1028 1.379 . S
C1022 N1030 1.356 . S
C1023 C1022 1.363 . S
C1023 C1029 1.363 . S
C1024 C1025 1.363 . S
C1024 C1029 1.379 . S
C1024 N1031 1.356 . S
C1025 C1024 1.363 . S
C1025 C1028 1.363 . S
N1026 C1028 1.356 . S
N1026 H1038 0.984 . S
N1026 H1039 0.985 . S
N1027 C1029 1.356 . S
N1027 H1032 0.984 . S
N1027 H1033 0.985 . S
C1028 C1022 1.379 . S
C1028 C1025 1.363 . S
C1028 N1026 1.356 . S
C1029 C1023 1.363 . S
C1029 C1024 1.379 . S
C1029 N1027 1.356 . S
N1030 C1022 1.356 . S
N1030 H1036 0.984 . S
N1030 H1037 0.984 . S
N1031 C1024 1.356 . S
N1031 H1034 0.984 . S
N1031 H1035 0.985 . S
H1032 N1027 0.984 . S
H1033 N1027 0.985 . S
H1034 N1031 0.984 . S
H1035 N1031 0.985 . S
H1036 N1030 0.984 . S
H1037 N1030 0.984 . S
H1038 N1026 0.984 . S
H1039 N1026 0.985 . S
C1040 C1041 1.363 . S
C1040 C1046 1.379 . S
C1040 N1048 1.356 . S
C1041 C1040 1.363 . S
C1041 C1047 1.363 . S
C1042 C1043 1.363 . S
C1042 C1047 1.379 . S
C1042 N1049 1.356 . S
C1043 C1042 1.363 . S
C1043 C1046 1.363 . S
N1044 C1046 1.356 . S
N1044 H1056 0.984 . S
N1044 H1057 0.985 . S
N1045 C1047 1.356 . S
N1045 H1050 0.984 . S
N1045 H1051 0.985 . S
C1046 C1040 1.379 . S
C1046 C1043 1.363 . S
C1046 N1044 1.356 . S
C1047 C1041 1.363 . S
C1047 C1042 1.379 . S
C1047 N1045 1.356 . S
N1048 C1040 1.356 . S
N1048 H1054 0.984 . S
N1048 H1055 0.984 . S
N1049 C1042 1.356 . S
N1049 H1052 0.984 . S
N1049 H1053 0.985 . S
H1050 N1045 0.984 . S
H1051 N1045 0.985 . S
H1052 N1049 0.984 . S
H1053 N1049 0.985 . S
H1054 N1048 0.984 . S
H1055 N1048 0.984 . S
H1056 N1044 0.984 . S
H1057 N1044 0.985 . S
C1058 C1059 1.363 . S
C1058 C1064 1.379 . S
C1058 N1066 1.356 . S
C1059 C1058 1.363 . S
C1059 C1065 1.363 . S
C1060 C1061 1.363 . S
C1060 C1065 1.379 . S
C1060 N1067 1.356 . S
C1061 C1060 1.363 . S
C1061 C1064 1.363 . S
N1062 C1064 1.356 1_554 S
N1062 H1074 0.984 . S
N1062 H1075 0.985 . S
N1063 C1065 1.356 . S
N1063 H1068 0.984 . S
N1063 H1069 0.985 . S
C1064 C1058 1.379 . S
C1064 C1061 1.363 . S
C1064 N1062 1.356 1_556 S
C1065 C1059 1.363 . S
C1065 C1060 1.379 . S
C1065 N1063 1.356 . S
N1066 C1058 1.356 . S
N1066 H1072 0.984 . S
N1066 H1073 0.984 . S
N1067 C1060 1.356 . S
N1067 H1070 0.984 . S
N1067 H1071 0.985 . S
H1068 N1063 0.984 . S
H1069 N1063 0.985 . S
H1070 N1067 0.984 . S
H1071 N1067 0.985 . S
H1072 N1066 0.984 . S
H1073 N1066 0.984 . S
H1074 N1062 0.984 . S
H1075 N1062 0.985 . S
C1076 C1077 1.363 . S
C1076 C1082 1.379 . S
C1076 N1084 1.356 . S
C1077 C1076 1.363 . S
C1077 C1083 1.363 . S
C1078 C1079 1.363 . S
C1078 C1083 1.379 . S
C1078 N1085 1.356 . S
C1079 C1078 1.363 . S
C1079 C1082 1.363 . S
N1080 C1082 1.356 . S
N1080 H1092 0.984 . S
N1080 H1093 0.985 . S
N1081 C1083 1.356 . S
N1081 H1086 0.984 . S
N1081 H1087 0.985 . S
C1082 C1076 1.379 . S
C1082 C1079 1.363 . S
C1082 N1080 1.356 . S
C1083 C1077 1.363 . S
C1083 C1078 1.379 . S
C1083 N1081 1.356 . S
N1084 C1076 1.356 . S
N1084 H1090 0.984 . S
N1084 H1091 0.984 . S
N1085 C1078 1.356 . S
N1085 H1088 0.984 . S
N1085 H1089 0.985 . S
H1086 N1081 0.984 . S
H1087 N1081 0.985 . S
H1088 N1085 0.984 . S
H1089 N1085 0.985 . S
H1090 N1084 0.984 . S
H1091 N1084 0.984 . S
H1092 N1080 0.984 . S
H1093 N1080 0.985 . S
C1094 C1095 1.363 . S
C1094 C1100 1.379 . S
C1094 N1102 1.356 . S
C1095 C1094 1.363 . S
C1095 C1101 1.363 . S
C1096 C1097 1.363 . S
C1096 C1101 1.379 . S
C1096 N1103 1.356 . S
C1097 C1096 1.363 . S
C1097 C1100 1.363 . S
N1098 C1100 1.356 . S
N1098 H1110 0.984 . S
N1098 H1111 0.985 . S
N1099 C1101 1.356 . S
N1099 H1104 0.984 . S
N1099 H1105 0.985 . S
C1100 C1094 1.379 . S
C1100 C1097 1.363 . S
C1100 N1098 1.356 . S
C1101 C1095 1.363 . S
C1101 C1096 1.379 . S
C1101 N1099 1.356 . S
N1102 C1094 1.356 . S
N1102 H1108 0.984 . S
N1102 H1109 0.984 . S
N1103 C1096 1.356 . S
N1103 H1106 0.984 . S
N1103 H1107 0.985 . S
H1104 N1099 0.984 . S
H1105 N1099 0.985 . S
H1106 N1103 0.984 . S
H1107 N1103 0.985 . S
H1108 N1102 0.984 . S
H1109 N1102 0.984 . S
H1110 N1098 0.984 . S
H1111 N1098 0.985 . S
C1112 C1113 1.363 . S
C1112 C1118 1.379 . S
C1112 N1120 1.356 . S
C1113 C1112 1.363 . S
C1113 C1119 1.363 . S
C1114 C1115 1.363 . S
C1114 C1119 1.379 . S
C1114 N1121 1.356 . S
C1115 C1114 1.363 . S
C1115 C1118 1.363 . S
N1116 C1118 1.356 . S
N1116 H1128 0.984 . S
N1116 H1129 0.985 . S
N1117 C1119 1.356 . S
N1117 H1122 0.984 . S
N1117 H1123 0.985 . S
C1118 C1112 1.379 . S
C1118 C1115 1.363 . S
C1118 N1116 1.356 . S
C1119 C1113 1.363 . S
C1119 C1114 1.379 . S
C1119 N1117 1.356 . S
N1120 C1112 1.356 . S
N1120 H1126 0.984 . S
N1120 H1127 0.984 . S
N1121 C1114 1.356 . S
N1121 H1124 0.984 . S
N1121 H1125 0.985 . S
H1122 N1117 0.984 . S
H1123 N1117 0.985 . S
H1124 N1121 0.984 . S
H1125 N1121 0.985 . S
H1126 N1120 0.984 . S
H1127 N1120 0.984 . S
H1128 N1116 0.984 . S
H1129 N1116 0.985 . S
C1130 C1131 1.363 . S
C1130 C1136 1.379 . S
C1130 N1138 1.356 . S
C1131 C1130 1.363 . S
C1131 C1137 1.363 . S
C1132 C1133 1.363 . S
C1132 C1137 1.379 . S
C1132 N1139 1.356 . S
C1133 C1132 1.363 . S
C1133 C1136 1.363 . S
N1134 C1136 1.356 . S
N1134 H1146 0.984 . S
N1134 H1147 0.985 . S
N1135 C1137 1.356 . S
N1135 H1140 0.984 . S
N1135 H1141 0.985 . S
C1136 C1130 1.379 . S
C1136 C1133 1.363 . S
C1136 N1134 1.356 . S
C1137 C1131 1.363 . S
C1137 C1132 1.379 . S
C1137 N1135 1.356 . S
N1138 C1130 1.356 . S
N1138 H1144 0.984 . S
N1138 H1145 0.984 . S
N1139 C1132 1.356 . S
N1139 H1142 0.984 . S
N1139 H1143 0.985 . S
H1140 N1135 0.984 . S
H1141 N1135 0.985 . S
H1142 N1139 0.984 . S
H1143 N1139 0.985 . S
H1144 N1138 0.984 . S
H1145 N1138 0.984 . S
H1146 N1134 0.984 . S
H1147 N1134 0.985 . S
C1148 C1149 1.363 . S
C1148 C1154 1.379 . S
C1148 N1156 1.356 . S
C1149 C1148 1.363 . S
C1149 C1155 1.363 . S
C1150 C1151 1.363 . S
C1150 C1155 1.379 . S
C1150 N1157 1.356 . S
C1151 C1150 1.363 . S
C1151 C1154 1.363 . S
N1152 C1154 1.356 . S
N1152 H1164 0.984 . S
N1152 H1165 0.985 . S
N1153 C1155 1.356 . S
N1153 H1158 0.984 . S
N1153 H1159 0.985 . S
C1154 C1148 1.379 . S
C1154 C1151 1.363 . S
C1154 N1152 1.356 . S
C1155 C1149 1.363 . S
C1155 C1150 1.379 . S
C1155 N1153 1.356 . S
N1156 C1148 1.356 . S
N1156 H1162 0.984 . S
N1156 H1163 0.984 . S
N1157 C1150 1.356 . S
N1157 H1160 0.984 . S
N1157 H1161 0.985 . S
H1158 N1153 0.984 . S
H1159 N1153 0.985 . S
H1160 N1157 0.984 . S
H1161 N1157 0.985 . S
H1162 N1156 0.984 . S
H1163 N1156 0.984 . S
H1164 N1152 0.984 . S
H1165 N1152 0.985 . S
C1166 C1167 1.363 . S
C1166 C1172 1.379 . S
C1166 N1174 1.356 . S
C1167 C1166 1.363 . S
C1167 C1173 1.363 . S
C1168 C1169 1.363 . S
C1168 C1173 1.379 . S
C1168 N1175 1.356 . S
C1169 C1168 1.363 . S
C1169 C1172 1.363 . S
N1170 C1172 1.356 . S
N1170 H1182 0.984 . S
N1170 H1183 0.985 . S
N1171 C1173 1.356 . S
N1171 H1176 0.984 . S
N1171 H1177 0.985 . S
C1172 C1166 1.379 . S
C1172 C1169 1.363 . S
C1172 N1170 1.356 . S
C1173 C1167 1.363 . S
C1173 C1168 1.379 . S
C1173 N1171 1.356 . S
N1174 C1166 1.356 . S
N1174 H1180 0.984 . S
N1174 H1181 0.984 . S
N1175 C1168 1.356 . S
N1175 H1178 0.984 . S
N1175 H1179 0.985 . S
H1176 N1171 0.984 . S
H1177 N1171 0.985 . S
H1178 N1175 0.984 . S
H1179 N1175 0.985 . S
H1180 N1174 0.984 . S
H1181 N1174 0.984 . S
H1182 N1170 0.984 . S
H1183 N1170 0.985 . S
C1184 C1185 1.363 . S
C1184 C1190 1.379 . S
C1184 N1192 1.356 . S
C1185 C1184 1.363 . S
C1185 C1191 1.363 . S
C1186 C1187 1.363 . S
C1186 C1191 1.379 . S
C1186 N1193 1.356 . S
C1187 C1186 1.363 . S
C1187 C1190 1.363 . S
N1188 C1190 1.356 . S
N1188 H1200 0.984 . S
N1188 H1201 0.985 . S
N1189 C1191 1.356 . S
N1189 H1194 0.984 . S
N1189 H1195 0.985 . S
C1190 C1184 1.379 . S
C1190 C1187 1.363 . S
C1190 N1188 1.356 . S
C1191 C1185 1.363 . S
C1191 C1186 1.379 . S
C1191 N1189 1.356 . S
N1192 C1184 1.356 . S
N1192 H1198 0.984 . S
N1192 H1199 0.984 . S
N1193 C1186 1.356 . S
N1193 H1196 0.984 . S
N1193 H1197 0.985 . S
H1194 N1189 0.984 . S
H1195 N1189 0.985 . S
H1196 N1193 0.984 . S
H1197 N1193 0.985 . S
H1198 N1192 0.984 . S
H1199 N1192 0.984 . S
H1200 N1188 0.984 . S
H1201 N1188 0.985 . S
C1202 C1203 1.363 . S
C1202 C1208 1.379 . S
C1202 N1210 1.356 . S
C1203 C1202 1.363 . S
C1203 C1209 1.363 . S
C1204 C1205 1.363 . S
C1204 C1209 1.379 . S
C1204 N1211 1.356 . S
C1205 C1204 1.363 . S
C1205 C1208 1.363 . S
N1206 C1208 1.356 . S
N1206 H1218 0.984 . S
N1206 H1219 0.985 . S
N1207 C1209 1.356 . S
N1207 H1212 0.984 . S
N1207 H1213 0.985 . S
C1208 C1202 1.379 . S
C1208 C1205 1.363 . S
C1208 N1206 1.356 . S
C1209 C1203 1.363 . S
C1209 C1204 1.379 . S
C1209 N1207 1.356 . S
N1210 C1202 1.356 . S
N1210 H1216 0.984 . S
N1210 H1217 0.984 . S
N1211 C1204 1.356 . S
N1211 H1214 0.984 . S
N1211 H1215 0.985 . S
H1212 N1207 0.984 . S
H1213 N1207 0.985 . S
H1214 N1211 0.984 . S
H1215 N1211 0.985 . S
H1216 N1210 0.984 . S
H1217 N1210 0.984 . S
H1218 N1206 0.984 . S
H1219 N1206 0.985 . S
C1220 C1221 1.363 . S
C1220 C1226 1.379 . S
C1220 N1228 1.356 . S
C1221 C1220 1.363 . S
C1221 C1227 1.363 . S
C1222 C1223 1.363 . S
C1222 C1227 1.379 . S
C1222 N1229 1.356 . S
C1223 C1222 1.363 . S
C1223 C1226 1.363 . S
N1224 C1226 1.356 . S
N1224 H1236 0.984 . S
N1224 H1237 0.985 . S
N1225 C1227 1.356 . S
N1225 H1230 0.984 . S
N1225 H1231 0.985 . S
C1226 C1220 1.379 . S
C1226 C1223 1.363 . S
C1226 N1224 1.356 . S
C1227 C1221 1.363 . S
C1227 C1222 1.379 . S
C1227 N1225 1.356 . S
N1228 C1220 1.356 . S
N1228 H1234 0.984 . S
N1228 H1235 0.984 . S
N1229 C1222 1.356 . S
N1229 H1232 0.984 . S
N1229 H1233 0.985 . S
H1230 N1225 0.984 . S
H1231 N1225 0.985 . S
H1232 N1229 0.984 . S
H1233 N1229 0.985 . S
H1234 N1228 0.984 . S
H1235 N1228 0.984 . S
H1236 N1224 0.984 . S
H1237 N1224 0.985 . S
C1238 C1239 1.363 . S
C1238 C1244 1.379 . S
C1238 N1246 1.356 . S
C1239 C1238 1.363 . S
C1239 C1245 1.363 . S
C1240 C1241 1.363 . S
C1240 C1245 1.379 . S
C1240 N1247 1.356 . S
C1241 C1240 1.363 . S
C1241 C1244 1.363 . S
N1242 C1244 1.356 . S
N1242 H1254 0.984 . S
N1242 H1255 0.985 . S
N1243 C1245 1.356 . S
N1243 H1248 0.984 . S
N1243 H1249 0.985 . S
C1244 C1238 1.379 . S
C1244 C1241 1.363 . S
C1244 N1242 1.356 . S
C1245 C1239 1.363 . S
C1245 C1240 1.379 . S
C1245 N1243 1.356 . S
N1246 C1238 1.356 . S
N1246 H1252 0.984 . S
N1246 H1253 0.984 . S
N1247 C1240 1.356 . S
N1247 H1250 0.984 . S
N1247 H1251 0.985 . S
H1248 N1243 0.984 . S
H1249 N1243 0.985 . S
H1250 N1247 0.984 . S
H1251 N1247 0.985 . S
H1252 N1246 0.984 . S
H1253 N1246 0.984 . S
H1254 N1242 0.984 . S
H1255 N1242 0.985 . S
C1256 C1257 1.363 . S
C1256 C1262 1.379 . S
C1256 N1264 1.356 . S
C1257 C1256 1.363 . S
C1257 C1263 1.363 . S
C1258 C1259 1.363 . S
C1258 C1263 1.379 . S
C1258 N1265 1.356 . S
C1259 C1258 1.363 . S
C1259 C1262 1.363 . S
N1260 C1262 1.356 . S
N1260 H1272 0.984 . S
N1260 H1273 0.985 . S
N1261 C1263 1.356 . S
N1261 H1266 0.984 . S
N1261 H1267 0.985 . S
C1262 C1256 1.379 . S
C1262 C1259 1.363 . S
C1262 N1260 1.356 . S
C1263 C1257 1.363 . S
C1263 C1258 1.379 . S
C1263 N1261 1.356 . S
N1264 C1256 1.356 . S
N1264 H1270 0.984 . S
N1264 H1271 0.984 . S
N1265 C1258 1.356 . S
N1265 H1268 0.984 . S
N1265 H1269 0.985 . S
H1266 N1261 0.984 . S
H1267 N1261 0.985 . S
H1268 N1265 0.984 . S
H1269 N1265 0.985 . S
H1270 N1264 0.984 . S
H1271 N1264 0.984 . S
H1272 N1260 0.984 . S
H1273 N1260 0.985 . S
C1274 C1275 1.363 . S
C1274 C1280 1.379 . S
C1274 N1282 1.356 . S
C1275 C1274 1.363 . S
C1275 C1281 1.363 . S
C1276 C1277 1.363 . S
C1276 C1281 1.379 . S
C1276 N1283 1.356 . S
C1277 C1276 1.363 . S
C1277 C1280 1.363 . S
N1278 C1280 1.356 . S
N1278 H1290 0.984 . S
N1278 H1291 0.985 . S
N1279 C1281 1.356 . S
N1279 H1284 0.984 . S
N1279 H1285 0.985 . S
C1280 C1274 1.379 . S
C1280 C1277 1.363 . S
C1280 N1278 1.356 . S
C1281 C1275 1.363 . S
C1281 C1276 1.379 . S
C1281 N1279 1.356 . S
N1282 C1274 1.356 . S
N1282 H1288 0.984 . S
N1282 H1289 0.984 . S
N1283 C1276 1.356 . S
N1283 H1286 0.984 . S
N1283 H1287 0.985 . S
H1284 N1279 0.984 . S
H1285 N1279 0.985 . S
H1286 N1283 0.984 . S
H1287 N1283 0.985 . S
H1288 N1282 0.984 . S
H1289 N1282 0.984 . S
H1290 N1278 0.984 . S
H1291 N1278 0.985 . S
C1292 C1293 1.363 . S
C1292 C1298 1.379 . S
C1292 N1300 1.356 . S
C1293 C1292 1.363 . S
C1293 C1299 1.363 . S
C1294 C1295 1.363 . S
C1294 C1299 1.379 . S
C1294 N1301 1.356 . S
C1295 C1294 1.363 . S
C1295 C1298 1.363 . S
N1296 C1298 1.356 . S
N1296 H1308 0.984 . S
N1296 H1309 0.985 . S
N1297 C1299 1.356 . S
N1297 H1302 0.984 . S
N1297 H1303 0.985 . S
C1298 C1292 1.379 . S
C1298 C1295 1.363 . S
C1298 N1296 1.356 . S
C1299 C1293 1.363 . S
C1299 C1294 1.379 . S
C1299 N1297 1.356 . S
N1300 C1292 1.356 . S
N1300 H1306 0.984 . S
N1300 H1307 0.984 . S
N1301 C1294 1.356 . S
N1301 H1304 0.984 . S
N1301 H1305 0.985 . S
H1302 N1297 0.984 . S
H1303 N1297 0.985 . S
H1304 N1301 0.984 . S
H1305 N1301 0.985 . S
H1306 N1300 0.984 . S
H1307 N1300 0.984 . S
H1308 N1296 0.984 . S
H1309 N1296 0.985 . S
C1310 C1311 1.363 . S
C1310 C1316 1.379 . S
C1310 N1318 1.356 . S
C1311 C1310 1.363 . S
C1311 C1317 1.363 . S
C1312 C1313 1.363 . S
C1312 C1317 1.379 . S
C1312 N1319 1.356 . S
C1313 C1312 1.363 . S
C1313 C1316 1.363 . S
N1314 C1316 1.356 . S
N1314 H1326 0.984 . S
N1314 H1327 0.985 . S
N1315 C1317 1.356 . S
N1315 H1320 0.984 . S
N1315 H1321 0.985 . S
C1316 C1310 1.379 . S
C1316 C1313 1.363 . S
C1316 N1314 1.356 . S
C1317 C1311 1.363 . S
C1317 C1312 1.379 . S
C1317 N1315 1.356 . S
N1318 C1310 1.356 . S
N1318 H1324 0.984 . S
N1318 H1325 0.984 . S
N1319 C1312 1.356 . S
N1319 H1322 0.984 . S
N1319 H1323 0.985 . S
H1320 N1315 0.984 . S
H1321 N1315 0.985 . S
H1322 N1319 0.984 . S
H1323 N1319 0.985 . S
H1324 N1318 0.984 . S
H1325 N1318 0.984 . S
H1326 N1314 0.984 . S
H1327 N1314 0.985 . S
C1328 C1329 1.363 . S
C1328 C1334 1.379 . S
C1328 N1336 1.356 . S
C1329 C1328 1.363 . S
C1329 C1335 1.363 . S
C1330 C1331 1.363 . S
C1330 C1335 1.379 . S
C1330 N1337 1.356 . S
C1331 C1330 1.363 . S
C1331 C1334 1.363 . S
N1332 C1334 1.356 . S
N1332 H1344 0.984 . S
N1332 H1345 0.985 . S
N1333 C1335 1.356 . S
N1333 H1338 0.984 . S
N1333 H1339 0.985 . S
C1334 C1328 1.379 . S
C1334 C1331 1.363 . S
C1334 N1332 1.356 . S
C1335 C1329 1.363 . S
C1335 C1330 1.379 . S
C1335 N1333 1.356 . S
N1336 C1328 1.356 . S
N1336 H1342 0.984 . S
N1336 H1343 0.984 . S
N1337 C1330 1.356 . S
N1337 H1340 0.984 . S
N1337 H1341 0.985 . S
H1338 N1333 0.984 . S
H1339 N1333 0.985 . S
H1340 N1337 0.984 . S
H1341 N1337 0.985 . S
H1342 N1336 0.984 . S
H1343 N1336 0.984 . S
H1344 N1332 0.984 . S
H1345 N1332 0.985 . S
C1346 C1347 1.363 . S
C1346 C1352 1.379 . S
C1346 N1354 1.356 . S
C1347 C1346 1.363 . S
C1347 C1353 1.363 . S
C1348 C1349 1.363 . S
C1348 C1353 1.379 . S
C1348 N1355 1.356 1_565 S
C1349 C1348 1.363 . S
C1349 C1352 1.363 . S
N1350 C1352 1.356 . S
N1350 H1362 0.984 . S
N1350 H1363 0.985 . S
N1351 C1353 1.356 . S
N1351 H1356 0.984 . S
N1351 H1357 0.985 . S
C1352 C1346 1.379 . S
C1352 C1349 1.363 . S
C1352 N1350 1.356 . S
C1353 C1347 1.363 . S
C1353 C1348 1.379 . S
C1353 N1351 1.356 . S
N1354 C1346 1.356 . S
N1354 H1360 0.984 . S
N1354 H1361 0.984 . S
N1355 C1348 1.356 1_545 S
N1355 H1358 0.984 . S
N1355 H1359 0.985 . S
H1356 N1351 0.984 . S
H1357 N1351 0.985 . S
H1358 N1355 0.984 . S
H1359 N1355 0.985 . S
H1360 N1354 0.984 . S
H1361 N1354 0.984 . S
H1362 N1350 0.984 . S
H1363 N1350 0.985 . S
C1364 C1365 1.363 . S
C1364 C1370 1.379 . S
C1364 N1372 1.356 . S
C1365 C1364 1.363 . S
C1365 C1371 1.363 . S
C1366 C1367 1.363 . S
C1366 C1371 1.379 . S
C1366 N1373 1.356 . S
C1367 C1366 1.363 . S
C1367 C1370 1.363 . S
N1368 C1370 1.356 . S
N1368 H1380 0.984 . S
N1368 H1381 0.985 . S
N1369 C1371 1.356 . S
N1369 H1374 0.984 . S
N1369 H1375 0.985 . S
C1370 C1364 1.379 . S
C1370 C1367 1.363 . S
C1370 N1368 1.356 . S
C1371 C1365 1.363 . S
C1371 C1366 1.379 . S
C1371 N1369 1.356 . S
N1372 C1364 1.356 . S
N1372 H1378 0.984 . S
N1372 H1379 0.984 . S
N1373 C1366 1.356 . S
N1373 H1376 0.984 . S
N1373 H1377 0.985 . S
H1374 N1369 0.984 . S
H1375 N1369 0.985 . S
H1376 N1373 0.984 . S
H1377 N1373 0.985 . S
H1378 N1372 0.984 . S
H1379 N1372 0.984 . S
H1380 N1368 0.984 . S
H1381 N1368 0.985 . S
C1382 C1383 1.363 . S
C1382 C1388 1.379 . S
C1382 N1390 1.356 . S
C1383 C1382 1.363 . S
C1383 C1389 1.363 . S
C1384 C1385 1.363 . S
C1384 C1389 1.379 . S
C1384 N1391 1.356 . S
C1385 C1384 1.363 . S
C1385 C1388 1.363 . S
N1386 C1388 1.356 . S
N1386 H1398 0.984 . S
N1386 H1399 0.985 . S
N1387 C1389 1.356 . S
N1387 H1392 0.984 . S
N1387 H1393 0.985 . S
C1388 C1382 1.379 . S
C1388 C1385 1.363 . S
C1388 N1386 1.356 . S
C1389 C1383 1.363 . S
C1389 C1384 1.379 . S
C1389 N1387 1.356 . S
N1390 C1382 1.356 . S
N1390 H1396 0.984 . S
N1390 H1397 0.984 . S
N1391 C1384 1.356 . S
N1391 H1394 0.984 . S
N1391 H1395 0.985 . S
H1392 N1387 0.984 . S
H1393 N1387 0.985 . S
H1394 N1391 0.984 . S
H1395 N1391 0.985 . S
H1396 N1390 0.984 . S
H1397 N1390 0.984 . S
H1398 N1386 0.984 . S
H1399 N1386 0.985 . S
C1400 C1401 1.363 . S
C1400 C1406 1.379 . S
C1400 N1408 1.356 . S
C1401 C1400 1.363 . S
C1401 C1407 1.363 . S
C1402 C1403 1.363 . S
C1402 C1407 1.379 . S
C1402 N1409 1.356 . S
C1403 C1402 1.363 . S
C1403 C1406 1.363 . S
N1404 C1406 1.356 . S
N1404 H1416 0.984 . S
N1404 H1417 0.985 . S
N1405 C1407 1.356 . S
N1405 H1410 0.984 . S
N1405 H1411 0.985 . S
C1406 C1400 1.379 . S
C1406 C1403 1.363 . S
C1406 N1404 1.356 . S
C1407 C1401 1.363 . S
C1407 C1402 1.379 . S
C1407 N1405 1.356 . S
N1408 C1400 1.356 . S
N1408 H1414 0.984 . S
N1408 H1415 0.984 . S
N1409 C1402 1.356 . S
N1409 H1412 0.984 . S
N1409 H1413 0.985 . S
H1410 N1405 0.984 . S
H1411 N1405 0.985 . S
H1412 N1409 0.984 . S
H1413 N1409 0.985 . S
H1414 N1408 0.984 . S
H1415 N1408 0.984 . S
H1416 N1404 0.984 . S
H1417 N1404 0.985 . S
C1418 C1419 1.363 . S
C1418 C1424 1.379 . S
C1418 N1426 1.356 . S
C1419 C1418 1.363 . S
C1419 C1425 1.363 . S
C1420 C1421 1.363 . S
C1420 C1425 1.379 . S
C1420 N1427 1.356 . S
C1421 C1420 1.363 . S
C1421 C1424 1.363 . S
N1422 C1424 1.356 . S
N1422 H1434 0.984 . S
N1422 H1435 0.985 . S
N1423 C1425 1.356 . S
N1423 H1428 0.984 . S
N1423 H1429 0.985 . S
C1424 C1418 1.379 . S
C1424 C1421 1.363 . S
C1424 N1422 1.356 . S
C1425 C1419 1.363 . S
C1425 C1420 1.379 . S
C1425 N1423 1.356 . S
N1426 C1418 1.356 . S
N1426 H1432 0.984 . S
N1426 H1433 0.984 . S
N1427 C1420 1.356 . S
N1427 H1430 0.984 . S
N1427 H1431 0.985 . S
H1428 N1423 0.984 . S
H1429 N1423 0.985 . S
H1430 N1427 0.984 . S
H1431 N1427 0.985 . S
H1432 N1426 0.984 . S
H1433 N1426 0.984 . S
H1434 N1422 0.984 . S
H1435 N1422 0.985 . S
C1436 C1437 1.363 . S
C1436 C1442 1.379 . S
C1436 N1444 1.356 . S
C1437 C1436 1.363 . S
C1437 C1443 1.363 . S
C1438 C1439 1.363 . S
C1438 C1443 1.379 . S
C1438 N1445 1.356 . S
C1439 C1438 1.363 . S
C1439 C1442 1.363 . S
N1440 C1442 1.356 . S
N1440 H1452 0.984 . S
N1440 H1453 0.985 . S
N1441 C1443 1.356 . S
N1441 H1446 0.984 . S
N1441 H1447 0.985 . S
C1442 C1436 1.379 . S
C1442 C1439 1.363 . S
C1442 N1440 1.356 . S
C1443 C1437 1.363 . S
C1443 C1438 1.379 . S
C1443 N1441 1.356 . S
N1444 C1436 1.356 . S
N1444 H1450 0.984 . S
N1444 H1451 0.984 . S
N1445 C1438 1.356 . S
N1445 H1448 0.984 . S
N1445 H1449 0.985 . S
H1446 N1441 0.984 . S
H1447 N1441 0.985 . S
H1448 N1445 0.984 . S
H1449 N1445 0.985 . S
H1450 N1444 0.984 . S
H1451 N1444 0.984 . S
H1452 N1440 0.984 . S
H1453 N1440 0.985 . S
C1454 C1455 1.363 . S
C1454 C1460 1.379 . S
C1454 N1462 1.356 . S
C1455 C1454 1.363 . S
C1455 C1461 1.363 . S
C1456 C1457 1.363 . S
C1456 C1461 1.379 . S
C1456 N1463 1.356 . S
C1457 C1456 1.363 . S
C1457 C1460 1.363 . S
N1458 C1460 1.356 . S
N1458 H1470 0.984 . S
N1458 H1471 0.985 . S
N1459 C1461 1.356 . S
N1459 H1464 0.984 . S
N1459 H1465 0.985 . S
C1460 C1454 1.379 . S
C1460 C1457 1.363 . S
C1460 N1458 1.356 . S
C1461 C1455 1.363 . S
C1461 C1456 1.379 . S
C1461 N1459 1.356 . S
N1462 C1454 1.356 . S
N1462 H1468 0.984 . S
N1462 H1469 0.984 . S
N1463 C1456 1.356 . S
N1463 H1466 0.984 . S
N1463 H1467 0.985 . S
H1464 N1459 0.984 . S
H1465 N1459 0.985 . S
H1466 N1463 0.984 . S
H1467 N1463 0.985 . S
H1468 N1462 0.984 . S
H1469 N1462 0.984 . S
H1470 N1458 0.984 . S
H1471 N1458 0.985 . S
C1472 C1473 1.363 . S
C1472 C1478 1.379 . S
C1472 N1480 1.356 . S
C1473 C1472 1.363 . S
C1473 C1479 1.363 . S
C1474 C1475 1.363 . S
C1474 C1479 1.379 . S
C1474 N1481 1.356 . S
C1475 C1474 1.363 . S
C1475 C1478 1.363 . S
N1476 C1478 1.356 . S
N1476 H1488 0.984 . S
N1476 H1489 0.985 . S
N1477 C1479 1.356 . S
N1477 H1482 0.984 . S
N1477 H1483 0.985 . S
C1478 C1472 1.379 . S
C1478 C1475 1.363 . S
C1478 N1476 1.356 . S
C1479 C1473 1.363 . S
C1479 C1474 1.379 . S
C1479 N1477 1.356 . S
N1480 C1472 1.356 . S
N1480 H1486 0.984 . S
N1480 H1487 0.984 . S
N1481 C1474 1.356 . S
N1481 H1484 0.984 . S
N1481 H1485 0.985 . S
H1482 N1477 0.984 . S
H1483 N1477 0.985 . S
H1484 N1481 0.984 . S
H1485 N1481 0.985 . S
H1486 N1480 0.984 . S
H1487 N1480 0.984 . S
H1488 N1476 0.984 . S
H1489 N1476 0.985 . S
C1490 C1491 1.363 . S
C1490 C1496 1.379 . S
C1490 N1498 1.356 . S
C1491 C1490 1.363 . S
C1491 C1497 1.363 . S
C1492 C1493 1.363 . S
C1492 C1497 1.379 . S
C1492 N1499 1.356 . S
C1493 C1492 1.363 . S
C1493 C1496 1.363 . S
N1494 C1496 1.356 . S
N1494 H1506 0.984 . S
N1494 H1507 0.985 . S
N1495 C1497 1.356 . S
N1495 H1500 0.984 . S
N1495 H1501 0.985 . S
C1496 C1490 1.379 . S
C1496 C1493 1.363 . S
C1496 N1494 1.356 . S
C1497 C1491 1.363 . S
C1497 C1492 1.379 . S
C1497 N1495 1.356 . S
N1498 C1490 1.356 . S
N1498 H1504 0.984 . S
N1498 H1505 0.984 . S
N1499 C1492 1.356 . S
N1499 H1502 0.984 . S
N1499 H1503 0.985 . S
H1500 N1495 0.984 . S
H1501 N1495 0.985 . S
H1502 N1499 0.984 . S
H1503 N1499 0.985 . S
H1504 N1498 0.984 . S
H1505 N1498 0.984 . S
H1506 N1494 0.984 . S
H1507 N1494 0.985 . S
C1508 C1509 1.363 . S
C1508 C1514 1.379 . S
C1508 N1516 1.356 . S
C1509 C1508 1.363 . S
C1509 C1515 1.363 . S
C1510 C1511 1.363 . S
C1510 C1515 1.379 . S
C1510 N1517 1.356 . S
C1511 C1510 1.363 . S
C1511 C1514 1.363 . S
N1512 C1514 1.356 . S
N1512 H1524 0.984 . S
N1512 H1525 0.985 . S
N1513 C1515 1.356 . S
N1513 H1518 0.984 . S
N1513 H1519 0.985 . S
C1514 C1508 1.379 . S
C1514 C1511 1.363 . S
C1514 N1512 1.356 . S
C1515 C1509 1.363 . S
C1515 C1510 1.379 . S
C1515 N1513 1.356 . S
N1516 C1508 1.356 . S
N1516 H1522 0.984 . S
N1516 H1523 0.984 . S
N1517 C1510 1.356 . S
N1517 H1520 0.984 . S
N1517 H1521 0.985 . S
H1518 N1513 0.984 . S
H1519 N1513 0.985 . S
H1520 N1517 0.984 . S
H1521 N1517 0.985 . S
H1522 N1516 0.984 . S
H1523 N1516 0.984 . S
H1524 N1512 0.984 . S
H1525 N1512 0.985 . S
C1526 C1527 1.363 . S
C1526 C1532 1.379 . S
C1526 N1534 1.356 . S
C1527 C1526 1.363 . S
C1527 C1533 1.363 . S
C1528 C1529 1.363 . S
C1528 C1533 1.379 . S
C1528 N1535 1.356 . S
C1529 C1528 1.363 . S
C1529 C1532 1.363 . S
N1530 C1532 1.356 . S
N1530 H1542 0.984 . S
N1530 H1543 0.985 . S
N1531 C1533 1.356 . S
N1531 H1536 0.984 . S
N1531 H1537 0.985 . S
C1532 C1526 1.379 . S
C1532 C1529 1.363 . S
C1532 N1530 1.356 . S
C1533 C1527 1.363 . S
C1533 C1528 1.379 . S
C1533 N1531 1.356 . S
N1534 C1526 1.356 . S
N1534 H1540 0.984 . S
N1534 H1541 0.984 . S
N1535 C1528 1.356 . S
N1535 H1538 0.984 . S
N1535 H1539 0.985 . S
H1536 N1531 0.984 . S
H1537 N1531 0.985 . S
H1538 N1535 0.984 . S
H1539 N1535 0.985 . S
H1540 N1534 0.984 . S
H1541 N1534 0.984 . S
H1542 N1530 0.984 . S
H1543 N1530 0.985 . S
C1544 C1545 1.363 . S
C1544 C1550 1.379 . S
C1544 N1552 1.356 . S
C1545 C1544 1.363 . S
C1545 C1551 1.363 . S
C1546 C1547 1.363 . S
C1546 C1551 1.379 . S
C1546 N1553 1.356 . S
C1547 C1546 1.363 . S
C1547 C1550 1.363 . S
N1548 C1550 1.356 . S
N1548 H1560 0.984 . S
N1548 H1561 0.985 . S
N1549 C1551 1.356 . S
N1549 H1554 0.984 . S
N1549 H1555 0.985 . S
C1550 C1544 1.379 . S
C1550 C1547 1.363 . S
C1550 N1548 1.356 . S
C1551 C1545 1.363 . S
C1551 C1546 1.379 . S
C1551 N1549 1.356 . S
N1552 C1544 1.356 . S
N1552 H1558 0.984 . S
N1552 H1559 0.984 . S
N1553 C1546 1.356 . S
N1553 H1556 0.984 . S
N1553 H1557 0.985 . S
H1554 N1549 0.984 . S
H1555 N1549 0.985 . S
H1556 N1553 0.984 . S
H1557 N1553 0.985 . S
H1558 N1552 0.984 . S
H1559 N1552 0.984 . S
H1560 N1548 0.984 . S
H1561 N1548 0.985 . S
C1562 C1563 1.363 . S
C1562 C1568 1.379 . S
C1562 N1570 1.356 . S
C1563 C1562 1.363 . S
C1563 C1569 1.363 . S
C1564 C1565 1.363 . S
C1564 C1569 1.379 . S
C1564 N1571 1.356 . S
C1565 C1564 1.363 . S
C1565 C1568 1.363 . S
N1566 C1568 1.356 . S
N1566 H1578 0.984 . S
N1566 H1579 0.985 . S
N1567 C1569 1.356 . S
N1567 H1572 0.984 . S
N1567 H1573 0.985 . S
C1568 C1562 1.379 . S
C1568 C1565 1.363 . S
C1568 N1566 1.356 . S
C1569 C1563 1.363 . S
C1569 C1564 1.379 . S
C1569 N1567 1.356 . S
N1570 C1562 1.356 . S
N1570 H1576 0.984 . S
N1570 H1577 0.984 . S
N1571 C1564 1.356 . S
N1571 H1574 0.984 . S
N1571 H1575 0.985 . S
H1572 N1567 0.984 . S
H1573 N1567 0.985 . S
H1574 N1571 0.984 . S
H1575 N1571 0.985 . S
H1576 N1570 0.984 . S
H1577 N1570 0.984 . S
H1578 N1566 0.984 . S
H1579 N1566 0.985 . S
C1580 C1581 1.363 . S
C1580 C1586 1.379 . S
C1580 N1588 1.356 . S
C1581 C1580 1.363 . S
C1581 C1587 1.363 . S
C1582 C1583 1.363 . S
C1582 C1587 1.379 . S
C1582 N1589 1.356 . S
C1583 C1582 1.363 . S
C1583 C1586 1.363 . S
N1584 C1586 1.356 . S
N1584 H1596 0.984 . S
N1584 H1597 0.985 . S
N1585 C1587 1.356 . S
N1585 H1590 0.984 . S
N1585 H1591 0.985 . S
C1586 C1580 1.379 . S
C1586 C1583 1.363 . S
C1586 N1584 1.356 . S
C1587 C1581 1.363 . S
C1587 C1582 1.379 . S
C1587 N1585 1.356 . S
N1588 C1580 1.356 . S
N1588 H1594 0.984 . S
N1588 H1595 0.984 . S
N1589 C1582 1.356 . S
N1589 H1592 0.984 . S
N1589 H1593 0.985 . S
H1590 N1585 0.984 . S
H1591 N1585 0.985 . S
H1592 N1589 0.984 . S
H1593 N1589 0.985 . S
H1594 N1588 0.984 . S
H1595 N1588 0.984 . S
H1596 N1584 0.984 . S
H1597 N1584 0.985 . S
C1598 C1599 1.363 . S
C1598 C1604 1.379 . S
C1598 N1606 1.356 . S
C1599 C1598 1.363 . S
C1599 C1605 1.363 . S
C1600 C1601 1.363 . S
C1600 C1605 1.379 . S
C1600 N1607 1.356 . S
C1601 C1600 1.363 . S
C1601 C1604 1.363 . S
N1602 C1604 1.356 . S
N1602 H1614 0.984 . S
N1602 H1615 0.985 . S
N1603 C1605 1.356 . S
N1603 H1608 0.984 . S
N1603 H1609 0.985 . S
C1604 C1598 1.379 . S
C1604 C1601 1.363 . S
C1604 N1602 1.356 . S
C1605 C1599 1.363 . S
C1605 C1600 1.379 . S
C1605 N1603 1.356 . S
N1606 C1598 1.356 . S
N1606 H1612 0.984 . S
N1606 H1613 0.984 . S
N1607 C1600 1.356 . S
N1607 H1610 0.984 . S
N1607 H1611 0.985 . S
H1608 N1603 0.984 . S
H1609 N1603 0.985 . S
H1610 N1607 0.984 . S
H1611 N1607 0.985 . S
H1612 N1606 0.984 . S
H1613 N1606 0.984 . S
H1614 N1602 0.984 . S
H1615 N1602 0.985 . S
C1616 C1617 1.363 . S
C1616 C1622 1.379 . S
C1616 N1624 1.356 . S
C1617 C1616 1.363 . S
C1617 C1623 1.363 . S
C1618 C1619 1.363 . S
C1618 C1623 1.379 . S
C1618 N1625 1.356 . S
C1619 C1618 1.363 . S
C1619 C1622 1.363 . S
N1620 C1622 1.356 . S
N1620 H1632 0.984 . S
N1620 H1633 0.985 . S
N1621 C1623 1.356 . S
N1621 H1626 0.984 . S
N1621 H1627 0.985 . S
C1622 C1616 1.379 . S
C1622 C1619 1.363 . S
C1622 N1620 1.356 . S
C1623 C1617 1.363 . S
C1623 C1618 1.379 . S
C1623 N1621 1.356 . S
N1624 C1616 1.356 . S
N1624 H1630 0.984 . S
N1624 H1631 0.984 . S
N1625 C1618 1.356 . S
N1625 H1628 0.984 . S
N1625 H1629 0.985 . S
H1626 N1621 0.984 . S
H1627 N1621 0.985 . S
H1628 N1625 0.984 . S
H1629 N1625 0.985 . S
H1630 N1624 0.984 . S
H1631 N1624 0.984 . S
H1632 N1620 0.984 . S
H1633 N1620 0.985 . S
C1634 C1635 1.363 . S
C1634 C1640 1.379 . S
C1634 N1642 1.356 . S
C1635 C1634 1.363 . S
C1635 C1641 1.363 . S
C1636 C1637 1.363 . S
C1636 C1641 1.379 . S
C1636 N1643 1.356 . S
C1637 C1636 1.363 . S
C1637 C1640 1.363 . S
N1638 C1640 1.356 . S
N1638 H1650 0.984 . S
N1638 H1651 0.985 . S
N1639 C1641 1.356 . S
N1639 H1644 0.984 . S
N1639 H1645 0.985 . S
C1640 C1634 1.379 . S
C1640 C1637 1.363 . S
C1640 N1638 1.356 . S
C1641 C1635 1.363 . S
C1641 C1636 1.379 . S
C1641 N1639 1.356 . S
N1642 C1634 1.356 . S
N1642 H1648 0.984 . S
N1642 H1649 0.984 . S
N1643 C1636 1.356 . S
N1643 H1646 0.984 . S
N1643 H1647 0.985 . S
H1644 N1639 0.984 . S
H1645 N1639 0.985 . S
H1646 N1643 0.984 . S
H1647 N1643 0.985 . S
H1648 N1642 0.984 . S
H1649 N1642 0.984 . S
H1650 N1638 0.984 . S
H1651 N1638 0.985 . S
C1652 C1653 1.363 . S
C1652 C1658 1.379 . S
C1652 N1660 1.356 . S
C1653 C1652 1.363 . S
C1653 C1659 1.363 . S
C1654 C1655 1.363 . S
C1654 C1659 1.379 . S
C1654 N1661 1.356 . S
C1655 C1654 1.363 . S
C1655 C1658 1.363 . S
N1656 C1658 1.356 . S
N1656 H1668 0.984 . S
N1656 H1669 0.985 . S
N1657 C1659 1.356 . S
N1657 H1662 0.984 . S
N1657 H1663 0.985 . S
C1658 C1652 1.379 . S
C1658 C1655 1.363 . S
C1658 N1656 1.356 . S
C1659 C1653 1.363 . S
C1659 C1654 1.379 . S
C1659 N1657 1.356 . S
N1660 C1652 1.356 . S
N1660 H1666 0.984 . S
N1660 H1667 0.984 . S
N1661 C1654 1.356 . S
N1661 H1664 0.984 . S
N1661 H1665 0.985 . S
H1662 N1657 0.984 . S
H1663 N1657 0.985 . S
H1664 N1661 0.984 . S
H1665 N1661 0.985 . S
H1666 N1660 0.984 . S
H1667 N1660 0.984 . S
H1668 N1656 0.984 . S
H1669 N1656 0.985 . S
C1670 C1671 1.363 . S
C1670 C1676 1.379 . S
C1670 N1678 1.356 . S
C1671 C1670 1.363 . S
C1671 C1677 1.363 . S
C1672 C1673 1.363 . S
C1672 C1677 1.379 . S
C1672 N1679 1.356 . S
C1673 C1672 1.363 . S
C1673 C1676 1.363 . S
N1674 C1676 1.356 . S
N1674 H1686 0.984 . S
N1674 H1687 0.985 . S
N1675 C1677 1.356 . S
N1675 H1680 0.984 . S
N1675 H1681 0.985 . S
C1676 C1670 1.379 . S
C1676 C1673 1.363 . S
C1676 N1674 1.356 . S
C1677 C1671 1.363 . S
C1677 C1672 1.379 . S
C1677 N1675 1.356 . S
N1678 C1670 1.356 . S
N1678 H1684 0.984 . S
N1678 H1685 0.984 . S
N1679 C1672 1.356 . S
N1679 H1682 0.984 . S
N1679 H1683 0.985 . S
H1680 N1675 0.984 . S
H1681 N1675 0.985 . S
H1682 N1679 0.984 . S
H1683 N1679 0.985 . S
H1684 N1678 0.984 . S
H1685 N1678 0.984 . S
H1686 N1674 0.984 . S
H1687 N1674 0.985 . S
C1688 C1689 1.363 . S
C1688 C1694 1.379 . S
C1688 N1696 1.356 . S
C1689 C1688 1.363 . S
C1689 C1695 1.363 . S
C1690 C1691 1.363 . S
C1690 C1695 1.379 . S
C1690 N1697 1.356 . S
C1691 C1690 1.363 . S
C1691 C1694 1.363 . S
N1692 C1694 1.356 . S
N1692 H1704 0.984 . S
N1692 H1705 0.985 . S
N1693 C1695 1.356 . S
N1693 H1698 0.984 . S
N1693 H1699 0.985 . S
C1694 C1688 1.379 . S
C1694 C1691 1.363 . S
C1694 N1692 1.356 . S
C1695 C1689 1.363 . S
C1695 C1690 1.379 . S
C1695 N1693 1.356 . S
N1696 C1688 1.356 . S
N1696 H1702 0.984 . S
N1696 H1703 0.984 . S
N1697 C1690 1.356 . S
N1697 H1700 0.984 . S
N1697 H1701 0.985 . S
H1698 N1693 0.984 . S
H1699 N1693 0.985 . S
H1700 N1697 0.984 . S
H1701 N1697 0.985 . S
H1702 N1696 0.984 . S
H1703 N1696 0.984 . S
H1704 N1692 0.984 . S
H1705 N1692 0.985 . S
C1706 C1707 1.363 . S
C1706 C1712 1.379 . S
C1706 N1714 1.356 . S
C1707 C1706 1.363 . S
C1707 C1713 1.363 . S
C1708 C1709 1.363 . S
C1708 C1713 1.379 . S
C1708 N1715 1.356 . S
C1709 C1708 1.363 . S
C1709 C1712 1.363 . S
N1710 C1712 1.356 . S
N1710 H1722 0.984 . S
N1710 H1723 0.985 . S
N1711 C1713 1.356 . S
N1711 H1716 0.984 . S
N1711 H1717 0.985 . S
C1712 C1706 1.379 . S
C1712 C1709 1.363 . S
C1712 N1710 1.356 . S
C1713 C1707 1.363 . S
C1713 C1708 1.379 . S
C1713 N1711 1.356 . S
N1714 C1706 1.356 . S
N1714 H1720 0.984 . S
N1714 H1721 0.984 . S
N1715 C1708 1.356 . S
N1715 H1718 0.984 . S
N1715 H1719 0.985 . S
H1716 N1711 0.984 . S
H1717 N1711 0.985 . S
H1718 N1715 0.984 . S
H1719 N1715 0.985 . S
H1720 N1714 0.984 . S
H1721 N1714 0.984 . S
H1722 N1710 0.984 . S
H1723 N1710 0.985 . S
C1724 C1725 1.363 . S
C1724 C1730 1.379 . S
C1724 N1732 1.356 . S
C1725 C1724 1.363 . S
C1725 C1731 1.363 . S
C1726 C1727 1.363 . S
C1726 C1731 1.379 . S
C1726 N1733 1.356 . S
C1727 C1726 1.363 . S
C1727 C1730 1.363 . S
N1728 C1730 1.356 . S
N1728 H1740 0.984 . S
N1728 H1741 0.985 . S
N1729 C1731 1.356 . S
N1729 H1734 0.984 . S
N1729 H1735 0.985 . S
C1730 C1724 1.379 . S
C1730 C1727 1.363 . S
C1730 N1728 1.356 . S
C1731 C1725 1.363 . S
C1731 C1726 1.379 . S
C1731 N1729 1.356 . S
N1732 C1724 1.356 . S
N1732 H1738 0.984 . S
N1732 H1739 0.984 . S
N1733 C1726 1.356 . S
N1733 H1736 0.984 . S
N1733 H1737 0.985 . S
H1734 N1729 0.984 . S
H1735 N1729 0.985 . S
H1736 N1733 0.984 . S
H1737 N1733 0.985 . S
H1738 N1732 0.984 . S
H1739 N1732 0.984 . S
H1740 N1728 0.984 . S
H1741 N1728 0.985 . S
C1742 C1743 1.363 . S
C1742 C1748 1.379 . S
C1742 N1750 1.356 . S
C1743 C1742 1.363 . S
C1743 C1749 1.363 . S
C1744 C1745 1.363 . S
C1744 C1749 1.379 . S
C1744 N1751 1.356 . S
C1745 C1744 1.363 . S
C1745 C1748 1.363 . S
N1746 C1748 1.356 . S
N1746 H1758 0.984 . S
N1746 H1759 0.985 . S
N1747 C1749 1.356 . S
N1747 H1752 0.984 . S
N1747 H1753 0.985 . S
C1748 C1742 1.379 . S
C1748 C1745 1.363 . S
C1748 N1746 1.356 . S
C1749 C1743 1.363 . S
C1749 C1744 1.379 . S
C1749 N1747 1.356 . S
N1750 C1742 1.356 . S
N1750 H1756 0.984 . S
N1750 H1757 0.984 . S
N1751 C1744 1.356 . S
N1751 H1754 0.984 . S
N1751 H1755 0.985 . S
H1752 N1747 0.984 . S
H1753 N1747 0.985 . S
H1754 N1751 0.984 . S
H1755 N1751 0.985 . S
H1756 N1750 0.984 . S
H1757 N1750 0.984 . S
H1758 N1746 0.984 . S
H1759 N1746 0.985 . S
C1760 C1761 1.363 . S
C1760 C1766 1.379 . S
C1760 N1768 1.356 . S
C1761 C1760 1.363 . S
C1761 C1767 1.363 . S
C1762 C1763 1.363 . S
C1762 C1767 1.379 . S
C1762 N1769 1.356 . S
C1763 C1762 1.363 . S
C1763 C1766 1.363 . S
N1764 C1766 1.356 . S
N1764 H1776 0.984 . S
N1764 H1777 0.985 . S
N1765 C1767 1.356 . S
N1765 H1770 0.984 . S
N1765 H1771 0.985 . S
C1766 C1760 1.379 . S
C1766 C1763 1.363 . S
C1766 N1764 1.356 . S
C1767 C1761 1.363 . S
C1767 C1762 1.379 . S
C1767 N1765 1.356 . S
N1768 C1760 1.356 . S
N1768 H1774 0.984 . S
N1768 H1775 0.984 . S
N1769 C1762 1.356 . S
N1769 H1772 0.984 . S
N1769 H1773 0.985 . S
H1770 N1765 0.984 . S
H1771 N1765 0.985 . S
H1772 N1769 0.984 . S
H1773 N1769 0.985 . S
H1774 N1768 0.984 . S
H1775 N1768 0.984 . S
H1776 N1764 0.984 . S
H1777 N1764 0.985 . S
C1778 C1779 1.363 . S
C1778 C1784 1.379 . S
C1778 N1786 1.356 . S
C1779 C1778 1.363 . S
C1779 C1785 1.363 . S
C1780 C1781 1.363 . S
C1780 C1785 1.379 . S
C1780 N1787 1.356 . S
C1781 C1780 1.363 . S
C1781 C1784 1.363 . S
N1782 C1784 1.356 . S
N1782 H1794 0.984 . S
N1782 H1795 0.985 . S
N1783 C1785 1.356 . S
N1783 H1788 0.984 . S
N1783 H1789 0.985 . S
C1784 C1778 1.379 . S
C1784 C1781 1.363 . S
C1784 N1782 1.356 . S
C1785 C1779 1.363 . S
C1785 C1780 1.379 . S
C1785 N1783 1.356 . S
N1786 C1778 1.356 . S
N1786 H1792 0.984 . S
N1786 H1793 0.984 . S
N1787 C1780 1.356 . S
N1787 H1790 0.984 . S
N1787 H1791 0.985 . S
H1788 N1783 0.984 . S
H1789 N1783 0.985 . S
H1790 N1787 0.984 . S
H1791 N1787 0.985 . S
H1792 N1786 0.984 . S
H1793 N1786 0.984 . S
H1794 N1782 0.984 . S
H1795 N1782 0.985 . S
C1796 C1797 1.363 . S
C1796 C1802 1.379 . S
C1796 N1804 1.356 . S
C1797 C1796 1.363 . S
C1797 C1803 1.363 . S
C1798 C1799 1.363 . S
C1798 C1803 1.379 . S
C1798 N1805 1.356 . S
C1799 C1798 1.363 . S
C1799 C1802 1.363 . S
N1800 C1802 1.356 . S
N1800 H1812 0.984 . S
N1800 H1813 0.985 . S
N1801 C1803 1.356 . S
N1801 H1806 0.984 . S
N1801 H1807 0.985 . S
C1802 C1796 1.379 . S
C1802 C1799 1.363 . S
C1802 N1800 1.356 . S
C1803 C1797 1.363 . S
C1803 C1798 1.379 . S
C1803 N1801 1.356 . S
N1804 C1796 1.356 . S
N1804 H1810 0.984 . S
N1804 H1811 0.984 . S
N1805 C1798 1.356 . S
N1805 H1808 0.984 . S
N1805 H1809 0.985 . S
H1806 N1801 0.984 . S
H1807 N1801 0.985 . S
H1808 N1805 0.984 . S
H1809 N1805 0.985 . S
H1810 N1804 0.984 . S
H1811 N1804 0.984 . S
H1812 N1800 0.984 . S
H1813 N1800 0.985 . S
C1814 C1815 1.363 . S
C1814 C1820 1.379 . S
C1814 N1822 1.356 . S
C1815 C1814 1.363 . S
C1815 C1821 1.363 . S
C1816 C1817 1.363 . S
C1816 C1821 1.379 . S
C1816 N1823 1.356 . S
C1817 C1816 1.363 . S
C1817 C1820 1.363 . S
N1818 C1820 1.356 . S
N1818 H1830 0.984 . S
N1818 H1831 0.985 . S
N1819 C1821 1.356 . S
N1819 H1824 0.984 . S
N1819 H1825 0.985 . S
C1820 C1814 1.379 . S
C1820 C1817 1.363 . S
C1820 N1818 1.356 . S
C1821 C1815 1.363 . S
C1821 C1816 1.379 . S
C1821 N1819 1.356 . S
N1822 C1814 1.356 . S
N1822 H1828 0.984 . S
N1822 H1829 0.984 . S
N1823 C1816 1.356 . S
N1823 H1826 0.984 . S
N1823 H1827 0.985 . S
H1824 N1819 0.984 . S
H1825 N1819 0.985 . S
H1826 N1823 0.984 . S
H1827 N1823 0.985 . S
H1828 N1822 0.984 . S
H1829 N1822 0.984 . S
H1830 N1818 0.984 . S
H1831 N1818 0.985 . S
C1832 C1833 1.363 . S
C1832 C1838 1.379 . S
C1832 N1840 1.356 . S
C1833 C1832 1.363 . S
C1833 C1839 1.363 . S
C1834 C1835 1.363 . S
C1834 C1839 1.379 . S
C1834 N1841 1.356 . S
C1835 C1834 1.363 . S
C1835 C1838 1.363 . S
N1836 C1838 1.356 . S
N1836 H1848 0.984 . S
N1836 H1849 0.985 . S
N1837 C1839 1.356 . S
N1837 H1842 0.984 . S
N1837 H1843 0.985 . S
C1838 C1832 1.379 . S
C1838 C1835 1.363 . S
C1838 N1836 1.356 . S
C1839 C1833 1.363 . S
C1839 C1834 1.379 . S
C1839 N1837 1.356 . S
N1840 C1832 1.356 . S
N1840 H1846 0.984 . S
N1840 H1847 0.984 . S
N1841 C1834 1.356 . S
N1841 H1844 0.984 . S
N1841 H1845 0.985 . S
H1842 N1837 0.984 . S
H1843 N1837 0.985 . S
H1844 N1841 0.984 . S
H1845 N1841 0.985 . S
H1846 N1840 0.984 . S
H1847 N1840 0.984 . S
H1848 N1836 0.984 . S
H1849 N1836 0.985 . S
C1850 C1851 1.363 . S
C1850 C1856 1.379 . S
C1850 N1858 1.356 . S
C1851 C1850 1.363 . S
C1851 C1857 1.363 . S
C1852 C1853 1.363 . S
C1852 C1857 1.379 . S
C1852 N1859 1.356 . S
C1853 C1852 1.363 . S
C1853 C1856 1.363 . S
N1854 C1856 1.356 . S
N1854 H1866 0.984 . S
N1854 H1867 0.985 . S
N1855 C1857 1.356 . S
N1855 H1860 0.984 . S
N1855 H1861 0.985 . S
C1856 C1850 1.379 . S
C1856 C1853 1.363 . S
C1856 N1854 1.356 . S
C1857 C1851 1.363 . S
C1857 C1852 1.379 . S
C1857 N1855 1.356 . S
N1858 C1850 1.356 . S
N1858 H1864 0.984 . S
N1858 H1865 0.984 . S
N1859 C1852 1.356 . S
N1859 H1862 0.984 . S
N1859 H1863 0.985 . S
H1860 N1855 0.984 . S
H1861 N1855 0.985 . S
H1862 N1859 0.984 . S
H1863 N1859 0.985 . S
H1864 N1858 0.984 . S
H1865 N1858 0.984 . S
H1866 N1854 0.984 . S
H1867 N1854 0.985 . S
C1868 C1869 1.363 . S
C1868 C1874 1.379 . S
C1868 N1876 1.356 . S
C1869 C1868 1.363 . S
C1869 C1875 1.363 . S
C1870 C1871 1.363 . S
C1870 C1875 1.379 . S
C1870 N1877 1.356 . S
C1871 C1870 1.363 . S
C1871 C1874 1.363 . S
N1872 C1874 1.356 . S
N1872 H1884 0.984 . S
N1872 H1885 0.985 . S
N1873 C1875 1.356 . S
N1873 H1878 0.984 . S
N1873 H1879 0.985 . S
C1874 C1868 1.379 . S
C1874 C1871 1.363 . S
C1874 N1872 1.356 . S
C1875 C1869 1.363 . S
C1875 C1870 1.379 . S
C1875 N1873 1.356 . S
N1876 C1868 1.356 . S
N1876 H1882 0.984 . S
N1876 H1883 0.984 . S
N1877 C1870 1.356 . S
N1877 H1880 0.984 . S
N1877 H1881 0.985 . S
H1878 N1873 0.984 . S
H1879 N1873 0.985 . S
H1880 N1877 0.984 . S
H1881 N1877 0.985 . S
H1882 N1876 0.984 . S
H1883 N1876 0.984 . S
H1884 N1872 0.984 . S
H1885 N1872 0.985 . S
C1886 C1887 1.363 . S
C1886 C1892 1.379 . S
C1886 N1894 1.356 . S
C1887 C1886 1.363 . S
C1887 C1893 1.363 . S
C1888 C1889 1.363 . S
C1888 C1893 1.379 . S
C1888 N1895 1.356 . S
C1889 C1888 1.363 . S
C1889 C1892 1.363 . S
N1890 C1892 1.356 . S
N1890 H1902 0.984 . S
N1890 H1903 0.985 . S
N1891 C1893 1.356 . S
N1891 H1896 0.984 . S
N1891 H1897 0.985 . S
C1892 C1886 1.379 . S
C1892 C1889 1.363 . S
C1892 N1890 1.356 . S
C1893 C1887 1.363 . S
C1893 C1888 1.379 . S
C1893 N1891 1.356 . S
N1894 C1886 1.356 . S
N1894 H1900 0.984 . S
N1894 H1901 0.984 . S
N1895 C1888 1.356 . S
N1895 H1898 0.984 . S
N1895 H1899 0.985 . S
H1896 N1891 0.984 . S
H1897 N1891 0.985 . S
H1898 N1895 0.984 . S
H1899 N1895 0.985 . S
H1900 N1894 0.984 . S
H1901 N1894 0.984 . S
H1902 N1890 0.984 . S
H1903 N1890 0.985 . S
C1904 C1905 1.363 . S
C1904 C1910 1.379 . S
C1904 N1912 1.356 . S
C1905 C1904 1.363 . S
C1905 C1911 1.363 . S
C1906 C1907 1.363 . S
C1906 C1911 1.379 . S
C1906 N1913 1.356 . S
C1907 C1906 1.363 . S
C1907 C1910 1.363 . S
N1908 C1910 1.356 . S
N1908 H1920 0.984 . S
N1908 H1921 0.985 . S
N1909 C1911 1.356 . S
N1909 H1914 0.984 . S
N1909 H1915 0.985 . S
C1910 C1904 1.379 . S
C1910 C1907 1.363 . S
C1910 N1908 1.356 . S
C1911 C1905 1.363 . S
C1911 C1906 1.379 . S
C1911 N1909 1.356 . S
N1912 C1904 1.356 . S
N1912 H1918 0.984 . S
N1912 H1919 0.984 . S
N1913 C1906 1.356 . S
N1913 H1916 0.984 . S
N1913 H1917 0.985 . S
H1914 N1909 0.984 . S
H1915 N1909 0.985 . S
H1916 N1913 0.984 . S
H1917 N1913 0.985 . S
H1918 N1912 0.984 . S
H1919 N1912 0.984 . S
H1920 N1908 0.984 . S
H1921 N1908 0.985 . S
C1922 C1923 1.363 . S
C1922 C1928 1.379 . S
C1922 N1930 1.356 . S
C1923 C1922 1.363 . S
C1923 C1929 1.363 . S
C1924 C1925 1.363 . S
C1924 C1929 1.379 . S
C1924 N1931 1.356 . S
C1925 C1924 1.363 . S
C1925 C1928 1.363 . S
N1926 C1928 1.356 . S
N1926 H1938 0.984 . S
N1926 H1939 0.985 . S
N1927 C1929 1.356 . S
N1927 H1932 0.984 . S
N1927 H1933 0.985 . S
C1928 C1922 1.379 . S
C1928 C1925 1.363 . S
C1928 N1926 1.356 . S
C1929 C1923 1.363 . S
C1929 C1924 1.379 . S
C1929 N1927 1.356 . S
N1930 C1922 1.356 . S
N1930 H1936 0.984 . S
N1930 H1937 0.984 . S
N1931 C1924 1.356 . S
N1931 H1934 0.984 . S
N1931 H1935 0.985 . S
H1932 N1927 0.984 . S
H1933 N1927 0.985 . S
H1934 N1931 0.984 . S
H1935 N1931 0.985 . S
H1936 N1930 0.984 . S
H1937 N1930 0.984 . S
H1938 N1926 0.984 . S
H1939 N1926 0.985 . S
C1940 C1941 1.363 . S
C1940 C1946 1.379 . S
C1940 N1948 1.356 . S
C1941 C1940 1.363 . S
C1941 C1947 1.363 . S
C1942 C1943 1.363 . S
C1942 C1947 1.379 . S
C1942 N1949 1.356 . S
C1943 C1942 1.363 . S
C1943 C1946 1.363 . S
N1944 C1946 1.356 . S
N1944 H1956 0.984 . S
N1944 H1957 0.985 . S
N1945 C1947 1.356 . S
N1945 H1950 0.984 . S
N1945 H1951 0.985 . S
C1946 C1940 1.379 . S
C1946 C1943 1.363 . S
C1946 N1944 1.356 . S
C1947 C1941 1.363 . S
C1947 C1942 1.379 . S
C1947 N1945 1.356 . S
N1948 C1940 1.356 . S
N1948 H1954 0.984 . S
N1948 H1955 0.984 . S
N1949 C1942 1.356 . S
N1949 H1952 0.984 . S
N1949 H1953 0.985 . S
H1950 N1945 0.984 . S
H1951 N1945 0.985 . S
H1952 N1949 0.984 . S
H1953 N1949 0.985 . S
H1954 N1948 0.984 . S
H1955 N1948 0.984 . S
H1956 N1944 0.984 . S
H1957 N1944 0.985 . S
C1958 C1959 1.363 . S
C1958 C1964 1.379 . S
C1958 N1966 1.356 . S
C1959 C1958 1.363 . S
C1959 C1965 1.363 . S
C1960 C1961 1.363 . S
C1960 C1965 1.379 . S
C1960 N1967 1.356 . S
C1961 C1960 1.363 . S
C1961 C1964 1.363 . S
N1962 C1964 1.356 . S
N1962 H1974 0.984 . S
N1962 H1975 0.985 . S
N1963 C1965 1.356 . S
N1963 H1968 0.984 . S
N1963 H1969 0.985 . S
C1964 C1958 1.379 . S
C1964 C1961 1.363 . S
C1964 N1962 1.356 . S
C1965 C1959 1.363 . S
C1965 C1960 1.379 . S
C1965 N1963 1.356 . S
N1966 C1958 1.356 . S
N1966 H1972 0.984 . S
N1966 H1973 0.984 . S
N1967 C1960 1.356 . S
N1967 H1970 0.984 . S
N1967 H1971 0.985 . S
H1968 N1963 0.984 . S
H1969 N1963 0.985 . S
H1970 N1967 0.984 . S
H1971 N1967 0.985 . S
H1972 N1966 0.984 . S
H1973 N1966 0.984 . S
H1974 N1962 0.984 . S
H1975 N1962 0.985 . S
C1976 C1977 1.363 . S
C1976 C1982 1.379 . S
C1976 N1984 1.356 . S
C1977 C1976 1.363 . S
C1977 C1983 1.363 . S
C1978 C1979 1.363 . S
C1978 C1983 1.379 . S
C1978 N1985 1.356 . S
C1979 C1978 1.363 . S
C1979 C1982 1.363 . S
N1980 C1982 1.356 . S
N1980 H1992 0.984 . S
N1980 H1993 0.985 . S
N1981 C1983 1.356 . S
N1981 H1986 0.984 . S
N1981 H1987 0.985 . S
C1982 C1976 1.379 . S
C1982 C1979 1.363 . S
C1982 N1980 1.356 . S
C1983 C1977 1.363 . S
C1983 C1978 1.379 . S
C1983 N1981 1.356 . S
N1984 C1976 1.356 . S
N1984 H1990 0.984 . S
N1984 H1991 0.984 . S
N1985 C1978 1.356 . S
N1985 H1988 0.984 . S
N1985 H1989 0.985 . S
H1986 N1981 0.984 . S
H1987 N1981 0.985 . S
H1988 N1985 0.984 . S
H1989 N1985 0.985 . S
H1990 N1984 0.984 . S
H1991 N1984 0.984 . S
H1992 N1980 0.984 . S
H1993 N1980 0.985 . S
C1994 C1995 1.363 . S
C1994 C2000 1.379 . S
C1994 N2002 1.356 . S
C1995 C1994 1.363 . S
C1995 C2001 1.363 . S
C1996 C1997 1.363 . S
C1996 C2001 1.379 . S
C1996 N2003 1.356 . S
C1997 C1996 1.363 . S
C1997 C2000 1.363 . S
N1998 C2000 1.356 . S
N1998 H2010 0.984 . S
N1998 H2011 0.985 . S
N1999 C2001 1.356 . S
N1999 H2004 0.984 . S
N1999 H2005 0.985 . S
C2000 C1994 1.379 . S
C2000 C1997 1.363 . S
C2000 N1998 1.356 . S
C2001 C1995 1.363 . S
C2001 C1996 1.379 . S
C2001 N1999 1.356 . S
N2002 C1994 1.356 . S
N2002 H2008 0.984 . S
N2002 H2009 0.984 . S
N2003 C1996 1.356 . S
N2003 H2006 0.984 . S
N2003 H2007 0.985 . S
H2004 N1999 0.984 . S
H2005 N1999 0.985 . S
H2006 N2003 0.984 . S
H2007 N2003 0.985 . S
H2008 N2002 0.984 . S
H2009 N2002 0.984 . S
H2010 N1998 0.984 . S
H2011 N1998 0.985 . S
C2012 C2013 1.363 . S
C2012 C2018 1.379 . S
C2012 N2020 1.356 . S
C2013 C2012 1.363 . S
C2013 C2019 1.363 . S
C2014 C2015 1.363 . S
C2014 C2019 1.379 . S
C2014 N2021 1.356 . S
C2015 C2014 1.363 . S
C2015 C2018 1.363 . S
N2016 C2018 1.356 . S
N2016 H2028 0.984 . S
N2016 H2029 0.985 . S
N2017 C2019 1.356 . S
N2017 H2022 0.984 . S
N2017 H2023 0.985 . S
C2018 C2012 1.379 . S
C2018 C2015 1.363 . S
C2018 N2016 1.356 . S
C2019 C2013 1.363 . S
C2019 C2014 1.379 . S
C2019 N2017 1.356 . S
N2020 C2012 1.356 . S
N2020 H2026 0.984 . S
N2020 H2027 0.984 . S
N2021 C2014 1.356 . S
N2021 H2024 0.984 . S
N2021 H2025 0.985 . S
H2022 N2017 0.984 . S
H2023 N2017 0.985 . S
H2024 N2021 0.984 . S
H2025 N2021 0.985 . S
H2026 N2020 0.984 . S
H2027 N2020 0.984 . S
H2028 N2016 0.984 . S
H2029 N2016 0.985 . S
C2030 C2031 1.363 . S
C2030 C2036 1.379 . S
C2030 N2038 1.356 . S
C2031 C2030 1.363 . S
C2031 C2037 1.363 . S
C2032 C2033 1.363 . S
C2032 C2037 1.379 . S
C2032 N2039 1.356 . S
C2033 C2032 1.363 . S
C2033 C2036 1.363 . S
N2034 C2036 1.356 . S
N2034 H2046 0.984 . S
N2034 H2047 0.985 . S
N2035 C2037 1.356 . S
N2035 H2040 0.984 . S
N2035 H2041 0.985 . S
C2036 C2030 1.379 . S
C2036 C2033 1.363 . S
C2036 N2034 1.356 . S
C2037 C2031 1.363 . S
C2037 C2032 1.379 . S
C2037 N2035 1.356 . S
N2038 C2030 1.356 . S
N2038 H2044 0.984 . S
N2038 H2045 0.984 . S
N2039 C2032 1.356 . S
N2039 H2042 0.984 . S
N2039 H2043 0.985 . S
H2040 N2035 0.984 . S
H2041 N2035 0.985 . S
H2042 N2039 0.984 . S
H2043 N2039 0.985 . S
H2044 N2038 0.984 . S
H2045 N2038 0.984 . S
H2046 N2034 0.984 . S
H2047 N2034 0.985 . S
C2048 C2049 1.363 . S
C2048 C2054 1.379 . S
C2048 N2056 1.356 . S
C2049 C2048 1.363 . S
C2049 C2055 1.363 . S
C2050 C2051 1.363 . S
C2050 C2055 1.379 . S
C2050 N2057 1.356 . S
C2051 C2050 1.363 . S
C2051 C2054 1.363 . S
N2052 C2054 1.356 . S
N2052 H2064 0.984 . S
N2052 H2065 0.985 . S
N2053 C2055 1.356 . S
N2053 H2058 0.984 . S
N2053 H2059 0.985 . S
C2054 C2048 1.379 . S
C2054 C2051 1.363 . S
C2054 N2052 1.356 . S
C2055 C2049 1.363 . S
C2055 C2050 1.379 . S
C2055 N2053 1.356 . S
N2056 C2048 1.356 . S
N2056 H2062 0.984 . S
N2056 H2063 0.984 . S
N2057 C2050 1.356 . S
N2057 H2060 0.984 . S
N2057 H2061 0.985 . S
H2058 N2053 0.984 . S
H2059 N2053 0.985 . S
H2060 N2057 0.984 . S
H2061 N2057 0.985 . S
H2062 N2056 0.984 . S
H2063 N2056 0.984 . S
H2064 N2052 0.984 . S
H2065 N2052 0.985 . S
C2066 C2067 1.363 . S
C2066 C2072 1.379 . S
C2066 N2074 1.356 . S
C2067 C2066 1.363 . S
C2067 C2073 1.363 . S
C2068 C2069 1.363 . S
C2068 C2073 1.379 . S
C2068 N2075 1.356 . S
C2069 C2068 1.363 . S
C2069 C2072 1.363 . S
N2070 C2072 1.356 . S
N2070 H2082 0.984 . S
N2070 H2083 0.985 . S
N2071 C2073 1.356 . S
N2071 H2076 0.984 . S
N2071 H2077 0.985 . S
C2072 C2066 1.379 . S
C2072 C2069 1.363 . S
C2072 N2070 1.356 . S
C2073 C2067 1.363 . S
C2073 C2068 1.379 . S
C2073 N2071 1.356 . S
N2074 C2066 1.356 . S
N2074 H2080 0.984 . S
N2074 H2081 0.984 . S
N2075 C2068 1.356 . S
N2075 H2078 0.984 . S
N2075 H2079 0.985 . S
H2076 N2071 0.984 . S
H2077 N2071 0.985 . S
H2078 N2075 0.984 . S
H2079 N2075 0.985 . S
H2080 N2074 0.984 . S
H2081 N2074 0.984 . S
H2082 N2070 0.984 . S
H2083 N2070 0.985 . S
C2084 C2085 1.363 . S
C2084 C2090 1.379 . S
C2084 N2092 1.356 . S
C2085 C2084 1.363 . S
C2085 C2091 1.363 . S
C2086 C2087 1.363 . S
C2086 C2091 1.379 . S
C2086 N2093 1.356 . S
C2087 C2086 1.363 . S
C2087 C2090 1.363 . S
N2088 C2090 1.356 . S
N2088 H2100 0.984 . S
N2088 H2101 0.985 . S
N2089 C2091 1.356 . S
N2089 H2094 0.984 . S
N2089 H2095 0.985 . S
C2090 C2084 1.379 . S
C2090 C2087 1.363 . S
C2090 N2088 1.356 . S
C2091 C2085 1.363 . S
C2091 C2086 1.379 . S
C2091 N2089 1.356 . S
N2092 C2084 1.356 . S
N2092 H2098 0.984 . S
N2092 H2099 0.984 . S
N2093 C2086 1.356 . S
N2093 H2096 0.984 . S
N2093 H2097 0.985 . S
H2094 N2089 0.984 . S
H2095 N2089 0.985 . S
H2096 N2093 0.984 . S
H2097 N2093 0.985 . S
H2098 N2092 0.984 . S
H2099 N2092 0.984 . S
H2100 N2088 0.984 . S
H2101 N2088 0.985 . S
C2102 C2103 1.363 . S
C2102 C2108 1.379 . S
C2102 N2110 1.356 . S
C2103 C2102 1.363 . S
C2103 C2109 1.363 . S
C2104 C2105 1.363 . S
C2104 C2109 1.379 . S
C2104 N2111 1.356 . S
C2105 C2104 1.363 . S
C2105 C2108 1.363 . S
N2106 C2108 1.356 . S
N2106 H2118 0.984 . S
N2106 H2119 0.985 . S
N2107 C2109 1.356 . S
N2107 H2112 0.984 . S
N2107 H2113 0.985 . S
C2108 C2102 1.379 . S
C2108 C2105 1.363 . S
C2108 N2106 1.356 . S
C2109 C2103 1.363 . S
C2109 C2104 1.379 . S
C2109 N2107 1.356 . S
N2110 C2102 1.356 . S
N2110 H2116 0.984 . S
N2110 H2117 0.984 . S
N2111 C2104 1.356 . S
N2111 H2114 0.984 . S
N2111 H2115 0.985 . S
H2112 N2107 0.984 . S
H2113 N2107 0.985 . S
H2114 N2111 0.984 . S
H2115 N2111 0.985 . S
H2116 N2110 0.984 . S
H2117 N2110 0.984 . S
H2118 N2106 0.984 . S
H2119 N2106 0.985 . S
C2120 C2121 1.363 . S
C2120 C2126 1.379 . S
C2120 N2128 1.356 . S
C2121 C2120 1.363 . S
C2121 C2127 1.363 . S
C2122 C2123 1.363 . S
C2122 C2127 1.379 . S
C2122 N2129 1.356 . S
C2123 C2122 1.363 . S
C2123 C2126 1.363 . S
N2124 C2126 1.356 . S
N2124 H2136 0.984 . S
N2124 H2137 0.985 . S
N2125 C2127 1.356 . S
N2125 H2130 0.984 . S
N2125 H2131 0.985 . S
C2126 C2120 1.379 . S
C2126 C2123 1.363 . S
C2126 N2124 1.356 . S
C2127 C2121 1.363 . S
C2127 C2122 1.379 . S
C2127 N2125 1.356 . S
N2128 C2120 1.356 . S
N2128 H2134 0.984 . S
N2128 H2135 0.984 . S
N2129 C2122 1.356 . S
N2129 H2132 0.984 . S
N2129 H2133 0.985 . S
H2130 N2125 0.984 . S
H2131 N2125 0.985 . S
H2132 N2129 0.984 . S
H2133 N2129 0.985 . S
H2134 N2128 0.984 . S
H2135 N2128 0.984 . S
H2136 N2124 0.984 . S
H2137 N2124 0.985 . S
C2138 C2139 1.363 . S
C2138 C2144 1.379 . S
C2138 N2146 1.356 . S
C2139 C2138 1.363 . S
C2139 C2145 1.363 . S
C2140 C2141 1.363 . S
C2140 C2145 1.379 . S
C2140 N2147 1.356 . S
C2141 C2140 1.363 . S
C2141 C2144 1.363 . S
N2142 C2144 1.356 . S
N2142 H2154 0.984 . S
N2142 H2155 0.985 . S
N2143 C2145 1.356 . S
N2143 H2148 0.984 . S
N2143 H2149 0.985 . S
C2144 C2138 1.379 . S
C2144 C2141 1.363 . S
C2144 N2142 1.356 . S
C2145 C2139 1.363 . S
C2145 C2140 1.379 . S
C2145 N2143 1.356 . S
N2146 C2138 1.356 . S
N2146 H2152 0.984 . S
N2146 H2153 0.984 . S
N2147 C2140 1.356 . S
N2147 H2150 0.984 . S
N2147 H2151 0.985 . S
H2148 N2143 0.984 . S
H2149 N2143 0.985 . S
H2150 N2147 0.984 . S
H2151 N2147 0.985 . S
H2152 N2146 0.984 . S
H2153 N2146 0.984 . S
H2154 N2142 0.984 . S
H2155 N2142 0.985 . S
C2156 C2157 1.363 . S
C2156 C2162 1.379 . S
C2156 N2164 1.356 . S
C2157 C2156 1.363 . S
C2157 C2163 1.363 . S
C2158 C2159 1.363 . S
C2158 C2163 1.379 . S
C2158 N2165 1.356 . S
C2159 C2158 1.363 . S
C2159 C2162 1.363 . S
N2160 C2162 1.356 . S
N2160 H2172 0.984 . S
N2160 H2173 0.985 . S
N2161 C2163 1.356 . S
N2161 H2166 0.984 . S
N2161 H2167 0.985 . S
C2162 C2156 1.379 . S
C2162 C2159 1.363 . S
C2162 N2160 1.356 . S
C2163 C2157 1.363 . S
C2163 C2158 1.379 . S
C2163 N2161 1.356 . S
N2164 C2156 1.356 . S
N2164 H2170 0.984 . S
N2164 H2171 0.984 . S
N2165 C2158 1.356 . S
N2165 H2168 0.984 . S
N2165 H2169 0.985 . S
H2166 N2161 0.984 . S
H2167 N2161 0.985 . S
H2168 N2165 0.984 . S
H2169 N2165 0.985 . S
H2170 N2164 0.984 . S
H2171 N2164 0.984 . S
H2172 N2160 0.984 . S
H2173 N2160 0.985 . S
C2174 C2175 1.363 . S
C2174 C2180 1.379 . S
C2174 N2182 1.356 . S
C2175 C2174 1.363 . S
C2175 C2181 1.363 . S
C2176 C2177 1.363 . S
C2176 C2181 1.379 . S
C2176 N2183 1.356 . S
C2177 C2176 1.363 . S
C2177 C2180 1.363 . S
N2178 C2180 1.356 . S
N2178 H2190 0.984 . S
N2178 H2191 0.985 . S
N2179 C2181 1.356 . S
N2179 H2184 0.984 . S
N2179 H2185 0.985 . S
C2180 C2174 1.379 . S
C2180 C2177 1.363 . S
C2180 N2178 1.356 . S
C2181 C2175 1.363 . S
C2181 C2176 1.379 . S
C2181 N2179 1.356 . S
N2182 C2174 1.356 . S
N2182 H2188 0.984 . S
N2182 H2189 0.984 . S
N2183 C2176 1.356 . S
N2183 H2186 0.984 . S
N2183 H2187 0.985 . S
H2184 N2179 0.984 . S
H2185 N2179 0.985 . S
H2186 N2183 0.984 . S
H2187 N2183 0.985 . S
H2188 N2182 0.984 . S
H2189 N2182 0.984 . S
H2190 N2178 0.984 . S
H2191 N2178 0.985 . S
C2192 C2193 1.363 . S
C2192 C2198 1.379 . S
C2192 N2200 1.356 . S
C2193 C2192 1.363 . S
C2193 C2199 1.363 . S
C2194 C2195 1.363 . S
C2194 C2199 1.379 . S
C2194 N2201 1.356 . S
C2195 C2194 1.363 . S
C2195 C2198 1.363 . S
N2196 C2198 1.356 . S
N2196 H2208 0.984 . S
N2196 H2209 0.985 . S
N2197 C2199 1.356 . S
N2197 H2202 0.984 . S
N2197 H2203 0.985 . S
C2198 C2192 1.379 . S
C2198 C2195 1.363 . S
C2198 N2196 1.356 . S
C2199 C2193 1.363 . S
C2199 C2194 1.379 . S
C2199 N2197 1.356 . S
N2200 C2192 1.356 . S
N2200 H2206 0.984 . S
N2200 H2207 0.984 . S
N2201 C2194 1.356 . S
N2201 H2204 0.984 . S
N2201 H2205 0.985 . S
H2202 N2197 0.984 . S
H2203 N2197 0.985 . S
H2204 N2201 0.984 . S
H2205 N2201 0.985 . S
H2206 N2200 0.984 . S
H2207 N2200 0.984 . S
H2208 N2196 0.984 . S
H2209 N2196 0.985 . S
C2210 C2211 1.363 . S
C2210 C2216 1.379 1_565 S
C2210 N2218 1.356 . S
C2211 C2210 1.363 . S
C2211 C2217 1.363 . S
C2212 C2213 1.363 1_565 S
C2212 C2217 1.379 . S
C2212 N2219 1.356 . S
C2213 C2212 1.363 1_545 S
C2213 C2216 1.363 . S
N2214 C2216 1.356 . S
N2214 H2226 0.984 . S
N2214 H2227 0.985 . S
N2215 C2217 1.356 . S
N2215 H2220 0.984 . S
N2215 H2221 0.985 . S
C2216 C2210 1.379 1_545 S
C2216 C2213 1.363 . S
C2216 N2214 1.356 . S
C2217 C2211 1.363 . S
C2217 C2212 1.379 . S
C2217 N2215 1.356 . S
N2218 C2210 1.356 . S
N2218 H2224 0.984 1_565 S
N2218 H2225 0.984 . S
N2219 C2212 1.356 . S
N2219 H2222 0.984 . S
N2219 H2223 0.985 . S
H2220 N2215 0.984 . S
H2221 N2215 0.985 . S
H2222 N2219 0.984 . S
H2223 N2219 0.985 . S
H2224 N2218 0.984 1_545 S
H2225 N2218 0.984 . S
H2226 N2214 0.984 . S
H2227 N2214 0.985 . S
C2228 C2229 1.363 . S
C2228 C2234 1.379 . S
C2228 N2236 1.356 . S
C2229 C2228 1.363 . S
C2229 C2235 1.363 . S
C2230 C2231 1.363 . S
C2230 C2235 1.379 . S
C2230 N2237 1.356 . S
C2231 C2230 1.363 . S
C2231 C2234 1.363 . S
N2232 C2234 1.356 . S
N2232 H2244 0.984 . S
N2232 H2245 0.985 . S
N2233 C2235 1.356 . S
N2233 H2238 0.984 . S
N2233 H2239 0.985 . S
C2234 C2228 1.379 . S
C2234 C2231 1.363 . S
C2234 N2232 1.356 . S
C2235 C2229 1.363 . S
C2235 C2230 1.379 . S
C2235 N2233 1.356 . S
N2236 C2228 1.356 . S
N2236 H2242 0.984 . S
N2236 H2243 0.984 . S
N2237 C2230 1.356 . S
N2237 H2240 0.984 . S
N2237 H2241 0.985 . S
H2238 N2233 0.984 . S
H2239 N2233 0.985 . S
H2240 N2237 0.984 . S
H2241 N2237 0.985 . S
H2242 N2236 0.984 . S
H2243 N2236 0.984 . S
H2244 N2232 0.984 . S
H2245 N2232 0.985 . S
C2246 C2247 1.363 . S
C2246 C2252 1.379 . S
C2246 N2254 1.356 . S
C2247 C2246 1.363 . S
C2247 C2253 1.363 . S
C2248 C2249 1.363 . S
C2248 C2253 1.379 . S
C2248 N2255 1.356 . S
C2249 C2248 1.363 . S
C2249 C2252 1.363 . S
N2250 C2252 1.356 . S
N2250 H2262 0.984 . S
N2250 H2263 0.985 . S
N2251 C2253 1.356 . S
N2251 H2256 0.984 . S
N2251 H2257 0.985 . S
C2252 C2246 1.379 . S
C2252 C2249 1.363 . S
C2252 N2250 1.356 . S
C2253 C2247 1.363 . S
C2253 C2248 1.379 . S
C2253 N2251 1.356 . S
N2254 C2246 1.356 . S
N2254 H2260 0.984 . S
N2254 H2261 0.984 . S
N2255 C2248 1.356 . S
N2255 H2258 0.984 . S
N2255 H2259 0.985 . S
H2256 N2251 0.984 . S
H2257 N2251 0.985 . S
H2258 N2255 0.984 . S
H2259 N2255 0.985 . S
H2260 N2254 0.984 . S
H2261 N2254 0.984 . S
H2262 N2250 0.984 . S
H2263 N2250 0.985 . S
C2264 C2265 1.363 . S
C2264 C2270 1.379 . S
C2264 N2272 1.356 . S
C2265 C2264 1.363 . S
C2265 C2271 1.363 . S
C2266 C2267 1.363 . S
C2266 C2271 1.379 . S
C2266 N2273 1.356 . S
C2267 C2266 1.363 . S
C2267 C2270 1.363 . S
N2268 C2270 1.356 . S
N2268 H2280 0.984 . S
N2268 H2281 0.985 . S
N2269 C2271 1.356 . S
N2269 H2274 0.984 . S
N2269 H2275 0.985 . S
C2270 C2264 1.379 . S
C2270 C2267 1.363 . S
C2270 N2268 1.356 . S
C2271 C2265 1.363 . S
C2271 C2266 1.379 . S
C2271 N2269 1.356 . S
N2272 C2264 1.356 . S
N2272 H2278 0.984 . S
N2272 H2279 0.984 . S
N2273 C2266 1.356 . S
N2273 H2276 0.984 . S
N2273 H2277 0.985 . S
H2274 N2269 0.984 . S
H2275 N2269 0.985 . S
H2276 N2273 0.984 . S
H2277 N2273 0.985 . S
H2278 N2272 0.984 . S
H2279 N2272 0.984 . S
H2280 N2268 0.984 . S
H2281 N2268 0.985 . S
C2282 C2283 1.363 . S
C2282 C2288 1.379 . S
C2282 N2290 1.356 . S
C2283 C2282 1.363 . S
C2283 C2289 1.363 . S
C2284 C2285 1.363 . S
C2284 C2289 1.379 . S
C2284 N2291 1.356 . S
C2285 C2284 1.363 . S
C2285 C2288 1.363 . S
N2286 C2288 1.356 . S
N2286 H2298 0.984 . S
N2286 H2299 0.985 . S
N2287 C2289 1.356 . S
N2287 H2292 0.984 . S
N2287 H2293 0.985 . S
C2288 C2282 1.379 . S
C2288 C2285 1.363 . S
C2288 N2286 1.356 . S
C2289 C2283 1.363 . S
C2289 C2284 1.379 . S
C2289 N2287 1.356 . S
N2290 C2282 1.356 . S
N2290 H2296 0.984 . S
N2290 H2297 0.984 . S
N2291 C2284 1.356 . S
N2291 H2294 0.984 . S
N2291 H2295 0.985 . S
H2292 N2287 0.984 . S
H2293 N2287 0.985 . S
H2294 N2291 0.984 . S
H2295 N2291 0.985 . S
H2296 N2290 0.984 . S
H2297 N2290 0.984 . S
H2298 N2286 0.984 . S
H2299 N2286 0.985 . S
C2300 C2301 1.363 . S
C2300 C2306 1.379 . S
C2300 N2308 1.356 . S
C2301 C2300 1.363 . S
C2301 C2307 1.363 . S
C2302 C2303 1.363 . S
C2302 C2307 1.379 . S
C2302 N2309 1.356 . S
C2303 C2302 1.363 . S
C2303 C2306 1.363 . S
N2304 C2306 1.356 . S
N2304 H2316 0.984 . S
N2304 H2317 0.985 . S
N2305 C2307 1.356 . S
N2305 H2310 0.984 . S
N2305 H2311 0.985 . S
C2306 C2300 1.379 . S
C2306 C2303 1.363 . S
C2306 N2304 1.356 . S
C2307 C2301 1.363 . S
C2307 C2302 1.379 . S
C2307 N2305 1.356 . S
N2308 C2300 1.356 . S
N2308 H2314 0.984 . S
N2308 H2315 0.984 . S
N2309 C2302 1.356 . S
N2309 H2312 0.984 . S
N2309 H2313 0.985 . S
H2310 N2305 0.984 . S
H2311 N2305 0.985 . S
H2312 N2309 0.984 . S
H2313 N2309 0.985 . S
H2314 N2308 0.984 . S
H2315 N2308 0.984 . S
H2316 N2304 0.984 . S
H2317 N2304 0.985 . S
C2318 C2319 1.363 . S
C2318 C2324 1.379 . S
C2318 N2326 1.356 . S
C2319 C2318 1.363 . S
C2319 C2325 1.363 . S
C2320 C2321 1.363 . S
C2320 C2325 1.379 . S
C2320 N2327 1.356 . S
C2321 C2320 1.363 . S
C2321 C2324 1.363 . S
N2322 C2324 1.356 . S
N2322 H2334 0.984 . S
N2322 H2335 0.985 . S
N2323 C2325 1.356 . S
N2323 H2328 0.984 . S
N2323 H2329 0.985 . S
C2324 C2318 1.379 . S
C2324 C2321 1.363 . S
C2324 N2322 1.356 . S
C2325 C2319 1.363 . S
C2325 C2320 1.379 . S
C2325 N2323 1.356 . S
N2326 C2318 1.356 . S
N2326 H2332 0.984 . S
N2326 H2333 0.984 . S
N2327 C2320 1.356 . S
N2327 H2330 0.984 . S
N2327 H2331 0.985 . S
H2328 N2323 0.984 . S
H2329 N2323 0.985 . S
H2330 N2327 0.984 . S
H2331 N2327 0.985 . S
H2332 N2326 0.984 . S
H2333 N2326 0.984 . S
H2334 N2322 0.984 . S
H2335 N2322 0.985 . S
C2336 C2337 1.363 . S
C2336 C2342 1.379 . S
C2336 N2344 1.356 . S
C2337 C2336 1.363 . S
C2337 C2343 1.363 . S
C2338 C2339 1.363 . S
C2338 C2343 1.379 . S
C2338 N2345 1.356 . S
C2339 C2338 1.363 . S
C2339 C2342 1.363 . S
N2340 C2342 1.356 . S
N2340 H2352 0.984 . S
N2340 H2353 0.985 . S
N2341 C2343 1.356 . S
N2341 H2346 0.984 . S
N2341 H2347 0.985 . S
C2342 C2336 1.379 . S
C2342 C2339 1.363 . S
C2342 N2340 1.356 . S
C2343 C2337 1.363 . S
C2343 C2338 1.379 . S
C2343 N2341 1.356 . S
N2344 C2336 1.356 . S
N2344 H2350 0.984 . S
N2344 H2351 0.984 . S
N2345 C2338 1.356 . S
N2345 H2348 0.984 . S
N2345 H2349 0.985 . S
H2346 N2341 0.984 . S
H2347 N2341 0.985 . S
H2348 N2345 0.984 . S
H2349 N2345 0.985 . S
H2350 N2344 0.984 . S
H2351 N2344 0.984 . S
H2352 N2340 0.984 . S
H2353 N2340 0.985 . S
C2354 C2355 1.363 . S
C2354 C2360 1.379 . S
C2354 N2362 1.356 . S
C2355 C2354 1.363 . S
C2355 C2361 1.363 . S
C2356 C2357 1.363 . S
C2356 C2361 1.379 . S
C2356 N2363 1.356 . S
C2357 C2356 1.363 . S
C2357 C2360 1.363 . S
N2358 C2360 1.356 . S
N2358 H2370 0.985 . S
N2358 H2371 0.985 1_556 S
N2359 C2361 1.356 . S
N2359 H2364 0.984 . S
N2359 H2365 0.985 . S
C2360 C2354 1.379 . S
C2360 C2357 1.363 . S
C2360 N2358 1.356 . S
C2361 C2355 1.363 . S
C2361 C2356 1.379 . S
C2361 N2359 1.356 . S
N2362 C2354 1.356 . S
N2362 H2368 0.984 . S
N2362 H2369 0.984 . S
N2363 C2356 1.356 . S
N2363 H2366 0.984 . S
N2363 H2367 0.985 . S
H2364 N2359 0.984 . S
H2365 N2359 0.985 . S
H2366 N2363 0.984 . S
H2367 N2363 0.985 . S
H2368 N2362 0.984 . S
H2369 N2362 0.984 . S
H2370 N2358 0.985 . S
H2371 N2358 0.985 1_554 S
C2372 C2373 1.363 . S
C2372 C2378 1.379 . S
C2372 N2380 1.356 . S
C2373 C2372 1.363 . S
C2373 C2379 1.363 . S
C2374 C2375 1.363 . S
C2374 C2379 1.379 . S
C2374 N2381 1.356 . S
C2375 C2374 1.363 . S
C2375 C2378 1.363 . S
N2376 C2378 1.356 . S
N2376 H2388 0.984 . S
N2376 H2389 0.985 . S
N2377 C2379 1.356 . S
N2377 H2382 0.984 . S
N2377 H2383 0.985 . S
C2378 C2372 1.379 . S
C2378 C2375 1.363 . S
C2378 N2376 1.356 . S
C2379 C2373 1.363 . S
C2379 C2374 1.379 . S
C2379 N2377 1.356 . S
N2380 C2372 1.356 . S
N2380 H2386 0.984 . S
N2380 H2387 0.984 . S
N2381 C2374 1.356 . S
N2381 H2384 0.984 . S
N2381 H2385 0.985 . S
H2382 N2377 0.984 . S
H2383 N2377 0.985 . S
H2384 N2381 0.984 . S
H2385 N2381 0.985 . S
H2386 N2380 0.984 . S
H2387 N2380 0.984 . S
H2388 N2376 0.984 . S
H2389 N2376 0.985 . S
C2390 C2391 1.363 . S
C2390 C2396 1.379 . S
C2390 N2398 1.356 . S
C2391 C2390 1.363 . S
C2391 C2397 1.363 . S
C2392 C2393 1.363 . S
C2392 C2397 1.379 . S
C2392 N2399 1.356 . S
C2393 C2392 1.363 . S
C2393 C2396 1.363 . S
N2394 C2396 1.356 1_554 S
N2394 H2406 0.984 . S
N2394 H2407 0.985 . S
N2395 C2397 1.356 . S
N2395 H2400 0.984 . S
N2395 H2401 0.985 . S
C2396 C2390 1.379 . S
C2396 C2393 1.363 . S
C2396 N2394 1.356 1_556 S
C2397 C2391 1.363 . S
C2397 C2392 1.379 . S
C2397 N2395 1.356 . S
N2398 C2390 1.356 . S
N2398 H2404 0.984 . S
N2398 H2405 0.984 . S
N2399 C2392 1.356 . S
N2399 H2402 0.984 . S
N2399 H2403 0.985 . S
H2400 N2395 0.984 . S
H2401 N2395 0.985 . S
H2402 N2399 0.984 . S
H2403 N2399 0.985 . S
H2404 N2398 0.984 . S
H2405 N2398 0.984 . S
H2406 N2394 0.984 . S
H2407 N2394 0.985 . S
C2408 C2409 1.363 . S
C2408 C2414 1.379 . S
C2408 N2416 1.356 . S
C2409 C2408 1.363 . S
C2409 C2415 1.363 . S
C2410 C2411 1.363 . S
C2410 C2415 1.379 . S
C2410 N2417 1.356 . S
C2411 C2410 1.363 . S
C2411 C2414 1.363 . S
N2412 C2414 1.356 . S
N2412 H2424 0.984 . S
N2412 H2425 0.985 . S
N2413 C2415 1.356 . S
N2413 H2418 0.984 . S
N2413 H2419 0.985 . S
C2414 C2408 1.379 . S
C2414 C2411 1.363 . S
C2414 N2412 1.356 . S
C2415 C2409 1.363 . S
C2415 C2410 1.379 . S
C2415 N2413 1.356 . S
N2416 C2408 1.356 . S
N2416 H2422 0.984 . S
N2416 H2423 0.984 . S
N2417 C2410 1.356 . S
N2417 H2420 0.984 . S
N2417 H2421 0.985 . S
H2418 N2413 0.984 . S
H2419 N2413 0.985 . S
H2420 N2417 0.984 . S
H2421 N2417 0.985 . S
H2422 N2416 0.984 . S
H2423 N2416 0.984 . S
H2424 N2412 0.984 . S
H2425 N2412 0.985 . S
C2426 C2427 1.363 . S
C2426 C2432 1.379 . S
C2426 N2434 1.356 . S
C2427 C2426 1.363 . S
C2427 C2433 1.363 . S
C2428 C2429 1.363 . S
C2428 C2433 1.379 . S
C2428 N2435 1.356 . S
C2429 C2428 1.363 . S
C2429 C2432 1.363 . S
N2430 C2432 1.356 . S
N2430 H2442 0.984 . S
N2430 H2443 0.985 . S
N2431 C2433 1.356 . S
N2431 H2436 0.984 . S
N2431 H2437 0.985 . S
C2432 C2426 1.379 . S
C2432 C2429 1.363 . S
C2432 N2430 1.356 . S
C2433 C2427 1.363 . S
C2433 C2428 1.379 . S
C2433 N2431 1.356 . S
N2434 C2426 1.356 . S
N2434 H2440 0.984 . S
N2434 H2441 0.984 . S
N2435 C2428 1.356 . S
N2435 H2438 0.984 . S
N2435 H2439 0.985 . S
H2436 N2431 0.984 . S
H2437 N2431 0.985 . S
H2438 N2435 0.984 . S
H2439 N2435 0.985 . S
H2440 N2434 0.984 . S
H2441 N2434 0.984 . S
H2442 N2430 0.984 . S
H2443 N2430 0.985 . S
C2444 C2445 1.363 . S
C2444 C2450 1.379 . S
C2444 N2452 1.356 . S
C2445 C2444 1.363 . S
C2445 C2451 1.363 . S
C2446 C2447 1.363 . S
C2446 C2451 1.379 . S
C2446 N2453 1.356 . S
C2447 C2446 1.363 . S
C2447 C2450 1.363 . S
N2448 C2450 1.356 . S
N2448 H2460 0.984 . S
N2448 H2461 0.985 . S
N2449 C2451 1.356 . S
N2449 H2454 0.984 . S
N2449 H2455 0.985 . S
C2450 C2444 1.379 . S
C2450 C2447 1.363 . S
C2450 N2448 1.356 . S
C2451 C2445 1.363 . S
C2451 C2446 1.379 . S
C2451 N2449 1.356 . S
N2452 C2444 1.356 . S
N2452 H2458 0.984 . S
N2452 H2459 0.984 . S
N2453 C2446 1.356 . S
N2453 H2456 0.984 . S
N2453 H2457 0.985 . S
H2454 N2449 0.984 . S
H2455 N2449 0.985 . S
H2456 N2453 0.984 . S
H2457 N2453 0.985 . S
H2458 N2452 0.984 . S
H2459 N2452 0.984 . S
H2460 N2448 0.984 . S
H2461 N2448 0.985 . S
C2462 C2463 1.363 . S
C2462 C2468 1.379 . S
C2462 N2470 1.356 . S
C2463 C2462 1.363 . S
C2463 C2469 1.363 . S
C2464 C2465 1.363 . S
C2464 C2469 1.379 . S
C2464 N2471 1.356 . S
C2465 C2464 1.363 . S
C2465 C2468 1.363 . S
N2466 C2468 1.356 . S
N2466 H2478 0.984 . S
N2466 H2479 0.985 . S
N2467 C2469 1.356 . S
N2467 H2472 0.984 . S
N2467 H2473 0.985 . S
C2468 C2462 1.379 . S
C2468 C2465 1.363 . S
C2468 N2466 1.356 . S
C2469 C2463 1.363 . S
C2469 C2464 1.379 . S
C2469 N2467 1.356 . S
N2470 C2462 1.356 . S
N2470 H2476 0.984 . S
N2470 H2477 0.984 . S
N2471 C2464 1.356 . S
N2471 H2474 0.984 . S
N2471 H2475 0.985 . S
H2472 N2467 0.984 . S
H2473 N2467 0.985 . S
H2474 N2471 0.984 . S
H2475 N2471 0.985 . S
H2476 N2470 0.984 . S
H2477 N2470 0.984 . S
H2478 N2466 0.984 . S
H2479 N2466 0.985 . S
C2480 C2481 1.363 . S
C2480 C2486 1.379 . S
C2480 N2488 1.356 . S
C2481 C2480 1.363 . S
C2481 C2487 1.363 . S
C2482 C2483 1.363 . S
C2482 C2487 1.379 . S
C2482 N2489 1.356 . S
C2483 C2482 1.363 . S
C2483 C2486 1.363 . S
N2484 C2486 1.356 . S
N2484 H2496 0.984 . S
N2484 H2497 0.985 . S
N2485 C2487 1.356 . S
N2485 H2490 0.984 . S
N2485 H2491 0.985 . S
C2486 C2480 1.379 . S
C2486 C2483 1.363 . S
C2486 N2484 1.356 . S
C2487 C2481 1.363 . S
C2487 C2482 1.379 . S
C2487 N2485 1.356 . S
N2488 C2480 1.356 . S
N2488 H2494 0.984 . S
N2488 H2495 0.984 . S
N2489 C2482 1.356 . S
N2489 H2492 0.984 . S
N2489 H2493 0.985 . S
H2490 N2485 0.984 . S
H2491 N2485 0.985 . S
H2492 N2489 0.984 . S
H2493 N2489 0.985 . S
H2494 N2488 0.984 . S
H2495 N2488 0.984 . S
H2496 N2484 0.984 . S
H2497 N2484 0.985 . S
C2498 C2499 1.363 . S
C2498 C2504 1.379 . S
C2498 N2506 1.356 . S
C2499 C2498 1.363 . S
C2499 C2505 1.363 . S
C2500 C2501 1.363 . S
C2500 C2505 1.379 . S
C2500 N2507 1.356 . S
C2501 C2500 1.363 . S
C2501 C2504 1.363 . S
N2502 C2504 1.356 . S
N2502 H2514 0.984 . S
N2502 H2515 0.985 . S
N2503 C2505 1.356 . S
N2503 H2508 0.984 . S
N2503 H2509 0.985 . S
C2504 C2498 1.379 . S
C2504 C2501 1.363 . S
C2504 N2502 1.356 . S
C2505 C2499 1.363 . S
C2505 C2500 1.379 . S
C2505 N2503 1.356 . S
N2506 C2498 1.356 . S
N2506 H2512 0.984 . S
N2506 H2513 0.984 . S
N2507 C2500 1.356 . S
N2507 H2510 0.984 . S
N2507 H2511 0.985 . S
H2508 N2503 0.984 . S
H2509 N2503 0.985 . S
H2510 N2507 0.984 . S
H2511 N2507 0.985 . S
H2512 N2506 0.984 . S
H2513 N2506 0.984 . S
H2514 N2502 0.984 . S
H2515 N2502 0.985 . S
C2516 C2517 1.363 . S
C2516 C2522 1.379 . S
C2516 N2524 1.356 . S
C2517 C2516 1.363 . S
C2517 C2523 1.363 . S
C2518 C2519 1.363 . S
C2518 C2523 1.379 . S
C2518 N2525 1.356 . S
C2519 C2518 1.363 . S
C2519 C2522 1.363 . S
N2520 C2522 1.356 . S
N2520 H2532 0.984 . S
N2520 H2533 0.985 . S
N2521 C2523 1.356 . S
N2521 H2526 0.984 . S
N2521 H2527 0.985 . S
C2522 C2516 1.379 . S
C2522 C2519 1.363 . S
C2522 N2520 1.356 . S
C2523 C2517 1.363 . S
C2523 C2518 1.379 . S
C2523 N2521 1.356 . S
N2524 C2516 1.356 . S
N2524 H2530 0.984 . S
N2524 H2531 0.984 . S
N2525 C2518 1.356 . S
N2525 H2528 0.984 . S
N2525 H2529 0.985 . S
H2526 N2521 0.984 . S
H2527 N2521 0.985 . S
H2528 N2525 0.984 . S
H2529 N2525 0.985 . S
H2530 N2524 0.984 . S
H2531 N2524 0.984 . S
H2532 N2520 0.984 . S
H2533 N2520 0.985 . S
C2534 C2535 1.363 . S
C2534 C2540 1.379 . S
C2534 N2542 1.356 . S
C2535 C2534 1.363 . S
C2535 C2541 1.363 . S
C2536 C2537 1.363 . S
C2536 C2541 1.379 . S
C2536 N2543 1.356 . S
C2537 C2536 1.363 . S
C2537 C2540 1.363 . S
N2538 C2540 1.356 . S
N2538 H2550 0.984 . S
N2538 H2551 0.985 . S
N2539 C2541 1.356 . S
N2539 H2544 0.984 . S
N2539 H2545 0.985 . S
C2540 C2534 1.379 . S
C2540 C2537 1.363 . S
C2540 N2538 1.356 . S
C2541 C2535 1.363 . S
C2541 C2536 1.379 . S
C2541 N2539 1.356 . S
N2542 C2534 1.356 . S
N2542 H2548 0.984 . S
N2542 H2549 0.984 . S
N2543 C2536 1.356 . S
N2543 H2546 0.984 . S
N2543 H2547 0.985 . S
H2544 N2539 0.984 . S
H2545 N2539 0.985 . S
H2546 N2543 0.984 . S
H2547 N2543 0.985 . S
H2548 N2542 0.984 . S
H2549 N2542 0.984 . S
H2550 N2538 0.984 . S
H2551 N2538 0.985 . S
C2552 C2553 1.363 . S
C2552 C2558 1.379 . S
C2552 N2560 1.356 . S
C2553 C2552 1.363 . S
C2553 C2559 1.363 . S
C2554 C2555 1.363 . S
C2554 C2559 1.379 . S
C2554 N2561 1.356 . S
C2555 C2554 1.363 . S
C2555 C2558 1.363 . S
N2556 C2558 1.356 . S
N2556 H2568 0.984 . S
N2556 H2569 0.985 . S
N2557 C2559 1.356 . S
N2557 H2562 0.984 . S
N2557 H2563 0.985 . S
C2558 C2552 1.379 . S
C2558 C2555 1.363 . S
C2558 N2556 1.356 . S
C2559 C2553 1.363 . S
C2559 C2554 1.379 . S
C2559 N2557 1.356 . S
N2560 C2552 1.356 . S
N2560 H2566 0.984 . S
N2560 H2567 0.984 . S
N2561 C2554 1.356 . S
N2561 H2564 0.984 . S
N2561 H2565 0.985 . S
H2562 N2557 0.984 . S
H2563 N2557 0.985 . S
H2564 N2561 0.984 . S
H2565 N2561 0.985 . S
H2566 N2560 0.984 . S
H2567 N2560 0.984 . S
H2568 N2556 0.984 . S
H2569 N2556 0.985 . S
C2570 C2571 1.363 . S
C2570 C2576 1.379 . S
C2570 N2578 1.356 . S
C2571 C2570 1.363 . S
C2571 C2577 1.363 . S
C2572 C2573 1.363 . S
C2572 C2577 1.379 . S
C2572 N2579 1.356 . S
C2573 C2572 1.363 . S
C2573 C2576 1.363 . S
N2574 C2576 1.356 . S
N2574 H2586 0.984 . S
N2574 H2587 0.985 . S
N2575 C2577 1.356 . S
N2575 H2580 0.984 . S
N2575 H2581 0.985 . S
C2576 C2570 1.379 . S
C2576 C2573 1.363 . S
C2576 N2574 1.356 . S
C2577 C2571 1.363 . S
C2577 C2572 1.379 . S
C2577 N2575 1.356 . S
N2578 C2570 1.356 . S
N2578 H2584 0.984 . S
N2578 H2585 0.984 . S
N2579 C2572 1.356 . S
N2579 H2582 0.984 . S
N2579 H2583 0.985 . S
H2580 N2575 0.984 . S
H2581 N2575 0.985 . S
H2582 N2579 0.984 . S
H2583 N2579 0.985 . S
H2584 N2578 0.984 . S
H2585 N2578 0.984 . S
H2586 N2574 0.984 . S
H2587 N2574 0.985 . S
C2588 C2589 1.363 . S
C2588 C2594 1.379 . S
C2588 N2596 1.356 . S
C2589 C2588 1.363 . S
C2589 C2595 1.363 . S
C2590 C2591 1.363 . S
C2590 C2595 1.379 . S
C2590 N2597 1.356 . S
C2591 C2590 1.363 . S
C2591 C2594 1.363 . S
N2592 C2594 1.356 . S
N2592 H2604 0.984 . S
N2592 H2605 0.985 . S
N2593 C2595 1.356 . S
N2593 H2598 0.984 . S
N2593 H2599 0.985 . S
C2594 C2588 1.379 . S
C2594 C2591 1.363 . S
C2594 N2592 1.356 . S
C2595 C2589 1.363 . S
C2595 C2590 1.379 . S
C2595 N2593 1.356 . S
N2596 C2588 1.356 . S
N2596 H2602 0.984 . S
N2596 H2603 0.984 . S
N2597 C2590 1.356 . S
N2597 H2600 0.984 . S
N2597 H2601 0.985 . S
H2598 N2593 0.984 . S
H2599 N2593 0.985 . S
H2600 N2597 0.984 . S
H2601 N2597 0.985 . S
H2602 N2596 0.984 . S
H2603 N2596 0.984 . S
H2604 N2592 0.984 . S
H2605 N2592 0.985 . S
C2606 C2607 1.363 . S
C2606 C2612 1.379 . S
C2606 N2614 1.356 . S
C2607 C2606 1.363 . S
C2607 C2613 1.363 . S
C2608 C2609 1.363 . S
C2608 C2613 1.379 . S
C2608 N2615 1.356 . S
C2609 C2608 1.363 . S
C2609 C2612 1.363 . S
N2610 C2612 1.356 . S
N2610 H2622 0.984 . S
N2610 H2623 0.985 . S
N2611 C2613 1.356 . S
N2611 H2616 0.984 . S
N2611 H2617 0.985 . S
C2612 C2606 1.379 . S
C2612 C2609 1.363 . S
C2612 N2610 1.356 . S
C2613 C2607 1.363 . S
C2613 C2608 1.379 . S
C2613 N2611 1.356 . S
N2614 C2606 1.356 . S
N2614 H2620 0.984 . S
N2614 H2621 0.984 . S
N2615 C2608 1.356 . S
N2615 H2618 0.984 . S
N2615 H2619 0.985 . S
H2616 N2611 0.984 . S
H2617 N2611 0.985 . S
H2618 N2615 0.984 . S
H2619 N2615 0.985 . S
H2620 N2614 0.984 . S
H2621 N2614 0.984 . S
H2622 N2610 0.984 . S
H2623 N2610 0.985 . S
C2624 C2625 1.363 . S
C2624 C2630 1.379 . S
C2624 N2632 1.356 . S
C2625 C2624 1.363 . S
C2625 C2631 1.363 . S
C2626 C2627 1.363 . S
C2626 C2631 1.379 . S
C2626 N2633 1.356 . S
C2627 C2626 1.363 . S
C2627 C2630 1.363 . S
N2628 C2630 1.356 . S
N2628 H2640 0.984 . S
N2628 H2641 0.985 . S
N2629 C2631 1.356 . S
N2629 H2634 0.984 . S
N2629 H2635 0.985 . S
C2630 C2624 1.379 . S
C2630 C2627 1.363 . S
C2630 N2628 1.356 . S
C2631 C2625 1.363 . S
C2631 C2626 1.379 . S
C2631 N2629 1.356 . S
N2632 C2624 1.356 . S
N2632 H2638 0.984 . S
N2632 H2639 0.984 . S
N2633 C2626 1.356 . S
N2633 H2636 0.984 . S
N2633 H2637 0.985 . S
H2634 N2629 0.984 . S
H2635 N2629 0.985 . S
H2636 N2633 0.984 . S
H2637 N2633 0.985 . S
H2638 N2632 0.984 . S
H2639 N2632 0.984 . S
H2640 N2628 0.984 . S
H2641 N2628 0.985 . S
C2642 C2643 1.363 . S
C2642 C2648 1.379 . S
C2642 N2650 1.356 . S
C2643 C2642 1.363 . S
C2643 C2649 1.363 . S
C2644 C2645 1.363 . S
C2644 C2649 1.379 . S
C2644 N2651 1.356 . S
C2645 C2644 1.363 . S
C2645 C2648 1.363 . S
N2646 C2648 1.356 . S
N2646 H2658 0.984 . S
N2646 H2659 0.985 . S
N2647 C2649 1.356 . S
N2647 H2652 0.984 . S
N2647 H2653 0.985 . S
C2648 C2642 1.379 . S
C2648 C2645 1.363 . S
C2648 N2646 1.356 . S
C2649 C2643 1.363 . S
C2649 C2644 1.379 . S
C2649 N2647 1.356 . S
N2650 C2642 1.356 . S
N2650 H2656 0.984 . S
N2650 H2657 0.984 . S
N2651 C2644 1.356 . S
N2651 H2654 0.984 . S
N2651 H2655 0.985 . S
H2652 N2647 0.984 . S
H2653 N2647 0.985 . S
H2654 N2651 0.984 . S
H2655 N2651 0.985 . S
H2656 N2650 0.984 . S
H2657 N2650 0.984 . S
H2658 N2646 0.984 . S
H2659 N2646 0.985 . S
C2660 C2661 1.363 . S
C2660 C2666 1.379 . S
C2660 N2668 1.356 . S
C2661 C2660 1.363 . S
C2661 C2667 1.363 . S
C2662 C2663 1.363 . S
C2662 C2667 1.379 . S
C2662 N2669 1.356 . S
C2663 C2662 1.363 . S
C2663 C2666 1.363 . S
N2664 C2666 1.356 . S
N2664 H2676 0.984 . S
N2664 H2677 0.985 . S
N2665 C2667 1.356 . S
N2665 H2670 0.984 . S
N2665 H2671 0.985 . S
C2666 C2660 1.379 . S
C2666 C2663 1.363 . S
C2666 N2664 1.356 . S
C2667 C2661 1.363 . S
C2667 C2662 1.379 . S
C2667 N2665 1.356 . S
N2668 C2660 1.356 . S
N2668 H2674 0.984 . S
N2668 H2675 0.984 . S
N2669 C2662 1.356 . S
N2669 H2672 0.984 . S
N2669 H2673 0.985 . S
H2670 N2665 0.984 . S
H2671 N2665 0.985 . S
H2672 N2669 0.984 . S
H2673 N2669 0.985 . S
H2674 N2668 0.984 . S
H2675 N2668 0.984 . S
H2676 N2664 0.984 . S
H2677 N2664 0.985 . S
C2678 C2679 1.363 . S
C2678 C2684 1.379 . S
C2678 N2686 1.356 . S
C2679 C2678 1.363 . S
C2679 C2685 1.363 . S
C2680 C2681 1.363 . S
C2680 C2685 1.379 . S
C2680 N2687 1.356 . S
C2681 C2680 1.363 . S
C2681 C2684 1.363 . S
N2682 C2684 1.356 . S
N2682 H2694 0.984 . S
N2682 H2695 0.985 . S
N2683 C2685 1.356 . S
N2683 H2688 0.984 . S
N2683 H2689 0.985 . S
C2684 C2678 1.379 . S
C2684 C2681 1.363 . S
C2684 N2682 1.356 . S
C2685 C2679 1.363 . S
C2685 C2680 1.379 . S
C2685 N2683 1.356 . S
N2686 C2678 1.356 . S
N2686 H2692 0.984 . S
N2686 H2693 0.984 . S
N2687 C2680 1.356 . S
N2687 H2690 0.984 . S
N2687 H2691 0.985 . S
H2688 N2683 0.984 . S
H2689 N2683 0.985 . S
H2690 N2687 0.984 . S
H2691 N2687 0.985 . S
H2692 N2686 0.984 . S
H2693 N2686 0.984 . S
H2694 N2682 0.984 . S
H2695 N2682 0.985 . S
C971 N428 1.735 . S
C969 C8 1.787 . S
C989 C455 1.154 . S
C987 C17 1.131 . S
C1005 C35 1.863 . S
C1007 C469 1.835 . S
C1025 N487 1.500 . S
C1023 C43 1.390 . S
C1041 C56 1.262 . S
C1043 C492 1.319 . S
C1059 C73 1.730 . S
C1061 C432 1.736 1_556 S
C1077 C87 1.486 . S
C1079 N451 1.445 . S
C1097 N464 1.644 . S
C1095 C100 1.679 . S
C1115 N510 1.649 . S
C1113 C9 1.632 . S
C1131 C22 1.465 . S
C1133 N533 1.427 . S
C1149 C34 1.784 . S
C1151 N556 1.746 . S
C1169 N589 1.527 . S
C1167 C47 1.556 . S
C1185 C61 1.444 . S
C1187 C616 1.422 . S
C1205 C639 1.613 . S
C1203 C69 1.571 . S
C1221 C82 1.263 . S
C1223 C662 1.335 . S
C1241 C676 1.818 . S
C1239 C99 1.841 . S
C1257 C4 1.688 . S
C1259 C593 1.814 . S
C1275 C60 1.533 . S
C1277 N635 1.518 . S
C1295 N658 1.625 . S
C1293 C74 1.695 . S
C1311 C86 1.428 . S
C1313 N671 1.343 . S
C1331 N612 1.700 . S
C1329 C95 1.784 . S
C1349 C538 1.504 1_565 S
C1347 C30 1.430 . S
C1365 C48 1.264 . S
C1367 C561 1.288 . S
C1385 C515 1.481 . S
C1383 C21 1.483 . S
C1403 C708 1.762 . S
C1401 C112 1.773 . S
C1419 C121 1.234 . S
C1421 C722 1.275 . S
C1437 C139 1.682 . S
C1439 N750 1.603 . S
C1457 N763 1.543 . S
C1455 C147 1.404 . S
C1473 C160 1.229 . S
C1475 C768 1.292 . S
C1491 C177 1.678 . S
C1493 N704 1.629 . S
C1509 C191 1.510 . S
C1511 N717 1.541 . S
C1527 C204 1.719 . S
C1529 C754 1.722 . S
C1547 N602 1.789 . S
C1545 C113 1.780 . S
C1563 C126 1.504 . S
C1565 N786 1.440 . S
C1583 N648 1.614 . S
C1581 C138 1.644 . S
C1599 C151 1.514 . S
C1601 C823 1.470 . S
C1617 C165 1.346 . S
C1619 C524 1.345 . S
C1637 C837 1.678 . S
C1635 C173 1.621 . S
C1653 C186 1.336 . S
C1655 C570 1.371 . S
C1673 N855 1.755 . S
C1671 C203 1.757 . S
C1689 C108 1.639 . S
C1691 N819 1.670 . S
C1709 N832 1.426 . S
C1707 C164 1.460 . S
C1725 C178 1.783 . S
C1727 N566 1.719 . S
C1745 C860 1.429 . S
C1743 C190 1.458 . S
C1761 C199 1.695 . S
C1763 N520 1.626 . S
C1779 C134 1.355 . S
C1781 C791 1.404 . S
C1797 C152 1.339 . S
C1799 C653 1.354 . S
C1815 C125 1.577 . S
C1817 C607 1.557 . S
C1833 C216 1.854 . S
C1835 C745 1.849 . S
C1853 C777 1.204 . S
C1851 C225 1.179 . S
C1869 C243 1.844 . S
C1871 N694 1.821 . S
C1887 C251 1.372 . S
C1889 N727 1.426 . S
C1905 C264 1.279 . S
C1907 C731 1.300 . S
C1923 C281 1.558 . S
C1925 N740 1.539 . S
C1943 N773 1.409 . S
C1941 C295 1.463 . S
C1959 C308 1.716 . S
C1961 C699 1.731 . S
C1979 N888 1.711 . S
C1977 C217 1.773 . S
C1995 C230 1.436 . S
C1997 N625 1.379 . S
C2015 N911 1.638 . S
C2013 C242 1.701 . S
C2031 C255 1.548 . S
C2033 N681 1.526 . S
C2049 C269 1.411 . S
C2051 C929 1.414 . S
C2067 C277 1.568 . S
C2069 C547 1.611 . S
C2087 N947 1.333 . S
C2085 C290 1.269 . S
C2103 C307 1.854 . S
C2105 C584 1.834 . S
C2123 C685 1.814 . S
C2121 C212 1.700 . S
C2141 N543 1.475 . S
C2139 C268 1.491 . S
C2157 C282 1.735 . S
C2159 C952 1.751 . S
C2175 C294 1.443 . S
C2177 N579 1.345 . S
C2195 N924 1.785 . S
C2193 C303 1.788 . S
C2213 C630 1.527 . S
C2211 C238 1.494 . S
C2231 C915 1.347 . S
C2229 C256 1.314 . S
C2249 C892 1.486 . S
C2247 C229 1.508 . S
C2265 C320 1.688 . S
C2267 N474 1.639 . S
C2283 C329 1.228 . S
C2285 C501 1.240 . S
C2303 C423 1.912 . S
C2301 C347 1.903 . S
C2321 N441 1.537 . S
C2319 C355 1.367 . S
C2339 C446 1.256 . S
C2337 C368 1.203 . S
C2357 C478 1.622 . S
C2355 C385 1.620 . S
C2375 N497 1.464 . S
C2373 C399 1.496 . S
C2391 C412 1.716 . S
C2393 N418 1.671 1_556 S
C2409 C321 1.673 . S
C2411 N934 1.624 . S
C2429 N842 1.454 . S
C2427 C334 1.488 . S
C2447 C961 1.713 . S
C2445 C342 1.695 . S
C2465 C869 1.406 . S
C2463 C359 1.456 . S
C2481 C373 1.449 . S
C2483 C883 1.447 . S
C2501 C800 1.552 . S
C2499 C381 1.513 . S
C2519 C906 1.425 . S
C2517 C394 1.362 . S
C2535 C411 1.801 . S
C2537 N809 1.787 . S
C2555 N865 1.605 . S
C2553 C316 1.579 . S
C2573 N796 1.504 . S
C2571 C372 1.522 . S
C2591 N901 1.727 . S
C2589 C386 1.749 . S
C2607 C398 1.395 . S
C2609 C814 1.385 . S
C2625 C407 1.751 . S
C2627 N878 1.758 . S
C2643 C346 1.707 . S
C2645 C846 1.699 . S
C2661 C360 1.278 . S
C2663 N957 1.254 . S
C2681 C938 1.532 . S
C2679 C333 1.567 . S
