# Generated by pormake.
# Topology pyr, (3,6)-cn, num edge types: 1
# Building blocks:
#     Node 0, Type 0, BuildingBlock: BETDIP_clean_linker_0, # of connection points: 3
#     Node 1, Type 0, BuildingBlock: BETDIP_clean_linker_0, # of connection points: 3
#     Node 2, Type 0, BuildingBlock: BETDIP_clean_linker_0, # of connection points: 3
#     Node 3, Type 0, BuildingBlock: BETDIP_clean_linker_0, # of connection points: 3
#     Node 4, Type 0, BuildingBlock: BETDIP_clean_linker_0, # of connection points: 3
#     Node 5, Type 0, BuildingBlock: BETDIP_clean_linker_0, # of connection points: 3
#     Node 6, Type 0, BuildingBlock: BETDIP_clean_linker_0, # of connection points: 3
#     Node 7, Type 0, BuildingBlock: BETDIP_clean_linker_0, # of connection points: 3
#     Node 8, Type 1, BuildingBlock: LEVNOQ01_clean_sbu_1, # of connection points: 6
#     Node 9, Type 1, BuildingBlock: LEVNOQ01_clean_sbu_1, # of connection points: 6
#     Node 10, Type 1, BuildingBlock: LEVNOQ01_clean_sbu_1, # of connection points: 6
#     Node 11, Type 1, BuildingBlock: LEVNOQ01_clean_sbu_1, # of connection points: 6
#     Edge 12, Type (0, 1), BuildingBlock: TEMPAE_clean_linker_10, # of connection points: 2
#     Edge 13, Type (0, 1), BuildingBlock: TEMPAE_clean_linker_10, # of connection points: 2
#     Edge 14, Type (0, 1), BuildingBlock: TEMPAE_clean_linker_10, # of connection points: 2
#     Edge 15, Type (0, 1), BuildingBlock: TEMPAE_clean_linker_10, # of connection points: 2
#     Edge 16, Type (0, 1), BuildingBlock: TEMPAE_clean_linker_10, # of connection points: 2
#     Edge 17, Type (0, 1), BuildingBlock: TEMPAE_clean_linker_10, # of connection points: 2
#     Edge 18, Type (0, 1), BuildingBlock: TEMPAE_clean_linker_10, # of connection points: 2
#     Edge 19, Type (0, 1), BuildingBlock: TEMPAE_clean_linker_10, # of connection points: 2
#     Edge 20, Type (0, 1), BuildingBlock: TEMPAE_clean_linker_10, # of connection points: 2
#     Edge 21, Type (0, 1), BuildingBlock: TEMPAE_clean_linker_10, # of connection points: 2
#     Edge 22, Type (0, 1), BuildingBlock: TEMPAE_clean_linker_10, # of connection points: 2
#     Edge 23, Type (0, 1), BuildingBlock: TEMPAE_clean_linker_10, # of connection points: 2
#     Edge 24, Type (0, 1), BuildingBlock: TEMPAE_clean_linker_10, # of connection points: 2
#     Edge 25, Type (0, 1), BuildingBlock: TEMPAE_clean_linker_10, # of connection points: 2
#     Edge 26, Type (0, 1), BuildingBlock: TEMPAE_clean_linker_10, # of connection points: 2
#     Edge 27, Type (0, 1), BuildingBlock: TEMPAE_clean_linker_10, # of connection points: 2
#     Edge 28, Type (0, 1), BuildingBlock: TEMPAE_clean_linker_10, # of connection points: 2
#     Edge 29, Type (0, 1), BuildingBlock: TEMPAE_clean_linker_10, # of connection points: 2
#     Edge 30, Type (0, 1), BuildingBlock: TEMPAE_clean_linker_10, # of connection points: 2
#     Edge 31, Type (0, 1), BuildingBlock: TEMPAE_clean_linker_10, # of connection points: 2
#     Edge 32, Type (0, 1), BuildingBlock: TEMPAE_clean_linker_10, # of connection points: 2
#     Edge 33, Type (0, 1), BuildingBlock: TEMPAE_clean_linker_10, # of connection points: 2
#     Edge 34, Type (0, 1), BuildingBlock: TEMPAE_clean_linker_10, # of connection points: 2
#     Edge 35, Type (0, 1), BuildingBlock: TEMPAE_clean_linker_10, # of connection points: 2
# Relax obj value: 0.082
# Max RMSD: 0.172
# Mean RMSD: 0.136
data_MOF--net-pry--node1-LEVNOQ01_clean_sbu_1--node2-BETDIP_clean_linker_0--edge1-TEMPAE_clean_linker_10
_symmetry_space_group_name_H-M    P1
_symmetry_Int_Tables_number       1
_symmetry_cell_setting            triclinic
loop_
_symmetry_equiv_pos_as_xyz
'x, y, z'
_cell_length_a     37.058557
_cell_length_b     35.351855
_cell_length_c     37.229099
_cell_angle_alpha  95.849551
_cell_angle_beta   86.888207
_cell_angle_gamma 101.383
loop_
_atom_site_label
_atom_site_type_symbol
_atom_site_fract_x
_atom_site_fract_y
_atom_site_fract_z
_atom_type_partial_charge
H0 H 0.10858 0.16027 0.18902 0.0
H1 H 0.18898 0.15922 0.10171 0.0
H2 H 0.19617 0.09627 0.19246 0.0
H3 H 0.16916 0.20906 0.08517 0.0
C4 C 0.14303 0.21215 0.09852 0.0
C5 C 0.13327 0.15103 0.17769 0.0
C6 C 0.15012 0.12613 0.19584 0.0
C7 C 0.14758 0.16441 0.14451 0.0
C8 C 0.17842 0.15088 0.12796 0.0
C9 C 0.19529 0.12523 0.14478 0.0
C10 C 0.18154 0.11402 0.17893 0.0
N11 N 0.12976 0.19098 0.12884 0.0
H12 H 0.35875 0.93472 0.67319 0.0
H13 H 0.36379 0.84884 0.58354 0.0
H14 H 0.4379 0.8603 0.6707 0.0
H15 H 0.3066 0.85296 0.57604 0.0
C16 C 0.30277 0.88179 0.58625 0.0
C17 C 0.37133 0.91175 0.65951 0.0
C18 C 0.40077 0.90063 0.67517 0.0
C19 C 0.35715 0.89274 0.62692 0.0
C20 C 0.37337 0.86273 0.60941 0.0
C21 C 0.4023 0.85036 0.62496 0.0
C22 C 0.41619 0.8699 0.65783 0.0
N23 N 0.32624 0.90411 0.61298 0.0
H24 H 0.66627 0.46462 0.88955 0.0
H25 H 0.59036 0.35932 0.85916 0.0
H26 H 0.68412 0.35728 0.92192 0.0
H27 H 0.55245 0.40705 0.84735 0.0
C28 C 0.57651 0.42032 0.83189 0.0
C29 C 0.6575 0.43358 0.89034 0.0
C30 C 0.67709 0.4131 0.90981 0.0
C31 C 0.62676 0.41412 0.87148 0.0
C32 C 0.61499 0.37392 0.87278 0.0
C33 C 0.63511 0.35273 0.89139 0.0
C34 C 0.66678 0.37281 0.90902 0.0
N35 N 0.61012 0.4352 0.84907 0.0
H36 H 0.83676 0.54713 0.41208 0.0
H37 H 0.94019 0.62478 0.40015 0.0
H38 H 0.87236 0.63784 0.49597 0.0
H39 H 0.95084 0.56851 0.35812 0.0
C40 C 0.92498 0.56885 0.34584 0.0
C41 C 0.85797 0.56992 0.42392 0.0
C42 C 0.85134 0.58974 0.45746 0.0
C43 C 0.89009 0.58178 0.40349 0.0
C44 C 0.91645 0.61354 0.41691 0.0
C45 C 0.91025 0.63368 0.4504 0.0
C46 C 0.87811 0.62106 0.47102 0.0
N47 N 0.89204 0.56569 0.36723 0.0
H48 H 0.8225 0.87359 0.93128 0.0
H49 H 0.89498 0.85842 0.83926 0.0
H50 H 0.82635 0.94406 0.84323 0.0
H51 H 0.9266 0.8341 0.87637 0.0
C52 C 0.9081 0.82192 0.89764 0.0
C53 C 0.83379 0.88184 0.90511 0.0
C54 C 0.82058 0.91044 0.88882 0.0
C55 C 0.86187 0.86415 0.88834 0.0
C56 C 0.87552 0.87399 0.85363 0.0
C57 C 0.86308 0.90288 0.83667 0.0
C58 C 0.83604 0.92139 0.85516 0.0
N59 N 0.87494 0.8361 0.90679 0.0
H60 H 0.64683 0.09183 0.36391 0.0
H61 H 0.64701 0.18459 0.44728 0.0
H62 H 0.57901 0.17706 0.35617 0.0
H63 H 0.71027 0.18043 0.44357 0.0
C64 C 0.70751 0.14924 0.44348 0.0
C65 C 0.63686 0.11777 0.37413 0.0
C66 C 0.61119 0.13174 0.35475 0.0
C67 C 0.65093 0.13752 0.40655 0.0
C68 C 0.63706 0.16999 0.42168 0.0
C69 C 0.61037 0.18378 0.40407 0.0
C70 C 0.59836 0.16518 0.37024 0.0
N71 N 0.67919 0.12423 0.4233 0.0
H72 H 0.33888 0.59351 0.14791 0.0
H73 H 0.42495 0.68881 0.18312 0.0
H74 H 0.34747 0.70526 0.10802 0.0
H75 H 0.45172 0.64114 0.19906 0.0
C76 C 0.42734 0.62348 0.21061 0.0
C77 C 0.3533 0.62313 0.14613 0.0
C78 C 0.33964 0.64748 0.12497 0.0
C79 C 0.38422 0.63748 0.16693 0.0
C80 C 0.40179 0.67648 0.16636 0.0
C81 C 0.38854 0.70056 0.14507 0.0
C82 C 0.35775 0.68613 0.12423 0.0
N83 N 0.39462 0.61333 0.19098 0.0
H84 H 0.04586 0.38774 0.61717 0.0
H85 H 0.15305 0.46166 0.61312 0.0
H86 H 0.13318 0.35278 0.5489 0.0
H87 H 0.13683 0.49139 0.66377 0.0
C88 C 0.11233 0.47278 0.67387 0.0
C89 C 0.07345 0.39447 0.60523 0.0
C90 C 0.08605 0.3675 0.57988 0.0
C91 C 0.09764 0.42811 0.61819 0.0
C92 C 0.13381 0.4359 0.60363 0.0
C93 C 0.1466 0.40894 0.5786 0.0
C94 C 0.1228 0.37458 0.56694 0.0
N95 N 0.08673 0.44992 0.64954 0.0
O96 O 0.01191 0.02501 0.61028 0.0
Mg97 Mg 0.05201 0.05209 0.57372 0.0
O98 O 0.97558 0.98752 0.56968 0.0
Mg99 Mg -0.00018 0.00423 0.51091 0.0
O100 O 0.02435 0.06552 0.53278 0.0
O101 O 0.05838 0.11067 0.56929 0.0
O102 O 0.02542 0.0226 0.45268 0.0
O103 O 0.94545 0.02914 0.50283 0.0
Mg104 Mg 0.95358 0.95832 0.44659 0.0
O105 O 0.97552 0.94157 0.48973 0.0
O106 O 0.99413 0.98329 0.41008 0.0
O107 O 0.91243 0.98987 0.46122 0.0
O108 O 0.94263 0.8998 0.44901 0.0
C109 C 0.08521 0.99032 0.53289 0.0
C110 C 0.98363 -0.00084 0.6027 0.0
C111 C 0.03627 0.10166 0.54284 0.0
C112 C 0.02009 0.0112 0.41913 0.0
C113 C 0.91669 0.0196 0.48373 0.0
C114 C 0.96177 0.90622 0.47772 0.0
O115 O 0.09279 0.02133 0.55353 0.0
O116 O 0.05379 0.9796 0.51846 0.0
O117 O 0.45996 0.07454 0.07173 0.0
Mg118 Mg 0.51208 0.08543 0.04489 0.0
O119 O 0.44506 0.02751 0.02927 0.0
Mg120 Mg 0.50707 0.02043 0.01302 0.0
O121 O 0.52249 0.08202 0.99017 0.0
O122 O 0.51242 0.13548 0.02411 0.0
O123 O 0.56947 0.01373 0.99533 0.0
O124 O 0.48771 0.00295 0.95135 0.0
Mg125 Mg 0.5138 0.93671 0.98626 0.0
O126 O 0.48964 0.95936 0.03139 0.0
O127 O 0.571 0.95115 0.98456 0.0
O128 O 0.48846 0.94054 0.93879 0.0
O129 O 0.48945 0.89592 0.01866 0.0
C130 C 0.54916 0.06268 0.09242 0.0
C131 C 0.4354 0.04976 0.05576 0.0
C132 C 0.52077 0.11857 0.99341 0.0
C133 C 0.58734 0.98618 0.9871 0.0
C134 C 0.48265 0.9721 0.92928 0.0
C135 C 0.48066 0.92405 0.04005 0.0
O136 O 0.55738 0.09335 0.0769 0.0
O137 O 0.5274 0.03382 0.07636 0.0
O138 O 0.51626 0.60013 0.56991 0.0
Mg139 Mg 0.49127 0.54361 0.57959 0.0
O140 O 0.48061 0.57422 0.5263 0.0
Mg141 Mg 0.49973 0.51123 0.51873 0.0
O142 O 0.52311 0.50322 0.57508 0.0
O143 O 0.50971 0.53659 0.62733 0.0
O144 O 0.51949 0.4484 0.51376 0.0
O145 O 0.5581 0.54216 0.50643 0.0
Mg146 Mg 0.5081 0.47829 0.46408 0.0
O147 O 0.47745 0.51891 0.46014 0.0
O148 O 0.48158 0.42106 0.47253 0.0
O149 O 0.56687 0.49561 0.46539 0.0
O150 O 0.49733 0.482 0.41337 0.0
C151 C 0.41997 0.49415 0.55704 0.0
C152 C 0.49521 0.60451 0.54607 0.0
C153 C 0.52662 0.51165 0.60964 0.0
C154 C 0.50387 0.41749 0.49559 0.0
C155 C 0.5796 0.52613 0.48511 0.0
C156 C 0.47909 0.50826 0.42561 0.0
O157 O 0.43307 0.5232 0.57855 0.0
O158 O 0.44091 0.48075 0.53286 0.0
O159 O 0.99161 0.4256 0.05411 0.0
Mg160 Mg 0.00949 0.48472 0.07131 0.0
O161 O 0.03121 0.45367 0.01545 0.0
Mg162 Mg 0.00833 0.51351 0.01197 0.0
O163 O 0.97762 0.52458 0.06824 0.0
O164 O 0.98333 0.496 0.11845 0.0
O165 O 0.98609 0.57612 0.01246 0.0
O166 O 0.95241 0.47657 0.99599 0.0
Mg167 Mg 0.00257 0.5396 0.96304 0.0
O168 O 0.03834 0.50302 0.95262 0.0
O169 O 0.02496 0.59951 0.97107 0.0
O170 O 0.94404 0.5253 0.96846 0.0
O171 O 0.0103 0.52722 0.91065 0.0
C172 C 0.08197 0.53643 0.05477 0.0
C173 C 0.01703 0.42309 0.03076 0.0
C174 C 0.96919 0.51959 0.10193 0.0
C175 C 0.0008 0.60499 0.995 0.0
C176 C 0.93089 0.49422 0.98219 0.0
C177 C 0.03452 0.50844 0.91906 0.0
O178 O 0.06679 0.50894 0.07324 0.0
O179 O 0.06407 0.54753 0.03089 0.0
C180 C 0.14093 0.07742 0.24315 0.0
C181 C 0.13489 0.11254 0.23196 0.0
C182 C 0.12644 0.06409 0.27635 0.0
C183 C 0.10349 0.08504 0.29859 0.0
C184 C 0.09733 0.1205 0.2879 0.0
C185 C 0.11373 0.1342 0.2554 0.0
C186 C 0.13468 0.02666 0.28699 0.0
C187 C 0.07208 0.14325 0.31003 0.0
C188 C 0.0293 0.0235 0.35397 0.0
C189 C 0.04231 0.03126 0.38931 0.0
C190 C 0.0486 0.04129 0.32476 0.0
C191 C 0.08242 0.06741 0.33041 0.0
C192 C 0.09591 0.07566 0.36595 0.0
C193 C 0.07554 0.05776 0.39506 0.0
C194 C 0.03261 0.03195 0.28767 0.0
C195 C 0.13217 0.1028 0.37306 0.0
H196 H 0.15624 0.05938 0.22569 0.0
H197 H 0.10943 0.1619 0.24843 0.0
H198 H 0.14234 0.02996 0.31571 0.0
H199 H 0.10972 0.00352 0.28413 0.0
H200 H 0.15737 0.01706 0.26998 0.0
H201 H 0.07121 0.17106 0.29895 0.0
H202 H 0.04373 0.12572 0.31073 0.0
H203 H 0.08101 0.14952 0.33832 0.0
H204 H 0.00351 0.0035 0.34894 0.0
H205 H 0.08589 0.06406 0.42213 0.0
H206 H 0.05125 0.01745 0.26917 0.0
H207 H 0.03011 0.05903 0.27617 0.0
H208 H 0.00503 0.01268 0.28813 0.0
H209 H 0.15465 0.09122 0.35749 0.0
H210 H 0.13861 0.10685 0.40216 0.0
H211 H 0.13178 0.1315 0.3637 0.0
C212 C 0.4443 0.94792 0.71531 0.0
C213 C 0.41276 0.91875 0.71139 0.0
C214 C 0.45586 0.96458 0.74986 0.0
C215 C 0.43575 0.95115 0.78114 0.0
C216 C 0.40315 0.92253 0.77697 0.0
C217 C 0.39198 0.9069 0.74218 0.0
C218 C 0.49032 0.99547 0.75292 0.0
C219 C 0.38107 0.90686 0.80933 0.0
C220 C 0.48554 0.94406 0.86558 0.0
C221 C 0.47358 0.97188 0.89068 0.0
C222 C 0.47489 0.93861 0.82966 0.0
C223 C 0.45161 0.9617 0.81784 0.0
C224 C 0.44121 0.99168 0.84223 0.0
C225 C 0.45235 -0.0035 0.87852 0.0
C226 C 0.48713 0.90652 0.80488 0.0
C227 C 0.41723 0.01762 0.83037 0.0
H228 H 0.46006 0.95742 0.69137 0.0
H229 H 0.36741 0.88455 0.739 0.0
H230 H 0.48563 0.01996 0.77256 0.0
H231 H 0.51281 0.98336 0.76312 0.0
H232 H 0.49963 0.00675 0.7265 0.0
H233 H 0.35496 0.88695 0.80161 0.0
H234 H 0.39765 0.89084 0.82398 0.0
H235 H 0.37444 0.93098 0.82835 0.0
H236 H 0.50284 0.92554 0.87428 0.0
H237 H 0.44333 0.01836 0.89753 0.0
H238 H 0.5003 0.91791 0.7797 0.0
H239 H 0.4628 0.88391 0.79712 0.0
H240 H 0.50693 0.89265 0.81769 0.0
H241 H 0.42746 0.02822 0.80394 0.0
H242 H 0.41613 0.04292 0.85043 0.0
H243 H 0.38881 0.00088 0.82675 0.0
C244 C 0.60334 0.42204 0.76944 0.0
C245 C 0.57392 0.42614 0.79386 0.0
C246 C 0.60219 0.42981 0.73343 0.0
C247 C 0.57152 0.44332 0.72238 0.0
C248 C 0.54138 0.44658 0.74692 0.0
C249 C 0.54268 0.4371 0.78233 0.0
C250 C 0.63411 0.42473 0.70761 0.0
C251 C 0.50856 0.46198 0.73639 0.0
C252 C 0.57258 0.51471 0.65521 0.0
C253 C 0.54892 0.49223 0.62989 0.0
C254 C 0.58457 0.49789 0.68353 0.0
C255 C 0.57184 0.45785 0.68654 0.0
C256 C 0.55209 0.43427 0.65821 0.0
C257 C 0.54081 0.45192 0.62983 0.0
C258 C 0.60637 0.52403 0.71269 0.0
C259 C 0.53892 0.39132 0.66012 0.0
H260 H 0.62726 0.41282 0.77857 0.0
H261 H 0.52011 0.44013 0.80152 0.0
H262 H 0.62393 0.40776 0.6822 0.0
H263 H 0.64917 0.45343 0.70035 0.0
H264 H 0.6538 0.40986 0.71939 0.0
H265 H 0.48717 0.46183 0.7585 0.0
H266 H 0.51764 0.49218 0.72918 0.0
H267 H 0.4959 0.44438 0.71228 0.0
H268 H 0.5791 0.54595 0.6546 0.0
H269 H 0.52257 0.43473 0.60991 0.0
H270 H 0.62758 0.51007 0.72284 0.0
H271 H 0.58746 0.53004 0.7358 0.0
H272 H 0.62014 0.55213 0.70287 0.0
H273 H 0.56006 0.37827 0.67166 0.0
H274 H 0.5319 0.37614 0.63305 0.0
H275 H 0.51383 0.38644 0.67803 0.0
C276 C 0.94666 0.54977 0.28406 0.0
C277 C 0.92351 0.56904 0.30658 0.0
C278 C 0.9455 0.549 0.24652 0.0
C279 C 0.92155 0.56945 0.23136 0.0
C280 C 0.89856 0.5897 0.25417 0.0
C281 C 0.89944 0.58877 0.29171 0.0
C282 C 0.96982 0.52601 0.22319 0.0
C283 C 0.87383 0.61298 0.23911 0.0
C284 C 0.96244 0.57896 0.13914 0.0
C285 C 0.94577 0.54265 0.12324 0.0
C286 C 0.95026 0.59243 0.17347 0.0
C287 C 0.92113 0.5686 0.19153 0.0
C288 C 0.89976 0.53608 0.17216 0.0
C289 C 0.91271 0.52315 0.13802 0.0
C290 C 0.97278 0.62824 0.19268 0.0
C291 C 0.86746 0.51075 0.18974 0.0
H292 H 0.9651 0.53454 0.29587 0.0
H293 H 0.88196 0.60423 0.30949 0.0
H294 H 0.95285 0.50416 0.20432 0.0
H295 H 0.98966 0.54556 0.20674 0.0
H296 H 0.98565 0.51065 0.2394 0.0
H297 H 0.85399 0.62237 0.25994 0.0
H298 H 0.89095 0.63921 0.22858 0.0
H299 H 0.85828 0.59615 0.21618 0.0
H300 H 0.988 0.59403 0.12734 0.0
H301 H 0.89977 0.49515 0.12524 0.0
H302 H 0.9939 0.61968 0.20855 0.0
H303 H 0.95528 0.64368 0.21167 0.0
H304 H 0.98723 0.64838 0.17316 0.0
H305 H 0.8777 0.48945 0.20448 0.0
H306 H 0.84818 0.49442 0.16921 0.0
H307 H 0.85217 0.52797 0.20941 0.0
C308 C 0.25713 0.13481 0.11144 0.0
C309 C 0.22747 0.10998 0.12703 0.0
C310 C 0.28868 0.12116 0.09709 0.0
C311 C 0.29067 0.08158 0.09798 0.0
C312 C 0.26013 0.05606 0.11229 0.0
C313 C 0.22909 0.07056 0.12675 0.0
C314 C 0.32058 0.14952 0.08233 0.0
C315 C 0.26071 0.01364 0.11348 0.0
C316 C 0.36876 0.04523 0.04129 0.0
C317 C 0.39628 0.05043 0.06677 0.0
C318 C 0.33373 0.05404 0.05114 0.0
C319 C 0.32599 0.06796 0.08733 0.0
C320 C 0.35308 0.07099 0.11343 0.0
C321 C 0.38776 0.06244 0.10281 0.0
C322 C 0.3057 0.05035 0.02246 0.0
C323 C 0.3461 0.08506 0.1524 0.0
H324 H 0.25626 0.1653 0.11164 0.0
H325 H 0.20606 0.051 0.13818 0.0
H326 H 0.34455 0.15277 0.09978 0.0
H327 H 0.32911 0.13846 0.05486 0.0
H328 H 0.31377 0.17856 0.081 0.0
H329 H 0.23351 -0.00311 0.12196 0.0
H330 H 0.26896 0.00083 0.08658 0.0
H331 H 0.28142 0.01041 0.1328 0.0
H332 H 0.37525 0.03644 0.01332 0.0
H333 H 0.40884 0.06644 0.12269 0.0
H334 H 0.30185 0.07963 0.01728 0.0
H335 H 0.27861 0.0342 0.03179 0.0
H336 H 0.31427 0.0354 0.99664 0.0
H337 H 0.34234 0.11558 0.15419 0.0
H338 H 0.3691 0.08348 0.16978 0.0
H339 H 0.3204 0.0676 0.16331 0.0
C340 C 0.24721 0.8719 0.54898 0.0
C341 C 0.27042 0.89544 0.57429 0.0
C342 C 0.21575 0.88343 0.53774 0.0
C343 C 0.20724 0.91931 0.55232 0.0
C344 C 0.23085 0.9434 0.57765 0.0
C345 C 0.26221 0.93122 0.58827 0.0
C346 C 0.19146 0.8571 0.51054 0.0
C347 C 0.2227 0.98183 0.59399 0.0
C348 C 0.1441 0.97272 0.50884 0.0
C349 C 0.112 0.96455 0.53051 0.0
C350 C 0.17461 0.95594 0.51391 0.0
C351 C 0.17318 0.93147 0.54206 0.0
C352 C 0.13999 0.92163 0.56272 0.0
C353 C 0.10971 0.9382 0.55653 0.0
C354 C 0.20916 0.96647 0.49078 0.0
C355 C 0.13736 0.89611 0.59328 0.0
H356 H 0.25357 0.84424 0.53809 0.0
H357 H 0.28004 0.94961 0.60779 0.0
H358 H 0.16351 0.84795 0.52276 0.0
H359 H 0.18839 0.87291 0.48697 0.0
H360 H 0.20259 0.83077 0.50082 0.0
H361 H 0.24392 -0.00276 0.61311 0.0
H362 H 0.22115 0.00077 0.57235 0.0
H363 H 0.19552 0.97725 0.60863 0.0
H364 H 0.14601 0.9938 0.48926 0.0
H365 H 0.0851 0.93277 0.57386 0.0
H366 H 0.22035 0.94021 0.4811 0.0
H367 H 0.23053 0.9862 0.50711 0.0
H368 H 0.2042 0.98118 0.46704 0.0
H369 H 0.14755 0.86914 0.58412 0.0
H370 H 0.10871 0.88821 0.60435 0.0
H371 H 0.15505 0.91155 0.61541 0.0
C372 C 0.73872 0.45591 0.91166 0.0
C373 C 0.70976 0.43286 0.92962 0.0
C374 C 0.7728 0.46823 0.92767 0.0
C375 C 0.77754 0.45736 0.96246 0.0
C376 C 0.74732 0.43721 0.98202 0.0
C377 C 0.71367 0.42487 0.96516 0.0
C378 C 0.80445 0.49022 0.90621 0.0
C379 C 0.75108 0.42644 0.01965 0.0
C380 C 0.87482 0.44407 0.97073 0.0
C381 C 0.89109 0.48135 0.98444 0.0
C382 C 0.83678 0.43472 0.96591 0.0
C383 C 0.81509 0.46323 0.97596 0.0
C384 C 0.83113 0.49947 0.99353 0.0
C385 C 0.86926 0.50839 0.99696 0.0
C386 C 0.82043 0.39573 0.94702 0.0
C387 C 0.80868 0.52996 0.00598 0.0
H388 H 0.73548 0.46204 0.88419 0.0
H389 H 0.69081 0.40751 0.97913 0.0
H390 H 0.81785 0.51687 0.92241 0.0
H391 H 0.82552 0.47199 0.89949 0.0
H392 H 0.79547 0.49859 0.88065 0.0
H393 H 0.72382 0.41823 0.03366 0.0
H394 H 0.7652 0.40139 0.01809 0.0
H395 H 0.76801 0.45075 0.03616 0.0
H396 H 0.89208 0.42336 0.96129 0.0
H397 H 0.88224 0.53708 0.00819 0.0
H398 H 0.81227 0.39966 0.91959 0.0
H399 H 0.79527 0.38212 0.9619 0.0
H400 H 0.84018 0.37561 0.9443 0.0
H401 H 0.80411 0.54534 0.98261 0.0
H402 H 0.82306 0.55173 0.02673 0.0
H403 H 0.78131 0.51673 0.01728 0.0
C404 C 0.79395 0.54461 0.47528 0.0
C405 C 0.81361 0.5826 0.47376 0.0
C406 C 0.75579 0.53728 0.48213 0.0
C407 C 0.73706 0.56875 0.48747 0.0
C408 C 0.75716 0.60724 0.48876 0.0
C409 C 0.7953 0.61372 0.48188 0.0
C410 C 0.73521 0.49582 0.48102 0.0
C411 C 0.73812 0.64152 0.4943 0.0
C412 C 0.64014 0.54452 0.45353 0.0
C413 C 0.61934 0.54064 0.48582 0.0
C414 C 0.67854 0.55556 0.4539 0.0
C415 C 0.69633 0.56117 0.48732 0.0
C416 C 0.67525 0.55766 0.52006 0.0
C417 C 0.63677 0.54802 0.51893 0.0
C418 C 0.70009 0.56029 0.41849 0.0
C419 C 0.69333 0.56241 0.55604 0.0
H420 H 0.80815 0.52056 0.46919 0.0
H421 H 0.81027 0.64314 0.4802 0.0
H422 H 0.71548 0.49191 0.50447 0.0
H423 H 0.71903 0.48856 0.45619 0.0
H424 H 0.7541 0.47501 0.48106 0.0
H425 H 0.75793 0.66926 0.49991 0.0
H426 H 0.72332 0.64327 0.46958 0.0
H427 H 0.7174 0.63815 0.51696 0.0
H428 H 0.62631 0.53887 0.42805 0.0
H429 H 0.62037 0.54446 0.54383 0.0
H430 H 0.71722 0.53772 0.4135 0.0
H431 H 0.71903 0.5889 0.41962 0.0
H432 H 0.68189 0.55792 0.39529 0.0
H433 H 0.70913 0.53899 0.55722 0.0
H434 H 0.67294 0.56126 0.57911 0.0
H435 H 0.71319 0.59035 0.55925 0.0
C436 C 0.08994 0.2481 0.10225 0.0
C437 C 0.12337 0.2412 0.08593 0.0
C438 C 0.07242 0.27659 0.0908 0.0
C439 C 0.0886 0.2988 0.0623 0.0
C440 C 0.122 0.29137 0.04536 0.0
C441 C 0.1389 0.26279 0.05736 0.0
C442 C 0.03695 0.28352 0.10978 0.0
C443 C 0.14028 0.31415 0.01492 0.0
C444 C 0.02788 0.35497 0.0168 0.0
C445 C 0.0385 0.39243 0.03385 0.0
C446 C 0.04467 0.3244 0.02492 0.0
C447 C 0.07181 0.33123 0.0516 0.0
C448 C 0.08266 0.36925 0.06861 0.0
C449 C 0.0661 0.39931 0.05933 0.0
C450 C 0.03276 0.28461 0.00559 0.0
C451 C 0.11084 0.37797 0.09763 0.0
H452 H 0.07761 0.23155 0.12426 0.0
H453 H 0.16468 0.25759 0.04457 0.0
H454 H 0.04102 0.31345 0.12325 0.0
H455 H 0.01517 0.28085 0.08987 0.0
H456 H 0.02709 0.26286 0.13039 0.0
H457 H 0.165 0.30343 0.00316 0.0
H458 H 0.12055 0.31259 0.99319 0.0
H459 H 0.14874 0.34513 0.02492 0.0
H460 H 0.00597 0.34943 0.9977 0.0
H461 H 0.07361 0.42807 0.07326 0.0
H462 H 0.01941 0.26411 0.0252 0.0
H463 H 0.05713 0.27365 0.9933 0.0
H464 H 0.01314 0.28451 0.98404 0.0
H465 H 0.10081 0.36063 0.12066 0.0
H466 H 0.11669 0.40913 0.10785 0.0
H467 H 0.13698 0.36958 0.08706 0.0
C468 C 0.60069 0.28662 0.86757 0.0
C469 C 0.6223 0.31036 0.89421 0.0
C470 C 0.58364 0.24848 0.87329 0.0
C471 C 0.58961 0.2334 0.90569 0.0
C472 C 0.61483 0.25548 0.93054 0.0
C473 C 0.62988 0.29391 0.92509 0.0
C474 C 0.55694 0.22573 0.84615 0.0
C475 C 0.62315 0.23997 0.96493 0.0
C476 C 0.51773 0.17673 0.96329 0.0
C477 C 0.53106 0.14234 0.96303 0.0
C478 C 0.53397 0.20519 0.94095 0.0
C479 C 0.5644 0.19898 0.91803 0.0
C480 C 0.57491 0.16235 0.91436 0.0
C481 C 0.55794 0.13416 0.93708 0.0
C482 C 0.52152 0.24367 0.9454 0.0
C483 C 0.60671 0.15443 0.88965 0.0
H484 H 0.59574 0.2981 0.84281 0.0
H485 H 0.64583 0.31142 0.94643 0.0
H486 H 0.55805 0.19444 0.84382 0.0
H487 H 0.52852 0.22865 0.85526 0.0
H488 H 0.56243 0.23661 0.81904 0.0
H489 H 0.64783 0.25804 0.97797 0.0
H490 H 0.5993 0.23957 0.98434 0.0
H491 H 0.62785 0.20987 0.95944 0.0
H492 H 0.49627 0.18259 0.98283 0.0
H493 H 0.56793 0.10728 0.93662 0.0
H494 H 0.52005 0.25468 0.91878 0.0
H495 H 0.54175 0.26527 0.96148 0.0
H496 H 0.49415 0.24163 0.9596 0.0
H497 H 0.60816 0.16943 0.86471 0.0
H498 H 0.60458 0.12286 0.88209 0.0
H499 H 0.63285 0.16535 0.90381 0.0
C500 C 0.94875 0.68348 0.49252 0.0
C501 C 0.93172 0.67296 0.45934 0.0
C502 C 0.96354 0.72253 0.50321 0.0
C503 C 0.95961 0.7514 0.48079 0.0
C504 C 0.94394 0.74045 0.44647 0.0
C505 C 0.93063 0.7013 0.43604 0.0
C506 C 0.98146 0.73298 0.53921 0.0
C507 C 0.93854 0.77017 0.42179 0.0
C508 C 0.93838 0.84909 0.51019 0.0
C509 C 0.96847 0.87265 0.49429 0.0
C510 C 0.93725 0.80931 0.51059 0.0
C511 C 0.96689 0.79309 0.49431 0.0
C512 C -0.0005 0.81782 0.48298 0.0
C513 C -0.00015 0.85761 0.48298 0.0
C514 C 0.90202 0.78414 0.5233 0.0
C515 C 0.03201 0.80182 0.46628 0.0
H516 H 0.94953 0.66135 0.51044 0.0
H517 H 0.91699 0.69303 0.41057 0.0
H518 H 0.0062 0.75629 0.53723 0.0
H519 H 0.96187 0.74398 0.55928 0.0
H520 H 0.98959 0.70753 0.54943 0.0
H521 H 0.92739 0.75663 0.39541 0.0
H522 H 0.91909 0.78794 0.43496 0.0
H523 H 0.96501 0.79006 0.41659 0.0
H524 H 0.91403 0.86091 0.51856 0.0
H525 H 0.02296 0.87596 0.47029 0.0
H526 H 0.9079 0.76083 0.53853 0.0
H527 H 0.88606 0.77017 0.49948 0.0
H528 H 0.88458 0.80126 0.54076 0.0
H529 H 0.03588 0.77629 0.47959 0.0
H530 H 0.05775 0.82412 0.46798 0.0
H531 H 0.02712 0.79238 0.43731 0.0
C532 C 0.3911 0.78296 0.59335 0.0
C533 C 0.41609 0.81555 0.6077 0.0
C534 C 0.40302 0.74929 0.57817 0.0
C535 C 0.44095 0.74782 0.57736 0.0
C536 C 0.46649 0.781 0.59073 0.0
C537 C 0.45377 0.81437 0.60584 0.0
C538 C 0.37472 0.71457 0.56474 0.0
C539 C 0.50718 0.78073 0.59033 0.0
C540 C 0.46717 0.65105 0.58687 0.0
C541 C 0.47859 0.63957 0.55158 0.0
C542 C 0.45432 0.68566 0.59521 0.0
C543 C 0.45314 0.71006 0.56764 0.0
C544 C 0.4637 0.69824 0.53158 0.0
C545 C 0.4761 0.66281 0.52386 0.0
C546 C 0.4426 0.69638 0.63383 0.0
C547 C 0.46282 0.7235 0.50148 0.0
H548 H 0.36186 0.78322 0.59507 0.0
H549 H 0.47334 0.8395 0.61637 0.0
H550 H 0.38321 0.70246 0.53765 0.0
H551 H 0.37255 0.69152 0.58331 0.0
H552 H 0.34704 0.72181 0.56313 0.0
H553 H 0.5238 0.80992 0.59804 0.0
H554 H 0.51244 0.76057 0.60954 0.0
H555 H 0.51674 0.77011 0.56309 0.0
H556 H 0.46861 0.63284 0.60831 0.0
H557 H 0.48498 0.654 0.4966 0.0
H558 H 0.41397 0.70155 0.63505 0.0
H559 H 0.46058 0.72367 0.64457 0.0
H560 H 0.44398 0.67349 0.65179 0.0
H561 H 0.43515 0.73085 0.50061 0.0
H562 H 0.4698 0.70932 0.47469 0.0
H563 H 0.48277 0.75116 0.50663 0.0
C564 C 0.91449 0.91108 0.78841 0.0
C565 C 0.87808 0.91352 0.79973 0.0
C566 C 0.92901 0.92151 0.75425 0.0
C567 C 0.90724 0.93616 0.7309 0.0
C568 C 0.87048 0.93851 0.74184 0.0
C569 C 0.85622 0.92659 0.77563 0.0
C570 C 0.96816 0.91785 0.7436 0.0
C571 C 0.8465 0.95483 0.71832 0.0
C572 C 0.9612 0.00606 0.66701 0.0
C573 C 0.96049 0.98317 0.63379 0.0
C574 C 0.9432 0.99139 0.69826 0.0
C575 C 0.92411 0.95246 0.69678 0.0
C576 C 0.92239 0.9293 0.66315 0.0
C577 C 0.94036 0.94502 0.63194 0.0
C578 C 0.94537 0.01751 0.73315 0.0
C579 C 0.90277 0.88752 0.66045 0.0
H580 H 0.93224 0.90185 0.80653 0.0
H581 H 0.82779 0.92776 0.78309 0.0
H582 H 0.96946 0.90284 0.71603 0.0
H583 H 0.98569 0.94712 0.74307 0.0
H584 H 0.97993 0.90166 0.76262 0.0
H585 H 0.81809 0.95348 0.72999 0.0
H586 H 0.85886 0.98554 0.71478 0.0
H587 H 0.84497 0.9388 0.69107 0.0
H588 H 0.97637 0.03569 0.66875 0.0
H589 H 0.93987 0.92702 0.60653 0.0
H590 H 0.9608 0.00622 0.75304 0.0
H591 H 0.91732 0.01793 0.74503 0.0
H592 H 0.95929 0.04775 0.7293 0.0
H593 H 0.91684 0.8708 0.67701 0.0
H594 H 0.90213 0.87395 0.63217 0.0
H595 H 0.87408 0.88522 0.67146 0.0
C596 C 0.62236 0.0927 0.29531 0.0
C597 C 0.5991 0.11255 0.318 0.0
C598 C 0.61263 0.07699 0.26006 0.0
C599 C 0.57956 0.08261 0.24598 0.0
C600 C 0.55525 0.10124 0.2689 0.0
C601 C 0.56491 0.11517 0.30464 0.0
C602 C 0.6389 0.05618 0.23719 0.0
C603 C 0.51998 0.10864 0.25503 0.0
C604 C 0.5826 0.09796 0.14614 0.0
C605 C 0.55983 0.06416 0.13083 0.0
C606 C 0.58916 0.10389 0.18322 0.0
C607 C 0.57344 0.07494 0.20611 0.0
C608 C 0.55182 0.03982 0.19079 0.0
C609 C 0.54498 0.03495 0.15336 0.0
C610 C 0.61205 0.14199 0.19807 0.0
C611 C 0.53544 0.00773 0.21402 0.0
H612 H 0.64909 0.09051 0.30428 0.0
H613 H 0.54573 0.12892 0.32174 0.0
H614 H 0.62366 0.02997 0.22166 0.0
H615 H 0.6541 0.07553 0.21747 0.0
H616 H 0.65931 0.04739 0.25382 0.0
H617 H 0.50247 0.12032 0.2769 0.0
H618 H 0.52667 0.12984 0.23447 0.0
H619 H 0.50387 0.0816 0.24164 0.0
H620 H 0.5945 0.12077 0.12923 0.0
H621 H 0.52734 0.00877 0.14198 0.0
H622 H 0.63651 0.13681 0.21128 0.0
H623 H 0.59568 0.1567 0.21892 0.0
H624 H 0.62167 0.16188 0.17678 0.0
H625 H 0.55732 -1e-05 0.22943 0.0
H626 H 0.52135 0.98135 0.1978 0.0
H627 H 0.51522 0.01768 0.23401 0.0
C628 C 0.39689 0.59043 0.26367 0.0
C629 C 0.42779 0.61313 0.24778 0.0
C630 C 0.39853 0.5783 0.29808 0.0
C631 C 0.43191 0.58888 0.31652 0.0
C632 C 0.46207 0.6145 0.30181 0.0
C633 C 0.45963 0.62624 0.26743 0.0
C634 C 0.36567 0.55143 0.31319 0.0
C635 C 0.49814 0.62652 0.32072 0.0
C636 C 0.44667 0.55984 0.40914 0.0
C637 C 0.46181 0.52678 0.39925 0.0
C638 C 0.43463 0.57961 0.38259 0.0
C639 C 0.43856 0.5661 0.34572 0.0
C640 C 0.45205 0.53165 0.33593 0.0
C641 C 0.46308 0.51226 0.36282 0.0
C642 C 0.41929 0.61568 0.39383 0.0
C643 C 0.45689 0.51626 0.29686 0.0
H644 H 0.37186 0.58088 0.2488 0.0
H645 H 0.4832 0.64449 0.25531 0.0
H646 H 0.3701 0.52115 0.30856 0.0
H647 H 0.3621 0.55832 0.34276 0.0
H648 H 0.3399 0.55302 0.30001 0.0
H649 H 0.51641 0.65129 0.30881 0.0
H650 H 0.49339 0.63472 0.34989 0.0
H651 H 0.51267 0.60172 0.31839 0.0
H652 H 0.44532 0.57092 0.43733 0.0
H653 H 0.47412 0.48632 0.35492 0.0
H654 H 0.39422 0.61552 0.37875 0.0
H655 H 0.4399 0.64157 0.38728 0.0
H656 H 0.41238 0.6186 0.42327 0.0
H657 H 0.43043 0.51168 0.283 0.0
H658 H 0.46686 0.48842 0.2941 0.0
H659 H 0.47704 0.53769 0.28255 0.0
C660 C 0.07688 0.44637 0.72763 0.0
C661 C 0.10985 0.46563 0.71227 0.0
C662 C 0.07304 0.44382 0.76495 0.0
C663 C 0.10297 0.46086 0.78708 0.0
C664 C 0.13777 0.47513 0.77099 0.0
C665 C 0.14064 0.47824 0.73367 0.0
C666 C 0.03576 0.42691 0.78098 0.0
C667 C 0.17098 0.4905 0.7936 0.0
C668 C 0.0689 0.52358 0.86297 0.0
C669 C 0.06001 0.49812 0.88989 0.0
C670 C 0.08538 0.51255 0.83024 0.0
C671 C 0.09452 0.47531 0.82468 0.0
C672 C 0.08975 0.45112 0.85345 0.0
C673 C 0.07198 0.46272 0.88598 0.0
C674 C 0.08968 0.53965 0.80061 0.0
C675 C 0.10118 0.41225 0.84953 0.0
H676 H 0.05333 0.43544 0.71091 0.0
H677 H 0.16663 0.49169 0.72145 0.0
H678 H 0.03863 0.40615 0.80055 0.0
H679 H 0.02346 0.45042 0.79582 0.0
H680 H 0.01647 0.41164 0.76001 0.0
H681 H 0.197 0.49017 0.77737 0.0
H682 H 0.17072 0.52087 0.8044 0.0
H683 H 0.1706 0.47317 0.81692 0.0
H684 H 0.06073 0.5516 0.86667 0.0
H685 H 0.06568 0.44333 0.90719 0.0
H686 H 0.07349 0.52543 0.77703 0.0
H687 H 0.11893 0.54698 0.79138 0.0
H688 H 0.08028 0.56718 0.80955 0.0
H689 H 0.07654 0.38905 0.84469 0.0
H690 H 0.11311 0.40721 0.87496 0.0
H691 H 0.12161 0.40969 0.82693 0.0
C692 C 0.79189 0.96819 0.91046 0.0
C693 C 0.78961 0.92786 0.90626 0.0
C694 C 0.76212 0.98463 0.92557 0.0
C695 C 0.7289 0.96018 0.936 0.0
C696 C 0.72662 0.91944 0.932 0.0
C697 C 0.75704 0.90386 0.91756 0.0
C698 C 0.76608 0.02813 0.93002 0.0
C699 C 0.69163 0.89211 0.94204 0.0
C700 C 0.65345 0.99081 -0.00024 0.0
C701 C 0.62665 0.99327 0.97544 0.0
C702 C 0.68814 0.98308 0.98732 0.0
C703 C 0.69581 0.97665 0.94967 0.0
C704 C 0.66957 0.98162 0.92509 0.0
C705 C 0.63541 0.98993 0.93829 0.0
C706 C 0.71541 0.97877 0.01455 0.0
C707 C 0.67614 0.97466 0.88478 0.0
H708 H 0.81708 0.9869 0.90202 0.0
H709 H 0.75496 0.87269 0.91405 0.0
H710 H 0.74681 0.03706 0.91225 0.0
H711 H 0.75867 0.03794 0.95824 0.0
H712 H 0.79451 0.04318 0.92325 0.0
H713 H 0.69449 0.86126 0.93785 0.0
H714 H 0.68362 0.89877 0.97078 0.0
H715 H 0.66884 0.89605 0.92552 0.0
H716 H 0.64637 0.99222 0.02845 0.0
H717 H 0.61429 0.99062 0.91943 0.0
H718 H 0.74357 0.9936 0.00673 0.0
H719 H 0.71601 0.94761 0.0153 0.0
H720 H 0.70809 0.99072 0.04215 0.0
H721 H 0.70368 0.99057 0.87643 0.0
H722 H 0.65496 0.98367 0.86931 0.0
H723 H 0.67556 0.94333 0.87736 0.0
C724 C 0.77312 0.15792 0.46018 0.0
C725 C 0.73817 0.13411 0.45728 0.0
C726 C 0.80356 0.14334 0.46983 0.0
C727 C 0.79865 0.10426 0.47777 0.0
C728 C 0.7628 0.08094 0.47734 0.0
C729 C 0.73307 0.09595 0.46654 0.0
C730 C 0.84132 0.16894 0.46896 0.0
C731 C 0.75615 0.03944 0.48645 0.0
C732 C 0.87365 0.04723 0.45045 0.0
C733 C 0.88926 0.04494 0.48348 0.0
C734 C 0.84522 0.06756 0.44832 0.0
C735 C 0.83133 0.08585 0.48018 0.0
C736 C 0.84777 0.08497 0.51362 0.0
C737 C 0.87694 0.06472 0.51486 0.0
C738 C 0.8294 0.06849 0.41189 0.0
C739 C 0.83361 0.10399 0.54819 0.0
H740 H 0.77704 0.18752 0.45314 0.0
H741 H 0.70593 0.07766 0.46493 0.0
H742 H 0.85637 0.16702 0.49345 0.0
H743 H 0.85761 0.1589 0.44526 0.0
H744 H 0.83995 0.19976 0.46695 0.0
H745 H 0.72634 0.02717 0.49022 0.0
H746 H 0.76769 0.02143 0.46428 0.0
H747 H 0.77033 0.03731 0.51145 0.0
H748 H 0.88356 0.03261 0.42594 0.0
H749 H 0.88898 0.06306 0.5404 0.0
H750 H 0.82931 0.09881 0.40665 0.0
H751 H 0.80043 0.05258 0.41164 0.0
H752 H 0.84511 0.05518 0.38944 0.0
H753 H 0.83135 0.13422 0.54477 0.0
H754 H 0.85163 0.10422 0.57114 0.0
H755 H 0.80557 0.0881 0.55507 0.0
C756 C 0.27679 0.65609 0.11246 0.0
C757 C 0.30432 0.63385 0.10696 0.0
C758 C 0.24154 0.64194 0.09944 0.0
C759 C 0.23383 0.60477 0.08031 0.0
C760 C 0.26211 0.58311 0.0728 0.0
C761 C 0.2971 0.59783 0.08656 0.0
C762 C 0.21194 0.66564 0.10842 0.0
C763 C 0.2549 0.54359 0.05196 0.0
C764 C 0.13685 0.54902 0.09263 0.0
C765 C 0.1207 0.55459 0.06091 0.0
C766 C 0.17378 0.56495 0.09897 0.0
C767 C 0.1952 0.58662 0.07271 0.0
C768 C 0.17926 0.59208 0.04041 0.0
C769 C 0.14194 0.57619 0.03498 0.0
C770 C 0.18972 0.55894 0.13401 0.0
C771 C 0.20161 0.61459 0.01171 0.0
H772 H 0.28226 0.68378 0.12861 0.0
H773 H 0.31859 0.58086 0.08204 0.0
H774 H 0.19679 0.66739 0.08396 0.0
H775 H 0.19171 0.65134 0.1283 0.0
H776 H 0.22336 0.69554 0.12008 0.0
H777 H 0.28078 0.53301 0.04413 0.0
H778 H 0.23735 0.52249 0.06879 0.0
H779 H 0.23975 0.54426 0.0272 0.0
H780 H 0.1205 0.53241 0.11279 0.0
H781 H 0.12957 0.58018 0.01025 0.0
H782 H 0.19998 0.58738 0.14919 0.0
H783 H 0.21351 0.54424 0.12836 0.0
H784 H 0.16923 0.54127 0.15154 0.0
H785 H 0.21182 0.64492 0.02282 0.0
H786 H 0.18542 0.61495 0.98753 0.0
H787 H 0.22611 0.6018 0.0032 0.0
C788 C 0.20795 0.39255 0.58397 0.0
C789 C 0.18622 0.41486 0.56925 0.0
C790 C 0.24648 0.40222 0.58109 0.0
C791 C 0.26331 0.43458 0.56258 0.0
C792 C 0.24126 0.45609 0.5463 0.0
C793 C 0.20284 0.44622 0.55025 0.0
C794 C 0.26909 0.37918 0.59948 0.0
C795 C 0.25825 0.49055 0.52607 0.0
C796 C 0.35803 0.49011 0.58784 0.0
C797 C 0.38029 0.47693 0.55951 0.0
C798 C 0.32002 0.47576 0.58964 0.0
C799 C 0.30386 0.44771 0.56233 0.0
C800 C 0.32622 0.4336 0.53411 0.0
C801 C 0.36427 0.44831 0.53308 0.0
C802 C 0.29706 0.49125 0.62039 0.0
C803 C 0.3098 0.40374 0.50454 0.0
H804 H 0.19478 0.3688 0.59935 0.0
H805 H 0.18574 0.46362 0.53939 0.0
H806 H 0.29015 0.36959 0.58028 0.0
H807 H 0.28395 0.39778 0.62197 0.0
H808 H 0.25183 0.35331 0.6106 0.0
H809 H 0.23732 0.50209 0.51247 0.0
H810 H 0.27295 0.51402 0.5451 0.0
H811 H 0.27884 0.48247 0.50543 0.0
H812 H 0.37022 0.51204 0.60851 0.0
H813 H 0.38131 0.43795 0.51113 0.0
H814 H 0.28075 0.467 0.63453 0.0
H815 H 0.27726 0.50669 0.60964 0.0
H816 H 0.31416 0.51157 0.64039 0.0
H817 H 0.294 0.37764 0.5164 0.0
H818 H 0.33111 0.39484 0.48514 0.0
H819 H 0.29018 0.41561 0.48948 0.0
C820 C 0.90043 0.77753 0.94815 0.0
C821 C 0.9193 0.79126 0.91689 0.0
C822 C 0.91176 0.74847 0.96575 0.0
C823 C 0.94226 0.73229 0.95146 0.0
C824 C 0.96137 0.74632 0.91998 0.0
C825 C 0.94985 0.77571 0.90338 0.0
C826 C 0.89101 0.73492 -0.00046 0.0
C827 C 0.99361 0.72971 0.90326 0.0
C828 C 0.99654 0.67542 0.00352 0.0
C829 C 0.9813 0.6371 0.99133 0.0
C830 C 0.98239 0.70668 0.99284 0.0
C831 C 0.95341 0.69951 0.96809 0.0
C832 C 0.93741 0.66066 0.95651 0.0
C833 C 0.95127 0.63004 0.96859 0.0
C834 C -0.00033 0.74747 0.00668 0.0
C835 C 0.90739 0.65138 0.92932 0.0
H836 H 0.87694 0.78955 0.95898 0.0
H837 H 0.96458 0.78623 0.87927 0.0
H838 H 0.87739 0.70407 0.99453 0.0
H839 H 0.91043 0.73679 0.02162 0.0
H840 H 0.86969 0.75221 0.00875 0.0
H841 H 0.00573 0.74403 0.87899 0.0
H842 H 0.01542 0.73291 0.92321 0.0
H843 H 0.98464 0.69826 0.89537 0.0
H844 H 0.02027 0.68099 0.02044 0.0
H845 H 0.94014 0.60048 0.95824 0.0
H846 H 0.97804 0.76438 0.01573 0.0
H847 H 0.01623 0.76219 0.98459 0.0
H848 H 0.01794 0.74803 0.02949 0.0
H849 H 0.88444 0.66641 0.93834 0.0
H850 H 0.89622 0.61978 0.92482 0.0
H851 H 0.91848 0.662 0.90311 0.0
C852 C 0.39295 0.76962 0.16774 0.0
C853 C 0.40632 0.74126 0.14481 0.0
C854 C 0.40528 0.80899 0.16315 0.0
C855 C 0.43071 0.81952 0.13449 0.0
C856 C 0.44651 0.79077 0.11333 0.0
C857 C 0.43401 0.75179 0.11887 0.0
C858 C 0.38888 0.83878 0.18705 0.0
C859 C 0.474 0.80066 0.08258 0.0
C860 C 0.4252 0.89156 0.07016 0.0
C861 C 0.46041 0.91429 0.07346 0.0
C862 C 0.41237 0.86327 0.09383 0.0
C863 C 0.4355 0.85837 0.12139 0.0
C864 C 0.46808 0.88602 0.12861 0.0
C865 C 0.48046 0.91381 0.10411 0.0
C866 C 0.37723 0.83458 0.08528 0.0
C867 C 0.49254 0.88276 0.15875 0.0
H868 H 0.37162 0.76093 0.18802 0.0
H869 H 0.44424 0.72938 0.1015 0.0
H870 H 0.40903 0.8664 0.19154 0.0
H871 H 0.36479 0.84493 0.1739 0.0
H872 H 0.37925 0.82808 0.21363 0.0
H873 H 0.48565 0.77527 0.07087 0.0
H874 H 0.46039 0.81128 0.06083 0.0
H875 H 0.49702 0.82408 0.0919 0.0
H876 H 0.40998 0.89213 0.04618 0.0
H877 H 0.50783 0.93155 0.10642 0.0
H878 H 0.36067 0.8277 0.11028 0.0
H879 H 0.38416 0.80717 0.07209 0.0
H880 H 0.36006 0.84563 0.06674 0.0
H881 H 0.47604 0.87162 0.18255 0.0
H882 H 0.51017 0.91121 0.1671 0.0
H883 H 0.51088 0.8622 0.14931 0.0
C884 C 0.07061 0.2984 0.58979 0.0
C885 C 0.06346 0.32882 0.57194 0.0
C886 C 0.05436 0.2601 0.57902 0.0
C887 C 0.03048 0.25225 0.5495 0.0
C888 C 0.02091 0.28327 0.53329 0.0
C889 C 0.03783 0.32151 0.54463 0.0
C890 C 0.065 0.22803 0.59763 0.0
C891 C 0.99485 0.27619 0.50254 0.0
C892 C 0.04811 0.15758 0.50747 0.0
C893 C 0.02311 0.13288 0.52805 0.0
C894 C 0.04699 0.19709 0.50942 0.0
C895 C 0.02065 0.2117 0.53309 0.0
C896 C 0.99158 0.1856 0.54878 0.0
C897 C 0.99317 0.1461 0.54602 0.0
C898 C 0.07781 0.22381 0.4912 0.0
C899 C 0.96227 0.19975 0.57323 0.0
H900 H 0.09033 0.30455 0.61112 0.0
H901 H 0.03234 0.34543 0.53113 0.0
H902 H 0.04006 0.20755 0.60615 0.0
H903 H 0.08155 0.21146 0.57859 0.0
H904 H 0.08149 0.2393 0.62184 0.0
H905 H 0.98205 0.30174 0.50043 0.0
H906 H 0.01035 0.2708 0.47681 0.0
H907 H 0.97275 0.25043 0.50571 0.0
H908 H 0.07128 0.14711 0.49367 0.0
H909 H 0.97389 0.12674 0.56201 0.0
H910 H 0.09897 0.23681 0.51122 0.0
H911 H 0.06751 0.24776 0.48064 0.0
H912 H 0.09123 0.20805 0.46859 0.0
H913 H 0.97239 0.2063 0.60113 0.0
H914 H 0.93671 0.17724 0.57392 0.0
H915 H 0.95561 0.2266 0.56453 0.0
C916 C 0.59197 0.24825 0.40111 0.0
C917 C 0.59525 0.21772 0.42122 0.0
C918 C 0.57792 0.28041 0.41715 0.0
C919 C 0.56645 0.28199 0.45417 0.0
C920 C 0.56984 0.25132 0.47464 0.0
C921 C 0.5843 0.2197 0.45798 0.0
C922 C 0.57513 0.31262 0.39437 0.0
C923 C 0.55757 0.25157 0.51398 0.0
C924 C 0.55552 0.38162 0.49839 0.0
C925 C 0.51817 0.3809 0.49318 0.0
C926 C 0.57145 0.34911 0.48713 0.0
C927 C 0.54937 0.31494 0.47079 0.0
C928 C 0.51112 0.31325 0.46797 0.0
C929 C 0.49608 0.34626 0.47893 0.0
C930 C 0.61235 0.35226 0.49055 0.0
C931 C 0.48637 0.27728 0.45139 0.0
H932 H 0.60082 0.24721 0.37286 0.0
H933 H 0.58641 0.19605 0.47364 0.0
H934 H 0.54585 0.31495 0.39276 0.0
H935 H 0.58997 0.34074 0.40708 0.0
H936 H 0.5867 0.30787 0.36648 0.0
H937 H 0.56338 0.22631 0.52653 0.0
H938 H 0.5716 0.27854 0.52932 0.0
H939 H 0.52754 0.25119 0.51668 0.0
H940 H 0.57288 0.40841 0.50892 0.0
H941 H 0.4672 0.34552 0.4748 0.0
H942 H 0.62598 0.35236 0.46327 0.0
H943 H 0.61802 0.32687 0.5029 0.0
H944 H 0.62495 0.37911 0.50707 0.0
H945 H 0.49356 0.27281 0.42215 0.0
H946 H 0.45679 0.27924 0.45449 0.0
H947 H 0.49046 0.25136 0.46395 0.0
loop_
_geom_bond_atom_site_label_1
_geom_bond_atom_site_label_2
_geom_bond_distance
_geom_bond_site_symmetry_2
_ccdc_geom_bond_type
H0 C5 0.930 . S
H1 C8 0.930 . S
H2 C10 0.930 . S
H3 C4 1.016 . S
C4 H3 1.016 . S
C4 N11 1.286 . S
C5 H0 0.930 . S
C5 C6 1.397 . S
C5 C7 1.361 . S
C6 C5 1.397 . S
C6 C10 1.390 . S
C7 C5 1.361 . S
C7 C8 1.393 . S
C7 N11 1.413 . S
C8 H1 0.930 . S
C8 C7 1.393 . S
C8 C9 1.399 . S
C9 C8 1.399 . S
C9 C10 1.381 . S
C10 H2 0.930 . S
C10 C6 1.390 . S
C10 C9 1.381 . S
N11 C4 1.286 . S
N11 C7 1.413 . S
H12 C17 0.930 . S
H13 C20 0.930 . S
H14 C22 0.930 . S
H15 C16 1.016 . S
C16 H15 1.016 . S
C16 N23 1.286 . S
C17 H12 0.930 . S
C17 C18 1.397 . S
C17 C19 1.361 . S
C18 C17 1.397 . S
C18 C22 1.390 . S
C19 C17 1.361 . S
C19 C20 1.393 . S
C19 N23 1.413 . S
C20 H13 0.930 . S
C20 C19 1.393 . S
C20 C21 1.399 . S
C21 C20 1.399 . S
C21 C22 1.381 . S
C22 H14 0.930 . S
C22 C18 1.390 . S
C22 C21 1.381 . S
N23 C16 1.286 . S
N23 C19 1.413 . S
H24 C29 0.930 . S
H25 C32 0.930 . S
H26 C34 0.930 . S
H27 C28 1.016 . S
C28 H27 1.016 . S
C28 N35 1.286 . S
C29 H24 0.930 . S
C29 C30 1.397 . S
C29 C31 1.361 . S
C30 C29 1.397 . S
C30 C34 1.390 . S
C31 C29 1.361 . S
C31 C32 1.393 . S
C31 N35 1.413 . S
C32 H25 0.930 . S
C32 C31 1.393 . S
C32 C33 1.399 . S
C33 C32 1.399 . S
C33 C34 1.381 . S
C34 H26 0.930 . S
C34 C30 1.390 . S
C34 C33 1.381 . S
N35 C28 1.286 . S
N35 C31 1.413 . S
H36 C41 0.930 . S
H37 C44 0.930 . S
H38 C46 0.930 . S
H39 C40 1.016 . S
C40 H39 1.016 . S
C40 N47 1.286 . S
C41 H36 0.930 . S
C41 C42 1.397 . S
C41 C43 1.361 . S
C42 C41 1.397 . S
C42 C46 1.390 . S
C43 C41 1.361 . S
C43 C44 1.393 . S
C43 N47 1.413 . S
C44 H37 0.930 . S
C44 C43 1.393 . S
C44 C45 1.399 . S
C45 C44 1.399 . S
C45 C46 1.381 . S
C46 H38 0.930 . S
C46 C42 1.390 . S
C46 C45 1.381 . S
N47 C40 1.286 . S
N47 C43 1.413 . S
H48 C53 0.930 . S
H49 C56 0.930 . S
H50 C58 0.930 . S
H51 C52 1.016 . S
C52 H51 1.016 . S
C52 N59 1.286 . S
C53 H48 0.930 . S
C53 C54 1.397 . S
C53 C55 1.361 . S
C54 C53 1.397 . S
C54 C58 1.390 . S
C55 C53 1.361 . S
C55 C56 1.393 . S
C55 N59 1.413 . S
C56 H49 0.930 . S
C56 C55 1.393 . S
C56 C57 1.399 . S
C57 C56 1.399 . S
C57 C58 1.381 . S
C58 H50 0.930 . S
C58 C54 1.390 . S
C58 C57 1.381 . S
N59 C52 1.286 . S
N59 C55 1.413 . S
H60 C65 0.930 . S
H61 C68 0.930 . S
H62 C70 0.930 . S
H63 C64 1.016 . S
C64 H63 1.016 . S
C64 N71 1.286 . S
C65 H60 0.930 . S
C65 C66 1.397 . S
C65 C67 1.361 . S
C66 C65 1.397 . S
C66 C70 1.390 . S
C67 C65 1.361 . S
C67 C68 1.393 . S
C67 N71 1.413 . S
C68 H61 0.930 . S
C68 C67 1.393 . S
C68 C69 1.399 . S
C69 C68 1.399 . S
C69 C70 1.381 . S
C70 H62 0.930 . S
C70 C66 1.390 . S
C70 C69 1.381 . S
N71 C64 1.286 . S
N71 C67 1.413 . S
H72 C77 0.930 . S
H73 C80 0.930 . S
H74 C82 0.930 . S
H75 C76 1.016 . S
C76 H75 1.016 . S
C76 N83 1.286 . S
C77 H72 0.930 . S
C77 C78 1.397 . S
C77 C79 1.361 . S
C78 C77 1.397 . S
C78 C82 1.390 . S
C79 C77 1.361 . S
C79 C80 1.393 . S
C79 N83 1.413 . S
C80 H73 0.930 . S
C80 C79 1.393 . S
C80 C81 1.399 . S
C81 C80 1.399 . S
C81 C82 1.381 . S
C82 H74 0.930 . S
C82 C78 1.390 . S
C82 C81 1.381 . S
N83 C76 1.286 . S
N83 C79 1.413 . S
H84 C89 0.930 . S
H85 C92 0.930 . S
H86 C94 0.930 . S
H87 C88 1.016 . S
C88 H87 1.016 . S
C88 N95 1.286 . S
C89 H84 0.930 . S
C89 C90 1.397 . S
C89 C91 1.361 . S
C90 C89 1.397 . S
C90 C94 1.390 . S
C91 C89 1.361 . S
C91 C92 1.393 . S
C91 N95 1.413 . S
C92 H85 0.930 . S
C92 C91 1.393 . S
C92 C93 1.399 . S
C93 C92 1.399 . S
C93 C94 1.381 . S
C94 H86 0.930 . S
C94 C90 1.390 . S
C94 C93 1.381 . S
N95 C88 1.286 . S
N95 C91 1.413 . S
O96 Mg97 1.990 . S
O96 C110 1.253 1_445 S
Mg97 O96 1.990 . S
Mg97 O100 2.180 . S
Mg97 O101 2.117 . S
Mg97 O115 2.030 . S
O98 Mg99 2.072 1_665 S
O98 C110 1.260 . S
Mg99 O98 2.072 1_445 S
Mg99 O100 2.099 . S
Mg99 O102 2.079 . S
Mg99 O103 2.072 1_455 S
Mg99 O105 2.099 1_445 S
Mg99 O116 2.079 1_545 S
O100 Mg97 2.180 . S
O100 Mg99 2.099 . S
O100 C111 1.279 . S
O101 Mg97 2.117 . S
O101 C111 1.250 . S
O102 Mg99 2.079 . S
O102 C112 1.264 . S
O103 Mg99 2.072 1_655 S
O103 C113 1.260 . S
Mg104 O105 2.180 . S
Mg104 O106 2.030 1_565 S
Mg104 O107 1.993 . S
Mg104 O108 2.117 . S
O105 Mg99 2.099 1_665 S
O105 Mg104 2.180 . S
O105 C114 1.279 . S
O106 Mg104 2.030 1_545 S
O106 C112 1.248 1_655 S
O107 Mg104 1.993 . S
O107 C113 1.250 1_565 S
O108 Mg104 2.117 . S
O108 C114 1.250 . S
C109 O115 1.248 1_565 S
C109 O116 1.264 . S
C110 O96 1.253 1_665 S
C110 O98 1.260 . S
C111 O100 1.279 . S
C111 O101 1.250 . S
C112 O102 1.264 . S
C112 O106 1.248 1_455 S
C113 O103 1.260 . S
C113 O107 1.250 1_545 S
C114 O105 1.279 . S
C114 O108 1.250 . S
O115 Mg97 2.030 . S
O115 C109 1.248 1_545 S
O116 Mg99 2.079 1_565 S
O116 C109 1.264 . S
O117 Mg118 1.990 . S
O117 C131 1.253 . S
Mg118 O117 1.990 . S
Mg118 O121 2.180 . S
Mg118 O122 2.117 . S
Mg118 O136 2.030 . S
O119 Mg120 2.072 . S
O119 C131 1.260 . S
Mg120 O119 2.072 . S
Mg120 O121 2.099 . S
Mg120 O123 2.079 . S
Mg120 O124 2.072 1_554 S
Mg120 O126 2.099 1_545 S
Mg120 O137 2.079 . S
O121 Mg118 2.180 . S
O121 Mg120 2.099 . S
O121 C132 1.279 1_554 S
O122 Mg118 2.117 . S
O122 C132 1.250 1_554 S
O123 Mg120 2.079 . S
O123 C133 1.264 1_544 S
O124 Mg120 2.072 1_556 S
O124 C134 1.260 1_545 S
Mg125 O126 2.180 1_556 S
Mg125 O127 2.030 . S
Mg125 O128 1.990 . S
Mg125 O129 2.117 1_556 S
O126 Mg120 2.099 1_565 S
O126 Mg125 2.180 1_554 S
O126 C135 1.279 . S
O127 Mg125 2.030 . S
O127 C133 1.248 . S
O128 Mg125 1.990 . S
O128 C134 1.253 . S
O129 Mg125 2.117 1_554 S
O129 C135 1.250 . S
C130 O136 1.248 . S
C130 O137 1.264 . S
C131 O117 1.253 . S
C131 O119 1.260 . S
C132 O121 1.279 1_556 S
C132 O122 1.250 1_556 S
C133 O123 1.264 1_566 S
C133 O127 1.248 . S
C134 O124 1.260 1_565 S
C134 O128 1.253 . S
C135 O126 1.279 . S
C135 O129 1.250 . S
O136 Mg118 2.030 . S
O136 C130 1.248 . S
O137 Mg120 2.079 . S
O137 C130 1.264 . S
O138 Mg139 1.990 . S
O138 C152 1.253 . S
Mg139 O138 1.990 . S
Mg139 O142 2.180 . S
Mg139 O143 2.117 . S
Mg139 O157 2.030 . S
O140 Mg141 2.072 . S
O140 C152 1.260 . S
Mg141 O140 2.072 . S
Mg141 O142 2.099 . S
Mg141 O144 2.079 . S
Mg141 O145 2.072 . S
Mg141 O147 2.099 . S
Mg141 O158 2.079 . S
O142 Mg139 2.180 . S
O142 Mg141 2.099 . S
O142 C153 1.279 . S
O143 Mg139 2.117 . S
O143 C153 1.250 . S
O144 Mg141 2.079 . S
O144 C154 1.264 . S
O145 Mg141 2.072 . S
O145 C155 1.260 . S
Mg146 O147 2.180 . S
Mg146 O148 2.030 . S
Mg146 O149 1.990 . S
Mg146 O150 2.117 . S
O147 Mg141 2.099 . S
O147 Mg146 2.180 . S
O147 C156 1.279 . S
O148 Mg146 2.030 . S
O148 C154 1.248 . S
O149 Mg146 1.990 . S
O149 C155 1.253 . S
O150 Mg146 2.117 . S
O150 C156 1.250 . S
C151 O157 1.248 . S
C151 O158 1.264 . S
C152 O138 1.253 . S
C152 O140 1.260 . S
C153 O142 1.279 . S
C153 O143 1.250 . S
C154 O144 1.264 . S
C154 O148 1.248 . S
C155 O145 1.260 . S
C155 O149 1.253 . S
C156 O147 1.279 . S
C156 O150 1.250 . S
O157 Mg139 2.030 . S
O157 C151 1.248 . S
O158 Mg141 2.079 . S
O158 C151 1.264 . S
O159 Mg160 1.990 . S
O159 C173 1.253 . S
Mg160 O159 1.990 . S
Mg160 O163 2.180 . S
Mg160 O164 2.117 1_455 S
Mg160 O178 2.030 . S
O161 Mg162 2.072 . S
O161 C173 1.260 . S
Mg162 O161 2.072 . S
Mg162 O163 2.099 . S
Mg162 O165 2.079 . S
Mg162 O166 2.072 1_455 S
Mg162 O168 2.099 1_554 S
Mg162 O179 2.079 . S
O163 Mg160 2.180 . S
O163 Mg162 2.099 . S
O163 C174 1.279 1_455 S
O164 Mg160 2.117 1_655 S
O164 C174 1.250 . S
O165 Mg162 2.079 . S
O165 C175 1.264 1_454 S
O166 Mg162 2.072 1_655 S
O166 C176 1.260 1_554 S
Mg167 O168 2.180 1_655 S
Mg167 O169 2.030 . S
Mg167 O170 1.990 . S
Mg167 O171 2.117 1_655 S
O168 Mg162 2.099 1_556 S
O168 Mg167 2.180 1_455 S
O168 C177 1.279 . S
O169 Mg167 2.030 . S
O169 C175 1.248 . S
O170 Mg167 1.990 . S
O170 C176 1.253 . S
O171 Mg167 2.117 1_455 S
O171 C177 1.250 . S
C172 O178 1.248 . S
C172 O179 1.264 . S
C173 O159 1.253 . S
C173 O161 1.260 . S
C174 O163 1.279 1_655 S
C174 O164 1.250 . S
C175 O165 1.264 1_656 S
C175 O169 1.248 . S
C176 O166 1.260 1_556 S
C176 O170 1.253 . S
C177 O168 1.279 . S
C177 O171 1.250 . S
O178 Mg160 2.030 . S
O178 C172 1.248 . S
O179 Mg162 2.079 . S
O179 C172 1.264 . S
C180 C181 1.391 . S
C180 C182 1.394 . S
C180 H196 0.931 . S
C181 C180 1.391 . S
C181 C185 1.376 . S
C182 C180 1.394 . S
C182 C183 1.369 . S
C182 C186 1.531 . S
C183 C182 1.369 . S
C183 C184 1.410 . S
C183 C191 1.503 . S
C184 C183 1.410 . S
C184 C185 1.392 . S
C184 C187 1.511 . S
C185 C181 1.376 . S
C185 C184 1.392 . S
C185 H197 0.929 . S
C186 C182 1.531 . S
C186 H198 0.960 . S
C186 H199 0.962 . S
C186 H200 0.960 . S
C187 C184 1.511 . S
C187 H201 0.961 . S
C187 H202 0.961 . S
C187 H203 0.961 . S
C188 C189 1.370 . S
C188 C190 1.363 . S
C188 H204 0.931 . S
C189 C188 1.370 . S
C189 C193 1.408 . S
C190 C188 1.363 . S
C190 C191 1.370 . S
C190 C194 1.524 . S
C191 C183 1.503 . S
C191 C190 1.370 . S
C191 C192 1.403 . S
C192 C191 1.403 . S
C192 C193 1.404 . S
C192 C195 1.539 . S
C193 C189 1.408 . S
C193 C192 1.404 . S
C193 H205 0.930 . S
C194 C190 1.524 . S
C194 H206 0.956 . S
C194 H207 0.961 . S
C194 H208 0.977 . S
C195 C192 1.539 . S
C195 H209 0.958 . S
C195 H210 0.961 . S
C195 H211 0.960 . S
H196 C180 0.931 . S
H197 C185 0.929 . S
H198 C186 0.960 . S
H199 C186 0.962 . S
H200 C186 0.960 . S
H201 C187 0.961 . S
H202 C187 0.961 . S
H203 C187 0.961 . S
H204 C188 0.931 . S
H205 C193 0.930 . S
H206 C194 0.956 . S
H207 C194 0.961 . S
H208 C194 0.977 . S
H209 C195 0.958 . S
H210 C195 0.961 . S
H211 C195 0.960 . S
C212 C213 1.391 . S
C212 C214 1.394 . S
C212 H228 0.931 . S
C213 C212 1.391 . S
C213 C217 1.376 . S
C214 C212 1.394 . S
C214 C215 1.369 . S
C214 C218 1.531 . S
C215 C214 1.369 . S
C215 C216 1.410 . S
C215 C223 1.503 . S
C216 C215 1.410 . S
C216 C217 1.392 . S
C216 C219 1.511 . S
C217 C213 1.376 . S
C217 C216 1.392 . S
C217 H229 0.929 . S
C218 C214 1.531 . S
C218 H230 0.960 1_565 S
C218 H231 0.962 . S
C218 H232 0.960 1_565 S
C219 C216 1.511 . S
C219 H233 0.961 . S
C219 H234 0.961 . S
C219 H235 0.961 . S
C220 C221 1.370 . S
C220 C222 1.363 . S
C220 H236 0.931 . S
C221 C220 1.370 . S
C221 C225 1.408 1_565 S
C222 C220 1.363 . S
C222 C223 1.370 . S
C222 C226 1.524 . S
C223 C215 1.503 . S
C223 C222 1.370 . S
C223 C224 1.403 . S
C224 C223 1.403 . S
C224 C225 1.404 1_565 S
C224 C227 1.539 1_565 S
C225 C221 1.408 1_545 S
C225 C224 1.404 1_545 S
C225 H237 0.930 . S
C226 C222 1.524 . S
C226 H238 0.956 . S
C226 H239 0.961 . S
C226 H240 0.961 . S
C227 C224 1.539 1_545 S
C227 H241 0.958 . S
C227 H242 0.961 . S
C227 H243 0.960 . S
H228 C212 0.931 . S
H229 C217 0.929 . S
H230 C218 0.960 1_545 S
H231 C218 0.962 . S
H232 C218 0.960 1_545 S
H233 C219 0.961 . S
H234 C219 0.961 . S
H235 C219 0.961 . S
H236 C220 0.931 . S
H237 C225 0.930 . S
H238 C226 0.956 . S
H239 C226 0.961 . S
H240 C226 0.961 . S
H241 C227 0.958 . S
H242 C227 0.961 . S
H243 C227 0.960 . S
C244 C245 1.391 . S
C244 C246 1.394 . S
C244 H260 0.931 . S
C245 C244 1.391 . S
C245 C249 1.376 . S
C246 C244 1.394 . S
C246 C247 1.369 . S
C246 C250 1.531 . S
C247 C246 1.369 . S
C247 C248 1.410 . S
C247 C255 1.503 . S
C248 C247 1.410 . S
C248 C249 1.392 . S
C248 C251 1.511 . S
C249 C245 1.376 . S
C249 C248 1.392 . S
C249 H261 0.929 . S
C250 C246 1.531 . S
C250 H262 0.960 . S
C250 H263 0.962 . S
C250 H264 0.960 . S
C251 C248 1.511 . S
C251 H265 0.961 . S
C251 H266 0.961 . S
C251 H267 0.961 . S
C252 C253 1.370 . S
C252 C254 1.363 . S
C252 H268 0.931 . S
C253 C252 1.370 . S
C253 C257 1.408 . S
C254 C252 1.363 . S
C254 C255 1.370 . S
C254 C258 1.524 . S
C255 C247 1.503 . S
C255 C254 1.370 . S
C255 C256 1.403 . S
C256 C255 1.403 . S
C256 C257 1.404 . S
C256 C259 1.539 . S
C257 C253 1.408 . S
C257 C256 1.404 . S
C257 H269 0.930 . S
C258 C254 1.524 . S
C258 H270 0.956 . S
C258 H271 0.961 . S
C258 H272 0.961 . S
C259 C256 1.539 . S
C259 H273 0.958 . S
C259 H274 0.961 . S
C259 H275 0.960 . S
H260 C244 0.931 . S
H261 C249 0.929 . S
H262 C250 0.960 . S
H263 C250 0.962 . S
H264 C250 0.960 . S
H265 C251 0.961 . S
H266 C251 0.961 . S
H267 C251 0.961 . S
H268 C252 0.931 . S
H269 C257 0.930 . S
H270 C258 0.956 . S
H271 C258 0.961 . S
H272 C258 0.961 . S
H273 C259 0.958 . S
H274 C259 0.961 . S
H275 C259 0.960 . S
C276 C277 1.391 . S
C276 C278 1.394 . S
C276 H292 0.931 . S
C277 C276 1.391 . S
C277 C281 1.376 . S
C278 C276 1.394 . S
C278 C279 1.369 . S
C278 C282 1.531 . S
C279 C278 1.369 . S
C279 C280 1.410 . S
C279 C287 1.503 . S
C280 C279 1.410 . S
C280 C281 1.392 . S
C280 C283 1.511 . S
C281 C277 1.376 . S
C281 C280 1.392 . S
C281 H293 0.929 . S
C282 C278 1.531 . S
C282 H294 0.960 . S
C282 H295 0.962 . S
C282 H296 0.960 . S
C283 C280 1.511 . S
C283 H297 0.961 . S
C283 H298 0.961 . S
C283 H299 0.961 . S
C284 C285 1.370 . S
C284 C286 1.363 . S
C284 H300 0.931 1_655 S
C285 C284 1.370 . S
C285 C289 1.408 . S
C286 C284 1.363 . S
C286 C287 1.370 . S
C286 C290 1.516 1_655 S
C287 C279 1.503 . S
C287 C286 1.370 . S
C287 C288 1.403 . S
C288 C287 1.403 . S
C288 C289 1.404 . S
C288 C291 1.539 . S
C289 C285 1.408 . S
C289 C288 1.404 . S
C289 H301 0.930 . S
C290 C286 1.516 1_455 S
C290 H302 0.961 . S
C290 H303 0.954 1_455 S
C290 H304 0.970 . S
C291 C288 1.539 . S
C291 H305 0.958 . S
C291 H306 0.961 . S
C291 H307 0.960 . S
H292 C276 0.931 . S
H293 C281 0.929 . S
H294 C282 0.960 . S
H295 C282 0.962 . S
H296 C282 0.960 . S
H297 C283 0.961 . S
H298 C283 0.961 . S
H299 C283 0.961 . S
H300 C284 0.931 1_455 S
H301 C289 0.930 . S
H302 C290 0.961 . S
H303 C290 0.954 1_655 S
H304 C290 0.970 . S
H305 C291 0.958 . S
H306 C291 0.961 . S
H307 C291 0.960 . S
C308 C309 1.391 . S
C308 C310 1.394 . S
C308 H324 0.931 . S
C309 C308 1.391 . S
C309 C313 1.376 . S
C310 C308 1.394 . S
C310 C311 1.369 . S
C310 C314 1.531 . S
C311 C310 1.369 . S
C311 C312 1.410 . S
C311 C319 1.503 . S
C312 C311 1.410 . S
C312 C313 1.392 . S
C312 C315 1.511 . S
C313 C309 1.376 . S
C313 C312 1.392 . S
C313 H325 0.929 . S
C314 C310 1.531 . S
C314 H326 0.960 . S
C314 H327 0.962 . S
C314 H328 0.960 . S
C315 C312 1.511 . S
C315 H329 0.961 . S
C315 H330 0.961 . S
C315 H331 0.961 . S
C316 C317 1.370 . S
C316 C318 1.363 . S
C316 H332 0.931 . S
C317 C316 1.370 . S
C317 C321 1.408 . S
C318 C316 1.363 . S
C318 C319 1.370 . S
C318 C322 1.524 . S
C319 C311 1.503 . S
C319 C318 1.370 . S
C319 C320 1.403 . S
C320 C319 1.403 . S
C320 C321 1.404 . S
C320 C323 1.539 . S
C321 C317 1.408 . S
C321 C320 1.404 . S
C321 H333 0.930 . S
C322 C318 1.524 . S
C322 H334 0.956 . S
C322 H335 0.961 . S
C322 H336 0.961 . S
C323 C320 1.539 . S
C323 H337 0.958 . S
C323 H338 0.961 . S
C323 H339 0.960 . S
H324 C308 0.931 . S
H325 C313 0.929 . S
H326 C314 0.960 . S
H327 C314 0.962 . S
H328 C314 0.960 . S
H329 C315 0.961 . S
H330 C315 0.961 . S
H331 C315 0.961 . S
H332 C316 0.931 . S
H333 C321 0.930 . S
H334 C322 0.956 . S
H335 C322 0.961 . S
H336 C322 0.961 . S
H337 C323 0.958 . S
H338 C323 0.961 . S
H339 C323 0.960 . S
C340 C341 1.391 . S
C340 C342 1.394 . S
C340 H356 0.931 . S
C341 C340 1.391 . S
C341 C345 1.376 . S
C342 C340 1.394 . S
C342 C343 1.369 . S
C342 C346 1.531 . S
C343 C342 1.369 . S
C343 C344 1.410 . S
C343 C351 1.503 . S
C344 C343 1.410 . S
C344 C345 1.392 . S
C344 C347 1.511 1_565 S
C345 C341 1.376 . S
C345 C344 1.392 . S
C345 H357 0.929 . S
C346 C342 1.531 . S
C346 H358 0.960 . S
C346 H359 0.962 . S
C346 H360 0.960 . S
C347 C344 1.511 1_545 S
C347 H361 0.961 . S
C347 H362 0.961 . S
C347 H363 0.961 . S
C348 C349 1.370 . S
C348 C350 1.363 . S
C348 H364 0.931 . S
C349 C348 1.370 . S
C349 C353 1.408 . S
C350 C348 1.363 . S
C350 C351 1.370 . S
C350 C354 1.524 . S
C351 C343 1.503 . S
C351 C350 1.370 . S
C351 C352 1.403 . S
C352 C351 1.403 . S
C352 C353 1.404 . S
C352 C355 1.539 . S
C353 C349 1.408 . S
C353 C352 1.404 . S
C353 H365 0.930 . S
C354 C350 1.524 . S
C354 H366 0.956 . S
C354 H367 0.961 . S
C354 H368 0.961 . S
C355 C352 1.539 . S
C355 H369 0.958 . S
C355 H370 0.961 . S
C355 H371 0.960 . S
H356 C340 0.931 . S
H357 C345 0.929 . S
H358 C346 0.960 . S
H359 C346 0.962 . S
H360 C346 0.960 . S
H361 C347 0.961 . S
H362 C347 0.961 . S
H363 C347 0.961 . S
H364 C348 0.931 . S
H365 C353 0.930 . S
H366 C354 0.956 . S
H367 C354 0.961 . S
H368 C354 0.961 . S
H369 C355 0.958 . S
H370 C355 0.961 . S
H371 C355 0.960 . S
C372 C373 1.391 . S
C372 C374 1.394 . S
C372 H388 0.931 . S
C373 C372 1.391 . S
C373 C377 1.376 . S
C374 C372 1.394 . S
C374 C375 1.369 . S
C374 C378 1.531 . S
C375 C374 1.369 . S
C375 C376 1.410 . S
C375 C383 1.503 . S
C376 C375 1.410 . S
C376 C377 1.392 . S
C376 C379 1.511 1_556 S
C377 C373 1.376 . S
C377 C376 1.392 . S
C377 H389 0.929 . S
C378 C374 1.531 . S
C378 H390 0.960 . S
C378 H391 0.962 . S
C378 H392 0.960 . S
C379 C376 1.511 1_554 S
C379 H393 0.961 . S
C379 H394 0.961 . S
C379 H395 0.961 . S
C380 C381 1.370 . S
C380 C382 1.363 . S
C380 H396 0.931 . S
C381 C380 1.370 . S
C381 C385 1.409 . S
C382 C380 1.363 . S
C382 C383 1.370 . S
C382 C386 1.524 . S
C383 C375 1.503 . S
C383 C382 1.370 . S
C383 C384 1.403 . S
C384 C383 1.403 . S
C384 C385 1.404 . S
C384 C387 1.539 1_556 S
C385 C381 1.409 . S
C385 C384 1.404 . S
C385 H397 0.929 1_556 S
C386 C382 1.524 . S
C386 H398 0.956 . S
C386 H399 0.961 . S
C386 H400 0.961 . S
C387 C384 1.539 1_554 S
C387 H401 0.958 1_554 S
C387 H402 0.961 . S
C387 H403 0.960 . S
H388 C372 0.931 . S
H389 C377 0.929 . S
H390 C378 0.960 . S
H391 C378 0.962 . S
H392 C378 0.960 . S
H393 C379 0.961 . S
H394 C379 0.961 . S
H395 C379 0.961 . S
H396 C380 0.931 . S
H397 C385 0.929 1_554 S
H398 C386 0.956 . S
H399 C386 0.961 . S
H400 C386 0.961 . S
H401 C387 0.958 1_556 S
H402 C387 0.961 . S
H403 C387 0.960 . S
C404 C405 1.391 . S
C404 C406 1.394 . S
C404 H420 0.931 . S
C405 C404 1.391 . S
C405 C409 1.376 . S
C406 C404 1.394 . S
C406 C407 1.369 . S
C406 C410 1.531 . S
C407 C406 1.369 . S
C407 C408 1.410 . S
C407 C415 1.503 . S
C408 C407 1.410 . S
C408 C409 1.392 . S
C408 C411 1.511 . S
C409 C405 1.376 . S
C409 C408 1.392 . S
C409 H421 0.929 . S
C410 C406 1.531 . S
C410 H422 0.960 . S
C410 H423 0.962 . S
C410 H424 0.960 . S
C411 C408 1.511 . S
C411 H425 0.961 . S
C411 H426 0.961 . S
C411 H427 0.961 . S
C412 C413 1.370 . S
C412 C414 1.363 . S
C412 H428 0.931 . S
C413 C412 1.370 . S
C413 C417 1.408 . S
C414 C412 1.363 . S
C414 C415 1.370 . S
C414 C418 1.524 . S
C415 C407 1.503 . S
C415 C414 1.370 . S
C415 C416 1.403 . S
C416 C415 1.403 . S
C416 C417 1.404 . S
C416 C419 1.539 . S
C417 C413 1.408 . S
C417 C416 1.404 . S
C417 H429 0.930 . S
C418 C414 1.524 . S
C418 H430 0.956 . S
C418 H431 0.961 . S
C418 H432 0.961 . S
C419 C416 1.539 . S
C419 H433 0.958 . S
C419 H434 0.961 . S
C419 H435 0.960 . S
H420 C404 0.931 . S
H421 C409 0.929 . S
H422 C410 0.960 . S
H423 C410 0.962 . S
H424 C410 0.960 . S
H425 C411 0.961 . S
H426 C411 0.961 . S
H427 C411 0.961 . S
H428 C412 0.931 . S
H429 C417 0.930 . S
H430 C418 0.956 . S
H431 C418 0.961 . S
H432 C418 0.961 . S
H433 C419 0.958 . S
H434 C419 0.961 . S
H435 C419 0.960 . S
C436 C437 1.391 . S
C436 C438 1.394 . S
C436 H452 0.931 . S
C437 C436 1.391 . S
C437 C441 1.376 . S
C438 C436 1.394 . S
C438 C439 1.369 . S
C438 C442 1.531 . S
C439 C438 1.369 . S
C439 C440 1.410 . S
C439 C447 1.503 . S
C440 C439 1.410 . S
C440 C441 1.392 . S
C440 C443 1.511 . S
C441 C437 1.376 . S
C441 C440 1.392 . S
C441 H453 0.929 . S
C442 C438 1.531 . S
C442 H454 0.960 . S
C442 H455 0.962 . S
C442 H456 0.960 . S
C443 C440 1.511 . S
C443 H457 0.961 . S
C443 H458 0.961 . S
C443 H459 0.961 . S
C444 C445 1.370 . S
C444 C446 1.363 . S
C444 H460 0.931 . S
C445 C444 1.370 . S
C445 C449 1.408 . S
C446 C444 1.363 . S
C446 C447 1.370 . S
C446 C450 1.524 . S
C447 C439 1.503 . S
C447 C446 1.370 . S
C447 C448 1.403 . S
C448 C447 1.403 . S
C448 C449 1.404 . S
C448 C451 1.539 . S
C449 C445 1.408 . S
C449 C448 1.404 . S
C449 H461 0.930 . S
C450 C446 1.524 . S
C450 H462 0.956 . S
C450 H463 0.961 . S
C450 H464 0.961 1_554 S
C451 C448 1.539 . S
C451 H465 0.958 . S
C451 H466 0.961 . S
C451 H467 0.960 . S
H452 C436 0.931 . S
H453 C441 0.929 . S
H454 C442 0.960 . S
H455 C442 0.962 . S
H456 C442 0.960 . S
H457 C443 0.961 . S
H458 C443 0.961 . S
H459 C443 0.961 . S
H460 C444 0.931 . S
H461 C449 0.930 . S
H462 C450 0.956 . S
H463 C450 0.961 . S
H464 C450 0.961 1_556 S
H465 C451 0.958 . S
H466 C451 0.961 . S
H467 C451 0.960 . S
C468 C469 1.391 . S
C468 C470 1.394 . S
C468 H484 0.931 . S
C469 C468 1.391 . S
C469 C473 1.376 . S
C470 C468 1.394 . S
C470 C471 1.369 . S
C470 C474 1.531 . S
C471 C470 1.369 . S
C471 C472 1.410 . S
C471 C479 1.503 . S
C472 C471 1.410 . S
C472 C473 1.392 . S
C472 C475 1.511 . S
C473 C469 1.376 . S
C473 C472 1.392 . S
C473 H485 0.929 . S
C474 C470 1.531 . S
C474 H486 0.960 . S
C474 H487 0.962 . S
C474 H488 0.960 . S
C475 C472 1.511 . S
C475 H489 0.961 . S
C475 H490 0.961 . S
C475 H491 0.961 . S
C476 C477 1.370 . S
C476 C478 1.363 . S
C476 H492 0.931 1_556 S
C477 C476 1.370 . S
C477 C481 1.408 . S
C478 C476 1.363 . S
C478 C479 1.370 . S
C478 C482 1.524 . S
C479 C471 1.503 . S
C479 C478 1.370 . S
C479 C480 1.403 . S
C480 C479 1.403 . S
C480 C481 1.404 . S
C480 C483 1.539 . S
C481 C477 1.408 . S
C481 C480 1.404 . S
C481 H493 0.930 . S
C482 C478 1.524 . S
C482 H494 0.956 . S
C482 H495 0.961 1_556 S
C482 H496 0.961 1_556 S
C483 C480 1.539 . S
C483 H497 0.958 . S
C483 H498 0.961 . S
C483 H499 0.960 . S
H484 C468 0.931 . S
H485 C473 0.929 . S
H486 C474 0.960 . S
H487 C474 0.962 . S
H488 C474 0.960 . S
H489 C475 0.961 . S
H490 C475 0.961 . S
H491 C475 0.961 . S
H492 C476 0.931 1_554 S
H493 C481 0.930 . S
H494 C482 0.956 . S
H495 C482 0.961 1_554 S
H496 C482 0.961 1_554 S
H497 C483 0.958 . S
H498 C483 0.961 . S
H499 C483 0.960 . S
C500 C501 1.391 . S
C500 C502 1.394 . S
C500 H516 0.931 . S
C501 C500 1.391 . S
C501 C505 1.376 . S
C502 C500 1.394 . S
C502 C503 1.369 . S
C502 C506 1.531 . S
C503 C502 1.369 . S
C503 C504 1.410 . S
C503 C511 1.503 . S
C504 C503 1.410 . S
C504 C505 1.392 . S
C504 C507 1.511 . S
C505 C501 1.376 . S
C505 C504 1.392 . S
C505 H517 0.929 . S
C506 C502 1.531 . S
C506 H518 0.960 . S
C506 H519 0.962 . S
C506 H520 0.960 . S
C507 C504 1.511 . S
C507 H521 0.961 . S
C507 H522 0.961 . S
C507 H523 0.961 . S
C508 C509 1.370 . S
C508 C510 1.363 . S
C508 H524 0.931 . S
C509 C508 1.370 . S
C509 C513 1.408 . S
C510 C508 1.363 . S
C510 C511 1.370 . S
C510 C514 1.524 . S
C511 C503 1.503 . S
C511 C510 1.370 . S
C511 C512 1.403 . S
C512 C511 1.403 . S
C512 C513 1.404 . S
C512 C515 1.539 1_655 S
C513 C509 1.408 . S
C513 C512 1.404 . S
C513 H525 0.930 1_655 S
C514 C510 1.524 . S
C514 H526 0.956 . S
C514 H527 0.961 . S
C514 H528 0.961 . S
C515 C512 1.539 1_455 S
C515 H529 0.958 . S
C515 H530 0.961 . S
C515 H531 0.960 1_455 S
H516 C500 0.931 . S
H517 C505 0.929 . S
H518 C506 0.960 . S
H519 C506 0.962 . S
H520 C506 0.960 . S
H521 C507 0.961 . S
H522 C507 0.961 . S
H523 C507 0.961 . S
H524 C508 0.931 . S
H525 C513 0.930 1_455 S
H526 C514 0.956 . S
H527 C514 0.961 . S
H528 C514 0.961 . S
H529 C515 0.958 . S
H530 C515 0.961 . S
H531 C515 0.960 1_655 S
C532 C533 1.391 . S
C532 C534 1.394 . S
C532 H548 0.931 . S
C533 C532 1.391 . S
C533 C537 1.376 . S
C534 C532 1.394 . S
C534 C535 1.369 . S
C534 C538 1.531 . S
C535 C534 1.369 . S
C535 C536 1.410 . S
C535 C543 1.503 . S
C536 C535 1.410 . S
C536 C537 1.392 . S
C536 C539 1.511 . S
C537 C533 1.376 . S
C537 C536 1.392 . S
C537 H549 0.929 . S
C538 C534 1.531 . S
C538 H550 0.960 . S
C538 H551 0.962 . S
C538 H552 0.960 . S
C539 C536 1.511 . S
C539 H553 0.961 . S
C539 H554 0.961 . S
C539 H555 0.961 . S
C540 C541 1.370 . S
C540 C542 1.363 . S
C540 H556 0.931 . S
C541 C540 1.370 . S
C541 C545 1.408 . S
C542 C540 1.363 . S
C542 C543 1.370 . S
C542 C546 1.524 . S
C543 C535 1.503 . S
C543 C542 1.370 . S
C543 C544 1.403 . S
C544 C543 1.403 . S
C544 C545 1.404 . S
C544 C547 1.539 . S
C545 C541 1.408 . S
C545 C544 1.404 . S
C545 H557 0.930 . S
C546 C542 1.524 . S
C546 H558 0.956 . S
C546 H559 0.961 . S
C546 H560 0.961 . S
C547 C544 1.539 . S
C547 H561 0.958 . S
C547 H562 0.961 . S
C547 H563 0.960 . S
H548 C532 0.931 . S
H549 C537 0.929 . S
H550 C538 0.960 . S
H551 C538 0.962 . S
H552 C538 0.960 . S
H553 C539 0.961 . S
H554 C539 0.961 . S
H555 C539 0.961 . S
H556 C540 0.931 . S
H557 C545 0.930 . S
H558 C546 0.956 . S
H559 C546 0.961 . S
H560 C546 0.961 . S
H561 C547 0.958 . S
H562 C547 0.961 . S
H563 C547 0.960 . S
C564 C565 1.391 . S
C564 C566 1.394 . S
C564 H580 0.931 . S
C565 C564 1.391 . S
C565 C569 1.376 . S
C566 C564 1.394 . S
C566 C567 1.369 . S
C566 C570 1.531 . S
C567 C566 1.369 . S
C567 C568 1.410 . S
C567 C575 1.503 . S
C568 C567 1.410 . S
C568 C569 1.392 . S
C568 C571 1.511 . S
C569 C565 1.376 . S
C569 C568 1.392 . S
C569 H581 0.929 . S
C570 C566 1.531 . S
C570 H582 0.960 . S
C570 H583 0.962 1_655 S
C570 H584 0.960 . S
C571 C568 1.511 . S
C571 H585 0.961 . S
C571 H586 0.961 . S
C571 H587 0.961 . S
C572 C573 1.370 . S
C572 C574 1.363 . S
C572 H588 0.931 1_565 S
C573 C572 1.370 . S
C573 C577 1.408 . S
C574 C572 1.363 . S
C574 C575 1.370 . S
C574 C578 1.524 1_565 S
C575 C567 1.503 . S
C575 C574 1.370 . S
C575 C576 1.403 . S
C576 C575 1.403 . S
C576 C577 1.404 . S
C576 C579 1.539 . S
C577 C573 1.408 . S
C577 C576 1.404 . S
C577 H589 0.930 . S
C578 C574 1.524 1_545 S
C578 H590 0.956 1_545 S
C578 H591 0.961 . S
C578 H592 0.961 . S
C579 C576 1.539 . S
C579 H593 0.958 . S
C579 H594 0.961 . S
C579 H595 0.960 . S
H580 C564 0.931 . S
H581 C569 0.929 . S
H582 C570 0.960 . S
H583 C570 0.962 1_455 S
H584 C570 0.960 . S
H585 C571 0.961 . S
H586 C571 0.961 . S
H587 C571 0.961 . S
H588 C572 0.931 1_545 S
H589 C577 0.930 . S
H590 C578 0.956 1_565 S
H591 C578 0.961 . S
H592 C578 0.961 . S
H593 C579 0.958 . S
H594 C579 0.961 . S
H595 C579 0.960 . S
C596 C597 1.391 . S
C596 C598 1.394 . S
C596 H612 0.931 . S
C597 C596 1.391 . S
C597 C601 1.376 . S
C598 C596 1.394 . S
C598 C599 1.369 . S
C598 C602 1.531 . S
C599 C598 1.369 . S
C599 C600 1.410 . S
C599 C607 1.503 . S
C600 C599 1.410 . S
C600 C601 1.392 . S
C600 C603 1.511 . S
C601 C597 1.376 . S
C601 C600 1.392 . S
C601 H613 0.929 . S
C602 C598 1.531 . S
C602 H614 0.960 . S
C602 H615 0.962 . S
C602 H616 0.960 . S
C603 C600 1.511 . S
C603 H617 0.961 . S
C603 H618 0.961 . S
C603 H619 0.961 . S
C604 C605 1.370 . S
C604 C606 1.363 . S
C604 H620 0.931 . S
C605 C604 1.370 . S
C605 C609 1.408 . S
C606 C604 1.363 . S
C606 C607 1.370 . S
C606 C610 1.524 . S
C607 C599 1.503 . S
C607 C606 1.370 . S
C607 C608 1.403 . S
C608 C607 1.403 . S
C608 C609 1.404 . S
C608 C611 1.539 . S
C609 C605 1.408 . S
C609 C608 1.404 . S
C609 H621 0.930 . S
C610 C606 1.524 . S
C610 H622 0.956 . S
C610 H623 0.961 . S
C610 H624 0.961 . S
C611 C608 1.539 . S
C611 H625 0.958 . S
C611 H626 0.961 . S
C611 H627 0.960 . S
H612 C596 0.931 . S
H613 C601 0.929 . S
H614 C602 0.960 . S
H615 C602 0.962 . S
H616 C602 0.960 . S
H617 C603 0.961 . S
H618 C603 0.961 . S
H619 C603 0.961 . S
H620 C604 0.931 . S
H621 C609 0.930 . S
H622 C610 0.956 . S
H623 C610 0.961 . S
H624 C610 0.961 . S
H625 C611 0.958 . S
H626 C611 0.961 . S
H627 C611 0.960 . S
C628 C629 1.391 . S
C628 C630 1.394 . S
C628 H644 0.931 . S
C629 C628 1.391 . S
C629 C633 1.376 . S
C630 C628 1.394 . S
C630 C631 1.369 . S
C630 C634 1.531 . S
C631 C630 1.369 . S
C631 C632 1.410 . S
C631 C639 1.503 . S
C632 C631 1.410 . S
C632 C633 1.392 . S
C632 C635 1.511 . S
C633 C629 1.376 . S
C633 C632 1.392 . S
C633 H645 0.929 . S
C634 C630 1.531 . S
C634 H646 0.960 . S
C634 H647 0.962 . S
C634 H648 0.960 . S
C635 C632 1.511 . S
C635 H649 0.961 . S
C635 H650 0.961 . S
C635 H651 0.961 . S
C636 C637 1.370 . S
C636 C638 1.363 . S
C636 H652 0.931 . S
C637 C636 1.370 . S
C637 C641 1.408 . S
C638 C636 1.363 . S
C638 C639 1.370 . S
C638 C642 1.524 . S
C639 C631 1.503 . S
C639 C638 1.370 . S
C639 C640 1.403 . S
C640 C639 1.403 . S
C640 C641 1.404 . S
C640 C643 1.539 . S
C641 C637 1.408 . S
C641 C640 1.404 . S
C641 H653 0.930 . S
C642 C638 1.524 . S
C642 H654 0.956 . S
C642 H655 0.961 . S
C642 H656 0.961 . S
C643 C640 1.539 . S
C643 H657 0.958 . S
C643 H658 0.961 . S
C643 H659 0.960 . S
H644 C628 0.931 . S
H645 C633 0.929 . S
H646 C634 0.960 . S
H647 C634 0.962 . S
H648 C634 0.960 . S
H649 C635 0.961 . S
H650 C635 0.961 . S
H651 C635 0.961 . S
H652 C636 0.931 . S
H653 C641 0.930 . S
H654 C642 0.956 . S
H655 C642 0.961 . S
H656 C642 0.961 . S
H657 C643 0.958 . S
H658 C643 0.961 . S
H659 C643 0.960 . S
C660 C661 1.391 . S
C660 C662 1.394 . S
C660 H676 0.931 . S
C661 C660 1.391 . S
C661 C665 1.376 . S
C662 C660 1.394 . S
C662 C663 1.369 . S
C662 C666 1.531 . S
C663 C662 1.369 . S
C663 C664 1.410 . S
C663 C671 1.503 . S
C664 C663 1.410 . S
C664 C665 1.392 . S
C664 C667 1.511 . S
C665 C661 1.376 . S
C665 C664 1.392 . S
C665 H677 0.929 . S
C666 C662 1.531 . S
C666 H678 0.960 . S
C666 H679 0.939 1_455 S
C666 H680 0.960 . S
C667 C664 1.511 . S
C667 H681 0.961 . S
C667 H682 0.961 . S
C667 H683 0.961 . S
C668 C669 1.370 . S
C668 C670 1.363 . S
C668 H684 0.931 . S
C669 C668 1.370 . S
C669 C673 1.408 . S
C670 C668 1.363 . S
C670 C671 1.370 . S
C670 C674 1.524 . S
C671 C663 1.503 . S
C671 C670 1.370 . S
C671 C672 1.403 . S
C672 C671 1.403 . S
C672 C673 1.404 . S
C672 C675 1.539 . S
C673 C669 1.408 . S
C673 C672 1.404 . S
C673 H685 0.930 . S
C674 C670 1.524 . S
C674 H686 0.956 . S
C674 H687 0.961 . S
C674 H688 0.961 . S
C675 C672 1.539 . S
C675 H689 0.958 . S
C675 H690 0.961 . S
C675 H691 0.960 . S
H676 C660 0.931 . S
H677 C665 0.929 . S
H678 C666 0.960 . S
H679 C666 0.939 1_655 S
H680 C666 0.960 . S
H681 C667 0.961 . S
H682 C667 0.961 . S
H683 C667 0.961 . S
H684 C668 0.931 . S
H685 C673 0.930 . S
H686 C674 0.956 . S
H687 C674 0.961 . S
H688 C674 0.961 . S
H689 C675 0.958 . S
H690 C675 0.961 . S
H691 C675 0.960 . S
C692 C693 1.391 . S
C692 C694 1.394 . S
C692 H708 0.931 . S
C693 C692 1.391 . S
C693 C697 1.376 . S
C694 C692 1.394 . S
C694 C695 1.369 . S
C694 C698 1.531 1_565 S
C695 C694 1.369 . S
C695 C696 1.410 . S
C695 C703 1.503 . S
C696 C695 1.410 . S
C696 C697 1.392 . S
C696 C699 1.511 . S
C697 C693 1.376 . S
C697 C696 1.392 . S
C697 H709 0.929 . S
C698 C694 1.531 1_545 S
C698 H710 0.960 . S
C698 H711 0.962 . S
C698 H712 0.960 . S
C699 C696 1.511 . S
C699 H713 0.961 . S
C699 H714 0.961 . S
C699 H715 0.961 . S
C700 C701 1.370 . S
C700 C702 1.363 . S
C700 H716 0.931 1_556 S
C701 C700 1.370 . S
C701 C705 1.408 . S
C702 C700 1.363 . S
C702 C703 1.370 . S
C702 C706 1.524 1_556 S
C703 C695 1.503 . S
C703 C702 1.370 . S
C703 C704 1.403 . S
C704 C703 1.403 . S
C704 C705 1.404 . S
C704 C707 1.539 . S
C705 C701 1.408 . S
C705 C704 1.404 . S
C705 H717 0.932 . S
C706 C702 1.524 1_554 S
C706 H718 0.956 . S
C706 H719 0.961 1_554 S
C706 H720 0.961 . S
C707 C704 1.539 . S
C707 H721 0.958 1_565 S
C707 H722 0.961 . S
C707 H723 0.960 . S
H708 C692 0.931 . S
H709 C697 0.929 . S
H710 C698 0.960 . S
H711 C698 0.962 . S
H712 C698 0.960 . S
H713 C699 0.961 . S
H714 C699 0.961 . S
H715 C699 0.961 . S
H716 C700 0.931 1_554 S
H717 C705 0.932 . S
H718 C706 0.956 . S
H719 C706 0.961 1_556 S
H720 C706 0.961 . S
H721 C707 0.958 1_545 S
H722 C707 0.961 . S
H723 C707 0.960 . S
C724 C725 1.391 . S
C724 C726 1.394 . S
C724 H740 0.931 . S
C725 C724 1.391 . S
C725 C729 1.376 . S
C726 C724 1.394 . S
C726 C727 1.369 . S
C726 C730 1.531 . S
C727 C726 1.369 . S
C727 C728 1.410 . S
C727 C735 1.503 . S
C728 C727 1.410 . S
C728 C729 1.392 . S
C728 C731 1.511 . S
C729 C725 1.376 . S
C729 C728 1.392 . S
C729 H741 0.929 . S
C730 C726 1.531 . S
C730 H742 0.960 . S
C730 H743 0.962 . S
C730 H744 0.960 . S
C731 C728 1.511 . S
C731 H745 0.961 . S
C731 H746 0.961 . S
C731 H747 0.961 . S
C732 C733 1.370 . S
C732 C734 1.363 . S
C732 H748 0.931 . S
C733 C732 1.370 . S
C733 C737 1.408 . S
C734 C732 1.363 . S
C734 C735 1.370 . S
C734 C738 1.524 . S
C735 C727 1.503 . S
C735 C734 1.370 . S
C735 C736 1.403 . S
C736 C735 1.403 . S
C736 C737 1.404 . S
C736 C739 1.539 . S
C737 C733 1.408 . S
C737 C736 1.404 . S
C737 H749 0.930 . S
C738 C734 1.524 . S
C738 H750 0.956 . S
C738 H751 0.961 . S
C738 H752 0.961 . S
C739 C736 1.539 . S
C739 H753 0.958 . S
C739 H754 0.961 . S
C739 H755 0.960 . S
H740 C724 0.931 . S
H741 C729 0.929 . S
H742 C730 0.960 . S
H743 C730 0.962 . S
H744 C730 0.960 . S
H745 C731 0.961 . S
H746 C731 0.961 . S
H747 C731 0.961 . S
H748 C732 0.931 . S
H749 C737 0.930 . S
H750 C738 0.956 . S
H751 C738 0.961 . S
H752 C738 0.961 . S
H753 C739 0.958 . S
H754 C739 0.961 . S
H755 C739 0.960 . S
C756 C757 1.391 . S
C756 C758 1.394 . S
C756 H772 0.931 . S
C757 C756 1.391 . S
C757 C761 1.376 . S
C758 C756 1.394 . S
C758 C759 1.369 . S
C758 C762 1.531 . S
C759 C758 1.369 . S
C759 C760 1.410 . S
C759 C767 1.503 . S
C760 C759 1.410 . S
C760 C761 1.392 . S
C760 C763 1.511 . S
C761 C757 1.376 . S
C761 C760 1.392 . S
C761 H773 0.929 . S
C762 C758 1.531 . S
C762 H774 0.960 . S
C762 H775 0.962 . S
C762 H776 0.960 . S
C763 C760 1.511 . S
C763 H777 0.961 . S
C763 H778 0.961 . S
C763 H779 0.961 . S
C764 C765 1.370 . S
C764 C766 1.363 . S
C764 H780 0.931 . S
C765 C764 1.370 . S
C765 C769 1.408 . S
C766 C764 1.363 . S
C766 C767 1.370 . S
C766 C770 1.524 . S
C767 C759 1.503 . S
C767 C766 1.370 . S
C767 C768 1.403 . S
C768 C767 1.403 . S
C768 C769 1.404 . S
C768 C771 1.539 . S
C769 C765 1.408 . S
C769 C768 1.404 . S
C769 H781 0.930 . S
C770 C766 1.524 . S
C770 H782 0.956 . S
C770 H783 0.961 . S
C770 H784 0.961 . S
C771 C768 1.539 . S
C771 H785 0.958 . S
C771 H786 0.961 1_554 S
C771 H787 0.960 . S
H772 C756 0.931 . S
H773 C761 0.929 . S
H774 C762 0.960 . S
H775 C762 0.962 . S
H776 C762 0.960 . S
H777 C763 0.961 . S
H778 C763 0.961 . S
H779 C763 0.961 . S
H780 C764 0.931 . S
H781 C769 0.930 . S
H782 C770 0.956 . S
H783 C770 0.961 . S
H784 C770 0.961 . S
H785 C771 0.958 . S
H786 C771 0.961 1_556 S
H787 C771 0.960 . S
C788 C789 1.391 . S
C788 C790 1.394 . S
C788 H804 0.931 . S
C789 C788 1.391 . S
C789 C793 1.376 . S
C790 C788 1.394 . S
C790 C791 1.369 . S
C790 C794 1.531 . S
C791 C790 1.369 . S
C791 C792 1.410 . S
C791 C799 1.503 . S
C792 C791 1.410 . S
C792 C793 1.392 . S
C792 C795 1.511 . S
C793 C789 1.376 . S
C793 C792 1.392 . S
C793 H805 0.929 . S
C794 C790 1.531 . S
C794 H806 0.960 . S
C794 H807 0.962 . S
C794 H808 0.960 . S
C795 C792 1.511 . S
C795 H809 0.961 . S
C795 H810 0.961 . S
C795 H811 0.961 . S
C796 C797 1.370 . S
C796 C798 1.363 . S
C796 H812 0.931 . S
C797 C796 1.370 . S
C797 C801 1.408 . S
C798 C796 1.363 . S
C798 C799 1.370 . S
C798 C802 1.524 . S
C799 C791 1.503 . S
C799 C798 1.370 . S
C799 C800 1.403 . S
C800 C799 1.403 . S
C800 C801 1.404 . S
C800 C803 1.539 . S
C801 C797 1.408 . S
C801 C800 1.404 . S
C801 H813 0.930 . S
C802 C798 1.524 . S
C802 H814 0.956 . S
C802 H815 0.961 . S
C802 H816 0.961 . S
C803 C800 1.539 . S
C803 H817 0.958 . S
C803 H818 0.961 . S
C803 H819 0.960 . S
H804 C788 0.931 . S
H805 C793 0.929 . S
H806 C794 0.960 . S
H807 C794 0.962 . S
H808 C794 0.960 . S
H809 C795 0.961 . S
H810 C795 0.961 . S
H811 C795 0.961 . S
H812 C796 0.931 . S
H813 C801 0.930 . S
H814 C802 0.956 . S
H815 C802 0.961 . S
H816 C802 0.961 . S
H817 C803 0.958 . S
H818 C803 0.961 . S
H819 C803 0.960 . S
C820 C821 1.391 . S
C820 C822 1.394 . S
C820 H836 0.931 . S
C821 C820 1.391 . S
C821 C825 1.376 . S
C822 C820 1.394 . S
C822 C823 1.369 . S
C822 C826 1.531 . S
C823 C822 1.369 . S
C823 C824 1.410 . S
C823 C831 1.503 . S
C824 C823 1.410 . S
C824 C825 1.392 . S
C824 C827 1.511 . S
C825 C821 1.376 . S
C825 C824 1.392 . S
C825 H837 0.929 . S
C826 C822 1.531 . S
C826 H838 0.960 . S
C826 H839 0.962 1_556 S
C826 H840 0.961 . S
C827 C824 1.511 . S
C827 H841 0.961 1_655 S
C827 H842 0.961 1_655 S
C827 H843 0.961 . S
C828 C829 1.370 . S
C828 C830 1.363 . S
C828 H844 0.931 1_656 S
C829 C828 1.370 . S
C829 C833 1.408 . S
C830 C828 1.363 . S
C830 C831 1.370 . S
C830 C834 1.525 1_655 S
C831 C823 1.503 . S
C831 C830 1.370 . S
C831 C832 1.403 . S
C832 C831 1.403 . S
C832 C833 1.404 . S
C832 C835 1.539 . S
C833 C829 1.408 . S
C833 C832 1.404 . S
C833 H845 0.930 . S
C834 C830 1.525 1_455 S
C834 H846 0.920 1_456 S
C834 H847 0.988 . S
C834 H848 0.971 1_556 S
C835 C832 1.539 . S
C835 H849 0.958 . S
C835 H850 0.961 . S
C835 H851 0.960 . S
H836 C820 0.931 . S
H837 C825 0.929 . S
H838 C826 0.960 . S
H839 C826 0.962 1_554 S
H840 C826 0.961 . S
H841 C827 0.961 1_455 S
H842 C827 0.961 1_455 S
H843 C827 0.961 . S
H844 C828 0.931 1_454 S
H845 C833 0.930 . S
H846 C834 0.920 1_654 S
H847 C834 0.988 . S
H848 C834 0.971 1_554 S
H849 C835 0.958 . S
H850 C835 0.961 . S
H851 C835 0.960 . S
C852 C853 1.391 . S
C852 C854 1.394 . S
C852 H868 0.931 . S
C853 C852 1.391 . S
C853 C857 1.376 . S
C854 C852 1.394 . S
C854 C855 1.369 . S
C854 C858 1.531 . S
C855 C854 1.369 . S
C855 C856 1.410 . S
C855 C863 1.503 . S
C856 C855 1.410 . S
C856 C857 1.392 . S
C856 C859 1.511 . S
C857 C853 1.376 . S
C857 C856 1.392 . S
C857 H869 0.929 . S
C858 C854 1.531 . S
C858 H870 0.960 . S
C858 H871 0.962 . S
C858 H872 0.960 . S
C859 C856 1.511 . S
C859 H873 0.961 . S
C859 H874 0.961 . S
C859 H875 0.961 . S
C860 C861 1.370 . S
C860 C862 1.363 . S
C860 H876 0.931 . S
C861 C860 1.370 . S
C861 C865 1.408 . S
C862 C860 1.363 . S
C862 C863 1.370 . S
C862 C866 1.524 . S
C863 C855 1.503 . S
C863 C862 1.370 . S
C863 C864 1.403 . S
C864 C863 1.403 . S
C864 C865 1.404 . S
C864 C867 1.539 . S
C865 C861 1.408 . S
C865 C864 1.404 . S
C865 H877 0.930 . S
C866 C862 1.524 . S
C866 H878 0.956 . S
C866 H879 0.961 . S
C866 H880 0.961 . S
C867 C864 1.539 . S
C867 H881 0.958 . S
C867 H882 0.961 . S
C867 H883 0.960 . S
H868 C852 0.931 . S
H869 C857 0.929 . S
H870 C858 0.960 . S
H871 C858 0.962 . S
H872 C858 0.960 . S
H873 C859 0.961 . S
H874 C859 0.961 . S
H875 C859 0.961 . S
H876 C860 0.931 . S
H877 C865 0.930 . S
H878 C866 0.956 . S
H879 C866 0.961 . S
H880 C866 0.961 . S
H881 C867 0.958 . S
H882 C867 0.961 . S
H883 C867 0.960 . S
C884 C885 1.391 . S
C884 C886 1.394 . S
C884 H900 0.931 . S
C885 C884 1.391 . S
C885 C889 1.376 . S
C886 C884 1.394 . S
C886 C887 1.369 . S
C886 C890 1.531 . S
C887 C886 1.369 . S
C887 C888 1.410 . S
C887 C895 1.503 . S
C888 C887 1.410 . S
C888 C889 1.392 . S
C888 C891 1.511 . S
C889 C885 1.376 . S
C889 C888 1.392 . S
C889 H901 0.929 . S
C890 C886 1.531 . S
C890 H902 0.960 . S
C890 H903 0.962 . S
C890 H904 0.960 . S
C891 C888 1.511 . S
C891 H905 0.961 . S
C891 H906 0.961 . S
C891 H907 0.961 . S
C892 C893 1.370 . S
C892 C894 1.363 . S
C892 H908 0.931 . S
C893 C892 1.370 . S
C893 C897 1.408 . S
C894 C892 1.363 . S
C894 C895 1.370 . S
C894 C898 1.524 . S
C895 C887 1.503 . S
C895 C894 1.370 . S
C895 C896 1.403 . S
C896 C895 1.403 . S
C896 C897 1.404 . S
C896 C899 1.539 1_455 S
C897 C893 1.408 . S
C897 C896 1.404 . S
C897 H909 0.930 1_455 S
C898 C894 1.524 . S
C898 H910 0.956 . S
C898 H911 0.961 . S
C898 H912 0.961 . S
C899 C896 1.539 1_655 S
C899 H913 0.958 1_655 S
C899 H914 0.961 . S
C899 H915 0.960 1_655 S
H900 C884 0.931 . S
H901 C889 0.929 . S
H902 C890 0.960 . S
H903 C890 0.962 . S
H904 C890 0.960 . S
H905 C891 0.961 . S
H906 C891 0.961 . S
H907 C891 0.961 . S
H908 C892 0.931 . S
H909 C897 0.930 1_655 S
H910 C898 0.956 . S
H911 C898 0.961 . S
H912 C898 0.961 . S
H913 C899 0.958 1_455 S
H914 C899 0.961 . S
H915 C899 0.960 1_455 S
C916 C917 1.391 . S
C916 C918 1.394 . S
C916 H932 0.931 . S
C917 C916 1.391 . S
C917 C921 1.376 . S
C918 C916 1.394 . S
C918 C919 1.369 . S
C918 C922 1.531 . S
C919 C918 1.369 . S
C919 C920 1.410 . S
C919 C927 1.503 . S
C920 C919 1.410 . S
C920 C921 1.392 . S
C920 C923 1.511 . S
C921 C917 1.376 . S
C921 C920 1.392 . S
C921 H933 0.929 . S
C922 C918 1.531 . S
C922 H934 0.960 . S
C922 H935 0.962 . S
C922 H936 0.960 . S
C923 C920 1.511 . S
C923 H937 0.961 . S
C923 H938 0.961 . S
C923 H939 0.961 . S
C924 C925 1.370 . S
C924 C926 1.363 . S
C924 H940 0.931 . S
C925 C924 1.370 . S
C925 C929 1.408 . S
C926 C924 1.363 . S
C926 C927 1.370 . S
C926 C930 1.524 . S
C927 C919 1.503 . S
C927 C926 1.370 . S
C927 C928 1.403 . S
C928 C927 1.403 . S
C928 C929 1.404 . S
C928 C931 1.539 . S
C929 C925 1.408 . S
C929 C928 1.404 . S
C929 H941 0.930 . S
C930 C926 1.524 . S
C930 H942 0.956 . S
C930 H943 0.961 . S
C930 H944 0.961 . S
C931 C928 1.539 . S
C931 H945 0.958 . S
C931 H946 0.961 . S
C931 H947 0.960 . S
H932 C916 0.931 . S
H933 C921 0.929 . S
H934 C922 0.960 . S
H935 C922 0.962 . S
H936 C922 0.960 . S
H937 C923 0.961 . S
H938 C923 0.961 . S
H939 C923 0.961 . S
H940 C924 0.931 . S
H941 C929 0.930 . S
H942 C930 0.956 . S
H943 C930 0.961 . S
H944 C930 0.961 . S
H945 C931 0.958 . S
H946 C931 0.961 . S
H947 C931 0.960 . S
C181 C6 1.737 . S
C189 C112 1.701 . S
C213 C18 1.737 . S
C221 C134 1.698 . S
C253 C153 1.262 . S
C245 C28 1.464 . S
C277 C40 1.283 . S
C285 C174 1.074 . S
C317 C131 1.960 . S
C309 C9 2.008 . S
C349 C109 1.609 . S
C341 C16 1.654 . S
C381 C176 1.313 . S
C373 C30 1.376 . S
C413 C155 1.129 . S
C405 C42 1.163 . S
C437 C4 1.651 . S
C445 C173 1.599 . S
C477 C132 1.401 . S
C469 C33 1.638 . S
C501 C45 1.427 . S
C509 C114 1.240 . S
C533 C21 1.724 . S
C541 C152 1.695 . S
C573 C110 1.736 . S
C565 C57 1.804 . S
C597 C66 1.601 . S
C605 C130 1.562 . S
C629 C76 1.567 . S
C637 C156 1.306 . S
C661 C88 1.109 . S
C669 C177 0.978 . S
C693 C54 1.926 . S
C701 C133 1.877 . S
C733 C113 1.729 . S
C725 C64 1.766 . S
C765 C172 1.154 . S
C757 C78 1.188 . S
C797 C151 1.244 . S
C789 C93 1.252 . S
C821 C52 1.447 . S
C829 C175 1.405 . S
C861 C135 1.342 . S
C853 C81 1.583 . S
C893 C111 1.105 . S
C885 C90 1.244 . S
C917 C69 1.674 . S
C925 C154 1.654 . S
