# Generated by pormake.
# Topology ctn, (3,4)-cn, num edge types: 1
# Building blocks:
#     Node 0, Type 0, BuildingBlock: PAMTOO_clean_linker_0, # of connection points: 3
#     Node 1, Type 0, BuildingBlock: PAMTOO_clean_linker_0, # of connection points: 3
#     Node 2, Type 0, BuildingBlock: PAMTOO_clean_linker_0, # of connection points: 3
#     Node 3, Type 0, BuildingBlock: PAMTOO_clean_linker_0, # of connection points: 3
#     Node 4, Type 0, BuildingBlock: PAMTOO_clean_linker_0, # of connection points: 3
#     Node 5, Type 0, BuildingBlock: PAMTOO_clean_linker_0, # of connection points: 3
#     Node 6, Type 0, BuildingBlock: PAMTOO_clean_linker_0, # of connection points: 3
#     Node 7, Type 0, BuildingBlock: PAMTOO_clean_linker_0, # of connection points: 3
#     Node 8, Type 0, BuildingBlock: PAMTOO_clean_linker_0, # of connection points: 3
#     Node 9, Type 0, BuildingBlock: PAMTOO_clean_linker_0, # of connection points: 3
#     Node 10, Type 0, BuildingBlock: PAMTOO_clean_linker_0, # of connection points: 3
#     Node 11, Type 0, BuildingBlock: PAMTOO_clean_linker_0, # of connection points: 3
#     Node 12, Type 0, BuildingBlock: PAMTOO_clean_linker_0, # of connection points: 3
#     Node 13, Type 0, BuildingBlock: PAMTOO_clean_linker_0, # of connection points: 3
#     Node 14, Type 0, BuildingBlock: PAMTOO_clean_linker_0, # of connection points: 3
#     Node 15, Type 0, BuildingBlock: PAMTOO_clean_linker_0, # of connection points: 3
#     Node 16, Type 1, BuildingBlock: QUQFOY_clean_sbu_1, # of connection points: 4
#     Node 17, Type 1, BuildingBlock: QUQFOY_clean_sbu_1, # of connection points: 4
#     Node 18, Type 1, BuildingBlock: QUQFOY_clean_sbu_1, # of connection points: 4
#     Node 19, Type 1, BuildingBlock: QUQFOY_clean_sbu_1, # of connection points: 4
#     Node 20, Type 1, BuildingBlock: QUQFOY_clean_sbu_1, # of connection points: 4
#     Node 21, Type 1, BuildingBlock: QUQFOY_clean_sbu_1, # of connection points: 4
#     Node 22, Type 1, BuildingBlock: QUQFOY_clean_sbu_1, # of connection points: 4
#     Node 23, Type 1, BuildingBlock: QUQFOY_clean_sbu_1, # of connection points: 4
#     Node 24, Type 1, BuildingBlock: QUQFOY_clean_sbu_1, # of connection points: 4
#     Node 25, Type 1, BuildingBlock: QUQFOY_clean_sbu_1, # of connection points: 4
#     Node 26, Type 1, BuildingBlock: QUQFOY_clean_sbu_1, # of connection points: 4
#     Node 27, Type 1, BuildingBlock: QUQFOY_clean_sbu_1, # of connection points: 4
#     Edge 28, Type (0, 1), BuildingBlock: XIVTED_clean_linker_0, # of connection points: 2
#     Edge 29, Type (0, 1), BuildingBlock: XIVTED_clean_linker_0, # of connection points: 2
#     Edge 30, Type (0, 1), BuildingBlock: XIVTED_clean_linker_0, # of connection points: 2
#     Edge 31, Type (0, 1), BuildingBlock: XIVTED_clean_linker_0, # of connection points: 2
#     Edge 32, Type (0, 1), BuildingBlock: XIVTED_clean_linker_0, # of connection points: 2
#     Edge 33, Type (0, 1), BuildingBlock: XIVTED_clean_linker_0, # of connection points: 2
#     Edge 34, Type (0, 1), BuildingBlock: XIVTED_clean_linker_0, # of connection points: 2
#     Edge 35, Type (0, 1), BuildingBlock: XIVTED_clean_linker_0, # of connection points: 2
#     Edge 36, Type (0, 1), BuildingBlock: XIVTED_clean_linker_0, # of connection points: 2
#     Edge 37, Type (0, 1), BuildingBlock: XIVTED_clean_linker_0, # of connection points: 2
#     Edge 38, Type (0, 1), BuildingBlock: XIVTED_clean_linker_0, # of connection points: 2
#     Edge 39, Type (0, 1), BuildingBlock: XIVTED_clean_linker_0, # of connection points: 2
#     Edge 40, Type (0, 1), BuildingBlock: XIVTED_clean_linker_0, # of connection points: 2
#     Edge 41, Type (0, 1), BuildingBlock: XIVTED_clean_linker_0, # of connection points: 2
#     Edge 42, Type (0, 1), BuildingBlock: XIVTED_clean_linker_0, # of connection points: 2
#     Edge 43, Type (0, 1), BuildingBlock: XIVTED_clean_linker_0, # of connection points: 2
#     Edge 44, Type (0, 1), BuildingBlock: XIVTED_clean_linker_0, # of connection points: 2
#     Edge 45, Type (0, 1), BuildingBlock: XIVTED_clean_linker_0, # of connection points: 2
#     Edge 46, Type (0, 1), BuildingBlock: XIVTED_clean_linker_0, # of connection points: 2
#     Edge 47, Type (0, 1), BuildingBlock: XIVTED_clean_linker_0, # of connection points: 2
#     Edge 48, Type (0, 1), BuildingBlock: XIVTED_clean_linker_0, # of connection points: 2
#     Edge 49, Type (0, 1), BuildingBlock: XIVTED_clean_linker_0, # of connection points: 2
#     Edge 50, Type (0, 1), BuildingBlock: XIVTED_clean_linker_0, # of connection points: 2
#     Edge 51, Type (0, 1), BuildingBlock: XIVTED_clean_linker_0, # of connection points: 2
#     Edge 52, Type (0, 1), BuildingBlock: XIVTED_clean_linker_0, # of connection points: 2
#     Edge 53, Type (0, 1), BuildingBlock: XIVTED_clean_linker_0, # of connection points: 2
#     Edge 54, Type (0, 1), BuildingBlock: XIVTED_clean_linker_0, # of connection points: 2
#     Edge 55, Type (0, 1), BuildingBlock: XIVTED_clean_linker_0, # of connection points: 2
#     Edge 56, Type (0, 1), BuildingBlock: XIVTED_clean_linker_0, # of connection points: 2
#     Edge 57, Type (0, 1), BuildingBlock: XIVTED_clean_linker_0, # of connection points: 2
#     Edge 58, Type (0, 1), BuildingBlock: XIVTED_clean_linker_0, # of connection points: 2
#     Edge 59, Type (0, 1), BuildingBlock: XIVTED_clean_linker_0, # of connection points: 2
#     Edge 60, Type (0, 1), BuildingBlock: XIVTED_clean_linker_0, # of connection points: 2
#     Edge 61, Type (0, 1), BuildingBlock: XIVTED_clean_linker_0, # of connection points: 2
#     Edge 62, Type (0, 1), BuildingBlock: XIVTED_clean_linker_0, # of connection points: 2
#     Edge 63, Type (0, 1), BuildingBlock: XIVTED_clean_linker_0, # of connection points: 2
#     Edge 64, Type (0, 1), BuildingBlock: XIVTED_clean_linker_0, # of connection points: 2
#     Edge 65, Type (0, 1), BuildingBlock: XIVTED_clean_linker_0, # of connection points: 2
#     Edge 66, Type (0, 1), BuildingBlock: XIVTED_clean_linker_0, # of connection points: 2
#     Edge 67, Type (0, 1), BuildingBlock: XIVTED_clean_linker_0, # of connection points: 2
#     Edge 68, Type (0, 1), BuildingBlock: XIVTED_clean_linker_0, # of connection points: 2
#     Edge 69, Type (0, 1), BuildingBlock: XIVTED_clean_linker_0, # of connection points: 2
#     Edge 70, Type (0, 1), BuildingBlock: XIVTED_clean_linker_0, # of connection points: 2
#     Edge 71, Type (0, 1), BuildingBlock: XIVTED_clean_linker_0, # of connection points: 2
#     Edge 72, Type (0, 1), BuildingBlock: XIVTED_clean_linker_0, # of connection points: 2
#     Edge 73, Type (0, 1), BuildingBlock: XIVTED_clean_linker_0, # of connection points: 2
#     Edge 74, Type (0, 1), BuildingBlock: XIVTED_clean_linker_0, # of connection points: 2
#     Edge 75, Type (0, 1), BuildingBlock: XIVTED_clean_linker_0, # of connection points: 2
# Relax obj value: 0.092
# Max RMSD: 0.209
# Mean RMSD: 0.144
data_MOF--net-ctn--node1-QUQFOY_clean_sbu_1--node2-PAMTOO_clean_linker_0--edge1-XIVTED_clean_linker_0
_symmetry_space_group_name_H-M    P1
_symmetry_Int_Tables_number       1
_symmetry_cell_setting            triclinic
loop_
_symmetry_equiv_pos_as_xyz
'x, y, z'
_cell_length_a     54.211895
_cell_length_b     54.299867
_cell_length_c     55.215622
_cell_angle_alpha  87.622927
_cell_angle_beta   92.762127
_cell_angle_gamma 102.82494
loop_
_atom_site_label
_atom_site_type_symbol
_atom_site_fract_x
_atom_site_fract_y
_atom_site_fract_z
_atom_type_partial_charge
H0 H 0.02004 0.10166 0.05196 0.0
H1 H 0.06255 0.0466 0.07694 0.0
H2 H 0.07013 0.07782 0.00431 0.0
H3 H 0.06019 0.02083 0.01261 0.0
C4 C 0.07414 0.02079 0.02809 0.0
O5 O 0.08359 0.0451 0.03565 0.0
H6 H 0.06408 0.00909 0.04315 0.0
C7 C 0.03371 0.0904 0.04887 0.0
C8 C 0.04453 0.09201 0.0261 0.0
C9 C 0.04002 0.07419 0.06748 0.0
C10 C 0.0574 0.05934 0.06296 0.0
C11 C 0.06802 0.06052 0.04017 0.0
C12 C 0.0619 0.0771 0.02189 0.0
H13 H 0.30794 0.71741 0.25031 0.0
H14 H 0.2592 0.73912 0.19334 0.0
H15 H 0.32826 0.79046 0.21412 0.0
H16 H 0.28583 0.81443 0.20352 0.0
C17 C 0.27553 0.80196 0.18911 0.0
O18 O 0.2883 0.78336 0.18483 0.0
H19 H 0.25621 0.79318 0.19527 0.0
C20 C 0.30383 0.73116 0.23684 0.0
C21 C 0.32084 0.75469 0.23434 0.0
C22 C 0.28156 0.72513 0.22213 0.0
C23 C 0.27631 0.74314 0.2048 0.0
C24 C 0.29306 0.76663 0.20217 0.0
C25 C 0.31529 0.77236 0.21677 0.0
H26 H 0.95221 0.50337 0.08107 0.0
H27 H 0.881 0.46134 0.05212 0.0
H28 H 0.93806 0.42213 0.07795 0.0
H29 H 0.88274 0.42452 0.02362 0.0
C30 C 0.88584 0.40873 0.03608 0.0
O31 O 0.89196 0.41707 0.05934 0.0
H32 H 0.86742 0.39481 0.03626 0.0
C33 C 0.94003 0.48547 0.07614 0.0
C34 C 0.94827 0.46284 0.08087 0.0
C35 C 0.916 0.48519 0.06542 0.0
C36 C 0.89988 0.46196 0.05984 0.0
C37 C 0.90796 0.43935 0.06415 0.0
C38 C 0.93214 0.43978 0.07448 0.0
H39 H 0.72083 0.86384 0.29795 0.0
H40 H 0.68997 0.78923 0.27194 0.0
H41 H 0.76011 0.83199 0.24545 0.0
H42 H 0.71839 0.81012 0.21044 0.0
C43 C 0.71382 0.79073 0.21885 0.0
O44 O 0.72567 0.79037 0.24151 0.0
H45 H 0.69297 0.78515 0.22084 0.0
C46 C 0.72238 0.84826 0.28692 0.0
C47 C 0.7431 0.85078 0.27193 0.0
C48 C 0.70314 0.82613 0.28727 0.0
C49 C 0.70494 0.80616 0.27257 0.0
C50 C 0.72534 0.80856 0.25737 0.0
C51 C 0.74448 0.83059 0.25731 0.0
H52 H 0.11143 0.97926 0.51256 0.0
H53 H 0.04135 0.97585 0.47103 0.0
H54 H 0.1071 0.03186 0.45278 0.0
H55 H 0.06444 0.05195 0.45165 0.0
C56 C 0.04897 0.03513 0.448 0.0
O57 O 0.05916 0.01484 0.44296 0.0
H58 H 0.03746 0.03051 0.46443 0.0
C59 C 0.10079 0.98591 0.49753 0.0
C60 C 0.11267 0.00654 0.48289 0.0
C61 C 0.07501 0.97459 0.49355 0.0
C62 C 0.06125 0.98407 0.47448 0.0
C63 C 0.07295 0.00459 0.45992 0.0
C64 C 0.09862 0.01546 0.4638 0.0
H65 H 0.17732 0.77783 0.78328 0.0
H66 H 0.20072 0.73511 0.72838 0.0
H67 H 0.24418 0.74754 0.79548 0.0
H68 H 0.27208 0.75582 0.75048 0.0
C69 C 0.26301 0.73737 0.74242 0.0
O70 O 0.24059 0.7268 0.75337 0.0
H71 H 0.25902 0.74077 0.72277 0.0
C72 C 0.19046 0.76712 0.77737 0.0
C73 C 0.21128 0.76422 0.79251 0.0
C74 C 0.1863 0.75649 0.75443 0.0
C75 C 0.2038 0.74365 0.74597 0.0
C76 C 0.22471 0.74066 0.76082 0.0
C77 C 0.22829 0.75069 0.78405 0.0
H78 H 0.92876 0.60307 0.47478 0.0
H79 H 0.96702 0.56856 0.42354 0.0
H80 H 0.00648 0.63549 0.45917 0.0
H81 H 0.03015 0.63196 0.40873 0.0
C82 C 0.01496 0.61479 0.40573 0.0
O83 O 0.00979 0.60197 0.42766 0.0
H84 H -0.00202 0.62106 0.39776 0.0
C85 C 0.94538 0.60315 0.46456 0.0
C86 C 0.96747 0.62178 0.46872 0.0
C87 C 0.94504 0.58372 0.44849 0.0
C88 C 0.96694 0.58337 0.43608 0.0
C89 C 0.98887 0.60223 0.43978 0.0
C90 C 0.98925 0.62119 0.45626 0.0
H91 H 0.76566 0.83398 0.865 0.0
H92 H 0.81417 0.79101 0.83476 0.0
H93 H 0.77877 0.83912 0.78843 0.0
H94 H 0.78124 0.79089 0.76707 0.0
C95 C 0.79896 0.7879 0.77657 0.0
O96 O 0.80936 0.80827 0.79062 0.0
H97 H 0.79419 0.77035 0.78816 0.0
C98 C 0.77452 0.82839 0.84959 0.0
C99 C 0.76985 0.83838 0.82632 0.0
C100 C 0.79056 0.81128 0.85304 0.0
C101 C 0.80201 0.8044 0.83281 0.0
C102 C 0.79758 0.81437 0.8097 0.0
C103 C 0.78159 0.83126 0.80645 0.0
H104 H 0.25638 0.34355 0.36156 0.0
H105 H 0.30781 0.30192 0.33444 0.0
H106 H 0.27041 0.34575 0.28521 0.0
H107 H 0.2753 0.29709 0.26586 0.0
C108 C 0.29251 0.29474 0.27672 0.0
O109 O 0.30229 0.31626 0.28945 0.0
H110 H 0.28698 0.27816 0.28944 0.0
C111 C 0.26586 0.33783 0.34662 0.0
C112 C 0.26099 0.34648 0.32285 0.0
C113 C 0.28285 0.32182 0.35119 0.0
C114 C 0.29498 0.31458 0.3316 0.0
C115 C 0.29024 0.32308 0.30799 0.0
C116 C 0.27341 0.33899 0.30362 0.0
H117 H 0.44229 0.01796 0.6064 0.0
H118 H 0.38889 0.98661 0.5498 0.0
H119 H 0.44009 0.94314 0.5817 0.0
H120 H 0.41983 0.96591 0.51886 0.0
C121 C 0.40909 0.94651 0.5239 0.0
O122 O 0.40409 0.94425 0.54829 0.0
H123 H 0.39079 0.94374 0.51329 0.0
C124 C 0.43415 0.00239 0.59473 0.0
C125 C 0.44296 0.97989 0.59684 0.0
C126 C 0.41477 0.00497 0.57784 0.0
C127 C 0.40394 0.98483 0.56295 0.0
C128 C 0.41362 0.96289 0.56385 0.0
C129 C 0.43319 0.96043 0.58071 0.0
H130 H 0.21148 0.35889 0.79551 0.0
H131 H 0.193 0.28021 0.77762 0.0
H132 H 0.2543 0.33084 0.74354 0.0
H133 H 0.21036 0.30021 0.71329 0.0
C134 C 0.21112 0.28175 0.72253 0.0
O135 O 0.22577 0.28545 0.74378 0.0
H136 H 0.19149 0.27201 0.72704 0.0
C137 C 0.21553 0.3432 0.78615 0.0
C138 C 0.23553 0.34782 0.77008 0.0
C139 C 0.20006 0.31889 0.7894 0.0
C140 C 0.20458 0.29914 0.77575 0.0
C141 C 0.22361 0.30378 0.75883 0.0
C142 C 0.23933 0.32785 0.75636 0.0
H143 H 0.80731 0.21264 0.75126 0.0
H144 H 0.75895 0.23417 0.69382 0.0
H145 H 0.82381 0.28815 0.72014 0.0
H146 H 0.78141 0.31005 0.70584 0.0
C147 C 0.77212 0.297 0.69145 0.0
O148 O 0.78652 0.27963 0.68765 0.0
H149 H 0.75304 0.28702 0.69737 0.0
C150 C 0.8023 0.22683 0.73878 0.0
C151 C 0.81769 0.25133 0.73839 0.0
C152 C 0.78075 0.22033 0.72319 0.0
C153 C 0.77541 0.23853 0.70609 0.0
C154 C 0.79117 0.26273 0.70488 0.0
C155 C 0.81217 0.26916 0.721 0.0
H156 H 0.51797 0.61038 0.55582 0.0
H157 H 0.55797 0.55225 0.57736 0.0
H158 H 0.56791 0.58823 0.50682 0.0
H159 H 0.55662 0.53127 0.51069 0.0
C160 C 0.56911 0.52936 0.52695 0.0
O161 O 0.57948 0.55285 0.53608 0.0
H162 H 0.55724 0.51743 0.5408 0.0
C163 C 0.53133 0.59899 0.55208 0.0
C164 C 0.5426 0.60186 0.52945 0.0
C165 C 0.5366 0.58117 0.5696 0.0
C166 C 0.5536 0.5662 0.56424 0.0
C167 C 0.56466 0.56865 0.5416 0.0
C168 C 0.55946 0.58669 0.52437 0.0
H169 H 0.59691 0.47781 0.02301 0.0
H170 H 0.5291 0.46438 0.97678 0.0
H171 H 0.59013 0.52692 0.96098 0.0
H172 H 0.53904 0.5373 0.96059 0.0
C173 C 0.52813 0.51979 0.95198 0.0
O174 O 0.54417 0.50387 0.9484 0.0
H175 H 0.51294 0.51026 0.9642 0.0
C176 C 0.5862 0.48264 0.00713 0.0
C177 C 0.59677 0.50367 0.99237 0.0
C178 C 0.56174 0.46822 0.00181 0.0
C179 C 0.54796 0.47515 0.98139 0.0
C180 C 0.5582 0.49636 0.96693 0.0
C181 C 0.58262 0.51034 0.97218 0.0
H182 H 0.67499 0.27458 0.28637 0.0
H183 H 0.70002 0.22701 0.23692 0.0
H184 H 0.74735 0.25478 0.29897 0.0
H185 H 0.77319 0.25461 0.25478 0.0
C186 C 0.76353 0.23559 0.24833 0.0
O187 O 0.74242 0.22586 0.26157 0.0
H188 H 0.75764 0.2375 0.22889 0.0
C189 C 0.68943 0.26519 0.28091 0.0
C190 C 0.71198 0.26715 0.295 0.0
C191 C 0.68502 0.25092 0.25997 0.0
C192 C 0.70339 0.23841 0.2529 0.0
C193 C 0.7257 0.23962 0.26719 0.0
C194 C 0.72995 0.2539 0.2882 0.0
H195 H 0.4328 0.09383 0.97899 0.0
H196 H 0.48131 0.06162 0.93606 0.0
H197 H 0.51349 0.12195 0.98351 0.0
H198 H 0.55226 0.11996 0.94226 0.0
C199 C 0.53558 0.10676 0.93408 0.0
O200 O 0.5233 0.09121 0.9522 0.0
H201 H 0.52326 0.11864 0.92502 0.0
C202 C 0.45144 0.09378 0.97273 0.0
C203 C 0.47264 0.11034 0.98288 0.0
C204 C 0.45428 0.0759 0.95602 0.0
C205 C 0.47868 0.07528 0.9489 0.0
C206 C 0.49986 0.09204 0.95874 0.0
C207 C 0.49688 0.10931 0.97585 0.0
O208 O 0.25704 0.86794 0.9559 0.0
Cd209 Cd 0.26977 0.89398 0.98207 0.0
Cd210 Cd 0.2412 0.92145 0.95642 0.0
O211 O 0.23158 0.88917 0.9362 0.0
O212 O 0.28553 0.87594 0.00839 0.0
O213 O 0.25229 0.89227 0.01368 0.0
C214 C 0.26891 0.88028 0.02259 0.0
C215 C 0.20935 0.93917 0.97055 0.0
C216 C 0.24107 0.86974 0.9387 0.0
C217 C 0.29709 0.94281 0.95926 0.0
O218 O 0.27575 0.9458 0.95065 0.0
O219 O 0.29856 0.92363 0.97271 0.0
O220 O 0.21528 0.94161 0.9481 0.0
O221 O 0.22132 0.92616 0.98509 0.0
O222 O 0.16579 0.54272 0.26196 0.0
Cd223 Cd 0.14067 0.51079 0.27375 0.0
Cd224 Cd 0.11114 0.52424 0.2354 0.0
O225 O 0.14392 0.55078 0.22906 0.0
O226 O 0.16138 0.49546 0.29809 0.0
O227 O 0.14438 0.47619 0.26484 0.0
C228 C 0.15806 0.4761 0.28464 0.0
C229 C 0.08841 0.5066 0.201 0.0
C230 C 0.16367 0.55603 0.24284 0.0
C231 C 0.09292 0.52579 0.2859 0.0
O232 O 0.08973 0.53076 0.26343 0.0
O233 O 0.11144 0.51643 0.29352 0.0
O234 O 0.0904 0.5299 0.206 0.0
O235 O 0.09937 0.49286 0.21567 0.0
O236 O 0.78733 0.70659 0.02082 0.0
Cd237 Cd 0.77894 0.6813 0.04994 0.0
Cd238 Cd 0.8103 0.65801 0.0218 0.0
O239 O 0.81704 0.69235 0.00341 0.0
O240 O 0.75454 0.69661 0.06654 0.0
O241 O 0.79068 0.69214 0.08419 0.0
C242 C 0.76964 0.69934 0.08535 0.0
C243 C 0.84223 0.63614 0.03066 0.0
C244 C 0.80375 0.70877 0.00472 0.0
C245 C 0.75666 0.63086 0.02782 0.0
O246 O 0.77597 0.63377 0.01504 0.0
O247 O 0.75566 0.64638 0.0441 0.0
O248 O 0.834 0.63926 0.00873 0.0
O249 O 0.83348 0.64705 0.04766 0.0
O250 O 0.94026 0.05435 0.28523 0.0
Cd251 Cd 0.91773 0.04937 0.25389 0.0
Cd252 Cd 0.8875 0.07126 0.28333 0.0
O253 O 0.91799 0.07361 0.30748 0.0
O254 O 0.93921 0.03521 0.23242 0.0
O255 O 0.9283 0.07155 0.22416 0.0
C256 C 0.94035 0.05481 0.21827 0.0
C257 C 0.86939 0.1063 0.27668 0.0
C258 C 0.93743 0.06471 0.30481 0.0
C259 C 0.8659 0.01871 0.26646 0.0
O260 O 0.86355 0.03627 0.28009 0.0
O261 O 0.88529 0.02105 0.2538 0.0
O262 O 0.86664 0.09301 0.29666 0.0
O263 O 0.88289 0.0999 0.26036 0.0
O264 O 0.28596 0.21631 0.51686 0.0
Cd265 Cd 0.28079 0.18941 0.54501 0.0
Cd266 Cd 0.31469 0.17359 0.51888 0.0
O267 O 0.32068 0.20885 0.50244 0.0
O268 O 0.25441 0.19969 0.56351 0.0
O269 O 0.29258 0.19966 0.5793 0.0
C270 C 0.27021 0.20355 0.5818 0.0
C271 C 0.34497 0.15566 0.53893 0.0
C272 C 0.30419 0.22219 0.50255 0.0
C273 C 0.26519 0.13974 0.52004 0.0
O274 O 0.28401 0.14694 0.5067 0.0
O275 O 0.26248 0.15273 0.53792 0.0
O276 O 0.34463 0.15892 0.51563 0.0
O277 O 0.32931 0.16465 0.55108 0.0
O278 O 0.42887 0.54537 0.78381 0.0
Cd279 Cd 0.40764 0.54511 0.75181 0.0
Cd280 Cd 0.38 0.56826 0.78081 0.0
O281 O 0.41011 0.56878 0.8052 0.0
O282 O 0.42862 0.53236 0.72881 0.0
O283 O 0.42012 0.57029 0.72472 0.0
C284 C 0.43127 0.55363 0.71696 0.0
C285 C 0.36419 0.60467 0.77389 0.0
C286 C 0.42746 0.55675 0.80316 0.0
C287 C 0.35485 0.51719 0.76225 0.0
O288 O 0.35416 0.5343 0.77706 0.0
O289 O 0.37383 0.51896 0.74916 0.0
O290 O 0.3606 0.5915 0.79388 0.0
O291 O 0.37734 0.59742 0.75777 0.0
O292 O 0.75077 0.37046 0.45901 0.0
Cd293 Cd 0.76442 0.39497 0.48641 0.0
Cd294 Cd 0.73507 0.42406 0.46324 0.0
O295 O 0.72674 0.39389 0.44042 0.0
O296 O 0.78069 0.37546 0.51107 0.0
O297 O 0.74775 0.39142 0.51859 0.0
C298 C 0.76451 0.37898 0.52618 0.0
C299 C 0.70235 0.44161 0.47577 0.0
C300 C 0.73555 0.374 0.44168 0.0
C301 C 0.79095 0.4457 0.46668 0.0
O302 O 0.76934 0.44904 0.45938 0.0
O303 O 0.79305 0.42543 0.47806 0.0
O304 O 0.70993 0.44478 0.45387 0.0
O305 O 0.71302 0.42778 0.49066 0.0
O306 O 0.67267 0.03665 0.7696 0.0
Cd307 Cd 0.65033 0.00538 0.78591 0.0
Cd308 Cd 0.61398 0.01954 0.75262 0.0
O309 O 0.64521 0.04632 0.74202 0.0
O310 O 0.67527 0.99107 0.8062 0.0
O311 O 0.65175 0.97015 0.77669 0.0
C312 C 0.66895 0.97091 0.79383 0.0
C313 C 0.58253 0.00616 0.72257 0.0
C314 C 0.6673 0.0506 0.75198 0.0
C315 C 0.60628 0.02018 0.80693 0.0
O316 O 0.5989 0.02426 0.78527 0.0
O317 O 0.6262 0.01186 0.81122 0.0
O318 O 0.58695 0.0285 0.73095 0.0
O319 O 0.59667 0.99115 0.73064 0.0
O320 O 0.97584 0.29293 0.94008 0.0
Cd321 Cd 0.98112 0.26858 0.91407 0.0
Cd322 Cd 0.00391 0.31195 0.8919 0.0
O323 O 0.99636 0.32847 0.9229 0.0
O324 O 0.97106 0.23432 0.92988 0.0
O325 O 0.00986 0.25048 0.91819 0.0
C326 C 0.99405 0.23201 0.92819 0.0
C327 C 0.04454 0.31244 0.88059 0.0
C328 C 0.98372 0.31679 0.9403 0.0
C329 C 0.95849 0.283 0.86571 0.0
O330 O 0.97518 0.30355 0.86576 0.0
O331 O 0.95833 0.26655 0.88283 0.0
O332 O 0.03515 0.33226 0.87729 0.0
O333 O 0.03103 0.29259 0.89102 0.0
O334 O 0.47188 0.80256 0.43593 0.0
Cd335 Cd 0.47847 0.77634 0.41225 0.0
Cd336 Cd 0.50468 0.81738 0.3901 0.0
O337 O 0.49858 0.83545 0.42053 0.0
O338 O 0.46814 0.743 0.42944 0.0
O339 O 0.50752 0.7592 0.41922 0.0
C340 C 0.49138 0.74099 0.42926 0.0
C341 C 0.54521 0.82027 0.37671 0.0
C342 C 0.48296 0.82577 0.43657 0.0
C343 C 0.45933 0.78936 0.36269 0.0
O344 O 0.47576 0.81 0.36404 0.0
O345 O 0.45827 0.77247 0.37947 0.0
O346 O 0.53404 0.8389 0.37376 0.0
O347 O 0.53355 0.80008 0.3881 0.0
O348 O 0.95277 0.76889 0.66829 0.0
Cd349 Cd 0.98252 0.76415 0.6482 0.0
Cd350 Cd 0.96186 0.79417 0.6158 0.0
O351 O 0.93696 0.79411 0.64264 0.0
O352 O 0.00228 0.74671 0.67163 0.0
O353 O 0.01827 0.78396 0.65439 0.0
C354 C 0.02131 0.76541 0.66879 0.0
C355 C 0.98367 0.832 0.59881 0.0
C356 C 0.93644 0.78197 0.66282 0.0
C357 C 0.96476 0.74375 0.59879 0.0
O358 O 0.95655 0.76361 0.59399 0.0
O359 O 0.9758 0.7407 0.61914 0.0
O360 O 0.95988 0.82351 0.59383 0.0
O361 O 0.99504 0.81924 0.61419 0.0
O362 O 0.44836 0.26076 0.17951 0.0
Cd363 Cd 0.4771 0.25258 0.16021 0.0
Cd364 Cd 0.45929 0.28243 0.12511 0.0
O365 O 0.43383 0.28412 0.15103 0.0
O366 O 0.4976 0.23694 0.1845 0.0
O367 O 0.5132 0.27217 0.1636 0.0
C368 C 0.51672 0.25484 0.17931 0.0
C369 C 0.47922 0.31988 0.1058 0.0
C370 C 0.43263 0.27391 0.17217 0.0
C371 C 0.4598 0.22972 0.11189 0.0
O372 O 0.45446 0.2506 0.10504 0.0
O373 O 0.46861 0.22669 0.13325 0.0
O374 O 0.45573 0.30973 0.10113 0.0
O375 O 0.49151 0.30887 0.12193 0.0
H376 H 0.17496 0.76876 0.8242 0.0
H377 H 0.27037 0.83757 0.92671 0.0
H378 H 0.25607 0.78531 0.81692 0.0
H379 H 0.19891 0.85773 0.90847 0.0
H380 H 0.26267 0.80843 0.89307 0.0
H381 H 0.18125 0.79182 0.8618 0.0
C382 C 0.19411 0.77721 0.8304 0.0
C383 C 0.21501 0.77552 0.81691 0.0
C384 C 0.24862 0.81908 0.89666 0.0
C385 C 0.22217 0.80107 0.86051 0.0
C386 C 0.25287 0.83556 0.91588 0.0
C387 C 0.23527 0.85016 0.92026 0.0
C388 C 0.22638 0.8168 0.8821 0.0
C389 C 0.21302 0.84695 0.90557 0.0
C390 C 0.1976 0.79019 0.85197 0.0
C391 C 0.23937 0.78601 0.82659 0.0
N392 N 0.20917 0.83054 0.88713 0.0
N393 N 0.24228 0.79842 0.84778 0.0
H394 H 0.0523 0.58856 0.41388 0.0
H395 H 0.05231 0.54784 0.27696 0.0
H396 H -0.0018 0.60387 0.35871 0.0
H397 H 0.09711 0.52203 0.33541 0.0
H398 H 0.03051 0.56648 0.30669 0.0
H399 H 0.06789 0.56272 0.38546 0.0
C400 C 0.0436 0.58625 0.3958 0.0
C401 C 0.02387 0.59813 0.38861 0.0
C402 C 0.0449 0.55647 0.31301 0.0
C403 C 0.04173 0.56898 0.3559 0.0
C404 C 0.05733 0.54577 0.29605 0.0
C405 C 0.07681 0.53361 0.30366 0.0
C406 C 0.05215 0.55518 0.33771 0.0
C407 C 0.08239 0.53141 0.32865 0.0
C408 C 0.05244 0.57151 0.3796 0.0
C409 C 0.01338 0.59488 0.36493 0.0
N410 N 0.07035 0.54237 0.34474 0.0
N411 N 0.02254 0.58069 0.34934 0.0
H412 H 0.83458 0.80036 0.87299 0.0
H413 H 0.77214 0.74139 0.9965 0.0
H414 H 0.75665 0.79678 0.88917 0.0
H415 H 0.83845 0.72194 0.96917 0.0
H416 H 0.77098 0.77007 0.96144 0.0
H417 H 0.84035 0.77914 0.91207 0.0
C418 C 0.81867 0.79516 0.8847 0.0
C419 C 0.79497 0.80017 0.87754 0.0
C420 C 0.78592 0.7597 0.96327 0.0
C421 C 0.80174 0.77642 0.92257 0.0
C422 C 0.78671 0.74341 0.98335 0.0
C423 C 0.80526 0.72897 0.98565 0.0
C424 C 0.80392 0.76175 0.94546 0.0
C425 C 0.82366 0.73249 0.96802 0.0
C426 C 0.82207 0.78319 0.90707 0.0
C427 C 0.77531 0.79358 0.89388 0.0
N428 N 0.82243 0.74841 0.94856 0.0
N429 N 0.77912 0.78197 0.91556 0.0
H430 H 0.00201 0.04625 0.44812 0.0
H431 H 0.98401 0.05317 0.30403 0.0
H432 H 0.06019 0.03953 0.39985 0.0
H433 H 0.93299 0.0753 0.35231 0.0
H434 H 0.01229 0.04829 0.33877 0.0
H435 H 0.97626 0.05676 0.41322 0.0
C436 C 0.00926 0.04687 0.43011 0.0
C437 C 0.03291 0.0414 0.4267 0.0
C438 C 0.99503 0.05444 0.34174 0.0
C439 C 0.00383 0.0537 0.38679 0.0
C440 C 0.97885 0.05723 0.32191 0.0
C441 C 0.956 0.0645 0.32528 0.0
C442 C 0.98819 0.05867 0.36516 0.0
C443 C 0.95039 0.06962 0.34886 0.0
C444 C 0.99466 0.053 0.41023 0.0
C445 C 0.04177 0.04306 0.40311 0.0
N446 N 0.96625 0.06635 0.36794 0.0
N447 N 0.02711 0.04884 0.384 0.0
H448 H 0.26059 0.28753 0.70955 0.0
H449 H 0.22227 0.20033 0.59571 0.0
H450 H 0.18547 0.24276 0.69515 0.0
H451 H 0.30029 0.22634 0.61987 0.0
H452 H 0.20892 0.21646 0.63216 0.0
H453 H 0.27625 0.26593 0.67721 0.0
C454 C 0.24755 0.27278 0.6999 0.0
C455 C 0.22181 0.26655 0.70523 0.0
C456 C 0.22898 0.21853 0.62967 0.0
C457 C 0.23932 0.24242 0.66796 0.0
C458 C 0.23663 0.20941 0.60877 0.0
C459 C 0.26244 0.21215 0.60469 0.0
C460 C 0.24723 0.23089 0.64657 0.0
C461 C 0.28019 0.22387 0.62235 0.0
C462 C 0.25644 0.26055 0.68144 0.0
C463 C 0.20551 0.24784 0.69182 0.0
N464 N 0.27226 0.2331 0.64246 0.0
N465 N 0.2145 0.23656 0.67373 0.0
H466 H 0.51721 0.53639 0.59371 0.0
H467 H 0.44618 0.59816 0.69066 0.0
H468 H 0.52463 0.61695 0.59804 0.0
H469 H 0.45235 0.52017 0.69431 0.0
H470 H 0.4732 0.60541 0.65553 0.0
H471 H 0.49236 0.53008 0.62996 0.0
C472 C 0.51393 0.5528 0.60244 0.0
C473 C 0.52305 0.57725 0.59272 0.0
C474 C 0.46864 0.58674 0.66408 0.0
C475 C 0.49399 0.57008 0.63403 0.0
C476 C 0.45315 0.58258 0.68404 0.0
C477 C 0.44699 0.55853 0.69541 0.0
C478 C 0.47784 0.56666 0.65537 0.0
C479 C 0.45662 0.53903 0.68615 0.0
C480 C 0.49953 0.54916 0.62307 0.0
C481 C 0.51766 0.59773 0.60463 0.0
N482 N 0.47148 0.54351 0.66666 0.0
N483 N 0.50338 0.59368 0.62458 0.0
H484 H 0.72913 0.30393 0.66562 0.0
H485 H 0.80416 0.36432 0.54997 0.0
H486 H 0.81062 0.32426 0.66494 0.0
H487 H 0.72752 0.37123 0.55981 0.0
H488 H 0.80589 0.3469 0.59124 0.0
H489 H 0.72699 0.32629 0.62621 0.0
C490 C 0.74654 0.31325 0.6572 0.0
C491 C 0.77011 0.31208 0.66827 0.0
C492 C 0.78873 0.35235 0.58446 0.0
C493 C 0.76782 0.33733 0.6234 0.0
C494 C 0.78767 0.36217 0.56085 0.0
C495 C 0.76562 0.36913 0.55144 0.0
C496 C 0.76744 0.34905 0.59873 0.0
C497 C 0.74489 0.3661 0.56642 0.0
C498 C 0.74531 0.32601 0.63481 0.0
C499 C 0.79211 0.32457 0.65679 0.0
N500 N 0.7462 0.35602 0.58931 0.0
N501 N 0.79045 0.33644 0.63485 0.0
H502 H 0.48706 0.96282 0.5942 0.0
H503 H 0.54041 0.02481 0.71786 0.0
H504 H 0.4416 0.9906 0.64416 0.0
H505 H 0.57563 0.96957 0.688 0.0
H506 H 0.50514 0.01356 0.68874 0.0
H507 H 0.52052 0.96484 0.62641 0.0
C508 C 0.48398 0.96892 0.61203 0.0
C509 C 0.46184 0.97712 0.61645 0.0
C510 C 0.52043 0.00369 0.68857 0.0
C511 C 0.49975 0.97966 0.65292 0.0
C512 C 0.54069 0.01025 0.70511 0.0
C513 C 0.561 -0.00181 0.70521 0.0
C514 C 0.52055 0.98522 0.67158 0.0
C515 C 0.56025 0.97927 0.68844 0.0
C516 C 0.50302 0.97009 0.63031 0.0
C517 C 0.45868 0.98477 0.63981 0.0
N518 N 0.54041 0.97354 0.67197 0.0
N519 N 0.47753 0.98617 0.65702 0.0
H520 H 0.86553 0.2812 0.73238 0.0
H521 H 0.91561 0.24561 0.86443 0.0
H522 H 0.81818 0.2369 0.78633 0.0
H523 H 0.95556 0.30993 0.8227 0.0
H524 H 0.88179 0.23896 0.8332 0.0
H525 H 0.9005 0.28976 0.763 0.0
C526 C 0.86241 0.27342 0.75063 0.0
C527 C 0.83894 0.258 0.75667 0.0
C528 C 0.89793 0.25456 0.83085 0.0
C529 C 0.87887 0.26736 0.79149 0.0
C530 C 0.91735 0.2583 0.84864 0.0
C531 C 0.93845 0.27842 0.84624 0.0
C532 C 0.89962 0.27088 0.81032 0.0
C533 C 0.93957 0.29425 0.82533 0.0
C534 C 0.88239 0.27822 0.76803 0.0
C535 C 0.83607 0.2483 0.7806 0.0
N536 N 0.92042 0.29011 0.80809 0.0
N537 N 0.8558 0.25299 0.79702 0.0
H538 H 0.39215 0.89512 0.52392 0.0
H539 H 0.50547 0.87499 0.44588 0.0
H540 H 0.45746 0.95392 0.50792 0.0
H541 H 0.44447 0.814 0.46842 0.0
H542 H 0.4904 0.90321 0.472 0.0
H543 H 0.41299 0.8641 0.50737 0.0
C544 C 0.41105 0.90135 0.51721 0.0
C545 C 0.42305 0.92701 0.51697 0.0
C546 C 0.48046 0.88359 0.47147 0.0
C547 C 0.44688 0.89195 0.49783 0.0
C548 C 0.48906 0.86744 0.45653 0.0
C549 C 0.47604 0.84214 0.45471 0.0
C550 C 0.4585 0.87448 0.48453 0.0
C551 C 0.45501 0.8334 0.46911 0.0
C552 C 0.42292 0.88373 0.50775 0.0
C553 C 0.44752 0.93429 0.50819 0.0
N554 N 0.4467 0.84963 0.48317 0.0
N555 N 0.45852 0.91688 0.49869 0.0
H556 H 0.15332 0.28614 0.7845 0.0
H557 H 0.08466 0.35222 0.87418 0.0
H558 H 0.19708 0.3422 0.83228 0.0
H559 H 0.06058 0.27178 0.86518 0.0
H560 H 0.12438 0.3516 0.85493 0.0
H561 H 0.11721 0.28235 0.81021 0.0
C562 C 0.15561 0.2974 0.80051 0.0
C563 C 0.17845 0.31473 0.80596 0.0
C564 C 0.11048 0.33408 0.85747 0.0
C565 C 0.1367 0.311 0.83488 0.0
C566 C 0.08786 0.33443 0.86833 0.0
C567 C 0.06942 0.31202 0.87123 0.0
C568 C 0.11426 0.31131 0.84883 0.0
C569 C 0.07443 0.28944 0.86336 0.0
C570 C 0.13487 0.29528 0.81508 0.0
C571 C 0.17977 0.32912 0.82681 0.0
N572 N 0.09624 0.28971 0.85209 0.0
N573 N 0.15907 0.32725 0.84026 0.0
H574 H 0.57425 0.63723 0.50153 0.0
H575 H 0.46083 0.69875 0.44851 0.0
H576 H 0.4954 0.60807 0.51566 0.0
H577 H 0.53939 0.73236 0.43644 0.0
H578 H 0.47348 0.66313 0.46975 0.0
H579 H 0.56221 0.66981 0.47412 0.0
C580 C 0.55442 0.63753 0.49863 0.0
C581 C 0.5358 0.62018 0.51108 0.0
C582 C 0.48802 0.6782 0.4624 0.0
C583 C 0.52194 0.65726 0.48 0.0
C584 C 0.48078 0.6986 0.45025 0.0
C585 C 0.49909 0.71869 0.44085 0.0
C586 C 0.5138 0.67782 0.46536 0.0
C587 C 0.52466 0.71732 0.44351 0.0
C588 C 0.54757 0.65616 0.48312 0.0
C589 C 0.51039 0.62139 0.50677 0.0
N590 N 0.53129 0.69729 0.45569 0.0
N591 N 0.50424 0.63967 0.49172 0.0
H592 H 0.80501 0.80962 0.73099 0.0
H593 H 0.92906 0.75817 0.7075 0.0
H594 H 0.83665 0.76168 0.782 0.0
H595 H 0.89774 0.80692 0.65678 0.0
H596 H 0.89503 0.75864 0.73475 0.0
H597 H 0.83832 0.80802 0.70301 0.0
C598 C 0.81883 0.79847 0.73607 0.0
C599 C 0.8179 0.78529 0.75848 0.0
C600 C 0.89561 0.76924 0.71766 0.0
C601 C 0.85629 0.78379 0.72701 0.0
C602 C 0.91507 0.76902 0.70209 0.0
C603 C 0.91629 0.78254 0.6798 0.0
C604 C 0.8772 0.78307 0.71091 0.0
C605 C 0.89759 0.79623 0.67378 0.0
C606 C 0.83789 0.79765 0.72022 0.0
C607 C 0.83654 0.77165 0.76463 0.0
N608 N 0.87882 0.79612 0.68923 0.0
N609 N 0.85499 0.77122 0.74895 0.0
H610 H 0.09355 0.93506 0.51428 0.0
H611 H 0.96383 0.8676 0.57337 0.0
H612 H 0.02731 0.96717 0.51102 0.0
H613 H 0.03497 0.84821 0.59469 0.0
H614 H 0.98651 0.90313 0.54892 0.0
H615 H 0.07219 0.90184 0.54216 0.0
C616 C 0.07458 0.93523 0.51948 0.0
C617 C 0.06219 0.95393 0.51014 0.0
C618 C 0.99721 0.89125 0.5591 0.0
C619 C 0.03757 0.91577 0.54181 0.0
C620 C 0.98427 0.87095 0.57305 0.0
C621 C 0.99755 0.85491 0.58602 0.0
C622 C 0.02361 0.89536 0.5578 0.0
C623 C 0.02403 0.86018 0.58501 0.0
C624 C 0.0624 0.91622 0.53537 0.0
C625 C 0.03746 0.95291 0.51729 0.0
N626 N 0.0362 0.87984 0.5709 0.0
N627 N 0.02595 0.93411 0.5326 0.0
H628 H 0.18034 0.77328 0.70727 0.0
H629 H 0.02967 0.73613 0.70804 0.0
H630 H 0.13853 0.74202 0.77003 0.0
H631 H 0.06866 0.79326 0.65813 0.0
H632 H 0.07016 0.73373 0.72801 0.0
H633 H 0.14015 0.77633 0.68571 0.0
C634 C 0.16269 0.76694 0.71638 0.0
C635 C 0.1626 0.75749 0.74041 0.0
C636 C 0.06989 0.74688 0.71274 0.0
C637 C 0.11701 0.76076 0.7161 0.0
C638 C 0.04679 0.74823 0.70131 0.0
C639 C 0.04582 0.76498 0.68145 0.0
C640 C 0.09233 0.7621 0.70409 0.0
C641 C 0.06861 0.78022 0.67351 0.0
C642 C 0.13989 0.76884 0.70421 0.0
C643 C 0.13935 0.7496 0.75156 0.0
N644 N 0.09105 0.77831 0.68478 0.0
N645 N 0.11751 0.75133 0.7393 0.0
H646 H 0.00268 0.63574 0.50542 0.0
H647 H 0.93689 0.73974 0.55582 0.0
H648 H 0.933 0.65086 0.47381 0.0
H649 H 0.98986 0.70538 0.59856 0.0
H650 H 0.93768 0.71048 0.52347 0.0
H651 H 0.00146 0.66531 0.53737 0.0
C652 C 0.98729 0.64553 0.50509 0.0
C653 C 0.96791 0.64093 0.48704 0.0
C654 C 0.94899 0.7093 0.54001 0.0
C655 C 0.96626 0.67449 0.52349 0.0
C656 C 0.94855 0.72595 0.55846 0.0
C657 C 0.96332 0.72498 0.57991 0.0
C658 C 0.96459 0.69184 0.54293 0.0
C659 C 0.97809 0.70675 0.58238 0.0
C660 C 0.98646 0.66218 0.52342 0.0
C661 C 0.9482 0.65382 0.48756 0.0
N662 N 0.97849 0.69101 0.56402 0.0
N663 N 0.94789 0.67009 0.5055 0.0
H664 H 0.76727 0.87466 0.23188 0.0
H665 H 0.8296 0.00135 0.29955 0.0
H666 H 0.76266 0.88256 0.30899 0.0
H667 H 0.85869 0.98122 0.23346 0.0
H668 H 0.8 0.9602 0.30071 0.0
H669 H 0.79698 0.91568 0.22997 0.0
C670 C 0.77267 0.8848 0.24847 0.0
C671 C 0.76232 0.87503 0.27065 0.0
C672 C 0.81285 0.96485 0.28595 0.0
C673 C 0.79574 0.92235 0.26834 0.0
C674 C 0.82962 0.98838 0.28517 0.0
C675 C 0.84669 0.99469 0.26641 0.0
C676 C 0.8129 0.94765 0.26768 0.0
C677 C 0.84593 0.97707 0.24832 0.0
C678 C 0.78948 0.90832 0.24729 0.0
C679 C 0.76969 0.88945 0.2914 0.0
N680 N 0.82926 0.95435 0.24936 0.0
N681 N 0.7858 0.91243 0.2897 0.0
H682 H 0.7831 0.21101 0.21359 0.0
H683 H 0.84772 0.12926 0.31028 0.0
H684 H 0.78517 0.22117 0.29071 0.0
H685 H 0.86173 0.13171 0.23385 0.0
H686 H 0.82412 0.16241 0.30321 0.0
H687 H 0.81126 0.18144 0.22019 0.0
C688 C 0.7896 0.20705 0.23189 0.0
C689 C 0.7817 0.21829 0.25169 0.0
C690 C 0.83249 0.15586 0.28798 0.0
C691 C 0.81371 0.18454 0.25939 0.0
C692 C 0.84594 0.13687 0.292 0.0
C693 C 0.85664 0.12763 0.2726 0.0
C694 C 0.82938 0.16553 0.26433 0.0
C695 C 0.8538 0.1383 0.24932 0.0
C696 C 0.80568 0.19025 0.23565 0.0
C697 C 0.79073 0.21269 0.27503 0.0
N698 N 0.84023 0.15655 0.24578 0.0
N699 N 0.80608 0.19606 0.27826 0.0
H700 H 0.40712 0.08214 0.94085 0.0
H701 H 0.34569 0.93722 0.96607 0.0
H702 H 0.45049 0.02502 0.9548 0.0
H703 H 0.30192 0.99091 0.93965 0.0
H704 H 0.38439 0.96879 0.95903 0.0
H705 H 0.36863 0.04887 0.93662 0.0
C706 C 0.40856 0.06256 0.94261 0.0
C707 C 0.43194 0.05629 0.94846 0.0
C708 C 0.36636 0.97366 0.95455 0.0
C709 C 0.38808 0.01822 0.94392 0.0
C710 C 0.34421 0.95567 0.95871 0.0
C711 C 0.32052 0.96155 0.95372 0.0
C712 C 0.3649 0.99789 0.94562 0.0
C713 C 0.3198 0.98564 0.94389 0.0
C714 C 0.38662 0.04359 0.94018 0.0
C715 C 0.43287 0.03068 0.95025 0.0
N716 N 0.3417 0.00307 0.94043 0.0
N717 N 0.41118 0.01259 0.94838 0.0
H718 H 0.22568 0.34567 0.28535 0.0
H719 H 0.18571 0.47047 0.32619 0.0
H720 H 0.25622 0.38658 0.34941 0.0
H721 H 0.15885 0.43398 0.25895 0.0
H722 H 0.20864 0.43747 0.33653 0.0
H723 H 0.19848 0.37564 0.27677 0.0
C724 C 0.22668 0.36095 0.29761 0.0
C725 C 0.24338 0.36368 0.31808 0.0
C726 C 0.19767 0.43656 0.31955 0.0
C727 C 0.21211 0.39787 0.30847 0.0
C728 C 0.18452 0.45542 0.31362 0.0
C729 C 0.17047 0.45508 0.29157 0.0
C730 C 0.19688 0.41717 0.30331 0.0
C731 C 0.16953 0.43501 0.27609 0.0
C732 C 0.21105 0.37797 0.29275 0.0
C733 C 0.2435 0.38356 0.33356 0.0
N734 N 0.1827 0.4169 0.2822 0.0
N735 N 0.2282 0.39993 0.32838 0.0
H736 H 0.13338 0.0192 0.52797 0.0
H737 H 0.2574 0.11252 0.4784 0.0
H738 H 0.15097 0.02677 0.45221 0.0
H739 H 0.22951 0.1138 0.55018 0.0
H740 H 0.22321 0.0756 0.46986 0.0
H741 H 0.17375 0.04761 0.53775 0.0
C742 C 0.14596 0.02641 0.51341 0.0
C743 C 0.13869 0.02074 0.48919 0.0
C744 C 0.22477 0.08389 0.48752 0.0
C745 C 0.18475 0.05388 0.50025 0.0
C746 C 0.24425 0.10491 0.49241 0.0
C747 C 0.24606 0.11643 0.51491 0.0
C748 C 0.20723 0.0743 0.50536 0.0
C749 C 0.22862 0.10576 0.53246 0.0
C750 C 0.16894 0.04287 0.519 0.0
C751 C 0.15568 0.031 0.47108 0.0
N752 N 0.2099 0.08538 0.52726 0.0
N753 N 0.17785 0.0473 0.47695 0.0
H754 H 0.75399 0.19053 0.68697 0.0
H755 H 0.71201 0.07104 0.77565 0.0
H756 H 0.76851 0.19162 0.76464 0.0
H757 H 0.66554 0.0826 0.71225 0.0
H758 H 0.74026 0.1117 0.76688 0.0
H759 H 0.72723 0.14789 0.69182 0.0
C760 C 0.75157 0.18196 0.705 0.0
C761 C 0.76387 0.19472 0.72539 0.0
C762 C 0.72397 0.10522 0.7548 0.0
C763 C 0.73399 0.14585 0.73081 0.0
C764 C 0.7079 0.08194 0.75968 0.0
C765 C 0.68619 0.0735 0.7448 0.0
C766 C 0.71854 0.12009 0.73474 0.0
C767 C 0.68194 0.0885 0.72432 0.0
C768 C 0.73644 0.1576 0.70768 0.0
C769 C 0.76014 0.18242 0.74826 0.0
N770 N 0.69797 0.11119 0.71989 0.0
N771 N 0.74574 0.15866 0.75029 0.0
H772 H 0.44343 0.05097 0.56527 0.0
H773 H 0.33389 0.12539 0.57931 0.0
H774 H 0.36793 0.01367 0.58473 0.0
H775 H 0.38909 0.14598 0.52409 0.0
H776 H 0.35293 0.08974 0.59217 0.0
H777 H 0.42956 0.09107 0.55999 0.0
C778 C 0.42398 0.05136 0.56858 0.0
C779 C 0.40666 0.02916 0.57523 0.0
C780 C 0.36112 0.10242 0.57756 0.0
C781 C 0.39097 0.07467 0.56984 0.0
C782 C 0.3505 0.12288 0.57041 0.0
C783 C 0.35992 0.13853 0.55056 0.0
C784 C 0.38157 0.09798 0.56508 0.0
C785 C 0.38123 0.13425 0.53942 0.0
C786 C 0.41614 0.07412 0.5656 0.0
C787 C 0.3817 0.03045 0.57937 0.0
N788 N 0.39132 0.11427 0.54677 0.0
N789 N 0.37457 0.05292 0.57668 0.0
H790 H 0.59377 0.49909 0.55559 0.0
H791 H 0.67748 0.47199 0.44822 0.0
H792 H 0.59167 0.53187 0.48333 0.0
H793 H 0.68234 0.44024 0.52082 0.0
H794 H 0.64595 0.49387 0.46104 0.0
H795 H 0.62651 0.47764 0.54372 0.0
C796 C 0.60026 0.5017 0.53722 0.0
C797 C 0.58979 0.5168 0.52023 0.0
C798 C 0.65385 0.48212 0.47421 0.0
C799 C 0.62717 0.49261 0.50655 0.0
C800 C 0.67186 0.46954 0.46688 0.0
C801 C 0.68257 0.4542 0.48347 0.0
C802 C 0.64638 0.47941 0.49834 0.0
C803 C 0.67454 0.45183 0.50742 0.0
C804 C 0.61889 0.4895 0.53045 0.0
C805 C 0.59905 0.52003 0.4968 0.0
N806 N 0.65691 0.46431 0.51415 0.0
N807 N 0.6171 0.50791 0.4906 0.0
H808 H 0.70148 0.31359 0.29955 0.0
H809 H 0.75083 0.3294 0.43784 0.0
H810 H 0.73209 0.25672 0.34005 0.0
H811 H 0.7079 0.37803 0.39953 0.0
H812 H 0.74519 0.30276 0.40245 0.0
H813 H 0.70554 0.33816 0.33595 0.0
C814 C 0.70899 0.30621 0.31616 0.0
C815 C 0.71622 0.28291 0.31679 0.0
C816 C 0.73686 0.31916 0.40189 0.0
C817 C 0.72118 0.31118 0.35864 0.0
C818 C 0.74001 0.33436 0.42211 0.0
C819 C 0.72992 0.35609 0.42164 0.0
C820 C 0.7237 0.32585 0.38102 0.0
C821 C 0.71607 0.36153 0.40074 0.0
C822 C 0.71135 0.32029 0.33696 0.0
C823 C 0.72642 0.27464 0.3387 0.0
N824 N 0.71354 0.34663 0.38124 0.0
N825 N 0.72856 0.28875 0.35881 0.0
H826 H 0.5119 0.09031 0.89085 0.0
H827 H 0.62035 0.02107 0.85531 0.0
H828 H 0.57749 0.08642 0.93685 0.0
H829 H 0.56187 0.03643 0.80479 0.0
H830 H 0.60103 0.03885 0.88752 0.0
H831 H 0.52641 0.06494 0.86107 0.0
C832 C 0.52942 0.08414 0.89455 0.0
C833 C 0.54398 0.09095 0.91586 0.0
C834 C 0.59231 0.03812 0.86942 0.0
C835 C 0.56041 0.06165 0.88235 0.0
C836 C 0.60327 0.02786 0.85103 0.0
C837 C 0.59289 0.02753 0.82723 0.0
C838 C 0.57081 0.04805 0.864 0.0
C839 C 0.57068 0.03654 0.82281 0.0
C840 C 0.53764 0.06962 0.87767 0.0
C841 C 0.56612 0.08195 0.92029 0.0
N842 N 0.56049 0.04661 0.84099 0.0
N843 N 0.57379 0.0679 0.90358 0.0
H844 H 0.24851 0.3064 0.38676 0.0
H845 H 0.34089 0.24163 0.47013 0.0
H846 H 0.32766 0.31471 0.37265 0.0
H847 H 0.26754 0.24894 0.49212 0.0
H848 H 0.33744 0.27031 0.43548 0.0
H849 H 0.25583 0.28726 0.42641 0.0
C850 C 0.26752 0.30457 0.39209 0.0
C851 C 0.28744 0.312 0.37616 0.0
C852 C 0.32226 0.26591 0.44808 0.0
C853 C 0.29584 0.28958 0.42148 0.0
C854 C 0.32422 0.24954 0.46789 0.0
C855 C 0.30434 0.24261 0.48392 0.0
C856 C 0.30013 0.27518 0.44411 0.0
C857 C 0.28327 0.25358 0.48016 0.0
C858 C 0.27166 0.29351 0.41475 0.0
C859 C 0.31159 0.30875 0.38406 0.0
N860 N 0.28156 0.26903 0.46046 0.0
N861 N 0.31505 0.29755 0.40604 0.0
H862 H 0.51823 0.49299 0.9096 0.0
H863 H 0.43341 0.58146 0.84617 0.0
H864 H 0.50876 0.56137 0.9414 0.0
H865 H 0.46128 0.52609 0.80784 0.0
H866 H 0.45989 0.574 0.88166 0.0
H867 H 0.49607 0.50404 0.87259 0.0
C868 C 0.51183 0.51054 0.90865 0.0
C869 C 0.51592 0.52668 0.92835 0.0
C870 C 0.46035 0.56366 0.86539 0.0
C871 C 0.48985 0.53905 0.88631 0.0
C872 C 0.44523 0.5679 0.84513 0.0
C873 C 0.44501 0.5543 0.82402 0.0
C874 C 0.4751 0.54549 0.86462 0.0
C875 C 0.46078 0.53699 0.82372 0.0
C876 C 0.49912 0.51682 0.88753 0.0
C877 C 0.50642 0.54873 0.92639 0.0
N878 N 0.47499 0.53292 0.84378 0.0
N879 N 0.49376 0.55426 0.90576 0.0
H880 H 0.68459 0.7543 0.19056 0.0
H881 H 0.80006 0.7191 0.12451 0.0
H882 H 0.7625 0.78864 0.20879 0.0
H883 H 0.72276 0.70428 0.0962 0.0
H884 H 0.78696 0.73888 0.15964 0.0
H885 H 0.69863 0.72951 0.16021 0.0
C886 C 0.7047 0.7563 0.18838 0.0
C887 C 0.72245 0.7733 0.20228 0.0
C888 C 0.77293 0.73116 0.14573 0.0
C889 C 0.73871 0.74536 0.16732 0.0
C890 C 0.78036 0.71985 0.12577 0.0
C891 C 0.7625 0.71024 0.10735 0.0
C892 C 0.74744 0.73246 0.14732 0.0
C893 C 0.73723 0.71167 0.10984 0.0
C894 C 0.71272 0.74227 0.17099 0.0
C895 C 0.74829 0.77547 0.19854 0.0
N896 N 0.73049 0.72255 0.12941 0.0
N897 N 0.75569 0.76169 0.18133 0.0
H898 H 0.02866 0.11223 0.09321 0.0
H899 H 0.96226 0.01989 0.19903 0.0
H900 H 0.02245 0.0315 0.0955 0.0
H901 H 0.95289 0.09646 0.18757 0.0
H902 H 0.98784 0.02494 0.16331 0.0
H903 H 0.00463 0.10792 0.13004 0.0
C904 C 0.02226 0.09358 0.10143 0.0
C905 C 0.02745 0.07215 0.09107 0.0
C906 C 0.98017 0.04064 0.16856 0.0
C907 C 0.00017 0.06718 0.13345 0.0
C908 C 0.96556 0.0378 0.18898 0.0
C909 C 0.95536 0.05779 0.19628 0.0
C910 C 0.98485 0.06373 0.15536 0.0
C911 C 0.96029 0.08054 0.18253 0.0
C912 C 0.00859 0.09117 0.1225 0.0
C913 C 0.01915 0.04858 0.1029 0.0
N914 N 0.97477 0.08292 0.16274 0.0
N915 N 0.00587 0.04673 0.1234 0.0
H916 H 0.31488 0.83022 0.16449 0.0
H917 H 0.23068 0.87367 0.0548 0.0
H918 H 0.23337 0.8085 0.16165 0.0
H919 H 0.30815 0.86749 0.04883 0.0
H920 H 0.23191 0.85743 0.097 0.0
H921 H 0.3133 0.85226 0.125 0.0
C922 C 0.29666 0.83037 0.15558 0.0
C923 C 0.27426 0.81747 0.16611 0.0
C924 C 0.24862 0.85977 0.08639 0.0
C925 C 0.27222 0.84251 0.12115 0.0
C926 C 0.24796 0.86907 0.06241 0.0
C927 C 0.26928 0.87171 0.04829 0.0
C928 C 0.2709 0.85357 0.09631 0.0
C929 C 0.2912 0.86551 0.05899 0.0
C930 C 0.29574 0.84282 0.13309 0.0
C931 C 0.25106 0.81819 0.15399 0.0
N932 N 0.29145 0.85677 0.08235 0.0
N933 N 0.25061 0.83046 0.13205 0.0
H934 H 0.9592 0.43174 0.11842 0.0
H935 H 0.08094 0.53187 0.15898 0.0
H936 H 0.99354 0.49582 0.07333 0.0
H937 H 0.06099 0.45821 0.19423 0.0
H938 H 0.05094 0.51704 0.12569 0.0
H939 H 0.99786 0.43835 0.14434 0.0
C940 C 0.97507 0.44684 0.11364 0.0
C941 C 0.97297 0.46358 0.09396 0.0
C942 C 0.05331 0.50391 0.14047 0.0
C943 C 0.01701 0.47148 0.12374 0.0
C944 C 0.0704 0.51242 0.15952 0.0
C945 C 0.07318 0.49629 0.17943 0.0
C946 C 0.03839 0.47922 0.14158 0.0
C947 C 0.05929 0.47121 0.17916 0.0
C948 C 0.9971 0.45066 0.12852 0.0
C949 C 0.99409 0.48288 0.08871 0.0
N950 N 0.04205 0.46354 0.16071 0.0
N951 N 0.01505 0.48654 0.10372 0.0
H952 H 0.35189 0.72317 0.25019 0.0
H953 H 0.446 0.82465 0.33082 0.0
H954 H 0.34295 0.79988 0.25514 0.0
H955 H 0.43111 0.74436 0.34694 0.0
H956 H 0.41421 0.81704 0.29726 0.0
H957 H 0.38721 0.73205 0.27993 0.0
C958 C 0.35729 0.74189 0.25751 0.0
C959 C 0.34405 0.76067 0.25042 0.0
C960 C 0.41803 0.80114 0.30813 0.0
C961 C 0.38493 0.77106 0.28407 0.0
C962 C 0.43619 0.80543 0.32719 0.0
C963 C 0.44107 0.7851 0.34176 0.0
C964 C 0.40505 0.77634 0.30338 0.0
C965 C 0.42778 0.76059 0.33629 0.0
C966 C 0.37755 0.74694 0.2744 0.0
C967 C 0.35259 0.78482 0.25996 0.0
N968 N 0.41041 0.75688 0.3175 0.0
N969 N 0.37245 0.7893 0.27639 0.0
H970 H 0.9264 0.4306 0.0088 0.0
H971 H 0.95775 0.29802 0.98081 0.0
H972 H 0.89072 0.35973 0.04294 0.0
H973 H 0.99098 0.36824 0.94367 0.0
H974 H 0.93876 0.32146 0.00868 0.0
H975 H 0.95568 0.40937 0.98982 0.0
C976 C 0.92495 0.41058 0.01241 0.0
C977 C 0.90583 0.39665 0.02684 0.0
C978 C 0.95045 0.3318 0.99462 0.0
C979 C 0.93909 0.37228 0.00542 0.0
C980 C 0.96136 0.31841 0.97869 0.0
C981 C 0.97569 0.33112 0.9596 0.0
C982 C 0.95373 0.3581 0.99139 0.0
C983 C 0.97989 0.3576 0.95796 0.0
C984 C 0.94161 0.39847 0.00163 0.0
C985 C 0.90495 0.37093 0.03149 0.0
N986 N 0.96868 0.37017 0.97343 0.0
N987 N 0.92113 0.35947 0.02054 0.0
H988 H 0.67761 0.78603 0.31492 0.0
H989 H 0.5748 0.8609 0.35384 0.0
H990 H 0.67683 0.86296 0.29247 0.0
H991 H 0.57193 0.78292 0.37503 0.0
H992 H 0.61386 0.86232 0.33336 0.0
H993 H 0.64006 0.78454 0.33849 0.0
C994 C 0.66954 0.80258 0.31493 0.0
C995 C 0.6805 0.82471 0.30183 0.0
C996 C 0.6048 0.84489 0.34256 0.0
C997 C 0.63775 0.82321 0.32882 0.0
C998 C 0.58248 0.84409 0.35433 0.0
C999 C 0.57001 0.82172 0.36609 0.0
C1000 C 0.61478 0.82314 0.34241 0.0
C1001 C 0.58092 0.80055 0.36616 0.0
C1002 C 0.64822 0.80176 0.32848 0.0
C1003 C 0.66937 0.84565 0.30264 0.0
N1004 N 0.60265 0.80174 0.35436 0.0
N1005 N 0.64866 0.84436 0.31586 0.0
H1006 H 0.99683 0.09543 0.01116 0.0
H1007 H 0.04202 0.2229 0.93221 0.0
H1008 H 0.07529 0.12764 0.99779 0.0
H1009 H 0.96419 0.18921 0.94734 0.0
H1010 H 0.05468 0.18619 0.9522 0.0
H1011 H 0.98457 0.12732 0.98366 0.0
C1012 C 0.01147 0.10918 0.00223 0.0
C1013 C 0.0371 0.10915 0.00694 0.0
C1014 C 0.03482 0.18677 0.95094 0.0
C1015 C 0.02327 0.14592 0.97553 0.0
C1016 C 0.02758 0.2077 0.93953 0.0
C1017 C 0.00203 0.20923 0.93832 0.0
C1018 C 0.01635 0.16729 0.96116 0.0
C1019 C 0.98412 0.18898 0.94804 0.0
C1020 C 0.00448 0.12738 0.98651 0.0
C1021 C 0.05531 0.12709 0.99463 0.0
N1022 N 0.99164 0.16897 0.95915 0.0
N1023 N 0.04807 0.14501 0.97968 0.0
H1024 H 0.30106 0.31252 0.23009 0.0
H1025 H 0.42353 0.25462 0.21842 0.0
H1026 H 0.32956 0.26843 0.28706 0.0
H1027 H 0.39536 0.29997 0.16205 0.0
H1028 H 0.38915 0.25908 0.24376 0.0
H1029 H 0.33527 0.30755 0.20458 0.0
C1030 C 0.31441 0.30152 0.23703 0.0
C1031 C 0.3123 0.29036 0.26038 0.0
C1032 C 0.39052 0.26807 0.22586 0.0
C1033 C 0.35168 0.285 0.2317 0.0
C1034 C 0.41017 0.26556 0.21138 0.0
C1035 C 0.41236 0.27693 0.18805 0.0
C1036 C 0.3729 0.28202 0.21694 0.0
C1037 C 0.39446 0.29086 0.1799 0.0
C1038 C 0.33397 0.29878 0.22258 0.0
C1039 C 0.33036 0.27686 0.26892 0.0
N1040 N 0.37549 0.29298 0.19431 0.0
N1041 N 0.3493 0.27449 0.25455 0.0
H1042 H 0.58462 0.43279 0.02496 0.0
H1043 H 0.45646 0.35148 0.0777 0.0
H1044 H 0.51268 0.45451 0.01595 0.0
H1045 H 0.53006 0.3407 0.1029 0.0
H1046 H 0.47685 0.38809 0.0533 0.0
H1047 H 0.56515 0.39775 0.05197 0.0
C1048 C 0.56478 0.4303 0.02873 0.0
C1049 C 0.55025 0.44662 0.01804 0.0
C1050 C 0.48858 0.37784 0.06426 0.0
C1051 C 0.52784 0.40636 0.04868 0.0
C1052 C 0.47695 0.3569 0.07818 0.0
C1053 C 0.49161 0.343 0.09231 0.0
C1054 C 0.5151 0.38484 0.0642 0.0
C1055 C 0.51807 0.35094 0.09229 0.0
C1056 C 0.55369 0.41025 0.0441 0.0
C1057 C 0.52454 0.44219 0.02334 0.0
N1058 N 0.52901 0.37126 0.07827 0.0
N1059 N 0.51417 0.42246 0.0382 0.0
H1060 H 0.63859 0.23071 0.27673 0.0
H1061 H 0.56309 0.28274 0.16585 0.0
H1062 H 0.676 0.26663 0.21325 0.0
H1063 H 0.52779 0.22621 0.21822 0.0
H1064 H 0.6047 0.28019 0.18414 0.0
H1065 H 0.59763 0.23129 0.25647 0.0
C1066 C 0.63804 0.23843 0.25835 0.0
C1067 C 0.66049 0.24851 0.2465 0.0
C1068 C 0.5878 0.26835 0.19153 0.0
C1069 C 0.61388 0.24979 0.22339 0.0
C1070 C 0.56408 0.26993 0.18125 0.0
C1071 C 0.54196 0.25471 0.19058 0.0
C1072 C 0.58929 0.25167 0.21142 0.0
C1073 C 0.54433 0.23829 0.21042 0.0
C1074 C 0.61474 0.23883 0.24681 0.0
C1075 C 0.65896 0.25849 0.2228 0.0
N1076 N 0.56753 0.2373 0.22023 0.0
N1077 N 0.63597 0.25912 0.21203 0.0
H1078 H 0.43951 0.14169 0.98223 0.0
H1079 H 0.47804 0.18669 0.1174 0.0
H1080 H 0.49804 0.11773 0.02672 0.0
H1081 H 0.43807 0.22737 0.06594 0.0
H1082 H 0.47964 0.15653 0.0863 0.0
H1083 H 0.43359 0.16917 0.0146 0.0
C1084 C 0.45108 0.14225 -0.00116 0.0
C1085 C 0.46939 0.12762 0.00184 0.0
C1086 C 0.4704 0.17198 0.08188 0.0
C1087 C 0.46259 0.15863 0.03883 0.0
C1088 C 0.46931 0.18912 0.09966 0.0
C1089 C 0.45807 0.20971 0.0942 0.0
C1090 C 0.46 0.17533 0.05854 0.0
C1091 C 0.44709 0.21188 0.07088 0.0
C1092 C 0.44774 0.15791 0.01723 0.0
C1093 C 0.48397 0.12901 0.02361 0.0
N1094 N 0.44841 0.19494 0.05384 0.0
N1095 N 0.4802 0.14419 0.04133 0.0
H1096 H 0.25645 0.37247 0.72873 0.0
H1097 H 0.31793 0.50088 0.79499 0.0
H1098 H 0.25223 0.38217 0.80559 0.0
H1099 H 0.34552 0.48064 0.72818 0.0
H1100 H 0.28731 0.46037 0.79585 0.0
H1101 H 0.28373 0.41479 0.72543 0.0
C1102 C 0.2613 0.38336 0.74493 0.0
C1103 C 0.25199 0.37359 0.76751 0.0
C1104 C 0.29999 0.4649 0.78094 0.0
C1105 C 0.28264 0.42228 0.76364 0.0
C1106 C 0.31736 0.48807 0.78034 0.0
C1107 C 0.33445 0.49407 0.76158 0.0
C1108 C 0.2995 0.44773 0.76251 0.0
C1109 C 0.33284 0.47669 0.7431 0.0
C1110 C 0.27672 0.40758 0.74297 0.0
C1111 C 0.25854 0.38895 0.78773 0.0
N1112 N 0.3157 0.45426 0.74405 0.0
N1113 N 0.2734 0.4125 0.7853 0.0
H1114 H 0.28324 0.71259 0.70832 0.0
H1115 H 0.34319 0.62894 0.80695 0.0
H1116 H 0.28285 0.72222 0.78537 0.0
H1117 H 0.3583 0.63036 0.73081 0.0
H1118 H 0.32091 0.66302 0.79919 0.0
H1119 H 0.31052 0.68232 0.71578 0.0
C1120 C 0.28906 0.7084 0.72679 0.0
C1121 C 0.2808 0.71976 0.74631 0.0
C1122 C 0.32925 0.65606 0.78417 0.0
C1123 C 0.31174 0.68515 0.755 0.0
C1124 C 0.34195 0.63654 0.78859 0.0
C1125 C 0.35253 0.62671 0.76947 0.0
C1126 C 0.32678 0.66568 0.7604 0.0
C1127 C 0.35044 0.6374 0.74608 0.0
C1128 C 0.30463 0.69119 0.73105 0.0
C1129 C 0.28882 0.71375 0.76989 0.0
N1130 N 0.33758 0.65616 0.74215 0.0
N1131 N 0.30369 0.69673 0.77359 0.0
H1132 H 0.89591 0.58776 0.44129 0.0
H1133 H 0.84046 0.4424 0.47353 0.0
H1134 H 0.94245 0.5329 0.45111 0.0
H1135 H 0.79364 0.49376 0.44816 0.0
H1136 H 0.87807 0.47532 0.46543 0.0
H1137 H 0.8581 0.55353 0.44314 0.0
C1138 C 0.8981 0.56844 0.44358 0.0
C1139 C 0.92224 0.56308 0.44618 0.0
C1140 C 0.85956 0.47933 0.46151 0.0
C1141 C 0.87923 0.52393 0.44859 0.0
C1142 C 0.83807 0.46059 0.46625 0.0
C1143 C 0.81385 0.46538 0.46165 0.0
C1144 C 0.85684 0.50312 0.45231 0.0
C1145 C 0.81193 0.48925 0.45205 0.0
C1146 C 0.87657 0.54893 0.4446 0.0
C1147 C 0.92414 0.53777 0.44891 0.0
N1148 N 0.83316 0.50729 0.44785 0.0
N1149 N 0.90288 0.51912 0.45033 0.0
H1150 H 0.76801 0.87818 0.85451 0.0
H1151 H 0.66406 0.92715 0.76888 0.0
H1152 H 0.7339 0.8403 0.78998 0.0
H1153 H 0.70273 0.9665 0.83097 0.0
H1154 H 0.68705 0.89345 0.77759 0.0
H1155 H 0.7416 0.90896 0.84762 0.0
C1156 C 0.75478 0.8762 0.83901 0.0
C1157 C 0.75321 0.85667 0.82277 0.0
C1158 C 0.6904 0.90944 0.78933 0.0
C1159 C 0.72309 0.89208 0.81454 0.0
C1160 C 0.67727 0.92864 0.78438 0.0
C1161 C 0.68159 0.94972 0.79914 0.0
C1162 C 0.70788 0.91136 0.80919 0.0
C1163 C 0.69889 0.95068 0.81901 0.0
C1164 C 0.7398 0.89388 0.83498 0.0
C1165 C 0.73597 0.85527 0.80277 0.0
N1166 N 0.71141 0.93184 0.8234 0.0
N1167 N 0.72161 0.87278 0.79919 0.0
H1168 H 0.61476 0.52143 0.03682 0.0
H1169 H 0.74735 0.59957 0.98916 0.0
H1170 H 0.63575 0.52228 0.96235 0.0
H1171 H 0.71616 0.61389 0.05634 0.0
H1172 H 0.70972 0.5661 0.98126 0.0
H1173 H 0.6553 0.55011 0.04649 0.0
C1174 C 0.62806 0.52743 0.02258 0.0
C1175 C 0.62193 0.51959 -0.00126 0.0
C1176 C 0.71121 0.57653 0.99776 0.0
C1177 C 0.66815 0.55249 0.00961 0.0
C1178 C 0.73269 0.59557 0.00232 0.0
C1179 C 0.73479 0.60967 0.02336 0.0
C1180 C 0.69187 0.57142 0.01447 0.0
C1181 C 0.71523 0.60365 0.03979 0.0
C1182 C 0.65109 0.54392 0.02806 0.0
C1183 C 0.6397 0.52814 0.9809 0.0
N1184 N 0.69457 0.585 0.03498 0.0
N1185 N 0.66203 0.54419 0.98669 0.0
H1186 H 0.26805 0.69772 0.26413 0.0
H1187 H 0.16878 0.58612 0.20144 0.0
H1188 H 0.25527 0.69501 0.18636 0.0
H1189 H 0.2025 0.57913 0.27316 0.0
H1190 H 0.19811 0.62706 0.19565 0.0
H1191 H 0.24127 0.65547 0.26815 0.0
C1192 C 0.25976 0.68821 0.24786 0.0
C1193 C 0.26415 0.69994 0.22484 0.0
C1194 C 0.1992 0.61641 0.21255 0.0
C1195 C 0.23301 0.65161 0.22941 0.0
C1196 C 0.1825 0.59306 0.21587 0.0
C1197 C 0.18312 0.57922 0.23787 0.0
C1198 C 0.21635 0.62612 0.23148 0.0
C1199 C 0.20133 0.58911 0.25591 0.0
C1200 C 0.2444 0.66409 0.25019 0.0
C1201 C 0.25224 0.68687 0.20449 0.0
N1202 N 0.21703 0.61207 0.25241 0.0
N1203 N 0.23717 0.6634 0.20725 0.0
H1204 H 0.89481 0.49998 0.0231 0.0
H1205 H 0.86093 0.62216 0.07511 0.0
H1206 H 0.91856 0.52476 0.09543 0.0
H1207 H 0.86039 0.60835 -0.00138 0.0
H1208 H 0.88188 0.5869 0.08364 0.0
H1209 H 0.88077 0.53932 0.01441 0.0
C1210 C 0.897 0.51374 0.03715 0.0
C1211 C 0.90773 0.50913 0.06002 0.0
C1212 C 0.87747 0.59186 0.06499 0.0
C1213 C 0.89178 0.5542 0.05026 0.0
C1214 C 0.86559 0.61202 0.0601 0.0
C1215 C 0.85869 0.61808 0.03613 0.0
C1216 C 0.88215 0.57755 0.04578 0.0
C1217 C 0.86517 0.60427 0.0174 0.0
C1218 C 0.88919 0.53626 0.03215 0.0
C1219 C 0.91045 0.52769 0.07752 0.0
N1220 N 0.87621 0.58448 0.02264 0.0
N1221 N 0.9023 0.54936 0.07236 0.0
H1222 H 0.10237 0.99301 0.05571 0.0
H1223 H 0.18203 0.96824 0.94413 0.0
H1224 H 0.09434 0.02367 0.98327 0.0
H1225 H 0.19204 0.93824 0.01668 0.0
H1226 H 0.1502 0.98895 0.95847 0.0
H1227 H 0.1359 0.97347 0.04228 0.0
C1228 C 0.10773 0.99557 0.03697 0.0
C1229 C 0.09536 0.0095 0.0204 0.0
C1230 C 0.15933 0.97786 0.9713 0.0
C1231 C 0.13364 0.98747 0.00494 0.0
C1232 C 0.17751 0.96596 0.96311 0.0
C1233 C 0.18972 0.95142 0.97922 0.0
C1234 C 0.15319 0.97524 0.99583 0.0
C1235 C 0.18308 0.94923 0.00361 0.0
C1236 C 0.12682 0.98446 0.02931 0.0
C1237 C 0.10321 0.01271 0.99645 0.0
N1238 N 0.16524 0.961 0.01117 0.0
N1239 N 0.12174 0.00165 0.9894 0.0
loop_
_geom_bond_atom_site_label_1
_geom_bond_atom_site_label_2
_geom_bond_distance
_geom_bond_site_symmetry_2
_ccdc_geom_bond_type
H0 C7 0.929 . S
H1 C10 0.930 . S
H2 C12 0.929 . S
H3 C4 0.969 . S
C4 H3 0.969 . S
C4 O5 1.550 . S
C4 H6 0.973 . S
O5 C4 1.550 . S
O5 C11 1.412 . S
H6 C4 0.973 . S
C7 H0 0.929 . S
C7 C8 1.400 . S
C7 C9 1.364 . S
C8 C7 1.400 . S
C8 C12 1.377 . S
C9 C7 1.364 . S
C9 C10 1.374 . S
C10 H1 0.930 . S
C10 C9 1.374 . S
C10 C11 1.383 . S
C11 O5 1.412 . S
C11 C10 1.383 . S
C11 C12 1.394 . S
C12 H2 0.929 . S
C12 C8 1.377 . S
C12 C11 1.394 . S
H13 C20 0.929 . S
H14 C23 0.930 . S
H15 C25 0.929 . S
H16 C17 0.969 . S
C17 H16 0.969 . S
C17 O18 1.550 . S
C17 H19 0.973 . S
O18 C17 1.550 . S
O18 C24 1.412 . S
H19 C17 0.973 . S
C20 H13 0.929 . S
C20 C21 1.400 . S
C20 C22 1.364 . S
C21 C20 1.400 . S
C21 C25 1.377 . S
C22 C20 1.364 . S
C22 C23 1.374 . S
C23 H14 0.930 . S
C23 C22 1.374 . S
C23 C24 1.383 . S
C24 O18 1.412 . S
C24 C23 1.383 . S
C24 C25 1.394 . S
C25 H15 0.929 . S
C25 C21 1.377 . S
C25 C24 1.394 . S
H26 C33 0.929 . S
H27 C36 0.930 . S
H28 C38 0.929 . S
H29 C30 0.969 . S
C30 H29 0.969 . S
C30 O31 1.550 . S
C30 H32 0.973 . S
O31 C30 1.550 . S
O31 C37 1.412 . S
H32 C30 0.973 . S
C33 H26 0.929 . S
C33 C34 1.400 . S
C33 C35 1.364 . S
C34 C33 1.400 . S
C34 C38 1.377 . S
C35 C33 1.364 . S
C35 C36 1.374 . S
C36 H27 0.930 . S
C36 C35 1.374 . S
C36 C37 1.383 . S
C37 O31 1.412 . S
C37 C36 1.383 . S
C37 C38 1.394 . S
C38 H28 0.929 . S
C38 C34 1.377 . S
C38 C37 1.394 . S
H39 C46 0.929 . S
H40 C49 0.930 . S
H41 C51 0.929 . S
H42 C43 0.969 . S
C43 H42 0.969 . S
C43 O44 1.550 . S
C43 H45 0.973 . S
O44 C43 1.550 . S
O44 C50 1.412 . S
H45 C43 0.973 . S
C46 H39 0.929 . S
C46 C47 1.400 . S
C46 C48 1.364 . S
C47 C46 1.400 . S
C47 C51 1.377 . S
C48 C46 1.364 . S
C48 C49 1.374 . S
C49 H40 0.930 . S
C49 C48 1.374 . S
C49 C50 1.383 . S
C50 O44 1.412 . S
C50 C49 1.383 . S
C50 C51 1.394 . S
C51 H41 0.929 . S
C51 C47 1.377 . S
C51 C50 1.394 . S
H52 C59 0.929 . S
H53 C62 0.930 . S
H54 C64 0.929 1_545 S
H55 C56 0.969 . S
C56 H55 0.969 . S
C56 O57 1.550 . S
C56 H58 0.973 . S
O57 C56 1.550 . S
O57 C63 1.412 . S
H58 C56 0.973 . S
C59 H52 0.929 . S
C59 C60 1.400 . S
C59 C61 1.364 . S
C60 C59 1.400 . S
C60 C64 1.377 . S
C61 C59 1.364 . S
C61 C62 1.374 . S
C62 H53 0.930 . S
C62 C61 1.374 . S
C62 C63 1.383 . S
C63 O57 1.412 . S
C63 C62 1.383 . S
C63 C64 1.394 . S
C64 H54 0.929 1_565 S
C64 C60 1.377 . S
C64 C63 1.394 . S
H65 C72 0.929 . S
H66 C75 0.930 . S
H67 C77 0.929 . S
H68 C69 0.969 . S
C69 H68 0.969 . S
C69 O70 1.550 . S
C69 H71 0.973 . S
O70 C69 1.550 . S
O70 C76 1.412 . S
H71 C69 0.973 . S
C72 H65 0.929 . S
C72 C73 1.400 . S
C72 C74 1.364 . S
C73 C72 1.400 . S
C73 C77 1.377 . S
C74 C72 1.364 . S
C74 C75 1.374 . S
C75 H66 0.930 . S
C75 C74 1.374 . S
C75 C76 1.383 . S
C76 O70 1.412 . S
C76 C75 1.383 . S
C76 C77 1.394 . S
C77 H67 0.929 . S
C77 C73 1.377 . S
C77 C76 1.394 . S
H78 C85 0.929 . S
H79 C88 0.930 . S
H80 C90 0.929 . S
H81 C82 0.969 . S
C82 H81 0.969 . S
C82 O83 1.550 . S
C82 H84 0.973 . S
O83 C82 1.550 . S
O83 C89 1.412 . S
H84 C82 0.973 . S
C85 H78 0.929 . S
C85 C86 1.400 . S
C85 C87 1.364 . S
C86 C85 1.400 . S
C86 C90 1.377 . S
C87 C85 1.364 . S
C87 C88 1.374 . S
C88 H79 0.930 . S
C88 C87 1.374 . S
C88 C89 1.383 . S
C89 O83 1.412 . S
C89 C88 1.383 . S
C89 C90 1.394 . S
C90 H80 0.929 . S
C90 C86 1.377 . S
C90 C89 1.394 . S
H91 C98 0.929 . S
H92 C101 0.930 . S
H93 C103 0.929 . S
H94 C95 0.969 . S
C95 H94 0.969 . S
C95 O96 1.550 . S
C95 H97 0.973 . S
O96 C95 1.550 . S
O96 C102 1.412 . S
H97 C95 0.973 . S
C98 H91 0.929 . S
C98 C99 1.400 . S
C98 C100 1.364 . S
C99 C98 1.400 . S
C99 C103 1.377 . S
C100 C98 1.364 . S
C100 C101 1.374 . S
C101 H92 0.930 . S
C101 C100 1.374 . S
C101 C102 1.383 . S
C102 O96 1.412 . S
C102 C101 1.383 . S
C102 C103 1.394 . S
C103 H93 0.929 . S
C103 C99 1.377 . S
C103 C102 1.394 . S
H104 C111 0.929 . S
H105 C114 0.930 . S
H106 C116 0.929 . S
H107 C108 0.969 . S
C108 H107 0.969 . S
C108 O109 1.550 . S
C108 H110 0.973 . S
O109 C108 1.550 . S
O109 C115 1.412 . S
H110 C108 0.973 . S
C111 H104 0.929 . S
C111 C112 1.400 . S
C111 C113 1.364 . S
C112 C111 1.400 . S
C112 C116 1.377 . S
C113 C111 1.364 . S
C113 C114 1.374 . S
C114 H105 0.930 . S
C114 C113 1.374 . S
C114 C115 1.383 . S
C115 O109 1.412 . S
C115 C114 1.383 . S
C115 C116 1.394 . S
C116 H106 0.929 . S
C116 C112 1.377 . S
C116 C115 1.394 . S
H117 C124 0.929 . S
H118 C127 0.930 . S
H119 C129 0.929 . S
H120 C121 0.969 . S
C121 H120 0.969 . S
C121 O122 1.550 . S
C121 H123 0.973 . S
O122 C121 1.550 . S
O122 C128 1.412 . S
H123 C121 0.973 . S
C124 H117 0.929 . S
C124 C125 1.400 . S
C124 C126 1.364 . S
C125 C124 1.400 . S
C125 C129 1.377 . S
C126 C124 1.364 . S
C126 C127 1.374 . S
C127 H118 0.930 . S
C127 C126 1.374 . S
C127 C128 1.383 . S
C128 O122 1.412 . S
C128 C127 1.383 . S
C128 C129 1.394 . S
C129 H119 0.929 . S
C129 C125 1.377 . S
C129 C128 1.394 . S
H130 C137 0.929 . S
H131 C140 0.930 . S
H132 C142 0.929 . S
H133 C134 0.969 . S
C134 H133 0.969 . S
C134 O135 1.550 . S
C134 H136 0.973 . S
O135 C134 1.550 . S
O135 C141 1.412 . S
H136 C134 0.973 . S
C137 H130 0.929 . S
C137 C138 1.400 . S
C137 C139 1.364 . S
C138 C137 1.400 . S
C138 C142 1.377 . S
C139 C137 1.364 . S
C139 C140 1.374 . S
C140 H131 0.930 . S
C140 C139 1.374 . S
C140 C141 1.383 . S
C141 O135 1.412 . S
C141 C140 1.383 . S
C141 C142 1.394 . S
C142 H132 0.929 . S
C142 C138 1.377 . S
C142 C141 1.394 . S
H143 C150 0.929 . S
H144 C153 0.930 . S
H145 C155 0.929 . S
H146 C147 0.969 . S
C147 H146 0.969 . S
C147 O148 1.550 . S
C147 H149 0.973 . S
O148 C147 1.550 . S
O148 C154 1.412 . S
H149 C147 0.973 . S
C150 H143 0.929 . S
C150 C151 1.400 . S
C150 C152 1.364 . S
C151 C150 1.400 . S
C151 C155 1.377 . S
C152 C150 1.364 . S
C152 C153 1.374 . S
C153 H144 0.930 . S
C153 C152 1.374 . S
C153 C154 1.383 . S
C154 O148 1.412 . S
C154 C153 1.383 . S
C154 C155 1.394 . S
C155 H145 0.929 . S
C155 C151 1.377 . S
C155 C154 1.394 . S
H156 C163 0.929 . S
H157 C166 0.930 . S
H158 C168 0.929 . S
H159 C160 0.969 . S
C160 H159 0.969 . S
C160 O161 1.550 . S
C160 H162 0.973 . S
O161 C160 1.550 . S
O161 C167 1.412 . S
H162 C160 0.973 . S
C163 H156 0.929 . S
C163 C164 1.400 . S
C163 C165 1.364 . S
C164 C163 1.400 . S
C164 C168 1.377 . S
C165 C163 1.364 . S
C165 C166 1.374 . S
C166 H157 0.930 . S
C166 C165 1.374 . S
C166 C167 1.383 . S
C167 O161 1.412 . S
C167 C166 1.383 . S
C167 C168 1.394 . S
C168 H158 0.929 . S
C168 C164 1.377 . S
C168 C167 1.394 . S
H169 C176 0.929 . S
H170 C179 0.930 . S
H171 C181 0.929 . S
H172 C173 0.969 . S
C173 H172 0.969 . S
C173 O174 1.550 . S
C173 H175 0.973 . S
O174 C173 1.550 . S
O174 C180 1.412 . S
H175 C173 0.973 . S
C176 H169 0.929 . S
C176 C177 1.400 . S
C176 C178 1.364 . S
C177 C176 1.400 . S
C177 C181 1.377 . S
C178 C176 1.364 . S
C178 C179 1.374 . S
C179 H170 0.930 . S
C179 C178 1.374 . S
C179 C180 1.383 . S
C180 O174 1.412 . S
C180 C179 1.383 . S
C180 C181 1.394 . S
C181 H171 0.929 . S
C181 C177 1.377 . S
C181 C180 1.394 . S
H182 C189 0.929 . S
H183 C192 0.930 . S
H184 C194 0.929 . S
H185 C186 0.969 . S
C186 H185 0.969 . S
C186 O187 1.550 . S
C186 H188 0.973 . S
O187 C186 1.550 . S
O187 C193 1.412 . S
H188 C186 0.973 . S
C189 H182 0.929 . S
C189 C190 1.400 . S
C189 C191 1.364 . S
C190 C189 1.400 . S
C190 C194 1.377 . S
C191 C189 1.364 . S
C191 C192 1.374 . S
C192 H183 0.930 . S
C192 C191 1.374 . S
C192 C193 1.383 . S
C193 O187 1.412 . S
C193 C192 1.383 . S
C193 C194 1.394 . S
C194 H184 0.929 . S
C194 C190 1.377 . S
C194 C193 1.394 . S
H195 C202 0.929 . S
H196 C205 0.930 . S
H197 C207 0.929 . S
H198 C199 0.969 . S
C199 H198 0.969 . S
C199 O200 1.550 . S
C199 H201 0.973 . S
O200 C199 1.550 . S
O200 C206 1.412 . S
H201 C199 0.973 . S
C202 H195 0.929 . S
C202 C203 1.400 . S
C202 C204 1.364 . S
C203 C202 1.400 . S
C203 C207 1.377 . S
C204 C202 1.364 . S
C204 C205 1.374 . S
C205 H196 0.930 . S
C205 C204 1.374 . S
C205 C206 1.383 . S
C206 O200 1.412 . S
C206 C205 1.383 . S
C206 C207 1.394 . S
C207 H197 0.929 . S
C207 C203 1.377 . S
C207 C206 1.394 . S
O208 Cd209 2.223 1_556 S
O208 C216 1.315 . S
Cd209 O208 2.223 1_554 S
Cd209 O212 2.297 . S
Cd209 O213 2.439 . S
Cd209 O219 2.240 . S
Cd210 O211 2.240 . S
Cd210 O218 2.223 1_554 S
Cd210 O220 2.297 . S
Cd210 O221 2.439 . S
O211 Cd210 2.240 . S
O211 C216 1.279 1_554 S
O212 Cd209 2.297 . S
O212 C214 1.247 . S
O213 Cd209 2.439 . S
O213 C214 1.208 . S
C214 O212 1.247 . S
C214 O213 1.208 . S
C215 O220 1.247 . S
C215 O221 1.208 . S
C216 O208 1.315 . S
C216 O211 1.279 1_556 S
C217 O218 1.315 . S
C217 O219 1.279 1_556 S
O218 Cd210 2.223 1_556 S
O218 C217 1.315 . S
O219 Cd209 2.240 . S
O219 C217 1.279 1_554 S
O220 Cd210 2.297 . S
O220 C215 1.247 . S
O221 Cd210 2.439 . S
O221 C215 1.208 . S
O222 Cd223 2.223 . S
O222 C230 1.315 . S
Cd223 O222 2.223 . S
Cd223 O226 2.297 . S
Cd223 O227 2.439 . S
Cd223 O233 2.240 . S
Cd224 O225 2.240 . S
Cd224 O232 2.223 . S
Cd224 O234 2.297 . S
Cd224 O235 2.439 . S
O225 Cd224 2.240 . S
O225 C230 1.279 . S
O226 Cd223 2.297 . S
O226 C228 1.247 . S
O227 Cd223 2.439 . S
O227 C228 1.208 . S
C228 O226 1.247 . S
C228 O227 1.208 . S
C229 O234 1.247 . S
C229 O235 1.208 . S
C230 O222 1.315 . S
C230 O225 1.279 . S
C231 O232 1.315 . S
C231 O233 1.279 . S
O232 Cd224 2.223 . S
O232 C231 1.315 . S
O233 Cd223 2.240 . S
O233 C231 1.279 . S
O234 Cd224 2.297 . S
O234 C229 1.247 . S
O235 Cd224 2.439 . S
O235 C229 1.208 . S
O236 Cd237 2.223 1_556 S
O236 C244 1.315 . S
Cd237 O236 2.223 1_554 S
Cd237 O240 2.297 . S
Cd237 O241 2.439 . S
Cd237 O247 2.240 . S
Cd238 O239 2.240 . S
Cd238 O246 2.223 1_554 S
Cd238 O248 2.297 . S
Cd238 O249 2.439 . S
O239 Cd238 2.240 . S
O239 C244 1.279 1_554 S
O240 Cd237 2.297 . S
O240 C242 1.247 . S
O241 Cd237 2.439 . S
O241 C242 1.208 . S
C242 O240 1.247 . S
C242 O241 1.208 . S
C243 O248 1.247 . S
C243 O249 1.208 . S
C244 O236 1.315 . S
C244 O239 1.279 1_556 S
C245 O246 1.315 . S
C245 O247 1.279 1_556 S
O246 Cd238 2.223 1_556 S
O246 C245 1.315 . S
O247 Cd237 2.240 . S
O247 C245 1.279 1_554 S
O248 Cd238 2.297 . S
O248 C243 1.247 . S
O249 Cd238 2.439 . S
O249 C243 1.208 . S
O250 Cd251 2.223 . S
O250 C258 1.315 . S
Cd251 O250 2.223 . S
Cd251 O254 2.297 . S
Cd251 O255 2.439 . S
Cd251 O261 2.240 . S
Cd252 O253 2.240 . S
Cd252 O260 2.223 . S
Cd252 O262 2.297 . S
Cd252 O263 2.439 . S
O253 Cd252 2.240 . S
O253 C258 1.279 . S
O254 Cd251 2.297 . S
O254 C256 1.247 . S
O255 Cd251 2.439 . S
O255 C256 1.208 . S
C256 O254 1.247 . S
C256 O255 1.208 . S
C257 O262 1.247 . S
C257 O263 1.208 . S
C258 O250 1.315 . S
C258 O253 1.279 . S
C259 O260 1.315 . S
C259 O261 1.279 . S
O260 Cd252 2.223 . S
O260 C259 1.315 . S
O261 Cd251 2.240 . S
O261 C259 1.279 . S
O262 Cd252 2.297 . S
O262 C257 1.247 . S
O263 Cd252 2.439 . S
O263 C257 1.208 . S
O264 Cd265 2.223 . S
O264 C272 1.315 . S
Cd265 O264 2.223 . S
Cd265 O268 2.297 . S
Cd265 O269 2.439 . S
Cd265 O275 2.240 . S
Cd266 O267 2.240 . S
Cd266 O274 2.223 . S
Cd266 O276 2.297 . S
Cd266 O277 2.439 . S
O267 Cd266 2.240 . S
O267 C272 1.279 . S
O268 Cd265 2.297 . S
O268 C270 1.247 . S
O269 Cd265 2.439 . S
O269 C270 1.208 . S
C270 O268 1.247 . S
C270 O269 1.208 . S
C271 O276 1.247 . S
C271 O277 1.208 . S
C272 O264 1.315 . S
C272 O267 1.279 . S
C273 O274 1.315 . S
C273 O275 1.279 . S
O274 Cd266 2.223 . S
O274 C273 1.315 . S
O275 Cd265 2.240 . S
O275 C273 1.279 . S
O276 Cd266 2.297 . S
O276 C271 1.247 . S
O277 Cd266 2.439 . S
O277 C271 1.208 . S
O278 Cd279 2.223 . S
O278 C286 1.315 . S
Cd279 O278 2.223 . S
Cd279 O282 2.297 . S
Cd279 O283 2.439 . S
Cd279 O289 2.240 . S
Cd280 O281 2.240 . S
Cd280 O288 2.223 . S
Cd280 O290 2.297 . S
Cd280 O291 2.439 . S
O281 Cd280 2.240 . S
O281 C286 1.279 . S
O282 Cd279 2.297 . S
O282 C284 1.247 . S
O283 Cd279 2.439 . S
O283 C284 1.208 . S
C284 O282 1.247 . S
C284 O283 1.208 . S
C285 O290 1.247 . S
C285 O291 1.208 . S
C286 O278 1.315 . S
C286 O281 1.279 . S
C287 O288 1.315 . S
C287 O289 1.279 . S
O288 Cd280 2.223 . S
O288 C287 1.315 . S
O289 Cd279 2.240 . S
O289 C287 1.279 . S
O290 Cd280 2.297 . S
O290 C285 1.247 . S
O291 Cd280 2.439 . S
O291 C285 1.208 . S
O292 Cd293 2.223 . S
O292 C300 1.315 . S
Cd293 O292 2.223 . S
Cd293 O296 2.297 . S
Cd293 O297 2.439 . S
Cd293 O303 2.240 . S
Cd294 O295 2.240 . S
Cd294 O302 2.223 . S
Cd294 O304 2.297 . S
Cd294 O305 2.439 . S
O295 Cd294 2.240 . S
O295 C300 1.279 . S
O296 Cd293 2.297 . S
O296 C298 1.247 . S
O297 Cd293 2.439 . S
O297 C298 1.208 . S
C298 O296 1.247 . S
C298 O297 1.208 . S
C299 O304 1.247 . S
C299 O305 1.208 . S
C300 O292 1.315 . S
C300 O295 1.279 . S
C301 O302 1.315 . S
C301 O303 1.279 . S
O302 Cd294 2.223 . S
O302 C301 1.315 . S
O303 Cd293 2.240 . S
O303 C301 1.279 . S
O304 Cd294 2.297 . S
O304 C299 1.247 . S
O305 Cd294 2.439 . S
O305 C299 1.208 . S
O306 Cd307 2.223 1_545 S
O306 C314 1.315 . S
Cd307 O306 2.223 1_565 S
Cd307 O310 2.297 . S
Cd307 O311 2.439 . S
Cd307 O317 2.240 1_565 S
Cd308 O309 2.240 . S
Cd308 O316 2.223 . S
Cd308 O318 2.297 . S
Cd308 O319 2.439 1_545 S
O309 Cd308 2.240 . S
O309 C314 1.279 . S
O310 Cd307 2.297 . S
O310 C312 1.247 . S
O311 Cd307 2.439 . S
O311 C312 1.208 . S
C312 O310 1.247 . S
C312 O311 1.208 . S
C313 O318 1.247 1_565 S
C313 O319 1.208 . S
C314 O306 1.315 . S
C314 O309 1.279 . S
C315 O316 1.315 . S
C315 O317 1.279 . S
O316 Cd308 2.223 . S
O316 C315 1.315 . S
O317 Cd307 2.240 1_545 S
O317 C315 1.279 . S
O318 Cd308 2.297 . S
O318 C313 1.247 1_545 S
O319 Cd308 2.439 1_565 S
O319 C313 1.208 . S
O320 Cd321 2.223 . S
O320 C328 1.315 . S
Cd321 O320 2.223 . S
Cd321 O324 2.297 . S
Cd321 O325 2.439 1_655 S
Cd321 O331 2.240 . S
Cd322 O323 2.240 . S
Cd322 O330 2.223 1_455 S
Cd322 O332 2.297 . S
Cd322 O333 2.439 . S
O323 Cd322 2.240 . S
O323 C328 1.279 1_455 S
O324 Cd321 2.297 . S
O324 C326 1.247 1_655 S
O325 Cd321 2.439 1_455 S
O325 C326 1.208 . S
C326 O324 1.247 1_455 S
C326 O325 1.208 . S
C327 O332 1.247 . S
C327 O333 1.208 . S
C328 O320 1.315 . S
C328 O323 1.279 1_655 S
C329 O330 1.315 . S
C329 O331 1.279 . S
O330 Cd322 2.223 1_655 S
O330 C329 1.315 . S
O331 Cd321 2.240 . S
O331 C329 1.279 . S
O332 Cd322 2.297 . S
O332 C327 1.247 . S
O333 Cd322 2.439 . S
O333 C327 1.208 . S
O334 Cd335 2.223 . S
O334 C342 1.315 . S
Cd335 O334 2.223 . S
Cd335 O338 2.297 . S
Cd335 O339 2.439 . S
Cd335 O345 2.240 . S
Cd336 O337 2.240 . S
Cd336 O344 2.223 . S
Cd336 O346 2.297 . S
Cd336 O347 2.439 . S
O337 Cd336 2.240 . S
O337 C342 1.279 . S
O338 Cd335 2.297 . S
O338 C340 1.247 . S
O339 Cd335 2.439 . S
O339 C340 1.208 . S
C340 O338 1.247 . S
C340 O339 1.208 . S
C341 O346 1.247 . S
C341 O347 1.208 . S
C342 O334 1.315 . S
C342 O337 1.279 . S
C343 O344 1.315 . S
C343 O345 1.279 . S
O344 Cd336 2.223 . S
O344 C343 1.315 . S
O345 Cd335 2.240 . S
O345 C343 1.279 . S
O346 Cd336 2.297 . S
O346 C341 1.247 . S
O347 Cd336 2.439 . S
O347 C341 1.208 . S
O348 Cd349 2.223 1_655 S
O348 C356 1.315 . S
Cd349 O348 2.223 1_455 S
Cd349 O352 2.297 . S
Cd349 O353 2.439 . S
Cd349 O359 2.240 . S
Cd350 O351 2.240 . S
Cd350 O358 2.223 1_455 S
Cd350 O360 2.297 . S
Cd350 O361 2.439 . S
O351 Cd350 2.240 . S
O351 C356 1.279 1_455 S
O352 Cd349 2.297 . S
O352 C354 1.247 . S
O353 Cd349 2.439 . S
O353 C354 1.208 . S
C354 O352 1.247 . S
C354 O353 1.208 . S
C355 O360 1.247 . S
C355 O361 1.208 . S
C356 O348 1.315 . S
C356 O351 1.279 1_655 S
C357 O358 1.315 . S
C357 O359 1.279 1_655 S
O358 Cd350 2.223 1_655 S
O358 C357 1.315 . S
O359 Cd349 2.240 . S
O359 C357 1.279 1_455 S
O360 Cd350 2.297 . S
O360 C355 1.247 . S
O361 Cd350 2.439 . S
O361 C355 1.208 . S
O362 Cd363 2.223 . S
O362 C370 1.315 . S
Cd363 O362 2.223 . S
Cd363 O366 2.297 . S
Cd363 O367 2.439 . S
Cd363 O373 2.240 . S
Cd364 O365 2.240 . S
Cd364 O372 2.223 . S
Cd364 O374 2.297 . S
Cd364 O375 2.439 . S
O365 Cd364 2.240 . S
O365 C370 1.279 . S
O366 Cd363 2.297 . S
O366 C368 1.247 . S
O367 Cd363 2.439 . S
O367 C368 1.208 . S
C368 O366 1.247 . S
C368 O367 1.208 . S
C369 O374 1.247 . S
C369 O375 1.208 . S
C370 O362 1.315 . S
C370 O365 1.279 . S
C371 O372 1.315 . S
C371 O373 1.279 . S
O372 Cd364 2.223 . S
O372 C371 1.315 . S
O373 Cd363 2.240 . S
O373 C371 1.279 . S
O374 Cd364 2.297 . S
O374 C369 1.247 . S
O375 Cd364 2.439 . S
O375 C369 1.208 . S
H376 C382 0.930 . S
H377 C386 0.930 . S
H378 C391 0.929 . S
H379 C389 0.929 . S
H380 C384 0.929 . S
H381 C390 0.929 . S
C382 H376 0.930 . S
C382 C383 1.367 . S
C382 C390 1.378 . S
C383 C382 1.367 . S
C383 C391 1.433 . S
C384 H380 0.929 . S
C384 C386 1.378 . S
C384 C388 1.350 . S
C385 C388 1.463 . S
C385 C390 1.350 . S
C385 N393 1.427 . S
C386 H377 0.930 . S
C386 C384 1.378 . S
C386 C387 1.367 . S
C387 C386 1.367 . S
C387 C389 1.433 . S
C388 C384 1.350 . S
C388 C385 1.463 . S
C388 N392 1.427 . S
C389 H379 0.929 . S
C389 C387 1.433 . S
C389 N392 1.384 . S
C390 H381 0.929 . S
C390 C382 1.378 . S
C390 C385 1.350 . S
C391 H378 0.929 . S
C391 C383 1.433 . S
C391 N393 1.384 . S
N392 C388 1.427 . S
N392 C389 1.384 . S
N393 C385 1.427 . S
N393 C391 1.384 . S
H394 C400 0.930 . S
H395 C404 0.930 . S
H396 C409 0.929 . S
H397 C407 0.929 . S
H398 C402 0.929 . S
H399 C408 0.929 . S
C400 H394 0.930 . S
C400 C401 1.367 1_455 S
C400 C408 1.378 . S
C401 C400 1.367 1_655 S
C401 C409 1.433 . S
C402 H398 0.929 . S
C402 C404 1.378 . S
C402 C406 1.350 . S
C403 C406 1.463 . S
C403 C408 1.350 . S
C403 N411 1.458 . S
C404 H395 0.930 . S
C404 C402 1.378 . S
C404 C405 1.367 . S
C405 C404 1.367 . S
C405 C407 1.433 . S
C406 C402 1.350 . S
C406 C403 1.463 . S
C406 N410 1.427 . S
C407 H397 0.929 . S
C407 C405 1.433 . S
C407 N410 1.384 . S
C408 H399 0.929 . S
C408 C400 1.378 . S
C408 C403 1.350 . S
C409 H396 0.929 . S
C409 C401 1.433 . S
C409 N411 1.349 1_655 S
N410 C406 1.427 . S
N410 C407 1.384 . S
N411 C403 1.458 . S
N411 C409 1.349 1_455 S
H412 C418 0.930 . S
H413 C422 0.930 . S
H414 C427 0.929 . S
H415 C425 0.929 . S
H416 C420 0.929 . S
H417 C426 0.929 . S
C418 H412 0.930 . S
C418 C419 1.367 . S
C418 C426 1.378 . S
C419 C418 1.367 . S
C419 C427 1.433 . S
C420 H416 0.929 . S
C420 C422 1.378 . S
C420 C424 1.350 . S
C421 C424 1.463 . S
C421 C426 1.350 . S
C421 N429 1.427 . S
C422 H413 0.930 . S
C422 C420 1.378 . S
C422 C423 1.367 . S
C423 C422 1.367 . S
C423 C425 1.433 . S
C424 C420 1.350 . S
C424 C421 1.463 . S
C424 N428 1.427 . S
C425 H415 0.929 . S
C425 C423 1.433 . S
C425 N428 1.384 . S
C426 H417 0.929 . S
C426 C418 1.378 . S
C426 C421 1.350 . S
C427 H414 0.929 . S
C427 C419 1.433 . S
C427 N429 1.384 . S
N428 C424 1.427 . S
N428 C425 1.384 . S
N429 C421 1.427 . S
N429 C427 1.384 . S
H430 C436 0.930 . S
H431 C440 0.930 . S
H432 C445 0.929 . S
H433 C443 0.929 . S
H434 C438 0.929 1_565 S
H435 C444 0.934 . S
C436 H430 0.930 . S
C436 C437 1.367 1_545 S
C436 C444 1.378 . S
C437 C436 1.367 1_565 S
C437 C445 1.433 . S
C438 H434 0.929 1_545 S
C438 C440 1.378 . S
C438 C442 1.350 . S
C439 C442 1.463 . S
C439 C444 1.350 1_655 S
C439 N447 1.427 1_545 S
C440 H431 0.930 . S
C440 C438 1.378 . S
C440 C441 1.367 . S
C441 C440 1.367 . S
C441 C443 1.433 . S
C442 C438 1.350 . S
C442 C439 1.463 . S
C442 N446 1.427 . S
C443 H433 0.929 . S
C443 C441 1.433 . S
C443 N446 1.384 . S
C444 H435 0.934 . S
C444 C436 1.378 . S
C444 C439 1.350 1_455 S
C445 H432 0.929 . S
C445 C437 1.433 . S
C445 N447 1.384 1_455 S
N446 C442 1.427 . S
N446 C443 1.384 . S
N447 C439 1.427 1_565 S
N447 C445 1.384 1_655 S
H448 C454 0.930 . S
H449 C458 0.930 . S
H450 C463 0.929 . S
H451 C461 0.929 . S
H452 C456 0.929 . S
H453 C462 0.929 . S
C454 H448 0.930 . S
C454 C455 1.367 . S
C454 C462 1.378 . S
C455 C454 1.367 . S
C455 C463 1.433 . S
C456 H452 0.929 . S
C456 C458 1.378 . S
C456 C460 1.350 . S
C457 C460 1.463 . S
C457 C462 1.350 . S
C457 N465 1.427 . S
C458 H449 0.930 . S
C458 C456 1.378 . S
C458 C459 1.367 . S
C459 C458 1.367 . S
C459 C461 1.433 . S
C460 C456 1.350 . S
C460 C457 1.463 . S
C460 N464 1.427 . S
C461 H451 0.929 . S
C461 C459 1.433 . S
C461 N464 1.384 . S
C462 H453 0.929 . S
C462 C454 1.378 . S
C462 C457 1.350 . S
C463 H450 0.929 . S
C463 C455 1.433 . S
C463 N465 1.384 . S
N464 C460 1.427 . S
N464 C461 1.384 . S
N465 C457 1.427 . S
N465 C463 1.384 . S
H466 C472 0.930 . S
H467 C476 0.930 . S
H468 C481 0.929 . S
H469 C479 0.929 . S
H470 C474 0.929 . S
H471 C480 0.929 . S
C472 H466 0.930 . S
C472 C473 1.367 . S
C472 C480 1.378 . S
C473 C472 1.367 . S
C473 C481 1.433 . S
C474 H470 0.929 . S
C474 C476 1.378 . S
C474 C478 1.350 . S
C475 C478 1.463 . S
C475 C480 1.350 . S
C475 N483 1.427 . S
C476 H467 0.930 . S
C476 C474 1.378 . S
C476 C477 1.367 . S
C477 C476 1.367 . S
C477 C479 1.433 . S
C478 C474 1.350 . S
C478 C475 1.463 . S
C478 N482 1.427 . S
C479 H469 0.929 . S
C479 C477 1.433 . S
C479 N482 1.384 . S
C480 H471 0.929 . S
C480 C472 1.378 . S
C480 C475 1.350 . S
C481 H468 0.929 . S
C481 C473 1.433 . S
C481 N483 1.384 . S
N482 C478 1.427 . S
N482 C479 1.384 . S
N483 C475 1.427 . S
N483 C481 1.384 . S
H484 C490 0.930 . S
H485 C494 0.930 . S
H486 C499 0.929 . S
H487 C497 0.929 . S
H488 C492 0.929 . S
H489 C498 0.929 . S
C490 H484 0.930 . S
C490 C491 1.367 . S
C490 C498 1.378 . S
C491 C490 1.367 . S
C491 C499 1.433 . S
C492 H488 0.929 . S
C492 C494 1.378 . S
C492 C496 1.350 . S
C493 C496 1.463 . S
C493 C498 1.350 . S
C493 N501 1.427 . S
C494 H485 0.930 . S
C494 C492 1.378 . S
C494 C495 1.367 . S
C495 C494 1.367 . S
C495 C497 1.433 . S
C496 C492 1.350 . S
C496 C493 1.463 . S
C496 N500 1.427 . S
C497 H487 0.929 . S
C497 C495 1.433 . S
C497 N500 1.384 . S
C498 H489 0.929 . S
C498 C490 1.378 . S
C498 C493 1.350 . S
C499 H486 0.929 . S
C499 C491 1.433 . S
C499 N501 1.384 . S
N500 C496 1.427 . S
N500 C497 1.384 . S
N501 C493 1.427 . S
N501 C499 1.384 . S
H502 C508 0.930 . S
H503 C512 0.930 . S
H504 C517 0.929 . S
H505 C515 0.929 . S
H506 C510 0.929 . S
H507 C516 0.929 . S
C508 H502 0.930 . S
C508 C509 1.367 . S
C508 C516 1.378 . S
C509 C508 1.367 . S
C509 C517 1.433 . S
C510 H506 0.929 . S
C510 C512 1.378 . S
C510 C514 1.350 . S
C511 C514 1.463 . S
C511 C516 1.350 . S
C511 N519 1.427 . S
C512 H503 0.930 . S
C512 C510 1.378 . S
C512 C513 1.367 . S
C513 C512 1.367 . S
C513 C515 1.433 . S
C514 C510 1.350 . S
C514 C511 1.463 . S
C514 N518 1.427 . S
C515 H505 0.929 . S
C515 C513 1.433 . S
C515 N518 1.384 . S
C516 H507 0.929 . S
C516 C508 1.378 . S
C516 C511 1.350 . S
C517 H504 0.929 . S
C517 C509 1.433 . S
C517 N519 1.384 . S
N518 C514 1.427 . S
N518 C515 1.384 . S
N519 C511 1.427 . S
N519 C517 1.384 . S
H520 C526 0.930 . S
H521 C530 0.930 . S
H522 C535 0.929 . S
H523 C533 0.929 . S
H524 C528 0.929 . S
H525 C534 0.929 . S
C526 H520 0.930 . S
C526 C527 1.367 . S
C526 C534 1.378 . S
C527 C526 1.367 . S
C527 C535 1.433 . S
C528 H524 0.929 . S
C528 C530 1.378 . S
C528 C532 1.350 . S
C529 C532 1.463 . S
C529 C534 1.350 . S
C529 N537 1.427 . S
C530 H521 0.930 . S
C530 C528 1.378 . S
C530 C531 1.367 . S
C531 C530 1.367 . S
C531 C533 1.433 . S
C532 C528 1.350 . S
C532 C529 1.463 . S
C532 N536 1.427 . S
C533 H523 0.929 . S
C533 C531 1.433 . S
C533 N536 1.384 . S
C534 H525 0.929 . S
C534 C526 1.378 . S
C534 C529 1.350 . S
C535 H522 0.929 . S
C535 C527 1.433 . S
C535 N537 1.384 . S
N536 C532 1.427 . S
N536 C533 1.384 . S
N537 C529 1.427 . S
N537 C535 1.384 . S
H538 C544 0.930 . S
H539 C548 0.930 . S
H540 C553 0.929 . S
H541 C551 0.929 . S
H542 C546 0.929 . S
H543 C552 0.929 . S
C544 H538 0.930 . S
C544 C545 1.367 . S
C544 C552 1.378 . S
C545 C544 1.367 . S
C545 C553 1.433 . S
C546 H542 0.929 . S
C546 C548 1.378 . S
C546 C550 1.350 . S
C547 C550 1.463 . S
C547 C552 1.350 . S
C547 N555 1.427 . S
C548 H539 0.930 . S
C548 C546 1.378 . S
C548 C549 1.367 . S
C549 C548 1.367 . S
C549 C551 1.433 . S
C550 C546 1.350 . S
C550 C547 1.463 . S
C550 N554 1.427 . S
C551 H541 0.929 . S
C551 C549 1.433 . S
C551 N554 1.384 . S
C552 H543 0.929 . S
C552 C544 1.378 . S
C552 C547 1.350 . S
C553 H540 0.929 . S
C553 C545 1.433 . S
C553 N555 1.384 . S
N554 C550 1.427 . S
N554 C551 1.384 . S
N555 C547 1.427 . S
N555 C553 1.384 . S
H556 C562 0.930 . S
H557 C566 0.930 . S
H558 C571 0.929 . S
H559 C569 0.929 . S
H560 C564 0.929 . S
H561 C570 0.929 . S
C562 H556 0.930 . S
C562 C563 1.367 . S
C562 C570 1.378 . S
C563 C562 1.367 . S
C563 C571 1.433 . S
C564 H560 0.929 . S
C564 C566 1.378 . S
C564 C568 1.350 . S
C565 C568 1.463 . S
C565 C570 1.350 . S
C565 N573 1.427 . S
C566 H557 0.930 . S
C566 C564 1.378 . S
C566 C567 1.367 . S
C567 C566 1.367 . S
C567 C569 1.433 . S
C568 C564 1.350 . S
C568 C565 1.463 . S
C568 N572 1.427 . S
C569 H559 0.929 . S
C569 C567 1.433 . S
C569 N572 1.384 . S
C570 H561 0.929 . S
C570 C562 1.378 . S
C570 C565 1.350 . S
C571 H558 0.929 . S
C571 C563 1.433 . S
C571 N573 1.384 . S
N572 C568 1.427 . S
N572 C569 1.384 . S
N573 C565 1.427 . S
N573 C571 1.384 . S
H574 C580 0.930 . S
H575 C584 0.930 . S
H576 C589 0.929 . S
H577 C587 0.929 . S
H578 C582 0.929 . S
H579 C588 0.929 . S
C580 H574 0.930 . S
C580 C581 1.367 . S
C580 C588 1.378 . S
C581 C580 1.367 . S
C581 C589 1.433 . S
C582 H578 0.929 . S
C582 C584 1.378 . S
C582 C586 1.350 . S
C583 C586 1.463 . S
C583 C588 1.350 . S
C583 N591 1.427 . S
C584 H575 0.930 . S
C584 C582 1.378 . S
C584 C585 1.367 . S
C585 C584 1.367 . S
C585 C587 1.433 . S
C586 C582 1.350 . S
C586 C583 1.463 . S
C586 N590 1.427 . S
C587 H577 0.929 . S
C587 C585 1.433 . S
C587 N590 1.384 . S
C588 H579 0.929 . S
C588 C580 1.378 . S
C588 C583 1.350 . S
C589 H576 0.929 . S
C589 C581 1.433 . S
C589 N591 1.384 . S
N590 C586 1.427 . S
N590 C587 1.384 . S
N591 C583 1.427 . S
N591 C589 1.384 . S
H592 C598 0.930 . S
H593 C602 0.930 . S
H594 C607 0.929 . S
H595 C605 0.929 . S
H596 C600 0.929 . S
H597 C606 0.929 . S
C598 H592 0.930 . S
C598 C599 1.367 . S
C598 C606 1.378 . S
C599 C598 1.367 . S
C599 C607 1.433 . S
C600 H596 0.929 . S
C600 C602 1.378 . S
C600 C604 1.350 . S
C601 C604 1.463 . S
C601 C606 1.350 . S
C601 N609 1.427 . S
C602 H593 0.930 . S
C602 C600 1.378 . S
C602 C603 1.367 . S
C603 C602 1.367 . S
C603 C605 1.433 . S
C604 C600 1.350 . S
C604 C601 1.463 . S
C604 N608 1.427 . S
C605 H595 0.929 . S
C605 C603 1.433 . S
C605 N608 1.384 . S
C606 H597 0.929 . S
C606 C598 1.378 . S
C606 C601 1.350 . S
C607 H594 0.929 . S
C607 C599 1.433 . S
C607 N609 1.384 . S
N608 C604 1.427 . S
N608 C605 1.384 . S
N609 C601 1.427 . S
N609 C607 1.384 . S
H610 C616 0.930 . S
H611 C620 0.930 . S
H612 C625 0.929 . S
H613 C623 0.929 . S
H614 C618 0.929 . S
H615 C624 0.929 . S
C616 H610 0.930 . S
C616 C617 1.367 . S
C616 C624 1.378 . S
C617 C616 1.367 . S
C617 C625 1.433 . S
C618 H614 0.929 . S
C618 C620 1.378 . S
C618 C622 1.350 . S
C619 C622 1.463 . S
C619 C624 1.350 . S
C619 N627 1.427 . S
C620 H611 0.930 . S
C620 C618 1.378 . S
C620 C621 1.367 . S
C621 C620 1.367 . S
C621 C623 1.433 . S
C622 C618 1.350 . S
C622 C619 1.463 . S
C622 N626 1.427 . S
C623 H613 0.929 . S
C623 C621 1.433 . S
C623 N626 1.384 . S
C624 H615 0.929 . S
C624 C616 1.378 . S
C624 C619 1.350 . S
C625 H612 0.929 . S
C625 C617 1.433 . S
C625 N627 1.384 . S
N626 C622 1.427 . S
N626 C623 1.384 . S
N627 C619 1.427 . S
N627 C625 1.384 . S
H628 C634 0.930 . S
H629 C638 0.930 . S
H630 C643 0.929 . S
H631 C641 0.929 . S
H632 C636 0.929 . S
H633 C642 0.929 . S
C634 H628 0.930 . S
C634 C635 1.367 . S
C634 C642 1.378 . S
C635 C634 1.367 . S
C635 C643 1.433 . S
C636 H632 0.929 . S
C636 C638 1.378 . S
C636 C640 1.350 . S
C637 C640 1.463 . S
C637 C642 1.350 . S
C637 N645 1.427 . S
C638 H629 0.930 . S
C638 C636 1.378 . S
C638 C639 1.367 . S
C639 C638 1.367 . S
C639 C641 1.433 . S
C640 C636 1.350 . S
C640 C637 1.463 . S
C640 N644 1.427 . S
C641 H631 0.929 . S
C641 C639 1.433 . S
C641 N644 1.384 . S
C642 H633 0.929 . S
C642 C634 1.378 . S
C642 C637 1.350 . S
C643 H630 0.929 . S
C643 C635 1.433 . S
C643 N645 1.384 . S
N644 C640 1.427 . S
N644 C641 1.384 . S
N645 C637 1.427 . S
N645 C643 1.384 . S
H646 C652 0.930 . S
H647 C656 0.930 . S
H648 C661 0.929 . S
H649 C659 0.929 . S
H650 C654 0.929 . S
H651 C660 0.929 . S
C652 H646 0.930 . S
C652 C653 1.367 . S
C652 C660 1.378 . S
C653 C652 1.367 . S
C653 C661 1.433 . S
C654 H650 0.929 . S
C654 C656 1.378 . S
C654 C658 1.350 . S
C655 C658 1.463 . S
C655 C660 1.350 . S
C655 N663 1.427 . S
C656 H647 0.930 . S
C656 C654 1.378 . S
C656 C657 1.367 . S
C657 C656 1.367 . S
C657 C659 1.433 . S
C658 C654 1.350 . S
C658 C655 1.463 . S
C658 N662 1.427 . S
C659 H649 0.929 . S
C659 C657 1.433 . S
C659 N662 1.384 . S
C660 H651 0.929 . S
C660 C652 1.378 . S
C660 C655 1.350 . S
C661 H648 0.929 . S
C661 C653 1.433 . S
C661 N663 1.384 . S
N662 C658 1.427 . S
N662 C659 1.384 . S
N663 C655 1.427 . S
N663 C661 1.384 . S
H664 C670 0.930 . S
H665 C674 0.930 1_545 S
H666 C679 0.929 . S
H667 C677 0.929 1_545 S
H668 C672 0.929 . S
H669 C678 0.929 . S
C670 H664 0.930 . S
C670 C671 1.367 . S
C670 C678 1.378 . S
C671 C670 1.367 . S
C671 C679 1.433 . S
C672 H668 0.929 . S
C672 C674 1.378 . S
C672 C676 1.350 . S
C673 C676 1.463 . S
C673 C678 1.350 . S
C673 N681 1.427 . S
C674 H665 0.930 1_565 S
C674 C672 1.378 . S
C674 C675 1.367 1_565 S
C675 C674 1.367 1_545 S
C675 C677 1.433 1_545 S
C676 C672 1.350 . S
C676 C673 1.463 . S
C676 N680 1.427 . S
C677 H667 0.929 1_565 S
C677 C675 1.433 1_565 S
C677 N680 1.384 . S
C678 H669 0.929 . S
C678 C670 1.378 . S
C678 C673 1.350 . S
C679 H666 0.929 . S
C679 C671 1.433 . S
C679 N681 1.384 . S
N680 C676 1.427 . S
N680 C677 1.384 . S
N681 C673 1.427 . S
N681 C679 1.384 . S
H682 C688 0.930 . S
H683 C692 0.930 . S
H684 C697 0.929 . S
H685 C695 0.929 . S
H686 C690 0.929 . S
H687 C696 0.929 . S
C688 H682 0.930 . S
C688 C689 1.367 . S
C688 C696 1.378 . S
C689 C688 1.367 . S
C689 C697 1.433 . S
C690 H686 0.929 . S
C690 C692 1.378 . S
C690 C694 1.350 . S
C691 C694 1.463 . S
C691 C696 1.350 . S
C691 N699 1.427 . S
C692 H683 0.930 . S
C692 C690 1.378 . S
C692 C693 1.367 . S
C693 C692 1.367 . S
C693 C695 1.433 . S
C694 C690 1.350 . S
C694 C691 1.463 . S
C694 N698 1.427 . S
C695 H685 0.929 . S
C695 C693 1.433 . S
C695 N698 1.384 . S
C696 H687 0.929 . S
C696 C688 1.378 . S
C696 C691 1.350 . S
C697 H684 0.929 . S
C697 C689 1.433 . S
C697 N699 1.384 . S
N698 C694 1.427 . S
N698 C695 1.384 . S
N699 C691 1.427 . S
N699 C697 1.384 . S
H700 C706 0.930 . S
H701 C710 0.930 . S
H702 C715 0.929 . S
H703 C713 0.929 . S
H704 C708 0.922 1_565 S
H705 C714 0.929 . S
C706 H700 0.930 . S
C706 C707 1.367 . S
C706 C714 1.378 . S
C707 C706 1.367 . S
C707 C715 1.433 . S
C708 H704 0.922 1_545 S
C708 C710 1.369 1_545 S
C708 C712 1.365 . S
C709 C712 1.463 . S
C709 C714 1.350 . S
C709 N717 1.427 . S
C710 H701 0.930 . S
C710 C708 1.369 1_565 S
C710 C711 1.367 . S
C711 C710 1.367 . S
C711 C713 1.433 1_565 S
C712 C708 1.365 . S
C712 C709 1.463 . S
C712 N716 1.427 . S
C713 H703 0.929 . S
C713 C711 1.433 1_545 S
C713 N716 1.384 . S
C714 H705 0.929 . S
C714 C706 1.378 . S
C714 C709 1.350 . S
C715 H702 0.929 . S
C715 C707 1.433 . S
C715 N717 1.384 . S
N716 C712 1.427 . S
N716 C713 1.384 . S
N717 C709 1.427 . S
N717 C715 1.384 . S
H718 C724 0.930 . S
H719 C728 0.930 . S
H720 C733 0.929 . S
H721 C731 0.929 . S
H722 C726 0.929 . S
H723 C732 0.929 . S
C724 H718 0.930 . S
C724 C725 1.367 . S
C724 C732 1.378 . S
C725 C724 1.367 . S
C725 C733 1.433 . S
C726 H722 0.929 . S
C726 C728 1.378 . S
C726 C730 1.350 . S
C727 C730 1.463 . S
C727 C732 1.350 . S
C727 N735 1.427 . S
C728 H719 0.930 . S
C728 C726 1.378 . S
C728 C729 1.367 . S
C729 C728 1.367 . S
C729 C731 1.433 . S
C730 C726 1.350 . S
C730 C727 1.463 . S
C730 N734 1.427 . S
C731 H721 0.929 . S
C731 C729 1.433 . S
C731 N734 1.384 . S
C732 H723 0.929 . S
C732 C724 1.378 . S
C732 C727 1.350 . S
C733 H720 0.929 . S
C733 C725 1.433 . S
C733 N735 1.384 . S
N734 C730 1.427 . S
N734 C731 1.384 . S
N735 C727 1.427 . S
N735 C733 1.384 . S
H736 C742 0.930 . S
H737 C746 0.930 . S
H738 C751 0.929 . S
H739 C749 0.929 . S
H740 C744 0.929 . S
H741 C750 0.929 . S
C742 H736 0.930 . S
C742 C743 1.367 . S
C742 C750 1.378 1_565 S
C743 C742 1.367 . S
C743 C751 1.433 1_565 S
C744 H740 0.929 . S
C744 C746 1.378 . S
C744 C748 1.350 . S
C745 C748 1.463 . S
C745 C750 1.350 . S
C745 N753 1.427 . S
C746 H737 0.930 . S
C746 C744 1.378 . S
C746 C747 1.367 . S
C747 C746 1.367 . S
C747 C749 1.433 . S
C748 C744 1.350 . S
C748 C745 1.463 . S
C748 N752 1.427 . S
C749 H739 0.929 . S
C749 C747 1.433 . S
C749 N752 1.384 . S
C750 H741 0.929 . S
C750 C742 1.378 1_545 S
C750 C745 1.350 . S
C751 H738 0.929 . S
C751 C743 1.433 1_545 S
C751 N753 1.384 . S
N752 C748 1.427 . S
N752 C749 1.384 . S
N753 C745 1.427 . S
N753 C751 1.384 . S
H754 C760 0.930 . S
H755 C764 0.930 . S
H756 C769 0.929 . S
H757 C767 0.929 . S
H758 C762 0.929 . S
H759 C768 0.929 . S
C760 H754 0.930 . S
C760 C761 1.367 . S
C760 C768 1.378 . S
C761 C760 1.367 . S
C761 C769 1.433 . S
C762 H758 0.929 . S
C762 C764 1.378 . S
C762 C766 1.350 . S
C763 C766 1.463 . S
C763 C768 1.350 . S
C763 N771 1.427 . S
C764 H755 0.930 . S
C764 C762 1.378 . S
C764 C765 1.367 . S
C765 C764 1.367 . S
C765 C767 1.433 . S
C766 C762 1.350 . S
C766 C763 1.463 . S
C766 N770 1.427 . S
C767 H757 0.929 . S
C767 C765 1.433 . S
C767 N770 1.384 . S
C768 H759 0.929 . S
C768 C760 1.378 . S
C768 C763 1.350 . S
C769 H756 0.929 . S
C769 C761 1.433 . S
C769 N771 1.384 . S
N770 C766 1.427 . S
N770 C767 1.384 . S
N771 C763 1.427 . S
N771 C769 1.384 . S
H772 C778 0.930 . S
H773 C782 0.930 . S
H774 C787 0.929 . S
H775 C785 0.929 . S
H776 C780 0.929 . S
H777 C786 0.929 . S
C778 H772 0.930 . S
C778 C779 1.367 . S
C778 C786 1.378 1_565 S
C779 C778 1.367 . S
C779 C787 1.433 . S
C780 H776 0.929 . S
C780 C782 1.378 . S
C780 C784 1.350 . S
C781 C784 1.463 . S
C781 C786 1.350 . S
C781 N789 1.427 1_545 S
C782 H773 0.930 . S
C782 C780 1.378 . S
C782 C783 1.367 . S
C783 C782 1.367 . S
C783 C785 1.433 . S
C784 C780 1.350 . S
C784 C781 1.463 . S
C784 N788 1.427 . S
C785 H775 0.929 . S
C785 C783 1.433 . S
C785 N788 1.384 . S
C786 H777 0.929 . S
C786 C778 1.378 1_545 S
C786 C781 1.350 . S
C787 H774 0.929 . S
C787 C779 1.433 . S
C787 N789 1.384 . S
N788 C784 1.427 . S
N788 C785 1.384 . S
N789 C781 1.427 1_565 S
N789 C787 1.384 . S
H790 C796 0.930 . S
H791 C800 0.930 . S
H792 C805 0.929 . S
H793 C803 0.929 . S
H794 C798 0.929 . S
H795 C804 0.929 . S
C796 H790 0.930 . S
C796 C797 1.367 . S
C796 C804 1.378 . S
C797 C796 1.367 . S
C797 C805 1.433 . S
C798 H794 0.929 . S
C798 C800 1.378 . S
C798 C802 1.350 . S
C799 C802 1.463 . S
C799 C804 1.350 . S
C799 N807 1.427 . S
C800 H791 0.930 . S
C800 C798 1.378 . S
C800 C801 1.367 . S
C801 C800 1.367 . S
C801 C803 1.433 . S
C802 C798 1.350 . S
C802 C799 1.463 . S
C802 N806 1.427 . S
C803 H793 0.929 . S
C803 C801 1.433 . S
C803 N806 1.384 . S
C804 H795 0.929 . S
C804 C796 1.378 . S
C804 C799 1.350 . S
C805 H792 0.929 . S
C805 C797 1.433 . S
C805 N807 1.384 . S
N806 C802 1.427 . S
N806 C803 1.384 . S
N807 C799 1.427 . S
N807 C805 1.384 . S
H808 C814 0.930 . S
H809 C818 0.930 . S
H810 C823 0.929 . S
H811 C821 0.929 . S
H812 C816 0.929 . S
H813 C822 0.929 . S
C814 H808 0.930 . S
C814 C815 1.367 . S
C814 C822 1.378 . S
C815 C814 1.367 . S
C815 C823 1.433 . S
C816 H812 0.929 . S
C816 C818 1.378 . S
C816 C820 1.350 . S
C817 C820 1.463 . S
C817 C822 1.350 . S
C817 N825 1.427 . S
C818 H809 0.930 . S
C818 C816 1.378 . S
C818 C819 1.367 . S
C819 C818 1.367 . S
C819 C821 1.433 . S
C820 C816 1.350 . S
C820 C817 1.463 . S
C820 N824 1.427 . S
C821 H811 0.929 . S
C821 C819 1.433 . S
C821 N824 1.384 . S
C822 H813 0.929 . S
C822 C814 1.378 . S
C822 C817 1.350 . S
C823 H810 0.929 . S
C823 C815 1.433 . S
C823 N825 1.384 . S
N824 C820 1.427 . S
N824 C821 1.384 . S
N825 C817 1.427 . S
N825 C823 1.384 . S
H826 C832 0.930 . S
H827 C836 0.930 . S
H828 C841 0.929 . S
H829 C839 0.928 . S
H830 C834 0.929 . S
H831 C840 0.929 . S
C832 H826 0.930 . S
C832 C833 1.367 . S
C832 C840 1.378 . S
C833 C832 1.367 . S
C833 C841 1.433 . S
C834 H830 0.929 . S
C834 C836 1.378 . S
C834 C838 1.350 . S
C835 C838 1.463 . S
C835 C840 1.350 . S
C835 N843 1.427 . S
C836 H827 0.930 . S
C836 C834 1.378 . S
C836 C837 1.367 . S
C837 C836 1.367 . S
C837 C839 1.433 . S
C838 C834 1.350 . S
C838 C835 1.463 . S
C838 N842 1.427 . S
C839 H829 0.928 . S
C839 C837 1.433 . S
C839 N842 1.384 . S
C840 H831 0.929 . S
C840 C832 1.378 . S
C840 C835 1.350 . S
C841 H828 0.929 . S
C841 C833 1.433 . S
C841 N843 1.384 . S
N842 C838 1.427 . S
N842 C839 1.384 . S
N843 C835 1.427 . S
N843 C841 1.384 . S
H844 C850 0.930 . S
H845 C854 0.930 . S
H846 C859 0.929 . S
H847 C857 0.929 . S
H848 C852 0.929 . S
H849 C858 0.929 . S
C850 H844 0.930 . S
C850 C851 1.367 . S
C850 C858 1.378 . S
C851 C850 1.367 . S
C851 C859 1.433 . S
C852 H848 0.929 . S
C852 C854 1.378 . S
C852 C856 1.350 . S
C853 C856 1.463 . S
C853 C858 1.350 . S
C853 N861 1.427 . S
C854 H845 0.930 . S
C854 C852 1.378 . S
C854 C855 1.367 . S
C855 C854 1.367 . S
C855 C857 1.433 . S
C856 C852 1.350 . S
C856 C853 1.463 . S
C856 N860 1.427 . S
C857 H847 0.929 . S
C857 C855 1.433 . S
C857 N860 1.384 . S
C858 H849 0.929 . S
C858 C850 1.378 . S
C858 C853 1.350 . S
C859 H846 0.929 . S
C859 C851 1.433 . S
C859 N861 1.384 . S
N860 C856 1.427 . S
N860 C857 1.384 . S
N861 C853 1.427 . S
N861 C859 1.384 . S
H862 C868 0.930 . S
H863 C872 0.930 . S
H864 C877 0.929 . S
H865 C875 0.929 . S
H866 C870 0.929 . S
H867 C876 0.929 . S
C868 H862 0.930 . S
C868 C869 1.367 . S
C868 C876 1.378 . S
C869 C868 1.367 . S
C869 C877 1.433 . S
C870 H866 0.929 . S
C870 C872 1.378 . S
C870 C874 1.350 . S
C871 C874 1.463 . S
C871 C876 1.350 . S
C871 N879 1.427 . S
C872 H863 0.930 . S
C872 C870 1.378 . S
C872 C873 1.367 . S
C873 C872 1.367 . S
C873 C875 1.433 . S
C874 C870 1.350 . S
C874 C871 1.463 . S
C874 N878 1.427 . S
C875 H865 0.929 . S
C875 C873 1.433 . S
C875 N878 1.384 . S
C876 H867 0.929 . S
C876 C868 1.378 . S
C876 C871 1.350 . S
C877 H864 0.929 . S
C877 C869 1.433 . S
C877 N879 1.384 . S
N878 C874 1.427 . S
N878 C875 1.384 . S
N879 C871 1.427 . S
N879 C877 1.384 . S
H880 C886 0.930 . S
H881 C890 0.930 . S
H882 C895 0.929 . S
H883 C893 0.929 . S
H884 C888 0.929 . S
H885 C894 0.929 . S
C886 H880 0.930 . S
C886 C887 1.367 . S
C886 C894 1.378 . S
C887 C886 1.367 . S
C887 C895 1.433 . S
C888 H884 0.929 . S
C888 C890 1.378 . S
C888 C892 1.350 . S
C889 C892 1.463 . S
C889 C894 1.350 . S
C889 N897 1.427 . S
C890 H881 0.930 . S
C890 C888 1.378 . S
C890 C891 1.367 . S
C891 C890 1.367 . S
C891 C893 1.433 . S
C892 C888 1.350 . S
C892 C889 1.463 . S
C892 N896 1.427 . S
C893 H883 0.929 . S
C893 C891 1.433 . S
C893 N896 1.384 . S
C894 H885 0.929 . S
C894 C886 1.378 . S
C894 C889 1.350 . S
C895 H882 0.929 . S
C895 C887 1.433 . S
C895 N897 1.384 . S
N896 C892 1.427 . S
N896 C893 1.384 . S
N897 C889 1.427 . S
N897 C895 1.384 . S
H898 C904 0.930 . S
H899 C908 0.930 . S
H900 C913 0.929 . S
H901 C911 0.929 . S
H902 C906 0.957 . S
H903 C912 0.929 . S
C904 H898 0.930 . S
C904 C905 1.367 . S
C904 C912 1.378 . S
C905 C904 1.367 . S
C905 C913 1.433 . S
C906 H902 0.957 . S
C906 C908 1.348 1_455 S
C906 C910 1.351 . S
C907 C910 1.463 . S
C907 C912 1.350 . S
C907 N915 1.427 . S
C908 H899 0.930 . S
C908 C906 1.348 1_655 S
C908 C909 1.367 . S
C909 C908 1.367 . S
C909 C911 1.433 . S
C910 C906 1.351 . S
C910 C907 1.463 . S
C910 N914 1.427 1_455 S
C911 H901 0.929 . S
C911 C909 1.433 . S
C911 N914 1.384 . S
C912 H903 0.929 . S
C912 C904 1.378 . S
C912 C907 1.350 . S
C913 H900 0.929 . S
C913 C905 1.433 . S
C913 N915 1.384 . S
N914 C910 1.427 1_655 S
N914 C911 1.384 . S
N915 C907 1.427 . S
N915 C913 1.384 . S
H916 C922 0.930 . S
H917 C926 0.930 . S
H918 C931 0.929 . S
H919 C929 0.929 . S
H920 C924 0.929 . S
H921 C930 0.929 . S
C922 H916 0.930 . S
C922 C923 1.367 . S
C922 C930 1.378 . S
C923 C922 1.367 . S
C923 C931 1.433 . S
C924 H920 0.929 . S
C924 C926 1.378 . S
C924 C928 1.350 . S
C925 C928 1.463 . S
C925 C930 1.350 . S
C925 N933 1.427 . S
C926 H917 0.930 . S
C926 C924 1.378 . S
C926 C927 1.367 . S
C927 C926 1.367 . S
C927 C929 1.433 . S
C928 C924 1.350 . S
C928 C925 1.463 . S
C928 N932 1.427 . S
C929 H919 0.929 . S
C929 C927 1.433 . S
C929 N932 1.384 . S
C930 H921 0.929 . S
C930 C922 1.378 . S
C930 C925 1.350 . S
C931 H918 0.929 . S
C931 C923 1.433 . S
C931 N933 1.384 . S
N932 C928 1.427 . S
N932 C929 1.384 . S
N933 C925 1.427 . S
N933 C931 1.384 . S
H934 C940 0.930 . S
H935 C944 0.930 . S
H936 C949 0.929 . S
H937 C947 0.929 . S
H938 C942 0.929 . S
H939 C948 0.929 . S
C940 H934 0.930 . S
C940 C941 1.367 . S
C940 C948 1.378 . S
C941 C940 1.367 . S
C941 C949 1.433 . S
C942 H938 0.929 . S
C942 C944 1.378 . S
C942 C946 1.350 . S
C943 C946 1.463 1_655 S
C943 C948 1.350 . S
C943 N951 1.427 . S
C944 H935 0.930 . S
C944 C942 1.378 . S
C944 C945 1.367 . S
C945 C944 1.367 . S
C945 C947 1.433 . S
C946 C942 1.350 . S
C946 C943 1.463 1_455 S
C946 N950 1.427 1_455 S
C947 H937 0.929 . S
C947 C945 1.433 . S
C947 N950 1.384 1_455 S
C948 H939 0.929 . S
C948 C940 1.378 . S
C948 C943 1.350 . S
C949 H936 0.929 . S
C949 C941 1.433 . S
C949 N951 1.384 . S
N950 C946 1.427 1_655 S
N950 C947 1.384 1_655 S
N951 C943 1.427 . S
N951 C949 1.384 . S
H952 C958 0.930 . S
H953 C962 0.930 . S
H954 C967 0.929 . S
H955 C965 0.929 . S
H956 C960 0.929 . S
H957 C966 0.929 . S
C958 H952 0.930 . S
C958 C959 1.367 . S
C958 C966 1.378 . S
C959 C958 1.367 . S
C959 C967 1.433 . S
C960 H956 0.929 . S
C960 C962 1.378 . S
C960 C964 1.350 . S
C961 C964 1.463 . S
C961 C966 1.350 . S
C961 N969 1.427 . S
C962 H953 0.930 . S
C962 C960 1.378 . S
C962 C963 1.367 . S
C963 C962 1.367 . S
C963 C965 1.433 . S
C964 C960 1.350 . S
C964 C961 1.463 . S
C964 N968 1.427 . S
C965 H955 0.929 . S
C965 C963 1.433 . S
C965 N968 1.384 . S
C966 H957 0.929 . S
C966 C958 1.378 . S
C966 C961 1.350 . S
C967 H954 0.929 . S
C967 C959 1.433 . S
C967 N969 1.384 . S
N968 C964 1.427 . S
N968 C965 1.384 . S
N969 C961 1.427 . S
N969 C967 1.384 . S
H970 C976 0.930 . S
H971 C980 0.930 . S
H972 C985 0.929 . S
H973 C983 0.929 1_455 S
H974 C978 0.929 . S
H975 C984 0.929 . S
C976 H970 0.930 . S
C976 C977 1.367 . S
C976 C984 1.378 . S
C977 C976 1.367 . S
C977 C985 1.433 . S
C978 H974 0.929 . S
C978 C980 1.378 . S
C978 C982 1.350 . S
C979 C982 1.463 . S
C979 C984 1.350 1_556 S
C979 N987 1.427 1_556 S
C980 H971 0.930 . S
C980 C978 1.378 . S
C980 C981 1.367 . S
C981 C980 1.367 . S
C981 C983 1.433 . S
C982 C978 1.350 . S
C982 C979 1.463 . S
C982 N986 1.427 . S
C983 H973 0.929 1_655 S
C983 C981 1.433 . S
C983 N986 1.384 . S
C984 H975 0.929 . S
C984 C976 1.378 . S
C984 C979 1.350 1_554 S
C985 H972 0.929 . S
C985 C977 1.433 . S
C985 N987 1.384 . S
N986 C982 1.427 . S
N986 C983 1.384 . S
N987 C979 1.427 1_554 S
N987 C985 1.384 . S
H988 C994 0.930 . S
H989 C998 0.930 . S
H990 C1003 0.929 . S
H991 C1001 0.929 . S
H992 C996 0.929 . S
H993 C1002 0.929 . S
C994 H988 0.930 . S
C994 C995 1.367 . S
C994 C1002 1.378 . S
C995 C994 1.367 . S
C995 C1003 1.433 . S
C996 H992 0.929 . S
C996 C998 1.378 . S
C996 C1000 1.350 . S
C997 C1000 1.463 . S
C997 C1002 1.350 . S
C997 N1005 1.427 . S
C998 H989 0.930 . S
C998 C996 1.378 . S
C998 C999 1.367 . S
C999 C998 1.367 . S
C999 C1001 1.433 . S
C1000 C996 1.350 . S
C1000 C997 1.463 . S
C1000 N1004 1.427 . S
C1001 H991 0.929 . S
C1001 C999 1.433 . S
C1001 N1004 1.384 . S
C1002 H993 0.929 . S
C1002 C994 1.378 . S
C1002 C997 1.350 . S
C1003 H990 0.929 . S
C1003 C995 1.433 . S
C1003 N1005 1.384 . S
N1004 C1000 1.427 . S
N1004 C1001 1.384 . S
N1005 C997 1.427 . S
N1005 C1003 1.384 . S
H1006 C1012 0.930 . S
H1007 C1016 0.930 . S
H1008 C1021 0.929 . S
H1009 C1019 0.929 . S
H1010 C1014 0.947 . S
H1011 C1020 0.929 . S
C1012 H1006 0.930 . S
C1012 C1013 1.367 . S
C1012 C1020 1.378 . S
C1013 C1012 1.367 . S
C1013 C1021 1.433 . S
C1014 H1010 0.947 . S
C1014 C1016 1.378 . S
C1014 C1018 1.350 1_556 S
C1015 C1018 1.463 . S
C1015 C1020 1.350 . S
C1015 N1023 1.427 . S
C1016 H1007 0.930 . S
C1016 C1014 1.378 . S
C1016 C1017 1.367 . S
C1017 C1016 1.367 . S
C1017 C1019 1.433 . S
C1018 C1014 1.350 1_554 S
C1018 C1015 1.463 . S
C1018 N1022 1.427 1_554 S
C1019 H1009 0.929 . S
C1019 C1017 1.433 . S
C1019 N1022 1.384 . S
C1020 H1011 0.929 . S
C1020 C1012 1.378 . S
C1020 C1015 1.350 . S
C1021 H1008 0.929 . S
C1021 C1013 1.433 . S
C1021 N1023 1.384 . S
N1022 C1018 1.427 1_556 S
N1022 C1019 1.384 . S
N1023 C1015 1.427 . S
N1023 C1021 1.384 . S
H1024 C1030 0.930 . S
H1025 C1034 0.930 . S
H1026 C1039 0.929 . S
H1027 C1037 0.929 . S
H1028 C1032 0.929 . S
H1029 C1038 0.929 . S
C1030 H1024 0.930 . S
C1030 C1031 1.367 . S
C1030 C1038 1.378 . S
C1031 C1030 1.367 . S
C1031 C1039 1.433 . S
C1032 H1028 0.929 . S
C1032 C1034 1.378 . S
C1032 C1036 1.350 . S
C1033 C1036 1.463 . S
C1033 C1038 1.350 . S
C1033 N1041 1.427 . S
C1034 H1025 0.930 . S
C1034 C1032 1.378 . S
C1034 C1035 1.367 . S
C1035 C1034 1.367 . S
C1035 C1037 1.433 . S
C1036 C1032 1.350 . S
C1036 C1033 1.463 . S
C1036 N1040 1.427 . S
C1037 H1027 0.929 . S
C1037 C1035 1.433 . S
C1037 N1040 1.384 . S
C1038 H1029 0.929 . S
C1038 C1030 1.378 . S
C1038 C1033 1.350 . S
C1039 H1026 0.929 . S
C1039 C1031 1.433 . S
C1039 N1041 1.384 . S
N1040 C1036 1.427 . S
N1040 C1037 1.384 . S
N1041 C1033 1.427 . S
N1041 C1039 1.384 . S
H1042 C1048 0.930 . S
H1043 C1052 0.930 . S
H1044 C1057 0.929 . S
H1045 C1055 0.929 . S
H1046 C1050 0.929 . S
H1047 C1056 0.929 . S
C1048 H1042 0.930 . S
C1048 C1049 1.367 . S
C1048 C1056 1.378 . S
C1049 C1048 1.367 . S
C1049 C1057 1.433 . S
C1050 H1046 0.929 . S
C1050 C1052 1.378 . S
C1050 C1054 1.350 . S
C1051 C1054 1.463 1_556 S
C1051 C1056 1.350 . S
C1051 N1059 1.427 . S
C1052 H1043 0.930 . S
C1052 C1050 1.378 . S
C1052 C1053 1.367 . S
C1053 C1052 1.367 . S
C1053 C1055 1.433 . S
C1054 C1050 1.350 . S
C1054 C1051 1.463 1_554 S
C1054 N1058 1.427 . S
C1055 H1045 0.929 . S
C1055 C1053 1.433 . S
C1055 N1058 1.384 . S
C1056 H1047 0.929 . S
C1056 C1048 1.378 . S
C1056 C1051 1.350 . S
C1057 H1044 0.929 . S
C1057 C1049 1.433 . S
C1057 N1059 1.384 . S
N1058 C1054 1.427 . S
N1058 C1055 1.384 . S
N1059 C1051 1.427 . S
N1059 C1057 1.384 . S
H1060 C1066 0.930 . S
H1061 C1070 0.930 . S
H1062 C1075 0.929 . S
H1063 C1073 0.929 . S
H1064 C1068 0.929 . S
H1065 C1074 0.929 . S
C1066 H1060 0.930 . S
C1066 C1067 1.367 . S
C1066 C1074 1.378 . S
C1067 C1066 1.367 . S
C1067 C1075 1.433 . S
C1068 H1064 0.929 . S
C1068 C1070 1.378 . S
C1068 C1072 1.350 . S
C1069 C1072 1.463 . S
C1069 C1074 1.350 . S
C1069 N1077 1.427 . S
C1070 H1061 0.930 . S
C1070 C1068 1.378 . S
C1070 C1071 1.367 . S
C1071 C1070 1.367 . S
C1071 C1073 1.433 . S
C1072 C1068 1.350 . S
C1072 C1069 1.463 . S
C1072 N1076 1.427 . S
C1073 H1063 0.929 . S
C1073 C1071 1.433 . S
C1073 N1076 1.384 . S
C1074 H1065 0.929 . S
C1074 C1066 1.378 . S
C1074 C1069 1.350 . S
C1075 H1062 0.929 . S
C1075 C1067 1.433 . S
C1075 N1077 1.384 . S
N1076 C1072 1.427 . S
N1076 C1073 1.384 . S
N1077 C1069 1.427 . S
N1077 C1075 1.384 . S
H1078 C1084 0.930 . S
H1079 C1088 0.930 . S
H1080 C1093 0.929 . S
H1081 C1091 0.929 . S
H1082 C1086 0.929 . S
H1083 C1092 0.929 . S
C1084 H1078 0.930 . S
C1084 C1085 1.367 . S
C1084 C1092 1.378 1_556 S
C1085 C1084 1.367 . S
C1085 C1093 1.433 . S
C1086 H1082 0.929 . S
C1086 C1088 1.378 . S
C1086 C1090 1.350 . S
C1087 C1090 1.463 . S
C1087 C1092 1.350 . S
C1087 N1095 1.427 . S
C1088 H1079 0.930 . S
C1088 C1086 1.378 . S
C1088 C1089 1.367 . S
C1089 C1088 1.367 . S
C1089 C1091 1.433 . S
C1090 C1086 1.350 . S
C1090 C1087 1.463 . S
C1090 N1094 1.427 . S
C1091 H1081 0.929 . S
C1091 C1089 1.433 . S
C1091 N1094 1.384 . S
C1092 H1083 0.929 . S
C1092 C1084 1.378 1_554 S
C1092 C1087 1.350 . S
C1093 H1080 0.929 . S
C1093 C1085 1.433 . S
C1093 N1095 1.384 1_556 S
N1094 C1090 1.427 . S
N1094 C1091 1.384 . S
N1095 C1087 1.427 . S
N1095 C1093 1.384 1_554 S
H1096 C1102 0.930 . S
H1097 C1106 0.930 . S
H1098 C1111 0.929 . S
H1099 C1109 0.929 . S
H1100 C1104 0.929 . S
H1101 C1110 0.929 . S
C1102 H1096 0.930 . S
C1102 C1103 1.367 . S
C1102 C1110 1.378 . S
C1103 C1102 1.367 . S
C1103 C1111 1.433 . S
C1104 H1100 0.929 . S
C1104 C1106 1.378 . S
C1104 C1108 1.350 . S
C1105 C1108 1.463 . S
C1105 C1110 1.350 . S
C1105 N1113 1.427 . S
C1106 H1097 0.930 . S
C1106 C1104 1.378 . S
C1106 C1107 1.367 . S
C1107 C1106 1.367 . S
C1107 C1109 1.433 . S
C1108 C1104 1.350 . S
C1108 C1105 1.463 . S
C1108 N1112 1.427 . S
C1109 H1099 0.929 . S
C1109 C1107 1.433 . S
C1109 N1112 1.384 . S
C1110 H1101 0.929 . S
C1110 C1102 1.378 . S
C1110 C1105 1.350 . S
C1111 H1098 0.929 . S
C1111 C1103 1.433 . S
C1111 N1113 1.384 . S
N1112 C1108 1.427 . S
N1112 C1109 1.384 . S
N1113 C1105 1.427 . S
N1113 C1111 1.384 . S
H1114 C1120 0.930 . S
H1115 C1124 0.930 . S
H1116 C1129 0.929 . S
H1117 C1127 0.929 . S
H1118 C1122 0.929 . S
H1119 C1128 0.929 . S
C1120 H1114 0.930 . S
C1120 C1121 1.367 . S
C1120 C1128 1.378 . S
C1121 C1120 1.367 . S
C1121 C1129 1.433 . S
C1122 H1118 0.929 . S
C1122 C1124 1.378 . S
C1122 C1126 1.350 . S
C1123 C1126 1.463 . S
C1123 C1128 1.350 . S
C1123 N1131 1.427 . S
C1124 H1115 0.930 . S
C1124 C1122 1.378 . S
C1124 C1125 1.367 . S
C1125 C1124 1.367 . S
C1125 C1127 1.433 . S
C1126 C1122 1.350 . S
C1126 C1123 1.463 . S
C1126 N1130 1.427 . S
C1127 H1117 0.929 . S
C1127 C1125 1.433 . S
C1127 N1130 1.384 . S
C1128 H1119 0.929 . S
C1128 C1120 1.378 . S
C1128 C1123 1.350 . S
C1129 H1116 0.929 . S
C1129 C1121 1.433 . S
C1129 N1131 1.384 . S
N1130 C1126 1.427 . S
N1130 C1127 1.384 . S
N1131 C1123 1.427 . S
N1131 C1129 1.384 . S
H1132 C1138 0.930 . S
H1133 C1142 0.930 . S
H1134 C1147 0.929 . S
H1135 C1145 0.929 . S
H1136 C1140 0.929 . S
H1137 C1146 0.929 . S
C1138 H1132 0.930 . S
C1138 C1139 1.367 . S
C1138 C1146 1.378 . S
C1139 C1138 1.367 . S
C1139 C1147 1.433 . S
C1140 H1136 0.929 . S
C1140 C1142 1.378 . S
C1140 C1144 1.350 . S
C1141 C1144 1.463 . S
C1141 C1146 1.350 . S
C1141 N1149 1.427 . S
C1142 H1133 0.930 . S
C1142 C1140 1.378 . S
C1142 C1143 1.367 . S
C1143 C1142 1.367 . S
C1143 C1145 1.433 . S
C1144 C1140 1.350 . S
C1144 C1141 1.463 . S
C1144 N1148 1.427 . S
C1145 H1135 0.929 . S
C1145 C1143 1.433 . S
C1145 N1148 1.384 . S
C1146 H1137 0.929 . S
C1146 C1138 1.378 . S
C1146 C1141 1.350 . S
C1147 H1134 0.929 . S
C1147 C1139 1.433 . S
C1147 N1149 1.384 . S
N1148 C1144 1.427 . S
N1148 C1145 1.384 . S
N1149 C1141 1.427 . S
N1149 C1147 1.384 . S
H1150 C1156 0.930 . S
H1151 C1160 0.930 . S
H1152 C1165 0.929 . S
H1153 C1163 0.929 . S
H1154 C1158 0.929 . S
H1155 C1164 0.929 . S
C1156 H1150 0.930 . S
C1156 C1157 1.367 . S
C1156 C1164 1.378 . S
C1157 C1156 1.367 . S
C1157 C1165 1.433 . S
C1158 H1154 0.929 . S
C1158 C1160 1.378 . S
C1158 C1162 1.350 . S
C1159 C1162 1.463 . S
C1159 C1164 1.350 . S
C1159 N1167 1.427 . S
C1160 H1151 0.930 . S
C1160 C1158 1.378 . S
C1160 C1161 1.367 . S
C1161 C1160 1.367 . S
C1161 C1163 1.433 . S
C1162 C1158 1.350 . S
C1162 C1159 1.463 . S
C1162 N1166 1.427 . S
C1163 H1153 0.929 . S
C1163 C1161 1.433 . S
C1163 N1166 1.384 . S
C1164 H1155 0.929 . S
C1164 C1156 1.378 . S
C1164 C1159 1.350 . S
C1165 H1152 0.929 . S
C1165 C1157 1.433 . S
C1165 N1167 1.384 . S
N1166 C1162 1.427 . S
N1166 C1163 1.384 . S
N1167 C1159 1.427 . S
N1167 C1165 1.384 . S
H1168 C1174 0.930 . S
H1169 C1178 0.930 . S
H1170 C1183 0.929 . S
H1171 C1181 0.929 1_554 S
H1172 C1176 0.929 . S
H1173 C1182 0.929 . S
C1174 H1168 0.930 . S
C1174 C1175 1.367 . S
C1174 C1182 1.378 . S
C1175 C1174 1.367 . S
C1175 C1183 1.433 . S
C1176 H1172 0.929 . S
C1176 C1178 1.378 . S
C1176 C1180 1.350 . S
C1177 C1180 1.463 . S
C1177 C1182 1.350 . S
C1177 N1185 1.427 . S
C1178 H1169 0.930 . S
C1178 C1176 1.378 . S
C1178 C1179 1.367 . S
C1179 C1178 1.367 . S
C1179 C1181 1.433 . S
C1180 C1176 1.350 . S
C1180 C1177 1.463 . S
C1180 N1184 1.427 . S
C1181 H1171 0.929 1_556 S
C1181 C1179 1.433 . S
C1181 N1184 1.384 . S
C1182 H1173 0.929 . S
C1182 C1174 1.378 . S
C1182 C1177 1.350 . S
C1183 H1170 0.929 . S
C1183 C1175 1.433 . S
C1183 N1185 1.384 . S
N1184 C1180 1.427 . S
N1184 C1181 1.384 . S
N1185 C1177 1.427 . S
N1185 C1183 1.384 . S
H1186 C1192 0.930 . S
H1187 C1196 0.930 . S
H1188 C1201 0.929 . S
H1189 C1199 0.929 . S
H1190 C1194 0.929 . S
H1191 C1200 0.929 . S
C1192 H1186 0.930 . S
C1192 C1193 1.367 . S
C1192 C1200 1.378 . S
C1193 C1192 1.367 . S
C1193 C1201 1.433 . S
C1194 H1190 0.929 . S
C1194 C1196 1.378 . S
C1194 C1198 1.350 . S
C1195 C1198 1.463 . S
C1195 C1200 1.350 . S
C1195 N1203 1.427 . S
C1196 H1187 0.930 . S
C1196 C1194 1.378 . S
C1196 C1197 1.367 . S
C1197 C1196 1.367 . S
C1197 C1199 1.433 . S
C1198 C1194 1.350 . S
C1198 C1195 1.463 . S
C1198 N1202 1.427 . S
C1199 H1189 0.929 . S
C1199 C1197 1.433 . S
C1199 N1202 1.384 . S
C1200 H1191 0.929 . S
C1200 C1192 1.378 . S
C1200 C1195 1.350 . S
C1201 H1188 0.929 . S
C1201 C1193 1.433 . S
C1201 N1203 1.384 . S
N1202 C1198 1.427 . S
N1202 C1199 1.384 . S
N1203 C1195 1.427 . S
N1203 C1201 1.384 . S
H1204 C1210 0.930 . S
H1205 C1214 0.930 . S
H1206 C1219 0.929 . S
H1207 C1217 0.929 . S
H1208 C1212 0.929 . S
H1209 C1218 0.929 . S
C1210 H1204 0.930 . S
C1210 C1211 1.367 . S
C1210 C1218 1.378 . S
C1211 C1210 1.367 . S
C1211 C1219 1.433 . S
C1212 H1208 0.929 . S
C1212 C1214 1.378 . S
C1212 C1216 1.350 . S
C1213 C1216 1.463 . S
C1213 C1218 1.350 . S
C1213 N1221 1.427 . S
C1214 H1205 0.930 . S
C1214 C1212 1.378 . S
C1214 C1215 1.367 . S
C1215 C1214 1.367 . S
C1215 C1217 1.433 . S
C1216 C1212 1.350 . S
C1216 C1213 1.463 . S
C1216 N1220 1.427 . S
C1217 H1207 0.929 . S
C1217 C1215 1.433 . S
C1217 N1220 1.384 . S
C1218 H1209 0.929 . S
C1218 C1210 1.378 . S
C1218 C1213 1.350 . S
C1219 H1206 0.929 . S
C1219 C1211 1.433 . S
C1219 N1221 1.384 . S
N1220 C1216 1.427 . S
N1220 C1217 1.384 . S
N1221 C1213 1.427 . S
N1221 C1219 1.384 . S
H1222 C1228 0.930 . S
H1223 C1232 0.930 1_565 S
H1224 C1237 0.929 . S
H1225 C1235 0.929 . S
H1226 C1230 0.929 . S
H1227 C1236 0.929 . S
C1228 H1222 0.930 . S
C1228 C1229 1.367 . S
C1228 C1236 1.378 . S
C1229 C1228 1.367 . S
C1229 C1237 1.433 . S
C1230 H1226 0.929 . S
C1230 C1232 1.378 . S
C1230 C1234 1.350 . S
C1231 C1234 1.463 . S
C1231 C1236 1.350 . S
C1231 N1239 1.427 . S
C1232 H1223 0.930 1_545 S
C1232 C1230 1.378 . S
C1232 C1233 1.367 1_545 S
C1233 C1232 1.367 1_565 S
C1233 C1235 1.433 1_565 S
C1234 C1230 1.350 . S
C1234 C1231 1.463 . S
C1234 N1238 1.427 . S
C1235 H1225 0.929 . S
C1235 C1233 1.433 1_545 S
C1235 N1238 1.384 . S
C1236 H1227 0.929 . S
C1236 C1228 1.378 . S
C1236 C1231 1.350 . S
C1237 H1224 0.929 . S
C1237 C1229 1.433 . S
C1237 N1239 1.384 . S
N1238 C1234 1.427 . S
N1238 C1235 1.384 . S
N1239 C1231 1.427 . S
N1239 C1237 1.384 . S
C387 C216 1.762 . S
C383 C73 1.784 . S
C405 C231 1.475 . S
C401 C82 1.498 . S
C419 C100 2.032 . S
C423 C244 2.008 . S
C441 C258 1.427 . S
C437 C56 1.364 . S
C459 C270 1.459 . S
C455 C134 1.529 . S
C477 C284 1.460 . S
C473 C165 1.468 . S
C491 C147 1.425 . S
C495 C298 1.422 . S
C513 C313 1.723 . S
C509 C125 1.766 . S
C527 C151 1.440 . S
C531 C329 1.432 . S
C549 C342 1.451 . S
C545 C121 1.403 . S
C563 C139 1.770 . S
C567 C327 1.745 . S
C585 C340 1.239 . S
C581 C164 1.225 . S
C599 C95 1.620 . S
C603 C356 1.665 . S
C617 C61 1.459 . S
C621 C355 1.457 . S
C635 C74 1.721 . S
C639 C354 1.652 . S
C653 C86 1.891 . S
C657 C357 1.852 . S
C671 C47 1.631 . S
C675 C259 1.624 . S
C689 C186 1.325 . S
C693 C257 1.352 . S
C711 C217 1.436 . S
C707 C204 1.444 . S
C729 C228 2.014 . S
C725 C112 2.032 . S
C743 C60 1.399 . S
C747 C273 1.408 . S
C765 C314 1.785 . S
C761 C152 1.778 . S
C783 C271 1.787 . S
C779 C126 1.804 . S
C801 C299 1.280 . S
C797 C160 1.188 . S
C819 C300 1.762 . S
C815 C190 1.784 . S
C833 C199 1.487 . S
C837 C315 1.471 . S
C851 C113 2.030 . S
C855 C272 2.014 . S
C873 C286 1.430 . S
C869 C173 1.368 . S
C887 C43 1.527 . S
C891 C242 1.466 . S
C909 C256 1.446 . S
C905 C9 1.467 . S
C927 C214 1.432 . S
C923 C17 1.434 . S
C945 C229 1.718 . S
C941 C34 1.773 . S
C959 C21 1.441 . S
C963 C343 1.427 . S
C977 C30 1.390 . S
C981 C328 1.441 . S
C995 C48 1.770 . S
C999 C341 1.744 . S
C1013 C8 1.210 . S
C1017 C326 1.243 . S
C1035 C370 1.666 . S
C1031 C108 1.619 . S
C1053 C369 1.456 . S
C1049 C178 1.459 . S
C1071 C368 1.656 . S
C1067 C191 1.720 . S
C1085 C203 1.895 . S
C1089 C371 1.857 . S
C1103 C138 1.632 . S
C1107 C287 1.625 . S
C1125 C285 1.354 . S
C1121 C69 1.327 . S
C1143 C301 1.436 . S
C1139 C87 1.444 . S
C1161 C312 2.019 . S
C1157 C99 2.031 . S
C1175 C177 1.397 . S
C1179 C245 1.405 . S
C1197 C230 1.785 . S
C1193 C22 1.774 . S
C1211 C35 1.809 . S
C1215 C243 1.793 . S
C1233 C215 1.283 . S
C1229 C4 1.202 . S
