# Generated by pormake.
# Topology ptr, (4,4)-cn, num edge types: 1
# Building blocks:
#     Node 0, Type 0, BuildingBlock: KUFVIS_clean_sbu_0, # of connection points: 4
#     Node 1, Type 0, BuildingBlock: KUFVIS_clean_sbu_0, # of connection points: 4
#     Node 2, Type 0, BuildingBlock: KUFVIS_clean_sbu_0, # of connection points: 4
#     Node 3, Type 0, BuildingBlock: KUFVIS_clean_sbu_0, # of connection points: 4
#     Node 4, Type 0, BuildingBlock: KUFVIS_clean_sbu_0, # of connection points: 4
#     Node 5, Type 0, BuildingBlock: KUFVIS_clean_sbu_0, # of connection points: 4
#     Node 6, Type 0, BuildingBlock: KUFVIS_clean_sbu_0, # of connection points: 4
#     Node 7, Type 0, BuildingBlock: KUFVIS_clean_sbu_0, # of connection points: 4
#     Node 8, Type 0, BuildingBlock: KUFVIS_clean_sbu_0, # of connection points: 4
#     Node 9, Type 0, BuildingBlock: KUFVIS_clean_sbu_0, # of connection points: 4
#     Node 10, Type 0, BuildingBlock: KUFVIS_clean_sbu_0, # of connection points: 4
#     Node 11, Type 0, BuildingBlock: KUFVIS_clean_sbu_0, # of connection points: 4
#     Node 12, Type 0, BuildingBlock: KUFVIS_clean_sbu_0, # of connection points: 4
#     Node 13, Type 0, BuildingBlock: KUFVIS_clean_sbu_0, # of connection points: 4
#     Node 14, Type 0, BuildingBlock: KUFVIS_clean_sbu_0, # of connection points: 4
#     Node 15, Type 0, BuildingBlock: KUFVIS_clean_sbu_0, # of connection points: 4
#     Node 16, Type 0, BuildingBlock: KUFVIS_clean_sbu_0, # of connection points: 4
#     Node 17, Type 0, BuildingBlock: KUFVIS_clean_sbu_0, # of connection points: 4
#     Node 18, Type 1, BuildingBlock: NAHDIM_clean_linker_0, # of connection points: 4
#     Node 19, Type 1, BuildingBlock: NAHDIM_clean_linker_0, # of connection points: 4
#     Node 20, Type 1, BuildingBlock: NAHDIM_clean_linker_0, # of connection points: 4
#     Node 21, Type 1, BuildingBlock: NAHDIM_clean_linker_0, # of connection points: 4
#     Node 22, Type 1, BuildingBlock: NAHDIM_clean_linker_0, # of connection points: 4
#     Node 23, Type 1, BuildingBlock: NAHDIM_clean_linker_0, # of connection points: 4
#     Node 24, Type 1, BuildingBlock: NAHDIM_clean_linker_0, # of connection points: 4
#     Node 25, Type 1, BuildingBlock: NAHDIM_clean_linker_0, # of connection points: 4
#     Node 26, Type 1, BuildingBlock: NAHDIM_clean_linker_0, # of connection points: 4
#     Node 27, Type 1, BuildingBlock: NAHDIM_clean_linker_0, # of connection points: 4
#     Node 28, Type 1, BuildingBlock: NAHDIM_clean_linker_0, # of connection points: 4
#     Node 29, Type 1, BuildingBlock: NAHDIM_clean_linker_0, # of connection points: 4
#     Node 30, Type 1, BuildingBlock: NAHDIM_clean_linker_0, # of connection points: 4
#     Node 31, Type 1, BuildingBlock: NAHDIM_clean_linker_0, # of connection points: 4
#     Node 32, Type 1, BuildingBlock: NAHDIM_clean_linker_0, # of connection points: 4
#     Node 33, Type 1, BuildingBlock: NAHDIM_clean_linker_0, # of connection points: 4
#     Node 34, Type 1, BuildingBlock: NAHDIM_clean_linker_0, # of connection points: 4
#     Node 35, Type 1, BuildingBlock: NAHDIM_clean_linker_0, # of connection points: 4
#     Edge 36, Type (0, 1), BuildingBlock: EZIPEK_clean_linker_0, # of connection points: 2
#     Edge 37, Type (0, 1), BuildingBlock: EZIPEK_clean_linker_0, # of connection points: 2
#     Edge 38, Type (0, 1), BuildingBlock: EZIPEK_clean_linker_0, # of connection points: 2
#     Edge 39, Type (0, 1), BuildingBlock: EZIPEK_clean_linker_0, # of connection points: 2
#     Edge 40, Type (0, 1), BuildingBlock: EZIPEK_clean_linker_0, # of connection points: 2
#     Edge 41, Type (0, 1), BuildingBlock: EZIPEK_clean_linker_0, # of connection points: 2
#     Edge 42, Type (0, 1), BuildingBlock: EZIPEK_clean_linker_0, # of connection points: 2
#     Edge 43, Type (0, 1), BuildingBlock: EZIPEK_clean_linker_0, # of connection points: 2
#     Edge 44, Type (0, 1), BuildingBlock: EZIPEK_clean_linker_0, # of connection points: 2
#     Edge 45, Type (0, 1), BuildingBlock: EZIPEK_clean_linker_0, # of connection points: 2
#     Edge 46, Type (0, 1), BuildingBlock: EZIPEK_clean_linker_0, # of connection points: 2
#     Edge 47, Type (0, 1), BuildingBlock: EZIPEK_clean_linker_0, # of connection points: 2
#     Edge 48, Type (0, 1), BuildingBlock: EZIPEK_clean_linker_0, # of connection points: 2
#     Edge 49, Type (0, 1), BuildingBlock: EZIPEK_clean_linker_0, # of connection points: 2
#     Edge 50, Type (0, 1), BuildingBlock: EZIPEK_clean_linker_0, # of connection points: 2
#     Edge 51, Type (0, 1), BuildingBlock: EZIPEK_clean_linker_0, # of connection points: 2
#     Edge 52, Type (0, 1), BuildingBlock: EZIPEK_clean_linker_0, # of connection points: 2
#     Edge 53, Type (0, 1), BuildingBlock: EZIPEK_clean_linker_0, # of connection points: 2
#     Edge 54, Type (0, 1), BuildingBlock: EZIPEK_clean_linker_0, # of connection points: 2
#     Edge 55, Type (0, 1), BuildingBlock: EZIPEK_clean_linker_0, # of connection points: 2
#     Edge 56, Type (0, 1), BuildingBlock: EZIPEK_clean_linker_0, # of connection points: 2
#     Edge 57, Type (0, 1), BuildingBlock: EZIPEK_clean_linker_0, # of connection points: 2
#     Edge 58, Type (0, 1), BuildingBlock: EZIPEK_clean_linker_0, # of connection points: 2
#     Edge 59, Type (0, 1), BuildingBlock: EZIPEK_clean_linker_0, # of connection points: 2
#     Edge 60, Type (0, 1), BuildingBlock: EZIPEK_clean_linker_0, # of connection points: 2
#     Edge 61, Type (0, 1), BuildingBlock: EZIPEK_clean_linker_0, # of connection points: 2
#     Edge 62, Type (0, 1), BuildingBlock: EZIPEK_clean_linker_0, # of connection points: 2
#     Edge 63, Type (0, 1), BuildingBlock: EZIPEK_clean_linker_0, # of connection points: 2
#     Edge 64, Type (0, 1), BuildingBlock: EZIPEK_clean_linker_0, # of connection points: 2
#     Edge 65, Type (0, 1), BuildingBlock: EZIPEK_clean_linker_0, # of connection points: 2
#     Edge 66, Type (0, 1), BuildingBlock: EZIPEK_clean_linker_0, # of connection points: 2
#     Edge 67, Type (0, 1), BuildingBlock: EZIPEK_clean_linker_0, # of connection points: 2
#     Edge 68, Type (0, 1), BuildingBlock: EZIPEK_clean_linker_0, # of connection points: 2
#     Edge 69, Type (0, 1), BuildingBlock: EZIPEK_clean_linker_0, # of connection points: 2
#     Edge 70, Type (0, 1), BuildingBlock: EZIPEK_clean_linker_0, # of connection points: 2
#     Edge 71, Type (0, 1), BuildingBlock: EZIPEK_clean_linker_0, # of connection points: 2
#     Edge 72, Type (0, 1), BuildingBlock: EZIPEK_clean_linker_0, # of connection points: 2
#     Edge 73, Type (0, 1), BuildingBlock: EZIPEK_clean_linker_0, # of connection points: 2
#     Edge 74, Type (0, 1), BuildingBlock: EZIPEK_clean_linker_0, # of connection points: 2
#     Edge 75, Type (0, 1), BuildingBlock: EZIPEK_clean_linker_0, # of connection points: 2
#     Edge 76, Type (0, 1), BuildingBlock: EZIPEK_clean_linker_0, # of connection points: 2
#     Edge 77, Type (0, 1), BuildingBlock: EZIPEK_clean_linker_0, # of connection points: 2
#     Edge 78, Type (0, 1), BuildingBlock: EZIPEK_clean_linker_0, # of connection points: 2
#     Edge 79, Type (0, 1), BuildingBlock: EZIPEK_clean_linker_0, # of connection points: 2
#     Edge 80, Type (0, 1), BuildingBlock: EZIPEK_clean_linker_0, # of connection points: 2
#     Edge 81, Type (0, 1), BuildingBlock: EZIPEK_clean_linker_0, # of connection points: 2
#     Edge 82, Type (0, 1), BuildingBlock: EZIPEK_clean_linker_0, # of connection points: 2
#     Edge 83, Type (0, 1), BuildingBlock: EZIPEK_clean_linker_0, # of connection points: 2
#     Edge 84, Type (0, 1), BuildingBlock: EZIPEK_clean_linker_0, # of connection points: 2
#     Edge 85, Type (0, 1), BuildingBlock: EZIPEK_clean_linker_0, # of connection points: 2
#     Edge 86, Type (0, 1), BuildingBlock: EZIPEK_clean_linker_0, # of connection points: 2
#     Edge 87, Type (0, 1), BuildingBlock: EZIPEK_clean_linker_0, # of connection points: 2
#     Edge 88, Type (0, 1), BuildingBlock: EZIPEK_clean_linker_0, # of connection points: 2
#     Edge 89, Type (0, 1), BuildingBlock: EZIPEK_clean_linker_0, # of connection points: 2
#     Edge 90, Type (0, 1), BuildingBlock: EZIPEK_clean_linker_0, # of connection points: 2
#     Edge 91, Type (0, 1), BuildingBlock: EZIPEK_clean_linker_0, # of connection points: 2
#     Edge 92, Type (0, 1), BuildingBlock: EZIPEK_clean_linker_0, # of connection points: 2
#     Edge 93, Type (0, 1), BuildingBlock: EZIPEK_clean_linker_0, # of connection points: 2
#     Edge 94, Type (0, 1), BuildingBlock: EZIPEK_clean_linker_0, # of connection points: 2
#     Edge 95, Type (0, 1), BuildingBlock: EZIPEK_clean_linker_0, # of connection points: 2
#     Edge 96, Type (0, 1), BuildingBlock: EZIPEK_clean_linker_0, # of connection points: 2
#     Edge 97, Type (0, 1), BuildingBlock: EZIPEK_clean_linker_0, # of connection points: 2
#     Edge 98, Type (0, 1), BuildingBlock: EZIPEK_clean_linker_0, # of connection points: 2
#     Edge 99, Type (0, 1), BuildingBlock: EZIPEK_clean_linker_0, # of connection points: 2
#     Edge 100, Type (0, 1), BuildingBlock: EZIPEK_clean_linker_0, # of connection points: 2
#     Edge 101, Type (0, 1), BuildingBlock: EZIPEK_clean_linker_0, # of connection points: 2
#     Edge 102, Type (0, 1), BuildingBlock: EZIPEK_clean_linker_0, # of connection points: 2
#     Edge 103, Type (0, 1), BuildingBlock: EZIPEK_clean_linker_0, # of connection points: 2
#     Edge 104, Type (0, 1), BuildingBlock: EZIPEK_clean_linker_0, # of connection points: 2
#     Edge 105, Type (0, 1), BuildingBlock: EZIPEK_clean_linker_0, # of connection points: 2
#     Edge 106, Type (0, 1), BuildingBlock: EZIPEK_clean_linker_0, # of connection points: 2
#     Edge 107, Type (0, 1), BuildingBlock: EZIPEK_clean_linker_0, # of connection points: 2
# Relax obj value: 0.038
# Max RMSD: 0.205
# Mean RMSD: 0.072
data_MOF--net-ptr--node1-KUFVIS_clean_sbu_0--node2-NAHDIM_clean_linker_0--edge1-EZIPEK_clean_linker_0
_symmetry_space_group_name_H-M    P1
_symmetry_Int_Tables_number       1
_symmetry_cell_setting            triclinic
loop_
_symmetry_equiv_pos_as_xyz
'x, y, z'
_cell_length_a     76.124379
_cell_length_b     75.305663
_cell_length_c     64.788128
_cell_angle_alpha  90.602278
_cell_angle_beta   91.20408
_cell_angle_gamma 119.52603
loop_
_atom_site_label
_atom_site_type_symbol
_atom_site_fract_x
_atom_site_fract_y
_atom_site_fract_z
_atom_type_partial_charge
Mn0 Mn 0.00438 0.33881 0.99845 0.0
Mn1 Mn 0.0483 0.37993 0.01359 0.0
C2 C 0.01807 0.367 0.97793 0.0
C3 C 0.98803 0.30706 0.98172 0.0
C4 C 0.008 0.36855 0.03284 0.0
O5 O 0.01513 0.32823 0.02144 0.0
O6 O 0.04615 0.35527 0.02682 0.0
C7 C 0.07652 0.36921 0.99359 0.0
N8 N 0.06942 0.38247 0.99632 0.0
C9 C 0.09376 0.40643 0.97332 0.0
C10 C 0.10141 0.39307 0.97033 0.0
C11 C 0.09269 0.37434 0.98044 0.0
C12 C 0.07754 0.40042 0.98649 0.0
H13 H 0.06987 0.3548 0.00136 0.0
C14 C 0.03266 0.33683 0.03002 0.0
O15 O 0.97903 0.31196 0.99563 0.0
O16 O 0.00653 0.32031 0.97793 0.0
N17 N 0.05262 0.40496 0.00184 0.0
C18 C 0.04302 0.41579 0.00575 0.0
C19 C 0.04975 0.43482 0.99665 0.0
C20 C 0.06628 0.44254 0.98359 0.0
C21 C 0.07601 0.43119 0.97986 0.0
C22 C 0.06876 0.41241 0.98955 0.0
H23 H 0.03001 0.40972 0.01529 0.0
O24 O 0.99922 0.35321 0.97551 0.0
O25 O 0.02843 0.36351 0.99194 0.0
O26 O 0.99701 0.35404 0.01998 0.0
O27 O 0.02723 0.37857 0.03204 0.0
C28 C 0.09255 0.43772 0.96682 0.0
C29 C 0.10143 0.42535 0.96355 0.0
H30 H 0.11388 0.39698 0.96019 0.0
H31 H 0.09845 0.36391 0.97814 0.0
H32 H 0.04204 0.4434 0.99948 0.0
H33 H 0.07129 0.45712 0.97641 0.0
H34 H 0.09845 0.45214 0.95907 0.0
H35 H 0.11398 0.43041 0.95329 0.0
Mn36 Mn 0.65599 0.65034 0.01677 0.0
Mn37 Mn 0.65771 0.60783 0.0033 0.0
C38 C 0.63886 0.62128 0.03616 0.0
C39 C 0.67124 0.68218 0.03314 0.0
C40 C 0.63255 0.62292 0.98005 0.0
O41 O 0.67928 0.66022 0.99707 0.0
O42 O 0.68244 0.63215 0.99352 0.0
C43 C 0.6931 0.61353 0.02849 0.0
N44 N 0.67311 0.60217 0.02315 0.0
C45 C 0.66914 0.57533 0.04571 0.0
C46 C 0.68967 0.58676 0.05148 0.0
C47 C 0.70169 0.60596 0.04287 0.0
C48 C 0.6614 0.58372 0.03141 0.0
H49 H 0.70241 0.62828 0.02188 0.0
C50 C 0.68861 0.65111 0.99077 0.0
O51 O 0.65876 0.67799 0.01755 0.0
O52 O 0.67466 0.66787 0.03954 0.0
N53 N 0.63499 0.58312 0.01205 0.0
C54 C 0.61547 0.57396 0.0048 0.0
C55 C 0.60147 0.55462 0.0119 0.0
C56 C 0.60772 0.54479 0.02617 0.0
C57 C 0.62796 0.55433 0.0331 0.0
C58 C 0.64125 0.57358 0.02544 0.0
H59 H 0.61057 0.58132 0.9937 0.0
O60 O 0.63417 0.63567 0.03714 0.0
O61 O 0.65357 0.62451 0.02416 0.0
O62 O 0.63591 0.63752 0.99249 0.0
O63 O 0.64093 0.61186 0.98197 0.0
C64 C 0.63545 0.54553 0.0474 0.0
C65 C 0.65602 0.55605 0.05373 0.0
H66 H 0.69635 0.58098 0.06258 0.0
H67 H 0.71754 0.6149 0.04728 0.0
H68 H 0.58589 0.54733 0.0064 0.0
H69 H 0.59685 0.52994 0.0317 0.0
H70 H 0.62551 0.53073 0.05371 0.0
H71 H 0.66157 0.5492 0.06486 0.0
Mn72 Mn 0.32882 0.99525 0.02022 0.0
Mn73 Mn 0.37603 0.03538 0.01883 0.0
C74 C 0.35426 0.99418 0.03923 0.0
C75 C 0.2966 0.98165 0.03294 0.0
C76 C 0.35695 0.00282 0.98471 0.0
O77 O 0.32537 0.01736 0.00645 0.0
O78 O 0.35629 0.04465 0.01151 0.0
C79 C 0.3738 0.05946 0.05406 0.0
N80 N 0.383 0.05012 0.04462 0.0
C81 C 0.40806 0.06064 0.07215 0.0
C82 C 0.39897 0.07053 0.08209 0.0
C83 C 0.3817 0.06985 0.07305 0.0
C84 C 0.39941 0.05038 0.05334 0.0
H85 H 0.3605 0.05893 0.04717 0.0
C86 C 0.33765 0.03641 0.00586 0.0
O87 O 0.2996 0.97578 0.0151 0.0
O88 O 0.31226 0.99513 0.04358 0.0
N89 N 0.39706 0.02931 0.02564 0.0
C90 C 0.40393 0.01882 0.01418 0.0
C91 C 0.42118 0.01811 0.02102 0.0
C92 C 0.4314 0.02846 0.03938 0.0
C93 C 0.42422 0.03934 0.05079 0.0
C94 C 0.40703 0.03962 0.04314 0.0
H95 H 0.39637 0.0111 -0.00013 0.0
O96 O 0.33699 0.97774 0.03583 0.0
O97 O 0.35556 0.01108 0.03262 0.0
O98 O 0.3408 0.99097 0.99392 0.0
O99 O 0.37018 0.02041 0.99198 0.0
C100 C 0.43346 0.04992 0.06945 0.0
C101 C 0.42528 0.0604 0.08024 0.0
H102 H 0.40504 0.07859 0.09672 0.0
H103 H 0.37452 0.07735 0.08068 0.0
H104 H 0.42666 0.0097 0.0121 0.0
H105 H 0.44477 0.02796 0.04459 0.0
H106 H 0.44681 0.05002 0.07566 0.0
H107 H 0.43236 0.06825 0.09472 0.0
Mn108 Mn 0.98876 0.65856 0.00941 0.0
Mn109 Mn 0.02997 0.65656 0.02514 0.0
C110 C 0.9976 0.63796 0.99084 0.0
C111 C 0.97737 0.67798 0.9924 0.0
C112 C 0.9896 0.6357 0.04666 0.0
O113 O 0.00304 0.68164 0.03037 0.0
O114 O 0.03382 0.68438 0.03188 0.0
C115 C 0.06228 0.68707 0.99939 0.0
N116 N 0.05063 0.66735 0.00509 0.0
C117 C 0.06762 0.65604 0.98188 0.0
C118 C 0.07927 0.67612 0.97527 0.0
C119 C 0.07668 0.69172 0.98416 0.0
C120 C 0.05339 0.6523 0.99701 0.0
H121 H 0.06084 0.69922 0.00659 0.0
C122 C 0.02181 0.69151 0.03481 0.0
O123 O 0.96674 0.66548 0.00664 0.0
O124 O 0.99405 0.67852 0.98751 0.0
N125 N 0.02809 0.63072 0.01879 0.0
C126 C 0.01668 0.61238 0.02781 0.0
C127 C 0.0181 0.59532 0.02121 0.0
C128 C 0.03146 0.59732 0.00565 0.0
C129 C 0.04357 0.61647 0.99709 0.0
C130 C 0.04159 0.63296 0.00437 0.0
H131 H 0.00648 0.61067 0.03989 0.0
O132 O 0.97978 0.63605 0.98821 0.0
O133 O 0.00982 0.65243 0.00364 0.0
O134 O 0.97902 0.63832 0.03278 0.0
O135 O 0.00893 0.64412 0.04639 0.0
C136 C 0.05759 0.61983 0.98167 0.0
C137 C 0.0696 0.6396 0.97407 0.0
H138 H 0.09043 0.67977 0.96356 0.0
H139 H 0.08588 0.70732 0.97942 0.0
H140 H 0.00885 0.58064 0.02807 0.0
H141 H 0.03241 0.5841 0.0005 0.0
H142 H 0.05931 0.60733 0.97561 0.0
H143 H 0.08038 0.64202 0.96226 0.0
Mn144 Mn 0.34611 0.3509 0.00593 0.0
Mn145 Mn 0.38625 0.34791 0.98964 0.0
C146 C 0.37599 0.36678 0.02548 0.0
C147 C 0.31593 0.33472 0.02307 0.0
C148 C 0.3708 0.37439 0.9697 0.0
O149 O 0.33443 0.32826 0.98426 0.0
O150 O 0.36075 0.32289 0.9797 0.0
C151 C 0.383 0.31187 0.01105 0.0
N152 N 0.39304 0.33238 0.00809 0.0
C153 C 0.41986 0.33697 0.03173 0.0
C154 C 0.40936 0.31603 0.03565 0.0
C155 C 0.39089 0.30341 0.02517 0.0
C156 C 0.41107 0.34459 0.01774 0.0
H157 H 0.36932 0.30197 0.00238 0.0
C158 C 0.34199 0.31771 0.97744 0.0
O159 O 0.31885 0.34813 0.00915 0.0
O160 O 0.33057 0.33114 0.02734 0.0
N161 N 0.41129 0.37089 0.99901 0.0
C162 C 0.42014 0.39057 0.99266 0.0
C163 C 0.43911 0.40501 0.00107 0.0
C164 C 0.44892 0.39905 0.01572 0.0
C165 C 0.43976 0.37864 0.02167 0.0
C166 C 0.4208 0.36493 0.01281 0.0
H167 H 0.41278 0.3953 0.98134 0.0
O168 O 0.36214 0.37185 0.02801 0.0
O169 O 0.37172 0.35254 0.0116 0.0
O170 O 0.3578 0.37187 0.98317 0.0
O171 O 0.38105 0.36506 0.97004 0.0
C172 C 0.44879 0.37134 0.0359 0.0
C173 C 0.43887 0.3505 0.04087 0.0
H174 H 0.41551 0.30943 0.04638 0.0
H175 H 0.38292 0.28715 0.02772 0.0
H176 H 0.44613 0.42071 0.99629 0.0
H177 H 0.46354 0.41024 0.02221 0.0
H178 H 0.46342 0.38159 0.04304 0.0
H179 H 0.44606 0.34501 0.05168 0.0
Mn180 Mn 0.66676 0.00534 0.01293 0.0
Mn181 Mn 0.62123 0.96274 0.01138 0.0
C182 C 0.64223 0.0022 0.98913 0.0
C183 C 0.70011 0.02205 0.00268 0.0
C184 C 0.63409 0.99604 0.04441 0.0
O185 O 0.67161 0.98515 0.02903 0.0
O186 O 0.64142 0.95676 0.02523 0.0
C187 C 0.63213 0.94022 0.98123 0.0
N188 N 0.6196 0.94734 0.98707 0.0
C189 C 0.5995 0.93421 0.9557 0.0
C190 C 0.61166 0.92596 0.94977 0.0
C191 C 0.6282 0.92921 0.96249 0.0
C192 C 0.60423 0.94513 0.9745 0.0
H193 H 0.64523 0.94329 0.99062 0.0
C194 C 0.65988 0.96615 0.03172 0.0
O195 O 0.6949 0.02757 0.0195 0.0
O196 O 0.68606 0.00694 0.99192 0.0
N197 N 0.60013 0.96592 0.99847 0.0
C198 C 0.59032 0.97549 0.00607 0.0
C199 C 0.57397 0.9746 0.99471 0.0
C200 C 0.56763 0.96357 0.97586 0.0
C201 C 0.57761 0.95339 0.96863 0.0
C202 C 0.59379 0.95482 0.98063 0.0
H203 H 0.59501 0.98386 0.02063 0.0
O204 O 0.65735 0.02006 0.99405 0.0
O205 O 0.64213 0.98692 0.99831 0.0
O206 O 0.65135 0.00826 0.03721 0.0
O207 O 0.62184 0.97852 0.0363 0.0
C208 C 0.57213 0.94186 0.95 0.0
C209 C 0.58309 0.93231 0.94352 0.0
H210 H 0.60868 0.91749 0.9353 0.0
H211 H 0.63798 0.92336 0.95779 0.0
H212 H 0.56627 0.9824 0.00047 0.0
H213 H 0.55508 0.96299 0.96709 0.0
H214 H 0.55964 0.94042 0.94042 0.0
H215 H 0.57894 0.92379 0.92899 0.0
Mn216 Mn 0.65509 0.67978 0.33694 0.0
Mn217 Mn 0.70396 0.7111 0.35013 0.0
C218 C 0.67366 0.70769 0.31704 0.0
C219 C 0.62951 0.64974 0.32166 0.0
C220 C 0.66887 0.70848 0.37412 0.0
O221 O 0.66225 0.66348 0.35705 0.0
O222 O 0.69619 0.68317 0.35927 0.0
C223 C 0.72505 0.69479 0.32497 0.0
N224 N 0.72189 0.71053 0.33027 0.0
C225 C 0.74832 0.73343 0.30836 0.0
C226 C 0.75175 0.71743 0.30253 0.0
C227 C 0.74005 0.69803 0.31087 0.0
C228 C 0.73317 0.72929 0.32248 0.0
H229 H 0.71616 0.67987 0.33141 0.0
C230 C 0.67979 0.66651 0.3623 0.0
O231 O 0.62628 0.6589 0.33685 0.0
O232 O 0.64781 0.65823 0.31504 0.0
N233 N 0.71325 0.73852 0.34158 0.0
C234 C 0.7071 0.75191 0.3476 0.0
C235 C 0.71714 0.77199 0.3405 0.0
C236 C 0.73322 0.77802 0.32703 0.0
C237 C 0.73904 0.76386 0.32071 0.0
C238 C 0.72863 0.74414 0.32851 0.0
H239 H 0.69428 0.74717 0.35726 0.0
O240 O 0.65408 0.69862 0.31622 0.0
O241 O 0.6818 0.6998 0.32908 0.0
O242 O 0.6554 0.69802 0.36038 0.0
O243 O 0.68734 0.71326 0.37237 0.0
C244 C 0.75451 0.76843 0.30665 0.0
C245 C 0.75914 0.75323 0.30048 0.0
H246 H 0.76326 0.71985 0.29161 0.0
H247 H 0.74262 0.68561 0.30646 0.0
H248 H 0.71227 0.7827 0.34513 0.0
H249 H 0.74074 0.79343 0.32135 0.0
H250 H 0.76277 0.78353 0.30031 0.0
H251 H 0.77091 0.75687 0.28949 0.0
Mn252 Mn 0.30517 0.98416 0.35138 0.0
Mn253 Mn 0.30638 0.94008 0.34452 0.0
C254 C 0.28809 0.95723 0.37367 0.0
C255 C 0.31734 0.01768 0.36334 0.0
C256 C 0.2789 0.95051 0.31941 0.0
O257 O 0.32892 0.99302 0.33257 0.0
O258 O 0.32775 0.96274 0.32888 0.0
C259 C 0.34601 0.95425 0.36592 0.0
N260 N 0.32603 0.94023 0.36349 0.0
C261 C 0.32874 0.91901 0.38944 0.0
C262 C 0.34936 0.93316 0.39213 0.0
C263 C 0.358 0.95091 0.3804 0.0
C264 C 0.31748 0.92333 0.37501 0.0
H265 H 0.35276 0.96788 0.35689 0.0
C266 C 0.33563 0.98181 0.32533 0.0
O267 O 0.30537 0.01008 0.34737 0.0
O268 O 0.32251 0.00569 0.37274 0.0
N269 N 0.28722 0.91625 0.3584 0.0
C270 C 0.26744 0.90345 0.35297 0.0
C271 C 0.25666 0.88476 0.36291 0.0
C272 C 0.26644 0.87912 0.37792 0.0
C273 C 0.28704 0.89205 0.38254 0.0
C274 C 0.297 0.91047 0.37207 0.0
H275 H 0.2599 0.90742 0.34111 0.0
O276 O 0.28295 0.97117 0.37149 0.0
O277 O 0.30335 0.9594 0.36306 0.0
O278 O 0.28606 0.96835 0.3272 0.0
O279 O 0.2851 0.93827 0.325 0.0
C280 C 0.29812 0.88725 0.39692 0.0
C281 C 0.31891 0.90082 0.40051 0.0
H282 H 0.35869 0.93057 0.40318 0.0
H283 H 0.37389 0.96195 0.38244 0.0
H284 H 0.24086 0.8747 0.35896 0.0
H285 H 0.25807 0.86472 0.3856 0.0
H286 H 0.29077 0.8732 0.40537 0.0
H287 H 0.32723 0.89705 0.41175 0.0
Mn288 Mn 0.00212 0.32197 0.34191 0.0
Mn289 Mn 0.04805 0.36386 0.33671 0.0
C290 C 0.02776 0.32925 0.36613 0.0
C291 C 0.9694 0.30772 0.3535 0.0
C292 C 0.03337 0.32444 0.31154 0.0
O293 O 0.99645 0.33848 0.32089 0.0
O294 O 0.02709 0.36666 0.32076 0.0
C295 C 0.03896 0.39295 0.3587 0.0
N296 N 0.0506 0.38394 0.35671 0.0
C297 C 0.07156 0.40299 0.38611 0.0
C298 C 0.05984 0.41252 0.38841 0.0
C299 C 0.04344 0.40742 0.37468 0.0
C300 C 0.06621 0.38849 0.37005 0.0
H301 H 0.02629 0.38906 0.34824 0.0
C302 C 0.00836 0.35665 0.31544 0.0
O303 O 0.97379 0.29915 0.33851 0.0
O304 O 0.98386 0.32451 0.36167 0.0
N305 N 0.07021 0.36412 0.35155 0.0
C306 C 0.0815 0.35557 0.34567 0.0
C307 C 0.09883 0.35953 0.35738 0.0
C308 C 0.10491 0.373 0.37454 0.0
C309 C 0.09388 0.38277 0.37947 0.0
C310 C 0.07674 0.37818 0.36717 0.0
H311 H 0.07779 0.34652 0.33166 0.0
O312 O 0.01219 0.31106 0.36449 0.0
O313 O 0.02768 0.34266 0.35372 0.0
O314 O 0.0163 0.31429 0.31994 0.0
O315 O 0.04627 0.34307 0.31623 0.0
C316 C 0.09954 0.39727 0.39575 0.0
C317 C 0.0883 0.40729 0.39915 0.0
H318 H 0.0633 0.42375 0.40067 0.0
H319 H 0.03428 0.41465 0.37639 0.0
H320 H 0.10769 0.35253 0.35296 0.0
H321 H 0.11833 0.37609 0.38351 0.0
H322 H 0.11258 0.40093 0.40566 0.0
H323 H 0.09277 0.41839 0.41173 0.0
Mn324 Mn 0.66702 0.99513 0.33603 0.0
Mn325 Mn 0.71034 0.9973 0.35267 0.0
C326 C 0.67838 0.97611 0.31872 0.0
C327 C 0.65147 0.0096 0.31692 0.0
C328 C 0.67033 0.97419 0.37456 0.0
O329 O 0.67987 0.01966 0.35544 0.0
O330 O 0.71079 0.02316 0.36128 0.0
C331 C 0.74093 0.03115 0.32842 0.0
N332 N 0.73127 0.01107 0.33335 0.0
C333 C 0.75165 0.00413 0.31027 0.0
C334 C 0.76144 0.02463 0.30457 0.0
C335 C 0.75612 0.03822 0.31377 0.0
C336 C 0.73658 0.99796 0.32492 0.0
H337 H 0.73723 0.04172 0.33575 0.0
C338 C 0.69789 0.02937 0.36271 0.0
O339 O 0.64268 0.99828 0.33255 0.0
O340 O 0.66925 0.01266 0.31251 0.0
N341 N 0.7118 0.97339 0.34514 0.0
C342 C 0.70158 0.95431 0.35297 0.0
C343 C 0.70554 0.939 0.3458 0.0
C344 C 0.72013 0.94351 0.33082 0.0
C345 C 0.73086 0.96339 0.3234 0.0
C346 C 0.72638 0.97805 0.33125 0.0
H347 H 0.69032 0.95067 0.36443 0.0
O348 O 0.65974 0.97192 0.31639 0.0
O349 O 0.68994 0.99171 0.33079 0.0
O350 O 0.6594 0.97623 0.36062 0.0
O351 O 0.68947 0.9822 0.37318 0.0
C352 C 0.74585 0.96922 0.30853 0.0
C353 C 0.75623 0.98957 0.30196 0.0
H354 H 0.77318 0.03014 0.29329 0.0
H355 H 0.76379 0.05413 0.30966 0.0
H356 H 0.69728 0.92374 0.35172 0.0
H357 H 0.72302 0.93163 0.32519 0.0
H358 H 0.74954 0.95817 0.30206 0.0
H359 H 0.76773 0.99388 0.29052 0.0
Mn360 Mn 0.01481 0.68976 0.3566 0.0
Mn361 Mn 0.0585 0.68929 0.35461 0.0
C362 C 0.03952 0.70768 0.38163 0.0
C363 C 0.98138 0.67296 0.36634 0.0
C364 C 0.04564 0.71172 0.32413 0.0
O365 O 0.00922 0.66656 0.33646 0.0
O366 O 0.0368 0.66315 0.34208 0.0
C367 C 0.05167 0.65584 0.38259 0.0
N368 N 0.06244 0.67589 0.37765 0.0
C369 C 0.08632 0.68283 0.40571 0.0
C370 C 0.07543 0.66229 0.41116 0.0
C371 C 0.05798 0.64875 0.39959 0.0
C372 C 0.0792 0.68905 0.38873 0.0
H373 H 0.03843 0.64535 0.37356 0.0
C374 C 0.01908 0.65709 0.33423 0.0
O375 O 0.98708 0.68557 0.35116 0.0
O376 O 0.99496 0.67021 0.37581 0.0
N377 N 0.08042 0.7138 0.36671 0.0
C378 C 0.08771 0.73355 0.36117 0.0
C379 C 0.10493 0.74913 0.3715 0.0
C380 C 0.11416 0.74432 0.38782 0.0
C381 C 0.10585 0.72401 0.3939 0.0
C382 C 0.0888 0.70912 0.38286 0.0
H383 H 0.07994 0.73749 0.3496 0.0
O384 O 0.02479 0.71151 0.37873 0.0
O385 O 0.03888 0.69319 0.37 0.0
O386 O 0.03113 0.71056 0.3347 0.0
O387 O 0.05599 0.70335 0.32977 0.0
C388 C 0.1136 0.71801 0.4107 0.0
C389 C 0.10391 0.69741 0.41652 0.0
H390 H 0.0803 0.65675 0.42421 0.0
H391 H 0.04949 0.63286 0.40367 0.0
H392 H 0.11079 0.76486 0.36719 0.0
H393 H 0.12726 0.7564 0.39595 0.0
H394 H 0.12683 0.72917 0.41946 0.0
H395 H 0.10989 0.69301 0.4296 0.0
Mn396 Mn 0.33246 0.33849 0.34588 0.0
Mn397 Mn 0.28913 0.29442 0.3523 0.0
C398 C 0.30534 0.32913 0.32305 0.0
C399 C 0.36464 0.35576 0.3325 0.0
C400 C 0.30169 0.33264 0.3786 0.0
O401 O 0.34093 0.323 0.36536 0.0
O402 O 0.31189 0.2934 0.36709 0.0
C403 C 0.29973 0.26756 0.32828 0.0
N404 N 0.28713 0.27526 0.33152 0.0
C405 C 0.26561 0.25585 0.30259 0.0
C406 C 0.27821 0.24751 0.2991 0.0
C407 C 0.2954 0.25348 0.31194 0.0
C408 C 0.27077 0.26993 0.31901 0.0
H409 H 0.31305 0.27224 0.33798 0.0
C410 C 0.33064 0.30489 0.37189 0.0
O411 O 0.35985 0.36307 0.34831 0.0
O412 O 0.35089 0.33839 0.32463 0.0
N413 N 0.2659 0.29307 0.33872 0.0
C414 C 0.2551 0.30226 0.34438 0.0
C415 C 0.23752 0.29805 0.33298 0.0
C416 C 0.23102 0.28417 0.31613 0.0
C417 C 0.24203 0.27442 0.31101 0.0
C418 C 0.25943 0.27921 0.32294 0.0
H419 H 0.25994 0.31285 0.35739 0.0
O420 O 0.31962 0.34802 0.32474 0.0
O421 O 0.30749 0.31641 0.33479 0.0
O422 O 0.31809 0.34406 0.36944 0.0
O423 O 0.28995 0.31382 0.37369 0.0
C424 C 0.23636 0.26004 0.29462 0.0
C425 C 0.24817 0.2508 0.29037 0.0
H426 H 0.27491 0.23661 0.28653 0.0
H427 H 0.3053 0.24724 0.30925 0.0
H428 H 0.22902 0.30553 0.33714 0.0
H429 H 0.21751 0.28104 0.30731 0.0
H430 H 0.22301 0.25607 0.28508 0.0
H431 H 0.24376 0.2399 0.27761 0.0
Mn432 Mn 0.33472 0.01958 0.66767 0.0
Mn433 Mn 0.37706 0.06267 0.6827 0.0
C434 C 0.34442 0.04906 0.64951 0.0
C435 C 0.3195 0.98859 0.64995 0.0
C436 C 0.33777 0.04517 0.70555 0.0
O437 O 0.3497 0.00967 0.68645 0.0
O438 O 0.3788 0.03864 0.69256 0.0
C439 C 0.40594 0.05763 0.65668 0.0
N440 N 0.39755 0.06904 0.66295 0.0
C441 C 0.41856 0.09623 0.64054 0.0
C442 C 0.42784 0.08502 0.63432 0.0
C443 C 0.4214 0.06557 0.64233 0.0
C444 C 0.40327 0.08753 0.65494 0.0
H445 H 0.40063 0.04244 0.66235 0.0
C446 C 0.36759 0.01937 0.6941 0.0
O447 O 0.31097 0.99179 0.66556 0.0
O448 O 0.33672 0.0034 0.64433 0.0
N449 N 0.37769 0.08726 0.67421 0.0
C450 C 0.36724 0.09614 0.68179 0.0
C451 C 0.37137 0.11537 0.67482 0.0
C452 C 0.38653 0.1255 0.66046 0.0
C453 C 0.3976 0.11641 0.65342 0.0
C454 C 0.3928 0.09721 0.66095 0.0
H455 H 0.35603 0.08874 0.69327 0.0
O456 O 0.32587 0.0343 0.6481 0.0
O457 O 0.35661 0.04599 0.66136 0.0
O458 O 0.32706 0.03082 0.69261 0.0
O459 O 0.35663 0.05753 0.70376 0.0
C460 C 0.41315 0.1256 0.63917 0.0
C461 C 0.42359 0.11549 0.63269 0.0
H462 H 0.43967 0.09104 0.62313 0.0
H463 H 0.4282 0.05665 0.6373 0.0
H464 H 0.36295 0.1224 0.68057 0.0
H465 H 0.38962 0.1403 0.65504 0.0
H466 H 0.41709 0.14036 0.63297 0.0
H467 H 0.43533 0.12259 0.62152 0.0
Mn468 Mn 0.98378 0.31667 0.69403 0.0
Mn469 Mn 0.99356 0.28038 0.67603 0.0
C470 C 0.97067 0.28611 0.71072 0.0
C471 C 0.9939 0.34616 0.7142 0.0
C472 C 0.96348 0.29059 0.65518 0.0
O473 O 0.00672 0.33177 0.67426 0.0
O474 O 0.01496 0.30752 0.66685 0.0
C475 C 0.03152 0.29153 0.69944 0.0
N476 N 0.01203 0.27753 0.69424 0.0
C477 C 0.01393 0.25189 0.71449 0.0
C478 C 0.03402 0.26603 0.72007 0.0
C479 C 0.04283 0.28594 0.71255 0.0
C480 C 0.00341 0.25834 0.70139 0.0
H481 H 0.03834 0.30685 0.69369 0.0
C482 C 0.01797 0.32579 0.66585 0.0
O483 O 0.98133 0.34159 0.69858 0.0
O484 O 0.0008 0.33383 0.71786 0.0
N485 N 0.97425 0.25335 0.6839 0.0
C486 C 0.9544 0.24192 0.67808 0.0
C487 C 0.94329 0.22164 0.68443 0.0
C488 C 0.95265 0.21337 0.6969 0.0
C489 C 0.97306 0.22547 0.70288 0.0
C490 C 0.98343 0.24549 0.69582 0.0
H491 H 0.94696 0.2484 0.66915 0.0
O492 O 0.96313 0.29806 0.71341 0.0
O493 O 0.9861 0.29268 0.69873 0.0
O494 O 0.96419 0.30287 0.66935 0.0
O495 O 0.97432 0.28198 0.65601 0.0
C496 C 0.98342 0.21856 0.71586 0.0
C497 C 0.00383 0.23178 0.7217 0.0
H498 H 0.04277 0.2618 0.73023 0.0
H499 H 0.0583 0.29696 0.71683 0.0
H500 H 0.92747 0.21251 0.68001 0.0
H501 H 0.94396 0.19781 0.70201 0.0
H502 H 0.97576 0.20319 0.72164 0.0
H503 H 0.01156 0.22637 0.73188 0.0
Mn504 Mn 0.66835 0.65949 0.67685 0.0
Mn505 Mn 0.71394 0.70229 0.67748 0.0
C506 C 0.69146 0.66528 0.70334 0.0
C507 C 0.63442 0.64307 0.68478 0.0
C508 C 0.70355 0.66504 0.65052 0.0
O509 O 0.66429 0.67734 0.65633 0.0
O510 O 0.69434 0.70574 0.65945 0.0
C511 C 0.70203 0.7295 0.69893 0.0
N512 N 0.71418 0.72099 0.69781 0.0
C513 C 0.73282 0.73919 0.72865 0.0
C514 C 0.7206 0.74825 0.73005 0.0
C515 C 0.70509 0.74331 0.71516 0.0
C516 C 0.72896 0.72541 0.71222 0.0
H517 H 0.69007 0.72572 0.68756 0.0
C518 C 0.67636 0.69577 0.65171 0.0
O519 O 0.64089 0.63633 0.6699 0.0
O520 O 0.64749 0.65951 0.69474 0.0
N521 N 0.73454 0.7017 0.69446 0.0
C522 C 0.74503 0.69169 0.69088 0.0
C523 C 0.76113 0.69502 0.70434 0.0
C524 C 0.76654 0.70889 0.72108 0.0
C525 C 0.75579 0.71931 0.72423 0.0
C526 C 0.73992 0.71542 0.71028 0.0
H527 H 0.74116 0.6812 0.67789 0.0
O528 O 0.67647 0.64707 0.69952 0.0
O529 O 0.69216 0.67969 0.69188 0.0
O530 O 0.68547 0.65414 0.65632 0.0
O531 O 0.71513 0.68337 0.65693 0.0
C532 C 0.76016 0.73338 0.7407 0.0
C533 C 0.7486 0.74321 0.74299 0.0
H534 H 0.72293 0.75895 0.74253 0.0
H535 H 0.69554 0.75017 0.71619 0.0
H536 H 0.76941 0.68697 0.70176 0.0
H537 H 0.77901 0.71148 0.73137 0.0
H538 H 0.77228 0.73661 0.75179 0.0
H539 H 0.75195 0.75381 0.75585 0.0
Mn540 Mn 0.3331 0.32985 0.66886 0.0
Mn541 Mn 0.37892 0.33731 0.68205 0.0
C542 C 0.34655 0.3142 0.64896 0.0
C543 C 0.31412 0.34266 0.65364 0.0
C544 C 0.34102 0.31252 0.70683 0.0
O545 O 0.345 0.35379 0.68928 0.0
O546 O 0.378 0.36272 0.68928 0.0
C547 C 0.40659 0.37016 0.65486 0.0
N548 N 0.39811 0.35048 0.66102 0.0
C549 C 0.41822 0.3435 0.63761 0.0
C550 C 0.42673 0.36354 0.63062 0.0
C551 C 0.42092 0.37694 0.63933 0.0
C552 C 0.4038 0.33753 0.65292 0.0
H553 H 0.40267 0.38068 0.66192 0.0
C554 C 0.36356 0.36629 0.69335 0.0
O555 O 0.30709 0.32976 0.66848 0.0
O556 O 0.33195 0.3477 0.6471 0.0
N557 N 0.38118 0.31369 0.67535 0.0
C558 C 0.37217 0.29509 0.68434 0.0
C559 C 0.37669 0.28003 0.67767 0.0
C560 C 0.39067 0.28434 0.66207 0.0
C561 C 0.40013 0.30375 0.65342 0.0
C562 C 0.39494 0.31811 0.66061 0.0
H563 H 0.36155 0.29167 0.69647 0.0
O564 O 0.32731 0.30801 0.64773 0.0
O565 O 0.35717 0.32971 0.66141 0.0
O566 O 0.32867 0.31048 0.69226 0.0
O567 O 0.36011 0.32311 0.70473 0.0
C568 C 0.41464 0.30945 0.63807 0.0
C569 C 0.42368 0.32931 0.63017 0.0
H570 H 0.43791 0.36886 0.61875 0.0
H571 H 0.42764 0.39253 0.63425 0.0
H572 H 0.36943 0.26515 0.68455 0.0
H573 H 0.39412 0.27269 0.65695 0.0
H574 H 0.41899 0.29867 0.63225 0.0
H575 H 0.43488 0.33355 0.61842 0.0
Mn576 Mn 0.67951 0.01941 0.67768 0.0
Mn577 Mn 0.71574 0.0092 0.66228 0.0
C578 C 0.70973 0.0327 0.69658 0.0
C579 C 0.65029 0.01018 0.69552 0.0
C580 C 0.70538 0.0386 0.64046 0.0
O581 O 0.66453 0.9952 0.65792 0.0
O582 O 0.68863 0.98653 0.65253 0.0
C583 C 0.70642 0.97204 0.68553 0.0
N584 N 0.71921 0.99203 0.68158 0.0
C585 C 0.74432 0.99307 0.70554 0.0
C586 C 0.73114 0.97268 0.71032 0.0
C587 C 0.71212 0.9621 0.70021 0.0
C588 C 0.73766 0.00227 0.69101 0.0
H589 H 0.69214 0.96365 0.67731 0.0
C590 C 0.67039 0.9832 0.65083 0.0
O591 O 0.65517 0.02242 0.68011 0.0
O592 O 0.66228 0.00321 0.70064 0.0
N593 N 0.74226 0.02982 0.67132 0.0
C594 C 0.7536 0.04911 0.66429 0.0
C595 C 0.77332 0.06151 0.67232 0.0
C596 C 0.78129 0.05387 0.68728 0.0
C597 C 0.76952 0.03382 0.69394 0.0
C598 C 0.74994 0.02219 0.68543 0.0
H599 H 0.74766 0.0551 0.65271 0.0
O600 O 0.69821 0.04084 0.69816 0.0
O601 O 0.70318 0.01716 0.68382 0.0
O602 O 0.6928 0.03795 0.6535 0.0
O603 O 0.71401 0.02775 0.64175 0.0
C604 C 0.77653 0.02486 0.70853 0.0
C605 C 0.76391 0.00452 0.71438 0.0
H606 H 0.73557 0.96492 0.7215 0.0
H607 H 0.70199 0.94625 0.70353 0.0
H608 H 0.78235 0.07693 0.667 0.0
H609 H 0.7965 0.06348 0.69347 0.0
H610 H 0.79162 0.03348 0.71533 0.0
H611 H 0.76949 0.99779 0.72561 0.0
Mn612 Mn 0.98647 0.68275 0.67616 0.0
Mn613 Mn 0.93889 0.64502 0.68422 0.0
C614 C 0.96103 0.67674 0.6525 0.0
C615 C 0.01834 0.69299 0.66367 0.0
C616 C 0.95823 0.68586 0.70751 0.0
O617 O 0.99052 0.66592 0.69785 0.0
O618 O 0.9585 0.64037 0.70093 0.0
C619 C 0.94249 0.61109 0.66509 0.0
N620 N 0.93305 0.62244 0.66607 0.0
C621 C 0.90891 0.60164 0.63939 0.0
C622 C 0.91834 0.58971 0.63816 0.0
C623 C 0.93526 0.59452 0.65101 0.0
C624 C 0.91688 0.61805 0.65365 0.0
H625 H 0.95543 0.61463 0.675 0.0
C626 C 0.97748 0.64906 0.70523 0.0
O627 O 0.01577 0.70343 0.67821 0.0
O628 O 0.00254 0.6767 0.65647 0.0
N629 N 0.91825 0.64695 0.66856 0.0
C630 C 0.91203 0.661 0.6702 0.0
C631 C 0.89527 0.6585 0.65835 0.0
C632 C 0.88535 0.6418 0.64448 0.0
C633 C 0.89237 0.62782 0.64255 0.0
C634 C 0.90888 0.63089 0.65513 0.0
H635 H 0.92046 0.67455 0.67961 0.0
O636 O 0.97763 0.69418 0.65316 0.0
O637 O 0.95992 0.66335 0.66571 0.0
O638 O 0.97482 0.69372 0.69791 0.0
O639 O 0.94356 0.66781 0.70362 0.0
C640 C 0.88383 0.61116 0.6284 0.0
C641 C 0.8921 0.59807 0.62682 0.0
H642 H 0.9128 0.57691 0.62731 0.0
H643 H 0.94267 0.58543 0.65011 0.0
H644 H 0.89035 0.66972 0.65949 0.0
H645 H 0.87269 0.64013 0.63505 0.0
H646 H 0.87111 0.60845 0.61843 0.0
H647 H 0.8856 0.58548 0.61567 0.0
C648 C 0.23777 0.26614 0.07391 0.0
C649 C 0.2406 0.28652 0.06587 0.0
C650 C 0.22362 0.29795 0.09051 0.0
C651 C 0.22687 0.31416 0.10363 0.0
C652 C 0.21079 0.31465 0.11323 0.0
C653 C 0.19096 0.29793 0.11036 0.0
C654 C 0.18753 0.28135 0.09715 0.0
C655 C 0.20385 0.28169 0.08706 0.0
C656 C 0.21513 0.33316 0.12634 0.0
C657 C 0.16666 0.26321 0.09375 0.0
C658 C 0.06502 0.31657 0.04792 0.0
C659 C 0.07525 0.3063 0.05794 0.0
C660 C 0.1063 0.31561 0.07813 0.0
C661 C 0.10064 0.29562 0.08401 0.0
C662 C 0.11333 0.29181 0.09703 0.0
C663 C 0.13195 0.30831 0.10436 0.0
C664 C 0.13767 0.32842 0.09845 0.0
C665 C 0.12475 0.33178 0.08536 0.0
C666 C 0.10689 0.27017 0.10294 0.0
C667 C 0.15741 0.34634 0.10603 0.0
C668 C 0.10061 0.31725 0.239 0.0
C669 C 0.09258 0.2987 0.22777 0.0
C670 C 0.10527 0.29349 0.21695 0.0
C671 C 0.12623 0.30767 0.21635 0.0
C672 C 0.13416 0.3267 0.22706 0.0
C673 C 0.12129 0.33094 0.23869 0.0
C674 C 0.09626 0.27267 0.20656 0.0
C675 C 0.15625 0.34257 0.22646 0.0
C676 C 0.2481 0.28171 0.24266 0.0
C677 C 0.24964 0.3017 0.25127 0.0
C678 C 0.21567 0.2966 0.24593 0.0
C679 C 0.19614 0.2799 0.24627 0.0
C680 C 0.18048 0.27912 0.23371 0.0
C681 C 0.18436 0.29588 0.22117 0.0
C682 C 0.20391 0.31331 0.22164 0.0
C683 C 0.21941 0.31328 0.23366 0.0
C684 C 0.15988 0.26032 0.23373 0.0
C685 C 0.20854 0.33213 0.20959 0.0
C686 C 0.17386 0.2981 0.12082 0.0
C687 C 0.16069 0.30205 0.10893 0.0
C688 C 0.14551 0.30446 0.11806 0.0
C689 C 0.14372 0.30358 0.13974 0.0
C690 C 0.12958 0.30741 0.14956 0.0
C691 C 0.1284 0.30717 0.17097 0.0
C692 C 0.14097 0.30259 0.18338 0.0
C693 C 0.14007 0.30251 0.20519 0.0
C694 C 0.1536 0.29898 0.21701 0.0
C695 C 0.16811 0.29557 0.20773 0.0
C696 C 0.16853 0.29455 0.18595 0.0
C697 C 0.18223 0.29009 0.17608 0.0
C698 C 0.18367 0.29075 0.15471 0.0
C699 C 0.17148 0.29589 0.14241 0.0
C700 C 0.15668 0.29914 0.15194 0.0
C701 C 0.1552 0.29849 0.17376 0.0
C702 C 0.06105 0.32194 0.26657 0.0
C703 C 0.0691 0.31644 0.24829 0.0
O704 O 0.24005 0.29867 0.08179 0.0
O705 O 0.23049 0.29649 0.25793 0.0
O706 O 0.08927 0.32204 0.25131 0.0
O707 O 0.09442 0.32 0.06571 0.0
H708 H 0.22793 0.28351 0.05502 0.0
H709 H 0.22423 0.2585 0.08349 0.0
H710 H 0.25098 0.26827 0.08341 0.0
H711 H 0.23576 0.25568 0.06075 0.0
H712 H 0.24215 0.32667 0.10608 0.0
H713 H 0.20099 0.2691 0.07677 0.0
H714 H 0.20339 0.33762 0.12364 0.0
H715 H 0.23013 0.34644 0.12315 0.0
H716 H 0.2151 0.32955 0.1429 0.0
H717 H 0.16702 0.25023 0.08585 0.0
H718 H 0.15738 0.26773 0.08406 0.0
H719 H 0.1591 0.25798 0.10871 0.0
H720 H 0.07498 0.29363 0.0486 0.0
H721 H 0.06321 0.31177 0.03115 0.0
H722 H 0.07696 0.33285 0.04532 0.0
H723 H 0.04077 0.30916 0.06618 0.0
H724 H 0.08639 0.28294 0.07851 0.0
H725 H 0.12894 0.34713 0.08076 0.0
H726 H 0.11855 0.2662 0.09845 0.0
H727 H 0.09219 0.25894 0.09552 0.0
H728 H 0.10556 0.26884 0.11996 0.0
H729 H 0.15934 0.36112 0.10057 0.0
H730 H 0.17017 0.34452 0.10055 0.0
H731 H 0.15824 0.3468 0.12317 0.0
H732 H 0.06607 0.32139 0.2331 0.0
H733 H 0.0766 0.28788 0.22805 0.0
H734 H 0.12733 0.34517 0.24748 0.0
H735 H 0.0947 0.27412 0.18969 0.0
H736 H 0.08105 0.262 0.21235 0.0
H737 H 0.10618 0.2659 0.20902 0.0
H738 H 0.15907 0.35785 0.23178 0.0
H739 H 0.16192 0.3438 0.21059 0.0
H740 H 0.16512 0.338 0.23674 0.0
H741 H 0.25415 0.31269 0.2385 0.0
H742 H 0.25832 0.28452 0.22969 0.0
H743 H 0.23267 0.27128 0.2362 0.0
H744 H 0.25134 0.27344 0.25485 0.0
H745 H 0.19335 0.26721 0.25601 0.0
H746 H 0.23432 0.32658 0.23381 0.0
H747 H 0.15421 0.25506 0.21764 0.0
H748 H 0.14911 0.2641 0.24123 0.0
H749 H 0.16002 0.24762 0.24216 0.0
H750 H 0.22273 0.3457 0.21529 0.0
H751 H 0.19603 0.33567 0.2105 0.0
H752 H 0.21034 0.32942 0.1931 0.0
H753 H 0.1625 0.30363 0.09236 0.0
H754 H 0.1195 0.311 0.14081 0.0
H755 H 0.11757 0.31074 0.17765 0.0
H756 H 0.15342 0.29981 0.23373 0.0
H757 H 0.19217 0.2863 0.18482 0.0
H758 H 0.19466 0.28743 0.14796 0.0
H759 H 0.03882 0.29398 0.27667 0.0
H760 H 0.05767 0.33407 0.26099 0.0
H761 H 0.07438 0.33272 0.27672 0.0
C762 C 0.73167 0.95481 0.0376 0.0
C763 C 0.71549 0.93875 0.05118 0.0
C764 C 0.72001 0.92184 0.0809 0.0
C765 C 0.70033 0.90771 0.0863 0.0
C766 C 0.69643 0.89016 0.09717 0.0
C767 C 0.71266 0.88694 0.10297 0.0
C768 C 0.73262 0.90151 0.09796 0.0
C769 C 0.73606 0.91892 0.08712 0.0
C770 C 0.67503 0.87516 0.10264 0.0
C771 C 0.75029 0.89866 0.10406 0.0
C772 C 0.68246 0.73512 0.04643 0.0
C773 C 0.69176 0.75692 0.05322 0.0
C774 C 0.68566 0.77842 0.07729 0.0
C775 C 0.70567 0.79465 0.07823 0.0
C776 C 0.71086 0.81257 0.08974 0.0
C777 C 0.69566 0.8145 0.10005 0.0
C778 C 0.67537 0.79847 0.09845 0.0
C779 C 0.67074 0.78049 0.08741 0.0
C780 C 0.73265 0.82931 0.09112 0.0
C781 C 0.65856 0.8002 0.10855 0.0
C782 C 0.68668 0.77762 0.23511 0.0
C783 C 0.70624 0.78903 0.22749 0.0
C784 C 0.71168 0.80678 0.21627 0.0
C785 C 0.69707 0.81279 0.21198 0.0
C786 C 0.67722 0.80096 0.21918 0.0
C787 C 0.67242 0.7837 0.23089 0.0
C788 C 0.73309 0.81925 0.20924 0.0
C789 C 0.6611 0.80668 0.2149 0.0
C790 C 0.68349 0.93941 0.23638 0.0
C791 C 0.68874 0.92997 0.25488 0.0
C792 C 0.70554 0.91266 0.23907 0.0
C793 C 0.72387 0.9128 0.23719 0.0
C794 C 0.72521 0.89795 0.22505 0.0
C795 C 0.70775 0.88266 0.21449 0.0
C796 C 0.68914 0.8824 0.21628 0.0
C797 C 0.68821 0.89731 0.22856 0.0
C798 C 0.74526 0.89863 0.22341 0.0
C799 C 0.67017 0.86638 0.20513 0.0
C800 C 0.70884 0.86848 0.11449 0.0
C801 C 0.70448 0.85081 0.10314 0.0
C802 C 0.70101 0.83298 0.11301 0.0
C803 C 0.70212 0.83276 0.13483 0.0
C804 C 0.69914 0.81524 0.14526 0.0
C805 C 0.69933 0.81485 0.16672 0.0
C806 C 0.70287 0.83209 0.17862 0.0
C807 C 0.70251 0.83167 0.20044 0.0
C808 C 0.70546 0.8489 0.21172 0.0
C809 C 0.70856 0.86656 0.20182 0.0
C810 C 0.70957 0.86749 0.18007 0.0
C811 C 0.71314 0.88521 0.16968 0.0
C812 C 0.71318 0.88568 0.14822 0.0
C813 C 0.70947 0.86838 0.13632 0.0
C814 C 0.70613 0.85045 0.1465 0.0
C815 C 0.70644 0.85009 0.16842 0.0
C816 C 0.68347 0.7369 0.2688 0.0
C817 C 0.69205 0.75137 0.25155 0.0
O818 O 0.72399 0.93878 0.07031 0.0
O819 O 0.7053 0.92757 0.25097 0.0
O820 O 0.68101 0.76104 0.24702 0.0
O821 O 0.68016 0.76049 0.06707 0.0
H822 H 0.71148 0.92426 0.04283 0.0
H823 H 0.74403 0.95119 0.03549 0.0
H824 H 0.73844 0.97042 0.04446 0.0
H825 H 0.72504 0.95472 0.02212 0.0
H826 H 0.68809 0.91058 0.08233 0.0
H827 H 0.75126 0.93019 0.08317 0.0
H828 H 0.67064 0.85989 0.09584 0.0
H829 H 0.66408 0.87988 0.09703 0.0
H830 H 0.67401 0.87362 0.11967 0.0
H831 H 0.76485 0.9112 0.09866 0.0
H832 H 0.74798 0.88394 0.09751 0.0
H833 H 0.75128 0.89795 0.12113 0.0
H834 H 0.69709 0.76814 0.04053 0.0
H835 H 0.67875 0.73496 0.0295 0.0
H836 H 0.66625 0.72735 0.05121 0.0
H837 H 0.70293 0.72659 0.05733 0.0
H838 H 0.71738 0.79333 0.07037 0.0
H839 H 0.65534 0.76795 0.08651 0.0
H840 H 0.7342 0.84302 0.08326 0.0
H841 H 0.74292 0.8247 0.08384 0.0
H842 H 0.73754 0.83371 0.10753 0.0
H843 H 0.64342 0.7882 0.10274 0.0
H844 H 0.66004 0.8154 0.1058 0.0
H845 H 0.6595 0.79857 0.12548 0.0
H846 H 0.69542 0.74513 0.23742 0.0
H847 H 0.71742 0.7844 0.23054 0.0
H848 H 0.6574 0.77482 0.23686 0.0
H849 H 0.73326 0.81855 0.19213 0.0
H850 H 0.74314 0.81372 0.21562 0.0
H851 H 0.73931 0.83551 0.21401 0.0
H852 H 0.64575 0.79392 0.21791 0.0
H853 H 0.66145 0.81135 0.19865 0.0
H854 H 0.66398 0.81982 0.22512 0.0
H855 H 0.67511 0.91484 0.25672 0.0
H856 H 0.67223 0.94398 0.24079 0.0
H857 H 0.67673 0.92816 0.22337 0.0
H858 H 0.69696 0.95286 0.23043 0.0
H859 H 0.73718 0.92463 0.2453 0.0
H860 H 0.6738 0.89671 0.2297 0.0
H861 H 0.74919 0.89925 0.20692 0.0
H862 H 0.74412 0.88446 0.22972 0.0
H863 H 0.75763 0.91198 0.2319 0.0
H864 H 0.6566 0.8674 0.20928 0.0
H865 H 0.6675 0.8509 0.20874 0.0
H866 H 0.67203 0.86821 0.1882 0.0
H867 H 0.70367 0.8509 0.08641 0.0
H868 H 0.6964 0.80152 0.13696 0.0
H869 H 0.69655 0.8008 0.17387 0.0
H870 H 0.70435 0.84821 0.22839 0.0
H871 H 0.71587 0.8989 0.17805 0.0
H872 H 0.7159 0.8997 0.14107 0.0
H873 H 0.67807 0.72137 0.26151 0.0
H874 H 0.66782 0.73442 0.27128 0.0
H875 H 0.7061 0.74928 0.29143 0.0
C876 C 0.20182 0.93923 0.03192 0.0
C877 C 0.21247 0.94308 0.05336 0.0
C878 C 0.19125 0.91068 0.07093 0.0
C879 C 0.17532 0.91436 0.07554 0.0
C880 C 0.15868 0.90012 0.0865 0.0
C881 C 0.15779 0.88173 0.09264 0.0
C882 C 0.17355 0.87778 0.08756 0.0
C883 C 0.19015 0.89242 0.07694 0.0
C884 C 0.1421 0.90477 0.09164 0.0
C885 C 0.17291 0.85812 0.09341 0.0
C886 C 0.00939 0.76465 0.0342 0.0
C887 C 0.03078 0.7714 0.04259 0.0
C888 C 0.05198 0.79583 0.06998 0.0
C889 C 0.06955 0.79437 0.06798 0.0
C890 C 0.08749 0.80802 0.07877 0.0
C891 C 0.08795 0.82376 0.09133 0.0
C892 C 0.07047 0.82577 0.09261 0.0
C893 C 0.05257 0.81143 0.08232 0.0
C894 C 0.10578 0.80531 0.07712 0.0
C895 C 0.07053 0.84285 0.10509 0.0
C896 C 0.06999 0.77819 0.22502 0.0
C897 C 0.08205 0.7752 0.21074 0.0
C898 C 0.09627 0.79147 0.19929 0.0
C899 C 0.09776 0.81091 0.20127 0.0
C900 C 0.08496 0.81373 0.21483 0.0
C901 C 0.07137 0.79735 0.22664 0.0
C902 C 0.10988 0.78786 0.18528 0.0
C903 C 0.0858 0.8341 0.21708 0.0
C904 C 0.22869 0.94804 0.24053 0.0
C905 C 0.21796 0.92844 0.253 0.0
C906 C 0.19865 0.90015 0.22803 0.0
C907 C 0.19723 0.88235 0.21957 0.0
C908 C 0.1804 0.86873 0.20734 0.0
C909 C 0.1646 0.87312 0.20348 0.0
C910 C 0.16604 0.89129 0.21167 0.0
C911 C 0.18314 0.90473 0.22369 0.0
C912 C 0.17944 0.84963 0.19856 0.0
C913 C 0.14948 0.89645 0.20771 0.0
C914 C 0.14051 0.86665 0.10455 0.0
C915 C 0.12272 0.85312 0.0937 0.0
C916 C 0.10642 0.83759 0.10378 0.0
C917 C 0.1079 0.83527 0.1253 0.0
C918 C 0.0921 0.81934 0.13583 0.0
C919 C 0.09368 0.81725 0.15699 0.0
C920 C 0.11126 0.8308 0.1684 0.0
C921 C 0.11329 0.82845 0.18982 0.0
C922 C 0.13082 0.8425 0.20073 0.0
C923 C 0.14657 0.85876 0.19083 0.0
C924 C 0.14506 0.86106 0.16937 0.0
C925 C 0.16089 0.87697 0.15887 0.0
C926 C 0.15938 0.87893 0.13768 0.0
C927 C 0.14198 0.86508 0.12618 0.0
C928 C 0.12569 0.84919 0.13653 0.0
C929 C 0.12731 0.84705 0.15813 0.0
C930 C 0.03826 0.72759 0.22788 0.0
C931 C 0.05553 0.74447 0.24115 0.0
O932 O 0.2079 0.92409 0.0607 0.0
O933 O 0.21517 0.91235 0.24023 0.0
O934 O 0.05697 0.76326 0.23753 0.0
O935 O 0.03398 0.78208 0.06106 0.0
H936 H 0.20704 0.95091 0.06396 0.0
H937 H 0.18583 0.92696 0.03271 0.0
H938 H 0.20934 0.93426 0.02054 0.0
H939 H 0.20142 0.95277 0.02605 0.0
H940 H 0.17567 0.92821 0.07069 0.0
H941 H 0.20242 0.88965 0.07321 0.0
H942 H 0.12782 0.89349 0.0836 0.0
H943 H 0.14567 0.92034 0.08703 0.0
H944 H 0.1395 0.90336 0.1085 0.0
H945 H 0.18515 0.8564 0.08629 0.0
H946 H 0.15812 0.84484 0.08857 0.0
H947 H 0.17452 0.85776 0.11044 0.0
H948 H 0.04062 0.78245 0.03119 0.0
H949 H 0.00686 0.75686 0.01887 0.0
H950 H 0.00737 0.77818 0.03225 0.0
H951 H 0.99775 0.7541 0.0448 0.0
H952 H 0.06924 0.78225 0.05868 0.0
H953 H 0.03892 0.81242 0.08372 0.0
H954 H 0.11184 0.80495 0.09277 0.0
H955 H 0.11781 0.81848 0.06905 0.0
H956 H 0.10234 0.79108 0.06848 0.0
H957 H 0.05723 0.84466 0.10117 0.0
H958 H 0.08449 0.85754 0.1025 0.0
H959 H 0.07019 0.83953 0.12177 0.0
H960 H 0.06896 0.7439 0.23584 0.0
H961 H 0.08063 0.76034 0.20835 0.0
H962 H 0.06183 0.79951 0.23741 0.0
H963 H 0.10521 0.78787 0.16894 0.0
H964 H 0.10919 0.77301 0.18811 0.0
H965 H 0.12579 0.80025 0.18743 0.0
H966 H 0.07296 0.83303 0.22589 0.0
H967 H 0.08569 0.84033 0.20164 0.0
H968 H 0.10009 0.8451 0.22531 0.0
H969 H 0.20298 0.92573 0.25781 0.0
H970 H 0.23077 0.96166 0.24935 0.0
H971 H 0.2197 0.94662 0.22626 0.0
H972 H 0.24377 0.95069 0.23597 0.0
H973 H 0.20935 0.87904 0.22278 0.0
H974 H 0.18421 0.91876 0.22948 0.0
H975 H 0.17728 0.84901 0.18151 0.0
H976 H 0.16625 0.83599 0.20476 0.0
H977 H 0.19332 0.8488 0.20235 0.0
H978 H 0.15245 0.91074 0.21591 0.0
H979 H 0.13483 0.88377 0.21274 0.0
H980 H 0.14794 0.89825 0.1909 0.0
H981 H 0.12162 0.85455 0.07713 0.0
H982 H 0.07832 0.80823 0.12784 0.0
H983 H 0.08098 0.80479 0.16428 0.0
H984 H 0.1323 0.84065 0.21716 0.0
H985 H 0.17468 0.88802 0.16689 0.0
H986 H 0.17205 0.89145 0.13042 0.0
H987 H 0.03539 0.7123 0.23273 0.0
H988 H 0.04259 0.72938 0.21144 0.0
H989 H 0.02407 0.72824 0.22856 0.0
C990 C 0.3132 0.10489 0.99897 0.0
C991 C 0.30665 0.08984 0.98039 0.0
C992 C 0.31145 0.11144 0.9503 0.0
C993 C 0.29116 0.10488 0.94477 0.0
C994 C 0.28614 0.11584 0.93067 0.0
C995 C 0.30168 0.13367 0.92195 0.0
C996 C 0.32211 0.14015 0.9273 0.0
C997 C 0.32669 0.12876 0.94119 0.0
C998 C 0.26423 0.10832 0.92496 0.0
C999 C 0.3391 0.15919 0.91844 0.0
C1000 C 0.25696 0.24366 0.96397 0.0
C1001 C 0.27331 0.23878 0.95711 0.0
C1002 C 0.27337 0.21594 0.93032 0.0
C1003 C 0.29332 0.21967 0.93137 0.0
C1004 C 0.29834 0.20562 0.92278 0.0
C1005 C 0.283 0.18738 0.91322 0.0
C1006 C 0.26279 0.18345 0.91251 0.0
C1007 C 0.25834 0.19805 0.9207 0.0
C1008 C 0.3201 0.21049 0.92354 0.0
C1009 C 0.24592 0.16397 0.90291 0.0
C1010 C 0.30112 0.21858 0.77918 0.0
C1011 C 0.31777 0.22116 0.79126 0.0
C1012 C 0.31659 0.20528 0.80331 0.0
C1013 C 0.29831 0.18644 0.80339 0.0
C1014 C 0.28169 0.18356 0.79077 0.0
C1015 C 0.28341 0.19965 0.77861 0.0
C1016 C 0.3349 0.20871 0.81603 0.0
C1017 C 0.26206 0.16363 0.7904 0.0
C1018 C 0.33594 0.07029 0.79635 0.0
C1019 C 0.31845 0.06834 0.78224 0.0
C1020 C 0.31779 0.10004 0.78952 0.0
C1021 C 0.3322 0.12052 0.79281 0.0
C1022 C 0.32758 0.13384 0.80361 0.0
C1023 C 0.30771 0.1266 0.8105 0.0
C1024 C 0.29287 0.1059 0.80681 0.0
C1025 C 0.29817 0.09273 0.7966 0.0
C1026 C 0.34392 0.15572 0.80732 0.0
C1027 C 0.27134 0.09782 0.81316 0.0
C1028 C 0.29665 0.14576 0.90746 0.0
C1029 C 0.29163 0.15979 0.91587 0.0
C1030 C 0.2882 0.17279 0.90327 0.0
C1031 C 0.28999 0.17197 0.88164 0.0
C1032 C 0.28765 0.18552 0.8686 0.0
C1033 C 0.28964 0.18474 0.84738 0.0
C1034 C 0.29403 0.17037 0.83836 0.0
C1035 C 0.29679 0.16997 0.8169 0.0
C1036 C 0.30039 0.15503 0.80829 0.0
C1037 C 0.30236 0.14097 0.8207 0.0
C1038 C 0.30059 0.14175 0.84235 0.0
C1039 C 0.30355 0.12861 0.85546 0.0
C1040 C 0.30208 0.12975 0.87676 0.0
C1041 C 0.29768 0.14412 0.8858 0.0
C1042 C 0.29448 0.15739 0.87287 0.0
C1043 C 0.29617 0.15636 0.85116 0.0
C1044 C 0.29554 0.25797 0.78587 0.0
C1045 C 0.3105 0.2542 0.77357 0.0
O1046 O 0.31713 0.10128 0.96371 0.0
O1047 O 0.32302 0.0882 0.7782 0.0
O1048 O 0.30178 0.2338 0.76754 0.0
O1049 O 0.26834 0.22972 0.93759 0.0
H1050 H 0.29016 0.08287 0.97764 0.0
H1051 H 0.31024 0.11758 0.99532 0.0
H1052 H 0.32964 0.11149 0.00237 0.0
H1053 H 0.30498 0.09782 0.01313 0.0
H1054 H 0.27913 0.09103 0.95089 0.0
H1055 H 0.3423 0.13354 0.94531 0.0
H1056 H 0.25995 0.1197 0.93026 0.0
H1057 H 0.25398 0.09343 0.93194 0.0
H1058 H 0.26195 0.10669 0.90791 0.0
H1059 H 0.35405 0.16306 0.92544 0.0
H1060 H 0.3365 0.17232 0.92095 0.0
H1061 H 0.3395 0.15699 0.90153 0.0
H1062 H 0.27197 0.22709 0.96816 0.0
H1063 H 0.26046 0.25025 0.97995 0.0
H1064 H 0.24209 0.22942 0.9639 0.0
H1065 H 0.25557 0.2546 0.95368 0.0
H1066 H 0.30509 0.2338 0.93825 0.0
H1067 H 0.243 0.19543 0.91985 0.0
H1068 H 0.32491 0.20915 0.9078 0.0
H1069 H 0.32163 0.19929 0.93333 0.0
H1070 H 0.33044 0.22607 0.92993 0.0
H1071 H 0.2308 0.16183 0.9065 0.0
H1072 H 0.24695 0.15059 0.90844 0.0
H1073 H 0.24732 0.16435 0.88589 0.0
H1074 H 0.32304 0.25841 0.78496 0.0
H1075 H 0.33187 0.23537 0.79112 0.0
H1076 H 0.27074 0.19769 0.76896 0.0
H1077 H 0.3319 0.20903 0.83268 0.0
H1078 H 0.34859 0.22331 0.81244 0.0
H1079 H 0.33806 0.19599 0.81334 0.0
H1080 H 0.25023 0.16412 0.78047 0.0
H1081 H 0.25645 0.15978 0.80632 0.0
H1082 H 0.26462 0.1512 0.78456 0.0
H1083 H 0.30403 0.05994 0.79041 0.0
H1084 H 0.33233 0.05604 0.8043 0.0
H1085 H 0.34984 0.07532 0.78741 0.0
H1086 H 0.33935 0.08189 0.80882 0.0
H1087 H 0.34722 0.12602 0.78701 0.0
H1088 H 0.28675 0.07701 0.79346 0.0
H1089 H 0.34361 0.16084 0.82338 0.0
H1090 H 0.34125 0.16567 0.79668 0.0
H1091 H 0.3592 0.15787 0.80455 0.0
H1092 H 0.26113 0.08213 0.80692 0.0
H1093 H 0.26561 0.10802 0.80775 0.0
H1094 H 0.27071 0.0975 0.83025 0.0
H1095 H 0.29066 0.16081 0.93249 0.0
H1096 H 0.28442 0.19703 0.87465 0.0
H1097 H 0.2877 0.19557 0.83812 0.0
H1098 H 0.30252 0.15486 0.7918 0.0
H1099 H 0.30716 0.11738 0.8494 0.0
H1100 H 0.3045 0.11925 0.88608 0.0
H1101 H 0.30213 0.27453 0.78956 0.0
H1102 H 0.29245 0.24976 0.80066 0.0
H1103 H 0.28086 0.25248 0.77754 0.0
C1104 C 0.79505 0.0558 0.99378 0.0
C1105 C 0.78426 0.06221 0.97769 0.0
C1106 C 0.79903 0.07216 0.94396 0.0
C1107 C 0.79408 0.08704 0.93815 0.0
C1108 C 0.80635 0.10259 0.92478 0.0
C1109 C 0.82391 0.10316 0.91712 0.0
C1110 C 0.82828 0.08747 0.9221 0.0
C1111 C 0.81559 0.07197 0.93532 0.0
C1112 C 0.80094 0.11877 0.91938 0.0
C1113 C 0.8468 0.08755 0.91415 0.0
C1114 C 0.95571 0.2509 0.9697 0.0
C1115 C 0.94498 0.23024 0.95964 0.0
C1116 C 0.91065 0.20443 0.94925 0.0
C1117 C 0.91625 0.1922 0.93772 0.0
C1118 C 0.90209 0.17617 0.9249 0.0
C1119 C 0.88206 0.17268 0.92311 0.0
C1120 C 0.87632 0.18482 0.93491 0.0
C1121 C 0.89066 0.20036 0.94808 0.0
C1122 C 0.90861 0.16301 0.91327 0.0
C1123 C 0.85511 0.18154 0.93349 0.0
C1124 C 0.90863 0.21517 0.78842 0.0
C1125 C 0.91507 0.20201 0.79652 0.0
C1126 C 0.90192 0.18485 0.80773 0.0
C1127 C 0.88208 0.18103 0.8113 0.0
C1128 C 0.87572 0.19451 0.80354 0.0
C1129 C 0.88906 0.21132 0.79207 0.0
C1130 C 0.90909 0.17059 0.81543 0.0
C1131 C 0.85474 0.19102 0.80715 0.0
C1132 C 0.77102 0.03056 0.76572 0.0
C1133 C 0.76882 0.04978 0.76431 0.0
C1134 C 0.80003 0.07979 0.77584 0.0
C1135 C 0.8201 0.08442 0.77837 0.0
C1136 C 0.83309 0.09927 0.79296 0.0
C1137 C 0.82594 0.1103 0.80466 0.0
C1138 C 0.80572 0.106 0.80171 0.0
C1139 C 0.79288 0.09053 0.78757 0.0
C1140 C 0.85451 0.10334 0.79563 0.0
C1141 C 0.79778 0.1181 0.81302 0.0
C1142 C 0.83881 0.12139 0.90604 0.0
C1143 C 0.85297 0.13797 0.91813 0.0
C1144 C 0.86706 0.15608 0.90919 0.0
C1145 C 0.86699 0.15794 0.88749 0.0
C1146 C 0.88038 0.17626 0.878 0.0
C1147 C 0.88053 0.17779 0.85661 0.0
C1148 C 0.86731 0.16105 0.84388 0.0
C1149 C 0.8676 0.16233 0.82212 0.0
C1150 C 0.85395 0.14553 0.80996 0.0
C1151 C 0.84002 0.12725 0.81884 0.0
C1152 C 0.83965 0.12555 0.84059 0.0
C1153 C 0.82603 0.10733 0.85012 0.0
C1154 C 0.82555 0.10597 0.87156 0.0
C1155 C 0.839 0.12262 0.88426 0.0
C1156 C 0.85311 0.14103 0.87497 0.0
C1157 C 0.85334 0.14255 0.85313 0.0
C1158 C 0.94838 0.25425 0.75631 0.0
C1159 C 0.94065 0.23837 0.77241 0.0
O1160 O 0.78808 0.05791 0.95794 0.0
O1161 O 0.78812 0.06568 0.76118 0.0
O1162 O 0.92056 0.23143 0.77673 0.0
O1163 O 0.92415 0.22057 0.96121 0.0
H1164 H 0.792 0.07889 0.98031 0.0
H1165 H 0.81163 0.06466 0.99172 0.0
H1166 H 0.79046 0.0394 0.99246 0.0
H1167 H 0.7919 0.05909 0.00961 0.0
H1168 H 0.78069 0.08652 0.94416 0.0
H1169 H 0.81902 0.06013 0.93967 0.0
H1170 H 0.81228 0.13358 0.92662 0.0
H1171 H 0.78575 0.11499 0.92476 0.0
H1172 H 0.80131 0.12076 0.9024 0.0
H1173 H 0.84761 0.07378 0.9187 0.0
H1174 H 0.86056 0.10132 0.92028 0.0
H1175 H 0.84687 0.08834 0.89705 0.0
H1176 H 0.95128 0.22009 0.96371 0.0
H1177 H 0.96506 0.24964 0.98269 0.0
H1178 H 0.94461 0.25204 0.98009 0.0
H1179 H 0.96846 0.27 0.94532 0.0
H1180 H 0.93163 0.19501 0.93872 0.0
H1181 H 0.88648 0.20984 0.95709 0.0
H1182 H 0.89736 0.14659 0.91479 0.0
H1183 H 0.92361 0.16559 0.91883 0.0
H1184 H 0.90954 0.16655 0.89661 0.0
H1185 H 0.85384 0.19401 0.94138 0.0
H1186 H 0.84468 0.16692 0.94081 0.0
H1187 H 0.85009 0.18043 0.91708 0.0
H1188 H 0.95038 0.24223 0.78671 0.0
H1189 H 0.93022 0.20482 0.79388 0.0
H1190 H 0.88421 0.22154 0.78578 0.0
H1191 H 0.90915 0.17055 0.83256 0.0
H1192 H 0.92452 0.17501 0.81033 0.0
H1193 H 0.89854 0.15476 0.8098 0.0
H1194 H 0.85286 0.20405 0.80208 0.0
H1195 H 0.85132 0.18852 0.82379 0.0
H1196 H 0.84353 0.17705 0.79848 0.0
H1197 H 0.7634 0.05205 0.77937 0.0
H1198 H 0.75663 0.01631 0.76793 0.0
H1199 H 0.78124 0.03235 0.77904 0.0
H1200 H 0.77792 0.02866 0.75159 0.0
H1201 H 0.8255 0.07618 0.76903 0.0
H1202 H 0.77747 0.08734 0.7851 0.0
H1203 H 0.85877 0.10438 0.81228 0.0
H1204 H 0.86495 0.11818 0.7887 0.0
H1205 H 0.85667 0.09128 0.78805 0.0
H1206 H 0.78276 0.11488 0.80678 0.0
H1207 H 0.80848 0.13472 0.812 0.0
H1208 H 0.79631 0.11423 0.8296 0.0
H1209 H 0.85302 0.13674 0.93481 0.0
H1210 H 0.89093 0.18964 0.88703 0.0
H1211 H 0.8912 0.19225 0.85017 0.0
H1212 H 0.85417 0.1467 0.79328 0.0
H1213 H 0.81551 0.09394 0.84109 0.0
H1214 H 0.81463 0.09165 0.87807 0.0
H1215 H 0.96014 0.26855 0.7646 0.0
H1216 H 0.93709 0.25973 0.75445 0.0
H1217 H 0.95518 0.24047 0.73249 0.0
C1218 C 0.78272 0.7002 0.97638 0.0
C1219 C 0.7689 0.69763 0.95746 0.0
C1220 C 0.78752 0.69086 0.93058 0.0
C1221 C 0.80247 0.71128 0.92788 0.0
C1222 C 0.81895 0.71614 0.91529 0.0
C1223 C 0.82077 0.70029 0.90545 0.0
C1224 C 0.80573 0.67973 0.90802 0.0
C1225 C 0.78916 0.67533 0.92034 0.0
C1226 C 0.83461 0.73826 0.91273 0.0
C1227 C 0.80734 0.66241 0.89805 0.0
C1228 C 0.97073 0.755 0.94956 0.0
C1229 C 0.95411 0.73298 0.95327 0.0
C1230 C 0.92717 0.72137 0.92628 0.0
C1231 C 0.91602 0.70491 0.91267 0.0
C1232 C 0.89831 0.70218 0.90277 0.0
C1233 C 0.89223 0.71701 0.90575 0.0
C1234 C 0.90342 0.73373 0.91963 0.0
C1235 C 0.92065 0.73557 0.93002 0.0
C1236 C 0.88632 0.68353 0.88896 0.0
C1237 C 0.89743 0.74983 0.92325 0.0
C1238 C 0.93045 0.74587 0.77244 0.0
C1239 C 0.92169 0.72634 0.7808 0.0
C1240 C 0.90374 0.71871 0.79181 0.0
C1241 C 0.89491 0.73124 0.79516 0.0
C1242 C 0.90393 0.75101 0.78682 0.0
C1243 C 0.92132 0.75784 0.7752 0.0
C1244 C 0.89415 0.69722 0.79962 0.0
C1245 C 0.89522 0.76498 0.79013 0.0
C1246 C 0.7427 0.67519 0.79281 0.0
C1247 C 0.74904 0.68619 0.77215 0.0
C1248 C 0.78364 0.69217 0.77314 0.0
C1249 C 0.79243 0.67972 0.77324 0.0
C1250 C 0.81097 0.68595 0.78362 0.0
C1251 C 0.82123 0.70545 0.79346 0.0
C1252 C 0.81303 0.71871 0.79211 0.0
C1253 C 0.79413 0.7118 0.7822 0.0
C1254 C 0.8193 0.67146 0.78455 0.0
C1255 C 0.82404 0.74001 0.8015 0.0
C1256 C 0.83891 0.70535 0.89325 0.0
C1257 C 0.85651 0.70892 0.904 0.0
C1258 C 0.87456 0.71522 0.8938 0.0
C1259 C 0.87529 0.71849 0.8723 0.0
C1260 C 0.89352 0.72632 0.8618 0.0
C1261 C 0.89391 0.72845 0.84049 0.0
C1262 C 0.87604 0.72257 0.82881 0.0
C1263 C 0.87609 0.72371 0.80701 0.0
C1264 C 0.85803 0.71807 0.79599 0.0
C1265 C 0.83988 0.71147 0.80612 0.0
C1266 C 0.83953 0.71019 0.82789 0.0
C1267 C 0.82152 0.70359 0.8386 0.0
C1268 C 0.82135 0.70245 0.86002 0.0
C1269 C 0.83902 0.70714 0.87152 0.0
C1270 C 0.85731 0.71376 0.86104 0.0
C1271 C 0.85763 0.71555 0.83923 0.0
C1272 C 0.98247 0.76971 0.7575 0.0
C1273 C 0.96337 0.75 0.76291 0.0
O1274 O 0.77156 0.68538 0.94311 0.0
O1275 O 0.76505 0.68475 0.76411 0.0
O1276 O 0.94715 0.75344 0.76085 0.0
O1277 O 0.9444 0.72321 0.93486 0.0
H1278 H 0.77304 0.71267 0.95083 0.0
H1279 H 0.79834 0.70519 0.9715 0.0
H1280 H 0.77709 0.68543 0.98429 0.0
H1281 H 0.78396 0.71189 0.98769 0.0
H1282 H 0.80159 0.72359 0.93559 0.0
H1283 H 0.77759 0.65963 0.92245 0.0
H1284 H 0.84908 0.74128 0.92027 0.0
H1285 H 0.83001 0.74885 0.91965 0.0
H1286 H 0.83739 0.74162 0.89609 0.0
H1287 H 0.795 0.64723 0.90254 0.0
H1288 H 0.82207 0.66361 0.90245 0.0
H1289 H 0.80678 0.66344 0.881 0.0
H1290 H 0.94256 0.7333 0.96321 0.0
H1291 H 0.97726 0.76323 0.9645 0.0
H1292 H 0.96448 0.7634 0.94097 0.0
H1293 H 0.98319 0.75549 0.94058 0.0
H1294 H 0.92116 0.694 0.91 0.0
H1295 H 0.9292 0.74839 0.94056 0.0
H1296 H 0.88975 0.68779 0.8726 0.0
H1297 H 0.86984 0.6772 0.8908 0.0
H1298 H 0.89016 0.67137 0.89228 0.0
H1299 H 0.90928 0.76331 0.93207 0.0
H1300 H 0.88335 0.74321 0.93211 0.0
H1301 H 0.89432 0.755 0.9083 0.0
H1302 H 0.96467 0.74704 0.77947 0.0
H1303 H 0.92852 0.71687 0.77826 0.0
H1304 H 0.92814 0.77282 0.76846 0.0
H1305 H 0.89669 0.6977 0.81659 0.0
H1306 H 0.9006 0.6883 0.79247 0.0
H1307 H 0.87758 0.6891 0.79643 0.0
H1308 H 0.90569 0.78083 0.78541 0.0
H1309 H 0.89168 0.7653 0.80663 0.0
H1310 H 0.88092 0.75914 0.78089 0.0
H1311 H 0.75438 0.70264 0.7749 0.0
H1312 H 0.72929 0.67552 0.79872 0.0
H1313 H 0.75517 0.68291 0.80454 0.0
H1314 H 0.73895 0.65902 0.79126 0.0
H1315 H 0.7843 0.66473 0.76585 0.0
H1316 H 0.78772 0.7218 0.78143 0.0
H1317 H 0.82233 0.66918 0.80088 0.0
H1318 H 0.83387 0.67814 0.77653 0.0
H1319 H 0.80882 0.65634 0.77723 0.0
H1320 H 0.8175 0.74952 0.79605 0.0
H1321 H 0.84027 0.74767 0.79772 0.0
H1322 H 0.82307 0.73916 0.81856 0.0
H1323 H 0.85612 0.70671 0.92055 0.0
H1324 H 0.90772 0.73085 0.86995 0.0
H1325 H 0.90839 0.73452 0.83327 0.0
H1326 H 0.85811 0.71892 0.77928 0.0
H1327 H 0.80732 0.69928 0.83057 0.0
H1328 H 0.80709 0.69745 0.86742 0.0
H1329 H 0.98142 0.77374 0.74125 0.0
H1330 H 0.99616 0.76816 0.75948 0.0
H1331 H 0.98427 0.78243 0.76779 0.0
C1332 C 0.89695 0.60784 0.40914 0.0
C1333 C 0.89942 0.62631 0.39682 0.0
C1334 C 0.87717 0.63605 0.41539 0.0
C1335 C 0.8771 0.6516 0.42722 0.0
C1336 C 0.85929 0.64921 0.43572 0.0
C1337 C 0.84117 0.63027 0.43313 0.0
C1338 C 0.84095 0.61466 0.42054 0.0
C1339 C 0.85884 0.6179 0.41138 0.0
C1340 C 0.86012 0.66692 0.44773 0.0
C1341 C 0.82193 0.59438 0.41706 0.0
C1342 C 0.71476 0.60866 0.36608 0.0
C1343 C 0.71078 0.61544 0.38724 0.0
C1344 C 0.74362 0.62845 0.40596 0.0
C1345 C 0.74232 0.60942 0.40936 0.0
C1346 C 0.75756 0.60815 0.42072 0.0
C1347 C 0.77431 0.6262 0.42886 0.0
C1348 C 0.77578 0.64536 0.4252 0.0
C1349 C 0.76039 0.64619 0.41376 0.0
C1350 C 0.75571 0.58754 0.42427 0.0
C1351 C 0.79347 0.66493 0.43361 0.0
C1352 C 0.74438 0.63489 0.56343 0.0
C1353 C 0.7453 0.61671 0.56424 0.0
C1354 C 0.75931 0.61417 0.55263 0.0
C1355 C 0.77306 0.63032 0.54038 0.0
C1356 C 0.77218 0.64868 0.53961 0.0
C1357 C 0.75746 0.65045 0.55072 0.0
C1358 C 0.75956 0.59428 0.55369 0.0
C1359 C 0.78702 0.66666 0.52746 0.0
C1360 C 0.92368 0.66282 0.56034 0.0
C1361 C 0.91078 0.66225 0.57856 0.0
C1362 C 0.87516 0.6422 0.56636 0.0
C1363 C 0.85766 0.6232 0.56741 0.0
C1364 C 0.83998 0.61889 0.55618 0.0
C1365 C 0.83975 0.63416 0.54386 0.0
C1366 C 0.85723 0.65365 0.54315 0.0
C1367 C 0.87485 0.65734 0.55407 0.0
C1368 C 0.82166 0.59794 0.55726 0.0
C1369 C 0.85747 0.67058 0.53064 0.0
C1370 C 0.82271 0.62676 0.44399 0.0
C1371 C 0.80689 0.62654 0.43239 0.0
C1372 C 0.78994 0.62509 0.44193 0.0
C1373 C 0.78877 0.62424 0.46368 0.0
C1374 C 0.77213 0.62324 0.4738 0.0
C1375 C 0.77181 0.6239 0.49526 0.0
C1376 C 0.78821 0.62585 0.5074 0.0
C1377 C 0.7889 0.62835 0.52915 0.0
C1378 C 0.80559 0.63037 0.54065 0.0
C1379 C 0.82155 0.6297 0.53108 0.0
C1380 C 0.82093 0.62686 0.50943 0.0
C1381 C 0.83649 0.62561 0.49936 0.0
C1382 C 0.83675 0.62482 0.47792 0.0
C1383 C 0.82151 0.62536 0.46575 0.0
C1384 C 0.80482 0.62481 0.47563 0.0
C1385 C 0.80453 0.62559 0.49751 0.0
C1386 C 0.71451 0.6386 0.60602 0.0
C1387 C 0.72293 0.62815 0.59314 0.0
O1388 O 0.89527 0.63925 0.40856 0.0
O1389 O 0.89181 0.64504 0.57734 0.0
O1390 O 0.73159 0.63822 0.57514 0.0
O1391 O 0.7293 0.63058 0.39516 0.0
H1392 H 0.88834 0.62093 0.38369 0.0
H1393 H 0.89788 0.59663 0.39861 0.0
H1394 H 0.88218 0.59992 0.41666 0.0
H1395 H 0.9089 0.61236 0.42135 0.0
H1396 H 0.89119 0.66573 0.42987 0.0
H1397 H 0.85839 0.60602 0.4015 0.0
H1398 H 0.84598 0.66762 0.44541 0.0
H1399 H 0.87306 0.6817 0.44317 0.0
H1400 H 0.8621 0.66509 0.46444 0.0
H1401 H 0.8249 0.5829 0.40939 0.0
H1402 H 0.81106 0.59651 0.40716 0.0
H1403 H 0.81465 0.58826 0.43198 0.0
H1404 H 0.70398 0.60229 0.39774 0.0
H1405 H 0.70226 0.59362 0.36075 0.0
H1406 H 0.72843 0.60695 0.36706 0.0
H1407 H 0.71739 0.62023 0.35424 0.0
H1408 H 0.72957 0.59555 0.40318 0.0
H1409 H 0.76128 0.66078 0.41097 0.0
H1410 H 0.76923 0.58734 0.41845 0.0
H1411 H 0.742 0.57494 0.41652 0.0
H1412 H 0.75514 0.58471 0.4411 0.0
H1413 H 0.79272 0.67864 0.42874 0.0
H1414 H 0.80781 0.6662 0.42829 0.0
H1415 H 0.79387 0.66472 0.45074 0.0
H1416 H 0.71246 0.61151 0.59033 0.0
H1417 H 0.73511 0.60444 0.57387 0.0
H1418 H 0.75668 0.66443 0.55024 0.0
H1419 H 0.76052 0.58886 0.53797 0.0
H1420 H 0.74594 0.58218 0.56109 0.0
H1421 H 0.7731 0.59672 0.56282 0.0
H1422 H 0.78698 0.68093 0.5319 0.0
H1423 H 0.78296 0.66357 0.51076 0.0
H1424 H 0.80259 0.66917 0.52978 0.0
H1425 H 0.90972 0.67629 0.57685 0.0
H1426 H 0.93936 0.6757 0.56256 0.0
H1427 H 0.91729 0.66527 0.54578 0.0
H1428 H 0.92421 0.6485 0.55822 0.0
H1429 H 0.85801 0.61161 0.57692 0.0
H1430 H 0.8882 0.67207 0.55271 0.0
H1431 H 0.81625 0.59142 0.54143 0.0
H1432 H 0.80928 0.59917 0.56468 0.0
H1433 H 0.82481 0.58727 0.56621 0.0
H1434 H 0.87054 0.68573 0.53505 0.0
H1435 H 0.84335 0.67124 0.53261 0.0
H1436 H 0.85852 0.66762 0.51402 0.0
H1437 H 0.80801 0.62805 0.41576 0.0
H1438 H 0.7593 0.62226 0.46525 0.0
H1439 H 0.75872 0.62331 0.5022 0.0
H1440 H 0.80641 0.63304 0.55723 0.0
H1441 H 0.84886 0.62563 0.50793 0.0
H1442 H 0.84927 0.62421 0.47101 0.0
H1443 H 0.69778 0.62777 0.60606 0.0
H1444 H 0.7134 0.65008 0.59588 0.0
H1445 H 0.73218 0.64673 0.63232 0.0
C1446 C 0.40701 0.30113 0.37454 0.0
C1447 C 0.39119 0.28342 0.38694 0.0
C1448 C 0.3954 0.26481 0.41561 0.0
C1449 C 0.37539 0.24964 0.41853 0.0
C1450 C 0.37104 0.23189 0.42921 0.0
C1451 C 0.38708 0.22941 0.4374 0.0
C1452 C 0.40728 0.24493 0.43491 0.0
C1453 C 0.41117 0.26256 0.42419 0.0
C1454 C 0.34929 0.21584 0.43194 0.0
C1455 C 0.4247 0.24289 0.44365 0.0
C1456 C 0.34567 0.07485 0.37839 0.0
C1457 C 0.34983 0.09594 0.3839 0.0
C1458 C 0.36552 0.12231 0.41099 0.0
C1459 C 0.38122 0.13148 0.4258 0.0
C1460 C 0.38496 0.1493 0.43669 0.0
C1461 C 0.37188 0.1575 0.43349 0.0
C1462 C 0.3561 0.14842 0.41832 0.0
C1463 C 0.35344 0.13131 0.4069 0.0
C1464 C 0.40272 0.15906 0.45183 0.0
C1465 C 0.34169 0.15647 0.41434 0.0
C1466 C 0.34528 0.11306 0.56496 0.0
C1467 C 0.36463 0.12572 0.55732 0.0
C1468 C 0.36897 0.1435 0.54677 0.0
C1469 C 0.35344 0.14831 0.54296 0.0
C1470 C 0.33379 0.13532 0.55008 0.0
C1471 C 0.33003 0.11792 0.56117 0.0
C1472 C 0.39029 0.15723 0.53994 0.0
C1473 C 0.31683 0.13986 0.54608 0.0
C1474 C 0.40095 0.30224 0.58089 0.0
C1475 C 0.37903 0.28517 0.58373 0.0
C1476 C 0.37735 0.25285 0.57512 0.0
C1477 C 0.39133 0.24598 0.57483 0.0
C1478 C 0.38869 0.2302 0.56119 0.0
C1479 C 0.3712 0.22061 0.54809 0.0
C1480 C 0.35666 0.22712 0.5488 0.0
C1481 C 0.36001 0.24335 0.56216 0.0
C1482 C 0.40454 0.22369 0.56092 0.0
C1483 C 0.3374 0.2167 0.53576 0.0
C1484 C 0.38253 0.21063 0.44871 0.0
C1485 C 0.38071 0.19386 0.43738 0.0
C1486 C 0.3741 0.17493 0.44654 0.0
C1487 C 0.36909 0.17266 0.46763 0.0
C1488 C 0.36099 0.15357 0.47706 0.0
C1489 C 0.35705 0.15168 0.498 0.0
C1490 C 0.36093 0.16876 0.51033 0.0
C1491 C 0.35799 0.16717 0.53184 0.0
C1492 C 0.36115 0.18424 0.54352 0.0
C1493 C 0.36768 0.20314 0.53442 0.0
C1494 C 0.37131 0.20519 0.513 0.0
C1495 C 0.37833 0.22405 0.50335 0.0
C1496 C 0.3818 0.22584 0.48226 0.0
C1497 C 0.37886 0.20895 0.4701 0.0
C1498 C 0.37203 0.18986 0.47956 0.0
C1499 C 0.36799 0.18792 0.50096 0.0
C1500 C 0.34793 0.07566 0.59969 0.0
C1501 C 0.35459 0.0901 0.58227 0.0
O1502 O 0.39998 0.28216 0.40543 0.0
O1503 O 0.38045 0.26806 0.5887 0.0
O1504 O 0.34097 0.09648 0.57653 0.0
O1505 O 0.3623 0.10476 0.40125 0.0
H1506 H 0.38797 0.26999 0.37717 0.0
H1507 H 0.41974 0.29838 0.37116 0.0
H1508 H 0.41331 0.31595 0.38307 0.0
H1509 H 0.40022 0.30227 0.35961 0.0
H1510 H 0.36315 0.25183 0.413 0.0
H1511 H 0.42658 0.27457 0.4222 0.0
H1512 H 0.34654 0.20099 0.42535 0.0
H1513 H 0.33856 0.21992 0.42436 0.0
H1514 H 0.34609 0.21375 0.44865 0.0
H1515 H 0.43956 0.25632 0.4404 0.0
H1516 H 0.42417 0.22897 0.437 0.0
H1517 H 0.42335 0.24106 0.46063 0.0
H1518 H 0.35465 0.10675 0.37083 0.0
H1519 H 0.35323 0.07633 0.36328 0.0
H1520 H 0.31502 0.05761 0.38135 0.0
H1521 H 0.35674 0.07218 0.38777 0.0
H1522 H 0.39068 0.1247 0.42872 0.0
H1523 H 0.34153 0.12486 0.39513 0.0
H1524 H 0.40982 0.17595 0.45199 0.0
H1525 H 0.41436 0.15479 0.44813 0.0
H1526 H 0.39747 0.15373 0.46759 0.0
H1527 H 0.32819 0.14558 0.40492 0.0
H1528 H 0.34956 0.17096 0.40589 0.0
H1529 H 0.33656 0.15973 0.42912 0.0
H1530 H 0.36012 0.08531 0.56864 0.0
H1531 H 0.37656 0.12205 0.55979 0.0
H1532 H 0.31515 0.10808 0.56705 0.0
H1533 H 0.39081 0.15591 0.52292 0.0
H1534 H 0.40119 0.15317 0.54709 0.0
H1535 H 0.39526 0.17344 0.54396 0.0
H1536 H 0.30198 0.1271 0.55055 0.0
H1537 H 0.31598 0.14295 0.52947 0.0
H1538 H 0.31986 0.15378 0.55505 0.0
H1539 H 0.37063 0.28259 0.56876 0.0
H1540 H 0.40255 0.31737 0.57781 0.0
H1541 H 0.40736 0.29815 0.5676 0.0
H1542 H 0.41033 0.30371 0.59477 0.0
H1543 H 0.40452 0.25326 0.58513 0.0
H1544 H 0.34881 0.24822 0.56294 0.0
H1545 H 0.40853 0.22243 0.54478 0.0
H1546 H 0.39841 0.20841 0.56781 0.0
H1547 H 0.41849 0.23453 0.56979 0.0
H1548 H 0.32669 0.22213 0.53976 0.0
H1549 H 0.32983 0.19992 0.53771 0.0
H1550 H 0.34101 0.2197 0.51922 0.0
H1551 H 0.38403 0.19544 0.42108 0.0
H1552 H 0.35769 0.13986 0.46839 0.0
H1553 H 0.35103 0.13665 0.50445 0.0
H1554 H 0.35895 0.1829 0.56005 0.0
H1555 H 0.38117 0.23764 0.512 0.0
H1556 H 0.3871 0.24071 0.47565 0.0
H1557 H 0.36928 0.09174 0.6228 0.0
H1558 H 0.34569 0.06087 0.59285 0.0
H1559 H 0.33133 0.07007 0.60146 0.0
C1560 C 0.87436 0.2545 0.35965 0.0
C1561 C 0.88661 0.26496 0.37972 0.0
C1562 C 0.8698 0.23757 0.40498 0.0
C1563 C 0.85343 0.24077 0.4088 0.0
C1564 C 0.8382 0.22814 0.42217 0.0
C1565 C 0.83903 0.21163 0.43148 0.0
C1566 C 0.8553 0.20817 0.42738 0.0
C1567 C 0.87062 0.22141 0.41445 0.0
C1568 C 0.82114 0.23238 0.42622 0.0
C1569 C 0.8564 0.19033 0.4364 0.0
C1570 C 0.68392 0.09954 0.38763 0.0
C1571 C 0.7059 0.10513 0.39236 0.0
C1572 C 0.73036 0.12714 0.41864 0.0
C1573 C 0.74637 0.123 0.41777 0.0
C1574 C 0.76552 0.13694 0.42621 0.0
C1575 C 0.76862 0.1554 0.4355 0.0
C1576 C 0.75261 0.15988 0.43568 0.0
C1577 C 0.73354 0.14545 0.4276 0.0
C1578 C 0.7822 0.13162 0.4259 0.0
C1579 C 0.75547 0.17965 0.44492 0.0
C1580 C 0.7446 0.12734 0.56694 0.0
C1581 C 0.75871 0.12195 0.55994 0.0
C1582 C 0.77602 0.13617 0.54981 0.0
C1583 C 0.77919 0.1561 0.54661 0.0
C1584 C 0.76545 0.16179 0.55453 0.0
C1585 C 0.74843 0.14735 0.56481 0.0
C1586 C 0.7907 0.12979 0.54209 0.0
C1587 C 0.76842 0.18294 0.55157 0.0
C1588 C 0.91471 0.29159 0.57289 0.0
C1589 C 0.90389 0.27451 0.58855 0.0
C1590 C 0.88283 0.24347 0.56703 0.0
C1591 C 0.88079 0.22474 0.56073 0.0
C1592 C 0.86376 0.21039 0.54921 0.0
C1593 C 0.84836 0.21498 0.54382 0.0
C1594 C 0.8504 0.23403 0.54987 0.0
C1595 C 0.86766 0.24815 0.56134 0.0
C1596 C 0.86214 0.19029 0.54288 0.0
C1597 C 0.83427 0.2394 0.54426 0.0
C1598 C 0.82245 0.19751 0.44479 0.0
C1599 C 0.80425 0.18315 0.43509 0.0
C1600 C 0.78802 0.16929 0.44654 0.0
C1601 C 0.79006 0.1693 0.46828 0.0
C1602 C 0.77423 0.15508 0.48018 0.0
C1603 C 0.77614 0.15545 0.50157 0.0
C1604 C 0.794 0.16998 0.51194 0.0
C1605 C 0.79599 0.17052 0.53372 0.0
C1606 C 0.81387 0.18528 0.54356 0.0
C1607 C 0.82995 0.19965 0.53222 0.0
C1608 C 0.82828 0.19929 0.5104 0.0
C1609 C 0.84412 0.21349 0.49848 0.0
C1610 C 0.84225 0.21302 0.47701 0.0
C1611 C 0.82451 0.19826 0.46662 0.0
C1612 C 0.80829 0.18394 0.47836 0.0
C1613 C 0.81022 0.18437 0.50025 0.0
C1614 C 0.69401 0.08703 0.56685 0.0
C1615 C 0.71599 0.09295 0.5721 0.0
O1616 O 0.88504 0.24943 0.39226 0.0
O1617 O 0.89964 0.25639 0.57848 0.0
O1618 O 0.72727 0.11382 0.576 0.0
O1619 O 0.71142 0.11315 0.41223 0.0
H1620 H 0.88049 0.27392 0.38737 0.0
H1621 H 0.85913 0.24194 0.36339 0.0
H1622 H 0.88207 0.24781 0.35068 0.0
H1623 H 0.87186 0.26492 0.3497 0.0
H1624 H 0.85229 0.25299 0.40146 0.0
H1625 H 0.88323 0.21899 0.41136 0.0
H1626 H 0.80707 0.22035 0.41844 0.0
H1627 H 0.82422 0.24744 0.42039 0.0
H1628 H 0.81841 0.23195 0.44303 0.0
H1629 H 0.86853 0.18822 0.42954 0.0
H1630 H 0.84175 0.17604 0.4339 0.0
H1631 H 0.85944 0.19285 0.4533 0.0
H1632 H 0.71445 0.11756 0.38148 0.0
H1633 H 0.67949 0.09349 0.37151 0.0
H1634 H 0.68231 0.11337 0.38921 0.0
H1635 H 0.67328 0.08796 0.39823 0.0
H1636 H 0.74374 0.10857 0.41127 0.0
H1637 H 0.72098 0.14838 0.42826 0.0
H1638 H 0.78762 0.13158 0.44194 0.0
H1639 H 0.79517 0.1434 0.41743 0.0
H1640 H 0.77724 0.11647 0.41844 0.0
H1641 H 0.74265 0.18221 0.44087 0.0
H1642 H 0.76966 0.19275 0.43954 0.0
H1643 H 0.75674 0.17933 0.46199 0.0
H1644 H 0.72102 0.08935 0.5576 0.0
H1645 H 0.75628 0.10673 0.5624 0.0
H1646 H 0.73762 0.15144 0.57065 0.0
H1647 H 0.79009 0.12922 0.52495 0.0
H1648 H 0.78727 0.11455 0.54769 0.0
H1649 H 0.80635 0.1412 0.54713 0.0
H1650 H 0.75621 0.18488 0.55846 0.0
H1651 H 0.76891 0.18613 0.53484 0.0
H1652 H 0.78311 0.19443 0.55877 0.0
H1653 H 0.88977 0.27397 0.59353 0.0
H1654 H 0.91596 0.30626 0.5779 0.0
H1655 H 0.90613 0.2873 0.5579 0.0
H1656 H 0.93007 0.29398 0.57011 0.0
H1657 H 0.89261 0.22131 0.56507 0.0
H1658 H 0.86916 0.26276 0.56566 0.0
H1659 H 0.86005 0.18813 0.52584 0.0
H1660 H 0.84867 0.17758 0.54986 0.0
H1661 H 0.87571 0.18931 0.54773 0.0
H1662 H 0.83799 0.25478 0.55025 0.0
H1663 H 0.81964 0.22792 0.55058 0.0
H1664 H 0.83224 0.23897 0.52721 0.0
H1665 H 0.80261 0.18288 0.41839 0.0
H1666 H 0.76014 0.14346 0.47312 0.0
H1667 H 0.76337 0.14419 0.50986 0.0
H1668 H 0.81525 0.18568 0.56029 0.0
H1669 H 0.85814 0.22515 0.50563 0.0
H1670 H 0.85489 0.2244 0.46866 0.0
H1671 H 0.68523 0.07058 0.56231 0.0
H1672 H 0.69347 0.09605 0.55363 0.0
H1673 H 0.68653 0.08978 0.58002 0.0
C1674 C 0.02367 0.43152 0.30565 0.0
C1675 C 0.00577 0.42343 0.29016 0.0
C1676 C 0.00482 0.44365 0.26126 0.0
C1677 C 0.98423 0.43782 0.26151 0.0
C1678 C 0.97681 0.44893 0.25071 0.0
C1679 C 0.99022 0.46604 0.23934 0.0
C1680 C 0.01086 0.47158 0.23863 0.0
C1681 C 0.01783 0.46014 0.24946 0.0
C1682 C 0.95466 0.44244 0.25141 0.0
C1683 C 0.02559 0.4897 0.2266 0.0
C1684 C 0.95779 0.58249 0.27559 0.0
C1685 C 0.97666 0.58231 0.28435 0.0
C1686 C 0.98457 0.56149 0.26054 0.0
C1687 C 0.99953 0.56253 0.24772 0.0
C1688 C 0.99773 0.545 0.23798 0.0
C1689 C 0.98021 0.52593 0.2408 0.0
C1690 C 0.96504 0.52466 0.25394 0.0
C1691 C 0.9674 0.54246 0.26379 0.0
C1692 C 0.01445 0.54694 0.22441 0.0
C1693 C 0.94617 0.50455 0.25719 0.0
C1694 C 0.94995 0.54414 0.11615 0.0
C1695 C 0.96953 0.54728 0.1199 0.0
C1696 C 0.97253 0.53168 0.12774 0.0
C1697 C 0.9556 0.51257 0.13202 0.0
C1698 C 0.9359 0.50901 0.12719 0.0
C1699 C 0.93335 0.52484 0.11906 0.0
C1700 C 0.99381 0.53581 0.13203 0.0
C1701 C 0.91757 0.48874 0.13134 0.0
C1702 C 0.9586 0.37626 0.1083 0.0
C1703 C 0.96356 0.39109 0.09028 0.0
C1704 C 0.97289 0.42401 0.10797 0.0
C1705 C 0.98914 0.44339 0.11265 0.0
C1706 C 0.98643 0.45812 0.12329 0.0
C1707 C 0.9669 0.45321 0.12959 0.0
C1708 C 0.95027 0.43372 0.12462 0.0
C1709 C 0.9534 0.41928 0.11381 0.0
C1710 C 0.00452 0.4788 0.12814 0.0
C1711 C 0.92929 0.42805 0.13121 0.0
C1712 C 0.98279 0.47829 0.22827 0.0
C1713 C 0.98294 0.49455 0.23905 0.0
C1714 C 0.97748 0.50761 0.2292 0.0
C1715 C 0.97137 0.50423 0.20811 0.0
C1716 C 0.96549 0.5169 0.19784 0.0
C1717 C 0.96083 0.51434 0.17678 0.0
C1718 C 0.9619 0.49903 0.16516 0.0
C1719 C 0.95856 0.49724 0.1435 0.0
C1720 C 0.95965 0.48181 0.13238 0.0
C1721 C 0.96421 0.46812 0.14238 0.0
C1722 C 0.96773 0.46978 0.16404 0.0
C1723 C 0.97256 0.45642 0.17456 0.0
C1724 C 0.97712 0.45891 0.19567 0.0
C1725 C 0.97706 0.47488 0.20706 0.0
C1726 C 0.97152 0.48804 0.19692 0.0
C1727 C 0.96681 0.48546 0.1754 0.0
C1728 C 0.94317 0.58563 0.12451 0.0
C1729 C 0.95792 0.57977 0.11491 0.0
O1730 O 0.01268 0.43364 0.27191 0.0
O1731 O 0.97697 0.41043 0.09821 0.0
O1732 O 0.9467 0.55928 0.10911 0.0
O1733 O 0.98733 0.57932 0.26895 0.0
H1734 H 0.99501 0.42753 0.29713 0.0
H1735 H 0.03025 0.44826 0.30803 0.0
H1736 H 0.03563 0.42851 0.29988 0.0
H1737 H 0.01872 0.42417 0.32082 0.0
H1738 H 0.97391 0.42453 0.26994 0.0
H1739 H 0.03363 0.46429 0.24915 0.0
H1740 H 0.95283 0.45495 0.25836 0.0
H1741 H 0.94607 0.42846 0.26052 0.0
H1742 H 0.94803 0.43952 0.23547 0.0
H1743 H 0.04123 0.49222 0.22795 0.0
H1744 H 0.02561 0.50369 0.23224 0.0
H1745 H 0.02081 0.4874 0.21003 0.0
H1746 H 0.97043 0.56912 0.29467 0.0
H1747 H 0.94987 0.58535 0.28831 0.0
H1748 H 0.94715 0.56745 0.2683 0.0
H1749 H 0.96121 0.59415 0.26377 0.0
H1750 H 0.01272 0.57727 0.24533 0.0
H1751 H 0.95561 0.54135 0.27361 0.0
H1752 H 0.01868 0.53518 0.22829 0.0
H1753 H 0.02814 0.56226 0.226 0.0
H1754 H 0.0091 0.54437 0.20801 0.0
H1755 H 0.93549 0.50616 0.26744 0.0
H1756 H 0.9503 0.49364 0.26412 0.0
H1757 H 0.93839 0.4979 0.24208 0.0
H1758 H 0.96907 0.58163 0.12722 0.0
H1759 H 0.98248 0.5619 0.11664 0.0
H1760 H 0.91832 0.52243 0.11562 0.0
H1761 H 0.99673 0.53666 0.14897 0.0
H1762 H 0.00527 0.55037 0.12535 0.0
H1763 H 0.99572 0.52315 0.12564 0.0
H1764 H 0.9033 0.48818 0.12617 0.0
H1765 H 0.91693 0.48581 0.14814 0.0
H1766 H 0.91876 0.47629 0.1233 0.0
H1767 H 0.94962 0.3906 0.08402 0.0
H1768 H 0.94565 0.36093 0.10463 0.0
H1769 H 0.95445 0.38211 0.12209 0.0
H1770 H 0.97197 0.37471 0.11266 0.0
H1771 H 0.0041 0.44689 0.10802 0.0
H1772 H 0.94065 0.40431 0.11039 0.0
H1773 H 0.00723 0.48094 0.14512 0.0
H1774 H 0.00155 0.49101 0.12262 0.0
H1775 H 0.01844 0.48067 0.12096 0.0
H1776 H 0.91783 0.4124 0.12587 0.0
H1777 H 0.92497 0.43909 0.12496 0.0
H1778 H 0.92909 0.42898 0.14831 0.0
H1779 H 0.98797 0.49746 0.25514 0.0
H1780 H 0.96466 0.52911 0.20591 0.0
H1781 H 0.95664 0.52474 0.16971 0.0
H1782 H 0.95753 0.48082 0.11572 0.0
H1783 H 0.9731 0.44401 0.16656 0.0
H1784 H 0.98097 0.44833 0.2029 0.0
H1785 H 0.9317 0.58426 0.11275 0.0
H1786 H 0.95107 0.60146 0.13097 0.0
H1787 H 0.93524 0.57525 0.13733 0.0
C1788 C 0.45937 0.39915 0.31802 0.0
C1789 C 0.44618 0.40171 0.30134 0.0
C1790 C 0.46337 0.41079 0.2689 0.0
C1791 C 0.45935 0.42541 0.26028 0.0
C1792 C 0.47343 0.44064 0.24774 0.0
C1793 C 0.49184 0.44108 0.24364 0.0
C1794 C 0.49545 0.42567 0.25151 0.0
C1795 C 0.48104 0.41057 0.26398 0.0
C1796 C 0.46886 0.4566 0.23935 0.0
C1797 C 0.51476 0.42551 0.2472 0.0
C1798 C 0.59752 0.59375 0.30774 0.0
C1799 C 0.5809 0.57325 0.30078 0.0
C1800 C 0.57401 0.54583 0.27596 0.0
C1801 C 0.58218 0.53565 0.26506 0.0
C1802 C 0.56982 0.5181 0.25291 0.0
C1803 C 0.54884 0.51118 0.25088 0.0
C1804 C 0.54043 0.5213 0.26205 0.0
C1805 C 0.553 0.53818 0.27481 0.0
C1806 C 0.57928 0.5072 0.24209 0.0
C1807 C 0.51817 0.51453 0.26036 0.0
C1808 C 0.57798 0.5561 0.11877 0.0
C1809 C 0.5844 0.54285 0.1267 0.0
C1810 C 0.57092 0.52498 0.13672 0.0
C1811 C 0.55078 0.52056 0.13946 0.0
C1812 C 0.54442 0.53415 0.13199 0.0
C1813 C 0.5581 0.55167 0.12161 0.0
C1814 C 0.57817 0.51069 0.14416 0.0
C1815 C 0.52315 0.5301 0.13487 0.0
C1816 C 0.44035 0.37097 0.09483 0.0
C1817 C 0.4363 0.38903 0.09288 0.0
C1818 C 0.46742 0.41971 0.10314 0.0
C1819 C 0.48769 0.42478 0.10406 0.0
C1820 C 0.50128 0.43939 0.11849 0.0
C1821 C 0.49451 0.4498 0.13165 0.0
C1822 C 0.47406 0.44514 0.13026 0.0
C1823 C 0.46065 0.42981 0.11632 0.0
C1824 C 0.52289 0.44378 0.11951 0.0
C1825 C 0.46638 0.4566 0.1431 0.0
C1826 C 0.50799 0.45881 0.23295 0.0
C1827 C 0.52191 0.47531 0.24532 0.0
C1828 C 0.5357 0.49378 0.23667 0.0
C1829 C 0.53581 0.49589 0.215 0.0
C1830 C 0.54865 0.51461 0.20582 0.0
C1831 C 0.54883 0.51649 0.1845 0.0
C1832 C 0.53606 0.49979 0.17151 0.0
C1833 C 0.53628 0.50155 0.1498 0.0
C1834 C 0.5227 0.48494 0.13738 0.0
C1835 C 0.50903 0.46635 0.14596 0.0
C1836 C 0.50905 0.46407 0.16763 0.0
C1837 C 0.49591 0.44546 0.17684 0.0
C1838 C 0.49551 0.44367 0.19824 0.0
C1839 C 0.50855 0.46029 0.2112 0.0
C1840 C 0.52242 0.47897 0.20222 0.0
C1841 C 0.52255 0.48092 0.18043 0.0
C1842 C 0.61736 0.594 0.08559 0.0
C1843 C 0.61005 0.57925 0.1028 0.0
O1844 O 0.45031 0.39683 0.28199 0.0
O1845 O 0.45485 0.40571 0.08873 0.0
O1846 O 0.59021 0.57288 0.10782 0.0
O1847 O 0.58679 0.56305 0.28706 0.0
H1848 H 0.4515 0.41826 0.30252 0.0
H1849 H 0.47554 0.41025 0.31558 0.0
H1850 H 0.45774 0.3837 0.31773 0.0
H1851 H 0.45549 0.40227 0.33358 0.0
H1852 H 0.44525 0.42495 0.2635 0.0
H1853 H 0.4838 0.39894 0.27048 0.0
H1854 H 0.48049 0.47196 0.24518 0.0
H1855 H 0.45376 0.45399 0.2438 0.0
H1856 H 0.46945 0.4566 0.22225 0.0
H1857 H 0.51446 0.41144 0.2527 0.0
H1858 H 0.52765 0.43894 0.25504 0.0
H1859 H 0.51748 0.4268 0.23037 0.0
H1860 H 0.57185 0.56312 0.31343 0.0
H1861 H 0.59997 0.59226 0.32467 0.0
H1862 H 0.58798 0.61309 0.29696 0.0
H1863 H 0.61209 0.5947 0.30295 0.0
H1864 H 0.59834 0.54146 0.26618 0.0
H1865 H 0.54626 0.54551 0.28349 0.0
H1866 H 0.5695 0.49039 0.24287 0.0
H1867 H 0.59442 0.51152 0.24889 0.0
H1868 H 0.58109 0.51128 0.22557 0.0
H1869 H 0.5147 0.52605 0.26709 0.0
H1870 H 0.50956 0.5001 0.26875 0.0
H1871 H 0.51277 0.51158 0.24396 0.0
H1872 H 0.6203 0.58381 0.11676 0.0
H1873 H 0.59982 0.54619 0.1249 0.0
H1874 H 0.55327 0.56196 0.11549 0.0
H1875 H 0.57841 0.51063 0.16129 0.0
H1876 H 0.59357 0.51517 0.1389 0.0
H1877 H 0.56763 0.49485 0.13853 0.0
H1878 H 0.5212 0.54316 0.13012 0.0
H1879 H 0.51907 0.52685 0.15129 0.0
H1880 H 0.51246 0.5164 0.1255 0.0
H1881 H 0.43085 0.3913 0.10794 0.0
H1882 H 0.42711 0.35652 0.09925 0.0
H1883 H 0.45229 0.37468 0.10695 0.0
H1884 H 0.44592 0.36834 0.0801 0.0
H1885 H 0.49277 0.41699 0.09364 0.0
H1886 H 0.44502 0.42624 0.11519 0.0
H1887 H 0.52812 0.44466 0.13581 0.0
H1888 H 0.53272 0.45876 0.11251 0.0
H1889 H 0.5248 0.43196 0.11105 0.0
H1890 H 0.45145 0.454 0.13727 0.0
H1891 H 0.47723 0.47325 0.14329 0.0
H1892 H 0.46471 0.4514 0.15926 0.0
H1893 H 0.52145 0.47402 0.26199 0.0
H1894 H 0.55872 0.52807 0.21499 0.0
H1895 H 0.55907 0.53126 0.17833 0.0
H1896 H 0.52271 0.48654 0.12075 0.0
H1897 H 0.48566 0.43212 0.16761 0.0
H1898 H 0.48493 0.42908 0.20453 0.0
H1899 H 0.62277 0.57832 0.06267 0.0
H1900 H 0.62964 0.60867 0.09281 0.0
H1901 H 0.60624 0.59966 0.08352 0.0
C1902 C 0.41076 0.98279 0.29616 0.0
C1903 C 0.41031 0.00165 0.28785 0.0
C1904 C 0.43152 0.00705 0.25879 0.0
C1905 C 0.44896 0.02612 0.26074 0.0
C1906 C 0.46705 0.02945 0.25203 0.0
C1907 C 0.46766 0.01316 0.24152 0.0
C1908 C 0.45003 0.99372 0.23994 0.0
C1909 C 0.43203 0.99105 0.24824 0.0
C1910 C 0.48547 0.05037 0.25402 0.0
C1911 C 0.45016 0.97576 0.22954 0.0
C1912 C 0.60983 0.01209 0.28828 0.0
C1913 C 0.59718 0.01762 0.27501 0.0
C1914 C 0.56593 0.01808 0.27519 0.0
C1915 C 0.55255 0.00092 0.26323 0.0
C1916 C 0.53679 0.00087 0.25159 0.0
C1917 C 0.53478 0.0186 0.2516 0.0
C1918 C 0.54781 0.03563 0.2644 0.0
C1919 C 0.56312 0.03503 0.27631 0.0
C1920 C 0.52267 0.98206 0.23887 0.0
C1921 C 0.54596 0.05468 0.265 0.0
C1922 C 0.5857 0.03319 0.12443 0.0
C1923 C 0.56953 0.01391 0.12903 0.0
C1924 C 0.55194 0.012 0.13772 0.0
C1925 C 0.55038 0.0297 0.14166 0.0
C1926 C 0.56643 0.04907 0.13654 0.0
C1927 C 0.58383 0.05053 0.12784 0.0
C1928 C 0.53499 0.99106 0.14265 0.0
C1929 C 0.56523 0.06823 0.14042 0.0
C1930 C 0.43261 0.98602 0.0614 0.0
C1931 C 0.42037 0.9881 0.07926 0.0
C1932 C 0.44851 0.00984 0.10334 0.0
C1933 C 0.45331 0.99461 0.10863 0.0
C1934 C 0.46936 0.99882 0.12246 0.0
C1935 C 0.48126 0.01879 0.13089 0.0
C1936 C 0.47675 0.03427 0.12539 0.0
C1937 C 0.46024 0.0295 0.11189 0.0
C1938 C 0.47366 0.98186 0.12796 0.0
C1939 C 0.48932 0.05581 0.13382 0.0
C1940 C 0.48667 0.01651 0.23211 0.0
C1941 C 0.50169 0.0167 0.24508 0.0
C1942 C 0.5199 0.01971 0.23724 0.0
C1943 C 0.52343 0.02281 0.21588 0.0
C1944 C 0.54183 0.02651 0.20756 0.0
C1945 C 0.54478 0.0285 0.1864 0.0
C1946 C 0.52946 0.02689 0.17273 0.0
C1947 C 0.53195 0.0279 0.15111 0.0
C1948 C 0.5163 0.02608 0.13796 0.0
C1949 C 0.49809 0.02315 0.14579 0.0
C1950 C 0.49544 0.02235 0.16737 0.0
C1951 C 0.4774 0.0196 0.17578 0.0
C1952 C 0.47472 0.0183 0.197 0.0
C1953 C 0.48969 0.01897 0.2106 0.0
C1954 C 0.50811 0.02203 0.20247 0.0
C1955 C 0.51108 0.02396 0.18086 0.0
C1956 C 0.63317 0.0375 0.12754 0.0
C1957 C 0.61171 0.02344 0.1188 0.0
O1958 O 0.41403 0.00391 0.26695 0.0
O1959 O 0.43306 0.00632 0.08984 0.0
O1960 O 0.6029 0.03558 0.11584 0.0
O1961 O 0.58192 0.01864 0.28531 0.0
H1962 H 0.42297 0.01473 0.29631 0.0
H1963 H 0.42619 0.98483 0.29503 0.0
H1964 H 0.40012 0.9686 0.28749 0.0
H1965 H 0.40684 0.98086 0.31272 0.0
H1966 H 0.44829 0.0384 0.26889 0.0
H1967 H 0.41836 0.97635 0.24691 0.0
H1968 H 0.49696 0.04967 0.26427 0.0
H1969 H 0.48193 0.0619 0.26057 0.0
H1970 H 0.49224 0.05548 0.23869 0.0
H1971 H 0.43637 0.96111 0.23274 0.0
H1972 H 0.46363 0.97476 0.23474 0.0
H1973 H 0.45094 0.9778 0.21259 0.0
H1974 H 0.59206 0.0091 0.25988 0.0
H1975 H 0.60715 0.99699 0.28183 0.0
H1976 H 0.60123 0.00557 0.30277 0.0
H1977 H 0.63782 0.03807 0.28851 0.0
H1978 H 0.55462 0.98768 0.26288 0.0
H1979 H 0.57348 0.04809 0.28586 0.0
H1980 H 0.52646 0.98483 0.22234 0.0
H1981 H 0.50678 0.97858 0.24036 0.0
H1982 H 0.52384 0.96851 0.24352 0.0
H1983 H 0.55817 0.0671 0.27463 0.0
H1984 H 0.53119 0.05107 0.27141 0.0
H1985 H 0.54641 0.06025 0.24911 0.0
H1986 H 0.60345 0.0122 0.13079 0.0
H1987 H 0.57039 0.00029 0.1255 0.0
H1988 H 0.59621 0.0653 0.12387 0.0
H1989 H 0.53228 0.9902 0.15948 0.0
H1990 H 0.53828 0.97875 0.13813 0.0
H1991 H 0.52085 0.98827 0.13452 0.0
H1992 H 0.5792 0.0822 0.13604 0.0
H1993 H 0.5626 0.06955 0.15702 0.0
H1994 H 0.55221 0.06733 0.13145 0.0
H1995 H 0.41564 0.97512 0.08988 0.0
H1996 H 0.42797 0.98903 0.04609 0.0
H1997 H 0.43108 0.97059 0.06101 0.0
H1998 H 0.44903 0.99694 0.06344 0.0
H1999 H 0.4447 0.97935 0.10204 0.0
H2000 H 0.45651 0.04119 0.10785 0.0
H2001 H 0.47526 0.98121 0.14497 0.0
H2002 H 0.48815 0.98496 0.12119 0.0
H2003 H 0.46162 0.9667 0.12207 0.0
H2004 H 0.48507 0.0665 0.12652 0.0
H2005 H 0.50558 0.06133 0.13132 0.0
H2006 H 0.48735 0.05609 0.15073 0.0
H2007 H 0.49908 0.01426 0.26147 0.0
H2008 H 0.55414 0.02775 0.21729 0.0
H2009 H 0.55917 0.03109 0.18089 0.0
H2010 H 0.5181 0.02633 0.12138 0.0
H2011 H 0.46512 0.01845 0.16607 0.0
H2012 H 0.46059 0.01636 0.20255 0.0
H2013 H 0.64222 0.04921 0.11612 0.0
H2014 H 0.64103 0.02886 0.13156 0.0
H2015 H 0.63253 0.04543 0.14182 0.0
C2016 C 0.56427 0.99708 0.70822 0.0
C2017 C 0.57606 0.99869 0.72836 0.0
C2018 C 0.54959 0.98328 0.75407 0.0
C2019 C 0.55037 0.00114 0.76198 0.0
C2020 C 0.53508 8e-05 0.7745 0.0
C2021 C 0.5186 0.98081 0.77916 0.0
C2022 C 0.5179 0.96281 0.77151 0.0
C2023 C 0.53354 0.9643 0.75925 0.0
C2024 C 0.53652 0.0196 0.78274 0.0
C2025 C 0.50058 0.94203 0.77626 0.0
C2026 C 0.38721 0.99786 0.73564 0.0
C2027 C 0.39528 0.98635 0.74735 0.0
C2028 C 0.42717 0.99445 0.76546 0.0
C2029 C 0.42348 0.97426 0.76643 0.0
C2030 C 0.43813 0.97007 0.77499 0.0
C2031 C 0.45671 0.98636 0.7827 0.0
C2032 C 0.46054 0.0067 0.78137 0.0
C2033 C 0.44565 0.01042 0.77282 0.0
C2034 C 0.43363 0.94825 0.77627 0.0
C2035 C 0.48021 0.02447 0.78934 0.0
C2036 C 0.42844 0.98168 0.91634 0.0
C2037 C 0.42531 0.96306 0.90823 0.0
C2038 C 0.4403 0.9618 0.89712 0.0
C2039 C 0.45874 0.97978 0.89369 0.0
C2040 C 0.46207 0.99873 0.90183 0.0
C2041 C 0.44695 0.99949 0.91318 0.0
C2042 C 0.43634 0.94131 0.88887 0.0
C2043 C 0.48152 0.01822 0.89825 0.0
C2044 C 0.58972 0.96923 0.90293 0.0
C2045 C 0.59126 0.98762 0.91548 0.0
C2046 C 0.55646 0.98076 0.91283 0.0
C2047 C 0.53758 0.96317 0.91332 0.0
C2048 C 0.5209 0.96174 0.90218 0.0
C2049 C 0.52305 0.97877 0.89107 0.0
C2050 C 0.54194 0.99704 0.89146 0.0
C2051 C 0.55855 0.99766 0.90194 0.0
C2052 C 0.50107 0.942 0.90222 0.0
C2053 C 0.54468 0.01603 0.88097 0.0
C2054 C 0.50217 0.97963 0.79205 0.0
C2055 C 0.48666 0.98157 0.78227 0.0
C2056 C 0.47158 0.98221 0.79365 0.0
C2057 C 0.47172 0.98061 0.81535 0.0
C2058 C 0.45676 0.98124 0.82722 0.0
C2059 C 0.45744 0.98051 0.84861 0.0
C2060 C 0.4731 0.97912 0.85901 0.0
C2061 C 0.47419 0.97891 0.8808 0.0
C2062 C 0.4904 0.97841 0.89071 0.0
C2063 C 0.50551 0.97769 0.87943 0.0
C2064 C 0.50428 0.97712 0.85756 0.0
C2065 C 0.51881 0.97572 0.84565 0.0
C2066 C 0.51809 0.97636 0.82419 0.0
C2067 C 0.50263 0.97814 0.8138 0.0
C2068 C 0.48741 0.97878 0.82547 0.0
C2069 C 0.48819 0.97819 0.84736 0.0
C2070 C 0.42619 0.99957 0.95967 0.0
C2071 C 0.414 0.99702 0.93951 0.0
O2072 O 0.56406 0.98358 0.74186 0.0
O2073 O 0.57226 0.98113 0.92335 0.0
O2074 O 0.41317 0.98164 0.92691 0.0
O2075 O 0.41354 0.99933 0.75741 0.0
H2076 H 0.58013 0.01398 0.73461 0.0
H2077 H 0.55193 0.00045 0.71153 0.0
H2078 H 0.55726 0.98171 0.70079 0.0
H2079 H 0.57442 0.00845 0.69708 0.0
H2080 H 0.56296 0.01599 0.75892 0.0
H2081 H 0.53315 0.9506 0.75331 0.0
H2082 H 0.52398 0.02134 0.77592 0.0
H2083 H 0.55104 0.03329 0.77907 0.0
H2084 H 0.53494 0.01896 0.79975 0.0
H2085 H 0.50194 0.92949 0.76864 0.0
H2086 H 0.48608 0.94098 0.77112 0.0
H2087 H 0.5 0.93985 0.79321 0.0
H2088 H 0.38439 0.97447 0.75771 0.0
H2089 H 0.38745 0.9895 0.70603 0.0
H2090 H 0.39587 0.01423 0.74128 0.0
H2091 H 0.37287 0.99445 0.74348 0.0
H2092 H 0.40918 0.96177 0.76077 0.0
H2093 H 0.44836 0.02593 0.77185 0.0
H2094 H 0.43362 0.94424 0.79271 0.0
H2095 H 0.44566 0.94651 0.76867 0.0
H2096 H 0.4188 0.93733 0.76887 0.0
H2097 H 0.4812 0.03941 0.78624 0.0
H2098 H 0.49306 0.02407 0.78202 0.0
H2099 H 0.48183 0.02326 0.80626 0.0
H2100 H 0.4224 0.01185 0.93189 0.0
H2101 H 0.41103 0.94941 0.91074 0.0
H2102 H 0.44972 0.0141 0.91923 0.0
H2103 H 0.43538 0.94108 0.87174 0.0
H2104 H 0.42207 0.92856 0.89455 0.0
H2105 H 0.44904 0.93873 0.89341 0.0
H2106 H 0.48148 0.03187 0.90488 0.0
H2107 H 0.48408 0.02031 0.88143 0.0
H2108 H 0.49439 0.01721 0.90533 0.0
H2109 H 0.59546 0.00046 0.90481 0.0
H2110 H 0.59822 0.97426 0.88849 0.0
H2111 H 0.57386 0.9585 0.89784 0.0
H2112 H 0.59503 0.96032 0.91204 0.0
H2113 H 0.53609 0.95031 0.92202 0.0
H2114 H 0.57299 0.01157 0.902 0.0
H2115 H 0.49454 0.93753 0.88628 0.0
H2116 H 0.49018 0.94414 0.91159 0.0
H2117 H 0.50274 0.92934 0.90883 0.0
H2118 H 0.55854 0.02991 0.88676 0.0
H2119 H 0.53148 0.01826 0.88336 0.0
H2120 H 0.54604 0.01447 0.86412 0.0
H2121 H 0.48667 0.98322 0.76565 0.0
H2122 H 0.4444 0.98244 0.82012 0.0
H2123 H 0.44562 0.98126 0.85689 0.0
H2124 H 0.49142 0.9789 0.90746 0.0
H2125 H 0.53105 0.97434 0.85281 0.0
H2126 H 0.52987 0.97558 0.81586 0.0
H2127 H 0.42078 0.985 0.9678 0.0
H2128 H 0.42531 0.01082 0.97022 0.0
H2129 H 0.44234 0.00543 0.95634 0.0
C2130 C 0.02688 0.62744 0.77231 0.0
C2131 C 0.0138 0.61156 0.75545 0.0
C2132 C 0.00421 0.57697 0.76729 0.0
C2133 C 0.98754 0.55838 0.77217 0.0
C2134 C 0.98967 0.54151 0.77731 0.0
C2135 C 0.00912 0.54344 0.77782 0.0
C2136 C 0.02603 0.56199 0.77218 0.0
C2137 C 0.02344 0.57864 0.76699 0.0
C2138 C 0.97126 0.52192 0.7831 0.0
C2139 C 0.04695 0.56447 0.77262 0.0
C2140 C 0.01285 0.40106 0.72777 0.0
C2141 C 0.02043 0.42139 0.73812 0.0
C2142 C 0.01074 0.44738 0.74372 0.0
C2143 C 0.02881 0.46189 0.75374 0.0
C2144 C 0.02968 0.47816 0.76532 0.0
C2145 C 0.01189 0.47946 0.76771 0.0
C2146 C 0.99383 0.46528 0.75701 0.0
C2147 C 0.99366 0.44969 0.74475 0.0
C2148 C 0.04958 0.49364 0.77538 0.0
C2149 C 0.97455 0.46615 0.759 0.0
C2150 C 0.02364 0.44123 0.89785 0.0
C2151 C 0.04013 0.4565 0.88749 0.0
C2152 C 0.03885 0.47262 0.87829 0.0
C2153 C 0.02048 0.47306 0.87878 0.0
C2154 C 0.00371 0.45744 0.88875 0.0
C2155 C 0.00561 0.44183 0.8983 0.0
C2156 C 0.05717 0.4892 0.86809 0.0
C2157 C 0.98381 0.45724 0.88934 0.0
C2158 C 0.99847 0.59648 0.90878 0.0
C2159 C 0.00274 0.58721 0.92802 0.0
C2160 C 0.01785 0.56778 0.9132 0.0
C2161 C 0.03611 0.56833 0.90942 0.0
C2162 C 0.03679 0.55339 0.89684 0.0
C2163 C 0.01863 0.53731 0.88811 0.0
C2164 C 0.99999 0.53619 0.89247 0.0
C2165 C 0.99979 0.55151 0.90476 0.0
C2166 C 0.05691 0.55501 0.8925 0.0
C2167 C 0.98026 0.51895 0.88383 0.0
C2168 C 0.01193 0.52703 0.787 0.0
C2169 C 0.01133 0.51176 0.77405 0.0
C2170 C 0.012 0.49496 0.78222 0.0
C2171 C 0.01309 0.49325 0.80392 0.0
C2172 C 0.01261 0.47604 0.81279 0.0
C2173 C 0.01438 0.47484 0.83409 0.0
C2174 C 0.01658 0.49075 0.84737 0.0
C2175 C 0.01889 0.48995 0.869 0.0
C2176 C 0.01998 0.50553 0.88184 0.0
C2177 C 0.01906 0.52213 0.87363 0.0
C2178 C 0.01761 0.52363 0.85199 0.0
C2179 C 0.01734 0.54048 0.84322 0.0
C2180 C 0.01553 0.54165 0.82197 0.0
C2181 C 0.01405 0.52607 0.80862 0.0
C2182 C 0.01454 0.50908 0.8171 0.0
C2183 C 0.01629 0.50783 0.83883 0.0
C2184 C 0.03989 0.40927 0.89165 0.0
C2185 C 0.04066 0.42249 0.91038 0.0
O2186 O 0.00094 0.59285 0.76377 0.0
O2187 O 0.01845 0.58326 0.92484 0.0
O2188 O 0.02433 0.42573 0.90773 0.0
O2189 O 0.00912 0.43078 0.7334 0.0
H2190 H 0.02502 0.61049 0.74566 0.0
H2191 H 0.03729 0.6229 0.77977 0.0
H2192 H 0.01796 0.62914 0.78465 0.0
H2193 H 0.03622 0.64256 0.76529 0.0
H2194 H 0.97278 0.55724 0.77232 0.0
H2195 H 0.03657 0.59298 0.76343 0.0
H2196 H 0.97078 0.50875 0.7747 0.0
H2197 H 0.95701 0.52213 0.77965 0.0
H2198 H 0.97213 0.5195 0.79989 0.0
H2199 H 0.05835 0.57932 0.7664 0.0
H2200 H 0.04696 0.55192 0.76347 0.0
H2201 H 0.05148 0.56342 0.78877 0.0
H2202 H 0.03698 0.43181 0.73672 0.0
H2203 H 0.02516 0.40297 0.71718 0.0
H2204 H 0.00206 0.39991 0.71499 0.0
H2205 H 0.00413 0.38139 0.75192 0.0
H2206 H 0.04233 0.46068 0.75257 0.0
H2207 H 0.97987 0.4386 0.73672 0.0
H2208 H 0.04989 0.48991 0.79186 0.0
H2209 H 0.0516 0.50927 0.77473 0.0
H2210 H 0.06257 0.4936 0.7679 0.0
H2211 H 0.96132 0.45258 0.75176 0.0
H2212 H 0.97619 0.48001 0.7514 0.0
H2213 H 0.97153 0.46723 0.77553 0.0
H2214 H 0.05515 0.43712 0.91104 0.0
H2215 H 0.05407 0.45607 0.88648 0.0
H2216 H 0.99295 0.42993 0.90623 0.0
H2217 H 0.05458 0.48779 0.85109 0.0
H2218 H 0.07103 0.4883 0.87173 0.0
H2219 H 0.05978 0.50449 0.87307 0.0
H2220 H 0.97161 0.44279 0.89549 0.0
H2221 H 0.97916 0.45938 0.87361 0.0
H2222 H 0.98553 0.47011 0.89931 0.0
H2223 H 0.98847 0.5728 0.93028 0.0
H2224 H 0.98746 0.60165 0.91231 0.0
H2225 H 0.99179 0.58481 0.89611 0.0
H2226 H 0.01235 0.6095 0.9029 0.0
H2227 H 0.04996 0.58082 0.91604 0.0
H2228 H 0.9854 0.55055 0.90746 0.0
H2229 H 0.05906 0.55543 0.87557 0.0
H2230 H 0.05718 0.54132 0.89829 0.0
H2231 H 0.06974 0.56884 0.89988 0.0
H2232 H 0.96697 0.51876 0.89083 0.0
H2233 H 0.97947 0.50403 0.88647 0.0
H2234 H 0.97931 0.5206 0.8669 0.0
H2235 H 0.01012 0.51287 0.75745 0.0
H2236 H 0.01088 0.46328 0.80339 0.0
H2237 H 0.01399 0.46127 0.84001 0.0
H2238 H 0.02135 0.50462 0.89845 0.0
H2239 H 0.01853 0.55299 0.85267 0.0
H2240 H 0.01539 0.555 0.81617 0.0
H2241 H 0.05418 0.40906 0.88966 0.0
H2242 H 0.03724 0.4155 0.87718 0.0
H2243 H 0.02731 0.39336 0.89301 0.0
C2244 C 0.5451 0.57427 0.68418 0.0
C2245 C 0.55094 0.58907 0.7029 0.0
C2246 C 0.53462 0.56699 0.73232 0.0
C2247 C 0.52084 0.57349 0.73765 0.0
C2248 C 0.50492 0.56192 0.75083 0.0
C2249 C 0.50277 0.54356 0.75882 0.0
C2250 C 0.51678 0.53714 0.75364 0.0
C2251 C 0.53269 0.54913 0.74069 0.0
C2252 C 0.49049 0.5694 0.75641 0.0
C2253 C 0.5149 0.51756 0.76172 0.0
C2254 C 0.34745 0.43736 0.71274 0.0
C2255 C 0.36917 0.44271 0.71858 0.0
C2256 C 0.39288 0.46404 0.74587 0.0
C2257 C 0.40863 0.45951 0.74482 0.0
C2258 C 0.42768 0.47272 0.75393 0.0
C2259 C 0.43103 0.49092 0.76404 0.0
C2260 C 0.41527 0.49577 0.76461 0.0
C2261 C 0.39624 0.48199 0.75589 0.0
C2262 C 0.44404 0.46694 0.75322 0.0
C2263 C 0.41841 0.51532 0.77469 0.0
C2264 C 0.40963 0.46409 0.89719 0.0
C2265 C 0.423 0.45787 0.88986 0.0
C2266 C 0.44004 0.47129 0.87885 0.0
C2267 C 0.44377 0.49134 0.87521 0.0
C2268 C 0.43079 0.49791 0.88342 0.0
C2269 C 0.41397 0.48422 0.8945 0.0
C2270 C 0.45388 0.46397 0.87079 0.0
C2271 C 0.43442 0.51924 0.88004 0.0
C2272 C 0.58393 0.62469 0.89839 0.0
C2273 C 0.57539 0.60514 0.91106 0.0
C2274 C 0.55187 0.57507 0.88975 0.0
C2275 C 0.54857 0.55609 0.88255 0.0
C2276 C 0.53007 0.54186 0.8731 0.0
C2277 C 0.51459 0.54693 0.87052 0.0
C2278 C 0.51781 0.56615 0.87767 0.0
C2279 C 0.53642 0.58005 0.88719 0.0
C2280 C 0.52713 0.52149 0.86565 0.0
C2281 C 0.50165 0.57209 0.87495 0.0
C2282 C 0.4858 0.53091 0.77244 0.0
C2283 C 0.46702 0.51757 0.76311 0.0
C2284 C 0.45066 0.50442 0.77488 0.0
C2285 C 0.45308 0.50431 0.79659 0.0
C2286 C 0.43715 0.49073 0.80882 0.0
C2287 C 0.43955 0.49097 0.83018 0.0
C2288 C 0.45802 0.50467 0.84015 0.0
C2289 C 0.46056 0.50508 0.86189 0.0
C2290 C 0.47913 0.51891 0.8713 0.0
C2291 C 0.49534 0.53248 0.85956 0.0
C2292 C 0.49308 0.53229 0.83782 0.0
C2293 C 0.50907 0.54575 0.82555 0.0
C2294 C 0.50673 0.54537 0.80416 0.0
C2295 C 0.48829 0.53158 0.7942 0.0
C2296 C 0.4719 0.51809 0.80628 0.0
C2297 C 0.47434 0.51834 0.8281 0.0
C2298 C 0.35846 0.42574 0.89866 0.0
C2299 C 0.38024 0.43049 0.90314 0.0
O2300 O 0.55049 0.57791 0.72 0.0
O2301 O 0.57023 0.5881 0.89862 0.0
O2302 O 0.39255 0.45126 0.9071 0.0
O2303 O 0.37401 0.45085 0.73848 0.0
H2304 H 0.53985 0.5945 0.70403 0.0
H2305 H 0.53036 0.56039 0.68678 0.0
H2306 H 0.55665 0.56949 0.68212 0.0
H2307 H 0.54337 0.58084 0.6696 0.0
H2308 H 0.5227 0.58778 0.7321 0.0
H2309 H 0.54359 0.54444 0.73676 0.0
H2310 H 0.4751 0.55841 0.75028 0.0
H2311 H 0.49499 0.58467 0.75009 0.0
H2312 H 0.48969 0.57023 0.77346 0.0
H2313 H 0.52601 0.51387 0.75487 0.0
H2314 H 0.49944 0.50468 0.75834 0.0
H2315 H 0.51734 0.51892 0.77874 0.0
H2316 H 0.37826 0.45509 0.70789 0.0
H2317 H 0.34372 0.43152 0.6965 0.0
H2318 H 0.34591 0.45125 0.71404 0.0
H2319 H 0.33625 0.42567 0.72287 0.0
H2320 H 0.40594 0.44535 0.7376 0.0
H2321 H 0.3839 0.48524 0.75672 0.0
H2322 H 0.44999 0.4672 0.76908 0.0
H2323 H 0.45677 0.4783 0.74417 0.0
H2324 H 0.43857 0.45156 0.74608 0.0
H2325 H 0.40589 0.51839 0.77077 0.0
H2326 H 0.43286 0.52845 0.7699 0.0
H2327 H 0.41927 0.51424 0.79171 0.0
H2328 H 0.3844 0.42657 0.88827 0.0
H2329 H 0.42025 0.44263 0.89282 0.0
H2330 H 0.40375 0.48898 0.90059 0.0
H2331 H 0.45323 0.46365 0.85365 0.0
H2332 H 0.44973 0.44846 0.87615 0.0
H2333 H 0.46972 0.47474 0.87584 0.0
H2334 H 0.42292 0.522 0.88744 0.0
H2335 H 0.4342 0.52188 0.86323 0.0
H2336 H 0.44959 0.53054 0.88642 0.0
H2337 H 0.56173 0.60422 0.91782 0.0
H2338 H 0.57202 0.62396 0.88765 0.0
H2339 H 0.58884 0.6382 0.90887 0.0
H2340 H 0.59683 0.62715 0.88895 0.0
H2341 H 0.56059 0.55241 0.88445 0.0
H2342 H 0.53882 0.59484 0.89221 0.0
H2343 H 0.52486 0.52015 0.8486 0.0
H2344 H 0.51336 0.50895 0.87238 0.0
H2345 H 0.54025 0.51945 0.86981 0.0
H2346 H 0.5065 0.58764 0.88128 0.0
H2347 H 0.48781 0.56099 0.88283 0.0
H2348 H 0.49762 0.57151 0.85829 0.0
H2349 H 0.46514 0.51732 0.74644 0.0
H2350 H 0.42262 0.47974 0.80204 0.0
H2351 H 0.4267 0.48023 0.83875 0.0
H2352 H 0.48097 0.51919 0.88798 0.0
H2353 H 0.5236 0.55673 0.83235 0.0
H2354 H 0.51955 0.55607 0.79553 0.0
H2355 H 0.34888 0.40938 0.8941 0.0
H2356 H 0.35811 0.43509 0.88567 0.0
H2357 H 0.35167 0.42894 0.91215 0.0
C2358 C 0.62072 0.73555 0.65188 0.0
C2359 C 0.63131 0.73685 0.63163 0.0
C2360 C 0.63776 0.76952 0.61648 0.0
C2361 C 0.61766 0.76353 0.6106 0.0
C2362 C 0.61303 0.7767 0.59946 0.0
C2363 C 0.62877 0.79617 0.59413 0.0
C2364 C 0.64887 0.80249 0.6007 0.0
C2365 C 0.65306 0.78906 0.6118 0.0
C2366 C 0.59143 0.76961 0.59281 0.0
C2367 C 0.66603 0.8232 0.59542 0.0
C2368 C 0.5847 0.91061 0.62816 0.0
C2369 C 0.6017 0.9057 0.62449 0.0
C2370 C 0.60378 0.88231 0.59983 0.0
C2371 C 0.62318 0.88499 0.60324 0.0
C2372 C 0.62798 0.87023 0.59618 0.0
C2373 C 0.61293 0.85234 0.58579 0.0
C2374 C 0.59311 0.84931 0.58312 0.0
C2375 C 0.58894 0.86459 0.58977 0.0
C2376 C 0.6493 0.87409 0.59915 0.0
C2377 C 0.57644 0.83021 0.57271 0.0
C2378 C 0.63626 0.88381 0.44918 0.0
C2379 C 0.65283 0.8849 0.45994 0.0
C2380 C 0.65058 0.86963 0.47351 0.0
C2381 C 0.63113 0.85279 0.47637 0.0
C2382 C 0.61412 0.85186 0.46604 0.0
C2383 C 0.61682 0.86754 0.45266 0.0
C2384 C 0.66903 0.87137 0.48456 0.0
C2385 C 0.59317 0.83428 0.46913 0.0
C2386 C 0.6292 0.71316 0.45957 0.0
C2387 C 0.63335 0.7292 0.44299 0.0
C2388 C 0.6427 0.76108 0.46251 0.0
C2389 C 0.65882 0.78029 0.46804 0.0
C2390 C 0.6557 0.79488 0.47845 0.0
C2391 C 0.63584 0.79015 0.48324 0.0
C2392 C 0.61941 0.77062 0.47796 0.0
C2393 C 0.62302 0.75618 0.46789 0.0
C2394 C 0.67363 0.81544 0.48402 0.0
C2395 C 0.59803 0.76507 0.48286 0.0
C2396 C 0.62466 0.80922 0.58005 0.0
C2397 C 0.62029 0.82371 0.58859 0.0
C2398 C 0.61822 0.83767 0.57609 0.0
C2399 C 0.62093 0.83743 0.55455 0.0
C2400 C 0.62032 0.85208 0.54169 0.0
C2401 C 0.6229 0.85167 0.52054 0.0
C2402 C 0.62603 0.8365 0.51137 0.0
C2403 C 0.6289 0.83609 0.48993 0.0
C2404 C 0.6316 0.82057 0.48124 0.0
C2405 C 0.63222 0.80573 0.49351 0.0
C2406 C 0.63011 0.80631 0.5151 0.0
C2407 C 0.63158 0.79219 0.52801 0.0
C2408 C 0.6298 0.7931 0.54927 0.0
C2409 C 0.62625 0.80803 0.55842 0.0
C2410 C 0.62453 0.82229 0.54567 0.0
C2411 C 0.62675 0.82161 0.52401 0.0
C2412 C 0.62237 0.88172 0.40364 0.0
C2413 C 0.62792 0.89919 0.41955 0.0
O2414 O 0.64326 0.75714 0.62649 0.0
O2415 O 0.64693 0.74796 0.45197 0.0
O2416 O 0.63995 0.89888 0.43575 0.0
O2417 O 0.59931 0.89709 0.60494 0.0
H2418 H 0.62003 0.72926 0.61885 0.0
H2419 H 0.61094 0.74257 0.65024 0.0
H2420 H 0.63201 0.74374 0.66459 0.0
H2421 H 0.61109 0.7194 0.65621 0.0
H2422 H 0.60552 0.74861 0.6144 0.0
H2423 H 0.66848 0.79362 0.61656 0.0
H2424 H 0.58707 0.78103 0.59781 0.0
H2425 H 0.58073 0.75458 0.59925 0.0
H2426 H 0.58998 0.76835 0.57569 0.0
H2427 H 0.6806 0.82634 0.60283 0.0
H2428 H 0.66261 0.8353 0.60038 0.0
H2429 H 0.66774 0.82412 0.57843 0.0
H2430 H 0.59871 0.89375 0.6359 0.0
H2431 H 0.58617 0.91698 0.64406 0.0
H2432 H 0.56983 0.89642 0.62653 0.0
H2433 H 0.58476 0.92172 0.61704 0.0
H2434 H 0.63477 0.89895 0.61063 0.0
H2435 H 0.57402 0.86276 0.58717 0.0
H2436 H 0.65537 0.87298 0.58404 0.0
H2437 H 0.64931 0.86223 0.60916 0.0
H2438 H 0.65954 0.88933 0.60635 0.0
H2439 H 0.56129 0.82837 0.57555 0.0
H2440 H 0.57682 0.81649 0.57823 0.0
H2441 H 0.57862 0.83099 0.55579 0.0
H2442 H 0.614 0.8974 0.42656 0.0
H2443 H 0.66771 0.8977 0.45735 0.0
H2444 H 0.60379 0.86698 0.44498 0.0
H2445 H 0.66677 0.87016 0.50147 0.0
H2446 H 0.68291 0.88599 0.4815 0.0
H2447 H 0.67137 0.85859 0.47949 0.0
H2448 H 0.58148 0.83572 0.45991 0.0
H2449 H 0.58951 0.83346 0.48571 0.0
H2450 H 0.59258 0.81971 0.46468 0.0
H2451 H 0.61917 0.72898 0.43816 0.0
H2452 H 0.61673 0.69779 0.4551 0.0
H2453 H 0.62482 0.71766 0.47413 0.0
H2454 H 0.64304 0.71211 0.4629 0.0
H2455 H 0.67395 0.7839 0.46397 0.0
H2456 H 0.61037 0.74119 0.46433 0.0
H2457 H 0.67287 0.81986 0.50024 0.0
H2458 H 0.67338 0.8271 0.47388 0.0
H2459 H 0.68819 0.81563 0.48208 0.0
H2460 H 0.58678 0.74976 0.47651 0.0
H2461 H 0.59446 0.7766 0.47648 0.0
H2462 H 0.5965 0.76517 0.49985 0.0
H2463 H 0.6187 0.82427 0.60514 0.0
H2464 H 0.618 0.86416 0.54783 0.0
H2465 H 0.62233 0.86336 0.51144 0.0
H2466 H 0.63382 0.82038 0.46476 0.0
H2467 H 0.63428 0.78036 0.52186 0.0
H2468 H 0.63115 0.78186 0.5584 0.0
H2469 H 0.63598 0.88214 0.39733 0.0
H2470 H 0.61337 0.88284 0.39053 0.0
H2471 H 0.61307 0.86662 0.41058 0.0
C2472 C 0.10127 0.7035 0.61989 0.0
C2473 C 0.0976 0.72034 0.62893 0.0
C2474 C 0.11718 0.75097 0.60809 0.0
C2475 C 0.11526 0.76548 0.59654 0.0
C2476 C 0.13224 0.78273 0.58927 0.0
C2477 C 0.15168 0.78492 0.59268 0.0
C2478 C 0.15379 0.77032 0.60451 0.0
C2479 C 0.13654 0.75372 0.61249 0.0
C2480 C 0.12918 0.79846 0.57791 0.0
C2481 C 0.17418 0.77203 0.60851 0.0
C2482 C 0.28677 0.93285 0.64577 0.0
C2483 C 0.27565 0.91076 0.64001 0.0
C2484 C 0.24114 0.88541 0.62928 0.0
C2485 C 0.24611 0.87112 0.62119 0.0
C2486 C 0.23206 0.85449 0.60893 0.0
C2487 C 0.21281 0.85233 0.60444 0.0
C2488 C 0.20751 0.86624 0.61325 0.0
C2489 C 0.22173 0.8825 0.62578 0.0
C2490 C 0.23797 0.83956 0.60027 0.0
C2491 C 0.18712 0.86436 0.60879 0.0
C2492 C 0.24344 0.90087 0.46944 0.0
C2493 C 0.25152 0.88977 0.4789 0.0
C2494 C 0.23932 0.87246 0.49043 0.0
C2495 C 0.2189 0.86697 0.49352 0.0
C2496 C 0.21138 0.87955 0.48584 0.0
C2497 C 0.22368 0.89624 0.47372 0.0
C2498 C 0.24796 0.8595 0.49834 0.0
C2499 C 0.19002 0.87484 0.4896 0.0
C2500 C 0.09682 0.72172 0.46292 0.0
C2501 C 0.09447 0.73932 0.45359 0.0
C2502 C 0.1285 0.76825 0.45789 0.0
C2503 C 0.14795 0.7709 0.4567 0.0
C2504 C 0.16389 0.78543 0.46941 0.0
C2505 C 0.1603 0.79804 0.48304 0.0
C2506 C 0.1409 0.79629 0.48326 0.0
C2507 C 0.12516 0.78119 0.47096 0.0
C2508 C 0.18438 0.78698 0.4686 0.0
C2509 C 0.13662 0.81019 0.49665 0.0
C2510 C 0.16964 0.80247 0.58378 0.0
C2511 C 0.18307 0.81831 0.59714 0.0
C2512 C 0.19879 0.8363 0.58949 0.0
C2513 C 0.2008 0.83903 0.56793 0.0
C2514 C 0.21536 0.85761 0.5597 0.0
C2515 C 0.21676 0.86034 0.53846 0.0
C2516 C 0.20392 0.8445 0.52461 0.0
C2517 C 0.20486 0.84722 0.50301 0.0
C2518 C 0.19116 0.83137 0.48978 0.0
C2519 C 0.17651 0.81279 0.49749 0.0
C2520 C 0.1759 0.8095 0.51896 0.0
C2521 C 0.16188 0.79069 0.52717 0.0
C2522 C 0.16017 0.78815 0.5484 0.0
C2523 C 0.17243 0.80431 0.56222 0.0
C2524 C 0.18766 0.82289 0.55426 0.0
C2525 C 0.18935 0.82555 0.53259 0.0
C2526 C 0.259 0.9287 0.42025 0.0
C2527 C 0.24629 0.91237 0.43479 0.0
O2528 O 0.0999 0.73452 0.61422 0.0
O2529 O 0.11327 0.75321 0.44622 0.0
O2530 O 0.25408 0.9146 0.45482 0.0
O2531 O 0.25485 0.90262 0.63971 0.0
H2532 H 0.10907 0.72886 0.64136 0.0
H2533 H 0.10242 0.69424 0.63251 0.0
H2534 H 0.11551 0.71009 0.61135 0.0
H2535 H 0.08883 0.69301 0.60915 0.0
H2536 H 0.10029 0.76335 0.59342 0.0
H2537 H 0.13834 0.74284 0.62174 0.0
H2538 H 0.14153 0.81417 0.58174 0.0
H2539 H 0.11455 0.79748 0.58161 0.0
H2540 H 0.12908 0.79578 0.56102 0.0
H2541 H 0.17288 0.7578 0.61485 0.0
H2542 H 0.18302 0.7847 0.61981 0.0
H2543 H 0.18276 0.77558 0.59406 0.0
H2544 H 0.28058 0.9011 0.64853 0.0
H2545 H 0.29468 0.93377 0.66095 0.0
H2546 H 0.27551 0.93663 0.65268 0.0
H2547 H 0.30232 0.94653 0.6194 0.0
H2548 H 0.26099 0.87302 0.62416 0.0
H2549 H 0.21804 0.89357 0.6322 0.0
H2550 H 0.22594 0.82365 0.60294 0.0
H2551 H 0.25242 0.84186 0.60725 0.0
H2552 H 0.23968 0.84144 0.58333 0.0
H2553 H 0.18558 0.87683 0.61632 0.0
H2554 H 0.17506 0.84951 0.61431 0.0
H2555 H 0.18467 0.86464 0.59186 0.0
H2556 H 0.23008 0.90839 0.43434 0.0
H2557 H 0.26703 0.89393 0.47626 0.0
H2558 H 0.21768 0.90538 0.4671 0.0
H2559 H 0.24826 0.85977 0.51547 0.0
H2560 H 0.26356 0.86491 0.49311 0.0
H2561 H 0.23825 0.84339 0.49302 0.0
H2562 H 0.18786 0.88812 0.48641 0.0
H2563 H 0.18595 0.87022 0.5058 0.0
H2564 H 0.17945 0.86192 0.47929 0.0
H2565 H 0.08997 0.74631 0.46611 0.0
H2566 H 0.08773 0.71572 0.47688 0.0
H2567 H 0.11268 0.72712 0.46815 0.0
H2568 H 0.09259 0.70906 0.45158 0.0
H2569 H 0.15044 0.76103 0.44632 0.0
H2570 H 0.11032 0.77977 0.47142 0.0
H2571 H 0.18963 0.78576 0.48437 0.0
H2572 H 0.19546 0.80213 0.46271 0.0
H2573 H 0.18426 0.77494 0.45845 0.0
H2574 H 0.12243 0.80992 0.49169 0.0
H2575 H 0.14923 0.82618 0.49631 0.0
H2576 H 0.13504 0.80515 0.51287 0.0
H2577 H 0.18103 0.81681 0.61367 0.0
H2578 H 0.22561 0.8704 0.56959 0.0
H2579 H 0.22797 0.87509 0.53304 0.0
H2580 H 0.19138 0.83385 0.47329 0.0
H2581 H 0.15184 0.77781 0.51726 0.0
H2582 H 0.14892 0.77343 0.55385 0.0
H2583 H 0.2708 0.94175 0.43004 0.0
H2584 H 0.2501 0.93652 0.4162 0.0
H2585 H 0.26597 0.91322 0.39866 0.0
C2586 C 0.10843 0.37916 0.64513 0.0
C2587 C 0.09364 0.37525 0.62666 0.0
C2588 C 0.11134 0.36612 0.60067 0.0
C2589 C 0.12672 0.38607 0.59673 0.0
C2590 C 0.14336 0.38944 0.585 0.0
C2591 C 0.14478 0.37258 0.57724 0.0
C2592 C 0.12908 0.35249 0.58079 0.0
C2593 C 0.11244 0.34959 0.5922 0.0
C2594 C 0.15965 0.41105 0.58125 0.0
C2595 C 0.13008 0.33403 0.57305 0.0
C2596 C 0.2573 0.37848 0.66163 0.0
C2597 C 0.2575 0.37028 0.63987 0.0
C2598 C 0.24281 0.38247 0.61272 0.0
C2599 C 0.22438 0.36428 0.60915 0.0
C2600 C 0.20963 0.36357 0.59535 0.0
C2601 C 0.21297 0.38153 0.58535 0.0
C2602 C 0.23116 0.40001 0.58934 0.0
C2603 C 0.24599 0.40012 0.60268 0.0
C2604 C 0.19041 0.34349 0.59147 0.0
C2605 C 0.23494 0.41961 0.57949 0.0
C2606 C 0.25111 0.37311 0.4546 0.0
C2607 C 0.23693 0.35459 0.46314 0.0
C2608 C 0.21991 0.3529 0.47301 0.0
C2609 C 0.21699 0.37005 0.47427 0.0
C2610 C 0.23107 0.38859 0.46534 0.0
C2611 C 0.24784 0.38979 0.45546 0.0
C2612 C 0.20493 0.33277 0.48193 0.0
C2613 C 0.22837 0.40713 0.46624 0.0
C2614 C 0.06167 0.33461 0.45567 0.0
C2615 C 0.07842 0.34504 0.43998 0.0
C2616 C 0.10796 0.34139 0.44828 0.0
C2617 C 0.11224 0.32739 0.45785 0.0
C2618 C 0.13104 0.33376 0.46768 0.0
C2619 C 0.14594 0.35465 0.46768 0.0
C2620 C 0.14221 0.36866 0.45675 0.0
C2621 C 0.12326 0.36185 0.44699 0.0
C2622 C 0.13472 0.31831 0.47878 0.0
C2623 C 0.158 0.39092 0.456 0.0
C2624 C 0.1633 0.37584 0.56674 0.0
C2625 C 0.18005 0.37969 0.5792 0.0
C2626 C 0.19727 0.38069 0.5708 0.0
C2627 C 0.19814 0.37834 0.54922 0.0
C2628 C 0.21517 0.37911 0.54022 0.0
C2629 C 0.21569 0.37636 0.519 0.0
C2630 C 0.19898 0.37215 0.50603 0.0
C2631 C 0.19904 0.36855 0.48453 0.0
C2632 C 0.18173 0.36334 0.4723 0.0
C2633 C 0.16446 0.36203 0.4809 0.0
C2634 C 0.16445 0.3665 0.50214 0.0
C2635 C 0.14754 0.36605 0.51107 0.0
C2636 C 0.14732 0.36962 0.53213 0.0
C2637 C 0.16387 0.37345 0.54513 0.0
C2638 C 0.18132 0.37459 0.53637 0.0
C2639 C 0.18165 0.37123 0.5148 0.0
C2640 C 0.2994 0.38177 0.45934 0.0
C2641 C 0.27919 0.3662 0.44897 0.0
O2642 O 0.09554 0.36202 0.61296 0.0
O2643 O 0.08907 0.33451 0.4401 0.0
O2644 O 0.26758 0.37533 0.4446 0.0
O2645 O 0.25809 0.38381 0.62516 0.0
H2646 H 0.0974 0.38977 0.61902 0.0
H2647 H 0.12372 0.38349 0.63969 0.0
H2648 H 0.10311 0.36512 0.65429 0.0
H2649 H 0.11041 0.39185 0.65544 0.0
H2650 H 0.12604 0.39909 0.60295 0.0
H2651 H 0.10046 0.33427 0.5952 0.0
H2652 H 0.17354 0.41434 0.59024 0.0
H2653 H 0.1551 0.42243 0.58588 0.0
H2654 H 0.16343 0.41292 0.56466 0.0
H2655 H 0.11784 0.31958 0.57916 0.0
H2656 H 0.14486 0.33538 0.5775 0.0
H2657 H 0.12871 0.33311 0.55594 0.0
H2658 H 0.24321 0.35561 0.63905 0.0
H2659 H 0.25845 0.36853 0.67351 0.0
H2660 H 0.24284 0.37847 0.66365 0.0
H2661 H 0.26968 0.39434 0.66444 0.0
H2662 H 0.22121 0.35032 0.61656 0.0
H2663 H 0.26015 0.41412 0.60552 0.0
H2664 H 0.18682 0.34059 0.57465 0.0
H2665 H 0.17769 0.34418 0.59876 0.0
H2666 H 0.1914 0.3304 0.59794 0.0
H2667 H 0.24873 0.43307 0.58605 0.0
H2668 H 0.2218 0.42199 0.5816 0.0
H2669 H 0.23674 0.4186 0.56264 0.0
H2670 H 0.27213 0.35494 0.46114 0.0
H2671 H 0.23876 0.34129 0.46173 0.0
H2672 H 0.25867 0.40391 0.44851 0.0
H2673 H 0.20386 0.33475 0.49878 0.0
H2674 H 0.20916 0.32076 0.47943 0.0
H2675 H 0.18971 0.32749 0.47479 0.0
H2676 H 0.24102 0.42062 0.45915 0.0
H2677 H 0.22725 0.41104 0.48256 0.0
H2678 H 0.21404 0.40368 0.45804 0.0
H2679 H 0.0883 0.36104 0.44538 0.0
H2680 H 0.06844 0.33421 0.47091 0.0
H2681 H 0.05094 0.31865 0.4505 0.0
H2682 H 0.0531 0.3428 0.45799 0.0
H2683 H 0.1005 0.31153 0.45823 0.0
H2684 H 0.12046 0.37253 0.43843 0.0
H2685 H 0.13577 0.32141 0.49569 0.0
H2686 H 0.14929 0.31969 0.47416 0.0
H2687 H 0.12245 0.30241 0.47555 0.0
H2688 H 0.15312 0.39971 0.44604 0.0
H2689 H 0.17226 0.39244 0.45011 0.0
H2690 H 0.1613 0.39775 0.47185 0.0
H2691 H 0.17933 0.38097 0.59583 0.0
H2692 H 0.22831 0.38187 0.54947 0.0
H2693 H 0.22922 0.37721 0.51295 0.0
H2694 H 0.18163 0.36004 0.45594 0.0
H2695 H 0.13422 0.36288 0.50189 0.0
H2696 H 0.13389 0.36903 0.53815 0.0
H2697 H 0.3082 0.37415 0.46377 0.0
H2698 H 0.29659 0.38819 0.47361 0.0
H2699 H 0.3088 0.39463 0.44926 0.0
C2700 C 0.00486 0.39507 0.0552 0.0
C2701 C 0.99756 0.37431 0.04891 0.0
C2702 C 0.96539 0.36513 0.06539 0.0
C2703 C 0.9733 0.3856 0.07244 0.0
N2704 N 0.99461 0.42012 0.0616 0.0
N2705 N 0.97296 0.33898 0.0544 0.0
C2706 C 0.99128 0.40069 0.06364 0.0
C2707 C 0.97828 0.35915 0.05562 0.0
N2708 N 0.02486 0.4094 0.05487 0.0
N2709 N 0.94519 0.35182 0.06649 0.0
H2710 H 0.98291 0.33406 0.0497 0.0
H2711 H 0.95987 0.32747 0.06074 0.0
H2712 H 0.93514 0.35651 0.07149 0.0
H2713 H 0.93821 0.33716 0.05989 0.0
H2714 H 0.03038 0.42424 0.06066 0.0
H2715 H 0.03637 0.4061 0.05224 0.0
H2716 H 0.00686 0.43125 0.05376 0.0
H2717 H 0.98353 0.42401 0.06476 0.0
C2718 C 0.64871 0.60254 0.06865 0.0
C2719 C 0.63089 0.60484 0.05119 0.0
C2720 C 0.59414 0.56461 0.06749 0.0
C2721 C 0.612 0.56611 0.08846 0.0
N2722 N 0.6525 0.57915 0.09962 0.0
N2723 N 0.59165 0.58786 0.03639 0.0
C2724 C 0.63994 0.58163 0.08649 0.0
C2725 C 0.6041 0.58598 0.05018 0.0
N2726 N 0.66847 0.61679 0.0687 0.0
N2727 N 0.57467 0.54963 0.06663 0.0
H2728 H 0.59727 0.60024 0.02667 0.0
H2729 H 0.57628 0.57726 0.03542 0.0
H2730 H 0.56956 0.53792 0.07726 0.0
H2731 H 0.56463 0.54924 0.05522 0.0
H2732 H 0.6789 0.61587 0.07868 0.0
H2733 H 0.67367 0.62923 0.059 0.0
H2734 H 0.66812 0.5884 0.09903 0.0
H2735 H 0.64659 0.56757 0.11038 0.0
C2736 C 0.37781 0.00198 0.07024 0.0
C2737 C 0.3707 0.99267 0.05035 0.0
C2738 C 0.38906 0.97401 0.05496 0.0
C2739 C 0.40053 0.98726 0.0717 0.0
N2740 N 0.39967 0.00751 0.1004 0.0
N2741 N 0.36937 0.96894 0.024 0.0
C2742 C 0.39309 0.99947 0.08095 0.0
C2743 C 0.3763 0.97848 0.04283 0.0
N2744 N 0.36922 0.01227 0.07921 0.0
N2745 N 0.38919 0.95634 0.05077 0.0
H2746 H 0.36073 0.97239 0.01388 0.0
H2747 H 0.37346 0.95858 0.01809 0.0
H2748 H 0.39617 0.95048 0.06039 0.0
H2749 H 0.39617 0.95048 0.06039 0.0
H2750 H 0.37274 0.01867 0.09404 0.0
H2751 H 0.35779 0.01395 0.07195 0.0
H2752 H 0.3975 0.01888 0.10705 0.0
H2753 H 0.40662 0.00192 0.1104 0.0
C2754 C 0.37245 0.00938 0.95015 0.0
C2755 C 0.36252 0.99544 0.9659 0.0
C2756 C 0.37945 0.97624 0.95655 0.0
C2757 C 0.39255 0.99276 0.94397 0.0
N2758 N 0.39376 0.01889 0.92123 0.0
N2759 N 0.34809 0.96015 0.97504 0.0
C2760 C 0.38653 0.00719 0.93816 0.0
C2761 C 0.3632 0.977 0.96623 0.0
N2762 N 0.36828 0.02472 0.94649 0.0
N2763 N 0.3828 0.96026 0.95981 0.0
H2764 H 0.3352 0.95984 0.98056 0.0
H2765 H 0.34701 0.94583 0.9745 0.0
H2766 H 0.39311 0.95794 0.95157 0.0
H2767 H 0.37575 0.94957 0.97121 0.0
H2768 H 0.37569 0.03571 0.93538 0.0
H2769 H 0.35691 0.02574 0.95423 0.0
H2770 H 0.40276 0.01702 0.91044 0.0
H2771 H 0.40276 0.01702 0.91044 0.0
C2772 C 0.0196 0.39787 0.96211 0.0
C2773 C 0.02702 0.38392 0.96331 0.0
C2774 C 0.04934 0.40089 0.93472 0.0
C2775 C 0.03914 0.41206 0.93111 0.0
N2776 N 0.02544 0.43033 0.94934 0.0
N2777 N 0.04764 0.37071 0.94927 0.0
C2778 C 0.02737 0.41332 0.94716 0.0
C2779 C 0.04174 0.38517 0.94939 0.0
N2780 N 0.00499 0.39629 0.97508 0.0
N2781 N 0.06717 0.40647 0.92543 0.0
H2782 H 0.04228 0.35868 0.9595 0.0
H2783 H 0.05667 0.36977 0.93794 0.0
H2784 H 0.07447 0.41988 0.91712 0.0
H2785 H 0.07598 0.39966 0.9284 0.0
H2786 H 0.9973 0.40443 0.97313 0.0
H2787 H 0.9999 0.38618 0.98727 0.0
H2788 H 0.01835 0.43286 0.9617 0.0
H2789 H 0.03362 0.44322 0.94052 0.0
C2790 C 0.6246 0.61916 0.94195 0.0
C2791 C 0.61801 0.61822 0.9624 0.0
C2792 C 0.58299 0.60278 0.94918 0.0
C2793 C 0.58987 0.60644 0.92863 0.0
N2794 N 0.617 0.61075 0.90624 0.0
N2795 N 0.59095 0.61166 0.98538 0.0
C2796 C 0.61045 0.61236 0.92518 0.0
C2797 C 0.59721 0.61077 0.966 0.0
N2798 N 0.64467 0.62718 0.93824 0.0
N2799 N 0.56296 0.59016 0.95267 0.0
H2800 H 0.60076 0.61747 0.99815 0.0
H2801 H 0.57632 0.60854 0.98841 0.0
H2802 H 0.55243 0.58191 0.94085 0.0
H2803 H 0.55731 0.58547 0.96732 0.0
H2804 H 0.65012 0.62812 0.92341 0.0
H2805 H 0.65582 0.63394 0.94986 0.0
H2806 H 0.60756 0.60404 0.89325 0.0
H2807 H 0.60756 0.60404 0.89325 0.0
C2808 C 0.99329 0.60402 0.9801 0.0
C2809 C 0.00343 0.62551 0.97789 0.0
C2810 C 0.02006 0.62205 0.94734 0.0
C2811 C 0.00705 0.60062 0.94749 0.0
N2812 N 0.99047 0.57175 0.96947 0.0
N2813 N 0.02588 0.65525 0.95881 0.0
C2814 C 0.99645 0.5917 0.96562 0.0
C2815 C 0.01699 0.63467 0.96157 0.0
N2816 N 0.98006 0.59533 0.99564 0.0
N2817 N 0.0359 0.63015 0.93435 0.0
H2818 H 0.02416 0.66512 0.96892 0.0
H2819 H 0.03396 0.6624 0.9458 0.0
H2820 H 0.03938 0.62102 0.92502 0.0
H2821 H 0.04696 0.64549 0.93476 0.0
H2822 H 0.9702 0.5797 0.99654 0.0
H2823 H 0.97854 0.60402 0.00732 0.0
H2824 H 0.98419 0.56476 0.98327 0.0
H2825 H 0.99423 0.56295 0.95993 0.0
C2826 C 0.37763 0.40907 0.95805 0.0
C2827 C 0.37476 0.38941 0.95307 0.0
C2828 C 0.38244 0.39973 0.91711 0.0
C2829 C 0.38106 0.41769 0.92119 0.0
N2830 N 0.37458 0.43773 0.94675 0.0
N2831 N 0.37086 0.36487 0.92645 0.0
C2832 C 0.37791 0.42192 0.94199 0.0
C2833 C 0.37617 0.38442 0.93222 0.0
N2834 N 0.38096 0.41598 0.97812 0.0
N2835 N 0.39045 0.3973 0.89931 0.0
H2836 H 0.36599 0.35299 0.93676 0.0
H2837 H 0.36932 0.36005 0.91105 0.0
H2838 H 0.39708 0.40838 0.88825 0.0
H2839 H 0.39322 0.38521 0.89686 0.0
H2840 H 0.38543 0.43105 0.98234 0.0
H2841 H 0.38155 0.40743 0.99034 0.0
H2842 H 0.36956 0.43937 0.96112 0.0
H2843 H 0.37508 0.44836 0.93636 0.0
C2844 C 0.63389 0.99233 0.95175 0.0
C2845 C 0.62978 0.99969 0.97024 0.0
C2846 C 0.6051 0.00581 0.95104 0.0
C2847 C 0.60732 0.99568 0.93338 0.0
N2848 N 0.63344 0.99289 0.91518 0.0
N2849 N 0.61578 0.01872 0.98633 0.0
C2850 C 0.62445 0.99293 0.93307 0.0
C2851 C 0.61672 0.00815 0.96951 0.0
N2852 N 0.6478 0.98587 0.95149 0.0
N2853 N 0.59237 0.0137 0.94988 0.0
H2854 H 0.62348 0.01993 0.00019 0.0
H2855 H 0.60794 0.02677 0.98665 0.0
H2856 H 0.58707 0.016 0.93579 0.0
H2857 H 0.58751 0.0185 0.96255 0.0
H2858 H 0.65077 0.98017 0.93804 0.0
H2859 H 0.65585 0.98562 0.96457 0.0
H2860 H 0.6296 0.99666 0.90098 0.0
H2861 H 0.6296 0.99666 0.90098 0.0
C2862 C 0.62525 0.9914 0.08191 0.0
C2863 C 0.62771 0.00223 0.06342 0.0
C2864 C 0.61104 0.01945 0.079 0.0
C2865 C 0.61267 0.0124 0.09887 0.0
N2866 N 0.621 0.9902 0.11881 0.0
N2867 N 0.62595 0.02938 0.04569 0.0
C2868 C 0.61943 0.99772 0.10015 0.0
C2869 C 0.62178 0.0173 0.06248 0.0
N2870 N 0.62858 0.97514 0.08212 0.0
N2871 N 0.59746 0.02592 0.07501 0.0
H2872 H 0.63402 0.02851 0.03334 0.0
H2873 H 0.62323 0.04166 0.04522 0.0
H2874 H 0.58576 0.02297 0.08486 0.0
H2875 H 0.59521 0.03024 0.06039 0.0
H2876 H 0.62449 0.96498 0.09422 0.0
H2877 H 0.63428 0.97095 0.06963 0.0
H2878 H 0.62872 0.98215 0.12104 0.0
H2879 H 0.61552 0.99269 0.13247 0.0
C2880 C 0.98607 0.62949 0.08459 0.0
C2881 C 0.97945 0.62204 0.06413 0.0
C2882 C 0.96417 0.58704 0.07593 0.0
C2883 C 0.9688 0.59406 0.09688 0.0
N2884 N 0.98964 0.62243 0.12038 0.0
N2885 N 0.95621 0.59385 0.04186 0.0
C2886 C 0.98137 0.61549 0.10101 0.0
C2887 C 0.9665 0.60091 0.06031 0.0
N2888 N 0.99562 0.65009 0.08837 0.0
N2889 N 0.96038 0.56794 0.07031 0.0
H2890 H 0.95625 0.60341 0.03039 0.0
H2891 H 0.94544 0.57855 0.03919 0.0
H2892 H 0.96379 0.55913 0.08007 0.0
H2893 H 0.95812 0.56273 0.05499 0.0
H2894 H 0.99934 0.65698 0.103 0.0
H2895 H 0.99791 0.66036 0.07668 0.0
H2896 H 0.00056 0.63743 0.12392 0.0
H2897 H 0.98709 0.613 0.13289 0.0
C2898 C 0.38968 0.3588 0.05724 0.0
C2899 C 0.39216 0.37285 0.04166 0.0
C2900 C 0.42173 0.39963 0.06104 0.0
C2901 C 0.41978 0.38503 0.07612 0.0
N2902 N 0.39439 0.35566 0.09357 0.0
N2903 N 0.40719 0.40782 0.03139 0.0
C2904 C 0.40155 0.366 0.07573 0.0
C2905 C 0.40727 0.39362 0.04431 0.0
N2906 N 0.37562 0.33859 0.05488 0.0
N2907 N 0.43654 0.4195 0.06316 0.0
H2908 H 0.39737 0.40386 0.01861 0.0
H2909 H 0.41614 0.42352 0.0337 0.0
H2910 H 0.44251 0.42638 0.07751 0.0
H2911 H 0.44174 0.42947 0.05089 0.0
H2912 H 0.37494 0.32762 0.06502 0.0
H2913 H 0.36582 0.33249 0.04209 0.0
H2914 H 0.38024 0.34265 0.0944 0.0
H2915 H 0.40138 0.36159 0.10796 0.0
C2916 C 0.6429 0.69887 0.40104 0.0
C2917 C 0.66175 0.71377 0.39336 0.0
C2918 C 0.6598 0.73999 0.41431 0.0
C2919 C 0.64187 0.7248 0.42335 0.0
N2920 N 0.61176 0.69249 0.41626 0.0
N2921 N 0.69097 0.74746 0.39852 0.0
C2922 C 0.63202 0.70494 0.41411 0.0
C2923 C 0.67112 0.73401 0.4017 0.0
N2924 N 0.63595 0.67862 0.39687 0.0
N2925 N 0.66468 0.76002 0.4154 0.0
H2926 H 0.70057 0.7434 0.39129 0.0
H2927 H 0.6986 0.76183 0.40576 0.0
H2928 H 0.65464 0.76457 0.42073 0.0
H2929 H 0.67679 0.77147 0.4077 0.0
H2930 H 0.62326 0.66699 0.40367 0.0
H2931 H 0.64429 0.67342 0.38873 0.0
H2932 H 0.60345 0.67863 0.4082 0.0
H2933 H 0.60281 0.69723 0.42392 0.0
C2934 C 0.29182 0.93584 0.40812 0.0
C2935 C 0.27742 0.9406 0.38816 0.0
C2936 C 0.23693 0.90102 0.39919 0.0
C2937 C 0.25105 0.89987 0.42244 0.0
N2938 N 0.28965 0.90863 0.4379 0.0
N2939 N 0.24089 0.9262 0.36723 0.0
C2940 C 0.2793 0.9139 0.42455 0.0
C2941 C 0.2505 0.9232 0.38337 0.0
N2942 N 0.31188 0.94841 0.4108 0.0
N2943 N 0.21717 0.88742 0.39592 0.0
H2944 H 0.24881 0.93828 0.3575 0.0
H2945 H 0.22561 0.91634 0.36393 0.0
H2946 H 0.20983 0.87544 0.40606 0.0
H2947 H 0.20903 0.88851 0.38333 0.0
H2948 H 0.3196 0.96123 0.40175 0.0
H2949 H 0.3196 0.96123 0.40175 0.0
H2950 H 0.30538 0.91713 0.43901 0.0
H2951 H 0.28209 0.89538 0.44633 0.0
C2952 C 0.04322 0.34894 0.39933 0.0
C2953 C 0.04212 0.3348 0.38396 0.0
C2954 C 0.06996 0.3331 0.40158 0.0
C2955 C 0.06921 0.34494 0.41849 0.0
N2956 N 0.059 0.3692 0.42999 0.0
N2957 N 0.05169 0.3101 0.37298 0.0
C2958 C 0.05715 0.35448 0.41618 0.0
C2959 C 0.05455 0.32578 0.38593 0.0
N2960 N 0.0305 0.35684 0.39896 0.0
N2961 N 0.0866 0.33104 0.39891 0.0
H2962 H 0.04062 0.30424 0.36122 0.0
H2963 H 0.05907 0.30169 0.37521 0.0
H2964 H 0.10021 0.3403 0.40687 0.0
H2965 H 0.08827 0.32345 0.38621 0.0
H2966 H 0.01907 0.35319 0.38782 0.0
H2967 H 0.01907 0.35319 0.38782 0.0
H2968 H 0.05032 0.37642 0.42877 0.0
H2969 H 0.06987 0.37507 0.44193 0.0
C2970 C 0.05719 0.30663 0.30034 0.0
C2971 C 0.03831 0.31424 0.29511 0.0
C2972 C 0.03186 0.29814 0.24896 0.0
C2973 C 0.05515 0.29628 0.25367 0.0
N2974 N 0.07824 0.2889 0.28318 0.0
N2975 N 0.01015 0.31389 0.26757 0.0
C2976 C 0.06486 0.29551 0.28 0.0
C2977 C 0.02508 0.30929 0.27019 0.0
N2978 N 0.0644 0.30789 0.31978 0.0
N2979 N 0.02282 0.29445 0.23006 0.0
H2980 H 0.00603 0.3201 0.27976 0.0
H2981 H 0.00241 0.31129 0.25342 0.0
H2982 H 0.02814 0.28925 0.21803 0.0
H2983 H 0.01047 0.29659 0.22721 0.0
H2984 H 0.07509 0.30345 0.32328 0.0
H2985 H 0.05874 0.31261 0.33181 0.0
H2986 H 0.08422 0.2892 0.29787 0.0
H2987 H 0.08261 0.28315 0.27079 0.0
C2988 C 0.70227 0.72226 0.28512 0.0
C2989 C 0.68516 0.72432 0.30299 0.0
C2990 C 0.69559 0.76769 0.28695 0.0
C2991 C 0.70847 0.76231 0.26563 0.0
N2992 N 0.72874 0.74126 0.2536 0.0
N2993 N 0.67016 0.74811 0.31864 0.0
C2994 C 0.71623 0.74244 0.26727 0.0
C2995 C 0.6822 0.74684 0.30436 0.0
N2996 N 0.70371 0.70513 0.28393 0.0
N2997 N 0.69462 0.78509 0.28784 0.0
H2998 H 0.66262 0.73637 0.32896 0.0
H2999 H 0.66826 0.76087 0.31973 0.0
H3000 H 0.70207 0.79634 0.277 0.0
H3001 H 0.6868 0.7877 0.2994 0.0
H3002 H 0.69514 0.6927 0.29318 0.0
H3003 H 0.69514 0.6927 0.29318 0.0
H3004 H 0.73186 0.72924 0.25406 0.0
H3005 H 0.7355 0.75248 0.24258 0.0
C3006 C 0.26013 0.92998 0.28716 0.0
C3007 C 0.26203 0.94353 0.30359 0.0
C3008 C 0.23268 0.94491 0.28869 0.0
C3009 C 0.23038 0.93047 0.27292 0.0
N3010 N 0.23544 0.90144 0.26687 0.0
N3011 N 0.24532 0.95865 0.32292 0.0
C3012 C 0.24216 0.92062 0.27484 0.0
C3013 C 0.24691 0.94946 0.30528 0.0
N3014 N 0.27549 0.92626 0.28269 0.0
N3015 N 0.22151 0.95462 0.28793 0.0
H3016 H 0.25496 0.96255 0.33577 0.0
H3017 H 0.23294 0.9606 0.32573 0.0
H3018 H 0.20947 0.95078 0.27757 0.0
H3019 H 0.22501 0.96751 0.29702 0.0
H3020 H 0.2748 0.91748 0.26981 0.0
H3021 H 0.28964 0.93379 0.29008 0.0
H3022 H 0.24349 0.89365 0.26889 0.0
H3023 H 0.22045 0.89196 0.26211 0.0
C3024 C 0.67682 0.94353 0.30735 0.0
C3025 C 0.68573 0.96504 0.3057 0.0
C3026 C 0.70391 0.96393 0.2754 0.0
C3027 C 0.69227 0.94237 0.27496 0.0
N3028 N 0.67666 0.91265 0.29593 0.0
N3029 N 0.708 0.99576 0.28711 0.0
C3030 C 0.68148 0.93242 0.29269 0.0
C3031 C 0.69954 0.97528 0.28981 0.0
N3032 N 0.66336 0.93365 0.32248 0.0
N3033 N 0.7192 0.97374 0.26204 0.0
H3034 H 0.70524 0.00553 0.29629 0.0
H3035 H 0.70524 0.00553 0.29629 0.0
H3036 H 0.72412 0.9659 0.25254 0.0
H3037 H 0.72794 0.98963 0.26184 0.0
H3038 H 0.65446 0.91784 0.3229 0.0
H3039 H 0.66051 0.94135 0.33428 0.0
H3040 H 0.6703 0.90496 0.30941 0.0
H3041 H 0.68144 0.90484 0.28619 0.0
C3042 C 0.03217 0.71914 0.29135 0.0
C3043 C 0.04917 0.72153 0.30335 0.0
C3044 C 0.07137 0.74353 0.27615 0.0
C3045 C 0.05403 0.74036 0.26442 0.0
N3046 N 0.0204 0.7353 0.2671 0.0
N3047 N 0.08581 0.738 0.30728 0.0
C3048 C 0.03521 0.73145 0.27401 0.0
C3049 C 0.06904 0.7343 0.29581 0.0
N3050 N 0.01307 0.704 0.29533 0.0
N3051 N 0.09012 0.75529 0.26834 0.0
H3052 H 0.08575 0.72903 0.31927 0.0
H3053 H 0.1002 0.75009 0.30483 0.0
H3054 H 0.09269 0.76515 0.25615 0.0
H3055 H 0.10314 0.75546 0.27382 0.0
H3056 H 0.00061 0.70097 0.28585 0.0
H3057 H 0.01001 0.69274 0.30611 0.0
H3058 H 0.00681 0.73014 0.27462 0.0
H3059 H 0.02298 0.74597 0.25575 0.0
C3060 C 0.27675 0.32948 0.30314 0.0
C3061 C 0.29102 0.32257 0.305 0.0
C3062 C 0.28369 0.31073 0.26898 0.0
C3063 C 0.26577 0.31208 0.26895 0.0
N3064 N 0.24949 0.32978 0.28349 0.0
N3065 N 0.30801 0.30613 0.2891 0.0
C3066 C 0.26356 0.32364 0.28531 0.0
C3067 C 0.29431 0.31283 0.28784 0.0
N3068 N 0.27619 0.34203 0.3182 0.0
N3069 N 0.29191 0.30987 0.25075 0.0
H3070 H 0.31715 0.30829 0.30213 0.0
H3071 H 0.30915 0.29704 0.27753 0.0
H3072 H 0.28657 0.3123 0.23671 0.0
H3073 H 0.30576 0.31028 0.24987 0.0
H3074 H 0.26781 0.34951 0.31704 0.0
H3075 H 0.28477 0.34556 0.33188 0.0
H3076 H 0.24436 0.3347 0.29587 0.0
H3077 H 0.24349 0.33068 0.26924 0.0
C3078 C 0.28965 0.33076 0.41471 0.0
C3079 C 0.29582 0.34148 0.39605 0.0
C3080 C 0.29083 0.36869 0.41118 0.0
C3081 C 0.28261 0.35681 0.42922 0.0
N3082 N 0.26723 0.32257 0.44298 0.0
N3083 N 0.29755 0.36847 0.37487 0.0
C3084 C 0.27991 0.33666 0.42949 0.0
C3085 C 0.29506 0.35982 0.39379 0.0
N3086 N 0.29359 0.31527 0.41875 0.0
N3087 N 0.29507 0.38855 0.41045 0.0
H3088 H 0.30075 0.36269 0.36172 0.0
H3089 H 0.29455 0.38029 0.37181 0.0
H3090 H 0.29141 0.39597 0.42173 0.0
H3091 H 0.30369 0.39837 0.39894 0.0
H3092 H 0.29099 0.3083 0.43304 0.0
H3093 H 0.3016 0.31107 0.40882 0.0
H3094 H 0.264 0.30741 0.44252 0.0
H3095 H 0.25745 0.32477 0.45225 0.0
C3096 C 0.63888 0.94952 0.39321 0.0
C3097 C 0.66008 0.95902 0.39122 0.0
C3098 C 0.66058 0.93037 0.40774 0.0
C3099 C 0.63906 0.91985 0.40889 0.0
N3100 N 0.60752 0.91835 0.39833 0.0
N3101 N 0.69038 0.96351 0.40853 0.0
C3102 C 0.62811 0.92922 0.40061 0.0
C3103 C 0.67077 0.95106 0.40217 0.0
N3104 N 0.62936 0.96058 0.38961 0.0
N3105 N 0.67148 0.92055 0.41052 0.0
H3106 H 0.69743 0.97935 0.40737 0.0
H3107 H 0.69834 0.95852 0.41785 0.0
H3108 H 0.6651 0.90495 0.41273 0.0
H3109 H 0.68691 0.92756 0.40786 0.0
H3110 H 0.61422 0.95535 0.39261 0.0
H3111 H 0.63736 0.9761 0.38641 0.0
H3112 H 0.5991 0.9237 0.39037 0.0
H3113 H 0.59881 0.90312 0.40222 0.0
C3114 C 0.06591 0.7378 0.40243 0.0
C3115 C 0.05306 0.71635 0.40014 0.0
C3116 C 0.06085 0.71263 0.43604 0.0
C3117 C 0.07798 0.73245 0.43621 0.0
N3118 N 0.09218 0.76629 0.42234 0.0
N3119 N 0.03753 0.68307 0.41566 0.0
C3120 C 0.07907 0.74584 0.42024 0.0
C3121 C 0.05046 0.70363 0.41713 0.0
N3122 N 0.06519 0.75045 0.38784 0.0
N3123 N 0.05305 0.70339 0.4542 0.0
H3124 H 0.02831 0.67577 0.40271 0.0
H3125 H 0.03703 0.67313 0.42703 0.0
H3126 H 0.05803 0.71132 0.46831 0.0
H3127 H 0.03973 0.68947 0.45501 0.0
H3128 H 0.07246 0.76627 0.38949 0.0
H3129 H 0.05659 0.7451 0.37414 0.0
H3130 H 0.0965 0.77636 0.41018 0.0
H3131 H 0.09838 0.77328 0.43662 0.0
C3132 C 0.32739 0.03636 0.74209 0.0
C3133 C 0.32795 0.04721 0.72416 0.0
C3134 C 0.31194 0.06361 0.74289 0.0
C3135 C 0.31648 0.05694 0.76166 0.0
N3136 N 0.31549 0.02694 0.77617 0.0
N3137 N 0.31737 0.06831 0.70613 0.0
C3138 C 0.32016 0.04025 0.76051 0.0
C3139 C 0.31895 0.05982 0.72407 0.0
N3140 N 0.33358 0.02216 0.74167 0.0
N3141 N 0.29964 0.07202 0.74301 0.0
H3142 H 0.32087 0.06439 0.69196 0.0
H3143 H 0.31334 0.07965 0.7054 0.0
H3144 H 0.29238 0.07247 0.75631 0.0
H3145 H 0.29459 0.07602 0.72975 0.0
H3146 H 0.33364 0.01425 0.7548 0.0
H3147 H 0.33869 0.01847 0.72835 0.0
H3148 H 0.30761 0.02725 0.78905 0.0
H3149 H 0.30761 0.02725 0.78905 0.0
C3150 C 0.98059 0.26462 0.74047 0.0
C3151 C 0.96325 0.26771 0.72302 0.0
C3152 C 0.92633 0.22597 0.73609 0.0
C3153 C 0.94349 0.22644 0.7573 0.0
N3154 N 0.98383 0.23997 0.76997 0.0
N3155 N 0.92465 0.25099 0.7064 0.0
C3156 C 0.97149 0.24256 0.75666 0.0
C3157 C 0.93665 0.24851 0.72036 0.0
N3158 N 0.00012 0.2793 0.74254 0.0
N3159 N 0.90692 0.21095 0.73427 0.0
H3160 H 0.93048 0.26373 0.69706 0.0
H3161 H 0.90939 0.2402 0.70457 0.0
H3162 H 0.90152 0.19869 0.74426 0.0
H3163 H 0.89719 0.21116 0.72286 0.0
H3164 H 0.0058 0.29268 0.73419 0.0
H3165 H 0.0058 0.29268 0.73419 0.0
H3166 H 0.99938 0.24998 0.77015 0.0
H3167 H 0.97789 0.2278 0.78007 0.0
C3168 C 0.705 0.68202 0.73821 0.0
C3169 C 0.7047 0.6692 0.72182 0.0
C3170 C 0.72763 0.66168 0.74207 0.0
C3171 C 0.73118 0.67765 0.75652 0.0
N3172 N 0.71924 0.69979 0.77047 0.0
N3173 N 0.71498 0.64564 0.7087 0.0
C3174 C 0.71859 0.68671 0.75527 0.0
C3175 C 0.71563 0.65859 0.72403 0.0
N3176 N 0.69227 0.68989 0.73825 0.0
N3177 N 0.73512 0.64877 0.74504 0.0
H3178 H 0.70722 0.64348 0.69462 0.0
H3179 H 0.72305 0.63778 0.70976 0.0
H3180 H 0.74275 0.64839 0.75843 0.0
H3181 H 0.74275 0.64839 0.75843 0.0
H3182 H 0.68126 0.68693 0.7268 0.0
H3183 H 0.68126 0.68693 0.7268 0.0
H3184 H 0.71071 0.70718 0.76956 0.0
H3185 H 0.72769 0.70288 0.7842 0.0
C3186 C 0.73464 0.67212 0.62254 0.0
C3187 C 0.71262 0.65548 0.63771 0.0
C3188 C 0.7187 0.61736 0.62905 0.0
C3189 C 0.73719 0.63348 0.60968 0.0
N3190 N 0.76593 0.67357 0.59958 0.0
N3191 N 0.69048 0.61705 0.65478 0.0
C3192 C 0.7489 0.66183 0.60981 0.0
C3193 C 0.70515 0.62854 0.64159 0.0
N3194 N 0.74025 0.69203 0.62031 0.0
N3195 N 0.71408 0.59778 0.63152 0.0
H3196 H 0.6829 0.62277 0.66333 0.0
H3197 H 0.68651 0.60189 0.65715 0.0
H3198 H 0.72168 0.59186 0.62315 0.0
H3199 H 0.70312 0.58834 0.6417 0.0
H3200 H 0.75276 0.70151 0.61174 0.0
H3201 H 0.73168 0.69824 0.62592 0.0
H3202 H 0.77214 0.68936 0.59917 0.0
H3203 H 0.77343 0.66689 0.59235 0.0
C3204 C 0.37152 0.0675 0.61727 0.0
C3205 C 0.35189 0.06528 0.63436 0.0
C3206 C 0.35365 0.10514 0.61728 0.0
C3207 C 0.36957 0.1035 0.59669 0.0
N3208 N 0.39724 0.09061 0.58639 0.0
N3209 N 0.32913 0.08191 0.64816 0.0
C3210 C 0.38258 0.0882 0.59928 0.0
C3211 C 0.34333 0.08396 0.63482 0.0
N3212 N 0.37731 0.0532 0.61742 0.0
N3213 N 0.34851 0.11991 0.61757 0.0
H3214 H 0.3226 0.06932 0.65764 0.0
H3215 H 0.324 0.09243 0.6488 0.0
H3216 H 0.35438 0.13143 0.60673 0.0
H3217 H 0.33904 0.12031 0.62872 0.0
H3218 H 0.38828 0.054 0.60753 0.0
H3219 H 0.37054 0.04073 0.62706 0.0
H3220 H 0.40394 0.08145 0.58731 0.0
H3221 H 0.40227 0.10206 0.57548 0.0
C3222 C 0.93729 0.26643 0.62805 0.0
C3223 C 0.94928 0.28643 0.63697 0.0
C3224 C 0.92802 0.29739 0.618 0.0
C3225 C 0.91718 0.2779 0.60816 0.0
N3226 N 0.90388 0.24223 0.61514 0.0
N3227 N 0.95938 0.32223 0.6347 0.0
C3228 C 0.9195 0.26183 0.61646 0.0
C3229 C 0.94546 0.30227 0.63045 0.0
N3230 N 0.94314 0.25199 0.62917 0.0
N3231 N 0.92063 0.3106 0.61702 0.0
H3232 H 0.97342 0.32665 0.64178 0.0
H3233 H 0.95816 0.33438 0.62872 0.0
H3234 H 0.90656 0.3064 0.61013 0.0
H3235 H 0.92695 0.32434 0.62543 0.0
H3236 H 0.9352 0.23787 0.62147 0.0
H3237 H 0.95719 0.25482 0.63471 0.0
H3238 H 0.9043 0.23018 0.62248 0.0
H3239 H 0.8895 0.23873 0.60973 0.0
C3240 C 0.36503 0.31899 0.61633 0.0
C3241 C 0.35545 0.30665 0.6334 0.0
C3242 C 0.35717 0.27803 0.61676 0.0
C3243 C 0.36805 0.29098 0.60018 0.0
N3244 N 0.37075 0.31899 0.57995 0.0
N3245 N 0.33836 0.2733 0.64809 0.0
C3246 C 0.36863 0.3101 0.5987 0.0
C3247 C 0.35043 0.28584 0.63314 0.0
N3248 N 0.37037 0.33918 0.61656 0.0
N3249 N 0.35197 0.25793 0.61633 0.0
H3250 H 0.33383 0.27862 0.6607 0.0
H3251 H 0.33218 0.25752 0.64784 0.0
H3252 H 0.34927 0.2497 0.60252 0.0
H3253 H 0.34867 0.24909 0.62944 0.0
H3254 H 0.3796 0.34925 0.60553 0.0
H3255 H 0.36703 0.34631 0.6285 0.0
H3256 H 0.3692 0.33184 0.57771 0.0
H3257 H 0.37159 0.31219 0.56619 0.0
C3258 C 0.71408 0.07332 0.62766 0.0
C3259 C 0.71071 0.05337 0.62335 0.0
C3260 C 0.71836 0.06268 0.5872 0.0
C3261 C 0.71696 0.08073 0.5906 0.0
N3262 N 0.70984 0.10096 0.61541 0.0
N3263 N 0.70611 0.02792 0.59744 0.0
C3264 C 0.71384 0.08548 0.6112 0.0
C3265 C 0.71191 0.04771 0.6027 0.0
N3266 N 0.71809 0.08103 0.64744 0.0
N3267 N 0.72643 0.05982 0.56966 0.0
H3268 H 0.70073 0.01618 0.60796 0.0
H3269 H 0.70465 0.02282 0.58214 0.0
H3270 H 0.73338 0.07081 0.55856 0.0
H3271 H 0.72898 0.04753 0.56762 0.0
H3272 H 0.72262 0.09625 0.65104 0.0
H3273 H 0.71932 0.07302 0.65986 0.0
H3274 H 0.70523 0.103 0.62986 0.0
H3275 H 0.70907 0.1106 0.60454 0.0
C3276 C 0.94326 0.65559 0.62074 0.0
C3277 C 0.94654 0.67158 0.63484 0.0
C3278 C 0.92269 0.67801 0.61477 0.0
C3279 C 0.92084 0.66333 0.59964 0.0
N3280 N 0.92173 0.63202 0.59379 0.0
N3281 N 0.94144 0.69981 0.64412 0.0
C3282 C 0.92886 0.65025 0.60423 0.0
C3283 C 0.93696 0.68341 0.63142 0.0
N3284 N 0.95479 0.6463 0.62228 0.0
N3285 N 0.9094 0.6853 0.61437 0.0
H3286 H 0.95043 0.7033 0.65754 0.0
H3287 H 0.93706 0.71059 0.64076 0.0
H3288 H 0.89692 0.67956 0.60418 0.0
H3289 H 0.90885 0.69471 0.62592 0.0
H3290 H 0.9547 0.63628 0.61103 0.0
H3291 H 0.96592 0.64999 0.63375 0.0
H3292 H 0.92579 0.62112 0.59764 0.0
H3293 H 0.90969 0.62649 0.58311 0.0
C3294 C 0.97249 0.70737 0.74015 0.0
C3295 C 0.95682 0.69842 0.72476 0.0
C3296 C 0.94744 0.72429 0.73205 0.0
C3297 C 0.96132 0.73213 0.74926 0.0
N3298 N 0.98556 0.72828 0.77127 0.0
N3299 N 0.92367 0.6927 0.7151 0.0
C3300 C 0.97332 0.72273 0.7539 0.0
C3301 C 0.94242 0.705 0.72352 0.0
N3302 N 0.98668 0.7013 0.7416 0.0
N3303 N 0.94 0.73546 0.72269 0.0
H3304 H 0.91836 0.67719 0.71253 0.0
H3305 H 0.91259 0.69703 0.71452 0.0
H3306 H 0.94592 0.75103 0.72558 0.0
H3307 H 0.9304 0.72997 0.70963 0.0
H3308 H 1.0 0.70913 0.75048 0.0
H3309 H 0.98555 0.6889 0.73316 0.0
H3310 H 0.99228 0.71997 0.77661 0.0
H3311 H 0.98831 0.74039 0.78117 0.0
C3312 C 0.34635 0.29886 0.74076 0.0
C3313 C 0.33299 0.3 0.72589 0.0
C3314 C 0.30478 0.26956 0.74045 0.0
C3315 C 0.31833 0.26799 0.75478 0.0
N3316 N 0.353 0.27657 0.7618 0.0
N3317 N 0.29853 0.29242 0.71981 0.0
C3318 C 0.33942 0.28131 0.75299 0.0
C3319 C 0.31187 0.28699 0.72793 0.0
N3320 N 0.36501 0.31531 0.74483 0.0
N3321 N 0.28539 0.25394 0.73783 0.0
H3322 H 0.3032 0.30676 0.71367 0.0
H3323 H 0.28307 0.28428 0.7223 0.0
H3324 H 0.27986 0.24022 0.74551 0.0
H3325 H 0.27562 0.2536 0.72612 0.0
H3326 H 0.37465 0.31558 0.75665 0.0
H3327 H 0.36934 0.32972 0.73908 0.0
H3328 H 0.36847 0.28503 0.75942 0.0
H3329 H 0.34867 0.26264 0.7687 0.0
C3330 C 0.74266 0.05709 0.71469 0.0
C3331 C 0.7255 0.03733 0.7129 0.0
C3332 C 0.73353 0.02985 0.74737 0.0
C3333 C 0.75308 0.04746 0.74727 0.0
N3334 N 0.77393 0.08064 0.73222 0.0
N3335 N 0.70523 0.00399 0.72742 0.0
C3336 C 0.75706 0.06189 0.73128 0.0
C3337 C 0.72126 0.02338 0.72908 0.0
N3338 N 0.74474 0.07169 0.70105 0.0
N3339 N 0.72584 0.02011 0.7654 0.0
H3340 H 0.69489 0.99862 0.71501 0.0
H3341 H 0.70319 0.99267 0.73779 0.0
H3342 H 0.73347 0.02516 0.77965 0.0
H3343 H 0.71092 0.00852 0.76664 0.0
H3344 H 0.75543 0.08709 0.70279 0.0
H3345 H 0.73504 0.06855 0.68828 0.0
H3346 H 0.7802 0.08933 0.71922 0.0
H3347 H 0.78041 0.08828 0.74614 0.0
C3348 C 0.05532 0.33879 0.0661 0.0
C3349 C 0.03816 0.3251 0.04419 0.0
C3350 C 0.03842 0.28429 0.05463 0.0
C3351 C 0.06 0.3005 0.07263 0.0
N3352 N 0.07744 0.33515 0.09901 0.0
N3353 N 0.01535 0.28778 0.02356 0.0
C3354 C 0.06527 0.32606 0.08227 0.0
C3355 C 0.02901 0.29792 0.03902 0.0
N3356 N 0.05998 0.35816 0.07094 0.0
N3357 N 0.03241 0.26435 0.05142 0.0
H3358 H 0.00943 0.29488 0.01434 0.0
H3359 H 0.01026 0.27238 0.02045 0.0
H3360 H 0.03919 0.25757 0.05999 0.0
H3361 H 0.02099 0.25544 0.04062 0.0
H3362 H 0.06977 0.3661 0.08335 0.0
H3363 H 0.05341 0.36544 0.06297 0.0
H3364 H 0.081 0.34978 0.10398 0.0
H3365 H 0.08331 0.3274 0.10737 0.0
C3366 C 0.67716 0.70706 0.0686 0.0
C3367 C 0.68216 0.70276 0.04226 0.0
C3368 C 0.71614 0.74858 0.03822 0.0
C3369 C 0.70647 0.75322 0.06268 0.0
N3370 N 0.68781 0.7364 0.10004 0.0
N3371 N 0.70574 0.7185 0.00842 0.0
C3372 C 0.69075 0.73236 0.08048 0.0
C3373 C 0.7018 0.72285 0.02747 0.0
N3374 N 0.66341 0.69123 0.07937 0.0
N3375 N 0.73076 0.76408 0.02786 0.0
H3376 H 0.69746 0.70379 0.00203 0.0
H3377 H 0.71697 0.72972 0.99966 0.0
H3378 H 0.73771 0.77886 0.03421 0.0
H3379 H 0.73543 0.76159 0.01364 0.0
H3380 H 0.66028 0.69327 0.09452 0.0
H3381 H 0.65556 0.67662 0.07265 0.0
H3382 H 0.67827 0.72477 0.10965 0.0
H3383 H 0.6953 0.7514 0.10582 0.0
C3384 C 0.26366 0.98152 0.03212 0.0
C3385 C 0.276 0.97396 0.04051 0.0
C3386 C 0.24908 0.95249 0.06372 0.0
C3387 C 0.23556 0.95678 0.05222 0.0
N3388 N 0.23397 0.98487 0.03676 0.0
N3389 N 0.28095 0.95255 0.06468 0.0
C3390 C 0.24399 0.97422 0.0397 0.0
C3391 C 0.26897 0.95975 0.05666 0.0
N3392 N 0.27047 0.99525 0.01658 0.0
N3393 N 0.24358 0.94333 0.08237 0.0
H3394 H 0.29574 0.95776 0.06014 0.0
H3395 H 0.27573 0.9404 0.07475 0.0
H3396 H 0.23028 0.94069 0.08929 0.0
H3397 H 0.25331 0.94116 0.09222 0.0
H3398 H 0.26126 0.99952 0.00842 0.0
H3399 H 0.28496 0.00132 0.01087 0.0
H3400 H 0.24008 0.99871 0.0292 0.0
H3401 H 0.22072 0.98122 0.04442 0.0
C3402 C 0.3348 0.05931 0.97971 0.0
C3403 C 0.32939 0.04959 0.99899 0.0
C3404 C 0.30434 0.06074 0.00276 0.0
C3405 C 0.31134 0.07243 0.98461 0.0
N3406 N 0.32313 0.07088 0.95068 0.0
N3407 N 0.30867 0.04086 0.02908 0.0
C3408 C 0.32383 0.06848 0.97149 0.0
C3409 C 0.31398 0.05013 0.01044 0.0
N3410 N 0.35033 0.05976 0.9691 0.0
N3411 N 0.28781 0.05857 0.01264 0.0
H3412 H 0.31597 0.03373 0.03603 0.0
H3413 H 0.29741 0.041 0.03789 0.0
H3414 H 0.2786 0.06427 0.00723 0.0
H3415 H 0.2786 0.06427 0.00723 0.0
H3416 H 0.35613 0.06847 0.95601 0.0
H3417 H 0.35854 0.05292 0.97436 0.0
H3418 H 0.33083 0.06682 0.94022 0.0
H3419 H 0.31217 0.07347 0.94364 0.0
C3420 C 0.95232 0.27995 0.95884 0.0
C3421 C 0.97749 0.28785 0.96968 0.0
C3422 C 0.97914 0.25145 0.94692 0.0
C3423 C 0.95175 0.24114 0.9412 0.0
N3424 N 0.92138 0.25132 0.93289 0.0
N3425 N 0.01038 0.2816 0.97012 0.0
C3426 C 0.93942 0.25721 0.9424 0.0
C3427 C 0.99115 0.27438 0.96317 0.0
N3428 N 0.94363 0.29159 0.96214 0.0
N3429 N 0.98845 0.24082 0.94172 0.0
H3430 H 0.01779 0.29479 0.97934 0.0
H3431 H 0.01834 0.27407 0.96648 0.0
H3432 H 0.98046 0.22708 0.93335 0.0
H3433 H 0.00356 0.24608 0.94579 0.0
H3434 H 0.92933 0.28735 0.95592 0.0
H3435 H 0.95106 0.3052 0.97075 0.0
H3436 H 0.91425 0.26005 0.93412 0.0
H3437 H 0.9145 0.23799 0.92377 0.0
C3438 C 0.71216 0.65858 0.96098 0.0
C3439 C 0.70843 0.66368 0.98104 0.0
C3440 C 0.74126 0.695 0.98133 0.0
C3441 C 0.74657 0.68792 0.96346 0.0
N3442 N 0.73252 0.67084 0.93067 0.0
N3443 N 0.72131 0.68536 0.01177 0.0
C3444 C 0.73074 0.67185 0.95152 0.0
C3445 C 0.72338 0.68166 0.99152 0.0
N3446 N 0.69822 0.64099 0.951 0.0
N3447 N 0.75247 0.71494 0.98767 0.0
H3448 H 0.70917 0.67532 0.02046 0.0
H3449 H 0.73277 0.69732 0.02051 0.0
H3450 H 0.76447 0.72562 0.97918 0.0
H3451 H 0.74822 0.72131 0.9996 0.0
H3452 H 0.70125 0.63532 0.93762 0.0
H3453 H 0.68409 0.6312 0.95678 0.0
H3454 H 0.72091 0.66052 0.92079 0.0
H3455 H 0.74445 0.68241 0.92286 0.0
C3456 C 0.96977 0.70679 0.9953 0.0
C3457 C 0.97166 0.69222 0.98286 0.0
C3458 C 0.96909 0.70898 0.95183 0.0
C3459 C 0.96288 0.72079 0.96387 0.0
N3460 N 0.9592 0.73219 0.99788 0.0
N3461 N 0.97014 0.67752 0.94919 0.0
C3462 C 0.96382 0.7201 0.98588 0.0
C3463 C 0.97052 0.69281 0.96111 0.0
N3464 N 0.97477 0.70871 0.01593 0.0
N3465 N 0.97446 0.71359 0.93176 0.0
H3466 H 0.97068 0.66506 0.95539 0.0
H3467 H 0.96717 0.67615 0.9333 0.0
H3468 H 0.97506 0.72608 0.9244 0.0
H3469 H 0.98081 0.7065 0.92319 0.0
H3470 H 0.97576 0.72039 0.02547 0.0
H3471 H 0.9797 0.69968 0.02335 0.0
H3472 H 0.95647 0.73 0.01358 0.0
H3473 H 0.95759 0.74422 0.99222 0.0
C3474 C 0.31694 0.29423 0.95038 0.0
C3475 C 0.32731 0.29695 0.96957 0.0
C3476 C 0.30774 0.26031 0.97497 0.0
C3477 C 0.29426 0.2581 0.95834 0.0
N3478 N 0.28672 0.27387 0.92941 0.0
N3479 N 0.32879 0.28297 0.00253 0.0
C3480 C 0.2992 0.27525 0.94557 0.0
C3481 C 0.32179 0.2801 0.9825 0.0
N3482 N 0.32398 0.30987 0.93684 0.0
N3483 N 0.30765 0.2437 0.98333 0.0
H3484 H 0.33797 0.29739 0.00926 0.0
H3485 H 0.32357 0.27113 0.013 0.0
H3486 H 0.29934 0.22902 0.9769 0.0
H3487 H 0.31818 0.24502 0.99468 0.0
H3488 H 0.31858 0.30828 0.92165 0.0
H3489 H 0.33648 0.32407 0.94036 0.0
H3490 H 0.28811 0.28652 0.92167 0.0
H3491 H 0.27422 0.26036 0.92424 0.0
C3492 C 0.73091 0.02095 0.99196 0.0
C3493 C 0.72122 0.0325 0.99577 0.0
C3494 C 0.75173 0.06368 0.98594 0.0
C3495 C 0.76135 0.05189 0.98127 0.0
N3496 N 0.75604 0.01796 0.97277 0.0
N3497 N 0.72033 0.06375 0.99144 0.0
C3498 C 0.74968 0.03012 0.98201 0.0
C3499 C 0.73105 0.05356 0.99144 0.0
N3500 N 0.72261 0.00134 0.99862 0.0
N3501 N 0.762 0.08452 0.98527 0.0
H3502 H 0.70513 0.0569 0.99512 0.0
H3503 H 0.72588 0.07844 0.98588 0.0
H3504 H 0.77553 0.09314 0.97792 0.0
H3505 H 0.7569 0.09357 0.99235 0.0
H3506 H 0.73022 0.99302 0.99831 0.0
H3507 H 0.70911 0.99415 0.00649 0.0
H3508 H 0.74694 0.00218 0.97117 0.0
H3509 H 0.76932 0.02344 0.96472 0.0
C3510 C 0.68391 0.96572 0.05827 0.0
C3511 C 0.66877 0.95487 0.04281 0.0
C3512 C 0.67855 0.92827 0.04296 0.0
C3513 C 0.69731 0.94232 0.05288 0.0
N3514 N 0.71641 0.97385 0.07308 0.0
N3515 N 0.64894 0.92298 0.02351 0.0
C3516 C 0.69941 0.9607 0.06185 0.0
C3517 C 0.66502 0.93516 0.03629 0.0
N3518 N 0.68312 0.98058 0.06982 0.0
N3519 N 0.67312 0.90811 0.04073 0.0
H3520 H 0.63629 0.9247 0.02163 0.0
H3521 H 0.64801 0.91073 0.01497 0.0
H3522 H 0.68164 0.90192 0.04676 0.0
H3523 H 0.65888 0.8969 0.03538 0.0
H3524 H 0.69256 0.98783 0.08266 0.0
H3525 H 0.67139 0.98389 0.06797 0.0
H3526 H 0.71987 0.98866 0.07716 0.0
H3527 H 0.72765 0.97057 0.07762 0.0
C3528 C 0.03846 0.72788 0.02397 0.0
C3529 C 0.03 0.71345 0.03974 0.0
C3530 C 0.02437 0.73772 0.0599 0.0
C3531 C 0.03387 0.75272 0.04442 0.0
N3532 N 0.05798 0.7636 0.01681 0.0
N3533 N 0.02127 0.70706 0.07525 0.0
C3534 C 0.04362 0.74838 0.02815 0.0
C3535 C 0.02521 0.71928 0.05863 0.0
N3536 N 0.04038 0.72194 0.00455 0.0
N3537 N 0.01357 0.7402 0.07514 0.0
H3538 H 0.02261 0.69393 0.0746 0.0
H3539 H 0.01921 0.71124 0.09001 0.0
H3540 H 0.01193 0.75299 0.07712 0.0
H3541 H 0.00464 0.72854 0.08503 0.0
H3542 H 0.04463 0.73177 0.99212 0.0
H3543 H 0.03573 0.70683 0.0004 0.0
H3544 H 0.06602 0.76078 0.00561 0.0
H3545 H 0.06415 0.77904 0.0206 0.0
C3546 C 0.29572 0.3262 0.05475 0.0
C3547 C 0.29646 0.32309 0.03333 0.0
C3548 C 0.26137 0.29506 0.0329 0.0
C3549 C 0.26068 0.29797 0.05468 0.0
N3550 N 0.28049 0.31116 0.08676 0.0
N3551 N 0.28182 0.30227 0.00254 0.0
C3552 C 0.27881 0.312 0.06578 0.0
C3553 C 0.27976 0.30695 0.0225 0.0
N3554 N 0.31112 0.343 0.06459 0.0
N3555 N 0.24458 0.28084 0.02206 0.0
H3556 H 0.29484 0.31088 0.99426 0.0
H3557 H 0.27128 0.28908 0.99457 0.0
H3558 H 0.23181 0.26941 0.0289 0.0
H3559 H 0.24314 0.28048 0.00603 0.0
H3560 H 0.31033 0.34729 0.07974 0.0
H3561 H 0.32383 0.35375 0.05701 0.0
H3562 H 0.29405 0.31971 0.09508 0.0
H3563 H 0.26927 0.30028 0.09576 0.0
C3564 C 0.69235 0.65416 0.39177 0.0
C3565 C 0.68174 0.65 0.37242 0.0
C3566 C 0.68062 0.61703 0.37043 0.0
C3567 C 0.69635 0.62424 0.38561 0.0
N3568 N 0.70671 0.64214 0.41842 0.0
N3569 N 0.66476 0.6265 0.34347 0.0
C3570 C 0.699 0.64056 0.39884 0.0
C3571 C 0.67506 0.6309 0.36202 0.0
N3572 N 0.6965 0.67136 0.40293 0.0
N3573 N 0.67026 0.59679 0.3651 0.0
H3574 H 0.6606 0.63625 0.33637 0.0
H3575 H 0.66166 0.6137 0.33442 0.0
H3576 H 0.67268 0.58619 0.37312 0.0
H3577 H 0.65763 0.59041 0.35512 0.0
H3578 H 0.7062 0.67668 0.41586 0.0
H3579 H 0.6904 0.68064 0.39891 0.0
H3580 H 0.7081 0.65295 0.42942 0.0
H3581 H 0.70965 0.63099 0.42434 0.0
C3582 C 0.32623 0.04449 0.39863 0.0
C3583 C 0.32291 0.03845 0.37085 0.0
C3584 C 0.32037 0.07824 0.36113 0.0
C3585 C 0.3291 0.08613 0.38834 0.0
N3586 N 0.32935 0.07288 0.42867 0.0
N3587 N 0.31723 0.05027 0.3319 0.0
C3588 C 0.32743 0.06784 0.40838 0.0
C3589 C 0.31952 0.05488 0.35236 0.0
N3590 N 0.32671 0.03122 0.4122 0.0
N3591 N 0.31798 0.09085 0.34817 0.0
H3592 H 0.31892 0.03839 0.32578 0.0
H3593 H 0.31521 0.05953 0.32138 0.0
H3594 H 0.31989 0.10475 0.3538 0.0
H3595 H 0.31403 0.08697 0.33262 0.0
H3596 H 0.32826 0.03447 0.42802 0.0
H3597 H 0.32563 0.01749 0.40745 0.0
H3598 H 0.32926 0.06302 0.43989 0.0
H3599 H 0.33084 0.08686 0.43336 0.0
C3600 C 0.94437 0.28867 0.38051 0.0
C3601 C 0.94876 0.29867 0.36134 0.0
C3602 C 0.91446 0.2936 0.35887 0.0
C3603 C 0.90899 0.27998 0.37556 0.0
N3604 N 0.92159 0.27674 0.40896 0.0
N3605 N 0.93826 0.31108 0.33204 0.0
C3606 C 0.92477 0.28099 0.3885 0.0
C3607 C 0.93393 0.3014 0.35049 0.0
N3608 N 0.95866 0.28587 0.39076 0.0
N3609 N 0.90188 0.30068 0.35253 0.0
H3610 H 0.95251 0.31746 0.32565 0.0
H3611 H 0.92734 0.31149 0.32241 0.0
H3612 H 0.88879 0.29729 0.36036 0.0
H3613 H 0.90571 0.31195 0.34159 0.0
H3614 H 0.95552 0.27661 0.40354 0.0
H3615 H 0.97331 0.29152 0.38556 0.0
H3616 H 0.93295 0.27872 0.41953 0.0
H3617 H 0.90836 0.27428 0.41593 0.0
C3618 C 0.98635 0.37275 0.31206 0.0
C3619 C 0.00034 0.36772 0.30323 0.0
C3620 C 0.00653 0.39207 0.27575 0.0
C3621 C 0.99652 0.40022 0.28746 0.0
N3622 N 0.96784 0.39123 0.30833 0.0
N3623 N 0.02158 0.37018 0.27509 0.0
C3624 C 0.98326 0.38802 0.30277 0.0
C3625 C 0.00946 0.37638 0.2843 0.0
N3626 N 0.97755 0.36455 0.33031 0.0
N3627 N 0.01198 0.39845 0.25611 0.0
H3628 H 0.02301 0.3579 0.28038 0.0
H3629 H 0.03072 0.37756 0.26276 0.0
H3630 H 0.00731 0.40767 0.24865 0.0
H3631 H 0.01846 0.39245 0.24625 0.0
H3632 H 0.96927 0.36964 0.33866 0.0
H3633 H 0.9795 0.35353 0.33793 0.0
H3634 H 0.95665 0.38191 0.31837 0.0
H3635 H 0.96491 0.4017 0.30075 0.0
C3636 C 0.61459 0.62323 0.28574 0.0
C3637 C 0.61283 0.63075 0.31235 0.0
C3638 C 0.56796 0.59422 0.31531 0.0
C3639 C 0.57277 0.58439 0.29094 0.0
N3640 N 0.59369 0.59468 0.25392 0.0
N3641 N 0.5882 0.6223 0.34638 0.0
C3642 C 0.59354 0.60066 0.27359 0.0
C3643 C 0.58948 0.61675 0.32678 0.0
N3644 N 0.63098 0.63484 0.27448 0.0
N3645 N 0.55049 0.58334 0.32517 0.0
H3646 H 0.60045 0.63367 0.35473 0.0
H3647 H 0.5749 0.61427 0.35439 0.0
H3648 H 0.53905 0.56979 0.31842 0.0
H3649 H 0.54795 0.58823 0.33934 0.0
H3650 H 0.63187 0.63058 0.25937 0.0
H3651 H 0.64299 0.6485 0.28013 0.0
H3652 H 0.60564 0.60335 0.24435 0.0
H3653 H 0.58153 0.58116 0.24797 0.0
C3654 C 0.35304 0.98037 0.29365 0.0
C3655 C 0.35367 0.99083 0.3122 0.0
C3656 C 0.38959 0.01432 0.30716 0.0
C3657 C 0.39003 0.00049 0.29237 0.0
N3658 N 0.36987 0.97192 0.26824 0.0
N3659 N 0.3736 0.01758 0.3376 0.0
C3660 C 0.37123 0.98419 0.28449 0.0
C3661 C 0.37213 0.00802 0.31909 0.0
N3662 N 0.33492 0.96633 0.2848 0.0
N3663 N 0.40545 0.03373 0.30927 0.0
H3664 H 0.36155 0.01327 0.34738 0.0
H3665 H 0.38736 0.02872 0.3441 0.0
H3666 H 0.41747 0.03957 0.29922 0.0
H3667 H 0.40517 0.0448 0.31884 0.0
H3668 H 0.33376 0.95792 0.27143 0.0
H3669 H 0.3212 0.96415 0.29019 0.0
H3670 H 0.38204 0.97345 0.25984 0.0
H3671 H 0.38204 0.97345 0.25984 0.0
C3672 C 0.64197 0.01671 0.27645 0.0
C3673 C 0.64167 0.01853 0.30449 0.0
C3674 C 0.61906 0.0441 0.30235 0.0
C3675 C 0.61487 0.03677 0.27437 0.0
N3676 N 0.62972 0.02655 0.23959 0.0
N3677 N 0.63308 0.0352 0.33816 0.0
C3678 C 0.63015 0.02769 0.26041 0.0
C3679 C 0.63117 0.03266 0.3174 0.0
N3680 N 0.65072 0.00684 0.26753 0.0
N3681 N 0.61137 0.05516 0.31082 0.0
H3682 H 0.64057 0.02927 0.34687 0.0
H3683 H 0.62732 0.04327 0.34599 0.0
H3684 H 0.61292 0.0586 0.32661 0.0
H3685 H 0.61292 0.0586 0.32661 0.0
H3686 H 0.65097 0.00559 0.25152 0.0
H3687 H 0.65705 0.99983 0.27639 0.0
H3688 H 0.63743 0.02047 0.23175 0.0
H3689 H 0.62162 0.03196 0.23107 0.0
C3690 C 0.00123 0.61908 0.3306 0.0
C3691 C 0.00973 0.6383 0.32123 0.0
C3692 C 0.99965 0.62161 0.28696 0.0
C3693 C 0.99088 0.60212 0.29651 0.0
N3694 N 0.99316 0.58405 0.3263 0.0
N3695 N 0.02122 0.6584 0.29073 0.0
C3696 C 0.99456 0.6013 0.31802 0.0
C3697 C 0.01017 0.63973 0.29945 0.0
N3698 N 0.99912 0.61768 0.3515 0.0
N3699 N 0.99809 0.62295 0.26605 0.0
H3700 H 0.02891 0.67196 0.29942 0.0
H3701 H 0.02416 0.66046 0.27507 0.0
H3702 H 0.99336 0.61064 0.25577 0.0
H3703 H 0.00104 0.63634 0.25874 0.0
H3704 H 0.99115 0.60377 0.35883 0.0
H3705 H 0.00362 0.63041 0.36124 0.0
H3706 H 0.99708 0.58335 0.34166 0.0
H3707 H 0.9913 0.57164 0.31732 0.0
C3708 C 0.39673 0.35772 0.32086 0.0
C3709 C 0.38473 0.36712 0.32318 0.0
C3710 C 0.41121 0.39837 0.30792 0.0
C3711 C 0.42346 0.38893 0.30571 0.0
N3712 N 0.4231 0.35663 0.30194 0.0
N3713 N 0.37794 0.39405 0.31375 0.0
C3714 C 0.41473 0.36765 0.30959 0.0
C3715 C 0.39125 0.38682 0.3153 0.0
N3716 N 0.39146 0.33962 0.33018 0.0
N3717 N 0.41836 0.4183 0.30292 0.0
H3718 H 0.36309 0.38593 0.31857 0.0
H3719 H 0.3809 0.40719 0.3059 0.0
H3720 H 0.43064 0.42646 0.29363 0.0
H3721 H 0.41186 0.42687 0.30799 0.0
H3722 H 0.40091 0.33327 0.33088 0.0
H3723 H 0.37862 0.332 0.33899 0.0
H3724 H 0.41614 0.34079 0.30277 0.0
H3725 H 0.43566 0.36277 0.29268 0.0
C3726 C 0.33719 0.27593 0.38073 0.0
C3727 C 0.34183 0.29642 0.3839 0.0
C3728 C 0.37443 0.30395 0.39981 0.0
C3729 C 0.37244 0.28589 0.39005 0.0
N3730 N 0.34967 0.25282 0.37357 0.0
N3731 N 0.36223 0.32825 0.40226 0.0
C3732 C 0.35312 0.27123 0.38138 0.0
C3733 C 0.35959 0.30983 0.3955 0.0
N3734 N 0.31756 0.26071 0.37858 0.0
N3735 N 0.39022 0.31535 0.4133 0.0
H3736 H 0.35044 0.3316 0.40187 0.0
H3737 H 0.37592 0.34019 0.40793 0.0
H3738 H 0.40148 0.31186 0.4171 0.0
H3739 H 0.39136 0.32741 0.4223 0.0
H3740 H 0.31332 0.24528 0.37771 0.0
H3741 H 0.30543 0.26312 0.38111 0.0
H3742 H 0.33722 0.24358 0.36394 0.0
H3743 H 0.35891 0.24652 0.37654 0.0
C3744 C 0.7145 0.06741 0.36141 0.0
C3745 C 0.70412 0.04936 0.37273 0.0
C3746 C 0.6986 0.06842 0.40031 0.0
C3747 C 0.70891 0.0866 0.38867 0.0
N3748 N 0.73497 0.10402 0.36377 0.0
N3749 N 0.69119 0.0334 0.40507 0.0
C3750 C 0.71957 0.08634 0.37102 0.0
C3751 C 0.69787 0.05015 0.39297 0.0
N3752 N 0.71858 0.0665 0.34112 0.0
N3753 N 0.68888 0.06822 0.41788 0.0
H3754 H 0.69033 0.0198 0.39991 0.0
H3755 H 0.68831 0.03354 0.42069 0.0
H3756 H 0.68992 0.0812 0.42485 0.0
H3757 H 0.67887 0.05486 0.42515 0.0
H3758 H 0.72443 0.07922 0.33175 0.0
H3759 H 0.71421 0.05278 0.33317 0.0
H3760 H 0.7439 0.10422 0.3517 0.0
H3761 H 0.74075 0.11799 0.3717 0.0
C3762 C 0.95559 0.66725 0.39224 0.0
C3763 C 0.96022 0.66198 0.37294 0.0
C3764 C 0.92563 0.63321 0.36892 0.0
C3765 C 0.92107 0.63806 0.38884 0.0
N3766 N 0.93497 0.65542 0.42207 0.0
N3767 N 0.9512 0.63844 0.3441 0.0
C3768 C 0.93697 0.65384 0.40129 0.0
C3769 C 0.94563 0.64463 0.36151 0.0
N3770 N 0.96896 0.68532 0.40191 0.0
N3771 N 0.91104 0.61749 0.35709 0.0
H3772 H 0.96551 0.6467 0.33794 0.0
H3773 H 0.94223 0.6245 0.33645 0.0
H3774 H 0.8974 0.60625 0.36271 0.0
H3775 H 0.91235 0.61562 0.34136 0.0
H3776 H 0.96542 0.69109 0.41489 0.0
H3777 H 0.98285 0.69554 0.39578 0.0
H3778 H 0.94693 0.66529 0.43191 0.0
H3779 H 0.92239 0.64538 0.43019 0.0
C3780 C 0.40407 0.01897 0.7063 0.0
C3781 C 0.37629 0.00762 0.70399 0.0
C3782 C 0.36974 0.96519 0.72065 0.0
C3783 C 0.39722 0.97921 0.72763 0.0
N3784 N 0.4352 0.01099 0.71707 0.0
N3785 N 0.33896 0.97221 0.70865 0.0
C3786 C 0.41511 0.004 0.71623 0.0
C3787 C 0.35928 0.98069 0.71051 0.0
N3788 N 0.41681 0.03853 0.70126 0.0
N3789 N 0.35808 0.9455 0.72572 0.0
H3790 H 0.33184 0.98052 0.70488 0.0
H3791 H 0.32956 0.95698 0.71223 0.0
H3792 H 0.36471 0.93768 0.73262 0.0
H3793 H 0.34254 0.93774 0.72273 0.0
H3794 H 0.43238 0.04453 0.70261 0.0
H3795 H 0.41209 0.0488 0.69718 0.0
H3796 H 0.44542 0.02508 0.71117 0.0
H3797 H 0.44077 0.00195 0.72331 0.0
C3798 C 0.02524 0.37826 0.73898 0.0
C3799 C 0.99962 0.36423 0.7276 0.0
C3800 C 0.98673 0.39327 0.75023 0.0
C3801 C 0.01421 0.41001 0.75635 0.0
N3802 N 0.0513 0.41158 0.76418 0.0
N3803 N 0.961 0.35907 0.72706 0.0
C3804 C 0.03265 0.40065 0.75542 0.0
C3805 C 0.98032 0.37106 0.73379 0.0
N3806 N 0.03871 0.37186 0.73568 0.0
N3807 N 0.97291 0.39827 0.75649 0.0
H3808 H 0.95658 0.34563 0.71859 0.0
H3809 H 0.94988 0.36278 0.73056 0.0
H3810 H 0.97742 0.41125 0.76585 0.0
H3811 H 0.95763 0.38916 0.75257 0.0
H3812 H 0.05332 0.37981 0.74206 0.0
H3813 H 0.03495 0.35876 0.72697 0.0
H3814 H 0.06204 0.4069 0.76291 0.0
H3815 H 0.05513 0.42498 0.77254 0.0
C3816 C 0.60795 0.62347 0.71053 0.0
C3817 C 0.61306 0.63208 0.69069 0.0
C3818 C 0.57729 0.61922 0.68218 0.0
C3819 C 0.57209 0.60783 0.70062 0.0
N3820 N 0.5826 0.61133 0.73653 0.0
N3821 N 0.60273 0.64115 0.65881 0.0
C3822 C 0.58744 0.6135 0.7162 0.0
C3823 C 0.59779 0.6309 0.67692 0.0
N3824 N 0.62248 0.62406 0.72373 0.0
N3825 N 0.56308 0.62015 0.66987 0.0
H3826 H 0.61763 0.65051 0.65454 0.0
H3827 H 0.59183 0.64038 0.64822 0.0
H3828 H 0.54789 0.61362 0.67354 0.0
H3829 H 0.54789 0.61362 0.67354 0.0
H3830 H 0.61907 0.61604 0.73743 0.0
H3831 H 0.63773 0.63108 0.72022 0.0
H3832 H 0.5934 0.61661 0.74856 0.0
H3833 H 0.56811 0.60733 0.74123 0.0
C3834 C 0.64829 0.69593 0.63047 0.0
C3835 C 0.66781 0.70698 0.63985 0.0
C3836 C 0.66455 0.73765 0.64125 0.0
C3837 C 0.64416 0.72629 0.63383 0.0
N3838 N 0.61543 0.69289 0.62529 0.0
N3839 N 0.69751 0.74026 0.64198 0.0
C3840 C 0.63571 0.70497 0.62922 0.0
C3841 C 0.67696 0.72848 0.6417 0.0
N3842 N 0.6423 0.6772 0.6216 0.0
N3843 N 0.67136 0.75686 0.64907 0.0
H3844 H 0.70691 0.73416 0.63906 0.0
H3845 H 0.70496 0.75614 0.64152 0.0
H3846 H 0.68535 0.76563 0.65663 0.0
H3847 H 0.68535 0.76563 0.65663 0.0
H3848 H 0.62899 0.66903 0.61279 0.0
H3849 H 0.65202 0.67117 0.62077 0.0
H3850 H 0.60836 0.67702 0.62428 0.0
H3851 H 0.6051 0.69815 0.62529 0.0
C3852 C 0.28641 0.95967 0.62544 0.0
C3853 C 0.31024 0.96864 0.63957 0.0
C3854 C 0.31114 0.92809 0.6297 0.0
C3855 C 0.28441 0.91772 0.62063 0.0
N3856 N 0.25659 0.92738 0.60179 0.0
N3857 N 0.34111 0.96146 0.651 0.0
C3858 C 0.27363 0.93438 0.61357 0.0
C3859 C 0.32296 0.95363 0.64106 0.0
N3860 N 0.27843 0.97211 0.62352 0.0
N3861 N 0.31968 0.91612 0.63075 0.0
H3862 H 0.3479 0.97602 0.65785 0.0
H3863 H 0.34861 0.95308 0.65225 0.0
H3864 H 0.31168 0.90105 0.62519 0.0
H3865 H 0.33425 0.92164 0.63692 0.0
H3866 H 0.26476 0.96731 0.61551 0.0
H3867 H 0.28582 0.9868 0.6301 0.0
H3868 H 0.25033 0.93664 0.59845 0.0
H3869 H 0.24971 0.91261 0.59542 0.0
C3870 C 0.05026 0.35942 0.66338 0.0
C3871 C 0.03545 0.34069 0.65395 0.0
C3872 C 0.05535 0.34943 0.62251 0.0
C3873 C 0.07165 0.36573 0.63373 0.0
N3874 N 0.07806 0.39318 0.65747 0.0
N3875 N 0.02225 0.31912 0.62327 0.0
C3876 C 0.0671 0.37301 0.65193 0.0
C3877 C 0.03743 0.33613 0.63302 0.0
N3878 N 0.04915 0.36372 0.68366 0.0
N3879 N 0.05625 0.34809 0.60155 0.0
H3880 H 0.00812 0.3103 0.62962 0.0
H3881 H 0.0238 0.31341 0.60914 0.0
H3882 H 0.0679 0.35951 0.59331 0.0
H3883 H 0.04445 0.33743 0.5921 0.0
H3884 H 0.06073 0.37626 0.69165 0.0
H3885 H 0.03762 0.35379 0.69299 0.0
H3886 H 0.07432 0.39965 0.66974 0.0
H3887 H 0.08917 0.40376 0.64805 0.0
C3888 C 0.284 0.33892 0.63385 0.0
C3889 C 0.30226 0.35165 0.64504 0.0
C3890 C 0.29489 0.37983 0.64418 0.0
C3891 C 0.27491 0.3658 0.63714 0.0
N3892 N 0.25501 0.3364 0.61498 0.0
N3893 N 0.32581 0.38446 0.66055 0.0
C3894 C 0.27081 0.3466 0.62875 0.0
C3895 C 0.30818 0.37235 0.64968 0.0
N3896 N 0.27902 0.3193 0.62871 0.0
N3897 N 0.30139 0.40028 0.64459 0.0
H3898 H 0.33615 0.3797 0.66455 0.0
H3899 H 0.32964 0.39878 0.66674 0.0
H3900 H 0.29243 0.40621 0.63909 0.0
H3901 H 0.31629 0.41139 0.64794 0.0
H3902 H 0.26482 0.30837 0.62298 0.0
H3903 H 0.28895 0.31364 0.63103 0.0
H3904 H 0.25193 0.32302 0.60711 0.0
H3905 H 0.24653 0.34283 0.60937 0.0
C3906 C 0.64651 0.96123 0.62213 0.0
C3907 C 0.65456 0.96316 0.64244 0.0
C3908 C 0.63375 0.92643 0.64652 0.0
C3909 C 0.62254 0.92486 0.6281 0.0
N3910 N 0.61904 0.9416 0.59761 0.0
N3911 N 0.65223 0.94822 0.67574 0.0
C3912 C 0.62929 0.94245 0.61549 0.0
C3913 C 0.64721 0.94595 0.65514 0.0
N3914 N 0.6553 0.97735 0.60921 0.0
N3915 N 0.63231 0.90944 0.65548 0.0
H3916 H 0.66129 0.96244 0.68296 0.0
H3917 H 0.64563 0.93619 0.68594 0.0
H3918 H 0.62465 0.89497 0.64847 0.0
H3919 H 0.6413 0.91024 0.66821 0.0
H3920 H 0.6518 0.9763 0.59346 0.0
H3921 H 0.66724 0.99152 0.61401 0.0
H3922 H 0.62153 0.9545 0.58957 0.0
H3923 H 0.60729 0.92824 0.59109 0.0
C3924 C 0.04158 0.70489 0.63414 0.0
C3925 C 0.03841 0.6995 0.65511 0.0
C3926 C 0.0731 0.70552 0.65897 0.0
C3927 C 0.07631 0.71091 0.63772 0.0
N3928 N 0.06023 0.70714 0.60384 0.0
N3929 N 0.04916 0.69026 0.68642 0.0
C3930 C 0.05954 0.70796 0.62489 0.0
C3931 C 0.05363 0.69863 0.66728 0.0
N3932 N 0.02768 0.70773 0.62311 0.0
N3933 N 0.08852 0.7068 0.67128 0.0
H3934 H 0.03512 0.68514 0.69299 0.0
H3935 H 0.05869 0.68687 0.69518 0.0
H3936 H 0.10194 0.70845 0.66565 0.0
H3937 H 0.08815 0.7065 0.68733 0.0
H3938 H 0.03036 0.714 0.60847 0.0
H3939 H 0.0143 0.70573 0.6293 0.0
H3940 H 0.04764 0.70294 0.59413 0.0
H3941 H 0.07243 0.70813 0.59595 0.0
C3942 C 0.98148 0.63605 0.73944 0.0
C3943 C 0.98493 0.63789 0.71797 0.0
C3944 C 0.00169 0.61733 0.72041 0.0
C3945 C 0.00123 0.6183 0.7423 0.0
N3946 N 0.98195 0.61947 0.77104 0.0
N3947 N 0.99903 0.63121 0.68776 0.0
C3948 C 0.98859 0.62504 0.75147 0.0
C3949 C 0.9952 0.62875 0.70837 0.0
N3950 N 0.97215 0.64556 0.74848 0.0
N3951 N 0.00651 0.60399 0.71105 0.0
H3952 H 0.99353 0.63838 0.67799 0.0
H3953 H 0.00883 0.62732 0.68059 0.0
H3954 H 0.00872 0.59334 0.71917 0.0
H3955 H 0.0054 0.60131 0.69514 0.0
H3956 H 0.97172 0.64731 0.76439 0.0
H3957 H 0.96598 0.653 0.74007 0.0
H3958 H 0.97125 0.62228 0.77782 0.0
H3959 H 0.9851 0.60979 0.77974 0.0
C3960 C 0.37813 0.40397 0.68976 0.0
C3961 C 0.36838 0.38647 0.70197 0.0
C3962 C 0.3616 0.40615 0.72781 0.0
C3963 C 0.37198 0.42397 0.71564 0.0
N3964 N 0.39814 0.44058 0.69057 0.0
N3965 N 0.35552 0.37196 0.73488 0.0
C3966 C 0.38285 0.42318 0.69838 0.0
C3967 C 0.36168 0.38794 0.72179 0.0
N3968 N 0.3818 0.40226 0.6695 0.0
N3969 N 0.35111 0.4062 0.74465 0.0
H3970 H 0.35539 0.35844 0.73081 0.0
H3971 H 0.35243 0.37281 0.75033 0.0
H3972 H 0.35133 0.41913 0.7507 0.0
H3973 H 0.34111 0.39295 0.7521 0.0
H3974 H 0.38728 0.41455 0.65958 0.0
H3975 H 0.37715 0.38822 0.66209 0.0
H3976 H 0.4071 0.44033 0.67874 0.0
H3977 H 0.40395 0.45485 0.69788 0.0
C3978 C 0.63237 0.01899 0.72214 0.0
C3979 C 0.63201 0.00496 0.70717 0.0
C3980 C 0.59589 0.98262 0.71197 0.0
C3981 C 0.59561 0.9981 0.72457 0.0
N3982 N 0.61486 0.02483 0.74991 0.0
N3983 N 0.61416 0.97196 0.68984 0.0
C3984 C 0.61429 0.01447 0.73224 0.0
C3985 C 0.61408 0.98627 0.70291 0.0
N3986 N 0.64985 0.03687 0.72634 0.0
N3987 N 0.57925 0.96396 0.70881 0.0
H3988 H 0.6272 0.97387 0.68285 0.0
H3989 H 0.60113 0.95817 0.68608 0.0
H3990 H 0.56561 0.95917 0.7161 0.0
H3991 H 0.56561 0.95917 0.7161 0.0
H3992 H 0.65045 0.04881 0.73517 0.0
H3993 H 0.66361 0.04027 0.71998 0.0
H3994 H 0.6282 0.03589 0.75717 0.0
H3995 H 0.60218 0.02039 0.75886 0.0
loop_
_geom_bond_atom_site_label_1
_geom_bond_atom_site_label_2
_geom_bond_distance
_geom_bond_site_symmetry_2
_ccdc_geom_bond_type
Mn0 O5 2.095 1_655 S
Mn0 O15 2.162 . S
Mn0 O16 2.297 1_554 S
Mn0 O24 2.385 1_554 S
Mn0 O25 2.209 1_654 S
Mn0 O26 2.094 . S
Mn1 O6 2.121 . S
Mn1 N8 2.257 1_554 S
Mn1 N17 2.282 . S
Mn1 O25 2.215 1_554 S
Mn1 O27 2.117 . S
C2 O24 1.234 1_455 S
C2 O25 1.283 . S
C3 O15 1.281 1_556 S
C3 O16 1.236 . S
C4 O26 1.240 . S
C4 O27 1.264 1_655 S
O5 Mn0 2.095 1_455 S
O5 C14 1.250 . S
O6 Mn1 2.121 . S
O6 C14 1.258 . S
C7 N8 1.326 . S
C7 C11 1.460 . S
C7 H13 0.931 . S
N8 Mn1 2.257 1_556 S
N8 C7 1.326 . S
N8 C12 1.362 . S
C9 C10 1.258 . S
C9 C12 1.431 . S
C9 C29 1.449 . S
C10 C9 1.258 . S
C10 C11 1.477 . S
C10 H30 0.931 . S
C11 C7 1.460 . S
C11 C10 1.477 . S
C11 H31 0.930 . S
C12 N8 1.362 . S
C12 C9 1.431 . S
C12 C22 1.476 . S
H13 C7 0.931 . S
C14 O5 1.250 . S
C14 O6 1.258 . S
O15 Mn0 2.162 . S
O15 C3 1.281 1_554 S
O16 Mn0 2.297 1_556 S
O16 C3 1.236 . S
N17 Mn1 2.282 . S
N17 C18 1.328 . S
N17 C22 1.318 1_554 S
C18 N17 1.328 . S
C18 C19 1.457 1_554 S
C18 H23 0.929 . S
C19 C18 1.457 1_556 S
C19 C20 1.291 . S
C19 H32 0.931 1_556 S
C20 C19 1.291 . S
C20 C21 1.373 . S
C20 H33 0.929 . S
C21 C20 1.373 . S
C21 C22 1.396 . S
C21 C28 1.403 . S
C22 C12 1.476 . S
C22 N17 1.318 1_556 S
C22 C21 1.396 . S
H23 C18 0.929 . S
O24 Mn0 2.385 1_556 S
O24 C2 1.234 1_655 S
O25 Mn0 2.209 1_456 S
O25 Mn1 2.215 1_556 S
O25 C2 1.283 . S
O26 Mn0 2.094 . S
O26 C4 1.240 . S
O27 Mn1 2.117 . S
O27 C4 1.264 1_455 S
C28 C21 1.403 . S
C28 C29 1.399 . S
C28 H34 0.929 . S
C29 C9 1.449 . S
C29 C28 1.399 . S
C29 H35 0.930 . S
H30 C10 0.931 . S
H31 C11 0.930 . S
H32 C19 0.931 1_554 S
H33 C20 0.929 . S
H34 C28 0.929 . S
H35 C29 0.930 . S
Mn36 O41 2.095 1_554 S
Mn36 O51 2.162 . S
Mn36 O52 2.297 . S
Mn36 O60 2.385 . S
Mn36 O61 2.209 . S
Mn36 O62 2.094 1_554 S
Mn37 O42 2.121 1_554 S
Mn37 N44 2.257 . S
Mn37 N53 2.282 . S
Mn37 O61 2.215 . S
Mn37 O63 2.117 1_554 S
C38 O60 1.234 . S
C38 O61 1.283 . S
C39 O51 1.281 . S
C39 O52 1.236 . S
C40 O62 1.240 . S
C40 O63 1.264 . S
O41 Mn36 2.095 1_556 S
O41 C50 1.250 . S
O42 Mn37 2.121 1_556 S
O42 C50 1.258 . S
C43 N44 1.326 . S
C43 C47 1.460 . S
C43 H49 0.929 . S
N44 Mn37 2.257 . S
N44 C43 1.326 . S
N44 C48 1.362 . S
C45 C46 1.258 . S
C45 C48 1.431 . S
C45 C65 1.449 . S
C46 C45 1.258 . S
C46 C47 1.477 . S
C46 H66 0.931 . S
C47 C43 1.460 . S
C47 C46 1.477 . S
C47 H67 0.930 . S
C48 N44 1.362 . S
C48 C45 1.431 . S
C48 C58 1.476 . S
H49 C43 0.929 . S
C50 O41 1.250 . S
C50 O42 1.258 . S
O51 Mn36 2.162 . S
O51 C39 1.281 . S
O52 Mn36 2.297 . S
O52 C39 1.236 . S
N53 Mn37 2.282 . S
N53 C54 1.328 . S
N53 C58 1.318 . S
C54 N53 1.328 . S
C54 C55 1.457 . S
C54 H59 0.929 . S
C55 C54 1.457 . S
C55 C56 1.291 . S
C55 H68 0.931 . S
C56 C55 1.291 . S
C56 C57 1.373 . S
C56 H69 0.929 . S
C57 C56 1.373 . S
C57 C58 1.396 . S
C57 C64 1.403 . S
C58 C48 1.476 . S
C58 N53 1.318 . S
C58 C57 1.396 . S
H59 C54 0.929 . S
O60 Mn36 2.385 . S
O60 C38 1.234 . S
O61 Mn36 2.209 . S
O61 Mn37 2.215 . S
O61 C38 1.283 . S
O62 Mn36 2.094 1_556 S
O62 C40 1.240 . S
O63 Mn37 2.117 1_556 S
O63 C40 1.264 . S
C64 C57 1.403 . S
C64 C65 1.399 . S
C64 H70 0.929 . S
C65 C45 1.449 . S
C65 C64 1.399 . S
C65 H71 0.930 . S
H66 C46 0.931 . S
H67 C47 0.930 . S
H68 C55 0.931 . S
H69 C56 0.929 . S
H70 C64 0.929 . S
H71 C65 0.930 . S
Mn72 O77 2.095 1_564 S
Mn72 O87 2.162 . S
Mn72 O88 2.297 . S
Mn72 O96 2.385 . S
Mn72 O97 2.209 1_565 S
Mn72 O98 2.094 1_554 S
Mn73 O78 2.117 1_554 S
Mn73 N80 2.273 . S
Mn73 N89 2.292 . S
Mn73 O97 2.235 . S
Mn73 O99 2.102 1_554 S
C74 O96 1.234 1_545 S
C74 O97 1.283 . S
C75 O87 1.281 . S
C75 O88 1.236 . S
C76 O98 1.240 . S
C76 O99 1.264 1_565 S
O77 Mn72 2.095 1_546 S
O77 C86 1.250 . S
O78 Mn73 2.117 1_556 S
O78 C86 1.258 . S
C79 N80 1.326 . S
C79 C83 1.460 . S
C79 H85 0.929 . S
N80 Mn73 2.273 . S
N80 C79 1.326 . S
N80 C84 1.362 . S
C81 C82 1.258 . S
C81 C84 1.431 . S
C81 C101 1.449 . S
C82 C81 1.258 . S
C82 C83 1.477 . S
C82 H102 0.931 . S
C83 C79 1.460 . S
C83 C82 1.477 . S
C83 H103 0.930 . S
C84 N80 1.362 . S
C84 C81 1.431 . S
C84 C94 1.476 . S
H85 C79 0.929 . S
C86 O77 1.250 . S
C86 O78 1.258 . S
O87 Mn72 2.162 . S
O87 C75 1.281 . S
O88 Mn72 2.297 . S
O88 C75 1.236 . S
N89 Mn73 2.292 . S
N89 C90 1.328 . S
N89 C94 1.318 . S
C90 N89 1.328 . S
C90 C91 1.457 . S
C90 H95 0.929 . S
C91 C90 1.457 . S
C91 C92 1.291 . S
C91 H104 0.931 . S
C92 C91 1.291 . S
C92 C93 1.373 . S
C92 H105 0.929 . S
C93 C92 1.373 . S
C93 C94 1.396 . S
C93 C100 1.403 . S
C94 C84 1.476 . S
C94 N89 1.318 . S
C94 C93 1.396 . S
H95 C90 0.929 . S
O96 Mn72 2.385 . S
O96 C74 1.234 1_565 S
O97 Mn72 2.209 1_545 S
O97 Mn73 2.235 . S
O97 C74 1.283 . S
O98 Mn72 2.094 1_556 S
O98 C76 1.240 . S
O99 Mn73 2.102 1_556 S
O99 C76 1.264 1_545 S
C100 C93 1.403 . S
C100 C101 1.399 . S
C100 H106 0.929 . S
C101 C81 1.449 . S
C101 C100 1.399 . S
C101 H107 0.930 . S
H102 C82 0.931 . S
H103 C83 0.930 . S
H104 C91 0.931 . S
H105 C92 0.929 . S
H106 C100 0.929 . S
H107 C101 0.930 . S
Mn108 O113 2.095 1_655 S
Mn108 O123 2.162 . S
Mn108 O124 2.297 1_554 S
Mn108 O132 2.385 1_554 S
Mn108 O133 2.209 1_654 S
Mn108 O134 2.094 . S
Mn109 O114 2.121 . S
Mn109 N116 2.257 . S
Mn109 N125 2.282 . S
Mn109 O133 2.215 1_554 S
Mn109 O135 2.117 . S
C110 O132 1.234 1_455 S
C110 O133 1.283 . S
C111 O123 1.281 1_556 S
C111 O124 1.236 . S
C112 O134 1.240 . S
C112 O135 1.264 1_655 S
O113 Mn108 2.095 1_455 S
O113 C122 1.250 . S
O114 Mn109 2.121 . S
O114 C122 1.258 . S
C115 N116 1.326 1_556 S
C115 C119 1.460 . S
C115 H121 0.929 1_556 S
N116 Mn109 2.257 . S
N116 C115 1.326 1_554 S
N116 C120 1.362 1_554 S
C117 C118 1.258 . S
C117 C120 1.431 . S
C117 C137 1.449 . S
C118 C117 1.258 . S
C118 C119 1.477 . S
C118 H138 0.931 . S
C119 C115 1.460 . S
C119 C118 1.477 . S
C119 H139 0.930 . S
C120 N116 1.362 1_556 S
C120 C117 1.431 . S
C120 C130 1.476 . S
H121 C115 0.929 1_554 S
C122 O113 1.250 . S
C122 O114 1.258 . S
O123 Mn108 2.162 . S
O123 C111 1.281 1_554 S
O124 Mn108 2.297 1_556 S
O124 C111 1.236 . S
N125 Mn109 2.282 . S
N125 C126 1.328 . S
N125 C130 1.318 1_554 S
C126 N125 1.328 . S
C126 C127 1.457 . S
C126 H131 0.929 . S
C127 C126 1.457 . S
C127 C128 1.291 1_554 S
C127 H140 0.931 . S
C128 C127 1.291 1_556 S
C128 C129 1.373 . S
C128 H141 0.929 . S
C129 C128 1.373 . S
C129 C130 1.396 . S
C129 C136 1.403 . S
C130 C120 1.476 . S
C130 N125 1.318 1_556 S
C130 C129 1.396 . S
H131 C126 0.929 . S
O132 Mn108 2.385 1_556 S
O132 C110 1.234 1_655 S
O133 Mn108 2.209 1_456 S
O133 Mn109 2.215 1_556 S
O133 C110 1.283 . S
O134 Mn108 2.094 . S
O134 C112 1.240 . S
O135 Mn109 2.117 . S
O135 C112 1.264 1_455 S
C136 C129 1.403 . S
C136 C137 1.399 . S
C136 H142 0.929 . S
C137 C117 1.449 . S
C137 C136 1.399 . S
C137 H143 0.930 . S
H138 C118 0.931 . S
H139 C119 0.930 . S
H140 C127 0.931 . S
H141 C128 0.929 . S
H142 C136 0.929 . S
H143 C137 0.930 . S
Mn144 O149 2.095 1_554 S
Mn144 O159 2.162 . S
Mn144 O160 2.297 . S
Mn144 O168 2.385 . S
Mn144 O169 2.209 . S
Mn144 O170 2.094 1_554 S
Mn145 O150 2.121 . S
Mn145 N152 2.257 1_556 S
Mn145 N161 2.282 1_556 S
Mn145 O169 2.215 1_556 S
Mn145 O171 2.117 . S
C146 O168 1.234 . S
C146 O169 1.283 . S
C147 O159 1.281 . S
C147 O160 1.236 . S
C148 O170 1.240 . S
C148 O171 1.264 . S
O149 Mn144 2.095 1_556 S
O149 C158 1.250 . S
O150 Mn145 2.121 . S
O150 C158 1.258 . S
C151 N152 1.326 . S
C151 C155 1.460 . S
C151 H157 0.929 . S
N152 Mn145 2.257 1_554 S
N152 C151 1.326 . S
N152 C156 1.362 . S
C153 C154 1.258 . S
C153 C156 1.431 . S
C153 C173 1.449 . S
C154 C153 1.258 . S
C154 C155 1.477 . S
C154 H174 0.931 . S
C155 C151 1.460 . S
C155 C154 1.477 . S
C155 H175 0.930 . S
C156 N152 1.362 . S
C156 C153 1.431 . S
C156 C166 1.476 . S
H157 C151 0.929 . S
C158 O149 1.250 . S
C158 O150 1.258 . S
O159 Mn144 2.162 . S
O159 C147 1.281 . S
O160 Mn144 2.297 . S
O160 C147 1.236 . S
N161 Mn145 2.282 1_554 S
N161 C162 1.328 . S
N161 C166 1.318 . S
C162 N161 1.328 . S
C162 C163 1.457 . S
C162 H167 0.929 1_554 S
C163 C162 1.457 . S
C163 C164 1.291 . S
C163 H176 0.931 . S
C164 C163 1.291 . S
C164 C165 1.373 . S
C164 H177 0.929 . S
C165 C164 1.373 . S
C165 C166 1.396 . S
C165 C172 1.403 . S
C166 C156 1.476 . S
C166 N161 1.318 . S
C166 C165 1.396 . S
H167 C162 0.929 1_556 S
O168 Mn144 2.385 . S
O168 C146 1.234 . S
O169 Mn144 2.209 . S
O169 Mn145 2.215 1_554 S
O169 C146 1.283 . S
O170 Mn144 2.094 1_556 S
O170 C148 1.240 . S
O171 Mn145 2.117 . S
O171 C148 1.264 . S
C172 C165 1.403 . S
C172 C173 1.399 . S
C172 H178 0.929 . S
C173 C153 1.449 . S
C173 C172 1.399 . S
C173 H179 0.930 . S
H174 C154 0.931 . S
H175 C155 0.930 . S
H176 C163 0.931 . S
H177 C164 0.929 . S
H178 C172 0.929 . S
H179 C173 0.930 . S
Mn180 O185 2.095 1_545 S
Mn180 O195 2.162 . S
Mn180 O196 2.297 1_554 S
Mn180 O204 2.385 1_554 S
Mn180 O205 2.209 1_544 S
Mn180 O206 2.094 . S
Mn181 O186 2.121 . S
Mn181 N188 2.257 . S
Mn181 N197 2.282 . S
Mn181 O205 2.215 1_554 S
Mn181 O207 2.117 . S
C182 O204 1.234 1_565 S
C182 O205 1.283 . S
C183 O195 1.281 1_556 S
C183 O196 1.236 . S
C184 O206 1.240 . S
C184 O207 1.264 1_545 S
O185 Mn180 2.095 1_565 S
O185 C194 1.250 . S
O186 Mn181 2.121 . S
O186 C194 1.258 . S
C187 N188 1.326 1_556 S
C187 C191 1.460 . S
C187 H193 0.929 1_556 S
N188 Mn181 2.257 . S
N188 C187 1.326 1_554 S
N188 C192 1.362 1_554 S
C189 C190 1.258 . S
C189 C192 1.431 . S
C189 C209 1.449 . S
C190 C189 1.258 . S
C190 C191 1.477 . S
C190 H210 0.931 . S
C191 C187 1.460 . S
C191 C190 1.477 . S
C191 H211 0.930 . S
C192 N188 1.362 1_556 S
C192 C189 1.431 . S
C192 C202 1.476 . S
H193 C187 0.929 1_554 S
C194 O185 1.250 . S
C194 O186 1.258 . S
O195 Mn180 2.162 . S
O195 C183 1.281 1_554 S
O196 Mn180 2.297 1_556 S
O196 C183 1.236 . S
N197 Mn181 2.282 . S
N197 C198 1.328 . S
N197 C202 1.318 1_554 S
C198 N197 1.328 . S
C198 C199 1.478 . S
C198 H203 0.929 . S
C199 C198 1.478 . S
C199 C200 1.265 1_554 S
C199 H212 0.937 . S
C200 C199 1.265 1_556 S
C200 C201 1.373 . S
C200 H213 0.929 . S
C201 C200 1.373 . S
C201 C202 1.396 . S
C201 C208 1.403 . S
C202 C192 1.476 . S
C202 N197 1.318 1_556 S
C202 C201 1.396 . S
H203 C198 0.929 . S
O204 Mn180 2.385 1_556 S
O204 C182 1.234 1_545 S
O205 Mn180 2.209 1_566 S
O205 Mn181 2.215 1_556 S
O205 C182 1.283 . S
O206 Mn180 2.094 . S
O206 C184 1.240 . S
O207 Mn181 2.117 . S
O207 C184 1.264 1_565 S
C208 C201 1.403 . S
C208 C209 1.399 . S
C208 H214 0.929 . S
C209 C189 1.449 . S
C209 C208 1.399 . S
C209 H215 0.930 . S
H210 C190 0.931 . S
H211 C191 0.930 . S
H212 C199 0.937 . S
H213 C200 0.929 . S
H214 C208 0.929 . S
H215 C209 0.930 . S
Mn216 O221 2.095 . S
Mn216 O231 2.162 . S
Mn216 O232 2.297 . S
Mn216 O240 2.385 . S
Mn216 O241 2.209 . S
Mn216 O242 2.094 . S
Mn217 O222 2.121 . S
Mn217 N224 2.257 . S
Mn217 N233 2.282 . S
Mn217 O241 2.215 . S
Mn217 O243 2.117 . S
C218 O240 1.234 . S
C218 O241 1.283 . S
C219 O231 1.281 . S
C219 O232 1.236 . S
C220 O242 1.240 . S
C220 O243 1.264 . S
O221 Mn216 2.095 . S
O221 C230 1.250 . S
O222 Mn217 2.121 . S
O222 C230 1.258 . S
C223 N224 1.326 . S
C223 C227 1.460 . S
C223 H229 0.929 . S
N224 Mn217 2.257 . S
N224 C223 1.326 . S
N224 C228 1.362 . S
C225 C226 1.258 . S
C225 C228 1.431 . S
C225 C245 1.449 . S
C226 C225 1.258 . S
C226 C227 1.477 . S
C226 H246 0.931 . S
C227 C223 1.460 . S
C227 C226 1.477 . S
C227 H247 0.930 . S
C228 N224 1.362 . S
C228 C225 1.431 . S
C228 C238 1.476 . S
H229 C223 0.929 . S
C230 O221 1.250 . S
C230 O222 1.258 . S
O231 Mn216 2.162 . S
O231 C219 1.281 . S
O232 Mn216 2.297 . S
O232 C219 1.236 . S
N233 Mn217 2.282 . S
N233 C234 1.328 . S
N233 C238 1.318 . S
C234 N233 1.328 . S
C234 C235 1.457 . S
C234 H239 0.929 . S
C235 C234 1.457 . S
C235 C236 1.291 . S
C235 H248 0.931 . S
C236 C235 1.291 . S
C236 C237 1.373 . S
C236 H249 0.929 . S
C237 C236 1.373 . S
C237 C238 1.396 . S
C237 C244 1.403 . S
C238 C228 1.476 . S
C238 N233 1.318 . S
C238 C237 1.396 . S
H239 C234 0.929 . S
O240 Mn216 2.385 . S
O240 C218 1.234 . S
O241 Mn216 2.209 . S
O241 Mn217 2.215 . S
O241 C218 1.283 . S
O242 Mn216 2.094 . S
O242 C220 1.240 . S
O243 Mn217 2.117 . S
O243 C220 1.264 . S
C244 C237 1.403 . S
C244 C245 1.399 . S
C244 H250 0.929 . S
C245 C225 1.449 . S
C245 C244 1.399 . S
C245 H251 0.930 . S
H246 C226 0.931 . S
H247 C227 0.930 . S
H248 C235 0.931 . S
H249 C236 0.929 . S
H250 C244 0.929 . S
H251 C245 0.930 . S
Mn252 O257 2.095 . S
Mn252 O267 2.162 1_565 S
Mn252 O268 2.297 1_565 S
Mn252 O276 2.385 . S
Mn252 O277 2.209 . S
Mn252 O278 2.094 . S
Mn253 O258 2.121 . S
Mn253 N260 2.257 . S
Mn253 N269 2.282 . S
Mn253 O277 2.215 . S
Mn253 O279 2.117 . S
C254 O276 1.234 . S
C254 O277 1.283 . S
C255 O267 1.281 . S
C255 O268 1.236 . S
C256 O278 1.240 . S
C256 O279 1.264 . S
O257 Mn252 2.095 . S
O257 C266 1.250 . S
O258 Mn253 2.121 . S
O258 C266 1.258 . S
C259 N260 1.326 . S
C259 C263 1.460 . S
C259 H265 0.929 . S
N260 Mn253 2.257 . S
N260 C259 1.326 . S
N260 C264 1.362 . S
C261 C262 1.258 . S
C261 C264 1.431 . S
C261 C281 1.449 . S
C262 C261 1.258 . S
C262 C263 1.477 . S
C262 H282 0.931 . S
C263 C259 1.460 . S
C263 C262 1.477 . S
C263 H283 0.930 . S
C264 N260 1.362 . S
C264 C261 1.431 . S
C264 C274 1.476 . S
H265 C259 0.929 . S
C266 O257 1.250 . S
C266 O258 1.258 . S
O267 Mn252 2.162 1_545 S
O267 C255 1.281 . S
O268 Mn252 2.297 1_545 S
O268 C255 1.236 . S
N269 Mn253 2.282 . S
N269 C270 1.328 . S
N269 C274 1.318 . S
C270 N269 1.328 . S
C270 C271 1.457 . S
C270 H275 0.929 . S
C271 C270 1.457 . S
C271 C272 1.291 . S
C271 H284 0.931 . S
C272 C271 1.291 . S
C272 C273 1.373 . S
C272 H285 0.929 . S
C273 C272 1.373 . S
C273 C274 1.396 . S
C273 C280 1.403 . S
C274 C264 1.476 . S
C274 N269 1.318 . S
C274 C273 1.396 . S
H275 C270 0.929 . S
O276 Mn252 2.385 . S
O276 C254 1.234 . S
O277 Mn252 2.209 . S
O277 Mn253 2.215 . S
O277 C254 1.283 . S
O278 Mn252 2.094 . S
O278 C256 1.240 . S
O279 Mn253 2.117 . S
O279 C256 1.264 . S
C280 C273 1.403 . S
C280 C281 1.399 . S
C280 H286 0.929 . S
C281 C261 1.449 . S
C281 C280 1.399 . S
C281 H287 0.930 . S
H282 C262 0.931 . S
H283 C263 0.930 . S
H284 C271 0.931 . S
H285 C272 0.929 . S
H286 C280 0.929 . S
H287 C281 0.930 . S
Mn288 O293 2.095 . S
Mn288 O303 2.162 1_455 S
Mn288 O304 2.297 1_455 S
Mn288 O312 2.385 . S
Mn288 O313 2.209 . S
Mn288 O314 2.094 . S
Mn289 O294 2.121 . S
Mn289 N296 2.257 . S
Mn289 N305 2.282 . S
Mn289 O313 2.215 . S
Mn289 O315 2.117 . S
C290 O312 1.234 . S
C290 O313 1.283 . S
C291 O303 1.281 . S
C291 O304 1.236 . S
C292 O314 1.240 . S
C292 O315 1.264 . S
O293 Mn288 2.095 . S
O293 C302 1.250 . S
O294 Mn289 2.121 . S
O294 C302 1.258 . S
C295 N296 1.326 . S
C295 C299 1.460 . S
C295 H301 0.929 . S
N296 Mn289 2.257 . S
N296 C295 1.326 . S
N296 C300 1.362 . S
C297 C298 1.258 . S
C297 C300 1.431 . S
C297 C317 1.449 . S
C298 C297 1.258 . S
C298 C299 1.477 . S
C298 H318 0.931 . S
C299 C295 1.460 . S
C299 C298 1.477 . S
C299 H319 0.930 . S
C300 N296 1.362 . S
C300 C297 1.431 . S
C300 C310 1.476 . S
H301 C295 0.929 . S
C302 O293 1.250 . S
C302 O294 1.258 . S
O303 Mn288 2.162 1_655 S
O303 C291 1.281 . S
O304 Mn288 2.297 1_655 S
O304 C291 1.236 . S
N305 Mn289 2.282 . S
N305 C306 1.328 . S
N305 C310 1.318 . S
C306 N305 1.328 . S
C306 C307 1.457 . S
C306 H311 0.929 . S
C307 C306 1.457 . S
C307 C308 1.291 . S
C307 H320 0.931 . S
C308 C307 1.291 . S
C308 C309 1.373 . S
C308 H321 0.929 . S
C309 C308 1.373 . S
C309 C310 1.396 . S
C309 C316 1.403 . S
C310 C300 1.476 . S
C310 N305 1.318 . S
C310 C309 1.396 . S
H311 C306 0.929 . S
O312 Mn288 2.385 . S
O312 C290 1.234 . S
O313 Mn288 2.209 . S
O313 Mn289 2.215 . S
O313 C290 1.283 . S
O314 Mn288 2.094 . S
O314 C292 1.240 . S
O315 Mn289 2.117 . S
O315 C292 1.264 . S
C316 C309 1.403 . S
C316 C317 1.399 . S
C316 H322 0.929 . S
C317 C297 1.449 . S
C317 C316 1.399 . S
C317 H323 0.930 . S
H318 C298 0.931 . S
H319 C299 0.930 . S
H320 C307 0.931 . S
H321 C308 0.929 . S
H322 C316 0.929 . S
H323 C317 0.930 . S
Mn324 O329 2.059 1_565 S
Mn324 O339 2.162 . S
Mn324 O340 2.297 . S
Mn324 O348 2.385 . S
Mn324 O349 2.209 . S
Mn324 O350 2.094 . S
Mn325 O330 2.121 1_565 S
Mn325 N332 2.257 . S
Mn325 N341 2.282 . S
Mn325 O349 2.215 . S
Mn325 O351 2.117 . S
C326 O348 1.234 . S
C326 O349 1.283 . S
C327 O339 1.281 . S
C327 O340 1.236 . S
C328 O350 1.240 . S
C328 O351 1.264 . S
O329 Mn324 2.059 1_545 S
O329 C338 1.266 . S
O330 Mn325 2.121 1_545 S
O330 C338 1.258 . S
C331 N332 1.326 1_545 S
C331 C335 1.460 . S
C331 H337 0.929 . S
N332 Mn325 2.257 . S
N332 C331 1.326 1_565 S
N332 C336 1.362 . S
C333 C334 1.258 1_565 S
C333 C336 1.431 . S
C333 C353 1.449 . S
C334 C333 1.258 1_545 S
C334 C335 1.477 . S
C334 H354 0.931 . S
C335 C331 1.460 . S
C335 C334 1.477 . S
C335 H355 0.930 . S
C336 N332 1.362 . S
C336 C333 1.431 . S
C336 C346 1.476 . S
H337 C331 0.929 . S
C338 O329 1.266 . S
C338 O330 1.258 . S
O339 Mn324 2.162 . S
O339 C327 1.281 . S
O340 Mn324 2.297 . S
O340 C327 1.236 . S
N341 Mn325 2.282 . S
N341 C342 1.328 . S
N341 C346 1.318 . S
C342 N341 1.328 . S
C342 C343 1.457 . S
C342 H347 0.929 . S
C343 C342 1.457 . S
C343 C344 1.291 . S
C343 H356 0.931 . S
C344 C343 1.291 . S
C344 C345 1.373 . S
C344 H357 0.929 . S
C345 C344 1.373 . S
C345 C346 1.396 . S
C345 C352 1.403 . S
C346 C336 1.476 . S
C346 N341 1.318 . S
C346 C345 1.396 . S
H347 C342 0.929 . S
O348 Mn324 2.385 . S
O348 C326 1.234 . S
O349 Mn324 2.209 . S
O349 Mn325 2.215 . S
O349 C326 1.283 . S
O350 Mn324 2.094 . S
O350 C328 1.240 . S
O351 Mn325 2.117 . S
O351 C328 1.264 . S
C352 C345 1.403 . S
C352 C353 1.399 . S
C352 H358 0.929 . S
C353 C333 1.449 . S
C353 C352 1.399 . S
C353 H359 0.930 . S
H354 C334 0.931 . S
H355 C335 0.930 . S
H356 C343 0.931 . S
H357 C344 0.929 . S
H358 C352 0.929 . S
H359 C353 0.930 . S
Mn360 O365 2.095 . S
Mn360 O375 2.162 1_455 S
Mn360 O376 2.297 1_455 S
Mn360 O384 2.385 . S
Mn360 O385 2.209 . S
Mn360 O386 2.094 . S
Mn361 O366 2.121 . S
Mn361 N368 2.257 . S
Mn361 N377 2.282 . S
Mn361 O385 2.215 . S
Mn361 O387 2.117 . S
C362 O384 1.234 . S
C362 O385 1.283 . S
C363 O375 1.281 . S
C363 O376 1.236 . S
C364 O386 1.240 . S
C364 O387 1.264 . S
O365 Mn360 2.095 . S
O365 C374 1.250 . S
O366 Mn361 2.121 . S
O366 C374 1.258 . S
C367 N368 1.326 . S
C367 C371 1.460 . S
C367 H373 0.929 . S
N368 Mn361 2.257 . S
N368 C367 1.326 . S
N368 C372 1.362 . S
C369 C370 1.258 . S
C369 C372 1.431 . S
C369 C389 1.449 . S
C370 C369 1.258 . S
C370 C371 1.477 . S
C370 H390 0.931 . S
C371 C367 1.460 . S
C371 C370 1.477 . S
C371 H391 0.930 . S
C372 N368 1.362 . S
C372 C369 1.431 . S
C372 C382 1.476 . S
H373 C367 0.929 . S
C374 O365 1.250 . S
C374 O366 1.258 . S
O375 Mn360 2.162 1_655 S
O375 C363 1.281 . S
O376 Mn360 2.297 1_655 S
O376 C363 1.236 . S
N377 Mn361 2.282 . S
N377 C378 1.328 . S
N377 C382 1.318 . S
C378 N377 1.328 . S
C378 C379 1.457 . S
C378 H383 0.929 . S
C379 C378 1.457 . S
C379 C380 1.291 . S
C379 H392 0.931 . S
C380 C379 1.291 . S
C380 C381 1.373 . S
C380 H393 0.929 . S
C381 C380 1.373 . S
C381 C382 1.396 . S
C381 C388 1.403 . S
C382 C372 1.476 . S
C382 N377 1.318 . S
C382 C381 1.396 . S
H383 C378 0.929 . S
O384 Mn360 2.385 . S
O384 C362 1.234 . S
O385 Mn360 2.209 . S
O385 Mn361 2.215 . S
O385 C362 1.283 . S
O386 Mn360 2.094 . S
O386 C364 1.240 . S
O387 Mn361 2.117 . S
O387 C364 1.264 . S
C388 C381 1.403 . S
C388 C389 1.399 . S
C388 H394 0.929 . S
C389 C369 1.449 . S
C389 C388 1.399 . S
C389 H395 0.930 . S
H390 C370 0.931 . S
H391 C371 0.930 . S
H392 C379 0.931 . S
H393 C380 0.929 . S
H394 C388 0.929 . S
H395 C389 0.930 . S
Mn396 O401 2.095 . S
Mn396 O411 2.162 . S
Mn396 O412 2.297 . S
Mn396 O420 2.385 . S
Mn396 O421 2.209 . S
Mn396 O422 2.094 . S
Mn397 O402 2.121 . S
Mn397 N404 2.257 . S
Mn397 N413 2.282 . S
Mn397 O421 2.215 . S
Mn397 O423 2.117 . S
C398 O420 1.234 . S
C398 O421 1.283 . S
C399 O411 1.281 . S
C399 O412 1.236 . S
C400 O422 1.240 . S
C400 O423 1.264 . S
O401 Mn396 2.095 . S
O401 C410 1.250 . S
O402 Mn397 2.121 . S
O402 C410 1.258 . S
C403 N404 1.326 . S
C403 C407 1.460 . S
C403 H409 0.929 . S
N404 Mn397 2.257 . S
N404 C403 1.326 . S
N404 C408 1.362 . S
C405 C406 1.258 . S
C405 C408 1.431 . S
C405 C425 1.449 . S
C406 C405 1.258 . S
C406 C407 1.477 . S
C406 H426 0.931 . S
C407 C403 1.460 . S
C407 C406 1.477 . S
C407 H427 0.930 . S
C408 N404 1.362 . S
C408 C405 1.431 . S
C408 C418 1.476 . S
H409 C403 0.929 . S
C410 O401 1.250 . S
C410 O402 1.258 . S
O411 Mn396 2.162 . S
O411 C399 1.281 . S
O412 Mn396 2.297 . S
O412 C399 1.236 . S
N413 Mn397 2.282 . S
N413 C414 1.328 . S
N413 C418 1.318 . S
C414 N413 1.328 . S
C414 C415 1.457 . S
C414 H419 0.929 . S
C415 C414 1.457 . S
C415 C416 1.291 . S
C415 H428 0.931 . S
C416 C415 1.291 . S
C416 C417 1.373 . S
C416 H429 0.929 . S
C417 C416 1.373 . S
C417 C418 1.396 . S
C417 C424 1.403 . S
C418 C408 1.476 . S
C418 N413 1.318 . S
C418 C417 1.396 . S
H419 C414 0.929 . S
O420 Mn396 2.385 . S
O420 C398 1.234 . S
O421 Mn396 2.209 . S
O421 Mn397 2.215 . S
O421 C398 1.283 . S
O422 Mn396 2.094 . S
O422 C400 1.240 . S
O423 Mn397 2.117 . S
O423 C400 1.264 . S
C424 C417 1.403 . S
C424 C425 1.399 . S
C424 H430 0.929 . S
C425 C405 1.449 . S
C425 C424 1.399 . S
C425 H431 0.930 . S
H426 C406 0.931 . S
H427 C407 0.930 . S
H428 C415 0.931 . S
H429 C416 0.929 . S
H430 C424 0.929 . S
H431 C425 0.930 . S
Mn432 O437 2.095 . S
Mn432 O447 2.162 1_545 S
Mn432 O448 2.297 1_545 S
Mn432 O456 2.385 . S
Mn432 O457 2.209 . S
Mn432 O458 2.094 . S
Mn433 O438 2.121 . S
Mn433 N440 2.257 . S
Mn433 N449 2.282 . S
Mn433 O457 2.215 . S
Mn433 O459 2.117 . S
C434 O456 1.234 . S
C434 O457 1.283 . S
C435 O447 1.281 . S
C435 O448 1.236 . S
C436 O458 1.240 . S
C436 O459 1.264 . S
O437 Mn432 2.095 . S
O437 C446 1.250 . S
O438 Mn433 2.121 . S
O438 C446 1.258 . S
C439 N440 1.326 . S
C439 C443 1.460 . S
C439 H445 0.929 . S
N440 Mn433 2.257 . S
N440 C439 1.326 . S
N440 C444 1.362 . S
C441 C442 1.258 . S
C441 C444 1.431 . S
C441 C461 1.449 . S
C442 C441 1.258 . S
C442 C443 1.477 . S
C442 H462 0.931 . S
C443 C439 1.460 . S
C443 C442 1.477 . S
C443 H463 0.930 . S
C444 N440 1.362 . S
C444 C441 1.431 . S
C444 C454 1.476 . S
H445 C439 0.929 . S
C446 O437 1.250 . S
C446 O438 1.258 . S
O447 Mn432 2.162 1_565 S
O447 C435 1.281 . S
O448 Mn432 2.297 1_565 S
O448 C435 1.236 . S
N449 Mn433 2.282 . S
N449 C450 1.328 . S
N449 C454 1.318 . S
C450 N449 1.328 . S
C450 C451 1.457 . S
C450 H455 0.929 . S
C451 C450 1.457 . S
C451 C452 1.291 . S
C451 H464 0.931 . S
C452 C451 1.291 . S
C452 C453 1.373 . S
C452 H465 0.929 . S
C453 C452 1.373 . S
C453 C454 1.396 . S
C453 C460 1.403 . S
C454 C444 1.476 . S
C454 N449 1.318 . S
C454 C453 1.396 . S
H455 C450 0.929 . S
O456 Mn432 2.385 . S
O456 C434 1.234 . S
O457 Mn432 2.209 . S
O457 Mn433 2.215 . S
O457 C434 1.283 . S
O458 Mn432 2.094 . S
O458 C436 1.240 . S
O459 Mn433 2.117 . S
O459 C436 1.264 . S
C460 C453 1.403 . S
C460 C461 1.399 . S
C460 H466 0.929 . S
C461 C441 1.449 . S
C461 C460 1.399 . S
C461 H467 0.930 . S
H462 C442 0.931 . S
H463 C443 0.930 . S
H464 C451 0.931 . S
H465 C452 0.929 . S
H466 C460 0.929 . S
H467 C461 0.930 . S
Mn468 O473 2.095 . S
Mn468 O483 2.162 . S
Mn468 O484 2.297 . S
Mn468 O492 2.385 . S
Mn468 O493 2.209 . S
Mn468 O494 2.094 . S
Mn469 O474 2.121 1_655 S
Mn469 N476 2.257 . S
Mn469 N485 2.282 . S
Mn469 O493 2.215 . S
Mn469 O495 2.117 . S
C470 O492 1.234 . S
C470 O493 1.283 . S
C471 O483 1.281 . S
C471 O484 1.236 . S
C472 O494 1.240 . S
C472 O495 1.264 . S
O473 Mn468 2.095 . S
O473 C482 1.250 1_655 S
O474 Mn469 2.121 1_455 S
O474 C482 1.258 . S
C475 N476 1.326 1_455 S
C475 C479 1.460 . S
C475 H481 0.929 . S
N476 Mn469 2.257 . S
N476 C475 1.326 1_655 S
N476 C480 1.362 . S
C477 C478 1.258 1_655 S
C477 C480 1.431 . S
C477 C497 1.449 . S
C478 C477 1.258 1_455 S
C478 C479 1.477 . S
C478 H498 0.931 . S
C479 C475 1.460 . S
C479 C478 1.477 . S
C479 H499 0.930 . S
C480 N476 1.362 . S
C480 C477 1.431 . S
C480 C490 1.476 . S
H481 C475 0.929 . S
C482 O473 1.250 1_455 S
C482 O474 1.258 . S
O483 Mn468 2.162 . S
O483 C471 1.281 . S
O484 Mn468 2.297 . S
O484 C471 1.236 . S
N485 Mn469 2.282 . S
N485 C486 1.328 . S
N485 C490 1.318 . S
C486 N485 1.328 . S
C486 C487 1.457 . S
C486 H491 0.929 . S
C487 C486 1.457 . S
C487 C488 1.291 . S
C487 H500 0.931 . S
C488 C487 1.291 . S
C488 C489 1.373 . S
C488 H501 0.929 . S
C489 C488 1.373 . S
C489 C490 1.396 . S
C489 C496 1.403 . S
C490 C480 1.476 . S
C490 N485 1.318 . S
C490 C489 1.396 . S
H491 C486 0.929 . S
O492 Mn468 2.385 . S
O492 C470 1.234 . S
O493 Mn468 2.209 . S
O493 Mn469 2.215 . S
O493 C470 1.283 . S
O494 Mn468 2.094 . S
O494 C472 1.240 . S
O495 Mn469 2.117 . S
O495 C472 1.264 . S
C496 C489 1.403 . S
C496 C497 1.399 . S
C496 H502 0.929 . S
C497 C477 1.449 . S
C497 C496 1.399 . S
C497 H503 0.930 . S
H498 C478 0.931 . S
H499 C479 0.930 . S
H500 C487 0.931 . S
H501 C488 0.929 . S
H502 C496 0.929 . S
H503 C497 0.930 . S
Mn504 O509 2.095 . S
Mn504 O519 2.162 . S
Mn504 O520 2.297 . S
Mn504 O528 2.385 . S
Mn504 O529 2.209 . S
Mn504 O530 2.094 . S
Mn505 O510 2.121 . S
Mn505 N512 2.257 . S
Mn505 N521 2.282 . S
Mn505 O529 2.215 . S
Mn505 O531 2.117 . S
C506 O528 1.234 . S
C506 O529 1.283 . S
C507 O519 1.281 . S
C507 O520 1.236 . S
C508 O530 1.240 . S
C508 O531 1.264 . S
O509 Mn504 2.095 . S
O509 C518 1.250 . S
O510 Mn505 2.121 . S
O510 C518 1.258 . S
C511 N512 1.326 . S
C511 C515 1.460 . S
C511 H517 0.929 . S
N512 Mn505 2.257 . S
N512 C511 1.326 . S
N512 C516 1.362 . S
C513 C514 1.258 . S
C513 C516 1.431 . S
C513 C533 1.449 . S
C514 C513 1.258 . S
C514 C515 1.477 . S
C514 H534 0.931 . S
C515 C511 1.460 . S
C515 C514 1.477 . S
C515 H535 0.930 . S
C516 N512 1.362 . S
C516 C513 1.431 . S
C516 C526 1.476 . S
H517 C511 0.929 . S
C518 O509 1.250 . S
C518 O510 1.258 . S
O519 Mn504 2.162 . S
O519 C507 1.281 . S
O520 Mn504 2.297 . S
O520 C507 1.236 . S
N521 Mn505 2.282 . S
N521 C522 1.328 . S
N521 C526 1.318 . S
C522 N521 1.328 . S
C522 C523 1.457 . S
C522 H527 0.929 . S
C523 C522 1.457 . S
C523 C524 1.291 . S
C523 H536 0.931 . S
C524 C523 1.291 . S
C524 C525 1.373 . S
C524 H537 0.929 . S
C525 C524 1.373 . S
C525 C526 1.396 . S
C525 C532 1.403 . S
C526 C516 1.476 . S
C526 N521 1.318 . S
C526 C525 1.396 . S
H527 C522 0.929 . S
O528 Mn504 2.385 . S
O528 C506 1.234 . S
O529 Mn504 2.209 . S
O529 Mn505 2.215 . S
O529 C506 1.283 . S
O530 Mn504 2.094 . S
O530 C508 1.240 . S
O531 Mn505 2.117 . S
O531 C508 1.264 . S
C532 C525 1.403 . S
C532 C533 1.399 . S
C532 H538 0.929 . S
C533 C513 1.449 . S
C533 C532 1.399 . S
C533 H539 0.930 . S
H534 C514 0.931 . S
H535 C515 0.930 . S
H536 C523 0.931 . S
H537 C524 0.929 . S
H538 C532 0.929 . S
H539 C533 0.930 . S
Mn540 O545 2.095 . S
Mn540 O555 2.162 . S
Mn540 O556 2.297 . S
Mn540 O564 2.385 . S
Mn540 O565 2.209 . S
Mn540 O566 2.094 . S
Mn541 O546 2.121 . S
Mn541 N548 2.257 . S
Mn541 N557 2.282 . S
Mn541 O565 2.215 . S
Mn541 O567 2.117 . S
C542 O564 1.234 . S
C542 O565 1.283 . S
C543 O555 1.281 . S
C543 O556 1.236 . S
C544 O566 1.240 . S
C544 O567 1.264 . S
O545 Mn540 2.095 . S
O545 C554 1.250 . S
O546 Mn541 2.121 . S
O546 C554 1.258 . S
C547 N548 1.326 . S
C547 C551 1.460 . S
C547 H553 0.929 . S
N548 Mn541 2.257 . S
N548 C547 1.326 . S
N548 C552 1.362 . S
C549 C550 1.258 . S
C549 C552 1.431 . S
C549 C569 1.449 . S
C550 C549 1.258 . S
C550 C551 1.477 . S
C550 H570 0.931 . S
C551 C547 1.460 . S
C551 C550 1.477 . S
C551 H571 0.930 . S
C552 N548 1.362 . S
C552 C549 1.431 . S
C552 C562 1.476 . S
H553 C547 0.929 . S
C554 O545 1.250 . S
C554 O546 1.258 . S
O555 Mn540 2.162 . S
O555 C543 1.281 . S
O556 Mn540 2.297 . S
O556 C543 1.236 . S
N557 Mn541 2.282 . S
N557 C558 1.328 . S
N557 C562 1.318 . S
C558 N557 1.328 . S
C558 C559 1.457 . S
C558 H563 0.929 . S
C559 C558 1.457 . S
C559 C560 1.291 . S
C559 H572 0.931 . S
C560 C559 1.291 . S
C560 C561 1.373 . S
C560 H573 0.929 . S
C561 C560 1.373 . S
C561 C562 1.396 . S
C561 C568 1.403 . S
C562 C552 1.476 . S
C562 N557 1.318 . S
C562 C561 1.396 . S
H563 C558 0.929 . S
O564 Mn540 2.385 . S
O564 C542 1.234 . S
O565 Mn540 2.209 . S
O565 Mn541 2.215 . S
O565 C542 1.283 . S
O566 Mn540 2.094 . S
O566 C544 1.240 . S
O567 Mn541 2.117 . S
O567 C544 1.264 . S
C568 C561 1.403 . S
C568 C569 1.399 . S
C568 H574 0.929 . S
C569 C549 1.449 . S
C569 C568 1.399 . S
C569 H575 0.930 . S
H570 C550 0.931 . S
H571 C551 0.930 . S
H572 C559 0.931 . S
H573 C560 0.929 . S
H574 C568 0.929 . S
H575 C569 0.930 . S
Mn576 O581 2.095 1_545 S
Mn576 O591 2.162 . S
Mn576 O592 2.297 . S
Mn576 O600 2.385 . S
Mn576 O601 2.209 . S
Mn576 O602 2.094 . S
Mn577 O582 2.121 1_545 S
Mn577 N584 2.257 . S
Mn577 N593 2.282 . S
Mn577 O601 2.215 . S
Mn577 O603 2.117 . S
C578 O600 1.234 . S
C578 O601 1.283 . S
C579 O591 1.281 . S
C579 O592 1.236 . S
C580 O602 1.240 . S
C580 O603 1.264 . S
O581 Mn576 2.095 1_565 S
O581 C590 1.250 . S
O582 Mn577 2.121 1_565 S
O582 C590 1.258 . S
C583 N584 1.326 1_565 S
C583 C587 1.460 . S
C583 H589 0.929 . S
N584 Mn577 2.257 . S
N584 C583 1.326 1_545 S
N584 C588 1.362 . S
C585 C586 1.258 1_545 S
C585 C588 1.431 . S
C585 C605 1.449 . S
C586 C585 1.258 1_565 S
C586 C587 1.477 . S
C586 H606 0.931 . S
C587 C583 1.460 . S
C587 C586 1.477 . S
C587 H607 0.930 . S
C588 N584 1.362 . S
C588 C585 1.431 . S
C588 C598 1.476 . S
H589 C583 0.929 . S
C590 O581 1.250 . S
C590 O582 1.258 . S
O591 Mn576 2.162 . S
O591 C579 1.281 . S
O592 Mn576 2.297 . S
O592 C579 1.236 . S
N593 Mn577 2.282 . S
N593 C594 1.328 . S
N593 C598 1.318 . S
C594 N593 1.328 . S
C594 C595 1.457 . S
C594 H599 0.929 . S
C595 C594 1.457 . S
C595 C596 1.291 . S
C595 H608 0.931 . S
C596 C595 1.291 . S
C596 C597 1.373 . S
C596 H609 0.929 . S
C597 C596 1.373 . S
C597 C598 1.396 . S
C597 C604 1.403 . S
C598 C588 1.476 . S
C598 N593 1.318 . S
C598 C597 1.396 . S
H599 C594 0.929 . S
O600 Mn576 2.385 . S
O600 C578 1.234 . S
O601 Mn576 2.209 . S
O601 Mn577 2.215 . S
O601 C578 1.283 . S
O602 Mn576 2.094 . S
O602 C580 1.240 . S
O603 Mn577 2.117 . S
O603 C580 1.264 . S
C604 C597 1.403 . S
C604 C605 1.399 . S
C604 H610 0.929 . S
C605 C585 1.449 . S
C605 C604 1.399 . S
C605 H611 0.930 . S
H606 C586 0.931 . S
H607 C587 0.930 . S
H608 C595 0.931 . S
H609 C596 0.929 . S
H610 C604 0.929 . S
H611 C605 0.930 . S
Mn612 O617 2.095 . S
Mn612 O627 2.162 1_655 S
Mn612 O628 2.297 1_655 S
Mn612 O636 2.385 . S
Mn612 O637 2.209 . S
Mn612 O638 2.094 . S
Mn613 O618 2.121 . S
Mn613 N620 2.257 . S
Mn613 N629 2.282 . S
Mn613 O637 2.215 . S
Mn613 O639 2.117 . S
C614 O636 1.234 . S
C614 O637 1.283 . S
C615 O627 1.281 . S
C615 O628 1.236 . S
C616 O638 1.240 . S
C616 O639 1.264 . S
O617 Mn612 2.095 . S
O617 C626 1.250 . S
O618 Mn613 2.121 . S
O618 C626 1.258 . S
C619 N620 1.326 . S
C619 C623 1.460 . S
C619 H625 0.929 . S
N620 Mn613 2.257 . S
N620 C619 1.326 . S
N620 C624 1.362 . S
C621 C622 1.258 . S
C621 C624 1.431 . S
C621 C641 1.449 . S
C622 C621 1.258 . S
C622 C623 1.477 . S
C622 H642 0.931 . S
C623 C619 1.460 . S
C623 C622 1.477 . S
C623 H643 0.930 . S
C624 N620 1.362 . S
C624 C621 1.431 . S
C624 C634 1.476 . S
H625 C619 0.929 . S
C626 O617 1.250 . S
C626 O618 1.258 . S
O627 Mn612 2.162 1_455 S
O627 C615 1.281 . S
O628 Mn612 2.297 1_455 S
O628 C615 1.236 . S
N629 Mn613 2.282 . S
N629 C630 1.328 . S
N629 C634 1.318 . S
C630 N629 1.328 . S
C630 C631 1.457 . S
C630 H635 0.929 . S
C631 C630 1.457 . S
C631 C632 1.291 . S
C631 H644 0.931 . S
C632 C631 1.291 . S
C632 C633 1.373 . S
C632 H645 0.929 . S
C633 C632 1.373 . S
C633 C634 1.396 . S
C633 C640 1.403 . S
C634 C624 1.476 . S
C634 N629 1.318 . S
C634 C633 1.396 . S
H635 C630 0.929 . S
O636 Mn612 2.385 . S
O636 C614 1.234 . S
O637 Mn612 2.209 . S
O637 Mn613 2.215 . S
O637 C614 1.283 . S
O638 Mn612 2.094 . S
O638 C616 1.240 . S
O639 Mn613 2.117 . S
O639 C616 1.264 . S
C640 C633 1.403 . S
C640 C641 1.399 . S
C640 H646 0.929 . S
C641 C621 1.449 . S
C641 C640 1.399 . S
C641 H647 0.930 . S
H642 C622 0.931 . S
H643 C623 0.930 . S
H644 C631 0.931 . S
H645 C632 0.929 . S
H646 C640 0.929 . S
H647 C641 0.930 . S
C648 C649 1.560 . S
C648 H709 0.959 . S
C648 H710 0.959 . S
C648 H711 0.960 . S
C649 C648 1.560 . S
C649 O704 1.426 . S
C649 H708 0.980 . S
C650 C651 1.407 . S
C650 C655 1.418 . S
C650 O704 1.334 . S
C651 C650 1.407 . S
C651 C652 1.360 . S
C651 H712 0.929 . S
C652 C651 1.360 . S
C652 C653 1.401 . S
C652 C656 1.527 . S
C653 C652 1.401 . S
C653 C654 1.405 . S
C653 C686 1.587 . S
C654 C653 1.405 . S
C654 C655 1.332 . S
C654 C657 1.496 . S
C655 C650 1.418 . S
C655 C654 1.332 . S
C655 H713 0.929 . S
C656 C652 1.527 . S
C656 H714 0.959 . S
C656 H715 0.961 . S
C656 H716 0.961 . S
C657 C654 1.496 . S
C657 H717 0.960 . S
C657 H718 0.960 . S
C657 H719 0.961 . S
C658 C659 1.517 . S
C658 H721 0.961 . S
C658 H722 0.960 . S
C658 H723 0.959 . S
C659 C658 1.517 . S
C659 O707 1.468 . S
C659 H720 0.980 . S
C660 C661 1.349 . S
C660 C665 1.367 . S
C660 O707 1.408 . S
C661 C660 1.349 . S
C661 C662 1.407 . S
C661 H724 0.930 . S
C662 C661 1.407 . S
C662 C663 1.449 . S
C662 C666 1.535 . S
C663 C662 1.449 . S
C663 C664 1.384 . S
C663 C688 1.553 . S
C664 C663 1.384 . S
C664 C665 1.364 . S
C664 C667 1.450 . S
C665 C660 1.367 . S
C665 C664 1.364 . S
C665 H725 0.931 . S
C666 C662 1.535 . S
C666 H726 0.959 . S
C666 H727 0.961 . S
C666 H728 0.959 . S
C667 C664 1.450 . S
C667 H729 0.960 . S
C667 H730 0.960 . S
C667 H731 0.960 . S
C668 C669 1.309 . S
C668 C673 1.304 . S
C668 O706 1.435 . S
C669 C668 1.309 . S
C669 C670 1.476 . S
C669 H733 0.930 . S
C670 C669 1.476 . S
C670 C671 1.400 . S
C670 C674 1.567 . S
C671 C670 1.400 . S
C671 C672 1.373 . S
C671 C693 1.432 . S
C672 C671 1.373 . S
C672 C673 1.339 . S
C672 C675 1.530 . S
C673 C668 1.304 . S
C673 C672 1.339 . S
C673 H734 0.930 . S
C674 C670 1.567 . S
C674 H735 0.961 . S
C674 H736 0.960 . S
C674 H737 0.958 . S
C675 C672 1.530 . S
C675 H738 0.961 . S
C675 H739 0.960 . S
C675 H740 0.960 . S
C676 C677 1.530 . S
C676 H742 0.961 . S
C676 H743 0.961 . S
C676 H744 0.959 . S
C677 C676 1.530 . S
C677 O705 1.412 . S
C677 H741 0.980 . S
C678 C679 1.288 . S
C678 C683 1.377 . S
C678 O705 1.393 . S
C679 C678 1.288 . S
C679 C680 1.369 . S
C679 H745 0.932 . S
C680 C679 1.369 . S
C680 C681 1.398 . S
C680 C684 1.527 . S
C681 C680 1.398 . S
C681 C682 1.380 . S
C681 C695 1.497 . S
C682 C681 1.380 . S
C682 C683 1.383 . S
C682 C685 1.603 . S
C683 C678 1.377 . S
C683 C682 1.383 . S
C683 H746 0.929 . S
C684 C680 1.527 . S
C684 H747 0.961 . S
C684 H748 0.959 . S
C684 H749 0.959 . S
C685 C682 1.603 . S
C685 H750 0.960 . S
C685 H751 0.962 . S
C685 H752 0.961 . S
C686 C653 1.587 . S
C686 C687 1.360 . S
C686 C699 1.412 . S
C687 C686 1.360 . S
C687 C688 1.365 . S
C687 H753 0.929 . S
C688 C663 1.553 . S
C688 C687 1.365 . S
C688 C689 1.404 . S
C689 C688 1.404 . S
C689 C690 1.395 . S
C689 C700 1.451 . S
C690 C689 1.395 . S
C690 C691 1.322 . S
C690 H754 0.930 . S
C691 C690 1.322 . S
C691 C692 1.459 . S
C691 H755 0.929 . S
C692 C691 1.459 . S
C692 C693 1.445 . S
C692 C701 1.395 . S
C693 C671 1.432 . S
C693 C692 1.445 . S
C693 C694 1.370 . S
C694 C693 1.370 . S
C694 C695 1.438 . S
C694 H756 0.930 . S
C695 C681 1.497 . S
C695 C694 1.438 . S
C695 C696 1.360 . S
C696 C695 1.360 . S
C696 C697 1.401 . S
C696 C701 1.446 . S
C697 C696 1.401 . S
C697 C698 1.347 . S
C697 H757 0.929 . S
C698 C697 1.347 . S
C698 C699 1.455 . S
C698 H758 0.930 . S
C699 C686 1.412 . S
C699 C698 1.455 . S
C699 C700 1.331 . S
C700 C689 1.451 . S
C700 C699 1.331 . S
C700 C701 1.497 . S
C701 C692 1.395 . S
C701 C696 1.446 . S
C701 C700 1.497 . S
C702 C703 1.582 . S
C702 H759 0.962 . S
C702 H760 0.959 . S
C702 H761 0.958 . S
C703 C702 1.582 . S
C703 O706 1.458 . S
C703 H732 0.980 . S
O704 C649 1.426 . S
O704 C650 1.334 . S
O705 C677 1.412 . S
O705 C678 1.393 . S
O706 C668 1.435 . S
O706 C703 1.458 . S
O707 C659 1.468 . S
O707 C660 1.408 . S
H708 C649 0.980 . S
H709 C648 0.959 . S
H710 C648 0.959 . S
H711 C648 0.960 . S
H712 C651 0.929 . S
H713 C655 0.929 . S
H714 C656 0.959 . S
H715 C656 0.961 . S
H716 C656 0.961 . S
H717 C657 0.960 . S
H718 C657 0.960 . S
H719 C657 0.961 . S
H720 C659 0.980 . S
H721 C658 0.961 . S
H722 C658 0.960 . S
H723 C658 0.959 . S
H724 C661 0.930 . S
H725 C665 0.931 . S
H726 C666 0.959 . S
H727 C666 0.961 . S
H728 C666 0.959 . S
H729 C667 0.960 . S
H730 C667 0.960 . S
H731 C667 0.960 . S
H732 C703 0.980 . S
H733 C669 0.930 . S
H734 C673 0.930 . S
H735 C674 0.961 . S
H736 C674 0.960 . S
H737 C674 0.958 . S
H738 C675 0.961 . S
H739 C675 0.960 . S
H740 C675 0.960 . S
H741 C677 0.980 . S
H742 C676 0.961 . S
H743 C676 0.961 . S
H744 C676 0.959 . S
H745 C679 0.932 . S
H746 C683 0.929 . S
H747 C684 0.961 . S
H748 C684 0.959 . S
H749 C684 0.959 . S
H750 C685 0.960 . S
H751 C685 0.962 . S
H752 C685 0.961 . S
H753 C687 0.929 . S
H754 C690 0.930 . S
H755 C691 0.929 . S
H756 C694 0.930 . S
H757 C697 0.929 . S
H758 C698 0.930 . S
H759 C702 0.962 . S
H760 C702 0.959 . S
H761 C702 0.958 . S
C762 C763 1.560 . S
C762 H823 0.959 . S
C762 H824 0.959 . S
C762 H825 0.960 . S
C763 C762 1.560 . S
C763 O818 1.426 . S
C763 H822 0.980 . S
C764 C765 1.407 . S
C764 C769 1.418 . S
C764 O818 1.334 . S
C765 C764 1.407 . S
C765 C766 1.360 . S
C765 H826 0.929 . S
C766 C765 1.360 . S
C766 C767 1.401 . S
C766 C770 1.527 . S
C767 C766 1.401 . S
C767 C768 1.405 . S
C767 C800 1.587 . S
C768 C767 1.405 . S
C768 C769 1.332 . S
C768 C771 1.496 . S
C769 C764 1.418 . S
C769 C768 1.332 . S
C769 H827 0.929 . S
C770 C766 1.527 . S
C770 H828 0.959 . S
C770 H829 0.961 . S
C770 H830 0.961 . S
C771 C768 1.496 . S
C771 H831 0.960 . S
C771 H832 0.960 . S
C771 H833 0.961 . S
C772 C773 1.517 . S
C772 H835 0.961 . S
C772 H836 0.960 . S
C772 H837 0.959 . S
C773 C772 1.517 . S
C773 O821 1.468 . S
C773 H834 0.980 . S
C774 C775 1.349 . S
C774 C779 1.367 . S
C774 O821 1.408 . S
C775 C774 1.349 . S
C775 C776 1.407 . S
C775 H838 0.930 . S
C776 C775 1.407 . S
C776 C777 1.449 . S
C776 C780 1.535 . S
C777 C776 1.449 . S
C777 C778 1.384 . S
C777 C802 1.553 . S
C778 C777 1.384 . S
C778 C779 1.364 . S
C778 C781 1.450 . S
C779 C774 1.367 . S
C779 C778 1.364 . S
C779 H839 0.931 . S
C780 C776 1.535 . S
C780 H840 0.959 . S
C780 H841 0.961 . S
C780 H842 0.959 . S
C781 C778 1.450 . S
C781 H843 0.960 . S
C781 H844 0.960 . S
C781 H845 0.960 . S
C782 C783 1.309 . S
C782 C787 1.304 . S
C782 O820 1.435 . S
C783 C782 1.309 . S
C783 C784 1.476 . S
C783 H847 0.930 . S
C784 C783 1.476 . S
C784 C785 1.400 . S
C784 C788 1.567 . S
C785 C784 1.400 . S
C785 C786 1.373 . S
C785 C807 1.432 . S
C786 C785 1.373 . S
C786 C787 1.339 . S
C786 C789 1.530 . S
C787 C782 1.304 . S
C787 C786 1.339 . S
C787 H848 0.930 . S
C788 C784 1.567 . S
C788 H849 0.961 . S
C788 H850 0.960 . S
C788 H851 0.958 . S
C789 C786 1.530 . S
C789 H852 0.961 . S
C789 H853 0.960 . S
C789 H854 0.960 . S
C790 C791 1.530 . S
C790 H856 0.961 . S
C790 H857 0.961 . S
C790 H858 0.959 . S
C791 C790 1.530 . S
C791 O819 1.412 . S
C791 H855 0.980 . S
C792 C793 1.288 . S
C792 C797 1.377 . S
C792 O819 1.393 . S
C793 C792 1.288 . S
C793 C794 1.369 . S
C793 H859 0.932 . S
C794 C793 1.369 . S
C794 C795 1.398 . S
C794 C798 1.527 . S
C795 C794 1.398 . S
C795 C796 1.380 . S
C795 C809 1.497 . S
C796 C795 1.380 . S
C796 C797 1.383 . S
C796 C799 1.603 . S
C797 C792 1.377 . S
C797 C796 1.383 . S
C797 H860 0.929 . S
C798 C794 1.527 . S
C798 H861 0.961 . S
C798 H862 0.959 . S
C798 H863 0.959 . S
C799 C796 1.603 . S
C799 H864 0.960 . S
C799 H865 0.962 . S
C799 H866 0.961 . S
C800 C767 1.587 . S
C800 C801 1.360 . S
C800 C813 1.412 . S
C801 C800 1.360 . S
C801 C802 1.365 . S
C801 H867 0.929 . S
C802 C777 1.553 . S
C802 C801 1.365 . S
C802 C803 1.404 . S
C803 C802 1.404 . S
C803 C804 1.395 . S
C803 C814 1.451 . S
C804 C803 1.395 . S
C804 C805 1.322 . S
C804 H868 0.930 . S
C805 C804 1.322 . S
C805 C806 1.459 . S
C805 H869 0.929 . S
C806 C805 1.459 . S
C806 C807 1.445 . S
C806 C815 1.395 . S
C807 C785 1.432 . S
C807 C806 1.445 . S
C807 C808 1.370 . S
C808 C807 1.370 . S
C808 C809 1.438 . S
C808 H870 0.930 . S
C809 C795 1.497 . S
C809 C808 1.438 . S
C809 C810 1.360 . S
C810 C809 1.360 . S
C810 C811 1.401 . S
C810 C815 1.446 . S
C811 C810 1.401 . S
C811 C812 1.347 . S
C811 H871 0.929 . S
C812 C811 1.347 . S
C812 C813 1.455 . S
C812 H872 0.930 . S
C813 C800 1.412 . S
C813 C812 1.455 . S
C813 C814 1.331 . S
C814 C803 1.451 . S
C814 C813 1.331 . S
C814 C815 1.497 . S
C815 C806 1.395 . S
C815 C810 1.446 . S
C815 C814 1.497 . S
C816 C817 1.582 . S
C816 H873 0.962 . S
C816 H874 0.959 . S
C816 H875 0.958 . S
C817 C816 1.582 . S
C817 O820 1.458 . S
C817 H846 0.980 . S
O818 C763 1.426 . S
O818 C764 1.334 . S
O819 C791 1.412 . S
O819 C792 1.393 . S
O820 C782 1.435 . S
O820 C817 1.458 . S
O821 C773 1.468 . S
O821 C774 1.408 . S
H822 C763 0.980 . S
H823 C762 0.959 . S
H824 C762 0.959 . S
H825 C762 0.960 . S
H826 C765 0.929 . S
H827 C769 0.929 . S
H828 C770 0.959 . S
H829 C770 0.961 . S
H830 C770 0.961 . S
H831 C771 0.960 . S
H832 C771 0.960 . S
H833 C771 0.961 . S
H834 C773 0.980 . S
H835 C772 0.961 . S
H836 C772 0.960 . S
H837 C772 0.959 . S
H838 C775 0.930 . S
H839 C779 0.931 . S
H840 C780 0.959 . S
H841 C780 0.961 . S
H842 C780 0.959 . S
H843 C781 0.960 . S
H844 C781 0.960 . S
H845 C781 0.960 . S
H846 C817 0.980 . S
H847 C783 0.930 . S
H848 C787 0.930 . S
H849 C788 0.961 . S
H850 C788 0.960 . S
H851 C788 0.958 . S
H852 C789 0.961 . S
H853 C789 0.960 . S
H854 C789 0.960 . S
H855 C791 0.980 . S
H856 C790 0.961 . S
H857 C790 0.961 . S
H858 C790 0.959 . S
H859 C793 0.932 . S
H860 C797 0.929 . S
H861 C798 0.961 . S
H862 C798 0.959 . S
H863 C798 0.959 . S
H864 C799 0.960 . S
H865 C799 0.962 . S
H866 C799 0.961 . S
H867 C801 0.929 . S
H868 C804 0.930 . S
H869 C805 0.929 . S
H870 C808 0.930 . S
H871 C811 0.929 . S
H872 C812 0.930 . S
H873 C816 0.962 . S
H874 C816 0.959 . S
H875 C816 0.958 . S
C876 C877 1.560 . S
C876 H937 0.959 . S
C876 H938 0.959 . S
C876 H939 0.960 . S
C877 C876 1.560 . S
C877 O932 1.426 . S
C877 H936 0.980 . S
C878 C879 1.407 . S
C878 C883 1.418 . S
C878 O932 1.334 . S
C879 C878 1.407 . S
C879 C880 1.360 . S
C879 H940 0.929 . S
C880 C879 1.360 . S
C880 C881 1.401 . S
C880 C884 1.527 . S
C881 C880 1.401 . S
C881 C882 1.405 . S
C881 C914 1.587 . S
C882 C881 1.405 . S
C882 C883 1.332 . S
C882 C885 1.496 . S
C883 C878 1.418 . S
C883 C882 1.332 . S
C883 H941 0.929 . S
C884 C880 1.527 . S
C884 H942 0.959 . S
C884 H943 0.961 . S
C884 H944 0.961 . S
C885 C882 1.496 . S
C885 H945 0.960 . S
C885 H946 0.960 . S
C885 H947 0.961 . S
C886 C887 1.517 . S
C886 H949 0.961 . S
C886 H950 0.960 . S
C886 H951 0.959 . S
C887 C886 1.517 . S
C887 O935 1.468 . S
C887 H948 0.980 . S
C888 C889 1.349 . S
C888 C893 1.367 . S
C888 O935 1.408 . S
C889 C888 1.349 . S
C889 C890 1.407 . S
C889 H952 0.930 . S
C890 C889 1.407 . S
C890 C891 1.449 . S
C890 C894 1.535 . S
C891 C890 1.449 . S
C891 C892 1.384 . S
C891 C916 1.553 . S
C892 C891 1.384 . S
C892 C893 1.364 . S
C892 C895 1.450 . S
C893 C888 1.367 . S
C893 C892 1.364 . S
C893 H953 0.931 . S
C894 C890 1.535 . S
C894 H954 0.959 . S
C894 H955 0.961 . S
C894 H956 0.959 . S
C895 C892 1.450 . S
C895 H957 0.960 . S
C895 H958 0.960 . S
C895 H959 0.960 . S
C896 C897 1.309 . S
C896 C901 1.304 . S
C896 O934 1.435 . S
C897 C896 1.309 . S
C897 C898 1.476 . S
C897 H961 0.930 . S
C898 C897 1.476 . S
C898 C899 1.400 . S
C898 C902 1.567 . S
C899 C898 1.400 . S
C899 C900 1.373 . S
C899 C921 1.432 . S
C900 C899 1.373 . S
C900 C901 1.339 . S
C900 C903 1.530 . S
C901 C896 1.304 . S
C901 C900 1.339 . S
C901 H962 0.930 . S
C902 C898 1.567 . S
C902 H963 0.961 . S
C902 H964 0.960 . S
C902 H965 0.958 . S
C903 C900 1.530 . S
C903 H966 0.961 . S
C903 H967 0.960 . S
C903 H968 0.960 . S
C904 C905 1.530 . S
C904 H970 0.961 . S
C904 H971 0.961 . S
C904 H972 0.959 . S
C905 C904 1.530 . S
C905 O933 1.412 . S
C905 H969 0.980 . S
C906 C907 1.288 . S
C906 C911 1.377 . S
C906 O933 1.393 . S
C907 C906 1.288 . S
C907 C908 1.369 . S
C907 H973 0.932 . S
C908 C907 1.369 . S
C908 C909 1.398 . S
C908 C912 1.527 . S
C909 C908 1.398 . S
C909 C910 1.380 . S
C909 C923 1.497 . S
C910 C909 1.380 . S
C910 C911 1.383 . S
C910 C913 1.603 . S
C911 C906 1.377 . S
C911 C910 1.383 . S
C911 H974 0.929 . S
C912 C908 1.527 . S
C912 H975 0.961 . S
C912 H976 0.959 . S
C912 H977 0.959 . S
C913 C910 1.603 . S
C913 H978 0.960 . S
C913 H979 0.962 . S
C913 H980 0.961 . S
C914 C881 1.587 . S
C914 C915 1.360 . S
C914 C927 1.412 . S
C915 C914 1.360 . S
C915 C916 1.365 . S
C915 H981 0.929 . S
C916 C891 1.553 . S
C916 C915 1.365 . S
C916 C917 1.404 . S
C917 C916 1.404 . S
C917 C918 1.395 . S
C917 C928 1.451 . S
C918 C917 1.395 . S
C918 C919 1.322 . S
C918 H982 0.930 . S
C919 C918 1.322 . S
C919 C920 1.459 . S
C919 H983 0.929 . S
C920 C919 1.459 . S
C920 C921 1.445 . S
C920 C929 1.395 . S
C921 C899 1.432 . S
C921 C920 1.445 . S
C921 C922 1.370 . S
C922 C921 1.370 . S
C922 C923 1.438 . S
C922 H984 0.930 . S
C923 C909 1.497 . S
C923 C922 1.438 . S
C923 C924 1.360 . S
C924 C923 1.360 . S
C924 C925 1.401 . S
C924 C929 1.446 . S
C925 C924 1.401 . S
C925 C926 1.347 . S
C925 H985 0.929 . S
C926 C925 1.347 . S
C926 C927 1.455 . S
C926 H986 0.930 . S
C927 C914 1.412 . S
C927 C926 1.455 . S
C927 C928 1.331 . S
C928 C917 1.451 . S
C928 C927 1.331 . S
C928 C929 1.497 . S
C929 C920 1.395 . S
C929 C924 1.446 . S
C929 C928 1.497 . S
C930 C931 1.582 . S
C930 H987 0.962 . S
C930 H988 0.959 . S
C930 H989 0.958 . S
C931 C930 1.582 . S
C931 O934 1.458 . S
C931 H960 0.980 . S
O932 C877 1.426 . S
O932 C878 1.334 . S
O933 C905 1.412 . S
O933 C906 1.393 . S
O934 C896 1.435 . S
O934 C931 1.458 . S
O935 C887 1.468 . S
O935 C888 1.408 . S
H936 C877 0.980 . S
H937 C876 0.959 . S
H938 C876 0.959 . S
H939 C876 0.960 . S
H940 C879 0.929 . S
H941 C883 0.929 . S
H942 C884 0.959 . S
H943 C884 0.961 . S
H944 C884 0.961 . S
H945 C885 0.960 . S
H946 C885 0.960 . S
H947 C885 0.961 . S
H948 C887 0.980 . S
H949 C886 0.961 . S
H950 C886 0.960 . S
H951 C886 0.959 . S
H952 C889 0.930 . S
H953 C893 0.931 . S
H954 C894 0.959 . S
H955 C894 0.961 . S
H956 C894 0.959 . S
H957 C895 0.960 . S
H958 C895 0.960 . S
H959 C895 0.960 . S
H960 C931 0.980 . S
H961 C897 0.930 . S
H962 C901 0.930 . S
H963 C902 0.961 . S
H964 C902 0.960 . S
H965 C902 0.958 . S
H966 C903 0.961 . S
H967 C903 0.960 . S
H968 C903 0.960 . S
H969 C905 0.980 . S
H970 C904 0.961 . S
H971 C904 0.961 . S
H972 C904 0.959 . S
H973 C907 0.932 . S
H974 C911 0.929 . S
H975 C912 0.961 . S
H976 C912 0.959 . S
H977 C912 0.959 . S
H978 C913 0.960 . S
H979 C913 0.962 . S
H980 C913 0.961 . S
H981 C915 0.929 . S
H982 C918 0.930 . S
H983 C919 0.929 . S
H984 C922 0.930 . S
H985 C925 0.929 . S
H986 C926 0.930 . S
H987 C930 0.962 . S
H988 C930 0.959 . S
H989 C930 0.958 . S
C990 C991 1.560 . S
C990 H1051 0.959 . S
C990 H1052 0.959 . S
C990 H1053 0.960 . S
C991 C990 1.560 . S
C991 O1046 1.426 . S
C991 H1050 0.980 . S
C992 C993 1.407 . S
C992 C997 1.418 . S
C992 O1046 1.334 . S
C993 C992 1.407 . S
C993 C994 1.360 . S
C993 H1054 0.929 . S
C994 C993 1.360 . S
C994 C995 1.401 . S
C994 C998 1.527 . S
C995 C994 1.401 . S
C995 C996 1.405 . S
C995 C1028 1.587 . S
C996 C995 1.405 . S
C996 C997 1.332 . S
C996 C999 1.496 . S
C997 C992 1.418 . S
C997 C996 1.332 . S
C997 H1055 0.929 . S
C998 C994 1.527 . S
C998 H1056 0.959 . S
C998 H1057 0.961 . S
C998 H1058 0.961 . S
C999 C996 1.496 . S
C999 H1059 0.960 . S
C999 H1060 0.960 . S
C999 H1061 0.961 . S
C1000 C1001 1.517 . S
C1000 H1063 0.961 . S
C1000 H1064 0.960 . S
C1000 H1065 0.959 . S
C1001 C1000 1.517 . S
C1001 O1049 1.468 . S
C1001 H1062 0.980 . S
C1002 C1003 1.349 . S
C1002 C1007 1.367 . S
C1002 O1049 1.408 . S
C1003 C1002 1.349 . S
C1003 C1004 1.407 . S
C1003 H1066 0.930 . S
C1004 C1003 1.407 . S
C1004 C1005 1.449 . S
C1004 C1008 1.535 . S
C1005 C1004 1.449 . S
C1005 C1006 1.384 . S
C1005 C1030 1.553 . S
C1006 C1005 1.384 . S
C1006 C1007 1.364 . S
C1006 C1009 1.450 . S
C1007 C1002 1.367 . S
C1007 C1006 1.364 . S
C1007 H1067 0.931 . S
C1008 C1004 1.535 . S
C1008 H1068 0.959 . S
C1008 H1069 0.961 . S
C1008 H1070 0.959 . S
C1009 C1006 1.450 . S
C1009 H1071 0.960 . S
C1009 H1072 0.960 . S
C1009 H1073 0.960 . S
C1010 C1011 1.309 . S
C1010 C1015 1.304 . S
C1010 O1048 1.435 . S
C1011 C1010 1.309 . S
C1011 C1012 1.476 . S
C1011 H1075 0.930 . S
C1012 C1011 1.476 . S
C1012 C1013 1.400 . S
C1012 C1016 1.567 . S
C1013 C1012 1.400 . S
C1013 C1014 1.373 . S
C1013 C1035 1.432 . S
C1014 C1013 1.373 . S
C1014 C1015 1.339 . S
C1014 C1017 1.530 . S
C1015 C1010 1.304 . S
C1015 C1014 1.339 . S
C1015 H1076 0.930 . S
C1016 C1012 1.567 . S
C1016 H1077 0.961 . S
C1016 H1078 0.960 . S
C1016 H1079 0.958 . S
C1017 C1014 1.530 . S
C1017 H1080 0.961 . S
C1017 H1081 0.960 . S
C1017 H1082 0.960 . S
C1018 C1019 1.530 . S
C1018 H1084 0.961 . S
C1018 H1085 0.961 . S
C1018 H1086 0.959 . S
C1019 C1018 1.530 . S
C1019 O1047 1.412 . S
C1019 H1083 0.980 . S
C1020 C1021 1.288 . S
C1020 C1025 1.377 . S
C1020 O1047 1.393 . S
C1021 C1020 1.288 . S
C1021 C1022 1.369 . S
C1021 H1087 0.932 . S
C1022 C1021 1.369 . S
C1022 C1023 1.398 . S
C1022 C1026 1.527 . S
C1023 C1022 1.398 . S
C1023 C1024 1.380 . S
C1023 C1037 1.497 . S
C1024 C1023 1.380 . S
C1024 C1025 1.383 . S
C1024 C1027 1.603 . S
C1025 C1020 1.377 . S
C1025 C1024 1.383 . S
C1025 H1088 0.929 . S
C1026 C1022 1.527 . S
C1026 H1089 0.961 . S
C1026 H1090 0.959 . S
C1026 H1091 0.959 . S
C1027 C1024 1.603 . S
C1027 H1092 0.960 . S
C1027 H1093 0.962 . S
C1027 H1094 0.961 . S
C1028 C995 1.587 . S
C1028 C1029 1.360 . S
C1028 C1041 1.412 . S
C1029 C1028 1.360 . S
C1029 C1030 1.365 . S
C1029 H1095 0.929 . S
C1030 C1005 1.553 . S
C1030 C1029 1.365 . S
C1030 C1031 1.404 . S
C1031 C1030 1.404 . S
C1031 C1032 1.395 . S
C1031 C1042 1.451 . S
C1032 C1031 1.395 . S
C1032 C1033 1.322 . S
C1032 H1096 0.930 . S
C1033 C1032 1.322 . S
C1033 C1034 1.459 . S
C1033 H1097 0.929 . S
C1034 C1033 1.459 . S
C1034 C1035 1.445 . S
C1034 C1043 1.395 . S
C1035 C1013 1.432 . S
C1035 C1034 1.445 . S
C1035 C1036 1.370 . S
C1036 C1035 1.370 . S
C1036 C1037 1.438 . S
C1036 H1098 0.930 . S
C1037 C1023 1.497 . S
C1037 C1036 1.438 . S
C1037 C1038 1.360 . S
C1038 C1037 1.360 . S
C1038 C1039 1.401 . S
C1038 C1043 1.446 . S
C1039 C1038 1.401 . S
C1039 C1040 1.347 . S
C1039 H1099 0.929 . S
C1040 C1039 1.347 . S
C1040 C1041 1.455 . S
C1040 H1100 0.930 . S
C1041 C1028 1.412 . S
C1041 C1040 1.455 . S
C1041 C1042 1.331 . S
C1042 C1031 1.451 . S
C1042 C1041 1.331 . S
C1042 C1043 1.497 . S
C1043 C1034 1.395 . S
C1043 C1038 1.446 . S
C1043 C1042 1.497 . S
C1044 C1045 1.582 . S
C1044 H1101 0.962 . S
C1044 H1102 0.959 . S
C1044 H1103 0.958 . S
C1045 C1044 1.582 . S
C1045 O1048 1.458 . S
C1045 H1074 0.980 . S
O1046 C991 1.426 . S
O1046 C992 1.334 . S
O1047 C1019 1.412 . S
O1047 C1020 1.393 . S
O1048 C1010 1.435 . S
O1048 C1045 1.458 . S
O1049 C1001 1.468 . S
O1049 C1002 1.408 . S
H1050 C991 0.980 . S
H1051 C990 0.959 . S
H1052 C990 0.959 . S
H1053 C990 0.960 . S
H1054 C993 0.929 . S
H1055 C997 0.929 . S
H1056 C998 0.959 . S
H1057 C998 0.961 . S
H1058 C998 0.961 . S
H1059 C999 0.960 . S
H1060 C999 0.960 . S
H1061 C999 0.961 . S
H1062 C1001 0.980 . S
H1063 C1000 0.961 . S
H1064 C1000 0.960 . S
H1065 C1000 0.959 . S
H1066 C1003 0.930 . S
H1067 C1007 0.931 . S
H1068 C1008 0.959 . S
H1069 C1008 0.961 . S
H1070 C1008 0.959 . S
H1071 C1009 0.960 . S
H1072 C1009 0.960 . S
H1073 C1009 0.960 . S
H1074 C1045 0.980 . S
H1075 C1011 0.930 . S
H1076 C1015 0.930 . S
H1077 C1016 0.961 . S
H1078 C1016 0.960 . S
H1079 C1016 0.958 . S
H1080 C1017 0.961 . S
H1081 C1017 0.960 . S
H1082 C1017 0.960 . S
H1083 C1019 0.980 . S
H1084 C1018 0.961 . S
H1085 C1018 0.961 . S
H1086 C1018 0.959 . S
H1087 C1021 0.932 . S
H1088 C1025 0.929 . S
H1089 C1026 0.961 . S
H1090 C1026 0.959 . S
H1091 C1026 0.959 . S
H1092 C1027 0.960 . S
H1093 C1027 0.962 . S
H1094 C1027 0.961 . S
H1095 C1029 0.929 . S
H1096 C1032 0.930 . S
H1097 C1033 0.929 . S
H1098 C1036 0.930 . S
H1099 C1039 0.929 . S
H1100 C1040 0.930 . S
H1101 C1044 0.962 . S
H1102 C1044 0.959 . S
H1103 C1044 0.958 . S
C1104 C1105 1.560 . S
C1104 H1165 0.959 . S
C1104 H1166 0.959 . S
C1104 H1167 0.960 . S
C1105 C1104 1.560 . S
C1105 O1160 1.426 . S
C1105 H1164 0.980 . S
C1106 C1107 1.407 . S
C1106 C1111 1.418 . S
C1106 O1160 1.334 . S
C1107 C1106 1.407 . S
C1107 C1108 1.360 . S
C1107 H1168 0.929 . S
C1108 C1107 1.360 . S
C1108 C1109 1.401 . S
C1108 C1112 1.527 . S
C1109 C1108 1.401 . S
C1109 C1110 1.405 . S
C1109 C1142 1.587 . S
C1110 C1109 1.405 . S
C1110 C1111 1.332 . S
C1110 C1113 1.496 . S
C1111 C1106 1.418 . S
C1111 C1110 1.332 . S
C1111 H1169 0.929 . S
C1112 C1108 1.527 . S
C1112 H1170 0.959 . S
C1112 H1171 0.961 . S
C1112 H1172 0.961 . S
C1113 C1110 1.496 . S
C1113 H1173 0.960 . S
C1113 H1174 0.960 . S
C1113 H1175 0.961 . S
C1114 C1115 1.517 . S
C1114 H1177 0.961 . S
C1114 H1178 0.960 . S
C1114 H1179 0.959 . S
C1115 C1114 1.517 . S
C1115 O1163 1.468 . S
C1115 H1176 0.980 . S
C1116 C1117 1.349 . S
C1116 C1121 1.367 . S
C1116 O1163 1.408 . S
C1117 C1116 1.349 . S
C1117 C1118 1.407 . S
C1117 H1180 0.930 . S
C1118 C1117 1.407 . S
C1118 C1119 1.449 . S
C1118 C1122 1.535 . S
C1119 C1118 1.449 . S
C1119 C1120 1.384 . S
C1119 C1144 1.553 . S
C1120 C1119 1.384 . S
C1120 C1121 1.364 . S
C1120 C1123 1.450 . S
C1121 C1116 1.367 . S
C1121 C1120 1.364 . S
C1121 H1181 0.931 . S
C1122 C1118 1.535 . S
C1122 H1182 0.959 . S
C1122 H1183 0.961 . S
C1122 H1184 0.959 . S
C1123 C1120 1.450 . S
C1123 H1185 0.960 . S
C1123 H1186 0.960 . S
C1123 H1187 0.960 . S
C1124 C1125 1.309 . S
C1124 C1129 1.304 . S
C1124 O1162 1.435 . S
C1125 C1124 1.309 . S
C1125 C1126 1.476 . S
C1125 H1189 0.930 . S
C1126 C1125 1.476 . S
C1126 C1127 1.400 . S
C1126 C1130 1.567 . S
C1127 C1126 1.400 . S
C1127 C1128 1.373 . S
C1127 C1149 1.432 . S
C1128 C1127 1.373 . S
C1128 C1129 1.339 . S
C1128 C1131 1.530 . S
C1129 C1124 1.304 . S
C1129 C1128 1.339 . S
C1129 H1190 0.930 . S
C1130 C1126 1.567 . S
C1130 H1191 0.961 . S
C1130 H1192 0.960 . S
C1130 H1193 0.958 . S
C1131 C1128 1.530 . S
C1131 H1194 0.961 . S
C1131 H1195 0.960 . S
C1131 H1196 0.960 . S
C1132 C1133 1.530 . S
C1132 H1198 0.961 . S
C1132 H1199 0.961 . S
C1132 H1200 0.959 . S
C1133 C1132 1.530 . S
C1133 O1161 1.412 . S
C1133 H1197 0.980 . S
C1134 C1135 1.288 . S
C1134 C1139 1.377 . S
C1134 O1161 1.393 . S
C1135 C1134 1.288 . S
C1135 C1136 1.369 . S
C1135 H1201 0.932 . S
C1136 C1135 1.369 . S
C1136 C1137 1.398 . S
C1136 C1140 1.527 . S
C1137 C1136 1.398 . S
C1137 C1138 1.380 . S
C1137 C1151 1.497 . S
C1138 C1137 1.380 . S
C1138 C1139 1.383 . S
C1138 C1141 1.603 . S
C1139 C1134 1.377 . S
C1139 C1138 1.383 . S
C1139 H1202 0.929 . S
C1140 C1136 1.527 . S
C1140 H1203 0.961 . S
C1140 H1204 0.959 . S
C1140 H1205 0.959 . S
C1141 C1138 1.603 . S
C1141 H1206 0.960 . S
C1141 H1207 0.962 . S
C1141 H1208 0.961 . S
C1142 C1109 1.587 . S
C1142 C1143 1.360 . S
C1142 C1155 1.412 . S
C1143 C1142 1.360 . S
C1143 C1144 1.365 . S
C1143 H1209 0.929 . S
C1144 C1119 1.553 . S
C1144 C1143 1.365 . S
C1144 C1145 1.404 . S
C1145 C1144 1.404 . S
C1145 C1146 1.395 . S
C1145 C1156 1.451 . S
C1146 C1145 1.395 . S
C1146 C1147 1.322 . S
C1146 H1210 0.930 . S
C1147 C1146 1.322 . S
C1147 C1148 1.459 . S
C1147 H1211 0.929 . S
C1148 C1147 1.459 . S
C1148 C1149 1.445 . S
C1148 C1157 1.395 . S
C1149 C1127 1.432 . S
C1149 C1148 1.445 . S
C1149 C1150 1.370 . S
C1150 C1149 1.370 . S
C1150 C1151 1.438 . S
C1150 H1212 0.930 . S
C1151 C1137 1.497 . S
C1151 C1150 1.438 . S
C1151 C1152 1.360 . S
C1152 C1151 1.360 . S
C1152 C1153 1.401 . S
C1152 C1157 1.446 . S
C1153 C1152 1.401 . S
C1153 C1154 1.347 . S
C1153 H1213 0.929 . S
C1154 C1153 1.347 . S
C1154 C1155 1.455 . S
C1154 H1214 0.930 . S
C1155 C1142 1.412 . S
C1155 C1154 1.455 . S
C1155 C1156 1.331 . S
C1156 C1145 1.451 . S
C1156 C1155 1.331 . S
C1156 C1157 1.497 . S
C1157 C1148 1.395 . S
C1157 C1152 1.446 . S
C1157 C1156 1.497 . S
C1158 C1159 1.582 . S
C1158 H1215 0.962 . S
C1158 H1216 0.959 . S
C1158 H1217 0.958 . S
C1159 C1158 1.582 . S
C1159 O1162 1.458 . S
C1159 H1188 0.980 . S
O1160 C1105 1.426 . S
O1160 C1106 1.334 . S
O1161 C1133 1.412 . S
O1161 C1134 1.393 . S
O1162 C1124 1.435 . S
O1162 C1159 1.458 . S
O1163 C1115 1.468 . S
O1163 C1116 1.408 . S
H1164 C1105 0.980 . S
H1165 C1104 0.959 . S
H1166 C1104 0.959 . S
H1167 C1104 0.960 . S
H1168 C1107 0.929 . S
H1169 C1111 0.929 . S
H1170 C1112 0.959 . S
H1171 C1112 0.961 . S
H1172 C1112 0.961 . S
H1173 C1113 0.960 . S
H1174 C1113 0.960 . S
H1175 C1113 0.961 . S
H1176 C1115 0.980 . S
H1177 C1114 0.961 . S
H1178 C1114 0.960 . S
H1179 C1114 0.959 . S
H1180 C1117 0.930 . S
H1181 C1121 0.931 . S
H1182 C1122 0.959 . S
H1183 C1122 0.961 . S
H1184 C1122 0.959 . S
H1185 C1123 0.960 . S
H1186 C1123 0.960 . S
H1187 C1123 0.960 . S
H1188 C1159 0.980 . S
H1189 C1125 0.930 . S
H1190 C1129 0.930 . S
H1191 C1130 0.961 . S
H1192 C1130 0.960 . S
H1193 C1130 0.958 . S
H1194 C1131 0.961 . S
H1195 C1131 0.960 . S
H1196 C1131 0.960 . S
H1197 C1133 0.980 . S
H1198 C1132 0.961 . S
H1199 C1132 0.961 . S
H1200 C1132 0.959 . S
H1201 C1135 0.932 . S
H1202 C1139 0.929 . S
H1203 C1140 0.961 . S
H1204 C1140 0.959 . S
H1205 C1140 0.959 . S
H1206 C1141 0.960 . S
H1207 C1141 0.962 . S
H1208 C1141 0.961 . S
H1209 C1143 0.929 . S
H1210 C1146 0.930 . S
H1211 C1147 0.929 . S
H1212 C1150 0.930 . S
H1213 C1153 0.929 . S
H1214 C1154 0.930 . S
H1215 C1158 0.962 . S
H1216 C1158 0.959 . S
H1217 C1158 0.958 . S
C1218 C1219 1.560 . S
C1218 H1279 0.959 . S
C1218 H1280 0.959 . S
C1218 H1281 0.960 . S
C1219 C1218 1.560 . S
C1219 O1274 1.426 . S
C1219 H1278 0.980 . S
C1220 C1221 1.407 . S
C1220 C1225 1.418 . S
C1220 O1274 1.334 . S
C1221 C1220 1.407 . S
C1221 C1222 1.360 . S
C1221 H1282 0.929 . S
C1222 C1221 1.360 . S
C1222 C1223 1.401 . S
C1222 C1226 1.527 . S
C1223 C1222 1.401 . S
C1223 C1224 1.405 . S
C1223 C1256 1.587 . S
C1224 C1223 1.405 . S
C1224 C1225 1.332 . S
C1224 C1227 1.496 . S
C1225 C1220 1.418 . S
C1225 C1224 1.332 . S
C1225 H1283 0.929 . S
C1226 C1222 1.527 . S
C1226 H1284 0.959 . S
C1226 H1285 0.961 . S
C1226 H1286 0.961 . S
C1227 C1224 1.496 . S
C1227 H1287 0.960 . S
C1227 H1288 0.960 . S
C1227 H1289 0.961 . S
C1228 C1229 1.517 . S
C1228 H1291 0.961 . S
C1228 H1292 0.960 . S
C1228 H1293 0.959 . S
C1229 C1228 1.517 . S
C1229 O1277 1.468 . S
C1229 H1290 0.980 . S
C1230 C1231 1.349 . S
C1230 C1235 1.367 . S
C1230 O1277 1.408 . S
C1231 C1230 1.349 . S
C1231 C1232 1.407 . S
C1231 H1294 0.930 . S
C1232 C1231 1.407 . S
C1232 C1233 1.449 . S
C1232 C1236 1.535 . S
C1233 C1232 1.449 . S
C1233 C1234 1.384 . S
C1233 C1258 1.553 . S
C1234 C1233 1.384 . S
C1234 C1235 1.364 . S
C1234 C1237 1.450 . S
C1235 C1230 1.367 . S
C1235 C1234 1.364 . S
C1235 H1295 0.931 . S
C1236 C1232 1.535 . S
C1236 H1296 0.959 . S
C1236 H1297 0.961 . S
C1236 H1298 0.959 . S
C1237 C1234 1.450 . S
C1237 H1299 0.960 . S
C1237 H1300 0.960 . S
C1237 H1301 0.960 . S
C1238 C1239 1.309 . S
C1238 C1243 1.304 . S
C1238 O1276 1.435 . S
C1239 C1238 1.309 . S
C1239 C1240 1.476 . S
C1239 H1303 0.930 . S
C1240 C1239 1.476 . S
C1240 C1241 1.400 . S
C1240 C1244 1.567 . S
C1241 C1240 1.400 . S
C1241 C1242 1.373 . S
C1241 C1263 1.432 . S
C1242 C1241 1.373 . S
C1242 C1243 1.339 . S
C1242 C1245 1.530 . S
C1243 C1238 1.304 . S
C1243 C1242 1.339 . S
C1243 H1304 0.930 . S
C1244 C1240 1.567 . S
C1244 H1305 0.961 . S
C1244 H1306 0.960 . S
C1244 H1307 0.958 . S
C1245 C1242 1.530 . S
C1245 H1308 0.961 . S
C1245 H1309 0.960 . S
C1245 H1310 0.960 . S
C1246 C1247 1.530 . S
C1246 H1312 0.961 . S
C1246 H1313 0.961 . S
C1246 H1314 0.959 . S
C1247 C1246 1.530 . S
C1247 O1275 1.412 . S
C1247 H1311 0.980 . S
C1248 C1249 1.288 . S
C1248 C1253 1.377 . S
C1248 O1275 1.393 . S
C1249 C1248 1.288 . S
C1249 C1250 1.369 . S
C1249 H1315 0.932 . S
C1250 C1249 1.369 . S
C1250 C1251 1.398 . S
C1250 C1254 1.527 . S
C1251 C1250 1.398 . S
C1251 C1252 1.380 . S
C1251 C1265 1.497 . S
C1252 C1251 1.380 . S
C1252 C1253 1.383 . S
C1252 C1255 1.603 . S
C1253 C1248 1.377 . S
C1253 C1252 1.383 . S
C1253 H1316 0.929 . S
C1254 C1250 1.527 . S
C1254 H1317 0.961 . S
C1254 H1318 0.959 . S
C1254 H1319 0.959 . S
C1255 C1252 1.603 . S
C1255 H1320 0.960 . S
C1255 H1321 0.962 . S
C1255 H1322 0.961 . S
C1256 C1223 1.587 . S
C1256 C1257 1.360 . S
C1256 C1269 1.412 . S
C1257 C1256 1.360 . S
C1257 C1258 1.365 . S
C1257 H1323 0.929 . S
C1258 C1233 1.553 . S
C1258 C1257 1.365 . S
C1258 C1259 1.404 . S
C1259 C1258 1.404 . S
C1259 C1260 1.395 . S
C1259 C1270 1.451 . S
C1260 C1259 1.395 . S
C1260 C1261 1.322 . S
C1260 H1324 0.930 . S
C1261 C1260 1.322 . S
C1261 C1262 1.459 . S
C1261 H1325 0.929 . S
C1262 C1261 1.459 . S
C1262 C1263 1.445 . S
C1262 C1271 1.395 . S
C1263 C1241 1.432 . S
C1263 C1262 1.445 . S
C1263 C1264 1.370 . S
C1264 C1263 1.370 . S
C1264 C1265 1.438 . S
C1264 H1326 0.930 . S
C1265 C1251 1.497 . S
C1265 C1264 1.438 . S
C1265 C1266 1.360 . S
C1266 C1265 1.360 . S
C1266 C1267 1.401 . S
C1266 C1271 1.446 . S
C1267 C1266 1.401 . S
C1267 C1268 1.347 . S
C1267 H1327 0.929 . S
C1268 C1267 1.347 . S
C1268 C1269 1.455 . S
C1268 H1328 0.930 . S
C1269 C1256 1.412 . S
C1269 C1268 1.455 . S
C1269 C1270 1.331 . S
C1270 C1259 1.451 . S
C1270 C1269 1.331 . S
C1270 C1271 1.497 . S
C1271 C1262 1.395 . S
C1271 C1266 1.446 . S
C1271 C1270 1.497 . S
C1272 C1273 1.582 . S
C1272 H1329 0.962 . S
C1272 H1330 0.959 . S
C1272 H1331 0.958 . S
C1273 C1272 1.582 . S
C1273 O1276 1.458 . S
C1273 H1302 0.980 . S
O1274 C1219 1.426 . S
O1274 C1220 1.334 . S
O1275 C1247 1.412 . S
O1275 C1248 1.393 . S
O1276 C1238 1.435 . S
O1276 C1273 1.458 . S
O1277 C1229 1.468 . S
O1277 C1230 1.408 . S
H1278 C1219 0.980 . S
H1279 C1218 0.959 . S
H1280 C1218 0.959 . S
H1281 C1218 0.960 . S
H1282 C1221 0.929 . S
H1283 C1225 0.929 . S
H1284 C1226 0.959 . S
H1285 C1226 0.961 . S
H1286 C1226 0.961 . S
H1287 C1227 0.960 . S
H1288 C1227 0.960 . S
H1289 C1227 0.961 . S
H1290 C1229 0.980 . S
H1291 C1228 0.961 . S
H1292 C1228 0.960 . S
H1293 C1228 0.959 . S
H1294 C1231 0.930 . S
H1295 C1235 0.931 . S
H1296 C1236 0.959 . S
H1297 C1236 0.961 . S
H1298 C1236 0.959 . S
H1299 C1237 0.960 . S
H1300 C1237 0.960 . S
H1301 C1237 0.960 . S
H1302 C1273 0.980 . S
H1303 C1239 0.930 . S
H1304 C1243 0.930 . S
H1305 C1244 0.961 . S
H1306 C1244 0.960 . S
H1307 C1244 0.958 . S
H1308 C1245 0.961 . S
H1309 C1245 0.960 . S
H1310 C1245 0.960 . S
H1311 C1247 0.980 . S
H1312 C1246 0.961 . S
H1313 C1246 0.961 . S
H1314 C1246 0.959 . S
H1315 C1249 0.932 . S
H1316 C1253 0.929 . S
H1317 C1254 0.961 . S
H1318 C1254 0.959 . S
H1319 C1254 0.959 . S
H1320 C1255 0.960 . S
H1321 C1255 0.962 . S
H1322 C1255 0.961 . S
H1323 C1257 0.929 . S
H1324 C1260 0.930 . S
H1325 C1261 0.929 . S
H1326 C1264 0.930 . S
H1327 C1267 0.929 . S
H1328 C1268 0.930 . S
H1329 C1272 0.962 . S
H1330 C1272 0.959 . S
H1331 C1272 0.958 . S
C1332 C1333 1.560 . S
C1332 H1393 0.959 . S
C1332 H1394 0.959 . S
C1332 H1395 0.960 . S
C1333 C1332 1.560 . S
C1333 O1388 1.426 . S
C1333 H1392 0.980 . S
C1334 C1335 1.407 . S
C1334 C1339 1.418 . S
C1334 O1388 1.334 . S
C1335 C1334 1.407 . S
C1335 C1336 1.360 . S
C1335 H1396 0.929 . S
C1336 C1335 1.360 . S
C1336 C1337 1.401 . S
C1336 C1340 1.527 . S
C1337 C1336 1.401 . S
C1337 C1338 1.405 . S
C1337 C1370 1.587 . S
C1338 C1337 1.405 . S
C1338 C1339 1.332 . S
C1338 C1341 1.496 . S
C1339 C1334 1.418 . S
C1339 C1338 1.332 . S
C1339 H1397 0.929 . S
C1340 C1336 1.527 . S
C1340 H1398 0.959 . S
C1340 H1399 0.961 . S
C1340 H1400 0.961 . S
C1341 C1338 1.496 . S
C1341 H1401 0.960 . S
C1341 H1402 0.960 . S
C1341 H1403 0.961 . S
C1342 C1343 1.517 . S
C1342 H1405 0.961 . S
C1342 H1406 0.960 . S
C1342 H1407 0.959 . S
C1343 C1342 1.517 . S
C1343 O1391 1.468 . S
C1343 H1404 0.980 . S
C1344 C1345 1.349 . S
C1344 C1349 1.367 . S
C1344 O1391 1.408 . S
C1345 C1344 1.349 . S
C1345 C1346 1.407 . S
C1345 H1408 0.930 . S
C1346 C1345 1.407 . S
C1346 C1347 1.449 . S
C1346 C1350 1.535 . S
C1347 C1346 1.449 . S
C1347 C1348 1.384 . S
C1347 C1372 1.553 . S
C1348 C1347 1.384 . S
C1348 C1349 1.364 . S
C1348 C1351 1.450 . S
C1349 C1344 1.367 . S
C1349 C1348 1.364 . S
C1349 H1409 0.931 . S
C1350 C1346 1.535 . S
C1350 H1410 0.959 . S
C1350 H1411 0.961 . S
C1350 H1412 0.959 . S
C1351 C1348 1.450 . S
C1351 H1413 0.960 . S
C1351 H1414 0.960 . S
C1351 H1415 0.960 . S
C1352 C1353 1.309 . S
C1352 C1357 1.304 . S
C1352 O1390 1.435 . S
C1353 C1352 1.309 . S
C1353 C1354 1.476 . S
C1353 H1417 0.930 . S
C1354 C1353 1.476 . S
C1354 C1355 1.400 . S
C1354 C1358 1.567 . S
C1355 C1354 1.400 . S
C1355 C1356 1.373 . S
C1355 C1377 1.432 . S
C1356 C1355 1.373 . S
C1356 C1357 1.339 . S
C1356 C1359 1.530 . S
C1357 C1352 1.304 . S
C1357 C1356 1.339 . S
C1357 H1418 0.930 . S
C1358 C1354 1.567 . S
C1358 H1419 0.961 . S
C1358 H1420 0.960 . S
C1358 H1421 0.958 . S
C1359 C1356 1.530 . S
C1359 H1422 0.961 . S
C1359 H1423 0.960 . S
C1359 H1424 0.960 . S
C1360 C1361 1.530 . S
C1360 H1426 0.961 . S
C1360 H1427 0.961 . S
C1360 H1428 0.959 . S
C1361 C1360 1.530 . S
C1361 O1389 1.412 . S
C1361 H1425 0.980 . S
C1362 C1363 1.288 . S
C1362 C1367 1.377 . S
C1362 O1389 1.393 . S
C1363 C1362 1.288 . S
C1363 C1364 1.369 . S
C1363 H1429 0.932 . S
C1364 C1363 1.369 . S
C1364 C1365 1.398 . S
C1364 C1368 1.527 . S
C1365 C1364 1.398 . S
C1365 C1366 1.380 . S
C1365 C1379 1.497 . S
C1366 C1365 1.380 . S
C1366 C1367 1.383 . S
C1366 C1369 1.603 . S
C1367 C1362 1.377 . S
C1367 C1366 1.383 . S
C1367 H1430 0.929 . S
C1368 C1364 1.527 . S
C1368 H1431 0.961 . S
C1368 H1432 0.959 . S
C1368 H1433 0.959 . S
C1369 C1366 1.603 . S
C1369 H1434 0.960 . S
C1369 H1435 0.962 . S
C1369 H1436 0.961 . S
C1370 C1337 1.587 . S
C1370 C1371 1.360 . S
C1370 C1383 1.412 . S
C1371 C1370 1.360 . S
C1371 C1372 1.365 . S
C1371 H1437 0.929 . S
C1372 C1347 1.553 . S
C1372 C1371 1.365 . S
C1372 C1373 1.404 . S
C1373 C1372 1.404 . S
C1373 C1374 1.395 . S
C1373 C1384 1.451 . S
C1374 C1373 1.395 . S
C1374 C1375 1.322 . S
C1374 H1438 0.930 . S
C1375 C1374 1.322 . S
C1375 C1376 1.459 . S
C1375 H1439 0.929 . S
C1376 C1375 1.459 . S
C1376 C1377 1.445 . S
C1376 C1385 1.395 . S
C1377 C1355 1.432 . S
C1377 C1376 1.445 . S
C1377 C1378 1.370 . S
C1378 C1377 1.370 . S
C1378 C1379 1.438 . S
C1378 H1440 0.930 . S
C1379 C1365 1.497 . S
C1379 C1378 1.438 . S
C1379 C1380 1.360 . S
C1380 C1379 1.360 . S
C1380 C1381 1.401 . S
C1380 C1385 1.446 . S
C1381 C1380 1.401 . S
C1381 C1382 1.347 . S
C1381 H1441 0.929 . S
C1382 C1381 1.347 . S
C1382 C1383 1.455 . S
C1382 H1442 0.930 . S
C1383 C1370 1.412 . S
C1383 C1382 1.455 . S
C1383 C1384 1.331 . S
C1384 C1373 1.451 . S
C1384 C1383 1.331 . S
C1384 C1385 1.497 . S
C1385 C1376 1.395 . S
C1385 C1380 1.446 . S
C1385 C1384 1.497 . S
C1386 C1387 1.582 . S
C1386 H1443 0.962 . S
C1386 H1444 0.959 . S
C1386 H1445 0.958 . S
C1387 C1386 1.582 . S
C1387 O1390 1.458 . S
C1387 H1416 0.980 . S
O1388 C1333 1.426 . S
O1388 C1334 1.334 . S
O1389 C1361 1.412 . S
O1389 C1362 1.393 . S
O1390 C1352 1.435 . S
O1390 C1387 1.458 . S
O1391 C1343 1.468 . S
O1391 C1344 1.408 . S
H1392 C1333 0.980 . S
H1393 C1332 0.959 . S
H1394 C1332 0.959 . S
H1395 C1332 0.960 . S
H1396 C1335 0.929 . S
H1397 C1339 0.929 . S
H1398 C1340 0.959 . S
H1399 C1340 0.961 . S
H1400 C1340 0.961 . S
H1401 C1341 0.960 . S
H1402 C1341 0.960 . S
H1403 C1341 0.961 . S
H1404 C1343 0.980 . S
H1405 C1342 0.961 . S
H1406 C1342 0.960 . S
H1407 C1342 0.959 . S
H1408 C1345 0.930 . S
H1409 C1349 0.931 . S
H1410 C1350 0.959 . S
H1411 C1350 0.961 . S
H1412 C1350 0.959 . S
H1413 C1351 0.960 . S
H1414 C1351 0.960 . S
H1415 C1351 0.960 . S
H1416 C1387 0.980 . S
H1417 C1353 0.930 . S
H1418 C1357 0.930 . S
H1419 C1358 0.961 . S
H1420 C1358 0.960 . S
H1421 C1358 0.958 . S
H1422 C1359 0.961 . S
H1423 C1359 0.960 . S
H1424 C1359 0.960 . S
H1425 C1361 0.980 . S
H1426 C1360 0.961 . S
H1427 C1360 0.961 . S
H1428 C1360 0.959 . S
H1429 C1363 0.932 . S
H1430 C1367 0.929 . S
H1431 C1368 0.961 . S
H1432 C1368 0.959 . S
H1433 C1368 0.959 . S
H1434 C1369 0.960 . S
H1435 C1369 0.962 . S
H1436 C1369 0.961 . S
H1437 C1371 0.929 . S
H1438 C1374 0.930 . S
H1439 C1375 0.929 . S
H1440 C1378 0.930 . S
H1441 C1381 0.929 . S
H1442 C1382 0.930 . S
H1443 C1386 0.962 . S
H1444 C1386 0.959 . S
H1445 C1386 0.958 . S
C1446 C1447 1.560 . S
C1446 H1507 0.959 . S
C1446 H1508 0.959 . S
C1446 H1509 0.960 . S
C1447 C1446 1.560 . S
C1447 O1502 1.426 . S
C1447 H1506 0.980 . S
C1448 C1449 1.407 . S
C1448 C1453 1.418 . S
C1448 O1502 1.334 . S
C1449 C1448 1.407 . S
C1449 C1450 1.360 . S
C1449 H1510 0.929 . S
C1450 C1449 1.360 . S
C1450 C1451 1.401 . S
C1450 C1454 1.527 . S
C1451 C1450 1.401 . S
C1451 C1452 1.405 . S
C1451 C1484 1.587 . S
C1452 C1451 1.405 . S
C1452 C1453 1.332 . S
C1452 C1455 1.496 . S
C1453 C1448 1.418 . S
C1453 C1452 1.332 . S
C1453 H1511 0.929 . S
C1454 C1450 1.527 . S
C1454 H1512 0.959 . S
C1454 H1513 0.961 . S
C1454 H1514 0.961 . S
C1455 C1452 1.496 . S
C1455 H1515 0.960 . S
C1455 H1516 0.960 . S
C1455 H1517 0.961 . S
C1456 C1457 1.517 . S
C1456 H1519 0.961 . S
C1456 H1520 0.960 . S
C1456 H1521 0.959 . S
C1457 C1456 1.517 . S
C1457 O1505 1.468 . S
C1457 H1518 0.980 . S
C1458 C1459 1.349 . S
C1458 C1463 1.367 . S
C1458 O1505 1.408 . S
C1459 C1458 1.349 . S
C1459 C1460 1.407 . S
C1459 H1522 0.930 . S
C1460 C1459 1.407 . S
C1460 C1461 1.449 . S
C1460 C1464 1.535 . S
C1461 C1460 1.449 . S
C1461 C1462 1.384 . S
C1461 C1486 1.553 . S
C1462 C1461 1.384 . S
C1462 C1463 1.364 . S
C1462 C1465 1.450 . S
C1463 C1458 1.367 . S
C1463 C1462 1.364 . S
C1463 H1523 0.931 . S
C1464 C1460 1.535 . S
C1464 H1524 0.959 . S
C1464 H1525 0.961 . S
C1464 H1526 0.959 . S
C1465 C1462 1.450 . S
C1465 H1527 0.960 . S
C1465 H1528 0.960 . S
C1465 H1529 0.960 . S
C1466 C1467 1.309 . S
C1466 C1471 1.304 . S
C1466 O1504 1.435 . S
C1467 C1466 1.309 . S
C1467 C1468 1.476 . S
C1467 H1531 0.930 . S
C1468 C1467 1.476 . S
C1468 C1469 1.400 . S
C1468 C1472 1.567 . S
C1469 C1468 1.400 . S
C1469 C1470 1.373 . S
C1469 C1491 1.432 . S
C1470 C1469 1.373 . S
C1470 C1471 1.339 . S
C1470 C1473 1.530 . S
C1471 C1466 1.304 . S
C1471 C1470 1.339 . S
C1471 H1532 0.930 . S
C1472 C1468 1.567 . S
C1472 H1533 0.961 . S
C1472 H1534 0.960 . S
C1472 H1535 0.958 . S
C1473 C1470 1.530 . S
C1473 H1536 0.961 . S
C1473 H1537 0.960 . S
C1473 H1538 0.960 . S
C1474 C1475 1.530 . S
C1474 H1540 0.961 . S
C1474 H1541 0.961 . S
C1474 H1542 0.959 . S
C1475 C1474 1.530 . S
C1475 O1503 1.412 . S
C1475 H1539 0.980 . S
C1476 C1477 1.288 . S
C1476 C1481 1.377 . S
C1476 O1503 1.393 . S
C1477 C1476 1.288 . S
C1477 C1478 1.369 . S
C1477 H1543 0.932 . S
C1478 C1477 1.369 . S
C1478 C1479 1.398 . S
C1478 C1482 1.527 . S
C1479 C1478 1.398 . S
C1479 C1480 1.380 . S
C1479 C1493 1.497 . S
C1480 C1479 1.380 . S
C1480 C1481 1.383 . S
C1480 C1483 1.603 . S
C1481 C1476 1.377 . S
C1481 C1480 1.383 . S
C1481 H1544 0.929 . S
C1482 C1478 1.527 . S
C1482 H1545 0.961 . S
C1482 H1546 0.959 . S
C1482 H1547 0.959 . S
C1483 C1480 1.603 . S
C1483 H1548 0.960 . S
C1483 H1549 0.962 . S
C1483 H1550 0.961 . S
C1484 C1451 1.587 . S
C1484 C1485 1.360 . S
C1484 C1497 1.412 . S
C1485 C1484 1.360 . S
C1485 C1486 1.365 . S
C1485 H1551 0.929 . S
C1486 C1461 1.553 . S
C1486 C1485 1.365 . S
C1486 C1487 1.404 . S
C1487 C1486 1.404 . S
C1487 C1488 1.395 . S
C1487 C1498 1.451 . S
C1488 C1487 1.395 . S
C1488 C1489 1.322 . S
C1488 H1552 0.930 . S
C1489 C1488 1.322 . S
C1489 C1490 1.459 . S
C1489 H1553 0.929 . S
C1490 C1489 1.459 . S
C1490 C1491 1.445 . S
C1490 C1499 1.395 . S
C1491 C1469 1.432 . S
C1491 C1490 1.445 . S
C1491 C1492 1.370 . S
C1492 C1491 1.370 . S
C1492 C1493 1.438 . S
C1492 H1554 0.930 . S
C1493 C1479 1.497 . S
C1493 C1492 1.438 . S
C1493 C1494 1.360 . S
C1494 C1493 1.360 . S
C1494 C1495 1.401 . S
C1494 C1499 1.446 . S
C1495 C1494 1.401 . S
C1495 C1496 1.347 . S
C1495 H1555 0.929 . S
C1496 C1495 1.347 . S
C1496 C1497 1.455 . S
C1496 H1556 0.930 . S
C1497 C1484 1.412 . S
C1497 C1496 1.455 . S
C1497 C1498 1.331 . S
C1498 C1487 1.451 . S
C1498 C1497 1.331 . S
C1498 C1499 1.497 . S
C1499 C1490 1.395 . S
C1499 C1494 1.446 . S
C1499 C1498 1.497 . S
C1500 C1501 1.582 . S
C1500 H1557 0.962 . S
C1500 H1558 0.959 . S
C1500 H1559 0.958 . S
C1501 C1500 1.582 . S
C1501 O1504 1.458 . S
C1501 H1530 0.980 . S
O1502 C1447 1.426 . S
O1502 C1448 1.334 . S
O1503 C1475 1.412 . S
O1503 C1476 1.393 . S
O1504 C1466 1.435 . S
O1504 C1501 1.458 . S
O1505 C1457 1.468 . S
O1505 C1458 1.408 . S
H1506 C1447 0.980 . S
H1507 C1446 0.959 . S
H1508 C1446 0.959 . S
H1509 C1446 0.960 . S
H1510 C1449 0.929 . S
H1511 C1453 0.929 . S
H1512 C1454 0.959 . S
H1513 C1454 0.961 . S
H1514 C1454 0.961 . S
H1515 C1455 0.960 . S
H1516 C1455 0.960 . S
H1517 C1455 0.961 . S
H1518 C1457 0.980 . S
H1519 C1456 0.961 . S
H1520 C1456 0.960 . S
H1521 C1456 0.959 . S
H1522 C1459 0.930 . S
H1523 C1463 0.931 . S
H1524 C1464 0.959 . S
H1525 C1464 0.961 . S
H1526 C1464 0.959 . S
H1527 C1465 0.960 . S
H1528 C1465 0.960 . S
H1529 C1465 0.960 . S
H1530 C1501 0.980 . S
H1531 C1467 0.930 . S
H1532 C1471 0.930 . S
H1533 C1472 0.961 . S
H1534 C1472 0.960 . S
H1535 C1472 0.958 . S
H1536 C1473 0.961 . S
H1537 C1473 0.960 . S
H1538 C1473 0.960 . S
H1539 C1475 0.980 . S
H1540 C1474 0.961 . S
H1541 C1474 0.961 . S
H1542 C1474 0.959 . S
H1543 C1477 0.932 . S
H1544 C1481 0.929 . S
H1545 C1482 0.961 . S
H1546 C1482 0.959 . S
H1547 C1482 0.959 . S
H1548 C1483 0.960 . S
H1549 C1483 0.962 . S
H1550 C1483 0.961 . S
H1551 C1485 0.929 . S
H1552 C1488 0.930 . S
H1553 C1489 0.929 . S
H1554 C1492 0.930 . S
H1555 C1495 0.929 . S
H1556 C1496 0.930 . S
H1557 C1500 0.962 . S
H1558 C1500 0.959 . S
H1559 C1500 0.958 . S
C1560 C1561 1.560 . S
C1560 H1621 0.959 . S
C1560 H1622 0.959 . S
C1560 H1623 0.960 . S
C1561 C1560 1.560 . S
C1561 O1616 1.426 . S
C1561 H1620 0.980 . S
C1562 C1563 1.407 . S
C1562 C1567 1.418 . S
C1562 O1616 1.334 . S
C1563 C1562 1.407 . S
C1563 C1564 1.360 . S
C1563 H1624 0.929 . S
C1564 C1563 1.360 . S
C1564 C1565 1.401 . S
C1564 C1568 1.527 . S
C1565 C1564 1.401 . S
C1565 C1566 1.405 . S
C1565 C1598 1.587 . S
C1566 C1565 1.405 . S
C1566 C1567 1.332 . S
C1566 C1569 1.496 . S
C1567 C1562 1.418 . S
C1567 C1566 1.332 . S
C1567 H1625 0.929 . S
C1568 C1564 1.527 . S
C1568 H1626 0.959 . S
C1568 H1627 0.961 . S
C1568 H1628 0.961 . S
C1569 C1566 1.496 . S
C1569 H1629 0.960 . S
C1569 H1630 0.960 . S
C1569 H1631 0.961 . S
C1570 C1571 1.517 . S
C1570 H1633 0.961 . S
C1570 H1634 0.960 . S
C1570 H1635 0.959 . S
C1571 C1570 1.517 . S
C1571 O1619 1.468 . S
C1571 H1632 0.980 . S
C1572 C1573 1.349 . S
C1572 C1577 1.367 . S
C1572 O1619 1.408 . S
C1573 C1572 1.349 . S
C1573 C1574 1.407 . S
C1573 H1636 0.930 . S
C1574 C1573 1.407 . S
C1574 C1575 1.449 . S
C1574 C1578 1.535 . S
C1575 C1574 1.449 . S
C1575 C1576 1.384 . S
C1575 C1600 1.553 . S
C1576 C1575 1.384 . S
C1576 C1577 1.364 . S
C1576 C1579 1.450 . S
C1577 C1572 1.367 . S
C1577 C1576 1.364 . S
C1577 H1637 0.931 . S
C1578 C1574 1.535 . S
C1578 H1638 0.959 . S
C1578 H1639 0.961 . S
C1578 H1640 0.959 . S
C1579 C1576 1.450 . S
C1579 H1641 0.960 . S
C1579 H1642 0.960 . S
C1579 H1643 0.960 . S
C1580 C1581 1.309 . S
C1580 C1585 1.304 . S
C1580 O1618 1.435 . S
C1581 C1580 1.309 . S
C1581 C1582 1.476 . S
C1581 H1645 0.930 . S
C1582 C1581 1.476 . S
C1582 C1583 1.400 . S
C1582 C1586 1.567 . S
C1583 C1582 1.400 . S
C1583 C1584 1.373 . S
C1583 C1605 1.432 . S
C1584 C1583 1.373 . S
C1584 C1585 1.339 . S
C1584 C1587 1.530 . S
C1585 C1580 1.304 . S
C1585 C1584 1.339 . S
C1585 H1646 0.930 . S
C1586 C1582 1.567 . S
C1586 H1647 0.961 . S
C1586 H1648 0.960 . S
C1586 H1649 0.958 . S
C1587 C1584 1.530 . S
C1587 H1650 0.961 . S
C1587 H1651 0.960 . S
C1587 H1652 0.960 . S
C1588 C1589 1.530 . S
C1588 H1654 0.961 . S
C1588 H1655 0.961 . S
C1588 H1656 0.959 . S
C1589 C1588 1.530 . S
C1589 O1617 1.412 . S
C1589 H1653 0.980 . S
C1590 C1591 1.288 . S
C1590 C1595 1.377 . S
C1590 O1617 1.393 . S
C1591 C1590 1.288 . S
C1591 C1592 1.369 . S
C1591 H1657 0.932 . S
C1592 C1591 1.369 . S
C1592 C1593 1.398 . S
C1592 C1596 1.527 . S
C1593 C1592 1.398 . S
C1593 C1594 1.380 . S
C1593 C1607 1.497 . S
C1594 C1593 1.380 . S
C1594 C1595 1.383 . S
C1594 C1597 1.603 . S
C1595 C1590 1.377 . S
C1595 C1594 1.383 . S
C1595 H1658 0.929 . S
C1596 C1592 1.527 . S
C1596 H1659 0.961 . S
C1596 H1660 0.959 . S
C1596 H1661 0.959 . S
C1597 C1594 1.603 . S
C1597 H1662 0.960 . S
C1597 H1663 0.962 . S
C1597 H1664 0.961 . S
C1598 C1565 1.587 . S
C1598 C1599 1.360 . S
C1598 C1611 1.412 . S
C1599 C1598 1.360 . S
C1599 C1600 1.365 . S
C1599 H1665 0.929 . S
C1600 C1575 1.553 . S
C1600 C1599 1.365 . S
C1600 C1601 1.404 . S
C1601 C1600 1.404 . S
C1601 C1602 1.395 . S
C1601 C1612 1.451 . S
C1602 C1601 1.395 . S
C1602 C1603 1.322 . S
C1602 H1666 0.930 . S
C1603 C1602 1.322 . S
C1603 C1604 1.459 . S
C1603 H1667 0.929 . S
C1604 C1603 1.459 . S
C1604 C1605 1.445 . S
C1604 C1613 1.395 . S
C1605 C1583 1.432 . S
C1605 C1604 1.445 . S
C1605 C1606 1.370 . S
C1606 C1605 1.370 . S
C1606 C1607 1.438 . S
C1606 H1668 0.930 . S
C1607 C1593 1.497 . S
C1607 C1606 1.438 . S
C1607 C1608 1.360 . S
C1608 C1607 1.360 . S
C1608 C1609 1.401 . S
C1608 C1613 1.446 . S
C1609 C1608 1.401 . S
C1609 C1610 1.347 . S
C1609 H1669 0.929 . S
C1610 C1609 1.347 . S
C1610 C1611 1.455 . S
C1610 H1670 0.930 . S
C1611 C1598 1.412 . S
C1611 C1610 1.455 . S
C1611 C1612 1.331 . S
C1612 C1601 1.451 . S
C1612 C1611 1.331 . S
C1612 C1613 1.497 . S
C1613 C1604 1.395 . S
C1613 C1608 1.446 . S
C1613 C1612 1.497 . S
C1614 C1615 1.582 . S
C1614 H1671 0.962 . S
C1614 H1672 0.959 . S
C1614 H1673 0.958 . S
C1615 C1614 1.582 . S
C1615 O1618 1.458 . S
C1615 H1644 0.980 . S
O1616 C1561 1.426 . S
O1616 C1562 1.334 . S
O1617 C1589 1.412 . S
O1617 C1590 1.393 . S
O1618 C1580 1.435 . S
O1618 C1615 1.458 . S
O1619 C1571 1.468 . S
O1619 C1572 1.408 . S
H1620 C1561 0.980 . S
H1621 C1560 0.959 . S
H1622 C1560 0.959 . S
H1623 C1560 0.960 . S
H1624 C1563 0.929 . S
H1625 C1567 0.929 . S
H1626 C1568 0.959 . S
H1627 C1568 0.961 . S
H1628 C1568 0.961 . S
H1629 C1569 0.960 . S
H1630 C1569 0.960 . S
H1631 C1569 0.961 . S
H1632 C1571 0.980 . S
H1633 C1570 0.961 . S
H1634 C1570 0.960 . S
H1635 C1570 0.959 . S
H1636 C1573 0.930 . S
H1637 C1577 0.931 . S
H1638 C1578 0.959 . S
H1639 C1578 0.961 . S
H1640 C1578 0.959 . S
H1641 C1579 0.960 . S
H1642 C1579 0.960 . S
H1643 C1579 0.960 . S
H1644 C1615 0.980 . S
H1645 C1581 0.930 . S
H1646 C1585 0.930 . S
H1647 C1586 0.961 . S
H1648 C1586 0.960 . S
H1649 C1586 0.958 . S
H1650 C1587 0.961 . S
H1651 C1587 0.960 . S
H1652 C1587 0.960 . S
H1653 C1589 0.980 . S
H1654 C1588 0.961 . S
H1655 C1588 0.961 . S
H1656 C1588 0.959 . S
H1657 C1591 0.932 . S
H1658 C1595 0.929 . S
H1659 C1596 0.961 . S
H1660 C1596 0.959 . S
H1661 C1596 0.959 . S
H1662 C1597 0.960 . S
H1663 C1597 0.962 . S
H1664 C1597 0.961 . S
H1665 C1599 0.929 . S
H1666 C1602 0.930 . S
H1667 C1603 0.929 . S
H1668 C1606 0.930 . S
H1669 C1609 0.929 . S
H1670 C1610 0.930 . S
H1671 C1614 0.962 . S
H1672 C1614 0.959 . S
H1673 C1614 0.958 . S
C1674 C1675 1.560 . S
C1674 H1735 0.959 . S
C1674 H1736 0.959 . S
C1674 H1737 0.960 . S
C1675 C1674 1.560 . S
C1675 O1730 1.426 . S
C1675 H1734 0.980 . S
C1676 C1677 1.407 1_455 S
C1676 C1681 1.418 . S
C1676 O1730 1.334 . S
C1677 C1676 1.407 1_655 S
C1677 C1678 1.360 . S
C1677 H1738 0.929 . S
C1678 C1677 1.360 . S
C1678 C1679 1.401 1_655 S
C1678 C1682 1.527 . S
C1679 C1678 1.401 1_455 S
C1679 C1680 1.405 . S
C1679 C1712 1.587 1_455 S
C1680 C1679 1.405 . S
C1680 C1681 1.332 . S
C1680 C1683 1.496 . S
C1681 C1676 1.418 . S
C1681 C1680 1.332 . S
C1681 H1739 0.929 . S
C1682 C1678 1.527 . S
C1682 H1740 0.959 . S
C1682 H1741 0.961 . S
C1682 H1742 0.961 . S
C1683 C1680 1.496 . S
C1683 H1743 0.960 . S
C1683 H1744 0.960 . S
C1683 H1745 0.961 . S
C1684 C1685 1.517 . S
C1684 H1747 0.976 . S
C1684 H1748 0.960 . S
C1684 H1749 0.959 . S
C1685 C1684 1.517 . S
C1685 O1733 1.468 . S
C1685 H1746 0.980 1_655 S
C1686 C1687 1.349 . S
C1686 C1691 1.367 . S
C1686 O1733 1.408 . S
C1687 C1686 1.349 . S
C1687 C1688 1.407 1_655 S
C1687 H1750 0.930 1_655 S
C1688 C1687 1.407 1_455 S
C1688 C1689 1.449 1_455 S
C1688 C1692 1.535 . S
C1689 C1688 1.449 1_655 S
C1689 C1690 1.384 . S
C1689 C1714 1.553 . S
C1690 C1689 1.384 . S
C1690 C1691 1.364 . S
C1690 C1693 1.450 . S
C1691 C1686 1.367 . S
C1691 C1690 1.364 . S
C1691 H1751 0.931 . S
C1692 C1688 1.535 . S
C1692 H1752 0.959 . S
C1692 H1753 0.961 . S
C1692 H1754 0.959 . S
C1693 C1690 1.450 . S
C1693 H1755 0.960 . S
C1693 H1756 0.960 . S
C1693 H1757 0.960 . S
C1694 C1695 1.309 . S
C1694 C1699 1.304 . S
C1694 O1732 1.435 . S
C1695 C1694 1.309 . S
C1695 C1696 1.448 1_655 S
C1695 H1759 0.930 1_655 S
C1696 C1695 1.448 1_455 S
C1696 C1697 1.381 1_455 S
C1696 C1700 1.614 . S
C1697 C1696 1.381 1_655 S
C1697 C1698 1.373 . S
C1697 C1719 1.432 . S
C1698 C1697 1.373 . S
C1698 C1699 1.339 . S
C1698 C1701 1.530 . S
C1699 C1694 1.304 . S
C1699 C1698 1.339 . S
C1699 H1760 0.930 . S
C1700 C1696 1.614 . S
C1700 H1761 0.961 . S
C1700 H1762 0.960 . S
C1700 H1763 0.958 . S
C1701 C1698 1.530 . S
C1701 H1764 0.961 . S
C1701 H1765 0.960 . S
C1701 H1766 0.960 . S
C1702 C1703 1.509 1_455 S
C1702 H1768 0.961 . S
C1702 H1769 0.961 . S
C1702 H1770 0.959 . S
C1703 C1702 1.509 1_655 S
C1703 O1731 1.407 1_655 S
C1703 H1767 0.987 . S
C1704 C1705 1.288 . S
C1704 C1709 1.377 1_455 S
C1704 O1731 1.393 . S
C1705 C1704 1.288 . S
C1705 C1706 1.369 . S
C1705 H1771 0.932 . S
C1706 C1705 1.369 . S
C1706 C1707 1.398 1_455 S
C1706 C1710 1.527 . S
C1707 C1706 1.398 1_655 S
C1707 C1708 1.380 . S
C1707 C1721 1.497 . S
C1708 C1707 1.380 . S
C1708 C1709 1.383 . S
C1708 C1711 1.603 . S
C1709 C1704 1.377 1_655 S
C1709 C1708 1.383 . S
C1709 H1772 0.929 . S
C1710 C1706 1.527 . S
C1710 H1773 0.961 . S
C1710 H1774 0.959 . S
C1710 H1775 0.959 . S
C1711 C1708 1.603 . S
C1711 H1776 0.960 . S
C1711 H1777 0.962 . S
C1711 H1778 0.961 . S
C1712 C1679 1.587 1_655 S
C1712 C1713 1.360 . S
C1712 C1725 1.412 . S
C1713 C1712 1.360 . S
C1713 C1714 1.365 . S
C1713 H1779 0.929 . S
C1714 C1689 1.553 . S
C1714 C1713 1.365 . S
C1714 C1715 1.404 . S
C1715 C1714 1.404 . S
C1715 C1716 1.395 . S
C1715 C1726 1.451 . S
C1716 C1715 1.395 . S
C1716 C1717 1.322 . S
C1716 H1780 0.930 . S
C1717 C1716 1.322 . S
C1717 C1718 1.459 . S
C1717 H1781 0.929 . S
C1718 C1717 1.459 . S
C1718 C1719 1.445 . S
C1718 C1727 1.395 . S
C1719 C1697 1.432 . S
C1719 C1718 1.445 . S
C1719 C1720 1.370 . S
C1720 C1719 1.370 . S
C1720 C1721 1.438 . S
C1720 H1782 0.930 . S
C1721 C1707 1.497 . S
C1721 C1720 1.438 . S
C1721 C1722 1.360 . S
C1722 C1721 1.360 . S
C1722 C1723 1.401 . S
C1722 C1727 1.446 . S
C1723 C1722 1.401 . S
C1723 C1724 1.347 . S
C1723 H1783 0.929 . S
C1724 C1723 1.347 . S
C1724 C1725 1.455 . S
C1724 H1784 0.930 . S
C1725 C1712 1.412 . S
C1725 C1724 1.455 . S
C1725 C1726 1.331 . S
C1726 C1715 1.451 . S
C1726 C1725 1.331 . S
C1726 C1727 1.497 . S
C1727 C1718 1.395 . S
C1727 C1722 1.446 . S
C1727 C1726 1.497 . S
C1728 C1729 1.582 . S
C1728 H1785 0.962 . S
C1728 H1786 0.959 . S
C1728 H1787 0.958 . S
C1729 C1728 1.582 . S
C1729 O1732 1.458 . S
C1729 H1758 0.980 . S
O1730 C1675 1.426 . S
O1730 C1676 1.334 . S
O1731 C1703 1.407 1_455 S
O1731 C1704 1.393 . S
O1732 C1694 1.435 . S
O1732 C1729 1.458 . S
O1733 C1685 1.468 . S
O1733 C1686 1.408 . S
H1734 C1675 0.980 . S
H1735 C1674 0.959 . S
H1736 C1674 0.959 . S
H1737 C1674 0.960 . S
H1738 C1677 0.929 . S
H1739 C1681 0.929 . S
H1740 C1682 0.959 . S
H1741 C1682 0.961 . S
H1742 C1682 0.961 . S
H1743 C1683 0.960 . S
H1744 C1683 0.960 . S
H1745 C1683 0.961 . S
H1746 C1685 0.980 1_455 S
H1747 C1684 0.976 . S
H1748 C1684 0.960 . S
H1749 C1684 0.959 . S
H1750 C1687 0.930 1_455 S
H1751 C1691 0.931 . S
H1752 C1692 0.959 . S
H1753 C1692 0.961 . S
H1754 C1692 0.959 . S
H1755 C1693 0.960 . S
H1756 C1693 0.960 . S
H1757 C1693 0.960 . S
H1758 C1729 0.980 . S
H1759 C1695 0.930 1_455 S
H1760 C1699 0.930 . S
H1761 C1700 0.961 . S
H1762 C1700 0.960 . S
H1763 C1700 0.958 . S
H1764 C1701 0.961 . S
H1765 C1701 0.960 . S
H1766 C1701 0.960 . S
H1767 C1703 0.987 . S
H1768 C1702 0.961 . S
H1769 C1702 0.961 . S
H1770 C1702 0.959 . S
H1771 C1705 0.932 . S
H1772 C1709 0.929 . S
H1773 C1710 0.961 . S
H1774 C1710 0.959 . S
H1775 C1710 0.959 . S
H1776 C1711 0.960 . S
H1777 C1711 0.962 . S
H1778 C1711 0.961 . S
H1779 C1713 0.929 . S
H1780 C1716 0.930 . S
H1781 C1717 0.929 . S
H1782 C1720 0.930 . S
H1783 C1723 0.929 . S
H1784 C1724 0.930 . S
H1785 C1728 0.962 . S
H1786 C1728 0.959 . S
H1787 C1728 0.958 . S
C1788 C1789 1.560 . S
C1788 H1849 0.959 . S
C1788 H1850 0.959 . S
C1788 H1851 0.960 . S
C1789 C1788 1.560 . S
C1789 O1844 1.426 . S
C1789 H1848 0.980 . S
C1790 C1791 1.407 . S
C1790 C1795 1.418 . S
C1790 O1844 1.334 . S
C1791 C1790 1.407 . S
C1791 C1792 1.360 . S
C1791 H1852 0.929 . S
C1792 C1791 1.360 . S
C1792 C1793 1.401 . S
C1792 C1796 1.527 . S
C1793 C1792 1.401 . S
C1793 C1794 1.405 . S
C1793 C1826 1.587 . S
C1794 C1793 1.405 . S
C1794 C1795 1.332 . S
C1794 C1797 1.496 . S
C1795 C1790 1.418 . S
C1795 C1794 1.332 . S
C1795 H1853 0.929 . S
C1796 C1792 1.527 . S
C1796 H1854 0.959 . S
C1796 H1855 0.961 . S
C1796 H1856 0.961 . S
C1797 C1794 1.496 . S
C1797 H1857 0.960 . S
C1797 H1858 0.960 . S
C1797 H1859 0.961 . S
C1798 C1799 1.517 . S
C1798 H1861 0.961 . S
C1798 H1862 0.960 . S
C1798 H1863 0.959 . S
C1799 C1798 1.517 . S
C1799 O1847 1.468 . S
C1799 H1860 0.980 . S
C1800 C1801 1.349 . S
C1800 C1805 1.367 . S
C1800 O1847 1.408 . S
C1801 C1800 1.349 . S
C1801 C1802 1.407 . S
C1801 H1864 0.930 . S
C1802 C1801 1.407 . S
C1802 C1803 1.449 . S
C1802 C1806 1.535 . S
C1803 C1802 1.449 . S
C1803 C1804 1.384 . S
C1803 C1828 1.553 . S
C1804 C1803 1.384 . S
C1804 C1805 1.364 . S
C1804 C1807 1.450 . S
C1805 C1800 1.367 . S
C1805 C1804 1.364 . S
C1805 H1865 0.931 . S
C1806 C1802 1.535 . S
C1806 H1866 0.959 . S
C1806 H1867 0.961 . S
C1806 H1868 0.959 . S
C1807 C1804 1.450 . S
C1807 H1869 0.960 . S
C1807 H1870 0.960 . S
C1807 H1871 0.960 . S
C1808 C1809 1.309 . S
C1808 C1813 1.304 . S
C1808 O1846 1.435 . S
C1809 C1808 1.309 . S
C1809 C1810 1.476 . S
C1809 H1873 0.930 . S
C1810 C1809 1.476 . S
C1810 C1811 1.400 . S
C1810 C1814 1.567 . S
C1811 C1810 1.400 . S
C1811 C1812 1.373 . S
C1811 C1833 1.432 . S
C1812 C1811 1.373 . S
C1812 C1813 1.339 . S
C1812 C1815 1.530 . S
C1813 C1808 1.304 . S
C1813 C1812 1.339 . S
C1813 H1874 0.930 . S
C1814 C1810 1.567 . S
C1814 H1875 0.961 . S
C1814 H1876 0.960 . S
C1814 H1877 0.958 . S
C1815 C1812 1.530 . S
C1815 H1878 0.961 . S
C1815 H1879 0.960 . S
C1815 H1880 0.960 . S
C1816 C1817 1.530 . S
C1816 H1882 0.961 . S
C1816 H1883 0.961 . S
C1816 H1884 0.959 . S
C1817 C1816 1.530 . S
C1817 O1845 1.412 . S
C1817 H1881 0.980 . S
C1818 C1819 1.288 . S
C1818 C1823 1.377 . S
C1818 O1845 1.393 . S
C1819 C1818 1.288 . S
C1819 C1820 1.369 . S
C1819 H1885 0.932 . S
C1820 C1819 1.369 . S
C1820 C1821 1.398 . S
C1820 C1824 1.527 . S
C1821 C1820 1.398 . S
C1821 C1822 1.380 . S
C1821 C1835 1.497 . S
C1822 C1821 1.380 . S
C1822 C1823 1.383 . S
C1822 C1825 1.603 . S
C1823 C1818 1.377 . S
C1823 C1822 1.383 . S
C1823 H1886 0.929 . S
C1824 C1820 1.527 . S
C1824 H1887 0.961 . S
C1824 H1888 0.959 . S
C1824 H1889 0.959 . S
C1825 C1822 1.603 . S
C1825 H1890 0.960 . S
C1825 H1891 0.962 . S
C1825 H1892 0.961 . S
C1826 C1793 1.587 . S
C1826 C1827 1.360 . S
C1826 C1839 1.412 . S
C1827 C1826 1.360 . S
C1827 C1828 1.365 . S
C1827 H1893 0.929 . S
C1828 C1803 1.553 . S
C1828 C1827 1.365 . S
C1828 C1829 1.404 . S
C1829 C1828 1.404 . S
C1829 C1830 1.395 . S
C1829 C1840 1.451 . S
C1830 C1829 1.395 . S
C1830 C1831 1.322 . S
C1830 H1894 0.930 . S
C1831 C1830 1.322 . S
C1831 C1832 1.459 . S
C1831 H1895 0.929 . S
C1832 C1831 1.459 . S
C1832 C1833 1.445 . S
C1832 C1841 1.395 . S
C1833 C1811 1.432 . S
C1833 C1832 1.445 . S
C1833 C1834 1.370 . S
C1834 C1833 1.370 . S
C1834 C1835 1.438 . S
C1834 H1896 0.930 . S
C1835 C1821 1.497 . S
C1835 C1834 1.438 . S
C1835 C1836 1.360 . S
C1836 C1835 1.360 . S
C1836 C1837 1.401 . S
C1836 C1841 1.446 . S
C1837 C1836 1.401 . S
C1837 C1838 1.347 . S
C1837 H1897 0.929 . S
C1838 C1837 1.347 . S
C1838 C1839 1.455 . S
C1838 H1898 0.930 . S
C1839 C1826 1.412 . S
C1839 C1838 1.455 . S
C1839 C1840 1.331 . S
C1840 C1829 1.451 . S
C1840 C1839 1.331 . S
C1840 C1841 1.497 . S
C1841 C1832 1.395 . S
C1841 C1836 1.446 . S
C1841 C1840 1.497 . S
C1842 C1843 1.582 . S
C1842 H1899 0.962 . S
C1842 H1900 0.959 . S
C1842 H1901 0.958 . S
C1843 C1842 1.582 . S
C1843 O1846 1.458 . S
C1843 H1872 0.980 . S
O1844 C1789 1.426 . S
O1844 C1790 1.334 . S
O1845 C1817 1.412 . S
O1845 C1818 1.393 . S
O1846 C1808 1.435 . S
O1846 C1843 1.458 . S
O1847 C1799 1.468 . S
O1847 C1800 1.408 . S
H1848 C1789 0.980 . S
H1849 C1788 0.959 . S
H1850 C1788 0.959 . S
H1851 C1788 0.960 . S
H1852 C1791 0.929 . S
H1853 C1795 0.929 . S
H1854 C1796 0.959 . S
H1855 C1796 0.961 . S
H1856 C1796 0.961 . S
H1857 C1797 0.960 . S
H1858 C1797 0.960 . S
H1859 C1797 0.961 . S
H1860 C1799 0.980 . S
H1861 C1798 0.961 . S
H1862 C1798 0.960 . S
H1863 C1798 0.959 . S
H1864 C1801 0.930 . S
H1865 C1805 0.931 . S
H1866 C1806 0.959 . S
H1867 C1806 0.961 . S
H1868 C1806 0.959 . S
H1869 C1807 0.960 . S
H1870 C1807 0.960 . S
H1871 C1807 0.960 . S
H1872 C1843 0.980 . S
H1873 C1809 0.930 . S
H1874 C1813 0.930 . S
H1875 C1814 0.961 . S
H1876 C1814 0.960 . S
H1877 C1814 0.958 . S
H1878 C1815 0.961 . S
H1879 C1815 0.960 . S
H1880 C1815 0.960 . S
H1881 C1817 0.980 . S
H1882 C1816 0.961 . S
H1883 C1816 0.961 . S
H1884 C1816 0.959 . S
H1885 C1819 0.932 . S
H1886 C1823 0.929 . S
H1887 C1824 0.961 . S
H1888 C1824 0.959 . S
H1889 C1824 0.959 . S
H1890 C1825 0.960 . S
H1891 C1825 0.962 . S
H1892 C1825 0.961 . S
H1893 C1827 0.929 . S
H1894 C1830 0.930 . S
H1895 C1831 0.929 . S
H1896 C1834 0.930 . S
H1897 C1837 0.929 . S
H1898 C1838 0.930 . S
H1899 C1842 0.962 . S
H1900 C1842 0.959 . S
H1901 C1842 0.958 . S
C1902 C1903 1.560 . S
C1902 H1963 0.959 . S
C1902 H1964 0.959 . S
C1902 H1965 0.960 . S
C1903 C1902 1.560 . S
C1903 O1958 1.426 . S
C1903 H1962 0.980 . S
C1904 C1905 1.407 1_565 S
C1904 C1909 1.418 . S
C1904 O1958 1.334 . S
C1905 C1904 1.407 1_545 S
C1905 C1906 1.360 . S
C1905 H1966 0.929 . S
C1906 C1905 1.360 . S
C1906 C1907 1.401 1_545 S
C1906 C1910 1.527 . S
C1907 C1906 1.401 1_565 S
C1907 C1908 1.405 . S
C1907 C1940 1.587 1_565 S
C1908 C1907 1.405 . S
C1908 C1909 1.332 . S
C1908 C1911 1.496 . S
C1909 C1904 1.418 . S
C1909 C1908 1.332 . S
C1909 H1967 0.929 . S
C1910 C1906 1.527 . S
C1910 H1968 0.959 . S
C1910 H1969 0.961 . S
C1910 H1970 0.961 . S
C1911 C1908 1.496 . S
C1911 H1971 0.960 . S
C1911 H1972 0.960 . S
C1911 H1973 0.961 . S
C1912 C1913 1.517 . S
C1912 H1975 0.908 1_545 S
C1912 H1976 0.960 . S
C1912 H1977 0.959 . S
C1913 C1912 1.517 . S
C1913 O1961 1.468 . S
C1913 H1974 0.980 1_545 S
C1914 C1915 1.349 . S
C1914 C1919 1.367 . S
C1914 O1961 1.408 . S
C1915 C1914 1.349 . S
C1915 C1916 1.407 1_545 S
C1915 H1978 0.930 1_545 S
C1916 C1915 1.407 1_565 S
C1916 C1917 1.449 1_565 S
C1916 C1920 1.535 . S
C1917 C1916 1.449 1_545 S
C1917 C1918 1.384 . S
C1917 C1942 1.553 . S
C1918 C1917 1.384 . S
C1918 C1919 1.364 . S
C1918 C1921 1.450 . S
C1919 C1914 1.367 . S
C1919 C1918 1.364 . S
C1919 H1979 0.931 . S
C1920 C1916 1.535 . S
C1920 H1980 0.959 . S
C1920 H1981 0.961 . S
C1920 H1982 0.959 . S
C1921 C1918 1.450 . S
C1921 H1983 0.960 . S
C1921 H1984 0.960 . S
C1921 H1985 0.960 . S
C1922 C1923 1.309 . S
C1922 C1927 1.304 . S
C1922 O1960 1.435 . S
C1923 C1922 1.309 . S
C1923 C1924 1.485 1_545 S
C1923 H1987 0.930 1_545 S
C1924 C1923 1.485 1_565 S
C1924 C1925 1.369 1_565 S
C1924 C1928 1.589 . S
C1925 C1924 1.369 1_545 S
C1925 C1926 1.373 . S
C1925 C1947 1.432 . S
C1926 C1925 1.373 . S
C1926 C1927 1.339 . S
C1926 C1929 1.530 . S
C1927 C1922 1.304 . S
C1927 C1926 1.339 . S
C1927 H1988 0.930 . S
C1928 C1924 1.589 . S
C1928 H1989 0.961 . S
C1928 H1990 0.960 . S
C1928 H1991 0.958 . S
C1929 C1926 1.530 . S
C1929 H1992 0.961 . S
C1929 H1993 0.960 . S
C1929 H1994 0.960 . S
C1930 C1931 1.530 1_565 S
C1930 H1996 0.961 . S
C1930 H1997 0.961 . S
C1930 H1998 0.959 . S
C1931 C1930 1.530 1_545 S
C1931 O1959 1.412 1_545 S
C1931 H1995 0.980 . S
C1932 C1933 1.288 . S
C1932 C1937 1.377 1_565 S
C1932 O1959 1.393 . S
C1933 C1932 1.288 . S
C1933 C1934 1.369 . S
C1933 H1999 0.932 . S
C1934 C1933 1.369 . S
C1934 C1935 1.398 1_565 S
C1934 C1938 1.527 . S
C1935 C1934 1.398 1_545 S
C1935 C1936 1.380 . S
C1935 C1949 1.497 . S
C1936 C1935 1.380 . S
C1936 C1937 1.383 . S
C1936 C1939 1.603 . S
C1937 C1932 1.377 1_545 S
C1937 C1936 1.383 . S
C1937 H2000 0.929 . S
C1938 C1934 1.527 . S
C1938 H2001 0.961 . S
C1938 H2002 0.959 . S
C1938 H2003 0.959 . S
C1939 C1936 1.603 . S
C1939 H2004 0.960 . S
C1939 H2005 0.962 . S
C1939 H2006 0.961 . S
C1940 C1907 1.587 1_545 S
C1940 C1941 1.360 . S
C1940 C1953 1.412 . S
C1941 C1940 1.360 . S
C1941 C1942 1.365 . S
C1941 H2007 0.929 . S
C1942 C1917 1.553 . S
C1942 C1941 1.365 . S
C1942 C1943 1.404 . S
C1943 C1942 1.404 . S
C1943 C1944 1.395 . S
C1943 C1954 1.451 . S
C1944 C1943 1.395 . S
C1944 C1945 1.322 . S
C1944 H2008 0.930 . S
C1945 C1944 1.322 . S
C1945 C1946 1.459 . S
C1945 H2009 0.929 . S
C1946 C1945 1.459 . S
C1946 C1947 1.445 . S
C1946 C1955 1.395 . S
C1947 C1925 1.432 . S
C1947 C1946 1.445 . S
C1947 C1948 1.370 . S
C1948 C1947 1.370 . S
C1948 C1949 1.438 . S
C1948 H2010 0.930 . S
C1949 C1935 1.497 . S
C1949 C1948 1.438 . S
C1949 C1950 1.360 . S
C1950 C1949 1.360 . S
C1950 C1951 1.401 . S
C1950 C1955 1.446 . S
C1951 C1950 1.401 . S
C1951 C1952 1.347 . S
C1951 H2011 0.929 . S
C1952 C1951 1.347 . S
C1952 C1953 1.455 . S
C1952 H2012 0.930 . S
C1953 C1940 1.412 . S
C1953 C1952 1.455 . S
C1953 C1954 1.331 . S
C1954 C1943 1.451 . S
C1954 C1953 1.331 . S
C1954 C1955 1.497 . S
C1955 C1946 1.395 . S
C1955 C1950 1.446 . S
C1955 C1954 1.497 . S
C1956 C1957 1.582 . S
C1956 H2013 0.962 . S
C1956 H2014 0.959 . S
C1956 H2015 0.958 . S
C1957 C1956 1.582 . S
C1957 O1960 1.458 . S
C1957 H1986 0.980 . S
O1958 C1903 1.426 . S
O1958 C1904 1.334 . S
O1959 C1931 1.412 1_565 S
O1959 C1932 1.393 . S
O1960 C1922 1.435 . S
O1960 C1957 1.458 . S
O1961 C1913 1.468 . S
O1961 C1914 1.408 . S
H1962 C1903 0.980 . S
H1963 C1902 0.959 . S
H1964 C1902 0.959 . S
H1965 C1902 0.960 . S
H1966 C1905 0.929 . S
H1967 C1909 0.929 . S
H1968 C1910 0.959 . S
H1969 C1910 0.961 . S
H1970 C1910 0.961 . S
H1971 C1911 0.960 . S
H1972 C1911 0.960 . S
H1973 C1911 0.961 . S
H1974 C1913 0.980 1_565 S
H1975 C1912 0.908 1_565 S
H1976 C1912 0.960 . S
H1977 C1912 0.959 . S
H1978 C1915 0.930 1_565 S
H1979 C1919 0.931 . S
H1980 C1920 0.959 . S
H1981 C1920 0.961 . S
H1982 C1920 0.959 . S
H1983 C1921 0.960 . S
H1984 C1921 0.960 . S
H1985 C1921 0.960 . S
H1986 C1957 0.980 . S
H1987 C1923 0.930 1_565 S
H1988 C1927 0.930 . S
H1989 C1928 0.961 . S
H1990 C1928 0.960 . S
H1991 C1928 0.958 . S
H1992 C1929 0.961 . S
H1993 C1929 0.960 . S
H1994 C1929 0.960 . S
H1995 C1931 0.980 . S
H1996 C1930 0.961 . S
H1997 C1930 0.961 . S
H1998 C1930 0.959 . S
H1999 C1933 0.932 . S
H2000 C1937 0.929 . S
H2001 C1938 0.961 . S
H2002 C1938 0.959 . S
H2003 C1938 0.959 . S
H2004 C1939 0.960 . S
H2005 C1939 0.962 . S
H2006 C1939 0.961 . S
H2007 C1941 0.929 . S
H2008 C1944 0.930 . S
H2009 C1945 0.929 . S
H2010 C1948 0.930 . S
H2011 C1951 0.929 . S
H2012 C1952 0.930 . S
H2013 C1956 0.962 . S
H2014 C1956 0.959 . S
H2015 C1956 0.958 . S
C2016 C2017 1.560 . S
C2016 H2077 0.959 . S
C2016 H2078 0.959 . S
C2016 H2079 0.960 . S
C2017 C2016 1.560 . S
C2017 O2072 1.426 . S
C2017 H2076 0.980 1_565 S
C2018 C2019 1.407 1_565 S
C2018 C2023 1.418 . S
C2018 O2072 1.334 . S
C2019 C2018 1.407 1_545 S
C2019 C2020 1.360 . S
C2019 H2080 0.929 . S
C2020 C2019 1.360 . S
C2020 C2021 1.401 . S
C2020 C2024 1.527 . S
C2021 C2020 1.401 . S
C2021 C2022 1.405 1_545 S
C2021 C2054 1.587 . S
C2022 C2021 1.405 1_565 S
C2022 C2023 1.332 . S
C2022 C2025 1.496 . S
C2023 C2018 1.418 . S
C2023 C2022 1.332 . S
C2023 H2081 0.929 . S
C2024 C2020 1.527 . S
C2024 H2082 0.959 . S
C2024 H2083 0.961 . S
C2024 H2084 0.961 . S
C2025 C2022 1.496 . S
C2025 H2085 0.960 . S
C2025 H2086 0.960 . S
C2025 H2087 0.961 . S
C2026 C2027 1.517 . S
C2026 H2089 0.961 . S
C2026 H2090 0.960 . S
C2026 H2091 0.959 . S
C2027 C2026 1.517 . S
C2027 O2075 1.468 . S
C2027 H2088 0.980 . S
C2028 C2029 1.349 . S
C2028 C2033 1.367 . S
C2028 O2075 1.408 . S
C2029 C2028 1.349 . S
C2029 C2030 1.407 . S
C2029 H2092 0.921 1_545 S
C2030 C2029 1.407 . S
C2030 C2031 1.449 . S
C2030 C2034 1.535 1_545 S
C2031 C2030 1.449 . S
C2031 C2032 1.384 . S
C2031 C2056 1.553 . S
C2032 C2031 1.384 . S
C2032 C2033 1.364 . S
C2032 C2035 1.450 . S
C2033 C2028 1.367 . S
C2033 C2032 1.364 . S
C2033 H2093 0.931 . S
C2034 C2030 1.535 1_565 S
C2034 H2094 0.959 . S
C2034 H2095 0.961 . S
C2034 H2096 0.959 . S
C2035 C2032 1.450 . S
C2035 H2097 0.960 . S
C2035 H2098 0.960 . S
C2035 H2099 0.960 . S
C2036 C2037 1.309 1_545 S
C2036 C2041 1.304 . S
C2036 O2074 1.435 . S
C2037 C2036 1.309 1_565 S
C2037 C2038 1.476 . S
C2037 H2101 0.930 . S
C2038 C2037 1.476 . S
C2038 C2039 1.400 1_565 S
C2038 C2042 1.567 . S
C2039 C2038 1.400 1_545 S
C2039 C2040 1.373 . S
C2039 C2061 1.432 . S
C2040 C2039 1.373 . S
C2040 C2041 1.339 . S
C2040 C2043 1.530 . S
C2041 C2036 1.304 . S
C2041 C2040 1.339 . S
C2041 H2102 0.930 . S
C2042 C2038 1.567 . S
C2042 H2103 0.961 . S
C2042 H2104 0.960 . S
C2042 H2105 0.958 . S
C2043 C2040 1.530 . S
C2043 H2106 0.961 . S
C2043 H2107 0.960 . S
C2043 H2108 0.960 . S
C2044 C2045 1.530 . S
C2044 H2110 0.961 . S
C2044 H2111 0.961 . S
C2044 H2112 0.959 . S
C2045 C2044 1.530 . S
C2045 O2073 1.412 . S
C2045 H2109 0.987 . S
C2046 C2047 1.288 . S
C2046 C2051 1.377 1_565 S
C2046 O2073 1.393 . S
C2047 C2046 1.288 . S
C2047 C2048 1.369 . S
C2047 H2113 0.932 . S
C2048 C2047 1.369 . S
C2048 C2049 1.398 . S
C2048 C2052 1.527 . S
C2049 C2048 1.398 . S
C2049 C2050 1.380 1_565 S
C2049 C2063 1.497 1_565 S
C2050 C2049 1.380 1_545 S
C2050 C2051 1.383 . S
C2050 C2053 1.603 . S
C2051 C2046 1.377 1_545 S
C2051 C2050 1.383 . S
C2051 H2114 0.929 . S
C2052 C2048 1.527 . S
C2052 H2115 0.961 . S
C2052 H2116 0.959 . S
C2052 H2117 0.959 . S
C2053 C2050 1.603 . S
C2053 H2118 0.960 . S
C2053 H2119 0.962 . S
C2053 H2120 0.961 . S
C2054 C2021 1.587 . S
C2054 C2055 1.360 . S
C2054 C2067 1.412 . S
C2055 C2054 1.360 . S
C2055 C2056 1.365 . S
C2055 H2121 0.929 . S
C2056 C2031 1.553 . S
C2056 C2055 1.365 . S
C2056 C2057 1.404 . S
C2057 C2056 1.404 . S
C2057 C2058 1.395 . S
C2057 C2068 1.451 . S
C2058 C2057 1.395 . S
C2058 C2059 1.322 . S
C2058 H2122 0.930 . S
C2059 C2058 1.322 . S
C2059 C2060 1.459 . S
C2059 H2123 0.929 . S
C2060 C2059 1.459 . S
C2060 C2061 1.445 . S
C2060 C2069 1.395 . S
C2061 C2039 1.432 . S
C2061 C2060 1.445 . S
C2061 C2062 1.370 . S
C2062 C2061 1.370 . S
C2062 C2063 1.438 . S
C2062 H2124 0.930 . S
C2063 C2049 1.497 1_545 S
C2063 C2062 1.438 . S
C2063 C2064 1.360 . S
C2064 C2063 1.360 . S
C2064 C2065 1.401 . S
C2064 C2069 1.446 . S
C2065 C2064 1.401 . S
C2065 C2066 1.347 . S
C2065 H2125 0.929 . S
C2066 C2065 1.347 . S
C2066 C2067 1.455 . S
C2066 H2126 0.930 . S
C2067 C2054 1.412 . S
C2067 C2066 1.455 . S
C2067 C2068 1.331 . S
C2068 C2057 1.451 . S
C2068 C2067 1.331 . S
C2068 C2069 1.497 . S
C2069 C2060 1.395 . S
C2069 C2064 1.446 . S
C2069 C2068 1.497 . S
C2070 C2071 1.601 . S
C2070 H2127 0.962 . S
C2070 H2128 0.959 . S
C2070 H2129 0.958 . S
C2071 C2070 1.601 . S
C2071 O2074 1.466 . S
C2071 H2100 0.980 1_545 S
O2072 C2017 1.426 . S
O2072 C2018 1.334 . S
O2073 C2045 1.412 . S
O2073 C2046 1.393 . S
O2074 C2036 1.435 . S
O2074 C2071 1.466 . S
O2075 C2027 1.468 . S
O2075 C2028 1.408 . S
H2076 C2017 0.980 1_545 S
H2077 C2016 0.959 . S
H2078 C2016 0.959 . S
H2079 C2016 0.960 . S
H2080 C2019 0.929 . S
H2081 C2023 0.929 . S
H2082 C2024 0.959 . S
H2083 C2024 0.961 . S
H2084 C2024 0.961 . S
H2085 C2025 0.960 . S
H2086 C2025 0.960 . S
H2087 C2025 0.961 . S
H2088 C2027 0.980 . S
H2089 C2026 0.961 . S
H2090 C2026 0.960 . S
H2091 C2026 0.959 . S
H2092 C2029 0.921 1_565 S
H2093 C2033 0.931 . S
H2094 C2034 0.959 . S
H2095 C2034 0.961 . S
H2096 C2034 0.959 . S
H2097 C2035 0.960 . S
H2098 C2035 0.960 . S
H2099 C2035 0.960 . S
H2100 C2071 0.980 1_565 S
H2101 C2037 0.930 . S
H2102 C2041 0.930 . S
H2103 C2042 0.961 . S
H2104 C2042 0.960 . S
H2105 C2042 0.958 . S
H2106 C2043 0.961 . S
H2107 C2043 0.960 . S
H2108 C2043 0.960 . S
H2109 C2045 0.987 . S
H2110 C2044 0.961 . S
H2111 C2044 0.961 . S
H2112 C2044 0.959 . S
H2113 C2047 0.932 . S
H2114 C2051 0.929 . S
H2115 C2052 0.961 . S
H2116 C2052 0.959 . S
H2117 C2052 0.959 . S
H2118 C2053 0.960 . S
H2119 C2053 0.962 . S
H2120 C2053 0.961 . S
H2121 C2055 0.929 . S
H2122 C2058 0.930 . S
H2123 C2059 0.929 . S
H2124 C2062 0.930 . S
H2125 C2065 0.929 . S
H2126 C2066 0.930 . S
H2127 C2070 0.962 . S
H2128 C2070 0.959 . S
H2129 C2070 0.958 . S
C2130 C2131 1.560 . S
C2130 H2191 0.959 . S
C2130 H2192 0.959 . S
C2130 H2193 0.960 . S
C2131 C2130 1.560 . S
C2131 O2186 1.426 . S
C2131 H2190 0.980 1_455 S
C2132 C2133 1.407 1_455 S
C2132 C2137 1.418 . S
C2132 O2186 1.334 . S
C2133 C2132 1.407 1_655 S
C2133 C2134 1.360 . S
C2133 H2194 0.929 . S
C2134 C2133 1.360 . S
C2134 C2135 1.401 . S
C2134 C2138 1.527 . S
C2135 C2134 1.401 . S
C2135 C2136 1.405 1_655 S
C2135 C2168 1.587 . S
C2136 C2135 1.405 1_455 S
C2136 C2137 1.332 . S
C2136 C2139 1.496 . S
C2137 C2132 1.418 . S
C2137 C2136 1.332 . S
C2137 H2195 0.929 . S
C2138 C2134 1.527 . S
C2138 H2196 0.959 . S
C2138 H2197 0.961 . S
C2138 H2198 0.961 . S
C2139 C2136 1.496 . S
C2139 H2199 0.960 . S
C2139 H2200 0.960 . S
C2139 H2201 0.961 . S
C2140 C2141 1.517 . S
C2140 H2203 0.961 . S
C2140 H2204 0.960 . S
C2140 H2205 0.959 . S
C2141 C2140 1.517 . S
C2141 O2189 1.468 . S
C2141 H2202 0.980 . S
C2142 C2143 1.349 . S
C2142 C2147 1.367 . S
C2142 O2189 1.408 . S
C2143 C2142 1.349 . S
C2143 C2144 1.407 . S
C2143 H2206 0.980 . S
C2144 C2143 1.407 . S
C2144 C2145 1.449 . S
C2144 C2148 1.535 1_655 S
C2145 C2144 1.449 . S
C2145 C2146 1.384 . S
C2145 C2170 1.553 . S
C2146 C2145 1.384 . S
C2146 C2147 1.364 . S
C2146 C2149 1.450 . S
C2147 C2142 1.367 . S
C2147 C2146 1.364 . S
C2147 H2207 0.931 . S
C2148 C2144 1.535 1_455 S
C2148 H2208 0.959 . S
C2148 H2209 0.961 . S
C2148 H2210 0.959 . S
C2149 C2146 1.450 . S
C2149 H2211 0.960 . S
C2149 H2212 0.960 . S
C2149 H2213 0.960 . S
C2150 C2151 1.309 1_655 S
C2150 C2155 1.304 . S
C2150 O2188 1.435 . S
C2151 C2150 1.309 1_455 S
C2151 C2152 1.476 . S
C2151 H2215 0.930 . S
C2152 C2151 1.476 . S
C2152 C2153 1.400 1_455 S
C2152 C2156 1.567 . S
C2153 C2152 1.400 1_655 S
C2153 C2154 1.373 . S
C2153 C2175 1.432 . S
C2154 C2153 1.373 . S
C2154 C2155 1.339 . S
C2154 C2157 1.530 . S
C2155 C2150 1.304 . S
C2155 C2154 1.339 . S
C2155 H2216 0.930 . S
C2156 C2152 1.567 . S
C2156 H2217 0.961 . S
C2156 H2218 0.960 . S
C2156 H2219 0.958 . S
C2157 C2154 1.530 . S
C2157 H2220 0.961 . S
C2157 H2221 0.960 . S
C2157 H2222 0.960 . S
C2158 C2159 1.530 . S
C2158 H2224 0.961 . S
C2158 H2225 0.961 . S
C2158 H2226 0.959 . S
C2159 C2158 1.530 . S
C2159 O2187 1.412 . S
C2159 H2223 0.980 . S
C2160 C2161 1.288 . S
C2160 C2165 1.377 1_455 S
C2160 O2187 1.393 . S
C2161 C2160 1.288 . S
C2161 C2162 1.369 . S
C2161 H2227 0.932 . S
C2162 C2161 1.369 . S
C2162 C2163 1.398 . S
C2162 C2166 1.527 . S
C2163 C2162 1.398 . S
C2163 C2164 1.380 1_455 S
C2163 C2177 1.497 1_455 S
C2164 C2163 1.380 1_655 S
C2164 C2165 1.383 . S
C2164 C2167 1.603 . S
C2165 C2160 1.377 1_655 S
C2165 C2164 1.383 . S
C2165 H2228 0.929 . S
C2166 C2162 1.527 . S
C2166 H2229 0.961 . S
C2166 H2230 0.959 . S
C2166 H2231 0.959 . S
C2167 C2164 1.603 . S
C2167 H2232 0.960 . S
C2167 H2233 0.962 . S
C2167 H2234 0.961 . S
C2168 C2135 1.587 . S
C2168 C2169 1.360 . S
C2168 C2181 1.412 . S
C2169 C2168 1.360 . S
C2169 C2170 1.365 . S
C2169 H2235 0.929 . S
C2170 C2145 1.553 . S
C2170 C2169 1.365 . S
C2170 C2171 1.404 . S
C2171 C2170 1.404 . S
C2171 C2172 1.395 . S
C2171 C2182 1.451 . S
C2172 C2171 1.395 . S
C2172 C2173 1.322 . S
C2172 H2236 0.930 . S
C2173 C2172 1.322 . S
C2173 C2174 1.459 . S
C2173 H2237 0.929 . S
C2174 C2173 1.459 . S
C2174 C2175 1.445 . S
C2174 C2183 1.395 . S
C2175 C2153 1.432 . S
C2175 C2174 1.445 . S
C2175 C2176 1.370 . S
C2176 C2175 1.370 . S
C2176 C2177 1.438 . S
C2176 H2238 0.930 . S
C2177 C2163 1.497 1_655 S
C2177 C2176 1.438 . S
C2177 C2178 1.360 . S
C2178 C2177 1.360 . S
C2178 C2179 1.401 . S
C2178 C2183 1.446 . S
C2179 C2178 1.401 . S
C2179 C2180 1.347 . S
C2179 H2239 0.916 . S
C2180 C2179 1.347 . S
C2180 C2181 1.455 . S
C2180 H2240 0.930 . S
C2181 C2168 1.412 . S
C2181 C2180 1.455 . S
C2181 C2182 1.331 . S
C2182 C2171 1.451 . S
C2182 C2181 1.331 . S
C2182 C2183 1.497 . S
C2183 C2174 1.395 . S
C2183 C2178 1.446 . S
C2183 C2182 1.497 . S
C2184 C2185 1.580 1_655 S
C2184 H2241 0.965 1_655 S
C2184 H2242 0.959 . S
C2184 H2243 0.958 . S
C2185 C2184 1.580 1_455 S
C2185 O2188 1.393 1_455 S
C2185 H2214 1.008 . S
O2186 C2131 1.426 . S
O2186 C2132 1.334 . S
O2187 C2159 1.412 . S
O2187 C2160 1.393 . S
O2188 C2150 1.435 . S
O2188 C2185 1.393 1_655 S
O2189 C2141 1.468 . S
O2189 C2142 1.408 . S
H2190 C2131 0.980 1_655 S
H2191 C2130 0.959 . S
H2192 C2130 0.959 . S
H2193 C2130 0.960 . S
H2194 C2133 0.929 . S
H2195 C2137 0.929 . S
H2196 C2138 0.959 . S
H2197 C2138 0.961 . S
H2198 C2138 0.961 . S
H2199 C2139 0.960 . S
H2200 C2139 0.960 . S
H2201 C2139 0.961 . S
H2202 C2141 0.980 . S
H2203 C2140 0.961 . S
H2204 C2140 0.960 . S
H2205 C2140 0.959 . S
H2206 C2143 0.980 . S
H2207 C2147 0.931 . S
H2208 C2148 0.959 . S
H2209 C2148 0.961 . S
H2210 C2148 0.959 . S
H2211 C2149 0.960 . S
H2212 C2149 0.960 . S
H2213 C2149 0.960 . S
H2214 C2185 1.008 . S
H2215 C2151 0.930 . S
H2216 C2155 0.930 . S
H2217 C2156 0.961 . S
H2218 C2156 0.960 . S
H2219 C2156 0.958 . S
H2220 C2157 0.961 . S
H2221 C2157 0.960 . S
H2222 C2157 0.960 . S
H2223 C2159 0.980 . S
H2224 C2158 0.961 . S
H2225 C2158 0.961 . S
H2226 C2158 0.959 . S
H2227 C2161 0.932 . S
H2228 C2165 0.929 . S
H2229 C2166 0.961 . S
H2230 C2166 0.959 . S
H2231 C2166 0.959 . S
H2232 C2167 0.960 . S
H2233 C2167 0.962 . S
H2234 C2167 0.961 . S
H2235 C2169 0.929 . S
H2236 C2172 0.930 . S
H2237 C2173 0.929 . S
H2238 C2176 0.930 . S
H2239 C2179 0.916 . S
H2240 C2180 0.930 . S
H2241 C2184 0.965 1_455 S
H2242 C2184 0.959 . S
H2243 C2184 0.958 . S
C2244 C2245 1.560 . S
C2244 H2305 0.959 . S
C2244 H2306 0.959 . S
C2244 H2307 0.960 . S
C2245 C2244 1.560 . S
C2245 O2300 1.426 . S
C2245 H2304 0.980 . S
C2246 C2247 1.407 . S
C2246 C2251 1.418 . S
C2246 O2300 1.334 . S
C2247 C2246 1.407 . S
C2247 C2248 1.360 . S
C2247 H2308 0.929 . S
C2248 C2247 1.360 . S
C2248 C2249 1.401 . S
C2248 C2252 1.527 . S
C2249 C2248 1.401 . S
C2249 C2250 1.405 . S
C2249 C2282 1.587 . S
C2250 C2249 1.405 . S
C2250 C2251 1.332 . S
C2250 C2253 1.496 . S
C2251 C2246 1.418 . S
C2251 C2250 1.332 . S
C2251 H2309 0.929 . S
C2252 C2248 1.527 . S
C2252 H2310 0.959 . S
C2252 H2311 0.961 . S
C2252 H2312 0.961 . S
C2253 C2250 1.496 . S
C2253 H2313 0.960 . S
C2253 H2314 0.960 . S
C2253 H2315 0.961 . S
C2254 C2255 1.517 . S
C2254 H2317 0.961 . S
C2254 H2318 0.960 . S
C2254 H2319 0.959 . S
C2255 C2254 1.517 . S
C2255 O2303 1.468 . S
C2255 H2316 0.980 . S
C2256 C2257 1.349 . S
C2256 C2261 1.367 . S
C2256 O2303 1.408 . S
C2257 C2256 1.349 . S
C2257 C2258 1.407 . S
C2257 H2320 0.930 . S
C2258 C2257 1.407 . S
C2258 C2259 1.449 . S
C2258 C2262 1.535 . S
C2259 C2258 1.449 . S
C2259 C2260 1.384 . S
C2259 C2284 1.553 . S
C2260 C2259 1.384 . S
C2260 C2261 1.364 . S
C2260 C2263 1.450 . S
C2261 C2256 1.367 . S
C2261 C2260 1.364 . S
C2261 H2321 0.931 . S
C2262 C2258 1.535 . S
C2262 H2322 0.959 . S
C2262 H2323 0.961 . S
C2262 H2324 0.959 . S
C2263 C2260 1.450 . S
C2263 H2325 0.960 . S
C2263 H2326 0.960 . S
C2263 H2327 0.960 . S
C2264 C2265 1.309 . S
C2264 C2269 1.304 . S
C2264 O2302 1.435 . S
C2265 C2264 1.309 . S
C2265 C2266 1.476 . S
C2265 H2329 0.930 . S
C2266 C2265 1.476 . S
C2266 C2267 1.400 . S
C2266 C2270 1.567 . S
C2267 C2266 1.400 . S
C2267 C2268 1.373 . S
C2267 C2289 1.432 . S
C2268 C2267 1.373 . S
C2268 C2269 1.339 . S
C2268 C2271 1.530 . S
C2269 C2264 1.304 . S
C2269 C2268 1.339 . S
C2269 H2330 0.930 . S
C2270 C2266 1.567 . S
C2270 H2331 0.961 . S
C2270 H2332 0.960 . S
C2270 H2333 0.958 . S
C2271 C2268 1.530 . S
C2271 H2334 0.961 . S
C2271 H2335 0.960 . S
C2271 H2336 0.960 . S
C2272 C2273 1.530 . S
C2272 H2338 0.961 . S
C2272 H2339 0.961 . S
C2272 H2340 0.959 . S
C2273 C2272 1.530 . S
C2273 O2301 1.412 . S
C2273 H2337 0.980 . S
C2274 C2275 1.288 . S
C2274 C2279 1.377 . S
C2274 O2301 1.393 . S
C2275 C2274 1.288 . S
C2275 C2276 1.369 . S
C2275 H2341 0.932 . S
C2276 C2275 1.369 . S
C2276 C2277 1.398 . S
C2276 C2280 1.527 . S
C2277 C2276 1.398 . S
C2277 C2278 1.380 . S
C2277 C2291 1.497 . S
C2278 C2277 1.380 . S
C2278 C2279 1.383 . S
C2278 C2281 1.603 . S
C2279 C2274 1.377 . S
C2279 C2278 1.383 . S
C2279 H2342 0.929 . S
C2280 C2276 1.527 . S
C2280 H2343 0.961 . S
C2280 H2344 0.959 . S
C2280 H2345 0.959 . S
C2281 C2278 1.603 . S
C2281 H2346 0.960 . S
C2281 H2347 0.962 . S
C2281 H2348 0.961 . S
C2282 C2249 1.587 . S
C2282 C2283 1.360 . S
C2282 C2295 1.412 . S
C2283 C2282 1.360 . S
C2283 C2284 1.365 . S
C2283 H2349 0.929 . S
C2284 C2259 1.553 . S
C2284 C2283 1.365 . S
C2284 C2285 1.404 . S
C2285 C2284 1.404 . S
C2285 C2286 1.395 . S
C2285 C2296 1.451 . S
C2286 C2285 1.395 . S
C2286 C2287 1.322 . S
C2286 H2350 0.930 . S
C2287 C2286 1.322 . S
C2287 C2288 1.459 . S
C2287 H2351 0.929 . S
C2288 C2287 1.459 . S
C2288 C2289 1.445 . S
C2288 C2297 1.395 . S
C2289 C2267 1.432 . S
C2289 C2288 1.445 . S
C2289 C2290 1.370 . S
C2290 C2289 1.370 . S
C2290 C2291 1.438 . S
C2290 H2352 0.930 . S
C2291 C2277 1.497 . S
C2291 C2290 1.438 . S
C2291 C2292 1.360 . S
C2292 C2291 1.360 . S
C2292 C2293 1.401 . S
C2292 C2297 1.446 . S
C2293 C2292 1.401 . S
C2293 C2294 1.347 . S
C2293 H2353 0.929 . S
C2294 C2293 1.347 . S
C2294 C2295 1.455 . S
C2294 H2354 0.930 . S
C2295 C2282 1.412 . S
C2295 C2294 1.455 . S
C2295 C2296 1.331 . S
C2296 C2285 1.451 . S
C2296 C2295 1.331 . S
C2296 C2297 1.497 . S
C2297 C2288 1.395 . S
C2297 C2292 1.446 . S
C2297 C2296 1.497 . S
C2298 C2299 1.582 . S
C2298 H2355 0.962 . S
C2298 H2356 0.959 . S
C2298 H2357 0.958 . S
C2299 C2298 1.582 . S
C2299 O2302 1.458 . S
C2299 H2328 0.980 . S
O2300 C2245 1.426 . S
O2300 C2246 1.334 . S
O2301 C2273 1.412 . S
O2301 C2274 1.393 . S
O2302 C2264 1.435 . S
O2302 C2299 1.458 . S
O2303 C2255 1.468 . S
O2303 C2256 1.408 . S
H2304 C2245 0.980 . S
H2305 C2244 0.959 . S
H2306 C2244 0.959 . S
H2307 C2244 0.960 . S
H2308 C2247 0.929 . S
H2309 C2251 0.929 . S
H2310 C2252 0.959 . S
H2311 C2252 0.961 . S
H2312 C2252 0.961 . S
H2313 C2253 0.960 . S
H2314 C2253 0.960 . S
H2315 C2253 0.961 . S
H2316 C2255 0.980 . S
H2317 C2254 0.961 . S
H2318 C2254 0.960 . S
H2319 C2254 0.959 . S
H2320 C2257 0.930 . S
H2321 C2261 0.931 . S
H2322 C2262 0.959 . S
H2323 C2262 0.961 . S
H2324 C2262 0.959 . S
H2325 C2263 0.960 . S
H2326 C2263 0.960 . S
H2327 C2263 0.960 . S
H2328 C2299 0.980 . S
H2329 C2265 0.930 . S
H2330 C2269 0.930 . S
H2331 C2270 0.961 . S
H2332 C2270 0.960 . S
H2333 C2270 0.958 . S
H2334 C2271 0.961 . S
H2335 C2271 0.960 . S
H2336 C2271 0.960 . S
H2337 C2273 0.980 . S
H2338 C2272 0.961 . S
H2339 C2272 0.961 . S
H2340 C2272 0.959 . S
H2341 C2275 0.932 . S
H2342 C2279 0.929 . S
H2343 C2280 0.961 . S
H2344 C2280 0.959 . S
H2345 C2280 0.959 . S
H2346 C2281 0.960 . S
H2347 C2281 0.962 . S
H2348 C2281 0.961 . S
H2349 C2283 0.929 . S
H2350 C2286 0.930 . S
H2351 C2287 0.929 . S
H2352 C2290 0.930 . S
H2353 C2293 0.929 . S
H2354 C2294 0.930 . S
H2355 C2298 0.962 . S
H2356 C2298 0.959 . S
H2357 C2298 0.958 . S
C2358 C2359 1.560 . S
C2358 H2419 0.959 . S
C2358 H2420 0.959 . S
C2358 H2421 0.960 . S
C2359 C2358 1.560 . S
C2359 O2414 1.426 . S
C2359 H2418 0.980 . S
C2360 C2361 1.407 . S
C2360 C2365 1.418 . S
C2360 O2414 1.334 . S
C2361 C2360 1.407 . S
C2361 C2362 1.360 . S
C2361 H2422 0.929 . S
C2362 C2361 1.360 . S
C2362 C2363 1.401 . S
C2362 C2366 1.527 . S
C2363 C2362 1.401 . S
C2363 C2364 1.405 . S
C2363 C2396 1.587 . S
C2364 C2363 1.405 . S
C2364 C2365 1.332 . S
C2364 C2367 1.496 . S
C2365 C2360 1.418 . S
C2365 C2364 1.332 . S
C2365 H2423 0.929 . S
C2366 C2362 1.527 . S
C2366 H2424 0.959 . S
C2366 H2425 0.961 . S
C2366 H2426 0.961 . S
C2367 C2364 1.496 . S
C2367 H2427 0.960 . S
C2367 H2428 0.960 . S
C2367 H2429 0.961 . S
C2368 C2369 1.517 . S
C2368 H2431 0.961 . S
C2368 H2432 0.960 . S
C2368 H2433 0.959 . S
C2369 C2368 1.517 . S
C2369 O2417 1.468 . S
C2369 H2430 0.980 . S
C2370 C2371 1.349 . S
C2370 C2375 1.367 . S
C2370 O2417 1.408 . S
C2371 C2370 1.349 . S
C2371 C2372 1.407 . S
C2371 H2434 0.930 . S
C2372 C2371 1.407 . S
C2372 C2373 1.449 . S
C2372 C2376 1.535 . S
C2373 C2372 1.449 . S
C2373 C2374 1.384 . S
C2373 C2398 1.553 . S
C2374 C2373 1.384 . S
C2374 C2375 1.364 . S
C2374 C2377 1.450 . S
C2375 C2370 1.367 . S
C2375 C2374 1.364 . S
C2375 H2435 0.931 . S
C2376 C2372 1.535 . S
C2376 H2436 0.959 . S
C2376 H2437 0.961 . S
C2376 H2438 0.959 . S
C2377 C2374 1.450 . S
C2377 H2439 0.960 . S
C2377 H2440 0.960 . S
C2377 H2441 0.960 . S
C2378 C2379 1.309 . S
C2378 C2383 1.304 . S
C2378 O2416 1.435 . S
C2379 C2378 1.309 . S
C2379 C2380 1.476 . S
C2379 H2443 0.930 . S
C2380 C2379 1.476 . S
C2380 C2381 1.400 . S
C2380 C2384 1.567 . S
C2381 C2380 1.400 . S
C2381 C2382 1.373 . S
C2381 C2403 1.432 . S
C2382 C2381 1.373 . S
C2382 C2383 1.339 . S
C2382 C2385 1.530 . S
C2383 C2378 1.304 . S
C2383 C2382 1.339 . S
C2383 H2444 0.930 . S
C2384 C2380 1.567 . S
C2384 H2445 0.961 . S
C2384 H2446 0.960 . S
C2384 H2447 0.958 . S
C2385 C2382 1.530 . S
C2385 H2448 0.961 . S
C2385 H2449 0.960 . S
C2385 H2450 0.960 . S
C2386 C2387 1.530 . S
C2386 H2452 0.961 . S
C2386 H2453 0.961 . S
C2386 H2454 0.959 . S
C2387 C2386 1.530 . S
C2387 O2415 1.412 . S
C2387 H2451 0.980 . S
C2388 C2389 1.288 . S
C2388 C2393 1.377 . S
C2388 O2415 1.393 . S
C2389 C2388 1.288 . S
C2389 C2390 1.369 . S
C2389 H2455 0.932 . S
C2390 C2389 1.369 . S
C2390 C2391 1.398 . S
C2390 C2394 1.527 . S
C2391 C2390 1.398 . S
C2391 C2392 1.380 . S
C2391 C2405 1.497 . S
C2392 C2391 1.380 . S
C2392 C2393 1.383 . S
C2392 C2395 1.603 . S
C2393 C2388 1.377 . S
C2393 C2392 1.383 . S
C2393 H2456 0.929 . S
C2394 C2390 1.527 . S
C2394 H2457 0.961 . S
C2394 H2458 0.959 . S
C2394 H2459 0.959 . S
C2395 C2392 1.603 . S
C2395 H2460 0.960 . S
C2395 H2461 0.962 . S
C2395 H2462 0.961 . S
C2396 C2363 1.587 . S
C2396 C2397 1.360 . S
C2396 C2409 1.412 . S
C2397 C2396 1.360 . S
C2397 C2398 1.365 . S
C2397 H2463 0.929 . S
C2398 C2373 1.553 . S
C2398 C2397 1.365 . S
C2398 C2399 1.404 . S
C2399 C2398 1.404 . S
C2399 C2400 1.395 . S
C2399 C2410 1.451 . S
C2400 C2399 1.395 . S
C2400 C2401 1.322 . S
C2400 H2464 0.930 . S
C2401 C2400 1.322 . S
C2401 C2402 1.459 . S
C2401 H2465 0.929 . S
C2402 C2401 1.459 . S
C2402 C2403 1.445 . S
C2402 C2411 1.395 . S
C2403 C2381 1.432 . S
C2403 C2402 1.445 . S
C2403 C2404 1.370 . S
C2404 C2403 1.370 . S
C2404 C2405 1.438 . S
C2404 H2466 0.930 . S
C2405 C2391 1.497 . S
C2405 C2404 1.438 . S
C2405 C2406 1.360 . S
C2406 C2405 1.360 . S
C2406 C2407 1.401 . S
C2406 C2411 1.446 . S
C2407 C2406 1.401 . S
C2407 C2408 1.347 . S
C2407 H2467 0.929 . S
C2408 C2407 1.347 . S
C2408 C2409 1.455 . S
C2408 H2468 0.930 . S
C2409 C2396 1.412 . S
C2409 C2408 1.455 . S
C2409 C2410 1.331 . S
C2410 C2399 1.451 . S
C2410 C2409 1.331 . S
C2410 C2411 1.497 . S
C2411 C2402 1.395 . S
C2411 C2406 1.446 . S
C2411 C2410 1.497 . S
C2412 C2413 1.582 . S
C2412 H2469 0.962 . S
C2412 H2470 0.959 . S
C2412 H2471 0.958 . S
C2413 C2412 1.582 . S
C2413 O2416 1.458 . S
C2413 H2442 0.980 . S
O2414 C2359 1.426 . S
O2414 C2360 1.334 . S
O2415 C2387 1.412 . S
O2415 C2388 1.393 . S
O2416 C2378 1.435 . S
O2416 C2413 1.458 . S
O2417 C2369 1.468 . S
O2417 C2370 1.408 . S
H2418 C2359 0.980 . S
H2419 C2358 0.959 . S
H2420 C2358 0.959 . S
H2421 C2358 0.960 . S
H2422 C2361 0.929 . S
H2423 C2365 0.929 . S
H2424 C2366 0.959 . S
H2425 C2366 0.961 . S
H2426 C2366 0.961 . S
H2427 C2367 0.960 . S
H2428 C2367 0.960 . S
H2429 C2367 0.961 . S
H2430 C2369 0.980 . S
H2431 C2368 0.961 . S
H2432 C2368 0.960 . S
H2433 C2368 0.959 . S
H2434 C2371 0.930 . S
H2435 C2375 0.931 . S
H2436 C2376 0.959 . S
H2437 C2376 0.961 . S
H2438 C2376 0.959 . S
H2439 C2377 0.960 . S
H2440 C2377 0.960 . S
H2441 C2377 0.960 . S
H2442 C2413 0.980 . S
H2443 C2379 0.930 . S
H2444 C2383 0.930 . S
H2445 C2384 0.961 . S
H2446 C2384 0.960 . S
H2447 C2384 0.958 . S
H2448 C2385 0.961 . S
H2449 C2385 0.960 . S
H2450 C2385 0.960 . S
H2451 C2387 0.980 . S
H2452 C2386 0.961 . S
H2453 C2386 0.961 . S
H2454 C2386 0.959 . S
H2455 C2389 0.932 . S
H2456 C2393 0.929 . S
H2457 C2394 0.961 . S
H2458 C2394 0.959 . S
H2459 C2394 0.959 . S
H2460 C2395 0.960 . S
H2461 C2395 0.962 . S
H2462 C2395 0.961 . S
H2463 C2397 0.929 . S
H2464 C2400 0.930 . S
H2465 C2401 0.929 . S
H2466 C2404 0.930 . S
H2467 C2407 0.929 . S
H2468 C2408 0.930 . S
H2469 C2412 0.962 . S
H2470 C2412 0.959 . S
H2471 C2412 0.958 . S
C2472 C2473 1.560 . S
C2472 H2533 0.959 . S
C2472 H2534 0.959 . S
C2472 H2535 0.960 . S
C2473 C2472 1.560 . S
C2473 O2528 1.426 . S
C2473 H2532 0.980 . S
C2474 C2475 1.407 . S
C2474 C2479 1.418 . S
C2474 O2528 1.334 . S
C2475 C2474 1.407 . S
C2475 C2476 1.360 . S
C2475 H2536 0.929 . S
C2476 C2475 1.360 . S
C2476 C2477 1.401 . S
C2476 C2480 1.527 . S
C2477 C2476 1.401 . S
C2477 C2478 1.405 . S
C2477 C2510 1.587 . S
C2478 C2477 1.405 . S
C2478 C2479 1.332 . S
C2478 C2481 1.496 . S
C2479 C2474 1.418 . S
C2479 C2478 1.332 . S
C2479 H2537 0.929 . S
C2480 C2476 1.527 . S
C2480 H2538 0.959 . S
C2480 H2539 0.961 . S
C2480 H2540 0.961 . S
C2481 C2478 1.496 . S
C2481 H2541 0.960 . S
C2481 H2542 0.960 . S
C2481 H2543 0.961 . S
C2482 C2483 1.517 . S
C2482 H2545 0.961 . S
C2482 H2546 0.960 . S
C2482 H2547 0.959 . S
C2483 C2482 1.517 . S
C2483 O2531 1.468 . S
C2483 H2544 0.980 . S
C2484 C2485 1.349 . S
C2484 C2489 1.367 . S
C2484 O2531 1.408 . S
C2485 C2484 1.349 . S
C2485 C2486 1.407 . S
C2485 H2548 0.930 . S
C2486 C2485 1.407 . S
C2486 C2487 1.449 . S
C2486 C2490 1.535 . S
C2487 C2486 1.449 . S
C2487 C2488 1.384 . S
C2487 C2512 1.553 . S
C2488 C2487 1.384 . S
C2488 C2489 1.364 . S
C2488 C2491 1.450 . S
C2489 C2484 1.367 . S
C2489 C2488 1.364 . S
C2489 H2549 0.931 . S
C2490 C2486 1.535 . S
C2490 H2550 0.959 . S
C2490 H2551 0.961 . S
C2490 H2552 0.959 . S
C2491 C2488 1.450 . S
C2491 H2553 0.960 . S
C2491 H2554 0.960 . S
C2491 H2555 0.960 . S
C2492 C2493 1.309 . S
C2492 C2497 1.304 . S
C2492 O2530 1.435 . S
C2493 C2492 1.309 . S
C2493 C2494 1.476 . S
C2493 H2557 0.930 . S
C2494 C2493 1.476 . S
C2494 C2495 1.400 . S
C2494 C2498 1.567 . S
C2495 C2494 1.400 . S
C2495 C2496 1.373 . S
C2495 C2517 1.432 . S
C2496 C2495 1.373 . S
C2496 C2497 1.339 . S
C2496 C2499 1.530 . S
C2497 C2492 1.304 . S
C2497 C2496 1.339 . S
C2497 H2558 0.930 . S
C2498 C2494 1.567 . S
C2498 H2559 0.961 . S
C2498 H2560 0.960 . S
C2498 H2561 0.958 . S
C2499 C2496 1.530 . S
C2499 H2562 0.961 . S
C2499 H2563 0.960 . S
C2499 H2564 0.960 . S
C2500 C2501 1.530 . S
C2500 H2566 0.961 . S
C2500 H2567 0.961 . S
C2500 H2568 0.959 . S
C2501 C2500 1.530 . S
C2501 O2529 1.412 . S
C2501 H2565 0.980 . S
C2502 C2503 1.288 . S
C2502 C2507 1.377 . S
C2502 O2529 1.393 . S
C2503 C2502 1.288 . S
C2503 C2504 1.369 . S
C2503 H2569 0.932 . S
C2504 C2503 1.369 . S
C2504 C2505 1.398 . S
C2504 C2508 1.527 . S
C2505 C2504 1.398 . S
C2505 C2506 1.380 . S
C2505 C2519 1.497 . S
C2506 C2505 1.380 . S
C2506 C2507 1.383 . S
C2506 C2509 1.603 . S
C2507 C2502 1.377 . S
C2507 C2506 1.383 . S
C2507 H2570 0.929 . S
C2508 C2504 1.527 . S
C2508 H2571 0.961 . S
C2508 H2572 0.959 . S
C2508 H2573 0.959 . S
C2509 C2506 1.603 . S
C2509 H2574 0.960 . S
C2509 H2575 0.962 . S
C2509 H2576 0.961 . S
C2510 C2477 1.587 . S
C2510 C2511 1.360 . S
C2510 C2523 1.412 . S
C2511 C2510 1.360 . S
C2511 C2512 1.365 . S
C2511 H2577 0.929 . S
C2512 C2487 1.553 . S
C2512 C2511 1.365 . S
C2512 C2513 1.404 . S
C2513 C2512 1.404 . S
C2513 C2514 1.395 . S
C2513 C2524 1.451 . S
C2514 C2513 1.395 . S
C2514 C2515 1.322 . S
C2514 H2578 0.930 . S
C2515 C2514 1.322 . S
C2515 C2516 1.459 . S
C2515 H2579 0.929 . S
C2516 C2515 1.459 . S
C2516 C2517 1.445 . S
C2516 C2525 1.395 . S
C2517 C2495 1.432 . S
C2517 C2516 1.445 . S
C2517 C2518 1.370 . S
C2518 C2517 1.370 . S
C2518 C2519 1.438 . S
C2518 H2580 0.930 . S
C2519 C2505 1.497 . S
C2519 C2518 1.438 . S
C2519 C2520 1.360 . S
C2520 C2519 1.360 . S
C2520 C2521 1.401 . S
C2520 C2525 1.446 . S
C2521 C2520 1.401 . S
C2521 C2522 1.347 . S
C2521 H2581 0.929 . S
C2522 C2521 1.347 . S
C2522 C2523 1.455 . S
C2522 H2582 0.930 . S
C2523 C2510 1.412 . S
C2523 C2522 1.455 . S
C2523 C2524 1.331 . S
C2524 C2513 1.451 . S
C2524 C2523 1.331 . S
C2524 C2525 1.497 . S
C2525 C2516 1.395 . S
C2525 C2520 1.446 . S
C2525 C2524 1.497 . S
C2526 C2527 1.582 . S
C2526 H2583 0.962 . S
C2526 H2584 0.959 . S
C2526 H2585 0.958 . S
C2527 C2526 1.582 . S
C2527 O2530 1.458 . S
C2527 H2556 0.980 . S
O2528 C2473 1.426 . S
O2528 C2474 1.334 . S
O2529 C2501 1.412 . S
O2529 C2502 1.393 . S
O2530 C2492 1.435 . S
O2530 C2527 1.458 . S
O2531 C2483 1.468 . S
O2531 C2484 1.408 . S
H2532 C2473 0.980 . S
H2533 C2472 0.959 . S
H2534 C2472 0.959 . S
H2535 C2472 0.960 . S
H2536 C2475 0.929 . S
H2537 C2479 0.929 . S
H2538 C2480 0.959 . S
H2539 C2480 0.961 . S
H2540 C2480 0.961 . S
H2541 C2481 0.960 . S
H2542 C2481 0.960 . S
H2543 C2481 0.961 . S
H2544 C2483 0.980 . S
H2545 C2482 0.961 . S
H2546 C2482 0.960 . S
H2547 C2482 0.959 . S
H2548 C2485 0.930 . S
H2549 C2489 0.931 . S
H2550 C2490 0.959 . S
H2551 C2490 0.961 . S
H2552 C2490 0.959 . S
H2553 C2491 0.960 . S
H2554 C2491 0.960 . S
H2555 C2491 0.960 . S
H2556 C2527 0.980 . S
H2557 C2493 0.930 . S
H2558 C2497 0.930 . S
H2559 C2498 0.961 . S
H2560 C2498 0.960 . S
H2561 C2498 0.958 . S
H2562 C2499 0.961 . S
H2563 C2499 0.960 . S
H2564 C2499 0.960 . S
H2565 C2501 0.980 . S
H2566 C2500 0.961 . S
H2567 C2500 0.961 . S
H2568 C2500 0.959 . S
H2569 C2503 0.932 . S
H2570 C2507 0.929 . S
H2571 C2508 0.961 . S
H2572 C2508 0.959 . S
H2573 C2508 0.959 . S
H2574 C2509 0.960 . S
H2575 C2509 0.962 . S
H2576 C2509 0.961 . S
H2577 C2511 0.929 . S
H2578 C2514 0.930 . S
H2579 C2515 0.929 . S
H2580 C2518 0.930 . S
H2581 C2521 0.929 . S
H2582 C2522 0.930 . S
H2583 C2526 0.962 . S
H2584 C2526 0.959 . S
H2585 C2526 0.958 . S
C2586 C2587 1.560 . S
C2586 H2647 0.959 . S
C2586 H2648 0.959 . S
C2586 H2649 0.960 . S
C2587 C2586 1.560 . S
C2587 O2642 1.426 . S
C2587 H2646 0.980 . S
C2588 C2589 1.407 . S
C2588 C2593 1.418 . S
C2588 O2642 1.334 . S
C2589 C2588 1.407 . S
C2589 C2590 1.360 . S
C2589 H2650 0.929 . S
C2590 C2589 1.360 . S
C2590 C2591 1.401 . S
C2590 C2594 1.527 . S
C2591 C2590 1.401 . S
C2591 C2592 1.405 . S
C2591 C2624 1.587 . S
C2592 C2591 1.405 . S
C2592 C2593 1.332 . S
C2592 C2595 1.496 . S
C2593 C2588 1.418 . S
C2593 C2592 1.332 . S
C2593 H2651 0.929 . S
C2594 C2590 1.527 . S
C2594 H2652 0.959 . S
C2594 H2653 0.961 . S
C2594 H2654 0.961 . S
C2595 C2592 1.496 . S
C2595 H2655 0.960 . S
C2595 H2656 0.960 . S
C2595 H2657 0.961 . S
C2596 C2597 1.517 . S
C2596 H2659 0.961 . S
C2596 H2660 0.960 . S
C2596 H2661 0.959 . S
C2597 C2596 1.517 . S
C2597 O2645 1.468 . S
C2597 H2658 0.980 . S
C2598 C2599 1.349 . S
C2598 C2603 1.367 . S
C2598 O2645 1.408 . S
C2599 C2598 1.349 . S
C2599 C2600 1.407 . S
C2599 H2662 0.930 . S
C2600 C2599 1.407 . S
C2600 C2601 1.449 . S
C2600 C2604 1.535 . S
C2601 C2600 1.449 . S
C2601 C2602 1.384 . S
C2601 C2626 1.553 . S
C2602 C2601 1.384 . S
C2602 C2603 1.364 . S
C2602 C2605 1.450 . S
C2603 C2598 1.367 . S
C2603 C2602 1.364 . S
C2603 H2663 0.931 . S
C2604 C2600 1.535 . S
C2604 H2664 0.959 . S
C2604 H2665 0.961 . S
C2604 H2666 0.959 . S
C2605 C2602 1.450 . S
C2605 H2667 0.960 . S
C2605 H2668 0.960 . S
C2605 H2669 0.960 . S
C2606 C2607 1.309 . S
C2606 C2611 1.304 . S
C2606 O2644 1.435 . S
C2607 C2606 1.309 . S
C2607 C2608 1.476 . S
C2607 H2671 0.930 . S
C2608 C2607 1.476 . S
C2608 C2609 1.400 . S
C2608 C2612 1.567 . S
C2609 C2608 1.400 . S
C2609 C2610 1.373 . S
C2609 C2631 1.432 . S
C2610 C2609 1.373 . S
C2610 C2611 1.339 . S
C2610 C2613 1.530 . S
C2611 C2606 1.304 . S
C2611 C2610 1.339 . S
C2611 H2672 0.930 . S
C2612 C2608 1.567 . S
C2612 H2673 0.961 . S
C2612 H2674 0.960 . S
C2612 H2675 0.958 . S
C2613 C2610 1.530 . S
C2613 H2676 0.961 . S
C2613 H2677 0.960 . S
C2613 H2678 0.960 . S
C2614 C2615 1.530 . S
C2614 H2680 0.961 . S
C2614 H2681 0.961 . S
C2614 H2682 0.959 . S
C2615 C2614 1.530 . S
C2615 O2643 1.412 . S
C2615 H2679 0.980 . S
C2616 C2617 1.288 . S
C2616 C2621 1.377 . S
C2616 O2643 1.393 . S
C2617 C2616 1.288 . S
C2617 C2618 1.369 . S
C2617 H2683 0.932 . S
C2618 C2617 1.369 . S
C2618 C2619 1.398 . S
C2618 C2622 1.527 . S
C2619 C2618 1.398 . S
C2619 C2620 1.380 . S
C2619 C2633 1.497 . S
C2620 C2619 1.380 . S
C2620 C2621 1.383 . S
C2620 C2623 1.603 . S
C2621 C2616 1.377 . S
C2621 C2620 1.383 . S
C2621 H2684 0.929 . S
C2622 C2618 1.527 . S
C2622 H2685 0.961 . S
C2622 H2686 0.959 . S
C2622 H2687 0.959 . S
C2623 C2620 1.603 . S
C2623 H2688 0.960 . S
C2623 H2689 0.962 . S
C2623 H2690 0.961 . S
C2624 C2591 1.587 . S
C2624 C2625 1.360 . S
C2624 C2637 1.412 . S
C2625 C2624 1.360 . S
C2625 C2626 1.365 . S
C2625 H2691 0.929 . S
C2626 C2601 1.553 . S
C2626 C2625 1.365 . S
C2626 C2627 1.404 . S
C2627 C2626 1.404 . S
C2627 C2628 1.395 . S
C2627 C2638 1.451 . S
C2628 C2627 1.395 . S
C2628 C2629 1.322 . S
C2628 H2692 0.930 . S
C2629 C2628 1.322 . S
C2629 C2630 1.459 . S
C2629 H2693 0.929 . S
C2630 C2629 1.459 . S
C2630 C2631 1.445 . S
C2630 C2639 1.395 . S
C2631 C2609 1.432 . S
C2631 C2630 1.445 . S
C2631 C2632 1.370 . S
C2632 C2631 1.370 . S
C2632 C2633 1.438 . S
C2632 H2694 0.930 . S
C2633 C2619 1.497 . S
C2633 C2632 1.438 . S
C2633 C2634 1.360 . S
C2634 C2633 1.360 . S
C2634 C2635 1.401 . S
C2634 C2639 1.446 . S
C2635 C2634 1.401 . S
C2635 C2636 1.347 . S
C2635 H2695 0.929 . S
C2636 C2635 1.347 . S
C2636 C2637 1.455 . S
C2636 H2696 0.930 . S
C2637 C2624 1.412 . S
C2637 C2636 1.455 . S
C2637 C2638 1.331 . S
C2638 C2627 1.451 . S
C2638 C2637 1.331 . S
C2638 C2639 1.497 . S
C2639 C2630 1.395 . S
C2639 C2634 1.446 . S
C2639 C2638 1.497 . S
C2640 C2641 1.582 . S
C2640 H2697 0.962 . S
C2640 H2698 0.959 . S
C2640 H2699 0.958 . S
C2641 C2640 1.582 . S
C2641 O2644 1.458 . S
C2641 H2670 0.980 . S
O2642 C2587 1.426 . S
O2642 C2588 1.334 . S
O2643 C2615 1.412 . S
O2643 C2616 1.393 . S
O2644 C2606 1.435 . S
O2644 C2641 1.458 . S
O2645 C2597 1.468 . S
O2645 C2598 1.408 . S
H2646 C2587 0.980 . S
H2647 C2586 0.959 . S
H2648 C2586 0.959 . S
H2649 C2586 0.960 . S
H2650 C2589 0.929 . S
H2651 C2593 0.929 . S
H2652 C2594 0.959 . S
H2653 C2594 0.961 . S
H2654 C2594 0.961 . S
H2655 C2595 0.960 . S
H2656 C2595 0.960 . S
H2657 C2595 0.961 . S
H2658 C2597 0.980 . S
H2659 C2596 0.961 . S
H2660 C2596 0.960 . S
H2661 C2596 0.959 . S
H2662 C2599 0.930 . S
H2663 C2603 0.931 . S
H2664 C2604 0.959 . S
H2665 C2604 0.961 . S
H2666 C2604 0.959 . S
H2667 C2605 0.960 . S
H2668 C2605 0.960 . S
H2669 C2605 0.960 . S
H2670 C2641 0.980 . S
H2671 C2607 0.930 . S
H2672 C2611 0.930 . S
H2673 C2612 0.961 . S
H2674 C2612 0.960 . S
H2675 C2612 0.958 . S
H2676 C2613 0.961 . S
H2677 C2613 0.960 . S
H2678 C2613 0.960 . S
H2679 C2615 0.980 . S
H2680 C2614 0.961 . S
H2681 C2614 0.961 . S
H2682 C2614 0.959 . S
H2683 C2617 0.932 . S
H2684 C2621 0.929 . S
H2685 C2622 0.961 . S
H2686 C2622 0.959 . S
H2687 C2622 0.959 . S
H2688 C2623 0.960 . S
H2689 C2623 0.962 . S
H2690 C2623 0.961 . S
H2691 C2625 0.929 . S
H2692 C2628 0.930 . S
H2693 C2629 0.929 . S
H2694 C2632 0.930 . S
H2695 C2635 0.929 . S
H2696 C2636 0.930 . S
H2697 C2640 0.962 . S
H2698 C2640 0.959 . S
H2699 C2640 0.958 . S
C2700 C2701 1.363 1_455 S
C2700 C2706 1.379 . S
C2700 N2708 1.356 . S
C2701 C2700 1.363 1_655 S
C2701 C2707 1.363 . S
C2702 C2703 1.363 . S
C2702 C2707 1.379 . S
C2702 N2709 1.356 . S
C2703 C2702 1.363 . S
C2703 C2706 1.363 1_655 S
N2704 C2706 1.356 . S
N2704 H2716 0.984 . S
N2704 H2717 0.985 . S
N2705 C2707 1.356 . S
N2705 H2710 0.984 . S
N2705 H2711 0.985 . S
C2706 C2700 1.379 . S
C2706 C2703 1.363 1_455 S
C2706 N2704 1.356 . S
C2707 C2701 1.363 . S
C2707 C2702 1.379 . S
C2707 N2705 1.356 . S
N2708 C2700 1.356 . S
N2708 H2714 0.984 . S
N2708 H2715 0.984 . S
N2709 C2702 1.356 . S
N2709 H2712 0.984 . S
N2709 H2713 0.985 . S
H2710 N2705 0.984 . S
H2711 N2705 0.985 . S
H2712 N2709 0.984 . S
H2713 N2709 0.985 . S
H2714 N2708 0.984 . S
H2715 N2708 0.984 . S
H2716 N2704 0.984 . S
H2717 N2704 0.985 . S
C2718 C2719 1.363 . S
C2718 C2724 1.379 . S
C2718 N2726 1.356 . S
C2719 C2718 1.363 . S
C2719 C2725 1.363 . S
C2720 C2721 1.363 . S
C2720 C2725 1.379 . S
C2720 N2727 1.356 . S
C2721 C2720 1.363 . S
C2721 C2724 1.363 . S
N2722 C2724 1.356 . S
N2722 H2734 0.984 . S
N2722 H2735 0.985 . S
N2723 C2725 1.356 . S
N2723 H2728 0.984 . S
N2723 H2729 0.985 . S
C2724 C2718 1.379 . S
C2724 C2721 1.363 . S
C2724 N2722 1.356 . S
C2725 C2719 1.363 . S
C2725 C2720 1.379 . S
C2725 N2723 1.356 . S
N2726 C2718 1.356 . S
N2726 H2732 0.984 . S
N2726 H2733 0.984 . S
N2727 C2720 1.356 . S
N2727 H2730 0.984 . S
N2727 H2731 0.985 . S
H2728 N2723 0.984 . S
H2729 N2723 0.985 . S
H2730 N2727 0.984 . S
H2731 N2727 0.985 . S
H2732 N2726 0.984 . S
H2733 N2726 0.984 . S
H2734 N2722 0.984 . S
H2735 N2722 0.985 . S
C2736 C2737 1.363 . S
C2736 C2742 1.379 . S
C2736 N2744 1.356 . S
C2737 C2736 1.363 . S
C2737 C2743 1.363 1_545 S
C2738 C2739 1.363 1_565 S
C2738 C2743 1.379 . S
C2738 N2745 1.356 . S
C2739 C2738 1.363 1_545 S
C2739 C2742 1.363 . S
N2740 C2742 1.356 . S
N2740 H2752 0.984 . S
N2740 H2753 0.985 . S
N2741 C2743 1.356 . S
N2741 H2746 0.984 . S
N2741 H2747 0.985 . S
C2742 C2736 1.379 . S
C2742 C2739 1.363 . S
C2742 N2740 1.356 . S
C2743 C2737 1.363 1_565 S
C2743 C2738 1.379 . S
C2743 N2741 1.356 . S
N2744 C2736 1.356 . S
N2744 H2750 0.984 . S
N2744 H2751 0.984 . S
N2745 C2738 1.356 . S
N2745 H2748 0.984 . S
N2745 H2749 0.985 . S
H2746 N2741 0.984 . S
H2747 N2741 0.985 . S
H2748 N2745 0.984 . S
H2749 N2745 0.985 . S
H2750 N2744 0.984 . S
H2751 N2744 0.984 . S
H2752 N2740 0.984 . S
H2753 N2740 0.985 . S
C2754 C2755 1.363 1_545 S
C2754 C2760 1.379 . S
C2754 N2762 1.356 . S
C2755 C2754 1.363 1_565 S
C2755 C2761 1.363 . S
C2756 C2757 1.363 . S
C2756 C2761 1.379 . S
C2756 N2763 1.356 . S
C2757 C2756 1.363 . S
C2757 C2760 1.363 1_565 S
N2758 C2760 1.356 . S
N2758 H2770 0.984 . S
N2758 H2771 0.985 . S
N2759 C2761 1.356 . S
N2759 H2764 0.984 . S
N2759 H2765 0.985 . S
C2760 C2754 1.379 . S
C2760 C2757 1.363 1_545 S
C2760 N2758 1.356 . S
C2761 C2755 1.363 . S
C2761 C2756 1.379 . S
C2761 N2759 1.356 . S
N2762 C2754 1.356 . S
N2762 H2768 0.984 . S
N2762 H2769 0.984 . S
N2763 C2756 1.356 . S
N2763 H2766 0.984 . S
N2763 H2767 0.985 . S
H2764 N2759 0.984 . S
H2765 N2759 0.985 . S
H2766 N2763 0.984 . S
H2767 N2763 0.985 . S
H2768 N2762 0.984 . S
H2769 N2762 0.984 . S
H2770 N2758 0.984 . S
H2771 N2758 0.985 . S
C2772 C2773 1.323 1_655 S
C2772 C2778 1.396 . S
C2772 N2780 1.370 . S
C2773 C2772 1.323 1_455 S
C2773 C2779 1.363 . S
C2774 C2775 1.363 . S
C2774 C2779 1.379 . S
C2774 N2781 1.356 . S
C2775 C2774 1.363 . S
C2775 C2778 1.363 1_455 S
N2776 C2778 1.356 . S
N2776 H2788 0.984 . S
N2776 H2789 0.985 . S
N2777 C2779 1.356 . S
N2777 H2782 0.984 . S
N2777 H2783 0.985 . S
C2778 C2772 1.396 . S
C2778 C2775 1.363 1_655 S
C2778 N2776 1.356 . S
C2779 C2773 1.363 . S
C2779 C2774 1.379 . S
C2779 N2777 1.356 . S
N2780 C2772 1.370 . S
N2780 H2786 0.984 . S
N2780 H2787 0.984 . S
N2781 C2774 1.356 . S
N2781 H2784 0.984 . S
N2781 H2785 0.985 . S
H2782 N2777 0.984 . S
H2783 N2777 0.985 . S
H2784 N2781 0.984 . S
H2785 N2781 0.985 . S
H2786 N2780 0.984 . S
H2787 N2780 0.984 . S
H2788 N2776 0.984 . S
H2789 N2776 0.985 . S
C2790 C2791 1.363 . S
C2790 C2796 1.379 . S
C2790 N2798 1.356 . S
C2791 C2790 1.363 . S
C2791 C2797 1.363 . S
C2792 C2793 1.363 . S
C2792 C2797 1.379 . S
C2792 N2799 1.356 . S
C2793 C2792 1.363 . S
C2793 C2796 1.363 . S
N2794 C2796 1.356 . S
N2794 H2806 0.984 . S
N2794 H2807 0.985 . S
N2795 C2797 1.356 . S
N2795 H2800 0.984 . S
N2795 H2801 0.985 1_556 S
C2796 C2790 1.379 . S
C2796 C2793 1.363 . S
C2796 N2794 1.356 . S
C2797 C2791 1.363 . S
C2797 C2792 1.379 . S
C2797 N2795 1.356 . S
N2798 C2790 1.356 . S
N2798 H2804 0.984 . S
N2798 H2805 0.984 . S
N2799 C2792 1.356 . S
N2799 H2802 0.984 . S
N2799 H2803 0.985 . S
H2800 N2795 0.984 . S
H2801 N2795 0.985 1_554 S
H2802 N2799 0.984 . S
H2803 N2799 0.985 . S
H2804 N2798 0.984 . S
H2805 N2798 0.984 . S
H2806 N2794 0.984 . S
H2807 N2794 0.985 . S
C2808 C2809 1.363 1_655 S
C2808 C2814 1.379 . S
C2808 N2816 1.356 . S
C2809 C2808 1.363 1_455 S
C2809 C2815 1.363 . S
C2810 C2811 1.363 . S
C2810 C2815 1.379 . S
C2810 N2817 1.356 . S
C2811 C2810 1.363 . S
C2811 C2814 1.363 1_455 S
N2812 C2814 1.356 . S
N2812 H2824 0.984 . S
N2812 H2825 0.985 . S
N2813 C2815 1.356 . S
N2813 H2818 0.984 . S
N2813 H2819 0.985 . S
C2814 C2808 1.379 . S
C2814 C2811 1.363 1_655 S
C2814 N2812 1.356 . S
C2815 C2809 1.363 . S
C2815 C2810 1.379 . S
C2815 N2813 1.356 . S
N2816 C2808 1.356 . S
N2816 H2822 0.984 . S
N2816 H2823 0.984 . S
N2817 C2810 1.356 . S
N2817 H2820 0.984 . S
N2817 H2821 0.985 . S
H2818 N2813 0.984 . S
H2819 N2813 0.985 . S
H2820 N2817 0.984 . S
H2821 N2817 0.985 . S
H2822 N2816 0.984 . S
H2823 N2816 0.984 . S
H2824 N2812 0.984 . S
H2825 N2812 0.985 . S
C2826 C2827 1.363 . S
C2826 C2832 1.379 . S
C2826 N2834 1.356 . S
C2827 C2826 1.363 . S
C2827 C2833 1.363 . S
C2828 C2829 1.363 . S
C2828 C2833 1.379 . S
C2828 N2835 1.356 . S
C2829 C2828 1.363 . S
C2829 C2832 1.363 . S
N2830 C2832 1.356 . S
N2830 H2842 0.984 . S
N2830 H2843 0.985 . S
N2831 C2833 1.356 . S
N2831 H2836 0.984 . S
N2831 H2837 0.985 . S
C2832 C2826 1.379 . S
C2832 C2829 1.363 . S
C2832 N2830 1.356 . S
C2833 C2827 1.363 . S
C2833 C2828 1.379 . S
C2833 N2831 1.356 . S
N2834 C2826 1.356 . S
N2834 H2840 0.984 . S
N2834 H2841 0.984 . S
N2835 C2828 1.356 . S
N2835 H2838 0.984 . S
N2835 H2839 0.985 . S
H2836 N2831 0.984 . S
H2837 N2831 0.985 . S
H2838 N2835 0.984 . S
H2839 N2835 0.985 . S
H2840 N2834 0.984 . S
H2841 N2834 0.984 . S
H2842 N2830 0.984 . S
H2843 N2830 0.985 . S
C2844 C2845 1.363 . S
C2844 C2850 1.379 . S
C2844 N2852 1.356 . S
C2845 C2844 1.363 . S
C2845 C2851 1.363 1_565 S
C2846 C2847 1.363 1_545 S
C2846 C2851 1.379 . S
C2846 N2853 1.356 . S
C2847 C2846 1.363 1_565 S
C2847 C2850 1.363 . S
N2848 C2850 1.356 . S
N2848 H2860 0.984 . S
N2848 H2861 0.985 . S
N2849 C2851 1.356 . S
N2849 H2854 0.984 . S
N2849 H2855 0.985 . S
C2850 C2844 1.379 . S
C2850 C2847 1.363 . S
C2850 N2848 1.356 . S
C2851 C2845 1.363 1_545 S
C2851 C2846 1.379 . S
C2851 N2849 1.356 . S
N2852 C2844 1.356 . S
N2852 H2858 0.984 . S
N2852 H2859 0.984 . S
N2853 C2846 1.356 . S
N2853 H2856 0.984 . S
N2853 H2857 0.985 . S
H2854 N2849 0.984 . S
H2855 N2849 0.985 . S
H2856 N2853 0.984 . S
H2857 N2853 0.985 . S
H2858 N2852 0.984 . S
H2859 N2852 0.984 . S
H2860 N2848 0.984 . S
H2861 N2848 0.985 . S
C2862 C2863 1.363 . S
C2862 C2868 1.379 . S
C2862 N2870 1.356 . S
C2863 C2862 1.363 . S
C2863 C2869 1.363 . S
C2864 C2865 1.364 . S
C2864 C2869 1.374 . S
C2864 N2871 1.362 1_545 S
C2865 C2864 1.364 . S
C2865 C2868 1.363 . S
N2866 C2868 1.356 . S
N2866 H2878 0.984 . S
N2866 H2879 0.985 . S
N2867 C2869 1.356 . S
N2867 H2872 0.984 . S
N2867 H2873 0.985 1_545 S
C2868 C2862 1.379 . S
C2868 C2865 1.363 . S
C2868 N2866 1.356 . S
C2869 C2863 1.363 . S
C2869 C2864 1.374 . S
C2869 N2867 1.356 . S
N2870 C2862 1.356 . S
N2870 H2876 0.984 . S
N2870 H2877 0.984 . S
N2871 C2864 1.362 1_565 S
N2871 H2874 0.984 . S
N2871 H2875 0.985 . S
H2872 N2867 0.984 . S
H2873 N2867 0.985 1_565 S
H2874 N2871 0.984 . S
H2875 N2871 0.985 . S
H2876 N2870 0.984 . S
H2877 N2870 0.984 . S
H2878 N2866 0.984 . S
H2879 N2866 0.985 . S
C2880 C2881 1.363 . S
C2880 C2886 1.396 . S
C2880 N2888 1.356 . S
C2881 C2880 1.363 . S
C2881 C2887 1.363 . S
C2882 C2883 1.363 . S
C2882 C2887 1.379 . S
C2882 N2889 1.356 . S
C2883 C2882 1.363 . S
C2883 C2886 1.346 . S
N2884 C2886 1.351 1_455 S
N2884 H2896 0.984 . S
N2884 H2897 0.985 . S
N2885 C2887 1.356 . S
N2885 H2890 0.984 . S
N2885 H2891 0.985 . S
C2886 C2880 1.396 . S
C2886 C2883 1.346 . S
C2886 N2884 1.351 1_655 S
C2887 C2881 1.363 . S
C2887 C2882 1.379 . S
C2887 N2885 1.356 . S
N2888 C2880 1.356 . S
N2888 H2894 0.986 1_655 S
N2888 H2895 0.984 . S
N2889 C2882 1.356 . S
N2889 H2892 0.984 . S
N2889 H2893 0.985 . S
H2890 N2885 0.984 . S
H2891 N2885 0.985 . S
H2892 N2889 0.984 . S
H2893 N2889 0.985 . S
H2894 N2888 0.986 1_455 S
H2895 N2888 0.984 . S
H2896 N2884 0.984 . S
H2897 N2884 0.985 . S
C2898 C2899 1.363 . S
C2898 C2904 1.379 . S
C2898 N2906 1.356 . S
C2899 C2898 1.363 . S
C2899 C2905 1.363 . S
C2900 C2901 1.363 . S
C2900 C2905 1.379 . S
C2900 N2907 1.356 . S
C2901 C2900 1.363 . S
C2901 C2904 1.363 . S
N2902 C2904 1.356 . S
N2902 H2914 0.984 . S
N2902 H2915 0.985 . S
N2903 C2905 1.356 . S
N2903 H2908 0.984 . S
N2903 H2909 0.985 . S
C2904 C2898 1.379 . S
C2904 C2901 1.363 . S
C2904 N2902 1.356 . S
C2905 C2899 1.363 . S
C2905 C2900 1.379 . S
C2905 N2903 1.356 . S
N2906 C2898 1.356 . S
N2906 H2912 0.984 . S
N2906 H2913 0.984 . S
N2907 C2900 1.356 . S
N2907 H2910 0.984 . S
N2907 H2911 0.985 . S
H2908 N2903 0.984 . S
H2909 N2903 0.985 . S
H2910 N2907 0.984 . S
H2911 N2907 0.985 . S
H2912 N2906 0.984 . S
H2913 N2906 0.984 . S
H2914 N2902 0.984 . S
H2915 N2902 0.985 . S
C2916 C2917 1.363 . S
C2916 C2922 1.379 . S
C2916 N2924 1.356 . S
C2917 C2916 1.363 . S
C2917 C2923 1.363 . S
C2918 C2919 1.363 . S
C2918 C2923 1.379 . S
C2918 N2925 1.356 . S
C2919 C2918 1.363 . S
C2919 C2922 1.363 . S
N2920 C2922 1.356 . S
N2920 H2932 0.984 . S
N2920 H2933 0.985 . S
N2921 C2923 1.356 . S
N2921 H2926 0.984 . S
N2921 H2927 0.985 . S
C2922 C2916 1.379 . S
C2922 C2919 1.363 . S
C2922 N2920 1.356 . S
C2923 C2917 1.363 . S
C2923 C2918 1.379 . S
C2923 N2921 1.356 . S
N2924 C2916 1.356 . S
N2924 H2930 0.984 . S
N2924 H2931 0.984 . S
N2925 C2918 1.356 . S
N2925 H2928 0.984 . S
N2925 H2929 0.985 . S
H2926 N2921 0.984 . S
H2927 N2921 0.985 . S
H2928 N2925 0.984 . S
H2929 N2925 0.985 . S
H2930 N2924 0.984 . S
H2931 N2924 0.984 . S
H2932 N2920 0.984 . S
H2933 N2920 0.985 . S
C2934 C2935 1.363 . S
C2934 C2940 1.379 . S
C2934 N2942 1.356 . S
C2935 C2934 1.363 . S
C2935 C2941 1.363 . S
C2936 C2937 1.363 . S
C2936 C2941 1.379 . S
C2936 N2943 1.356 . S
C2937 C2936 1.363 . S
C2937 C2940 1.363 . S
N2938 C2940 1.356 . S
N2938 H2950 0.984 . S
N2938 H2951 0.985 . S
N2939 C2941 1.356 . S
N2939 H2944 0.984 . S
N2939 H2945 0.985 . S
C2940 C2934 1.379 . S
C2940 C2937 1.363 . S
C2940 N2938 1.356 . S
C2941 C2935 1.363 . S
C2941 C2936 1.379 . S
C2941 N2939 1.356 . S
N2942 C2934 1.356 . S
N2942 H2948 0.984 . S
N2942 H2949 0.984 . S
N2943 C2936 1.356 . S
N2943 H2946 0.984 . S
N2943 H2947 0.985 . S
H2944 N2939 0.984 . S
H2945 N2939 0.985 . S
H2946 N2943 0.984 . S
H2947 N2943 0.985 . S
H2948 N2942 0.984 . S
H2949 N2942 0.984 . S
H2950 N2938 0.984 . S
H2951 N2938 0.985 . S
C2952 C2953 1.363 . S
C2952 C2958 1.379 . S
C2952 N2960 1.356 . S
C2953 C2952 1.363 . S
C2953 C2959 1.363 . S
C2954 C2955 1.363 . S
C2954 C2959 1.379 . S
C2954 N2961 1.356 . S
C2955 C2954 1.363 . S
C2955 C2958 1.363 . S
N2956 C2958 1.356 . S
N2956 H2968 0.984 . S
N2956 H2969 0.985 . S
N2957 C2959 1.356 . S
N2957 H2962 0.984 . S
N2957 H2963 0.985 . S
C2958 C2952 1.379 . S
C2958 C2955 1.363 . S
C2958 N2956 1.356 . S
C2959 C2953 1.363 . S
C2959 C2954 1.379 . S
C2959 N2957 1.356 . S
N2960 C2952 1.356 . S
N2960 H2966 0.984 . S
N2960 H2967 0.984 . S
N2961 C2954 1.356 . S
N2961 H2964 0.984 . S
N2961 H2965 0.985 . S
H2962 N2957 0.984 . S
H2963 N2957 0.985 . S
H2964 N2961 0.984 . S
H2965 N2961 0.985 . S
H2966 N2960 0.984 . S
H2967 N2960 0.984 . S
H2968 N2956 0.984 . S
H2969 N2956 0.985 . S
C2970 C2971 1.363 . S
C2970 C2976 1.379 . S
C2970 N2978 1.356 . S
C2971 C2970 1.363 . S
C2971 C2977 1.363 . S
C2972 C2973 1.363 . S
C2972 C2977 1.379 . S
C2972 N2979 1.356 . S
C2973 C2972 1.363 . S
C2973 C2976 1.363 . S
N2974 C2976 1.356 . S
N2974 H2986 0.984 . S
N2974 H2987 0.985 . S
N2975 C2977 1.356 . S
N2975 H2980 0.984 . S
N2975 H2981 0.985 . S
C2976 C2970 1.379 . S
C2976 C2973 1.363 . S
C2976 N2974 1.356 . S
C2977 C2971 1.363 . S
C2977 C2972 1.379 . S
C2977 N2975 1.356 . S
N2978 C2970 1.356 . S
N2978 H2984 0.984 . S
N2978 H2985 0.984 . S
N2979 C2972 1.356 . S
N2979 H2982 0.984 . S
N2979 H2983 0.985 . S
H2980 N2975 0.984 . S
H2981 N2975 0.985 . S
H2982 N2979 0.984 . S
H2983 N2979 0.985 . S
H2984 N2978 0.984 . S
H2985 N2978 0.984 . S
H2986 N2974 0.984 . S
H2987 N2974 0.985 . S
C2988 C2989 1.363 . S
C2988 C2994 1.379 . S
C2988 N2996 1.356 . S
C2989 C2988 1.363 . S
C2989 C2995 1.363 . S
C2990 C2991 1.363 . S
C2990 C2995 1.379 . S
C2990 N2997 1.356 . S
C2991 C2990 1.363 . S
C2991 C2994 1.363 . S
N2992 C2994 1.356 . S
N2992 H3004 0.984 . S
N2992 H3005 0.985 . S
N2993 C2995 1.356 . S
N2993 H2998 0.984 . S
N2993 H2999 0.985 . S
C2994 C2988 1.379 . S
C2994 C2991 1.363 . S
C2994 N2992 1.356 . S
C2995 C2989 1.363 . S
C2995 C2990 1.379 . S
C2995 N2993 1.356 . S
N2996 C2988 1.356 . S
N2996 H3002 0.984 . S
N2996 H3003 0.984 . S
N2997 C2990 1.356 . S
N2997 H3000 0.984 . S
N2997 H3001 0.985 . S
H2998 N2993 0.984 . S
H2999 N2993 0.985 . S
H3000 N2997 0.984 . S
H3001 N2997 0.985 . S
H3002 N2996 0.984 . S
H3003 N2996 0.984 . S
H3004 N2992 0.984 . S
H3005 N2992 0.985 . S
C3006 C3007 1.363 . S
C3006 C3012 1.379 . S
C3006 N3014 1.356 . S
C3007 C3006 1.363 . S
C3007 C3013 1.363 . S
C3008 C3009 1.363 . S
C3008 C3013 1.379 . S
C3008 N3015 1.356 . S
C3009 C3008 1.363 . S
C3009 C3012 1.363 . S
N3010 C3012 1.356 . S
N3010 H3022 0.984 . S
N3010 H3023 0.985 . S
N3011 C3013 1.356 . S
N3011 H3016 0.984 . S
N3011 H3017 0.985 . S
C3012 C3006 1.379 . S
C3012 C3009 1.363 . S
C3012 N3010 1.356 . S
C3013 C3007 1.363 . S
C3013 C3008 1.379 . S
C3013 N3011 1.356 . S
N3014 C3006 1.356 . S
N3014 H3020 0.984 . S
N3014 H3021 0.984 . S
N3015 C3008 1.356 . S
N3015 H3018 0.984 . S
N3015 H3019 0.985 . S
H3016 N3011 0.984 . S
H3017 N3011 0.985 . S
H3018 N3015 0.984 . S
H3019 N3015 0.985 . S
H3020 N3014 0.984 . S
H3021 N3014 0.984 . S
H3022 N3010 0.984 . S
H3023 N3010 0.985 . S
C3024 C3025 1.363 . S
C3024 C3030 1.379 . S
C3024 N3032 1.356 . S
C3025 C3024 1.363 . S
C3025 C3031 1.363 . S
C3026 C3027 1.363 . S
C3026 C3031 1.379 . S
C3026 N3033 1.356 . S
C3027 C3026 1.363 . S
C3027 C3030 1.363 . S
N3028 C3030 1.356 . S
N3028 H3040 0.984 . S
N3028 H3041 0.985 . S
N3029 C3031 1.356 . S
N3029 H3034 0.984 . S
N3029 H3035 0.985 . S
C3030 C3024 1.379 . S
C3030 C3027 1.363 . S
C3030 N3028 1.356 . S
C3031 C3025 1.363 . S
C3031 C3026 1.379 . S
C3031 N3029 1.356 . S
N3032 C3024 1.356 . S
N3032 H3038 0.984 . S
N3032 H3039 0.984 . S
N3033 C3026 1.356 . S
N3033 H3036 0.984 . S
N3033 H3037 0.985 . S
H3034 N3029 0.984 . S
H3035 N3029 0.985 . S
H3036 N3033 0.984 . S
H3037 N3033 0.985 . S
H3038 N3032 0.984 . S
H3039 N3032 0.984 . S
H3040 N3028 0.984 . S
H3041 N3028 0.985 . S
C3042 C3043 1.363 . S
C3042 C3048 1.379 . S
C3042 N3050 1.356 . S
C3043 C3042 1.363 . S
C3043 C3049 1.363 . S
C3044 C3045 1.363 . S
C3044 C3049 1.379 . S
C3044 N3051 1.356 . S
C3045 C3044 1.363 . S
C3045 C3048 1.363 . S
N3046 C3048 1.356 . S
N3046 H3058 0.984 . S
N3046 H3059 0.985 . S
N3047 C3049 1.356 . S
N3047 H3052 0.984 . S
N3047 H3053 0.985 . S
C3048 C3042 1.379 . S
C3048 C3045 1.363 . S
C3048 N3046 1.356 . S
C3049 C3043 1.363 . S
C3049 C3044 1.379 . S
C3049 N3047 1.356 . S
N3050 C3042 1.356 . S
N3050 H3056 0.974 1_455 S
N3050 H3057 0.984 . S
N3051 C3044 1.356 . S
N3051 H3054 0.984 . S
N3051 H3055 0.985 . S
H3052 N3047 0.984 . S
H3053 N3047 0.985 . S
H3054 N3051 0.984 . S
H3055 N3051 0.985 . S
H3056 N3050 0.974 1_655 S
H3057 N3050 0.984 . S
H3058 N3046 0.984 . S
H3059 N3046 0.985 . S
C3060 C3061 1.363 . S
C3060 C3066 1.379 . S
C3060 N3068 1.356 . S
C3061 C3060 1.363 . S
C3061 C3067 1.363 . S
C3062 C3063 1.363 . S
C3062 C3067 1.379 . S
C3062 N3069 1.356 . S
C3063 C3062 1.363 . S
C3063 C3066 1.363 . S
N3064 C3066 1.356 . S
N3064 H3076 0.984 . S
N3064 H3077 0.985 . S
N3065 C3067 1.356 . S
N3065 H3070 0.984 . S
N3065 H3071 0.985 . S
C3066 C3060 1.379 . S
C3066 C3063 1.363 . S
C3066 N3064 1.356 . S
C3067 C3061 1.363 . S
C3067 C3062 1.379 . S
C3067 N3065 1.356 . S
N3068 C3060 1.356 . S
N3068 H3074 0.984 . S
N3068 H3075 0.984 . S
N3069 C3062 1.356 . S
N3069 H3072 0.984 . S
N3069 H3073 0.985 . S
H3070 N3065 0.984 . S
H3071 N3065 0.985 . S
H3072 N3069 0.984 . S
H3073 N3069 0.985 . S
H3074 N3068 0.984 . S
H3075 N3068 0.984 . S
H3076 N3064 0.984 . S
H3077 N3064 0.985 . S
C3078 C3079 1.363 . S
C3078 C3084 1.379 . S
C3078 N3086 1.356 . S
C3079 C3078 1.363 . S
C3079 C3085 1.363 . S
C3080 C3081 1.363 . S
C3080 C3085 1.379 . S
C3080 N3087 1.356 . S
C3081 C3080 1.363 . S
C3081 C3084 1.363 . S
N3082 C3084 1.356 . S
N3082 H3094 0.984 . S
N3082 H3095 0.985 . S
N3083 C3085 1.356 . S
N3083 H3088 0.984 . S
N3083 H3089 0.985 . S
C3084 C3078 1.379 . S
C3084 C3081 1.363 . S
C3084 N3082 1.356 . S
C3085 C3079 1.363 . S
C3085 C3080 1.379 . S
C3085 N3083 1.356 . S
N3086 C3078 1.356 . S
N3086 H3092 0.984 . S
N3086 H3093 0.984 . S
N3087 C3080 1.356 . S
N3087 H3090 0.984 . S
N3087 H3091 0.985 . S
H3088 N3083 0.984 . S
H3089 N3083 0.985 . S
H3090 N3087 0.984 . S
H3091 N3087 0.985 . S
H3092 N3086 0.984 . S
H3093 N3086 0.984 . S
H3094 N3082 0.984 . S
H3095 N3082 0.985 . S
C3096 C3097 1.363 . S
C3096 C3102 1.379 . S
C3096 N3104 1.356 . S
C3097 C3096 1.363 . S
C3097 C3103 1.363 . S
C3098 C3099 1.363 . S
C3098 C3103 1.379 . S
C3098 N3105 1.356 . S
C3099 C3098 1.363 . S
C3099 C3102 1.363 . S
N3100 C3102 1.356 . S
N3100 H3112 0.984 . S
N3100 H3113 0.985 . S
N3101 C3103 1.356 . S
N3101 H3106 0.984 . S
N3101 H3107 0.985 . S
C3102 C3096 1.379 . S
C3102 C3099 1.363 . S
C3102 N3100 1.356 . S
C3103 C3097 1.363 . S
C3103 C3098 1.379 . S
C3103 N3101 1.356 . S
N3104 C3096 1.356 . S
N3104 H3110 0.984 . S
N3104 H3111 0.984 . S
N3105 C3098 1.356 . S
N3105 H3108 0.984 . S
N3105 H3109 0.985 . S
H3106 N3101 0.984 . S
H3107 N3101 0.985 . S
H3108 N3105 0.984 . S
H3109 N3105 0.985 . S
H3110 N3104 0.984 . S
H3111 N3104 0.984 . S
H3112 N3100 0.984 . S
H3113 N3100 0.985 . S
C3114 C3115 1.363 . S
C3114 C3120 1.379 . S
C3114 N3122 1.356 . S
C3115 C3114 1.363 . S
C3115 C3121 1.363 . S
C3116 C3117 1.363 . S
C3116 C3121 1.379 . S
C3116 N3123 1.356 . S
C3117 C3116 1.363 . S
C3117 C3120 1.363 . S
N3118 C3120 1.356 . S
N3118 H3130 0.984 . S
N3118 H3131 0.985 . S
N3119 C3121 1.356 . S
N3119 H3124 0.984 . S
N3119 H3125 0.985 . S
C3120 C3114 1.379 . S
C3120 C3117 1.363 . S
C3120 N3118 1.356 . S
C3121 C3115 1.363 . S
C3121 C3116 1.379 . S
C3121 N3119 1.356 . S
N3122 C3114 1.356 . S
N3122 H3128 0.984 . S
N3122 H3129 0.984 . S
N3123 C3116 1.356 . S
N3123 H3126 0.984 . S
N3123 H3127 0.985 . S
H3124 N3119 0.984 . S
H3125 N3119 0.985 . S
H3126 N3123 0.984 . S
H3127 N3123 0.985 . S
H3128 N3122 0.984 . S
H3129 N3122 0.984 . S
H3130 N3118 0.984 . S
H3131 N3118 0.985 . S
C3132 C3133 1.363 . S
C3132 C3138 1.379 . S
C3132 N3140 1.356 . S
C3133 C3132 1.363 . S
C3133 C3139 1.363 . S
C3134 C3135 1.363 . S
C3134 C3139 1.379 . S
C3134 N3141 1.356 . S
C3135 C3134 1.363 . S
C3135 C3138 1.363 . S
N3136 C3138 1.356 . S
N3136 H3148 0.984 . S
N3136 H3149 0.985 . S
N3137 C3139 1.356 . S
N3137 H3142 0.984 . S
N3137 H3143 0.985 . S
C3138 C3132 1.379 . S
C3138 C3135 1.363 . S
C3138 N3136 1.356 . S
C3139 C3133 1.363 . S
C3139 C3134 1.379 . S
C3139 N3137 1.356 . S
N3140 C3132 1.356 . S
N3140 H3146 0.984 . S
N3140 H3147 0.984 . S
N3141 C3134 1.356 . S
N3141 H3144 0.984 . S
N3141 H3145 0.985 . S
H3142 N3137 0.984 . S
H3143 N3137 0.985 . S
H3144 N3141 0.984 . S
H3145 N3141 0.985 . S
H3146 N3140 0.984 . S
H3147 N3140 0.984 . S
H3148 N3136 0.984 . S
H3149 N3136 0.985 . S
C3150 C3151 1.363 . S
C3150 C3156 1.379 . S
C3150 N3158 1.356 . S
C3151 C3150 1.363 . S
C3151 C3157 1.363 . S
C3152 C3153 1.363 . S
C3152 C3157 1.379 . S
C3152 N3159 1.356 . S
C3153 C3152 1.363 . S
C3153 C3156 1.363 . S
N3154 C3156 1.356 . S
N3154 H3166 0.984 . S
N3154 H3167 0.985 . S
N3155 C3157 1.356 . S
N3155 H3160 0.984 . S
N3155 H3161 0.985 . S
C3156 C3150 1.379 . S
C3156 C3153 1.363 . S
C3156 N3154 1.356 . S
C3157 C3151 1.363 . S
C3157 C3152 1.379 . S
C3157 N3155 1.356 . S
N3158 C3150 1.356 . S
N3158 H3164 0.984 . S
N3158 H3165 0.984 . S
N3159 C3152 1.356 . S
N3159 H3162 0.984 . S
N3159 H3163 0.985 . S
H3160 N3155 0.984 . S
H3161 N3155 0.985 . S
H3162 N3159 0.984 . S
H3163 N3159 0.985 . S
H3164 N3158 0.984 . S
H3165 N3158 0.984 . S
H3166 N3154 0.984 . S
H3167 N3154 0.985 . S
C3168 C3169 1.363 . S
C3168 C3174 1.379 . S
C3168 N3176 1.356 . S
C3169 C3168 1.363 . S
C3169 C3175 1.363 . S
C3170 C3171 1.363 . S
C3170 C3175 1.379 . S
C3170 N3177 1.356 . S
C3171 C3170 1.363 . S
C3171 C3174 1.363 . S
N3172 C3174 1.356 . S
N3172 H3184 0.984 . S
N3172 H3185 0.985 . S
N3173 C3175 1.356 . S
N3173 H3178 0.984 . S
N3173 H3179 0.985 . S
C3174 C3168 1.379 . S
C3174 C3171 1.363 . S
C3174 N3172 1.356 . S
C3175 C3169 1.363 . S
C3175 C3170 1.379 . S
C3175 N3173 1.356 . S
N3176 C3168 1.356 . S
N3176 H3182 0.984 . S
N3176 H3183 0.984 . S
N3177 C3170 1.356 . S
N3177 H3180 0.984 . S
N3177 H3181 0.985 . S
H3178 N3173 0.984 . S
H3179 N3173 0.985 . S
H3180 N3177 0.984 . S
H3181 N3177 0.985 . S
H3182 N3176 0.984 . S
H3183 N3176 0.984 . S
H3184 N3172 0.984 . S
H3185 N3172 0.985 . S
C3186 C3187 1.363 . S
C3186 C3192 1.379 . S
C3186 N3194 1.356 . S
C3187 C3186 1.363 . S
C3187 C3193 1.363 . S
C3188 C3189 1.363 . S
C3188 C3193 1.379 . S
C3188 N3195 1.356 . S
C3189 C3188 1.363 . S
C3189 C3192 1.363 . S
N3190 C3192 1.356 . S
N3190 H3202 0.984 . S
N3190 H3203 0.985 . S
N3191 C3193 1.356 . S
N3191 H3196 0.984 . S
N3191 H3197 0.985 . S
C3192 C3186 1.379 . S
C3192 C3189 1.363 . S
C3192 N3190 1.356 . S
C3193 C3187 1.363 . S
C3193 C3188 1.379 . S
C3193 N3191 1.356 . S
N3194 C3186 1.356 . S
N3194 H3200 0.984 . S
N3194 H3201 0.984 . S
N3195 C3188 1.356 . S
N3195 H3198 0.984 . S
N3195 H3199 0.985 . S
H3196 N3191 0.984 . S
H3197 N3191 0.985 . S
H3198 N3195 0.984 . S
H3199 N3195 0.985 . S
H3200 N3194 0.984 . S
H3201 N3194 0.984 . S
H3202 N3190 0.984 . S
H3203 N3190 0.985 . S
C3204 C3205 1.363 . S
C3204 C3210 1.379 . S
C3204 N3212 1.356 . S
C3205 C3204 1.363 . S
C3205 C3211 1.363 . S
C3206 C3207 1.363 . S
C3206 C3211 1.379 . S
C3206 N3213 1.356 . S
C3207 C3206 1.363 . S
C3207 C3210 1.363 . S
N3208 C3210 1.356 . S
N3208 H3220 0.984 . S
N3208 H3221 0.985 . S
N3209 C3211 1.356 . S
N3209 H3214 0.984 . S
N3209 H3215 0.985 . S
C3210 C3204 1.379 . S
C3210 C3207 1.363 . S
C3210 N3208 1.356 . S
C3211 C3205 1.363 . S
C3211 C3206 1.379 . S
C3211 N3209 1.356 . S
N3212 C3204 1.356 . S
N3212 H3218 0.984 . S
N3212 H3219 0.984 . S
N3213 C3206 1.356 . S
N3213 H3216 0.984 . S
N3213 H3217 0.985 . S
H3214 N3209 0.984 . S
H3215 N3209 0.985 . S
H3216 N3213 0.984 . S
H3217 N3213 0.985 . S
H3218 N3212 0.984 . S
H3219 N3212 0.984 . S
H3220 N3208 0.984 . S
H3221 N3208 0.985 . S
C3222 C3223 1.363 . S
C3222 C3228 1.379 . S
C3222 N3230 1.356 . S
C3223 C3222 1.363 . S
C3223 C3229 1.363 . S
C3224 C3225 1.363 . S
C3224 C3229 1.379 . S
C3224 N3231 1.356 . S
C3225 C3224 1.363 . S
C3225 C3228 1.363 . S
N3226 C3228 1.356 . S
N3226 H3238 0.984 . S
N3226 H3239 0.985 . S
N3227 C3229 1.356 . S
N3227 H3232 0.984 . S
N3227 H3233 0.985 . S
C3228 C3222 1.379 . S
C3228 C3225 1.363 . S
C3228 N3226 1.356 . S
C3229 C3223 1.363 . S
C3229 C3224 1.379 . S
C3229 N3227 1.356 . S
N3230 C3222 1.356 . S
N3230 H3236 0.984 . S
N3230 H3237 0.984 . S
N3231 C3224 1.356 . S
N3231 H3234 0.984 . S
N3231 H3235 0.985 . S
H3232 N3227 0.984 . S
H3233 N3227 0.985 . S
H3234 N3231 0.984 . S
H3235 N3231 0.985 . S
H3236 N3230 0.984 . S
H3237 N3230 0.984 . S
H3238 N3226 0.984 . S
H3239 N3226 0.985 . S
C3240 C3241 1.363 . S
C3240 C3246 1.379 . S
C3240 N3248 1.356 . S
C3241 C3240 1.363 . S
C3241 C3247 1.363 . S
C3242 C3243 1.363 . S
C3242 C3247 1.379 . S
C3242 N3249 1.356 . S
C3243 C3242 1.363 . S
C3243 C3246 1.363 . S
N3244 C3246 1.356 . S
N3244 H3256 0.984 . S
N3244 H3257 0.985 . S
N3245 C3247 1.356 . S
N3245 H3250 0.984 . S
N3245 H3251 0.985 . S
C3246 C3240 1.379 . S
C3246 C3243 1.363 . S
C3246 N3244 1.356 . S
C3247 C3241 1.363 . S
C3247 C3242 1.379 . S
C3247 N3245 1.356 . S
N3248 C3240 1.356 . S
N3248 H3254 0.984 . S
N3248 H3255 0.984 . S
N3249 C3242 1.356 . S
N3249 H3252 0.984 . S
N3249 H3253 0.985 . S
H3250 N3245 0.984 . S
H3251 N3245 0.985 . S
H3252 N3249 0.984 . S
H3253 N3249 0.985 . S
H3254 N3248 0.984 . S
H3255 N3248 0.984 . S
H3256 N3244 0.984 . S
H3257 N3244 0.985 . S
C3258 C3259 1.363 . S
C3258 C3264 1.379 . S
C3258 N3266 1.356 . S
C3259 C3258 1.363 . S
C3259 C3265 1.363 . S
C3260 C3261 1.363 . S
C3260 C3265 1.379 . S
C3260 N3267 1.356 . S
C3261 C3260 1.363 . S
C3261 C3264 1.363 . S
N3262 C3264 1.356 . S
N3262 H3274 0.984 . S
N3262 H3275 0.985 . S
N3263 C3265 1.356 . S
N3263 H3268 0.984 . S
N3263 H3269 0.985 . S
C3264 C3258 1.379 . S
C3264 C3261 1.363 . S
C3264 N3262 1.356 . S
C3265 C3259 1.363 . S
C3265 C3260 1.379 . S
C3265 N3263 1.356 . S
N3266 C3258 1.356 . S
N3266 H3272 0.984 . S
N3266 H3273 0.984 . S
N3267 C3260 1.356 . S
N3267 H3270 0.984 . S
N3267 H3271 0.985 . S
H3268 N3263 0.984 . S
H3269 N3263 0.985 . S
H3270 N3267 0.984 . S
H3271 N3267 0.985 . S
H3272 N3266 0.984 . S
H3273 N3266 0.984 . S
H3274 N3262 0.984 . S
H3275 N3262 0.985 . S
C3276 C3277 1.363 . S
C3276 C3282 1.379 . S
C3276 N3284 1.356 . S
C3277 C3276 1.363 . S
C3277 C3283 1.363 . S
C3278 C3279 1.363 . S
C3278 C3283 1.379 . S
C3278 N3285 1.356 . S
C3279 C3278 1.363 . S
C3279 C3282 1.363 . S
N3280 C3282 1.356 . S
N3280 H3292 0.984 . S
N3280 H3293 0.985 . S
N3281 C3283 1.356 . S
N3281 H3286 0.984 . S
N3281 H3287 0.985 . S
C3282 C3276 1.379 . S
C3282 C3279 1.363 . S
C3282 N3280 1.356 . S
C3283 C3277 1.363 . S
C3283 C3278 1.379 . S
C3283 N3281 1.356 . S
N3284 C3276 1.356 . S
N3284 H3290 0.984 . S
N3284 H3291 0.984 . S
N3285 C3278 1.356 . S
N3285 H3288 0.984 . S
N3285 H3289 0.985 . S
H3286 N3281 0.984 . S
H3287 N3281 0.985 . S
H3288 N3285 0.984 . S
H3289 N3285 0.985 . S
H3290 N3284 0.984 . S
H3291 N3284 0.984 . S
H3292 N3280 0.984 . S
H3293 N3280 0.985 . S
C3294 C3295 1.363 . S
C3294 C3300 1.379 . S
C3294 N3302 1.356 . S
C3295 C3294 1.363 . S
C3295 C3301 1.363 . S
C3296 C3297 1.363 . S
C3296 C3301 1.379 . S
C3296 N3303 1.356 . S
C3297 C3296 1.363 . S
C3297 C3300 1.363 . S
N3298 C3300 1.356 . S
N3298 H3310 0.984 . S
N3298 H3311 0.985 . S
N3299 C3301 1.356 . S
N3299 H3304 0.984 . S
N3299 H3305 0.985 . S
C3300 C3294 1.379 . S
C3300 C3297 1.363 . S
C3300 N3298 1.356 . S
C3301 C3295 1.363 . S
C3301 C3296 1.379 . S
C3301 N3299 1.356 . S
N3302 C3294 1.356 . S
N3302 H3308 0.984 . S
N3302 H3309 0.984 . S
N3303 C3296 1.356 . S
N3303 H3306 0.984 . S
N3303 H3307 0.985 . S
H3304 N3299 0.984 . S
H3305 N3299 0.985 . S
H3306 N3303 0.984 . S
H3307 N3303 0.985 . S
H3308 N3302 0.984 . S
H3309 N3302 0.984 . S
H3310 N3298 0.984 . S
H3311 N3298 0.985 . S
C3312 C3313 1.363 . S
C3312 C3318 1.379 . S
C3312 N3320 1.356 . S
C3313 C3312 1.363 . S
C3313 C3319 1.363 . S
C3314 C3315 1.363 . S
C3314 C3319 1.379 . S
C3314 N3321 1.356 . S
C3315 C3314 1.363 . S
C3315 C3318 1.363 . S
N3316 C3318 1.356 . S
N3316 H3328 0.984 . S
N3316 H3329 0.985 . S
N3317 C3319 1.356 . S
N3317 H3322 0.984 . S
N3317 H3323 0.985 . S
C3318 C3312 1.379 . S
C3318 C3315 1.363 . S
C3318 N3316 1.356 . S
C3319 C3313 1.363 . S
C3319 C3314 1.379 . S
C3319 N3317 1.356 . S
N3320 C3312 1.356 . S
N3320 H3326 0.984 . S
N3320 H3327 0.984 . S
N3321 C3314 1.356 . S
N3321 H3324 0.984 . S
N3321 H3325 0.985 . S
H3322 N3317 0.984 . S
H3323 N3317 0.985 . S
H3324 N3321 0.984 . S
H3325 N3321 0.985 . S
H3326 N3320 0.984 . S
H3327 N3320 0.984 . S
H3328 N3316 0.984 . S
H3329 N3316 0.985 . S
C3330 C3331 1.363 . S
C3330 C3336 1.379 . S
C3330 N3338 1.356 . S
C3331 C3330 1.363 . S
C3331 C3337 1.363 . S
C3332 C3333 1.363 . S
C3332 C3337 1.379 . S
C3332 N3339 1.356 . S
C3333 C3332 1.363 . S
C3333 C3336 1.363 . S
N3334 C3336 1.356 . S
N3334 H3346 0.984 . S
N3334 H3347 0.985 . S
N3335 C3337 1.356 . S
N3335 H3340 0.984 . S
N3335 H3341 0.985 . S
C3336 C3330 1.379 . S
C3336 C3333 1.363 . S
C3336 N3334 1.356 . S
C3337 C3331 1.363 . S
C3337 C3332 1.379 . S
C3337 N3335 1.356 . S
N3338 C3330 1.356 . S
N3338 H3344 0.984 . S
N3338 H3345 0.984 . S
N3339 C3332 1.356 . S
N3339 H3342 0.984 . S
N3339 H3343 0.985 . S
H3340 N3335 0.984 . S
H3341 N3335 0.985 . S
H3342 N3339 0.984 . S
H3343 N3339 0.985 . S
H3344 N3338 0.984 . S
H3345 N3338 0.984 . S
H3346 N3334 0.984 . S
H3347 N3334 0.985 . S
C3348 C3349 1.363 . S
C3348 C3354 1.379 . S
C3348 N3356 1.356 . S
C3349 C3348 1.363 . S
C3349 C3355 1.363 . S
C3350 C3351 1.363 . S
C3350 C3355 1.379 . S
C3350 N3357 1.356 . S
C3351 C3350 1.363 . S
C3351 C3354 1.363 . S
N3352 C3354 1.356 . S
N3352 H3364 0.984 . S
N3352 H3365 0.985 . S
N3353 C3355 1.356 . S
N3353 H3358 0.984 . S
N3353 H3359 0.985 . S
C3354 C3348 1.379 . S
C3354 C3351 1.363 . S
C3354 N3352 1.356 . S
C3355 C3349 1.363 . S
C3355 C3350 1.379 . S
C3355 N3353 1.356 . S
N3356 C3348 1.356 . S
N3356 H3362 0.984 . S
N3356 H3363 0.984 . S
N3357 C3350 1.356 . S
N3357 H3360 0.984 . S
N3357 H3361 0.985 . S
H3358 N3353 0.984 . S
H3359 N3353 0.985 . S
H3360 N3357 0.984 . S
H3361 N3357 0.985 . S
H3362 N3356 0.984 . S
H3363 N3356 0.984 . S
H3364 N3352 0.984 . S
H3365 N3352 0.985 . S
C3366 C3367 1.363 . S
C3366 C3372 1.379 . S
C3366 N3374 1.356 . S
C3367 C3366 1.363 . S
C3367 C3373 1.363 . S
C3368 C3369 1.363 . S
C3368 C3373 1.379 . S
C3368 N3375 1.356 . S
C3369 C3368 1.363 . S
C3369 C3372 1.363 . S
N3370 C3372 1.356 . S
N3370 H3382 0.984 . S
N3370 H3383 0.985 . S
N3371 C3373 1.356 . S
N3371 H3376 0.984 . S
N3371 H3377 0.985 . S
C3372 C3366 1.379 . S
C3372 C3369 1.363 . S
C3372 N3370 1.356 . S
C3373 C3367 1.363 . S
C3373 C3368 1.379 . S
C3373 N3371 1.356 . S
N3374 C3366 1.356 . S
N3374 H3380 0.984 . S
N3374 H3381 0.984 . S
N3375 C3368 1.356 . S
N3375 H3378 0.984 . S
N3375 H3379 0.985 . S
H3376 N3371 0.984 . S
H3377 N3371 0.985 . S
H3378 N3375 0.984 . S
H3379 N3375 0.985 . S
H3380 N3374 0.984 . S
H3381 N3374 0.984 . S
H3382 N3370 0.984 . S
H3383 N3370 0.985 . S
C3384 C3385 1.363 . S
C3384 C3390 1.379 . S
C3384 N3392 1.356 . S
C3385 C3384 1.363 . S
C3385 C3391 1.363 . S
C3386 C3387 1.363 . S
C3386 C3391 1.379 . S
C3386 N3393 1.356 . S
C3387 C3386 1.363 . S
C3387 C3390 1.363 . S
N3388 C3390 1.356 . S
N3388 H3400 0.984 . S
N3388 H3401 0.985 . S
N3389 C3391 1.356 . S
N3389 H3394 0.984 . S
N3389 H3395 0.985 . S
C3390 C3384 1.379 . S
C3390 C3387 1.363 . S
C3390 N3388 1.356 . S
C3391 C3385 1.363 . S
C3391 C3386 1.379 . S
C3391 N3389 1.356 . S
N3392 C3384 1.356 . S
N3392 H3398 0.984 1_554 S
N3392 H3399 0.984 . S
N3393 C3386 1.356 . S
N3393 H3396 0.984 . S
N3393 H3397 0.985 . S
H3394 N3389 0.984 . S
H3395 N3389 0.985 . S
H3396 N3393 0.984 . S
H3397 N3393 0.985 . S
H3398 N3392 0.984 1_556 S
H3399 N3392 0.984 . S
H3400 N3388 0.984 . S
H3401 N3388 0.985 . S
C3402 C3403 1.363 . S
C3402 C3408 1.379 . S
C3402 N3410 1.356 . S
C3403 C3402 1.363 . S
C3403 C3409 1.363 . S
C3404 C3405 1.363 . S
C3404 C3409 1.379 . S
C3404 N3411 1.356 . S
C3405 C3404 1.363 . S
C3405 C3408 1.363 . S
N3406 C3408 1.356 . S
N3406 H3418 0.984 . S
N3406 H3419 0.985 . S
N3407 C3409 1.356 1_554 S
N3407 H3412 0.984 . S
N3407 H3413 0.985 . S
C3408 C3402 1.379 . S
C3408 C3405 1.363 . S
C3408 N3406 1.356 . S
C3409 C3403 1.363 . S
C3409 C3404 1.379 . S
C3409 N3407 1.356 1_556 S
N3410 C3402 1.356 . S
N3410 H3416 0.984 . S
N3410 H3417 0.984 . S
N3411 C3404 1.356 . S
N3411 H3414 0.984 . S
N3411 H3415 0.985 1_556 S
H3412 N3407 0.984 . S
H3413 N3407 0.985 . S
H3414 N3411 0.984 . S
H3415 N3411 0.985 1_554 S
H3416 N3410 0.984 . S
H3417 N3410 0.984 . S
H3418 N3406 0.984 . S
H3419 N3406 0.985 . S
C3420 C3421 1.363 . S
C3420 C3426 1.379 . S
C3420 N3428 1.356 . S
C3421 C3420 1.363 . S
C3421 C3427 1.363 . S
C3422 C3423 1.363 . S
C3422 C3427 1.379 . S
C3422 N3429 1.356 . S
C3423 C3422 1.363 . S
C3423 C3426 1.363 . S
N3424 C3426 1.356 . S
N3424 H3436 0.984 . S
N3424 H3437 0.985 . S
N3425 C3427 1.356 . S
N3425 H3430 0.984 . S
N3425 H3431 0.985 1_655 S
C3426 C3420 1.379 . S
C3426 C3423 1.363 . S
C3426 N3424 1.356 . S
C3427 C3421 1.363 . S
C3427 C3422 1.379 . S
C3427 N3425 1.356 . S
N3428 C3420 1.356 . S
N3428 H3434 0.984 . S
N3428 H3435 0.984 . S
N3429 C3422 1.356 . S
N3429 H3432 0.984 . S
N3429 H3433 0.985 . S
H3430 N3425 0.984 . S
H3431 N3425 0.985 1_455 S
H3432 N3429 0.984 . S
H3433 N3429 0.985 . S
H3434 N3428 0.984 . S
H3435 N3428 0.984 . S
H3436 N3424 0.984 . S
H3437 N3424 0.985 . S
C3438 C3439 1.363 . S
C3438 C3444 1.379 . S
C3438 N3446 1.356 . S
C3439 C3438 1.363 . S
C3439 C3445 1.363 . S
C3440 C3441 1.363 . S
C3440 C3445 1.379 . S
C3440 N3447 1.356 . S
C3441 C3440 1.363 . S
C3441 C3444 1.363 . S
N3442 C3444 1.356 . S
N3442 H3454 0.984 . S
N3442 H3455 0.985 . S
N3443 C3445 1.356 1_554 S
N3443 H3448 0.984 . S
N3443 H3449 0.985 . S
C3444 C3438 1.379 . S
C3444 C3441 1.363 . S
C3444 N3442 1.356 . S
C3445 C3439 1.363 . S
C3445 C3440 1.379 . S
C3445 N3443 1.356 1_556 S
N3446 C3438 1.356 . S
N3446 H3452 0.984 . S
N3446 H3453 0.984 . S
N3447 C3440 1.356 . S
N3447 H3450 0.984 . S
N3447 H3451 0.985 . S
H3448 N3443 0.984 . S
H3449 N3443 0.985 . S
H3450 N3447 0.984 . S
H3451 N3447 0.985 . S
H3452 N3446 0.984 . S
H3453 N3446 0.984 . S
H3454 N3442 0.984 . S
H3455 N3442 0.985 . S
C3456 C3457 1.363 . S
C3456 C3462 1.379 . S
C3456 N3464 1.356 1_556 S
C3457 C3456 1.363 . S
C3457 C3463 1.363 . S
C3458 C3459 1.363 . S
C3458 C3463 1.379 . S
C3458 N3465 1.356 . S
C3459 C3458 1.363 . S
C3459 C3462 1.363 . S
N3460 C3462 1.356 . S
N3460 H3472 1.022 . S
N3460 H3473 0.985 . S
N3461 C3463 1.356 . S
N3461 H3466 0.984 . S
N3461 H3467 0.985 . S
C3462 C3456 1.379 . S
C3462 C3459 1.363 . S
C3462 N3460 1.356 . S
C3463 C3457 1.363 . S
C3463 C3458 1.379 . S
C3463 N3461 1.356 . S
N3464 C3456 1.356 1_554 S
N3464 H3470 0.984 . S
N3464 H3471 0.984 . S
N3465 C3458 1.356 . S
N3465 H3468 0.984 . S
N3465 H3469 0.985 . S
H3466 N3461 0.984 . S
H3467 N3461 0.985 . S
H3468 N3465 0.984 . S
H3469 N3465 0.985 . S
H3470 N3464 0.984 . S
H3471 N3464 0.984 . S
H3472 N3460 1.022 . S
H3473 N3460 0.985 . S
C3474 C3475 1.363 . S
C3474 C3480 1.379 . S
C3474 N3482 1.356 . S
C3475 C3474 1.363 . S
C3475 C3481 1.363 . S
C3476 C3477 1.363 . S
C3476 C3481 1.379 . S
C3476 N3483 1.356 . S
C3477 C3476 1.363 . S
C3477 C3480 1.363 . S
N3478 C3480 1.356 . S
N3478 H3490 0.984 . S
N3478 H3491 0.985 . S
N3479 C3481 1.356 . S
N3479 H3484 0.984 . S
N3479 H3485 0.981 1_556 S
C3480 C3474 1.379 . S
C3480 C3477 1.363 . S
C3480 N3478 1.356 . S
C3481 C3475 1.363 . S
C3481 C3476 1.379 . S
C3481 N3479 1.356 . S
N3482 C3474 1.356 . S
N3482 H3488 0.984 . S
N3482 H3489 0.984 . S
N3483 C3476 1.356 . S
N3483 H3486 0.984 . S
N3483 H3487 0.985 . S
H3484 N3479 0.984 . S
H3485 N3479 0.981 1_554 S
H3486 N3483 0.984 . S
H3487 N3483 0.985 . S
H3488 N3482 0.984 . S
H3489 N3482 0.984 . S
H3490 N3478 0.984 . S
H3491 N3478 0.985 . S
C3492 C3493 1.363 . S
C3492 C3498 1.379 . S
C3492 N3500 1.356 . S
C3493 C3492 1.363 . S
C3493 C3499 1.363 . S
C3494 C3495 1.363 . S
C3494 C3499 1.379 . S
C3494 N3501 1.356 . S
C3495 C3494 1.363 . S
C3495 C3498 1.363 . S
N3496 C3498 1.356 . S
N3496 H3508 1.015 . S
N3496 H3509 0.985 . S
N3497 C3499 1.356 . S
N3497 H3502 0.984 . S
N3497 H3503 0.985 . S
C3498 C3492 1.379 . S
C3498 C3495 1.363 . S
C3498 N3496 1.356 . S
C3499 C3493 1.363 . S
C3499 C3494 1.379 . S
C3499 N3497 1.356 . S
N3500 C3492 1.356 . S
N3500 H3506 0.984 1_545 S
N3500 H3507 0.984 . S
N3501 C3494 1.356 . S
N3501 H3504 0.984 . S
N3501 H3505 0.985 . S
H3502 N3497 0.984 . S
H3503 N3497 0.985 . S
H3504 N3501 0.984 . S
H3505 N3501 0.985 . S
H3506 N3500 0.984 1_565 S
H3507 N3500 0.984 . S
H3508 N3496 1.015 . S
H3509 N3496 0.985 . S
C3510 C3511 1.363 . S
C3510 C3516 1.379 . S
C3510 N3518 1.356 . S
C3511 C3510 1.363 . S
C3511 C3517 1.363 . S
C3512 C3513 1.363 . S
C3512 C3517 1.379 . S
C3512 N3519 1.356 . S
C3513 C3512 1.363 . S
C3513 C3516 1.363 . S
N3514 C3516 1.356 . S
N3514 H3526 0.984 1_565 S
N3514 H3527 0.985 . S
N3515 C3517 1.356 . S
N3515 H3520 0.984 . S
N3515 H3521 0.985 . S
C3516 C3510 1.379 . S
C3516 C3513 1.363 . S
C3516 N3514 1.356 . S
C3517 C3511 1.363 . S
C3517 C3512 1.379 . S
C3517 N3515 1.356 . S
N3518 C3510 1.356 . S
N3518 H3524 0.984 1_565 S
N3518 H3525 0.984 . S
N3519 C3512 1.356 . S
N3519 H3522 0.984 . S
N3519 H3523 0.985 . S
H3520 N3515 0.984 . S
H3521 N3515 0.985 . S
H3522 N3519 0.984 . S
H3523 N3519 0.985 . S
H3524 N3518 0.984 1_545 S
H3525 N3518 0.984 . S
H3526 N3514 0.984 1_545 S
H3527 N3514 0.985 . S
C3528 C3529 1.363 . S
C3528 C3534 1.379 . S
C3528 N3536 1.356 . S
C3529 C3528 1.363 . S
C3529 C3535 1.363 . S
C3530 C3531 1.363 . S
C3530 C3535 1.379 . S
C3530 N3537 1.356 . S
C3531 C3530 1.363 . S
C3531 C3534 1.363 . S
N3532 C3534 1.356 . S
N3532 H3544 0.984 . S
N3532 H3545 0.985 . S
N3533 C3535 1.356 . S
N3533 H3538 0.984 . S
N3533 H3539 0.985 . S
C3534 C3528 1.379 . S
C3534 C3531 1.363 . S
C3534 N3532 1.356 . S
C3535 C3529 1.363 . S
C3535 C3530 1.379 . S
C3535 N3533 1.356 . S
N3536 C3528 1.356 . S
N3536 H3542 0.984 . S
N3536 H3543 0.984 . S
N3537 C3530 1.356 . S
N3537 H3540 0.984 . S
N3537 H3541 0.985 . S
H3538 N3533 0.984 . S
H3539 N3533 0.985 . S
H3540 N3537 0.984 . S
H3541 N3537 0.985 . S
H3542 N3536 0.984 . S
H3543 N3536 0.984 . S
H3544 N3532 0.984 . S
H3545 N3532 0.985 . S
C3546 C3547 1.363 . S
C3546 C3552 1.379 . S
C3546 N3554 1.356 . S
C3547 C3546 1.363 . S
C3547 C3553 1.363 . S
C3548 C3549 1.363 . S
C3548 C3553 1.379 . S
C3548 N3555 1.356 . S
C3549 C3548 1.363 . S
C3549 C3552 1.363 . S
N3550 C3552 1.356 . S
N3550 H3562 0.984 . S
N3550 H3563 0.985 . S
N3551 C3553 1.356 . S
N3551 H3556 0.984 . S
N3551 H3557 0.985 1_554 S
C3552 C3546 1.379 . S
C3552 C3549 1.363 . S
C3552 N3550 1.356 . S
C3553 C3547 1.363 . S
C3553 C3548 1.379 . S
C3553 N3551 1.356 . S
N3554 C3546 1.356 . S
N3554 H3560 0.984 . S
N3554 H3561 0.984 . S
N3555 C3548 1.356 . S
N3555 H3558 0.984 . S
N3555 H3559 0.985 . S
H3556 N3551 0.984 . S
H3557 N3551 0.985 1_556 S
H3558 N3555 0.984 . S
H3559 N3555 0.985 . S
H3560 N3554 0.984 . S
H3561 N3554 0.984 . S
H3562 N3550 0.984 . S
H3563 N3550 0.985 . S
C3564 C3565 1.363 . S
C3564 C3570 1.379 . S
C3564 N3572 1.356 . S
C3565 C3564 1.363 . S
C3565 C3571 1.363 . S
C3566 C3567 1.363 . S
C3566 C3571 1.379 . S
C3566 N3573 1.356 . S
C3567 C3566 1.363 . S
C3567 C3570 1.363 . S
N3568 C3570 1.356 . S
N3568 H3580 0.984 . S
N3568 H3581 0.985 . S
N3569 C3571 1.356 . S
N3569 H3574 0.984 . S
N3569 H3575 0.985 . S
C3570 C3564 1.379 . S
C3570 C3567 1.363 . S
C3570 N3568 1.356 . S
C3571 C3565 1.363 . S
C3571 C3566 1.379 . S
C3571 N3569 1.356 . S
N3572 C3564 1.356 . S
N3572 H3578 0.984 . S
N3572 H3579 0.984 . S
N3573 C3566 1.356 . S
N3573 H3576 0.984 . S
N3573 H3577 0.985 . S
H3574 N3569 0.984 . S
H3575 N3569 0.985 . S
H3576 N3573 0.984 . S
H3577 N3573 0.985 . S
H3578 N3572 0.984 . S
H3579 N3572 0.984 . S
H3580 N3568 0.984 . S
H3581 N3568 0.985 . S
C3582 C3583 1.363 . S
C3582 C3588 1.379 . S
C3582 N3590 1.356 . S
C3583 C3582 1.363 . S
C3583 C3589 1.363 . S
C3584 C3585 1.363 . S
C3584 C3589 1.379 . S
C3584 N3591 1.356 . S
C3585 C3584 1.363 . S
C3585 C3588 1.363 . S
N3586 C3588 1.356 . S
N3586 H3598 0.984 . S
N3586 H3599 0.985 . S
N3587 C3589 1.356 . S
N3587 H3592 0.984 . S
N3587 H3593 0.985 . S
C3588 C3582 1.379 . S
C3588 C3585 1.363 . S
C3588 N3586 1.356 . S
C3589 C3583 1.363 . S
C3589 C3584 1.379 . S
C3589 N3587 1.356 . S
N3590 C3582 1.356 . S
N3590 H3596 0.984 . S
N3590 H3597 0.984 . S
N3591 C3584 1.356 . S
N3591 H3594 0.984 . S
N3591 H3595 0.985 . S
H3592 N3587 0.984 . S
H3593 N3587 0.985 . S
H3594 N3591 0.984 . S
H3595 N3591 0.985 . S
H3596 N3590 0.984 . S
H3597 N3590 0.984 . S
H3598 N3586 0.984 . S
H3599 N3586 0.985 . S
C3600 C3601 1.363 . S
C3600 C3606 1.379 . S
C3600 N3608 1.356 . S
C3601 C3600 1.363 . S
C3601 C3607 1.363 . S
C3602 C3603 1.363 . S
C3602 C3607 1.379 . S
C3602 N3609 1.356 . S
C3603 C3602 1.363 . S
C3603 C3606 1.363 . S
N3604 C3606 1.356 . S
N3604 H3616 0.984 . S
N3604 H3617 0.985 . S
N3605 C3607 1.356 . S
N3605 H3610 0.984 . S
N3605 H3611 0.985 . S
C3606 C3600 1.379 . S
C3606 C3603 1.363 . S
C3606 N3604 1.356 . S
C3607 C3601 1.363 . S
C3607 C3602 1.379 . S
C3607 N3605 1.356 . S
N3608 C3600 1.356 . S
N3608 H3614 0.984 . S
N3608 H3615 0.984 . S
N3609 C3602 1.356 . S
N3609 H3612 0.984 . S
N3609 H3613 0.985 . S
H3610 N3605 0.984 . S
H3611 N3605 0.985 . S
H3612 N3609 0.984 . S
H3613 N3609 0.985 . S
H3614 N3608 0.984 . S
H3615 N3608 0.984 . S
H3616 N3604 0.984 . S
H3617 N3604 0.985 . S
C3618 C3619 1.363 . S
C3618 C3624 1.379 . S
C3618 N3626 1.356 . S
C3619 C3618 1.363 . S
C3619 C3625 1.363 . S
C3620 C3621 1.363 . S
C3620 C3625 1.379 . S
C3620 N3627 1.356 . S
C3621 C3620 1.363 . S
C3621 C3624 1.363 . S
N3622 C3624 1.326 1_655 S
N3622 H3634 1.002 . S
N3622 H3635 1.008 1_655 S
N3623 C3625 1.356 . S
N3623 H3628 0.984 . S
N3623 H3629 0.985 . S
C3624 C3618 1.379 . S
C3624 C3621 1.363 . S
C3624 N3622 1.326 1_455 S
C3625 C3619 1.363 . S
C3625 C3620 1.379 . S
C3625 N3623 1.356 . S
N3626 C3618 1.356 . S
N3626 H3632 0.969 1_455 S
N3626 H3633 1.001 . S
N3627 C3620 1.356 . S
N3627 H3630 0.984 . S
N3627 H3631 0.985 . S
H3628 N3623 0.984 . S
H3629 N3623 0.985 . S
H3630 N3627 0.984 . S
H3631 N3627 0.985 . S
H3632 N3626 0.969 1_655 S
H3633 N3626 1.001 . S
H3634 N3622 1.002 . S
H3635 N3622 1.008 1_455 S
C3636 C3637 1.363 . S
C3636 C3642 1.379 . S
C3636 N3644 1.356 . S
C3637 C3636 1.363 . S
C3637 C3643 1.363 . S
C3638 C3639 1.363 . S
C3638 C3643 1.379 . S
C3638 N3645 1.356 . S
C3639 C3638 1.363 . S
C3639 C3642 1.363 . S
N3640 C3642 1.356 . S
N3640 H3652 0.984 . S
N3640 H3653 0.985 . S
N3641 C3643 1.356 . S
N3641 H3646 0.984 . S
N3641 H3647 0.985 . S
C3642 C3636 1.379 . S
C3642 C3639 1.363 . S
C3642 N3640 1.356 . S
C3643 C3637 1.363 . S
C3643 C3638 1.379 . S
C3643 N3641 1.356 . S
N3644 C3636 1.356 . S
N3644 H3650 0.984 . S
N3644 H3651 0.984 . S
N3645 C3638 1.356 . S
N3645 H3648 0.984 . S
N3645 H3649 0.985 . S
H3646 N3641 0.984 . S
H3647 N3641 0.985 . S
H3648 N3645 0.984 . S
H3649 N3645 0.985 . S
H3650 N3644 0.984 . S
H3651 N3644 0.984 . S
H3652 N3640 0.984 . S
H3653 N3640 0.985 . S
C3654 C3655 1.363 . S
C3654 C3660 1.379 . S
C3654 N3662 1.356 . S
C3655 C3654 1.363 . S
C3655 C3661 1.363 1_565 S
C3656 C3657 1.363 1_545 S
C3656 C3661 1.379 . S
C3656 N3663 1.356 . S
C3657 C3656 1.363 1_565 S
C3657 C3660 1.363 . S
N3658 C3660 1.356 . S
N3658 H3670 0.984 . S
N3658 H3671 0.985 . S
N3659 C3661 1.356 . S
N3659 H3664 0.984 . S
N3659 H3665 0.985 . S
C3660 C3654 1.379 . S
C3660 C3657 1.363 . S
C3660 N3658 1.356 . S
C3661 C3655 1.363 1_545 S
C3661 C3656 1.379 . S
C3661 N3659 1.356 . S
N3662 C3654 1.356 . S
N3662 H3668 0.984 . S
N3662 H3669 0.984 . S
N3663 C3656 1.356 . S
N3663 H3666 0.984 . S
N3663 H3667 0.985 . S
H3664 N3659 0.984 . S
H3665 N3659 0.985 . S
H3666 N3663 0.984 . S
H3667 N3663 0.985 . S
H3668 N3662 0.984 . S
H3669 N3662 0.984 . S
H3670 N3658 0.984 . S
H3671 N3658 0.985 . S
C3672 C3673 1.363 . S
C3672 C3678 1.379 . S
C3672 N3680 1.356 . S
C3673 C3672 1.363 . S
C3673 C3679 1.363 1_565 S
C3674 C3675 1.363 1_545 S
C3674 C3679 1.379 . S
C3674 N3681 1.356 . S
C3675 C3674 1.363 1_565 S
C3675 C3678 1.363 . S
N3676 C3678 1.356 . S
N3676 H3688 0.984 . S
N3676 H3689 0.985 . S
N3677 C3679 1.356 . S
N3677 H3682 0.984 . S
N3677 H3683 0.985 . S
C3678 C3672 1.379 . S
C3678 C3675 1.363 . S
C3678 N3676 1.356 . S
C3679 C3673 1.363 1_545 S
C3679 C3674 1.379 . S
C3679 N3677 1.356 . S
N3680 C3672 1.356 . S
N3680 H3686 0.984 . S
N3680 H3687 0.984 . S
N3681 C3674 1.356 . S
N3681 H3684 0.984 . S
N3681 H3685 0.985 . S
H3682 N3677 0.984 . S
H3683 N3677 0.985 . S
H3684 N3681 0.984 . S
H3685 N3681 0.985 . S
H3686 N3680 0.984 . S
H3687 N3680 0.984 . S
H3688 N3676 0.984 . S
H3689 N3676 0.985 . S
C3690 C3691 1.363 . S
C3690 C3696 1.379 . S
C3690 N3698 1.356 . S
C3691 C3690 1.363 . S
C3691 C3697 1.376 . S
C3692 C3693 1.363 1_655 S
C3692 C3697 1.388 1_655 S
C3692 N3699 1.356 . S
C3693 C3692 1.363 1_455 S
C3693 C3696 1.363 . S
N3694 C3696 1.356 . S
N3694 H3706 0.984 . S
N3694 H3707 0.985 . S
N3695 C3697 1.337 1_655 S
N3695 H3700 0.984 1_655 S
N3695 H3701 0.985 . S
C3696 C3690 1.379 . S
C3696 C3693 1.363 . S
C3696 N3694 1.356 . S
C3697 C3691 1.376 . S
C3697 C3692 1.388 1_455 S
C3697 N3695 1.337 1_455 S
N3698 C3690 1.356 . S
N3698 H3704 0.984 . S
N3698 H3705 0.984 . S
N3699 C3692 1.356 . S
N3699 H3702 0.984 . S
N3699 H3703 0.985 . S
H3700 N3695 0.984 1_455 S
H3701 N3695 0.985 . S
H3702 N3699 0.984 . S
H3703 N3699 0.985 . S
H3704 N3698 0.984 . S
H3705 N3698 0.984 . S
H3706 N3694 0.984 . S
H3707 N3694 0.985 . S
C3708 C3709 1.363 . S
C3708 C3714 1.379 . S
C3708 N3716 1.356 . S
C3709 C3708 1.363 . S
C3709 C3715 1.363 . S
C3710 C3711 1.363 . S
C3710 C3715 1.379 . S
C3710 N3717 1.356 . S
C3711 C3710 1.363 . S
C3711 C3714 1.363 . S
N3712 C3714 1.356 . S
N3712 H3724 0.984 . S
N3712 H3725 0.985 . S
N3713 C3715 1.356 . S
N3713 H3718 0.984 . S
N3713 H3719 0.985 . S
C3714 C3708 1.379 . S
C3714 C3711 1.363 . S
C3714 N3712 1.356 . S
C3715 C3709 1.363 . S
C3715 C3710 1.379 . S
C3715 N3713 1.356 . S
N3716 C3708 1.356 . S
N3716 H3722 0.984 . S
N3716 H3723 0.984 . S
N3717 C3710 1.356 . S
N3717 H3720 0.984 . S
N3717 H3721 0.985 . S
H3718 N3713 0.984 . S
H3719 N3713 0.985 . S
H3720 N3717 0.984 . S
H3721 N3717 0.985 . S
H3722 N3716 0.984 . S
H3723 N3716 0.984 . S
H3724 N3712 0.984 . S
H3725 N3712 0.985 . S
C3726 C3727 1.363 . S
C3726 C3732 1.379 . S
C3726 N3734 1.356 . S
C3727 C3726 1.363 . S
C3727 C3733 1.363 . S
C3728 C3729 1.363 . S
C3728 C3733 1.379 . S
C3728 N3735 1.356 . S
C3729 C3728 1.363 . S
C3729 C3732 1.363 . S
N3730 C3732 1.356 . S
N3730 H3742 0.984 . S
N3730 H3743 0.985 . S
N3731 C3733 1.356 . S
N3731 H3736 0.984 . S
N3731 H3737 0.985 . S
C3732 C3726 1.379 . S
C3732 C3729 1.363 . S
C3732 N3730 1.356 . S
C3733 C3727 1.363 . S
C3733 C3728 1.379 . S
C3733 N3731 1.356 . S
N3734 C3726 1.356 . S
N3734 H3740 0.984 . S
N3734 H3741 0.984 . S
N3735 C3728 1.356 . S
N3735 H3738 0.984 . S
N3735 H3739 0.985 . S
H3736 N3731 0.984 . S
H3737 N3731 0.985 . S
H3738 N3735 0.984 . S
H3739 N3735 0.985 . S
H3740 N3734 0.984 . S
H3741 N3734 0.984 . S
H3742 N3730 0.984 . S
H3743 N3730 0.985 . S
C3744 C3745 1.363 . S
C3744 C3750 1.379 . S
C3744 N3752 1.356 . S
C3745 C3744 1.363 . S
C3745 C3751 1.363 . S
C3746 C3747 1.363 . S
C3746 C3751 1.379 . S
C3746 N3753 1.356 . S
C3747 C3746 1.363 . S
C3747 C3750 1.363 . S
N3748 C3750 1.356 . S
N3748 H3760 0.984 . S
N3748 H3761 0.985 . S
N3749 C3751 1.356 . S
N3749 H3754 0.984 . S
N3749 H3755 0.985 . S
C3750 C3744 1.379 . S
C3750 C3747 1.363 . S
C3750 N3748 1.356 . S
C3751 C3745 1.363 . S
C3751 C3746 1.379 . S
C3751 N3749 1.356 . S
N3752 C3744 1.356 . S
N3752 H3758 0.984 . S
N3752 H3759 0.984 . S
N3753 C3746 1.356 . S
N3753 H3756 0.984 . S
N3753 H3757 0.985 . S
H3754 N3749 0.984 . S
H3755 N3749 0.985 . S
H3756 N3753 0.984 . S
H3757 N3753 0.985 . S
H3758 N3752 0.984 . S
H3759 N3752 0.984 . S
H3760 N3748 0.984 . S
H3761 N3748 0.985 . S
C3762 C3763 1.363 . S
C3762 C3768 1.379 . S
C3762 N3770 1.356 . S
C3763 C3762 1.363 . S
C3763 C3769 1.363 . S
C3764 C3765 1.363 . S
C3764 C3769 1.379 . S
C3764 N3771 1.356 . S
C3765 C3764 1.363 . S
C3765 C3768 1.363 . S
N3766 C3768 1.356 . S
N3766 H3778 0.984 . S
N3766 H3779 0.985 . S
N3767 C3769 1.356 . S
N3767 H3772 0.984 . S
N3767 H3773 0.985 . S
C3768 C3762 1.379 . S
C3768 C3765 1.363 . S
C3768 N3766 1.356 . S
C3769 C3763 1.363 . S
C3769 C3764 1.379 . S
C3769 N3767 1.356 . S
N3770 C3762 1.356 . S
N3770 H3776 0.984 . S
N3770 H3777 0.984 . S
N3771 C3764 1.356 . S
N3771 H3774 0.984 . S
N3771 H3775 0.985 . S
H3772 N3767 0.984 . S
H3773 N3767 0.985 . S
H3774 N3771 0.984 . S
H3775 N3771 0.985 . S
H3776 N3770 0.984 . S
H3777 N3770 0.984 . S
H3778 N3766 0.984 . S
H3779 N3766 0.985 . S
C3780 C3781 1.363 . S
C3780 C3786 1.379 . S
C3780 N3788 1.356 . S
C3781 C3780 1.363 . S
C3781 C3787 1.363 1_545 S
C3782 C3783 1.363 1_565 S
C3782 C3787 1.379 . S
C3782 N3789 1.356 . S
C3783 C3782 1.363 1_545 S
C3783 C3786 1.363 . S
N3784 C3786 1.356 . S
N3784 H3796 0.984 . S
N3784 H3797 0.985 . S
N3785 C3787 1.356 . S
N3785 H3790 0.984 . S
N3785 H3791 0.985 . S
C3786 C3780 1.379 . S
C3786 C3783 1.363 . S
C3786 N3784 1.356 . S
C3787 C3781 1.363 1_565 S
C3787 C3782 1.379 . S
C3787 N3785 1.356 . S
N3788 C3780 1.356 . S
N3788 H3794 0.984 . S
N3788 H3795 0.984 . S
N3789 C3782 1.356 . S
N3789 H3792 0.984 . S
N3789 H3793 0.985 . S
H3790 N3785 0.984 . S
H3791 N3785 0.985 . S
H3792 N3789 0.984 . S
H3793 N3789 0.985 . S
H3794 N3788 0.984 . S
H3795 N3788 0.984 . S
H3796 N3784 0.984 . S
H3797 N3784 0.985 . S
C3798 C3799 1.363 1_455 S
C3798 C3804 1.379 . S
C3798 N3806 1.356 . S
C3799 C3798 1.363 1_655 S
C3799 C3805 1.363 . S
C3800 C3801 1.363 . S
C3800 C3805 1.379 . S
C3800 N3807 1.356 . S
C3801 C3800 1.363 . S
C3801 C3804 1.363 1_655 S
N3802 C3804 1.356 . S
N3802 H3814 0.984 . S
N3802 H3815 0.985 . S
N3803 C3805 1.356 . S
N3803 H3808 0.984 . S
N3803 H3809 0.985 . S
C3804 C3798 1.379 . S
C3804 C3801 1.363 1_455 S
C3804 N3802 1.356 . S
C3805 C3799 1.363 . S
C3805 C3800 1.379 . S
C3805 N3803 1.356 . S
N3806 C3798 1.356 . S
N3806 H3812 0.984 . S
N3806 H3813 0.984 . S
N3807 C3800 1.356 . S
N3807 H3810 0.984 . S
N3807 H3811 0.985 . S
H3808 N3803 0.984 . S
H3809 N3803 0.985 . S
H3810 N3807 0.984 . S
H3811 N3807 0.985 . S
H3812 N3806 0.984 . S
H3813 N3806 0.984 . S
H3814 N3802 0.984 . S
H3815 N3802 0.985 . S
C3816 C3817 1.363 . S
C3816 C3822 1.379 . S
C3816 N3824 1.356 . S
C3817 C3816 1.363 . S
C3817 C3823 1.363 . S
C3818 C3819 1.363 . S
C3818 C3823 1.379 . S
C3818 N3825 1.356 . S
C3819 C3818 1.363 . S
C3819 C3822 1.363 . S
N3820 C3822 1.356 . S
N3820 H3832 0.984 . S
N3820 H3833 0.985 . S
N3821 C3823 1.356 . S
N3821 H3826 0.984 . S
N3821 H3827 0.985 . S
C3822 C3816 1.379 . S
C3822 C3819 1.363 . S
C3822 N3820 1.356 . S
C3823 C3817 1.363 . S
C3823 C3818 1.379 . S
C3823 N3821 1.356 . S
N3824 C3816 1.356 . S
N3824 H3830 0.984 . S
N3824 H3831 0.984 . S
N3825 C3818 1.356 . S
N3825 H3828 0.984 . S
N3825 H3829 0.985 . S
H3826 N3821 0.984 . S
H3827 N3821 0.985 . S
H3828 N3825 0.984 . S
H3829 N3825 0.985 . S
H3830 N3824 0.984 . S
H3831 N3824 0.984 . S
H3832 N3820 0.984 . S
H3833 N3820 0.985 . S
C3834 C3835 1.363 . S
C3834 C3840 1.379 . S
C3834 N3842 1.356 . S
C3835 C3834 1.363 . S
C3835 C3841 1.363 . S
C3836 C3837 1.363 . S
C3836 C3841 1.379 . S
C3836 N3843 1.356 . S
C3837 C3836 1.363 . S
C3837 C3840 1.363 . S
N3838 C3840 1.356 . S
N3838 H3850 0.984 . S
N3838 H3851 0.985 . S
N3839 C3841 1.356 . S
N3839 H3844 0.984 . S
N3839 H3845 0.985 . S
C3840 C3834 1.379 . S
C3840 C3837 1.363 . S
C3840 N3838 1.356 . S
C3841 C3835 1.363 . S
C3841 C3836 1.379 . S
C3841 N3839 1.356 . S
N3842 C3834 1.356 . S
N3842 H3848 0.984 . S
N3842 H3849 0.984 . S
N3843 C3836 1.356 . S
N3843 H3846 0.984 . S
N3843 H3847 0.985 . S
H3844 N3839 0.984 . S
H3845 N3839 0.985 . S
H3846 N3843 0.984 . S
H3847 N3843 0.985 . S
H3848 N3842 0.984 . S
H3849 N3842 0.984 . S
H3850 N3838 0.984 . S
H3851 N3838 0.985 . S
C3852 C3853 1.363 . S
C3852 C3858 1.379 . S
C3852 N3860 1.356 . S
C3853 C3852 1.363 . S
C3853 C3859 1.363 . S
C3854 C3855 1.363 . S
C3854 C3859 1.379 . S
C3854 N3861 1.356 . S
C3855 C3854 1.363 . S
C3855 C3858 1.363 . S
N3856 C3858 1.356 . S
N3856 H3868 0.984 . S
N3856 H3869 0.985 . S
N3857 C3859 1.356 . S
N3857 H3862 0.984 . S
N3857 H3863 0.985 . S
C3858 C3852 1.379 . S
C3858 C3855 1.363 . S
C3858 N3856 1.356 . S
C3859 C3853 1.363 . S
C3859 C3854 1.379 . S
C3859 N3857 1.356 . S
N3860 C3852 1.356 . S
N3860 H3866 0.984 . S
N3860 H3867 0.984 . S
N3861 C3854 1.356 . S
N3861 H3864 0.984 . S
N3861 H3865 0.985 . S
H3862 N3857 0.984 . S
H3863 N3857 0.985 . S
H3864 N3861 0.984 . S
H3865 N3861 0.985 . S
H3866 N3860 0.984 . S
H3867 N3860 0.984 . S
H3868 N3856 0.984 . S
H3869 N3856 0.985 . S
C3870 C3871 1.363 . S
C3870 C3876 1.379 . S
C3870 N3878 1.356 . S
C3871 C3870 1.363 . S
C3871 C3877 1.363 . S
C3872 C3873 1.363 . S
C3872 C3877 1.379 . S
C3872 N3879 1.356 . S
C3873 C3872 1.363 . S
C3873 C3876 1.363 . S
N3874 C3876 1.356 . S
N3874 H3886 0.984 . S
N3874 H3887 0.985 . S
N3875 C3877 1.356 . S
N3875 H3880 0.984 . S
N3875 H3881 0.985 . S
C3876 C3870 1.379 . S
C3876 C3873 1.363 . S
C3876 N3874 1.356 . S
C3877 C3871 1.363 . S
C3877 C3872 1.379 . S
C3877 N3875 1.356 . S
N3878 C3870 1.356 . S
N3878 H3884 0.984 . S
N3878 H3885 0.984 . S
N3879 C3872 1.356 . S
N3879 H3882 0.984 . S
N3879 H3883 0.985 . S
H3880 N3875 0.984 . S
H3881 N3875 0.985 . S
H3882 N3879 0.984 . S
H3883 N3879 0.985 . S
H3884 N3878 0.984 . S
H3885 N3878 0.984 . S
H3886 N3874 0.984 . S
H3887 N3874 0.985 . S
C3888 C3889 1.363 . S
C3888 C3894 1.379 . S
C3888 N3896 1.356 . S
C3889 C3888 1.363 . S
C3889 C3895 1.363 . S
C3890 C3891 1.363 . S
C3890 C3895 1.379 . S
C3890 N3897 1.356 . S
C3891 C3890 1.363 . S
C3891 C3894 1.363 . S
N3892 C3894 1.356 . S
N3892 H3904 0.984 . S
N3892 H3905 0.985 . S
N3893 C3895 1.356 . S
N3893 H3898 0.984 . S
N3893 H3899 0.985 . S
C3894 C3888 1.379 . S
C3894 C3891 1.363 . S
C3894 N3892 1.356 . S
C3895 C3889 1.363 . S
C3895 C3890 1.379 . S
C3895 N3893 1.356 . S
N3896 C3888 1.356 . S
N3896 H3902 0.984 . S
N3896 H3903 0.984 . S
N3897 C3890 1.356 . S
N3897 H3900 0.984 . S
N3897 H3901 0.985 . S
H3898 N3893 0.984 . S
H3899 N3893 0.985 . S
H3900 N3897 0.984 . S
H3901 N3897 0.985 . S
H3902 N3896 0.984 . S
H3903 N3896 0.984 . S
H3904 N3892 0.984 . S
H3905 N3892 0.985 . S
C3906 C3907 1.363 . S
C3906 C3912 1.379 . S
C3906 N3914 1.356 . S
C3907 C3906 1.363 . S
C3907 C3913 1.363 . S
C3908 C3909 1.363 . S
C3908 C3913 1.379 . S
C3908 N3915 1.356 . S
C3909 C3908 1.363 . S
C3909 C3912 1.363 . S
N3910 C3912 1.356 . S
N3910 H3922 0.984 . S
N3910 H3923 0.985 . S
N3911 C3913 1.356 . S
N3911 H3916 0.984 . S
N3911 H3917 0.985 . S
C3912 C3906 1.379 . S
C3912 C3909 1.363 . S
C3912 N3910 1.356 . S
C3913 C3907 1.363 . S
C3913 C3908 1.379 . S
C3913 N3911 1.356 . S
N3914 C3906 1.356 . S
N3914 H3920 0.984 . S
N3914 H3921 0.984 . S
N3915 C3908 1.356 . S
N3915 H3918 0.984 . S
N3915 H3919 0.985 . S
H3916 N3911 0.984 . S
H3917 N3911 0.985 . S
H3918 N3915 0.984 . S
H3919 N3915 0.985 . S
H3920 N3914 0.984 . S
H3921 N3914 0.984 . S
H3922 N3910 0.984 . S
H3923 N3910 0.985 . S
C3924 C3925 1.363 . S
C3924 C3930 1.379 . S
C3924 N3932 1.356 . S
C3925 C3924 1.363 . S
C3925 C3931 1.363 . S
C3926 C3927 1.363 . S
C3926 C3931 1.379 . S
C3926 N3933 1.356 . S
C3927 C3926 1.363 . S
C3927 C3930 1.363 . S
N3928 C3930 1.356 . S
N3928 H3940 0.984 . S
N3928 H3941 0.985 . S
N3929 C3931 1.356 . S
N3929 H3934 0.984 . S
N3929 H3935 0.985 . S
C3930 C3924 1.379 . S
C3930 C3927 1.363 . S
C3930 N3928 1.356 . S
C3931 C3925 1.363 . S
C3931 C3926 1.379 . S
C3931 N3929 1.356 . S
N3932 C3924 1.356 . S
N3932 H3938 0.984 . S
N3932 H3939 0.984 . S
N3933 C3926 1.356 . S
N3933 H3936 0.984 . S
N3933 H3937 0.985 . S
H3934 N3929 0.984 . S
H3935 N3929 0.985 . S
H3936 N3933 0.984 . S
H3937 N3933 0.985 . S
H3938 N3932 0.984 . S
H3939 N3932 0.984 . S
H3940 N3928 0.984 . S
H3941 N3928 0.985 . S
C3942 C3943 1.363 1_455 S
C3942 C3948 1.379 . S
C3942 N3950 1.356 . S
C3943 C3942 1.363 1_655 S
C3943 C3949 1.363 . S
C3944 C3945 1.363 . S
C3944 C3949 1.379 . S
C3944 N3951 1.356 . S
C3945 C3944 1.363 . S
C3945 C3948 1.363 1_655 S
N3946 C3948 1.356 . S
N3946 H3958 0.984 . S
N3946 H3959 0.985 . S
N3947 C3949 1.356 . S
N3947 H3952 0.984 . S
N3947 H3953 0.985 . S
C3948 C3942 1.379 . S
C3948 C3945 1.363 1_455 S
C3948 N3946 1.356 . S
C3949 C3943 1.363 . S
C3949 C3944 1.379 . S
C3949 N3947 1.356 . S
N3950 C3942 1.356 . S
N3950 H3956 0.984 . S
N3950 H3957 0.984 . S
N3951 C3944 1.356 . S
N3951 H3954 0.984 . S
N3951 H3955 0.985 . S
H3952 N3947 0.984 . S
H3953 N3947 0.985 . S
H3954 N3951 0.984 . S
H3955 N3951 0.985 . S
H3956 N3950 0.984 . S
H3957 N3950 0.984 . S
H3958 N3946 0.984 . S
H3959 N3946 0.985 . S
C3960 C3961 1.363 . S
C3960 C3966 1.379 . S
C3960 N3968 1.356 . S
C3961 C3960 1.363 . S
C3961 C3967 1.363 . S
C3962 C3963 1.363 . S
C3962 C3967 1.379 . S
C3962 N3969 1.356 . S
C3963 C3962 1.363 . S
C3963 C3966 1.363 . S
N3964 C3966 1.356 . S
N3964 H3976 0.984 . S
N3964 H3977 0.985 . S
N3965 C3967 1.356 . S
N3965 H3970 0.984 . S
N3965 H3971 0.985 . S
C3966 C3960 1.379 . S
C3966 C3963 1.363 . S
C3966 N3964 1.356 . S
C3967 C3961 1.363 . S
C3967 C3962 1.379 . S
C3967 N3965 1.356 . S
N3968 C3960 1.356 . S
N3968 H3974 0.984 . S
N3968 H3975 0.984 . S
N3969 C3962 1.356 . S
N3969 H3972 0.984 . S
N3969 H3973 0.985 . S
H3970 N3965 0.984 . S
H3971 N3965 0.985 . S
H3972 N3969 0.984 . S
H3973 N3969 0.985 . S
H3974 N3968 0.984 . S
H3975 N3968 0.984 . S
H3976 N3964 0.984 . S
H3977 N3964 0.985 . S
C3978 C3979 1.363 . S
C3978 C3984 1.379 . S
C3978 N3986 1.356 . S
C3979 C3978 1.363 . S
C3979 C3985 1.363 1_545 S
C3980 C3981 1.363 1_565 S
C3980 C3985 1.379 . S
C3980 N3987 1.356 . S
C3981 C3980 1.363 1_545 S
C3981 C3984 1.363 . S
N3982 C3984 1.356 . S
N3982 H3994 0.984 . S
N3982 H3995 0.985 . S
N3983 C3985 1.356 . S
N3983 H3988 0.984 . S
N3983 H3989 0.985 . S
C3984 C3978 1.379 . S
C3984 C3981 1.363 . S
C3984 N3982 1.356 . S
C3985 C3979 1.363 1_565 S
C3985 C3980 1.379 . S
C3985 N3983 1.356 . S
N3986 C3978 1.356 . S
N3986 H3992 0.984 . S
N3986 H3993 0.984 . S
N3987 C3980 1.356 . S
N3987 H3990 0.984 . S
N3987 H3991 0.985 . S
H3988 N3983 0.984 . S
H3989 N3983 0.985 . S
H3990 N3987 0.984 . S
H3991 N3987 0.985 . S
H3992 N3986 0.984 . S
H3993 N3986 0.984 . S
H3994 N3982 0.984 . S
H3995 N3982 0.985 . S
C2701 C4 1.332 . S
C2703 C1703 1.089 . S
C2719 C38 1.979 . S
C2721 C1843 1.178 . S
C2739 C1931 1.135 . S
C2737 C74 1.351 . S
C2755 C76 1.387 . S
C2757 C2071 1.046 1_565 S
C2773 C2 1.460 . S
C2775 C2185 1.174 . S
C2791 C40 1.790 . S
C2793 C2273 1.239 . S
C2809 C110 1.367 . S
C2811 C2159 1.119 . S
C2829 C2299 1.508 . S
C2827 C148 1.691 . S
C2847 C2045 1.177 . S
C2845 C182 1.393 . S
C2863 C184 1.432 . S
C2865 C1957 1.062 . S
C2883 C1729 1.041 . S
C2881 C112 1.363 . S
C2899 C146 1.757 . S
C2901 C1817 1.605 . S
C2917 C220 1.906 . S
C2919 C2387 1.320 . S
C2935 C254 2.095 . S
C2937 C2527 1.284 . S
C2955 C2615 1.336 . S
C2953 C290 1.929 . S
C2971 C292 1.845 . S
C2973 C703 1.120 . S
C2989 C218 1.984 . S
C2991 C817 1.219 . S
C3007 C256 1.877 . S
C3009 C905 1.310 . S
C3025 C326 1.772 . S
C3027 C791 1.631 . S
C3043 C364 1.792 . S
C3045 C931 1.635 . S
C3063 C677 1.693 . S
C3061 C398 1.828 . S
C3081 C2641 1.649 . S
C3079 C400 1.855 . S
C3099 C2413 1.514 . S
C3097 C328 1.681 . S
C3117 C2501 1.738 . S
C3115 C362 1.863 . S
C3133 C436 1.799 . S
C3135 C1019 1.216 . S
C3151 C470 2.080 . S
C3153 C1159 1.270 . S
C3169 C506 1.930 . S
C3171 C1247 1.351 . S
C3187 C508 1.960 . S
C3189 C1387 1.225 . S
C3207 C1501 1.197 . S
C3205 C434 1.968 . S
C3225 C1589 1.329 . S
C3223 C472 1.892 . S
C3243 C1475 1.740 . S
C3241 C542 1.890 . S
C3261 C1615 1.655 . S
C3259 C580 1.806 . S
C3277 C614 1.797 . S
C3279 C1361 1.674 . S
C3297 C1273 1.543 . S
C3295 C616 1.734 . S
C3313 C544 1.703 . S
C3315 C1045 1.519 . S
C3333 C1133 1.702 . S
C3331 C578 1.826 . S
C3351 C659 1.037 . S
C3349 C14 1.984 . S
C3367 C39 1.759 . S
C3369 C773 0.953 . S
C3387 C877 1.280 . S
C3385 C75 1.809 . S
C3405 C991 1.214 . S
C3403 C86 1.716 . S
C3423 C1115 0.984 . S
C3421 C3 1.851 . S
C3441 C1219 1.270 . S
C3439 C50 1.828 . S
C3457 C111 1.990 . S
C3459 C1229 1.651 . S
C3475 C158 1.938 . S
C3477 C1001 1.612 . S
C3493 C183 2.070 . S
C3495 C1105 1.920 . S
C3511 C194 1.991 . S
C3513 C763 1.796 . S
C3531 C887 1.667 . S
C3529 C122 2.030 . S
C3547 C147 1.822 . S
C3549 C649 1.703 . S
C3567 C1343 1.029 . S
C3565 C230 1.895 . S
C3583 C255 1.871 . S
C3585 C1457 1.060 . S
C3601 C291 1.813 . S
C3603 C1561 1.365 . S
C3621 C1675 1.093 . S
C3619 C302 1.209 . S
C3637 C219 1.749 . S
C3639 C1799 0.942 . S
C3655 C266 1.347 . S
C3657 C1903 1.150 . S
C3673 C327 1.400 . S
C3675 C1913 0.946 1_565 S
C3691 C374 1.329 . S
C3693 C1685 0.965 1_455 S
C3711 C1789 1.809 . S
C3709 C399 1.961 . S
C3727 C410 1.926 . S
C3729 C1447 1.756 . S
C3745 C338 1.988 . S
C3747 C1571 1.648 . S
C3765 C1333 1.779 . S
C3763 C363 1.927 . S
C3783 C2027 0.936 . S
C3781 C446 1.407 . S
C3799 C471 1.359 . S
C3801 C2141 0.895 . S
C3817 C507 1.716 . S
C3819 C2245 1.250 . S
C3837 C2359 1.239 . S
C3835 C518 1.676 . S
C3855 C2483 1.067 . S
C3853 C435 1.851 . S
C3871 C482 1.902 . S
C3873 C2587 1.373 . S
C3889 C543 1.903 . S
C3891 C2597 1.593 . S
C3907 C590 2.014 . S
C3909 C2369 1.668 . S
C3927 C2473 1.902 . S
C3925 C615 2.045 . S
C3945 C2131 1.141 1_655 S
C3943 C626 1.300 . S
C3963 C2255 1.557 . S
C3961 C554 1.915 . S
C3979 C579 1.346 . S
C3981 C2017 1.122 1_545 S
